# Generated by pormake.
# Topology smu, (6)-cn, num edge types: 1
# Building blocks:
#     Node 0, Type 0, BuildingBlock: BETDAH_clean_sbu_0, # of connection points: 6
#     Node 1, Type 0, BuildingBlock: BETDAH_clean_sbu_0, # of connection points: 6
#     Node 2, Type 0, BuildingBlock: BETDAH_clean_sbu_0, # of connection points: 6
#     Node 3, Type 0, BuildingBlock: BETDAH_clean_sbu_0, # of connection points: 6
#     Node 4, Type 0, BuildingBlock: BETDAH_clean_sbu_0, # of connection points: 6
#     Node 5, Type 0, BuildingBlock: BETDAH_clean_sbu_0, # of connection points: 6
#     Edge 6, Type (0, 0), BuildingBlock: MIFKUJ_clean_linker_0, # of connection points: 2
#     Edge 7, Type (0, 0), BuildingBlock: MIFKUJ_clean_linker_0, # of connection points: 2
#     Edge 8, Type (0, 0), BuildingBlock: MIFKUJ_clean_linker_0, # of connection points: 2
#     Edge 9, Type (0, 0), BuildingBlock: MIFKUJ_clean_linker_0, # of connection points: 2
#     Edge 10, Type (0, 0), BuildingBlock: MIFKUJ_clean_linker_0, # of connection points: 2
#     Edge 11, Type (0, 0), BuildingBlock: MIFKUJ_clean_linker_0, # of connection points: 2
#     Edge 12, Type (0, 0), BuildingBlock: MIFKUJ_clean_linker_0, # of connection points: 2
#     Edge 13, Type (0, 0), BuildingBlock: MIFKUJ_clean_linker_0, # of connection points: 2
#     Edge 14, Type (0, 0), BuildingBlock: MIFKUJ_clean_linker_0, # of connection points: 2
#     Edge 15, Type (0, 0), BuildingBlock: MIFKUJ_clean_linker_0, # of connection points: 2
#     Edge 16, Type (0, 0), BuildingBlock: MIFKUJ_clean_linker_0, # of connection points: 2
#     Edge 17, Type (0, 0), BuildingBlock: MIFKUJ_clean_linker_0, # of connection points: 2
#     Edge 18, Type (0, 0), BuildingBlock: MIFKUJ_clean_linker_0, # of connection points: 2
#     Edge 19, Type (0, 0), BuildingBlock: MIFKUJ_clean_linker_0, # of connection points: 2
#     Edge 20, Type (0, 0), BuildingBlock: MIFKUJ_clean_linker_0, # of connection points: 2
#     Edge 21, Type (0, 0), BuildingBlock: MIFKUJ_clean_linker_0, # of connection points: 2
#     Edge 22, Type (0, 0), BuildingBlock: MIFKUJ_clean_linker_0, # of connection points: 2
#     Edge 23, Type (0, 0), BuildingBlock: MIFKUJ_clean_linker_0, # of connection points: 2
# Relax obj value: 0.209
# Max RMSD: 0.299
# Mean RMSD: 0.299
data_MOF--net-smu--node1-BETDAH_clean_sbu_0--edge1-MIFKUJ_clean_linker_0
_symmetry_space_group_name_H-M    P1
_symmetry_Int_Tables_number       1
_symmetry_cell_setting            triclinic
loop_
_symmetry_equiv_pos_as_xyz
'x, y, z'
_cell_length_a     47.910468
_cell_length_b     47.843495
_cell_length_c     35.136305
_cell_angle_alpha  90.312014
_cell_angle_beta   90.19277
_cell_angle_gamma 120.30524
loop_
_atom_site_label
_atom_site_type_symbol
_atom_site_fract_x
_atom_site_fract_y
_atom_site_fract_z
_atom_type_partial_charge
Ho0 Ho 0.37771 0.09406 0.27695 0.0
Ho1 Ho 0.33182 0.11808 0.2949 0.0
C2 C 0.40751 0.17101 0.29305 0.0
C3 C 0.42424 0.08379 0.25807 0.0
C4 C 0.45973 0.10269 0.25233 0.0
C5 C 0.4744 0.09068 0.22793 0.0
C6 C 0.50818 0.10526 0.22674 0.0
C7 C 0.52815 0.13212 0.25022 0.0
C8 C 0.51329 0.14497 0.27339 0.0
C9 C 0.47953 0.13047 0.27438 0.0
C10 C 0.35304 0.07975 0.34814 0.0
C11 C 0.30239 0.04363 0.27704 0.0
C12 C 0.29851 0.14329 0.32011 0.0
C13 C 0.27065 0.14719 0.30985 0.0
C14 C 0.24934 0.1453 0.33837 0.0
C15 C 0.22626 0.15439 0.3309 0.0
C16 C 0.22427 0.16591 0.2948 0.0
C17 C 0.24466 0.16637 0.2658 0.0
C18 C 0.26749 0.15698 0.27316 0.0
C19 C 0.33215 0.10402 0.21972 0.0
O20 O 0.41333 0.14804 0.28178 0.0
O21 O 0.37831 0.16439 0.3024 0.0
O22 O 0.41471 0.08337 0.29288 0.0
O23 O 0.40541 0.08638 0.23303 0.0
O24 O 0.35699 0.06045 0.32592 0.0
O25 O 0.36253 0.10676 0.33183 0.0
O26 O 0.3002 0.06447 0.29989 0.0
O27 O 0.32951 0.05123 0.2587 0.0
O28 O 0.32401 0.15844 0.29862 0.0
O29 O 0.29302 0.11471 0.33059 0.0
O30 O 0.30766 0.10191 0.23761 0.0
O31 O 0.35657 0.11682 0.24177 0.0
H32 H 0.45969 0.06928 0.21069 0.0
H33 H 0.51859 0.09505 0.20787 0.0
H34 H 0.5276 0.16537 0.29215 0.0
H35 H 0.46888 0.14021 0.29364 0.0
H36 H 0.25145 0.1381 0.36693 0.0
H37 H 0.21107 0.15393 0.35393 0.0
H38 H 0.24342 0.17468 0.23756 0.0
H39 H 0.28352 0.15861 0.25051 0.0
Ho40 Ho 0.73772 0.6605 0.2729 0.0
Ho41 Ho 0.80839 0.70535 0.28553 0.0
C42 C 0.78171 0.62914 0.2831 0.0
C43 C 0.67814 0.62136 0.25306 0.0
C44 C 0.65763 0.58538 0.25496 0.0
C45 C 0.66434 0.56503 0.23248 0.0
C46 C 0.64592 0.53127 0.23592 0.0
C47 C 0.6203 0.51678 0.26203 0.0
C48 C 0.61342 0.53721 0.28419 0.0
C49 C 0.63176 0.57099 0.2806 0.0
C50 C 0.75572 0.6688 0.34836 0.0
C51 C 0.76572 0.73804 0.28044 0.0
C52 C 0.869 0.73546 0.30493 0.0
C53 C 0.90126 0.7625 0.29426 0.0
C54 C 0.91929 0.78701 0.32105 0.0
C55 C 0.95166 0.80998 0.31424 0.0
C56 C 0.9669 0.80881 0.28056 0.0
C57 C 0.94839 0.78512 0.25296 0.0
C58 C 0.91593 0.76219 0.25974 0.0
C59 C 0.78947 0.70444 0.21237 0.0
O60 O 0.75599 0.62566 0.26499 0.0
O61 O 0.80128 0.65656 0.3008 0.0
O62 O 0.6864 0.63698 0.28553 0.0
O63 O 0.70216 0.63309 0.22914 0.0
O64 O 0.73505 0.64154 0.33246 0.0
O65 O 0.76631 0.69009 0.32289 0.0
O66 O 0.79158 0.74017 0.29682 0.0
O67 O 0.74295 0.71043 0.26463 0.0
O68 O 0.85555 0.71029 0.28219 0.0
O69 O 0.84809 0.74247 0.31933 0.0
O70 O 0.81299 0.72923 0.22931 0.0
O71 O 0.77916 0.67998 0.23384 0.0
H72 H 0.68404 0.57512 0.21234 0.0
H73 H 0.65172 0.51653 0.21784 0.0
H74 H 0.59425 0.52718 0.30499 0.0
H75 H 0.62599 0.58593 0.29839 0.0
H76 H 0.90865 0.78774 0.34794 0.0
H77 H 0.96496 0.82829 0.33579 0.0
H78 H 0.95933 0.78335 0.22682 0.0
H79 H 0.90277 0.74352 0.23851 0.0
Ho80 Ho 0.94617 0.29608 0.2765 0.0
Ho81 Ho 0.92713 0.22771 0.29562 0.0
C82 C 0.87061 0.24359 0.28376 0.0
C83 C 0.9493 0.34817 0.24918 0.0
C84 C 0.93161 0.36633 0.25368 0.0
C85 C 0.91312 0.3678 0.22339 0.0
C86 C 0.89802 0.38641 0.22642 0.0
C87 C 0.90119 0.40435 0.25975 0.0
C88 C 0.91939 0.4025 0.29021 0.0
C89 C 0.93436 0.38381 0.28724 0.0
C90 C 0.95707 0.28917 0.35062 0.0
C91 C 1.0007 0.27845 0.28706 0.0
C92 C 0.90468 0.17044 0.32476 0.0
C93 C 0.88963 0.13618 0.31211 0.0
C94 C 0.90223 0.11724 0.32569 0.0
C95 C 0.8877 0.0844 0.31591 0.0
C96 C 0.86005 0.06958 0.29234 0.0
C97 C 0.84763 0.08871 0.27837 0.0
C98 C 0.86229 0.12167 0.28807 0.0
C99 C 0.94562 0.24215 0.22189 0.0
O100 O 0.89292 0.27437 0.28852 0.0
O101 O 0.87864 0.22107 0.28073 0.0
O102 O 0.96637 0.34806 0.27811 0.0
O103 O 0.93424 0.32002 0.23202 0.0
O104 O 0.97491 0.31437 0.33016 0.0
O105 O 0.93254 0.26867 0.33138 0.0
O106 O 0.97972 0.25619 0.31024 0.0
O107 O 0.99177 0.29451 0.26401 0.0
O108 O 0.88777 0.18476 0.32105 0.0
O109 O 0.93499 0.18948 0.31624 0.0
O110 O 0.94796 0.22063 0.24151 0.0
O111 O 0.92993 0.25215 0.24094 0.0
H112 H 0.91074 0.35493 0.19701 0.0
H113 H 0.88456 0.38743 0.20217 0.0
H114 H 0.92206 0.41549 0.31656 0.0
H115 H 0.94839 0.38341 0.31123 0.0
H116 H 0.92315 0.12778 0.34443 0.0
H117 H 0.89771 0.07043 0.32768 0.0
H118 H 0.82662 0.07824 0.25981 0.0
H119 H 0.85204 0.13566 0.27701 0.0
Ho120 Ho 0.11579 0.32019 0.79847 0.0
Ho121 Ho 0.10016 0.37212 0.77759 0.0
C122 C 0.04316 0.30034 0.78931 0.0
C123 C 0.13536 0.28422 0.83063 0.0
C124 C 0.15057 0.26481 0.82073 0.0
C125 C 0.13455 0.23188 0.8302 0.0
C126 C 0.14875 0.21307 0.82299 0.0
C127 C 0.17949 0.22677 0.80627 0.0
C128 C 0.19555 0.25979 0.79666 0.0
C129 C 0.18121 0.27862 0.80372 0.0
C130 C 0.09834 0.31699 0.72419 0.0
C131 C 0.17481 0.39198 0.78734 0.0
C132 C 0.10084 0.42197 0.74729 0.0
C133 C 0.11923 0.45784 0.75301 0.0
C134 C 0.1438 0.47795 0.72759 0.0
C135 C 0.15999 0.51181 0.73163 0.0
C136 C 0.15188 0.52652 0.76104 0.0
C137 C 0.12768 0.5063 0.78682 0.0
C138 C 0.11156 0.47253 0.78282 0.0
C139 C 0.08954 0.3562 0.85193 0.0
O140 O 0.06369 0.29868 0.81299 0.0
O141 O 0.05305 0.32528 0.76587 0.0
O142 O 0.15297 0.31569 0.82831 0.0
O143 O 0.10583 0.27327 0.81854 0.0
O144 O 0.09552 0.2926 0.74315 0.0
O145 O 0.11427 0.34241 0.74401 0.0
O146 O 0.15364 0.40181 0.79148 0.0
O147 O 0.16527 0.36092 0.7841 0.0
O148 O 0.08098 0.40448 0.7741 0.0
O149 O 0.11653 0.40853 0.73329 0.0
O150 O 0.0737 0.36622 0.83175 0.0
O151 O 0.11272 0.35776 0.83262 0.0
H152 H 0.11108 0.22073 0.8437 0.0
H153 H 0.13589 0.18789 0.83132 0.0
H154 H 0.21912 0.27103 0.78345 0.0
H155 H 0.19423 0.30398 0.79612 0.0
H156 H 0.15018 0.46752 0.70412 0.0
H157 H 0.17822 0.52644 0.71097 0.0
H158 H 0.12108 0.51658 0.81022 0.0
H159 H 0.0928 0.45796 0.80298 0.0
Ho160 Ho 0.23631 0.91678 0.79156 0.0
Ho161 Ho 0.30922 0.94646 0.78114 0.0
C162 C 0.27926 0.99291 0.78013 0.0
C163 C 0.1769 0.88735 0.81439 0.0
C164 C 0.14461 0.88379 0.80919 0.0
C165 C 0.1248 0.87718 0.8411 0.0
C166 C 0.09222 0.868 0.8368 0.0
C167 C 0.07865 0.86518 0.80039 0.0
C168 C 0.099 0.87343 0.76851 0.0
C169 C 0.13165 0.88258 0.77285 0.0
C170 C 0.25625 0.93536 0.71918 0.0
C171 C 0.26485 0.86843 0.79214 0.0
C172 C 0.36708 0.95893 0.76386 0.0
C173 C 0.385 0.94089 0.76364 0.0
C174 C 0.38738 0.92561 0.73046 0.0
C175 C 0.40544 0.90981 0.73048 0.0
C176 C 0.42179 0.90915 0.7636 0.0
C177 C 0.41908 0.92421 0.79675 0.0
C178 C 0.40114 0.93992 0.79673 0.0
C179 C 0.29157 0.95485 0.85132 0.0
O180 O 0.254 0.96957 0.79789 0.0
O181 O 0.30267 0.98882 0.7659 0.0
O182 O 0.18751 0.87693 0.78663 0.0
O183 O 0.19979 0.91374 0.83082 0.0
O184 O 0.23087 0.93402 0.73391 0.0
O185 O 0.26764 0.92321 0.74208 0.0
O186 O 0.29431 0.89359 0.78811 0.0
O187 O 0.23933 0.87183 0.79452 0.0
O188 O 0.35893 0.9645 0.79722 0.0
O189 O 0.34427 0.95129 0.73837 0.0
O190 O 0.31739 0.97582 0.83387 0.0
O191 O 0.27679 0.92891 0.83166 0.0
H192 H 0.13421 0.87785 0.86939 0.0
H193 H 0.07746 0.86247 0.86202 0.0
H194 H 0.08939 0.8714 0.74005 0.0
H195 H 0.14639 0.88743 0.74771 0.0
H196 H 0.3756 0.92615 0.70434 0.0
H197 H 0.4072 0.8988 0.70429 0.0
H198 H 0.43081 0.92381 0.82298 0.0
H199 H 0.40013 0.95154 0.82282 0.0
Ho200 Ho 0.71076 0.80468 0.78378 0.0
Ho201 Ho 0.66513 0.73275 0.77227 0.0
C202 C 0.74293 0.7618 0.77353 0.0
C203 C 0.74087 0.8655 0.80332 0.0
C204 C 0.76622 0.89858 0.79175 0.0
C205 C 0.79427 0.91606 0.81413 0.0
C206 C 0.8158 0.94901 0.80747 0.0
C207 C 0.80955 0.96543 0.77854 0.0
C208 C 0.7821 0.94761 0.75524 0.0
C209 C 0.76073 0.91465 0.76173 0.0
C210 C 0.70667 0.78501 0.71036 0.0
C211 C 0.63447 0.777 0.78501 0.0
C212 C 0.62579 0.67285 0.75282 0.0
C213 C 0.59029 0.65124 0.75683 0.0
C214 C 0.5726 0.62795 0.72866 0.0
C215 C 0.53888 0.60819 0.73134 0.0
C216 C 0.5219 0.61117 0.76237 0.0
C217 C 0.53986 0.63464 0.79058 0.0
C218 C 0.57355 0.65448 0.78776 0.0
C219 C 0.67638 0.75208 0.84732 0.0
O220 O 0.74647 0.7884 0.78967 0.0
O221 O 0.71451 0.73816 0.76069 0.0
O222 O 0.71425 0.85135 0.78307 0.0
O223 O 0.74964 0.84515 0.81518 0.0
O224 O 0.73167 0.8096 0.72555 0.0
O225 O 0.68338 0.77437 0.73364 0.0
O226 O 0.63052 0.75127 0.76637 0.0
O227 O 0.66226 0.79672 0.80187 0.0
O228 O 0.64307 0.68145 0.7841 0.0
O229 O 0.6349 0.6971 0.72964 0.0
O230 O 0.64864 0.73086 0.83294 0.0
O231 O 0.6966 0.76235 0.82065 0.0
H232 H 0.79894 0.90454 0.83781 0.0
H233 H 0.83654 0.96197 0.82617 0.0
H234 H 0.77677 0.95931 0.73236 0.0
H235 H 0.7393 0.90212 0.74398 0.0
H236 H 0.58486 0.62523 0.7043 0.0
H237 H 0.5261 0.59094 0.70865 0.0
H238 H 0.52797 0.63752 0.81517 0.0
H239 H 0.5865 0.67245 0.80976 0.0
H240 H 0.2483 0.96819 0.88501 0.0
H241 H 0.25278 0.9904 0.94948 0.0
H242 H 0.33337 0.97654 0.97323 0.0
H243 H 0.32865 0.95424 0.90906 0.0
H244 H 0.29886 0.9655 0.03622 0.0
H245 H 0.34499 0.049 0.94393 0.0
H246 H 0.34758 0.07926 0.88621 0.0
H247 H 0.27268 0.09455 0.92982 0.0
H248 H 0.26917 0.06377 0.98754 0.0
H249 H 0.37686 0.09529 0.17899 0.0
H250 H 0.36757 0.06538 0.11852 0.0
H251 H 0.27134 0.05089 0.11213 0.0
H252 H 0.27986 0.07906 0.17298 0.0
H253 H 0.31416 0.07605 0.04144 0.0
H254 H 0.26837 0.98878 0.13405 0.0
H255 H 0.26987 0.9598 0.19119 0.0
H256 H 0.35075 0.9555 0.14615 0.0
H257 H 0.34978 0.98445 0.08866 0.0
C258 C 0.26604 0.96866 0.90461 0.0
C259 C 0.28759 0.95872 0.89242 0.0
C260 C 0.26898 0.98184 0.94129 0.0
C261 C 0.29378 0.98568 0.96631 0.0
C262 C 0.31401 0.97388 0.95475 0.0
C263 C 0.31116 0.96088 0.91812 0.0
C264 C 0.30027 1.00401 1.00318 0.0
C265 C 0.30242 0.98976 0.03716 0.0
C266 C 0.30505 0.0358 1.00486 0.0
C267 C 0.3066 0.05381 0.96992 0.0
C268 C 0.32883 0.05851 0.94106 0.0
C269 C 0.33051 0.07581 0.90838 0.0
C270 C 0.31038 0.08889 0.90442 0.0
C271 C 0.28833 0.08447 0.933 0.0
C272 C 0.28644 0.06705 0.96568 0.0
C273 C 0.35369 0.08543 0.16493 0.0
C274 C 0.32902 0.08916 0.1813 0.0
C275 C 0.3484 0.06845 0.13026 0.0
C276 C 0.31861 0.05565 0.11086 0.0
C277 C 0.29445 0.06041 0.12652 0.0
C278 C 0.29946 0.07664 0.16138 0.0
C279 C 0.31239 0.03736 0.07421 0.0
C280 C 0.31043 0.05173 0.04033 0.0
C281 C 0.3083 1.00595 0.07252 0.0
C282 C 0.30928 0.98913 0.10732 0.0
C283 C 0.28671 0.98199 0.13652 0.0
C284 C 0.2874 0.9655 0.16891 0.0
C285 C 0.31049 0.95602 0.17242 0.0
C286 C 0.33292 0.96292 0.14345 0.0
C287 C 0.33228 0.97931 0.11092 0.0
H288 H 0.3109 0.9432 0.1975 0.0
H289 H 0.31191 0.1025 0.87923 0.0
H290 H 0.6583 0.73202 0.6704 0.0
H291 H 0.66411 0.70878 0.61015 0.0
H292 H 0.76427 0.7839 0.60504 0.0
H293 H 0.75878 0.8065 0.66483 0.0
H294 H 0.73457 0.77546 0.53673 0.0
H295 H 0.74302 0.70797 0.63244 0.0
H296 H 0.72313 0.67113 0.68726 0.0
H297 H 0.64047 0.60274 0.62191 0.0
H298 H 0.65965 0.63945 0.56683 0.0
H299 H 0.797 0.72249 0.39018 0.0
H300 H 0.78765 0.73902 0.45272 0.0
H301 H 0.69498 0.65105 0.45839 0.0
H302 H 0.70534 0.63361 0.39709 0.0
H303 H 0.71638 0.66408 0.52603 0.0
H304 H 0.70855 0.73054 0.42919 0.0
H305 H 0.7273 0.76838 0.37516 0.0
H306 H 0.80635 0.83938 0.44297 0.0
H307 H 0.78858 0.80178 0.4971 0.0
C308 C 0.68156 0.74328 0.6566 0.0
C309 C 0.70812 0.77085 0.6729 0.0
C310 C 0.68489 0.73008 0.62205 0.0
C311 C 0.71478 0.7444 0.60296 0.0
C312 C 0.74097 0.77229 0.61895 0.0
C313 C 0.73773 0.7852 0.65335 0.0
C314 C 0.71936 0.7309 0.56634 0.0
C315 C 0.73079 0.75116 0.53449 0.0
C316 C 0.71376 0.69895 0.56288 0.0
C317 C 0.7026 0.67659 0.59565 0.0
C318 C 0.7205 0.68516 0.62983 0.0
C319 C 0.70937 0.6643 0.66095 0.0
C320 C 0.68051 0.63465 0.6581 0.0
C321 C 0.6628 0.62574 0.62408 0.0
C322 C 0.6738 0.64655 0.5929 0.0
C323 C 0.77493 0.70641 0.40515 0.0
C324 C 0.75196 0.67676 0.38851 0.0
C325 C 0.76932 0.71606 0.44081 0.0
C326 C 0.74 0.69691 0.46022 0.0
C327 C 0.7177 0.66658 0.44429 0.0
C328 C 0.72367 0.65656 0.40906 0.0
C329 C 0.73214 0.70886 0.49621 0.0
C330 C 0.71999 0.68832 0.52798 0.0
C331 C 0.73686 0.74059 0.4996 0.0
C332 C 0.74739 0.76322 0.46708 0.0
C333 C 0.73007 0.75413 0.43248 0.0
C334 C 0.74056 0.77549 0.40183 0.0
C335 C 0.76806 0.80614 0.40569 0.0
C336 C 0.78513 0.81556 0.44007 0.0
C337 C 0.77488 0.79424 0.47071 0.0
H338 H 0.776 0.82277 0.3822 0.0
H339 H 0.6719 0.61854 0.68223 0.0
H340 H 0.98165 0.22231 0.18346 0.0
H341 H 1.00807 0.24035 0.12201 0.0
H342 H 0.97171 0.30618 0.11261 0.0
H343 H 0.94458 0.28756 0.17431 0.0
H344 H 0.96451 0.27596 0.04661 0.0
H345 H 0.05437 0.332 0.13463 0.0
H346 H 0.09308 0.3391 0.18553 0.0
H347 H 0.11763 0.27603 0.12575 0.0
H348 H 0.07897 0.26843 0.07457 0.0
H349 H 0.05805 0.37487 0.89948 0.0
H350 H 0.03595 0.35387 0.96188 0.0
H351 H 0.07667 0.2915 0.95774 0.0
H352 H 0.09994 0.31352 0.89472 0.0
H353 H 0.08121 0.31521 1.02884 0.0
H354 H 0.99511 0.26115 0.93946 0.0
H355 H 0.96057 0.2571 0.88503 0.0
H356 H 0.92913 0.31432 0.94573 0.0
H357 H 0.96366 0.31895 1.00043 0.0
C358 C 0.97916 0.24059 0.16833 0.0
C359 C 0.96091 0.25346 0.18388 0.0
C360 C 0.99462 0.25115 0.13319 0.0
C361 C 0.99249 0.27509 0.11256 0.0
C362 C 0.97395 0.28779 0.12787 0.0
C363 C 0.95843 0.27718 0.16321 0.0
C364 C 1.00872 0.28609 0.07464 0.0
C365 C 0.99012 0.28491 0.04298 0.0
C366 C 0.04192 0.29651 0.06904 0.0
C367 C 0.06367 0.29954 0.10088 0.0
C368 C 0.06779 0.3194 0.13253 0.0
C369 C 0.08989 0.32369 0.16128 0.0
C370 C 0.10805 0.30832 0.15863 0.0
C371 C 0.10376 0.28816 0.12757 0.0
C372 C 0.08179 0.28387 0.09869 0.0
C373 C 0.06273 0.35695 0.91193 0.0
C374 C 0.08073 0.34583 0.89206 0.0
C375 C 0.04976 0.34471 0.94763 0.0
C376 C 0.0537 0.32033 0.96434 0.0
C377 C 0.07296 0.31008 0.94539 0.0
C378 C 0.08642 0.32275 0.90948 0.0
C379 C 0.03715 0.30572 1.0012 0.0
C380 C 0.05556 0.30603 0.03252 0.0
C381 C 1.00369 0.29408 1.00643 0.0
C382 C 0.98219 0.29061 0.97397 0.0
C383 C 0.98093 0.27298 0.94116 0.0
C384 C 0.96137 0.2706 0.91024 0.0
C385 C 0.94286 0.28563 0.91184 0.0
C386 C 0.94357 0.30278 0.94451 0.0
C387 C 0.96307 0.30522 0.97552 0.0
H388 H 0.92788 0.28394 0.88781 0.0
H389 H 0.12526 0.3118 0.18084 0.0
H390 H 0.31407 0.01938 0.37342 0.0
H391 H 0.29979 1.0008 0.43877 0.0
H392 H 0.35372 0.09942 0.47925 0.0
H393 H 0.36732 0.1185 0.41289 0.0
H394 H 0.36117 0.03207 0.507 0.0
H395 H 0.2969 0.08676 0.50272 0.0
H396 H 0.25768 0.09753 0.46998 0.0
H397 H 0.18855 0.99565 0.46648 0.0
H398 H 0.22761 0.98429 0.49867 0.0
H399 H 0.31884 0.97959 0.69913 0.0
H400 H 0.33699 1.00965 0.63982 0.0
H401 H 0.24059 0.95246 0.59308 0.0
H402 H 0.22197 0.92501 0.65402 0.0
H403 H 0.25835 1.00588 0.56974 0.0
H404 H 0.31538 0.94718 0.56889 0.0
H405 H 0.35135 0.92862 0.59413 0.0
H406 H 0.4301 0.02682 0.59905 0.0
H407 H 0.39448 0.046 0.57427 0.0
C408 C 0.32236 0.03729 0.39608 0.0
C409 C 0.34159 0.07046 0.38789 0.0
C410 C 0.3143 0.02655 0.4335 0.0
C411 C 0.3257 0.04861 0.46396 0.0
C412 C 0.34454 0.08194 0.45611 0.0
C413 C 0.35212 0.09286 0.41825 0.0
C414 C 0.31847 0.03595 0.50364 0.0
C415 C 0.33909 0.027 0.52132 0.0
C416 C 0.28892 0.0278 0.52132 0.0
C417 C 0.26526 0.03469 0.50275 0.0
C418 C 0.27344 0.06666 0.49466 0.0
C419 C 0.25122 0.07287 0.47628 0.0
C420 C 0.22067 0.04728 0.46608 0.0
C421 C 0.21223 1.01544 0.47437 0.0
C422 C 0.23438 1.00912 0.49272 0.0
C423 C 0.30166 0.97313 0.67606 0.0
C424 C 0.26902 0.94959 0.68119 0.0
C425 C 0.3121 0.99032 0.64175 0.0
C426 C 0.2905 0.98328 0.61093 0.0
C427 C 0.25802 0.95889 0.61597 0.0
C428 C 0.24736 0.94278 0.65078 0.0
C429 C 0.30113 1.0017 0.57399 0.0
C430 C 0.28087 1.01134 0.55631 0.0
C431 C 0.33064 1.00955 0.55571 0.0
C432 C 0.35218 0.99804 0.57012 0.0
C433 C 0.34033 0.96481 0.57554 0.0
C434 C 0.36065 0.95419 0.58975 0.0
C435 C 0.39296 0.97653 0.59831 0.0
C436 C 0.40506 1.00955 0.59249 0.0
C437 C 0.38482 0.02031 0.57833 0.0
H438 H 0.40864 0.96826 0.60936 0.0
H439 H 0.20351 0.05213 0.45181 0.0
H440 H 0.73281 0.79278 0.88527 0.0
H441 H 0.75057 0.78482 0.94769 0.0
H442 H 0.66004 0.69536 0.96028 0.0
H443 H 0.64155 0.70445 0.89918 0.0
H444 H 0.67531 0.71955 1.02559 0.0
H445 H 0.73811 0.70162 0.93186 0.0
H446 H 0.77474 0.71509 0.87715 0.0
H447 H 0.84769 0.79922 0.93654 0.0
H448 H 0.81155 0.7861 0.99176 0.0
H449 H 0.73756 0.65704 0.17025 0.0
H450 H 0.71646 0.66409 0.10917 0.0
H451 H 0.79315 0.76375 0.10634 0.0
H452 H 0.81346 0.75719 0.16734 0.0
H453 H 0.78433 0.73218 0.03643 0.0
H454 H 0.72048 0.74806 0.13078 0.0
H455 H 0.68391 0.73219 0.18582 0.0
H456 H 0.6123 0.64871 0.12423 0.0
H457 H 0.64857 0.66395 0.06888 0.0
C458 C 0.71652 0.7717 0.90169 0.0
C459 C 0.68577 0.74929 0.88711 0.0
C460 C 0.72687 0.76684 0.93728 0.0
C461 C 0.7072 0.73884 0.95872 0.0
C462 C 0.67598 0.71708 0.94465 0.0
C463 C 0.66535 0.72233 0.90951 0.0
C464 C 0.71912 0.7319 0.99531 0.0
C465 C 0.69899 0.72188 1.02754 0.0
C466 C 0.75021 0.73519 0.9988 0.0
C467 C 0.77204 0.74303 0.96576 0.0
C468 C 0.76192 0.72306 0.93317 0.0
C469 C 0.7826 0.73063 0.90208 0.0
C470 C 0.81345 0.75812 0.90326 0.0
C471 C 0.82377 0.77797 0.93564 0.0
C472 C 0.80325 0.77041 0.9669 0.0
C473 C 0.74969 0.68045 0.15677 0.0
C474 C 0.77695 0.70659 0.17411 0.0
C475 C 0.73771 0.68448 0.12173 0.0
C476 C 0.75309 0.71458 0.10306 0.0
C477 C 0.7808 0.74031 0.11994 0.0
C478 C 0.79238 0.73645 0.155 0.0
C479 C 0.74049 0.71981 0.06622 0.0
C480 C 0.76056 0.72961 0.03413 0.0
C481 C 0.70928 0.71596 0.06276 0.0
C482 C 0.68736 0.70695 0.09585 0.0
C483 C 0.69703 0.72619 0.12908 0.0
C484 C 0.67635 0.71733 0.16031 0.0
C485 C 0.64587 0.68939 0.15859 0.0
C486 C 0.63594 0.67032 0.12555 0.0
C487 C 0.65653 0.67907 0.09421 0.0
H488 H 0.6299 0.68256 0.18281 0.0
H489 H 0.82943 0.76397 0.87919 0.0
H490 H 0.92007 0.25275 0.412 0.0
H491 H 0.93967 0.25457 0.4777 0.0
H492 H 0.03751 0.31859 0.4411 0.0
H493 H 1.01817 0.31775 0.37689 0.0
H494 H 0.97974 0.24047 0.51479 0.0
H495 H 0.08089 0.37582 0.50383 0.0
H496 H 0.09015 0.42533 0.47129 0.0
H497 H 0.9877 0.38677 0.46257 0.0
H498 H 0.97782 0.33726 0.49553 0.0
H499 H 0.08926 0.27416 0.66765 0.0
H500 H 0.06241 0.26682 0.60618 0.0
H501 H 0.0432 0.34339 0.63501 0.0
H502 H 0.07302 0.35272 0.69485 0.0
H503 H 0.0538 0.34976 0.56834 0.0
H504 H 0.98316 0.25148 0.63418 0.0
H505 H 0.96662 0.20082 0.6689 0.0
H506 H 0.99669 0.16448 0.57545 0.0
H507 H 1.01355 0.21487 0.54007 0.0
C508 C 0.94573 0.26692 0.41812 0.0
C509 C 0.96749 0.28549 0.38937 0.0
C510 C 0.95697 0.26801 0.45565 0.0
C511 C 0.99012 0.28751 0.46488 0.0
C512 C 1.01179 0.30421 0.43538 0.0
C513 C 1.00064 0.30355 0.39844 0.0
C514 C 1.00254 0.29165 0.50507 0.0
C515 C 0.99579 0.26435 0.52665 0.0
C516 C 0.02287 0.32277 0.52129 0.0
C517 C 0.02864 0.35271 0.5019 0.0
C518 C 0.06034 0.37798 0.49515 0.0
C519 C 0.0657 0.40603 0.47659 0.0
C520 C 0.03953 0.40915 0.46478 0.0
C521 C 1.00795 0.38428 0.47162 0.0
C522 C 1.00246 0.35621 0.49021 0.0
C523 C 0.07959 0.28966 0.66059 0.0
C524 C 0.08345 0.31415 0.68604 0.0
C525 C 0.06362 0.28506 0.62556 0.0
C526 C 0.0495 0.30373 0.61572 0.0
C527 C 0.05362 0.32844 0.64131 0.0
C528 C 0.07077 0.33387 0.67572 0.0
C529 C 0.03167 0.2985 0.5784 0.0
C530 C 0.0375 0.32573 0.55708 0.0
C531 C 1.00964 0.26726 0.56312 0.0
C532 C 0.99984 0.23709 0.58458 0.0
C533 C 0.98644 0.23278 0.62112 0.0
C534 C 0.97698 0.20411 0.64091 0.0
C535 C 0.9807 0.17954 0.62451 0.0
C536 C 0.99384 0.18354 0.58816 0.0
C537 C 1.00329 0.21211 0.56817 0.0
H538 H 0.97332 0.15738 0.63993 0.0
H539 H 0.04373 0.43087 0.45039 0.0
H540 H 0.577 0.19573 0.25963 0.0
H541 H 0.63501 0.21656 0.26653 0.0
H542 H 0.61907 0.1201 0.25095 0.0
H543 H 0.56102 0.09886 0.24604 0.0
H544 H 0.65963 0.14817 0.3071 0.0
H545 H 0.6516 0.18046 0.17974 0.0
H546 H 0.6365 0.20725 0.13072 0.0
H547 H 0.69535 0.29908 0.18632 0.0
H548 H 0.71047 0.27276 0.23596 0.0
H549 H 0.81874 0.18289 0.27132 0.0
H550 H 0.76179 0.16664 0.26619 0.0
H551 H 0.7858 0.26542 0.28564 0.0
H552 H 0.84325 0.28212 0.28997 0.0
H553 H 0.7418 0.23893 0.23022 0.0
H554 H 0.75147 0.20708 0.35615 0.0
H555 H 0.76689 0.18046 0.40502 0.0
H556 H 0.70495 0.08797 0.35234 0.0
H557 H 0.68948 0.11408 0.30283 0.0
C558 C 0.58573 0.17884 0.25787 0.0
C559 C 0.56401 0.1455 0.25211 0.0
C560 C 0.61909 0.1909 0.2614 0.0
C561 C 0.63172 0.17004 0.25883 0.0
C562 C 0.61013 0.13681 0.25295 0.0
C563 C 0.5768 0.12472 0.24966 0.0
C564 C 0.6672 0.18246 0.26315 0.0
C565 C 0.6775 0.16775 0.28989 0.0
C566 C 0.69087 0.20873 0.24167 0.0
C567 C 0.68189 0.22459 0.21177 0.0
C568 C 0.66113 0.20633 0.18166 0.0
C569 C 0.6526 0.22143 0.15374 0.0
C570 C 0.66489 0.25483 0.15546 0.0
C571 C 0.68581 0.27321 0.18506 0.0
C572 C 0.69439 0.25822 0.21307 0.0
C573 C 0.81205 0.20127 0.27464 0.0
C574 C 0.83576 0.23385 0.28133 0.0
C575 C 0.7793 0.19185 0.27185 0.0
C576 C 0.76922 0.21465 0.27613 0.0
C577 C 0.79284 0.24729 0.28237 0.0
C578 C 0.82573 0.2568 0.28501 0.0
C579 C 0.7341 0.20428 0.27374 0.0
C580 C 0.72389 0.21942 0.24748 0.0
C581 C 0.71047 0.1784 0.29568 0.0
C582 C 0.71952 0.16259 0.3256 0.0
C583 C 0.7413 0.18109 0.35484 0.0
C584 C 0.75002 0.16608 0.38268 0.0
C585 C 0.73696 0.13255 0.38174 0.0
C586 C 0.71507 0.11394 0.35301 0.0
C587 C 0.70628 0.12883 0.32508 0.0
H588 H 0.74376 0.12099 0.40331 0.0
H589 H 0.65825 0.26648 0.13382 0.0
H590 H 0.64154 0.47289 0.25805 0.0
H591 H 0.60994 0.41406 0.26483 0.0
H592 H 0.52398 0.41957 0.28351 0.0
H593 H 0.55512 0.47825 0.27585 0.0
H594 H 0.52994 0.38024 0.33529 0.0
H595 H 0.53736 0.39387 0.19855 0.0
H596 H 0.56642 0.41336 0.13789 0.0
H597 H 0.61498 0.35994 0.15769 0.0
H598 H 0.5865 0.34047 0.21875 0.0
H599 H 0.40105 0.22335 0.30832 0.0
H600 H 0.44141 0.28026 0.30517 0.0
H601 H 0.51403 0.25603 0.27576 0.0
H602 H 0.47292 0.19809 0.27761 0.0
H603 H 0.52116 0.30432 0.23292 0.0
H604 H 0.51147 0.2867 0.36618 0.0
H605 H 0.48385 0.26715 0.42763 0.0
H606 H 0.44244 0.32811 0.41673 0.0
H607 H 0.46944 0.34771 0.35495 0.0
C608 C 0.61583 0.46166 0.26307 0.0
C609 C 0.60103 0.48064 0.26627 0.0
C610 C 0.59779 0.4279 0.26712 0.0
C611 C 0.56447 0.41221 0.27448 0.0
C612 C 0.54966 0.43104 0.27799 0.0
C613 C 0.56762 0.46474 0.27376 0.0
C614 C 0.54493 0.37626 0.27887 0.0
C615 C 0.5278 0.36366 0.31276 0.0
C616 C 0.54309 0.35444 0.25016 0.0
C617 C 0.56008 0.36601 0.2134 0.0
C618 C 0.55443 0.38649 0.19011 0.0
C619 C 0.57076 0.3975 0.15563 0.0
C620 C 0.59261 0.38797 0.144 0.0
C621 C 0.5981 0.36734 0.16677 0.0
C622 C 0.58185 0.3563 0.2013 0.0
C623 C 0.42561 0.2298 0.30149 0.0
C624 C 0.43361 0.2058 0.2935 0.0
C625 C 0.44886 0.26265 0.2999 0.0
C626 C 0.48111 0.27277 0.291 0.0
C627 C 0.48938 0.24897 0.28295 0.0
C628 C 0.46588 0.2158 0.28421 0.0
C629 C 0.50545 0.30823 0.28907 0.0
C630 C 0.52354 0.3208 0.25569 0.0
C631 C 0.5085 0.33008 0.31847 0.0
C632 C 0.49235 0.31853 0.35578 0.0
C633 C 0.49631 0.29579 0.37677 0.0
C634 C 0.48078 0.28472 0.41168 0.0
C635 C 0.46136 0.29634 0.42604 0.0
C636 C 0.45749 0.31912 0.40556 0.0
C637 C 0.47294 0.33026 0.37062 0.0
H638 H 0.44935 0.28773 0.45307 0.0
H639 H 0.60523 0.39652 0.11729 0.0
H640 H 0.84166 0.39199 0.23324 0.0
H641 H 0.81785 0.4267 0.2377 0.0
H642 H 0.903 0.49935 0.29681 0.0
H643 H 0.92684 0.46479 0.29257 0.0
H644 H 0.8514 0.49343 0.33045 0.0
H645 H 0.88646 0.50543 0.19998 0.0
H646 H 0.88903 0.48617 0.13555 0.0
H647 H 0.78633 0.44392 0.12265 0.0
H648 H 0.7831 0.46259 0.18722 0.0
H649 H 0.83582 0.63155 0.3124 0.0
H650 H 0.85182 0.59079 0.30885 0.0
H651 H 0.76313 0.52605 0.24943 0.0
H652 H 0.74719 0.56746 0.25203 0.0
H653 H 0.8116 0.52399 0.21663 0.0
H654 H 0.77679 0.51483 0.34541 0.0
H655 H 0.77402 0.53408 0.40976 0.0
H656 H 0.87549 0.57033 0.42623 0.0
H657 H 0.87898 0.55169 0.36177 0.0
C658 C 0.85548 0.41546 0.24694 0.0
C659 C 0.8863 0.42543 0.26251 0.0
C660 C 0.84178 0.43537 0.24948 0.0
C661 C 0.85865 0.46601 0.26725 0.0
C662 C 0.8893 0.47588 0.28304 0.0
C663 C 0.90292 0.45595 0.28068 0.0
C664 C 0.84455 0.48778 0.26973 0.0
C665 C 0.84305 0.50034 0.30544 0.0
C666 C 0.83255 0.4962 0.23743 0.0
C667 C 0.8345 0.48511 0.19856 0.0
C668 C 0.8644 0.49183 0.1835 0.0
C669 C 0.86598 0.48105 0.14694 0.0
C670 C 0.83785 0.46375 0.12506 0.0
C671 C 0.80809 0.45728 0.13965 0.0
C672 C 0.80637 0.46797 0.17621 0.0
C673 C 0.81943 0.60858 0.29883 0.0
C674 C 0.79001 0.60288 0.28273 0.0
C675 C 0.82864 0.58509 0.29695 0.0
C676 C 0.80856 0.55488 0.27943 0.0
C677 C 0.77911 0.54903 0.26327 0.0
C678 C 0.76991 0.57271 0.26493 0.0
C679 C 0.81894 0.53005 0.27729 0.0
C680 C 0.81973 0.5169 0.24168 0.0
C681 C 0.83023 0.521 0.30972 0.0
C682 C 0.82818 0.53206 0.34862 0.0
C683 C 0.79856 0.52709 0.36265 0.0
C684 C 0.79686 0.53787 0.39917 0.0
C685 C 0.82457 0.55347 0.42204 0.0
C686 C 0.85404 0.55826 0.40848 0.0
C687 C 0.85589 0.54755 0.37197 0.0
H688 H 0.82321 0.56181 0.45029 0.0
H689 H 0.83912 0.45542 0.09677 0.0
H690 H 0.21571 0.57307 0.74862 0.0
H691 H 0.24041 0.63206 0.7523 0.0
H692 H 0.14869 0.62091 0.78508 0.0
H693 H 0.12367 0.56228 0.77999 0.0
H694 H 0.17546 0.66612 0.73333 0.0
H695 H 0.21322 0.64219 0.85013 0.0
H696 H 0.24096 0.61964 0.88728 0.0
H697 H 0.32924 0.68055 0.8278 0.0
H698 H 0.30197 0.70339 0.79015 0.0
H699 H 0.2096 0.81331 0.81182 0.0
H700 H 0.19704 0.75754 0.80554 0.0
H701 H 0.29371 0.79006 0.76615 0.0
H702 H 0.30679 0.84671 0.77269 0.0
H703 H 0.27089 0.73631 0.8145 0.0
H704 H 0.2348 0.76405 0.70215 0.0
H705 H 0.20735 0.78666 0.66461 0.0
H706 H 0.11637 0.71805 0.71381 0.0
H707 H 0.14335 0.69533 0.75211 0.0
C708 C 0.20072 0.58316 0.75637 0.0
C709 C 0.16761 0.56266 0.76414 0.0
C710 C 0.21501 0.61699 0.75887 0.0
C711 C 0.19658 0.63118 0.76939 0.0
C712 C 0.16356 0.61075 0.77701 0.0
C713 C 0.1493 0.57705 0.77446 0.0
C714 C 0.21109 0.66718 0.77175 0.0
C715 C 0.19615 0.68133 0.75139 0.0
C716 C 0.23892 0.68751 0.79408 0.0
C717 C 0.25547 0.67423 0.81708 0.0
C718 C 0.23851 0.65066 0.84486 0.0
C719 C 0.25416 0.63788 0.86604 0.0
C720 C 0.28683 0.64863 0.85985 0.0
C721 C 0.30395 0.67229 0.83257 0.0
C722 C 0.28842 0.68519 0.81135 0.0
C723 C 0.22845 0.80887 0.80209 0.0
C724 C 0.25917 0.83473 0.79235 0.0
C725 C 0.22113 0.77677 0.79844 0.0
C726 C 0.24415 0.76941 0.78463 0.0
C727 C 0.27544 0.79508 0.77665 0.0
C728 C 0.28289 0.82747 0.78041 0.0
C729 C 0.23449 0.73486 0.77707 0.0
C730 C 0.25038 0.72108 0.79622 0.0
C731 C 0.20758 0.71475 0.75345 0.0
C732 C 0.19115 0.72813 0.73021 0.0
C733 C 0.20897 0.75392 0.70516 0.0
C734 C 0.19349 0.76674 0.68372 0.0
C735 C 0.16015 0.75384 0.68687 0.0
C736 C 0.1422 0.72803 0.71141 0.0
C737 C 0.15757 0.71514 0.73296 0.0
H738 H 0.14821 0.7638 0.67025 0.0
H739 H 0.29889 0.63866 0.87623 0.0
H740 H 0.40972 0.85229 0.72849 0.0
H741 H 0.44307 0.82681 0.73008 0.0
H742 H 0.51287 0.90458 0.80143 0.0
H743 H 0.4804 0.93066 0.79884 0.0
H744 H 0.54313 0.89086 0.74896 0.0
H745 H 0.45763 0.82858 0.83707 0.0
H746 H 0.40081 0.7952 0.85682 0.0
H747 H 0.38592 0.72316 0.77312 0.0
H748 H 0.44261 0.75637 0.75247 0.0
H749 H 0.6343 0.82671 0.82352 0.0
H750 H 0.5953 0.84501 0.81857 0.0
H751 H 0.53699 0.76604 0.74159 0.0
H752 H 0.57597 0.74718 0.74672 0.0
H753 H 0.49931 0.77773 0.79193 0.0
H754 H 0.58663 0.83986 0.70646 0.0
H755 H 0.64388 0.87364 0.68852 0.0
H756 H 0.65544 0.94658 0.76914 0.0
H757 H 0.59836 0.91299 0.78798 0.0
C758 C 0.43231 0.86414 0.74423 0.0
C759 C 0.44214 0.8935 0.76376 0.0
C760 C 0.45124 0.84934 0.74545 0.0
C761 C 0.4804 0.86347 0.76632 0.0
C762 C 0.49047 0.89302 0.78525 0.0
C763 C 0.47164 0.9078 0.78403 0.0
C764 C 0.5007 0.84786 0.76846 0.0
C765 C 0.53352 0.86622 0.75872 0.0
C766 C 0.48819 0.81538 0.78025 0.0
C767 C 0.45425 0.79514 0.79293 0.0
C768 C 0.44218 0.80573 0.82269 0.0
C769 C 0.41002 0.78683 0.83407 0.0
C770 C 0.38974 0.75715 0.81613 0.0
C771 C 0.40165 0.7462 0.78691 0.0
C772 C 0.4338 0.76504 0.77538 0.0
C773 C 0.61304 0.8129 0.80581 0.0
C774 C 0.60853 0.78556 0.78525 0.0
C775 C 0.59075 0.82353 0.80291 0.0
C776 C 0.56344 0.80732 0.77913 0.0
C777 C 0.55794 0.77908 0.75997 0.0
C778 C 0.5803 0.76834 0.76292 0.0
C779 C 0.54177 0.821 0.77308 0.0
C780 C 0.50877 0.80228 0.78195 0.0
C781 C 0.55408 0.85324 0.76063 0.0
C782 C 0.58827 0.87379 0.74884 0.0
C783 C 0.60143 0.86302 0.72051 0.0
C784 C 0.63384 0.88214 0.71018 0.0
C785 C 0.65331 0.9122 0.72774 0.0
C786 C 0.64035 0.92327 0.75558 0.0
C787 C 0.60795 0.90422 0.76607 0.0
H788 H 0.67841 0.92695 0.71974 0.0
H789 H 0.36483 0.74264 0.82493 0.0
H790 H 0.20647 0.45635 0.80869 0.0
H791 H 0.26466 0.49517 0.80709 0.0
H792 H 0.28115 0.42137 0.75972 0.0
H793 H 0.22344 0.38229 0.76299 0.0
H794 H 0.32497 0.45263 0.80953 0.0
H795 H 0.28247 0.48759 0.70622 0.0
H796 H 0.2466 0.50563 0.67928 0.0
H797 H 0.288 0.58791 0.75478 0.0
H798 H 0.3239 0.57017 0.78244 0.0
H799 H 0.48378 0.54713 0.74092 0.0
H800 H 0.42529 0.51268 0.7457 0.0
H801 H 0.41905 0.59144 0.79685 0.0
H802 H 0.4775 0.62668 0.79035 0.0
H803 H 0.37024 0.56022 0.7491 0.0
H804 H 0.41398 0.52748 0.85045 0.0
H805 H 0.44879 0.50934 0.88013 0.0
H806 H 0.40424 0.42312 0.81102 0.0
H807 H 0.36944 0.44095 0.78054 0.0
C808 C 0.22251 0.44841 0.79792 0.0
C809 C 0.21013 0.41612 0.78596 0.0
C810 C 0.25588 0.47075 0.79676 0.0
C811 C 0.27764 0.46158 0.78266 0.0
C812 C 0.26517 0.42929 0.77077 0.0
C813 C 0.23199 0.40688 0.77257 0.0
C814 C 0.31336 0.48512 0.78065 0.0
C815 C 0.33475 0.47595 0.79579 0.0
C816 C 0.32653 0.51621 0.76403 0.0
C817 C 0.30568 0.52741 0.7466 0.0
C818 C 0.28386 0.50949 0.71713 0.0
C819 C 0.26352 0.51965 0.70175 0.0
C820 C 0.26497 0.54786 0.71537 0.0
C821 C 0.2869 0.56606 0.74427 0.0
C822 C 0.30728 0.55599 0.75977 0.0
C823 C 0.47008 0.55742 0.75275 0.0
C824 C 0.48579 0.58989 0.76536 0.0
C825 C 0.43647 0.53744 0.75592 0.0
C826 C 0.41751 0.54911 0.7723 0.0
C827 C 0.43297 0.58164 0.78432 0.0
C828 C 0.4666 0.60173 0.78095 0.0
C829 C 0.38173 0.52728 0.7771 0.0
C830 C 0.36039 0.53686 0.76273 0.0
C831 C 0.36851 0.49657 0.79458 0.0
C832 C 0.3893 0.4857 0.81298 0.0
C833 C 0.41176 0.50475 0.8414 0.0
C834 C 0.43146 0.49451 0.85839 0.0
C835 C 0.42878 0.46513 0.84741 0.0
C836 C 0.40631 0.44589 0.81947 0.0
C837 C 0.38657 0.45604 0.80236 0.0
H838 H 0.44406 0.45725 0.8606 0.0
H839 H 0.24915 0.55563 0.70348 0.0
H840 H 0.23874 0.22222 0.25901 0.0
H841 H 0.20456 0.2464 0.25192 0.0
H842 H 0.12688 0.16483 0.30902 0.0
H843 H 0.16098 0.14042 0.31619 0.0
H844 H 0.10615 0.18532 0.24428 0.0
H845 H 0.17084 0.23027 0.35852 0.0
H846 H 0.22197 0.25839 0.39494 0.0
H847 H 0.25471 0.34218 0.32452 0.0
H848 H 0.20391 0.31435 0.28733 0.0
H849 H 0.0376 0.27774 0.34497 0.0
H850 H 0.08114 0.26541 0.34038 0.0
H851 H 0.0768 0.26823 0.21805 0.0
H852 H 0.03381 0.2817 0.22254 0.0
H853 H 0.14089 0.2897 0.31093 0.0
H854 H 0.08366 0.20846 0.18178 0.0
H855 H 0.03125 0.18124 0.14767 0.0
H856 H 0.98138 0.16882 0.25314 0.0
H857 H 0.03348 0.19574 0.28784 0.0
C858 C 0.21421 0.20916 0.26955 0.0
C859 C 0.20259 0.17937 0.2882 0.0
C860 C 0.19477 0.22311 0.26564 0.0
C861 C 0.16321 0.2075 0.28006 0.0
C862 C 0.15114 0.17728 0.29761 0.0
C863 C 0.17072 0.16347 0.30193 0.0
C864 C 0.14338 0.22342 0.27866 0.0
C865 C 0.11388 0.20824 0.25864 0.0
C866 C 0.15332 0.2533 0.29743 0.0
C867 C 0.18375 0.2701 0.31989 0.0
C868 C 0.18906 0.25459 0.35061 0.0
C869 C 0.21795 0.27049 0.37142 0.0
C870 C 0.24161 0.30201 0.36198 0.0
C871 C 0.23638 0.31774 0.33176 0.0
C872 C 0.20754 0.30192 0.31082 0.0
C873 C 0.04691 0.27709 0.31712 0.0
C874 C 0.03253 0.28085 0.28411 0.0
C875 C 0.07174 0.26994 0.31451 0.0
C876 C 0.08219 0.26572 0.27881 0.0
C877 C 0.06935 0.27168 0.24582 0.0
C878 C 0.04486 0.27948 0.24842 0.0
C879 C 0.1037 0.25166 0.27653 0.0
C880 C 0.13345 0.26708 0.29599 0.0
C881 C 0.09389 0.22189 0.2575 0.0
C882 C 0.06241 0.20408 0.23731 0.0
C883 C 0.06147 0.19958 0.19768 0.0
C884 C 0.03185 0.18432 0.17825 0.0
C885 C 1.00301 0.17326 0.19823 0.0
C886 C 1.00373 0.17735 0.23771 0.0
C887 C 0.03328 0.19259 0.25726 0.0
H888 H 0.98012 0.16159 0.18312 0.0
H889 H 0.26397 0.31429 0.37813 0.0
H890 H 1.01481 0.82784 0.33399 0.0
H891 H 0.07263 0.86477 0.32647 0.0
H892 H 0.0578 0.87635 0.20784 0.0
H893 H 0.99945 0.83953 0.21524 0.0
H894 H 0.11256 0.87016 0.22053 0.0
H895 H 0.06895 0.93423 0.26679 0.0
H896 H 0.03689 0.94849 0.30892 0.0
H897 H 0.09462 0.9525 0.40483 0.0
H898 H 0.12672 0.93774 0.36337 0.0
H899 H 0.27073 0.0164 0.21043 0.0
H900 H 0.21422 0.97252 0.20427 0.0
H901 H 0.21062 0.95763 0.32566 0.0
H902 H 0.26631 1.0021 0.33176 0.0
H903 H 0.16405 0.96729 0.30443 0.0
H904 H 0.20559 0.89972 0.25845 0.0
H905 H 0.23847 0.88687 0.21581 0.0
H906 H 0.18624 0.89168 0.11892 0.0
H907 H 0.15315 0.90473 0.16101 0.0
C908 C 0.02366 0.83845 0.30634 0.0
C909 C 1.0023 0.83105 0.27537 0.0
C910 C 0.05683 0.85939 0.30202 0.0
C911 C 0.06952 0.87358 0.26669 0.0
C912 C 0.04852 0.86563 0.23536 0.0
C913 C 1.01518 0.84462 0.23966 0.0
C914 C 0.10454 0.89771 0.26338 0.0
C915 C 0.12382 0.89164 0.23849 0.0
C916 C 0.11927 0.92563 0.28695 0.0
C917 C 0.10006 0.9346 0.312 0.0
C918 C 0.07464 0.93789 0.29692 0.0
C919 C 0.05649 0.9461 0.32068 0.0
C920 C 0.06366 0.95132 0.35954 0.0
C921 C 0.08906 0.94841 0.37472 0.0
C922 C 0.10726 0.94014 0.3511 0.0
C923 C 0.2581 1.00287 0.23546 0.0
C924 C 0.27281 1.01215 0.27149 0.0
C925 C 0.22579 0.9779 0.232 0.0
C926 C 0.20804 0.96174 0.26456 0.0
C927 C 0.22368 0.96977 0.30016 0.0
C928 C 0.25561 0.99493 0.30363 0.0
C929 C 0.17247 0.93919 0.26274 0.0
C930 C 0.15293 0.94581 0.28644 0.0
C931 C 0.15769 0.91195 0.23806 0.0
C932 C 0.17706 0.90342 0.21283 0.0
C933 C 0.20118 0.89812 0.22804 0.0
C934 C 0.21979 0.89072 0.20399 0.0
C935 C 0.21445 0.88848 0.16468 0.0
C936 C 0.19034 0.89342 0.14937 0.0
C937 C 0.17159 0.90072 0.17332 0.0
H938 H 0.22902 0.88295 0.1461 0.0
H939 H 0.04959 0.9577 0.37789 0.0
H940 H 0.88853 0.0336 0.2755 0.0
H941 H 0.86237 0.97515 0.26563 0.0
H942 H 0.76886 0.96662 0.27812 0.0
H943 H 0.79498 0.0251 0.28921 0.0
H944 H 0.77165 0.92244 0.3192 0.0
H945 H 0.79465 0.9554 0.19068 0.0
H946 H 0.82757 0.9869 0.13618 0.0
H947 H 0.89064 0.94851 0.15247 0.0
H948 H 0.85839 0.91712 0.20743 0.0
H949 H 0.7342 0.75557 0.22816 0.0
H950 H 0.73872 0.80912 0.2224 0.0
H951 H 0.79988 0.84238 0.32209 0.0
H952 H 0.79501 0.78946 0.32853 0.0
H953 H 0.79944 0.87046 0.2151 0.0
H954 H 0.77606 0.89162 0.37358 0.0
H955 H 0.74045 0.8605 0.42645 0.0
H956 H 0.67319 0.78955 0.34738 0.0
H957 H 0.70781 0.82071 0.29388 0.0
C958 C 0.86239 0.01935 0.27615 0.0
C959 C 0.84393 0.03418 0.28332 0.0
C960 C 0.8474 0.98588 0.27003 0.0
C961 C 0.81354 0.96635 0.27068 0.0
C962 C 0.79499 0.98111 0.27728 0.0
C963 C 0.80998 1.01464 0.28335 0.0
C964 C 0.79784 0.93039 0.26696 0.0
C965 C 0.77755 0.91106 0.2963 0.0
C966 C 0.80473 0.91531 0.2365 0.0
C967 C 0.82417 0.93403 0.20334 0.0
C968 C 0.81566 0.95383 0.18281 0.0
C969 C 0.83419 0.97165 0.15181 0.0
C970 C 0.8612 0.96974 0.1409 0.0
C971 C 0.86971 0.94996 0.16095 0.0
C972 C 0.85128 0.93211 0.192 0.0
C973 C 0.74784 0.77408 0.24938 0.0
C974 C 0.76402 0.76816 0.27895 0.0
C975 C 0.75066 0.80471 0.24588 0.0
C976 C 0.76926 0.82958 0.27226 0.0
C977 C 0.78478 0.82335 0.30204 0.0
C978 C 0.78212 0.79307 0.30546 0.0
C979 C 0.77457 0.86288 0.26826 0.0
C980 C 0.79307 0.88178 0.23763 0.0
C981 C 0.76582 0.87753 0.29743 0.0
C982 C 0.74481 0.85845 0.32959 0.0
C983 C 0.75356 0.86953 0.36735 0.0
C984 C 0.73346 0.85192 0.39748 0.0
C985 C 0.70457 0.82307 0.39028 0.0
C986 C 0.69563 0.81186 0.35293 0.0
C987 C 0.71551 0.8295 0.32267 0.0
H988 H 0.68917 0.80936 0.41366 0.0
H989 H 0.87552 0.98356 0.11689 0.0
H990 H 0.24259 0.243 0.81887 0.0
H991 H 0.26631 0.20834 0.81152 0.0
H992 H 0.17447 0.1303 0.77141 0.0
H993 H 0.15071 0.16469 0.77873 0.0
H994 H 0.19865 0.10911 0.82385 0.0
H995 H 0.23957 0.17421 0.71125 0.0
H996 H 0.26877 0.22506 0.67529 0.0
H997 H 0.35642 0.24953 0.73555 0.0
H998 H 0.32761 0.199 0.77225 0.0
H999 H 0.23158 0.99706 0.74583 0.0
H1000 H 0.22248 0.04284 0.74685 0.0
H1001 H 0.31456 0.10159 0.80287 0.0
H1002 H 0.32396 0.05536 0.8014 0.0
H1003 H 0.296 0.13596 0.74767 0.0
H1004 H 0.2549 0.06788 0.85637 0.0
H1005 H 0.22562 0.01566 0.88953 0.0
H1006 H 0.13725 0.99594 0.83449 0.0
H1007 H 0.16626 0.04796 0.80068 0.0
C1008 C 0.22758 0.2186 0.80796 0.0
C1009 C 0.19468 0.20659 0.79956 0.0
C1010 C 0.24118 0.19878 0.8038 0.0
C1011 C 0.22224 0.16667 0.79079 0.0
C1012 C 0.18957 0.15489 0.78174 0.0
C1013 C 0.17597 0.17458 0.78602 0.0
C1014 C 0.2358 0.14472 0.7879 0.0
C1015 C 0.21978 0.11496 0.8069 0.0
C1016 C 0.26402 0.15265 0.76682 0.0
C1017 C 0.28135 0.18302 0.7448 0.0
C1018 C 0.265 0.19058 0.71707 0.0
C1019 C 0.28149 0.21931 0.69651 0.0
C1020 C 0.3144 0.24056 0.70322 0.0
C1021 C 0.33091 0.23308 0.73044 0.0
C1022 C 0.31452 0.20439 0.75111 0.0
C1023 C 0.25032 0.02003 0.75736 0.0
C1024 C 0.27846 0.02284 0.77348 0.0
C1025 C 0.24507 0.04613 0.75801 0.0
C1026 C 0.2676 0.07545 0.77544 0.0
C1027 C 0.2969 0.07915 0.78926 0.0
C1028 C 0.30231 0.05286 0.78832 0.0
C1029 C 0.25832 0.10029 0.78283 0.0
C1030 C 0.27511 0.13043 0.76488 0.0
C1031 C 0.2307 0.09277 0.80482 0.0
C1032 C 0.21286 0.0618 0.82589 0.0
C1033 C 0.22928 0.05238 0.85131 0.0
C1034 C 0.21272 0.0228 0.87019 0.0
C1035 C 0.17957 1.00245 0.86407 0.0
C1036 C 0.16293 1.01174 0.8392 0.0
C1037 C 0.17944 0.04131 0.82022 0.0
H1038 H 0.16677 0.9795 0.87863 0.0
H1039 H 0.32713 0.26279 0.68726 0.0
H1040 H 0.02914 0.81473 0.83834 0.0
H1041 H 0.97105 0.7928 0.83054 0.0
H1042 H 0.9893 0.86298 0.74333 0.0
H1043 H 0.04764 0.88565 0.75165 0.0
H1044 H 0.94404 0.85838 0.7928 0.0
H1045 H 0.96289 0.78387 0.7207 0.0
H1046 H 0.98255 0.74573 0.7103 0.0
H1047 H 0.92001 0.68435 0.79827 0.0
H1048 H 0.90029 0.72238 0.80957 0.0
H1049 H 0.78865 0.79693 0.72246 0.0
H1050 H 0.84464 0.80881 0.723 0.0
H1051 H 0.82185 0.73965 0.8129 0.0
H1052 H 0.76531 0.72742 0.81183 0.0
H1053 H 0.86878 0.74221 0.76332 0.0
H1054 H 0.85022 0.81617 0.83616 0.0
H1055 H 0.82963 0.85352 0.84676 0.0
H1056 H 0.89164 0.91574 0.75897 0.0
H1057 H 0.91218 0.87842 0.74735 0.0
C1058 C 1.02087 0.82578 0.81774 0.0
C1059 C 0.04317 0.85209 0.79571 0.0
C1060 C 0.98757 0.81292 0.81302 0.0
C1061 C 0.97569 0.82594 0.78603 0.0
C1062 C 0.99785 0.85241 0.76423 0.0
C1063 C 0.03121 0.86523 0.76886 0.0
C1064 C 0.94021 0.81235 0.78103 0.0
C1065 C 0.9277 0.83308 0.78582 0.0
C1066 C 0.91863 0.77909 0.77307 0.0
C1067 C 0.93036 0.75614 0.76623 0.0
C1068 C 0.95352 0.76237 0.73804 0.0
C1069 C 0.96464 0.74075 0.73194 0.0
C1070 C 0.9526 0.71268 0.75368 0.0
C1071 C 0.92934 0.70613 0.78149 0.0
C1072 C 0.91817 0.72769 0.78773 0.0
C1073 C 0.79536 0.7834 0.7413 0.0
C1074 C 0.77284 0.7611 0.7669 0.0
C1075 C 0.82739 0.7904 0.74187 0.0
C1076 C 0.83765 0.77572 0.76864 0.0
C1077 C 0.81453 0.75145 0.79222 0.0
C1078 C 0.78227 0.74431 0.79149 0.0
C1079 C 0.87283 0.78837 0.77456 0.0
C1080 C 0.88521 0.76751 0.77022 0.0
C1081 C 0.89436 0.8215 0.7832 0.0
C1082 C 0.88255 0.84435 0.79067 0.0
C1083 C 0.85933 0.83771 0.81895 0.0
C1084 C 0.84767 0.85888 0.82515 0.0
C1085 C 0.85929 0.88696 0.8035 0.0
C1086 C 0.88265 0.89396 0.77568 0.0
C1087 C 0.89432 0.87282 0.76929 0.0
H1088 H 0.85029 0.90335 0.80835 0.0
H1089 H 0.96123 0.69596 0.74891 0.0
H1090 H 1.00186 0.27751 0.72748 0.0
H1091 H 0.95376 0.22329 0.72066 0.0
H1092 H 0.96436 0.20276 0.83743 0.0
H1093 H 1.01114 0.25682 0.84483 0.0
H1094 H 0.95661 0.16792 0.72668 0.0
H1095 H 0.89363 0.1464 0.8732 0.0
H1096 H 0.88049 0.1764 0.92024 0.0
H1097 H 0.8828 0.23969 0.83258 0.0
H1098 H 0.89561 0.20987 0.78492 0.0
H1099 H 0.87594 1.00252 0.7819 0.0
H1100 H 0.90951 0.06155 0.77778 0.0
H1101 H 0.82405 0.06857 0.76126 0.0
H1102 H 0.79036 1.00972 0.76591 0.0
H1103 H 0.86323 0.11175 0.81349 0.0
H1104 H 0.87443 0.08135 0.68752 0.0
H1105 H 0.88615 0.05256 0.63736 0.0
H1106 H 0.98389 0.09481 0.67811 0.0
H1107 H 0.97264 0.12349 0.72888 0.0
C1108 C 0.99321 0.26179 0.75199 0.0
C1109 C 1.01037 0.27138 0.78663 0.0
C1110 C 0.96606 0.23063 0.7479 0.0
C1111 C 0.95568 0.20867 0.77833 0.0
C1112 C 0.97164 0.21914 0.81355 0.0
C1113 C 0.99854 0.25012 0.81768 0.0
C1114 C 0.93055 0.17393 0.77276 0.0
C1115 C 0.93596 0.15573 0.74534 0.0
C1116 C 0.90352 0.15789 0.79704 0.0
C1117 C 0.89569 0.17592 0.8255 0.0
C1118 C 0.89115 0.1666 0.8639 0.0
C1119 C 0.8838 0.1836 0.89069 0.0
C1120 C 0.88072 0.20986 0.87938 0.0
C1121 C 0.88516 0.2193 0.84129 0.0
C1122 C 0.89255 0.20241 0.81439 0.0
C1123 C 0.86429 0.01662 0.77733 0.0
C1124 C 0.8304 1.00126 0.77412 0.0
C1125 C 0.88354 0.05038 0.77468 0.0
C1126 C 0.86938 0.06961 0.76889 0.0
C1127 C 0.8356 0.05434 0.76558 0.0
C1128 C 0.81636 0.0206 0.76796 0.0
C1129 C 0.88968 0.10567 0.76789 0.0
C1130 C 0.88353 0.12403 0.79432 0.0
C1131 C 0.91583 0.12191 0.74242 0.0
C1132 C 0.92258 0.10432 0.71226 0.0
C1133 C 0.89833 0.08425 0.68604 0.0
C1134 C 0.90491 0.068 0.65743 0.0
C1135 C 0.93572 0.07179 0.65461 0.0
C1136 C 0.96002 0.09185 0.68037 0.0
C1137 C 0.95356 0.10812 0.70905 0.0
H1138 H 0.94077 0.05923 0.63241 0.0
H1139 H 0.87497 0.22295 0.90016 0.0
loop_
_geom_bond_atom_site_label_1
_geom_bond_atom_site_label_2
_geom_bond_distance
_geom_bond_site_symmetry_2
_ccdc_geom_bond_type
Ho0 C3 2.811 . S
Ho0 O20 2.322 . S
Ho0 O22 2.378 . S
Ho0 O23 2.524 . S
Ho0 O24 2.381 . S
Ho0 O25 2.669 . S
Ho0 O27 2.346 . S
Ho0 O31 2.305 . S
Ho1 C12 2.811 . S
Ho1 O21 2.346 . S
Ho1 O25 2.305 . S
Ho1 O26 2.322 . S
Ho1 O28 2.378 . S
Ho1 O29 2.524 . S
Ho1 O30 2.381 . S
Ho1 O31 2.669 . S
C2 O20 1.259 . S
C2 O21 1.268 . S
C3 Ho0 2.811 . S
C3 C4 1.488 . S
C3 O22 1.215 . S
C3 O23 1.289 . S
C4 C3 1.488 . S
C4 C5 1.348 . S
C4 C9 1.413 . S
C5 C4 1.348 . S
C5 C6 1.442 . S
C5 H32 0.930 . S
C6 C5 1.442 . S
C6 C7 1.381 . S
C6 H33 0.931 . S
C7 C6 1.381 . S
C7 C8 1.321 . S
C8 C7 1.321 . S
C8 C9 1.403 . S
C8 H34 0.934 . S
C9 C4 1.413 . S
C9 C8 1.403 . S
C9 H35 0.930 . S
C10 O24 1.275 . S
C10 O25 1.256 . S
C11 O26 1.259 . S
C11 O27 1.268 . S
C12 Ho1 2.811 . S
C12 C13 1.488 . S
C12 O28 1.215 . S
C12 O29 1.289 . S
C13 C12 1.488 . S
C13 C14 1.348 . S
C13 C18 1.413 . S
C14 C13 1.348 . S
C14 C15 1.442 . S
C14 H36 0.930 . S
C15 C14 1.442 . S
C15 C16 1.381 . S
C15 H37 0.931 . S
C16 C15 1.381 . S
C16 C17 1.321 . S
C17 C16 1.321 . S
C17 C18 1.403 . S
C17 H38 0.934 . S
C18 C13 1.413 . S
C18 C17 1.403 . S
C18 H39 0.930 . S
C19 O30 1.275 . S
C19 O31 1.256 . S
O20 Ho0 2.322 . S
O20 C2 1.259 . S
O21 Ho1 2.346 . S
O21 C2 1.268 . S
O22 Ho0 2.378 . S
O22 C3 1.215 . S
O23 Ho0 2.524 . S
O23 C3 1.289 . S
O24 Ho0 2.381 . S
O24 C10 1.275 . S
O25 Ho0 2.669 . S
O25 Ho1 2.305 . S
O25 C10 1.256 . S
O26 Ho1 2.322 . S
O26 C11 1.259 . S
O27 Ho0 2.346 . S
O27 C11 1.268 . S
O28 Ho1 2.378 . S
O28 C12 1.215 . S
O29 Ho1 2.524 . S
O29 C12 1.289 . S
O30 Ho1 2.381 . S
O30 C19 1.275 . S
O31 Ho0 2.305 . S
O31 Ho1 2.669 . S
O31 C19 1.256 . S
H32 C5 0.930 . S
H33 C6 0.931 . S
H34 C8 0.934 . S
H35 C9 0.930 . S
H36 C14 0.930 . S
H37 C15 0.931 . S
H38 C17 0.934 . S
H39 C18 0.930 . S
Ho40 C43 2.811 . S
Ho40 O60 2.322 . S
Ho40 O62 2.378 . S
Ho40 O63 2.524 . S
Ho40 O64 2.381 . S
Ho40 O65 2.669 . S
Ho40 O67 2.346 . S
Ho40 O71 2.305 . S
Ho41 C52 2.811 . S
Ho41 O61 2.346 . S
Ho41 O65 2.305 . S
Ho41 O66 2.322 . S
Ho41 O68 2.378 . S
Ho41 O69 2.524 . S
Ho41 O70 2.381 . S
Ho41 O71 2.669 . S
C42 O60 1.259 . S
C42 O61 1.268 . S
C43 Ho40 2.811 . S
C43 C44 1.488 . S
C43 O62 1.215 . S
C43 O63 1.289 . S
C44 C43 1.488 . S
C44 C45 1.348 . S
C44 C49 1.413 . S
C45 C44 1.348 . S
C45 C46 1.442 . S
C45 H72 0.930 . S
C46 C45 1.442 . S
C46 C47 1.381 . S
C46 H73 0.931 . S
C47 C46 1.381 . S
C47 C48 1.321 . S
C48 C47 1.321 . S
C48 C49 1.403 . S
C48 H74 0.934 . S
C49 C44 1.413 . S
C49 C48 1.403 . S
C49 H75 0.930 . S
C50 O64 1.275 . S
C50 O65 1.256 . S
C51 O66 1.259 . S
C51 O67 1.268 . S
C52 Ho41 2.811 . S
C52 C53 1.488 . S
C52 O68 1.215 . S
C52 O69 1.289 . S
C53 C52 1.488 . S
C53 C54 1.348 . S
C53 C58 1.413 . S
C54 C53 1.348 . S
C54 C55 1.442 . S
C54 H76 0.930 . S
C55 C54 1.442 . S
C55 C56 1.381 . S
C55 H77 0.931 . S
C56 C55 1.381 . S
C56 C57 1.321 . S
C57 C56 1.321 . S
C57 C58 1.403 . S
C57 H78 0.934 . S
C58 C53 1.413 . S
C58 C57 1.403 . S
C58 H79 0.930 . S
C59 O70 1.275 . S
C59 O71 1.256 . S
O60 Ho40 2.322 . S
O60 C42 1.259 . S
O61 Ho41 2.346 . S
O61 C42 1.268 . S
O62 Ho40 2.378 . S
O62 C43 1.215 . S
O63 Ho40 2.524 . S
O63 C43 1.289 . S
O64 Ho40 2.381 . S
O64 C50 1.275 . S
O65 Ho40 2.669 . S
O65 Ho41 2.305 . S
O65 C50 1.256 . S
O66 Ho41 2.322 . S
O66 C51 1.259 . S
O67 Ho40 2.346 . S
O67 C51 1.268 . S
O68 Ho41 2.378 . S
O68 C52 1.215 . S
O69 Ho41 2.524 . S
O69 C52 1.289 . S
O70 Ho41 2.381 . S
O70 C59 1.275 . S
O71 Ho40 2.305 . S
O71 Ho41 2.669 . S
O71 C59 1.256 . S
H72 C45 0.930 . S
H73 C46 0.931 . S
H74 C48 0.934 . S
H75 C49 0.930 . S
H76 C54 0.930 . S
H77 C55 0.931 . S
H78 C57 0.934 . S
H79 C58 0.930 . S
Ho80 C83 2.811 . S
Ho80 O100 2.322 . S
Ho80 O102 2.378 . S
Ho80 O103 2.524 . S
Ho80 O104 2.381 . S
Ho80 O105 2.669 . S
Ho80 O107 2.346 . S
Ho80 O111 2.305 . S
Ho81 C92 2.811 . S
Ho81 O101 2.346 . S
Ho81 O105 2.305 . S
Ho81 O106 2.322 . S
Ho81 O108 2.378 . S
Ho81 O109 2.524 . S
Ho81 O110 2.381 . S
Ho81 O111 2.669 . S
C82 O100 1.259 . S
C82 O101 1.268 . S
C83 Ho80 2.811 . S
C83 C84 1.488 . S
C83 O102 1.215 . S
C83 O103 1.289 . S
C84 C83 1.488 . S
C84 C85 1.348 . S
C84 C89 1.413 . S
C85 C84 1.348 . S
C85 C86 1.442 . S
C85 H112 0.930 . S
C86 C85 1.442 . S
C86 C87 1.381 . S
C86 H113 0.931 . S
C87 C86 1.381 . S
C87 C88 1.321 . S
C88 C87 1.321 . S
C88 C89 1.403 . S
C88 H114 0.934 . S
C89 C84 1.413 . S
C89 C88 1.403 . S
C89 H115 0.930 . S
C90 O104 1.275 . S
C90 O105 1.256 . S
C91 O106 1.259 . S
C91 O107 1.268 . S
C92 Ho81 2.811 . S
C92 C93 1.488 . S
C92 O108 1.215 . S
C92 O109 1.289 . S
C93 C92 1.488 . S
C93 C94 1.348 . S
C93 C98 1.413 . S
C94 C93 1.348 . S
C94 C95 1.442 . S
C94 H116 0.930 . S
C95 C94 1.442 . S
C95 C96 1.381 . S
C95 H117 0.931 . S
C96 C95 1.381 . S
C96 C97 1.321 . S
C97 C96 1.321 . S
C97 C98 1.403 . S
C97 H118 0.934 . S
C98 C93 1.413 . S
C98 C97 1.403 . S
C98 H119 0.930 . S
C99 O110 1.275 . S
C99 O111 1.256 . S
O100 Ho80 2.322 . S
O100 C82 1.259 . S
O101 Ho81 2.346 . S
O101 C82 1.268 . S
O102 Ho80 2.378 . S
O102 C83 1.215 . S
O103 Ho80 2.524 . S
O103 C83 1.289 . S
O104 Ho80 2.381 . S
O104 C90 1.275 . S
O105 Ho80 2.669 . S
O105 Ho81 2.305 . S
O105 C90 1.256 . S
O106 Ho81 2.322 . S
O106 C91 1.259 . S
O107 Ho80 2.346 . S
O107 C91 1.268 . S
O108 Ho81 2.378 . S
O108 C92 1.215 . S
O109 Ho81 2.524 . S
O109 C92 1.289 . S
O110 Ho81 2.381 . S
O110 C99 1.275 . S
O111 Ho80 2.305 . S
O111 Ho81 2.669 . S
O111 C99 1.256 . S
H112 C85 0.930 . S
H113 C86 0.931 . S
H114 C88 0.934 . S
H115 C89 0.930 . S
H116 C94 0.930 . S
H117 C95 0.931 . S
H118 C97 0.934 . S
H119 C98 0.930 . S
Ho120 C123 2.811 . S
Ho120 O140 2.322 . S
Ho120 O142 2.378 . S
Ho120 O143 2.524 . S
Ho120 O144 2.381 . S
Ho120 O145 2.669 . S
Ho120 O147 2.346 . S
Ho120 O151 2.305 . S
Ho121 C132 2.811 . S
Ho121 O141 2.346 . S
Ho121 O145 2.305 . S
Ho121 O146 2.322 . S
Ho121 O148 2.378 . S
Ho121 O149 2.524 . S
Ho121 O150 2.381 . S
Ho121 O151 2.669 . S
C122 O140 1.259 . S
C122 O141 1.268 . S
C123 Ho120 2.811 . S
C123 C124 1.488 . S
C123 O142 1.215 . S
C123 O143 1.289 . S
C124 C123 1.488 . S
C124 C125 1.348 . S
C124 C129 1.413 . S
C125 C124 1.348 . S
C125 C126 1.442 . S
C125 H152 0.930 . S
C126 C125 1.442 . S
C126 C127 1.381 . S
C126 H153 0.931 . S
C127 C126 1.381 . S
C127 C128 1.321 . S
C128 C127 1.321 . S
C128 C129 1.403 . S
C128 H154 0.934 . S
C129 C124 1.413 . S
C129 C128 1.403 . S
C129 H155 0.930 . S
C130 O144 1.275 . S
C130 O145 1.256 . S
C131 O146 1.259 . S
C131 O147 1.268 . S
C132 Ho121 2.811 . S
C132 C133 1.488 . S
C132 O148 1.215 . S
C132 O149 1.289 . S
C133 C132 1.488 . S
C133 C134 1.348 . S
C133 C138 1.413 . S
C134 C133 1.348 . S
C134 C135 1.442 . S
C134 H156 0.930 . S
C135 C134 1.442 . S
C135 C136 1.381 . S
C135 H157 0.931 . S
C136 C135 1.381 . S
C136 C137 1.321 . S
C137 C136 1.321 . S
C137 C138 1.403 . S
C137 H158 0.934 . S
C138 C133 1.413 . S
C138 C137 1.403 . S
C138 H159 0.930 . S
C139 O150 1.275 . S
C139 O151 1.256 . S
O140 Ho120 2.322 . S
O140 C122 1.259 . S
O141 Ho121 2.346 . S
O141 C122 1.268 . S
O142 Ho120 2.378 . S
O142 C123 1.215 . S
O143 Ho120 2.524 . S
O143 C123 1.289 . S
O144 Ho120 2.381 . S
O144 C130 1.275 . S
O145 Ho120 2.669 . S
O145 Ho121 2.305 . S
O145 C130 1.256 . S
O146 Ho121 2.322 . S
O146 C131 1.259 . S
O147 Ho120 2.346 . S
O147 C131 1.268 . S
O148 Ho121 2.378 . S
O148 C132 1.215 . S
O149 Ho121 2.524 . S
O149 C132 1.289 . S
O150 Ho121 2.381 . S
O150 C139 1.275 . S
O151 Ho120 2.305 . S
O151 Ho121 2.669 . S
O151 C139 1.256 . S
H152 C125 0.930 . S
H153 C126 0.931 . S
H154 C128 0.934 . S
H155 C129 0.930 . S
H156 C134 0.930 . S
H157 C135 0.931 . S
H158 C137 0.934 . S
H159 C138 0.930 . S
Ho160 C163 2.811 . S
Ho160 O180 2.322 . S
Ho160 O182 2.378 . S
Ho160 O183 2.524 . S
Ho160 O184 2.381 . S
Ho160 O185 2.669 . S
Ho160 O187 2.346 . S
Ho160 O191 2.305 . S
Ho161 C172 2.811 . S
Ho161 O181 2.346 . S
Ho161 O185 2.305 . S
Ho161 O186 2.322 . S
Ho161 O188 2.378 . S
Ho161 O189 2.524 . S
Ho161 O190 2.381 . S
Ho161 O191 2.669 . S
C162 O180 1.259 . S
C162 O181 1.268 . S
C163 Ho160 2.811 . S
C163 C164 1.488 . S
C163 O182 1.215 . S
C163 O183 1.289 . S
C164 C163 1.488 . S
C164 C165 1.348 . S
C164 C169 1.413 . S
C165 C164 1.348 . S
C165 C166 1.442 . S
C165 H192 0.930 . S
C166 C165 1.442 . S
C166 C167 1.381 . S
C166 H193 0.931 . S
C167 C166 1.381 . S
C167 C168 1.321 . S
C168 C167 1.321 . S
C168 C169 1.403 . S
C168 H194 0.934 . S
C169 C164 1.413 . S
C169 C168 1.403 . S
C169 H195 0.930 . S
C170 O184 1.275 . S
C170 O185 1.256 . S
C171 O186 1.259 . S
C171 O187 1.268 . S
C172 Ho161 2.811 . S
C172 C173 1.488 . S
C172 O188 1.215 . S
C172 O189 1.289 . S
C173 C172 1.488 . S
C173 C174 1.348 . S
C173 C178 1.413 . S
C174 C173 1.348 . S
C174 C175 1.442 . S
C174 H196 0.930 . S
C175 C174 1.442 . S
C175 C176 1.381 . S
C175 H197 0.931 . S
C176 C175 1.381 . S
C176 C177 1.321 . S
C177 C176 1.321 . S
C177 C178 1.403 . S
C177 H198 0.934 . S
C178 C173 1.413 . S
C178 C177 1.403 . S
C178 H199 0.930 . S
C179 O190 1.275 . S
C179 O191 1.256 . S
O180 Ho160 2.322 . S
O180 C162 1.259 . S
O181 Ho161 2.346 . S
O181 C162 1.268 . S
O182 Ho160 2.378 . S
O182 C163 1.215 . S
O183 Ho160 2.524 . S
O183 C163 1.289 . S
O184 Ho160 2.381 . S
O184 C170 1.275 . S
O185 Ho160 2.669 . S
O185 Ho161 2.305 . S
O185 C170 1.256 . S
O186 Ho161 2.322 . S
O186 C171 1.259 . S
O187 Ho160 2.346 . S
O187 C171 1.268 . S
O188 Ho161 2.378 . S
O188 C172 1.215 . S
O189 Ho161 2.524 . S
O189 C172 1.289 . S
O190 Ho161 2.381 . S
O190 C179 1.275 . S
O191 Ho160 2.305 . S
O191 Ho161 2.669 . S
O191 C179 1.256 . S
H192 C165 0.930 . S
H193 C166 0.931 . S
H194 C168 0.934 . S
H195 C169 0.930 . S
H196 C174 0.930 . S
H197 C175 0.931 . S
H198 C177 0.934 . S
H199 C178 0.930 . S
Ho200 C203 2.811 . S
Ho200 O220 2.322 . S
Ho200 O222 2.378 . S
Ho200 O223 2.524 . S
Ho200 O224 2.381 . S
Ho200 O225 2.669 . S
Ho200 O227 2.346 . S
Ho200 O231 2.305 . S
Ho201 C212 2.811 . S
Ho201 O221 2.346 . S
Ho201 O225 2.305 . S
Ho201 O226 2.322 . S
Ho201 O228 2.378 . S
Ho201 O229 2.524 . S
Ho201 O230 2.381 . S
Ho201 O231 2.669 . S
C202 O220 1.259 . S
C202 O221 1.268 . S
C203 Ho200 2.811 . S
C203 C204 1.488 . S
C203 O222 1.215 . S
C203 O223 1.289 . S
C204 C203 1.488 . S
C204 C205 1.348 . S
C204 C209 1.413 . S
C205 C204 1.348 . S
C205 C206 1.442 . S
C205 H232 0.930 . S
C206 C205 1.442 . S
C206 C207 1.381 . S
C206 H233 0.931 . S
C207 C206 1.381 . S
C207 C208 1.321 . S
C208 C207 1.321 . S
C208 C209 1.403 . S
C208 H234 0.934 . S
C209 C204 1.413 . S
C209 C208 1.403 . S
C209 H235 0.930 . S
C210 O224 1.275 . S
C210 O225 1.256 . S
C211 O226 1.259 . S
C211 O227 1.268 . S
C212 Ho201 2.811 . S
C212 C213 1.488 . S
C212 O228 1.215 . S
C212 O229 1.289 . S
C213 C212 1.488 . S
C213 C214 1.348 . S
C213 C218 1.413 . S
C214 C213 1.348 . S
C214 C215 1.442 . S
C214 H236 0.930 . S
C215 C214 1.442 . S
C215 C216 1.381 . S
C215 H237 0.931 . S
C216 C215 1.381 . S
C216 C217 1.321 . S
C217 C216 1.321 . S
C217 C218 1.403 . S
C217 H238 0.934 . S
C218 C213 1.413 . S
C218 C217 1.403 . S
C218 H239 0.930 . S
C219 O230 1.275 . S
C219 O231 1.256 . S
O220 Ho200 2.322 . S
O220 C202 1.259 . S
O221 Ho201 2.346 . S
O221 C202 1.268 . S
O222 Ho200 2.378 . S
O222 C203 1.215 . S
O223 Ho200 2.524 . S
O223 C203 1.289 . S
O224 Ho200 2.381 . S
O224 C210 1.275 . S
O225 Ho200 2.669 . S
O225 Ho201 2.305 . S
O225 C210 1.256 . S
O226 Ho201 2.322 . S
O226 C211 1.259 . S
O227 Ho200 2.346 . S
O227 C211 1.268 . S
O228 Ho201 2.378 . S
O228 C212 1.215 . S
O229 Ho201 2.524 . S
O229 C212 1.289 . S
O230 Ho201 2.381 . S
O230 C219 1.275 . S
O231 Ho200 2.305 . S
O231 Ho201 2.669 . S
O231 C219 1.256 . S
H232 C205 0.930 . S
H233 C206 0.931 . S
H234 C208 0.934 . S
H235 C209 0.930 . S
H236 C214 0.930 . S
H237 C215 0.931 . S
H238 C217 0.934 . S
H239 C218 0.930 . S
H240 C258 0.951 . S
H241 C260 0.951 . S
H242 C262 0.950 . S
H243 C263 0.950 . S
H244 C265 0.950 . S
H245 C268 0.950 . S
H246 C269 0.950 . S
H247 C271 0.950 . S
H248 C272 0.950 . S
H249 C273 0.951 . S
H250 C275 0.951 . S
H251 C277 0.950 . S
H252 C278 0.950 . S
H253 C280 0.950 . S
H254 C283 0.950 . S
H255 C284 0.950 . S
H256 C286 0.950 . S
H257 C287 0.950 . S
C258 H240 0.951 . S
C258 C259 1.366 . S
C258 C260 1.388 . S
C259 C258 1.366 . S
C259 C263 1.385 . S
C260 H241 0.951 . S
C260 C258 1.388 . S
C260 C261 1.366 . S
C261 C260 1.366 . S
C261 C262 1.414 . S
C261 C264 1.499 . S
C262 H242 0.950 . S
C262 C261 1.414 . S
C262 C263 1.374 . S
C263 H243 0.950 . S
C263 C259 1.385 . S
C263 C262 1.374 . S
C264 C261 1.499 . S
C264 C265 1.373 1_556 S
C264 C266 1.389 1_565 S
C265 H244 0.950 . S
C265 C264 1.373 1_554 S
C265 C281 1.377 . S
C266 C264 1.389 1_545 S
C266 C267 1.524 . S
C266 C280 1.377 . S
C267 C266 1.524 . S
C267 C268 1.397 . S
C267 C272 1.363 . S
C268 H245 0.950 . S
C268 C267 1.397 . S
C268 C269 1.334 . S
C269 H246 0.950 . S
C269 C268 1.334 . S
C269 C270 1.287 . S
C270 C269 1.287 . S
C270 C271 1.524 . S
C270 H289 0.913 . S
C271 H247 0.950 . S
C271 C270 1.524 . S
C271 C272 1.415 . S
C272 H248 0.950 . S
C272 C267 1.363 . S
C272 C271 1.415 . S
C273 H249 0.951 . S
C273 C274 1.366 . S
C273 C275 1.388 . S
C274 C273 1.366 . S
C274 C278 1.385 . S
C275 H250 0.951 . S
C275 C273 1.388 . S
C275 C276 1.366 . S
C276 C275 1.366 . S
C276 C277 1.414 . S
C276 C279 1.499 . S
C277 H251 0.950 . S
C277 C276 1.414 . S
C277 C278 1.374 . S
C278 H252 0.950 . S
C278 C274 1.385 . S
C278 C277 1.374 . S
C279 C276 1.499 . S
C279 C280 1.373 1_554 S
C279 C281 1.389 1_545 S
C280 H253 0.950 . S
C280 C266 1.377 . S
C280 C279 1.373 1_556 S
C281 C265 1.377 . S
C281 C279 1.389 1_565 S
C281 C282 1.524 . S
C282 C281 1.524 . S
C282 C283 1.397 . S
C282 C287 1.363 . S
C283 H254 0.950 . S
C283 C282 1.397 . S
C283 C284 1.334 . S
C284 H255 0.950 . S
C284 C283 1.334 . S
C284 C285 1.287 . S
C285 C284 1.287 . S
C285 C286 1.524 . S
C285 H288 0.999 . S
C286 H256 0.950 . S
C286 C285 1.524 . S
C286 C287 1.415 . S
C287 H257 0.950 . S
C287 C282 1.363 . S
C287 C286 1.415 . S
H288 C285 0.999 . S
H289 C270 0.913 . S
H290 C308 0.951 . S
H291 C310 0.951 . S
H292 C312 0.950 . S
H293 C313 0.950 . S
H294 C315 0.950 . S
H295 C318 0.950 . S
H296 C319 0.950 . S
H297 C321 0.950 . S
H298 C322 0.950 . S
H299 C323 0.951 . S
H300 C325 0.951 . S
H301 C327 0.950 . S
H302 C328 0.950 . S
H303 C330 0.950 . S
H304 C333 0.950 . S
H305 C334 0.950 . S
H306 C336 0.950 . S
H307 C337 0.950 . S
C308 H290 0.951 . S
C308 C309 1.366 . S
C308 C310 1.388 . S
C309 C308 1.366 . S
C309 C313 1.385 . S
C310 H291 0.951 . S
C310 C308 1.388 . S
C310 C311 1.366 . S
C311 C310 1.366 . S
C311 C312 1.414 . S
C311 C314 1.499 . S
C312 H292 0.950 . S
C312 C311 1.414 . S
C312 C313 1.374 . S
C313 H293 0.950 . S
C313 C309 1.385 . S
C313 C312 1.374 . S
C314 C311 1.499 . S
C314 C315 1.373 . S
C314 C316 1.389 . S
C315 H294 0.950 . S
C315 C314 1.373 . S
C315 C331 1.377 . S
C316 C314 1.389 . S
C316 C317 1.524 . S
C316 C330 1.377 . S
C317 C316 1.524 . S
C317 C318 1.397 . S
C317 C322 1.363 . S
C318 H295 0.950 . S
C318 C317 1.397 . S
C318 C319 1.334 . S
C319 H296 0.950 . S
C319 C318 1.334 . S
C319 C320 1.287 . S
C320 C319 1.287 . S
C320 C321 1.524 . S
C320 H339 0.913 . S
C321 H297 0.950 . S
C321 C320 1.524 . S
C321 C322 1.415 . S
C322 H298 0.950 . S
C322 C317 1.363 . S
C322 C321 1.415 . S
C323 H299 0.951 . S
C323 C324 1.366 . S
C323 C325 1.388 . S
C324 C323 1.366 . S
C324 C328 1.385 . S
C325 H300 0.951 . S
C325 C323 1.388 . S
C325 C326 1.366 . S
C326 C325 1.366 . S
C326 C327 1.414 . S
C326 C329 1.499 . S
C327 H301 0.950 . S
C327 C326 1.414 . S
C327 C328 1.374 . S
C328 H302 0.950 . S
C328 C324 1.385 . S
C328 C327 1.374 . S
C329 C326 1.499 . S
C329 C330 1.373 . S
C329 C331 1.389 . S
C330 H303 0.950 . S
C330 C316 1.377 . S
C330 C329 1.373 . S
C331 C315 1.377 . S
C331 C329 1.389 . S
C331 C332 1.524 . S
C332 C331 1.524 . S
C332 C333 1.397 . S
C332 C337 1.363 . S
C333 H304 0.950 . S
C333 C332 1.397 . S
C333 C334 1.334 . S
C334 H305 0.950 . S
C334 C333 1.334 . S
C334 C335 1.287 . S
C335 C334 1.287 . S
C335 C336 1.524 . S
C335 H338 0.999 . S
C336 H306 0.950 . S
C336 C335 1.524 . S
C336 C337 1.415 . S
C337 H307 0.950 . S
C337 C332 1.363 . S
C337 C336 1.415 . S
H338 C335 0.999 . S
H339 C320 0.913 . S
H340 C358 0.951 . S
H341 C360 0.951 . S
H342 C362 0.950 . S
H343 C363 0.950 . S
H344 C365 0.950 . S
H345 C368 0.950 . S
H346 C369 0.950 . S
H347 C371 0.950 . S
H348 C372 0.950 . S
H349 C373 0.951 . S
H350 C375 0.951 . S
H351 C377 0.950 . S
H352 C378 0.950 . S
H353 C380 0.950 . S
H354 C383 0.950 . S
H355 C384 0.950 . S
H356 C386 0.950 . S
H357 C387 0.950 . S
C358 H340 0.951 . S
C358 C359 1.366 . S
C358 C360 1.388 . S
C359 C358 1.366 . S
C359 C363 1.385 . S
C360 H341 0.951 . S
C360 C358 1.388 . S
C360 C361 1.366 . S
C361 C360 1.366 . S
C361 C362 1.414 . S
C361 C364 1.499 . S
C362 H342 0.950 . S
C362 C361 1.414 . S
C362 C363 1.374 . S
C363 H343 0.950 . S
C363 C359 1.385 . S
C363 C362 1.374 . S
C364 C361 1.499 . S
C364 C365 1.373 . S
C364 C366 1.389 1_655 S
C365 H344 0.950 . S
C365 C364 1.373 . S
C365 C381 1.377 1_554 S
C366 C364 1.389 1_455 S
C366 C367 1.524 . S
C366 C380 1.377 1_554 S
C367 C366 1.524 . S
C367 C368 1.397 . S
C367 C372 1.363 . S
C368 H345 0.950 . S
C368 C367 1.397 . S
C368 C369 1.334 . S
C369 H346 0.950 . S
C369 C368 1.334 . S
C369 C370 1.287 . S
C370 C369 1.287 . S
C370 C371 1.524 . S
C370 H389 0.913 . S
C371 H347 0.950 . S
C371 C370 1.524 . S
C371 C372 1.415 . S
C372 H348 0.950 . S
C372 C367 1.363 . S
C372 C371 1.415 . S
C373 H349 0.951 . S
C373 C374 1.366 . S
C373 C375 1.388 . S
C374 C373 1.366 . S
C374 C378 1.385 . S
C375 H350 0.951 . S
C375 C373 1.388 . S
C375 C376 1.366 . S
C376 C375 1.366 . S
C376 C377 1.414 . S
C376 C379 1.499 . S
C377 H351 0.950 . S
C377 C376 1.414 . S
C377 C378 1.374 . S
C378 H352 0.950 . S
C378 C374 1.385 . S
C378 C377 1.374 . S
C379 C376 1.499 . S
C379 C380 1.373 . S
C379 C381 1.389 1_455 S
C380 H353 0.950 . S
C380 C366 1.377 1_556 S
C380 C379 1.373 . S
C381 C365 1.377 1_556 S
C381 C379 1.389 1_655 S
C381 C382 1.524 . S
C382 C381 1.524 . S
C382 C383 1.397 . S
C382 C387 1.363 . S
C383 H354 0.950 . S
C383 C382 1.397 . S
C383 C384 1.334 . S
C384 H355 0.950 . S
C384 C383 1.334 . S
C384 C385 1.287 . S
C385 C384 1.287 . S
C385 C386 1.524 . S
C385 H388 0.999 . S
C386 H356 0.950 . S
C386 C385 1.524 . S
C386 C387 1.415 . S
C387 H357 0.950 . S
C387 C382 1.363 . S
C387 C386 1.415 . S
H388 C385 0.999 . S
H389 C370 0.913 . S
H390 C408 0.951 . S
H391 C410 0.951 . S
H392 C412 0.950 . S
H393 C413 0.950 . S
H394 C415 0.950 . S
H395 C418 0.950 . S
H396 C419 0.950 1_545 S
H397 C421 0.950 . S
H398 C422 0.950 . S
H399 C423 0.951 . S
H400 C425 0.951 . S
H401 C427 0.950 . S
H402 C428 0.950 . S
H403 C430 0.950 . S
H404 C433 0.950 . S
H405 C434 0.950 1_565 S
H406 C436 0.950 . S
H407 C437 0.950 . S
C408 H390 0.951 . S
C408 C409 1.366 . S
C408 C410 1.388 . S
C409 C408 1.366 . S
C409 C413 1.385 . S
C410 H391 0.951 . S
C410 C408 1.388 . S
C410 C411 1.366 . S
C411 C410 1.366 . S
C411 C412 1.414 . S
C411 C414 1.499 . S
C412 H392 0.950 . S
C412 C411 1.414 . S
C412 C413 1.374 . S
C413 H393 0.950 . S
C413 C409 1.385 . S
C413 C412 1.374 . S
C414 C411 1.499 . S
C414 C415 1.373 . S
C414 C416 1.389 1_545 S
C415 H394 0.950 . S
C415 C414 1.373 . S
C415 C431 1.377 . S
C416 C414 1.389 1_565 S
C416 C417 1.524 . S
C416 C430 1.377 . S
C417 C416 1.524 . S
C417 C418 1.397 1_565 S
C417 C422 1.363 . S
C418 H395 0.950 . S
C418 C417 1.397 1_545 S
C418 C419 1.334 1_545 S
C419 H396 0.950 1_565 S
C419 C418 1.334 1_565 S
C419 C420 1.287 . S
C420 C419 1.287 . S
C420 C421 1.524 . S
C420 H439 0.913 . S
C421 H397 0.950 . S
C421 C420 1.524 . S
C421 C422 1.415 . S
C422 H398 0.950 . S
C422 C417 1.363 . S
C422 C421 1.415 . S
C423 H399 0.951 . S
C423 C424 1.366 . S
C423 C425 1.388 . S
C424 C423 1.366 . S
C424 C428 1.385 . S
C425 H400 0.951 . S
C425 C423 1.388 . S
C425 C426 1.366 . S
C426 C425 1.366 . S
C426 C427 1.414 . S
C426 C429 1.499 . S
C427 H401 0.950 . S
C427 C426 1.414 . S
C427 C428 1.374 . S
C428 H402 0.950 . S
C428 C424 1.385 . S
C428 C427 1.374 . S
C429 C426 1.499 . S
C429 C430 1.373 . S
C429 C431 1.389 1_565 S
C430 H403 0.950 . S
C430 C416 1.377 . S
C430 C429 1.373 . S
C431 C415 1.377 . S
C431 C429 1.389 1_545 S
C431 C432 1.524 . S
C432 C431 1.524 . S
C432 C433 1.397 1_545 S
C432 C437 1.363 . S
C433 H404 0.950 . S
C433 C432 1.397 1_565 S
C433 C434 1.334 1_565 S
C434 H405 0.950 1_545 S
C434 C433 1.334 1_545 S
C434 C435 1.287 . S
C435 C434 1.287 . S
C435 C436 1.524 . S
C435 H438 0.999 . S
C436 H406 0.950 . S
C436 C435 1.524 . S
C436 C437 1.415 . S
C437 H407 0.950 . S
C437 C432 1.363 . S
C437 C436 1.415 . S
H438 C435 0.999 . S
H439 C420 0.913 . S
H440 C458 0.951 . S
H441 C460 0.951 . S
H442 C462 0.950 . S
H443 C463 0.950 . S
H444 C465 0.950 . S
H445 C468 0.950 . S
H446 C469 0.950 . S
H447 C471 0.950 . S
H448 C472 0.950 . S
H449 C473 0.951 . S
H450 C475 0.951 . S
H451 C477 0.950 . S
H452 C478 0.950 . S
H453 C480 0.950 . S
H454 C483 0.950 . S
H455 C484 0.950 . S
H456 C486 0.950 . S
H457 C487 0.950 . S
C458 H440 0.951 . S
C458 C459 1.366 . S
C458 C460 1.388 . S
C459 C458 1.366 . S
C459 C463 1.385 . S
C460 H441 0.951 . S
C460 C458 1.388 . S
C460 C461 1.366 . S
C461 C460 1.366 . S
C461 C462 1.414 . S
C461 C464 1.499 . S
C462 H442 0.950 . S
C462 C461 1.414 . S
C462 C463 1.374 . S
C463 H443 0.950 . S
C463 C459 1.385 . S
C463 C462 1.374 . S
C464 C461 1.499 . S
C464 C465 1.388 . S
C464 C466 1.389 . S
C465 H444 0.950 . S
C465 C464 1.388 . S
C465 C481 1.362 1_556 S
C466 C464 1.389 . S
C466 C467 1.524 . S
C466 C480 1.362 1_556 S
C467 C466 1.524 . S
C467 C468 1.397 . S
C467 C472 1.363 . S
C468 H445 0.950 . S
C468 C467 1.397 . S
C468 C469 1.334 . S
C469 H446 0.950 . S
C469 C468 1.334 . S
C469 C470 1.287 . S
C470 C469 1.287 . S
C470 C471 1.524 . S
C470 H489 0.913 . S
C471 H447 0.950 . S
C471 C470 1.524 . S
C471 C472 1.415 . S
C472 H448 0.950 . S
C472 C467 1.363 . S
C472 C471 1.415 . S
C473 H449 0.951 . S
C473 C474 1.366 . S
C473 C475 1.388 . S
C474 C473 1.366 . S
C474 C478 1.385 . S
C475 H450 0.951 . S
C475 C473 1.388 . S
C475 C476 1.366 . S
C476 C475 1.366 . S
C476 C477 1.414 . S
C476 C479 1.499 . S
C477 H451 0.950 . S
C477 C476 1.414 . S
C477 C478 1.374 . S
C478 H452 0.950 . S
C478 C474 1.385 . S
C478 C477 1.374 . S
C479 C476 1.499 . S
C479 C480 1.388 . S
C479 C481 1.389 . S
C480 H453 0.950 . S
C480 C466 1.362 1_554 S
C480 C479 1.388 . S
C481 C465 1.362 1_554 S
C481 C479 1.389 . S
C481 C482 1.524 . S
C482 C481 1.524 . S
C482 C483 1.397 . S
C482 C487 1.363 . S
C483 H454 0.950 . S
C483 C482 1.397 . S
C483 C484 1.334 . S
C484 H455 0.950 . S
C484 C483 1.334 . S
C484 C485 1.287 . S
C485 C484 1.287 . S
C485 C486 1.524 . S
C485 H488 0.999 . S
C486 H456 0.950 . S
C486 C485 1.524 . S
C486 C487 1.415 . S
C487 H457 0.950 . S
C487 C482 1.363 . S
C487 C486 1.415 . S
H488 C485 0.999 . S
H489 C470 0.913 . S
H490 C508 0.951 . S
H491 C510 0.951 . S
H492 C512 0.950 . S
H493 C513 0.950 . S
H494 C515 0.950 . S
H495 C518 0.950 . S
H496 C519 0.950 . S
H497 C521 0.950 . S
H498 C522 0.950 . S
H499 C523 0.951 . S
H500 C525 0.951 . S
H501 C527 0.950 . S
H502 C528 0.950 . S
H503 C530 0.950 . S
H504 C533 0.950 . S
H505 C534 0.950 . S
H506 C536 0.950 . S
H507 C537 0.950 . S
C508 H490 0.951 . S
C508 C509 1.366 . S
C508 C510 1.388 . S
C509 C508 1.366 . S
C509 C513 1.385 . S
C510 H491 0.951 . S
C510 C508 1.388 . S
C510 C511 1.366 . S
C511 C510 1.366 . S
C511 C512 1.414 . S
C511 C514 1.499 . S
C512 H492 0.950 . S
C512 C511 1.414 . S
C512 C513 1.374 . S
C513 H493 0.950 . S
C513 C509 1.385 . S
C513 C512 1.374 . S
C514 C511 1.499 . S
C514 C515 1.373 1_655 S
C514 C516 1.389 . S
C515 H494 0.950 . S
C515 C514 1.373 1_455 S
C515 C531 1.377 . S
C516 C514 1.389 . S
C516 C517 1.524 . S
C516 C530 1.377 . S
C517 C516 1.524 . S
C517 C518 1.397 . S
C517 C522 1.363 . S
C518 H495 0.950 . S
C518 C517 1.397 . S
C518 C519 1.334 . S
C519 H496 0.950 . S
C519 C518 1.334 . S
C519 C520 1.287 . S
C520 C519 1.287 . S
C520 C521 1.524 . S
C520 H539 0.913 . S
C521 H497 0.950 . S
C521 C520 1.524 . S
C521 C522 1.415 . S
C522 H498 0.950 . S
C522 C517 1.363 . S
C522 C521 1.415 . S
C523 H499 0.951 . S
C523 C524 1.366 . S
C523 C525 1.388 . S
C524 C523 1.366 . S
C524 C528 1.385 . S
C525 H500 0.951 . S
C525 C523 1.388 . S
C525 C526 1.366 . S
C526 C525 1.366 . S
C526 C527 1.414 . S
C526 C529 1.499 . S
C527 H501 0.950 . S
C527 C526 1.414 . S
C527 C528 1.374 . S
C528 H502 0.950 . S
C528 C524 1.385 . S
C528 C527 1.374 . S
C529 C526 1.499 . S
C529 C530 1.373 1_455 S
C529 C531 1.389 . S
C530 H503 0.950 . S
C530 C516 1.377 . S
C530 C529 1.373 1_655 S
C531 C515 1.377 . S
C531 C529 1.389 . S
C531 C532 1.524 . S
C532 C531 1.524 . S
C532 C533 1.397 . S
C532 C537 1.363 . S
C533 H504 0.950 . S
C533 C532 1.397 . S
C533 C534 1.334 . S
C534 H505 0.950 . S
C534 C533 1.334 . S
C534 C535 1.287 . S
C535 C534 1.287 . S
C535 C536 1.524 . S
C535 H538 0.999 . S
C536 H506 0.950 . S
C536 C535 1.524 . S
C536 C537 1.415 . S
C537 H507 0.950 . S
C537 C532 1.363 . S
C537 C536 1.415 . S
H538 C535 0.999 . S
H539 C520 0.913 . S
H540 C558 0.951 . S
H541 C560 0.951 . S
H542 C562 0.950 . S
H543 C563 0.950 . S
H544 C565 0.950 . S
H545 C568 0.950 . S
H546 C569 0.950 . S
H547 C571 0.950 . S
H548 C572 0.950 . S
H549 C573 0.951 . S
H550 C575 0.951 . S
H551 C577 0.950 . S
H552 C578 0.950 . S
H553 C580 0.950 . S
H554 C583 0.950 . S
H555 C584 0.950 . S
H556 C586 0.950 . S
H557 C587 0.950 . S
C558 H540 0.951 . S
C558 C559 1.366 . S
C558 C560 1.388 . S
C559 C558 1.366 . S
C559 C563 1.385 . S
C560 H541 0.951 . S
C560 C558 1.388 . S
C560 C561 1.366 . S
C561 C560 1.366 . S
C561 C562 1.414 . S
C561 C564 1.499 . S
C562 H542 0.950 . S
C562 C561 1.414 . S
C562 C563 1.374 . S
C563 H543 0.950 . S
C563 C559 1.385 . S
C563 C562 1.374 . S
C564 C561 1.499 . S
C564 C565 1.373 . S
C564 C566 1.389 . S
C565 H544 0.950 . S
C565 C564 1.373 . S
C565 C581 1.377 . S
C566 C564 1.389 . S
C566 C567 1.524 . S
C566 C580 1.377 . S
C567 C566 1.524 . S
C567 C568 1.397 . S
C567 C572 1.363 . S
C568 H545 0.950 . S
C568 C567 1.397 . S
C568 C569 1.334 . S
C569 H546 0.950 . S
C569 C568 1.334 . S
C569 C570 1.287 . S
C570 C569 1.287 . S
C570 C571 1.524 . S
C570 H589 0.913 . S
C571 H547 0.950 . S
C571 C570 1.524 . S
C571 C572 1.415 . S
C572 H548 0.950 . S
C572 C567 1.363 . S
C572 C571 1.415 . S
C573 H549 0.951 . S
C573 C574 1.366 . S
C573 C575 1.388 . S
C574 C573 1.366 . S
C574 C578 1.385 . S
C575 H550 0.951 . S
C575 C573 1.388 . S
C575 C576 1.366 . S
C576 C575 1.366 . S
C576 C577 1.414 . S
C576 C579 1.499 . S
C577 H551 0.950 . S
C577 C576 1.414 . S
C577 C578 1.374 . S
C578 H552 0.950 . S
C578 C574 1.385 . S
C578 C577 1.374 . S
C579 C576 1.499 . S
C579 C580 1.373 . S
C579 C581 1.389 . S
C580 H553 0.950 . S
C580 C566 1.377 . S
C580 C579 1.373 . S
C581 C565 1.377 . S
C581 C579 1.389 . S
C581 C582 1.524 . S
C582 C581 1.524 . S
C582 C583 1.397 . S
C582 C587 1.363 . S
C583 H554 0.950 . S
C583 C582 1.397 . S
C583 C584 1.334 . S
C584 H555 0.950 . S
C584 C583 1.334 . S
C584 C585 1.287 . S
C585 C584 1.287 . S
C585 C586 1.524 . S
C585 H588 0.999 . S
C586 H556 0.950 . S
C586 C585 1.524 . S
C586 C587 1.415 . S
C587 H557 0.950 . S
C587 C582 1.363 . S
C587 C586 1.415 . S
H588 C585 0.999 . S
H589 C570 0.913 . S
H590 C608 0.951 . S
H591 C610 0.951 . S
H592 C612 0.950 . S
H593 C613 0.950 . S
H594 C615 0.950 . S
H595 C618 0.950 . S
H596 C619 0.950 . S
H597 C621 0.950 . S
H598 C622 0.950 . S
H599 C623 0.951 . S
H600 C625 0.951 . S
H601 C627 0.950 . S
H602 C628 0.950 . S
H603 C630 0.950 . S
H604 C633 0.950 . S
H605 C634 0.950 . S
H606 C636 0.950 . S
H607 C637 0.950 . S
C608 H590 0.951 . S
C608 C609 1.366 . S
C608 C610 1.388 . S
C609 C608 1.366 . S
C609 C613 1.385 . S
C610 H591 0.951 . S
C610 C608 1.388 . S
C610 C611 1.366 . S
C611 C610 1.366 . S
C611 C612 1.414 . S
C611 C614 1.499 . S
C612 H592 0.950 . S
C612 C611 1.414 . S
C612 C613 1.374 . S
C613 H593 0.950 . S
C613 C609 1.385 . S
C613 C612 1.374 . S
C614 C611 1.499 . S
C614 C615 1.373 . S
C614 C616 1.389 . S
C615 H594 0.950 . S
C615 C614 1.373 . S
C615 C631 1.377 . S
C616 C614 1.389 . S
C616 C617 1.524 . S
C616 C630 1.377 . S
C617 C616 1.524 . S
C617 C618 1.397 . S
C617 C622 1.363 . S
C618 H595 0.950 . S
C618 C617 1.397 . S
C618 C619 1.334 . S
C619 H596 0.950 . S
C619 C618 1.334 . S
C619 C620 1.287 . S
C620 C619 1.287 . S
C620 C621 1.524 . S
C620 H639 0.913 . S
C621 H597 0.950 . S
C621 C620 1.524 . S
C621 C622 1.415 . S
C622 H598 0.950 . S
C622 C617 1.363 . S
C622 C621 1.415 . S
C623 H599 0.951 . S
C623 C624 1.366 . S
C623 C625 1.388 . S
C624 C623 1.366 . S
C624 C628 1.385 . S
C625 H600 0.951 . S
C625 C623 1.388 . S
C625 C626 1.366 . S
C626 C625 1.366 . S
C626 C627 1.414 . S
C626 C629 1.499 . S
C627 H601 0.950 . S
C627 C626 1.414 . S
C627 C628 1.374 . S
C628 H602 0.950 . S
C628 C624 1.385 . S
C628 C627 1.374 . S
C629 C626 1.499 . S
C629 C630 1.373 . S
C629 C631 1.389 . S
C630 H603 0.950 . S
C630 C616 1.377 . S
C630 C629 1.373 . S
C631 C615 1.377 . S
C631 C629 1.389 . S
C631 C632 1.524 . S
C632 C631 1.524 . S
C632 C633 1.397 . S
C632 C637 1.363 . S
C633 H604 0.950 . S
C633 C632 1.397 . S
C633 C634 1.334 . S
C634 H605 0.950 . S
C634 C633 1.334 . S
C634 C635 1.287 . S
C635 C634 1.287 . S
C635 C636 1.524 . S
C635 H638 0.999 . S
C636 H606 0.950 . S
C636 C635 1.524 . S
C636 C637 1.415 . S
C637 H607 0.950 . S
C637 C632 1.363 . S
C637 C636 1.415 . S
H638 C635 0.999 . S
H639 C620 0.913 . S
H640 C658 0.951 . S
H641 C660 0.951 . S
H642 C662 0.950 . S
H643 C663 0.950 . S
H644 C665 0.950 . S
H645 C668 0.950 . S
H646 C669 0.950 . S
H647 C671 0.950 . S
H648 C672 0.950 . S
H649 C673 0.951 . S
H650 C675 0.951 . S
H651 C677 0.950 . S
H652 C678 0.950 . S
H653 C680 0.950 . S
H654 C683 0.950 . S
H655 C684 0.950 . S
H656 C686 0.950 . S
H657 C687 0.950 . S
C658 H640 0.951 . S
C658 C659 1.366 . S
C658 C660 1.388 . S
C659 C658 1.366 . S
C659 C663 1.385 . S
C660 H641 0.951 . S
C660 C658 1.388 . S
C660 C661 1.366 . S
C661 C660 1.366 . S
C661 C662 1.414 . S
C661 C664 1.499 . S
C662 H642 0.950 . S
C662 C661 1.414 . S
C662 C663 1.374 . S
C663 H643 0.950 . S
C663 C659 1.385 . S
C663 C662 1.374 . S
C664 C661 1.499 . S
C664 C665 1.373 . S
C664 C666 1.389 . S
C665 H644 0.950 . S
C665 C664 1.373 . S
C665 C681 1.377 . S
C666 C664 1.389 . S
C666 C667 1.524 . S
C666 C680 1.377 . S
C667 C666 1.524 . S
C667 C668 1.397 . S
C667 C672 1.363 . S
C668 H645 0.950 . S
C668 C667 1.397 . S
C668 C669 1.334 . S
C669 H646 0.950 . S
C669 C668 1.334 . S
C669 C670 1.287 . S
C670 C669 1.287 . S
C670 C671 1.524 . S
C670 H689 0.913 . S
C671 H647 0.950 . S
C671 C670 1.524 . S
C671 C672 1.415 . S
C672 H648 0.950 . S
C672 C667 1.363 . S
C672 C671 1.415 . S
C673 H649 0.951 . S
C673 C674 1.366 . S
C673 C675 1.388 . S
C674 C673 1.366 . S
C674 C678 1.385 . S
C675 H650 0.951 . S
C675 C673 1.388 . S
C675 C676 1.366 . S
C676 C675 1.366 . S
C676 C677 1.414 . S
C676 C679 1.499 . S
C677 H651 0.950 . S
C677 C676 1.414 . S
C677 C678 1.374 . S
C678 H652 0.950 . S
C678 C674 1.385 . S
C678 C677 1.374 . S
C679 C676 1.499 . S
C679 C680 1.373 . S
C679 C681 1.389 . S
C680 H653 0.950 . S
C680 C666 1.377 . S
C680 C679 1.373 . S
C681 C665 1.377 . S
C681 C679 1.389 . S
C681 C682 1.524 . S
C682 C681 1.524 . S
C682 C683 1.397 . S
C682 C687 1.363 . S
C683 H654 0.950 . S
C683 C682 1.397 . S
C683 C684 1.334 . S
C684 H655 0.950 . S
C684 C683 1.334 . S
C684 C685 1.287 . S
C685 C684 1.287 . S
C685 C686 1.524 . S
C685 H688 0.999 . S
C686 H656 0.950 . S
C686 C685 1.524 . S
C686 C687 1.415 . S
C687 H657 0.950 . S
C687 C682 1.363 . S
C687 C686 1.415 . S
H688 C685 0.999 . S
H689 C670 0.913 . S
H690 C708 0.951 . S
H691 C710 0.951 . S
H692 C712 0.950 . S
H693 C713 0.950 . S
H694 C715 0.950 . S
H695 C718 0.950 . S
H696 C719 0.950 . S
H697 C721 0.950 . S
H698 C722 0.950 . S
H699 C723 0.951 . S
H700 C725 0.951 . S
H701 C727 0.950 . S
H702 C728 0.950 . S
H703 C730 0.950 . S
H704 C733 0.950 . S
H705 C734 0.950 . S
H706 C736 0.950 . S
H707 C737 0.950 . S
C708 H690 0.951 . S
C708 C709 1.366 . S
C708 C710 1.388 . S
C709 C708 1.366 . S
C709 C713 1.385 . S
C710 H691 0.951 . S
C710 C708 1.388 . S
C710 C711 1.366 . S
C711 C710 1.366 . S
C711 C712 1.414 . S
C711 C714 1.499 . S
C712 H692 0.950 . S
C712 C711 1.414 . S
C712 C713 1.374 . S
C713 H693 0.950 . S
C713 C709 1.385 . S
C713 C712 1.374 . S
C714 C711 1.499 . S
C714 C715 1.373 . S
C714 C716 1.389 . S
C715 H694 0.950 . S
C715 C714 1.373 . S
C715 C731 1.377 . S
C716 C714 1.389 . S
C716 C717 1.524 . S
C716 C730 1.377 . S
C717 C716 1.524 . S
C717 C718 1.397 . S
C717 C722 1.363 . S
C718 H695 0.950 . S
C718 C717 1.397 . S
C718 C719 1.334 . S
C719 H696 0.950 . S
C719 C718 1.334 . S
C719 C720 1.287 . S
C720 C719 1.287 . S
C720 C721 1.524 . S
C720 H739 0.913 . S
C721 H697 0.950 . S
C721 C720 1.524 . S
C721 C722 1.415 . S
C722 H698 0.950 . S
C722 C717 1.363 . S
C722 C721 1.415 . S
C723 H699 0.951 . S
C723 C724 1.366 . S
C723 C725 1.388 . S
C724 C723 1.366 . S
C724 C728 1.385 . S
C725 H700 0.951 . S
C725 C723 1.388 . S
C725 C726 1.366 . S
C726 C725 1.366 . S
C726 C727 1.414 . S
C726 C729 1.499 . S
C727 H701 0.950 . S
C727 C726 1.414 . S
C727 C728 1.374 . S
C728 H702 0.950 . S
C728 C724 1.385 . S
C728 C727 1.374 . S
C729 C726 1.499 . S
C729 C730 1.373 . S
C729 C731 1.389 . S
C730 H703 0.950 . S
C730 C716 1.377 . S
C730 C729 1.373 . S
C731 C715 1.377 . S
C731 C729 1.389 . S
C731 C732 1.524 . S
C732 C731 1.524 . S
C732 C733 1.397 . S
C732 C737 1.363 . S
C733 H704 0.950 . S
C733 C732 1.397 . S
C733 C734 1.334 . S
C734 H705 0.950 . S
C734 C733 1.334 . S
C734 C735 1.287 . S
C735 C734 1.287 . S
C735 C736 1.524 . S
C735 H738 0.999 . S
C736 H706 0.950 . S
C736 C735 1.524 . S
C736 C737 1.415 . S
C737 H707 0.950 . S
C737 C732 1.363 . S
C737 C736 1.415 . S
H738 C735 0.999 . S
H739 C720 0.913 . S
H740 C758 0.951 . S
H741 C760 0.951 . S
H742 C762 0.950 . S
H743 C763 0.950 . S
H744 C765 0.950 . S
H745 C768 0.950 . S
H746 C769 0.950 . S
H747 C771 0.950 . S
H748 C772 0.950 . S
H749 C773 0.951 . S
H750 C775 0.951 . S
H751 C777 0.950 . S
H752 C778 0.950 . S
H753 C780 0.950 . S
H754 C783 0.950 . S
H755 C784 0.950 . S
H756 C786 0.950 . S
H757 C787 0.950 . S
C758 H740 0.951 . S
C758 C759 1.366 . S
C758 C760 1.388 . S
C759 C758 1.366 . S
C759 C763 1.385 . S
C760 H741 0.951 . S
C760 C758 1.388 . S
C760 C761 1.366 . S
C761 C760 1.366 . S
C761 C762 1.414 . S
C761 C764 1.499 . S
C762 H742 0.950 . S
C762 C761 1.414 . S
C762 C763 1.374 . S
C763 H743 0.950 . S
C763 C759 1.385 . S
C763 C762 1.374 . S
C764 C761 1.499 . S
C764 C765 1.373 . S
C764 C766 1.389 . S
C765 H744 0.950 . S
C765 C764 1.373 . S
C765 C781 1.377 . S
C766 C764 1.389 . S
C766 C767 1.524 . S
C766 C780 1.377 . S
C767 C766 1.524 . S
C767 C768 1.397 . S
C767 C772 1.363 . S
C768 H745 0.950 . S
C768 C767 1.397 . S
C768 C769 1.334 . S
C769 H746 0.950 . S
C769 C768 1.334 . S
C769 C770 1.287 . S
C770 C769 1.287 . S
C770 C771 1.524 . S
C770 H789 0.913 . S
C771 H747 0.950 . S
C771 C770 1.524 . S
C771 C772 1.415 . S
C772 H748 0.950 . S
C772 C767 1.363 . S
C772 C771 1.415 . S
C773 H749 0.951 . S
C773 C774 1.366 . S
C773 C775 1.388 . S
C774 C773 1.366 . S
C774 C778 1.385 . S
C775 H750 0.951 . S
C775 C773 1.388 . S
C775 C776 1.366 . S
C776 C775 1.366 . S
C776 C777 1.414 . S
C776 C779 1.499 . S
C777 H751 0.950 . S
C777 C776 1.414 . S
C777 C778 1.374 . S
C778 H752 0.950 . S
C778 C774 1.385 . S
C778 C777 1.374 . S
C779 C776 1.499 . S
C779 C780 1.373 . S
C779 C781 1.389 . S
C780 H753 0.950 . S
C780 C766 1.377 . S
C780 C779 1.373 . S
C781 C765 1.377 . S
C781 C779 1.389 . S
C781 C782 1.524 . S
C782 C781 1.524 . S
C782 C783 1.397 . S
C782 C787 1.363 . S
C783 H754 0.950 . S
C783 C782 1.397 . S
C783 C784 1.334 . S
C784 H755 0.950 . S
C784 C783 1.334 . S
C784 C785 1.287 . S
C785 C784 1.287 . S
C785 C786 1.524 . S
C785 H788 0.999 . S
C786 H756 0.950 . S
C786 C785 1.524 . S
C786 C787 1.415 . S
C787 H757 0.950 . S
C787 C782 1.363 . S
C787 C786 1.415 . S
H788 C785 0.999 . S
H789 C770 0.913 . S
H790 C808 0.951 . S
H791 C810 0.951 . S
H792 C812 0.950 . S
H793 C813 0.950 . S
H794 C815 0.950 . S
H795 C818 0.950 . S
H796 C819 0.950 . S
H797 C821 0.950 . S
H798 C822 0.950 . S
H799 C823 0.951 . S
H800 C825 0.951 . S
H801 C827 0.950 . S
H802 C828 0.950 . S
H803 C830 0.950 . S
H804 C833 0.950 . S
H805 C834 0.950 . S
H806 C836 0.950 . S
H807 C837 0.950 . S
C808 H790 0.951 . S
C808 C809 1.366 . S
C808 C810 1.388 . S
C809 C808 1.366 . S
C809 C813 1.385 . S
C810 H791 0.951 . S
C810 C808 1.388 . S
C810 C811 1.366 . S
C811 C810 1.366 . S
C811 C812 1.414 . S
C811 C814 1.499 . S
C812 H792 0.950 . S
C812 C811 1.414 . S
C812 C813 1.374 . S
C813 H793 0.950 . S
C813 C809 1.385 . S
C813 C812 1.374 . S
C814 C811 1.499 . S
C814 C815 1.373 . S
C814 C816 1.389 . S
C815 H794 0.950 . S
C815 C814 1.373 . S
C815 C831 1.377 . S
C816 C814 1.389 . S
C816 C817 1.524 . S
C816 C830 1.377 . S
C817 C816 1.524 . S
C817 C818 1.397 . S
C817 C822 1.363 . S
C818 H795 0.950 . S
C818 C817 1.397 . S
C818 C819 1.334 . S
C819 H796 0.950 . S
C819 C818 1.334 . S
C819 C820 1.287 . S
C820 C819 1.287 . S
C820 C821 1.524 . S
C820 H839 0.913 . S
C821 H797 0.950 . S
C821 C820 1.524 . S
C821 C822 1.415 . S
C822 H798 0.950 . S
C822 C817 1.363 . S
C822 C821 1.415 . S
C823 H799 0.951 . S
C823 C824 1.366 . S
C823 C825 1.388 . S
C824 C823 1.366 . S
C824 C828 1.385 . S
C825 H800 0.951 . S
C825 C823 1.388 . S
C825 C826 1.366 . S
C826 C825 1.366 . S
C826 C827 1.414 . S
C826 C829 1.499 . S
C827 H801 0.950 . S
C827 C826 1.414 . S
C827 C828 1.374 . S
C828 H802 0.950 . S
C828 C824 1.385 . S
C828 C827 1.374 . S
C829 C826 1.499 . S
C829 C830 1.373 . S
C829 C831 1.389 . S
C830 H803 0.950 . S
C830 C816 1.377 . S
C830 C829 1.373 . S
C831 C815 1.377 . S
C831 C829 1.389 . S
C831 C832 1.524 . S
C832 C831 1.524 . S
C832 C833 1.397 . S
C832 C837 1.363 . S
C833 H804 0.950 . S
C833 C832 1.397 . S
C833 C834 1.334 . S
C834 H805 0.950 . S
C834 C833 1.334 . S
C834 C835 1.287 . S
C835 C834 1.287 . S
C835 C836 1.524 . S
C835 H838 0.999 . S
C836 H806 0.950 . S
C836 C835 1.524 . S
C836 C837 1.415 . S
C837 H807 0.950 . S
C837 C832 1.363 . S
C837 C836 1.415 . S
H838 C835 0.999 . S
H839 C820 0.913 . S
H840 C858 0.951 . S
H841 C860 0.951 . S
H842 C862 0.950 . S
H843 C863 0.950 . S
H844 C865 0.950 . S
H845 C868 0.950 . S
H846 C869 0.950 . S
H847 C871 0.950 . S
H848 C872 0.950 . S
H849 C873 0.951 . S
H850 C875 0.951 . S
H851 C877 0.950 . S
H852 C878 0.950 1_455 S
H853 C880 0.950 . S
H854 C883 0.950 . S
H855 C884 0.950 . S
H856 C886 0.950 . S
H857 C887 0.950 . S
C858 H840 0.951 . S
C858 C859 1.366 . S
C858 C860 1.388 . S
C859 C858 1.366 . S
C859 C863 1.385 . S
C860 H841 0.951 . S
C860 C858 1.388 . S
C860 C861 1.366 . S
C861 C860 1.366 . S
C861 C862 1.414 . S
C861 C864 1.499 . S
C862 H842 0.950 . S
C862 C861 1.414 . S
C862 C863 1.374 . S
C863 H843 0.950 . S
C863 C859 1.385 . S
C863 C862 1.374 . S
C864 C861 1.499 . S
C864 C865 1.373 . S
C864 C866 1.389 . S
C865 H844 0.950 . S
C865 C864 1.373 . S
C865 C881 1.377 . S
C866 C864 1.389 . S
C866 C867 1.524 . S
C866 C880 1.377 . S
C867 C866 1.524 . S
C867 C868 1.397 . S
C867 C872 1.363 . S
C868 H845 0.950 . S
C868 C867 1.397 . S
C868 C869 1.334 . S
C869 H846 0.950 . S
C869 C868 1.334 . S
C869 C870 1.287 . S
C870 C869 1.287 . S
C870 C871 1.524 . S
C870 H889 0.913 . S
C871 H847 0.950 . S
C871 C870 1.524 . S
C871 C872 1.415 . S
C872 H848 0.950 . S
C872 C867 1.363 . S
C872 C871 1.415 . S
C873 H849 0.951 . S
C873 C874 1.366 . S
C873 C875 1.388 . S
C874 C873 1.366 . S
C874 C878 1.385 . S
C875 H850 0.951 . S
C875 C873 1.388 . S
C875 C876 1.366 1_655 S
C876 C875 1.366 1_455 S
C876 C877 1.414 . S
C876 C879 1.499 . S
C877 H851 0.950 . S
C877 C876 1.414 . S
C877 C878 1.374 1_455 S
C878 H852 0.950 1_655 S
C878 C874 1.385 . S
C878 C877 1.374 1_655 S
C879 C876 1.499 . S
C879 C880 1.373 . S
C879 C881 1.389 . S
C880 H853 0.950 . S
C880 C866 1.377 . S
C880 C879 1.373 . S
C881 C865 1.377 . S
C881 C879 1.389 . S
C881 C882 1.524 1_455 S
C882 C881 1.524 1_655 S
C882 C883 1.397 . S
C882 C887 1.363 . S
C883 H854 0.950 . S
C883 C882 1.397 . S
C883 C884 1.334 . S
C884 H855 0.950 . S
C884 C883 1.334 . S
C884 C885 1.287 . S
C885 C884 1.287 . S
C885 C886 1.524 . S
C885 H888 0.999 . S
C886 H856 0.950 . S
C886 C885 1.524 . S
C886 C887 1.415 . S
C887 H857 0.950 . S
C887 C882 1.363 . S
C887 C886 1.415 . S
H888 C885 0.999 . S
H889 C870 0.913 . S
H890 C908 0.951 . S
H891 C910 0.951 . S
H892 C912 0.950 . S
H893 C913 0.950 . S
H894 C915 0.950 . S
H895 C918 0.950 . S
H896 C919 0.945 1_545 S
H897 C921 0.950 . S
H898 C922 0.950 . S
H899 C923 0.951 . S
H900 C925 0.951 1_565 S
H901 C927 0.950 . S
H902 C928 0.950 . S
H903 C930 0.950 1_545 S
H904 C933 0.950 . S
H905 C934 0.950 . S
H906 C936 0.950 . S
H907 C937 0.950 . S
C908 H890 0.951 . S
C908 C909 1.366 . S
C908 C910 1.388 1_655 S
C909 C908 1.366 . S
C909 C913 1.385 . S
C910 H891 0.951 . S
C910 C908 1.388 1_455 S
C910 C911 1.366 . S
C911 C910 1.366 . S
C911 C912 1.414 . S
C911 C914 1.499 . S
C912 H892 0.950 . S
C912 C911 1.414 . S
C912 C913 1.374 1_455 S
C913 H893 0.950 . S
C913 C909 1.385 . S
C913 C912 1.374 1_655 S
C914 C911 1.499 . S
C914 C915 1.373 . S
C914 C916 1.389 . S
C915 H894 0.950 . S
C915 C914 1.373 . S
C915 C931 1.377 . S
C916 C914 1.389 . S
C916 C917 1.524 . S
C916 C930 1.377 . S
C917 C916 1.524 . S
C917 C918 1.397 . S
C917 C922 1.363 . S
C918 H895 0.950 . S
C918 C917 1.397 . S
C918 C919 1.342 . S
C919 H896 0.945 1_565 S
C919 C918 1.342 . S
C919 C920 1.284 1_565 S
C920 C919 1.284 1_545 S
C920 C921 1.524 . S
C920 H939 0.913 . S
C921 H897 0.950 . S
C921 C920 1.524 . S
C921 C922 1.415 1_545 S
C922 H898 0.950 . S
C922 C917 1.363 . S
C922 C921 1.415 1_565 S
C923 H899 0.951 . S
C923 C924 1.366 . S
C923 C925 1.387 . S
C924 C923 1.366 . S
C924 C928 1.385 . S
C925 H900 0.951 1_545 S
C925 C923 1.387 . S
C925 C926 1.366 1_545 S
C926 C925 1.366 1_565 S
C926 C927 1.414 1_565 S
C926 C929 1.499 . S
C927 H901 0.950 . S
C927 C926 1.414 1_545 S
C927 C928 1.374 . S
C928 H902 0.950 . S
C928 C924 1.385 . S
C928 C927 1.374 . S
C929 C926 1.499 . S
C929 C930 1.373 . S
C929 C931 1.389 . S
C930 H903 0.950 1_565 S
C930 C916 1.377 . S
C930 C929 1.373 . S
C931 C915 1.377 . S
C931 C929 1.389 . S
C931 C932 1.524 . S
C932 C931 1.524 . S
C932 C933 1.397 . S
C932 C937 1.363 . S
C933 H904 0.950 . S
C933 C932 1.397 . S
C933 C934 1.334 . S
C934 H905 0.950 . S
C934 C933 1.334 . S
C934 C935 1.287 . S
C935 C934 1.287 . S
C935 C936 1.524 . S
C935 H938 0.999 . S
C936 H906 0.950 . S
C936 C935 1.524 . S
C936 C937 1.415 . S
C937 H907 0.950 . S
C937 C932 1.363 . S
C937 C936 1.415 . S
H938 C935 0.999 . S
H939 C920 0.913 . S
H940 C958 0.951 . S
H941 C960 0.951 . S
H942 C962 0.950 . S
H943 C963 0.950 . S
H944 C965 0.950 . S
H945 C968 0.950 . S
H946 C969 0.950 . S
H947 C971 0.950 . S
H948 C972 0.950 . S
H949 C973 0.951 . S
H950 C975 0.951 . S
H951 C977 0.950 . S
H952 C978 0.950 . S
H953 C980 0.950 . S
H954 C983 0.950 . S
H955 C984 0.950 . S
H956 C986 0.950 . S
H957 C987 0.950 . S
C958 H940 0.951 . S
C958 C959 1.366 . S
C958 C960 1.388 1_545 S
C959 C958 1.366 . S
C959 C963 1.385 . S
C960 H941 0.951 . S
C960 C958 1.388 1_565 S
C960 C961 1.366 . S
C961 C960 1.366 . S
C961 C962 1.414 . S
C961 C964 1.499 . S
C962 H942 0.950 . S
C962 C961 1.414 . S
C962 C963 1.374 1_565 S
C963 H943 0.950 . S
C963 C959 1.385 . S
C963 C962 1.374 1_545 S
C964 C961 1.499 . S
C964 C965 1.373 . S
C964 C966 1.389 . S
C965 H944 0.950 . S
C965 C964 1.373 . S
C965 C981 1.377 . S
C966 C964 1.389 . S
C966 C967 1.524 . S
C966 C980 1.377 . S
C967 C966 1.524 . S
C967 C968 1.397 . S
C967 C972 1.363 . S
C968 H945 0.950 . S
C968 C967 1.397 . S
C968 C969 1.334 . S
C969 H946 0.950 . S
C969 C968 1.334 . S
C969 C970 1.287 . S
C970 C969 1.287 . S
C970 C971 1.524 . S
C970 H989 0.913 . S
C971 H947 0.950 . S
C971 C970 1.524 . S
C971 C972 1.415 . S
C972 H948 0.950 . S
C972 C967 1.363 . S
C972 C971 1.415 . S
C973 H949 0.951 . S
C973 C974 1.366 . S
C973 C975 1.388 . S
C974 C973 1.366 . S
C974 C978 1.385 . S
C975 H950 0.951 . S
C975 C973 1.388 . S
C975 C976 1.366 . S
C976 C975 1.366 . S
C976 C977 1.414 . S
C976 C979 1.499 . S
C977 H951 0.950 . S
C977 C976 1.414 . S
C977 C978 1.374 . S
C978 H952 0.950 . S
C978 C974 1.385 . S
C978 C977 1.374 . S
C979 C976 1.499 . S
C979 C980 1.373 . S
C979 C981 1.389 . S
C980 H953 0.950 . S
C980 C966 1.377 . S
C980 C979 1.373 . S
C981 C965 1.377 . S
C981 C979 1.389 . S
C981 C982 1.524 . S
C982 C981 1.524 . S
C982 C983 1.397 . S
C982 C987 1.363 . S
C983 H954 0.950 . S
C983 C982 1.397 . S
C983 C984 1.334 . S
C984 H955 0.950 . S
C984 C983 1.334 . S
C984 C985 1.287 . S
C985 C984 1.287 . S
C985 C986 1.524 . S
C985 H988 0.999 . S
C986 H956 0.950 . S
C986 C985 1.524 . S
C986 C987 1.415 . S
C987 H957 0.950 . S
C987 C982 1.363 . S
C987 C986 1.415 . S
H988 C985 0.999 . S
H989 C970 0.913 . S
H990 C1008 0.951 . S
H991 C1010 0.951 . S
H992 C1012 0.950 . S
H993 C1013 0.950 . S
H994 C1015 0.950 . S
H995 C1018 0.950 . S
H996 C1019 0.950 . S
H997 C1021 0.950 . S
H998 C1022 0.950 . S
H999 C1023 0.951 . S
H1000 C1025 0.951 . S
H1001 C1027 0.950 . S
H1002 C1028 0.947 . S
H1003 C1030 0.950 . S
H1004 C1033 0.950 1_545 S
H1005 C1034 0.950 . S
H1006 C1036 0.950 . S
H1007 C1037 0.950 . S
C1008 H990 0.951 . S
C1008 C1009 1.366 . S
C1008 C1010 1.388 . S
C1009 C1008 1.366 . S
C1009 C1013 1.385 . S
C1010 H991 0.951 . S
C1010 C1008 1.388 . S
C1010 C1011 1.366 . S
C1011 C1010 1.366 . S
C1011 C1012 1.414 . S
C1011 C1014 1.499 . S
C1012 H992 0.950 . S
C1012 C1011 1.414 . S
C1012 C1013 1.374 . S
C1013 H993 0.950 . S
C1013 C1009 1.385 . S
C1013 C1012 1.374 . S
C1014 C1011 1.499 . S
C1014 C1015 1.373 . S
C1014 C1016 1.389 . S
C1015 H994 0.950 . S
C1015 C1014 1.373 . S
C1015 C1031 1.377 . S
C1016 C1014 1.389 . S
C1016 C1017 1.524 . S
C1016 C1030 1.377 . S
C1017 C1016 1.524 . S
C1017 C1018 1.397 . S
C1017 C1022 1.363 . S
C1018 H995 0.950 . S
C1018 C1017 1.397 . S
C1018 C1019 1.334 . S
C1019 H996 0.950 . S
C1019 C1018 1.334 . S
C1019 C1020 1.287 . S
C1020 C1019 1.287 . S
C1020 C1021 1.524 . S
C1020 H1039 0.913 . S
C1021 H997 0.950 . S
C1021 C1020 1.524 . S
C1021 C1022 1.415 . S
C1022 H998 0.950 . S
C1022 C1017 1.363 . S
C1022 C1021 1.415 . S
C1023 H999 0.951 . S
C1023 C1024 1.366 . S
C1023 C1025 1.388 . S
C1024 C1023 1.366 . S
C1024 C1028 1.352 1_565 S
C1025 H1000 0.951 . S
C1025 C1023 1.388 . S
C1025 C1026 1.366 1_565 S
C1026 C1025 1.366 1_545 S
C1026 C1027 1.414 . S
C1026 C1029 1.499 . S
C1027 H1001 0.950 . S
C1027 C1026 1.414 . S
C1027 C1028 1.410 . S
C1028 H1002 0.947 . S
C1028 C1024 1.352 1_545 S
C1028 C1027 1.410 . S
C1029 C1026 1.499 . S
C1029 C1030 1.373 . S
C1029 C1031 1.389 . S
C1030 H1003 0.950 . S
C1030 C1016 1.377 . S
C1030 C1029 1.373 . S
C1031 C1015 1.377 . S
C1031 C1029 1.389 . S
C1031 C1032 1.524 1_545 S
C1032 C1031 1.524 1_565 S
C1032 C1033 1.397 . S
C1032 C1037 1.363 . S
C1033 H1004 0.950 1_565 S
C1033 C1032 1.397 . S
C1033 C1034 1.334 . S
C1034 H1005 0.950 . S
C1034 C1033 1.334 . S
C1034 C1035 1.287 . S
C1035 C1034 1.287 . S
C1035 C1036 1.524 . S
C1035 H1038 0.999 . S
C1036 H1006 0.950 . S
C1036 C1035 1.524 . S
C1036 C1037 1.415 . S
C1037 H1007 0.950 . S
C1037 C1032 1.363 . S
C1037 C1036 1.415 . S
H1038 C1035 0.999 . S
H1039 C1020 0.913 . S
H1040 C1058 0.951 . S
H1041 C1060 0.951 . S
H1042 C1062 0.950 . S
H1043 C1063 0.950 . S
H1044 C1065 0.950 . S
H1045 C1068 0.950 . S
H1046 C1069 0.950 . S
H1047 C1071 0.950 . S
H1048 C1072 0.950 . S
H1049 C1073 0.951 . S
H1050 C1075 0.951 . S
H1051 C1077 0.950 . S
H1052 C1078 0.950 . S
H1053 C1080 0.950 . S
H1054 C1083 0.950 . S
H1055 C1084 0.950 . S
H1056 C1086 0.950 . S
H1057 C1087 0.950 . S
C1058 H1040 0.951 . S
C1058 C1059 1.366 . S
C1058 C1060 1.388 1_455 S
C1059 C1058 1.366 . S
C1059 C1063 1.385 . S
C1060 H1041 0.951 . S
C1060 C1058 1.388 1_655 S
C1060 C1061 1.366 . S
C1061 C1060 1.366 . S
C1061 C1062 1.414 . S
C1061 C1064 1.499 . S
C1062 H1042 0.950 . S
C1062 C1061 1.414 . S
C1062 C1063 1.374 1_655 S
C1063 H1043 0.950 . S
C1063 C1059 1.385 . S
C1063 C1062 1.374 1_455 S
C1064 C1061 1.499 . S
C1064 C1065 1.373 . S
C1064 C1066 1.389 . S
C1065 H1044 0.950 . S
C1065 C1064 1.373 . S
C1065 C1081 1.377 . S
C1066 C1064 1.389 . S
C1066 C1067 1.524 . S
C1066 C1080 1.377 . S
C1067 C1066 1.524 . S
C1067 C1068 1.397 . S
C1067 C1072 1.363 . S
C1068 H1045 0.950 . S
C1068 C1067 1.397 . S
C1068 C1069 1.334 . S
C1069 H1046 0.950 . S
C1069 C1068 1.334 . S
C1069 C1070 1.287 . S
C1070 C1069 1.287 . S
C1070 C1071 1.524 . S
C1070 H1089 0.913 . S
C1071 H1047 0.950 . S
C1071 C1070 1.524 . S
C1071 C1072 1.415 . S
C1072 H1048 0.950 . S
C1072 C1067 1.363 . S
C1072 C1071 1.415 . S
C1073 H1049 0.951 . S
C1073 C1074 1.366 . S
C1073 C1075 1.388 . S
C1074 C1073 1.366 . S
C1074 C1078 1.385 . S
C1075 H1050 0.951 . S
C1075 C1073 1.388 . S
C1075 C1076 1.366 . S
C1076 C1075 1.366 . S
C1076 C1077 1.414 . S
C1076 C1079 1.499 . S
C1077 H1051 0.950 . S
C1077 C1076 1.414 . S
C1077 C1078 1.374 . S
C1078 H1052 0.950 . S
C1078 C1074 1.385 . S
C1078 C1077 1.374 . S
C1079 C1076 1.499 . S
C1079 C1080 1.373 . S
C1079 C1081 1.389 . S
C1080 H1053 0.950 . S
C1080 C1066 1.377 . S
C1080 C1079 1.373 . S
C1081 C1065 1.377 . S
C1081 C1079 1.389 . S
C1081 C1082 1.524 . S
C1082 C1081 1.524 . S
C1082 C1083 1.397 . S
C1082 C1087 1.363 . S
C1083 H1054 0.950 . S
C1083 C1082 1.397 . S
C1083 C1084 1.334 . S
C1084 H1055 0.950 . S
C1084 C1083 1.334 . S
C1084 C1085 1.287 . S
C1085 C1084 1.287 . S
C1085 C1086 1.524 . S
C1085 H1088 0.999 . S
C1086 H1056 0.950 . S
C1086 C1085 1.524 . S
C1086 C1087 1.415 . S
C1087 H1057 0.950 . S
C1087 C1082 1.363 . S
C1087 C1086 1.415 . S
H1088 C1085 0.999 . S
H1089 C1070 0.913 . S
H1090 C1108 0.943 1_655 S
H1091 C1110 0.951 . S
H1092 C1112 0.950 . S
H1093 C1113 0.950 . S
H1094 C1115 0.950 1_455 S
H1095 C1118 0.950 . S
H1096 C1119 0.950 . S
H1097 C1121 0.950 . S
H1098 C1122 0.950 . S
H1099 C1123 0.951 . S
H1100 C1125 0.951 . S
H1101 C1127 0.950 . S
H1102 C1128 0.950 . S
H1103 C1130 0.950 . S
H1104 C1133 0.950 . S
H1105 C1134 0.950 . S
H1106 C1136 0.950 . S
H1107 C1137 0.950 . S
C1108 H1090 0.943 1_455 S
C1108 C1109 1.374 . S
C1108 C1110 1.387 1_455 S
C1109 C1108 1.374 . S
C1109 C1113 1.385 . S
C1110 H1091 0.951 . S
C1110 C1108 1.387 1_655 S
C1110 C1111 1.366 . S
C1111 C1110 1.366 . S
C1111 C1112 1.414 1_655 S
C1111 C1114 1.499 . S
C1112 H1092 0.950 . S
C1112 C1111 1.414 1_455 S
C1112 C1113 1.374 . S
C1113 H1093 0.950 . S
C1113 C1109 1.385 . S
C1113 C1112 1.374 . S
C1114 C1111 1.499 . S
C1114 C1115 1.373 . S
C1114 C1116 1.389 . S
C1115 H1094 0.950 1_655 S
C1115 C1114 1.373 . S
C1115 C1131 1.377 . S
C1116 C1114 1.389 . S
C1116 C1117 1.524 . S
C1116 C1130 1.377 . S
C1117 C1116 1.524 . S
C1117 C1118 1.397 . S
C1117 C1122 1.363 . S
C1118 H1095 0.950 . S
C1118 C1117 1.397 . S
C1118 C1119 1.334 . S
C1119 H1096 0.950 . S
C1119 C1118 1.334 . S
C1119 C1120 1.287 . S
C1120 C1119 1.287 . S
C1120 C1121 1.524 . S
C1120 H1139 0.913 . S
C1121 H1097 0.950 . S
C1121 C1120 1.524 . S
C1121 C1122 1.415 . S
C1122 H1098 0.950 . S
C1122 C1117 1.363 . S
C1122 C1121 1.415 . S
C1123 H1099 0.951 . S
C1123 C1124 1.366 . S
C1123 C1125 1.388 1_565 S
C1124 C1123 1.366 . S
C1124 C1128 1.385 . S
C1125 H1100 0.951 . S
C1125 C1123 1.388 1_545 S
C1125 C1126 1.366 . S
C1126 C1125 1.366 . S
C1126 C1127 1.414 . S
C1126 C1129 1.499 . S
C1127 H1101 0.950 . S
C1127 C1126 1.414 . S
C1127 C1128 1.374 1_545 S
C1128 H1102 0.950 . S
C1128 C1124 1.385 . S
C1128 C1127 1.374 1_565 S
C1129 C1126 1.499 . S
C1129 C1130 1.373 . S
C1129 C1131 1.389 . S
C1130 H1103 0.950 . S
C1130 C1116 1.377 . S
C1130 C1129 1.373 . S
C1131 C1115 1.377 . S
C1131 C1129 1.389 . S
C1131 C1132 1.524 . S
C1132 C1131 1.524 . S
C1132 C1133 1.397 . S
C1132 C1137 1.363 1_655 S
C1133 H1104 0.950 . S
C1133 C1132 1.397 . S
C1133 C1134 1.334 . S
C1134 H1105 0.950 . S
C1134 C1133 1.334 . S
C1134 C1135 1.287 . S
C1135 C1134 1.287 . S
C1135 C1136 1.524 1_655 S
C1135 H1138 0.999 1_655 S
C1136 H1106 0.950 . S
C1136 C1135 1.524 1_455 S
C1136 C1137 1.415 . S
C1137 H1107 0.950 . S
C1137 C1132 1.363 1_455 S
C1137 C1136 1.415 . S
H1138 C1135 0.999 1_455 S
H1139 C1120 0.913 . S
C259 C179 2.338 . S
C274 C19 2.472 . S
C309 C210 2.472 . S
C324 C50 2.337 . S
C359 C99 2.472 . S
C374 C139 2.338 . S
C409 C10 2.337 . S
C424 C170 2.472 . S
C459 C219 2.337 . S
C474 C59 2.472 . S
C509 C90 2.337 . S
C524 C130 2.472 . S
C559 C7 1.904 . S
C574 C82 1.853 . S
C609 C47 1.904 . S
C624 C2 1.852 . S
C659 C87 1.904 . S
C674 C42 1.852 . S
C709 C136 1.904 . S
C724 C171 1.852 . S
C759 C176 1.904 . S
C774 C211 1.852 . S
C809 C131 1.852 . S
C824 C216 1.904 . S
C859 C16 1.033 . S
C874 C91 1.053 . S
C909 C56 1.032 . S
C924 C11 1.052 . S
C959 C96 1.033 . S
C974 C51 1.052 . S
C1009 C127 1.033 . S
C1024 C162 1.053 . S
C1059 C167 1.033 . S
C1074 C202 1.053 . S
C1109 C122 1.052 . S
C1124 C207 1.032 . S
