# Generated by pormake.
# Topology snp, (6)-cn, num edge types: 1
# Building blocks:
#     Node 0, Type 0, BuildingBlock: CIFDUS_clean_sbu_1, # of connection points: 6
#     Node 1, Type 0, BuildingBlock: CIFDUS_clean_sbu_1, # of connection points: 6
#     Node 2, Type 0, BuildingBlock: CIFDUS_clean_sbu_1, # of connection points: 6
#     Node 3, Type 0, BuildingBlock: CIFDUS_clean_sbu_1, # of connection points: 6
#     Edge 4, Type (0, 0), BuildingBlock: FUNLAD_clean_linker_1, # of connection points: 2
#     Edge 5, Type (0, 0), BuildingBlock: FUNLAD_clean_linker_1, # of connection points: 2
#     Edge 6, Type (0, 0), BuildingBlock: FUNLAD_clean_linker_1, # of connection points: 2
#     Edge 7, Type (0, 0), BuildingBlock: FUNLAD_clean_linker_1, # of connection points: 2
#     Edge 8, Type (0, 0), BuildingBlock: FUNLAD_clean_linker_1, # of connection points: 2
#     Edge 9, Type (0, 0), BuildingBlock: FUNLAD_clean_linker_1, # of connection points: 2
#     Edge 10, Type (0, 0), BuildingBlock: FUNLAD_clean_linker_1, # of connection points: 2
#     Edge 11, Type (0, 0), BuildingBlock: FUNLAD_clean_linker_1, # of connection points: 2
#     Edge 12, Type (0, 0), BuildingBlock: FUNLAD_clean_linker_1, # of connection points: 2
#     Edge 13, Type (0, 0), BuildingBlock: FUNLAD_clean_linker_1, # of connection points: 2
#     Edge 14, Type (0, 0), BuildingBlock: FUNLAD_clean_linker_1, # of connection points: 2
#     Edge 15, Type (0, 0), BuildingBlock: FUNLAD_clean_linker_1, # of connection points: 2
# Relax obj value: 0.542
# Max RMSD: 0.251
# Mean RMSD: 0.250
data_MOF--net-snp--node1-CIFDUS_clean_sbu_1--edge1-FUNLAD_clean_linker_1
_symmetry_space_group_name_H-M    P1
_symmetry_Int_Tables_number       1
_symmetry_cell_setting            triclinic
loop_
_symmetry_equiv_pos_as_xyz
'x, y, z'
_cell_length_a     28.839733
_cell_length_b     28.482601
_cell_length_c     24.930336
_cell_angle_alpha  98.546048
_cell_angle_beta   99.517614
_cell_angle_gamma 91.707924
loop_
_atom_site_label
_atom_site_type_symbol
_atom_site_fract_x
_atom_site_fract_y
_atom_site_fract_z
_atom_type_partial_charge
O0 O 0.16539 0.99299 0.11712 0.0
Mn1 Mn 0.23316 0.00775 0.11658 0.0
O2 O 0.12836 0.06113 0.11559 0.0
Mn3 Mn 0.18249 0.1002 0.11945 0.0
O4 O 0.30417 0.02265 0.11615 0.0
O5 O 0.24544 0.94922 0.15379 0.0
Mn6 Mn 0.28802 0.91714 0.12271 0.0
O7 O 0.22467 0.96568 0.03793 0.0
O8 O 0.34145 0.95752 0.13641 0.0
O9 O 0.23882 0.04727 0.19657 0.0
O10 O 0.21788 0.12072 0.18752 0.0
O11 O 0.27399 0.88351 0.17608 0.0
O12 O 0.26089 0.89801 0.04939 0.0
C13 C 0.20726 0.09709 0.04391 0.0
C14 C 0.12845 0.01603 0.11371 0.0
C15 C 0.34165 0.0005 0.12802 0.0
C16 C 0.24491 0.91632 0.1848 0.0
C17 C 0.23544 0.92336 0.01949 0.0
C18 C 0.23372 0.09053 0.21732 0.0
O19 O 0.21638 0.06551 0.07696 0.0
O20 O 0.18628 0.13369 0.06352 0.0
O21 O 0.04854 0.17641 0.63694 0.0
Mn22 Mn 0.02043 0.23589 0.61322 0.0
O23 O 0.02035 0.11753 0.5726 0.0
Mn24 Mn 0.96396 0.14745 0.57287 0.0
O25 O -0.00239 0.30163 0.59626 0.0
O26 O 0.06978 0.26681 0.67523 0.0
Mn27 Mn 0.1013 0.31472 0.65828 0.0
O28 O 0.0674 0.23599 0.55785 0.0
O29 O 0.05364 0.35612 0.64552 0.0
O30 O 0.97248 0.23317 0.66733 0.0
O31 O 0.94064 0.15897 0.63845 0.0
O32 O 0.13308 0.29963 0.72484 0.0
O33 O 0.12587 0.29096 0.59536 0.0
C34 C 0.93891 0.1815 0.50622 0.0
C35 C 0.05415 0.13768 0.60824 0.0
C36 C 0.01371 0.3448 0.61419 0.0
C37 C 0.10241 0.26425 0.71666 0.0
C38 C 0.10655 0.2582 0.55684 0.0
C39 C 0.94532 0.1979 0.6721 0.0
O40 O 0.97047 0.20258 0.54762 0.0
O41 O 0.922 0.13966 0.50981 0.0
O42 O 0.76365 0.96973 0.08587 0.0
Mn43 Mn 0.75207 0.00321 0.01535 0.0
O44 O 0.73275 0.89451 0.05958 0.0
Mn45 Mn 0.70537 0.90095 0.98835 0.0
O46 O 0.74219 0.03525 0.94215 0.0
O47 O 0.76085 0.06853 0.06521 0.0
Mn48 Mn 0.78647 0.10315 0.02206 0.0
O49 O 0.82109 0.0024 0.01445 0.0
O50 O 0.73617 0.11174 0.97066 0.0
O51 O 0.68024 0.00395 0.01579 0.0
O52 O 0.64888 0.93047 0.97939 0.0
O53 O 0.8092 0.13267 0.09072 0.0
O54 O 0.83383 0.0729 0.98939 0.0
C55 C 0.75177 0.90375 0.92939 0.0
C56 C 0.75625 0.92708 0.09536 0.0
C57 C 0.7342 0.07759 0.93138 0.0
C58 C 0.7907 0.09494 0.10412 0.0
C59 C 0.8452 0.03093 0.99431 0.0
C60 C 0.64496 0.97427 0.9968 0.0
O61 O 0.74547 0.93885 0.96652 0.0
O62 O 0.72628 0.86564 0.92959 0.0
O63 O 0.97385 0.83343 0.50751 0.0
Mn64 Mn 0.97642 0.76498 0.51368 0.0
O65 O 0.89937 0.84501 0.47338 0.0
Mn66 Mn 0.87395 0.78986 0.49254 0.0
O67 O 0.97955 0.69242 0.51676 0.0
O68 O 0.03841 0.76709 0.48389 0.0
Mn69 Mn 0.07958 0.73685 0.5252 0.0
O70 O 0.01236 0.78324 0.59611 0.0
O71 O 0.05524 0.675 0.51564 0.0
O72 O 0.94025 0.75013 0.43081 0.0
O73 O 0.86388 0.74083 0.43465 0.0
O74 O 0.11131 0.75701 0.47403 0.0
O75 O 0.08877 0.7699 0.59637 0.0
C76 C 0.88961 0.78888 0.57792 0.0
C77 C 0.94285 0.85764 0.48371 0.0
C78 C 0.01221 0.66279 0.51431 0.0
C79 C 0.07201 0.77512 0.45666 0.0
C80 C 0.05561 0.78563 0.6208 0.0
C81 C 0.89717 0.73898 0.407 0.0
O82 O 0.91385 0.766 0.54334 0.0
O83 O 0.84964 0.80272 0.55539 0.0
H84 H 0.89618 0.01869 0.93867 0.0
C85 C 0.88839 0.01471 0.97899 0.0
H86 H 0.90776 0.99059 0.05478 0.0
H87 H 0.06096 0.8542 0.03255 0.0
H88 H 0.00024 0.80486 0.06 0.0
H89 H 0.91931 0.83185 0.05744 0.0
H90 H 0.89847 0.90742 0.02834 0.0
C91 C 0.91708 0.99426 0.01493 0.0
C92 C 0.9599 0.9731 1.00141 0.0
C93 C 0.9687 0.92654 0.01314 0.0
C94 C 0.0143 0.9102 0.01335 0.0
C95 C 0.0256 0.8665 0.03089 0.0
C96 C -0.0086 0.83842 0.04663 0.0
C97 C 0.94584 0.85364 0.04526 0.0
C98 C 0.93433 0.89714 0.02861 0.0
H99 H 0.05236 0.00307 0.09244 0.0
C100 C 0.08593 0.98751 0.08893 0.0
H101 H 0.12284 0.9375 0.0408 0.0
H102 H 0.95994 0.06818 0.9838 0.0
H103 H 0.01905 0.10902 0.94738 0.0
H104 H 0.09131 0.0702 0.92914 0.0
H105 H 0.10557 0.99043 0.95267 0.0
C106 C 0.08928 0.95129 0.04798 0.0
C107 C 0.04946 0.94057 1.00291 0.0
C108 C 0.03739 0.97982 0.97624 0.0
C109 C -0.00581 1e-05 0.98198 0.0
C110 C -0.01079 0.04803 0.97369 0.0
C111 C 0.02372 0.07262 0.95406 0.0
C112 C 0.06458 0.05085 0.94415 0.0
C113 C 0.07205 0.00525 0.95653 0.0
H114 H 0.93707 0.93376 0.48099 0.0
C115 C 0.95918 0.90394 0.47425 0.0
H116 H 0.02752 0.8811 0.46798 0.0
H117 H 0.11267 0.09391 0.50458 0.0
H118 H 0.11769 0.07289 0.40692 0.0
H119 H 0.08394 -0.00462 0.35501 0.0
H120 H 0.04393 0.93957 0.39958 0.0
C121 C 0.00559 0.91085 0.4757 0.0
C122 C 0.03034 0.95416 0.50712 0.0
C123 C 0.05489 0.98451 0.48036 0.0
C124 C 0.07656 0.02756 0.51066 0.0
C125 C 0.09865 0.0594 0.48332 0.0
C126 C 0.10092 0.04797 0.4275 0.0
C127 C 0.08153 0.00451 0.39814 0.0
C128 C 0.05861 0.97291 0.42407 0.0
H129 H 0.12798 0.13953 0.64858 0.0
C130 C 0.09995 0.11713 0.62137 0.0
H131 H 0.14493 0.06165 0.61394 0.0
H132 H 0.00055 0.89756 0.57827 0.0
H133 H 0.98316 0.92529 0.66875 0.0
H134 H 0.00133 0.00942 0.71107 0.0
H135 H 0.04179 0.06328 0.66451 0.0
C136 C 0.10957 0.07312 0.60257 0.0
C137 C 0.07441 0.03875 0.56717 0.0
C138 C 0.04497 0.01131 0.59174 0.0
C139 C 0.02737 0.9663 0.5638 0.0
C140 C 0.008 0.93453 0.59404 0.0
C141 C -0.00107 0.94985 0.64679 0.0
C142 C 0.00962 -0.00311 0.67077 0.0
C143 C 0.0331 0.02731 0.64391 0.0
H144 H 0.56857 0.97021 0.96993 0.0
C145 C 0.59743 0.98966 0.9992 0.0
H146 H 0.61664 0.0382 0.07304 0.0
H147 H 0.41582 0.12204 0.0728 0.0
H148 H 0.46455 0.19279 0.0709 0.0
H149 H 0.54769 0.18674 0.05955 0.0
H150 H 0.58278 0.11011 0.05048 0.0
C151 C 0.5882 0.01943 0.0426 0.0
C152 C 0.53913 0.02379 0.05263 0.0
C153 C 0.51923 0.06881 0.05692 0.0
C154 C 0.47127 0.07234 0.06305 0.0
C155 C 0.45217 0.11762 0.06817 0.0
C156 C 0.47968 0.15838 0.06697 0.0
C157 C 0.5265 0.15496 0.06054 0.0
C158 C 0.54621 0.11077 0.05538 0.0
H159 H 0.41709 0.01535 0.15534 0.0
C160 C 0.38737 0.02227 0.12504 0.0
H161 H 0.36645 0.03792 0.04453 0.0
H162 H 0.56907 0.93372 0.06209 0.0
H163 H 0.51929 0.8628 0.05765 0.0
H164 H 0.4332 0.86724 0.05071 0.0
H165 H 0.3971 0.94314 0.05106 0.0
C166 C 0.39544 0.03441 0.07737 0.0
C167 C 0.4435 0.03086 0.06402 0.0
C168 C 0.46298 0.98563 0.05764 0.0
C169 C 0.51157 0.98245 0.05586 0.0
C170 C 0.53156 0.93771 0.05826 0.0
C171 C 0.50347 0.89672 0.0566 0.0
C172 C 0.4551 0.89926 0.05309 0.0
C173 C 0.43491 0.94312 0.05381 0.0
H174 H 0.95132 0.37498 0.5704 0.0
C175 C 0.98675 0.38325 0.59346 0.0
H176 H 0.04349 0.43512 0.61768 0.0
H177 H 0.97311 0.53955 0.4152 0.0
H178 H 0.01829 0.48037 0.36807 0.0
H179 H 0.04871 0.41297 0.41261 0.0
H180 H 0.03326 0.40354 0.50347 0.0
C181 C 0.00729 0.42672 0.59711 0.0
C182 C 0.98402 0.4631 0.56758 0.0
C183 C -0.00706 0.46723 0.51426 0.0
C184 C 0.97673 0.50658 0.48929 0.0
C185 C 0.98582 0.51048 0.43605 0.0
C186 C 0.01143 0.47682 0.40872 0.0
C187 C 0.02847 0.43881 0.43375 0.0
C188 C 0.01936 0.43382 0.48589 0.0
H189 H 0.03195 0.59057 0.52088 0.0
C190 C 0.00172 0.61219 0.51343 0.0
H191 H 0.92738 0.61282 0.50112 0.0
H192 H 0.95774 0.46274 0.66808 0.0
H193 H 0.91221 0.52176 0.71391 0.0
H194 H 0.88349 0.58984 0.6696 0.0
H195 H 0.90079 0.59965 0.57956 0.0
C196 C 0.95821 0.59198 0.50718 0.0
C197 C 0.95405 0.54268 0.51895 0.0
C198 C 0.94064 0.53577 0.56937 0.0
C199 C 0.95643 0.4962 0.59435 0.0
C200 C 0.94597 0.49192 0.64697 0.0
C201 C 0.91994 0.52554 0.67368 0.0
C202 C 0.90386 0.56393 0.64879 0.0
C203 C 0.91414 0.56927 0.59729 0.0
H204 H 0.1673 0.26101 0.51368 0.0
C205 C 0.13233 0.2444 0.51068 0.0
H206 H 0.08061 0.19434 0.46215 0.0
H207 H 0.17562 0.20238 0.24837 0.0
H208 H 0.11692 0.25972 0.23293 0.0
H209 H 0.07011 0.28814 0.30434 0.0
H210 H 0.08196 0.25894 0.39198 0.0
C211 C 0.11569 0.21111 0.46694 0.0
C212 C 0.14548 0.19531 0.42463 0.0
C213 C 0.13835 0.21251 0.37363 0.0
C214 C 0.16625 0.19675 0.33295 0.0
C215 C 0.15708 0.21396 0.28182 0.0
C216 C 0.12299 0.24674 0.27205 0.0
C217 C 0.09657 0.26267 0.31219 0.0
C218 C 0.10376 0.24564 0.3623 0.0
H219 H 0.21866 0.07415 0.29617 0.0
C220 C 0.2313 0.10246 0.27657 0.0
H221 H 0.24406 0.17566 0.27953 0.0
H222 H 0.1684 0.15578 0.51813 0.0
H223 H 0.22731 0.09854 0.53499 0.0
H224 H 0.27842 0.07397 0.46688 0.0
H225 H 0.26966 0.1052 0.38086 0.0
C226 C 0.23088 0.14829 0.30011 0.0
C227 C 0.20188 0.16397 0.34359 0.0
C228 C 0.20925 0.14728 0.39509 0.0
C229 C 0.18079 0.16268 0.43529 0.0
C230 C 0.18856 0.14496 0.48594 0.0
C231 C 0.2226 0.11239 0.49641 0.0
C232 C 0.25123 0.09846 0.458 0.0
C233 C 0.2453 0.11613 0.40828 0.0
H234 H 0.91645 0.23557 0.74344 0.0
C235 C 0.91732 0.20159 0.71733 0.0
H236 H 0.8928 0.12939 0.69827 0.0
H237 H 0.84469 0.15285 0.94637 0.0
H238 H 0.92752 0.17408 0.97947 0.0
H239 H 0.98042 0.19063 0.91548 0.0
H240 H 0.95089 0.18566 0.81804 0.0
C241 C 0.89239 0.16301 0.72523 0.0
C242 C 0.85984 0.16314 0.76585 0.0
C243 C 0.8776 0.16682 0.82291 0.0
C244 C 0.84694 0.15711 0.85977 0.0
C245 C 0.86603 0.16006 0.91644 0.0
C246 C 0.91363 0.17215 0.93606 0.0
C247 C 0.94343 0.18142 0.90004 0.0
C248 C 0.92591 0.17858 0.8441 0.0
H249 H 0.75205 0.06061 0.84768 0.0
C250 C 0.74819 0.0896 0.88002 0.0
H251 H 0.7656 0.16212 0.91256 0.0
H252 H 0.81366 0.15729 0.65991 0.0
H253 H 0.73066 0.13634 0.62654 0.0
H254 H 0.67771 0.11917 0.69028 0.0
H255 H 0.70735 0.12292 0.78769 0.0
C256 C 0.76693 0.13357 0.87879 0.0
C257 C 0.79858 0.14331 0.83945 0.0
C258 C 0.78064 0.14128 0.78272 0.0
C259 C 0.81124 0.15125 0.746 0.0
C260 C 0.79221 0.14928 0.6895 0.0
C261 C 0.74457 0.13761 0.66984 0.0
C262 C 0.71476 0.12797 0.70573 0.0
C263 C 0.73231 0.12999 0.76156 0.0
H264 H 0.85586 0.72292 0.32282 0.0
C265 C 0.88289 0.74695 0.34953 0.0
H266 H 0.91409 0.81661 0.36675 0.0
H267 H 0.83099 0.81695 0.10358 0.0
H268 H 0.88863 0.75913 0.08507 0.0
H269 H 0.93582 0.72553 0.16052 0.0
H270 H 0.92454 0.74821 0.25495 0.0
C271 C 0.89091 0.79072 0.33716 0.0
C272 C 0.86115 0.80944 0.29085 0.0
C273 C 0.86851 0.79647 0.23604 0.0
C274 C 0.84164 0.81656 0.19263 0.0
C275 C 0.84987 0.80261 0.13819 0.0
C276 C 0.88316 0.76973 0.12698 0.0
C277 C 0.90968 0.7507 0.16945 0.0
C278 C 0.90275 0.76393 0.22345 0.0
H279 H 0.80171 0.94015 0.17798 0.0
C280 C 0.77957 0.9135 0.14822 0.0
H281 H 0.75676 0.84095 0.12662 0.0
H282 H 0.83591 0.84003 0.39056 0.0
H283 H 0.77717 0.89637 0.40963 0.0
H284 H 0.73054 0.93103 0.33461 0.0
H285 H 0.74335 0.91063 0.24052 0.0
C286 C 0.77752 0.86791 0.15734 0.0
C287 C 0.80774 0.85024 0.2041 0.0
C288 C 0.80019 0.86308 0.25903 0.0
C289 C 0.8269 0.8427 0.30233 0.0
C290 C 0.8177 0.85532 0.35651 0.0
C291 C 0.78365 0.88723 0.36789 0.0
C292 C 0.75741 0.90675 0.32565 0.0
C293 C 0.76531 0.89486 0.27178 0.0
H294 H 0.04052 0.8241 0.70023 0.0
C295 C 0.06819 0.80896 0.6795 0.0
H296 H 0.14106 0.79938 0.68499 0.0
H297 H 0.23199 0.96136 0.87005 0.0
H298 H 0.25842 0.98423 0.78972 0.0
H299 H 0.22403 0.9442 0.69633 0.0
H300 H 0.16413 0.88 0.68269 0.0
C301 C 0.11336 0.81347 0.70642 0.0
C302 C 0.12923 0.84119 0.76308 0.0
C303 C 0.16222 0.88074 0.77032 0.0
C304 C 0.18087 0.90519 0.82415 0.0
C305 C 0.21611 0.9422 0.83013 0.0
C306 C 0.23165 0.95567 0.78436 0.0
C307 C 0.21225 0.93314 0.73179 0.0
C308 C 0.17789 0.89623 0.72458 0.0
H309 H 0.22862 0.86547 0.94886 0.0
C310 C 0.2167 0.90051 0.96211 0.0
H311 H 0.17262 0.95416 0.93826 0.0
H312 H 0.07739 0.76004 0.76667 0.0
H313 H 0.05692 0.73338 0.84818 0.0
H314 H 0.07976 0.78232 0.93969 0.0
H315 H 0.12731 0.85607 0.95105 0.0
C316 C 0.18409 0.91871 0.92709 0.0
C317 C 0.16513 0.8918 0.87087 0.0
C318 C 0.13296 0.85172 0.86396 0.0
C319 C 0.11647 0.8254 0.81038 0.0
C320 C 0.08917 0.78245 0.80585 0.0
C321 C 0.07737 0.76663 0.85239 0.0
C322 C 0.09039 0.79409 0.90396 0.0
C323 C 0.1177 0.8363 0.90991 0.0
H324 H 0.79928 0.93845 0.88275 0.0
C325 C 0.78488 0.90464 0.88968 0.0
H326 H 0.78127 0.82973 0.86896 0.0
H327 H 0.80857 0.85744 0.62392 0.0
H328 H 0.73083 0.88747 0.61665 0.0
H329 H 0.69292 0.90508 0.69847 0.0
H330 H 0.73282 0.89283 0.78804 0.0
C331 C 0.79459 0.86333 0.86009 0.0
C332 C 0.82072 0.85969 0.81262 0.0
C333 C 0.79748 0.8679 0.76043 0.0
C334 C 0.81958 0.8577 0.71314 0.0
C335 C 0.79441 0.86521 0.66149 0.0
C336 C 0.74939 0.88222 0.65656 0.0
C337 C 0.72804 0.89209 0.70258 0.0
C338 C 0.75152 0.88498 0.7539 0.0
H339 H 0.89953 0.76037 0.65672 0.0
C340 C 0.89887 0.79293 0.63889 0.0
H341 H 0.88881 0.86586 0.64765 0.0
H342 H 0.87392 0.83762 0.90548 0.0
H343 H 0.95007 0.80273 0.91238 0.0
H344 H 0.98782 0.78472 0.83059 0.0
H345 H 0.95132 0.80254 0.74188 0.0
C346 C 0.88957 0.83464 0.66815 0.0
C347 C 0.86525 0.83915 0.71763 0.0
C348 C 0.88779 0.82966 0.76966 0.0
C349 C 0.8655 0.83985 0.81698 0.0
C350 C 0.88894 0.83004 0.8683 0.0
C351 C 0.93269 0.81027 0.87289 0.0
C352 C 0.95417 0.80032 0.82688 0.0
C353 C 0.93254 0.81037 0.77598 0.0
H354 H 0.23696 0.9051 0.26725 0.0
C355 C 0.21726 0.91463 0.22971 0.0
H356 H 0.14962 0.91576 0.18337 0.0
H357 H 0.05348 0.76736 0.30341 0.0
H358 H 0.02951 0.73625 0.20658 0.0
H359 H 0.0581 0.77539 0.13555 0.0
H360 H 0.11024 0.84615 0.16056 0.0
C361 C 0.16975 0.91091 0.22278 0.0
C362 C 0.14512 0.89192 0.26516 0.0
C363 C 0.11329 0.85096 0.24968 0.0
C364 C 0.09693 0.82777 0.29087 0.0
C365 C 0.06673 0.78627 0.27408 0.0
C366 C 0.05272 0.768 0.21859 0.0
C367 C 0.06877 0.79012 0.17859 0.0
C368 C 0.09877 0.83092 0.19365 0.0
H369 H 0.0357 0.81809 0.39524 0.0
C370 C 0.06898 0.80415 0.41104 0.0
H371 H 0.14153 0.80041 0.40809 0.0
H372 H 0.19359 0.9765 0.30988 0.0
H373 H 0.21997 0.00537 0.40682 0.0
H374 H 0.19738 0.96173 0.47773 0.0
H375 H 0.14727 0.88917 0.45184 0.0
C376 C 0.1084 0.81366 0.3904 0.0
C377 C 0.11269 0.84483 0.3476 0.0
C378 C 0.14196 0.8873 0.36288 0.0
C379 C 0.15681 0.91155 0.32192 0.0
C380 C 0.18382 0.95511 0.33908 0.0
C381 C 0.19866 0.97247 0.39468 0.0
C382 C 0.18591 0.94788 0.43456 0.0
C383 C 0.15744 0.90609 0.41912 0.0
H384 H 0.14738 0.20546 0.73291 0.0
C385 C 0.1147 0.22069 0.74118 0.0
H386 H 0.06766 0.22854 0.79711 0.0
H387 H 0.19047 0.04704 0.87926 0.0
H388 H 0.14681 -0.00083 0.79713 0.0
H389 H 0.09949 0.03537 0.72693 0.0
H390 H 0.08757 0.1209 0.73966 0.0
C391 C 0.09748 0.20972 0.78508 0.0
C392 C 0.12711 0.18569 0.82784 0.0
C393 C 0.13234 0.13583 0.82052 0.0
C394 C 0.16111 0.11438 0.86201 0.0
C395 C 0.16716 0.06497 0.85152 0.0
C396 C 0.14343 0.03711 0.80388 0.0
C397 C 0.11561 0.05776 0.76418 0.0
C398 C 0.10976 0.10651 0.77197 0.0
H399 H 0.17259 0.06307 0.96402 0.0
C400 C 0.20239 0.08723 0.98321 0.0
H401 H 0.24657 0.14432 0.97753 0.0
H402 H 0.12883 0.28245 0.85384 0.0
H403 H 0.16576 0.33029 0.9392 0.0
H404 H 0.20759 0.29311 0.01504 0.0
H405 H 0.21392 0.20837 1.00549 0.0
C406 C 0.21572 0.12212 0.95658 0.0
C407 C 0.18348 0.14252 0.91217 0.0
C408 C 0.17682 0.19245 0.91988 0.0
C409 C 0.1501 0.2139 0.87731 0.0
C410 C 0.14722 0.26402 0.8852 0.0
C411 C 0.16836 0.2921 0.93407 0.0
C412 C 0.19209 0.27118 0.9766 0.0
C413 C 0.19603 0.22215 0.97007 0.0
H414 H 0.76298 0.09151 0.18112 0.0
C415 C 0.7949 0.09286 0.16349 0.0
H416 H 0.86794 0.10606 0.17521 0.0
H417 H 0.91135 0.26104 0.3799 0.0
H418 H 0.93548 0.29977 0.30793 0.0
H419 H 0.91718 0.26182 0.2108 0.0
H420 H 0.87456 0.18544 0.18497 0.0
C421 C 0.83737 0.10531 0.19552 0.0
C422 C 0.84453 0.12901 0.25444 0.0
C423 C 0.8692 0.17447 0.26917 0.0
C424 C 0.88023 0.19639 0.32543 0.0
C425 C 0.90368 0.24209 0.33825 0.0
C426 C 0.91727 0.265 0.29725 0.0
C427 C 0.90695 0.24365 0.24258 0.0
C428 C 0.88278 0.19932 0.22841 0.0
H429 H 0.95443 0.20066 0.42906 0.0
C430 C 0.92636 0.19891 0.45296 0.0
H431 H 0.85414 0.19263 0.45315 0.0
H432 H 0.7997 0.04084 0.24207 0.0
H433 H 0.77243 0.00407 0.31292 0.0
H434 H 0.78863 0.04274 0.40979 0.0
H435 H 0.83216 0.11825 0.43611 0.0
C436 C 0.88097 0.19339 0.42737 0.0
C437 C 0.86691 0.17297 0.36738 0.0
C438 C 0.84039 0.12843 0.35236 0.0
C439 C 0.82996 0.10621 0.29613 0.0
C440 C 0.8064 0.06056 0.28329 0.0
C441 C 0.79111 0.03851 0.32386 0.0
C442 C 0.80025 0.06032 0.37832 0.0
C443 C 0.82513 0.10424 0.39275 0.0
loop_
_geom_bond_atom_site_label_1
_geom_bond_atom_site_label_2
_geom_bond_distance
_geom_bond_site_symmetry_2
_ccdc_geom_bond_type
O0 Mn1 2.163 . S
O0 C14 1.244 . S
Mn1 O0 2.163 . S
Mn1 O4 2.160 . S
Mn1 O5 2.221 1_545 S
Mn1 O7 2.163 1_544 S
Mn1 O9 2.160 . S
Mn1 O19 2.221 . S
O2 Mn3 2.087 . S
O2 C14 1.256 . S
Mn3 O2 2.087 . S
Mn3 O10 2.089 . S
Mn3 O19 2.290 . S
Mn3 O20 2.251 1_554 S
O4 Mn1 2.160 . S
O4 C15 1.239 . S
O5 Mn1 2.221 1_565 S
O5 Mn6 2.290 . S
O5 C16 1.278 . S
Mn6 O5 2.290 . S
Mn6 O8 2.089 . S
Mn6 O11 2.251 . S
Mn6 O12 2.087 . S
O7 Mn1 2.163 1_566 S
O7 C17 1.244 . S
O8 Mn6 2.089 . S
O8 C15 1.256 1_565 S
O9 Mn1 2.160 . S
O9 C18 1.239 . S
O10 Mn3 2.089 . S
O10 C18 1.256 . S
O11 Mn6 2.251 . S
O11 C16 1.241 . S
O12 Mn6 2.087 . S
O12 C17 1.256 1_554 S
C13 O19 1.278 1_556 S
C13 O20 1.241 . S
C14 O0 1.244 . S
C14 O2 1.256 . S
C15 O4 1.239 . S
C15 O8 1.256 1_545 S
C16 O5 1.278 . S
C16 O11 1.241 . S
C17 O7 1.244 . S
C17 O12 1.256 1_556 S
C18 O9 1.239 . S
C18 O10 1.256 . S
O19 Mn1 2.221 . S
O19 Mn3 2.290 . S
O19 C13 1.278 1_554 S
O20 Mn3 2.251 1_556 S
O20 C13 1.241 . S
O21 Mn22 2.163 . S
O21 C35 1.244 . S
Mn22 O21 2.163 . S
Mn22 O25 2.160 . S
Mn22 O26 2.221 . S
Mn22 O28 2.163 . S
Mn22 O30 2.160 1_455 S
Mn22 O40 2.221 1_455 S
O23 Mn24 2.087 . S
O23 C35 1.256 1_655 S
Mn24 O23 2.087 . S
Mn24 O31 2.089 . S
Mn24 O40 2.290 . S
Mn24 O41 2.251 . S
O25 Mn22 2.160 . S
O25 C36 1.239 . S
O26 Mn22 2.221 . S
O26 Mn27 2.290 . S
O26 C37 1.278 . S
Mn27 O26 2.290 . S
Mn27 O29 2.089 . S
Mn27 O32 2.251 . S
Mn27 O33 2.087 . S
O28 Mn22 2.163 . S
O28 C38 1.244 . S
O29 Mn27 2.089 . S
O29 C36 1.256 . S
O30 Mn22 2.160 1_655 S
O30 C39 1.239 . S
O31 Mn24 2.089 . S
O31 C39 1.256 . S
O32 Mn27 2.251 . S
O32 C37 1.241 . S
O33 Mn27 2.087 . S
O33 C38 1.256 . S
C34 O40 1.278 . S
C34 O41 1.241 . S
C35 O21 1.244 . S
C35 O23 1.256 1_455 S
C36 O25 1.239 . S
C36 O29 1.256 . S
C37 O26 1.278 . S
C37 O32 1.241 . S
C38 O28 1.244 . S
C38 O33 1.256 . S
C39 O30 1.239 . S
C39 O31 1.256 . S
O40 Mn22 2.221 1_655 S
O40 Mn24 2.290 . S
O40 C34 1.278 . S
O41 Mn24 2.251 . S
O41 C34 1.241 . S
O42 Mn43 2.163 1_565 S
O42 C56 1.244 . S
Mn43 O42 2.163 1_545 S
Mn43 O46 2.160 1_554 S
Mn43 O47 2.221 . S
Mn43 O49 2.163 1_545 S
Mn43 O51 2.160 . S
Mn43 O61 2.221 1_544 S
O44 Mn45 2.087 1_554 S
O44 C56 1.256 . S
Mn45 O44 2.087 1_556 S
Mn45 O52 2.089 1_556 S
Mn45 O61 2.290 . S
Mn45 O62 2.251 . S
O46 Mn43 2.160 1_556 S
O46 C57 1.239 . S
O47 Mn43 2.221 . S
O47 Mn48 2.290 . S
O47 C58 1.278 . S
Mn48 O47 2.290 . S
Mn48 O50 2.089 1_554 S
Mn48 O53 2.251 . S
Mn48 O54 2.087 . S
O49 Mn43 2.163 1_565 S
O49 C59 1.244 1_565 S
O50 Mn48 2.089 1_556 S
O50 C57 1.256 . S
O51 Mn43 2.160 . S
O51 C60 1.239 1_545 S
O52 Mn45 2.089 1_554 S
O52 C60 1.256 . S
O53 Mn48 2.251 . S
O53 C58 1.241 . S
O54 Mn48 2.087 . S
O54 C59 1.256 . S
C55 O61 1.278 . S
C55 O62 1.241 . S
C56 O42 1.244 . S
C56 O44 1.256 . S
C57 O46 1.239 . S
C57 O50 1.256 . S
C58 O47 1.278 . S
C58 O53 1.241 . S
C59 O49 1.244 1_545 S
C59 O54 1.256 . S
C60 O51 1.239 1_565 S
C60 O52 1.256 . S
O61 Mn43 2.221 1_566 S
O61 Mn45 2.290 . S
O61 C55 1.278 . S
O62 Mn45 2.251 . S
O62 C55 1.241 . S
O63 Mn64 2.163 1_455 S
O63 C77 1.244 1_455 S
Mn64 O63 2.163 1_655 S
Mn64 O67 2.160 . S
Mn64 O68 2.221 1_655 S
Mn64 O70 2.163 1_655 S
Mn64 O72 2.160 . S
Mn64 O82 2.221 . S
O65 Mn66 2.087 . S
O65 C77 1.256 . S
Mn66 O65 2.087 . S
Mn66 O73 2.089 . S
Mn66 O82 2.290 . S
Mn66 O83 2.251 . S
O67 Mn64 2.160 . S
O67 C78 1.239 1_655 S
O68 Mn64 2.221 1_455 S
O68 Mn69 2.290 . S
O68 C79 1.278 . S
Mn69 O68 2.290 . S
Mn69 O71 2.089 . S
Mn69 O74 2.251 . S
Mn69 O75 2.087 . S
O70 Mn64 2.163 1_455 S
O70 C80 1.244 . S
O71 Mn69 2.089 . S
O71 C78 1.256 . S
O72 Mn64 2.160 . S
O72 C81 1.239 . S
O73 Mn66 2.089 . S
O73 C81 1.256 . S
O74 Mn69 2.251 . S
O74 C79 1.241 . S
O75 Mn69 2.087 . S
O75 C80 1.256 . S
C76 O82 1.278 . S
C76 O83 1.241 . S
C77 O63 1.244 1_655 S
C77 O65 1.256 . S
C78 O67 1.239 1_455 S
C78 O71 1.256 . S
C79 O68 1.278 . S
C79 O74 1.241 . S
C80 O70 1.244 . S
C80 O75 1.256 . S
C81 O72 1.239 . S
C81 O73 1.256 . S
O82 Mn64 2.221 . S
O82 Mn66 2.290 . S
O82 C76 1.278 . S
O83 Mn66 2.251 . S
O83 C76 1.241 . S
H84 C85 0.951 1_565 S
C85 H84 0.951 1_545 S
C85 C91 1.265 1_556 S
H86 C91 0.950 . S
H87 C95 0.949 . S
H88 C96 0.950 . S
H89 C97 0.951 . S
H90 C98 0.951 . S
C91 C85 1.265 1_554 S
C91 H86 0.950 . S
C91 C92 1.478 . S
C92 C91 1.478 . S
C92 C93 1.397 1_545 S
C92 C109 1.394 . S
C93 C92 1.397 1_565 S
C93 C94 1.438 1_655 S
C93 C98 1.429 . S
C94 C93 1.438 1_455 S
C94 C95 1.428 . S
C94 C107 1.394 1_565 S
C95 H87 0.949 . S
C95 C94 1.428 . S
C95 C96 1.345 . S
C96 H88 0.950 . S
C96 C95 1.345 . S
C96 C97 1.424 1_455 S
C97 H89 0.951 . S
C97 C96 1.424 1_655 S
C97 C98 1.347 . S
C98 H90 0.951 . S
C98 C93 1.429 . S
C98 C97 1.347 . S
H99 C100 0.951 . S
C100 H99 0.951 . S
C100 C106 1.265 . S
H101 C106 0.950 . S
H102 C110 0.949 . S
H103 C111 0.950 . S
H104 C112 0.951 . S
H105 C113 0.951 . S
C106 C100 1.265 . S
C106 H101 0.950 . S
C106 C107 1.478 . S
C107 C94 1.394 1_545 S
C107 C106 1.478 . S
C107 C108 1.397 . S
C108 C107 1.397 . S
C108 C109 1.438 1_455 S
C108 C113 1.429 . S
C109 C92 1.394 . S
C109 C108 1.438 1_655 S
C109 C110 1.428 1_554 S
C110 H102 0.949 . S
C110 C109 1.428 1_556 S
C110 C111 1.345 . S
C111 H103 0.950 . S
C111 C110 1.345 . S
C111 C112 1.424 1_655 S
C112 H104 0.951 . S
C112 C111 1.424 1_455 S
C112 C113 1.347 1_556 S
C113 H105 0.951 . S
C113 C108 1.429 . S
C113 C112 1.347 1_554 S
H114 C115 0.951 . S
C115 H114 0.951 . S
C115 C121 1.265 1_655 S
H116 C121 0.950 . S
H117 C125 0.949 . S
H118 C126 0.950 . S
H119 C127 0.950 . S
H120 C128 0.951 . S
C121 C115 1.265 1_455 S
C121 H116 0.950 . S
C121 C122 1.478 . S
C122 C121 1.478 . S
C122 C123 1.397 . S
C122 C139 1.394 1_455 S
C123 C122 1.397 . S
C123 C124 1.438 1_565 S
C123 C128 1.429 . S
C124 C123 1.438 1_545 S
C124 C125 1.428 . S
C124 C137 1.391 1_455 S
C125 H117 0.949 . S
C125 C124 1.428 . S
C125 C126 1.345 . S
C126 H118 0.950 . S
C126 C125 1.345 . S
C126 C127 1.424 . S
C127 H119 0.950 . S
C127 C126 1.424 . S
C127 C128 1.347 1_545 S
C128 H120 0.951 . S
C128 C123 1.429 . S
C128 C127 1.347 1_565 S
H129 C130 0.951 . S
C130 H129 0.951 . S
C130 C136 1.265 1_455 S
H131 C136 0.950 . S
H132 C140 0.949 . S
H133 C141 0.950 . S
H134 C142 0.951 . S
H135 C143 0.951 . S
C136 C130 1.265 1_655 S
C136 H131 0.950 . S
C136 C137 1.479 . S
C137 C124 1.391 1_655 S
C137 C136 1.479 . S
C137 C138 1.399 . S
C138 C137 1.399 . S
C138 C139 1.438 1_545 S
C138 C143 1.429 . S
C139 C122 1.394 1_655 S
C139 C138 1.438 1_565 S
C139 C140 1.428 . S
C140 H132 0.949 . S
C140 C139 1.428 . S
C140 C141 1.345 . S
C141 H133 0.950 . S
C141 C140 1.345 . S
C141 C142 1.424 1_565 S
C142 H134 0.951 . S
C142 C141 1.424 1_545 S
C142 C143 1.347 . S
C143 H135 0.951 . S
C143 C138 1.429 . S
C143 C142 1.347 . S
H144 C145 0.951 1_556 S
C145 H144 0.951 1_554 S
C145 C151 1.265 1_565 S
H146 C151 0.950 . S
H147 C155 0.949 . S
H148 C156 0.950 . S
H149 C157 0.951 . S
H150 C158 0.951 . S
C151 C145 1.265 1_545 S
C151 H146 0.950 . S
C151 C152 1.478 . S
C152 C151 1.478 . S
C152 C153 1.397 . S
C152 C169 1.394 1_545 S
C153 C152 1.397 . S
C153 C154 1.438 . S
C153 C158 1.429 . S
C154 C153 1.438 . S
C154 C155 1.428 . S
C154 C167 1.394 . S
C155 H147 0.949 . S
C155 C154 1.428 . S
C155 C156 1.345 . S
C156 H148 0.950 . S
C156 C155 1.345 . S
C156 C157 1.424 . S
C157 H149 0.951 . S
C157 C156 1.424 . S
C157 C158 1.347 . S
C158 H150 0.951 . S
C158 C153 1.429 . S
C158 C157 1.347 . S
H159 C160 0.951 . S
C160 H159 0.951 . S
C160 C166 1.265 . S
H161 C166 0.950 1_565 S
H162 C170 0.949 . S
H163 C171 0.950 . S
H164 C172 0.951 . S
H165 C173 0.951 . S
C166 C160 1.265 . S
C166 H161 0.950 1_545 S
C166 C167 1.478 . S
C167 C154 1.394 . S
C167 C166 1.478 . S
C167 C168 1.397 1_545 S
C168 C167 1.397 1_565 S
C168 C169 1.438 . S
C168 C173 1.429 . S
C169 C152 1.394 1_565 S
C169 C168 1.438 . S
C169 C170 1.428 . S
C170 H162 0.949 . S
C170 C169 1.428 . S
C170 C171 1.345 . S
C171 H163 0.950 . S
C171 C170 1.345 . S
C171 C172 1.424 . S
C172 H164 0.951 . S
C172 C171 1.424 . S
C172 C173 1.347 . S
C173 H165 0.951 . S
C173 C168 1.429 . S
C173 C172 1.347 . S
H174 C175 0.951 1_655 S
C175 H174 0.951 1_455 S
C175 C181 1.265 . S
H176 C181 0.950 . S
H177 C185 0.949 . S
H178 C186 0.950 . S
H179 C187 0.951 . S
H180 C188 0.951 . S
C181 C175 1.265 . S
C181 H176 0.950 . S
C181 C182 1.478 . S
C182 C181 1.478 . S
C182 C183 1.397 . S
C182 C199 1.394 1_455 S
C183 C182 1.397 . S
C183 C184 1.438 . S
C183 C188 1.429 . S
C184 C183 1.438 . S
C184 C185 1.428 . S
C184 C197 1.394 1_455 S
C185 H177 0.949 . S
C185 C184 1.428 . S
C185 C186 1.345 . S
C186 H178 0.950 . S
C186 C185 1.345 . S
C186 C187 1.424 . S
C187 H179 0.951 . S
C187 C186 1.424 . S
C187 C188 1.347 . S
C188 H180 0.951 . S
C188 C183 1.429 . S
C188 C187 1.347 . S
H189 C190 0.951 . S
C190 H189 0.951 . S
C190 C196 1.265 1_455 S
H191 C196 0.950 . S
H192 C200 0.949 . S
H193 C201 0.950 . S
H194 C202 0.951 . S
H195 C203 0.951 . S
C196 C190 1.265 1_655 S
C196 H191 0.950 . S
C196 C197 1.478 . S
C197 C184 1.394 1_655 S
C197 C196 1.478 . S
C197 C198 1.397 . S
C198 C197 1.397 . S
C198 C199 1.438 . S
C198 C203 1.429 . S
C199 C182 1.394 1_655 S
C199 C198 1.438 . S
C199 C200 1.428 . S
C200 H192 0.949 . S
C200 C199 1.428 . S
C200 C201 1.345 . S
C201 H193 0.950 . S
C201 C200 1.345 . S
C201 C202 1.424 . S
C202 H194 0.951 . S
C202 C201 1.424 . S
C202 C203 1.347 . S
C203 H195 0.951 . S
C203 C198 1.429 . S
C203 C202 1.347 . S
H204 C205 0.951 . S
C205 H204 0.951 . S
C205 C211 1.265 . S
H206 C211 0.950 . S
H207 C215 0.949 . S
H208 C216 0.950 . S
H209 C217 0.951 . S
H210 C218 0.951 . S
C211 C205 1.265 . S
C211 H206 0.950 . S
C211 C212 1.478 . S
C212 C211 1.478 . S
C212 C213 1.397 . S
C212 C229 1.394 . S
C213 C212 1.397 . S
C213 C214 1.438 . S
C213 C218 1.429 . S
C214 C213 1.438 . S
C214 C215 1.428 . S
C214 C227 1.394 . S
C215 H207 0.949 . S
C215 C214 1.428 . S
C215 C216 1.345 . S
C216 H208 0.950 . S
C216 C215 1.345 . S
C216 C217 1.424 . S
C217 H209 0.951 . S
C217 C216 1.424 . S
C217 C218 1.347 . S
C218 H210 0.951 . S
C218 C213 1.429 . S
C218 C217 1.347 . S
H219 C220 0.951 . S
C220 H219 0.951 . S
C220 C226 1.265 . S
H221 C226 0.950 . S
H222 C230 0.949 . S
H223 C231 0.950 . S
H224 C232 0.951 . S
H225 C233 0.951 . S
C226 C220 1.265 . S
C226 H221 0.950 . S
C226 C227 1.478 . S
C227 C214 1.394 . S
C227 C226 1.478 . S
C227 C228 1.397 . S
C228 C227 1.397 . S
C228 C229 1.438 . S
C228 C233 1.429 . S
C229 C212 1.394 . S
C229 C228 1.438 . S
C229 C230 1.428 . S
C230 H222 0.949 . S
C230 C229 1.428 . S
C230 C231 1.345 . S
C231 H223 0.950 . S
C231 C230 1.345 . S
C231 C232 1.424 . S
C232 H224 0.951 . S
C232 C231 1.424 . S
C232 C233 1.347 . S
C233 H225 0.951 . S
C233 C228 1.429 . S
C233 C232 1.347 . S
H234 C235 0.951 . S
C235 H234 0.951 . S
C235 C241 1.265 . S
H236 C241 0.950 . S
H237 C245 0.949 . S
H238 C246 0.950 . S
H239 C247 0.951 1_455 S
H240 C248 0.951 . S
C241 C235 1.265 . S
C241 H236 0.950 . S
C241 C242 1.478 . S
C242 C241 1.478 . S
C242 C243 1.397 . S
C242 C259 1.394 . S
C243 C242 1.397 . S
C243 C244 1.438 . S
C243 C248 1.429 . S
C244 C243 1.438 . S
C244 C245 1.428 . S
C244 C257 1.394 . S
C245 H237 0.949 . S
C245 C244 1.428 . S
C245 C246 1.345 . S
C246 H238 0.950 . S
C246 C245 1.345 . S
C246 C247 1.424 . S
C247 H239 0.951 1_655 S
C247 C246 1.424 . S
C247 C248 1.347 . S
C248 H240 0.951 . S
C248 C243 1.429 . S
C248 C247 1.347 . S
H249 C250 0.951 . S
C250 H249 0.951 . S
C250 C256 1.265 . S
H251 C256 0.950 . S
H252 C260 0.949 . S
H253 C261 0.950 . S
H254 C262 0.951 . S
H255 C263 0.951 . S
C256 C250 1.265 . S
C256 H251 0.950 . S
C256 C257 1.478 . S
C257 C244 1.394 . S
C257 C256 1.478 . S
C257 C258 1.397 . S
C258 C257 1.397 . S
C258 C259 1.438 . S
C258 C263 1.429 . S
C259 C242 1.394 . S
C259 C258 1.438 . S
C259 C260 1.428 . S
C260 H252 0.949 . S
C260 C259 1.428 . S
C260 C261 1.345 . S
C261 H253 0.950 . S
C261 C260 1.345 . S
C261 C262 1.424 . S
C262 H254 0.951 . S
C262 C261 1.424 . S
C262 C263 1.347 . S
C263 H255 0.951 . S
C263 C258 1.429 . S
C263 C262 1.347 . S
H264 C265 0.951 . S
C265 H264 0.951 . S
C265 C271 1.265 . S
H266 C271 0.950 . S
H267 C275 0.949 . S
H268 C276 0.950 . S
H269 C277 0.951 . S
H270 C278 0.951 . S
C271 C265 1.265 . S
C271 H266 0.950 . S
C271 C272 1.478 . S
C272 C271 1.478 . S
C272 C273 1.397 . S
C272 C289 1.394 . S
C273 C272 1.397 . S
C273 C274 1.438 . S
C273 C278 1.429 . S
C274 C273 1.438 . S
C274 C275 1.428 . S
C274 C287 1.394 . S
C275 H267 0.949 . S
C275 C274 1.428 . S
C275 C276 1.345 . S
C276 H268 0.950 . S
C276 C275 1.345 . S
C276 C277 1.424 . S
C277 H269 0.951 . S
C277 C276 1.424 . S
C277 C278 1.347 . S
C278 H270 0.951 . S
C278 C273 1.429 . S
C278 C277 1.347 . S
H279 C280 0.951 . S
C280 H279 0.951 . S
C280 C286 1.265 . S
H281 C286 0.950 . S
H282 C290 0.949 . S
H283 C291 0.950 . S
H284 C292 0.951 . S
H285 C293 0.951 . S
C286 C280 1.265 . S
C286 H281 0.950 . S
C286 C287 1.478 . S
C287 C274 1.394 . S
C287 C286 1.478 . S
C287 C288 1.397 . S
C288 C287 1.397 . S
C288 C289 1.438 . S
C288 C293 1.429 . S
C289 C272 1.394 . S
C289 C288 1.438 . S
C289 C290 1.428 . S
C290 H282 0.949 . S
C290 C289 1.428 . S
C290 C291 1.345 . S
C291 H283 0.950 . S
C291 C290 1.345 . S
C291 C292 1.424 . S
C292 H284 0.951 . S
C292 C291 1.424 . S
C292 C293 1.347 . S
C293 H285 0.951 . S
C293 C288 1.429 . S
C293 C292 1.347 . S
H294 C295 0.951 . S
C295 H294 0.951 . S
C295 C301 1.265 . S
H296 C301 0.950 . S
H297 C305 0.949 . S
H298 C306 0.950 . S
H299 C307 0.951 . S
H300 C308 0.951 . S
C301 C295 1.265 . S
C301 H296 0.950 . S
C301 C302 1.478 . S
C302 C301 1.478 . S
C302 C303 1.397 . S
C302 C319 1.394 . S
C303 C302 1.397 . S
C303 C304 1.438 . S
C303 C308 1.429 . S
C304 C303 1.438 . S
C304 C305 1.428 . S
C304 C317 1.394 . S
C305 H297 0.949 . S
C305 C304 1.428 . S
C305 C306 1.345 . S
C306 H298 0.950 . S
C306 C305 1.345 . S
C306 C307 1.424 . S
C307 H299 0.951 . S
C307 C306 1.424 . S
C307 C308 1.347 . S
C308 H300 0.951 . S
C308 C303 1.429 . S
C308 C307 1.347 . S
H309 C310 0.951 . S
C310 H309 0.951 . S
C310 C316 1.265 . S
H311 C316 0.950 . S
H312 C320 0.949 . S
H313 C321 0.950 . S
H314 C322 0.951 . S
H315 C323 0.951 . S
C316 C310 1.265 . S
C316 H311 0.950 . S
C316 C317 1.478 . S
C317 C304 1.394 . S
C317 C316 1.478 . S
C317 C318 1.397 . S
C318 C317 1.397 . S
C318 C319 1.438 . S
C318 C323 1.429 . S
C319 C302 1.394 . S
C319 C318 1.438 . S
C319 C320 1.428 . S
C320 H312 0.949 . S
C320 C319 1.428 . S
C320 C321 1.345 . S
C321 H313 0.950 . S
C321 C320 1.345 . S
C321 C322 1.424 . S
C322 H314 0.951 . S
C322 C321 1.424 . S
C322 C323 1.347 . S
C323 H315 0.951 . S
C323 C318 1.429 . S
C323 C322 1.347 . S
H324 C325 0.951 . S
C325 H324 0.951 . S
C325 C331 1.265 . S
H326 C331 0.950 . S
H327 C335 0.949 . S
H328 C336 0.950 . S
H329 C337 0.951 . S
H330 C338 0.951 . S
C331 C325 1.265 . S
C331 H326 0.950 . S
C331 C332 1.478 . S
C332 C331 1.478 . S
C332 C333 1.397 . S
C332 C349 1.394 . S
C333 C332 1.397 . S
C333 C334 1.438 . S
C333 C338 1.429 . S
C334 C333 1.438 . S
C334 C335 1.428 . S
C334 C347 1.394 . S
C335 H327 0.949 . S
C335 C334 1.428 . S
C335 C336 1.345 . S
C336 H328 0.950 . S
C336 C335 1.345 . S
C336 C337 1.424 . S
C337 H329 0.951 . S
C337 C336 1.424 . S
C337 C338 1.347 . S
C338 H330 0.951 . S
C338 C333 1.429 . S
C338 C337 1.347 . S
H339 C340 0.951 . S
C340 H339 0.951 . S
C340 C346 1.265 . S
H341 C346 0.950 . S
H342 C350 0.949 . S
H343 C351 0.950 . S
H344 C352 0.951 . S
H345 C353 0.951 . S
C346 C340 1.265 . S
C346 H341 0.950 . S
C346 C347 1.478 . S
C347 C334 1.394 . S
C347 C346 1.478 . S
C347 C348 1.397 . S
C348 C347 1.397 . S
C348 C349 1.438 . S
C348 C353 1.429 . S
C349 C332 1.394 . S
C349 C348 1.438 . S
C349 C350 1.428 . S
C350 H342 0.949 . S
C350 C349 1.428 . S
C350 C351 1.345 . S
C351 H343 0.950 . S
C351 C350 1.345 . S
C351 C352 1.424 . S
C352 H344 0.951 . S
C352 C351 1.424 . S
C352 C353 1.347 . S
C353 H345 0.951 . S
C353 C348 1.429 . S
C353 C352 1.347 . S
H354 C355 0.951 . S
C355 H354 0.951 . S
C355 C361 1.265 . S
H356 C361 0.950 . S
H357 C365 0.949 . S
H358 C366 0.950 . S
H359 C367 0.951 . S
H360 C368 0.951 . S
C361 C355 1.265 . S
C361 H356 0.950 . S
C361 C362 1.478 . S
C362 C361 1.478 . S
C362 C363 1.397 . S
C362 C379 1.394 . S
C363 C362 1.397 . S
C363 C364 1.438 . S
C363 C368 1.429 . S
C364 C363 1.438 . S
C364 C365 1.428 . S
C364 C377 1.394 . S
C365 H357 0.949 . S
C365 C364 1.428 . S
C365 C366 1.345 . S
C366 H358 0.950 . S
C366 C365 1.345 . S
C366 C367 1.424 . S
C367 H359 0.951 . S
C367 C366 1.424 . S
C367 C368 1.347 . S
C368 H360 0.951 . S
C368 C363 1.429 . S
C368 C367 1.347 . S
H369 C370 0.951 . S
C370 H369 0.951 . S
C370 C376 1.265 . S
H371 C376 0.950 . S
H372 C380 0.949 . S
H373 C381 0.950 . S
H374 C382 0.951 . S
H375 C383 0.951 . S
C376 C370 1.265 . S
C376 H371 0.950 . S
C376 C377 1.478 . S
C377 C364 1.394 . S
C377 C376 1.478 . S
C377 C378 1.397 . S
C378 C377 1.397 . S
C378 C379 1.438 . S
C378 C383 1.429 . S
C379 C362 1.394 . S
C379 C378 1.438 . S
C379 C380 1.428 . S
C380 H372 0.949 . S
C380 C379 1.428 . S
C380 C381 1.345 . S
C381 H373 0.950 . S
C381 C380 1.345 . S
C381 C382 1.424 . S
C382 H374 0.951 . S
C382 C381 1.424 . S
C382 C383 1.347 . S
C383 H375 0.951 . S
C383 C378 1.429 . S
C383 C382 1.347 . S
H384 C385 0.951 . S
C385 H384 0.951 . S
C385 C391 1.265 . S
H386 C391 0.950 . S
H387 C395 0.949 . S
H388 C396 0.950 1_565 S
H389 C397 0.951 . S
H390 C398 0.951 . S
C391 C385 1.265 . S
C391 H386 0.950 . S
C391 C392 1.478 . S
C392 C391 1.478 . S
C392 C393 1.397 . S
C392 C409 1.394 . S
C393 C392 1.397 . S
C393 C394 1.438 . S
C393 C398 1.429 . S
C394 C393 1.438 . S
C394 C395 1.428 . S
C394 C407 1.394 . S
C395 H387 0.949 . S
C395 C394 1.428 . S
C395 C396 1.345 . S
C396 H388 0.950 1_545 S
C396 C395 1.345 . S
C396 C397 1.424 . S
C397 H389 0.951 . S
C397 C396 1.424 . S
C397 C398 1.347 . S
C398 H390 0.951 . S
C398 C393 1.429 . S
C398 C397 1.347 . S
H399 C400 0.951 . S
C400 H399 0.951 . S
C400 C406 1.265 . S
H401 C406 0.950 . S
H402 C410 0.949 . S
H403 C411 0.950 . S
H404 C412 0.951 . S
H405 C413 0.951 . S
C406 C400 1.265 . S
C406 H401 0.950 . S
C406 C407 1.478 . S
C407 C394 1.394 . S
C407 C406 1.478 . S
C407 C408 1.397 . S
C408 C407 1.397 . S
C408 C409 1.438 . S
C408 C413 1.429 . S
C409 C392 1.394 . S
C409 C408 1.438 . S
C409 C410 1.428 . S
C410 H402 0.949 . S
C410 C409 1.428 . S
C410 C411 1.345 . S
C411 H403 0.950 . S
C411 C410 1.345 . S
C411 C412 1.424 . S
C412 H404 0.951 . S
C412 C411 1.424 . S
C412 C413 1.347 . S
C413 H405 0.951 . S
C413 C408 1.429 . S
C413 C412 1.347 . S
H414 C415 0.951 . S
C415 H414 0.951 . S
C415 C421 1.265 . S
H416 C421 0.950 . S
H417 C425 0.949 . S
H418 C426 0.950 . S
H419 C427 0.951 . S
H420 C428 0.951 . S
C421 C415 1.265 . S
C421 H416 0.950 . S
C421 C422 1.478 . S
C422 C421 1.478 . S
C422 C423 1.397 . S
C422 C439 1.394 . S
C423 C422 1.397 . S
C423 C424 1.438 . S
C423 C428 1.429 . S
C424 C423 1.438 . S
C424 C425 1.428 . S
C424 C437 1.394 . S
C425 H417 0.949 . S
C425 C424 1.428 . S
C425 C426 1.345 . S
C426 H418 0.950 . S
C426 C425 1.345 . S
C426 C427 1.424 . S
C427 H419 0.951 . S
C427 C426 1.424 . S
C427 C428 1.347 . S
C428 H420 0.951 . S
C428 C423 1.429 . S
C428 C427 1.347 . S
H429 C430 0.951 . S
C430 H429 0.951 . S
C430 C436 1.265 . S
H431 C436 0.950 . S
H432 C440 0.949 . S
H433 C441 0.950 . S
H434 C442 0.951 . S
H435 C443 0.951 . S
C436 C430 1.265 . S
C436 H431 0.950 . S
C436 C437 1.478 . S
C437 C424 1.394 . S
C437 C436 1.478 . S
C437 C438 1.397 . S
C438 C437 1.397 . S
C438 C439 1.438 . S
C438 C443 1.429 . S
C439 C422 1.394 . S
C439 C438 1.438 . S
C439 C440 1.428 . S
C440 H432 0.949 . S
C440 C439 1.428 . S
C440 C441 1.345 . S
C441 H433 0.950 . S
C441 C440 1.345 . S
C441 C442 1.424 . S
C442 H434 0.951 . S
C442 C441 1.424 . S
C442 C443 1.347 . S
C443 H435 0.951 . S
C443 C438 1.429 . S
C443 C442 1.347 . S
C85 C59 0.873 1_556 S
C100 C14 0.805 . S
C115 C77 0.676 . S
C130 C35 0.868 . S
C145 C60 0.858 . S
C160 C15 0.915 . S
C175 C36 0.940 . S
C190 C78 0.792 . S
C205 C38 1.353 . S
C220 C18 1.235 . S
C235 C39 1.528 . S
C250 C57 1.458 . S
C265 C81 1.315 . S
C280 C56 1.356 . S
C295 C80 1.246 . S
C310 C17 1.259 . S
C325 C55 1.447 . S
C340 C76 1.223 . S
C355 C16 1.760 . S
C370 C79 1.828 . S
C385 C37 1.353 . S
C400 C13 1.137 . S
C415 C58 1.033 . S
C430 C34 0.970 . S
