# Generated by pormake.
# Topology fci, (5)-cn, num edge types: 1
# Building blocks:
#     Node 0, Type 0, BuildingBlock: BEQFEK_clean_sbu_0, # of connection points: 5
#     Node 1, Type 0, BuildingBlock: BEQFEK_clean_sbu_0, # of connection points: 5
#     Node 2, Type 0, BuildingBlock: BEQFEK_clean_sbu_0, # of connection points: 5
#     Node 3, Type 0, BuildingBlock: BEQFEK_clean_sbu_0, # of connection points: 5
#     Node 4, Type 0, BuildingBlock: BEQFEK_clean_sbu_0, # of connection points: 5
#     Node 5, Type 0, BuildingBlock: BEQFEK_clean_sbu_0, # of connection points: 5
#     Node 6, Type 0, BuildingBlock: BEQFEK_clean_sbu_0, # of connection points: 5
#     Node 7, Type 0, BuildingBlock: BEQFEK_clean_sbu_0, # of connection points: 5
#     Node 8, Type 0, BuildingBlock: BEQFEK_clean_sbu_0, # of connection points: 5
#     Node 9, Type 0, BuildingBlock: BEQFEK_clean_sbu_0, # of connection points: 5
#     Node 10, Type 0, BuildingBlock: BEQFEK_clean_sbu_0, # of connection points: 5
#     Node 11, Type 0, BuildingBlock: BEQFEK_clean_sbu_0, # of connection points: 5
#     Node 12, Type 0, BuildingBlock: BEQFEK_clean_sbu_0, # of connection points: 5
#     Node 13, Type 0, BuildingBlock: BEQFEK_clean_sbu_0, # of connection points: 5
#     Node 14, Type 0, BuildingBlock: BEQFEK_clean_sbu_0, # of connection points: 5
#     Node 15, Type 0, BuildingBlock: BEQFEK_clean_sbu_0, # of connection points: 5
#     Node 16, Type 0, BuildingBlock: BEQFEK_clean_sbu_0, # of connection points: 5
#     Node 17, Type 0, BuildingBlock: BEQFEK_clean_sbu_0, # of connection points: 5
#     Node 18, Type 0, BuildingBlock: BEQFEK_clean_sbu_0, # of connection points: 5
#     Node 19, Type 0, BuildingBlock: BEQFEK_clean_sbu_0, # of connection points: 5
#     Node 20, Type 0, BuildingBlock: BEQFEK_clean_sbu_0, # of connection points: 5
#     Node 21, Type 0, BuildingBlock: BEQFEK_clean_sbu_0, # of connection points: 5
#     Node 22, Type 0, BuildingBlock: BEQFEK_clean_sbu_0, # of connection points: 5
#     Node 23, Type 0, BuildingBlock: BEQFEK_clean_sbu_0, # of connection points: 5
#     Edge 24, Type (0, 0), BuildingBlock: TEMPAE_clean_linker_10, # of connection points: 2
#     Edge 25, Type (0, 0), BuildingBlock: TEMPAE_clean_linker_10, # of connection points: 2
#     Edge 26, Type (0, 0), BuildingBlock: TEMPAE_clean_linker_10, # of connection points: 2
#     Edge 27, Type (0, 0), BuildingBlock: TEMPAE_clean_linker_10, # of connection points: 2
#     Edge 28, Type (0, 0), BuildingBlock: TEMPAE_clean_linker_10, # of connection points: 2
#     Edge 29, Type (0, 0), BuildingBlock: TEMPAE_clean_linker_10, # of connection points: 2
#     Edge 30, Type (0, 0), BuildingBlock: TEMPAE_clean_linker_10, # of connection points: 2
#     Edge 31, Type (0, 0), BuildingBlock: TEMPAE_clean_linker_10, # of connection points: 2
#     Edge 32, Type (0, 0), BuildingBlock: TEMPAE_clean_linker_10, # of connection points: 2
#     Edge 33, Type (0, 0), BuildingBlock: TEMPAE_clean_linker_10, # of connection points: 2
#     Edge 34, Type (0, 0), BuildingBlock: TEMPAE_clean_linker_10, # of connection points: 2
#     Edge 35, Type (0, 0), BuildingBlock: TEMPAE_clean_linker_10, # of connection points: 2
#     Edge 36, Type (0, 0), BuildingBlock: TEMPAE_clean_linker_10, # of connection points: 2
#     Edge 37, Type (0, 0), BuildingBlock: TEMPAE_clean_linker_10, # of connection points: 2
#     Edge 38, Type (0, 0), BuildingBlock: TEMPAE_clean_linker_10, # of connection points: 2
#     Edge 39, Type (0, 0), BuildingBlock: TEMPAE_clean_linker_10, # of connection points: 2
#     Edge 40, Type (0, 0), BuildingBlock: TEMPAE_clean_linker_10, # of connection points: 2
#     Edge 41, Type (0, 0), BuildingBlock: TEMPAE_clean_linker_10, # of connection points: 2
#     Edge 42, Type (0, 0), BuildingBlock: TEMPAE_clean_linker_10, # of connection points: 2
#     Edge 43, Type (0, 0), BuildingBlock: TEMPAE_clean_linker_10, # of connection points: 2
#     Edge 44, Type (0, 0), BuildingBlock: TEMPAE_clean_linker_10, # of connection points: 2
#     Edge 45, Type (0, 0), BuildingBlock: TEMPAE_clean_linker_10, # of connection points: 2
#     Edge 46, Type (0, 0), BuildingBlock: TEMPAE_clean_linker_10, # of connection points: 2
#     Edge 47, Type (0, 0), BuildingBlock: TEMPAE_clean_linker_10, # of connection points: 2
#     Edge 48, Type (0, 0), BuildingBlock: TEMPAE_clean_linker_10, # of connection points: 2
#     Edge 49, Type (0, 0), BuildingBlock: TEMPAE_clean_linker_10, # of connection points: 2
#     Edge 50, Type (0, 0), BuildingBlock: TEMPAE_clean_linker_10, # of connection points: 2
#     Edge 51, Type (0, 0), BuildingBlock: TEMPAE_clean_linker_10, # of connection points: 2
#     Edge 52, Type (0, 0), BuildingBlock: TEMPAE_clean_linker_10, # of connection points: 2
#     Edge 53, Type (0, 0), BuildingBlock: TEMPAE_clean_linker_10, # of connection points: 2
#     Edge 54, Type (0, 0), BuildingBlock: TEMPAE_clean_linker_10, # of connection points: 2
#     Edge 55, Type (0, 0), BuildingBlock: TEMPAE_clean_linker_10, # of connection points: 2
#     Edge 56, Type (0, 0), BuildingBlock: TEMPAE_clean_linker_10, # of connection points: 2
#     Edge 57, Type (0, 0), BuildingBlock: TEMPAE_clean_linker_10, # of connection points: 2
#     Edge 58, Type (0, 0), BuildingBlock: TEMPAE_clean_linker_10, # of connection points: 2
#     Edge 59, Type (0, 0), BuildingBlock: TEMPAE_clean_linker_10, # of connection points: 2
#     Edge 60, Type (0, 0), BuildingBlock: TEMPAE_clean_linker_10, # of connection points: 2
#     Edge 61, Type (0, 0), BuildingBlock: TEMPAE_clean_linker_10, # of connection points: 2
#     Edge 62, Type (0, 0), BuildingBlock: TEMPAE_clean_linker_10, # of connection points: 2
#     Edge 63, Type (0, 0), BuildingBlock: TEMPAE_clean_linker_10, # of connection points: 2
#     Edge 64, Type (0, 0), BuildingBlock: TEMPAE_clean_linker_10, # of connection points: 2
#     Edge 65, Type (0, 0), BuildingBlock: TEMPAE_clean_linker_10, # of connection points: 2
#     Edge 66, Type (0, 0), BuildingBlock: TEMPAE_clean_linker_10, # of connection points: 2
#     Edge 67, Type (0, 0), BuildingBlock: TEMPAE_clean_linker_10, # of connection points: 2
#     Edge 68, Type (0, 0), BuildingBlock: TEMPAE_clean_linker_10, # of connection points: 2
#     Edge 69, Type (0, 0), BuildingBlock: TEMPAE_clean_linker_10, # of connection points: 2
#     Edge 70, Type (0, 0), BuildingBlock: TEMPAE_clean_linker_10, # of connection points: 2
#     Edge 71, Type (0, 0), BuildingBlock: TEMPAE_clean_linker_10, # of connection points: 2
#     Edge 72, Type (0, 0), BuildingBlock: TEMPAE_clean_linker_10, # of connection points: 2
#     Edge 73, Type (0, 0), BuildingBlock: TEMPAE_clean_linker_10, # of connection points: 2
#     Edge 74, Type (0, 0), BuildingBlock: TEMPAE_clean_linker_10, # of connection points: 2
#     Edge 75, Type (0, 0), BuildingBlock: TEMPAE_clean_linker_10, # of connection points: 2
#     Edge 76, Type (0, 0), BuildingBlock: TEMPAE_clean_linker_10, # of connection points: 2
#     Edge 77, Type (0, 0), BuildingBlock: TEMPAE_clean_linker_10, # of connection points: 2
#     Edge 78, Type (0, 0), BuildingBlock: TEMPAE_clean_linker_10, # of connection points: 2
#     Edge 79, Type (0, 0), BuildingBlock: TEMPAE_clean_linker_10, # of connection points: 2
#     Edge 80, Type (0, 0), BuildingBlock: TEMPAE_clean_linker_10, # of connection points: 2
#     Edge 81, Type (0, 0), BuildingBlock: TEMPAE_clean_linker_10, # of connection points: 2
#     Edge 82, Type (0, 0), BuildingBlock: TEMPAE_clean_linker_10, # of connection points: 2
#     Edge 83, Type (0, 0), BuildingBlock: TEMPAE_clean_linker_10, # of connection points: 2
# Relax obj value: 0.884
# Max RMSD: 0.352
# Mean RMSD: 0.317
data_MOF--net-fci--node1-BEQFEK_clean_sbu_0--edge1-TEMPAE_clean_linker_10
_symmetry_space_group_name_H-M    P1
_symmetry_Int_Tables_number       1
_symmetry_cell_setting            triclinic
loop_
_symmetry_equiv_pos_as_xyz
'x, y, z'
_cell_length_a     54.540204
_cell_length_b     54.556409
_cell_length_c     54.544842
_cell_angle_alpha  89.196543
_cell_angle_beta   89.216603
_cell_angle_gamma 89.211547
loop_
_atom_site_label
_atom_site_type_symbol
_atom_site_fract_x
_atom_site_fract_y
_atom_site_fract_z
_atom_type_partial_charge
Co0 Co 0.2016 0.16766 0.59954 0.0
Co1 Co 0.2347 0.14406 0.55849 0.0
C2 C 0.21226 0.11417 0.59964 0.0
O3 O 0.20329 0.1334 0.60918 0.0
O4 O 0.22419 0.11505 0.57942 0.0
C5 C 0.16815 0.17385 0.63939 0.0
O6 O 0.16159 0.15181 0.63292 0.0
C7 C 0.28324 0.1269 0.54507 0.0
C8 C 0.28363 0.13058 0.50479 0.0
C9 C 0.2989 0.12631 0.52468 0.0
N10 N 0.26042 0.13229 0.53754 0.0
N11 N 0.26054 0.13354 0.51337 0.0
C12 C 0.29002 0.12561 0.57161 0.0
H13 H 0.2739 0.12964 0.58357 0.0
H14 H 0.30489 0.13859 0.57553 0.0
H15 H 0.29681 0.10684 0.57609 0.0
C16 C 0.24414 0.19918 0.60468 0.0
N17 N 0.23334 0.17968 0.5949 0.0
N18 N 0.24688 0.17136 0.57658 0.0
C19 C 0.26623 0.18643 0.57334 0.0
C20 C 0.26536 0.20399 0.59147 0.0
C21 C 0.23295 0.2144 0.62464 0.0
H22 H 0.21601 0.2235 0.61777 0.0
H23 H 0.22773 0.20237 0.64037 0.0
H24 H 0.24575 0.22859 0.63091 0.0
O25 O 0.18269 0.17207 0.56879 0.0
O26 O 0.20654 0.15668 0.53901 0.0
H27 H 0.28813 0.20599 0.54652 0.0
H28 H 0.29997 0.17655 0.55529 0.0
C29 C 0.28286 0.18691 0.55126 0.0
H30 H 0.27379 0.1788 0.53531 0.0
H31 H 0.24533 0.13848 0.5029 0.0
O32 O 0.1846 0.18486 0.62688 0.0
C33 C 0.18682 0.16741 0.54621 0.0
Co34 Co 0.53029 0.42936 0.29007 0.0
Co35 Co 0.53963 0.47947 0.26235 0.0
C36 C 0.57582 0.45781 0.29789 0.0
O37 O 0.56187 0.43976 0.30172 0.0
O38 O 0.56979 0.47492 0.28301 0.0
C39 C 0.53083 0.39616 0.33066 0.0
O40 O 0.54814 0.41092 0.33757 0.0
C41 C 0.54134 0.53143 0.26767 0.0
C42 C 0.53434 0.5465 0.23065 0.0
C43 C 0.53697 0.55328 0.25496 0.0
N44 N 0.5409 0.51286 0.25179 0.0
N45 N 0.53737 0.52196 0.22954 0.0
C46 C 0.54222 0.52754 0.29494 0.0
H47 H 0.53953 0.50802 0.29996 0.0
H48 H 0.52795 0.53879 0.30435 0.0
H49 H 0.56044 0.53305 0.30159 0.0
C50 C 0.48503 0.4552 0.30536 0.0
N51 N 0.50672 0.45456 0.2933 0.0
N52 N 0.50945 0.47499 0.28049 0.0
C53 C 0.48885 0.48886 0.28324 0.0
C54 C 0.47301 0.47692 0.29937 0.0
C55 C 0.47556 0.43479 0.3213 0.0
H56 H 0.47479 0.41778 0.31044 0.0
H57 H 0.48839 0.4314 0.33662 0.0
H58 H 0.457 0.43902 0.32883 0.0
O59 O 0.53443 0.42079 0.25524 0.0
O60 O 0.54057 0.45584 0.23445 0.0
H61 H 0.49264 0.51279 0.25181 0.0
H62 H 0.46387 0.51603 0.26811 0.0
C63 C 0.48383 0.51271 0.27021 0.0
H64 H 0.49104 0.52795 0.28109 0.0
H65 H 0.53537 0.51135 0.21394 0.0
O66 O 0.52035 0.40021 0.31026 0.0
C67 C 0.53839 0.43252 0.23519 0.0
Co68 Co 0.28281 0.8351 0.11223 0.0
Co69 Co 0.25383 0.85687 0.06763 0.0
C70 C 0.27297 0.88851 0.10776 0.0
O71 O 0.28131 0.8698 0.11908 0.0
O72 O 0.26246 0.88666 0.08717 0.0
C73 C 0.31987 0.82501 0.14677 0.0
O74 O 0.33183 0.84067 0.13272 0.0
C75 C 0.20587 0.87088 0.05065 0.0
C76 C 0.2093 0.86666 0.01064 0.0
C77 C 0.19198 0.86969 0.0294 0.0
N78 N 0.22962 0.86736 0.04468 0.0
N79 N 0.23173 0.86586 0.02063 0.0
C80 C 0.19691 0.87218 0.07673 0.0
H81 H 0.21245 0.87094 0.08961 0.0
H82 H 0.1838 0.85731 0.08096 0.0
H83 H 0.18732 0.88999 0.0796 0.0
C84 C 0.24013 0.80377 0.11701 0.0
N85 N 0.25142 0.82329 0.107 0.0
N86 N 0.24022 0.83017 0.08677 0.0
C87 C 0.22214 0.81406 0.08257 0.0
C88 C 0.22109 0.79743 0.10199 0.0
C89 C 0.24979 0.78927 0.13836 0.0
H90 H 0.26695 0.77961 0.13271 0.0
H91 H 0.25424 0.80185 0.15343 0.0
H92 H 0.23634 0.77556 0.14508 0.0
O93 O 0.30338 0.82818 0.08278 0.0
O94 O 0.28364 0.84381 0.05054 0.0
H95 H 0.22015 0.8198 0.04345 0.0
H96 H 0.20654 0.79176 0.05457 0.0
C97 C 0.20936 0.81139 0.05863 0.0
H98 H 0.19097 0.82023 0.05972 0.0
H99 H 0.24812 0.86199 0.0113 0.0
O100 O 0.29818 0.81923 0.14112 0.0
C101 C 0.30189 0.83218 0.05973 0.0
Co102 Co 0.97074 0.56742 0.79481 0.0
Co103 Co 0.95911 0.51789 0.76917 0.0
C104 C 0.9263 0.53948 0.80866 0.0
O105 O 0.9407 0.55726 0.81135 0.0
O106 O 0.93085 0.52309 0.79279 0.0
C107 C 0.96712 0.6109 0.82257 0.0
O108 O 0.94372 0.60843 0.81797 0.0
C109 C 0.95678 0.46583 0.77578 0.0
C110 C 0.96088 0.45112 0.73846 0.0
C111 C 0.95983 0.44408 0.76306 0.0
N112 N 0.95645 0.48459 0.75959 0.0
N113 N 0.95825 0.47572 0.73722 0.0
C114 C 0.95782 0.46935 0.80298 0.0
H115 H 0.9614 0.48872 0.80738 0.0
H116 H 0.97232 0.45755 0.81123 0.0
H117 H 0.93993 0.46428 0.81139 0.0
C118 C 0.01653 0.54091 0.80644 0.0
N119 N 0.99432 0.5421 0.79602 0.0
N120 N 0.99051 0.5218 0.78399 0.0
C121 C 0.0109 0.50748 0.78547 0.0
C122 C 0.02778 0.51899 0.80003 0.0
C123 C 0.02689 0.56073 0.82173 0.0
H124 H 0.02849 0.57773 0.81045 0.0
H125 H 0.01414 0.56468 0.83725 0.0
H126 H 0.04523 0.55559 0.82889 0.0
O127 O 0.96358 0.57643 0.76036 0.0
O128 O 0.95657 0.5415 0.74088 0.0
H129 H 0.00453 0.48328 0.75551 0.0
H130 H 0.03435 0.47986 0.76902 0.0
C131 C 0.01464 0.48344 0.77296 0.0
H132 H 0.00808 0.46842 0.78514 0.0
H133 H 0.95934 0.48649 0.7213 0.0
O134 O 0.98252 0.59603 0.81303 0.0
C135 C 0.95854 0.56483 0.74094 0.0
Co136 Co 0.70147 0.34602 0.3798 0.0
Co137 Co 0.73243 0.36719 0.42231 0.0
C138 C 0.71014 0.39924 0.38263 0.0
O139 O 0.70175 0.38071 0.37199 0.0
O140 O 0.72163 0.39715 0.40275 0.0
C141 C 0.6635 0.33752 0.34657 0.0
O142 O 0.65279 0.35472 0.35968 0.0
C143 C 0.78107 0.38139 0.43519 0.0
C144 C 0.78113 0.37627 0.47529 0.0
C145 C 0.79681 0.37953 0.45515 0.0
N146 N 0.75796 0.37775 0.44315 0.0
N147 N 0.75793 0.37577 0.46727 0.0
C148 C 0.78759 0.38362 0.40845 0.0
H149 H 0.80043 0.36877 0.40277 0.0
H150 H 0.79667 0.40143 0.40493 0.0
H151 H 0.77093 0.38305 0.39705 0.0
C152 C 0.74524 0.31558 0.3722 0.0
N153 N 0.73346 0.33419 0.38336 0.0
N154 N 0.74564 0.34069 0.40282 0.0
C155 C 0.76494 0.32504 0.40554 0.0
C156 C 0.76566 0.30926 0.38581 0.0
C157 C 0.73512 0.30205 0.35098 0.0
H158 H 0.71824 0.29244 0.35704 0.0
H159 H 0.72998 0.31532 0.33626 0.0
H160 H 0.74839 0.28835 0.34361 0.0
O161 O 0.68289 0.33902 0.41056 0.0
O162 O 0.70421 0.35363 0.44154 0.0
H163 H 0.77111 0.33129 0.44391 0.0
H164 H 0.78457 0.30345 0.4326 0.0
C165 C 0.78049 0.32288 0.42795 0.0
H166 H 0.79837 0.33173 0.42442 0.0
H167 H 0.74247 0.37168 0.47797 0.0
O168 O 0.68488 0.33011 0.35234 0.0
C169 C 0.68564 0.34238 0.43346 0.0
Co170 Co 0.44957 0.92308 0.20245 0.0
Co171 Co 0.43877 0.97457 0.22558 0.0
C172 C 0.40565 0.95131 0.18806 0.0
O173 O 0.41993 0.93291 0.1859 0.0
O174 O 0.4103 0.96841 0.20296 0.0
C175 C 0.4484 0.87739 0.17706 0.0
O176 O 0.42449 0.88033 0.1788 0.0
C177 C 0.43978 0.02645 0.21532 0.0
C178 C 0.44787 0.04254 0.25111 0.0
C179 C 0.44686 0.0481 0.2262 0.0
N180 N 0.43793 0.00885 0.23273 0.0
N181 N 0.44202 0.01875 0.25423 0.0
C182 C 0.43581 0.02192 0.18865 0.0
H183 H 0.45188 0.01187 0.1809 0.0
H184 H 0.43288 0.03934 0.1783 0.0
H185 H 0.41949 0.01037 0.18638 0.0
C186 C 0.49505 0.94727 0.18696 0.0
N187 N 0.47311 0.9474 0.19853 0.0
N188 N 0.47003 0.96803 0.21035 0.0
C189 C 0.49086 0.98103 0.20808 0.0
C190 C 0.50722 0.96857 0.19279 0.0
C191 C 0.50316 0.92789 0.16932 0.0
H192 H 0.48714 0.92085 0.15944 0.0
H193 H 0.51655 0.9351 0.15563 0.0
H194 H 0.51179 0.91244 0.17963 0.0
O195 O 0.44217 0.9172 0.23754 0.0
O196 O 0.43579 0.95327 0.25557 0.0
H197 H 0.51645 0.00436 0.22605 0.0
H198 H 0.49074 0.01989 0.2125 0.0
C199 C 0.49647 0.00319 0.22275 0.0
H200 H 0.48664 0.00247 0.24064 0.0
H201 H 0.44283 0.00886 0.27072 0.0
O202 O 0.46219 0.89271 0.18723 0.0
C203 C 0.43728 0.92987 0.25652 0.0
Co204 Co 0.79761 0.65247 0.88661 0.0
Co205 Co 0.76327 0.63125 0.92811 0.0
C206 C 0.78892 0.59893 0.89144 0.0
O207 O 0.7981 0.61755 0.88084 0.0
O208 O 0.77551 0.60088 0.91064 0.0
C209 C 0.83647 0.6596 0.85212 0.0
O210 O 0.84688 0.64196 0.86507 0.0
C211 C 0.71497 0.61408 0.94242 0.0
C212 C 0.7119 0.6263 0.98064 0.0
C213 C 0.69792 0.61766 0.96149 0.0
N214 N 0.73702 0.62174 0.94965 0.0
N215 N 0.73531 0.62808 0.97286 0.0
C216 C 0.71089 0.60413 0.91737 0.0
H217 H 0.70758 0.61941 0.90415 0.0
H218 H 0.69513 0.59148 0.91752 0.0
H219 H 0.72755 0.5941 0.91097 0.0
C220 C 0.75476 0.68289 0.87597 0.0
N221 N 0.76537 0.66408 0.88814 0.0
N222 N 0.75104 0.65683 0.90638 0.0
C223 C 0.73107 0.67186 0.90693 0.0
C224 C 0.73263 0.68841 0.8874 0.0
C225 C 0.76738 0.69738 0.8561 0.0
H226 H 0.78442 0.70521 0.86343 0.0
H227 H 0.77266 0.68501 0.84089 0.0
H228 H 0.7557 0.71256 0.8489 0.0
O229 O 0.8141 0.66041 0.91741 0.0
O230 O 0.79039 0.64551 0.94748 0.0
H231 H 0.72047 0.66777 0.94482 0.0
H232 H 0.7024 0.69007 0.92815 0.0
C233 C 0.712 0.67212 0.92693 0.0
H234 H 0.69798 0.65839 0.92292 0.0
H235 H 0.74954 0.63572 0.98266 0.0
O236 O 0.81542 0.66762 0.85864 0.0
C237 C 0.80946 0.657 0.94018 0.0
Co238 Co 0.03061 0.07347 0.69095 0.0
Co239 Co 0.04263 0.02276 0.71643 0.0
C240 C 0.07601 0.04583 0.67805 0.0
O241 O 0.06121 0.06374 0.67524 0.0
O242 O 0.07154 0.02884 0.69368 0.0
C243 C 0.03396 0.11877 0.6648 0.0
O244 O 0.05738 0.11603 0.66963 0.0
C245 C 0.04499 0.97043 0.70988 0.0
C246 C 0.03474 0.95552 0.74631 0.0
C247 C 0.03802 0.94894 0.72195 0.0
N248 N 0.04452 0.98885 0.726 0.0
N249 N 0.03923 0.97969 0.74796 0.0
C250 C 0.05101 0.97397 0.6832 0.0
H251 H 0.06768 0.9852 0.68109 0.0
H252 H 0.03573 0.984 0.6741 0.0
H253 H 0.05454 0.95622 0.67404 0.0
C254 C 0.98522 0.0487 0.67876 0.0
N255 N 0.00766 0.04866 0.68867 0.0
N256 N 0.01147 0.02796 0.70079 0.0
C257 C 0.99079 0.01462 0.69987 0.0
C258 C 0.97379 0.02718 0.68562 0.0
C259 C 0.97447 0.06971 0.66441 0.0
H260 H 0.97265 0.08589 0.67643 0.0
H261 H 0.98706 0.07461 0.64901 0.0
H262 H 0.95617 0.06532 0.65714 0.0
O263 O 0.03598 0.08055 0.7257 0.0
O264 O 0.04423 0.04525 0.74515 0.0
H265 H 0.99502 0.99143 0.73159 0.0
H266 H 0.96694 0.98683 0.71537 0.0
C267 C 0.98671 0.99088 0.71322 0.0
H268 H 0.99525 0.97587 0.70258 0.0
H269 H 0.03664 0.99023 0.76363 0.0
O270 O 0.01887 0.10318 0.67333 0.0
C271 C 0.04099 0.06852 0.74527 0.0
Co272 Co 0.60576 0.19895 0.15652 0.0
Co273 Co 0.5633 0.2324 0.13622 0.0
C274 C 0.60223 0.21145 0.10326 0.0
O275 O 0.6123 0.20122 0.12158 0.0
O276 O 0.5825 0.22395 0.10556 0.0
C277 C 0.6557 0.18779 0.16235 0.0
O278 O 0.65745 0.20684 0.14746 0.0
C279 C 0.54721 0.28133 0.12259 0.0
C280 C 0.50712 0.27961 0.12772 0.0
C281 C 0.52609 0.29606 0.12368 0.0
N282 N 0.54092 0.25794 0.12697 0.0
N283 N 0.51685 0.25685 0.1291 0.0
C284 C 0.57339 0.28915 0.12005 0.0
H285 H 0.5861 0.27328 0.12241 0.0
H286 H 0.5777 0.30336 0.1336 0.0
H287 H 0.57644 0.29708 0.10144 0.0
C288 C 0.61234 0.24039 0.18945 0.0
N289 N 0.6019 0.23029 0.16987 0.0
N290 N 0.58297 0.24386 0.16297 0.0
C291 C 0.58025 0.26259 0.17889 0.0
C292 C 0.59919 0.2613 0.19554 0.0
C293 C 0.63286 0.22882 0.20368 0.0
H294 H 0.62856 0.2094 0.20794 0.0
H295 H 0.64988 0.22926 0.19236 0.0
H296 H 0.6362 0.23859 0.221 0.0
O297 O 0.57554 0.18015 0.16353 0.0
O298 O 0.54504 0.20313 0.14848 0.0
H299 H 0.54165 0.26955 0.17357 0.0
H300 H 0.55379 0.28216 0.20117 0.0
C301 C 0.55775 0.27847 0.18153 0.0
H302 H 0.56082 0.29644 0.17238 0.0
H303 H 0.50727 0.24091 0.13346 0.0
O304 O 0.63463 0.18105 0.16982 0.0
C305 C 0.55276 0.18377 0.15952 0.0
Co306 Co 0.57005 0.79193 0.97204 0.0
Co307 Co 0.51996 0.76688 0.96085 0.0
C308 C 0.54266 0.80521 0.92715 0.0
O309 O 0.56053 0.80776 0.94147 0.0
O310 O 0.52583 0.78989 0.93208 0.0
C311 C 0.61489 0.81726 0.9677 0.0
O312 O 0.61296 0.81103 0.94464 0.0
C313 C 0.46763 0.77436 0.95838 0.0
C314 C 0.4526 0.73852 0.96942 0.0
C315 C 0.446 0.76294 0.96552 0.0
N316 N 0.48614 0.75786 0.95928 0.0
N317 N 0.47693 0.73623 0.96506 0.0
C318 C 0.47112 0.80084 0.95172 0.0
H319 H 0.48151 0.8099 0.96634 0.0
H320 H 0.45339 0.81053 0.94873 0.0
H321 H 0.48198 0.80225 0.93449 0.0
C322 C 0.54402 0.80499 0.01755 0.0
N323 N 0.5448 0.79447 0.99539 0.0
N324 N 0.5244 0.78249 0.99191 0.0
C325 C 0.51045 0.78411 0.01253 0.0
C326 C 0.52228 0.79867 0.02917 0.0
C327 C 0.56428 0.81986 0.02771 0.0
H328 H 0.58091 0.80808 0.02965 0.0
H329 H 0.56881 0.83498 0.01467 0.0
H330 H 0.55926 0.82754 0.04585 0.0
O331 O 0.57801 0.75715 0.9665 0.0
O332 O 0.54317 0.73794 0.95883 0.0
H333 H 0.48192 0.76982 0.03653 0.0
H334 H 0.47184 0.78235 0.00794 0.0
C335 C 0.48658 0.77148 0.01675 0.0
H336 H 0.48742 0.75293 0.00883 0.0
H337 H 0.48748 0.72039 0.96804 0.0
O338 O 0.5991 0.80958 0.98324 0.0
C339 C 0.56645 0.73768 0.96161 0.0
Co340 Co 0.88635 0.79377 0.65468 0.0
Co341 Co 0.93055 0.76269 0.63346 0.0
C342 C 0.89241 0.78507 0.60094 0.0
O343 O 0.88162 0.79382 0.6196 0.0
O344 O 0.91222 0.77263 0.60283 0.0
C345 C 0.83826 0.8155 0.6569 0.0
O346 O 0.83825 0.80993 0.63359 0.0
C347 C 0.94757 0.71434 0.62043 0.0
C348 C 0.98749 0.7165 0.62539 0.0
C349 C 0.96877 0.69979 0.62215 0.0
N350 N 0.95353 0.73783 0.62391 0.0
N351 N 0.97754 0.73919 0.62586 0.0
C352 C 0.92151 0.70631 0.61831 0.0
H353 H 0.9087 0.72225 0.61911 0.0
H354 H 0.91668 0.69298 0.63306 0.0
H355 H 0.91915 0.69728 0.60041 0.0
C356 C 0.87958 0.75032 0.68555 0.0
N357 N 0.89041 0.76165 0.66634 0.0
N358 N 0.91042 0.74948 0.65984 0.0
C359 C 0.91369 0.73069 0.67604 0.0
C360 C 0.89383 0.73024 0.69219 0.0
C361 C 0.85812 0.76069 0.69953 0.0
H362 H 0.86381 0.77756 0.70894 0.0
H363 H 0.84332 0.76582 0.6866 0.0
H364 H 0.851 0.74741 0.7134 0.0
O365 O 0.91615 0.8125 0.66264 0.0
O366 O 0.94775 0.79152 0.64669 0.0
H367 H 0.95285 0.72662 0.67118 0.0
H368 H 0.94077 0.71331 0.69917 0.0
C369 C 0.9372 0.71656 0.67939 0.0
H370 H 0.9358 0.69833 0.67088 0.0
H371 H 0.98685 0.75524 0.62973 0.0
O372 O 0.85688 0.80998 0.66979 0.0
C373 C 0.93914 0.80984 0.65852 0.0
Co374 Co 0.92875 0.20562 0.4549 0.0
Co375 Co 0.97852 0.23156 0.44273 0.0
C376 C 0.95946 0.19131 0.41151 0.0
O377 O 0.94082 0.18952 0.42548 0.0
O378 O 0.97582 0.20706 0.41562 0.0
C379 C 0.90569 0.16265 0.4666 0.0
O380 O 0.92821 0.15544 0.46133 0.0
C381 C 0.03089 0.22649 0.44201 0.0
C382 C 0.04433 0.26432 0.44428 0.0
C383 C 0.05213 0.23994 0.44489 0.0
N384 N 0.0117 0.2421 0.44033 0.0
N385 N 0.01985 0.26475 0.44102 0.0
C386 C 0.02799 0.19923 0.44435 0.0
H387 H 0.00859 0.19441 0.44783 0.0
H388 H 0.03931 0.19158 0.45944 0.0
H389 H 0.03405 0.19057 0.42696 0.0
C390 C 0.95298 0.1972 0.50278 0.0
N391 N 0.95284 0.20586 0.4795 0.0
N392 N 0.97345 0.21751 0.47495 0.0
C393 C 0.98695 0.21715 0.4956 0.0
C394 C 0.9746 0.20388 0.51357 0.0
C395 C 0.93238 0.18386 0.51521 0.0
H396 H 0.91451 0.19175 0.50943 0.0
H397 H 0.93334 0.16424 0.51018 0.0
H398 H 0.93369 0.18496 0.53547 0.0
O399 O 0.91894 0.23965 0.44644 0.0
O400 O 0.95401 0.25916 0.43839 0.0
H401 H 0.0111 0.24716 0.48781 0.0
H402 H 0.01355 0.23456 0.51832 0.0
C403 C 0.01075 0.22999 0.49883 0.0
H404 H 0.02613 0.21779 0.49315 0.0
H405 H 0.0086 0.28038 0.44091 0.0
O406 O 0.90044 0.18543 0.46553 0.0
C407 C 0.93059 0.25903 0.44043 0.0
Co408 Co 0.11295 0.30219 0.84854 0.0
Co409 Co 0.07355 0.26265 0.86208 0.0
C410 C 0.10727 0.28213 0.89946 0.0
O411 O 0.11735 0.29549 0.88316 0.0
O412 O 0.08925 0.26855 0.89464 0.0
C413 C 0.16195 0.31678 0.84524 0.0
O414 O 0.1647 0.29601 0.85744 0.0
C415 C 0.06043 0.21204 0.87251 0.0
C416 C 0.02294 0.21054 0.85808 0.0
C417 C 0.04198 0.19572 0.86673 0.0
N418 N 0.053 0.23486 0.86632 0.0
N419 N 0.03023 0.23398 0.85855 0.0
C420 C 0.08502 0.20642 0.88329 0.0
H421 H 0.08962 0.22066 0.89671 0.0
H422 H 0.09933 0.20687 0.86866 0.0
H423 H 0.08521 0.18822 0.89266 0.0
C424 C 0.12602 0.26651 0.81029 0.0
N425 N 0.11356 0.27278 0.83081 0.0
N426 N 0.09668 0.2563 0.83574 0.0
C427 C 0.09749 0.23937 0.81783 0.0
C428 C 0.11638 0.24508 0.80153 0.0
C429 C 0.14441 0.28245 0.79741 0.0
H430 H 0.13786 0.30178 0.79731 0.0
H431 H 0.16198 0.28133 0.80737 0.0
H432 H 0.14781 0.27661 0.77824 0.0
O433 O 0.08142 0.31951 0.84281 0.0
O434 O 0.05313 0.29151 0.85166 0.0
H435 H 0.06032 0.22698 0.81835 0.0
H436 H 0.07973 0.212 0.79593 0.0
C437 C 0.07902 0.21966 0.81464 0.0
H438 H 0.08297 0.20444 0.82764 0.0
H439 H 0.02038 0.24909 0.85179 0.0
O440 O 0.14059 0.32358 0.83877 0.0
C441 C 0.05907 0.313 0.84438 0.0
Co442 Co 0.42687 0.2873 0.53448 0.0
Co443 Co 0.47994 0.26463 0.54117 0.0
C444 C 0.4589 0.30056 0.57659 0.0
O445 O 0.43964 0.30191 0.5639 0.0
O446 O 0.47654 0.28635 0.57047 0.0
C447 C 0.40156 0.32975 0.52639 0.0
O448 O 0.42421 0.33675 0.52978 0.0
C449 C 0.53302 0.26843 0.54396 0.0
C450 C 0.54591 0.2376 0.52132 0.0
C451 C 0.55372 0.25902 0.53203 0.0
N452 N 0.51376 0.25418 0.53915 0.0
N453 N 0.52181 0.2352 0.52647 0.0
C454 C 0.53113 0.29128 0.55879 0.0
H455 H 0.51953 0.30511 0.54912 0.0
H456 H 0.54943 0.29894 0.5625 0.0
H457 H 0.52222 0.28691 0.57667 0.0
C458 C 0.44675 0.29924 0.48533 0.0
N459 N 0.44927 0.28977 0.50811 0.0
N460 N 0.47202 0.28199 0.51107 0.0
C461 C 0.48483 0.28709 0.49022 0.0
C462 C 0.46919 0.29807 0.47334 0.0
C463 C 0.42304 0.30797 0.47453 0.0
H464 H 0.40748 0.2977 0.48269 0.0
H465 H 0.42045 0.32778 0.4782 0.0
H466 H 0.42327 0.30558 0.45435 0.0
O467 O 0.42023 0.25296 0.5414 0.0
O468 O 0.45735 0.23544 0.54487 0.0
H469 H 0.51615 0.26354 0.48627 0.0
H470 H 0.51902 0.29234 0.47004 0.0
C471 C 0.51187 0.28341 0.487 0.0
H472 H 0.52123 0.29149 0.50269 0.0
H473 H 0.51046 0.22183 0.51934 0.0
O474 O 0.39691 0.30698 0.52742 0.0
C475 C 0.4339 0.23416 0.54497 0.0
Co476 Co 0.38447 0.68923 0.34814 0.0
Co477 Co 0.42343 0.72784 0.36308 0.0
C478 C 0.38842 0.70595 0.39961 0.0
O479 O 0.37887 0.69358 0.38287 0.0
O480 O 0.40652 0.71987 0.39526 0.0
C481 C 0.33596 0.67279 0.34551 0.0
O482 O 0.33229 0.69205 0.35934 0.0
C483 C 0.43538 0.77853 0.37245 0.0
C484 C 0.4755 0.77873 0.36697 0.0
C485 C 0.45531 0.79422 0.37049 0.0
N486 N 0.44344 0.7554 0.36923 0.0
N487 N 0.46754 0.75551 0.36681 0.0
C488 C 0.4087 0.78512 0.37503 0.0
H489 H 0.39715 0.76871 0.37307 0.0
H490 H 0.4033 0.79925 0.36126 0.0
H491 H 0.40522 0.79274 0.39352 0.0
C492 C 0.3726 0.72707 0.31101 0.0
N493 N 0.38439 0.71973 0.33141 0.0
N494 N 0.40153 0.73561 0.33648 0.0
C495 C 0.40173 0.75314 0.31865 0.0
C496 C 0.38313 0.74851 0.30233 0.0
C497 C 0.3526 0.71295 0.29935 0.0
H498 H 0.35929 0.69412 0.29531 0.0
H499 H 0.3369 0.71156 0.31237 0.0
H500 H 0.34597 0.7219 0.28228 0.0
O501 O 0.41638 0.67251 0.34197 0.0
O502 O 0.44444 0.69992 0.35183 0.0
H503 H 0.43937 0.76399 0.3223 0.0
H504 H 0.42522 0.77382 0.29412 0.0
C505 C 0.4221 0.77088 0.31409 0.0
H506 H 0.41705 0.7889 0.32194 0.0
H507 H 0.47833 0.73997 0.36336 0.0
O508 O 0.35748 0.66797 0.33752 0.0
C509 C 0.43868 0.67894 0.34377 0.0
Co510 Co 0.06718 0.69599 0.03526 0.0
Co511 Co 0.01552 0.72057 0.04569 0.0
C512 C 0.03815 0.68457 0.08091 0.0
O513 O 0.0565 0.68242 0.0666 0.0
O514 O 0.02041 0.69892 0.07551 0.0
C515 C 0.09128 0.65282 0.02736 0.0
O516 O 0.06887 0.64621 0.03331 0.0
C517 C 0.96282 0.71629 0.05059 0.0
C518 C 0.94907 0.75068 0.03381 0.0
C519 C 0.94164 0.72758 0.0417 0.0
N520 N 0.98186 0.73133 0.04673 0.0
N521 N 0.97337 0.75229 0.03762 0.0
C522 C 0.96539 0.69116 0.06176 0.0
H523 H 0.9764 0.67927 0.04932 0.0
H524 H 0.94731 0.68285 0.06581 0.0
H525 H 0.97527 0.69237 0.07929 0.0
C526 C 0.04359 0.68375 0.98859 0.0
N527 N 0.04285 0.69336 0.01125 0.0
N528 N 0.02111 0.70346 0.01528 0.0
C529 C 0.00747 0.70064 0.99497 0.0
C530 C 0.0212 0.68789 0.97772 0.0
C531 C 0.0658 0.67253 0.97657 0.0
H532 H 0.08258 0.68195 0.98239 0.0
H533 H 0.06711 0.65288 0.98189 0.0
H534 H 0.06454 0.67372 0.95629 0.0
O535 O 0.07504 0.7306 0.03987 0.0
O536 O 0.03872 0.74908 0.04644 0.0
H537 H 0.98135 0.73016 0.99559 0.0
H538 H 0.97544 0.70761 0.97266 0.0
C539 C 0.98198 0.71033 0.99158 0.0
H540 H 0.96953 0.70051 0.0043 0.0
H541 H 0.98443 0.76682 0.03193 0.0
O542 O 0.0962 0.67553 0.02648 0.0
C543 C 0.0621 0.74977 0.0441 0.0
Co544 Co 0.15425 0.60298 0.2005 0.0
Co545 Co 0.13569 0.56034 0.23434 0.0
C546 C 0.10148 0.59847 0.21264 0.0
O547 O 0.11936 0.60934 0.20245 0.0
O548 O 0.10457 0.57877 0.2251 0.0
C549 C 0.1601 0.63645 0.16104 0.0
O550 O 0.14353 0.62243 0.15134 0.0
C551 C 0.12227 0.54563 0.28369 0.0
C552 C 0.127 0.50546 0.2832 0.0
C553 C 0.12292 0.52493 0.29906 0.0
N554 N 0.12679 0.53862 0.26054 0.0
N555 N 0.12876 0.51451 0.26018 0.0
C556 C 0.11965 0.57207 0.29054 0.0
H557 H 0.12157 0.58419 0.27415 0.0
H558 H 0.13352 0.57703 0.30421 0.0
H559 H 0.10116 0.57532 0.29866 0.0
C560 C 0.18585 0.61235 0.24178 0.0
N561 N 0.16717 0.60037 0.23189 0.0
N562 N 0.16176 0.58103 0.24546 0.0
C563 C 0.17809 0.57937 0.26394 0.0
C564 C 0.19368 0.59935 0.26231 0.0
C565 C 0.19623 0.63552 0.23117 0.0
H566 H 0.18119 0.64745 0.22413 0.0
H567 H 0.20654 0.6457 0.24506 0.0
H568 H 0.20869 0.63097 0.21558 0.0
O569 O 0.16218 0.57255 0.18256 0.0
O570 O 0.14871 0.54153 0.20576 0.0
H571 H 0.2017 0.55391 0.28323 0.0
H572 H 0.17289 0.56004 0.29804 0.0
C573 C 0.18186 0.55714 0.27995 0.0
H574 H 0.17416 0.54069 0.27138 0.0
H575 H 0.13311 0.50443 0.24456 0.0
O576 O 0.16826 0.63095 0.18216 0.0
C577 C 0.1594 0.54963 0.18637 0.0
Co578 Co 0.65041 0.8885 0.80246 0.0
Co579 Co 0.63184 0.92955 0.76602 0.0
C580 C 0.59705 0.89718 0.79358 0.0
O581 O 0.61507 0.88652 0.80372 0.0
O582 O 0.6 0.91478 0.77829 0.0
C583 C 0.65044 0.84141 0.82593 0.0
O584 O 0.62806 0.84069 0.81747 0.0
C585 C 0.61557 0.94402 0.71729 0.0
C586 C 0.63051 0.98119 0.71341 0.0
C587 C 0.62005 0.96261 0.69999 0.0
N588 N 0.62424 0.95092 0.73907 0.0
N589 N 0.63229 0.97353 0.73686 0.0
C590 C 0.60362 0.91981 0.71364 0.0
H591 H 0.59259 0.91484 0.73016 0.0
H592 H 0.61783 0.90526 0.71128 0.0
H593 H 0.59153 0.92047 0.69744 0.0
C594 C 0.67974 0.8736 0.76019 0.0
N595 N 0.66172 0.88746 0.77007 0.0
N596 N 0.65575 0.90544 0.75484 0.0
C597 C 0.67086 0.90404 0.73496 0.0
C598 C 0.6861 0.88355 0.73757 0.0
C599 C 0.69306 0.85362 0.77389 0.0
H600 H 0.70085 0.86123 0.79081 0.0
H601 H 0.6799 0.83916 0.77939 0.0
H602 H 0.70815 0.8453 0.76287 0.0
O603 O 0.66134 0.91912 0.81715 0.0
O604 O 0.64746 0.94893 0.79252 0.0
H605 H 0.67 0.94165 0.7228 0.0
H606 H 0.69044 0.92229 0.70514 0.0
C607 C 0.6726 0.92313 0.71506 0.0
H608 H 0.65823 0.91991 0.70145 0.0
H609 H 0.64085 0.98294 0.75082 0.0
O610 O 0.66349 0.86017 0.82158 0.0
C611 C 0.6591 0.9418 0.81157 0.0
Co612 Co 0.79234 0.96661 0.57177 0.0
Co613 Co 0.76694 0.95632 0.52175 0.0
C614 C 0.80353 0.92091 0.54546 0.0
O615 O 0.80681 0.93523 0.5632 0.0
O616 O 0.78852 0.92649 0.52848 0.0
C617 C 0.81919 0.96416 0.61644 0.0
O618 O 0.81593 0.94045 0.61462 0.0
C619 C 0.77604 0.95478 0.46981 0.0
C620 C 0.74081 0.9663 0.45372 0.0
C621 C 0.76545 0.96252 0.44795 0.0
N622 N 0.75885 0.95519 0.4877 0.0
N623 N 0.73759 0.9613 0.47785 0.0
C624 C 0.80237 0.94807 0.47418 0.0
H625 H 0.81122 0.96288 0.48448 0.0
H626 H 0.8125 0.94479 0.45673 0.0
H627 H 0.80346 0.93107 0.48544 0.0
C628 C 0.80891 0.01036 0.54495 0.0
N629 N 0.79668 0.98914 0.54612 0.0
N630 N 0.78399 0.98652 0.52606 0.0
C631 C 0.78661 0.00696 0.51204 0.0
C632 C 0.80279 0.02255 0.52334 0.0
C633 C 0.82712 0.01791 0.56363 0.0
H634 H 0.81727 0.02687 0.5791 0.0
H635 H 0.83708 0.00156 0.57087 0.0
H636 H 0.84068 0.03085 0.55568 0.0
O637 O 0.75712 0.96295 0.57903 0.0
O638 O 0.73751 0.95594 0.54431 0.0
H639 H 0.7692 0.03326 0.4878 0.0
H640 H 0.78097 0.00614 0.4734 0.0
C641 C 0.77155 0.01311 0.49002 0.0
H642 H 0.75324 0.00473 0.49184 0.0
H643 H 0.7214 0.96412 0.48788 0.0
O644 O 0.80929 0.97859 0.60089 0.0
C645 C 0.73739 0.95897 0.56754 0.0
Co646 Co 0.85019 0.11458 0.29781 0.0
Co647 Co 0.86462 0.07191 0.26229 0.0
C648 C 0.90221 0.10485 0.28395 0.0
O649 O 0.88536 0.11659 0.29511 0.0
O650 O 0.89753 0.08654 0.27061 0.0
C651 C 0.8515 0.15867 0.32631 0.0
O652 O 0.87537 0.15643 0.32375 0.0
C653 C 0.87435 0.0587 0.21192 0.0
C654 C 0.86273 0.02021 0.21103 0.0
C655 C 0.86931 0.0398 0.19586 0.0
N656 N 0.86983 0.05087 0.23499 0.0
N657 N 0.86366 0.02759 0.23444 0.0
C658 C 0.88281 0.0841 0.20589 0.0
H659 H 0.89516 0.09047 0.22041 0.0
H660 H 0.86685 0.09689 0.20539 0.0
H661 H 0.89258 0.08465 0.18791 0.0
C662 C 0.8183 0.12919 0.25793 0.0
N663 N 0.83669 0.11517 0.26666 0.0
N664 N 0.83989 0.0958 0.25288 0.0
C665 C 0.82217 0.0961 0.23573 0.0
C666 C 0.80811 0.11745 0.2382 0.0
C667 C 0.81027 0.15299 0.26902 0.0
H668 H 0.82649 0.16313 0.27523 0.0
H669 H 0.80007 0.1646 0.25564 0.0
H670 H 0.79827 0.14925 0.2852 0.0
O671 O 0.84004 0.08403 0.31491 0.0
O672 O 0.8512 0.053 0.29092 0.0
H673 H 0.79545 0.07362 0.21823 0.0
H674 H 0.82424 0.07619 0.20232 0.0
C675 C 0.81559 0.07444 0.22071 0.0
H676 H 0.82193 0.05719 0.22964 0.0
H677 H 0.85818 0.01735 0.24982 0.0
O678 O 0.83768 0.14283 0.31693 0.0
C679 C 0.84126 0.06112 0.31058 0.0
Co680 Co 0.6948 0.02936 0.06743 0.0
Co681 Co 0.72248 0.04188 0.01786 0.0
C682 C 0.68636 0.07695 0.04097 0.0
O683 O 0.68254 0.06181 0.05837 0.0
O684 O 0.70149 0.0719 0.02376 0.0
C685 C 0.65086 0.0209 0.09067 0.0
O686 O 0.64423 0.02824 0.06865 0.0
C687 C 0.71913 0.04903 0.96549 0.0
C688 C 0.75393 0.03344 0.95142 0.0
C689 C 0.73077 0.04122 0.94406 0.0
N690 N 0.73405 0.04466 0.98452 0.0
N691 N 0.75525 0.03628 0.97589 0.0
C692 C 0.69372 0.0595 0.96827 0.0
H693 H 0.68206 0.04638 0.9787 0.0
H694 H 0.68545 0.06406 0.95029 0.0
H695 H 0.69445 0.07665 0.97883 0.0
C696 C 0.68247 0.98465 0.04068 0.0
N697 N 0.69242 0.00711 0.0416 0.0
N698 N 0.70445 0.0117 0.02096 0.0
C699 C 0.7027 0.99187 0.00644 0.0
C700 C 0.68845 0.97449 0.01835 0.0
C701 C 0.66977 0.97186 0.06163 0.0
H702 H 0.67868 0.97623 0.07914 0.0
H703 H 0.65032 0.978 0.06244 0.0
H704 H 0.67016 0.95168 0.05927 0.0
O705 O 0.72933 0.03168 0.07661 0.0
O706 O 0.75007 0.04072 0.04218 0.0
H707 H 0.73505 0.99343 0.98395 0.0
H708 H 0.7142 0.96971 0.97556 0.0
C709 C 0.71547 0.98873 0.98227 0.0
H710 H 0.70679 0.00103 0.96863 0.0
H711 H 0.76976 0.03035 0.98687 0.0
O712 O 0.67358 0.01936 0.09546 0.0
C713 C 0.74943 0.03622 0.0653 0.0
Co714 Co 0.34632 0.38779 0.69324 0.0
Co715 Co 0.36567 0.4266 0.72972 0.0
C716 C 0.39875 0.38875 0.70581 0.0
O717 O 0.3807 0.37919 0.69531 0.0
O718 O 0.39617 0.40786 0.71881 0.0
C719 C 0.33959 0.35649 0.65261 0.0
O720 O 0.35832 0.36867 0.64356 0.0
C721 C 0.3808 0.43535 0.77922 0.0
C722 C 0.37075 0.47419 0.78437 0.0
C723 C 0.37778 0.4531 0.79726 0.0
N724 N 0.37452 0.44525 0.75746 0.0
N725 N 0.36941 0.46873 0.76046 0.0
C726 C 0.38879 0.40911 0.78208 0.0
H727 H 0.39926 0.40323 0.7656 0.0
H728 H 0.37245 0.39728 0.78376 0.0
H729 H 0.40053 0.40654 0.7984 0.0
C730 C 0.31332 0.37626 0.73442 0.0
N731 N 0.33247 0.38846 0.7248 0.0
N732 N 0.33885 0.40592 0.73969 0.0
C733 C 0.32272 0.40632 0.75877 0.0
C734 C 0.30615 0.38736 0.7562 0.0
C735 C 0.30244 0.35426 0.72283 0.0
H736 H 0.28987 0.36035 0.70806 0.0
H737 H 0.3172 0.34279 0.7145 0.0
H738 H 0.29217 0.34297 0.73646 0.0
O739 O 0.34141 0.42012 0.67672 0.0
O740 O 0.35349 0.44844 0.70288 0.0
H741 H 0.32696 0.44407 0.76844 0.0
H742 H 0.30121 0.42932 0.78307 0.0
C743 C 0.32051 0.42669 0.77681 0.0
H744 H 0.33169 0.42209 0.79308 0.0
H745 H 0.36296 0.48044 0.74662 0.0
O746 O 0.33086 0.36226 0.6735 0.0
C747 C 0.34436 0.44248 0.68241 0.0
Co748 Co 0.29119 0.53041 0.42851 0.0
Co749 Co 0.26422 0.54056 0.47864 0.0
C750 C 0.30138 0.5753 0.45612 0.0
O751 O 0.30529 0.56122 0.43814 0.0
O752 O 0.28593 0.56977 0.47295 0.0
C753 C 0.31899 0.53444 0.38388 0.0
O754 O 0.31374 0.55788 0.3861 0.0
C755 C 0.27104 0.54198 0.53058 0.0
C756 C 0.23402 0.53717 0.54655 0.0
C757 C 0.25861 0.53854 0.55274 0.0
N758 N 0.25471 0.54234 0.51237 0.0
N759 N 0.2325 0.54006 0.52201 0.0
C760 C 0.29825 0.54123 0.52619 0.0
H761 H 0.30272 0.53853 0.50654 0.0
H762 H 0.3069 0.52626 0.53718 0.0
H763 H 0.30616 0.55889 0.53178 0.0
C764 C 0.30534 0.48482 0.45446 0.0
N765 N 0.29396 0.50685 0.45375 0.0
N766 N 0.28108 0.50992 0.47404 0.0
C767 C 0.2829 0.48926 0.48788 0.0
C768 C 0.29853 0.47276 0.47606 0.0
C769 C 0.32338 0.47631 0.43535 0.0
H770 H 0.33438 0.49199 0.42852 0.0
H771 H 0.33603 0.46201 0.44271 0.0
H772 H 0.31329 0.46875 0.41969 0.0
O773 O 0.25627 0.53571 0.42062 0.0
O774 O 0.23583 0.542 0.45579 0.0
H775 H 0.26475 0.46427 0.51294 0.0
H776 H 0.27796 0.49054 0.52684 0.0
C777 C 0.26797 0.48422 0.51059 0.0
H778 H 0.25005 0.49395 0.50962 0.0
H779 H 0.21654 0.53889 0.51177 0.0
O780 O 0.3099 0.51924 0.39925 0.0
C781 C 0.23633 0.53987 0.43247 0.0
Co782 Co 0.20432 0.45417 0.92677 0.0
Co783 Co 0.2311 0.44375 0.97658 0.0
C784 C 0.1961 0.40788 0.95393 0.0
O785 O 0.19176 0.42233 0.93604 0.0
O786 O 0.21094 0.41365 0.97068 0.0
C787 C 0.17725 0.45152 0.88216 0.0
O788 O 0.18143 0.42784 0.88446 0.0
C789 C 0.22257 0.44219 0.02855 0.0
C790 C 0.25776 0.45327 0.04407 0.0
C791 C 0.23322 0.44974 0.05013 0.0
N792 N 0.23961 0.44245 0.01052 0.0
N793 N 0.26086 0.44829 0.02005 0.0
C794 C 0.19628 0.43587 0.02455 0.0
H795 H 0.1953 0.41912 0.01343 0.0
H796 H 0.18707 0.45099 0.01426 0.0
H797 H 0.18643 0.43241 0.04216 0.0
C798 C 0.1869 0.49769 0.95301 0.0
N799 N 0.19948 0.47635 0.95215 0.0
N800 N 0.21278 0.47368 0.97192 0.0
C801 C 0.21019 0.49417 0.98539 0.0
C802 C 0.19341 0.50987 0.97409 0.0
C803 C 0.16838 0.50559 0.93437 0.0
H804 H 0.15864 0.4894 0.92751 0.0
H805 H 0.1547 0.51861 0.94223 0.0
H806 H 0.17794 0.51459 0.91864 0.0
O807 O 0.2396 0.4514 0.91916 0.0
O808 O 0.2601 0.4441 0.95363 0.0
H809 H 0.2444 0.49171 0.00434 0.0
H810 H 0.22823 0.52052 0.00783 0.0
C811 C 0.22604 0.50039 0.00652 0.0
H812 H 0.21738 0.49378 0.02378 0.0
H813 H 0.27693 0.45097 0.00981 0.0
O814 O 0.18641 0.46597 0.89753 0.0
C815 C 0.25969 0.44761 0.9304 0.0
C816 C 0.30873 0.32351 0.64847 0.0
C817 C 0.3299 0.33511 0.63961 0.0
C818 C 0.30007 0.30232 0.63746 0.0
C819 C 0.31297 0.29235 0.61712 0.0
C820 C 0.33408 0.30423 0.6077 0.0
C821 C 0.34228 0.32554 0.61904 0.0
C822 C 0.27734 0.29032 0.64795 0.0
C823 C 0.34827 0.29415 0.58602 0.0
C824 C 0.30021 0.2248 0.61057 0.0
C825 C 0.28092 0.22557 0.59399 0.0
C826 C 0.3122 0.24634 0.61692 0.0
C827 C 0.30448 0.26905 0.60648 0.0
C828 C 0.28607 0.26954 0.5884 0.0
C829 C 0.27436 0.2477 0.58246 0.0
C830 C 0.33184 0.245 0.63615 0.0
C831 C 0.27748 0.2933 0.57667 0.0
H832 H 0.29899 0.33084 0.66427 0.0
H833 H 0.35869 0.33438 0.61211 0.0
H834 H 0.26342 0.28853 0.63347 0.0
H835 H 0.28195 0.27157 0.65471 0.0
H836 H 0.26904 0.30083 0.66334 0.0
H837 H 0.3637 0.30613 0.58029 0.0
H838 H 0.35576 0.27569 0.59068 0.0
H839 H 0.33594 0.29202 0.57021 0.0
H840 H 0.30506 0.20754 0.61947 0.0
H841 H 0.25926 0.24808 0.56972 0.0
H842 H 0.3246 0.25295 0.65345 0.0
H843 H 0.34797 0.25589 0.63029 0.0
H844 H 0.33796 0.22583 0.63997 0.0
H845 H 0.26664 0.30402 0.59025 0.0
H846 H 0.26583 0.29017 0.56049 0.0
H847 H 0.29334 0.30461 0.57085 0.0
C848 C 0.34361 0.50117 0.36375 0.0
C849 C 0.33848 0.52625 0.36656 0.0
C850 C 0.36428 0.49315 0.35037 0.0
C851 C 0.3803 0.51063 0.3397 0.0
C852 C 0.37452 0.53594 0.34136 0.0
C853 C 0.3536 0.54345 0.3547 0.0
C854 C 0.36966 0.46599 0.34877 0.0
C855 C 0.39118 0.55515 0.3303 0.0
C856 C 0.44717 0.49125 0.3342 0.0
C857 C 0.44934 0.48594 0.30928 0.0
C858 C 0.42484 0.49963 0.34423 0.0
C859 C 0.40419 0.5025 0.32892 0.0
C860 C 0.40636 0.49713 0.30364 0.0
C861 C 0.42902 0.48891 0.29408 0.0
C862 C 0.42334 0.5053 0.37124 0.0
C863 C 0.38471 0.49978 0.28682 0.0
H864 H 0.33193 0.48776 0.37273 0.0
H865 H 0.3498 0.56287 0.3568 0.0
H866 H 0.37369 0.46085 0.32951 0.0
H867 H 0.38617 0.46131 0.35964 0.0
H868 H 0.35417 0.45479 0.35582 0.0
H869 H 0.3828 0.57382 0.33094 0.0
H870 H 0.40864 0.55529 0.3405 0.0
H871 H 0.39578 0.55081 0.31096 0.0
H872 H 0.46303 0.48889 0.34583 0.0
H873 H 0.43081 0.48451 0.27482 0.0
H874 H 0.40965 0.49333 0.38045 0.0
H875 H 0.4171 0.52455 0.37381 0.0
H876 H 0.44124 0.50263 0.38045 0.0
H877 H 0.36983 0.48745 0.29316 0.0
H878 H 0.38959 0.49536 0.26753 0.0
H879 H 0.37728 0.5188 0.28739 0.0
C880 C 0.21824 0.75304 0.09372 0.0
C881 C 0.20763 0.77432 0.10344 0.0
C882 C 0.20842 0.73 0.09933 0.0
C883 C 0.18774 0.72841 0.11523 0.0
C884 C 0.17595 0.75012 0.12355 0.0
C885 C 0.18617 0.77292 0.11761 0.0
C886 C 0.22139 0.70733 0.0899 0.0
C887 C 0.15376 0.74922 0.14037 0.0
C888 C 0.15677 0.66716 0.12657 0.0
C889 C 0.16785 0.65932 0.14847 0.0
C890 C 0.1631 0.68957 0.11531 0.0
C891 C 0.18094 0.70435 0.12623 0.0
C892 C 0.19242 0.69633 0.14811 0.0
C893 C 0.18573 0.67394 0.15894 0.0
C894 C 0.15056 0.69753 0.09196 0.0
C895 C 0.21159 0.71157 0.16032 0.0
H896 H 0.23498 0.75437 0.08285 0.0
H897 H 0.17818 0.78956 0.12511 0.0
H898 H 0.2316 0.69831 0.10508 0.0
H899 H 0.20799 0.69396 0.08317 0.0
H900 H 0.23461 0.7117 0.07484 0.0
H901 H 0.14468 0.76748 0.14211 0.0
H902 H 0.14022 0.736 0.13363 0.0
H903 H 0.15946 0.74286 0.15887 0.0
H904 H 0.1429 0.65598 0.11838 0.0
H905 H 0.1944 0.66801 0.17583 0.0
H906 H 0.1644 0.70069 0.0772 0.0
H907 H 0.14062 0.71517 0.0948 0.0
H908 H 0.1373 0.68376 0.08564 0.0
H909 H 0.2271 0.715 0.1474 0.0
H910 H 0.2189 0.70258 0.17714 0.0
H911 H 0.20362 0.72967 0.16534 0.0
C912 C 0.14301 0.4449 0.85304 0.0
C913 C 0.15878 0.46101 0.86469 0.0
C914 C 0.12278 0.45382 0.83982 0.0
C915 C 0.11846 0.47944 0.83802 0.0
C916 C 0.13529 0.49578 0.8483 0.0
C917 C 0.1552 0.48637 0.86161 0.0
C918 C 0.10517 0.43581 0.82919 0.0
C919 C 0.13149 0.52322 0.84651 0.0
C920 C 0.07109 0.50491 0.79358 0.0
C921 C 0.051 0.50873 0.80935 0.0
C922 C 0.09325 0.49518 0.80256 0.0
C923 C 0.09508 0.4891 0.82781 0.0
C924 C 0.07463 0.49282 0.84369 0.0
C925 C 0.05284 0.50273 0.83424 0.0
C926 C 0.11473 0.49167 0.78517 0.0
C927 C 0.07579 0.48643 0.87069 0.0
H928 H 0.14568 0.42528 0.85528 0.0
H929 H 0.16745 0.49894 0.87036 0.0
H930 H 0.08765 0.43636 0.83977 0.0
H931 H 0.10092 0.44086 0.80993 0.0
H932 H 0.11254 0.41673 0.82973 0.0
H933 H 0.14764 0.53337 0.85297 0.0
H934 H 0.12773 0.52892 0.82731 0.0
H935 H 0.11531 0.52866 0.85782 0.0
H936 H 0.0695 0.50976 0.77432 0.0
H937 H 0.03712 0.50569 0.84628 0.0
H938 H 0.12105 0.47226 0.78564 0.0
H939 H 0.13031 0.50297 0.79104 0.0
H940 H 0.11012 0.49683 0.76599 0.0
H941 H 0.08095 0.46681 0.87319 0.0
H942 H 0.05804 0.48987 0.88037 0.0
H943 H 0.09012 0.4974 0.87949 0.0
C944 C 0.78294 0.26809 0.3968 0.0
C945 C 0.78268 0.28864 0.38119 0.0
C946 C 0.79679 0.24714 0.39073 0.0
C947 C 0.81002 0.2467 0.36823 0.0
C948 C 0.8106 0.2679 0.35295 0.0
C949 C 0.79693 0.2887 0.35971 0.0
C950 C 0.79602 0.22502 0.40764 0.0
C951 C 0.82432 0.26808 0.32872 0.0
C952 C 0.85529 0.19562 0.35258 0.0
C953 C 0.84071 0.18036 0.33848 0.0
C954 C 0.84541 0.21699 0.3631 0.0
C955 C 0.82053 0.2233 0.35907 0.0
C956 C 0.80566 0.20772 0.34522 0.0
C957 C 0.81589 0.18633 0.33527 0.0
C958 C 0.8616 0.23293 0.37826 0.0
C959 C 0.77907 0.21397 0.3403 0.0
H960 H 0.77143 0.26794 0.41316 0.0
H961 H 0.79653 0.3047 0.34769 0.0
H962 H 0.78456 0.2107 0.39946 0.0
H963 H 0.81468 0.21708 0.41005 0.0
H964 H 0.7882 0.22957 0.42596 0.0
H965 H 0.82479 0.28666 0.32014 0.0
H966 H 0.84343 0.26136 0.33116 0.0
H967 H 0.81534 0.2555 0.3159 0.0
H968 H 0.87445 0.19093 0.35531 0.0
H969 H 0.80454 0.17463 0.32439 0.0
H970 H 0.85351 0.23504 0.3969 0.0
H971 H 0.86273 0.25154 0.3699 0.0
H972 H 0.88047 0.22522 0.37999 0.0
H973 H 0.76883 0.21615 0.35785 0.0
H974 H 0.76998 0.19972 0.32942 0.0
H975 H 0.77775 0.2317 0.33015 0.0
C976 C 0.63584 0.01428 0.1338 0.0
C977 C 0.63209 0.0127 0.10851 0.0
C978 C 0.6173 0.00755 0.15064 0.0
C979 C 0.59491 0.99847 0.14187 0.0
C980 C 0.59142 0.99619 0.11634 0.0
C981 C 0.60993 0.00362 0.09999 0.0
C982 C 0.62134 0.01087 0.1777 0.0
C983 C 0.56799 0.98614 0.10624 0.0
C984 C 0.55095 0.96058 0.18043 0.0
C985 C 0.53122 0.97707 0.1832 0.0
C986 C 0.5725 0.96761 0.16806 0.0
C987 C 0.57459 0.99195 0.15902 0.0
C988 C 0.55554 0.00922 0.16366 0.0
C989 C 0.53389 0.00145 0.17531 0.0
C990 C 0.59225 0.94857 0.16321 0.0
C991 C 0.55722 0.03553 0.15493 0.0
H992 H 0.65295 0.02146 0.14036 0.0
H993 H 0.60712 0.00213 0.08042 0.0
H994 H 0.60785 0.02444 0.18497 0.0
H995 H 0.61828 0.99337 0.18781 0.0
H996 H 0.64011 0.01731 0.1816 0.0
H997 H 0.56885 0.98409 0.08601 0.0
H998 H 0.56407 0.96798 0.11473 0.0
H999 H 0.55238 0.99856 0.11085 0.0
H1000 H 0.54918 0.94188 0.18712 0.0
H1001 H 0.51866 0.01428 0.17718 0.0
H1002 H 0.61052 0.95565 0.16795 0.0
H1003 H 0.59276 0.94431 0.14337 0.0
H1004 H 0.58905 0.93129 0.17371 0.0
H1005 H 0.57604 0.0426 0.15703 0.0
H1006 H 0.54422 0.04759 0.16515 0.0
H1007 H 0.55262 0.03668 0.13519 0.0
C1008 C 0.68632 0.81571 0.8385 0.0
C1009 C 0.66091 0.81979 0.83866 0.0
C1010 C 0.6964 0.79411 0.84853 0.0
C1011 C 0.68069 0.77647 0.85942 0.0
C1012 C 0.65511 0.78104 0.86069 0.0
C1013 C 0.64547 0.80257 0.85002 0.0
C1014 C 0.72377 0.78975 0.84659 0.0
C1015 C 0.6379 0.76292 0.87273 0.0
C1016 C 0.70597 0.71157 0.85856 0.0
C1017 C 0.7165 0.70956 0.88173 0.0
C1018 C 0.69337 0.73297 0.85139 0.0
C1019 C 0.69108 0.75263 0.86798 0.0
C1020 C 0.70065 0.75016 0.8919 0.0
C1021 C 0.71362 0.7287 0.89838 0.0
C1022 C 0.68364 0.73501 0.82564 0.0
C1023 C 0.6982 0.77056 0.91021 0.0
H1024 H 0.69828 0.82897 0.82968 0.0
H1025 H 0.62581 0.80587 0.85041 0.0
H1026 H 0.73144 0.786 0.86501 0.0
H1027 H 0.72765 0.77337 0.83526 0.0
H1028 H 0.73347 0.80563 0.83821 0.0
H1029 H 0.61888 0.77033 0.87437 0.0
H1030 H 0.63755 0.74593 0.86181 0.0
H1031 H 0.64444 0.75772 0.89129 0.0
H1032 H 0.70844 0.6967 0.84572 0.0
H1033 H 0.72226 0.72726 0.91613 0.0
H1034 H 0.69365 0.74951 0.81531 0.0
H1035 H 0.66397 0.74045 0.82605 0.0
H1036 H 0.68568 0.71755 0.81553 0.0
H1037 H 0.70997 0.78606 0.90435 0.0
H1038 H 0.70371 0.76452 0.9289 0.0
H1039 H 0.67902 0.77758 0.91105 0.0
C1040 C 0.85488 0.95758 0.6441 0.0
C1041 C 0.83806 0.97368 0.63288 0.0
C1042 C 0.87572 0.96648 0.65566 0.0
C1043 C 0.8796 0.99208 0.65617 0.0
C1044 C 0.86171 0.00845 0.64657 0.0
C1045 C 0.84116 0.99904 0.63496 0.0
C1046 C 0.89443 0.94845 0.6657 0.0
C1047 C 0.86504 0.03587 0.64707 0.0
C1048 C 0.93054 0.01619 0.69568 0.0
C1049 C 0.94945 0.01887 0.6783 0.0
C1050 C 0.90752 0.0076 0.68879 0.0
C1051 C 0.9036 0.00155 0.664 0.0
C1052 C 0.92273 0.00449 0.64641 0.0
C1053 C 0.94544 0.01324 0.6538 0.0
C1054 C 0.88748 0.00493 0.70795 0.0
C1055 C 0.91929 0.99817 0.61981 0.0
H1056 H 0.85258 0.93795 0.64265 0.0
H1057 H 0.82809 0.01161 0.62656 0.0
H1058 H 0.91112 0.94867 0.65383 0.0
H1059 H 0.90001 0.95371 0.68436 0.0
H1060 H 0.88739 0.92944 0.6665 0.0
H1061 H 0.84808 0.04606 0.64187 0.0
H1062 H 0.87055 0.0417 0.66558 0.0
H1063 H 0.87993 0.04112 0.63404 0.0
H1064 H 0.93382 0.0208 0.71462 0.0
H1065 H 0.96025 0.01538 0.6405 0.0
H1066 H 0.88168 0.98554 0.70927 0.0
H1067 H 0.87116 0.01601 0.70257 0.0
H1068 H 0.8934 0.01081 0.72635 0.0
H1069 H 0.91432 0.97859 0.6183 0.0
H1070 H 0.93606 0.00146 0.60851 0.0
H1071 H 0.90399 0.00926 0.61204 0.0
C1072 C 0.59495 0.26756 0.24039 0.0
C1073 C 0.60266 0.27629 0.21738 0.0
C1074 C 0.60199 0.27931 0.26183 0.0
C1075 C 0.61731 0.30004 0.26004 0.0
C1076 C 0.62389 0.30971 0.23665 0.0
C1077 C 0.61642 0.29766 0.21551 0.0
C1078 C 0.59433 0.26862 0.28639 0.0
C1079 C 0.64017 0.33176 0.23395 0.0
C1080 C 0.62883 0.33765 0.31686 0.0
C1081 C 0.65129 0.32768 0.32479 0.0
C1082 C 0.61747 0.3289 0.29579 0.0
C1083 C 0.62882 0.3097 0.28244 0.0
C1084 C 0.6514 0.29948 0.29045 0.0
C1085 C 0.66236 0.30861 0.31149 0.0
C1086 C 0.59341 0.34024 0.28779 0.0
C1087 C 0.66408 0.27894 0.2767 0.0
H1088 H 0.58435 0.2509 0.24159 0.0
H1089 H 0.62238 0.30419 0.19755 0.0
H1090 H 0.61049 0.25999 0.29536 0.0
H1091 H 0.58729 0.28324 0.29864 0.0
H1092 H 0.57998 0.25452 0.28463 0.0
H1093 H 0.64118 0.33866 0.2147 0.0
H1094 H 0.63344 0.34681 0.24585 0.0
H1095 H 0.65898 0.32675 0.2399 0.0
H1096 H 0.62017 0.35244 0.32699 0.0
H1097 H 0.67969 0.3008 0.31748 0.0
H1098 H 0.57912 0.32598 0.2873 0.0
H1099 H 0.59529 0.34793 0.26893 0.0
H1100 H 0.587 0.35507 0.30017 0.0
H1101 H 0.65187 0.26289 0.27587 0.0
H1102 H 0.68154 0.27302 0.28536 0.0
H1103 H 0.66809 0.2849 0.25755 0.0
C1104 C 0.50645 0.83233 0.05522 0.0
C1105 C 0.51259 0.80754 0.05281 0.0
C1106 C 0.49602 0.84111 0.07706 0.0
C1107 C 0.49186 0.82463 0.09696 0.0
C1108 C 0.49844 0.79956 0.09468 0.0
C1109 C 0.50873 0.79127 0.0725 0.0
C1110 C 0.4892 0.86797 0.07874 0.0
C1111 C 0.49449 0.78155 0.11557 0.0
C1112 C 0.48484 0.85702 0.15755 0.0
C1113 C 0.45927 0.85976 0.15949 0.0
C1114 C 0.49572 0.84419 0.13806 0.0
C1115 C 0.48066 0.83395 0.12005 0.0
C1116 C 0.45481 0.83513 0.12286 0.0
C1117 C 0.44441 0.84795 0.14265 0.0
C1118 C 0.52334 0.84304 0.13589 0.0
C1119 C 0.43813 0.82439 0.10405 0.0
H1120 H 0.50945 0.84476 0.03982 0.0
H1121 H 0.51368 0.77208 0.07047 0.0
H1122 H 0.46927 0.87004 0.0827 0.0
H1123 H 0.49908 0.8764 0.09406 0.0
H1124 H 0.4936 0.87828 0.06157 0.0
H1125 H 0.50096 0.76276 0.11094 0.0
H1126 H 0.50433 0.78764 0.13203 0.0
H1127 H 0.47472 0.78087 0.12053 0.0
H1128 H 0.49645 0.86586 0.17066 0.0
H1129 H 0.42463 0.84986 0.14409 0.0
H1130 H 0.52948 0.85513 0.12054 0.0
H1131 H 0.5297 0.82414 0.13168 0.0
H1132 H 0.53233 0.84902 0.15291 0.0
H1133 H 0.43928 0.83541 0.08683 0.0
H1134 H 0.41869 0.82419 0.1104 0.0
H1135 H 0.44399 0.80539 0.09962 0.0
C1136 C 0.87579 0.69563 0.71579 0.0
C1137 C 0.89123 0.71584 0.71502 0.0
C1138 C 0.86962 0.68429 0.73823 0.0
C1139 C 0.87901 0.69366 0.76026 0.0
C1140 C 0.89584 0.7132 0.75928 0.0
C1141 C 0.90168 0.72418 0.73657 0.0
C1142 C 0.85191 0.66326 0.7385 0.0
C1143 C 0.90645 0.7235 0.78231 0.0
C1144 C 0.8376 0.68867 0.81639 0.0
C1145 C 0.84821 0.66888 0.82926 0.0
C1146 C 0.84767 0.69698 0.79407 0.0
C1147 C 0.86883 0.68516 0.78427 0.0
C1148 C 0.87977 0.66528 0.79721 0.0
C1149 C 0.86942 0.65747 0.81968 0.0
C1150 C 0.83543 0.71826 0.78081 0.0
C1151 C 0.90238 0.65225 0.7874 0.0
H1152 H 0.86773 0.68939 0.69896 0.0
H1153 H 0.91353 0.73997 0.73574 0.0
H1154 H 0.8591 0.64784 0.7499 0.0
H1155 H 0.8342 0.66931 0.74684 0.0
H1156 H 0.8484 0.65649 0.71978 0.0
H1157 H 0.92127 0.73678 0.77823 0.0
H1158 H 0.89176 0.73298 0.79296 0.0
H1159 H 0.9139 0.70851 0.7941 0.0
H1160 H 0.82125 0.69762 0.82368 0.0
H1161 H 0.87774 0.64216 0.82952 0.0
H1162 H 0.82932 0.71238 0.76251 0.0
H1163 H 0.84869 0.73328 0.77781 0.0
H1164 H 0.81928 0.72562 0.79109 0.0
H1165 H 0.9007 0.64857 0.76754 0.0
H1166 H 0.90586 0.63459 0.7972 0.0
H1167 H 0.91854 0.66409 0.78966 0.0
C1168 C 0.98918 0.16958 0.53983 0.0
C1169 C 0.98419 0.19464 0.53708 0.0
C1170 C 0.99796 0.15994 0.56199 0.0
C1171 C 0.00147 0.17579 0.58196 0.0
C1172 C 0.99644 0.20122 0.57922 0.0
C1173 C 0.98788 0.21041 0.55665 0.0
C1174 C 0.00331 0.13275 0.56407 0.0
C1175 C 0.99973 0.21858 0.60018 0.0
C1176 C 0.00066 0.14125 0.64254 0.0
C1177 C 0.02576 0.13706 0.64629 0.0
C1178 C 0.99249 0.15539 0.62252 0.0
C1179 C 0.00985 0.16531 0.60573 0.0
C1180 C 0.03523 0.16243 0.61027 0.0
C1181 C 0.04289 0.14844 0.63062 0.0
C1182 C 0.96527 0.15836 0.6185 0.0
C1183 C 0.0543 0.17257 0.59269 0.0
H1184 H 0.98626 0.15753 0.52453 0.0
H1185 H 0.98372 0.22979 0.55439 0.0
H1186 H 0.02258 0.12955 0.56968 0.0
H1187 H 0.99133 0.12441 0.57843 0.0
H1188 H 0.00033 0.12314 0.54656 0.0
H1189 H 0.99568 0.23792 0.59484 0.0
H1190 H 0.98741 0.21334 0.61569 0.0
H1191 H 0.0188 0.21728 0.60694 0.0
H1192 H 0.98733 0.1327 0.65472 0.0
H1193 H 0.06233 0.14532 0.63342 0.0
H1194 H 0.95987 0.14722 0.60264 0.0
H1195 H 0.96052 0.17775 0.6141 0.0
H1196 H 0.95432 0.15241 0.63479 0.0
H1197 H 0.05416 0.16206 0.57542 0.0
H1198 H 0.07306 0.17142 0.60035 0.0
H1199 H 0.05004 0.19198 0.5879 0.0
C1200 C 0.16311 0.20906 0.66804 0.0
C1201 C 0.15821 0.18467 0.66226 0.0
C1202 C 0.15512 0.219 0.69041 0.0
C1203 C 0.1422 0.20408 0.70752 0.0
C1204 C 0.13682 0.17958 0.70161 0.0
C1205 C 0.14475 0.17021 0.67898 0.0
C1206 C 0.16088 0.24534 0.69592 0.0
C1207 C 0.1233 0.16304 0.71948 0.0
C1208 C 0.14526 0.22221 0.77435 0.0
C1209 C 0.12238 0.23356 0.77788 0.0
C1210 C 0.15178 0.21214 0.75162 0.0
C1211 C 0.13511 0.21389 0.73194 0.0
C1212 C 0.11193 0.22541 0.73552 0.0
C1213 C 0.10582 0.23511 0.75854 0.0
C1214 C 0.17657 0.1998 0.74859 0.0
C1215 C 0.09379 0.22786 0.71494 0.0
H1216 H 0.17342 0.22036 0.65517 0.0
H1217 H 0.14097 0.1513 0.6747 0.0
H1218 H 0.1438 0.25554 0.70079 0.0
H1219 H 0.17313 0.24606 0.71196 0.0
H1220 H 0.16995 0.25484 0.68017 0.0
H1221 H 0.11985 0.14469 0.71176 0.0
H1222 H 0.13413 0.1606 0.73644 0.0
H1223 H 0.10546 0.17153 0.72485 0.0
H1224 H 0.15803 0.22129 0.7894 0.0
H1225 H 0.08828 0.24431 0.76135 0.0
H1226 H 0.18754 0.20967 0.73441 0.0
H1227 H 0.17432 0.18075 0.7422 0.0
H1228 H 0.18703 0.19927 0.76592 0.0
H1229 H 0.10195 0.23865 0.69956 0.0
H1230 H 0.07641 0.23699 0.72086 0.0
H1231 H 0.08948 0.20951 0.70776 0.0
C1232 C 0.48817 0.29557 0.43144 0.0
C1233 C 0.47561 0.30918 0.44932 0.0
C1234 C 0.49621 0.30677 0.40949 0.0
C1235 C 0.49156 0.33211 0.40556 0.0
C1236 C 0.47788 0.3456 0.42317 0.0
C1237 C 0.47005 0.33393 0.44485 0.0
C1238 C 0.51054 0.29177 0.39104 0.0
C1239 C 0.47261 0.37268 0.41972 0.0
C1240 C 0.5356 0.37155 0.36905 0.0
C1241 C 0.52214 0.3769 0.34787 0.0
C1242 C 0.52636 0.35591 0.3874 0.0
C1243 C 0.50308 0.34529 0.38448 0.0
C1244 C 0.49004 0.34939 0.36249 0.0
C1245 C 0.49973 0.36523 0.34439 0.0
C1246 C 0.54092 0.35192 0.41054 0.0
C1247 C 0.4653 0.3381 0.35865 0.0
H1248 H 0.49217 0.27632 0.43491 0.0
H1249 H 0.46042 0.34443 0.4588 0.0
H1250 H 0.50338 0.29504 0.37233 0.0
H1251 H 0.53 0.29744 0.39085 0.0
H1252 H 0.50987 0.27182 0.39535 0.0
H1253 H 0.46012 0.38 0.4342 0.0
H1254 H 0.49004 0.38291 0.42013 0.0
H1255 H 0.46422 0.3763 0.4016 0.0
H1256 H 0.5531 0.38024 0.37172 0.0
H1257 H 0.48929 0.36922 0.32801 0.0
H1258 H 0.54287 0.33205 0.41479 0.0
H1259 H 0.53103 0.36047 0.42622 0.0
H1260 H 0.55951 0.35992 0.4091 0.0
H1261 H 0.46584 0.31828 0.36346 0.0
H1262 H 0.45911 0.34035 0.33942 0.0
H1263 H 0.45151 0.34694 0.37091 0.0
C1264 C 0.37962 0.74905 0.25683 0.0
C1265 C 0.378 0.76154 0.27902 0.0
C1266 C 0.37256 0.7605 0.23481 0.0
C1267 C 0.36354 0.78496 0.23514 0.0
C1268 C 0.36312 0.79805 0.25741 0.0
C1269 C 0.37057 0.78618 0.27914 0.0
C1270 C 0.37375 0.74606 0.2114 0.0
C1271 C 0.35365 0.82414 0.25853 0.0
C1272 C 0.35596 0.81906 0.17432 0.0
C1273 C 0.33118 0.81489 0.16935 0.0
C1274 C 0.36679 0.80962 0.19575 0.0
C1275 C 0.35242 0.7959 0.21269 0.0
C1276 C 0.32735 0.79188 0.20788 0.0
C1277 C 0.31709 0.8013 0.18622 0.0
C1278 C 0.39365 0.81404 0.2001 0.0
C1279 C 0.31135 0.77754 0.2256 0.0
H1280 H 0.3859 0.7301 0.25682 0.0
H1281 H 0.36963 0.79582 0.29639 0.0
H1282 H 0.35489 0.74247 0.20511 0.0
H1283 H 0.38316 0.75674 0.19669 0.0
H1284 H 0.38352 0.7282 0.21383 0.0
H1285 H 0.35639 0.83235 0.2768 0.0
H1286 H 0.36294 0.83569 0.24443 0.0
H1287 H 0.33375 0.82461 0.2545 0.0
H1288 H 0.36698 0.82956 0.16136 0.0
H1289 H 0.2979 0.79811 0.18261 0.0
H1290 H 0.40372 0.79626 0.20127 0.0
H1291 H 0.39601 0.82334 0.21785 0.0
H1292 H 0.40217 0.82542 0.18532 0.0
H1293 H 0.31857 0.75851 0.22758 0.0
H1294 H 0.29201 0.77677 0.21955 0.0
H1295 H 0.31168 0.78594 0.244 0.0
C1296 C 0.95758 0.63718 0.85867 0.0
C1297 C 0.97494 0.62756 0.84206 0.0
C1298 C 0.96494 0.64946 0.8797 0.0
C1299 C 0.99025 0.65261 0.88395 0.0
C1300 C 0.00776 0.64448 0.86635 0.0
C1301 C 0.99991 0.63184 0.84572 0.0
C1302 C 0.9457 0.6576 0.89815 0.0
C1303 C 0.03488 0.648 0.86996 0.0
C1304 C 0.00853 0.69582 0.93449 0.0
C1305 C 0.01341 0.67921 0.95363 0.0
C1306 C 0.00124 0.68747 0.91149 0.0
C1307 C 0.99846 0.662 0.90789 0.0
C1308 C 0.00339 0.64523 0.92735 0.0
C1309 C 0.01107 0.65407 0.94994 0.0
C1310 C 0.99662 0.70582 0.89105 0.0
C1311 C 0.00033 0.61796 0.92438 0.0
H1312 H 0.93823 0.63395 0.85598 0.0
H1313 H 0.0134 0.62463 0.83284 0.0
H1314 H 0.9473 0.64621 0.91509 0.0
H1315 H 0.94857 0.67692 0.90335 0.0
H1316 H 0.9268 0.65589 0.89109 0.0
H1317 H 0.04579 0.64355 0.85322 0.0
H1318 H 0.03857 0.66719 0.87511 0.0
H1319 H 0.0413 0.63594 0.88518 0.0
H1320 H 0.01062 0.71528 0.9375 0.0
H1321 H 0.01494 0.64136 0.9649 0.0
H1322 H 0.97736 0.70467 0.88495 0.0
H1323 H 0.00856 0.70149 0.87501 0.0
H1324 H 0.00012 0.72493 0.89669 0.0
H1325 H 0.98124 0.61405 0.91899 0.0
H1326 H 0.00445 0.60748 0.94148 0.0
H1327 H 0.01266 0.6112 0.90954 0.0
C1328 C 0.31659 0.63336 0.33419 0.0
C1329 C 0.31491 0.65882 0.33696 0.0
C1330 C 0.2968 0.62023 0.32501 0.0
C1331 C 0.27536 0.63309 0.31757 0.0
C1332 C 0.27351 0.65877 0.32083 0.0
C1333 C 0.29318 0.67125 0.3309 0.0
C1334 C 0.299 0.59274 0.32278 0.0
C1335 C 0.2512 0.67327 0.31266 0.0
C1336 C 0.23767 0.61045 0.26507 0.0
C1337 C 0.21567 0.60425 0.27698 0.0
C1338 C 0.25764 0.61885 0.27824 0.0
C1339 C 0.25581 0.62043 0.30408 0.0
C1340 C 0.23425 0.61243 0.31641 0.0
C1341 C 0.21433 0.60441 0.30264 0.0
C1342 C 0.2801 0.62755 0.2643 0.0
C1343 C 0.23194 0.61316 0.344 0.0
H1344 H 0.33334 0.62376 0.33927 0.0
H1345 H 0.29196 0.69097 0.33301 0.0
H1346 H 0.28289 0.58385 0.33158 0.0
H1347 H 0.29919 0.58763 0.30317 0.0
H1348 H 0.31594 0.5853 0.33137 0.0
H1349 H 0.2524 0.69302 0.31711 0.0
H1350 H 0.24911 0.67161 0.29253 0.0
H1351 H 0.23441 0.6658 0.32149 0.0
H1352 H 0.23895 0.60955 0.24525 0.0
H1353 H 0.19738 0.59933 0.31185 0.0
H1354 H 0.29683 0.61837 0.27149 0.0
H1355 H 0.2822 0.64756 0.26687 0.0
H1356 H 0.27903 0.62401 0.24434 0.0
H1357 H 0.24556 0.6003 0.35224 0.0
H1358 H 0.21334 0.60805 0.35065 0.0
H1359 H 0.23603 0.63173 0.35073 0.0
C1360 C 0.72762 0.89139 0.71967 0.0
C1361 C 0.70736 0.87608 0.72231 0.0
C1362 C 0.74911 0.88319 0.70775 0.0
C1363 C 0.75037 0.85895 0.6988 0.0
C1364 C 0.72967 0.84364 0.70099 0.0
C1365 C 0.70835 0.85246 0.71269 0.0
C1366 C 0.7707 0.90012 0.70549 0.0
C1367 C 0.73035 0.81765 0.69181 0.0
C1368 C 0.7994 0.83969 0.65274 0.0
C1369 C 0.8165 0.82771 0.66788 0.0
C1370 C 0.7781 0.85058 0.66262 0.0
C1371 C 0.77366 0.84912 0.6882 0.0
C1372 C 0.79105 0.83737 0.70363 0.0
C1373 C 0.8124 0.82695 0.69328 0.0
C1374 C 0.76017 0.86329 0.64565 0.0
C1375 C 0.78682 0.83529 0.73099 0.0
H1376 H 0.72695 0.90948 0.72765 0.0
H1377 H 0.69264 0.84063 0.71505 0.0
H1378 H 0.78596 0.89294 0.71688 0.0
H1379 H 0.77749 0.90095 0.68623 0.0
H1380 H 0.76602 0.91902 0.71147 0.0
H1381 H 0.71238 0.8085 0.69408 0.0
H1382 H 0.73574 0.81744 0.67213 0.0
H1383 H 0.74435 0.80679 0.70198 0.0
H1384 H 0.80264 0.84055 0.63309 0.0
H1385 H 0.82555 0.81765 0.70502 0.0
H1386 H 0.75637 0.88226 0.65189 0.0
H1387 H 0.74249 0.85348 0.64609 0.0
H1388 H 0.76706 0.8641 0.6264 0.0
H1389 H 0.78402 0.85376 0.73888 0.0
H1390 H 0.80238 0.82605 0.74047 0.0
H1391 H 0.76992 0.82475 0.73489 0.0
C1392 C 0.82021 0.04831 0.48936 0.0
C1393 C 0.81241 0.04614 0.51386 0.0
C1394 C 0.83202 0.06949 0.48079 0.0
C1395 C 0.83667 0.08862 0.49731 0.0
C1396 C 0.82758 0.08708 0.52171 0.0
C1397 C 0.81526 0.06593 0.5296 0.0
C1398 C 0.84094 0.07057 0.45448 0.0
C1399 C 0.83233 0.10696 0.53996 0.0
C1400 C 0.89592 0.12221 0.48534 0.0
C1401 C 0.88761 0.14448 0.47519 0.0
C1402 C 0.87943 0.10417 0.49304 0.0
C1403 C 0.85396 0.10832 0.49011 0.0
C1404 C 0.84538 0.13085 0.48 0.0
C1405 C 0.86236 0.14885 0.47287 0.0
C1406 C 0.88933 0.08057 0.50414 0.0
C1407 C 0.81838 0.13565 0.47617 0.0
H1408 H 0.81815 0.03301 0.47714 0.0
H1409 H 0.80863 0.06452 0.54838 0.0
H1410 H 0.83829 0.08921 0.44648 0.0
H1411 H 0.86085 0.06614 0.45375 0.0
H1412 H 0.83129 0.05725 0.44296 0.0
H1413 H 0.82164 0.10435 0.55726 0.0
H1414 H 0.85213 0.10692 0.54442 0.0
H1415 H 0.82774 0.12526 0.53204 0.0
H1416 H 0.91543 0.11887 0.4874 0.0
H1417 H 0.85594 0.16604 0.46489 0.0
H1418 H 0.88458 0.06492 0.49242 0.0
H1419 H 0.88079 0.07726 0.52246 0.0
H1420 H 0.90956 0.08074 0.5062 0.0
H1421 H 0.81116 0.12209 0.46322 0.0
H1422 H 0.81464 0.15438 0.46875 0.0
H1423 H 0.80811 0.13332 0.49372 0.0
C1424 C 0.76474 0.13256 0.23928 0.0
C1425 C 0.78502 0.12415 0.22562 0.0
C1426 C 0.74353 0.14129 0.22773 0.0
C1427 C 0.74217 0.14065 0.20186 0.0
C1428 C 0.76197 0.13065 0.18801 0.0
C1429 C 0.78334 0.12274 0.20007 0.0
C1430 C 0.72298 0.15206 0.2432 0.0
C1431 C 0.76085 0.12892 0.16046 0.0
C1432 C 0.67777 0.15031 0.17769 0.0
C1433 C 0.67807 0.17524 0.1712 0.0
C1434 C 0.69895 0.13838 0.18645 0.0
C1435 C 0.72061 0.15196 0.1895 0.0
C1436 C 0.72103 0.17709 0.18266 0.0
C1437 C 0.69983 0.18834 0.17325 0.0
C1438 C 0.69803 0.11139 0.19286 0.0
C1439 C 0.74357 0.19237 0.18621 0.0
H1440 H 0.76557 0.1327 0.2591 0.0
H1441 H 0.79894 0.11602 0.18948 0.0
H1442 H 0.71995 0.1716 0.23796 0.0
H1443 H 0.70565 0.14234 0.23987 0.0
H1444 H 0.7269 0.151 0.26312 0.0
H1445 H 0.7766 0.11833 0.15271 0.0
H1446 H 0.74357 0.1201 0.15503 0.0
H1447 H 0.76088 0.14759 0.15215 0.0
H1448 H 0.661 0.1401 0.17577 0.0
H1449 H 0.70004 0.20765 0.16828 0.0
H1450 H 0.69942 0.10877 0.21299 0.0
H1451 H 0.71383 0.10153 0.18432 0.0
H1452 H 0.68079 0.10291 0.18676 0.0
H1453 H 0.74793 0.19296 0.206 0.0
H1454 H 0.74112 0.21147 0.17925 0.0
H1455 H 0.7596 0.18395 0.17666 0.0
C1456 C 0.63539 0.84202 0.99945 0.0
C1457 C 0.63193 0.83673 0.97466 0.0
C1458 C 0.6479 0.86307 0.00631 0.0
C1459 C 0.65684 0.87936 0.98794 0.0
C1460 C 0.65478 0.8733 0.96291 0.0
C1461 C 0.6425 0.85192 0.95656 0.0
C1462 C 0.65015 0.86867 0.03322 0.0
C1463 C 0.66391 0.89029 0.94278 0.0
C1464 C 0.65614 0.94636 0.00519 0.0
C1465 C 0.68093 0.95042 0.00947 0.0
C1466 C 0.64819 0.92339 0.99767 0.0
C1467 C 0.66549 0.90398 0.99485 0.0
C1468 C 0.69064 0.90807 0.99918 0.0
C1469 C 0.69811 0.9314 0.00638 0.0
C1470 C 0.62124 0.91986 0.99298 0.0
C1471 C 0.7095 0.88772 0.99671 0.0
H1472 H 0.62746 0.83022 0.01352 0.0
H1473 H 0.63991 0.84794 0.93736 0.0
H1474 H 0.66911 0.87426 0.0374 0.0
H1475 H 0.63772 0.88421 0.03796 0.0
H1476 H 0.6453 0.85271 0.0451 0.0
H1477 H 0.66361 0.88159 0.92449 0.0
H1478 H 0.65213 0.90703 0.94218 0.0
H1479 H 0.68287 0.89618 0.94646 0.0
H1480 H 0.64298 0.96122 0.00776 0.0
H1481 H 0.71726 0.9347 0.01005 0.0
H1482 H 0.61377 0.90592 0.00596 0.0
H1483 H 0.61868 0.91294 0.97417 0.0
H1484 H 0.61039 0.9371 0.99507 0.0
H1485 H 0.70527 0.87276 0.01002 0.0
H1486 H 0.7284 0.89413 -1e-05 0.0
H1487 H 0.70885 0.87979 0.97811 0.0
C1488 C 0.20523 0.31728 0.83056 0.0
C1489 C 0.18364 0.33023 0.83636 0.0
C1490 C 0.22531 0.32918 0.8197 0.0
C1491 C 0.22399 0.35479 0.81521 0.0
C1492 C 0.20278 0.36823 0.82253 0.0
C1493 C 0.18261 0.35569 0.83261 0.0
C1494 C 0.24744 0.31411 0.8119 0.0
C1495 C 0.20118 0.39571 0.81916 0.0
C1496 C 0.28567 0.38162 0.79733 0.0
C1497 C 0.2843 0.38178 0.77168 0.0
C1498 C 0.26548 0.37463 0.81198 0.0
C1499 C 0.24381 0.36676 0.80061 0.0
C1500 C 0.24203 0.36792 0.77475 0.0
C1501 C 0.26211 0.37594 0.76067 0.0
C1502 C 0.26787 0.37466 0.83951 0.0
C1503 C 0.2194 0.35946 0.76182 0.0
H1504 H 0.20602 0.29757 0.83343 0.0
H1505 H 0.16601 0.36575 0.83749 0.0
H1506 H 0.24988 0.31542 0.79169 0.0
H1507 H 0.26423 0.32139 0.82024 0.0
H1508 H 0.24577 0.29447 0.81723 0.0
H1509 H 0.18498 0.40375 0.82884 0.0
H1510 H 0.21801 0.40436 0.82605 0.0
H1511 H 0.19986 0.4004 0.79937 0.0
H1512 H 0.30274 0.38627 0.80598 0.0
H1513 H 0.2606 0.37705 0.74091 0.0
H1514 H 0.27353 0.3561 0.84598 0.0
H1515 H 0.25019 0.37946 0.84867 0.0
H1516 H 0.28196 0.38782 0.84531 0.0
H1517 H 0.2166 0.33967 0.76573 0.0
H1518 H 0.2207 0.36224 0.74163 0.0
H1519 H 0.20294 0.36946 0.76874 0.0
C1520 C 0.30916 0.42864 0.46905 0.0
C1521 C 0.30714 0.44844 0.48505 0.0
C1522 C 0.32087 0.40672 0.47632 0.0
C1523 C 0.33025 0.40448 0.50033 0.0
C1524 C 0.32612 0.42359 0.51724 0.0
C1525 C 0.31491 0.44551 0.50929 0.0
C1526 C 0.32492 0.3868 0.45771 0.0
C1527 C 0.33527 0.42188 0.54319 0.0
C1528 C 0.35775 0.34388 0.52304 0.0
C1529 C 0.38282 0.34809 0.51921 0.0
C1530 C 0.34019 0.362 0.51691 0.0
C1531 C 0.34802 0.38449 0.50632 0.0
C1532 C 0.3733 0.38849 0.50198 0.0
C1533 C 0.39035 0.37033 0.50865 0.0
C1534 C 0.31344 0.3574 0.52233 0.0
C1535 C 0.38243 0.41212 0.49055 0.0
H1536 H 0.30252 0.43066 0.45048 0.0
H1537 H 0.31344 0.46077 0.52175 0.0
H1538 H 0.34448 0.38649 0.45182 0.0
H1539 H 0.3208 0.36855 0.46586 0.0
H1540 H 0.31346 0.38973 0.44121 0.0
H1541 H 0.3241 0.43373 0.55551 0.0
H1542 H 0.33483 0.40281 0.55049 0.0
H1543 H 0.35452 0.42819 0.54358 0.0
H1544 H 0.35194 0.32671 0.53135 0.0
H1545 H 0.40971 0.37355 0.50541 0.0
H1546 H 0.3026 0.35974 0.50538 0.0
H1547 H 0.30635 0.37106 0.53564 0.0
H1548 H 0.31031 0.33872 0.53004 0.0
H1549 H 0.3733 0.41569 0.47277 0.0
H1550 H 0.40259 0.4118 0.48733 0.0
H1551 H 0.37778 0.42768 0.50272 0.0
C1552 C 0.17713 0.53631 0.00768 0.0
C1553 C 0.18398 0.53374 0.983 0.0
C1554 C 0.16568 0.55788 0.01593 0.0
C1555 C 0.16035 0.57698 0.99891 0.0
C1556 C 0.16853 0.57502 0.97426 0.0
C1557 C 0.18055 0.55349 0.96667 0.0
C1558 C 0.15778 0.55937 0.04251 0.0
C1559 C 0.16305 0.59488 0.95549 0.0
C1560 C 0.10106 0.61164 0.011 0.0
C1561 C 0.10937 0.63403 0.01973 0.0
C1562 C 0.11756 0.59317 0.00385 0.0
C1563 C 0.14305 0.59699 0.00591 0.0
C1564 C 0.15164 0.61956 0.01476 0.0
C1565 C 0.13463 0.63801 0.02134 0.0
C1566 C 0.10764 0.56951 0.99416 0.0
C1567 C 0.17868 0.62397 0.01772 0.0
H1568 H 0.17968 0.52105 0.02038 0.0
H1569 H 0.1865 0.55178 0.94773 0.0
H1570 H 0.15987 0.5782 0.04956 0.0
H1571 H 0.13814 0.55453 0.04427 0.0
H1572 H 0.16854 0.54646 0.0542 0.0
H1573 H 0.17315 0.5919 0.93794 0.0
H1574 H 0.1431 0.59526 0.95171 0.0
H1575 H 0.16784 0.61313 0.96259 0.0
H1576 H 0.08154 0.60861 0.00951 0.0
H1577 H 0.14104 0.65528 0.02825 0.0
H1578 H 0.11302 0.554 0.0064 0.0
H1579 H 0.11559 0.5658 0.97573 0.0
H1580 H 0.08733 0.5699 0.99279 0.0
H1581 H 0.18647 0.61025 0.03077 0.0
H1582 H 0.18237 0.64262 0.02459 0.0
H1583 H 0.18847 0.62157 -6e-05 0.0
C1584 C 0.10371 0.06591 0.64756 0.0
C1585 C 0.09939 0.04622 0.66379 0.0
C1586 C 0.12658 0.06916 0.63627 0.0
C1587 C 0.14573 0.05192 0.64074 0.0
C1588 C 0.141 0.03086 0.65549 0.0
C1589 C 0.11789 0.02838 0.66711 0.0
C1590 C 0.13053 0.09203 0.62075 0.0
C1591 C 0.16044 0.01148 0.66004 0.0
C1592 C 0.19471 0.07236 0.59689 0.0
C1593 C 0.20494 0.0907 0.61111 0.0
C1594 C 0.17783 0.0559 0.60748 0.0
C1595 C 0.17099 0.05841 0.63249 0.0
C1596 C 0.18469 0.07391 0.64755 0.0
C1597 C 0.2016 0.08989 0.63662 0.0
C1598 C 0.16484 0.03828 0.59124 0.0
C1599 C 0.17866 0.07669 0.67446 0.0
H1600 H 0.08946 0.0796 0.64441 0.0
H1601 H 0.11464 0.01287 0.67931 0.0
H1602 H 0.14501 0.10332 0.62889 0.0
H1603 H 0.13675 0.08701 0.60203 0.0
H1604 H 0.11364 0.10353 0.61914 0.0
H1605 H 0.15207 0.9931 0.66201 0.0
H1606 H 0.17443 0.01093 0.64508 0.0
H1607 H 0.16978 0.01536 0.67747 0.0
H1608 H 0.19754 0.07268 0.57717 0.0
H1609 H 0.20998 0.10377 0.64769 0.0
H1610 H 0.14756 0.04691 0.58466 0.0
H1611 H 0.16007 0.02124 0.60149 0.0
H1612 H 0.17631 0.03349 0.57496 0.0
H1613 H 0.16138 0.08752 0.67653 0.0
H1614 H 0.19337 0.08629 0.68425 0.0
H1615 H 0.17583 0.05854 0.68334 0.0
C1616 C 0.60731 0.4363 0.32284 0.0
C1617 C 0.59956 0.45786 0.31081 0.0
C1618 C 0.62947 0.435 0.33524 0.0
C1619 C 0.64463 0.45588 0.33582 0.0
C1620 C 0.63688 0.47795 0.32406 0.0
C1621 C 0.61444 0.47864 0.31147 0.0
C1622 C 0.63679 0.41087 0.34727 0.0
C1623 C 0.65234 0.50065 0.32416 0.0
C1624 C 0.68712 0.43847 0.38584 0.0
C1625 C 0.70302 0.42331 0.37234 0.0
C1626 C 0.66998 0.45366 0.37371 0.0
C1627 C 0.66892 0.4532 0.34777 0.0
C1628 C 0.68824 0.44185 0.33439 0.0
C1629 C 0.70503 0.42675 0.3469 0.0
C1630 C 0.65047 0.46667 0.38863 0.0
C1631 C 0.68857 0.44191 0.30675 0.0
H1632 H 0.59617 0.42003 0.32227 0.0
H1633 H 0.60857 0.4954 0.30225 0.0
H1634 H 0.65393 0.40371 0.33864 0.0
H1635 H 0.6403 0.41346 0.36703 0.0
H1636 H 0.62247 0.39672 0.34565 0.0
H1637 H 0.64076 0.5175 0.32254 0.0
H1638 H 0.66341 0.50172 0.34102 0.0
H1639 H 0.6651 0.50031 0.30816 0.0
H1640 H 0.68571 0.43599 0.40557 0.0
H1641 H 0.71765 0.41525 0.3365 0.0
H1642 H 0.63425 0.4547 0.39062 0.0
H1643 H 0.64453 0.48397 0.37941 0.0
H1644 H 0.65709 0.47084 0.40727 0.0
H1645 H 0.67548 0.42809 0.30023 0.0
H1646 H 0.70708 0.43719 0.29931 0.0
H1647 H 0.6828 0.46007 0.29931 0.0
C1648 C 0.36571 0.97107 0.17454 0.0
C1649 C 0.3827 0.95151 0.17373 0.0
C1650 C 0.34321 0.96978 0.16222 0.0
C1651 C 0.33746 0.94823 0.14938 0.0
C1652 C 0.35503 0.92889 0.14782 0.0
C1653 C 0.37737 0.93094 0.15971 0.0
C1654 C 0.32547 0.99116 0.16385 0.0
C1655 C 0.34992 0.90533 0.13456 0.0
C1656 C 0.2794 0.91492 0.14327 0.0
C1657 C 0.27938 0.91248 0.11774 0.0
C1658 C 0.29585 0.93062 0.15443 0.0
C1659 C 0.3126 0.94392 0.13954 0.0
C1660 C 0.30901 0.94527 0.11388 0.0
C1661 C 0.29243 0.92924 0.1031 0.0
C1662 C 0.2982 0.92949 0.18195 0.0
C1663 C 0.32538 0.96064 0.09756 0.0
H1664 H 0.36976 0.98718 0.18508 0.0
H1665 H 0.39038 0.91579 0.15865 0.0
H1666 H 0.31259 0.99184 0.14828 0.0
H1667 H 0.31463 0.98957 0.18115 0.0
H1668 H 0.33548 0.00874 0.16436 0.0
H1669 H 0.36561 0.89215 0.13519 0.0
H1670 H 0.3337 0.89624 0.14291 0.0
H1671 H 0.34581 0.90932 0.11504 0.0
H1672 H 0.26883 0.90228 0.15458 0.0
H1673 H 0.29216 0.92767 0.08331 0.0
H1674 H 0.30183 0.94792 0.18928 0.0
H1675 H 0.31388 0.91727 0.18683 0.0
H1676 H 0.28138 0.92219 0.19097 0.0
H1677 H 0.33032 0.97789 0.10674 0.0
H1678 H 0.3164 0.96516 0.07988 0.0
H1679 H 0.34258 0.95027 0.09353 0.0
C1680 C 0.81166 0.55961 0.89649 0.0
C1681 C 0.79689 0.57498 0.88197 0.0
C1682 C 0.82963 0.54445 0.88549 0.0
C1683 C 0.83281 0.54524 0.85966 0.0
C1684 C 0.81482 0.55715 0.8451 0.0
C1685 C 0.79701 0.57197 0.85652 0.0
C1686 C 0.84761 0.53084 0.9016 0.0
C1687 C 0.81698 0.55806 0.81749 0.0
C1688 C 0.8964 0.56025 0.83641 0.0
C1689 C 0.90321 0.53923 0.82334 0.0
C1690 C 0.87396 0.56187 0.8489 0.0
C1691 C 0.8578 0.54174 0.84884 0.0
C1692 C 0.86492 0.51995 0.83665 0.0
C1693 C 0.88757 0.51899 0.82387 0.0
C1694 C 0.86718 0.58574 0.86123 0.0
C1695 C 0.84871 0.49776 0.83708 0.0
H1696 H 0.81146 0.5618 0.91622 0.0
H1697 H 0.78533 0.58371 0.84533 0.0
H1698 H 0.85398 0.51359 0.89289 0.0
H1699 H 0.86386 0.54244 0.90441 0.0
H1700 H 0.83936 0.52649 0.91986 0.0
H1701 H 0.79924 0.56324 0.80894 0.0
H1702 H 0.83074 0.57197 0.81197 0.0
H1703 H 0.82324 0.54015 0.81017 0.0
H1704 H 0.90832 0.57598 0.83626 0.0
H1705 H 0.89291 0.50251 0.81416 0.0
H1706 H 0.86335 0.5825 0.88101 0.0
H1707 H 0.85032 0.59362 0.85294 0.0
H1708 H 0.8819 0.59957 0.85948 0.0
H1709 H 0.8489 0.48934 0.8557 0.0
H1710 H 0.85503 0.48376 0.82372 0.0
H1711 H 0.82943 0.50296 0.83308 0.0
C1712 C 0.66089 0.10751 0.06349 0.0
C1713 C 0.67339 0.10102 0.04185 0.0
C1714 C 0.64887 0.13014 0.06569 0.0
C1715 C 0.64896 0.1469 0.04559 0.0
C1716 C 0.66119 0.14044 0.02346 0.0
C1717 C 0.67336 0.11753 0.02186 0.0
C1718 C 0.63648 0.1362 0.08992 0.0
C1719 C 0.66118 0.15747 0.00143 0.0
C1720 C 0.59927 0.19074 0.06343 0.0
C1721 C 0.61274 0.20532 0.07913 0.0
C1722 C 0.61138 0.17373 0.04819 0.0
C1723 C 0.63727 0.17144 0.04912 0.0
C1724 C 0.65078 0.1895 0.06123 0.0
C1725 C 0.63827 0.20625 0.07627 0.0
C1726 C 0.59636 0.15559 0.03447 0.0
C1727 C 0.67841 0.18838 0.06207 0.0
H1728 H 0.66081 0.095 0.0791 0.0
H1729 H 0.68278 0.11257 0.005 0.0
H1730 H 0.64476 0.15276 0.09777 0.0
H1731 H 0.61671 0.14019 0.08714 0.0
H1732 H 0.63809 0.12101 0.10361 0.0
H1733 H 0.67556 0.15226 0.98778 0.0
H1734 H 0.6431 0.15664 0.99244 0.0
H1735 H 0.66398 0.17675 0.00683 0.0
H1736 H 0.57948 0.19012 0.06552 0.0
H1737 H 0.64865 0.21779 0.08828 0.0
H1738 H 0.59413 0.13874 0.04589 0.0
H1739 H 0.60566 0.15033 0.01708 0.0
H1740 H 0.57783 0.16314 0.03036 0.0
H1741 H 0.68411 0.17469 0.07621 0.0
H1742 H 0.68612 0.20639 0.06696 0.0
H1743 H 0.68639 0.18262 0.04422 0.0
C1744 C 0.52125 0.82289 0.88992 0.0
C1745 C 0.54237 0.82013 0.9042 0.0
C1746 C 0.52154 0.8373 0.86824 0.0
C1747 C 0.54353 0.84888 0.86064 0.0
C1748 C 0.56479 0.84616 0.87516 0.0
C1749 C 0.56386 0.83203 0.89667 0.0
C1750 C 0.49828 0.8405 0.85382 0.0
C1751 C 0.58881 0.85798 0.86794 0.0
C1752 C 0.56832 0.86346 0.79839 0.0
C1753 C 0.57274 0.88848 0.80124 0.0
C1754 C 0.55493 0.85032 0.81618 0.0
C1755 C 0.54558 0.86275 0.83699 0.0
C1756 C 0.54589 0.88872 0.83724 0.0
C1757 C 0.5598 0.90139 0.81937 0.0
C1758 C 0.5549 0.82271 0.81485 0.0
C1759 C 0.53492 0.90278 0.85839 0.0
H1760 H 0.50447 0.814 0.89576 0.0
H1761 H 0.58031 0.83005 0.90749 0.0
H1762 H 0.49085 0.8593 0.85658 0.0
H1763 H 0.50189 0.83842 0.8339 0.0
H1764 H 0.48406 0.8272 0.85974 0.0
H1765 H 0.60405 0.85242 0.88023 0.0
H1766 H 0.59407 0.85301 0.84896 0.0
H1767 H 0.58675 0.87822 0.86847 0.0
H1768 H 0.57838 0.85351 0.78431 0.0
H1769 H 0.56319 0.92077 0.82159 0.0
H1770 H 0.53752 0.81513 0.82227 0.0
H1771 H 0.57015 0.81513 0.82606 0.0
H1772 H 0.55763 0.81639 0.79572 0.0
H1773 H 0.51782 0.89408 0.86524 0.0
H1774 H 0.53084 0.92212 0.85304 0.0
H1775 H 0.54814 0.90282 0.87368 0.0
C1776 C 0.85702 0.79086 0.57413 0.0
C1777 C 0.88239 0.79271 0.5771 0.0
C1778 C 0.84402 0.80849 0.56042 0.0
C1779 C 0.85689 0.82829 0.54952 0.0
C1780 C 0.88287 0.82737 0.54855 0.0
C1781 C 0.89545 0.80952 0.56258 0.0
C1782 C 0.81637 0.8083 0.56155 0.0
C1783 C 0.89731 0.84748 0.53611 0.0
C1784 C 0.81872 0.88228 0.52471 0.0
C1785 C 0.8173 0.89725 0.54543 0.0
C1786 C 0.83202 0.85991 0.52529 0.0
C1787 C 0.84397 0.85243 0.54713 0.0
C1788 C 0.84262 0.86765 0.56797 0.0
C1789 C 0.82945 0.88974 0.56679 0.0
C1790 C 0.83356 0.84457 0.50252 0.0
C1791 C 0.85477 0.86051 0.59185 0.0
H1792 H 0.84695 0.77769 0.58529 0.0
H1793 H 0.91511 0.81094 0.5648 0.0
H1794 H 0.80987 0.82031 0.57664 0.0
H1795 H 0.80838 0.81541 0.54423 0.0
H1796 H 0.8094 0.78954 0.56525 0.0
H1797 H 0.91627 0.84123 0.53154 0.0
H1798 H 0.88818 0.85393 0.5191 0.0
H1799 H 0.89845 0.86329 0.54862 0.0
H1800 H 0.80961 0.88808 0.50803 0.0
H1801 H 0.82847 0.90106 0.58296 0.0
H1802 H 0.83076 0.82489 0.50698 0.0
H1803 H 0.85213 0.84625 0.49418 0.0
H1804 H 0.81989 0.85055 0.48868 0.0
H1805 H 0.84776 0.84263 0.59852 0.0
H1806 H 0.85145 0.87422 0.60644 0.0
H1807 H 0.87486 0.85846 0.58897 0.0
C1808 C 0.94107 0.16028 0.38471 0.0
C1809 C 0.96102 0.17522 0.3898 0.0
C1810 C 0.94052 0.14626 0.36352 0.0
C1811 C 0.96073 0.14669 0.34687 0.0
C1812 C 0.98174 0.1604 0.35265 0.0
C1813 C 0.98158 0.17471 0.37402 0.0
C1814 C 0.91789 0.13124 0.35916 0.0
C1815 C 0.0045 0.15963 0.33663 0.0
C1816 C 0.94219 0.09822 0.30406 0.0
C1817 C 0.92734 0.11273 0.28875 0.0
C1818 C 0.95791 0.10933 0.32075 0.0
C1819 C 0.95781 0.13523 0.32246 0.0
C1820 C 0.94658 0.1495 0.30373 0.0
C1821 C 0.9317 0.13792 0.28679 0.0
C1822 C 0.97152 0.09346 0.33899 0.0
C1823 C 0.94616 0.17717 0.30434 0.0
H1824 H 0.92531 0.15994 0.39704 0.0
H1825 H 0.99742 0.18559 0.37823 0.0
H1826 H 0.91257 0.13171 0.33966 0.0
H1827 H 0.92176 0.11185 0.36432 0.0
H1828 H 0.90191 0.13763 0.37032 0.0
H1829 H 0.01703 0.17492 0.34058 0.0
H1830 H 0.01445 0.14208 0.34016 0.0
H1831 H -3e-05 0.16024 0.31687 0.0
H1832 H 0.93912 0.07865 0.30541 0.0
H1833 H 0.92038 0.14907 0.27467 0.0
H1834 H 0.9596 0.08999 0.35527 0.0
H1835 H 0.98837 0.1026 0.34518 0.0
H1836 H 0.97658 0.07546 0.33094 0.0
H1837 H 0.93285 0.18331 0.31866 0.0
H1838 H 0.94049 0.18534 0.28649 0.0
H1839 H 0.96439 0.18434 0.30901 0.0
C1840 C 0.14081 0.27998 0.92867 0.0
C1841 C 0.11598 0.28518 0.9245 0.0
C1842 C 0.15466 0.29549 0.94319 0.0
C1843 C 0.14324 0.31659 0.9532 0.0
C1844 C 0.11731 0.3185 0.9535 0.0
C1845 C 0.10383 0.30261 0.93898 0.0
C1846 C 0.1821 0.29193 0.94368 0.0
C1847 C 0.10425 0.34002 0.96511 0.0
C1848 C 0.18147 0.36968 0.97602 0.0
C1849 C 0.18366 0.38393 0.95449 0.0
C1850 C 0.16833 0.34759 0.97622 0.0
C1851 C 0.15764 0.33951 0.95426 0.0
C1852 C 0.16042 0.35365 0.93239 0.0
C1853 C 0.17325 0.37557 0.93286 0.0
C1854 C 0.16625 0.33295 0.9998 0.0
C1855 C 0.14978 0.34581 0.90827 0.0
H1856 H 0.15015 0.26624 0.91765 0.0
H1857 H 0.08454 0.30648 0.93592 0.0
H1858 H 0.18961 0.29806 0.96133 0.0
H1859 H 0.18739 0.27243 0.94085 0.0
H1860 H 0.19059 0.30307 0.92871 0.0
H1861 H 0.08476 0.33579 0.96932 0.0
H1862 H 0.1134 0.34542 0.98223 0.0
H1863 H 0.10469 0.3559 0.95218 0.0
H1864 H 0.18963 0.37596 0.99278 0.0
H1865 H 0.17515 0.38623 0.91604 0.0
H1866 H 0.18088 0.31863 6e-05 0.0
H1867 H 0.14834 0.32365 0.0015 0.0
H1868 H 0.16865 0.34472 0.01603 0.0
H1869 H 0.1575 0.32769 0.90302 0.0
H1870 H 0.15368 0.359 0.89306 0.0
H1871 H 0.1296 0.34402 0.91009 0.0
C1872 C 0.43994 0.39119 0.68628 0.0
C1873 C 0.42297 0.37787 0.70039 0.0
C1874 C 0.45601 0.37894 0.67003 0.0
C1875 C 0.45434 0.35317 0.66777 0.0
C1876 C 0.44088 0.33968 0.68562 0.0
C1877 C 0.42522 0.3523 0.70177 0.0
C1878 C 0.47155 0.39381 0.65248 0.0
C1879 C 0.43918 0.31213 0.6846 0.0
C1880 C 0.43958 0.33069 0.60473 0.0
C1881 C 0.45977 0.31555 0.59904 0.0
C1882 C 0.43832 0.34375 0.62649 0.0
C1883 C 0.45796 0.34203 0.64321 0.0
C1884 C 0.47907 0.32781 0.63715 0.0
C1885 C 0.47972 0.31462 0.61506 0.0
C1886 C 0.41524 0.3585 0.63196 0.0
C1887 C 0.50091 0.32653 0.65381 0.0
H1888 H 0.43843 0.41102 0.68544 0.0
H1889 H 0.4123 0.34205 0.71306 0.0
H1890 H 0.4887 0.38373 0.64758 0.0
H1891 H 0.46123 0.39738 0.63537 0.0
H1892 H 0.47625 0.41176 0.66043 0.0
H1893 H 0.43264 0.30423 0.70236 0.0
H1894 H 0.42596 0.30719 0.67024 0.0
H1895 H 0.45718 0.30367 0.6798 0.0
H1896 H 0.42418 0.33191 0.59239 0.0
H1897 H 0.4956 0.30333 0.61061 0.0
H1898 H 0.41977 0.37794 0.63509 0.0
H1899 H 0.40618 0.35126 0.64884 0.0
H1900 H 0.40186 0.35797 0.61681 0.0
H1901 H 0.51118 0.34389 0.65197 0.0
H1902 H 0.51355 0.31112 0.64908 0.0
H1903 H 0.49515 0.32456 0.67332 0.0
C1904 C 0.35404 0.70467 0.4288 0.0
C1905 C 0.3792 0.7011 0.42455 0.0
C1906 C 0.3408 0.68797 0.44336 0.0
C1907 C 0.3532 0.66731 0.45345 0.0
C1908 C 0.37918 0.66682 0.45349 0.0
C1909 C 0.39202 0.68387 0.43886 0.0
C1910 C 0.31319 0.68991 0.44386 0.0
C1911 C 0.39317 0.6458 0.46514 0.0
C1912 C 0.31606 0.61296 0.47765 0.0
C1913 C 0.3145 0.59889 0.45638 0.0
C1914 C 0.3287 0.63534 0.47732 0.0
C1915 C 0.33991 0.6437 0.4552 0.0
C1916 C 0.33814 0.62954 0.43369 0.0
C1917 C 0.32562 0.60741 0.43464 0.0
C1918 C 0.33039 0.64962 0.5007 0.0
C1919 C 0.34927 0.63776 0.4094 0.0
H1920 H 0.34416 0.7182 0.41785 0.0
H1921 H 0.41155 0.68121 0.4357 0.0
H1922 H 0.30578 0.6788 0.42883 0.0
H1923 H 0.30553 0.68278 0.46146 0.0
H1924 H 0.30687 0.70919 0.44109 0.0
H1925 H 0.41242 0.65087 0.46885 0.0
H1926 H 0.38419 0.63982 0.48255 0.0
H1927 H 0.39351 0.63002 0.4525 0.0
H1928 H 0.30763 0.6064 0.49457 0.0
H1929 H 0.32432 0.59685 0.41804 0.0
H1930 H 0.32948 0.66968 0.49712 0.0
H1931 H 0.34824 0.64538 0.50941 0.0
H1932 H 0.31558 0.64461 0.51395 0.0
H1933 H 0.34118 0.65567 0.40367 0.0
H1934 H 0.34622 0.62448 0.39452 0.0
H1935 H 0.36932 0.64017 0.41122 0.0
C1936 C 0.0184 0.66962 0.1206 0.0
C1937 C 0.03862 0.6705 0.1044 0.0
C1938 C 0.01987 0.65665 0.14312 0.0
C1939 C 0.04207 0.64445 0.14946 0.0
C1940 C 0.06228 0.64501 0.13286 0.0
C1941 C 0.06024 0.65785 0.11069 0.0
C1942 C 0.99766 0.65582 0.15987 0.0
C1943 C 0.08657 0.63267 0.13872 0.0
C1944 C 0.07321 0.63364 0.20842 0.0
C1945 C 0.07694 0.60826 0.20691 0.0
C1946 C 0.05757 0.64599 0.1921 0.0
C1947 C 0.04572 0.63246 0.17386 0.0
C1948 C 0.0456 0.60652 0.17571 0.0
C1949 C 0.06149 0.59457 0.19225 0.0
C1950 C 0.05755 0.67365 0.19149 0.0
C1951 C 0.03206 0.59145 0.15748 0.0
H1952 H 0.00152 0.67909 0.11576 0.0
H1953 H 0.07602 0.6583 0.09839 0.0
H1954 H 0.98886 0.63771 0.15825 0.0
H1955 H 0.00279 0.65792 0.17933 0.0
H1956 H 0.98393 0.67025 0.15502 0.0
H1957 H 0.10022 0.63457 0.12353 0.0
H1958 H 0.09438 0.64082 0.15537 0.0
H1959 H 0.08396 0.61284 0.14244 0.0
H1960 H 0.08499 0.64418 0.22005 0.0
H1961 H 0.0642 0.57488 0.19121 0.0
H1962 H 0.03938 0.68117 0.18614 0.0
H1963 H 0.0713 0.68003 0.17771 0.0
H1964 H 0.06246 0.68116 0.20958 0.0
H1965 H 0.01442 0.60045 0.15249 0.0
H1966 H 0.02841 0.57275 0.16485 0.0
H1967 H 0.04338 0.58966 0.14052 0.0
C1968 C 0.34106 0.12216 0.54281 0.0
C1969 C 0.32552 0.13172 0.52463 0.0
C1970 C 0.36379 0.13298 0.54729 0.0
C1971 C 0.37114 0.15352 0.53299 0.0
C1972 C 0.35702 0.16096 0.51253 0.0
C1973 C 0.33443 0.14993 0.50858 0.0
C1974 C 0.37867 0.12396 0.56878 0.0
C1975 C 0.36434 0.18248 0.49643 0.0
C1976 C 0.39839 0.21004 0.55941 0.0
C1977 C 0.42143 0.21044 0.54775 0.0
C1978 C 0.3827 0.19024 0.55673 0.0
C1979 C 0.39022 0.17034 0.54186 0.0
C1980 C 0.41449 0.16945 0.53223 0.0
C1981 C 0.42993 0.18963 0.5353 0.0
C1982 C 0.3571 0.19198 0.56764 0.0
C1983 C 0.4234 0.14835 0.51677 0.0
H1984 H 0.33486 0.10726 0.55453 0.0
H1985 H 0.32282 0.1572 0.49415 0.0
H1986 H 0.39861 0.12511 0.56473 0.0
H1987 H 0.37455 0.13566 0.58484 0.0
H1988 H 0.37417 0.10474 0.57388 0.0
H1989 H 0.35329 0.18377 0.47949 0.0
H1990 H 0.36164 0.19972 0.50675 0.0
H1991 H 0.384 0.18109 0.49112 0.0
H1992 H 0.39196 0.22603 0.56934 0.0
H1993 H 0.44776 0.18992 0.52628 0.0
H1994 H 0.35184 0.17438 0.57652 0.0
H1995 H 0.34382 0.19597 0.55282 0.0
H1996 H 0.35536 0.20674 0.58142 0.0
H1997 H 0.41583 0.13071 0.52357 0.0
H1998 H 0.44375 0.14698 0.51644 0.0
H1999 H 0.41718 0.15124 0.49765 0.0
C2000 C 0.53888 0.58509 0.28766 0.0
C2001 C 0.52892 0.57694 0.2657 0.0
C2002 C 0.52726 0.60372 0.30119 0.0
C2003 C 0.50582 0.61518 0.29192 0.0
C2004 C 0.49739 0.60898 0.26839 0.0
C2005 C 0.50894 0.58978 0.25563 0.0
C2006 C 0.53681 0.6097 0.32623 0.0
C2007 C 0.47509 0.62139 0.25744 0.0
C2008 C 0.45459 0.63711 0.33413 0.0
C2009 C 0.45795 0.66252 0.33372 0.0
C2010 C 0.47086 0.62142 0.32161 0.0
C2011 C 0.49057 0.63148 0.30778 0.0
C2012 C 0.49452 0.65707 0.30796 0.0
C2013 C 0.4783 0.67229 0.32122 0.0
C2014 C 0.46635 0.59415 0.32241 0.0
C2015 C 0.51492 0.66855 0.29297 0.0
H2016 H 0.55504 0.57604 0.29497 0.0
H2017 H 0.50131 0.58387 0.23848 0.0
H2018 H 0.53777 0.62981 0.32863 0.0
H2019 H 0.52398 0.60249 0.34047 0.0
H2020 H 0.55526 0.60148 0.32944 0.0
H2021 H 0.47313 0.61713 0.23771 0.0
H2022 H 0.45837 0.61516 0.26739 0.0
H2023 H 0.47606 0.64156 0.25941 0.0
H2024 H 0.4389 0.62953 0.34387 0.0
H2025 H 0.48074 0.69198 0.32061 0.0
H2026 H 0.48344 0.58402 0.32726 0.0
H2027 H 0.46083 0.58794 0.30403 0.0
H2028 H 0.45172 0.58911 0.33586 0.0
H2029 H 0.53253 0.65863 0.29598 0.0
H2030 H 0.51734 0.68819 0.29736 0.0
H2031 H 0.51069 0.6672 0.2732 0.0
C2032 C 0.06603 0.79446 0.03385 0.0
C2033 C 0.07509 0.77323 0.04553 0.0
C2034 C 0.0808 0.8153 0.03102 0.0
C2035 C 0.1049 0.81482 0.04046 0.0
C2036 C 0.1132 0.7941 0.0541 0.0
C2037 C 0.09829 0.77348 0.05621 0.0
C2038 C 0.0713 0.83695 0.01632 0.0
C2039 C 0.13855 0.79292 0.06499 0.0
C2040 C 0.16018 0.84372 0.01067 0.0
C2041 C 0.1661 0.86148 0.02794 0.0
C2042 C 0.13874 0.83002 0.01316 0.0
C2043 C 0.12287 0.83406 0.03348 0.0
C2044 C 0.12709 0.85398 0.04913 0.0
C2045 C 0.14849 0.8678 0.04585 0.0
C2046 C 0.13452 0.80949 0.99547 0.0
C2047 C 0.1104 0.85922 0.07075 0.0
H2048 H 0.04811 0.79421 0.02551 0.0
H2049 H 0.10517 0.75713 0.0655 0.0
H2050 H 0.07703 0.8545 0.02436 0.0
H2051 H 0.07905 0.83616 0.99743 0.0
H2052 H 0.05098 0.83691 0.01512 0.0
H2053 H 0.14092 0.77696 0.07767 0.0
H2054 H 0.15246 0.79137 0.05004 0.0
H2055 H 0.14232 0.80991 0.07515 0.0
H2056 H 0.17323 0.83899 0.99629 0.0
H2057 H 0.15202 0.88254 0.0583 0.0
H2058 H 0.11501 0.80906 0.99006 0.0
H2059 H 0.13901 0.79168 0.00454 0.0
H2060 H 0.14612 0.81127 0.97865 0.0
H2061 H 0.09088 0.85699 0.0659 0.0
H2062 H 0.11296 0.87803 0.07775 0.0
H2063 H 0.11457 0.84595 0.08577 0.0
C2064 C 0.04407 0.35556 0.83567 0.0
C2065 C 0.03998 0.33027 0.8354 0.0
C2066 C 0.02773 0.37213 0.82442 0.0
C2067 C 0.00707 0.36313 0.8121 0.0
C2068 C 0.00239 0.33767 0.81245 0.0
C2069 C 0.0188 0.32152 0.82435 0.0
C2070 C 0.03311 0.39922 0.82496 0.0
C2071 C 0.98086 0.32734 0.79911 0.0
C2072 C 0.95923 0.41167 0.79621 0.0
C2073 C 0.96803 0.42006 0.77336 0.0
C2074 C 0.97102 0.39228 0.8087 0.0
C2075 C 0.99149 0.38044 0.79761 0.0
C2076 C 0.99873 0.38711 0.77342 0.0
C2077 C 0.987 0.40696 0.76163 0.0
C2078 C 0.96275 0.38578 0.83447 0.0
C2079 C 0.02 0.37444 0.76063 0.0
H2080 H 0.06035 0.36239 0.84433 0.0
H2081 H 0.01571 0.30194 0.82388 0.0
H2082 H 0.03779 0.4059 0.80619 0.0
H2083 H 0.01666 0.40967 0.83126 0.0
H2084 H 0.04861 0.40337 0.83717 0.0
H2085 H 0.97825 0.30756 0.80337 0.0
H2086 H 0.96373 0.33748 0.80388 0.0
H2087 H 0.98388 0.32955 0.77905 0.0
H2088 H 0.94386 0.42102 0.80489 0.0
H2089 H 0.99372 0.41311 0.74382 0.0
H2090 H 0.97662 0.39205 0.84761 0.0
H2091 H 0.96121 0.36564 0.83687 0.0
H2092 H 0.94482 0.3945 0.83928 0.0
H2093 H 0.03741 0.37976 0.76927 0.0
H2094 H 0.02107 0.37937 0.74081 0.0
H2095 H 0.01848 0.35425 0.76253 0.0
C2096 C 0.8307 0.35373 0.47252 0.0
C2097 C 0.82289 0.37078 0.45462 0.0
C2098 C 0.8521 0.33962 0.46915 0.0
C2099 C 0.86606 0.34245 0.44727 0.0
C2100 C 0.85996 0.36155 0.43053 0.0
C2101 C 0.83871 0.37588 0.43472 0.0
C2102 C 0.85842 0.32007 0.488 0.0
C2103 C 0.87455 0.36547 0.40714 0.0
C2104 C 0.92483 0.30419 0.44638 0.0
C2105 C 0.91616 0.28199 0.43748 0.0
C2106 C 0.90918 0.32482 0.44826 0.0
C2107 C 0.88451 0.32318 0.44068 0.0
C2108 C 0.87641 0.3014 0.42968 0.0
C2109 C 0.89225 0.281 0.42849 0.0
C2110 C 0.91852 0.34761 0.46017 0.0
C2111 C 0.85044 0.299 0.42074 0.0
H2112 H 0.81918 0.34994 0.48843 0.0
H2113 H 0.83396 0.39016 0.42164 0.0
H2114 H 0.85405 0.30178 0.48068 0.0
H2115 H 0.8783 0.32012 0.49198 0.0
H2116 H 0.848 0.32257 0.50545 0.0
H2117 H 0.87065 0.38372 0.39868 0.0
H2118 H 0.89452 0.36371 0.41046 0.0
H2119 H 0.86967 0.35119 0.39383 0.0
H2120 H 0.9433 0.30495 0.45343 0.0
H2121 H 0.88561 0.26392 0.42132 0.0
H2122 H 0.91182 0.34814 0.47946 0.0
H2123 H 0.91156 0.3644 0.45074 0.0
H2124 H 0.93888 0.34796 0.46022 0.0
H2125 H 0.8376 0.29827 0.43669 0.0
H2126 H 0.84801 0.28218 0.40982 0.0
H2127 H 0.84516 0.31516 0.40931 0.0
C2128 C 0.47214 0.06787 0.1927 0.0
C2129 C 0.45807 0.07006 0.21435 0.0
C2130 C 0.48517 0.08773 0.18287 0.0
C2131 C 0.48487 0.11027 0.19535 0.0
C2132 C 0.47049 0.11284 0.21701 0.0
C2133 C 0.45724 0.09269 0.22624 0.0
C2134 C 0.50015 0.08426 0.15962 0.0
C2135 C 0.47006 0.13646 0.23109 0.0
C2136 C 0.54254 0.14743 0.1859 0.0
C2137 C 0.535 0.16539 0.16883 0.0
C2138 C 0.52617 0.12992 0.1952 0.0
C2139 C 0.50164 0.1301 0.18702 0.0
C2140 C 0.49379 0.14824 0.16993 0.0
C2141 C 0.51053 0.1658 0.16114 0.0
C2142 C 0.53528 0.11093 0.21347 0.0
C2143 C 0.46788 0.14878 0.16055 0.0
H2144 H 0.47416 0.05034 0.1839 0.0
H2145 H 0.44675 0.09445 0.24316 0.0
H2146 H 0.49452 0.09808 0.14561 0.0
H2147 H 0.51984 0.08716 0.16327 0.0
H2148 H 0.49808 0.06568 0.15187 0.0
H2149 H 0.45628 0.13627 0.24627 0.0
H2150 H 0.48841 0.13951 0.23895 0.0
H2151 H 0.46599 0.15222 0.21866 0.0
H2152 H 0.56132 0.14707 0.19217 0.0
H2153 H 0.50454 0.17961 0.14798 0.0
H2154 H 0.53457 0.09242 0.20535 0.0
H2155 H 0.52328 0.11078 0.23006 0.0
H2156 H 0.55442 0.11429 0.21915 0.0
H2157 H 0.46437 0.13173 0.1504 0.0
H2158 H 0.46433 0.16474 0.14817 0.0
H2159 H 0.45461 0.14945 0.17613 0.0
C2160 C 0.56982 0.69147 0.95957 0.0
C2161 C 0.58095 0.71453 0.95966 0.0
C2162 C 0.58412 0.66974 0.95912 0.0
C2163 C 0.61005 0.67122 0.95896 0.0
C2164 C 0.62126 0.69449 0.95844 0.0
C2165 C 0.60663 0.71571 0.95874 0.0
C2166 C 0.57146 0.64533 0.95936 0.0
C2167 C 0.64886 0.69709 0.95776 0.0
C2168 C 0.65777 0.62686 0.98216 0.0
C2169 C 0.67082 0.62215 0.96027 0.0
C2170 C 0.63566 0.64037 0.98202 0.0
C2171 C 0.62614 0.64894 0.95943 0.0
C2172 C 0.63686 0.64062 0.93729 0.0
C2173 C 0.65914 0.62746 0.93794 0.0
C2174 C 0.62448 0.64828 0.00613 0.0
C2175 C 0.62676 0.64848 0.91274 0.0
H2176 H 0.54999 0.69037 0.96027 0.0
H2177 H 0.6155 0.73337 0.95845 0.0
H2178 H 0.58088 0.63226 0.94685 0.0
H2179 H 0.57203 0.63727 0.97813 0.0
H2180 H 0.55195 0.64721 0.95398 0.0
H2181 H 0.65461 0.71655 0.95789 0.0
H2182 H 0.65709 0.68747 0.97377 0.0
H2183 H 0.65655 0.68852 0.94097 0.0
H2184 H 0.66605 0.62222 0.9996 0.0
H2185 H 0.66814 0.62386 0.92069 0.0
H2186 H 0.60418 0.64801 0.0055 0.0
H2187 H 0.62999 0.66738 0.00983 0.0
H2188 H 0.63072 0.63637 0.02158 0.0
H2189 H 0.63289 0.63587 0.89798 0.0
H2190 H 0.63341 0.66711 0.908 0.0
H2191 H 0.60642 0.64924 0.91324 0.0
C2192 C 0.02897 0.90405 0.72448 0.0
C2193 C 0.02829 0.92622 0.71115 0.0
C2194 C 0.01675 0.88326 0.71616 0.0
C2195 C 0.00349 0.88473 0.69402 0.0
C2196 C 0.0034 0.90678 0.68011 0.0
C2197 C 0.01549 0.92725 0.68897 0.0
C2198 C 0.01703 0.86011 0.73163 0.0
C2199 C 0.98938 0.90925 0.65647 0.0
C2200 C 0.98101 0.82823 0.66146 0.0
C2201 C 0.95609 0.8283 0.66825 0.0
C2202 C 0.99692 0.84605 0.67028 0.0
C2203 C 0.98772 0.86421 0.6864 0.0
C2204 C 0.96275 0.86397 0.69381 0.0
C2205 C 0.94725 0.84612 0.68458 0.0
C2206 C 0.02337 0.84592 0.66177 0.0
C2207 C 0.95221 0.88297 0.71103 0.0
H2208 H 0.03849 0.90318 0.7418 0.0
H2209 H 0.01361 0.94437 0.67897 0.0
H2210 H 0.99841 0.85688 0.73935 0.0
H2211 H 0.02203 0.84407 0.72024 0.0
H2212 H 0.0301 0.86111 0.74702 0.0
H2213 H 0.99338 0.92667 0.64651 0.0
H2214 H 0.9939 0.89373 0.6442 0.0
H2215 H 0.9694 0.90871 0.6605 0.0
H2216 H 0.98803 0.81452 0.6489 0.0
H2217 H 0.9281 0.84623 0.69016 0.0
H2218 H 0.03571 0.84624 0.67776 0.0
H2219 H 0.02701 0.86268 0.65061 0.0
H2220 H 0.02808 0.82963 0.65057 0.0
H2221 H 0.96333 0.88374 0.72787 0.0
H2222 H 0.9329 0.87916 0.71642 0.0
H2223 H 0.95282 0.90136 0.70211 0.0
C2224 C 0.50679 0.33013 0.14737 0.0
C2225 C 0.52465 0.32246 0.13023 0.0
C2226 C 0.50887 0.35244 0.15951 0.0
C2227 C 0.52936 0.36741 0.1545 0.0
C2228 C 0.54563 0.36135 0.13502 0.0
C2229 C 0.5428 0.33907 0.12278 0.0
C2230 C 0.49056 0.35857 0.1796 0.0
C2231 C 0.56739 0.37709 0.12868 0.0
C2232 C 0.52891 0.42636 0.19087 0.0
C2233 C 0.54004 0.41812 0.21252 0.0
C2234 C 0.52658 0.41056 0.17086 0.0
C2235 C 0.53594 0.38624 0.17264 0.0
C2236 C 0.54903 0.37867 0.19376 0.0
C2237 C 0.55068 0.39462 0.2135 0.0
C2238 C 0.51254 0.41935 0.14871 0.0
C2239 C 0.55984 0.35309 0.19627 0.0
H2240 H 0.4922 0.31788 0.15289 0.0
H2241 H 0.55571 0.33417 0.10839 0.0
H2242 H 0.49906 0.35504 0.19771 0.0
H2243 H 0.48519 0.37824 0.17867 0.0
H2244 H 0.47376 0.34737 0.17853 0.0
H2245 H 0.57481 0.37316 0.11005 0.0
H2246 H 0.56252 0.39686 0.1297 0.0
H2247 H 0.58212 0.37332 0.14211 0.0
H2248 H 0.52065 0.44455 0.19013 0.0
H2249 H 0.55961 0.38838 0.23015 0.0
H2250 H 0.4935 0.41251 0.15005 0.0
H2251 H 0.52086 0.41218 0.13154 0.0
H2252 H 0.51169 0.43969 0.14751 0.0
H2253 H 0.54483 0.33963 0.19813 0.0
H2254 H 0.57181 0.35108 0.21252 0.0
H2255 H 0.57075 0.3483 0.17966 0.0
C2256 C 0.42353 0.79685 0.98731 0.0
C2257 C 0.42291 0.77457 0.97475 0.0
C2258 C 0.40251 0.80674 0.99861 0.0
C2259 C 0.3803 0.79374 0.99804 0.0
C2260 C 0.3793 0.77143 0.98511 0.0
C2261 C 0.40066 0.76209 0.97364 0.0
C2262 C 0.40449 0.83051 0.01232 0.0
C2263 C 0.356 0.75688 0.98439 0.0
C2264 C 0.33878 0.80535 0.053 0.0
C2265 C 0.32146 0.82206 0.04346 0.0
C2266 C 0.35743 0.79535 0.03816 0.0
C2267 C 0.35904 0.80239 0.01312 0.0
C2268 C 0.34149 0.81901 0.00323 0.0
C2269 C 0.3228 0.82857 0.0185 0.0
C2270 C 0.37573 0.77762 0.04944 0.0
C2271 C 0.34287 0.82718 0.9767 0.0
H2272 H 0.44067 0.80619 0.98952 0.0
H2273 H 0.40011 0.74468 0.96432 0.0
H2274 H 0.38933 0.84328 0.00726 0.0
H2275 H 0.40291 0.82682 0.03233 0.0
H2276 H 0.42221 0.83975 0.0086 0.0
H2277 H 0.35756 0.7412 0.97167 0.0
H2278 H 0.35161 0.74966 0.00304 0.0
H2279 H 0.3404 0.76881 0.9787 0.0
H2280 H 0.33781 0.79997 0.0722 0.0
H2281 H 0.30948 0.84141 0.01095 0.0
H2282 H 0.39421 0.78587 0.04917 0.0
H2283 H 0.37694 0.76058 0.0386 0.0
H2284 H 0.37086 0.77267 0.06871 0.0
H2285 H 0.35999 0.83754 0.97336 0.0
H2286 H 0.32701 0.83903 0.97144 0.0
H2287 H 0.34357 0.81102 0.96458 0.0
C2288 C 0.94553 0.60271 0.71877 0.0
C2289 C 0.95614 0.57921 0.71798 0.0
C2290 C 0.94669 0.61859 0.69841 0.0
C2291 C 0.95936 0.61096 0.67691 0.0
C2292 C 0.96877 0.58667 0.67548 0.0
C2293 C 0.96684 0.57093 0.69606 0.0
C2294 C 0.93578 0.64411 0.70055 0.0
C2295 C 0.98254 0.57789 0.65302 0.0
C2296 C 0.95202 0.65678 0.62462 0.0
C2297 C 0.97022 0.67363 0.63037 0.0
C2298 C 0.94911 0.63506 0.63848 0.0
C2299 C 0.96549 0.62965 0.65776 0.0
C2300 C 0.98601 0.64476 0.66115 0.0
C2301 C 0.98808 0.66657 0.6475 0.0
C2302 C 0.92722 0.61922 0.63394 0.0
C2303 C 0.00449 0.63923 0.68092 0.0
H2304 H 0.93701 0.609 0.73568 0.0
H2305 H 0.97514 0.55277 0.6955 0.0
H2306 H 0.95074 0.65765 0.70144 0.0
H2307 H 0.92469 0.64881 0.68419 0.0
H2308 H 0.92397 0.64609 0.71719 0.0
H2309 H 0.9839 0.55756 0.65262 0.0
H2310 H 0.97366 0.58459 0.63598 0.0
H2311 H 0.00141 0.58526 0.65309 0.0
H2312 H 0.93915 0.66105 0.61025 0.0
H2313 H 0.00274 0.67896 0.65174 0.0
H2314 H 0.91277 0.6233 0.64788 0.0
H2315 H 0.93209 0.59948 0.63574 0.0
H2316 H 0.91944 0.62274 0.61549 0.0
H2317 H 0.99611 0.64319 0.69912 0.0
H2318 H 0.02123 0.65045 0.67866 0.0
H2319 H 0.00993 0.61956 0.68087 0.0
C2320 C 0.08532 0.20754 0.44753 0.0
C2321 C 0.07616 0.23074 0.45403 0.0
C2322 C 0.10487 0.19652 0.46026 0.0
C2323 C 0.11634 0.20956 0.47909 0.0
C2324 C 0.10889 0.23401 0.48389 0.0
C2325 C 0.08874 0.24423 0.47147 0.0
C2326 C 0.11207 0.17034 0.4547 0.0
C2327 C 0.12124 0.2489 0.50318 0.0
C2328 C 0.1437 0.17612 0.53393 0.0
C2329 C 0.16877 0.17605 0.52799 0.0
C2330 C 0.1264 0.18609 0.51768 0.0
C2331 C 0.13446 0.19701 0.49531 0.0
C2332 C 0.15977 0.19673 0.4891 0.0
C2333 C 0.17661 0.18589 0.50539 0.0
C2334 C 0.09952 0.18537 0.5247 0.0
C2335 C 0.16916 0.20887 0.46583 0.0
H2336 H 0.07658 0.1975 0.43317 0.0
H2337 H 0.08209 0.26234 0.47638 0.0
H2338 H 0.1322 0.16855 0.45201 0.0
H2339 H 0.10695 0.15838 0.47054 0.0
H2340 H 0.10289 0.16351 0.43813 0.0
H2341 H 0.11571 0.26856 0.50222 0.0
H2342 H 0.11628 0.24162 0.52166 0.0
H2343 H 0.14148 0.24747 0.50115 0.0
H2344 H 0.13763 0.16841 0.55137 0.0
H2345 H 0.19605 0.18611 0.50094 0.0
H2346 H 0.08883 0.1774 0.50966 0.0
H2347 H 0.09241 0.20428 0.52757 0.0
H2348 H 0.09615 0.17447 0.54174 0.0
H2349 H 0.15927 0.20206 0.44971 0.0
H2350 H 0.18914 0.20566 0.46291 0.0
H2351 H 0.16564 0.22892 0.46669 0.0
C2352 C 0.06638 0.1587 0.8532 0.0
C2353 C 0.04401 0.16913 0.86118 0.0
C2354 C 0.06705 0.13692 0.83988 0.0
C2355 C 0.0448 0.12558 0.83392 0.0
C2356 C 0.02258 0.13405 0.84475 0.0
C2357 C 0.02248 0.15571 0.85836 0.0
C2358 C 0.09127 0.12817 0.82923 0.0
C2359 C 0.99845 0.12227 0.83923 0.0
C2360 C 0.04078 0.1081 0.76736 0.0
C2361 C 0.04261 0.08242 0.76837 0.0
C2362 C 0.0414 0.12208 0.78859 0.0
C2363 C 0.04401 0.11019 0.81167 0.0
C2364 C 0.04622 0.0843 0.81297 0.0
C2365 C 0.0454 0.07065 0.79125 0.0
C2366 C 0.03925 0.1497 0.78619 0.0
C2367 C 0.04917 0.07104 0.83723 0.0
H2368 H 0.08326 0.16855 0.85484 0.0
H2369 H 0.00512 0.16334 0.86478 0.0
H2370 H 0.09216 0.10787 0.82845 0.0
H2371 H 0.09333 0.13547 0.81023 0.0
H2372 H 0.10694 0.13467 0.84008 0.0
H2373 H 0.98404 0.12729 0.85293 0.0
H2374 H 0.99225 0.12859 0.82088 0.0
H2375 H 0.0004 0.10203 0.83883 0.0
H2376 H 0.03877 0.11749 0.74984 0.0
H2377 H 0.04677 0.05083 0.79222 0.0
H2378 H 0.05595 0.15833 0.79336 0.0
H2379 H 0.02338 0.15651 0.79719 0.0
H2380 H 0.03685 0.15596 0.76689 0.0
H2381 H 0.06342 0.07982 0.84833 0.0
H2382 H 0.05417 0.0514 0.83486 0.0
H2383 H 0.03169 0.07212 0.84781 0.0
C2384 C 0.59773 0.25967 0.51829 0.0
C2385 C 0.57596 0.27251 0.52383 0.0
C2386 C 0.61745 0.27138 0.50632 0.0
C2387 C 0.61528 0.29652 0.49967 0.0
C2388 C 0.59384 0.30983 0.50628 0.0
C2389 C 0.57439 0.29763 0.51791 0.0
C2390 C 0.63996 0.25649 0.4994 0.0
C2391 C 0.59065 0.33662 0.49946 0.0
C2392 C 0.67056 0.33238 0.47628 0.0
C2393 C 0.66743 0.33149 0.4508 0.0
C2394 C 0.65392 0.32085 0.49251 0.0
C2395 C 0.63376 0.30812 0.48303 0.0
C2396 C 0.63046 0.30728 0.45737 0.0
C2397 C 0.64725 0.31898 0.44163 0.0
C2398 C 0.65781 0.32237 0.51979 0.0
C2399 C 0.60911 0.29404 0.44645 0.0
H2400 H 0.59896 0.2402 0.52246 0.0
H2401 H 0.55743 0.30768 0.52086 0.0
H2402 H 0.64051 0.25396 0.47925 0.0
H2403 H 0.65684 0.26628 0.50437 0.0
H2404 H 0.64014 0.23813 0.50847 0.0
H2405 H 0.57464 0.34515 0.50903 0.0
H2406 H 0.60732 0.347 0.50393 0.0
H2407 H 0.58785 0.33848 0.47941 0.0
H2408 H 0.68611 0.34191 0.48356 0.0
H2409 H 0.64457 0.31812 0.42201 0.0
H2410 H 0.65923 0.30366 0.52793 0.0
H2411 H 0.6418 0.3316 0.52861 0.0
H2412 H 0.67462 0.33258 0.52424 0.0
H2413 H 0.60909 0.27464 0.45283 0.0
H2414 H 0.60964 0.29442 0.42608 0.0
H2415 H 0.59157 0.30258 0.45269 0.0
C2416 C 0.43579 0.83651 0.37118 0.0
C2417 C 0.45478 0.82068 0.36348 0.0
C2418 C 0.43151 0.85903 0.35901 0.0
C2419 C 0.44702 0.86599 0.33918 0.0
C2420 C 0.4682 0.8517 0.33376 0.0
C2421 C 0.47181 0.82924 0.34595 0.0
C2422 C 0.40915 0.87411 0.3659 0.0
C2423 C 0.48568 0.85874 0.31319 0.0
C2424 C 0.42399 0.89318 0.28001 0.0
C2425 C 0.43452 0.91645 0.28001 0.0
C2426 C 0.42591 0.8774 0.30033 0.0
C2427 C 0.43903 0.88498 0.32107 0.0
C2428 C 0.44777 0.90929 0.32206 0.0
C2429 C 0.44531 0.92488 0.30142 0.0
C2430 C 0.41578 0.85181 0.29864 0.0
C2431 C 0.46157 0.91818 0.34392 0.0
H2432 H 0.42345 0.83088 0.38582 0.0
H2433 H 0.48699 0.81754 0.34021 0.0
H2434 H 0.41287 0.89401 0.36427 0.0
H2435 H 0.39409 0.86997 0.35319 0.0
H2436 H 0.40275 0.86985 0.38488 0.0
H2437 H 0.50294 0.84771 0.31365 0.0
H2438 H 0.47677 0.85578 0.29531 0.0
H2439 H 0.49033 0.87842 0.31414 0.0
H2440 H 0.4153 0.88682 0.26354 0.0
H2441 H 0.45345 0.9429 0.30143 0.0
H2442 H 0.40516 0.84703 0.31547 0.0
H2443 H 0.43115 0.83836 0.297 0.0
H2444 H 0.40373 0.8498 0.28255 0.0
H2445 H 0.45385 0.91059 0.3613 0.0
H2446 H 0.46128 0.93851 0.34477 0.0
H2447 H 0.48098 0.91194 0.34245 0.0
C2448 C 0.9197 0.69171 0.02442 0.0
C2449 C 0.91885 0.71571 0.03344 0.0
C2450 C 0.89965 0.68167 0.01259 0.0
C2451 C 0.87829 0.69615 0.00899 0.0
C2452 C 0.87678 0.72001 0.01889 0.0
C2453 C 0.89712 0.72952 0.03098 0.0
C2454 C 0.90215 0.65619 0.00223 0.0
C2455 C 0.85435 0.73608 0.01528 0.0
C2456 C 0.84596 0.68202 0.94998 0.0
C2457 C 0.82642 0.66743 0.95823 0.0
C2458 C 0.86236 0.69214 0.96644 0.0
C2459 C 0.85932 0.68752 0.99188 0.0
C2460 C 0.83945 0.67318 0.00047 0.0
C2461 C 0.82317 0.66332 0.98353 0.0
C2462 C 0.88334 0.7073 0.95646 0.0
C2463 C 0.83579 0.66774 0.02747 0.0
H2464 H 0.93652 0.68107 0.02499 0.0
H2465 H 0.8964 0.74817 0.03759 0.0
H2466 H 0.88549 0.64537 0.00638 0.0
H2467 H 0.9042 0.65746 0.98199 0.0
H2468 H 0.91834 0.64609 0.0096 0.0
H2469 H 0.85456 0.75255 0.02702 0.0
H2470 H 0.85353 0.74222 0.99583 0.0
H2471 H 0.83742 0.72567 0.0194 0.0
H2472 H 0.8486 0.68551 0.93052 0.0
H2473 H 0.80809 0.65217 0.99011 0.0
H2474 H 0.90104 0.69791 0.96045 0.0
H2475 H 0.88354 0.72536 0.96555 0.0
H2476 H 0.88222 0.71042 0.93633 0.0
H2477 H 0.85136 0.65637 0.03427 0.0
H2478 H 0.81848 0.65782 0.03135 0.0
H2479 H 0.83556 0.68501 0.03797 0.0
C2480 C 0.14362 0.50487 0.33476 0.0
C2481 C 0.12854 0.52395 0.32576 0.0
C2482 C 0.15579 0.50703 0.35706 0.0
C2483 C 0.15306 0.52891 0.3705 0.0
C2484 C 0.13512 0.54648 0.36342 0.0
C2485 C 0.12257 0.54345 0.34137 0.0
C2486 C 0.17393 0.48725 0.36455 0.0
C2487 C 0.13106 0.56974 0.37764 0.0
C2488 C 0.19137 0.532 0.42817 0.0
C2489 C 0.21343 0.54097 0.41833 0.0
C2490 C 0.17083 0.52908 0.41318 0.0
C2491 C 0.17252 0.53549 0.38795 0.0
C2492 C 0.19429 0.54609 0.37843 0.0
C2493 C 0.21444 0.54865 0.39372 0.0
C2494 C 0.14808 0.51757 0.42403 0.0
C2495 C 0.1968 0.55356 0.35171 0.0
H2496 H 0.14773 0.48911 0.32348 0.0
H2497 H 0.10928 0.55721 0.33584 0.0
H2498 H 0.19278 0.49328 0.35979 0.0
H2499 H 0.17305 0.48387 0.38463 0.0
H2500 H 0.17059 0.46975 0.35505 0.0
H2501 H 0.11318 0.57864 0.37324 0.0
H2502 H 0.1318 0.56611 0.39767 0.0
H2503 H 0.14585 0.5828 0.37283 0.0
H2504 H 0.19058 0.52595 0.44718 0.0
H2505 H 0.23137 0.55596 0.38616 0.0
H2506 H 0.14848 0.49765 0.42022 0.0
H2507 H 0.1312 0.52548 0.41579 0.0
H2508 H 0.14706 0.51986 0.44422 0.0
H2509 H 0.19434 0.53744 0.33986 0.0
H2510 H 0.21499 0.56149 0.34727 0.0
H2511 H 0.18233 0.56724 0.34694 0.0
C2512 C 0.71542 0.95849 0.60779 0.0
C2513 C 0.7142 0.95817 0.58211 0.0
C2514 C 0.69423 0.95877 0.62246 0.0
C2515 C 0.67094 0.95863 0.61131 0.0
C2516 C 0.6694 0.95778 0.58541 0.0
C2517 C 0.69111 0.95766 0.57105 0.0
C2518 C 0.69693 0.9593 0.65004 0.0
C2519 C 0.64495 0.95745 0.57283 0.0
C2520 C 0.62855 0.93832 0.66164 0.0
C2521 C 0.62339 0.96089 0.67285 0.0
C2522 C 0.64098 0.93726 0.63898 0.0
C2523 C 0.64874 0.95924 0.62748 0.0
C2524 C 0.64012 0.98197 0.63661 0.0
C2525 C 0.62739 0.98251 0.65916 0.0
C2526 C 0.64894 0.91255 0.62937 0.0
C2527 C 0.64735 0.00588 0.62454 0.0
H2528 H 0.73309 0.95863 0.61664 0.0
H2529 H 0.68998 0.95745 0.55123 0.0
H2530 H 0.68732 0.97565 0.65757 0.0
H2531 H 0.68842 0.94284 0.65854 0.0
H2532 H 0.71641 0.95976 0.6557 0.0
H2533 H 0.64679 0.95119 0.55359 0.0
H2534 H 0.63187 0.9454 0.58282 0.0
H2535 H 0.63693 0.97625 0.57255 0.0
H2536 H 0.62555 0.92128 0.67134 0.0
H2537 H 0.62289 9e-05 0.66722 0.0
H2538 H 0.66781 0.90828 0.63567 0.0
H2539 H 0.64919 0.91252 0.60903 0.0
H2540 H 0.6367 0.89779 0.63623 0.0
H2541 H 0.66644 0.01018 0.62962 0.0
H2542 H 0.6352 0.02125 0.63048 0.0
H2543 H 0.64678 0.00458 0.60428 0.0
C2544 C 0.83579 0.01886 0.32876 0.0
C2545 C 0.82983 0.04396 0.32854 0.0
C2546 C 0.82534 0.00289 0.34636 0.0
C2547 C 0.80826 0.01221 0.3638 0.0
C2548 C 0.80158 0.03737 0.36308 0.0
C2549 C 0.81256 0.05291 0.34562 0.0
C2550 C 0.83313 0.97624 0.3468 0.0
C2551 C 0.78334 0.04807 0.38124 0.0
C2552 C 0.76626 0.9719 0.40281 0.0
C2553 C 0.77796 0.97227 0.42553 0.0
C2554 C 0.77645 0.98384 0.3821 0.0
C2555 C 0.79886 0.99643 0.38423 0.0
C2556 C 0.81108 0.99625 0.40692 0.0
C2557 C 0.80032 0.98457 0.42729 0.0
C2558 C 0.76263 0.98405 0.35832 0.0
C2559 C 0.83504 0.0094 0.40999 0.0
H2560 H 0.84907 0.01181 0.31558 0.0
H2561 H 0.80755 0.07221 0.34538 0.0
H2562 H 0.84322 0.97209 0.36393 0.0
H2563 H 0.81682 0.96432 0.3468 0.0
H2564 H 0.84514 0.97147 0.33091 0.0
H2565 H 0.77855 0.06748 0.37686 0.0
H2566 H 0.76627 0.03724 0.38162 0.0
H2567 H 0.79109 0.04719 0.39994 0.0
H2568 H 0.74879 0.96281 0.40139 0.0
H2569 H 0.80901 0.98629 0.44485 0.0
H2570 H 0.77502 0.97893 0.34287 0.0
H2571 H 0.75557 0.00286 0.35443 0.0
H2572 H 0.7469 0.97133 0.35891 0.0
H2573 H 0.84879 0.00261 0.39645 0.0
H2574 H 0.8426 0.00687 0.42869 0.0
H2575 H 0.83239 0.02931 0.4064 0.0
C2576 C 0.77053 0.03243 0.10541 0.0
C2577 C 0.77219 0.03644 0.07996 0.0
C2578 C 0.79123 0.03315 0.12018 0.0
C2579 C 0.81445 0.03787 0.10934 0.0
C2580 C 0.81651 0.04146 0.08362 0.0
C2581 C 0.79529 0.0408 0.06919 0.0
C2582 C 0.78805 0.02934 0.14757 0.0
C2583 C 0.84096 0.04652 0.07146 0.0
C2584 C 0.85314 0.06299 0.15913 0.0
C2585 C 0.86296 0.04129 0.1694 0.0
C2586 C 0.83971 0.06271 0.13742 0.0
C2587 C 0.8359 0.04016 0.12568 0.0
C2588 C 0.84838 0.01881 0.1341 0.0
C2589 C 0.86174 0.01962 0.15592 0.0
C2590 C 0.82685 0.08599 0.12905 0.0
C2591 C 0.84522 0.99446 0.12185 0.0
H2592 H 0.75287 0.029 0.11404 0.0
H2593 H 0.79678 0.04387 0.04955 0.0
H2594 H 0.79998 0.01398 0.15398 0.0
H2595 H 0.79362 0.04604 0.15732 0.0
H2596 H 0.76881 0.02521 0.15295 0.0
H2597 H 0.84009 0.04538 0.05118 0.0
H2598 H 0.84695 0.06518 0.07624 0.0
H2599 H 0.85515 0.0334 0.07818 0.0
H2600 H 0.85352 0.07992 0.16904 0.0
H2601 H 0.86953 0.00279 0.16344 0.0
H2602 H 0.80737 0.08551 0.13518 0.0
H2603 H 0.82716 0.08769 0.10877 0.0
H2604 H 0.8353 0.10253 0.13683 0.0
H2605 H 0.82747 0.98649 0.12786 0.0
H2606 H 0.86011 0.98126 0.1268 0.0
H2607 H 0.84486 0.99669 0.10162 0.0
C2608 C 0.73295 0.03224 0.8991 0.0
C2609 C 0.71913 0.03353 0.92094 0.0
C2610 C 0.72367 0.02073 0.8783 0.0
C2611 C 0.70009 0.01017 0.87947 0.0
C2612 C 0.68558 0.01259 0.90098 0.0
C2613 C 0.69537 0.02389 0.92145 0.0
C2614 C 0.73974 0.01844 0.85569 0.0
C2615 C 0.66041 0.00144 0.90318 0.0
C2616 C 0.66643 0.98519 0.82468 0.0
C2617 C 0.67078 0.9599 0.82762 0.0
C2618 C 0.67678 0.00206 0.84072 0.0
C2619 C 0.69186 0.9934 0.86002 0.0
C2620 C 0.69705 0.96801 0.86245 0.0
C2621 C 0.68644 0.95163 0.8463 0.0
C2622 C 0.67081 0.029 0.83765 0.0
C2623 C 0.71304 0.95794 0.88276 0.0
H2624 H 0.75142 0.03934 0.89862 0.0
H2625 H 0.68477 0.02349 0.93831 0.0
H2626 H 0.74676 0.99931 0.85434 0.0
H2627 H 0.72908 0.02252 0.83891 0.0
H2628 H 0.75567 0.03089 0.85615 0.0
H2629 H 0.65021 0.00782 0.91972 0.0
H2630 H 0.64937 0.00602 0.88677 0.0
H2631 H 0.66225 0.98118 0.90435 0.0
H2632 H 0.6545 0.99178 0.81021 0.0
H2633 H 0.69023 0.93219 0.8486 0.0
H2634 H 0.6878 0.03993 0.83807 0.0
H2635 H 0.65893 0.0351 0.85314 0.0
H2636 H 0.66115 0.03308 0.82023 0.0
H2637 H 0.73075 0.96768 0.88293 0.0
H2638 H 0.71687 0.93799 0.8809 0.0
H2639 H 0.70385 0.96097 0.90076 0.0
C2640 C 0.28119 0.45063 0.89 0.0
C2641 C 0.28268 0.44752 0.91552 0.0
C2642 C 0.30219 0.45092 0.87509 0.0
C2643 C 0.32554 0.44793 0.88584 0.0
C2644 C 0.32736 0.44459 0.91156 0.0
C2645 C 0.30584 0.44454 0.92618 0.0
C2646 C 0.29921 0.45411 0.84766 0.0
C2647 C 0.35193 0.44104 0.92358 0.0
C2648 C 0.36567 0.42716 0.83415 0.0
C2649 C 0.3731 0.44981 0.82414 0.0
C2650 C 0.3533 0.42572 0.85678 0.0
C2651 C 0.34749 0.44751 0.86939 0.0
C2652 C 0.35783 0.46988 0.86125 0.0
C2653 C 0.37075 0.47071 0.83881 0.0
C2654 C 0.34332 0.40128 0.8652 0.0
C2655 C 0.35237 0.49357 0.8743 0.0
H2656 H 0.26347 0.45283 0.88144 0.0
H2657 H 0.30717 0.44213 0.94588 0.0
H2658 H 0.3103 0.46971 0.84076 0.0
H2659 H 0.30588 0.43739 0.83816 0.0
H2660 H 0.27982 0.45749 0.84245 0.0
H2661 H 0.35005 0.43572 0.94325 0.0
H2662 H 0.36294 0.42676 0.91399 0.0
H2663 H 0.36234 0.45833 0.92226 0.0
H2664 H 0.36692 0.41067 0.82363 0.0
H2665 H 0.37686 0.48827 0.83167 0.0
H2666 H 0.32428 0.39953 0.85862 0.0
H2667 H 0.34289 0.39968 0.88549 0.0
H2668 H 0.3544 0.38581 0.85768 0.0
H2669 H 0.33391 0.50043 0.86896 0.0
H2670 H 0.36594 0.50786 0.86935 0.0
H2671 H 0.35221 0.49078 0.89447 0.0
C2672 C 0.33613 0.45776 0.64014 0.0
C2673 C 0.33502 0.46162 0.66545 0.0
C2674 C 0.32436 0.4739 0.62375 0.0
C2675 C 0.31046 0.49396 0.63297 0.0
C2676 C 0.31004 0.49849 0.65848 0.0
C2677 C 0.32261 0.48238 0.67444 0.0
C2678 C 0.32592 0.46879 0.59664 0.0
C2679 C 0.29516 0.51943 0.66905 0.0
C2680 C 0.29161 0.54057 0.58428 0.0
C2681 C 0.26947 0.53074 0.57645 0.0
C2682 C 0.3047 0.52961 0.60363 0.0
C2683 C 0.295 0.50878 0.61587 0.0
C2684 C 0.27148 0.50033 0.60961 0.0
C2685 C 0.25903 0.51137 0.58991 0.0
C2686 C 0.3297 0.53918 0.60968 0.0
C2687 C 0.2602 0.47851 0.62258 0.0
H2688 H 0.34583 0.44178 0.63317 0.0
H2689 H 0.32154 0.48523 0.69406 0.0
H2690 H 0.3079 0.46234 0.59029 0.0
H2691 H 0.33031 0.48574 0.58609 0.0
H2692 H 0.34006 0.45459 0.59232 0.0
H2693 H 0.29916 0.5223 0.68871 0.0
H2694 H 0.29871 0.53669 0.65871 0.0
H2695 H 0.27535 0.5155 0.66737 0.0
H2696 H 0.29928 0.55621 0.57462 0.0
H2697 H 0.24178 0.50382 0.58414 0.0
H2698 H 0.34398 0.52603 0.60316 0.0
H2699 H 0.33176 0.54082 0.62979 0.0
H2700 H 0.33318 0.55732 0.60089 0.0
H2701 H 0.27031 0.46157 0.61727 0.0
H2702 H 0.24059 0.47636 0.6179 0.0
H2703 H 0.26164 0.48027 0.64274 0.0
C2704 C 0.19822 0.47229 0.07041 0.0
C2705 C 0.22072 0.45961 0.07236 0.0
C2706 C 0.18749 0.48417 0.09053 0.0
C2707 C 0.19987 0.48411 0.11312 0.0
C2708 C 0.22238 0.47107 0.11546 0.0
C2709 C 0.23255 0.45897 0.09502 0.0
C2710 C 0.16341 0.49779 0.08724 0.0
C2711 C 0.23635 0.47098 0.13916 0.0
C2712 C 0.18686 0.54088 0.15051 0.0
C2713 C 0.16998 0.53234 0.16821 0.0
C2714 C 0.19734 0.52512 0.13313 0.0
C2715 C 0.19059 0.50017 0.13313 0.0
C2716 C 0.17378 0.49128 0.15107 0.0
C2717 C 0.16377 0.50746 0.16854 0.0
C2718 C 0.21523 0.53536 0.11435 0.0
C2719 C 0.16593 0.46486 0.1514 0.0
H2720 H 0.18939 0.47417 0.05286 0.0
H2721 H 0.25012 0.44957 0.09657 0.0
H2722 H 0.14973 0.49107 0.1009 0.0
H2723 H 0.16585 0.51762 0.09055 0.0
H2724 H 0.15587 0.49563 0.06859 0.0
H2725 H 0.25215 0.45793 0.13884 0.0
H2726 H 0.24333 0.48964 0.14248 0.0
H2727 H 0.22408 0.46613 0.15482 0.0
H2728 H 0.19201 0.56 0.15024 0.0
H2729 H 0.15079 0.5007 0.18217 0.0
H2730 H 0.20724 0.5345 0.09579 0.0
H2731 H 0.23239 0.52421 0.11412 0.0
H2732 H 0.21992 0.55471 0.11798 0.0
H2733 H 0.15587 0.46095 0.13438 0.0
H2734 H 0.15389 0.46045 0.16742 0.0
H2735 H 0.18223 0.45248 0.15181 0.0
loop_
_geom_bond_atom_site_label_1
_geom_bond_atom_site_label_2
_geom_bond_distance
_geom_bond_site_symmetry_2
_ccdc_geom_bond_type
Co0 O3 1.970 . S
Co0 N17 1.989 . S
Co0 O25 1.967 . S
Co0 O32 1.920 . S
Co1 O4 1.966 . S
Co1 N10 2.022 . S
Co1 N18 1.993 . S
Co1 O26 1.941 . S
C2 O3 1.258 . S
C2 O4 1.263 . S
O3 Co0 1.970 . S
O3 C2 1.258 . S
O4 Co1 1.966 . S
O4 C2 1.263 . S
C5 O6 1.235 . S
C5 O32 1.289 . S
O6 C5 1.235 . S
C7 C9 1.400 . S
C7 N10 1.351 . S
C7 C12 1.501 . S
C8 C9 1.387 . S
C8 N11 1.341 . S
C9 C7 1.400 . S
C9 C8 1.387 . S
N10 Co1 2.022 . S
N10 C7 1.351 . S
N10 N11 1.365 . S
N11 C8 1.341 . S
N11 N10 1.365 . S
N11 H31 0.862 . S
C12 C7 1.501 . S
C12 H13 0.961 . S
C12 H14 0.961 . S
C12 H15 0.960 . S
H13 C12 0.961 . S
H14 C12 0.961 . S
H15 C12 0.960 . S
C16 N17 1.342 . S
C16 C20 1.401 . S
C16 C21 1.499 . S
N17 Co0 1.989 . S
N17 C16 1.342 . S
N17 N18 1.388 . S
N18 Co1 1.993 . S
N18 N17 1.388 . S
N18 C19 1.346 . S
C19 N18 1.346 . S
C19 C20 1.396 . S
C19 C29 1.510 . S
C20 C16 1.401 . S
C20 C19 1.396 . S
C21 C16 1.499 . S
C21 H22 0.959 . S
C21 H23 0.960 . S
C21 H24 0.961 . S
H22 C21 0.959 . S
H23 C21 0.960 . S
H24 C21 0.961 . S
O25 Co0 1.967 . S
O25 C33 1.258 . S
O26 Co1 1.941 . S
O26 C33 1.266 . S
H27 C29 0.959 . S
H28 C29 0.961 . S
C29 C19 1.510 . S
C29 H27 0.959 . S
C29 H28 0.961 . S
C29 H30 0.960 . S
H30 C29 0.960 . S
H31 N11 0.862 . S
O32 Co0 1.920 . S
O32 C5 1.289 . S
C33 O25 1.258 . S
C33 O26 1.266 . S
Co34 O37 1.970 . S
Co34 N51 1.989 . S
Co34 O59 1.967 . S
Co34 O66 1.920 . S
Co35 O38 1.966 . S
Co35 N44 2.022 . S
Co35 N52 1.993 . S
Co35 O60 1.941 . S
C36 O37 1.258 . S
C36 O38 1.263 . S
O37 Co34 1.970 . S
O37 C36 1.258 . S
O38 Co35 1.966 . S
O38 C36 1.263 . S
C39 O40 1.235 . S
C39 O66 1.289 . S
O40 C39 1.235 . S
C41 C43 1.400 . S
C41 N44 1.351 . S
C41 C46 1.501 . S
C42 C43 1.387 . S
C42 N45 1.341 . S
C43 C41 1.400 . S
C43 C42 1.387 . S
N44 Co35 2.022 . S
N44 C41 1.351 . S
N44 N45 1.365 . S
N45 C42 1.341 . S
N45 N44 1.365 . S
N45 H65 0.862 . S
C46 C41 1.501 . S
C46 H47 0.961 . S
C46 H48 0.961 . S
C46 H49 0.960 . S
H47 C46 0.961 . S
H48 C46 0.961 . S
H49 C46 0.960 . S
C50 N51 1.342 . S
C50 C54 1.401 . S
C50 C55 1.499 . S
N51 Co34 1.989 . S
N51 C50 1.342 . S
N51 N52 1.388 . S
N52 Co35 1.993 . S
N52 N51 1.388 . S
N52 C53 1.346 . S
C53 N52 1.346 . S
C53 C54 1.396 . S
C53 C63 1.510 . S
C54 C50 1.401 . S
C54 C53 1.396 . S
C55 C50 1.499 . S
C55 H56 0.959 . S
C55 H57 0.960 . S
C55 H58 0.961 . S
H56 C55 0.959 . S
H57 C55 0.960 . S
H58 C55 0.961 . S
O59 Co34 1.967 . S
O59 C67 1.258 . S
O60 Co35 1.941 . S
O60 C67 1.266 . S
H61 C63 0.959 . S
H62 C63 0.961 . S
C63 C53 1.510 . S
C63 H61 0.959 . S
C63 H62 0.961 . S
C63 H64 0.960 . S
H64 C63 0.960 . S
H65 N45 0.862 . S
O66 Co34 1.920 . S
O66 C39 1.289 . S
C67 O59 1.258 . S
C67 O60 1.266 . S
Co68 O71 1.970 . S
Co68 N85 1.989 . S
Co68 O93 1.967 . S
Co68 O100 1.920 . S
Co69 O72 1.966 . S
Co69 N78 2.022 . S
Co69 N86 1.993 . S
Co69 O94 1.941 . S
C70 O71 1.258 . S
C70 O72 1.263 . S
O71 Co68 1.970 . S
O71 C70 1.258 . S
O72 Co69 1.966 . S
O72 C70 1.263 . S
C73 O74 1.235 . S
C73 O100 1.289 . S
O74 C73 1.235 . S
C75 C77 1.400 . S
C75 N78 1.351 . S
C75 C80 1.501 . S
C76 C77 1.387 . S
C76 N79 1.341 . S
C77 C75 1.400 . S
C77 C76 1.387 . S
N78 Co69 2.022 . S
N78 C75 1.351 . S
N78 N79 1.365 . S
N79 C76 1.341 . S
N79 N78 1.365 . S
N79 H99 0.862 . S
C80 C75 1.501 . S
C80 H81 0.961 . S
C80 H82 0.961 . S
C80 H83 0.960 . S
H81 C80 0.961 . S
H82 C80 0.961 . S
H83 C80 0.960 . S
C84 N85 1.342 . S
C84 C88 1.401 . S
C84 C89 1.499 . S
N85 Co68 1.989 . S
N85 C84 1.342 . S
N85 N86 1.388 . S
N86 Co69 1.993 . S
N86 N85 1.388 . S
N86 C87 1.346 . S
C87 N86 1.346 . S
C87 C88 1.396 . S
C87 C97 1.510 . S
C88 C84 1.401 . S
C88 C87 1.396 . S
C89 C84 1.499 . S
C89 H90 0.959 . S
C89 H91 0.960 . S
C89 H92 0.961 . S
H90 C89 0.959 . S
H91 C89 0.960 . S
H92 C89 0.961 . S
O93 Co68 1.967 . S
O93 C101 1.258 . S
O94 Co69 1.941 . S
O94 C101 1.266 . S
H95 C97 0.959 . S
H96 C97 0.961 . S
C97 C87 1.510 . S
C97 H95 0.959 . S
C97 H96 0.961 . S
C97 H98 0.960 . S
H98 C97 0.960 . S
H99 N79 0.862 . S
O100 Co68 1.920 . S
O100 C73 1.289 . S
C101 O93 1.258 . S
C101 O94 1.266 . S
Co102 O105 1.970 . S
Co102 N119 1.989 1_655 S
Co102 O127 1.967 . S
Co102 O134 1.920 1_655 S
Co103 O106 1.966 . S
Co103 N112 2.022 . S
Co103 N120 1.993 1_655 S
Co103 O128 1.941 . S
C104 O105 1.258 . S
C104 O106 1.263 . S
O105 Co102 1.970 . S
O105 C104 1.258 . S
O106 Co103 1.966 . S
O106 C104 1.263 . S
C107 O108 1.233 1_455 S
C107 O134 1.289 . S
O108 C107 1.233 1_655 S
C109 C111 1.400 . S
C109 N112 1.351 . S
C109 C114 1.501 . S
C110 C111 1.387 1_455 S
C110 N113 1.341 . S
C111 C109 1.400 . S
C111 C110 1.387 1_655 S
N112 Co103 2.022 . S
N112 C109 1.351 . S
N112 N113 1.365 1_655 S
N113 C110 1.341 . S
N113 N112 1.365 1_455 S
N113 H133 0.862 . S
C114 C109 1.501 . S
C114 H115 0.961 . S
C114 H116 0.961 . S
C114 H117 0.960 . S
H115 C114 0.961 . S
H116 C114 0.961 . S
H117 C114 0.960 . S
C118 N119 1.342 . S
C118 C122 1.401 . S
C118 C123 1.499 . S
N119 Co102 1.989 1_455 S
N119 C118 1.342 . S
N119 N120 1.388 . S
N120 Co103 1.993 1_455 S
N120 N119 1.388 . S
N120 C121 1.346 . S
C121 N120 1.346 . S
C121 C122 1.396 . S
C121 C131 1.510 . S
C122 C118 1.401 . S
C122 C121 1.396 . S
C123 C118 1.499 . S
C123 H124 0.959 . S
C123 H125 0.960 . S
C123 H126 0.961 . S
H124 C123 0.959 . S
H125 C123 0.960 . S
H126 C123 0.961 . S
O127 Co102 1.967 . S
O127 C135 1.258 . S
O128 Co103 1.941 . S
O128 C135 1.266 . S
H129 C131 0.959 . S
H130 C131 0.961 . S
C131 C121 1.510 . S
C131 H129 0.959 . S
C131 H130 0.961 . S
C131 H132 0.960 . S
H132 C131 0.960 . S
H133 N113 0.862 . S
O134 Co102 1.920 1_455 S
O134 C107 1.289 . S
C135 O127 1.258 . S
C135 O128 1.266 . S
Co136 O139 1.970 . S
Co136 N153 1.989 . S
Co136 O161 1.967 . S
Co136 O168 1.920 . S
Co137 O140 1.966 . S
Co137 N146 2.022 . S
Co137 N154 1.993 . S
Co137 O162 1.941 . S
C138 O139 1.258 . S
C138 O140 1.263 . S
O139 Co136 1.970 . S
O139 C138 1.258 . S
O140 Co137 1.966 . S
O140 C138 1.263 . S
C141 O142 1.235 . S
C141 O168 1.289 . S
O142 C141 1.235 . S
C143 C145 1.400 . S
C143 N146 1.351 . S
C143 C148 1.501 . S
C144 C145 1.387 . S
C144 N147 1.341 . S
C145 C143 1.400 . S
C145 C144 1.387 . S
N146 Co137 2.022 . S
N146 C143 1.351 . S
N146 N147 1.365 . S
N147 C144 1.341 . S
N147 N146 1.365 . S
N147 H167 0.862 . S
C148 C143 1.501 . S
C148 H149 0.961 . S
C148 H150 0.961 . S
C148 H151 0.960 . S
H149 C148 0.961 . S
H150 C148 0.961 . S
H151 C148 0.960 . S
C152 N153 1.342 . S
C152 C156 1.401 . S
C152 C157 1.499 . S
N153 Co136 1.989 . S
N153 C152 1.342 . S
N153 N154 1.388 . S
N154 Co137 1.993 . S
N154 N153 1.388 . S
N154 C155 1.346 . S
C155 N154 1.346 . S
C155 C156 1.396 . S
C155 C165 1.510 . S
C156 C152 1.401 . S
C156 C155 1.396 . S
C157 C152 1.499 . S
C157 H158 0.959 . S
C157 H159 0.960 . S
C157 H160 0.961 . S
H158 C157 0.959 . S
H159 C157 0.960 . S
H160 C157 0.961 . S
O161 Co136 1.967 . S
O161 C169 1.258 . S
O162 Co137 1.941 . S
O162 C169 1.266 . S
H163 C165 0.959 . S
H164 C165 0.961 . S
C165 C155 1.510 . S
C165 H163 0.959 . S
C165 H164 0.961 . S
C165 H166 0.960 . S
H166 C165 0.960 . S
H167 N147 0.862 . S
O168 Co136 1.920 . S
O168 C141 1.289 . S
C169 O161 1.258 . S
C169 O162 1.266 . S
Co170 O173 1.970 . S
Co170 N187 1.989 . S
Co170 O195 1.967 . S
Co170 O202 1.920 . S
Co171 O174 1.966 . S
Co171 N180 2.022 1_565 S
Co171 N188 1.993 . S
Co171 O196 1.941 . S
C172 O173 1.258 . S
C172 O174 1.263 . S
O173 Co170 1.970 . S
O173 C172 1.258 . S
O174 Co171 1.966 . S
O174 C172 1.263 . S
C175 O176 1.235 . S
C175 O202 1.289 . S
O176 C175 1.235 . S
C177 C179 1.400 . S
C177 N180 1.351 . S
C177 C182 1.501 . S
C178 C179 1.387 . S
C178 N181 1.341 . S
C179 C177 1.400 . S
C179 C178 1.387 . S
N180 Co171 2.022 1_545 S
N180 C177 1.351 . S
N180 N181 1.365 . S
N181 C178 1.341 . S
N181 N180 1.365 . S
N181 H201 0.862 . S
C182 C177 1.501 . S
C182 H183 0.961 . S
C182 H184 0.961 . S
C182 H185 0.960 . S
H183 C182 0.961 . S
H184 C182 0.961 . S
H185 C182 0.960 . S
C186 N187 1.342 . S
C186 C190 1.401 . S
C186 C191 1.499 . S
N187 Co170 1.989 . S
N187 C186 1.342 . S
N187 N188 1.388 . S
N188 Co171 1.993 . S
N188 N187 1.388 . S
N188 C189 1.346 . S
C189 N188 1.346 . S
C189 C190 1.396 . S
C189 C199 1.510 1_565 S
C190 C186 1.401 . S
C190 C189 1.396 . S
C191 C186 1.499 . S
C191 H192 0.959 . S
C191 H193 0.960 . S
C191 H194 0.961 . S
H192 C191 0.959 . S
H193 C191 0.960 . S
H194 C191 0.961 . S
O195 Co170 1.967 . S
O195 C203 1.258 . S
O196 Co171 1.941 . S
O196 C203 1.266 . S
H197 C199 0.959 . S
H198 C199 0.961 . S
C199 C189 1.510 1_545 S
C199 H197 0.959 . S
C199 H198 0.961 . S
C199 H200 0.960 . S
H200 C199 0.960 . S
H201 N181 0.862 . S
O202 Co170 1.920 . S
O202 C175 1.289 . S
C203 O195 1.258 . S
C203 O196 1.266 . S
Co204 O207 1.970 . S
Co204 N221 1.989 . S
Co204 O229 1.967 . S
Co204 O236 1.920 . S
Co205 O208 1.966 . S
Co205 N214 2.022 . S
Co205 N222 1.993 . S
Co205 O230 1.941 . S
C206 O207 1.258 . S
C206 O208 1.263 . S
O207 Co204 1.970 . S
O207 C206 1.258 . S
O208 Co205 1.966 . S
O208 C206 1.263 . S
C209 O210 1.235 . S
C209 O236 1.289 . S
O210 C209 1.235 . S
C211 C213 1.400 . S
C211 N214 1.351 . S
C211 C216 1.501 . S
C212 C213 1.387 . S
C212 N215 1.341 . S
C213 C211 1.400 . S
C213 C212 1.387 . S
N214 Co205 2.022 . S
N214 C211 1.351 . S
N214 N215 1.365 . S
N215 C212 1.341 . S
N215 N214 1.365 . S
N215 H235 0.862 . S
C216 C211 1.501 . S
C216 H217 0.961 . S
C216 H218 0.961 . S
C216 H219 0.960 . S
H217 C216 0.961 . S
H218 C216 0.961 . S
H219 C216 0.960 . S
C220 N221 1.342 . S
C220 C224 1.401 . S
C220 C225 1.499 . S
N221 Co204 1.989 . S
N221 C220 1.342 . S
N221 N222 1.388 . S
N222 Co205 1.993 . S
N222 N221 1.388 . S
N222 C223 1.346 . S
C223 N222 1.346 . S
C223 C224 1.396 . S
C223 C233 1.510 . S
C224 C220 1.401 . S
C224 C223 1.396 . S
C225 C220 1.499 . S
C225 H226 0.959 . S
C225 H227 0.960 . S
C225 H228 0.961 . S
H226 C225 0.959 . S
H227 C225 0.960 . S
H228 C225 0.961 . S
O229 Co204 1.967 . S
O229 C237 1.258 . S
O230 Co205 1.941 . S
O230 C237 1.266 . S
H231 C233 0.959 . S
H232 C233 0.961 . S
C233 C223 1.510 . S
C233 H231 0.959 . S
C233 H232 0.961 . S
C233 H234 0.960 . S
H234 C233 0.960 . S
H235 N215 0.862 . S
O236 Co204 1.920 . S
O236 C209 1.289 . S
C237 O229 1.258 . S
C237 O230 1.266 . S
Co238 O241 1.970 . S
Co238 N255 1.989 1_455 S
Co238 O263 1.967 . S
Co238 O270 1.920 1_455 S
Co239 O242 1.966 . S
Co239 N248 2.022 1_545 S
Co239 N256 1.993 1_455 S
Co239 O264 1.941 . S
C240 O241 1.258 . S
C240 O242 1.263 . S
O241 Co238 1.970 . S
O241 C240 1.258 . S
O242 Co239 1.966 . S
O242 C240 1.263 . S
C243 O244 1.235 1_655 S
C243 O270 1.289 . S
O244 C243 1.235 1_455 S
C245 C247 1.400 . S
C245 N248 1.351 . S
C245 C250 1.501 . S
C246 C247 1.387 1_655 S
C246 N249 1.341 . S
C247 C245 1.400 . S
C247 C246 1.387 1_455 S
N248 Co239 2.022 1_565 S
N248 C245 1.351 . S
N248 N249 1.365 1_455 S
N249 C246 1.341 . S
N249 N248 1.365 1_655 S
N249 H269 0.862 . S
C250 C245 1.501 . S
C250 H251 0.961 . S
C250 H252 0.961 . S
C250 H253 0.960 . S
H251 C250 0.961 . S
H252 C250 0.961 . S
H253 C250 0.960 . S
C254 N255 1.342 . S
C254 C258 1.401 . S
C254 C259 1.499 . S
N255 Co238 1.989 1_655 S
N255 C254 1.342 . S
N255 N256 1.388 . S
N256 Co239 1.993 1_655 S
N256 N255 1.388 . S
N256 C257 1.346 . S
C257 N256 1.346 . S
C257 C258 1.396 . S
C257 C267 1.510 1_545 S
C258 C254 1.401 . S
C258 C257 1.396 . S
C259 C254 1.499 . S
C259 H260 0.959 . S
C259 H261 0.960 . S
C259 H262 0.961 . S
H260 C259 0.959 . S
H261 C259 0.960 . S
H262 C259 0.961 . S
O263 Co238 1.967 . S
O263 C271 1.258 . S
O264 Co239 1.941 . S
O264 C271 1.266 . S
H265 C267 0.959 . S
H266 C267 0.961 . S
C267 C257 1.510 1_565 S
C267 H265 0.959 . S
C267 H266 0.961 . S
C267 H268 0.960 . S
H268 C267 0.960 . S
H269 N249 0.862 . S
O270 Co238 1.920 1_655 S
O270 C243 1.289 . S
C271 O263 1.258 . S
C271 O264 1.266 . S
Co272 O275 1.970 . S
Co272 N289 1.989 . S
Co272 O297 1.967 . S
Co272 O304 1.920 . S
Co273 O276 1.966 . S
Co273 N282 2.022 . S
Co273 N290 1.993 . S
Co273 O298 1.941 . S
C274 O275 1.258 . S
C274 O276 1.263 . S
O275 Co272 1.970 . S
O275 C274 1.258 . S
O276 Co273 1.966 . S
O276 C274 1.263 . S
C277 O278 1.235 . S
C277 O304 1.289 . S
O278 C277 1.235 . S
C279 C281 1.400 . S
C279 N282 1.351 . S
C279 C284 1.501 . S
C280 C281 1.387 . S
C280 N283 1.341 . S
C281 C279 1.400 . S
C281 C280 1.387 . S
N282 Co273 2.022 . S
N282 C279 1.351 . S
N282 N283 1.365 . S
N283 C280 1.341 . S
N283 N282 1.365 . S
N283 H303 0.862 . S
C284 C279 1.501 . S
C284 H285 0.961 . S
C284 H286 0.961 . S
C284 H287 0.960 . S
H285 C284 0.961 . S
H286 C284 0.961 . S
H287 C284 0.960 . S
C288 N289 1.342 . S
C288 C292 1.401 . S
C288 C293 1.499 . S
N289 Co272 1.989 . S
N289 C288 1.342 . S
N289 N290 1.388 . S
N290 Co273 1.993 . S
N290 N289 1.388 . S
N290 C291 1.346 . S
C291 N290 1.346 . S
C291 C292 1.396 . S
C291 C301 1.510 . S
C292 C288 1.401 . S
C292 C291 1.396 . S
C293 C288 1.499 . S
C293 H294 0.959 . S
C293 H295 0.960 . S
C293 H296 0.961 . S
H294 C293 0.959 . S
H295 C293 0.960 . S
H296 C293 0.961 . S
O297 Co272 1.967 . S
O297 C305 1.258 . S
O298 Co273 1.941 . S
O298 C305 1.266 . S
H299 C301 0.959 . S
H300 C301 0.961 . S
C301 C291 1.510 . S
C301 H299 0.959 . S
C301 H300 0.961 . S
C301 H302 0.960 . S
H302 C301 0.960 . S
H303 N283 0.862 . S
O304 Co272 1.920 . S
O304 C277 1.289 . S
C305 O297 1.258 . S
C305 O298 1.266 . S
Co306 O309 1.970 . S
Co306 N323 1.989 1_556 S
Co306 O331 1.967 . S
Co306 O338 1.920 1_556 S
Co307 O310 1.966 . S
Co307 N316 2.022 . S
Co307 N324 1.993 1_556 S
Co307 O332 1.941 . S
C308 O309 1.258 . S
C308 O310 1.263 . S
O309 Co306 1.970 . S
O309 C308 1.258 . S
O310 Co307 1.966 . S
O310 C308 1.263 . S
C311 O312 1.233 1_554 S
C311 O338 1.289 . S
O312 C311 1.233 1_556 S
C313 C315 1.400 . S
C313 N316 1.351 . S
C313 C318 1.501 . S
C314 C315 1.387 1_554 S
C314 N317 1.341 . S
C315 C313 1.400 . S
C315 C314 1.387 1_556 S
N316 Co307 2.022 . S
N316 C313 1.351 . S
N316 N317 1.365 1_556 S
N317 C314 1.341 . S
N317 N316 1.365 1_554 S
N317 H337 0.862 . S
C318 C313 1.501 . S
C318 H319 0.961 . S
C318 H320 0.961 . S
C318 H321 0.960 . S
H319 C318 0.961 . S
H320 C318 0.961 . S
H321 C318 0.960 . S
C322 N323 1.342 . S
C322 C326 1.401 . S
C322 C327 1.499 . S
N323 Co306 1.989 1_554 S
N323 C322 1.342 . S
N323 N324 1.388 . S
N324 Co307 1.993 1_554 S
N324 N323 1.388 . S
N324 C325 1.346 . S
C325 N324 1.346 . S
C325 C326 1.396 . S
C325 C335 1.510 . S
C326 C322 1.401 . S
C326 C325 1.396 . S
C327 C322 1.499 . S
C327 H328 0.959 . S
C327 H329 0.960 . S
C327 H330 0.961 . S
H328 C327 0.959 . S
H329 C327 0.960 . S
H330 C327 0.961 . S
O331 Co306 1.967 . S
O331 C339 1.258 . S
O332 Co307 1.941 . S
O332 C339 1.266 . S
H333 C335 0.959 . S
H334 C335 0.961 . S
C335 C325 1.510 . S
C335 H333 0.959 . S
C335 H334 0.961 . S
C335 H336 0.960 . S
H336 C335 0.960 . S
H337 N317 0.862 . S
O338 Co306 1.920 1_554 S
O338 C311 1.289 . S
C339 O331 1.258 . S
C339 O332 1.266 . S
Co340 O343 1.970 . S
Co340 N357 1.989 . S
Co340 O365 1.967 . S
Co340 O372 1.920 . S
Co341 O344 1.966 . S
Co341 N350 2.022 . S
Co341 N358 1.993 . S
Co341 O366 1.941 . S
C342 O343 1.258 . S
C342 O344 1.263 . S
O343 Co340 1.970 . S
O343 C342 1.258 . S
O344 Co341 1.966 . S
O344 C342 1.263 . S
C345 O346 1.235 . S
C345 O372 1.289 . S
O346 C345 1.235 . S
C347 C349 1.400 . S
C347 N350 1.351 . S
C347 C352 1.501 . S
C348 C349 1.387 . S
C348 N351 1.341 . S
C349 C347 1.400 . S
C349 C348 1.387 . S
N350 Co341 2.022 . S
N350 C347 1.351 . S
N350 N351 1.365 . S
N351 C348 1.341 . S
N351 N350 1.365 . S
N351 H371 0.862 . S
C352 C347 1.501 . S
C352 H353 0.961 . S
C352 H354 0.961 . S
C352 H355 0.960 . S
H353 C352 0.961 . S
H354 C352 0.961 . S
H355 C352 0.960 . S
C356 N357 1.342 . S
C356 C360 1.401 . S
C356 C361 1.499 . S
N357 Co340 1.989 . S
N357 C356 1.342 . S
N357 N358 1.388 . S
N358 Co341 1.993 . S
N358 N357 1.388 . S
N358 C359 1.346 . S
C359 N358 1.346 . S
C359 C360 1.396 . S
C359 C369 1.510 . S
C360 C356 1.401 . S
C360 C359 1.396 . S
C361 C356 1.499 . S
C361 H362 0.959 . S
C361 H363 0.960 . S
C361 H364 0.961 . S
H362 C361 0.959 . S
H363 C361 0.960 . S
H364 C361 0.961 . S
O365 Co340 1.967 . S
O365 C373 1.258 . S
O366 Co341 1.941 . S
O366 C373 1.266 . S
H367 C369 0.959 . S
H368 C369 0.961 . S
C369 C359 1.510 . S
C369 H367 0.959 . S
C369 H368 0.961 . S
C369 H370 0.960 . S
H370 C369 0.960 . S
H371 N351 0.862 . S
O372 Co340 1.920 . S
O372 C345 1.289 . S
C373 O365 1.258 . S
C373 O366 1.266 . S
Co374 O377 1.970 . S
Co374 N391 1.989 . S
Co374 O399 1.967 . S
Co374 O406 1.920 . S
Co375 O378 1.966 . S
Co375 N384 2.022 1_655 S
Co375 N392 1.993 . S
Co375 O400 1.941 . S
C376 O377 1.258 . S
C376 O378 1.263 . S
O377 Co374 1.970 . S
O377 C376 1.258 . S
O378 Co375 1.966 . S
O378 C376 1.263 . S
C379 O380 1.235 . S
C379 O406 1.289 . S
O380 C379 1.235 . S
C381 C383 1.400 . S
C381 N384 1.351 . S
C381 C386 1.501 . S
C382 C383 1.387 . S
C382 N385 1.341 . S
C383 C381 1.400 . S
C383 C382 1.387 . S
N384 Co375 2.022 1_455 S
N384 C381 1.351 . S
N384 N385 1.365 . S
N385 C382 1.341 . S
N385 N384 1.365 . S
N385 H405 0.862 . S
C386 C381 1.501 . S
C386 H387 0.961 . S
C386 H388 0.961 . S
C386 H389 0.960 . S
H387 C386 0.961 . S
H388 C386 0.961 . S
H389 C386 0.960 . S
C390 N391 1.342 . S
C390 C394 1.401 . S
C390 C395 1.499 . S
N391 Co374 1.989 . S
N391 C390 1.342 . S
N391 N392 1.388 . S
N392 Co375 1.993 . S
N392 N391 1.388 . S
N392 C393 1.346 . S
C393 N392 1.346 . S
C393 C394 1.396 . S
C393 C403 1.510 1_655 S
C394 C390 1.401 . S
C394 C393 1.396 . S
C395 C390 1.499 . S
C395 H396 0.959 . S
C395 H397 0.960 . S
C395 H398 0.961 . S
H396 C395 0.959 . S
H397 C395 0.960 . S
H398 C395 0.961 . S
O399 Co374 1.967 . S
O399 C407 1.258 . S
O400 Co375 1.941 . S
O400 C407 1.266 . S
H401 C403 0.959 . S
H402 C403 0.961 . S
C403 C393 1.510 1_455 S
C403 H401 0.959 . S
C403 H402 0.961 . S
C403 H404 0.960 . S
H404 C403 0.960 . S
H405 N385 0.862 . S
O406 Co374 1.920 . S
O406 C379 1.289 . S
C407 O399 1.258 . S
C407 O400 1.266 . S
Co408 O411 1.970 . S
Co408 N425 1.989 . S
Co408 O433 1.967 . S
Co408 O440 1.920 . S
Co409 O412 1.966 . S
Co409 N418 2.022 . S
Co409 N426 1.993 . S
Co409 O434 1.941 . S
C410 O411 1.258 . S
C410 O412 1.263 . S
O411 Co408 1.970 . S
O411 C410 1.258 . S
O412 Co409 1.966 . S
O412 C410 1.263 . S
C413 O414 1.235 . S
C413 O440 1.289 . S
O414 C413 1.235 . S
C415 C417 1.400 . S
C415 N418 1.351 . S
C415 C420 1.501 . S
C416 C417 1.387 . S
C416 N419 1.341 . S
C417 C415 1.400 . S
C417 C416 1.387 . S
N418 Co409 2.022 . S
N418 C415 1.351 . S
N418 N419 1.365 . S
N419 C416 1.341 . S
N419 N418 1.365 . S
N419 H439 0.862 . S
C420 C415 1.501 . S
C420 H421 0.961 . S
C420 H422 0.961 . S
C420 H423 0.960 . S
H421 C420 0.961 . S
H422 C420 0.961 . S
H423 C420 0.960 . S
C424 N425 1.342 . S
C424 C428 1.401 . S
C424 C429 1.499 . S
N425 Co408 1.989 . S
N425 C424 1.342 . S
N425 N426 1.388 . S
N426 Co409 1.993 . S
N426 N425 1.388 . S
N426 C427 1.346 . S
C427 N426 1.346 . S
C427 C428 1.396 . S
C427 C437 1.510 . S
C428 C424 1.401 . S
C428 C427 1.396 . S
C429 C424 1.499 . S
C429 H430 0.959 . S
C429 H431 0.960 . S
C429 H432 0.961 . S
H430 C429 0.959 . S
H431 C429 0.960 . S
H432 C429 0.961 . S
O433 Co408 1.967 . S
O433 C441 1.258 . S
O434 Co409 1.941 . S
O434 C441 1.266 . S
H435 C437 0.959 . S
H436 C437 0.961 . S
C437 C427 1.510 . S
C437 H435 0.959 . S
C437 H436 0.961 . S
C437 H438 0.960 . S
H438 C437 0.960 . S
H439 N419 0.862 . S
O440 Co408 1.920 . S
O440 C413 1.289 . S
C441 O433 1.258 . S
C441 O434 1.266 . S
Co442 O445 1.970 . S
Co442 N459 1.989 . S
Co442 O467 1.967 . S
Co442 O474 1.920 . S
Co443 O446 1.966 . S
Co443 N452 2.022 . S
Co443 N460 1.993 . S
Co443 O468 1.941 . S
C444 O445 1.258 . S
C444 O446 1.263 . S
O445 Co442 1.970 . S
O445 C444 1.258 . S
O446 Co443 1.966 . S
O446 C444 1.263 . S
C447 O448 1.235 . S
C447 O474 1.289 . S
O448 C447 1.235 . S
C449 C451 1.400 . S
C449 N452 1.351 . S
C449 C454 1.501 . S
C450 C451 1.387 . S
C450 N453 1.341 . S
C451 C449 1.400 . S
C451 C450 1.387 . S
N452 Co443 2.022 . S
N452 C449 1.351 . S
N452 N453 1.365 . S
N453 C450 1.341 . S
N453 N452 1.365 . S
N453 H473 0.862 . S
C454 C449 1.501 . S
C454 H455 0.961 . S
C454 H456 0.961 . S
C454 H457 0.960 . S
H455 C454 0.961 . S
H456 C454 0.961 . S
H457 C454 0.960 . S
C458 N459 1.342 . S
C458 C462 1.401 . S
C458 C463 1.499 . S
N459 Co442 1.989 . S
N459 C458 1.342 . S
N459 N460 1.388 . S
N460 Co443 1.993 . S
N460 N459 1.388 . S
N460 C461 1.346 . S
C461 N460 1.346 . S
C461 C462 1.396 . S
C461 C471 1.510 . S
C462 C458 1.401 . S
C462 C461 1.396 . S
C463 C458 1.499 . S
C463 H464 0.959 . S
C463 H465 0.960 . S
C463 H466 0.961 . S
H464 C463 0.959 . S
H465 C463 0.960 . S
H466 C463 0.961 . S
O467 Co442 1.967 . S
O467 C475 1.258 . S
O468 Co443 1.941 . S
O468 C475 1.266 . S
H469 C471 0.959 . S
H470 C471 0.961 . S
C471 C461 1.510 . S
C471 H469 0.959 . S
C471 H470 0.961 . S
C471 H472 0.960 . S
H472 C471 0.960 . S
H473 N453 0.862 . S
O474 Co442 1.920 . S
O474 C447 1.289 . S
C475 O467 1.258 . S
C475 O468 1.266 . S
Co476 O479 1.970 . S
Co476 N493 1.989 . S
Co476 O501 1.967 . S
Co476 O508 1.920 . S
Co477 O480 1.966 . S
Co477 N486 2.022 . S
Co477 N494 1.993 . S
Co477 O502 1.941 . S
C478 O479 1.258 . S
C478 O480 1.263 . S
O479 Co476 1.970 . S
O479 C478 1.258 . S
O480 Co477 1.966 . S
O480 C478 1.263 . S
C481 O482 1.235 . S
C481 O508 1.289 . S
O482 C481 1.235 . S
C483 C485 1.400 . S
C483 N486 1.351 . S
C483 C488 1.501 . S
C484 C485 1.387 . S
C484 N487 1.341 . S
C485 C483 1.400 . S
C485 C484 1.387 . S
N486 Co477 2.022 . S
N486 C483 1.351 . S
N486 N487 1.365 . S
N487 C484 1.341 . S
N487 N486 1.365 . S
N487 H507 0.862 . S
C488 C483 1.501 . S
C488 H489 0.961 . S
C488 H490 0.961 . S
C488 H491 0.960 . S
H489 C488 0.961 . S
H490 C488 0.961 . S
H491 C488 0.960 . S
C492 N493 1.342 . S
C492 C496 1.401 . S
C492 C497 1.499 . S
N493 Co476 1.989 . S
N493 C492 1.342 . S
N493 N494 1.388 . S
N494 Co477 1.993 . S
N494 N493 1.388 . S
N494 C495 1.346 . S
C495 N494 1.346 . S
C495 C496 1.396 . S
C495 C505 1.510 . S
C496 C492 1.401 . S
C496 C495 1.396 . S
C497 C492 1.499 . S
C497 H498 0.959 . S
C497 H499 0.960 . S
C497 H500 0.961 . S
H498 C497 0.959 . S
H499 C497 0.960 . S
H500 C497 0.961 . S
O501 Co476 1.967 . S
O501 C509 1.258 . S
O502 Co477 1.941 . S
O502 C509 1.266 . S
H503 C505 0.959 . S
H504 C505 0.961 . S
C505 C495 1.510 . S
C505 H503 0.959 . S
C505 H504 0.961 . S
C505 H506 0.960 . S
H506 C505 0.960 . S
H507 N487 0.862 . S
O508 Co476 1.920 . S
O508 C481 1.289 . S
C509 O501 1.258 . S
C509 O502 1.266 . S
Co510 O513 1.970 . S
Co510 N527 1.989 1_554 S
Co510 O535 1.967 . S
Co510 O542 1.920 1_554 S
Co511 O514 1.966 . S
Co511 N520 2.022 1_455 S
Co511 N528 1.993 1_554 S
Co511 O536 1.941 . S
C512 O513 1.258 . S
C512 O514 1.263 . S
O513 Co510 1.970 . S
O513 C512 1.258 . S
O514 Co511 1.966 . S
O514 C512 1.263 . S
C515 O516 1.235 1_556 S
C515 O542 1.289 . S
O516 C515 1.235 1_554 S
C517 C519 1.400 . S
C517 N520 1.351 . S
C517 C522 1.501 . S
C518 C519 1.387 1_556 S
C518 N521 1.341 . S
C519 C517 1.400 . S
C519 C518 1.387 1_554 S
N520 Co511 2.022 1_655 S
N520 C517 1.351 . S
N520 N521 1.365 1_554 S
N521 C518 1.341 . S
N521 N520 1.365 1_556 S
N521 H541 0.862 . S
C522 C517 1.501 . S
C522 H523 0.961 . S
C522 H524 0.961 . S
C522 H525 0.960 . S
H523 C522 0.961 . S
H524 C522 0.961 . S
H525 C522 0.960 . S
C526 N527 1.342 . S
C526 C530 1.401 . S
C526 C531 1.499 . S
N527 Co510 1.989 1_556 S
N527 C526 1.342 . S
N527 N528 1.388 . S
N528 Co511 1.993 1_556 S
N528 N527 1.388 . S
N528 C529 1.346 . S
C529 N528 1.346 . S
C529 C530 1.396 . S
C529 C539 1.510 1_455 S
C530 C526 1.401 . S
C530 C529 1.396 . S
C531 C526 1.499 . S
C531 H532 0.959 . S
C531 H533 0.960 . S
C531 H534 0.961 . S
H532 C531 0.959 . S
H533 C531 0.960 . S
H534 C531 0.961 . S
O535 Co510 1.967 . S
O535 C543 1.258 . S
O536 Co511 1.941 . S
O536 C543 1.266 . S
H537 C539 0.959 . S
H538 C539 0.961 . S
C539 C529 1.510 1_655 S
C539 H537 0.959 . S
C539 H538 0.961 . S
C539 H540 0.960 . S
H540 C539 0.960 . S
H541 N521 0.862 . S
O542 Co510 1.920 1_556 S
O542 C515 1.289 . S
C543 O535 1.258 . S
C543 O536 1.266 . S
Co544 O547 1.970 . S
Co544 N561 1.989 . S
Co544 O569 1.967 . S
Co544 O576 1.920 . S
Co545 O548 1.966 . S
Co545 N554 2.022 . S
Co545 N562 1.993 . S
Co545 O570 1.941 . S
C546 O547 1.258 . S
C546 O548 1.263 . S
O547 Co544 1.970 . S
O547 C546 1.258 . S
O548 Co545 1.966 . S
O548 C546 1.263 . S
C549 O550 1.235 . S
C549 O576 1.289 . S
O550 C549 1.235 . S
C551 C553 1.400 . S
C551 N554 1.351 . S
C551 C556 1.501 . S
C552 C553 1.387 . S
C552 N555 1.341 . S
C553 C551 1.400 . S
C553 C552 1.387 . S
N554 Co545 2.022 . S
N554 C551 1.351 . S
N554 N555 1.365 . S
N555 C552 1.341 . S
N555 N554 1.365 . S
N555 H575 0.862 . S
C556 C551 1.501 . S
C556 H557 0.961 . S
C556 H558 0.961 . S
C556 H559 0.960 . S
H557 C556 0.961 . S
H558 C556 0.961 . S
H559 C556 0.960 . S
C560 N561 1.342 . S
C560 C564 1.401 . S
C560 C565 1.499 . S
N561 Co544 1.989 . S
N561 C560 1.342 . S
N561 N562 1.388 . S
N562 Co545 1.993 . S
N562 N561 1.388 . S
N562 C563 1.346 . S
C563 N562 1.346 . S
C563 C564 1.396 . S
C563 C573 1.510 . S
C564 C560 1.401 . S
C564 C563 1.396 . S
C565 C560 1.499 . S
C565 H566 0.959 . S
C565 H567 0.960 . S
C565 H568 0.961 . S
H566 C565 0.959 . S
H567 C565 0.960 . S
H568 C565 0.961 . S
O569 Co544 1.967 . S
O569 C577 1.258 . S
O570 Co545 1.941 . S
O570 C577 1.266 . S
H571 C573 0.959 . S
H572 C573 0.961 . S
C573 C563 1.510 . S
C573 H571 0.959 . S
C573 H572 0.961 . S
C573 H574 0.960 . S
H574 C573 0.960 . S
H575 N555 0.862 . S
O576 Co544 1.920 . S
O576 C549 1.289 . S
C577 O569 1.258 . S
C577 O570 1.266 . S
Co578 O581 1.970 . S
Co578 N595 1.989 . S
Co578 O603 1.967 . S
Co578 O610 1.920 . S
Co579 O582 1.966 . S
Co579 N588 2.022 . S
Co579 N596 1.993 . S
Co579 O604 1.941 . S
C580 O581 1.258 . S
C580 O582 1.263 . S
O581 Co578 1.970 . S
O581 C580 1.258 . S
O582 Co579 1.966 . S
O582 C580 1.263 . S
C583 O584 1.235 . S
C583 O610 1.289 . S
O584 C583 1.235 . S
C585 C587 1.400 . S
C585 N588 1.351 . S
C585 C590 1.501 . S
C586 C587 1.387 . S
C586 N589 1.341 . S
C587 C585 1.400 . S
C587 C586 1.387 . S
N588 Co579 2.022 . S
N588 C585 1.351 . S
N588 N589 1.365 . S
N589 C586 1.341 . S
N589 N588 1.365 . S
N589 H609 0.862 . S
C590 C585 1.501 . S
C590 H591 0.961 . S
C590 H592 0.961 . S
C590 H593 0.960 . S
H591 C590 0.961 . S
H592 C590 0.961 . S
H593 C590 0.960 . S
C594 N595 1.342 . S
C594 C598 1.401 . S
C594 C599 1.499 . S
N595 Co578 1.989 . S
N595 C594 1.342 . S
N595 N596 1.388 . S
N596 Co579 1.993 . S
N596 N595 1.388 . S
N596 C597 1.346 . S
C597 N596 1.346 . S
C597 C598 1.396 . S
C597 C607 1.510 . S
C598 C594 1.401 . S
C598 C597 1.396 . S
C599 C594 1.499 . S
C599 H600 0.959 . S
C599 H601 0.960 . S
C599 H602 0.961 . S
H600 C599 0.959 . S
H601 C599 0.960 . S
H602 C599 0.961 . S
O603 Co578 1.967 . S
O603 C611 1.258 . S
O604 Co579 1.941 . S
O604 C611 1.266 . S
H605 C607 0.959 . S
H606 C607 0.961 . S
C607 C597 1.510 . S
C607 H605 0.959 . S
C607 H606 0.961 . S
C607 H608 0.960 . S
H608 C607 0.960 . S
H609 N589 0.862 . S
O610 Co578 1.920 . S
O610 C583 1.289 . S
C611 O603 1.258 . S
C611 O604 1.266 . S
Co612 O615 1.970 . S
Co612 N629 1.989 1_565 S
Co612 O637 1.967 . S
Co612 O644 1.920 1_565 S
Co613 O616 1.966 . S
Co613 N622 2.022 . S
Co613 N630 1.993 1_565 S
Co613 O638 1.941 . S
C614 O615 1.258 . S
C614 O616 1.263 . S
O615 Co612 1.970 . S
O615 C614 1.258 . S
O616 Co613 1.966 . S
O616 C614 1.263 . S
C617 O618 1.233 1_545 S
C617 O644 1.289 . S
O618 C617 1.233 1_565 S
C619 C621 1.400 . S
C619 N622 1.351 . S
C619 C624 1.501 . S
C620 C621 1.387 1_545 S
C620 N623 1.341 . S
C621 C619 1.400 . S
C621 C620 1.387 1_565 S
N622 Co613 2.022 . S
N622 C619 1.351 . S
N622 N623 1.365 1_565 S
N623 C620 1.341 . S
N623 N622 1.365 1_545 S
N623 H643 0.862 . S
C624 C619 1.501 . S
C624 H625 0.961 . S
C624 H626 0.961 . S
C624 H627 0.960 . S
H625 C624 0.961 . S
H626 C624 0.961 . S
H627 C624 0.960 . S
C628 N629 1.342 . S
C628 C632 1.401 . S
C628 C633 1.499 . S
N629 Co612 1.989 1_545 S
N629 C628 1.342 . S
N629 N630 1.388 . S
N630 Co613 1.993 1_545 S
N630 N629 1.388 . S
N630 C631 1.346 . S
C631 N630 1.346 . S
C631 C632 1.396 . S
C631 C641 1.510 . S
C632 C628 1.401 . S
C632 C631 1.396 . S
C633 C628 1.499 . S
C633 H634 0.959 . S
C633 H635 0.960 . S
C633 H636 0.961 . S
H634 C633 0.959 . S
H635 C633 0.960 . S
H636 C633 0.961 . S
O637 Co612 1.967 . S
O637 C645 1.258 . S
O638 Co613 1.941 . S
O638 C645 1.266 . S
H639 C641 0.959 . S
H640 C641 0.961 . S
C641 C631 1.510 . S
C641 H639 0.959 . S
C641 H640 0.961 . S
C641 H642 0.960 . S
H642 C641 0.960 . S
H643 N623 0.862 . S
O644 Co612 1.920 1_545 S
O644 C617 1.289 . S
C645 O637 1.258 . S
C645 O638 1.266 . S
Co646 O649 1.970 . S
Co646 N663 1.989 . S
Co646 O671 1.967 . S
Co646 O678 1.920 . S
Co647 O650 1.966 . S
Co647 N656 2.022 . S
Co647 N664 1.993 . S
Co647 O672 1.941 . S
C648 O649 1.258 . S
C648 O650 1.263 . S
O649 Co646 1.970 . S
O649 C648 1.258 . S
O650 Co647 1.966 . S
O650 C648 1.263 . S
C651 O652 1.235 . S
C651 O678 1.289 . S
O652 C651 1.235 . S
C653 C655 1.400 . S
C653 N656 1.351 . S
C653 C658 1.501 . S
C654 C655 1.387 . S
C654 N657 1.341 . S
C655 C653 1.400 . S
C655 C654 1.387 . S
N656 Co647 2.022 . S
N656 C653 1.351 . S
N656 N657 1.365 . S
N657 C654 1.341 . S
N657 N656 1.365 . S
N657 H677 0.862 . S
C658 C653 1.501 . S
C658 H659 0.961 . S
C658 H660 0.961 . S
C658 H661 0.960 . S
H659 C658 0.961 . S
H660 C658 0.961 . S
H661 C658 0.960 . S
C662 N663 1.342 . S
C662 C666 1.401 . S
C662 C667 1.499 . S
N663 Co646 1.989 . S
N663 C662 1.342 . S
N663 N664 1.388 . S
N664 Co647 1.993 . S
N664 N663 1.388 . S
N664 C665 1.346 . S
C665 N664 1.346 . S
C665 C666 1.396 . S
C665 C675 1.510 . S
C666 C662 1.401 . S
C666 C665 1.396 . S
C667 C662 1.499 . S
C667 H668 0.959 . S
C667 H669 0.960 . S
C667 H670 0.961 . S
H668 C667 0.959 . S
H669 C667 0.960 . S
H670 C667 0.961 . S
O671 Co646 1.967 . S
O671 C679 1.258 . S
O672 Co647 1.941 . S
O672 C679 1.266 . S
H673 C675 0.959 . S
H674 C675 0.961 . S
C675 C665 1.510 . S
C675 H673 0.959 . S
C675 H674 0.961 . S
C675 H676 0.960 . S
H676 C675 0.960 . S
H677 N657 0.862 . S
O678 Co646 1.920 . S
O678 C651 1.289 . S
C679 O671 1.258 . S
C679 O672 1.266 . S
Co680 O683 1.970 . S
Co680 N697 1.989 1_545 S
Co680 O705 1.967 . S
Co680 O712 1.920 1_545 S
Co681 O684 1.966 . S
Co681 N690 2.022 1_554 S
Co681 N698 1.993 1_545 S
Co681 O706 1.941 . S
C682 O683 1.258 . S
C682 O684 1.263 . S
O683 Co680 1.970 . S
O683 C682 1.258 . S
O684 Co681 1.966 . S
O684 C682 1.263 . S
C685 O686 1.235 1_565 S
C685 O712 1.289 . S
O686 C685 1.235 1_545 S
C687 C689 1.400 . S
C687 N690 1.351 . S
C687 C692 1.501 . S
C688 C689 1.387 1_565 S
C688 N691 1.341 . S
C689 C687 1.400 . S
C689 C688 1.387 1_545 S
N690 Co681 2.022 1_556 S
N690 C687 1.351 . S
N690 N691 1.365 1_545 S
N691 C688 1.341 . S
N691 N690 1.365 1_565 S
N691 H711 0.862 . S
C692 C687 1.501 . S
C692 H693 0.961 . S
C692 H694 0.961 . S
C692 H695 0.960 . S
H693 C692 0.961 . S
H694 C692 0.961 . S
H695 C692 0.960 . S
C696 N697 1.342 . S
C696 C700 1.401 . S
C696 C701 1.499 . S
N697 Co680 1.989 1_565 S
N697 C696 1.342 . S
N697 N698 1.388 . S
N698 Co681 1.993 1_565 S
N698 N697 1.388 . S
N698 C699 1.346 . S
C699 N698 1.346 . S
C699 C700 1.396 . S
C699 C709 1.510 1_554 S
C700 C696 1.401 . S
C700 C699 1.396 . S
C701 C696 1.499 . S
C701 H702 0.959 . S
C701 H703 0.960 . S
C701 H704 0.961 . S
H702 C701 0.959 . S
H703 C701 0.960 . S
H704 C701 0.961 . S
O705 Co680 1.967 . S
O705 C713 1.258 . S
O706 Co681 1.941 . S
O706 C713 1.266 . S
H707 C709 0.959 . S
H708 C709 0.961 . S
C709 C699 1.510 1_556 S
C709 H707 0.959 . S
C709 H708 0.961 . S
C709 H710 0.960 . S
H710 C709 0.960 . S
H711 N691 0.862 . S
O712 Co680 1.920 1_565 S
O712 C685 1.289 . S
C713 O705 1.258 . S
C713 O706 1.266 . S
Co714 O717 1.970 . S
Co714 N731 1.989 . S
Co714 O739 1.967 . S
Co714 O746 1.920 . S
Co715 O718 1.966 . S
Co715 N724 2.022 . S
Co715 N732 1.993 . S
Co715 O740 1.941 . S
C716 O717 1.258 . S
C716 O718 1.263 . S
O717 Co714 1.970 . S
O717 C716 1.258 . S
O718 Co715 1.966 . S
O718 C716 1.263 . S
C719 O720 1.235 . S
C719 O746 1.289 . S
O720 C719 1.235 . S
C721 C723 1.400 . S
C721 N724 1.351 . S
C721 C726 1.501 . S
C722 C723 1.387 . S
C722 N725 1.341 . S
C723 C721 1.400 . S
C723 C722 1.387 . S
N724 Co715 2.022 . S
N724 C721 1.351 . S
N724 N725 1.365 . S
N725 C722 1.341 . S
N725 N724 1.365 . S
N725 H745 0.862 . S
C726 C721 1.501 . S
C726 H727 0.961 . S
C726 H728 0.961 . S
C726 H729 0.960 . S
H727 C726 0.961 . S
H728 C726 0.961 . S
H729 C726 0.960 . S
C730 N731 1.342 . S
C730 C734 1.401 . S
C730 C735 1.499 . S
N731 Co714 1.989 . S
N731 C730 1.342 . S
N731 N732 1.388 . S
N732 Co715 1.993 . S
N732 N731 1.388 . S
N732 C733 1.346 . S
C733 N732 1.346 . S
C733 C734 1.396 . S
C733 C743 1.510 . S
C734 C730 1.401 . S
C734 C733 1.396 . S
C735 C730 1.499 . S
C735 H736 0.959 . S
C735 H737 0.960 . S
C735 H738 0.961 . S
H736 C735 0.959 . S
H737 C735 0.960 . S
H738 C735 0.961 . S
O739 Co714 1.967 . S
O739 C747 1.258 . S
O740 Co715 1.941 . S
O740 C747 1.266 . S
H741 C743 0.959 . S
H742 C743 0.961 . S
C743 C733 1.510 . S
C743 H741 0.959 . S
C743 H742 0.961 . S
C743 H744 0.960 . S
H744 C743 0.960 . S
H745 N725 0.862 . S
O746 Co714 1.920 . S
O746 C719 1.289 . S
C747 O739 1.258 . S
C747 O740 1.266 . S
Co748 O751 1.970 . S
Co748 N765 1.989 . S
Co748 O773 1.967 . S
Co748 O780 1.920 . S
Co749 O752 1.966 . S
Co749 N758 2.022 . S
Co749 N766 1.993 . S
Co749 O774 1.941 . S
C750 O751 1.258 . S
C750 O752 1.263 . S
O751 Co748 1.970 . S
O751 C750 1.258 . S
O752 Co749 1.966 . S
O752 C750 1.263 . S
C753 O754 1.235 . S
C753 O780 1.289 . S
O754 C753 1.235 . S
C755 C757 1.400 . S
C755 N758 1.351 . S
C755 C760 1.501 . S
C756 C757 1.387 . S
C756 N759 1.341 . S
C757 C755 1.400 . S
C757 C756 1.387 . S
N758 Co749 2.022 . S
N758 C755 1.351 . S
N758 N759 1.365 . S
N759 C756 1.341 . S
N759 N758 1.365 . S
N759 H779 0.862 . S
C760 C755 1.501 . S
C760 H761 0.961 . S
C760 H762 0.961 . S
C760 H763 0.960 . S
H761 C760 0.961 . S
H762 C760 0.961 . S
H763 C760 0.960 . S
C764 N765 1.342 . S
C764 C768 1.401 . S
C764 C769 1.499 . S
N765 Co748 1.989 . S
N765 C764 1.342 . S
N765 N766 1.388 . S
N766 Co749 1.993 . S
N766 N765 1.388 . S
N766 C767 1.346 . S
C767 N766 1.346 . S
C767 C768 1.396 . S
C767 C777 1.510 . S
C768 C764 1.401 . S
C768 C767 1.396 . S
C769 C764 1.499 . S
C769 H770 0.959 . S
C769 H771 0.960 . S
C769 H772 0.961 . S
H770 C769 0.959 . S
H771 C769 0.960 . S
H772 C769 0.961 . S
O773 Co748 1.967 . S
O773 C781 1.258 . S
O774 Co749 1.941 . S
O774 C781 1.266 . S
H775 C777 0.959 . S
H776 C777 0.961 . S
C777 C767 1.510 . S
C777 H775 0.959 . S
C777 H776 0.961 . S
C777 H778 0.960 . S
H778 C777 0.960 . S
H779 N759 0.862 . S
O780 Co748 1.920 . S
O780 C753 1.289 . S
C781 O773 1.258 . S
C781 O774 1.266 . S
Co782 O785 1.970 . S
Co782 N799 1.989 . S
Co782 O807 1.967 . S
Co782 O814 1.920 . S
Co783 O786 1.966 . S
Co783 N792 2.022 1_556 S
Co783 N800 1.993 . S
Co783 O808 1.941 . S
C784 O785 1.258 . S
C784 O786 1.263 . S
O785 Co782 1.970 . S
O785 C784 1.258 . S
O786 Co783 1.966 . S
O786 C784 1.263 . S
C787 O788 1.235 . S
C787 O814 1.289 . S
O788 C787 1.235 . S
C789 C791 1.400 . S
C789 N792 1.351 . S
C789 C794 1.501 . S
C790 C791 1.387 . S
C790 N793 1.341 . S
C791 C789 1.400 . S
C791 C790 1.387 . S
N792 Co783 2.022 1_554 S
N792 C789 1.351 . S
N792 N793 1.365 . S
N793 C790 1.341 . S
N793 N792 1.365 . S
N793 H813 0.862 . S
C794 C789 1.501 . S
C794 H795 0.961 . S
C794 H796 0.961 . S
C794 H797 0.960 . S
H795 C794 0.961 . S
H796 C794 0.961 . S
H797 C794 0.960 . S
C798 N799 1.342 . S
C798 C802 1.401 . S
C798 C803 1.499 . S
N799 Co782 1.989 . S
N799 C798 1.342 . S
N799 N800 1.388 . S
N800 Co783 1.993 . S
N800 N799 1.388 . S
N800 C801 1.346 . S
C801 N800 1.346 . S
C801 C802 1.396 . S
C801 C811 1.510 1_556 S
C802 C798 1.401 . S
C802 C801 1.396 . S
C803 C798 1.499 . S
C803 H804 0.959 . S
C803 H805 0.960 . S
C803 H806 0.961 . S
H804 C803 0.959 . S
H805 C803 0.960 . S
H806 C803 0.961 . S
O807 Co782 1.967 . S
O807 C815 1.258 . S
O808 Co783 1.941 . S
O808 C815 1.266 . S
H809 C811 0.959 . S
H810 C811 0.961 . S
C811 C801 1.510 1_554 S
C811 H809 0.959 . S
C811 H810 0.961 . S
C811 H812 0.960 . S
H812 C811 0.960 . S
H813 N793 0.862 . S
O814 Co782 1.920 . S
O814 C787 1.289 . S
C815 O807 1.258 . S
C815 O808 1.266 . S
C816 C817 1.391 . S
C816 C818 1.394 . S
C816 H832 0.931 . S
C817 C816 1.391 . S
C817 C821 1.376 . S
C818 C816 1.394 . S
C818 C819 1.369 . S
C818 C822 1.531 . S
C819 C818 1.369 . S
C819 C820 1.410 . S
C819 C827 1.503 . S
C820 C819 1.410 . S
C820 C821 1.392 . S
C820 C823 1.511 . S
C821 C817 1.376 . S
C821 C820 1.392 . S
C821 H833 0.929 . S
C822 C818 1.531 . S
C822 H834 0.960 . S
C822 H835 0.962 . S
C822 H836 0.960 . S
C823 C820 1.511 . S
C823 H837 0.961 . S
C823 H838 0.961 . S
C823 H839 0.961 . S
C824 C825 1.370 . S
C824 C826 1.363 . S
C824 H840 0.931 . S
C825 C824 1.370 . S
C825 C829 1.408 . S
C826 C824 1.363 . S
C826 C827 1.370 . S
C826 C830 1.524 . S
C827 C819 1.503 . S
C827 C826 1.370 . S
C827 C828 1.403 . S
C828 C827 1.403 . S
C828 C829 1.404 . S
C828 C831 1.539 . S
C829 C825 1.408 . S
C829 C828 1.404 . S
C829 H841 0.930 . S
C830 C826 1.524 . S
C830 H842 0.956 . S
C830 H843 0.961 . S
C830 H844 0.961 . S
C831 C828 1.539 . S
C831 H845 0.958 . S
C831 H846 0.961 . S
C831 H847 0.960 . S
H832 C816 0.931 . S
H833 C821 0.929 . S
H834 C822 0.960 . S
H835 C822 0.962 . S
H836 C822 0.960 . S
H837 C823 0.961 . S
H838 C823 0.961 . S
H839 C823 0.961 . S
H840 C824 0.931 . S
H841 C829 0.930 . S
H842 C830 0.956 . S
H843 C830 0.961 . S
H844 C830 0.961 . S
H845 C831 0.958 . S
H846 C831 0.961 . S
H847 C831 0.960 . S
C848 C849 1.391 . S
C848 C850 1.394 . S
C848 H864 0.931 . S
C849 C848 1.391 . S
C849 C853 1.376 . S
C850 C848 1.394 . S
C850 C851 1.369 . S
C850 C854 1.531 . S
C851 C850 1.369 . S
C851 C852 1.410 . S
C851 C859 1.503 . S
C852 C851 1.410 . S
C852 C853 1.392 . S
C852 C855 1.511 . S
C853 C849 1.376 . S
C853 C852 1.392 . S
C853 H865 0.929 . S
C854 C850 1.531 . S
C854 H866 0.960 . S
C854 H867 0.962 . S
C854 H868 0.960 . S
C855 C852 1.511 . S
C855 H869 0.961 . S
C855 H870 0.961 . S
C855 H871 0.961 . S
C856 C857 1.370 . S
C856 C858 1.363 . S
C856 H872 0.931 . S
C857 C856 1.370 . S
C857 C861 1.408 . S
C858 C856 1.363 . S
C858 C859 1.370 . S
C858 C862 1.524 . S
C859 C851 1.503 . S
C859 C858 1.370 . S
C859 C860 1.403 . S
C860 C859 1.403 . S
C860 C861 1.404 . S
C860 C863 1.539 . S
C861 C857 1.408 . S
C861 C860 1.404 . S
C861 H873 0.930 . S
C862 C858 1.524 . S
C862 H874 0.956 . S
C862 H875 0.961 . S
C862 H876 0.961 . S
C863 C860 1.539 . S
C863 H877 0.958 . S
C863 H878 0.961 . S
C863 H879 0.960 . S
H864 C848 0.931 . S
H865 C853 0.929 . S
H866 C854 0.960 . S
H867 C854 0.962 . S
H868 C854 0.960 . S
H869 C855 0.961 . S
H870 C855 0.961 . S
H871 C855 0.961 . S
H872 C856 0.931 . S
H873 C861 0.930 . S
H874 C862 0.956 . S
H875 C862 0.961 . S
H876 C862 0.961 . S
H877 C863 0.958 . S
H878 C863 0.961 . S
H879 C863 0.960 . S
C880 C881 1.391 . S
C880 C882 1.394 . S
C880 H896 0.931 . S
C881 C880 1.391 . S
C881 C885 1.376 . S
C882 C880 1.394 . S
C882 C883 1.369 . S
C882 C886 1.531 . S
C883 C882 1.369 . S
C883 C884 1.410 . S
C883 C891 1.503 . S
C884 C883 1.410 . S
C884 C885 1.392 . S
C884 C887 1.511 . S
C885 C881 1.376 . S
C885 C884 1.392 . S
C885 H897 0.929 . S
C886 C882 1.531 . S
C886 H898 0.960 . S
C886 H899 0.962 . S
C886 H900 0.960 . S
C887 C884 1.511 . S
C887 H901 0.961 . S
C887 H902 0.961 . S
C887 H903 0.961 . S
C888 C889 1.370 . S
C888 C890 1.363 . S
C888 H904 0.931 . S
C889 C888 1.370 . S
C889 C893 1.408 . S
C890 C888 1.363 . S
C890 C891 1.370 . S
C890 C894 1.524 . S
C891 C883 1.503 . S
C891 C890 1.370 . S
C891 C892 1.403 . S
C892 C891 1.403 . S
C892 C893 1.404 . S
C892 C895 1.539 . S
C893 C889 1.408 . S
C893 C892 1.404 . S
C893 H905 0.930 . S
C894 C890 1.524 . S
C894 H906 0.956 . S
C894 H907 0.961 . S
C894 H908 0.961 . S
C895 C892 1.539 . S
C895 H909 0.958 . S
C895 H910 0.961 . S
C895 H911 0.960 . S
H896 C880 0.931 . S
H897 C885 0.929 . S
H898 C886 0.960 . S
H899 C886 0.962 . S
H900 C886 0.960 . S
H901 C887 0.961 . S
H902 C887 0.961 . S
H903 C887 0.961 . S
H904 C888 0.931 . S
H905 C893 0.930 . S
H906 C894 0.956 . S
H907 C894 0.961 . S
H908 C894 0.961 . S
H909 C895 0.958 . S
H910 C895 0.961 . S
H911 C895 0.960 . S
C912 C913 1.391 . S
C912 C914 1.394 . S
C912 H928 0.931 . S
C913 C912 1.391 . S
C913 C917 1.376 . S
C914 C912 1.394 . S
C914 C915 1.369 . S
C914 C918 1.531 . S
C915 C914 1.369 . S
C915 C916 1.410 . S
C915 C923 1.503 . S
C916 C915 1.410 . S
C916 C917 1.392 . S
C916 C919 1.511 . S
C917 C913 1.376 . S
C917 C916 1.392 . S
C917 H929 0.929 . S
C918 C914 1.531 . S
C918 H930 0.960 . S
C918 H931 0.962 . S
C918 H932 0.960 . S
C919 C916 1.511 . S
C919 H933 0.961 . S
C919 H934 0.961 . S
C919 H935 0.961 . S
C920 C921 1.370 . S
C920 C922 1.363 . S
C920 H936 0.931 . S
C921 C920 1.370 . S
C921 C925 1.408 . S
C922 C920 1.363 . S
C922 C923 1.370 . S
C922 C926 1.524 . S
C923 C915 1.503 . S
C923 C922 1.370 . S
C923 C924 1.403 . S
C924 C923 1.403 . S
C924 C925 1.404 . S
C924 C927 1.539 . S
C925 C921 1.408 . S
C925 C924 1.404 . S
C925 H937 0.930 . S
C926 C922 1.524 . S
C926 H938 0.956 . S
C926 H939 0.961 . S
C926 H940 0.961 . S
C927 C924 1.539 . S
C927 H941 0.958 . S
C927 H942 0.961 . S
C927 H943 0.960 . S
H928 C912 0.931 . S
H929 C917 0.929 . S
H930 C918 0.960 . S
H931 C918 0.962 . S
H932 C918 0.960 . S
H933 C919 0.961 . S
H934 C919 0.961 . S
H935 C919 0.961 . S
H936 C920 0.931 . S
H937 C925 0.930 . S
H938 C926 0.956 . S
H939 C926 0.961 . S
H940 C926 0.961 . S
H941 C927 0.958 . S
H942 C927 0.961 . S
H943 C927 0.960 . S
C944 C945 1.391 . S
C944 C946 1.394 . S
C944 H960 0.931 . S
C945 C944 1.391 . S
C945 C949 1.376 . S
C946 C944 1.394 . S
C946 C947 1.369 . S
C946 C950 1.531 . S
C947 C946 1.369 . S
C947 C948 1.410 . S
C947 C955 1.503 . S
C948 C947 1.410 . S
C948 C949 1.392 . S
C948 C951 1.511 . S
C949 C945 1.376 . S
C949 C948 1.392 . S
C949 H961 0.929 . S
C950 C946 1.531 . S
C950 H962 0.960 . S
C950 H963 0.962 . S
C950 H964 0.960 . S
C951 C948 1.511 . S
C951 H965 0.961 . S
C951 H966 0.961 . S
C951 H967 0.961 . S
C952 C953 1.370 . S
C952 C954 1.363 . S
C952 H968 0.931 . S
C953 C952 1.370 . S
C953 C957 1.408 . S
C954 C952 1.363 . S
C954 C955 1.370 . S
C954 C958 1.524 . S
C955 C947 1.503 . S
C955 C954 1.370 . S
C955 C956 1.403 . S
C956 C955 1.403 . S
C956 C957 1.404 . S
C956 C959 1.539 . S
C957 C953 1.408 . S
C957 C956 1.404 . S
C957 H969 0.930 . S
C958 C954 1.524 . S
C958 H970 0.956 . S
C958 H971 0.961 . S
C958 H972 0.961 . S
C959 C956 1.539 . S
C959 H973 0.958 . S
C959 H974 0.961 . S
C959 H975 0.960 . S
H960 C944 0.931 . S
H961 C949 0.929 . S
H962 C950 0.960 . S
H963 C950 0.962 . S
H964 C950 0.960 . S
H965 C951 0.961 . S
H966 C951 0.961 . S
H967 C951 0.961 . S
H968 C952 0.931 . S
H969 C957 0.930 . S
H970 C958 0.956 . S
H971 C958 0.961 . S
H972 C958 0.961 . S
H973 C959 0.958 . S
H974 C959 0.961 . S
H975 C959 0.960 . S
C976 C977 1.391 . S
C976 C978 1.394 . S
C976 H992 0.931 . S
C977 C976 1.391 . S
C977 C981 1.376 . S
C978 C976 1.394 . S
C978 C979 1.369 . S
C978 C982 1.531 . S
C979 C978 1.369 . S
C979 C980 1.410 . S
C979 C987 1.503 . S
C980 C979 1.410 . S
C980 C981 1.395 . S
C980 C983 1.511 . S
C981 C977 1.376 . S
C981 C980 1.395 . S
C981 H993 0.926 1_565 S
C982 C978 1.531 . S
C982 H994 0.970 . S
C982 H995 0.962 . S
C982 H996 0.960 1_565 S
C983 C980 1.511 . S
C983 H997 0.961 . S
C983 H998 0.961 . S
C983 H999 0.961 1_565 S
C984 C985 1.370 . S
C984 C986 1.363 . S
C984 H1000 0.931 . S
C985 C984 1.370 . S
C985 C989 1.408 1_565 S
C986 C984 1.363 . S
C986 C987 1.370 . S
C986 C990 1.524 . S
C987 C979 1.503 . S
C987 C986 1.370 . S
C987 C988 1.403 1_565 S
C988 C987 1.403 1_545 S
C988 C989 1.404 . S
C988 C991 1.539 . S
C989 C985 1.408 1_545 S
C989 C988 1.404 . S
C989 H1001 0.930 . S
C990 C986 1.524 . S
C990 H1002 0.956 . S
C990 H1003 0.961 . S
C990 H1004 0.961 . S
C991 C988 1.539 . S
C991 H1005 0.958 . S
C991 H1006 0.961 . S
C991 H1007 0.960 . S
H992 C976 0.931 . S
H993 C981 0.926 1_545 S
H994 C982 0.970 . S
H995 C982 0.962 . S
H996 C982 0.960 1_545 S
H997 C983 0.961 . S
H998 C983 0.961 . S
H999 C983 0.961 1_545 S
H1000 C984 0.931 . S
H1001 C989 0.930 . S
H1002 C990 0.956 . S
H1003 C990 0.961 . S
H1004 C990 0.961 . S
H1005 C991 0.958 . S
H1006 C991 0.961 . S
H1007 C991 0.960 . S
C1008 C1009 1.391 . S
C1008 C1010 1.394 . S
C1008 H1024 0.931 . S
C1009 C1008 1.391 . S
C1009 C1013 1.376 . S
C1010 C1008 1.394 . S
C1010 C1011 1.369 . S
C1010 C1014 1.531 . S
C1011 C1010 1.369 . S
C1011 C1012 1.410 . S
C1011 C1019 1.503 . S
C1012 C1011 1.410 . S
C1012 C1013 1.392 . S
C1012 C1015 1.511 . S
C1013 C1009 1.376 . S
C1013 C1012 1.392 . S
C1013 H1025 0.929 . S
C1014 C1010 1.531 . S
C1014 H1026 0.960 . S
C1014 H1027 0.962 . S
C1014 H1028 0.960 . S
C1015 C1012 1.511 . S
C1015 H1029 0.961 . S
C1015 H1030 0.961 . S
C1015 H1031 0.961 . S
C1016 C1017 1.370 . S
C1016 C1018 1.363 . S
C1016 H1032 0.931 . S
C1017 C1016 1.370 . S
C1017 C1021 1.408 . S
C1018 C1016 1.363 . S
C1018 C1019 1.370 . S
C1018 C1022 1.524 . S
C1019 C1011 1.503 . S
C1019 C1018 1.370 . S
C1019 C1020 1.403 . S
C1020 C1019 1.403 . S
C1020 C1021 1.404 . S
C1020 C1023 1.539 . S
C1021 C1017 1.408 . S
C1021 C1020 1.404 . S
C1021 H1033 0.930 . S
C1022 C1018 1.524 . S
C1022 H1034 0.956 . S
C1022 H1035 0.961 . S
C1022 H1036 0.961 . S
C1023 C1020 1.539 . S
C1023 H1037 0.958 . S
C1023 H1038 0.961 . S
C1023 H1039 0.960 . S
H1024 C1008 0.931 . S
H1025 C1013 0.929 . S
H1026 C1014 0.960 . S
H1027 C1014 0.962 . S
H1028 C1014 0.960 . S
H1029 C1015 0.961 . S
H1030 C1015 0.961 . S
H1031 C1015 0.961 . S
H1032 C1016 0.931 . S
H1033 C1021 0.930 . S
H1034 C1022 0.956 . S
H1035 C1022 0.961 . S
H1036 C1022 0.961 . S
H1037 C1023 0.958 . S
H1038 C1023 0.961 . S
H1039 C1023 0.960 . S
C1040 C1041 1.391 1_565 S
C1040 C1042 1.394 . S
C1040 H1056 0.931 . S
C1041 C1040 1.391 1_545 S
C1041 C1045 1.376 . S
C1042 C1040 1.394 . S
C1042 C1043 1.369 1_565 S
C1042 C1046 1.531 . S
C1043 C1042 1.369 1_545 S
C1043 C1044 1.410 . S
C1043 C1051 1.503 . S
C1044 C1043 1.410 . S
C1044 C1045 1.392 . S
C1044 C1047 1.511 . S
C1045 C1041 1.376 . S
C1045 C1044 1.392 . S
C1045 H1057 0.929 . S
C1046 C1042 1.531 . S
C1046 H1058 0.960 . S
C1046 H1059 0.962 . S
C1046 H1060 0.960 . S
C1047 C1044 1.511 . S
C1047 H1061 0.961 . S
C1047 H1062 0.961 . S
C1047 H1063 0.961 . S
C1048 C1049 1.370 . S
C1048 C1050 1.363 . S
C1048 H1064 0.931 . S
C1049 C1048 1.370 . S
C1049 C1053 1.408 . S
C1050 C1048 1.363 . S
C1050 C1051 1.370 . S
C1050 C1054 1.524 . S
C1051 C1043 1.503 . S
C1051 C1050 1.370 . S
C1051 C1052 1.403 . S
C1052 C1051 1.403 . S
C1052 C1053 1.404 . S
C1052 C1055 1.539 1_545 S
C1053 C1049 1.408 . S
C1053 C1052 1.404 . S
C1053 H1065 0.930 . S
C1054 C1050 1.524 . S
C1054 H1066 0.956 . S
C1054 H1067 0.961 . S
C1054 H1068 0.961 . S
C1055 C1052 1.539 1_565 S
C1055 H1069 0.958 . S
C1055 H1070 0.961 1_565 S
C1055 H1071 0.960 1_565 S
H1056 C1040 0.931 . S
H1057 C1045 0.929 . S
H1058 C1046 0.960 . S
H1059 C1046 0.962 . S
H1060 C1046 0.960 . S
H1061 C1047 0.961 . S
H1062 C1047 0.961 . S
H1063 C1047 0.961 . S
H1064 C1048 0.931 . S
H1065 C1053 0.930 . S
H1066 C1054 0.956 . S
H1067 C1054 0.961 . S
H1068 C1054 0.961 . S
H1069 C1055 0.958 . S
H1070 C1055 0.961 1_545 S
H1071 C1055 0.960 1_545 S
C1072 C1073 1.391 . S
C1072 C1074 1.394 . S
C1072 H1088 0.931 . S
C1073 C1072 1.391 . S
C1073 C1077 1.376 . S
C1074 C1072 1.394 . S
C1074 C1075 1.369 . S
C1074 C1078 1.531 . S
C1075 C1074 1.369 . S
C1075 C1076 1.410 . S
C1075 C1083 1.503 . S
C1076 C1075 1.410 . S
C1076 C1077 1.392 . S
C1076 C1079 1.511 . S
C1077 C1073 1.376 . S
C1077 C1076 1.392 . S
C1077 H1089 0.929 . S
C1078 C1074 1.531 . S
C1078 H1090 0.960 . S
C1078 H1091 0.962 . S
C1078 H1092 0.960 . S
C1079 C1076 1.511 . S
C1079 H1093 0.961 . S
C1079 H1094 0.961 . S
C1079 H1095 0.961 . S
C1080 C1081 1.370 . S
C1080 C1082 1.363 . S
C1080 H1096 0.931 . S
C1081 C1080 1.370 . S
C1081 C1085 1.408 . S
C1082 C1080 1.363 . S
C1082 C1083 1.370 . S
C1082 C1086 1.524 . S
C1083 C1075 1.503 . S
C1083 C1082 1.370 . S
C1083 C1084 1.403 . S
C1084 C1083 1.403 . S
C1084 C1085 1.404 . S
C1084 C1087 1.539 . S
C1085 C1081 1.408 . S
C1085 C1084 1.404 . S
C1085 H1097 0.930 . S
C1086 C1082 1.524 . S
C1086 H1098 0.956 . S
C1086 H1099 0.961 . S
C1086 H1100 0.961 . S
C1087 C1084 1.539 . S
C1087 H1101 0.958 . S
C1087 H1102 0.961 . S
C1087 H1103 0.960 . S
H1088 C1072 0.931 . S
H1089 C1077 0.929 . S
H1090 C1078 0.960 . S
H1091 C1078 0.962 . S
H1092 C1078 0.960 . S
H1093 C1079 0.961 . S
H1094 C1079 0.961 . S
H1095 C1079 0.961 . S
H1096 C1080 0.931 . S
H1097 C1085 0.930 . S
H1098 C1086 0.956 . S
H1099 C1086 0.961 . S
H1100 C1086 0.961 . S
H1101 C1087 0.958 . S
H1102 C1087 0.961 . S
H1103 C1087 0.960 . S
C1104 C1105 1.391 . S
C1104 C1106 1.394 . S
C1104 H1120 0.931 . S
C1105 C1104 1.391 . S
C1105 C1109 1.376 . S
C1106 C1104 1.394 . S
C1106 C1107 1.369 . S
C1106 C1110 1.531 . S
C1107 C1106 1.369 . S
C1107 C1108 1.410 . S
C1107 C1115 1.503 . S
C1108 C1107 1.410 . S
C1108 C1109 1.392 . S
C1108 C1111 1.511 . S
C1109 C1105 1.376 . S
C1109 C1108 1.392 . S
C1109 H1121 0.929 . S
C1110 C1106 1.531 . S
C1110 H1122 0.960 . S
C1110 H1123 0.962 . S
C1110 H1124 0.960 . S
C1111 C1108 1.511 . S
C1111 H1125 0.961 . S
C1111 H1126 0.961 . S
C1111 H1127 0.961 . S
C1112 C1113 1.370 . S
C1112 C1114 1.363 . S
C1112 H1128 0.931 . S
C1113 C1112 1.370 . S
C1113 C1117 1.408 . S
C1114 C1112 1.363 . S
C1114 C1115 1.370 . S
C1114 C1118 1.524 . S
C1115 C1107 1.503 . S
C1115 C1114 1.370 . S
C1115 C1116 1.403 . S
C1116 C1115 1.403 . S
C1116 C1117 1.404 . S
C1116 C1119 1.539 . S
C1117 C1113 1.408 . S
C1117 C1116 1.404 . S
C1117 H1129 0.930 . S
C1118 C1114 1.524 . S
C1118 H1130 0.956 . S
C1118 H1131 0.961 . S
C1118 H1132 0.961 . S
C1119 C1116 1.539 . S
C1119 H1133 0.958 . S
C1119 H1134 0.961 . S
C1119 H1135 0.960 . S
H1120 C1104 0.931 . S
H1121 C1109 0.929 . S
H1122 C1110 0.960 . S
H1123 C1110 0.962 . S
H1124 C1110 0.960 . S
H1125 C1111 0.961 . S
H1126 C1111 0.961 . S
H1127 C1111 0.961 . S
H1128 C1112 0.931 . S
H1129 C1117 0.930 . S
H1130 C1118 0.956 . S
H1131 C1118 0.961 . S
H1132 C1118 0.961 . S
H1133 C1119 0.958 . S
H1134 C1119 0.961 . S
H1135 C1119 0.960 . S
C1136 C1137 1.391 . S
C1136 C1138 1.394 . S
C1136 H1152 0.931 . S
C1137 C1136 1.391 . S
C1137 C1141 1.376 . S
C1138 C1136 1.394 . S
C1138 C1139 1.369 . S
C1138 C1142 1.531 . S
C1139 C1138 1.369 . S
C1139 C1140 1.410 . S
C1139 C1147 1.503 . S
C1140 C1139 1.410 . S
C1140 C1141 1.392 . S
C1140 C1143 1.511 . S
C1141 C1137 1.376 . S
C1141 C1140 1.392 . S
C1141 H1153 0.929 . S
C1142 C1138 1.531 . S
C1142 H1154 0.960 . S
C1142 H1155 0.962 . S
C1142 H1156 0.960 . S
C1143 C1140 1.511 . S
C1143 H1157 0.961 . S
C1143 H1158 0.961 . S
C1143 H1159 0.961 . S
C1144 C1145 1.370 . S
C1144 C1146 1.363 . S
C1144 H1160 0.931 . S
C1145 C1144 1.370 . S
C1145 C1149 1.408 . S
C1146 C1144 1.363 . S
C1146 C1147 1.370 . S
C1146 C1150 1.524 . S
C1147 C1139 1.503 . S
C1147 C1146 1.370 . S
C1147 C1148 1.403 . S
C1148 C1147 1.403 . S
C1148 C1149 1.404 . S
C1148 C1151 1.539 . S
C1149 C1145 1.408 . S
C1149 C1148 1.404 . S
C1149 H1161 0.930 . S
C1150 C1146 1.524 . S
C1150 H1162 0.956 . S
C1150 H1163 0.961 . S
C1150 H1164 0.961 . S
C1151 C1148 1.539 . S
C1151 H1165 0.958 . S
C1151 H1166 0.961 . S
C1151 H1167 0.960 . S
H1152 C1136 0.931 . S
H1153 C1141 0.929 . S
H1154 C1142 0.960 . S
H1155 C1142 0.962 . S
H1156 C1142 0.960 . S
H1157 C1143 0.961 . S
H1158 C1143 0.961 . S
H1159 C1143 0.961 . S
H1160 C1144 0.931 . S
H1161 C1149 0.930 . S
H1162 C1150 0.956 . S
H1163 C1150 0.961 . S
H1164 C1150 0.961 . S
H1165 C1151 0.958 . S
H1166 C1151 0.961 . S
H1167 C1151 0.960 . S
C1168 C1169 1.391 . S
C1168 C1170 1.394 . S
C1168 H1184 0.931 . S
C1169 C1168 1.391 . S
C1169 C1173 1.403 . S
C1170 C1168 1.394 . S
C1170 C1171 1.369 . S
C1170 C1174 1.531 . S
C1171 C1170 1.369 . S
C1171 C1172 1.410 1_655 S
C1171 C1179 1.503 . S
C1172 C1171 1.410 1_455 S
C1172 C1173 1.386 1_455 S
C1172 C1175 1.511 . S
C1173 C1169 1.403 . S
C1173 C1172 1.386 1_655 S
C1173 H1185 0.909 1_655 S
C1174 C1170 1.531 . S
C1174 H1186 0.960 . S
C1174 H1187 0.962 . S
C1174 H1188 0.960 . S
C1175 C1172 1.511 . S
C1175 H1189 0.961 . S
C1175 H1190 0.961 . S
C1175 H1191 0.961 . S
C1176 C1177 1.370 . S
C1176 C1178 1.363 . S
C1176 H1192 0.931 . S
C1177 C1176 1.370 . S
C1177 C1181 1.408 1_655 S
C1178 C1176 1.363 . S
C1178 C1179 1.370 . S
C1178 C1182 1.524 . S
C1179 C1171 1.503 . S
C1179 C1178 1.370 . S
C1179 C1180 1.403 1_655 S
C1180 C1179 1.403 1_455 S
C1180 C1181 1.404 . S
C1180 C1183 1.539 . S
C1181 C1177 1.408 1_455 S
C1181 C1180 1.404 . S
C1181 H1193 0.930 . S
C1182 C1178 1.524 . S
C1182 H1194 0.956 . S
C1182 H1195 0.961 . S
C1182 H1196 0.961 . S
C1183 C1180 1.539 . S
C1183 H1197 0.958 . S
C1183 H1198 0.961 . S
C1183 H1199 0.960 . S
H1184 C1168 0.931 . S
H1185 C1173 0.909 1_455 S
H1186 C1174 0.960 . S
H1187 C1174 0.962 . S
H1188 C1174 0.960 . S
H1189 C1175 0.961 . S
H1190 C1175 0.961 . S
H1191 C1175 0.961 . S
H1192 C1176 0.931 . S
H1193 C1181 0.930 . S
H1194 C1182 0.956 . S
H1195 C1182 0.961 . S
H1196 C1182 0.961 . S
H1197 C1183 0.958 . S
H1198 C1183 0.961 . S
H1199 C1183 0.960 . S
C1200 C1201 1.391 . S
C1200 C1202 1.394 . S
C1200 H1216 0.931 . S
C1201 C1200 1.391 . S
C1201 C1205 1.376 . S
C1202 C1200 1.394 . S
C1202 C1203 1.369 . S
C1202 C1206 1.531 . S
C1203 C1202 1.369 . S
C1203 C1204 1.410 . S
C1203 C1211 1.503 . S
C1204 C1203 1.410 . S
C1204 C1205 1.392 . S
C1204 C1207 1.511 . S
C1205 C1201 1.376 . S
C1205 C1204 1.392 . S
C1205 H1217 0.929 . S
C1206 C1202 1.531 . S
C1206 H1218 0.960 . S
C1206 H1219 0.962 . S
C1206 H1220 0.960 . S
C1207 C1204 1.511 . S
C1207 H1221 0.961 . S
C1207 H1222 0.961 . S
C1207 H1223 0.961 . S
C1208 C1209 1.370 . S
C1208 C1210 1.363 . S
C1208 H1224 0.931 . S
C1209 C1208 1.370 . S
C1209 C1213 1.408 . S
C1210 C1208 1.363 . S
C1210 C1211 1.370 . S
C1210 C1214 1.524 . S
C1211 C1203 1.503 . S
C1211 C1210 1.370 . S
C1211 C1212 1.403 . S
C1212 C1211 1.403 . S
C1212 C1213 1.404 . S
C1212 C1215 1.539 . S
C1213 C1209 1.408 . S
C1213 C1212 1.404 . S
C1213 H1225 0.930 . S
C1214 C1210 1.524 . S
C1214 H1226 0.956 . S
C1214 H1227 0.961 . S
C1214 H1228 0.961 . S
C1215 C1212 1.539 . S
C1215 H1229 0.958 . S
C1215 H1230 0.961 . S
C1215 H1231 0.960 . S
H1216 C1200 0.931 . S
H1217 C1205 0.929 . S
H1218 C1206 0.960 . S
H1219 C1206 0.962 . S
H1220 C1206 0.960 . S
H1221 C1207 0.961 . S
H1222 C1207 0.961 . S
H1223 C1207 0.961 . S
H1224 C1208 0.931 . S
H1225 C1213 0.930 . S
H1226 C1214 0.956 . S
H1227 C1214 0.961 . S
H1228 C1214 0.961 . S
H1229 C1215 0.958 . S
H1230 C1215 0.961 . S
H1231 C1215 0.960 . S
C1232 C1233 1.391 . S
C1232 C1234 1.394 . S
C1232 H1248 0.931 . S
C1233 C1232 1.391 . S
C1233 C1237 1.376 . S
C1234 C1232 1.394 . S
C1234 C1235 1.369 . S
C1234 C1238 1.531 . S
C1235 C1234 1.369 . S
C1235 C1236 1.410 . S
C1235 C1243 1.503 . S
C1236 C1235 1.410 . S
C1236 C1237 1.392 . S
C1236 C1239 1.511 . S
C1237 C1233 1.376 . S
C1237 C1236 1.392 . S
C1237 H1249 0.929 . S
C1238 C1234 1.531 . S
C1238 H1250 0.960 . S
C1238 H1251 0.962 . S
C1238 H1252 0.960 . S
C1239 C1236 1.511 . S
C1239 H1253 0.961 . S
C1239 H1254 0.961 . S
C1239 H1255 0.961 . S
C1240 C1241 1.370 . S
C1240 C1242 1.363 . S
C1240 H1256 0.931 . S
C1241 C1240 1.370 . S
C1241 C1245 1.408 . S
C1242 C1240 1.363 . S
C1242 C1243 1.370 . S
C1242 C1246 1.524 . S
C1243 C1235 1.503 . S
C1243 C1242 1.370 . S
C1243 C1244 1.403 . S
C1244 C1243 1.403 . S
C1244 C1245 1.404 . S
C1244 C1247 1.539 . S
C1245 C1241 1.408 . S
C1245 C1244 1.404 . S
C1245 H1257 0.930 . S
C1246 C1242 1.524 . S
C1246 H1258 0.956 . S
C1246 H1259 0.961 . S
C1246 H1260 0.961 . S
C1247 C1244 1.539 . S
C1247 H1261 0.958 . S
C1247 H1262 0.961 . S
C1247 H1263 0.960 . S
H1248 C1232 0.931 . S
H1249 C1237 0.929 . S
H1250 C1238 0.960 . S
H1251 C1238 0.962 . S
H1252 C1238 0.960 . S
H1253 C1239 0.961 . S
H1254 C1239 0.961 . S
H1255 C1239 0.961 . S
H1256 C1240 0.931 . S
H1257 C1245 0.930 . S
H1258 C1246 0.956 . S
H1259 C1246 0.961 . S
H1260 C1246 0.961 . S
H1261 C1247 0.958 . S
H1262 C1247 0.961 . S
H1263 C1247 0.960 . S
C1264 C1265 1.391 . S
C1264 C1266 1.394 . S
C1264 H1280 0.931 . S
C1265 C1264 1.391 . S
C1265 C1269 1.376 . S
C1266 C1264 1.394 . S
C1266 C1267 1.369 . S
C1266 C1270 1.531 . S
C1267 C1266 1.369 . S
C1267 C1268 1.410 . S
C1267 C1275 1.503 . S
C1268 C1267 1.410 . S
C1268 C1269 1.392 . S
C1268 C1271 1.511 . S
C1269 C1265 1.376 . S
C1269 C1268 1.392 . S
C1269 H1281 0.929 . S
C1270 C1266 1.531 . S
C1270 H1282 0.960 . S
C1270 H1283 0.962 . S
C1270 H1284 0.960 . S
C1271 C1268 1.511 . S
C1271 H1285 0.961 . S
C1271 H1286 0.961 . S
C1271 H1287 0.961 . S
C1272 C1273 1.370 . S
C1272 C1274 1.363 . S
C1272 H1288 0.931 . S
C1273 C1272 1.370 . S
C1273 C1277 1.408 . S
C1274 C1272 1.363 . S
C1274 C1275 1.370 . S
C1274 C1278 1.524 . S
C1275 C1267 1.503 . S
C1275 C1274 1.370 . S
C1275 C1276 1.403 . S
C1276 C1275 1.403 . S
C1276 C1277 1.404 . S
C1276 C1279 1.539 . S
C1277 C1273 1.408 . S
C1277 C1276 1.404 . S
C1277 H1289 0.930 . S
C1278 C1274 1.524 . S
C1278 H1290 0.956 . S
C1278 H1291 0.961 . S
C1278 H1292 0.961 . S
C1279 C1276 1.539 . S
C1279 H1293 0.958 . S
C1279 H1294 0.961 . S
C1279 H1295 0.960 . S
H1280 C1264 0.931 . S
H1281 C1269 0.929 . S
H1282 C1270 0.960 . S
H1283 C1270 0.962 . S
H1284 C1270 0.960 . S
H1285 C1271 0.961 . S
H1286 C1271 0.961 . S
H1287 C1271 0.961 . S
H1288 C1272 0.931 . S
H1289 C1277 0.930 . S
H1290 C1278 0.956 . S
H1291 C1278 0.961 . S
H1292 C1278 0.961 . S
H1293 C1279 0.958 . S
H1294 C1279 0.961 . S
H1295 C1279 0.960 . S
C1296 C1297 1.391 1_655 S
C1296 C1298 1.394 1_655 S
C1296 H1312 0.931 . S
C1297 C1296 1.391 1_455 S
C1297 C1301 1.376 . S
C1298 C1296 1.394 1_455 S
C1298 C1299 1.369 . S
C1298 C1302 1.531 1_455 S
C1299 C1298 1.369 . S
C1299 C1300 1.410 . S
C1299 C1307 1.503 . S
C1300 C1299 1.410 . S
C1300 C1301 1.392 . S
C1300 C1303 1.511 . S
C1301 C1297 1.376 . S
C1301 C1300 1.392 . S
C1301 H1313 0.929 . S
C1302 C1298 1.531 1_655 S
C1302 H1314 0.960 1_655 S
C1302 H1315 0.962 . S
C1302 H1316 0.960 . S
C1303 C1300 1.511 . S
C1303 H1317 0.961 . S
C1303 H1318 0.961 . S
C1303 H1319 0.961 . S
C1304 C1305 1.370 . S
C1304 C1306 1.363 . S
C1304 H1320 0.931 1_455 S
C1305 C1304 1.370 . S
C1305 C1309 1.408 . S
C1306 C1304 1.363 . S
C1306 C1307 1.370 . S
C1306 C1310 1.524 1_455 S
C1307 C1299 1.503 . S
C1307 C1306 1.370 . S
C1307 C1308 1.403 . S
C1308 C1307 1.403 . S
C1308 C1309 1.404 . S
C1308 C1311 1.539 . S
C1309 C1305 1.408 . S
C1309 C1308 1.404 . S
C1309 H1321 0.930 . S
C1310 C1306 1.524 1_655 S
C1310 H1322 0.956 . S
C1310 H1323 0.961 . S
C1310 H1324 0.961 . S
C1311 C1308 1.539 . S
C1311 H1325 0.958 . S
C1311 H1326 0.961 . S
C1311 H1327 0.960 . S
H1312 C1296 0.931 . S
H1313 C1301 0.929 . S
H1314 C1302 0.960 1_455 S
H1315 C1302 0.962 . S
H1316 C1302 0.960 . S
H1317 C1303 0.961 . S
H1318 C1303 0.961 . S
H1319 C1303 0.961 . S
H1320 C1304 0.931 1_655 S
H1321 C1309 0.930 . S
H1322 C1310 0.956 . S
H1323 C1310 0.961 . S
H1324 C1310 0.961 . S
H1325 C1311 0.958 . S
H1326 C1311 0.961 . S
H1327 C1311 0.960 . S
C1328 C1329 1.391 . S
C1328 C1330 1.394 . S
C1328 H1344 0.931 . S
C1329 C1328 1.391 . S
C1329 C1333 1.376 . S
C1330 C1328 1.394 . S
C1330 C1331 1.369 . S
C1330 C1334 1.531 . S
C1331 C1330 1.369 . S
C1331 C1332 1.410 . S
C1331 C1339 1.503 . S
C1332 C1331 1.410 . S
C1332 C1333 1.392 . S
C1332 C1335 1.511 . S
C1333 C1329 1.376 . S
C1333 C1332 1.392 . S
C1333 H1345 0.929 . S
C1334 C1330 1.531 . S
C1334 H1346 0.960 . S
C1334 H1347 0.962 . S
C1334 H1348 0.960 . S
C1335 C1332 1.511 . S
C1335 H1349 0.961 . S
C1335 H1350 0.961 . S
C1335 H1351 0.961 . S
C1336 C1337 1.370 . S
C1336 C1338 1.363 . S
C1336 H1352 0.931 . S
C1337 C1336 1.370 . S
C1337 C1341 1.408 . S
C1338 C1336 1.363 . S
C1338 C1339 1.370 . S
C1338 C1342 1.524 . S
C1339 C1331 1.503 . S
C1339 C1338 1.370 . S
C1339 C1340 1.403 . S
C1340 C1339 1.403 . S
C1340 C1341 1.404 . S
C1340 C1343 1.539 . S
C1341 C1337 1.408 . S
C1341 C1340 1.404 . S
C1341 H1353 0.930 . S
C1342 C1338 1.524 . S
C1342 H1354 0.956 . S
C1342 H1355 0.961 . S
C1342 H1356 0.961 . S
C1343 C1340 1.539 . S
C1343 H1357 0.958 . S
C1343 H1358 0.961 . S
C1343 H1359 0.960 . S
H1344 C1328 0.931 . S
H1345 C1333 0.929 . S
H1346 C1334 0.960 . S
H1347 C1334 0.962 . S
H1348 C1334 0.960 . S
H1349 C1335 0.961 . S
H1350 C1335 0.961 . S
H1351 C1335 0.961 . S
H1352 C1336 0.931 . S
H1353 C1341 0.930 . S
H1354 C1342 0.956 . S
H1355 C1342 0.961 . S
H1356 C1342 0.961 . S
H1357 C1343 0.958 . S
H1358 C1343 0.961 . S
H1359 C1343 0.960 . S
C1360 C1361 1.391 . S
C1360 C1362 1.394 . S
C1360 H1376 0.931 . S
C1361 C1360 1.391 . S
C1361 C1365 1.376 . S
C1362 C1360 1.394 . S
C1362 C1363 1.369 . S
C1362 C1366 1.531 . S
C1363 C1362 1.369 . S
C1363 C1364 1.410 . S
C1363 C1371 1.503 . S
C1364 C1363 1.410 . S
C1364 C1365 1.392 . S
C1364 C1367 1.511 . S
C1365 C1361 1.376 . S
C1365 C1364 1.392 . S
C1365 H1377 0.929 . S
C1366 C1362 1.531 . S
C1366 H1378 0.960 . S
C1366 H1379 0.962 . S
C1366 H1380 0.960 . S
C1367 C1364 1.511 . S
C1367 H1381 0.961 . S
C1367 H1382 0.961 . S
C1367 H1383 0.961 . S
C1368 C1369 1.370 . S
C1368 C1370 1.363 . S
C1368 H1384 0.931 . S
C1369 C1368 1.370 . S
C1369 C1373 1.408 . S
C1370 C1368 1.363 . S
C1370 C1371 1.370 . S
C1370 C1374 1.524 . S
C1371 C1363 1.503 . S
C1371 C1370 1.370 . S
C1371 C1372 1.403 . S
C1372 C1371 1.403 . S
C1372 C1373 1.404 . S
C1372 C1375 1.539 . S
C1373 C1369 1.408 . S
C1373 C1372 1.404 . S
C1373 H1385 0.930 . S
C1374 C1370 1.524 . S
C1374 H1386 0.956 . S
C1374 H1387 0.961 . S
C1374 H1388 0.961 . S
C1375 C1372 1.539 . S
C1375 H1389 0.958 . S
C1375 H1390 0.961 . S
C1375 H1391 0.960 . S
H1376 C1360 0.931 . S
H1377 C1365 0.929 . S
H1378 C1366 0.960 . S
H1379 C1366 0.962 . S
H1380 C1366 0.960 . S
H1381 C1367 0.961 . S
H1382 C1367 0.961 . S
H1383 C1367 0.961 . S
H1384 C1368 0.931 . S
H1385 C1373 0.930 . S
H1386 C1374 0.956 . S
H1387 C1374 0.961 . S
H1388 C1374 0.961 . S
H1389 C1375 0.958 . S
H1390 C1375 0.961 . S
H1391 C1375 0.960 . S
C1392 C1393 1.391 . S
C1392 C1394 1.394 . S
C1392 H1408 0.931 . S
C1393 C1392 1.391 . S
C1393 C1397 1.376 . S
C1394 C1392 1.394 . S
C1394 C1395 1.369 . S
C1394 C1398 1.531 . S
C1395 C1394 1.369 . S
C1395 C1396 1.410 . S
C1395 C1403 1.503 . S
C1396 C1395 1.410 . S
C1396 C1397 1.392 . S
C1396 C1399 1.511 . S
C1397 C1393 1.376 . S
C1397 C1396 1.392 . S
C1397 H1409 0.929 . S
C1398 C1394 1.531 . S
C1398 H1410 0.960 . S
C1398 H1411 0.962 . S
C1398 H1412 0.960 . S
C1399 C1396 1.511 . S
C1399 H1413 0.961 . S
C1399 H1414 0.961 . S
C1399 H1415 0.961 . S
C1400 C1401 1.370 . S
C1400 C1402 1.363 . S
C1400 H1416 0.931 . S
C1401 C1400 1.370 . S
C1401 C1405 1.408 . S
C1402 C1400 1.363 . S
C1402 C1403 1.370 . S
C1402 C1406 1.524 . S
C1403 C1395 1.503 . S
C1403 C1402 1.370 . S
C1403 C1404 1.403 . S
C1404 C1403 1.403 . S
C1404 C1405 1.404 . S
C1404 C1407 1.539 . S
C1405 C1401 1.408 . S
C1405 C1404 1.404 . S
C1405 H1417 0.930 . S
C1406 C1402 1.524 . S
C1406 H1418 0.956 . S
C1406 H1419 0.961 . S
C1406 H1420 0.961 . S
C1407 C1404 1.539 . S
C1407 H1421 0.958 . S
C1407 H1422 0.961 . S
C1407 H1423 0.960 . S
H1408 C1392 0.931 . S
H1409 C1397 0.929 . S
H1410 C1398 0.960 . S
H1411 C1398 0.962 . S
H1412 C1398 0.960 . S
H1413 C1399 0.961 . S
H1414 C1399 0.961 . S
H1415 C1399 0.961 . S
H1416 C1400 0.931 . S
H1417 C1405 0.930 . S
H1418 C1406 0.956 . S
H1419 C1406 0.961 . S
H1420 C1406 0.961 . S
H1421 C1407 0.958 . S
H1422 C1407 0.961 . S
H1423 C1407 0.960 . S
C1424 C1425 1.391 . S
C1424 C1426 1.394 . S
C1424 H1440 0.931 . S
C1425 C1424 1.391 . S
C1425 C1429 1.376 . S
C1426 C1424 1.394 . S
C1426 C1427 1.369 . S
C1426 C1430 1.531 . S
C1427 C1426 1.369 . S
C1427 C1428 1.410 . S
C1427 C1435 1.503 . S
C1428 C1427 1.410 . S
C1428 C1429 1.392 . S
C1428 C1431 1.511 . S
C1429 C1425 1.376 . S
C1429 C1428 1.392 . S
C1429 H1441 0.929 . S
C1430 C1426 1.531 . S
C1430 H1442 0.960 . S
C1430 H1443 0.962 . S
C1430 H1444 0.960 . S
C1431 C1428 1.511 . S
C1431 H1445 0.961 . S
C1431 H1446 0.961 . S
C1431 H1447 0.961 . S
C1432 C1433 1.370 . S
C1432 C1434 1.363 . S
C1432 H1448 0.931 . S
C1433 C1432 1.370 . S
C1433 C1437 1.408 . S
C1434 C1432 1.363 . S
C1434 C1435 1.370 . S
C1434 C1438 1.524 . S
C1435 C1427 1.503 . S
C1435 C1434 1.370 . S
C1435 C1436 1.403 . S
C1436 C1435 1.403 . S
C1436 C1437 1.404 . S
C1436 C1439 1.539 . S
C1437 C1433 1.408 . S
C1437 C1436 1.404 . S
C1437 H1449 0.930 . S
C1438 C1434 1.524 . S
C1438 H1450 0.956 . S
C1438 H1451 0.961 . S
C1438 H1452 0.961 . S
C1439 C1436 1.539 . S
C1439 H1453 0.958 . S
C1439 H1454 0.961 . S
C1439 H1455 0.960 . S
H1440 C1424 0.931 . S
H1441 C1429 0.929 . S
H1442 C1430 0.960 . S
H1443 C1430 0.962 . S
H1444 C1430 0.960 . S
H1445 C1431 0.961 . S
H1446 C1431 0.961 . S
H1447 C1431 0.961 . S
H1448 C1432 0.931 . S
H1449 C1437 0.930 . S
H1450 C1438 0.956 . S
H1451 C1438 0.961 . S
H1452 C1438 0.961 . S
H1453 C1439 0.958 . S
H1454 C1439 0.961 . S
H1455 C1439 0.960 . S
C1456 C1457 1.391 . S
C1456 C1458 1.394 . S
C1456 H1472 0.931 . S
C1457 C1456 1.391 . S
C1457 C1461 1.376 1_554 S
C1458 C1456 1.394 . S
C1458 C1459 1.369 . S
C1458 C1462 1.531 . S
C1459 C1458 1.369 . S
C1459 C1460 1.417 . S
C1459 C1467 1.503 . S
C1460 C1459 1.417 . S
C1460 C1461 1.390 1_554 S
C1460 C1463 1.507 1_554 S
C1461 C1457 1.376 1_556 S
C1461 C1460 1.390 1_556 S
C1461 H1473 0.929 . S
C1462 C1458 1.531 . S
C1462 H1474 0.960 . S
C1462 H1475 0.962 . S
C1462 H1476 0.960 . S
C1463 C1460 1.507 1_556 S
C1463 H1477 0.961 . S
C1463 H1478 0.961 1_556 S
C1463 H1479 0.961 . S
C1464 C1465 1.370 . S
C1464 C1466 1.363 . S
C1464 H1480 0.931 . S
C1465 C1464 1.370 . S
C1465 C1469 1.408 . S
C1466 C1464 1.363 . S
C1466 C1467 1.370 . S
C1466 C1470 1.524 . S
C1467 C1459 1.503 . S
C1467 C1466 1.370 . S
C1467 C1468 1.403 1_554 S
C1468 C1467 1.403 1_556 S
C1468 C1469 1.404 1_556 S
C1468 C1471 1.539 . S
C1469 C1465 1.408 . S
C1469 C1468 1.404 1_554 S
C1469 H1481 0.930 1_554 S
C1470 C1466 1.524 . S
C1470 H1482 0.956 . S
C1470 H1483 0.961 . S
C1470 H1484 0.961 . S
C1471 C1468 1.539 . S
C1471 H1485 0.958 . S
C1471 H1486 0.961 . S
C1471 H1487 0.960 . S
H1472 C1456 0.931 . S
H1473 C1461 0.929 . S
H1474 C1462 0.960 . S
H1475 C1462 0.962 . S
H1476 C1462 0.960 . S
H1477 C1463 0.961 . S
H1478 C1463 0.961 1_554 S
H1479 C1463 0.961 . S
H1480 C1464 0.931 . S
H1481 C1469 0.930 1_556 S
H1482 C1470 0.956 . S
H1483 C1470 0.961 . S
H1484 C1470 0.961 . S
H1485 C1471 0.958 . S
H1486 C1471 0.961 . S
H1487 C1471 0.960 . S
C1488 C1489 1.391 . S
C1488 C1490 1.394 . S
C1488 H1504 0.931 . S
C1489 C1488 1.391 . S
C1489 C1493 1.376 . S
C1490 C1488 1.394 . S
C1490 C1491 1.369 . S
C1490 C1494 1.531 . S
C1491 C1490 1.369 . S
C1491 C1492 1.410 . S
C1491 C1499 1.503 . S
C1492 C1491 1.410 . S
C1492 C1493 1.392 . S
C1492 C1495 1.511 . S
C1493 C1489 1.376 . S
C1493 C1492 1.392 . S
C1493 H1505 0.929 . S
C1494 C1490 1.531 . S
C1494 H1506 0.960 . S
C1494 H1507 0.962 . S
C1494 H1508 0.960 . S
C1495 C1492 1.511 . S
C1495 H1509 0.961 . S
C1495 H1510 0.961 . S
C1495 H1511 0.961 . S
C1496 C1497 1.370 . S
C1496 C1498 1.363 . S
C1496 H1512 0.931 . S
C1497 C1496 1.370 . S
C1497 C1501 1.408 . S
C1498 C1496 1.363 . S
C1498 C1499 1.370 . S
C1498 C1502 1.524 . S
C1499 C1491 1.503 . S
C1499 C1498 1.370 . S
C1499 C1500 1.403 . S
C1500 C1499 1.403 . S
C1500 C1501 1.404 . S
C1500 C1503 1.539 . S
C1501 C1497 1.408 . S
C1501 C1500 1.404 . S
C1501 H1513 0.930 . S
C1502 C1498 1.524 . S
C1502 H1514 0.956 . S
C1502 H1515 0.961 . S
C1502 H1516 0.961 . S
C1503 C1500 1.539 . S
C1503 H1517 0.958 . S
C1503 H1518 0.961 . S
C1503 H1519 0.960 . S
H1504 C1488 0.931 . S
H1505 C1493 0.929 . S
H1506 C1494 0.960 . S
H1507 C1494 0.962 . S
H1508 C1494 0.960 . S
H1509 C1495 0.961 . S
H1510 C1495 0.961 . S
H1511 C1495 0.961 . S
H1512 C1496 0.931 . S
H1513 C1501 0.930 . S
H1514 C1502 0.956 . S
H1515 C1502 0.961 . S
H1516 C1502 0.961 . S
H1517 C1503 0.958 . S
H1518 C1503 0.961 . S
H1519 C1503 0.960 . S
C1520 C1521 1.391 . S
C1520 C1522 1.394 . S
C1520 H1536 0.931 . S
C1521 C1520 1.391 . S
C1521 C1525 1.376 . S
C1522 C1520 1.394 . S
C1522 C1523 1.369 . S
C1522 C1526 1.531 . S
C1523 C1522 1.369 . S
C1523 C1524 1.410 . S
C1523 C1531 1.503 . S
C1524 C1523 1.410 . S
C1524 C1525 1.392 . S
C1524 C1527 1.511 . S
C1525 C1521 1.376 . S
C1525 C1524 1.392 . S
C1525 H1537 0.929 . S
C1526 C1522 1.531 . S
C1526 H1538 0.960 . S
C1526 H1539 0.962 . S
C1526 H1540 0.960 . S
C1527 C1524 1.511 . S
C1527 H1541 0.961 . S
C1527 H1542 0.961 . S
C1527 H1543 0.961 . S
C1528 C1529 1.370 . S
C1528 C1530 1.363 . S
C1528 H1544 0.931 . S
C1529 C1528 1.370 . S
C1529 C1533 1.408 . S
C1530 C1528 1.363 . S
C1530 C1531 1.370 . S
C1530 C1534 1.524 . S
C1531 C1523 1.503 . S
C1531 C1530 1.370 . S
C1531 C1532 1.403 . S
C1532 C1531 1.403 . S
C1532 C1533 1.404 . S
C1532 C1535 1.539 . S
C1533 C1529 1.408 . S
C1533 C1532 1.404 . S
C1533 H1545 0.930 . S
C1534 C1530 1.524 . S
C1534 H1546 0.956 . S
C1534 H1547 0.961 . S
C1534 H1548 0.961 . S
C1535 C1532 1.539 . S
C1535 H1549 0.958 . S
C1535 H1550 0.961 . S
C1535 H1551 0.960 . S
H1536 C1520 0.931 . S
H1537 C1525 0.929 . S
H1538 C1526 0.960 . S
H1539 C1526 0.962 . S
H1540 C1526 0.960 . S
H1541 C1527 0.961 . S
H1542 C1527 0.961 . S
H1543 C1527 0.961 . S
H1544 C1528 0.931 . S
H1545 C1533 0.930 . S
H1546 C1534 0.956 . S
H1547 C1534 0.961 . S
H1548 C1534 0.961 . S
H1549 C1535 0.958 . S
H1550 C1535 0.961 . S
H1551 C1535 0.960 . S
C1552 C1553 1.391 . S
C1552 C1554 1.394 1_556 S
C1552 H1568 0.931 1_556 S
C1553 C1552 1.391 . S
C1553 C1557 1.376 . S
C1554 C1552 1.394 1_554 S
C1554 C1555 1.369 1_554 S
C1554 C1558 1.531 . S
C1555 C1554 1.369 1_556 S
C1555 C1556 1.410 . S
C1555 C1563 1.503 . S
C1556 C1555 1.410 . S
C1556 C1557 1.392 . S
C1556 C1559 1.511 . S
C1557 C1553 1.376 . S
C1557 C1556 1.392 . S
C1557 H1569 0.929 . S
C1558 C1554 1.531 . S
C1558 H1570 0.960 . S
C1558 H1571 0.962 . S
C1558 H1572 0.960 . S
C1559 C1556 1.511 . S
C1559 H1573 0.961 . S
C1559 H1574 0.961 . S
C1559 H1575 0.961 . S
C1560 C1561 1.370 . S
C1560 C1562 1.363 . S
C1560 H1576 0.931 . S
C1561 C1560 1.370 . S
C1561 C1565 1.408 1_556 S
C1562 C1560 1.363 . S
C1562 C1563 1.370 . S
C1562 C1566 1.524 . S
C1563 C1555 1.503 . S
C1563 C1562 1.370 . S
C1563 C1564 1.403 1_556 S
C1564 C1563 1.403 1_554 S
C1564 C1565 1.404 . S
C1564 C1567 1.539 . S
C1565 C1561 1.408 1_554 S
C1565 C1564 1.404 . S
C1565 H1577 0.930 . S
C1566 C1562 1.524 . S
C1566 H1578 0.956 . S
C1566 H1579 0.961 . S
C1566 H1580 0.961 . S
C1567 C1564 1.539 . S
C1567 H1581 0.958 . S
C1567 H1582 0.961 . S
C1567 H1583 0.960 . S
H1568 C1552 0.931 1_554 S
H1569 C1557 0.929 . S
H1570 C1558 0.960 . S
H1571 C1558 0.962 . S
H1572 C1558 0.960 . S
H1573 C1559 0.961 . S
H1574 C1559 0.961 . S
H1575 C1559 0.961 . S
H1576 C1560 0.931 . S
H1577 C1565 0.930 . S
H1578 C1566 0.956 . S
H1579 C1566 0.961 . S
H1580 C1566 0.961 . S
H1581 C1567 0.958 . S
H1582 C1567 0.961 . S
H1583 C1567 0.960 . S
C1584 C1585 1.391 . S
C1584 C1586 1.394 . S
C1584 H1600 0.931 . S
C1585 C1584 1.391 . S
C1585 C1589 1.376 . S
C1586 C1584 1.394 . S
C1586 C1587 1.369 . S
C1586 C1590 1.531 . S
C1587 C1586 1.369 . S
C1587 C1588 1.410 . S
C1587 C1595 1.503 . S
C1588 C1587 1.410 . S
C1588 C1589 1.392 . S
C1588 C1591 1.511 . S
C1589 C1585 1.376 . S
C1589 C1588 1.392 . S
C1589 H1601 0.929 . S
C1590 C1586 1.531 . S
C1590 H1602 0.960 . S
C1590 H1603 0.962 . S
C1590 H1604 0.960 . S
C1591 C1588 1.511 . S
C1591 H1605 0.961 . S
C1591 H1606 0.961 . S
C1591 H1607 0.961 . S
C1592 C1593 1.370 . S
C1592 C1594 1.363 . S
C1592 H1608 0.931 . S
C1593 C1592 1.370 . S
C1593 C1597 1.408 . S
C1594 C1592 1.363 . S
C1594 C1595 1.370 . S
C1594 C1598 1.524 . S
C1595 C1587 1.503 . S
C1595 C1594 1.370 . S
C1595 C1596 1.403 . S
C1596 C1595 1.403 . S
C1596 C1597 1.404 . S
C1596 C1599 1.539 . S
C1597 C1593 1.408 . S
C1597 C1596 1.404 . S
C1597 H1609 0.930 . S
C1598 C1594 1.524 . S
C1598 H1610 0.956 . S
C1598 H1611 0.961 . S
C1598 H1612 0.961 . S
C1599 C1596 1.539 . S
C1599 H1613 0.958 . S
C1599 H1614 0.961 . S
C1599 H1615 0.960 . S
H1600 C1584 0.931 . S
H1601 C1589 0.929 . S
H1602 C1590 0.960 . S
H1603 C1590 0.962 . S
H1604 C1590 0.960 . S
H1605 C1591 0.961 . S
H1606 C1591 0.961 . S
H1607 C1591 0.961 . S
H1608 C1592 0.931 . S
H1609 C1597 0.930 . S
H1610 C1598 0.956 . S
H1611 C1598 0.961 . S
H1612 C1598 0.961 . S
H1613 C1599 0.958 . S
H1614 C1599 0.961 . S
H1615 C1599 0.960 . S
C1616 C1617 1.391 . S
C1616 C1618 1.394 . S
C1616 H1632 0.931 . S
C1617 C1616 1.391 . S
C1617 C1621 1.376 . S
C1618 C1616 1.394 . S
C1618 C1619 1.369 . S
C1618 C1622 1.531 . S
C1619 C1618 1.369 . S
C1619 C1620 1.410 . S
C1619 C1627 1.503 . S
C1620 C1619 1.410 . S
C1620 C1621 1.392 . S
C1620 C1623 1.511 . S
C1621 C1617 1.376 . S
C1621 C1620 1.392 . S
C1621 H1633 0.929 . S
C1622 C1618 1.531 . S
C1622 H1634 0.960 . S
C1622 H1635 0.962 . S
C1622 H1636 0.960 . S
C1623 C1620 1.511 . S
C1623 H1637 0.961 . S
C1623 H1638 0.961 . S
C1623 H1639 0.961 . S
C1624 C1625 1.370 . S
C1624 C1626 1.363 . S
C1624 H1640 0.931 . S
C1625 C1624 1.370 . S
C1625 C1629 1.408 . S
C1626 C1624 1.363 . S
C1626 C1627 1.370 . S
C1626 C1630 1.524 . S
C1627 C1619 1.503 . S
C1627 C1626 1.370 . S
C1627 C1628 1.403 . S
C1628 C1627 1.403 . S
C1628 C1629 1.404 . S
C1628 C1631 1.539 . S
C1629 C1625 1.408 . S
C1629 C1628 1.404 . S
C1629 H1641 0.930 . S
C1630 C1626 1.524 . S
C1630 H1642 0.956 . S
C1630 H1643 0.961 . S
C1630 H1644 0.961 . S
C1631 C1628 1.539 . S
C1631 H1645 0.958 . S
C1631 H1646 0.961 . S
C1631 H1647 0.960 . S
H1632 C1616 0.931 . S
H1633 C1621 0.929 . S
H1634 C1622 0.960 . S
H1635 C1622 0.962 . S
H1636 C1622 0.960 . S
H1637 C1623 0.961 . S
H1638 C1623 0.961 . S
H1639 C1623 0.961 . S
H1640 C1624 0.931 . S
H1641 C1629 0.930 . S
H1642 C1630 0.956 . S
H1643 C1630 0.961 . S
H1644 C1630 0.961 . S
H1645 C1631 0.958 . S
H1646 C1631 0.961 . S
H1647 C1631 0.960 . S
C1648 C1649 1.391 . S
C1648 C1650 1.394 . S
C1648 H1664 0.931 . S
C1649 C1648 1.391 . S
C1649 C1653 1.376 . S
C1650 C1648 1.394 . S
C1650 C1651 1.369 . S
C1650 C1654 1.531 . S
C1651 C1650 1.369 . S
C1651 C1652 1.410 . S
C1651 C1659 1.503 . S
C1652 C1651 1.410 . S
C1652 C1653 1.392 . S
C1652 C1655 1.511 . S
C1653 C1649 1.376 . S
C1653 C1652 1.392 . S
C1653 H1665 0.929 . S
C1654 C1650 1.531 . S
C1654 H1666 0.960 . S
C1654 H1667 0.962 . S
C1654 H1668 0.960 . S
C1655 C1652 1.511 . S
C1655 H1669 0.961 . S
C1655 H1670 0.961 . S
C1655 H1671 0.961 . S
C1656 C1657 1.370 . S
C1656 C1658 1.363 . S
C1656 H1672 0.931 . S
C1657 C1656 1.370 . S
C1657 C1661 1.408 . S
C1658 C1656 1.363 . S
C1658 C1659 1.370 . S
C1658 C1662 1.524 . S
C1659 C1651 1.503 . S
C1659 C1658 1.370 . S
C1659 C1660 1.403 . S
C1660 C1659 1.403 . S
C1660 C1661 1.404 . S
C1660 C1663 1.539 . S
C1661 C1657 1.408 . S
C1661 C1660 1.404 . S
C1661 H1673 0.930 . S
C1662 C1658 1.524 . S
C1662 H1674 0.956 . S
C1662 H1675 0.961 . S
C1662 H1676 0.961 . S
C1663 C1660 1.539 . S
C1663 H1677 0.958 . S
C1663 H1678 0.961 . S
C1663 H1679 0.960 . S
H1664 C1648 0.931 . S
H1665 C1653 0.929 . S
H1666 C1654 0.960 . S
H1667 C1654 0.962 . S
H1668 C1654 0.960 . S
H1669 C1655 0.961 . S
H1670 C1655 0.961 . S
H1671 C1655 0.961 . S
H1672 C1656 0.931 . S
H1673 C1661 0.930 . S
H1674 C1662 0.956 . S
H1675 C1662 0.961 . S
H1676 C1662 0.961 . S
H1677 C1663 0.958 . S
H1678 C1663 0.961 . S
H1679 C1663 0.960 . S
C1680 C1681 1.391 . S
C1680 C1682 1.394 . S
C1680 H1696 0.931 . S
C1681 C1680 1.391 . S
C1681 C1685 1.376 . S
C1682 C1680 1.394 . S
C1682 C1683 1.369 . S
C1682 C1686 1.531 . S
C1683 C1682 1.369 . S
C1683 C1684 1.410 . S
C1683 C1691 1.503 . S
C1684 C1683 1.410 . S
C1684 C1685 1.392 . S
C1684 C1687 1.511 . S
C1685 C1681 1.376 . S
C1685 C1684 1.392 . S
C1685 H1697 0.929 . S
C1686 C1682 1.531 . S
C1686 H1698 0.960 . S
C1686 H1699 0.962 . S
C1686 H1700 0.960 . S
C1687 C1684 1.511 . S
C1687 H1701 0.961 . S
C1687 H1702 0.961 . S
C1687 H1703 0.961 . S
C1688 C1689 1.370 . S
C1688 C1690 1.363 . S
C1688 H1704 0.931 . S
C1689 C1688 1.370 . S
C1689 C1693 1.408 . S
C1690 C1688 1.363 . S
C1690 C1691 1.370 . S
C1690 C1694 1.524 . S
C1691 C1683 1.503 . S
C1691 C1690 1.370 . S
C1691 C1692 1.403 . S
C1692 C1691 1.403 . S
C1692 C1693 1.404 . S
C1692 C1695 1.539 . S
C1693 C1689 1.408 . S
C1693 C1692 1.404 . S
C1693 H1705 0.930 . S
C1694 C1690 1.524 . S
C1694 H1706 0.956 . S
C1694 H1707 0.961 . S
C1694 H1708 0.961 . S
C1695 C1692 1.539 . S
C1695 H1709 0.958 . S
C1695 H1710 0.961 . S
C1695 H1711 0.960 . S
H1696 C1680 0.931 . S
H1697 C1685 0.929 . S
H1698 C1686 0.960 . S
H1699 C1686 0.962 . S
H1700 C1686 0.960 . S
H1701 C1687 0.961 . S
H1702 C1687 0.961 . S
H1703 C1687 0.961 . S
H1704 C1688 0.931 . S
H1705 C1693 0.930 . S
H1706 C1694 0.956 . S
H1707 C1694 0.961 . S
H1708 C1694 0.961 . S
H1709 C1695 0.958 . S
H1710 C1695 0.961 . S
H1711 C1695 0.960 . S
C1712 C1713 1.391 . S
C1712 C1714 1.394 . S
C1712 H1728 0.931 . S
C1713 C1712 1.391 . S
C1713 C1717 1.376 . S
C1714 C1712 1.394 . S
C1714 C1715 1.369 . S
C1714 C1718 1.531 . S
C1715 C1714 1.369 . S
C1715 C1716 1.410 . S
C1715 C1723 1.503 . S
C1716 C1715 1.410 . S
C1716 C1717 1.392 . S
C1716 C1719 1.511 . S
C1717 C1713 1.376 . S
C1717 C1716 1.392 . S
C1717 H1729 0.929 . S
C1718 C1714 1.531 . S
C1718 H1730 0.960 . S
C1718 H1731 0.962 . S
C1718 H1732 0.960 . S
C1719 C1716 1.511 . S
C1719 H1733 0.961 . S
C1719 H1734 0.961 . S
C1719 H1735 0.961 . S
C1720 C1721 1.370 . S
C1720 C1722 1.363 . S
C1720 H1736 0.931 . S
C1721 C1720 1.370 . S
C1721 C1725 1.408 . S
C1722 C1720 1.363 . S
C1722 C1723 1.370 . S
C1722 C1726 1.524 . S
C1723 C1715 1.503 . S
C1723 C1722 1.370 . S
C1723 C1724 1.403 . S
C1724 C1723 1.403 . S
C1724 C1725 1.404 . S
C1724 C1727 1.539 . S
C1725 C1721 1.408 . S
C1725 C1724 1.404 . S
C1725 H1737 0.930 . S
C1726 C1722 1.524 . S
C1726 H1738 0.956 . S
C1726 H1739 0.961 . S
C1726 H1740 0.961 . S
C1727 C1724 1.539 . S
C1727 H1741 0.958 . S
C1727 H1742 0.961 . S
C1727 H1743 0.960 . S
H1728 C1712 0.931 . S
H1729 C1717 0.929 . S
H1730 C1718 0.960 . S
H1731 C1718 0.962 . S
H1732 C1718 0.960 . S
H1733 C1719 0.961 . S
H1734 C1719 0.961 . S
H1735 C1719 0.961 . S
H1736 C1720 0.931 . S
H1737 C1725 0.930 . S
H1738 C1726 0.956 . S
H1739 C1726 0.961 . S
H1740 C1726 0.961 . S
H1741 C1727 0.958 . S
H1742 C1727 0.961 . S
H1743 C1727 0.960 . S
C1744 C1745 1.391 . S
C1744 C1746 1.394 . S
C1744 H1760 0.931 . S
C1745 C1744 1.391 . S
C1745 C1749 1.376 . S
C1746 C1744 1.394 . S
C1746 C1747 1.369 . S
C1746 C1750 1.531 . S
C1747 C1746 1.369 . S
C1747 C1748 1.410 . S
C1747 C1755 1.503 . S
C1748 C1747 1.410 . S
C1748 C1749 1.392 . S
C1748 C1751 1.511 . S
C1749 C1745 1.376 . S
C1749 C1748 1.392 . S
C1749 H1761 0.929 . S
C1750 C1746 1.531 . S
C1750 H1762 0.960 . S
C1750 H1763 0.962 . S
C1750 H1764 0.960 . S
C1751 C1748 1.511 . S
C1751 H1765 0.961 . S
C1751 H1766 0.961 . S
C1751 H1767 0.961 . S
C1752 C1753 1.370 . S
C1752 C1754 1.363 . S
C1752 H1768 0.931 . S
C1753 C1752 1.370 . S
C1753 C1757 1.408 . S
C1754 C1752 1.363 . S
C1754 C1755 1.370 . S
C1754 C1758 1.524 . S
C1755 C1747 1.503 . S
C1755 C1754 1.370 . S
C1755 C1756 1.403 . S
C1756 C1755 1.403 . S
C1756 C1757 1.404 . S
C1756 C1759 1.539 . S
C1757 C1753 1.408 . S
C1757 C1756 1.404 . S
C1757 H1769 0.930 . S
C1758 C1754 1.524 . S
C1758 H1770 0.956 . S
C1758 H1771 0.961 . S
C1758 H1772 0.961 . S
C1759 C1756 1.539 . S
C1759 H1773 0.958 . S
C1759 H1774 0.961 . S
C1759 H1775 0.960 . S
H1760 C1744 0.931 . S
H1761 C1749 0.929 . S
H1762 C1750 0.960 . S
H1763 C1750 0.962 . S
H1764 C1750 0.960 . S
H1765 C1751 0.961 . S
H1766 C1751 0.961 . S
H1767 C1751 0.961 . S
H1768 C1752 0.931 . S
H1769 C1757 0.930 . S
H1770 C1758 0.956 . S
H1771 C1758 0.961 . S
H1772 C1758 0.961 . S
H1773 C1759 0.958 . S
H1774 C1759 0.961 . S
H1775 C1759 0.960 . S
C1776 C1777 1.391 . S
C1776 C1778 1.394 . S
C1776 H1792 0.931 . S
C1777 C1776 1.391 . S
C1777 C1781 1.376 . S
C1778 C1776 1.394 . S
C1778 C1779 1.369 . S
C1778 C1782 1.531 . S
C1779 C1778 1.369 . S
C1779 C1780 1.410 . S
C1779 C1787 1.503 . S
C1780 C1779 1.410 . S
C1780 C1781 1.392 . S
C1780 C1783 1.511 . S
C1781 C1777 1.376 . S
C1781 C1780 1.392 . S
C1781 H1793 0.929 . S
C1782 C1778 1.531 . S
C1782 H1794 0.960 . S
C1782 H1795 0.962 . S
C1782 H1796 0.960 . S
C1783 C1780 1.511 . S
C1783 H1797 0.961 . S
C1783 H1798 0.961 . S
C1783 H1799 0.961 . S
C1784 C1785 1.370 . S
C1784 C1786 1.363 . S
C1784 H1800 0.931 . S
C1785 C1784 1.370 . S
C1785 C1789 1.408 . S
C1786 C1784 1.363 . S
C1786 C1787 1.370 . S
C1786 C1790 1.524 . S
C1787 C1779 1.503 . S
C1787 C1786 1.370 . S
C1787 C1788 1.403 . S
C1788 C1787 1.403 . S
C1788 C1789 1.404 . S
C1788 C1791 1.539 . S
C1789 C1785 1.408 . S
C1789 C1788 1.404 . S
C1789 H1801 0.930 . S
C1790 C1786 1.524 . S
C1790 H1802 0.956 . S
C1790 H1803 0.961 . S
C1790 H1804 0.961 . S
C1791 C1788 1.539 . S
C1791 H1805 0.958 . S
C1791 H1806 0.961 . S
C1791 H1807 0.960 . S
H1792 C1776 0.931 . S
H1793 C1781 0.929 . S
H1794 C1782 0.960 . S
H1795 C1782 0.962 . S
H1796 C1782 0.960 . S
H1797 C1783 0.961 . S
H1798 C1783 0.961 . S
H1799 C1783 0.961 . S
H1800 C1784 0.931 . S
H1801 C1789 0.930 . S
H1802 C1790 0.956 . S
H1803 C1790 0.961 . S
H1804 C1790 0.961 . S
H1805 C1791 0.958 . S
H1806 C1791 0.961 . S
H1807 C1791 0.960 . S
C1808 C1809 1.391 . S
C1808 C1810 1.394 . S
C1808 H1824 0.931 . S
C1809 C1808 1.391 . S
C1809 C1813 1.376 . S
C1810 C1808 1.394 . S
C1810 C1811 1.369 . S
C1810 C1814 1.531 . S
C1811 C1810 1.369 . S
C1811 C1812 1.410 . S
C1811 C1819 1.503 . S
C1812 C1811 1.410 . S
C1812 C1813 1.392 . S
C1812 C1815 1.511 . S
C1813 C1809 1.376 . S
C1813 C1812 1.392 . S
C1813 H1825 0.929 . S
C1814 C1810 1.531 . S
C1814 H1826 0.960 . S
C1814 H1827 0.962 . S
C1814 H1828 0.960 . S
C1815 C1812 1.511 . S
C1815 H1829 0.961 . S
C1815 H1830 0.961 . S
C1815 H1831 0.961 . S
C1816 C1817 1.370 . S
C1816 C1818 1.363 . S
C1816 H1832 0.931 . S
C1817 C1816 1.370 . S
C1817 C1821 1.408 . S
C1818 C1816 1.363 . S
C1818 C1819 1.370 . S
C1818 C1822 1.524 . S
C1819 C1811 1.503 . S
C1819 C1818 1.370 . S
C1819 C1820 1.403 . S
C1820 C1819 1.403 . S
C1820 C1821 1.404 . S
C1820 C1823 1.539 . S
C1821 C1817 1.408 . S
C1821 C1820 1.404 . S
C1821 H1833 0.930 . S
C1822 C1818 1.524 . S
C1822 H1834 0.956 . S
C1822 H1835 0.961 . S
C1822 H1836 0.961 . S
C1823 C1820 1.539 . S
C1823 H1837 0.958 . S
C1823 H1838 0.961 . S
C1823 H1839 0.960 . S
H1824 C1808 0.931 . S
H1825 C1813 0.929 . S
H1826 C1814 0.960 . S
H1827 C1814 0.962 . S
H1828 C1814 0.960 . S
H1829 C1815 0.961 . S
H1830 C1815 0.961 . S
H1831 C1815 0.961 . S
H1832 C1816 0.931 . S
H1833 C1821 0.930 . S
H1834 C1822 0.956 . S
H1835 C1822 0.961 . S
H1836 C1822 0.961 . S
H1837 C1823 0.958 . S
H1838 C1823 0.961 . S
H1839 C1823 0.960 . S
C1840 C1841 1.391 . S
C1840 C1842 1.394 . S
C1840 H1856 0.931 . S
C1841 C1840 1.391 . S
C1841 C1845 1.376 . S
C1842 C1840 1.394 . S
C1842 C1843 1.369 . S
C1842 C1846 1.531 . S
C1843 C1842 1.369 . S
C1843 C1844 1.410 . S
C1843 C1851 1.503 . S
C1844 C1843 1.410 . S
C1844 C1845 1.392 . S
C1844 C1847 1.511 . S
C1845 C1841 1.376 . S
C1845 C1844 1.392 . S
C1845 H1857 0.929 . S
C1846 C1842 1.531 . S
C1846 H1858 0.960 . S
C1846 H1859 0.962 . S
C1846 H1860 0.960 . S
C1847 C1844 1.511 . S
C1847 H1861 0.961 . S
C1847 H1862 0.961 . S
C1847 H1863 0.961 . S
C1848 C1849 1.370 . S
C1848 C1850 1.363 . S
C1848 H1864 0.931 . S
C1849 C1848 1.370 . S
C1849 C1853 1.408 . S
C1850 C1848 1.363 . S
C1850 C1851 1.370 . S
C1850 C1854 1.524 . S
C1851 C1843 1.503 . S
C1851 C1850 1.370 . S
C1851 C1852 1.403 . S
C1852 C1851 1.403 . S
C1852 C1853 1.404 . S
C1852 C1855 1.539 . S
C1853 C1849 1.408 . S
C1853 C1852 1.404 . S
C1853 H1865 0.930 . S
C1854 C1850 1.524 . S
C1854 H1866 0.956 . S
C1854 H1867 0.961 . S
C1854 H1868 0.961 . S
C1855 C1852 1.539 . S
C1855 H1869 0.958 . S
C1855 H1870 0.961 . S
C1855 H1871 0.960 . S
H1856 C1840 0.931 . S
H1857 C1845 0.929 . S
H1858 C1846 0.960 . S
H1859 C1846 0.962 . S
H1860 C1846 0.960 . S
H1861 C1847 0.961 . S
H1862 C1847 0.961 . S
H1863 C1847 0.961 . S
H1864 C1848 0.931 . S
H1865 C1853 0.930 . S
H1866 C1854 0.956 . S
H1867 C1854 0.961 . S
H1868 C1854 0.961 . S
H1869 C1855 0.958 . S
H1870 C1855 0.961 . S
H1871 C1855 0.960 . S
C1872 C1873 1.391 . S
C1872 C1874 1.394 . S
C1872 H1888 0.931 . S
C1873 C1872 1.391 . S
C1873 C1877 1.376 . S
C1874 C1872 1.394 . S
C1874 C1875 1.369 . S
C1874 C1878 1.531 . S
C1875 C1874 1.369 . S
C1875 C1876 1.410 . S
C1875 C1883 1.503 . S
C1876 C1875 1.410 . S
C1876 C1877 1.392 . S
C1876 C1879 1.511 . S
C1877 C1873 1.376 . S
C1877 C1876 1.392 . S
C1877 H1889 0.929 . S
C1878 C1874 1.531 . S
C1878 H1890 0.960 . S
C1878 H1891 0.962 . S
C1878 H1892 0.960 . S
C1879 C1876 1.511 . S
C1879 H1893 0.961 . S
C1879 H1894 0.961 . S
C1879 H1895 0.961 . S
C1880 C1881 1.370 . S
C1880 C1882 1.363 . S
C1880 H1896 0.931 . S
C1881 C1880 1.370 . S
C1881 C1885 1.408 . S
C1882 C1880 1.363 . S
C1882 C1883 1.370 . S
C1882 C1886 1.524 . S
C1883 C1875 1.503 . S
C1883 C1882 1.370 . S
C1883 C1884 1.403 . S
C1884 C1883 1.403 . S
C1884 C1885 1.404 . S
C1884 C1887 1.539 . S
C1885 C1881 1.408 . S
C1885 C1884 1.404 . S
C1885 H1897 0.930 . S
C1886 C1882 1.524 . S
C1886 H1898 0.956 . S
C1886 H1899 0.961 . S
C1886 H1900 0.961 . S
C1887 C1884 1.539 . S
C1887 H1901 0.958 . S
C1887 H1902 0.961 . S
C1887 H1903 0.960 . S
H1888 C1872 0.931 . S
H1889 C1877 0.929 . S
H1890 C1878 0.960 . S
H1891 C1878 0.962 . S
H1892 C1878 0.960 . S
H1893 C1879 0.961 . S
H1894 C1879 0.961 . S
H1895 C1879 0.961 . S
H1896 C1880 0.931 . S
H1897 C1885 0.930 . S
H1898 C1886 0.956 . S
H1899 C1886 0.961 . S
H1900 C1886 0.961 . S
H1901 C1887 0.958 . S
H1902 C1887 0.961 . S
H1903 C1887 0.960 . S
C1904 C1905 1.391 . S
C1904 C1906 1.394 . S
C1904 H1920 0.931 . S
C1905 C1904 1.391 . S
C1905 C1909 1.376 . S
C1906 C1904 1.394 . S
C1906 C1907 1.369 . S
C1906 C1910 1.531 . S
C1907 C1906 1.369 . S
C1907 C1908 1.410 . S
C1907 C1915 1.503 . S
C1908 C1907 1.410 . S
C1908 C1909 1.392 . S
C1908 C1911 1.511 . S
C1909 C1905 1.376 . S
C1909 C1908 1.392 . S
C1909 H1921 0.929 . S
C1910 C1906 1.531 . S
C1910 H1922 0.960 . S
C1910 H1923 0.962 . S
C1910 H1924 0.960 . S
C1911 C1908 1.511 . S
C1911 H1925 0.961 . S
C1911 H1926 0.961 . S
C1911 H1927 0.961 . S
C1912 C1913 1.370 . S
C1912 C1914 1.363 . S
C1912 H1928 0.931 . S
C1913 C1912 1.370 . S
C1913 C1917 1.408 . S
C1914 C1912 1.363 . S
C1914 C1915 1.370 . S
C1914 C1918 1.524 . S
C1915 C1907 1.503 . S
C1915 C1914 1.370 . S
C1915 C1916 1.403 . S
C1916 C1915 1.403 . S
C1916 C1917 1.404 . S
C1916 C1919 1.539 . S
C1917 C1913 1.408 . S
C1917 C1916 1.404 . S
C1917 H1929 0.930 . S
C1918 C1914 1.524 . S
C1918 H1930 0.956 . S
C1918 H1931 0.961 . S
C1918 H1932 0.961 . S
C1919 C1916 1.539 . S
C1919 H1933 0.958 . S
C1919 H1934 0.961 . S
C1919 H1935 0.960 . S
H1920 C1904 0.931 . S
H1921 C1909 0.929 . S
H1922 C1910 0.960 . S
H1923 C1910 0.962 . S
H1924 C1910 0.960 . S
H1925 C1911 0.961 . S
H1926 C1911 0.961 . S
H1927 C1911 0.961 . S
H1928 C1912 0.931 . S
H1929 C1917 0.930 . S
H1930 C1918 0.956 . S
H1931 C1918 0.961 . S
H1932 C1918 0.961 . S
H1933 C1919 0.958 . S
H1934 C1919 0.961 . S
H1935 C1919 0.960 . S
C1936 C1937 1.391 . S
C1936 C1938 1.394 . S
C1936 H1952 0.931 . S
C1937 C1936 1.391 . S
C1937 C1941 1.376 . S
C1938 C1936 1.394 . S
C1938 C1939 1.369 . S
C1938 C1942 1.531 . S
C1939 C1938 1.369 . S
C1939 C1940 1.410 . S
C1939 C1947 1.503 . S
C1940 C1939 1.410 . S
C1940 C1941 1.392 . S
C1940 C1943 1.511 . S
C1941 C1937 1.376 . S
C1941 C1940 1.392 . S
C1941 H1953 0.929 . S
C1942 C1938 1.531 . S
C1942 H1954 0.960 . S
C1942 H1955 0.962 . S
C1942 H1956 0.960 . S
C1943 C1940 1.511 . S
C1943 H1957 0.961 . S
C1943 H1958 0.961 . S
C1943 H1959 0.961 . S
C1944 C1945 1.370 . S
C1944 C1946 1.363 . S
C1944 H1960 0.931 . S
C1945 C1944 1.370 . S
C1945 C1949 1.408 . S
C1946 C1944 1.363 . S
C1946 C1947 1.370 . S
C1946 C1950 1.524 . S
C1947 C1939 1.503 . S
C1947 C1946 1.370 . S
C1947 C1948 1.403 . S
C1948 C1947 1.403 . S
C1948 C1949 1.404 . S
C1948 C1951 1.539 . S
C1949 C1945 1.408 . S
C1949 C1948 1.404 . S
C1949 H1961 0.930 . S
C1950 C1946 1.524 . S
C1950 H1962 0.956 . S
C1950 H1963 0.961 . S
C1950 H1964 0.961 . S
C1951 C1948 1.539 . S
C1951 H1965 0.958 . S
C1951 H1966 0.961 . S
C1951 H1967 0.960 . S
H1952 C1936 0.931 . S
H1953 C1941 0.929 . S
H1954 C1942 0.960 . S
H1955 C1942 0.962 . S
H1956 C1942 0.960 . S
H1957 C1943 0.961 . S
H1958 C1943 0.961 . S
H1959 C1943 0.961 . S
H1960 C1944 0.931 . S
H1961 C1949 0.930 . S
H1962 C1950 0.956 . S
H1963 C1950 0.961 . S
H1964 C1950 0.961 . S
H1965 C1951 0.958 . S
H1966 C1951 0.961 . S
H1967 C1951 0.960 . S
C1968 C1969 1.391 . S
C1968 C1970 1.394 . S
C1968 H1984 0.931 . S
C1969 C1968 1.391 . S
C1969 C1973 1.376 . S
C1970 C1968 1.394 . S
C1970 C1971 1.369 . S
C1970 C1974 1.531 . S
C1971 C1970 1.369 . S
C1971 C1972 1.410 . S
C1971 C1979 1.503 . S
C1972 C1971 1.410 . S
C1972 C1973 1.392 . S
C1972 C1975 1.511 . S
C1973 C1969 1.376 . S
C1973 C1972 1.392 . S
C1973 H1985 0.929 . S
C1974 C1970 1.531 . S
C1974 H1986 0.960 . S
C1974 H1987 0.962 . S
C1974 H1988 0.960 . S
C1975 C1972 1.511 . S
C1975 H1989 0.961 . S
C1975 H1990 0.961 . S
C1975 H1991 0.961 . S
C1976 C1977 1.370 . S
C1976 C1978 1.363 . S
C1976 H1992 0.931 . S
C1977 C1976 1.370 . S
C1977 C1981 1.408 . S
C1978 C1976 1.363 . S
C1978 C1979 1.370 . S
C1978 C1982 1.524 . S
C1979 C1971 1.503 . S
C1979 C1978 1.370 . S
C1979 C1980 1.403 . S
C1980 C1979 1.403 . S
C1980 C1981 1.404 . S
C1980 C1983 1.539 . S
C1981 C1977 1.408 . S
C1981 C1980 1.404 . S
C1981 H1993 0.930 . S
C1982 C1978 1.524 . S
C1982 H1994 0.956 . S
C1982 H1995 0.961 . S
C1982 H1996 0.961 . S
C1983 C1980 1.539 . S
C1983 H1997 0.958 . S
C1983 H1998 0.961 . S
C1983 H1999 0.960 . S
H1984 C1968 0.931 . S
H1985 C1973 0.929 . S
H1986 C1974 0.960 . S
H1987 C1974 0.962 . S
H1988 C1974 0.960 . S
H1989 C1975 0.961 . S
H1990 C1975 0.961 . S
H1991 C1975 0.961 . S
H1992 C1976 0.931 . S
H1993 C1981 0.930 . S
H1994 C1982 0.956 . S
H1995 C1982 0.961 . S
H1996 C1982 0.961 . S
H1997 C1983 0.958 . S
H1998 C1983 0.961 . S
H1999 C1983 0.960 . S
C2000 C2001 1.391 . S
C2000 C2002 1.394 . S
C2000 H2016 0.931 . S
C2001 C2000 1.391 . S
C2001 C2005 1.376 . S
C2002 C2000 1.394 . S
C2002 C2003 1.369 . S
C2002 C2006 1.531 . S
C2003 C2002 1.369 . S
C2003 C2004 1.410 . S
C2003 C2011 1.503 . S
C2004 C2003 1.410 . S
C2004 C2005 1.392 . S
C2004 C2007 1.511 . S
C2005 C2001 1.376 . S
C2005 C2004 1.392 . S
C2005 H2017 0.929 . S
C2006 C2002 1.531 . S
C2006 H2018 0.960 . S
C2006 H2019 0.962 . S
C2006 H2020 0.960 . S
C2007 C2004 1.511 . S
C2007 H2021 0.961 . S
C2007 H2022 0.961 . S
C2007 H2023 0.961 . S
C2008 C2009 1.370 . S
C2008 C2010 1.363 . S
C2008 H2024 0.931 . S
C2009 C2008 1.370 . S
C2009 C2013 1.408 . S
C2010 C2008 1.363 . S
C2010 C2011 1.370 . S
C2010 C2014 1.524 . S
C2011 C2003 1.503 . S
C2011 C2010 1.370 . S
C2011 C2012 1.403 . S
C2012 C2011 1.403 . S
C2012 C2013 1.404 . S
C2012 C2015 1.539 . S
C2013 C2009 1.408 . S
C2013 C2012 1.404 . S
C2013 H2025 0.930 . S
C2014 C2010 1.524 . S
C2014 H2026 0.956 . S
C2014 H2027 0.961 . S
C2014 H2028 0.961 . S
C2015 C2012 1.539 . S
C2015 H2029 0.958 . S
C2015 H2030 0.961 . S
C2015 H2031 0.960 . S
H2016 C2000 0.931 . S
H2017 C2005 0.929 . S
H2018 C2006 0.960 . S
H2019 C2006 0.962 . S
H2020 C2006 0.960 . S
H2021 C2007 0.961 . S
H2022 C2007 0.961 . S
H2023 C2007 0.961 . S
H2024 C2008 0.931 . S
H2025 C2013 0.930 . S
H2026 C2014 0.956 . S
H2027 C2014 0.961 . S
H2028 C2014 0.961 . S
H2029 C2015 0.958 . S
H2030 C2015 0.961 . S
H2031 C2015 0.960 . S
C2032 C2033 1.391 1_556 S
C2032 C2034 1.403 . S
C2032 H2048 0.931 . S
C2033 C2032 1.391 1_554 S
C2033 C2037 1.376 . S
C2034 C2032 1.403 . S
C2034 C2035 1.333 1_556 S
C2034 C2038 1.559 . S
C2035 C2034 1.333 1_554 S
C2035 C2036 1.410 . S
C2035 C2043 1.503 . S
C2036 C2035 1.410 . S
C2036 C2037 1.392 . S
C2036 C2039 1.511 . S
C2037 C2033 1.376 . S
C2037 C2036 1.392 . S
C2037 H2049 0.929 . S
C2038 C2034 1.559 . S
C2038 H2050 0.960 . S
C2038 H2051 0.962 . S
C2038 H2052 0.960 . S
C2039 C2036 1.511 . S
C2039 H2053 0.961 . S
C2039 H2054 0.961 . S
C2039 H2055 0.961 . S
C2040 C2041 1.370 . S
C2040 C2042 1.363 . S
C2040 H2056 0.956 . S
C2041 C2040 1.370 . S
C2041 C2045 1.408 . S
C2042 C2040 1.363 . S
C2042 C2043 1.370 . S
C2042 C2046 1.524 1_554 S
C2043 C2035 1.503 . S
C2043 C2042 1.370 . S
C2043 C2044 1.403 . S
C2044 C2043 1.403 . S
C2044 C2045 1.404 . S
C2044 C2047 1.539 . S
C2045 C2041 1.408 . S
C2045 C2044 1.404 . S
C2045 H2057 0.930 . S
C2046 C2042 1.524 1_556 S
C2046 H2058 0.956 . S
C2046 H2059 0.961 1_556 S
C2046 H2060 0.961 . S
C2047 C2044 1.539 . S
C2047 H2061 0.958 . S
C2047 H2062 0.961 . S
C2047 H2063 0.960 . S
H2048 C2032 0.931 . S
H2049 C2037 0.929 . S
H2050 C2038 0.960 . S
H2051 C2038 0.962 . S
H2052 C2038 0.960 . S
H2053 C2039 0.961 . S
H2054 C2039 0.961 . S
H2055 C2039 0.961 . S
H2056 C2040 0.956 . S
H2057 C2045 0.930 . S
H2058 C2046 0.956 . S
H2059 C2046 0.961 1_554 S
H2060 C2046 0.961 . S
H2061 C2047 0.958 . S
H2062 C2047 0.961 . S
H2063 C2047 0.960 . S
C2064 C2065 1.391 . S
C2064 C2066 1.394 . S
C2064 H2080 0.931 . S
C2065 C2064 1.391 . S
C2065 C2069 1.376 . S
C2066 C2064 1.394 . S
C2066 C2067 1.369 . S
C2066 C2070 1.531 . S
C2067 C2066 1.369 . S
C2067 C2068 1.410 . S
C2067 C2075 1.503 . S
C2068 C2067 1.410 . S
C2068 C2069 1.392 . S
C2068 C2071 1.511 . S
C2069 C2065 1.376 . S
C2069 C2068 1.392 . S
C2069 H2081 0.929 . S
C2070 C2066 1.531 . S
C2070 H2082 0.960 . S
C2070 H2083 0.962 . S
C2070 H2084 0.960 . S
C2071 C2068 1.511 . S
C2071 H2085 0.961 . S
C2071 H2086 0.961 . S
C2071 H2087 0.961 . S
C2072 C2073 1.370 . S
C2072 C2074 1.363 . S
C2072 H2088 0.931 . S
C2073 C2072 1.370 . S
C2073 C2077 1.408 1_655 S
C2074 C2072 1.363 . S
C2074 C2075 1.370 1_655 S
C2074 C2078 1.524 . S
C2075 C2067 1.503 . S
C2075 C2074 1.370 1_455 S
C2075 C2076 1.403 . S
C2076 C2075 1.403 . S
C2076 C2077 1.404 . S
C2076 C2079 1.539 . S
C2077 C2073 1.408 1_455 S
C2077 C2076 1.404 . S
C2077 H2089 0.930 . S
C2078 C2074 1.524 . S
C2078 H2090 0.956 . S
C2078 H2091 0.961 . S
C2078 H2092 0.961 . S
C2079 C2076 1.539 . S
C2079 H2093 0.958 . S
C2079 H2094 0.961 . S
C2079 H2095 0.960 . S
H2080 C2064 0.931 . S
H2081 C2069 0.929 . S
H2082 C2070 0.960 . S
H2083 C2070 0.962 . S
H2084 C2070 0.960 . S
H2085 C2071 0.961 . S
H2086 C2071 0.961 . S
H2087 C2071 0.961 . S
H2088 C2072 0.931 . S
H2089 C2077 0.930 . S
H2090 C2078 0.956 . S
H2091 C2078 0.961 . S
H2092 C2078 0.961 . S
H2093 C2079 0.958 . S
H2094 C2079 0.961 . S
H2095 C2079 0.960 . S
C2096 C2097 1.391 . S
C2096 C2098 1.394 . S
C2096 H2112 0.931 . S
C2097 C2096 1.391 . S
C2097 C2101 1.376 . S
C2098 C2096 1.394 . S
C2098 C2099 1.369 . S
C2098 C2102 1.531 . S
C2099 C2098 1.369 . S
C2099 C2100 1.410 . S
C2099 C2107 1.503 . S
C2100 C2099 1.410 . S
C2100 C2101 1.392 . S
C2100 C2103 1.511 . S
C2101 C2097 1.376 . S
C2101 C2100 1.392 . S
C2101 H2113 0.929 . S
C2102 C2098 1.531 . S
C2102 H2114 0.960 . S
C2102 H2115 0.962 . S
C2102 H2116 0.960 . S
C2103 C2100 1.511 . S
C2103 H2117 0.961 . S
C2103 H2118 0.961 . S
C2103 H2119 0.961 . S
C2104 C2105 1.370 . S
C2104 C2106 1.363 . S
C2104 H2120 0.931 . S
C2105 C2104 1.370 . S
C2105 C2109 1.408 . S
C2106 C2104 1.363 . S
C2106 C2107 1.370 . S
C2106 C2110 1.524 . S
C2107 C2099 1.503 . S
C2107 C2106 1.370 . S
C2107 C2108 1.403 . S
C2108 C2107 1.403 . S
C2108 C2109 1.404 . S
C2108 C2111 1.539 . S
C2109 C2105 1.408 . S
C2109 C2108 1.404 . S
C2109 H2121 0.930 . S
C2110 C2106 1.524 . S
C2110 H2122 0.956 . S
C2110 H2123 0.961 . S
C2110 H2124 0.961 . S
C2111 C2108 1.539 . S
C2111 H2125 0.958 . S
C2111 H2126 0.961 . S
C2111 H2127 0.960 . S
H2112 C2096 0.931 . S
H2113 C2101 0.929 . S
H2114 C2102 0.960 . S
H2115 C2102 0.962 . S
H2116 C2102 0.960 . S
H2117 C2103 0.961 . S
H2118 C2103 0.961 . S
H2119 C2103 0.961 . S
H2120 C2104 0.931 . S
H2121 C2109 0.930 . S
H2122 C2110 0.956 . S
H2123 C2110 0.961 . S
H2124 C2110 0.961 . S
H2125 C2111 0.958 . S
H2126 C2111 0.961 . S
H2127 C2111 0.960 . S
C2128 C2129 1.391 . S
C2128 C2130 1.394 . S
C2128 H2144 0.931 . S
C2129 C2128 1.391 . S
C2129 C2133 1.376 . S
C2130 C2128 1.394 . S
C2130 C2131 1.369 . S
C2130 C2134 1.531 . S
C2131 C2130 1.369 . S
C2131 C2132 1.410 . S
C2131 C2139 1.503 . S
C2132 C2131 1.410 . S
C2132 C2133 1.392 . S
C2132 C2135 1.511 . S
C2133 C2129 1.376 . S
C2133 C2132 1.392 . S
C2133 H2145 0.929 . S
C2134 C2130 1.531 . S
C2134 H2146 0.960 . S
C2134 H2147 0.962 . S
C2134 H2148 0.960 . S
C2135 C2132 1.511 . S
C2135 H2149 0.961 . S
C2135 H2150 0.961 . S
C2135 H2151 0.961 . S
C2136 C2137 1.370 . S
C2136 C2138 1.363 . S
C2136 H2152 0.931 . S
C2137 C2136 1.370 . S
C2137 C2141 1.408 . S
C2138 C2136 1.363 . S
C2138 C2139 1.370 . S
C2138 C2142 1.524 . S
C2139 C2131 1.503 . S
C2139 C2138 1.370 . S
C2139 C2140 1.403 . S
C2140 C2139 1.403 . S
C2140 C2141 1.404 . S
C2140 C2143 1.539 . S
C2141 C2137 1.408 . S
C2141 C2140 1.404 . S
C2141 H2153 0.930 . S
C2142 C2138 1.524 . S
C2142 H2154 0.956 . S
C2142 H2155 0.961 . S
C2142 H2156 0.961 . S
C2143 C2140 1.539 . S
C2143 H2157 0.958 . S
C2143 H2158 0.961 . S
C2143 H2159 0.960 . S
H2144 C2128 0.931 . S
H2145 C2133 0.929 . S
H2146 C2134 0.960 . S
H2147 C2134 0.962 . S
H2148 C2134 0.960 . S
H2149 C2135 0.961 . S
H2150 C2135 0.961 . S
H2151 C2135 0.961 . S
H2152 C2136 0.931 . S
H2153 C2141 0.930 . S
H2154 C2142 0.956 . S
H2155 C2142 0.961 . S
H2156 C2142 0.961 . S
H2157 C2143 0.958 . S
H2158 C2143 0.961 . S
H2159 C2143 0.960 . S
C2160 C2161 1.391 . S
C2160 C2162 1.394 . S
C2160 H2176 0.931 . S
C2161 C2160 1.391 . S
C2161 C2165 1.376 . S
C2162 C2160 1.394 . S
C2162 C2163 1.369 . S
C2162 C2166 1.531 . S
C2163 C2162 1.369 . S
C2163 C2164 1.410 . S
C2163 C2171 1.503 . S
C2164 C2163 1.410 . S
C2164 C2165 1.392 . S
C2164 C2167 1.511 . S
C2165 C2161 1.376 . S
C2165 C2164 1.392 . S
C2165 H2177 0.929 1_556 S
C2166 C2162 1.531 . S
C2166 H2178 0.960 . S
C2166 H2179 0.962 . S
C2166 H2180 0.960 . S
C2167 C2164 1.511 . S
C2167 H2181 0.961 1_556 S
C2167 H2182 0.961 1_556 S
C2167 H2183 0.961 . S
C2168 C2169 1.370 . S
C2168 C2170 1.363 . S
C2168 H2184 0.931 . S
C2169 C2168 1.370 . S
C2169 C2173 1.408 . S
C2170 C2168 1.363 . S
C2170 C2171 1.370 . S
C2170 C2174 1.524 1_556 S
C2171 C2163 1.503 . S
C2171 C2170 1.370 . S
C2171 C2172 1.403 . S
C2172 C2171 1.403 . S
C2172 C2173 1.404 . S
C2172 C2175 1.539 . S
C2173 C2169 1.408 . S
C2173 C2172 1.404 . S
C2173 H2185 0.930 . S
C2174 C2170 1.524 1_554 S
C2174 H2186 0.956 . S
C2174 H2187 0.961 . S
C2174 H2188 0.961 . S
C2175 C2172 1.539 . S
C2175 H2189 0.958 . S
C2175 H2190 0.961 . S
C2175 H2191 0.960 . S
H2176 C2160 0.931 . S
H2177 C2165 0.929 1_554 S
H2178 C2166 0.960 . S
H2179 C2166 0.962 . S
H2180 C2166 0.960 . S
H2181 C2167 0.961 1_554 S
H2182 C2167 0.961 1_554 S
H2183 C2167 0.961 . S
H2184 C2168 0.931 . S
H2185 C2173 0.930 . S
H2186 C2174 0.956 . S
H2187 C2174 0.961 . S
H2188 C2174 0.961 . S
H2189 C2175 0.958 . S
H2190 C2175 0.961 . S
H2191 C2175 0.960 . S
C2192 C2193 1.391 . S
C2192 C2194 1.394 . S
C2192 H2208 0.931 . S
C2193 C2192 1.391 . S
C2193 C2197 1.378 . S
C2194 C2192 1.394 . S
C2194 C2195 1.369 . S
C2194 C2198 1.531 . S
C2195 C2194 1.369 . S
C2195 C2196 1.410 . S
C2195 C2203 1.503 . S
C2196 C2195 1.410 . S
C2196 C2197 1.414 . S
C2196 C2199 1.511 . S
C2197 C2193 1.378 . S
C2197 C2196 1.414 . S
C2197 H2209 0.906 1_655 S
C2198 C2194 1.531 . S
C2198 H2210 0.960 . S
C2198 H2211 0.962 . S
C2198 H2212 0.960 . S
C2199 C2196 1.511 . S
C2199 H2213 0.961 1_655 S
C2199 H2214 0.961 . S
C2199 H2215 0.961 . S
C2200 C2201 1.370 . S
C2200 C2202 1.363 . S
C2200 H2216 0.931 . S
C2201 C2200 1.370 . S
C2201 C2205 1.408 . S
C2202 C2200 1.363 . S
C2202 C2203 1.370 . S
C2202 C2206 1.524 . S
C2203 C2195 1.503 . S
C2203 C2202 1.370 . S
C2203 C2204 1.403 . S
C2204 C2203 1.403 . S
C2204 C2205 1.404 . S
C2204 C2207 1.539 . S
C2205 C2201 1.408 . S
C2205 C2204 1.404 . S
C2205 H2217 0.930 . S
C2206 C2202 1.524 . S
C2206 H2218 0.956 . S
C2206 H2219 0.961 1_655 S
C2206 H2220 0.961 1_655 S
C2207 C2204 1.539 . S
C2207 H2221 0.958 . S
C2207 H2222 0.961 . S
C2207 H2223 0.960 . S
H2208 C2192 0.931 . S
H2209 C2197 0.906 1_455 S
H2210 C2198 0.960 . S
H2211 C2198 0.962 . S
H2212 C2198 0.960 . S
H2213 C2199 0.961 1_455 S
H2214 C2199 0.961 . S
H2215 C2199 0.961 . S
H2216 C2200 0.931 . S
H2217 C2205 0.930 . S
H2218 C2206 0.956 . S
H2219 C2206 0.961 1_455 S
H2220 C2206 0.961 1_455 S
H2221 C2207 0.958 . S
H2222 C2207 0.961 . S
H2223 C2207 0.960 . S
C2224 C2225 1.391 . S
C2224 C2226 1.394 . S
C2224 H2240 0.931 . S
C2225 C2224 1.391 . S
C2225 C2229 1.376 . S
C2226 C2224 1.394 . S
C2226 C2227 1.369 . S
C2226 C2230 1.531 . S
C2227 C2226 1.369 . S
C2227 C2228 1.410 . S
C2227 C2235 1.503 . S
C2228 C2227 1.410 . S
C2228 C2229 1.392 . S
C2228 C2231 1.511 . S
C2229 C2225 1.376 . S
C2229 C2228 1.392 . S
C2229 H2241 0.929 . S
C2230 C2226 1.531 . S
C2230 H2242 0.960 . S
C2230 H2243 0.962 . S
C2230 H2244 0.960 . S
C2231 C2228 1.511 . S
C2231 H2245 0.961 . S
C2231 H2246 0.961 . S
C2231 H2247 0.961 . S
C2232 C2233 1.370 . S
C2232 C2234 1.363 . S
C2232 H2248 0.931 . S
C2233 C2232 1.370 . S
C2233 C2237 1.408 . S
C2234 C2232 1.363 . S
C2234 C2235 1.370 . S
C2234 C2238 1.524 . S
C2235 C2227 1.503 . S
C2235 C2234 1.370 . S
C2235 C2236 1.403 . S
C2236 C2235 1.403 . S
C2236 C2237 1.404 . S
C2236 C2239 1.539 . S
C2237 C2233 1.408 . S
C2237 C2236 1.404 . S
C2237 H2249 0.930 . S
C2238 C2234 1.524 . S
C2238 H2250 0.956 . S
C2238 H2251 0.961 . S
C2238 H2252 0.961 . S
C2239 C2236 1.539 . S
C2239 H2253 0.958 . S
C2239 H2254 0.961 . S
C2239 H2255 0.960 . S
H2240 C2224 0.931 . S
H2241 C2229 0.929 . S
H2242 C2230 0.960 . S
H2243 C2230 0.962 . S
H2244 C2230 0.960 . S
H2245 C2231 0.961 . S
H2246 C2231 0.961 . S
H2247 C2231 0.961 . S
H2248 C2232 0.931 . S
H2249 C2237 0.930 . S
H2250 C2238 0.956 . S
H2251 C2238 0.961 . S
H2252 C2238 0.961 . S
H2253 C2239 0.958 . S
H2254 C2239 0.961 . S
H2255 C2239 0.960 . S
C2256 C2257 1.391 1_554 S
C2256 C2258 1.394 . S
C2256 H2272 0.931 . S
C2257 C2256 1.391 1_556 S
C2257 C2261 1.376 . S
C2258 C2256 1.394 . S
C2258 C2259 1.369 . S
C2258 C2262 1.531 . S
C2259 C2258 1.369 . S
C2259 C2260 1.410 1_554 S
C2259 C2267 1.503 . S
C2260 C2259 1.410 1_556 S
C2260 C2261 1.392 . S
C2260 C2263 1.511 . S
C2261 C2257 1.376 . S
C2261 C2260 1.392 . S
C2261 H2273 0.929 . S
C2262 C2258 1.531 . S
C2262 H2274 0.960 . S
C2262 H2275 0.962 . S
C2262 H2276 0.960 . S
C2263 C2260 1.511 . S
C2263 H2277 0.961 . S
C2263 H2278 0.989 . S
C2263 H2279 0.961 . S
C2264 C2265 1.370 . S
C2264 C2266 1.363 . S
C2264 H2280 0.931 . S
C2265 C2264 1.370 . S
C2265 C2269 1.408 . S
C2266 C2264 1.363 . S
C2266 C2267 1.370 . S
C2266 C2270 1.524 . S
C2267 C2259 1.503 . S
C2267 C2266 1.370 . S
C2267 C2268 1.403 . S
C2268 C2267 1.403 . S
C2268 C2269 1.404 . S
C2268 C2271 1.503 1_554 S
C2269 C2265 1.408 . S
C2269 C2268 1.404 . S
C2269 H2281 0.930 . S
C2270 C2266 1.524 . S
C2270 H2282 0.956 . S
C2270 H2283 0.961 . S
C2270 H2284 0.961 . S
C2271 C2268 1.503 1_556 S
C2271 H2285 0.945 1_556 S
C2271 H2286 0.983 . S
C2271 H2287 0.990 . S
H2272 C2256 0.931 . S
H2273 C2261 0.929 . S
H2274 C2262 0.960 . S
H2275 C2262 0.962 . S
H2276 C2262 0.960 . S
H2277 C2263 0.961 . S
H2278 C2263 0.989 . S
H2279 C2263 0.961 . S
H2280 C2264 0.931 . S
H2281 C2269 0.930 . S
H2282 C2270 0.956 . S
H2283 C2270 0.961 . S
H2284 C2270 0.961 . S
H2285 C2271 0.945 1_554 S
H2286 C2271 0.983 . S
H2287 C2271 0.990 . S
C2288 C2289 1.391 . S
C2288 C2290 1.394 . S
C2288 H2304 0.931 . S
C2289 C2288 1.391 . S
C2289 C2293 1.376 1_655 S
C2290 C2288 1.394 . S
C2290 C2291 1.369 . S
C2290 C2294 1.531 . S
C2291 C2290 1.369 . S
C2291 C2292 1.410 1_655 S
C2291 C2299 1.503 . S
C2292 C2291 1.410 1_455 S
C2292 C2293 1.392 . S
C2292 C2295 1.511 . S
C2293 C2289 1.376 1_455 S
C2293 C2292 1.392 . S
C2293 H2305 0.929 . S
C2294 C2290 1.531 . S
C2294 H2306 0.960 . S
C2294 H2307 0.962 . S
C2294 H2308 0.960 . S
C2295 C2292 1.511 . S
C2295 H2309 0.961 . S
C2295 H2310 0.961 . S
C2295 H2311 0.961 . S
C2296 C2297 1.370 . S
C2296 C2298 1.363 . S
C2296 H2312 0.931 . S
C2297 C2296 1.370 . S
C2297 C2301 1.408 . S
C2298 C2296 1.363 . S
C2298 C2299 1.370 . S
C2298 C2302 1.524 . S
C2299 C2291 1.503 . S
C2299 C2298 1.370 . S
C2299 C2300 1.403 . S
C2300 C2299 1.403 . S
C2300 C2301 1.404 . S
C2300 C2303 1.539 1_655 S
C2301 C2297 1.408 . S
C2301 C2300 1.404 . S
C2301 H2313 0.930 . S
C2302 C2298 1.524 . S
C2302 H2314 0.956 . S
C2302 H2315 0.961 . S
C2302 H2316 0.961 . S
C2303 C2300 1.539 1_455 S
C2303 H2317 0.958 1_455 S
C2303 H2318 0.961 . S
C2303 H2319 0.960 . S
H2304 C2288 0.931 . S
H2305 C2293 0.929 . S
H2306 C2294 0.960 . S
H2307 C2294 0.962 . S
H2308 C2294 0.960 . S
H2309 C2295 0.961 . S
H2310 C2295 0.961 . S
H2311 C2295 0.961 . S
H2312 C2296 0.931 . S
H2313 C2301 0.930 . S
H2314 C2302 0.956 . S
H2315 C2302 0.961 . S
H2316 C2302 0.961 . S
H2317 C2303 0.958 1_655 S
H2318 C2303 0.961 . S
H2319 C2303 0.960 . S
C2320 C2321 1.391 . S
C2320 C2322 1.394 . S
C2320 H2336 0.931 . S
C2321 C2320 1.391 . S
C2321 C2325 1.376 . S
C2322 C2320 1.394 . S
C2322 C2323 1.369 . S
C2322 C2326 1.531 . S
C2323 C2322 1.369 . S
C2323 C2324 1.410 . S
C2323 C2331 1.503 . S
C2324 C2323 1.410 . S
C2324 C2325 1.392 . S
C2324 C2327 1.511 . S
C2325 C2321 1.376 . S
C2325 C2324 1.392 . S
C2325 H2337 0.929 . S
C2326 C2322 1.531 . S
C2326 H2338 0.960 . S
C2326 H2339 0.962 . S
C2326 H2340 0.960 . S
C2327 C2324 1.511 . S
C2327 H2341 0.961 . S
C2327 H2342 0.961 . S
C2327 H2343 0.961 . S
C2328 C2329 1.370 . S
C2328 C2330 1.363 . S
C2328 H2344 0.931 . S
C2329 C2328 1.370 . S
C2329 C2333 1.408 . S
C2330 C2328 1.363 . S
C2330 C2331 1.370 . S
C2330 C2334 1.524 . S
C2331 C2323 1.503 . S
C2331 C2330 1.370 . S
C2331 C2332 1.403 . S
C2332 C2331 1.403 . S
C2332 C2333 1.404 . S
C2332 C2335 1.539 . S
C2333 C2329 1.408 . S
C2333 C2332 1.404 . S
C2333 H2345 0.930 . S
C2334 C2330 1.524 . S
C2334 H2346 0.956 . S
C2334 H2347 0.961 . S
C2334 H2348 0.961 . S
C2335 C2332 1.539 . S
C2335 H2349 0.958 . S
C2335 H2350 0.961 . S
C2335 H2351 0.960 . S
H2336 C2320 0.931 . S
H2337 C2325 0.929 . S
H2338 C2326 0.960 . S
H2339 C2326 0.962 . S
H2340 C2326 0.960 . S
H2341 C2327 0.961 . S
H2342 C2327 0.961 . S
H2343 C2327 0.961 . S
H2344 C2328 0.931 . S
H2345 C2333 0.930 . S
H2346 C2334 0.956 . S
H2347 C2334 0.961 . S
H2348 C2334 0.961 . S
H2349 C2335 0.958 . S
H2350 C2335 0.961 . S
H2351 C2335 0.960 . S
C2352 C2353 1.391 . S
C2352 C2354 1.394 . S
C2352 H2368 0.931 . S
C2353 C2352 1.391 . S
C2353 C2357 1.376 . S
C2354 C2352 1.394 . S
C2354 C2355 1.369 . S
C2354 C2358 1.531 . S
C2355 C2354 1.369 . S
C2355 C2356 1.410 1_455 S
C2355 C2363 1.503 . S
C2356 C2355 1.410 1_655 S
C2356 C2357 1.392 1_655 S
C2356 C2359 1.511 . S
C2357 C2353 1.376 . S
C2357 C2356 1.392 1_455 S
C2357 H2369 0.929 1_455 S
C2358 C2354 1.531 . S
C2358 H2370 0.960 . S
C2358 H2371 0.962 . S
C2358 H2372 0.960 . S
C2359 C2356 1.511 . S
C2359 H2373 0.961 . S
C2359 H2374 0.961 . S
C2359 H2375 0.961 . S
C2360 C2361 1.370 . S
C2360 C2362 1.363 . S
C2360 H2376 0.931 . S
C2361 C2360 1.370 . S
C2361 C2365 1.410 1_455 S
C2362 C2360 1.363 . S
C2362 C2363 1.370 . S
C2362 C2366 1.524 . S
C2363 C2355 1.503 . S
C2363 C2362 1.370 . S
C2363 C2364 1.403 . S
C2364 C2363 1.403 . S
C2364 C2365 1.404 1_455 S
C2364 C2367 1.539 1_455 S
C2365 C2361 1.410 1_655 S
C2365 C2364 1.404 1_655 S
C2365 H2377 0.928 . S
C2366 C2362 1.524 . S
C2366 H2378 0.956 . S
C2366 H2379 0.961 . S
C2366 H2380 0.961 . S
C2367 C2364 1.539 1_655 S
C2367 H2381 0.958 1_655 S
C2367 H2382 0.961 . S
C2367 H2383 0.960 . S
H2368 C2352 0.931 . S
H2369 C2357 0.929 1_655 S
H2370 C2358 0.960 . S
H2371 C2358 0.962 . S
H2372 C2358 0.960 . S
H2373 C2359 0.961 . S
H2374 C2359 0.961 . S
H2375 C2359 0.961 . S
H2376 C2360 0.931 . S
H2377 C2365 0.928 . S
H2378 C2366 0.956 . S
H2379 C2366 0.961 . S
H2380 C2366 0.961 . S
H2381 C2367 0.958 1_455 S
H2382 C2367 0.961 . S
H2383 C2367 0.960 . S
C2384 C2385 1.391 . S
C2384 C2386 1.394 . S
C2384 H2400 0.931 . S
C2385 C2384 1.391 . S
C2385 C2389 1.376 . S
C2386 C2384 1.394 . S
C2386 C2387 1.369 . S
C2386 C2390 1.531 . S
C2387 C2386 1.369 . S
C2387 C2388 1.410 . S
C2387 C2395 1.503 . S
C2388 C2387 1.410 . S
C2388 C2389 1.392 . S
C2388 C2391 1.511 . S
C2389 C2385 1.376 . S
C2389 C2388 1.392 . S
C2389 H2401 0.929 . S
C2390 C2386 1.531 . S
C2390 H2402 0.960 . S
C2390 H2403 0.962 . S
C2390 H2404 0.960 . S
C2391 C2388 1.511 . S
C2391 H2405 0.961 . S
C2391 H2406 0.961 . S
C2391 H2407 0.961 . S
C2392 C2393 1.370 . S
C2392 C2394 1.363 . S
C2392 H2408 0.931 . S
C2393 C2392 1.370 . S
C2393 C2397 1.408 . S
C2394 C2392 1.363 . S
C2394 C2395 1.370 . S
C2394 C2398 1.524 . S
C2395 C2387 1.503 . S
C2395 C2394 1.370 . S
C2395 C2396 1.403 . S
C2396 C2395 1.403 . S
C2396 C2397 1.404 . S
C2396 C2399 1.539 . S
C2397 C2393 1.408 . S
C2397 C2396 1.404 . S
C2397 H2409 0.930 . S
C2398 C2394 1.524 . S
C2398 H2410 0.956 . S
C2398 H2411 0.961 . S
C2398 H2412 0.961 . S
C2399 C2396 1.539 . S
C2399 H2413 0.958 . S
C2399 H2414 0.961 . S
C2399 H2415 0.960 . S
H2400 C2384 0.931 . S
H2401 C2389 0.929 . S
H2402 C2390 0.960 . S
H2403 C2390 0.962 . S
H2404 C2390 0.960 . S
H2405 C2391 0.961 . S
H2406 C2391 0.961 . S
H2407 C2391 0.961 . S
H2408 C2392 0.931 . S
H2409 C2397 0.930 . S
H2410 C2398 0.956 . S
H2411 C2398 0.961 . S
H2412 C2398 0.961 . S
H2413 C2399 0.958 . S
H2414 C2399 0.961 . S
H2415 C2399 0.960 . S
C2416 C2417 1.391 . S
C2416 C2418 1.394 . S
C2416 H2432 0.931 . S
C2417 C2416 1.391 . S
C2417 C2421 1.376 . S
C2418 C2416 1.394 . S
C2418 C2419 1.369 . S
C2418 C2422 1.531 . S
C2419 C2418 1.369 . S
C2419 C2420 1.410 . S
C2419 C2427 1.503 . S
C2420 C2419 1.410 . S
C2420 C2421 1.392 . S
C2420 C2423 1.511 . S
C2421 C2417 1.376 . S
C2421 C2420 1.392 . S
C2421 H2433 0.929 . S
C2422 C2418 1.531 . S
C2422 H2434 0.960 . S
C2422 H2435 0.962 . S
C2422 H2436 0.960 . S
C2423 C2420 1.511 . S
C2423 H2437 0.961 . S
C2423 H2438 0.961 . S
C2423 H2439 0.961 . S
C2424 C2425 1.370 . S
C2424 C2426 1.363 . S
C2424 H2440 0.931 . S
C2425 C2424 1.370 . S
C2425 C2429 1.408 . S
C2426 C2424 1.363 . S
C2426 C2427 1.370 . S
C2426 C2430 1.524 . S
C2427 C2419 1.503 . S
C2427 C2426 1.370 . S
C2427 C2428 1.403 . S
C2428 C2427 1.403 . S
C2428 C2429 1.404 . S
C2428 C2431 1.539 . S
C2429 C2425 1.408 . S
C2429 C2428 1.404 . S
C2429 H2441 0.930 . S
C2430 C2426 1.524 . S
C2430 H2442 0.956 . S
C2430 H2443 0.961 . S
C2430 H2444 0.961 . S
C2431 C2428 1.539 . S
C2431 H2445 0.958 . S
C2431 H2446 0.961 . S
C2431 H2447 0.960 . S
H2432 C2416 0.931 . S
H2433 C2421 0.929 . S
H2434 C2422 0.960 . S
H2435 C2422 0.962 . S
H2436 C2422 0.960 . S
H2437 C2423 0.961 . S
H2438 C2423 0.961 . S
H2439 C2423 0.961 . S
H2440 C2424 0.931 . S
H2441 C2429 0.930 . S
H2442 C2430 0.956 . S
H2443 C2430 0.961 . S
H2444 C2430 0.961 . S
H2445 C2431 0.958 . S
H2446 C2431 0.961 . S
H2447 C2431 0.960 . S
C2448 C2449 1.391 1_556 S
C2448 C2450 1.394 . S
C2448 H2464 0.931 . S
C2449 C2448 1.391 1_554 S
C2449 C2453 1.376 . S
C2450 C2448 1.394 . S
C2450 C2451 1.369 . S
C2450 C2454 1.531 . S
C2451 C2450 1.369 . S
C2451 C2452 1.410 . S
C2451 C2459 1.503 . S
C2452 C2451 1.410 . S
C2452 C2453 1.392 1_556 S
C2452 C2455 1.511 1_556 S
C2453 C2449 1.376 . S
C2453 C2452 1.392 1_554 S
C2453 H2465 0.929 . S
C2454 C2450 1.531 . S
C2454 H2466 0.960 . S
C2454 H2467 0.962 . S
C2454 H2468 0.960 . S
C2455 C2452 1.511 1_554 S
C2455 H2469 0.961 . S
C2455 H2470 0.961 1_554 S
C2455 H2471 0.961 . S
C2456 C2457 1.370 . S
C2456 C2458 1.363 . S
C2456 H2472 0.931 . S
C2457 C2456 1.370 . S
C2457 C2461 1.408 . S
C2458 C2456 1.363 . S
C2458 C2459 1.370 . S
C2458 C2462 1.524 . S
C2459 C2451 1.503 . S
C2459 C2458 1.370 . S
C2459 C2460 1.403 . S
C2460 C2459 1.403 . S
C2460 C2461 1.404 . S
C2460 C2463 1.543 . S
C2461 C2457 1.408 . S
C2461 C2460 1.404 . S
C2461 H2473 0.930 . S
C2462 C2458 1.524 . S
C2462 H2474 0.956 . S
C2462 H2475 0.961 . S
C2462 H2476 0.961 . S
C2463 C2460 1.543 . S
C2463 H2477 0.959 . S
C2463 H2478 0.960 1_556 S
C2463 H2479 0.957 1_556 S
H2464 C2448 0.931 . S
H2465 C2453 0.929 . S
H2466 C2454 0.960 . S
H2467 C2454 0.962 . S
H2468 C2454 0.960 . S
H2469 C2455 0.961 . S
H2470 C2455 0.961 1_556 S
H2471 C2455 0.961 . S
H2472 C2456 0.931 . S
H2473 C2461 0.930 . S
H2474 C2462 0.956 . S
H2475 C2462 0.961 . S
H2476 C2462 0.961 . S
H2477 C2463 0.959 . S
H2478 C2463 0.960 1_554 S
H2479 C2463 0.957 1_554 S
C2480 C2481 1.391 . S
C2480 C2482 1.394 . S
C2480 H2496 0.931 . S
C2481 C2480 1.391 . S
C2481 C2485 1.376 . S
C2482 C2480 1.394 . S
C2482 C2483 1.369 . S
C2482 C2486 1.531 . S
C2483 C2482 1.369 . S
C2483 C2484 1.410 . S
C2483 C2491 1.503 . S
C2484 C2483 1.410 . S
C2484 C2485 1.392 . S
C2484 C2487 1.511 . S
C2485 C2481 1.376 . S
C2485 C2484 1.392 . S
C2485 H2497 0.929 . S
C2486 C2482 1.531 . S
C2486 H2498 0.960 . S
C2486 H2499 0.962 . S
C2486 H2500 0.960 . S
C2487 C2484 1.511 . S
C2487 H2501 0.961 . S
C2487 H2502 0.961 . S
C2487 H2503 0.961 . S
C2488 C2489 1.370 . S
C2488 C2490 1.363 . S
C2488 H2504 0.931 . S
C2489 C2488 1.370 . S
C2489 C2493 1.408 . S
C2490 C2488 1.363 . S
C2490 C2491 1.370 . S
C2490 C2494 1.524 . S
C2491 C2483 1.503 . S
C2491 C2490 1.370 . S
C2491 C2492 1.403 . S
C2492 C2491 1.403 . S
C2492 C2493 1.404 . S
C2492 C2495 1.539 . S
C2493 C2489 1.408 . S
C2493 C2492 1.404 . S
C2493 H2505 0.930 . S
C2494 C2490 1.524 . S
C2494 H2506 0.956 . S
C2494 H2507 0.961 . S
C2494 H2508 0.961 . S
C2495 C2492 1.539 . S
C2495 H2509 0.958 . S
C2495 H2510 0.961 . S
C2495 H2511 0.960 . S
H2496 C2480 0.931 . S
H2497 C2485 0.929 . S
H2498 C2486 0.960 . S
H2499 C2486 0.962 . S
H2500 C2486 0.960 . S
H2501 C2487 0.961 . S
H2502 C2487 0.961 . S
H2503 C2487 0.961 . S
H2504 C2488 0.931 . S
H2505 C2493 0.930 . S
H2506 C2494 0.956 . S
H2507 C2494 0.961 . S
H2508 C2494 0.961 . S
H2509 C2495 0.958 . S
H2510 C2495 0.961 . S
H2511 C2495 0.960 . S
C2512 C2513 1.391 . S
C2512 C2514 1.394 . S
C2512 H2528 0.939 . S
C2513 C2512 1.391 . S
C2513 C2517 1.376 . S
C2514 C2512 1.394 . S
C2514 C2515 1.369 . S
C2514 C2518 1.531 . S
C2515 C2514 1.369 . S
C2515 C2516 1.410 . S
C2515 C2523 1.503 . S
C2516 C2515 1.410 . S
C2516 C2517 1.392 . S
C2516 C2519 1.511 . S
C2517 C2513 1.376 . S
C2517 C2516 1.392 . S
C2517 H2529 0.929 . S
C2518 C2514 1.531 . S
C2518 H2530 0.948 1_565 S
C2518 H2531 0.962 . S
C2518 H2532 0.960 1_565 S
C2519 C2516 1.511 . S
C2519 H2533 0.961 . S
C2519 H2534 0.961 . S
C2519 H2535 0.961 . S
C2520 C2521 1.370 . S
C2520 C2522 1.363 . S
C2520 H2536 0.931 . S
C2521 C2520 1.370 . S
C2521 C2525 1.408 . S
C2522 C2520 1.363 . S
C2522 C2523 1.370 . S
C2522 C2526 1.524 . S
C2523 C2515 1.503 . S
C2523 C2522 1.370 . S
C2523 C2524 1.421 . S
C2524 C2523 1.421 . S
C2524 C2525 1.410 . S
C2524 C2527 1.516 1_565 S
C2525 C2521 1.408 . S
C2525 C2524 1.410 . S
C2525 H2537 0.930 1_565 S
C2526 C2522 1.524 . S
C2526 H2538 0.956 . S
C2526 H2539 0.961 . S
C2526 H2540 0.961 . S
C2527 C2524 1.516 1_545 S
C2527 H2541 0.958 . S
C2527 H2542 0.961 . S
C2527 H2543 0.960 . S
H2528 C2512 0.939 . S
H2529 C2517 0.929 . S
H2530 C2518 0.948 1_545 S
H2531 C2518 0.962 . S
H2532 C2518 0.960 1_545 S
H2533 C2519 0.961 . S
H2534 C2519 0.961 . S
H2535 C2519 0.961 . S
H2536 C2520 0.931 . S
H2537 C2525 0.930 1_545 S
H2538 C2526 0.956 . S
H2539 C2526 0.961 . S
H2540 C2526 0.961 . S
H2541 C2527 0.958 . S
H2542 C2527 0.961 . S
H2543 C2527 0.960 . S
C2544 C2545 1.391 . S
C2544 C2546 1.394 . S
C2544 H2560 0.931 . S
C2545 C2544 1.391 . S
C2545 C2549 1.376 . S
C2546 C2544 1.394 . S
C2546 C2547 1.369 . S
C2546 C2550 1.531 1_545 S
C2547 C2546 1.369 . S
C2547 C2548 1.410 . S
C2547 C2555 1.503 . S
C2548 C2547 1.410 . S
C2548 C2549 1.392 . S
C2548 C2551 1.511 . S
C2549 C2545 1.376 . S
C2549 C2548 1.392 . S
C2549 H2561 0.929 . S
C2550 C2546 1.531 1_565 S
C2550 H2562 0.960 . S
C2550 H2563 0.962 . S
C2550 H2564 0.960 . S
C2551 C2548 1.511 . S
C2551 H2565 0.961 . S
C2551 H2566 0.961 . S
C2551 H2567 0.961 . S
C2552 C2553 1.370 1_545 S
C2552 C2554 1.363 . S
C2552 H2568 0.931 . S
C2553 C2552 1.370 1_565 S
C2553 C2557 1.408 . S
C2554 C2552 1.363 . S
C2554 C2555 1.370 . S
C2554 C2558 1.524 . S
C2555 C2547 1.503 . S
C2555 C2554 1.370 . S
C2555 C2556 1.403 . S
C2556 C2555 1.403 . S
C2556 C2557 1.404 1_545 S
C2556 C2559 1.539 . S
C2557 C2553 1.408 . S
C2557 C2556 1.404 1_565 S
C2557 H2569 0.930 . S
C2558 C2554 1.524 . S
C2558 H2570 0.956 . S
C2558 H2571 0.961 . S
C2558 H2572 0.961 . S
C2559 C2556 1.539 . S
C2559 H2573 0.958 1_545 S
C2559 H2574 0.961 . S
C2559 H2575 0.960 . S
H2560 C2544 0.931 . S
H2561 C2549 0.929 . S
H2562 C2550 0.960 . S
H2563 C2550 0.962 . S
H2564 C2550 0.960 . S
H2565 C2551 0.961 . S
H2566 C2551 0.961 . S
H2567 C2551 0.961 . S
H2568 C2552 0.931 . S
H2569 C2557 0.930 . S
H2570 C2558 0.956 . S
H2571 C2558 0.961 . S
H2572 C2558 0.961 . S
H2573 C2559 0.958 1_565 S
H2574 C2559 0.961 . S
H2575 C2559 0.960 . S
C2576 C2577 1.390 . S
C2576 C2578 1.393 . S
C2576 H2592 0.931 1_545 S
C2577 C2576 1.390 . S
C2577 C2581 1.376 . S
C2578 C2576 1.393 . S
C2578 C2579 1.369 . S
C2578 C2582 1.531 1_545 S
C2579 C2578 1.369 . S
C2579 C2580 1.410 . S
C2579 C2587 1.503 . S
C2580 C2579 1.410 . S
C2580 C2581 1.392 . S
C2580 C2583 1.511 . S
C2581 C2577 1.376 . S
C2581 C2580 1.392 . S
C2581 H2593 0.929 . S
C2582 C2578 1.531 1_565 S
C2582 H2594 0.960 . S
C2582 H2595 0.962 1_565 S
C2582 H2596 0.960 . S
C2583 C2580 1.511 . S
C2583 H2597 0.961 . S
C2583 H2598 0.961 . S
C2583 H2599 0.961 . S
C2584 C2585 1.370 . S
C2584 C2586 1.363 . S
C2584 H2600 0.931 . S
C2585 C2584 1.370 . S
C2585 C2589 1.394 1_545 S
C2586 C2584 1.363 . S
C2586 C2587 1.370 . S
C2586 C2590 1.524 . S
C2587 C2579 1.503 . S
C2587 C2586 1.370 . S
C2587 C2588 1.403 1_545 S
C2588 C2587 1.403 1_565 S
C2588 C2589 1.407 . S
C2588 C2591 1.539 . S
C2589 C2585 1.394 1_565 S
C2589 C2588 1.407 . S
C2589 H2601 0.941 . S
C2590 C2586 1.524 . S
C2590 H2602 0.956 . S
C2590 H2603 0.961 . S
C2590 H2604 0.961 . S
C2591 C2588 1.539 . S
C2591 H2605 0.958 . S
C2591 H2606 0.961 . S
C2591 H2607 0.960 . S
H2592 C2576 0.931 1_565 S
H2593 C2581 0.929 . S
H2594 C2582 0.960 . S
H2595 C2582 0.962 1_545 S
H2596 C2582 0.960 . S
H2597 C2583 0.961 . S
H2598 C2583 0.961 . S
H2599 C2583 0.961 . S
H2600 C2584 0.931 . S
H2601 C2589 0.941 . S
H2602 C2590 0.956 . S
H2603 C2590 0.961 . S
H2604 C2590 0.961 . S
H2605 C2591 0.958 . S
H2606 C2591 0.961 . S
H2607 C2591 0.960 . S
C2608 C2609 1.391 . S
C2608 C2610 1.394 . S
C2608 H2624 0.931 . S
C2609 C2608 1.391 . S
C2609 C2613 1.376 . S
C2610 C2608 1.394 . S
C2610 C2611 1.369 . S
C2610 C2614 1.531 . S
C2611 C2610 1.369 . S
C2611 C2612 1.410 . S
C2611 C2619 1.503 . S
C2612 C2611 1.410 . S
C2612 C2613 1.392 . S
C2612 C2615 1.511 . S
C2613 C2609 1.376 . S
C2613 C2612 1.392 . S
C2613 H2625 0.929 1_565 S
C2614 C2610 1.531 . S
C2614 H2626 0.960 . S
C2614 H2627 0.962 . S
C2614 H2628 0.960 . S
C2615 C2612 1.511 . S
C2615 H2629 0.961 . S
C2615 H2630 0.961 . S
C2615 H2631 0.961 . S
C2616 C2617 1.370 . S
C2616 C2618 1.363 . S
C2616 H2632 0.931 . S
C2617 C2616 1.370 . S
C2617 C2621 1.408 . S
C2618 C2616 1.363 . S
C2618 C2619 1.370 . S
C2618 C2622 1.524 . S
C2619 C2611 1.503 . S
C2619 C2618 1.370 . S
C2619 C2620 1.403 . S
C2620 C2619 1.403 . S
C2620 C2621 1.404 . S
C2620 C2623 1.539 . S
C2621 C2617 1.408 . S
C2621 C2620 1.404 . S
C2621 H2633 0.930 . S
C2622 C2618 1.524 . S
C2622 H2634 0.956 . S
C2622 H2635 0.961 1_565 S
C2622 H2636 0.961 1_565 S
C2623 C2620 1.539 . S
C2623 H2637 0.958 . S
C2623 H2638 0.961 . S
C2623 H2639 0.960 . S
H2624 C2608 0.931 . S
H2625 C2613 0.929 1_545 S
H2626 C2614 0.960 . S
H2627 C2614 0.962 . S
H2628 C2614 0.960 . S
H2629 C2615 0.961 . S
H2630 C2615 0.961 . S
H2631 C2615 0.961 . S
H2632 C2616 0.931 . S
H2633 C2621 0.930 . S
H2634 C2622 0.956 . S
H2635 C2622 0.961 1_545 S
H2636 C2622 0.961 1_545 S
H2637 C2623 0.958 . S
H2638 C2623 0.961 . S
H2639 C2623 0.960 . S
C2640 C2641 1.391 . S
C2640 C2642 1.394 . S
C2640 H2656 0.931 . S
C2641 C2640 1.391 . S
C2641 C2645 1.376 . S
C2642 C2640 1.394 . S
C2642 C2643 1.369 . S
C2642 C2646 1.531 . S
C2643 C2642 1.369 . S
C2643 C2644 1.410 . S
C2643 C2651 1.503 . S
C2644 C2643 1.410 . S
C2644 C2645 1.392 . S
C2644 C2647 1.511 . S
C2645 C2641 1.376 . S
C2645 C2644 1.392 . S
C2645 H2657 0.929 . S
C2646 C2642 1.531 . S
C2646 H2658 0.960 . S
C2646 H2659 0.962 . S
C2646 H2660 0.960 . S
C2647 C2644 1.511 . S
C2647 H2661 0.961 . S
C2647 H2662 0.961 . S
C2647 H2663 0.961 . S
C2648 C2649 1.370 . S
C2648 C2650 1.363 . S
C2648 H2664 0.931 . S
C2649 C2648 1.370 . S
C2649 C2653 1.408 . S
C2650 C2648 1.363 . S
C2650 C2651 1.370 . S
C2650 C2654 1.524 . S
C2651 C2643 1.503 . S
C2651 C2650 1.370 . S
C2651 C2652 1.403 . S
C2652 C2651 1.403 . S
C2652 C2653 1.404 . S
C2652 C2655 1.539 . S
C2653 C2649 1.408 . S
C2653 C2652 1.404 . S
C2653 H2665 0.930 . S
C2654 C2650 1.524 . S
C2654 H2666 0.956 . S
C2654 H2667 0.961 . S
C2654 H2668 0.961 . S
C2655 C2652 1.539 . S
C2655 H2669 0.958 . S
C2655 H2670 0.961 . S
C2655 H2671 0.960 . S
H2656 C2640 0.931 . S
H2657 C2645 0.929 . S
H2658 C2646 0.960 . S
H2659 C2646 0.962 . S
H2660 C2646 0.960 . S
H2661 C2647 0.961 . S
H2662 C2647 0.961 . S
H2663 C2647 0.961 . S
H2664 C2648 0.931 . S
H2665 C2653 0.930 . S
H2666 C2654 0.956 . S
H2667 C2654 0.961 . S
H2668 C2654 0.961 . S
H2669 C2655 0.958 . S
H2670 C2655 0.961 . S
H2671 C2655 0.960 . S
C2672 C2673 1.391 . S
C2672 C2674 1.394 . S
C2672 H2688 0.931 . S
C2673 C2672 1.391 . S
C2673 C2677 1.376 . S
C2674 C2672 1.394 . S
C2674 C2675 1.369 . S
C2674 C2678 1.531 . S
C2675 C2674 1.369 . S
C2675 C2676 1.410 . S
C2675 C2683 1.503 . S
C2676 C2675 1.410 . S
C2676 C2677 1.392 . S
C2676 C2679 1.511 . S
C2677 C2673 1.376 . S
C2677 C2676 1.392 . S
C2677 H2689 0.929 . S
C2678 C2674 1.531 . S
C2678 H2690 0.960 . S
C2678 H2691 0.962 . S
C2678 H2692 0.960 . S
C2679 C2676 1.511 . S
C2679 H2693 0.961 . S
C2679 H2694 0.961 . S
C2679 H2695 0.961 . S
C2680 C2681 1.370 . S
C2680 C2682 1.363 . S
C2680 H2696 0.931 . S
C2681 C2680 1.370 . S
C2681 C2685 1.408 . S
C2682 C2680 1.363 . S
C2682 C2683 1.370 . S
C2682 C2686 1.524 . S
C2683 C2675 1.503 . S
C2683 C2682 1.370 . S
C2683 C2684 1.403 . S
C2684 C2683 1.403 . S
C2684 C2685 1.404 . S
C2684 C2687 1.539 . S
C2685 C2681 1.408 . S
C2685 C2684 1.404 . S
C2685 H2697 0.930 . S
C2686 C2682 1.524 . S
C2686 H2698 0.956 . S
C2686 H2699 0.961 . S
C2686 H2700 0.961 . S
C2687 C2684 1.539 . S
C2687 H2701 0.958 . S
C2687 H2702 0.961 . S
C2687 H2703 0.960 . S
H2688 C2672 0.931 . S
H2689 C2677 0.929 . S
H2690 C2678 0.960 . S
H2691 C2678 0.962 . S
H2692 C2678 0.960 . S
H2693 C2679 0.961 . S
H2694 C2679 0.961 . S
H2695 C2679 0.961 . S
H2696 C2680 0.931 . S
H2697 C2685 0.930 . S
H2698 C2686 0.956 . S
H2699 C2686 0.961 . S
H2700 C2686 0.961 . S
H2701 C2687 0.958 . S
H2702 C2687 0.961 . S
H2703 C2687 0.960 . S
C2704 C2705 1.391 . S
C2704 C2706 1.394 . S
C2704 H2720 0.931 . S
C2705 C2704 1.391 . S
C2705 C2709 1.376 . S
C2706 C2704 1.394 . S
C2706 C2707 1.369 . S
C2706 C2710 1.531 . S
C2707 C2706 1.369 . S
C2707 C2708 1.410 . S
C2707 C2715 1.503 . S
C2708 C2707 1.410 . S
C2708 C2709 1.392 . S
C2708 C2711 1.511 . S
C2709 C2705 1.376 . S
C2709 C2708 1.392 . S
C2709 H2721 0.929 . S
C2710 C2706 1.531 . S
C2710 H2722 0.960 . S
C2710 H2723 0.962 . S
C2710 H2724 0.960 . S
C2711 C2708 1.511 . S
C2711 H2725 0.961 . S
C2711 H2726 0.961 . S
C2711 H2727 0.961 . S
C2712 C2713 1.370 . S
C2712 C2714 1.363 . S
C2712 H2728 0.931 . S
C2713 C2712 1.370 . S
C2713 C2717 1.408 . S
C2714 C2712 1.363 . S
C2714 C2715 1.370 . S
C2714 C2718 1.524 . S
C2715 C2707 1.503 . S
C2715 C2714 1.370 . S
C2715 C2716 1.403 . S
C2716 C2715 1.403 . S
C2716 C2717 1.404 . S
C2716 C2719 1.539 . S
C2717 C2713 1.408 . S
C2717 C2716 1.404 . S
C2717 H2729 0.930 . S
C2718 C2714 1.524 . S
C2718 H2730 0.956 . S
C2718 H2731 0.961 . S
C2718 H2732 0.961 . S
C2719 C2716 1.539 . S
C2719 H2733 0.958 . S
C2719 H2734 0.961 . S
C2719 H2735 0.960 . S
H2720 C2704 0.931 . S
H2721 C2709 0.929 . S
H2722 C2710 0.960 . S
H2723 C2710 0.962 . S
H2724 C2710 0.960 . S
H2725 C2711 0.961 . S
H2726 C2711 0.961 . S
H2727 C2711 0.961 . S
H2728 C2712 0.931 . S
H2729 C2717 0.930 . S
H2730 C2718 0.956 . S
H2731 C2718 0.961 . S
H2732 C2718 0.961 . S
H2733 C2719 0.958 . S
H2734 C2719 0.961 . S
H2735 C2719 0.960 . S
C817 C719 0.847 . S
C825 C20 0.822 . S
C849 C753 0.720 . S
C857 C54 0.678 . S
C881 C88 0.807 . S
C889 C549 0.818 . S
C913 C787 0.606 . S
C921 C122 0.642 . S
C945 C156 0.713 . S
C953 C651 0.729 . S
C977 C685 0.703 . S
C985 C190 0.690 . S
C1009 C583 0.780 . S
C1017 C224 0.744 . S
C1041 C617 0.504 . S
C1049 C258 0.521 . S
C1073 C292 0.785 . S
C1081 C141 0.796 . S
C1105 C326 0.670 . S
C1113 C175 0.680 . S
C1137 C360 0.761 . S
C1145 C209 0.744 . S
C1169 C394 0.661 . S
C1177 C243 0.673 . S
C1201 C5 0.849 . S
C1209 C428 0.825 . S
C1233 C462 0.702 . S
C1241 C39 0.700 . S
C1265 C496 0.705 . S
C1273 C73 0.723 . S
C1297 C107 0.543 . S
C1305 C530 0.529 . S
C1329 C481 0.825 . S
C1337 C564 0.820 . S
C1361 C598 0.711 . S
C1369 C345 0.730 . S
C1393 C632 0.727 . S
C1401 C379 0.702 . S
C1425 C666 0.809 . S
C1433 C277 0.796 . S
C1457 C311 0.612 . S
C1465 C700 0.550 . S
C1489 C413 0.742 . S
C1497 C734 0.721 . S
C1521 C768 0.629 . S
C1529 C447 0.653 . S
C1553 C802 0.731 . S
C1561 C515 0.724 . S
C1585 C240 2.116 . S
C1593 C2 1.883 . S
C1617 C36 1.868 . S
C1625 C138 1.684 . S
C1649 C172 2.053 . S
C1657 C70 1.870 . S
C1681 C206 1.934 . S
C1689 C104 2.147 . S
C1713 C682 2.137 . S
C1721 C274 1.914 . S
C1745 C308 2.110 . S
C1753 C580 1.889 . S
C1777 C342 1.853 . S
C1785 C614 2.134 . S
C1809 C376 2.071 . S
C1817 C648 1.873 . S
C1841 C410 1.837 . S
C1849 C784 2.045 . S
C1873 C716 1.726 . S
C1881 C444 1.874 . S
C1905 C478 1.649 . S
C1913 C750 1.866 . S
C1937 C512 2.105 . S
C1945 C546 1.880 . S
C1969 C9 1.269 . S
C1977 C475 1.658 . S
C2001 C43 1.561 . S
C2009 C509 1.743 . S
C2033 C543 1.401 . S
C2041 C77 1.123 . S
C2065 C441 1.601 . S
C2073 C111 1.472 . S
C2097 C145 1.067 . S
C2105 C407 1.388 . S
C2129 C179 1.581 . S
C2137 C305 1.755 . S
C2161 C339 1.510 . S
C2169 C213 1.190 . S
C2193 C247 1.489 1_655 S
C2201 C373 1.686 . S
C2225 C281 1.234 . S
C2233 C67 1.656 . S
C2257 C315 1.488 . S
C2265 C101 1.619 . S
C2289 C135 1.520 . S
C2297 C349 1.195 . S
C2321 C383 1.574 . S
C2329 C33 1.747 . S
C2353 C417 1.178 . S
C2361 C271 1.406 . S
C2385 C451 1.519 . S
C2393 C169 1.748 . S
C2417 C485 1.165 . S
C2425 C203 1.395 . S
C2449 C519 1.552 . S
C2457 C237 1.687 . S
C2481 C553 1.243 . S
C2489 C781 1.657 . S
C2513 C645 1.533 . S
C2521 C587 1.226 . S
C2545 C679 1.628 . S
C2553 C621 1.470 . S
C2577 C713 1.406 . S
C2585 C655 1.126 . S
C2609 C689 1.490 1_565 S
C2617 C611 1.685 . S
C2641 C815 1.389 . S
C2649 C723 1.118 . S
C2673 C747 1.738 . S
C2681 C757 1.550 . S
C2705 C791 1.613 . S
C2713 C577 1.749 . S
