# Generated by pormake.
# Topology snz, (6)-cn, num edge types: 1
# Building blocks:
#     Node 0, Type 0, BuildingBlock: CIFDUS_clean_sbu_1, # of connection points: 6
#     Node 1, Type 0, BuildingBlock: CIFDUS_clean_sbu_1, # of connection points: 6
#     Node 2, Type 0, BuildingBlock: CIFDUS_clean_sbu_1, # of connection points: 6
#     Node 3, Type 0, BuildingBlock: CIFDUS_clean_sbu_1, # of connection points: 6
#     Node 4, Type 0, BuildingBlock: CIFDUS_clean_sbu_1, # of connection points: 6
#     Node 5, Type 0, BuildingBlock: CIFDUS_clean_sbu_1, # of connection points: 6
#     Node 6, Type 0, BuildingBlock: CIFDUS_clean_sbu_1, # of connection points: 6
#     Node 7, Type 0, BuildingBlock: CIFDUS_clean_sbu_1, # of connection points: 6
#     Node 8, Type 0, BuildingBlock: CIFDUS_clean_sbu_1, # of connection points: 6
#     Edge 9, Type (0, 0), BuildingBlock: OJICUG_clean_linker_0, # of connection points: 2
#     Edge 10, Type (0, 0), BuildingBlock: OJICUG_clean_linker_0, # of connection points: 2
#     Edge 11, Type (0, 0), BuildingBlock: OJICUG_clean_linker_0, # of connection points: 2
#     Edge 12, Type (0, 0), BuildingBlock: OJICUG_clean_linker_0, # of connection points: 2
#     Edge 13, Type (0, 0), BuildingBlock: OJICUG_clean_linker_0, # of connection points: 2
#     Edge 14, Type (0, 0), BuildingBlock: OJICUG_clean_linker_0, # of connection points: 2
#     Edge 15, Type (0, 0), BuildingBlock: OJICUG_clean_linker_0, # of connection points: 2
#     Edge 16, Type (0, 0), BuildingBlock: OJICUG_clean_linker_0, # of connection points: 2
#     Edge 17, Type (0, 0), BuildingBlock: OJICUG_clean_linker_0, # of connection points: 2
#     Edge 18, Type (0, 0), BuildingBlock: OJICUG_clean_linker_0, # of connection points: 2
#     Edge 19, Type (0, 0), BuildingBlock: OJICUG_clean_linker_0, # of connection points: 2
#     Edge 20, Type (0, 0), BuildingBlock: OJICUG_clean_linker_0, # of connection points: 2
#     Edge 21, Type (0, 0), BuildingBlock: OJICUG_clean_linker_0, # of connection points: 2
#     Edge 22, Type (0, 0), BuildingBlock: OJICUG_clean_linker_0, # of connection points: 2
#     Edge 23, Type (0, 0), BuildingBlock: OJICUG_clean_linker_0, # of connection points: 2
#     Edge 24, Type (0, 0), BuildingBlock: OJICUG_clean_linker_0, # of connection points: 2
#     Edge 25, Type (0, 0), BuildingBlock: OJICUG_clean_linker_0, # of connection points: 2
#     Edge 26, Type (0, 0), BuildingBlock: OJICUG_clean_linker_0, # of connection points: 2
#     Edge 27, Type (0, 0), BuildingBlock: OJICUG_clean_linker_0, # of connection points: 2
#     Edge 28, Type (0, 0), BuildingBlock: OJICUG_clean_linker_0, # of connection points: 2
#     Edge 29, Type (0, 0), BuildingBlock: OJICUG_clean_linker_0, # of connection points: 2
#     Edge 30, Type (0, 0), BuildingBlock: OJICUG_clean_linker_0, # of connection points: 2
#     Edge 31, Type (0, 0), BuildingBlock: OJICUG_clean_linker_0, # of connection points: 2
#     Edge 32, Type (0, 0), BuildingBlock: OJICUG_clean_linker_0, # of connection points: 2
#     Edge 33, Type (0, 0), BuildingBlock: OJICUG_clean_linker_0, # of connection points: 2
#     Edge 34, Type (0, 0), BuildingBlock: OJICUG_clean_linker_0, # of connection points: 2
#     Edge 35, Type (0, 0), BuildingBlock: OJICUG_clean_linker_0, # of connection points: 2
# Relax obj value: 0.262
# Max RMSD: 0.273
# Mean RMSD: 0.243
data_MOF--net-snz--node1-CIFDUS_clean_sbu_1--edge1-OJICUG_clean_linker_0
_symmetry_space_group_name_H-M    P1
_symmetry_Int_Tables_number       1
_symmetry_cell_setting            triclinic
loop_
_symmetry_equiv_pos_as_xyz
'x, y, z'
_cell_length_a     36.660882
_cell_length_b     36.976237
_cell_length_c     11.120718
_cell_angle_alpha  91.640243
_cell_angle_beta   92.40693
_cell_angle_gamma 120.29783
loop_
_atom_site_label
_atom_site_type_symbol
_atom_site_fract_x
_atom_site_fract_y
_atom_site_fract_z
_atom_type_partial_charge
O0 O 0.0731 0.55643 0.05764 0.0
Mn1 Mn 0.02726 0.49233 0.04316 0.0
O2 O 0.03436 0.5834 0.12501 0.0
Mn3 Mn 0.98902 0.53303 0.16619 0.0
O4 O 0.98365 0.42827 0.02455 0.0
O5 O 0.04453 0.48457 0.87336 0.0
Mn6 Mn 0.07115 0.45807 0.91362 0.0
O7 O 0.06914 0.4766 0.14169 0.0
O8 O 0.02878 0.40726 0.96797 0.0
O9 O 0.98602 0.50675 0.93921 0.0
O10 O 0.94191 0.50715 0.06399 0.0
O11 O 0.07819 0.46226 0.75613 0.0
O12 O 0.11687 0.49408 0.0123 0.0
C13 C 0.99392 0.50619 0.31565 0.0
C14 C 0.06874 0.58778 0.08839 0.0
C15 C 0.99211 0.39916 -0.0022 0.0
C16 C 0.05534 0.47973 0.76569 0.0
C17 C 0.10606 0.48364 0.11615 0.0
C18 C 0.95165 0.50673 0.95795 0.0
O19 O 0.0077 0.49945 0.21365 0.0
O20 O 0.97699 0.52967 0.31795 0.0
O21 O 0.55394 0.42616 0.05194 0.0
Mn22 Mn 0.566 0.48729 0.03004 0.0
O23 O 0.49203 0.38562 0.94394 0.0
Mn24 Mn 0.48484 0.42782 0.88331 0.0
O25 O 0.57956 0.54894 0.00909 0.0
O26 O 0.59735 0.50503 0.19841 0.0
Mn27 Mn 0.64938 0.54527 0.1723 0.0
O28 O 0.62133 0.50157 0.93933 0.0
O29 O 0.64382 0.58827 0.10847 0.0
O30 O 0.50956 0.47268 0.11991 0.0
O31 O 0.45678 0.44589 0.97672 0.0
O32 O 0.65049 0.54 0.33466 0.0
O33 O 0.67578 0.52548 0.07508 0.0
C34 C 0.52142 0.46258 0.7452 0.0
C35 C 0.52264 0.39016 0.01434 0.0
C36 C 0.61266 0.5845 0.04197 0.0
C37 C 0.61091 0.51209 0.31222 0.0
C38 C 0.66041 0.51342 0.96761 0.0
C39 C 0.47065 0.45978 0.08401 0.0
O40 O 0.5356 0.46998 0.85901 0.0
O41 O 0.48248 0.43304 0.72228 0.0
O42 O 0.58513 0.97985 0.08272 0.0
Mn43 Mn 0.56399 0.02136 0.04606 0.0
O44 O 0.64822 0.02334 0.18488 0.0
Mn45 Mn 0.64421 0.07154 0.2005 0.0
O46 O 0.54414 0.06267 0.01161 0.0
O47 O 0.54093 0.9962 0.87025 0.0
Mn48 Mn 0.48647 0.97144 0.88525 0.0
O49 O 0.5059 0.98397 0.12887 0.0
O50 O 0.47999 0.01793 0.91758 0.0
O51 O 0.61847 0.05768 0.95721 0.0
O52 O 0.6647 0.10927 0.0817 0.0
O53 O 0.48912 0.95713 0.73161 0.0
O54 O 0.47452 0.93176 -0.00566 0.0
C55 C 0.60226 0.06531 0.32869 0.0
C56 C 0.6196 0.98697 0.1405 0.0
C57 C 0.50863 0.05444 0.96119 0.0
C58 C 0.52919 0.98245 0.75684 0.0
C59 C 0.47587 0.94656 0.09782 0.0
C60 C 0.6522 0.09321 0.97584 0.0
O61 O 0.58947 0.04976 0.21691 0.0
O62 O 0.64262 0.09029 0.35055 0.0
O63 O 0.69445 0.85752 0.17156 0.0
Mn64 Mn 0.74214 0.84301 0.18486 0.0
O65 O 0.7355 0.92476 0.13917 0.0
Mn66 Mn 0.77803 0.91885 0.07234 0.0
O67 O 0.79199 0.82799 0.19924 0.0
O68 O 0.71868 0.81854 0.3505 0.0
Mn69 Mn 0.72341 0.7735 0.3375 0.0
O70 O 0.70003 0.7858 0.08708 0.0
O71 O 0.77917 0.79168 0.36416 0.0
O72 O 0.78361 0.90118 0.28671 0.0
O73 O 0.82815 0.94272 0.15989 0.0
O74 O 0.69392 0.76248 0.46641 0.0
O75 O 0.69588 0.73708 0.20809 0.0
C76 C 0.75741 0.88466 0.91828 0.0
C77 C 0.70007 0.8942 0.16304 0.0
C78 C 0.80369 0.81199 0.28417 0.0
C79 C 0.70317 0.80088 0.45253 0.0
C80 C 0.68629 0.74739 0.10999 0.0
C81 C 0.81854 0.93487 0.26675 0.0
O82 O 0.76301 0.86724 0.01523 0.0
O83 O 0.77451 0.92522 0.91845 0.0
O84 O 0.18936 0.78921 0.21389 0.0
Mn85 Mn 0.21274 0.85304 0.26091 0.0
O86 O 0.12703 0.77263 0.11509 0.0
Mn87 Mn 0.13511 0.8263 0.10536 0.0
O88 O 0.23363 0.91599 0.30251 0.0
O89 O 0.23492 0.85027 0.43312 0.0
Mn90 Mn 0.28938 0.88541 0.43209 0.0
O91 O 0.27199 0.87117 0.18049 0.0
O92 O 0.29554 0.93804 0.40922 0.0
O93 O 0.15596 0.83537 0.34803 0.0
O94 O 0.1156 0.84656 0.22227 0.0
O95 O 0.28465 0.86604 0.57969 0.0
O96 O 0.31028 0.864 0.3268 0.0
C97 C 0.17685 0.85931 0.98018 0.0
C98 C 0.15419 0.76284 0.15398 0.0
C99 C 0.26803 0.94508 0.35746 0.0
C100 C 0.24474 0.84707 0.54578 0.0
C101 C 0.30465 0.86887 0.21806 0.0
C102 C 0.12323 0.83886 0.32643 0.0
O103 O 0.1899 0.85667 0.09 0.0
O104 O 0.13681 0.84552 0.95888 0.0
O105 O 0.28169 0.37512 0.29381 0.0
Mn106 Mn 0.21696 0.33349 0.31215 0.0
O107 O 0.30241 0.3311 0.22038 0.0
Mn108 Mn 0.24837 0.2848 0.17802 0.0
O109 O 0.15391 0.29268 0.3327 0.0
O110 O 0.21837 0.35716 0.48651 0.0
Mn111 Mn 0.19225 0.3845 0.45409 0.0
O112 O 0.19788 0.37206 0.21758 0.0
O113 O 0.13739 0.3396 0.40945 0.0
O114 O 0.23201 0.29484 0.41025 0.0
O115 O 0.22448 0.24393 0.28641 0.0
O116 O 0.20667 0.39802 0.61137 0.0
O117 O 0.22597 0.42321 0.35106 0.0
C118 C 0.21452 0.29202 0.03449 0.0
C119 C 0.31066 0.36746 0.26095 0.0
C120 C 0.12746 0.3021 0.37447 0.0
C121 C 0.21947 0.37141 0.59709 0.0
C122 C 0.20725 0.40955 0.24996 0.0
C123 C 0.22679 0.25818 0.39234 0.0
O124 O 0.2161 0.30682 0.14458 0.0
O125 O 0.23183 0.2692 0.02083 0.0
O126 O 0.41931 0.15439 0.76769 0.0
Mn127 Mn 0.37553 0.17179 0.72348 0.0
O128 O 0.38078 0.09774 0.8755 0.0
Mn129 Mn 0.32669 0.0885 0.83753 0.0
O130 O 0.32974 0.1875 0.68271 0.0
O131 O 0.42266 0.23238 0.75034 0.0
Mn132 Mn 0.41574 0.26145 0.63912 0.0
O133 O 0.38527 0.17175 0.5407 0.0
O134 O 0.36394 0.25691 0.66103 0.0
O135 O 0.36611 0.17426 0.90545 0.0
O136 O 0.30982 0.11412 0.946 0.0
O137 O 0.46319 0.2997 0.72919 0.0
O138 O 0.41951 0.23946 0.4934 0.0
C139 C 0.30103 0.0725 0.65763 0.0
C140 C 0.41593 0.12639 0.83902 0.0
C141 C 0.33004 0.22185 0.66853 0.0
C142 C 0.45541 0.26763 0.79081 0.0
C143 C 0.4014 0.20042 0.46432 0.0
C144 C 0.33778 0.15153 0.97643 0.0
O145 O 0.32966 0.11031 0.6968 0.0
O146 O 0.28776 0.04476 0.73822 0.0
O147 O 0.94252 0.18745 0.59824 0.0
Mn148 Mn 0.88058 0.1673 0.6395 0.0
O149 O 0.95351 0.2394 0.47485 0.0
Mn150 Mn 0.90788 0.24624 0.5082 0.0
O151 O 0.81935 0.15062 0.67359 0.0
O152 O 0.8656 0.10469 0.62106 0.0
Mn153 Mn 0.84297 0.08727 0.76015 0.0
O154 O 0.89489 0.1744 0.82611 0.0
O155 O 0.79458 0.09095 0.76905 0.0
O156 O 0.86513 0.16019 0.45558 0.0
O157 O 0.86056 0.21514 0.40746 0.0
O158 O 0.83812 0.04062 0.69559 0.0
O159 O 0.88395 0.11309 0.88136 0.0
C160 C 0.90429 0.26671 0.68337 0.0
C161 C 0.9641 0.21444 0.52125 0.0
C162 C 0.79029 0.12025 0.72643 0.0
C163 C 0.85618 0.0652 0.60927 0.0
C164 C 0.89491 0.15064 0.90766 0.0
C165 C 0.85553 0.17961 0.37883 0.0
O166 O 0.89527 0.22855 0.6544 0.0
O167 O 0.91469 0.29175 0.59582 0.0
O168 O 0.82502 0.61234 0.64089 0.0
Mn169 Mn 0.88357 0.66465 0.59637 0.0
O170 O 0.77832 0.63428 0.64079 0.0
Mn171 Mn 0.82021 0.68913 0.67417 0.0
O172 O 0.94298 0.71743 0.55968 0.0
O173 O 0.91188 0.62916 0.63175 0.0
Mn174 Mn 0.94906 0.64697 0.51753 0.0
O175 O 0.87039 0.64673 0.41527 0.0
O176 O 0.99082 0.69746 0.5851 0.0
O177 O 0.89509 0.68249 0.77727 0.0
O178 O 0.84591 0.69838 0.8279 0.0
O179 O 0.93716 0.5942 0.53774 0.0
O180 O 0.93092 0.65237 0.36575 0.0
C181 C 0.84602 0.72867 0.53114 0.0
C182 C 0.78702 0.60531 0.65015 0.0
C183 C 0.98189 0.72627 0.57391 0.0
C184 C 0.91127 0.59358 0.61431 0.0
C185 C 0.89596 0.64973 0.33668 0.0
C186 C 0.87603 0.69175 0.85567 0.0
O187 O 0.85813 0.70245 0.56495 0.0
O188 O 0.81791 0.73016 0.59465 0.0
C189 C 0.02066 0.51227 0.64914 0.0
C190 C 0.03559 0.48429 0.65442 0.0
H191 H 0.99522 0.54083 0.53643 0.0
C192 C 0.03231 0.46001 0.54989 0.0
H193 H 0.02264 0.53107 0.72833 0.0
C194 C 0.01708 0.46565 0.43973 0.0
C195 C 1.00443 0.49531 0.43269 0.0
H196 H 0.0423 0.43701 0.55245 0.0
H197 H 0.01612 0.44757 0.36002 0.0
C198 C 1.00501 0.51766 0.53892 0.0
C199 C 0.53408 0.49657 0.54898 0.0
C200 C 0.54753 0.47979 0.64128 0.0
H201 H 0.54273 0.51882 0.36961 0.0
C202 C 0.57836 0.46926 0.61783 0.0
H203 H 0.50893 0.50324 0.56294 0.0
C204 C 0.59726 0.47766 0.50723 0.0
C205 C 0.58425 0.49489 0.41541 0.0
H206 H 0.58748 0.454 0.68459 0.0
H207 H 0.62244 0.47102 0.4937 0.0
C208 C 0.5524 0.50427 0.43721 0.0
C209 C 0.57607 0.0479 0.65402 0.0
C210 C 0.55353 1.00395 0.6532 0.0
H211 H 0.60769 0.10204 0.54954 0.0
C212 C 0.54351 0.9808 0.54177 0.0
H213 H 0.58249 0.06663 0.73731 0.0
C214 C 0.55573 1.00093 0.43376 0.0
C215 C 0.5786 0.04481 0.43441 0.0
H216 H 0.52499 0.94684 0.53796 0.0
H217 H 0.5489 0.98209 0.35047 0.0
C218 C 0.58892 0.06809 0.54591 0.0
C219 C 0.74365 0.86637 0.58055 0.0
C220 C 0.70918 0.82552 0.56526 0.0
H221 H 0.78738 0.91581 0.70444 0.0
C222 C 0.68937 0.80423 0.66809 0.0
H223 H 0.76017 0.8832 0.50417 0.0
C224 C 0.70572 0.82244 0.78418 0.0
C225 C 0.74176 0.86239 0.79896 0.0
H226 H 0.66272 0.7724 0.65884 0.0
H227 H 0.69015 0.80547 0.8616 0.0
C228 C 0.75986 0.8845 0.69598 0.0
C229 C 0.22236 0.82196 0.74643 0.0
C230 C 0.21753 0.84108 0.64419 0.0
H231 H 0.21609 0.81533 0.9367 0.0
C232 C 0.20264 0.86909 0.65717 0.0
H233 H 0.23545 0.8015 0.73934 0.0
C234 C 0.19305 0.87811 0.77024 0.0
C235 C 0.19906 0.86002 0.87309 0.0
H236 H 0.20059 0.88579 0.58102 0.0
H237 H 0.18028 0.89884 0.77727 0.0
C238 C 0.21333 0.83144 0.86001 0.0
C239 C 0.20114 0.30678 0.70573 0.0
C240 C 0.22157 0.35064 0.70584 0.0
H241 H 0.18162 0.25333 0.81238 0.0
C242 C 0.23451 0.37419 0.81688 0.0
H243 H 0.18879 0.28772 0.62199 0.0
C244 C 0.22811 0.35455 0.92561 0.0
C245 C 0.20898 0.31087 0.92572 0.0
H246 H 0.24914 0.40804 0.81958 0.0
H247 H 0.24024 0.37375 0.00913 0.0
C248 C 0.19556 0.2871 0.81475 0.0
C249 C 0.38613 0.21709 0.26109 0.0
C250 C 0.38887 0.18833 0.33603 0.0
H251 H 0.36335 0.22637 0.09122 0.0
C252 C 0.37208 0.1467 0.29279 0.0
H253 H 0.39821 0.24943 0.29193 0.0
C254 C 0.35209 0.13375 0.17781 0.0
C255 C 0.34906 0.16253 0.10431 0.0
H256 H 0.37453 0.12434 0.34757 0.0
H257 H 0.3406 0.10171 0.14464 0.0
C258 C 0.36575 0.20402 0.14694 0.0
C259 C 0.85408 0.13189 0.21675 0.0
C260 C 0.86005 0.17116 0.25261 0.0
H261 H 0.86297 0.09522 0.08419 0.0
C262 C 0.87998 0.20463 0.17655 0.0
H263 H 0.83928 0.10581 0.27414 0.0
C264 C 0.89416 0.19886 0.06753 0.0
C265 C 0.8888 0.15974 0.03237 0.0
H266 H 0.88619 0.23576 0.20303 0.0
H267 H 0.90864 0.22475 0.01015 0.0
C268 C 0.86873 0.12632 0.10888 0.0
C269 C 0.85411 0.66168 0.17633 0.0
C270 C 0.88892 0.6576 0.21137 0.0
H271 H 0.82397 0.67853 0.03867 0.0
C272 C 0.92035 0.66661 0.12981 0.0
H273 H 0.82891 0.65362 0.23606 0.0
C274 C 0.91751 0.68038 0.0168 0.0
C275 C 0.88317 0.68542 0.98246 0.0
H276 H 0.94761 0.66357 0.15348 0.0
H277 H 0.94188 0.68631 0.95547 0.0
C278 C 0.85157 0.67622 0.06371 0.0
C279 C 0.18014 0.45896 0.28956 0.0
C280 C 0.17888 0.42639 0.21507 0.0
H281 H 0.15664 0.50095 0.32137 0.0
C282 C 0.14828 0.40897 0.11829 0.0
H283 H 0.20263 0.47309 0.36688 0.0
C284 C 0.1215 0.42521 0.09369 0.0
C285 C 0.124 0.45868 0.16634 0.0
H286 H 0.14569 0.38366 0.06014 0.0
H287 H 0.10039 0.41306 0.01322 0.0
C288 C 0.15307 0.47466 0.26587 0.0
C289 C 0.65029 0.64988 0.93546 0.0
C290 C 0.61648 0.62408 0.00522 0.0
H291 H 0.69915 0.71284 0.9085 0.0
C292 C 0.59757 0.642 0.07252 0.0
H293 H 0.66556 0.63658 0.88376 0.0
C294 C 0.61612 0.68565 0.0837 0.0
C295 C 0.65462 0.71174 0.03158 0.0
H296 H 0.57223 0.62293 0.12944 0.0
H297 H 0.60473 0.69885 0.15054 0.0
C298 C 0.66928 0.69362 0.94835 0.0
C299 C 0.40967 0.94891 0.11605 0.0
C300 C 0.43346 0.92945 0.14295 0.0
H301 H 0.34831 0.94356 0.10944 0.0
C302 C 0.41199 0.88736 0.17147 0.0
H303 H 0.42517 0.98073 0.08718 0.0
C304 C 0.36808 0.86552 0.17708 0.0
C305 C 0.34419 0.88517 0.15549 0.0
H306 H 0.42922 0.87104 0.18704 0.0
H307 H 0.35292 0.83378 0.20686 0.0
C308 C 0.36544 0.92703 0.12269 0.0
C309 C 0.48083 0.0984 0.03337 0.0
C310 C 0.50066 0.08855 0.94442 0.0
H311 H 0.4381 0.12024 0.06759 0.0
C312 C 0.50236 0.10286 0.82819 0.0
H313 H 0.47951 0.08748 0.12339 0.0
C314 C 0.47891 0.12165 0.79614 0.0
C315 C 0.45349 0.12526 0.88038 0.0
H316 H 0.51786 0.09533 0.75908 0.0
H317 H 0.47645 0.12821 0.70275 0.0
C318 C 0.45722 0.1169 0.00128 0.0
C319 C 0.94592 0.28934 0.87816 0.0
C320 C 0.91154 0.28528 0.80686 0.0
H321 H 0.99756 0.32847 0.0051 0.0
C322 C 0.89656 0.31288 0.83137 0.0
H323 H 0.95875 0.26917 0.85915 0.0
C324 C 0.9194 0.34765 0.91298 0.0
C325 C 0.95769 0.35527 0.97019 0.0
H326 H 0.87055 0.31082 0.77559 0.0
H327 H 0.91035 0.37137 0.91729 0.0
C328 C 0.96835 0.32365 0.96121 0.0
C329 C 0.71166 0.55229 0.67395 0.0
C330 C 0.75458 0.56754 0.70731 0.0
H331 H 0.64906 0.52533 0.7321 0.0
C332 C 0.76494 0.55691 0.81905 0.0
H333 H 0.70274 0.56084 0.58997 0.0
C334 C 0.73346 0.5353 0.90016 0.0
C335 C 0.69098 0.52392 0.87129 0.0
H336 H 0.79779 0.56929 0.84937 0.0
H337 H 0.74305 0.53077 -0.0107 0.0
C338 C 0.68048 0.53126 0.75527 0.0
C339 C 0.89805 0.52542 0.68672 0.0
C340 C 0.90732 0.56681 0.71466 0.0
H341 H 0.90591 0.47398 0.7398 0.0
C342 C 0.92796 0.58626 0.82688 0.0
H343 H 0.88297 0.51008 0.59958 0.0
C344 C 0.94188 0.56608 0.90485 0.0
C345 C 0.93532 0.52598 0.87289 0.0
H346 H 0.93701 0.61854 0.84953 0.0
H347 H 0.95957 0.58269 -0.01161 0.0
C348 C 0.91212 0.50519 0.76498 0.0
C349 C 0.54493 0.33958 0.96896 0.0
C350 C 0.52158 0.35095 0.04177 0.0
H351 H 0.53971 0.29645 0.82783 0.0
C352 C 0.48247 0.31878 0.07693 0.0
H353 H 0.57598 0.36322 0.94388 0.0
C354 C 0.46104 0.28098 0.00673 0.0
C355 C 0.47979 0.27528 0.90631 0.0
H356 H 0.46435 0.32632 0.13682 0.0
H357 H 0.42736 0.26174 0.013 0.0
C358 C 0.5239 0.30102 0.90193 0.0
C359 C 0.75648 0.15273 0.83786 0.0
C360 C 0.75252 0.12154 0.75466 0.0
H361 H 0.72654 0.16835 0.97458 0.0
C362 C 0.71275 0.08642 0.72387 0.0
H363 H 0.78723 0.17997 0.86295 0.0
C364 C 0.67803 0.07995 0.78617 0.0
C365 C 0.68308 0.10806 0.8822 0.0
H366 H 0.70937 0.06214 0.65967 0.0
H367 H 0.64867 0.05049 0.76824 0.0
C368 C 0.72184 0.14594 0.90197 0.0
C369 C 0.64995 0.95325 0.26658 0.0
C370 C 0.62792 0.95245 0.15899 0.0
H371 H 0.68934 0.93317 0.3535 0.0
C372 C 0.62036 0.92282 0.06526 0.0
H373 H 0.65553 0.97537 0.34106 0.0
C374 C 0.63949 0.89828 0.07328 0.0
C375 C 0.66566 0.90291 0.1756 0.0
H376 H 0.60338 0.92164 0.98173 0.0
H377 H 0.63753 0.87914 -0.00512 0.0
C378 C 0.66876 0.92871 0.27467 0.0
C379 C 0.11772 0.69886 0.01602 0.0
C380 C 0.14332 0.71912 0.12234 0.0
H381 H 0.07486 0.64044 0.92015 0.0
C382 C 0.15276 0.69557 0.20134 0.0
H383 H 0.11049 0.71624 0.95183 0.0
C384 C 0.13248 0.6517 0.18155 0.0
C385 C 0.10329 0.63131 0.08177 0.0
H386 H 0.17258 0.71037 0.28328 0.0
H387 H 0.13644 0.63348 0.25003 0.0
C388 C 0.09782 0.65547 -0.00368 0.0
C389 C 0.40338 0.45699 0.12712 0.0
C390 C 0.43702 0.45133 0.16803 0.0
H391 H 0.33685 0.43502 0.12626 0.0
C392 C 0.43013 0.42439 0.26209 0.0
H393 H 0.40734 0.47673 0.05279 0.0
C394 C 0.38919 0.39964 0.30239 0.0
C395 C 0.35479 0.40234 0.25198 0.0
H396 H 0.45497 0.41862 0.29403 0.0
H397 H 0.38375 0.37601 0.3659 0.0
C398 C 0.3628 0.43291 0.16885 0.0
C399 C 0.83685 0.73902 0.31576 0.0
C400 C 0.86022 0.75555 0.42682 0.0
H401 H 0.8052 0.74869 0.16541 0.0
C402 C 0.88037 0.79922 0.45112 0.0
H403 H 0.81863 0.7055 0.29727 0.0
C404 C 0.87059 0.824 0.37795 0.0
C405 C 0.84007 0.80524 0.28036 0.0
H406 H 0.89803 0.81298 0.53683 0.0
H407 H 0.88033 0.85558 0.41169 0.0
C408 C 0.82879 0.76428 0.23989 0.0
C409 C 0.24958 0.0267 0.4951 0.0
C410 C 0.29175 0.05702 0.53088 0.0
H411 H 0.20838 0.9659 0.40842 0.0
C412 C 0.32444 0.05628 0.47232 0.0
H413 H 0.22383 0.02644 0.54037 0.0
C414 C 0.31566 0.02175 0.39627 0.0
C415 C 0.27418 0.98742 0.37983 0.0
H416 H 0.35716 0.0784 0.50115 0.0
H417 H 0.34193 0.0193 0.36456 0.0
C418 C 0.24073 0.99181 0.41996 0.0
C419 C 0.03945 0.24075 0.5728 0.0
C420 C 1.00498 0.22074 0.48786 0.0
H421 H 0.10619 0.28314 0.60054 0.0
C422 C 0.01216 0.22032 0.36449 0.0
H423 H 0.03452 0.24203 0.66788 0.0
C424 C 0.05313 0.2439 0.32568 0.0
C425 C 0.08682 0.26829 0.41034 0.0
H426 H 0.98568 0.20527 0.29764 0.0
H427 H 0.05783 0.24609 0.23005 0.0
C428 C 0.08021 0.26469 0.53405 0.0
C429 C 0.26323 0.19163 0.54155 0.0
C430 C 0.29036 0.22042 0.63434 0.0
H431 H 0.22024 0.18094 0.39047 0.0
C432 C 0.28628 0.25496 0.66723 0.0
H433 H 0.26595 0.16472 0.51462 0.0
C434 C 0.26053 0.26447 0.59597 0.0
C435 C 0.23859 0.23949 0.491 0.0
H436 H 0.30681 0.27732 0.73921 0.0
H437 H 0.26244 0.29424 0.61482 0.0
C438 C 0.23735 0.20116 0.46986 0.0
C439 C 0.81486 0.99749 0.33148 0.0
C440 C 0.83326 0.97237 0.34781 0.0
H441 H 0.80945 0.04899 0.40136 0.0
C442 C 0.86714 0.98553 0.43355 0.0
H443 H 0.78949 0.98871 0.26329 0.0
C444 C 0.87993 0.02146 0.50896 0.0
C445 C 0.85914 0.04465 0.49903 0.0
H446 H 0.88254 0.9673 0.44514 0.0
H447 H 0.90354 0.02902 0.5822 0.0
C448 C 0.82749 0.03315 0.40693 0.0
C449 C 0.05736 0.78335 0.58657 0.0
C450 C 0.0162 0.76592 0.53251 0.0
H451 H 0.12373 0.82022 0.5637 0.0
C452 C 0.01062 0.77882 0.41926 0.0
H453 H 0.06243 0.77342 0.67331 0.0
C454 C 0.04575 0.80574 0.35681 0.0
C455 C 0.08727 0.82017 0.40601 0.0
H456 H 0.97938 0.7648 0.37355 0.0
H457 H 0.04012 0.81214 0.26555 0.0
C458 C 0.09255 0.81011 0.52369 0.0
loop_
_geom_bond_atom_site_label_1
_geom_bond_atom_site_label_2
_geom_bond_distance
_geom_bond_site_symmetry_2
_ccdc_geom_bond_type
O0 Mn1 2.163 . S
O0 C14 1.244 . S
Mn1 O0 2.163 . S
Mn1 O4 2.160 1_455 S
Mn1 O5 2.221 1_554 S
Mn1 O7 2.163 . S
Mn1 O9 2.160 1_454 S
Mn1 O19 2.221 1_455 S
O2 Mn3 2.084 1_455 S
O2 C14 1.256 . S
Mn3 O2 2.084 1_655 S
Mn3 O10 2.091 . S
Mn3 O19 2.288 . S
Mn3 O20 2.249 1_655 S
O4 Mn1 2.160 1_655 S
O4 C15 1.239 1_554 S
O5 Mn1 2.221 1_556 S
O5 Mn6 2.290 . S
O5 C16 1.278 . S
Mn6 O5 2.290 . S
Mn6 O8 2.089 1_455 S
Mn6 O11 2.251 . S
Mn6 O12 2.087 . S
O7 Mn1 2.163 . S
O7 C17 1.244 . S
O8 Mn6 2.089 1_655 S
O8 C15 1.256 . S
O9 Mn1 2.160 1_656 S
O9 C18 1.239 1_556 S
O10 Mn3 2.091 . S
O10 C18 1.256 . S
O11 Mn6 2.251 . S
O11 C16 1.241 . S
O12 Mn6 2.087 . S
O12 C17 1.256 1_556 S
C13 O19 1.278 1_455 S
C13 O20 1.241 . S
C14 O0 1.244 . S
C14 O2 1.256 . S
C15 O4 1.239 1_556 S
C15 O8 1.256 . S
C16 O5 1.278 . S
C16 O11 1.241 . S
C17 O7 1.244 . S
C17 O12 1.256 1_554 S
C18 O9 1.239 1_554 S
C18 O10 1.256 . S
O19 Mn1 2.221 1_655 S
O19 Mn3 2.288 . S
O19 C13 1.278 1_655 S
O20 Mn3 2.249 1_455 S
O20 C13 1.241 . S
O21 Mn22 2.163 . S
O21 C35 1.244 . S
Mn22 O21 2.163 . S
Mn22 O25 2.160 . S
Mn22 O26 2.221 . S
Mn22 O28 2.163 1_554 S
Mn22 O30 2.160 . S
Mn22 O40 2.221 1_554 S
O23 Mn24 2.087 . S
O23 C35 1.256 1_556 S
Mn24 O23 2.087 . S
Mn24 O31 2.089 . S
Mn24 O40 2.290 . S
Mn24 O41 2.251 . S
O25 Mn22 2.160 . S
O25 C36 1.239 . S
O26 Mn22 2.221 . S
O26 Mn27 2.290 . S
O26 C37 1.278 . S
Mn27 O26 2.290 . S
Mn27 O29 2.089 . S
Mn27 O32 2.251 . S
Mn27 O33 2.087 . S
O28 Mn22 2.163 1_556 S
O28 C38 1.244 1_556 S
O29 Mn27 2.089 . S
O29 C36 1.256 . S
O30 Mn22 2.160 . S
O30 C39 1.239 . S
O31 Mn24 2.089 . S
O31 C39 1.256 1_556 S
O32 Mn27 2.251 . S
O32 C37 1.241 . S
O33 Mn27 2.087 . S
O33 C38 1.256 . S
C34 O40 1.278 . S
C34 O41 1.241 . S
C35 O21 1.244 . S
C35 O23 1.256 1_554 S
C36 O25 1.239 . S
C36 O29 1.256 . S
C37 O26 1.278 . S
C37 O32 1.241 . S
C38 O28 1.244 1_554 S
C38 O33 1.256 . S
C39 O30 1.239 . S
C39 O31 1.256 1_554 S
O40 Mn22 2.221 1_556 S
O40 Mn24 2.290 . S
O40 C34 1.278 . S
O41 Mn24 2.251 . S
O41 C34 1.241 . S
O42 Mn43 2.163 1_565 S
O42 C56 1.244 . S
Mn43 O42 2.163 1_545 S
Mn43 O46 2.160 . S
Mn43 O47 2.221 1_554 S
Mn43 O49 2.163 1_545 S
Mn43 O51 2.160 . S
Mn43 O61 2.221 . S
O44 Mn45 2.087 1_565 S
O44 C56 1.256 . S
Mn45 O44 2.087 1_545 S
Mn45 O52 2.089 . S
Mn45 O61 2.290 . S
Mn45 O62 2.251 . S
O46 Mn43 2.160 . S
O46 C57 1.239 . S
O47 Mn43 2.221 1_556 S
O47 Mn48 2.290 . S
O47 C58 1.278 1_545 S
Mn48 O47 2.290 . S
Mn48 O50 2.089 . S
Mn48 O53 2.251 1_545 S
Mn48 O54 2.087 1_545 S
O49 Mn43 2.163 1_565 S
O49 C59 1.244 . S
O50 Mn48 2.089 . S
O50 C57 1.256 1_556 S
O51 Mn43 2.160 . S
O51 C60 1.239 . S
O52 Mn45 2.089 . S
O52 C60 1.256 . S
O53 Mn48 2.251 1_565 S
O53 C58 1.241 . S
O54 Mn48 2.087 1_565 S
O54 C59 1.256 1_556 S
C55 O61 1.278 . S
C55 O62 1.241 . S
C56 O42 1.244 . S
C56 O44 1.256 . S
C57 O46 1.239 . S
C57 O50 1.256 1_554 S
C58 O47 1.278 1_565 S
C58 O53 1.241 . S
C59 O49 1.244 . S
C59 O54 1.256 1_554 S
C60 O51 1.239 . S
C60 O52 1.256 . S
O61 Mn43 2.221 . S
O61 Mn45 2.290 . S
O61 C55 1.278 . S
O62 Mn45 2.251 . S
O62 C55 1.241 . S
O63 Mn64 2.163 . S
O63 C77 1.244 . S
Mn64 O63 2.163 . S
Mn64 O67 2.160 . S
Mn64 O68 2.221 . S
Mn64 O70 2.163 . S
Mn64 O72 2.160 . S
Mn64 O82 2.221 . S
O65 Mn66 2.087 . S
O65 C77 1.256 . S
Mn66 O65 2.087 . S
Mn66 O73 2.089 . S
Mn66 O82 2.290 . S
Mn66 O83 2.251 1_554 S
O67 Mn64 2.160 . S
O67 C78 1.239 . S
O68 Mn64 2.221 . S
O68 Mn69 2.290 . S
O68 C79 1.278 . S
Mn69 O68 2.290 . S
Mn69 O71 2.089 . S
Mn69 O74 2.251 . S
Mn69 O75 2.087 . S
O70 Mn64 2.163 . S
O70 C80 1.244 . S
O71 Mn69 2.089 . S
O71 C78 1.256 . S
O72 Mn64 2.160 . S
O72 C81 1.239 . S
O73 Mn66 2.089 . S
O73 C81 1.256 . S
O74 Mn69 2.251 . S
O74 C79 1.241 . S
O75 Mn69 2.087 . S
O75 C80 1.256 . S
C76 O82 1.278 1_556 S
C76 O83 1.241 . S
C77 O63 1.244 . S
C77 O65 1.256 . S
C78 O67 1.239 . S
C78 O71 1.256 . S
C79 O68 1.278 . S
C79 O74 1.241 . S
C80 O70 1.244 . S
C80 O75 1.256 . S
C81 O72 1.239 . S
C81 O73 1.256 . S
O82 Mn64 2.221 . S
O82 Mn66 2.290 . S
O82 C76 1.278 1_554 S
O83 Mn66 2.251 1_556 S
O83 C76 1.241 . S
O84 Mn85 2.163 . S
O84 C98 1.244 . S
Mn85 O84 2.163 . S
Mn85 O88 2.160 . S
Mn85 O89 2.221 . S
Mn85 O91 2.163 . S
Mn85 O93 2.160 . S
Mn85 O103 2.221 . S
O86 Mn87 2.087 . S
O86 C98 1.256 . S
Mn87 O86 2.087 . S
Mn87 O94 2.089 . S
Mn87 O103 2.290 . S
Mn87 O104 2.251 1_554 S
O88 Mn85 2.160 . S
O88 C99 1.239 . S
O89 Mn85 2.221 . S
O89 Mn90 2.290 . S
O89 C100 1.278 . S
Mn90 O89 2.290 . S
Mn90 O92 2.089 . S
Mn90 O95 2.251 . S
Mn90 O96 2.087 . S
O91 Mn85 2.163 . S
O91 C101 1.244 . S
O92 Mn90 2.089 . S
O92 C99 1.256 . S
O93 Mn85 2.160 . S
O93 C102 1.239 . S
O94 Mn87 2.089 . S
O94 C102 1.256 . S
O95 Mn90 2.251 . S
O95 C100 1.241 . S
O96 Mn90 2.087 . S
O96 C101 1.256 . S
C97 O103 1.278 1_556 S
C97 O104 1.241 . S
C98 O84 1.244 . S
C98 O86 1.256 . S
C99 O88 1.239 . S
C99 O92 1.256 . S
C100 O89 1.278 . S
C100 O95 1.241 . S
C101 O91 1.244 . S
C101 O96 1.256 . S
C102 O93 1.239 . S
C102 O94 1.256 . S
O103 Mn85 2.221 . S
O103 Mn87 2.290 . S
O103 C97 1.278 1_554 S
O104 Mn87 2.251 1_556 S
O104 C97 1.241 . S
O105 Mn106 2.163 . S
O105 C119 1.244 . S
Mn106 O105 2.163 . S
Mn106 O109 2.160 . S
Mn106 O110 2.221 . S
Mn106 O112 2.163 . S
Mn106 O114 2.160 . S
Mn106 O124 2.221 . S
O107 Mn108 2.087 . S
O107 C119 1.256 . S
Mn108 O107 2.087 . S
Mn108 O115 2.089 . S
Mn108 O124 2.290 . S
Mn108 O125 2.251 1_554 S
O109 Mn106 2.160 . S
O109 C120 1.239 . S
O110 Mn106 2.221 . S
O110 Mn111 2.290 . S
O110 C121 1.278 . S
Mn111 O110 2.290 . S
Mn111 O113 2.089 . S
Mn111 O116 2.251 . S
Mn111 O117 2.087 . S
O112 Mn106 2.163 . S
O112 C122 1.244 . S
O113 Mn111 2.089 . S
O113 C120 1.256 . S
O114 Mn106 2.160 . S
O114 C123 1.239 . S
O115 Mn108 2.089 . S
O115 C123 1.256 . S
O116 Mn111 2.251 . S
O116 C121 1.241 . S
O117 Mn111 2.087 . S
O117 C122 1.256 . S
C118 O124 1.278 . S
C118 O125 1.241 1_554 S
C119 O105 1.244 . S
C119 O107 1.256 . S
C120 O109 1.239 . S
C120 O113 1.256 . S
C121 O110 1.278 . S
C121 O116 1.241 . S
C122 O112 1.244 . S
C122 O117 1.256 . S
C123 O114 1.239 . S
C123 O115 1.256 . S
O124 Mn106 2.221 . S
O124 Mn108 2.290 . S
O124 C118 1.278 . S
O125 Mn108 2.251 1_556 S
O125 C118 1.241 1_556 S
O126 Mn127 2.163 . S
O126 C140 1.244 . S
Mn127 O126 2.163 . S
Mn127 O130 2.160 . S
Mn127 O131 2.221 . S
Mn127 O133 2.163 . S
Mn127 O135 2.160 . S
Mn127 O145 2.221 . S
O128 Mn129 2.087 . S
O128 C140 1.256 . S
Mn129 O128 2.087 . S
Mn129 O136 2.089 1_556 S
Mn129 O145 2.290 . S
Mn129 O146 2.251 . S
O130 Mn127 2.160 . S
O130 C141 1.239 . S
O131 Mn127 2.221 . S
O131 Mn132 2.290 . S
O131 C142 1.278 . S
Mn132 O131 2.290 . S
Mn132 O134 2.089 . S
Mn132 O137 2.251 . S
Mn132 O138 2.087 . S
O133 Mn127 2.163 . S
O133 C143 1.244 . S
O134 Mn132 2.089 . S
O134 C141 1.256 . S
O135 Mn127 2.160 . S
O135 C144 1.239 1_556 S
O136 Mn129 2.089 1_554 S
O136 C144 1.256 . S
O137 Mn132 2.251 . S
O137 C142 1.241 . S
O138 Mn132 2.087 . S
O138 C143 1.256 . S
C139 O145 1.278 . S
C139 O146 1.241 . S
C140 O126 1.244 . S
C140 O128 1.256 . S
C141 O130 1.239 . S
C141 O134 1.256 . S
C142 O131 1.278 . S
C142 O137 1.241 . S
C143 O133 1.244 . S
C143 O138 1.256 . S
C144 O135 1.239 1_554 S
C144 O136 1.256 . S
O145 Mn127 2.221 . S
O145 Mn129 2.290 . S
O145 C139 1.278 . S
O146 Mn129 2.251 . S
O146 C139 1.241 . S
O147 Mn148 2.163 . S
O147 C161 1.244 . S
Mn148 O147 2.163 . S
Mn148 O151 2.160 . S
Mn148 O152 2.221 . S
Mn148 O154 2.163 . S
Mn148 O156 2.160 . S
Mn148 O166 2.221 . S
O149 Mn150 2.087 . S
O149 C161 1.256 . S
Mn150 O149 2.087 . S
Mn150 O157 2.089 . S
Mn150 O166 2.290 . S
Mn150 O167 2.251 . S
O151 Mn148 2.160 . S
O151 C162 1.239 . S
O152 Mn148 2.221 . S
O152 Mn153 2.290 . S
O152 C163 1.278 . S
Mn153 O152 2.290 . S
Mn153 O155 2.089 . S
Mn153 O158 2.251 . S
Mn153 O159 2.087 . S
O154 Mn148 2.163 . S
O154 C164 1.244 . S
O155 Mn153 2.089 . S
O155 C162 1.256 . S
O156 Mn148 2.160 . S
O156 C165 1.239 . S
O157 Mn150 2.089 . S
O157 C165 1.256 . S
O158 Mn153 2.251 . S
O158 C163 1.241 . S
O159 Mn153 2.087 . S
O159 C164 1.256 . S
C160 O166 1.278 . S
C160 O167 1.241 . S
C161 O147 1.244 . S
C161 O149 1.256 . S
C162 O151 1.239 . S
C162 O155 1.256 . S
C163 O152 1.278 . S
C163 O158 1.241 . S
C164 O154 1.244 . S
C164 O159 1.256 . S
C165 O156 1.239 . S
C165 O157 1.256 . S
O166 Mn148 2.221 . S
O166 Mn150 2.290 . S
O166 C160 1.278 . S
O167 Mn150 2.251 . S
O167 C160 1.241 . S
O168 Mn169 2.163 . S
O168 C182 1.244 . S
Mn169 O168 2.163 . S
Mn169 O172 2.160 . S
Mn169 O173 2.221 . S
Mn169 O175 2.163 . S
Mn169 O177 2.160 . S
Mn169 O187 2.221 . S
O170 Mn171 2.087 . S
O170 C182 1.256 . S
Mn171 O170 2.087 . S
Mn171 O178 2.089 . S
Mn171 O187 2.290 . S
Mn171 O188 2.251 . S
O172 Mn169 2.160 . S
O172 C183 1.239 . S
O173 Mn169 2.221 . S
O173 Mn174 2.290 . S
O173 C184 1.278 . S
Mn174 O173 2.290 . S
Mn174 O176 2.089 . S
Mn174 O179 2.251 . S
Mn174 O180 2.087 . S
O175 Mn169 2.163 . S
O175 C185 1.244 . S
O176 Mn174 2.089 . S
O176 C183 1.256 . S
O177 Mn169 2.160 . S
O177 C186 1.239 . S
O178 Mn171 2.089 . S
O178 C186 1.256 . S
O179 Mn174 2.251 . S
O179 C184 1.241 . S
O180 Mn174 2.087 . S
O180 C185 1.256 . S
C181 O187 1.278 . S
C181 O188 1.241 . S
C182 O168 1.244 . S
C182 O170 1.256 . S
C183 O172 1.239 . S
C183 O176 1.256 . S
C184 O173 1.278 . S
C184 O179 1.241 . S
C185 O175 1.244 . S
C185 O180 1.256 . S
C186 O177 1.239 . S
C186 O178 1.256 . S
O187 Mn169 2.221 . S
O187 Mn171 2.290 . S
O187 C181 1.278 . S
O188 Mn171 2.251 . S
O188 C181 1.241 . S
C189 C190 1.387 . S
C189 H193 0.950 . S
C189 C198 1.390 . S
C190 C189 1.387 . S
C190 C192 1.387 . S
H191 C198 0.950 . S
C192 C190 1.387 . S
C192 C194 1.390 . S
C192 H196 0.950 . S
H193 C189 0.950 . S
C194 C192 1.390 . S
C194 C195 1.387 . S
C194 H197 0.950 . S
C195 C194 1.387 . S
C195 C198 1.387 . S
H196 C192 0.950 . S
H197 C194 0.950 . S
C198 C189 1.390 . S
C198 H191 0.950 . S
C198 C195 1.387 . S
C199 C200 1.387 . S
C199 H203 0.950 . S
C199 C208 1.390 . S
C200 C199 1.387 . S
C200 C202 1.387 . S
H201 C208 0.950 . S
C202 C200 1.387 . S
C202 C204 1.390 . S
C202 H206 0.950 . S
H203 C199 0.950 . S
C204 C202 1.390 . S
C204 C205 1.387 . S
C204 H207 0.950 . S
C205 C204 1.387 . S
C205 C208 1.387 . S
H206 C202 0.950 . S
H207 C204 0.950 . S
C208 C199 1.390 . S
C208 H201 0.950 . S
C208 C205 1.387 . S
C209 C210 1.387 1_545 S
C209 H213 0.950 . S
C209 C218 1.390 . S
C210 C209 1.387 1_565 S
C210 C212 1.387 . S
H211 C218 0.950 . S
C212 C210 1.387 . S
C212 C214 1.390 . S
C212 H216 0.950 . S
H213 C209 0.950 . S
C214 C212 1.390 . S
C214 C215 1.387 1_565 S
C214 H217 0.950 . S
C215 C214 1.387 1_545 S
C215 C218 1.387 . S
H216 C212 0.950 . S
H217 C214 0.950 . S
C218 C209 1.390 . S
C218 H211 0.950 . S
C218 C215 1.387 . S
C219 C220 1.387 . S
C219 H223 0.950 . S
C219 C228 1.390 . S
C220 C219 1.387 . S
C220 C222 1.387 . S
H221 C228 0.950 . S
C222 C220 1.387 . S
C222 C224 1.390 . S
C222 H226 0.950 . S
H223 C219 0.950 . S
C224 C222 1.390 . S
C224 C225 1.387 . S
C224 H227 0.950 . S
C225 C224 1.387 . S
C225 C228 1.387 . S
H226 C222 0.950 . S
H227 C224 0.950 . S
C228 C219 1.390 . S
C228 H221 0.950 . S
C228 C225 1.387 . S
C229 C230 1.387 . S
C229 H233 0.950 . S
C229 C238 1.390 . S
C230 C229 1.387 . S
C230 C232 1.387 . S
H231 C238 0.950 . S
C232 C230 1.387 . S
C232 C234 1.390 . S
C232 H236 0.950 . S
H233 C229 0.950 . S
C234 C232 1.390 . S
C234 C235 1.387 . S
C234 H237 0.950 . S
C235 C234 1.387 . S
C235 C238 1.387 . S
H236 C232 0.950 . S
H237 C234 0.950 . S
C238 C229 1.390 . S
C238 H231 0.950 . S
C238 C235 1.387 . S
C239 C240 1.387 . S
C239 H243 0.950 . S
C239 C248 1.390 . S
C240 C239 1.387 . S
C240 C242 1.387 . S
H241 C248 0.950 . S
C242 C240 1.387 . S
C242 C244 1.390 . S
C242 H246 0.950 . S
H243 C239 0.950 . S
C244 C242 1.390 . S
C244 C245 1.387 . S
C244 H247 0.950 . S
C245 C244 1.387 . S
C245 C248 1.387 . S
H246 C242 0.950 . S
H247 C244 0.950 . S
C248 C239 1.390 . S
C248 H241 0.950 . S
C248 C245 1.387 . S
C249 C250 1.387 . S
C249 H253 0.950 . S
C249 C258 1.390 . S
C250 C249 1.387 . S
C250 C252 1.387 . S
H251 C258 0.950 . S
C252 C250 1.387 . S
C252 C254 1.390 . S
C252 H256 0.950 . S
H253 C249 0.950 . S
C254 C252 1.390 . S
C254 C255 1.387 . S
C254 H257 0.950 . S
C255 C254 1.387 . S
C255 C258 1.387 . S
H256 C252 0.950 . S
H257 C254 0.950 . S
C258 C249 1.390 . S
C258 H251 0.950 . S
C258 C255 1.387 . S
C259 C260 1.387 . S
C259 H263 0.950 . S
C259 C268 1.390 . S
C260 C259 1.387 . S
C260 C262 1.387 . S
H261 C268 0.950 . S
C262 C260 1.387 . S
C262 C264 1.390 . S
C262 H266 0.950 . S
H263 C259 0.950 . S
C264 C262 1.390 . S
C264 C265 1.387 . S
C264 H267 0.950 . S
C265 C264 1.387 . S
C265 C268 1.387 . S
H266 C262 0.950 . S
H267 C264 0.950 . S
C268 C259 1.390 . S
C268 H261 0.950 . S
C268 C265 1.387 . S
C269 C270 1.387 . S
C269 H273 0.950 . S
C269 C278 1.390 . S
C270 C269 1.387 . S
C270 C272 1.387 . S
H271 C278 0.950 . S
C272 C270 1.387 . S
C272 C274 1.390 . S
C272 H276 0.950 . S
H273 C269 0.950 . S
C274 C272 1.390 . S
C274 C275 1.387 . S
C274 H277 0.950 1_554 S
C275 C274 1.387 . S
C275 C278 1.387 . S
H276 C272 0.950 . S
H277 C274 0.950 1_556 S
C278 C269 1.390 . S
C278 H271 0.950 . S
C278 C275 1.387 . S
C279 C280 1.387 . S
C279 H283 0.950 . S
C279 C288 1.390 . S
C280 C279 1.387 . S
C280 C282 1.387 . S
H281 C288 0.950 . S
C282 C280 1.387 . S
C282 C284 1.390 . S
C282 H286 0.950 . S
H283 C279 0.950 . S
C284 C282 1.390 . S
C284 C285 1.387 . S
C284 H287 0.950 1_554 S
C285 C284 1.387 . S
C285 C288 1.387 . S
H286 C282 0.950 . S
H287 C284 0.950 1_556 S
C288 C279 1.390 . S
C288 H281 0.950 . S
C288 C285 1.387 . S
C289 C290 1.387 1_556 S
C289 H293 0.950 . S
C289 C298 1.390 1_556 S
C290 C289 1.387 1_554 S
C290 C292 1.387 . S
H291 C298 0.950 1_556 S
C292 C290 1.387 . S
C292 C294 1.390 . S
C292 H296 0.950 . S
H293 C289 0.950 . S
C294 C292 1.390 . S
C294 C295 1.387 . S
C294 H297 0.950 . S
C295 C294 1.387 . S
C295 C298 1.387 . S
H296 C292 0.950 . S
H297 C294 0.950 . S
C298 C289 1.390 1_554 S
C298 H291 0.950 1_554 S
C298 C295 1.387 . S
C299 C300 1.387 . S
C299 H303 0.950 . S
C299 C308 1.390 . S
C300 C299 1.387 . S
C300 C302 1.387 . S
H301 C308 0.950 . S
C302 C300 1.387 . S
C302 C304 1.390 . S
C302 H306 0.950 . S
H303 C299 0.950 . S
C304 C302 1.390 . S
C304 C305 1.387 . S
C304 H307 0.950 . S
C305 C304 1.387 . S
C305 C308 1.387 . S
H306 C302 0.950 . S
H307 C304 0.950 . S
C308 C299 1.390 . S
C308 H301 0.950 . S
C308 C305 1.387 . S
C309 C310 1.387 . S
C309 H313 0.950 . S
C309 C318 1.390 . S
C310 C309 1.387 . S
C310 C312 1.387 1_554 S
H311 C318 0.950 . S
C312 C310 1.387 1_556 S
C312 C314 1.390 . S
C312 H316 0.950 . S
H313 C309 0.950 . S
C314 C312 1.390 . S
C314 C315 1.387 . S
C314 H317 0.950 . S
C315 C314 1.387 . S
C315 C318 1.387 1_556 S
H316 C312 0.950 . S
H317 C314 0.950 . S
C318 C309 1.390 . S
C318 H311 0.950 . S
C318 C315 1.387 1_554 S
C319 C320 1.387 . S
C319 H323 0.950 . S
C319 C328 1.390 . S
C320 C319 1.387 . S
C320 C322 1.387 . S
H321 C328 0.950 1_554 S
C322 C320 1.387 . S
C322 C324 1.390 . S
C322 H326 0.950 . S
H323 C319 0.950 . S
C324 C322 1.390 . S
C324 C325 1.387 . S
C324 H327 0.950 . S
C325 C324 1.387 . S
C325 C328 1.387 . S
H326 C322 0.950 . S
H327 C324 0.950 . S
C328 C319 1.390 . S
C328 H321 0.950 1_556 S
C328 C325 1.387 . S
C329 C330 1.387 . S
C329 H333 0.950 . S
C329 C338 1.390 . S
C330 C329 1.387 . S
C330 C332 1.387 . S
H331 C338 0.950 . S
C332 C330 1.387 . S
C332 C334 1.390 . S
C332 H336 0.950 . S
H333 C329 0.950 . S
C334 C332 1.390 . S
C334 C335 1.387 . S
C334 H337 0.950 1_556 S
C335 C334 1.387 . S
C335 C338 1.387 . S
H336 C332 0.950 . S
H337 C334 0.950 1_554 S
C338 C329 1.390 . S
C338 H331 0.950 . S
C338 C335 1.387 . S
C339 C340 1.387 . S
C339 H343 0.950 . S
C339 C348 1.390 . S
C340 C339 1.387 . S
C340 C342 1.387 . S
H341 C348 0.950 . S
C342 C340 1.387 . S
C342 C344 1.390 . S
C342 H346 0.950 . S
H343 C339 0.950 . S
C344 C342 1.390 . S
C344 C345 1.387 . S
C344 H347 0.950 1_556 S
C345 C344 1.387 . S
C345 C348 1.387 . S
H346 C342 0.950 . S
H347 C344 0.950 1_554 S
C348 C339 1.390 . S
C348 H341 0.950 . S
C348 C345 1.387 . S
C349 C350 1.387 1_556 S
C349 H353 0.950 . S
C349 C358 1.390 . S
C350 C349 1.387 1_554 S
C350 C352 1.387 1_554 S
H351 C358 0.950 . S
C352 C350 1.387 1_556 S
C352 C354 1.390 . S
C352 H356 0.950 1_556 S
H353 C349 0.950 . S
C354 C352 1.390 . S
C354 C355 1.387 . S
C354 H357 0.950 . S
C355 C354 1.387 . S
C355 C358 1.387 . S
H356 C352 0.950 1_554 S
H357 C354 0.950 . S
C358 C349 1.390 . S
C358 H351 0.950 . S
C358 C355 1.387 . S
C359 C360 1.387 . S
C359 H363 0.950 . S
C359 C368 1.390 . S
C360 C359 1.387 . S
C360 C362 1.387 . S
H361 C368 0.950 1_554 S
C362 C360 1.387 . S
C362 C364 1.390 . S
C362 H366 0.950 . S
H363 C359 0.950 . S
C364 C362 1.390 . S
C364 C365 1.387 . S
C364 H367 0.950 . S
C365 C364 1.387 . S
C365 C368 1.387 . S
H366 C362 0.950 . S
H367 C364 0.950 . S
C368 C359 1.390 . S
C368 H361 0.950 1_556 S
C368 C365 1.387 . S
C369 C370 1.387 . S
C369 H373 0.950 . S
C369 C378 1.390 . S
C370 C369 1.387 . S
C370 C372 1.387 . S
H371 C378 0.950 . S
C372 C370 1.387 . S
C372 C374 1.390 . S
C372 H376 0.950 1_554 S
H373 C369 0.950 . S
C374 C372 1.390 . S
C374 C375 1.387 . S
C374 H377 0.950 . S
C375 C374 1.387 . S
C375 C378 1.387 . S
H376 C372 0.950 1_556 S
H377 C374 0.950 . S
C378 C369 1.390 . S
C378 H371 0.950 . S
C378 C375 1.387 . S
C379 C380 1.387 . S
C379 H383 0.950 . S
C379 C388 1.390 . S
C380 C379 1.387 . S
C380 C382 1.387 . S
H381 C388 0.950 . S
C382 C380 1.387 . S
C382 C384 1.390 . S
C382 H386 0.950 . S
H383 C379 0.950 . S
C384 C382 1.390 . S
C384 C385 1.387 . S
C384 H387 0.950 . S
C385 C384 1.387 . S
C385 C388 1.387 . S
H386 C382 0.950 . S
H387 C384 0.950 . S
C388 C379 1.390 . S
C388 H381 0.950 . S
C388 C385 1.387 . S
C389 C390 1.387 . S
C389 H393 0.950 . S
C389 C398 1.390 . S
C390 C389 1.387 . S
C390 C392 1.387 . S
H391 C398 0.950 . S
C392 C390 1.387 . S
C392 C394 1.390 . S
C392 H396 0.950 . S
H393 C389 0.950 . S
C394 C392 1.390 . S
C394 C395 1.387 . S
C394 H397 0.950 . S
C395 C394 1.387 . S
C395 C398 1.387 . S
H396 C392 0.950 . S
H397 C394 0.950 . S
C398 C389 1.390 . S
C398 H391 0.950 . S
C398 C395 1.387 . S
C399 C400 1.387 . S
C399 H403 0.950 . S
C399 C408 1.390 . S
C400 C399 1.387 . S
C400 C402 1.387 . S
H401 C408 0.950 . S
C402 C400 1.387 . S
C402 C404 1.390 . S
C402 H406 0.950 . S
H403 C399 0.950 . S
C404 C402 1.390 . S
C404 C405 1.387 . S
C404 H407 0.950 . S
C405 C404 1.387 . S
C405 C408 1.387 . S
H406 C402 0.950 . S
H407 C404 0.950 . S
C408 C399 1.390 . S
C408 H401 0.950 . S
C408 C405 1.387 . S
C409 C410 1.387 . S
C409 H413 0.950 . S
C409 C418 1.390 1_545 S
C410 C409 1.387 . S
C410 C412 1.387 . S
H411 C418 0.950 . S
C412 C410 1.387 . S
C412 C414 1.390 1_545 S
C412 H416 0.950 . S
H413 C409 0.950 . S
C414 C412 1.390 1_565 S
C414 C415 1.387 . S
C414 H417 0.950 . S
C415 C414 1.387 . S
C415 C418 1.387 . S
H416 C412 0.950 . S
H417 C414 0.950 . S
C418 C409 1.390 1_565 S
C418 H411 0.950 . S
C418 C415 1.387 . S
C419 C420 1.387 1_455 S
C419 H423 0.950 . S
C419 C428 1.390 . S
C420 C419 1.387 1_655 S
C420 C422 1.387 . S
H421 C428 0.950 . S
C422 C420 1.387 . S
C422 C424 1.390 1_655 S
C422 H426 0.950 . S
H423 C419 0.950 . S
C424 C422 1.390 1_455 S
C424 C425 1.387 . S
C424 H427 0.950 . S
C425 C424 1.387 . S
C425 C428 1.387 . S
H426 C422 0.950 . S
H427 C424 0.950 . S
C428 C419 1.390 . S
C428 H421 0.950 . S
C428 C425 1.387 . S
C429 C430 1.387 . S
C429 H433 0.950 . S
C429 C438 1.390 . S
C430 C429 1.387 . S
C430 C432 1.387 . S
H431 C438 0.950 . S
C432 C430 1.387 . S
C432 C434 1.390 . S
C432 H436 0.950 . S
H433 C429 0.950 . S
C434 C432 1.390 . S
C434 C435 1.387 . S
C434 H437 0.950 . S
C435 C434 1.387 . S
C435 C438 1.387 . S
H436 C432 0.950 . S
H437 C434 0.950 . S
C438 C429 1.390 . S
C438 H431 0.950 . S
C438 C435 1.387 . S
C439 C440 1.387 1_545 S
C439 H443 0.950 1_545 S
C439 C448 1.390 . S
C440 C439 1.387 1_565 S
C440 C442 1.387 . S
H441 C448 0.950 . S
C442 C440 1.387 . S
C442 C444 1.390 1_565 S
C442 H446 0.950 . S
H443 C439 0.950 1_565 S
C444 C442 1.390 1_545 S
C444 C445 1.387 . S
C444 H447 0.950 . S
C445 C444 1.387 . S
C445 C448 1.387 . S
H446 C442 0.950 . S
H447 C444 0.950 . S
C448 C439 1.390 . S
C448 H441 0.950 . S
C448 C445 1.387 . S
C449 C450 1.388 . S
C449 H453 0.950 . S
C449 C458 1.390 . S
C450 C449 1.388 . S
C450 C452 1.388 . S
H451 C458 0.950 . S
C452 C450 1.388 . S
C452 C454 1.390 . S
C452 H456 0.950 1_455 S
H453 C449 0.950 . S
C454 C452 1.390 . S
C454 C455 1.387 . S
C454 H457 0.950 . S
C455 C454 1.387 . S
C455 C458 1.387 . S
H456 C452 0.950 1_655 S
H457 C454 0.950 . S
C458 C449 1.390 . S
C458 H451 0.950 . S
C458 C455 1.387 . S
C190 C16 1.112 . S
C195 C13 1.118 . S
C200 C34 1.126 . S
C205 C37 1.121 . S
C210 C58 1.123 . S
C215 C55 1.128 . S
C220 C79 1.064 . S
C225 C76 1.069 . S
C230 C100 1.119 . S
C235 C97 1.125 . S
C240 C121 1.147 . S
C245 C118 1.154 1_556 S
C250 C143 1.078 . S
C255 C144 1.056 . S
C260 C165 1.097 . S
C265 C164 1.127 1_554 S
C270 C185 1.174 . S
C275 C186 1.143 1_554 S
C280 C122 1.486 . S
C285 C17 1.489 . S
C290 C36 1.402 . S
C295 C80 1.390 . S
C300 C59 1.459 . S
C305 C101 1.468 . S
C310 C57 1.180 . S
C315 C140 1.287 . S
C320 C160 1.201 . S
C325 C15 1.123 . S
C330 C182 1.423 . S
C335 C38 1.508 1_556 S
C340 C184 1.342 . S
C345 C18 1.453 1_556 S
C350 C35 1.139 . S
C355 C142 1.187 . S
C360 C162 1.265 . S
C365 C60 1.380 1_556 S
C370 C56 1.442 . S
C375 C77 1.445 . S
C380 C98 1.396 . S
C385 C14 1.403 . S
C390 C39 1.696 . S
C395 C119 1.564 . S
C400 C181 1.378 . S
C405 C78 1.195 . S
C410 C139 1.329 . S
C415 C99 1.208 . S
C420 C161 1.328 . S
C425 C120 1.253 . S
C430 C141 1.177 . S
C435 C123 1.301 . S
C440 C81 1.384 . S
C445 C163 1.275 . S
C450 C183 1.189 1_455 S
C455 C102 1.257 . S
