# Generated by pormake.
# Topology zft, (5)-cn, num edge types: 1
# Building blocks:
#     Node 0, Type 0, BuildingBlock: XOMCOT_clean_sbu_0, # of connection points: 5
#     Node 1, Type 0, BuildingBlock: XOMCOT_clean_sbu_0, # of connection points: 5
#     Node 2, Type 0, BuildingBlock: XOMCOT_clean_sbu_0, # of connection points: 5
#     Node 3, Type 0, BuildingBlock: XOMCOT_clean_sbu_0, # of connection points: 5
#     Node 4, Type 0, BuildingBlock: XOMCOT_clean_sbu_0, # of connection points: 5
#     Node 5, Type 0, BuildingBlock: XOMCOT_clean_sbu_0, # of connection points: 5
#     Node 6, Type 0, BuildingBlock: XOMCOT_clean_sbu_0, # of connection points: 5
#     Node 7, Type 0, BuildingBlock: XOMCOT_clean_sbu_0, # of connection points: 5
#     Edge 8, Type (0, 0), BuildingBlock: KIFKEQ_clean_linker_1, # of connection points: 2
#     Edge 9, Type (0, 0), BuildingBlock: KIFKEQ_clean_linker_1, # of connection points: 2
#     Edge 10, Type (0, 0), BuildingBlock: KIFKEQ_clean_linker_1, # of connection points: 2
#     Edge 11, Type (0, 0), BuildingBlock: KIFKEQ_clean_linker_1, # of connection points: 2
#     Edge 12, Type (0, 0), BuildingBlock: KIFKEQ_clean_linker_1, # of connection points: 2
#     Edge 13, Type (0, 0), BuildingBlock: KIFKEQ_clean_linker_1, # of connection points: 2
#     Edge 14, Type (0, 0), BuildingBlock: KIFKEQ_clean_linker_1, # of connection points: 2
#     Edge 15, Type (0, 0), BuildingBlock: KIFKEQ_clean_linker_1, # of connection points: 2
#     Edge 16, Type (0, 0), BuildingBlock: KIFKEQ_clean_linker_1, # of connection points: 2
#     Edge 17, Type (0, 0), BuildingBlock: KIFKEQ_clean_linker_1, # of connection points: 2
#     Edge 18, Type (0, 0), BuildingBlock: KIFKEQ_clean_linker_1, # of connection points: 2
#     Edge 19, Type (0, 0), BuildingBlock: KIFKEQ_clean_linker_1, # of connection points: 2
#     Edge 20, Type (0, 0), BuildingBlock: KIFKEQ_clean_linker_1, # of connection points: 2
#     Edge 21, Type (0, 0), BuildingBlock: KIFKEQ_clean_linker_1, # of connection points: 2
#     Edge 22, Type (0, 0), BuildingBlock: KIFKEQ_clean_linker_1, # of connection points: 2
#     Edge 23, Type (0, 0), BuildingBlock: KIFKEQ_clean_linker_1, # of connection points: 2
#     Edge 24, Type (0, 0), BuildingBlock: KIFKEQ_clean_linker_1, # of connection points: 2
#     Edge 25, Type (0, 0), BuildingBlock: KIFKEQ_clean_linker_1, # of connection points: 2
#     Edge 26, Type (0, 0), BuildingBlock: KIFKEQ_clean_linker_1, # of connection points: 2
#     Edge 27, Type (0, 0), BuildingBlock: KIFKEQ_clean_linker_1, # of connection points: 2
# Relax obj value: 0.078
# Max RMSD: 0.163
# Mean RMSD: 0.163
data_MOF--net-zft--node1-XOMCOT_clean_sbu_0--edge1-KIFKEQ_clean_linker_1
_symmetry_space_group_name_H-M    P1
_symmetry_Int_Tables_number       1
_symmetry_cell_setting            triclinic
loop_
_symmetry_equiv_pos_as_xyz
'x, y, z'
_cell_length_a     28.370712
_cell_length_b     28.306511
_cell_length_c     53.02881
_cell_angle_alpha  90.067045
_cell_angle_beta   89.739386
_cell_angle_gamma 89.872256
loop_
_atom_site_label
_atom_site_type_symbol
_atom_site_fract_x
_atom_site_fract_y
_atom_site_fract_z
_atom_type_partial_charge
Co0 Co 0.14337 0.28639 0.16295 0.0
C1 C 0.20555 0.36007 0.14065 0.0
C2 C 0.24411 0.2983 0.15141 0.0
C3 C 0.27582 0.33289 0.14455 0.0
N4 N 0.19985 0.31509 0.1487 0.0
N5 N 0.25136 0.37164 0.13776 0.0
H6 H 0.1776 0.38568 0.13928 0.0
H7 H 0.25287 0.26432 0.15946 0.0
C8 C 0.18505 0.20773 0.13187 0.0
O9 O 0.19188 0.23788 0.11339 0.0
N10 N 0.08777 0.25838 0.17763 0.0
C11 C 0.04363 0.27576 0.17605 0.0
C12 C 1.01308 0.24405 0.1869 0.0
C13 C 0.08378 0.21677 0.18986 0.0
N14 N 0.03835 0.20714 0.19554 0.0
C15 C 0.09457 0.34098 0.12589 0.0
C16 C 0.06017 0.26655 0.09784 0.0
C17 C 0.04815 0.31282 0.09082 0.0
C18 C 0.06547 0.35017 0.1054 0.0
C19 C 0.08918 0.25892 0.11874 0.0
N20 N 0.10788 0.29602 0.13186 0.0
H21 H 0.10388 0.37024 0.13779 0.0
H22 H 0.0948 0.22304 0.12484 0.0
H23 H 0.03421 0.30885 0.16722 0.0
H24 H 0.11316 0.19359 0.19395 0.0
O25 O 0.1285 0.34519 0.17969 0.0
O26 O 0.17307 0.2884 0.19573 0.0
O27 O 0.16574 0.2214 0.15245 0.0
C28 C 0.15449 0.33027 0.19817 0.0
H29 H 0.31385 0.33047 0.14559 0.0
H30 H 0.9752 0.24785 0.18849 0.0
H31 H 0.04684 0.23639 0.08756 0.0
H32 H 0.05512 0.38635 0.10172 0.0
Co33 Co 0.26067 0.64834 0.41269 0.0
C34 C 0.18965 0.70276 0.38507 0.0
C35 C 0.25248 0.7433 0.39109 0.0
C36 C 0.21805 0.7728 0.38171 0.0
N37 N 0.23444 0.69955 0.3933 0.0
N38 N 0.17858 0.74722 0.37808 0.0
H39 H 0.16444 0.67421 0.38642 0.0
H40 H 0.28692 0.75383 0.39767 0.0
C41 C 0.35882 0.64097 0.39163 0.0
O42 O 0.35205 0.59533 0.38883 0.0
N43 N 0.28661 0.59752 0.43337 0.0
C44 C 0.26182 0.56343 0.44538 0.0
C45 C 0.29128 0.53852 0.46095 0.0
C46 C 0.33065 0.59385 0.44294 0.0
N47 N 0.33452 0.55756 0.45925 0.0
C48 C 0.2227 0.56817 0.38678 0.0
C49 C 0.25917 0.58885 0.33968 0.0
C50 C 0.23114 0.5485 0.34265 0.0
C51 C 0.21254 0.53857 0.36652 0.0
C52 C 0.26796 0.61798 0.36048 0.0
N53 N 0.25145 0.60638 0.38395 0.0
H54 H 0.2058 0.56105 0.40451 0.0
H55 H 0.28757 0.65023 0.35763 0.0
H56 H 0.22425 0.55809 0.44421 0.0
H57 H 0.359 0.61827 0.43916 0.0
O58 O 0.2004 0.63963 0.4287 0.0
O59 O 0.25641 0.68738 0.44274 0.0
O60 O 0.32606 0.66699 0.40088 0.0
C61 C 0.21427 0.66978 0.44557 0.0
H62 H 0.22096 0.81062 0.37915 0.0
H63 H 0.28167 0.50875 0.47268 0.0
H64 H 0.27299 0.59853 0.32133 0.0
H65 H 0.18999 0.50824 0.36954 0.0
Co66 Co 0.89408 0.75519 0.6613 0.0
C67 C 0.82982 0.68107 0.6416 0.0
C68 C 0.79402 0.74701 0.64627 0.0
C69 C 0.76148 0.71327 0.63958 0.0
N70 N 0.83741 0.72729 0.64675 0.0
N71 N 0.78408 0.67169 0.63676 0.0
H72 H 0.85641 0.654 0.64309 0.0
H73 H 0.78571 0.78265 0.65213 0.0
C74 C 0.85483 0.83617 0.63212 0.0
O75 O 0.85174 0.80763 0.61262 0.0
N76 N 0.94957 0.78191 0.67655 0.0
C77 C 0.99344 0.76382 0.6748 0.0
C78 C 0.02424 0.79445 0.68619 0.0
C79 C 0.9539 0.82276 0.68946 0.0
N80 N 0.99935 0.83131 0.69535 0.0
C81 C 0.93576 0.70798 0.61836 0.0
C82 C 0.98225 0.78625 0.59955 0.0
C83 C 0.98804 0.7427 0.58744 0.0
C84 C 0.96422 0.7033 0.59697 0.0
C85 C 0.95265 0.78958 0.62059 0.0
N86 N 0.92898 0.7509 0.62954 0.0
H87 H 0.92138 0.67652 0.62654 0.0
H88 H 0.95019 0.82309 0.63028 0.0
H89 H 1.00247 0.73116 0.66531 0.0
H90 H 0.92482 0.84623 0.69384 0.0
O91 O 0.91054 0.69477 0.6757 0.0
O92 O 0.86507 0.74897 0.69402 0.0
O93 O 0.87089 0.82085 0.65305 0.0
C94 C 0.88461 0.70735 0.6949 0.0
H95 H 0.72371 0.71837 0.63859 0.0
H96 H 0.06203 0.79 0.68773 0.0
H97 H 1.00082 0.81731 0.59297 0.0
H98 H 0.96926 0.66867 0.58864 0.0
Co99 Co 0.78102 0.40028 0.91338 0.0
C100 C 0.85331 0.32748 0.90226 0.0
C101 C 0.79334 0.31904 0.87839 0.0
C102 C 0.82892 0.2893 0.86998 0.0
N103 N 0.80876 0.34323 0.89867 0.0
N104 N 0.86684 0.29533 0.88488 0.0
H105 H 0.87694 0.34132 0.9163 0.0
H106 H 0.76009 0.32522 0.86905 0.0
C107 C 0.6748 0.39603 0.90451 0.0
O108 O 0.67018 0.44019 0.91152 0.0
N109 N 0.7564 0.45808 0.92832 0.0
C110 C 0.77048 0.50215 0.9223 0.0
C111 C 0.74959 0.53374 0.93853 0.0
C112 C 0.72882 0.46345 0.94906 0.0
N113 N 0.72309 0.50948 0.95519 0.0
C114 C 0.8367 0.43456 0.87265 0.0
C115 C 0.76611 0.48086 0.84682 0.0
C116 C 0.81266 0.48451 0.83794 0.0
C117 C 0.84799 0.45989 0.85092 0.0
C118 C 0.75619 0.45422 0.86834 0.0
N119 N 0.7914 0.43222 0.88132 0.0
H120 H 0.86477 0.41741 0.88285 0.0
H121 H 0.72053 0.45357 0.87501 0.0
H122 H 0.79515 0.51094 0.90745 0.0
H123 H 0.71276 0.43439 0.95917 0.0
O124 O 0.83999 0.41539 0.92926 0.0
O125 O 0.78355 0.37184 0.94657 0.0
O126 O 0.71571 0.37671 0.90288 0.0
C127 C 0.8253 0.39061 0.94839 0.0
H128 H 0.82813 0.26782 0.85309 0.0
H129 H 0.75314 0.5718 0.93791 0.0
H130 H 0.73756 0.49979 0.83786 0.0
H131 H 0.88432 0.46049 0.84461 0.0
Co132 Co 0.6432 0.25722 0.5779 0.0
C133 C 0.69293 0.18305 0.60531 0.0
C134 C 0.73607 0.24481 0.60163 0.0
C135 C 0.76315 0.20862 0.61132 0.0
N136 N 0.69217 0.22848 0.59782 0.0
N137 N 0.73604 0.1696 0.61329 0.0
H138 H 0.66306 0.15965 0.60342 0.0
H139 H 0.74847 0.27933 0.59598 0.0
C140 C 0.63795 0.35475 0.60001 0.0
O141 O 0.5922 0.34906 0.60256 0.0
N142 N 0.59441 0.28536 0.55671 0.0
C143 C 0.56121 0.26147 0.54364 0.0
C144 C 0.53745 0.2921 0.52821 0.0
C145 C 0.59133 0.33022 0.54796 0.0
N146 N 0.55628 0.33525 0.53107 0.0
C147 C 0.55978 0.22233 0.60247 0.0
C148 C 0.58125 0.25433 0.65028 0.0
C149 C 0.53918 0.22924 0.64669 0.0
C150 C 0.52898 0.2128 0.62238 0.0
C151 C 0.6113 0.26279 0.6298 0.0
N152 N 0.59952 0.24849 0.60601 0.0
H153 H 0.55234 0.20689 0.58443 0.0
H154 H 0.64433 0.28064 0.63313 0.0
H155 H 0.55557 0.22379 0.54415 0.0
H156 H 0.61526 0.3584 0.55275 0.0
O157 O 0.63373 0.19758 0.56123 0.0
O158 O 0.68378 0.25282 0.54847 0.0
O159 O 0.66321 0.32169 0.59046 0.0
C160 C 0.66539 0.21116 0.54502 0.0
H161 H 0.80072 0.20998 0.61468 0.0
H162 H 0.50849 0.28338 0.51583 0.0
H163 H 0.59104 0.26735 0.66873 0.0
H164 H 0.49814 0.19138 0.61881 0.0
Co165 Co 0.2802 0.14095 0.82857 0.0
C166 C 0.35385 0.20433 0.84973 0.0
C167 C 0.2938 0.24267 0.83652 0.0
C168 C 0.32817 0.2745 0.84325 0.0
N169 N 0.30954 0.19854 0.84096 0.0
N170 N 0.3662 0.25035 0.85151 0.0
H171 H 0.3776 0.1757 0.85351 0.0
H172 H 0.26055 0.25109 0.82768 0.0
C173 C 0.2033 0.18723 0.85903 0.0
O174 O 0.23471 0.19722 0.87637 0.0
N175 N 0.25168 0.08419 0.81569 0.0
C176 C 0.26809 0.03986 0.81872 0.0
C177 C 0.23655 1.00889 0.8082 0.0
C178 C 0.2109 0.07985 0.80292 0.0
N179 N 0.20077 0.03407 0.7983 0.0
C180 C 0.33571 0.09373 0.86594 0.0
C181 C 0.2623 0.06505 0.89659 0.0
C182 C 0.30846 0.05212 0.90306 0.0
C183 C 0.34531 0.0666 0.88722 0.0
C184 C 0.25423 0.09208 0.87495 0.0
N185 N 0.29091 0.10803 0.86046 0.0
H186 H 0.36438 0.10085 0.85316 0.0
H187 H 0.21823 0.09818 0.86943 0.0
H188 H 0.30058 0.03063 0.8281 0.0
H189 H 0.18881 0.10935 0.7975 0.0
O190 O 0.33829 0.12486 0.81138 0.0
O191 O 0.28076 0.16799 0.7951 0.0
O192 O 0.21561 0.16431 0.83928 0.0
C193 C 0.32255 0.14951 0.79253 0.0
H194 H 0.32593 0.31237 0.84089 0.0
H195 H 0.23991 0.9708 0.8075 0.0
H196 H 0.23248 0.05381 0.90787 0.0
H197 H 0.38126 0.05541 0.89058 0.0
Co198 Co 0.39598 0.78782 0.0824 0.0
C199 C 0.3301 0.859 0.10388 0.0
C200 C 0.29376 0.79662 0.09229 0.0
C201 C 0.26079 0.8307 0.09862 0.0
N202 N 0.33746 0.81415 0.09593 0.0
N203 N 0.28398 0.86975 0.10601 0.0
H204 H 0.35709 0.88542 0.10537 0.0
H205 H 0.28629 0.76262 0.0839 0.0
C206 C 0.35508 0.70755 0.11159 0.0
O207 O 0.34797 0.7374 0.13024 0.0
N208 N 0.45404 0.7631 0.06846 0.0
C209 C 0.49533 0.78647 0.06892 0.0
C210 C 0.5303 0.75704 0.06028 0.0
C211 C 0.46424 0.71969 0.05922 0.0
N212 N 0.51088 0.71513 0.05428 0.0
C213 C 0.43848 0.83965 0.12312 0.0
C214 C 0.4789 0.7627 0.14667 0.0
C215 C 0.48646 0.80788 0.15651 0.0
C216 C 0.46583 0.84665 0.14457 0.0
C217 C 0.45028 0.7572 0.1255 0.0
N218 N 0.42889 0.79528 0.11444 0.0
H219 H 0.42808 0.8703 0.11263 0.0
H220 H 0.44735 0.7224 0.11733 0.0
H221 H 0.4999 0.82209 0.07588 0.0
H222 H 0.43868 0.69167 0.05704 0.0
O223 O 0.40975 0.84848 0.06747 0.0
O224 O 0.36906 0.79133 0.04906 0.0
O225 O 0.37458 0.72165 0.09116 0.0
C226 C 0.38588 0.83404 0.04805 0.0
H227 H 0.22292 0.82776 0.0968 0.0
H228 H 0.56735 0.76566 0.05866 0.0
H229 H 0.49576 0.73207 0.15493 0.0
H230 H 0.47303 0.88231 0.15091 0.0
Co231 Co 0.76162 0.89203 0.33011 0.0
C232 C 0.68738 0.82792 0.3498 0.0
C233 C 0.75386 0.79257 0.34746 0.0
C234 C 0.71998 0.76013 0.35432 0.0
N235 N 0.73376 0.83568 0.34537 0.0
N236 N 0.67806 0.78247 0.35566 0.0
H237 H 0.66027 0.85416 0.34716 0.0
H238 H 0.78993 0.78415 0.34262 0.0
C239 C 0.84332 0.85532 0.35981 0.0
O240 O 0.81581 0.8539 0.3798 0.0
N241 N 0.78815 0.94733 0.31425 0.0
C242 C 0.76935 0.99105 0.31536 0.0
C243 C 0.79983 0.02209 0.30395 0.0
C244 C 0.82937 0.952 0.30168 0.0
N245 N 0.83736 0.99753 0.2954 0.0
C246 C 0.71351 0.93395 0.37265 0.0
C247 C 0.79035 0.98261 0.39119 0.0
C248 C 0.74675 0.9873 0.40337 0.0
C249 C 0.70807 0.96248 0.39392 0.0
C250 C 0.79447 0.95288 0.37023 0.0
N251 N 0.75652 0.92805 0.36146 0.0
H252 H 0.68252 0.91861 0.36461 0.0
H253 H 0.82803 0.95094 0.36056 0.0
H254 H 0.73631 0.99987 0.3245 0.0
H255 H 0.85353 0.92317 0.29787 0.0
O256 O 0.70148 0.90768 0.31536 0.0
O257 O 0.75603 0.86168 0.29775 0.0
O258 O 0.82715 0.86937 0.33865 0.0
C259 C 0.7144 0.88095 0.29655 0.0
H260 H 0.72537 0.7225 0.3565 0.0
H261 H 0.79492 0.05987 0.30205 0.0
H262 H 0.82088 1.00196 0.3977 0.0
H263 H 0.67339 0.96664 0.40228 0.0
H264 H 0.10878 0.41102 0.21184 0.0
H265 H 0.22337 0.31916 0.23358 0.0
H266 H 0.12769 0.46423 0.24659 0.0
H267 H 0.24244 0.37273 0.26834 0.0
H268 H 0.29187 0.51155 0.30761 0.0
H269 H 0.27309 0.45766 0.27285 0.0
H270 H 0.12616 0.46168 0.29436 0.0
H271 H 0.14487 0.51544 0.32894 0.0
C272 C 0.13786 0.40209 0.22413 0.0
C273 C 0.16451 0.36086 0.22006 0.0
C274 C 0.1486 0.4325 0.24404 0.0
C275 C 0.1866 0.42265 0.26009 0.0
C276 C 0.21322 0.38136 0.25609 0.0
C277 C 0.20206 0.35055 0.23635 0.0
C278 C 0.25558 0.50109 0.30474 0.0
C279 C 0.21984 0.51752 0.32096 0.0
C280 C 0.2449 0.47 0.28505 0.0
C281 C 0.1982 0.45541 0.281 0.0
C282 C 0.16242 0.4725 0.29698 0.0
C283 C 0.17316 0.50302 0.31683 0.0
H284 H 0.96954 0.70333 0.54183 0.0
H285 H 0.08011 0.76974 0.58462 0.0
H286 H 0.0244 0.68953 0.50712 0.0
H287 H 0.13605 0.75396 0.55045 0.0
H288 H 0.21718 0.74895 0.47539 0.0
H289 H 0.16162 0.7709 0.5089 0.0
H290 H 0.08717 0.63942 0.49755 0.0
H291 H 0.14092 0.61908 0.46357 0.0
C292 C 1.00575 0.71484 0.54375 0.0
C293 C 0.02074 0.7374 0.56583 0.0
C294 C 0.03737 0.70665 0.52398 0.0
C295 C 0.08502 0.71992 0.52606 0.0
C296 C 0.09963 0.74365 0.54801 0.0
C297 C 0.06769 0.75257 0.56763 0.0
C298 C 0.18887 0.72492 0.48019 0.0
C299 C 0.18307 0.68255 0.46681 0.0
C300 C 0.15711 0.73734 0.49942 0.0
C301 C 0.1194 0.70723 0.50581 0.0
C302 C 0.11475 0.66425 0.49273 0.0
C303 C 0.14588 0.65231 0.47335 0.0
H304 H 0.89304 0.53683 0.83032 0.0
H305 H 0.75924 0.50305 0.79581 0.0
H306 H 0.91157 0.58882 0.7951 0.0
H307 H 0.77712 0.55756 0.76148 0.0
H308 H 0.81032 0.70882 0.72746 0.0
H309 H 0.79326 0.6528 0.76142 0.0
H310 H 0.92145 0.5769 0.74408 0.0
H311 H 0.93806 0.63221 0.70961 0.0
C312 C 0.86773 0.53988 0.8152 0.0
C313 C 0.82455 0.51538 0.81604 0.0
C314 C 0.87833 0.57003 0.79514 0.0
C315 C 0.84566 0.57715 0.77577 0.0
C316 C 0.80265 0.55284 0.77641 0.0
C317 C 0.79239 0.52189 0.79618 0.0
C318 C 0.83492 0.68027 0.73097 0.0
C319 C 0.87556 0.67482 0.71601 0.0
C320 C 0.82499 0.64815 0.75023 0.0
C321 C 0.85604 0.61069 0.7552 0.0
C322 C 0.89709 0.60565 0.74055 0.0
C323 C 0.9065 0.63716 0.72089 0.0
H324 H 0.91969 0.40506 0.95045 0.0
H325 H 0.80256 0.35189 0.99418 0.0
H326 H 0.97344 0.38397 0.98405 0.0
H327 H 0.85626 0.33264 0.02862 0.0
H328 H 0.97071 0.26197 0.0755 0.0
H329 H 0.91717 0.28005 0.04105 0.0
H330 H 0.99716 0.40612 0.02438 0.0
H331 H 0.05244 0.3862 0.05739 0.0
C332 C 0.90531 0.38955 0.96749 0.0
C333 C 0.85687 0.38035 0.96976 0.0
C334 C 0.93617 0.37757 0.98685 0.0
C335 C 0.91933 0.35676 0.00921 0.0
C336 C 0.87065 0.34796 0.01155 0.0
C337 C 0.83977 0.35937 0.99194 0.0
C338 C 0.97743 0.29303 0.06416 0.0
C339 C 1.01603 0.32259 0.0693 0.0
C340 C 0.94619 0.30386 0.04464 0.0
C341 C 0.95257 0.3447 0.02991 0.0
C342 C 0.99132 0.37403 0.03502 0.0
C343 C 0.02278 0.36292 0.05427 0.0
H344 H 0.61684 0.13651 0.52669 0.0
H345 H 0.7453 0.21553 0.51588 0.0
H346 H 0.63939 0.08327 0.49285 0.0
H347 H 0.76935 0.16063 0.48252 0.0
H348 H 0.77184 0.08012 0.40655 0.0
H349 H 0.75399 0.13537 0.44075 0.0
H350 H 0.69123 1.02149 0.48354 0.0
H351 H 0.70719 0.96726 0.44883 0.0
C352 C 0.65021 0.14222 0.51716 0.0
C353 C 0.67939 0.18006 0.52394 0.0
C354 C 0.66341 0.11139 0.49786 0.0
C355 C 0.70659 0.11706 0.48509 0.0
C356 C 0.73567 0.15535 0.49175 0.0
C357 C 0.72203 0.18673 0.51091 0.0
C358 C 0.75464 0.06705 0.42343 0.0
C359 C 0.74054 1.01963 0.42507 0.0
C360 C 0.74451 0.0986 0.44307 0.0
C361 C 0.72059 0.08315 0.46486 0.0
C362 C 0.70846 0.03507 0.4668 0.0
C363 C 0.71789 1.00382 0.44703 0.0
H364 H 0.40653 0.10838 0.78011 0.0
H365 H 0.30621 0.21275 0.75472 0.0
H366 H 0.45802 0.12733 0.74466 0.0
H367 H 0.35839 0.23304 0.71976 0.0
H368 H 0.44257 0.22742 0.64654 0.0
H369 H 0.3897 0.20581 0.68081 0.0
H370 H 0.50918 0.18798 0.7302 0.0
H371 H 0.56223 0.2067 0.69549 0.0
C372 C 0.39547 0.13537 0.76692 0.0
C373 C 0.35229 0.159 0.77015 0.0
C374 C 0.4252 0.14658 0.74671 0.0
C375 C 0.41263 0.18201 0.72939 0.0
C376 C 0.36902 0.20515 0.7325 0.0
C377 C 0.33911 0.19364 0.75259 0.0
C378 C 0.45767 0.21838 0.66463 0.0
C379 C 0.5068 0.21862 0.66814 0.0
C380 C 0.42723 0.20656 0.68442 0.0
C381 C 0.44505 0.195 0.70833 0.0
C382 C 0.49415 0.19593 0.71196 0.0
C383 C 0.52463 0.20744 0.69211 0.0
H384 H 0.40142 0.9288 0.04536 0.0
H385 H 0.34668 0.81119 0.00269 0.0
H386 H 0.38088 0.98225 0.0112 0.0
H387 H 0.32767 0.86435 0.96801 0.0
H388 H 0.25655 0.9773 0.92088 0.0
H389 H 0.27464 0.92574 0.95625 0.0
H390 H 0.40273 1.00403 0.96974 0.0
H391 H 0.38312 0.05731 0.93547 0.0
C392 C 0.38555 0.91428 0.02851 0.0
C393 C 0.37578 0.86579 0.02666 0.0
C394 C 0.37389 0.94492 0.00886 0.0
C395 C 0.35257 0.92772 0.98678 0.0
C396 C 0.34328 0.87902 0.98488 0.0
C397 C 0.35456 0.84843 0.00466 0.0
C398 C 0.2881 0.98412 0.93169 0.0
C399 C 0.31834 1.02157 0.92526 0.0
C400 C 0.2989 0.95402 0.95175 0.0
C401 C 0.34035 0.96043 0.96581 0.0
C402 C 0.37026 0.99823 0.95956 0.0
C403 C 0.35929 0.0285 0.93964 0.0
H404 H 0.63989 0.93364 0.28063 0.0
H405 H 0.7156 0.80412 0.26577 0.0
H406 H 0.58521 0.91528 0.24675 0.0
H407 H 0.6594 0.7839 0.233 0.0
H408 H 0.57841 0.7818 0.1593 0.0
H409 H 0.63432 0.80029 0.19261 0.0
H410 H 0.52256 0.86798 0.2353 0.0
H411 H 0.46779 0.85189 0.20103 0.0
C412 C 0.64456 0.90106 0.27016 0.0
C413 C 0.68205 0.87045 0.27565 0.0
C414 C 0.61294 0.89018 0.25089 0.0
C415 C 0.61747 0.84786 0.23707 0.0
C416 C 0.65512 0.81723 0.24278 0.0
C417 C 0.68731 0.82867 0.26166 0.0
C418 C 0.566 0.80034 0.17595 0.0
C419 C 0.51901 0.81541 0.17776 0.0
C420 C 0.59791 0.81083 0.19514 0.0
C421 C 0.58323 0.83583 0.21679 0.0
C422 C 0.53562 0.84971 0.21874 0.0
C423 C 0.50402 0.8401 0.19928 0.0
H424 H 0.21044 0.91311 0.08305 0.0
H425 H 0.31578 0.93144 0.14057 0.0
H426 H 0.18387 0.99486 0.0896 0.0
H427 H 0.28914 1.01278 0.14732 0.0
H428 H 0.19459 0.14031 0.16835 0.0
H429 H 0.21513 0.05699 0.16287 0.0
H430 H 0.22267 0.07692 0.08229 0.0
H431 H 0.20272 0.16049 0.08771 0.0
C432 C 0.22731 0.93439 0.09736 0.0
C433 C 0.26509 0.91602 0.11135 0.0
C434 C 0.21247 0.98121 0.10095 0.0
C435 C 0.23452 1.01019 0.11894 0.0
C436 C 0.27129 0.99123 0.13345 0.0
C437 C 0.28664 0.94482 0.12953 0.0
C438 C 0.20059 0.12696 0.14945 0.0
C439 C 0.19725 0.15712 0.12847 0.0
C440 C 0.21243 0.07927 0.14634 0.0
C441 C 0.22038 0.06046 0.12215 0.0
C442 C 0.21632 0.09038 0.10113 0.0
C443 C 0.20527 0.13829 0.10427 0.0
H444 H 0.65893 0.70291 0.38227 0.0
H445 H 0.59283 0.81421 0.33928 0.0
H446 H 0.58168 0.66831 0.39055 0.0
H447 H 0.51592 0.77996 0.34778 0.0
H448 H 0.384 0.73431 0.39204 0.0
H449 H 0.4614 0.76801 0.38323 0.0
H450 H 0.51675 0.62831 0.36865 0.0
H451 H 0.43956 0.59449 0.37777 0.0
C452 C 0.62807 0.71985 0.37444 0.0
C453 C 0.63234 0.76159 0.36025 0.0
C454 C 0.58375 0.70002 0.37919 0.0
C455 C 0.54257 0.72149 0.36992 0.0
C456 C 0.54683 0.76299 0.35559 0.0
C457 C 0.5911 0.78272 0.35077 0.0
C458 C 0.41264 0.71076 0.38693 0.0
C459 C 0.40551 0.66168 0.38561 0.0
C460 C 0.45697 0.73011 0.38174 0.0
C461 C 0.49531 0.70086 0.37524 0.0
C462 C 0.48813 0.65179 0.37389 0.0
C463 C 0.44375 0.63245 0.37894 0.0
H464 H 0.69703 0.0884 0.59579 0.0
H465 H 0.81168 0.14195 0.64087 0.0
H466 H 0.72577 1.00856 0.60162 0.0
H467 H 0.84178 0.06153 0.64582 0.0
H468 H 0.85356 0.90437 0.66885 0.0
H469 H 0.82436 0.9853 0.66548 0.0
H470 H 0.79135 0.96129 0.58706 0.0
H471 H 0.81949 0.88034 0.59053 0.0
C472 C 0.72811 0.08327 0.6072 0.0
C473 C 0.7519 0.12188 0.61795 0.0
C474 C 0.74505 0.03733 0.61021 0.0
C475 C 0.78636 0.02862 0.62396 0.0
C476 C 0.80971 0.06699 0.6352 0.0
C477 C 0.7927 0.11312 0.63219 0.0
C478 C 0.84008 0.91639 0.65089 0.0
C479 C 0.83859 0.88576 0.62999 0.0
C480 C 0.82358 0.96287 0.64893 0.0
C481 C 0.80522 0.97971 0.62605 0.0
C482 C 0.80444 0.94922 0.60509 0.0
C483 C 0.82087 0.90283 0.60704 0.0
H484 H 0.38662 0.34163 0.8634 0.0
H485 H 0.45025 0.20314 0.85647 0.0
H486 H 0.46209 0.37407 0.87525 0.0
H487 H 0.52511 0.23533 0.86997 0.0
H488 H 0.6646 0.32058 0.87196 0.0
H489 H 0.59048 0.28404 0.85856 0.0
H490 H 0.51361 0.37574 0.90949 0.0
H491 H 0.58672 0.41301 0.92185 0.0
C492 C 0.41641 0.31786 0.8644 0.0
C493 C 0.41151 0.26949 0.85891 0.0
C494 C 0.45991 0.3365 0.87159 0.0
C495 C 0.4999 0.30732 0.8739 0.0
C496 C 0.4953 0.25903 0.86825 0.0
C497 C 0.45181 0.2404 0.86079 0.0
C498 C 0.63177 0.33257 0.8803 0.0
C499 C 0.63142 0.37005 0.89769 0.0
C500 C 0.58927 0.31163 0.8727 0.0
C501 C 0.54573 0.32742 0.8826 0.0
C502 C 0.54604 0.36356 0.9008 0.0
C503 C 0.58815 0.38476 0.90806 0.0
H504 H 0.73144 0.3786 0.59841 0.0
H505 H 0.59359 0.43545 0.61587 0.0
H506 H 0.76661 0.45529 0.60742 0.0
H507 H 0.6289 0.51186 0.62525 0.0
H508 H 0.81715 0.58546 0.6511 0.0
H509 H 0.78196 0.50883 0.64263 0.0
H510 H 0.66764 0.57709 0.60328 0.0
H511 H 0.70305 0.65395 0.61163 0.0
C512 C 0.70864 0.40735 0.60431 0.0
C513 C 0.65966 0.40083 0.60639 0.0
C514 C 0.72886 0.45128 0.6096 0.0
C515 C 0.70058 0.48978 0.61702 0.0
C516 C 0.65164 0.48314 0.61926 0.0
C517 C 0.63143 0.43918 0.61406 0.0
C518 C 0.78484 0.58429 0.64038 0.0
C519 C 0.76311 0.62609 0.63193 0.0
C520 C 0.76458 0.54022 0.63557 0.0
C521 C 0.722 0.53675 0.62225 0.0
C522 C 0.70013 0.57851 0.6139 0.0
C523 C 0.72043 0.6226 0.61868 0.0
H524 H 0.16385 0.2315 0.89988 0.0
H525 H 0.12878 0.17335 0.82699 0.0
H526 H 0.08201 0.25472 0.90613 0.0
H527 H 0.04684 0.19771 0.83301 0.0
H528 H 0.89392 0.21219 0.86337 0.0
H529 H 0.97481 0.18356 0.85711 0.0
H530 H 0.02807 0.31227 0.89015 0.0
H531 H 0.94823 0.34038 0.89638 0.0
C532 C 0.13874 0.22377 0.88512 0.0
C533 C 0.1531 0.20078 0.86287 0.0
C534 C 0.09172 0.23733 0.88866 0.0
C535 C 0.0577 0.22846 0.87 0.0
C536 C 0.07189 0.20475 0.84789 0.0
C537 C 0.11901 0.19108 0.84437 0.0
C538 C 0.92301 0.23425 0.86924 0.0
C539 C 0.91437 0.27819 0.88079 0.0
C540 C 0.96937 0.21795 0.86562 0.0
C541 C 1.00812 0.24534 0.87341 0.0
C542 C 0.99927 0.28958 0.88453 0.0
C543 C 0.95321 0.30573 0.88816 0.0
H544 H 0.33895 0.65995 0.15553 0.0
H545 H 0.34179 0.64124 0.07467 0.0
H546 H 0.3167 0.57717 0.16076 0.0
H547 H 0.3187 0.55847 0.07999 0.0
H548 H 0.21608 0.43487 0.10478 0.0
H549 H 0.2436 0.51577 0.09747 0.0
H550 H 0.35445 0.49478 0.15181 0.0
H551 H 0.32717 0.41378 0.15889 0.0
C552 C 0.33476 0.6382 0.13887 0.0
C553 C 0.34204 0.65719 0.11468 0.0
C554 C 0.32231 0.59074 0.14189 0.0
C555 C 0.31603 0.56142 0.12079 0.0
C556 C 0.32313 0.58037 0.09658 0.0
C557 C 0.33649 0.62765 0.09356 0.0
C558 C 0.24652 0.44754 0.11499 0.0
C559 C 0.26955 0.41807 0.13235 0.0
C560 C 0.2624 0.49364 0.11072 0.0
C561 C 0.3011 0.51153 0.12411 0.0
C562 C 0.32441 0.48193 0.14132 0.0
C563 C 0.30907 0.43552 0.14522 0.0
H564 H 0.90257 0.829 0.3215 0.0
H565 H 0.89661 0.84758 0.40234 0.0
H566 H 0.98485 0.80357 0.32472 0.0
H567 H 0.97905 0.82289 0.40541 0.0
H568 H 0.14104 0.8295 0.39461 0.0
H569 H 0.05973 0.85654 0.38942 0.0
H570 H 0.02871 0.73163 0.34584 0.0
H571 H 0.11021 0.70433 0.35129 0.0
C572 C 0.91886 0.82782 0.33993 0.0
C573 C 0.89313 0.84022 0.36169 0.0
C574 C 0.96582 0.81309 0.34174 0.0
C575 C 0.98821 0.81141 0.36529 0.0
C576 C 0.96266 0.82422 0.38701 0.0
C577 C 0.91546 0.83809 0.38526 0.0
C578 C 0.11706 0.8082 0.38361 0.0
C579 C 0.1319 0.76493 0.37323 0.0
C580 C 0.07048 0.82343 0.38086 0.0
C581 C 0.03802 0.79608 0.3673 0.0
C582 C 0.05314 0.75346 0.35629 0.0
C583 C 0.09956 0.73779 0.35945 0.0
H584 H 0.88728 0.07316 0.30974 0.0
H585 H 0.87616 0.96716 0.25173 0.0
H586 H 0.9467 0.11501 0.28478 0.0
H587 H 0.93505 1.00969 0.22621 0.0
H588 H 0.96261 0.1567 0.18186 0.0
H589 H 0.92324 0.09523 0.20653 0.0
H590 H 0.0311 0.10601 0.26339 0.0
H591 H 0.0711 0.16702 0.23819 0.0
C592 C 0.89842 0.05848 0.2918 0.0
C593 C 0.87731 1.01724 0.2825 0.0
C594 C 0.93251 0.08215 0.27761 0.0
C595 C 0.94539 0.06554 0.25359 0.0
C596 C 0.92574 0.0231 0.24472 0.0
C597 C 0.89233 0.99877 0.25925 0.0
C598 C 0.97834 0.14507 0.19936 0.0
C599 C 1.01958 0.16653 0.20828 0.0
C600 C 0.9561 0.10975 0.21337 0.0
C601 C 0.97418 0.09593 0.23683 0.0
C602 C 1.01657 0.11603 0.24531 0.0
C603 C 0.03945 0.15069 0.23095 0.0
H604 H 0.54284 0.41925 0.55403 0.0
H605 H 0.5298 0.34682 0.48287 0.0
H606 H 0.4981 0.48638 0.53706 0.0
H607 H 0.48599 0.41385 0.46572 0.0
H608 H 0.42075 0.54862 0.43817 0.0
H609 H 0.48757 0.50444 0.4557 0.0
H610 H 0.40889 0.48233 0.52454 0.0
H611 H 0.34221 0.5257 0.50685 0.0
C612 C 0.53173 0.41851 0.53452 0.0
C613 C 0.53921 0.37797 0.51974 0.0
C614 C 0.50608 0.45666 0.52487 0.0
C615 C 0.48858 0.45515 0.50013 0.0
C616 C 0.49944 0.41613 0.48477 0.0
C617 C 0.52416 0.3777 0.49458 0.0
C618 C 0.41846 0.53538 0.45729 0.0
C619 C 0.3764 0.53999 0.47114 0.0
C620 C 0.45648 0.51007 0.46725 0.0
C621 C 0.45326 0.49 0.49143 0.0
C622 C 0.41247 0.49782 0.50596 0.0
C623 C 0.37423 0.52224 0.49581 0.0
H624 H 0.07621 0.88094 0.68243 0.0
H625 H 0.96619 0.87023 0.73842 0.0
H626 H 0.11604 0.94067 0.70795 0.0
H627 H 1.0066 0.92954 0.76445 0.0
H628 H 0.14922 0.95861 0.81163 0.0
H629 H 0.08996 0.91855 0.786 0.0
H630 H 0.10538 0.02528 0.72849 0.0
H631 H 0.16422 0.06591 0.75457 0.0
C632 C 0.06027 0.89213 0.70006 0.0
C633 C 1.01847 0.87104 0.70864 0.0
C634 C 0.08277 0.92645 0.71454 0.0
C635 C 0.06434 0.93962 0.73814 0.0
C636 C 0.0214 0.91997 0.74628 0.0
C637 C 0.9983 0.8863 0.73145 0.0
C638 C 0.13908 0.97393 0.79375 0.0
C639 C 0.16126 1.01501 0.78491 0.0
C640 C 0.10502 0.95131 0.7792 0.0
C641 C 0.0932 0.96887 0.7553 0.0
C642 C 0.1139 1.01115 0.74689 0.0
C643 C 0.14731 0.03439 0.76176 0.0
H644 H 0.74056 0.58695 0.98292 0.0
H645 H 0.63643 0.47912 0.96964 0.0
H646 H 0.68576 0.62878 0.01034 0.0
H647 H 0.58106 0.52075 -0.00226 0.0
H648 H 0.48468 0.65498 0.0171 0.0
H649 H 0.53545 0.59615 0.99632 0.0
H650 H 0.64519 0.62508 0.05038 0.0
H651 H 0.59496 0.68418 0.07048 0.0
C652 C 0.70604 0.57188 0.98622 0.0
C653 C 0.6927 0.52995 0.9741 0.0
C654 C 0.67467 0.59559 0.00212 0.0
C655 C 0.62893 0.57811 0.0063 0.0
C656 C 0.61594 0.53526 0.9948 0.0
C657 C 0.64771 0.51119 0.97896 0.0
C658 C 0.51926 0.64778 0.02477 0.0
C659 C 0.53636 0.6746 0.04503 0.0
C660 C 0.54832 0.61411 0.01295 0.0
C661 C 0.59476 0.6066 0.0214 0.0
C662 C 0.61012 0.63085 0.04299 0.0
C663 C 0.58138 0.6646 0.05454 0.0
loop_
_geom_bond_atom_site_label_1
_geom_bond_atom_site_label_2
_geom_bond_distance
_geom_bond_site_symmetry_2
_ccdc_geom_bond_type
Co0 N4 2.148 . S
Co0 N10 2.128 . S
Co0 N20 2.194 . S
Co0 O25 2.351 . S
Co0 O26 2.155 . S
Co0 O27 2.096 . S
C1 N4 1.301 . S
C1 N5 1.328 . S
C1 H6 0.930 . S
C2 C3 1.333 . S
C2 N4 1.317 . S
C2 H7 0.930 . S
C3 C2 1.333 . S
C3 N5 1.350 . S
C3 H29 0.931 . S
N4 Co0 2.148 . S
N4 C1 1.301 . S
N4 C2 1.317 . S
N5 C1 1.328 . S
N5 C3 1.350 . S
H6 C1 0.930 . S
H7 C2 0.930 . S
C8 O9 1.224 . S
C8 O27 1.247 . S
O9 C8 1.224 . S
N10 Co0 2.128 . S
N10 C11 1.355 . S
N10 C13 1.311 . S
C11 N10 1.355 . S
C11 C12 1.363 1_455 S
C11 H23 0.929 . S
C12 C11 1.363 1_655 S
C12 N14 1.375 1_655 S
C12 H30 0.931 . S
C13 N10 1.311 . S
C13 N14 1.347 . S
C13 H24 0.929 . S
N14 C12 1.375 1_455 S
N14 C13 1.347 . S
C15 C18 1.365 . S
C15 N20 1.328 . S
C15 H21 0.929 . S
C16 C17 1.353 1_455 S
C16 C19 1.378 . S
C16 H31 0.929 . S
C17 C16 1.353 1_655 S
C17 C18 1.362 1_655 S
C18 C15 1.365 . S
C18 C17 1.362 1_455 S
C18 H32 0.930 1_455 S
C19 C16 1.378 . S
C19 N20 1.315 . S
C19 H22 0.930 . S
N20 Co0 2.194 . S
N20 C15 1.328 . S
N20 C19 1.315 . S
H21 C15 0.929 . S
H22 C19 0.930 . S
H23 C11 0.929 . S
H24 C13 0.929 . S
O25 Co0 2.351 . S
O25 C28 1.244 . S
O26 Co0 2.155 . S
O26 C28 1.240 . S
O27 Co0 2.096 . S
O27 C8 1.247 . S
C28 O25 1.244 . S
C28 O26 1.240 . S
H29 C3 0.931 . S
H30 C12 0.931 . S
H31 C16 0.929 . S
H32 C18 0.930 1_655 S
Co33 N37 2.148 . S
Co33 N43 2.128 . S
Co33 N53 2.194 . S
Co33 O58 2.351 . S
Co33 O59 2.155 . S
Co33 O60 2.096 . S
C34 N37 1.301 . S
C34 N38 1.328 . S
C34 H39 0.930 . S
C35 C36 1.333 . S
C35 N37 1.317 . S
C35 H40 0.930 . S
C36 C35 1.333 . S
C36 N38 1.350 . S
C36 H62 0.931 . S
N37 Co33 2.148 . S
N37 C34 1.301 . S
N37 C35 1.317 . S
N38 C34 1.328 . S
N38 C36 1.350 . S
H39 C34 0.930 . S
H40 C35 0.930 . S
C41 O42 1.224 . S
C41 O60 1.247 . S
O42 C41 1.224 . S
N43 Co33 2.128 . S
N43 C44 1.355 . S
N43 C46 1.311 . S
C44 N43 1.355 . S
C44 C45 1.363 . S
C44 H56 0.929 . S
C45 C44 1.363 . S
C45 N47 1.375 . S
C45 H63 0.931 . S
C46 N43 1.311 . S
C46 N47 1.347 . S
C46 H57 0.929 . S
N47 C45 1.375 . S
N47 C46 1.347 . S
C48 C51 1.365 . S
C48 N53 1.328 . S
C48 H54 0.929 . S
C49 C50 1.362 . S
C49 C52 1.378 . S
C49 H64 0.929 . S
C50 C49 1.362 . S
C50 C51 1.366 . S
C51 C48 1.365 . S
C51 C50 1.366 . S
C51 H65 0.930 . S
C52 C49 1.378 . S
C52 N53 1.315 . S
C52 H55 0.930 . S
N53 Co33 2.194 . S
N53 C48 1.328 . S
N53 C52 1.315 . S
H54 C48 0.929 . S
H55 C52 0.930 . S
H56 C44 0.929 . S
H57 C46 0.929 . S
O58 Co33 2.351 . S
O58 C61 1.244 . S
O59 Co33 2.155 . S
O59 C61 1.240 . S
O60 Co33 2.096 . S
O60 C41 1.247 . S
C61 O58 1.244 . S
C61 O59 1.240 . S
H62 C36 0.931 . S
H63 C45 0.931 . S
H64 C49 0.929 . S
H65 C51 0.930 . S
Co66 N70 2.148 . S
Co66 N76 2.128 . S
Co66 N86 2.194 . S
Co66 O91 2.351 . S
Co66 O92 2.155 . S
Co66 O93 2.096 . S
C67 N70 1.301 . S
C67 N71 1.328 . S
C67 H72 0.930 . S
C68 C69 1.333 . S
C68 N70 1.317 . S
C68 H73 0.930 . S
C69 C68 1.333 . S
C69 N71 1.350 . S
C69 H95 0.931 . S
N70 Co66 2.148 . S
N70 C67 1.301 . S
N70 C68 1.317 . S
N71 C67 1.328 . S
N71 C69 1.350 . S
H72 C67 0.930 . S
H73 C68 0.930 . S
C74 O75 1.224 . S
C74 O93 1.247 . S
O75 C74 1.224 . S
N76 Co66 2.128 . S
N76 C77 1.355 . S
N76 C79 1.311 . S
C77 N76 1.355 . S
C77 C78 1.363 1_655 S
C77 H89 0.929 . S
C78 C77 1.363 1_455 S
C78 N80 1.375 1_455 S
C78 H96 0.931 . S
C79 N76 1.311 . S
C79 N80 1.347 . S
C79 H90 0.929 . S
N80 C78 1.375 1_655 S
N80 C79 1.347 . S
C81 C84 1.365 . S
C81 N86 1.328 . S
C81 H87 0.929 . S
C82 C83 1.353 1_655 S
C82 C85 1.378 . S
C82 H97 0.929 . S
C83 C82 1.353 1_455 S
C83 C84 1.362 1_455 S
C84 C81 1.365 . S
C84 C83 1.362 1_655 S
C84 H98 0.930 1_655 S
C85 C82 1.378 . S
C85 N86 1.315 . S
C85 H88 0.930 . S
N86 Co66 2.194 . S
N86 C81 1.328 . S
N86 C85 1.315 . S
H87 C81 0.929 . S
H88 C85 0.930 . S
H89 C77 0.929 . S
H90 C79 0.929 . S
O91 Co66 2.351 . S
O91 C94 1.244 . S
O92 Co66 2.155 . S
O92 C94 1.240 . S
O93 Co66 2.096 . S
O93 C74 1.247 . S
C94 O91 1.244 . S
C94 O92 1.240 . S
H95 C69 0.931 . S
H96 C78 0.931 . S
H97 C82 0.929 . S
H98 C84 0.930 1_455 S
Co99 N103 2.148 . S
Co99 N109 2.128 . S
Co99 N119 2.194 . S
Co99 O124 2.351 . S
Co99 O125 2.155 . S
Co99 O126 2.096 . S
C100 N103 1.301 . S
C100 N104 1.328 . S
C100 H105 0.930 . S
C101 C102 1.333 . S
C101 N103 1.317 . S
C101 H106 0.930 . S
C102 C101 1.333 . S
C102 N104 1.350 . S
C102 H128 0.931 . S
N103 Co99 2.148 . S
N103 C100 1.301 . S
N103 C101 1.317 . S
N104 C100 1.328 . S
N104 C102 1.350 . S
H105 C100 0.930 . S
H106 C101 0.930 . S
C107 O108 1.224 . S
C107 O126 1.247 . S
O108 C107 1.224 . S
N109 Co99 2.128 . S
N109 C110 1.355 . S
N109 C112 1.311 . S
C110 N109 1.355 . S
C110 C111 1.363 . S
C110 H122 0.929 . S
C111 C110 1.363 . S
C111 N113 1.375 . S
C111 H129 0.931 . S
C112 N109 1.311 . S
C112 N113 1.347 . S
C112 H123 0.929 . S
N113 C111 1.375 . S
N113 C112 1.347 . S
C114 C117 1.365 . S
C114 N119 1.328 . S
C114 H120 0.929 . S
C115 C116 1.362 . S
C115 C118 1.378 . S
C115 H130 0.929 . S
C116 C115 1.362 . S
C116 C117 1.366 . S
C117 C114 1.365 . S
C117 C116 1.366 . S
C117 H131 0.930 . S
C118 C115 1.378 . S
C118 N119 1.315 . S
C118 H121 0.930 . S
N119 Co99 2.194 . S
N119 C114 1.328 . S
N119 C118 1.315 . S
H120 C114 0.929 . S
H121 C118 0.930 . S
H122 C110 0.929 . S
H123 C112 0.929 . S
O124 Co99 2.351 . S
O124 C127 1.244 . S
O125 Co99 2.155 . S
O125 C127 1.240 . S
O126 Co99 2.096 . S
O126 C107 1.247 . S
C127 O124 1.244 . S
C127 O125 1.240 . S
H128 C102 0.931 . S
H129 C111 0.931 . S
H130 C115 0.929 . S
H131 C117 0.930 . S
Co132 N136 2.148 . S
Co132 N142 2.128 . S
Co132 N152 2.194 . S
Co132 O157 2.351 . S
Co132 O158 2.155 . S
Co132 O159 2.096 . S
C133 N136 1.301 . S
C133 N137 1.328 . S
C133 H138 0.930 . S
C134 C135 1.333 . S
C134 N136 1.317 . S
C134 H139 0.930 . S
C135 C134 1.333 . S
C135 N137 1.350 . S
C135 H161 0.931 . S
N136 Co132 2.148 . S
N136 C133 1.301 . S
N136 C134 1.317 . S
N137 C133 1.328 . S
N137 C135 1.350 . S
H138 C133 0.930 . S
H139 C134 0.930 . S
C140 O141 1.224 . S
C140 O159 1.247 . S
O141 C140 1.224 . S
N142 Co132 2.128 . S
N142 C143 1.355 . S
N142 C145 1.311 . S
C143 N142 1.355 . S
C143 C144 1.363 . S
C143 H155 0.929 . S
C144 C143 1.363 . S
C144 N146 1.375 . S
C144 H162 0.931 . S
C145 N142 1.311 . S
C145 N146 1.347 . S
C145 H156 0.929 . S
N146 C144 1.375 . S
N146 C145 1.347 . S
C147 C150 1.365 . S
C147 N152 1.328 . S
C147 H153 0.929 . S
C148 C149 1.362 . S
C148 C151 1.378 . S
C148 H163 0.929 . S
C149 C148 1.362 . S
C149 C150 1.366 . S
C150 C147 1.365 . S
C150 C149 1.366 . S
C150 H164 0.930 . S
C151 C148 1.378 . S
C151 N152 1.315 . S
C151 H154 0.930 . S
N152 Co132 2.194 . S
N152 C147 1.328 . S
N152 C151 1.315 . S
H153 C147 0.929 . S
H154 C151 0.930 . S
H155 C143 0.929 . S
H156 C145 0.929 . S
O157 Co132 2.351 . S
O157 C160 1.244 . S
O158 Co132 2.155 . S
O158 C160 1.240 . S
O159 Co132 2.096 . S
O159 C140 1.247 . S
C160 O157 1.244 . S
C160 O158 1.240 . S
H161 C135 0.931 . S
H162 C144 0.931 . S
H163 C148 0.929 . S
H164 C150 0.930 . S
Co165 N169 2.148 . S
Co165 N175 2.128 . S
Co165 N185 2.194 . S
Co165 O190 2.351 . S
Co165 O191 2.155 . S
Co165 O192 2.096 . S
C166 N169 1.301 . S
C166 N170 1.328 . S
C166 H171 0.930 . S
C167 C168 1.333 . S
C167 N169 1.317 . S
C167 H172 0.930 . S
C168 C167 1.333 . S
C168 N170 1.350 . S
C168 H194 0.931 . S
N169 Co165 2.148 . S
N169 C166 1.301 . S
N169 C167 1.317 . S
N170 C166 1.328 . S
N170 C168 1.350 . S
H171 C166 0.930 . S
H172 C167 0.930 . S
C173 O174 1.224 . S
C173 O192 1.247 . S
O174 C173 1.224 . S
N175 Co165 2.128 . S
N175 C176 1.355 . S
N175 C178 1.311 . S
C176 N175 1.355 . S
C176 C177 1.363 1_545 S
C176 H188 0.929 . S
C177 C176 1.363 1_565 S
C177 N179 1.375 1_565 S
C177 H195 0.931 . S
C178 N175 1.311 . S
C178 N179 1.347 . S
C178 H189 0.929 . S
N179 C177 1.375 1_545 S
N179 C178 1.347 . S
C180 C183 1.365 . S
C180 N185 1.328 . S
C180 H186 0.929 . S
C181 C182 1.353 1_545 S
C181 C184 1.378 . S
C181 H196 0.929 . S
C182 C181 1.353 1_565 S
C182 C183 1.362 1_565 S
C183 C180 1.365 . S
C183 C182 1.362 1_545 S
C183 H197 0.930 1_545 S
C184 C181 1.378 . S
C184 N185 1.315 . S
C184 H187 0.930 . S
N185 Co165 2.194 . S
N185 C180 1.328 . S
N185 C184 1.315 . S
H186 C180 0.929 . S
H187 C184 0.930 . S
H188 C176 0.929 . S
H189 C178 0.929 . S
O190 Co165 2.351 . S
O190 C193 1.244 . S
O191 Co165 2.155 . S
O191 C193 1.240 . S
O192 Co165 2.096 . S
O192 C173 1.247 . S
C193 O190 1.244 . S
C193 O191 1.240 . S
H194 C168 0.931 . S
H195 C177 0.931 . S
H196 C181 0.929 . S
H197 C183 0.930 1_565 S
Co198 N202 2.148 . S
Co198 N208 2.128 . S
Co198 N218 2.194 . S
Co198 O223 2.351 . S
Co198 O224 2.155 . S
Co198 O225 2.096 . S
C199 N202 1.301 . S
C199 N203 1.328 . S
C199 H204 0.930 . S
C200 C201 1.333 . S
C200 N202 1.317 . S
C200 H205 0.930 . S
C201 C200 1.333 . S
C201 N203 1.350 . S
C201 H227 0.931 . S
N202 Co198 2.148 . S
N202 C199 1.301 . S
N202 C200 1.317 . S
N203 C199 1.328 . S
N203 C201 1.350 . S
H204 C199 0.930 . S
H205 C200 0.930 . S
C206 O207 1.224 . S
C206 O225 1.247 . S
O207 C206 1.224 . S
N208 Co198 2.128 . S
N208 C209 1.355 . S
N208 C211 1.311 . S
C209 N208 1.355 . S
C209 C210 1.363 . S
C209 H221 0.929 . S
C210 C209 1.363 . S
C210 N212 1.375 . S
C210 H228 0.931 . S
C211 N208 1.311 . S
C211 N212 1.347 . S
C211 H222 0.929 . S
N212 C210 1.375 . S
N212 C211 1.347 . S
C213 C216 1.365 . S
C213 N218 1.328 . S
C213 H219 0.929 . S
C214 C215 1.362 . S
C214 C217 1.378 . S
C214 H229 0.929 . S
C215 C214 1.362 . S
C215 C216 1.366 . S
C216 C213 1.365 . S
C216 C215 1.366 . S
C216 H230 0.930 . S
C217 C214 1.378 . S
C217 N218 1.315 . S
C217 H220 0.930 . S
N218 Co198 2.194 . S
N218 C213 1.328 . S
N218 C217 1.315 . S
H219 C213 0.929 . S
H220 C217 0.930 . S
H221 C209 0.929 . S
H222 C211 0.929 . S
O223 Co198 2.351 . S
O223 C226 1.244 . S
O224 Co198 2.155 . S
O224 C226 1.240 . S
O225 Co198 2.096 . S
O225 C206 1.247 . S
C226 O223 1.244 . S
C226 O224 1.240 . S
H227 C201 0.931 . S
H228 C210 0.931 . S
H229 C214 0.929 . S
H230 C216 0.930 . S
Co231 N235 2.148 . S
Co231 N241 2.128 . S
Co231 N251 2.194 . S
Co231 O256 2.351 . S
Co231 O257 2.155 . S
Co231 O258 2.096 . S
C232 N235 1.301 . S
C232 N236 1.328 . S
C232 H237 0.930 . S
C233 C234 1.333 . S
C233 N235 1.317 . S
C233 H238 0.930 . S
C234 C233 1.333 . S
C234 N236 1.350 . S
C234 H260 0.931 . S
N235 Co231 2.148 . S
N235 C232 1.301 . S
N235 C233 1.317 . S
N236 C232 1.328 . S
N236 C234 1.350 . S
H237 C232 0.930 . S
H238 C233 0.930 . S
C239 O240 1.224 . S
C239 O258 1.247 . S
O240 C239 1.224 . S
N241 Co231 2.128 . S
N241 C242 1.355 . S
N241 C244 1.311 . S
C242 N241 1.355 . S
C242 C243 1.363 1_565 S
C242 H254 0.929 . S
C243 C242 1.363 1_545 S
C243 N245 1.375 1_545 S
C243 H261 0.931 . S
C244 N241 1.311 . S
C244 N245 1.347 . S
C244 H255 0.929 . S
N245 C243 1.375 1_565 S
N245 C244 1.347 . S
C246 C249 1.365 . S
C246 N251 1.328 . S
C246 H252 0.929 . S
C247 C248 1.353 1_565 S
C247 C250 1.378 . S
C247 H262 0.929 . S
C248 C247 1.353 1_545 S
C248 C249 1.362 1_545 S
C249 C246 1.365 . S
C249 C248 1.362 1_565 S
C249 H263 0.930 1_565 S
C250 C247 1.378 . S
C250 N251 1.315 . S
C250 H253 0.930 . S
N251 Co231 2.194 . S
N251 C246 1.328 . S
N251 C250 1.315 . S
H252 C246 0.929 . S
H253 C250 0.930 . S
H254 C242 0.929 . S
H255 C244 0.929 . S
O256 Co231 2.351 . S
O256 C259 1.244 . S
O257 Co231 2.155 . S
O257 C259 1.240 . S
O258 Co231 2.096 . S
O258 C239 1.247 . S
C259 O256 1.244 . S
C259 O257 1.240 . S
H260 C234 0.931 . S
H261 C243 0.931 . S
H262 C247 0.929 . S
H263 C249 0.930 1_545 S
H264 C272 0.950 . S
H265 C277 0.950 . S
H266 C274 0.950 . S
H267 C276 0.950 . S
H268 C278 0.950 . S
H269 C280 0.950 . S
H270 C282 0.950 . S
H271 C283 0.950 . S
C272 H264 0.950 . S
C272 C273 1.386 . S
C272 C274 1.391 . S
C273 C272 1.386 . S
C273 C277 1.393 . S
C274 H266 0.950 . S
C274 C272 1.391 . S
C274 C275 1.400 . S
C275 C274 1.400 . S
C275 C276 1.398 . S
C275 C281 1.491 . S
C276 H267 0.950 . S
C276 C275 1.398 . S
C276 C277 1.391 . S
C277 H265 0.950 . S
C277 C273 1.393 . S
C277 C276 1.391 . S
C278 H268 0.950 . S
C278 C279 1.386 . S
C278 C280 1.391 . S
C279 C278 1.386 . S
C279 C283 1.393 . S
C280 H269 0.950 . S
C280 C278 1.391 . S
C280 C281 1.400 . S
C281 C275 1.491 . S
C281 C280 1.400 . S
C281 C282 1.398 . S
C282 H270 0.950 . S
C282 C281 1.398 . S
C282 C283 1.391 . S
C283 H271 0.950 . S
C283 C279 1.393 . S
C283 C282 1.391 . S
H284 C292 0.950 1_655 S
H285 C297 0.950 . S
H286 C294 0.950 . S
H287 C296 0.950 . S
H288 C298 0.950 . S
H289 C300 0.950 . S
H290 C302 0.950 . S
H291 C303 0.950 . S
C292 H284 0.950 1_455 S
C292 C293 1.386 . S
C292 C294 1.391 . S
C293 C292 1.386 . S
C293 C297 1.393 . S
C294 H286 0.950 . S
C294 C292 1.391 . S
C294 C295 1.400 . S
C295 C294 1.400 . S
C295 C296 1.398 . S
C295 C301 1.491 . S
C296 H287 0.950 . S
C296 C295 1.398 . S
C296 C297 1.391 . S
C297 H285 0.950 . S
C297 C293 1.393 . S
C297 C296 1.391 . S
C298 H288 0.950 . S
C298 C299 1.386 . S
C298 C300 1.391 . S
C299 C298 1.386 . S
C299 C303 1.393 . S
C300 H289 0.950 . S
C300 C298 1.391 . S
C300 C301 1.400 . S
C301 C295 1.491 . S
C301 C300 1.400 . S
C301 C302 1.398 . S
C302 H290 0.950 . S
C302 C301 1.398 . S
C302 C303 1.391 . S
C303 H291 0.950 . S
C303 C299 1.393 . S
C303 C302 1.391 . S
H304 C312 0.950 . S
H305 C317 0.950 . S
H306 C314 0.950 . S
H307 C316 0.950 . S
H308 C318 0.950 . S
H309 C320 0.950 . S
H310 C322 0.950 . S
H311 C323 0.950 . S
C312 H304 0.950 . S
C312 C313 1.386 . S
C312 C314 1.391 . S
C313 C312 1.386 . S
C313 C317 1.393 . S
C314 H306 0.950 . S
C314 C312 1.391 . S
C314 C315 1.400 . S
C315 C314 1.400 . S
C315 C316 1.398 . S
C315 C321 1.491 . S
C316 H307 0.950 . S
C316 C315 1.398 . S
C316 C317 1.391 . S
C317 H305 0.950 . S
C317 C313 1.393 . S
C317 C316 1.391 . S
C318 H308 0.950 . S
C318 C319 1.386 . S
C318 C320 1.391 . S
C319 C318 1.386 . S
C319 C323 1.393 . S
C320 H309 0.950 . S
C320 C318 1.391 . S
C320 C321 1.400 . S
C321 C315 1.491 . S
C321 C320 1.400 . S
C321 C322 1.398 . S
C322 H310 0.950 . S
C322 C321 1.398 . S
C322 C323 1.391 . S
C323 H311 0.950 . S
C323 C319 1.393 . S
C323 C322 1.391 . S
H324 C332 0.950 . S
H325 C337 0.950 . S
H326 C334 0.950 . S
H327 C336 0.950 . S
H328 C338 0.950 . S
H329 C340 0.950 . S
H330 C342 0.950 . S
H331 C343 0.950 1_455 S
C332 H324 0.950 . S
C332 C333 1.386 . S
C332 C334 1.391 1_556 S
C333 C332 1.386 . S
C333 C337 1.393 . S
C334 H326 0.950 . S
C334 C332 1.391 1_554 S
C334 C335 1.400 . S
C335 C334 1.400 . S
C335 C336 1.398 . S
C335 C341 1.491 . S
C336 H327 0.950 . S
C336 C335 1.398 . S
C336 C337 1.391 1_554 S
C337 H325 0.950 . S
C337 C333 1.393 . S
C337 C336 1.391 1_556 S
C338 H328 0.950 . S
C338 C339 1.386 . S
C338 C340 1.391 . S
C339 C338 1.386 . S
C339 C343 1.393 . S
C340 H329 0.950 . S
C340 C338 1.391 . S
C340 C341 1.400 . S
C341 C335 1.491 . S
C341 C340 1.400 . S
C341 C342 1.398 . S
C342 H330 0.950 . S
C342 C341 1.398 . S
C342 C343 1.391 . S
C343 H331 0.950 1_655 S
C343 C339 1.393 . S
C343 C342 1.391 . S
H344 C352 0.950 . S
H345 C357 0.950 . S
H346 C354 0.950 . S
H347 C356 0.950 . S
H348 C358 0.950 . S
H349 C360 0.950 . S
H350 C362 0.950 . S
H351 C363 0.950 . S
C352 H344 0.950 . S
C352 C353 1.386 . S
C352 C354 1.391 . S
C353 C352 1.386 . S
C353 C357 1.393 . S
C354 H346 0.950 . S
C354 C352 1.391 . S
C354 C355 1.400 . S
C355 C354 1.400 . S
C355 C356 1.398 . S
C355 C361 1.491 . S
C356 H347 0.950 . S
C356 C355 1.398 . S
C356 C357 1.391 . S
C357 H345 0.950 . S
C357 C353 1.393 . S
C357 C356 1.391 . S
C358 H348 0.950 . S
C358 C359 1.386 . S
C358 C360 1.391 . S
C359 C358 1.386 . S
C359 C363 1.393 . S
C360 H349 0.950 . S
C360 C358 1.391 . S
C360 C361 1.400 . S
C361 C355 1.491 . S
C361 C360 1.400 . S
C361 C362 1.398 . S
C362 H350 0.950 . S
C362 C361 1.398 . S
C362 C363 1.391 . S
C363 H351 0.950 . S
C363 C359 1.393 . S
C363 C362 1.391 . S
H364 C372 0.950 . S
H365 C377 0.950 . S
H366 C374 0.950 . S
H367 C376 0.950 . S
H368 C378 0.950 . S
H369 C380 0.950 . S
H370 C382 0.950 . S
H371 C383 0.950 . S
C372 H364 0.950 . S
C372 C373 1.386 . S
C372 C374 1.391 . S
C373 C372 1.386 . S
C373 C377 1.393 . S
C374 H366 0.950 . S
C374 C372 1.391 . S
C374 C375 1.400 . S
C375 C374 1.400 . S
C375 C376 1.398 . S
C375 C381 1.491 . S
C376 H367 0.950 . S
C376 C375 1.398 . S
C376 C377 1.391 . S
C377 H365 0.950 . S
C377 C373 1.393 . S
C377 C376 1.391 . S
C378 H368 0.950 . S
C378 C379 1.386 . S
C378 C380 1.391 . S
C379 C378 1.386 . S
C379 C383 1.393 . S
C380 H369 0.950 . S
C380 C378 1.391 . S
C380 C381 1.400 . S
C381 C375 1.491 . S
C381 C380 1.400 . S
C381 C382 1.398 . S
C382 H370 0.950 . S
C382 C381 1.398 . S
C382 C383 1.391 . S
C383 H371 0.950 . S
C383 C379 1.393 . S
C383 C382 1.391 . S
H384 C392 0.950 . S
H385 C397 0.950 . S
H386 C394 0.950 . S
H387 C396 0.950 . S
H388 C398 0.950 . S
H389 C400 0.950 . S
H390 C402 0.950 . S
H391 C403 0.950 1_545 S
C392 H384 0.950 . S
C392 C393 1.386 . S
C392 C394 1.391 . S
C393 C392 1.386 . S
C393 C397 1.393 . S
C394 H386 0.950 . S
C394 C392 1.391 . S
C394 C395 1.400 1_554 S
C395 C394 1.400 1_556 S
C395 C396 1.398 . S
C395 C401 1.491 . S
C396 H387 0.950 . S
C396 C395 1.398 . S
C396 C397 1.391 1_556 S
C397 H385 0.950 . S
C397 C393 1.393 . S
C397 C396 1.391 1_554 S
C398 H388 0.950 . S
C398 C399 1.386 . S
C398 C400 1.391 . S
C399 C398 1.386 . S
C399 C403 1.393 . S
C400 H389 0.950 . S
C400 C398 1.391 . S
C400 C401 1.400 . S
C401 C395 1.491 . S
C401 C400 1.400 . S
C401 C402 1.398 . S
C402 H390 0.950 . S
C402 C401 1.398 . S
C402 C403 1.391 . S
C403 H391 0.950 1_565 S
C403 C399 1.393 . S
C403 C402 1.391 . S
H404 C412 0.950 . S
H405 C417 0.950 . S
H406 C414 0.950 . S
H407 C416 0.950 . S
H408 C418 0.950 . S
H409 C420 0.950 . S
H410 C422 0.950 . S
H411 C423 0.950 . S
C412 H404 0.950 . S
C412 C413 1.386 . S
C412 C414 1.391 . S
C413 C412 1.386 . S
C413 C417 1.393 . S
C414 H406 0.950 . S
C414 C412 1.391 . S
C414 C415 1.400 . S
C415 C414 1.400 . S
C415 C416 1.398 . S
C415 C421 1.491 . S
C416 H407 0.950 . S
C416 C415 1.398 . S
C416 C417 1.391 . S
C417 H405 0.950 . S
C417 C413 1.393 . S
C417 C416 1.391 . S
C418 H408 0.950 . S
C418 C419 1.386 . S
C418 C420 1.391 . S
C419 C418 1.386 . S
C419 C423 1.393 . S
C420 H409 0.950 . S
C420 C418 1.391 . S
C420 C421 1.400 . S
C421 C415 1.491 . S
C421 C420 1.400 . S
C421 C422 1.398 . S
C422 H410 0.950 . S
C422 C421 1.398 . S
C422 C423 1.391 . S
C423 H411 0.950 . S
C423 C419 1.393 . S
C423 C422 1.391 . S
H424 C432 0.950 . S
H425 C437 0.950 . S
H426 C434 0.950 . S
H427 C436 0.951 . S
H428 C438 0.950 . S
H429 C440 0.950 . S
H430 C442 0.950 . S
H431 C443 0.950 . S
C432 H424 0.950 . S
C432 C433 1.386 . S
C432 C434 1.391 . S
C433 C432 1.386 . S
C433 C437 1.393 . S
C434 H426 0.950 . S
C434 C432 1.391 . S
C434 C435 1.400 1_565 S
C435 C434 1.400 1_545 S
C435 C436 1.399 . S
C435 C441 1.491 . S
C436 H427 0.951 . S
C436 C435 1.399 . S
C436 C437 1.389 1_545 S
C437 H425 0.950 . S
C437 C433 1.393 . S
C437 C436 1.389 1_565 S
C438 H428 0.950 . S
C438 C439 1.386 . S
C438 C440 1.391 . S
C439 C438 1.386 . S
C439 C443 1.393 . S
C440 H429 0.950 . S
C440 C438 1.391 . S
C440 C441 1.400 . S
C441 C435 1.491 . S
C441 C440 1.400 . S
C441 C442 1.398 . S
C442 H430 0.950 . S
C442 C441 1.398 . S
C442 C443 1.391 . S
C443 H431 0.950 . S
C443 C439 1.393 . S
C443 C442 1.391 . S
H444 C452 0.950 . S
H445 C457 0.950 . S
H446 C454 0.950 . S
H447 C456 0.950 . S
H448 C458 0.950 . S
H449 C460 0.950 . S
H450 C462 0.950 . S
H451 C463 0.950 . S
C452 H444 0.950 . S
C452 C453 1.386 . S
C452 C454 1.391 . S
C453 C452 1.386 . S
C453 C457 1.393 . S
C454 H446 0.950 . S
C454 C452 1.391 . S
C454 C455 1.400 . S
C455 C454 1.400 . S
C455 C456 1.398 . S
C455 C461 1.491 . S
C456 H447 0.950 . S
C456 C455 1.398 . S
C456 C457 1.391 . S
C457 H445 0.950 . S
C457 C453 1.393 . S
C457 C456 1.391 . S
C458 H448 0.950 . S
C458 C459 1.386 . S
C458 C460 1.391 . S
C459 C458 1.386 . S
C459 C463 1.393 . S
C460 H449 0.950 . S
C460 C458 1.391 . S
C460 C461 1.400 . S
C461 C455 1.491 . S
C461 C460 1.400 . S
C461 C462 1.398 . S
C462 H450 0.950 . S
C462 C461 1.398 . S
C462 C463 1.391 . S
C463 H451 0.950 . S
C463 C459 1.393 . S
C463 C462 1.391 . S
H464 C472 0.950 . S
H465 C477 0.950 . S
H466 C474 0.950 . S
H467 C476 0.950 . S
H468 C478 0.950 . S
H469 C480 0.950 . S
H470 C482 0.950 . S
H471 C483 0.950 . S
C472 H464 0.950 . S
C472 C473 1.386 . S
C472 C474 1.391 1_545 S
C473 C472 1.386 . S
C473 C477 1.393 . S
C474 H466 0.950 . S
C474 C472 1.391 1_565 S
C474 C475 1.400 . S
C475 C474 1.400 . S
C475 C476 1.398 1_565 S
C475 C481 1.491 . S
C476 H467 0.950 . S
C476 C475 1.398 1_545 S
C476 C477 1.391 . S
C477 H465 0.950 . S
C477 C473 1.393 . S
C477 C476 1.391 . S
C478 H468 0.950 . S
C478 C479 1.386 . S
C478 C480 1.391 . S
C479 C478 1.386 . S
C479 C483 1.393 . S
C480 H469 0.950 . S
C480 C478 1.391 . S
C480 C481 1.400 . S
C481 C475 1.491 . S
C481 C480 1.400 . S
C481 C482 1.398 . S
C482 H470 0.950 . S
C482 C481 1.398 . S
C482 C483 1.391 . S
C483 H471 0.950 . S
C483 C479 1.393 . S
C483 C482 1.391 . S
H484 C492 0.950 . S
H485 C497 0.950 . S
H486 C494 0.950 . S
H487 C496 0.950 . S
H488 C498 0.950 . S
H489 C500 0.950 . S
H490 C502 0.950 . S
H491 C503 0.950 . S
C492 H484 0.950 . S
C492 C493 1.386 . S
C492 C494 1.391 . S
C493 C492 1.386 . S
C493 C497 1.393 . S
C494 H486 0.950 . S
C494 C492 1.391 . S
C494 C495 1.400 . S
C495 C494 1.400 . S
C495 C496 1.398 . S
C495 C501 1.491 . S
C496 H487 0.950 . S
C496 C495 1.398 . S
C496 C497 1.391 . S
C497 H485 0.950 . S
C497 C493 1.393 . S
C497 C496 1.391 . S
C498 H488 0.950 . S
C498 C499 1.386 . S
C498 C500 1.391 . S
C499 C498 1.386 . S
C499 C503 1.393 . S
C500 H489 0.950 . S
C500 C498 1.391 . S
C500 C501 1.400 . S
C501 C495 1.491 . S
C501 C500 1.400 . S
C501 C502 1.398 . S
C502 H490 0.950 . S
C502 C501 1.398 . S
C502 C503 1.391 . S
C503 H491 0.950 . S
C503 C499 1.393 . S
C503 C502 1.391 . S
H504 C512 0.950 . S
H505 C517 0.950 . S
H506 C514 0.950 . S
H507 C516 0.950 . S
H508 C518 0.950 . S
H509 C520 0.950 . S
H510 C522 0.950 . S
H511 C523 0.950 . S
C512 H504 0.950 . S
C512 C513 1.386 . S
C512 C514 1.391 . S
C513 C512 1.386 . S
C513 C517 1.393 . S
C514 H506 0.950 . S
C514 C512 1.391 . S
C514 C515 1.400 . S
C515 C514 1.400 . S
C515 C516 1.398 . S
C515 C521 1.491 . S
C516 H507 0.950 . S
C516 C515 1.398 . S
C516 C517 1.391 . S
C517 H505 0.950 . S
C517 C513 1.393 . S
C517 C516 1.391 . S
C518 H508 0.950 . S
C518 C519 1.386 . S
C518 C520 1.391 . S
C519 C518 1.386 . S
C519 C523 1.393 . S
C520 H509 0.950 . S
C520 C518 1.391 . S
C520 C521 1.400 . S
C521 C515 1.491 . S
C521 C520 1.400 . S
C521 C522 1.398 . S
C522 H510 0.950 . S
C522 C521 1.398 . S
C522 C523 1.391 . S
C523 H511 0.950 . S
C523 C519 1.393 . S
C523 C522 1.391 . S
H524 C532 0.950 . S
H525 C537 0.950 . S
H526 C534 0.950 . S
H527 C536 0.950 . S
H528 C538 0.950 . S
H529 C540 0.950 . S
H530 C542 0.950 . S
H531 C543 0.950 . S
C532 H524 0.950 . S
C532 C533 1.386 . S
C532 C534 1.391 . S
C533 C532 1.386 . S
C533 C537 1.393 . S
C534 H526 0.950 . S
C534 C532 1.391 . S
C534 C535 1.400 . S
C535 C534 1.400 . S
C535 C536 1.398 . S
C535 C541 1.491 . S
C536 H527 0.950 . S
C536 C535 1.398 . S
C536 C537 1.391 . S
C537 H525 0.950 . S
C537 C533 1.393 . S
C537 C536 1.391 . S
C538 H528 0.950 . S
C538 C539 1.386 . S
C538 C540 1.391 . S
C539 C538 1.386 . S
C539 C543 1.393 . S
C540 H529 0.950 . S
C540 C538 1.391 . S
C540 C541 1.400 1_655 S
C541 C535 1.491 . S
C541 C540 1.400 1_455 S
C541 C542 1.398 . S
C542 H530 0.950 . S
C542 C541 1.398 . S
C542 C543 1.391 1_455 S
C543 H531 0.950 . S
C543 C539 1.393 . S
C543 C542 1.391 1_655 S
H544 C552 0.950 . S
H545 C557 0.950 . S
H546 C554 0.950 . S
H547 C556 0.950 . S
H548 C558 0.950 . S
H549 C560 0.950 . S
H550 C562 0.950 . S
H551 C563 0.950 . S
C552 H544 0.950 . S
C552 C553 1.386 . S
C552 C554 1.391 . S
C553 C552 1.386 . S
C553 C557 1.393 . S
C554 H546 0.950 . S
C554 C552 1.391 . S
C554 C555 1.400 . S
C555 C554 1.400 . S
C555 C556 1.398 . S
C555 C561 1.491 . S
C556 H547 0.950 . S
C556 C555 1.398 . S
C556 C557 1.391 . S
C557 H545 0.950 . S
C557 C553 1.393 . S
C557 C556 1.391 . S
C558 H548 0.950 . S
C558 C559 1.386 . S
C558 C560 1.391 . S
C559 C558 1.386 . S
C559 C563 1.393 . S
C560 H549 0.950 . S
C560 C558 1.391 . S
C560 C561 1.400 . S
C561 C555 1.491 . S
C561 C560 1.400 . S
C561 C562 1.398 . S
C562 H550 0.950 . S
C562 C561 1.398 . S
C562 C563 1.391 . S
C563 H551 0.950 . S
C563 C559 1.393 . S
C563 C562 1.391 . S
H564 C572 0.950 . S
H565 C577 0.950 . S
H566 C574 0.950 . S
H567 C576 0.950 . S
H568 C578 0.950 . S
H569 C580 0.950 . S
H570 C582 0.950 1_655 S
H571 C583 0.950 . S
C572 H564 0.950 . S
C572 C573 1.386 . S
C572 C574 1.391 . S
C573 C572 1.386 . S
C573 C577 1.393 . S
C574 H566 0.950 . S
C574 C572 1.391 . S
C574 C575 1.400 . S
C575 C574 1.400 . S
C575 C576 1.398 . S
C575 C581 1.491 . S
C576 H567 0.950 . S
C576 C575 1.398 . S
C576 C577 1.391 . S
C577 H565 0.950 . S
C577 C573 1.393 . S
C577 C576 1.391 . S
C578 H568 0.950 . S
C578 C579 1.386 . S
C578 C580 1.391 . S
C579 C578 1.386 . S
C579 C583 1.393 . S
C580 H569 0.950 . S
C580 C578 1.391 . S
C580 C581 1.400 1_455 S
C581 C575 1.491 . S
C581 C580 1.400 1_655 S
C581 C582 1.398 1_655 S
C582 H570 0.950 1_455 S
C582 C581 1.398 1_455 S
C582 C583 1.391 . S
C583 H571 0.950 . S
C583 C579 1.393 . S
C583 C582 1.391 . S
H584 C592 0.950 . S
H585 C597 0.950 . S
H586 C594 0.950 . S
H587 C596 0.950 . S
H588 C598 0.950 . S
H589 C600 0.950 . S
H590 C602 0.950 . S
H591 C603 0.950 1_455 S
C592 H584 0.950 . S
C592 C593 1.386 . S
C592 C594 1.391 . S
C593 C592 1.386 . S
C593 C597 1.393 1_545 S
C594 H586 0.950 . S
C594 C592 1.391 . S
C594 C595 1.400 . S
C595 C594 1.400 . S
C595 C596 1.398 . S
C595 C601 1.491 . S
C596 H587 0.950 . S
C596 C595 1.398 . S
C596 C597 1.391 1_545 S
C597 H585 0.950 . S
C597 C593 1.393 1_565 S
C597 C596 1.391 1_565 S
C598 H588 0.950 . S
C598 C599 1.386 . S
C598 C600 1.391 . S
C599 C598 1.386 . S
C599 C603 1.393 . S
C600 H589 0.950 . S
C600 C598 1.391 . S
C600 C601 1.400 . S
C601 C595 1.491 . S
C601 C600 1.400 . S
C601 C602 1.398 . S
C602 H590 0.950 . S
C602 C601 1.398 . S
C602 C603 1.391 . S
C603 H591 0.950 1_655 S
C603 C599 1.393 . S
C603 C602 1.391 . S
H604 C612 0.950 . S
H605 C617 0.950 . S
H606 C614 0.950 . S
H607 C616 0.950 . S
H608 C618 0.950 . S
H609 C620 0.950 . S
H610 C622 0.950 . S
H611 C623 0.950 . S
C612 H604 0.950 . S
C612 C613 1.386 . S
C612 C614 1.391 . S
C613 C612 1.386 . S
C613 C617 1.393 . S
C614 H606 0.950 . S
C614 C612 1.391 . S
C614 C615 1.400 . S
C615 C614 1.400 . S
C615 C616 1.398 . S
C615 C621 1.491 . S
C616 H607 0.950 . S
C616 C615 1.398 . S
C616 C617 1.391 . S
C617 H605 0.950 . S
C617 C613 1.393 . S
C617 C616 1.391 . S
C618 H608 0.950 . S
C618 C619 1.386 . S
C618 C620 1.391 . S
C619 C618 1.386 . S
C619 C623 1.393 . S
C620 H609 0.950 . S
C620 C618 1.391 . S
C620 C621 1.400 . S
C621 C615 1.491 . S
C621 C620 1.400 . S
C621 C622 1.398 . S
C622 H610 0.950 . S
C622 C621 1.398 . S
C622 C623 1.391 . S
C623 H611 0.950 . S
C623 C619 1.393 . S
C623 C622 1.391 . S
H624 C632 0.950 . S
H625 C637 0.950 . S
H626 C634 0.950 . S
H627 C636 0.950 . S
H628 C638 0.950 . S
H629 C640 0.950 . S
H630 C642 0.950 . S
H631 C643 0.950 . S
C632 H624 0.950 . S
C632 C633 1.386 . S
C632 C634 1.391 . S
C633 C632 1.386 . S
C633 C637 1.393 1_455 S
C634 H626 0.950 . S
C634 C632 1.391 . S
C634 C635 1.400 . S
C635 C634 1.400 . S
C635 C636 1.398 . S
C635 C641 1.491 . S
C636 H627 0.950 . S
C636 C635 1.398 . S
C636 C637 1.391 1_455 S
C637 H625 0.950 . S
C637 C633 1.393 1_655 S
C637 C636 1.391 1_655 S
C638 H628 0.950 . S
C638 C639 1.386 . S
C638 C640 1.391 . S
C639 C638 1.386 . S
C639 C643 1.393 . S
C640 H629 0.950 . S
C640 C638 1.391 . S
C640 C641 1.400 . S
C641 C635 1.491 . S
C641 C640 1.400 . S
C641 C642 1.398 . S
C642 H630 0.950 . S
C642 C641 1.398 . S
C642 C643 1.391 . S
C643 H631 0.950 . S
C643 C639 1.393 . S
C643 C642 1.391 . S
H644 C652 0.950 . S
H645 C657 0.950 . S
H646 C654 0.928 1_554 S
H647 C656 0.950 . S
H648 C658 0.950 . S
H649 C660 0.928 1_556 S
H650 C662 0.950 . S
H651 C663 0.950 . S
C652 H644 0.950 . S
C652 C653 1.386 . S
C652 C654 1.391 . S
C653 C652 1.386 . S
C653 C657 1.393 . S
C654 H646 0.928 1_556 S
C654 C652 1.391 . S
C654 C655 1.400 . S
C655 C654 1.400 . S
C655 C656 1.398 . S
C655 C661 1.491 1_556 S
C656 H647 0.950 . S
C656 C655 1.398 . S
C656 C657 1.391 . S
C657 H645 0.950 . S
C657 C653 1.393 . S
C657 C656 1.391 . S
C658 H648 0.950 . S
C658 C659 1.386 . S
C658 C660 1.391 . S
C659 C658 1.386 . S
C659 C663 1.393 . S
C660 H649 0.928 1_554 S
C660 C658 1.391 . S
C660 C661 1.400 . S
C661 C655 1.491 1_554 S
C661 C660 1.400 . S
C661 C662 1.398 . S
C662 H650 0.950 . S
C662 C661 1.398 . S
C662 C663 1.391 . S
C663 H651 0.950 . S
C663 C659 1.393 . S
C663 C662 1.391 . S
C273 C28 1.138 . S
C279 C50 1.128 . S
C293 C83 1.136 . S
C299 C61 1.135 . S
C313 C116 1.121 . S
C319 C94 1.130 . S
C333 C127 1.135 . S
C339 C17 1.135 . S
C353 C160 1.131 . S
C359 C248 1.132 . S
C373 C193 1.131 . S
C379 C149 1.121 . S
C393 C226 1.138 . S
C399 C182 1.139 . S
C413 C259 1.131 . S
C419 C215 1.121 . S
C433 N203 1.787 . S
C439 C8 1.778 . S
C453 N236 1.786 . S
C459 C41 1.780 . S
C473 N137 1.783 . S
C479 C74 1.781 . S
C493 N170 1.787 . S
C499 C107 1.774 . S
C513 C140 1.774 . S
C519 N71 1.787 . S
C533 C173 1.778 . S
C539 N104 1.784 . S
C553 C206 1.780 . S
C559 N5 1.785 . S
C573 C239 1.775 . S
C579 N38 1.786 . S
C593 N245 1.482 1_545 S
C599 N14 1.458 1_655 S
C613 N146 1.484 . S
C619 N47 1.463 . S
C633 N80 1.484 1_455 S
C639 N179 1.462 1_565 S
C653 N113 1.474 . S
C659 N212 1.482 . S
