# Generated by pormake.
# Topology wjr, (5)-cn, num edge types: 1
# Building blocks:
#     Node 0, Type 0, BuildingBlock: BEQFEK_clean_sbu_0, # of connection points: 5
#     Node 1, Type 0, BuildingBlock: BEQFEK_clean_sbu_0, # of connection points: 5
#     Node 2, Type 0, BuildingBlock: BEQFEK_clean_sbu_0, # of connection points: 5
#     Node 3, Type 0, BuildingBlock: BEQFEK_clean_sbu_0, # of connection points: 5
#     Node 4, Type 0, BuildingBlock: BEQFEK_clean_sbu_0, # of connection points: 5
#     Node 5, Type 0, BuildingBlock: BEQFEK_clean_sbu_0, # of connection points: 5
#     Node 6, Type 0, BuildingBlock: BEQFEK_clean_sbu_0, # of connection points: 5
#     Node 7, Type 0, BuildingBlock: BEQFEK_clean_sbu_0, # of connection points: 5
#     Node 8, Type 0, BuildingBlock: BEQFEK_clean_sbu_0, # of connection points: 5
#     Node 9, Type 0, BuildingBlock: BEQFEK_clean_sbu_0, # of connection points: 5
#     Node 10, Type 0, BuildingBlock: BEQFEK_clean_sbu_0, # of connection points: 5
#     Node 11, Type 0, BuildingBlock: BEQFEK_clean_sbu_0, # of connection points: 5
#     Node 12, Type 0, BuildingBlock: BEQFEK_clean_sbu_0, # of connection points: 5
#     Node 13, Type 0, BuildingBlock: BEQFEK_clean_sbu_0, # of connection points: 5
#     Node 14, Type 0, BuildingBlock: BEQFEK_clean_sbu_0, # of connection points: 5
#     Node 15, Type 0, BuildingBlock: BEQFEK_clean_sbu_0, # of connection points: 5
#     Node 16, Type 0, BuildingBlock: BEQFEK_clean_sbu_0, # of connection points: 5
#     Node 17, Type 0, BuildingBlock: BEQFEK_clean_sbu_0, # of connection points: 5
#     Node 18, Type 0, BuildingBlock: BEQFEK_clean_sbu_0, # of connection points: 5
#     Node 19, Type 0, BuildingBlock: BEQFEK_clean_sbu_0, # of connection points: 5
#     Node 20, Type 0, BuildingBlock: BEQFEK_clean_sbu_0, # of connection points: 5
#     Node 21, Type 0, BuildingBlock: BEQFEK_clean_sbu_0, # of connection points: 5
#     Node 22, Type 0, BuildingBlock: BEQFEK_clean_sbu_0, # of connection points: 5
#     Node 23, Type 0, BuildingBlock: BEQFEK_clean_sbu_0, # of connection points: 5
#     Edge 24, Type (0, 0), None
#     Edge 25, Type (0, 0), None
#     Edge 26, Type (0, 0), None
#     Edge 27, Type (0, 0), None
#     Edge 28, Type (0, 0), None
#     Edge 29, Type (0, 0), None
#     Edge 30, Type (0, 0), None
#     Edge 31, Type (0, 0), None
#     Edge 32, Type (0, 0), None
#     Edge 33, Type (0, 0), None
#     Edge 34, Type (0, 0), None
#     Edge 35, Type (0, 0), None
#     Edge 36, Type (0, 0), None
#     Edge 37, Type (0, 0), None
#     Edge 38, Type (0, 0), None
#     Edge 39, Type (0, 0), None
#     Edge 40, Type (0, 0), None
#     Edge 41, Type (0, 0), None
#     Edge 42, Type (0, 0), None
#     Edge 43, Type (0, 0), None
#     Edge 44, Type (0, 0), None
#     Edge 45, Type (0, 0), None
#     Edge 46, Type (0, 0), None
#     Edge 47, Type (0, 0), None
#     Edge 48, Type (0, 0), None
#     Edge 49, Type (0, 0), None
#     Edge 50, Type (0, 0), None
#     Edge 51, Type (0, 0), None
#     Edge 52, Type (0, 0), None
#     Edge 53, Type (0, 0), None
#     Edge 54, Type (0, 0), None
#     Edge 55, Type (0, 0), None
#     Edge 56, Type (0, 0), None
#     Edge 57, Type (0, 0), None
#     Edge 58, Type (0, 0), None
#     Edge 59, Type (0, 0), None
#     Edge 60, Type (0, 0), None
#     Edge 61, Type (0, 0), None
#     Edge 62, Type (0, 0), None
#     Edge 63, Type (0, 0), None
#     Edge 64, Type (0, 0), None
#     Edge 65, Type (0, 0), None
#     Edge 66, Type (0, 0), None
#     Edge 67, Type (0, 0), None
#     Edge 68, Type (0, 0), None
#     Edge 69, Type (0, 0), None
#     Edge 70, Type (0, 0), None
#     Edge 71, Type (0, 0), None
#     Edge 72, Type (0, 0), None
#     Edge 73, Type (0, 0), None
#     Edge 74, Type (0, 0), None
#     Edge 75, Type (0, 0), None
#     Edge 76, Type (0, 0), None
#     Edge 77, Type (0, 0), None
#     Edge 78, Type (0, 0), None
#     Edge 79, Type (0, 0), None
#     Edge 80, Type (0, 0), None
#     Edge 81, Type (0, 0), None
#     Edge 82, Type (0, 0), None
#     Edge 83, Type (0, 0), None
# Relax obj value: 0.413
# Max RMSD: 0.214
# Mean RMSD: 0.214
data_MOF--net-wjr--node1-BEQFEK_clean_sbu_0--edge1-none
_symmetry_space_group_name_H-M    P1
_symmetry_Int_Tables_number       1
_symmetry_cell_setting            triclinic
loop_
_symmetry_equiv_pos_as_xyz
'x, y, z'
_cell_length_a     37.607746
_cell_length_b     38.009844
_cell_length_c     23.079576
_cell_angle_alpha  90.515182
_cell_angle_beta   89.829975
_cell_angle_gamma 119.59439
loop_
_atom_site_label
_atom_site_type_symbol
_atom_site_fract_x
_atom_site_fract_y
_atom_site_fract_z
_atom_type_partial_charge
Co0 Co 0.47822 0.05857 0.1586 0.0
Co1 Co 0.49372 0.13079 0.21511 0.0
C2 C 0.55657 0.1145 0.23952 0.0
O3 O 0.53166 0.08205 0.21174 0.0
O4 O 0.54834 0.14296 0.24348 0.0
C5 C 0.52017 0.04036 0.08356 0.0
O6 O 0.54365 0.07987 0.08522 0.0
C7 C 0.5086 0.21382 0.23139 0.0
C8 C 0.45122 0.20425 0.27134 0.0
C9 C 0.48874 0.23421 0.25123 0.0
N10 N 0.48398 0.17385 0.239 0.0
N11 N 0.4497 0.16835 0.26306 0.0
C12 C 0.55054 0.23208 0.206 0.0
H13 H 0.559 0.20856 0.19674 0.0
H14 H 0.55167 0.24801 0.1654 0.0
H15 H 0.57303 0.25468 0.23674 0.0
C16 C 0.45148 0.08606 0.06544 0.0
N17 N 0.46182 0.09204 0.12146 0.0
N18 N 0.49096 0.12879 0.1304 0.0
C19 C 0.50468 0.14579 0.07743 0.0
C20 C 0.47956 0.11892 0.03354 0.0
C21 C 0.4079 0.05863 0.04795 0.0
H22 H 0.38744 0.06268 0.07875 0.0
H23 H 0.40043 0.0266 0.05134 0.0
H24 H 0.40166 0.06537 1.00363 0.0
O25 O 0.43363 1.02225 0.20081 0.0
O26 O 0.44936 0.07517 0.25746 0.0
H27 H 0.53729 0.21 0.07122 0.0
H28 H 0.55696 0.18505 0.0253 0.0
C29 C 0.54368 0.1845 0.06848 0.0
H30 H 0.56608 0.18859 0.10268 0.0
H31 H 0.42502 0.14006 0.27311 0.0
O32 O 0.48382 0.02556 0.1007 0.0
C33 C 0.42822 0.03653 0.24705 0.0
Co34 Co 0.46677 0.49643 0.16311 0.0
Co35 Co 0.38474 0.4784 0.20658 0.0
C36 C 0.46094 0.55262 0.25093 0.0
O37 O 0.48018 0.54031 0.2195 0.0
O38 O 0.42177 0.53237 0.252 0.0
C39 C 0.52896 0.5496 0.09913 0.0
O40 O 0.50689 0.56767 0.09822 0.0
C41 C 0.30762 0.47447 0.25317 0.0
C42 C 0.26187 0.41611 0.21474 0.0
C43 C 0.26562 0.44784 0.24899 0.0
N44 N 0.32739 0.45929 0.22155 0.0
N45 N 0.29962 0.42442 0.1989 0.0
C46 C 0.32879 0.5111 0.29129 0.0
H47 H 0.35615 0.51234 0.31131 0.0
H48 H 0.3391 0.53859 0.26461 0.0
H49 H 0.30821 0.51082 0.32601 0.0
C50 C 0.42998 0.47707 0.0529 0.0
N51 N 0.42812 0.48609 0.1084 0.0
N52 N 0.39223 0.48137 0.12135 0.0
C53 C 0.37068 0.47251 0.07061 0.0
C54 C 0.39444 0.46992 0.025 0.0
C55 C 0.46416 0.47123 0.03051 0.0
H56 H 0.4782 0.46321 0.06617 0.0
H57 H 0.48648 0.49907 1.00803 0.0
H58 H 0.45511 0.44568 1.00113 0.0
O59 O 0.45651 0.44724 0.19658 0.0
O60 O 0.39887 0.43522 0.23955 0.0
H61 H 0.31997 0.46917 0.02307 0.0
H62 H 0.31966 0.4781 0.10067 0.0
C63 C 0.32689 0.46186 0.06654 0.0
H64 H 0.30734 0.42882 0.07292 0.0
H65 H 0.30656 0.40584 0.17333 0.0
O66 O 0.51622 0.51666 0.12539 0.0
C67 C 0.42692 0.42579 0.22944 0.0
Co68 Co 1.00811 0.42763 0.19526 0.0
Co69 Co 0.92991 0.38165 0.25689 0.0
C70 C 0.95772 0.46371 0.26035 0.0
O71 O 0.98998 0.4654 0.23851 0.0
O72 O 0.92484 0.42998 0.26433 0.0
C73 C 0.05664 0.49488 0.12909 0.0
O74 O 0.04361 0.51256 0.16564 0.0
C75 C 0.86192 0.29741 0.26833 0.0
C76 C 0.81895 0.30597 0.32369 0.0
C77 C 0.82219 0.27726 0.29014 0.0
N78 N 0.88069 0.33624 0.28707 0.0
N79 N 0.8548 0.34087 0.32074 0.0
C80 C 0.88096 0.28059 0.22772 0.0
H81 H 0.86549 0.27433 0.18495 0.0
H82 H 0.9141 0.30206 0.22251 0.0
H83 H 0.87689 0.25162 0.24469 0.0
C84 C 0.96538 0.37636 0.09648 0.0
N85 N 0.96739 0.38497 0.15338 0.0
N86 N 0.93085 0.37172 0.17417 0.0
C87 C 0.90433 0.35824 0.1288 0.0
C88 C 0.92542 0.36086 0.07714 0.0
C89 C 1.00199 0.38827 0.05883 0.0
H90 H 1.02796 0.39083 0.08482 0.0
H91 H 1.01101 0.41757 0.038 0.0
H92 H 0.99439 0.36545 0.02378 0.0
O93 O 1.0311 0.40578 0.24709 0.0
O94 O 0.98432 0.4013 0.30825 0.0
H95 H 0.84053 0.31952 0.11349 0.0
H96 H 0.85768 0.37248 0.10724 0.0
C97 C 0.86118 0.34974 0.13275 0.0
H98 H 0.85251 0.35078 0.17847 0.0
H99 H 0.86082 0.36843 0.33925 0.0
O100 O 0.04814 0.45882 0.13704 0.0
C101 C 1.02102 0.40837 0.29833 0.0
Co102 Co 0.56881 0.99205 0.1919 0.0
Co103 Co 0.56176 0.91833 0.24883 0.0
C104 C 0.49845 0.93933 0.27594 0.0
O105 O 0.52209 0.97189 0.2493 0.0
O106 O 0.50568 0.9097 0.27486 0.0
C107 C 0.53812 1.01637 0.10027 0.0
O108 O 0.51882 0.97754 0.08779 0.0
C109 C 0.55319 0.83564 0.26782 0.0
C110 C 0.61138 0.85315 0.31231 0.0
C111 C 0.57695 0.81998 0.28992 0.0
N112 N 0.57264 0.87613 0.27716 0.0
N113 N 0.60713 0.886 0.30473 0.0
C114 C 0.5137 0.81254 0.23578 0.0
H115 H 0.50515 0.83347 0.21472 0.0
H116 H 0.51604 0.79216 0.20312 0.0
H117 H 0.4894 0.79323 0.26686 0.0
C118 C 0.5908 0.96431 0.09306 0.0
N119 N 0.57288 0.95548 0.14491 0.0
N120 N 0.56733 0.9207 0.1631 0.0
C121 C 0.57563 0.90292 0.11717 0.0
C122 C 0.59001 0.92999 0.07032 0.0
C123 C 0.62157 1.00736 0.07944 0.0
H124 H 0.61834 0.02939 0.10681 0.0
H125 H 0.62053 1.01459 0.03404 0.0
H126 H 0.65248 1.01255 0.08987 0.0
O127 O 0.62074 1.02134 0.22511 0.0
O128 O 0.60329 0.9743 0.29135 0.0
H129 H 0.59194 0.86001 0.08199 0.0
H130 H 0.54378 0.83859 0.11969 0.0
C131 C 0.57579 0.86378 0.11983 0.0
H132 H 0.59083 0.86249 0.16033 0.0
H133 H 0.62886 0.91561 0.31592 0.0
O134 O 0.5611 0.02913 0.14431 0.0
C135 C 0.62588 1.01119 0.27462 0.0
Co136 Co 0.62386 0.58927 0.18973 0.0
Co137 Co 0.67707 0.56403 0.24627 0.0
C138 C 0.59375 0.50629 0.25993 0.0
O139 O 0.58879 0.53467 0.23776 0.0
O140 O 0.62922 0.50938 0.2597 0.0
C141 C 0.57198 0.57249 0.09864 0.0
O142 O 0.59035 0.55239 0.08237 0.0
C143 C 0.74443 0.54444 0.26579 0.0
C144 C 0.7947 0.60359 0.29436 0.0
C145 C 0.78657 0.56531 0.27704 0.0
N146 N 0.72903 0.56963 0.27434 0.0
N147 N 0.75942 0.60474 0.29243 0.0
C148 C 0.71957 0.50175 0.24444 0.0
H149 H 0.68829 0.49493 0.2324 0.0
H150 H 0.7344 0.49631 0.20653 0.0
H151 H 0.71773 0.48089 0.27913 0.0
C152 C 0.67341 0.60142 0.08636 0.0
N153 N 0.664 0.59039 0.14191 0.0
N154 N 0.68428 0.57332 0.16101 0.0
C155 C 0.7046 0.56914 0.11455 0.0
C156 C 0.69673 0.58513 0.0643 0.0
C157 C 0.6628 0.63028 0.05771 0.0
H158 H 0.64613 0.63994 0.08742 0.0
H159 H 0.64472 0.6168 1.01766 0.0
H160 H 0.6912 0.65855 0.04764 0.0
O161 O 0.64972 0.63728 0.23583 0.0
O162 O 0.65436 0.59718 0.29815 0.0
H163 H 0.75478 0.56353 0.07974 0.0
H164 H 0.71886 0.52179 0.12397 0.0
C165 C 0.7351 0.55506 0.11879 0.0
H166 H 0.75501 0.56941 0.15684 0.0
H167 H 0.75663 0.63038 0.30012 0.0
O168 O 0.58594 0.59618 0.14168 0.0
C169 C 0.64608 0.6256 0.28716 0.0
Co170 Co 0.10383 0.5868 0.13684 0.0
Co171 Co 0.14613 0.66491 0.209 0.0
C172 C 0.14391 0.58344 0.24432 0.0
O173 O 0.12502 0.5652 0.19829 0.0
O174 O 0.15289 0.62042 0.2535 0.0
C175 C 0.07235 0.5133 0.07358 0.0
O176 O 0.06866 0.49111 0.0277 0.0
C177 C 0.22077 0.74507 0.23803 0.0
C178 C 0.19232 0.77156 0.29403 0.0
C179 C 0.22929 0.77991 0.26947 0.0
N180 N 0.18063 0.71757 0.24434 0.0
N181 N 0.1642 0.73371 0.27853 0.0
C182 C 0.24947 0.73917 0.19959 0.0
H183 H 0.23247 0.71396 0.16853 0.0
H184 H 0.26968 0.76749 0.176 0.0
H185 H 0.26889 0.73144 0.22672 0.0
C186 C 0.15889 0.6385 0.04805 0.0
N187 N 0.14822 0.63344 0.10431 0.0
N188 N 0.15643 0.66812 0.12709 0.0
C189 C 0.16698 0.69515 0.08338 0.0
C190 C 0.16879 0.6771 0.03083 0.0
C191 C 0.15929 0.60657 1.01017 0.0
H192 H 0.13131 0.5919 0.98373 0.0
H193 H 0.16146 0.58352 0.03676 0.0
H194 H 0.18556 0.62033 0.97991 0.0
O195 O 0.05458 0.59332 0.16983 0.0
O196 O 0.08791 0.65049 0.22013 0.0
H197 H 0.15484 0.74173 0.05431 0.0
H198 H 0.20357 0.75926 0.08839 0.0
C199 C 0.17074 0.73595 0.09031 0.0
H200 H 0.15805 0.7385 0.13262 0.0
H201 H 0.13333 0.7193 0.28988 0.0
O202 O 0.0865 0.55078 0.06853 0.0
C203 C 0.05416 0.62064 0.20269 0.0
Co204 Co 1.00973 0.58968 0.33662 0.0
Co205 Co 0.92843 0.55437 0.28594 0.0
C206 C 0.95789 0.50106 0.28054 0.0
O207 O 0.99139 0.53254 0.29657 0.0
O208 O 0.92417 0.50138 0.2814 0.0
C209 C 0.04936 0.57413 0.41256 0.0
O210 O 1.01256 0.54259 0.40894 0.0
C211 C 0.85951 0.57236 0.27993 0.0
C212 C 0.81118 0.51719 0.2381 0.0
C213 C 0.81786 0.55249 0.26573 0.0
N214 N 0.87617 0.54963 0.26217 0.0
N215 N 0.84685 0.51676 0.23689 0.0
C216 C 0.88239 0.61094 0.3137 0.0
H217 H 0.86873 0.60707 0.35751 0.0
H218 H 0.91518 0.61986 0.31759 0.0
H219 H 0.87978 0.6354 0.29173 0.0
C220 C 0.97079 0.59455 0.44609 0.0
N221 N 0.97108 0.58883 0.38837 0.0
N222 N 0.93378 0.56718 0.36924 0.0
C223 C 0.90847 0.555 0.41591 0.0
C224 C 0.93106 0.57217 0.46693 0.0
C225 C 1.00836 0.61719 0.48265 0.0
H226 H 1.03448 0.63899 0.45606 0.0
H227 H 1.01616 0.59571 0.50353 0.0
H228 H 1.00244 0.63371 0.51786 0.0
O229 O 1.02332 0.6323 0.28248 0.0
O230 O 0.98054 0.58348 0.22699 0.0
H231 H 0.84515 0.53661 0.42193 0.0
H232 H 0.85801 0.49978 0.44701 0.0
C233 C 0.8646 0.52276 0.41315 0.0
H234 H 0.85695 0.50806 0.36975 0.0
H235 H 0.85065 0.49297 0.22131 0.0
O236 O 0.05857 0.60387 0.38005 0.0
C237 C 1.01621 0.61462 0.23418 0.0
Co238 Co 0.43453 0.98992 0.3869 0.0
Co239 Co 0.37978 0.91376 0.32323 0.0
C240 C 0.46242 0.93731 0.30716 0.0
O241 O 0.4668 0.96914 0.33412 0.0
O242 O 0.427 0.90605 0.3021 0.0
C243 C 0.50096 0.02694 0.45409 0.0
O244 O 0.49798 0.99145 0.4454 0.0
C245 C 0.30678 0.83366 0.2841 0.0
C246 C 0.26327 0.85588 0.27016 0.0
C247 C 0.26596 0.82089 0.27038 0.0
N248 N 0.32681 0.87435 0.2919 0.0
N249 N 0.30049 0.88714 0.28223 0.0
C250 C 0.32549 0.80751 0.29382 0.0
H251 H 0.35586 0.82502 0.31483 0.0
H252 H 0.30486 0.78095 0.32042 0.0
H253 H 0.32979 0.79624 0.25138 0.0
C254 C 0.39127 0.94568 0.48977 0.0
N255 N 0.3944 0.94933 0.43189 0.0
N256 N 0.37532 0.9136 0.40725 0.0
C257 C 0.36197 0.88556 0.44983 0.0
C258 C 0.3719 0.90495 0.50402 0.0
C259 C 0.41268 0.98044 0.53126 0.0
H260 H 0.41536 1.00839 0.51244 0.0
H261 H 0.44363 0.98531 0.54085 0.0
H262 H 0.39562 0.97376 0.57273 0.0
O263 O 0.41377 1.01891 0.34443 0.0
O264 O 0.3963 0.96904 0.28258 0.0
H265 H 0.31909 0.82943 0.41096 0.0
H266 H 0.33819 0.82451 0.48055 0.0
C267 C 0.34643 0.84156 0.43931 0.0
H268 H 0.3703 0.83755 0.41679 0.0
H269 H 0.30751 0.91723 0.28686 0.0
O270 O 0.47261 0.03247 0.43631 0.0
C271 C 0.40711 1.00633 0.29312 0.0
Co272 Co 0.47739 0.43171 0.36396 0.0
Co273 Co 0.50685 0.38367 0.29873 0.0
C274 C 0.55825 0.46918 0.28605 0.0
O275 O 0.529 0.47115 0.31252 0.0
O276 O 0.55784 0.43546 0.28266 0.0
C277 C 0.49622 0.48958 0.44532 0.0
O278 O 0.53045 0.48837 0.44246 0.0
C279 C 0.48616 0.29963 0.27528 0.0
C280 C 0.53957 0.30755 0.22515 0.0
C281 C 0.50361 0.27833 0.25027 0.0
N282 N 0.51087 0.33939 0.26585 0.0
N283 N 0.54265 0.34386 0.23552 0.0
C284 C 0.44775 0.28284 0.31025 0.0
H285 H 0.45075 0.2674 0.34899 0.0
H286 H 0.44136 0.30721 0.32403 0.0
H287 H 0.4217 0.26006 0.28405 0.0
C288 C 0.47942 0.38453 0.46445 0.0
N289 N 0.48338 0.39373 0.40781 0.0
N290 N 0.50051 0.37549 0.38122 0.0
C291 C 0.51168 0.35712 0.42157 0.0
C292 C 0.49852 0.36199 0.47634 0.0
C293 C 0.46185 0.40089 0.50838 0.0
H294 H 0.43771 0.4055 0.48839 0.0
H295 H 0.48629 0.43017 0.52564 0.0
H296 H 0.44879 0.3798 0.54531 0.0
O297 O 0.42727 0.40296 0.32109 0.0
O298 O 0.46356 0.39284 0.2559 0.0
H299 H 0.5205 0.30677 0.40478 0.0
H300 H 0.56096 0.34671 0.44584 0.0
C301 C 0.5393 0.34012 0.4094 0.0
H302 H 0.55644 0.3526 0.36857 0.0
H303 H 0.56708 0.3718 0.2235 0.0
O304 O 0.46618 0.46484 0.41531 0.0
C305 C 0.4342 0.39962 0.26875 0.0
Co306 Co 0.09978 0.5164 0.40035 0.0
Co307 Co 0.1484 0.48255 0.33869 0.0
C308 C 0.14355 0.55772 0.29348 0.0
O309 O 0.1224 0.55626 0.33719 0.0
O310 O 0.15575 0.53162 0.28747 0.0
C311 C 0.08072 0.57053 0.443 0.0
O312 O 0.11894 0.59779 0.43287 0.0
C313 C 0.22067 0.47779 0.28929 0.0
C314 C 0.19681 0.41207 0.2977 0.0
C315 C 0.23055 0.44732 0.27932 0.0
N316 N 0.18298 0.46098 0.31322 0.0
N317 N 0.16924 0.42175 0.31818 0.0
C318 C 0.24478 0.52122 0.27219 0.0
H319 H 0.22392 0.53235 0.25833 0.0
H320 H 0.26227 0.53953 0.31031 0.0
H321 H 0.26641 0.52534 0.23667 0.0
C322 C 0.14697 0.51838 0.50096 0.0
N323 N 0.1406 0.51382 0.44344 0.0
N324 N 0.15549 0.4918 0.42221 0.0
C325 C 0.16781 0.47788 0.46769 0.0
C326 C 0.1627 0.4943 0.51976 0.0
C327 C 0.13385 0.54195 0.53876 0.0
H328 H 0.14425 0.57211 0.51966 0.0
H329 H 0.14663 0.54598 0.58314 0.0
H330 H 0.10018 0.5259 0.54101 0.0
O331 O 0.05472 0.46268 0.36691 0.0
O332 O 0.09101 0.43918 0.32262 0.0
H333 H 0.18815 0.43896 0.50501 0.0
H334 H 0.20381 0.45417 0.43078 0.0
C335 C 0.17863 0.44512 0.46253 0.0
H336 H 0.15176 0.41715 0.44598 0.0
H337 H 0.14065 0.40136 0.33508 0.0
O338 O 0.07193 0.53448 0.45208 0.0
C339 C 0.05639 0.43549 0.33606 0.0
Co340 Co 0.60628 0.08504 0.38766 0.0
Co341 Co 0.67763 0.13524 0.30942 0.0
C342 C 0.58828 0.1147 0.27934 0.0
O343 O 0.57537 0.09347 0.32487 0.0
O344 O 0.62703 0.13563 0.26934 0.0
C345 C 0.54108 0.06195 0.45736 0.0
O346 O 0.54545 0.09695 0.44122 0.0
C347 C 0.74854 0.21618 0.29754 0.0
C348 C 0.79198 0.20549 0.2467 0.0
C349 C 0.7888 0.23518 0.27792 0.0
N350 N 0.7293 0.17721 0.27978 0.0
N351 N 0.75547 0.17113 0.24895 0.0
C352 C 0.72906 0.23411 0.33528 0.0
H353 H 0.69577 0.21294 0.33971 0.0
H354 H 0.74364 0.24103 0.37875 0.0
H355 H 0.73379 0.26283 0.31632 0.0
C356 C 0.65754 0.14219 0.47577 0.0
N357 N 0.64901 0.13334 0.41923 0.0
N358 N 0.68292 0.14389 0.39141 0.0
C359 C 0.71329 0.1546 0.43071 0.0
C360 C 0.69811 0.15351 0.48643 0.0
C361 C 0.62638 0.13591 0.52062 0.0
H362 H 0.60644 0.14761 0.5047 0.0
H363 H 0.64093 0.1513 0.56201 0.0
H364 H 0.60741 0.10345 0.52841 0.0
O365 O 0.6214 0.04476 0.35675 0.0
O366 O 0.66909 0.08015 0.29215 0.0
H367 H 0.76523 0.14747 0.45129 0.0
H368 H 0.77645 0.19224 0.4117 0.0
C369 C 0.75424 0.15952 0.41619 0.0
H370 H 0.75286 0.14405 0.37455 0.0
H371 H 0.74906 0.1431 0.23182 0.0
O372 O 0.56993 0.05481 0.44863 0.0
C373 C 0.644 0.04615 0.3148 0.0
Co374 Co 0.53773 0.59462 0.39733 0.0
Co375 Co 0.56193 0.66921 0.32505 0.0
C376 C 0.48592 0.5824 0.29716 0.0
O377 O 0.4925 0.56718 0.3418 0.0
O378 O 0.50999 0.62001 0.28533 0.0
C379 C 0.49751 0.52684 0.462 0.0
O380 O 0.46519 0.53026 0.45027 0.0
C381 C 0.55771 0.74604 0.31294 0.0
C382 C 0.59707 0.77357 0.23701 0.0
C383 C 0.57403 0.78018 0.27806 0.0
N384 N 0.57016 0.72024 0.29305 0.0
N385 N 0.59324 0.73694 0.24701 0.0
C386 C 0.53223 0.73926 0.36585 0.0
H387 H 0.51428 0.70652 0.37572 0.0
H388 H 0.55252 0.75545 0.40309 0.0
H389 H 0.51138 0.75179 0.35959 0.0
C390 C 0.53545 0.64371 0.49029 0.0
N391 N 0.53572 0.63831 0.43282 0.0
N392 N 0.56048 0.67271 0.40849 0.0
C393 C 0.58159 0.6997 0.45133 0.0
C394 C 0.5664 0.68195 0.50539 0.0
C395 C 0.50806 0.61152 0.53145 0.0
H396 H 0.47838 0.59111 0.51035 0.0
H397 H 0.5026 0.6251 0.57084 0.0
H398 H 0.52255 0.59394 0.54504 0.0
O399 O 0.59186 0.60612 0.35747 0.0
O400 O 0.60916 0.66061 0.30489 0.0
H401 H 0.64631 0.73763 0.45868 0.0
H402 H 0.61756 0.76349 0.46547 0.0
C403 C 0.61959 0.73912 0.44142 0.0
H404 H 0.6241 0.74619 0.39452 0.0
H405 H 0.60763 0.72393 0.22352 0.0
O406 O 0.5324 0.55766 0.45785 0.0
C407 C 0.61643 0.63283 0.3221 0.0
Co408 Co 0.60277 0.98563 0.88468 0.0
Co409 Co 0.58912 0.91404 0.82776 0.0
C410 C 0.52547 0.92915 0.80304 0.0
O411 O 0.54963 0.96152 0.83147 0.0
O412 O 0.53452 0.90127 0.79863 0.0
C413 C 0.56005 1.00337 0.95861 0.0
O414 O 0.53658 0.96387 0.95626 0.0
C415 C 0.57567 0.83155 0.81096 0.0
C416 C 0.63348 0.84223 0.77118 0.0
C417 C 0.59608 0.81177 0.79082 0.0
N418 N 0.59986 0.87164 0.80391 0.0
N419 N 0.63443 0.8778 0.78001 0.0
C420 C 0.53359 0.81263 0.83599 0.0
H421 H 0.52476 0.83582 0.8458 0.0
H422 H 0.53246 0.79635 0.87623 0.0
H423 H 0.51138 0.79024 0.80477 0.0
C424 C 0.63024 0.95886 0.9777 0.0
N425 N 0.62032 0.95287 0.92153 0.0
N426 N 0.59144 0.916 0.91238 0.0
C427 C 0.57739 0.89891 0.96519 0.0
C428 C 0.602 0.92592 1.00927 0.0
C429 C 0.67369 0.98626 0.99578 0.0
H430 H 0.69438 0.98233 0.96528 0.0
H431 H 0.68114 1.01828 0.99247 0.0
H432 H 0.67963 0.97941 0.0402 0.0
O433 O 0.64648 1.02259 0.84211 0.0
O434 O 0.6331 0.96993 0.78615 0.0
H435 H 0.54505 0.83466 0.97093 0.0
H436 H 0.52489 0.85924 1.01671 0.0
C437 C 0.53846 0.86004 0.97368 0.0
H438 H 0.51621 0.85592 0.93922 0.0
H439 H 0.65885 0.90633 0.77029 0.0
O440 O 0.59661 1.01826 0.94248 0.0
C441 C 0.65309 1.00862 0.79648 0.0
Co442 Co 0.63091 0.55488 0.88741 0.0
Co443 Co 0.68731 0.55027 0.82903 0.0
C444 C 0.61047 0.48644 0.79778 0.0
O445 O 0.60082 0.50916 0.8266 0.0
O446 O 0.64758 0.49574 0.79682 0.0
C447 C 0.5638 0.50695 0.96234 0.0
O448 O 0.54823 0.48465 1.00851 0.0
C449 C 0.77616 0.57575 0.80578 0.0
C450 C 0.76892 0.54712 0.71972 0.0
C451 C 0.79747 0.56792 0.76255 0.0
N452 N 0.73664 0.55943 0.78938 0.0
N453 N 0.73298 0.54295 0.73749 0.0
C454 C 0.79261 0.59632 0.8628 0.0
H455 H 0.799 0.57643 0.89067 0.0
H456 H 0.7705 0.60318 0.88479 0.0
H457 H 0.82171 0.62496 0.85635 0.0
C458 C 0.69755 0.59987 0.95481 0.0
N459 N 0.68789 0.57734 0.90605 0.0
N460 N 0.69399 0.54676 0.91348 0.0
C461 C 0.69857 0.5443 0.97142 0.0
C462 C 0.70208 0.57866 1.00043 0.0
C463 C 0.71951 0.64509 0.95075 0.0
H464 H 0.73883 0.65462 0.91124 0.0
H465 H 0.69703 0.65573 0.94559 0.0
H466 H 0.73953 0.65963 0.98893 0.0
O467 O 0.6278 0.60001 0.85961 0.0
O468 O 0.67162 0.59518 0.79993 0.0
H469 H 0.72599 0.51245 1.00944 0.0
H470 H 0.67582 0.49879 0.03739 0.0
C471 C 0.69508 0.50703 0.99793 0.0
H472 H 0.6815 0.48148 0.96639 0.0
H473 H 0.70546 0.52761 0.71472 0.0
O474 O 0.60187 0.53175 0.96065 0.0
C475 C 0.65022 0.6121 0.81494 0.0
Co476 Co 0.07271 0.6192 0.8486 0.0
Co477 Co 0.1524 0.66287 0.79233 0.0
C478 C 0.12178 0.57982 0.78906 0.0
O479 O 0.08887 0.57868 0.80764 0.0
O480 O 0.15528 0.61323 0.78738 0.0
C481 C 1.03391 0.56633 0.92853 0.0
O482 O 0.07109 0.57164 0.92761 0.0
C483 C 0.22103 0.7465 0.77877 0.0
C484 C 0.26535 0.73628 0.72932 0.0
C485 C 0.26118 0.76606 0.75853 0.0
N486 N 0.20286 0.70707 0.76319 0.0
N487 N 0.22956 0.70138 0.7331 0.0
C488 C 0.20069 0.76464 0.81422 0.0
H489 H 0.21622 0.77474 0.85683 0.0
H490 H 0.16786 0.74249 0.82076 0.0
H491 H 0.20347 0.79164 0.79194 0.0
C492 C 0.11608 0.66533 0.95463 0.0
N493 N 0.11348 0.6574 0.89725 0.0
N494 N 0.15006 0.67284 0.87517 0.0
C495 C 0.17739 0.6878 0.91949 0.0
C496 C 0.15679 0.68381 0.97198 0.0
C497 C 0.08009 0.65089 0.99436 0.0
H498 H 0.05232 0.64506 0.96999 0.0
H499 H 0.07485 0.62293 1.01646 0.0
H500 H 0.08642 0.67401 0.02848 0.0
O501 O 0.05672 0.64733 0.79537 0.0
O502 O 0.10038 0.64383 0.73713 0.0
H503 H 0.23964 0.73391 0.91124 0.0
H504 H 0.23273 0.69077 0.95098 0.0
C505 C 0.22167 0.70042 0.91309 0.0
H506 H 0.22687 0.68772 0.87252 0.0
H507 H 0.22401 0.67327 0.71746 0.0
O508 O 1.02504 0.58659 0.8945 0.0
C509 C 0.06487 0.63999 0.74543 0.0
Co510 Co 0.51145 0.0521 0.85053 0.0
Co511 Co 0.51879 0.12563 0.79337 0.0
C512 C 0.58213 0.10513 0.7667 0.0
O513 O 0.55827 0.07244 0.79296 0.0
O514 O 0.57506 0.13485 0.76793 0.0
C515 C 0.54234 0.02756 0.94171 0.0
O516 O 0.56182 0.06641 0.95411 0.0
C517 C 0.52474 0.20719 0.77151 0.0
C518 C 0.46583 0.18688 0.7274 0.0
C519 C 0.49974 0.22115 0.74849 0.0
N520 N 0.50644 0.16657 0.76383 0.0
N521 N 0.47153 0.15505 0.73642 0.0
C522 C 0.56404 0.23192 0.80334 0.0
H523 H 0.57414 0.21216 0.82433 0.0
H524 H 0.56045 0.25151 0.83608 0.0
H525 H 0.58777 0.25211 0.77221 0.0
C526 C 0.49012 0.08016 0.94962 0.0
N527 N 0.50778 0.0888 0.8976 0.0
N528 N 0.51329 0.12352 0.87923 0.0
C529 C 0.50537 0.14154 0.92525 0.0
C530 C 0.49116 0.11462 0.97233 0.0
C531 C 0.45927 0.03719 0.96349 0.0
H532 H 0.46232 1.01504 0.93612 0.0
H533 H 0.46044 0.03003 1.00888 0.0
H534 H 0.42837 0.03211 0.95328 0.0
O535 O 0.45913 0.02308 0.81804 0.0
O536 O 0.47837 0.06943 0.75066 0.0
H537 H 0.49011 0.18512 0.96074 0.0
H538 H 0.53783 0.20584 0.92189 0.0
C539 C 0.50569 0.1809 0.92256 0.0
H540 H 0.49035 0.18215 0.88234 0.0
H541 H 0.45049 0.125 0.72634 0.0
O542 O 0.51917 1.01484 0.89785 0.0
C543 C 0.45517 0.03276 0.76765 0.0
Co544 Co 0.46431 0.46618 0.84586 0.0
Co545 Co 0.40674 0.4852 0.7844 0.0
C546 C 0.48843 0.543 0.76526 0.0
O547 O 0.49449 0.51712 0.79244 0.0
O548 O 0.45272 0.53893 0.76353 0.0
C549 C 0.53758 0.50238 0.91294 0.0
O550 O 0.54827 0.53262 0.8773 0.0
C551 C 0.33717 0.50165 0.77219 0.0
C552 C 0.28679 0.44147 0.74765 0.0
C553 C 0.29475 0.47975 0.76463 0.0
N554 N 0.35316 0.47725 0.76131 0.0
N555 N 0.32264 0.44138 0.74607 0.0
C556 C 0.36206 0.54526 0.7893 0.0
H557 H 0.39471 0.55411 0.79456 0.0
H558 H 0.3503 0.55123 0.83012 0.0
H559 H 0.35918 0.56416 0.75529 0.0
C560 C 0.40172 0.43828 0.93285 0.0
N561 N 0.41466 0.45382 0.88036 0.0
N562 N 0.40203 0.47897 0.86814 0.0
C563 C 0.3864 0.48549 0.9178 0.0
C564 C 0.38601 0.45976 0.9617 0.0
C565 C 0.39277 0.39632 0.94738 0.0
H566 H 0.36669 0.37447 0.92028 0.0
H567 H 0.41932 0.39237 0.93611 0.0
H568 H 0.38436 0.38936 0.9937 0.0
O569 O 0.44989 0.42015 0.8029 0.0
O570 O 0.42383 0.44466 0.7393 0.0
H571 H 0.3432 0.50566 0.90832 0.0
H572 H 0.3756 0.52617 0.97109 0.0
C573 C 0.37477 0.51752 0.92488 0.0
H574 H 0.39593 0.54456 0.89969 0.0
H575 H 0.3259 0.41609 0.73783 0.0
O576 O 0.50286 0.47076 0.90752 0.0
C577 C 0.43814 0.42075 0.7521 0.0
Co578 Co 0.98421 0.45889 0.90457 0.0
Co579 Co 0.93574 0.37933 0.8386 0.0
C580 C 0.94174 0.46034 0.79723 0.0
O581 O 0.96304 0.47884 0.84136 0.0
O582 O 0.92937 0.42243 0.79003 0.0
C583 C 1.0017 0.52997 0.95351 0.0
O584 O 0.96385 0.51989 0.94043 0.0
C585 C 0.85998 0.29929 0.81043 0.0
C586 C 0.88867 0.27082 0.75908 0.0
C587 C 0.85138 0.26375 0.78075 0.0
N588 N 0.90051 0.32589 0.80589 0.0
N589 N 0.91708 0.30854 0.77446 0.0
C590 C 0.83095 0.3068 0.84557 0.0
H591 H 0.84777 0.33214 0.87661 0.0
H592 H 0.80923 0.27898 0.86901 0.0
H593 H 0.81317 0.31522 0.81608 0.0
C594 C 0.93454 0.41232 1.0027 0.0
N595 N 0.94218 0.41551 0.94538 0.0
N596 N 0.92679 0.37943 0.92192 0.0
C597 C 0.91289 0.35211 0.96563 0.0
C598 C 0.91716 0.37211 1.01881 0.0
C599 C 0.94922 0.44763 0.04366 0.0
H600 H 0.9425 0.47054 0.02549 0.0
H601 H 0.93397 0.43827 0.08639 0.0
H602 H 0.9826 0.46145 0.0504 0.0
O603 O 1.03017 0.44959 0.87235 0.0
O604 O 0.99382 0.39185 0.82494 0.0
H605 H 0.91317 0.29866 0.99498 0.0
H606 H 0.8678 0.28994 0.95736 0.0
C607 C 0.90162 0.30874 0.95809 0.0
H608 H 0.91394 0.30417 0.91672 0.0
H609 H 0.94816 0.32212 0.76468 0.0
O610 O 1.01086 0.50247 0.9594 0.0
C611 C 1.02856 0.42113 0.84057 0.0
Co612 Co 0.07216 0.45566 0.70695 0.0
Co613 Co 0.15328 0.49023 0.75933 0.0
C614 C 0.12185 0.54251 0.76852 0.0
O615 O 0.08877 0.51133 0.75064 0.0
O616 O 0.15573 0.54247 0.76765 0.0
C617 C 1.03531 0.47394 0.63023 0.0
O618 O 0.07183 0.50547 0.63723 0.0
C619 C 0.22181 0.47232 0.76442 0.0
C620 C 0.27052 0.52756 0.80565 0.0
C621 C 0.26353 0.49225 0.77772 0.0
N622 N 0.20536 0.49504 0.78284 0.0
N623 N 0.23484 0.52794 0.80784 0.0
C624 C 0.19869 0.43385 0.73045 0.0
H625 H 0.21212 0.43782 0.68648 0.0
H626 H 0.1659 0.42501 0.72701 0.0
H627 H 0.20137 0.40929 0.75202 0.0
C628 C 0.11302 0.45295 0.59825 0.0
N629 N 0.11198 0.45809 0.65598 0.0
N630 N 0.14906 0.47943 0.67604 0.0
C631 C 0.175 0.49214 0.63013 0.0
C632 C 0.15302 0.4756 0.57861 0.0
C633 C 0.07598 0.43005 0.56076 0.0
H634 H 0.04973 0.4078 0.58672 0.0
H635 H 0.0679 0.45125 0.53972 0.0
H636 H 0.08271 0.41403 0.52568 0.0
O637 O 0.05738 0.41104 0.75771 0.0
O638 O 0.10119 0.45754 0.81561 0.0
H639 H 0.23822 0.50967 0.62825 0.0
H640 H 0.22674 0.54661 0.59941 0.0
C641 C 0.21895 0.52404 0.63429 0.0
H642 H 0.2257 0.5393 0.67728 0.0
H643 H 0.23116 0.55174 0.82367 0.0
O644 O 1.02487 0.44315 0.66106 0.0
C645 C 0.06545 0.42672 0.80743 0.0
Co646 Co 0.64703 0.05506 0.65678 0.0
Co647 Co 0.70115 0.13132 0.72075 0.0
C648 C 0.61837 0.10728 0.73596 0.0
O649 O 0.6143 0.07552 0.70918 0.0
O650 O 0.65367 0.13868 0.7412 0.0
C651 C 0.5805 1.0175 0.58925 0.0
O652 O 0.58251 0.05249 0.59883 0.0
C653 C 0.77402 0.21118 0.76176 0.0
C654 C 0.81598 0.1878 0.78062 0.0
C655 C 0.81413 0.22321 0.77874 0.0
N656 N 0.7536 0.1705 0.7538 0.0
N657 N 0.77897 0.15702 0.7664 0.0
C658 C 0.7564 0.238 0.74967 0.0
H659 H 0.72626 0.22078 0.72795 0.0
H660 H 0.77786 0.26399 0.72279 0.0
H661 H 0.75194 0.25013 0.79124 0.0
C662 C 0.69067 0.09923 0.55434 0.0
N663 N 0.68737 0.09577 0.61222 0.0
N664 N 0.70616 0.13158 0.63672 0.0
C665 C 0.71936 0.15947 0.59394 0.0
C666 C 0.70964 0.13987 0.53988 0.0
C667 C 0.66968 0.06428 0.51305 0.0
H668 H 0.66735 0.03655 0.53219 0.0
H669 H 0.63859 0.05895 0.50322 0.0
H670 H 0.68684 0.071 0.47167 0.0
O671 O 0.66798 0.0263 0.69935 0.0
O672 O 0.68469 0.07604 0.76114 0.0
H673 H 0.7617 0.21591 0.63254 0.0
H674 H 0.74251 0.22032 0.56274 0.0
C675 C 0.73439 0.20342 0.6041 0.0
H676 H 0.71028 0.20716 0.62641 0.0
H677 H 0.77151 0.12677 0.76257 0.0
O678 O 0.60921 1.01252 0.60699 0.0
C679 C 0.67433 0.03887 0.75065 0.0
Co680 Co 0.60792 0.6159 0.66977 0.0
Co681 Co 0.57834 0.66327 0.73686 0.0
C682 C 0.52375 0.57945 0.73918 0.0
O683 O 0.55335 0.57705 0.71471 0.0
O684 O 0.52523 0.61351 0.74452 0.0
C685 C 0.58992 0.55814 0.58955 0.0
O686 O 0.55725 0.56211 0.58788 0.0
C687 C 0.5995 0.74703 0.76479 0.0
C688 C 0.54538 0.73793 0.81423 0.0
C689 C 0.58162 0.76772 0.79053 0.0
N690 N 0.5747 0.70706 0.77237 0.0
N691 N 0.54254 0.70189 0.80237 0.0
C692 C 0.63838 0.76468 0.73083 0.0
H693 H 0.63557 0.78025 0.69211 0.0
H694 H 0.64547 0.74078 0.71707 0.0
H695 H 0.66391 0.78749 0.75774 0.0
C696 C 0.60966 0.66639 0.57149 0.0
N697 N 0.60659 0.65748 0.62828 0.0
N698 N 0.58898 0.67507 0.65537 0.0
C699 C 0.57712 0.69315 0.61548 0.0
C700 C 0.5897 0.68825 0.56022 0.0
C701 C 0.62521 0.64862 0.52671 0.0
H702 H 0.64881 0.64273 0.54562 0.0
H703 H 0.5996 0.61991 0.50984 0.0
H704 H 0.63847 0.66954 0.48964 0.0
O705 O 0.65355 0.63691 0.72184 0.0
O706 O 0.61518 0.64683 0.78409 0.0
H707 H 0.56617 0.74131 0.63883 0.0
H708 H 0.52847 0.70463 0.59056 0.0
C709 C 0.54821 0.70853 0.62849 0.0
H710 H 0.52906 0.69276 0.66662 0.0
H711 H 0.51793 0.67369 0.81295 0.0
O712 O 0.62037 0.58374 0.61798 0.0
C713 C 0.64318 0.63769 0.77345 0.0
Co714 Co 0.9853 0.52982 0.64354 0.0
Co715 Co 0.93729 0.56267 0.70762 0.0
C716 C 0.94206 0.48605 0.74812 0.0
O717 O 0.96269 0.48745 0.70383 0.0
O718 O 0.9312 0.51299 0.75545 0.0
C719 C 1.00541 0.47792 0.59652 0.0
O720 O 0.96697 0.44987 0.60256 0.0
C721 C 0.85788 0.55893 0.72742 0.0
C722 C 0.87295 0.60669 0.79327 0.0
C723 C 0.84073 0.57725 0.76123 0.0
N724 N 0.8982 0.57679 0.73876 0.0
N725 N 0.90698 0.60536 0.77822 0.0
C726 C 0.83602 0.52352 0.68721 0.0
H727 H 0.85601 0.51087 0.67487 0.0
H728 H 0.82682 0.53335 0.64757 0.0
H729 H 0.80791 0.49966 0.70816 0.0
C730 C 0.93733 0.52882 0.54384 0.0
N731 N 0.9442 0.53292 0.60134 0.0
N732 N 0.93029 0.55549 0.62357 0.0
C733 C 0.91835 0.57037 0.57879 0.0
C734 C 0.92236 0.55378 0.52613 0.0
C735 C 0.94867 0.5043 0.50503 0.0
H736 H 0.9369 0.47374 0.52343 0.0
H737 H 0.93592 0.50124 0.46082 0.0
H738 H 0.98222 0.51892 0.50241 0.0
O739 O 1.02967 0.5834 0.6799 0.0
O740 O 0.99387 0.60749 0.72456 0.0
H741 H 0.92824 0.62889 0.55534 0.0
H742 H 0.87635 0.59246 0.57191 0.0
C743 C 0.90862 0.60383 0.58493 0.0
H744 H 0.91322 0.6152 0.63026 0.0
H745 H 0.93615 0.62371 0.79539 0.0
O746 O 1.01388 0.51407 0.58926 0.0
C747 C 1.02834 0.61083 0.71082 0.0
Co748 Co 0.47573 0.95804 0.65483 0.0
Co749 Co 0.40439 0.90882 0.7339 0.0
C750 C 0.49387 0.92873 0.76291 0.0
O751 O 0.50681 0.94909 0.71661 0.0
O752 O 0.45521 0.90893 0.77388 0.0
C753 C 0.54083 0.98195 0.58424 0.0
O754 O 0.53713 0.94707 0.59949 0.0
C755 C 0.33418 0.82775 0.74827 0.0
C756 C 0.29049 0.8387 0.79809 0.0
C757 C 0.29406 0.80867 0.76845 0.0
N758 N 0.35301 0.86704 0.76436 0.0
N759 N 0.3267 0.8733 0.79453 0.0
C760 C 0.35379 0.80964 0.71116 0.0
H761 H 0.3868 0.83135 0.70511 0.0
H762 H 0.33834 0.80112 0.66831 0.0
H763 H 0.35032 0.78183 0.73168 0.0
C764 C 0.42367 0.90137 0.56738 0.0
N765 N 0.43246 0.90992 0.6239 0.0
N766 N 0.39876 0.89983 0.65205 0.0
C767 C 0.36834 0.88975 0.61305 0.0
C768 C 0.38329 0.89088 0.55715 0.0
C769 C 0.45445 0.9069 0.52232 0.0
H770 H 0.47435 0.89521 0.53844 0.0
H771 H 0.43952 0.89112 0.48132 0.0
H772 H 0.47358 0.93923 0.5137 0.0
O773 O 0.46154 0.99868 0.6873 0.0
O774 O 0.41246 0.96367 0.75034 0.0
H775 H 0.316 0.89626 0.59241 0.0
H776 H 0.30565 0.85299 0.6353 0.0
C777 C 0.32774 0.88547 0.62818 0.0
H778 H 0.33006 0.90239 0.66875 0.0
H779 H 0.33282 0.90154 0.8104 0.0
O780 O 0.51137 0.98816 0.59298 0.0
C781 C 0.43816 0.99752 0.728 0.0
Co782 Co 0.53745 0.4483 0.64434 0.0
Co783 Co 0.51515 0.37218 0.71209 0.0
C784 C 0.5816 0.458 0.75338 0.0
O785 O 0.57349 0.47385 0.71103 0.0
O786 O 0.56429 0.41927 0.75792 0.0
C787 C 0.58448 0.51793 0.58663 0.0
O788 O 0.61361 0.51203 0.60738 0.0
C789 C 0.5193 0.29532 0.72557 0.0
C790 C 0.47482 0.26552 0.79573 0.0
C791 C 0.50096 0.26034 0.75877 0.0
N792 N 0.50497 0.32019 0.74265 0.0
N793 N 0.47878 0.30213 0.78527 0.0
C794 C 0.54816 0.30366 0.67632 0.0
H795 H 0.56612 0.33664 0.66803 0.0
H796 H 0.53042 0.28805 0.63684 0.0
H797 H 0.569 0.29156 0.68585 0.0
C798 C 0.54923 0.40524 0.5507 0.0
N799 N 0.54618 0.40835 0.60827 0.0
N800 N 0.52189 0.37253 0.62933 0.0
C801 C 0.5036 0.34679 0.58415 0.0
C802 C 0.52026 0.36701 0.53213 0.0
C803 C 0.57607 0.4397 0.51219 0.0
H804 H 0.60562 0.45953 0.53399 0.0
H805 H 0.58199 0.42844 0.4708 0.0
H806 H 0.56088 0.45729 0.50196 0.0
O807 O 0.48039 0.43198 0.67138 0.0
O808 O 0.46781 0.38094 0.72891 0.0
H809 H 0.43943 0.30814 0.57156 0.0
H810 H 0.46948 0.28362 0.56419 0.0
C811 C 0.46588 0.30654 0.58975 0.0
H812 H 0.45975 0.2974 0.63583 0.0
H813 H 0.46259 0.31431 0.80612 0.0
O814 O 0.54794 0.48973 0.58942 0.0
C815 C 0.45831 0.40677 0.70976 0.0
loop_
_geom_bond_atom_site_label_1
_geom_bond_atom_site_label_2
_geom_bond_distance
_geom_bond_site_symmetry_2
_ccdc_geom_bond_type
Co0 O3 1.970 . S
Co0 N17 1.989 . S
Co0 O25 1.967 . S
Co0 O32 1.920 . S
Co1 O4 1.966 . S
Co1 N10 2.022 . S
Co1 N18 1.993 . S
Co1 O26 1.941 . S
C2 O3 1.258 . S
C2 O4 1.263 . S
O3 Co0 1.970 . S
O3 C2 1.258 . S
O4 Co1 1.966 . S
O4 C2 1.263 . S
C5 O6 1.235 . S
C5 O32 1.289 . S
O6 C5 1.235 . S
C7 C9 1.400 . S
C7 N10 1.351 . S
C7 C12 1.501 . S
C8 C9 1.387 . S
C8 N11 1.341 . S
C9 C7 1.400 . S
C9 C8 1.387 . S
N10 Co1 2.022 . S
N10 C7 1.351 . S
N10 N11 1.365 . S
N11 C8 1.341 . S
N11 N10 1.365 . S
N11 H31 0.862 . S
C12 C7 1.501 . S
C12 H13 0.961 . S
C12 H14 0.961 . S
C12 H15 0.960 . S
H13 C12 0.961 . S
H14 C12 0.961 . S
H15 C12 0.960 . S
C16 N17 1.342 . S
C16 C20 1.401 . S
C16 C21 1.499 . S
N17 Co0 1.989 . S
N17 C16 1.342 . S
N17 N18 1.388 . S
N18 Co1 1.993 . S
N18 N17 1.388 . S
N18 C19 1.346 . S
C19 N18 1.346 . S
C19 C20 1.396 . S
C19 C29 1.510 . S
C20 C16 1.401 . S
C20 C19 1.396 . S
C21 C16 1.499 . S
C21 H22 0.959 . S
C21 H23 0.960 1_554 S
C21 H24 0.968 . S
H22 C21 0.959 . S
H23 C21 0.960 1_556 S
H24 C21 0.968 . S
O25 Co0 1.967 . S
O25 C33 1.258 . S
O26 Co1 1.941 . S
O26 C33 1.266 . S
H27 C29 0.959 . S
H28 C29 0.961 . S
C29 C19 1.510 . S
C29 H27 0.959 . S
C29 H28 0.961 . S
C29 H30 0.960 . S
H30 C29 0.960 . S
H31 N11 0.862 . S
O32 Co0 1.920 . S
O32 C5 1.289 . S
C33 O25 1.258 . S
C33 O26 1.266 . S
Co34 O37 1.970 . S
Co34 N51 1.989 . S
Co34 O59 1.967 . S
Co34 O66 1.920 . S
Co35 O38 1.966 . S
Co35 N44 2.022 . S
Co35 N52 1.993 . S
Co35 O60 1.941 . S
C36 O37 1.258 . S
C36 O38 1.263 . S
O37 Co34 1.970 . S
O37 C36 1.258 . S
O38 Co35 1.966 . S
O38 C36 1.263 . S
C39 O40 1.235 . S
C39 O66 1.289 . S
O40 C39 1.235 . S
C41 C43 1.400 . S
C41 N44 1.351 . S
C41 C46 1.501 . S
C42 C43 1.387 . S
C42 N45 1.341 . S
C43 C41 1.400 . S
C43 C42 1.387 . S
N44 Co35 2.022 . S
N44 C41 1.351 . S
N44 N45 1.365 . S
N45 C42 1.341 . S
N45 N44 1.365 . S
N45 H65 0.862 . S
C46 C41 1.501 . S
C46 H47 0.961 . S
C46 H48 0.961 . S
C46 H49 0.960 . S
H47 C46 0.961 . S
H48 C46 0.961 . S
H49 C46 0.960 . S
C50 N51 1.342 . S
C50 C54 1.401 . S
C50 C55 1.499 . S
N51 Co34 1.989 . S
N51 C50 1.342 . S
N51 N52 1.388 . S
N52 Co35 1.993 . S
N52 N51 1.388 . S
N52 C53 1.346 . S
C53 N52 1.346 . S
C53 C54 1.396 . S
C53 C63 1.510 . S
C54 C50 1.401 . S
C54 C53 1.396 . S
C55 C50 1.499 . S
C55 H56 0.959 . S
C55 H57 0.960 1_554 S
C55 H58 0.968 . S
H56 C55 0.959 . S
H57 C55 0.960 1_556 S
H58 C55 0.968 . S
O59 Co34 1.967 . S
O59 C67 1.258 . S
O60 Co35 1.941 . S
O60 C67 1.266 . S
H61 C63 0.959 . S
H62 C63 0.961 . S
C63 C53 1.510 . S
C63 H61 0.959 . S
C63 H62 0.961 . S
C63 H64 0.960 . S
H64 C63 0.960 . S
H65 N45 0.862 . S
O66 Co34 1.920 . S
O66 C39 1.289 . S
C67 O59 1.258 . S
C67 O60 1.266 . S
Co68 O71 1.970 . S
Co68 N85 1.989 . S
Co68 O93 1.967 . S
Co68 O100 1.920 . S
Co69 O72 1.966 . S
Co69 N78 2.022 . S
Co69 N86 1.993 . S
Co69 O94 1.941 . S
C70 O71 1.258 . S
C70 O72 1.263 . S
O71 Co68 1.970 . S
O71 C70 1.258 . S
O72 Co69 1.966 . S
O72 C70 1.263 . S
C73 O74 1.235 . S
C73 O100 1.289 . S
O74 C73 1.235 . S
C75 C77 1.400 . S
C75 N78 1.351 . S
C75 C80 1.501 . S
C76 C77 1.387 . S
C76 N79 1.341 . S
C77 C75 1.400 . S
C77 C76 1.387 . S
N78 Co69 2.022 . S
N78 C75 1.351 . S
N78 N79 1.365 . S
N79 C76 1.341 . S
N79 N78 1.365 . S
N79 H99 0.862 . S
C80 C75 1.501 . S
C80 H81 0.961 . S
C80 H82 0.961 . S
C80 H83 0.960 . S
H81 C80 0.961 . S
H82 C80 0.961 . S
H83 C80 0.960 . S
C84 N85 1.342 . S
C84 C88 1.401 . S
C84 C89 1.499 . S
N85 Co68 1.989 . S
N85 C84 1.342 . S
N85 N86 1.388 . S
N86 Co69 1.993 . S
N86 N85 1.388 . S
N86 C87 1.346 . S
C87 N86 1.346 . S
C87 C88 1.396 . S
C87 C97 1.510 . S
C88 C84 1.401 . S
C88 C87 1.396 . S
C89 C84 1.499 . S
C89 H90 0.959 . S
C89 H91 0.960 1_554 S
C89 H92 0.968 . S
H90 C89 0.959 . S
H91 C89 0.960 1_556 S
H92 C89 0.968 . S
O93 Co68 1.967 . S
O93 C101 1.258 . S
O94 Co69 1.941 . S
O94 C101 1.266 . S
H95 C97 0.959 . S
H96 C97 0.961 . S
C97 C87 1.510 . S
C97 H95 0.959 . S
C97 H96 0.961 . S
C97 H98 0.960 . S
H98 C97 0.960 . S
H99 N79 0.862 . S
O100 Co68 1.920 . S
O100 C73 1.289 . S
C101 O93 1.258 . S
C101 O94 1.266 . S
Co102 O105 1.970 . S
Co102 N119 1.989 . S
Co102 O127 1.967 . S
Co102 O134 1.920 . S
Co103 O106 1.966 . S
Co103 N112 2.022 . S
Co103 N120 1.993 . S
Co103 O128 1.941 . S
C104 O105 1.258 . S
C104 O106 1.263 . S
O105 Co102 1.970 . S
O105 C104 1.258 . S
O106 Co103 1.966 . S
O106 C104 1.263 . S
C107 O108 1.235 . S
C107 O134 1.289 . S
O108 C107 1.235 . S
C109 C111 1.400 . S
C109 N112 1.351 . S
C109 C114 1.501 . S
C110 C111 1.387 . S
C110 N113 1.341 . S
C111 C109 1.400 . S
C111 C110 1.387 . S
N112 Co103 2.022 . S
N112 C109 1.351 . S
N112 N113 1.365 . S
N113 C110 1.341 . S
N113 N112 1.365 . S
N113 H133 0.862 . S
C114 C109 1.501 . S
C114 H115 0.961 . S
C114 H116 0.961 . S
C114 H117 0.960 . S
H115 C114 0.961 . S
H116 C114 0.961 . S
H117 C114 0.960 . S
C118 N119 1.342 . S
C118 C122 1.401 . S
C118 C123 1.499 . S
N119 Co102 1.989 . S
N119 C118 1.342 . S
N119 N120 1.388 . S
N120 Co103 1.993 . S
N120 N119 1.388 . S
N120 C121 1.346 . S
C121 N120 1.346 . S
C121 C122 1.396 . S
C121 C131 1.510 . S
C122 C118 1.401 . S
C122 C121 1.396 . S
C123 C118 1.499 . S
C123 H124 0.959 . S
C123 H125 0.960 1_554 S
C123 H126 0.968 . S
H124 C123 0.959 . S
H125 C123 0.960 1_556 S
H126 C123 0.968 . S
O127 Co102 1.967 . S
O127 C135 1.258 . S
O128 Co103 1.941 . S
O128 C135 1.266 . S
H129 C131 0.959 . S
H130 C131 0.961 . S
C131 C121 1.510 . S
C131 H129 0.959 . S
C131 H130 0.961 . S
C131 H132 0.960 . S
H132 C131 0.960 . S
H133 N113 0.862 . S
O134 Co102 1.920 . S
O134 C107 1.289 . S
C135 O127 1.258 . S
C135 O128 1.266 . S
Co136 O139 1.970 . S
Co136 N153 1.989 . S
Co136 O161 1.967 . S
Co136 O168 1.920 . S
Co137 O140 1.966 . S
Co137 N146 2.022 . S
Co137 N154 1.993 . S
Co137 O162 1.941 . S
C138 O139 1.258 . S
C138 O140 1.263 . S
O139 Co136 1.970 . S
O139 C138 1.258 . S
O140 Co137 1.966 . S
O140 C138 1.263 . S
C141 O142 1.235 . S
C141 O168 1.289 . S
O142 C141 1.235 . S
C143 C145 1.400 . S
C143 N146 1.351 . S
C143 C148 1.501 . S
C144 C145 1.387 . S
C144 N147 1.341 . S
C145 C143 1.400 . S
C145 C144 1.387 . S
N146 Co137 2.022 . S
N146 C143 1.351 . S
N146 N147 1.365 . S
N147 C144 1.341 . S
N147 N146 1.365 . S
N147 H167 0.862 . S
C148 C143 1.501 . S
C148 H149 0.961 . S
C148 H150 0.961 . S
C148 H151 0.960 . S
H149 C148 0.961 . S
H150 C148 0.961 . S
H151 C148 0.960 . S
C152 N153 1.342 . S
C152 C156 1.401 . S
C152 C157 1.499 . S
N153 Co136 1.989 . S
N153 C152 1.342 . S
N153 N154 1.388 . S
N154 Co137 1.993 . S
N154 N153 1.388 . S
N154 C155 1.346 . S
C155 N154 1.346 . S
C155 C156 1.396 . S
C155 C165 1.510 . S
C156 C152 1.401 . S
C156 C155 1.396 . S
C157 C152 1.499 . S
C157 H158 0.959 . S
C157 H159 0.960 1_554 S
C157 H160 0.968 . S
H158 C157 0.959 . S
H159 C157 0.960 1_556 S
H160 C157 0.968 . S
O161 Co136 1.967 . S
O161 C169 1.258 . S
O162 Co137 1.941 . S
O162 C169 1.266 . S
H163 C165 0.959 . S
H164 C165 0.961 . S
C165 C155 1.510 . S
C165 H163 0.959 . S
C165 H164 0.961 . S
C165 H166 0.960 . S
H166 C165 0.960 . S
H167 N147 0.862 . S
O168 Co136 1.920 . S
O168 C141 1.289 . S
C169 O161 1.258 . S
C169 O162 1.266 . S
Co170 O173 1.970 . S
Co170 N187 1.989 . S
Co170 O195 1.967 . S
Co170 O202 1.920 . S
Co171 O174 1.966 . S
Co171 N180 2.022 . S
Co171 N188 1.993 . S
Co171 O196 1.941 . S
C172 O173 1.258 . S
C172 O174 1.263 . S
O173 Co170 1.970 . S
O173 C172 1.258 . S
O174 Co171 1.966 . S
O174 C172 1.263 . S
C175 O176 1.235 . S
C175 O202 1.289 . S
O176 C175 1.235 . S
C177 C179 1.400 . S
C177 N180 1.351 . S
C177 C182 1.501 . S
C178 C179 1.387 . S
C178 N181 1.341 . S
C179 C177 1.400 . S
C179 C178 1.387 . S
N180 Co171 2.022 . S
N180 C177 1.351 . S
N180 N181 1.365 . S
N181 C178 1.341 . S
N181 N180 1.365 . S
N181 H201 0.862 . S
C182 C177 1.501 . S
C182 H183 0.961 . S
C182 H184 0.961 . S
C182 H185 0.960 . S
H183 C182 0.961 . S
H184 C182 0.961 . S
H185 C182 0.960 . S
C186 N187 1.342 . S
C186 C190 1.401 . S
C186 C191 1.499 . S
N187 Co170 1.989 . S
N187 C186 1.342 . S
N187 N188 1.388 . S
N188 Co171 1.993 . S
N188 N187 1.388 . S
N188 C189 1.346 . S
C189 N188 1.346 . S
C189 C190 1.396 . S
C189 C199 1.510 . S
C190 C186 1.401 . S
C190 C189 1.396 . S
C191 C186 1.499 . S
C191 H192 0.959 . S
C191 H193 0.960 1_554 S
C191 H194 0.968 . S
H192 C191 0.959 . S
H193 C191 0.960 1_556 S
H194 C191 0.968 . S
O195 Co170 1.967 . S
O195 C203 1.258 . S
O196 Co171 1.941 . S
O196 C203 1.266 . S
H197 C199 0.959 . S
H198 C199 0.961 . S
C199 C189 1.510 . S
C199 H197 0.959 . S
C199 H198 0.961 . S
C199 H200 0.960 . S
H200 C199 0.960 . S
H201 N181 0.862 . S
O202 Co170 1.920 . S
O202 C175 1.289 . S
C203 O195 1.258 . S
C203 O196 1.266 . S
Co204 O207 1.970 . S
Co204 N221 1.989 . S
Co204 O229 1.967 . S
Co204 O236 1.920 . S
Co205 O208 1.966 . S
Co205 N214 2.022 . S
Co205 N222 1.993 . S
Co205 O230 1.941 . S
C206 O207 1.258 . S
C206 O208 1.263 . S
O207 Co204 1.970 . S
O207 C206 1.258 . S
O208 Co205 1.966 . S
O208 C206 1.263 . S
C209 O210 1.235 . S
C209 O236 1.289 . S
O210 C209 1.235 . S
C211 C213 1.400 . S
C211 N214 1.351 . S
C211 C216 1.501 . S
C212 C213 1.387 . S
C212 N215 1.341 . S
C213 C211 1.400 . S
C213 C212 1.387 . S
N214 Co205 2.022 . S
N214 C211 1.351 . S
N214 N215 1.365 . S
N215 C212 1.341 . S
N215 N214 1.365 . S
N215 H235 0.862 . S
C216 C211 1.501 . S
C216 H217 0.961 . S
C216 H218 0.961 . S
C216 H219 0.960 . S
H217 C216 0.961 . S
H218 C216 0.961 . S
H219 C216 0.960 . S
C220 N221 1.342 . S
C220 C224 1.401 . S
C220 C225 1.499 . S
N221 Co204 1.989 . S
N221 C220 1.342 . S
N221 N222 1.388 . S
N222 Co205 1.993 . S
N222 N221 1.388 . S
N222 C223 1.346 . S
C223 N222 1.346 . S
C223 C224 1.396 . S
C223 C233 1.510 . S
C224 C220 1.401 . S
C224 C223 1.396 . S
C225 C220 1.499 . S
C225 H226 0.959 . S
C225 H227 0.960 . S
C225 H228 0.961 . S
H226 C225 0.959 . S
H227 C225 0.960 . S
H228 C225 0.961 . S
O229 Co204 1.967 . S
O229 C237 1.258 . S
O230 Co205 1.941 . S
O230 C237 1.266 . S
H231 C233 0.959 . S
H232 C233 0.961 . S
C233 C223 1.510 . S
C233 H231 0.959 . S
C233 H232 0.961 . S
C233 H234 0.960 . S
H234 C233 0.960 . S
H235 N215 0.862 . S
O236 Co204 1.920 . S
O236 C209 1.289 . S
C237 O229 1.258 . S
C237 O230 1.266 . S
Co238 O241 1.970 . S
Co238 N255 1.989 . S
Co238 O263 1.967 . S
Co238 O270 1.920 . S
Co239 O242 1.966 . S
Co239 N248 2.022 . S
Co239 N256 1.993 . S
Co239 O264 1.941 . S
C240 O241 1.258 . S
C240 O242 1.263 . S
O241 Co238 1.970 . S
O241 C240 1.258 . S
O242 Co239 1.966 . S
O242 C240 1.263 . S
C243 O244 1.235 . S
C243 O270 1.289 . S
O244 C243 1.235 . S
C245 C247 1.400 . S
C245 N248 1.351 . S
C245 C250 1.501 . S
C246 C247 1.387 . S
C246 N249 1.341 . S
C247 C245 1.400 . S
C247 C246 1.387 . S
N248 Co239 2.022 . S
N248 C245 1.351 . S
N248 N249 1.365 . S
N249 C246 1.341 . S
N249 N248 1.365 . S
N249 H269 0.862 . S
C250 C245 1.501 . S
C250 H251 0.961 . S
C250 H252 0.961 . S
C250 H253 0.960 . S
H251 C250 0.961 . S
H252 C250 0.961 . S
H253 C250 0.960 . S
C254 N255 1.342 . S
C254 C258 1.401 . S
C254 C259 1.499 . S
N255 Co238 1.989 . S
N255 C254 1.342 . S
N255 N256 1.388 . S
N256 Co239 1.993 . S
N256 N255 1.388 . S
N256 C257 1.346 . S
C257 N256 1.346 . S
C257 C258 1.396 . S
C257 C267 1.510 . S
C258 C254 1.401 . S
C258 C257 1.396 . S
C259 C254 1.499 . S
C259 H260 0.959 . S
C259 H261 0.960 . S
C259 H262 0.961 . S
H260 C259 0.959 . S
H261 C259 0.960 . S
H262 C259 0.961 . S
O263 Co238 1.967 . S
O263 C271 1.258 . S
O264 Co239 1.941 . S
O264 C271 1.266 . S
H265 C267 0.959 . S
H266 C267 0.961 . S
C267 C257 1.510 . S
C267 H265 0.959 . S
C267 H266 0.961 . S
C267 H268 0.960 . S
H268 C267 0.960 . S
H269 N249 0.862 . S
O270 Co238 1.920 . S
O270 C243 1.289 . S
C271 O263 1.258 . S
C271 O264 1.266 . S
Co272 O275 1.970 . S
Co272 N289 1.989 . S
Co272 O297 1.967 . S
Co272 O304 1.920 . S
Co273 O276 1.966 . S
Co273 N282 2.022 . S
Co273 N290 1.993 . S
Co273 O298 1.941 . S
C274 O275 1.258 . S
C274 O276 1.263 . S
O275 Co272 1.970 . S
O275 C274 1.258 . S
O276 Co273 1.966 . S
O276 C274 1.263 . S
C277 O278 1.235 . S
C277 O304 1.289 . S
O278 C277 1.235 . S
C279 C281 1.400 . S
C279 N282 1.351 . S
C279 C284 1.501 . S
C280 C281 1.387 . S
C280 N283 1.341 . S
C281 C279 1.400 . S
C281 C280 1.387 . S
N282 Co273 2.022 . S
N282 C279 1.351 . S
N282 N283 1.365 . S
N283 C280 1.341 . S
N283 N282 1.365 . S
N283 H303 0.862 . S
C284 C279 1.501 . S
C284 H285 0.961 . S
C284 H286 0.961 . S
C284 H287 0.960 . S
H285 C284 0.961 . S
H286 C284 0.961 . S
H287 C284 0.960 . S
C288 N289 1.342 . S
C288 C292 1.401 . S
C288 C293 1.499 . S
N289 Co272 1.989 . S
N289 C288 1.342 . S
N289 N290 1.388 . S
N290 Co273 1.993 . S
N290 N289 1.388 . S
N290 C291 1.346 . S
C291 N290 1.346 . S
C291 C292 1.396 . S
C291 C301 1.510 . S
C292 C288 1.401 . S
C292 C291 1.396 . S
C293 C288 1.499 . S
C293 H294 0.959 . S
C293 H295 0.960 . S
C293 H296 0.961 . S
H294 C293 0.959 . S
H295 C293 0.960 . S
H296 C293 0.961 . S
O297 Co272 1.967 . S
O297 C305 1.258 . S
O298 Co273 1.941 . S
O298 C305 1.266 . S
H299 C301 0.959 . S
H300 C301 0.961 . S
C301 C291 1.510 . S
C301 H299 0.959 . S
C301 H300 0.961 . S
C301 H302 0.960 . S
H302 C301 0.960 . S
H303 N283 0.862 . S
O304 Co272 1.920 . S
O304 C277 1.289 . S
C305 O297 1.258 . S
C305 O298 1.266 . S
Co306 O309 1.970 . S
Co306 N323 1.989 . S
Co306 O331 1.967 . S
Co306 O338 1.920 . S
Co307 O310 1.966 . S
Co307 N316 2.022 . S
Co307 N324 1.993 . S
Co307 O332 1.941 . S
C308 O309 1.258 . S
C308 O310 1.263 . S
O309 Co306 1.970 . S
O309 C308 1.258 . S
O310 Co307 1.966 . S
O310 C308 1.263 . S
C311 O312 1.235 . S
C311 O338 1.289 . S
O312 C311 1.235 . S
C313 C315 1.400 . S
C313 N316 1.351 . S
C313 C318 1.501 . S
C314 C315 1.387 . S
C314 N317 1.341 . S
C315 C313 1.400 . S
C315 C314 1.387 . S
N316 Co307 2.022 . S
N316 C313 1.351 . S
N316 N317 1.365 . S
N317 C314 1.341 . S
N317 N316 1.365 . S
N317 H337 0.862 . S
C318 C313 1.501 . S
C318 H319 0.961 . S
C318 H320 0.961 . S
C318 H321 0.960 . S
H319 C318 0.961 . S
H320 C318 0.961 . S
H321 C318 0.960 . S
C322 N323 1.342 . S
C322 C326 1.401 . S
C322 C327 1.499 . S
N323 Co306 1.989 . S
N323 C322 1.342 . S
N323 N324 1.388 . S
N324 Co307 1.993 . S
N324 N323 1.388 . S
N324 C325 1.346 . S
C325 N324 1.346 . S
C325 C326 1.396 . S
C325 C335 1.510 . S
C326 C322 1.401 . S
C326 C325 1.396 . S
C327 C322 1.499 . S
C327 H328 0.959 . S
C327 H329 0.960 . S
C327 H330 0.961 . S
H328 C327 0.959 . S
H329 C327 0.960 . S
H330 C327 0.961 . S
O331 Co306 1.967 . S
O331 C339 1.258 . S
O332 Co307 1.941 . S
O332 C339 1.266 . S
H333 C335 0.959 . S
H334 C335 0.961 . S
C335 C325 1.510 . S
C335 H333 0.959 . S
C335 H334 0.961 . S
C335 H336 0.960 . S
H336 C335 0.960 . S
H337 N317 0.862 . S
O338 Co306 1.920 . S
O338 C311 1.289 . S
C339 O331 1.258 . S
C339 O332 1.266 . S
Co340 O343 1.970 . S
Co340 N357 1.989 . S
Co340 O365 1.967 . S
Co340 O372 1.920 . S
Co341 O344 1.966 . S
Co341 N350 2.022 . S
Co341 N358 1.993 . S
Co341 O366 1.941 . S
C342 O343 1.258 . S
C342 O344 1.263 . S
O343 Co340 1.970 . S
O343 C342 1.258 . S
O344 Co341 1.966 . S
O344 C342 1.263 . S
C345 O346 1.235 . S
C345 O372 1.289 . S
O346 C345 1.235 . S
C347 C349 1.400 . S
C347 N350 1.351 . S
C347 C352 1.501 . S
C348 C349 1.387 . S
C348 N351 1.341 . S
C349 C347 1.400 . S
C349 C348 1.387 . S
N350 Co341 2.022 . S
N350 C347 1.351 . S
N350 N351 1.365 . S
N351 C348 1.341 . S
N351 N350 1.365 . S
N351 H371 0.862 . S
C352 C347 1.501 . S
C352 H353 0.961 . S
C352 H354 0.961 . S
C352 H355 0.960 . S
H353 C352 0.961 . S
H354 C352 0.961 . S
H355 C352 0.960 . S
C356 N357 1.342 . S
C356 C360 1.401 . S
C356 C361 1.499 . S
N357 Co340 1.989 . S
N357 C356 1.342 . S
N357 N358 1.388 . S
N358 Co341 1.993 . S
N358 N357 1.388 . S
N358 C359 1.346 . S
C359 N358 1.346 . S
C359 C360 1.396 . S
C359 C369 1.510 . S
C360 C356 1.401 . S
C360 C359 1.396 . S
C361 C356 1.499 . S
C361 H362 0.959 . S
C361 H363 0.960 . S
C361 H364 0.961 . S
H362 C361 0.959 . S
H363 C361 0.960 . S
H364 C361 0.961 . S
O365 Co340 1.967 . S
O365 C373 1.258 . S
O366 Co341 1.941 . S
O366 C373 1.266 . S
H367 C369 0.959 . S
H368 C369 0.961 . S
C369 C359 1.510 . S
C369 H367 0.959 . S
C369 H368 0.961 . S
C369 H370 0.960 . S
H370 C369 0.960 . S
H371 N351 0.862 . S
O372 Co340 1.920 . S
O372 C345 1.289 . S
C373 O365 1.258 . S
C373 O366 1.266 . S
Co374 O377 1.970 . S
Co374 N391 1.989 . S
Co374 O399 1.967 . S
Co374 O406 1.920 . S
Co375 O378 1.966 . S
Co375 N384 2.022 . S
Co375 N392 1.993 . S
Co375 O400 1.941 . S
C376 O377 1.258 . S
C376 O378 1.263 . S
O377 Co374 1.970 . S
O377 C376 1.258 . S
O378 Co375 1.966 . S
O378 C376 1.263 . S
C379 O380 1.235 . S
C379 O406 1.289 . S
O380 C379 1.235 . S
C381 C383 1.400 . S
C381 N384 1.351 . S
C381 C386 1.501 . S
C382 C383 1.387 . S
C382 N385 1.341 . S
C383 C381 1.400 . S
C383 C382 1.387 . S
N384 Co375 2.022 . S
N384 C381 1.351 . S
N384 N385 1.365 . S
N385 C382 1.341 . S
N385 N384 1.365 . S
N385 H405 0.862 . S
C386 C381 1.501 . S
C386 H387 0.961 . S
C386 H388 0.961 . S
C386 H389 0.960 . S
H387 C386 0.961 . S
H388 C386 0.961 . S
H389 C386 0.960 . S
C390 N391 1.342 . S
C390 C394 1.401 . S
C390 C395 1.499 . S
N391 Co374 1.989 . S
N391 C390 1.342 . S
N391 N392 1.388 . S
N392 Co375 1.993 . S
N392 N391 1.388 . S
N392 C393 1.346 . S
C393 N392 1.346 . S
C393 C394 1.396 . S
C393 C403 1.510 . S
C394 C390 1.401 . S
C394 C393 1.396 . S
C395 C390 1.499 . S
C395 H396 0.959 . S
C395 H397 0.960 . S
C395 H398 0.961 . S
H396 C395 0.959 . S
H397 C395 0.960 . S
H398 C395 0.961 . S
O399 Co374 1.967 . S
O399 C407 1.258 . S
O400 Co375 1.941 . S
O400 C407 1.266 . S
H401 C403 0.959 . S
H402 C403 0.961 . S
C403 C393 1.510 . S
C403 H401 0.959 . S
C403 H402 0.961 . S
C403 H404 0.960 . S
H404 C403 0.960 . S
H405 N385 0.862 . S
O406 Co374 1.920 . S
O406 C379 1.289 . S
C407 O399 1.258 . S
C407 O400 1.266 . S
Co408 O411 1.970 . S
Co408 N425 1.989 . S
Co408 O433 1.967 . S
Co408 O440 1.920 . S
Co409 O412 1.966 . S
Co409 N418 2.022 . S
Co409 N426 1.993 . S
Co409 O434 1.941 . S
C410 O411 1.258 . S
C410 O412 1.263 . S
O411 Co408 1.970 . S
O411 C410 1.258 . S
O412 Co409 1.966 . S
O412 C410 1.263 . S
C413 O414 1.235 . S
C413 O440 1.289 . S
O414 C413 1.235 . S
C415 C417 1.400 . S
C415 N418 1.351 . S
C415 C420 1.501 . S
C416 C417 1.387 . S
C416 N419 1.341 . S
C417 C415 1.400 . S
C417 C416 1.387 . S
N418 Co409 2.022 . S
N418 C415 1.351 . S
N418 N419 1.365 . S
N419 C416 1.341 . S
N419 N418 1.365 . S
N419 H439 0.862 . S
C420 C415 1.501 . S
C420 H421 0.961 . S
C420 H422 0.961 . S
C420 H423 0.960 . S
H421 C420 0.961 . S
H422 C420 0.961 . S
H423 C420 0.960 . S
C424 N425 1.342 . S
C424 C428 1.401 . S
C424 C429 1.499 . S
N425 Co408 1.989 . S
N425 C424 1.342 . S
N425 N426 1.388 . S
N426 Co409 1.993 . S
N426 N425 1.388 . S
N426 C427 1.346 . S
C427 N426 1.346 . S
C427 C428 1.396 . S
C427 C437 1.510 . S
C428 C424 1.401 . S
C428 C427 1.396 . S
C429 C424 1.499 . S
C429 H430 0.959 . S
C429 H431 0.960 1_556 S
C429 H432 0.968 . S
H430 C429 0.959 . S
H431 C429 0.960 1_554 S
H432 C429 0.968 . S
O433 Co408 1.967 . S
O433 C441 1.258 . S
O434 Co409 1.941 . S
O434 C441 1.266 . S
H435 C437 0.959 . S
H436 C437 0.961 . S
C437 C427 1.510 . S
C437 H435 0.959 . S
C437 H436 0.961 . S
C437 H438 0.960 . S
H438 C437 0.960 . S
H439 N419 0.862 . S
O440 Co408 1.920 . S
O440 C413 1.289 . S
C441 O433 1.258 . S
C441 O434 1.266 . S
Co442 O445 1.970 . S
Co442 N459 1.989 . S
Co442 O467 1.967 . S
Co442 O474 1.920 . S
Co443 O446 1.966 . S
Co443 N452 2.022 . S
Co443 N460 1.993 . S
Co443 O468 1.941 . S
C444 O445 1.258 . S
C444 O446 1.263 . S
O445 Co442 1.970 . S
O445 C444 1.258 . S
O446 Co443 1.966 . S
O446 C444 1.263 . S
C447 O448 1.235 . S
C447 O474 1.289 . S
O448 C447 1.235 . S
C449 C451 1.400 . S
C449 N452 1.351 . S
C449 C454 1.501 . S
C450 C451 1.387 . S
C450 N453 1.341 . S
C451 C449 1.400 . S
C451 C450 1.387 . S
N452 Co443 2.022 . S
N452 C449 1.351 . S
N452 N453 1.365 . S
N453 C450 1.341 . S
N453 N452 1.365 . S
N453 H473 0.862 . S
C454 C449 1.501 . S
C454 H455 0.961 . S
C454 H456 0.961 . S
C454 H457 0.960 . S
H455 C454 0.961 . S
H456 C454 0.961 . S
H457 C454 0.960 . S
C458 N459 1.342 . S
C458 C462 1.401 . S
C458 C463 1.499 . S
N459 Co442 1.989 . S
N459 C458 1.342 . S
N459 N460 1.388 . S
N460 Co443 1.993 . S
N460 N459 1.388 . S
N460 C461 1.346 . S
C461 N460 1.346 . S
C461 C462 1.396 . S
C461 C471 1.510 . S
C462 C458 1.401 . S
C462 C461 1.396 . S
C463 C458 1.499 . S
C463 H464 0.959 . S
C463 H465 0.960 1_556 S
C463 H466 0.968 . S
H464 C463 0.959 . S
H465 C463 0.960 1_554 S
H466 C463 0.968 . S
O467 Co442 1.967 . S
O467 C475 1.258 . S
O468 Co443 1.941 . S
O468 C475 1.266 . S
H469 C471 0.959 . S
H470 C471 0.961 . S
C471 C461 1.510 . S
C471 H469 0.959 . S
C471 H470 0.961 . S
C471 H472 0.960 . S
H472 C471 0.960 . S
H473 N453 0.862 . S
O474 Co442 1.920 . S
O474 C447 1.289 . S
C475 O467 1.258 . S
C475 O468 1.266 . S
Co476 O479 1.970 . S
Co476 N493 1.989 . S
Co476 O501 1.967 . S
Co476 O508 1.920 . S
Co477 O480 1.966 . S
Co477 N486 2.022 . S
Co477 N494 1.993 . S
Co477 O502 1.941 . S
C478 O479 1.258 . S
C478 O480 1.263 . S
O479 Co476 1.970 . S
O479 C478 1.258 . S
O480 Co477 1.966 . S
O480 C478 1.263 . S
C481 O482 1.235 . S
C481 O508 1.289 . S
O482 C481 1.235 . S
C483 C485 1.400 . S
C483 N486 1.351 . S
C483 C488 1.501 . S
C484 C485 1.387 . S
C484 N487 1.341 . S
C485 C483 1.400 . S
C485 C484 1.387 . S
N486 Co477 2.022 . S
N486 C483 1.351 . S
N486 N487 1.365 . S
N487 C484 1.341 . S
N487 N486 1.365 . S
N487 H507 0.862 . S
C488 C483 1.501 . S
C488 H489 0.961 . S
C488 H490 0.961 . S
C488 H491 0.960 . S
H489 C488 0.961 . S
H490 C488 0.961 . S
H491 C488 0.960 . S
C492 N493 1.342 . S
C492 C496 1.401 . S
C492 C497 1.499 . S
N493 Co476 1.989 . S
N493 C492 1.342 . S
N493 N494 1.388 . S
N494 Co477 1.993 . S
N494 N493 1.388 . S
N494 C495 1.346 . S
C495 N494 1.346 . S
C495 C496 1.396 . S
C495 C505 1.510 . S
C496 C492 1.401 . S
C496 C495 1.396 . S
C497 C492 1.499 . S
C497 H498 0.959 . S
C497 H499 0.960 1_556 S
C497 H500 0.968 . S
H498 C497 0.959 . S
H499 C497 0.960 1_554 S
H500 C497 0.968 . S
O501 Co476 1.967 . S
O501 C509 1.258 . S
O502 Co477 1.941 . S
O502 C509 1.266 . S
H503 C505 0.959 . S
H504 C505 0.961 . S
C505 C495 1.510 . S
C505 H503 0.959 . S
C505 H504 0.961 . S
C505 H506 0.960 . S
H506 C505 0.960 . S
H507 N487 0.862 . S
O508 Co476 1.920 . S
O508 C481 1.289 . S
C509 O501 1.258 . S
C509 O502 1.266 . S
Co510 O513 1.970 . S
Co510 N527 1.989 . S
Co510 O535 1.967 . S
Co510 O542 1.920 . S
Co511 O514 1.966 . S
Co511 N520 2.022 . S
Co511 N528 1.993 . S
Co511 O536 1.941 . S
C512 O513 1.258 . S
C512 O514 1.263 . S
O513 Co510 1.970 . S
O513 C512 1.258 . S
O514 Co511 1.966 . S
O514 C512 1.263 . S
C515 O516 1.235 . S
C515 O542 1.289 . S
O516 C515 1.235 . S
C517 C519 1.400 . S
C517 N520 1.351 . S
C517 C522 1.501 . S
C518 C519 1.387 . S
C518 N521 1.341 . S
C519 C517 1.400 . S
C519 C518 1.387 . S
N520 Co511 2.022 . S
N520 C517 1.351 . S
N520 N521 1.365 . S
N521 C518 1.341 . S
N521 N520 1.365 . S
N521 H541 0.862 . S
C522 C517 1.501 . S
C522 H523 0.961 . S
C522 H524 0.961 . S
C522 H525 0.960 . S
H523 C522 0.961 . S
H524 C522 0.961 . S
H525 C522 0.960 . S
C526 N527 1.342 . S
C526 C530 1.401 . S
C526 C531 1.499 . S
N527 Co510 1.989 . S
N527 C526 1.342 . S
N527 N528 1.388 . S
N528 Co511 1.993 . S
N528 N527 1.388 . S
N528 C529 1.346 . S
C529 N528 1.346 . S
C529 C530 1.396 . S
C529 C539 1.510 . S
C530 C526 1.401 . S
C530 C529 1.396 . S
C531 C526 1.499 . S
C531 H532 0.959 . S
C531 H533 0.960 1_556 S
C531 H534 0.968 . S
H532 C531 0.959 . S
H533 C531 0.960 1_554 S
H534 C531 0.968 . S
O535 Co510 1.967 . S
O535 C543 1.258 . S
O536 Co511 1.941 . S
O536 C543 1.266 . S
H537 C539 0.959 . S
H538 C539 0.961 . S
C539 C529 1.510 . S
C539 H537 0.959 . S
C539 H538 0.961 . S
C539 H540 0.960 . S
H540 C539 0.960 . S
H541 N521 0.862 . S
O542 Co510 1.920 . S
O542 C515 1.289 . S
C543 O535 1.258 . S
C543 O536 1.266 . S
Co544 O547 1.970 . S
Co544 N561 1.989 . S
Co544 O569 1.967 . S
Co544 O576 1.920 . S
Co545 O548 1.966 . S
Co545 N554 2.022 . S
Co545 N562 1.993 . S
Co545 O570 1.941 . S
C546 O547 1.258 . S
C546 O548 1.263 . S
O547 Co544 1.970 . S
O547 C546 1.258 . S
O548 Co545 1.966 . S
O548 C546 1.263 . S
C549 O550 1.235 . S
C549 O576 1.289 . S
O550 C549 1.235 . S
C551 C553 1.400 . S
C551 N554 1.351 . S
C551 C556 1.501 . S
C552 C553 1.387 . S
C552 N555 1.341 . S
C553 C551 1.400 . S
C553 C552 1.387 . S
N554 Co545 2.022 . S
N554 C551 1.351 . S
N554 N555 1.365 . S
N555 C552 1.341 . S
N555 N554 1.365 . S
N555 H575 0.862 . S
C556 C551 1.501 . S
C556 H557 0.961 . S
C556 H558 0.961 . S
C556 H559 0.960 . S
H557 C556 0.961 . S
H558 C556 0.961 . S
H559 C556 0.960 . S
C560 N561 1.342 . S
C560 C564 1.401 . S
C560 C565 1.499 . S
N561 Co544 1.989 . S
N561 C560 1.342 . S
N561 N562 1.388 . S
N562 Co545 1.993 . S
N562 N561 1.388 . S
N562 C563 1.346 . S
C563 N562 1.346 . S
C563 C564 1.396 . S
C563 C573 1.510 . S
C564 C560 1.401 . S
C564 C563 1.396 . S
C565 C560 1.499 . S
C565 H566 0.959 . S
C565 H567 0.960 1_556 S
C565 H568 0.968 . S
H566 C565 0.959 . S
H567 C565 0.960 1_554 S
H568 C565 0.968 . S
O569 Co544 1.967 . S
O569 C577 1.258 . S
O570 Co545 1.941 . S
O570 C577 1.266 . S
H571 C573 0.959 . S
H572 C573 0.961 . S
C573 C563 1.510 . S
C573 H571 0.959 . S
C573 H572 0.961 . S
C573 H574 0.960 . S
H574 C573 0.960 . S
H575 N555 0.862 . S
O576 Co544 1.920 . S
O576 C549 1.289 . S
C577 O569 1.258 . S
C577 O570 1.266 . S
Co578 O581 1.970 . S
Co578 N595 1.989 . S
Co578 O603 1.967 . S
Co578 O610 1.920 . S
Co579 O582 1.966 . S
Co579 N588 2.022 . S
Co579 N596 1.993 . S
Co579 O604 1.941 . S
C580 O581 1.258 . S
C580 O582 1.263 . S
O581 Co578 1.970 . S
O581 C580 1.258 . S
O582 Co579 1.966 . S
O582 C580 1.263 . S
C583 O584 1.235 . S
C583 O610 1.289 . S
O584 C583 1.235 . S
C585 C587 1.400 . S
C585 N588 1.351 . S
C585 C590 1.501 . S
C586 C587 1.387 . S
C586 N589 1.341 . S
C587 C585 1.400 . S
C587 C586 1.387 . S
N588 Co579 2.022 . S
N588 C585 1.351 . S
N588 N589 1.365 . S
N589 C586 1.341 . S
N589 N588 1.365 . S
N589 H609 0.862 . S
C590 C585 1.501 . S
C590 H591 0.961 . S
C590 H592 0.961 . S
C590 H593 0.960 . S
H591 C590 0.961 . S
H592 C590 0.961 . S
H593 C590 0.960 . S
C594 N595 1.342 . S
C594 C598 1.401 . S
C594 C599 1.499 . S
N595 Co578 1.989 . S
N595 C594 1.342 . S
N595 N596 1.388 . S
N596 Co579 1.993 . S
N596 N595 1.388 . S
N596 C597 1.346 . S
C597 N596 1.346 . S
C597 C598 1.396 . S
C597 C607 1.510 . S
C598 C594 1.401 . S
C598 C597 1.396 . S
C599 C594 1.499 . S
C599 H600 0.959 . S
C599 H601 0.960 1_556 S
C599 H602 0.968 . S
H600 C599 0.959 . S
H601 C599 0.960 1_554 S
H602 C599 0.968 . S
O603 Co578 1.967 . S
O603 C611 1.258 . S
O604 Co579 1.941 . S
O604 C611 1.266 . S
H605 C607 0.959 . S
H606 C607 0.961 . S
C607 C597 1.510 . S
C607 H605 0.959 . S
C607 H606 0.961 . S
C607 H608 0.960 . S
H608 C607 0.960 . S
H609 N589 0.862 . S
O610 Co578 1.920 . S
O610 C583 1.289 . S
C611 O603 1.258 . S
C611 O604 1.266 . S
Co612 O615 1.970 . S
Co612 N629 1.989 . S
Co612 O637 1.967 . S
Co612 O644 1.920 . S
Co613 O616 1.966 . S
Co613 N622 2.022 . S
Co613 N630 1.993 . S
Co613 O638 1.941 . S
C614 O615 1.258 . S
C614 O616 1.263 . S
O615 Co612 1.970 . S
O615 C614 1.258 . S
O616 Co613 1.966 . S
O616 C614 1.263 . S
C617 O618 1.235 . S
C617 O644 1.289 . S
O618 C617 1.235 . S
C619 C621 1.400 . S
C619 N622 1.351 . S
C619 C624 1.501 . S
C620 C621 1.387 . S
C620 N623 1.341 . S
C621 C619 1.400 . S
C621 C620 1.387 . S
N622 Co613 2.022 . S
N622 C619 1.351 . S
N622 N623 1.365 . S
N623 C620 1.341 . S
N623 N622 1.365 . S
N623 H643 0.862 . S
C624 C619 1.501 . S
C624 H625 0.961 . S
C624 H626 0.961 . S
C624 H627 0.960 . S
H625 C624 0.961 . S
H626 C624 0.961 . S
H627 C624 0.960 . S
C628 N629 1.342 . S
C628 C632 1.401 . S
C628 C633 1.499 . S
N629 Co612 1.989 . S
N629 C628 1.342 . S
N629 N630 1.388 . S
N630 Co613 1.993 . S
N630 N629 1.388 . S
N630 C631 1.346 . S
C631 N630 1.346 . S
C631 C632 1.396 . S
C631 C641 1.510 . S
C632 C628 1.401 . S
C632 C631 1.396 . S
C633 C628 1.499 . S
C633 H634 0.959 . S
C633 H635 0.960 . S
C633 H636 0.961 . S
H634 C633 0.959 . S
H635 C633 0.960 . S
H636 C633 0.961 . S
O637 Co612 1.967 . S
O637 C645 1.258 . S
O638 Co613 1.941 . S
O638 C645 1.266 . S
H639 C641 0.959 . S
H640 C641 0.961 . S
C641 C631 1.510 . S
C641 H639 0.959 . S
C641 H640 0.961 . S
C641 H642 0.960 . S
H642 C641 0.960 . S
H643 N623 0.862 . S
O644 Co612 1.920 . S
O644 C617 1.289 . S
C645 O637 1.258 . S
C645 O638 1.266 . S
Co646 O649 1.970 . S
Co646 N663 1.989 . S
Co646 O671 1.967 . S
Co646 O678 1.920 . S
Co647 O650 1.966 . S
Co647 N656 2.022 . S
Co647 N664 1.993 . S
Co647 O672 1.941 . S
C648 O649 1.258 . S
C648 O650 1.263 . S
O649 Co646 1.970 . S
O649 C648 1.258 . S
O650 Co647 1.966 . S
O650 C648 1.263 . S
C651 O652 1.235 . S
C651 O678 1.289 . S
O652 C651 1.235 . S
C653 C655 1.400 . S
C653 N656 1.351 . S
C653 C658 1.501 . S
C654 C655 1.387 . S
C654 N657 1.341 . S
C655 C653 1.400 . S
C655 C654 1.387 . S
N656 Co647 2.022 . S
N656 C653 1.351 . S
N656 N657 1.365 . S
N657 C654 1.341 . S
N657 N656 1.365 . S
N657 H677 0.862 . S
C658 C653 1.501 . S
C658 H659 0.961 . S
C658 H660 0.961 . S
C658 H661 0.960 . S
H659 C658 0.961 . S
H660 C658 0.961 . S
H661 C658 0.960 . S
C662 N663 1.342 . S
C662 C666 1.401 . S
C662 C667 1.499 . S
N663 Co646 1.989 . S
N663 C662 1.342 . S
N663 N664 1.388 . S
N664 Co647 1.993 . S
N664 N663 1.388 . S
N664 C665 1.346 . S
C665 N664 1.346 . S
C665 C666 1.396 . S
C665 C675 1.510 . S
C666 C662 1.401 . S
C666 C665 1.396 . S
C667 C662 1.499 . S
C667 H668 0.959 . S
C667 H669 0.960 . S
C667 H670 0.961 . S
H668 C667 0.959 . S
H669 C667 0.960 . S
H670 C667 0.961 . S
O671 Co646 1.967 . S
O671 C679 1.258 . S
O672 Co647 1.941 . S
O672 C679 1.266 . S
H673 C675 0.959 . S
H674 C675 0.961 . S
C675 C665 1.510 . S
C675 H673 0.959 . S
C675 H674 0.961 . S
C675 H676 0.960 . S
H676 C675 0.960 . S
H677 N657 0.862 . S
O678 Co646 1.920 . S
O678 C651 1.289 . S
C679 O671 1.258 . S
C679 O672 1.266 . S
Co680 O683 1.970 . S
Co680 N697 1.989 . S
Co680 O705 1.967 . S
Co680 O712 1.920 . S
Co681 O684 1.966 . S
Co681 N690 2.022 . S
Co681 N698 1.993 . S
Co681 O706 1.941 . S
C682 O683 1.258 . S
C682 O684 1.263 . S
O683 Co680 1.970 . S
O683 C682 1.258 . S
O684 Co681 1.966 . S
O684 C682 1.263 . S
C685 O686 1.235 . S
C685 O712 1.289 . S
O686 C685 1.235 . S
C687 C689 1.400 . S
C687 N690 1.351 . S
C687 C692 1.501 . S
C688 C689 1.387 . S
C688 N691 1.341 . S
C689 C687 1.400 . S
C689 C688 1.387 . S
N690 Co681 2.022 . S
N690 C687 1.351 . S
N690 N691 1.365 . S
N691 C688 1.341 . S
N691 N690 1.365 . S
N691 H711 0.862 . S
C692 C687 1.501 . S
C692 H693 0.961 . S
C692 H694 0.961 . S
C692 H695 0.960 . S
H693 C692 0.961 . S
H694 C692 0.961 . S
H695 C692 0.960 . S
C696 N697 1.342 . S
C696 C700 1.401 . S
C696 C701 1.499 . S
N697 Co680 1.989 . S
N697 C696 1.342 . S
N697 N698 1.388 . S
N698 Co681 1.993 . S
N698 N697 1.388 . S
N698 C699 1.346 . S
C699 N698 1.346 . S
C699 C700 1.396 . S
C699 C709 1.510 . S
C700 C696 1.401 . S
C700 C699 1.396 . S
C701 C696 1.499 . S
C701 H702 0.959 . S
C701 H703 0.960 . S
C701 H704 0.961 . S
H702 C701 0.959 . S
H703 C701 0.960 . S
H704 C701 0.961 . S
O705 Co680 1.967 . S
O705 C713 1.258 . S
O706 Co681 1.941 . S
O706 C713 1.266 . S
H707 C709 0.959 . S
H708 C709 0.961 . S
C709 C699 1.510 . S
C709 H707 0.959 . S
C709 H708 0.961 . S
C709 H710 0.960 . S
H710 C709 0.960 . S
H711 N691 0.862 . S
O712 Co680 1.920 . S
O712 C685 1.289 . S
C713 O705 1.258 . S
C713 O706 1.266 . S
Co714 O717 1.970 . S
Co714 N731 1.989 . S
Co714 O739 1.967 . S
Co714 O746 1.920 . S
Co715 O718 1.966 . S
Co715 N724 2.022 . S
Co715 N732 1.993 . S
Co715 O740 1.941 . S
C716 O717 1.258 . S
C716 O718 1.263 . S
O717 Co714 1.970 . S
O717 C716 1.258 . S
O718 Co715 1.966 . S
O718 C716 1.263 . S
C719 O720 1.235 . S
C719 O746 1.289 . S
O720 C719 1.235 . S
C721 C723 1.400 . S
C721 N724 1.351 . S
C721 C726 1.501 . S
C722 C723 1.387 . S
C722 N725 1.341 . S
C723 C721 1.400 . S
C723 C722 1.387 . S
N724 Co715 2.022 . S
N724 C721 1.351 . S
N724 N725 1.365 . S
N725 C722 1.341 . S
N725 N724 1.365 . S
N725 H745 0.862 . S
C726 C721 1.501 . S
C726 H727 0.961 . S
C726 H728 0.961 . S
C726 H729 0.960 . S
H727 C726 0.961 . S
H728 C726 0.961 . S
H729 C726 0.960 . S
C730 N731 1.342 . S
C730 C734 1.401 . S
C730 C735 1.499 . S
N731 Co714 1.989 . S
N731 C730 1.342 . S
N731 N732 1.388 . S
N732 Co715 1.993 . S
N732 N731 1.388 . S
N732 C733 1.346 . S
C733 N732 1.346 . S
C733 C734 1.396 . S
C733 C743 1.510 . S
C734 C730 1.401 . S
C734 C733 1.396 . S
C735 C730 1.499 . S
C735 H736 0.959 . S
C735 H737 0.960 . S
C735 H738 0.961 . S
H736 C735 0.959 . S
H737 C735 0.960 . S
H738 C735 0.961 . S
O739 Co714 1.967 . S
O739 C747 1.258 . S
O740 Co715 1.941 . S
O740 C747 1.266 . S
H741 C743 0.959 . S
H742 C743 0.961 . S
C743 C733 1.510 . S
C743 H741 0.959 . S
C743 H742 0.961 . S
C743 H744 0.960 . S
H744 C743 0.960 . S
H745 N725 0.862 . S
O746 Co714 1.920 . S
O746 C719 1.289 . S
C747 O739 1.258 . S
C747 O740 1.266 . S
Co748 O751 1.970 . S
Co748 N765 1.989 . S
Co748 O773 1.967 . S
Co748 O780 1.920 . S
Co749 O752 1.966 . S
Co749 N758 2.022 . S
Co749 N766 1.993 . S
Co749 O774 1.941 . S
C750 O751 1.258 . S
C750 O752 1.263 . S
O751 Co748 1.970 . S
O751 C750 1.258 . S
O752 Co749 1.966 . S
O752 C750 1.263 . S
C753 O754 1.235 . S
C753 O780 1.289 . S
O754 C753 1.235 . S
C755 C757 1.400 . S
C755 N758 1.351 . S
C755 C760 1.501 . S
C756 C757 1.387 . S
C756 N759 1.341 . S
C757 C755 1.400 . S
C757 C756 1.387 . S
N758 Co749 2.022 . S
N758 C755 1.351 . S
N758 N759 1.365 . S
N759 C756 1.341 . S
N759 N758 1.365 . S
N759 H779 0.862 . S
C760 C755 1.501 . S
C760 H761 0.961 . S
C760 H762 0.961 . S
C760 H763 0.960 . S
H761 C760 0.961 . S
H762 C760 0.961 . S
H763 C760 0.960 . S
C764 N765 1.342 . S
C764 C768 1.401 . S
C764 C769 1.499 . S
N765 Co748 1.989 . S
N765 C764 1.342 . S
N765 N766 1.388 . S
N766 Co749 1.993 . S
N766 N765 1.388 . S
N766 C767 1.346 . S
C767 N766 1.346 . S
C767 C768 1.396 . S
C767 C777 1.510 . S
C768 C764 1.401 . S
C768 C767 1.396 . S
C769 C764 1.499 . S
C769 H770 0.959 . S
C769 H771 0.960 . S
C769 H772 0.961 . S
H770 C769 0.959 . S
H771 C769 0.960 . S
H772 C769 0.961 . S
O773 Co748 1.967 . S
O773 C781 1.258 . S
O774 Co749 1.941 . S
O774 C781 1.266 . S
H775 C777 0.959 . S
H776 C777 0.961 . S
C777 C767 1.510 . S
C777 H775 0.959 . S
C777 H776 0.961 . S
C777 H778 0.960 . S
H778 C777 0.960 . S
H779 N759 0.862 . S
O780 Co748 1.920 . S
O780 C753 1.289 . S
C781 O773 1.258 . S
C781 O774 1.266 . S
Co782 O785 1.970 . S
Co782 N799 1.989 . S
Co782 O807 1.967 . S
Co782 O814 1.920 . S
Co783 O786 1.966 . S
Co783 N792 2.022 . S
Co783 N800 1.993 . S
Co783 O808 1.941 . S
C784 O785 1.258 . S
C784 O786 1.263 . S
O785 Co782 1.970 . S
O785 C784 1.258 . S
O786 Co783 1.966 . S
O786 C784 1.263 . S
C787 O788 1.235 . S
C787 O814 1.289 . S
O788 C787 1.235 . S
C789 C791 1.400 . S
C789 N792 1.351 . S
C789 C794 1.501 . S
C790 C791 1.387 . S
C790 N793 1.341 . S
C791 C789 1.400 . S
C791 C790 1.387 . S
N792 Co783 2.022 . S
N792 C789 1.351 . S
N792 N793 1.365 . S
N793 C790 1.341 . S
N793 N792 1.365 . S
N793 H813 0.862 . S
C794 C789 1.501 . S
C794 H795 0.961 . S
C794 H796 0.961 . S
C794 H797 0.960 . S
H795 C794 0.961 . S
H796 C794 0.961 . S
H797 C794 0.960 . S
C798 N799 1.342 . S
C798 C802 1.401 . S
C798 C803 1.499 . S
N799 Co782 1.989 . S
N799 C798 1.342 . S
N799 N800 1.388 . S
N800 Co783 1.993 . S
N800 N799 1.388 . S
N800 C801 1.346 . S
C801 N800 1.346 . S
C801 C802 1.396 . S
C801 C811 1.510 . S
C802 C798 1.401 . S
C802 C801 1.396 . S
C803 C798 1.499 . S
C803 H804 0.959 . S
C803 H805 0.960 . S
C803 H806 0.961 . S
H804 C803 0.959 . S
H805 C803 0.960 . S
H806 C803 0.961 . S
O807 Co782 1.967 . S
O807 C815 1.258 . S
O808 Co783 1.941 . S
O808 C815 1.266 . S
H809 C811 0.959 . S
H810 C811 0.961 . S
C811 C801 1.510 . S
C811 H809 0.959 . S
C811 H810 0.961 . S
C811 H812 0.960 . S
H812 C811 0.960 . S
H813 N793 0.862 . S
O814 Co782 1.920 . S
O814 C787 1.289 . S
C815 O807 1.258 . S
C815 O808 1.266 . S
C5 C107 0.683 1_545 S
C141 C39 0.683 . S
C175 C73 0.683 1_455 S
C311 C209 0.683 1_455 S
C243 C345 0.683 1_565 S
C277 C379 0.683 . S
C515 C413 0.683 1_545 S
C549 C447 0.683 . S
C583 C481 0.683 1_655 S
C719 C617 0.683 1_655 S
C651 C753 0.683 1_545 S
C787 C685 0.683 . S
C281 C9 1.678 . S
C43 C315 1.677 . S
C77 C349 1.678 . S
C111 C383 1.678 . S
C145 C213 1.678 . S
C247 C179 1.678 . S
C417 C689 1.678 . S
C723 C451 1.678 . S
C757 C485 1.678 . S
C519 C791 1.678 . S
C621 C553 1.678 . S
C655 C587 1.678 . S
C33 C271 2.056 1_545 S
C67 C305 2.056 . S
C339 C101 2.056 1_455 S
C135 C373 2.056 1_565 S
C407 C169 2.056 . S
C237 C203 2.056 1_655 S
C441 C679 2.056 1_565 S
C475 C713 2.056 . S
C509 C747 2.056 1_455 S
C543 C781 2.056 1_545 S
C577 C815 2.056 . S
C645 C611 2.056 1_455 S
C2 C342 2.521 . S
C376 C36 2.521 . S
C206 C70 2.521 . S
C240 C104 2.521 . S
C138 C274 2.521 . S
C172 C308 2.521 . S
C410 C750 2.521 . S
C784 C444 2.521 . S
C614 C478 2.521 . S
C512 C648 2.521 . S
C546 C682 2.521 . S
C716 C580 2.521 . S
C20 C530 1.539 1_554 S
C54 C564 1.539 1_554 S
C88 C598 1.540 1_554 S
C122 C428 1.539 1_554 S
C156 C462 1.539 1_554 S
C496 C190 1.540 1_556 S
C224 C734 1.539 . S
C258 C768 1.540 . S
C292 C802 1.539 . S
C326 C632 1.539 . S
C360 C666 1.540 . S
C700 C394 1.539 . S
