# Generated by pormake.
# Topology whw, (6)-cn, num edge types: 1
# Building blocks:
#     Node 0, Type 0, BuildingBlock: UKALOJ_clean_sbu_0, # of connection points: 6
#     Node 1, Type 0, BuildingBlock: UKALOJ_clean_sbu_0, # of connection points: 6
#     Node 2, Type 0, BuildingBlock: UKALOJ_clean_sbu_0, # of connection points: 6
#     Node 3, Type 0, BuildingBlock: UKALOJ_clean_sbu_0, # of connection points: 6
#     Node 4, Type 0, BuildingBlock: UKALOJ_clean_sbu_0, # of connection points: 6
#     Node 5, Type 0, BuildingBlock: UKALOJ_clean_sbu_0, # of connection points: 6
#     Node 6, Type 0, BuildingBlock: UKALOJ_clean_sbu_0, # of connection points: 6
#     Node 7, Type 0, BuildingBlock: UKALOJ_clean_sbu_0, # of connection points: 6
#     Node 8, Type 0, BuildingBlock: UKALOJ_clean_sbu_0, # of connection points: 6
#     Node 9, Type 0, BuildingBlock: UKALOJ_clean_sbu_0, # of connection points: 6
#     Node 10, Type 0, BuildingBlock: UKALOJ_clean_sbu_0, # of connection points: 6
#     Node 11, Type 0, BuildingBlock: UKALOJ_clean_sbu_0, # of connection points: 6
#     Node 12, Type 0, BuildingBlock: UKALOJ_clean_sbu_0, # of connection points: 6
#     Node 13, Type 0, BuildingBlock: UKALOJ_clean_sbu_0, # of connection points: 6
#     Node 14, Type 0, BuildingBlock: UKALOJ_clean_sbu_0, # of connection points: 6
#     Node 15, Type 0, BuildingBlock: UKALOJ_clean_sbu_0, # of connection points: 6
#     Edge 16, Type (0, 0), BuildingBlock: CIFDUS_clean_linker_0, # of connection points: 2
#     Edge 17, Type (0, 0), BuildingBlock: CIFDUS_clean_linker_0, # of connection points: 2
#     Edge 18, Type (0, 0), BuildingBlock: CIFDUS_clean_linker_0, # of connection points: 2
#     Edge 19, Type (0, 0), BuildingBlock: CIFDUS_clean_linker_0, # of connection points: 2
#     Edge 20, Type (0, 0), BuildingBlock: CIFDUS_clean_linker_0, # of connection points: 2
#     Edge 21, Type (0, 0), BuildingBlock: CIFDUS_clean_linker_0, # of connection points: 2
#     Edge 22, Type (0, 0), BuildingBlock: CIFDUS_clean_linker_0, # of connection points: 2
#     Edge 23, Type (0, 0), BuildingBlock: CIFDUS_clean_linker_0, # of connection points: 2
#     Edge 24, Type (0, 0), BuildingBlock: CIFDUS_clean_linker_0, # of connection points: 2
#     Edge 25, Type (0, 0), BuildingBlock: CIFDUS_clean_linker_0, # of connection points: 2
#     Edge 26, Type (0, 0), BuildingBlock: CIFDUS_clean_linker_0, # of connection points: 2
#     Edge 27, Type (0, 0), BuildingBlock: CIFDUS_clean_linker_0, # of connection points: 2
#     Edge 28, Type (0, 0), BuildingBlock: CIFDUS_clean_linker_0, # of connection points: 2
#     Edge 29, Type (0, 0), BuildingBlock: CIFDUS_clean_linker_0, # of connection points: 2
#     Edge 30, Type (0, 0), BuildingBlock: CIFDUS_clean_linker_0, # of connection points: 2
#     Edge 31, Type (0, 0), BuildingBlock: CIFDUS_clean_linker_0, # of connection points: 2
#     Edge 32, Type (0, 0), BuildingBlock: CIFDUS_clean_linker_0, # of connection points: 2
#     Edge 33, Type (0, 0), BuildingBlock: CIFDUS_clean_linker_0, # of connection points: 2
#     Edge 34, Type (0, 0), BuildingBlock: CIFDUS_clean_linker_0, # of connection points: 2
#     Edge 35, Type (0, 0), BuildingBlock: CIFDUS_clean_linker_0, # of connection points: 2
#     Edge 36, Type (0, 0), BuildingBlock: CIFDUS_clean_linker_0, # of connection points: 2
#     Edge 37, Type (0, 0), BuildingBlock: CIFDUS_clean_linker_0, # of connection points: 2
#     Edge 38, Type (0, 0), BuildingBlock: CIFDUS_clean_linker_0, # of connection points: 2
#     Edge 39, Type (0, 0), BuildingBlock: CIFDUS_clean_linker_0, # of connection points: 2
#     Edge 40, Type (0, 0), BuildingBlock: CIFDUS_clean_linker_0, # of connection points: 2
#     Edge 41, Type (0, 0), BuildingBlock: CIFDUS_clean_linker_0, # of connection points: 2
#     Edge 42, Type (0, 0), BuildingBlock: CIFDUS_clean_linker_0, # of connection points: 2
#     Edge 43, Type (0, 0), BuildingBlock: CIFDUS_clean_linker_0, # of connection points: 2
#     Edge 44, Type (0, 0), BuildingBlock: CIFDUS_clean_linker_0, # of connection points: 2
#     Edge 45, Type (0, 0), BuildingBlock: CIFDUS_clean_linker_0, # of connection points: 2
#     Edge 46, Type (0, 0), BuildingBlock: CIFDUS_clean_linker_0, # of connection points: 2
#     Edge 47, Type (0, 0), BuildingBlock: CIFDUS_clean_linker_0, # of connection points: 2
#     Edge 48, Type (0, 0), BuildingBlock: CIFDUS_clean_linker_0, # of connection points: 2
#     Edge 49, Type (0, 0), BuildingBlock: CIFDUS_clean_linker_0, # of connection points: 2
#     Edge 50, Type (0, 0), BuildingBlock: CIFDUS_clean_linker_0, # of connection points: 2
#     Edge 51, Type (0, 0), BuildingBlock: CIFDUS_clean_linker_0, # of connection points: 2
#     Edge 52, Type (0, 0), BuildingBlock: CIFDUS_clean_linker_0, # of connection points: 2
#     Edge 53, Type (0, 0), BuildingBlock: CIFDUS_clean_linker_0, # of connection points: 2
#     Edge 54, Type (0, 0), BuildingBlock: CIFDUS_clean_linker_0, # of connection points: 2
#     Edge 55, Type (0, 0), BuildingBlock: CIFDUS_clean_linker_0, # of connection points: 2
#     Edge 56, Type (0, 0), BuildingBlock: CIFDUS_clean_linker_0, # of connection points: 2
#     Edge 57, Type (0, 0), BuildingBlock: CIFDUS_clean_linker_0, # of connection points: 2
#     Edge 58, Type (0, 0), BuildingBlock: CIFDUS_clean_linker_0, # of connection points: 2
#     Edge 59, Type (0, 0), BuildingBlock: CIFDUS_clean_linker_0, # of connection points: 2
#     Edge 60, Type (0, 0), BuildingBlock: CIFDUS_clean_linker_0, # of connection points: 2
#     Edge 61, Type (0, 0), BuildingBlock: CIFDUS_clean_linker_0, # of connection points: 2
#     Edge 62, Type (0, 0), BuildingBlock: CIFDUS_clean_linker_0, # of connection points: 2
#     Edge 63, Type (0, 0), BuildingBlock: CIFDUS_clean_linker_0, # of connection points: 2
# Relax obj value: 0.942
# Max RMSD: 0.240
# Mean RMSD: 0.240
data_MOF--net-whw--node1-UKALOJ_clean_sbu_0--edge1-CIFDUS_clean_linker_0
_symmetry_space_group_name_H-M    P1
_symmetry_Int_Tables_number       1
_symmetry_cell_setting            triclinic
loop_
_symmetry_equiv_pos_as_xyz
'x, y, z'
_cell_length_a     57.870861
_cell_length_b     58.178508
_cell_length_c     18.899061
_cell_angle_alpha  89.950888
_cell_angle_beta   89.951089
_cell_angle_gamma 90.155727
loop_
_atom_site_label
_atom_site_type_symbol
_atom_site_fract_x
_atom_site_fract_y
_atom_site_fract_z
_atom_type_partial_charge
Zn0 Zn 0.07109 0.15342 0.15852 0.0
O1 O 0.04282 0.16106 0.08358 0.0
C2 C 0.10458 0.18035 0.0662 0.0
Zn3 Zn 0.06966 0.19117 0.17708 0.0
C4 C 0.03503 0.18119 0.06959 0.0
O5 O 0.04378 0.19856 0.10093 0.0
C6 C 0.10634 0.16548 0.2636 0.0
O7 O 0.0433 0.18624 0.25154 0.0
O8 O 0.04488 0.14886 0.24671 0.0
N9 N 0.07397 0.22439 0.21081 0.0
C10 C 0.05833 0.23016 0.25973 0.0
C11 C 0.09131 0.23442 0.30759 0.0
N12 N 0.09454 0.22832 0.23942 0.0
N13 N 0.0686 0.23441 0.32281 0.0
C14 C 0.07191 0.10519 0.07879 0.0
C15 C 0.06637 0.08236 0.16527 0.0
N16 N 0.06958 0.11827 0.13757 0.0
N17 N 0.06611 0.10394 0.19098 0.0
N18 N 0.07007 0.08245 0.09483 0.0
H19 H 0.06686 0.13234 1.00297 0.0
H20 H 0.06643 0.10362 0.96605 0.0
H21 H 0.09332 0.11662 0.99354 0.0
C22 C 0.07464 0.11498 1.00595 0.0
C23 C 0.03392 0.23619 0.23992 0.0
H24 H 0.03154 0.23521 0.18174 0.0
H25 H 0.03 0.25391 0.25752 0.0
H26 H 0.0214 0.2244 0.26528 0.0
O27 O 0.09516 0.18366 0.25224 0.0
O28 O 0.10023 0.14732 0.23115 0.0
C29 C 0.03583 0.16707 0.27261 0.0
O30 O 0.09709 0.15977 0.07392 0.0
O31 O 0.09565 0.19628 0.10287 0.0
Zn32 Zn 0.18556 0.779 0.38957 0.0
O33 O 0.16731 0.75661 0.31414 0.0
C34 C 0.18095 0.81538 0.27519 0.0
Zn35 Zn 0.15454 0.80047 0.39773 0.0
C36 C 0.14552 0.75953 0.30621 0.0
O37 O 0.13564 0.77597 0.33914 0.0
C38 C 0.19115 0.82103 0.48323 0.0
O39 O 0.1458 0.78236 0.4947 0.0
O40 O 0.17314 0.7567 0.47701 0.0
N41 N 0.12834 0.82353 0.40586 0.0
C42 C 0.1214 0.83653 0.46104 0.0
C43 C 0.10946 0.85271 0.36729 0.0
N44 N 0.12127 0.83398 0.34776 0.0
N45 N 0.10895 0.85507 0.43862 0.0
C46 C 0.23113 0.76032 0.31993 0.0
C47 C 0.25272 0.75445 0.40901 0.0
N48 N 0.21758 0.76228 0.37822 0.0
N49 N 0.23113 0.75843 0.43338 0.0
N50 N 0.25341 0.75585 0.33775 0.0
H51 H 0.20382 0.75638 0.24321 0.0
H52 H 0.23247 0.74999 0.21064 0.0
H53 H 0.22383 0.77921 0.22488 0.0
C54 C 0.22224 0.76146 0.24548 0.0
C55 C 0.12807 0.83163 0.53651 0.0
H56 H 0.14555 0.82454 0.54091 0.0
H57 H 0.11694 0.81803 0.55863 0.0
H58 H 0.127 0.84728 0.56946 0.0
O59 O 0.17294 0.82505 0.44958 0.0
O60 O 0.20135 0.80198 0.4715 0.0
C61 C 0.15564 0.7636 0.51281 0.0
O62 O 0.19595 0.80155 0.29979 0.0
O63 O 0.16193 0.81704 0.30643 0.0
Zn64 Zn 0.55302 0.87503 0.60634 0.0
O65 O 0.57509 0.86674 0.51322 0.0
C66 C 0.51123 0.87477 0.51379 0.0
Zn67 Zn 0.53775 0.83944 0.59274 0.0
C68 C 0.57254 0.84755 0.48087 0.0
O69 O 0.55789 0.83307 0.50378 0.0
C70 C 0.51605 0.86484 0.715 0.0
O71 O 0.56466 0.82542 0.6598 0.0
O72 O 0.57967 0.85987 0.67711 0.0
N73 N 0.52021 0.80824 0.57893 0.0
C74 C 0.49762 0.80316 0.58993 0.0
C75 C 0.51423 0.77203 0.56447 0.0
N76 N 0.53031 0.78883 0.56038 0.0
N77 N 0.49334 0.78036 0.58445 0.0
C78 C 0.56744 0.92593 0.56612 0.0
C79 C 0.57562 0.94041 0.66629 0.0
N80 N 0.56658 0.90854 0.61409 0.0
N81 N 0.57188 0.9177 0.67615 0.0
N82 N 0.57307 0.9461 0.59754 0.0
H83 H 0.56125 0.90569 0.47206 0.0
H84 H 0.57181 0.93444 0.4561 0.0
H85 H 0.54252 0.93019 0.48387 0.0
C86 C 0.56044 0.92376 0.49011 0.0
C87 C 0.47961 0.82 0.61175 0.0
H88 H 0.48191 0.83674 0.58632 0.0
H89 H 0.48121 0.82245 0.6691 0.0
H90 H 0.46203 0.81336 0.5999 0.0
O91 O 0.5172 0.84617 0.68074 0.0
O92 O 0.52979 0.88127 0.69863 0.0
C93 C 0.58025 0.83811 0.68824 0.0
O94 O 0.52628 0.88873 0.53711 0.0
O95 O 0.51305 0.85369 0.5284 0.0
Zn96 Zn 0.46284 0.25516 0.88389 0.0
O97 O 0.47852 0.27835 0.80101 0.0
C98 C 0.4735 0.2142 0.78815 0.0
Zn99 Zn 0.49751 0.23948 0.89771 0.0
C100 C 0.50058 0.27764 0.79273 0.0
O101 O 0.5121 0.26308 0.82835 0.0
C102 C 0.46374 0.21523 0.98711 0.0
O103 O 0.50278 0.26393 0.98198 0.0
O104 O 0.47025 0.28213 0.96349 0.0
N105 N 0.52813 0.22439 0.91955 0.0
C106 C 0.53759 0.22057 0.98341 0.0
C107 C 0.56201 0.2102 0.90649 0.0
N108 N 0.54295 0.21705 0.8715 0.0
N109 N 0.55943 0.2126 0.97725 0.0
C110 C 0.41397 0.26542 0.81271 0.0
C111 C 0.39408 0.27652 0.90082 0.0
N112 N 0.42863 0.26694 0.86848 0.0
N113 N 0.41611 0.27398 0.92292 0.0
N114 N 0.39195 0.27103 0.83174 0.0
H115 H 0.44018 0.26431 0.73199 0.0
H116 H 0.4111 0.26884 0.69953 0.0
H117 H 0.4199 0.24089 0.7307 0.0
C118 C 0.42174 0.25965 0.73929 0.0
C119 C 0.5266 0.22713 0.05305 0.0
H120 H 0.53393 0.24369 0.07142 0.0
H121 H 0.53017 0.21381 0.09355 0.0
H122 H 0.50776 0.2291 0.05058 0.0
O123 O 0.48374 0.21551 0.96165 0.0
O124 O 0.44977 0.23122 0.96926 0.0
C125 C 0.48934 0.28045 0.99711 0.0
O126 O 0.45726 0.22798 0.80486 0.0
O127 O 0.49303 0.21638 0.81728 0.0
Zn128 Zn 0.08229 0.84927 0.85293 0.0
O129 O 0.05695 0.85129 0.77096 0.0
C130 C 0.11654 0.87467 0.76061 0.0
Zn131 Zn 0.07885 0.88722 0.86205 0.0
C132 C 0.04616 0.86895 0.75061 0.0
O133 O 0.05161 0.88828 0.77806 0.0
C134 C 0.11464 0.8653 0.96069 0.0
O135 O 0.05225 0.8798 0.94422 0.0
O136 O 0.05618 0.8426 0.92806 0.0
N137 N 0.07611 0.92268 0.87635 0.0
C138 C 0.07269 0.93639 0.93324 0.0
C139 C 0.07669 0.9583 0.84373 0.0
N140 N 0.07856 0.93643 0.821 0.0
N141 N 0.07293 0.95893 0.91411 0.0
C142 C 0.06817 0.80527 0.79842 0.0
C143 C 0.09769 0.79779 0.73494 0.0
N144 N 0.08628 0.81571 0.82865 0.0
N145 N 0.10478 0.81035 0.79067 0.0
N146 N 0.07467 0.79509 0.73746 0.0
H147 H 0.04614 0.80044 0.88882 0.0
H148 H 0.03291 0.79152 0.80741 0.0
H149 H 0.03556 0.82116 0.82728 0.0
C150 C 0.04442 0.80444 0.83164 0.0
C151 C 0.07046 0.9276 1.00746 0.0
H152 H 0.07884 0.91062 1.01312 0.0
H153 H 0.05187 0.92549 0.02044 0.0
H154 H 0.07825 0.93988 0.04553 0.0
O155 O 0.1058 0.88463 0.94329 0.0
O156 O 0.10729 0.84706 0.9315 0.0
C157 C 0.04643 0.85914 0.95995 0.0
O158 O 0.10877 0.85558 0.78136 0.0
O159 O 0.10653 0.89295 0.78176 0.0
Zn160 Zn 0.48533 0.78916 0.16406 0.0
O161 O 0.49719 0.76606 0.08387 0.0
C162 C 0.4598 0.81688 0.049 0.0
Zn163 Zn 0.44943 0.77769 0.1389 0.0
C164 C 0.48472 0.75137 0.05139 0.0
O165 O 0.46286 0.75141 0.06275 0.0
C166 C 0.45267 0.81562 0.24754 0.0
O167 O 0.45791 0.75364 0.22781 0.0
O168 O 0.49411 0.76521 0.23801 0.0
N169 N 0.41528 0.76553 0.13482 0.0
C170 C 0.40022 0.76049 0.18771 0.0
C171 C 0.38117 0.75969 0.09152 0.0
N172 N 0.4033 0.76495 0.07517 0.0
N173 N 0.37868 0.75672 0.16192 0.0
C174 C 0.53005 0.80432 0.11628 0.0
C175 C 0.52203 0.83979 0.12132 0.0
N176 N 0.51615 0.80688 0.17212 0.0
N177 N 0.51244 0.8293 0.17787 0.0
N178 N 0.53281 0.82427 0.08063 0.0
H179 H 0.54304 0.77145 0.15051 0.0
H180 H 0.5627 0.78848 0.09654 0.0
H181 H 0.53869 0.7742 0.05662 0.0
C182 C 0.5444 0.78332 0.10463 0.0
C183 C 0.40615 0.76092 0.26497 0.0
H184 H 0.42167 0.77144 0.2756 0.0
H185 H 0.40969 0.74312 0.28291 0.0
H186 H 0.39149 0.76772 0.29643 0.0
O187 O 0.43759 0.80463 0.21208 0.0
O188 O 0.47371 0.81057 0.24083 0.0
C189 C 0.47793 0.75172 0.25642 0.0
O190 O 0.47663 0.81369 0.09015 0.0
O191 O 0.44325 0.80233 0.05022 0.0
Zn192 Zn 0.55692 0.13935 0.38643 0.0
O193 O 0.58233 0.14969 0.46949 0.0
C194 C 0.51778 0.14457 0.48597 0.0
Zn195 Zn 0.54382 0.17501 0.38764 0.0
C196 C 0.58108 0.16997 0.49571 0.0
O197 O 0.56595 0.1837 0.47222 0.0
C198 C 0.51852 0.14864 0.28066 0.0
O199 O 0.57014 0.1869 0.31442 0.0
O200 O 0.58155 0.15093 0.30408 0.0
N201 N 0.52751 0.20506 0.39702 0.0
C202 C 0.52189 0.22161 0.35104 0.0
C203 C 0.51333 0.23369 0.45213 0.0
N204 N 0.5206 0.21201 0.45988 0.0
N205 N 0.51639 0.24139 0.38495 0.0
C206 C 0.57039 0.08875 0.43385 0.0
C207 C 0.57966 0.07322 0.33611 0.0
N208 N 0.56902 0.10532 0.38339 0.0
N209 N 0.57484 0.0955 0.32283 0.0
N210 N 0.57683 0.06829 0.40541 0.0
H211 H 0.57022 0.11124 0.5245 0.0
H212 H 0.5779 0.08178 0.54348 0.0
H213 H 0.54835 0.08927 0.52468 0.0
C214 C 0.56663 0.09305 0.51116 0.0
C215 C 0.52121 0.21849 0.27213 0.0
H216 H 0.50668 0.20688 0.25849 0.0
H217 H 0.53737 0.2104 0.25306 0.0
H218 H 0.51826 0.2351 0.24465 0.0
O219 O 0.52209 0.16802 0.30781 0.0
O220 O 0.5307 0.13157 0.30147 0.0
C221 C 0.58372 0.17214 0.28669 0.0
O222 O 0.53246 0.12934 0.469 0.0
O223 O 0.51903 0.16399 0.45691 0.0
Zn224 Zn 0.15233 0.25528 0.62584 0.0
O225 O 0.14708 0.27963 0.5495 0.0
C226 C 0.18091 0.22332 0.53449 0.0
Zn227 Zn 0.19064 0.25942 0.64029 0.0
C228 C 0.16487 0.28936 0.52432 0.0
O229 O 0.18497 0.28412 0.54873 0.0
C230 C 0.17456 0.22477 0.74009 0.0
O231 O 0.18076 0.28629 0.71743 0.0
O232 O 0.14352 0.27935 0.70308 0.0
N233 N 0.22623 0.2673 0.6464 0.0
C234 C 0.24127 0.27145 0.7001 0.0
C235 C 0.26126 0.26839 0.60604 0.0
N236 N 0.23887 0.26554 0.58822 0.0
N237 N 0.26346 0.27212 0.67612 0.0
C238 C 0.11707 0.22455 0.5753 0.0
C239 C 0.10906 0.21317 0.67872 0.0
N240 N 0.11904 0.24297 0.61843 0.0
N241 N 0.11231 0.23605 0.68186 0.0
N242 N 0.11333 0.20512 0.61286 0.0
H243 H 0.12735 0.21242 0.47224 0.0
H244 H 0.12365 0.24339 0.47868 0.0
H245 H 0.09897 0.22463 0.47692 0.0
C246 C 0.11699 0.22639 0.4961 0.0
C247 C 0.23428 0.27342 0.77615 0.0
H248 H 0.23436 0.29181 0.79153 0.0
H249 H 0.24676 0.26419 0.81041 0.0
H250 H 0.21663 0.26663 0.78493 0.0
O251 O 0.19365 0.23504 0.7285 0.0
O252 O 0.15714 0.23024 0.70392 0.0
C253 C 0.15964 0.29038 0.73379 0.0
O254 O 0.16164 0.2318 0.54974 0.0
O255 O 0.19883 0.23112 0.56532 0.0
Zn256 Zn 0.98398 0.26265 0.67351 0.0
O257 O 0.9835 0.2351 0.59906 0.0
C258 C 0.9763 0.29777 0.56213 0.0
Zn259 Zn 0.94571 0.2675 0.65969 0.0
C260 C 0.96552 0.22897 0.56573 0.0
O261 O 0.94647 0.23929 0.57912 0.0
C262 C 0.96674 0.30154 0.75936 0.0
O263 O 0.93939 0.24234 0.74885 0.0
O264 O 0.97678 0.23978 0.75158 0.0
N265 N 0.90941 0.27165 0.64778 0.0
C266 C 0.89262 0.27596 0.69629 0.0
C267 C 0.87568 0.26987 0.59829 0.0
N268 N 0.89867 0.26788 0.58701 0.0
N269 N 0.87119 0.275 0.66659 0.0
C270 C 0.02754 0.24343 0.64857 0.0
C271 C 0.02946 0.22451 0.7443 0.0
N272 N 1.01786 0.25642 0.69839 0.0
N273 N 0.02062 0.24535 0.75912 0.0
N274 N 0.03286 0.22241 0.67412 0.0
H275 H 0.02094 0.25133 0.54163 0.0
H276 H 0.05114 0.24515 0.56025 0.0
H277 H 0.0383 0.2722 0.58563 0.0
C278 C 0.03515 0.25347 0.57979 0.0
C279 C 0.89727 0.27969 0.77353 0.0
H280 H 0.91412 0.27258 0.78955 0.0
H281 H 0.88349 0.27172 0.80629 0.0
H282 H 0.89772 0.29842 0.78438 0.0
O283 O 0.94706 0.29594 0.73449 0.0
O284 O 0.98436 0.28966 0.74421 0.0
C285 C 0.95762 0.23377 0.77608 0.0
O286 O 0.9918 0.28643 0.59457 0.0
O287 O 0.95488 0.29324 0.5746 0.0
Zn288 Zn 0.65163 0.74891 0.08796 0.0
O289 O 0.65255 0.76982 0.99556 0.0
C290 C 0.68497 0.72073 1.01189 0.0
Zn291 Zn 0.68663 0.7633 0.10233 0.0
C292 C 0.66617 0.78582 0.97746 0.0
O293 O 0.68398 0.78932 0.0158 0.0
C294 C 0.66911 0.72653 0.20921 0.0
O295 O 0.67309 0.78828 0.17668 0.0
O296 O 0.63805 0.77701 0.14734 0.0
N297 N 0.72107 0.7721 0.12291 0.0
C298 C 0.73425 0.77053 0.18191 0.0
C299 C 0.75678 0.77923 0.09696 0.0
N300 N 0.73519 0.77763 0.07041 0.0
N301 N 0.75686 0.77464 0.16695 0.0
C302 C 0.61207 0.73836 0.98898 0.0
C303 C 0.58326 0.74555 0.05313 0.0
N304 N 0.61947 0.73849 0.05665 0.0
N305 N 0.6012 0.74192 0.09695 0.0
N306 N 0.58981 0.745 0.98438 0.0
H307 H 0.62167 0.71642 0.90339 0.0
H308 H 0.64536 0.73303 0.93565 0.0
H309 H 0.62372 0.74628 0.88307 0.0
C310 C 0.62676 0.73342 0.92498 0.0
C311 C 0.72463 0.76628 0.25434 0.0
H312 H 0.70663 0.77263 0.258 0.0
H313 H 0.73536 0.77492 0.2951 0.0
H314 H 0.72456 0.74754 0.26509 0.0
O315 O 0.68701 0.73773 0.18907 0.0
O316 O 0.65029 0.72883 0.17591 0.0
C317 C 0.65118 0.79025 0.18316 0.0
O318 O 0.6648 0.7213 0.03683 0.0
O319 O 0.69871 0.73735 0.02534 0.0
Zn320 Zn 0.67128 0.27465 0.89034 0.0
O321 O 0.65765 0.24744 0.8168 0.0
C322 C 0.64336 0.30936 0.80242 0.0
Zn323 Zn 0.63421 0.2783 0.91867 0.0
C324 C 0.6363 0.24114 0.8156 0.0
O325 O 0.6219 0.25089 0.8571 0.0
C326 C 0.6659 0.31416 0.9831 0.0
O327 O 0.63948 0.25513 0.99851 0.0
O328 O 0.67566 0.24787 0.9771 0.0
N329 N 0.60522 0.2853 0.97608 0.0
C330 C 0.60869 0.29095 0.06293 0.0
C331 C 0.5607 0.29098 0.02034 0.0
N332 N 0.57897 0.28536 0.95293 0.0
N333 N 0.58008 0.2952 0.09116 0.0
C334 C 0.71966 0.27039 0.80147 0.0
C335 C 0.7425 0.26937 0.88968 0.0
N336 N 0.70628 0.27054 0.86065 0.0
N337 N 0.72075 0.26977 0.91485 0.0
N338 N 0.74256 0.2698 0.81846 0.0
H339 H 0.69204 0.27781 0.7286 0.0
H340 H 0.71121 0.25507 0.70232 0.0
H341 H 0.72098 0.28432 0.69633 0.0
C342 C 0.71032 0.27219 0.72794 0.0
C343 C 0.6299 0.29426 0.10732 0.0
H344 H 0.64526 0.28566 0.08543 0.0
H345 H 0.62649 0.28743 0.161 0.0
H346 H 0.63333 0.31293 0.11291 0.0
O347 O 0.64609 0.30619 0.97181 0.0
O348 O 0.68322 0.30294 0.96069 0.0
C349 C 0.65731 0.24392 1.01309 0.0
O350 O 0.664 0.30156 0.80959 0.0
O351 O 0.62717 0.301 0.83992 0.0
Zn352 Zn 0.95465 0.76187 0.37125 0.0
O353 O 0.9579 0.78681 0.28174 0.0
C354 C 0.96935 0.72311 0.27545 0.0
Zn355 Zn 0.99282 0.75717 0.36561 0.0
C356 C 0.97798 0.7914 0.25725 0.0
O357 O 0.99522 0.78126 0.28342 0.0
C358 C 0.97246 0.72669 0.47787 0.0
O359 O 0.9969 0.78552 0.44084 0.0
O360 O 0.95934 0.79009 0.44843 0.0
N361 N 0.02737 0.75285 0.35634 0.0
C362 C 0.0403 0.75916 0.41125 0.0
C363 C 0.05488 0.77463 0.32074 0.0
N364 N 0.03725 0.76135 0.29894 0.0
N365 N 0.05655 0.77444 0.39204 0.0
C366 C 0.90347 0.76958 0.31923 0.0
C367 C 0.8839 0.76693 0.41431 0.0
N368 N 0.91869 0.76579 0.37238 0.0
N369 N 0.90639 0.76412 0.43132 0.0
N370 N 0.88152 0.77052 0.34419 0.0
H371 H 0.91339 0.78907 0.22818 0.0
H372 H 0.89571 0.76437 0.20867 0.0
H373 H 0.92573 0.76081 0.23153 0.0
C374 C 0.90995 0.77088 0.24249 0.0
C375 C 0.03724 0.74981 0.4839 0.0
H376 H 0.0298 0.73229 0.48255 0.0
H377 H 0.02601 0.76148 0.51463 0.0
H378 H 0.0543 0.7481 0.50931 0.0
O379 O 0.99085 0.73268 0.44654 0.0
O380 O 0.9535 0.73652 0.46034 0.0
C381 C 0.9797 0.79631 0.4668 0.0
O382 O 0.95123 0.73338 0.29681 0.0
O383 O 0.98897 0.73039 0.29479 0.0
Zn384 Zn 0.57462 0.65339 0.64175 0.0
O385 O 0.54889 0.66002 0.56154 0.0
C386 C 0.61058 0.67294 0.53693 0.0
Zn387 Zn 0.58263 0.69095 0.64908 0.0
C388 C 0.54405 0.68086 0.54703 0.0
O389 O 0.55489 0.6969 0.57828 0.0
C390 C 0.61492 0.66562 0.73819 0.0
O391 O 0.55921 0.69005 0.7342 0.0
O392 O 0.54746 0.65444 0.7262 0.0
N393 N 0.58609 0.72549 0.66355 0.0
C394 C 0.57963 0.73611 0.72353 0.0
C395 C 0.56969 0.75744 0.63906 0.0
N396 N 0.58089 0.73942 0.61079 0.0
N397 N 0.56744 0.75526 0.71001 0.0
C398 C 0.55965 0.60275 0.58947 0.0
C399 C 0.5875 0.58339 0.63206 0.0
N400 N 0.57276 0.6175 0.62815 0.0
N401 N 0.58992 0.6052 0.65457 0.0
N402 N 0.56874 0.58117 0.59031 0.0
H403 H 0.5283 0.62234 0.58811 0.0
H404 H 0.52583 0.59421 0.54891 0.0
H405 H 0.5409 0.61698 0.50252 0.0
C406 C 0.53732 0.60936 0.55527 0.0
C407 C 0.58243 0.72666 0.7965 0.0
H408 H 0.59301 0.71094 0.79834 0.0
H409 H 0.5654 0.72372 0.82164 0.0
H410 H 0.59095 0.74012 0.82763 0.0
O411 O 0.61019 0.6853 0.71405 0.0
O412 O 0.60203 0.64857 0.72189 0.0
C413 C 0.54612 0.67415 0.75599 0.0
O414 O 0.60082 0.6544 0.55776 0.0
O415 O 0.60547 0.69183 0.56621 0.0
Zn416 Zn 0.05623 0.34524 0.14005 0.0
O417 O 0.08421 0.34112 0.20958 0.0
C418 C 0.02781 0.37096 0.2539 0.0
Zn419 Zn 0.06062 0.38362 0.14302 0.0
C420 C 0.09478 0.35791 0.23743 0.0
O421 O 0.0888 0.37839 0.22077 0.0
C422 C 0.02177 0.36897 0.04968 0.0
O423 O 0.08458 0.37495 0.05372 0.0
O424 O 0.07799 0.33755 0.05696 0.0
N425 N 0.06799 0.41891 0.13391 0.0
C426 C 0.06633 0.43359 0.07839 0.0
C427 C 0.07679 0.45338 0.1674 0.0
N428 N 0.07455 0.43135 0.189 0.0
N429 N 0.07159 0.45547 0.09808 0.0
C430 C 0.0486 0.30647 0.22118 0.0
C431 C 1.01212 0.30756 0.20682 0.0
N432 N 0.04505 0.31186 0.1531 0.0
N433 N 0.02233 0.31081 0.14335 0.0
N434 N 0.02841 0.306 0.25712 0.0
H435 H 0.08282 0.29296 0.20214 0.0
H436 H 0.06672 0.27907 0.27239 0.0
H437 H 0.07917 0.30666 0.28707 0.0
C438 C 0.07066 0.29573 0.24679 0.0
C439 C 0.0607 0.42612 1.00445 0.0
H440 H 0.0655 0.40797 0.9958 0.0
H441 H 0.06987 0.43702 0.96519 0.0
H442 H 0.04182 0.42767 0.99569 0.0
O443 O 0.03191 0.38737 0.06884 0.0
O444 O 0.02919 0.34981 0.07096 0.0
C445 C 0.08838 0.35465 0.02977 0.0
O446 O 0.03413 0.3527 0.22416 0.0
O447 O 0.0363 0.38997 0.23222 0.0
Zn448 Zn 0.60125 0.3559 0.3946 0.0
O449 O 0.57486 0.33938 0.33243 0.0
C450 C 0.62246 0.38031 0.28224 0.0
Zn451 Zn 0.5815 0.387 0.38447 0.0
C452 C 0.56007 0.35031 0.29499 0.0
O453 O 0.5597 0.37236 0.29872 0.0
C454 C 0.62135 0.38882 0.48845 0.0
O455 O 0.55544 0.37517 0.46041 0.0
O456 O 0.58124 0.34918 0.48707 0.0
N457 N 0.56806 0.42057 0.37954 0.0
C458 C 0.56157 0.43444 0.43361 0.0
C459 C 0.56899 0.45614 0.34593 0.0
N460 N 0.57247 0.43421 0.32502 0.0
N461 N 0.56242 0.45695 0.41442 0.0
C462 C 0.62168 0.30769 0.38348 0.0
C463 C 0.63661 0.30345 0.48486 0.0
N464 N 0.61994 0.32777 0.41671 0.0
N465 N 0.63041 0.32557 0.47847 0.0
N466 N 0.62989 0.29122 0.42768 0.0
H467 H 0.61337 0.31889 0.27756 0.0
H468 H 0.59309 0.2992 0.31604 0.0
H469 H 0.62067 0.28891 0.28533 0.0
C470 C 0.61169 0.30342 0.31135 0.0
C471 C 0.55288 0.42571 0.50353 0.0
H472 H 0.53942 0.41249 0.49441 0.0
H473 H 0.54486 0.43956 0.53533 0.0
H474 H 0.56718 0.41779 0.53384 0.0
O475 O 0.6024 0.39886 0.47481 0.0
O476 O 0.6268 0.37193 0.45096 0.0
C477 C 0.56173 0.35835 0.49923 0.0
O478 O 0.62044 0.36056 0.30855 0.0
O479 O 0.60933 0.39648 0.30466 0.0
Zn480 Zn 0.06308 0.65019 0.89261 0.0
O481 O 0.08601 0.66288 0.9801 0.0
C482 C 0.02205 0.65372 0.99318 0.0
Zn483 Zn 0.04711 0.68501 0.90062 0.0
C484 C 0.08325 0.68286 1.00772 0.0
O485 O 0.06749 0.69589 0.98385 0.0
C486 C 0.02593 0.6559 0.78391 0.0
O487 O 0.07336 0.69642 0.82674 0.0
O488 O 0.08866 0.66227 0.81339 0.0
N489 N 0.02842 0.71493 0.89771 0.0
C490 C 0.03236 0.72454 0.83485 0.0
C491 C 0.99692 0.71464 0.83538 0.0
N492 N 1.00591 0.71035 0.8999 0.0
N493 N 1.01357 0.7229 0.79293 0.0
C494 C 0.07913 0.60176 0.95049 0.0
C495 C 0.08287 0.58255 0.85537 0.0
N496 N 0.07648 0.61674 0.89603 0.0
N497 N 0.07896 0.60465 0.83713 0.0
N498 N 0.08306 0.58019 0.92632 0.0
H499 H 0.07237 0.62617 0.03464 0.0
H500 H 0.09103 0.60274 0.05782 0.0
H501 H 0.0607 0.5976 0.04795 0.0
C502 C 0.07553 0.60763 0.02691 0.0
C503 C 0.05253 0.74013 0.82164 0.0
H504 H 0.0629 0.74256 0.87049 0.0
H505 H 0.04607 0.75678 0.80292 0.0
H506 H 0.06375 0.73341 0.77942 0.0
O507 O 0.02622 0.67449 0.8178 0.0
O508 O 0.04012 0.64022 0.8022 0.0
C509 C 0.08834 0.68365 0.79709 0.0
O510 O 0.03692 0.63924 0.9716 0.0
O511 O 0.02297 0.67398 0.97022 0.0
H512 H 0.11768 0.16083 0.93833 0.0
H513 H 0.13515 0.21479 0.08552 0.0
H514 H 0.16287 0.23074 1.00216 0.0
H515 H 0.17763 0.2333 0.8805 0.0
H516 H 0.1591 0.1811 0.72988 0.0
H517 H 0.13709 0.16041 0.82066 0.0
C518 C 0.12795 0.17574 0.95259 0.0
C519 C 0.12397 0.18675 0.01784 0.0
C520 C 0.14383 0.18526 0.90334 0.0
C521 C 0.13747 0.20614 0.03526 0.0
C522 C 0.15346 0.21531 0.9876 0.0
C523 C 0.16977 0.21679 0.86868 0.0
C524 C 0.1704 0.20849 0.79898 0.0
C525 C 0.15626 0.20554 0.92053 0.0
C526 C 0.15926 0.18754 0.78365 0.0
C527 C 0.14635 0.1759 0.83535 0.0
H528 H 0.16965 0.85898 0.24493 0.0
H529 H 0.19241 0.79587 0.14892 0.0
H530 H 0.17556 0.80775 0.03603 0.0
H531 H 0.14706 0.83196 0.97403 0.0
H532 H 0.12257 0.89419 0.07244 0.0
H533 H 0.14726 0.88683 0.17515 0.0
C534 C 0.17194 0.84839 0.19821 0.0
C535 C 0.18233 0.82659 0.20519 0.0
C536 C 0.16106 0.85481 0.13476 0.0
C537 C 0.18495 0.81286 0.14473 0.0
C538 C 0.17476 0.81945 0.08056 0.0
C539 C 0.14745 0.84414 0.01743 0.0
C540 C 0.13261 0.86336 0.01636 0.0
C541 C 0.16159 0.8397 0.0764 0.0
C542 C 0.13366 0.87921 0.07222 0.0
C543 C 0.14775 0.87497 0.13099 0.0
H544 H 0.46968 0.85773 0.23279 0.0
H545 H 0.42592 0.81658 0.367 0.0
H546 H 0.43547 0.84113 0.46815 0.0
H547 H 0.46584 0.86485 0.5218 0.0
H548 H 0.51651 0.89793 0.38948 0.0
H549 H 0.4942 0.88766 0.28429 0.0
C550 C 0.46131 0.85498 0.28357 0.0
C551 C 0.44741 0.83532 0.29325 0.0
C552 C 0.46872 0.86771 0.3422 0.0
C553 C 0.43658 0.83168 0.35859 0.0
C554 C 0.44243 0.8455 0.41657 0.0
C555 C 0.47152 0.87039 0.46992 0.0
C556 C 0.49319 0.88122 0.46273 0.0
C557 C 0.45998 0.86216 0.40987 0.0
C558 C 0.49998 0.8894 0.39613 0.0
C559 C 0.48743 0.88307 0.33591 0.0
H560 H 0.49536 0.17344 0.78404 0.0
H561 H 0.44629 0.2148 0.6693 0.0
H562 H 0.45064 0.18989 0.56585 0.0
H563 H 0.47557 0.16299 0.50139 0.0
H564 H 0.52774 0.12476 0.61321 0.0
H565 H 0.51425 0.14082 0.72536 0.0
C566 C 0.48515 0.17662 0.73691 0.0
C567 C 0.4709 0.19621 0.73352 0.0
C568 C 0.48836 0.16269 0.67721 0.0
C569 C 0.45742 0.19993 0.673 0.0
C570 C 0.46005 0.18575 0.61373 0.0
C571 C 0.4832 0.15732 0.55085 0.0
C572 C 0.50289 0.1431 0.54915 0.0
C573 C 0.47644 0.16793 0.61414 0.0
C574 C 0.51257 0.13565 0.61317 0.0
C575 C 0.50517 0.14527 0.67714 0.0
H576 H 1.0028 0.83113 0.25369 0.0
H577 H 0.96464 0.78441 0.12105 0.0
H578 H 0.98136 0.80242 0.01522 0.0
H579 H 1.01091 0.82817 0.96154 0.0
H580 H 0.0469 0.87681 0.09352 0.0
H581 H 0.02687 0.86168 0.19819 0.0
C582 C 0.99746 0.82552 0.20146 0.0
C583 C 0.98219 0.80665 0.19524 0.0
C584 C 1.00708 0.83612 0.14074 0.0
C585 C 0.97588 0.7992 0.12728 0.0
C586 C 0.98571 0.80933 0.06676 0.0
C587 C 1.01386 0.83587 1.013 0.0
C588 C 0.03043 0.85363 0.01966 0.0
C589 C 1.0019 0.82733 0.0729 0.0
C590 C 0.03411 0.86336 0.08673 0.0
C591 C 0.02277 0.85455 0.14673 0.0
H592 H 0.97548 0.19138 0.79167 0.0
H593 H 0.94644 0.24771 0.90889 0.0
H594 H 0.96787 0.23576 0.01439 0.0
H595 H 1.00036 0.21336 0.06623 0.0
H596 H 0.02874 0.15659 0.94849 0.0
H597 H 1.0024 0.16469 0.85044 0.0
C598 C 0.97277 0.20023 0.84151 0.0
C599 C 0.95892 0.22019 0.84244 0.0
C600 C 0.9859 0.19371 0.90119 0.0
C601 C 0.9563 0.23191 0.90695 0.0
C602 C 0.96912 0.22541 0.96691 0.0
C603 C 1.00051 0.20254 0.01952 0.0
C604 C 1.01682 0.18456 0.01442 0.0
C605 C 0.98487 0.20703 0.96355 0.0
C606 C 1.0165 0.17054 0.95389 0.0
C607 C 1.0014 0.17518 0.89769 0.0
H608 H 0.64917 0.23166 0.67697 0.0
H609 H 0.60331 0.20966 0.84309 0.0
H610 H 0.58321 0.18397 0.76128 0.0
H611 H 0.5762 0.17027 0.63919 0.0
H612 H 0.62171 0.19207 0.47189 0.0
H613 H 0.64445 0.21482 0.55625 0.0
C614 C 0.6351 0.22088 0.69548 0.0
C615 C 0.62746 0.22294 0.76626 0.0
C616 C 0.62351 0.206 0.6474 0.0
C617 C 0.60908 0.20887 0.78877 0.0
C618 C 0.59767 0.19405 0.74195 0.0
C619 C 0.59157 0.17938 0.6218 0.0
C620 C 0.59765 0.17889 0.54961 0.0
C621 C 0.60435 0.1928 0.67068 0.0
C622 C 0.61709 0.19156 0.52745 0.0
C623 C 0.62996 0.20481 0.57569 0.0
H624 H 0.61943 0.84745 0.45274 0.0
H625 H 0.55283 0.83352 0.36 0.0
H626 H 0.57125 0.81655 0.25645 0.0
H627 H 0.60586 0.80183 0.19791 0.0
H628 H 0.67291 0.814 0.29024 0.0
H629 H 0.65494 0.83548 0.38716 0.0
C630 C 0.60907 0.84124 0.40893 0.0
C631 C 0.58476 0.84186 0.41393 0.0
C632 C 0.61987 0.83081 0.34973 0.0
C633 C 0.57154 0.8333 0.35734 0.0
C634 C 0.58207 0.82347 0.29819 0.0
C635 C 0.61665 0.80942 0.23865 0.0
C636 C 0.64076 0.80609 0.23666 0.0
C637 C 0.60617 0.8215 0.2947 0.0
C638 C 0.65434 0.81624 0.29005 0.0
C639 C 0.64403 0.82847 0.34585 0.0
H640 H 0.64715 0.68623 0.23075 0.0
H641 H 0.68858 0.73746 0.33608 0.0
H642 H 0.67672 0.72216 0.45119 0.0
H643 H 0.64845 0.69947 0.51963 0.0
H644 H 0.6065 0.64865 0.41431 0.0
H645 H 0.62492 0.65819 0.30123 0.0
C646 C 0.6542 0.69349 0.27903 0.0
C647 C 0.66858 0.71301 0.27524 0.0
C648 C 0.64688 0.6849 0.34479 0.0
C649 C 0.6777 0.7223 0.33775 0.0
C650 C 0.67064 0.71374 0.40356 0.0
C651 C 0.64389 0.69002 0.47216 0.0
C652 C 0.62599 0.67361 0.47475 0.0
C653 C 0.65434 0.69583 0.40749 0.0
C654 C 0.62028 0.66129 0.41342 0.0
C655 C 0.63066 0.66692 0.34874 0.0
H656 H 0.67182 0.33475 0.71368 0.0
H657 H 0.60121 0.32883 0.78654 0.0
H658 H 0.58967 0.35994 0.70983 0.0
H659 H 0.59781 0.38451 0.60902 0.0
H660 H 0.66687 0.38845 0.52549 0.0
H661 H 0.68098 0.36397 0.62143 0.0
C662 C 0.65398 0.34037 0.71293 0.0
C663 C 0.63746 0.32895 0.75505 0.0
C664 C 0.64715 0.35846 0.66753 0.0
C665 C 0.61441 0.33682 0.75404 0.0
C666 C 0.60769 0.35487 0.71045 0.0
C667 C 0.61617 0.38112 0.61414 0.0
C668 C 0.63123 0.38826 0.56019 0.0
C669 C 0.62372 0.36541 0.6656 0.0
C670 C 0.65495 0.38337 0.56694 0.0
C671 C 0.6629 0.36877 0.62067 0.0
H672 H 0.02134 0.37783 0.90983 0.0
H673 H 0.97862 0.35583 0.08358 0.0
H674 H 0.95304 0.33534 1.00244 0.0
H675 H 0.94956 0.3154 0.88721 0.0
H676 H 0.9942 0.3357 0.71567 0.0
H677 H 1.01191 0.36526 0.78933 0.0
C678 C 1.00563 0.36972 0.92911 0.0
C679 C 1.00174 0.36836 1.00215 0.0
C680 C 0.99171 0.35696 0.88238 0.0
C681 C 0.9817 0.3573 0.02716 0.0
C682 C 0.96731 0.3452 0.98088 0.0
C683 C 0.96242 0.32701 0.86544 0.0
C684 C 0.97079 0.32336 0.79673 0.0
C685 C 0.97309 0.3436 0.90903 0.0
C686 C 0.98766 0.33825 0.76886 0.0
C687 C 0.99788 0.35507 0.81102 0.0
H688 H 0.99604 0.68541 0.28139 0.0
H689 H 0.94146 0.7167 0.16024 0.0
H690 H 0.94875 0.68985 0.06281 0.0
H691 H 0.97727 0.66522 1.00332 0.0
H692 H 0.03378 0.63659 0.12199 0.0
H693 H 1.01841 0.65348 0.23057 0.0
C694 C 0.98527 0.68582 0.23443 0.0
C695 C 0.96859 0.70325 0.22694 0.0
C696 C 0.98995 0.67071 0.17841 0.0
C697 C 0.95446 0.7035 0.16676 0.0
C698 C 0.95874 0.68823 0.11101 0.0
C699 C 0.98541 0.66156 0.05381 0.0
C700 C 1.00684 0.65008 0.05469 0.0
C701 C 0.97733 0.67273 0.11482 0.0
C702 C 1.01728 0.64532 0.12 0.0
C703 C 1.00878 0.65552 0.18182 0.0
H704 H 0.57462 0.33032 0.60611 0.0
H705 H 0.51428 0.36211 0.51607 0.0
H706 H 0.4895 0.34053 0.59878 0.0
H707 H 0.48502 0.3106 0.6945 0.0
H708 H 0.54707 0.28012 0.7805 0.0
H709 H 0.57064 0.30301 0.70223 0.0
C710 C 0.55605 0.33283 0.60486 0.0
C711 C 0.54643 0.34789 0.55463 0.0
C712 C 0.54199 0.32028 0.65197 0.0
C713 C 0.52227 0.35078 0.55432 0.0
C714 C 0.50806 0.33827 0.60143 0.0
C715 C 0.50367 0.30906 0.69625 0.0
C716 C 0.51393 0.29323 0.74374 0.0
C717 C 0.51768 0.32262 0.65014 0.0
C718 C 0.53829 0.29176 0.74479 0.0
C719 C 0.55203 0.30498 0.69986 0.0
H720 H 0.49904 0.69553 0.53406 0.0
H721 H 0.56107 0.68108 0.41604 0.0
H722 H 0.54501 0.70012 0.31204 0.0
H723 H 0.51569 0.72522 0.26016 0.0
H724 H 0.4524 0.73852 0.37267 0.0
H725 H 0.46586 0.71454 0.4716 0.0
C726 C 0.50863 0.69597 0.48478 0.0
C727 C 0.53116 0.68686 0.48229 0.0
C728 C 0.49914 0.70689 0.42457 0.0
C729 C 0.5436 0.68772 0.41862 0.0
C730 C 0.53451 0.69879 0.3594 0.0
C731 C 0.50472 0.72262 0.30611 0.0
C732 C 0.48329 0.73389 0.30988 0.0
C733 C 0.51267 0.70911 0.36259 0.0
C734 C 0.46903 0.7301 0.36888 0.0
C735 C 0.4769 0.71669 0.42584 0.0
H736 H 0.15859 0.72207 0.22288 0.0
H737 H 0.10004 0.76431 0.27825 0.0
H738 H 0.07589 0.74339 0.19583 0.0
H739 H 0.07125 0.71482 0.10361 0.0
H740 H 0.12832 0.67152 0.04417 0.0
H741 H 0.15291 0.69077 0.13264 0.0
C742 C 0.14052 0.72656 0.2172 0.0
C743 C 0.13131 0.74498 0.25723 0.0
C744 C 0.12637 0.71426 0.16869 0.0
C745 C 0.10777 0.75037 0.24881 0.0
C746 C 0.09383 0.73839 0.20133 0.0
C747 C 0.08905 0.7094 0.11006 0.0
C748 C 0.09793 0.69184 0.06665 0.0
C749 C 0.10296 0.72056 0.16042 0.0
C750 C 0.12096 0.68493 0.07685 0.0
C751 C 0.13507 0.69608 0.1272 0.0
H752 H 0.12601 0.32284 0.73464 0.0
H753 H 0.17831 0.29211 0.86598 0.0
H754 H 0.16213 0.31132 0.97031 0.0
H755 H 0.12987 0.33291 0.02596 0.0
H756 H 0.07904 0.36543 0.89341 0.0
H757 H 0.09794 0.34987 0.78767 0.0
C758 C 0.13421 0.32087 0.78588 0.0
C759 C 0.15332 0.30605 0.79269 0.0
C760 C 0.12494 0.33221 0.84541 0.0
C761 C 0.16377 0.3036 0.85928 0.0
C762 C 0.15437 0.31444 0.91904 0.0
C763 C 0.12345 0.33718 0.97367 0.0
C764 C 0.10323 0.35047 0.96723 0.0
C765 C 0.13455 0.32826 0.91307 0.0
C766 C 0.09479 0.35559 0.89946 0.0
C767 C 0.10548 0.34648 0.8391 0.0
H768 H 0.99759 0.28102 0.33175 0.0
H769 H 0.05187 0.33035 0.35725 0.0
H770 H 0.07097 0.30612 0.44292 0.0
H771 H 0.08234 0.26582 0.42 0.0
H772 H 0.03037 0.21508 0.38484 0.0
H773 H 1.00012 0.24392 0.3944 0.0
C774 C 1.01258 0.28713 0.36065 0.0
C775 C 0.02543 0.3053 0.33241 0.0
C776 C 0.02438 0.27196 0.40517 0.0
C777 C 0.04309 0.31485 0.37433 0.0
C778 C 0.05422 0.30079 0.42309 0.0
C779 C 0.06429 0.26074 0.42113 0.0
C780 C 0.05782 0.24003 0.38911 0.0
C781 C 0.0473 0.27778 0.42593 0.0
C782 C 0.03511 0.23236 0.39992 0.0
C783 C 1.01777 0.24883 0.40532 0.0
H784 H 0.04443 0.81726 0.35327 0.0
H785 H 0.07602 0.7782 0.52176 0.0
H786 H 0.0803 0.81307 0.59142 0.0
H787 H 0.08954 0.85411 0.58219 0.0
H788 H 0.07577 0.88977 0.3962 0.0
H789 H 0.04763 0.86047 0.3575 0.0
C790 C 0.05238 0.8163 0.40509 0.0
C791 C 0.06013 0.79506 0.43209 0.0
C792 C 0.05764 0.83651 0.44105 0.0
C793 C 0.06951 0.7941 0.50044 0.0
C794 C 0.07199 0.81401 0.54038 0.0
C795 C 0.08084 0.85449 0.53157 0.0
C796 C 0.09035 0.86711 0.47549 0.0
C797 C 0.06834 0.83525 0.50847 0.0
C798 C 0.07272 0.875 0.42984 0.0
C799 C 0.05703 0.85804 0.40647 0.0
H800 H 0.53518 0.72361 0.70704 0.0
H801 H 0.54875 0.79319 0.77012 0.0
H802 H 0.50708 0.80065 0.77606 0.0
H803 H 0.47033 0.79077 0.71602 0.0
H804 H 0.4734 0.73551 0.5734 0.0
H805 H 0.49795 0.7142 0.65575 0.0
C806 C 0.52888 0.73974 0.72751 0.0
C807 C 0.54475 0.75771 0.7395 0.0
C808 C 0.50569 0.7448 0.71803 0.0
C809 C 0.5367 0.77921 0.76131 0.0
C810 C 0.51291 0.78335 0.76452 0.0
C811 C 0.47782 0.77457 0.70091 0.0
C812 C 0.47732 0.7676 0.62949 0.0
C813 C 0.4976 0.767 0.73606 0.0
C814 C 0.47813 0.74352 0.62278 0.0
C815 C 0.49285 0.73158 0.6691 0.0
H816 H 0.57118 0.27766 0.21488 0.0
H817 H 0.5801 0.34333 0.0922 0.0
H818 H 0.59149 0.32662 0.95982 0.0
H819 H 0.58861 0.24536 0.94166 0.0
H820 H 0.56983 0.20104 0.11272 0.0
H821 H 0.5734 0.23232 0.19857 0.0
C822 C 0.57534 0.28097 0.15992 0.0
C823 C 0.5759 0.30808 0.14422 0.0
C824 C 0.57925 0.2579 0.11806 0.0
C825 C 0.58124 0.32503 0.08244 0.0
C826 C 0.58805 0.31666 1.00753 0.0
C827 C 0.58617 0.24319 0.99791 0.0
C828 C 0.57716 0.2221 0.02147 0.0
C829 C 0.58463 0.2628 0.04249 0.0
C830 C 0.57602 0.2176 0.09463 0.0
C831 C 0.577 0.23559 0.14349 0.0
H832 H 0.08163 0.75621 0.66445 0.0
H833 H 0.03585 0.81336 0.68478 0.0
H834 H 1.00266 0.78835 0.66553 0.0
H835 H 0.99025 0.75123 0.70678 0.0
H836 H 0.03819 0.69562 0.70302 0.0
H837 H 0.06553 0.7178 0.63658 0.0
C838 C 0.06453 0.76346 0.65879 0.0
C839 C 0.06018 0.78557 0.68384 0.0
C840 C 0.04559 0.749 0.64735 0.0
C841 C 0.03865 0.79562 0.671 0.0
C842 C 0.01972 0.78152 0.65856 0.0
C843 C 1.00604 0.74363 0.68657 0.0
C844 C 1.01382 0.72337 0.71726 0.0
C845 C 0.02299 0.75787 0.65732 0.0
C846 C 0.0325 0.71213 0.68419 0.0
C847 C 0.04876 0.72524 0.64785 0.0
H848 H 0.54871 0.75282 0.92065 0.0
H849 H 0.61591 0.78177 0.95466 0.0
H850 H 0.60111 0.81982 0.95046 0.0
H851 H 0.56862 0.83937 1.0031 0.0
H852 H 0.50113 0.81057 0.98247 0.0
H853 H 0.51539 0.77926 0.91355 0.0
C854 C 0.5602 0.76752 0.92225 0.0
C855 C 0.58333 0.76433 0.94116 0.0
C856 C 0.55109 0.78985 0.92383 0.0
C857 C 0.59819 0.78353 0.94027 0.0
C858 C 0.58955 0.80566 0.93878 0.0
C859 C 0.55686 0.82738 0.97779 0.0
C860 C 0.53463 0.8252 1.005 0.0
C861 C 0.56581 0.80863 0.94056 0.0
C862 C 0.51891 0.81143 0.96685 0.0
C863 C 0.52723 0.79296 0.92784 0.0
H864 H 0.55298 0.24815 0.29271 0.0
H865 H 0.51624 0.28184 0.46078 0.0
H866 H 0.55314 0.29281 0.51435 0.0
H867 H 0.59507 0.2876 0.52059 0.0
H868 H 0.63062 0.251 0.35605 0.0
H869 H 0.59359 0.24006 0.30375 0.0
C870 C 0.55266 0.25741 0.34194 0.0
C871 C 0.53171 0.26099 0.3784 0.0
C872 C 0.57336 0.26003 0.37783 0.0
C873 C 0.53212 0.27708 0.4343 0.0
C874 C 0.55313 0.28231 0.46708 0.0
C875 C 0.5947 0.27617 0.47529 0.0
C876 C 0.61532 0.27166 0.43783 0.0
C877 C 0.57363 0.27241 0.44169 0.0
C878 C 0.61482 0.25546 0.38328 0.0
C879 C 0.59374 0.25016 0.35168 0.0
H880 H 0.09783 0.18379 0.48485 0.0
H881 H 0.12363 0.16308 0.6826 0.0
H882 H 0.08479 0.15643 0.72839 0.0
H883 H 0.05169 0.18418 0.73041 0.0
H884 H 0.0272 0.21196 0.53352 0.0
H885 H 0.05621 0.19056 0.46852 0.0
C886 C 0.09458 0.17755 0.53789 0.0
C887 C 0.11107 0.18132 0.59076 0.0
C888 C 0.07185 0.17671 0.56307 0.0
C889 C 0.10919 0.16556 0.64716 0.0
C890 C 0.08686 0.16198 0.674 0.0
C891 C 0.05178 0.18453 0.67305 0.0
C892 C 0.04004 0.20207 0.6369 0.0
C893 C 0.06848 0.17197 0.63629 0.0
C894 C 0.03865 0.20091 0.56271 0.0
C895 C 0.05469 0.18805 0.52515 0.0
H896 H 0.04707 0.04254 0.11114 0.0
H897 H 0.09942 0.07544 0.98387 0.0
H898 H 0.10465 0.04007 0.9164 0.0
H899 H 0.09514 0.99919 0.89535 0.0
H900 H 0.04306 0.96618 0.02332 0.0
H901 H 0.03743 1.00174 0.08975 0.0
C902 C 0.05953 0.042 0.06829 0.0
C903 C 0.07231 0.062 0.05148 0.0
C904 C 0.06285 0.02133 0.03072 0.0
C905 C 0.0886 0.06082 0.99633 0.0
C906 C 0.09188 0.04039 0.95835 0.0
C907 C 0.08261 0.99978 0.93798 0.0
C908 C 0.07004 0.97972 0.95549 0.0
C909 C 0.07918 0.0205 0.97525 0.0
C910 C 0.05367 0.98092 1.01038 0.0
C911 C 0.0502 1.00142 0.04778 0.0
H912 H 0.29284 0.73145 0.35477 0.0
H913 H 0.2624 0.78518 0.22875 0.0
H914 H 0.29775 0.78888 0.16053 0.0
H915 H 0.33835 0.77826 0.13892 0.0
H916 H 0.37025 0.72646 0.26853 0.0
H917 H 0.33393 0.72091 0.33341 0.0
C918 C 0.2939 0.74377 0.31183 0.0
C919 C 0.27432 0.75718 0.2951 0.0
C920 C 0.31488 0.74647 0.274 0.0
C921 C 0.27636 0.77354 0.24044 0.0
C922 C 0.29691 0.77604 0.20205 0.0
C923 C 0.33727 0.76568 0.18115 0.0
C924 C 0.3571 0.75302 0.19942 0.0
C925 C 0.31632 0.76269 0.21841 0.0
C926 C 0.35544 0.73679 0.25441 0.0
C927 C 0.33458 0.73352 0.2912 0.0
H928 H 0.55131 0.04842 0.51109 0.0
H929 H 0.60796 0.03616 0.36802 0.0
H930 H 0.61177 0.99697 0.41336 0.0
H931 H 0.59887 0.96571 0.49408 0.0
H932 H 0.54339 0.97865 0.64017 0.0
H933 H 0.5396 0.018 0.59503 0.0
C934 C 0.56495 0.03752 0.49119 0.0
C935 C 0.5797 0.04566 0.43705 0.0
C936 C 0.56716 1.01491 0.51803 0.0
C937 C 0.59649 0.03054 0.40993 0.0
C938 C 0.59868 1.00806 0.43587 0.0
C939 C 0.58591 0.97718 0.51554 0.0
C940 C 0.57123 0.96924 0.56985 0.0
C941 C 0.58405 0.99996 0.48974 0.0
C942 C 0.5548 0.9844 0.59824 0.0
C943 C 0.55264 1.00688 0.57236 0.0
H944 H 0.35312 0.29602 0.85376 0.0
H945 H 0.38 0.24034 0.72793 0.0
H946 H 0.34309 0.23649 0.66814 0.0
H947 H 0.3024 0.24808 0.65248 0.0
H948 H 0.27435 0.30211 0.78195 0.0
H949 H 0.31185 0.30694 0.84031 0.0
C950 C 0.35098 0.28315 0.81284 0.0
C951 C 0.37006 0.26925 0.79367 0.0
C952 C 0.32912 0.28036 0.78008 0.0
C953 C 0.36651 0.2523 0.74156 0.0
C954 C 0.34505 0.24973 0.70803 0.0
C955 C 0.30448 0.26088 0.69365 0.0
C956 C 0.28531 0.27441 0.71349 0.0
C957 C 0.32621 0.26361 0.72681 0.0
C958 C 0.28843 0.29096 0.76688 0.0
C959 C 0.31004 0.29391 0.79973 0.0
H960 H 0.78043 0.29545 0.84191 0.0
H961 H 0.75237 0.24457 0.70066 0.0
H962 H 0.78977 0.24195 0.63962 0.0
H963 H 0.83155 0.25254 0.63142 0.0
H964 H 0.85824 0.30521 0.76959 0.0
H965 H 0.82076 0.30838 0.82719 0.0
C966 C 0.78242 0.28399 0.79712 0.0
C967 C 0.76343 0.2704 0.77558 0.0
C968 C 0.80405 0.28252 0.76265 0.0
C969 C 0.76639 0.25561 0.7175 0.0
C970 C 0.78794 0.25392 0.68313 0.0
C971 C 0.82915 0.26476 0.67403 0.0
C972 C 0.84833 0.27779 0.69816 0.0
C973 C 0.80705 0.26705 0.7059 0.0
C974 C 0.84452 0.29392 0.75235 0.0
C975 C 0.82283 0.29605 0.7847 0.0
H976 H 0.84126 0.74787 0.36205 0.0
H977 H 0.87309 0.8029 0.24441 0.0
H978 H 0.83694 0.80957 0.18063 0.0
H979 H 0.79618 0.79933 0.15675 0.0
H980 H 0.76496 0.74314 0.27108 0.0
H981 H 0.8004 0.73775 0.33845 0.0
C982 C 0.8402 0.76132 0.32248 0.0
C983 C 0.86003 0.77451 0.30689 0.0
C984 C 0.81925 0.76508 0.28602 0.0
C985 C 0.85836 0.79203 0.25585 0.0
C986 C 0.83758 0.79599 0.21984 0.0
C987 C 0.79709 0.78605 0.19689 0.0
C988 C 0.77745 0.77226 0.21026 0.0
C989 C 0.81793 0.78254 0.23413 0.0
C990 C 0.77917 0.75482 0.26167 0.0
C991 C 0.79969 0.75144 0.29956 0.0
H992 H 0.57646 0.53775 0.63246 0.0
H993 H 0.54963 0.57721 0.45799 0.0
H994 H 0.54329 0.54195 0.3907 0.0
H995 H 0.54776 0.49958 0.37792 0.0
H996 H 0.57954 0.46151 0.54751 0.0
H997 H 0.58153 0.49611 0.61929 0.0
C998 C 0.56894 0.53865 0.58002 0.0
C999 C 0.5628 0.56029 0.55192 0.0
C1000 C 0.56628 0.51831 0.54023 0.0
C1001 C 0.55352 0.56098 0.48304 0.0
C1002 C 0.55027 0.54072 0.44375 0.0
C1003 C 0.5548 0.49885 0.43099 0.0
C1004 C 0.56239 0.47751 0.45821 0.0
C1005 C 0.55682 0.51925 0.47145 0.0
C1006 C 0.57224 0.47715 0.52633 0.0
C1007 C 0.57378 0.49714 0.56719 0.0
H1008 H 0.05602 0.54316 0.90577 0.0
H1009 H 0.11226 0.56866 0.03227 0.0
H1010 H 0.11394 0.53202 0.0965 0.0
H1011 H 0.09944 0.49237 0.11606 0.0
H1012 H 0.04138 0.46812 0.99411 0.0
H1013 H 0.04066 0.50407 0.92817 0.0
C1014 C 0.06861 0.54061 0.94745 0.0
C1015 C 0.08383 0.55869 0.96486 0.0
C1016 C 0.06936 0.51949 0.98431 0.0
C1017 C 0.10006 0.55522 0.019 0.0
C1018 C 0.10112 0.53418 0.05528 0.0
C1019 C 0.08669 0.49492 0.07483 0.0
C1020 C 0.07116 0.47691 0.05833 0.0
C1021 C 0.08584 0.51615 0.03844 0.0
C1022 C 0.05442 0.48087 1.0057 0.0
C1023 C 0.05372 0.50173 0.96858 0.0
H1024 H 0.12228 0.15039 0.39411 0.0
H1025 H 0.14111 0.18983 0.20973 0.0
H1026 H 0.17181 0.20889 0.27542 0.0
H1027 H 0.18658 0.22083 0.39203 0.0
H1028 H 0.16945 0.18062 0.5758 0.0
H1029 H 0.146 0.15475 0.50365 0.0
C1030 C 0.13391 0.16221 0.36746 0.0
C1031 C 0.12935 0.16867 0.29701 0.0
C1032 C 0.15187 0.17321 0.40584 0.0
C1033 C 0.14433 0.18445 0.26378 0.0
C1034 C 0.16182 0.19557 0.30154 0.0
C1035 C 0.17899 0.20554 0.41543 0.0
C1036 C 0.18003 0.20261 0.48919 0.0
C1037 C 0.16494 0.191 0.37363 0.0
C1038 C 0.16942 0.18302 0.5189 0.0
C1039 C 0.15548 0.16848 0.47778 0.0
H1040 H 0.18298 0.86657 0.50137 0.0
H1041 H 0.20179 0.8052 0.61516 0.0
H1042 H 0.18221 0.81966 0.72038 0.0
H1043 H 0.15129 0.84413 0.76718 0.0
H1044 H 0.1287 0.90348 0.64964 0.0
H1045 H 0.15814 0.89563 0.55897 0.0
C1046 C 0.18396 0.85698 0.55053 0.0
C1047 C 0.19355 0.83455 0.54968 0.0
C1048 C 0.1711 0.86472 0.60937 0.0
C1049 C 0.19468 0.82241 0.61381 0.0
C1050 C 0.18289 0.83047 0.67369 0.0
C1051 C 0.15315 0.85573 0.72251 0.0
C1052 C 0.13747 0.87416 0.71446 0.0
C1053 C 0.16963 0.85069 0.67004 0.0
C1054 C 0.14041 0.8892 0.65707 0.0
C1055 C 0.15724 0.88461 0.60514 0.0
H1056 H 0.44334 0.82211 0.91008 0.0
H1057 H 0.48234 0.85675 0.07216 0.0
H1058 H 0.50512 0.87688 0.98301 0.0
H1059 H 0.51908 0.87736 0.85697 0.0
H1060 H 0.47021 0.85741 0.6975 0.0
H1061 H 0.44576 0.83883 0.78676 0.0
C1062 C 0.45597 0.83485 0.92624 0.0
C1063 C 0.46261 0.83631 0.99769 0.0
C1064 C 0.46768 0.8483 0.87469 0.0
C1065 C 0.47824 0.85391 0.01704 0.0
C1066 C 0.49124 0.86562 0.96611 0.0
C1067 C 0.5026 0.86997 0.84185 0.0
C1068 C 0.49761 0.86636 0.76998 0.0
C1069 C 0.4871 0.86179 0.8943 0.0
C1070 C 0.47556 0.8579 0.75224 0.0
C1071 C 0.46132 0.84769 0.80335 0.0
H1072 H 0.47805 0.171 0.27831 0.0
H1073 H 0.52131 0.12731 0.15084 0.0
H1074 H 0.5015 0.14083 0.04392 0.0
H1075 H 0.47945 0.17187 0.98729 0.0
H1076 H 0.44149 0.2201 0.11513 0.0
H1077 H 0.451 0.19779 0.22132 0.0
C1078 C 0.48251 0.16374 0.22722 0.0
C1079 C 0.50127 0.14823 0.22246 0.0
C1080 C 0.47218 0.17288 0.16601 0.0
C1081 C 0.50687 0.13899 0.15619 0.0
C1082 C 0.49576 0.14709 0.09497 0.0
C1083 C 0.47243 0.17697 0.03817 0.0
C1084 C 0.45982 0.19775 0.0433 0.0
C1085 C 0.47945 0.16501 0.09917 0.0
C1086 C 0.45092 0.20416 0.10938 0.0
C1087 C 0.45678 0.19157 0.17026 0.0
H1088 H 1.00805 0.83457 0.46223 0.0
H1089 H 0.95949 0.79951 0.59727 0.0
H1090 H 0.97247 0.82258 0.69847 0.0
H1091 H 1.00468 0.84571 0.7526 0.0
H1092 H 0.04911 0.88499 0.61511 0.0
H1093 H 0.02909 0.86905 0.51191 0.0
C1094 C 1.00013 0.83215 0.51366 0.0
C1095 C 0.98363 0.81438 0.52269 0.0
C1096 C 1.00723 0.84601 0.57172 0.0
C1097 C 0.97257 0.81259 0.58879 0.0
C1098 C 0.98004 0.82583 0.64696 0.0
C1099 C 1.0097 0.8512 0.69994 0.0
C1100 C 0.02898 0.86607 0.69186 0.0
C1101 C 0.99856 0.84141 0.64 0.0
C1102 C 0.03478 0.87326 0.62325 0.0
C1103 C 0.02379 0.86357 0.56394 0.0
H1104 H 0.98955 0.18842 0.56322 0.0
H1105 H 0.94907 0.23312 0.43086 0.0
H1106 H 0.96426 0.21403 0.32517 0.0
H1107 H 0.99536 0.19056 0.27125 0.0
H1108 H 0.0362 0.14601 0.40301 0.0
H1109 H 1.01388 0.15807 0.50704 0.0
C1110 C 0.98352 0.1935 0.51122 0.0
C1111 C 0.96845 0.21255 0.50519 0.0
C1112 C 0.99265 0.18254 0.45028 0.0
C1113 C 0.96054 0.21859 0.43744 0.0
C1114 C 0.96946 0.20778 0.37676 0.0
C1115 C 0.99892 0.18295 0.32249 0.0
C1116 C 1.01767 0.1675 0.32917 0.0
C1117 C 0.9865 0.19064 0.38253 0.0
C1118 C 0.02188 0.15773 0.39587 0.0
C1119 C 1.0093 0.16497 0.45568 0.0
H1120 H 0.63964 0.20051 1.01106 0.0
H1121 H 0.66572 0.25262 0.1515 0.0
H1122 H 0.64562 0.23451 0.25085 0.0
H1123 H 0.61607 0.20671 0.29516 0.0
H1124 H 0.59109 0.15377 0.15573 0.0
H1125 H 0.61557 0.16871 0.06004 0.0
C1126 C 0.64201 0.20715 0.06418 0.0
C1127 C 0.65497 0.2276 0.07369 0.0
C1128 C 0.62997 0.19674 0.12137 0.0
C1129 C 0.65671 0.23652 0.14262 0.0
C1130 C 0.64472 0.2264 0.19945 0.0
C1131 C 0.61601 0.19849 0.24377 0.0
C1132 C 0.60113 0.17955 0.23215 0.0
C1133 C 0.63051 0.20704 0.189 0.0
C1134 C 0.60213 0.16844 0.16617 0.0
C1135 C 0.61617 0.17704 0.11127 0.0
H1136 H 0.60895 0.85667 0.79364 0.0
H1137 H 0.59543 0.79435 0.67776 0.0
H1138 H 0.62409 0.77395 0.74775 0.0
H1139 H 0.65114 0.77263 0.84779 0.0
H1140 H 0.66254 0.83316 0.97336 0.0
H1141 H 0.63847 0.85567 0.89154 0.0
C1142 C 0.61247 0.83871 0.78317 0.0
C1143 C 0.59938 0.827 0.73076 0.0
C1144 C 0.62933 0.82684 0.82451 0.0
C1145 C 0.60446 0.80369 0.71863 0.0
C1146 C 0.62122 0.79204 0.75818 0.0
C1147 C 0.64865 0.79084 0.85667 0.0
C1148 C 0.65865 0.80103 0.91722 0.0
C1149 C 0.6335 0.80326 0.81205 0.0
C1150 C 0.65546 0.8248 0.92698 0.0
C1151 C 0.64127 0.83762 0.88062 0.0
H1152 H 0.65504 0.68857 0.72763 0.0
H1153 H 0.61874 0.63998 0.85963 0.0
H1154 H 0.64555 0.64807 0.95701 0.0
H1155 H 0.67163 0.67644 1.01126 0.0
H1156 H 0.70393 0.72836 0.88191 0.0
H1157 H 0.68754 0.71075 0.7759 0.0
C1158 C 0.65351 0.67917 0.77706 0.0
C1159 C 0.63473 0.66402 0.78721 0.0
C1160 C 0.66836 0.68464 0.83323 0.0
C1161 C 0.63302 0.65172 0.85079 0.0
C1162 C 0.64824 0.65653 0.90656 0.0
C1163 C 0.67611 0.68309 0.95934 0.0
C1164 C 0.68852 0.70396 0.95439 0.0
C1165 C 0.665 0.67398 0.89954 0.0
C1166 C 0.69445 0.71237 0.8872 0.0
C1167 C 0.68454 0.7026 0.82668 0.0
H1168 H 0.61826 0.39066 0.14163 0.0
H1169 H 0.66752 0.37214 0.30202 0.0
H1170 H 0.6904 0.35116 0.21545 0.0
H1171 H 0.68921 0.32894 0.1028 0.0
H1172 H 0.64211 0.35069 0.9397 0.0
H1173 H 0.62609 0.37981 0.01746 0.0
C1174 C 0.63482 0.38346 0.15663 0.0
C1175 C 0.64089 0.38261 0.22845 0.0
C1176 C 0.64797 0.37121 0.10622 0.0
C1177 C 0.66241 0.373 0.2469 0.0
C1178 C 0.67533 0.36053 0.19757 0.0
C1179 C 0.67651 0.34098 0.08289 0.0
C1180 C 0.66653 0.33727 0.01613 0.0
C1181 C 0.66732 0.35809 0.1281 0.0
C1182 C 0.64993 0.35304 0.99134 0.0
C1183 C 0.6405 0.36961 0.0361 0.0
H1184 H 0.03499 0.37175 0.39594 0.0
H1185 H 0.98272 0.36013 0.23853 0.0
H1186 H 0.95983 0.33782 0.32314 0.0
H1187 H 0.95826 0.31539 0.43592 0.0
H1188 H 1.013 0.32493 0.58787 0.0
H1189 H 0.03082 0.35398 0.5132 0.0
C1190 C 1.01795 0.36551 0.38153 0.0
C1191 C 1.01039 0.36822 0.31131 0.0
C1192 C 1.00544 0.35152 0.42966 0.0
C1193 C 0.9887 0.35896 0.29275 0.0
C1194 C 0.97578 0.34571 0.34091 0.0
C1195 C 0.97377 0.32421 0.45325 0.0
C1196 C 0.98431 0.31762 0.51746 0.0
C1197 C 0.9845 0.34084 0.4086 0.0
C1198 C 1.00458 0.32926 0.53847 0.0
C1199 C 1.0148 0.3461 0.49586 0.0
H1200 H 0.98246 0.67204 0.76439 0.0
H1201 H 0.04002 0.64294 0.65149 0.0
H1202 H 0.02641 0.66085 0.5419 0.0
H1203 H 1.00314 0.69141 0.48532 0.0
H1204 H 0.94642 0.72188 0.59932 0.0
H1205 H 0.95474 0.69708 0.7013 0.0
C1206 C 0.99143 0.66873 0.71506 0.0
C1207 C 1.01238 0.65617 0.71659 0.0
C1208 C 0.984 0.68003 0.65282 0.0
C1209 C 0.02377 0.65213 0.65214 0.0
C1210 C 1.01621 0.66287 0.58959 0.0
C1211 C 0.99223 0.69229 0.53192 0.0
C1212 C 0.97428 0.70879 0.53475 0.0
C1213 C 0.99717 0.67794 0.59038 0.0
C1214 C 0.96025 0.70944 0.59538 0.0
C1215 C 0.96507 0.69524 0.65382 0.0
H1216 H 0.53645 0.36226 0.17023 0.0
H1217 H 0.54563 0.307 0.31956 0.0
H1218 H 0.52288 0.28139 0.24478 0.0
H1219 H 0.50452 0.27277 0.13116 0.0
H1220 H 0.49326 0.32728 0.98133 0.0
H1221 H 0.5129 0.35461 0.06055 0.0
C1222 C 0.53321 0.34473 0.18694 0.0
C1223 C 0.54331 0.33658 0.25057 0.0
C1224 C 0.5201 0.32965 0.14271 0.0
C1225 C 0.53855 0.31376 0.27091 0.0
C1226 C 0.5255 0.299 0.2281 0.0
C1227 C 0.50587 0.29076 0.11651 0.0
C1228 C 0.49722 0.29791 0.05039 0.0
C1229 C 0.51688 0.30644 0.16286 0.0
C1230 C 0.49938 0.3213 0.03225 0.0
C1231 C 0.51081 0.33693 0.07751 0.0
H1232 H 0.46967 0.72763 0.92983 0.0
H1233 H 0.52732 0.73409 0.0732 0.0
H1234 H 0.55001 0.70813 1.00078 0.0
H1235 H 0.55552 0.68648 0.89079 0.0
H1236 H 0.49912 0.67919 0.74466 0.0
H1237 H 0.47417 0.7019 0.82328 0.0
C1238 C 0.48709 0.72316 0.94556 0.0
C1239 C 0.49677 0.73347 1.0068 0.0
C1240 C 0.50044 0.70785 0.90287 0.0
C1241 C 0.51944 0.72716 0.02584 0.0
C1242 C 0.53249 0.71203 0.9846 0.0
C1243 C 0.53748 0.68906 0.87746 0.0
C1244 C 0.52912 0.68048 0.81255 0.0
C1245 C 0.52344 0.70266 0.92224 0.0
C1246 C 0.50588 0.6848 0.79522 0.0
C1247 C 0.49169 0.69822 0.83984 0.0
H1248 H 0.14602 0.7169 0.5258 0.0
H1249 H 0.14385 0.78076 0.64113 0.0
H1250 H 0.12571 0.7611 0.74156 0.0
H1251 H 0.1057 0.72744 0.79133 0.0
H1252 H 0.10675 0.66329 0.67785 0.0
H1253 H 0.12886 0.68153 0.58182 0.0
C1254 C 0.14164 0.7265 0.57304 0.0
C1255 C 0.14639 0.75043 0.57544 0.0
C1256 C 0.13002 0.71528 0.63009 0.0
C1257 C 0.14035 0.76249 0.63719 0.0
C1258 C 0.12971 0.75132 0.69449 0.0
C1259 C 0.11086 0.71733 0.74583 0.0
C1260 C 0.10425 0.69394 0.74212 0.0
C1261 C 0.12367 0.72797 0.69072 0.0
C1262 C 0.11153 0.68123 0.68278 0.0
C1263 C 0.12412 0.69175 0.62744 0.0
H1264 H 0.12948 0.32651 0.23378 0.0
H1265 H 0.09744 0.37663 0.36948 0.0
H1266 H 0.119 0.36157 0.47104 0.0
H1267 H 0.14283 0.33049 0.52366 0.0
H1268 H 0.17617 0.28153 0.38708 0.0
H1269 H 0.15875 0.29996 0.28336 0.0
C1270 C 0.12781 0.3346 0.28522 0.0
C1271 C 0.11195 0.3528 0.29394 0.0
C1272 C 0.14048 0.32594 0.34328 0.0
C1273 C 0.10977 0.36292 0.36103 0.0
C1274 C 0.12195 0.35412 0.41929 0.0
C1275 C 0.14707 0.32451 0.47088 0.0
C1276 C 0.1612 0.30493 0.46299 0.0
C1277 C 0.13686 0.33521 0.41144 0.0
C1278 C 0.16595 0.29693 0.39446 0.0
C1279 C 0.15567 0.30728 0.33522 0.0
loop_
_geom_bond_atom_site_label_1
_geom_bond_atom_site_label_2
_geom_bond_distance
_geom_bond_site_symmetry_2
_ccdc_geom_bond_type
Zn0 O1 2.055 . S
Zn0 O8 2.046 . S
Zn0 N16 2.036 . S
Zn0 O28 2.053 . S
Zn0 O30 2.066 . S
O1 Zn0 2.055 . S
O1 C4 1.259 . S
C2 O30 1.256 . S
C2 O31 1.244 . S
Zn3 O5 2.046 . S
Zn3 O7 2.055 . S
Zn3 N9 2.036 . S
Zn3 O27 2.066 . S
Zn3 O31 2.053 . S
C4 O1 1.259 . S
C4 O5 1.254 . S
O5 Zn3 2.046 . S
O5 C4 1.254 . S
C6 O27 1.256 . S
C6 O28 1.244 . S
O7 Zn3 2.055 . S
O7 C29 1.259 . S
O8 Zn0 2.046 . S
O8 C29 1.254 . S
N9 Zn3 2.036 . S
N9 C10 1.298 . S
N9 N12 1.398 . S
C10 N9 1.298 . S
C10 N13 1.367 . S
C10 C23 1.481 . S
C11 N12 1.299 . S
C11 N13 1.379 . S
N12 N9 1.398 . S
N12 C11 1.299 . S
N13 C10 1.367 . S
N13 C11 1.379 . S
C14 N16 1.298 . S
C14 N18 1.367 . S
C14 C22 1.481 . S
C15 N17 1.299 . S
C15 N18 1.379 . S
N16 Zn0 2.036 . S
N16 C14 1.298 . S
N16 N17 1.398 . S
N17 C15 1.299 . S
N17 N16 1.398 . S
N18 C14 1.367 . S
N18 C15 1.379 . S
H19 C22 0.980 . S
H20 C22 0.981 . S
H21 C22 0.981 1_556 S
C22 C14 1.481 . S
C22 H19 0.980 . S
C22 H20 0.981 . S
C22 H21 0.981 1_554 S
C23 C10 1.481 . S
C23 H24 0.980 . S
C23 H25 0.981 . S
C23 H26 0.981 . S
H24 C23 0.980 . S
H25 C23 0.981 . S
H26 C23 0.981 . S
O27 Zn3 2.066 . S
O27 C6 1.256 . S
O28 Zn0 2.053 . S
O28 C6 1.244 . S
C29 O7 1.259 . S
C29 O8 1.254 . S
O30 Zn0 2.066 . S
O30 C2 1.256 . S
O31 C2 1.244 . S
O31 Zn3 2.053 . S
Zn32 O33 2.055 . S
Zn32 O40 2.046 . S
Zn32 N48 2.036 . S
Zn32 O60 2.053 . S
Zn32 O62 2.066 . S
O33 Zn32 2.055 . S
O33 C36 1.259 . S
C34 O62 1.256 . S
C34 O63 1.244 . S
Zn35 O37 2.046 . S
Zn35 O39 2.055 . S
Zn35 N41 2.036 . S
Zn35 O59 2.066 . S
Zn35 O63 2.053 . S
C36 O33 1.259 . S
C36 O37 1.254 . S
O37 Zn35 2.046 . S
O37 C36 1.254 . S
C38 O59 1.256 . S
C38 O60 1.244 . S
O39 Zn35 2.055 . S
O39 C61 1.259 . S
O40 Zn32 2.046 . S
O40 C61 1.254 . S
N41 Zn35 2.036 . S
N41 C42 1.298 . S
N41 N44 1.398 . S
C42 N41 1.298 . S
C42 N45 1.367 . S
C42 C55 1.481 . S
C43 N44 1.299 . S
C43 N45 1.379 . S
N44 N41 1.398 . S
N44 C43 1.299 . S
N45 C42 1.367 . S
N45 C43 1.379 . S
C46 N48 1.298 . S
C46 N50 1.367 . S
C46 C54 1.481 . S
C47 N49 1.299 . S
C47 N50 1.379 . S
N48 Zn32 2.036 . S
N48 C46 1.298 . S
N48 N49 1.398 . S
N49 C47 1.299 . S
N49 N48 1.398 . S
N50 C46 1.367 . S
N50 C47 1.379 . S
H51 C54 0.980 . S
H52 C54 0.981 . S
H53 C54 0.981 . S
C54 C46 1.481 . S
C54 H51 0.980 . S
C54 H52 0.981 . S
C54 H53 0.981 . S
C55 C42 1.481 . S
C55 H56 0.980 . S
C55 H57 0.981 . S
C55 H58 0.981 . S
H56 C55 0.980 . S
H57 C55 0.981 . S
H58 C55 0.981 . S
O59 Zn35 2.066 . S
O59 C38 1.256 . S
O60 Zn32 2.053 . S
O60 C38 1.244 . S
C61 O39 1.259 . S
C61 O40 1.254 . S
O62 Zn32 2.066 . S
O62 C34 1.256 . S
O63 C34 1.244 . S
O63 Zn35 2.053 . S
Zn64 O65 2.055 . S
Zn64 O72 2.046 . S
Zn64 N80 2.036 . S
Zn64 O92 2.053 . S
Zn64 O94 2.066 . S
O65 Zn64 2.055 . S
O65 C68 1.259 . S
C66 O94 1.256 . S
C66 O95 1.244 . S
Zn67 O69 2.046 . S
Zn67 O71 2.055 . S
Zn67 N73 2.036 . S
Zn67 O91 2.066 . S
Zn67 O95 2.053 . S
C68 O65 1.259 . S
C68 O69 1.254 . S
O69 Zn67 2.046 . S
O69 C68 1.254 . S
C70 O91 1.256 . S
C70 O92 1.244 . S
O71 Zn67 2.055 . S
O71 C93 1.259 . S
O72 Zn64 2.046 . S
O72 C93 1.254 . S
N73 Zn67 2.036 . S
N73 C74 1.298 . S
N73 N76 1.398 . S
C74 N73 1.298 . S
C74 N77 1.367 . S
C74 C87 1.481 . S
C75 N76 1.299 . S
C75 N77 1.379 . S
N76 N73 1.398 . S
N76 C75 1.299 . S
N77 C74 1.367 . S
N77 C75 1.379 . S
C78 N80 1.298 . S
C78 N82 1.367 . S
C78 C86 1.481 . S
C79 N81 1.299 . S
C79 N82 1.379 . S
N80 Zn64 2.036 . S
N80 C78 1.298 . S
N80 N81 1.398 . S
N81 C79 1.299 . S
N81 N80 1.398 . S
N82 C78 1.367 . S
N82 C79 1.379 . S
H83 C86 0.980 . S
H84 C86 0.981 . S
H85 C86 0.981 . S
C86 C78 1.481 . S
C86 H83 0.980 . S
C86 H84 0.981 . S
C86 H85 0.981 . S
C87 C74 1.481 . S
C87 H88 0.980 . S
C87 H89 0.981 . S
C87 H90 0.981 . S
H88 C87 0.980 . S
H89 C87 0.981 . S
H90 C87 0.981 . S
O91 Zn67 2.066 . S
O91 C70 1.256 . S
O92 Zn64 2.053 . S
O92 C70 1.244 . S
C93 O71 1.259 . S
C93 O72 1.254 . S
O94 Zn64 2.066 . S
O94 C66 1.256 . S
O95 C66 1.244 . S
O95 Zn67 2.053 . S
Zn96 O97 2.055 . S
Zn96 O104 2.046 . S
Zn96 N112 2.036 . S
Zn96 O124 2.053 . S
Zn96 O126 2.066 . S
O97 Zn96 2.055 . S
O97 C100 1.259 . S
C98 O126 1.256 . S
C98 O127 1.244 . S
Zn99 O101 2.046 . S
Zn99 O103 2.055 . S
Zn99 N105 2.036 . S
Zn99 O123 2.066 . S
Zn99 O127 2.053 . S
C100 O97 1.259 . S
C100 O101 1.254 . S
O101 Zn99 2.046 . S
O101 C100 1.254 . S
C102 O123 1.256 . S
C102 O124 1.244 . S
O103 Zn99 2.055 . S
O103 C125 1.259 . S
O104 Zn96 2.046 . S
O104 C125 1.254 . S
N105 Zn99 2.036 . S
N105 C106 1.298 . S
N105 N108 1.398 . S
C106 N105 1.298 . S
C106 N109 1.367 . S
C106 C119 1.481 1_556 S
C107 N108 1.299 . S
C107 N109 1.379 . S
N108 N105 1.398 . S
N108 C107 1.299 . S
N109 C106 1.367 . S
N109 C107 1.379 . S
C110 N112 1.298 . S
C110 N114 1.367 . S
C110 C118 1.481 . S
C111 N113 1.299 . S
C111 N114 1.379 . S
N112 Zn96 2.036 . S
N112 C110 1.298 . S
N112 N113 1.398 . S
N113 C111 1.299 . S
N113 N112 1.398 . S
N114 C110 1.367 . S
N114 C111 1.379 . S
H115 C118 0.980 . S
H116 C118 0.981 . S
H117 C118 0.981 . S
C118 C110 1.481 . S
C118 H115 0.980 . S
C118 H116 0.981 . S
C118 H117 0.981 . S
C119 C106 1.481 1_554 S
C119 H120 0.980 . S
C119 H121 0.981 . S
C119 H122 0.981 . S
H120 C119 0.980 . S
H121 C119 0.981 . S
H122 C119 0.981 . S
O123 Zn99 2.066 . S
O123 C102 1.256 . S
O124 Zn96 2.053 . S
O124 C102 1.244 . S
C125 O103 1.259 . S
C125 O104 1.254 . S
O126 Zn96 2.066 . S
O126 C98 1.256 . S
O127 C98 1.244 . S
O127 Zn99 2.053 . S
Zn128 O129 2.055 . S
Zn128 O136 2.046 . S
Zn128 N144 2.036 . S
Zn128 O156 2.053 . S
Zn128 O158 2.066 . S
O129 Zn128 2.055 . S
O129 C132 1.259 . S
C130 O158 1.256 . S
C130 O159 1.244 . S
Zn131 O133 2.046 . S
Zn131 O135 2.055 . S
Zn131 N137 2.036 . S
Zn131 O155 2.066 . S
Zn131 O159 2.053 . S
C132 O129 1.259 . S
C132 O133 1.254 . S
O133 Zn131 2.046 . S
O133 C132 1.254 . S
C134 O155 1.256 . S
C134 O156 1.244 . S
O135 Zn131 2.055 . S
O135 C157 1.259 . S
O136 Zn128 2.046 . S
O136 C157 1.254 . S
N137 Zn131 2.036 . S
N137 C138 1.298 . S
N137 N140 1.398 . S
C138 N137 1.298 . S
C138 N141 1.367 . S
C138 C151 1.481 . S
C139 N140 1.299 . S
C139 N141 1.379 . S
N140 N137 1.398 . S
N140 C139 1.299 . S
N141 C138 1.367 . S
N141 C139 1.379 . S
C142 N144 1.298 . S
C142 N146 1.367 . S
C142 C150 1.481 . S
C143 N145 1.299 . S
C143 N146 1.379 . S
N144 Zn128 2.036 . S
N144 C142 1.298 . S
N144 N145 1.398 . S
N145 C143 1.299 . S
N145 N144 1.398 . S
N146 C142 1.367 . S
N146 C143 1.379 . S
H147 C150 0.980 . S
H148 C150 0.981 . S
H149 C150 0.981 . S
C150 C142 1.481 . S
C150 H147 0.980 . S
C150 H148 0.981 . S
C150 H149 0.981 . S
C151 C138 1.481 . S
C151 H152 0.980 . S
C151 H153 0.981 . S
C151 H154 0.981 1_556 S
H152 C151 0.980 . S
H153 C151 0.981 . S
H154 C151 0.981 1_554 S
O155 Zn131 2.066 . S
O155 C134 1.256 . S
O156 Zn128 2.053 . S
O156 C134 1.244 . S
C157 O135 1.259 . S
C157 O136 1.254 . S
O158 Zn128 2.066 . S
O158 C130 1.256 . S
O159 C130 1.244 . S
O159 Zn131 2.053 . S
Zn160 O161 2.055 . S
Zn160 O168 2.046 . S
Zn160 N176 2.036 . S
Zn160 O188 2.053 . S
Zn160 O190 2.066 . S
O161 Zn160 2.055 . S
O161 C164 1.259 . S
C162 O190 1.256 . S
C162 O191 1.244 . S
Zn163 O165 2.046 . S
Zn163 O167 2.055 . S
Zn163 N169 2.036 . S
Zn163 O187 2.066 . S
Zn163 O191 2.053 . S
C164 O161 1.259 . S
C164 O165 1.254 . S
O165 Zn163 2.046 . S
O165 C164 1.254 . S
C166 O187 1.256 . S
C166 O188 1.244 . S
O167 Zn163 2.055 . S
O167 C189 1.259 . S
O168 Zn160 2.046 . S
O168 C189 1.254 . S
N169 Zn163 2.036 . S
N169 C170 1.298 . S
N169 N172 1.398 . S
C170 N169 1.298 . S
C170 N173 1.367 . S
C170 C183 1.481 . S
C171 N172 1.299 . S
C171 N173 1.379 . S
N172 N169 1.398 . S
N172 C171 1.299 . S
N173 C170 1.367 . S
N173 C171 1.379 . S
C174 N176 1.298 . S
C174 N178 1.367 . S
C174 C182 1.481 1_554 S
C175 N177 1.299 . S
C175 N178 1.379 . S
N176 Zn160 2.036 . S
N176 C174 1.298 . S
N176 N177 1.398 . S
N177 C175 1.299 . S
N177 N176 1.398 . S
N178 C174 1.367 . S
N178 C175 1.379 . S
H179 C182 0.980 . S
H180 C182 0.981 . S
H181 C182 0.981 . S
C182 C174 1.481 1_556 S
C182 H179 0.980 . S
C182 H180 0.981 . S
C182 H181 0.981 . S
C183 C170 1.481 . S
C183 H184 0.980 . S
C183 H185 0.981 . S
C183 H186 0.981 . S
H184 C183 0.980 . S
H185 C183 0.981 . S
H186 C183 0.981 . S
O187 Zn163 2.066 . S
O187 C166 1.256 . S
O188 Zn160 2.053 . S
O188 C166 1.244 . S
C189 O167 1.259 . S
C189 O168 1.254 . S
O190 Zn160 2.066 . S
O190 C162 1.256 . S
O191 C162 1.244 . S
O191 Zn163 2.053 . S
Zn192 O193 2.055 . S
Zn192 O200 2.046 . S
Zn192 N208 2.036 . S
Zn192 O220 2.053 . S
Zn192 O222 2.066 . S
O193 Zn192 2.055 . S
O193 C196 1.259 . S
C194 O222 1.256 . S
C194 O223 1.244 . S
Zn195 O197 2.046 . S
Zn195 O199 2.055 . S
Zn195 N201 2.036 . S
Zn195 O219 2.066 . S
Zn195 O223 2.053 . S
C196 O193 1.259 . S
C196 O197 1.254 . S
O197 Zn195 2.046 . S
O197 C196 1.254 . S
C198 O219 1.256 . S
C198 O220 1.244 . S
O199 Zn195 2.055 . S
O199 C221 1.259 . S
O200 Zn192 2.046 . S
O200 C221 1.254 . S
N201 Zn195 2.036 . S
N201 C202 1.298 . S
N201 N204 1.398 . S
C202 N201 1.298 . S
C202 N205 1.367 . S
C202 C215 1.481 . S
C203 N204 1.299 . S
C203 N205 1.379 . S
N204 N201 1.398 . S
N204 C203 1.299 . S
N205 C202 1.367 . S
N205 C203 1.379 . S
C206 N208 1.298 . S
C206 N210 1.367 . S
C206 C214 1.481 . S
C207 N209 1.299 . S
C207 N210 1.379 . S
N208 Zn192 2.036 . S
N208 C206 1.298 . S
N208 N209 1.398 . S
N209 C207 1.299 . S
N209 N208 1.398 . S
N210 C206 1.367 . S
N210 C207 1.379 . S
H211 C214 0.980 . S
H212 C214 0.981 . S
H213 C214 0.981 . S
C214 C206 1.481 . S
C214 H211 0.980 . S
C214 H212 0.981 . S
C214 H213 0.981 . S
C215 C202 1.481 . S
C215 H216 0.980 . S
C215 H217 0.981 . S
C215 H218 0.981 . S
H216 C215 0.980 . S
H217 C215 0.981 . S
H218 C215 0.981 . S
O219 Zn195 2.066 . S
O219 C198 1.256 . S
O220 Zn192 2.053 . S
O220 C198 1.244 . S
C221 O199 1.259 . S
C221 O200 1.254 . S
O222 Zn192 2.066 . S
O222 C194 1.256 . S
O223 C194 1.244 . S
O223 Zn195 2.053 . S
Zn224 O225 2.055 . S
Zn224 O232 2.046 . S
Zn224 N240 2.036 . S
Zn224 O252 2.053 . S
Zn224 O254 2.066 . S
O225 Zn224 2.055 . S
O225 C228 1.259 . S
C226 O254 1.256 . S
C226 O255 1.244 . S
Zn227 O229 2.046 . S
Zn227 O231 2.055 . S
Zn227 N233 2.036 . S
Zn227 O251 2.066 . S
Zn227 O255 2.053 . S
C228 O225 1.259 . S
C228 O229 1.254 . S
O229 Zn227 2.046 . S
O229 C228 1.254 . S
C230 O251 1.256 . S
C230 O252 1.244 . S
O231 Zn227 2.055 . S
O231 C253 1.259 . S
O232 Zn224 2.046 . S
O232 C253 1.254 . S
N233 Zn227 2.036 . S
N233 C234 1.298 . S
N233 N236 1.398 . S
C234 N233 1.298 . S
C234 N237 1.367 . S
C234 C247 1.481 . S
C235 N236 1.299 . S
C235 N237 1.379 . S
N236 N233 1.398 . S
N236 C235 1.299 . S
N237 C234 1.367 . S
N237 C235 1.379 . S
C238 N240 1.298 . S
C238 N242 1.367 . S
C238 C246 1.481 . S
C239 N241 1.299 . S
C239 N242 1.379 . S
N240 Zn224 2.036 . S
N240 C238 1.298 . S
N240 N241 1.398 . S
N241 C239 1.299 . S
N241 N240 1.398 . S
N242 C238 1.367 . S
N242 C239 1.379 . S
H243 C246 0.980 . S
H244 C246 0.981 . S
H245 C246 0.981 . S
C246 C238 1.481 . S
C246 H243 0.980 . S
C246 H244 0.981 . S
C246 H245 0.981 . S
C247 C234 1.481 . S
C247 H248 0.980 . S
C247 H249 0.981 . S
C247 H250 0.981 . S
H248 C247 0.980 . S
H249 C247 0.981 . S
H250 C247 0.981 . S
O251 Zn227 2.066 . S
O251 C230 1.256 . S
O252 Zn224 2.053 . S
O252 C230 1.244 . S
C253 O231 1.259 . S
C253 O232 1.254 . S
O254 Zn224 2.066 . S
O254 C226 1.256 . S
O255 C226 1.244 . S
O255 Zn227 2.053 . S
Zn256 O257 2.055 . S
Zn256 O264 2.046 . S
Zn256 N272 2.036 1_655 S
Zn256 O284 2.053 . S
Zn256 O286 2.066 . S
O257 Zn256 2.055 . S
O257 C260 1.259 . S
C258 O286 1.256 . S
C258 O287 1.244 . S
Zn259 O261 2.046 . S
Zn259 O263 2.055 . S
Zn259 N265 2.036 . S
Zn259 O283 2.066 . S
Zn259 O287 2.053 . S
C260 O257 1.259 . S
C260 O261 1.254 . S
O261 Zn259 2.046 . S
O261 C260 1.254 . S
C262 O283 1.256 . S
C262 O284 1.244 . S
O263 Zn259 2.055 . S
O263 C285 1.259 . S
O264 Zn256 2.046 . S
O264 C285 1.254 . S
N265 Zn259 2.036 . S
N265 C266 1.298 . S
N265 N268 1.398 . S
C266 N265 1.298 . S
C266 N269 1.367 . S
C266 C279 1.481 . S
C267 N268 1.299 . S
C267 N269 1.379 . S
N268 N265 1.398 . S
N268 C267 1.299 . S
N269 C266 1.367 . S
N269 C267 1.379 . S
C270 N272 1.298 . S
C270 N274 1.367 . S
C270 C278 1.481 . S
C271 N273 1.299 . S
C271 N274 1.379 . S
N272 Zn256 2.036 1_455 S
N272 C270 1.298 . S
N272 N273 1.398 . S
N273 C271 1.299 . S
N273 N272 1.398 . S
N274 C270 1.367 . S
N274 C271 1.379 . S
H275 C278 0.980 1_655 S
H276 C278 0.981 . S
H277 C278 0.981 . S
C278 C270 1.481 . S
C278 H275 0.980 1_455 S
C278 H276 0.981 . S
C278 H277 0.981 . S
C279 C266 1.481 . S
C279 H280 0.980 . S
C279 H281 0.981 . S
C279 H282 0.981 . S
H280 C279 0.980 . S
H281 C279 0.981 . S
H282 C279 0.981 . S
O283 Zn259 2.066 . S
O283 C262 1.256 . S
O284 Zn256 2.053 . S
O284 C262 1.244 . S
C285 O263 1.259 . S
C285 O264 1.254 . S
O286 Zn256 2.066 . S
O286 C258 1.256 . S
O287 C258 1.244 . S
O287 Zn259 2.053 . S
Zn288 O289 2.055 . S
Zn288 O296 2.046 . S
Zn288 N304 2.036 . S
Zn288 O316 2.053 . S
Zn288 O318 2.066 . S
O289 Zn288 2.055 . S
O289 C292 1.259 . S
C290 O318 1.256 . S
C290 O319 1.244 . S
Zn291 O293 2.046 . S
Zn291 O295 2.055 . S
Zn291 N297 2.036 . S
Zn291 O315 2.066 . S
Zn291 O319 2.053 . S
C292 O289 1.259 . S
C292 O293 1.254 . S
O293 Zn291 2.046 . S
O293 C292 1.254 . S
C294 O315 1.256 . S
C294 O316 1.244 . S
O295 Zn291 2.055 . S
O295 C317 1.259 . S
O296 Zn288 2.046 . S
O296 C317 1.254 . S
N297 Zn291 2.036 . S
N297 C298 1.298 . S
N297 N300 1.398 . S
C298 N297 1.298 . S
C298 N301 1.367 . S
C298 C311 1.481 . S
C299 N300 1.299 . S
C299 N301 1.379 . S
N300 N297 1.398 . S
N300 C299 1.299 . S
N301 C298 1.367 . S
N301 C299 1.379 . S
C302 N304 1.298 . S
C302 N306 1.367 . S
C302 C310 1.481 1_554 S
C303 N305 1.299 . S
C303 N306 1.379 . S
N304 Zn288 2.036 . S
N304 C302 1.298 . S
N304 N305 1.398 . S
N305 C303 1.299 . S
N305 N304 1.398 . S
N306 C302 1.367 . S
N306 C303 1.379 . S
H307 C310 0.980 . S
H308 C310 0.981 . S
H309 C310 0.981 . S
C310 C302 1.481 1_556 S
C310 H307 0.980 . S
C310 H308 0.981 . S
C310 H309 0.981 . S
C311 C298 1.481 . S
C311 H312 0.980 . S
C311 H313 0.981 . S
C311 H314 0.981 . S
H312 C311 0.980 . S
H313 C311 0.981 . S
H314 C311 0.981 . S
O315 Zn291 2.066 . S
O315 C294 1.256 . S
O316 Zn288 2.053 . S
O316 C294 1.244 . S
C317 O295 1.259 . S
C317 O296 1.254 . S
O318 Zn288 2.066 . S
O318 C290 1.256 . S
O319 C290 1.244 . S
O319 Zn291 2.053 . S
Zn320 O321 2.055 . S
Zn320 O328 2.046 . S
Zn320 N336 2.036 . S
Zn320 O348 2.053 . S
Zn320 O350 2.066 . S
O321 Zn320 2.055 . S
O321 C324 1.259 . S
C322 O350 1.256 . S
C322 O351 1.244 . S
Zn323 O325 2.046 . S
Zn323 O327 2.055 . S
Zn323 N329 2.036 . S
Zn323 O347 2.066 . S
Zn323 O351 2.053 . S
C324 O321 1.259 . S
C324 O325 1.254 . S
O325 Zn323 2.046 . S
O325 C324 1.254 . S
C326 O347 1.256 . S
C326 O348 1.244 . S
O327 Zn323 2.055 . S
O327 C349 1.259 . S
O328 Zn320 2.046 . S
O328 C349 1.254 . S
N329 Zn323 2.036 . S
N329 C330 1.298 . S
N329 N332 1.398 . S
C330 N329 1.298 . S
C330 N333 1.367 . S
C330 C343 1.481 1_556 S
C331 N332 1.299 . S
C331 N333 1.379 . S
N332 N329 1.398 . S
N332 C331 1.299 . S
N333 C330 1.367 . S
N333 C331 1.379 . S
C334 N336 1.298 . S
C334 N338 1.367 . S
C334 C342 1.481 . S
C335 N337 1.299 . S
C335 N338 1.379 . S
N336 Zn320 2.036 . S
N336 C334 1.298 . S
N336 N337 1.398 . S
N337 C335 1.299 . S
N337 N336 1.398 . S
N338 C334 1.367 . S
N338 C335 1.379 . S
H339 C342 0.980 . S
H340 C342 0.981 . S
H341 C342 0.981 . S
C342 C334 1.481 . S
C342 H339 0.980 . S
C342 H340 0.981 . S
C342 H341 0.981 . S
C343 C330 1.481 1_554 S
C343 H344 0.980 . S
C343 H345 0.981 . S
C343 H346 0.981 . S
H344 C343 0.980 . S
H345 C343 0.981 . S
H346 C343 0.981 . S
O347 Zn323 2.066 . S
O347 C326 1.256 . S
O348 Zn320 2.053 . S
O348 C326 1.244 . S
C349 O327 1.259 . S
C349 O328 1.254 . S
O350 Zn320 2.066 . S
O350 C322 1.256 . S
O351 C322 1.244 . S
O351 Zn323 2.053 . S
Zn352 O353 2.055 . S
Zn352 O360 2.046 . S
Zn352 N368 2.036 . S
Zn352 O380 2.053 . S
Zn352 O382 2.066 . S
O353 Zn352 2.055 . S
O353 C356 1.259 . S
C354 O382 1.256 . S
C354 O383 1.244 . S
Zn355 O357 2.046 . S
Zn355 O359 2.055 . S
Zn355 N361 2.036 1_655 S
Zn355 O379 2.066 . S
Zn355 O383 2.053 . S
C356 O353 1.259 . S
C356 O357 1.254 . S
O357 Zn355 2.046 . S
O357 C356 1.254 . S
C358 O379 1.256 . S
C358 O380 1.244 . S
O359 Zn355 2.055 . S
O359 C381 1.259 . S
O360 Zn352 2.046 . S
O360 C381 1.254 . S
N361 Zn355 2.036 1_455 S
N361 C362 1.298 . S
N361 N364 1.398 . S
C362 N361 1.298 . S
C362 N365 1.367 . S
C362 C375 1.481 . S
C363 N364 1.299 . S
C363 N365 1.379 . S
N364 N361 1.398 . S
N364 C363 1.299 . S
N365 C362 1.367 . S
N365 C363 1.379 . S
C366 N368 1.298 . S
C366 N370 1.367 . S
C366 C374 1.481 . S
C367 N369 1.299 . S
C367 N370 1.379 . S
N368 Zn352 2.036 . S
N368 C366 1.298 . S
N368 N369 1.398 . S
N369 C367 1.299 . S
N369 N368 1.398 . S
N370 C366 1.367 . S
N370 C367 1.379 . S
H371 C374 0.980 . S
H372 C374 0.981 . S
H373 C374 0.981 . S
C374 C366 1.481 . S
C374 H371 0.980 . S
C374 H372 0.981 . S
C374 H373 0.981 . S
C375 C362 1.481 . S
C375 H376 0.980 1_455 S
C375 H377 0.981 . S
C375 H378 0.981 . S
H376 C375 0.980 1_655 S
H377 C375 0.981 . S
H378 C375 0.981 . S
O379 Zn355 2.066 . S
O379 C358 1.256 . S
O380 Zn352 2.053 . S
O380 C358 1.244 . S
C381 O359 1.259 . S
C381 O360 1.254 . S
O382 Zn352 2.066 . S
O382 C354 1.256 . S
O383 C354 1.244 . S
O383 Zn355 2.053 . S
Zn384 O385 2.055 . S
Zn384 O392 2.046 . S
Zn384 N400 2.036 . S
Zn384 O412 2.053 . S
Zn384 O414 2.066 . S
O385 Zn384 2.055 . S
O385 C388 1.259 . S
C386 O414 1.256 . S
C386 O415 1.244 . S
Zn387 O389 2.046 . S
Zn387 O391 2.055 . S
Zn387 N393 2.036 . S
Zn387 O411 2.066 . S
Zn387 O415 2.053 . S
C388 O385 1.259 . S
C388 O389 1.254 . S
O389 Zn387 2.046 . S
O389 C388 1.254 . S
C390 O411 1.256 . S
C390 O412 1.244 . S
O391 Zn387 2.055 . S
O391 C413 1.259 . S
O392 Zn384 2.046 . S
O392 C413 1.254 . S
N393 Zn387 2.036 . S
N393 C394 1.298 . S
N393 N396 1.398 . S
C394 N393 1.298 . S
C394 N397 1.367 . S
C394 C407 1.481 . S
C395 N396 1.299 . S
C395 N397 1.379 . S
N396 N393 1.398 . S
N396 C395 1.299 . S
N397 C394 1.367 . S
N397 C395 1.379 . S
C398 N400 1.298 . S
C398 N402 1.367 . S
C398 C406 1.481 . S
C399 N401 1.299 . S
C399 N402 1.379 . S
N400 Zn384 2.036 . S
N400 C398 1.298 . S
N400 N401 1.398 . S
N401 C399 1.299 . S
N401 N400 1.398 . S
N402 C398 1.367 . S
N402 C399 1.379 . S
H403 C406 0.980 . S
H404 C406 0.981 . S
H405 C406 0.981 . S
C406 C398 1.481 . S
C406 H403 0.980 . S
C406 H404 0.981 . S
C406 H405 0.981 . S
C407 C394 1.481 . S
C407 H408 0.980 . S
C407 H409 0.981 . S
C407 H410 0.981 . S
H408 C407 0.980 . S
H409 C407 0.981 . S
H410 C407 0.981 . S
O411 Zn387 2.066 . S
O411 C390 1.256 . S
O412 Zn384 2.053 . S
O412 C390 1.244 . S
C413 O391 1.259 . S
C413 O392 1.254 . S
O414 Zn384 2.066 . S
O414 C386 1.256 . S
O415 C386 1.244 . S
O415 Zn387 2.053 . S
Zn416 O417 2.055 . S
Zn416 O424 2.046 . S
Zn416 N432 2.036 . S
Zn416 O444 2.053 . S
Zn416 O446 2.066 . S
O417 Zn416 2.055 . S
O417 C420 1.259 . S
C418 O446 1.256 . S
C418 O447 1.244 . S
Zn419 O421 2.046 . S
Zn419 O423 2.055 . S
Zn419 N425 2.036 . S
Zn419 O443 2.066 . S
Zn419 O447 2.053 . S
C420 O417 1.259 . S
C420 O421 1.254 . S
O421 Zn419 2.046 . S
O421 C420 1.254 . S
C422 O443 1.256 . S
C422 O444 1.244 . S
O423 Zn419 2.055 . S
O423 C445 1.259 . S
O424 Zn416 2.046 . S
O424 C445 1.254 . S
N425 Zn419 2.036 . S
N425 C426 1.298 . S
N425 N428 1.398 . S
C426 N425 1.298 . S
C426 N429 1.367 . S
C426 C439 1.481 . S
C427 N428 1.299 . S
C427 N429 1.379 . S
N428 N425 1.398 . S
N428 C427 1.299 . S
N429 C426 1.367 . S
N429 C427 1.379 . S
C430 N432 1.298 . S
C430 N434 1.367 . S
C430 C438 1.481 . S
C431 N433 1.299 . S
C431 N434 1.379 . S
N432 Zn416 2.036 . S
N432 C430 1.298 . S
N432 N433 1.398 . S
N433 C431 1.299 . S
N433 N432 1.398 . S
N434 C430 1.367 . S
N434 C431 1.379 . S
H435 C438 0.980 . S
H436 C438 0.981 . S
H437 C438 0.981 . S
C438 C430 1.481 . S
C438 H435 0.980 . S
C438 H436 0.981 . S
C438 H437 0.981 . S
C439 C426 1.481 . S
C439 H440 0.980 . S
C439 H441 0.981 . S
C439 H442 0.981 1_554 S
H440 C439 0.980 . S
H441 C439 0.981 . S
H442 C439 0.981 1_556 S
O443 Zn419 2.066 . S
O443 C422 1.256 . S
O444 Zn416 2.053 . S
O444 C422 1.244 . S
C445 O423 1.259 . S
C445 O424 1.254 . S
O446 Zn416 2.066 . S
O446 C418 1.256 . S
O447 C418 1.244 . S
O447 Zn419 2.053 . S
Zn448 O449 2.055 . S
Zn448 O456 2.046 . S
Zn448 N464 2.036 . S
Zn448 O476 2.053 . S
Zn448 O478 2.066 . S
O449 Zn448 2.055 . S
O449 C452 1.259 . S
C450 O478 1.256 . S
C450 O479 1.244 . S
Zn451 O453 2.046 . S
Zn451 O455 2.055 . S
Zn451 N457 2.036 . S
Zn451 O475 2.066 . S
Zn451 O479 2.053 . S
C452 O449 1.259 . S
C452 O453 1.254 . S
O453 Zn451 2.046 . S
O453 C452 1.254 . S
C454 O475 1.256 . S
C454 O476 1.244 . S
O455 Zn451 2.055 . S
O455 C477 1.259 . S
O456 Zn448 2.046 . S
O456 C477 1.254 . S
N457 Zn451 2.036 . S
N457 C458 1.298 . S
N457 N460 1.398 . S
C458 N457 1.298 . S
C458 N461 1.367 . S
C458 C471 1.481 . S
C459 N460 1.299 . S
C459 N461 1.379 . S
N460 N457 1.398 . S
N460 C459 1.299 . S
N461 C458 1.367 . S
N461 C459 1.379 . S
C462 N464 1.298 . S
C462 N466 1.367 . S
C462 C470 1.481 . S
C463 N465 1.299 . S
C463 N466 1.379 . S
N464 Zn448 2.036 . S
N464 C462 1.298 . S
N464 N465 1.398 . S
N465 C463 1.299 . S
N465 N464 1.398 . S
N466 C462 1.367 . S
N466 C463 1.379 . S
H467 C470 0.980 . S
H468 C470 0.981 . S
H469 C470 0.981 . S
C470 C462 1.481 . S
C470 H467 0.980 . S
C470 H468 0.981 . S
C470 H469 0.981 . S
C471 C458 1.481 . S
C471 H472 0.980 . S
C471 H473 0.981 . S
C471 H474 0.981 . S
H472 C471 0.980 . S
H473 C471 0.981 . S
H474 C471 0.981 . S
O475 Zn451 2.066 . S
O475 C454 1.256 . S
O476 Zn448 2.053 . S
O476 C454 1.244 . S
C477 O455 1.259 . S
C477 O456 1.254 . S
O478 Zn448 2.066 . S
O478 C450 1.256 . S
O479 C450 1.244 . S
O479 Zn451 2.053 . S
Zn480 O481 2.055 . S
Zn480 O488 2.046 . S
Zn480 N496 2.036 . S
Zn480 O508 2.053 . S
Zn480 O510 2.066 . S
O481 Zn480 2.055 . S
O481 C484 1.259 . S
C482 O510 1.256 . S
C482 O511 1.244 . S
Zn483 O485 2.046 . S
Zn483 O487 2.055 . S
Zn483 N489 2.036 . S
Zn483 O507 2.066 . S
Zn483 O511 2.053 . S
C484 O481 1.259 . S
C484 O485 1.254 . S
O485 Zn483 2.046 . S
O485 C484 1.254 . S
C486 O507 1.256 . S
C486 O508 1.244 . S
O487 Zn483 2.055 . S
O487 C509 1.259 . S
O488 Zn480 2.046 . S
O488 C509 1.254 . S
N489 Zn483 2.036 . S
N489 C490 1.298 . S
N489 N492 1.398 . S
C490 N489 1.298 . S
C490 N493 1.367 . S
C490 C503 1.481 . S
C491 N492 1.299 . S
C491 N493 1.379 . S
N492 N489 1.398 . S
N492 C491 1.299 . S
N493 C490 1.367 . S
N493 C491 1.379 . S
C494 N496 1.298 . S
C494 N498 1.367 . S
C494 C502 1.481 . S
C495 N497 1.299 . S
C495 N498 1.379 . S
N496 Zn480 2.036 . S
N496 C494 1.298 . S
N496 N497 1.398 . S
N497 C495 1.299 . S
N497 N496 1.398 . S
N498 C494 1.367 . S
N498 C495 1.379 . S
H499 C502 0.980 . S
H500 C502 0.981 . S
H501 C502 0.981 1_554 S
C502 C494 1.481 . S
C502 H499 0.980 . S
C502 H500 0.981 . S
C502 H501 0.981 1_556 S
C503 C490 1.481 . S
C503 H504 0.980 . S
C503 H505 0.981 . S
C503 H506 0.981 . S
H504 C503 0.980 . S
H505 C503 0.981 . S
H506 C503 0.981 . S
O507 Zn483 2.066 . S
O507 C486 1.256 . S
O508 Zn480 2.053 . S
O508 C486 1.244 . S
C509 O487 1.259 . S
C509 O488 1.254 . S
O510 Zn480 2.066 . S
O510 C482 1.256 . S
O511 C482 1.244 . S
O511 Zn483 2.053 . S
H512 C518 0.930 . S
H513 C521 0.930 1_554 S
H514 C522 0.930 . S
H515 C523 0.930 . S
H516 C526 0.930 . S
H517 C527 0.930 . S
C518 H512 0.930 . S
C518 C519 1.355 . S
C518 C520 1.415 . S
C519 C518 1.355 . S
C519 C521 1.419 . S
C520 C518 1.415 . S
C520 C525 1.425 . S
C520 C527 1.409 . S
C521 H513 0.930 1_556 S
C521 C519 1.419 . S
C521 C522 1.362 . S
C522 H514 0.930 . S
C522 C521 1.362 . S
C522 C525 1.409 . S
C523 H515 0.930 . S
C523 C524 1.355 . S
C523 C525 1.415 . S
C524 C523 1.355 . S
C524 C526 1.419 . S
C525 C520 1.425 . S
C525 C522 1.409 . S
C525 C523 1.415 . S
C526 H516 0.930 . S
C526 C524 1.419 . S
C526 C527 1.362 . S
C527 H517 0.930 . S
C527 C520 1.409 . S
C527 C526 1.362 . S
H528 C534 0.930 . S
H529 C537 0.930 . S
H530 C538 0.930 . S
H531 C539 0.930 . S
H532 C542 0.930 . S
H533 C543 0.930 . S
C534 H528 0.930 . S
C534 C535 1.355 . S
C534 C536 1.415 . S
C535 C534 1.355 . S
C535 C537 1.419 . S
C536 C534 1.415 . S
C536 C541 1.425 . S
C536 C543 1.409 . S
C537 H529 0.930 . S
C537 C535 1.419 . S
C537 C538 1.362 . S
C538 H530 0.930 . S
C538 C537 1.362 . S
C538 C541 1.409 . S
C539 H531 0.930 . S
C539 C540 1.355 . S
C539 C541 1.415 . S
C540 C539 1.355 . S
C540 C542 1.419 . S
C541 C536 1.425 . S
C541 C538 1.409 . S
C541 C539 1.415 . S
C542 H532 0.930 . S
C542 C540 1.419 . S
C542 C543 1.362 . S
C543 H533 0.930 . S
C543 C536 1.409 . S
C543 C542 1.362 . S
H544 C550 0.930 . S
H545 C553 0.930 . S
H546 C554 0.930 . S
H547 C555 0.930 . S
H548 C558 0.930 . S
H549 C559 0.930 . S
C550 H544 0.930 . S
C550 C551 1.355 . S
C550 C552 1.415 . S
C551 C550 1.355 . S
C551 C553 1.419 . S
C552 C550 1.415 . S
C552 C557 1.425 . S
C552 C559 1.409 . S
C553 H545 0.930 . S
C553 C551 1.419 . S
C553 C554 1.362 . S
C554 H546 0.930 . S
C554 C553 1.362 . S
C554 C557 1.409 . S
C555 H547 0.930 . S
C555 C556 1.355 . S
C555 C557 1.415 . S
C556 C555 1.355 . S
C556 C558 1.419 . S
C557 C552 1.425 . S
C557 C554 1.409 . S
C557 C555 1.415 . S
C558 H548 0.930 . S
C558 C556 1.419 . S
C558 C559 1.362 . S
C559 H549 0.930 . S
C559 C552 1.409 . S
C559 C558 1.362 . S
H560 C566 0.930 . S
H561 C569 0.930 . S
H562 C570 0.930 . S
H563 C571 0.930 . S
H564 C574 0.930 . S
H565 C575 0.930 . S
C566 H560 0.930 . S
C566 C567 1.355 . S
C566 C568 1.415 . S
C567 C566 1.355 . S
C567 C569 1.419 . S
C568 C566 1.415 . S
C568 C573 1.425 . S
C568 C575 1.409 . S
C569 H561 0.930 . S
C569 C567 1.419 . S
C569 C570 1.362 . S
C570 H562 0.930 . S
C570 C569 1.362 . S
C570 C573 1.409 . S
C571 H563 0.930 . S
C571 C572 1.355 . S
C571 C573 1.415 . S
C572 C571 1.355 . S
C572 C574 1.419 . S
C573 C568 1.425 . S
C573 C570 1.409 . S
C573 C571 1.415 . S
C574 H564 0.930 . S
C574 C572 1.419 . S
C574 C575 1.362 . S
C575 H565 0.930 . S
C575 C568 1.409 . S
C575 C574 1.362 . S
H576 C582 0.930 . S
H577 C585 0.930 . S
H578 C586 0.930 . S
H579 C587 0.930 1_455 S
H580 C590 0.930 . S
H581 C591 0.930 . S
C582 H576 0.930 . S
C582 C583 1.355 . S
C582 C584 1.415 . S
C583 C582 1.355 . S
C583 C585 1.419 . S
C584 C582 1.415 . S
C584 C589 1.425 . S
C584 C591 1.409 . S
C585 H577 0.930 . S
C585 C583 1.419 . S
C585 C586 1.362 . S
C586 H578 0.930 . S
C586 C585 1.362 . S
C586 C589 1.409 . S
C587 H579 0.930 1_655 S
C587 C588 1.360 . S
C587 C589 1.415 . S
C588 C587 1.360 . S
C588 C590 1.439 . S
C589 C584 1.425 . S
C589 C586 1.409 . S
C589 C587 1.415 . S
C590 H580 0.930 . S
C590 C588 1.439 . S
C590 C591 1.362 . S
C591 H581 0.930 . S
C591 C584 1.409 . S
C591 C590 1.362 . S
H592 C598 0.930 . S
H593 C601 0.930 . S
H594 C602 0.930 . S
H595 C603 0.930 . S
H596 C606 0.930 . S
H597 C607 0.930 . S
C598 H592 0.930 . S
C598 C599 1.355 . S
C598 C600 1.415 . S
C599 C598 1.355 . S
C599 C601 1.419 . S
C600 C598 1.415 . S
C600 C605 1.425 . S
C600 C607 1.409 1_655 S
C601 H593 0.930 . S
C601 C599 1.419 . S
C601 C602 1.362 . S
C602 H594 0.930 . S
C602 C601 1.362 . S
C602 C605 1.409 . S
C603 H595 0.930 . S
C603 C604 1.327 1_655 S
C603 C605 1.415 . S
C604 C603 1.327 1_455 S
C604 C606 1.436 . S
C605 C600 1.425 . S
C605 C602 1.409 . S
C605 C603 1.415 . S
C606 H596 0.930 . S
C606 C604 1.436 . S
C606 C607 1.362 . S
C607 H597 0.930 . S
C607 C600 1.409 1_455 S
C607 C606 1.362 . S
H608 C614 0.930 . S
H609 C617 0.930 . S
H610 C618 0.930 . S
H611 C619 0.930 . S
H612 C622 0.930 . S
H613 C623 0.930 . S
C614 H608 0.930 . S
C614 C615 1.355 . S
C614 C616 1.415 . S
C615 C614 1.355 . S
C615 C617 1.419 . S
C616 C614 1.415 . S
C616 C621 1.425 . S
C616 C623 1.409 . S
C617 H609 0.930 . S
C617 C615 1.419 . S
C617 C618 1.362 . S
C618 H610 0.930 . S
C618 C617 1.362 . S
C618 C621 1.409 . S
C619 H611 0.930 . S
C619 C620 1.355 . S
C619 C621 1.415 . S
C620 C619 1.355 . S
C620 C622 1.419 . S
C621 C616 1.425 . S
C621 C618 1.409 . S
C621 C619 1.415 . S
C622 H612 0.930 . S
C622 C620 1.419 . S
C622 C623 1.362 . S
C623 H613 0.930 . S
C623 C616 1.409 . S
C623 C622 1.362 . S
H624 C630 0.930 . S
H625 C633 0.930 . S
H626 C634 0.930 . S
H627 C635 0.930 . S
H628 C638 0.930 . S
H629 C639 0.930 . S
C630 H624 0.930 . S
C630 C631 1.355 . S
C630 C632 1.415 . S
C631 C630 1.355 . S
C631 C633 1.419 . S
C632 C630 1.415 . S
C632 C637 1.425 . S
C632 C639 1.409 . S
C633 H625 0.930 . S
C633 C631 1.419 . S
C633 C634 1.362 . S
C634 H626 0.930 . S
C634 C633 1.362 . S
C634 C637 1.409 . S
C635 H627 0.930 . S
C635 C636 1.355 . S
C635 C637 1.415 . S
C636 C635 1.355 . S
C636 C638 1.419 . S
C637 C632 1.425 . S
C637 C634 1.409 . S
C637 C635 1.415 . S
C638 H628 0.930 . S
C638 C636 1.419 . S
C638 C639 1.362 . S
C639 H629 0.930 . S
C639 C632 1.409 . S
C639 C638 1.362 . S
H640 C646 0.930 . S
H641 C649 0.930 . S
H642 C650 0.930 . S
H643 C651 0.930 . S
H644 C654 0.930 . S
H645 C655 0.930 . S
C646 H640 0.930 . S
C646 C647 1.355 . S
C646 C648 1.415 . S
C647 C646 1.355 . S
C647 C649 1.419 . S
C648 C646 1.415 . S
C648 C653 1.425 . S
C648 C655 1.409 . S
C649 H641 0.930 . S
C649 C647 1.419 . S
C649 C650 1.362 . S
C650 H642 0.930 . S
C650 C649 1.362 . S
C650 C653 1.409 . S
C651 H643 0.930 . S
C651 C652 1.355 . S
C651 C653 1.415 . S
C652 C651 1.355 . S
C652 C654 1.419 . S
C653 C648 1.425 . S
C653 C650 1.409 . S
C653 C651 1.415 . S
C654 H644 0.930 . S
C654 C652 1.419 . S
C654 C655 1.362 . S
C655 H645 0.930 . S
C655 C648 1.409 . S
C655 C654 1.362 . S
H656 C662 0.930 . S
H657 C665 0.930 . S
H658 C666 0.930 . S
H659 C667 0.930 . S
H660 C670 0.930 . S
H661 C671 0.930 . S
C662 H656 0.930 . S
C662 C663 1.355 . S
C662 C664 1.415 . S
C663 C662 1.355 . S
C663 C665 1.419 . S
C664 C662 1.415 . S
C664 C669 1.425 . S
C664 C671 1.409 . S
C665 H657 0.930 . S
C665 C663 1.419 . S
C665 C666 1.362 . S
C666 H658 0.930 . S
C666 C665 1.362 . S
C666 C669 1.409 . S
C667 H659 0.930 . S
C667 C668 1.355 . S
C667 C669 1.415 . S
C668 C667 1.355 . S
C668 C670 1.419 . S
C669 C664 1.425 . S
C669 C666 1.409 . S
C669 C667 1.415 . S
C670 H660 0.930 . S
C670 C668 1.419 . S
C670 C671 1.362 . S
C671 H661 0.930 . S
C671 C664 1.409 . S
C671 C670 1.362 . S
H672 C678 0.930 . S
H673 C681 0.930 1_554 S
H674 C682 0.930 . S
H675 C683 0.930 . S
H676 C686 0.930 . S
H677 C687 0.930 1_455 S
C678 H672 0.930 . S
C678 C679 1.355 1_455 S
C678 C680 1.415 1_455 S
C679 C678 1.355 1_655 S
C679 C681 1.419 . S
C680 C678 1.415 1_655 S
C680 C685 1.425 . S
C680 C687 1.409 . S
C681 H673 0.930 1_556 S
C681 C679 1.419 . S
C681 C682 1.362 . S
C682 H674 0.930 . S
C682 C681 1.362 . S
C682 C685 1.409 . S
C683 H675 0.930 . S
C683 C684 1.355 . S
C683 C685 1.415 . S
C684 C683 1.355 . S
C684 C686 1.419 . S
C685 C680 1.425 . S
C685 C682 1.409 . S
C685 C683 1.415 . S
C686 H676 0.930 . S
C686 C684 1.419 . S
C686 C687 1.362 . S
C687 H677 0.930 1_655 S
C687 C680 1.409 . S
C687 C686 1.362 . S
H688 C694 0.930 . S
H689 C697 0.930 . S
H690 C698 0.930 . S
H691 C699 0.930 1_556 S
H692 C702 0.930 . S
H693 C703 0.930 1_455 S
C694 H688 0.930 . S
C694 C695 1.355 . S
C694 C696 1.415 . S
C695 C694 1.355 . S
C695 C697 1.419 . S
C696 C694 1.415 . S
C696 C701 1.425 . S
C696 C703 1.409 . S
C697 H689 0.930 . S
C697 C695 1.419 . S
C697 C698 1.362 . S
C698 H690 0.930 . S
C698 C697 1.362 . S
C698 C701 1.409 . S
C699 H691 0.930 1_554 S
C699 C700 1.355 . S
C699 C701 1.415 . S
C700 C699 1.355 . S
C700 C702 1.419 1_655 S
C701 C696 1.425 . S
C701 C698 1.409 . S
C701 C699 1.415 . S
C702 H692 0.930 . S
C702 C700 1.419 1_455 S
C702 C703 1.362 1_455 S
C703 H693 0.930 1_655 S
C703 C696 1.409 . S
C703 C702 1.362 1_655 S
H704 C710 0.930 . S
H705 C713 0.930 . S
H706 C714 0.930 . S
H707 C715 0.930 . S
H708 C718 0.930 . S
H709 C719 0.930 . S
C710 H704 0.930 . S
C710 C711 1.355 . S
C710 C712 1.415 . S
C711 C710 1.355 . S
C711 C713 1.419 . S
C712 C710 1.415 . S
C712 C717 1.425 . S
C712 C719 1.409 . S
C713 H705 0.930 . S
C713 C711 1.419 . S
C713 C714 1.362 . S
C714 H706 0.930 . S
C714 C713 1.362 . S
C714 C717 1.409 . S
C715 H707 0.930 . S
C715 C716 1.355 . S
C715 C717 1.415 . S
C716 C715 1.355 . S
C716 C718 1.419 . S
C717 C712 1.425 . S
C717 C714 1.409 . S
C717 C715 1.415 . S
C718 H708 0.930 . S
C718 C716 1.419 . S
C718 C719 1.362 . S
C719 H709 0.930 . S
C719 C712 1.409 . S
C719 C718 1.362 . S
H720 C726 0.930 . S
H721 C729 0.930 . S
H722 C730 0.930 . S
H723 C731 0.930 . S
H724 C734 0.930 . S
H725 C735 0.930 . S
C726 H720 0.930 . S
C726 C727 1.355 . S
C726 C728 1.415 . S
C727 C726 1.355 . S
C727 C729 1.419 . S
C728 C726 1.415 . S
C728 C733 1.425 . S
C728 C735 1.409 . S
C729 H721 0.930 . S
C729 C727 1.419 . S
C729 C730 1.362 . S
C730 H722 0.930 . S
C730 C729 1.362 . S
C730 C733 1.409 . S
C731 H723 0.930 . S
C731 C732 1.355 . S
C731 C733 1.415 . S
C732 C731 1.355 . S
C732 C734 1.419 . S
C733 C728 1.425 . S
C733 C730 1.409 . S
C733 C731 1.415 . S
C734 H724 0.930 . S
C734 C732 1.419 . S
C734 C735 1.362 . S
C735 H725 0.930 . S
C735 C728 1.409 . S
C735 C734 1.362 . S
H736 C742 0.930 . S
H737 C745 0.930 . S
H738 C746 0.930 . S
H739 C747 0.930 . S
H740 C750 0.930 1_556 S
H741 C751 0.930 . S
C742 H736 0.930 . S
C742 C743 1.355 . S
C742 C744 1.415 . S
C743 C742 1.355 . S
C743 C745 1.419 . S
C744 C742 1.415 . S
C744 C749 1.425 . S
C744 C751 1.409 . S
C745 H737 0.930 . S
C745 C743 1.419 . S
C745 C746 1.362 . S
C746 H738 0.930 . S
C746 C745 1.362 . S
C746 C749 1.409 . S
C747 H739 0.930 . S
C747 C748 1.355 . S
C747 C749 1.415 . S
C748 C747 1.355 . S
C748 C750 1.419 . S
C749 C744 1.425 . S
C749 C746 1.409 . S
C749 C747 1.415 . S
C750 H740 0.930 1_554 S
C750 C748 1.419 . S
C750 C751 1.362 . S
C751 H741 0.930 . S
C751 C744 1.409 . S
C751 C750 1.362 . S
H752 C758 0.930 . S
H753 C761 0.930 . S
H754 C762 0.930 . S
H755 C763 0.930 . S
H756 C766 0.930 . S
H757 C767 0.930 . S
C758 H752 0.930 . S
C758 C759 1.355 . S
C758 C760 1.415 . S
C759 C758 1.355 . S
C759 C761 1.419 . S
C760 C758 1.415 . S
C760 C765 1.425 . S
C760 C767 1.409 . S
C761 H753 0.930 . S
C761 C759 1.419 . S
C761 C762 1.362 . S
C762 H754 0.930 . S
C762 C761 1.362 . S
C762 C765 1.409 . S
C763 H755 0.930 . S
C763 C764 1.355 . S
C763 C765 1.415 . S
C764 C763 1.355 . S
C764 C766 1.419 . S
C765 C760 1.425 . S
C765 C762 1.409 . S
C765 C763 1.415 . S
C766 H756 0.930 . S
C766 C764 1.419 . S
C766 C767 1.362 . S
C767 H757 0.930 . S
C767 C760 1.409 . S
C767 C766 1.362 . S
H768 C774 0.930 . S
H769 C777 0.930 . S
H770 C778 0.930 . S
H771 C779 0.930 . S
H772 C782 0.930 . S
H773 C783 0.930 . S
C774 H768 0.930 . S
C774 C775 1.355 . S
C774 C776 1.415 . S
C775 C774 1.355 . S
C775 C777 1.419 . S
C776 C774 1.415 . S
C776 C781 1.425 . S
C776 C783 1.409 . S
C777 H769 0.930 . S
C777 C775 1.419 . S
C777 C778 1.362 . S
C778 H770 0.930 . S
C778 C777 1.362 . S
C778 C781 1.409 . S
C779 H771 0.930 . S
C779 C780 1.355 . S
C779 C781 1.415 . S
C780 C779 1.355 . S
C780 C782 1.419 . S
C781 C776 1.425 . S
C781 C778 1.409 . S
C781 C779 1.415 . S
C782 H772 0.930 . S
C782 C780 1.419 . S
C782 C783 1.362 . S
C783 H773 0.930 . S
C783 C776 1.409 . S
C783 C782 1.362 . S
H784 C790 0.930 . S
H785 C793 0.930 . S
H786 C794 0.930 . S
H787 C795 0.930 . S
H788 C798 0.930 . S
H789 C799 0.930 . S
C790 H784 0.930 . S
C790 C791 1.355 . S
C790 C792 1.415 . S
C791 C790 1.355 . S
C791 C793 1.419 . S
C792 C790 1.415 . S
C792 C797 1.425 . S
C792 C799 1.409 . S
C793 H785 0.930 . S
C793 C791 1.419 . S
C793 C794 1.362 . S
C794 H786 0.930 . S
C794 C793 1.362 . S
C794 C797 1.409 . S
C795 H787 0.930 . S
C795 C796 1.355 . S
C795 C797 1.415 . S
C796 C795 1.355 . S
C796 C798 1.419 . S
C797 C792 1.425 . S
C797 C794 1.409 . S
C797 C795 1.415 . S
C798 H788 0.930 . S
C798 C796 1.419 . S
C798 C799 1.362 . S
C799 H789 0.930 . S
C799 C792 1.409 . S
C799 C798 1.362 . S
H800 C806 0.930 . S
H801 C809 0.930 . S
H802 C810 0.930 . S
H803 C811 0.930 . S
H804 C814 0.930 . S
H805 C815 0.930 . S
C806 H800 0.930 . S
C806 C807 1.355 . S
C806 C808 1.415 . S
C807 C806 1.355 . S
C807 C809 1.419 . S
C808 C806 1.415 . S
C808 C813 1.425 . S
C808 C815 1.409 . S
C809 H801 0.930 . S
C809 C807 1.419 . S
C809 C810 1.362 . S
C810 H802 0.930 . S
C810 C809 1.362 . S
C810 C813 1.409 . S
C811 H803 0.930 . S
C811 C812 1.355 . S
C811 C813 1.415 . S
C812 C811 1.355 . S
C812 C814 1.419 . S
C813 C808 1.425 . S
C813 C810 1.409 . S
C813 C811 1.415 . S
C814 H804 0.930 . S
C814 C812 1.419 . S
C814 C815 1.362 . S
C815 H805 0.930 . S
C815 C808 1.409 . S
C815 C814 1.362 . S
H816 C822 0.930 . S
H817 C825 0.930 . S
H818 C826 0.930 . S
H819 C827 0.930 . S
H820 C830 0.930 1_554 S
H821 C831 0.930 1_554 S
C822 H816 0.930 . S
C822 C823 1.355 . S
C822 C824 1.415 . S
C823 C822 1.355 . S
C823 C825 1.419 . S
C824 C822 1.415 . S
C824 C829 1.425 . S
C824 C831 1.409 . S
C825 H817 0.930 . S
C825 C823 1.419 . S
C825 C826 1.362 . S
C826 H818 0.930 . S
C826 C825 1.362 . S
C826 C829 1.409 . S
C827 H819 0.930 . S
C827 C828 1.355 . S
C827 C829 1.415 . S
C828 C827 1.355 . S
C828 C830 1.419 . S
C829 C824 1.425 . S
C829 C826 1.409 . S
C829 C827 1.415 . S
C830 H820 0.930 1_556 S
C830 C828 1.419 . S
C830 C831 1.362 . S
C831 H821 0.930 1_556 S
C831 C824 1.409 . S
C831 C830 1.362 . S
H832 C838 0.930 . S
H833 C841 0.930 . S
H834 C842 0.930 . S
H835 C843 0.930 . S
H836 C846 0.930 . S
H837 C847 0.930 . S
C838 H832 0.930 . S
C838 C839 1.355 . S
C838 C840 1.415 . S
C839 C838 1.355 . S
C839 C841 1.419 . S
C840 C838 1.415 . S
C840 C845 1.425 . S
C840 C847 1.409 . S
C841 H833 0.930 . S
C841 C839 1.419 . S
C841 C842 1.362 . S
C842 H834 0.930 . S
C842 C841 1.362 . S
C842 C845 1.409 . S
C843 H835 0.930 . S
C843 C844 1.355 . S
C843 C845 1.415 . S
C844 C843 1.355 . S
C844 C846 1.419 . S
C845 C840 1.425 . S
C845 C842 1.409 . S
C845 C843 1.415 . S
C846 H836 0.930 . S
C846 C844 1.419 . S
C846 C847 1.362 . S
C847 H837 0.930 . S
C847 C840 1.409 . S
C847 C846 1.362 . S
H848 C854 0.930 . S
H849 C857 0.930 . S
H850 C858 0.930 . S
H851 C859 0.930 . S
H852 C862 0.930 . S
H853 C863 0.930 . S
C854 H848 0.930 . S
C854 C855 1.355 . S
C854 C856 1.415 . S
C855 C854 1.355 . S
C855 C857 1.419 . S
C856 C854 1.415 . S
C856 C861 1.425 . S
C856 C863 1.409 . S
C857 H849 0.930 . S
C857 C855 1.419 . S
C857 C858 1.362 . S
C858 H850 0.930 . S
C858 C857 1.362 . S
C858 C861 1.409 . S
C859 H851 0.930 . S
C859 C860 1.355 . S
C859 C861 1.415 . S
C860 C859 1.355 . S
C860 C862 1.419 . S
C861 C856 1.425 . S
C861 C858 1.409 . S
C861 C859 1.415 . S
C862 H852 0.930 . S
C862 C860 1.419 . S
C862 C863 1.362 . S
C863 H853 0.930 . S
C863 C856 1.409 . S
C863 C862 1.362 . S
H864 C870 0.930 . S
H865 C873 0.930 . S
H866 C874 0.930 . S
H867 C875 0.930 . S
H868 C878 0.930 . S
H869 C879 0.930 . S
C870 H864 0.930 . S
C870 C871 1.355 . S
C870 C872 1.415 . S
C871 C870 1.355 . S
C871 C873 1.419 . S
C872 C870 1.415 . S
C872 C877 1.425 . S
C872 C879 1.409 . S
C873 H865 0.930 . S
C873 C871 1.419 . S
C873 C874 1.362 . S
C874 H866 0.930 . S
C874 C873 1.362 . S
C874 C877 1.409 . S
C875 H867 0.930 . S
C875 C876 1.355 . S
C875 C877 1.415 . S
C876 C875 1.355 . S
C876 C878 1.419 . S
C877 C872 1.425 . S
C877 C874 1.409 . S
C877 C875 1.415 . S
C878 H868 0.930 . S
C878 C876 1.419 . S
C878 C879 1.362 . S
C879 H869 0.930 . S
C879 C872 1.409 . S
C879 C878 1.362 . S
H880 C886 0.930 . S
H881 C889 0.930 . S
H882 C890 0.930 . S
H883 C891 0.930 . S
H884 C894 0.930 . S
H885 C895 0.930 . S
C886 H880 0.930 . S
C886 C887 1.355 . S
C886 C888 1.415 . S
C887 C886 1.355 . S
C887 C889 1.419 . S
C888 C886 1.415 . S
C888 C893 1.425 . S
C888 C895 1.409 . S
C889 H881 0.930 . S
C889 C887 1.419 . S
C889 C890 1.362 . S
C890 H882 0.930 . S
C890 C889 1.362 . S
C890 C893 1.409 . S
C891 H883 0.930 . S
C891 C892 1.355 . S
C891 C893 1.415 . S
C892 C891 1.355 . S
C892 C894 1.419 . S
C893 C888 1.425 . S
C893 C890 1.409 . S
C893 C891 1.415 . S
C894 H884 0.930 . S
C894 C892 1.419 . S
C894 C895 1.362 . S
C895 H885 0.930 . S
C895 C888 1.409 . S
C895 C894 1.362 . S
H896 C902 0.930 . S
H897 C905 0.930 1_556 S
H898 C906 0.930 . S
H899 C907 0.930 . S
H900 C910 0.930 1_554 S
H901 C911 0.930 . S
C902 H896 0.930 . S
C902 C903 1.355 . S
C902 C904 1.415 1_545 S
C903 C902 1.355 . S
C903 C905 1.419 . S
C904 C902 1.415 1_565 S
C904 C909 1.425 1_564 S
C904 C911 1.409 . S
C905 H897 0.930 1_554 S
C905 C903 1.419 . S
C905 C906 1.362 1_554 S
C906 H898 0.930 . S
C906 C905 1.362 1_556 S
C906 C909 1.409 . S
C907 H899 0.930 . S
C907 C908 1.355 . S
C907 C909 1.415 1_565 S
C908 C907 1.355 . S
C908 C910 1.419 . S
C909 C904 1.425 1_546 S
C909 C906 1.409 . S
C909 C907 1.415 1_545 S
C910 H900 0.930 1_556 S
C910 C908 1.419 . S
C910 C911 1.362 1_556 S
C911 H901 0.930 . S
C911 C904 1.409 . S
C911 C910 1.362 1_554 S
H912 C918 0.930 . S
H913 C921 0.930 . S
H914 C922 0.930 . S
H915 C923 0.930 . S
H916 C926 0.930 . S
H917 C927 0.930 . S
C918 H912 0.930 . S
C918 C919 1.355 . S
C918 C920 1.415 . S
C919 C918 1.355 . S
C919 C921 1.419 . S
C920 C918 1.415 . S
C920 C925 1.425 . S
C920 C927 1.409 . S
C921 H913 0.930 . S
C921 C919 1.419 . S
C921 C922 1.362 . S
C922 H914 0.930 . S
C922 C921 1.362 . S
C922 C925 1.409 . S
C923 H915 0.930 . S
C923 C924 1.355 . S
C923 C925 1.415 . S
C924 C923 1.355 . S
C924 C926 1.419 . S
C925 C920 1.425 . S
C925 C922 1.409 . S
C925 C923 1.415 . S
C926 H916 0.930 . S
C926 C924 1.419 . S
C926 C927 1.362 . S
C927 H917 0.930 . S
C927 C920 1.409 . S
C927 C926 1.362 . S
H928 C934 0.930 . S
H929 C937 0.930 . S
H930 C938 0.930 . S
H931 C939 0.930 . S
H932 C942 0.930 . S
H933 C943 0.930 . S
C934 H928 0.930 . S
C934 C935 1.355 . S
C934 C936 1.415 . S
C935 C934 1.355 . S
C935 C937 1.419 . S
C936 C934 1.415 . S
C936 C941 1.425 1_545 S
C936 C943 1.409 . S
C937 H929 0.930 . S
C937 C935 1.419 . S
C937 C938 1.362 1_545 S
C938 H930 0.930 . S
C938 C937 1.362 1_565 S
C938 C941 1.409 . S
C939 H931 0.930 . S
C939 C940 1.355 . S
C939 C941 1.415 . S
C940 C939 1.355 . S
C940 C942 1.419 . S
C941 C936 1.425 1_565 S
C941 C938 1.409 . S
C941 C939 1.415 . S
C942 H932 0.930 . S
C942 C940 1.419 . S
C942 C943 1.362 1_565 S
C943 H933 0.930 . S
C943 C936 1.409 . S
C943 C942 1.362 1_545 S
H944 C950 0.930 . S
H945 C953 0.930 . S
H946 C954 0.930 . S
H947 C955 0.930 . S
H948 C958 0.930 . S
H949 C959 0.930 . S
C950 H944 0.930 . S
C950 C951 1.355 . S
C950 C952 1.415 . S
C951 C950 1.355 . S
C951 C953 1.419 . S
C952 C950 1.415 . S
C952 C957 1.425 . S
C952 C959 1.409 . S
C953 H945 0.930 . S
C953 C951 1.419 . S
C953 C954 1.362 . S
C954 H946 0.930 . S
C954 C953 1.362 . S
C954 C957 1.409 . S
C955 H947 0.930 . S
C955 C956 1.355 . S
C955 C957 1.415 . S
C956 C955 1.355 . S
C956 C958 1.419 . S
C957 C952 1.425 . S
C957 C954 1.409 . S
C957 C955 1.415 . S
C958 H948 0.930 . S
C958 C956 1.419 . S
C958 C959 1.362 . S
C959 H949 0.930 . S
C959 C952 1.409 . S
C959 C958 1.362 . S
H960 C966 0.930 . S
H961 C969 0.930 . S
H962 C970 0.930 . S
H963 C971 0.930 . S
H964 C974 0.930 . S
H965 C975 0.930 . S
C966 H960 0.930 . S
C966 C967 1.355 . S
C966 C968 1.415 . S
C967 C966 1.355 . S
C967 C969 1.419 . S
C968 C966 1.415 . S
C968 C973 1.425 . S
C968 C975 1.409 . S
C969 H961 0.930 . S
C969 C967 1.419 . S
C969 C970 1.362 . S
C970 H962 0.930 . S
C970 C969 1.362 . S
C970 C973 1.409 . S
C971 H963 0.930 . S
C971 C972 1.355 . S
C971 C973 1.415 . S
C972 C971 1.355 . S
C972 C974 1.419 . S
C973 C968 1.425 . S
C973 C970 1.409 . S
C973 C971 1.415 . S
C974 H964 0.930 . S
C974 C972 1.419 . S
C974 C975 1.362 . S
C975 H965 0.930 . S
C975 C968 1.409 . S
C975 C974 1.362 . S
H976 C982 0.930 . S
H977 C985 0.930 . S
H978 C986 0.930 . S
H979 C987 0.930 . S
H980 C990 0.930 . S
H981 C991 0.930 . S
C982 H976 0.930 . S
C982 C983 1.355 . S
C982 C984 1.415 . S
C983 C982 1.355 . S
C983 C985 1.419 . S
C984 C982 1.415 . S
C984 C989 1.425 . S
C984 C991 1.409 . S
C985 H977 0.930 . S
C985 C983 1.419 . S
C985 C986 1.362 . S
C986 H978 0.930 . S
C986 C985 1.362 . S
C986 C989 1.409 . S
C987 H979 0.930 . S
C987 C988 1.355 . S
C987 C989 1.415 . S
C988 C987 1.355 . S
C988 C990 1.419 . S
C989 C984 1.425 . S
C989 C986 1.409 . S
C989 C987 1.415 . S
C990 H980 0.930 . S
C990 C988 1.419 . S
C990 C991 1.362 . S
C991 H981 0.930 . S
C991 C984 1.409 . S
C991 C990 1.362 . S
H992 C998 0.930 . S
H993 C1001 0.930 . S
H994 C1002 0.930 . S
H995 C1003 0.930 . S
H996 C1006 0.930 . S
H997 C1007 0.930 . S
C998 H992 0.930 . S
C998 C999 1.355 . S
C998 C1000 1.415 . S
C999 C998 1.355 . S
C999 C1001 1.419 . S
C1000 C998 1.415 . S
C1000 C1005 1.425 . S
C1000 C1007 1.409 . S
C1001 H993 0.930 . S
C1001 C999 1.419 . S
C1001 C1002 1.362 . S
C1002 H994 0.930 . S
C1002 C1001 1.362 . S
C1002 C1005 1.409 . S
C1003 H995 0.930 . S
C1003 C1004 1.355 . S
C1003 C1005 1.415 . S
C1004 C1003 1.355 . S
C1004 C1006 1.419 . S
C1005 C1000 1.425 . S
C1005 C1002 1.409 . S
C1005 C1003 1.415 . S
C1006 H996 0.930 . S
C1006 C1004 1.419 . S
C1006 C1007 1.362 . S
C1007 H997 0.930 . S
C1007 C1000 1.409 . S
C1007 C1006 1.362 . S
H1008 C1014 0.930 . S
H1009 C1017 0.930 . S
H1010 C1018 0.930 . S
H1011 C1019 0.930 . S
H1012 C1022 0.930 . S
H1013 C1023 0.930 . S
C1014 H1008 0.930 . S
C1014 C1015 1.355 . S
C1014 C1016 1.415 . S
C1015 C1014 1.355 . S
C1015 C1017 1.419 1_556 S
C1016 C1014 1.415 . S
C1016 C1021 1.425 1_556 S
C1016 C1023 1.409 . S
C1017 H1009 0.930 . S
C1017 C1015 1.419 1_554 S
C1017 C1018 1.362 . S
C1018 H1010 0.930 . S
C1018 C1017 1.362 . S
C1018 C1021 1.409 . S
C1019 H1011 0.930 . S
C1019 C1020 1.355 . S
C1019 C1021 1.415 . S
C1020 C1019 1.355 . S
C1020 C1022 1.419 1_554 S
C1021 C1016 1.425 1_554 S
C1021 C1018 1.409 . S
C1021 C1019 1.415 . S
C1022 H1012 0.930 . S
C1022 C1020 1.419 1_556 S
C1022 C1023 1.362 . S
C1023 H1013 0.930 . S
C1023 C1016 1.409 . S
C1023 C1022 1.362 . S
H1024 C1030 0.930 . S
H1025 C1033 0.930 . S
H1026 C1034 0.930 . S
H1027 C1035 0.930 . S
H1028 C1038 0.930 . S
H1029 C1039 0.930 . S
C1030 H1024 0.930 . S
C1030 C1031 1.355 . S
C1030 C1032 1.415 . S
C1031 C1030 1.355 . S
C1031 C1033 1.419 . S
C1032 C1030 1.415 . S
C1032 C1037 1.425 . S
C1032 C1039 1.409 . S
C1033 H1025 0.930 . S
C1033 C1031 1.419 . S
C1033 C1034 1.362 . S
C1034 H1026 0.930 . S
C1034 C1033 1.362 . S
C1034 C1037 1.409 . S
C1035 H1027 0.930 . S
C1035 C1036 1.355 . S
C1035 C1037 1.415 . S
C1036 C1035 1.355 . S
C1036 C1038 1.419 . S
C1037 C1032 1.425 . S
C1037 C1034 1.409 . S
C1037 C1035 1.415 . S
C1038 H1028 0.930 . S
C1038 C1036 1.419 . S
C1038 C1039 1.362 . S
C1039 H1029 0.930 . S
C1039 C1032 1.409 . S
C1039 C1038 1.362 . S
H1040 C1046 0.930 . S
H1041 C1049 0.930 . S
H1042 C1050 0.930 . S
H1043 C1051 0.930 . S
H1044 C1054 0.930 . S
H1045 C1055 0.930 . S
C1046 H1040 0.930 . S
C1046 C1047 1.355 . S
C1046 C1048 1.415 . S
C1047 C1046 1.355 . S
C1047 C1049 1.419 . S
C1048 C1046 1.415 . S
C1048 C1053 1.425 . S
C1048 C1055 1.409 . S
C1049 H1041 0.930 . S
C1049 C1047 1.419 . S
C1049 C1050 1.362 . S
C1050 H1042 0.930 . S
C1050 C1049 1.362 . S
C1050 C1053 1.409 . S
C1051 H1043 0.930 . S
C1051 C1052 1.355 . S
C1051 C1053 1.415 . S
C1052 C1051 1.355 . S
C1052 C1054 1.419 . S
C1053 C1048 1.425 . S
C1053 C1050 1.409 . S
C1053 C1051 1.415 . S
C1054 H1044 0.930 . S
C1054 C1052 1.419 . S
C1054 C1055 1.362 . S
C1055 H1045 0.930 . S
C1055 C1048 1.409 . S
C1055 C1054 1.362 . S
H1056 C1062 0.930 . S
H1057 C1065 0.930 1_554 S
H1058 C1066 0.930 . S
H1059 C1067 0.930 . S
H1060 C1070 0.930 . S
H1061 C1071 0.930 . S
C1062 H1056 0.930 . S
C1062 C1063 1.355 . S
C1062 C1064 1.415 . S
C1063 C1062 1.355 . S
C1063 C1065 1.419 . S
C1064 C1062 1.415 . S
C1064 C1069 1.425 . S
C1064 C1071 1.409 . S
C1065 H1057 0.930 1_556 S
C1065 C1063 1.419 . S
C1065 C1066 1.362 . S
C1066 H1058 0.930 . S
C1066 C1065 1.362 . S
C1066 C1069 1.409 . S
C1067 H1059 0.930 . S
C1067 C1068 1.355 . S
C1067 C1069 1.415 . S
C1068 C1067 1.355 . S
C1068 C1070 1.419 . S
C1069 C1064 1.425 . S
C1069 C1066 1.409 . S
C1069 C1067 1.415 . S
C1070 H1060 0.930 . S
C1070 C1068 1.419 . S
C1070 C1071 1.362 . S
C1071 H1061 0.930 . S
C1071 C1064 1.409 . S
C1071 C1070 1.362 . S
H1072 C1078 0.930 . S
H1073 C1081 0.930 . S
H1074 C1082 0.930 . S
H1075 C1083 0.930 . S
H1076 C1086 0.930 . S
H1077 C1087 0.930 . S
C1078 H1072 0.930 . S
C1078 C1079 1.355 . S
C1078 C1080 1.415 . S
C1079 C1078 1.355 . S
C1079 C1081 1.419 . S
C1080 C1078 1.415 . S
C1080 C1085 1.425 . S
C1080 C1087 1.409 . S
C1081 H1073 0.930 . S
C1081 C1079 1.419 . S
C1081 C1082 1.362 . S
C1082 H1074 0.930 . S
C1082 C1081 1.362 . S
C1082 C1085 1.409 . S
C1083 H1075 0.930 . S
C1083 C1084 1.355 . S
C1083 C1085 1.415 . S
C1084 C1083 1.355 . S
C1084 C1086 1.419 . S
C1085 C1080 1.425 . S
C1085 C1082 1.409 . S
C1085 C1083 1.415 . S
C1086 H1076 0.930 . S
C1086 C1084 1.419 . S
C1086 C1087 1.362 . S
C1087 H1077 0.930 . S
C1087 C1080 1.409 . S
C1087 C1086 1.362 . S
H1088 C1094 0.930 . S
H1089 C1097 0.930 . S
H1090 C1098 0.930 . S
H1091 C1099 0.930 . S
H1092 C1102 0.930 . S
H1093 C1103 0.930 . S
C1094 H1088 0.930 . S
C1094 C1095 1.355 . S
C1094 C1096 1.415 . S
C1095 C1094 1.355 . S
C1095 C1097 1.419 . S
C1096 C1094 1.415 . S
C1096 C1101 1.425 . S
C1096 C1103 1.409 . S
C1097 H1089 0.930 . S
C1097 C1095 1.419 . S
C1097 C1098 1.362 . S
C1098 H1090 0.930 . S
C1098 C1097 1.362 . S
C1098 C1101 1.409 . S
C1099 H1091 0.930 . S
C1099 C1100 1.367 . S
C1099 C1101 1.415 . S
C1100 C1099 1.367 . S
C1100 C1102 1.434 . S
C1101 C1096 1.425 . S
C1101 C1098 1.409 . S
C1101 C1099 1.415 . S
C1102 H1092 0.930 . S
C1102 C1100 1.434 . S
C1102 C1103 1.362 . S
C1103 H1093 0.930 . S
C1103 C1096 1.409 . S
C1103 C1102 1.362 . S
H1104 C1110 0.930 . S
H1105 C1113 0.930 . S
H1106 C1114 0.930 1_455 S
H1107 C1115 0.930 . S
H1108 C1118 0.930 . S
H1109 C1119 0.930 . S
C1110 H1104 0.930 . S
C1110 C1111 1.355 . S
C1110 C1112 1.415 . S
C1111 C1110 1.355 . S
C1111 C1113 1.419 . S
C1112 C1110 1.415 . S
C1112 C1117 1.425 . S
C1112 C1119 1.409 . S
C1113 H1105 0.930 . S
C1113 C1111 1.419 . S
C1113 C1114 1.362 . S
C1114 H1106 0.930 1_655 S
C1114 C1113 1.362 . S
C1114 C1117 1.409 . S
C1115 H1107 0.930 . S
C1115 C1116 1.355 1_455 S
C1115 C1117 1.415 1_455 S
C1116 C1115 1.355 1_655 S
C1116 C1118 1.419 . S
C1117 C1112 1.425 . S
C1117 C1114 1.409 . S
C1117 C1115 1.415 1_655 S
C1118 H1108 0.930 . S
C1118 C1116 1.419 . S
C1118 C1119 1.362 . S
C1119 H1109 0.930 . S
C1119 C1112 1.409 . S
C1119 C1118 1.362 . S
H1120 C1126 0.930 . S
H1121 C1129 0.930 . S
H1122 C1130 0.930 . S
H1123 C1131 0.930 . S
H1124 C1134 0.930 . S
H1125 C1135 0.930 . S
C1126 H1120 0.930 . S
C1126 C1127 1.355 . S
C1126 C1128 1.415 . S
C1127 C1126 1.355 . S
C1127 C1129 1.419 . S
C1128 C1126 1.415 . S
C1128 C1133 1.425 . S
C1128 C1135 1.409 . S
C1129 H1121 0.930 . S
C1129 C1127 1.419 . S
C1129 C1130 1.362 . S
C1130 H1122 0.930 . S
C1130 C1129 1.362 . S
C1130 C1133 1.409 . S
C1131 H1123 0.930 . S
C1131 C1132 1.355 . S
C1131 C1133 1.415 . S
C1132 C1131 1.355 . S
C1132 C1134 1.419 . S
C1133 C1128 1.425 . S
C1133 C1130 1.409 . S
C1133 C1131 1.415 . S
C1134 H1124 0.930 . S
C1134 C1132 1.419 . S
C1134 C1135 1.362 . S
C1135 H1125 0.930 . S
C1135 C1128 1.409 . S
C1135 C1134 1.362 . S
H1136 C1142 0.930 . S
H1137 C1145 0.930 . S
H1138 C1146 0.930 . S
H1139 C1147 0.930 . S
H1140 C1150 0.930 1_554 S
H1141 C1151 0.930 . S
C1142 H1136 0.930 . S
C1142 C1143 1.355 . S
C1142 C1144 1.415 . S
C1143 C1142 1.355 . S
C1143 C1145 1.419 . S
C1144 C1142 1.415 . S
C1144 C1149 1.425 . S
C1144 C1151 1.409 . S
C1145 H1137 0.930 . S
C1145 C1143 1.419 . S
C1145 C1146 1.362 . S
C1146 H1138 0.930 . S
C1146 C1145 1.362 . S
C1146 C1149 1.409 . S
C1147 H1139 0.930 . S
C1147 C1148 1.355 . S
C1147 C1149 1.415 . S
C1148 C1147 1.355 . S
C1148 C1150 1.419 . S
C1149 C1144 1.425 . S
C1149 C1146 1.409 . S
C1149 C1147 1.415 . S
C1150 H1140 0.930 1_556 S
C1150 C1148 1.419 . S
C1150 C1151 1.362 . S
C1151 H1141 0.930 . S
C1151 C1144 1.409 . S
C1151 C1150 1.362 . S
H1152 C1158 0.930 . S
H1153 C1161 0.930 . S
H1154 C1162 0.930 . S
H1155 C1163 0.930 . S
H1156 C1166 0.930 . S
H1157 C1167 0.930 . S
C1158 H1152 0.930 . S
C1158 C1159 1.355 . S
C1158 C1160 1.415 . S
C1159 C1158 1.355 . S
C1159 C1161 1.419 . S
C1160 C1158 1.415 . S
C1160 C1165 1.425 . S
C1160 C1167 1.409 . S
C1161 H1153 0.930 . S
C1161 C1159 1.419 . S
C1161 C1162 1.362 . S
C1162 H1154 0.930 . S
C1162 C1161 1.362 . S
C1162 C1165 1.409 . S
C1163 H1155 0.930 . S
C1163 C1164 1.355 . S
C1163 C1165 1.415 . S
C1164 C1163 1.355 . S
C1164 C1166 1.419 . S
C1165 C1160 1.425 . S
C1165 C1162 1.409 . S
C1165 C1163 1.415 . S
C1166 H1156 0.930 . S
C1166 C1164 1.419 . S
C1166 C1167 1.362 . S
C1167 H1157 0.930 . S
C1167 C1160 1.409 . S
C1167 C1166 1.362 . S
H1168 C1174 0.930 . S
H1169 C1177 0.930 . S
H1170 C1178 0.930 . S
H1171 C1179 0.930 . S
H1172 C1182 0.930 1_556 S
H1173 C1183 0.930 . S
C1174 H1168 0.930 . S
C1174 C1175 1.355 . S
C1174 C1176 1.415 . S
C1175 C1174 1.355 . S
C1175 C1177 1.419 . S
C1176 C1174 1.415 . S
C1176 C1181 1.425 . S
C1176 C1183 1.409 . S
C1177 H1169 0.930 . S
C1177 C1175 1.419 . S
C1177 C1178 1.362 . S
C1178 H1170 0.930 . S
C1178 C1177 1.362 . S
C1178 C1181 1.409 . S
C1179 H1171 0.930 . S
C1179 C1180 1.355 . S
C1179 C1181 1.415 . S
C1180 C1179 1.355 . S
C1180 C1182 1.419 . S
C1181 C1176 1.425 . S
C1181 C1178 1.409 . S
C1181 C1179 1.415 . S
C1182 H1172 0.930 1_554 S
C1182 C1180 1.419 . S
C1182 C1183 1.362 . S
C1183 H1173 0.930 . S
C1183 C1176 1.409 . S
C1183 C1182 1.362 . S
H1184 C1190 0.930 . S
H1185 C1193 0.930 . S
H1186 C1194 0.930 . S
H1187 C1195 0.930 . S
H1188 C1198 0.930 . S
H1189 C1199 0.930 1_455 S
C1190 H1184 0.930 . S
C1190 C1191 1.354 1_455 S
C1190 C1192 1.415 1_455 S
C1191 C1190 1.354 1_655 S
C1191 C1193 1.421 . S
C1192 C1190 1.415 1_655 S
C1192 C1197 1.425 . S
C1192 C1199 1.409 . S
C1193 H1185 0.930 . S
C1193 C1191 1.421 . S
C1193 C1194 1.362 . S
C1194 H1186 0.930 . S
C1194 C1193 1.362 . S
C1194 C1197 1.409 . S
C1195 H1187 0.930 . S
C1195 C1196 1.355 . S
C1195 C1197 1.415 . S
C1196 C1195 1.355 . S
C1196 C1198 1.419 . S
C1197 C1192 1.425 . S
C1197 C1194 1.409 . S
C1197 C1195 1.415 . S
C1198 H1188 0.930 . S
C1198 C1196 1.419 . S
C1198 C1199 1.362 . S
C1199 H1189 0.930 1_655 S
C1199 C1192 1.409 . S
C1199 C1198 1.362 . S
H1200 C1206 0.930 . S
H1201 C1209 0.930 . S
H1202 C1210 0.930 . S
H1203 C1211 0.930 . S
H1204 C1214 0.930 . S
H1205 C1215 0.930 1_455 S
C1206 H1200 0.930 . S
C1206 C1207 1.354 1_455 S
C1206 C1208 1.415 1_455 S
C1207 C1206 1.354 1_655 S
C1207 C1209 1.422 . S
C1208 C1206 1.415 1_655 S
C1208 C1213 1.425 . S
C1208 C1215 1.409 . S
C1209 H1201 0.930 . S
C1209 C1207 1.422 . S
C1209 C1210 1.362 . S
C1210 H1202 0.930 . S
C1210 C1209 1.362 . S
C1210 C1213 1.409 . S
C1211 H1203 0.930 . S
C1211 C1212 1.355 . S
C1211 C1213 1.415 . S
C1212 C1211 1.355 . S
C1212 C1214 1.419 . S
C1213 C1208 1.425 . S
C1213 C1210 1.409 . S
C1213 C1211 1.415 . S
C1214 H1204 0.930 . S
C1214 C1212 1.419 . S
C1214 C1215 1.362 . S
C1215 H1205 0.930 1_655 S
C1215 C1208 1.409 . S
C1215 C1214 1.362 . S
H1216 C1222 0.930 . S
H1217 C1225 0.930 . S
H1218 C1226 0.930 . S
H1219 C1227 0.930 . S
H1220 C1230 0.930 1_556 S
H1221 C1231 0.930 . S
C1222 H1216 0.930 . S
C1222 C1223 1.355 . S
C1222 C1224 1.415 . S
C1223 C1222 1.355 . S
C1223 C1225 1.419 . S
C1224 C1222 1.415 . S
C1224 C1229 1.425 . S
C1224 C1231 1.409 . S
C1225 H1217 0.930 . S
C1225 C1223 1.419 . S
C1225 C1226 1.362 . S
C1226 H1218 0.930 . S
C1226 C1225 1.362 . S
C1226 C1229 1.409 . S
C1227 H1219 0.930 . S
C1227 C1228 1.355 . S
C1227 C1229 1.415 . S
C1228 C1227 1.355 . S
C1228 C1230 1.419 . S
C1229 C1224 1.425 . S
C1229 C1226 1.409 . S
C1229 C1227 1.415 . S
C1230 H1220 0.930 1_554 S
C1230 C1228 1.419 . S
C1230 C1231 1.362 . S
C1231 H1221 0.930 . S
C1231 C1224 1.409 . S
C1231 C1230 1.362 . S
H1232 C1238 0.930 . S
H1233 C1241 0.930 1_554 S
H1234 C1242 0.930 . S
H1235 C1243 0.930 . S
H1236 C1246 0.930 . S
H1237 C1247 0.930 . S
C1238 H1232 0.930 . S
C1238 C1239 1.355 . S
C1238 C1240 1.415 . S
C1239 C1238 1.355 . S
C1239 C1241 1.419 . S
C1240 C1238 1.415 . S
C1240 C1245 1.425 . S
C1240 C1247 1.409 . S
C1241 H1233 0.930 1_556 S
C1241 C1239 1.419 . S
C1241 C1242 1.362 . S
C1242 H1234 0.930 . S
C1242 C1241 1.362 . S
C1242 C1245 1.409 . S
C1243 H1235 0.930 . S
C1243 C1244 1.355 . S
C1243 C1245 1.415 . S
C1244 C1243 1.355 . S
C1244 C1246 1.419 . S
C1245 C1240 1.425 . S
C1245 C1242 1.409 . S
C1245 C1243 1.415 . S
C1246 H1236 0.930 . S
C1246 C1244 1.419 . S
C1246 C1247 1.362 . S
C1247 H1237 0.930 . S
C1247 C1240 1.409 . S
C1247 C1246 1.362 . S
H1248 C1254 0.930 . S
H1249 C1257 0.930 . S
H1250 C1258 0.930 . S
H1251 C1259 0.930 . S
H1252 C1262 0.930 . S
H1253 C1263 0.930 . S
C1254 H1248 0.930 . S
C1254 C1255 1.355 . S
C1254 C1256 1.415 . S
C1255 C1254 1.355 . S
C1255 C1257 1.419 . S
C1256 C1254 1.415 . S
C1256 C1261 1.425 . S
C1256 C1263 1.409 . S
C1257 H1249 0.930 . S
C1257 C1255 1.419 . S
C1257 C1258 1.362 . S
C1258 H1250 0.930 . S
C1258 C1257 1.362 . S
C1258 C1261 1.409 . S
C1259 H1251 0.930 . S
C1259 C1260 1.355 . S
C1259 C1261 1.415 . S
C1260 C1259 1.355 . S
C1260 C1262 1.419 . S
C1261 C1256 1.425 . S
C1261 C1258 1.409 . S
C1261 C1259 1.415 . S
C1262 H1252 0.930 . S
C1262 C1260 1.419 . S
C1262 C1263 1.362 . S
C1263 H1253 0.930 . S
C1263 C1256 1.409 . S
C1263 C1262 1.362 . S
H1264 C1270 0.930 . S
H1265 C1273 0.930 . S
H1266 C1274 0.930 . S
H1267 C1275 0.930 . S
H1268 C1278 0.930 . S
H1269 C1279 0.930 . S
C1270 H1264 0.930 . S
C1270 C1271 1.355 . S
C1270 C1272 1.415 . S
C1271 C1270 1.355 . S
C1271 C1273 1.419 . S
C1272 C1270 1.415 . S
C1272 C1277 1.425 . S
C1272 C1279 1.409 . S
C1273 H1265 0.930 . S
C1273 C1271 1.419 . S
C1273 C1274 1.362 . S
C1274 H1266 0.930 . S
C1274 C1273 1.362 . S
C1274 C1277 1.409 . S
C1275 H1267 0.930 . S
C1275 C1276 1.355 . S
C1275 C1277 1.415 . S
C1276 C1275 1.355 . S
C1276 C1278 1.419 . S
C1277 C1272 1.425 . S
C1277 C1274 1.409 . S
C1277 C1275 1.415 . S
C1278 H1268 0.930 . S
C1278 C1276 1.419 . S
C1278 C1279 1.362 . S
C1279 H1269 0.930 . S
C1279 C1272 1.409 . S
C1279 C1278 1.362 . S
C519 C2 2.195 1_556 S
C524 C230 2.201 . S
C535 C34 2.192 . S
C540 C134 2.229 1_554 S
C551 C166 2.232 . S
C556 C66 2.203 . S
C567 C98 2.229 . S
C572 C194 2.191 . S
C583 C356 1.975 . S
C588 C157 1.974 1_654 S
C599 C285 1.986 . S
C604 C4 1.965 1_556 S
C615 C324 1.948 . S
C620 C196 1.963 . S
C631 C68 1.996 . S
C636 C317 1.966 . S
C647 C294 2.230 . S
C652 C386 2.194 . S
C663 C322 2.196 . S
C668 C454 2.199 . S
C679 C422 2.222 1_656 S
C684 C262 2.188 . S
C695 C354 2.218 . S
C700 C482 2.226 1_654 S
C711 C477 1.970 . S
C716 C100 1.946 . S
C727 C388 1.994 . S
C732 C189 1.959 . S
C743 C36 1.946 . S
C748 C484 1.970 1_554 S
C759 C253 1.961 . S
C764 C445 1.995 1_556 S
C775 N434 2.076 . S
C780 N13 2.062 . S
C791 N365 2.155 . S
C796 N45 2.121 . S
C807 N397 2.155 . S
C812 N77 2.126 . S
C823 N333 2.064 . S
C828 N109 2.074 . S
C839 N146 2.077 . S
C844 N493 2.062 . S
C855 N306 2.095 . S
C860 N178 2.059 . S
C871 N205 2.060 . S
C876 N466 2.104 . S
C887 N242 2.059 . S
C892 N274 2.096 . S
C903 N18 1.361 . S
C908 N141 1.350 . S
C919 N50 1.360 . S
C924 N173 1.352 . S
C935 N210 1.345 . S
C940 N82 1.354 . S
C951 N114 1.359 . S
C956 N237 1.346 . S
C967 N338 1.360 . S
C972 N269 1.353 . S
C983 N370 1.349 . S
C988 N301 1.361 . S
C999 N402 1.360 . S
C1004 N461 1.354 . S
C1015 N498 1.359 . S
C1020 N429 1.355 . S
C1031 C6 1.629 . S
C1036 C226 1.663 . S
C1047 C38 1.702 . S
C1052 C130 1.650 . S
C1063 C162 1.632 1_556 S
C1068 C70 1.656 . S
C1079 C198 1.646 . S
C1084 C102 1.700 1_554 S
C1095 C381 1.650 . S
C1100 C132 1.664 1_655 S
C1111 C260 1.622 . S
C1116 C29 1.666 1_655 S
C1127 C349 1.677 1_554 S
C1132 C221 1.629 . S
C1143 C93 1.666 . S
C1148 C292 1.621 1_556 S
C1159 C390 1.648 . S
C1164 C290 1.702 1_556 S
C1175 C450 1.645 . S
C1180 C326 1.638 1_554 S
C1191 C418 1.672 1_655 S
C1196 C258 1.629 . S
C1207 C486 1.674 1_655 S
C1212 C358 1.629 . S
C1223 C452 1.623 . S
C1228 C125 1.624 1_554 S
C1239 C164 1.616 1_556 S
C1244 C413 1.645 . S
C1255 C61 1.623 . S
C1260 C509 1.668 . S
C1271 C420 1.690 . S
C1276 C228 1.648 . S
