# Generated by pormake.
# Topology utb, (3)-cn, num edge types: 1
# Building blocks:
#     Node 0, Type 0, BuildingBlock: OLANEW_clean_sbu_2, # of connection points: 3
#     Node 1, Type 0, BuildingBlock: OLANEW_clean_sbu_2, # of connection points: 3
#     Node 2, Type 0, BuildingBlock: OLANEW_clean_sbu_2, # of connection points: 3
#     Node 3, Type 0, BuildingBlock: OLANEW_clean_sbu_2, # of connection points: 3
#     Node 4, Type 0, BuildingBlock: OLANEW_clean_sbu_2, # of connection points: 3
#     Node 5, Type 0, BuildingBlock: OLANEW_clean_sbu_2, # of connection points: 3
#     Node 6, Type 0, BuildingBlock: OLANEW_clean_sbu_2, # of connection points: 3
#     Node 7, Type 0, BuildingBlock: OLANEW_clean_sbu_2, # of connection points: 3
#     Node 8, Type 0, BuildingBlock: OLANEW_clean_sbu_2, # of connection points: 3
#     Node 9, Type 0, BuildingBlock: OLANEW_clean_sbu_2, # of connection points: 3
#     Node 10, Type 0, BuildingBlock: OLANEW_clean_sbu_2, # of connection points: 3
#     Node 11, Type 0, BuildingBlock: OLANEW_clean_sbu_2, # of connection points: 3
#     Node 12, Type 0, BuildingBlock: OLANEW_clean_sbu_2, # of connection points: 3
#     Node 13, Type 0, BuildingBlock: OLANEW_clean_sbu_2, # of connection points: 3
#     Node 14, Type 0, BuildingBlock: OLANEW_clean_sbu_2, # of connection points: 3
#     Node 15, Type 0, BuildingBlock: OLANEW_clean_sbu_2, # of connection points: 3
#     Node 16, Type 0, BuildingBlock: OLANEW_clean_sbu_2, # of connection points: 3
#     Node 17, Type 0, BuildingBlock: OLANEW_clean_sbu_2, # of connection points: 3
#     Node 18, Type 0, BuildingBlock: OLANEW_clean_sbu_2, # of connection points: 3
#     Node 19, Type 0, BuildingBlock: OLANEW_clean_sbu_2, # of connection points: 3
#     Node 20, Type 0, BuildingBlock: OLANEW_clean_sbu_2, # of connection points: 3
#     Node 21, Type 0, BuildingBlock: OLANEW_clean_sbu_2, # of connection points: 3
#     Node 22, Type 0, BuildingBlock: OLANEW_clean_sbu_2, # of connection points: 3
#     Node 23, Type 0, BuildingBlock: OLANEW_clean_sbu_2, # of connection points: 3
#     Edge 24, Type (0, 0), BuildingBlock: CIFDUS_clean_linker_0, # of connection points: 2
#     Edge 25, Type (0, 0), BuildingBlock: CIFDUS_clean_linker_0, # of connection points: 2
#     Edge 26, Type (0, 0), BuildingBlock: CIFDUS_clean_linker_0, # of connection points: 2
#     Edge 27, Type (0, 0), BuildingBlock: CIFDUS_clean_linker_0, # of connection points: 2
#     Edge 28, Type (0, 0), BuildingBlock: CIFDUS_clean_linker_0, # of connection points: 2
#     Edge 29, Type (0, 0), BuildingBlock: CIFDUS_clean_linker_0, # of connection points: 2
#     Edge 30, Type (0, 0), BuildingBlock: CIFDUS_clean_linker_0, # of connection points: 2
#     Edge 31, Type (0, 0), BuildingBlock: CIFDUS_clean_linker_0, # of connection points: 2
#     Edge 32, Type (0, 0), BuildingBlock: CIFDUS_clean_linker_0, # of connection points: 2
#     Edge 33, Type (0, 0), BuildingBlock: CIFDUS_clean_linker_0, # of connection points: 2
#     Edge 34, Type (0, 0), BuildingBlock: CIFDUS_clean_linker_0, # of connection points: 2
#     Edge 35, Type (0, 0), BuildingBlock: CIFDUS_clean_linker_0, # of connection points: 2
#     Edge 36, Type (0, 0), BuildingBlock: CIFDUS_clean_linker_0, # of connection points: 2
#     Edge 37, Type (0, 0), BuildingBlock: CIFDUS_clean_linker_0, # of connection points: 2
#     Edge 38, Type (0, 0), BuildingBlock: CIFDUS_clean_linker_0, # of connection points: 2
#     Edge 39, Type (0, 0), BuildingBlock: CIFDUS_clean_linker_0, # of connection points: 2
#     Edge 40, Type (0, 0), BuildingBlock: CIFDUS_clean_linker_0, # of connection points: 2
#     Edge 41, Type (0, 0), BuildingBlock: CIFDUS_clean_linker_0, # of connection points: 2
#     Edge 42, Type (0, 0), BuildingBlock: CIFDUS_clean_linker_0, # of connection points: 2
#     Edge 43, Type (0, 0), BuildingBlock: CIFDUS_clean_linker_0, # of connection points: 2
#     Edge 44, Type (0, 0), BuildingBlock: CIFDUS_clean_linker_0, # of connection points: 2
#     Edge 45, Type (0, 0), BuildingBlock: CIFDUS_clean_linker_0, # of connection points: 2
#     Edge 46, Type (0, 0), BuildingBlock: CIFDUS_clean_linker_0, # of connection points: 2
#     Edge 47, Type (0, 0), BuildingBlock: CIFDUS_clean_linker_0, # of connection points: 2
#     Edge 48, Type (0, 0), BuildingBlock: CIFDUS_clean_linker_0, # of connection points: 2
#     Edge 49, Type (0, 0), BuildingBlock: CIFDUS_clean_linker_0, # of connection points: 2
#     Edge 50, Type (0, 0), BuildingBlock: CIFDUS_clean_linker_0, # of connection points: 2
#     Edge 51, Type (0, 0), BuildingBlock: CIFDUS_clean_linker_0, # of connection points: 2
#     Edge 52, Type (0, 0), BuildingBlock: CIFDUS_clean_linker_0, # of connection points: 2
#     Edge 53, Type (0, 0), BuildingBlock: CIFDUS_clean_linker_0, # of connection points: 2
#     Edge 54, Type (0, 0), BuildingBlock: CIFDUS_clean_linker_0, # of connection points: 2
#     Edge 55, Type (0, 0), BuildingBlock: CIFDUS_clean_linker_0, # of connection points: 2
#     Edge 56, Type (0, 0), BuildingBlock: CIFDUS_clean_linker_0, # of connection points: 2
#     Edge 57, Type (0, 0), BuildingBlock: CIFDUS_clean_linker_0, # of connection points: 2
#     Edge 58, Type (0, 0), BuildingBlock: CIFDUS_clean_linker_0, # of connection points: 2
#     Edge 59, Type (0, 0), BuildingBlock: CIFDUS_clean_linker_0, # of connection points: 2
# Relax obj value: 0.066
# Max RMSD: 0.165
# Mean RMSD: 0.058
data_MOF--net-utb--node1-OLANEW_clean_sbu_2--edge1-CIFDUS_clean_linker_0
_symmetry_space_group_name_H-M    P1
_symmetry_Int_Tables_number       1
_symmetry_cell_setting            triclinic
loop_
_symmetry_equiv_pos_as_xyz
'x, y, z'
_cell_length_a     55.96172
_cell_length_b     39.872827
_cell_length_c     48.310964
_cell_angle_alpha  89.943378
_cell_angle_beta   90.574539
_cell_angle_gamma 89.685974
loop_
_atom_site_label
_atom_site_type_symbol
_atom_site_fract_x
_atom_site_fract_y
_atom_site_fract_z
_atom_type_partial_charge
O0 O 0.02337 0.59234 0.18069 0.0
Cd1 Cd 0.044 0.53881 0.17359 0.0
O2 O 0.99141 0.57676 0.15721 0.0
Cd3 Cd 0.01279 0.53873 0.13644 0.0
O4 O 0.046 0.5346 0.11343 0.0
C5 C 0.04866 0.5559 0.09413 0.0
O6 O 0.03084 0.57634 0.08812 0.0
C7 C 0.00185 0.59766 0.17305 0.0
C8 C 0.02266 0.4905 0.20705 0.0
O9 O 0.04044 0.50771 0.21589 0.0
O10 O 0.01535 0.49557 0.18217 0.0
O11 O 0.57197 0.95622 0.17303 0.0
Cd12 Cd 0.59785 0.00517 0.17131 0.0
O13 O 0.59753 0.92063 0.19198 0.0
Cd14 Cd 0.62629 0.95608 0.19991 0.0
O15 O 0.64994 0.95696 0.236 0.0
C16 C 0.66912 0.93975 0.23614 0.0
O17 O 0.67595 0.92525 0.2131 0.0
C18 C 0.57699 0.92694 0.1818 0.0
C19 C 0.56945 0.05895 0.15362 0.0
O20 O 0.58021 0.04005 0.13622 0.0
O21 O 0.57276 0.05309 0.17947 0.0
O22 O 0.89487 0.75416 0.21141 0.0
Cd23 Cd 0.87586 0.80502 0.22939 0.0
O24 O 0.92798 0.78128 0.2026 0.0
Cd25 Cd 0.90547 0.82497 0.19456 0.0
O26 O 0.87947 0.82324 0.16069 0.0
C27 C 0.88824 0.81861 0.13682 0.0
O28 O 0.91158 0.81906 0.13416 0.0
C29 C 0.91697 0.75372 0.20552 0.0
C30 C 0.90405 0.82771 0.27356 0.0
O31 O 0.88906 0.80388 0.27667 0.0
O32 O 0.90527 0.84175 0.24977 0.0
O33 O 0.46337 0.78961 0.2052 0.0
Cd34 Cd 0.42879 0.75276 0.20814 0.0
O35 O 0.485 0.76088 0.23527 0.0
Cd36 Cd 0.45191 0.74011 0.2512 0.0
O37 O 0.41886 0.76378 0.26504 0.0
C38 C 0.42092 0.79541 0.26729 0.0
O39 O 0.44181 0.80894 0.26233 0.0
C40 C 0.48338 0.7839 0.21707 0.0
C41 C 0.42935 0.71475 0.15994 0.0
O42 O 0.41664 0.7415 0.16151 0.0
O43 O 0.44092 0.70521 0.1816 0.0
O44 O 0.07047 0.4669 0.68852 0.0
Cd45 Cd 0.08763 0.51991 0.6735 0.0
O46 O 0.09113 0.4677 0.72736 0.0
Cd47 Cd 0.1031 0.44643 0.76699 0.0
O48 O 0.11383 0.42723 0.80764 0.0
C49 C 0.13474 0.41537 0.81134 0.0
O50 O 0.14947 0.41447 0.79033 0.0
C51 C 0.07571 0.45369 0.71175 0.0
C52 C 0.05125 0.56721 0.66573 0.0
O53 O 0.05758 0.54759 0.64609 0.0
O54 O 0.06236 0.56476 0.68898 0.0
O55 O 0.48158 0.20676 0.72338 0.0
Cd56 Cd 0.46258 0.25734 0.70477 0.0
O57 O 0.51256 0.21376 0.69644 0.0
Cd58 Cd 0.48933 0.24041 0.66732 0.0
O59 O 0.4578 0.22202 0.64526 0.0
C60 C 0.45799 0.1903 0.64255 0.0
O61 O 0.47669 0.17343 0.65174 0.0
C62 C 0.50293 0.19922 0.71693 0.0
C63 C 0.48054 0.30954 0.73694 0.0
O64 O 0.46001 0.29693 0.74193 0.0
O65 O 0.49206 0.29851 0.71601 0.0
O66 O 0.98989 0.26926 0.71287 0.0
Cd67 Cd 0.96264 0.22242 0.71911 0.0
O68 O 0.99243 0.28468 0.75652 0.0
Cd69 Cd 0.96487 0.25118 0.77182 0.0
O70 O 0.93555 0.24843 0.80116 0.0
C71 C 0.9409 0.24907 0.82679 0.0
O72 O 0.96357 0.24838 0.83416 0.0
C73 C 0.99868 0.28816 0.73148 0.0
C74 C 0.95552 0.19389 0.66704 0.0
O75 O 0.94095 0.21592 0.67642 0.0
O76 O 0.97296 0.18457 0.68268 0.0
O77 O 0.54658 0.03266 0.82751 0.0
Cd78 Cd 0.56315 0.97971 0.84446 0.0
O79 O 0.56494 0.02403 0.78826 0.0
Cd80 Cd 0.57158 0.03554 0.7447 0.0
O81 O 0.57677 0.05369 0.70257 0.0
C82 C 0.59221 0.07618 0.69783 0.0
O83 O 0.60498 0.088 0.71856 0.0
C84 C 0.55135 0.04214 0.80309 0.0
C85 C 0.54325 0.9259 0.81564 0.0
O86 O 0.53322 0.93791 0.83723 0.0
O87 O 0.56283 0.93922 0.80774 0.0
O88 O 0.28322 0.00025 0.34913 0.0
Cd89 Cd 0.28411 0.98074 0.30131 0.0
O90 O 0.24935 0.97378 0.35397 0.0
Cd91 Cd 0.21619 0.96177 0.37511 0.0
O92 O 0.17775 0.957 0.38103 0.0
C93 C 0.16503 0.9835 0.38116 0.0
O94 O 0.17561 0.01274 0.37918 0.0
C95 C 0.2658 0.99188 0.36424 0.0
C96 C 0.32283 0.93797 0.29265 0.0
O97 O 0.32475 0.96979 0.28963 0.0
O98 O 0.30247 0.9263 0.29968 0.0
O99 O 0.94159 0.28919 0.36852 0.0
Cd100 Cd 0.93414 0.34952 0.36484 0.0
O101 O 0.90319 0.28315 0.37536 0.0
Cd102 Cd 0.87176 0.2544 0.38732 0.0
O103 O 0.84121 0.23049 0.40686 0.0
C104 C 0.84237 0.2248 0.43273 0.0
O105 O 0.86191 0.23302 0.44637 0.0
C106 C 0.92389 0.2702 0.37309 0.0
C107 C 0.96338 0.38237 0.32712 0.0
O108 O 0.96966 0.37918 0.35259 0.0
O109 O 0.94344 0.36955 0.31942 0.0
O110 O 0.68516 0.82322 0.52934 0.0
Cd111 Cd 0.69219 0.76402 0.5397 0.0
O112 O 0.68773 0.81495 0.48447 0.0
Cd113 Cd 0.68892 0.83562 0.4426 0.0
O114 O 0.68268 0.86648 0.40591 0.0
C115 C 0.69764 0.86884 0.3864 0.0
O116 O 0.71782 0.85193 0.38801 0.0
C117 C 0.68471 0.8347 0.5048 0.0
C118 C 0.73799 0.75737 0.56213 0.0
O119 O 0.73418 0.75426 0.53606 0.0
O120 O 0.71998 0.76276 0.57773 0.0
O121 O 0.00829 0.89302 0.46994 0.0
Cd122 Cd 0.02634 0.91676 0.42849 0.0
O123 O 0.00351 0.94016 0.49277 0.0
Cd124 Cd 0.02632 0.9659 0.46348 0.0
O125 O 0.06224 0.98153 0.45275 0.0
C126 C 0.06822 0.01215 0.45432 0.0
O127 O 0.0519 0.03471 0.46041 0.0
C128 C 0.00046 0.9087 0.49091 0.0
C129 C 0.99609 0.90315 0.3838 0.0
O130 O 0.0109 0.8811 0.39297 0.0
O131 O 0.99589 0.9321 0.39526 0.0
O132 O 0.29097 0.06136 0.52917 0.0
Cd133 Cd 0.29246 0.07886 0.57757 0.0
O134 O 0.26607 0.10292 0.52061 0.0
Cd135 Cd 0.23938 0.12466 0.49261 0.0
O136 O 0.2039 0.11924 0.47425 0.0
C137 C 0.19837 0.08986 0.46635 0.0
O138 O 0.21464 0.06603 0.46791 0.0
C139 C 0.27782 0.07761 0.51226 0.0
C140 C 0.33335 0.11552 0.59044 0.0
O141 O 0.33328 0.08342 0.59195 0.0
O142 O 0.31404 0.13036 0.58267 0.0
O143 O 0.96048 0.06249 0.37681 0.0
Cd144 Cd 0.97371 0.00441 0.38223 0.0
O145 O 0.97418 0.06707 0.41917 0.0
Cd146 Cd 0.98058 0.09253 0.45855 0.0
O147 O 0.98365 0.10945 0.50137 0.0
C148 C 0.96573 0.12276 0.51311 0.0
O149 O 0.94579 0.12682 0.49888 0.0
C150 C 0.96486 0.08069 0.3978 0.0
C151 C 0.02337 0.00347 0.38307 0.0
O152 O 0.01179 0.99661 0.36081 0.0
O153 O 0.01166 0.0101 0.40504 0.0
O154 O 0.68913 0.05474 0.51961 0.0
Cd155 Cd 0.68423 0.11572 0.51907 0.0
O156 O 0.66286 0.04537 0.4864 0.0
Cd157 Cd 0.64851 0.09561 0.49278 0.0
O158 O 0.63067 0.11077 0.53069 0.0
C159 C 0.61137 0.09552 0.53599 0.0
O160 O 0.6023 0.07546 0.5171 0.0
C161 C 0.67887 0.03448 0.50305 0.0
C162 C 0.72198 0.14538 0.49098 0.0
O163 O 0.72319 0.14005 0.51713 0.0
O164 O 0.70278 0.13698 0.47814 0.0
O165 O 0.93476 0.80014 0.62118 0.0
Cd166 Cd 0.9175 0.76101 0.65427 0.0
O167 O 0.92724 0.84652 0.64413 0.0
Cd168 Cd 0.90201 0.81882 0.66936 0.0
O169 O 0.86634 0.79787 0.66401 0.0
C170 C 0.86201 0.78749 0.63961 0.0
O171 O 0.87918 0.78862 0.62128 0.0
C172 C 0.93686 0.83173 0.62374 0.0
C173 C 0.95127 0.71102 0.66544 0.0
O174 O 0.93665 0.70847 0.64498 0.0
O175 O 0.94955 0.73687 0.68106 0.0
O176 O 0.45766 0.29188 0.08044 0.0
Cd177 Cd 0.43805 0.24941 0.10848 0.0
O178 O 0.42436 0.31767 0.06804 0.0
Cd179 Cd 0.39916 0.28555 0.08961 0.0
O180 O 0.36073 0.277 0.09143 0.0
C181 C 0.34837 0.28835 0.11128 0.0
O182 O 0.35937 0.30246 0.13238 0.0
C183 C 0.44699 0.31517 0.06718 0.0
C184 C 0.47199 0.20278 0.12699 0.0
O185 O 0.46184 0.19982 0.10323 0.0
O186 O 0.46583 0.22758 0.14226 0.0
O187 O 0.49286 0.66437 0.7429 0.0
Cd188 Cd 0.48876 0.70532 0.70562 0.0
O189 O 0.45665 0.6785 0.75566 0.0
Cd190 Cd 0.42927 0.68009 0.78763 0.0
O191 O 0.40787 0.68187 0.82516 0.0
C192 C 0.41832 0.67831 0.84848 0.0
O193 O 0.44159 0.67378 0.84918 0.0
C194 C 0.47572 0.66167 0.75978 0.0
C195 C 0.50605 0.76611 0.72586 0.0
O196 O 0.48422 0.75762 0.72932 0.0
O197 O 0.51954 0.74629 0.71207 0.0
O198 O 0.19329 0.45325 0.08191 0.0
Cd199 Cd 0.17707 0.39693 0.08756 0.0
O200 O 0.18463 0.45741 0.03746 0.0
Cd201 Cd 0.16501 0.41102 0.03075 0.0
O202 O 0.14817 0.39427 0.99228 0.0
C203 C 0.1621 0.39072 0.97186 0.0
O204 O 0.18522 0.39365 0.97614 0.0
C205 C 0.19402 0.4695 0.05929 0.0
C206 C 0.21552 0.3564 0.10357 0.0
O207 O 0.20913 0.3588 0.07809 0.0
O208 O 0.20306 0.37204 0.1216 0.0
O209 O 0.51961 0.43416 0.94886 0.0
Cd210 Cd 0.53924 0.45772 0.90892 0.0
O211 O 0.4881 0.46684 0.94295 0.0
Cd212 Cd 0.50699 0.50005 0.9144 0.0
O213 O 0.5372 0.53334 0.907 0.0
C214 C 0.55387 0.5277 0.88995 0.0
O215 O 0.55211 0.50239 0.87269 0.0
C216 C 0.49846 0.44255 0.95546 0.0
C217 C 0.52023 0.42797 0.86137 0.0
O218 O 0.54033 0.41815 0.87153 0.0
O219 O 0.50939 0.45225 0.87329 0.0
O220 O 0.80203 0.40264 0.95454 0.0
Cd221 Cd 0.80043 0.34127 0.95568 0.0
O222 O 0.76316 0.40238 0.95956 0.0
Cd223 Cd 0.72842 0.4275 0.95974 0.0
O224 O 0.69121 0.44314 0.95499 0.0
C225 C 0.68426 0.4732 0.95863 0.0
O226 O 0.7 0.49614 0.9655 0.0
C227 C 0.78247 0.41862 0.95701 0.0
C228 C 0.83176 0.31178 0.91823 0.0
O229 O 0.81038 0.31973 0.91095 0.0
O230 O 0.83828 0.31775 0.94325 0.0
O231 O 0.49293 0.57342 0.92063 0.0
Cd232 Cd 0.50065 0.55215 0.96747 0.0
O233 O 0.51366 0.61873 0.93034 0.0
Cd234 Cd 0.50851 0.61328 0.97473 0.0
O235 O 0.49702 0.61865 0.01744 0.0
C236 C 0.47655 0.63159 0.02147 0.0
O237 O 0.46329 0.64001 -7e-05 0.0
C238 C 0.50338 0.59994 0.91269 0.0
C239 C 0.54951 0.5375 0.97082 0.0
O240 O 0.53437 0.51493 0.96393 0.0
O241 O 0.54148 0.5665 0.97738 0.0
O242 O 0.28023 0.64343 0.03021 0.0
Cd243 Cd 0.30177 0.69589 0.02373 0.0
O244 O 0.2477 0.66791 0.01397 0.0
Cd245 Cd 0.20914 0.66491 0.00657 0.0
O246 O 0.17239 0.64811 0.0119 0.0
C247 C 0.16893 0.6264 0.03071 0.0
O248 O 0.18722 0.61603 0.04573 0.0
C249 C 0.2583 0.64193 0.02333 0.0
C250 C 0.32779 0.69428 0.97479 0.0
O251 O 0.33728 0.68499 0.99783 0.0
O252 O 0.30605 0.70455 0.97495 0.0
O253 O 0.77816 0.63355 0.99491 0.0
Cd254 Cd 0.77318 0.69451 0.99112 0.0
O255 O 0.75888 0.63062 0.95525 0.0
Cd256 Cd 0.73898 0.60026 0.92556 0.0
O257 O 0.70716 0.57511 0.90985 0.0
C258 C 0.68741 0.58781 0.91745 0.0
O259 O 0.68776 0.61457 0.9333 0.0
C260 C 0.76932 0.61608 0.97542 0.0
C261 C 0.79747 0.73025 0.03216 0.0
O262 O 0.80738 0.72342 0.00902 0.0
O263 O 0.7761 0.71994 0.03598 0.0
H264 H 0.95398 0.60901 0.17458 0.0
H265 H 0.02198 0.65593 0.19084 0.0
H266 H 0.00175 0.70834 0.20267 0.0
H267 H 0.96477 0.7414 0.20695 0.0
H268 H 0.89672 0.69366 0.19282 0.0
H269 H 0.91692 0.64102 0.18174 0.0
C270 C 0.96435 0.6307 0.18078 0.0
C271 C 0.98942 0.62868 0.18164 0.0
C272 C 0.9526 0.66062 0.18792 0.0
C273 C 0.00263 0.65684 0.19005 0.0
C274 C 0.9911 0.68685 0.19674 0.0
C275 C 0.95439 0.71943 0.20153 0.0
C276 C 0.92932 0.72148 0.20053 0.0
C277 C 0.9661 0.68911 0.19552 0.0
C278 C 0.91606 0.69272 0.1938 0.0
C279 C 0.92759 0.66263 0.18736 0.0
H280 H 0.57859 0.86692 0.20855 0.0
H281 H 0.53304 0.92872 0.15663 0.0
H282 H 0.50059 0.88859 0.16158 0.0
H283 H 0.48433 0.8382 0.18316 0.0
H284 H 0.52928 0.77746 0.2366 0.0
H285 H 0.56285 0.81498 0.2284 0.0
C286 C 0.56167 0.87145 0.19802 0.0
C287 C 0.55825 0.9009 0.18233 0.0
C288 C 0.54292 0.84862 0.2014 0.0
C289 C 0.53615 0.90637 0.16893 0.0
C290 C 0.51756 0.88346 0.17179 0.0
C291 C 0.50151 0.83295 0.19287 0.0
C292 C 0.50422 0.80515 0.21062 0.0
C293 C 0.52061 0.85485 0.18839 0.0
C294 C 0.52664 0.79877 0.22297 0.0
C295 C 0.54585 0.82022 0.2183 0.0
H296 H 0.06132 0.40255 0.67901 0.0
H297 H 0.06131 0.43671 0.76366 0.0
H298 H 0.03929 0.38694 0.77761 0.0
H299 H 0.01797 0.33553 0.76529 0.0
H300 H 0.0163 0.30243 0.6802 0.0
H301 H 0.04095 0.34999 0.66689 0.0
C302 C 0.05664 0.39888 0.70054 0.0
C303 C 0.06349 0.42277 0.72041 0.0
C304 C 0.0435 0.37056 0.70828 0.0
C305 C 0.05714 0.41799 0.74818 0.0
C306 C 0.04422 0.38978 0.75609 0.0
C307 C 0.02314 0.3385 0.74386 0.0
C308 C 0.01517 0.31548 0.72378 0.0
C309 C 0.03711 0.36607 0.73628 0.0
C310 C 0.02209 0.3198 0.6961 0.0
C311 C 0.03617 0.34703 0.68843 0.0
H312 H 0.48599 0.15929 0.75785 0.0
H313 H 0.54952 0.17984 0.71086 0.0
H314 H 0.57064 0.13452 0.73485 0.0
H315 H 0.57066 0.08776 0.76805 0.0
H316 H 0.50668 0.06559 0.81337 0.0
H317 H 0.48634 0.11352 0.79179 0.0
C318 C 0.50449 0.15398 0.75291 0.0
C319 C 0.51609 0.17285 0.73246 0.0
C320 C 0.51645 0.12759 0.7665 0.0
C321 C 0.5401 0.16562 0.7264 0.0
C322 C 0.5522 0.13967 0.74009 0.0
C323 C 0.55213 0.09303 0.77274 0.0
C324 C 0.53991 0.07259 0.79155 0.0
C325 C 0.54045 0.12019 0.75987 0.0
C326 C 0.51635 0.08084 0.79872 0.0
C327 C 0.5047 0.10811 0.7863 0.0
H328 H 0.27654 0.05351 0.38352 0.0
H329 H 0.25324 0.95571 0.40953 0.0
H330 H 0.25537 0.97327 0.4581 0.0
H331 H 0.26546 0.01616 0.49324 0.0
H332 H 0.28501 0.1154 0.46675 0.0
H333 H 0.28286 0.09775 0.41824 0.0
C334 C 0.27178 0.0362 0.39988 0.0
C335 C 0.26486 0.0034 0.39316 0.0
C336 C 0.27257 0.0467 0.42759 0.0
C337 C 0.25846 0.98118 0.41435 0.0
C338 C 0.25983 0.99114 0.44207 0.0
C339 C 0.26922 0.03377 0.47674 0.0
C340 C 0.27568 0.06681 0.48327 0.0
C341 C 0.26714 0.02373 0.44894 0.0
C342 C 0.2801 0.08978 0.46196 0.0
C343 C 0.27887 0.07972 0.43432 0.0
H344 H 0.9272 0.11192 0.37298 0.0
H345 H 0.99152 0.13074 0.42018 0.0
H346 H 0.98443 0.19114 0.41693 0.0
H347 H 0.96055 0.23877 0.39939 0.0
H348 H 0.89554 0.22014 0.35348 0.0
H349 H 0.90218 0.1596 0.35746 0.0
C350 C 0.93954 0.12933 0.38267 0.0
C351 C 0.95969 0.117 0.39705 0.0
C352 C 0.93525 0.16403 0.38086 0.0
C353 C 0.97558 0.13967 0.40955 0.0
C354 C 0.97167 0.1742 0.40747 0.0
C355 C 0.94784 0.22137 0.39035 0.0
C356 C 0.92754 0.23373 0.37631 0.0
C357 C 0.95165 0.18667 0.39303 0.0
C358 C 0.9111 0.21109 0.36479 0.0
C359 C 0.91497 0.17652 0.3669 0.0
H360 H 0.70589 0.88486 0.53303 0.0
H361 H 0.65608 0.86551 0.46643 0.0
H362 H 0.65098 0.92582 0.45867 0.0
H363 H 0.65973 0.98402 0.472 0.0
H364 H 0.7098 0.00306 0.5387 0.0
H365 H 0.71586 0.94299 0.54511 0.0
C366 C 0.69394 0.89396 0.51684 0.0
C367 C 0.68156 0.87098 0.50013 0.0
C368 C 0.69117 0.92858 0.5125 0.0
C369 C 0.66615 0.88287 0.47916 0.0
C370 C 0.66313 0.91729 0.47484 0.0
C371 C 0.67212 0.97506 0.48777 0.0
C372 C 0.68419 0.9981 0.5049 0.0
C373 C 0.6755 0.9404 0.49147 0.0
C374 C 0.70023 0.98597 0.52521 0.0
C375 C 0.70367 0.95158 0.529 0.0
H376 H 0.95423 0.8082 0.57533 0.0
H377 H 0.94712 0.89895 0.6233 0.0
H378 H 0.96596 0.93094 0.58629 0.0
H379 H 0.98403 0.9331 0.54002 0.0
H380 H 0.99042 0.84193 0.49234 0.0
H381 H 0.97211 0.81026 0.52957 0.0
C382 C 0.95689 0.83496 0.57784 0.0
C383 C 0.94931 0.85111 0.60211 0.0
C384 C 0.96747 0.85319 0.55644 0.0
C385 C 0.95281 0.88585 0.60486 0.0
C386 C 0.96353 0.90418 0.58367 0.0
C387 C 0.98135 0.90633 0.53773 0.0
C388 C 0.98859 0.88998 0.51336 0.0
C389 C 0.97081 0.88812 0.5593 0.0
C390 C 0.98503 0.85523 0.51082 0.0
C391 C 0.97458 0.83703 0.53213 0.0
H392 H 0.51678 0.39373 0.98892 0.0
H393 H 0.45174 0.44863 0.97082 0.0
H394 H 0.43044 0.41516 0.00487 0.0
H395 H 0.42984 0.3687 0.03809 0.0
H396 H 0.49486 0.31367 0.05611 0.0
H397 H 0.51664 0.3491 0.02386 0.0
C398 C 0.49796 0.39849 0.99245 0.0
C399 C 0.48584 0.42349 0.97713 0.0
C400 C 0.48581 0.37913 0.01202 0.0
C401 C 0.4615 0.42948 0.98222 0.0
C402 C 0.44929 0.41032 0.00168 0.0
C403 C 0.44881 0.36452 0.03513 0.0
C404 C 0.46064 0.33836 0.04939 0.0
C405 C 0.4612 0.38484 0.01645 0.0
C406 C 0.48527 0.33354 0.04539 0.0
C407 C 0.49774 0.35374 0.02688 0.0
H408 H 0.4696 0.58578 0.87371 0.0
H409 H 0.5369 0.63618 0.88586 0.0
H410 H 0.53557 0.65641 0.83815 0.0
H411 H 0.51367 0.66378 0.79429 0.0
H412 H 0.44474 0.61785 0.78328 0.0
H413 H 0.44831 0.59149 0.82901 0.0
C414 C 0.48409 0.60082 0.86573 0.0
C415 C 0.50327 0.60961 0.88322 0.0
C416 C 0.48284 0.61323 0.83853 0.0
C417 C 0.52185 0.62936 0.8728 0.0
C418 C 0.52112 0.64089 0.84554 0.0
C419 C 0.49966 0.64752 0.8018 0.0
C420 C 0.47898 0.64268 0.78568 0.0
C421 C 0.50148 0.63357 0.82841 0.0
C422 C 0.46075 0.62197 0.79558 0.0
C423 C 0.4628 0.60695 0.82165 0.0
H424 H 0.19515 0.51234 0.01573 0.0
H425 H 0.22173 0.49944 0.09929 0.0
H426 H 0.24459 0.5513 0.09533 0.0
H427 H 0.25749 0.60012 0.06769 0.0
H428 H 0.22993 0.61299 0.98471 0.0
H429 H 0.20725 0.56101 0.98869 0.0
C430 C 0.2059 0.52082 0.03314 0.0
C431 C 0.20678 0.50191 0.05773 0.0
C432 C 0.21899 0.55052 0.03071 0.0
C433 C 0.22069 0.5135 0.08012 0.0
C434 C 0.23386 0.54309 0.07784 0.0
C435 C 0.24653 0.59136 0.05055 0.0
C436 C 0.24514 0.61026 0.02603 0.0
C437 C 0.23326 0.5617 0.05317 0.0
C438 C 0.23095 0.5989 0.00388 0.0
C439 C 0.21807 0.5692 0.00612 0.0
H440 H 0.76097 0.45997 0.99343 0.0
H441 H 0.80368 0.45945 0.91972 0.0
H442 H 0.80278 0.52092 0.91842 0.0
H443 H 0.78964 0.57481 0.93836 0.0
H444 H 0.75075 0.5755 0.01483 0.0
H445 H 0.75025 0.51394 0.01517 0.0
C446 C 0.76999 0.47346 0.97709 0.0
C447 C 0.78213 0.45552 0.95649 0.0
C448 C 0.7701 0.50869 0.9771 0.0
C449 C 0.79419 0.47297 0.9357 0.0
C450 C 0.79365 0.50801 0.93496 0.0
C451 C 0.7812 0.56131 0.95511 0.0
C452 C 0.77018 0.57927 0.97649 0.0
C453 C 0.78167 0.52611 0.95555 0.0
C454 C 0.7594 0.56191 0.99827 0.0
C455 C 0.75906 0.52684 0.99839 0.0
H456 H 0.15693 0.57402 0.06356 0.0
H457 H 0.12633 0.65129 0.0113 0.0
H458 H 0.08619 0.63415 0.02454 0.0
H459 H 0.06003 0.60023 0.05367 0.0
H460 H 0.09064 0.52336 0.10636 0.0
H461 H 0.13053 0.53711 0.08991 0.0
C462 C 0.14147 0.58703 0.05496 0.0
C463 C 0.14462 0.61422 0.03679 0.0
C464 C 0.11846 0.57716 0.06275 0.0
C465 C 0.12441 0.63043 0.02547 0.0
C466 C 0.10145 0.62068 0.03306 0.0
C467 C 0.07538 0.58621 0.06137 0.0
C468 C 0.07235 0.56105 0.08146 0.0
C469 C 0.09829 0.59452 0.05209 0.0
C470 C 0.09244 0.54296 0.09099 0.0
C471 C 0.11529 0.5509 0.08168 0.0
H472 H 0.49581 0.1574 0.09566 0.0
H473 H 0.48974 0.19384 0.17939 0.0
H474 H 0.51984 0.15316 0.19495 0.0
H475 H 0.54726 0.10639 0.1849 0.0
H476 H 0.55397 0.07116 0.10084 0.0
H477 H 0.5244 0.11241 0.0853 0.0
C478 C 0.50104 0.15642 0.11733 0.0
C479 C 0.49041 0.17843 0.13637 0.0
C480 C 0.51854 0.13326 0.12607 0.0
C481 C 0.49761 0.17713 0.16431 0.0
C482 C 0.51482 0.15386 0.17323 0.0
C483 C 0.54234 0.10785 0.16316 0.0
C484 C 0.55276 0.08561 0.1441 0.0
C485 C 0.52534 0.13171 0.15431 0.0
C486 C 0.54627 0.08797 0.11597 0.0
C487 C 0.52928 0.11149 0.10705 0.0
H488 H 0.84143 0.80012 0.13812 0.0
H489 H 0.901 0.81151 0.08286 0.0
H490 H 0.87782 0.78637 0.04532 0.0
H491 H 0.84169 0.75777 0.02899 0.0
H492 H 0.78232 0.74525 0.08435 0.0
H493 H 0.80438 0.7742 0.12098 0.0
C494 C 0.84923 0.79755 0.11777 0.0
C495 C 0.87297 0.80756 0.11338 0.0
C496 C 0.83593 0.78252 0.09634 0.0
C497 C 0.88281 0.80391 0.08688 0.0
C498 C 0.86959 0.78942 0.06539 0.0
C499 C 0.83351 0.76147 0.04903 0.0
C500 C 0.81046 0.7491 0.05396 0.0
C501 C 0.84632 0.77802 0.07004 0.0
C502 C 0.80009 0.75436 0.08 0.0
C503 C 0.81269 0.77094 0.10098 0.0
H504 H 0.46257 0.66752 0.14721 0.0
H505 H 0.40306 0.72322 0.11252 0.0
H506 H 0.41126 0.69989 0.06684 0.0
H507 H 0.43741 0.66774 0.03617 0.0
H508 H 0.49817 0.61434 0.07048 0.0
H509 H 0.48729 0.63258 0.11693 0.0
C510 C 0.45116 0.67416 0.12975 0.0
C511 C 0.43231 0.6972 0.13323 0.0
C512 C 0.45634 0.66132 0.10343 0.0
C513 C 0.41776 0.70566 0.11036 0.0
C514 C 0.42248 0.6924 0.08422 0.0
C515 C 0.44815 0.65978 0.05382 0.0
C516 C 0.46869 0.63994 0.04981 0.0
C517 C 0.44206 0.67086 0.0804 0.0
C518 C 0.48237 0.62982 0.07294 0.0
C519 C 0.47617 0.64024 0.09953 0.0
H520 H 0.1872 0.38384 0.92439 0.0
H521 H 0.11534 0.39506 0.95486 0.0
H522 H 0.10029 0.40156 0.90752 0.0
H523 H 0.10805 0.40918 0.85791 0.0
H524 H 0.18004 0.39844 0.8277 0.0
H525 H 0.19445 0.38656 0.87452 0.0
C526 C 0.1682 0.38728 0.9207 0.0
C527 C 0.15248 0.38934 0.9432 0.0
C528 C 0.1597 0.39145 0.89347 0.0
C529 C 0.12788 0.39351 0.93797 0.0
C530 C 0.11925 0.39741 0.91089 0.0
C531 C 0.12687 0.40399 0.86152 0.0
C532 C 0.14297 0.40514 0.83935 0.0
C533 C 0.13508 0.39728 0.88855 0.0
C534 C 0.16725 0.39795 0.84437 0.0
C535 C 0.17554 0.39118 0.87117 0.0
H536 H 0.45788 0.3507 0.77313 0.0
H537 H 0.52784 0.32291 0.74391 0.0
H538 H 0.54645 0.35795 0.77942 0.0
H539 H 0.54285 0.39348 0.82082 0.0
H540 H 0.47294 0.42376 0.84846 0.0
H541 H 0.4543 0.39093 0.81149 0.0
C542 C 0.47719 0.35262 0.77438 0.0
C543 C 0.49146 0.33404 0.75611 0.0
C544 C 0.48778 0.37308 0.79467 0.0
C545 C 0.51645 0.33702 0.75773 0.0
C546 C 0.52712 0.35691 0.77812 0.0
C547 C 0.52355 0.39303 0.81859 0.0
C548 C 0.50927 0.41065 0.83747 0.0
C549 C 0.51297 0.37455 0.79703 0.0
C550 C 0.4843 0.41034 0.83415 0.0
C551 C 0.47363 0.3915 0.81309 0.0
H552 H 0.89346 0.26107 0.81787 0.0
H553 H 0.94657 0.25163 0.88291 0.0
H554 H 0.91714 0.26863 0.91712 0.0
H555 H 0.87716 0.28994 0.92817 0.0
H556 H 0.82419 0.30026 0.86311 0.0
H557 H 0.85273 0.27909 0.82938 0.0
C558 C 0.89855 0.26233 0.83956 0.0
C559 C 0.92226 0.25532 0.84774 0.0
C560 C 0.88161 0.27259 0.85913 0.0
C561 C 0.92849 0.25705 0.87597 0.0
C562 C 0.91168 0.26687 0.89558 0.0
C563 C 0.8718 0.28739 0.90664 0.0
C564 C 0.84863 0.29697 0.89816 0.0
C565 C 0.88833 0.27535 0.88732 0.0
C566 C 0.84194 0.29325 0.8702 0.0
C567 C 0.85826 0.28114 0.85087 0.0
H568 H 0.48503 0.80532 0.76464 0.0
H569 H 0.54889 0.79608 0.71583 0.0
H570 H 0.56574 0.84536 0.73868 0.0
H571 H 0.56287 0.88996 0.77361 0.0
H572 H 0.49953 0.89772 0.82355 0.0
H573 H 0.48198 0.85014 0.79916 0.0
C574 C 0.50255 0.81424 0.75882 0.0
C575 C 0.51566 0.79708 0.73852 0.0
C576 C 0.5123 0.84222 0.77237 0.0
C577 C 0.53843 0.80881 0.73141 0.0
C578 C 0.5481 0.83697 0.74449 0.0
C579 C 0.54519 0.88132 0.7791 0.0
C580 C 0.53256 0.89737 0.80041 0.0
C581 C 0.53528 0.85368 0.76518 0.0
C582 C 0.5097 0.88577 0.8073 0.0
C583 C 0.49962 0.85857 0.79334 0.0
H584 H 0.0544 0.95156 0.38059 0.0
H585 H 0.05032 0.05922 0.38598 0.0
H586 H 0.09403 0.06283 0.38512 0.0
H587 H 0.13323 0.0352 0.38327 0.0
H588 H 0.13747 0.92709 0.38069 0.0
H589 H 0.09392 0.92371 0.38041 0.0
C590 C 0.06323 0.97569 0.38153 0.0
C591 C 0.04951 0.00512 0.38312 0.0
C592 C 0.0883 0.97745 0.38167 0.0
C593 C 0.0608 0.03635 0.38464 0.0
C594 C 0.08569 0.03839 0.38408 0.0
C595 C 0.12466 0.01088 0.38255 0.0
C596 C 0.13863 0.98146 0.38187 0.0
C597 C 0.09962 0.00908 0.38264 0.0
C598 C 0.12718 0.95015 0.38125 0.0
C599 C 0.10226 0.94817 0.38103 0.0
H600 H 0.79917 0.20657 0.41111 0.0
H601 H 0.83963 0.20945 0.48765 0.0
H602 H 0.80597 0.18547 0.51233 0.0
H603 H 0.76509 0.16372 0.51234 0.0
H604 H 0.72453 0.16065 0.43591 0.0
H605 H 0.75818 0.18472 0.41112 0.0
C606 C 0.80065 0.20192 0.43318 0.0
C607 C 0.82193 0.20982 0.44746 0.0
C608 C 0.78119 0.18814 0.44732 0.0
C609 C 0.82349 0.20363 0.47609 0.0
C610 C 0.80424 0.18992 0.49027 0.0
C611 C 0.76357 0.16835 0.49026 0.0
C612 C 0.74229 0.1604 0.47604 0.0
C613 C 0.783 0.18212 0.47611 0.0
C614 C 0.74068 0.16653 0.44741 0.0
C615 C 0.75993 0.18029 0.43319 0.0
H616 H 0.75201 0.76842 0.6155 0.0
H617 H 0.77933 0.74527 0.5344 0.0
H618 H 0.82017 0.74988 0.55199 0.0
H619 H 0.84798 0.76462 0.58928 0.0
H620 H 0.82102 0.78926 0.67021 0.0
H621 H 0.78017 0.77954 0.65382 0.0
C622 C 0.7669 0.76402 0.60174 0.0
C623 C 0.7626 0.75677 0.57362 0.0
C624 C 0.79039 0.76712 0.6119 0.0
C625 C 0.7821 0.75106 0.5561 0.0
C626 C 0.80548 0.75374 0.56612 0.0
C627 C 0.83322 0.76759 0.60346 0.0
C628 C 0.83755 0.77797 0.63086 0.0
C629 C 0.80981 0.76241 0.59382 0.0
C630 C 0.81819 0.78142 0.64897 0.0
C631 C 0.79481 0.77596 0.6396 0.0
H632 H 0.18007 0.02819 0.45589 0.0
H633 H 0.16018 0.13272 0.46158 0.0
H634 H 0.11809 0.11795 0.45621 0.0
H635 H 0.0868 0.07504 0.45396 0.0
H636 H 0.10686 0.97044 0.45004 0.0
H637 H 0.14899 0.98564 0.45072 0.0
C638 C 0.16658 0.04783 0.45566 0.0
C639 C 0.17327 0.08148 0.45944 0.0
C640 C 0.14239 0.03912 0.45322 0.0
C641 C 0.15552 0.10658 0.45891 0.0
C642 C 0.13143 0.09816 0.45592 0.0
C643 C 0.10039 0.05557 0.4531 0.0
C644 C 0.09365 0.02166 0.45227 0.0
C645 C 0.12463 0.06445 0.45375 0.0
C646 C 0.1115 0.99675 0.45093 0.0
C647 C 0.13563 0.0054 0.45134 0.0
H648 H 0.56701 0.06024 0.65129 0.0
H649 H 0.6277 0.11742 0.67988 0.0
H650 H 0.63747 0.13171 0.63218 0.0
H651 H 0.63091 0.12372 0.58228 0.0
H652 H 0.57061 0.0656 0.55383 0.0
H653 H 0.5584 0.05645 0.60154 0.0
C654 C 0.58229 0.07603 0.64713 0.0
C655 C 0.5968 0.08731 0.66912 0.0
C656 C 0.5879 0.08399 0.61965 0.0
C657 C 0.61633 0.10813 0.66335 0.0
C658 C 0.62195 0.11632 0.63606 0.0
C659 C 0.61487 0.10951 0.58647 0.0
C660 C 0.60187 0.09506 0.56449 0.0
C661 C 0.60816 0.1038 0.61402 0.0
C662 C 0.58108 0.07681 0.57034 0.0
C663 C 0.57411 0.07143 0.59765 0.0
H664 H 0.96462 0.66071 0.63095 0.0
H665 H 0.98052 0.70425 0.71075 0.0
H666 H 0.01265 0.66335 0.71804 0.0
H667 H 0.03667 0.61583 0.7014 0.0
H668 H 0.02142 0.57348 0.62097 0.0
H669 H 0.98865 0.61339 0.61429 0.0
C670 C 0.97502 0.66115 0.65002 0.0
C671 C 0.97013 0.68545 0.6703 0.0
C672 C 0.99367 0.63788 0.65391 0.0
C673 C 0.98391 0.68582 0.69479 0.0
C674 C 0.0023 0.66246 0.69897 0.0
C675 C 0.02617 0.6153 0.68242 0.0
C676 C 0.03152 0.59169 0.66173 0.0
C677 C 0.00743 0.63849 0.67861 0.0
C678 C 0.01776 0.59143 0.63722 0.0
C679 C 0.99897 0.61422 0.63338 0.0
H680 H 0.41501 0.21633 0.62543 0.0
H681 H 0.45405 0.12311 0.63409 0.0
H682 H 0.41924 0.09204 0.61812 0.0
H683 H 0.37735 0.09086 0.60333 0.0
H684 H 0.3379 0.18364 0.59453 0.0
H685 H 0.37322 0.21525 0.60884 0.0
C686 C 0.41594 0.18925 0.62365 0.0
C687 C 0.43711 0.17213 0.63108 0.0
C688 C 0.39575 0.17138 0.61453 0.0
C689 C 0.438 0.137 0.62861 0.0
C690 C 0.41807 0.11913 0.6195 0.0
C691 C 0.37646 0.11801 0.60445 0.0
C692 C 0.35497 0.13482 0.598 0.0
C693 C 0.39679 0.136 0.61269 0.0
C694 C 0.35421 0.17003 0.59942 0.0
C695 C 0.3744 0.18815 0.60763 0.0
H696 H 0.93198 0.15564 0.54303 0.0
H697 H 0.00286 0.11279 0.54939 0.0
H698 H 0.0054 0.12956 0.59788 0.0
H699 H 0.98792 0.15738 0.63821 0.0
H700 H 0.91755 0.20171 0.63159 0.0
H701 H 0.91435 0.1831 0.58353 0.0
C702 C 0.94797 0.14991 0.55501 0.0
C703 C 0.9672 0.13302 0.54253 0.0
C704 C 0.9494 0.1598 0.58288 0.0
C705 C 0.98781 0.12586 0.55841 0.0
C706 C 0.98927 0.13538 0.58618 0.0
C707 C 0.97179 0.16275 0.62633 0.0
C708 C 0.95299 0.18085 0.6385 0.0
C709 C 0.97022 0.15245 0.5986 0.0
C710 C 0.9323 0.18783 0.62273 0.0
C711 C 0.93046 0.17725 0.59523 0.0
H712 H 0.72093 0.86991 0.33713 0.0
H713 H 0.66055 0.91278 0.37966 0.0
H714 H 0.64819 0.94207 0.33754 0.0
H715 H 0.65234 0.95134 0.28782 0.0
H716 H 0.71137 0.90623 0.24437 0.0
H717 H 0.72667 0.88254 0.28778 0.0
C718 C 0.70522 0.88594 0.33727 0.0
C719 C 0.69155 0.88882 0.36145 0.0
C720 C 0.69794 0.9023 0.31279 0.0
C721 C 0.67126 0.90979 0.36127 0.0
C722 C 0.66418 0.92661 0.33719 0.0
C723 C 0.66879 0.93681 0.28786 0.0
C724 C 0.68058 0.93036 0.26282 0.0
C725 C 0.67708 0.92246 0.3127 0.0
C726 C 0.70185 0.91143 0.26332 0.0
C727 C 0.71056 0.89775 0.28812 0.0
H728 H 0.97576 0.84313 0.37409 0.0
H729 H 0.97787 0.94481 0.34389 0.0
H730 H 0.9497 0.93047 0.30659 0.0
H731 H 0.92465 0.88853 0.28244 0.0
H732 H 0.92003 0.78835 0.31571 0.0
H733 H 0.94886 0.80255 0.35206 0.0
C734 C 0.9701 0.86207 0.35923 0.0
C735 C 0.97906 0.89481 0.36138 0.0
C736 C 0.95337 0.85392 0.33853 0.0
C737 C 0.97125 0.91938 0.34247 0.0
C738 C 0.95517 0.91119 0.32119 0.0
C739 C 0.92994 0.86991 0.29773 0.0
C740 C 0.92036 0.83741 0.29636 0.0
C741 C 0.94613 0.87849 0.319 0.0
C742 C 0.9271 0.81358 0.31643 0.0
C743 C 0.94366 0.82163 0.33714 0.0
H744 H 0.41993 0.86321 0.26895 0.0
H745 H 0.37533 0.77637 0.28025 0.0
H746 H 0.34105 0.81288 0.28959 0.0
H747 H 0.32367 0.86959 0.29364 0.0
H748 H 0.36861 0.95595 0.28136 0.0
H749 H 0.40285 0.91936 0.2733 0.0
C750 C 0.40275 0.85216 0.27356 0.0
C751 C 0.40021 0.81709 0.2739 0.0
C752 C 0.38316 0.87323 0.27865 0.0
C753 C 0.37778 0.8033 0.27984 0.0
C754 C 0.35817 0.82416 0.28516 0.0
C755 C 0.34097 0.8804 0.28925 0.0
C756 C 0.34354 0.91548 0.28807 0.0
C757 C 0.36063 0.85917 0.28447 0.0
C758 C 0.36608 0.92906 0.28233 0.0
C759 C 0.3857 0.90816 0.27773 0.0
H760 H 0.03385 0.47463 0.26045 0.0
H761 H 0.98336 0.45278 0.19485 0.0
H762 H 0.96116 0.41634 0.22588 0.0
H763 H 0.955 0.3927 0.27218 0.0
H764 H 0.00531 0.41485 0.33789 0.0
H765 H 0.02868 0.44899 0.30622 0.0
C766 C 0.01808 0.46173 0.25287 0.0
C767 C 0.01025 0.46659 0.22539 0.0
C768 C 0.00529 0.44094 0.27087 0.0
C769 C 0.9898 0.44958 0.21591 0.0
C770 C 0.97704 0.42875 0.23366 0.0
C771 C 0.97114 0.40483 0.27956 0.0
C772 C 0.9783 0.40134 0.30742 0.0
C773 C 0.98446 0.42457 0.26127 0.0
C774 C 0.99934 0.41715 0.31657 0.0
C775 C 0.01271 0.43674 0.29848 0.0
H776 H 0.57186 0.48199 0.95106 0.0
H777 H 0.58559 0.57872 0.98777 0.0
H778 H 0.62857 0.56836 0.98549 0.0
H779 H 0.66224 0.53102 0.97457 0.0
H780 H 0.64832 0.43397 0.93849 0.0
H781 H 0.60548 0.44556 0.93867 0.0
C782 C 0.58424 0.5007 0.95877 0.0
C783 C 0.57551 0.53083 0.96998 0.0
C784 C 0.60893 0.49463 0.95739 0.0
C785 C 0.59182 0.5551 0.97937 0.0
C786 C 0.61642 0.54926 0.97801 0.0
C787 C 0.64985 0.51245 0.96666 0.0
C788 C 0.65848 0.48152 0.95686 0.0
C789 C 0.62517 0.519 0.96725 0.0
C790 C 0.64216 0.45785 0.94646 0.0
C791 C 0.61764 0.46441 0.94658 0.0
H792 H 0.37138 0.69462 0.85471 0.0
H793 H 0.43448 0.66471 0.90081 0.0
H794 H 0.41208 0.66695 0.94386 0.0
H795 H 0.37462 0.6775 0.96848 0.0
H796 H 0.31165 0.7081 0.92246 0.0
H797 H 0.33399 0.70551 0.87937 0.0
C798 C 0.38023 0.68853 0.87416 0.0
C799 C 0.40458 0.67951 0.8745 0.0
C800 C 0.36728 0.69003 0.89889 0.0
C801 C 0.41578 0.67182 0.89992 0.0
C802 C 0.40298 0.67307 0.92458 0.0
C803 C 0.36577 0.6836 0.94903 0.0
C804 C 0.34148 0.69296 0.94873 0.0
C805 C 0.37873 0.68218 0.92432 0.0
C806 C 0.33033 0.70086 0.92333 0.0
C807 C 0.34308 0.69935 0.89865 0.0
H808 H 0.31662 0.31273 0.14872 0.0
H809 H 0.32098 0.27115 0.06641 0.0
H810 H 0.27917 0.28548 0.0578 0.0
H811 H 0.24296 0.31592 0.0715 0.0
H812 H 0.23856 0.35785 0.15364 0.0
H813 H 0.27865 0.33693 0.16449 0.0
C814 C 0.30834 0.30631 0.12905 0.0
C815 C 0.32208 0.29142 0.1081 0.0
C816 C 0.28431 0.31496 0.12407 0.0
C817 C 0.31094 0.2829 0.08286 0.0
C818 C 0.28701 0.2912 0.07784 0.0
C819 C 0.25063 0.32005 0.09192 0.0
C820 C 0.23793 0.33885 0.11157 0.0
C821 C 0.27377 0.30821 0.09796 0.0
C822 C 0.24799 0.34362 0.13805 0.0
C823 C 0.27098 0.33178 0.14425 0.0
H824 H 0.64301 0.61319 0.92569 0.0
H825 H 0.68007 0.5285 0.89028 0.0
H826 H 0.64189 0.50358 0.87682 0.0
H827 H 0.59799 0.5052 0.87623 0.0
H828 H 0.56111 0.58899 0.91317 0.0
H829 H 0.5993 0.61528 0.92444 0.0
C830 C 0.64278 0.58936 0.91489 0.0
C831 C 0.66437 0.57283 0.90889 0.0
C832 C 0.62081 0.57523 0.9072 0.0
C833 C 0.66371 0.54189 0.89499 0.0
C834 C 0.64189 0.52762 0.88727 0.0
C835 C 0.59832 0.52954 0.88624 0.0
C836 C 0.57678 0.54537 0.89354 0.0
C837 C 0.62034 0.54408 0.89328 0.0
C838 C 0.57747 0.5765 0.9071 0.0
C839 C 0.59929 0.59144 0.91367 0.0
loop_
_geom_bond_atom_site_label_1
_geom_bond_atom_site_label_2
_geom_bond_distance
_geom_bond_site_symmetry_2
_ccdc_geom_bond_type
O0 Cd1 2.300 . S
O0 C7 1.275 . S
Cd1 O0 2.300 . S
Cd1 O9 2.381 . S
Cd1 O10 2.378 . S
O2 Cd3 2.385 1_655 S
O2 C7 1.255 . S
Cd3 O2 2.385 1_455 S
Cd3 O4 2.317 . S
O4 Cd3 2.317 . S
O4 C5 1.232 . S
C5 O4 1.232 . S
C5 O6 1.218 . S
O6 C5 1.218 . S
C7 O0 1.275 . S
C7 O2 1.255 . S
C8 O9 1.258 . S
C8 O10 1.256 . S
O9 Cd1 2.381 . S
O9 C8 1.258 . S
O10 Cd1 2.378 . S
O10 C8 1.256 . S
O11 Cd12 2.300 1_565 S
O11 C18 1.275 . S
Cd12 O11 2.300 1_545 S
Cd12 O20 2.381 . S
Cd12 O21 2.378 . S
O13 Cd14 2.385 . S
O13 C18 1.255 . S
Cd14 O13 2.385 . S
Cd14 O15 2.317 . S
O15 Cd14 2.317 . S
O15 C16 1.232 . S
C16 O15 1.232 . S
C16 O17 1.218 . S
O17 C16 1.218 . S
C18 O11 1.275 . S
C18 O13 1.255 . S
C19 O20 1.258 . S
C19 O21 1.256 . S
O20 Cd12 2.381 . S
O20 C19 1.258 . S
O21 Cd12 2.378 . S
O21 C19 1.256 . S
O22 Cd23 2.300 . S
O22 C29 1.275 . S
Cd23 O22 2.300 . S
Cd23 O31 2.381 . S
Cd23 O32 2.378 . S
O24 Cd25 2.385 . S
O24 C29 1.255 . S
Cd25 O24 2.385 . S
Cd25 O26 2.317 . S
O26 Cd25 2.317 . S
O26 C27 1.232 . S
C27 O26 1.232 . S
C27 O28 1.218 . S
O28 C27 1.218 . S
C29 O22 1.275 . S
C29 O24 1.255 . S
C30 O31 1.258 . S
C30 O32 1.256 . S
O31 Cd23 2.381 . S
O31 C30 1.258 . S
O32 Cd23 2.378 . S
O32 C30 1.256 . S
O33 Cd34 2.300 . S
O33 C40 1.275 . S
Cd34 O33 2.300 . S
Cd34 O42 2.381 . S
Cd34 O43 2.378 . S
O35 Cd36 2.385 . S
O35 C40 1.255 . S
Cd36 O35 2.385 . S
Cd36 O37 2.317 . S
O37 Cd36 2.317 . S
O37 C38 1.232 . S
C38 O37 1.232 . S
C38 O39 1.218 . S
O39 C38 1.218 . S
C40 O33 1.275 . S
C40 O35 1.255 . S
C41 O42 1.258 . S
C41 O43 1.256 . S
O42 Cd34 2.381 . S
O42 C41 1.258 . S
O43 Cd34 2.378 . S
O43 C41 1.256 . S
O44 Cd45 2.300 . S
O44 C51 1.275 . S
Cd45 O44 2.300 . S
Cd45 O53 2.381 . S
Cd45 O54 2.378 . S
O46 Cd47 2.385 . S
O46 C51 1.255 . S
Cd47 O46 2.385 . S
Cd47 O48 2.317 . S
O48 Cd47 2.317 . S
O48 C49 1.232 . S
C49 O48 1.232 . S
C49 O50 1.218 . S
O50 C49 1.218 . S
C51 O44 1.275 . S
C51 O46 1.255 . S
C52 O53 1.258 . S
C52 O54 1.256 . S
O53 Cd45 2.381 . S
O53 C52 1.258 . S
O54 Cd45 2.378 . S
O54 C52 1.256 . S
O55 Cd56 2.300 . S
O55 C62 1.275 . S
Cd56 O55 2.300 . S
Cd56 O64 2.381 . S
Cd56 O65 2.378 . S
O57 Cd58 2.385 . S
O57 C62 1.255 . S
Cd58 O57 2.385 . S
Cd58 O59 2.317 . S
O59 Cd58 2.317 . S
O59 C60 1.232 . S
C60 O59 1.232 . S
C60 O61 1.218 . S
O61 C60 1.218 . S
C62 O55 1.275 . S
C62 O57 1.255 . S
C63 O64 1.258 . S
C63 O65 1.256 . S
O64 Cd56 2.381 . S
O64 C63 1.258 . S
O65 Cd56 2.378 . S
O65 C63 1.256 . S
O66 Cd67 2.300 . S
O66 C73 1.275 . S
Cd67 O66 2.300 . S
Cd67 O75 2.381 . S
Cd67 O76 2.378 . S
O68 Cd69 2.385 . S
O68 C73 1.255 . S
Cd69 O68 2.385 . S
Cd69 O70 2.317 . S
O70 Cd69 2.317 . S
O70 C71 1.232 . S
C71 O70 1.232 . S
C71 O72 1.218 . S
O72 C71 1.218 . S
C73 O66 1.275 . S
C73 O68 1.255 . S
C74 O75 1.258 . S
C74 O76 1.256 . S
O75 Cd67 2.381 . S
O75 C74 1.258 . S
O76 Cd67 2.378 . S
O76 C74 1.256 . S
O77 Cd78 2.300 1_545 S
O77 C84 1.275 . S
Cd78 O77 2.300 1_565 S
Cd78 O86 2.381 . S
Cd78 O87 2.378 . S
O79 Cd80 2.385 . S
O79 C84 1.255 . S
Cd80 O79 2.385 . S
Cd80 O81 2.317 . S
O81 Cd80 2.317 . S
O81 C82 1.232 . S
C82 O81 1.232 . S
C82 O83 1.218 . S
O83 C82 1.218 . S
C84 O77 1.275 . S
C84 O79 1.255 . S
C85 O86 1.258 . S
C85 O87 1.256 . S
O86 Cd78 2.381 . S
O86 C85 1.258 . S
O87 Cd78 2.378 . S
O87 C85 1.256 . S
O88 Cd89 2.300 1_545 S
O88 C95 1.275 . S
Cd89 O88 2.300 1_565 S
Cd89 O97 2.381 . S
Cd89 O98 2.378 . S
O90 Cd91 2.385 . S
O90 C95 1.255 1_565 S
Cd91 O90 2.385 . S
Cd91 O92 2.317 . S
O92 Cd91 2.317 . S
O92 C93 1.232 1_565 S
C93 O92 1.232 1_545 S
C93 O94 1.218 . S
O94 C93 1.218 . S
C95 O88 1.275 . S
C95 O90 1.255 1_545 S
C96 O97 1.258 . S
C96 O98 1.256 . S
O97 Cd89 2.381 . S
O97 C96 1.258 . S
O98 Cd89 2.378 . S
O98 C96 1.256 . S
O99 Cd100 2.300 . S
O99 C106 1.275 . S
Cd100 O99 2.300 . S
Cd100 O108 2.381 . S
Cd100 O109 2.378 . S
O101 Cd102 2.385 . S
O101 C106 1.255 . S
Cd102 O101 2.385 . S
Cd102 O103 2.317 . S
O103 Cd102 2.317 . S
O103 C104 1.232 . S
C104 O103 1.232 . S
C104 O105 1.218 . S
O105 C104 1.218 . S
C106 O99 1.275 . S
C106 O101 1.255 . S
C107 O108 1.258 . S
C107 O109 1.256 . S
O108 Cd100 2.381 . S
O108 C107 1.258 . S
O109 Cd100 2.378 . S
O109 C107 1.256 . S
O110 Cd111 2.300 . S
O110 C117 1.275 . S
Cd111 O110 2.300 . S
Cd111 O119 2.381 . S
Cd111 O120 2.378 . S
O112 Cd113 2.385 . S
O112 C117 1.255 . S
Cd113 O112 2.385 . S
Cd113 O114 2.317 . S
O114 Cd113 2.317 . S
O114 C115 1.232 . S
C115 O114 1.232 . S
C115 O116 1.218 . S
O116 C115 1.218 . S
C117 O110 1.275 . S
C117 O112 1.255 . S
C118 O119 1.258 . S
C118 O120 1.256 . S
O119 Cd111 2.381 . S
O119 C118 1.258 . S
O120 Cd111 2.378 . S
O120 C118 1.256 . S
O121 Cd122 2.300 1_655 S
O121 C128 1.273 1_655 S
Cd122 O121 2.300 1_455 S
Cd122 O130 2.381 1_455 S
Cd122 O131 2.378 . S
O123 Cd124 2.385 1_565 S
O123 C128 1.258 . S
Cd124 O123 2.385 1_545 S
Cd124 O125 2.318 . S
O125 Cd124 2.318 . S
O125 C126 1.231 1_545 S
C126 O125 1.231 1_565 S
C126 O127 1.218 1_565 S
O127 C126 1.218 1_545 S
C128 O121 1.273 1_455 S
C128 O123 1.258 . S
C129 O130 1.258 . S
C129 O131 1.256 1_655 S
O130 Cd122 2.381 1_655 S
O130 C129 1.258 . S
O131 Cd122 2.378 . S
O131 C129 1.256 1_455 S
O132 Cd133 2.300 1_565 S
O132 C139 1.275 . S
Cd133 O132 2.300 1_545 S
Cd133 O141 2.381 . S
Cd133 O142 2.378 . S
O134 Cd135 2.385 . S
O134 C139 1.255 1_545 S
Cd135 O134 2.385 . S
Cd135 O136 2.317 . S
O136 Cd135 2.317 . S
O136 C137 1.232 1_545 S
C137 O136 1.232 1_565 S
C137 O138 1.218 . S
O138 C137 1.218 . S
C139 O132 1.275 . S
C139 O134 1.255 1_565 S
C140 O141 1.258 . S
C140 O142 1.256 . S
O141 Cd133 2.381 . S
O141 C140 1.258 . S
O142 Cd133 2.378 . S
O142 C140 1.256 . S
O143 Cd144 2.300 . S
O143 C150 1.275 . S
Cd144 O143 2.300 . S
Cd144 O152 2.381 . S
Cd144 O153 2.378 . S
O145 Cd146 2.385 . S
O145 C150 1.255 . S
Cd146 O145 2.385 . S
Cd146 O147 2.317 . S
O147 Cd146 2.317 . S
O147 C148 1.232 . S
C148 O147 1.232 . S
C148 O149 1.218 1_455 S
O149 C148 1.218 1_655 S
C150 O143 1.275 . S
C150 O145 1.255 . S
C151 O152 1.258 . S
C151 O153 1.256 . S
O152 Cd144 2.381 . S
O152 C151 1.258 . S
O153 Cd144 2.378 . S
O153 C151 1.256 . S
O154 Cd155 2.300 . S
O154 C161 1.275 . S
Cd155 O154 2.300 . S
Cd155 O163 2.381 . S
Cd155 O164 2.378 . S
O156 Cd157 2.385 . S
O156 C161 1.255 . S
Cd157 O156 2.385 . S
Cd157 O158 2.317 . S
O158 Cd157 2.317 . S
O158 C159 1.232 . S
C159 O158 1.232 . S
C159 O160 1.218 . S
O160 C159 1.218 . S
C161 O154 1.275 . S
C161 O156 1.255 . S
C162 O163 1.258 . S
C162 O164 1.256 . S
O163 Cd155 2.381 . S
O163 C162 1.258 . S
O164 Cd155 2.378 . S
O164 C162 1.256 . S
O165 Cd166 2.300 . S
O165 C172 1.275 . S
Cd166 O165 2.300 . S
Cd166 O174 2.381 . S
Cd166 O175 2.378 . S
O167 Cd168 2.385 . S
O167 C172 1.255 . S
Cd168 O167 2.385 . S
Cd168 O169 2.317 . S
O169 Cd168 2.317 . S
O169 C170 1.232 . S
C170 O169 1.232 . S
C170 O171 1.218 . S
O171 C170 1.218 . S
C172 O165 1.275 . S
C172 O167 1.255 . S
C173 O174 1.258 . S
C173 O175 1.256 . S
O174 Cd166 2.381 . S
O174 C173 1.258 . S
O175 Cd166 2.378 . S
O175 C173 1.256 . S
O176 Cd177 2.300 . S
O176 C183 1.275 . S
Cd177 O176 2.300 . S
Cd177 O185 2.381 . S
Cd177 O186 2.378 . S
O178 Cd179 2.385 . S
O178 C183 1.255 . S
Cd179 O178 2.385 . S
Cd179 O180 2.317 . S
O180 Cd179 2.317 . S
O180 C181 1.232 . S
C181 O180 1.232 . S
C181 O182 1.218 . S
O182 C181 1.218 . S
C183 O176 1.275 . S
C183 O178 1.255 . S
C184 O185 1.258 . S
C184 O186 1.256 . S
O185 Cd177 2.381 . S
O185 C184 1.258 . S
O186 Cd177 2.378 . S
O186 C184 1.256 . S
O187 Cd188 2.300 . S
O187 C194 1.275 . S
Cd188 O187 2.300 . S
Cd188 O196 2.381 . S
Cd188 O197 2.378 . S
O189 Cd190 2.385 . S
O189 C194 1.255 . S
Cd190 O189 2.385 . S
Cd190 O191 2.317 . S
O191 Cd190 2.317 . S
O191 C192 1.232 . S
C192 O191 1.232 . S
C192 O193 1.218 . S
O193 C192 1.218 . S
C194 O187 1.275 . S
C194 O189 1.255 . S
C195 O196 1.258 . S
C195 O197 1.256 . S
O196 Cd188 2.381 . S
O196 C195 1.258 . S
O197 Cd188 2.378 . S
O197 C195 1.256 . S
O198 Cd199 2.300 . S
O198 C205 1.275 . S
Cd199 O198 2.300 . S
Cd199 O207 2.381 . S
Cd199 O208 2.378 . S
O200 Cd201 2.385 . S
O200 C205 1.255 . S
Cd201 O200 2.385 . S
Cd201 O202 2.317 1_554 S
O202 Cd201 2.317 1_556 S
O202 C203 1.232 . S
C203 O202 1.232 . S
C203 O204 1.218 . S
O204 C203 1.218 . S
C205 O198 1.275 . S
C205 O200 1.255 . S
C206 O207 1.258 . S
C206 O208 1.256 . S
O207 Cd199 2.381 . S
O207 C206 1.258 . S
O208 Cd199 2.378 . S
O208 C206 1.256 . S
O209 Cd210 2.300 . S
O209 C216 1.275 . S
Cd210 O209 2.300 . S
Cd210 O218 2.381 . S
Cd210 O219 2.378 . S
O211 Cd212 2.385 . S
O211 C216 1.255 . S
Cd212 O211 2.385 . S
Cd212 O213 2.317 . S
O213 Cd212 2.317 . S
O213 C214 1.232 . S
C214 O213 1.232 . S
C214 O215 1.218 . S
O215 C214 1.218 . S
C216 O209 1.275 . S
C216 O211 1.255 . S
C217 O218 1.258 . S
C217 O219 1.256 . S
O218 Cd210 2.381 . S
O218 C217 1.258 . S
O219 Cd210 2.378 . S
O219 C217 1.256 . S
O220 Cd221 2.300 . S
O220 C227 1.275 . S
Cd221 O220 2.300 . S
Cd221 O229 2.381 . S
Cd221 O230 2.378 . S
O222 Cd223 2.385 . S
O222 C227 1.255 . S
Cd223 O222 2.385 . S
Cd223 O224 2.317 . S
O224 Cd223 2.317 . S
O224 C225 1.232 . S
C225 O224 1.232 . S
C225 O226 1.218 . S
O226 C225 1.218 . S
C227 O220 1.275 . S
C227 O222 1.255 . S
C228 O229 1.258 . S
C228 O230 1.256 . S
O229 Cd221 2.381 . S
O229 C228 1.258 . S
O230 Cd221 2.378 . S
O230 C228 1.256 . S
O231 Cd232 2.300 . S
O231 C238 1.275 . S
Cd232 O231 2.300 . S
Cd232 O240 2.381 . S
Cd232 O241 2.378 . S
O233 Cd234 2.385 1_556 S
O233 C238 1.255 . S
Cd234 O233 2.385 1_554 S
Cd234 O235 2.317 . S
O235 Cd234 2.317 . S
O235 C236 1.232 . S
C236 O235 1.232 . S
C236 O237 1.218 . S
O237 C236 1.218 . S
C238 O231 1.275 . S
C238 O233 1.255 . S
C239 O240 1.258 . S
C239 O241 1.256 . S
O240 Cd232 2.381 . S
O240 C239 1.258 . S
O241 Cd232 2.378 . S
O241 C239 1.256 . S
O242 Cd243 2.300 . S
O242 C249 1.275 . S
Cd243 O242 2.300 . S
Cd243 O251 2.381 . S
Cd243 O252 2.378 . S
O244 Cd245 2.385 . S
O244 C249 1.255 . S
Cd245 O244 2.385 . S
Cd245 O246 2.317 1_556 S
O246 Cd245 2.317 1_554 S
O246 C247 1.232 . S
C247 O246 1.232 . S
C247 O248 1.218 . S
O248 C247 1.218 . S
C249 O242 1.275 . S
C249 O244 1.255 . S
C250 O251 1.258 . S
C250 O252 1.256 . S
O251 Cd243 2.381 . S
O251 C250 1.258 . S
O252 Cd243 2.378 . S
O252 C250 1.256 . S
O253 Cd254 2.299 1_554 S
O253 C260 1.264 1_554 S
Cd254 O253 2.299 1_556 S
Cd254 O262 2.381 1_556 S
Cd254 O263 2.378 1_556 S
O255 Cd256 2.385 . S
O255 C260 1.255 . S
Cd256 O255 2.385 . S
Cd256 O257 2.317 . S
O257 Cd256 2.317 . S
O257 C258 1.232 . S
C258 O257 1.232 . S
C258 O259 1.218 . S
O259 C258 1.218 . S
C260 O253 1.264 1_556 S
C260 O255 1.255 . S
C261 O262 1.258 . S
C261 O263 1.256 . S
O262 Cd254 2.381 1_554 S
O262 C261 1.258 . S
O263 Cd254 2.378 1_554 S
O263 C261 1.256 . S
H264 C270 0.930 . S
H265 C273 0.930 . S
H266 C274 0.930 . S
H267 C275 0.930 . S
H268 C278 0.930 . S
H269 C279 0.930 . S
C270 H264 0.930 . S
C270 C271 1.355 . S
C270 C272 1.415 . S
C271 C270 1.355 . S
C271 C273 1.419 1_655 S
C272 C270 1.415 . S
C272 C277 1.425 . S
C272 C279 1.409 . S
C273 H265 0.930 . S
C273 C271 1.419 1_455 S
C273 C274 1.362 . S
C274 H266 0.930 . S
C274 C273 1.362 . S
C274 C277 1.409 1_455 S
C275 H267 0.930 . S
C275 C276 1.355 . S
C275 C277 1.415 . S
C276 C275 1.355 . S
C276 C278 1.419 . S
C277 C272 1.425 . S
C277 C274 1.409 1_655 S
C277 C275 1.415 . S
C278 H268 0.930 . S
C278 C276 1.419 . S
C278 C279 1.362 . S
C279 H269 0.930 . S
C279 C272 1.409 . S
C279 C278 1.362 . S
H280 C286 0.930 . S
H281 C289 0.930 . S
H282 C290 0.930 . S
H283 C291 0.930 . S
H284 C294 0.930 . S
H285 C295 0.930 . S
C286 H280 0.930 . S
C286 C287 1.355 . S
C286 C288 1.415 . S
C287 C286 1.355 . S
C287 C289 1.419 . S
C288 C286 1.415 . S
C288 C293 1.425 . S
C288 C295 1.409 . S
C289 H281 0.930 . S
C289 C287 1.419 . S
C289 C290 1.362 . S
C290 H282 0.930 . S
C290 C289 1.362 . S
C290 C293 1.409 . S
C291 H283 0.930 . S
C291 C292 1.355 . S
C291 C293 1.415 . S
C292 C291 1.355 . S
C292 C294 1.419 . S
C293 C288 1.425 . S
C293 C290 1.409 . S
C293 C291 1.415 . S
C294 H284 0.930 . S
C294 C292 1.419 . S
C294 C295 1.362 . S
C295 H285 0.930 . S
C295 C288 1.409 . S
C295 C294 1.362 . S
H296 C302 0.930 . S
H297 C305 0.930 . S
H298 C306 0.930 1_655 S
H299 C307 0.930 . S
H300 C310 0.930 . S
H301 C311 0.930 . S
C302 H296 0.930 . S
C302 C303 1.355 . S
C302 C304 1.415 . S
C303 C302 1.355 . S
C303 C305 1.419 . S
C304 C302 1.415 . S
C304 C309 1.425 . S
C304 C311 1.409 . S
C305 H297 0.930 . S
C305 C303 1.419 . S
C305 C306 1.362 . S
C306 H298 0.930 1_455 S
C306 C305 1.362 . S
C306 C309 1.409 . S
C307 H299 0.930 . S
C307 C308 1.355 . S
C307 C309 1.415 1_655 S
C308 C307 1.355 . S
C308 C310 1.419 1_655 S
C309 C304 1.425 . S
C309 C306 1.409 . S
C309 C307 1.415 1_455 S
C310 H300 0.930 . S
C310 C308 1.419 1_455 S
C310 C311 1.362 . S
C311 H301 0.930 . S
C311 C304 1.409 . S
C311 C310 1.362 . S
H312 C318 0.930 . S
H313 C321 0.930 . S
H314 C322 0.930 . S
H315 C323 0.930 . S
H316 C326 0.930 . S
H317 C327 0.930 . S
C318 H312 0.930 . S
C318 C319 1.355 . S
C318 C320 1.415 . S
C319 C318 1.355 . S
C319 C321 1.419 . S
C320 C318 1.415 . S
C320 C325 1.425 . S
C320 C327 1.409 . S
C321 H313 0.930 . S
C321 C319 1.419 . S
C321 C322 1.362 . S
C322 H314 0.930 . S
C322 C321 1.362 . S
C322 C325 1.409 . S
C323 H315 0.930 . S
C323 C324 1.355 . S
C323 C325 1.415 . S
C324 C323 1.355 . S
C324 C326 1.419 . S
C325 C320 1.425 . S
C325 C322 1.409 . S
C325 C323 1.415 . S
C326 H316 0.930 . S
C326 C324 1.419 . S
C326 C327 1.362 . S
C327 H317 0.930 . S
C327 C320 1.409 . S
C327 C326 1.362 . S
H328 C334 0.930 . S
H329 C337 0.930 . S
H330 C338 0.930 . S
H331 C339 0.930 . S
H332 C342 0.930 . S
H333 C343 0.930 . S
C334 H328 0.930 . S
C334 C335 1.355 . S
C334 C336 1.415 . S
C335 C334 1.355 . S
C335 C337 1.419 1_545 S
C336 C334 1.415 . S
C336 C341 1.425 1_545 S
C336 C343 1.409 . S
C337 H329 0.930 . S
C337 C335 1.419 1_565 S
C337 C338 1.362 . S
C338 H330 0.930 . S
C338 C337 1.362 . S
C338 C341 1.409 . S
C339 H331 0.930 . S
C339 C340 1.355 . S
C339 C341 1.415 . S
C340 C339 1.355 . S
C340 C342 1.419 1_565 S
C341 C336 1.425 1_565 S
C341 C338 1.409 . S
C341 C339 1.415 . S
C342 H332 0.930 . S
C342 C340 1.419 1_545 S
C342 C343 1.362 . S
C343 H333 0.930 . S
C343 C336 1.409 . S
C343 C342 1.362 . S
H344 C350 0.930 . S
H345 C353 0.955 . S
H346 C354 0.930 . S
H347 C355 0.930 . S
H348 C358 0.930 . S
H349 C359 0.930 . S
C350 H344 0.930 . S
C350 C351 1.355 . S
C350 C352 1.415 . S
C351 C350 1.355 . S
C351 C353 1.419 . S
C352 C350 1.415 . S
C352 C357 1.425 . S
C352 C359 1.409 . S
C353 H345 0.955 . S
C353 C351 1.419 . S
C353 C354 1.362 . S
C354 H346 0.930 . S
C354 C353 1.362 . S
C354 C357 1.409 . S
C355 H347 0.930 . S
C355 C356 1.355 . S
C355 C357 1.415 . S
C356 C355 1.355 . S
C356 C358 1.419 . S
C357 C352 1.425 . S
C357 C354 1.409 . S
C357 C355 1.415 . S
C358 H348 0.930 . S
C358 C356 1.419 . S
C358 C359 1.362 . S
C359 H349 0.930 . S
C359 C352 1.409 . S
C359 C358 1.362 . S
H360 C366 0.930 . S
H361 C369 0.930 . S
H362 C370 0.930 . S
H363 C371 0.930 . S
H364 C374 0.930 . S
H365 C375 0.930 . S
C366 H360 0.930 . S
C366 C367 1.355 . S
C366 C368 1.415 . S
C367 C366 1.355 . S
C367 C369 1.419 . S
C368 C366 1.415 . S
C368 C373 1.425 1_565 S
C368 C375 1.409 1_565 S
C369 H361 0.930 . S
C369 C367 1.419 . S
C369 C370 1.362 . S
C370 H362 0.930 . S
C370 C369 1.362 . S
C370 C373 1.409 1_565 S
C371 H363 0.930 . S
C371 C372 1.355 . S
C371 C373 1.415 . S
C372 C371 1.355 . S
C372 C374 1.419 . S
C373 C368 1.425 1_545 S
C373 C370 1.409 1_545 S
C373 C371 1.415 . S
C374 H364 0.930 . S
C374 C372 1.419 . S
C374 C375 1.362 . S
C375 H365 0.930 . S
C375 C368 1.409 1_545 S
C375 C374 1.362 . S
H376 C382 0.930 . S
H377 C385 0.930 . S
H378 C386 0.930 . S
H379 C387 0.930 . S
H380 C390 0.930 . S
H381 C391 0.930 . S
C382 H376 0.930 . S
C382 C383 1.355 . S
C382 C384 1.415 . S
C383 C382 1.355 . S
C383 C385 1.419 . S
C384 C382 1.415 . S
C384 C389 1.425 . S
C384 C391 1.409 . S
C385 H377 0.930 . S
C385 C383 1.419 . S
C385 C386 1.362 1_655 S
C386 H378 0.930 . S
C386 C385 1.362 1_455 S
C386 C389 1.409 1_455 S
C387 H379 0.930 . S
C387 C388 1.355 1_455 S
C387 C389 1.415 1_455 S
C388 C387 1.355 1_655 S
C388 C390 1.419 . S
C389 C384 1.425 . S
C389 C386 1.409 1_655 S
C389 C387 1.415 1_655 S
C390 H380 0.930 . S
C390 C388 1.419 . S
C390 C391 1.362 . S
C391 H381 0.930 . S
C391 C384 1.409 . S
C391 C390 1.362 . S
H392 C398 0.930 1_556 S
H393 C401 0.930 1_556 S
H394 C402 0.930 . S
H395 C403 0.930 . S
H396 C406 0.930 . S
H397 C407 0.930 . S
C398 H392 0.930 1_554 S
C398 C399 1.355 1_554 S
C398 C400 1.415 . S
C399 C398 1.355 1_556 S
C399 C401 1.419 1_556 S
C400 C398 1.415 . S
C400 C405 1.425 . S
C400 C407 1.409 . S
C401 H393 0.930 1_554 S
C401 C399 1.419 1_554 S
C401 C402 1.362 . S
C402 H394 0.930 . S
C402 C401 1.362 . S
C402 C405 1.409 . S
C403 H395 0.930 . S
C403 C404 1.355 . S
C403 C405 1.415 . S
C404 C403 1.355 . S
C404 C406 1.419 . S
C405 C400 1.425 . S
C405 C402 1.409 . S
C405 C403 1.415 . S
C406 H396 0.930 . S
C406 C404 1.419 . S
C406 C407 1.362 . S
C407 H397 0.930 . S
C407 C400 1.409 . S
C407 C406 1.362 . S
H408 C414 0.930 . S
H409 C417 0.930 . S
H410 C418 0.930 . S
H411 C419 0.930 . S
H412 C422 0.930 . S
H413 C423 0.930 . S
C414 H408 0.930 . S
C414 C415 1.355 . S
C414 C416 1.415 . S
C415 C414 1.355 . S
C415 C417 1.419 . S
C416 C414 1.415 . S
C416 C421 1.425 . S
C416 C423 1.409 . S
C417 H409 0.930 . S
C417 C415 1.419 . S
C417 C418 1.362 . S
C418 H410 0.930 . S
C418 C417 1.362 . S
C418 C421 1.409 . S
C419 H411 0.930 . S
C419 C420 1.355 . S
C419 C421 1.415 . S
C420 C419 1.355 . S
C420 C422 1.419 . S
C421 C416 1.425 . S
C421 C418 1.409 . S
C421 C419 1.415 . S
C422 H412 0.930 . S
C422 C420 1.419 . S
C422 C423 1.362 . S
C423 H413 0.930 . S
C423 C416 1.409 . S
C423 C422 1.362 . S
H424 C430 0.930 1_556 S
H425 C433 0.930 . S
H426 C434 0.930 . S
H427 C435 0.930 . S
H428 C438 0.930 . S
H429 C439 0.930 . S
C430 H424 0.930 1_554 S
C430 C431 1.355 . S
C430 C432 1.415 . S
C431 C430 1.355 . S
C431 C433 1.419 . S
C432 C430 1.415 . S
C432 C437 1.425 . S
C432 C439 1.409 1_554 S
C433 H425 0.930 . S
C433 C431 1.419 . S
C433 C434 1.362 . S
C434 H426 0.930 . S
C434 C433 1.362 . S
C434 C437 1.409 . S
C435 H427 0.930 . S
C435 C436 1.358 . S
C435 C437 1.415 . S
C436 C435 1.358 . S
C436 C438 1.416 1_554 S
C437 C432 1.425 . S
C437 C434 1.409 . S
C437 C435 1.415 . S
C438 H428 0.930 . S
C438 C436 1.416 1_556 S
C438 C439 1.362 . S
C439 H429 0.930 . S
C439 C432 1.409 1_556 S
C439 C438 1.362 . S
H440 C446 0.930 . S
H441 C449 0.930 . S
H442 C450 0.930 . S
H443 C451 0.930 . S
H444 C454 0.930 1_554 S
H445 C455 0.930 1_554 S
C446 H440 0.930 . S
C446 C447 1.355 . S
C446 C448 1.415 . S
C447 C446 1.355 . S
C447 C449 1.419 . S
C448 C446 1.415 . S
C448 C453 1.425 . S
C448 C455 1.409 . S
C449 H441 0.930 . S
C449 C447 1.419 . S
C449 C450 1.362 . S
C450 H442 0.930 . S
C450 C449 1.362 . S
C450 C453 1.409 . S
C451 H443 0.930 . S
C451 C452 1.355 . S
C451 C453 1.415 . S
C452 C451 1.355 . S
C452 C454 1.419 . S
C453 C448 1.425 . S
C453 C450 1.409 . S
C453 C451 1.415 . S
C454 H444 0.930 1_556 S
C454 C452 1.419 . S
C454 C455 1.362 . S
C455 H445 0.930 1_556 S
C455 C448 1.409 . S
C455 C454 1.362 . S
H456 C462 0.930 . S
H457 C465 0.930 . S
H458 C466 0.930 . S
H459 C467 0.930 . S
H460 C470 0.930 . S
H461 C471 0.930 . S
C462 H456 0.930 . S
C462 C463 1.355 . S
C462 C464 1.415 . S
C463 C462 1.355 . S
C463 C465 1.419 . S
C464 C462 1.415 . S
C464 C469 1.425 . S
C464 C471 1.409 . S
C465 H457 0.930 . S
C465 C463 1.419 . S
C465 C466 1.362 . S
C466 H458 0.930 . S
C466 C465 1.362 . S
C466 C469 1.409 . S
C467 H459 0.930 . S
C467 C468 1.355 . S
C467 C469 1.415 . S
C468 C467 1.355 . S
C468 C470 1.419 . S
C469 C464 1.425 . S
C469 C466 1.409 . S
C469 C467 1.415 . S
C470 H460 0.930 . S
C470 C468 1.419 . S
C470 C471 1.362 . S
C471 H461 0.930 . S
C471 C464 1.409 . S
C471 C470 1.362 . S
H472 C478 0.930 . S
H473 C481 0.930 . S
H474 C482 0.930 . S
H475 C483 0.930 . S
H476 C486 0.930 . S
H477 C487 0.930 . S
C478 H472 0.930 . S
C478 C479 1.355 . S
C478 C480 1.415 . S
C479 C478 1.355 . S
C479 C481 1.419 . S
C480 C478 1.415 . S
C480 C485 1.425 . S
C480 C487 1.409 . S
C481 H473 0.930 . S
C481 C479 1.419 . S
C481 C482 1.362 . S
C482 H474 0.930 . S
C482 C481 1.362 . S
C482 C485 1.409 . S
C483 H475 0.930 . S
C483 C484 1.355 . S
C483 C485 1.415 . S
C484 C483 1.355 . S
C484 C486 1.419 . S
C485 C480 1.425 . S
C485 C482 1.409 . S
C485 C483 1.415 . S
C486 H476 0.930 . S
C486 C484 1.419 . S
C486 C487 1.362 . S
C487 H477 0.930 . S
C487 C480 1.409 . S
C487 C486 1.362 . S
H488 C494 0.930 . S
H489 C497 0.930 . S
H490 C498 0.930 . S
H491 C499 0.930 . S
H492 C502 0.930 . S
H493 C503 0.930 . S
C494 H488 0.930 . S
C494 C495 1.355 . S
C494 C496 1.415 . S
C495 C494 1.355 . S
C495 C497 1.419 . S
C496 C494 1.415 . S
C496 C501 1.425 . S
C496 C503 1.409 . S
C497 H489 0.930 . S
C497 C495 1.419 . S
C497 C498 1.362 . S
C498 H490 0.930 . S
C498 C497 1.362 . S
C498 C501 1.409 . S
C499 H491 0.930 . S
C499 C500 1.355 . S
C499 C501 1.415 . S
C500 C499 1.355 . S
C500 C502 1.419 . S
C501 C496 1.425 . S
C501 C498 1.409 . S
C501 C499 1.415 . S
C502 H492 0.930 . S
C502 C500 1.419 . S
C502 C503 1.362 . S
C503 H493 0.930 . S
C503 C496 1.409 . S
C503 C502 1.362 . S
H504 C510 0.930 . S
H505 C513 0.930 . S
H506 C514 0.930 . S
H507 C515 0.930 . S
H508 C518 0.930 . S
H509 C519 0.930 . S
C510 H504 0.930 . S
C510 C511 1.355 . S
C510 C512 1.415 . S
C511 C510 1.355 . S
C511 C513 1.419 . S
C512 C510 1.415 . S
C512 C517 1.425 . S
C512 C519 1.409 . S
C513 H505 0.930 . S
C513 C511 1.419 . S
C513 C514 1.362 . S
C514 H506 0.930 . S
C514 C513 1.362 . S
C514 C517 1.409 . S
C515 H507 0.930 . S
C515 C516 1.355 . S
C515 C517 1.415 . S
C516 C515 1.355 . S
C516 C518 1.419 . S
C517 C512 1.425 . S
C517 C514 1.409 . S
C517 C515 1.415 . S
C518 H508 0.930 . S
C518 C516 1.419 . S
C518 C519 1.362 . S
C519 H509 0.930 . S
C519 C512 1.409 . S
C519 C518 1.362 . S
H520 C526 0.930 . S
H521 C529 0.930 . S
H522 C530 0.930 . S
H523 C531 0.930 . S
H524 C534 0.930 . S
H525 C535 0.930 . S
C526 H520 0.930 . S
C526 C527 1.355 . S
C526 C528 1.415 . S
C527 C526 1.355 . S
C527 C529 1.419 . S
C528 C526 1.415 . S
C528 C533 1.425 . S
C528 C535 1.409 . S
C529 H521 0.930 . S
C529 C527 1.419 . S
C529 C530 1.362 . S
C530 H522 0.930 . S
C530 C529 1.362 . S
C530 C533 1.409 . S
C531 H523 0.930 . S
C531 C532 1.355 . S
C531 C533 1.415 . S
C532 C531 1.355 . S
C532 C534 1.419 . S
C533 C528 1.425 . S
C533 C530 1.409 . S
C533 C531 1.415 . S
C534 H524 0.930 . S
C534 C532 1.419 . S
C534 C535 1.362 . S
C535 H525 0.930 . S
C535 C528 1.409 . S
C535 C534 1.362 . S
H536 C542 0.930 . S
H537 C545 0.930 . S
H538 C546 0.930 . S
H539 C547 0.930 . S
H540 C550 0.930 . S
H541 C551 0.930 . S
C542 H536 0.930 . S
C542 C543 1.355 . S
C542 C544 1.415 . S
C543 C542 1.355 . S
C543 C545 1.419 . S
C544 C542 1.415 . S
C544 C549 1.425 . S
C544 C551 1.409 . S
C545 H537 0.930 . S
C545 C543 1.419 . S
C545 C546 1.362 . S
C546 H538 0.930 . S
C546 C545 1.362 . S
C546 C549 1.409 . S
C547 H539 0.930 . S
C547 C548 1.355 . S
C547 C549 1.415 . S
C548 C547 1.355 . S
C548 C550 1.419 . S
C549 C544 1.425 . S
C549 C546 1.409 . S
C549 C547 1.415 . S
C550 H540 0.930 . S
C550 C548 1.419 . S
C550 C551 1.362 . S
C551 H541 0.930 . S
C551 C544 1.409 . S
C551 C550 1.362 . S
H552 C558 0.930 . S
H553 C561 0.930 . S
H554 C562 0.930 . S
H555 C563 0.930 . S
H556 C566 0.930 . S
H557 C567 0.930 . S
C558 H552 0.930 . S
C558 C559 1.355 . S
C558 C560 1.415 . S
C559 C558 1.355 . S
C559 C561 1.419 . S
C560 C558 1.415 . S
C560 C565 1.425 . S
C560 C567 1.409 . S
C561 H553 0.930 . S
C561 C559 1.419 . S
C561 C562 1.362 . S
C562 H554 0.930 . S
C562 C561 1.362 . S
C562 C565 1.409 . S
C563 H555 0.930 . S
C563 C564 1.355 . S
C563 C565 1.415 . S
C564 C563 1.355 . S
C564 C566 1.419 . S
C565 C560 1.425 . S
C565 C562 1.409 . S
C565 C563 1.415 . S
C566 H556 0.930 . S
C566 C564 1.419 . S
C566 C567 1.362 . S
C567 H557 0.930 . S
C567 C560 1.409 . S
C567 C566 1.362 . S
H568 C574 0.930 . S
H569 C577 0.930 . S
H570 C578 0.930 . S
H571 C579 0.930 . S
H572 C582 0.930 . S
H573 C583 0.930 . S
C574 H568 0.930 . S
C574 C575 1.355 . S
C574 C576 1.415 . S
C575 C574 1.355 . S
C575 C577 1.419 . S
C576 C574 1.415 . S
C576 C581 1.425 . S
C576 C583 1.409 . S
C577 H569 0.930 . S
C577 C575 1.419 . S
C577 C578 1.362 . S
C578 H570 0.930 . S
C578 C577 1.362 . S
C578 C581 1.409 . S
C579 H571 0.930 . S
C579 C580 1.355 . S
C579 C581 1.415 . S
C580 C579 1.355 . S
C580 C582 1.419 . S
C581 C576 1.425 . S
C581 C578 1.409 . S
C581 C579 1.415 . S
C582 H572 0.930 . S
C582 C580 1.419 . S
C582 C583 1.362 . S
C583 H573 0.930 . S
C583 C576 1.409 . S
C583 C582 1.362 . S
H584 C590 0.930 . S
H585 C593 0.930 . S
H586 C594 0.930 . S
H587 C595 0.930 . S
H588 C598 0.930 . S
H589 C599 0.930 . S
C590 H584 0.930 . S
C590 C591 1.355 . S
C590 C592 1.415 . S
C591 C590 1.355 . S
C591 C593 1.419 . S
C592 C590 1.415 . S
C592 C597 1.425 . S
C592 C599 1.409 . S
C593 H585 0.930 . S
C593 C591 1.419 . S
C593 C594 1.362 . S
C594 H586 0.930 . S
C594 C593 1.362 . S
C594 C597 1.409 . S
C595 H587 0.930 . S
C595 C596 1.355 . S
C595 C597 1.415 . S
C596 C595 1.355 . S
C596 C598 1.419 . S
C597 C592 1.425 . S
C597 C594 1.409 . S
C597 C595 1.415 . S
C598 H588 0.930 . S
C598 C596 1.419 . S
C598 C599 1.362 . S
C599 H589 0.930 . S
C599 C592 1.409 . S
C599 C598 1.362 . S
H600 C606 0.930 . S
H601 C609 0.930 . S
H602 C610 0.930 . S
H603 C611 0.930 . S
H604 C614 0.930 . S
H605 C615 0.930 . S
C606 H600 0.930 . S
C606 C607 1.355 . S
C606 C608 1.415 . S
C607 C606 1.355 . S
C607 C609 1.419 . S
C608 C606 1.415 . S
C608 C613 1.425 . S
C608 C615 1.409 . S
C609 H601 0.930 . S
C609 C607 1.419 . S
C609 C610 1.362 . S
C610 H602 0.930 . S
C610 C609 1.362 . S
C610 C613 1.409 . S
C611 H603 0.930 . S
C611 C612 1.355 . S
C611 C613 1.415 . S
C612 C611 1.355 . S
C612 C614 1.419 . S
C613 C608 1.425 . S
C613 C610 1.409 . S
C613 C611 1.415 . S
C614 H604 0.930 . S
C614 C612 1.419 . S
C614 C615 1.362 . S
C615 H605 0.930 . S
C615 C608 1.409 . S
C615 C614 1.362 . S
H616 C622 0.930 . S
H617 C625 0.930 . S
H618 C626 0.930 . S
H619 C627 0.930 . S
H620 C630 0.930 . S
H621 C631 0.930 . S
C622 H616 0.930 . S
C622 C623 1.355 . S
C622 C624 1.415 . S
C623 C622 1.355 . S
C623 C625 1.419 . S
C624 C622 1.415 . S
C624 C629 1.425 . S
C624 C631 1.409 . S
C625 H617 0.930 . S
C625 C623 1.419 . S
C625 C626 1.362 . S
C626 H618 0.930 . S
C626 C625 1.362 . S
C626 C629 1.409 . S
C627 H619 0.930 . S
C627 C628 1.355 . S
C627 C629 1.415 . S
C628 C627 1.355 . S
C628 C630 1.419 . S
C629 C624 1.425 . S
C629 C626 1.409 . S
C629 C627 1.415 . S
C630 H620 0.930 . S
C630 C628 1.419 . S
C630 C631 1.362 . S
C631 H621 0.930 . S
C631 C624 1.409 . S
C631 C630 1.362 . S
H632 C638 0.930 . S
H633 C641 0.930 . S
H634 C642 0.930 . S
H635 C643 0.930 . S
H636 C646 0.930 . S
H637 C647 0.930 . S
C638 H632 0.930 . S
C638 C639 1.355 . S
C638 C640 1.415 . S
C639 C638 1.355 . S
C639 C641 1.419 1_565 S
C640 C638 1.415 . S
C640 C645 1.425 . S
C640 C647 1.409 . S
C641 H633 0.930 . S
C641 C639 1.419 1_545 S
C641 C642 1.362 . S
C642 H634 0.930 . S
C642 C641 1.362 . S
C642 C645 1.409 1_545 S
C643 H635 0.930 . S
C643 C644 1.355 1_545 S
C643 C645 1.415 1_545 S
C644 C643 1.355 1_565 S
C644 C646 1.419 . S
C645 C640 1.425 . S
C645 C642 1.409 1_565 S
C645 C643 1.415 1_565 S
C646 H636 0.930 . S
C646 C644 1.419 . S
C646 C647 1.362 . S
C647 H637 0.930 . S
C647 C640 1.409 . S
C647 C646 1.362 . S
H648 C654 0.930 . S
H649 C657 0.930 . S
H650 C658 0.930 . S
H651 C659 0.930 . S
H652 C662 0.930 . S
H653 C663 0.930 . S
C654 H648 0.930 . S
C654 C655 1.355 . S
C654 C656 1.415 . S
C655 C654 1.355 . S
C655 C657 1.419 . S
C656 C654 1.415 . S
C656 C661 1.425 . S
C656 C663 1.409 . S
C657 H649 0.930 . S
C657 C655 1.419 . S
C657 C658 1.362 . S
C658 H650 0.930 . S
C658 C657 1.362 . S
C658 C661 1.409 . S
C659 H651 0.930 . S
C659 C660 1.355 . S
C659 C661 1.415 . S
C660 C659 1.355 . S
C660 C662 1.419 . S
C661 C656 1.425 . S
C661 C658 1.409 . S
C661 C659 1.415 . S
C662 H652 0.930 . S
C662 C660 1.419 . S
C662 C663 1.362 . S
C663 H653 0.930 . S
C663 C656 1.409 . S
C663 C662 1.362 . S
H664 C670 0.930 . S
H665 C673 0.930 . S
H666 C674 0.930 . S
H667 C675 0.930 . S
H668 C678 0.930 1_655 S
H669 C679 0.930 . S
C670 H664 0.930 . S
C670 C671 1.355 . S
C670 C672 1.415 . S
C671 C670 1.355 . S
C671 C673 1.419 1_655 S
C672 C670 1.415 . S
C672 C677 1.425 1_655 S
C672 C679 1.409 . S
C673 H665 0.930 . S
C673 C671 1.419 1_455 S
C673 C674 1.362 . S
C674 H666 0.930 . S
C674 C673 1.362 . S
C674 C677 1.409 . S
C675 H667 0.930 . S
C675 C676 1.355 . S
C675 C677 1.415 . S
C676 C675 1.355 . S
C676 C678 1.419 . S
C677 C672 1.425 1_455 S
C677 C674 1.409 . S
C677 C675 1.415 . S
C678 H668 0.930 1_455 S
C678 C676 1.419 . S
C678 C679 1.362 1_455 S
C679 H669 0.930 . S
C679 C672 1.409 . S
C679 C678 1.362 1_655 S
H680 C686 0.930 . S
H681 C689 0.930 . S
H682 C690 0.930 . S
H683 C691 0.930 . S
H684 C694 0.930 . S
H685 C695 0.930 . S
C686 H680 0.930 . S
C686 C687 1.355 . S
C686 C688 1.415 . S
C687 C686 1.355 . S
C687 C689 1.419 . S
C688 C686 1.415 . S
C688 C693 1.425 . S
C688 C695 1.409 . S
C689 H681 0.930 . S
C689 C687 1.419 . S
C689 C690 1.362 . S
C690 H682 0.930 . S
C690 C689 1.362 . S
C690 C693 1.409 . S
C691 H683 0.930 . S
C691 C692 1.355 . S
C691 C693 1.415 . S
C692 C691 1.355 . S
C692 C694 1.419 . S
C693 C688 1.425 . S
C693 C690 1.409 . S
C693 C691 1.415 . S
C694 H684 0.930 . S
C694 C692 1.419 . S
C694 C695 1.362 . S
C695 H685 0.930 . S
C695 C688 1.409 . S
C695 C694 1.362 . S
H696 C702 0.930 . S
H697 C705 0.930 . S
H698 C706 0.930 . S
H699 C707 0.930 1_455 S
H700 C710 0.930 . S
H701 C711 0.930 . S
C702 H696 0.930 . S
C702 C703 1.395 . S
C702 C704 1.415 . S
C703 C702 1.395 . S
C703 C705 1.380 1_655 S
C704 C702 1.415 . S
C704 C709 1.425 . S
C704 C711 1.409 . S
C705 H697 0.930 . S
C705 C703 1.380 1_455 S
C705 C706 1.362 . S
C706 H698 0.930 . S
C706 C705 1.362 . S
C706 C709 1.409 1_455 S
C707 H699 0.930 1_655 S
C707 C708 1.355 . S
C707 C709 1.415 . S
C708 C707 1.355 . S
C708 C710 1.419 . S
C709 C704 1.425 . S
C709 C706 1.409 1_655 S
C709 C707 1.415 . S
C710 H700 0.930 . S
C710 C708 1.419 . S
C710 C711 1.362 . S
C711 H701 0.930 . S
C711 C704 1.409 . S
C711 C710 1.362 . S
H712 C718 0.930 . S
H713 C721 0.930 . S
H714 C722 0.930 . S
H715 C723 0.930 . S
H716 C726 0.930 . S
H717 C727 0.930 . S
C718 H712 0.930 . S
C718 C719 1.355 . S
C718 C720 1.415 . S
C719 C718 1.355 . S
C719 C721 1.419 . S
C720 C718 1.415 . S
C720 C725 1.425 . S
C720 C727 1.409 . S
C721 H713 0.930 . S
C721 C719 1.419 . S
C721 C722 1.362 . S
C722 H714 0.930 . S
C722 C721 1.362 . S
C722 C725 1.409 . S
C723 H715 0.930 . S
C723 C724 1.355 . S
C723 C725 1.415 . S
C724 C723 1.355 . S
C724 C726 1.419 . S
C725 C720 1.425 . S
C725 C722 1.409 . S
C725 C723 1.415 . S
C726 H716 0.930 . S
C726 C724 1.419 . S
C726 C727 1.362 . S
C727 H717 0.930 . S
C727 C720 1.409 . S
C727 C726 1.362 . S
H728 C734 0.930 . S
H729 C737 0.930 . S
H730 C738 0.930 . S
H731 C739 0.930 . S
H732 C742 0.930 . S
H733 C743 0.930 . S
C734 H728 0.930 . S
C734 C735 1.355 . S
C734 C736 1.415 . S
C735 C734 1.355 . S
C735 C737 1.419 . S
C736 C734 1.415 . S
C736 C741 1.425 . S
C736 C743 1.409 . S
C737 H729 0.930 . S
C737 C735 1.419 . S
C737 C738 1.362 . S
C738 H730 0.930 . S
C738 C737 1.362 . S
C738 C741 1.409 . S
C739 H731 0.930 . S
C739 C740 1.355 . S
C739 C741 1.415 . S
C740 C739 1.355 . S
C740 C742 1.419 . S
C741 C736 1.425 . S
C741 C738 1.409 . S
C741 C739 1.415 . S
C742 H732 0.930 . S
C742 C740 1.419 . S
C742 C743 1.362 . S
C743 H733 0.930 . S
C743 C736 1.409 . S
C743 C742 1.362 . S
H744 C750 0.930 . S
H745 C753 0.930 . S
H746 C754 0.930 . S
H747 C755 0.930 . S
H748 C758 0.930 . S
H749 C759 0.930 . S
C750 H744 0.930 . S
C750 C751 1.355 . S
C750 C752 1.415 . S
C751 C750 1.355 . S
C751 C753 1.419 . S
C752 C750 1.415 . S
C752 C757 1.425 . S
C752 C759 1.409 . S
C753 H745 0.930 . S
C753 C751 1.419 . S
C753 C754 1.362 . S
C754 H746 0.930 . S
C754 C753 1.362 . S
C754 C757 1.409 . S
C755 H747 0.930 . S
C755 C756 1.355 . S
C755 C757 1.415 . S
C756 C755 1.355 . S
C756 C758 1.419 . S
C757 C752 1.425 . S
C757 C754 1.409 . S
C757 C755 1.415 . S
C758 H748 0.930 . S
C758 C756 1.419 . S
C758 C759 1.362 . S
C759 H749 0.930 . S
C759 C752 1.409 . S
C759 C758 1.362 . S
H760 C766 0.930 . S
H761 C769 0.930 . S
H762 C770 0.930 . S
H763 C771 0.930 . S
H764 C774 0.930 . S
H765 C775 0.930 . S
C766 H760 0.930 . S
C766 C767 1.355 . S
C766 C768 1.415 . S
C767 C766 1.355 . S
C767 C769 1.419 . S
C768 C766 1.415 . S
C768 C773 1.425 . S
C768 C775 1.409 . S
C769 H761 0.930 . S
C769 C767 1.419 . S
C769 C770 1.362 . S
C770 H762 0.930 . S
C770 C769 1.362 . S
C770 C773 1.409 . S
C771 H763 0.930 . S
C771 C772 1.355 . S
C771 C773 1.415 . S
C772 C771 1.355 . S
C772 C774 1.419 . S
C773 C768 1.425 . S
C773 C770 1.409 . S
C773 C771 1.415 . S
C774 H764 0.930 . S
C774 C772 1.419 . S
C774 C775 1.362 . S
C775 H765 0.930 . S
C775 C768 1.409 . S
C775 C774 1.362 . S
H776 C782 0.930 . S
H777 C785 0.930 . S
H778 C786 0.930 . S
H779 C787 0.930 . S
H780 C790 0.930 . S
H781 C791 0.930 . S
C782 H776 0.930 . S
C782 C783 1.355 . S
C782 C784 1.415 . S
C783 C782 1.355 . S
C783 C785 1.419 . S
C784 C782 1.415 . S
C784 C789 1.425 . S
C784 C791 1.409 . S
C785 H777 0.930 . S
C785 C783 1.419 . S
C785 C786 1.362 . S
C786 H778 0.930 . S
C786 C785 1.362 . S
C786 C789 1.409 . S
C787 H779 0.930 . S
C787 C788 1.355 . S
C787 C789 1.415 . S
C788 C787 1.355 . S
C788 C790 1.419 . S
C789 C784 1.425 . S
C789 C786 1.409 . S
C789 C787 1.415 . S
C790 H780 0.930 . S
C790 C788 1.419 . S
C790 C791 1.362 . S
C791 H781 0.930 . S
C791 C784 1.409 . S
C791 C790 1.362 . S
H792 C798 0.930 . S
H793 C801 0.930 . S
H794 C802 0.930 . S
H795 C803 0.930 . S
H796 C806 0.930 . S
H797 C807 0.930 . S
C798 H792 0.930 . S
C798 C799 1.355 . S
C798 C800 1.415 . S
C799 C798 1.355 . S
C799 C801 1.419 . S
C800 C798 1.415 . S
C800 C805 1.425 . S
C800 C807 1.409 . S
C801 H793 0.930 . S
C801 C799 1.419 . S
C801 C802 1.362 . S
C802 H794 0.930 . S
C802 C801 1.362 . S
C802 C805 1.409 . S
C803 H795 0.930 . S
C803 C804 1.355 . S
C803 C805 1.415 . S
C804 C803 1.355 . S
C804 C806 1.419 . S
C805 C800 1.425 . S
C805 C802 1.409 . S
C805 C803 1.415 . S
C806 H796 0.930 . S
C806 C804 1.419 . S
C806 C807 1.362 . S
C807 H797 0.930 . S
C807 C800 1.409 . S
C807 C806 1.362 . S
H808 C814 0.930 . S
H809 C817 0.930 . S
H810 C818 0.930 . S
H811 C819 0.930 . S
H812 C822 0.930 . S
H813 C823 0.930 . S
C814 H808 0.930 . S
C814 C815 1.355 . S
C814 C816 1.415 . S
C815 C814 1.355 . S
C815 C817 1.419 . S
C816 C814 1.415 . S
C816 C821 1.425 . S
C816 C823 1.409 . S
C817 H809 0.930 . S
C817 C815 1.419 . S
C817 C818 1.362 . S
C818 H810 0.930 . S
C818 C817 1.362 . S
C818 C821 1.409 . S
C819 H811 0.930 . S
C819 C820 1.355 . S
C819 C821 1.415 . S
C820 C819 1.355 . S
C820 C822 1.419 . S
C821 C816 1.425 . S
C821 C818 1.409 . S
C821 C819 1.415 . S
C822 H812 0.930 . S
C822 C820 1.419 . S
C822 C823 1.362 . S
C823 H813 0.930 . S
C823 C816 1.409 . S
C823 C822 1.362 . S
H824 C830 0.930 . S
H825 C833 0.930 . S
H826 C834 0.930 . S
H827 C835 0.930 . S
H828 C838 0.930 . S
H829 C839 0.930 . S
C830 H824 0.930 . S
C830 C831 1.355 . S
C830 C832 1.415 . S
C831 C830 1.355 . S
C831 C833 1.419 . S
C832 C830 1.415 . S
C832 C837 1.425 . S
C832 C839 1.409 . S
C833 H825 0.930 . S
C833 C831 1.419 . S
C833 C834 1.362 . S
C834 H826 0.930 . S
C834 C833 1.362 . S
C834 C837 1.409 . S
C835 H827 0.930 . S
C835 C836 1.355 . S
C835 C837 1.415 . S
C836 C835 1.355 . S
C836 C838 1.419 . S
C837 C832 1.425 . S
C837 C834 1.409 . S
C837 C835 1.415 . S
C838 H828 0.930 . S
C838 C836 1.419 . S
C838 C839 1.362 . S
C839 H829 0.930 . S
C839 C832 1.409 . S
C839 C838 1.362 . S
C271 C7 1.201 . S
C276 C29 1.180 . S
C287 C18 1.469 . S
C292 C40 1.581 . S
C303 C51 1.327 . S
C308 C73 1.390 . S
C319 C62 1.408 . S
C324 C84 1.340 . S
C335 C95 0.982 . S
C340 C139 0.965 . S
C351 C150 1.279 1_655 S
C356 C106 1.382 . S
C367 C117 1.009 . S
C372 C161 0.987 . S
C383 C172 1.448 . S
C388 C128 1.412 1_655 S
C399 C216 1.639 . S
C404 C183 1.676 . S
C415 C238 1.470 . S
C420 C194 1.647 . S
C431 C205 0.825 . S
C436 C249 0.857 1_554 S
C447 C227 1.035 . S
C452 C260 1.048 . S
C463 C247 1.130 . S
C468 C5 1.419 . S
C479 C184 1.864 . S
C484 C19 1.774 . S
C495 C27 1.375 . S
C500 C261 1.561 . S
C511 C41 1.740 . S
C516 C236 1.328 . S
C527 C203 1.554 . S
C532 C49 1.416 . S
C543 C63 1.644 . S
C548 C217 1.660 . S
C559 C71 1.475 . S
C564 C228 1.670 . S
C575 C195 1.660 . S
C580 C85 1.611 . S
C591 C151 1.740 . S
C596 C93 1.298 . S
C607 C104 1.428 . S
C612 C162 1.469 . S
C623 C118 1.718 . S
C628 C170 1.768 . S
C639 C137 1.225 . S
C644 C126 1.766 . S
C655 C82 1.255 . S
C660 C159 1.391 . S
C671 C173 1.670 . S
C676 C52 1.619 . S
C687 C60 1.723 . S
C692 C140 1.654 . S
C703 C148 1.439 1_655 S
C708 C74 1.804 . S
C719 C115 1.636 . S
C724 C16 1.372 . S
C735 C129 1.776 . S
C740 C30 1.737 . S
C751 C38 1.749 . S
C756 C96 1.700 . S
C767 C8 1.458 . S
C772 C107 1.467 . S
C783 C239 1.634 . S
C788 C225 1.480 . S
C799 C192 1.751 . S
C804 C250 1.638 . S
C815 C181 1.906 . S
C820 C206 1.822 . S
C831 C258 1.432 . S
C836 C214 1.586 . S
