# Generated by pormake.
# Topology upa, (4)-cn, num edge types: 1
# Building blocks:
#     Node 0, Type 0, BuildingBlock: NAHDIM_clean_sbu_0, # of connection points: 4
#     Node 1, Type 0, BuildingBlock: NAHDIM_clean_sbu_0, # of connection points: 4
#     Node 2, Type 0, BuildingBlock: NAHDIM_clean_sbu_0, # of connection points: 4
#     Node 3, Type 0, BuildingBlock: NAHDIM_clean_sbu_0, # of connection points: 4
#     Node 4, Type 0, BuildingBlock: NAHDIM_clean_sbu_0, # of connection points: 4
#     Node 5, Type 0, BuildingBlock: NAHDIM_clean_sbu_0, # of connection points: 4
#     Node 6, Type 0, BuildingBlock: NAHDIM_clean_sbu_0, # of connection points: 4
#     Node 7, Type 0, BuildingBlock: NAHDIM_clean_sbu_0, # of connection points: 4
#     Edge 8, Type (0, 0), BuildingBlock: XUDNAN_clean_linker_2, # of connection points: 2
#     Edge 9, Type (0, 0), BuildingBlock: XUDNAN_clean_linker_2, # of connection points: 2
#     Edge 10, Type (0, 0), BuildingBlock: XUDNAN_clean_linker_2, # of connection points: 2
#     Edge 11, Type (0, 0), BuildingBlock: XUDNAN_clean_linker_2, # of connection points: 2
#     Edge 12, Type (0, 0), BuildingBlock: XUDNAN_clean_linker_2, # of connection points: 2
#     Edge 13, Type (0, 0), BuildingBlock: XUDNAN_clean_linker_2, # of connection points: 2
#     Edge 14, Type (0, 0), BuildingBlock: XUDNAN_clean_linker_2, # of connection points: 2
#     Edge 15, Type (0, 0), BuildingBlock: XUDNAN_clean_linker_2, # of connection points: 2
#     Edge 16, Type (0, 0), BuildingBlock: XUDNAN_clean_linker_2, # of connection points: 2
#     Edge 17, Type (0, 0), BuildingBlock: XUDNAN_clean_linker_2, # of connection points: 2
#     Edge 18, Type (0, 0), BuildingBlock: XUDNAN_clean_linker_2, # of connection points: 2
#     Edge 19, Type (0, 0), BuildingBlock: XUDNAN_clean_linker_2, # of connection points: 2
#     Edge 20, Type (0, 0), BuildingBlock: XUDNAN_clean_linker_2, # of connection points: 2
#     Edge 21, Type (0, 0), BuildingBlock: XUDNAN_clean_linker_2, # of connection points: 2
#     Edge 22, Type (0, 0), BuildingBlock: XUDNAN_clean_linker_2, # of connection points: 2
#     Edge 23, Type (0, 0), BuildingBlock: XUDNAN_clean_linker_2, # of connection points: 2
# Relax obj value: 0.273
# Max RMSD: 0.206
# Mean RMSD: 0.206
data_MOF--net-upa--node1-NAHDIM_clean_sbu_0--edge1-XUDNAN_clean_linker_2
_symmetry_space_group_name_H-M    P1
_symmetry_Int_Tables_number       1
_symmetry_cell_setting            triclinic
loop_
_symmetry_equiv_pos_as_xyz
'x, y, z'
_cell_length_a     26.577606
_cell_length_b     26.589722
_cell_length_c     41.583041
_cell_angle_alpha  90.033557
_cell_angle_beta   89.977842
_cell_angle_gamma 90.049205
loop_
_atom_site_label
_atom_site_type_symbol
_atom_site_fract_x
_atom_site_fract_y
_atom_site_fract_z
_atom_type_partial_charge
C0 C 0.30107 0.2142 0.30239 0.0
O1 O 0.29426 0.25484 0.31984 0.0
O2 O 0.15462 0.24058 0.29892 0.0
Zn3 Zn 0.20035 0.1936 0.32406 0.0
O4 O 0.21408 0.21918 0.3693 0.0
C5 C 0.14115 0.10716 0.30448 0.0
O6 O 0.14951 0.1242 0.27531 0.0
O7 O 0.26566 0.18217 0.30038 0.0
C8 C 0.18263 0.20898 0.39145 0.0
O9 O 0.14179 0.18363 0.38421 0.0
C10 C 0.10781 0.2382 0.30528 0.0
O11 O 0.09276 0.20921 0.32893 0.0
O12 O 0.16228 0.12856 0.32823 0.0
C13 C 0.31848 0.80139 0.78691 0.0
O14 O 0.30415 0.76849 0.76518 0.0
O15 O 0.26866 0.67594 0.7995 0.0
Zn16 Zn 0.31051 0.71614 0.83061 0.0
O17 O 0.28076 0.71609 0.87528 0.0
C18 C 0.39076 0.65606 0.80686 0.0
O19 O 0.37615 0.67491 0.77921 0.0
O20 O 0.32433 0.78713 0.81584 0.0
C21 C 0.26907 0.67407 0.88781 0.0
O22 O 0.27495 0.63269 0.87094 0.0
C23 C 0.22467 0.65829 0.80334 0.0
O24 O 0.19697 0.67438 0.8274 0.0
O25 O 0.37238 0.67351 0.83279 0.0
C26 C 0.71261 0.76451 0.28238 0.0
O27 O 0.74424 0.73666 0.26587 0.0
O28 O 0.84734 0.74282 0.29622 0.0
Zn29 Zn 0.80024 0.78489 0.32332 0.0
O30 O 0.80443 0.76259 0.3697 0.0
C31 C 0.85925 0.86885 0.30075 0.0
O32 O 0.86169 0.84227 0.27416 0.0
O33 O 0.72825 0.78759 0.30725 0.0
C34 C 0.84911 0.76057 0.3806 0.0
O35 O 0.88674 0.77007 0.36101 0.0
C36 C 0.86073 0.69793 0.3022 0.0
O37 O 0.83786 0.67289 0.32519 0.0
O38 O 0.83144 0.85367 0.32365 0.0
C39 C 0.71294 0.2194 0.77587 0.0
O40 O 0.73939 0.25478 0.76169 0.0
O41 O 0.73095 0.3497 0.80227 0.0
Zn42 Zn 0.67832 0.30061 0.81853 0.0
O43 O 0.67856 0.29688 0.8677 0.0
C44 C 0.60169 0.35871 0.78297 0.0
O45 O 0.63733 0.36872 0.76202 0.0
O46 O 0.68579 0.23066 0.8 0.0
C47 C 0.6452 0.32189 0.88282 0.0
O48 O 0.61473 0.35124 0.86663 0.0
C49 C 0.7245 0.39597 0.809 0.0
O50 O 0.68682 0.4087 0.82776 0.0
O51 O 0.61051 0.32801 0.80568 0.0
C52 C 0.80682 0.33327 0.18325 0.0
O53 O 0.79991 0.36294 0.15839 0.0
O54 O 0.64847 0.27734 0.20226 0.0
Zn55 Zn 0.69951 0.31737 0.17703 0.0
O56 O 0.69497 0.29987 0.12982 0.0
C57 C 0.6502 0.4036 0.20442 0.0
O58 O 0.64783 0.37472 0.23001 0.0
O59 O 0.7694 0.30977 0.19499 0.0
C60 C 0.6512 0.30745 0.11848 0.0
O61 O 0.61549 0.32228 0.13819 0.0
C62 C 0.6283 0.23587 0.19421 0.0
O63 O 0.64453 0.21219 0.16849 0.0
O64 O 0.67523 0.38875 0.18015 0.0
C65 C 0.22748 0.31911 0.71132 0.0
O66 O 0.26884 0.31179 0.69465 0.0
O67 O 0.25914 0.17354 0.71474 0.0
Zn68 Zn 0.20568 0.21567 0.69314 0.0
O69 O 0.22071 0.22547 0.64594 0.0
C70 C 0.13572 0.13373 0.68429 0.0
O71 O 0.16899 0.11989 0.66269 0.0
O72 O 0.19626 0.2832 0.71441 0.0
C73 C 0.18471 0.23203 0.6263 0.0
O74 O 0.13835 0.23298 0.63726 0.0
C75 C 0.27969 0.13842 0.69865 0.0
O76 O 0.27236 0.13649 0.66744 0.0
O77 O 0.14197 0.1751 0.69915 0.0
C78 C 0.20187 0.64774 0.21705 0.0
O79 O 0.22805 0.60643 0.21262 0.0
O80 O 0.33404 0.74396 0.19878 0.0
Zn81 Zn 0.28409 0.69371 0.18102 0.0
O82 O 0.26738 0.70618 0.13433 0.0
C83 C 0.35176 0.61798 0.20512 0.0
O84 O 0.34599 0.64198 0.2325 0.0
O85 O 0.21931 0.68931 0.20676 0.0
C86 C 0.23962 0.67246 0.12181 0.0
O87 O 0.22283 0.63599 0.14023 0.0
C88 C 0.37673 0.74105 0.185 0.0
O89 O 0.38037 0.71461 0.15839 0.0
O90 O 0.3242 0.62964 0.18128 0.0
C91 C 0.85093 0.69728 0.69892 0.0
O92 O 0.89032 0.70386 0.68032 0.0
O93 O 0.77453 0.84835 0.68724 0.0
Zn94 Zn 0.82866 0.79762 0.67673 0.0
O95 O 0.8303 0.78324 0.62883 0.0
C96 C 0.89195 0.86059 0.71463 0.0
O97 O 0.85342 0.85677 0.73429 0.0
O98 O 0.81924 0.73285 0.7018 0.0
C99 C 0.87277 0.77614 0.61547 0.0
O100 O 0.9137 0.77866 0.63308 0.0
C101 C 0.78289 0.89219 0.67617 0.0
O102 O 0.81982 0.8982 0.65549 0.0
O103 O 0.89258 0.83381 0.68928 0.0
H104 H 0.09406 0.04573 0.26054 0.0
H105 H 0.09504 0.08678 0.36167 0.0
H106 H 0.02067 0.03343 0.37084 0.0
H107 H 0.96136 0.04318 0.25004 0.0
H108 H 0.96093 0.98881 0.22412 0.0
H109 H 0.01516 0.02946 0.22512 0.0
H110 H 0.07239 0.95372 0.23936 0.0
H111 H 0.01847 0.9127 0.23785 0.0
H112 H 0.05689 0.91493 0.27351 0.0
H113 H 0.94403 0.97953 0.36876 0.0
H114 H 0.87593 0.91935 0.35706 0.0
H115 H 0.9259 0.91037 0.25772 0.0
C116 C 0.07892 0.04306 0.28466 0.0
C117 C 0.10035 0.0705 0.31036 0.0
C118 C 0.0795 0.06594 0.34161 0.0
C119 C 0.03701 0.03599 0.34705 0.0
C120 C 0.01614 0.01036 0.3211 0.0
C121 C 0.03684 0.01273 0.29065 0.0
C122 C 0.0076 0.98036 0.26716 0.0
C123 C 0.98492 0.01238 0.24001 0.0
C124 C 0.04082 0.93792 0.25369 0.0
C125 C 0.96703 0.95987 0.28916 0.0
C126 C 0.97244 0.97806 0.32008 0.0
C127 C 0.9395 0.96476 0.34468 0.0
C128 C 0.90074 0.93075 0.33772 0.0
C129 C 0.89553 0.91008 0.30647 0.0
C130 C 0.92875 0.92558 0.28182 0.0
H131 H 0.45886 0.61965 0.763 0.0
H132 H 0.38095 0.58211 0.85155 0.0
H133 H 0.41802 0.49721 0.85023 0.0
H134 H 0.45124 0.49583 0.72551 0.0
H135 H 0.5138 0.49883 0.70882 0.0
H136 H 0.47825 0.55577 0.71488 0.0
H137 H 0.55027 0.59287 0.74966 0.0
H138 H 0.58638 0.53658 0.74318 0.0
H139 H 0.57331 0.55751 0.78357 0.0
H140 H 0.46326 0.4173 0.83991 0.0
H141 H 0.5253 0.35196 0.82672 0.0
H142 H 0.57884 0.44221 0.74661 0.0
C143 C 0.44979 0.59348 0.78209 0.0
C144 C 0.41726 0.6074 0.80743 0.0
C145 C 0.40632 0.57239 0.83212 0.0
C146 C 0.42662 0.52387 0.83136 0.0
C147 C 0.45819 0.5111 0.80592 0.0
C148 C 0.4706 0.5451 0.78207 0.0
C149 C 0.50888 0.523 0.75903 0.0
C150 C 0.4867 0.51806 0.72504 0.0
C151 C 0.55759 0.55435 0.75887 0.0
C152 C 0.51697 0.4718 0.7742 0.0
C153 C 0.48621 0.46533 0.80067 0.0
C154 C 0.4876 0.42187 0.81925 0.0
C155 C 0.523 0.38489 0.81148 0.0
C156 C 0.55732 0.39205 0.78576 0.0
C157 C 0.55299 0.4354 0.76626 0.0
H158 H 0.58375 0.44046 0.24927 0.0
H159 H 0.63501 0.46144 0.15096 0.0
H160 H 0.56537 0.52053 0.1414 0.0
H161 H 0.45641 0.43868 0.23319 0.0
H162 H 0.43655 0.47346 0.26817 0.0
H163 H 0.49382 0.43749 0.26934 0.0
H164 H 0.54415 0.51625 0.28591 0.0
H165 H 0.48734 0.5532 0.28532 0.0
H166 H 0.54089 0.57223 0.26165 0.0
H167 H 0.48414 0.56641 0.13981 0.0
H168 H 0.40262 0.60808 0.14874 0.0
H169 H 0.40554 0.56228 0.2489 0.0
C170 C 0.58121 0.45855 0.22601 0.0
C171 C 0.61488 0.4462 0.20086 0.0
C172 C 0.60986 0.47033 0.17065 0.0
C173 C 0.57028 0.50385 0.16492 0.0
C174 C 0.5365 0.51344 0.18976 0.0
C175 C 0.54214 0.49252 0.21994 0.0
C176 C 0.49939 0.50783 0.24204 0.0
C177 C 0.46981 0.46161 0.25386 0.0
C178 C 0.51911 0.53927 0.2704 0.0
C179 C 0.46817 0.53943 0.21924 0.0
C180 C 0.49019 0.54178 0.18916 0.0
C181 C 0.46692 0.56564 0.16339 0.0
C182 C 0.42033 0.58869 0.16863 0.0
C183 C 0.39779 0.58831 0.19951 0.0
C184 C 0.4221 0.56331 0.22511 0.0
H185 H 0.11588 0.04028 0.65955 0.0
H186 H 0.06248 0.14871 0.72983 0.0
H187 H 0.99688 0.08863 0.74713 0.0
H188 H 0.99431 0.99241 0.63699 0.0
H189 H 0.01627 0.92869 0.63241 0.0
H190 H 0.05873 0.98045 0.62576 0.0
H191 H 0.12016 0.94313 0.6679 0.0
H192 H 0.07758 0.89155 0.67496 0.0
H193 H 0.09792 0.9304 0.70803 0.0
H194 H 0.93766 0.01646 0.75703 0.0
H195 H 0.88542 0.9398 0.7564 0.0
H196 H 0.97754 0.87875 0.67945 0.0
C197 C 0.09027 0.05162 0.67846 0.0
C198 C 0.09433 0.09927 0.69333 0.0
C199 C 0.06007 0.11246 0.71805 0.0
C200 C 0.02282 0.07852 0.72813 0.0
C201 C 0.02039 0.03158 0.71328 0.0
C202 C 0.05295 0.01826 0.68882 0.0
C203 C 0.042 0.96577 0.67652 0.0
C204 C 0.02692 0.96693 0.64081 0.0
C205 C 0.08709 0.93065 0.6822 0.0
C206 C 0.9979 0.95173 0.69775 0.0
C207 C 0.98628 0.99005 0.71896 0.0
C208 C 0.94653 0.98611 0.74064 0.0
C209 C 0.91724 0.94223 0.7402 0.0
C210 C 0.92757 0.90306 0.71802 0.0
C211 C 0.96891 0.9078 0.69686 0.0
H212 H 0.11582 0.20792 0.44113 0.0
H213 H 0.27234 0.23844 0.41861 0.0
H214 H 0.28973 0.252 0.4765 0.0
H215 H 0.10426 0.30006 0.50621 0.0
H216 H 0.0634 0.25989 0.52941 0.0
H217 H 0.06324 0.25608 0.48615 0.0
H218 H 0.08213 0.16059 0.48955 0.0
H219 H 0.08267 0.16413 0.53275 0.0
H220 H 0.13647 0.13936 0.51164 0.0
H221 H 0.29093 0.25427 0.53763 0.0
H222 H 0.2748 0.25052 0.59621 0.0
H223 H 0.11682 0.22138 0.57751 0.0
C224 C 0.15369 0.21806 0.44826 0.0
C225 C 0.19279 0.22203 0.4254 0.0
C226 C 0.24177 0.23543 0.43573 0.0
C227 C 0.252 0.24309 0.46854 0.0
C228 C 0.21266 0.23784 0.49053 0.0
C229 C 0.16436 0.22626 0.48071 0.0
C230 C 0.12888 0.22145 0.50899 0.0
C231 C 0.08751 0.26178 0.5076 0.0
C232 C 0.10624 0.16822 0.51083 0.0
C233 C 0.16492 0.23109 0.53642 0.0
C234 C 0.21309 0.24045 0.52538 0.0
C235 C 0.2532 0.24769 0.54649 0.0
C236 C 0.24373 0.24532 0.5797 0.0
C237 C 0.1945 0.23608 0.5914 0.0
C238 C 0.15472 0.22926 0.56935 0.0
H239 H 0.29128 0.73815 0.93749 0.0
H240 H 0.20909 0.60198 0.91403 0.0
H241 H 0.18502 0.59245 0.97108 0.0
H242 H 0.34353 0.69197 0.00873 0.0
H243 H 0.34057 0.7505 0.03053 0.0
H244 H 0.34536 0.75095 0.98738 0.0
H245 H 0.26453 0.80506 0.98375 0.0
H246 H 0.25954 0.80487 0.02698 0.0
H247 H 0.20756 0.78333 0.00277 0.0
H248 H 0.17501 0.59402 0.03051 0.0
H249 H 0.1836 0.60338 0.08912 0.0
H250 H 0.27564 0.73663 0.075 0.0
C251 C 0.26718 0.70706 0.94431 0.0
C252 C 0.25145 0.67108 0.9214 0.0
C253 C 0.22127 0.63004 0.93126 0.0
C254 C 0.20724 0.62446 0.96354 0.0
C255 C 0.22405 0.66006 0.98568 0.0
C256 C 0.25355 0.70046 0.97659 0.0
C257 C 0.27068 0.73045 0.00564 0.0
C258 C 0.32845 0.73096 0.00821 0.0
C259 C 0.24929 0.78411 0.00472 0.0
C260 C 0.24708 0.69995 0.03249 0.0
C261 C 0.21966 0.66005 0.02034 0.0
C262 C 0.19603 0.62534 0.04032 0.0
C263 C 0.20123 0.63099 0.07363 0.0
C264 C 0.23031 0.67074 0.08672 0.0
C265 C 0.25284 0.70609 0.06577 0.0
H266 H 0.79822 0.78167 0.56942 0.0
H267 H 0.95663 0.74735 0.58257 0.0
H268 H 0.96534 0.7327 0.52438 0.0
H269 H 0.77475 0.69034 0.50458 0.0
H270 H 0.73313 0.73197 0.48312 0.0
H271 H 0.73791 0.73605 0.52629 0.0
H272 H 0.76052 0.83059 0.5218 0.0
H273 H 0.7557 0.82683 0.4787 0.0
H274 H 0.81286 0.84952 0.49699 0.0
H275 H 0.95899 0.72732 0.46502 0.0
H276 H 0.93817 0.73308 0.40742 0.0
H277 H 0.78373 0.77026 0.43171 0.0
C278 C 0.83455 0.77042 0.56009 0.0
C279 C 0.87672 0.76552 0.58061 0.0
C280 C 0.92377 0.75136 0.5674 0.0
C281 C 0.9291 0.74274 0.53436 0.0
C282 C 0.88701 0.74829 0.51478 0.0
C283 C 0.84061 0.76178 0.52705 0.0
C284 C 0.80221 0.76785 0.50034 0.0
C285 C 0.75947 0.72924 0.5038 0.0
C286 C 0.78163 0.82191 0.49941 0.0
C287 C 0.8346 0.75661 0.47117 0.0
C288 C 0.88328 0.74503 0.48017 0.0
C289 C 0.92089 0.7358 0.45764 0.0
C290 C 0.9087 0.73927 0.42497 0.0
C291 C 0.8593 0.75183 0.41509 0.0
C292 C 0.8216 0.75977 0.43855 0.0
H293 H 0.71442 0.29643 0.92987 0.0
H294 H 0.55736 0.33425 0.91453 0.0
H295 H 0.5415 0.32755 0.9726 0.0
H296 H 0.69478 0.20834 0.99722 0.0
H297 H 0.74947 0.22967 0.01893 0.0
H298 H 0.74837 0.23263 0.97562 0.0
H299 H 0.76822 0.32796 0.97798 0.0
H300 H 0.76943 0.32526 0.02123 0.0
H301 H 0.72812 0.36888 0.00119 0.0
H302 H 0.54221 0.32068 0.03145 0.0
H303 H 0.56047 0.31894 0.08932 0.0
H304 H 0.71786 0.28856 0.0687 0.0
C305 C 0.67664 0.30251 0.93881 0.0
C306 C 0.63703 0.3156 0.91771 0.0
C307 C 0.58827 0.32429 0.93026 0.0
C308 C 0.57877 0.32029 0.9632 0.0
C309 C 0.6185 0.30791 0.98342 0.0
C310 C 0.66656 0.29944 0.97193 0.0
C311 C 0.70296 0.29033 0.99948 0.0
C312 C 0.7252 0.23706 0.9977 0.0
C313 C 0.74463 0.33051 0.99999 0.0
C314 C 0.66782 0.29579 0.02809 0.0
C315 C 0.6192 0.30522 0.01806 0.0
C316 C 0.58007 0.31308 0.03969 0.0
C317 C 0.59091 0.31206 0.07256 0.0
C318 C 0.6406 0.30364 0.08362 0.0
C319 C 0.67945 0.29474 0.06101 0.0
H320 H 0.57481 0.2872 0.23985 0.0
H321 H 0.57553 0.14805 0.18516 0.0
H322 H 0.49317 0.12529 0.2088 0.0
H323 H 0.51331 0.2384 0.31205 0.0
H324 H 0.47759 0.29524 0.31807 0.0
H325 H 0.53839 0.29802 0.29899 0.0
H326 H 0.49882 0.34283 0.24978 0.0
H327 H 0.43802 0.34025 0.26877 0.0
H328 H 0.44662 0.31385 0.22922 0.0
H329 H 0.40808 0.12055 0.23598 0.0
H330 H 0.32797 0.13344 0.265 0.0
H331 H 0.38328 0.27657 0.30087 0.0
C332 C 0.55826 0.25142 0.23326 0.0
C333 C 0.58186 0.2192 0.21079 0.0
C334 C 0.55832 0.17319 0.20245 0.0
C335 C 0.51153 0.15998 0.21574 0.0
C336 C 0.48883 0.1932 0.23727 0.0
C337 C 0.51157 0.23788 0.24606 0.0
C338 C 0.47833 0.26835 0.26829 0.0
C339 C 0.5034 0.27539 0.30131 0.0
C340 C 0.46463 0.31931 0.2531 0.0
C341 C 0.43299 0.23405 0.27046 0.0
C342 C 0.43982 0.19079 0.25254 0.0
C343 C 0.40249 0.15411 0.25027 0.0
C344 C 0.35707 0.16183 0.2668 0.0
C345 C 0.3493 0.20597 0.28528 0.0
C346 C 0.388 0.24234 0.28709 0.0
H347 H 0.30343 0.84543 0.72805 0.0
H348 H 0.34582 0.87925 0.82654 0.0
H349 H 0.34947 0.96963 0.81317 0.0
H350 H 0.38052 0.94323 0.68937 0.0
H351 H 0.33317 0.95655 0.65954 0.0
H352 H 0.33845 0.89418 0.67614 0.0
H353 H 0.24454 0.89695 0.69311 0.0
H354 H 0.23899 0.95912 0.67649 0.0
H355 H 0.22251 0.94802 0.71792 0.0
H356 H 0.33938 0.05698 0.79052 0.0
H357 H 0.31744 0.13383 0.76 0.0
H358 H 0.28507 0.04239 0.67607 0.0
C359 C 0.31433 0.87168 0.74671 0.0
C360 C 0.32446 0.85516 0.77833 0.0
C361 C 0.33802 0.89093 0.8021 0.0
C362 C 0.34031 0.94238 0.79473 0.0
C363 C 0.32935 0.95746 0.76342 0.0
C364 C 0.3169 0.92311 0.73975 0.0
C365 C 0.30384 0.94919 0.70851 0.0
C366 C 0.34124 0.93494 0.68182 0.0
C367 C 0.24925 0.93764 0.69844 0.0
C368 C 0.30999 0.00361 0.71846 0.0
C369 C 0.32483 0.0077 0.75019 0.0
C370 C 0.32872 0.05428 0.76546 0.0
C371 C 0.31622 0.0977 0.74798 0.0
C372 C 0.30042 0.09416 0.71555 0.0
C373 C 0.29839 0.04651 0.70055 0.0
H374 H 0.66638 0.71848 0.23111 0.0
H375 H 0.63826 0.82148 0.31015 0.0
H376 H 0.54983 0.82984 0.29269 0.0
H377 H 0.58886 0.7805 0.17265 0.0
H378 H 0.56654 0.72284 0.15481 0.0
H379 H 0.62766 0.72492 0.17347 0.0
H380 H 0.6028 0.65047 0.21081 0.0
H381 H 0.54211 0.64801 0.19168 0.0
H382 H 0.54632 0.65519 0.23465 0.0
H383 H 0.46311 0.82474 0.26736 0.0
H384 H 0.38584 0.80621 0.23614 0.0
H385 H 0.4723 0.70884 0.17318 0.0
C386 C 0.64173 0.7429 0.24475 0.0
C387 C 0.65941 0.76939 0.27199 0.0
C388 C 0.6257 0.80079 0.28919 0.0
C389 C 0.57537 0.80585 0.27945 0.0
C390 C 0.55924 0.77931 0.25243 0.0
C391 C 0.59144 0.74837 0.23538 0.0
C392 C 0.56466 0.72343 0.20745 0.0
C393 C 0.58835 0.73887 0.17519 0.0
C394 C 0.56396 0.66587 0.2114 0.0
C395 C 0.5125 0.74541 0.21135 0.0
C396 C 0.50991 0.77734 0.23751 0.0
C397 C 0.46483 0.80017 0.24663 0.0
C398 C 0.42118 0.78955 0.22876 0.0
C399 C 0.42314 0.75678 0.20194 0.0
C400 C 0.46964 0.735 0.19309 0.0
H401 H 0.77332 0.18006 0.72845 0.0
H402 H 0.655 0.13997 0.79578 0.0
H403 H 0.65632 0.05276 0.77542 0.0
H404 H 0.73143 0.10222 0.66257 0.0
H405 H 0.79421 0.08494 0.65046 0.0
H406 H 0.78321 0.14461 0.66975 0.0
H407 H 0.84923 0.12266 0.71352 0.0
H408 H 0.86063 0.06314 0.69421 0.0
H409 H 0.8427 0.06503 0.73597 0.0
H410 H 0.67233 0.96891 0.7487 0.0
H411 H 0.70386 0.89485 0.71883 0.0
H412 H 0.81073 0.99047 0.66881 0.0
C413 C 0.7475 0.15305 0.73884 0.0
C414 C 0.71394 0.16699 0.76366 0.0
C415 C 0.68106 0.13028 0.77674 0.0
C416 C 0.68142 0.08062 0.76528 0.0
C417 C 0.71489 0.06818 0.74075 0.0
C418 C 0.74749 0.10329 0.72779 0.0
C419 C 0.78083 0.0799 0.70232 0.0
C420 C 0.77186 0.10438 0.66932 0.0
C421 C 0.83663 0.08286 0.7121 0.0
C422 C 0.76185 0.02622 0.70296 0.0
C423 C 0.7238 0.02013 0.72526 0.0
C424 C 0.70184 0.97332 0.73099 0.0
C425 C 0.71989 0.93149 0.71386 0.0
C426 C 0.75938 0.93685 0.69123 0.0
C427 C 0.77993 0.9851 0.68551 0.0
H428 H 0.00612 0.22679 0.30828 0.0
H429 H 0.12348 0.30358 0.25475 0.0
H430 H 0.05886 0.33893 0.21823 0.0
H431 H 0.93347 0.19134 0.24111 0.0
H432 H 0.8739 0.19971 0.26114 0.0
H433 H 0.929 0.18369 0.28409 0.0
H434 H 0.91575 0.26216 0.32015 0.0
H435 H 0.86039 0.27831 0.29743 0.0
H436 H 0.91064 0.32337 0.3018 0.0
H437 H 0.98046 0.3632 0.18647 0.0
H438 H 0.89609 0.37402 0.16234 0.0
H439 H 0.83209 0.27909 0.2368 0.0
C440 C 0.01842 0.25158 0.28917 0.0
C441 C 0.06988 0.2627 0.28449 0.0
C442 C 0.08423 0.29476 0.25888 0.0
C443 C 0.0478 0.31496 0.23803 0.0
C444 C 0.99738 0.30256 0.24315 0.0
C445 C 0.98282 0.27162 0.26816 0.0
C446 C 0.92672 0.26217 0.26791 0.0
C447 C 0.91512 0.2059 0.26328 0.0
C448 C 0.90192 0.28275 0.29864 0.0
C449 C 0.91175 0.29245 0.23872 0.0
C450 C 0.95286 0.31571 0.22478 0.0
C451 C 0.94804 0.34527 0.19728 0.0
C452 C 0.89996 0.35115 0.18374 0.0
C453 C 0.85744 0.32738 0.19764 0.0
C454 C 0.86373 0.29776 0.22553 0.0
H455 H 0.28976 0.40155 0.71463 0.0
H456 H 0.1397 0.34992 0.73962 0.0
H457 H 0.12016 0.43359 0.76206 0.0
H458 H 0.30919 0.47589 0.78543 0.0
H459 H 0.3434 0.52462 0.76471 0.0
H460 H 0.34476 0.46117 0.74973 0.0
H461 H 0.31299 0.49272 0.69435 0.0
H462 H 0.31104 0.55622 0.70942 0.0
H463 H 0.25541 0.52836 0.69214 0.0
H464 H 0.11777 0.52218 0.7835 0.0
H465 H 0.13464 0.60746 0.80474 0.0
H466 H 0.28555 0.60112 0.76484 0.0
C467 C 0.25271 0.40785 0.7247 0.0
C468 C 0.21621 0.36915 0.72526 0.0
C469 C 0.16832 0.37892 0.73892 0.0
C470 C 0.15676 0.42641 0.75161 0.0
C471 C 0.19348 0.46378 0.75053 0.0
C472 C 0.24061 0.45497 0.73761 0.0
C473 C 0.27395 0.501 0.74046 0.0
C474 C 0.32054 0.49 0.76133 0.0
C475 C 0.28922 0.52074 0.7071 0.0
C476 C 0.23822 0.5369 0.75714 0.0
C477 C 0.19194 0.51487 0.76264 0.0
C478 C 0.15373 0.54002 0.77909 0.0
C479 C 0.16356 0.58851 0.79097 0.0
C480 C 0.21117 0.61128 0.78626 0.0
C481 C 0.24841 0.58531 0.76845 0.0
H482 H 0.1315 0.72324 0.22139 0.0
H483 H 0.15661 0.56621 0.24504 0.0
H484 H 0.07051 0.56063 0.26706 0.0
H485 H 0.0581 0.75435 0.29126 0.0
H486 H 0.01637 0.79572 0.26967 0.0
H487 H 0.08001 0.78706 0.25595 0.0
H488 H 0.04654 0.76055 0.1999 0.0
H489 H 0.98278 0.76863 0.21366 0.0
H490 H 0.00235 0.70928 0.19684 0.0
H491 H 0.9819 0.5726 0.2875 0.0
H492 H 0.89846 0.60207 0.30591 0.0
H493 H 0.93081 0.75032 0.26732 0.0
C494 C 0.11905 0.68771 0.23134 0.0
C495 C 0.15095 0.64517 0.23154 0.0
C496 C 0.13295 0.59934 0.24462 0.0
C497 C 0.08403 0.59574 0.25713 0.0
C498 C 0.05341 0.63823 0.25625 0.0
C499 C 0.07024 0.68338 0.24375 0.0
C500 C 0.02989 0.72348 0.24574 0.0
C501 C 0.04712 0.76774 0.26693 0.0
C502 C 0.01449 0.74153 0.21203 0.0
C503 C 0.98793 0.69392 0.2616 0.0
C504 C 0.00215 0.64482 0.26743 0.0
C505 C 0.97022 0.6109 0.28288 0.0
C506 C 0.92286 0.62793 0.29318 0.0
C507 C 0.90784 0.67833 0.28786 0.0
C508 C 0.94071 0.71133 0.27137 0.0
H509 H 0.70452 0.49675 0.80682 0.0
H510 H 0.81149 0.38458 0.77403 0.0
H511 H 0.85804 0.45055 0.74439 0.0
H512 H 0.6978 0.56363 0.73406 0.0
H513 H 0.6924 0.62476 0.75252 0.0
H514 H 0.67026 0.56986 0.77348 0.0
H515 H 0.72696 0.59124 0.82208 0.0
H516 H 0.74923 0.6466 0.80154 0.0
H517 H 0.79349 0.60055 0.81602 0.0
H518 H 0.89091 0.52843 0.71677 0.0
H519 H 0.90649 0.61134 0.69207 0.0
H520 H 0.77623 0.67186 0.74184 0.0
C521 C 0.73823 0.48608 0.79387 0.0
C522 C 0.75468 0.43553 0.79298 0.0
C523 C 0.79837 0.42309 0.77519 0.0
C524 C 0.82506 0.46031 0.75832 0.0
C525 C 0.80742 0.50968 0.75942 0.0
C526 C 0.76498 0.52258 0.77673 0.0
C527 C 0.75229 0.57776 0.77268 0.0
C528 C 0.70011 0.58437 0.75724 0.0
C529 C 0.75572 0.60568 0.80501 0.0
C530 C 0.79391 0.59388 0.75006 0.0
C531 C 0.8256 0.55419 0.74295 0.0
C532 C 0.86644 0.5598 0.72227 0.0
C533 C 0.87498 0.60711 0.70836 0.0
C534 C 0.8426 0.6482 0.71498 0.0
C535 C 0.80171 0.6413 0.73628 0.0
loop_
_geom_bond_atom_site_label_1
_geom_bond_atom_site_label_2
_geom_bond_distance
_geom_bond_site_symmetry_2
_ccdc_geom_bond_type
C0 O1 1.160 . S
C0 O7 1.185 . S
O1 C0 1.160 . S
O2 Zn3 1.899 . S
O2 C10 1.284 . S
Zn3 O2 1.899 . S
Zn3 O4 2.032 . S
Zn3 O7 2.086 . S
Zn3 O12 1.977 . S
O4 Zn3 2.032 . S
O4 C8 1.278 . S
C5 O6 1.203 . S
C5 O12 1.267 . S
O6 C5 1.203 . S
O7 C0 1.185 . S
O7 Zn3 2.086 . S
C8 O4 1.278 . S
C8 O9 1.211 . S
O9 C8 1.211 . S
C10 O2 1.284 . S
C10 O11 1.273 . S
O11 C10 1.273 . S
O12 Zn3 1.977 . S
O12 C5 1.267 . S
C13 O14 1.160 . S
C13 O20 1.185 . S
O14 C13 1.160 . S
O15 Zn16 1.899 . S
O15 C23 1.284 . S
Zn16 O15 1.899 . S
Zn16 O17 2.032 . S
Zn16 O20 2.086 . S
Zn16 O25 1.977 . S
O17 Zn16 2.032 . S
O17 C21 1.278 . S
C18 O19 1.203 . S
C18 O25 1.267 . S
O19 C18 1.203 . S
O20 C13 1.185 . S
O20 Zn16 2.086 . S
C21 O17 1.278 . S
C21 O22 1.211 . S
O22 C21 1.211 . S
C23 O15 1.284 . S
C23 O24 1.273 . S
O24 C23 1.273 . S
O25 Zn16 1.977 . S
O25 C18 1.267 . S
C26 O27 1.160 . S
C26 O33 1.185 . S
O27 C26 1.160 . S
O28 Zn29 1.899 . S
O28 C36 1.284 . S
Zn29 O28 1.899 . S
Zn29 O30 2.032 . S
Zn29 O33 2.086 . S
Zn29 O38 1.977 . S
O30 Zn29 2.032 . S
O30 C34 1.278 . S
C31 O32 1.203 . S
C31 O38 1.267 . S
O32 C31 1.203 . S
O33 C26 1.185 . S
O33 Zn29 2.086 . S
C34 O30 1.278 . S
C34 O35 1.211 . S
O35 C34 1.211 . S
C36 O28 1.284 . S
C36 O37 1.273 . S
O37 C36 1.273 . S
O38 Zn29 1.977 . S
O38 C31 1.267 . S
C39 O40 1.160 . S
C39 O46 1.185 . S
O40 C39 1.160 . S
O41 Zn42 1.899 . S
O41 C49 1.284 . S
Zn42 O41 1.899 . S
Zn42 O43 2.032 . S
Zn42 O46 2.086 . S
Zn42 O51 1.977 . S
O43 Zn42 2.032 . S
O43 C47 1.278 . S
C44 O45 1.203 . S
C44 O51 1.267 . S
O45 C44 1.203 . S
O46 C39 1.185 . S
O46 Zn42 2.086 . S
C47 O43 1.278 . S
C47 O48 1.211 . S
O48 C47 1.211 . S
C49 O41 1.284 . S
C49 O50 1.273 . S
O50 C49 1.273 . S
O51 Zn42 1.977 . S
O51 C44 1.267 . S
C52 O53 1.160 . S
C52 O59 1.185 . S
O53 C52 1.160 . S
O54 Zn55 1.899 . S
O54 C62 1.284 . S
Zn55 O54 1.899 . S
Zn55 O56 2.032 . S
Zn55 O59 2.086 . S
Zn55 O64 1.977 . S
O56 Zn55 2.032 . S
O56 C60 1.278 . S
C57 O58 1.203 . S
C57 O64 1.267 . S
O58 C57 1.203 . S
O59 C52 1.185 . S
O59 Zn55 2.086 . S
C60 O56 1.278 . S
C60 O61 1.211 . S
O61 C60 1.211 . S
C62 O54 1.284 . S
C62 O63 1.273 . S
O63 C62 1.273 . S
O64 Zn55 1.977 . S
O64 C57 1.267 . S
C65 O66 1.160 . S
C65 O72 1.185 . S
O66 C65 1.160 . S
O67 Zn68 1.899 . S
O67 C75 1.284 . S
Zn68 O67 1.899 . S
Zn68 O69 2.032 . S
Zn68 O72 2.086 . S
Zn68 O77 1.977 . S
O69 Zn68 2.032 . S
O69 C73 1.278 . S
C70 O71 1.203 . S
C70 O77 1.267 . S
O71 C70 1.203 . S
O72 C65 1.185 . S
O72 Zn68 2.086 . S
C73 O69 1.278 . S
C73 O74 1.211 . S
O74 C73 1.211 . S
C75 O67 1.284 . S
C75 O76 1.273 . S
O76 C75 1.273 . S
O77 Zn68 1.977 . S
O77 C70 1.267 . S
C78 O79 1.160 . S
C78 O85 1.185 . S
O79 C78 1.160 . S
O80 Zn81 1.899 . S
O80 C88 1.284 . S
Zn81 O80 1.899 . S
Zn81 O82 2.032 . S
Zn81 O85 2.086 . S
Zn81 O90 1.977 . S
O82 Zn81 2.032 . S
O82 C86 1.278 . S
C83 O84 1.203 . S
C83 O90 1.267 . S
O84 C83 1.203 . S
O85 C78 1.185 . S
O85 Zn81 2.086 . S
C86 O82 1.278 . S
C86 O87 1.211 . S
O87 C86 1.211 . S
C88 O80 1.284 . S
C88 O89 1.273 . S
O89 C88 1.273 . S
O90 Zn81 1.977 . S
O90 C83 1.267 . S
C91 O92 1.160 . S
C91 O98 1.185 . S
O92 C91 1.160 . S
O93 Zn94 1.899 . S
O93 C101 1.284 . S
Zn94 O93 1.899 . S
Zn94 O95 2.032 . S
Zn94 O98 2.086 . S
Zn94 O103 1.977 . S
O95 Zn94 2.032 . S
O95 C99 1.278 . S
C96 O97 1.203 . S
C96 O103 1.267 . S
O97 C96 1.203 . S
O98 C91 1.185 . S
O98 Zn94 2.086 . S
C99 O95 1.278 . S
C99 O100 1.211 . S
O100 C99 1.211 . S
C101 O93 1.284 . S
C101 O102 1.273 . S
O102 C101 1.273 . S
O103 Zn94 1.977 . S
O103 C96 1.267 . S
H104 C116 0.930 . S
H105 C118 0.930 . S
H106 C119 0.930 . S
H107 C123 0.959 . S
H108 C123 0.959 . S
H109 C123 0.961 . S
H110 C124 0.960 . S
H111 C124 0.961 . S
H112 C124 0.959 . S
H113 C127 0.929 . S
H114 C128 0.931 . S
H115 C130 0.930 . S
C116 H104 0.930 . S
C116 C117 1.399 . S
C116 C121 1.399 . S
C117 C116 1.399 . S
C117 C118 1.376 . S
C118 H105 0.930 . S
C118 C117 1.376 . S
C118 C119 1.388 . S
C119 H106 0.930 . S
C119 C118 1.388 . S
C119 C120 1.390 . S
C120 C119 1.390 . S
C120 C121 1.394 . S
C120 C126 1.465 1_445 S
C121 C116 1.399 . S
C121 C120 1.394 . S
C121 C122 1.516 1_455 S
C122 C121 1.516 1_655 S
C122 C123 1.502 . S
C122 C124 1.561 1_645 S
C122 C125 1.526 1_545 S
C123 H107 0.959 . S
C123 H108 0.959 . S
C123 H109 0.961 . S
C123 C122 1.502 . S
C124 H110 0.960 . S
C124 H111 0.961 . S
C124 H112 0.959 . S
C124 C122 1.561 1_465 S
C125 C122 1.526 1_565 S
C125 C126 1.396 . S
C125 C130 1.390 . S
C126 C120 1.465 1_665 S
C126 C125 1.396 . S
C126 C127 1.399 . S
C127 H113 0.929 . S
C127 C126 1.399 . S
C127 C128 1.385 . S
C128 H114 0.931 . S
C128 C127 1.385 . S
C128 C129 1.389 . S
C129 C128 1.389 . S
C129 C130 1.387 . S
C130 H115 0.930 . S
C130 C125 1.390 . S
C130 C129 1.387 . S
H131 C143 0.930 . S
H132 C145 0.930 . S
H133 C146 0.930 . S
H134 C150 0.959 . S
H135 C150 0.959 . S
H136 C150 0.961 . S
H137 C151 0.960 . S
H138 C151 0.961 . S
H139 C151 0.959 . S
H140 C154 0.929 . S
H141 C155 0.931 . S
H142 C157 0.930 . S
C143 H131 0.930 . S
C143 C144 1.399 . S
C143 C148 1.399 . S
C144 C143 1.399 . S
C144 C145 1.376 . S
C145 H132 0.930 . S
C145 C144 1.376 . S
C145 C146 1.388 . S
C146 H133 0.930 . S
C146 C145 1.388 . S
C146 C147 1.390 . S
C147 C146 1.390 . S
C147 C148 1.394 . S
C147 C153 1.465 . S
C148 C143 1.399 . S
C148 C147 1.394 . S
C148 C149 1.516 . S
C149 C148 1.516 . S
C149 C150 1.502 . S
C149 C151 1.561 . S
C149 C152 1.526 . S
C150 H134 0.959 . S
C150 H135 0.959 . S
C150 H136 0.961 . S
C150 C149 1.502 . S
C151 H137 0.960 . S
C151 H138 0.961 . S
C151 H139 0.959 . S
C151 C149 1.561 . S
C152 C149 1.526 . S
C152 C153 1.396 . S
C152 C157 1.390 . S
C153 C147 1.465 . S
C153 C152 1.396 . S
C153 C154 1.399 . S
C154 H140 0.929 . S
C154 C153 1.399 . S
C154 C155 1.385 . S
C155 H141 0.931 . S
C155 C154 1.385 . S
C155 C156 1.389 . S
C156 C155 1.389 . S
C156 C157 1.387 . S
C157 H142 0.930 . S
C157 C152 1.390 . S
C157 C156 1.387 . S
H158 C170 0.930 . S
H159 C172 0.930 . S
H160 C173 0.930 . S
H161 C177 0.959 . S
H162 C177 0.959 . S
H163 C177 0.961 . S
H164 C178 0.960 . S
H165 C178 0.961 . S
H166 C178 0.959 . S
H167 C181 0.929 . S
H168 C182 0.931 . S
H169 C184 0.930 . S
C170 H158 0.930 . S
C170 C171 1.399 . S
C170 C175 1.399 . S
C171 C170 1.399 . S
C171 C172 1.376 . S
C172 H159 0.930 . S
C172 C171 1.376 . S
C172 C173 1.388 . S
C173 H160 0.930 . S
C173 C172 1.388 . S
C173 C174 1.390 . S
C174 C173 1.390 . S
C174 C175 1.394 . S
C174 C180 1.465 . S
C175 C170 1.399 . S
C175 C174 1.394 . S
C175 C176 1.516 . S
C176 C175 1.516 . S
C176 C177 1.502 . S
C176 C178 1.561 . S
C176 C179 1.526 . S
C177 H161 0.959 . S
C177 H162 0.959 . S
C177 H163 0.961 . S
C177 C176 1.502 . S
C178 H164 0.960 . S
C178 H165 0.961 . S
C178 H166 0.959 . S
C178 C176 1.561 . S
C179 C176 1.526 . S
C179 C180 1.396 . S
C179 C184 1.390 . S
C180 C174 1.465 . S
C180 C179 1.396 . S
C180 C181 1.399 . S
C181 H167 0.929 . S
C181 C180 1.399 . S
C181 C182 1.385 . S
C182 H168 0.931 . S
C182 C181 1.385 . S
C182 C183 1.389 . S
C183 C182 1.389 . S
C183 C184 1.387 . S
C184 H169 0.930 . S
C184 C179 1.390 . S
C184 C183 1.387 . S
H185 C197 0.930 . S
H186 C199 0.930 . S
H187 C200 0.930 . S
H188 C204 0.959 . S
H189 C204 0.959 . S
H190 C204 0.961 . S
H191 C205 0.960 1_545 S
H192 C205 0.961 1_655 S
H193 C205 0.959 . S
H194 C208 0.929 . S
H195 C209 0.931 . S
H196 C211 0.930 . S
C197 H185 0.930 . S
C197 C198 1.399 . S
C197 C202 1.399 . S
C198 C197 1.399 . S
C198 C199 1.376 . S
C199 H186 0.930 . S
C199 C198 1.376 . S
C199 C200 1.388 . S
C200 H187 0.930 . S
C200 C199 1.388 . S
C200 C201 1.390 . S
C201 C200 1.390 . S
C201 C202 1.394 . S
C201 C207 1.465 1_445 S
C202 C197 1.399 . S
C202 C201 1.394 . S
C202 C203 1.516 1_455 S
C203 C202 1.516 1_655 S
C203 C204 1.502 . S
C203 C205 1.561 1_645 S
C203 C206 1.526 1_545 S
C204 H188 0.959 . S
C204 H189 0.959 . S
C204 H190 0.961 . S
C204 C203 1.502 . S
C205 H191 0.960 1_565 S
C205 H192 0.961 1_455 S
C205 H193 0.959 . S
C205 C203 1.561 1_465 S
C206 C203 1.526 1_565 S
C206 C207 1.396 . S
C206 C211 1.390 . S
C207 C201 1.465 1_665 S
C207 C206 1.396 . S
C207 C208 1.399 . S
C208 H194 0.929 . S
C208 C207 1.399 . S
C208 C209 1.385 . S
C209 H195 0.931 . S
C209 C208 1.385 . S
C209 C210 1.389 . S
C210 C209 1.389 . S
C210 C211 1.387 . S
C211 H196 0.930 . S
C211 C206 1.390 . S
C211 C210 1.387 . S
H212 C224 0.930 . S
H213 C226 0.930 . S
H214 C227 0.930 . S
H215 C231 0.959 . S
H216 C231 0.959 . S
H217 C231 0.961 . S
H218 C232 0.960 . S
H219 C232 0.961 . S
H220 C232 0.959 . S
H221 C235 0.929 . S
H222 C236 0.931 . S
H223 C238 0.930 . S
C224 H212 0.930 . S
C224 C225 1.399 . S
C224 C229 1.399 . S
C225 C224 1.399 . S
C225 C226 1.376 . S
C226 H213 0.930 . S
C226 C225 1.376 . S
C226 C227 1.388 . S
C227 H214 0.930 . S
C227 C226 1.388 . S
C227 C228 1.390 . S
C228 C227 1.390 . S
C228 C229 1.394 . S
C228 C234 1.465 . S
C229 C224 1.399 . S
C229 C228 1.394 . S
C229 C230 1.516 . S
C230 C229 1.516 . S
C230 C231 1.502 . S
C230 C232 1.561 . S
C230 C233 1.526 . S
C231 H215 0.959 . S
C231 H216 0.959 . S
C231 H217 0.961 . S
C231 C230 1.502 . S
C232 H218 0.960 . S
C232 H219 0.961 . S
C232 H220 0.959 . S
C232 C230 1.561 . S
C233 C230 1.526 . S
C233 C234 1.396 . S
C233 C238 1.390 . S
C234 C228 1.465 . S
C234 C233 1.396 . S
C234 C235 1.399 . S
C235 H221 0.929 . S
C235 C234 1.399 . S
C235 C236 1.385 . S
C236 H222 0.931 . S
C236 C235 1.385 . S
C236 C237 1.389 . S
C237 C236 1.389 . S
C237 C238 1.387 . S
C238 H223 0.930 . S
C238 C233 1.390 . S
C238 C237 1.387 . S
H239 C251 0.930 . S
H240 C253 0.930 . S
H241 C254 0.930 . S
H242 C258 0.959 . S
H243 C258 0.959 . S
H244 C258 0.961 . S
H245 C259 0.960 . S
H246 C259 0.944 1_554 S
H247 C259 0.959 . S
H248 C262 0.929 . S
H249 C263 0.931 . S
H250 C265 0.930 . S
C251 H239 0.930 . S
C251 C252 1.399 . S
C251 C256 1.399 . S
C252 C251 1.399 . S
C252 C253 1.376 . S
C253 H240 0.930 . S
C253 C252 1.376 . S
C253 C254 1.388 . S
C254 H241 0.930 . S
C254 C253 1.388 . S
C254 C255 1.390 . S
C255 C254 1.390 . S
C255 C256 1.394 . S
C255 C261 1.465 1_556 S
C256 C251 1.399 . S
C256 C255 1.394 . S
C256 C257 1.516 . S
C257 C256 1.516 . S
C257 C258 1.502 . S
C257 C259 1.561 . S
C257 C260 1.526 1_556 S
C258 H242 0.959 . S
C258 H243 0.959 . S
C258 H244 0.961 . S
C258 C257 1.502 . S
C259 H245 0.960 . S
C259 H246 0.944 1_556 S
C259 H247 0.959 . S
C259 C257 1.561 . S
C260 C257 1.526 1_554 S
C260 C261 1.396 . S
C260 C265 1.390 . S
C261 C255 1.465 1_554 S
C261 C260 1.396 . S
C261 C262 1.399 . S
C262 H248 0.929 . S
C262 C261 1.399 . S
C262 C263 1.385 . S
C263 H249 0.931 . S
C263 C262 1.385 . S
C263 C264 1.389 . S
C264 C263 1.389 . S
C264 C265 1.387 . S
C265 H250 0.930 . S
C265 C260 1.390 . S
C265 C264 1.387 . S
H266 C278 0.930 . S
H267 C280 0.930 . S
H268 C281 0.930 . S
H269 C285 0.959 . S
H270 C285 0.959 . S
H271 C285 0.961 . S
H272 C286 0.960 . S
H273 C286 0.961 . S
H274 C286 0.959 . S
H275 C289 0.929 . S
H276 C290 0.931 . S
H277 C292 0.930 . S
C278 H266 0.930 . S
C278 C279 1.399 . S
C278 C283 1.399 . S
C279 C278 1.399 . S
C279 C280 1.376 . S
C280 H267 0.930 . S
C280 C279 1.376 . S
C280 C281 1.388 . S
C281 H268 0.930 . S
C281 C280 1.388 . S
C281 C282 1.390 . S
C282 C281 1.390 . S
C282 C283 1.394 . S
C282 C288 1.465 . S
C283 C278 1.399 . S
C283 C282 1.394 . S
C283 C284 1.516 . S
C284 C283 1.516 . S
C284 C285 1.502 . S
C284 C286 1.561 . S
C284 C287 1.526 . S
C285 H269 0.959 . S
C285 H270 0.959 . S
C285 H271 0.961 . S
C285 C284 1.502 . S
C286 H272 0.960 . S
C286 H273 0.961 . S
C286 H274 0.959 . S
C286 C284 1.561 . S
C287 C284 1.526 . S
C287 C288 1.396 . S
C287 C292 1.390 . S
C288 C282 1.465 . S
C288 C287 1.396 . S
C288 C289 1.399 . S
C289 H275 0.929 . S
C289 C288 1.399 . S
C289 C290 1.385 . S
C290 H276 0.931 . S
C290 C289 1.385 . S
C290 C291 1.389 . S
C291 C290 1.389 . S
C291 C292 1.387 . S
C292 H277 0.930 . S
C292 C287 1.390 . S
C292 C291 1.387 . S
H293 C305 0.930 . S
H294 C307 0.930 . S
H295 C308 0.930 . S
H296 C312 0.959 . S
H297 C312 0.959 . S
H298 C312 0.961 . S
H299 C313 0.960 . S
H300 C313 0.961 1_554 S
H301 C313 0.951 1_554 S
H302 C316 0.929 . S
H303 C317 0.931 . S
H304 C319 0.930 . S
C305 H293 0.930 . S
C305 C306 1.399 . S
C305 C310 1.399 . S
C306 C305 1.399 . S
C306 C307 1.376 . S
C307 H294 0.930 . S
C307 C306 1.376 . S
C307 C308 1.388 . S
C308 H295 0.930 . S
C308 C307 1.388 . S
C308 C309 1.390 . S
C309 C308 1.390 . S
C309 C310 1.394 . S
C309 C315 1.465 1_556 S
C310 C305 1.399 . S
C310 C309 1.394 . S
C310 C311 1.516 . S
C311 C310 1.516 . S
C311 C312 1.502 . S
C311 C313 1.561 . S
C311 C314 1.526 1_556 S
C312 H296 0.959 . S
C312 H297 0.959 . S
C312 H298 0.961 . S
C312 C311 1.502 . S
C313 H299 0.960 . S
C313 H300 0.961 1_556 S
C313 H301 0.951 1_556 S
C313 C311 1.561 . S
C314 C311 1.526 1_554 S
C314 C315 1.396 . S
C314 C319 1.390 . S
C315 C309 1.465 1_554 S
C315 C314 1.396 . S
C315 C316 1.399 . S
C316 H302 0.929 . S
C316 C315 1.399 . S
C316 C317 1.385 . S
C317 H303 0.931 . S
C317 C316 1.385 . S
C317 C318 1.389 . S
C318 C317 1.389 . S
C318 C319 1.387 . S
C319 H304 0.930 . S
C319 C314 1.390 . S
C319 C318 1.387 . S
H320 C332 0.930 . S
H321 C334 0.930 . S
H322 C335 0.930 . S
H323 C339 0.959 . S
H324 C339 0.959 . S
H325 C339 0.961 . S
H326 C340 0.960 . S
H327 C340 0.961 . S
H328 C340 0.959 . S
H329 C343 0.929 . S
H330 C344 0.931 . S
H331 C346 0.930 . S
C332 H320 0.930 . S
C332 C333 1.399 . S
C332 C337 1.399 . S
C333 C332 1.399 . S
C333 C334 1.376 . S
C334 H321 0.930 . S
C334 C333 1.376 . S
C334 C335 1.388 . S
C335 H322 0.930 . S
C335 C334 1.388 . S
C335 C336 1.390 . S
C336 C335 1.390 . S
C336 C337 1.394 . S
C336 C342 1.465 . S
C337 C332 1.399 . S
C337 C336 1.394 . S
C337 C338 1.516 . S
C338 C337 1.516 . S
C338 C339 1.502 . S
C338 C340 1.561 . S
C338 C341 1.526 . S
C339 H323 0.959 . S
C339 H324 0.959 . S
C339 H325 0.961 . S
C339 C338 1.502 . S
C340 H326 0.960 . S
C340 H327 0.961 . S
C340 H328 0.959 . S
C340 C338 1.561 . S
C341 C338 1.526 . S
C341 C342 1.396 . S
C341 C346 1.390 . S
C342 C336 1.465 . S
C342 C341 1.396 . S
C342 C343 1.399 . S
C343 H329 0.929 . S
C343 C342 1.399 . S
C343 C344 1.385 . S
C344 H330 0.931 . S
C344 C343 1.385 . S
C344 C345 1.389 . S
C345 C344 1.389 . S
C345 C346 1.387 . S
C346 H331 0.930 . S
C346 C341 1.390 . S
C346 C345 1.387 . S
H347 C359 0.930 . S
H348 C361 0.930 . S
H349 C362 0.930 . S
H350 C366 0.959 . S
H351 C366 0.959 . S
H352 C366 0.961 . S
H353 C367 0.960 . S
H354 C367 0.961 . S
H355 C367 0.959 . S
H356 C370 0.929 . S
H357 C371 0.931 . S
H358 C373 0.930 . S
C359 H347 0.930 . S
C359 C360 1.399 . S
C359 C364 1.399 . S
C360 C359 1.399 . S
C360 C361 1.376 . S
C361 H348 0.930 . S
C361 C360 1.376 . S
C361 C362 1.388 . S
C362 H349 0.930 . S
C362 C361 1.388 . S
C362 C363 1.390 . S
C363 C362 1.390 . S
C363 C364 1.394 . S
C363 C369 1.465 . S
C364 C359 1.399 . S
C364 C363 1.394 . S
C364 C365 1.516 . S
C365 C364 1.516 . S
C365 C366 1.502 . S
C365 C367 1.561 . S
C365 C368 1.526 . S
C366 H350 0.959 . S
C366 H351 0.959 . S
C366 H352 0.961 . S
C366 C365 1.502 . S
C367 H353 0.960 . S
C367 H354 0.961 . S
C367 H355 0.959 . S
C367 C365 1.561 . S
C368 C365 1.526 . S
C368 C369 1.396 . S
C368 C373 1.390 . S
C369 C363 1.465 . S
C369 C368 1.396 . S
C369 C370 1.399 . S
C370 H356 0.929 . S
C370 C369 1.399 . S
C370 C371 1.385 1_565 S
C371 H357 0.931 . S
C371 C370 1.385 1_545 S
C371 C372 1.389 . S
C372 C371 1.389 . S
C372 C373 1.387 1_545 S
C373 H358 0.930 . S
C373 C368 1.390 . S
C373 C372 1.387 1_565 S
H374 C386 0.930 . S
H375 C388 0.930 . S
H376 C389 0.930 . S
H377 C393 0.959 . S
H378 C393 0.959 . S
H379 C393 0.961 . S
H380 C394 0.960 . S
H381 C394 0.961 . S
H382 C394 0.959 . S
H383 C397 0.929 . S
H384 C398 0.931 . S
H385 C400 0.930 . S
C386 H374 0.930 . S
C386 C387 1.399 . S
C386 C391 1.399 . S
C387 C386 1.399 . S
C387 C388 1.376 . S
C388 H375 0.930 . S
C388 C387 1.376 . S
C388 C389 1.388 . S
C389 H376 0.930 . S
C389 C388 1.388 . S
C389 C390 1.390 . S
C390 C389 1.390 . S
C390 C391 1.394 . S
C390 C396 1.465 . S
C391 C386 1.399 . S
C391 C390 1.394 . S
C391 C392 1.516 . S
C392 C391 1.516 . S
C392 C393 1.502 . S
C392 C394 1.561 . S
C392 C395 1.526 . S
C393 H377 0.959 . S
C393 H378 0.959 . S
C393 H379 0.961 . S
C393 C392 1.502 . S
C394 H380 0.960 . S
C394 H381 0.961 . S
C394 H382 0.959 . S
C394 C392 1.561 . S
C395 C392 1.526 . S
C395 C396 1.396 . S
C395 C400 1.390 . S
C396 C390 1.465 . S
C396 C395 1.396 . S
C396 C397 1.399 . S
C397 H383 0.929 . S
C397 C396 1.399 . S
C397 C398 1.385 . S
C398 H384 0.931 . S
C398 C397 1.385 . S
C398 C399 1.389 . S
C399 C398 1.389 . S
C399 C400 1.387 . S
C400 H385 0.930 . S
C400 C395 1.390 . S
C400 C399 1.387 . S
H401 C413 0.930 . S
H402 C415 0.930 . S
H403 C416 0.930 . S
H404 C420 0.959 . S
H405 C420 0.959 . S
H406 C420 0.961 . S
H407 C421 0.960 . S
H408 C421 0.961 . S
H409 C421 0.959 . S
H410 C424 0.929 . S
H411 C425 0.931 . S
H412 C427 0.930 . S
C413 H401 0.930 . S
C413 C414 1.399 . S
C413 C418 1.399 . S
C414 C413 1.399 . S
C414 C415 1.376 . S
C415 H402 0.930 . S
C415 C414 1.376 . S
C415 C416 1.388 . S
C416 H403 0.930 . S
C416 C415 1.388 . S
C416 C417 1.390 . S
C417 C416 1.390 . S
C417 C418 1.394 . S
C417 C423 1.465 . S
C418 C413 1.399 . S
C418 C417 1.394 . S
C418 C419 1.516 . S
C419 C418 1.516 . S
C419 C420 1.502 . S
C419 C421 1.561 . S
C419 C422 1.526 . S
C420 H404 0.959 . S
C420 H405 0.959 . S
C420 H406 0.961 . S
C420 C419 1.502 . S
C421 H407 0.960 . S
C421 H408 0.961 . S
C421 H409 0.959 . S
C421 C419 1.561 . S
C422 C419 1.526 . S
C422 C423 1.396 . S
C422 C427 1.390 . S
C423 C417 1.465 . S
C423 C422 1.396 . S
C423 C424 1.399 . S
C424 H410 0.929 . S
C424 C423 1.399 . S
C424 C425 1.385 1_545 S
C425 H411 0.931 . S
C425 C424 1.385 1_565 S
C425 C426 1.389 . S
C426 C425 1.389 . S
C426 C427 1.387 1_565 S
C427 H412 0.930 . S
C427 C422 1.390 . S
C427 C426 1.387 1_545 S
H428 C440 0.930 . S
H429 C442 0.926 1_455 S
H430 C443 0.930 . S
H431 C447 0.959 . S
H432 C447 0.959 . S
H433 C447 0.961 . S
H434 C448 0.960 . S
H435 C448 0.961 . S
H436 C448 0.959 . S
H437 C451 0.929 . S
H438 C452 0.931 . S
H439 C454 0.930 . S
C440 H428 0.930 . S
C440 C441 1.399 1_655 S
C440 C445 1.399 . S
C441 C440 1.399 1_455 S
C441 C442 1.376 1_455 S
C442 H429 0.926 1_655 S
C442 C441 1.376 1_655 S
C442 C443 1.393 . S
C443 H430 0.930 . S
C443 C442 1.393 . S
C443 C444 1.390 . S
C444 C443 1.390 . S
C444 C445 1.394 . S
C444 C450 1.465 . S
C445 C440 1.399 . S
C445 C444 1.394 . S
C445 C446 1.516 . S
C446 C445 1.516 . S
C446 C447 1.502 . S
C446 C448 1.561 . S
C446 C449 1.526 . S
C447 H431 0.959 . S
C447 H432 0.959 . S
C447 H433 0.961 . S
C447 C446 1.502 . S
C448 H434 0.960 . S
C448 H435 0.961 . S
C448 H436 0.959 . S
C448 C446 1.561 . S
C449 C446 1.526 . S
C449 C450 1.396 . S
C449 C454 1.390 . S
C450 C444 1.465 . S
C450 C449 1.396 . S
C450 C451 1.399 . S
C451 H437 0.929 . S
C451 C450 1.399 . S
C451 C452 1.385 . S
C452 H438 0.931 . S
C452 C451 1.385 . S
C452 C453 1.389 . S
C453 C452 1.389 . S
C453 C454 1.387 . S
C454 H439 0.930 . S
C454 C449 1.390 . S
C454 C453 1.387 . S
H455 C467 0.930 . S
H456 C469 0.930 . S
H457 C470 0.930 . S
H458 C474 0.959 . S
H459 C474 0.959 . S
H460 C474 0.961 . S
H461 C475 0.960 . S
H462 C475 0.961 . S
H463 C475 0.959 . S
H464 C478 0.929 . S
H465 C479 0.931 . S
H466 C481 0.930 . S
C467 H455 0.930 . S
C467 C468 1.399 . S
C467 C472 1.399 . S
C468 C467 1.399 . S
C468 C469 1.376 . S
C469 H456 0.930 . S
C469 C468 1.376 . S
C469 C470 1.388 . S
C470 H457 0.930 . S
C470 C469 1.388 . S
C470 C471 1.390 . S
C471 C470 1.390 . S
C471 C472 1.394 . S
C471 C477 1.465 . S
C472 C467 1.399 . S
C472 C471 1.394 . S
C472 C473 1.516 . S
C473 C472 1.516 . S
C473 C474 1.502 . S
C473 C475 1.561 . S
C473 C476 1.526 . S
C474 H458 0.959 . S
C474 H459 0.959 . S
C474 H460 0.961 . S
C474 C473 1.502 . S
C475 H461 0.960 . S
C475 H462 0.961 . S
C475 H463 0.959 . S
C475 C473 1.561 . S
C476 C473 1.526 . S
C476 C477 1.396 . S
C476 C481 1.390 . S
C477 C471 1.465 . S
C477 C476 1.396 . S
C477 C478 1.399 . S
C478 H464 0.929 . S
C478 C477 1.399 . S
C478 C479 1.385 . S
C479 H465 0.931 . S
C479 C478 1.385 . S
C479 C480 1.389 . S
C480 C479 1.389 . S
C480 C481 1.387 . S
C481 H466 0.930 . S
C481 C476 1.390 . S
C481 C480 1.387 . S
H482 C494 0.930 . S
H483 C496 0.930 . S
H484 C497 0.930 . S
H485 C501 0.959 . S
H486 C501 0.959 . S
H487 C501 0.961 . S
H488 C502 0.960 . S
H489 C502 0.961 . S
H490 C502 0.959 . S
H491 C505 0.929 . S
H492 C506 0.931 . S
H493 C508 0.930 1_655 S
C494 H482 0.930 . S
C494 C495 1.399 . S
C494 C499 1.399 . S
C495 C494 1.399 . S
C495 C496 1.376 . S
C496 H483 0.930 . S
C496 C495 1.376 . S
C496 C497 1.388 . S
C497 H484 0.930 . S
C497 C496 1.388 . S
C497 C498 1.390 . S
C498 C497 1.390 . S
C498 C499 1.394 . S
C498 C504 1.465 . S
C499 C494 1.399 . S
C499 C498 1.394 . S
C499 C500 1.516 . S
C500 C499 1.516 . S
C500 C501 1.502 . S
C500 C502 1.561 . S
C500 C503 1.526 . S
C501 H485 0.959 . S
C501 H486 0.959 . S
C501 H487 0.961 . S
C501 C500 1.502 . S
C502 H488 0.960 . S
C502 H489 0.961 . S
C502 H490 0.959 . S
C502 C500 1.561 . S
C503 C500 1.526 . S
C503 C504 1.396 . S
C503 C508 1.390 . S
C504 C498 1.465 . S
C504 C503 1.396 . S
C504 C505 1.399 . S
C505 H491 0.929 . S
C505 C504 1.399 . S
C505 C506 1.385 . S
C506 H492 0.931 . S
C506 C505 1.385 . S
C506 C507 1.389 1_455 S
C507 C506 1.389 1_655 S
C507 C508 1.387 1_655 S
C508 H493 0.930 1_455 S
C508 C503 1.390 . S
C508 C507 1.387 1_455 S
H509 C521 0.930 . S
H510 C523 0.930 . S
H511 C524 0.930 . S
H512 C528 0.959 . S
H513 C528 0.959 . S
H514 C528 0.961 . S
H515 C529 0.960 . S
H516 C529 0.961 . S
H517 C529 0.959 . S
H518 C532 0.929 . S
H519 C533 0.931 . S
H520 C535 0.930 . S
C521 H509 0.930 . S
C521 C522 1.399 . S
C521 C526 1.399 . S
C522 C521 1.399 . S
C522 C523 1.376 . S
C523 H510 0.930 . S
C523 C522 1.376 . S
C523 C524 1.388 . S
C524 H511 0.930 . S
C524 C523 1.388 . S
C524 C525 1.390 . S
C525 C524 1.390 . S
C525 C526 1.394 . S
C525 C531 1.465 . S
C526 C521 1.399 . S
C526 C525 1.394 . S
C526 C527 1.516 . S
C527 C526 1.516 . S
C527 C528 1.502 . S
C527 C529 1.561 . S
C527 C530 1.526 . S
C528 H512 0.959 . S
C528 H513 0.959 . S
C528 H514 0.961 . S
C528 C527 1.502 . S
C529 H515 0.960 . S
C529 H516 0.961 . S
C529 H517 0.959 . S
C529 C527 1.561 . S
C530 C527 1.526 . S
C530 C531 1.396 . S
C530 C535 1.390 . S
C531 C525 1.465 . S
C531 C530 1.396 . S
C531 C532 1.399 . S
C532 H518 0.929 . S
C532 C531 1.399 . S
C532 C533 1.385 . S
C533 H519 0.931 . S
C533 C532 1.385 . S
C533 C534 1.389 . S
C534 C533 1.389 . S
C534 C535 1.387 . S
C535 H520 0.930 . S
C535 C530 1.390 . S
C535 C534 1.387 . S
C117 C5 0.636 . S
C129 C31 0.506 . S
C144 C18 0.654 . S
C156 C44 0.484 . S
C171 C57 0.647 . S
C183 C83 0.493 . S
C198 C70 0.494 . S
C210 C96 0.648 . S
C225 C8 1.418 . S
C237 C73 1.417 . S
C252 C21 1.409 . S
C264 C86 1.333 . S
C279 C99 1.410 . S
C291 C34 1.335 . S
C306 C47 1.404 . S
C318 C60 1.330 . S
C333 C62 1.510 . S
C345 C0 1.533 . S
C360 C13 1.560 . S
C372 C75 1.526 . S
C387 C26 1.560 . S
C399 C88 1.526 . S
C414 C39 1.559 . S
C426 C101 1.515 . S
C441 C10 1.483 . S
C453 C52 1.548 . S
C468 C65 1.529 . S
C480 C23 1.503 . S
C495 C78 1.526 . S
C507 C36 1.467 . S
C522 C49 1.515 . S
C534 C91 1.559 . S
