# Generated by pormake.
# Topology ukb, (4)-cn, num edge types: 1
# Building blocks:
#     Node 0, Type 0, BuildingBlock: QUQFOY_clean_sbu_1, # of connection points: 4
#     Node 1, Type 0, BuildingBlock: QUQFOY_clean_sbu_1, # of connection points: 4
#     Node 2, Type 0, BuildingBlock: QUQFOY_clean_sbu_1, # of connection points: 4
#     Node 3, Type 0, BuildingBlock: QUQFOY_clean_sbu_1, # of connection points: 4
#     Node 4, Type 0, BuildingBlock: QUQFOY_clean_sbu_1, # of connection points: 4
#     Node 5, Type 0, BuildingBlock: QUQFOY_clean_sbu_1, # of connection points: 4
#     Node 6, Type 0, BuildingBlock: QUQFOY_clean_sbu_1, # of connection points: 4
#     Node 7, Type 0, BuildingBlock: QUQFOY_clean_sbu_1, # of connection points: 4
#     Node 8, Type 0, BuildingBlock: QUQFOY_clean_sbu_1, # of connection points: 4
#     Node 9, Type 0, BuildingBlock: QUQFOY_clean_sbu_1, # of connection points: 4
#     Node 10, Type 0, BuildingBlock: QUQFOY_clean_sbu_1, # of connection points: 4
#     Node 11, Type 0, BuildingBlock: QUQFOY_clean_sbu_1, # of connection points: 4
#     Node 12, Type 0, BuildingBlock: QUQFOY_clean_sbu_1, # of connection points: 4
#     Node 13, Type 0, BuildingBlock: QUQFOY_clean_sbu_1, # of connection points: 4
#     Node 14, Type 0, BuildingBlock: QUQFOY_clean_sbu_1, # of connection points: 4
#     Node 15, Type 0, BuildingBlock: QUQFOY_clean_sbu_1, # of connection points: 4
#     Edge 16, Type (0, 0), BuildingBlock: CIFDUS_clean_linker_0, # of connection points: 2
#     Edge 17, Type (0, 0), BuildingBlock: CIFDUS_clean_linker_0, # of connection points: 2
#     Edge 18, Type (0, 0), BuildingBlock: CIFDUS_clean_linker_0, # of connection points: 2
#     Edge 19, Type (0, 0), BuildingBlock: CIFDUS_clean_linker_0, # of connection points: 2
#     Edge 20, Type (0, 0), BuildingBlock: CIFDUS_clean_linker_0, # of connection points: 2
#     Edge 21, Type (0, 0), BuildingBlock: CIFDUS_clean_linker_0, # of connection points: 2
#     Edge 22, Type (0, 0), BuildingBlock: CIFDUS_clean_linker_0, # of connection points: 2
#     Edge 23, Type (0, 0), BuildingBlock: CIFDUS_clean_linker_0, # of connection points: 2
#     Edge 24, Type (0, 0), BuildingBlock: CIFDUS_clean_linker_0, # of connection points: 2
#     Edge 25, Type (0, 0), BuildingBlock: CIFDUS_clean_linker_0, # of connection points: 2
#     Edge 26, Type (0, 0), BuildingBlock: CIFDUS_clean_linker_0, # of connection points: 2
#     Edge 27, Type (0, 0), BuildingBlock: CIFDUS_clean_linker_0, # of connection points: 2
#     Edge 28, Type (0, 0), BuildingBlock: CIFDUS_clean_linker_0, # of connection points: 2
#     Edge 29, Type (0, 0), BuildingBlock: CIFDUS_clean_linker_0, # of connection points: 2
#     Edge 30, Type (0, 0), BuildingBlock: CIFDUS_clean_linker_0, # of connection points: 2
#     Edge 31, Type (0, 0), BuildingBlock: CIFDUS_clean_linker_0, # of connection points: 2
#     Edge 32, Type (0, 0), BuildingBlock: CIFDUS_clean_linker_0, # of connection points: 2
#     Edge 33, Type (0, 0), BuildingBlock: CIFDUS_clean_linker_0, # of connection points: 2
#     Edge 34, Type (0, 0), BuildingBlock: CIFDUS_clean_linker_0, # of connection points: 2
#     Edge 35, Type (0, 0), BuildingBlock: CIFDUS_clean_linker_0, # of connection points: 2
#     Edge 36, Type (0, 0), BuildingBlock: CIFDUS_clean_linker_0, # of connection points: 2
#     Edge 37, Type (0, 0), BuildingBlock: CIFDUS_clean_linker_0, # of connection points: 2
#     Edge 38, Type (0, 0), BuildingBlock: CIFDUS_clean_linker_0, # of connection points: 2
#     Edge 39, Type (0, 0), BuildingBlock: CIFDUS_clean_linker_0, # of connection points: 2
#     Edge 40, Type (0, 0), BuildingBlock: CIFDUS_clean_linker_0, # of connection points: 2
#     Edge 41, Type (0, 0), BuildingBlock: CIFDUS_clean_linker_0, # of connection points: 2
#     Edge 42, Type (0, 0), BuildingBlock: CIFDUS_clean_linker_0, # of connection points: 2
#     Edge 43, Type (0, 0), BuildingBlock: CIFDUS_clean_linker_0, # of connection points: 2
#     Edge 44, Type (0, 0), BuildingBlock: CIFDUS_clean_linker_0, # of connection points: 2
#     Edge 45, Type (0, 0), BuildingBlock: CIFDUS_clean_linker_0, # of connection points: 2
#     Edge 46, Type (0, 0), BuildingBlock: CIFDUS_clean_linker_0, # of connection points: 2
#     Edge 47, Type (0, 0), BuildingBlock: CIFDUS_clean_linker_0, # of connection points: 2
# Relax obj value: 0.039
# Max RMSD: 0.066
# Mean RMSD: 0.066
data_MOF--net-ukb--node1-QUQFOY_clean_sbu_1--edge1-CIFDUS_clean_linker_0
_symmetry_space_group_name_H-M    P1
_symmetry_Int_Tables_number       1
_symmetry_cell_setting            triclinic
loop_
_symmetry_equiv_pos_as_xyz
'x, y, z'
_cell_length_a     40.229237
_cell_length_b     40.14985
_cell_length_c     37.882599
_cell_angle_alpha  89.938143
_cell_angle_beta   89.962309
_cell_angle_gamma 89.961956
loop_
_atom_site_label
_atom_site_type_symbol
_atom_site_fract_x
_atom_site_fract_y
_atom_site_fract_z
_atom_type_partial_charge
O0 O 0.56872 0.25698 0.19553 0.0
Cd1 Cd 0.56513 0.21198 0.16953 0.0
Cd2 Cd 0.52597 0.20139 0.22952 0.0
O3 O 0.53369 0.25126 0.2401 0.0
O4 O 0.58767 0.22311 0.12396 0.0
O5 O 0.53445 0.21041 0.12706 0.0
C6 C 0.55943 0.22023 0.10831 0.0
C7 C 0.47415 0.17523 0.23052 0.0
C8 C 0.55407 0.26884 0.22247 0.0
C9 C 0.58868 0.16043 0.22144 0.0
O10 O 0.56506 0.17044 0.24104 0.0
O11 O 0.59196 0.1719 0.19024 0.0
O12 O 0.48852 0.1847 0.25925 0.0
O13 O 0.48837 0.18256 0.20088 0.0
O14 O 0.34861 0.56711 0.72998 0.0
Cd15 Cd 0.3166 0.52726 0.72781 0.0
Cd16 Cd 0.30105 0.55724 0.6615 0.0
O17 O 0.34115 0.58684 0.67612 0.0
O18 O 0.33476 0.49326 0.76119 0.0
O19 O 0.33228 0.48572 0.70338 0.0
C20 C 0.34133 0.47492 0.7341 0.0
C21 C 0.29043 0.55077 0.60071 0.0
C22 C 0.35584 0.58791 0.70585 0.0
C23 C 0.24788 0.55285 0.72002 0.0
O24 O 0.25734 0.56228 0.68959 0.0
O25 O 0.26749 0.53703 0.74032 0.0
O26 O 0.28734 0.57895 0.61642 0.0
O27 O 0.30101 0.52592 0.61922 0.0
O28 O 0.93583 0.25665 0.18549 0.0
Cd29 Cd 0.93609 0.29894 0.15438 0.0
Cd30 Cd 0.97162 0.31908 0.21832 0.0
O31 O 0.96464 0.27007 0.23314 0.0
O32 O 0.90901 0.28274 0.11367 0.0
O33 O 0.96177 0.29621 0.10801 0.0
C34 C 0.93489 0.28484 0.09391 0.0
C35 C 0.02297 0.346 0.22288 0.0
C36 C 0.9482 0.24897 0.21527 0.0
C37 C 0.90824 0.35547 0.19945 0.0
O38 O 0.93084 0.3497 0.22208 0.0
O39 O 0.90753 0.3396 0.17036 0.0
O40 O 0.00556 0.33894 0.25049 0.0
O41 O 0.01186 0.33632 0.19255 0.0
O42 O 0.16158 0.93477 0.7317 0.0
Cd43 Cd 0.19377 0.97447 0.72982 0.0
Cd44 Cd 0.21177 0.94344 0.66378 0.0
O45 O 0.1708 0.91497 0.67823 0.0
O46 O 0.17471 0.00939 0.76138 0.0
O47 O 0.17923 0.01537 0.70346 0.0
C48 C 0.16922 0.02704 0.73347 0.0
C49 C 0.22441 0.94367 0.60301 0.0
C50 C 0.15507 0.91402 0.70736 0.0
C51 C 0.26289 0.94943 0.72439 0.0
O52 O 0.25452 0.93984 0.69369 0.0
O53 O 0.24244 0.9649 0.74404 0.0
O54 O 0.22637 0.9172 0.62194 0.0
O55 O 0.21434 0.97057 0.61825 0.0
O56 O 0.56992 0.25419 0.82132 0.0
Cd57 Cd 0.56876 0.29861 0.84878 0.0
Cd58 Cd 0.52742 0.31144 0.7877 0.0
O59 O 0.53521 0.26167 0.77668 0.0
O60 O 0.59716 0.28688 0.8903 0.0
O61 O 0.54378 0.29807 0.8956 0.0
C62 C 0.5713 0.28888 0.91016 0.0
C63 C 0.47539 0.33733 0.78431 0.0
C64 C 0.55504 0.24328 0.79409 0.0
C65 C 0.59055 0.35172 0.79675 0.0
O66 O 0.5666 0.34256 0.7772 0.0
O67 O 0.59436 0.33915 0.82738 0.0
O68 O 0.49105 0.32796 0.75631 0.0
O69 O 0.48848 0.33021 0.81456 0.0
O70 O 0.15286 0.5743 0.27877 0.0
Cd71 Cd 0.18447 0.53403 0.27841 0.0
Cd72 Cd 0.20756 0.56673 0.34262 0.0
O73 O 0.16605 0.59543 0.33072 0.0
O74 O 0.16366 0.50128 0.24547 0.0
O75 O 0.16955 0.492 0.30269 0.0
C76 C 0.15849 0.48224 0.27237 0.0
C77 C 0.22359 0.56681 0.40257 0.0
C78 C 0.14835 0.59581 0.3029 0.0
C79 C 0.25409 0.55928 0.27814 0.0
O80 O 0.24801 0.56983 0.30912 0.0
O81 O 0.23234 0.54304 0.26095 0.0
O82 O 0.22503 0.59303 0.38321 0.0
O83 O 0.21239 0.53994 0.38822 0.0
O84 O 0.94303 0.24964 0.81087 0.0
Cd85 Cd 0.94603 0.20438 0.83652 0.0
Cd86 Cd 0.98307 0.1933 0.77491 0.0
O87 O 0.97598 0.24333 0.76465 0.0
O88 O 0.92289 0.2158 0.88156 0.0
O89 O 0.97603 0.20256 0.87959 0.0
C90 C 0.9508 0.21267 0.89778 0.0
C91 C 0.03471 0.16681 0.77425 0.0
C92 C 0.95689 0.26132 0.78338 0.0
C93 C 0.92022 0.15334 0.78504 0.0
O94 O 0.94327 0.16292 0.76445 0.0
O95 O 0.91823 0.16488 0.8163 0.0
O96 O 0.02035 0.17601 0.74538 0.0
O97 O 0.02046 0.17442 0.8038 0.0
O98 O 0.34995 0.94154 0.27587 0.0
Cd99 Cd 0.31773 0.98133 0.27762 0.0
Cd100 Cd 0.30258 0.95337 0.34445 0.0
O101 O 0.34308 0.92392 0.33062 0.0
O102 O 0.33604 0.01633 0.2456 0.0
O103 O 0.33244 0.02226 0.30361 0.0
C104 C 0.34184 0.034 0.27338 0.0
C105 C 0.29147 0.95994 0.40509 0.0
C106 C 0.35758 0.92179 0.30083 0.0
C107 C 0.24914 0.95632 0.28612 0.0
O108 O 0.25881 0.94763 0.31669 0.0
O109 O 0.26865 0.97154 0.26521 0.0
O110 O 0.28875 0.9317 0.38943 0.0
O111 O 0.30205 0.9848 0.38664 0.0
O112 O 0.43342 0.84274 0.78451 0.0
Cd113 Cd 0.47354 0.81097 0.7845 0.0
Cd114 Cd 0.44068 0.79217 0.8529 0.0
O115 O 0.41278 0.83341 0.83773 0.0
O116 O 0.50267 0.82852 0.746 0.0
O117 O 0.51742 0.82874 0.80216 0.0
C118 C 0.52403 0.83663 0.76982 0.0
C119 C 0.43903 0.77858 0.91353 0.0
C120 C 0.41241 0.84926 0.80861 0.0
C121 C 0.44878 0.74116 0.79196 0.0
O122 O 0.43858 0.74963 0.82243 0.0
O123 O 0.4642 0.76165 0.77228 0.0
O124 O 0.41322 0.77684 0.89369 0.0
O125 O 0.46623 0.78911 0.89936 0.0
O126 O 0.65797 0.44161 0.28189 0.0
Cd127 Cd 0.69102 0.4805 0.28448 0.0
Cd128 Cd 0.70706 0.44935 0.3493 0.0
O129 O 0.66582 0.42101 0.33529 0.0
O130 O 0.67304 0.51573 0.25253 0.0
O131 O 0.67687 0.52173 0.31047 0.0
C132 C 0.6674 0.53348 0.28028 0.0
C133 C 0.71788 0.45649 0.40998 0.0
C134 C 0.65057 0.42073 0.30585 0.0
C135 C 0.75916 0.45293 0.28978 0.0
O136 O 0.75025 0.44319 0.3203 0.0
O137 O 0.73949 0.46972 0.27044 0.0
O138 O 0.72052 0.42802 0.39472 0.0
O139 O 0.70791 0.48128 0.39101 0.0
O140 O 0.07529 0.65873 0.77769 0.0
Cd141 Cd 0.03519 0.69046 0.78052 0.0
Cd142 Cd 0.06423 0.70609 0.84588 0.0
O143 O 0.09406 0.66586 0.8319 0.0
O144 O 0.99981 0.67153 0.74963 0.0
O145 O 0.99543 0.67479 0.80783 0.0
C146 C 0.98312 0.66518 0.77798 0.0
C147 C 0.05642 0.71746 0.90622 0.0
C148 C 0.09567 0.65131 0.8021 0.0
C149 C 0.05943 0.75948 0.78771 0.0
O150 O 0.06924 0.74992 0.81793 0.0
O151 O 0.04375 0.73974 0.7675 0.0
O152 O 0.08491 0.72033 0.89115 0.0
O153 O 0.03212 0.70633 0.8874 0.0
O154 O 0.85148 0.07568 0.28442 0.0
Cd155 Cd 0.81928 0.03609 0.28662 0.0
Cd156 Cd 0.79697 0.07241 0.34822 0.0
O157 O 0.83871 0.10024 0.33477 0.0
O158 O 0.83939 1.00222 0.25443 0.0
O159 O 0.83412 0.99451 0.31195 0.0
C160 C 0.84481 0.98389 0.2818 0.0
C161 C 0.78229 0.0723 0.40866 0.0
C162 C 0.85632 0.09862 0.3069 0.0
C163 C 0.7504 0.06345 0.28427 0.0
O164 O 0.75643 0.07548 0.31467 0.0
O165 O 0.77178 0.04549 0.26848 0.0
O166 O 0.78042 0.09864 0.38946 0.0
O167 O 0.79299 0.04545 0.3938 0.0
O168 O 0.44131 0.6656 0.24624 0.0
Cd169 Cd 0.48029 0.69722 0.23607 0.0
Cd170 Cd 0.44501 0.70596 0.17367 0.0
O171 O 0.41777 0.66603 0.19364 0.0
O172 O 0.51785 0.68127 0.26604 0.0
O173 O 0.51833 0.67913 0.20763 0.0
C174 C 0.53257 0.67212 0.23734 0.0
C175 C 0.45159 0.71273 0.11242 0.0
C176 C 0.41923 0.65494 0.22511 0.0
C177 C 0.45232 0.76432 0.22545 0.0
O178 O 0.43955 0.75164 0.1979 0.0
O179 O 0.47154 0.74726 0.24503 0.0
O180 O 0.4231 0.71551 0.12757 0.0
O181 O 0.47652 0.70398 0.1318 0.0
O182 O 0.8539 0.43711 0.73199 0.0
Cd183 Cd 0.82114 0.47637 0.73215 0.0
Cd184 Cd 0.7975 0.44226 0.6696 0.0
O185 O 0.8402 0.41498 0.68067 0.0
O186 O 0.84184 0.51039 0.76359 0.0
O187 O 0.83431 0.51816 0.70633 0.0
C188 C 0.84592 0.52887 0.73606 0.0
C189 C 0.78087 0.44184 0.60979 0.0
C190 C 0.85854 0.41549 0.70802 0.0
C191 C 0.75243 0.44905 0.73529 0.0
O192 O 0.75784 0.43822 0.70425 0.0
O193 O 0.77417 0.46626 0.75137 0.0
O194 O 0.78002 0.41562 0.62922 0.0
O195 O 0.7916 0.46894 0.62407 0.0
O196 O 0.0739 0.8527 0.2318 0.0
Cd197 Cd 0.03315 0.82185 0.22979 0.0
Cd198 Cd 0.06455 0.80299 0.16294 0.0
O199 O 0.09352 0.84338 0.17821 0.0
O200 O 0.99911 0.84155 0.26198 0.0
O201 O 0.99278 0.83844 0.20403 0.0
C202 C 0.98158 0.8482 0.23433 0.0
C203 C 0.0665 0.78976 0.10237 0.0
C204 C 0.09478 0.85889 0.20747 0.0
C205 C 0.05519 0.75161 0.22329 0.0
O206 O 0.06548 0.75999 0.19283 0.0
O207 O 0.04063 0.7725 0.24319 0.0
O208 O 0.0921 0.78742 0.12244 0.0
O209 O 0.03934 0.8007 0.11626 0.0
O210 O 0.65413 0.06812 0.73384 0.0
Cd211 Cd 0.68646 0.02843 0.73428 0.0
Cd212 Cd 0.70678 0.0615 0.66912 0.0
O213 O 0.66531 0.09009 0.68167 0.0
O214 O 0.66851 0.9993 0.77261 0.0
O215 O 0.67003 0.98382 0.71674 0.0
C216 C 0.66151 0.97741 0.74893 0.0
C217 C 0.71995 0.05515 0.60873 0.0
C218 C 0.64847 0.0898 0.71013 0.0
C219 C 0.7554 0.05637 0.73168 0.0
O220 O 0.74827 0.06685 0.7009 0.0
O221 O 0.73467 0.03915 0.74929 0.0
O222 O 0.72255 0.08329 0.62467 0.0
O223 O 0.70897 0.03023 0.62686 0.0
H224 H 0.43983 0.15541 0.28882 0.0
H225 H 0.44173 0.14564 0.17537 0.0
H226 H 0.39847 0.10306 0.17847 0.0
H227 H 0.36438 0.06464 0.21379 0.0
H228 H 0.36344 0.07365 0.32733 0.0
H229 H 0.40179 0.12065 0.32371 0.0
C230 C 0.43045 0.14436 0.26469 0.0
C231 C 0.44429 0.15355 0.23192 0.0
C232 C 0.40591 0.1195 0.2667 0.0
C233 C 0.43166 0.13903 0.20096 0.0
C234 C 0.40699 0.11453 0.20272 0.0
C235 C 0.37219 0.07714 0.23774 0.0
C236 C 0.36125 0.06535 0.27082 0.0
C237 C 0.39459 0.10394 0.23551 0.0
C238 C 0.37152 0.08205 0.30153 0.0
C239 C 0.39357 0.1089 0.2995 0.0
H240 H 0.36291 0.44608 0.79507 0.0
H241 H 0.36518 0.43452 0.68182 0.0
H242 H 0.40451 0.3885 0.68771 0.0
H243 H 0.44239 0.35536 0.72454 0.0
H244 H 0.44094 0.36758 0.83772 0.0
H245 H 0.3969 0.40919 0.8323 0.0
C246 C 0.37164 0.43322 0.77167 0.0
C247 C 0.3613 0.44402 0.73801 0.0
C248 C 0.39459 0.40698 0.77522 0.0
C249 C 0.37276 0.42687 0.70803 0.0
C250 C 0.39538 0.40059 0.71137 0.0
C251 C 0.43214 0.36674 0.7481 0.0
C252 C 0.44524 0.35852 0.78149 0.0
C253 C 0.4071 0.391 0.74477 0.0
C254 C 0.43145 0.37344 0.8117 0.0
C255 C 0.40633 0.39739 0.80861 0.0
H256 H 0.05491 0.36501 0.2829 0.0
H257 H 0.0585 0.37494 0.1695 0.0
H258 H 0.10295 0.41606 0.17476 0.0
H259 H 0.13698 0.45301 0.21173 0.0
H260 H 0.1333 0.44319 0.32514 0.0
H261 H 0.093 0.39799 0.31963 0.0
C262 C 0.0657 0.37584 0.25929 0.0
C263 C 0.0531 0.36712 0.22586 0.0
C264 C 0.09112 0.39967 0.26251 0.0
C265 C 0.06761 0.38121 0.19556 0.0
C266 C 0.09296 0.40486 0.19855 0.0
C267 C 0.12771 0.44071 0.23526 0.0
C268 C 0.13793 0.45175 0.26883 0.0
C269 C 0.10434 0.41487 0.23191 0.0
C270 C 0.12584 0.4353 0.29898 0.0
C271 C 0.10265 0.40952 0.29586 0.0
H272 H 0.14579 0.05759 0.79263 0.0
H273 H 0.1476 0.06626 0.67905 0.0
H274 H 0.10849 0.11272 0.68201 0.0
H275 H 0.06961 0.14706 0.71634 0.0
H276 H 0.06697 0.13766 0.82983 0.0
H277 H 0.11083 0.09563 0.82737 0.0
C278 C 0.138 0.06991 0.76852 0.0
C279 C 0.14941 0.05817 0.73563 0.0
C280 C 0.11517 0.09639 0.77037 0.0
C281 C 0.13917 0.07463 0.70471 0.0
C282 C 0.11668 0.10116 0.70637 0.0
C283 C 0.07894 0.13619 0.74061 0.0
C284 C 0.06473 0.14532 0.7732 0.0
C285 C 0.10387 0.11168 0.73898 0.0
C286 C 0.07732 0.13107 0.80437 0.0
C287 C 0.10234 0.1069 0.80298 0.0
H288 H 0.56647 0.86889 0.81426 0.0
H289 H 0.5475 0.85059 0.70388 0.0
H290 H 0.59096 0.89008 0.68754 0.0
H291 H 0.63054 0.93395 0.70446 0.0
H292 H 0.64769 0.95393 0.81486 0.0
H293 H 0.60919 0.9096 0.83119 0.0
C294 C 0.57222 0.87312 0.78664 0.0
C295 C 0.55356 0.85692 0.76038 0.0
C296 C 0.59683 0.89645 0.77736 0.0
C297 C 0.56131 0.86282 0.72469 0.0
C298 C 0.58615 0.8855 0.71528 0.0
C299 C 0.62628 0.92823 0.73208 0.0
C300 C 0.64185 0.94742 0.75835 0.0
C301 C 0.6035 0.90309 0.74137 0.0
C302 C 0.63592 0.93972 0.79404 0.0
C303 C 0.61382 0.91438 0.80346 0.0
H304 H 0.56726 0.65315 0.29571 0.0
H305 H 0.56586 0.64337 0.18226 0.0
H306 H 0.61012 0.6018 0.18539 0.0
H307 H 0.64485 0.56402 0.22071 0.0
H308 H 0.64533 0.57293 0.33426 0.0
H309 H 0.60609 0.61925 0.33063 0.0
C310 C 0.57696 0.64232 0.27159 0.0
C311 C 0.56296 0.65118 0.23881 0.0
C312 C 0.6021 0.61805 0.27362 0.0
C313 C 0.57603 0.63698 0.20785 0.0
C314 C 0.60128 0.61307 0.20963 0.0
C315 C 0.63677 0.57639 0.24467 0.0
C316 C 0.6478 0.56472 0.27775 0.0
C317 C 0.61383 0.60275 0.24243 0.0
C318 C 0.63719 0.58124 0.30846 0.0
C319 C 0.61462 0.60769 0.30642 0.0
H320 H 0.94925 0.64549 0.71938 0.0
H321 H 0.94838 0.6383 0.83307 0.0
H322 H 0.90334 0.59765 0.83018 0.0
H323 H 0.86838 0.55992 0.7952 0.0
H324 H 0.86945 0.56679 0.6815 0.0
H325 H 0.90991 0.61204 0.68463 0.0
C326 C 0.93891 0.6354 0.74357 0.0
C327 C 0.95248 0.64469 0.77639 0.0
C328 C 0.91317 0.61178 0.74171 0.0
C329 C 0.93853 0.63155 0.80746 0.0
C330 C 0.91284 0.60816 0.80582 0.0
C331 C 0.87709 0.57162 0.7711 0.0
C332 C 0.86615 0.55968 0.73814 0.0
C333 C 0.9006 0.59744 0.77307 0.0
C334 C 0.87749 0.57537 0.70721 0.0
C335 C 0.90078 0.60118 0.70897 0.0
H336 H 0.86586 0.95326 0.22177 0.0
H337 H 0.87067 0.94619 0.33534 0.0
H338 H 0.91148 0.90131 0.33057 0.0
H339 H 0.94981 0.86805 0.29426 0.0
H340 H 0.94515 0.87542 0.18068 0.0
H341 H 0.90006 0.91593 0.1854 0.0
C342 C 0.87547 0.94161 0.24551 0.0
C343 C 0.86544 0.95336 0.27888 0.0
C344 C 0.89917 0.916 0.24258 0.0
C345 C 0.87797 0.93774 0.30932 0.0
C346 C 0.90146 0.91215 0.30662 0.0
C347 C 0.93866 0.87818 0.2705 0.0
C348 C 0.95114 0.86893 0.23716 0.0
C349 C 0.91287 0.90169 0.2734 0.0
C350 C 0.93616 0.88212 0.20668 0.0
C351 C 0.91043 0.90542 0.20935 0.0
H352 H 0.56557 0.28951 0.28967 0.0
H353 H 0.56549 0.32274 0.18142 0.0
H354 H 0.59174 0.37504 0.19876 0.0
H355 H 0.6208 0.40793 0.24308 0.0
H356 H 0.62566 0.37314 0.35082 0.0
H357 H 0.5913 0.32506 0.33543 0.0
C358 C 0.57055 0.30864 0.27014 0.0
C359 C 0.56357 0.30247 0.23437 0.0
C360 C 0.58699 0.33811 0.28012 0.0
C361 C 0.57067 0.32707 0.20911 0.0
C362 C 0.58581 0.35686 0.21898 0.0
C363 C 0.614 0.39015 0.26341 0.0
C364 C 0.62613 0.39405 0.298 0.0
C365 C 0.59508 0.36215 0.25419 0.0
C366 C 0.61692 0.37068 0.32391 0.0
C367 C 0.59729 0.34312 0.31512 0.0
H368 H 0.22861 0.56865 0.78699 0.0
H369 H 0.19287 0.56177 0.67991 0.0
H370 H 0.14085 0.58853 0.69697 0.0
H371 H 0.10832 0.61934 0.74039 0.0
H372 H 0.14489 0.62981 0.84691 0.0
H373 H 0.19352 0.59603 0.83209 0.0
C374 C 0.20908 0.57234 0.76765 0.0
C375 C 0.21457 0.56333 0.73224 0.0
C376 C 0.17955 0.58882 0.77742 0.0
C377 C 0.18926 0.56863 0.70731 0.0
C378 C 0.15955 0.58403 0.71701 0.0
C379 C 0.12667 0.61396 0.76057 0.0
C380 C 0.12303 0.62747 0.79462 0.0
C381 C 0.15487 0.59515 0.7517 0.0
C382 C 0.14709 0.61997 0.8204 0.0
C383 C 0.17497 0.60067 0.81194 0.0
H384 H 0.89039 0.10748 0.24579 0.0
H385 H 0.87542 0.15112 0.34869 0.0
H386 H 0.9076 0.19999 0.33086 0.0
H387 H 0.93365 0.23334 0.28342 0.0
H388 H 0.94376 0.19087 0.17946 0.0
H389 H 0.92031 0.13839 0.20043 0.0
C390 C 0.89456 0.12738 0.26462 0.0
C391 C 0.88014 0.12571 0.29843 0.0
C392 C 0.91215 0.15578 0.25386 0.0
C393 C 0.88598 0.1518 0.32239 0.0
C394 C 0.90434 0.17982 0.31218 0.0
C395 C 0.93148 0.21225 0.26569 0.0
C396 C 0.94037 0.21585 0.22998 0.0
C397 C 0.91665 0.18254 0.27762 0.0
C398 C 0.93698 0.18861 0.20705 0.0
C399 C 0.92346 0.15868 0.21899 0.0
H400 H 0.27976 0.93183 0.79153 0.0
H401 H 0.31962 0.94326 0.68649 0.0
H402 H 0.37136 0.91663 0.70477 0.0
H403 H 0.40233 0.88423 0.74816 0.0
H404 H 0.36155 0.86893 0.85236 0.0
H405 H 0.31337 0.90313 0.83699 0.0
C406 C 0.30013 0.92919 0.77297 0.0
C407 C 0.29592 0.9394 0.73771 0.0
C408 C 0.32946 0.9127 0.78335 0.0
C409 C 0.32229 0.93546 0.71374 0.0
C410 C 0.35181 0.92012 0.72413 0.0
C411 C 0.38317 0.88866 0.76776 0.0
C412 C 0.38547 0.87362 0.80124 0.0
C413 C 0.35522 0.90766 0.75851 0.0
C414 C 0.36039 0.87994 0.82628 0.0
C415 C 0.33275 0.89947 0.81749 0.0
H416 H 0.56768 0.22366 0.72677 0.0
H417 H 0.56314 0.1881 0.83408 0.0
H418 H 0.5877 0.1351 0.81617 0.0
H419 H 0.61676 0.10206 0.77195 0.0
H420 H 0.62651 0.13911 0.66543 0.0
H421 H 0.5934 0.18811 0.68091 0.0
C422 C 0.57131 0.20389 0.74593 0.0
C423 C 0.56356 0.20957 0.78163 0.0
C424 C 0.58685 0.17399 0.73568 0.0
C425 C 0.56893 0.18415 0.80646 0.0
C426 C 0.5831 0.15395 0.79626 0.0
C427 C 0.61127 0.12053 0.75187 0.0
C428 C 0.62443 0.11698 0.71764 0.0
C429 C 0.59318 0.14906 0.76121 0.0
C430 C 0.61693 0.14127 0.69206 0.0
C431 C 0.59804 0.16936 0.70091 0.0
H432 H 0.36847 0.625 0.18853 0.0
H433 H 0.41216 0.63223 0.29242 0.0
H434 H 0.36658 0.60014 0.31715 0.0
H435 H 0.31164 0.5751 0.31074 0.0
H436 H 0.26723 0.56684 0.20756 0.0
H437 H 0.31597 0.59363 0.18111 0.0
C438 C 0.36823 0.6192 0.21649 0.0
C439 C 0.39356 0.63157 0.23858 0.0
C440 C 0.34174 0.6006 0.23078 0.0
C441 C 0.39296 0.62341 0.27472 0.0
C442 C 0.36682 0.60504 0.28901 0.0
C443 C 0.31282 0.5787 0.28238 0.0
C444 C 0.28572 0.56937 0.26121 0.0
C445 C 0.34068 0.59429 0.26748 0.0
C446 C 0.2878 0.57378 0.22446 0.0
C447 C 0.31556 0.58934 0.20936 0.0
H448 H 0.89275 0.40223 0.76812 0.0
H449 H 0.87965 0.36792 0.66108 0.0
H450 H 0.91411 0.31914 0.67362 0.0
H451 H 0.94192 0.28273 0.71724 0.0
H452 H 0.95002 0.31533 0.82527 0.0
H453 H 0.92416 0.36849 0.81002 0.0
C454 C 0.89784 0.38442 0.74729 0.0
C455 C 0.88331 0.38862 0.7138 0.0
C456 C 0.91677 0.35598 0.75497 0.0
C457 C 0.89026 0.3652 0.6872 0.0
C458 C 0.90995 0.33725 0.69436 0.0
C459 C 0.9388 0.30191 0.73712 0.0
C460 C 0.94789 0.29533 0.77226 0.0
C461 C 0.92251 0.33186 0.72845 0.0
C462 C 0.9432 0.31999 0.79804 0.0
C463 C 0.92827 0.35027 0.78937 0.0
H464 H 0.10866 0.89101 0.26882 0.0
H465 H 0.14358 0.87951 0.16174 0.0
H466 H 0.19277 0.91275 0.17545 0.0
H467 H 0.22876 0.94003 0.21966 0.0
H468 H 0.1947 0.94803 0.32732 0.0
H469 H 0.1422 0.9217 0.31144 0.0
C470 C 0.12675 0.89608 0.24828 0.0
C471 C 0.12248 0.88243 0.21439 0.0
C472 C 0.15531 0.91457 0.25651 0.0
C473 C 0.14627 0.88946 0.18815 0.0
C474 C 0.17448 0.90845 0.19597 0.0
C475 C 0.20951 0.93665 0.23939 0.0
C476 C 0.21562 0.94586 0.27462 0.0
C477 C 0.17968 0.92045 0.23031 0.0
C478 C 0.19064 0.94098 0.30006 0.0
C479 C 0.16064 0.92584 0.29103 0.0
H480 H 0.38758 0.59975 0.76779 0.0
H481 H 0.37658 0.6384 0.66205 0.0
H482 H 0.40881 0.68769 0.67819 0.0
H483 H 0.43445 0.72277 0.72438 0.0
H484 H 0.44159 0.6849 0.83072 0.0
H485 H 0.41699 0.63225 0.81218 0.0
C486 C 0.39255 0.61868 0.74804 0.0
C487 C 0.37928 0.61545 0.71385 0.0
C488 C 0.41036 0.64727 0.7577 0.0
C489 C 0.38625 0.64027 0.68865 0.0
C490 C 0.40464 0.66854 0.69788 0.0
C491 C 0.43131 0.70266 0.74323 0.0
C492 C 0.4397 0.70772 0.77888 0.0
C493 C 0.41604 0.67275 0.73261 0.0
C494 C 0.43514 0.68164 0.80317 0.0
C495 C 0.42098 0.65157 0.79262 0.0
H496 H 0.89762 0.38595 0.2624 0.0
H497 H 0.85714 0.37744 0.15729 0.0
H498 H 0.80905 0.41086 0.17489 0.0
H499 H 0.77586 0.43774 0.22191 0.0
H500 H 0.81528 0.44215 0.32767 0.0
H501 H 0.86655 0.41552 0.30793 0.0
C502 C 0.87855 0.3917 0.2431 0.0
C503 C 0.88098 0.37893 0.2086 0.0
C504 C 0.85063 0.41018 0.25361 0.0
C505 C 0.8559 0.38675 0.18408 0.0
C506 C 0.82833 0.40584 0.19415 0.0
C507 C 0.796 0.43349 0.24039 0.0
C508 C 0.79182 0.44189 0.27619 0.0
C509 C 0.82505 0.41704 0.22908 0.0
C510 C 0.81789 0.4358 0.30001 0.0
C511 C 0.84717 0.42049 0.28876 0.0
H512 H 0.07461 0.77972 0.72088 0.0
H513 H 0.06691 0.8144 0.8283 0.0
H514 H 0.09232 0.86728 0.81172 0.0
H515 H 0.12262 0.90077 0.76867 0.0
H516 H 0.13413 0.86517 0.66187 0.0
H517 H 0.10113 0.81586 0.6761 0.0
C518 C 0.07782 0.7992 0.74039 0.0
C519 C 0.06903 0.79317 0.77576 0.0
C520 C 0.09356 0.82923 0.7309 0.0
C521 C 0.07367 0.81843 0.80093 0.0
C522 C 0.08829 0.84863 0.79151 0.0
C523 C 0.11757 0.88252 0.74829 0.0
C524 C 0.13121 0.88659 0.71436 0.0
C525 C 0.0993 0.85387 0.75685 0.0
C526 C 0.12419 0.86263 0.68831 0.0
C527 C 0.10535 0.83434 0.69644 0.0
H528 H 0.64042 0.1286 0.18796 0.0
H529 H 0.59359 0.14057 0.28986 0.0
H530 H 0.63784 0.10888 0.3176 0.0
H531 H 0.69243 0.08243 0.31428 0.0
H532 H 0.73958 0.06868 0.21311 0.0
H533 H 0.69249 0.09576 0.18383 0.0
C534 C 0.63972 0.12394 0.21615 0.0
C535 C 0.61385 0.13748 0.23674 0.0
C536 C 0.66538 0.1054 0.2322 0.0
C537 C 0.6132 0.13078 0.27323 0.0
C538 C 0.63858 0.11264 0.28927 0.0
C539 C 0.69217 0.0849 0.28576 0.0
C540 C 0.71958 0.07389 0.26596 0.0
C541 C 0.66517 0.10054 0.26918 0.0
C542 C 0.71873 0.07689 0.22898 0.0
C543 C 0.69192 0.09262 0.21224 0.0
H544 H 0.44115 0.78883 0.29145 0.0
H545 H 0.43966 0.81569 0.18121 0.0
H546 H 0.4136 0.86889 0.19552 0.0
H547 H 0.38558 0.90469 0.23818 0.0
H548 H 0.38287 0.87656 0.34816 0.0
H549 H 0.41637 0.82722 0.33523 0.0
C550 C 0.4358 0.80674 0.27075 0.0
C551 C 0.44228 0.79843 0.23535 0.0
C552 C 0.41962 0.83685 0.27906 0.0
C553 C 0.43479 0.82156 0.20865 0.0
C554 C 0.41979 0.85191 0.2168 0.0
C555 C 0.39266 0.88808 0.25949 0.0
C556 C 0.38141 0.89426 0.29405 0.0
C557 C 0.41116 0.85936 0.25175 0.0
C558 C 0.39095 0.87236 0.32125 0.0
C559 C 0.41009 0.84407 0.31388 0.0
H560 H 0.69384 0.43196 0.7055 0.0
H561 H 0.74257 0.44114 0.80635 0.0
H562 H 0.69552 0.41363 0.83525 0.0
H563 H 0.64301 0.38172 0.83061 0.0
H564 H 0.5946 0.37424 0.72913 0.0
H565 H 0.63885 0.40642 0.70199 0.0
C566 C 0.69395 0.42839 0.73389 0.0
C567 C 0.72178 0.43824 0.75368 0.0
C568 C 0.66696 0.41251 0.75024 0.0
C569 C 0.7214 0.43383 0.7905 0.0
C570 C 0.6946 0.41786 0.80701 0.0
C571 C 0.64195 0.38747 0.80266 0.0
C572 C 0.61564 0.37504 0.78196 0.0
C573 C 0.66762 0.40625 0.78698 0.0
C574 C 0.61455 0.38315 0.74581 0.0
C575 C 0.63994 0.40157 0.73012 0.0
H576 H 0.11235 0.60812 0.24368 0.0
H577 H 0.13145 0.64648 0.34813 0.0
H578 H 0.09945 0.69658 0.33433 0.0
H579 H 0.07224 0.73258 0.28991 0.0
H580 H 0.05735 0.69515 0.18444 0.0
H581 H 0.08098 0.64152 0.20147 0.0
C582 C 0.10914 0.62714 0.2637 0.0
C583 C 0.1247 0.62362 0.29675 0.0
C584 C 0.09151 0.65625 0.25529 0.0
C585 C 0.12002 0.64858 0.32235 0.0
C586 C 0.10176 0.67732 0.31445 0.0
C587 C 0.07343 0.71235 0.271 0.0
C588 C 0.06318 0.71776 0.23597 0.0
C589 C 0.08826 0.68189 0.28064 0.0
C590 C 0.06524 0.69155 0.21152 0.0
C591 C 0.07886 0.66093 0.2212 0.0
H592 H 0.87005 0.1219 0.82128 0.0
H593 H 0.91162 0.13401 0.71685 0.0
H594 H 0.86583 0.10261 0.69168 0.0
H595 H 0.81155 0.07602 0.69825 0.0
H596 H 0.7697 0.06231 0.80208 0.0
H597 H 0.81816 0.08945 0.82845 0.0
C598 C 0.86927 0.11736 0.79308 0.0
C599 C 0.89413 0.13077 0.77105 0.0
C600 C 0.84273 0.09903 0.77855 0.0
C601 C 0.89284 0.12425 0.73456 0.0
C602 C 0.86657 0.1063 0.72002 0.0
C603 C 0.81322 0.07857 0.7267 0.0
C604 C 0.78691 0.06748 0.74811 0.0
C605 C 0.84103 0.09423 0.74163 0.0
C606 C 0.78965 0.07059 0.78497 0.0
C607 C 0.81725 0.08633 0.80006 0.0
H608 H 0.60781 0.24226 0.06428 0.0
H609 H 0.50255 0.22212 0.06819 0.0
H610 H 0.49635 0.24333 0.00788 0.0
H611 H 0.52112 0.26797 0.95382 0.0
H612 H 0.62671 0.28665 0.95076 0.0
H613 H 0.63234 0.26616 0.01103 0.0
C614 C 0.58349 0.24228 0.05196 0.0
C615 C 0.55571 0.23047 0.0708 0.0
C616 C 0.5801 0.25467 0.01746 0.0
C617 C 0.52441 0.23085 0.05429 0.0
C618 C 0.52082 0.24317 0.01984 0.0
C619 C 0.54525 0.26788 0.96655 0.0
C620 C 0.57342 0.27904 0.94784 0.0
C621 C 0.54848 0.25536 1.0012 0.0
C622 C 0.60462 0.27828 0.96452 0.0
C623 C 0.6079 0.26644 0.99898 0.0
H624 H 0.24153 0.51503 0.44609 0.0
H625 H 0.23167 0.62207 0.44237 0.0
H626 H 0.25232 0.62632 0.5025 0.0
H627 H 0.27308 0.60025 0.55607 0.0
H628 H 0.28456 0.49354 0.56123 0.0
H629 H 0.26383 0.48859 0.50057 0.0
C630 C 0.24374 0.5392 0.45859 0.0
C631 C 0.23492 0.56817 0.43975 0.0
C632 C 0.2562 0.5416 0.49331 0.0
C633 C 0.23828 0.59937 0.45618 0.0
C634 C 0.25014 0.60188 0.4906 0.0
C635 C 0.27122 0.57584 0.54398 0.0
C636 C 0.28034 0.54731 0.56322 0.0
C637 C 0.25926 0.57323 0.50935 0.0
C638 C 0.27783 0.51594 0.54698 0.0
C639 C 0.26582 0.5131 0.51234 0.0
H640 H 0.9862 0.2645 0.05136 0.0
H641 H 0.87981 0.2783 0.05349 0.0
H642 H 0.87539 0.25601 0.99392 0.0
H643 H 0.90125 0.23251 0.94134 0.0
H644 H 0.00736 0.21718 0.93821 0.0
H645 H 0.01231 0.23958 0.99814 0.0
C646 C 0.96215 0.26288 0.03859 0.0
C647 C 0.9334 0.27327 0.0568 0.0
C648 C 0.95965 0.24936 1.00433 0.0
C649 C 0.90233 0.27054 0.04011 0.0
C650 C 0.89974 0.2577 0.00604 0.0
C651 C 0.9255 0.23381 0.95376 0.0
C652 C 0.95388 0.2231 0.93524 0.0
C653 C 0.92816 0.24688 0.98799 0.0
C654 C 0.98506 0.22505 0.95189 0.0
C655 C 0.98792 0.23806 0.9861 0.0
H656 H 0.27071 0.9108 0.44842 0.0
H657 H 0.28795 0.01681 0.44555 0.0
H658 H 0.26716 0.02175 0.50623 0.0
H659 H 0.24386 0.99542 0.56032 0.0
H660 H 0.22812 0.88906 0.5616 0.0
H661 H 0.24812 0.88494 0.50117 0.0
C662 C 0.27008 0.93506 0.46099 0.0
C663 C 0.28094 0.96338 0.44244 0.0
C664 C 0.25804 0.93768 0.49558 0.0
C665 C 0.27989 0.99456 0.45928 0.0
C666 C 0.26785 0.9974 0.49392 0.0
C667 C 0.24455 0.97146 0.54717 0.0
C668 C 0.23441 0.9426 0.56543 0.0
C669 C 0.25669 0.96911 0.51232 0.0
C670 C 0.23581 0.91164 0.54822 0.0
C671 C 0.24731 0.90921 0.51365 0.0
H672 H 0.48978 0.76013 0.95785 0.0
H673 H 0.38322 0.77204 0.95281 0.0
H674 H 0.37784 0.7514 0.01295 0.0
H675 H 0.40285 0.73009 0.06689 0.0
H676 H 0.50912 0.71702 0.07336 0.0
H677 H 0.51509 0.73744 0.01267 0.0
C678 C 0.46546 0.75843 0.97009 0.0
C679 C 0.43696 0.76779 0.95088 0.0
C680 C 0.46242 0.74596 1.00478 0.0
C681 C 0.40557 0.76503 0.96694 0.0
C682 C 0.40242 0.75315 1.00135 0.0
C683 C 0.42737 0.73145 0.05505 0.0
C684 C 0.45548 0.72198 0.0747 0.0
C685 C 0.4306 0.74342 0.02043 0.0
C686 C 0.48702 0.72398 0.0588 0.0
C687 C 0.49046 0.73585 0.02415 0.0
H688 H 0.7646 0.49335 0.5651 0.0
H689 H 0.77159 0.38615 0.57087 0.0
H690 H 0.75201 0.3815 0.51039 0.0
H691 H 0.73319 0.40725 0.45582 0.0
H692 H 0.72461 0.51413 0.44859 0.0
H693 H 0.74412 0.51948 0.50966 0.0
C694 C 0.76195 0.46904 0.553 0.0
C695 C 0.76969 0.44016 0.57254 0.0
C696 C 0.75017 0.46642 0.51803 0.0
C697 C 0.76581 0.4088 0.55657 0.0
C698 C 0.75457 0.40606 0.52192 0.0
C699 C 0.73544 0.43179 0.46754 0.0
C700 C 0.72749 0.46024 0.44758 0.0
C701 C 0.74665 0.43463 0.50245 0.0
C702 C 0.73046 0.49179 0.46338 0.0
C703 C 0.74176 0.49486 0.49826 0.0
H704 H 0.0163 0.76896 0.0587 0.0
H705 H 0.12223 0.78555 0.0628 0.0
H706 H 0.12828 0.76388 1.00318 0.0
H707 H 0.10416 0.73955 0.9504 0.0
H708 H 0.99861 0.72135 0.94494 0.0
H709 H 0.99179 0.74383 1.0047 0.0
C710 C 0.04059 0.76812 0.04631 0.0
C711 C 0.06876 0.77899 0.06511 0.0
C712 C 0.04405 0.75494 0.012 0.0
C713 C 0.10016 0.77734 0.04894 0.0
C714 C 0.10369 0.76486 0.01486 0.0
C715 C 0.0796 0.74031 0.96222 0.0
C716 C 0.05195 0.7287 0.9432 0.0
C717 C 0.0759 0.75336 0.99629 0.0
C718 C 0.02037 0.72995 0.95906 0.0
C719 C 0.01644 0.74298 0.99316 0.0
H720 H 0.73741 0.1049 0.56426 0.0
H721 H 0.72596 0.99818 0.56891 0.0
H722 H 0.74538 0.99358 0.50772 0.0
H723 H 0.76588 0.02033 0.45262 0.0
H724 H 0.77532 0.12739 0.44913 0.0
H725 H 0.75672 0.13129 0.5101 0.0
C726 C 0.73908 0.08057 0.55197 0.0
C727 C 0.73025 0.05193 0.57123 0.0
C728 C 0.75012 0.07816 0.51692 0.0
C729 C 0.73249 0.02066 0.55469 0.0
C730 C 0.74371 0.01802 0.51972 0.0
C731 C 0.76403 0.04444 0.46534 0.0
C732 C 0.7721 0.07351 0.44629 0.0
C733 C 0.75272 0.04663 0.50055 0.0
C734 C 0.76924 0.10461 0.46305 0.0
C735 C 0.75857 0.10691 0.49798 0.0
loop_
_geom_bond_atom_site_label_1
_geom_bond_atom_site_label_2
_geom_bond_distance
_geom_bond_site_symmetry_2
_ccdc_geom_bond_type
O0 Cd1 2.223 . S
O0 C8 1.315 . S
Cd1 O0 2.223 . S
Cd1 O4 2.297 . S
Cd1 O5 2.439 . S
Cd1 O11 2.240 . S
Cd2 O3 2.240 . S
Cd2 O10 2.223 . S
Cd2 O12 2.297 . S
Cd2 O13 2.439 . S
O3 Cd2 2.240 . S
O3 C8 1.279 . S
O4 Cd1 2.297 . S
O4 C6 1.247 . S
O5 Cd1 2.439 . S
O5 C6 1.208 . S
C6 O4 1.247 . S
C6 O5 1.208 . S
C7 O12 1.247 . S
C7 O13 1.208 . S
C8 O0 1.315 . S
C8 O3 1.279 . S
C9 O10 1.315 . S
C9 O11 1.279 . S
O10 Cd2 2.223 . S
O10 C9 1.315 . S
O11 Cd1 2.240 . S
O11 C9 1.279 . S
O12 Cd2 2.297 . S
O12 C7 1.247 . S
O13 Cd2 2.439 . S
O13 C7 1.208 . S
O14 Cd15 2.223 . S
O14 C22 1.315 . S
Cd15 O14 2.223 . S
Cd15 O18 2.297 . S
Cd15 O19 2.439 . S
Cd15 O25 2.240 . S
Cd16 O17 2.240 . S
Cd16 O24 2.223 . S
Cd16 O26 2.297 . S
Cd16 O27 2.439 . S
O17 Cd16 2.240 . S
O17 C22 1.279 . S
O18 Cd15 2.297 . S
O18 C20 1.247 . S
O19 Cd15 2.439 . S
O19 C20 1.208 . S
C20 O18 1.247 . S
C20 O19 1.208 . S
C21 O26 1.247 . S
C21 O27 1.208 . S
C22 O14 1.315 . S
C22 O17 1.279 . S
C23 O24 1.315 . S
C23 O25 1.279 . S
O24 Cd16 2.223 . S
O24 C23 1.315 . S
O25 Cd15 2.240 . S
O25 C23 1.279 . S
O26 Cd16 2.297 . S
O26 C21 1.247 . S
O27 Cd16 2.439 . S
O27 C21 1.208 . S
O28 Cd29 2.223 . S
O28 C36 1.315 . S
Cd29 O28 2.223 . S
Cd29 O32 2.297 . S
Cd29 O33 2.439 . S
Cd29 O39 2.240 . S
Cd30 O31 2.240 . S
Cd30 O38 2.223 . S
Cd30 O40 2.297 1_655 S
Cd30 O41 2.439 1_655 S
O31 Cd30 2.240 . S
O31 C36 1.279 . S
O32 Cd29 2.297 . S
O32 C34 1.247 . S
O33 Cd29 2.439 . S
O33 C34 1.208 . S
C34 O32 1.247 . S
C34 O33 1.208 . S
C35 O40 1.247 . S
C35 O41 1.208 . S
C36 O28 1.315 . S
C36 O31 1.279 . S
C37 O38 1.315 . S
C37 O39 1.279 . S
O38 Cd30 2.223 . S
O38 C37 1.315 . S
O39 Cd29 2.240 . S
O39 C37 1.279 . S
O40 Cd30 2.297 1_455 S
O40 C35 1.247 . S
O41 Cd30 2.439 1_455 S
O41 C35 1.208 . S
O42 Cd43 2.223 . S
O42 C50 1.315 . S
Cd43 O42 2.223 . S
Cd43 O46 2.297 1_565 S
Cd43 O47 2.439 1_565 S
Cd43 O53 2.240 . S
Cd44 O45 2.240 . S
Cd44 O52 2.223 . S
Cd44 O54 2.297 . S
Cd44 O55 2.439 . S
O45 Cd44 2.240 . S
O45 C50 1.279 . S
O46 Cd43 2.297 1_545 S
O46 C48 1.247 . S
O47 Cd43 2.439 1_545 S
O47 C48 1.208 . S
C48 O46 1.247 . S
C48 O47 1.208 . S
C49 O54 1.247 . S
C49 O55 1.208 . S
C50 O42 1.315 . S
C50 O45 1.279 . S
C51 O52 1.315 . S
C51 O53 1.279 . S
O52 Cd44 2.223 . S
O52 C51 1.315 . S
O53 Cd43 2.240 . S
O53 C51 1.279 . S
O54 Cd44 2.297 . S
O54 C49 1.247 . S
O55 Cd44 2.439 . S
O55 C49 1.208 . S
O56 Cd57 2.223 . S
O56 C64 1.315 . S
Cd57 O56 2.223 . S
Cd57 O60 2.297 . S
Cd57 O61 2.439 . S
Cd57 O67 2.240 . S
Cd58 O59 2.240 . S
Cd58 O66 2.223 . S
Cd58 O68 2.297 . S
Cd58 O69 2.439 . S
O59 Cd58 2.240 . S
O59 C64 1.279 . S
O60 Cd57 2.297 . S
O60 C62 1.247 . S
O61 Cd57 2.439 . S
O61 C62 1.208 . S
C62 O60 1.247 . S
C62 O61 1.208 . S
C63 O68 1.247 . S
C63 O69 1.208 . S
C64 O56 1.315 . S
C64 O59 1.279 . S
C65 O66 1.315 . S
C65 O67 1.279 . S
O66 Cd58 2.223 . S
O66 C65 1.315 . S
O67 Cd57 2.240 . S
O67 C65 1.279 . S
O68 Cd58 2.297 . S
O68 C63 1.247 . S
O69 Cd58 2.439 . S
O69 C63 1.208 . S
O70 Cd71 2.223 . S
O70 C78 1.315 . S
Cd71 O70 2.223 . S
Cd71 O74 2.297 . S
Cd71 O75 2.439 . S
Cd71 O81 2.240 . S
Cd72 O73 2.240 . S
Cd72 O80 2.223 . S
Cd72 O82 2.297 . S
Cd72 O83 2.439 . S
O73 Cd72 2.240 . S
O73 C78 1.279 . S
O74 Cd71 2.297 . S
O74 C76 1.247 . S
O75 Cd71 2.439 . S
O75 C76 1.208 . S
C76 O74 1.247 . S
C76 O75 1.208 . S
C77 O82 1.247 . S
C77 O83 1.208 . S
C78 O70 1.315 . S
C78 O73 1.279 . S
C79 O80 1.315 . S
C79 O81 1.279 . S
O80 Cd72 2.223 . S
O80 C79 1.315 . S
O81 Cd71 2.240 . S
O81 C79 1.279 . S
O82 Cd72 2.297 . S
O82 C77 1.247 . S
O83 Cd72 2.439 . S
O83 C77 1.208 . S
O84 Cd85 2.223 . S
O84 C92 1.315 . S
Cd85 O84 2.223 . S
Cd85 O88 2.297 . S
Cd85 O89 2.439 . S
Cd85 O95 2.240 . S
Cd86 O87 2.240 . S
Cd86 O94 2.223 . S
Cd86 O96 2.297 1_655 S
Cd86 O97 2.439 1_655 S
O87 Cd86 2.240 . S
O87 C92 1.279 . S
O88 Cd85 2.297 . S
O88 C90 1.247 . S
O89 Cd85 2.439 . S
O89 C90 1.208 . S
C90 O88 1.247 . S
C90 O89 1.208 . S
C91 O96 1.247 . S
C91 O97 1.208 . S
C92 O84 1.315 . S
C92 O87 1.279 . S
C93 O94 1.315 . S
C93 O95 1.279 . S
O94 Cd86 2.223 . S
O94 C93 1.315 . S
O95 Cd85 2.240 . S
O95 C93 1.279 . S
O96 Cd86 2.297 1_455 S
O96 C91 1.247 . S
O97 Cd86 2.439 1_455 S
O97 C91 1.208 . S
O98 Cd99 2.223 . S
O98 C106 1.315 . S
Cd99 O98 2.223 . S
Cd99 O102 2.297 1_565 S
Cd99 O103 2.439 1_565 S
Cd99 O109 2.240 . S
Cd100 O101 2.240 . S
Cd100 O108 2.223 . S
Cd100 O110 2.297 . S
Cd100 O111 2.439 . S
O101 Cd100 2.240 . S
O101 C106 1.279 . S
O102 Cd99 2.297 1_545 S
O102 C104 1.247 . S
O103 Cd99 2.439 1_545 S
O103 C104 1.208 . S
C104 O102 1.247 . S
C104 O103 1.208 . S
C105 O110 1.247 . S
C105 O111 1.208 . S
C106 O98 1.315 . S
C106 O101 1.279 . S
C107 O108 1.315 . S
C107 O109 1.279 . S
O108 Cd100 2.223 . S
O108 C107 1.315 . S
O109 Cd99 2.240 . S
O109 C107 1.279 . S
O110 Cd100 2.297 . S
O110 C105 1.247 . S
O111 Cd100 2.439 . S
O111 C105 1.208 . S
O112 Cd113 2.223 . S
O112 C120 1.315 . S
Cd113 O112 2.223 . S
Cd113 O116 2.297 . S
Cd113 O117 2.439 . S
Cd113 O123 2.240 . S
Cd114 O115 2.240 . S
Cd114 O122 2.223 . S
Cd114 O124 2.297 . S
Cd114 O125 2.439 . S
O115 Cd114 2.240 . S
O115 C120 1.279 . S
O116 Cd113 2.297 . S
O116 C118 1.247 . S
O117 Cd113 2.439 . S
O117 C118 1.208 . S
C118 O116 1.247 . S
C118 O117 1.208 . S
C119 O124 1.247 . S
C119 O125 1.208 . S
C120 O112 1.315 . S
C120 O115 1.279 . S
C121 O122 1.315 . S
C121 O123 1.279 . S
O122 Cd114 2.223 . S
O122 C121 1.315 . S
O123 Cd113 2.240 . S
O123 C121 1.279 . S
O124 Cd114 2.297 . S
O124 C119 1.247 . S
O125 Cd114 2.439 . S
O125 C119 1.208 . S
O126 Cd127 2.223 . S
O126 C134 1.315 . S
Cd127 O126 2.223 . S
Cd127 O130 2.297 . S
Cd127 O131 2.439 . S
Cd127 O137 2.240 . S
Cd128 O129 2.240 . S
Cd128 O136 2.223 . S
Cd128 O138 2.297 . S
Cd128 O139 2.439 . S
O129 Cd128 2.240 . S
O129 C134 1.279 . S
O130 Cd127 2.297 . S
O130 C132 1.247 . S
O131 Cd127 2.439 . S
O131 C132 1.208 . S
C132 O130 1.247 . S
C132 O131 1.208 . S
C133 O138 1.247 . S
C133 O139 1.208 . S
C134 O126 1.315 . S
C134 O129 1.279 . S
C135 O136 1.315 . S
C135 O137 1.279 . S
O136 Cd128 2.223 . S
O136 C135 1.315 . S
O137 Cd127 2.240 . S
O137 C135 1.279 . S
O138 Cd128 2.297 . S
O138 C133 1.247 . S
O139 Cd128 2.439 . S
O139 C133 1.208 . S
O140 Cd141 2.223 . S
O140 C148 1.315 . S
Cd141 O140 2.223 . S
Cd141 O144 2.297 1_455 S
Cd141 O145 2.439 1_455 S
Cd141 O151 2.240 . S
Cd142 O143 2.240 . S
Cd142 O150 2.223 . S
Cd142 O152 2.297 . S
Cd142 O153 2.439 . S
O143 Cd142 2.240 . S
O143 C148 1.279 . S
O144 Cd141 2.297 1_655 S
O144 C146 1.247 . S
O145 Cd141 2.439 1_655 S
O145 C146 1.208 . S
C146 O144 1.247 . S
C146 O145 1.208 . S
C147 O152 1.247 . S
C147 O153 1.208 . S
C148 O140 1.315 . S
C148 O143 1.279 . S
C149 O150 1.315 . S
C149 O151 1.279 . S
O150 Cd142 2.223 . S
O150 C149 1.315 . S
O151 Cd141 2.240 . S
O151 C149 1.279 . S
O152 Cd142 2.297 . S
O152 C147 1.247 . S
O153 Cd142 2.439 . S
O153 C147 1.208 . S
O154 Cd155 2.223 . S
O154 C162 1.315 . S
Cd155 O154 2.223 . S
Cd155 O158 2.297 1_545 S
Cd155 O159 2.439 1_545 S
Cd155 O165 2.240 . S
Cd156 O157 2.240 . S
Cd156 O164 2.223 . S
Cd156 O166 2.297 . S
Cd156 O167 2.439 . S
O157 Cd156 2.240 . S
O157 C162 1.279 . S
O158 Cd155 2.297 1_565 S
O158 C160 1.247 . S
O159 Cd155 2.439 1_565 S
O159 C160 1.208 . S
C160 O158 1.247 . S
C160 O159 1.208 . S
C161 O166 1.247 . S
C161 O167 1.208 . S
C162 O154 1.315 . S
C162 O157 1.279 . S
C163 O164 1.315 . S
C163 O165 1.279 . S
O164 Cd156 2.223 . S
O164 C163 1.315 . S
O165 Cd155 2.240 . S
O165 C163 1.279 . S
O166 Cd156 2.297 . S
O166 C161 1.247 . S
O167 Cd156 2.439 . S
O167 C161 1.208 . S
O168 Cd169 2.223 . S
O168 C176 1.315 . S
Cd169 O168 2.223 . S
Cd169 O172 2.297 . S
Cd169 O173 2.439 . S
Cd169 O179 2.240 . S
Cd170 O171 2.240 . S
Cd170 O178 2.223 . S
Cd170 O180 2.297 . S
Cd170 O181 2.439 . S
O171 Cd170 2.240 . S
O171 C176 1.279 . S
O172 Cd169 2.297 . S
O172 C174 1.247 . S
O173 Cd169 2.439 . S
O173 C174 1.208 . S
C174 O172 1.247 . S
C174 O173 1.208 . S
C175 O180 1.247 . S
C175 O181 1.208 . S
C176 O168 1.315 . S
C176 O171 1.279 . S
C177 O178 1.315 . S
C177 O179 1.279 . S
O178 Cd170 2.223 . S
O178 C177 1.315 . S
O179 Cd169 2.240 . S
O179 C177 1.279 . S
O180 Cd170 2.297 . S
O180 C175 1.247 . S
O181 Cd170 2.439 . S
O181 C175 1.208 . S
O182 Cd183 2.223 . S
O182 C190 1.315 . S
Cd183 O182 2.223 . S
Cd183 O186 2.297 . S
Cd183 O187 2.439 . S
Cd183 O193 2.240 . S
Cd184 O185 2.240 . S
Cd184 O192 2.223 . S
Cd184 O194 2.297 . S
Cd184 O195 2.439 . S
O185 Cd184 2.240 . S
O185 C190 1.279 . S
O186 Cd183 2.297 . S
O186 C188 1.247 . S
O187 Cd183 2.439 . S
O187 C188 1.208 . S
C188 O186 1.247 . S
C188 O187 1.208 . S
C189 O194 1.247 . S
C189 O195 1.208 . S
C190 O182 1.315 . S
C190 O185 1.279 . S
C191 O192 1.315 . S
C191 O193 1.279 . S
O192 Cd184 2.223 . S
O192 C191 1.315 . S
O193 Cd183 2.240 . S
O193 C191 1.279 . S
O194 Cd184 2.297 . S
O194 C189 1.247 . S
O195 Cd184 2.439 . S
O195 C189 1.208 . S
O196 Cd197 2.223 . S
O196 C204 1.315 . S
Cd197 O196 2.223 . S
Cd197 O200 2.297 1_455 S
Cd197 O201 2.439 1_455 S
Cd197 O207 2.240 . S
Cd198 O199 2.240 . S
Cd198 O206 2.223 . S
Cd198 O208 2.297 . S
Cd198 O209 2.439 . S
O199 Cd198 2.240 . S
O199 C204 1.279 . S
O200 Cd197 2.297 1_655 S
O200 C202 1.247 . S
O201 Cd197 2.439 1_655 S
O201 C202 1.208 . S
C202 O200 1.247 . S
C202 O201 1.208 . S
C203 O208 1.247 . S
C203 O209 1.208 . S
C204 O196 1.315 . S
C204 O199 1.279 . S
C205 O206 1.315 . S
C205 O207 1.279 . S
O206 Cd198 2.223 . S
O206 C205 1.315 . S
O207 Cd197 2.240 . S
O207 C205 1.279 . S
O208 Cd198 2.297 . S
O208 C203 1.247 . S
O209 Cd198 2.439 . S
O209 C203 1.208 . S
O210 Cd211 2.223 . S
O210 C218 1.315 . S
Cd211 O210 2.223 . S
Cd211 O214 2.297 1_545 S
Cd211 O215 2.439 1_545 S
Cd211 O221 2.240 . S
Cd212 O213 2.240 . S
Cd212 O220 2.223 . S
Cd212 O222 2.297 . S
Cd212 O223 2.439 . S
O213 Cd212 2.240 . S
O213 C218 1.279 . S
O214 Cd211 2.297 1_565 S
O214 C216 1.247 . S
O215 Cd211 2.439 1_565 S
O215 C216 1.208 . S
C216 O214 1.247 . S
C216 O215 1.208 . S
C217 O222 1.247 . S
C217 O223 1.208 . S
C218 O210 1.315 . S
C218 O213 1.279 . S
C219 O220 1.315 . S
C219 O221 1.279 . S
O220 Cd212 2.223 . S
O220 C219 1.315 . S
O221 Cd211 2.240 . S
O221 C219 1.279 . S
O222 Cd212 2.297 . S
O222 C217 1.247 . S
O223 Cd212 2.439 . S
O223 C217 1.208 . S
H224 C230 0.930 . S
H225 C233 0.930 . S
H226 C234 0.930 . S
H227 C235 0.930 . S
H228 C238 0.930 . S
H229 C239 0.930 . S
C230 H224 0.930 . S
C230 C231 1.355 . S
C230 C232 1.415 . S
C231 C230 1.355 . S
C231 C233 1.419 . S
C232 C230 1.415 . S
C232 C237 1.425 . S
C232 C239 1.409 . S
C233 H225 0.930 . S
C233 C231 1.419 . S
C233 C234 1.362 . S
C234 H226 0.930 . S
C234 C233 1.362 . S
C234 C237 1.409 . S
C235 H227 0.930 . S
C235 C236 1.355 . S
C235 C237 1.415 . S
C236 C235 1.355 . S
C236 C238 1.419 . S
C237 C232 1.425 . S
C237 C234 1.409 . S
C237 C235 1.415 . S
C238 H228 0.930 . S
C238 C236 1.419 . S
C238 C239 1.362 . S
C239 H229 0.930 . S
C239 C232 1.409 . S
C239 C238 1.362 . S
H240 C246 0.930 . S
H241 C249 0.930 . S
H242 C250 0.930 . S
H243 C251 0.930 . S
H244 C254 0.930 . S
H245 C255 0.930 . S
C246 H240 0.930 . S
C246 C247 1.355 . S
C246 C248 1.415 . S
C247 C246 1.355 . S
C247 C249 1.419 . S
C248 C246 1.415 . S
C248 C253 1.425 . S
C248 C255 1.409 . S
C249 H241 0.930 . S
C249 C247 1.419 . S
C249 C250 1.362 . S
C250 H242 0.930 . S
C250 C249 1.362 . S
C250 C253 1.409 . S
C251 H243 0.930 . S
C251 C252 1.355 . S
C251 C253 1.415 . S
C252 C251 1.355 . S
C252 C254 1.419 . S
C253 C248 1.425 . S
C253 C250 1.409 . S
C253 C251 1.415 . S
C254 H244 0.930 . S
C254 C252 1.419 . S
C254 C255 1.362 . S
C255 H245 0.930 . S
C255 C248 1.409 . S
C255 C254 1.362 . S
H256 C262 0.930 . S
H257 C265 0.930 . S
H258 C266 0.930 . S
H259 C267 0.930 . S
H260 C270 0.930 . S
H261 C271 0.930 . S
C262 H256 0.930 . S
C262 C263 1.355 . S
C262 C264 1.415 . S
C263 C262 1.355 . S
C263 C265 1.419 . S
C264 C262 1.415 . S
C264 C269 1.425 . S
C264 C271 1.409 . S
C265 H257 0.930 . S
C265 C263 1.419 . S
C265 C266 1.362 . S
C266 H258 0.930 . S
C266 C265 1.362 . S
C266 C269 1.409 . S
C267 H259 0.930 . S
C267 C268 1.355 . S
C267 C269 1.415 . S
C268 C267 1.355 . S
C268 C270 1.419 . S
C269 C264 1.425 . S
C269 C266 1.409 . S
C269 C267 1.415 . S
C270 H260 0.930 . S
C270 C268 1.419 . S
C270 C271 1.362 . S
C271 H261 0.930 . S
C271 C264 1.409 . S
C271 C270 1.362 . S
H272 C278 0.930 . S
H273 C281 0.945 . S
H274 C282 0.930 . S
H275 C283 0.930 . S
H276 C286 0.930 . S
H277 C287 0.930 . S
C278 H272 0.930 . S
C278 C279 1.355 . S
C278 C280 1.415 . S
C279 C278 1.355 . S
C279 C281 1.419 . S
C280 C278 1.415 . S
C280 C285 1.425 . S
C280 C287 1.409 . S
C281 H273 0.945 . S
C281 C279 1.419 . S
C281 C282 1.362 . S
C282 H274 0.930 . S
C282 C281 1.362 . S
C282 C285 1.409 . S
C283 H275 0.930 . S
C283 C284 1.355 . S
C283 C285 1.415 . S
C284 C283 1.355 . S
C284 C286 1.419 . S
C285 C280 1.425 . S
C285 C282 1.409 . S
C285 C283 1.415 . S
C286 H276 0.930 . S
C286 C284 1.419 . S
C286 C287 1.362 . S
C287 H277 0.930 . S
C287 C280 1.409 . S
C287 C286 1.362 . S
H288 C294 0.930 . S
H289 C297 0.930 . S
H290 C298 0.930 . S
H291 C299 0.930 . S
H292 C302 0.930 . S
H293 C303 0.930 . S
C294 H288 0.930 . S
C294 C295 1.355 . S
C294 C296 1.415 . S
C295 C294 1.355 . S
C295 C297 1.419 . S
C296 C294 1.415 . S
C296 C301 1.425 . S
C296 C303 1.409 . S
C297 H289 0.930 . S
C297 C295 1.419 . S
C297 C298 1.362 . S
C298 H290 0.930 . S
C298 C297 1.362 . S
C298 C301 1.409 . S
C299 H291 0.930 . S
C299 C300 1.355 . S
C299 C301 1.415 . S
C300 C299 1.355 . S
C300 C302 1.419 . S
C301 C296 1.425 . S
C301 C298 1.409 . S
C301 C299 1.415 . S
C302 H292 0.930 . S
C302 C300 1.419 . S
C302 C303 1.362 . S
C303 H293 0.930 . S
C303 C296 1.409 . S
C303 C302 1.362 . S
H304 C310 0.930 . S
H305 C313 0.930 . S
H306 C314 0.930 . S
H307 C315 0.930 . S
H308 C318 0.930 . S
H309 C319 0.930 . S
C310 H304 0.930 . S
C310 C311 1.355 . S
C310 C312 1.415 . S
C311 C310 1.355 . S
C311 C313 1.419 . S
C312 C310 1.415 . S
C312 C317 1.425 . S
C312 C319 1.409 . S
C313 H305 0.930 . S
C313 C311 1.419 . S
C313 C314 1.362 . S
C314 H306 0.930 . S
C314 C313 1.362 . S
C314 C317 1.409 . S
C315 H307 0.930 . S
C315 C316 1.355 . S
C315 C317 1.415 . S
C316 C315 1.355 . S
C316 C318 1.419 . S
C317 C312 1.425 . S
C317 C314 1.409 . S
C317 C315 1.415 . S
C318 H308 0.930 . S
C318 C316 1.419 . S
C318 C319 1.362 . S
C319 H309 0.930 . S
C319 C312 1.409 . S
C319 C318 1.362 . S
H320 C326 0.930 . S
H321 C329 0.930 . S
H322 C330 0.930 . S
H323 C331 0.930 . S
H324 C334 0.930 . S
H325 C335 0.930 . S
C326 H320 0.930 . S
C326 C327 1.355 . S
C326 C328 1.415 . S
C327 C326 1.355 . S
C327 C329 1.419 . S
C328 C326 1.415 . S
C328 C333 1.425 . S
C328 C335 1.409 . S
C329 H321 0.930 . S
C329 C327 1.419 . S
C329 C330 1.362 . S
C330 H322 0.930 . S
C330 C329 1.362 . S
C330 C333 1.409 . S
C331 H323 0.930 . S
C331 C332 1.355 . S
C331 C333 1.415 . S
C332 C331 1.355 . S
C332 C334 1.419 . S
C333 C328 1.425 . S
C333 C330 1.409 . S
C333 C331 1.415 . S
C334 H324 0.930 . S
C334 C332 1.419 . S
C334 C335 1.362 . S
C335 H325 0.930 . S
C335 C328 1.409 . S
C335 C334 1.362 . S
H336 C342 0.930 . S
H337 C345 0.930 . S
H338 C346 0.930 . S
H339 C347 0.930 . S
H340 C350 0.930 . S
H341 C351 0.930 . S
C342 H336 0.930 . S
C342 C343 1.355 . S
C342 C344 1.415 . S
C343 C342 1.355 . S
C343 C345 1.419 . S
C344 C342 1.415 . S
C344 C349 1.425 . S
C344 C351 1.409 . S
C345 H337 0.930 . S
C345 C343 1.419 . S
C345 C346 1.362 . S
C346 H338 0.930 . S
C346 C345 1.362 . S
C346 C349 1.409 . S
C347 H339 0.930 . S
C347 C348 1.355 . S
C347 C349 1.415 . S
C348 C347 1.355 . S
C348 C350 1.419 . S
C349 C344 1.425 . S
C349 C346 1.409 . S
C349 C347 1.415 . S
C350 H340 0.930 . S
C350 C348 1.419 . S
C350 C351 1.362 . S
C351 H341 0.930 . S
C351 C344 1.409 . S
C351 C350 1.362 . S
H352 C358 0.930 . S
H353 C361 0.930 . S
H354 C362 0.930 . S
H355 C363 0.930 . S
H356 C366 0.930 . S
H357 C367 0.930 . S
C358 H352 0.930 . S
C358 C359 1.355 . S
C358 C360 1.415 . S
C359 C358 1.355 . S
C359 C361 1.419 . S
C360 C358 1.415 . S
C360 C365 1.425 . S
C360 C367 1.409 . S
C361 H353 0.930 . S
C361 C359 1.419 . S
C361 C362 1.362 . S
C362 H354 0.930 . S
C362 C361 1.362 . S
C362 C365 1.409 . S
C363 H355 0.930 . S
C363 C364 1.355 . S
C363 C365 1.415 . S
C364 C363 1.355 . S
C364 C366 1.419 . S
C365 C360 1.425 . S
C365 C362 1.409 . S
C365 C363 1.415 . S
C366 H356 0.930 . S
C366 C364 1.419 . S
C366 C367 1.362 . S
C367 H357 0.930 . S
C367 C360 1.409 . S
C367 C366 1.362 . S
H368 C374 0.930 . S
H369 C377 0.930 . S
H370 C378 0.930 . S
H371 C379 0.930 . S
H372 C382 0.930 . S
H373 C383 0.930 . S
C374 H368 0.930 . S
C374 C375 1.355 . S
C374 C376 1.415 . S
C375 C374 1.355 . S
C375 C377 1.419 . S
C376 C374 1.415 . S
C376 C381 1.425 . S
C376 C383 1.409 . S
C377 H369 0.930 . S
C377 C375 1.419 . S
C377 C378 1.362 . S
C378 H370 0.930 . S
C378 C377 1.362 . S
C378 C381 1.409 . S
C379 H371 0.930 . S
C379 C380 1.355 . S
C379 C381 1.415 . S
C380 C379 1.355 . S
C380 C382 1.419 . S
C381 C376 1.425 . S
C381 C378 1.409 . S
C381 C379 1.415 . S
C382 H372 0.930 . S
C382 C380 1.419 . S
C382 C383 1.362 . S
C383 H373 0.930 . S
C383 C376 1.409 . S
C383 C382 1.362 . S
H384 C390 0.930 . S
H385 C393 0.930 . S
H386 C394 0.930 . S
H387 C395 0.930 . S
H388 C398 0.930 . S
H389 C399 0.930 . S
C390 H384 0.930 . S
C390 C391 1.355 . S
C390 C392 1.415 . S
C391 C390 1.355 . S
C391 C393 1.419 . S
C392 C390 1.415 . S
C392 C397 1.425 . S
C392 C399 1.409 . S
C393 H385 0.930 . S
C393 C391 1.419 . S
C393 C394 1.362 . S
C394 H386 0.930 . S
C394 C393 1.362 . S
C394 C397 1.409 . S
C395 H387 0.930 . S
C395 C396 1.355 . S
C395 C397 1.415 . S
C396 C395 1.355 . S
C396 C398 1.419 . S
C397 C392 1.425 . S
C397 C394 1.409 . S
C397 C395 1.415 . S
C398 H388 0.930 . S
C398 C396 1.419 . S
C398 C399 1.362 . S
C399 H389 0.930 . S
C399 C392 1.409 . S
C399 C398 1.362 . S
H400 C406 0.930 . S
H401 C409 0.930 . S
H402 C410 0.930 . S
H403 C411 0.930 . S
H404 C414 0.930 . S
H405 C415 0.930 . S
C406 H400 0.930 . S
C406 C407 1.355 . S
C406 C408 1.415 . S
C407 C406 1.355 . S
C407 C409 1.419 . S
C408 C406 1.415 . S
C408 C413 1.425 . S
C408 C415 1.409 . S
C409 H401 0.930 . S
C409 C407 1.419 . S
C409 C410 1.362 . S
C410 H402 0.930 . S
C410 C409 1.362 . S
C410 C413 1.409 . S
C411 H403 0.930 . S
C411 C412 1.355 . S
C411 C413 1.415 . S
C412 C411 1.355 . S
C412 C414 1.419 . S
C413 C408 1.425 . S
C413 C410 1.409 . S
C413 C411 1.415 . S
C414 H404 0.930 . S
C414 C412 1.419 . S
C414 C415 1.362 . S
C415 H405 0.930 . S
C415 C408 1.409 . S
C415 C414 1.362 . S
H416 C422 0.930 . S
H417 C425 0.930 . S
H418 C426 0.930 . S
H419 C427 0.930 . S
H420 C430 0.930 . S
H421 C431 0.930 . S
C422 H416 0.930 . S
C422 C423 1.355 . S
C422 C424 1.415 . S
C423 C422 1.355 . S
C423 C425 1.419 . S
C424 C422 1.415 . S
C424 C429 1.425 . S
C424 C431 1.409 . S
C425 H417 0.930 . S
C425 C423 1.419 . S
C425 C426 1.362 . S
C426 H418 0.930 . S
C426 C425 1.362 . S
C426 C429 1.409 . S
C427 H419 0.930 . S
C427 C428 1.355 . S
C427 C429 1.415 . S
C428 C427 1.355 . S
C428 C430 1.419 . S
C429 C424 1.425 . S
C429 C426 1.409 . S
C429 C427 1.415 . S
C430 H420 0.930 . S
C430 C428 1.419 . S
C430 C431 1.362 . S
C431 H421 0.930 . S
C431 C424 1.409 . S
C431 C430 1.362 . S
H432 C438 0.930 . S
H433 C441 0.930 . S
H434 C442 0.930 . S
H435 C443 0.930 . S
H436 C446 0.930 . S
H437 C447 0.930 . S
C438 H432 0.930 . S
C438 C439 1.355 . S
C438 C440 1.415 . S
C439 C438 1.355 . S
C439 C441 1.419 . S
C440 C438 1.415 . S
C440 C445 1.425 . S
C440 C447 1.409 . S
C441 H433 0.930 . S
C441 C439 1.419 . S
C441 C442 1.362 . S
C442 H434 0.930 . S
C442 C441 1.362 . S
C442 C445 1.409 . S
C443 H435 0.930 . S
C443 C444 1.355 . S
C443 C445 1.415 . S
C444 C443 1.355 . S
C444 C446 1.419 . S
C445 C440 1.425 . S
C445 C442 1.409 . S
C445 C443 1.415 . S
C446 H436 0.930 . S
C446 C444 1.419 . S
C446 C447 1.362 . S
C447 H437 0.930 . S
C447 C440 1.409 . S
C447 C446 1.362 . S
H448 C454 0.930 . S
H449 C457 0.930 . S
H450 C458 0.930 . S
H451 C459 0.930 . S
H452 C462 0.930 . S
H453 C463 0.930 . S
C454 H448 0.930 . S
C454 C455 1.355 . S
C454 C456 1.415 . S
C455 C454 1.355 . S
C455 C457 1.419 . S
C456 C454 1.415 . S
C456 C461 1.425 . S
C456 C463 1.409 . S
C457 H449 0.930 . S
C457 C455 1.419 . S
C457 C458 1.362 . S
C458 H450 0.930 . S
C458 C457 1.362 . S
C458 C461 1.409 . S
C459 H451 0.930 . S
C459 C460 1.355 . S
C459 C461 1.415 . S
C460 C459 1.355 . S
C460 C462 1.419 . S
C461 C456 1.425 . S
C461 C458 1.409 . S
C461 C459 1.415 . S
C462 H452 0.930 . S
C462 C460 1.419 . S
C462 C463 1.362 . S
C463 H453 0.930 . S
C463 C456 1.409 . S
C463 C462 1.362 . S
H464 C470 0.930 . S
H465 C473 0.930 . S
H466 C474 0.930 . S
H467 C475 0.930 . S
H468 C478 0.930 . S
H469 C479 0.930 . S
C470 H464 0.930 . S
C470 C471 1.355 . S
C470 C472 1.415 . S
C471 C470 1.355 . S
C471 C473 1.419 . S
C472 C470 1.415 . S
C472 C477 1.425 . S
C472 C479 1.409 . S
C473 H465 0.930 . S
C473 C471 1.419 . S
C473 C474 1.362 . S
C474 H466 0.930 . S
C474 C473 1.362 . S
C474 C477 1.409 . S
C475 H467 0.930 . S
C475 C476 1.355 . S
C475 C477 1.415 . S
C476 C475 1.355 . S
C476 C478 1.419 . S
C477 C472 1.425 . S
C477 C474 1.409 . S
C477 C475 1.415 . S
C478 H468 0.930 . S
C478 C476 1.419 . S
C478 C479 1.362 . S
C479 H469 0.930 . S
C479 C472 1.409 . S
C479 C478 1.362 . S
H480 C486 0.930 . S
H481 C489 0.930 . S
H482 C490 0.930 . S
H483 C491 0.930 . S
H484 C494 0.930 . S
H485 C495 0.930 . S
C486 H480 0.930 . S
C486 C487 1.355 . S
C486 C488 1.415 . S
C487 C486 1.355 . S
C487 C489 1.419 . S
C488 C486 1.415 . S
C488 C493 1.425 . S
C488 C495 1.409 . S
C489 H481 0.930 . S
C489 C487 1.419 . S
C489 C490 1.362 . S
C490 H482 0.930 . S
C490 C489 1.362 . S
C490 C493 1.409 . S
C491 H483 0.930 . S
C491 C492 1.355 . S
C491 C493 1.415 . S
C492 C491 1.355 . S
C492 C494 1.419 . S
C493 C488 1.425 . S
C493 C490 1.409 . S
C493 C491 1.415 . S
C494 H484 0.930 . S
C494 C492 1.419 . S
C494 C495 1.362 . S
C495 H485 0.930 . S
C495 C488 1.409 . S
C495 C494 1.362 . S
H496 C502 0.930 . S
H497 C505 0.930 . S
H498 C506 0.930 . S
H499 C507 0.930 . S
H500 C510 0.930 . S
H501 C511 0.930 . S
C502 H496 0.930 . S
C502 C503 1.355 . S
C502 C504 1.415 . S
C503 C502 1.355 . S
C503 C505 1.419 . S
C504 C502 1.415 . S
C504 C509 1.425 . S
C504 C511 1.409 . S
C505 H497 0.930 . S
C505 C503 1.419 . S
C505 C506 1.362 . S
C506 H498 0.930 . S
C506 C505 1.362 . S
C506 C509 1.409 . S
C507 H499 0.930 . S
C507 C508 1.355 . S
C507 C509 1.415 . S
C508 C507 1.355 . S
C508 C510 1.419 . S
C509 C504 1.425 . S
C509 C506 1.409 . S
C509 C507 1.415 . S
C510 H500 0.930 . S
C510 C508 1.419 . S
C510 C511 1.362 . S
C511 H501 0.930 . S
C511 C504 1.409 . S
C511 C510 1.362 . S
H512 C518 0.930 . S
H513 C521 0.930 . S
H514 C522 0.930 . S
H515 C523 0.930 . S
H516 C526 0.930 . S
H517 C527 0.930 . S
C518 H512 0.930 . S
C518 C519 1.355 . S
C518 C520 1.415 . S
C519 C518 1.355 . S
C519 C521 1.419 . S
C520 C518 1.415 . S
C520 C525 1.425 . S
C520 C527 1.409 . S
C521 H513 0.930 . S
C521 C519 1.419 . S
C521 C522 1.362 . S
C522 H514 0.930 . S
C522 C521 1.362 . S
C522 C525 1.409 . S
C523 H515 0.930 . S
C523 C524 1.355 . S
C523 C525 1.415 . S
C524 C523 1.355 . S
C524 C526 1.419 . S
C525 C520 1.425 . S
C525 C522 1.409 . S
C525 C523 1.415 . S
C526 H516 0.930 . S
C526 C524 1.419 . S
C526 C527 1.362 . S
C527 H517 0.930 . S
C527 C520 1.409 . S
C527 C526 1.362 . S
H528 C534 0.930 . S
H529 C537 0.930 . S
H530 C538 0.930 . S
H531 C539 0.930 . S
H532 C542 0.930 . S
H533 C543 0.930 . S
C534 H528 0.930 . S
C534 C535 1.355 . S
C534 C536 1.415 . S
C535 C534 1.355 . S
C535 C537 1.419 . S
C536 C534 1.415 . S
C536 C541 1.425 . S
C536 C543 1.409 . S
C537 H529 0.930 . S
C537 C535 1.419 . S
C537 C538 1.362 . S
C538 H530 0.930 . S
C538 C537 1.362 . S
C538 C541 1.409 . S
C539 H531 0.930 . S
C539 C540 1.355 . S
C539 C541 1.415 . S
C540 C539 1.355 . S
C540 C542 1.419 . S
C541 C536 1.425 . S
C541 C538 1.409 . S
C541 C539 1.415 . S
C542 H532 0.930 . S
C542 C540 1.419 . S
C542 C543 1.362 . S
C543 H533 0.930 . S
C543 C536 1.409 . S
C543 C542 1.362 . S
H544 C550 0.930 . S
H545 C553 0.930 . S
H546 C554 0.930 . S
H547 C555 0.930 . S
H548 C558 0.930 . S
H549 C559 0.930 . S
C550 H544 0.930 . S
C550 C551 1.355 . S
C550 C552 1.415 . S
C551 C550 1.355 . S
C551 C553 1.419 . S
C552 C550 1.415 . S
C552 C557 1.425 . S
C552 C559 1.409 . S
C553 H545 0.930 . S
C553 C551 1.419 . S
C553 C554 1.362 . S
C554 H546 0.930 . S
C554 C553 1.362 . S
C554 C557 1.409 . S
C555 H547 0.930 . S
C555 C556 1.355 . S
C555 C557 1.415 . S
C556 C555 1.355 . S
C556 C558 1.419 . S
C557 C552 1.425 . S
C557 C554 1.409 . S
C557 C555 1.415 . S
C558 H548 0.930 . S
C558 C556 1.419 . S
C558 C559 1.362 . S
C559 H549 0.930 . S
C559 C552 1.409 . S
C559 C558 1.362 . S
H560 C566 0.930 . S
H561 C569 0.930 . S
H562 C570 0.930 . S
H563 C571 0.930 . S
H564 C574 0.930 . S
H565 C575 0.930 . S
C566 H560 0.930 . S
C566 C567 1.355 . S
C566 C568 1.415 . S
C567 C566 1.355 . S
C567 C569 1.419 . S
C568 C566 1.415 . S
C568 C573 1.425 . S
C568 C575 1.409 . S
C569 H561 0.930 . S
C569 C567 1.419 . S
C569 C570 1.362 . S
C570 H562 0.930 . S
C570 C569 1.362 . S
C570 C573 1.409 . S
C571 H563 0.930 . S
C571 C572 1.355 . S
C571 C573 1.415 . S
C572 C571 1.355 . S
C572 C574 1.419 . S
C573 C568 1.425 . S
C573 C570 1.409 . S
C573 C571 1.415 . S
C574 H564 0.930 . S
C574 C572 1.419 . S
C574 C575 1.362 . S
C575 H565 0.930 . S
C575 C568 1.409 . S
C575 C574 1.362 . S
H576 C582 0.930 . S
H577 C585 0.930 . S
H578 C586 0.930 . S
H579 C587 0.930 . S
H580 C590 0.930 . S
H581 C591 0.930 . S
C582 H576 0.930 . S
C582 C583 1.355 . S
C582 C584 1.415 . S
C583 C582 1.355 . S
C583 C585 1.419 . S
C584 C582 1.415 . S
C584 C589 1.425 . S
C584 C591 1.409 . S
C585 H577 0.930 . S
C585 C583 1.419 . S
C585 C586 1.362 . S
C586 H578 0.930 . S
C586 C585 1.362 . S
C586 C589 1.409 . S
C587 H579 0.930 . S
C587 C588 1.355 . S
C587 C589 1.415 . S
C588 C587 1.355 . S
C588 C590 1.419 . S
C589 C584 1.425 . S
C589 C586 1.409 . S
C589 C587 1.415 . S
C590 H580 0.930 . S
C590 C588 1.419 . S
C590 C591 1.362 . S
C591 H581 0.930 . S
C591 C584 1.409 . S
C591 C590 1.362 . S
H592 C598 0.930 . S
H593 C601 0.930 . S
H594 C602 0.930 . S
H595 C603 0.930 . S
H596 C606 0.930 . S
H597 C607 0.930 . S
C598 H592 0.930 . S
C598 C599 1.355 . S
C598 C600 1.415 . S
C599 C598 1.355 . S
C599 C601 1.419 . S
C600 C598 1.415 . S
C600 C605 1.425 . S
C600 C607 1.409 . S
C601 H593 0.930 . S
C601 C599 1.419 . S
C601 C602 1.362 . S
C602 H594 0.930 . S
C602 C601 1.362 . S
C602 C605 1.409 . S
C603 H595 0.930 . S
C603 C604 1.355 . S
C603 C605 1.415 . S
C604 C603 1.355 . S
C604 C606 1.419 . S
C605 C600 1.425 . S
C605 C602 1.409 . S
C605 C603 1.415 . S
C606 H596 0.930 . S
C606 C604 1.419 . S
C606 C607 1.362 . S
C607 H597 0.930 . S
C607 C600 1.409 . S
C607 C606 1.362 . S
H608 C614 0.930 . S
H609 C617 0.930 . S
H610 C618 0.930 . S
H611 C619 0.930 . S
H612 C622 0.930 . S
H613 C623 0.930 . S
C614 H608 0.930 . S
C614 C615 1.355 . S
C614 C616 1.415 . S
C615 C614 1.355 . S
C615 C617 1.419 . S
C616 C614 1.415 . S
C616 C621 1.425 1_554 S
C616 C623 1.409 1_554 S
C617 H609 0.930 . S
C617 C615 1.419 . S
C617 C618 1.362 . S
C618 H610 0.930 . S
C618 C617 1.362 . S
C618 C621 1.409 1_554 S
C619 H611 0.930 . S
C619 C620 1.355 . S
C619 C621 1.415 . S
C620 C619 1.355 . S
C620 C622 1.419 . S
C621 C616 1.425 1_556 S
C621 C618 1.409 1_556 S
C621 C619 1.415 . S
C622 H612 0.930 . S
C622 C620 1.419 . S
C622 C623 1.362 . S
C623 H613 0.930 . S
C623 C616 1.409 1_556 S
C623 C622 1.362 . S
H624 C630 0.930 . S
H625 C633 0.930 . S
H626 C634 0.930 . S
H627 C635 0.930 . S
H628 C638 0.930 . S
H629 C639 0.930 . S
C630 H624 0.930 . S
C630 C631 1.355 . S
C630 C632 1.415 . S
C631 C630 1.355 . S
C631 C633 1.419 . S
C632 C630 1.415 . S
C632 C637 1.425 . S
C632 C639 1.409 . S
C633 H625 0.930 . S
C633 C631 1.419 . S
C633 C634 1.362 . S
C634 H626 0.930 . S
C634 C633 1.362 . S
C634 C637 1.409 . S
C635 H627 0.930 . S
C635 C636 1.355 . S
C635 C637 1.415 . S
C636 C635 1.355 . S
C636 C638 1.419 . S
C637 C632 1.425 . S
C637 C634 1.409 . S
C637 C635 1.415 . S
C638 H628 0.930 . S
C638 C636 1.419 . S
C638 C639 1.362 . S
C639 H629 0.930 . S
C639 C632 1.409 . S
C639 C638 1.362 . S
H640 C646 0.911 1_455 S
H641 C649 0.930 . S
H642 C650 0.930 . S
H643 C651 0.930 . S
H644 C654 0.930 1_455 S
H645 C655 0.930 1_455 S
C646 H640 0.911 1_655 S
C646 C647 1.355 . S
C646 C648 1.415 . S
C647 C646 1.355 . S
C647 C649 1.419 . S
C648 C646 1.415 . S
C648 C653 1.425 1_554 S
C648 C655 1.409 1_554 S
C649 H641 0.930 . S
C649 C647 1.419 . S
C649 C650 1.362 . S
C650 H642 0.930 . S
C650 C649 1.362 . S
C650 C653 1.409 1_554 S
C651 H643 0.930 . S
C651 C652 1.355 . S
C651 C653 1.415 . S
C652 C651 1.355 . S
C652 C654 1.419 . S
C653 C648 1.425 1_556 S
C653 C650 1.409 1_556 S
C653 C651 1.415 . S
C654 H644 0.930 1_655 S
C654 C652 1.419 . S
C654 C655 1.362 . S
C655 H645 0.930 1_655 S
C655 C648 1.409 1_556 S
C655 C654 1.362 . S
H656 C662 0.930 . S
H657 C665 0.930 . S
H658 C666 0.930 . S
H659 C667 0.930 . S
H660 C670 0.930 . S
H661 C671 0.930 . S
C662 H656 0.930 . S
C662 C663 1.355 . S
C662 C664 1.415 . S
C663 C662 1.355 . S
C663 C665 1.419 . S
C664 C662 1.415 . S
C664 C669 1.425 . S
C664 C671 1.409 . S
C665 H657 0.930 . S
C665 C663 1.419 . S
C665 C666 1.362 . S
C666 H658 0.930 . S
C666 C665 1.362 . S
C666 C669 1.409 . S
C667 H659 0.930 . S
C667 C668 1.355 . S
C667 C669 1.415 . S
C668 C667 1.355 . S
C668 C670 1.419 . S
C669 C664 1.425 . S
C669 C666 1.409 . S
C669 C667 1.415 . S
C670 H660 0.930 . S
C670 C668 1.419 . S
C670 C671 1.362 . S
C671 H661 0.930 . S
C671 C664 1.409 . S
C671 C670 1.362 . S
H672 C678 0.930 . S
H673 C681 0.930 . S
H674 C682 0.930 . S
H675 C683 0.930 . S
H676 C686 0.930 . S
H677 C687 0.930 . S
C678 H672 0.930 . S
C678 C679 1.355 . S
C678 C680 1.415 . S
C679 C678 1.355 . S
C679 C681 1.419 . S
C680 C678 1.415 . S
C680 C685 1.425 1_556 S
C680 C687 1.409 1_556 S
C681 H673 0.930 . S
C681 C679 1.419 . S
C681 C682 1.362 . S
C682 H674 0.930 . S
C682 C681 1.362 . S
C682 C685 1.409 1_556 S
C683 H675 0.930 . S
C683 C684 1.355 . S
C683 C685 1.415 . S
C684 C683 1.355 . S
C684 C686 1.419 . S
C685 C680 1.425 1_554 S
C685 C682 1.409 1_554 S
C685 C683 1.415 . S
C686 H676 0.930 . S
C686 C684 1.419 . S
C686 C687 1.362 . S
C687 H677 0.930 . S
C687 C680 1.409 1_554 S
C687 C686 1.362 . S
H688 C694 0.930 . S
H689 C697 0.930 . S
H690 C698 0.930 . S
H691 C699 0.930 . S
H692 C702 0.930 . S
H693 C703 0.930 . S
C694 H688 0.930 . S
C694 C695 1.355 . S
C694 C696 1.415 . S
C695 C694 1.355 . S
C695 C697 1.419 . S
C696 C694 1.415 . S
C696 C701 1.425 . S
C696 C703 1.409 . S
C697 H689 0.930 . S
C697 C695 1.419 . S
C697 C698 1.362 . S
C698 H690 0.930 . S
C698 C697 1.362 . S
C698 C701 1.409 . S
C699 H691 0.930 . S
C699 C700 1.355 . S
C699 C701 1.415 . S
C700 C699 1.355 . S
C700 C702 1.419 . S
C701 C696 1.425 . S
C701 C698 1.409 . S
C701 C699 1.415 . S
C702 H692 0.930 . S
C702 C700 1.419 . S
C702 C703 1.362 . S
C703 H693 0.930 . S
C703 C696 1.409 . S
C703 C702 1.362 . S
H704 C710 0.930 1_655 S
H705 C713 0.930 . S
H706 C714 0.930 . S
H707 C715 0.930 . S
H708 C718 0.930 . S
H709 C719 0.930 . S
C710 H704 0.930 1_455 S
C710 C711 1.355 . S
C710 C712 1.415 . S
C711 C710 1.355 . S
C711 C713 1.419 . S
C712 C710 1.415 . S
C712 C717 1.425 1_554 S
C712 C719 1.409 1_454 S
C713 H705 0.930 . S
C713 C711 1.419 . S
C713 C714 1.362 . S
C714 H706 0.930 . S
C714 C713 1.362 . S
C714 C717 1.409 1_554 S
C715 H707 0.930 . S
C715 C716 1.355 . S
C715 C717 1.415 . S
C716 C715 1.355 . S
C716 C718 1.419 1_455 S
C717 C712 1.425 1_556 S
C717 C714 1.409 1_556 S
C717 C715 1.415 . S
C718 H708 0.930 . S
C718 C716 1.419 1_655 S
C718 C719 1.362 . S
C719 H709 0.930 . S
C719 C712 1.409 1_656 S
C719 C718 1.362 . S
H720 C726 0.930 . S
H721 C729 0.930 . S
H722 C730 0.930 . S
H723 C731 0.930 1_565 S
H724 C734 0.930 . S
H725 C735 0.930 . S
C726 H720 0.930 . S
C726 C727 1.355 . S
C726 C728 1.415 . S
C727 C726 1.355 . S
C727 C729 1.419 1_545 S
C728 C726 1.415 . S
C728 C733 1.425 . S
C728 C735 1.409 . S
C729 H721 0.930 . S
C729 C727 1.419 1_565 S
C729 C730 1.362 . S
C730 H722 0.930 . S
C730 C729 1.362 . S
C730 C733 1.409 1_565 S
C731 H723 0.930 1_545 S
C731 C732 1.355 . S
C731 C733 1.415 . S
C732 C731 1.355 . S
C732 C734 1.419 . S
C733 C728 1.425 . S
C733 C730 1.409 1_545 S
C733 C731 1.415 . S
C734 H724 0.930 . S
C734 C732 1.419 . S
C734 C735 1.362 . S
C735 H725 0.930 . S
C735 C728 1.409 . S
C735 C734 1.362 . S
C231 C7 1.437 . S
C236 C104 1.440 . S
C247 C20 1.446 . S
C252 C63 1.447 . S
C263 C35 1.447 . S
C268 C76 1.445 . S
C279 C48 1.408 . S
C284 C91 1.404 . S
C295 C118 1.417 . S
C300 C216 1.413 . S
C311 C174 1.425 . S
C316 C132 1.421 . S
C327 C146 1.429 . S
C332 C188 1.433 . S
C343 C160 1.448 . S
C348 C202 1.448 . S
C359 C8 1.539 . S
C364 C134 1.590 . S
C375 C23 1.526 . S
C380 C148 1.588 . S
C391 C162 1.577 . S
C396 C36 1.519 . S
C407 C51 1.519 . S
C412 C120 1.583 . S
C423 C64 1.519 . S
C428 C218 1.577 . S
C439 C176 1.564 . S
C444 C79 1.558 . S
C455 C190 1.569 . S
C460 C92 1.530 . S
C471 C204 1.588 . S
C476 C107 1.528 . S
C487 C22 1.585 . S
C492 C121 1.563 . S
C503 C37 1.589 . S
C508 C135 1.531 . S
C519 C149 1.520 . S
C524 C50 1.584 . S
C535 C9 1.572 . S
C540 C163 1.574 . S
C551 C177 1.519 . S
C556 C106 1.582 . S
C567 C191 1.546 . S
C572 C65 1.565 . S
C583 C78 1.583 . S
C588 C205 1.566 . S
C599 C93 1.564 . S
C604 C219 1.555 . S
C615 C6 1.549 . S
C620 C62 1.545 . S
C631 C77 1.499 . S
C636 C21 1.565 . S
C647 C34 1.509 . S
C652 C90 1.535 . S
C663 C105 1.549 . S
C668 C49 1.545 . S
C679 C119 1.504 . S
C684 C175 1.569 . S
C695 C189 1.511 . S
C700 C133 1.569 . S
C711 C203 1.499 . S
C716 C147 1.566 . S
C727 C217 1.557 . S
C732 C161 1.498 . S
