# Generated by pormake.
# Topology som, (6)-cn, num edge types: 1
# Building blocks:
#     Node 0, Type 0, BuildingBlock: BETFAJ_clean_sbu_0, # of connection points: 6
#     Node 1, Type 0, BuildingBlock: BETFAJ_clean_sbu_0, # of connection points: 6
#     Node 2, Type 0, BuildingBlock: BETFAJ_clean_sbu_0, # of connection points: 6
#     Node 3, Type 0, BuildingBlock: BETFAJ_clean_sbu_0, # of connection points: 6
#     Node 4, Type 0, BuildingBlock: BETFAJ_clean_sbu_0, # of connection points: 6
#     Node 5, Type 0, BuildingBlock: BETFAJ_clean_sbu_0, # of connection points: 6
#     Node 6, Type 0, BuildingBlock: BETFAJ_clean_sbu_0, # of connection points: 6
#     Node 7, Type 0, BuildingBlock: BETFAJ_clean_sbu_0, # of connection points: 6
#     Node 8, Type 0, BuildingBlock: BETFAJ_clean_sbu_0, # of connection points: 6
#     Node 9, Type 0, BuildingBlock: BETFAJ_clean_sbu_0, # of connection points: 6
#     Node 10, Type 0, BuildingBlock: BETFAJ_clean_sbu_0, # of connection points: 6
#     Node 11, Type 0, BuildingBlock: BETFAJ_clean_sbu_0, # of connection points: 6
#     Node 12, Type 0, BuildingBlock: BETFAJ_clean_sbu_0, # of connection points: 6
#     Node 13, Type 0, BuildingBlock: BETFAJ_clean_sbu_0, # of connection points: 6
#     Node 14, Type 0, BuildingBlock: BETFAJ_clean_sbu_0, # of connection points: 6
#     Node 15, Type 0, BuildingBlock: BETFAJ_clean_sbu_0, # of connection points: 6
#     Node 16, Type 0, BuildingBlock: BETFAJ_clean_sbu_0, # of connection points: 6
#     Node 17, Type 0, BuildingBlock: BETFAJ_clean_sbu_0, # of connection points: 6
#     Node 18, Type 0, BuildingBlock: BETFAJ_clean_sbu_0, # of connection points: 6
#     Node 19, Type 0, BuildingBlock: BETFAJ_clean_sbu_0, # of connection points: 6
#     Node 20, Type 0, BuildingBlock: BETFAJ_clean_sbu_0, # of connection points: 6
#     Node 21, Type 0, BuildingBlock: BETFAJ_clean_sbu_0, # of connection points: 6
#     Node 22, Type 0, BuildingBlock: BETFAJ_clean_sbu_0, # of connection points: 6
#     Node 23, Type 0, BuildingBlock: BETFAJ_clean_sbu_0, # of connection points: 6
#     Node 24, Type 0, BuildingBlock: BETFAJ_clean_sbu_0, # of connection points: 6
#     Node 25, Type 0, BuildingBlock: BETFAJ_clean_sbu_0, # of connection points: 6
#     Node 26, Type 0, BuildingBlock: BETFAJ_clean_sbu_0, # of connection points: 6
#     Node 27, Type 0, BuildingBlock: BETFAJ_clean_sbu_0, # of connection points: 6
#     Node 28, Type 0, BuildingBlock: BETFAJ_clean_sbu_0, # of connection points: 6
#     Node 29, Type 0, BuildingBlock: BETFAJ_clean_sbu_0, # of connection points: 6
#     Node 30, Type 0, BuildingBlock: BETFAJ_clean_sbu_0, # of connection points: 6
#     Node 31, Type 0, BuildingBlock: BETFAJ_clean_sbu_0, # of connection points: 6
#     Edge 32, Type (0, 0), BuildingBlock: AJUNOK_clean_linker_0, # of connection points: 2
#     Edge 33, Type (0, 0), BuildingBlock: AJUNOK_clean_linker_0, # of connection points: 2
#     Edge 34, Type (0, 0), BuildingBlock: AJUNOK_clean_linker_0, # of connection points: 2
#     Edge 35, Type (0, 0), BuildingBlock: AJUNOK_clean_linker_0, # of connection points: 2
#     Edge 36, Type (0, 0), BuildingBlock: AJUNOK_clean_linker_0, # of connection points: 2
#     Edge 37, Type (0, 0), BuildingBlock: AJUNOK_clean_linker_0, # of connection points: 2
#     Edge 38, Type (0, 0), BuildingBlock: AJUNOK_clean_linker_0, # of connection points: 2
#     Edge 39, Type (0, 0), BuildingBlock: AJUNOK_clean_linker_0, # of connection points: 2
#     Edge 40, Type (0, 0), BuildingBlock: AJUNOK_clean_linker_0, # of connection points: 2
#     Edge 41, Type (0, 0), BuildingBlock: AJUNOK_clean_linker_0, # of connection points: 2
#     Edge 42, Type (0, 0), BuildingBlock: AJUNOK_clean_linker_0, # of connection points: 2
#     Edge 43, Type (0, 0), BuildingBlock: AJUNOK_clean_linker_0, # of connection points: 2
#     Edge 44, Type (0, 0), BuildingBlock: AJUNOK_clean_linker_0, # of connection points: 2
#     Edge 45, Type (0, 0), BuildingBlock: AJUNOK_clean_linker_0, # of connection points: 2
#     Edge 46, Type (0, 0), BuildingBlock: AJUNOK_clean_linker_0, # of connection points: 2
#     Edge 47, Type (0, 0), BuildingBlock: AJUNOK_clean_linker_0, # of connection points: 2
#     Edge 48, Type (0, 0), BuildingBlock: AJUNOK_clean_linker_0, # of connection points: 2
#     Edge 49, Type (0, 0), BuildingBlock: AJUNOK_clean_linker_0, # of connection points: 2
#     Edge 50, Type (0, 0), BuildingBlock: AJUNOK_clean_linker_0, # of connection points: 2
#     Edge 51, Type (0, 0), BuildingBlock: AJUNOK_clean_linker_0, # of connection points: 2
#     Edge 52, Type (0, 0), BuildingBlock: AJUNOK_clean_linker_0, # of connection points: 2
#     Edge 53, Type (0, 0), BuildingBlock: AJUNOK_clean_linker_0, # of connection points: 2
#     Edge 54, Type (0, 0), BuildingBlock: AJUNOK_clean_linker_0, # of connection points: 2
#     Edge 55, Type (0, 0), BuildingBlock: AJUNOK_clean_linker_0, # of connection points: 2
#     Edge 56, Type (0, 0), BuildingBlock: AJUNOK_clean_linker_0, # of connection points: 2
#     Edge 57, Type (0, 0), BuildingBlock: AJUNOK_clean_linker_0, # of connection points: 2
#     Edge 58, Type (0, 0), BuildingBlock: AJUNOK_clean_linker_0, # of connection points: 2
#     Edge 59, Type (0, 0), BuildingBlock: AJUNOK_clean_linker_0, # of connection points: 2
#     Edge 60, Type (0, 0), BuildingBlock: AJUNOK_clean_linker_0, # of connection points: 2
#     Edge 61, Type (0, 0), BuildingBlock: AJUNOK_clean_linker_0, # of connection points: 2
#     Edge 62, Type (0, 0), BuildingBlock: AJUNOK_clean_linker_0, # of connection points: 2
#     Edge 63, Type (0, 0), BuildingBlock: AJUNOK_clean_linker_0, # of connection points: 2
#     Edge 64, Type (0, 0), BuildingBlock: AJUNOK_clean_linker_0, # of connection points: 2
#     Edge 65, Type (0, 0), BuildingBlock: AJUNOK_clean_linker_0, # of connection points: 2
#     Edge 66, Type (0, 0), BuildingBlock: AJUNOK_clean_linker_0, # of connection points: 2
#     Edge 67, Type (0, 0), BuildingBlock: AJUNOK_clean_linker_0, # of connection points: 2
#     Edge 68, Type (0, 0), BuildingBlock: AJUNOK_clean_linker_0, # of connection points: 2
#     Edge 69, Type (0, 0), BuildingBlock: AJUNOK_clean_linker_0, # of connection points: 2
#     Edge 70, Type (0, 0), BuildingBlock: AJUNOK_clean_linker_0, # of connection points: 2
#     Edge 71, Type (0, 0), BuildingBlock: AJUNOK_clean_linker_0, # of connection points: 2
#     Edge 72, Type (0, 0), BuildingBlock: AJUNOK_clean_linker_0, # of connection points: 2
#     Edge 73, Type (0, 0), BuildingBlock: AJUNOK_clean_linker_0, # of connection points: 2
#     Edge 74, Type (0, 0), BuildingBlock: AJUNOK_clean_linker_0, # of connection points: 2
#     Edge 75, Type (0, 0), BuildingBlock: AJUNOK_clean_linker_0, # of connection points: 2
#     Edge 76, Type (0, 0), BuildingBlock: AJUNOK_clean_linker_0, # of connection points: 2
#     Edge 77, Type (0, 0), BuildingBlock: AJUNOK_clean_linker_0, # of connection points: 2
#     Edge 78, Type (0, 0), BuildingBlock: AJUNOK_clean_linker_0, # of connection points: 2
#     Edge 79, Type (0, 0), BuildingBlock: AJUNOK_clean_linker_0, # of connection points: 2
#     Edge 80, Type (0, 0), BuildingBlock: AJUNOK_clean_linker_0, # of connection points: 2
#     Edge 81, Type (0, 0), BuildingBlock: AJUNOK_clean_linker_0, # of connection points: 2
#     Edge 82, Type (0, 0), BuildingBlock: AJUNOK_clean_linker_0, # of connection points: 2
#     Edge 83, Type (0, 0), BuildingBlock: AJUNOK_clean_linker_0, # of connection points: 2
#     Edge 84, Type (0, 0), BuildingBlock: AJUNOK_clean_linker_0, # of connection points: 2
#     Edge 85, Type (0, 0), BuildingBlock: AJUNOK_clean_linker_0, # of connection points: 2
#     Edge 86, Type (0, 0), BuildingBlock: AJUNOK_clean_linker_0, # of connection points: 2
#     Edge 87, Type (0, 0), BuildingBlock: AJUNOK_clean_linker_0, # of connection points: 2
#     Edge 88, Type (0, 0), BuildingBlock: AJUNOK_clean_linker_0, # of connection points: 2
#     Edge 89, Type (0, 0), BuildingBlock: AJUNOK_clean_linker_0, # of connection points: 2
#     Edge 90, Type (0, 0), BuildingBlock: AJUNOK_clean_linker_0, # of connection points: 2
#     Edge 91, Type (0, 0), BuildingBlock: AJUNOK_clean_linker_0, # of connection points: 2
#     Edge 92, Type (0, 0), BuildingBlock: AJUNOK_clean_linker_0, # of connection points: 2
#     Edge 93, Type (0, 0), BuildingBlock: AJUNOK_clean_linker_0, # of connection points: 2
#     Edge 94, Type (0, 0), BuildingBlock: AJUNOK_clean_linker_0, # of connection points: 2
#     Edge 95, Type (0, 0), BuildingBlock: AJUNOK_clean_linker_0, # of connection points: 2
#     Edge 96, Type (0, 0), BuildingBlock: AJUNOK_clean_linker_0, # of connection points: 2
#     Edge 97, Type (0, 0), BuildingBlock: AJUNOK_clean_linker_0, # of connection points: 2
#     Edge 98, Type (0, 0), BuildingBlock: AJUNOK_clean_linker_0, # of connection points: 2
#     Edge 99, Type (0, 0), BuildingBlock: AJUNOK_clean_linker_0, # of connection points: 2
#     Edge 100, Type (0, 0), BuildingBlock: AJUNOK_clean_linker_0, # of connection points: 2
#     Edge 101, Type (0, 0), BuildingBlock: AJUNOK_clean_linker_0, # of connection points: 2
#     Edge 102, Type (0, 0), BuildingBlock: AJUNOK_clean_linker_0, # of connection points: 2
#     Edge 103, Type (0, 0), BuildingBlock: AJUNOK_clean_linker_0, # of connection points: 2
#     Edge 104, Type (0, 0), BuildingBlock: AJUNOK_clean_linker_0, # of connection points: 2
#     Edge 105, Type (0, 0), BuildingBlock: AJUNOK_clean_linker_0, # of connection points: 2
#     Edge 106, Type (0, 0), BuildingBlock: AJUNOK_clean_linker_0, # of connection points: 2
#     Edge 107, Type (0, 0), BuildingBlock: AJUNOK_clean_linker_0, # of connection points: 2
#     Edge 108, Type (0, 0), BuildingBlock: AJUNOK_clean_linker_0, # of connection points: 2
#     Edge 109, Type (0, 0), BuildingBlock: AJUNOK_clean_linker_0, # of connection points: 2
#     Edge 110, Type (0, 0), BuildingBlock: AJUNOK_clean_linker_0, # of connection points: 2
#     Edge 111, Type (0, 0), BuildingBlock: AJUNOK_clean_linker_0, # of connection points: 2
#     Edge 112, Type (0, 0), BuildingBlock: AJUNOK_clean_linker_0, # of connection points: 2
#     Edge 113, Type (0, 0), BuildingBlock: AJUNOK_clean_linker_0, # of connection points: 2
#     Edge 114, Type (0, 0), BuildingBlock: AJUNOK_clean_linker_0, # of connection points: 2
#     Edge 115, Type (0, 0), BuildingBlock: AJUNOK_clean_linker_0, # of connection points: 2
#     Edge 116, Type (0, 0), BuildingBlock: AJUNOK_clean_linker_0, # of connection points: 2
#     Edge 117, Type (0, 0), BuildingBlock: AJUNOK_clean_linker_0, # of connection points: 2
#     Edge 118, Type (0, 0), BuildingBlock: AJUNOK_clean_linker_0, # of connection points: 2
#     Edge 119, Type (0, 0), BuildingBlock: AJUNOK_clean_linker_0, # of connection points: 2
#     Edge 120, Type (0, 0), BuildingBlock: AJUNOK_clean_linker_0, # of connection points: 2
#     Edge 121, Type (0, 0), BuildingBlock: AJUNOK_clean_linker_0, # of connection points: 2
#     Edge 122, Type (0, 0), BuildingBlock: AJUNOK_clean_linker_0, # of connection points: 2
#     Edge 123, Type (0, 0), BuildingBlock: AJUNOK_clean_linker_0, # of connection points: 2
#     Edge 124, Type (0, 0), BuildingBlock: AJUNOK_clean_linker_0, # of connection points: 2
#     Edge 125, Type (0, 0), BuildingBlock: AJUNOK_clean_linker_0, # of connection points: 2
#     Edge 126, Type (0, 0), BuildingBlock: AJUNOK_clean_linker_0, # of connection points: 2
#     Edge 127, Type (0, 0), BuildingBlock: AJUNOK_clean_linker_0, # of connection points: 2
# Relax obj value: 0.064
# Max RMSD: 0.134
# Mean RMSD: 0.134
data_MOF--net-som--node1-BETFAJ_clean_sbu_0--edge1-AJUNOK_clean_linker_0
_symmetry_space_group_name_H-M    P1
_symmetry_Int_Tables_number       1
_symmetry_cell_setting            triclinic
loop_
_symmetry_equiv_pos_as_xyz
'x, y, z'
_cell_length_a     21.573519
_cell_length_b     40.163965
_cell_length_c     78.895253
_cell_angle_alpha  89.910007
_cell_angle_beta   90.084714
_cell_angle_gamma 90.01284
loop_
_atom_site_label
_atom_site_type_symbol
_atom_site_fract_x
_atom_site_fract_y
_atom_site_fract_z
_atom_type_partial_charge
Sm0 Sm 0.99086 0.50191 0.10185 0.0
Sm1 Sm 0.11881 0.46238 0.10114 0.0
C2 C 0.87624 0.52546 0.09936 0.0
C3 C 0.81085 0.51423 0.09892 0.0
C4 C 0.77206 0.52478 0.08565 0.0
C5 C 0.70918 0.51611 0.08546 0.0
C6 C 0.68377 0.49676 0.09859 0.0
C7 C 0.72283 0.48576 0.11173 0.0
C8 C 0.78567 0.49447 0.11193 0.0
C9 C 0.06202 0.50107 0.1312 0.0
C10 C 0.98885 0.42025 0.10473 0.0
C11 C 0.22882 0.44123 0.11156 0.0
C12 C 0.29472 0.44665 0.10765 0.0
C13 C 0.33995 0.43397 0.11866 0.0
C14 C 0.40257 0.44151 0.11616 0.0
C15 C 0.42115 0.46203 0.10262 0.0
C16 C 0.37565 0.47403 0.09134 0.0
C17 C 0.31289 0.46654 0.09389 0.0
C18 C 0.08055 0.47182 0.06803 0.0
C19 C 0.11054 0.54395 0.09324 0.0
O20 O 0.91072 0.51878 0.08615 0.0
O21 O 0.90616 0.52249 0.11373 0.0
O22 O 0.0519 0.47679 0.12144 0.0
O23 O 1.03252 0.52722 0.12576 0.0
O24 O 0.95825 0.44808 0.10194 0.0
O25 O 0.05021 0.41904 0.10603 0.0
O26 O 0.2001 0.46686 0.11808 0.0
O27 O 0.19532 0.42518 0.10034 0.0
O28 O 0.05241 0.48133 0.08127 0.0
O29 O 0.13097 0.45627 0.07229 0.0
O30 O 0.14367 0.5187 0.09932 0.0
O31 O 0.05079 0.54159 0.09022 0.0
H32 H 0.79029 0.5401 0.07549 0.0
H33 H 0.68039 0.52454 0.07505 0.0
H34 H 0.70442 0.47098 0.12206 0.0
H35 H 0.81425 0.48607 0.12239 0.0
H36 H 0.32667 0.41886 0.12945 0.0
H37 H 0.43632 0.43205 0.12514 0.0
H38 H 0.3885 0.48936 0.0806 0.0
H39 H 0.27847 0.47673 0.08531 0.0
Sm40 Sm 0.33262 0.72045 0.10068 0.0
Sm41 Sm 0.20465 0.75833 0.09881 0.0
C42 C 0.44728 0.6965 0.10027 0.0
C43 C 0.51184 0.70745 0.09808 0.0
C44 C 0.52619 0.73897 0.09146 0.0
C45 C 0.58802 0.74951 0.09041 0.0
C46 C 0.63632 0.72849 0.09584 0.0
C47 C 0.62161 0.69667 0.1021 0.0
C48 C 0.55992 0.68633 0.10328 0.0
C49 C 0.2596 0.72185 0.12968 0.0
C50 C 0.33308 0.80174 0.10172 0.0
C51 C 0.09329 0.77936 0.10797 0.0
C52 C 1.02726 0.77289 0.10395 0.0
C53 C 1.00134 0.74108 0.10632 0.0
C54 C 0.93806 0.73573 0.10375 0.0
C55 C 0.89902 0.76195 0.09866 0.0
C56 C 0.92522 0.79357 0.09584 0.0
C57 C 0.98866 0.79901 0.09857 0.0
C58 C 0.2449 0.74911 0.06592 0.0
C59 C 0.2162 0.67658 0.09193 0.0
O60 O 0.41133 0.69729 0.08688 0.0
O61 O 0.41947 0.7066 0.11405 0.0
O62 O 0.27027 0.74575 0.11974 0.0
O63 O 0.28834 0.69539 0.12443 0.0
O64 O 0.36367 0.77427 0.09818 0.0
O65 O 0.27221 0.80195 0.10421 0.0
O66 O 0.12336 0.75535 0.11564 0.0
O67 O 0.1269 0.79489 0.09659 0.0
O68 O 0.27306 0.73985 0.07925 0.0
O69 O 0.19389 0.76419 0.06996 0.0
O70 O 0.18146 0.70151 0.09766 0.0
O71 O 0.27541 0.68024 0.08874 0.0
H72 H 0.48958 0.75537 0.08719 0.0
H73 H 0.59812 0.77396 0.0853 0.0
H74 H 0.65786 0.68003 0.10644 0.0
H75 H 0.54969 0.66192 0.10844 0.0
H76 H 1.02963 0.72032 0.11047 0.0
H77 H 0.91941 0.71113 0.10614 0.0
H78 H 0.89674 0.81413 0.09155 0.0
H79 H 1.00745 0.82375 0.09665 0.0
Sm80 Sm 0.98715 0.71869 0.20969 0.0
Sm81 Sm 0.11359 0.75648 0.21344 0.0
C82 C 0.87032 0.69885 0.20677 0.0
C83 C 0.80637 0.71183 0.20883 0.0
C84 C 0.7791 0.71582 0.2249 0.0
C85 C 0.71779 0.72707 0.22637 0.0
C86 C 0.68284 0.73477 0.21183 0.0
C87 C 0.7101 0.7307 0.19582 0.0
C88 C 0.771 0.71929 0.19434 0.0
C89 C 0.06496 0.72086 0.18169 0.0
C90 C 0.98571 0.79947 0.21069 0.0
C91 C 0.22408 0.77839 0.20403 0.0
C92 C 0.29119 0.77576 0.20708 0.0
C93 C 0.33084 0.77729 0.19306 0.0
C94 C 0.39463 0.77324 0.19508 0.0
C95 C 0.42033 0.76784 0.21124 0.0
C96 C 0.38045 0.76626 0.22534 0.0
C97 C 0.31623 0.77021 0.22328 0.0
C98 C 0.06867 0.74699 0.24576 0.0
C99 C 0.10018 0.67442 0.22078 0.0
O100 O 0.90381 0.69349 0.22039 0.0
O101 O 0.90254 0.71127 0.19423 0.0
O102 O 0.05217 0.74459 0.19153 0.0
O103 O 0.03621 0.69414 0.1866 0.0
O104 O 0.95696 0.77177 0.21469 0.0
O105 O 0.04627 0.80022 0.2078 0.0
O106 O 0.19758 0.75196 0.1976 0.0
O107 O 0.18961 0.79388 0.21522 0.0
O108 O 0.04231 0.73773 0.23214 0.0
O109 O 0.12024 0.76231 0.24236 0.0
O110 O 0.13618 0.69953 0.21573 0.0
O111 O 0.03993 0.67761 0.2223 0.0
H112 H 0.80485 0.71008 0.23633 0.0
H113 H 0.69772 0.72987 0.23886 0.0
H114 H 0.68385 0.73579 0.18439 0.0
H115 H 0.79031 0.71602 0.18178 0.0
H116 H 0.31224 0.78106 0.18042 0.0
H117 H 0.42371 0.77355 0.1839 0.0
H118 H 0.39895 0.76193 0.23792 0.0
H119 H 0.28623 0.76857 0.23424 0.0
Sm120 Sm 0.32468 0.49912 0.21371 0.0
Sm121 Sm 0.1963 0.4601 0.2146 0.0
C122 C 0.44064 0.52078 0.21535 0.0
C123 C 0.5043 0.50758 0.21715 0.0
C124 C 0.54748 0.52496 0.22707 0.0
C125 C 0.60928 0.51445 0.2279 0.0
C126 C 0.62925 0.48632 0.21881 0.0
C127 C 0.58549 0.46849 0.20917 0.0
C128 C 0.52359 0.47893 0.20841 0.0
C129 C 0.25261 0.49934 0.18452 0.0
C130 C 0.32585 0.41765 0.21167 0.0
C131 C 0.08617 0.43824 0.20465 0.0
C132 C 1.0203 0.44201 0.20913 0.0
C133 C 0.97575 0.42235 0.20094 0.0
C134 C 0.91251 0.42778 0.20376 0.0
C135 C 0.8927 0.45301 0.21486 0.0
C136 C 0.93769 0.47225 0.22331 0.0
C137 C 1.00096 0.46675 0.22049 0.0
C138 C 0.23565 0.46904 0.24766 0.0
C139 C 0.20601 0.54189 0.22223 0.0
O140 O 0.40439 0.51906 0.22864 0.0
O141 O 0.41182 0.5143 0.20112 0.0
O142 O 0.26249 0.47473 0.19413 0.0
O143 O 0.28313 0.52509 0.18997 0.0
O144 O 0.35579 0.44522 0.21539 0.0
O145 O 0.26503 0.4171 0.20905 0.0
O146 O 0.11291 0.46488 0.19847 0.0
O147 O 0.1216 0.42175 0.21526 0.0
O148 O 0.26347 0.4785 0.23436 0.0
O149 O 0.18493 0.4537 0.2435 0.0
O150 O 0.17228 0.51659 0.21643 0.0
O151 O 0.26592 0.53951 0.22507 0.0
H152 H 0.53366 0.5471 0.23392 0.0
H153 H 0.64169 0.52861 0.23553 0.0
H154 H 0.59944 0.44712 0.20175 0.0
H155 H 0.4912 0.46505 0.20064 0.0
H156 H 0.98983 0.40339 0.19198 0.0
H157 H 0.87913 0.41303 0.19678 0.0
H158 H 0.92388 0.49184 0.23194 0.0
H159 H 1.03475 0.48229 0.22687 0.0
Sm160 Sm 0.95772 0.50521 0.96558 0.0
Sm161 Sm 0.08578 0.46781 0.962 0.0
C162 C 0.84605 0.52733 0.95731 0.0
C163 C 0.78026 0.52182 0.96165 0.0
C164 C 0.75614 0.48946 0.96323 0.0
C165 C 0.69256 0.4845 0.9655 0.0
C166 C 0.65172 0.51175 0.96633 0.0
C167 C 0.67639 0.54416 0.9655 0.0
C168 C 0.74005 0.54911 0.96308 0.0
C169 C 1.00382 0.49579 0.99788 0.0
C170 C 0.97066 0.42359 0.97237 0.0
C171 C 0.20132 0.44533 0.96058 0.0
C172 C 0.26502 0.45672 0.96388 0.0
C173 C 0.27824 0.49046 0.96676 0.0
C174 C 0.33973 0.50119 0.96842 0.0
C175 C 0.38883 0.47825 0.96733 0.0
C176 C 0.37511 0.44433 0.96504 0.0
C177 C 0.31373 0.4337 0.96326 0.0
C178 C 1.00833 0.4696 0.93389 0.0
C179 C 0.08492 0.54892 0.96265 0.0
O180 O 0.87414 0.50286 0.9495 0.0
O181 O 0.88121 0.54224 0.96854 0.0
O182 O 1.02979 0.48677 0.98421 0.0
O183 O 0.95154 0.51041 0.99455 0.0
O184 O 0.93479 0.44861 0.96725 0.0
O185 O 1.03079 0.42691 0.97427 0.0
O186 O 0.16536 0.44094 0.97373 0.0
O187 O 0.17285 0.45942 0.94779 0.0
O188 O 1.02013 0.49331 0.94383 0.0
O189 O 0.03857 0.44321 0.93861 0.0
O190 O 0.11648 0.52144 0.96541 0.0
O191 O 1.02396 0.54923 0.96051 0.0
H192 H 0.78612 0.46791 0.96226 0.0
H193 H 0.67512 0.45923 0.96606 0.0
H194 H 0.64644 0.56569 0.96654 0.0
H195 H 0.75769 0.57428 0.96197 0.0
H196 H 0.24115 0.50852 0.96744 0.0
H197 H 0.34894 0.5274 0.97044 0.0
H198 H 0.41203 0.42615 0.9641 0.0
H199 H 0.30438 0.40755 0.96104 0.0
Sm200 Sm 0.87096 0.21049 0.96378 0.0
Sm201 Sm 0.7427 0.25024 0.96293 0.0
C202 C 0.98199 0.18961 0.95428 0.0
C203 C 0.04773 0.19706 0.95814 0.0
C204 C 0.07005 0.22997 0.95769 0.0
C205 C 0.1331 0.23657 0.95994 0.0
C206 C 0.17523 0.21051 0.96284 0.0
C207 C 0.15281 0.17768 0.96376 0.0
C208 C 0.08958 0.17102 0.96137 0.0
C209 C 0.83066 0.21915 0.99677 0.0
C210 C 0.86308 0.2917 0.97205 0.0
C211 C 0.62891 0.27499 0.96513 0.0
C212 C 0.5637 0.26446 0.96632 0.0
C213 C 0.54745 0.23169 0.9706 0.0
C214 C 0.48508 0.22185 0.97065 0.0
C215 C 0.43793 0.24482 0.96664 0.0
C216 C 0.4547 0.2778 0.9627 0.0
C217 C 0.51693 0.28746 0.9625 0.0
C218 C 0.81486 0.25047 0.93382 0.0
C219 C 0.74114 0.1686 0.95967 0.0
O220 O 0.95094 0.21306 0.94646 0.0
O221 O 0.94931 0.17427 0.96593 0.0
O222 O 0.80352 0.22887 0.98341 0.0
O223 O 0.88106 0.20348 0.9927 0.0
O224 O 0.89632 0.2666 0.96594 0.0
O225 O 0.80315 0.28945 0.97482 0.0
O226 O 0.66437 0.26953 0.97834 0.0
O227 O 0.65674 0.26904 0.95073 0.0
O228 O 0.80455 0.22587 0.94339 0.0
O229 O 0.78491 0.27635 0.93933 0.0
O230 O 0.71059 0.19623 0.96304 0.0
O231 O 0.80235 0.1678 0.95793 0.0
H232 H 0.03904 0.25063 0.95525 0.0
H233 H 0.14912 0.26211 0.95927 0.0
H234 H 0.18441 0.1571 0.96579 0.0
H235 H 0.07357 0.14546 0.96169 0.0
H236 H 0.58304 0.21372 0.97369 0.0
H237 H 0.47398 0.19613 0.97344 0.0
H238 H 0.41959 0.29618 0.95971 0.0
H239 H 0.52859 0.3129 0.95919 0.0
Sm240 Sm 0.95588 0.21181 0.84879 0.0
Sm241 Sm 0.08185 0.25144 0.8523 0.0
C242 C 0.84352 0.19072 0.85727 0.0
C243 C 0.77739 0.19933 0.85429 0.0
C244 C 0.74771 0.22238 0.86497 0.0
C245 C 0.68536 0.23041 0.86262 0.0
C246 C 0.65075 0.21555 0.84958 0.0
C247 C 0.6797 0.19193 0.8391 0.0
C248 C 0.74251 0.18392 0.84141 0.0
C249 C 1.0024 0.22128 0.81654 0.0
C250 C 0.96565 0.29349 0.84082 0.0
C251 C 0.19634 0.275 0.85473 0.0
C252 C 0.26177 0.26576 0.85225 0.0
C253 C 0.28042 0.24287 0.8398 0.0
C254 C 0.34333 0.23465 0.83801 0.0
C255 C 0.38831 0.24933 0.84857 0.0
C256 C 0.36898 0.27179 0.86114 0.0
C257 C 0.30645 0.27996 0.86291 0.0
C258 C 1.00281 0.25111 0.88001 0.0
C259 C 0.08532 0.17011 0.85217 0.0
O260 O 0.87568 0.21229 0.86603 0.0
O261 O 0.87554 0.17733 0.84491 0.0
O262 O 1.02725 0.2309 0.83027 0.0
O263 O 0.9512 0.20551 0.81978 0.0
O264 O 0.93102 0.26816 0.8462 0.0
O265 O 1.02606 0.29105 0.8392 0.0
O266 O 0.16159 0.27897 0.84125 0.0
O267 O 0.1675 0.26029 0.86724 0.0
O268 O 1.016 0.22653 0.87072 0.0
O269 O 1.03279 0.27723 0.87487 0.0
O270 O 0.11425 0.19815 0.84875 0.0
O271 O 1.02432 0.16862 0.85432 0.0
H272 H 0.77253 0.23418 0.87529 0.0
H273 H 0.66389 0.24799 0.87119 0.0
H274 H 0.6539 0.1799 0.82904 0.0
H275 H 0.76364 0.16565 0.83316 0.0
H276 H 0.24649 0.23135 0.83155 0.0
H277 H 0.35689 0.21708 0.8283 0.0
H278 H 0.40224 0.28281 0.86976 0.0
H279 H 0.29289 0.29737 0.87271 0.0
Sm280 Sm 0.86641 0.50663 0.8494 0.0
Sm281 Sm 0.73923 0.46728 0.85295 0.0
C282 C 0.97848 0.52831 0.85765 0.0
C283 C 0.04384 0.52085 0.85354 0.0
C284 C 0.06373 0.48785 0.85123 0.0
C285 C 0.12665 0.48067 0.84911 0.0
C286 C 0.17096 0.50633 0.84912 0.0
C287 C 0.15082 0.53945 0.85089 0.0
C288 C 0.08776 0.54662 0.85312 0.0
C289 C 0.81946 0.4972 0.8172 0.0
C290 C 0.85664 0.42495 0.84213 0.0
C291 C 0.62468 0.44314 0.854 0.0
C292 C 0.55999 0.45305 0.8508 0.0
C293 C 0.54362 0.48653 0.84839 0.0
C294 C 0.48114 0.49574 0.84707 0.0
C295 C 0.43401 0.4715 0.8478 0.0
C296 C 0.45111 0.43784 0.84958 0.0
C297 C 0.51344 0.42876 0.85112 0.0
C298 C 0.81717 0.46922 0.88094 0.0
C299 C 0.73761 0.54886 0.85314 0.0
O300 O 0.94869 0.50516 0.86603 0.0
O301 O 0.94453 0.54258 0.84591 0.0
O302 O 0.79451 0.48765 0.83094 0.0
O303 O 0.87115 0.51252 0.82042 0.0
O304 O 0.89161 0.45044 0.84704 0.0
O305 O 0.79601 0.42691 0.84083 0.0
O306 O 0.66097 0.44001 0.84083 0.0
O307 O 0.65213 0.45727 0.86693 0.0
O308 O 0.80455 0.49302 0.87109 0.0
O309 O 0.78726 0.44271 0.87625 0.0
O310 O 0.70698 0.52099 0.85046 0.0
O311 O 0.79887 0.55012 0.85458 0.0
H312 H 1.03083 0.4675 0.8515 0.0
H313 H 0.14085 0.45495 0.84769 0.0
H314 H 0.18403 0.55968 0.85116 0.0
H315 H 0.07349 0.57222 0.85498 0.0
H316 H 0.57905 0.50556 0.84793 0.0
H317 H 0.46979 0.52192 0.84601 0.0
H318 H 0.41614 0.4185 0.85 0.0
H319 H 0.52521 0.40275 0.8529 0.0
Sm320 Sm 0.98544 -0.00069 0.60014 0.0
Sm321 Sm 0.11358 0.96117 0.59655 0.0
C322 C 0.86963 0.0215 0.60105 0.0
C323 C 0.80612 0.0099 0.59758 0.0
C324 C 0.79323 0.97608 0.59481 0.0
C325 C 0.73184 0.96516 0.5931 0.0
C326 C 0.68246 -0.01204 0.59406 0.0
C327 C 0.69588 0.02195 0.59625 0.0
C328 C 0.75715 0.03278 0.59805 0.0
C329 C 0.06179 -0.00245 0.62844 0.0
C330 C 0.9854 0.91797 0.59926 0.0
C331 C 0.22527 0.9384 0.60442 0.0
C332 C 0.29101 0.9439 0.59994 0.0
C333 C 0.31517 0.97627 0.59843 0.0
C334 C 0.37869 0.98126 0.59607 0.0
C335 C 0.41954 0.95403 0.5951 0.0
C336 C 0.39485 0.92161 0.59588 0.0
C337 C 0.33122 0.91662 0.59837 0.0
C338 C 0.06786 0.97209 0.56428 0.0
C339 C 0.10295 0.04334 0.59082 0.0
O340 O 0.90624 0.02587 0.58801 0.0
O341 O 0.8976 0.00767 0.61399 0.0
O342 O 0.05157 0.97365 0.61841 0.0
O343 O 1.02947 0.02331 0.62388 0.0
O344 O 0.95432 0.94571 0.59684 0.0
O345 O 0.04648 0.91719 0.60119 0.0
O346 O 0.19768 0.96274 0.61244 0.0
O347 O 0.18954 0.92388 0.59318 0.0
O348 O 0.04217 0.98067 0.57806 0.0
O349 O 0.11993 0.95718 0.56748 0.0
O350 O 0.13795 0.01753 0.5953 0.0
O351 O 0.04233 0.0413 0.58925 0.0
H352 H 0.83047 0.95808 0.59427 0.0
H353 H 0.72295 0.9389 0.59114 0.0
H354 H 0.6588 0.04005 0.59709 0.0
H355 H 0.7662 0.05897 0.6002 0.0
H356 H 0.28525 -0.00221 0.59956 0.0
H357 H 0.39609 0.00654 0.59557 0.0
H358 H 0.42476 0.90008 0.59474 0.0
H359 H 0.31361 0.89145 0.59946 0.0
Sm360 Sm 0.32805 0.21933 0.60126 0.0
Sm361 Sm 0.20153 0.25747 0.59786 0.0
C362 C 0.44565 0.20041 0.60327 0.0
C363 C 0.50877 0.21411 0.60038 0.0
C364 C 0.54432 0.20345 0.58649 0.0
C365 C 0.60562 0.21436 0.58447 0.0
C366 C 0.63269 0.23615 0.59629 0.0
C367 C 0.59689 0.24704 0.61008 0.0
C368 C 0.53574 0.23625 0.61208 0.0
C369 C 0.25425 0.22254 0.63002 0.0
C370 C 0.33039 0.29995 0.59884 0.0
C371 C 0.09074 0.28011 0.60672 0.0
C372 C 1.02451 0.27861 0.60229 0.0
C373 C 0.9814 0.29325 0.61325 0.0
C374 C 0.91782 0.28883 0.61064 0.0
C375 C 0.896 0.26981 0.5969 0.0
C376 C 0.93952 0.25577 0.58569 0.0
C377 C 1.0033 0.2601 0.58838 0.0
C378 C 0.24465 0.24698 0.56541 0.0
C379 C 0.21303 0.17503 0.59147 0.0
O380 O 0.41078 0.19425 0.59002 0.0
O381 O 0.41435 0.21268 0.616 0.0
O382 O 0.26435 0.24605 0.61972 0.0
O383 O 0.28391 0.19606 0.62526 0.0
O384 O 0.35794 0.27184 0.59513 0.0
O385 O 0.27049 0.30106 0.60267 0.0
O386 O 0.11475 0.25239 0.61248 0.0
O387 O 0.12808 0.2965 0.59659 0.0
O388 O 0.27131 0.23805 0.57904 0.0
O389 O 0.19334 0.26241 0.56886 0.0
O390 O 0.17807 0.20061 0.59637 0.0
O391 O 0.27341 0.17755 0.58982 0.0
H392 H 0.52511 0.18619 0.57734 0.0
H393 H 0.63208 0.2055 0.57372 0.0
H394 H 0.61674 0.2632 0.61964 0.0
H395 H 0.51014 0.24478 0.62304 0.0
H396 H 0.99697 0.30718 0.62422 0.0
H397 H 0.88588 0.2992 0.61979 0.0
H398 H 0.92421 0.24097 0.57501 0.0
H399 H 0.03602 0.24829 0.57989 0.0
Sm400 Sm 0.99156 0.22 0.71208 0.0
Sm401 Sm 0.11848 0.26022 0.71396 0.0
C402 C 0.8774 0.19537 0.71342 0.0
C403 C 0.81227 0.2064 0.71385 0.0
C404 C 0.79644 0.23984 0.71667 0.0
C405 C 0.73412 0.2498 0.71648 0.0
C406 C 0.6866 0.22641 0.71359 0.0
C407 C 0.70297 0.19292 0.7109 0.0
C408 C 0.76513 0.18306 0.71102 0.0
C409 C 0.06509 0.22238 0.68331 0.0
C410 C 0.988 0.30163 0.71007 0.0
C411 C 0.22897 0.2822 0.70441 0.0
C412 C 0.29521 0.27447 0.70741 0.0
C413 C 0.3172 0.24155 0.70657 0.0
C414 C 0.38052 0.23477 0.7082 0.0
C415 C 0.42331 0.26069 0.71077 0.0
C416 C 0.40119 0.29357 0.71188 0.0
C417 C 0.33772 0.30037 0.7102 0.0
C418 C 0.07838 0.24935 0.74675 0.0
C419 C 0.11099 0.17813 0.72088 0.0
O420 O 0.91116 0.20128 0.72689 0.0
O421 O 0.90736 0.20048 0.69925 0.0
O422 O 0.05322 0.24628 0.69313 0.0
O423 O 0.037 0.19559 0.68849 0.0
O424 O 0.95771 0.2735 0.71216 0.0
O425 O 0.04943 0.30347 0.70949 0.0
O426 O 0.19706 0.25987 0.69605 0.0
O427 O 0.19762 0.29576 0.71684 0.0
O428 O 0.05102 0.2401 0.7333 0.0
O429 O 0.12863 0.26537 0.74286 0.0
O430 O 0.14418 0.20386 0.71534 0.0
O431 O 0.05112 0.18017 0.7237 0.0
H432 H 0.83221 0.25823 0.71889 0.0
H433 H 0.72325 0.27587 0.71829 0.0
H434 H 0.66757 0.17425 0.70876 0.0
H435 H 0.77644 0.15713 0.70883 0.0
H436 H 0.28563 0.22104 0.70436 0.0
H437 H 0.39613 0.20919 0.70736 0.0
H438 H 0.43311 0.31412 0.71359 0.0
H439 H 0.32197 0.32596 0.71074 0.0
Sm440 Sm 0.33192 0.00167 0.70905 0.0
Sm441 Sm 0.20462 0.96343 0.71167 0.0
C442 C 0.44722 0.02466 0.70914 0.0
C443 C 0.51214 0.01287 0.71063 0.0
C444 C 0.54746 0.02115 0.725 0.0
C445 C 0.60994 0.01195 0.72613 0.0
C446 C 0.63847 -0.00555 0.71285 0.0
C447 C 0.60296 -0.01424 0.69859 0.0
C448 C 0.54057 -0.00504 0.69744 0.0
C449 C 0.25646 -5e-05 0.68055 0.0
C450 C 0.33326 0.92042 0.70802 0.0
C451 C 0.09415 0.94153 0.70208 0.0
C452 C 1.02801 0.9462 0.70585 0.0
C453 C 0.98395 0.93582 0.69392 0.0
C454 C 0.92108 0.94263 0.69637 0.0
C455 C 0.90108 0.96011 0.71079 0.0
C456 C 0.94534 0.96977 0.72297 0.0
C457 C 1.00842 0.96302 0.72047 0.0
C458 C 0.24667 0.97323 0.7443 0.0
C459 C 0.2161 0.04533 0.71872 0.0
O460 O 0.41268 0.02337 0.72277 0.0
O461 O 0.41679 0.01699 0.69532 0.0
O462 O 0.26832 0.976 0.69037 0.0
O463 O 0.28556 0.02648 0.68561 0.0
O464 O 0.36404 0.94807 0.71092 0.0
O465 O 0.27198 0.9196 0.70653 0.0
O466 O 0.1219 0.96712 0.69517 0.0
O467 O 0.12831 0.92627 0.71346 0.0
O468 O 0.2741 0.98243 0.73086 0.0
O469 O 0.19593 0.95748 0.74056 0.0
O470 O 0.18069 0.02026 0.71338 0.0
O471 O 0.27585 0.04193 0.72111 0.0
H472 H 0.52694 0.03511 0.7353 0.0
H473 H 0.636 0.01861 0.73737 0.0
H474 H 0.62386 0.97246 0.68812 0.0
H475 H 0.51497 -0.01164 0.68612 0.0
H476 H 0.99836 0.9231 0.68248 0.0
H477 H 0.88827 0.93508 0.6867 0.0
H478 H 0.93126 0.98274 0.73435 0.0
H479 H 0.04194 0.9714 0.72978 0.0
Sm480 Sm 0.9486 0.00715 0.46159 0.0
Sm481 Sm 0.07801 0.97007 0.45969 0.0
C482 C 0.83901 0.03001 0.45177 0.0
C483 C 0.77293 0.02773 0.4561 0.0
C484 C 0.72965 0.04585 0.44657 0.0
C485 C 0.66609 0.04118 0.44912 0.0
C486 C 0.64476 0.01831 0.46132 0.0
C487 C 0.6885 0.00088 0.47119 0.0
C488 C 0.75209 0.00555 0.4686 0.0
C489 C 0.98893 -0.00266 0.49442 0.0
C490 C 0.96218 0.92534 0.46808 0.0
C491 C 0.19397 0.94848 0.46096 0.0
C492 C 0.25751 0.962 0.46233 0.0
C493 C 0.29951 0.9472 0.47364 0.0
C494 C 0.36092 0.95825 0.47449 0.0
C495 C 0.38169 0.98435 0.46402 0.0
C496 C 0.33919 -0.00043 0.4529 0.0
C497 C 0.27763 -0.0114 0.45211 0.0
C498 C 1.00468 0.97161 0.43069 0.0
C499 C 0.07692 0.05123 0.45867 0.0
O500 O 0.86402 0.00266 0.44591 0.0
O501 O 0.87525 0.04616 0.46228 0.0
O502 O 1.01729 -0.01133 0.48105 0.0
O503 O 0.93716 0.01185 0.49045 0.0
O504 O 0.92651 0.95014 0.46255 0.0
O505 O 1.02138 0.92928 0.47132 0.0
O506 O 0.15869 0.95083 0.4744 0.0
O507 O 0.16406 0.95406 0.44679 0.0
O508 O 1.01482 -0.0047 0.44078 0.0
O509 O 1.03505 0.94537 0.43565 0.0
O510 O 0.10901 0.02385 0.46108 0.0
O511 O 1.01565 0.0514 0.45706 0.0
H512 H 0.74503 0.06282 0.43674 0.0
H513 H 0.63372 0.05445 0.44107 0.0
H514 H 0.67345 0.98317 0.4807 0.0
H515 H 0.78497 -0.0088 0.47601 0.0
H516 H 0.28502 0.9267 0.48165 0.0
H517 H 0.39241 0.94614 0.48325 0.0
H518 H 0.35391 0.01926 0.44443 0.0
H519 H 0.24619 0.0005 0.44327 0.0
Sm520 Sm 0.8668 0.71007 0.46184 0.0
Sm521 Sm 0.73965 0.75042 0.46027 0.0
C522 C 0.97747 0.68809 0.45245 0.0
C523 C 0.04391 0.69604 0.45514 0.0
C524 C 0.06758 0.72769 0.45101 0.0
C525 C 0.13109 0.73416 0.45211 0.0
C526 C 0.17248 0.70922 0.45738 0.0
C527 C 0.14884 0.67791 0.46205 0.0
C528 C 0.08511 0.67131 0.46082 0.0
C529 C 0.82627 0.72023 0.49469 0.0
C530 C 0.85959 0.7919 0.46911 0.0
C531 C 0.62558 0.77514 0.46125 0.0
C532 C 0.56028 0.76427 0.46151 0.0
C533 C 0.54259 0.73325 0.46816 0.0
C534 C 0.48044 0.72301 0.46744 0.0
C535 C 0.4351 0.74365 0.46003 0.0
C536 C 0.45304 0.77503 0.4538 0.0
C537 C 0.515 0.78512 0.45445 0.0
C538 C 0.81365 0.74969 0.43148 0.0
C539 C 0.73609 0.66861 0.45863 0.0
O540 O 0.94513 0.71003 0.44395 0.0
O541 O 0.94642 0.67478 0.46503 0.0
O542 O 0.79933 0.72969 0.48123 0.0
O543 O 0.87663 0.70434 0.4908 0.0
O544 O 0.89236 0.76636 0.46323 0.0
O545 O 0.79986 0.78967 0.4722 0.0
O546 O 0.65907 0.76964 0.47484 0.0
O547 O 0.65584 0.76972 0.44717 0.0
O548 O 0.80195 0.72525 0.44107 0.0
O549 O 0.7841 0.77584 0.4368 0.0
O550 O 0.70628 0.69676 0.46119 0.0
O551 O 0.79732 0.66712 0.45698 0.0
H552 H 0.03727 0.74739 0.4466 0.0
H553 H 0.148 0.75867 0.44869 0.0
H554 H 0.17985 0.65827 0.46617 0.0
H555 H 0.06817 0.64667 0.46398 0.0
H556 H 0.57683 0.71692 0.47377 0.0
H557 H 0.46803 0.69876 0.47241 0.0
H558 H 0.41906 0.79189 0.44844 0.0
H559 H 0.52766 0.80925 0.44935 0.0
Sm560 Sm 0.95503 0.71264 0.34891 0.0
Sm561 Sm 0.08235 0.75087 0.35055 0.0
C562 C 0.84495 0.69113 0.359 0.0
C563 C 0.77821 0.69388 0.35532 0.0
C564 C 0.7365 0.69293 0.36891 0.0
C565 C 0.6732 0.69789 0.3662 0.0
C566 C 0.65017 0.70398 0.34981 0.0
C567 C 0.69199 0.70417 0.3361 0.0
C568 C 0.75563 0.69933 0.33885 0.0
C569 C 0.99486 0.72113 0.31595 0.0
C570 C 0.96679 0.79448 0.34124 0.0
C571 C 0.19876 0.77212 0.35064 0.0
C572 C 0.26282 0.7589 0.34917 0.0
C573 C 0.29166 0.75535 0.33328 0.0
C574 C 0.35335 0.74464 0.33218 0.0
C575 C 0.38747 0.73738 0.34692 0.0
C576 C 0.35839 0.74047 0.36275 0.0
C577 C 0.29697 0.75127 0.36387 0.0
C578 C 1.00879 0.75038 0.3795 0.0
C579 C 0.08418 0.66992 0.35199 0.0
O580 O 0.87129 0.71816 0.3648 0.0
O581 O 0.88 0.67454 0.34838 0.0
O582 O 1.02311 0.73081 0.32918 0.0
O583 O 0.94403 0.70593 0.32013 0.0
O584 O 0.93196 0.76951 0.34698 0.0
O585 O 1.02624 0.79108 0.33829 0.0
O586 O 0.16372 0.77237 0.33705 0.0
O587 O 0.16813 0.7643 0.36438 0.0
O588 O 1.01986 0.72607 0.36986 0.0
O589 O 0.03811 0.77652 0.37403 0.0
O590 O 0.11338 0.69737 0.34781 0.0
O591 O 1.02341 0.66929 0.35469 0.0
H592 H 0.75314 0.68903 0.38173 0.0
H593 H 0.64242 0.69788 0.37704 0.0
H594 H 0.67556 0.70822 0.32329 0.0
H595 H 0.78716 0.70031 0.32819 0.0
H596 H 0.26688 0.76119 0.32171 0.0
H597 H 0.37445 0.74212 0.3198 0.0
H598 H 0.38369 0.73528 0.37433 0.0
H599 H 0.2765 0.75408 0.37631 0.0
Sm600 Sm 0.86287 0.00833 0.34859 0.0
Sm601 Sm 0.73736 0.96677 0.34957 0.0
C602 C 0.97328 0.02902 0.35906 0.0
C603 C 0.04019 0.02218 0.35644 0.0
C604 C 0.07348 0.00596 0.36937 0.0
C605 C 0.13607 -0.00186 0.36729 0.0
C606 C 0.16724 0.00656 0.35227 0.0
C607 C 0.13469 0.02369 0.33949 0.0
C608 C 0.07157 0.03131 0.34151 0.0
C609 C 0.82462 -0.00146 0.31555 0.0
C610 C 0.85778 0.92634 0.34072 0.0
C611 C 0.62253 0.94315 0.34831 0.0
C612 C 0.5571 0.95456 0.3484 0.0
C613 C 0.53191 0.97386 0.33516 0.0
C614 C 0.46894 0.98268 0.33526 0.0
C615 C 0.42992 0.97223 0.34852 0.0
C616 C 0.45571 0.95375 0.36193 0.0
C617 C 0.51836 0.94486 0.36181 0.0
C618 C 0.80896 0.96941 0.37884 0.0
C619 C 0.73099 0.04836 0.35218 0.0
O620 O 0.94193 0.00502 0.36626 0.0
O621 O 0.9417 0.04443 0.34715 0.0
O622 O 0.79706 -0.01159 0.32879 0.0
O623 O 0.87384 0.01518 0.31979 0.0
O624 O 0.88949 0.95214 0.34677 0.0
O625 O 0.79792 0.92783 0.33771 0.0
O626 O 0.65605 0.94886 0.33477 0.0
O627 O 0.65373 0.94672 0.36242 0.0
O628 O 0.79669 -0.00682 0.36893 0.0
O629 O 0.78213 0.94241 0.37346 0.0
O630 O 0.70283 0.02012 0.34877 0.0
O631 O 0.79218 0.05058 0.35395 0.0
H632 H 0.05087 -0.00093 0.38113 0.0
H633 H 0.16027 0.98554 0.37749 0.0
H634 H 0.15778 0.03058 0.32781 0.0
H635 H 0.04739 0.04404 0.33136 0.0
H636 H 0.56055 0.98187 0.32466 0.0
H637 H 0.45048 -0.00292 0.32479 0.0
H638 H 0.42734 0.94605 0.37255 0.0
H639 H 0.53648 0.93007 0.37219 0.0
Sm640 Sm 0.48856 0.49978 0.60315 0.0
Sm641 Sm 0.61504 0.46109 0.59889 0.0
C642 C 0.37341 0.52267 0.60523 0.0
C643 C 0.30924 0.51201 0.60193 0.0
C644 C 0.29562 0.47963 0.59637 0.0
C645 C 0.23388 0.46938 0.59446 0.0
C646 C 0.18491 0.49143 0.59803 0.0
C647 C 0.19903 0.52407 0.60317 0.0
C648 C 0.26061 0.5342 0.60515 0.0
C649 C 0.56726 0.49708 0.63096 0.0
C650 C 0.48647 0.41842 0.60151 0.0
C651 C 0.72757 0.43935 0.60664 0.0
C652 C 0.79323 0.44636 0.60248 0.0
C653 C 0.8177 0.47869 0.60396 0.0
C654 C 0.8811 0.48442 0.60176 0.0
C655 C 0.92161 0.45803 0.59797 0.0
C656 C 0.89664 0.42594 0.59577 0.0
C657 C 0.83316 0.42016 0.59811 0.0
C658 C 0.5683 0.47201 0.56683 0.0
C659 C 0.60456 0.54307 0.59232 0.0
O660 O 0.40903 0.52763 0.59205 0.0
O661 O 0.40195 0.50758 0.6177 0.0
O662 O 0.55461 0.47346 0.62101 0.0
O663 O 0.53712 0.52363 0.62646 0.0
O664 O 0.4561 0.44647 0.59925 0.0
O665 O 0.54755 0.41727 0.60348 0.0
O666 O 0.6982 0.46238 0.61516 0.0
O667 O 0.69297 0.42514 0.59503 0.0
O668 O 0.543 0.48093 0.58063 0.0
O669 O 0.61986 0.45648 0.56992 0.0
O670 O 0.63968 0.51742 0.59696 0.0
O671 O 0.54388 0.54105 0.59122 0.0
H672 H 0.33262 0.46222 0.5937 0.0
H673 H 0.22442 0.44425 0.59022 0.0
H674 H 0.16232 0.54154 0.60609 0.0
H675 H 0.27026 0.55926 0.6095 0.0
H676 H 0.7882 0.49951 0.60726 0.0
H677 H 0.8987 0.50943 0.60357 0.0
H678 H 0.92621 0.40521 0.5924 0.0
H679 H 0.8155 0.39508 0.5968 0.0
Sm680 Sm 0.82762 0.7188 0.60055 0.0
Sm681 Sm 0.70136 0.75734 0.59647 0.0
C682 C 0.94453 0.69908 0.60312 0.0
C683 C 1.00787 0.71169 0.59966 0.0
C684 C 0.04875 0.69264 0.58983 0.0
C685 C 0.11042 0.70268 0.58764 0.0
C686 C 0.13261 0.73201 0.59528 0.0
C687 C 0.09123 0.75141 0.60485 0.0
C688 C 1.02952 0.74147 0.60695 0.0
C689 C 0.7502 0.72198 0.62859 0.0
C690 C 0.8303 0.79949 0.59743 0.0
C691 C 0.59039 0.78044 0.60485 0.0
C692 C 0.52449 0.77669 0.60035 0.0
C693 C 0.48062 0.798 0.60766 0.0
C694 C 0.41717 0.79243 0.60524 0.0
C695 C 0.39642 0.76541 0.59541 0.0
C696 C 0.44075 0.74462 0.58772 0.0
C697 C 0.50424 0.75021 0.59016 0.0
C698 C 0.74674 0.74631 0.56431 0.0
C699 C 0.71289 0.67494 0.59018 0.0
O700 O 0.90941 0.69163 0.5901 0.0
O701 O 0.91392 0.71335 0.61545 0.0
O702 O 0.76264 0.74551 0.61853 0.0
O703 O 0.77969 0.69529 0.62404 0.0
O704 O 0.85831 0.77122 0.59427 0.0
O705 O 0.7703 0.80083 0.60108 0.0
O706 O 0.61621 0.75439 0.61192 0.0
O707 O 0.6267 0.7955 0.59394 0.0
O708 O 0.77233 0.7375 0.5781 0.0
O709 O 0.69508 0.76171 0.56742 0.0
O710 O 0.67765 0.70052 0.59494 0.0
O711 O 0.77327 0.67753 0.58859 0.0
H712 H 1.03331 0.66957 0.5841 0.0
H713 H 0.14105 0.68724 0.58015 0.0
H714 H 0.10697 0.77378 0.61118 0.0
H715 H 0.99924 0.75678 0.61462 0.0
H716 H 0.49541 0.81833 0.61574 0.0
H717 H 0.38439 0.80847 0.61164 0.0
H718 H 0.42624 0.72366 0.58005 0.0
H719 H 0.53746 0.73334 0.5845 0.0
Sm720 Sm 0.48679 0.71869 0.71053 0.0
Sm721 Sm 0.61357 0.75809 0.71214 0.0
C722 C 0.37262 0.69423 0.71129 0.0
C723 C 0.30691 0.7043 0.71213 0.0
C724 C 0.28587 0.72903 0.72333 0.0
C725 C 0.22269 0.7372 0.72399 0.0
C726 C 0.17966 0.72076 0.7135 0.0
C727 C 0.20138 0.69663 0.70206 0.0
C728 C 0.26421 0.6884 0.70146 0.0
C729 C 0.55822 0.72155 0.68131 0.0
C730 C 0.48411 0.80034 0.70934 0.0
C731 C 0.72447 0.77859 0.7022 0.0
C732 C 0.7907 0.77037 0.70519 0.0
C733 C 0.82046 0.74698 0.69473 0.0
C734 C 0.88272 0.73893 0.69724 0.0
C735 C 0.91707 0.75419 0.7102 0.0
C736 C 0.88803 0.77813 0.72046 0.0
C737 C 0.82533 0.78611 0.71801 0.0
C738 C 0.57491 0.74761 0.74509 0.0
C739 C 0.60581 0.67625 0.71915 0.0
O740 O 0.40688 0.6981 0.72488 0.0
O741 O 0.40203 0.70117 0.69725 0.0
O742 O 0.54732 0.74515 0.6914 0.0
O743 O 0.53064 0.69469 0.68656 0.0
O744 O 0.45388 0.77244 0.71231 0.0
O745 O 0.54517 0.8013 0.70731 0.0
O746 O 0.692 0.75583 0.69434 0.0
O747 O 0.69319 0.79347 0.71428 0.0
O748 O 0.5467 0.73834 0.73178 0.0
O749 O 0.625 0.76359 0.74099 0.0
O750 O 0.63879 0.70182 0.71343 0.0
O751 O 0.54591 0.67834 0.7219 0.0
H752 H 0.31805 0.74187 0.73159 0.0
H753 H 0.20736 0.75603 0.73285 0.0
H754 H 0.16979 0.68424 0.69345 0.0
H755 H 0.27953 0.66949 0.69263 0.0
H756 H 0.7957 0.73487 0.68449 0.0
H757 H 0.9043 0.72102 0.68886 0.0
H758 H 0.91367 0.79041 0.73048 0.0
H759 H 0.80409 0.80456 0.72614 0.0
Sm760 Sm 0.83084 0.50072 0.71291 0.0
Sm761 Sm 0.70268 0.46214 0.71433 0.0
C762 C 0.94504 0.52538 0.71379 0.0
C763 C 1.0102 0.51462 0.7142 0.0
C764 C 1.02632 0.48078 0.71384 0.0
C765 C 0.08877 0.47123 0.71328 0.0
C766 C 0.13589 0.49544 0.71285 0.0
C767 C 0.11936 0.52928 0.71353 0.0
C768 C 0.05707 0.53875 0.71418 0.0
C769 C 0.76008 0.49762 0.68351 0.0
C770 C 0.83211 0.41932 0.71229 0.0
C771 C 0.59236 0.44041 0.70453 0.0
C772 C 0.52626 0.44741 0.70782 0.0
C773 C 0.5053 0.48029 0.7099 0.0
C774 C 0.44193 0.48708 0.71106 0.0
C775 C 0.39826 0.46116 0.71028 0.0
C776 C 0.41932 0.42815 0.70897 0.0
C777 C 0.48287 0.42136 0.70764 0.0
C778 C 0.74108 0.47288 0.74729 0.0
C779 C 0.71311 0.54403 0.72077 0.0
O780 O 0.91182 0.52007 0.7274 0.0
O781 O 0.91476 0.51931 0.69976 0.0
O782 O 0.77021 0.47419 0.6938 0.0
O783 O 0.78799 0.52444 0.68865 0.0
O784 O 0.86259 0.4471 0.71523 0.0
O785 O 0.77116 0.41854 0.70987 0.0
O786 O 0.62315 0.46401 0.69678 0.0
O787 O 0.62448 0.42584 0.71657 0.0
O788 O 0.76955 0.4817 0.73397 0.0
O789 O 0.6904 0.45744 0.74321 0.0
O790 O 0.67908 0.51893 0.71489 0.0
O791 O 0.77202 0.54058 0.7245 0.0
H792 H 0.99064 0.46185 0.71371 0.0
H793 H 0.10021 0.44498 0.71276 0.0
H794 H 0.15469 0.54845 0.71353 0.0
H795 H 0.04547 0.565 0.71444 0.0
H796 H 0.5378 0.50085 0.71021 0.0
H797 H 0.42693 0.51269 0.71237 0.0
H798 H 0.38654 0.40774 0.70839 0.0
H799 H 0.49802 0.39584 0.70604 0.0
Sm800 Sm 0.45105 0.50819 0.46407 0.0
Sm801 Sm 0.57904 0.46893 0.46277 0.0
C802 C 0.33991 0.52942 0.45467 0.0
C803 C 0.27378 0.52332 0.45872 0.0
C804 C 0.2479 0.49133 0.45712 0.0
C805 C 0.18455 0.48623 0.45968 0.0
C806 C 0.14537 0.51287 0.464 0.0
C807 C 0.17156 0.54473 0.46606 0.0
C808 C 0.23507 0.54991 0.46334 0.0
C809 C 0.49151 0.49903 0.497 0.0
C810 C 0.46074 0.4263 0.47152 0.0
C811 C 0.69382 0.44543 0.46455 0.0
C812 C 0.75819 0.45743 0.46576 0.0
C813 C 0.77208 0.49003 0.47096 0.0
C814 C 0.83381 0.50095 0.47161 0.0
C815 C 0.88246 0.47938 0.4671 0.0
C816 C 0.86812 0.4467 0.46208 0.0
C817 C 0.80659 0.43589 0.46137 0.0
C818 C 0.50628 0.47023 0.4337 0.0
C819 C 0.58096 0.55017 0.45958 0.0
O820 O 0.3696 0.50509 0.44722 0.0
O821 O 0.37379 0.54511 0.46595 0.0
O822 O 0.51893 0.48953 0.48366 0.0
O823 O 0.44087 0.51453 0.49295 0.0
O824 O 0.42687 0.45148 0.46559 0.0
O825 O 0.52012 0.4294 0.47476 0.0
O826 O 0.65844 0.44971 0.47784 0.0
O827 O 0.66508 0.45123 0.45024 0.0
O828 O 0.51725 0.49419 0.44355 0.0
O829 O 0.53528 0.44377 0.43897 0.0
O830 O 0.61146 0.52262 0.46302 0.0
O831 O 0.51956 0.55131 0.45827 0.0
H832 H 0.27629 0.47022 0.45359 0.0
H833 H 0.16596 0.46143 0.45789 0.0
H834 H 0.14303 0.56566 0.46976 0.0
H835 H 0.25384 0.5748 0.46467 0.0
H836 H 0.73529 0.50701 0.47446 0.0
H837 H 0.84351 0.52612 0.47574 0.0
H838 H 0.90456 0.4296 0.45844 0.0
H839 H 0.79677 0.41068 0.4573 0.0
Sm840 Sm 0.35985 0.21216 0.46249 0.0
Sm841 Sm 0.23391 0.25194 0.46027 0.0
C842 C 0.46972 0.18968 0.45269 0.0
C843 C 0.53616 0.1928 0.45669 0.0
C844 C 0.57937 0.17527 0.44691 0.0
C845 C 0.64297 0.18071 0.44907 0.0
C846 C 0.66466 0.20371 0.46115 0.0
C847 C 0.62102 0.22075 0.47119 0.0
C848 C 0.55731 0.21536 0.46897 0.0
C849 C 0.32015 0.22226 0.49529 0.0
C850 C 0.35153 0.29444 0.46957 0.0
C851 C 0.11729 0.27298 0.45977 0.0
C852 C 0.05342 0.25955 0.4613 0.0
C853 C 1.01247 0.27345 0.47315 0.0
C854 C 0.95072 0.26279 0.47401 0.0
C855 C 0.92842 0.23795 0.46302 0.0
C856 C 0.96968 0.22373 0.45129 0.0
C857 C 1.03151 0.23431 0.45047 0.0
C858 C 0.3072 0.24856 0.43137 0.0
C859 C 0.2298 0.17061 0.46078 0.0
O860 O 0.44353 0.21647 0.44652 0.0
O861 O 0.43441 0.17371 0.46352 0.0
O862 O 0.29225 0.23193 0.48196 0.0
O863 O 0.37032 0.20631 0.49127 0.0
O864 O 0.38509 0.26865 0.4643 0.0
O865 O 0.29121 0.29272 0.47168 0.0
O866 O 0.15172 0.27362 0.47346 0.0
O867 O 0.14849 0.26495 0.44616 0.0
O868 O 0.29502 0.2251 0.44147 0.0
O869 O 0.27944 0.27554 0.43635 0.0
O870 O 0.20168 0.19885 0.46399 0.0
O871 O 0.29025 0.16908 0.45772 0.0
H872 H 0.56384 0.15814 0.43719 0.0
H873 H 0.67501 0.16781 0.44082 0.0
H874 H 0.63615 0.2386 0.4806 0.0
H875 H 0.52455 0.22938 0.47652 0.0
H876 H 1.02802 0.29302 0.48159 0.0
H877 H 0.92019 0.27418 0.48322 0.0
H878 H 0.95381 0.20502 0.44241 0.0
H879 H 0.06176 0.22308 0.44115 0.0
Sm880 Sm 0.44492 0.20934 0.34824 0.0
Sm881 Sm 0.57247 0.24869 0.34979 0.0
C882 C 0.33443 0.18798 0.35808 0.0
C883 C 0.26779 0.19531 0.35544 0.0
C884 C 0.24324 0.22675 0.35953 0.0
C885 C 0.17949 0.23252 0.35866 0.0
C886 C 0.13882 0.20711 0.3536 0.0
C887 C 0.1633 0.17604 0.34892 0.0
C888 C 0.22726 0.17011 0.34996 0.0
C889 C 0.48495 0.21937 0.31535 0.0
C890 C 0.45399 0.29092 0.34051 0.0
C891 C 0.68675 0.27296 0.34846 0.0
C892 C 0.75159 0.26148 0.34899 0.0
C893 C 0.76909 0.23018 0.34267 0.0
C894 C 0.83093 0.21967 0.34374 0.0
C895 C 0.87614 0.24026 0.3512 0.0
C896 C 0.85838 0.27176 0.35726 0.0
C897 C 0.7967 0.28217 0.35622 0.0
C898 C 0.49984 0.24699 0.37881 0.0
C899 C 0.57494 0.16701 0.35201 0.0
O900 O 0.36657 0.21071 0.36606 0.0
O901 O 0.36536 0.17384 0.34573 0.0
O902 O 0.5124 0.22859 0.32877 0.0
O903 O 0.43437 0.20368 0.3193 0.0
O904 O 0.42032 0.26591 0.34667 0.0
O905 O 0.5134 0.28773 0.33735 0.0
O906 O 0.65415 0.26556 0.33497 0.0
O907 O 0.6553 0.27004 0.36254 0.0
O908 O 0.51099 0.22304 0.36894 0.0
O909 O 0.52826 0.27358 0.37349 0.0
O910 O 0.60551 0.19498 0.34956 0.0
O911 O 0.5135 0.16593 0.35319 0.0
H912 H 0.27303 0.24683 0.36373 0.0
H913 H 0.16181 0.25685 0.36206 0.0
H914 H 0.13279 0.15609 0.34494 0.0
H915 H 0.24491 0.14564 0.34683 0.0
H916 H 0.73498 0.21389 0.33696 0.0
H917 H 0.8433 0.19532 0.33893 0.0
H918 H 0.89236 0.28853 0.36267 0.0
H919 H 0.78418 0.30648 0.36108 0.0
Sm920 Sm 0.36052 0.50501 0.3496 0.0
Sm921 Sm 0.23286 0.4672 0.35369 0.0
C922 C 0.47368 0.52577 0.35723 0.0
C923 C 0.53862 0.5182 0.35261 0.0
C924 C 0.5605 0.48522 0.35247 0.0
C925 C 0.62321 0.4785 0.34967 0.0
C926 C 0.6655 0.50453 0.34671 0.0
C927 C 0.64323 0.53747 0.34646 0.0
C928 C 0.58042 0.54422 0.34941 0.0
C929 C 0.31315 0.49506 0.31748 0.0
C930 C 0.34824 0.42328 0.34304 0.0
C931 C 0.11784 0.44389 0.35541 0.0
C932 C 0.05345 0.4531 0.35138 0.0
C933 C 0.0383 0.48515 0.34561 0.0
C934 C 0.97615 0.49422 0.34322 0.0
C935 C 0.92843 0.4711 0.34624 0.0
C936 C 0.94406 0.43874 0.35154 0.0
C937 C 1.00604 0.42988 0.35414 0.0
C938 C 0.31161 0.46944 0.3816 0.0
C939 C 0.23327 0.54864 0.35273 0.0
O940 O 0.44415 0.50257 0.36564 0.0
O941 O 0.43887 0.54076 0.3459 0.0
O942 O 0.28781 0.48612 0.33127 0.0
O943 O 0.36504 0.51022 0.3206 0.0
O944 O 0.38394 0.44858 0.34776 0.0
O945 O 0.28769 0.42577 0.3418 0.0
O946 O 0.15492 0.43806 0.34264 0.0
O947 O 0.14455 0.46059 0.36764 0.0
O948 O 0.2992 0.49295 0.37157 0.0
O949 O 0.28094 0.44305 0.37717 0.0
O950 O 0.20233 0.52101 0.3496 0.0
O951 O 0.29418 0.5488 0.35513 0.0
H952 H 0.5295 0.46459 0.35499 0.0
H953 H 0.63884 0.45292 0.35043 0.0
H954 H 0.67454 0.55808 0.34418 0.0
H955 H 0.56472 0.56985 0.34952 0.0
H956 H 0.07445 0.50316 0.34319 0.0
H957 H 0.96532 0.51928 0.33909 0.0
H958 H 0.90818 0.42058 0.35417 0.0
H959 H 1.01688 0.40504 0.35862 0.0
Sm960 Sm 0.4891 0.00331 0.10005 0.0
Sm961 Sm 0.61616 0.96231 0.09895 0.0
C962 C 0.37436 0.02685 0.09768 0.0
C963 C 0.30893 0.01543 0.09751 0.0
C964 C 0.27047 0.02394 0.08379 0.0
C965 C 0.2077 0.01498 0.08373 0.0
C966 C 0.18195 -0.0026 0.09745 0.0
C967 C 0.22061 -0.01149 0.11108 0.0
C968 C 0.28337 -0.0025 0.11115 0.0
C969 C 0.56118 0.00204 0.12916 0.0
C970 C 0.48506 0.92159 0.10345 0.0
C971 C 0.72631 0.94062 0.10909 0.0
C972 C 0.79254 0.94573 0.10535 0.0
C973 C 0.83704 0.93413 0.11689 0.0
C974 C 0.89979 0.94176 0.11466 0.0
C975 C 0.91938 0.96128 0.10084 0.0
C976 C 0.87465 0.97207 0.089 0.0
C977 C 0.81172 0.96455 0.0913 0.0
C978 C 0.57682 0.97266 0.06599 0.0
C979 C 0.61068 0.04411 0.09131 0.0
O980 O 0.40845 0.01982 0.08443 0.0
O981 O 0.4049 0.02447 0.11198 0.0
O982 O 0.5505 0.97778 0.1194 0.0
O983 O 0.5312 0.02821 0.12393 0.0
O984 O 0.4552 0.94967 0.10067 0.0
O985 O 0.54647 0.9198 0.1044 0.0
O986 O 0.698 0.96625 0.11572 0.0
O987 O 0.69252 0.92494 0.09779 0.0
O988 O 0.54954 0.98224 0.07935 0.0
O989 O 0.62613 0.95587 0.07002 0.0
O990 O 0.64303 0.01825 0.097 0.0
O991 O 0.55046 0.04283 0.08876 0.0
H992 H 0.28888 0.03785 0.07315 0.0
H993 H 0.17926 0.02179 0.07295 0.0
H994 H 0.20197 0.97512 0.12186 0.0
H995 H 0.3116 -0.00933 0.12197 0.0
H996 H 0.82303 0.91988 0.12791 0.0
H997 H 0.93281 0.93321 0.12406 0.0
H998 H 0.8882 -0.01346 0.07802 0.0
H999 H 0.77794 0.97395 0.08231 0.0
Sm1000 Sm 0.83824 0.21893 0.10253 0.0
Sm1001 Sm 0.71073 0.25674 0.09888 0.0
C1002 C 0.95455 0.19801 0.10463 0.0
C1003 C 1.01864 0.21035 0.10212 0.0
C1004 C 0.04355 0.2157 0.08586 0.0
C1005 C 0.1051 0.22627 0.08394 0.0
C1006 C 0.14271 0.23173 0.09824 0.0
C1007 C 0.11757 0.22664 0.11444 0.0
C1008 C 0.05643 0.21589 0.11635 0.0
C1009 C 0.76106 0.22105 0.13063 0.0
C1010 C 0.83849 0.29997 0.10208 0.0
C1011 C 0.59993 0.27863 0.10796 0.0
C1012 C 0.53318 0.27534 0.10445 0.0
C1013 C 0.49239 0.27442 0.11824 0.0
C1014 C 0.42907 0.26942 0.1157 0.0
C1015 C 0.40501 0.26525 0.09927 0.0
C1016 C 0.44588 0.26675 0.08538 0.0
C1017 C 0.50962 0.27162 0.08796 0.0
C1018 C 0.75619 0.247 0.06661 0.0
C1019 C 0.72342 0.17485 0.09208 0.0
O1020 O 0.91968 0.19322 0.09124 0.0
O1021 O 0.92399 0.21058 0.11743 0.0
O1022 O 0.77303 0.2447 0.12065 0.0
O1023 O 0.79074 0.19452 0.12593 0.0
O1024 O 0.86875 0.27251 0.09839 0.0
O1025 O 0.77783 0.30011 0.10479 0.0
O1026 O 0.6265 0.25242 0.11464 0.0
O1027 O 0.63495 0.29421 0.0969 0.0
O1028 O 0.78214 0.23802 0.08032 0.0
O1029 O 0.70457 0.26233 0.06987 0.0
O1030 O 0.68779 0.20007 0.09704 0.0
O1031 O 0.7837 0.1778 0.09039 0.0
H1032 H 1.01574 0.21159 0.07462 0.0
H1033 H 0.12322 0.2303 0.07131 0.0
H1034 H 0.14569 0.23036 0.12567 0.0
H1035 H 0.03882 0.21164 0.12903 0.0
H1036 H 0.50977 0.27702 0.13108 0.0
H1037 H 0.39904 0.26806 0.12668 0.0
H1038 H 0.42862 0.26417 0.07256 0.0
H1039 H 0.54041 0.27212 0.07713 0.0
Sm1040 Sm 0.4857 0.21719 0.20966 0.0
Sm1041 Sm 0.61125 0.258 0.21374 0.0
C1042 C 0.37138 0.19291 0.20759 0.0
C1043 C 0.306 0.20199 0.21047 0.0
C1044 C 0.28925 0.23044 0.21971 0.0
C1045 C 0.22653 0.23908 0.22155 0.0
C1046 C 0.17973 0.21917 0.21432 0.0
C1047 C 0.197 0.19066 0.20516 0.0
C1048 C 0.25945 0.1822 0.20325 0.0
C1049 C 0.5643 0.2203 0.18192 0.0
C1050 C 0.48101 0.29884 0.21008 0.0
C1051 C 0.7241 0.27957 0.20609 0.0
C1052 C 0.78958 0.27008 0.20944 0.0
C1053 C 0.81292 0.23918 0.20396 0.0
C1054 C 0.87551 0.2312 0.20609 0.0
C1055 C 0.9165 0.25363 0.21394 0.0
C1056 C 0.89315 0.28447 0.21951 0.0
C1057 C 0.83038 0.29261 0.21726 0.0
C1058 C 0.5638 0.24686 0.24577 0.0
C1059 C 0.60444 0.17578 0.22025 0.0
O1060 O 0.40691 0.18911 0.22093 0.0
O1061 O 0.39937 0.20797 0.19504 0.0
O1062 O 0.55084 0.24393 0.19178 0.0
O1063 O 0.535 0.19351 0.18647 0.0
O1064 O 0.45219 0.27051 0.21302 0.0
O1065 O 0.54218 0.30086 0.2084 0.0
O1066 O 0.69199 0.25912 0.19665 0.0
O1067 O 0.69159 0.29212 0.21858 0.0
O1068 O 0.53972 0.2375 0.23188 0.0
O1069 O 0.61459 0.26317 0.24279 0.0
O1070 O 0.63787 0.20194 0.21544 0.0
O1071 O 0.54374 0.17699 0.2217 0.0
H1072 H 0.32458 0.2461 0.22535 0.0
H1073 H 0.21457 0.26123 0.22864 0.0
H1074 H 0.16216 0.17522 0.19916 0.0
H1075 H 0.27147 0.16029 0.19596 0.0
H1076 H 0.78316 0.22126 0.19771 0.0
H1077 H 0.89204 0.20767 0.20117 0.0
H1078 H 0.92348 0.30235 0.22558 0.0
H1079 H 0.81388 0.31669 0.22146 0.0
Sm1080 Sm 0.83307 0.00166 0.20953 0.0
Sm1081 Sm 0.70619 0.96315 0.21292 0.0
C1082 C 0.94745 0.02568 0.20764 0.0
C1083 C 1.01243 0.01492 0.20897 0.0
C1084 C 1.02895 0.9848 0.21683 0.0
C1085 C 0.0909 0.9742 0.21684 0.0
C1086 C 0.13696 -0.00649 0.20889 0.0
C1087 C 0.12016 0.02405 0.20146 0.0
C1088 C 0.05847 0.03456 0.20145 0.0
C1089 C 0.75483 0.00141 0.18161 0.0
C1090 C 0.83496 0.92019 0.20975 0.0
C1091 C 0.59487 0.94081 0.20427 0.0
C1092 C 0.52832 0.94834 0.20685 0.0
C1093 C 0.50336 0.97915 0.20173 0.0
C1094 C 0.43957 0.98479 0.20244 0.0
C1095 C 0.39931 0.95993 0.20836 0.0
C1096 C 0.42417 0.9296 0.21408 0.0
C1097 C 0.48818 0.92375 0.21319 0.0
C1098 C 0.75158 0.97264 0.24529 0.0
C1099 C 0.71681 0.04474 0.22016 0.0
O1100 O 0.91449 0.02616 0.22155 0.0
O1101 O 0.91672 0.01437 0.19457 0.0
O1102 O 0.76713 0.97686 0.19107 0.0
O1103 O 0.78502 0.02745 0.18675 0.0
O1104 O 0.86575 0.94806 0.21221 0.0
O1105 O 0.77377 0.91955 0.20797 0.0
O1106 O 0.62651 0.96253 0.19547 0.0
O1107 O 0.62651 0.92823 0.21695 0.0
O1108 O 0.77747 0.98201 0.23164 0.0
O1109 O 0.70005 0.95734 0.24188 0.0
O1110 O 0.68161 0.01957 0.21489 0.0
O1111 O 0.77702 0.04176 0.22216 0.0
H1112 H 0.99393 0.96935 0.22273 0.0
H1113 H 0.10261 0.95063 0.22271 0.0
H1114 H 0.15481 0.03985 0.19563 0.0
H1115 H 0.04657 0.05792 0.19538 0.0
H1116 H 0.53284 -0.00127 0.19681 0.0
H1117 H 0.42152 0.00855 0.19818 0.0
H1118 H 0.39392 0.91008 0.21872 0.0
H1119 H 0.50616 0.89974 0.2171 0.0
Sm1120 Sm 0.46327 0.00712 0.96442 0.0
Sm1121 Sm 0.58213 0.96843 0.96049 0.0
C1122 C 0.34774 0.02998 0.96182 0.0
C1123 C 0.28242 0.01866 0.96253 0.0
C1124 C 0.26227 -0.01011 0.954 0.0
C1125 C 0.19949 0.98079 0.95419 0.0
C1126 C 0.15559 0.00011 0.963 0.0
C1127 C 0.1762 0.0287 0.97162 0.0
C1128 C 0.23884 0.03784 0.97138 0.0
C1129 C 0.52691 0.00176 0.99459 0.0
C1130 C 0.46547 0.92455 0.96873 0.0
C1131 C 0.69621 0.94316 0.96 0.0
C1132 C 0.7625 0.95264 0.9604 0.0
C1133 C 0.78417 0.9794 0.97022 0.0
C1134 C 0.84769 -0.01306 0.97076 0.0
C1135 C 0.89071 0.96774 0.9616 0.0
C1136 C 0.86859 0.94129 0.95162 0.0
C1137 C 0.80523 0.93382 0.95106 0.0
C1138 C 0.5075 0.97244 0.93175 0.0
C1139 C 0.58894 0.04909 0.95893 0.0
O1140 O 0.38101 0.02047 0.94888 0.0
O1141 O 0.37908 0.03001 0.976 0.0
O1142 O 0.5217 0.97867 0.98369 0.0
O1143 O 0.49867 0.02852 0.98948 0.0
O1144 O 0.43294 0.95138 0.96457 0.0
O1145 O 0.52584 0.92576 0.97056 0.0
O1146 O 0.66395 0.94735 0.97386 0.0
O1147 O 0.66494 0.95046 0.94629 0.0
O1148 O 0.52079 -0.00398 0.94165 0.0
O1149 O 0.5351 0.94539 0.93671 0.0
O1150 O 0.61707 0.02151 0.96346 0.0
O1151 O 0.52824 0.05007 0.95652 0.0
H1152 H 0.29482 0.97467 0.94701 0.0
H1153 H 0.18517 0.95901 0.94713 0.0
H1154 H 0.1438 0.04404 0.9786 0.0
H1155 H 0.2532 0.06017 0.978 0.0
H1156 H 0.75213 -0.00562 0.97752 0.0
H1157 H 0.86329 0.00753 0.97853 0.0
H1158 H 0.9003 0.92646 0.94414 0.0
H1159 H 0.78956 0.91313 0.94336 0.0
Sm1160 Sm 0.36403 0.7114 0.96369 0.0
Sm1161 Sm 0.23766 0.74994 0.95993 0.0
C1162 C 0.47516 0.68934 0.95478 0.0
C1163 C 0.54199 0.69601 0.95765 0.0
C1164 C 0.57566 0.71308 0.94511 0.0
C1165 C 0.6385 0.72002 0.94734 0.0
C1166 C 0.66965 0.70968 0.96207 0.0
C1167 C 0.63657 0.692 0.97453 0.0
C1168 C 0.5732 0.68523 0.97234 0.0
C1169 C 0.32056 0.72306 0.99598 0.0
C1170 C 0.35302 0.79365 0.96964 0.0
C1171 C 0.12261 0.77261 0.95721 0.0
C1172 C 0.05737 0.7629 0.95982 0.0
C1173 C 0.03787 0.74461 0.97405 0.0
C1174 C 0.97537 0.73551 0.97582 0.0
C1175 C 0.93164 0.74449 0.96337 0.0
C1176 C 0.95157 0.76292 0.94923 0.0
C1177 C 1.01369 0.77199 0.94749 0.0
C1178 C 0.31409 0.74625 0.93171 0.0
C1179 C 0.23512 0.66906 0.96313 0.0
O1180 O 0.44475 0.71252 0.9466 0.0
O1181 O 0.44244 0.67557 0.96694 0.0
O1182 O 0.29403 0.73169 0.98228 0.0
O1183 O 0.37196 0.70755 0.9927 0.0
O1184 O 0.38797 0.7681 0.96475 0.0
O1185 O 0.29297 0.7909 0.9718 0.0
O1186 O 0.15743 0.77769 0.97058 0.0
O1187 O 0.1518 0.75749 0.94492 0.0
O1188 O 0.30146 0.72291 0.94185 0.0
O1189 O 0.28583 0.77321 0.9364 0.0
O1190 O 0.20632 0.69738 0.96578 0.0
O1191 O 0.2954 0.66768 0.95983 0.0
H1192 H 0.55329 0.7212 0.9335 0.0
H1193 H 0.663 0.73334 0.93745 0.0
H1194 H 0.65945 0.68391 0.98604 0.0
H1195 H 0.54874 0.67176 0.98218 0.0
H1196 H 0.0708 0.73732 0.98375 0.0
H1197 H 0.96116 0.72173 0.98696 0.0
H1198 H 0.9191 0.77003 0.93938 0.0
H1199 H 1.02777 0.78604 0.9364 0.0
Sm1200 Sm 0.45608 0.71061 0.84759 0.0
Sm1201 Sm 0.5834 0.74813 0.85105 0.0
C1202 C 0.34467 0.68827 0.8559 0.0
C1203 C 0.2795 0.69409 0.85125 0.0
C1204 C 0.26159 0.72378 0.84322 0.0
C1205 C 0.19877 0.73115 0.84093 0.0
C1206 C 0.15288 0.70895 0.84665 0.0
C1207 C 0.1711 0.67851 0.85393 0.0
C1208 C 0.23398 0.67122 0.85628 0.0
C1209 C 0.50045 0.72094 0.81516 0.0
C1210 C 0.46842 0.7927 0.84157 0.0
C1211 C 0.69916 0.7699 0.85281 0.0
C1212 C 0.76323 0.7592 0.84923 0.0
C1213 C 0.78407 0.72705 0.85341 0.0
C1214 C 0.84678 0.71876 0.85171 0.0
C1215 C 0.8897 0.74244 0.84579 0.0
C1216 C 0.86798 0.77398 0.84078 0.0
C1217 C 0.8054 0.78231 0.84257 0.0
C1218 C 0.50727 0.74544 0.87941 0.0
C1219 C 0.58389 0.6674 0.84996 0.0
O1220 O 0.37224 0.71316 0.86351 0.0
O1221 O 0.38005 0.67332 0.84475 0.0
O1222 O 0.52691 0.72968 0.82882 0.0
O1223 O 0.44877 0.70582 0.81855 0.0
O1224 O 0.43299 0.76741 0.84658 0.0
O1225 O 0.52831 0.78945 0.83925 0.0
O1226 O 0.66294 0.77599 0.83984 0.0
O1227 O 0.67073 0.75492 0.86532 0.0
O1228 O 0.51896 0.72197 0.86933 0.0
O1229 O 0.53682 0.77202 0.87468 0.0
O1230 O 0.61354 0.69493 0.846 0.0
O1231 O 0.52359 0.66715 0.85322 0.0
H1232 H 0.29613 0.74173 0.83921 0.0
H1233 H 0.18599 0.75453 0.83502 0.0
H1234 H 0.13668 0.66098 0.85844 0.0
H1235 H 0.24698 0.64823 0.86255 0.0
H1236 H 0.7523 0.70866 0.85846 0.0
H1237 H 0.86206 0.69423 0.85562 0.0
H1238 H 0.89961 0.79244 0.83574 0.0
H1239 H 0.79021 0.80714 0.83914 0.0
Sm1240 Sm 0.36287 0.00728 0.84584 0.0
Sm1241 Sm 0.24331 0.96971 0.84958 0.0
C1242 C 0.47791 0.03054 0.84886 0.0
C1243 C 0.54376 0.02054 0.8478 0.0
C1244 C 0.56548 -0.00923 0.85508 0.0
C1245 C 0.62893 0.98318 0.8549 0.0
C1246 C 0.67185 0.00526 0.8475 0.0
C1247 C 0.64955 0.03452 0.83981 0.0
C1248 C 0.58626 0.04211 0.84003 0.0
C1249 C 0.30061 0.00188 0.81545 0.0
C1250 C 0.35929 0.92467 0.84188 0.0
C1251 C 0.12892 0.94494 0.85003 0.0
C1252 C 0.06328 0.95529 0.8496 0.0
C1253 C 0.04442 0.9849 0.84163 0.0
C1254 C 0.98157 -0.00618 0.84127 0.0
C1255 C 0.93653 0.9733 0.84889 0.0
C1256 C 0.95583 0.94368 0.85683 0.0
C1257 C 1.01854 0.93483 0.8572 0.0
C1258 C 0.31674 0.97341 0.87854 0.0
C1259 C 0.23822 0.05049 0.85053 0.0
O1260 O 0.44549 0.01891 0.86153 0.0
O1261 O 0.44633 0.0319 0.83475 0.0
O1262 O 0.30477 0.97892 0.82648 0.0
O1263 O 0.32942 0.02848 0.82049 0.0
O1264 O 0.39249 0.9514 0.8458 0.0
O1265 O 0.29894 0.9263 0.84 0.0
O1266 O 0.16128 0.94902 0.83617 0.0
O1267 O 0.16026 0.95208 0.86373 0.0
O1268 O 0.30439 -0.00293 0.86855 0.0
O1269 O 0.28888 0.94652 0.87352 0.0
O1270 O 0.2094 0.02306 0.84606 0.0
O1271 O 0.29852 0.0505 0.85357 0.0
H1272 H 0.53365 0.97362 0.86114 0.0
H1273 H 0.64458 0.9604 0.86089 0.0
H1274 H 0.68109 0.05162 0.83361 0.0
H1275 H 0.57054 0.06515 0.83429 0.0
H1276 H 0.07815 0.00095 0.83558 0.0
H1277 H 0.96812 0.01649 0.83479 0.0
H1278 H 0.92238 0.92744 0.86288 0.0
H1279 H 1.03214 0.91188 0.86342 0.0
C1280 C 0.97647 0.35895 0.10036 0.0
C1281 C 0.95138 0.38938 0.10566 0.0
C1282 C 0.93942 0.33037 0.09925 0.0
C1283 C 0.87574 0.33099 0.10347 0.0
H1284 H 1.02458 0.35736 0.09653 0.0
H1285 H 0.96112 0.30769 0.09481 0.0
S1286 S 0.78931 0.40392 0.11986 0.0
N1287 N 0.86006 0.41805 0.11644 0.0
N1288 N 0.79066 0.36434 0.11433 0.0
C1289 C 0.85063 0.36107 0.10935 0.0
C1290 C 0.88836 0.39021 0.11046 0.0
C1291 C 0.47168 0.86025 0.09989 0.0
C1292 C 0.4468 0.89103 0.10467 0.0
C1293 C 0.43433 0.83181 0.09904 0.0
C1294 C 0.37049 0.83277 0.10304 0.0
H1295 H 0.51992 0.85824 0.09623 0.0
H1296 H 0.45605 0.80896 0.09496 0.0
S1297 S 0.28428 0.90679 0.11819 0.0
N1298 N 0.35532 0.92054 0.11479 0.0
N1299 N 0.28537 0.86692 0.1132 0.0
C1300 C 0.3455 0.86321 0.10845 0.0
C1301 C 0.38356 0.89231 0.10928 0.0
C1302 C 0.93748 0.89055 0.21004 0.0
C1303 C 0.87203 0.88895 0.20917 0.0
C1304 C 0.97419 0.86172 0.21018 0.0
C1305 C 0.94704 0.83002 0.20952 0.0
H1306 H 0.96102 0.9143 0.21075 0.0
H1307 H 1.02404 0.86434 0.21114 0.0
S1308 S 0.77826 0.81188 0.20586 0.0
N1309 N 0.78215 0.85282 0.20681 0.0
N1310 N 0.85052 0.79871 0.20688 0.0
C1311 C 0.88172 0.82802 0.20815 0.0
C1312 C 0.84443 0.8574 0.20802 0.0
C1313 C 0.42818 0.38849 0.2142 0.0
C1314 C 0.36405 0.38688 0.21046 0.0
C1315 C 0.4662 0.36025 0.2135 0.0
C1316 C 0.44175 0.3291 0.20916 0.0
H1317 H 0.44963 0.41172 0.21793 0.0
H1318 H 0.51469 0.36275 0.21686 0.0
S1319 S 0.2786 0.31152 0.19661 0.0
N1320 N 0.27903 0.3516 0.20118 0.0
N1321 N 0.35028 0.29852 0.19976 0.0
C1322 C 0.37819 0.32717 0.20486 0.0
C1323 C 0.33944 0.356 0.20555 0.0
C1324 C 0.18274 0.57971 0.95655 0.0
C1325 C 0.12082 0.58015 0.96224 0.0
C1326 C 0.21984 0.60833 0.95709 0.0
C1327 C 0.19645 0.63848 0.9634 0.0
H1328 H 0.20272 0.55705 0.95153 0.0
H1329 H 0.26689 0.60682 0.95238 0.0
S1330 S 0.03778 0.65192 0.98078 0.0
N1331 N 0.0382 0.6126 0.9748 0.0
N1332 N 0.10725 0.66645 0.97614 0.0
C1333 C 0.13442 0.63906 0.96929 0.0
C1334 C 0.09671 0.60993 0.96857 0.0
C1335 C 0.63848 0.13944 0.96005 0.0
C1336 C 0.70353 0.13773 0.95805 0.0
C1337 C 0.60128 0.1109 0.95968 0.0
C1338 C 0.62753 0.07939 0.95731 0.0
H1339 H 0.61565 0.16299 0.96221 0.0
H1340 H 0.55193 0.11352 0.96182 0.0
S1341 S 0.79387 0.06122 0.94902 0.0
N1342 N 0.79152 0.10185 0.95201 0.0
N1343 N 0.72172 0.04817 0.95111 0.0
C1344 C 0.69203 0.0773 0.95442 0.0
C1345 C 0.72997 0.10643 0.95484 0.0
C1346 C 0.09815 0.10815 0.85045 0.0
C1347 C 0.12427 0.13968 0.85312 0.0
C1348 C 0.13548 0.07961 0.84985 0.0
C1349 C 0.2005 0.08134 0.85197 0.0
H1350 H 0.04875 0.10553 0.84835 0.0
H1351 H 0.11283 0.05601 0.8475 0.0
S1352 S 0.29124 0.15777 0.86098 0.0
N1353 N 0.21898 0.17078 0.85919 0.0
N1354 N 0.28866 0.11717 0.8579 0.0
C1355 C 0.22695 0.1126 0.85525 0.0
C1356 C 0.189 0.14171 0.85586 0.0
C1357 C 0.6827 0.63664 0.84457 0.0
C1358 C 0.62181 0.63666 0.85119 0.0
C1359 C 0.72119 0.60868 0.84592 0.0
C1360 C 0.70023 0.57959 0.85386 0.0
H1361 H 0.70092 0.65832 0.83809 0.0
H1362 H 0.76683 0.60951 0.84022 0.0
S1363 S 0.54812 0.56755 0.87502 0.0
N1364 N 0.54454 0.60559 0.86711 0.0
N1365 N 0.61709 0.5531 0.86974 0.0
C1366 C 0.6404 0.57948 0.86102 0.0
C1367 C 0.6011 0.60795 0.85963 0.0
C1368 C 0.88729 0.88759 0.6057 0.0
C1369 C 0.9485 0.887 0.59943 0.0
C1370 C 0.84876 0.85952 0.60476 0.0
C1371 C 0.86988 0.82981 0.59741 0.0
H1372 H 0.86898 0.90998 0.61146 0.0
H1373 H 0.80245 0.86107 0.60998 0.0
S1374 S 1.02534 0.81639 0.57795 0.0
N1375 N 1.02773 0.85495 0.5851 0.0
N1376 N 0.95588 0.80225 0.58291 0.0
C1377 C 0.93106 0.82913 0.59087 0.0
C1378 C 0.9703 0.85765 0.59203 0.0
C1379 C 0.34759 0.36062 0.60526 0.0
C1380 C 0.37045 0.33018 0.59918 0.0
C1381 C 0.386 0.38876 0.60629 0.0
C1382 C 0.44891 0.38756 0.60141 0.0
H1383 H 0.29985 0.36277 0.60935 0.0
H1384 H 0.36616 0.41168 0.61105 0.0
S1385 S 0.53151 0.31462 0.58385 0.0
N1386 N 0.46066 0.30109 0.58758 0.0
N1387 N 0.5319 0.35392 0.58986 0.0
C1388 C 0.47252 0.35744 0.59533 0.0
C1389 C 0.43351 0.32883 0.59409 0.0
C1390 C 0.9698 0.36124 0.71711 0.0
C1391 C 0.94976 0.33204 0.70915 0.0
C1392 C 0.93063 0.3889 0.7183 0.0
C1393 C 0.87015 0.38864 0.71139 0.0
H1394 H 1.01517 0.36238 0.72299 0.0
H1395 H 0.94792 0.41053 0.72497 0.0
S1396 S 0.79782 0.31877 0.68793 0.0
N1397 N 0.86698 0.30474 0.6934 0.0
N1398 N 0.7936 0.35698 0.69553 0.0
C1399 C 0.85006 0.35974 0.70306 0.0
C1400 C 0.8899 0.33145 0.70192 0.0
C1401 C 0.38293 0.83034 0.71263 0.0
C1402 C 0.4464 0.83122 0.70818 0.0
C1403 C 0.34576 0.85893 0.71192 0.0
C1404 C 0.37059 0.88959 0.70683 0.0
H1405 H 0.36159 0.80746 0.71698 0.0
H1406 H 0.29783 0.85717 0.71591 0.0
S1407 S 0.53182 0.90484 0.69204 0.0
N1408 N 0.53082 0.86505 0.69725 0.0
N1409 N 0.46126 0.91876 0.69589 0.0
C1410 C 0.43334 0.89066 0.70177 0.0
C1411 C 0.47115 0.86154 0.70247 0.0
C1412 C 0.17544 0.08185 0.45297 0.0
C1413 C 0.11292 0.08254 0.45822 0.0
C1414 C 0.21318 0.11022 0.45391 0.0
C1415 C 0.19 0.14037 0.46025 0.0
H1416 H 0.19566 0.05908 0.44815 0.0
H1417 H 0.26074 0.10842 0.44962 0.0
S1418 S 1.0299 0.1546 0.47653 0.0
N1419 N 1.02991 0.11541 0.47032 0.0
N1420 N 0.1001 0.16871 0.47243 0.0
C1421 C 0.12727 0.14129 0.46561 0.0
C1422 C 0.08889 0.11243 0.46446 0.0
C1423 C 0.63464 0.63957 0.46307 0.0
C1424 C 0.69729 0.63805 0.45785 0.0
C1425 C 0.59622 0.61147 0.46288 0.0
C1426 C 0.61895 0.58058 0.45757 0.0
H1427 H 0.61499 0.66256 0.46771 0.0
H1428 H 0.54917 0.61374 0.46752 0.0
S1429 S 0.77666 0.56353 0.44069 0.0
N1430 N 0.77837 0.6033 0.4459 0.0
N1431 N 0.70627 0.55041 0.44545 0.0
C1432 C 0.68068 0.5788 0.45168 0.0
C1433 C 0.71984 0.60748 0.45188 0.0
C1434 C 0.13135 0.57877 0.35298 0.0
C1435 C 0.19682 0.58007 0.35349 0.0
C1436 C 0.09505 0.60772 0.35293 0.0
C1437 C 0.12263 0.6393 0.35338 0.0
H1438 H 0.10745 0.55515 0.35252 0.0
H1439 H 0.04511 0.60525 0.35217 0.0
S1440 S 0.29205 0.65677 0.35642 0.0
N1441 N 0.28739 0.61582 0.35548 0.0
N1442 N 0.21987 0.67024 0.35565 0.0
C1443 C 0.1881 0.64105 0.35453 0.0
C1444 C 0.22497 0.6115 0.35453 0.0
C1445 C 0.71634 0.11026 0.35234 0.0
C1446 C 0.69078 0.07829 0.35361 0.0
C1447 C 0.67838 0.13854 0.35217 0.0
C1448 C 0.61306 0.13619 0.35326 0.0
H1449 H 0.76595 0.11354 0.35103 0.0
H1450 H 0.70093 0.16248 0.35093 0.0
S1451 S 0.52305 0.05821 0.35869 0.0
N1452 N 0.59586 0.04591 0.35746 0.0
N1453 N 0.52504 0.09913 0.3569 0.0
C1454 C 0.58697 0.10441 0.35521 0.0
C1455 C 0.62563 0.07551 0.35544 0.0
C1456 C 0.13272 0.47113 0.15169 0.0
C1457 C 0.10979 0.50128 0.14498 0.0
C1458 C 0.17903 0.4707 0.16433 0.0
C1459 C 0.20439 0.50038 0.17086 0.0
H1460 H 0.1149 0.4476 0.14708 0.0
H1461 H 0.19506 0.44685 0.16904 0.0
S1462 S 0.16043 0.58606 0.15768 0.0
N1463 N 0.11631 0.56167 0.14592 0.0
N1464 N 0.20257 0.56088 0.16959 0.0
C1465 C 0.18182 0.5307 0.16427 0.0
C1466 C 0.13462 0.53114 0.15143 0.0
C1467 C 0.18574 0.69215 0.14935 0.0
C1468 C 0.21116 0.72218 0.14324 0.0
C1469 C 0.13814 0.69197 0.16159 0.0
C1470 C 0.11419 0.72178 0.16835 0.0
H1471 H 0.20218 0.66854 0.1445 0.0
H1472 H 0.12029 0.66819 0.16587 0.0
S1473 S 0.1653 0.80714 0.1568 0.0
N1474 N 0.20928 0.78255 0.14514 0.0
N1475 N 0.11976 0.78223 0.16786 0.0
C1476 C 0.13932 0.75196 0.16235 0.0
C1477 C 0.18787 0.75215 0.14994 0.0
C1478 C 0.8904 0.4402 0.90096 0.0
C1479 C 0.86535 0.47008 0.89454 0.0
C1480 C 0.93698 0.4403 0.9135 0.0
C1481 C 0.96006 0.47028 0.92029 0.0
H1482 H 0.87435 0.41648 0.89614 0.0
H1483 H 0.95462 0.41663 0.918 0.0
S1484 S 0.90967 0.55535 0.90801 0.0
N1485 N 0.86686 0.53049 0.89614 0.0
N1486 N 0.95428 0.5307 0.91954 0.0
C1487 C 0.93533 0.50032 0.91401 0.0
C1488 C 0.88799 0.50021 0.90123 0.0
C1489 C 0.93155 0.22136 0.90045 0.0
C1490 C 0.95471 0.25135 0.89366 0.0
C1491 C 0.88582 0.22124 0.91321 0.0
C1492 C 0.86176 0.25111 0.91988 0.0
H1493 H 0.94888 0.19773 0.89586 0.0
H1494 H 0.86953 0.19751 0.91799 0.0
S1495 S 0.90649 0.33648 0.90647 0.0
N1496 N 0.9493 0.3118 0.89454 0.0
N1497 N 0.86464 0.31156 0.91856 0.0
C1498 C 0.88439 0.28125 0.91316 0.0
C1499 C 0.9307 0.28138 0.90014 0.0
C1500 C 0.14203 0.96897 0.64692 0.0
C1501 C 0.10987 -0.00193 0.64215 0.0
C1502 C 0.18932 0.96973 0.65931 0.0
C1503 C 0.20632 -0.0004 0.66745 0.0
H1504 H 0.13094 0.94544 0.64095 0.0
H1505 H 0.21306 0.94677 0.66245 0.0
S1506 S 0.1307 0.08166 0.66128 0.0
N1507 N 0.09503 0.05698 0.64773 0.0
N1508 N 0.18312 0.05836 0.67089 0.0
C1509 C 0.17313 0.02858 0.6632 0.0
C1510 C 0.12501 0.02779 0.65066 0.0
C1511 C 0.17005 0.25101 0.64707 0.0
C1512 C 0.2095 0.22348 0.64452 0.0
C1513 C 0.12362 0.25062 0.65967 0.0
C1514 C 0.11534 0.22284 0.67034 0.0
H1515 H 0.17435 0.27286 0.63911 0.0
H1516 H 0.09339 0.27201 0.66088 0.0
S1517 S 0.21856 0.14919 0.67245 0.0
N1518 N 0.24473 0.17066 0.6561 0.0
N1519 N 0.15817 0.17003 0.67965 0.0
C1520 C 0.15748 0.19633 0.6688 0.0
C1521 C 0.20457 0.19671 0.656 0.0
C1522 C 0.93366 0.94152 0.41038 0.0
C1523 C 0.95535 0.97168 0.41733 0.0
C1524 C 0.88566 0.94092 0.39822 0.0
C1525 C 0.85745 0.97048 0.39241 0.0
H1526 H 0.95361 0.91808 0.41445 0.0
H1527 H 0.87112 0.91709 0.39318 0.0
S1528 S 0.89691 0.05605 0.40652 0.0
N1529 N 0.945 0.03194 0.41725 0.0
N1530 N 0.8543 0.03076 0.39483 0.0
C1531 C 0.87839 0.00077 0.39935 0.0
C1532 C 0.92756 0.00139 0.4116 0.0
C1533 C 0.93225 0.72079 0.39853 0.0
C1534 C 0.96031 0.75068 0.39309 0.0
C1535 C 0.88451 0.72066 0.41074 0.0
C1536 C 0.86336 0.75036 0.41826 0.0
H1537 H 0.94678 0.69726 0.39315 0.0
H1538 H 0.86413 0.69705 0.41436 0.0
S1539 S 0.92327 0.83526 0.40918 0.0
N1540 N 0.96399 0.81078 0.39661 0.0
N1541 N 0.87576 0.81046 0.41966 0.0
C1542 C 0.8916 0.78036 0.41311 0.0
C1543 C 0.93987 0.78052 0.40062 0.0
C1544 C 0.64002 0.52633 0.65097 0.0
C1545 C 0.61647 0.49633 0.64432 0.0
C1546 C 0.68712 0.52652 0.66336 0.0
C1547 C 0.7124 0.4967 0.66976 0.0
H1548 H 0.62217 0.54998 0.64651 0.0
H1549 H 0.70321 0.55028 0.66813 0.0
S1550 S 0.66736 0.41133 0.65659 0.0
N1551 N 0.62218 0.43591 0.64519 0.0
N1552 N 0.71088 0.43627 0.66824 0.0
C1553 C 0.6896 0.46652 0.66314 0.0
C1554 C 0.64153 0.46632 0.65055 0.0
C1555 C 0.67913 0.69288 0.64912 0.0
C1556 C 0.70122 0.72283 0.642 0.0
C1557 C 0.6323 0.69269 0.66154 0.0
C1558 C 0.60578 0.72247 0.66754 0.0
H1559 H 0.69795 0.66924 0.64499 0.0
H1560 H 0.61739 0.66897 0.66666 0.0
S1561 S 0.64662 0.8077 0.65308 0.0
N1562 N 0.69265 0.78317 0.64198 0.0
N1563 N 0.60458 0.7828 0.66515 0.0
C1564 C 0.62714 0.7526 0.66048 0.0
C1565 C 0.6749 0.75279 0.64782 0.0
C1566 C 0.38476 0.44047 0.40175 0.0
C1567 C 0.36099 0.47031 0.39492 0.0
C1568 C 0.43236 0.44062 0.41403 0.0
C1569 C 0.4579 0.47061 0.4201 0.0
H1570 H 0.36677 0.41673 0.39751 0.0
H1571 H 0.4487 0.417 0.41894 0.0
S1572 S 0.41217 0.55562 0.40639 0.0
N1573 N 0.36662 0.53074 0.39532 0.0
N1574 N 0.45616 0.531 0.4181 0.0
C1575 C 0.43473 0.50061 0.41332 0.0
C1576 C 0.38621 0.50047 0.40087 0.0
C1577 C 0.37872 0.27704 0.41067 0.0
C1578 C 0.35569 0.24734 0.41783 0.0
C1579 C 0.42583 0.27671 0.39831 0.0
C1580 C 0.45178 0.24665 0.39247 0.0
H1581 H 0.36055 0.30086 0.41474 0.0
H1582 H 0.44151 0.30025 0.39315 0.0
S1583 S 0.40836 0.16192 0.4071 0.0
N1584 N 0.36247 0.18692 0.41796 0.0
N1585 N 0.45152 0.18636 0.39509 0.0
C1586 C 0.42947 0.21678 0.39958 0.0
C1587 C 0.38121 0.2171 0.41208 0.0
C1588 C 0.68189 0.97217 0.16142 0.0
C1589 C 0.70559 0.002 0.16823 0.0
C1590 C 0.63462 0.97233 0.14904 0.0
C1591 C 0.60957 0.00235 0.14277 0.0
H1592 H 0.69989 0.94843 0.16573 0.0
H1593 H 0.61794 0.94871 0.14424 0.0
S1594 S 0.65548 0.08741 0.15633 0.0
N1595 N 0.69979 0.06246 0.16775 0.0
N1596 N 0.61235 0.06278 0.14443 0.0
C1597 C 0.63288 0.03234 0.14948 0.0
C1598 C 0.68071 0.03217 0.16212 0.0
C1599 C 0.68903 0.19172 0.15084 0.0
C1600 C 0.71173 0.22169 0.14392 0.0
C1601 C 0.64104 0.19152 0.16293 0.0
C1602 C 0.61392 0.22131 0.16873 0.0
H1603 H 0.70807 0.16809 0.14677 0.0
H1604 H 0.62547 0.16779 0.16788 0.0
S1605 S 0.65624 0.30657 0.15469 0.0
N1606 N 0.70351 0.28207 0.14399 0.0
N1607 N 0.61286 0.28163 0.16638 0.0
C1608 C 0.63604 0.25145 0.1619 0.0
C1609 C 0.68513 0.25167 0.14965 0.0
C1610 C 0.38825 0.94425 0.89892 0.0
C1611 C 0.3647 0.97427 0.89225 0.0
C1612 C 0.4347 0.944 0.91148 0.0
C1613 C 0.45942 0.97376 0.91808 0.0
H1614 H 0.37107 0.9206 0.89429 0.0
H1615 H 0.45097 0.92018 0.91616 0.0
S1616 S 0.41375 0.05919 0.90506 0.0
N1617 N 0.36957 0.03467 0.89336 0.0
N1618 N 0.45692 0.03422 0.91682 0.0
C1619 C 0.43627 0.00399 0.91155 0.0
C1620 C 0.38898 0.00424 0.89871 0.0
C1621 C 0.43524 0.77467 0.89953 0.0
C1622 C 0.45857 0.74468 0.89286 0.0
C1623 C 0.38818 0.77485 0.91188 0.0
C1624 C 0.36274 0.74505 0.91825 0.0
H1625 H 0.45306 0.79832 0.89506 0.0
H1626 H 0.37205 0.79864 0.91659 0.0
S1627 S 0.40776 0.65969 0.90514 0.0
N1628 N 0.45278 0.68426 0.89372 0.0
N1629 N 0.36436 0.68461 0.9168 0.0
C1630 C 0.38562 0.71485 0.9117 0.0
C1631 C 0.43355 0.71467 0.8991 0.0
C1632 C 0.126 0.63773 0.09111 0.0
C1633 C 0.19036 0.64256 0.09073 0.0
C1634 C 0.1008 0.60567 0.09134 0.0
C1635 C 0.13899 0.57717 0.09141 0.0
H1636 H 0.09476 0.65883 0.09148 0.0
H1637 H 0.05083 0.60335 0.092 0.0
S1638 S 0.31065 0.57596 0.08986 0.0
N1639 N 0.29216 0.61583 0.08988 0.0
N1640 N 0.24415 0.55573 0.09042 0.0
C1641 C 0.20336 0.58153 0.09066 0.0
C1642 C 0.2292 0.61418 0.09027 0.0
C1643 C 0.19072 0.63571 0.22184 0.0
C1644 C 0.1265 0.64064 0.22313 0.0
C1645 C 0.21602 0.60367 0.2222 0.0
C1646 C 0.17804 0.57525 0.22371 0.0
H1647 H 0.22176 0.65665 0.22011 0.0
H1648 H 0.26569 0.60121 0.22065 0.0
S1649 S 1.00752 0.57426 0.22902 0.0
N1650 N 1.02554 0.61405 0.22724 0.0
N1651 N 0.0738 0.554 0.22765 0.0
C1652 C 0.1141 0.57973 0.22563 0.0
C1653 C 0.08817 0.61237 0.22545 0.0
C1654 C 0.85401 0.35339 0.97305 0.0
C1655 C 0.89162 0.32478 0.97406 0.0
C1656 C 0.87977 0.38529 0.97312 0.0
C1657 C 0.94412 0.38986 0.97436 0.0
H1658 H 0.80425 0.35124 0.97154 0.0
H1659 H 0.84897 0.40644 0.97177 0.0
S1660 S 0.0623 0.32281 0.9791 0.0
N1661 N 0.99567 0.30288 0.97759 0.0
N1662 N 0.04484 0.36275 0.97789 0.0
C1663 C 0.98213 0.36138 0.97621 0.0
C1664 C 0.95571 0.32886 0.97598 0.0
C1665 C 0.8483 0.36322 0.84262 0.0
C1666 C 0.88461 0.39183 0.83974 0.0
C1667 C 0.87427 0.33139 0.84215 0.0
C1668 C 0.9375 0.32685 0.83865 0.0
H1669 H 0.79978 0.36539 0.84596 0.0
H1670 H 0.8448 0.31034 0.84513 0.0
S1671 S 0.05064 0.39373 0.82793 0.0
N1672 N 0.98527 0.41366 0.83175 0.0
N1673 N 1.03469 0.35387 0.83058 0.0
C1674 C 0.97362 0.35526 0.83476 0.0
C1675 C 0.94707 0.38773 0.83542 0.0
C1676 C 0.09494 0.10518 0.59207 0.0
C1677 C 0.13128 0.07663 0.58915 0.0
C1678 C 0.1213 0.13701 0.59221 0.0
C1679 C 0.18497 0.14158 0.58931 0.0
H1680 H 0.04599 0.10295 0.59489 0.0
H1681 H 0.09165 0.15802 0.59507 0.0
S1682 S 0.29893 0.07486 0.57908 0.0
N1683 N 0.23289 0.05497 0.58198 0.0
N1684 N 0.28296 0.11462 0.582 0.0
C1685 C 0.22133 0.11323 0.58554 0.0
C1686 C 0.19439 0.0808 0.58556 0.0
C1687 C 0.10083 0.11629 0.72095 0.0
C1688 C 0.13914 0.1447 0.72193 0.0
C1689 C 0.12587 0.0842 0.72026 0.0
C1690 C 0.19018 0.07923 0.72071 0.0
H1691 H 0.05091 0.11875 0.72015 0.0
H1692 H 0.09453 0.06324 0.71911 0.0
S1693 S 0.31061 0.14552 0.72417 0.0
N1694 N 0.2442 0.16583 0.72401 0.0
N1695 N 0.29202 0.10578 0.72281 0.0
C1696 C 0.22908 0.1075 0.7222 0.0
C1697 C 0.20338 0.14015 0.72278 0.0
C1698 C 0.84962 0.85355 0.47225 0.0
C1699 C 0.88801 0.82533 0.47029 0.0
C1700 C 0.87382 0.88585 0.47166 0.0
C1701 C 0.9374 0.89117 0.46932 0.0
H1702 H 0.8 0.85088 0.47381 0.0
H1703 H 0.84244 0.90675 0.47296 0.0
S1704 S 0.05824 0.82591 0.4638 0.0
N1705 N 0.99303 0.805 0.4662 0.0
N1706 N 0.03881 0.86555 0.46507 0.0
C1707 C 0.97664 0.8632 0.46767 0.0
C1708 C 0.95188 0.83034 0.46817 0.0
C1709 C 0.87651 0.83272 0.33795 0.0
C1710 C 0.94061 0.82832 0.33972 0.0
C1711 C 0.85062 0.86463 0.33757 0.0
C1712 C 0.88778 0.89339 0.33921 0.0
H1713 H 0.84595 0.81139 0.33702 0.0
H1714 H 0.80069 0.86655 0.33651 0.0
S1715 S 0.05885 0.89544 0.34383 0.0
N1716 N 0.04131 0.8555 0.34279 0.0
N1717 N 0.99226 0.91534 0.34215 0.0
C1718 C 0.95217 0.88937 0.34063 0.0
C1719 C 0.97868 0.85688 0.34087 0.0
C1720 C 0.59568 0.6049 0.59155 0.0
C1721 C 0.63272 0.5762 0.58983 0.0
C1722 C 0.62155 0.63679 0.59094 0.0
C1723 C 0.68542 0.64129 0.58844 0.0
H1724 H 0.54646 0.60283 0.59404 0.0
H1725 H 0.59135 0.65796 0.59295 0.0
S1726 S 0.80142 0.57405 0.58115 0.0
N1727 N 0.73537 0.5542 0.58412 0.0
N1728 N 0.78454 0.614 0.58271 0.0
C1729 C 0.72255 0.61273 0.58577 0.0
C1730 C 0.69609 0.58023 0.58656 0.0
C1731 C 0.62254 0.58254 0.72192 0.0
C1732 C 0.68693 0.57795 0.72165 0.0
C1733 C 0.59696 0.61452 0.72169 0.0
C1734 C 0.63482 0.64314 0.72094 0.0
H1735 H 0.59156 0.5613 0.72215 0.0
H1736 H 0.54692 0.61664 0.72161 0.0
S1737 S 0.80666 0.64478 0.7203 0.0
N1738 N 0.78849 0.60489 0.72092 0.0
N1739 N 0.73996 0.66484 0.72041 0.0
C1740 C 0.69934 0.63896 0.72096 0.0
C1741 C 0.72552 0.60641 0.72135 0.0
C1742 C 0.3694 0.38816 0.4711 0.0
C1743 C 0.43362 0.39251 0.47281 0.0
C1744 C 0.34335 0.3563 0.47061 0.0
C1745 C 0.38054 0.32749 0.47161 0.0
H1746 H 0.33895 0.40946 0.4698 0.0
H1747 H 0.29366 0.35438 0.46887 0.0
S1748 S 0.55099 0.32491 0.47724 0.0
N1749 N 0.53389 0.36493 0.47639 0.0
N1750 N 0.48427 0.30521 0.47527 0.0
C1751 C 0.44457 0.33136 0.47381 0.0
C1752 C 0.47125 0.36381 0.47449 0.0
C1753 C 0.36356 0.32949 0.34235 0.0
C1754 C 0.42681 0.32465 0.33899 0.0
C1755 C 0.33834 0.36152 0.34305 0.0
C1756 C 0.37549 0.38998 0.3406 0.0
H1757 H 0.33345 0.30849 0.34491 0.0
H1758 H 0.28966 0.36391 0.34617 0.0
S1759 S 0.54253 0.39124 0.32983 0.0
N1760 N 0.52534 0.35139 0.33188 0.0
N1761 N 0.47733 0.41142 0.33346 0.0
C1762 C 0.43815 0.38561 0.33658 0.0
C1763 C 0.46393 0.35299 0.33567 0.0
C1764 C 0.60442 0.10592 0.08959 0.0
C1765 C 0.64098 0.07685 0.0895 0.0
C1766 C 0.63145 0.13752 0.08987 0.0
C1767 C 0.6961 0.14135 0.08989 0.0
H1768 H 0.55432 0.10442 0.0901 0.0
H1769 H 0.60127 0.15905 0.09047 0.0
S1770 S 0.81258 0.07297 0.08798 0.0
N1771 N 0.74497 0.05379 0.08822 0.0
N1772 N 0.79636 0.1131 0.08861 0.0
C1773 C 0.73334 0.11243 0.08896 0.0
C1774 C 0.70563 0.08021 0.08882 0.0
C1775 C 0.59784 0.11386 0.22192 0.0
C1776 C 0.63448 0.14293 0.22225 0.0
C1777 C 0.62476 0.0822 0.22181 0.0
C1778 C 0.68938 0.07828 0.22222 0.0
H1779 H 0.5478 0.1154 0.2211 0.0
H1780 H 0.59454 0.06071 0.22101 0.0
S1781 S 0.80606 0.14653 0.22469 0.0
N1782 N 0.73858 0.1658 0.22409 0.0
N1783 N 0.78963 0.10643 0.22403 0.0
C1784 C 0.72664 0.10717 0.22335 0.0
C1785 C 0.69909 0.13944 0.22331 0.0
C1786 C 0.44496 0.83113 0.97053 0.0
C1787 C 0.38039 0.82726 0.97107 0.0
C1788 C 0.47182 0.86276 0.97026 0.0
C1789 C 0.43515 0.8918 0.97037 0.0
H1790 H 0.47516 0.80961 0.97 0.0
H1791 H 0.52187 0.86428 0.96949 0.0
S1792 S 0.26368 0.89559 0.97271 0.0
N1793 N 0.28008 0.85547 0.9725 0.0
N1794 N 0.33117 0.91482 0.97189 0.0
C1795 C 0.37059 0.88842 0.97139 0.0
C1796 C 0.34307 0.85618 0.9718 0.0
C1797 C 0.37739 0.83095 0.84058 0.0
C1798 C 0.44187 0.82656 0.84013 0.0
C1799 C 0.35137 0.86281 0.84067 0.0
C1800 C 0.38878 0.8916 0.84048 0.0
H1801 H 0.34661 0.80965 0.84112 0.0
H1802 H 0.30135 0.86472 0.84135 0.0
S1803 S 0.56042 0.89401 0.8385 0.0
N1804 N 0.54293 0.85402 0.83883 0.0
N1805 N 0.49344 0.91376 0.8391 0.0
C1806 C 0.45327 0.88769 0.83961 0.0
C1807 C 0.47995 0.85522 0.83939 0.0
C1808 C 0.59735 0.45526 0.10139 0.0
C1809 C 0.61654 0.48836 0.0988 0.0
C1810 C 0.53424 0.4469 0.10226 0.0
C1811 C 0.48772 0.47133 0.10066 0.0
H1812 H 0.63145 0.43562 0.10273 0.0
H1813 H 0.52176 0.42106 0.10423 0.0
S1814 S 0.51369 0.56201 0.09479 0.0
N1815 N 0.58409 0.54588 0.0952 0.0
N1816 N 0.46564 0.5303 0.09702 0.0
C1817 C 0.50635 0.50456 0.09808 0.0
C1818 C 0.57064 0.51303 0.09712 0.0
C1819 C 0.74708 0.71872 0.08785 0.0
C1820 C 0.70212 0.73943 0.09526 0.0
C1821 C 0.81024 0.72685 0.08848 0.0
C1822 C 0.83116 0.75591 0.09667 0.0
H1823 H 0.73334 0.69578 0.08169 0.0
H1824 H 0.84308 0.70993 0.08271 0.0
S1825 S 0.73186 0.81841 0.11818 0.0
N1826 N 0.68252 0.79043 0.11087 0.0
N1827 N 0.80131 0.80552 0.11235 0.0
C1828 C 0.78645 0.77725 0.10381 0.0
C1829 C 0.72198 0.76905 0.10305 0.0
C1830 C 0.57407 0.72658 0.22228 0.0
C1831 C 0.61725 0.7458 0.21317 0.0
C1832 C 0.51067 0.7346 0.22218 0.0
C1833 C 0.48826 0.76225 0.21304 0.0
H1834 H 0.58903 0.70441 0.22896 0.0
H1835 H 0.47873 0.71824 0.22873 0.0
S1836 S 0.58371 0.82344 0.18932 0.0
N1837 N 0.63396 0.79544 0.19613 0.0
N1838 N 0.5154 0.81103 0.19632 0.0
C1839 C 0.53154 0.78272 0.2047 0.0
C1840 C 0.59582 0.77436 0.20466 0.0
C1841 C 0.80476 0.49381 0.21522 0.0
C1842 C 0.82545 0.46071 0.21675 0.0
C1843 C 0.74154 0.50176 0.2161 0.0
C1844 C 0.69623 0.47699 0.2186 0.0
H1845 H 0.83759 0.5137 0.21289 0.0
H1846 H 0.72798 0.52753 0.21442 0.0
S1847 S 0.72646 0.38679 0.22486 0.0
N1848 N 0.79584 0.40315 0.22185 0.0
N1849 N 0.67704 0.41811 0.22362 0.0
C1850 C 0.71637 0.44384 0.22052 0.0
C1851 C 0.78086 0.43571 0.21958 0.0
C1852 C 0.56009 0.48161 0.97861 0.0
C1853 C 0.58358 0.50593 0.96745 0.0
C1854 C 0.49686 0.47346 0.97882 0.0
C1855 C 0.45447 0.48946 0.96797 0.0
H1856 H 0.591 0.46843 0.98712 0.0
H1857 H 0.48109 0.45421 0.98743 0.0
S1858 S 0.49184 0.55443 0.93611 0.0
N1859 N 0.55908 0.54562 0.94508 0.0
N1860 N 0.44022 0.53062 0.9457 0.0
C1861 C 0.47692 0.51432 0.95701 0.0
C1862 C 0.54141 0.52249 0.9567 0.0
C1863 C 0.33444 0.24488 0.95214 0.0
C1864 C 0.37151 0.23457 0.96589 0.0
C1865 C 0.27136 0.23676 0.95125 0.0
C1866 C 0.24268 0.21777 0.96401 0.0
H1867 H 0.3544 0.25932 0.9419 0.0
H1868 H 0.24479 0.24531 0.94042 0.0
S1869 S 0.31789 0.18543 1.00298 0.0
N1870 N 0.3741 0.20497 0.99282 0.0
N1871 N 0.25556 0.18923 0.99095 0.0
C1872 C 0.27905 0.20696 0.97776 0.0
C1873 C 0.34339 0.21544 0.97874 0.0
C1874 C 0.53845 0.19946 0.84687 0.0
C1875 C 0.58425 0.22443 0.84735 0.0
C1876 C 0.47504 0.20762 0.84664 0.0
C1877 C 0.45528 0.24103 0.84687 0.0
H1878 H 0.55164 0.17345 0.84735 0.0
H1879 H 0.4413 0.18765 0.84696 0.0
S1880 S 0.5569 0.31558 0.84555 0.0
N1881 N 0.60546 0.28383 0.84624 0.0
N1882 N 0.48674 0.29913 0.84575 0.0
C1883 C 0.50073 0.26615 0.84644 0.0
C1884 C 0.56504 0.25787 0.8467 0.0
C1885 C 0.26298 0.47444 0.8596 0.0
C1886 C 0.23816 0.49815 0.84835 0.0
C1887 C 0.32609 0.46618 0.85931 0.0
C1888 C 0.36711 0.48107 0.84767 0.0
H1889 H 0.23346 0.46246 0.86889 0.0
H1890 H 0.34299 0.44821 0.86847 0.0
S1891 S 0.32437 0.5433 0.81481 0.0
N1892 N 0.25881 0.53579 0.82491 0.0
N1893 N 0.37736 0.51983 0.82409 0.0
C1894 C 0.34272 0.50468 0.83623 0.0
C1895 C 0.27835 0.51329 0.83663 0.0
C1896 C 0.511 0.98445 0.58288 0.0
C1897 C 0.48772 0.95988 0.59393 0.0
C1898 C 0.5742 -0.00731 0.58266 0.0
C1899 C 0.61683 0.97658 0.5934 0.0
H1900 H 0.47995 -0.00224 0.57446 0.0
H1901 H 0.58976 0.01212 0.57412 0.0
S1902 S 0.58007 0.91084 0.62492 0.0
N1903 N 0.5127 0.91974 0.61605 0.0
N1904 N 0.63146 0.93495 0.61544 0.0
C1905 C 0.59458 0.95145 0.60424 0.0
C1906 C 0.53012 0.94316 0.60455 0.0
C1907 C 0.74488 0.22156 0.59221 0.0
C1908 C 0.69915 0.24598 0.5949 0.0
C1909 C 0.80819 0.22967 0.59234 0.0
C1910 C 0.82842 0.26257 0.59512 0.0
H1911 H 0.73176 0.19571 0.59061 0.0
H1912 H 0.8416 0.20976 0.59088 0.0
S1913 S 0.72698 0.33642 0.60069 0.0
N1914 N 0.67834 0.30487 0.59899 0.0
N1915 N 0.79708 0.32022 0.59908 0.0
C1916 C 0.78304 0.28746 0.59711 0.0
C1917 C 0.71859 0.27916 0.59703 0.0
C1918 C 0.58158 0.22487 0.69986 0.0
C1919 C 0.6201 0.23663 0.71298 0.0
C1920 C 0.51837 0.23297 0.69922 0.0
C1921 C 0.49094 0.25328 0.71164 0.0
H1922 H 0.6005 0.20931 0.68993 0.0
H1923 H 0.49077 0.22336 0.68884 0.0
S1924 S 0.5704 0.28945 0.74906 0.0
N1925 N 0.6255 0.26896 0.73898 0.0
N1926 N 0.50679 0.2844 0.73767 0.0
C1927 C 0.52883 0.26541 0.72478 0.0
C1928 C 0.59329 0.25705 0.72548 0.0
C1929 C 0.78823 0.94492 0.70949 0.0
C1930 C 0.83437 0.96896 0.71266 0.0
C1931 C 0.72507 0.95321 0.70991 0.0
C1932 C 0.70548 -0.01418 0.71356 0.0
H1933 H 0.80109 0.91951 0.70655 0.0
H1934 H 0.69125 0.93395 0.70725 0.0
S1935 S 0.80743 0.05833 0.72206 0.0
N1936 N 0.85583 0.02702 0.71913 0.0
N1937 N 0.73719 0.04246 0.72004 0.0
C1938 C 0.75098 0.01002 0.71694 0.0
C1939 C 0.81534 0.00163 0.71646 0.0
C1940 C 0.55746 0.97735 0.46285 0.0
C1941 C 0.57743 0.0107 0.46283 0.0
C1942 C 0.49433 0.96921 0.46341 0.0
C1943 C 0.44838 -0.00593 0.46401 0.0
H1944 H 0.59088 0.95729 0.46199 0.0
H1945 H 0.48139 0.94316 0.46299 0.0
S1946 S 0.47628 0.08524 0.46557 0.0
N1947 N 0.54631 0.06881 0.46434 0.0
N1948 N 0.42752 0.05352 0.46548 0.0
C1949 C 0.46768 0.02756 0.46432 0.0
C1950 C 0.53214 0.03586 0.46371 0.0
C1951 C 0.33846 0.71958 0.47312 0.0
C1952 C 0.36913 0.73279 0.45885 0.0
C1953 C 0.27516 0.71124 0.47249 0.0
C1954 C 0.24026 0.71594 0.4576 0.0
H1955 H 0.36311 0.71653 0.48499 0.0
H1956 H 0.25297 0.70192 0.48386 0.0
S1957 S 0.30024 0.74534 0.41616 0.0
N1958 N 0.36086 0.74691 0.42894 0.0
N1959 N 0.2421 0.73174 0.42788 0.0
C1960 C 0.27085 0.7279 0.4431 0.0
C1961 C 0.33517 0.7362 0.44369 0.0
C1962 C 0.47497 0.69946 0.35502 0.0
C1963 C 0.45385 0.72754 0.34603 0.0
C1964 C 0.53818 0.69135 0.35564 0.0
C1965 C 0.58291 0.71109 0.34737 0.0
H1966 H 0.44239 0.68387 0.36182 0.0
H1967 H 0.55227 0.66969 0.36288 0.0
S1968 S 0.55163 0.78768 0.32239 0.0
N1969 N 0.48248 0.77513 0.32868 0.0
N1970 N 0.60132 0.76017 0.32999 0.0
C1971 C 0.56221 0.73888 0.33805 0.0
C1972 C 0.49774 0.74704 0.33735 0.0
C1973 C 0.27845 0.02129 0.34611 0.0
C1974 C 0.23348 -0.00288 0.3501 0.0
C1975 C 0.34179 0.01302 0.3453 0.0
C1976 C 0.36238 0.98027 0.34841 0.0
H1977 H 0.26476 0.04694 0.34409 0.0
H1978 H 0.375 0.03259 0.34268 0.0
S1979 S 0.26208 0.90708 0.35712 0.0
N1980 N 0.21331 0.93865 0.35572 0.0
N1981 N 0.33172 0.92302 0.35402 0.0
C1982 C 0.31744 0.95569 0.35172 0.0
C1983 C 0.25323 0.96412 0.35261 0.0
C1984 C 0.07549 0.50047 0.58825 0.0
C1985 C 0.11904 0.48058 0.59687 0.0
C1986 C 1.01221 0.4924 0.58821 0.0
C1987 C 0.98973 0.46418 0.59688 0.0
H1988 H 0.0904 0.52271 0.58162 0.0
H1989 H 0.98048 0.50865 0.58149 0.0
S1990 S 0.0847 0.40425 0.62169 0.0
N1991 N 0.13541 0.43142 0.6143 0.0
N1992 N 1.01652 0.41643 0.61444 0.0
C1993 C 1.03303 0.44373 0.6053 0.0
C1994 C 0.09758 0.45188 0.60526 0.0
C1995 C 0.30848 0.72469 0.59725 0.0
C1996 C 0.32901 0.75745 0.59423 0.0
C1997 C 0.24517 0.71669 0.59724 0.0
C1998 C 0.19959 0.74108 0.5942 0.0
H1999 H 0.34155 0.70519 0.60013 0.0
H2000 H 0.23179 0.6913 0.60011 0.0
S2001 S 0.22899 0.82996 0.58399 0.0
N2002 N 0.29873 0.81404 0.58702 0.0
N2003 N 0.1798 0.79899 0.58697 0.0
C2004 C 0.21951 0.77378 0.59073 0.0
C2005 C 0.28408 0.78195 0.59075 0.0
C2006 C 1.02912 0.77042 0.71293 0.0
C2007 C 0.98344 0.7454 0.71263 0.0
C2008 C 0.09245 0.76234 0.71366 0.0
C2009 C 0.11235 0.72895 0.71417 0.0
H2010 H 1.0159 0.79638 0.71199 0.0
H2011 H 0.1261 0.78235 0.71327 0.0
S2012 S 1.01063 0.65444 0.71607 0.0
N2013 N 0.96215 0.68611 0.71451 0.0
N2014 N 0.08079 0.6709 0.71606 0.0
C2015 C 0.0669 0.70381 0.71468 0.0
C2016 C 1.0026 0.71203 0.71387 0.0
C2017 C 0.22776 0.4621 0.72277 0.0
C2018 C 0.20219 0.48563 0.7115 0.0
C2019 C 0.29105 0.45383 0.72217 0.0
C2020 C 0.3309 0.46886 0.7103 0.0
H2021 H 0.19896 0.45058 0.73236 0.0
H2022 H 0.30922 0.43614 0.73128 0.0
S2023 S 0.28531 0.52855 0.6766 0.0
N2024 N 0.22057 0.52141 0.68714 0.0
N2025 N 0.33924 0.50605 0.68609 0.0
C2026 C 0.30544 0.4915 0.69861 0.0
C2027 C 0.24119 0.49984 0.69919 0.0
C2028 C 0.99327 0.4705 0.4755 0.0
C2029 C 0.94831 0.49048 0.46752 0.0
C2030 C 0.05641 0.47863 0.47481 0.0
C2031 C 0.07743 0.50699 0.46601 0.0
H2032 H 0.97955 0.4481 0.48219 0.0
H2033 H 0.08919 0.46224 0.48105 0.0
S2034 S 0.97824 0.56767 0.44297 0.0
N2035 N 0.9289 0.54019 0.45075 0.0
N2036 N 0.04763 0.55532 0.44922 0.0
C2037 C 1.03274 0.5277 0.45832 0.0
C2038 C 0.96826 0.51947 0.45912 0.0
C2039 C 0.81543 0.25305 0.46339 0.0
C2040 C 0.86156 0.22825 0.46324 0.0
C2041 C 0.75218 0.24486 0.46301 0.0
C2042 C 0.73223 0.21148 0.4625 0.0
H2043 H 0.8283 0.27913 0.4634 0.0
H2044 H 0.71865 0.26492 0.46269 0.0
S2045 S 0.83412 0.13698 0.46347 0.0
N2046 N 0.88264 0.16879 0.46354 0.0
N2047 N 0.76394 0.15336 0.46297 0.0
C2048 C 0.77782 0.18638 0.46275 0.0
C2049 C 0.84231 0.19475 0.46307 0.0
C2050 C 0.03605 0.20854 0.33864 0.0
C2051 C 0.07095 0.21317 0.35352 0.0
C2052 C 0.97268 0.21658 0.33808 0.0
C2053 C 0.94199 0.2294 0.3524 0.0
H2054 H 0.05833 0.1996 0.32722 0.0
H2055 H 0.948 0.21368 0.3262 0.0
S2056 S 1.01094 0.24152 0.39509 0.0
N2057 N 0.06918 0.22839 0.3833 0.0
N2058 N 0.95017 0.24305 0.38235 0.0
C2059 C 0.97592 0.23268 0.36756 0.0
C2060 C 0.04033 0.22467 0.36809 0.0
C2061 C 0.84 0.50847 0.35401 0.0
C2062 C 0.86226 0.48102 0.34481 0.0
C2063 C 0.77663 0.51644 0.35417 0.0
C2064 C 0.73311 0.4974 0.34502 0.0
H2065 H 0.87149 0.52318 0.36166 0.0
H2066 H 0.76142 0.53699 0.362 0.0
S2067 S 0.76932 0.42569 0.31708 0.0
N2068 N 0.83698 0.43646 0.32522 0.0
N2069 N 0.71817 0.4518 0.32515 0.0
C2070 C 0.75538 0.4708 0.33513 0.0
C2071 C 0.81981 0.46253 0.33511 0.0
C2072 C 1.03303 0.94702 0.10188 0.0
C2073 C 0.98606 0.97085 0.09916 0.0
C2074 C 0.09608 0.95573 0.1012 0.0
C2075 C 0.11481 -0.01142 0.09767 0.0
H2076 H 1.021 0.92136 0.10455 0.0
H2077 H 0.13048 0.93654 0.10338 0.0
S2078 S 1.01073 0.06086 0.09066 0.0
N2079 N 0.96318 0.02915 0.09357 0.0
N2080 N 0.08141 0.0453 0.09204 0.0
C2081 C 0.0685 0.01266 0.09491 0.0
C2082 C 1.00429 0.00386 0.09571 0.0
C2083 C 0.23078 0.26928 0.106 0.0
C2084 C 0.20852 0.24214 0.09654 0.0
C2085 C 0.29394 0.27743 0.10619 0.0
C2086 C 0.33755 0.25862 0.09701 0.0
H2087 H 0.19919 0.28399 0.11359 0.0
H2088 H 0.30896 0.29824 0.11389 0.0
S2089 S 0.30284 0.18521 0.07009 0.0
N2090 N 0.23461 0.19683 0.07747 0.0
N2091 N 0.35358 0.21182 0.07798 0.0
C2092 C 0.31561 0.23201 0.08707 0.0
C2093 C 0.25109 0.22384 0.08681 0.0
C2094 C 1.02946 0.26876 0.21107 0.0
C2095 C 0.98379 0.24528 0.21562 0.0
C2096 C 0.09283 0.26051 0.21121 0.0
C2097 C 0.11302 0.22841 0.2158 0.0
H2098 H 1.01607 0.2934 0.20683 0.0
H2099 H 0.1261 0.27906 0.20711 0.0
S2100 S 1.01328 0.15918 0.23086 0.0
N2101 N 0.96419 0.18954 0.22647 0.0
N2102 N 0.08281 0.17398 0.22643 0.0
C2103 C 0.06814 0.20514 0.221 0.0
C2104 C 1.00376 0.21357 0.22098 0.0
C2105 C 0.29651 0.96377 0.22312 0.0
C2106 C 0.33139 0.9657 0.2081 0.0
C2107 C 0.23313 0.97192 0.22323 0.0
C2108 C 0.20257 0.98216 0.20832 0.0
H2109 H 0.31881 0.95694 0.23493 0.0
H2110 H 0.20838 0.97122 0.23516 0.0
S2111 S 0.27149 -0.0136 0.16528 0.0
N2112 N 0.3297 0.97541 0.17771 0.0
N2113 N 0.21075 -0.00973 0.17784 0.0
C2114 C 0.23647 0.98259 0.1931 0.0
C2115 C 0.30082 0.97447 0.19301 0.0
C2116 C 0.97952 0.00819 0.95968 0.0
C2117 C 0.9584 0.97543 0.9623 0.0
C2118 C 0.04309 0.01588 0.95993 0.0
C2119 C 0.08827 -0.00883 0.9629 0.0
H2120 H 0.94668 0.02798 0.95712 0.0
H2121 H 0.05699 0.04137 0.95754 0.0
S2122 S 0.05689 0.90204 0.97204 0.0
N2123 N 0.98758 0.9184 0.96891 0.0
N2124 N 0.10671 0.93287 0.96955 0.0
C2125 C 0.06763 0.95841 0.96585 0.0
C2126 C 1.00291 0.95056 0.96552 0.0
C2127 C 0.81914 0.75949 0.96209 0.0
C2128 C 0.86506 0.7352 0.96489 0.0
C2129 C 0.75612 0.7511 0.96176 0.0
C2130 C 0.73631 0.71808 0.96426 0.0
H2131 H 0.83212 0.78519 0.95987 0.0
H2132 H 0.72257 0.77058 0.95927 0.0
S2133 S 0.83766 0.64504 0.97204 0.0
N2134 N 0.88622 0.67667 0.97028 0.0
N2135 N 0.7675 0.66094 0.96976 0.0
C2136 C 0.78146 0.69364 0.96754 0.0
C2137 C 0.84587 0.70219 0.96784 0.0
C2138 C 0.04215 0.69633 0.83905 0.0
C2139 C 0.08627 0.71831 0.84595 0.0
C2140 C 0.97879 0.70442 0.83884 0.0
C2141 C 0.95721 0.73472 0.84559 0.0
H2142 H 0.05678 0.67277 0.83373 0.0
H2143 H 0.94647 0.68686 0.83332 0.0
S2144 S 0.05345 0.79939 0.86652 0.0
N2145 N 0.10367 0.77077 0.8605 0.0
N2146 N 0.9849 0.78582 0.86028 0.0
C2147 C 1.0009 0.75669 0.85271 0.0
C2148 C 0.06528 0.74852 0.85285 0.0
C2149 C 0.76136 0.96595 0.84344 0.0
C2150 C 0.73964 -0.00218 0.84787 0.0
C2151 C 0.82491 0.95835 0.84372 0.0
C2152 C 0.86943 0.98229 0.84844 0.0
H2153 H 0.72901 0.94679 0.83954 0.0
H2154 H 0.83936 0.93356 0.84005 0.0
S2155 S 0.83662 0.06867 0.86243 0.0
N2156 N 0.76773 0.053 0.85797 0.0
N2157 N 0.88693 0.03873 0.85843 0.0
C2158 C 0.84834 0.01416 0.85305 0.0
C2159 C 0.78362 0.0219 0.85279 0.0
C2160 C 1.00625 0.49434 0.0462 0.0
C2161 C 0.06191 0.47792 0.0501 0.0
C2162 C 0.98847 0.50005 1.02928 0.0
C2163 C 1.0256 0.48964 1.01554 0.0
H2164 H 0.97607 0.50277 0.05627 0.0
H2165 H 0.9449 0.51269 1.02699 0.0
S2166 S 0.17668 0.44631 1.01883 0.0
N2167 N 0.15484 0.45172 0.03869 0.0
N2168 N 0.1211 0.46266 1.00707 0.0
C2169 C 0.08155 0.47346 1.01925 0.0
C2170 C 0.09974 0.46756 0.03646 0.0
C2171 C 0.33677 0.71994 1.02742 0.0
C2172 C 0.29955 0.73006 1.01359 0.0
C2173 C 0.31925 0.72618 0.0443 0.0
C2174 C 0.26376 0.74285 0.04804 0.0
H2175 H 0.3801 0.70704 1.02523 0.0
H2176 H 0.34938 0.71786 0.05445 0.0
S2177 S 0.14922 0.7742 1.01648 0.0
N2178 N 0.20441 0.75728 1.00487 0.0
N2179 N 0.17117 0.76921 0.03638 0.0
C2180 C 0.22601 0.75307 0.03431 0.0
C2181 C 0.24393 0.74664 1.01715 0.0
C2182 C 0.06678 0.74571 0.29412 0.0
C2183 C 1.01337 0.72724 0.29801 0.0
C2184 C 0.08365 0.75206 0.27719 0.0
C2185 C 0.04784 0.74026 0.26344 0.0
H2186 H 0.09572 0.75541 0.3042 0.0
H2187 H 0.12539 0.76635 0.27489 0.0
S2188 S 0.90368 0.69056 0.26671 0.0
N2189 N 0.92459 0.6971 0.28657 0.0
N2190 N 0.9566 0.70919 0.25496 0.0
C2191 C 0.99438 0.72181 0.26715 0.0
C2192 C 0.97713 0.71527 0.28436 0.0
C2193 C 0.31053 0.49172 0.26922 0.0
C2194 C 0.25451 0.47549 0.26553 0.0
C2195 C 0.32847 0.49797 0.28606 0.0
C2196 C 0.29115 0.48831 0.29993 0.0
H2197 H 0.34086 0.49959 0.25905 0.0
H2198 H 0.37232 0.51043 0.2882 0.0
S2199 S 0.13906 0.44586 0.29716 0.0
N2200 N 0.161 0.45033 0.27724 0.0
N2201 N 0.19504 0.46229 0.30873 0.0
C2202 C 0.23485 0.47231 0.29642 0.0
C2203 C 0.2165 0.46586 0.27928 0.0
C2204 C 0.75975 0.24536 1.01829 0.0
C2205 C 0.81185 0.22573 1.01462 0.0
C2206 C 0.7428 0.25223 0.03514 0.0
C2207 C 0.77728 0.23983 0.04902 0.0
H2208 H 0.73197 0.2556 1.0081 0.0
H2209 H 0.70208 0.26743 0.03728 0.0
S2210 S 0.91746 0.18687 0.04629 0.0
N2211 N 0.89779 0.19373 1.02636 0.0
N2212 N 0.86569 0.20682 0.05784 0.0
C2213 C 0.82942 0.22021 0.04552 0.0
C2214 C 0.84671 0.21312 1.02838 0.0
C2215 C 0.98776 0.2176 0.78504 0.0
C2216 C 1.02388 0.22834 0.79895 0.0
C2217 C 1.00525 0.2244 0.7682 0.0
C2218 C 0.05959 0.24227 0.76458 0.0
H2219 H 0.94523 0.20387 0.78714 0.0
H2220 H 0.97594 0.21564 0.75798 0.0
S2221 S 0.1712 0.27543 0.79639 0.0
N2222 N 0.11692 0.25727 0.80787 0.0
N2223 N 0.15007 0.27026 0.77645 0.0
C2224 C 0.09634 0.253 0.77839 0.0
C2225 C 0.07846 0.24599 0.79551 0.0
C2226 C 0.83527 0.50015 0.78578 0.0
C2227 C 0.79735 0.49094 0.79961 0.0
C2228 C 0.81701 0.49443 0.76891 0.0
C2229 C 0.76005 0.47923 0.76516 0.0
H2230 H 0.87985 0.51179 0.78798 0.0
H2231 H 0.84788 0.50183 0.75877 0.0
S2232 S 0.64251 0.45153 0.79667 0.0
N2233 N 0.69951 0.46675 0.80829 0.0
N2234 N 0.66488 0.45575 0.77678 0.0
C2235 C 0.72138 0.47016 0.77887 0.0
C2236 C 0.74007 0.47606 0.79603 0.0
C2237 C 0.08429 0.97045 0.53284 0.0
C2238 C 0.04586 0.97878 0.54669 0.0
C2239 C 0.06591 0.97639 0.51599 0.0
C2240 C 1.00831 -0.00906 0.51227 0.0
H2241 H 0.12932 0.95928 0.53501 0.0
H2242 H 0.09714 0.96962 0.50582 0.0
S2243 S 0.88942 0.01633 0.54387 0.0
N2244 N 0.94697 0.0015 0.55544 0.0
N2245 N 0.91212 0.01294 0.52397 0.0
C2246 C 0.96922 -0.00081 0.52602 0.0
C2247 C 0.98802 -0.00695 0.54315 0.0
C2248 C 0.24628 0.24538 0.51704 0.0
C2249 C 0.30144 0.22847 0.5132 0.0
C2250 C 0.22877 0.25126 0.53396 0.0
C2251 C 0.26569 0.24052 0.54774 0.0
H2252 H 0.21634 0.2541 0.50693 0.0
H2253 H 0.18567 0.26432 0.53624 0.0
S2254 S 0.41516 0.19562 0.54459 0.0
N2255 N 0.39346 0.2013 0.52472 0.0
N2256 N 0.36021 0.21252 0.55629 0.0
C2257 C 0.32101 0.22376 0.54407 0.0
C2258 C 0.33892 0.2177 0.52688 0.0
C2259 C 0.25161 0.96785 0.79242 0.0
C2260 C 0.28807 -0.00472 0.79718 0.0
C2261 C 0.23982 0.96075 0.77528 0.0
C2262 C 0.26513 0.98029 0.76212 0.0
H2263 H 0.23133 0.95194 0.80203 0.0
H2264 H 0.21033 0.9397 0.77232 0.0
S2265 S 0.36556 0.05434 0.76763 0.0
N2266 N 0.35027 0.04201 0.78717 0.0
N2267 N 0.32929 0.0279 0.75506 0.0
C2268 C 0.30275 0.00736 0.76665 0.0
C2269 C 0.31381 0.01507 0.78413 0.0
C2270 C 0.75117 0.74361 0.516 0.0
C2271 C 0.80669 0.72677 0.51249 0.0
C2272 C 0.73266 0.74982 0.5328 0.0
C2273 C 0.76891 0.7395 0.54678 0.0
H2274 H 0.7217 0.752 0.50573 0.0
H2275 H 0.6893 0.7628 0.53481 0.0
S2276 S 0.9191 0.69507 0.54452 0.0
N2277 N 0.89839 0.70019 0.52453 0.0
N2278 N 0.86332 0.71206 0.55589 0.0
C2279 C 0.82464 0.72284 0.54345 0.0
C2280 C 0.84355 0.71644 0.52637 0.0
C2281 C 0.73679 0.96718 0.2767 0.0
C2282 C 0.77247 0.97923 0.26299 0.0
C2283 C 0.75352 0.97346 0.29364 0.0
C2284 C 0.80663 -0.00789 0.2976 0.0
H2285 H 0.6952 0.95278 0.27435 0.0
H2286 H 0.72461 0.96364 0.30369 0.0
S2287 S 0.9163 0.02915 0.26644 0.0
N2288 N 0.86352 0.0105 0.25463 0.0
N2289 N 0.89531 0.02247 0.28627 0.0
C2290 C 0.84288 0.00422 0.284 0.0
C2291 C 0.82577 -0.00225 0.26676 0.0
C2292 C 0.58301 0.46859 0.53539 0.0
C2293 C 0.5466 0.4791 0.54927 0.0
C2294 C 0.56532 0.47511 0.51855 0.0
C2295 C 0.51048 0.49248 0.51486 0.0
H2296 H 0.62589 0.45519 0.53752 0.0
H2297 H 0.59483 0.46649 0.50837 0.0
S2298 S 0.39805 0.52498 0.54653 0.0
N2299 N 0.45284 0.50736 0.55809 0.0
N2300 N 0.41926 0.51984 0.52661 0.0
C2301 C 0.47347 0.50304 0.52863 0.0
C2302 C 0.49157 0.49631 0.54577 0.0
C2303 C 0.48449 0.7173 0.78371 0.0
C2304 C 0.52145 0.72779 0.79751 0.0
C2305 C 0.50168 0.7237 0.76681 0.0
C2306 C 0.55657 0.74094 0.763 0.0
H2307 H 0.44154 0.70403 0.78595 0.0
H2308 H 0.47171 0.71514 0.75669 0.0
S2309 S 0.67032 0.77335 0.79444 0.0
N2310 N 0.61578 0.7559 0.8061 0.0
N2311 N 0.64841 0.76813 0.77456 0.0
C2312 C 0.59413 0.75145 0.77669 0.0
C2313 C 0.57655 0.74484 0.79387 0.0
C2314 C 0.55987 0.24294 0.29404 0.0
C2315 C 0.50426 0.22616 0.29755 0.0
C2316 C 0.57814 0.24952 0.27726 0.0
C2317 C 0.5416 0.23963 0.26326 0.0
H2318 H 0.58959 0.25103 0.30431 0.0
H2319 H 0.62163 0.26242 0.27527 0.0
S2320 S 0.39076 0.19582 0.26552 0.0
N2321 N 0.41196 0.20027 0.28551 0.0
N2322 N 0.4466 0.21286 0.25415 0.0
C2323 C 0.48573 0.22308 0.26659 0.0
C2324 C 0.46703 0.2163 0.28366 0.0
C2325 C 0.5844 0.96002 0.03506 0.0
C2326 C 0.55967 0.98001 0.04809 0.0
C2327 C 0.57368 0.96723 1.01786 0.0
C2328 C 0.5389 -0.00481 1.01292 0.0
H2329 H 0.61253 0.93852 0.03816 0.0
H2330 H 0.59334 0.95093 1.00835 0.0
S2331 S 0.46388 0.05568 0.04209 0.0
N2332 N 0.49818 0.02873 0.05483 0.0
N2333 N 0.47912 0.04299 1.02263 0.0
C2334 C 0.5139 0.01548 1.02584 0.0
C2335 C 0.52389 0.00769 0.04338 0.0
loop_
_geom_bond_atom_site_label_1
_geom_bond_atom_site_label_2
_geom_bond_distance
_geom_bond_site_symmetry_2
_ccdc_geom_bond_type
Sm0 C2 2.846 . S
Sm0 O20 2.543 . S
Sm0 O21 2.450 . S
Sm0 O22 2.681 1_655 S
Sm0 O23 2.464 . S
Sm0 O24 2.396 . S
Sm0 O28 2.386 1_655 S
Sm0 O31 2.408 1_655 S
Sm1 C11 2.846 . S
Sm1 O22 2.386 . S
Sm1 O25 2.408 . S
Sm1 O26 2.543 . S
Sm1 O27 2.450 . S
Sm1 O28 2.681 . S
Sm1 O29 2.464 . S
Sm1 O30 2.396 . S
C2 Sm0 2.846 . S
C2 C3 1.506 . S
C2 O20 1.261 . S
C2 O21 1.242 . S
C3 C2 1.506 . S
C3 C4 1.358 . S
C3 C8 1.382 . S
C4 C3 1.358 . S
C4 C5 1.385 . S
C4 H32 0.930 . S
C5 C4 1.385 . S
C5 C6 1.395 . S
C5 H33 0.929 . S
C6 C5 1.395 . S
C6 C7 1.335 . S
C7 C6 1.335 . S
C7 C8 1.398 . S
C7 H34 0.930 . S
C8 C3 1.382 . S
C8 C7 1.398 . S
C8 H35 0.929 . S
C9 O22 1.271 . S
C9 O23 1.251 1_455 S
C10 O24 1.252 . S
C10 O25 1.272 1_655 S
C11 Sm1 2.846 . S
C11 C12 1.506 . S
C11 O26 1.261 . S
C11 O27 1.242 . S
C12 C11 1.506 . S
C12 C13 1.358 . S
C12 C17 1.382 . S
C13 C12 1.358 . S
C13 C14 1.385 . S
C13 H36 0.930 . S
C14 C13 1.385 . S
C14 C15 1.395 . S
C14 H37 0.929 . S
C15 C14 1.395 . S
C15 C16 1.335 . S
C16 C15 1.335 . S
C16 C17 1.398 . S
C16 H38 0.930 . S
C17 C12 1.382 . S
C17 C16 1.398 . S
C17 H39 0.929 . S
C18 O28 1.271 . S
C18 O29 1.251 . S
C19 O30 1.252 . S
C19 O31 1.272 . S
O20 Sm0 2.543 . S
O20 C2 1.261 . S
O21 Sm0 2.450 . S
O21 C2 1.242 . S
O22 Sm0 2.681 1_455 S
O22 Sm1 2.386 . S
O22 C9 1.271 . S
O23 Sm0 2.464 . S
O23 C9 1.251 1_655 S
O24 Sm0 2.396 . S
O24 C10 1.252 . S
O25 Sm1 2.408 . S
O25 C10 1.272 1_455 S
O26 Sm1 2.543 . S
O26 C11 1.261 . S
O27 Sm1 2.450 . S
O27 C11 1.242 . S
O28 Sm0 2.386 1_455 S
O28 Sm1 2.681 . S
O28 C18 1.271 . S
O29 Sm1 2.464 . S
O29 C18 1.251 . S
O30 Sm1 2.396 . S
O30 C19 1.252 . S
O31 Sm0 2.408 1_455 S
O31 C19 1.272 . S
H32 C4 0.930 . S
H33 C5 0.929 . S
H34 C7 0.930 . S
H35 C8 0.929 . S
H36 C13 0.930 . S
H37 C14 0.929 . S
H38 C16 0.930 . S
H39 C17 0.929 . S
Sm40 C42 2.846 . S
Sm40 O60 2.543 . S
Sm40 O61 2.450 . S
Sm40 O62 2.681 . S
Sm40 O63 2.464 . S
Sm40 O64 2.396 . S
Sm40 O68 2.386 . S
Sm40 O71 2.408 . S
Sm41 C51 2.846 . S
Sm41 O62 2.386 . S
Sm41 O65 2.408 . S
Sm41 O66 2.543 . S
Sm41 O67 2.450 . S
Sm41 O68 2.681 . S
Sm41 O69 2.464 . S
Sm41 O70 2.396 . S
C42 Sm40 2.846 . S
C42 C43 1.506 . S
C42 O60 1.261 . S
C42 O61 1.242 . S
C43 C42 1.506 . S
C43 C44 1.358 . S
C43 C48 1.382 . S
C44 C43 1.358 . S
C44 C45 1.385 . S
C44 H72 0.930 . S
C45 C44 1.385 . S
C45 C46 1.395 . S
C45 H73 0.929 . S
C46 C45 1.395 . S
C46 C47 1.335 . S
C47 C46 1.335 . S
C47 C48 1.398 . S
C47 H74 0.930 . S
C48 C43 1.382 . S
C48 C47 1.398 . S
C48 H75 0.929 . S
C49 O62 1.271 . S
C49 O63 1.251 . S
C50 O64 1.252 . S
C50 O65 1.272 . S
C51 Sm41 2.846 . S
C51 C52 1.506 1_455 S
C51 O66 1.261 . S
C51 O67 1.242 . S
C52 C51 1.506 1_655 S
C52 C53 1.358 . S
C52 C57 1.382 . S
C53 C52 1.358 . S
C53 C54 1.385 . S
C53 H76 0.930 . S
C54 C53 1.385 . S
C54 C55 1.395 . S
C54 H77 0.929 . S
C55 C54 1.395 . S
C55 C56 1.335 . S
C56 C55 1.335 . S
C56 C57 1.398 . S
C56 H78 0.930 . S
C57 C52 1.382 . S
C57 C56 1.398 . S
C57 H79 0.929 . S
C58 O68 1.271 . S
C58 O69 1.251 . S
C59 O70 1.252 . S
C59 O71 1.272 . S
O60 Sm40 2.543 . S
O60 C42 1.261 . S
O61 Sm40 2.450 . S
O61 C42 1.242 . S
O62 Sm40 2.681 . S
O62 Sm41 2.386 . S
O62 C49 1.271 . S
O63 Sm40 2.464 . S
O63 C49 1.251 . S
O64 Sm40 2.396 . S
O64 C50 1.252 . S
O65 Sm41 2.408 . S
O65 C50 1.272 . S
O66 Sm41 2.543 . S
O66 C51 1.261 . S
O67 Sm41 2.450 . S
O67 C51 1.242 . S
O68 Sm40 2.386 . S
O68 Sm41 2.681 . S
O68 C58 1.271 . S
O69 Sm41 2.464 . S
O69 C58 1.251 . S
O70 Sm41 2.396 . S
O70 C59 1.252 . S
O71 Sm40 2.408 . S
O71 C59 1.272 . S
H72 C44 0.930 . S
H73 C45 0.929 . S
H74 C47 0.930 . S
H75 C48 0.929 . S
H76 C53 0.930 . S
H77 C54 0.929 . S
H78 C56 0.930 . S
H79 C57 0.929 . S
Sm80 C82 2.846 . S
Sm80 O100 2.543 . S
Sm80 O101 2.450 . S
Sm80 O102 2.681 1_655 S
Sm80 O103 2.464 . S
Sm80 O104 2.396 . S
Sm80 O108 2.386 1_655 S
Sm80 O111 2.408 1_655 S
Sm81 C91 2.846 . S
Sm81 O102 2.386 . S
Sm81 O105 2.408 . S
Sm81 O106 2.543 . S
Sm81 O107 2.450 . S
Sm81 O108 2.681 . S
Sm81 O109 2.464 . S
Sm81 O110 2.396 . S
C82 Sm80 2.846 . S
C82 C83 1.506 . S
C82 O100 1.261 . S
C82 O101 1.242 . S
C83 C82 1.506 . S
C83 C84 1.358 . S
C83 C88 1.382 . S
C84 C83 1.358 . S
C84 C85 1.385 . S
C84 H112 0.930 . S
C85 C84 1.385 . S
C85 C86 1.395 . S
C85 H113 0.929 . S
C86 C85 1.395 . S
C86 C87 1.335 . S
C87 C86 1.335 . S
C87 C88 1.398 . S
C87 H114 0.930 . S
C88 C83 1.382 . S
C88 C87 1.398 . S
C88 H115 0.929 . S
C89 O102 1.271 . S
C89 O103 1.251 1_455 S
C90 O104 1.252 . S
C90 O105 1.272 1_655 S
C91 Sm81 2.846 . S
C91 C92 1.506 . S
C91 O106 1.261 . S
C91 O107 1.242 . S
C92 C91 1.506 . S
C92 C93 1.358 . S
C92 C97 1.382 . S
C93 C92 1.358 . S
C93 C94 1.385 . S
C93 H116 0.930 . S
C94 C93 1.385 . S
C94 C95 1.395 . S
C94 H117 0.929 . S
C95 C94 1.395 . S
C95 C96 1.335 . S
C96 C95 1.335 . S
C96 C97 1.398 . S
C96 H118 0.930 . S
C97 C92 1.382 . S
C97 C96 1.398 . S
C97 H119 0.929 . S
C98 O108 1.271 . S
C98 O109 1.251 . S
C99 O110 1.252 . S
C99 O111 1.272 . S
O100 Sm80 2.543 . S
O100 C82 1.261 . S
O101 Sm80 2.450 . S
O101 C82 1.242 . S
O102 Sm80 2.681 1_455 S
O102 Sm81 2.386 . S
O102 C89 1.271 . S
O103 Sm80 2.464 . S
O103 C89 1.251 1_655 S
O104 Sm80 2.396 . S
O104 C90 1.252 . S
O105 Sm81 2.408 . S
O105 C90 1.272 1_455 S
O106 Sm81 2.543 . S
O106 C91 1.261 . S
O107 Sm81 2.450 . S
O107 C91 1.242 . S
O108 Sm80 2.386 1_455 S
O108 Sm81 2.681 . S
O108 C98 1.271 . S
O109 Sm81 2.464 . S
O109 C98 1.251 . S
O110 Sm81 2.396 . S
O110 C99 1.252 . S
O111 Sm80 2.408 1_455 S
O111 C99 1.272 . S
H112 C84 0.930 . S
H113 C85 0.929 . S
H114 C87 0.930 . S
H115 C88 0.929 . S
H116 C93 0.930 . S
H117 C94 0.929 . S
H118 C96 0.930 . S
H119 C97 0.929 . S
Sm120 C122 2.846 . S
Sm120 O140 2.543 . S
Sm120 O141 2.450 . S
Sm120 O142 2.681 . S
Sm120 O143 2.464 . S
Sm120 O144 2.396 . S
Sm120 O148 2.386 . S
Sm120 O151 2.408 . S
Sm121 C131 2.846 . S
Sm121 O142 2.386 . S
Sm121 O145 2.408 . S
Sm121 O146 2.543 . S
Sm121 O147 2.450 . S
Sm121 O148 2.681 . S
Sm121 O149 2.464 . S
Sm121 O150 2.396 . S
C122 Sm120 2.846 . S
C122 C123 1.506 . S
C122 O140 1.261 . S
C122 O141 1.242 . S
C123 C122 1.506 . S
C123 C124 1.358 . S
C123 C128 1.382 . S
C124 C123 1.358 . S
C124 C125 1.385 . S
C124 H152 0.930 . S
C125 C124 1.385 . S
C125 C126 1.395 . S
C125 H153 0.929 . S
C126 C125 1.395 . S
C126 C127 1.335 . S
C127 C126 1.335 . S
C127 C128 1.398 . S
C127 H154 0.930 . S
C128 C123 1.382 . S
C128 C127 1.398 . S
C128 H155 0.929 . S
C129 O142 1.271 . S
C129 O143 1.251 . S
C130 O144 1.252 . S
C130 O145 1.272 . S
C131 Sm121 2.846 . S
C131 C132 1.506 1_455 S
C131 O146 1.261 . S
C131 O147 1.242 . S
C132 C131 1.506 1_655 S
C132 C133 1.358 . S
C132 C137 1.382 . S
C133 C132 1.358 . S
C133 C134 1.385 . S
C133 H156 0.930 . S
C134 C133 1.385 . S
C134 C135 1.395 . S
C134 H157 0.929 . S
C135 C134 1.395 . S
C135 C136 1.335 . S
C136 C135 1.335 . S
C136 C137 1.398 . S
C136 H158 0.930 . S
C137 C132 1.382 . S
C137 C136 1.398 . S
C137 H159 0.929 . S
C138 O148 1.271 . S
C138 O149 1.251 . S
C139 O150 1.252 . S
C139 O151 1.272 . S
O140 Sm120 2.543 . S
O140 C122 1.261 . S
O141 Sm120 2.450 . S
O141 C122 1.242 . S
O142 Sm120 2.681 . S
O142 Sm121 2.386 . S
O142 C129 1.271 . S
O143 Sm120 2.464 . S
O143 C129 1.251 . S
O144 Sm120 2.396 . S
O144 C130 1.252 . S
O145 Sm121 2.408 . S
O145 C130 1.272 . S
O146 Sm121 2.543 . S
O146 C131 1.261 . S
O147 Sm121 2.450 . S
O147 C131 1.242 . S
O148 Sm120 2.386 . S
O148 Sm121 2.681 . S
O148 C138 1.271 . S
O149 Sm121 2.464 . S
O149 C138 1.251 . S
O150 Sm121 2.396 . S
O150 C139 1.252 . S
O151 Sm120 2.408 . S
O151 C139 1.272 . S
H152 C124 0.930 . S
H153 C125 0.929 . S
H154 C127 0.930 . S
H155 C128 0.929 . S
H156 C133 0.930 . S
H157 C134 0.929 . S
H158 C136 0.930 . S
H159 C137 0.929 . S
Sm160 C162 2.846 . S
Sm160 O180 2.543 . S
Sm160 O181 2.450 . S
Sm160 O182 2.681 . S
Sm160 O183 2.464 . S
Sm160 O184 2.396 . S
Sm160 O188 2.386 . S
Sm160 O191 2.408 . S
Sm161 C171 2.846 . S
Sm161 O182 2.386 1_455 S
Sm161 O185 2.408 1_455 S
Sm161 O186 2.543 . S
Sm161 O187 2.450 . S
Sm161 O188 2.681 1_455 S
Sm161 O189 2.464 . S
Sm161 O190 2.396 . S
C162 Sm160 2.846 . S
C162 C163 1.506 . S
C162 O180 1.261 . S
C162 O181 1.242 . S
C163 C162 1.506 . S
C163 C164 1.358 . S
C163 C168 1.382 . S
C164 C163 1.358 . S
C164 C165 1.385 . S
C164 H192 0.930 . S
C165 C164 1.385 . S
C165 C166 1.395 . S
C165 H193 0.929 . S
C166 C165 1.395 . S
C166 C167 1.335 . S
C167 C166 1.335 . S
C167 C168 1.398 . S
C167 H194 0.930 . S
C168 C163 1.382 . S
C168 C167 1.398 . S
C168 H195 0.929 . S
C169 O182 1.271 . S
C169 O183 1.251 . S
C170 O184 1.252 . S
C170 O185 1.272 . S
C171 Sm161 2.846 . S
C171 C172 1.506 . S
C171 O186 1.261 . S
C171 O187 1.242 . S
C172 C171 1.506 . S
C172 C173 1.358 . S
C172 C177 1.382 . S
C173 C172 1.358 . S
C173 C174 1.385 . S
C173 H196 0.930 . S
C174 C173 1.385 . S
C174 C175 1.395 . S
C174 H197 0.929 . S
C175 C174 1.395 . S
C175 C176 1.335 . S
C176 C175 1.335 . S
C176 C177 1.398 . S
C176 H198 0.930 . S
C177 C172 1.382 . S
C177 C176 1.398 . S
C177 H199 0.929 . S
C178 O188 1.271 . S
C178 O189 1.251 1_655 S
C179 O190 1.252 . S
C179 O191 1.272 1_455 S
O180 Sm160 2.543 . S
O180 C162 1.261 . S
O181 Sm160 2.450 . S
O181 C162 1.242 . S
O182 Sm160 2.681 . S
O182 Sm161 2.386 1_655 S
O182 C169 1.271 . S
O183 Sm160 2.464 . S
O183 C169 1.251 . S
O184 Sm160 2.396 . S
O184 C170 1.252 . S
O185 Sm161 2.408 1_655 S
O185 C170 1.272 . S
O186 Sm161 2.543 . S
O186 C171 1.261 . S
O187 Sm161 2.450 . S
O187 C171 1.242 . S
O188 Sm160 2.386 . S
O188 Sm161 2.681 1_655 S
O188 C178 1.271 . S
O189 Sm161 2.464 . S
O189 C178 1.251 1_455 S
O190 Sm161 2.396 . S
O190 C179 1.252 . S
O191 Sm160 2.408 . S
O191 C179 1.272 1_655 S
H192 C164 0.930 . S
H193 C165 0.929 . S
H194 C167 0.930 . S
H195 C168 0.929 . S
H196 C173 0.930 . S
H197 C174 0.929 . S
H198 C176 0.930 . S
H199 C177 0.929 . S
Sm200 C202 2.846 . S
Sm200 O220 2.543 . S
Sm200 O221 2.450 . S
Sm200 O222 2.681 . S
Sm200 O223 2.464 . S
Sm200 O224 2.396 . S
Sm200 O228 2.386 . S
Sm200 O231 2.408 . S
Sm201 C211 2.846 . S
Sm201 O222 2.386 . S
Sm201 O225 2.408 . S
Sm201 O226 2.543 . S
Sm201 O227 2.450 . S
Sm201 O228 2.681 . S
Sm201 O229 2.464 . S
Sm201 O230 2.396 . S
C202 Sm200 2.846 . S
C202 C203 1.506 1_655 S
C202 O220 1.261 . S
C202 O221 1.242 . S
C203 C202 1.506 1_455 S
C203 C204 1.358 . S
C203 C208 1.382 . S
C204 C203 1.358 . S
C204 C205 1.385 . S
C204 H232 0.930 . S
C205 C204 1.385 . S
C205 C206 1.395 . S
C205 H233 0.929 . S
C206 C205 1.395 . S
C206 C207 1.335 . S
C207 C206 1.335 . S
C207 C208 1.398 . S
C207 H234 0.930 . S
C208 C203 1.382 . S
C208 C207 1.398 . S
C208 H235 0.929 . S
C209 O222 1.271 . S
C209 O223 1.251 . S
C210 O224 1.252 . S
C210 O225 1.272 . S
C211 Sm201 2.846 . S
C211 C212 1.506 . S
C211 O226 1.261 . S
C211 O227 1.242 . S
C212 C211 1.506 . S
C212 C213 1.358 . S
C212 C217 1.382 . S
C213 C212 1.358 . S
C213 C214 1.385 . S
C213 H236 0.930 . S
C214 C213 1.385 . S
C214 C215 1.395 . S
C214 H237 0.929 . S
C215 C214 1.395 . S
C215 C216 1.335 . S
C216 C215 1.335 . S
C216 C217 1.398 . S
C216 H238 0.930 . S
C217 C212 1.382 . S
C217 C216 1.398 . S
C217 H239 0.929 . S
C218 O228 1.271 . S
C218 O229 1.251 . S
C219 O230 1.252 . S
C219 O231 1.272 . S
O220 Sm200 2.543 . S
O220 C202 1.261 . S
O221 Sm200 2.450 . S
O221 C202 1.242 . S
O222 Sm200 2.681 . S
O222 Sm201 2.386 . S
O222 C209 1.271 . S
O223 Sm200 2.464 . S
O223 C209 1.251 . S
O224 Sm200 2.396 . S
O224 C210 1.252 . S
O225 Sm201 2.408 . S
O225 C210 1.272 . S
O226 Sm201 2.543 . S
O226 C211 1.261 . S
O227 Sm201 2.450 . S
O227 C211 1.242 . S
O228 Sm200 2.386 . S
O228 Sm201 2.681 . S
O228 C218 1.271 . S
O229 Sm201 2.464 . S
O229 C218 1.251 . S
O230 Sm201 2.396 . S
O230 C219 1.252 . S
O231 Sm200 2.408 . S
O231 C219 1.272 . S
H232 C204 0.930 . S
H233 C205 0.929 . S
H234 C207 0.930 . S
H235 C208 0.929 . S
H236 C213 0.930 . S
H237 C214 0.929 . S
H238 C216 0.930 . S
H239 C217 0.929 . S
Sm240 C242 2.846 . S
Sm240 O260 2.543 . S
Sm240 O261 2.450 . S
Sm240 O262 2.681 . S
Sm240 O263 2.464 . S
Sm240 O264 2.396 . S
Sm240 O268 2.386 . S
Sm240 O271 2.408 . S
Sm241 C251 2.846 . S
Sm241 O262 2.386 1_455 S
Sm241 O265 2.408 1_455 S
Sm241 O266 2.543 . S
Sm241 O267 2.450 . S
Sm241 O268 2.681 1_455 S
Sm241 O269 2.464 . S
Sm241 O270 2.396 . S
C242 Sm240 2.846 . S
C242 C243 1.506 . S
C242 O260 1.261 . S
C242 O261 1.242 . S
C243 C242 1.506 . S
C243 C244 1.358 . S
C243 C248 1.382 . S
C244 C243 1.358 . S
C244 C245 1.385 . S
C244 H272 0.930 . S
C245 C244 1.385 . S
C245 C246 1.395 . S
C245 H273 0.929 . S
C246 C245 1.395 . S
C246 C247 1.335 . S
C247 C246 1.335 . S
C247 C248 1.398 . S
C247 H274 0.930 . S
C248 C243 1.382 . S
C248 C247 1.398 . S
C248 H275 0.929 . S
C249 O262 1.271 . S
C249 O263 1.251 . S
C250 O264 1.252 . S
C250 O265 1.272 . S
C251 Sm241 2.846 . S
C251 C252 1.506 . S
C251 O266 1.261 . S
C251 O267 1.242 . S
C252 C251 1.506 . S
C252 C253 1.358 . S
C252 C257 1.382 . S
C253 C252 1.358 . S
C253 C254 1.385 . S
C253 H276 0.930 . S
C254 C253 1.385 . S
C254 C255 1.395 . S
C254 H277 0.929 . S
C255 C254 1.395 . S
C255 C256 1.335 . S
C256 C255 1.335 . S
C256 C257 1.398 . S
C256 H278 0.930 . S
C257 C252 1.382 . S
C257 C256 1.398 . S
C257 H279 0.929 . S
C258 O268 1.271 . S
C258 O269 1.251 1_655 S
C259 O270 1.252 . S
C259 O271 1.272 1_455 S
O260 Sm240 2.543 . S
O260 C242 1.261 . S
O261 Sm240 2.450 . S
O261 C242 1.242 . S
O262 Sm240 2.681 . S
O262 Sm241 2.386 1_655 S
O262 C249 1.271 . S
O263 Sm240 2.464 . S
O263 C249 1.251 . S
O264 Sm240 2.396 . S
O264 C250 1.252 . S
O265 Sm241 2.408 1_655 S
O265 C250 1.272 . S
O266 Sm241 2.543 . S
O266 C251 1.261 . S
O267 Sm241 2.450 . S
O267 C251 1.242 . S
O268 Sm240 2.386 . S
O268 Sm241 2.681 1_655 S
O268 C258 1.271 . S
O269 Sm241 2.464 . S
O269 C258 1.251 1_455 S
O270 Sm241 2.396 . S
O270 C259 1.252 . S
O271 Sm240 2.408 . S
O271 C259 1.272 1_655 S
H272 C244 0.930 . S
H273 C245 0.929 . S
H274 C247 0.930 . S
H275 C248 0.929 . S
H276 C253 0.930 . S
H277 C254 0.929 . S
H278 C256 0.930 . S
H279 C257 0.929 . S
Sm280 C282 2.846 . S
Sm280 O300 2.543 . S
Sm280 O301 2.450 . S
Sm280 O302 2.681 . S
Sm280 O303 2.464 . S
Sm280 O304 2.396 . S
Sm280 O308 2.386 . S
Sm280 O311 2.408 . S
Sm281 C291 2.846 . S
Sm281 O302 2.386 . S
Sm281 O305 2.408 . S
Sm281 O306 2.543 . S
Sm281 O307 2.450 . S
Sm281 O308 2.681 . S
Sm281 O309 2.464 . S
Sm281 O310 2.396 . S
C282 Sm280 2.846 . S
C282 C283 1.506 1_655 S
C282 O300 1.261 . S
C282 O301 1.242 . S
C283 C282 1.506 1_455 S
C283 C284 1.358 . S
C283 C288 1.382 . S
C284 C283 1.358 . S
C284 C285 1.385 . S
C284 H312 0.930 . S
C285 C284 1.385 . S
C285 C286 1.395 . S
C285 H313 0.929 . S
C286 C285 1.395 . S
C286 C287 1.335 . S
C287 C286 1.335 . S
C287 C288 1.398 . S
C287 H314 0.930 . S
C288 C283 1.382 . S
C288 C287 1.398 . S
C288 H315 0.929 . S
C289 O302 1.271 . S
C289 O303 1.251 . S
C290 O304 1.252 . S
C290 O305 1.272 . S
C291 Sm281 2.846 . S
C291 C292 1.506 . S
C291 O306 1.261 . S
C291 O307 1.242 . S
C292 C291 1.506 . S
C292 C293 1.358 . S
C292 C297 1.382 . S
C293 C292 1.358 . S
C293 C294 1.385 . S
C293 H316 0.930 . S
C294 C293 1.385 . S
C294 C295 1.395 . S
C294 H317 0.929 . S
C295 C294 1.395 . S
C295 C296 1.335 . S
C296 C295 1.335 . S
C296 C297 1.398 . S
C296 H318 0.930 . S
C297 C292 1.382 . S
C297 C296 1.398 . S
C297 H319 0.929 . S
C298 O308 1.271 . S
C298 O309 1.251 . S
C299 O310 1.252 . S
C299 O311 1.272 . S
O300 Sm280 2.543 . S
O300 C282 1.261 . S
O301 Sm280 2.450 . S
O301 C282 1.242 . S
O302 Sm280 2.681 . S
O302 Sm281 2.386 . S
O302 C289 1.271 . S
O303 Sm280 2.464 . S
O303 C289 1.251 . S
O304 Sm280 2.396 . S
O304 C290 1.252 . S
O305 Sm281 2.408 . S
O305 C290 1.272 . S
O306 Sm281 2.543 . S
O306 C291 1.261 . S
O307 Sm281 2.450 . S
O307 C291 1.242 . S
O308 Sm280 2.386 . S
O308 Sm281 2.681 . S
O308 C298 1.271 . S
O309 Sm281 2.464 . S
O309 C298 1.251 . S
O310 Sm281 2.396 . S
O310 C299 1.252 . S
O311 Sm280 2.408 . S
O311 C299 1.272 . S
H312 C284 0.930 . S
H313 C285 0.929 . S
H314 C287 0.930 . S
H315 C288 0.929 . S
H316 C293 0.930 . S
H317 C294 0.929 . S
H318 C296 0.930 . S
H319 C297 0.929 . S
Sm320 C322 2.846 . S
Sm320 O340 2.543 1_545 S
Sm320 O341 2.450 . S
Sm320 O342 2.681 1_645 S
Sm320 O343 2.464 . S
Sm320 O344 2.396 1_545 S
Sm320 O348 2.386 1_645 S
Sm320 O351 2.408 1_655 S
Sm321 C331 2.846 . S
Sm321 O342 2.386 . S
Sm321 O345 2.408 . S
Sm321 O346 2.543 . S
Sm321 O347 2.450 . S
Sm321 O348 2.681 . S
Sm321 O349 2.464 . S
Sm321 O350 2.396 1_565 S
C322 Sm320 2.846 . S
C322 C323 1.506 1_545 S
C322 O340 1.261 1_545 S
C322 O341 1.242 . S
C323 C322 1.506 1_565 S
C323 C324 1.358 . S
C323 C328 1.385 . S
C324 C323 1.358 . S
C324 C325 1.385 . S
C324 H352 0.930 . S
C325 C324 1.385 . S
C325 C326 1.395 . S
C325 H353 0.929 . S
C326 C325 1.395 . S
C326 C327 1.335 . S
C327 C326 1.335 . S
C327 C328 1.402 . S
C327 H354 0.930 . S
C328 C323 1.385 . S
C328 C327 1.402 . S
C328 H355 0.923 1_565 S
C329 O342 1.271 . S
C329 O343 1.251 1_465 S
C330 O344 1.252 . S
C330 O345 1.272 1_655 S
C331 Sm321 2.846 . S
C331 C332 1.506 . S
C331 O346 1.261 . S
C331 O347 1.242 . S
C332 C331 1.506 . S
C332 C333 1.358 1_565 S
C332 C337 1.382 . S
C333 C332 1.358 1_545 S
C333 C334 1.385 . S
C333 H356 0.930 . S
C334 C333 1.385 . S
C334 C335 1.395 . S
C334 H357 0.929 . S
C335 C334 1.395 . S
C335 C336 1.335 1_545 S
C336 C335 1.335 1_565 S
C336 C337 1.398 . S
C336 H358 0.930 . S
C337 C332 1.382 . S
C337 C336 1.398 . S
C337 H359 0.929 . S
C338 O348 1.271 . S
C338 O349 1.251 . S
C339 O350 1.252 . S
C339 O351 1.272 . S
O340 Sm320 2.543 1_565 S
O340 C322 1.261 1_565 S
O341 Sm320 2.450 . S
O341 C322 1.242 . S
O342 Sm320 2.681 1_465 S
O342 Sm321 2.386 . S
O342 C329 1.271 . S
O343 Sm320 2.464 . S
O343 C329 1.251 1_645 S
O344 Sm320 2.396 1_565 S
O344 C330 1.252 . S
O345 Sm321 2.408 . S
O345 C330 1.272 1_455 S
O346 Sm321 2.543 . S
O346 C331 1.261 . S
O347 Sm321 2.450 . S
O347 C331 1.242 . S
O348 Sm320 2.386 1_465 S
O348 Sm321 2.681 . S
O348 C338 1.271 . S
O349 Sm321 2.464 . S
O349 C338 1.251 . S
O350 Sm321 2.396 1_545 S
O350 C339 1.252 . S
O351 Sm320 2.408 1_455 S
O351 C339 1.272 . S
H352 C324 0.930 . S
H353 C325 0.929 . S
H354 C327 0.930 . S
H355 C328 0.923 1_545 S
H356 C333 0.930 . S
H357 C334 0.929 . S
H358 C336 0.930 . S
H359 C337 0.929 . S
Sm360 C362 2.846 . S
Sm360 O380 2.543 . S
Sm360 O381 2.450 . S
Sm360 O382 2.681 . S
Sm360 O383 2.464 . S
Sm360 O384 2.396 . S
Sm360 O388 2.386 . S
Sm360 O391 2.408 . S
Sm361 C371 2.846 . S
Sm361 O382 2.386 . S
Sm361 O385 2.408 . S
Sm361 O386 2.543 . S
Sm361 O387 2.450 . S
Sm361 O388 2.681 . S
Sm361 O389 2.464 . S
Sm361 O390 2.396 . S
C362 Sm360 2.846 . S
C362 C363 1.506 . S
C362 O380 1.261 . S
C362 O381 1.242 . S
C363 C362 1.506 . S
C363 C364 1.358 . S
C363 C368 1.382 . S
C364 C363 1.358 . S
C364 C365 1.385 . S
C364 H392 0.930 . S
C365 C364 1.385 . S
C365 C366 1.395 . S
C365 H393 0.929 . S
C366 C365 1.395 . S
C366 C367 1.335 . S
C367 C366 1.335 . S
C367 C368 1.398 . S
C367 H394 0.930 . S
C368 C363 1.382 . S
C368 C367 1.398 . S
C368 H395 0.929 . S
C369 O382 1.271 . S
C369 O383 1.251 . S
C370 O384 1.252 . S
C370 O385 1.272 . S
C371 Sm361 2.846 . S
C371 C372 1.506 1_455 S
C371 O386 1.261 . S
C371 O387 1.242 . S
C372 C371 1.506 1_655 S
C372 C373 1.358 . S
C372 C377 1.382 . S
C373 C372 1.358 . S
C373 C374 1.385 . S
C373 H396 0.930 . S
C374 C373 1.385 . S
C374 C375 1.395 . S
C374 H397 0.929 . S
C375 C374 1.395 . S
C375 C376 1.335 . S
C376 C375 1.335 . S
C376 C377 1.398 . S
C376 H398 0.930 . S
C377 C372 1.382 . S
C377 C376 1.398 . S
C377 H399 0.929 . S
C378 O388 1.271 . S
C378 O389 1.251 . S
C379 O390 1.252 . S
C379 O391 1.272 . S
O380 Sm360 2.543 . S
O380 C362 1.261 . S
O381 Sm360 2.450 . S
O381 C362 1.242 . S
O382 Sm360 2.681 . S
O382 Sm361 2.386 . S
O382 C369 1.271 . S
O383 Sm360 2.464 . S
O383 C369 1.251 . S
O384 Sm360 2.396 . S
O384 C370 1.252 . S
O385 Sm361 2.408 . S
O385 C370 1.272 . S
O386 Sm361 2.543 . S
O386 C371 1.261 . S
O387 Sm361 2.450 . S
O387 C371 1.242 . S
O388 Sm360 2.386 . S
O388 Sm361 2.681 . S
O388 C378 1.271 . S
O389 Sm361 2.464 . S
O389 C378 1.251 . S
O390 Sm361 2.396 . S
O390 C379 1.252 . S
O391 Sm360 2.408 . S
O391 C379 1.272 . S
H392 C364 0.930 . S
H393 C365 0.929 . S
H394 C367 0.930 . S
H395 C368 0.929 . S
H396 C373 0.930 . S
H397 C374 0.929 . S
H398 C376 0.930 . S
H399 C377 0.929 . S
Sm400 C402 2.846 . S
Sm400 O420 2.543 . S
Sm400 O421 2.450 . S
Sm400 O422 2.681 1_655 S
Sm400 O423 2.464 . S
Sm400 O424 2.396 . S
Sm400 O428 2.386 1_655 S
Sm400 O431 2.408 1_655 S
Sm401 C411 2.846 . S
Sm401 O422 2.386 . S
Sm401 O425 2.408 . S
Sm401 O426 2.543 . S
Sm401 O427 2.450 . S
Sm401 O428 2.681 . S
Sm401 O429 2.464 . S
Sm401 O430 2.396 . S
C402 Sm400 2.846 . S
C402 C403 1.506 . S
C402 O420 1.261 . S
C402 O421 1.242 . S
C403 C402 1.506 . S
C403 C404 1.358 . S
C403 C408 1.382 . S
C404 C403 1.358 . S
C404 C405 1.385 . S
C404 H432 0.930 . S
C405 C404 1.385 . S
C405 C406 1.395 . S
C405 H433 0.929 . S
C406 C405 1.395 . S
C406 C407 1.335 . S
C407 C406 1.335 . S
C407 C408 1.398 . S
C407 H434 0.930 . S
C408 C403 1.382 . S
C408 C407 1.398 . S
C408 H435 0.929 . S
C409 O422 1.271 . S
C409 O423 1.251 1_455 S
C410 O424 1.252 . S
C410 O425 1.272 1_655 S
C411 Sm401 2.846 . S
C411 C412 1.506 . S
C411 O426 1.261 . S
C411 O427 1.242 . S
C412 C411 1.506 . S
C412 C413 1.358 . S
C412 C417 1.382 . S
C413 C412 1.358 . S
C413 C414 1.385 . S
C413 H436 0.930 . S
C414 C413 1.385 . S
C414 C415 1.395 . S
C414 H437 0.929 . S
C415 C414 1.395 . S
C415 C416 1.335 . S
C416 C415 1.335 . S
C416 C417 1.398 . S
C416 H438 0.930 . S
C417 C412 1.382 . S
C417 C416 1.398 . S
C417 H439 0.929 . S
C418 O428 1.271 . S
C418 O429 1.251 . S
C419 O430 1.252 . S
C419 O431 1.272 . S
O420 Sm400 2.543 . S
O420 C402 1.261 . S
O421 Sm400 2.450 . S
O421 C402 1.242 . S
O422 Sm400 2.681 1_455 S
O422 Sm401 2.386 . S
O422 C409 1.271 . S
O423 Sm400 2.464 . S
O423 C409 1.251 1_655 S
O424 Sm400 2.396 . S
O424 C410 1.252 . S
O425 Sm401 2.408 . S
O425 C410 1.272 1_455 S
O426 Sm401 2.543 . S
O426 C411 1.261 . S
O427 Sm401 2.450 . S
O427 C411 1.242 . S
O428 Sm400 2.386 1_455 S
O428 Sm401 2.681 . S
O428 C418 1.271 . S
O429 Sm401 2.464 . S
O429 C418 1.251 . S
O430 Sm401 2.396 . S
O430 C419 1.252 . S
O431 Sm400 2.408 1_455 S
O431 C419 1.272 . S
H432 C404 0.930 . S
H433 C405 0.929 . S
H434 C407 0.930 . S
H435 C408 0.929 . S
H436 C413 0.930 . S
H437 C414 0.929 . S
H438 C416 0.930 . S
H439 C417 0.929 . S
Sm440 C442 2.846 . S
Sm440 O460 2.543 1_545 S
Sm440 O461 2.450 . S
Sm440 O462 2.681 1_545 S
Sm440 O463 2.464 . S
Sm440 O464 2.396 1_545 S
Sm440 O468 2.386 1_545 S
Sm440 O471 2.408 . S
Sm441 C451 2.846 . S
Sm441 O462 2.386 . S
Sm441 O465 2.408 . S
Sm441 O466 2.543 . S
Sm441 O467 2.450 . S
Sm441 O468 2.681 . S
Sm441 O469 2.464 . S
Sm441 O470 2.396 1_565 S
C442 Sm440 2.846 . S
C442 C443 1.506 1_545 S
C442 O460 1.261 1_545 S
C442 O461 1.242 . S
C443 C442 1.506 1_565 S
C443 C444 1.358 . S
C443 C448 1.385 . S
C444 C443 1.358 . S
C444 C445 1.385 . S
C444 H472 0.930 . S
C445 C444 1.385 . S
C445 C446 1.395 . S
C445 H473 0.929 . S
C446 C445 1.395 . S
C446 C447 1.335 . S
C447 C446 1.335 . S
C447 C448 1.402 . S
C447 H474 0.930 . S
C448 C443 1.385 . S
C448 C447 1.402 . S
C448 H475 0.923 1_565 S
C449 O462 1.271 . S
C449 O463 1.251 1_565 S
C450 O464 1.252 . S
C450 O465 1.272 . S
C451 Sm441 2.846 . S
C451 C452 1.506 1_455 S
C451 O466 1.261 . S
C451 O467 1.242 . S
C452 C451 1.506 1_655 S
C452 C453 1.358 1_565 S
C452 C457 1.382 . S
C453 C452 1.358 1_545 S
C453 C454 1.385 . S
C453 H476 0.930 . S
C454 C453 1.385 . S
C454 C455 1.395 . S
C454 H477 0.929 . S
C455 C454 1.395 . S
C455 C456 1.335 1_545 S
C456 C455 1.335 1_565 S
C456 C457 1.398 . S
C456 H478 0.930 . S
C457 C452 1.382 . S
C457 C456 1.398 . S
C457 H479 0.929 . S
C458 O468 1.271 . S
C458 O469 1.251 . S
C459 O470 1.252 . S
C459 O471 1.272 . S
O460 Sm440 2.543 1_565 S
O460 C442 1.261 1_565 S
O461 Sm440 2.450 . S
O461 C442 1.242 . S
O462 Sm440 2.681 1_565 S
O462 Sm441 2.386 . S
O462 C449 1.271 . S
O463 Sm440 2.464 . S
O463 C449 1.251 1_545 S
O464 Sm440 2.396 1_565 S
O464 C450 1.252 . S
O465 Sm441 2.408 . S
O465 C450 1.272 . S
O466 Sm441 2.543 . S
O466 C451 1.261 . S
O467 Sm441 2.450 . S
O467 C451 1.242 . S
O468 Sm440 2.386 1_565 S
O468 Sm441 2.681 . S
O468 C458 1.271 . S
O469 Sm441 2.464 . S
O469 C458 1.251 . S
O470 Sm441 2.396 1_545 S
O470 C459 1.252 . S
O471 Sm440 2.408 . S
O471 C459 1.272 . S
H472 C444 0.930 . S
H473 C445 0.929 . S
H474 C447 0.930 . S
H475 C448 0.923 1_545 S
H476 C453 0.930 . S
H477 C454 0.929 . S
H478 C456 0.930 . S
H479 C457 0.929 . S
Sm480 C482 2.846 . S
Sm480 O500 2.543 . S
Sm480 O501 2.450 . S
Sm480 O502 2.681 . S
Sm480 O503 2.464 . S
Sm480 O504 2.396 1_545 S
Sm480 O508 2.386 . S
Sm480 O511 2.408 . S
Sm481 C491 2.846 . S
Sm481 O502 2.386 1_465 S
Sm481 O505 2.408 1_455 S
Sm481 O506 2.543 1_565 S
Sm481 O507 2.450 . S
Sm481 O508 2.681 1_465 S
Sm481 O509 2.464 . S
Sm481 O510 2.396 1_565 S
C482 Sm480 2.846 . S
C482 C483 1.506 . S
C482 O500 1.261 . S
C482 O501 1.242 . S
C483 C482 1.506 . S
C483 C484 1.358 1_545 S
C483 C488 1.382 . S
C484 C483 1.358 1_565 S
C484 C485 1.385 . S
C484 H512 0.930 . S
C485 C484 1.385 . S
C485 C486 1.395 . S
C485 H513 0.929 . S
C486 C485 1.395 . S
C486 C487 1.335 1_565 S
C487 C486 1.335 1_545 S
C487 C488 1.398 . S
C487 H514 0.930 . S
C488 C483 1.382 . S
C488 C487 1.398 . S
C488 H515 0.929 . S
C489 O502 1.271 . S
C489 O503 1.251 . S
C490 O504 1.252 . S
C490 O505 1.272 . S
C491 Sm481 2.846 . S
C491 C492 1.506 1_565 S
C491 O506 1.261 1_565 S
C491 O507 1.242 . S
C492 C491 1.506 1_545 S
C492 C493 1.358 . S
C492 C497 1.385 . S
C493 C492 1.358 . S
C493 C494 1.385 . S
C493 H516 0.930 . S
C494 C493 1.385 . S
C494 C495 1.395 . S
C494 H517 0.929 . S
C495 C494 1.395 . S
C495 C496 1.335 . S
C496 C495 1.335 . S
C496 C497 1.402 . S
C496 H518 0.930 . S
C497 C492 1.385 . S
C497 C496 1.402 . S
C497 H519 0.923 1_545 S
C498 O508 1.271 . S
C498 O509 1.251 1_645 S
C499 O510 1.252 . S
C499 O511 1.272 1_455 S
O500 Sm480 2.543 . S
O500 C482 1.261 . S
O501 Sm480 2.450 . S
O501 C482 1.242 . S
O502 Sm480 2.681 . S
O502 Sm481 2.386 1_645 S
O502 C489 1.271 . S
O503 Sm480 2.464 . S
O503 C489 1.251 . S
O504 Sm480 2.396 1_565 S
O504 C490 1.252 . S
O505 Sm481 2.408 1_655 S
O505 C490 1.272 . S
O506 Sm481 2.543 1_545 S
O506 C491 1.261 1_545 S
O507 Sm481 2.450 . S
O507 C491 1.242 . S
O508 Sm480 2.386 . S
O508 Sm481 2.681 1_645 S
O508 C498 1.271 . S
O509 Sm481 2.464 . S
O509 C498 1.251 1_465 S
O510 Sm481 2.396 1_545 S
O510 C499 1.252 . S
O511 Sm480 2.408 . S
O511 C499 1.272 1_655 S
H512 C484 0.930 . S
H513 C485 0.929 . S
H514 C487 0.930 . S
H515 C488 0.929 . S
H516 C493 0.930 . S
H517 C494 0.929 . S
H518 C496 0.930 . S
H519 C497 0.923 1_565 S
Sm520 C522 2.846 . S
Sm520 O540 2.543 . S
Sm520 O541 2.450 . S
Sm520 O542 2.681 . S
Sm520 O543 2.464 . S
Sm520 O544 2.396 . S
Sm520 O548 2.386 . S
Sm520 O551 2.408 . S
Sm521 C531 2.846 . S
Sm521 O542 2.386 . S
Sm521 O545 2.408 . S
Sm521 O546 2.543 . S
Sm521 O547 2.450 . S
Sm521 O548 2.681 . S
Sm521 O549 2.464 . S
Sm521 O550 2.396 . S
C522 Sm520 2.846 . S
C522 C523 1.506 1_655 S
C522 O540 1.261 . S
C522 O541 1.242 . S
C523 C522 1.506 1_455 S
C523 C524 1.358 . S
C523 C528 1.382 . S
C524 C523 1.358 . S
C524 C525 1.385 . S
C524 H552 0.930 . S
C525 C524 1.385 . S
C525 C526 1.395 . S
C525 H553 0.929 . S
C526 C525 1.395 . S
C526 C527 1.335 . S
C527 C526 1.335 . S
C527 C528 1.398 . S
C527 H554 0.930 . S
C528 C523 1.382 . S
C528 C527 1.398 . S
C528 H555 0.929 . S
C529 O542 1.271 . S
C529 O543 1.251 . S
C530 O544 1.252 . S
C530 O545 1.272 . S
C531 Sm521 2.846 . S
C531 C532 1.506 . S
C531 O546 1.261 . S
C531 O547 1.242 . S
C532 C531 1.506 . S
C532 C533 1.358 . S
C532 C537 1.382 . S
C533 C532 1.358 . S
C533 C534 1.385 . S
C533 H556 0.930 . S
C534 C533 1.385 . S
C534 C535 1.395 . S
C534 H557 0.929 . S
C535 C534 1.395 . S
C535 C536 1.335 . S
C536 C535 1.335 . S
C536 C537 1.398 . S
C536 H558 0.930 . S
C537 C532 1.382 . S
C537 C536 1.398 . S
C537 H559 0.929 . S
C538 O548 1.271 . S
C538 O549 1.251 . S
C539 O550 1.252 . S
C539 O551 1.272 . S
O540 Sm520 2.543 . S
O540 C522 1.261 . S
O541 Sm520 2.450 . S
O541 C522 1.242 . S
O542 Sm520 2.681 . S
O542 Sm521 2.386 . S
O542 C529 1.271 . S
O543 Sm520 2.464 . S
O543 C529 1.251 . S
O544 Sm520 2.396 . S
O544 C530 1.252 . S
O545 Sm521 2.408 . S
O545 C530 1.272 . S
O546 Sm521 2.543 . S
O546 C531 1.261 . S
O547 Sm521 2.450 . S
O547 C531 1.242 . S
O548 Sm520 2.386 . S
O548 Sm521 2.681 . S
O548 C538 1.271 . S
O549 Sm521 2.464 . S
O549 C538 1.251 . S
O550 Sm521 2.396 . S
O550 C539 1.252 . S
O551 Sm520 2.408 . S
O551 C539 1.272 . S
H552 C524 0.930 . S
H553 C525 0.929 . S
H554 C527 0.930 . S
H555 C528 0.929 . S
H556 C533 0.930 . S
H557 C534 0.929 . S
H558 C536 0.930 . S
H559 C537 0.929 . S
Sm560 C562 2.846 . S
Sm560 O580 2.543 . S
Sm560 O581 2.450 . S
Sm560 O582 2.681 . S
Sm560 O583 2.464 . S
Sm560 O584 2.396 . S
Sm560 O588 2.386 . S
Sm560 O591 2.408 . S
Sm561 C571 2.846 . S
Sm561 O582 2.386 1_455 S
Sm561 O585 2.408 1_455 S
Sm561 O586 2.543 . S
Sm561 O587 2.450 . S
Sm561 O588 2.681 1_455 S
Sm561 O589 2.464 . S
Sm561 O590 2.396 . S
C562 Sm560 2.846 . S
C562 C563 1.506 . S
C562 O580 1.261 . S
C562 O581 1.242 . S
C563 C562 1.506 . S
C563 C564 1.358 . S
C563 C568 1.382 . S
C564 C563 1.358 . S
C564 C565 1.385 . S
C564 H592 0.930 . S
C565 C564 1.385 . S
C565 C566 1.395 . S
C565 H593 0.929 . S
C566 C565 1.395 . S
C566 C567 1.335 . S
C567 C566 1.335 . S
C567 C568 1.398 . S
C567 H594 0.930 . S
C568 C563 1.382 . S
C568 C567 1.398 . S
C568 H595 0.929 . S
C569 O582 1.271 . S
C569 O583 1.251 . S
C570 O584 1.252 . S
C570 O585 1.272 . S
C571 Sm561 2.846 . S
C571 C572 1.506 . S
C571 O586 1.261 . S
C571 O587 1.242 . S
C572 C571 1.506 . S
C572 C573 1.358 . S
C572 C577 1.382 . S
C573 C572 1.358 . S
C573 C574 1.385 . S
C573 H596 0.930 . S
C574 C573 1.385 . S
C574 C575 1.395 . S
C574 H597 0.929 . S
C575 C574 1.395 . S
C575 C576 1.335 . S
C576 C575 1.335 . S
C576 C577 1.398 . S
C576 H598 0.930 . S
C577 C572 1.382 . S
C577 C576 1.398 . S
C577 H599 0.929 . S
C578 O588 1.271 . S
C578 O589 1.251 1_655 S
C579 O590 1.252 . S
C579 O591 1.272 1_455 S
O580 Sm560 2.543 . S
O580 C562 1.261 . S
O581 Sm560 2.450 . S
O581 C562 1.242 . S
O582 Sm560 2.681 . S
O582 Sm561 2.386 1_655 S
O582 C569 1.271 . S
O583 Sm560 2.464 . S
O583 C569 1.251 . S
O584 Sm560 2.396 . S
O584 C570 1.252 . S
O585 Sm561 2.408 1_655 S
O585 C570 1.272 . S
O586 Sm561 2.543 . S
O586 C571 1.261 . S
O587 Sm561 2.450 . S
O587 C571 1.242 . S
O588 Sm560 2.386 . S
O588 Sm561 2.681 1_655 S
O588 C578 1.271 . S
O589 Sm561 2.464 . S
O589 C578 1.251 1_455 S
O590 Sm561 2.396 . S
O590 C579 1.252 . S
O591 Sm560 2.408 . S
O591 C579 1.272 1_655 S
H592 C564 0.930 . S
H593 C565 0.929 . S
H594 C567 0.930 . S
H595 C568 0.929 . S
H596 C573 0.930 . S
H597 C574 0.929 . S
H598 C576 0.930 . S
H599 C577 0.929 . S
Sm600 C602 2.846 . S
Sm600 O620 2.543 . S
Sm600 O621 2.450 . S
Sm600 O622 2.681 . S
Sm600 O623 2.464 . S
Sm600 O624 2.396 1_545 S
Sm600 O628 2.386 . S
Sm600 O631 2.408 . S
Sm601 C611 2.846 . S
Sm601 O622 2.386 1_565 S
Sm601 O625 2.408 . S
Sm601 O626 2.543 1_565 S
Sm601 O627 2.450 . S
Sm601 O628 2.681 1_565 S
Sm601 O629 2.464 . S
Sm601 O630 2.396 1_565 S
C602 Sm600 2.846 . S
C602 C603 1.506 1_655 S
C602 O620 1.261 . S
C602 O621 1.242 . S
C603 C602 1.506 1_455 S
C603 C604 1.358 1_545 S
C603 C608 1.382 . S
C604 C603 1.358 1_565 S
C604 C605 1.385 . S
C604 H632 0.930 . S
C605 C604 1.385 . S
C605 C606 1.395 . S
C605 H633 0.929 . S
C606 C605 1.395 . S
C606 C607 1.335 1_565 S
C607 C606 1.335 1_545 S
C607 C608 1.398 . S
C607 H634 0.930 . S
C608 C603 1.382 . S
C608 C607 1.398 . S
C608 H635 0.929 . S
C609 O622 1.271 . S
C609 O623 1.251 . S
C610 O624 1.252 . S
C610 O625 1.272 . S
C611 Sm601 2.846 . S
C611 C612 1.506 1_565 S
C611 O626 1.261 1_565 S
C611 O627 1.242 . S
C612 C611 1.506 1_545 S
C612 C613 1.358 . S
C612 C617 1.385 . S
C613 C612 1.358 . S
C613 C614 1.385 . S
C613 H636 0.930 . S
C614 C613 1.385 . S
C614 C615 1.395 . S
C614 H637 0.929 . S
C615 C614 1.395 . S
C615 C616 1.335 . S
C616 C615 1.335 . S
C616 C617 1.402 . S
C616 H638 0.930 . S
C617 C612 1.385 . S
C617 C616 1.402 . S
C617 H639 0.923 1_545 S
C618 O628 1.271 . S
C618 O629 1.251 1_545 S
C619 O630 1.252 . S
C619 O631 1.272 . S
O620 Sm600 2.543 . S
O620 C602 1.261 . S
O621 Sm600 2.450 . S
O621 C602 1.242 . S
O622 Sm600 2.681 . S
O622 Sm601 2.386 1_545 S
O622 C609 1.271 . S
O623 Sm600 2.464 . S
O623 C609 1.251 . S
O624 Sm600 2.396 1_565 S
O624 C610 1.252 . S
O625 Sm601 2.408 . S
O625 C610 1.272 . S
O626 Sm601 2.543 1_545 S
O626 C611 1.261 1_545 S
O627 Sm601 2.450 . S
O627 C611 1.242 . S
O628 Sm600 2.386 . S
O628 Sm601 2.681 1_545 S
O628 C618 1.271 . S
O629 Sm601 2.464 . S
O629 C618 1.251 1_565 S
O630 Sm601 2.396 1_545 S
O630 C619 1.252 . S
O631 Sm600 2.408 . S
O631 C619 1.272 . S
H632 C604 0.930 . S
H633 C605 0.929 . S
H634 C607 0.930 . S
H635 C608 0.929 . S
H636 C613 0.930 . S
H637 C614 0.929 . S
H638 C616 0.930 . S
H639 C617 0.923 1_565 S
Sm640 C642 2.846 . S
Sm640 O660 2.543 . S
Sm640 O661 2.450 . S
Sm640 O662 2.681 . S
Sm640 O663 2.464 . S
Sm640 O664 2.396 . S
Sm640 O668 2.386 . S
Sm640 O671 2.408 . S
Sm641 C651 2.846 . S
Sm641 O662 2.386 . S
Sm641 O665 2.408 . S
Sm641 O666 2.543 . S
Sm641 O667 2.450 . S
Sm641 O668 2.681 . S
Sm641 O669 2.464 . S
Sm641 O670 2.396 . S
C642 Sm640 2.846 . S
C642 C643 1.506 . S
C642 O660 1.261 . S
C642 O661 1.242 . S
C643 C642 1.506 . S
C643 C644 1.358 . S
C643 C648 1.382 . S
C644 C643 1.358 . S
C644 C645 1.385 . S
C644 H672 0.930 . S
C645 C644 1.385 . S
C645 C646 1.395 . S
C645 H673 0.929 . S
C646 C645 1.395 . S
C646 C647 1.335 . S
C647 C646 1.335 . S
C647 C648 1.398 . S
C647 H674 0.930 . S
C648 C643 1.382 . S
C648 C647 1.398 . S
C648 H675 0.929 . S
C649 O662 1.271 . S
C649 O663 1.251 . S
C650 O664 1.252 . S
C650 O665 1.272 . S
C651 Sm641 2.846 . S
C651 C652 1.506 . S
C651 O666 1.261 . S
C651 O667 1.242 . S
C652 C651 1.506 . S
C652 C653 1.358 . S
C652 C657 1.382 . S
C653 C652 1.358 . S
C653 C654 1.385 . S
C653 H676 0.930 . S
C654 C653 1.385 . S
C654 C655 1.395 . S
C654 H677 0.929 . S
C655 C654 1.395 . S
C655 C656 1.335 . S
C656 C655 1.335 . S
C656 C657 1.398 . S
C656 H678 0.930 . S
C657 C652 1.382 . S
C657 C656 1.398 . S
C657 H679 0.929 . S
C658 O668 1.271 . S
C658 O669 1.251 . S
C659 O670 1.252 . S
C659 O671 1.272 . S
O660 Sm640 2.543 . S
O660 C642 1.261 . S
O661 Sm640 2.450 . S
O661 C642 1.242 . S
O662 Sm640 2.681 . S
O662 Sm641 2.386 . S
O662 C649 1.271 . S
O663 Sm640 2.464 . S
O663 C649 1.251 . S
O664 Sm640 2.396 . S
O664 C650 1.252 . S
O665 Sm641 2.408 . S
O665 C650 1.272 . S
O666 Sm641 2.543 . S
O666 C651 1.261 . S
O667 Sm641 2.450 . S
O667 C651 1.242 . S
O668 Sm640 2.386 . S
O668 Sm641 2.681 . S
O668 C658 1.271 . S
O669 Sm641 2.464 . S
O669 C658 1.251 . S
O670 Sm641 2.396 . S
O670 C659 1.252 . S
O671 Sm640 2.408 . S
O671 C659 1.272 . S
H672 C644 0.930 . S
H673 C645 0.929 . S
H674 C647 0.930 . S
H675 C648 0.929 . S
H676 C653 0.930 . S
H677 C654 0.929 . S
H678 C656 0.930 . S
H679 C657 0.929 . S
Sm680 C682 2.846 . S
Sm680 O700 2.543 . S
Sm680 O701 2.450 . S
Sm680 O702 2.681 . S
Sm680 O703 2.464 . S
Sm680 O704 2.396 . S
Sm680 O708 2.386 . S
Sm680 O711 2.408 . S
Sm681 C691 2.846 . S
Sm681 O702 2.386 . S
Sm681 O705 2.408 . S
Sm681 O706 2.543 . S
Sm681 O707 2.450 . S
Sm681 O708 2.681 . S
Sm681 O709 2.464 . S
Sm681 O710 2.396 . S
C682 Sm680 2.846 . S
C682 C683 1.506 . S
C682 O700 1.261 . S
C682 O701 1.242 . S
C683 C682 1.506 . S
C683 C684 1.358 1_655 S
C683 C688 1.382 1_655 S
C684 C683 1.358 1_455 S
C684 C685 1.385 . S
C684 H712 0.930 1_455 S
C685 C684 1.385 . S
C685 C686 1.395 . S
C685 H713 0.929 . S
C686 C685 1.395 . S
C686 C687 1.335 . S
C687 C686 1.335 . S
C687 C688 1.398 . S
C687 H714 0.930 . S
C688 C683 1.382 1_455 S
C688 C687 1.398 . S
C688 H715 0.929 1_455 S
C689 O702 1.271 . S
C689 O703 1.251 . S
C690 O704 1.252 . S
C690 O705 1.272 . S
C691 Sm681 2.846 . S
C691 C692 1.506 . S
C691 O706 1.261 . S
C691 O707 1.242 . S
C692 C691 1.506 . S
C692 C693 1.358 . S
C692 C697 1.382 . S
C693 C692 1.358 . S
C693 C694 1.385 . S
C693 H716 0.930 . S
C694 C693 1.385 . S
C694 C695 1.395 . S
C694 H717 0.929 . S
C695 C694 1.395 . S
C695 C696 1.335 . S
C696 C695 1.335 . S
C696 C697 1.398 . S
C696 H718 0.930 . S
C697 C692 1.382 . S
C697 C696 1.398 . S
C697 H719 0.929 . S
C698 O708 1.271 . S
C698 O709 1.251 . S
C699 O710 1.252 . S
C699 O711 1.272 . S
O700 Sm680 2.543 . S
O700 C682 1.261 . S
O701 Sm680 2.450 . S
O701 C682 1.242 . S
O702 Sm680 2.681 . S
O702 Sm681 2.386 . S
O702 C689 1.271 . S
O703 Sm680 2.464 . S
O703 C689 1.251 . S
O704 Sm680 2.396 . S
O704 C690 1.252 . S
O705 Sm681 2.408 . S
O705 C690 1.272 . S
O706 Sm681 2.543 . S
O706 C691 1.261 . S
O707 Sm681 2.450 . S
O707 C691 1.242 . S
O708 Sm680 2.386 . S
O708 Sm681 2.681 . S
O708 C698 1.271 . S
O709 Sm681 2.464 . S
O709 C698 1.251 . S
O710 Sm681 2.396 . S
O710 C699 1.252 . S
O711 Sm680 2.408 . S
O711 C699 1.272 . S
H712 C684 0.930 1_655 S
H713 C685 0.929 . S
H714 C687 0.930 . S
H715 C688 0.929 1_655 S
H716 C693 0.930 . S
H717 C694 0.929 . S
H718 C696 0.930 . S
H719 C697 0.929 . S
Sm720 C722 2.846 . S
Sm720 O740 2.543 . S
Sm720 O741 2.450 . S
Sm720 O742 2.681 . S
Sm720 O743 2.464 . S
Sm720 O744 2.396 . S
Sm720 O748 2.386 . S
Sm720 O751 2.408 . S
Sm721 C731 2.846 . S
Sm721 O742 2.386 . S
Sm721 O745 2.408 . S
Sm721 O746 2.543 . S
Sm721 O747 2.450 . S
Sm721 O748 2.681 . S
Sm721 O749 2.464 . S
Sm721 O750 2.396 . S
C722 Sm720 2.846 . S
C722 C723 1.506 . S
C722 O740 1.261 . S
C722 O741 1.242 . S
C723 C722 1.506 . S
C723 C724 1.358 . S
C723 C728 1.382 . S
C724 C723 1.358 . S
C724 C725 1.385 . S
C724 H752 0.930 . S
C725 C724 1.385 . S
C725 C726 1.395 . S
C725 H753 0.929 . S
C726 C725 1.395 . S
C726 C727 1.335 . S
C727 C726 1.335 . S
C727 C728 1.398 . S
C727 H754 0.930 . S
C728 C723 1.382 . S
C728 C727 1.398 . S
C728 H755 0.929 . S
C729 O742 1.271 . S
C729 O743 1.251 . S
C730 O744 1.252 . S
C730 O745 1.272 . S
C731 Sm721 2.846 . S
C731 C732 1.506 . S
C731 O746 1.261 . S
C731 O747 1.242 . S
C732 C731 1.506 . S
C732 C733 1.358 . S
C732 C737 1.382 . S
C733 C732 1.358 . S
C733 C734 1.385 . S
C733 H756 0.930 . S
C734 C733 1.385 . S
C734 C735 1.395 . S
C734 H757 0.929 . S
C735 C734 1.395 . S
C735 C736 1.335 . S
C736 C735 1.335 . S
C736 C737 1.398 . S
C736 H758 0.930 . S
C737 C732 1.382 . S
C737 C736 1.398 . S
C737 H759 0.929 . S
C738 O748 1.271 . S
C738 O749 1.251 . S
C739 O750 1.252 . S
C739 O751 1.272 . S
O740 Sm720 2.543 . S
O740 C722 1.261 . S
O741 Sm720 2.450 . S
O741 C722 1.242 . S
O742 Sm720 2.681 . S
O742 Sm721 2.386 . S
O742 C729 1.271 . S
O743 Sm720 2.464 . S
O743 C729 1.251 . S
O744 Sm720 2.396 . S
O744 C730 1.252 . S
O745 Sm721 2.408 . S
O745 C730 1.272 . S
O746 Sm721 2.543 . S
O746 C731 1.261 . S
O747 Sm721 2.450 . S
O747 C731 1.242 . S
O748 Sm720 2.386 . S
O748 Sm721 2.681 . S
O748 C738 1.271 . S
O749 Sm721 2.464 . S
O749 C738 1.251 . S
O750 Sm721 2.396 . S
O750 C739 1.252 . S
O751 Sm720 2.408 . S
O751 C739 1.272 . S
H752 C724 0.930 . S
H753 C725 0.929 . S
H754 C727 0.930 . S
H755 C728 0.929 . S
H756 C733 0.930 . S
H757 C734 0.929 . S
H758 C736 0.930 . S
H759 C737 0.929 . S
Sm760 C762 2.846 . S
Sm760 O780 2.543 . S
Sm760 O781 2.450 . S
Sm760 O782 2.681 . S
Sm760 O783 2.464 . S
Sm760 O784 2.396 . S
Sm760 O788 2.386 . S
Sm760 O791 2.408 . S
Sm761 C771 2.846 . S
Sm761 O782 2.386 . S
Sm761 O785 2.408 . S
Sm761 O786 2.543 . S
Sm761 O787 2.450 . S
Sm761 O788 2.681 . S
Sm761 O789 2.464 . S
Sm761 O790 2.396 . S
C762 Sm760 2.846 . S
C762 C763 1.506 . S
C762 O780 1.261 . S
C762 O781 1.242 . S
C763 C762 1.506 . S
C763 C764 1.358 1_655 S
C763 C768 1.382 1_655 S
C764 C763 1.358 1_455 S
C764 C765 1.385 . S
C764 H792 0.930 1_455 S
C765 C764 1.385 . S
C765 C766 1.395 . S
C765 H793 0.929 . S
C766 C765 1.395 . S
C766 C767 1.335 . S
C767 C766 1.335 . S
C767 C768 1.398 . S
C767 H794 0.930 . S
C768 C763 1.382 1_455 S
C768 C767 1.398 . S
C768 H795 0.929 1_455 S
C769 O782 1.271 . S
C769 O783 1.251 . S
C770 O784 1.252 . S
C770 O785 1.272 . S
C771 Sm761 2.846 . S
C771 C772 1.506 . S
C771 O786 1.261 . S
C771 O787 1.242 . S
C772 C771 1.506 . S
C772 C773 1.358 . S
C772 C777 1.382 . S
C773 C772 1.358 . S
C773 C774 1.385 . S
C773 H796 0.930 . S
C774 C773 1.385 . S
C774 C775 1.395 . S
C774 H797 0.929 . S
C775 C774 1.395 . S
C775 C776 1.335 . S
C776 C775 1.335 . S
C776 C777 1.398 . S
C776 H798 0.930 . S
C777 C772 1.382 . S
C777 C776 1.398 . S
C777 H799 0.929 . S
C778 O788 1.271 . S
C778 O789 1.251 . S
C779 O790 1.252 . S
C779 O791 1.272 . S
O780 Sm760 2.543 . S
O780 C762 1.261 . S
O781 Sm760 2.450 . S
O781 C762 1.242 . S
O782 Sm760 2.681 . S
O782 Sm761 2.386 . S
O782 C769 1.271 . S
O783 Sm760 2.464 . S
O783 C769 1.251 . S
O784 Sm760 2.396 . S
O784 C770 1.252 . S
O785 Sm761 2.408 . S
O785 C770 1.272 . S
O786 Sm761 2.543 . S
O786 C771 1.261 . S
O787 Sm761 2.450 . S
O787 C771 1.242 . S
O788 Sm760 2.386 . S
O788 Sm761 2.681 . S
O788 C778 1.271 . S
O789 Sm761 2.464 . S
O789 C778 1.251 . S
O790 Sm761 2.396 . S
O790 C779 1.252 . S
O791 Sm760 2.408 . S
O791 C779 1.272 . S
H792 C764 0.930 1_655 S
H793 C765 0.929 . S
H794 C767 0.930 . S
H795 C768 0.929 1_655 S
H796 C773 0.930 . S
H797 C774 0.929 . S
H798 C776 0.930 . S
H799 C777 0.929 . S
Sm800 C802 2.846 . S
Sm800 O820 2.543 . S
Sm800 O821 2.450 . S
Sm800 O822 2.681 . S
Sm800 O823 2.464 . S
Sm800 O824 2.396 . S
Sm800 O828 2.386 . S
Sm800 O831 2.408 . S
Sm801 C811 2.846 . S
Sm801 O822 2.386 . S
Sm801 O825 2.408 . S
Sm801 O826 2.543 . S
Sm801 O827 2.450 . S
Sm801 O828 2.681 . S
Sm801 O829 2.464 . S
Sm801 O830 2.396 . S
C802 Sm800 2.846 . S
C802 C803 1.506 . S
C802 O820 1.261 . S
C802 O821 1.242 . S
C803 C802 1.506 . S
C803 C804 1.358 . S
C803 C808 1.382 . S
C804 C803 1.358 . S
C804 C805 1.385 . S
C804 H832 0.930 . S
C805 C804 1.385 . S
C805 C806 1.395 . S
C805 H833 0.929 . S
C806 C805 1.395 . S
C806 C807 1.335 . S
C807 C806 1.335 . S
C807 C808 1.398 . S
C807 H834 0.930 . S
C808 C803 1.382 . S
C808 C807 1.398 . S
C808 H835 0.929 . S
C809 O822 1.271 . S
C809 O823 1.251 . S
C810 O824 1.252 . S
C810 O825 1.272 . S
C811 Sm801 2.846 . S
C811 C812 1.506 . S
C811 O826 1.261 . S
C811 O827 1.242 . S
C812 C811 1.506 . S
C812 C813 1.358 . S
C812 C817 1.382 . S
C813 C812 1.358 . S
C813 C814 1.385 . S
C813 H836 0.930 . S
C814 C813 1.385 . S
C814 C815 1.395 . S
C814 H837 0.929 . S
C815 C814 1.395 . S
C815 C816 1.335 . S
C816 C815 1.335 . S
C816 C817 1.398 . S
C816 H838 0.930 . S
C817 C812 1.382 . S
C817 C816 1.398 . S
C817 H839 0.929 . S
C818 O828 1.271 . S
C818 O829 1.251 . S
C819 O830 1.252 . S
C819 O831 1.272 . S
O820 Sm800 2.543 . S
O820 C802 1.261 . S
O821 Sm800 2.450 . S
O821 C802 1.242 . S
O822 Sm800 2.681 . S
O822 Sm801 2.386 . S
O822 C809 1.271 . S
O823 Sm800 2.464 . S
O823 C809 1.251 . S
O824 Sm800 2.396 . S
O824 C810 1.252 . S
O825 Sm801 2.408 . S
O825 C810 1.272 . S
O826 Sm801 2.543 . S
O826 C811 1.261 . S
O827 Sm801 2.450 . S
O827 C811 1.242 . S
O828 Sm800 2.386 . S
O828 Sm801 2.681 . S
O828 C818 1.271 . S
O829 Sm801 2.464 . S
O829 C818 1.251 . S
O830 Sm801 2.396 . S
O830 C819 1.252 . S
O831 Sm800 2.408 . S
O831 C819 1.272 . S
H832 C804 0.930 . S
H833 C805 0.929 . S
H834 C807 0.930 . S
H835 C808 0.929 . S
H836 C813 0.930 . S
H837 C814 0.929 . S
H838 C816 0.930 . S
H839 C817 0.929 . S
Sm840 C842 2.846 . S
Sm840 O860 2.543 . S
Sm840 O861 2.450 . S
Sm840 O862 2.681 . S
Sm840 O863 2.464 . S
Sm840 O864 2.396 . S
Sm840 O868 2.386 . S
Sm840 O871 2.408 . S
Sm841 C851 2.846 . S
Sm841 O862 2.386 . S
Sm841 O865 2.408 . S
Sm841 O866 2.543 . S
Sm841 O867 2.450 . S
Sm841 O868 2.681 . S
Sm841 O869 2.464 . S
Sm841 O870 2.396 . S
C842 Sm840 2.846 . S
C842 C843 1.506 . S
C842 O860 1.261 . S
C842 O861 1.242 . S
C843 C842 1.506 . S
C843 C844 1.358 . S
C843 C848 1.382 . S
C844 C843 1.358 . S
C844 C845 1.385 . S
C844 H872 0.930 . S
C845 C844 1.385 . S
C845 C846 1.395 . S
C845 H873 0.929 . S
C846 C845 1.395 . S
C846 C847 1.335 . S
C847 C846 1.335 . S
C847 C848 1.398 . S
C847 H874 0.930 . S
C848 C843 1.382 . S
C848 C847 1.398 . S
C848 H875 0.929 . S
C849 O862 1.271 . S
C849 O863 1.251 . S
C850 O864 1.252 . S
C850 O865 1.272 . S
C851 Sm841 2.846 . S
C851 C852 1.506 . S
C851 O866 1.261 . S
C851 O867 1.242 . S
C852 C851 1.506 . S
C852 C853 1.358 1_455 S
C852 C857 1.382 1_455 S
C853 C852 1.358 1_655 S
C853 C854 1.385 . S
C853 H876 0.930 1_655 S
C854 C853 1.385 . S
C854 C855 1.395 . S
C854 H877 0.929 . S
C855 C854 1.395 . S
C855 C856 1.335 . S
C856 C855 1.335 . S
C856 C857 1.398 . S
C856 H878 0.930 . S
C857 C852 1.382 1_655 S
C857 C856 1.398 . S
C857 H879 0.929 1_655 S
C858 O868 1.271 . S
C858 O869 1.251 . S
C859 O870 1.252 . S
C859 O871 1.272 . S
O860 Sm840 2.543 . S
O860 C842 1.261 . S
O861 Sm840 2.450 . S
O861 C842 1.242 . S
O862 Sm840 2.681 . S
O862 Sm841 2.386 . S
O862 C849 1.271 . S
O863 Sm840 2.464 . S
O863 C849 1.251 . S
O864 Sm840 2.396 . S
O864 C850 1.252 . S
O865 Sm841 2.408 . S
O865 C850 1.272 . S
O866 Sm841 2.543 . S
O866 C851 1.261 . S
O867 Sm841 2.450 . S
O867 C851 1.242 . S
O868 Sm840 2.386 . S
O868 Sm841 2.681 . S
O868 C858 1.271 . S
O869 Sm841 2.464 . S
O869 C858 1.251 . S
O870 Sm841 2.396 . S
O870 C859 1.252 . S
O871 Sm840 2.408 . S
O871 C859 1.272 . S
H872 C844 0.930 . S
H873 C845 0.929 . S
H874 C847 0.930 . S
H875 C848 0.929 . S
H876 C853 0.930 1_455 S
H877 C854 0.929 . S
H878 C856 0.930 . S
H879 C857 0.929 1_455 S
Sm880 C882 2.846 . S
Sm880 O900 2.543 . S
Sm880 O901 2.450 . S
Sm880 O902 2.681 . S
Sm880 O903 2.464 . S
Sm880 O904 2.396 . S
Sm880 O908 2.386 . S
Sm880 O911 2.408 . S
Sm881 C891 2.846 . S
Sm881 O902 2.386 . S
Sm881 O905 2.408 . S
Sm881 O906 2.543 . S
Sm881 O907 2.450 . S
Sm881 O908 2.681 . S
Sm881 O909 2.464 . S
Sm881 O910 2.396 . S
C882 Sm880 2.846 . S
C882 C883 1.506 . S
C882 O900 1.261 . S
C882 O901 1.242 . S
C883 C882 1.506 . S
C883 C884 1.358 . S
C883 C888 1.382 . S
C884 C883 1.358 . S
C884 C885 1.385 . S
C884 H912 0.930 . S
C885 C884 1.385 . S
C885 C886 1.395 . S
C885 H913 0.929 . S
C886 C885 1.395 . S
C886 C887 1.335 . S
C887 C886 1.335 . S
C887 C888 1.398 . S
C887 H914 0.930 . S
C888 C883 1.382 . S
C888 C887 1.398 . S
C888 H915 0.929 . S
C889 O902 1.271 . S
C889 O903 1.251 . S
C890 O904 1.252 . S
C890 O905 1.272 . S
C891 Sm881 2.846 . S
C891 C892 1.506 . S
C891 O906 1.261 . S
C891 O907 1.242 . S
C892 C891 1.506 . S
C892 C893 1.358 . S
C892 C897 1.382 . S
C893 C892 1.358 . S
C893 C894 1.385 . S
C893 H916 0.930 . S
C894 C893 1.385 . S
C894 C895 1.395 . S
C894 H917 0.929 . S
C895 C894 1.395 . S
C895 C896 1.335 . S
C896 C895 1.335 . S
C896 C897 1.398 . S
C896 H918 0.930 . S
C897 C892 1.382 . S
C897 C896 1.398 . S
C897 H919 0.929 . S
C898 O908 1.271 . S
C898 O909 1.251 . S
C899 O910 1.252 . S
C899 O911 1.272 . S
O900 Sm880 2.543 . S
O900 C882 1.261 . S
O901 Sm880 2.450 . S
O901 C882 1.242 . S
O902 Sm880 2.681 . S
O902 Sm881 2.386 . S
O902 C889 1.271 . S
O903 Sm880 2.464 . S
O903 C889 1.251 . S
O904 Sm880 2.396 . S
O904 C890 1.252 . S
O905 Sm881 2.408 . S
O905 C890 1.272 . S
O906 Sm881 2.543 . S
O906 C891 1.261 . S
O907 Sm881 2.450 . S
O907 C891 1.242 . S
O908 Sm880 2.386 . S
O908 Sm881 2.681 . S
O908 C898 1.271 . S
O909 Sm881 2.464 . S
O909 C898 1.251 . S
O910 Sm881 2.396 . S
O910 C899 1.252 . S
O911 Sm880 2.408 . S
O911 C899 1.272 . S
H912 C884 0.930 . S
H913 C885 0.929 . S
H914 C887 0.930 . S
H915 C888 0.929 . S
H916 C893 0.930 . S
H917 C894 0.929 . S
H918 C896 0.930 . S
H919 C897 0.929 . S
Sm920 C922 2.846 . S
Sm920 O940 2.543 . S
Sm920 O941 2.450 . S
Sm920 O942 2.681 . S
Sm920 O943 2.464 . S
Sm920 O944 2.396 . S
Sm920 O948 2.386 . S
Sm920 O951 2.408 . S
Sm921 C931 2.846 . S
Sm921 O942 2.386 . S
Sm921 O945 2.408 . S
Sm921 O946 2.543 . S
Sm921 O947 2.450 . S
Sm921 O948 2.681 . S
Sm921 O949 2.464 . S
Sm921 O950 2.396 . S
C922 Sm920 2.846 . S
C922 C923 1.506 . S
C922 O940 1.261 . S
C922 O941 1.242 . S
C923 C922 1.506 . S
C923 C924 1.358 . S
C923 C928 1.382 . S
C924 C923 1.358 . S
C924 C925 1.385 . S
C924 H952 0.930 . S
C925 C924 1.385 . S
C925 C926 1.395 . S
C925 H953 0.929 . S
C926 C925 1.395 . S
C926 C927 1.335 . S
C927 C926 1.335 . S
C927 C928 1.398 . S
C927 H954 0.930 . S
C928 C923 1.382 . S
C928 C927 1.398 . S
C928 H955 0.929 . S
C929 O942 1.271 . S
C929 O943 1.251 . S
C930 O944 1.252 . S
C930 O945 1.272 . S
C931 Sm921 2.846 . S
C931 C932 1.506 . S
C931 O946 1.261 . S
C931 O947 1.242 . S
C932 C931 1.506 . S
C932 C933 1.358 1_455 S
C932 C937 1.382 1_455 S
C933 C932 1.358 1_655 S
C933 C934 1.385 . S
C933 H956 0.930 1_655 S
C934 C933 1.385 . S
C934 C935 1.395 . S
C934 H957 0.929 . S
C935 C934 1.395 . S
C935 C936 1.335 . S
C936 C935 1.335 . S
C936 C937 1.398 . S
C936 H958 0.930 . S
C937 C932 1.382 1_655 S
C937 C936 1.398 . S
C937 H959 0.929 1_655 S
C938 O948 1.271 . S
C938 O949 1.251 . S
C939 O950 1.252 . S
C939 O951 1.272 . S
O940 Sm920 2.543 . S
O940 C922 1.261 . S
O941 Sm920 2.450 . S
O941 C922 1.242 . S
O942 Sm920 2.681 . S
O942 Sm921 2.386 . S
O942 C929 1.271 . S
O943 Sm920 2.464 . S
O943 C929 1.251 . S
O944 Sm920 2.396 . S
O944 C930 1.252 . S
O945 Sm921 2.408 . S
O945 C930 1.272 . S
O946 Sm921 2.543 . S
O946 C931 1.261 . S
O947 Sm921 2.450 . S
O947 C931 1.242 . S
O948 Sm920 2.386 . S
O948 Sm921 2.681 . S
O948 C938 1.271 . S
O949 Sm921 2.464 . S
O949 C938 1.251 . S
O950 Sm921 2.396 . S
O950 C939 1.252 . S
O951 Sm920 2.408 . S
O951 C939 1.272 . S
H952 C924 0.930 . S
H953 C925 0.929 . S
H954 C927 0.930 . S
H955 C928 0.929 . S
H956 C933 0.930 1_455 S
H957 C934 0.929 . S
H958 C936 0.930 . S
H959 C937 0.929 1_455 S
Sm960 C962 2.846 . S
Sm960 O980 2.543 1_545 S
Sm960 O981 2.450 . S
Sm960 O982 2.681 1_545 S
Sm960 O983 2.464 . S
Sm960 O984 2.396 1_545 S
Sm960 O988 2.386 1_545 S
Sm960 O991 2.408 . S
Sm961 C971 2.846 . S
Sm961 O982 2.386 . S
Sm961 O985 2.408 . S
Sm961 O986 2.543 . S
Sm961 O987 2.450 . S
Sm961 O988 2.681 . S
Sm961 O989 2.464 . S
Sm961 O990 2.396 1_565 S
C962 Sm960 2.846 . S
C962 C963 1.506 1_545 S
C962 O980 1.261 1_545 S
C962 O981 1.242 . S
C963 C962 1.506 1_565 S
C963 C964 1.358 . S
C963 C968 1.385 . S
C964 C963 1.358 . S
C964 C965 1.385 . S
C964 H992 0.930 . S
C965 C964 1.385 . S
C965 C966 1.395 . S
C965 H993 0.929 . S
C966 C965 1.395 . S
C966 C967 1.335 . S
C967 C966 1.335 . S
C967 C968 1.402 . S
C967 H994 0.930 . S
C968 C963 1.385 . S
C968 C967 1.402 . S
C968 H995 0.923 1_565 S
C969 O982 1.271 . S
C969 O983 1.251 1_565 S
C970 O984 1.252 . S
C970 O985 1.272 . S
C971 Sm961 2.846 . S
C971 C972 1.506 . S
C971 O986 1.261 . S
C971 O987 1.242 . S
C972 C971 1.506 . S
C972 C973 1.358 1_565 S
C972 C977 1.382 . S
C973 C972 1.358 1_545 S
C973 C974 1.385 . S
C973 H996 0.930 . S
C974 C973 1.385 . S
C974 C975 1.395 . S
C974 H997 0.929 . S
C975 C974 1.395 . S
C975 C976 1.335 1_545 S
C976 C975 1.335 1_565 S
C976 C977 1.398 . S
C976 H998 0.930 . S
C977 C972 1.382 . S
C977 C976 1.398 . S
C977 H999 0.929 . S
C978 O988 1.271 . S
C978 O989 1.251 . S
C979 O990 1.252 . S
C979 O991 1.272 . S
O980 Sm960 2.543 1_565 S
O980 C962 1.261 1_565 S
O981 Sm960 2.450 . S
O981 C962 1.242 . S
O982 Sm960 2.681 1_565 S
O982 Sm961 2.386 . S
O982 C969 1.271 . S
O983 Sm960 2.464 . S
O983 C969 1.251 1_545 S
O984 Sm960 2.396 1_565 S
O984 C970 1.252 . S
O985 Sm961 2.408 . S
O985 C970 1.272 . S
O986 Sm961 2.543 . S
O986 C971 1.261 . S
O987 Sm961 2.450 . S
O987 C971 1.242 . S
O988 Sm960 2.386 1_565 S
O988 Sm961 2.681 . S
O988 C978 1.271 . S
O989 Sm961 2.464 . S
O989 C978 1.251 . S
O990 Sm961 2.396 1_545 S
O990 C979 1.252 . S
O991 Sm960 2.408 . S
O991 C979 1.272 . S
H992 C964 0.930 . S
H993 C965 0.929 . S
H994 C967 0.930 . S
H995 C968 0.923 1_545 S
H996 C973 0.930 . S
H997 C974 0.929 . S
H998 C976 0.930 . S
H999 C977 0.929 . S
Sm1000 C1002 2.846 . S
Sm1000 O1020 2.543 . S
Sm1000 O1021 2.450 . S
Sm1000 O1022 2.681 . S
Sm1000 O1023 2.464 . S
Sm1000 O1024 2.396 . S
Sm1000 O1028 2.386 . S
Sm1000 O1031 2.408 . S
Sm1001 C1011 2.846 . S
Sm1001 O1022 2.386 . S
Sm1001 O1025 2.408 . S
Sm1001 O1026 2.543 . S
Sm1001 O1027 2.450 . S
Sm1001 O1028 2.681 . S
Sm1001 O1029 2.464 . S
Sm1001 O1030 2.396 . S
C1002 Sm1000 2.846 . S
C1002 C1003 1.506 . S
C1002 O1020 1.261 . S
C1002 O1021 1.242 . S
C1003 C1002 1.506 . S
C1003 C1004 1.358 1_655 S
C1003 C1008 1.382 1_655 S
C1004 C1003 1.358 1_455 S
C1004 C1005 1.385 . S
C1004 H1032 0.930 1_455 S
C1005 C1004 1.385 . S
C1005 C1006 1.395 . S
C1005 H1033 0.929 . S
C1006 C1005 1.395 . S
C1006 C1007 1.335 . S
C1007 C1006 1.335 . S
C1007 C1008 1.398 . S
C1007 H1034 0.930 . S
C1008 C1003 1.382 1_455 S
C1008 C1007 1.398 . S
C1008 H1035 0.929 1_455 S
C1009 O1022 1.271 . S
C1009 O1023 1.251 . S
C1010 O1024 1.252 . S
C1010 O1025 1.272 . S
C1011 Sm1001 2.846 . S
C1011 C1012 1.506 . S
C1011 O1026 1.261 . S
C1011 O1027 1.242 . S
C1012 C1011 1.506 . S
C1012 C1013 1.358 . S
C1012 C1017 1.382 . S
C1013 C1012 1.358 . S
C1013 C1014 1.385 . S
C1013 H1036 0.930 . S
C1014 C1013 1.385 . S
C1014 C1015 1.395 . S
C1014 H1037 0.929 . S
C1015 C1014 1.395 . S
C1015 C1016 1.335 . S
C1016 C1015 1.335 . S
C1016 C1017 1.398 . S
C1016 H1038 0.930 . S
C1017 C1012 1.382 . S
C1017 C1016 1.398 . S
C1017 H1039 0.929 . S
C1018 O1028 1.271 . S
C1018 O1029 1.251 . S
C1019 O1030 1.252 . S
C1019 O1031 1.272 . S
O1020 Sm1000 2.543 . S
O1020 C1002 1.261 . S
O1021 Sm1000 2.450 . S
O1021 C1002 1.242 . S
O1022 Sm1000 2.681 . S
O1022 Sm1001 2.386 . S
O1022 C1009 1.271 . S
O1023 Sm1000 2.464 . S
O1023 C1009 1.251 . S
O1024 Sm1000 2.396 . S
O1024 C1010 1.252 . S
O1025 Sm1001 2.408 . S
O1025 C1010 1.272 . S
O1026 Sm1001 2.543 . S
O1026 C1011 1.261 . S
O1027 Sm1001 2.450 . S
O1027 C1011 1.242 . S
O1028 Sm1000 2.386 . S
O1028 Sm1001 2.681 . S
O1028 C1018 1.271 . S
O1029 Sm1001 2.464 . S
O1029 C1018 1.251 . S
O1030 Sm1001 2.396 . S
O1030 C1019 1.252 . S
O1031 Sm1000 2.408 . S
O1031 C1019 1.272 . S
H1032 C1004 0.930 1_655 S
H1033 C1005 0.929 . S
H1034 C1007 0.930 . S
H1035 C1008 0.929 1_655 S
H1036 C1013 0.930 . S
H1037 C1014 0.929 . S
H1038 C1016 0.930 . S
H1039 C1017 0.929 . S
Sm1040 C1042 2.846 . S
Sm1040 O1060 2.543 . S
Sm1040 O1061 2.450 . S
Sm1040 O1062 2.681 . S
Sm1040 O1063 2.464 . S
Sm1040 O1064 2.396 . S
Sm1040 O1068 2.386 . S
Sm1040 O1071 2.408 . S
Sm1041 C1051 2.846 . S
Sm1041 O1062 2.386 . S
Sm1041 O1065 2.408 . S
Sm1041 O1066 2.543 . S
Sm1041 O1067 2.450 . S
Sm1041 O1068 2.681 . S
Sm1041 O1069 2.464 . S
Sm1041 O1070 2.396 . S
C1042 Sm1040 2.846 . S
C1042 C1043 1.506 . S
C1042 O1060 1.261 . S
C1042 O1061 1.242 . S
C1043 C1042 1.506 . S
C1043 C1044 1.358 . S
C1043 C1048 1.382 . S
C1044 C1043 1.358 . S
C1044 C1045 1.385 . S
C1044 H1072 0.930 . S
C1045 C1044 1.385 . S
C1045 C1046 1.395 . S
C1045 H1073 0.929 . S
C1046 C1045 1.395 . S
C1046 C1047 1.335 . S
C1047 C1046 1.335 . S
C1047 C1048 1.398 . S
C1047 H1074 0.930 . S
C1048 C1043 1.382 . S
C1048 C1047 1.398 . S
C1048 H1075 0.929 . S
C1049 O1062 1.271 . S
C1049 O1063 1.251 . S
C1050 O1064 1.252 . S
C1050 O1065 1.272 . S
C1051 Sm1041 2.846 . S
C1051 C1052 1.506 . S
C1051 O1066 1.261 . S
C1051 O1067 1.242 . S
C1052 C1051 1.506 . S
C1052 C1053 1.358 . S
C1052 C1057 1.382 . S
C1053 C1052 1.358 . S
C1053 C1054 1.385 . S
C1053 H1076 0.930 . S
C1054 C1053 1.385 . S
C1054 C1055 1.395 . S
C1054 H1077 0.929 . S
C1055 C1054 1.395 . S
C1055 C1056 1.335 . S
C1056 C1055 1.335 . S
C1056 C1057 1.398 . S
C1056 H1078 0.930 . S
C1057 C1052 1.382 . S
C1057 C1056 1.398 . S
C1057 H1079 0.929 . S
C1058 O1068 1.271 . S
C1058 O1069 1.251 . S
C1059 O1070 1.252 . S
C1059 O1071 1.272 . S
O1060 Sm1040 2.543 . S
O1060 C1042 1.261 . S
O1061 Sm1040 2.450 . S
O1061 C1042 1.242 . S
O1062 Sm1040 2.681 . S
O1062 Sm1041 2.386 . S
O1062 C1049 1.271 . S
O1063 Sm1040 2.464 . S
O1063 C1049 1.251 . S
O1064 Sm1040 2.396 . S
O1064 C1050 1.252 . S
O1065 Sm1041 2.408 . S
O1065 C1050 1.272 . S
O1066 Sm1041 2.543 . S
O1066 C1051 1.261 . S
O1067 Sm1041 2.450 . S
O1067 C1051 1.242 . S
O1068 Sm1040 2.386 . S
O1068 Sm1041 2.681 . S
O1068 C1058 1.271 . S
O1069 Sm1041 2.464 . S
O1069 C1058 1.251 . S
O1070 Sm1041 2.396 . S
O1070 C1059 1.252 . S
O1071 Sm1040 2.408 . S
O1071 C1059 1.272 . S
H1072 C1044 0.930 . S
H1073 C1045 0.929 . S
H1074 C1047 0.930 . S
H1075 C1048 0.929 . S
H1076 C1053 0.930 . S
H1077 C1054 0.929 . S
H1078 C1056 0.930 . S
H1079 C1057 0.929 . S
Sm1080 C1082 2.846 . S
Sm1080 O1100 2.543 1_545 S
Sm1080 O1101 2.450 . S
Sm1080 O1102 2.681 1_545 S
Sm1080 O1103 2.464 . S
Sm1080 O1104 2.396 1_545 S
Sm1080 O1108 2.386 1_545 S
Sm1080 O1111 2.408 . S
Sm1081 C1091 2.846 . S
Sm1081 O1102 2.386 . S
Sm1081 O1105 2.408 . S
Sm1081 O1106 2.543 . S
Sm1081 O1107 2.450 . S
Sm1081 O1108 2.681 . S
Sm1081 O1109 2.464 . S
Sm1081 O1110 2.396 1_565 S
C1082 Sm1080 2.846 . S
C1082 C1083 1.506 1_545 S
C1082 O1100 1.261 1_545 S
C1082 O1101 1.242 . S
C1083 C1082 1.506 1_565 S
C1083 C1084 1.358 1_655 S
C1083 C1088 1.385 1_655 S
C1084 C1083 1.358 1_455 S
C1084 C1085 1.385 . S
C1084 H1112 0.930 1_455 S
C1085 C1084 1.385 . S
C1085 C1086 1.395 . S
C1085 H1113 0.929 . S
C1086 C1085 1.395 . S
C1086 C1087 1.335 . S
C1087 C1086 1.335 . S
C1087 C1088 1.402 . S
C1087 H1114 0.930 . S
C1088 C1083 1.385 1_455 S
C1088 C1087 1.402 . S
C1088 H1115 0.923 1_465 S
C1089 O1102 1.271 . S
C1089 O1103 1.251 1_565 S
C1090 O1104 1.252 . S
C1090 O1105 1.272 . S
C1091 Sm1081 2.846 . S
C1091 C1092 1.506 . S
C1091 O1106 1.261 . S
C1091 O1107 1.242 . S
C1092 C1091 1.506 . S
C1092 C1093 1.358 1_565 S
C1092 C1097 1.382 . S
C1093 C1092 1.358 1_545 S
C1093 C1094 1.385 . S
C1093 H1116 0.930 . S
C1094 C1093 1.385 . S
C1094 C1095 1.395 . S
C1094 H1117 0.929 . S
C1095 C1094 1.395 . S
C1095 C1096 1.335 1_545 S
C1096 C1095 1.335 1_565 S
C1096 C1097 1.398 . S
C1096 H1118 0.930 . S
C1097 C1092 1.382 . S
C1097 C1096 1.398 . S
C1097 H1119 0.929 . S
C1098 O1108 1.271 . S
C1098 O1109 1.251 . S
C1099 O1110 1.252 . S
C1099 O1111 1.272 . S
O1100 Sm1080 2.543 1_565 S
O1100 C1082 1.261 1_565 S
O1101 Sm1080 2.450 . S
O1101 C1082 1.242 . S
O1102 Sm1080 2.681 1_565 S
O1102 Sm1081 2.386 . S
O1102 C1089 1.271 . S
O1103 Sm1080 2.464 . S
O1103 C1089 1.251 1_545 S
O1104 Sm1080 2.396 1_565 S
O1104 C1090 1.252 . S
O1105 Sm1081 2.408 . S
O1105 C1090 1.272 . S
O1106 Sm1081 2.543 . S
O1106 C1091 1.261 . S
O1107 Sm1081 2.450 . S
O1107 C1091 1.242 . S
O1108 Sm1080 2.386 1_565 S
O1108 Sm1081 2.681 . S
O1108 C1098 1.271 . S
O1109 Sm1081 2.464 . S
O1109 C1098 1.251 . S
O1110 Sm1081 2.396 1_545 S
O1110 C1099 1.252 . S
O1111 Sm1080 2.408 . S
O1111 C1099 1.272 . S
H1112 C1084 0.930 1_655 S
H1113 C1085 0.929 . S
H1114 C1087 0.930 . S
H1115 C1088 0.923 1_645 S
H1116 C1093 0.930 . S
H1117 C1094 0.929 . S
H1118 C1096 0.930 . S
H1119 C1097 0.929 . S
Sm1120 C1122 2.846 . S
Sm1120 O1140 2.543 . S
Sm1120 O1141 2.450 . S
Sm1120 O1142 2.681 . S
Sm1120 O1143 2.464 . S
Sm1120 O1144 2.396 1_545 S
Sm1120 O1148 2.386 . S
Sm1120 O1151 2.408 . S
Sm1121 C1131 2.846 . S
Sm1121 O1142 2.386 1_565 S
Sm1121 O1145 2.408 . S
Sm1121 O1146 2.543 1_565 S
Sm1121 O1147 2.450 . S
Sm1121 O1148 2.681 1_565 S
Sm1121 O1149 2.464 . S
Sm1121 O1150 2.396 1_565 S
C1122 Sm1120 2.846 . S
C1122 C1123 1.506 . S
C1122 O1140 1.261 . S
C1122 O1141 1.242 . S
C1123 C1122 1.506 . S
C1123 C1124 1.358 1_545 S
C1123 C1128 1.382 . S
C1124 C1123 1.358 1_565 S
C1124 C1125 1.385 . S
C1124 H1152 0.930 . S
C1125 C1124 1.385 . S
C1125 C1126 1.395 . S
C1125 H1153 0.929 . S
C1126 C1125 1.395 . S
C1126 C1127 1.335 1_565 S
C1127 C1126 1.335 1_545 S
C1127 C1128 1.398 . S
C1127 H1154 0.930 . S
C1128 C1123 1.382 . S
C1128 C1127 1.398 . S
C1128 H1155 0.929 . S
C1129 O1142 1.271 . S
C1129 O1143 1.251 . S
C1130 O1144 1.252 . S
C1130 O1145 1.272 . S
C1131 Sm1121 2.846 . S
C1131 C1132 1.506 1_565 S
C1131 O1146 1.261 1_565 S
C1131 O1147 1.242 . S
C1132 C1131 1.506 1_545 S
C1132 C1133 1.358 . S
C1132 C1137 1.385 . S
C1133 C1132 1.358 . S
C1133 C1134 1.385 . S
C1133 H1156 0.930 . S
C1134 C1133 1.385 . S
C1134 C1135 1.395 . S
C1134 H1157 0.929 . S
C1135 C1134 1.395 . S
C1135 C1136 1.335 . S
C1136 C1135 1.335 . S
C1136 C1137 1.402 . S
C1136 H1158 0.930 . S
C1137 C1132 1.385 . S
C1137 C1136 1.402 . S
C1137 H1159 0.923 1_545 S
C1138 O1148 1.271 . S
C1138 O1149 1.251 1_545 S
C1139 O1150 1.252 . S
C1139 O1151 1.272 . S
O1140 Sm1120 2.543 . S
O1140 C1122 1.261 . S
O1141 Sm1120 2.450 . S
O1141 C1122 1.242 . S
O1142 Sm1120 2.681 . S
O1142 Sm1121 2.386 1_545 S
O1142 C1129 1.271 . S
O1143 Sm1120 2.464 . S
O1143 C1129 1.251 . S
O1144 Sm1120 2.396 1_565 S
O1144 C1130 1.252 . S
O1145 Sm1121 2.408 . S
O1145 C1130 1.272 . S
O1146 Sm1121 2.543 1_545 S
O1146 C1131 1.261 1_545 S
O1147 Sm1121 2.450 . S
O1147 C1131 1.242 . S
O1148 Sm1120 2.386 . S
O1148 Sm1121 2.681 1_545 S
O1148 C1138 1.271 . S
O1149 Sm1121 2.464 . S
O1149 C1138 1.251 1_565 S
O1150 Sm1121 2.396 1_545 S
O1150 C1139 1.252 . S
O1151 Sm1120 2.408 . S
O1151 C1139 1.272 . S
H1152 C1124 0.930 . S
H1153 C1125 0.929 . S
H1154 C1127 0.930 . S
H1155 C1128 0.929 . S
H1156 C1133 0.930 . S
H1157 C1134 0.929 . S
H1158 C1136 0.930 . S
H1159 C1137 0.923 1_565 S
Sm1160 C1162 2.846 . S
Sm1160 O1180 2.543 . S
Sm1160 O1181 2.450 . S
Sm1160 O1182 2.681 . S
Sm1160 O1183 2.464 . S
Sm1160 O1184 2.396 . S
Sm1160 O1188 2.386 . S
Sm1160 O1191 2.408 . S
Sm1161 C1171 2.846 . S
Sm1161 O1182 2.386 . S
Sm1161 O1185 2.408 . S
Sm1161 O1186 2.543 . S
Sm1161 O1187 2.450 . S
Sm1161 O1188 2.681 . S
Sm1161 O1189 2.464 . S
Sm1161 O1190 2.396 . S
C1162 Sm1160 2.846 . S
C1162 C1163 1.506 . S
C1162 O1180 1.261 . S
C1162 O1181 1.242 . S
C1163 C1162 1.506 . S
C1163 C1164 1.358 . S
C1163 C1168 1.382 . S
C1164 C1163 1.358 . S
C1164 C1165 1.385 . S
C1164 H1192 0.930 . S
C1165 C1164 1.385 . S
C1165 C1166 1.395 . S
C1165 H1193 0.929 . S
C1166 C1165 1.395 . S
C1166 C1167 1.335 . S
C1167 C1166 1.335 . S
C1167 C1168 1.398 . S
C1167 H1194 0.930 . S
C1168 C1163 1.382 . S
C1168 C1167 1.398 . S
C1168 H1195 0.929 . S
C1169 O1182 1.271 . S
C1169 O1183 1.251 . S
C1170 O1184 1.252 . S
C1170 O1185 1.272 . S
C1171 Sm1161 2.846 . S
C1171 C1172 1.506 . S
C1171 O1186 1.261 . S
C1171 O1187 1.242 . S
C1172 C1171 1.506 . S
C1172 C1173 1.358 1_455 S
C1172 C1177 1.382 1_455 S
C1173 C1172 1.358 1_655 S
C1173 C1174 1.385 . S
C1173 H1196 0.930 1_655 S
C1174 C1173 1.385 . S
C1174 C1175 1.395 . S
C1174 H1197 0.929 . S
C1175 C1174 1.395 . S
C1175 C1176 1.335 . S
C1176 C1175 1.335 . S
C1176 C1177 1.398 . S
C1176 H1198 0.930 . S
C1177 C1172 1.382 1_655 S
C1177 C1176 1.398 . S
C1177 H1199 0.929 1_655 S
C1178 O1188 1.271 . S
C1178 O1189 1.251 . S
C1179 O1190 1.252 . S
C1179 O1191 1.272 . S
O1180 Sm1160 2.543 . S
O1180 C1162 1.261 . S
O1181 Sm1160 2.450 . S
O1181 C1162 1.242 . S
O1182 Sm1160 2.681 . S
O1182 Sm1161 2.386 . S
O1182 C1169 1.271 . S
O1183 Sm1160 2.464 . S
O1183 C1169 1.251 . S
O1184 Sm1160 2.396 . S
O1184 C1170 1.252 . S
O1185 Sm1161 2.408 . S
O1185 C1170 1.272 . S
O1186 Sm1161 2.543 . S
O1186 C1171 1.261 . S
O1187 Sm1161 2.450 . S
O1187 C1171 1.242 . S
O1188 Sm1160 2.386 . S
O1188 Sm1161 2.681 . S
O1188 C1178 1.271 . S
O1189 Sm1161 2.464 . S
O1189 C1178 1.251 . S
O1190 Sm1161 2.396 . S
O1190 C1179 1.252 . S
O1191 Sm1160 2.408 . S
O1191 C1179 1.272 . S
H1192 C1164 0.930 . S
H1193 C1165 0.929 . S
H1194 C1167 0.930 . S
H1195 C1168 0.929 . S
H1196 C1173 0.930 1_455 S
H1197 C1174 0.929 . S
H1198 C1176 0.930 . S
H1199 C1177 0.929 1_455 S
Sm1200 C1202 2.846 . S
Sm1200 O1220 2.543 . S
Sm1200 O1221 2.450 . S
Sm1200 O1222 2.681 . S
Sm1200 O1223 2.464 . S
Sm1200 O1224 2.396 . S
Sm1200 O1228 2.386 . S
Sm1200 O1231 2.408 . S
Sm1201 C1211 2.846 . S
Sm1201 O1222 2.386 . S
Sm1201 O1225 2.408 . S
Sm1201 O1226 2.543 . S
Sm1201 O1227 2.450 . S
Sm1201 O1228 2.681 . S
Sm1201 O1229 2.464 . S
Sm1201 O1230 2.396 . S
C1202 Sm1200 2.846 . S
C1202 C1203 1.506 . S
C1202 O1220 1.261 . S
C1202 O1221 1.242 . S
C1203 C1202 1.506 . S
C1203 C1204 1.358 . S
C1203 C1208 1.382 . S
C1204 C1203 1.358 . S
C1204 C1205 1.385 . S
C1204 H1232 0.930 . S
C1205 C1204 1.385 . S
C1205 C1206 1.395 . S
C1205 H1233 0.929 . S
C1206 C1205 1.395 . S
C1206 C1207 1.335 . S
C1207 C1206 1.335 . S
C1207 C1208 1.398 . S
C1207 H1234 0.930 . S
C1208 C1203 1.382 . S
C1208 C1207 1.398 . S
C1208 H1235 0.929 . S
C1209 O1222 1.271 . S
C1209 O1223 1.251 . S
C1210 O1224 1.252 . S
C1210 O1225 1.272 . S
C1211 Sm1201 2.846 . S
C1211 C1212 1.506 . S
C1211 O1226 1.261 . S
C1211 O1227 1.242 . S
C1212 C1211 1.506 . S
C1212 C1213 1.358 . S
C1212 C1217 1.382 . S
C1213 C1212 1.358 . S
C1213 C1214 1.385 . S
C1213 H1236 0.930 . S
C1214 C1213 1.385 . S
C1214 C1215 1.395 . S
C1214 H1237 0.929 . S
C1215 C1214 1.395 . S
C1215 C1216 1.335 . S
C1216 C1215 1.335 . S
C1216 C1217 1.398 . S
C1216 H1238 0.930 . S
C1217 C1212 1.382 . S
C1217 C1216 1.398 . S
C1217 H1239 0.929 . S
C1218 O1228 1.271 . S
C1218 O1229 1.251 . S
C1219 O1230 1.252 . S
C1219 O1231 1.272 . S
O1220 Sm1200 2.543 . S
O1220 C1202 1.261 . S
O1221 Sm1200 2.450 . S
O1221 C1202 1.242 . S
O1222 Sm1200 2.681 . S
O1222 Sm1201 2.386 . S
O1222 C1209 1.271 . S
O1223 Sm1200 2.464 . S
O1223 C1209 1.251 . S
O1224 Sm1200 2.396 . S
O1224 C1210 1.252 . S
O1225 Sm1201 2.408 . S
O1225 C1210 1.272 . S
O1226 Sm1201 2.543 . S
O1226 C1211 1.261 . S
O1227 Sm1201 2.450 . S
O1227 C1211 1.242 . S
O1228 Sm1200 2.386 . S
O1228 Sm1201 2.681 . S
O1228 C1218 1.271 . S
O1229 Sm1201 2.464 . S
O1229 C1218 1.251 . S
O1230 Sm1201 2.396 . S
O1230 C1219 1.252 . S
O1231 Sm1200 2.408 . S
O1231 C1219 1.272 . S
H1232 C1204 0.930 . S
H1233 C1205 0.929 . S
H1234 C1207 0.930 . S
H1235 C1208 0.929 . S
H1236 C1213 0.930 . S
H1237 C1214 0.929 . S
H1238 C1216 0.930 . S
H1239 C1217 0.929 . S
Sm1240 C1242 2.846 . S
Sm1240 O1260 2.543 . S
Sm1240 O1261 2.450 . S
Sm1240 O1262 2.681 . S
Sm1240 O1263 2.464 . S
Sm1240 O1264 2.396 1_545 S
Sm1240 O1268 2.386 . S
Sm1240 O1271 2.408 . S
Sm1241 C1251 2.846 . S
Sm1241 O1262 2.386 1_565 S
Sm1241 O1265 2.408 . S
Sm1241 O1266 2.543 1_565 S
Sm1241 O1267 2.450 . S
Sm1241 O1268 2.681 1_565 S
Sm1241 O1269 2.464 . S
Sm1241 O1270 2.396 1_565 S
C1242 Sm1240 2.846 . S
C1242 C1243 1.506 . S
C1242 O1260 1.261 . S
C1242 O1261 1.242 . S
C1243 C1242 1.506 . S
C1243 C1244 1.358 1_545 S
C1243 C1248 1.382 . S
C1244 C1243 1.358 1_565 S
C1244 C1245 1.385 . S
C1244 H1272 0.930 . S
C1245 C1244 1.385 . S
C1245 C1246 1.395 . S
C1245 H1273 0.929 . S
C1246 C1245 1.395 . S
C1246 C1247 1.335 1_565 S
C1247 C1246 1.335 1_545 S
C1247 C1248 1.398 . S
C1247 H1274 0.930 . S
C1248 C1243 1.382 . S
C1248 C1247 1.398 . S
C1248 H1275 0.929 . S
C1249 O1262 1.271 . S
C1249 O1263 1.251 . S
C1250 O1264 1.252 . S
C1250 O1265 1.272 . S
C1251 Sm1241 2.846 . S
C1251 C1252 1.506 1_565 S
C1251 O1266 1.261 1_565 S
C1251 O1267 1.242 . S
C1252 C1251 1.506 1_545 S
C1252 C1253 1.358 1_455 S
C1252 C1257 1.385 1_455 S
C1253 C1252 1.358 1_655 S
C1253 C1254 1.385 . S
C1253 H1276 0.930 1_655 S
C1254 C1253 1.385 . S
C1254 C1255 1.395 . S
C1254 H1277 0.929 . S
C1255 C1254 1.395 . S
C1255 C1256 1.335 . S
C1256 C1255 1.335 . S
C1256 C1257 1.402 . S
C1256 H1278 0.930 . S
C1257 C1252 1.385 1_655 S
C1257 C1256 1.402 . S
C1257 H1279 0.923 1_645 S
C1258 O1268 1.271 . S
C1258 O1269 1.251 1_545 S
C1259 O1270 1.252 . S
C1259 O1271 1.272 . S
O1260 Sm1240 2.543 . S
O1260 C1242 1.261 . S
O1261 Sm1240 2.450 . S
O1261 C1242 1.242 . S
O1262 Sm1240 2.681 . S
O1262 Sm1241 2.386 1_545 S
O1262 C1249 1.271 . S
O1263 Sm1240 2.464 . S
O1263 C1249 1.251 . S
O1264 Sm1240 2.396 1_565 S
O1264 C1250 1.252 . S
O1265 Sm1241 2.408 . S
O1265 C1250 1.272 . S
O1266 Sm1241 2.543 1_545 S
O1266 C1251 1.261 1_545 S
O1267 Sm1241 2.450 . S
O1267 C1251 1.242 . S
O1268 Sm1240 2.386 . S
O1268 Sm1241 2.681 1_545 S
O1268 C1258 1.271 . S
O1269 Sm1241 2.464 . S
O1269 C1258 1.251 1_565 S
O1270 Sm1241 2.396 1_545 S
O1270 C1259 1.252 . S
O1271 Sm1240 2.408 . S
O1271 C1259 1.272 . S
H1272 C1244 0.930 . S
H1273 C1245 0.929 . S
H1274 C1247 0.930 . S
H1275 C1248 0.929 . S
H1276 C1253 0.930 1_455 S
H1277 C1254 0.929 . S
H1278 C1256 0.930 . S
H1279 C1257 0.923 1_465 S
C1280 C1281 1.369 . S
C1280 C1282 1.419 . S
C1280 H1284 0.930 . S
C1281 C1280 1.369 . S
C1281 C1290 1.429 . S
C1282 C1280 1.419 . S
C1282 C1283 1.363 . S
C1282 H1285 0.929 . S
C1283 C1282 1.363 . S
C1283 C1289 1.428 . S
H1284 C1280 0.930 . S
H1285 C1282 0.929 . S
S1286 N1287 1.613 . S
S1286 N1288 1.610 . S
N1287 S1286 1.613 . S
N1287 C1290 1.350 . S
N1288 S1286 1.610 . S
N1288 C1289 1.351 . S
C1289 C1283 1.428 . S
C1289 N1288 1.351 . S
C1289 C1290 1.434 . S
C1290 C1281 1.429 . S
C1290 N1287 1.350 . S
C1290 C1289 1.434 . S
C1291 C1292 1.369 . S
C1291 C1293 1.419 . S
C1291 H1295 0.930 . S
C1292 C1291 1.369 . S
C1292 C1301 1.429 . S
C1293 C1291 1.419 . S
C1293 C1294 1.363 . S
C1293 H1296 0.929 . S
C1294 C1293 1.363 . S
C1294 C1300 1.428 . S
H1295 C1291 0.930 . S
H1296 C1293 0.929 . S
S1297 N1298 1.613 . S
S1297 N1299 1.610 . S
N1298 S1297 1.613 . S
N1298 C1301 1.350 . S
N1299 S1297 1.610 . S
N1299 C1300 1.351 . S
C1300 C1294 1.428 . S
C1300 N1299 1.351 . S
C1300 C1301 1.434 . S
C1301 C1292 1.429 . S
C1301 N1298 1.350 . S
C1301 C1300 1.434 . S
C1302 C1303 1.369 . S
C1302 C1304 1.419 . S
C1302 H1306 0.930 . S
C1303 C1302 1.369 . S
C1303 C1312 1.429 . S
C1304 C1302 1.419 . S
C1304 C1305 1.363 . S
C1304 H1307 0.929 . S
C1305 C1304 1.363 . S
C1305 C1311 1.428 . S
H1306 C1302 0.930 . S
H1307 C1304 0.929 . S
S1308 N1309 1.613 . S
S1308 N1310 1.610 . S
N1309 S1308 1.613 . S
N1309 C1312 1.350 . S
N1310 S1308 1.610 . S
N1310 C1311 1.351 . S
C1311 C1305 1.428 . S
C1311 N1310 1.351 . S
C1311 C1312 1.434 . S
C1312 C1303 1.429 . S
C1312 N1309 1.350 . S
C1312 C1311 1.434 . S
C1313 C1314 1.369 . S
C1313 C1315 1.419 . S
C1313 H1317 0.930 . S
C1314 C1313 1.369 . S
C1314 C1323 1.429 . S
C1315 C1313 1.419 . S
C1315 C1316 1.363 . S
C1315 H1318 0.929 . S
C1316 C1315 1.363 . S
C1316 C1322 1.428 . S
H1317 C1313 0.930 . S
H1318 C1315 0.929 . S
S1319 N1320 1.613 . S
S1319 N1321 1.610 . S
N1320 S1319 1.613 . S
N1320 C1323 1.350 . S
N1321 S1319 1.610 . S
N1321 C1322 1.351 . S
C1322 C1316 1.428 . S
C1322 N1321 1.351 . S
C1322 C1323 1.434 . S
C1323 C1314 1.429 . S
C1323 N1320 1.350 . S
C1323 C1322 1.434 . S
C1324 C1325 1.369 . S
C1324 C1326 1.419 . S
C1324 H1328 0.930 . S
C1325 C1324 1.369 . S
C1325 C1334 1.429 . S
C1326 C1324 1.419 . S
C1326 C1327 1.363 . S
C1326 H1329 0.929 . S
C1327 C1326 1.363 . S
C1327 C1333 1.428 . S
H1328 C1324 0.930 . S
H1329 C1326 0.929 . S
S1330 N1331 1.613 . S
S1330 N1332 1.610 . S
N1331 S1330 1.613 . S
N1331 C1334 1.350 . S
N1332 S1330 1.610 . S
N1332 C1333 1.351 . S
C1333 C1327 1.428 . S
C1333 N1332 1.351 . S
C1333 C1334 1.434 . S
C1334 C1325 1.429 . S
C1334 N1331 1.350 . S
C1334 C1333 1.434 . S
C1335 C1336 1.369 . S
C1335 C1337 1.419 . S
C1335 H1339 0.930 . S
C1336 C1335 1.369 . S
C1336 C1345 1.429 . S
C1337 C1335 1.419 . S
C1337 C1338 1.363 . S
C1337 H1340 0.929 . S
C1338 C1337 1.363 . S
C1338 C1344 1.428 . S
H1339 C1335 0.930 . S
H1340 C1337 0.929 . S
S1341 N1342 1.613 . S
S1341 N1343 1.610 . S
N1342 S1341 1.613 . S
N1342 C1345 1.350 . S
N1343 S1341 1.610 . S
N1343 C1344 1.351 . S
C1344 C1338 1.428 . S
C1344 N1343 1.351 . S
C1344 C1345 1.434 . S
C1345 C1336 1.429 . S
C1345 N1342 1.350 . S
C1345 C1344 1.434 . S
C1346 C1347 1.369 . S
C1346 C1348 1.419 . S
C1346 H1350 0.930 . S
C1347 C1346 1.369 . S
C1347 C1356 1.429 . S
C1348 C1346 1.419 . S
C1348 C1349 1.363 . S
C1348 H1351 0.929 . S
C1349 C1348 1.363 . S
C1349 C1355 1.428 . S
H1350 C1346 0.930 . S
H1351 C1348 0.929 . S
S1352 N1353 1.613 . S
S1352 N1354 1.610 . S
N1353 S1352 1.613 . S
N1353 C1356 1.350 . S
N1354 S1352 1.610 . S
N1354 C1355 1.351 . S
C1355 C1349 1.428 . S
C1355 N1354 1.351 . S
C1355 C1356 1.434 . S
C1356 C1347 1.429 . S
C1356 N1353 1.350 . S
C1356 C1355 1.434 . S
C1357 C1358 1.369 . S
C1357 C1359 1.419 . S
C1357 H1361 0.930 . S
C1358 C1357 1.369 . S
C1358 C1367 1.429 . S
C1359 C1357 1.419 . S
C1359 C1360 1.363 . S
C1359 H1362 0.929 . S
C1360 C1359 1.363 . S
C1360 C1366 1.428 . S
H1361 C1357 0.930 . S
H1362 C1359 0.929 . S
S1363 N1364 1.613 . S
S1363 N1365 1.610 . S
N1364 S1363 1.613 . S
N1364 C1367 1.350 . S
N1365 S1363 1.610 . S
N1365 C1366 1.351 . S
C1366 C1360 1.428 . S
C1366 N1365 1.351 . S
C1366 C1367 1.434 . S
C1367 C1358 1.429 . S
C1367 N1364 1.350 . S
C1367 C1366 1.434 . S
C1368 C1369 1.369 . S
C1368 C1370 1.419 . S
C1368 H1372 0.930 . S
C1369 C1368 1.369 . S
C1369 C1378 1.429 . S
C1370 C1368 1.419 . S
C1370 C1371 1.363 . S
C1370 H1373 0.929 . S
C1371 C1370 1.363 . S
C1371 C1377 1.428 . S
H1372 C1368 0.930 . S
H1373 C1370 0.929 . S
S1374 N1375 1.613 . S
S1374 N1376 1.610 . S
N1375 S1374 1.613 . S
N1375 C1378 1.350 . S
N1376 S1374 1.610 . S
N1376 C1377 1.351 . S
C1377 C1371 1.428 . S
C1377 N1376 1.351 . S
C1377 C1378 1.434 . S
C1378 C1369 1.429 . S
C1378 N1375 1.350 . S
C1378 C1377 1.434 . S
C1379 C1380 1.369 . S
C1379 C1381 1.419 . S
C1379 H1383 0.930 . S
C1380 C1379 1.369 . S
C1380 C1389 1.429 . S
C1381 C1379 1.419 . S
C1381 C1382 1.363 . S
C1381 H1384 0.929 . S
C1382 C1381 1.363 . S
C1382 C1388 1.428 . S
H1383 C1379 0.930 . S
H1384 C1381 0.929 . S
S1385 N1386 1.613 . S
S1385 N1387 1.610 . S
N1386 S1385 1.613 . S
N1386 C1389 1.350 . S
N1387 S1385 1.610 . S
N1387 C1388 1.351 . S
C1388 C1382 1.428 . S
C1388 N1387 1.351 . S
C1388 C1389 1.434 . S
C1389 C1380 1.429 . S
C1389 N1386 1.350 . S
C1389 C1388 1.434 . S
C1390 C1391 1.369 . S
C1390 C1392 1.419 . S
C1390 H1394 0.930 . S
C1391 C1390 1.369 . S
C1391 C1400 1.429 . S
C1392 C1390 1.419 . S
C1392 C1393 1.363 . S
C1392 H1395 0.929 . S
C1393 C1392 1.363 . S
C1393 C1399 1.428 . S
H1394 C1390 0.930 . S
H1395 C1392 0.929 . S
S1396 N1397 1.613 . S
S1396 N1398 1.610 . S
N1397 S1396 1.613 . S
N1397 C1400 1.350 . S
N1398 S1396 1.610 . S
N1398 C1399 1.351 . S
C1399 C1393 1.428 . S
C1399 N1398 1.351 . S
C1399 C1400 1.434 . S
C1400 C1391 1.429 . S
C1400 N1397 1.350 . S
C1400 C1399 1.434 . S
C1401 C1402 1.369 . S
C1401 C1403 1.419 . S
C1401 H1405 0.930 . S
C1402 C1401 1.369 . S
C1402 C1411 1.429 . S
C1403 C1401 1.419 . S
C1403 C1404 1.363 . S
C1403 H1406 0.929 . S
C1404 C1403 1.363 . S
C1404 C1410 1.428 . S
H1405 C1401 0.930 . S
H1406 C1403 0.929 . S
S1407 N1408 1.613 . S
S1407 N1409 1.610 . S
N1408 S1407 1.613 . S
N1408 C1411 1.350 . S
N1409 S1407 1.610 . S
N1409 C1410 1.351 . S
C1410 C1404 1.428 . S
C1410 N1409 1.351 . S
C1410 C1411 1.434 . S
C1411 C1402 1.429 . S
C1411 N1408 1.350 . S
C1411 C1410 1.434 . S
C1412 C1413 1.369 . S
C1412 C1414 1.419 . S
C1412 H1416 0.930 . S
C1413 C1412 1.369 . S
C1413 C1422 1.429 . S
C1414 C1412 1.419 . S
C1414 C1415 1.363 . S
C1414 H1417 0.929 . S
C1415 C1414 1.363 . S
C1415 C1421 1.428 . S
H1416 C1412 0.930 . S
H1417 C1414 0.929 . S
S1418 N1419 1.613 . S
S1418 N1420 1.610 . S
N1419 S1418 1.613 . S
N1419 C1422 1.350 . S
N1420 S1418 1.610 . S
N1420 C1421 1.351 . S
C1421 C1415 1.428 . S
C1421 N1420 1.351 . S
C1421 C1422 1.434 . S
C1422 C1413 1.429 . S
C1422 N1419 1.350 . S
C1422 C1421 1.434 . S
C1423 C1424 1.369 . S
C1423 C1425 1.419 . S
C1423 H1427 0.930 . S
C1424 C1423 1.369 . S
C1424 C1433 1.429 . S
C1425 C1423 1.419 . S
C1425 C1426 1.363 . S
C1425 H1428 0.929 . S
C1426 C1425 1.363 . S
C1426 C1432 1.428 . S
H1427 C1423 0.930 . S
H1428 C1425 0.929 . S
S1429 N1430 1.613 . S
S1429 N1431 1.610 . S
N1430 S1429 1.613 . S
N1430 C1433 1.350 . S
N1431 S1429 1.610 . S
N1431 C1432 1.351 . S
C1432 C1426 1.428 . S
C1432 N1431 1.351 . S
C1432 C1433 1.434 . S
C1433 C1424 1.429 . S
C1433 N1430 1.350 . S
C1433 C1432 1.434 . S
C1434 C1435 1.369 . S
C1434 C1436 1.419 . S
C1434 H1438 0.930 . S
C1435 C1434 1.369 . S
C1435 C1444 1.429 . S
C1436 C1434 1.419 . S
C1436 C1437 1.363 . S
C1436 H1439 0.929 . S
C1437 C1436 1.363 . S
C1437 C1443 1.428 . S
H1438 C1434 0.930 . S
H1439 C1436 0.929 . S
S1440 N1441 1.613 . S
S1440 N1442 1.610 . S
N1441 S1440 1.613 . S
N1441 C1444 1.350 . S
N1442 S1440 1.610 . S
N1442 C1443 1.351 . S
C1443 C1437 1.428 . S
C1443 N1442 1.351 . S
C1443 C1444 1.434 . S
C1444 C1435 1.429 . S
C1444 N1441 1.350 . S
C1444 C1443 1.434 . S
C1445 C1446 1.369 . S
C1445 C1447 1.419 . S
C1445 H1449 0.930 . S
C1446 C1445 1.369 . S
C1446 C1455 1.429 . S
C1447 C1445 1.419 . S
C1447 C1448 1.363 . S
C1447 H1450 0.929 . S
C1448 C1447 1.363 . S
C1448 C1454 1.428 . S
H1449 C1445 0.930 . S
H1450 C1447 0.929 . S
S1451 N1452 1.613 . S
S1451 N1453 1.610 . S
N1452 S1451 1.613 . S
N1452 C1455 1.350 . S
N1453 S1451 1.610 . S
N1453 C1454 1.351 . S
C1454 C1448 1.428 . S
C1454 N1453 1.351 . S
C1454 C1455 1.434 . S
C1455 C1446 1.429 . S
C1455 N1452 1.350 . S
C1455 C1454 1.434 . S
C1456 C1457 1.369 . S
C1456 C1458 1.419 . S
C1456 H1460 0.930 . S
C1457 C1456 1.369 . S
C1457 C1466 1.429 . S
C1458 C1456 1.419 . S
C1458 C1459 1.363 . S
C1458 H1461 0.929 . S
C1459 C1458 1.363 . S
C1459 C1465 1.428 . S
H1460 C1456 0.930 . S
H1461 C1458 0.929 . S
S1462 N1463 1.613 . S
S1462 N1464 1.610 . S
N1463 S1462 1.613 . S
N1463 C1466 1.350 . S
N1464 S1462 1.610 . S
N1464 C1465 1.351 . S
C1465 C1459 1.428 . S
C1465 N1464 1.351 . S
C1465 C1466 1.434 . S
C1466 C1457 1.429 . S
C1466 N1463 1.350 . S
C1466 C1465 1.434 . S
C1467 C1468 1.369 . S
C1467 C1469 1.419 . S
C1467 H1471 0.930 . S
C1468 C1467 1.369 . S
C1468 C1477 1.429 . S
C1469 C1467 1.419 . S
C1469 C1470 1.363 . S
C1469 H1472 0.929 . S
C1470 C1469 1.363 . S
C1470 C1476 1.428 . S
H1471 C1467 0.930 . S
H1472 C1469 0.929 . S
S1473 N1474 1.613 . S
S1473 N1475 1.610 . S
N1474 S1473 1.613 . S
N1474 C1477 1.350 . S
N1475 S1473 1.610 . S
N1475 C1476 1.351 . S
C1476 C1470 1.428 . S
C1476 N1475 1.351 . S
C1476 C1477 1.434 . S
C1477 C1468 1.429 . S
C1477 N1474 1.350 . S
C1477 C1476 1.434 . S
C1478 C1479 1.369 . S
C1478 C1480 1.419 . S
C1478 H1482 0.930 . S
C1479 C1478 1.369 . S
C1479 C1488 1.429 . S
C1480 C1478 1.419 . S
C1480 C1481 1.363 . S
C1480 H1483 0.929 . S
C1481 C1480 1.363 . S
C1481 C1487 1.428 . S
H1482 C1478 0.930 . S
H1483 C1480 0.929 . S
S1484 N1485 1.613 . S
S1484 N1486 1.610 . S
N1485 S1484 1.613 . S
N1485 C1488 1.350 . S
N1486 S1484 1.610 . S
N1486 C1487 1.351 . S
C1487 C1481 1.428 . S
C1487 N1486 1.351 . S
C1487 C1488 1.434 . S
C1488 C1479 1.429 . S
C1488 N1485 1.350 . S
C1488 C1487 1.434 . S
C1489 C1490 1.369 . S
C1489 C1491 1.419 . S
C1489 H1493 0.930 . S
C1490 C1489 1.369 . S
C1490 C1499 1.429 . S
C1491 C1489 1.419 . S
C1491 C1492 1.363 . S
C1491 H1494 0.929 . S
C1492 C1491 1.363 . S
C1492 C1498 1.428 . S
H1493 C1489 0.930 . S
H1494 C1491 0.929 . S
S1495 N1496 1.613 . S
S1495 N1497 1.610 . S
N1496 S1495 1.613 . S
N1496 C1499 1.350 . S
N1497 S1495 1.610 . S
N1497 C1498 1.351 . S
C1498 C1492 1.428 . S
C1498 N1497 1.351 . S
C1498 C1499 1.434 . S
C1499 C1490 1.429 . S
C1499 N1496 1.350 . S
C1499 C1498 1.434 . S
C1500 C1501 1.369 . S
C1500 C1502 1.419 . S
C1500 H1504 0.930 . S
C1501 C1500 1.369 . S
C1501 C1510 1.430 . S
C1502 C1500 1.419 . S
C1502 C1503 1.363 . S
C1502 H1505 0.929 . S
C1503 C1502 1.363 . S
C1503 C1509 1.432 . S
H1504 C1500 0.930 . S
H1505 C1502 0.929 . S
S1506 N1507 1.613 . S
S1506 N1508 1.610 . S
N1507 S1506 1.613 . S
N1507 C1510 1.348 1_545 S
N1508 S1506 1.610 . S
N1508 C1509 1.346 1_545 S
C1509 C1503 1.432 . S
C1509 N1508 1.346 1_565 S
C1509 C1510 1.434 . S
C1510 C1501 1.430 . S
C1510 N1507 1.348 1_565 S
C1510 C1509 1.434 . S
C1511 C1512 1.369 . S
C1511 C1513 1.419 . S
C1511 H1515 0.930 . S
C1512 C1511 1.369 . S
C1512 C1521 1.429 . S
C1513 C1511 1.419 . S
C1513 C1514 1.363 . S
C1513 H1516 0.929 . S
C1514 C1513 1.363 . S
C1514 C1520 1.428 . S
H1515 C1511 0.930 . S
H1516 C1513 0.929 . S
S1517 N1518 1.613 . S
S1517 N1519 1.610 . S
N1518 S1517 1.613 . S
N1518 C1521 1.350 . S
N1519 S1517 1.610 . S
N1519 C1520 1.351 . S
C1520 C1514 1.428 . S
C1520 N1519 1.351 . S
C1520 C1521 1.434 . S
C1521 C1512 1.429 . S
C1521 N1518 1.350 . S
C1521 C1520 1.434 . S
C1522 C1523 1.369 . S
C1522 C1524 1.419 . S
C1522 H1526 0.925 1_545 S
C1523 C1522 1.369 . S
C1523 C1532 1.429 . S
C1524 C1522 1.419 . S
C1524 C1525 1.363 . S
C1524 H1527 0.929 1_545 S
C1525 C1524 1.363 . S
C1525 C1531 1.428 . S
H1526 C1522 0.925 1_565 S
H1527 C1524 0.929 1_565 S
S1528 N1529 1.613 . S
S1528 N1530 1.610 . S
N1529 S1528 1.613 . S
N1529 C1532 1.350 . S
N1530 S1528 1.610 . S
N1530 C1531 1.351 . S
C1531 C1525 1.428 . S
C1531 N1530 1.351 . S
C1531 C1532 1.434 . S
C1532 C1523 1.429 . S
C1532 N1529 1.350 . S
C1532 C1531 1.434 . S
C1533 C1534 1.369 . S
C1533 C1535 1.419 . S
C1533 H1537 0.930 . S
C1534 C1533 1.369 . S
C1534 C1543 1.429 . S
C1535 C1533 1.419 . S
C1535 C1536 1.363 . S
C1535 H1538 0.929 . S
C1536 C1535 1.363 . S
C1536 C1542 1.428 . S
H1537 C1533 0.930 . S
H1538 C1535 0.929 . S
S1539 N1540 1.613 . S
S1539 N1541 1.610 . S
N1540 S1539 1.613 . S
N1540 C1543 1.350 . S
N1541 S1539 1.610 . S
N1541 C1542 1.351 . S
C1542 C1536 1.428 . S
C1542 N1541 1.351 . S
C1542 C1543 1.434 . S
C1543 C1534 1.429 . S
C1543 N1540 1.350 . S
C1543 C1542 1.434 . S
C1544 C1545 1.369 . S
C1544 C1546 1.419 . S
C1544 H1548 0.930 . S
C1545 C1544 1.369 . S
C1545 C1554 1.429 . S
C1546 C1544 1.419 . S
C1546 C1547 1.363 . S
C1546 H1549 0.929 . S
C1547 C1546 1.363 . S
C1547 C1553 1.428 . S
H1548 C1544 0.930 . S
H1549 C1546 0.929 . S
S1550 N1551 1.613 . S
S1550 N1552 1.610 . S
N1551 S1550 1.613 . S
N1551 C1554 1.350 . S
N1552 S1550 1.610 . S
N1552 C1553 1.351 . S
C1553 C1547 1.428 . S
C1553 N1552 1.351 . S
C1553 C1554 1.434 . S
C1554 C1545 1.429 . S
C1554 N1551 1.350 . S
C1554 C1553 1.434 . S
C1555 C1556 1.369 . S
C1555 C1557 1.419 . S
C1555 H1559 0.930 . S
C1556 C1555 1.369 . S
C1556 C1565 1.429 . S
C1557 C1555 1.419 . S
C1557 C1558 1.363 . S
C1557 H1560 0.929 . S
C1558 C1557 1.363 . S
C1558 C1564 1.428 . S
H1559 C1555 0.930 . S
H1560 C1557 0.929 . S
S1561 N1562 1.613 . S
S1561 N1563 1.610 . S
N1562 S1561 1.613 . S
N1562 C1565 1.350 . S
N1563 S1561 1.610 . S
N1563 C1564 1.351 . S
C1564 C1558 1.428 . S
C1564 N1563 1.351 . S
C1564 C1565 1.434 . S
C1565 C1556 1.429 . S
C1565 N1562 1.350 . S
C1565 C1564 1.434 . S
C1566 C1567 1.369 . S
C1566 C1568 1.419 . S
C1566 H1570 0.930 . S
C1567 C1566 1.369 . S
C1567 C1576 1.429 . S
C1568 C1566 1.419 . S
C1568 C1569 1.363 . S
C1568 H1571 0.929 . S
C1569 C1568 1.363 . S
C1569 C1575 1.428 . S
H1570 C1566 0.930 . S
H1571 C1568 0.929 . S
S1572 N1573 1.613 . S
S1572 N1574 1.610 . S
N1573 S1572 1.613 . S
N1573 C1576 1.350 . S
N1574 S1572 1.610 . S
N1574 C1575 1.351 . S
C1575 C1569 1.428 . S
C1575 N1574 1.351 . S
C1575 C1576 1.434 . S
C1576 C1567 1.429 . S
C1576 N1573 1.350 . S
C1576 C1575 1.434 . S
C1577 C1578 1.369 . S
C1577 C1579 1.419 . S
C1577 H1581 0.930 . S
C1578 C1577 1.369 . S
C1578 C1587 1.429 . S
C1579 C1577 1.419 . S
C1579 C1580 1.363 . S
C1579 H1582 0.929 . S
C1580 C1579 1.363 . S
C1580 C1586 1.428 . S
H1581 C1577 0.930 . S
H1582 C1579 0.929 . S
S1583 N1584 1.613 . S
S1583 N1585 1.610 . S
N1584 S1583 1.613 . S
N1584 C1587 1.350 . S
N1585 S1583 1.610 . S
N1585 C1586 1.351 . S
C1586 C1580 1.428 . S
C1586 N1585 1.351 . S
C1586 C1587 1.434 . S
C1587 C1578 1.429 . S
C1587 N1584 1.350 . S
C1587 C1586 1.434 . S
C1588 C1589 1.369 . S
C1588 C1590 1.419 . S
C1588 H1592 0.930 . S
C1589 C1588 1.369 . S
C1589 C1598 1.429 1_565 S
C1590 C1588 1.419 . S
C1590 C1591 1.363 . S
C1590 H1593 0.929 . S
C1591 C1590 1.363 . S
C1591 C1597 1.428 1_565 S
H1592 C1588 0.930 . S
H1593 C1590 0.929 . S
S1594 N1595 1.613 . S
S1594 N1596 1.610 . S
N1595 S1594 1.613 . S
N1595 C1598 1.350 . S
N1596 S1594 1.610 . S
N1596 C1597 1.351 . S
C1597 C1591 1.428 1_545 S
C1597 N1596 1.351 . S
C1597 C1598 1.434 . S
C1598 C1589 1.429 1_545 S
C1598 N1595 1.350 . S
C1598 C1597 1.434 . S
C1599 C1600 1.369 . S
C1599 C1601 1.419 . S
C1599 H1603 0.930 . S
C1600 C1599 1.369 . S
C1600 C1609 1.429 . S
C1601 C1599 1.419 . S
C1601 C1602 1.363 . S
C1601 H1604 0.929 . S
C1602 C1601 1.363 . S
C1602 C1608 1.428 . S
H1603 C1599 0.930 . S
H1604 C1601 0.929 . S
S1605 N1606 1.613 . S
S1605 N1607 1.610 . S
N1606 S1605 1.613 . S
N1606 C1609 1.350 . S
N1607 S1605 1.610 . S
N1607 C1608 1.351 . S
C1608 C1602 1.428 . S
C1608 N1607 1.351 . S
C1608 C1609 1.434 . S
C1609 C1600 1.429 . S
C1609 N1606 1.350 . S
C1609 C1608 1.434 . S
C1610 C1611 1.369 . S
C1610 C1612 1.419 . S
C1610 H1614 0.930 . S
C1611 C1610 1.369 . S
C1611 C1620 1.429 . S
C1612 C1610 1.419 . S
C1612 C1613 1.363 . S
C1612 H1615 0.929 . S
C1613 C1612 1.363 . S
C1613 C1619 1.428 . S
H1614 C1610 0.930 . S
H1615 C1612 0.929 . S
S1616 N1617 1.613 . S
S1616 N1618 1.610 . S
N1617 S1616 1.613 . S
N1617 C1620 1.350 . S
N1618 S1616 1.610 . S
N1618 C1619 1.351 . S
C1619 C1613 1.428 . S
C1619 N1618 1.351 . S
C1619 C1620 1.434 . S
C1620 C1611 1.429 . S
C1620 N1617 1.350 . S
C1620 C1619 1.434 . S
C1621 C1622 1.369 . S
C1621 C1623 1.419 . S
C1621 H1625 0.930 . S
C1622 C1621 1.369 . S
C1622 C1631 1.429 . S
C1623 C1621 1.419 . S
C1623 C1624 1.363 . S
C1623 H1626 0.929 . S
C1624 C1623 1.363 . S
C1624 C1630 1.428 . S
H1625 C1621 0.930 . S
H1626 C1623 0.929 . S
S1627 N1628 1.613 . S
S1627 N1629 1.610 . S
N1628 S1627 1.613 . S
N1628 C1631 1.350 . S
N1629 S1627 1.610 . S
N1629 C1630 1.351 . S
C1630 C1624 1.428 . S
C1630 N1629 1.351 . S
C1630 C1631 1.434 . S
C1631 C1622 1.429 . S
C1631 N1628 1.350 . S
C1631 C1630 1.434 . S
C1632 C1633 1.369 . S
C1632 C1634 1.419 . S
C1632 H1636 0.930 . S
C1633 C1632 1.369 . S
C1633 C1642 1.429 . S
C1634 C1632 1.419 . S
C1634 C1635 1.363 . S
C1634 H1637 0.929 . S
C1635 C1634 1.363 . S
C1635 C1641 1.428 . S
H1636 C1632 0.930 . S
H1637 C1634 0.929 . S
S1638 N1639 1.613 . S
S1638 N1640 1.610 . S
N1639 S1638 1.613 . S
N1639 C1642 1.350 . S
N1640 S1638 1.610 . S
N1640 C1641 1.351 . S
C1641 C1635 1.428 . S
C1641 N1640 1.351 . S
C1641 C1642 1.434 . S
C1642 C1633 1.429 . S
C1642 N1639 1.350 . S
C1642 C1641 1.434 . S
C1643 C1644 1.369 . S
C1643 C1645 1.419 . S
C1643 H1647 0.930 . S
C1644 C1643 1.369 . S
C1644 C1653 1.429 . S
C1645 C1643 1.419 . S
C1645 C1646 1.363 . S
C1645 H1648 0.929 . S
C1646 C1645 1.363 . S
C1646 C1652 1.428 . S
H1647 C1643 0.930 . S
H1648 C1645 0.929 . S
S1649 N1650 1.613 . S
S1649 N1651 1.610 . S
N1650 S1649 1.613 . S
N1650 C1653 1.350 . S
N1651 S1649 1.610 . S
N1651 C1652 1.351 . S
C1652 C1646 1.428 . S
C1652 N1651 1.351 . S
C1652 C1653 1.434 . S
C1653 C1644 1.429 . S
C1653 N1650 1.350 . S
C1653 C1652 1.434 . S
C1654 C1655 1.369 . S
C1654 C1656 1.419 . S
C1654 H1658 0.930 . S
C1655 C1654 1.369 . S
C1655 C1664 1.429 . S
C1656 C1654 1.419 . S
C1656 C1657 1.363 . S
C1656 H1659 0.929 . S
C1657 C1656 1.363 . S
C1657 C1663 1.428 . S
H1658 C1654 0.930 . S
H1659 C1656 0.929 . S
S1660 N1661 1.613 1_455 S
S1660 N1662 1.610 1_455 S
N1661 S1660 1.613 1_655 S
N1661 C1664 1.350 . S
N1662 S1660 1.610 1_655 S
N1662 C1663 1.351 . S
C1663 C1657 1.428 . S
C1663 N1662 1.351 . S
C1663 C1664 1.434 . S
C1664 C1655 1.429 . S
C1664 N1661 1.350 . S
C1664 C1663 1.434 . S
C1665 C1666 1.369 . S
C1665 C1667 1.419 . S
C1665 H1669 0.930 . S
C1666 C1665 1.369 . S
C1666 C1675 1.429 . S
C1667 C1665 1.419 . S
C1667 C1668 1.363 . S
C1667 H1670 0.929 . S
C1668 C1667 1.363 . S
C1668 C1674 1.428 . S
H1669 C1665 0.930 . S
H1670 C1667 0.929 . S
S1671 N1672 1.613 1_455 S
S1671 N1673 1.610 1_455 S
N1672 S1671 1.613 1_655 S
N1672 C1675 1.350 . S
N1673 S1671 1.610 1_655 S
N1673 C1674 1.351 . S
C1674 C1668 1.428 . S
C1674 N1673 1.351 . S
C1674 C1675 1.434 . S
C1675 C1666 1.429 . S
C1675 N1672 1.350 . S
C1675 C1674 1.434 . S
C1676 C1677 1.369 . S
C1676 C1678 1.419 . S
C1676 H1680 0.930 . S
C1677 C1676 1.369 . S
C1677 C1686 1.429 . S
C1678 C1676 1.419 . S
C1678 C1679 1.363 . S
C1678 H1681 0.929 . S
C1679 C1678 1.363 . S
C1679 C1685 1.428 . S
H1680 C1676 0.930 . S
H1681 C1678 0.929 . S
S1682 N1683 1.613 . S
S1682 N1684 1.610 . S
N1683 S1682 1.613 . S
N1683 C1686 1.350 . S
N1684 S1682 1.610 . S
N1684 C1685 1.351 . S
C1685 C1679 1.428 . S
C1685 N1684 1.351 . S
C1685 C1686 1.434 . S
C1686 C1677 1.429 . S
C1686 N1683 1.350 . S
C1686 C1685 1.434 . S
C1687 C1688 1.369 . S
C1687 C1689 1.419 . S
C1687 H1691 0.930 . S
C1688 C1687 1.369 . S
C1688 C1697 1.429 . S
C1689 C1687 1.419 . S
C1689 C1690 1.363 . S
C1689 H1692 0.929 . S
C1690 C1689 1.363 . S
C1690 C1696 1.428 . S
H1691 C1687 0.930 . S
H1692 C1689 0.929 . S
S1693 N1694 1.613 . S
S1693 N1695 1.610 . S
N1694 S1693 1.613 . S
N1694 C1697 1.350 . S
N1695 S1693 1.610 . S
N1695 C1696 1.351 . S
C1696 C1690 1.428 . S
C1696 N1695 1.351 . S
C1696 C1697 1.434 . S
C1697 C1688 1.429 . S
C1697 N1694 1.350 . S
C1697 C1696 1.434 . S
C1698 C1699 1.369 . S
C1698 C1700 1.419 . S
C1698 H1702 0.930 . S
C1699 C1698 1.369 . S
C1699 C1708 1.429 . S
C1700 C1698 1.419 . S
C1700 C1701 1.363 . S
C1700 H1703 0.929 . S
C1701 C1700 1.363 . S
C1701 C1707 1.428 . S
H1702 C1698 0.930 . S
H1703 C1700 0.929 . S
S1704 N1705 1.613 . S
S1704 N1706 1.610 . S
N1705 S1704 1.613 . S
N1705 C1708 1.350 . S
N1706 S1704 1.610 . S
N1706 C1707 1.351 . S
C1707 C1701 1.428 . S
C1707 N1706 1.351 . S
C1707 C1708 1.434 . S
C1708 C1699 1.429 . S
C1708 N1705 1.350 . S
C1708 C1707 1.434 . S
C1709 C1710 1.369 . S
C1709 C1711 1.419 . S
C1709 H1713 0.930 . S
C1710 C1709 1.369 . S
C1710 C1719 1.429 . S
C1711 C1709 1.419 . S
C1711 C1712 1.363 . S
C1711 H1714 0.929 . S
C1712 C1711 1.363 . S
C1712 C1718 1.428 . S
H1713 C1709 0.930 . S
H1714 C1711 0.929 . S
S1715 N1716 1.613 1_455 S
S1715 N1717 1.610 1_455 S
N1716 S1715 1.613 1_655 S
N1716 C1719 1.350 . S
N1717 S1715 1.610 1_655 S
N1717 C1718 1.351 . S
C1718 C1712 1.428 . S
C1718 N1717 1.351 . S
C1718 C1719 1.434 . S
C1719 C1710 1.429 . S
C1719 N1716 1.350 . S
C1719 C1718 1.434 . S
C1720 C1721 1.369 . S
C1720 C1722 1.419 . S
C1720 H1724 0.930 . S
C1721 C1720 1.369 . S
C1721 C1730 1.429 . S
C1722 C1720 1.419 . S
C1722 C1723 1.363 . S
C1722 H1725 0.929 . S
C1723 C1722 1.363 . S
C1723 C1729 1.428 . S
H1724 C1720 0.930 . S
H1725 C1722 0.929 . S
S1726 N1727 1.613 . S
S1726 N1728 1.610 . S
N1727 S1726 1.613 . S
N1727 C1730 1.350 . S
N1728 S1726 1.610 . S
N1728 C1729 1.351 . S
C1729 C1723 1.428 . S
C1729 N1728 1.351 . S
C1729 C1730 1.434 . S
C1730 C1721 1.429 . S
C1730 N1727 1.350 . S
C1730 C1729 1.434 . S
C1731 C1732 1.369 . S
C1731 C1733 1.419 . S
C1731 H1735 0.930 . S
C1732 C1731 1.369 . S
C1732 C1741 1.429 . S
C1733 C1731 1.419 . S
C1733 C1734 1.363 . S
C1733 H1736 0.929 . S
C1734 C1733 1.363 . S
C1734 C1740 1.428 . S
H1735 C1731 0.930 . S
H1736 C1733 0.929 . S
S1737 N1738 1.613 . S
S1737 N1739 1.610 . S
N1738 S1737 1.613 . S
N1738 C1741 1.350 . S
N1739 S1737 1.610 . S
N1739 C1740 1.351 . S
C1740 C1734 1.428 . S
C1740 N1739 1.351 . S
C1740 C1741 1.434 . S
C1741 C1732 1.429 . S
C1741 N1738 1.350 . S
C1741 C1740 1.434 . S
C1742 C1743 1.369 . S
C1742 C1744 1.419 . S
C1742 H1746 0.930 . S
C1743 C1742 1.369 . S
C1743 C1752 1.429 . S
C1744 C1742 1.419 . S
C1744 C1745 1.363 . S
C1744 H1747 0.929 . S
C1745 C1744 1.363 . S
C1745 C1751 1.428 . S
H1746 C1742 0.930 . S
H1747 C1744 0.929 . S
S1748 N1749 1.613 . S
S1748 N1750 1.610 . S
N1749 S1748 1.613 . S
N1749 C1752 1.350 . S
N1750 S1748 1.610 . S
N1750 C1751 1.351 . S
C1751 C1745 1.428 . S
C1751 N1750 1.351 . S
C1751 C1752 1.434 . S
C1752 C1743 1.429 . S
C1752 N1749 1.350 . S
C1752 C1751 1.434 . S
C1753 C1754 1.369 . S
C1753 C1755 1.419 . S
C1753 H1757 0.930 . S
C1754 C1753 1.369 . S
C1754 C1763 1.429 . S
C1755 C1753 1.419 . S
C1755 C1756 1.363 . S
C1755 H1758 0.929 . S
C1756 C1755 1.363 . S
C1756 C1762 1.428 . S
H1757 C1753 0.930 . S
H1758 C1755 0.929 . S
S1759 N1760 1.613 . S
S1759 N1761 1.610 . S
N1760 S1759 1.613 . S
N1760 C1763 1.350 . S
N1761 S1759 1.610 . S
N1761 C1762 1.351 . S
C1762 C1756 1.428 . S
C1762 N1761 1.351 . S
C1762 C1763 1.434 . S
C1763 C1754 1.429 . S
C1763 N1760 1.350 . S
C1763 C1762 1.434 . S
C1764 C1765 1.369 . S
C1764 C1766 1.419 . S
C1764 H1768 0.930 . S
C1765 C1764 1.369 . S
C1765 C1774 1.429 . S
C1766 C1764 1.419 . S
C1766 C1767 1.363 . S
C1766 H1769 0.929 . S
C1767 C1766 1.363 . S
C1767 C1773 1.428 . S
H1768 C1764 0.930 . S
H1769 C1766 0.929 . S
S1770 N1771 1.613 . S
S1770 N1772 1.610 . S
N1771 S1770 1.613 . S
N1771 C1774 1.350 . S
N1772 S1770 1.610 . S
N1772 C1773 1.351 . S
C1773 C1767 1.428 . S
C1773 N1772 1.351 . S
C1773 C1774 1.434 . S
C1774 C1765 1.429 . S
C1774 N1771 1.350 . S
C1774 C1773 1.434 . S
C1775 C1776 1.369 . S
C1775 C1777 1.419 . S
C1775 H1779 0.930 . S
C1776 C1775 1.369 . S
C1776 C1785 1.429 . S
C1777 C1775 1.419 . S
C1777 C1778 1.363 . S
C1777 H1780 0.929 . S
C1778 C1777 1.363 . S
C1778 C1784 1.428 . S
H1779 C1775 0.930 . S
H1780 C1777 0.929 . S
S1781 N1782 1.613 . S
S1781 N1783 1.610 . S
N1782 S1781 1.613 . S
N1782 C1785 1.350 . S
N1783 S1781 1.610 . S
N1783 C1784 1.351 . S
C1784 C1778 1.428 . S
C1784 N1783 1.351 . S
C1784 C1785 1.434 . S
C1785 C1776 1.429 . S
C1785 N1782 1.350 . S
C1785 C1784 1.434 . S
C1786 C1787 1.369 . S
C1786 C1788 1.419 . S
C1786 H1790 0.930 . S
C1787 C1786 1.369 . S
C1787 C1796 1.429 . S
C1788 C1786 1.419 . S
C1788 C1789 1.363 . S
C1788 H1791 0.929 . S
C1789 C1788 1.363 . S
C1789 C1795 1.428 . S
H1790 C1786 0.930 . S
H1791 C1788 0.929 . S
S1792 N1793 1.613 . S
S1792 N1794 1.610 . S
N1793 S1792 1.613 . S
N1793 C1796 1.350 . S
N1794 S1792 1.610 . S
N1794 C1795 1.351 . S
C1795 C1789 1.428 . S
C1795 N1794 1.351 . S
C1795 C1796 1.434 . S
C1796 C1787 1.429 . S
C1796 N1793 1.350 . S
C1796 C1795 1.434 . S
C1797 C1798 1.369 . S
C1797 C1799 1.419 . S
C1797 H1801 0.930 . S
C1798 C1797 1.369 . S
C1798 C1807 1.429 . S
C1799 C1797 1.419 . S
C1799 C1800 1.363 . S
C1799 H1802 0.929 . S
C1800 C1799 1.363 . S
C1800 C1806 1.428 . S
H1801 C1797 0.930 . S
H1802 C1799 0.929 . S
S1803 N1804 1.613 . S
S1803 N1805 1.610 . S
N1804 S1803 1.613 . S
N1804 C1807 1.350 . S
N1805 S1803 1.610 . S
N1805 C1806 1.351 . S
C1806 C1800 1.428 . S
C1806 N1805 1.351 . S
C1806 C1807 1.434 . S
C1807 C1798 1.429 . S
C1807 N1804 1.350 . S
C1807 C1806 1.434 . S
C1808 C1809 1.369 . S
C1808 C1810 1.419 . S
C1808 H1812 0.930 . S
C1809 C1808 1.369 . S
C1809 C1818 1.429 . S
C1810 C1808 1.419 . S
C1810 C1811 1.363 . S
C1810 H1813 0.929 . S
C1811 C1810 1.363 . S
C1811 C1817 1.428 . S
H1812 C1808 0.930 . S
H1813 C1810 0.929 . S
S1814 N1815 1.613 . S
S1814 N1816 1.610 . S
N1815 S1814 1.613 . S
N1815 C1818 1.350 . S
N1816 S1814 1.610 . S
N1816 C1817 1.351 . S
C1817 C1811 1.428 . S
C1817 N1816 1.351 . S
C1817 C1818 1.434 . S
C1818 C1809 1.429 . S
C1818 N1815 1.350 . S
C1818 C1817 1.434 . S
C1819 C1820 1.369 . S
C1819 C1821 1.419 . S
C1819 H1823 0.930 . S
C1820 C1819 1.369 . S
C1820 C1829 1.429 . S
C1821 C1819 1.419 . S
C1821 C1822 1.363 . S
C1821 H1824 0.929 . S
C1822 C1821 1.363 . S
C1822 C1828 1.428 . S
H1823 C1819 0.930 . S
H1824 C1821 0.929 . S
S1825 N1826 1.613 . S
S1825 N1827 1.610 . S
N1826 S1825 1.613 . S
N1826 C1829 1.350 . S
N1827 S1825 1.610 . S
N1827 C1828 1.351 . S
C1828 C1822 1.428 . S
C1828 N1827 1.351 . S
C1828 C1829 1.434 . S
C1829 C1820 1.429 . S
C1829 N1826 1.350 . S
C1829 C1828 1.434 . S
C1830 C1831 1.369 . S
C1830 C1832 1.419 . S
C1830 H1834 0.930 . S
C1831 C1830 1.369 . S
C1831 C1840 1.429 . S
C1832 C1830 1.419 . S
C1832 C1833 1.363 . S
C1832 H1835 0.929 . S
C1833 C1832 1.363 . S
C1833 C1839 1.428 . S
H1834 C1830 0.930 . S
H1835 C1832 0.929 . S
S1836 N1837 1.613 . S
S1836 N1838 1.610 . S
N1837 S1836 1.613 . S
N1837 C1840 1.350 . S
N1838 S1836 1.610 . S
N1838 C1839 1.351 . S
C1839 C1833 1.428 . S
C1839 N1838 1.351 . S
C1839 C1840 1.434 . S
C1840 C1831 1.429 . S
C1840 N1837 1.350 . S
C1840 C1839 1.434 . S
C1841 C1842 1.369 . S
C1841 C1843 1.419 . S
C1841 H1845 0.930 . S
C1842 C1841 1.369 . S
C1842 C1851 1.429 . S
C1843 C1841 1.419 . S
C1843 C1844 1.363 . S
C1843 H1846 0.929 . S
C1844 C1843 1.363 . S
C1844 C1850 1.428 . S
H1845 C1841 0.930 . S
H1846 C1843 0.929 . S
S1847 N1848 1.613 . S
S1847 N1849 1.610 . S
N1848 S1847 1.613 . S
N1848 C1851 1.350 . S
N1849 S1847 1.610 . S
N1849 C1850 1.351 . S
C1850 C1844 1.428 . S
C1850 N1849 1.351 . S
C1850 C1851 1.434 . S
C1851 C1842 1.429 . S
C1851 N1848 1.350 . S
C1851 C1850 1.434 . S
C1852 C1853 1.369 . S
C1852 C1854 1.419 . S
C1852 H1856 0.930 . S
C1853 C1852 1.369 . S
C1853 C1862 1.429 . S
C1854 C1852 1.419 . S
C1854 C1855 1.363 . S
C1854 H1857 0.929 . S
C1855 C1854 1.363 . S
C1855 C1861 1.428 . S
H1856 C1852 0.930 . S
H1857 C1854 0.929 . S
S1858 N1859 1.613 . S
S1858 N1860 1.610 . S
N1859 S1858 1.613 . S
N1859 C1862 1.350 . S
N1860 S1858 1.610 . S
N1860 C1861 1.351 . S
C1861 C1855 1.428 . S
C1861 N1860 1.351 . S
C1861 C1862 1.434 . S
C1862 C1853 1.429 . S
C1862 N1859 1.350 . S
C1862 C1861 1.434 . S
C1863 C1864 1.369 . S
C1863 C1865 1.419 . S
C1863 H1867 0.930 . S
C1864 C1863 1.369 . S
C1864 C1873 1.429 . S
C1865 C1863 1.419 . S
C1865 C1866 1.363 . S
C1865 H1868 0.929 . S
C1866 C1865 1.363 . S
C1866 C1872 1.428 . S
H1867 C1863 0.930 . S
H1868 C1865 0.929 . S
S1869 N1870 1.613 . S
S1869 N1871 1.610 . S
N1870 S1869 1.613 . S
N1870 C1873 1.350 . S
N1871 S1869 1.610 . S
N1871 C1872 1.351 . S
C1872 C1866 1.428 . S
C1872 N1871 1.351 . S
C1872 C1873 1.434 . S
C1873 C1864 1.429 . S
C1873 N1870 1.350 . S
C1873 C1872 1.434 . S
C1874 C1875 1.369 . S
C1874 C1876 1.419 . S
C1874 H1878 0.930 . S
C1875 C1874 1.369 . S
C1875 C1884 1.429 . S
C1876 C1874 1.419 . S
C1876 C1877 1.363 . S
C1876 H1879 0.929 . S
C1877 C1876 1.363 . S
C1877 C1883 1.428 . S
H1878 C1874 0.930 . S
H1879 C1876 0.929 . S
S1880 N1881 1.613 . S
S1880 N1882 1.610 . S
N1881 S1880 1.613 . S
N1881 C1884 1.350 . S
N1882 S1880 1.610 . S
N1882 C1883 1.351 . S
C1883 C1877 1.428 . S
C1883 N1882 1.351 . S
C1883 C1884 1.434 . S
C1884 C1875 1.429 . S
C1884 N1881 1.350 . S
C1884 C1883 1.434 . S
C1885 C1886 1.369 . S
C1885 C1887 1.419 . S
C1885 H1889 0.930 . S
C1886 C1885 1.369 . S
C1886 C1895 1.429 . S
C1887 C1885 1.419 . S
C1887 C1888 1.363 . S
C1887 H1890 0.929 . S
C1888 C1887 1.363 . S
C1888 C1894 1.428 . S
H1889 C1885 0.930 . S
H1890 C1887 0.929 . S
S1891 N1892 1.613 . S
S1891 N1893 1.610 . S
N1892 S1891 1.613 . S
N1892 C1895 1.350 . S
N1893 S1891 1.610 . S
N1893 C1894 1.351 . S
C1894 C1888 1.428 . S
C1894 N1893 1.351 . S
C1894 C1895 1.434 . S
C1895 C1886 1.429 . S
C1895 N1892 1.350 . S
C1895 C1894 1.434 . S
C1896 C1897 1.369 1_545 S
C1896 C1898 1.419 . S
C1896 H1900 0.930 . S
C1897 C1896 1.369 1_565 S
C1897 C1906 1.429 . S
C1898 C1896 1.419 . S
C1898 C1899 1.363 1_545 S
C1898 H1901 0.929 . S
C1899 C1898 1.363 1_565 S
C1899 C1905 1.428 . S
H1900 C1896 0.930 . S
H1901 C1898 0.929 . S
S1902 N1903 1.613 . S
S1902 N1904 1.610 . S
N1903 S1902 1.613 . S
N1903 C1906 1.350 . S
N1904 S1902 1.610 . S
N1904 C1905 1.351 . S
C1905 C1899 1.428 . S
C1905 N1904 1.351 . S
C1905 C1906 1.434 . S
C1906 C1897 1.429 . S
C1906 N1903 1.350 . S
C1906 C1905 1.434 . S
C1907 C1908 1.369 . S
C1907 C1909 1.419 . S
C1907 H1911 0.930 . S
C1908 C1907 1.369 . S
C1908 C1917 1.429 . S
C1909 C1907 1.419 . S
C1909 C1910 1.363 . S
C1909 H1912 0.929 . S
C1910 C1909 1.363 . S
C1910 C1916 1.428 . S
H1911 C1907 0.930 . S
H1912 C1909 0.929 . S
S1913 N1914 1.613 . S
S1913 N1915 1.610 . S
N1914 S1913 1.613 . S
N1914 C1917 1.350 . S
N1915 S1913 1.610 . S
N1915 C1916 1.351 . S
C1916 C1910 1.428 . S
C1916 N1915 1.351 . S
C1916 C1917 1.434 . S
C1917 C1908 1.429 . S
C1917 N1914 1.350 . S
C1917 C1916 1.434 . S
C1918 C1919 1.369 . S
C1918 C1920 1.419 . S
C1918 H1922 0.930 . S
C1919 C1918 1.369 . S
C1919 C1928 1.429 . S
C1920 C1918 1.419 . S
C1920 C1921 1.363 . S
C1920 H1923 0.929 . S
C1921 C1920 1.363 . S
C1921 C1927 1.428 . S
H1922 C1918 0.930 . S
H1923 C1920 0.929 . S
S1924 N1925 1.613 . S
S1924 N1926 1.610 . S
N1925 S1924 1.613 . S
N1925 C1928 1.350 . S
N1926 S1924 1.610 . S
N1926 C1927 1.351 . S
C1927 C1921 1.428 . S
C1927 N1926 1.351 . S
C1927 C1928 1.434 . S
C1928 C1919 1.429 . S
C1928 N1925 1.350 . S
C1928 C1927 1.434 . S
C1929 C1930 1.391 . S
C1929 C1931 1.419 . S
C1929 H1933 0.930 . S
C1930 C1929 1.391 . S
C1930 C1939 1.412 1_565 S
C1931 C1929 1.419 . S
C1931 C1932 1.363 . S
C1931 H1934 0.929 . S
C1932 C1931 1.363 . S
C1932 C1938 1.428 1_565 S
H1933 C1929 0.930 . S
H1934 C1931 0.929 . S
S1935 N1936 1.613 . S
S1935 N1937 1.610 . S
N1936 S1935 1.613 . S
N1936 C1939 1.350 . S
N1937 S1935 1.610 . S
N1937 C1938 1.351 . S
C1938 C1932 1.428 1_545 S
C1938 N1937 1.351 . S
C1938 C1939 1.434 . S
C1939 C1930 1.412 1_545 S
C1939 N1936 1.350 . S
C1939 C1938 1.434 . S
C1940 C1941 1.369 1_565 S
C1940 C1942 1.419 . S
C1940 H1944 0.930 . S
C1941 C1940 1.369 1_545 S
C1941 C1950 1.429 . S
C1942 C1940 1.419 . S
C1942 C1943 1.363 1_565 S
C1942 H1945 0.929 . S
C1943 C1942 1.363 1_545 S
C1943 C1949 1.428 . S
H1944 C1940 0.930 . S
H1945 C1942 0.929 . S
S1946 N1947 1.613 . S
S1946 N1948 1.610 . S
N1947 S1946 1.613 . S
N1947 C1950 1.350 . S
N1948 S1946 1.610 . S
N1948 C1949 1.351 . S
C1949 C1943 1.428 . S
C1949 N1948 1.351 . S
C1949 C1950 1.434 . S
C1950 C1941 1.429 . S
C1950 N1947 1.350 . S
C1950 C1949 1.434 . S
C1951 C1952 1.369 . S
C1951 C1953 1.419 . S
C1951 H1955 0.930 . S
C1952 C1951 1.369 . S
C1952 C1961 1.429 . S
C1953 C1951 1.419 . S
C1953 C1954 1.363 . S
C1953 H1956 0.929 . S
C1954 C1953 1.363 . S
C1954 C1960 1.428 . S
H1955 C1951 0.930 . S
H1956 C1953 0.929 . S
S1957 N1958 1.613 . S
S1957 N1959 1.610 . S
N1958 S1957 1.613 . S
N1958 C1961 1.350 . S
N1959 S1957 1.610 . S
N1959 C1960 1.351 . S
C1960 C1954 1.428 . S
C1960 N1959 1.351 . S
C1960 C1961 1.434 . S
C1961 C1952 1.429 . S
C1961 N1958 1.350 . S
C1961 C1960 1.434 . S
C1962 C1963 1.369 . S
C1962 C1964 1.419 . S
C1962 H1966 0.930 . S
C1963 C1962 1.369 . S
C1963 C1972 1.429 . S
C1964 C1962 1.419 . S
C1964 C1965 1.363 . S
C1964 H1967 0.929 . S
C1965 C1964 1.363 . S
C1965 C1971 1.428 . S
H1966 C1962 0.930 . S
H1967 C1964 0.929 . S
S1968 N1969 1.613 . S
S1968 N1970 1.610 . S
N1969 S1968 1.613 . S
N1969 C1972 1.350 . S
N1970 S1968 1.610 . S
N1970 C1971 1.351 . S
C1971 C1965 1.428 . S
C1971 N1970 1.351 . S
C1971 C1972 1.434 . S
C1972 C1963 1.429 . S
C1972 N1969 1.350 . S
C1972 C1971 1.434 . S
C1973 C1974 1.391 . S
C1973 C1975 1.419 . S
C1973 H1977 0.930 . S
C1974 C1973 1.391 . S
C1974 C1983 1.413 1_545 S
C1975 C1973 1.419 . S
C1975 C1976 1.363 . S
C1975 H1978 0.929 . S
C1976 C1975 1.363 . S
C1976 C1982 1.428 1_545 S
H1977 C1973 0.930 . S
H1978 C1975 0.929 . S
S1979 N1980 1.613 . S
S1979 N1981 1.610 . S
N1980 S1979 1.613 . S
N1980 C1983 1.350 . S
N1981 S1979 1.610 . S
N1981 C1982 1.351 . S
C1982 C1976 1.428 1_565 S
C1982 N1981 1.351 . S
C1982 C1983 1.434 . S
C1983 C1974 1.413 1_565 S
C1983 N1980 1.350 . S
C1983 C1982 1.434 . S
C1984 C1985 1.369 . S
C1984 C1986 1.419 . S
C1984 H1988 0.930 . S
C1985 C1984 1.369 . S
C1985 C1994 1.429 . S
C1986 C1984 1.419 . S
C1986 C1987 1.363 1_455 S
C1986 H1989 0.929 1_455 S
C1987 C1986 1.363 1_655 S
C1987 C1993 1.428 1_655 S
H1988 C1984 0.930 . S
H1989 C1986 0.929 1_655 S
S1990 N1991 1.613 . S
S1990 N1992 1.610 1_455 S
N1991 S1990 1.613 . S
N1991 C1994 1.350 . S
N1992 S1990 1.610 1_655 S
N1992 C1993 1.351 1_655 S
C1993 C1987 1.428 1_455 S
C1993 N1992 1.351 1_455 S
C1993 C1994 1.434 . S
C1994 C1985 1.429 . S
C1994 N1991 1.350 . S
C1994 C1993 1.434 . S
C1995 C1996 1.369 . S
C1995 C1997 1.419 . S
C1995 H1999 0.930 . S
C1996 C1995 1.369 . S
C1996 C2005 1.429 . S
C1997 C1995 1.419 . S
C1997 C1998 1.363 . S
C1997 H2000 0.929 . S
C1998 C1997 1.363 . S
C1998 C2004 1.428 . S
H1999 C1995 0.930 . S
H2000 C1997 0.929 . S
S2001 N2002 1.613 . S
S2001 N2003 1.610 . S
N2002 S2001 1.613 . S
N2002 C2005 1.350 . S
N2003 S2001 1.610 . S
N2003 C2004 1.351 . S
C2004 C1998 1.428 . S
C2004 N2003 1.351 . S
C2004 C2005 1.434 . S
C2005 C1996 1.429 . S
C2005 N2002 1.350 . S
C2005 C2004 1.434 . S
C2006 C2007 1.369 1_455 S
C2006 C2008 1.419 . S
C2006 H2010 0.930 1_455 S
C2007 C2006 1.369 1_655 S
C2007 C2016 1.429 . S
C2008 C2006 1.419 . S
C2008 C2009 1.363 . S
C2008 H2011 0.929 . S
C2009 C2008 1.363 . S
C2009 C2015 1.428 . S
H2010 C2006 0.930 1_655 S
H2011 C2008 0.929 . S
S2012 N2013 1.613 1_455 S
S2012 N2014 1.610 . S
N2013 S2012 1.613 1_655 S
N2013 C2016 1.350 . S
N2014 S2012 1.610 . S
N2014 C2015 1.351 . S
C2015 C2009 1.428 . S
C2015 N2014 1.351 . S
C2015 C2016 1.434 1_455 S
C2016 C2007 1.429 . S
C2016 N2013 1.350 . S
C2016 C2015 1.434 1_655 S
C2017 C2018 1.369 . S
C2017 C2019 1.419 . S
C2017 H2021 0.930 . S
C2018 C2017 1.369 . S
C2018 C2027 1.429 . S
C2019 C2017 1.419 . S
C2019 C2020 1.363 . S
C2019 H2022 0.929 . S
C2020 C2019 1.363 . S
C2020 C2026 1.428 . S
H2021 C2017 0.930 . S
H2022 C2019 0.929 . S
S2023 N2024 1.613 . S
S2023 N2025 1.610 . S
N2024 S2023 1.613 . S
N2024 C2027 1.350 . S
N2025 S2023 1.610 . S
N2025 C2026 1.351 . S
C2026 C2020 1.428 . S
C2026 N2025 1.351 . S
C2026 C2027 1.434 . S
C2027 C2018 1.429 . S
C2027 N2024 1.350 . S
C2027 C2026 1.434 . S
C2028 C2029 1.369 . S
C2028 C2030 1.419 . S
C2028 H2032 0.930 . S
C2029 C2028 1.369 . S
C2029 C2038 1.429 . S
C2030 C2028 1.419 . S
C2030 C2031 1.363 1_655 S
C2030 H2033 0.929 . S
C2031 C2030 1.363 1_455 S
C2031 C2037 1.428 . S
H2032 C2028 0.930 . S
H2033 C2030 0.929 . S
S2034 N2035 1.613 1_455 S
S2034 N2036 1.610 . S
N2035 S2034 1.613 1_655 S
N2035 C2038 1.350 . S
N2036 S2034 1.610 . S
N2036 C2037 1.351 . S
C2037 C2031 1.428 . S
C2037 N2036 1.351 . S
C2037 C2038 1.434 1_455 S
C2038 C2029 1.429 . S
C2038 N2035 1.350 . S
C2038 C2037 1.434 1_655 S
C2039 C2040 1.369 . S
C2039 C2041 1.419 . S
C2039 H2043 0.930 . S
C2040 C2039 1.369 . S
C2040 C2049 1.429 . S
C2041 C2039 1.419 . S
C2041 C2042 1.363 . S
C2041 H2044 0.929 . S
C2042 C2041 1.363 . S
C2042 C2048 1.428 . S
H2043 C2039 0.930 . S
H2044 C2041 0.929 . S
S2045 N2046 1.613 . S
S2045 N2047 1.610 . S
N2046 S2045 1.613 . S
N2046 C2049 1.350 . S
N2047 S2045 1.610 . S
N2047 C2048 1.351 . S
C2048 C2042 1.428 . S
C2048 N2047 1.351 . S
C2048 C2049 1.434 . S
C2049 C2040 1.429 . S
C2049 N2046 1.350 . S
C2049 C2048 1.434 . S
C2050 C2051 1.369 1_655 S
C2050 C2052 1.419 . S
C2050 H2054 0.930 . S
C2051 C2050 1.369 1_455 S
C2051 C2060 1.429 . S
C2052 C2050 1.419 . S
C2052 C2053 1.363 . S
C2052 H2055 0.929 . S
C2053 C2052 1.363 . S
C2053 C2059 1.428 . S
H2054 C2050 0.930 . S
H2055 C2052 0.929 . S
S2056 N2057 1.613 . S
S2056 N2058 1.610 1_455 S
N2057 S2056 1.613 . S
N2057 C2060 1.350 . S
N2058 S2056 1.610 1_655 S
N2058 C2059 1.351 . S
C2059 C2053 1.428 . S
C2059 N2058 1.351 . S
C2059 C2060 1.434 1_655 S
C2060 C2051 1.429 . S
C2060 N2057 1.350 . S
C2060 C2059 1.434 1_455 S
C2061 C2062 1.369 . S
C2061 C2063 1.419 . S
C2061 H2065 0.930 . S
C2062 C2061 1.369 . S
C2062 C2071 1.429 . S
C2063 C2061 1.419 . S
C2063 C2064 1.363 . S
C2063 H2066 0.929 . S
C2064 C2063 1.363 . S
C2064 C2070 1.428 . S
H2065 C2061 0.930 . S
H2066 C2063 0.929 . S
S2067 N2068 1.613 . S
S2067 N2069 1.610 . S
N2068 S2067 1.613 . S
N2068 C2071 1.350 . S
N2069 S2067 1.610 . S
N2069 C2070 1.351 . S
C2070 C2064 1.428 . S
C2070 N2069 1.351 . S
C2070 C2071 1.434 . S
C2071 C2062 1.429 . S
C2071 N2068 1.350 . S
C2071 C2070 1.434 . S
C2072 C2073 1.369 . S
C2072 C2074 1.419 1_655 S
C2072 H2076 0.930 . S
C2073 C2072 1.369 . S
C2073 C2082 1.429 1_665 S
C2074 C2072 1.419 1_455 S
C2074 C2075 1.363 . S
C2074 H2077 0.929 . S
C2075 C2074 1.363 . S
C2075 C2081 1.428 . S
H2076 C2072 0.930 . S
H2077 C2074 0.929 . S
S2078 N2079 1.613 . S
S2078 N2080 1.610 . S
N2079 S2078 1.613 . S
N2079 C2082 1.350 . S
N2080 S2078 1.610 . S
N2080 C2081 1.351 1_545 S
C2081 C2075 1.428 . S
C2081 N2080 1.351 1_565 S
C2081 C2082 1.434 1_565 S
C2082 C2073 1.429 1_445 S
C2082 N2079 1.350 . S
C2082 C2081 1.434 1_545 S
C2083 C2084 1.369 . S
C2083 C2085 1.419 . S
C2083 H2087 0.930 . S
C2084 C2083 1.369 . S
C2084 C2093 1.429 . S
C2085 C2083 1.419 . S
C2085 C2086 1.363 . S
C2085 H2088 0.929 . S
C2086 C2085 1.363 . S
C2086 C2092 1.428 . S
H2087 C2083 0.930 . S
H2088 C2085 0.929 . S
S2089 N2090 1.613 . S
S2089 N2091 1.610 . S
N2090 S2089 1.613 . S
N2090 C2093 1.350 . S
N2091 S2089 1.610 . S
N2091 C2092 1.351 . S
C2092 C2086 1.428 . S
C2092 N2091 1.351 . S
C2092 C2093 1.434 . S
C2093 C2084 1.429 . S
C2093 N2090 1.350 . S
C2093 C2092 1.434 . S
C2094 C2095 1.369 1_455 S
C2094 C2096 1.419 . S
C2094 H2098 0.930 1_455 S
C2095 C2094 1.369 1_655 S
C2095 C2104 1.429 1_655 S
C2096 C2094 1.419 . S
C2096 C2097 1.363 . S
C2096 H2099 0.929 . S
C2097 C2096 1.363 . S
C2097 C2103 1.428 . S
H2098 C2094 0.930 1_655 S
H2099 C2096 0.929 . S
S2100 N2101 1.613 1_455 S
S2100 N2102 1.610 . S
N2101 S2100 1.613 1_655 S
N2101 C2104 1.350 1_655 S
N2102 S2100 1.610 . S
N2102 C2103 1.351 . S
C2103 C2097 1.428 . S
C2103 N2102 1.351 . S
C2103 C2104 1.434 . S
C2104 C2095 1.429 1_455 S
C2104 N2101 1.350 1_455 S
C2104 C2103 1.434 . S
C2105 C2106 1.369 1_545 S
C2105 C2107 1.419 1_545 S
C2105 H2109 0.930 . S
C2106 C2105 1.369 1_565 S
C2106 C2115 1.429 . S
C2107 C2105 1.419 1_565 S
C2107 C2108 1.363 . S
C2107 H2110 0.931 . S
C2108 C2107 1.363 . S
C2108 C2114 1.428 . S
H2109 C2105 0.930 . S
H2110 C2107 0.931 . S
S2111 N2112 1.613 . S
S2111 N2113 1.610 . S
N2112 S2111 1.613 . S
N2112 C2115 1.350 . S
N2113 S2111 1.610 . S
N2113 C2114 1.351 . S
C2114 C2108 1.428 . S
C2114 N2113 1.351 . S
C2114 C2115 1.434 . S
C2115 C2106 1.429 . S
C2115 N2112 1.350 . S
C2115 C2114 1.434 . S
C2116 C2117 1.369 . S
C2116 C2118 1.419 1_655 S
C2116 H2120 0.930 . S
C2117 C2116 1.369 . S
C2117 C2126 1.429 1_545 S
C2118 C2116 1.419 1_455 S
C2118 C2119 1.387 . S
C2118 H2121 0.929 . S
C2119 C2118 1.387 . S
C2119 C2125 1.411 1_445 S
H2120 C2116 0.930 . S
H2121 C2118 0.929 . S
S2122 N2123 1.613 . S
S2122 N2124 1.610 . S
N2123 S2122 1.613 . S
N2123 C2126 1.350 . S
N2124 S2122 1.610 . S
N2124 C2125 1.351 . S
C2125 C2119 1.411 1_665 S
C2125 N2124 1.351 . S
C2125 C2126 1.434 . S
C2126 C2117 1.429 1_565 S
C2126 N2123 1.350 . S
C2126 C2125 1.434 . S
C2127 C2128 1.369 . S
C2127 C2129 1.419 . S
C2127 H2131 0.930 . S
C2128 C2127 1.369 . S
C2128 C2137 1.429 . S
C2129 C2127 1.419 . S
C2129 C2130 1.363 . S
C2129 H2132 0.929 . S
C2130 C2129 1.363 . S
C2130 C2136 1.428 . S
H2131 C2127 0.930 . S
H2132 C2129 0.929 . S
S2133 N2134 1.613 . S
S2133 N2135 1.610 . S
N2134 S2133 1.613 . S
N2134 C2137 1.350 . S
N2135 S2133 1.610 . S
N2135 C2136 1.351 . S
C2136 C2130 1.428 . S
C2136 N2135 1.351 . S
C2136 C2137 1.434 . S
C2137 C2128 1.429 . S
C2137 N2134 1.350 . S
C2137 C2136 1.434 . S
C2138 C2139 1.369 1_655 S
C2138 C2140 1.419 . S
C2138 H2142 0.930 . S
C2139 C2138 1.369 1_455 S
C2139 C2148 1.429 . S
C2140 C2138 1.419 . S
C2140 C2141 1.363 . S
C2140 H2143 0.929 . S
C2141 C2140 1.363 . S
C2141 C2147 1.428 . S
H2142 C2138 0.930 . S
H2143 C2140 0.929 . S
S2144 N2145 1.613 . S
S2144 N2146 1.610 1_455 S
N2145 S2144 1.613 . S
N2145 C2148 1.350 . S
N2146 S2144 1.610 1_655 S
N2146 C2147 1.351 . S
C2147 C2141 1.428 . S
C2147 N2146 1.351 . S
C2147 C2148 1.434 1_655 S
C2148 C2139 1.429 . S
C2148 N2145 1.350 . S
C2148 C2147 1.434 1_455 S
C2149 C2150 1.369 1_565 S
C2149 C2151 1.419 . S
C2149 H2153 0.930 . S
C2150 C2149 1.369 1_545 S
C2150 C2159 1.429 . S
C2151 C2149 1.419 . S
C2151 C2152 1.363 1_565 S
C2151 H2154 0.929 . S
C2152 C2151 1.363 1_545 S
C2152 C2158 1.428 . S
H2153 C2149 0.930 . S
H2154 C2151 0.929 . S
S2155 N2156 1.613 . S
S2155 N2157 1.610 . S
N2156 S2155 1.613 . S
N2156 C2159 1.350 . S
N2157 S2155 1.610 . S
N2157 C2158 1.351 . S
C2158 C2152 1.428 . S
C2158 N2157 1.351 . S
C2158 C2159 1.434 . S
C2159 C2150 1.429 . S
C2159 N2156 1.350 . S
C2159 C2158 1.434 . S
C2160 C2161 1.369 1_655 S
C2160 C2162 1.419 1_554 S
C2160 H2164 0.930 . S
C2161 C2160 1.369 1_455 S
C2161 C2170 1.429 . S
C2162 C2160 1.419 1_556 S
C2162 C2163 1.363 . S
C2162 H2165 0.929 . S
C2163 C2162 1.363 . S
C2163 C2169 1.428 1_655 S
H2164 C2160 0.930 . S
H2165 C2162 0.929 . S
S2166 N2167 1.644 . S
S2166 N2168 1.579 1_554 S
N2167 S2166 1.644 . S
N2167 C2170 1.350 . S
N2168 S2166 1.579 1_556 S
N2168 C2169 1.351 . S
C2169 C2163 1.428 1_455 S
C2169 N2168 1.351 . S
C2169 C2170 1.434 1_556 S
C2170 C2161 1.429 . S
C2170 N2167 1.350 . S
C2170 C2169 1.434 1_554 S
C2171 C2172 1.369 . S
C2171 C2173 1.419 1_556 S
C2171 H2175 0.930 . S
C2172 C2171 1.369 . S
C2172 C2181 1.429 . S
C2173 C2171 1.419 1_554 S
C2173 C2174 1.363 . S
C2173 H2176 0.929 . S
C2174 C2173 1.363 . S
C2174 C2180 1.428 . S
H2175 C2171 0.930 . S
H2176 C2173 0.929 . S
S2177 N2178 1.613 . S
S2177 N2179 1.610 1_556 S
N2178 S2177 1.613 . S
N2178 C2181 1.350 . S
N2179 S2177 1.610 1_554 S
N2179 C2180 1.351 . S
C2180 C2174 1.428 . S
C2180 N2179 1.351 . S
C2180 C2181 1.434 1_554 S
C2181 C2172 1.429 . S
C2181 N2178 1.350 . S
C2181 C2180 1.434 1_556 S
C2182 C2183 1.369 1_455 S
C2182 C2184 1.419 . S
C2182 H2186 0.930 . S
C2183 C2182 1.369 1_655 S
C2183 C2192 1.429 . S
C2184 C2182 1.419 . S
C2184 C2185 1.363 . S
C2184 H2187 0.929 . S
C2185 C2184 1.363 . S
C2185 C2191 1.428 1_455 S
H2186 C2182 0.930 . S
H2187 C2184 0.929 . S
S2188 N2189 1.613 . S
S2188 N2190 1.610 . S
N2189 S2188 1.613 . S
N2189 C2192 1.350 . S
N2190 S2188 1.610 . S
N2190 C2191 1.351 . S
C2191 C2185 1.428 1_655 S
C2191 N2190 1.351 . S
C2191 C2192 1.434 . S
C2192 C2183 1.429 . S
C2192 N2189 1.350 . S
C2192 C2191 1.434 . S
C2193 C2194 1.369 . S
C2193 C2195 1.419 . S
C2193 H2197 0.930 . S
C2194 C2193 1.369 . S
C2194 C2203 1.429 . S
C2195 C2193 1.419 . S
C2195 C2196 1.363 . S
C2195 H2198 0.929 . S
C2196 C2195 1.363 . S
C2196 C2202 1.428 . S
H2197 C2193 0.930 . S
H2198 C2195 0.929 . S
S2199 N2200 1.613 . S
S2199 N2201 1.610 . S
N2200 S2199 1.613 . S
N2200 C2203 1.350 . S
N2201 S2199 1.610 . S
N2201 C2202 1.351 . S
C2202 C2196 1.428 . S
C2202 N2201 1.351 . S
C2202 C2203 1.434 . S
C2203 C2194 1.429 . S
C2203 N2200 1.350 . S
C2203 C2202 1.434 . S
C2204 C2205 1.369 . S
C2204 C2206 1.419 1_556 S
C2204 H2208 0.930 . S
C2205 C2204 1.369 . S
C2205 C2214 1.429 . S
C2206 C2204 1.419 1_554 S
C2206 C2207 1.363 . S
C2206 H2209 0.929 . S
C2207 C2206 1.363 . S
C2207 C2213 1.428 . S
H2208 C2204 0.930 . S
H2209 C2206 0.929 . S
S2210 N2211 1.613 1_554 S
S2210 N2212 1.610 . S
N2211 S2210 1.613 1_556 S
N2211 C2214 1.350 . S
N2212 S2210 1.610 . S
N2212 C2213 1.351 . S
C2213 C2207 1.428 . S
C2213 N2212 1.351 . S
C2213 C2214 1.434 1_554 S
C2214 C2205 1.429 . S
C2214 N2211 1.350 . S
C2214 C2213 1.434 1_556 S
C2215 C2216 1.369 . S
C2215 C2217 1.419 . S
C2215 H2219 0.930 . S
C2216 C2215 1.369 . S
C2216 C2225 1.429 1_655 S
C2217 C2215 1.419 . S
C2217 C2218 1.363 1_655 S
C2217 H2220 0.929 . S
C2218 C2217 1.363 1_455 S
C2218 C2224 1.428 . S
H2219 C2215 0.930 . S
H2220 C2217 0.929 . S
S2221 N2222 1.613 . S
S2221 N2223 1.610 . S
N2222 S2221 1.613 . S
N2222 C2225 1.350 . S
N2223 S2221 1.610 . S
N2223 C2224 1.351 . S
C2224 C2218 1.428 . S
C2224 N2223 1.351 . S
C2224 C2225 1.434 . S
C2225 C2216 1.429 1_455 S
C2225 N2222 1.350 . S
C2225 C2224 1.434 . S
C2226 C2227 1.369 . S
C2226 C2228 1.419 . S
C2226 H2230 0.930 . S
C2227 C2226 1.369 . S
C2227 C2236 1.429 . S
C2228 C2226 1.419 . S
C2228 C2229 1.363 . S
C2228 H2231 0.929 . S
C2229 C2228 1.363 . S
C2229 C2235 1.428 . S
H2230 C2226 0.930 . S
H2231 C2228 0.929 . S
S2232 N2233 1.613 . S
S2232 N2234 1.610 . S
N2233 S2232 1.613 . S
N2233 C2236 1.350 . S
N2234 S2232 1.610 . S
N2234 C2235 1.351 . S
C2235 C2229 1.428 . S
C2235 N2234 1.351 . S
C2235 C2236 1.434 . S
C2236 C2227 1.429 . S
C2236 N2233 1.350 . S
C2236 C2235 1.434 . S
C2237 C2238 1.369 1_545 S
C2237 C2239 1.419 . S
C2237 H2241 0.930 . S
C2238 C2237 1.369 1_565 S
C2238 C2247 1.429 1_455 S
C2239 C2237 1.419 . S
C2239 C2240 1.363 1_455 S
C2239 H2242 0.929 . S
C2240 C2239 1.363 1_655 S
C2240 C2246 1.428 1_545 S
H2241 C2237 0.930 . S
H2242 C2239 0.929 . S
S2243 N2244 1.613 . S
S2243 N2245 1.610 . S
N2244 S2243 1.613 . S
N2244 C2247 1.350 . S
N2245 S2243 1.610 . S
N2245 C2246 1.351 . S
C2246 C2240 1.428 1_565 S
C2246 N2245 1.351 . S
C2246 C2247 1.434 . S
C2247 C2238 1.429 1_655 S
C2247 N2244 1.350 . S
C2247 C2246 1.434 . S
C2248 C2249 1.369 . S
C2248 C2250 1.419 . S
C2248 H2252 0.930 . S
C2249 C2248 1.369 . S
C2249 C2258 1.429 . S
C2250 C2248 1.419 . S
C2250 C2251 1.363 . S
C2250 H2253 0.929 . S
C2251 C2250 1.363 . S
C2251 C2257 1.428 . S
H2252 C2248 0.930 . S
H2253 C2250 0.929 . S
S2254 N2255 1.613 . S
S2254 N2256 1.610 . S
N2255 S2254 1.613 . S
N2255 C2258 1.350 . S
N2256 S2254 1.610 . S
N2256 C2257 1.351 . S
C2257 C2251 1.428 . S
C2257 N2256 1.351 . S
C2257 C2258 1.434 . S
C2258 C2249 1.429 . S
C2258 N2255 1.350 . S
C2258 C2257 1.434 . S
C2259 C2260 1.369 . S
C2259 C2261 1.419 . S
C2259 H2263 0.930 . S
C2260 C2259 1.369 . S
C2260 C2269 1.429 1_545 S
C2261 C2259 1.419 . S
C2261 C2262 1.363 1_545 S
C2261 H2264 0.929 . S
C2262 C2261 1.363 1_565 S
C2262 C2268 1.428 . S
H2263 C2259 0.930 . S
H2264 C2261 0.929 . S
S2265 N2266 1.613 . S
S2265 N2267 1.610 . S
N2266 S2265 1.613 . S
N2266 C2269 1.350 . S
N2267 S2265 1.610 . S
N2267 C2268 1.351 . S
C2268 C2262 1.428 . S
C2268 N2267 1.351 . S
C2268 C2269 1.434 . S
C2269 C2260 1.429 1_565 S
C2269 N2266 1.350 . S
C2269 C2268 1.434 . S
C2270 C2271 1.369 . S
C2270 C2272 1.419 . S
C2270 H2274 0.930 . S
C2271 C2270 1.369 . S
C2271 C2280 1.429 . S
C2272 C2270 1.419 . S
C2272 C2273 1.363 . S
C2272 H2275 0.929 . S
C2273 C2272 1.363 . S
C2273 C2279 1.428 . S
H2274 C2270 0.930 . S
H2275 C2272 0.929 . S
S2276 N2277 1.613 . S
S2276 N2278 1.610 . S
N2277 S2276 1.613 . S
N2277 C2280 1.350 . S
N2278 S2276 1.610 . S
N2278 C2279 1.351 . S
C2279 C2273 1.428 . S
C2279 N2278 1.351 . S
C2279 C2280 1.434 . S
C2280 C2271 1.429 . S
C2280 N2277 1.350 . S
C2280 C2279 1.434 . S
C2281 C2282 1.369 . S
C2281 C2283 1.419 . S
C2281 H2285 0.930 . S
C2282 C2281 1.369 . S
C2282 C2291 1.429 1_565 S
C2283 C2281 1.419 . S
C2283 C2284 1.363 1_565 S
C2283 H2286 0.929 . S
C2284 C2283 1.363 1_545 S
C2284 C2290 1.428 . S
H2285 C2281 0.930 . S
H2286 C2283 0.929 . S
S2287 N2288 1.613 . S
S2287 N2289 1.610 . S
N2288 S2287 1.613 . S
N2288 C2291 1.350 . S
N2289 S2287 1.610 . S
N2289 C2290 1.351 . S
C2290 C2284 1.428 . S
C2290 N2289 1.351 . S
C2290 C2291 1.434 . S
C2291 C2282 1.429 1_545 S
C2291 N2288 1.350 . S
C2291 C2290 1.434 . S
C2292 C2293 1.369 . S
C2292 C2294 1.419 . S
C2292 H2296 0.930 . S
C2293 C2292 1.369 . S
C2293 C2302 1.429 . S
C2294 C2292 1.419 . S
C2294 C2295 1.363 . S
C2294 H2297 0.929 . S
C2295 C2294 1.363 . S
C2295 C2301 1.428 . S
H2296 C2292 0.930 . S
H2297 C2294 0.929 . S
S2298 N2299 1.613 . S
S2298 N2300 1.610 . S
N2299 S2298 1.613 . S
N2299 C2302 1.350 . S
N2300 S2298 1.610 . S
N2300 C2301 1.351 . S
C2301 C2295 1.428 . S
C2301 N2300 1.351 . S
C2301 C2302 1.434 . S
C2302 C2293 1.429 . S
C2302 N2299 1.350 . S
C2302 C2301 1.434 . S
C2303 C2304 1.369 . S
C2303 C2305 1.419 . S
C2303 H2307 0.930 . S
C2304 C2303 1.369 . S
C2304 C2313 1.429 . S
C2305 C2303 1.419 . S
C2305 C2306 1.363 . S
C2305 H2308 0.929 . S
C2306 C2305 1.363 . S
C2306 C2312 1.428 . S
H2307 C2303 0.930 . S
H2308 C2305 0.929 . S
S2309 N2310 1.613 . S
S2309 N2311 1.610 . S
N2310 S2309 1.613 . S
N2310 C2313 1.350 . S
N2311 S2309 1.610 . S
N2311 C2312 1.351 . S
C2312 C2306 1.428 . S
C2312 N2311 1.351 . S
C2312 C2313 1.434 . S
C2313 C2304 1.429 . S
C2313 N2310 1.350 . S
C2313 C2312 1.434 . S
C2314 C2315 1.369 . S
C2314 C2316 1.419 . S
C2314 H2318 0.930 . S
C2315 C2314 1.369 . S
C2315 C2324 1.429 . S
C2316 C2314 1.419 . S
C2316 C2317 1.363 . S
C2316 H2319 0.929 . S
C2317 C2316 1.363 . S
C2317 C2323 1.428 . S
H2318 C2314 0.930 . S
H2319 C2316 0.929 . S
S2320 N2321 1.613 . S
S2320 N2322 1.610 . S
N2321 S2320 1.613 . S
N2321 C2324 1.350 . S
N2322 S2320 1.610 . S
N2322 C2323 1.351 . S
C2323 C2317 1.428 . S
C2323 N2322 1.351 . S
C2323 C2324 1.434 . S
C2324 C2315 1.429 . S
C2324 N2321 1.350 . S
C2324 C2323 1.434 . S
C2325 C2326 1.369 . S
C2325 C2327 1.419 1_554 S
C2325 H2329 0.930 . S
C2326 C2325 1.369 . S
C2326 C2335 1.429 1_565 S
C2327 C2325 1.419 1_556 S
C2327 C2328 1.363 1_565 S
C2327 H2330 0.929 . S
C2328 C2327 1.363 1_545 S
C2328 C2334 1.428 . S
H2329 C2325 0.930 . S
H2330 C2327 0.929 . S
S2331 N2332 1.613 . S
S2331 N2333 1.610 1_554 S
N2332 S2331 1.613 . S
N2332 C2335 1.350 . S
N2333 S2331 1.610 1_556 S
N2333 C2334 1.351 . S
C2334 C2328 1.428 . S
C2334 N2333 1.351 . S
C2334 C2335 1.434 1_556 S
C2335 C2326 1.429 1_545 S
C2335 N2332 1.350 . S
C2335 C2334 1.434 1_554 S
C1281 C10 1.643 . S
C1283 C1010 1.645 . S
C1292 C970 1.645 . S
C1294 C50 1.646 . S
C1303 C1090 1.644 . S
C1305 C90 1.643 . S
C1314 C130 1.646 . S
C1316 C1050 1.644 . S
C1325 C179 1.646 . S
C1327 C1179 1.644 . S
C1336 C219 1.644 . S
C1338 C1139 1.643 . S
C1347 C259 1.643 . S
C1349 C1259 1.644 . S
C1358 C1219 1.644 . S
C1360 C299 1.643 . S
C1369 C330 1.646 . S
C1371 C690 1.645 . S
C1380 C370 1.644 . S
C1382 C650 1.645 . S
C1391 C410 1.643 . S
C1393 C770 1.644 . S
C1402 C730 1.646 . S
C1404 C450 1.645 . S
C1413 C499 1.645 . S
C1415 C859 1.644 . S
C1424 C539 1.643 . S
C1426 C819 1.643 . S
C1435 C939 1.645 . S
C1437 C579 1.644 . S
C1446 C619 1.642 . S
C1448 C899 1.643 . S
C1457 C9 1.707 . S
C1459 C129 1.707 . S
C1468 C49 1.711 . S
C1470 C89 1.710 . S
C1479 C298 1.708 . S
C1481 C178 1.709 . S
C1490 C258 1.709 . S
C1492 C218 1.708 . S
C1501 C329 1.707 . S
C1503 C449 1.707 . S
C1512 C369 1.706 . S
C1514 C409 1.707 . S
C1523 C498 1.708 . S
C1525 C618 1.709 . S
C1534 C578 1.707 . S
C1536 C538 1.708 . S
C1545 C649 1.710 . S
C1547 C769 1.709 . S
C1556 C689 1.711 . S
C1558 C729 1.710 . S
C1567 C938 1.711 . S
C1569 C818 1.710 . S
C1578 C858 1.710 . S
C1580 C898 1.709 . S
C1589 C1089 1.706 . S
C1591 C969 1.707 . S
C1600 C1009 1.709 . S
C1602 C1049 1.710 . S
C1611 C1258 1.710 . S
C1613 C1138 1.709 . S
C1622 C1218 1.711 . S
C1624 C1178 1.710 . S
C1633 C59 1.536 . S
C1635 C19 1.543 . S
C1644 C99 1.542 . S
C1646 C139 1.538 . S
C1655 C210 1.542 . S
C1657 C170 1.537 . S
C1666 C290 1.542 . S
C1668 C250 1.537 . S
C1677 C339 1.544 . S
C1679 C379 1.537 . S
C1688 C419 1.543 . S
C1690 C459 1.540 . S
C1699 C530 1.542 . S
C1701 C490 1.537 . S
C1710 C570 1.536 . S
C1712 C610 1.544 . S
C1721 C659 1.545 . S
C1723 C699 1.538 . S
C1732 C779 1.537 . S
C1734 C739 1.541 . S
C1743 C810 1.537 . S
C1745 C850 1.541 . S
C1754 C890 1.537 . S
C1756 C930 1.541 . S
C1765 C979 1.540 . S
C1767 C1019 1.538 . S
C1776 C1059 1.545 . S
C1778 C1099 1.539 . S
C1787 C1170 1.537 . S
C1789 C1130 1.544 . S
C1798 C1210 1.544 . S
C1800 C1250 1.540 . S
C1809 C6 1.617 . S
C1811 C15 1.624 . S
C1820 C46 1.622 . S
C1822 C55 1.620 . S
C1831 C86 1.625 . S
C1833 C95 1.618 . S
C1842 C135 1.617 . S
C1844 C126 1.624 . S
C1853 C166 1.622 . S
C1855 C175 1.620 . S
C1864 C215 1.619 . S
C1866 C206 1.623 . S
C1875 C246 1.618 . S
C1877 C255 1.623 . S
C1886 C286 1.624 . S
C1888 C295 1.618 . S
C1897 C335 1.617 1_565 S
C1899 C326 1.624 . S
C1908 C366 1.625 . S
C1910 C375 1.618 . S
C1919 C406 1.617 . S
C1921 C415 1.624 . S
C1930 C455 1.623 1_565 S
C1932 C446 1.618 . S
C1941 C486 1.617 1_545 S
C1943 C495 1.624 . S
C1952 C535 1.623 . S
C1954 C526 1.619 . S
C1963 C575 1.620 . S
C1965 C566 1.622 . S
C1974 C606 1.618 1_545 S
C1976 C615 1.622 . S
C1985 C646 1.620 . S
C1987 C655 1.621 . S
C1996 C695 1.617 . S
C1998 C686 1.624 . S
C2007 C735 1.622 . S
C2009 C726 1.620 . S
C2018 C766 1.625 . S
C2020 C775 1.618 . S
C2029 C815 1.625 . S
C2031 C806 1.618 . S
C2040 C855 1.625 . S
C2042 C846 1.618 . S
C2051 C886 1.617 . S
C2053 C895 1.624 . S
C2062 C935 1.617 . S
C2064 C926 1.624 . S
C2073 C975 1.624 1_565 S
C2075 C966 1.619 . S
C2084 C1006 1.618 . S
C2086 C1015 1.624 . S
C2095 C1055 1.623 . S
C2097 C1046 1.619 . S
C2106 C1095 1.618 1_565 S
C2108 C1086 1.623 . S
C2117 C1135 1.617 . S
C2119 C1126 1.622 1_545 S
C2128 C1175 1.624 . S
C2130 C1166 1.619 . S
C2139 C1206 1.617 . S
C2141 C1215 1.623 . S
C2150 C1246 1.619 1_545 S
C2152 C1255 1.623 . S
C2161 C18 1.480 . S
C2163 C169 1.481 . S
C2172 C1169 1.484 . S
C2174 C58 1.478 . S
C2183 C569 1.477 . S
C2185 C98 1.484 . S
C2194 C138 1.478 . S
C2196 C929 1.483 . S
C2205 C209 1.478 . S
C2207 C1018 1.483 . S
C2216 C249 1.485 . S
C2218 C418 1.478 . S
C2227 C289 1.484 . S
C2229 C778 1.479 . S
C2238 C338 1.481 . S
C2240 C489 1.481 . S
C2249 C849 1.481 . S
C2251 C378 1.481 . S
C2260 C1249 1.476 . S
C2262 C458 1.484 . S
C2271 C529 1.476 . S
C2273 C698 1.484 . S
C2282 C1098 1.482 . S
C2284 C609 1.480 . S
C2293 C658 1.484 . S
C2295 C809 1.478 . S
C2304 C1209 1.479 . S
C2306 C738 1.482 . S
C2315 C889 1.478 . S
C2317 C1058 1.483 . S
C2326 C978 1.485 . S
C2328 C1129 1.478 . S
