# Generated by pormake.
# Topology xfw, (5)-cn, num edge types: 1
# Building blocks:
#     Node 0, Type 0, BuildingBlock: XOMCOT_clean_sbu_0, # of connection points: 5
#     Node 1, Type 0, BuildingBlock: XOMCOT_clean_sbu_0, # of connection points: 5
#     Node 2, Type 0, BuildingBlock: XOMCOT_clean_sbu_0, # of connection points: 5
#     Node 3, Type 0, BuildingBlock: XOMCOT_clean_sbu_0, # of connection points: 5
#     Node 4, Type 0, BuildingBlock: XOMCOT_clean_sbu_0, # of connection points: 5
#     Node 5, Type 0, BuildingBlock: XOMCOT_clean_sbu_0, # of connection points: 5
#     Node 6, Type 0, BuildingBlock: XOMCOT_clean_sbu_0, # of connection points: 5
#     Node 7, Type 0, BuildingBlock: XOMCOT_clean_sbu_0, # of connection points: 5
#     Edge 8, Type (0, 0), BuildingBlock: EZIPEK_clean_linker_0, # of connection points: 2
#     Edge 9, Type (0, 0), BuildingBlock: EZIPEK_clean_linker_0, # of connection points: 2
#     Edge 10, Type (0, 0), BuildingBlock: EZIPEK_clean_linker_0, # of connection points: 2
#     Edge 11, Type (0, 0), BuildingBlock: EZIPEK_clean_linker_0, # of connection points: 2
#     Edge 12, Type (0, 0), BuildingBlock: EZIPEK_clean_linker_0, # of connection points: 2
#     Edge 13, Type (0, 0), BuildingBlock: EZIPEK_clean_linker_0, # of connection points: 2
#     Edge 14, Type (0, 0), BuildingBlock: EZIPEK_clean_linker_0, # of connection points: 2
#     Edge 15, Type (0, 0), BuildingBlock: EZIPEK_clean_linker_0, # of connection points: 2
#     Edge 16, Type (0, 0), BuildingBlock: EZIPEK_clean_linker_0, # of connection points: 2
#     Edge 17, Type (0, 0), BuildingBlock: EZIPEK_clean_linker_0, # of connection points: 2
#     Edge 18, Type (0, 0), BuildingBlock: EZIPEK_clean_linker_0, # of connection points: 2
#     Edge 19, Type (0, 0), BuildingBlock: EZIPEK_clean_linker_0, # of connection points: 2
#     Edge 20, Type (0, 0), BuildingBlock: EZIPEK_clean_linker_0, # of connection points: 2
#     Edge 21, Type (0, 0), BuildingBlock: EZIPEK_clean_linker_0, # of connection points: 2
#     Edge 22, Type (0, 0), BuildingBlock: EZIPEK_clean_linker_0, # of connection points: 2
#     Edge 23, Type (0, 0), BuildingBlock: EZIPEK_clean_linker_0, # of connection points: 2
#     Edge 24, Type (0, 0), BuildingBlock: EZIPEK_clean_linker_0, # of connection points: 2
#     Edge 25, Type (0, 0), BuildingBlock: EZIPEK_clean_linker_0, # of connection points: 2
#     Edge 26, Type (0, 0), BuildingBlock: EZIPEK_clean_linker_0, # of connection points: 2
#     Edge 27, Type (0, 0), BuildingBlock: EZIPEK_clean_linker_0, # of connection points: 2
# Relax obj value: 0.364
# Max RMSD: 0.298
# Mean RMSD: 0.298
data_MOF--net-xfw--node1-XOMCOT_clean_sbu_0--edge1-EZIPEK_clean_linker_0
_symmetry_space_group_name_H-M    P1
_symmetry_Int_Tables_number       1
_symmetry_cell_setting            triclinic
loop_
_symmetry_equiv_pos_as_xyz
'x, y, z'
_cell_length_a     23.418433
_cell_length_b     23.77909
_cell_length_c     43.972852
_cell_angle_alpha  90.146179
_cell_angle_beta   90.302373
_cell_angle_gamma 88.550938
loop_
_atom_site_label
_atom_site_type_symbol
_atom_site_fract_x
_atom_site_fract_y
_atom_site_fract_z
_atom_type_partial_charge
Co0 Co 0.1627 0.07665 0.61859 0.0
C1 C 0.18573 0.11137 0.68183 0.0
C2 C 0.18435 0.18244 0.65184 0.0
C3 C 0.18872 0.20172 0.68135 0.0
N4 N 0.18188 0.1258 0.65221 0.0
N5 N 0.18933 0.15693 0.7 0.0
H6 H 0.1825 0.0688 0.69014 0.0
H7 H 0.1807 0.20836 0.63178 0.0
C8 C 0.18024 0.15824 0.56456 0.0
O9 O 0.21708 0.1932 0.55327 0.0
N10 N 0.14168 0.02727 0.58451 0.0
C11 C 0.08956 0.02756 0.57102 0.0
C12 C 0.08667 -0.01627 0.55072 0.0
C13 C 0.17012 -0.01704 0.57138 0.0
N14 N 0.13707 0.9556 0.55111 0.0
C15 C 0.24673 -0.01337 0.63054 0.0
C16 C 0.34039 0.05441 0.6251 0.0
C17 C 0.34986 -0.00305 0.63044 0.0
C18 C 0.30211 0.96273 0.63338 0.0
C19 C 0.28503 0.07581 0.62102 0.0
N20 N 0.23889 0.04185 0.62257 0.0
H21 H 0.21013 0.96041 0.63355 0.0
H22 H 0.2796 0.12046 0.61735 0.0
H23 H 0.05467 0.05662 0.576 0.0
H24 H 0.21353 0.96993 0.57638 0.0
O25 O 0.12016 0.03041 0.64639 0.0
O26 O 0.08448 0.1039 0.62203 0.0
O27 O 0.19388 0.13321 0.58935 0.0
C28 C 0.07702 0.06525 0.64237 0.0
H29 H 0.18858 0.24522 0.68867 0.0
H30 H 0.04971 0.97205 0.53745 0.0
H31 H 0.37591 0.08257 0.62349 0.0
H32 H 0.30758 0.91815 0.63786 0.0
Co33 Co 0.05759 0.79339 0.41296 0.0
C34 C 0.11225 0.81286 0.35342 0.0
C35 C 0.17401 0.79084 0.38762 0.0
C36 C 0.20103 0.79125 0.35991 0.0
N37 N 0.11828 0.80533 0.38378 0.0
N38 N 0.1622 0.80554 0.33847 0.0
H39 H 0.07159 0.81881 0.34199 0.0
H40 H 0.19317 0.77574 0.40844 0.0
C41 C 0.1135 0.77166 0.47425 0.0
O42 O 0.07356 0.73674 0.48181 0.0
N43 N -0.00482 0.77844 0.44126 0.0
C44 C 0.95996 0.73427 0.43945 0.0
C45 C 0.92027 0.7378 0.46216 0.0
C46 C 0.97508 0.80904 0.46524 0.0
N47 N 0.92921 0.78488 0.47819 0.0
C48 C 0.02925 0.69813 0.37645 0.0
C49 C 0.08485 0.61709 0.41141 0.0
C50 C 0.04695 0.60008 0.38861 0.0
C51 C 0.02085 0.64123 0.37014 0.0
C52 C 0.09149 0.67444 0.4172 0.0
N53 N 0.06092 0.7141 0.40108 0.0
H54 H 0.00686 0.72933 0.36282 0.0
H55 H 0.1199 0.68618 0.43526 0.0
H56 H 0.96173 0.70114 0.42276 0.0
H57 H -0.00659 0.84787 0.47305 0.0
O58 O 0.00015 0.82463 0.38436 0.0
O59 O 0.04686 0.87316 0.41893 0.0
O60 O 0.11731 0.7867 0.44646 0.0
C61 C 0.00947 0.8731 0.39722 0.0
H62 H 0.24515 0.77926 0.35557 0.0
H63 H 0.8869 0.70822 0.46654 0.0
H64 H 0.10676 0.58624 0.42565 0.0
H65 H -0.00803 0.62954 0.35201 0.0
Co66 Co 0.79426 0.93697 0.63307 0.0
C67 C 0.80219 0.87998 0.69256 0.0
C68 C 0.82662 0.82196 0.65743 0.0
C69 C 0.83077 0.79473 0.68501 0.0
N70 N 0.80806 0.87558 0.66198 0.0
N71 N 0.81592 0.83151 0.70706 0.0
H72 H 0.78946 0.91824 0.70429 0.0
H73 H 0.83826 0.8032 0.63608 0.0
C74 C 0.79574 0.84047 0.58437 0.0
O75 O 0.76169 0.80459 0.59725 0.0
N76 N 0.77869 -0.00123 0.6057 0.0
C77 C 0.7393 0.04016 0.61049 0.0
C78 C 0.73557 0.07339 0.58505 0.0
C79 C 0.79912 0.00765 0.57753 0.0
N80 N 0.77299 0.0528 0.56447 0.0
C81 C 0.68439 0.94661 0.66171 0.0
C82 C 0.62115 0.91206 0.61209 0.0
C83 C 0.59224 0.93537 0.63713 0.0
C84 C 0.62462 0.95179 0.66244 0.0
C85 C 0.6808 0.91044 0.61165 0.0
N86 N 0.71192 0.9274 0.63626 0.0
H87 H 0.70863 0.96192 0.68081 0.0
H88 H 0.70125 0.8994 0.59058 0.0
H89 H 0.71456 0.04556 0.63102 0.0
H90 H 0.83192 -0.01823 0.56676 0.0
O91 O 0.80952 -0.00803 0.66537 0.0
O92 O 0.87334 0.95389 0.634 0.0
O93 O 0.80525 0.88799 0.59629 0.0
C94 C 0.86244 -0.01181 0.65605 0.0
H95 H 0.84548 0.75176 0.68873 0.0
H96 H 0.70827 0.11038 0.58196 0.0
H97 H 0.5978 0.89946 0.59197 0.0
H98 H 0.60401 0.97056 0.68213 0.0
Co99 Co 0.89138 0.19895 0.4067 0.0
C100 C 0.85511 0.18971 0.34221 0.0
C101 C 0.78415 0.18393 0.37266 0.0
C102 C 0.76414 0.17878 0.34329 0.0
N103 N 0.84116 0.19046 0.37198 0.0
N104 N 0.80872 0.18266 0.32427 0.0
H105 H 0.89825 0.19336 0.33384 0.0
H106 H 0.75868 0.18231 0.393 0.0
C107 C 0.80811 0.16561 0.45114 0.0
O108 O 0.78842 0.21731 0.44708 0.0
N109 N 0.94021 0.20858 0.44202 0.0
C110 C 0.94631 0.25781 0.45673 0.0
C111 C 0.98344 0.24986 0.48073 0.0
C112 C 0.97277 0.17075 0.45784 0.0
N113 N 0.00015 0.19522 0.4814 0.0
C114 C 0.98155 0.26902 0.38555 0.0
C115 C 0.91055 0.36355 0.3802 0.0
C116 C 0.96986 0.36999 0.37973 0.0
C117 C 0.00561 0.32183 0.38135 0.0
C118 C 0.88839 0.31029 0.3848 0.0
N119 N 0.92384 0.2645 0.38844 0.0
H120 H 0.00933 0.23262 0.38919 0.0
H121 H 0.84288 0.30612 0.38784 0.0
H122 H 0.92476 0.29685 0.45049 0.0
H123 H 0.97715 0.12659 0.45229 0.0
O124 O 0.94742 0.142 0.38896 0.0
O125 O 0.87874 0.11752 0.41634 0.0
O126 O 0.84583 0.145 0.43258 0.0
C127 C 0.92156 0.10067 0.40023 0.0
H128 H 0.72043 0.17192 0.33637 0.0
H129 H -0.00291 0.2817 0.49665 0.0
H130 H 0.88182 0.39994 0.37924 0.0
H131 H 0.05161 0.32548 0.38135 0.0
Co132 Co 0.81744 0.03161 0.12918 0.0
C133 C 0.78497 0.10212 0.1812 0.0
C134 C 0.82536 0.15111 0.147 0.0
C135 C 0.82307 0.18196 0.1737 0.0
N136 N 0.80207 0.10074 0.15183 0.0
N137 N 0.79834 0.1507 0.19526 0.0
H138 H 0.77005 0.06557 0.19313 0.0
H139 H 0.84991 0.16139 0.12719 0.0
C140 C 0.81807 0.09412 0.06542 0.0
O141 O 0.78004 0.10939 0.04476 0.0
N142 N 0.83287 0.96072 0.10755 0.0
C143 C 0.87424 0.92176 0.11398 0.0
C144 C 0.8739 0.88037 0.09218 0.0
C145 C 0.80689 0.94112 0.08212 0.0
N146 N 0.83184 0.89247 0.07211 0.0
C147 C 0.72226 0.95986 0.14063 0.0
C148 C 0.63908 0.04144 0.12804 0.0
C149 C 0.62228 -0.01325 0.13468 0.0
C150 C 0.66464 0.94551 0.14098 0.0
C151 C 0.69691 0.05327 0.1265 0.0
N152 N 0.73767 0.01278 0.13265 0.0
H153 H 0.75465 0.92821 0.14607 0.0
H154 H 0.70903 0.09523 0.12025 0.0
H155 H 0.90394 0.92317 0.13278 0.0
H156 H 0.77125 0.96241 0.0709 0.0
O157 O 0.84716 -0.00062 0.16634 0.0
O158 O 0.8981 0.04552 0.13285 0.0
O159 O 0.79897 0.06935 0.08906 0.0
C160 C 0.89586 0.02069 0.15919 0.0
H161 H 0.84376 0.22147 0.17786 0.0
H162 H 0.90264 0.84404 0.09099 0.0
H163 H 0.6076 0.07445 0.12323 0.0
H164 H 0.65319 0.90278 0.14622 0.0
Co165 Co 0.07919 0.15441 0.90708 0.0
C166 C 0.13986 0.17307 0.84945 0.0
C167 C 0.17178 0.09897 0.8719 0.0
C168 C 0.19366 0.09946 0.843 0.0
N169 N 0.13865 0.14564 0.87641 0.0
N170 N 0.173 0.14565 0.82886 0.0
H171 H 0.1122 0.20857 0.8437 0.0
H172 H 0.17463 0.06331 0.88705 0.0
C173 C 0.17923 0.138 0.94917 0.0
O174 O 0.21521 0.11932 0.92862 0.0
N175 N 0.01864 0.16249 0.93709 0.0
C176 C 0.96486 0.18239 0.93238 0.0
C177 C 0.93402 0.1768 0.95862 0.0
C178 C 0.01964 0.14528 0.96646 0.0
N179 N 0.96828 0.15325 0.97995 0.0
C180 C 0.02714 0.2535 0.88116 0.0
C181 C 0.09911 0.33038 0.90728 0.0
C182 C 0.04931 0.34994 0.89244 0.0
C183 C 0.01405 0.31079 0.87851 0.0
C184 C 0.10975 0.27241 0.91018 0.0
N185 N 0.07235 0.23474 0.89842 0.0
H186 H -0.00066 0.22411 0.8702 0.0
H187 H 0.14753 0.25835 0.92237 0.0
H188 H 0.94769 0.19741 0.91103 0.0
H189 H 0.05633 0.12569 0.97749 0.0
O190 O 0.02503 0.12521 0.87754 0.0
O191 O 0.07525 0.07423 0.9108 0.0
O192 O 0.13446 0.1666 0.94175 0.0
C193 C 0.03784 0.07606 0.88897 0.0
H194 H 0.2178 0.06564 0.83214 0.0
H195 H 0.88922 0.18766 0.96164 0.0
H196 H 0.12811 0.35966 0.91766 0.0
H197 H 0.97588 0.32437 0.86629 0.0
Co198 Co 0.17598 0.93678 0.139 0.0
C199 C 0.19371 0.87416 0.19616 0.0
C200 C 0.18128 0.8159 0.15983 0.0
C201 C 0.18507 0.78638 0.18679 0.0
N202 N 0.187 0.87133 0.16559 0.0
N203 N 0.19103 0.8235 0.20968 0.0
H204 H 0.19726 0.91288 0.20887 0.0
H205 H 0.17094 0.79749 0.13827 0.0
C206 C 0.17778 0.84808 0.08497 0.0
O207 O 0.22209 0.81528 0.09156 0.0
N208 N 0.16572 0.00258 0.11296 0.0
C209 C 0.13821 0.05191 0.11915 0.0
C210 C 0.13803 0.08537 0.09369 0.0
C211 C 0.18265 0.00743 0.08375 0.0
N212 N 0.16614 0.05733 0.07158 0.0
C213 C 0.28647 0.96738 0.15948 0.0
C214 C 0.34833 0.92694 0.11043 0.0
C215 C 0.37737 0.9524 0.13452 0.0
C216 C 0.3456 0.97339 0.15911 0.0
C217 C 0.28883 0.92401 0.11111 0.0
N218 N 0.25856 0.94292 0.13572 0.0
H219 H 0.26323 -0.01737 0.17905 0.0
H220 H 0.26785 0.90755 0.09148 0.0
H221 H 0.11869 0.06329 0.14036 0.0
H222 H 0.20489 0.97467 0.07111 0.0
O223 O 0.16109 -0.01647 0.17491 0.0
O224 O 0.09657 0.93747 0.14833 0.0
O225 O 0.16397 0.89029 0.1014 0.0
C226 C 0.10829 0.96844 0.17166 0.0
H227 H 0.17948 0.74164 0.18959 0.0
H228 H 0.11824 0.1268 0.0914 0.0
H229 H 0.37141 0.91076 0.09085 0.0
H230 H 0.36648 -0.00628 0.17808 0.0
Co231 Co 0.91574 0.77177 0.91564 0.0
C232 C 0.86692 0.80163 0.85498 0.0
C233 C 0.81304 0.74642 0.87958 0.0
C234 C 0.79191 0.75212 0.85037 0.0
N235 N 0.86047 0.77712 0.88247 0.0
N236 N 0.82598 0.78676 0.83499 0.0
H237 H 0.90259 0.82697 0.84878 0.0
H238 H 0.7968 0.71888 0.89685 0.0
C239 C 0.85588 0.74647 0.9733 0.0
O240 O 0.89791 0.71391 0.9834 0.0
N241 N 0.97347 0.76499 0.9481 0.0
C242 C 0.00993 0.72057 0.95271 0.0
C243 C 0.04713 0.73255 0.97575 0.0
C244 C -0.0102 0.80372 0.96893 0.0
N245 N 0.03466 0.78459 0.98582 0.0
C246 C 0.97408 0.68174 0.88458 0.0
C247 C 0.91706 0.5947 0.91156 0.0
C248 C 0.96591 0.58223 0.8943 0.0
C249 C -0.00645 0.62635 0.87993 0.0
C250 C 0.90002 0.65072 0.91637 0.0
N251 N 0.93023 0.69353 0.90417 0.0
H252 H -0.00296 0.71534 0.87416 0.0
H253 H 0.86366 0.65909 0.93071 0.0
H254 H 0.01034 0.68114 0.94069 0.0
H255 H 0.96968 0.84465 0.97183 0.0
O256 O 0.9728 0.81015 0.8917 0.0
O257 O 0.90901 0.85109 0.92111 0.0
O258 O 0.85164 0.75591 0.9448 0.0
C259 C 0.95125 0.85699 0.90274 0.0
H260 H 0.75591 0.73052 0.84072 0.0
H261 H 0.0809 0.70515 0.98459 0.0
H262 H 0.89401 0.56146 0.92249 0.0
H263 H 0.03106 0.61819 0.86614 0.0
C264 C 0.17734 0.90157 0.50771 0.0
C265 C 0.14862 0.90261 0.53592 0.0
C266 C 0.12564 0.80309 0.52923 0.0
C267 C 0.14221 0.80667 0.49835 0.0
N268 N 0.21295 0.84487 0.46557 0.0
N269 N 0.10117 0.85356 0.57576 0.0
C270 C 0.17721 0.8517 0.48973 0.0
C271 C 0.12537 0.85264 0.5476 0.0
N272 N 0.20245 0.9491 0.49767 0.0
N273 N 0.11392 0.75188 0.54128 0.0
H274 H 0.10273 0.88873 0.58996 0.0
H275 H 0.07805 0.82058 0.58457 0.0
H276 H 0.1201 0.71475 0.52889 0.0
H277 H 0.10518 0.74546 0.56417 0.0
H278 H 0.21818 0.95377 0.47575 0.0
H279 H 0.2055 -0.01526 0.51134 0.0
H280 H 0.24209 0.87465 0.4588 0.0
H281 H 0.2186 0.80572 0.45514 0.0
C282 C 0.80251 0.8198 0.52821 0.0
C283 C 0.82971 0.82503 0.55697 0.0
C284 C 0.92245 0.80298 0.53346 0.0
C285 C 0.8964 0.80251 0.50444 0.0
N286 N 0.81299 0.81839 0.47325 0.0
N287 N 0.91828 0.83454 0.5854 0.0
C288 C 0.83664 0.81311 0.50157 0.0
C289 C 0.89043 0.82085 0.55911 0.0
N290 N 0.74421 0.82159 0.52632 0.0
N291 N 0.97698 0.78258 0.53698 0.0
H292 H 0.89779 0.84645 0.60536 0.0
H293 H 0.96242 0.83886 0.5866 0.0
H294 H 0.00095 0.76708 0.51889 0.0
H295 H -0.00426 0.77507 0.55817 0.0
H296 H 0.72162 0.81216 0.50658 0.0
H297 H 0.71803 0.82906 0.54507 0.0
H298 H 0.77095 0.83175 0.46927 0.0
H299 H 0.83701 0.81395 0.45347 0.0
C300 C 0.81104 0.13145 0.53573 0.0
C301 C 0.7855 0.07833 0.53575 0.0
C302 C 0.77715 0.08051 0.48015 0.0
C303 C 0.79841 0.13605 0.48029 0.0
N304 N 0.83393 0.21592 0.50844 0.0
N305 N 0.73919 0.00345 0.50951 0.0
C306 C 0.81451 0.16214 0.50818 0.0
C307 C 0.7677 0.05282 0.50832 0.0
N308 N 0.83414 0.15118 0.56219 0.0
N309 N 0.7657 0.05443 0.45312 0.0
H310 H 0.73179 -0.01749 0.52987 0.0
H311 H 0.71971 -0.01509 0.49082 0.0
H312 H 0.76739 0.07481 0.43218 0.0
H313 H 0.75716 0.01183 0.45119 0.0
H314 H 0.85653 0.1882 0.56412 0.0
H315 H 0.83463 0.12788 0.58224 0.0
H316 H 0.83779 0.24006 0.52807 0.0
H317 H 0.84501 0.23785 0.48903 0.0
C318 C 0.13366 0.12965 0.5164 0.0
C319 C 0.12724 0.14935 0.54671 0.0
C320 C 0.02878 0.17836 0.53469 0.0
C321 C 0.03955 0.17032 0.5033 0.0
N322 N 0.10564 0.14267 0.46376 0.0
N323 N 0.07011 0.20049 0.58352 0.0
C324 C 0.09249 0.14589 0.49394 0.0
C325 C 0.07477 0.17497 0.5558 0.0
N326 N 0.18047 0.09721 0.50898 0.0
N327 N 0.97448 0.1901 0.54413 0.0
H328 H 0.10346 0.2004 0.59925 0.0
H329 H 0.03469 0.2251 0.5899 0.0
H330 H 0.94026 0.19153 0.52887 0.0
H331 H 0.96315 0.19209 0.567 0.0
H332 H 0.18572 0.07803 0.48782 0.0
H333 H 0.21125 0.08515 0.52512 0.0
H334 H 0.14602 0.13095 0.45579 0.0
H335 H 0.07796 0.15649 0.44661 0.0
C336 C 0.81842 0.84206 0.99079 0.0
C337 C 0.82442 0.78318 0.99588 0.0
C338 C 0.80714 0.80054 0.05021 0.0
C339 C 0.81841 0.85825 0.04586 0.0
N340 N 0.83589 0.93451 1.01128 0.0
N341 N 0.8123 0.7054 0.02984 0.0
C342 C 0.82336 0.8795 1.01591 0.0
C343 C 0.81423 0.76214 0.02548 0.0
N344 N 0.80619 0.86233 0.96244 0.0
N345 N 0.78938 0.78308 0.07807 0.0
H346 H 0.81188 0.6771 1.01164 0.0
H347 H 0.81201 0.68652 0.05116 0.0
H348 H 0.78243 0.81127 0.096 0.0
H349 H 0.77658 0.74238 0.08263 0.0
H350 H 0.79835 0.90487 0.95804 0.0
H351 H 0.79503 0.83631 0.9444 0.0
H352 H 0.84598 0.95052 0.99002 0.0
H353 H 0.84019 0.96337 0.02887 0.0
C354 C 0.88725 0.16729 0.0521 0.0
C355 C 0.87839 0.10982 0.05906 0.0
C356 C 0.94577 0.08154 1.01893 0.0
C357 C 0.9502 0.13852 1.01021 0.0
N358 N 0.94255 0.23563 0.0245 0.0
N359 N 0.92165 0.01764 0.05915 0.0
C360 C 0.92728 0.1814 0.02924 0.0
C361 C 0.9153 0.06868 0.04578 0.0
N362 N 0.85322 0.20788 0.06524 0.0
N363 N 0.96717 0.03951 1.00078 0.0
H364 H 0.90332 0.01097 0.08007 0.0
H365 H 0.95064 -0.01352 0.05194 0.0
H366 H -0.01085 0.04697 0.98075 0.0
H367 H 0.95957 -0.00289 1.0046 0.0
H368 H 0.85262 0.24994 0.0587 0.0
H369 H 0.82305 0.19841 0.0817 0.0
H370 H 0.93075 0.26882 0.03883 0.0
H371 H 0.97175 0.24605 1.00767 0.0
C372 C 0.16111 0.06072 0.98611 0.0
C373 C 0.18286 0.11494 0.9804 0.0
C374 C 0.20289 0.12598 0.03476 0.0
C375 C 0.17339 0.07583 0.0407 0.0
N376 N 0.11397 0.00162 0.0224 0.0
N377 N 0.22029 0.20175 0.99936 0.0
C378 C 0.14985 0.04462 1.01646 0.0
C379 C 0.20254 0.14845 1.00478 0.0
N380 N 0.15142 0.02439 0.96264 0.0
N381 N 0.23289 0.15083 0.05762 0.0
H382 H 0.2227 0.21848 0.97749 0.0
H383 H 0.22924 0.23037 1.0166 0.0
H384 H 0.23551 0.13401 0.07948 0.0
H385 H 0.25947 0.18467 0.05422 0.0
H386 H 0.1403 -0.01732 0.96588 0.0
H387 H 0.16052 0.03389 0.94013 0.0
H388 H 0.09102 0.981 1.00555 0.0
H389 H 0.10228 -0.00947 0.04438 0.0
C390 C 0.04555 0.80515 0.04025 0.0
C391 C 0.06483 0.81158 1.01015 0.0
C392 C 0.15787 0.84294 0.02871 0.0
C393 C 0.13921 0.83503 0.05907 0.0
N394 N 0.0616 0.81957 0.09408 0.0
N395 N 0.13279 0.84593 0.97482 0.0
C396 C 0.08174 0.81985 0.06494 0.0
C397 C 0.11911 0.8337 1.00418 0.0
N398 N -0.0065 0.78208 0.04505 0.0
N399 N 0.21261 0.85893 0.02343 0.0
H400 H 0.10438 0.8395 0.95684 0.0
H401 H 0.16973 0.86601 0.96836 0.0
H402 H 0.24126 0.86824 0.04084 0.0
H403 H 0.23082 0.86093 1.00196 0.0
H404 H 0.97914 0.76922 0.06622 0.0
H405 H 0.96537 0.77321 0.02731 0.0
H406 H 0.01863 0.81599 0.09948 0.0
H407 H 0.08713 0.8262 0.11313 0.0
C408 C 0.49133 0.92763 0.65774 0.0
C409 C 0.52919 0.94792 0.63533 0.0
C410 C 0.44672 -0.01456 0.60671 0.0
C411 C 0.41014 0.97415 0.63147 0.0
N412 N 0.4009 0.94255 0.68339 0.0
N413 N 0.54206 0.01012 0.5925 0.0
C414 C 0.43319 0.94715 0.6578 0.0
C415 C 0.50668 0.98065 0.61084 0.0
N416 N 0.51026 0.88869 0.67848 0.0
N417 N 0.42427 0.00011 0.57903 0.0
H418 H 0.58604 0.01182 0.59606 0.0
H419 H 0.52682 0.03832 0.57606 0.0
H420 H 0.38039 0.00173 0.57472 0.0
H421 H 0.44932 0.00426 0.55967 0.0
H422 H 0.48309 0.8688 0.6935 0.0
H423 H 0.5519 0.87207 0.67854 0.0
H424 H 0.41766 0.92833 0.70407 0.0
H425 H 0.35892 0.9579 0.68483 0.0
C426 C 0.04426 0.5072 0.36033 0.0
C427 C 0.02983 0.54015 0.38632 0.0
C428 C 0.98581 0.45832 0.40951 0.0
C429 C -0.0063 0.42749 0.38211 0.0
N430 N 0.02496 0.42414 0.33001 0.0
N431 N 0.97642 0.55001 0.43301 0.0
C432 C 0.02165 0.45228 0.3571 0.0
C433 C -0.00218 0.51648 0.41023 0.0
N434 N 0.08071 0.52785 0.33917 0.0
N435 N 0.96828 0.43165 0.43521 0.0
H436 H 0.98269 0.59321 0.43415 0.0
H437 H 0.94763 0.536 0.44913 0.0
H438 H 0.9601 0.38879 0.43583 0.0
H439 H 0.9676 0.45071 0.45657 0.0
H440 H 0.09743 0.5039 0.32131 0.0
H441 H 0.09813 0.56768 0.34094 0.0
H442 H 0.03925 0.44226 0.31001 0.0
H443 H 0.00939 0.38377 0.32701 0.0
C444 C 0.53326 0.95127 0.16013 0.0
C445 C 0.56036 0.97327 0.13406 0.0
C446 C 0.46699 -0.01394 0.10937 0.0
C447 C 0.44069 0.95807 0.13389 0.0
N448 N 0.45254 0.9004 0.17879 0.0
N449 N 0.55367 -0.00429 0.08055 0.0
C450 C 0.47497 0.93641 0.15814 0.0
C451 C 0.52742 -0.01433 0.1076 0.0
N452 N 0.56188 0.94709 0.18721 0.0
N453 N 0.43476 0.01555 0.08857 0.0
H454 H 0.59792 -0.00688 0.07796 0.0
H455 H 0.53123 0.00023 0.06013 0.0
H456 H 0.39045 0.02 0.08995 0.0
H457 H 0.45267 0.04079 0.07197 0.0
H458 H 0.54196 0.93634 0.20745 0.0
H459 H 0.60374 0.96002 0.19017 0.0
H460 H 0.47732 0.87968 0.19526 0.0
H461 H 0.41073 0.88648 0.17737 0.0
C462 C 0.02061 0.43845 0.92081 0.0
C463 C 0.03199 0.41076 0.89275 0.0
C464 C -0.00398 0.4943 0.86533 0.0
C465 C -0.00968 0.52369 0.89334 0.0
N466 N 0.0131 0.52773 0.94698 0.0
N467 N 0.04292 0.41727 0.83834 0.0
C468 C 0.00751 0.497 0.92087 0.0
C469 C 0.02349 0.44024 0.86497 0.0
N470 N 0.01927 0.40865 0.94733 0.0
N471 N 0.97316 0.51675 0.83927 0.0
H472 H 0.06468 0.37849 0.83735 0.0
H473 H 0.04261 0.43919 0.81785 0.0
H474 H 0.95125 0.55546 0.83872 0.0
H475 H 0.97115 0.49454 0.81885 0.0
H476 H 0.0055 0.42629 0.96782 0.0
H477 H 0.02588 0.36518 0.94837 0.0
H478 H 0.03069 0.51098 0.96692 0.0
H479 H 0.00619 0.57121 0.94783 0.0
C480 C 0.01254 0.01372 0.67867 0.0
C481 C 0.02117 0.0594 0.65871 0.0
C482 C 0.91759 0.0761 0.65546 0.0
C483 C 0.90998 0.02189 0.66778 0.0
N484 N 0.94746 0.94293 0.69605 0.0
N485 N 0.98331 0.15122 0.64526 0.0
C486 C 0.95662 -0.0074 0.68164 0.0
C487 C 0.97402 0.09637 0.65238 0.0
N488 N 0.05672 -0.00683 0.69606 0.0
N489 N 0.87117 0.10629 0.6451 0.0
H490 H 0.02367 0.16851 0.64712 0.0
H491 H 0.95087 0.18119 0.64164 0.0
H492 H 0.82958 0.09299 0.64852 0.0
H493 H 0.87375 0.14349 0.63283 0.0
H494 H 0.05233 0.96199 0.7124 0.0
H495 H 0.09585 0.013 0.69722 0.0
H496 H 0.98008 0.91535 0.70317 0.0
H497 H 0.90633 0.92897 0.70005 0.0
C498 C -0.00556 0.96591 0.36985 0.0
C499 C 0.9756 0.92557 0.39096 0.0
C500 C 0.9241 -0.00051 0.41876 0.0
C501 C 0.93907 0.04 0.39645 0.0
N502 N 0.97244 0.05427 0.3449 0.0
N503 N 0.90441 0.90155 0.4273 0.0
C504 C 0.9694 0.02112 0.37013 0.0
C505 C 0.93398 0.94165 0.4125 0.0
N506 N 0.03702 0.95228 0.34997 0.0
N507 N 0.90499 0.01526 0.4469 0.0
H508 H 0.9089 0.85914 0.42142 0.0
H509 H 0.87081 0.91131 0.44202 0.0
H510 H 0.9046 0.05648 0.45479 0.0
H511 H 0.89748 -0.0137 0.4641 0.0
H512 H 0.05685 -0.01803 0.33648 0.0
H513 H 0.05445 0.91181 0.34842 0.0
H514 H -0.00978 0.04005 0.32452 0.0
H515 H 0.95094 0.09292 0.34287 0.0
C516 C 0.01931 0.94855 0.19801 0.0
C517 C 0.0611 -0.01181 0.19114 0.0
C518 C 0.98852 0.05854 0.17917 0.0
C519 C 0.94748 0.01528 0.179 0.0
N520 N 0.91899 0.93088 0.20527 0.0
N521 N 0.0843 0.08508 0.19445 0.0
C522 C 0.96087 0.96403 0.19431 0.0
C523 C 0.04504 0.04507 0.1887 0.0
N524 N 0.03632 0.89522 0.20566 0.0
N525 N 0.97401 0.11146 0.16956 0.0
H526 H 0.12573 0.07394 0.20148 0.0
H527 H 0.07447 0.12804 0.19476 0.0
H528 H 0.93195 0.12377 0.16499 0.0
H529 H 0.00373 0.14254 0.16586 0.0
H530 H 0.00873 0.86169 0.20719 0.0
H531 H 0.07932 0.88513 0.20959 0.0
H532 H 0.92742 0.89431 0.21765 0.0
H533 H 0.87625 0.94371 0.20594 0.0
C534 C 0.94806 0.9627 0.91077 0.0
C535 C 0.97091 0.91473 0.89465 0.0
C536 C 0.03278 0.97896 0.86707 0.0
C537 C 0.00578 0.02522 0.88177 0.0
N538 N 0.92069 0.06074 0.90579 0.0
N539 N 0.0216 0.88438 0.84865 0.0
C540 C 0.95679 0.01673 0.89904 0.0
C541 C 0.00931 0.92458 0.87003 0.0
N542 N 0.92313 0.95856 0.93866 0.0
N543 N 0.08053 -0.01304 0.8502 0.0
H544 H 0.00153 0.84608 0.84715 0.0
H545 H 0.0463 0.8923 0.82956 0.0
H546 H 0.09508 0.02708 0.8456 0.0
H547 H 0.10613 0.95388 0.84196 0.0
H548 H 0.90789 -0.0063 0.95062 0.0
H549 H 0.9268 0.92317 0.95235 0.0
H550 H 0.88257 0.05574 0.91755 0.0
H551 H 0.92548 0.10005 0.89582 0.0
C552 C 0.13099 0.14517 0.74597 0.0
C553 C 0.18393 0.15808 0.73259 0.0
C554 C 0.22558 0.17313 0.78312 0.0
C555 C 0.17462 0.15443 0.79648 0.0
N556 N 0.08112 0.1155 0.79109 0.0
N557 N 0.28302 0.17998 0.73744 0.0
C558 C 0.1277 0.13881 0.77803 0.0
C559 C 0.23161 0.17133 0.75093 0.0
N560 N 0.08362 0.14047 0.72796 0.0
N561 N 0.26778 0.19298 0.80148 0.0
H562 H 0.28826 0.17865 0.7139 0.0
H563 H 0.32104 0.18471 0.74942 0.0
H564 H 0.26392 0.19433 0.82511 0.0
H565 H 0.30433 0.21181 0.7934 0.0
H566 H 0.04253 0.1362 0.73643 0.0
H567 H 0.08468 0.14588 0.70444 0.0
H568 H 0.0484 0.09728 0.77868 0.0
H569 H 0.07708 0.11052 0.81449 0.0
C570 C 0.13925 0.78505 0.25436 0.0
C571 C 0.18625 0.81411 0.24211 0.0
C572 C 0.21437 0.84135 0.29377 0.0
C573 C 0.1714 0.80717 0.30598 0.0
N574 N 0.10459 0.73326 0.29749 0.0
N575 N 0.2766 0.85752 0.25105 0.0
C576 C 0.13735 0.77489 0.28614 0.0
C577 C 0.2264 0.83839 0.26216 0.0
N578 N 0.09451 0.77021 0.23628 0.0
N579 N 0.24174 0.8787 0.312 0.0
H580 H 0.28769 0.85347 0.22818 0.0
H581 H 0.30947 0.8715 0.26499 0.0
H582 H 0.23172 0.88434 0.33489 0.0
H583 H 0.26982 0.90816 0.30361 0.0
H584 H 0.05722 0.75357 0.24497 0.0
H585 H 0.09137 0.78055 0.21335 0.0
H586 H 0.08257 0.70546 0.28361 0.0
H587 H 0.10505 0.72236 0.32044 0.0
C588 C 0.87067 0.78462 0.7839 0.0
C589 C 0.82358 0.799 0.80278 0.0
C590 C 0.76933 0.83057 0.75775 0.0
C591 C 0.81865 0.82206 0.73954 0.0
N592 N 0.92033 0.8046 0.73722 0.0
N593 N 0.73216 0.84617 0.80854 0.0
C594 C 0.8706 0.80306 0.7532 0.0
C595 C 0.77397 0.82506 0.78993 0.0
N596 N 0.9142 0.75096 0.79476 0.0
N597 N 0.71764 0.84151 0.74424 0.0
H598 H 0.73528 0.84434 0.83219 0.0
H599 H 0.6974 0.87024 0.80064 0.0
H600 H 0.7124 0.84358 0.72071 0.0
H601 H 0.67933 0.84297 0.75618 0.0
H602 H 0.94712 0.73522 0.78107 0.0
H603 H 0.91397 0.73352 0.81648 0.0
H604 H 0.96021 0.79601 0.74702 0.0
H605 H 0.92228 0.82054 0.7152 0.0
C606 C 0.83415 0.12811 0.27825 0.0
C607 C 0.80705 0.17569 0.29167 0.0
C608 C 0.77034 0.20491 0.24148 0.0
C609 C 0.80179 0.15998 0.22781 0.0
N610 N 0.87573 0.08845 0.23276 0.0
N611 N 0.75677 0.26443 0.28603 0.0
C612 C 0.83709 0.12419 0.24613 0.0
C613 C 0.77711 0.21561 0.27323 0.0
N614 N 0.85523 0.08559 0.29621 0.0
N615 N 0.73292 0.23619 0.22419 0.0
H616 H 0.76223 0.27354 0.30907 0.0
H617 H 0.73902 0.29765 0.27349 0.0
H618 H 0.72722 0.22883 0.20098 0.0
H619 H 0.70461 0.26623 0.23319 0.0
H620 H 0.87083 0.04741 0.28754 0.0
H621 H 0.85173 0.08625 0.31984 0.0
H622 H 0.90624 0.06478 0.24482 0.0
H623 H 0.88148 0.08812 0.2094 0.0
loop_
_geom_bond_atom_site_label_1
_geom_bond_atom_site_label_2
_geom_bond_distance
_geom_bond_site_symmetry_2
_ccdc_geom_bond_type
Co0 N4 2.148 . S
Co0 N10 2.128 . S
Co0 N20 2.194 . S
Co0 O25 2.351 1_545 S
Co0 O26 2.155 . S
Co0 O27 2.096 . S
C1 N4 1.301 . S
C1 N5 1.328 . S
C1 H6 0.930 . S
C2 C3 1.333 . S
C2 N4 1.317 . S
C2 H7 0.930 . S
C3 C2 1.333 . S
C3 N5 1.350 . S
C3 H29 0.931 . S
N4 Co0 2.148 . S
N4 C1 1.301 . S
N4 C2 1.317 . S
N5 C1 1.328 . S
N5 C3 1.350 . S
H6 C1 0.930 . S
H7 C2 0.930 . S
C8 O9 1.224 . S
C8 O27 1.247 . S
O9 C8 1.224 . S
N10 Co0 2.128 . S
N10 C11 1.355 1_545 S
N10 C13 1.311 . S
C11 N10 1.355 1_565 S
C11 C12 1.363 . S
C11 H23 0.929 . S
C12 C11 1.363 . S
C12 N14 1.375 . S
C12 H30 0.931 . S
C13 N10 1.311 . S
C13 N14 1.347 1_545 S
C13 H24 0.929 . S
N14 C12 1.375 . S
N14 C13 1.347 1_565 S
C15 C18 1.365 1_545 S
C15 N20 1.328 . S
C15 H21 0.929 1_545 S
C16 C17 1.362 . S
C16 C19 1.378 . S
C16 H31 0.929 . S
C17 C16 1.362 . S
C17 C18 1.366 1_545 S
C18 C15 1.365 1_565 S
C18 C17 1.366 1_565 S
C18 H32 0.930 . S
C19 C16 1.378 . S
C19 N20 1.315 . S
C19 H22 0.930 . S
N20 Co0 2.194 . S
N20 C15 1.328 . S
N20 C19 1.315 . S
H21 C15 0.929 1_565 S
H22 C19 0.930 . S
H23 C11 0.929 . S
H24 C13 0.929 . S
O25 Co0 2.351 1_565 S
O25 C28 1.246 . S
O26 Co0 2.155 . S
O26 C28 1.234 1_545 S
O27 Co0 2.096 . S
O27 C8 1.247 . S
C28 O25 1.246 . S
C28 O26 1.234 1_565 S
H29 C3 0.931 . S
H30 C12 0.931 . S
H31 C16 0.929 . S
H32 C18 0.930 . S
Co33 N37 2.148 . S
Co33 N43 2.128 . S
Co33 N53 2.194 . S
Co33 O58 2.351 1_455 S
Co33 O59 2.155 . S
Co33 O60 2.096 . S
C34 N37 1.301 . S
C34 N38 1.328 . S
C34 H39 0.930 . S
C35 C36 1.333 . S
C35 N37 1.317 . S
C35 H40 0.930 . S
C36 C35 1.333 . S
C36 N38 1.350 . S
C36 H62 0.931 . S
N37 Co33 2.148 . S
N37 C34 1.301 . S
N37 C35 1.317 . S
N38 C34 1.328 . S
N38 C36 1.350 . S
H39 C34 0.930 . S
H40 C35 0.930 . S
C41 O42 1.224 . S
C41 O60 1.247 . S
O42 C41 1.224 . S
N43 Co33 2.128 . S
N43 C44 1.355 1_455 S
N43 C46 1.311 . S
C44 N43 1.355 1_655 S
C44 C45 1.363 . S
C44 H56 0.929 . S
C45 C44 1.363 . S
C45 N47 1.375 . S
C45 H63 0.931 . S
C46 N43 1.311 . S
C46 N47 1.347 1_455 S
C46 H57 0.929 . S
N47 C45 1.375 . S
N47 C46 1.347 1_655 S
C48 C51 1.365 1_455 S
C48 N53 1.328 . S
C48 H54 0.929 1_455 S
C49 C50 1.362 . S
C49 C52 1.378 . S
C49 H64 0.929 . S
C50 C49 1.362 . S
C50 C51 1.366 1_455 S
C51 C48 1.365 1_655 S
C51 C50 1.366 1_655 S
C51 H65 0.930 . S
C52 C49 1.378 . S
C52 N53 1.315 . S
C52 H55 0.930 . S
N53 Co33 2.194 . S
N53 C48 1.328 . S
N53 C52 1.315 . S
H54 C48 0.929 1_655 S
H55 C52 0.930 . S
H56 C44 0.929 . S
H57 C46 0.929 . S
O58 Co33 2.351 1_655 S
O58 C61 1.246 . S
O59 Co33 2.155 . S
O59 C61 1.234 1_455 S
O60 Co33 2.096 . S
O60 C41 1.247 . S
C61 O58 1.246 . S
C61 O59 1.234 1_655 S
H62 C36 0.931 . S
H63 C45 0.931 . S
H64 C49 0.929 . S
H65 C51 0.930 . S
Co66 N70 2.148 . S
Co66 N76 2.128 . S
Co66 N86 2.194 . S
Co66 O91 2.351 1_565 S
Co66 O92 2.155 . S
Co66 O93 2.096 . S
C67 N70 1.301 . S
C67 N71 1.328 . S
C67 H72 0.930 . S
C68 C69 1.333 . S
C68 N70 1.317 . S
C68 H73 0.930 . S
C69 C68 1.333 . S
C69 N71 1.350 . S
C69 H95 0.931 . S
N70 Co66 2.148 . S
N70 C67 1.301 . S
N70 C68 1.317 . S
N71 C67 1.328 . S
N71 C69 1.350 . S
H72 C67 0.930 . S
H73 C68 0.930 . S
C74 O75 1.224 . S
C74 O93 1.247 . S
O75 C74 1.224 . S
N76 Co66 2.128 . S
N76 C77 1.355 1_565 S
N76 C79 1.311 . S
C77 N76 1.355 1_545 S
C77 C78 1.363 . S
C77 H89 0.929 . S
C78 C77 1.363 . S
C78 N80 1.375 . S
C78 H96 0.931 . S
C79 N76 1.311 . S
C79 N80 1.347 1_565 S
C79 H90 0.929 . S
N80 C78 1.375 . S
N80 C79 1.347 1_545 S
C81 C84 1.365 1_565 S
C81 N86 1.328 . S
C81 H87 0.929 1_565 S
C82 C83 1.362 . S
C82 C85 1.378 . S
C82 H97 0.929 . S
C83 C82 1.362 . S
C83 C84 1.366 1_565 S
C84 C81 1.365 1_545 S
C84 C83 1.366 1_545 S
C84 H98 0.930 . S
C85 C82 1.378 . S
C85 N86 1.315 . S
C85 H88 0.930 . S
N86 Co66 2.194 . S
N86 C81 1.328 . S
N86 C85 1.315 . S
H87 C81 0.929 1_545 S
H88 C85 0.930 . S
H89 C77 0.929 . S
H90 C79 0.929 . S
O91 Co66 2.351 1_545 S
O91 C94 1.246 . S
O92 Co66 2.155 . S
O92 C94 1.234 1_565 S
O93 Co66 2.096 . S
O93 C74 1.247 . S
C94 O91 1.246 . S
C94 O92 1.234 1_545 S
H95 C69 0.931 . S
H96 C78 0.931 . S
H97 C82 0.929 . S
H98 C84 0.930 . S
Co99 N103 2.148 . S
Co99 N109 2.128 . S
Co99 N119 2.194 . S
Co99 O124 2.351 1_655 S
Co99 O125 2.155 . S
Co99 O126 2.096 . S
C100 N103 1.301 . S
C100 N104 1.328 . S
C100 H105 0.930 . S
C101 C102 1.333 . S
C101 N103 1.317 . S
C101 H106 0.930 . S
C102 C101 1.333 . S
C102 N104 1.350 . S
C102 H128 0.931 . S
N103 Co99 2.148 . S
N103 C100 1.301 . S
N103 C101 1.317 . S
N104 C100 1.328 . S
N104 C102 1.350 . S
H105 C100 0.930 . S
H106 C101 0.930 . S
C107 O108 1.224 . S
C107 O126 1.247 . S
O108 C107 1.224 . S
N109 Co99 2.128 . S
N109 C110 1.355 1_655 S
N109 C112 1.311 . S
C110 N109 1.355 1_455 S
C110 C111 1.363 . S
C110 H122 0.929 . S
C111 C110 1.363 . S
C111 N113 1.375 . S
C111 H129 0.931 . S
C112 N109 1.311 . S
C112 N113 1.347 1_655 S
C112 H123 0.929 . S
N113 C111 1.375 . S
N113 C112 1.347 1_455 S
C114 C117 1.365 1_655 S
C114 N119 1.328 . S
C114 H120 0.929 1_655 S
C115 C116 1.362 . S
C115 C118 1.378 . S
C115 H130 0.929 . S
C116 C115 1.362 . S
C116 C117 1.366 1_655 S
C117 C114 1.365 1_455 S
C117 C116 1.366 1_455 S
C117 H131 0.930 . S
C118 C115 1.378 . S
C118 N119 1.315 . S
C118 H121 0.930 . S
N119 Co99 2.194 . S
N119 C114 1.328 . S
N119 C118 1.315 . S
H120 C114 0.929 1_455 S
H121 C118 0.930 . S
H122 C110 0.929 . S
H123 C112 0.929 . S
O124 Co99 2.351 1_455 S
O124 C127 1.246 . S
O125 Co99 2.155 . S
O125 C127 1.234 1_655 S
O126 Co99 2.096 . S
O126 C107 1.247 . S
C127 O124 1.246 . S
C127 O125 1.234 1_455 S
H128 C102 0.931 . S
H129 C111 0.931 . S
H130 C115 0.929 . S
H131 C117 0.930 . S
Co132 N136 2.148 . S
Co132 N142 2.128 . S
Co132 N152 2.194 . S
Co132 O157 2.351 1_545 S
Co132 O158 2.155 . S
Co132 O159 2.096 . S
C133 N136 1.301 . S
C133 N137 1.328 . S
C133 H138 0.930 . S
C134 C135 1.333 . S
C134 N136 1.317 . S
C134 H139 0.930 . S
C135 C134 1.333 . S
C135 N137 1.350 . S
C135 H161 0.931 . S
N136 Co132 2.148 . S
N136 C133 1.301 . S
N136 C134 1.317 . S
N137 C133 1.328 . S
N137 C135 1.350 . S
H138 C133 0.930 . S
H139 C134 0.930 . S
C140 O141 1.224 . S
C140 O159 1.247 . S
O141 C140 1.224 . S
N142 Co132 2.128 . S
N142 C143 1.355 1_545 S
N142 C145 1.311 . S
C143 N142 1.355 1_565 S
C143 C144 1.363 . S
C143 H155 0.929 . S
C144 C143 1.363 . S
C144 N146 1.375 . S
C144 H162 0.931 . S
C145 N142 1.311 . S
C145 N146 1.347 1_545 S
C145 H156 0.929 . S
N146 C144 1.375 . S
N146 C145 1.347 1_565 S
C147 C150 1.365 1_545 S
C147 N152 1.328 . S
C147 H153 0.929 1_545 S
C148 C149 1.362 . S
C148 C151 1.378 . S
C148 H163 0.929 . S
C149 C148 1.362 . S
C149 C150 1.366 1_545 S
C150 C147 1.365 1_565 S
C150 C149 1.366 1_565 S
C150 H164 0.930 . S
C151 C148 1.378 . S
C151 N152 1.315 . S
C151 H154 0.930 . S
N152 Co132 2.194 . S
N152 C147 1.328 . S
N152 C151 1.315 . S
H153 C147 0.929 1_565 S
H154 C151 0.930 . S
H155 C143 0.929 . S
H156 C145 0.929 . S
O157 Co132 2.351 1_565 S
O157 C160 1.246 . S
O158 Co132 2.155 . S
O158 C160 1.234 1_545 S
O159 Co132 2.096 . S
O159 C140 1.247 . S
C160 O157 1.246 . S
C160 O158 1.234 1_565 S
H161 C135 0.931 . S
H162 C144 0.931 . S
H163 C148 0.929 . S
H164 C150 0.930 . S
Co165 N169 2.148 . S
Co165 N175 2.128 . S
Co165 N185 2.194 . S
Co165 O190 2.351 1_455 S
Co165 O191 2.155 . S
Co165 O192 2.096 . S
C166 N169 1.301 . S
C166 N170 1.328 . S
C166 H171 0.930 . S
C167 C168 1.333 . S
C167 N169 1.317 . S
C167 H172 0.930 . S
C168 C167 1.333 . S
C168 N170 1.350 . S
C168 H194 0.931 . S
N169 Co165 2.148 . S
N169 C166 1.301 . S
N169 C167 1.317 . S
N170 C166 1.328 . S
N170 C168 1.350 . S
H171 C166 0.930 . S
H172 C167 0.930 . S
C173 O174 1.224 . S
C173 O192 1.247 . S
O174 C173 1.224 . S
N175 Co165 2.128 . S
N175 C176 1.355 1_455 S
N175 C178 1.311 . S
C176 N175 1.355 1_655 S
C176 C177 1.363 . S
C176 H188 0.929 . S
C177 C176 1.363 . S
C177 N179 1.375 . S
C177 H195 0.931 . S
C178 N175 1.311 . S
C178 N179 1.347 1_455 S
C178 H189 0.929 . S
N179 C177 1.375 . S
N179 C178 1.347 1_655 S
C180 C183 1.365 1_455 S
C180 N185 1.328 . S
C180 H186 0.929 1_455 S
C181 C182 1.362 . S
C181 C184 1.378 . S
C181 H196 0.929 . S
C182 C181 1.362 . S
C182 C183 1.366 1_455 S
C183 C180 1.365 1_655 S
C183 C182 1.366 1_655 S
C183 H197 0.930 . S
C184 C181 1.378 . S
C184 N185 1.315 . S
C184 H187 0.930 . S
N185 Co165 2.194 . S
N185 C180 1.328 . S
N185 C184 1.315 . S
H186 C180 0.929 1_655 S
H187 C184 0.930 . S
H188 C176 0.929 . S
H189 C178 0.929 . S
O190 Co165 2.351 1_655 S
O190 C193 1.246 . S
O191 Co165 2.155 . S
O191 C193 1.234 1_455 S
O192 Co165 2.096 . S
O192 C173 1.247 . S
C193 O190 1.246 . S
C193 O191 1.234 1_655 S
H194 C168 0.931 . S
H195 C177 0.931 . S
H196 C181 0.929 . S
H197 C183 0.930 . S
Co198 N202 2.148 . S
Co198 N208 2.128 . S
Co198 N218 2.194 . S
Co198 O223 2.351 1_565 S
Co198 O224 2.155 . S
Co198 O225 2.096 . S
C199 N202 1.301 . S
C199 N203 1.328 . S
C199 H204 0.930 . S
C200 C201 1.333 . S
C200 N202 1.317 . S
C200 H205 0.930 . S
C201 C200 1.333 . S
C201 N203 1.350 . S
C201 H227 0.931 . S
N202 Co198 2.148 . S
N202 C199 1.301 . S
N202 C200 1.317 . S
N203 C199 1.328 . S
N203 C201 1.350 . S
H204 C199 0.930 . S
H205 C200 0.930 . S
C206 O207 1.224 . S
C206 O225 1.247 . S
O207 C206 1.224 . S
N208 Co198 2.128 . S
N208 C209 1.355 1_565 S
N208 C211 1.311 . S
C209 N208 1.355 1_545 S
C209 C210 1.363 . S
C209 H221 0.929 . S
C210 C209 1.363 . S
C210 N212 1.375 . S
C210 H228 0.931 . S
C211 N208 1.311 . S
C211 N212 1.347 1_565 S
C211 H222 0.929 . S
N212 C210 1.375 . S
N212 C211 1.347 1_545 S
C213 C216 1.365 1_565 S
C213 N218 1.328 . S
C213 H219 0.929 1_565 S
C214 C215 1.362 . S
C214 C217 1.378 . S
C214 H229 0.929 . S
C215 C214 1.362 . S
C215 C216 1.366 1_565 S
C216 C213 1.365 1_545 S
C216 C215 1.366 1_545 S
C216 H230 0.930 . S
C217 C214 1.378 . S
C217 N218 1.315 . S
C217 H220 0.930 . S
N218 Co198 2.194 . S
N218 C213 1.328 . S
N218 C217 1.315 . S
H219 C213 0.929 1_545 S
H220 C217 0.930 . S
H221 C209 0.929 . S
H222 C211 0.929 . S
O223 Co198 2.351 1_545 S
O223 C226 1.246 . S
O224 Co198 2.155 . S
O224 C226 1.234 1_565 S
O225 Co198 2.096 . S
O225 C206 1.247 . S
C226 O223 1.246 . S
C226 O224 1.234 1_545 S
H227 C201 0.931 . S
H228 C210 0.931 . S
H229 C214 0.929 . S
H230 C216 0.930 . S
Co231 N235 2.148 . S
Co231 N241 2.128 . S
Co231 N251 2.194 . S
Co231 O256 2.351 1_655 S
Co231 O257 2.155 . S
Co231 O258 2.096 . S
C232 N235 1.301 . S
C232 N236 1.328 . S
C232 H237 0.930 . S
C233 C234 1.333 . S
C233 N235 1.317 . S
C233 H238 0.930 . S
C234 C233 1.333 . S
C234 N236 1.350 . S
C234 H260 0.931 . S
N235 Co231 2.148 . S
N235 C232 1.301 . S
N235 C233 1.317 . S
N236 C232 1.328 . S
N236 C234 1.350 . S
H237 C232 0.930 . S
H238 C233 0.930 . S
C239 O240 1.224 . S
C239 O258 1.247 . S
O240 C239 1.224 . S
N241 Co231 2.128 . S
N241 C242 1.355 1_655 S
N241 C244 1.311 . S
C242 N241 1.355 1_455 S
C242 C243 1.363 . S
C242 H254 0.929 . S
C243 C242 1.363 . S
C243 N245 1.375 . S
C243 H261 0.931 . S
C244 N241 1.311 . S
C244 N245 1.347 1_655 S
C244 H255 0.929 . S
N245 C243 1.375 . S
N245 C244 1.347 1_455 S
C246 C249 1.365 1_655 S
C246 N251 1.328 . S
C246 H252 0.929 1_655 S
C247 C248 1.362 . S
C247 C250 1.378 . S
C247 H262 0.929 . S
C248 C247 1.362 . S
C248 C249 1.366 1_655 S
C249 C246 1.365 1_455 S
C249 C248 1.366 1_455 S
C249 H263 0.930 . S
C250 C247 1.378 . S
C250 N251 1.315 . S
C250 H253 0.930 . S
N251 Co231 2.194 . S
N251 C246 1.328 . S
N251 C250 1.315 . S
H252 C246 0.929 1_455 S
H253 C250 0.930 . S
H254 C242 0.929 . S
H255 C244 0.929 . S
O256 Co231 2.351 1_455 S
O256 C259 1.246 . S
O257 Co231 2.155 . S
O257 C259 1.234 1_655 S
O258 Co231 2.096 . S
O258 C239 1.247 . S
C259 O256 1.246 . S
C259 O257 1.234 1_455 S
H260 C234 0.931 . S
H261 C243 0.931 . S
H262 C247 0.929 . S
H263 C249 0.930 . S
C264 C265 1.363 . S
C264 C270 1.379 . S
C264 N272 1.356 . S
C265 C264 1.363 . S
C265 C271 1.363 . S
C266 C267 1.363 . S
C266 C271 1.379 . S
C266 N273 1.356 . S
C267 C266 1.363 . S
C267 C270 1.363 . S
N268 C270 1.356 . S
N268 H280 0.984 . S
N268 H281 0.985 . S
N269 C271 1.356 . S
N269 H274 0.984 . S
N269 H275 0.985 . S
C270 C264 1.379 . S
C270 C267 1.363 . S
C270 N268 1.356 . S
C271 C265 1.363 . S
C271 C266 1.379 . S
C271 N269 1.356 . S
N272 C264 1.356 . S
N272 H278 0.984 . S
N272 H279 0.984 1_565 S
N273 C266 1.356 . S
N273 H276 0.984 . S
N273 H277 0.985 . S
H274 N269 0.984 . S
H275 N269 0.985 . S
H276 N273 0.984 . S
H277 N273 0.985 . S
H278 N272 0.984 . S
H279 N272 0.984 1_545 S
H280 N268 0.984 . S
H281 N268 0.985 . S
C282 C283 1.363 . S
C282 C288 1.379 . S
C282 N290 1.356 . S
C283 C282 1.363 . S
C283 C289 1.363 . S
C284 C285 1.363 . S
C284 C289 1.379 . S
C284 N291 1.356 . S
C285 C284 1.363 . S
C285 C288 1.363 . S
N286 C288 1.356 . S
N286 H298 0.984 . S
N286 H299 0.985 . S
N287 C289 1.356 . S
N287 H292 0.984 . S
N287 H293 0.985 . S
C288 C282 1.379 . S
C288 C285 1.363 . S
C288 N286 1.356 . S
C289 C283 1.363 . S
C289 C284 1.379 . S
C289 N287 1.356 . S
N290 C282 1.356 . S
N290 H296 0.984 . S
N290 H297 0.984 . S
N291 C284 1.356 . S
N291 H294 0.984 1_655 S
N291 H295 0.985 . S
H292 N287 0.984 . S
H293 N287 0.985 . S
H294 N291 0.984 1_455 S
H295 N291 0.985 . S
H296 N290 0.984 . S
H297 N290 0.984 . S
H298 N286 0.984 . S
H299 N286 0.985 . S
C300 C301 1.363 . S
C300 C306 1.379 . S
C300 N308 1.356 . S
C301 C300 1.363 . S
C301 C307 1.363 . S
C302 C303 1.363 . S
C302 C307 1.379 . S
C302 N309 1.356 . S
C303 C302 1.363 . S
C303 C306 1.363 . S
N304 C306 1.356 . S
N304 H316 0.984 . S
N304 H317 0.985 . S
N305 C307 1.356 . S
N305 H310 0.984 1_545 S
N305 H311 0.985 1_545 S
C306 C300 1.379 . S
C306 C303 1.363 . S
C306 N304 1.356 . S
C307 C301 1.363 . S
C307 C302 1.379 . S
C307 N305 1.356 . S
N308 C300 1.356 . S
N308 H314 0.984 . S
N308 H315 0.984 . S
N309 C302 1.356 . S
N309 H312 0.984 . S
N309 H313 0.985 . S
H310 N305 0.984 1_565 S
H311 N305 0.985 1_565 S
H312 N309 0.984 . S
H313 N309 0.985 . S
H314 N308 0.984 . S
H315 N308 0.984 . S
H316 N304 0.984 . S
H317 N304 0.985 . S
C318 C319 1.363 . S
C318 C324 1.379 . S
C318 N326 1.356 . S
C319 C318 1.363 . S
C319 C325 1.363 . S
C320 C321 1.363 . S
C320 C325 1.379 . S
C320 N327 1.356 . S
C321 C320 1.363 . S
C321 C324 1.363 . S
N322 C324 1.356 . S
N322 H334 0.984 . S
N322 H335 0.985 . S
N323 C325 1.356 . S
N323 H328 0.984 . S
N323 H329 0.985 . S
C324 C318 1.379 . S
C324 C321 1.363 . S
C324 N322 1.356 . S
C325 C319 1.363 . S
C325 C320 1.379 . S
C325 N323 1.356 . S
N326 C318 1.356 . S
N326 H332 0.984 . S
N326 H333 0.984 . S
N327 C320 1.356 . S
N327 H330 0.984 1_455 S
N327 H331 0.985 . S
H328 N323 0.984 . S
H329 N323 0.985 . S
H330 N327 0.984 1_655 S
H331 N327 0.985 . S
H332 N326 0.984 . S
H333 N326 0.984 . S
H334 N322 0.984 . S
H335 N322 0.985 . S
C336 C337 1.363 . S
C336 C342 1.379 . S
C336 N344 1.356 . S
C337 C336 1.363 . S
C337 C343 1.363 . S
C338 C339 1.363 . S
C338 C343 1.379 1_554 S
C338 N345 1.356 . S
C339 C338 1.363 . S
C339 C342 1.363 1_554 S
N340 C342 1.356 . S
N340 H352 0.984 1_565 S
N340 H353 0.985 1_566 S
N341 C343 1.356 . S
N341 H346 0.984 . S
N341 H347 0.985 . S
C342 C336 1.379 . S
C342 C339 1.363 1_556 S
C342 N340 1.356 . S
C343 C337 1.363 . S
C343 C338 1.379 1_556 S
C343 N341 1.356 . S
N344 C336 1.356 . S
N344 H350 0.984 . S
N344 H351 0.984 . S
N345 C338 1.356 . S
N345 H348 0.984 . S
N345 H349 0.985 . S
H346 N341 0.984 . S
H347 N341 0.985 . S
H348 N345 0.984 . S
H349 N345 0.985 . S
H350 N344 0.984 . S
H351 N344 0.984 . S
H352 N340 0.984 1_545 S
H353 N340 0.985 1_544 S
C354 C355 1.363 . S
C354 C360 1.398 . S
C354 N362 1.356 . S
C355 C354 1.363 . S
C355 C361 1.363 . S
C356 C357 1.363 1_554 S
C356 C361 1.379 . S
C356 N363 1.356 . S
C357 C356 1.363 1_556 S
C357 C360 1.361 1_556 S
N358 C360 1.336 1_556 S
N358 H370 0.984 . S
N358 H371 0.985 . S
N359 C361 1.356 . S
N359 H364 0.984 . S
N359 H365 0.985 . S
C360 C354 1.398 . S
C360 C357 1.361 1_554 S
C360 N358 1.336 1_554 S
C361 C355 1.363 . S
C361 C356 1.379 . S
C361 N359 1.356 . S
N362 C354 1.356 . S
N362 H368 0.984 . S
N362 H369 0.984 . S
N363 C356 1.356 . S
N363 H366 0.984 1_654 S
N363 H367 0.985 . S
H364 N359 0.984 . S
H365 N359 0.985 . S
H366 N363 0.984 1_456 S
H367 N363 0.985 . S
H368 N362 0.984 . S
H369 N362 0.984 . S
H370 N358 0.984 . S
H371 N358 0.985 . S
C372 C373 1.363 . S
C372 C378 1.379 . S
C372 N380 1.356 . S
C373 C372 1.363 . S
C373 C379 1.363 . S
C374 C375 1.363 . S
C374 C379 1.379 1_554 S
C374 N381 1.356 . S
C375 C374 1.363 . S
C375 C378 1.363 1_554 S
N376 C378 1.356 1_565 S
N376 H388 0.984 . S
N376 H389 0.985 . S
N377 C379 1.356 . S
N377 H382 0.984 . S
N377 H383 0.985 . S
C378 C372 1.379 . S
C378 C375 1.363 1_556 S
C378 N376 1.356 1_545 S
C379 C373 1.363 . S
C379 C374 1.379 1_556 S
C379 N377 1.356 . S
N380 C372 1.356 . S
N380 H386 0.984 . S
N380 H387 0.984 . S
N381 C374 1.356 . S
N381 H384 0.984 . S
N381 H385 0.985 . S
H382 N377 0.984 . S
H383 N377 0.985 . S
H384 N381 0.984 . S
H385 N381 0.985 . S
H386 N380 0.984 . S
H387 N380 0.984 . S
H388 N376 0.984 . S
H389 N376 0.985 . S
C390 C391 1.363 1_554 S
C390 C396 1.379 . S
C390 N398 1.356 . S
C391 C390 1.363 1_556 S
C391 C397 1.363 . S
C392 C393 1.363 . S
C392 C397 1.379 1_554 S
C392 N399 1.356 . S
C393 C392 1.363 . S
C393 C396 1.363 . S
N394 C396 1.356 . S
N394 H406 0.984 . S
N394 H407 0.985 . S
N395 C397 1.356 . S
N395 H400 0.984 . S
N395 H401 0.985 . S
C396 C390 1.379 . S
C396 C393 1.363 . S
C396 N394 1.356 . S
C397 C391 1.363 . S
C397 C392 1.379 1_556 S
C397 N395 1.356 . S
N398 C390 1.356 . S
N398 H404 0.984 1_455 S
N398 H405 0.984 1_454 S
N399 C392 1.356 . S
N399 H402 0.984 . S
N399 H403 0.985 . S
H400 N395 0.984 . S
H401 N395 0.985 . S
H402 N399 0.984 . S
H403 N399 0.985 . S
H404 N398 0.984 1_655 S
H405 N398 0.984 1_656 S
H406 N394 0.984 . S
H407 N394 0.985 . S
C408 C409 1.363 . S
C408 C414 1.379 . S
C408 N416 1.356 . S
C409 C408 1.363 . S
C409 C415 1.363 1_565 S
C410 C411 1.363 . S
C410 C415 1.379 . S
C410 N417 1.356 . S
C411 C410 1.363 . S
C411 C414 1.363 1_545 S
N412 C414 1.356 . S
N412 H424 0.984 . S
N412 H425 0.985 . S
N413 C415 1.356 . S
N413 H418 0.984 . S
N413 H419 0.985 . S
C414 C408 1.379 . S
C414 C411 1.363 1_565 S
C414 N412 1.356 . S
C415 C409 1.363 1_545 S
C415 C410 1.379 . S
C415 N413 1.356 . S
N416 C408 1.356 . S
N416 H422 0.984 . S
N416 H423 0.984 . S
N417 C410 1.356 . S
N417 H420 0.984 . S
N417 H421 0.985 . S
H418 N413 0.984 . S
H419 N413 0.985 . S
H420 N417 0.984 . S
H421 N417 0.985 . S
H422 N416 0.984 . S
H423 N416 0.984 . S
H424 N412 0.984 . S
H425 N412 0.985 . S
C426 C427 1.363 1_655 S
C426 C432 1.379 . S
C426 N434 1.356 . S
C427 C426 1.363 1_455 S
C427 C433 1.363 . S
C428 C429 1.363 1_455 S
C428 C433 1.379 . S
C428 N435 1.356 . S
C429 C428 1.363 1_655 S
C429 C432 1.363 . S
N430 C432 1.356 . S
N430 H442 0.984 . S
N430 H443 0.985 . S
N431 C433 1.356 . S
N431 H436 0.984 . S
N431 H437 0.985 . S
C432 C426 1.379 . S
C432 C429 1.363 . S
C432 N430 1.356 . S
C433 C427 1.363 . S
C433 C428 1.379 . S
C433 N431 1.356 . S
N434 C426 1.356 . S
N434 H440 0.984 . S
N434 H441 0.984 . S
N435 C428 1.356 . S
N435 H438 0.984 . S
N435 H439 0.985 . S
H436 N431 0.984 . S
H437 N431 0.985 . S
H438 N435 0.984 . S
H439 N435 0.985 . S
H440 N434 0.984 . S
H441 N434 0.984 . S
H442 N430 0.984 . S
H443 N430 0.985 . S
C444 C445 1.363 1_565 S
C444 C450 1.379 . S
C444 N452 1.356 . S
C445 C444 1.363 1_545 S
C445 C451 1.363 . S
C446 C447 1.363 1_545 S
C446 C451 1.379 . S
C446 N453 1.356 . S
C447 C446 1.363 1_565 S
C447 C450 1.363 . S
N448 C450 1.356 . S
N448 H460 0.984 . S
N448 H461 0.985 . S
N449 C451 1.356 . S
N449 H454 0.984 . S
N449 H455 0.985 . S
C450 C444 1.379 . S
C450 C447 1.363 . S
C450 N448 1.356 . S
C451 C445 1.363 . S
C451 C446 1.379 . S
C451 N449 1.356 . S
N452 C444 1.356 . S
N452 H458 0.984 . S
N452 H459 0.984 . S
N453 C446 1.356 . S
N453 H456 0.984 . S
N453 H457 0.985 . S
H454 N449 0.984 . S
H455 N449 0.985 . S
H456 N453 0.984 . S
H457 N453 0.985 . S
H458 N452 0.984 . S
H459 N452 0.984 . S
H460 N448 0.984 . S
H461 N448 0.985 . S
C462 C463 1.363 1_655 S
C462 C468 1.379 . S
C462 N470 1.356 . S
C463 C462 1.363 1_455 S
C463 C469 1.363 . S
C464 C465 1.363 1_455 S
C464 C469 1.379 . S
C464 N471 1.356 . S
C465 C464 1.363 1_655 S
C465 C468 1.363 . S
N466 C468 1.356 . S
N466 H478 0.984 . S
N466 H479 0.985 . S
N467 C469 1.356 . S
N467 H472 0.984 . S
N467 H473 0.985 . S
C468 C462 1.379 . S
C468 C465 1.363 . S
C468 N466 1.356 . S
C469 C463 1.363 . S
C469 C464 1.379 . S
C469 N467 1.356 . S
N470 C462 1.356 . S
N470 H476 0.984 . S
N470 H477 0.984 . S
N471 C464 1.356 . S
N471 H474 0.984 . S
N471 H475 0.985 . S
H472 N467 0.984 . S
H473 N467 0.985 . S
H474 N471 0.984 . S
H475 N471 0.985 . S
H476 N470 0.984 . S
H477 N470 0.984 . S
H478 N466 0.984 . S
H479 N466 0.985 . S
C480 C481 1.363 . S
C480 C486 1.379 1_455 S
C480 N488 1.356 . S
C481 C480 1.363 . S
C481 C487 1.363 1_565 S
C482 C483 1.363 . S
C482 C487 1.379 1_655 S
C482 N489 1.356 . S
C483 C482 1.363 . S
C483 C486 1.363 1_545 S
N484 C486 1.356 . S
N484 H496 0.984 . S
N484 H497 0.985 . S
N485 C487 1.356 . S
N485 H490 0.984 . S
N485 H491 0.985 . S
C486 C480 1.379 1_655 S
C486 C483 1.363 1_565 S
C486 N484 1.356 . S
C487 C481 1.363 1_545 S
C487 C482 1.379 1_455 S
C487 N485 1.356 . S
N488 C480 1.356 . S
N488 H494 0.984 . S
N488 H495 0.984 . S
N489 C482 1.356 . S
N489 H492 0.984 . S
N489 H493 0.985 . S
H490 N485 0.984 . S
H491 N485 0.985 . S
H492 N489 0.984 . S
H493 N489 0.985 . S
H494 N488 0.984 . S
H495 N488 0.984 . S
H496 N484 0.984 . S
H497 N484 0.985 . S
C498 C499 1.363 1_455 S
C498 C504 1.379 1_565 S
C498 N506 1.356 . S
C499 C498 1.363 1_655 S
C499 C505 1.363 . S
C500 C501 1.363 1_655 S
C500 C505 1.379 1_545 S
C500 N507 1.356 . S
C501 C500 1.363 1_455 S
C501 C504 1.363 . S
N502 C504 1.356 . S
N502 H514 0.984 . S
N502 H515 0.985 . S
N503 C505 1.356 . S
N503 H508 0.984 . S
N503 H509 0.985 . S
C504 C498 1.379 1_545 S
C504 C501 1.363 . S
C504 N502 1.356 . S
C505 C499 1.363 . S
C505 C500 1.379 1_565 S
C505 N503 1.356 . S
N506 C498 1.356 . S
N506 H512 0.984 . S
N506 H513 0.984 . S
N507 C500 1.356 . S
N507 H510 0.984 . S
N507 H511 0.985 . S
H508 N503 0.984 . S
H509 N503 0.985 . S
H510 N507 0.984 . S
H511 N507 0.985 . S
H512 N506 0.984 . S
H513 N506 0.984 . S
H514 N502 0.984 . S
H515 N502 0.985 . S
C516 C517 1.363 1_565 S
C516 C522 1.379 1_455 S
C516 N524 1.356 . S
C517 C516 1.363 1_545 S
C517 C523 1.363 . S
C518 C519 1.363 1_545 S
C518 C523 1.379 1_655 S
C518 N525 1.356 . S
C519 C518 1.363 1_565 S
C519 C522 1.363 . S
N520 C522 1.356 . S
N520 H532 0.984 . S
N520 H533 0.985 . S
N521 C523 1.356 . S
N521 H526 0.984 . S
N521 H527 0.985 . S
C522 C516 1.379 1_655 S
C522 C519 1.363 . S
C522 N520 1.356 . S
C523 C517 1.363 . S
C523 C518 1.379 1_455 S
C523 N521 1.356 . S
N524 C516 1.356 . S
N524 H530 0.984 . S
N524 H531 0.984 . S
N525 C518 1.356 . S
N525 H528 0.984 . S
N525 H529 0.985 . S
H526 N521 0.984 . S
H527 N521 0.985 . S
H528 N525 0.984 . S
H529 N525 0.985 . S
H530 N524 0.984 . S
H531 N524 0.984 . S
H532 N520 0.984 . S
H533 N520 0.985 . S
C534 C535 1.363 1_655 S
C534 C540 1.379 1_565 S
C534 N542 1.356 . S
C535 C534 1.363 1_455 S
C535 C541 1.363 . S
C536 C537 1.363 1_455 S
C536 C541 1.379 1_545 S
C536 N543 1.356 . S
C537 C536 1.363 1_655 S
C537 C540 1.363 . S
N538 C540 1.356 . S
N538 H550 0.984 . S
N538 H551 0.985 . S
N539 C541 1.356 . S
N539 H544 0.984 . S
N539 H545 0.985 . S
C540 C534 1.379 1_545 S
C540 C537 1.363 . S
C540 N538 1.356 . S
C541 C535 1.363 . S
C541 C536 1.379 1_565 S
C541 N539 1.356 . S
N542 C534 1.356 . S
N542 H548 0.984 . S
N542 H549 0.984 . S
N543 C536 1.356 . S
N543 H546 0.984 . S
N543 H547 0.985 . S
H544 N539 0.984 . S
H545 N539 0.985 . S
H546 N543 0.984 . S
H547 N543 0.985 . S
H548 N542 0.984 . S
H549 N542 0.984 . S
H550 N538 0.984 . S
H551 N538 0.985 . S
C552 C553 1.363 . S
C552 C558 1.379 . S
C552 N560 1.356 . S
C553 C552 1.363 . S
C553 C559 1.363 . S
C554 C555 1.363 . S
C554 C559 1.379 . S
C554 N561 1.356 . S
C555 C554 1.363 . S
C555 C558 1.363 . S
N556 C558 1.356 . S
N556 H568 0.984 . S
N556 H569 0.985 . S
N557 C559 1.356 . S
N557 H562 0.984 . S
N557 H563 0.985 . S
C558 C552 1.379 . S
C558 C555 1.363 . S
C558 N556 1.356 . S
C559 C553 1.363 . S
C559 C554 1.379 . S
C559 N557 1.356 . S
N560 C552 1.356 . S
N560 H566 0.984 . S
N560 H567 0.984 . S
N561 C554 1.356 . S
N561 H564 0.984 . S
N561 H565 0.985 . S
H562 N557 0.984 . S
H563 N557 0.985 . S
H564 N561 0.984 . S
H565 N561 0.985 . S
H566 N560 0.984 . S
H567 N560 0.984 . S
H568 N556 0.984 . S
H569 N556 0.985 . S
C570 C571 1.363 . S
C570 C576 1.379 . S
C570 N578 1.356 . S
C571 C570 1.363 . S
C571 C577 1.363 . S
C572 C573 1.363 . S
C572 C577 1.379 . S
C572 N579 1.356 . S
C573 C572 1.363 . S
C573 C576 1.363 . S
N574 C576 1.356 . S
N574 H586 0.984 . S
N574 H587 0.985 . S
N575 C577 1.356 . S
N575 H580 0.984 . S
N575 H581 0.985 . S
C576 C570 1.379 . S
C576 C573 1.363 . S
C576 N574 1.356 . S
C577 C571 1.363 . S
C577 C572 1.379 . S
C577 N575 1.356 . S
N578 C570 1.356 . S
N578 H584 0.984 . S
N578 H585 0.984 . S
N579 C572 1.356 . S
N579 H582 0.984 . S
N579 H583 0.985 . S
H580 N575 0.984 . S
H581 N575 0.985 . S
H582 N579 0.984 . S
H583 N579 0.985 . S
H584 N578 0.984 . S
H585 N578 0.984 . S
H586 N574 0.984 . S
H587 N574 0.985 . S
C588 C589 1.363 . S
C588 C594 1.379 . S
C588 N596 1.356 . S
C589 C588 1.363 . S
C589 C595 1.363 . S
C590 C591 1.363 . S
C590 C595 1.379 . S
C590 N597 1.356 . S
C591 C590 1.363 . S
C591 C594 1.363 . S
N592 C594 1.356 . S
N592 H604 0.984 . S
N592 H605 0.985 . S
N593 C595 1.356 . S
N593 H598 0.984 . S
N593 H599 0.985 . S
C594 C588 1.379 . S
C594 C591 1.363 . S
C594 N592 1.356 . S
C595 C589 1.363 . S
C595 C590 1.379 . S
C595 N593 1.356 . S
N596 C588 1.356 . S
N596 H602 0.984 . S
N596 H603 0.984 . S
N597 C590 1.356 . S
N597 H600 0.984 . S
N597 H601 0.985 . S
H598 N593 0.984 . S
H599 N593 0.985 . S
H600 N597 0.984 . S
H601 N597 0.985 . S
H602 N596 0.984 . S
H603 N596 0.984 . S
H604 N592 0.984 . S
H605 N592 0.985 . S
C606 C607 1.363 . S
C606 C612 1.379 . S
C606 N614 1.356 . S
C607 C606 1.363 . S
C607 C613 1.363 . S
C608 C609 1.363 . S
C608 C613 1.379 . S
C608 N615 1.356 . S
C609 C608 1.363 . S
C609 C612 1.363 . S
N610 C612 1.356 . S
N610 H622 0.984 . S
N610 H623 0.985 . S
N611 C613 1.356 . S
N611 H616 0.984 . S
N611 H617 0.985 . S
C612 C606 1.379 . S
C612 C609 1.363 . S
C612 N610 1.356 . S
C613 C607 1.363 . S
C613 C608 1.379 . S
C613 N611 1.356 . S
N614 C606 1.356 . S
N614 H620 0.984 . S
N614 H621 0.984 . S
N615 C608 1.356 . S
N615 H618 0.984 . S
N615 H619 0.985 . S
H616 N611 0.984 . S
H617 N611 0.985 . S
H618 N615 0.984 . S
H619 N615 0.985 . S
H620 N614 0.984 . S
H621 N614 0.984 . S
H622 N610 0.984 . S
H623 N610 0.985 . S
C265 N14 1.201 . S
C267 C41 1.163 . S
C283 C74 1.163 . S
C285 N47 1.201 . S
C301 N80 1.201 . S
C303 C107 1.163 . S
C319 C8 1.163 . S
C321 N113 1.201 . S
C337 C239 1.163 . S
C339 N146 1.201 . S
C355 C140 1.163 . S
C357 N179 1.201 . S
C373 C173 1.163 . S
C375 N212 1.201 . S
C391 N245 1.201 . S
C393 C206 1.163 . S
C409 C83 1.388 . S
C411 C17 1.388 . S
C427 C50 1.388 . S
C429 C116 1.388 . S
C445 C149 1.388 . S
C447 C215 1.388 . S
C463 C182 1.388 . S
C465 C248 1.388 . S
C481 C28 0.997 . S
C483 C94 0.997 . S
C499 C61 0.997 . S
C501 C127 0.997 . S
C517 C226 0.997 . S
C519 C160 0.997 . S
C535 C259 0.997 . S
C537 C193 0.997 . S
C553 N5 1.809 . S
C555 N170 1.809 . S
C571 N203 1.809 . S
C573 N38 1.809 . S
C589 N236 1.809 . S
C591 N71 1.809 . S
C607 N104 1.809 . S
C609 N137 1.809 . S
