# Generated by pormake.
# Topology wjh, (4)-cn, num edge types: 1
# Building blocks:
#     Node 0, Type 0, BuildingBlock: KUFVIS_clean_sbu_0, # of connection points: 4
#     Node 1, Type 0, BuildingBlock: KUFVIS_clean_sbu_0, # of connection points: 4
#     Node 2, Type 0, BuildingBlock: KUFVIS_clean_sbu_0, # of connection points: 4
#     Node 3, Type 0, BuildingBlock: KUFVIS_clean_sbu_0, # of connection points: 4
#     Node 4, Type 0, BuildingBlock: KUFVIS_clean_sbu_0, # of connection points: 4
#     Node 5, Type 0, BuildingBlock: KUFVIS_clean_sbu_0, # of connection points: 4
#     Node 6, Type 0, BuildingBlock: KUFVIS_clean_sbu_0, # of connection points: 4
#     Node 7, Type 0, BuildingBlock: KUFVIS_clean_sbu_0, # of connection points: 4
#     Node 8, Type 0, BuildingBlock: KUFVIS_clean_sbu_0, # of connection points: 4
#     Node 9, Type 0, BuildingBlock: KUFVIS_clean_sbu_0, # of connection points: 4
#     Node 10, Type 0, BuildingBlock: KUFVIS_clean_sbu_0, # of connection points: 4
#     Node 11, Type 0, BuildingBlock: KUFVIS_clean_sbu_0, # of connection points: 4
#     Edge 12, Type (0, 0), None
#     Edge 13, Type (0, 0), None
#     Edge 14, Type (0, 0), None
#     Edge 15, Type (0, 0), None
#     Edge 16, Type (0, 0), None
#     Edge 17, Type (0, 0), None
#     Edge 18, Type (0, 0), None
#     Edge 19, Type (0, 0), None
#     Edge 20, Type (0, 0), None
#     Edge 21, Type (0, 0), None
#     Edge 22, Type (0, 0), None
#     Edge 23, Type (0, 0), None
#     Edge 24, Type (0, 0), None
#     Edge 25, Type (0, 0), None
#     Edge 26, Type (0, 0), None
#     Edge 27, Type (0, 0), None
#     Edge 28, Type (0, 0), None
#     Edge 29, Type (0, 0), None
#     Edge 30, Type (0, 0), None
#     Edge 31, Type (0, 0), None
#     Edge 32, Type (0, 0), None
#     Edge 33, Type (0, 0), None
#     Edge 34, Type (0, 0), None
#     Edge 35, Type (0, 0), None
# Relax obj value: 0.086
# Max RMSD: 0.111
# Mean RMSD: 0.111
data_MOF--net-wjh--node1-KUFVIS_clean_sbu_0--edge1-none
_symmetry_space_group_name_H-M    P1
_symmetry_Int_Tables_number       1
_symmetry_cell_setting            triclinic
loop_
_symmetry_equiv_pos_as_xyz
'x, y, z'
_cell_length_a     28.590519
_cell_length_b     28.592274
_cell_length_c     11.684666
_cell_angle_alpha  89.998255
_cell_angle_beta   90.001987
_cell_angle_gamma 119.99792
loop_
_atom_site_label
_atom_site_type_symbol
_atom_site_fract_x
_atom_site_fract_y
_atom_site_fract_z
_atom_type_partial_charge
Mn0 Mn 0.52545 0.15574 0.0716 0.0
Mn1 Mn 0.60618 0.09955 0.04455 0.0
C2 C 0.56238 0.13902 0.23278 0.0
C3 C 0.52231 0.23749 0.10086 0.0
C4 C 0.48173 0.03663 0.03905 0.0
O5 O 0.54637 0.16518 0.89757 0.0
O6 O 0.60345 0.13249 0.89956 0.0
C7 C 0.71081 0.17046 0.95259 0.0
N8 N 0.6828 0.14162 0.04636 0.0
C9 C 0.74812 0.11292 0.07784 0.0
C10 C 0.77241 0.1363 0.9737 0.0
C11 C 0.75338 0.16485 0.91028 0.0
C12 C 0.70095 0.11366 0.10865 0.0
H13 H 0.69702 0.1929 0.90235 0.0
C14 C 0.58148 0.1557 0.84879 0.0
O15 O 0.47963 0.19274 0.0708 0.0
O16 O 0.56672 0.2362 0.09963 0.0
N17 N 0.61288 0.06344 0.17573 0.0
C18 C 0.57249 0.0184 0.22596 0.0
C19 C 0.58431 0.98422 0.28971 0.0
C20 C 0.63764 0.99562 0.29986 0.0
C21 C 0.67835 0.03993 0.24127 0.0
C22 C 0.66462 0.0744 0.18236 0.0
H23 H 0.5312 0.00657 0.21079 0.0
O24 O 0.52073 0.14525 0.2383 0.0
O25 O 0.58553 0.14574 0.1327 0.0
O26 O 0.46616 0.07124 0.05062 0.0
O27 O 0.53135 0.05284 0.03806 0.0
C28 C 0.72991 0.04624 0.22597 0.0
C29 C 0.76416 0.08156 0.1414 0.0
H30 H 0.80465 0.13095 0.93969 0.0
H31 H 0.77189 0.18301 0.82922 0.0
H32 H 0.55197 0.94737 0.32521 0.0
H33 H 0.64614 0.96752 0.34469 0.0
H34 H 0.74128 0.02001 0.26979 0.0
H35 H 0.80107 0.08152 0.12049 0.0
Mn36 Mn 0.37586 0.52241 0.23828 0.0
Mn37 Mn 0.51277 0.60312 0.21123 0.0
C38 C 0.4295 0.55933 0.39947 0.0
C39 C 0.29097 0.51928 0.26752 0.0
C40 C 0.45125 0.47868 0.20573 0.0
O41 O 0.38733 0.54333 0.06426 0.0
O42 O 0.47711 0.6004 0.06624 0.0
C43 C 0.54649 0.70774 0.11928 0.0
N44 N 0.54732 0.67973 0.21304 0.0
C45 C 0.64135 0.74504 0.2445 0.0
C46 C 0.64226 0.76933 0.14036 0.0
C47 C 0.59468 0.75032 0.07695 0.0
C48 C 0.59344 0.69788 0.27532 0.0
H49 H 0.51026 0.69396 0.06904 0.0
C50 C 0.43193 0.57843 0.01547 0.0
O51 O 0.29304 0.4766 0.23747 0.0
O52 O 0.33667 0.56369 0.2663 0.0
N53 N 0.55559 0.60981 0.34241 0.0
C54 C 0.56024 0.56943 0.39264 0.0
C55 C 0.60624 0.58124 0.45638 0.0
C56 C 0.64817 0.63456 0.46652 0.0
C57 C 0.64457 0.67527 0.40793 0.0
C58 C 0.59637 0.66155 0.34903 0.0
H59 H 0.53078 0.52814 0.37747 0.0
O60 O 0.38163 0.51769 0.40498 0.0
O61 O 0.44593 0.58248 0.29938 0.0
O62 O 0.40106 0.46312 0.21731 0.0
O63 O 0.48467 0.5283 0.20473 0.0
C64 C 0.68982 0.72682 0.39261 0.0
C65 C 0.68876 0.76108 0.30804 0.0
H66 H 0.67984 0.80157 0.10634 0.0
H67 H 0.59502 0.76882 -0.00411 0.0
H68 H 0.61074 0.54889 0.49189 0.0
H69 H 0.68477 0.64305 0.51134 0.0
H70 H 0.72743 0.73819 0.43641 0.0
H71 H 0.7257 0.79798 0.28712 0.0
Mn72 Mn 0.85959 0.37278 0.40492 0.0
Mn73 Mn 0.91576 0.50968 0.37784 0.0
C74 C 0.87631 0.42643 0.56609 0.0
C75 C 0.77784 0.28789 0.43418 0.0
C76 C 0.97871 0.44818 0.37238 0.0
O77 O 0.85015 0.38425 0.23088 0.0
O78 O 0.88283 0.47401 0.23286 0.0
C79 C 0.84483 0.54336 0.28583 0.0
N80 N 0.87368 0.54422 0.3796 0.0
C81 C 0.90241 0.63826 0.41092 0.0
C82 C 0.87902 0.63914 0.30677 0.0
C83 C 0.85044 0.59154 0.24344 0.0
C84 C 0.90166 0.59035 0.44182 0.0
H85 H 0.82237 0.50713 0.23565 0.0
C86 C 0.85963 0.42884 0.18209 0.0
O87 O 0.82259 0.28997 0.40413 0.0
O88 O 0.77912 0.33359 0.43294 0.0
N89 N 0.95188 0.55251 0.509 0.0
C90 C 0.99691 0.55717 0.55926 0.0
C91 C 0.03109 0.60317 0.62298 0.0
C92 C 0.0197 0.64511 0.63304 0.0
C93 C 0.9754 0.6415 0.57441 0.0
C94 C 0.94091 0.5933 0.51556 0.0
H95 H 1.00874 0.5277 0.54414 0.0
O96 O 0.87009 0.37856 0.57162 0.0
O97 O 0.86958 0.44285 0.466 0.0
O98 O 0.9441 0.398 0.38395 0.0
O99 O 0.96249 0.48159 0.37138 0.0
C100 C 0.9691 0.68675 0.55901 0.0
C101 C 0.93379 0.68568 0.47441 0.0
H102 H 0.88436 0.67671 0.27269 0.0
H103 H 0.83225 0.59186 0.16238 0.0
H104 H 0.06794 0.60767 0.65851 0.0
H105 H 0.04781 0.68171 0.67782 0.0
H106 H 0.99534 0.72437 0.60277 0.0
H107 H 0.93383 0.72261 0.45343 0.0
Mn108 Mn 0.49294 0.85654 0.57161 0.0
Mn109 Mn 0.41222 0.91273 0.54455 0.0
C110 C 0.45602 0.87325 0.73279 0.0
C111 C 0.49609 0.77479 0.60086 0.0
C112 C 0.53667 0.97565 0.53906 0.0
O113 O 0.47203 0.8471 0.39758 0.0
O114 O 0.41495 0.87979 0.39956 0.0
C115 C 0.30759 0.84182 0.45257 0.0
N116 N 0.3356 0.87066 0.54634 0.0
C117 C 0.27028 0.89937 0.57779 0.0
C118 C 0.24599 0.87598 0.47364 0.0
C119 C 0.26502 0.84743 0.41024 0.0
C120 C 0.31745 0.89862 0.60862 0.0
H121 H 0.32138 0.81938 0.40234 0.0
C122 C 0.43692 0.85658 0.34879 0.0
O123 O 0.53876 0.81954 0.57081 0.0
O124 O 0.45167 0.77608 0.59963 0.0
N125 N 0.40552 0.94884 0.67572 0.0
C126 C 0.4459 0.99388 0.72595 0.0
C127 C 0.43408 0.02806 0.78969 0.0
C128 C 0.38075 0.01666 0.79982 0.0
C129 C 0.34005 0.97235 0.74122 0.0
C130 C 0.35377 0.93788 0.68233 0.0
H131 H 0.4872 1.00571 0.71079 0.0
O132 O 0.49766 0.86703 0.73831 0.0
O133 O 0.43287 0.86653 0.6327 0.0
O134 O 0.55224 0.94104 0.55063 0.0
O135 O 0.48705 0.95944 0.53807 0.0
C136 C 0.28849 0.96604 0.7259 0.0
C137 C 0.25424 0.93073 0.64133 0.0
H138 H 0.21376 0.88133 0.43962 0.0
H139 H 0.24651 0.82927 0.32917 0.0
H140 H 0.46643 0.06491 0.82519 0.0
H141 H 0.37226 0.04476 0.84463 0.0
H142 H 0.27712 0.99228 0.7697 0.0
H143 H 0.21733 0.93077 0.6204 0.0
Mn144 Mn 0.64253 0.48986 0.73831 0.0
Mn145 Mn 0.50562 0.40916 0.71126 0.0
C146 C 0.58889 0.45295 0.89949 0.0
C147 C 0.72742 0.493 0.76753 0.0
C148 C 0.56715 0.5336 0.70574 0.0
O149 O 0.63105 0.46894 0.56428 0.0
O150 O 0.54128 0.41187 0.56627 0.0
C151 C 0.47189 0.30453 0.61932 0.0
N152 N 0.47107 0.33254 0.71308 0.0
C153 C 0.37704 0.26723 0.74457 0.0
C154 C 0.37613 0.24294 0.64044 0.0
C155 C 0.4237 0.26196 0.57701 0.0
C156 C 0.42496 0.3144 0.77537 0.0
H157 H 0.50811 0.31831 0.56906 0.0
C158 C 0.58646 0.43384 0.5155 0.0
O159 O 0.72535 0.53567 0.73748 0.0
O160 O 0.68172 0.44859 0.76633 0.0
N161 N 0.4628 0.40247 0.84243 0.0
C162 C 0.45815 0.44286 0.89265 0.0
C163 C 0.41215 0.43104 0.95639 0.0
C164 C 0.37023 0.37772 0.96655 0.0
C165 C 0.37383 0.33701 0.90798 0.0
C166 C 0.42203 0.35073 0.84907 0.0
H167 H 0.48761 0.48415 0.87746 0.0
O168 O 0.63677 0.49459 0.905 0.0
O169 O 0.57246 0.4298 0.7994 0.0
O170 O 0.61733 0.54916 0.71732 0.0
O171 O 0.53373 0.48398 0.70475 0.0
C172 C 0.32859 0.28546 0.89269 0.0
C173 C 0.32964 0.2512 0.80813 0.0
H174 H 0.33854 0.2107 0.60643 0.0
H175 H 0.42335 0.24345 0.49594 0.0
H176 H 0.40766 0.46339 -0.00812 0.0
H177 H 0.33363 0.36923 0.01138 0.0
H178 H 0.29098 0.27409 0.9365 0.0
H179 H 0.2927 0.21429 0.78722 0.0
Mn180 Mn 0.15881 0.6395 0.90492 0.0
Mn181 Mn 0.10263 0.50259 0.87786 0.0
C182 C 0.14209 0.58585 0.0661 0.0
C183 C 0.24056 0.72439 0.93418 0.0
C184 C 0.03969 0.5641 0.87237 0.0
O185 O 0.16825 0.62803 0.73089 0.0
O186 O 0.13557 0.53827 0.73288 0.0
C187 C 0.17356 0.4689 0.78587 0.0
N188 N 0.14471 0.46805 0.87964 0.0
C189 C 0.11598 0.37402 0.91102 0.0
C190 C 0.13937 0.37313 0.80687 0.0
C191 C 0.16794 0.42071 0.7435 0.0
C192 C 0.11674 0.42193 0.94189 0.0
H193 H 0.196 0.50513 0.73567 0.0
C194 C 0.15877 0.58344 0.6821 0.0
O195 O 0.1958 0.72231 0.90412 0.0
O196 O 0.23927 0.67869 0.93295 0.0
N197 N 0.06652 0.45977 0.00903 0.0
C198 C 0.02148 0.45512 0.05928 0.0
C199 C 0.9873 0.40911 0.123 0.0
C200 C 0.9987 0.36718 0.1331 0.0
C201 C 0.043 0.37079 0.07448 0.0
C202 C 0.07748 0.41899 0.01561 0.0
H203 H 0.00965 0.48458 0.04413 0.0
O204 O 0.14831 0.63372 0.07162 0.0
O205 O 0.14882 0.56943 0.96601 0.0
O206 O 0.0743 0.61428 0.88394 0.0
O207 O 0.05591 0.53069 0.87138 0.0
C208 C 0.0493 0.32554 0.05912 0.0
C209 C 0.08461 0.3266 0.97453 0.0
H210 H 0.13402 0.33555 0.77281 0.0
H211 H 0.18611 0.42039 0.66244 0.0
H212 H 0.95045 0.40461 0.15852 0.0
H213 H 0.97059 0.33058 0.1779 0.0
H214 H 0.02306 0.28793 0.1029 0.0
H215 H 0.08457 0.28967 0.95357 0.0
Mn216 Mn 0.85958 0.48986 0.83296 0.0
Mn217 Mn 0.9158 0.40915 0.85999 0.0
C218 C 0.87629 0.45294 0.67178 0.0
C219 C 0.77783 0.493 0.80374 0.0
C220 C 0.97871 0.5336 0.8655 0.0
O221 O 0.85014 0.46894 0.00699 0.0
O222 O 0.88285 0.41186 0.00498 0.0
C223 C 0.84491 0.30452 0.95193 0.0
N224 N 0.87374 0.33254 0.85816 0.0
C225 C 0.90246 0.26723 0.82664 0.0
C226 C 0.87907 0.24293 0.93078 0.0
C227 C 0.85052 0.26194 -0.00578 0.0
C228 C 0.90171 0.3144 0.79586 0.0
H229 H 0.82247 0.3183 0.00219 0.0
C230 C 0.85961 0.43381 0.05573 0.0
O231 O 0.82258 0.53567 0.8338 0.0
O232 O 0.77912 0.44859 0.80494 0.0
N233 N 0.95192 0.40247 0.72881 0.0
C234 C 0.99696 0.44286 0.6786 0.0
C235 C 0.03115 0.43106 0.61485 0.0
C236 C 0.01976 0.37774 0.60468 0.0
C237 C 0.97544 0.33702 0.66324 0.0
C238 C 0.94096 0.35073 0.72216 0.0
H239 H 1.00879 0.48415 0.69378 0.0
O240 O 0.87007 0.49459 0.66626 0.0
O241 O 0.86959 0.4298 0.77186 0.0
O242 O 0.94408 0.54916 0.85395 0.0
O243 O 0.96251 0.48398 0.86649 0.0
C244 C 0.96914 0.28546 0.67852 0.0
C245 C 0.93382 0.2512 0.76307 0.0
H246 H 0.88442 0.21069 0.96477 0.0
H247 H 0.83236 0.24343 0.07528 0.0
H248 H 0.068 0.46341 0.57937 0.0
H249 H 0.04787 0.36925 0.55985 0.0
H250 H 0.99538 0.2741 0.6347 0.0
H251 H 0.93386 0.21429 0.78397 0.0
Mn252 Mn 0.37585 0.85653 -0.00035 0.0
Mn253 Mn 0.51277 0.91273 0.02668 0.0
C254 C 0.42948 0.87324 0.83848 0.0
C255 C 0.29096 0.77478 0.97041 0.0
C256 C 0.45124 0.97565 0.03217 0.0
O257 O 0.38733 0.84709 0.17368 0.0
O258 O 0.47711 0.87979 0.17167 0.0
C259 C 0.5465 0.84182 0.11865 0.0
N260 N 0.54733 0.87066 0.02488 0.0
C261 C 0.64135 0.89937 -0.00661 0.0
C262 C 0.64227 0.87598 0.09753 0.0
C263 C 0.59469 0.84743 0.16095 0.0
C264 C 0.59344 0.89862 0.96259 0.0
H265 H 0.51028 0.81939 0.1689 0.0
C266 C 0.43193 0.85656 0.22243 0.0
O267 O 0.29303 0.81953 0.00047 0.0
O268 O 0.33666 0.77607 0.97163 0.0
N269 N 0.55559 0.94885 0.8955 0.0
C270 C 0.56023 0.99388 0.84528 0.0
C271 C 0.60623 0.02807 0.78154 0.0
C272 C 0.64816 0.01666 0.77139 0.0
C273 C 0.64456 0.97235 0.82997 0.0
C274 C 0.59636 0.93788 0.88888 0.0
H275 H 0.53077 1.00571 0.86045 0.0
O276 O 0.38161 0.86702 0.83294 0.0
O277 O 0.44592 0.86653 0.93856 0.0
O278 O 0.40106 0.94103 0.02063 0.0
O279 O 0.48466 0.95944 0.03317 0.0
C280 C 0.68981 0.96604 0.84527 0.0
C281 C 0.68875 0.93073 0.92983 0.0
H282 H 0.67985 0.88132 0.13153 0.0
H283 H 0.59504 0.82927 0.24202 0.0
H284 H 0.61073 0.06491 0.74605 0.0
H285 H 0.68476 0.04477 0.72657 0.0
H286 H 0.72741 0.99228 0.80145 0.0
H287 H 0.72569 0.93076 0.95074 0.0
Mn288 Mn 0.52545 0.37278 0.16635 0.0
Mn289 Mn 0.60618 0.50969 0.1934 0.0
C290 C 0.56238 0.42641 0.00518 0.0
C291 C 0.52231 0.28789 0.1371 0.0
C292 C 0.48173 0.44818 0.19886 0.0
O293 O 0.54636 0.38425 0.34039 0.0
O294 O 0.60345 0.47402 0.33838 0.0
C295 C 0.7108 0.54339 0.2854 0.0
N296 N 0.6828 0.54423 0.19163 0.0
C297 C 0.74811 0.63827 0.16026 0.0
C298 C 0.77239 0.63916 0.26441 0.0
C299 C 0.75337 0.59157 0.32777 0.0
C300 C 0.70095 0.59036 0.12939 0.0
H301 H 0.69702 0.50716 0.3356 0.0
C302 C 0.58149 0.42884 0.38914 0.0
O303 O 0.47963 0.28996 0.16715 0.0
O304 O 0.56672 0.33358 0.13833 0.0
N305 N 0.61289 0.55251 0.06223 0.0
C306 C 0.57251 0.55716 0.01197 0.0
C307 C 0.58432 0.60317 0.94825 0.0
C308 C 0.63765 0.6451 0.93817 0.0
C309 C 0.67835 0.6415 -0.00321 0.0
C310 C 0.66463 0.5933 0.05566 0.0
H311 H 0.53121 0.52769 0.02711 0.0
O312 O 0.52073 0.37855 -0.00035 0.0
O313 O 0.58553 0.44285 0.10527 0.0
O314 O 0.46616 0.39799 0.18733 0.0
O315 O 0.53136 0.48158 0.19986 0.0
C316 C 0.7299 0.68675 0.01217 0.0
C317 C 0.76414 0.68568 0.09675 0.0
H318 H 0.80462 0.67673 0.29846 0.0
H319 H 0.77188 0.59189 0.40882 0.0
H320 H 0.55197 0.60766 0.91273 0.0
H321 H 0.64614 0.6817 0.89338 0.0
H322 H 0.74127 0.72436 0.96839 0.0
H323 H 0.80104 0.72262 0.11772 0.0
Mn324 Mn 0.15882 0.52242 0.33298 0.0
Mn325 Mn 0.1026 0.60312 0.35999 0.0
C326 C 0.1421 0.55933 0.1718 0.0
C327 C 0.24057 0.51928 0.30375 0.0
C328 C 0.03969 0.47868 0.36552 0.0
O329 O 0.16826 0.54334 0.507 0.0
O330 O 0.13555 0.60041 0.50499 0.0
C331 C 0.1735 0.70776 0.45193 0.0
N332 N 0.14466 0.67974 0.35816 0.0
C333 C 0.11595 0.74505 0.32664 0.0
C334 C 0.13933 0.76935 0.43077 0.0
C335 C 0.16788 0.75034 0.49421 0.0
C336 C 0.1167 0.69788 0.29586 0.0
H337 H 0.19594 0.69398 0.50219 0.0
C338 C 0.15879 0.57847 0.55574 0.0
O339 O 0.19582 0.4766 0.33381 0.0
O340 O 0.23928 0.56369 0.30496 0.0
N341 N 0.06648 0.60981 0.22881 0.0
C342 C 0.02144 0.56942 0.17859 0.0
C343 C 0.98725 0.58123 0.11484 0.0
C344 C 0.99864 0.63455 0.10467 0.0
C345 C 0.04296 0.67526 0.16324 0.0
C346 C 0.07744 0.66155 0.22216 0.0
H347 H 0.00961 0.52813 0.19378 0.0
O348 O 0.14832 0.51769 0.16627 0.0
O349 O 0.14881 0.58248 0.27188 0.0
O350 O 0.07431 0.46312 0.35396 0.0
O351 O 0.05589 0.5283 0.3665 0.0
C352 C 0.04926 0.72682 0.17852 0.0
C353 C 0.08458 0.76108 0.26307 0.0
H354 H 0.13399 0.80159 0.46476 0.0
H355 H 0.18605 0.76885 0.57527 0.0
H356 H 0.9504 0.54887 0.07935 0.0
H357 H 0.97053 0.64303 0.05984 0.0
H358 H 0.02302 0.73818 0.13469 0.0
H359 H 0.08454 0.79799 0.28396 0.0
Mn360 Mn 0.64255 0.15575 0.49966 0.0
Mn361 Mn 0.50563 0.09955 0.52668 0.0
C362 C 0.58892 0.13904 0.33848 0.0
C363 C 0.72744 0.23749 0.47041 0.0
C364 C 0.56716 0.03663 0.53219 0.0
O365 O 0.63107 0.16518 0.67368 0.0
O366 O 0.54129 0.13249 0.67167 0.0
C367 C 0.47188 0.17044 0.61862 0.0
N368 N 0.47107 0.14161 0.52485 0.0
C369 C 0.37704 0.11291 0.49332 0.0
C370 C 0.37612 0.13629 0.59746 0.0
C371 C 0.42369 0.16483 0.66091 0.0
C372 C 0.42496 0.11365 0.46254 0.0
H373 H 0.5081 0.19287 0.66889 0.0
C374 C 0.58647 0.15572 0.72242 0.0
O375 O 0.72537 0.19275 0.50048 0.0
O376 O 0.68174 0.23621 0.47163 0.0
N377 N 0.46281 0.06343 0.39549 0.0
C378 C 0.45817 0.0184 0.34527 0.0
C379 C 0.41217 0.98421 0.28152 0.0
C380 C 0.37025 0.99562 0.27134 0.0
C381 C 0.37385 0.03992 0.32992 0.0
C382 C 0.42204 0.0744 0.38884 0.0
H383 H 0.48763 0.00657 0.36045 0.0
O384 O 0.63678 0.14525 0.33295 0.0
O385 O 0.57247 0.14575 0.43856 0.0
O386 O 0.61734 0.07125 0.52064 0.0
O387 O 0.53374 0.05284 0.53317 0.0
C388 C 0.3286 0.04624 0.34519 0.0
C389 C 0.32965 0.08155 0.42974 0.0
H390 H 0.33854 0.13094 0.63144 0.0
H391 H 0.42334 0.18299 0.74197 0.0
H392 H 0.40768 0.94737 0.24603 0.0
H393 H 0.33365 0.96751 0.22651 0.0
H394 H 0.291 0.02001 0.30136 0.0
H395 H 0.2927 0.08152 0.45063 0.0
Mn396 Mn 0.49294 0.6395 0.66633 0.0
Mn397 Mn 0.41221 0.50258 0.69337 0.0
C398 C 0.45602 0.58587 0.50516 0.0
C399 C 0.49609 0.72439 0.63709 0.0
C400 C 0.53666 0.5641 0.69886 0.0
O401 O 0.47203 0.62802 0.84036 0.0
O402 O 0.41494 0.53825 0.83836 0.0
C403 C 0.30759 0.46887 0.78535 0.0
N404 N 0.33559 0.46804 0.69158 0.0
C405 C 0.27029 0.37401 0.66016 0.0
C406 C 0.246 0.37311 0.76431 0.0
C407 C 0.26502 0.42069 0.82769 0.0
C408 C 0.31744 0.42192 0.62932 0.0
H409 H 0.32137 0.5051 0.83557 0.0
C410 C 0.43689 0.58343 0.88911 0.0
O411 O 0.53876 0.72231 0.66715 0.0
O412 O 0.45167 0.67869 0.63831 0.0
N413 N 0.40551 0.45977 0.5622 0.0
C414 C 0.4459 0.45512 0.51196 0.0
C415 C 0.43408 0.40912 0.44824 0.0
C416 C 0.38076 0.36719 0.43812 0.0
C417 C 0.34005 0.37079 0.49672 0.0
C418 C 0.35377 0.41899 0.5556 0.0
H419 H 0.48719 0.48458 0.52712 0.0
O420 O 0.49767 0.63373 0.49963 0.0
O421 O 0.43286 0.56943 0.60524 0.0
O422 O 0.55224 0.61428 0.68732 0.0
O423 O 0.48704 0.53069 0.69985 0.0
C424 C 0.2885 0.32554 0.51206 0.0
C425 C 0.25425 0.3266 0.59663 0.0
H426 H 0.21377 0.33553 0.79834 0.0
H427 H 0.24651 0.42035 0.90875 0.0
H428 H 0.46643 0.40462 0.41273 0.0
H429 H 0.37227 0.33059 0.39331 0.0
H430 H 0.27713 0.28793 0.46826 0.0
H431 H 0.21735 0.28966 0.61757 0.0
loop_
_geom_bond_atom_site_label_1
_geom_bond_atom_site_label_2
_geom_bond_distance
_geom_bond_site_symmetry_2
_ccdc_geom_bond_type
Mn0 O5 2.095 1_554 S
Mn0 O15 2.162 . S
Mn0 O16 2.297 . S
Mn0 O24 2.385 . S
Mn0 O25 2.209 . S
Mn0 O26 2.094 . S
Mn1 O6 2.121 1_554 S
Mn1 N8 2.257 . S
Mn1 N17 2.282 . S
Mn1 O25 2.215 . S
Mn1 O27 2.117 . S
C2 O24 1.234 . S
C2 O25 1.283 . S
C3 O15 1.281 . S
C3 O16 1.236 . S
C4 O26 1.240 . S
C4 O27 1.264 . S
O5 Mn0 2.095 1_556 S
O5 C14 1.250 . S
O6 Mn1 2.121 1_556 S
O6 C14 1.258 . S
C7 N8 1.326 . S
C7 C11 1.460 . S
C7 H13 0.929 1_554 S
N8 Mn1 2.257 . S
N8 C7 1.326 . S
N8 C12 1.362 . S
C9 C10 1.258 . S
C9 C12 1.431 . S
C9 C29 1.449 . S
C10 C9 1.258 . S
C10 C11 1.477 . S
C10 H30 0.931 . S
C11 C7 1.460 . S
C11 C10 1.477 . S
C11 H31 0.930 . S
C12 N8 1.362 . S
C12 C9 1.431 . S
C12 C22 1.476 . S
H13 C7 0.929 1_556 S
C14 O5 1.250 . S
C14 O6 1.258 . S
O15 Mn0 2.162 . S
O15 C3 1.281 . S
O16 Mn0 2.297 . S
O16 C3 1.236 . S
N17 Mn1 2.282 . S
N17 C18 1.328 . S
N17 C22 1.318 . S
C18 N17 1.328 . S
C18 C19 1.457 1_545 S
C18 H23 0.929 1_545 S
C19 C18 1.457 1_565 S
C19 C20 1.288 . S
C19 H32 0.931 . S
C20 C19 1.288 . S
C20 C21 1.371 1_565 S
C20 H33 0.934 . S
C21 C20 1.371 1_545 S
C21 C22 1.396 . S
C21 C28 1.403 . S
C22 C12 1.476 . S
C22 N17 1.318 . S
C22 C21 1.396 . S
H23 C18 0.929 1_565 S
O24 Mn0 2.385 . S
O24 C2 1.234 . S
O25 Mn0 2.209 . S
O25 Mn1 2.215 . S
O25 C2 1.283 . S
O26 Mn0 2.094 . S
O26 C4 1.240 . S
O27 Mn1 2.117 . S
O27 C4 1.264 . S
C28 C21 1.403 . S
C28 C29 1.399 . S
C28 H34 0.929 . S
C29 C9 1.449 . S
C29 C28 1.399 . S
C29 H35 0.930 . S
H30 C10 0.931 . S
H31 C11 0.930 . S
H32 C19 0.931 . S
H33 C20 0.934 . S
H34 C28 0.929 . S
H35 C29 0.930 . S
Mn36 O41 2.095 . S
Mn36 O51 2.162 . S
Mn36 O52 2.297 . S
Mn36 O60 2.385 . S
Mn36 O61 2.209 . S
Mn36 O62 2.094 . S
Mn37 O42 2.121 . S
Mn37 N44 2.257 . S
Mn37 N53 2.282 . S
Mn37 O61 2.215 . S
Mn37 O63 2.117 . S
C38 O60 1.234 . S
C38 O61 1.283 . S
C39 O51 1.281 . S
C39 O52 1.236 . S
C40 O62 1.240 . S
C40 O63 1.264 . S
O41 Mn36 2.095 . S
O41 C50 1.250 . S
O42 Mn37 2.121 . S
O42 C50 1.258 . S
C43 N44 1.326 . S
C43 C47 1.460 . S
C43 H49 0.929 . S
N44 Mn37 2.257 . S
N44 C43 1.326 . S
N44 C48 1.362 . S
C45 C46 1.258 . S
C45 C48 1.431 . S
C45 C65 1.449 . S
C46 C45 1.258 . S
C46 C47 1.477 . S
C46 H66 0.931 . S
C47 C43 1.460 . S
C47 C46 1.477 . S
C47 H67 0.930 . S
C48 N44 1.362 . S
C48 C45 1.431 . S
C48 C58 1.476 . S
H49 C43 0.929 . S
C50 O41 1.250 . S
C50 O42 1.258 . S
O51 Mn36 2.162 . S
O51 C39 1.281 . S
O52 Mn36 2.297 . S
O52 C39 1.236 . S
N53 Mn37 2.282 . S
N53 C54 1.328 . S
N53 C58 1.318 . S
C54 N53 1.328 . S
C54 C55 1.457 . S
C54 H59 0.929 . S
C55 C54 1.457 . S
C55 C56 1.291 . S
C55 H68 0.931 . S
C56 C55 1.291 . S
C56 C57 1.373 . S
C56 H69 0.929 . S
C57 C56 1.373 . S
C57 C58 1.396 . S
C57 C64 1.403 . S
C58 C48 1.476 . S
C58 N53 1.318 . S
C58 C57 1.396 . S
H59 C54 0.929 . S
O60 Mn36 2.385 . S
O60 C38 1.234 . S
O61 Mn36 2.209 . S
O61 Mn37 2.215 . S
O61 C38 1.283 . S
O62 Mn36 2.094 . S
O62 C40 1.240 . S
O63 Mn37 2.117 . S
O63 C40 1.264 . S
C64 C57 1.403 . S
C64 C65 1.399 . S
C64 H70 0.929 . S
C65 C45 1.449 . S
C65 C64 1.399 . S
C65 H71 0.930 . S
H66 C46 0.931 . S
H67 C47 0.930 . S
H68 C55 0.931 . S
H69 C56 0.929 . S
H70 C64 0.929 . S
H71 C65 0.930 . S
Mn72 O77 2.095 . S
Mn72 O87 2.162 . S
Mn72 O88 2.297 . S
Mn72 O96 2.385 . S
Mn72 O97 2.209 . S
Mn72 O98 2.094 . S
Mn73 O78 2.121 . S
Mn73 N80 2.257 . S
Mn73 N89 2.282 . S
Mn73 O97 2.215 . S
Mn73 O99 2.117 . S
C74 O96 1.234 . S
C74 O97 1.283 . S
C75 O87 1.281 . S
C75 O88 1.236 . S
C76 O98 1.240 . S
C76 O99 1.264 . S
O77 Mn72 2.095 . S
O77 C86 1.250 . S
O78 Mn73 2.121 . S
O78 C86 1.258 . S
C79 N80 1.326 . S
C79 C83 1.460 . S
C79 H85 0.929 . S
N80 Mn73 2.257 . S
N80 C79 1.326 . S
N80 C84 1.362 . S
C81 C82 1.258 . S
C81 C84 1.431 . S
C81 C101 1.449 . S
C82 C81 1.258 . S
C82 C83 1.477 . S
C82 H102 0.931 . S
C83 C79 1.460 . S
C83 C82 1.477 . S
C83 H103 0.930 . S
C84 N80 1.362 . S
C84 C81 1.431 . S
C84 C94 1.476 . S
H85 C79 0.929 . S
C86 O77 1.250 . S
C86 O78 1.258 . S
O87 Mn72 2.162 . S
O87 C75 1.281 . S
O88 Mn72 2.297 . S
O88 C75 1.236 . S
N89 Mn73 2.282 . S
N89 C90 1.328 . S
N89 C94 1.318 . S
C90 N89 1.328 . S
C90 C91 1.457 1_655 S
C90 H95 0.929 1_655 S
C91 C90 1.457 1_455 S
C91 C92 1.297 . S
C91 H104 0.931 . S
C92 C91 1.297 . S
C92 C93 1.365 1_455 S
C92 H105 0.931 . S
C93 C92 1.365 1_655 S
C93 C94 1.396 . S
C93 C100 1.403 . S
C94 C84 1.476 . S
C94 N89 1.318 . S
C94 C93 1.396 . S
H95 C90 0.929 1_455 S
O96 Mn72 2.385 . S
O96 C74 1.234 . S
O97 Mn72 2.209 . S
O97 Mn73 2.215 . S
O97 C74 1.283 . S
O98 Mn72 2.094 . S
O98 C76 1.240 . S
O99 Mn73 2.117 . S
O99 C76 1.264 . S
C100 C93 1.403 . S
C100 C101 1.399 . S
C100 H106 0.929 . S
C101 C81 1.449 . S
C101 C100 1.399 . S
C101 H107 0.930 . S
H102 C82 0.931 . S
H103 C83 0.930 . S
H104 C91 0.931 . S
H105 C92 0.931 . S
H106 C100 0.929 . S
H107 C101 0.930 . S
Mn108 O113 2.095 . S
Mn108 O123 2.162 . S
Mn108 O124 2.297 . S
Mn108 O132 2.385 . S
Mn108 O133 2.209 . S
Mn108 O134 2.094 . S
Mn109 O114 2.121 . S
Mn109 N116 2.257 . S
Mn109 N125 2.282 . S
Mn109 O133 2.215 . S
Mn109 O135 2.117 . S
C110 O132 1.234 . S
C110 O133 1.283 . S
C111 O123 1.281 . S
C111 O124 1.236 . S
C112 O134 1.240 . S
C112 O135 1.264 . S
O113 Mn108 2.095 . S
O113 C122 1.250 . S
O114 Mn109 2.121 . S
O114 C122 1.258 . S
C115 N116 1.326 . S
C115 C119 1.460 . S
C115 H121 0.929 . S
N116 Mn109 2.257 . S
N116 C115 1.326 . S
N116 C120 1.362 . S
C117 C118 1.258 . S
C117 C120 1.431 . S
C117 C137 1.449 . S
C118 C117 1.258 . S
C118 C119 1.477 . S
C118 H138 0.931 . S
C119 C115 1.460 . S
C119 C118 1.477 . S
C119 H139 0.930 . S
C120 N116 1.362 . S
C120 C117 1.431 . S
C120 C130 1.476 . S
H121 C115 0.929 . S
C122 O113 1.250 . S
C122 O114 1.258 . S
O123 Mn108 2.162 . S
O123 C111 1.281 . S
O124 Mn108 2.297 . S
O124 C111 1.236 . S
N125 Mn109 2.282 . S
N125 C126 1.328 . S
N125 C130 1.318 . S
C126 N125 1.328 . S
C126 C127 1.457 1_565 S
C126 H131 0.929 1_565 S
C127 C126 1.457 1_545 S
C127 C128 1.288 . S
C127 H140 0.931 . S
C128 C127 1.288 . S
C128 C129 1.371 1_545 S
C128 H141 0.934 1_556 S
C129 C128 1.371 1_565 S
C129 C130 1.396 . S
C129 C136 1.403 . S
C130 C120 1.476 . S
C130 N125 1.318 . S
C130 C129 1.396 . S
H131 C126 0.929 1_545 S
O132 Mn108 2.385 . S
O132 C110 1.234 . S
O133 Mn108 2.209 . S
O133 Mn109 2.215 . S
O133 C110 1.283 . S
O134 Mn108 2.094 . S
O134 C112 1.240 . S
O135 Mn109 2.117 . S
O135 C112 1.264 . S
C136 C129 1.403 . S
C136 C137 1.399 . S
C136 H142 0.929 . S
C137 C117 1.449 . S
C137 C136 1.399 . S
C137 H143 0.930 . S
H138 C118 0.931 . S
H139 C119 0.930 . S
H140 C127 0.931 . S
H141 C128 0.934 1_554 S
H142 C136 0.929 . S
H143 C137 0.930 . S
Mn144 O149 2.095 . S
Mn144 O159 2.162 . S
Mn144 O160 2.297 . S
Mn144 O168 2.385 . S
Mn144 O169 2.209 . S
Mn144 O170 2.094 . S
Mn145 O150 2.121 . S
Mn145 N152 2.257 . S
Mn145 N161 2.282 . S
Mn145 O169 2.215 . S
Mn145 O171 2.117 . S
C146 O168 1.234 . S
C146 O169 1.283 . S
C147 O159 1.281 . S
C147 O160 1.236 . S
C148 O170 1.240 . S
C148 O171 1.264 . S
O149 Mn144 2.095 . S
O149 C158 1.250 . S
O150 Mn145 2.121 . S
O150 C158 1.258 . S
C151 N152 1.326 . S
C151 C155 1.460 . S
C151 H157 0.929 . S
N152 Mn145 2.257 . S
N152 C151 1.326 . S
N152 C156 1.362 . S
C153 C154 1.258 . S
C153 C156 1.431 . S
C153 C173 1.449 1_556 S
C154 C153 1.258 . S
C154 C155 1.477 . S
C154 H174 0.931 . S
C155 C151 1.460 . S
C155 C154 1.477 . S
C155 H175 0.930 . S
C156 N152 1.362 . S
C156 C153 1.431 . S
C156 C166 1.476 . S
H157 C151 0.929 . S
C158 O149 1.250 . S
C158 O150 1.258 . S
O159 Mn144 2.162 . S
O159 C147 1.281 . S
O160 Mn144 2.297 . S
O160 C147 1.236 . S
N161 Mn145 2.282 . S
N161 C162 1.328 . S
N161 C166 1.318 . S
C162 N161 1.328 . S
C162 C163 1.457 1_556 S
C162 H167 0.929 . S
C163 C162 1.457 1_554 S
C163 C164 1.291 . S
C163 H176 0.931 . S
C164 C163 1.291 . S
C164 C165 1.373 . S
C164 H177 0.929 . S
C165 C164 1.373 . S
C165 C166 1.396 1_554 S
C165 C172 1.403 . S
C166 C156 1.476 . S
C166 N161 1.318 . S
C166 C165 1.396 1_556 S
H167 C162 0.929 . S
O168 Mn144 2.385 . S
O168 C146 1.234 . S
O169 Mn144 2.209 . S
O169 Mn145 2.215 . S
O169 C146 1.283 . S
O170 Mn144 2.094 . S
O170 C148 1.240 . S
O171 Mn145 2.117 . S
O171 C148 1.264 . S
C172 C165 1.403 . S
C172 C173 1.399 . S
C172 H178 0.929 . S
C173 C153 1.449 1_554 S
C173 C172 1.399 . S
C173 H179 0.930 . S
H174 C154 0.931 . S
H175 C155 0.930 . S
H176 C163 0.931 . S
H177 C164 0.929 . S
H178 C172 0.929 . S
H179 C173 0.930 . S
Mn180 O185 2.095 . S
Mn180 O195 2.162 . S
Mn180 O196 2.297 . S
Mn180 O204 2.385 1_556 S
Mn180 O205 2.209 . S
Mn180 O206 2.094 . S
Mn181 O186 2.121 . S
Mn181 N188 2.257 . S
Mn181 N197 2.282 1_556 S
Mn181 O205 2.215 . S
Mn181 O207 2.117 . S
C182 O204 1.234 . S
C182 O205 1.283 1_554 S
C183 O195 1.281 . S
C183 O196 1.236 . S
C184 O206 1.240 . S
C184 O207 1.264 . S
O185 Mn180 2.095 . S
O185 C194 1.250 . S
O186 Mn181 2.121 . S
O186 C194 1.258 . S
C187 N188 1.326 . S
C187 C191 1.460 . S
C187 H193 0.929 . S
N188 Mn181 2.257 . S
N188 C187 1.326 . S
N188 C192 1.362 1_556 S
C189 C190 1.258 . S
C189 C192 1.431 . S
C189 C209 1.449 . S
C190 C189 1.258 . S
C190 C191 1.477 1_554 S
C190 H210 0.931 . S
C191 C187 1.460 . S
C191 C190 1.477 1_556 S
C191 H211 0.930 . S
C192 N188 1.362 1_554 S
C192 C189 1.431 . S
C192 C202 1.476 . S
H193 C187 0.929 . S
C194 O185 1.250 . S
C194 O186 1.258 . S
O195 Mn180 2.162 . S
O195 C183 1.281 . S
O196 Mn180 2.297 . S
O196 C183 1.236 . S
N197 Mn181 2.282 1_554 S
N197 C198 1.328 . S
N197 C202 1.318 . S
C198 N197 1.328 . S
C198 C199 1.457 1_455 S
C198 H203 0.929 1_455 S
C199 C198 1.457 1_655 S
C199 C200 1.297 . S
C199 H212 0.931 . S
C200 C199 1.297 . S
C200 C201 1.365 1_655 S
C200 H213 0.931 . S
C201 C200 1.365 1_455 S
C201 C202 1.396 . S
C201 C208 1.403 . S
C202 C192 1.476 . S
C202 N197 1.318 . S
C202 C201 1.396 . S
H203 C198 0.929 1_655 S
O204 Mn180 2.385 1_554 S
O204 C182 1.234 . S
O205 Mn180 2.209 . S
O205 Mn181 2.215 . S
O205 C182 1.283 1_556 S
O206 Mn180 2.094 . S
O206 C184 1.240 . S
O207 Mn181 2.117 . S
O207 C184 1.264 . S
C208 C201 1.403 . S
C208 C209 1.399 . S
C208 H214 0.929 . S
C209 C189 1.449 . S
C209 C208 1.399 . S
C209 H215 0.930 . S
H210 C190 0.931 . S
H211 C191 0.930 . S
H212 C199 0.931 . S
H213 C200 0.931 . S
H214 C208 0.929 . S
H215 C209 0.930 . S
Mn216 O221 2.095 1_556 S
Mn216 O231 2.162 . S
Mn216 O232 2.297 . S
Mn216 O240 2.385 . S
Mn216 O241 2.209 . S
Mn216 O242 2.094 . S
Mn217 O222 2.121 1_556 S
Mn217 N224 2.257 . S
Mn217 N233 2.282 . S
Mn217 O241 2.215 . S
Mn217 O243 2.117 . S
C218 O240 1.234 . S
C218 O241 1.283 . S
C219 O231 1.281 . S
C219 O232 1.236 . S
C220 O242 1.240 . S
C220 O243 1.264 . S
O221 Mn216 2.095 1_554 S
O221 C230 1.250 . S
O222 Mn217 2.121 1_554 S
O222 C230 1.258 . S
C223 N224 1.326 . S
C223 C227 1.460 . S
C223 H229 0.929 . S
N224 Mn217 2.257 . S
N224 C223 1.326 . S
N224 C228 1.362 . S
C225 C226 1.258 . S
C225 C228 1.431 . S
C225 C245 1.449 . S
C226 C225 1.258 . S
C226 C227 1.477 . S
C226 H246 0.931 . S
C227 C223 1.460 . S
C227 C226 1.477 . S
C227 H247 0.930 . S
C228 N224 1.362 . S
C228 C225 1.431 . S
C228 C238 1.476 . S
H229 C223 0.929 . S
C230 O221 1.250 . S
C230 O222 1.258 . S
O231 Mn216 2.162 . S
O231 C219 1.281 . S
O232 Mn216 2.297 . S
O232 C219 1.236 . S
N233 Mn217 2.282 . S
N233 C234 1.328 . S
N233 C238 1.318 . S
C234 N233 1.328 . S
C234 C235 1.457 1_655 S
C234 H239 0.929 1_655 S
C235 C234 1.457 1_455 S
C235 C236 1.288 . S
C235 H248 0.931 . S
C236 C235 1.288 . S
C236 C237 1.371 1_455 S
C236 H249 0.934 . S
C237 C236 1.371 1_655 S
C237 C238 1.396 . S
C237 C244 1.403 . S
C238 C228 1.476 . S
C238 N233 1.318 . S
C238 C237 1.396 . S
H239 C234 0.929 1_455 S
O240 Mn216 2.385 . S
O240 C218 1.234 . S
O241 Mn216 2.209 . S
O241 Mn217 2.215 . S
O241 C218 1.283 . S
O242 Mn216 2.094 . S
O242 C220 1.240 . S
O243 Mn217 2.117 . S
O243 C220 1.264 . S
C244 C237 1.403 . S
C244 C245 1.399 . S
C244 H250 0.929 . S
C245 C225 1.449 . S
C245 C244 1.399 . S
C245 H251 0.930 . S
H246 C226 0.931 . S
H247 C227 0.930 . S
H248 C235 0.931 . S
H249 C236 0.934 . S
H250 C244 0.929 . S
H251 C245 0.930 . S
Mn252 O257 2.095 . S
Mn252 O267 2.162 . S
Mn252 O268 2.297 . S
Mn252 O276 2.385 1_554 S
Mn252 O277 2.209 1_554 S
Mn252 O278 2.094 . S
Mn253 O258 2.121 . S
Mn253 N260 2.257 . S
Mn253 N269 2.282 1_554 S
Mn253 O277 2.215 1_554 S
Mn253 O279 2.117 . S
C254 O276 1.234 . S
C254 O277 1.283 . S
C255 O267 1.281 . S
C255 O268 1.236 . S
C256 O278 1.240 . S
C256 O279 1.264 . S
O257 Mn252 2.095 . S
O257 C266 1.250 . S
O258 Mn253 2.121 . S
O258 C266 1.258 . S
C259 N260 1.326 . S
C259 C263 1.460 . S
C259 H265 0.929 . S
N260 Mn253 2.257 . S
N260 C259 1.326 . S
N260 C264 1.362 1_554 S
C261 C262 1.258 . S
C261 C264 1.431 . S
C261 C281 1.449 . S
C262 C261 1.258 . S
C262 C263 1.477 1_556 S
C262 H282 0.931 . S
C263 C259 1.460 . S
C263 C262 1.477 1_554 S
C263 H283 0.930 . S
C264 N260 1.362 1_556 S
C264 C261 1.431 . S
C264 C274 1.476 . S
H265 C259 0.929 . S
C266 O257 1.250 . S
C266 O258 1.258 . S
O267 Mn252 2.162 . S
O267 C255 1.281 . S
O268 Mn252 2.297 . S
O268 C255 1.236 . S
N269 Mn253 2.282 1_556 S
N269 C270 1.328 . S
N269 C274 1.318 . S
C270 N269 1.328 . S
C270 C271 1.457 1_565 S
C270 H275 0.929 1_565 S
C271 C270 1.457 1_545 S
C271 C272 1.298 . S
C271 H284 0.931 . S
C272 C271 1.298 . S
C272 C273 1.365 1_545 S
C272 H285 0.931 . S
C273 C272 1.365 1_565 S
C273 C274 1.396 . S
C273 C280 1.403 . S
C274 C264 1.476 . S
C274 N269 1.318 . S
C274 C273 1.396 . S
H275 C270 0.929 1_545 S
O276 Mn252 2.385 1_556 S
O276 C254 1.234 . S
O277 Mn252 2.209 1_556 S
O277 Mn253 2.215 1_556 S
O277 C254 1.283 . S
O278 Mn252 2.094 . S
O278 C256 1.240 . S
O279 Mn253 2.117 . S
O279 C256 1.264 . S
C280 C273 1.403 . S
C280 C281 1.399 . S
C280 H286 0.929 . S
C281 C261 1.449 . S
C281 C280 1.399 . S
C281 H287 0.930 . S
H282 C262 0.931 . S
H283 C263 0.930 . S
H284 C271 0.931 . S
H285 C272 0.931 . S
H286 C280 0.929 . S
H287 C281 0.930 . S
Mn288 O293 2.095 . S
Mn288 O303 2.162 . S
Mn288 O304 2.297 . S
Mn288 O312 2.385 1_554 S
Mn288 O313 2.209 . S
Mn288 O314 2.094 . S
Mn289 O294 2.121 . S
Mn289 N296 2.257 . S
Mn289 N305 2.282 . S
Mn289 O313 2.215 . S
Mn289 O315 2.117 . S
C290 O312 1.234 1_554 S
C290 O313 1.283 . S
C291 O303 1.281 . S
C291 O304 1.236 . S
C292 O314 1.240 . S
C292 O315 1.264 . S
O293 Mn288 2.095 . S
O293 C302 1.250 . S
O294 Mn289 2.121 . S
O294 C302 1.258 . S
C295 N296 1.326 . S
C295 C299 1.460 . S
C295 H301 0.929 . S
N296 Mn289 2.257 . S
N296 C295 1.326 . S
N296 C300 1.362 . S
C297 C298 1.258 . S
C297 C300 1.431 . S
C297 C317 1.449 1_554 S
C298 C297 1.258 . S
C298 C299 1.477 . S
C298 H318 0.931 . S
C299 C295 1.460 . S
C299 C298 1.477 . S
C299 H319 0.930 . S
C300 N296 1.362 . S
C300 C297 1.431 . S
C300 C310 1.476 . S
H301 C295 0.929 . S
C302 O293 1.250 . S
C302 O294 1.258 . S
O303 Mn288 2.162 . S
O303 C291 1.281 . S
O304 Mn288 2.297 . S
O304 C291 1.236 . S
N305 Mn289 2.282 . S
N305 C306 1.328 1_554 S
N305 C310 1.318 . S
C306 N305 1.328 1_556 S
C306 C307 1.457 . S
C306 H311 0.929 1_556 S
C307 C306 1.457 . S
C307 C308 1.291 . S
C307 H320 0.931 . S
C308 C307 1.291 . S
C308 C309 1.373 . S
C308 H321 0.929 . S
C309 C308 1.373 . S
C309 C310 1.396 1_556 S
C309 C316 1.403 . S
C310 C300 1.476 . S
C310 N305 1.318 . S
C310 C309 1.396 1_554 S
H311 C306 0.929 1_554 S
O312 Mn288 2.385 1_556 S
O312 C290 1.234 1_556 S
O313 Mn288 2.209 . S
O313 Mn289 2.215 . S
O313 C290 1.283 . S
O314 Mn288 2.094 . S
O314 C292 1.240 . S
O315 Mn289 2.117 . S
O315 C292 1.264 . S
C316 C309 1.403 . S
C316 C317 1.399 . S
C316 H322 0.929 . S
C317 C297 1.449 1_556 S
C317 C316 1.399 . S
C317 H323 0.930 . S
H318 C298 0.931 . S
H319 C299 0.930 . S
H320 C307 0.931 . S
H321 C308 0.929 . S
H322 C316 0.929 . S
H323 C317 0.930 . S
Mn324 O329 2.095 . S
Mn324 O339 2.162 . S
Mn324 O340 2.297 . S
Mn324 O348 2.385 . S
Mn324 O349 2.209 . S
Mn324 O350 2.094 . S
Mn325 O330 2.121 . S
Mn325 N332 2.257 . S
Mn325 N341 2.282 . S
Mn325 O349 2.215 . S
Mn325 O351 2.117 . S
C326 O348 1.234 . S
C326 O349 1.283 . S
C327 O339 1.281 . S
C327 O340 1.236 . S
C328 O350 1.240 . S
C328 O351 1.264 . S
O329 Mn324 2.095 . S
O329 C338 1.250 . S
O330 Mn325 2.121 . S
O330 C338 1.258 . S
C331 N332 1.326 . S
C331 C335 1.460 . S
C331 H337 0.929 . S
N332 Mn325 2.257 . S
N332 C331 1.326 . S
N332 C336 1.362 . S
C333 C334 1.258 . S
C333 C336 1.431 . S
C333 C353 1.449 . S
C334 C333 1.258 . S
C334 C335 1.477 . S
C334 H354 0.931 . S
C335 C331 1.460 . S
C335 C334 1.477 . S
C335 H355 0.930 . S
C336 N332 1.362 . S
C336 C333 1.431 . S
C336 C346 1.476 . S
H337 C331 0.929 . S
C338 O329 1.250 . S
C338 O330 1.258 . S
O339 Mn324 2.162 . S
O339 C327 1.281 . S
O340 Mn324 2.297 . S
O340 C327 1.236 . S
N341 Mn325 2.282 . S
N341 C342 1.328 . S
N341 C346 1.318 . S
C342 N341 1.328 . S
C342 C343 1.457 1_455 S
C342 H347 0.929 1_455 S
C343 C342 1.457 1_655 S
C343 C344 1.288 1_554 S
C343 H356 0.931 1_554 S
C344 C343 1.288 1_556 S
C344 C345 1.371 1_656 S
C344 H357 0.934 . S
C345 C344 1.371 1_454 S
C345 C346 1.396 . S
C345 C352 1.403 . S
C346 C336 1.476 . S
C346 N341 1.318 . S
C346 C345 1.396 . S
H347 C342 0.929 1_655 S
O348 Mn324 2.385 . S
O348 C326 1.234 . S
O349 Mn324 2.209 . S
O349 Mn325 2.215 . S
O349 C326 1.283 . S
O350 Mn324 2.094 . S
O350 C328 1.240 . S
O351 Mn325 2.117 . S
O351 C328 1.264 . S
C352 C345 1.403 . S
C352 C353 1.399 . S
C352 H358 0.929 1_554 S
C353 C333 1.449 . S
C353 C352 1.399 . S
C353 H359 0.930 . S
H354 C334 0.931 . S
H355 C335 0.930 . S
H356 C343 0.931 1_556 S
H357 C344 0.934 . S
H358 C352 0.929 1_556 S
H359 C353 0.930 . S
Mn360 O365 2.095 . S
Mn360 O375 2.162 . S
Mn360 O376 2.297 . S
Mn360 O384 2.385 . S
Mn360 O385 2.209 . S
Mn360 O386 2.094 . S
Mn361 O366 2.121 . S
Mn361 N368 2.257 . S
Mn361 N377 2.282 . S
Mn361 O385 2.215 . S
Mn361 O387 2.117 . S
C362 O384 1.234 . S
C362 O385 1.283 . S
C363 O375 1.281 . S
C363 O376 1.236 . S
C364 O386 1.240 . S
C364 O387 1.264 . S
O365 Mn360 2.095 . S
O365 C374 1.250 . S
O366 Mn361 2.121 . S
O366 C374 1.258 . S
C367 N368 1.326 . S
C367 C371 1.460 . S
C367 H373 0.929 . S
N368 Mn361 2.257 . S
N368 C367 1.326 . S
N368 C372 1.362 . S
C369 C370 1.258 . S
C369 C372 1.431 . S
C369 C389 1.449 . S
C370 C369 1.258 . S
C370 C371 1.477 . S
C370 H390 0.931 . S
C371 C367 1.460 . S
C371 C370 1.477 . S
C371 H391 0.930 . S
C372 N368 1.362 . S
C372 C369 1.431 . S
C372 C382 1.476 . S
H373 C367 0.929 . S
C374 O365 1.250 . S
C374 O366 1.258 . S
O375 Mn360 2.162 . S
O375 C363 1.281 . S
O376 Mn360 2.297 . S
O376 C363 1.236 . S
N377 Mn361 2.282 . S
N377 C378 1.328 . S
N377 C382 1.318 . S
C378 N377 1.328 . S
C378 C379 1.457 1_545 S
C378 H383 0.929 1_545 S
C379 C378 1.457 1_565 S
C379 C380 1.297 . S
C379 H392 0.931 . S
C380 C379 1.297 . S
C380 C381 1.365 1_565 S
C380 H393 0.931 . S
C381 C380 1.365 1_545 S
C381 C382 1.396 . S
C381 C388 1.403 . S
C382 C372 1.476 . S
C382 N377 1.318 . S
C382 C381 1.396 . S
H383 C378 0.929 1_565 S
O384 Mn360 2.385 . S
O384 C362 1.234 . S
O385 Mn360 2.209 . S
O385 Mn361 2.215 . S
O385 C362 1.283 . S
O386 Mn360 2.094 . S
O386 C364 1.240 . S
O387 Mn361 2.117 . S
O387 C364 1.264 . S
C388 C381 1.403 . S
C388 C389 1.399 . S
C388 H394 0.929 . S
C389 C369 1.449 . S
C389 C388 1.399 . S
C389 H395 0.930 . S
H390 C370 0.931 . S
H391 C371 0.930 . S
H392 C379 0.931 . S
H393 C380 0.931 . S
H394 C388 0.929 . S
H395 C389 0.930 . S
Mn396 O401 2.095 . S
Mn396 O411 2.162 . S
Mn396 O412 2.297 . S
Mn396 O420 2.385 . S
Mn396 O421 2.209 . S
Mn396 O422 2.094 . S
Mn397 O402 2.121 . S
Mn397 N404 2.257 . S
Mn397 N413 2.282 . S
Mn397 O421 2.215 . S
Mn397 O423 2.117 . S
C398 O420 1.234 . S
C398 O421 1.283 . S
C399 O411 1.281 . S
C399 O412 1.236 . S
C400 O422 1.240 . S
C400 O423 1.264 . S
O401 Mn396 2.095 . S
O401 C410 1.250 . S
O402 Mn397 2.121 . S
O402 C410 1.258 . S
C403 N404 1.326 . S
C403 C407 1.460 . S
C403 H409 0.929 . S
N404 Mn397 2.257 . S
N404 C403 1.326 . S
N404 C408 1.362 . S
C405 C406 1.258 . S
C405 C408 1.431 . S
C405 C425 1.449 . S
C406 C405 1.258 . S
C406 C407 1.477 . S
C406 H426 0.931 . S
C407 C403 1.460 . S
C407 C406 1.477 . S
C407 H427 0.930 . S
C408 N404 1.362 . S
C408 C405 1.431 . S
C408 C418 1.476 . S
H409 C403 0.929 . S
C410 O401 1.250 . S
C410 O402 1.258 . S
O411 Mn396 2.162 . S
O411 C399 1.281 . S
O412 Mn396 2.297 . S
O412 C399 1.236 . S
N413 Mn397 2.282 . S
N413 C414 1.328 . S
N413 C418 1.318 . S
C414 N413 1.328 . S
C414 C415 1.457 . S
C414 H419 0.929 . S
C415 C414 1.457 . S
C415 C416 1.291 . S
C415 H428 0.931 . S
C416 C415 1.291 . S
C416 C417 1.373 . S
C416 H429 0.929 . S
C417 C416 1.373 . S
C417 C418 1.396 . S
C417 C424 1.403 . S
C418 C408 1.476 . S
C418 N413 1.318 . S
C418 C417 1.396 . S
H419 C414 0.929 . S
O420 Mn396 2.385 . S
O420 C398 1.234 . S
O421 Mn396 2.209 . S
O421 Mn397 2.215 . S
O421 C398 1.283 . S
O422 Mn396 2.094 . S
O422 C400 1.240 . S
O423 Mn397 2.117 . S
O423 C400 1.264 . S
C424 C417 1.403 . S
C424 C425 1.399 . S
C424 H430 0.929 . S
C425 C405 1.449 . S
C425 C424 1.399 . S
C425 H431 0.930 . S
H426 C406 0.931 . S
H427 C407 0.930 . S
H428 C415 0.931 . S
H429 C416 0.929 . S
H430 C424 0.929 . S
H431 C425 0.930 . S
C2 C362 1.284 . S
C38 C398 1.283 . S
C218 C74 1.283 . S
C110 C254 1.284 . S
C290 C146 1.283 1_554 S
C326 C182 1.283 . S
C291 C3 1.523 . S
C39 C327 1.523 . S
C363 C75 1.523 . S
C111 C399 1.523 . S
C147 C219 1.523 . S
C183 C255 1.523 1_556 S
C374 C14 1.257 . S
C410 C50 1.257 1_556 S
C230 C86 1.257 . S
C122 C266 1.257 . S
C158 C302 1.257 . S
C338 C194 1.257 . S
C4 C256 1.307 1_545 S
C292 C40 1.307 . S
C328 C76 1.307 1_455 S
C112 C364 1.307 1_565 S
C148 C400 1.307 . S
C184 C220 1.307 1_455 S
