# Generated by pormake.
# Topology lcy-e, (6)-cn, num edge types: 1
# Building blocks:
#     Node 0, Type 0, BuildingBlock: INOVEN_clean_sbu_0, # of connection points: 6
#     Node 1, Type 0, BuildingBlock: INOVEN_clean_sbu_0, # of connection points: 6
#     Node 2, Type 0, BuildingBlock: INOVEN_clean_sbu_0, # of connection points: 6
#     Node 3, Type 0, BuildingBlock: INOVEN_clean_sbu_0, # of connection points: 6
#     Node 4, Type 0, BuildingBlock: INOVEN_clean_sbu_0, # of connection points: 6
#     Node 5, Type 0, BuildingBlock: INOVEN_clean_sbu_0, # of connection points: 6
#     Node 6, Type 0, BuildingBlock: INOVEN_clean_sbu_0, # of connection points: 6
#     Node 7, Type 0, BuildingBlock: INOVEN_clean_sbu_0, # of connection points: 6
#     Node 8, Type 0, BuildingBlock: INOVEN_clean_sbu_0, # of connection points: 6
#     Node 9, Type 0, BuildingBlock: INOVEN_clean_sbu_0, # of connection points: 6
#     Node 10, Type 0, BuildingBlock: INOVEN_clean_sbu_0, # of connection points: 6
#     Node 11, Type 0, BuildingBlock: INOVEN_clean_sbu_0, # of connection points: 6
#     Edge 12, Type (0, 0), BuildingBlock: AJUNOK_clean_linker_0, # of connection points: 2
#     Edge 13, Type (0, 0), BuildingBlock: AJUNOK_clean_linker_0, # of connection points: 2
#     Edge 14, Type (0, 0), BuildingBlock: AJUNOK_clean_linker_0, # of connection points: 2
#     Edge 15, Type (0, 0), BuildingBlock: AJUNOK_clean_linker_0, # of connection points: 2
#     Edge 16, Type (0, 0), BuildingBlock: AJUNOK_clean_linker_0, # of connection points: 2
#     Edge 17, Type (0, 0), BuildingBlock: AJUNOK_clean_linker_0, # of connection points: 2
#     Edge 18, Type (0, 0), BuildingBlock: AJUNOK_clean_linker_0, # of connection points: 2
#     Edge 19, Type (0, 0), BuildingBlock: AJUNOK_clean_linker_0, # of connection points: 2
#     Edge 20, Type (0, 0), BuildingBlock: AJUNOK_clean_linker_0, # of connection points: 2
#     Edge 21, Type (0, 0), BuildingBlock: AJUNOK_clean_linker_0, # of connection points: 2
#     Edge 22, Type (0, 0), BuildingBlock: AJUNOK_clean_linker_0, # of connection points: 2
#     Edge 23, Type (0, 0), BuildingBlock: AJUNOK_clean_linker_0, # of connection points: 2
#     Edge 24, Type (0, 0), BuildingBlock: AJUNOK_clean_linker_0, # of connection points: 2
#     Edge 25, Type (0, 0), BuildingBlock: AJUNOK_clean_linker_0, # of connection points: 2
#     Edge 26, Type (0, 0), BuildingBlock: AJUNOK_clean_linker_0, # of connection points: 2
#     Edge 27, Type (0, 0), BuildingBlock: AJUNOK_clean_linker_0, # of connection points: 2
#     Edge 28, Type (0, 0), BuildingBlock: AJUNOK_clean_linker_0, # of connection points: 2
#     Edge 29, Type (0, 0), BuildingBlock: AJUNOK_clean_linker_0, # of connection points: 2
#     Edge 30, Type (0, 0), BuildingBlock: AJUNOK_clean_linker_0, # of connection points: 2
#     Edge 31, Type (0, 0), BuildingBlock: AJUNOK_clean_linker_0, # of connection points: 2
#     Edge 32, Type (0, 0), BuildingBlock: AJUNOK_clean_linker_0, # of connection points: 2
#     Edge 33, Type (0, 0), BuildingBlock: AJUNOK_clean_linker_0, # of connection points: 2
#     Edge 34, Type (0, 0), BuildingBlock: AJUNOK_clean_linker_0, # of connection points: 2
#     Edge 35, Type (0, 0), BuildingBlock: AJUNOK_clean_linker_0, # of connection points: 2
#     Edge 36, Type (0, 0), BuildingBlock: AJUNOK_clean_linker_0, # of connection points: 2
#     Edge 37, Type (0, 0), BuildingBlock: AJUNOK_clean_linker_0, # of connection points: 2
#     Edge 38, Type (0, 0), BuildingBlock: AJUNOK_clean_linker_0, # of connection points: 2
#     Edge 39, Type (0, 0), BuildingBlock: AJUNOK_clean_linker_0, # of connection points: 2
#     Edge 40, Type (0, 0), BuildingBlock: AJUNOK_clean_linker_0, # of connection points: 2
#     Edge 41, Type (0, 0), BuildingBlock: AJUNOK_clean_linker_0, # of connection points: 2
#     Edge 42, Type (0, 0), BuildingBlock: AJUNOK_clean_linker_0, # of connection points: 2
#     Edge 43, Type (0, 0), BuildingBlock: AJUNOK_clean_linker_0, # of connection points: 2
#     Edge 44, Type (0, 0), BuildingBlock: AJUNOK_clean_linker_0, # of connection points: 2
#     Edge 45, Type (0, 0), BuildingBlock: AJUNOK_clean_linker_0, # of connection points: 2
#     Edge 46, Type (0, 0), BuildingBlock: AJUNOK_clean_linker_0, # of connection points: 2
#     Edge 47, Type (0, 0), BuildingBlock: AJUNOK_clean_linker_0, # of connection points: 2
# Relax obj value: 0.184
# Max RMSD: 0.316
# Mean RMSD: 0.300
data_MOF--net-lcy-e--node1-INOVEN_clean_sbu_0--edge1-AJUNOK_clean_linker_0
_symmetry_space_group_name_H-M    P1
_symmetry_Int_Tables_number       1
_symmetry_cell_setting            triclinic
loop_
_symmetry_equiv_pos_as_xyz
'x, y, z'
_cell_length_a     35.135297
_cell_length_b     33.753165
_cell_length_c     34.522812
_cell_angle_alpha  89.035825
_cell_angle_beta   90.774038
_cell_angle_gamma 87.545874
loop_
_atom_site_label
_atom_site_type_symbol
_atom_site_fract_x
_atom_site_fract_y
_atom_site_fract_z
_atom_type_partial_charge
Gd0 Gd 0.16151 0.23822 0.55489 0.0
Gd1 Gd 0.14629 0.297 0.48352 0.0
C2 C 0.09594 0.21878 0.49209 0.0
C3 C 0.15108 0.20211 0.62023 0.0
C4 C 0.14278 0.16155 0.63245 0.0
C5 C 0.12807 0.13494 0.60579 0.0
C6 C 0.14527 0.15085 0.67177 0.0
C7 C 0.11603 0.08839 0.65817 0.0
C8 C 0.13219 0.11443 0.68453 0.0
C9 C 0.11464 0.09865 0.61859 0.0
C10 C 0.21062 0.21763 0.4979 0.0
C11 C 0.20843 0.31893 0.54183 0.0
C12 C 0.13822 0.32563 0.4138 0.0
C13 C 0.15938 0.33839 0.37934 0.0
C14 C 0.15462 0.31821 0.34446 0.0
C15 C 0.18137 0.37221 0.37956 0.0
C16 C 0.19026 0.36745 0.30985 0.0
C17 C 0.19675 0.38653 0.3451 0.0
C18 C 0.17003 0.33247 0.3101 0.0
C19 C 0.11319 0.31783 0.55168 0.0
O20 O 0.11823 0.20472 0.52086 0.0
O21 O 0.09967 0.25435 0.47641 0.0
O22 O 0.18511 0.20817 0.60675 0.0
O23 O 0.12376 0.22031 0.59989 0.0
O24 O 0.20815 0.1987 0.53073 0.0
O25 O 0.18556 0.24578 0.4966 0.0
O26 O 0.20271 0.31488 0.50435 0.0
O27 O 0.19254 0.29502 0.56759 0.0
O28 O 0.13858 0.34785 0.44462 0.0
O29 O 0.1395 0.28758 0.42204 0.0
O30 O 0.12204 0.34368 0.52527 0.0
O31 O 0.11859 0.28371 0.53827 0.0
H32 H 0.12585 0.14278 0.57527 0.0
H33 H 0.15617 0.17118 0.69275 0.0
H34 H 0.13352 0.10716 0.71522 0.0
H35 H 0.10286 0.0788 0.59767 0.0
H36 H 0.13781 0.29205 0.34351 0.0
H37 H 0.18563 0.38838 0.40598 0.0
H38 H 0.21222 0.4136 0.34573 0.0
H39 H 0.16521 0.31675 0.2835 0.0
Gd40 Gd 0.99479 0.88407 0.75317 0.0
Gd41 Gd 0.05898 0.89587 0.80998 0.0
C42 C 0.05392 0.94946 0.73097 0.0
C43 C 0.93244 0.88136 0.71239 0.0
C44 C 0.9176 0.90057 0.67557 0.0
C45 C 0.91685 0.87906 0.64098 0.0
C46 C 0.90296 0.94009 0.67471 0.0
C47 C 0.88595 0.93553 0.60607 0.0
C48 C 0.88733 0.95726 0.64047 0.0
C49 C 0.90134 0.89634 0.60665 0.0
C50 C 0.06015 0.84242 0.7376 0.0
C51 C 1.00408 0.83315 0.83533 0.0
C52 C 0.12423 0.90247 0.84487 0.0
C53 C 0.15567 0.8803 0.86623 0.0
C54 C 0.15996 0.88522 0.90634 0.0
C55 C 0.18434 0.85849 0.84653 0.0
C56 C 0.22245 0.85083 0.90591 0.0
C57 C 0.21733 0.84374 0.86625 0.0
C58 C 0.19279 0.87046 0.92596 0.0
C59 C 0.99185 0.93792 0.82258 0.0
O60 O 1.01881 0.93812 0.72507 0.0
O61 O 0.0753 0.93413 0.75958 0.0
O62 O 0.96071 0.85507 0.70976 0.0
O63 O 0.93604 0.90408 0.74245 0.0
O64 O 0.0383 0.86038 0.71171 0.0
O65 O 0.04616 0.84677 0.77083 0.0
O66 O 0.04066 0.83883 0.83356 0.0
O67 O 0.97976 0.85098 0.80988 0.0
O68 O 0.09152 0.90818 0.86215 0.0
O69 O 0.12044 0.89628 0.80772 0.0
O70 O 1.01353 0.92222 0.84991 0.0
O71 O 1.00805 0.93237 0.79092 0.0
H72 H 0.92761 0.84852 0.64061 0.0
H73 H 0.90296 0.9577 0.70065 0.0
H74 H 0.87569 0.98748 0.64105 0.0
H75 H 0.90003 0.87848 0.58094 0.0
H76 H 0.13861 0.90197 0.92237 0.0
H77 H 0.18211 0.85422 0.81558 0.0
H78 H 0.23964 0.82859 0.85012 0.0
H79 H 0.19562 0.87568 0.95672 0.0
Gd80 Gd 0.40476 0.78411 0.05937 0.0
Gd81 Gd 0.41426 0.72716 0.9872 0.0
C82 C 0.47082 0.80128 0.99747 0.0
C83 C 0.41407 0.81523 0.12671 0.0
C84 C 0.42814 0.85291 0.14063 0.0
C85 C 0.42704 0.8611 0.1802 0.0
C86 C 0.44412 0.88011 0.11495 0.0
C87 C 0.45764 0.92357 0.16853 0.0
C88 C 0.45878 0.91521 0.1288 0.0
C89 C 0.44157 0.89616 0.19404 0.0
C90 C 0.35626 0.80914 1.00099 0.0
C91 C 0.3527 0.70694 0.04532 0.0
C92 C 0.41764 0.69895 0.91812 0.0
C93 C 0.39453 0.68092 0.88731 0.0
C94 C 0.39775 0.63981 0.88191 0.0
C95 C 0.37305 0.70461 0.86016 0.0
C96 C 0.3619 0.64679 0.82115 0.0
C97 C 0.35673 0.68762 0.82738 0.0
C98 C 0.38154 0.62297 0.84931 0.0
C99 C 0.44909 0.70403 0.05562 0.0
O100 O 0.45217 0.81426 0.02831 0.0
O101 O 0.46201 0.76866 0.97911 0.0
O102 O 0.38144 0.817 0.10788 0.0
O103 O 0.43956 0.79204 0.11038 0.0
O104 O 0.36028 0.82771 0.03328 0.0
O105 O 0.37958 0.77976 1.00141 0.0
O106 O 0.35736 0.71267 1.00794 0.0
O107 O 0.37093 0.72843 0.07134 0.0
O108 O 0.42595 0.67758 0.94945 0.0
O109 O 0.41088 0.73662 0.92515 0.0
O110 O 0.43401 0.67919 0.03198 0.0
O111 O 0.44572 0.73814 0.0407 0.0
H112 H 0.41513 0.84028 0.20044 0.0
H113 H 0.44528 0.87417 0.08424 0.0
H114 H 0.47043 0.93605 0.10842 0.0
H115 H 0.44046 0.90177 0.22482 0.0
H116 H 0.41428 0.62076 0.90199 0.0
H117 H 0.37023 0.73647 0.86328 0.0
H118 H 0.34197 0.70662 0.80595 0.0
H119 H 0.38577 0.59133 0.84521 0.0
Gd120 Gd 0.56465 0.13794 0.25875 0.0
Gd121 Gd 0.50175 0.12393 0.31433 0.0
C122 C 0.51108 0.06675 0.23982 0.0
C123 C 0.62597 0.14376 0.21868 0.0
C124 C 0.63881 0.12681 0.1812 0.0
C125 C 0.64374 0.15196 0.149 0.0
C126 C 0.64611 0.08573 0.17696 0.0
C127 C 0.66364 0.09561 0.1093 0.0
C128 C 0.65851 0.07037 0.14153 0.0
C129 C 0.65586 0.13659 0.11355 0.0
C130 C 0.49703 0.17545 0.23824 0.0
C131 C 0.55199 0.19093 0.3361 0.0
C132 C 0.43669 0.11437 0.34736 0.0
C133 C 0.40239 0.13489 0.36324 0.0
C134 C 0.36891 0.11389 0.36534 0.0
C135 C 0.40222 0.17394 0.37691 0.0
C136 C 0.33608 0.16915 0.39727 0.0
C137 C 0.36921 0.19099 0.39378 0.0
C138 C 0.33623 0.13072 0.38216 0.0
C139 C 0.57148 0.08858 0.3338 0.0
O140 O 0.54452 0.08159 0.23297 0.0
O141 O 0.48907 0.08087 0.26742 0.0
O142 O 0.59779 0.17038 0.21697 0.0
O143 O 0.62327 0.11907 0.24803 0.0
O144 O 0.51981 0.15734 0.21448 0.0
O145 O 0.51104 0.17263 0.27208 0.0
O146 O 0.51586 0.18429 0.3307 0.0
O147 O 0.57798 0.17369 0.31341 0.0
O148 O 0.46895 0.11578 0.36662 0.0
O149 O 0.44088 0.1164 0.30982 0.0
O150 O 0.54805 0.10405 0.35867 0.0
O151 O 0.55563 0.09064 0.30093 0.0
H152 H 0.63832 0.18367 0.15127 0.0
H153 H 0.64264 0.06534 0.2011 0.0
H154 H 0.66507 0.03883 0.13978 0.0
H155 H 0.65932 0.15695 0.08939 0.0
H156 H 0.36828 0.08388 0.35475 0.0
H157 H 0.42772 0.19079 0.37536 0.0
H158 H 0.37011 0.22046 0.4056 0.0
H159 H 0.31123 0.11316 0.3844 0.0
Gd160 Gd 0.64383 0.24636 0.56408 0.0
Gd161 Gd 0.6634 0.31026 0.50562 0.0
C162 C 0.70838 0.31017 0.58479 0.0
C163 C 0.64901 0.18606 0.61167 0.0
C164 C 0.66832 0.17433 0.6491 0.0
C165 C 0.6527 0.18565 0.68478 0.0
C166 C 0.7012 0.14895 0.64949 0.0
C167 C 0.70067 0.14419 0.72009 0.0
C168 C 0.71722 0.13414 0.68452 0.0
C169 C 0.66868 0.17077 0.71978 0.0
C170 C 0.59621 0.31034 0.56631 0.0
C171 C 0.597 0.2546 0.48417 0.0
C172 C 0.66532 0.36867 0.45553 0.0
C173 C 0.64363 0.40522 0.44185 0.0
C174 C 0.61342 0.4034 0.41482 0.0
C175 C 0.65572 0.4427 0.45267 0.0
C176 C 0.60927 0.47563 0.40841 0.0
C177 C 0.63873 0.47744 0.43622 0.0
C178 C 0.59644 0.43818 0.39834 0.0
C179 C 0.70195 0.23813 0.50017 0.0
O180 O 0.69574 0.27426 0.5911 0.0
O181 O 0.69537 0.33259 0.55573 0.0
O182 O 0.62114 0.21312 0.61228 0.0
O183 O 0.6707 0.18966 0.58137 0.0
O184 O 0.58648 0.27419 0.5728 0.0
O185 O 0.63195 0.31184 0.56164 0.0
O186 O 0.60589 0.29212 0.48532 0.0
O187 O 0.61152 0.22854 0.51023 0.0
O188 O 0.65134 0.33441 0.44785 0.0
O189 O 0.68149 0.36907 0.48979 0.0
O190 O 0.71774 0.27145 0.49285 0.0
O191 O 0.66806 0.24561 0.50723 0.0
H192 H 0.62735 0.20501 0.68572 0.0
H193 H 0.71378 0.13931 0.62257 0.0
H194 H 0.74129 0.11305 0.6836 0.0
H195 H 0.65519 0.179 0.74668 0.0
H196 H 0.60369 0.37509 0.40533 0.0
H197 H 0.6792 0.4452 0.47302 0.0
H198 H 0.64927 0.50579 0.4446 0.0
H199 H 0.57443 0.43563 0.37637 0.0
Gd200 Gd 1.00149 0.39707 0.73607 0.0
Gd201 Gd 0.0645 0.37256 0.78854 0.0
C202 C 0.99034 0.31845 0.78632 0.0
C203 C 0.95282 0.41505 0.68088 0.0
C204 C 0.91269 0.40629 0.67437 0.0
C205 C 0.89543 0.41574 0.63846 0.0
C206 C 0.89346 0.38315 0.70141 0.0
C207 C 0.8411 0.37674 0.65543 0.0
C208 C 0.85789 0.36847 0.69201 0.0
C209 C 0.85987 0.40125 0.62911 0.0
C210 C 0.99189 0.42421 0.80939 0.0
C211 C 0.07745 0.44795 0.74361 0.0
C212 C 0.10758 0.35516 0.84813 0.0
C213 C 0.12313 0.37676 0.88091 0.0
C214 C 0.1305 0.35638 0.91601 0.0
C215 C 0.12989 0.41744 0.87803 0.0
C216 C 0.15316 0.41649 0.94477 0.0
C217 C 0.14495 0.43717 0.90976 0.0
C218 C 0.14535 0.37604 0.94766 0.0
C219 C 0.07682 0.35097 0.71374 0.0
O220 O 0.97746 0.33957 0.75613 0.0
O221 O 1.02207 0.32726 0.80427 0.0
O222 O 0.96065 0.43952 0.70858 0.0
O223 O 0.97566 0.38362 0.68123 0.0
O224 O 0.96551 0.40887 0.78861 0.0
O225 O 1.02242 0.4233 0.7906 0.0
O226 O 0.07669 0.43572 0.77974 0.0
O227 O 0.05264 0.43363 0.71862 0.0
O228 O 0.12096 0.36335 0.81385 0.0
O229 O 0.07067 0.35171 0.848 0.0
O230 O 0.10348 0.35932 0.73808 0.0
O231 O 0.04555 0.34943 0.73134 0.0
H232 H 0.91016 0.43295 0.61702 0.0
H233 H 0.90661 0.37521 0.72918 0.0
H234 H 0.84384 0.35016 0.71304 0.0
H235 H 0.84772 0.40791 0.60061 0.0
H236 H 0.12499 0.32513 0.91887 0.0
H237 H 0.12397 0.43378 0.85119 0.0
H238 H 0.15119 0.4682 0.90657 0.0
H239 H 0.15115 0.35946 0.97439 0.0
Gd240 Gd 0.90144 0.7878 0.05874 0.0
Gd241 Gd 0.8854 0.72171 0.99722 0.0
C242 C 0.8302 0.72844 0.06922 0.0
C243 C 0.8915 0.85282 0.09599 0.0
C244 C 0.87836 0.86395 0.13515 0.0
C245 C 0.89745 0.84984 0.16904 0.0
C246 C 0.84535 0.88858 0.13865 0.0
C247 C 0.85163 0.88634 0.209 0.0
C248 C 0.83203 0.89951 0.17514 0.0
C249 C 0.88424 0.861 0.20558 0.0
C250 C 0.93926 0.71953 0.08219 0.0
C251 C 0.95662 0.77358 0.98518 0.0
C252 C 0.88666 0.66217 0.9506 0.0
C253 C 0.91051 0.62835 0.93571 0.0
C254 C 0.91598 0.59279 0.95743 0.0
C255 C 0.92379 0.62948 0.89748 0.0
C256 C 0.94493 0.55975 0.90216 0.0
C257 C 0.94115 0.59571 0.88104 0.0
C258 C 0.93291 0.55888 0.94081 0.0
C259 C 0.85122 0.79618 0.9862 0.0
O260 O 0.84541 0.76255 0.07787 0.0
O261 O 0.84418 0.7052 0.04216 0.0
O262 O 0.9251 0.83438 0.093 0.0
O263 O 0.86535 0.83858 0.07327 0.0
O264 O 0.93902 0.75252 0.10098 0.0
O265 O 0.91796 0.72433 0.05236 0.0
O266 O 0.9459 0.73666 0.98694 0.0
O267 O 0.9414 0.80063 1.00888 0.0
O268 O 0.89413 0.69832 0.93941 0.0
O269 O 0.87573 0.66005 0.98668 0.0
O270 O 0.83531 0.76404 0.9753 0.0
O271 O 0.88357 0.78637 0.99871 0.0
H272 H 0.92267 0.83037 0.16739 0.0
H273 H 0.82994 0.89967 0.11302 0.0
H274 H 0.807 0.91927 0.17685 0.0
H275 H 0.89968 0.85004 0.23122 0.0
H276 H 0.90593 0.59061 0.98688 0.0
H277 H 0.91938 0.65608 0.87972 0.0
H278 H 0.94997 0.59719 0.85112 0.0
H279 H 0.93582 0.53168 0.95788 0.0
Gd280 Gd 0.54218 0.64263 0.23874 0.0
Gd281 Gd 0.4838 0.66341 0.29705 0.0
C282 C 0.55691 0.71894 0.28889 0.0
C283 C 0.58484 0.62825 0.17966 0.0
C284 C 0.62105 0.64435 0.1662 0.0
C285 C 0.65131 0.61826 0.15622 0.0
C286 C 0.62609 0.68547 0.16373 0.0
C287 C 0.69067 0.67398 0.14009 0.0
C288 C 0.66039 0.70012 0.1505 0.0
C289 C 0.68574 0.63286 0.14346 0.0
C290 C 0.55764 0.61022 0.31028 0.0
C291 C 0.46552 0.59226 0.24868 0.0
C292 C 0.44631 0.67628 0.35978 0.0
C293 C 0.43066 0.65231 0.39157 0.0
C294 C 0.39247 0.65877 0.40178 0.0
C295 C 0.45357 0.62425 0.41294 0.0
C296 C 0.40065 0.61112 0.45539 0.0
C297 C 0.43867 0.60382 0.44457 0.0
C298 C 0.3776 0.63839 0.4333 0.0
C299 C 0.46854 0.69274 0.22389 0.0
O300 O 0.56589 0.70071 0.25651 0.0
O301 O 0.52855 0.70721 0.31033 0.0
O302 O 0.58682 0.60668 0.21146 0.0
O303 O 0.55471 0.65232 0.17814 0.0
O304 O 0.58244 0.6265 0.28833 0.0
O305 O 0.52546 0.61252 0.29352 0.0
O306 O 0.46773 0.60241 0.28505 0.0
O307 O 0.48968 0.60705 0.22344 0.0
O308 O 0.42972 0.67424 0.32573 0.0
O309 O 0.48346 0.67692 0.35793 0.0
O310 O 0.44276 0.68027 0.2471 0.0
O311 O 0.5 0.69164 0.24175 0.0
H312 H 0.64829 0.58648 0.15822 0.0
H313 H 0.60344 0.70637 0.17171 0.0
H314 H 0.66278 0.73189 0.14755 0.0
H315 H 0.70854 0.61186 0.13604 0.0
H316 H 0.37426 0.68018 0.38577 0.0
H317 H 0.48321 0.61868 0.40582 0.0
H318 H 0.45725 0.5834 0.46131 0.0
H319 H 0.3481 0.6444 0.4408 0.0
Gd320 Gd 0.24149 0.53708 0.15027 0.0
Gd321 Gd 0.30516 0.47644 0.1294 0.0
C322 C 0.23119 0.48232 0.07719 0.0
C323 C 0.19362 0.59662 0.15786 0.0
C324 C 0.15331 0.60584 0.14505 0.0
C325 C 0.12231 0.59539 0.16791 0.0
C326 C 0.14555 0.62624 0.10967 0.0
C327 C 0.07706 0.62664 0.12086 0.0
C328 C 0.10804 0.63641 0.09773 0.0
C329 C 0.08471 0.6057 0.15598 0.0
C330 C 0.23062 0.4617 0.17621 0.0
C331 C 0.32113 0.5289 0.20112 0.0
C332 C 0.35337 0.41668 0.12321 0.0
C333 C 0.36995 0.38153 0.1449 0.0
C334 C 0.39449 0.38482 0.17714 0.0
C335 C 0.36256 0.34354 0.13139 0.0
C336 C 0.40489 0.31273 0.18073 0.0
C337 C 0.37972 0.30963 0.14906 0.0
C338 C 0.41177 0.35071 0.19489 0.0
C339 C 0.30596 0.54975 0.09286 0.0
O340 O 0.22576 0.5189 0.08956 0.0
O341 O 0.25555 0.45739 0.09497 0.0
O342 O 0.20022 0.5698 0.18552 0.0
O343 O 0.21866 0.59418 0.1301 0.0
O344 O 0.20403 0.48596 0.16249 0.0
O345 O 0.26176 0.47879 0.17557 0.0
O346 O 0.3256 0.49273 0.18792 0.0
O347 O 0.2915 0.55263 0.18998 0.0
O348 O 0.36356 0.4522 0.13283 0.0
O349 O 0.31723 0.41558 0.11373 0.0
O350 O 0.31758 0.51704 0.07668 0.0
O351 O 0.29776 0.54124 0.1267 0.0
H352 H 0.12705 0.57979 0.19533 0.0
H353 H 0.16858 0.63519 0.09138 0.0
H354 H 0.10347 0.6535 0.07113 0.0
H355 H 0.06156 0.59789 0.17464 0.0
H356 H 0.40097 0.41366 0.18814 0.0
H357 H 0.34396 0.34006 0.10649 0.0
H358 H 0.37372 0.28087 0.13754 0.0
H359 H 0.43155 0.35417 0.2188 0.0
Gd360 Gd 0.75333 0.97341 0.89774 0.0
Gd361 Gd 0.81294 0.03842 0.91634 0.0
C362 C 0.73608 0.03546 0.96827 0.0
C363 C 0.7126 0.91129 0.89651 0.0
C364 C 0.68247 0.89472 0.92051 0.0
C365 C 0.65679 0.9199 0.94042 0.0
C366 C 0.67596 0.85412 0.91923 0.0
C367 C 0.6158 0.86495 0.95269 0.0
C368 C 0.64297 0.83931 0.93531 0.0
C369 C 0.62378 0.90511 0.95649 0.0
C370 C 0.74268 0.03625 0.84712 0.0
C371 C 0.83309 0.97927 0.8514 0.0
C372 C 0.84882 0.10335 0.92419 0.0
C373 C 0.8679 0.13342 0.90084 0.0
C374 C 0.87617 0.16945 0.91794 0.0
C375 C 0.87804 0.12695 0.86214 0.0
C376 C 0.90524 0.19224 0.85836 0.0
C377 C 0.89644 0.15627 0.84095 0.0
C378 C 0.89477 0.19847 0.89702 0.0
C379 C 0.82439 0.96568 0.9519 0.0
O380 O 0.72494 1.00391 0.94913 0.0
O381 O 0.76794 0.05317 0.95995 0.0
O382 O 0.70302 0.94477 0.87878 0.0
O383 O 0.74747 0.91032 0.91044 0.0
O384 O 0.7225 1.00523 0.84748 0.0
O385 O 0.76733 0.03205 0.87387 0.0
O386 O 0.83053 1.0175 0.85837 0.0
O387 O 0.80866 0.95463 0.8671 0.0
O388 O 0.86556 0.06795 0.92696 0.0
O389 O 0.81176 0.10248 0.92004 0.0
O390 O 0.85169 0.98811 0.94121 0.0
O391 O 0.79304 0.98423 0.94542 0.0
H392 H 0.66113 0.95141 0.94157 0.0
H393 H 0.69542 0.83418 0.90413 0.0
H394 H 0.6379 0.80802 0.93274 0.0
H395 H 0.60342 0.9255 0.9698 0.0
H396 H 0.8685 0.17504 0.94771 0.0
H397 H 0.87209 0.09917 0.84852 0.0
H398 H 0.90462 0.15046 0.81138 0.0
H399 H 0.90109 0.22591 0.91113 0.0
Gd400 Gd 0.73999 0.99351 0.41469 0.0
Gd401 Gd 0.80474 0.04385 0.39721 0.0
C402 C 0.79968 0.96552 0.34783 0.0
C403 C 0.68107 0.95027 0.41224 0.0
C404 C 0.66472 0.92116 0.38584 0.0
C405 C 0.68775 0.89144 0.36851 0.0
C406 C 0.62514 0.92105 0.38037 0.0
C407 C 0.6314 0.85954 0.34436 0.0
C408 C 0.60864 0.89062 0.35983 0.0
C409 C 0.67123 0.86084 0.34809 0.0
C410 C 0.79268 0.99001 0.47245 0.0
C411 C 0.74986 0.07749 0.45708 0.0
C412 C 0.87085 0.07399 0.38804 0.0
C413 C 0.90096 0.09432 0.40967 0.0
C414 C 0.89954 0.13581 0.413 0.0
C415 C 0.93343 0.07255 0.42392 0.0
C416 C 0.96349 0.13345 0.44149 0.0
C417 C 0.96426 0.09191 0.43988 0.0
C418 C 0.93042 0.15513 0.42887 0.0
C419 C 0.7367 0.06449 0.35974 0.0
O420 O 0.77109 0.95539 0.37004 0.0
O421 O 0.81517 1.00005 0.35095 0.0
O422 O 0.71315 0.93923 0.42977 0.0
O423 O 0.67987 0.98752 0.40072 0.0
O424 O 0.75618 0.99094 0.47735 0.0
O425 O 0.80026 0.99059 0.43649 0.0
O426 O 0.78628 0.06951 0.45246 0.0
O427 O 0.72442 0.0544 0.44071 0.0
O428 O 0.8386 0.09357 0.38044 0.0
O429 O 0.86624 0.03674 0.39691 0.0
O430 O 0.75922 0.08991 0.37459 0.0
O431 O 0.75206 0.03055 0.36485 0.0
H432 H 0.71844 0.89091 0.37205 0.0
H433 H 0.60683 0.94375 0.39322 0.0
H434 H 0.57788 0.89067 0.35712 0.0
H435 H 0.68957 0.83717 0.33701 0.0
H436 H 0.87507 0.15354 0.40231 0.0
H437 H 0.9356 0.04057 0.42155 0.0
H438 H 0.9894 0.0745 0.44935 0.0
H439 H 0.92884 0.18719 0.43037 0.0
Gd440 Gd 0.30816 0.47997 0.65788 0.0
Gd441 Gd 0.24766 0.54703 0.63225 0.0
C442 C 0.3262 0.54417 0.58946 0.0
C443 C 0.35079 0.41629 0.65607 0.0
C444 C 0.39177 0.40954 0.64901 0.0
C445 C 0.41074 0.37434 0.66191 0.0
C446 C 0.41159 0.4371 0.62689 0.0
C447 C 0.46792 0.39286 0.62803 0.0
C448 C 0.44922 0.42864 0.61613 0.0
C449 C 0.4486 0.36611 0.65161 0.0
C450 C 0.32492 0.54722 0.69483 0.0
C451 C 0.22952 0.49396 0.70419 0.0
C452 C 0.19858 0.60612 0.62669 0.0
C453 C 0.1852 0.64046 0.64984 0.0
C454 C 0.15751 0.63658 0.67856 0.0
C455 C 0.19829 0.67834 0.64122 0.0
C456 C 0.15454 0.70809 0.68752 0.0
C457 C 0.18321 0.71172 0.65991 0.0
C458 C 0.14234 0.6701 0.69723 0.0
C459 C 0.24587 0.47523 0.59606 0.0
O460 O 0.33175 0.5073 0.60286 0.0
O461 O 0.2985 0.56779 0.60211 0.0
O462 O 0.34138 0.43336 0.68873 0.0
O463 O 0.33103 0.43039 0.62599 0.0
O464 O 0.34412 0.51379 0.69883 0.0
O465 O 0.29778 0.54327 0.67108 0.0
O466 O 0.23138 0.53122 0.69284 0.0
O467 O 0.2549 0.46671 0.69202 0.0
O468 O 0.18968 0.57058 0.6384 0.0
O469 O 0.23323 0.60716 0.61332 0.0
O470 O 0.23657 0.50873 0.57866 0.0
O471 O 0.25236 0.48223 0.63067 0.0
H472 H 0.39591 0.3527 0.67887 0.0
H473 H 0.39758 0.46463 0.61683 0.0
H474 H 0.46345 0.4496 0.59782 0.0
H475 H 0.46222 0.33797 0.66058 0.0
H476 H 0.14661 0.60788 0.68576 0.0
H477 H 0.21944 0.6824 0.61912 0.0
H478 H 0.19317 0.74063 0.65189 0.0
H479 H 0.11974 0.66646 0.71786 0.0
C480 C 0.22249 0.39039 0.52945 0.0
C481 C 0.22416 0.35687 0.55469 0.0
C482 C 0.23059 0.42841 0.54256 0.0
C483 C 0.24117 0.4344 0.58129 0.0
H484 H 0.21301 0.38776 0.49966 0.0
H485 H 0.22748 0.45338 0.52248 0.0
S486 S 0.25358 0.35581 0.65809 0.0
N487 N 0.23961 0.33194 0.61948 0.0
N488 N 0.25575 0.40258 0.64403 0.0
C489 C 0.24498 0.40069 0.60623 0.0
C490 C 0.23621 0.36219 0.59299 0.0
C491 C 0.88829 0.92997 0.8528 0.0
C492 C 0.87024 0.96415 0.836 0.0
C493 C 0.92756 0.92175 0.84845 0.0
C494 C 0.95014 0.94653 0.82598 0.0
H495 H 0.87251 0.91062 0.87134 0.0
H496 H 0.94014 0.89581 0.86293 0.0
S497 S 0.9154 0.03577 0.76999 0.0
N498 N 0.87726 0.02073 0.7925 0.0
N499 N 0.95049 1.00378 0.78258 0.0
C500 C 0.9318 0.97878 0.80617 0.0
C501 C 0.89203 0.98789 0.81152 0.0
C502 C 0.3341 0.63768 0.03045 0.0
C503 C 0.33561 0.66901 0.05715 0.0
C504 C 0.3239 0.59942 0.04185 0.0
C505 C 0.31412 0.59098 0.08024 0.0
H506 H 0.34248 0.64211 1.00066 0.0
H507 H 0.32434 0.57617 1.02058 0.0
S508 S 0.31102 0.663 0.16093 0.0
N509 N 0.32499 0.6891 0.1233 0.0
N510 N 0.30467 0.61806 0.14465 0.0
C511 C 0.31391 0.6225 0.10683 0.0
C512 C 0.32493 0.66122 0.09533 0.0
C513 C 0.63375 0.10661 0.3652 0.0
C514 C 0.61352 0.08202 0.3403 0.0
C515 C 0.67372 0.102 0.3701 0.0
C516 C 0.69497 0.07174 0.35135 0.0
H517 H 0.61868 0.13007 0.38055 0.0
H518 H 0.68794 0.12169 0.38946 0.0
S519 S 0.65561 0.99909 0.28365 0.0
N520 N 0.61804 0.02682 0.29625 0.0
N521 N 0.69238 1.01674 0.30705 0.0
C522 C 0.67496 0.04685 0.32665 0.0
C523 C 0.63453 0.05231 0.32076 0.0
C524 C 0.68898 0.1682 0.48395 0.0
C525 C 0.71588 0.1973 0.49096 0.0
C526 C 0.7001 0.12916 0.47482 0.0
C527 C 0.73869 0.11724 0.47257 0.0
H528 H 0.65878 0.17569 0.48455 0.0
H529 H 0.67817 0.10851 0.46846 0.0
S530 S 0.82065 0.1815 0.49119 0.0
N531 N 0.78267 0.21125 0.4968 0.0
N532 N 0.80432 0.13785 0.48031 0.0
C533 C 0.76607 0.14585 0.48088 0.0
C534 C 0.75451 0.18585 0.48975 0.0
C535 C 0.13658 0.48441 0.75804 0.0
C536 C 0.11347 0.46532 0.73085 0.0
C537 C 0.17452 0.49309 0.74987 0.0
C538 C 0.19113 0.48158 0.71486 0.0
H539 H 0.12551 0.49189 0.78626 0.0
H540 H 0.19108 0.50831 0.77124 0.0
S541 S 0.1425 0.4343 0.63261 0.0
N542 N 0.10967 0.43853 0.66616 0.0
N543 N 0.18087 0.45311 0.65168 0.0
C544 C 0.1681 0.46367 0.68712 0.0
C545 C 0.1293 0.45602 0.69486 0.0
C546 C 0.86408 0.90223 0.95246 0.0
C547 C 0.82945 0.92228 0.96119 0.0
C548 C 0.86962 0.86121 0.9589 0.0
C549 C 0.84096 0.8381 0.97466 0.0
H550 H 0.88728 0.91834 0.94039 0.0
H551 H 0.89698 0.84746 0.95181 0.0
S552 S 0.74678 0.87668 1.0077 0.0
N553 N 0.76715 0.91631 0.99017 0.0
N554 N 0.77755 0.8389 1.00164 0.0
C555 C 0.8064 0.85769 0.98439 0.0
C556 C 0.80077 0.89982 0.97806 0.0
C557 C 0.40227 0.56395 0.26373 0.0
C558 C 0.43027 0.57283 0.23604 0.0
C559 C 0.36625 0.55102 0.25265 0.0
C560 C 0.35688 0.54661 0.2135 0.0
H561 H 0.40785 0.56762 0.29436 0.0
H562 H 0.34585 0.54415 0.27476 0.0
S563 S 0.41972 0.56322 0.12964 0.0
N564 N 0.44585 0.57444 0.16767 0.0
N565 N 0.3786 0.54987 0.14706 0.0
C566 C 0.38467 0.55438 0.18565 0.0
C567 C 0.42124 0.5675 0.19682 0.0
C568 C 0.59398 0.23254 0.37692 0.0
C569 C 0.56262 0.20846 0.37359 0.0
C570 C 0.60394 0.24847 0.41283 0.0
C571 C 0.58351 0.23997 0.4467 0.0
H572 H 0.61072 0.23924 0.35171 0.0
H573 H 0.62854 0.26666 0.41432 0.0
S574 S 0.50076 0.17656 0.45416 0.0
N575 N 0.51173 0.17611 0.40782 0.0
N576 N 0.53182 0.20499 0.47508 0.0
C577 C 0.55276 0.21537 0.44399 0.0
C578 C 0.54194 0.19994 0.40745 0.0
C579 C 0.12197 0.30626 0.62384 0.0
C580 C 0.10328 0.32679 0.59268 0.0
C581 C 0.11253 0.31366 0.66263 0.0
C582 C 0.08376 0.34188 0.67211 0.0
H583 H 0.14509 0.28523 0.61857 0.0
H584 H 0.12818 0.29733 0.68544 0.0
S585 S 0.03106 0.40905 0.60165 0.0
N586 N 0.05759 0.37968 0.57421 0.0
N587 N 0.04054 0.39445 0.64678 0.0
C588 C 0.06598 0.36387 0.64127 0.0
C589 C 0.07573 0.35632 0.60173 0.0
C590 C 0.98682 0.84211 0.9042 0.0
C591 C 0.99098 0.81671 0.87248 0.0
C592 C 0.97812 0.82771 0.94118 0.0
C593 C 0.97429 0.78698 0.9484 0.0
H594 H 0.99066 0.87353 0.90068 0.0
H595 H 0.97349 0.84892 0.96403 0.0
S596 S 0.99146 0.70717 0.87661 0.0
N597 N 0.99652 0.74868 0.85156 0.0
N598 N 0.98113 0.7207 0.92114 0.0
C599 C 0.98155 0.76083 0.91739 0.0
C600 C 0.98978 0.77586 0.8795 0.0
C601 C 0.43581 0.67442 0.16158 0.0
C602 C 0.46438 0.69504 0.18083 0.0
C603 C 0.43246 0.67505 0.12078 0.0
C604 C 0.45688 0.69726 0.09778 0.0
H605 H 0.41596 0.65749 0.17812 0.0
H606 H 0.40973 0.65931 0.10731 0.0
S607 S 0.53626 0.75636 0.13366 0.0
N608 N 0.51782 0.7377 0.17341 0.0
N609 N 0.511 0.73959 0.09721 0.0
C610 C 0.48582 0.71745 0.11665 0.0
C611 C 0.48957 0.71637 0.15801 0.0
C612 C 0.23903 0.39931 0.26845 0.0
C613 C 0.20189 0.386 0.27271 0.0
C614 C 0.24907 0.42134 0.23557 0.0
C615 C 0.22214 0.43138 0.20603 0.0
H616 H 0.26016 0.3936 0.29123 0.0
H617 H 0.27756 0.43232 0.23434 0.0
S618 S 0.12194 0.40118 0.20188 0.0
N619 N 0.13877 0.38246 0.24348 0.0
N620 N 0.15769 0.42372 0.18177 0.0
C621 C 0.18555 0.41644 0.20898 0.0
C622 C 0.17539 0.39384 0.24231 0.0
C623 C 0.82796 0.96925 0.57541 0.0
C624 C 0.86489 0.95234 0.57111 0.0
C625 C 0.80583 0.98247 0.54328 0.0
C626 C 0.81953 0.97963 0.50521 0.0
H627 H 0.81542 0.97111 0.60386 0.0
H628 H 0.77721 0.99428 0.54842 0.0
S629 S 0.9159 0.94155 0.47808 0.0
N630 N 0.91539 0.93613 0.52576 0.0
N631 N 0.87362 0.96121 0.46524 0.0
C632 C 0.85703 0.96441 0.5004 0.0
C633 C 0.87964 0.95057 0.53332 0.0
C634 C 0.37092 0.58452 0.73201 0.0
C635 C 0.33307 0.58138 0.7192 0.0
C636 C 0.37992 0.60785 0.76353 0.0
C637 C 0.3514 0.62896 0.7837 0.0
H638 H 0.39368 0.56681 0.71903 0.0
H639 H 0.40933 0.6078 0.77343 0.0
S640 S 0.24837 0.63541 0.75827 0.0
N641 N 0.2672 0.60488 0.72608 0.0
N642 N 0.28414 0.64903 0.78597 0.0
C643 C 0.31373 0.62896 0.76922 0.0
C644 C 0.30453 0.60506 0.73672 0.0
C645 C 0.70867 0.10028 0.05375 0.0
C646 C 0.67962 0.08001 0.07219 0.0
C647 C 0.72559 0.08607 1.01988 0.0
C648 C 0.71453 0.05067 1.00256 0.0
H649 H 0.71923 0.12705 0.0661 0.0
H650 H 0.74813 0.10299 1.00759 0.0
S651 S 0.63804 0.9872 0.03803 0.0
N652 N 0.63895 0.02354 0.06944 0.0
N653 N 0.67139 0.99628 1.00621 0.0
C654 C 0.6849 0.03038 1.02022 0.0
C655 C 0.66745 0.04505 0.05488 0.0
C656 C 0.68533 0.10413 0.77884 0.0
C657 C 0.71297 0.12255 0.75659 0.0
C658 C 0.69567 0.07847 0.80984 0.0
C659 C 0.73405 0.07046 0.82049 0.0
H660 H 0.65542 0.1077 0.77091 0.0
H661 H 0.67329 0.06338 0.82463 0.0
S662 S 0.81748 0.11436 0.77451 0.0
N663 N 0.78055 0.13344 0.74935 0.0
N664 N 0.79985 0.0853 0.80823 0.0
C665 C 0.76203 0.09051 0.80024 0.0
C666 C 0.75151 0.11641 0.76806 0.0
C667 C 0.22357 0.43198 0.02624 0.0
C668 C 0.21079 0.46806 0.04255 0.0
C669 C 0.20496 0.41619 0.99447 0.0
C670 C 0.17263 0.43562 0.97748 0.0
H671 H 0.24831 0.41547 0.03804 0.0
H672 H 0.21609 0.38837 0.98307 0.0
S673 S 0.12729 0.53095 1.0086 0.0
N674 N 0.16377 0.52315 0.03888 0.0
N675 N 0.12844 0.49302 0.97892 0.0
C676 C 0.15968 0.47205 0.99287 0.0
C677 C 0.17879 0.48833 0.02547 0.0
C678 C 0.78874 0.91864 0.29323 0.0
C679 C 0.81395 0.93951 0.31649 0.0
C680 C 0.80128 0.9003 0.25903 0.0
C681 C 0.83955 0.90161 0.24738 0.0
H682 H 0.7588 0.91829 0.30033 0.0
H683 H 0.78072 0.8858 0.24108 0.0
S684 S 0.91729 0.94991 0.29996 0.0
N685 N 0.87933 0.95826 0.32676 0.0
N686 N 0.90268 0.92396 0.26292 0.0
C687 C 0.86527 0.92072 0.27149 0.0
C688 C 0.85252 0.9396 0.30592 0.0
C689 C 0.3483 0.60096 0.54996 0.0
C690 C 0.34964 0.55978 0.55758 0.0
C691 C 0.36567 0.61703 0.51746 0.0
C692 C 0.38526 0.59274 0.49103 0.0
H693 H 0.33298 0.62117 0.56885 0.0
H694 H 0.36331 0.64887 0.51275 0.0
S695 S 0.39938 0.48328 0.49842 0.0
N696 N 0.37396 0.49508 0.53678 0.0
N697 N 0.40665 0.52551 0.47535 0.0
C698 C 0.38835 0.55166 0.49895 0.0
C699 C 0.37055 0.53514 0.53228 0.0
C700 C 0.26076 0.17025 0.47487 0.0
C701 C 0.24025 0.20669 0.4691 0.0
C702 C 0.29127 0.15884 0.45139 0.0
C703 C 0.3031 0.18335 0.42097 0.0
H704 H 0.25352 0.15021 0.49822 0.0
H705 H 0.30621 0.13064 0.45761 0.0
S706 S 0.25841 0.28132 0.39224 0.0
N707 N 0.2333 0.26703 0.42976 0.0
N708 N 0.29122 0.24559 0.38541 0.0
C709 C 0.28276 0.21984 0.41435 0.0
C710 C 0.25113 0.23142 0.43833 0.0
C711 C 0.12287 0.0254 0.69667 0.0
C712 C 0.1003 0.05094 0.67253 0.0
C713 C 0.10788 0.9918 0.71386 0.0
C714 C 0.06949 0.98248 0.70798 0.0
H715 H 0.15227 0.03183 0.70286 0.0
H716 H 0.12651 0.9736 0.73277 0.0
S717 S 0.99883 0.03936 0.64566 0.0
N718 N 0.03815 0.06425 0.64214 0.0
N719 N 1.00966 1.00099 0.67466 0.0
C720 C 0.04691 1.00708 0.68266 0.0
C721 C 0.06238 0.04133 0.66492 0.0
C722 C 0.27644 0.80219 0.92581 0.0
C723 C 0.25954 0.84086 0.92607 0.0
C724 C 0.30955 0.79216 0.94816 0.0
C725 C 0.32665 0.82055 0.97136 0.0
H726 H 0.26313 0.77921 0.90957 0.0
H727 H 0.32058 0.76169 0.94877 0.0
S728 S 0.29748 0.9273 0.97649 0.0
N729 N 0.26555 0.90856 0.94732 0.0
N730 N 0.32691 0.88982 0.98937 0.0
C731 C 0.31141 0.85975 0.96968 0.0
C732 C 0.27808 0.86989 0.94704 0.0
C733 C 0.46107 0.01864 0.22502 0.0
C734 C 0.49797 0.03187 0.21831 0.0
C735 C 0.44828 0.98417 0.20818 0.0
C736 C 0.47166 0.96135 0.18367 0.0
H737 H 0.44179 0.03465 0.24401 0.0
H738 H 0.4198 0.97514 0.21467 0.0
S739 S 0.57015 0.98323 0.15511 0.0
N740 N 0.55742 0.01975 0.18412 0.0
N741 N 0.53318 0.9547 0.15246 0.0
C742 C 0.50821 0.97463 0.17559 0.0
C743 C 0.52141 1.0099 0.19291 0.0
C744 C 0.77598 0.38345 0.62574 0.0
C745 C 0.80478 0.35913 0.64356 0.0
C746 C 0.74386 0.36728 0.60893 0.0
C747 C 0.73912 0.32603 0.60915 0.0
H748 H 0.77886 0.41525 0.6237 0.0
H749 H 0.72316 0.38734 0.59444 0.0
S750 S 0.80503 0.24952 0.6547 0.0
N751 N 0.82562 0.29182 0.66247 0.0
N752 N 0.76484 0.26134 0.63107 0.0
C753 C 0.76658 0.30145 0.62888 0.0
C754 C 0.79952 0.31802 0.646 0.0
C755 C 1.00547 0.48845 0.84155 0.0
C756 C 0.98236 0.45554 0.83793 0.0
C757 C 0.99373 0.52161 0.86322 0.0
C758 C 0.95884 0.5228 0.88281 0.0
H759 H 0.03203 0.48951 0.82608 0.0
H760 H 1.01173 0.54686 0.86404 0.0
S761 S 0.88927 0.44315 0.885 0.0
N762 N 0.92388 0.42549 0.85744 0.0
N763 N 0.90218 0.48735 0.89863 0.0
C764 C 0.93639 0.48931 0.88097 0.0
C765 C 0.94806 0.45583 0.85845 0.0
C766 C 0.77545 0.68367 0.07384 0.0
C767 C 0.79502 0.71576 0.08889 0.0
C768 C 0.74204 0.67074 0.0906 0.0
C769 C 0.72648 0.68901 0.12343 0.0
H770 H 0.78566 0.66838 0.04842 0.0
H771 H 0.72798 0.64639 0.07723 0.0
S772 S 0.76682 0.77357 0.1753 0.0
N773 N 0.7963 0.76543 0.13914 0.0
N774 N 0.73375 0.74048 0.17119 0.0
C775 C 0.74566 0.7211 0.13907 0.0
C776 C 0.77981 0.73454 0.12175 0.0
C777 C 0.62047 0.53881 0.37176 0.0
C778 C 0.59459 0.51232 0.38735 0.0
C779 C 0.60801 0.57142 0.34846 0.0
C780 C 0.5691 0.57898 0.33964 0.0
H781 H 0.65084 0.53346 0.3763 0.0
H782 H 0.62927 0.59003 0.33615 0.0
S783 S 0.48926 0.52162 0.37738 0.0
N784 N 0.52789 0.49812 0.39543 0.0
N785 N 0.50445 0.55913 0.35135 0.0
C786 C 0.54272 0.55391 0.35665 0.0
C787 C 0.55546 0.52063 0.38043 0.0
C788 C 0.44397 0.24984 0.17116 0.0
C789 C 0.42592 0.27652 0.19668 0.0
C790 C 0.46551 0.21646 0.18494 0.0
C791 C 0.47003 0.20824 0.22489 0.0
H792 H 0.44235 0.25537 0.14017 0.0
H793 H 0.47961 0.19758 0.16399 0.0
S794 S 0.42501 0.26618 0.30385 0.0
N795 N 0.41146 0.29068 0.26383 0.0
N796 N 0.45194 0.22791 0.28979 0.0
C797 C 0.45086 0.23374 0.25076 0.0
C798 C 0.42896 0.26793 0.23667 0.0
C799 C 0.98042 0.26698 0.83785 0.0
C800 C 0.9686 0.28488 0.80221 0.0
C801 C 0.96007 0.23679 0.85516 0.0
C802 C 0.92712 0.22269 0.83759 0.0
H803 H 1.00536 0.27675 0.85312 0.0
H804 H 0.97019 0.22445 0.88279 0.0
S805 S 0.88404 0.25822 0.74397 0.0
N806 N 0.92167 0.28539 0.7496 0.0
N807 N 0.88363 0.22825 0.7823 0.0
C808 C 0.91523 0.23946 0.80161 0.0
C809 C 0.93584 0.27066 0.78396 0.0
C810 C 1.01651 0.66299 0.13929 0.0
C811 C 0.03765 0.64281 0.11086 0.0
C812 C 0.98266 0.68468 0.12985 0.0
C813 C 0.96807 0.68709 0.09163 0.0
H814 H 1.02743 0.66426 0.16872 0.0
H815 H 0.96894 0.70172 0.15247 0.0
S816 S 1.00861 0.63403 1.00751 0.0
N817 N 0.03877 0.62242 0.04352 0.0
N818 N 0.9748 0.66322 0.02602 0.0
C819 C 0.98697 0.66437 0.06345 0.0
C820 C 1.0219 0.6424 0.07298 0.0
C821 C 0.58426 0.8065 0.34961 0.0
C822 C 0.61325 0.82397 0.32847 0.0
C823 C 0.5668 0.77262 0.33656 0.0
C824 C 0.57738 0.75444 0.30162 0.0
H825 H 0.57523 0.81881 0.37694 0.0
H826 H 0.54471 0.7607 0.35435 0.0
S827 S 0.6517 0.78879 0.23486 0.0
N828 N 0.65177 0.82086 0.27051 0.0
N829 N 0.619 0.75688 0.24586 0.0
C830 C 0.6065 0.7715 0.28006 0.0
C831 C 0.62444 0.80622 0.29352 0.0
C832 C 0.54283 0.35956 0.55659 0.0
C833 C 0.57175 0.34283 0.58092 0.0
C834 C 0.51048 0.37888 0.57212 0.0
C835 C 0.5058 0.38119 0.61248 0.0
H836 H 0.54379 0.35495 0.52562 0.0
H837 H 0.48767 0.38918 0.55254 0.0
S838 S 0.57569 0.34591 0.68804 0.0
N839 N 0.59564 0.33303 0.64679 0.0
N840 N 0.53465 0.36895 0.67614 0.0
C841 C 0.53587 0.36711 0.63689 0.0
C842 C 0.56895 0.34799 0.62103 0.0
C843 C 0.12056 0.7737 0.67596 0.0
C844 C 0.13432 0.74416 0.70242 0.0
C845 C 0.09804 0.80621 0.68812 0.0
C846 C 0.08833 0.81059 0.72724 0.0
H847 H 0.12597 0.77092 0.64529 0.0
H848 H 0.08717 0.82743 0.66636 0.0
S849 S 0.12088 0.74396 0.8088 0.0
N850 N 0.1394 0.72304 0.77002 0.0
N851 N 0.09695 0.78436 0.793 0.0
C852 C 0.10346 0.78238 0.75438 0.0
C853 C 0.12635 0.74903 0.74191 0.0
C854 C 0.5271 0.84313 1.01082 0.0
C855 C 0.50557 0.8212 0.98466 0.0
C856 C 0.56259 0.85765 1.00034 0.0
C857 C 0.57784 0.85056 0.96346 0.0
H858 H 0.51714 0.84798 0.03999 0.0
H859 H 0.57863 0.87365 1.02156 0.0
S860 S 0.5305 0.79992 0.88258 0.0
N861 N 0.50064 0.79679 0.91888 0.0
N862 N 0.56694 0.82392 0.89954 0.0
C863 C 0.55583 0.83031 0.93658 0.0
C864 C 0.51982 0.81571 0.94708 0.0
C865 C 1.0169 0.14463 0.48907 0.0
C866 C 0.99802 0.15429 0.4537 0.0
C867 C 0.04918 0.16479 0.501 0.0
C868 C 0.06384 0.19523 0.47786 0.0
H869 H 1.00616 0.12188 0.50801 0.0
H870 H 0.06213 0.1571 0.52893 0.0
S871 S 1.02754 0.22787 0.38025 0.0
N872 N 0.99827 0.19362 0.3942 0.0
N873 N 0.05863 0.23134 0.41615 0.0
C874 C 0.04595 0.20396 0.44171 0.0
C875 C 1.01315 0.18358 0.42977 0.0
loop_
_geom_bond_atom_site_label_1
_geom_bond_atom_site_label_2
_geom_bond_distance
_geom_bond_site_symmetry_2
_ccdc_geom_bond_type
Gd0 C3 2.818 . S
Gd0 O20 2.377 . S
Gd0 O22 2.448 . S
Gd0 O23 2.506 . S
Gd0 O24 2.435 . S
Gd0 O25 2.717 . S
Gd0 O27 2.395 . S
Gd0 O31 2.327 . S
Gd1 C12 2.818 . S
Gd1 O21 2.395 . S
Gd1 O25 2.327 . S
Gd1 O26 2.377 . S
Gd1 O28 2.448 . S
Gd1 O29 2.506 . S
Gd1 O30 2.435 . S
Gd1 O31 2.717 . S
C2 O20 1.240 . S
C2 O21 1.240 . S
C3 Gd0 2.818 . S
C3 C4 1.510 . S
C3 O22 1.249 . S
C3 O23 1.252 . S
C4 C3 1.510 . S
C4 C5 1.404 . S
C4 C6 1.352 . S
C5 C4 1.404 . S
C5 C9 1.389 . S
C5 H32 0.930 . S
C6 C4 1.352 . S
C6 C8 1.374 . S
C6 H33 0.931 . S
C7 C8 1.359 . S
C7 C9 1.364 . S
C8 C6 1.374 . S
C8 C7 1.359 . S
C8 H34 0.931 . S
C9 C5 1.389 . S
C9 C7 1.364 . S
C9 H35 0.931 . S
C10 O24 1.256 . S
C10 O25 1.257 . S
C11 O26 1.240 . S
C11 O27 1.240 . S
C12 Gd1 2.818 . S
C12 C13 1.510 . S
C12 O28 1.249 . S
C12 O29 1.252 . S
C13 C12 1.510 . S
C13 C14 1.404 . S
C13 C15 1.352 . S
C14 C13 1.404 . S
C14 C18 1.389 . S
C14 H36 0.930 . S
C15 C13 1.352 . S
C15 C17 1.374 . S
C15 H37 0.931 . S
C16 C17 1.359 . S
C16 C18 1.364 . S
C17 C15 1.374 . S
C17 C16 1.359 . S
C17 H38 0.931 . S
C18 C14 1.389 . S
C18 C16 1.364 . S
C18 H39 0.931 . S
C19 O30 1.256 . S
C19 O31 1.257 . S
O20 Gd0 2.377 . S
O20 C2 1.240 . S
O21 Gd1 2.395 . S
O21 C2 1.240 . S
O22 Gd0 2.448 . S
O22 C3 1.249 . S
O23 Gd0 2.506 . S
O23 C3 1.252 . S
O24 Gd0 2.435 . S
O24 C10 1.256 . S
O25 Gd0 2.717 . S
O25 Gd1 2.327 . S
O25 C10 1.257 . S
O26 Gd1 2.377 . S
O26 C11 1.240 . S
O27 Gd0 2.395 . S
O27 C11 1.240 . S
O28 Gd1 2.448 . S
O28 C12 1.249 . S
O29 Gd1 2.506 . S
O29 C12 1.252 . S
O30 Gd1 2.435 . S
O30 C19 1.256 . S
O31 Gd0 2.327 . S
O31 Gd1 2.717 . S
O31 C19 1.257 . S
H32 C5 0.930 . S
H33 C6 0.931 . S
H34 C8 0.931 . S
H35 C9 0.931 . S
H36 C14 0.930 . S
H37 C15 0.931 . S
H38 C17 0.931 . S
H39 C18 0.931 . S
Gd40 C43 2.818 . S
Gd40 O60 2.377 . S
Gd40 O62 2.448 . S
Gd40 O63 2.506 . S
Gd40 O64 2.435 1_655 S
Gd40 O65 2.717 1_655 S
Gd40 O67 2.395 . S
Gd40 O71 2.327 . S
Gd41 C52 2.818 . S
Gd41 O61 2.395 . S
Gd41 O65 2.327 . S
Gd41 O66 2.377 . S
Gd41 O68 2.448 . S
Gd41 O69 2.506 . S
Gd41 O70 2.435 1_455 S
Gd41 O71 2.717 1_455 S
C42 O60 1.240 1_455 S
C42 O61 1.240 . S
C43 Gd40 2.818 . S
C43 C44 1.510 . S
C43 O62 1.249 . S
C43 O63 1.252 . S
C44 C43 1.510 . S
C44 C45 1.404 . S
C44 C46 1.352 . S
C45 C44 1.404 . S
C45 C49 1.389 . S
C45 H72 0.930 . S
C46 C44 1.352 . S
C46 C48 1.374 . S
C46 H73 0.931 . S
C47 C48 1.359 . S
C47 C49 1.364 . S
C48 C46 1.374 . S
C48 C47 1.359 . S
C48 H74 0.931 . S
C49 C45 1.389 . S
C49 C47 1.364 . S
C49 H75 0.931 . S
C50 O64 1.256 . S
C50 O65 1.257 . S
C51 O66 1.240 1_655 S
C51 O67 1.240 . S
C52 Gd41 2.818 . S
C52 C53 1.510 . S
C52 O68 1.249 . S
C52 O69 1.252 . S
C53 C52 1.510 . S
C53 C54 1.404 . S
C53 C55 1.352 . S
C54 C53 1.404 . S
C54 C58 1.389 . S
C54 H76 0.930 . S
C55 C53 1.352 . S
C55 C57 1.374 . S
C55 H77 0.931 . S
C56 C57 1.359 . S
C56 C58 1.364 . S
C57 C55 1.374 . S
C57 C56 1.359 . S
C57 H78 0.931 . S
C58 C54 1.389 . S
C58 C56 1.364 . S
C58 H79 0.931 . S
C59 O70 1.256 . S
C59 O71 1.257 . S
O60 Gd40 2.377 . S
O60 C42 1.240 1_655 S
O61 Gd41 2.395 . S
O61 C42 1.240 . S
O62 Gd40 2.448 . S
O62 C43 1.249 . S
O63 Gd40 2.506 . S
O63 C43 1.252 . S
O64 Gd40 2.435 1_455 S
O64 C50 1.256 . S
O65 Gd40 2.717 1_455 S
O65 Gd41 2.327 . S
O65 C50 1.257 . S
O66 Gd41 2.377 . S
O66 C51 1.240 1_455 S
O67 Gd40 2.395 . S
O67 C51 1.240 . S
O68 Gd41 2.448 . S
O68 C52 1.249 . S
O69 Gd41 2.506 . S
O69 C52 1.252 . S
O70 Gd41 2.435 1_655 S
O70 C59 1.256 . S
O71 Gd40 2.327 . S
O71 Gd41 2.717 1_655 S
O71 C59 1.257 . S
H72 C45 0.930 . S
H73 C46 0.931 . S
H74 C48 0.931 . S
H75 C49 0.931 . S
H76 C54 0.930 . S
H77 C55 0.931 . S
H78 C57 0.931 . S
H79 C58 0.931 . S
Gd80 C83 2.818 . S
Gd80 O100 2.391 . S
Gd80 O102 2.448 . S
Gd80 O103 2.506 . S
Gd80 O104 2.435 1_554 S
Gd80 O105 2.717 1_554 S
Gd80 O107 2.395 . S
Gd80 O111 2.327 . S
Gd81 C92 2.818 . S
Gd81 O101 2.395 . S
Gd81 O105 2.327 . S
Gd81 O106 2.396 . S
Gd81 O108 2.448 . S
Gd81 O109 2.506 . S
Gd81 O110 2.435 1_556 S
Gd81 O111 2.717 1_556 S
C82 O100 1.228 1_556 S
C82 O101 1.240 . S
C83 Gd80 2.818 . S
C83 C84 1.510 . S
C83 O102 1.249 . S
C83 O103 1.252 . S
C84 C83 1.510 . S
C84 C85 1.404 . S
C84 C86 1.352 . S
C85 C84 1.404 . S
C85 C89 1.389 . S
C85 H112 0.930 . S
C86 C84 1.352 . S
C86 C88 1.374 . S
C86 H113 0.931 . S
C87 C88 1.359 . S
C87 C89 1.364 . S
C88 C86 1.374 . S
C88 C87 1.359 . S
C88 H114 0.931 . S
C89 C85 1.389 . S
C89 C87 1.364 . S
C89 H115 0.931 . S
C90 O104 1.256 . S
C90 O105 1.257 . S
C91 O106 1.224 1_554 S
C91 O107 1.240 . S
C92 Gd81 2.818 . S
C92 C93 1.510 . S
C92 O108 1.249 . S
C92 O109 1.252 . S
C93 C92 1.510 . S
C93 C94 1.404 . S
C93 C95 1.352 . S
C94 C93 1.404 . S
C94 C98 1.389 . S
C94 H116 0.930 . S
C95 C93 1.352 . S
C95 C97 1.374 . S
C95 H117 0.931 . S
C96 C97 1.359 . S
C96 C98 1.364 . S
C97 C95 1.374 . S
C97 C96 1.359 . S
C97 H118 0.931 . S
C98 C94 1.389 . S
C98 C96 1.364 . S
C98 H119 0.931 . S
C99 O110 1.256 . S
C99 O111 1.257 . S
O100 Gd80 2.391 . S
O100 C82 1.228 1_554 S
O101 Gd81 2.395 . S
O101 C82 1.240 . S
O102 Gd80 2.448 . S
O102 C83 1.249 . S
O103 Gd80 2.506 . S
O103 C83 1.252 . S
O104 Gd80 2.435 1_556 S
O104 C90 1.256 . S
O105 Gd80 2.717 1_556 S
O105 Gd81 2.327 . S
O105 C90 1.257 . S
O106 Gd81 2.396 . S
O106 C91 1.224 1_556 S
O107 Gd80 2.395 . S
O107 C91 1.240 . S
O108 Gd81 2.448 . S
O108 C92 1.249 . S
O109 Gd81 2.506 . S
O109 C92 1.252 . S
O110 Gd81 2.435 1_554 S
O110 C99 1.256 . S
O111 Gd80 2.327 . S
O111 Gd81 2.717 1_554 S
O111 C99 1.257 . S
H112 C85 0.930 . S
H113 C86 0.931 . S
H114 C88 0.931 . S
H115 C89 0.931 . S
H116 C94 0.930 . S
H117 C95 0.931 . S
H118 C97 0.931 . S
H119 C98 0.931 . S
Gd120 C123 2.818 . S
Gd120 O140 2.377 . S
Gd120 O142 2.448 . S
Gd120 O143 2.506 . S
Gd120 O144 2.435 . S
Gd120 O145 2.717 . S
Gd120 O147 2.395 . S
Gd120 O151 2.327 . S
Gd121 C132 2.818 . S
Gd121 O141 2.395 . S
Gd121 O145 2.327 . S
Gd121 O146 2.377 . S
Gd121 O148 2.448 . S
Gd121 O149 2.506 . S
Gd121 O150 2.435 . S
Gd121 O151 2.717 . S
C122 O140 1.240 . S
C122 O141 1.240 . S
C123 Gd120 2.818 . S
C123 C124 1.510 . S
C123 O142 1.249 . S
C123 O143 1.252 . S
C124 C123 1.510 . S
C124 C125 1.404 . S
C124 C126 1.352 . S
C125 C124 1.404 . S
C125 C129 1.389 . S
C125 H152 0.930 . S
C126 C124 1.352 . S
C126 C128 1.374 . S
C126 H153 0.931 . S
C127 C128 1.359 . S
C127 C129 1.364 . S
C128 C126 1.374 . S
C128 C127 1.359 . S
C128 H154 0.931 . S
C129 C125 1.389 . S
C129 C127 1.364 . S
C129 H155 0.931 . S
C130 O144 1.256 . S
C130 O145 1.257 . S
C131 O146 1.240 . S
C131 O147 1.240 . S
C132 Gd121 2.818 . S
C132 C133 1.510 . S
C132 O148 1.249 . S
C132 O149 1.252 . S
C133 C132 1.510 . S
C133 C134 1.404 . S
C133 C135 1.352 . S
C134 C133 1.404 . S
C134 C138 1.389 . S
C134 H156 0.930 . S
C135 C133 1.352 . S
C135 C137 1.374 . S
C135 H157 0.931 . S
C136 C137 1.359 . S
C136 C138 1.364 . S
C137 C135 1.374 . S
C137 C136 1.359 . S
C137 H158 0.931 . S
C138 C134 1.389 . S
C138 C136 1.364 . S
C138 H159 0.931 . S
C139 O150 1.256 . S
C139 O151 1.257 . S
O140 Gd120 2.377 . S
O140 C122 1.240 . S
O141 Gd121 2.395 . S
O141 C122 1.240 . S
O142 Gd120 2.448 . S
O142 C123 1.249 . S
O143 Gd120 2.506 . S
O143 C123 1.252 . S
O144 Gd120 2.435 . S
O144 C130 1.256 . S
O145 Gd120 2.717 . S
O145 Gd121 2.327 . S
O145 C130 1.257 . S
O146 Gd121 2.377 . S
O146 C131 1.240 . S
O147 Gd120 2.395 . S
O147 C131 1.240 . S
O148 Gd121 2.448 . S
O148 C132 1.249 . S
O149 Gd121 2.506 . S
O149 C132 1.252 . S
O150 Gd121 2.435 . S
O150 C139 1.256 . S
O151 Gd120 2.327 . S
O151 Gd121 2.717 . S
O151 C139 1.257 . S
H152 C125 0.930 . S
H153 C126 0.931 . S
H154 C128 0.931 . S
H155 C129 0.931 . S
H156 C134 0.930 . S
H157 C135 0.931 . S
H158 C137 0.931 . S
H159 C138 0.931 . S
Gd160 C163 2.818 . S
Gd160 O180 2.377 . S
Gd160 O182 2.448 . S
Gd160 O183 2.506 . S
Gd160 O184 2.435 . S
Gd160 O185 2.717 . S
Gd160 O187 2.395 . S
Gd160 O191 2.327 . S
Gd161 C172 2.818 . S
Gd161 O181 2.395 . S
Gd161 O185 2.327 . S
Gd161 O186 2.377 . S
Gd161 O188 2.448 . S
Gd161 O189 2.506 . S
Gd161 O190 2.435 . S
Gd161 O191 2.717 . S
C162 O180 1.240 . S
C162 O181 1.240 . S
C163 Gd160 2.818 . S
C163 C164 1.510 . S
C163 O182 1.249 . S
C163 O183 1.252 . S
C164 C163 1.510 . S
C164 C165 1.404 . S
C164 C166 1.352 . S
C165 C164 1.404 . S
C165 C169 1.389 . S
C165 H192 0.930 . S
C166 C164 1.352 . S
C166 C168 1.374 . S
C166 H193 0.931 . S
C167 C168 1.359 . S
C167 C169 1.364 . S
C168 C166 1.374 . S
C168 C167 1.359 . S
C168 H194 0.931 . S
C169 C165 1.389 . S
C169 C167 1.364 . S
C169 H195 0.931 . S
C170 O184 1.256 . S
C170 O185 1.257 . S
C171 O186 1.240 . S
C171 O187 1.240 . S
C172 Gd161 2.818 . S
C172 C173 1.510 . S
C172 O188 1.249 . S
C172 O189 1.252 . S
C173 C172 1.510 . S
C173 C174 1.404 . S
C173 C175 1.352 . S
C174 C173 1.404 . S
C174 C178 1.389 . S
C174 H196 0.930 . S
C175 C173 1.352 . S
C175 C177 1.374 . S
C175 H197 0.931 . S
C176 C177 1.359 . S
C176 C178 1.364 . S
C177 C175 1.374 . S
C177 C176 1.359 . S
C177 H198 0.931 . S
C178 C174 1.389 . S
C178 C176 1.364 . S
C178 H199 0.931 . S
C179 O190 1.256 . S
C179 O191 1.257 . S
O180 Gd160 2.377 . S
O180 C162 1.240 . S
O181 Gd161 2.395 . S
O181 C162 1.240 . S
O182 Gd160 2.448 . S
O182 C163 1.249 . S
O183 Gd160 2.506 . S
O183 C163 1.252 . S
O184 Gd160 2.435 . S
O184 C170 1.256 . S
O185 Gd160 2.717 . S
O185 Gd161 2.327 . S
O185 C170 1.257 . S
O186 Gd161 2.377 . S
O186 C171 1.240 . S
O187 Gd160 2.395 . S
O187 C171 1.240 . S
O188 Gd161 2.448 . S
O188 C172 1.249 . S
O189 Gd161 2.506 . S
O189 C172 1.252 . S
O190 Gd161 2.435 . S
O190 C179 1.256 . S
O191 Gd160 2.327 . S
O191 Gd161 2.717 . S
O191 C179 1.257 . S
H192 C165 0.930 . S
H193 C166 0.931 . S
H194 C168 0.931 . S
H195 C169 0.931 . S
H196 C174 0.930 . S
H197 C175 0.931 . S
H198 C177 0.931 . S
H199 C178 0.931 . S
Gd200 C203 2.818 . S
Gd200 O220 2.377 . S
Gd200 O222 2.448 . S
Gd200 O223 2.506 . S
Gd200 O224 2.435 . S
Gd200 O225 2.717 . S
Gd200 O227 2.395 1_655 S
Gd200 O231 2.327 1_655 S
Gd201 C212 2.818 . S
Gd201 O221 2.395 1_455 S
Gd201 O225 2.327 1_455 S
Gd201 O226 2.377 . S
Gd201 O228 2.448 . S
Gd201 O229 2.506 . S
Gd201 O230 2.435 . S
Gd201 O231 2.717 . S
C202 O220 1.240 . S
C202 O221 1.240 . S
C203 Gd200 2.818 . S
C203 C204 1.510 . S
C203 O222 1.249 . S
C203 O223 1.252 . S
C204 C203 1.510 . S
C204 C205 1.404 . S
C204 C206 1.352 . S
C205 C204 1.404 . S
C205 C209 1.389 . S
C205 H232 0.930 . S
C206 C204 1.352 . S
C206 C208 1.374 . S
C206 H233 0.931 . S
C207 C208 1.359 . S
C207 C209 1.364 . S
C208 C206 1.374 . S
C208 C207 1.359 . S
C208 H234 0.931 . S
C209 C205 1.389 . S
C209 C207 1.364 . S
C209 H235 0.931 . S
C210 O224 1.256 . S
C210 O225 1.257 . S
C211 O226 1.240 . S
C211 O227 1.240 . S
C212 Gd201 2.818 . S
C212 C213 1.510 . S
C212 O228 1.249 . S
C212 O229 1.252 . S
C213 C212 1.510 . S
C213 C214 1.404 . S
C213 C215 1.352 . S
C214 C213 1.404 . S
C214 C218 1.389 . S
C214 H236 0.930 . S
C215 C213 1.352 . S
C215 C217 1.374 . S
C215 H237 0.931 . S
C216 C217 1.359 . S
C216 C218 1.364 . S
C217 C215 1.374 . S
C217 C216 1.359 . S
C217 H238 0.931 . S
C218 C214 1.389 . S
C218 C216 1.364 . S
C218 H239 0.931 . S
C219 O230 1.256 . S
C219 O231 1.257 . S
O220 Gd200 2.377 . S
O220 C202 1.240 . S
O221 Gd201 2.395 1_655 S
O221 C202 1.240 . S
O222 Gd200 2.448 . S
O222 C203 1.249 . S
O223 Gd200 2.506 . S
O223 C203 1.252 . S
O224 Gd200 2.435 . S
O224 C210 1.256 . S
O225 Gd200 2.717 . S
O225 Gd201 2.327 1_655 S
O225 C210 1.257 . S
O226 Gd201 2.377 . S
O226 C211 1.240 . S
O227 Gd200 2.395 1_455 S
O227 C211 1.240 . S
O228 Gd201 2.448 . S
O228 C212 1.249 . S
O229 Gd201 2.506 . S
O229 C212 1.252 . S
O230 Gd201 2.435 . S
O230 C219 1.256 . S
O231 Gd200 2.327 1_455 S
O231 Gd201 2.717 . S
O231 C219 1.257 . S
H232 C205 0.930 . S
H233 C206 0.931 . S
H234 C208 0.931 . S
H235 C209 0.931 . S
H236 C214 0.930 . S
H237 C215 0.931 . S
H238 C217 0.931 . S
H239 C218 0.931 . S
Gd240 C243 2.818 . S
Gd240 O260 2.377 . S
Gd240 O262 2.448 . S
Gd240 O263 2.506 . S
Gd240 O264 2.435 . S
Gd240 O265 2.717 . S
Gd240 O267 2.395 1_554 S
Gd240 O271 2.327 1_554 S
Gd241 C252 2.818 . S
Gd241 O261 2.395 1_556 S
Gd241 O265 2.327 1_556 S
Gd241 O266 2.377 . S
Gd241 O268 2.448 . S
Gd241 O269 2.506 . S
Gd241 O270 2.435 . S
Gd241 O271 2.717 . S
C242 O260 1.240 . S
C242 O261 1.240 . S
C243 Gd240 2.818 . S
C243 C244 1.510 . S
C243 O262 1.249 . S
C243 O263 1.252 . S
C244 C243 1.510 . S
C244 C245 1.404 . S
C244 C246 1.352 . S
C245 C244 1.404 . S
C245 C249 1.389 . S
C245 H272 0.930 . S
C246 C244 1.352 . S
C246 C248 1.374 . S
C246 H273 0.931 . S
C247 C248 1.359 . S
C247 C249 1.364 . S
C248 C246 1.374 . S
C248 C247 1.359 . S
C248 H274 0.931 . S
C249 C245 1.389 . S
C249 C247 1.364 . S
C249 H275 0.931 . S
C250 O264 1.256 . S
C250 O265 1.257 . S
C251 O266 1.240 . S
C251 O267 1.240 . S
C252 Gd241 2.818 . S
C252 C253 1.510 . S
C252 O268 1.249 . S
C252 O269 1.252 . S
C253 C252 1.510 . S
C253 C254 1.404 . S
C253 C255 1.352 . S
C254 C253 1.404 . S
C254 C258 1.389 . S
C254 H276 0.930 . S
C255 C253 1.352 . S
C255 C257 1.374 . S
C255 H277 0.931 . S
C256 C257 1.359 . S
C256 C258 1.364 . S
C257 C255 1.374 . S
C257 C256 1.359 . S
C257 H278 0.931 . S
C258 C254 1.389 . S
C258 C256 1.364 . S
C258 H279 0.931 . S
C259 O270 1.256 . S
C259 O271 1.257 . S
O260 Gd240 2.377 . S
O260 C242 1.240 . S
O261 Gd241 2.395 1_554 S
O261 C242 1.240 . S
O262 Gd240 2.448 . S
O262 C243 1.249 . S
O263 Gd240 2.506 . S
O263 C243 1.252 . S
O264 Gd240 2.435 . S
O264 C250 1.256 . S
O265 Gd240 2.717 . S
O265 Gd241 2.327 1_554 S
O265 C250 1.257 . S
O266 Gd241 2.377 . S
O266 C251 1.240 . S
O267 Gd240 2.395 1_556 S
O267 C251 1.240 . S
O268 Gd241 2.448 . S
O268 C252 1.249 . S
O269 Gd241 2.506 . S
O269 C252 1.252 . S
O270 Gd241 2.435 . S
O270 C259 1.256 . S
O271 Gd240 2.327 1_556 S
O271 Gd241 2.717 . S
O271 C259 1.257 . S
H272 C245 0.930 . S
H273 C246 0.931 . S
H274 C248 0.931 . S
H275 C249 0.931 . S
H276 C254 0.930 . S
H277 C255 0.931 . S
H278 C257 0.931 . S
H279 C258 0.931 . S
Gd280 C283 2.818 . S
Gd280 O300 2.377 . S
Gd280 O302 2.448 . S
Gd280 O303 2.506 . S
Gd280 O304 2.435 . S
Gd280 O305 2.717 . S
Gd280 O307 2.395 . S
Gd280 O311 2.327 . S
Gd281 C292 2.818 . S
Gd281 O301 2.395 . S
Gd281 O305 2.327 . S
Gd281 O306 2.377 . S
Gd281 O308 2.448 . S
Gd281 O309 2.506 . S
Gd281 O310 2.435 . S
Gd281 O311 2.717 . S
C282 O300 1.240 . S
C282 O301 1.240 . S
C283 Gd280 2.818 . S
C283 C284 1.510 . S
C283 O302 1.249 . S
C283 O303 1.252 . S
C284 C283 1.510 . S
C284 C285 1.404 . S
C284 C286 1.352 . S
C285 C284 1.404 . S
C285 C289 1.389 . S
C285 H312 0.930 . S
C286 C284 1.352 . S
C286 C288 1.374 . S
C286 H313 0.931 . S
C287 C288 1.359 . S
C287 C289 1.364 . S
C288 C286 1.374 . S
C288 C287 1.359 . S
C288 H314 0.931 . S
C289 C285 1.389 . S
C289 C287 1.364 . S
C289 H315 0.931 . S
C290 O304 1.256 . S
C290 O305 1.257 . S
C291 O306 1.240 . S
C291 O307 1.240 . S
C292 Gd281 2.818 . S
C292 C293 1.510 . S
C292 O308 1.249 . S
C292 O309 1.252 . S
C293 C292 1.510 . S
C293 C294 1.404 . S
C293 C295 1.352 . S
C294 C293 1.404 . S
C294 C298 1.389 . S
C294 H316 0.930 . S
C295 C293 1.352 . S
C295 C297 1.374 . S
C295 H317 0.931 . S
C296 C297 1.359 . S
C296 C298 1.364 . S
C297 C295 1.374 . S
C297 C296 1.359 . S
C297 H318 0.931 . S
C298 C294 1.389 . S
C298 C296 1.364 . S
C298 H319 0.931 . S
C299 O310 1.256 . S
C299 O311 1.257 . S
O300 Gd280 2.377 . S
O300 C282 1.240 . S
O301 Gd281 2.395 . S
O301 C282 1.240 . S
O302 Gd280 2.448 . S
O302 C283 1.249 . S
O303 Gd280 2.506 . S
O303 C283 1.252 . S
O304 Gd280 2.435 . S
O304 C290 1.256 . S
O305 Gd280 2.717 . S
O305 Gd281 2.327 . S
O305 C290 1.257 . S
O306 Gd281 2.377 . S
O306 C291 1.240 . S
O307 Gd280 2.395 . S
O307 C291 1.240 . S
O308 Gd281 2.448 . S
O308 C292 1.249 . S
O309 Gd281 2.506 . S
O309 C292 1.252 . S
O310 Gd281 2.435 . S
O310 C299 1.256 . S
O311 Gd280 2.327 . S
O311 Gd281 2.717 . S
O311 C299 1.257 . S
H312 C285 0.930 . S
H313 C286 0.931 . S
H314 C288 0.931 . S
H315 C289 0.931 . S
H316 C294 0.930 . S
H317 C295 0.931 . S
H318 C297 0.931 . S
H319 C298 0.931 . S
Gd320 C323 2.818 . S
Gd320 O340 2.377 . S
Gd320 O342 2.448 . S
Gd320 O343 2.506 . S
Gd320 O344 2.435 . S
Gd320 O345 2.717 . S
Gd320 O347 2.395 . S
Gd320 O351 2.327 . S
Gd321 C332 2.818 . S
Gd321 O341 2.395 . S
Gd321 O345 2.327 . S
Gd321 O346 2.377 . S
Gd321 O348 2.448 . S
Gd321 O349 2.506 . S
Gd321 O350 2.435 . S
Gd321 O351 2.717 . S
C322 O340 1.240 . S
C322 O341 1.240 . S
C323 Gd320 2.818 . S
C323 C324 1.510 . S
C323 O342 1.249 . S
C323 O343 1.252 . S
C324 C323 1.510 . S
C324 C325 1.404 . S
C324 C326 1.352 . S
C325 C324 1.404 . S
C325 C329 1.389 . S
C325 H352 0.930 . S
C326 C324 1.352 . S
C326 C328 1.374 . S
C326 H353 0.931 . S
C327 C328 1.359 . S
C327 C329 1.364 . S
C328 C326 1.374 . S
C328 C327 1.359 . S
C328 H354 0.931 . S
C329 C325 1.389 . S
C329 C327 1.364 . S
C329 H355 0.931 . S
C330 O344 1.256 . S
C330 O345 1.257 . S
C331 O346 1.240 . S
C331 O347 1.240 . S
C332 Gd321 2.818 . S
C332 C333 1.510 . S
C332 O348 1.249 . S
C332 O349 1.252 . S
C333 C332 1.510 . S
C333 C334 1.404 . S
C333 C335 1.352 . S
C334 C333 1.404 . S
C334 C338 1.389 . S
C334 H356 0.930 . S
C335 C333 1.352 . S
C335 C337 1.374 . S
C335 H357 0.931 . S
C336 C337 1.359 . S
C336 C338 1.364 . S
C337 C335 1.374 . S
C337 C336 1.359 . S
C337 H358 0.931 . S
C338 C334 1.389 . S
C338 C336 1.364 . S
C338 H359 0.931 . S
C339 O350 1.256 . S
C339 O351 1.257 . S
O340 Gd320 2.377 . S
O340 C322 1.240 . S
O341 Gd321 2.395 . S
O341 C322 1.240 . S
O342 Gd320 2.448 . S
O342 C323 1.249 . S
O343 Gd320 2.506 . S
O343 C323 1.252 . S
O344 Gd320 2.435 . S
O344 C330 1.256 . S
O345 Gd320 2.717 . S
O345 Gd321 2.327 . S
O345 C330 1.257 . S
O346 Gd321 2.377 . S
O346 C331 1.240 . S
O347 Gd320 2.395 . S
O347 C331 1.240 . S
O348 Gd321 2.448 . S
O348 C332 1.249 . S
O349 Gd321 2.506 . S
O349 C332 1.252 . S
O350 Gd321 2.435 . S
O350 C339 1.256 . S
O351 Gd320 2.327 . S
O351 Gd321 2.717 . S
O351 C339 1.257 . S
H352 C325 0.930 . S
H353 C326 0.931 . S
H354 C328 0.931 . S
H355 C329 0.931 . S
H356 C334 0.930 . S
H357 C335 0.931 . S
H358 C337 0.931 . S
H359 C338 0.931 . S
Gd360 C363 2.818 . S
Gd360 O380 2.367 1_565 S
Gd360 O382 2.448 . S
Gd360 O383 2.506 . S
Gd360 O384 2.435 1_565 S
Gd360 O385 2.717 1_565 S
Gd360 O387 2.395 . S
Gd360 O391 2.327 . S
Gd361 C372 2.818 . S
Gd361 O381 2.395 . S
Gd361 O385 2.327 . S
Gd361 O386 2.371 1_545 S
Gd361 O388 2.448 . S
Gd361 O389 2.506 . S
Gd361 O390 2.435 1_545 S
Gd361 O391 2.717 1_545 S
C362 O380 1.249 . S
C362 O381 1.240 . S
C363 Gd360 2.818 . S
C363 C364 1.510 . S
C363 O382 1.249 . S
C363 O383 1.252 . S
C364 C363 1.510 . S
C364 C365 1.404 . S
C364 C366 1.352 . S
C365 C364 1.404 . S
C365 C369 1.389 . S
C365 H392 0.930 . S
C366 C364 1.352 . S
C366 C368 1.374 . S
C366 H393 0.931 . S
C367 C368 1.359 . S
C367 C369 1.364 . S
C368 C366 1.374 . S
C368 C367 1.359 . S
C368 H394 0.931 . S
C369 C365 1.389 . S
C369 C367 1.364 . S
C369 H395 0.931 . S
C370 O384 1.256 . S
C370 O385 1.257 . S
C371 O386 1.246 . S
C371 O387 1.240 . S
C372 Gd361 2.818 . S
C372 C373 1.510 . S
C372 O388 1.249 . S
C372 O389 1.252 . S
C373 C372 1.510 . S
C373 C374 1.404 . S
C373 C375 1.352 . S
C374 C373 1.404 . S
C374 C378 1.389 . S
C374 H396 0.930 . S
C375 C373 1.352 . S
C375 C377 1.374 . S
C375 H397 0.931 . S
C376 C377 1.359 . S
C376 C378 1.364 . S
C377 C375 1.374 . S
C377 C376 1.359 . S
C377 H398 0.931 . S
C378 C374 1.389 . S
C378 C376 1.364 . S
C378 H399 0.931 . S
C379 O390 1.256 . S
C379 O391 1.257 . S
O380 Gd360 2.367 1_545 S
O380 C362 1.249 . S
O381 Gd361 2.395 . S
O381 C362 1.240 . S
O382 Gd360 2.448 . S
O382 C363 1.249 . S
O383 Gd360 2.506 . S
O383 C363 1.252 . S
O384 Gd360 2.435 1_545 S
O384 C370 1.256 . S
O385 Gd360 2.717 1_545 S
O385 Gd361 2.327 . S
O385 C370 1.257 . S
O386 Gd361 2.371 1_565 S
O386 C371 1.246 . S
O387 Gd360 2.395 . S
O387 C371 1.240 . S
O388 Gd361 2.448 . S
O388 C372 1.249 . S
O389 Gd361 2.506 . S
O389 C372 1.252 . S
O390 Gd361 2.435 1_565 S
O390 C379 1.256 . S
O391 Gd360 2.327 . S
O391 Gd361 2.717 1_565 S
O391 C379 1.257 . S
H392 C365 0.930 . S
H393 C366 0.931 . S
H394 C368 0.931 . S
H395 C369 0.931 . S
H396 C374 0.930 . S
H397 C375 0.931 . S
H398 C377 0.931 . S
H399 C378 0.931 . S
Gd400 C403 2.818 . S
Gd400 O420 2.377 . S
Gd400 O422 2.448 . S
Gd400 O423 2.506 . S
Gd400 O424 2.435 . S
Gd400 O425 2.717 . S
Gd400 O427 2.395 1_565 S
Gd400 O431 2.327 1_565 S
Gd401 C412 2.818 . S
Gd401 O421 2.395 1_545 S
Gd401 O425 2.327 1_545 S
Gd401 O426 2.377 . S
Gd401 O428 2.448 . S
Gd401 O429 2.506 . S
Gd401 O430 2.435 . S
Gd401 O431 2.717 . S
C402 O420 1.240 . S
C402 O421 1.240 . S
C403 Gd400 2.818 . S
C403 C404 1.510 . S
C403 O422 1.249 . S
C403 O423 1.252 . S
C404 C403 1.510 . S
C404 C405 1.404 . S
C404 C406 1.352 . S
C405 C404 1.404 . S
C405 C409 1.389 . S
C405 H432 0.930 . S
C406 C404 1.352 . S
C406 C408 1.374 . S
C406 H433 0.931 . S
C407 C408 1.359 . S
C407 C409 1.364 . S
C408 C406 1.374 . S
C408 C407 1.359 . S
C408 H434 0.931 . S
C409 C405 1.389 . S
C409 C407 1.364 . S
C409 H435 0.931 . S
C410 O424 1.256 . S
C410 O425 1.257 . S
C411 O426 1.240 . S
C411 O427 1.240 . S
C412 Gd401 2.818 . S
C412 C413 1.510 . S
C412 O428 1.249 . S
C412 O429 1.252 . S
C413 C412 1.510 . S
C413 C414 1.404 . S
C413 C415 1.352 . S
C414 C413 1.404 . S
C414 C418 1.389 . S
C414 H436 0.930 . S
C415 C413 1.352 . S
C415 C417 1.374 . S
C415 H437 0.931 . S
C416 C417 1.359 . S
C416 C418 1.364 . S
C417 C415 1.374 . S
C417 C416 1.359 . S
C417 H438 0.931 . S
C418 C414 1.389 . S
C418 C416 1.364 . S
C418 H439 0.931 . S
C419 O430 1.256 . S
C419 O431 1.257 . S
O420 Gd400 2.377 . S
O420 C402 1.240 . S
O421 Gd401 2.395 1_565 S
O421 C402 1.240 . S
O422 Gd400 2.448 . S
O422 C403 1.249 . S
O423 Gd400 2.506 . S
O423 C403 1.252 . S
O424 Gd400 2.435 . S
O424 C410 1.256 . S
O425 Gd400 2.717 . S
O425 Gd401 2.327 1_565 S
O425 C410 1.257 . S
O426 Gd401 2.377 . S
O426 C411 1.240 . S
O427 Gd400 2.395 1_545 S
O427 C411 1.240 . S
O428 Gd401 2.448 . S
O428 C412 1.249 . S
O429 Gd401 2.506 . S
O429 C412 1.252 . S
O430 Gd401 2.435 . S
O430 C419 1.256 . S
O431 Gd400 2.327 1_545 S
O431 Gd401 2.717 . S
O431 C419 1.257 . S
H432 C405 0.930 . S
H433 C406 0.931 . S
H434 C408 0.931 . S
H435 C409 0.931 . S
H436 C414 0.930 . S
H437 C415 0.931 . S
H438 C417 0.931 . S
H439 C418 0.931 . S
Gd440 C443 2.818 . S
Gd440 O460 2.377 . S
Gd440 O462 2.448 . S
Gd440 O463 2.506 . S
Gd440 O464 2.435 . S
Gd440 O465 2.717 . S
Gd440 O467 2.395 . S
Gd440 O471 2.327 . S
Gd441 C452 2.818 . S
Gd441 O461 2.395 . S
Gd441 O465 2.327 . S
Gd441 O466 2.377 . S
Gd441 O468 2.448 . S
Gd441 O469 2.506 . S
Gd441 O470 2.435 . S
Gd441 O471 2.717 . S
C442 O460 1.240 . S
C442 O461 1.240 . S
C443 Gd440 2.818 . S
C443 C444 1.510 . S
C443 O462 1.249 . S
C443 O463 1.252 . S
C444 C443 1.510 . S
C444 C445 1.404 . S
C444 C446 1.352 . S
C445 C444 1.404 . S
C445 C449 1.389 . S
C445 H472 0.930 . S
C446 C444 1.352 . S
C446 C448 1.374 . S
C446 H473 0.931 . S
C447 C448 1.359 . S
C447 C449 1.364 . S
C448 C446 1.374 . S
C448 C447 1.359 . S
C448 H474 0.931 . S
C449 C445 1.389 . S
C449 C447 1.364 . S
C449 H475 0.931 . S
C450 O464 1.256 . S
C450 O465 1.257 . S
C451 O466 1.240 . S
C451 O467 1.240 . S
C452 Gd441 2.818 . S
C452 C453 1.510 . S
C452 O468 1.249 . S
C452 O469 1.252 . S
C453 C452 1.510 . S
C453 C454 1.404 . S
C453 C455 1.352 . S
C454 C453 1.404 . S
C454 C458 1.389 . S
C454 H476 0.930 . S
C455 C453 1.352 . S
C455 C457 1.374 . S
C455 H477 0.931 . S
C456 C457 1.359 . S
C456 C458 1.364 . S
C457 C455 1.374 . S
C457 C456 1.359 . S
C457 H478 0.931 . S
C458 C454 1.389 . S
C458 C456 1.364 . S
C458 H479 0.931 . S
C459 O470 1.256 . S
C459 O471 1.257 . S
O460 Gd440 2.377 . S
O460 C442 1.240 . S
O461 Gd441 2.395 . S
O461 C442 1.240 . S
O462 Gd440 2.448 . S
O462 C443 1.249 . S
O463 Gd440 2.506 . S
O463 C443 1.252 . S
O464 Gd440 2.435 . S
O464 C450 1.256 . S
O465 Gd440 2.717 . S
O465 Gd441 2.327 . S
O465 C450 1.257 . S
O466 Gd441 2.377 . S
O466 C451 1.240 . S
O467 Gd440 2.395 . S
O467 C451 1.240 . S
O468 Gd441 2.448 . S
O468 C452 1.249 . S
O469 Gd441 2.506 . S
O469 C452 1.252 . S
O470 Gd441 2.435 . S
O470 C459 1.256 . S
O471 Gd440 2.327 . S
O471 Gd441 2.717 . S
O471 C459 1.257 . S
H472 C445 0.930 . S
H473 C446 0.931 . S
H474 C448 0.931 . S
H475 C449 0.931 . S
H476 C454 0.930 . S
H477 C455 0.931 . S
H478 C457 0.931 . S
H479 C458 0.931 . S
C480 C481 1.369 . S
C480 C482 1.419 . S
C480 H484 0.930 . S
C481 C480 1.369 . S
C481 C490 1.429 . S
C482 C480 1.419 . S
C482 C483 1.363 . S
C482 H485 0.929 . S
C483 C482 1.363 . S
C483 C489 1.428 . S
H484 C480 0.930 . S
H485 C482 0.929 . S
S486 N487 1.613 . S
S486 N488 1.610 . S
N487 S486 1.613 . S
N487 C490 1.350 . S
N488 S486 1.610 . S
N488 C489 1.351 . S
C489 C483 1.428 . S
C489 N488 1.351 . S
C489 C490 1.434 . S
C490 C481 1.429 . S
C490 N487 1.350 . S
C490 C489 1.434 . S
C491 C492 1.369 . S
C491 C493 1.419 . S
C491 H495 0.930 . S
C492 C491 1.369 . S
C492 C501 1.429 . S
C493 C491 1.419 . S
C493 C494 1.363 . S
C493 H496 0.929 . S
C494 C493 1.363 . S
C494 C500 1.428 . S
H495 C491 0.930 . S
H496 C493 0.929 . S
S497 N498 1.613 . S
S497 N499 1.610 . S
N498 S497 1.613 . S
N498 C501 1.350 1_545 S
N499 S497 1.610 . S
N499 C500 1.351 1_545 S
C500 C494 1.428 . S
C500 N499 1.351 1_565 S
C500 C501 1.434 . S
C501 C492 1.429 . S
C501 N498 1.350 1_565 S
C501 C500 1.434 . S
C502 C503 1.369 . S
C502 C504 1.419 . S
C502 H506 0.930 1_554 S
C503 C502 1.369 . S
C503 C512 1.429 . S
C504 C502 1.419 . S
C504 C505 1.363 . S
C504 H507 0.929 . S
C505 C504 1.363 . S
C505 C511 1.428 . S
H506 C502 0.930 1_556 S
H507 C504 0.929 . S
S508 N509 1.613 . S
S508 N510 1.610 . S
N509 S508 1.613 . S
N509 C512 1.350 . S
N510 S508 1.610 . S
N510 C511 1.351 . S
C511 C505 1.428 . S
C511 N510 1.351 . S
C511 C512 1.434 . S
C512 C503 1.429 . S
C512 N509 1.350 . S
C512 C511 1.434 . S
C513 C514 1.369 . S
C513 C515 1.419 . S
C513 H517 0.930 . S
C514 C513 1.369 . S
C514 C523 1.429 . S
C515 C513 1.419 . S
C515 C516 1.363 . S
C515 H518 0.929 . S
C516 C515 1.363 . S
C516 C522 1.428 . S
H517 C513 0.930 . S
H518 C515 0.929 . S
S519 N520 1.613 . S
S519 N521 1.610 . S
N520 S519 1.613 . S
N520 C523 1.350 1_565 S
N521 S519 1.610 . S
N521 C522 1.351 1_565 S
C522 C516 1.428 . S
C522 N521 1.351 1_545 S
C522 C523 1.434 . S
C523 C514 1.429 . S
C523 N520 1.350 1_545 S
C523 C522 1.434 . S
C524 C525 1.369 . S
C524 C526 1.419 . S
C524 H528 0.930 . S
C525 C524 1.369 . S
C525 C534 1.429 . S
C526 C524 1.419 . S
C526 C527 1.363 . S
C526 H529 0.929 . S
C527 C526 1.363 . S
C527 C533 1.428 . S
H528 C524 0.930 . S
H529 C526 0.929 . S
S530 N531 1.613 . S
S530 N532 1.610 . S
N531 S530 1.613 . S
N531 C534 1.350 . S
N532 S530 1.610 . S
N532 C533 1.351 . S
C533 C527 1.428 . S
C533 N532 1.351 . S
C533 C534 1.434 . S
C534 C525 1.429 . S
C534 N531 1.350 . S
C534 C533 1.434 . S
C535 C536 1.369 . S
C535 C537 1.419 . S
C535 H539 0.930 . S
C536 C535 1.369 . S
C536 C545 1.429 . S
C537 C535 1.419 . S
C537 C538 1.363 . S
C537 H540 0.929 . S
C538 C537 1.363 . S
C538 C544 1.428 . S
H539 C535 0.930 . S
H540 C537 0.929 . S
S541 N542 1.613 . S
S541 N543 1.610 . S
N542 S541 1.613 . S
N542 C545 1.350 . S
N543 S541 1.610 . S
N543 C544 1.351 . S
C544 C538 1.428 . S
C544 N543 1.351 . S
C544 C545 1.434 . S
C545 C536 1.429 . S
C545 N542 1.350 . S
C545 C544 1.434 . S
C546 C547 1.369 . S
C546 C548 1.419 . S
C546 H550 0.930 . S
C547 C546 1.369 . S
C547 C556 1.429 . S
C548 C546 1.419 . S
C548 C549 1.363 . S
C548 H551 0.929 . S
C549 C548 1.363 . S
C549 C555 1.428 . S
H550 C546 0.930 . S
H551 C548 0.929 . S
S552 N553 1.613 1_554 S
S552 N554 1.610 1_554 S
N553 S552 1.613 1_556 S
N553 C556 1.350 . S
N554 S552 1.610 1_556 S
N554 C555 1.351 . S
C555 C549 1.428 . S
C555 N554 1.351 . S
C555 C556 1.434 . S
C556 C547 1.429 . S
C556 N553 1.350 . S
C556 C555 1.434 . S
C557 C558 1.369 . S
C557 C559 1.419 . S
C557 H561 0.930 . S
C558 C557 1.369 . S
C558 C567 1.429 . S
C559 C557 1.419 . S
C559 C560 1.363 . S
C559 H562 0.929 . S
C560 C559 1.363 . S
C560 C566 1.428 . S
H561 C557 0.930 . S
H562 C559 0.929 . S
S563 N564 1.613 . S
S563 N565 1.610 . S
N564 S563 1.613 . S
N564 C567 1.350 . S
N565 S563 1.610 . S
N565 C566 1.351 . S
C566 C560 1.428 . S
C566 N565 1.351 . S
C566 C567 1.434 . S
C567 C558 1.429 . S
C567 N564 1.350 . S
C567 C566 1.434 . S
C568 C569 1.369 . S
C568 C570 1.419 . S
C568 H572 0.930 . S
C569 C568 1.369 . S
C569 C578 1.429 . S
C570 C568 1.419 . S
C570 C571 1.363 . S
C570 H573 0.929 . S
C571 C570 1.363 . S
C571 C577 1.428 . S
H572 C568 0.930 . S
H573 C570 0.929 . S
S574 N575 1.613 . S
S574 N576 1.610 . S
N575 S574 1.613 . S
N575 C578 1.350 . S
N576 S574 1.610 . S
N576 C577 1.351 . S
C577 C571 1.428 . S
C577 N576 1.351 . S
C577 C578 1.434 . S
C578 C569 1.429 . S
C578 N575 1.350 . S
C578 C577 1.434 . S
C579 C580 1.369 . S
C579 C581 1.419 . S
C579 H583 0.930 . S
C580 C579 1.369 . S
C580 C589 1.429 . S
C581 C579 1.419 . S
C581 C582 1.363 . S
C581 H584 0.929 . S
C582 C581 1.363 . S
C582 C588 1.428 . S
H583 C579 0.930 . S
H584 C581 0.929 . S
S585 N586 1.613 . S
S585 N587 1.610 . S
N586 S585 1.613 . S
N586 C589 1.350 . S
N587 S585 1.610 . S
N587 C588 1.351 . S
C588 C582 1.428 . S
C588 N587 1.351 . S
C588 C589 1.434 . S
C589 C580 1.429 . S
C589 N586 1.350 . S
C589 C588 1.434 . S
C590 C591 1.369 . S
C590 C592 1.419 . S
C590 H594 0.930 . S
C591 C590 1.369 . S
C591 C600 1.429 . S
C592 C590 1.419 . S
C592 C593 1.363 . S
C592 H595 0.929 . S
C593 C592 1.363 . S
C593 C599 1.428 . S
H594 C590 0.930 . S
H595 C592 0.929 . S
S596 N597 1.613 . S
S596 N598 1.610 . S
N597 S596 1.613 . S
N597 C600 1.350 . S
N598 S596 1.610 . S
N598 C599 1.351 . S
C599 C593 1.428 . S
C599 N598 1.351 . S
C599 C600 1.434 . S
C600 C591 1.429 . S
C600 N597 1.350 . S
C600 C599 1.434 . S
C601 C602 1.369 . S
C601 C603 1.419 . S
C601 H605 0.930 . S
C602 C601 1.369 . S
C602 C611 1.429 . S
C603 C601 1.419 . S
C603 C604 1.363 . S
C603 H606 0.929 . S
C604 C603 1.363 . S
C604 C610 1.428 . S
H605 C601 0.930 . S
H606 C603 0.929 . S
S607 N608 1.613 . S
S607 N609 1.610 . S
N608 S607 1.613 . S
N608 C611 1.350 . S
N609 S607 1.610 . S
N609 C610 1.351 . S
C610 C604 1.428 . S
C610 N609 1.351 . S
C610 C611 1.434 . S
C611 C602 1.429 . S
C611 N608 1.350 . S
C611 C610 1.434 . S
C612 C613 1.369 . S
C612 C614 1.419 . S
C612 H616 0.930 . S
C613 C612 1.369 . S
C613 C622 1.429 . S
C614 C612 1.419 . S
C614 C615 1.363 . S
C614 H617 0.929 . S
C615 C614 1.363 . S
C615 C621 1.428 . S
H616 C612 0.930 . S
H617 C614 0.929 . S
S618 N619 1.613 . S
S618 N620 1.610 . S
N619 S618 1.613 . S
N619 C622 1.350 . S
N620 S618 1.610 . S
N620 C621 1.351 . S
C621 C615 1.428 . S
C621 N620 1.351 . S
C621 C622 1.434 . S
C622 C613 1.429 . S
C622 N619 1.350 . S
C622 C621 1.434 . S
C623 C624 1.369 . S
C623 C625 1.419 . S
C623 H627 0.930 . S
C624 C623 1.369 . S
C624 C633 1.429 . S
C625 C623 1.419 . S
C625 C626 1.363 . S
C625 H628 0.929 . S
C626 C625 1.363 . S
C626 C632 1.428 . S
H627 C623 0.930 . S
H628 C625 0.929 . S
S629 N630 1.613 . S
S629 N631 1.610 . S
N630 S629 1.613 . S
N630 C633 1.350 . S
N631 S629 1.610 . S
N631 C632 1.351 . S
C632 C626 1.428 . S
C632 N631 1.351 . S
C632 C633 1.434 . S
C633 C624 1.429 . S
C633 N630 1.350 . S
C633 C632 1.434 . S
C634 C635 1.369 . S
C634 C636 1.419 . S
C634 H638 0.930 . S
C635 C634 1.369 . S
C635 C644 1.429 . S
C636 C634 1.419 . S
C636 C637 1.363 . S
C636 H639 0.929 . S
C637 C636 1.363 . S
C637 C643 1.428 . S
H638 C634 0.930 . S
H639 C636 0.929 . S
S640 N641 1.613 . S
S640 N642 1.610 . S
N641 S640 1.613 . S
N641 C644 1.350 . S
N642 S640 1.610 . S
N642 C643 1.351 . S
C643 C637 1.428 . S
C643 N642 1.351 . S
C643 C644 1.434 . S
C644 C635 1.429 . S
C644 N641 1.350 . S
C644 C643 1.434 . S
C645 C646 1.369 . S
C645 C647 1.419 1_554 S
C645 H649 0.930 . S
C646 C645 1.369 . S
C646 C655 1.429 . S
C647 C645 1.419 1_556 S
C647 C648 1.363 . S
C647 H650 0.929 . S
C648 C647 1.363 . S
C648 C654 1.428 . S
H649 C645 0.930 . S
H650 C647 0.929 . S
S651 N652 1.613 1_566 S
S651 N653 1.610 . S
N652 S651 1.613 1_544 S
N652 C655 1.350 . S
N653 S651 1.610 . S
N653 C654 1.351 1_565 S
C654 C648 1.428 . S
C654 N653 1.351 1_545 S
C654 C655 1.434 1_556 S
C655 C646 1.429 . S
C655 N652 1.350 . S
C655 C654 1.434 1_554 S
C656 C657 1.369 . S
C656 C658 1.419 . S
C656 H660 0.930 . S
C657 C656 1.369 . S
C657 C666 1.429 . S
C658 C656 1.419 . S
C658 C659 1.363 . S
C658 H661 0.929 . S
C659 C658 1.363 . S
C659 C665 1.428 . S
H660 C656 0.930 . S
H661 C658 0.929 . S
S662 N663 1.613 . S
S662 N664 1.610 . S
N663 S662 1.613 . S
N663 C666 1.350 . S
N664 S662 1.610 . S
N664 C665 1.351 . S
C665 C659 1.428 . S
C665 N664 1.351 . S
C665 C666 1.434 . S
C666 C657 1.429 . S
C666 N663 1.350 . S
C666 C665 1.434 . S
C667 C668 1.369 1_556 S
C667 C669 1.419 . S
C667 H671 0.930 1_556 S
C668 C667 1.369 1_554 S
C668 C677 1.429 1_554 S
C669 C667 1.419 . S
C669 C670 1.363 . S
C669 H672 0.929 . S
C670 C669 1.363 . S
C670 C676 1.428 . S
H671 C667 0.930 1_554 S
H672 C669 0.929 . S
S673 N674 1.613 . S
S673 N675 1.610 . S
N674 S673 1.613 . S
N674 C677 1.350 . S
N675 S673 1.610 . S
N675 C676 1.351 . S
C676 C670 1.428 . S
C676 N675 1.351 . S
C676 C677 1.434 . S
C677 C668 1.429 1_556 S
C677 N674 1.350 . S
C677 C676 1.434 . S
C678 C679 1.369 . S
C678 C680 1.419 . S
C678 H682 0.930 . S
C679 C678 1.369 . S
C679 C688 1.429 . S
C680 C678 1.419 . S
C680 C681 1.363 . S
C680 H683 0.929 . S
C681 C680 1.363 . S
C681 C687 1.428 . S
H682 C678 0.930 . S
H683 C680 0.929 . S
S684 N685 1.613 . S
S684 N686 1.610 . S
N685 S684 1.613 . S
N685 C688 1.350 . S
N686 S684 1.610 . S
N686 C687 1.351 . S
C687 C681 1.428 . S
C687 N686 1.351 . S
C687 C688 1.434 . S
C688 C679 1.429 . S
C688 N685 1.350 . S
C688 C687 1.434 . S
C689 C690 1.369 . S
C689 C691 1.419 . S
C689 H693 0.930 . S
C690 C689 1.369 . S
C690 C699 1.429 . S
C691 C689 1.419 . S
C691 C692 1.363 . S
C691 H694 0.929 . S
C692 C691 1.363 . S
C692 C698 1.428 . S
H693 C689 0.930 . S
H694 C691 0.929 . S
S695 N696 1.613 . S
S695 N697 1.610 . S
N696 S695 1.613 . S
N696 C699 1.350 . S
N697 S695 1.610 . S
N697 C698 1.351 . S
C698 C692 1.428 . S
C698 N697 1.351 . S
C698 C699 1.434 . S
C699 C690 1.429 . S
C699 N696 1.350 . S
C699 C698 1.434 . S
C700 C701 1.369 . S
C700 C702 1.419 . S
C700 H704 0.930 . S
C701 C700 1.369 . S
C701 C710 1.429 . S
C702 C700 1.419 . S
C702 C703 1.363 . S
C702 H705 0.929 . S
C703 C702 1.363 . S
C703 C709 1.428 . S
H704 C700 0.930 . S
H705 C702 0.929 . S
S706 N707 1.613 . S
S706 N708 1.610 . S
N707 S706 1.613 . S
N707 C710 1.350 . S
N708 S706 1.610 . S
N708 C709 1.351 . S
C709 C703 1.428 . S
C709 N708 1.351 . S
C709 C710 1.434 . S
C710 C701 1.429 . S
C710 N707 1.350 . S
C710 C709 1.434 . S
C711 C712 1.369 . S
C711 C713 1.419 1_545 S
C711 H715 0.930 . S
C712 C711 1.369 . S
C712 C721 1.429 . S
C713 C711 1.419 1_565 S
C713 C714 1.363 . S
C713 H716 0.929 . S
C714 C713 1.363 . S
C714 C720 1.428 . S
H715 C711 0.930 . S
H716 C713 0.929 . S
S717 N718 1.613 1_565 S
S717 N719 1.610 . S
N718 S717 1.613 1_545 S
N718 C721 1.350 . S
N719 S717 1.610 . S
N719 C720 1.351 . S
C720 C714 1.428 . S
C720 N719 1.351 . S
C720 C721 1.434 1_565 S
C721 C712 1.429 . S
C721 N718 1.350 . S
C721 C720 1.434 1_545 S
C722 C723 1.369 . S
C722 C724 1.419 . S
C722 H726 0.930 . S
C723 C722 1.369 . S
C723 C732 1.429 . S
C724 C722 1.419 . S
C724 C725 1.363 . S
C724 H727 0.929 . S
C725 C724 1.363 . S
C725 C731 1.428 . S
H726 C722 0.930 . S
H727 C724 0.929 . S
S728 N729 1.613 . S
S728 N730 1.610 . S
N729 S728 1.613 . S
N729 C732 1.350 . S
N730 S728 1.610 . S
N730 C731 1.351 . S
C731 C725 1.428 . S
C731 N730 1.351 . S
C731 C732 1.434 . S
C732 C723 1.429 . S
C732 N729 1.350 . S
C732 C731 1.434 . S
C733 C734 1.369 . S
C733 C735 1.419 1_545 S
C733 H737 0.930 . S
C734 C733 1.369 . S
C734 C743 1.429 1_545 S
C735 C733 1.419 1_565 S
C735 C736 1.363 . S
C735 H738 0.928 1_565 S
C736 C735 1.363 . S
C736 C742 1.428 . S
H737 C733 0.930 . S
H738 C735 0.928 1_545 S
S739 N740 1.613 . S
S739 N741 1.610 . S
N740 S739 1.613 . S
N740 C743 1.350 . S
N741 S739 1.610 . S
N741 C742 1.351 . S
C742 C736 1.428 . S
C742 N741 1.351 . S
C742 C743 1.434 . S
C743 C734 1.429 1_565 S
C743 N740 1.350 . S
C743 C742 1.434 . S
C744 C745 1.369 . S
C744 C746 1.419 . S
C744 H748 0.930 . S
C745 C744 1.369 . S
C745 C754 1.429 . S
C746 C744 1.419 . S
C746 C747 1.363 . S
C746 H749 0.929 . S
C747 C746 1.363 . S
C747 C753 1.428 . S
H748 C744 0.930 . S
H749 C746 0.929 . S
S750 N751 1.613 . S
S750 N752 1.610 . S
N751 S750 1.613 . S
N751 C754 1.350 . S
N752 S750 1.610 . S
N752 C753 1.351 . S
C753 C747 1.428 . S
C753 N752 1.351 . S
C753 C754 1.434 . S
C754 C745 1.429 . S
C754 N751 1.350 . S
C754 C753 1.434 . S
C755 C756 1.369 . S
C755 C757 1.419 . S
C755 H759 0.930 . S
C756 C755 1.369 . S
C756 C765 1.429 . S
C757 C755 1.419 . S
C757 C758 1.363 . S
C757 H760 0.929 . S
C758 C757 1.363 . S
C758 C764 1.428 . S
H759 C755 0.930 . S
H760 C757 0.929 . S
S761 N762 1.613 . S
S761 N763 1.610 . S
N762 S761 1.613 . S
N762 C765 1.350 . S
N763 S761 1.610 . S
N763 C764 1.351 . S
C764 C758 1.428 . S
C764 N763 1.351 . S
C764 C765 1.434 . S
C765 C756 1.429 . S
C765 N762 1.350 . S
C765 C764 1.434 . S
C766 C767 1.369 . S
C766 C768 1.419 . S
C766 H770 0.930 . S
C767 C766 1.369 . S
C767 C776 1.429 . S
C768 C766 1.419 . S
C768 C769 1.363 . S
C768 H771 0.929 . S
C769 C768 1.363 . S
C769 C775 1.428 . S
H770 C766 0.930 . S
H771 C768 0.929 . S
S772 N773 1.613 . S
S772 N774 1.610 . S
N773 S772 1.613 . S
N773 C776 1.350 . S
N774 S772 1.610 . S
N774 C775 1.351 . S
C775 C769 1.428 . S
C775 N774 1.351 . S
C775 C776 1.434 . S
C776 C767 1.429 . S
C776 N773 1.350 . S
C776 C775 1.434 . S
C777 C778 1.369 . S
C777 C779 1.419 . S
C777 H781 0.930 . S
C778 C777 1.369 . S
C778 C787 1.429 . S
C779 C777 1.419 . S
C779 C780 1.363 . S
C779 H782 0.929 . S
C780 C779 1.363 . S
C780 C786 1.428 . S
H781 C777 0.930 . S
H782 C779 0.929 . S
S783 N784 1.613 . S
S783 N785 1.610 . S
N784 S783 1.613 . S
N784 C787 1.350 . S
N785 S783 1.610 . S
N785 C786 1.351 . S
C786 C780 1.428 . S
C786 N785 1.351 . S
C786 C787 1.434 . S
C787 C778 1.429 . S
C787 N784 1.350 . S
C787 C786 1.434 . S
C788 C789 1.369 . S
C788 C790 1.419 . S
C788 H792 0.930 . S
C789 C788 1.369 . S
C789 C798 1.429 . S
C790 C788 1.419 . S
C790 C791 1.363 . S
C790 H793 0.929 . S
C791 C790 1.363 . S
C791 C797 1.428 . S
H792 C788 0.930 . S
H793 C790 0.929 . S
S794 N795 1.613 . S
S794 N796 1.610 . S
N795 S794 1.613 . S
N795 C798 1.350 . S
N796 S794 1.610 . S
N796 C797 1.351 . S
C797 C791 1.428 . S
C797 N796 1.351 . S
C797 C798 1.434 . S
C798 C789 1.429 . S
C798 N795 1.350 . S
C798 C797 1.434 . S
C799 C800 1.369 . S
C799 C801 1.419 . S
C799 H803 0.930 . S
C800 C799 1.369 . S
C800 C809 1.429 . S
C801 C799 1.419 . S
C801 C802 1.363 . S
C801 H804 0.929 . S
C802 C801 1.363 . S
C802 C808 1.428 . S
H803 C799 0.930 . S
H804 C801 0.929 . S
S805 N806 1.613 . S
S805 N807 1.610 . S
N806 S805 1.613 . S
N806 C809 1.350 . S
N807 S805 1.610 . S
N807 C808 1.351 . S
C808 C802 1.428 . S
C808 N807 1.351 . S
C808 C809 1.434 . S
C809 C800 1.429 . S
C809 N806 1.350 . S
C809 C808 1.434 . S
C810 C811 1.369 . S
C810 C812 1.419 1_455 S
C810 H814 0.930 . S
C811 C810 1.369 . S
C811 C820 1.429 . S
C812 C810 1.419 1_655 S
C812 C813 1.363 . S
C812 H815 0.929 . S
C813 C812 1.363 . S
C813 C819 1.428 . S
H814 C810 0.930 . S
H815 C812 0.929 . S
S816 N817 1.613 . S
S816 N818 1.610 1_455 S
N817 S816 1.613 . S
N817 C820 1.350 1_556 S
N818 S816 1.610 1_655 S
N818 C819 1.351 1_556 S
C819 C813 1.428 . S
C819 N818 1.351 1_554 S
C819 C820 1.434 1_655 S
C820 C811 1.429 . S
C820 N817 1.350 1_554 S
C820 C819 1.434 1_455 S
C821 C822 1.369 . S
C821 C823 1.419 . S
C821 H825 0.930 . S
C822 C821 1.369 . S
C822 C831 1.429 . S
C823 C821 1.419 . S
C823 C824 1.363 . S
C823 H826 0.929 . S
C824 C823 1.363 . S
C824 C830 1.428 . S
H825 C821 0.930 . S
H826 C823 0.929 . S
S827 N828 1.613 . S
S827 N829 1.610 . S
N828 S827 1.613 . S
N828 C831 1.350 . S
N829 S827 1.610 . S
N829 C830 1.351 . S
C830 C824 1.428 . S
C830 N829 1.351 . S
C830 C831 1.434 . S
C831 C822 1.429 . S
C831 N828 1.350 . S
C831 C830 1.434 . S
C832 C833 1.369 . S
C832 C834 1.419 . S
C832 H836 0.930 . S
C833 C832 1.369 . S
C833 C842 1.429 . S
C834 C832 1.419 . S
C834 C835 1.363 . S
C834 H837 0.929 . S
C835 C834 1.363 . S
C835 C841 1.428 . S
H836 C832 0.930 . S
H837 C834 0.929 . S
S838 N839 1.613 . S
S838 N840 1.610 . S
N839 S838 1.613 . S
N839 C842 1.350 . S
N840 S838 1.610 . S
N840 C841 1.351 . S
C841 C835 1.428 . S
C841 N840 1.351 . S
C841 C842 1.434 . S
C842 C833 1.429 . S
C842 N839 1.350 . S
C842 C841 1.434 . S
C843 C844 1.369 . S
C843 C845 1.419 . S
C843 H847 0.930 . S
C844 C843 1.369 . S
C844 C853 1.429 . S
C845 C843 1.419 . S
C845 C846 1.363 . S
C845 H848 0.929 . S
C846 C845 1.363 . S
C846 C852 1.428 . S
H847 C843 0.930 . S
H848 C845 0.929 . S
S849 N850 1.613 . S
S849 N851 1.610 . S
N850 S849 1.613 . S
N850 C853 1.350 1_655 S
N851 S849 1.610 . S
N851 C852 1.351 1_655 S
C852 C846 1.428 . S
C852 N851 1.351 1_455 S
C852 C853 1.434 . S
C853 C844 1.429 . S
C853 N850 1.350 1_455 S
C853 C852 1.434 . S
C854 C855 1.369 . S
C854 C856 1.419 . S
C854 H858 0.930 . S
C855 C854 1.369 . S
C855 C864 1.429 . S
C856 C854 1.419 . S
C856 C857 1.363 . S
C856 H859 0.929 . S
C857 C856 1.363 . S
C857 C863 1.428 . S
H858 C854 0.930 . S
H859 C856 0.929 . S
S860 N861 1.613 . S
S860 N862 1.610 . S
N861 S860 1.613 . S
N861 C864 1.350 . S
N862 S860 1.610 . S
N862 C863 1.351 . S
C863 C857 1.428 . S
C863 N862 1.351 . S
C863 C864 1.434 . S
C864 C855 1.429 . S
C864 N861 1.350 . S
C864 C863 1.434 . S
C865 C866 1.369 . S
C865 C867 1.419 . S
C865 H869 0.930 . S
C866 C865 1.369 . S
C866 C875 1.429 . S
C867 C865 1.419 . S
C867 C868 1.363 . S
C867 H870 0.929 . S
C868 C867 1.363 . S
C868 C874 1.428 . S
H869 C865 0.930 . S
H870 C867 0.929 . S
S871 N872 1.613 . S
S871 N873 1.610 1_655 S
N872 S871 1.613 . S
N872 C875 1.350 . S
N873 S871 1.610 1_455 S
N873 C874 1.351 1_455 S
C874 C868 1.428 . S
C874 N873 1.351 1_655 S
C874 C875 1.434 . S
C875 C866 1.429 . S
C875 N872 1.350 . S
C875 C874 1.434 . S
C481 C11 1.380 . S
C483 C459 1.429 . S
C492 C371 1.875 . S
C494 C59 1.980 . S
C503 C91 1.433 . S
C505 C339 1.517 . S
C514 C139 2.171 . S
C516 C419 2.165 . S
C525 C179 1.874 . S
C527 C411 1.782 . S
C536 C211 1.566 . S
C538 C451 1.586 . S
C547 C379 2.078 . S
C549 C259 2.079 . S
C558 C291 1.637 . S
C560 C331 1.687 . S
C569 C131 1.647 . S
C571 C171 1.670 . S
C580 C19 1.873 . S
C582 C219 1.872 . S
C591 C51 1.657 . S
C593 C251 1.689 . S
C602 C299 1.940 . S
C604 C99 1.945 . S
C613 C16 2.204 . S
C615 C330 2.202 . S
C624 C47 1.390 . S
C626 C410 1.336 . S
C635 C450 2.129 . S
C637 C96 2.116 . S
C646 C127 1.607 . S
C648 C362 1.587 . S
C657 C167 1.273 . S
C659 C370 1.228 . S
C668 C322 2.387 . S
C670 C216 2.222 . S
C679 C402 1.479 . S
C681 C247 1.499 . S
C690 C442 2.317 . S
C692 C296 2.172 . S
C701 C10 2.499 . S
C703 C136 2.492 . S
C712 C7 1.750 . S
C714 C42 1.725 . S
C723 C56 2.274 . S
C725 C90 2.283 . S
C734 C122 1.624 . S
C736 C87 1.648 . S
C745 C207 1.604 . S
C747 C162 1.556 . S
C756 C210 1.597 . S
C758 C256 1.620 . S
C767 C242 1.496 . S
C769 C287 1.521 . S
C778 C176 1.434 . S
C780 C290 1.435 . S
C789 C336 1.801 . S
C791 C130 1.767 . S
C800 C202 2.297 . S
C802 C376 2.168 . S
C811 C327 1.539 . S
C813 C250 1.432 . S
C822 C407 1.790 . S
C824 C282 1.753 . S
C833 C170 1.377 . S
C835 C447 1.461 . S
C844 C456 1.691 . S
C846 C50 1.657 . S
C855 C82 1.649 . S
C857 C367 1.669 . S
C866 C416 2.076 . S
C868 C2 2.227 1_655 S
