# Generated by pormake.
# Topology acs-a, (4)-cn, num edge types: 1
# Building blocks:
#     Node 0, Type 0, BuildingBlock: UXUYUI_clean_sbu_0, # of connection points: 4
#     Node 1, Type 0, BuildingBlock: UXUYUI_clean_sbu_0, # of connection points: 4
#     Node 2, Type 0, BuildingBlock: UXUYUI_clean_sbu_0, # of connection points: 4
#     Node 3, Type 0, BuildingBlock: UXUYUI_clean_sbu_0, # of connection points: 4
#     Node 4, Type 0, BuildingBlock: UXUYUI_clean_sbu_0, # of connection points: 4
#     Node 5, Type 0, BuildingBlock: UXUYUI_clean_sbu_0, # of connection points: 4
#     Node 6, Type 0, BuildingBlock: UXUYUI_clean_sbu_0, # of connection points: 4
#     Node 7, Type 0, BuildingBlock: UXUYUI_clean_sbu_0, # of connection points: 4
#     Node 8, Type 0, BuildingBlock: UXUYUI_clean_sbu_0, # of connection points: 4
#     Node 9, Type 0, BuildingBlock: UXUYUI_clean_sbu_0, # of connection points: 4
#     Node 10, Type 0, BuildingBlock: UXUYUI_clean_sbu_0, # of connection points: 4
#     Node 11, Type 0, BuildingBlock: UXUYUI_clean_sbu_0, # of connection points: 4
#     Edge 12, Type (0, 0), BuildingBlock: MIFKUJ_clean_linker_0, # of connection points: 2
#     Edge 13, Type (0, 0), BuildingBlock: MIFKUJ_clean_linker_0, # of connection points: 2
#     Edge 14, Type (0, 0), BuildingBlock: MIFKUJ_clean_linker_0, # of connection points: 2
#     Edge 15, Type (0, 0), BuildingBlock: MIFKUJ_clean_linker_0, # of connection points: 2
#     Edge 16, Type (0, 0), BuildingBlock: MIFKUJ_clean_linker_0, # of connection points: 2
#     Edge 17, Type (0, 0), BuildingBlock: MIFKUJ_clean_linker_0, # of connection points: 2
#     Edge 18, Type (0, 0), BuildingBlock: MIFKUJ_clean_linker_0, # of connection points: 2
#     Edge 19, Type (0, 0), BuildingBlock: MIFKUJ_clean_linker_0, # of connection points: 2
#     Edge 20, Type (0, 0), BuildingBlock: MIFKUJ_clean_linker_0, # of connection points: 2
#     Edge 21, Type (0, 0), BuildingBlock: MIFKUJ_clean_linker_0, # of connection points: 2
#     Edge 22, Type (0, 0), BuildingBlock: MIFKUJ_clean_linker_0, # of connection points: 2
#     Edge 23, Type (0, 0), BuildingBlock: MIFKUJ_clean_linker_0, # of connection points: 2
#     Edge 24, Type (0, 0), BuildingBlock: MIFKUJ_clean_linker_0, # of connection points: 2
#     Edge 25, Type (0, 0), BuildingBlock: MIFKUJ_clean_linker_0, # of connection points: 2
#     Edge 26, Type (0, 0), BuildingBlock: MIFKUJ_clean_linker_0, # of connection points: 2
#     Edge 27, Type (0, 0), BuildingBlock: MIFKUJ_clean_linker_0, # of connection points: 2
#     Edge 28, Type (0, 0), BuildingBlock: MIFKUJ_clean_linker_0, # of connection points: 2
#     Edge 29, Type (0, 0), BuildingBlock: MIFKUJ_clean_linker_0, # of connection points: 2
#     Edge 30, Type (0, 0), BuildingBlock: MIFKUJ_clean_linker_0, # of connection points: 2
#     Edge 31, Type (0, 0), BuildingBlock: MIFKUJ_clean_linker_0, # of connection points: 2
#     Edge 32, Type (0, 0), BuildingBlock: MIFKUJ_clean_linker_0, # of connection points: 2
#     Edge 33, Type (0, 0), BuildingBlock: MIFKUJ_clean_linker_0, # of connection points: 2
#     Edge 34, Type (0, 0), BuildingBlock: MIFKUJ_clean_linker_0, # of connection points: 2
#     Edge 35, Type (0, 0), BuildingBlock: MIFKUJ_clean_linker_0, # of connection points: 2
# Relax obj value: 0.500
# Max RMSD: 0.243
# Mean RMSD: 0.227
data_MOF--net-acs-a--node1-UXUYUI_clean_sbu_0--edge1-MIFKUJ_clean_linker_0
_symmetry_space_group_name_H-M    P1
_symmetry_Int_Tables_number       1
_symmetry_cell_setting            triclinic
loop_
_symmetry_equiv_pos_as_xyz
'x, y, z'
_cell_length_a     67.73351
_cell_length_b     83.166083
_cell_length_c     81.785932
_cell_angle_alpha  90.042005
_cell_angle_beta   90.020474
_cell_angle_gamma 111.13842
loop_
_atom_site_label
_atom_site_type_symbol
_atom_site_fract_x
_atom_site_fract_y
_atom_site_fract_z
_atom_type_partial_charge
Li0 Li 0.58248 0.13138 0.08204 0.0
Li1 Li 0.61883 0.13483 0.08615 0.0
Li2 Li 0.59519 0.10807 0.07625 0.0
Li3 Li 0.59293 0.11694 0.10516 0.0
C4 C 0.60697 0.14433 0.05507 0.0
N5 N 0.61427 0.17231 0.03462 0.0
C6 C 0.61441 0.16104 0.06145 0.0
C7 C 0.60328 0.14184 0.03828 0.0
C8 C 0.61801 0.17502 0.05092 0.0
C9 C 0.60705 0.15615 0.02814 0.0
C10 C 0.6107 0.15534 0.11132 0.0
C11 C 0.6302 0.16649 0.13609 0.0
N12 N 0.63063 0.18251 0.13221 0.0
C13 C 0.61112 0.17188 0.10768 0.0
C14 C 0.62013 0.15258 0.12573 0.0
C15 C 0.62137 0.18546 0.11835 0.0
C16 C 0.55699 0.1506 0.08815 0.0
N17 N 0.56299 0.14206 0.07614 0.0
C18 C 0.541 0.14918 0.05676 0.0
C19 C 0.55532 0.14118 0.06066 0.0
C20 C 0.53463 0.15827 0.0689 0.0
C21 C 0.54287 0.15891 0.08478 0.0
H22 H 0.56331 0.15105 0.10035 0.0
H23 H 0.56029 0.13426 0.05132 0.0
C24 C 0.6561 0.1481 0.06833 0.0
N25 N 0.64803 0.1489 0.0834 0.0
C26 C 0.67774 0.15577 0.06543 0.0
C27 C 0.68259 0.16492 0.09367 0.0
C28 C 0.66078 0.15715 0.09599 0.0
C29 C 0.69134 0.16415 0.07825 0.0
H30 H 0.64582 0.14091 0.05865 0.0
H31 H 0.65429 0.15703 0.10802 0.0
C32 C 0.55109 0.09862 0.08036 0.0
N33 N 0.51452 0.08171 0.06289 0.0
C34 C 0.53237 0.08927 0.08855 0.0
C35 C 0.55121 0.09939 0.06328 0.0
C36 C 0.51403 0.08082 0.0795 0.0
C37 C 0.53257 0.09074 0.05467 0.0
C38 C 0.63585 0.11247 0.09639 0.0
C39 C 0.64722 0.1093 0.08332 0.0
C40 C 0.64565 0.11718 0.11161 0.0
C41 C 0.6684 0.11123 0.0856 0.0
C42 C 0.66684 0.11893 0.11341 0.0
N43 N 0.6777 0.11599 0.10047 0.0
C44 C 0.60399 0.09324 0.04812 0.0
C45 C 0.58026 0.07343 0.06642 0.0
C46 C 0.60134 0.08022 0.03668 0.0
N47 N 0.59312 0.08966 0.06243 0.0
C48 C 0.57703 0.06003 0.05531 0.0
C49 C 0.58727 0.06345 0.04005 0.0
H50 H 0.61422 0.10633 0.04543 0.0
H51 H 0.57185 0.07108 0.07794 0.0
C52 C 0.57735 0.11736 0.13679 0.0
N53 N 0.58688 0.10928 0.12684 0.0
C54 C 0.57487 0.11331 0.15338 0.0
C55 C 0.591 0.09202 0.14892 0.0
C56 C 0.59329 0.09658 0.13242 0.0
C57 C 0.58211 0.10071 0.15971 0.0
H58 H 0.57249 0.12745 0.13194 0.0
H59 H 0.60072 0.09034 0.12414 0.0
O60 O 0.60295 0.1304 0.06515 0.0
O61 O 0.60022 0.14181 0.10121 0.0
O62 O 0.56924 0.10668 0.08909 0.0
O63 O 0.61532 0.11119 0.09424 0.0
H64 H 0.61747 0.16318 0.07437 0.0
H65 H 0.59742 0.12896 0.03317 0.0
H66 H 0.62377 0.18803 0.05571 0.0
H67 H 0.60421 0.15441 0.01513 0.0
H68 H 0.6377 0.16455 0.14721 0.0
H69 H 0.60348 0.17421 0.09679 0.0
H70 H 0.61995 0.1399 0.1288 0.0
H71 H 0.62187 0.19833 0.11565 0.0
H72 H 0.53492 0.14817 0.04441 0.0
H73 H 0.53879 0.16601 0.09447 0.0
H74 H 0.68374 0.15501 0.0533 0.0
H75 H 0.69253 0.17098 0.10398 0.0
H76 H 0.53204 0.08852 0.10177 0.0
H77 H 0.56553 0.10652 0.05671 0.0
H78 H 0.49943 0.07353 0.08569 0.0
H79 H 0.53246 0.09119 0.04146 0.0
H80 H 0.63988 0.10567 0.07146 0.0
H81 H 0.63707 0.11963 0.12186 0.0
H82 H 0.67747 0.10902 0.07554 0.0
H83 H 0.67468 0.1227 0.12508 0.0
H84 H 0.60961 0.08334 0.02511 0.0
H85 H 0.56572 0.04737 0.05827 0.0
H86 H 0.56822 0.12053 0.16126 0.0
H87 H 0.5965 0.08206 0.15323 0.0
Li88 Li 0.51258 0.64309 0.5908 0.0
Li89 Li 0.50835 0.62128 0.61196 0.0
Li90 Li 0.50783 0.61417 0.58319 0.0
Li91 Li 0.47824 0.62019 0.59548 0.0
C92 C 0.54817 0.62629 0.59094 0.0
N93 N 0.58058 0.61613 0.58028 0.0
C94 C 0.55662 0.61709 0.60135 0.0
C95 C 0.5563 0.63043 0.57515 0.0
C96 C 0.57299 0.61206 0.59573 0.0
C97 C 0.57264 0.62513 0.56997 0.0
C98 C 0.49551 0.64385 0.62642 0.0
C99 C 0.48329 0.63896 0.65433 0.0
N100 N 0.49908 0.65377 0.65888 0.0
C101 C 0.51164 0.65902 0.63138 0.0
C102 C 0.48119 0.63374 0.63798 0.0
C103 C 0.51315 0.66383 0.64784 0.0
C104 C 0.51307 0.67634 0.59128 0.0
N105 N 0.52416 0.6669 0.58531 0.0
C106 C 0.54645 0.69104 0.56986 0.0
C107 C 0.5408 0.67389 0.57496 0.0
C108 C 0.53514 0.70096 0.57589 0.0
C109 C 0.51848 0.69353 0.58687 0.0
H110 H 0.49951 0.67034 0.59907 0.0
H111 H 0.54909 0.66599 0.57015 0.0
C112 C 0.50528 0.60226 0.64096 0.0
N113 N 0.51666 0.61721 0.6333 0.0
C114 C 0.50879 0.6 0.65745 0.0
C115 C 0.53651 0.62818 0.65761 0.0
C116 C 0.53258 0.62981 0.64105 0.0
C117 C 0.5241 0.6133 0.66615 0.0
H118 H 0.493 0.59231 0.63442 0.0
H119 H 0.54153 0.6415 0.63456 0.0
C120 C 0.49168 0.64046 0.56355 0.0
N121 N 0.49128 0.66667 0.54296 0.0
C122 C 0.47674 0.64828 0.56576 0.0
C123 C 0.50636 0.64591 0.55082 0.0
C124 C 0.47681 0.66151 0.55523 0.0
C125 C 0.50591 0.6592 0.54055 0.0
C126 C 0.46976 0.58727 0.60055 0.0
C127 C 0.46437 0.57616 0.58708 0.0
C128 C 0.45568 0.58442 0.61367 0.0
C129 C 0.44494 0.56243 0.58694 0.0
C130 C 0.43638 0.57058 0.61305 0.0
N131 N 0.43145 0.55996 0.59981 0.0
C132 C 0.52091 0.58704 0.57485 0.0
C133 C 0.50964 0.59937 0.55222 0.0
C134 C 0.52294 0.57409 0.56496 0.0
N135 N 0.51417 0.59921 0.56839 0.0
C136 C 0.51138 0.58659 0.54187 0.0
C137 C 0.51765 0.5735 0.54831 0.0
H138 H 0.52386 0.58701 0.58784 0.0
H139 H 0.50372 0.6089 0.54752 0.0
C140 C 0.43994 0.62364 0.60499 0.0
N141 N 0.44854 0.61529 0.59453 0.0
C142 C 0.41857 0.62141 0.6038 0.0
C143 C 0.41521 0.60194 0.58111 0.0
C144 C 0.43673 0.60466 0.58267 0.0
C145 C 0.40596 0.61056 0.59165 0.0
H146 H 0.44977 0.63241 0.61398 0.0
H147 H 0.44413 0.5986 0.57419 0.0
O148 O 0.532 0.63116 0.59617 0.0
O149 O 0.49403 0.63871 0.6104 0.0
O150 O 0.49238 0.62794 0.57413 0.0
O151 O 0.4886 0.60094 0.60085 0.0
H152 H 0.55049 0.61377 0.61361 0.0
H153 H 0.54979 0.63738 0.56689 0.0
H154 H 0.57963 0.60488 0.60363 0.0
H155 H 0.57897 0.62811 0.55774 0.0
H156 H 0.47241 0.63119 0.66341 0.0
H157 H 0.52311 0.66686 0.62269 0.0
H158 H 0.46875 0.62188 0.63441 0.0
H159 H 0.52561 0.67549 0.65186 0.0
H160 H 0.55918 0.69639 0.56116 0.0
H161 H 0.50912 0.70074 0.59142 0.0
H162 H 0.4992 0.58814 0.66344 0.0
H163 H 0.54838 0.63882 0.6638 0.0
H164 H 0.46542 0.64437 0.57565 0.0
H165 H 0.51825 0.6402 0.54909 0.0
H166 H 0.46543 0.66774 0.55687 0.0
H167 H 0.51728 0.66365 0.53074 0.0
H168 H 0.47492 0.57816 0.57675 0.0
H169 H 0.45948 0.59293 0.62414 0.0
H170 H 0.44054 0.55378 0.57657 0.0
H171 H 0.4253 0.5683 0.62307 0.0
H172 H 0.52801 0.56435 0.57039 0.0
H173 H 0.5068 0.58646 0.52916 0.0
H174 H 0.41203 0.62824 0.61221 0.0
H175 H 0.40611 0.59368 0.57143 0.0
Li176 Li 0.86662 0.37336 0.08423 0.0
Li177 Li 0.89171 0.36803 0.10438 0.0
Li178 Li 0.90451 0.3822 0.0778 0.0
Li179 Li 0.88313 0.35284 0.07895 0.0
C180 C 0.89105 0.4041 0.10472 0.0
N181 N 0.89092 0.43213 0.12288 0.0
C182 C 0.88339 0.40185 0.12076 0.0
C183 C 0.8987 0.42066 0.09795 0.0
C184 C 0.88343 0.41617 0.12972 0.0
C185 C 0.89848 0.43465 0.10732 0.0
C186 C 0.84988 0.33572 0.09627 0.0
C187 C 0.8397 0.30598 0.10452 0.0
N188 N 0.82385 0.30152 0.09326 0.0
C189 C 0.83342 0.33085 0.08485 0.0
C190 C 0.85303 0.3232 0.10623 0.0
C191 C 0.82047 0.31349 0.08348 0.0
C192 C 0.8288 0.37321 0.06904 0.0
N193 N 0.84155 0.37884 0.08231 0.0
C194 C 0.8181 0.39167 0.09343 0.0
C195 C 0.8365 0.38788 0.09441 0.0
C196 C 0.80442 0.38583 0.08 0.0
C197 C 0.81007 0.37654 0.06764 0.0
H198 H 0.833 0.36586 0.05964 0.0
H199 H 0.84656 0.39196 0.10496 0.0
C200 C 0.91766 0.37809 0.13221 0.0
N201 N 0.89825 0.36782 0.12674 0.0
C202 C 0.92237 0.37878 0.14889 0.0
C203 C 0.88713 0.35812 0.15381 0.0
C204 C 0.88303 0.35799 0.13711 0.0
C205 C 0.90697 0.36867 0.15987 0.0
H206 H 0.92933 0.3859 0.12363 0.0
H207 H 0.86755 0.35035 0.13245 0.0
C208 C 0.87744 0.3809 0.05177 0.0
N209 N 0.8733 0.40336 0.02828 0.0
C210 C 0.87462 0.37591 0.03536 0.0
C211 C 0.87815 0.39733 0.05622 0.0
C212 C 0.87256 0.38744 0.02366 0.0
C213 C 0.87602 0.40849 0.04418 0.0
C214 C 0.92707 0.36047 0.08019 0.0
C215 C 0.92521 0.35798 0.06327 0.0
C216 C 0.94494 0.3598 0.08827 0.0
C217 C 0.94132 0.35489 0.0547 0.0
C218 C 0.96071 0.35667 0.07926 0.0
N219 N 0.95859 0.35431 0.0628 0.0
C220 C 0.93976 0.4132 0.0763 0.0
C221 C 0.92987 0.39826 0.05113 0.0
C222 C 0.95443 0.4273 0.06835 0.0
N223 N 0.92734 0.39938 0.06751 0.0
C224 C 0.94436 0.41197 0.04271 0.0
C225 C 0.95636 0.42696 0.05126 0.0
H226 H 0.93758 0.41357 0.08938 0.0
H227 H 0.91997 0.38704 0.04446 0.0
C228 C 0.86812 0.3271 0.05491 0.0
N229 N 0.87842 0.331 0.06944 0.0
C230 C 0.86191 0.3104 0.04869 0.0
C231 C 0.87782 0.3023 0.07224 0.0
C232 C 0.88412 0.31926 0.07781 0.0
C233 C 0.86591 0.29753 0.05775 0.0
H234 H 0.86393 0.33678 0.0485 0.0
H235 H 0.89245 0.32283 0.08931 0.0
O236 O 0.89156 0.39027 0.09584 0.0
O237 O 0.86313 0.35259 0.0974 0.0
O238 O 0.87982 0.36977 0.06328 0.0
O239 O 0.91156 0.36353 0.08892 0.0
H240 H 0.87708 0.38916 0.12615 0.0
H241 H 0.90478 0.42275 0.0856 0.0
H242 H 0.87744 0.41457 0.14211 0.0
H243 H 0.90435 0.44751 0.10222 0.0
H244 H 0.84207 0.29614 0.11206 0.0
H245 H 0.83088 0.34032 0.07694 0.0
H246 H 0.86591 0.32666 0.11495 0.0
H247 H 0.80778 0.30953 0.0746 0.0
H248 H 0.81462 0.39907 0.10317 0.0
H249 H 0.79989 0.37148 0.05719 0.0
H250 H 0.93784 0.38707 0.15315 0.0
H251 H 0.87472 0.3504 0.16195 0.0
H252 H 0.87418 0.36329 0.03166 0.0
H253 H 0.88018 0.40139 0.06882 0.0
H254 H 0.87041 0.38375 0.01091 0.0
H255 H 0.87652 0.42123 0.04749 0.0
H256 H 0.9115 0.35842 0.05681 0.0
H257 H 0.94659 0.36169 0.10137 0.0
H258 H 0.94009 0.35296 0.0416 0.0
H259 H 0.97463 0.35613 0.08535 0.0
H260 H 0.9636 0.43856 0.07538 0.0
H261 H 0.94518 0.41123 0.02952 0.0
H262 H 0.85323 0.30746 0.03728 0.0
H263 H 0.88108 0.29287 0.07979 0.0
Li264 Li 0.40966 0.88911 0.5811 0.0
Li265 Li 0.40045 0.87421 0.60686 0.0
Li266 Li 0.41267 0.86138 0.58398 0.0
Li267 Li 0.37777 0.86381 0.58381 0.0
C268 C 0.44711 0.8808 0.59912 0.0
N269 N 0.48412 0.87487 0.60494 0.0
C270 C 0.45097 0.87526 0.61452 0.0
C271 C 0.46211 0.88334 0.58669 0.0
C272 C 0.46978 0.87235 0.61722 0.0
C273 C 0.48069 0.88025 0.58987 0.0
C274 C 0.38025 0.89569 0.60665 0.0
C275 C 0.36057 0.89761 0.63067 0.0
N276 N 0.37289 0.91456 0.63219 0.0
C277 C 0.39268 0.91314 0.60841 0.0
C278 C 0.36399 0.88787 0.61781 0.0
C279 C 0.38871 0.92246 0.62141 0.0
C280 C 0.40753 0.91682 0.56282 0.0
N281 N 0.42095 0.9106 0.57066 0.0
C282 C 0.45091 0.93194 0.55856 0.0
C283 C 0.44226 0.91827 0.56933 0.0
C284 C 0.43742 0.9378 0.54923 0.0
C285 C 0.41549 0.93053 0.55193 0.0
H286 H 0.39061 0.91043 0.56425 0.0
H287 H 0.45248 0.91311 0.57588 0.0
C288 C 0.38979 0.86571 0.64012 0.0
N289 N 0.40203 0.87797 0.62971 0.0
C290 C 0.39055 0.86899 0.65688 0.0
C291 C 0.41677 0.8973 0.65185 0.0
C292 C 0.41548 0.89348 0.6352 0.0
C293 C 0.4041 0.885 0.66291 0.0
H294 H 0.3794 0.85344 0.6354 0.0
H295 H 0.42505 0.90294 0.62657 0.0
C296 C 0.40098 0.87693 0.55124 0.0
N297 N 0.40543 0.89455 0.522 0.0
C298 C 0.38332 0.8786 0.54364 0.0
C299 C 0.42089 0.88417 0.54391 0.0
C300 C 0.3859 0.88754 0.52886 0.0
C301 C 0.42282 0.89307 0.52916 0.0
C302 C 0.37221 0.8348 0.59865 0.0
C303 C 0.37361 0.82127 0.58916 0.0
C304 C 0.35353 0.83268 0.60714 0.0
C305 C 0.3562 0.80583 0.58826 0.0
C306 C 0.33646 0.81706 0.60589 0.0
N307 N 0.33814 0.80407 0.59655 0.0
C308 C 0.43451 0.83887 0.58996 0.0
C309 C 0.43449 0.84703 0.5622 0.0
C310 C 0.44751 0.82961 0.58627 0.0
N311 N 0.42858 0.84754 0.57801 0.0
C312 C 0.4475 0.83795 0.55795 0.0
C313 C 0.45435 0.82921 0.57009 0.0
H314 H 0.42935 0.83935 0.6024 0.0
H315 H 0.4293 0.85381 0.55291 0.0
C316 C 0.3345 0.85951 0.58099 0.0
N317 N 0.34966 0.85344 0.57606 0.0
C318 C 0.31387 0.85209 0.57504 0.0
C319 C 0.32506 0.83259 0.55878 0.0
C320 C 0.34544 0.84039 0.56506 0.0
C321 C 0.30894 0.8384 0.56381 0.0
H322 H 0.33843 0.87017 0.58947 0.0
H323 H 0.35794 0.83604 0.56119 0.0
O324 O 0.42861 0.88343 0.59613 0.0
O325 O 0.38422 0.88625 0.59423 0.0
O326 O 0.39886 0.86859 0.56594 0.0
O327 O 0.38894 0.85013 0.59943 0.0
H328 H 0.43949 0.873 0.62424 0.0
H329 H 0.45924 0.88728 0.5746 0.0
H330 H 0.47293 0.86801 0.62907 0.0
H331 H 0.49233 0.88202 0.58032 0.0
H332 H 0.34817 0.89168 0.63949 0.0
H333 H 0.4054 0.91938 0.59994 0.0
H334 H 0.35438 0.87433 0.61674 0.0
H335 H 0.39827 0.93595 0.62297 0.0
H336 H 0.46789 0.93705 0.5568 0.0
H337 H 0.40459 0.93487 0.54518 0.0
H338 H 0.38079 0.85905 0.66504 0.0
H339 H 0.42731 0.90984 0.65599 0.0
H340 H 0.36782 0.87326 0.54917 0.0
H341 H 0.43482 0.88334 0.54975 0.0
H342 H 0.37239 0.88899 0.52289 0.0
H343 H 0.43817 0.89891 0.52346 0.0
H344 H 0.38789 0.82271 0.58244 0.0
H345 H 0.3521 0.84309 0.6144 0.0
H346 H 0.35702 0.79527 0.5809 0.0
H347 H 0.32185 0.81529 0.61229 0.0
H348 H 0.45202 0.82276 0.59596 0.0
H349 H 0.45243 0.83803 0.54535 0.0
H350 H 0.30195 0.85704 0.5791 0.0
H351 H 0.32186 0.82191 0.55034 0.0
Li352 Li 0.49087 0.37188 0.10886 0.0
Li353 Li 0.48602 0.34891 0.08886 0.0
Li354 Li 0.52048 0.37217 0.09214 0.0
Li355 Li 0.49045 0.37725 0.07967 0.0
C356 C 0.50501 0.35043 0.12434 0.0
N357 N 0.50366 0.34269 0.15729 0.0
C358 C 0.48986 0.33523 0.1303 0.0
C359 C 0.51952 0.36165 0.13515 0.0
C360 C 0.48945 0.33154 0.14699 0.0
C361 C 0.51855 0.35754 0.15176 0.0
C362 C 0.45091 0.36651 0.08836 0.0
C363 C 0.42582 0.36732 0.06776 0.0
N364 N 0.41945 0.37774 0.07757 0.0
C365 C 0.44409 0.37718 0.09827 0.0
C366 C 0.44167 0.36147 0.07301 0.0
C367 C 0.42816 0.38273 0.09258 0.0
C368 C 0.4928 0.39298 0.13652 0.0
N369 N 0.48291 0.37709 0.12993 0.0
C370 C 0.4639 0.36699 0.15472 0.0
C371 C 0.46811 0.36438 0.13844 0.0
C372 C 0.47464 0.38303 0.1622 0.0
C373 C 0.48881 0.39627 0.15268 0.0
H374 H 0.5041 0.403 0.12933 0.0
H375 H 0.46018 0.35197 0.13276 0.0
C376 C 0.48508 0.31544 0.09061 0.0
N377 N 0.47388 0.32481 0.08469 0.0
C378 C 0.47888 0.29796 0.08705 0.0
C379 C 0.44983 0.3 0.07107 0.0
C380 C 0.45635 0.31747 0.07526 0.0
C381 C 0.46123 0.29012 0.07703 0.0
H382 H 0.49928 0.3217 0.09769 0.0
H383 H 0.44794 0.32529 0.07049 0.0
C384 C 0.52864 0.40537 0.09606 0.0
N385 N 0.56659 0.43303 0.09479 0.0
C386 C 0.53435 0.41545 0.08193 0.0
C387 C 0.54223 0.40942 0.10956 0.0
C388 C 0.55359 0.42937 0.08153 0.0
C389 C 0.56135 0.42343 0.10867 0.0
C390 C 0.50655 0.34957 0.06189 0.0
C391 C 0.52194 0.34239 0.06499 0.0
C392 C 0.49156 0.34256 0.04959 0.0
C393 C 0.52201 0.32826 0.05576 0.0
C394 C 0.49217 0.32843 0.04063 0.0
N395 N 0.50723 0.32162 0.04389 0.0
C396 C 0.5606 0.37157 0.10171 0.0
C397 C 0.56055 0.38749 0.07771 0.0
C398 C 0.58228 0.37514 0.10009 0.0
N399 N 0.55027 0.37785 0.09064 0.0
C400 C 0.58227 0.39153 0.0757 0.0
C401 C 0.59345 0.38525 0.08694 0.0
H402 H 0.55193 0.36345 0.11157 0.0
H403 H 0.55182 0.39192 0.06884 0.0
C404 C 0.47977 0.40516 0.07013 0.0
N405 N 0.48379 0.39142 0.06414 0.0
C406 C 0.47822 0.4178 0.05959 0.0
C407 C 0.48402 0.4015 0.03679 0.0
C408 C 0.4856 0.38921 0.04782 0.0
C409 C 0.48085 0.41629 0.04267 0.0
H410 H 0.47891 0.40675 0.08321 0.0
H411 H 0.48917 0.37831 0.04343 0.0
O412 O 0.50539 0.35448 0.10808 0.0
O413 O 0.46673 0.36118 0.09359 0.0
O414 O 0.51 0.39151 0.09663 0.0
O415 O 0.50564 0.36291 0.07129 0.0
H416 H 0.47827 0.32651 0.12221 0.0
H417 H 0.53125 0.37353 0.1308 0.0
H418 H 0.47773 0.31988 0.15178 0.0
H419 H 0.52959 0.36617 0.16026 0.0
H420 H 0.41863 0.36364 0.05585 0.0
H421 H 0.45112 0.38125 0.11016 0.0
H422 H 0.44697 0.3534 0.0651 0.0
H423 H 0.42277 0.39105 0.10009 0.0
H424 H 0.45301 0.35629 0.16151 0.0
H425 H 0.49704 0.40898 0.15772 0.0
H426 H 0.48835 0.2908 0.09152 0.0
H427 H 0.43629 0.29434 0.06312 0.0
H428 H 0.52425 0.41243 0.07126 0.0
H429 H 0.53816 0.40176 0.12057 0.0
H430 H 0.55823 0.43722 0.07064 0.0
H431 H 0.57205 0.42664 0.119 0.0
H432 H 0.53347 0.34744 0.07461 0.0
H433 H 0.47929 0.34773 0.04722 0.0
H434 H 0.53373 0.32251 0.05813 0.0
H435 H 0.48054 0.32278 0.03118 0.0
H436 H 0.59006 0.36963 0.10882 0.0
H437 H 0.59017 0.39946 0.06544 0.0
H438 H 0.47617 0.42908 0.06475 0.0
H439 H 0.4859 0.3997 0.02385 0.0
Li440 Li 0.10516 0.62335 0.60455 0.0
Li441 Li 0.1309 0.61996 0.58507 0.0
Li442 Li 0.11513 0.6429 0.582 0.0
Li443 Li 0.09384 0.61315 0.5762 0.0
C444 C 0.14253 0.64517 0.61452 0.0
N445 N 0.15914 0.65491 0.64539 0.0
C446 C 0.1583 0.63959 0.62052 0.0
C447 C 0.13539 0.65586 0.62415 0.0
C448 C 0.16647 0.64463 0.63618 0.0
C449 C 0.14392 0.66058 0.63975 0.0
C450 C 0.10401 0.58526 0.59377 0.0
C451 C 0.10077 0.559 0.57951 0.0
N452 N 0.10169 0.55136 0.59404 0.0
C453 C 0.10463 0.57705 0.60857 0.0
C454 C 0.10185 0.57608 0.57913 0.0
C455 C 0.10357 0.55996 0.60844 0.0
C456 C 0.08095 0.62474 0.63241 0.0
N457 N 0.09738 0.62052 0.6269 0.0
C458 C 0.10457 0.61314 0.65386 0.0
C459 C 0.10901 0.61464 0.63719 0.0
C460 C 0.0879 0.61765 0.66 0.0
C461 C 0.07591 0.62341 0.64903 0.0
H462 H 0.07188 0.62925 0.62391 0.0
H463 H 0.12206 0.61148 0.63247 0.0
C464 C 0.17106 0.6251 0.57238 0.0
N465 N 0.15603 0.61494 0.58271 0.0
C466 C 0.19042 0.62286 0.57078 0.0
C467 C 0.17842 0.59963 0.59041 0.0
C468 C 0.1593 0.60234 0.59164 0.0
C469 C 0.19438 0.6101 0.58001 0.0
H470 H 0.16809 0.63513 0.56554 0.0
H471 H 0.14737 0.59475 0.60011 0.0
C472 C 0.07624 0.64116 0.58644 0.0
N473 N 0.05766 0.66492 0.57926 0.0
C474 C 0.06346 0.63901 0.57258 0.0
C475 C 0.07942 0.65529 0.59673 0.0
C476 C 0.05423 0.65119 0.56915 0.0
C477 C 0.06994 0.6672 0.59286 0.0
C478 C 0.12368 0.6232 0.54949 0.0
C479 C 0.1225 0.63334 0.53616 0.0
C480 C 0.12882 0.60857 0.54683 0.0
C481 C 0.12585 0.62838 0.52038 0.0
C482 C 0.13207 0.60404 0.53089 0.0
N483 N 0.13049 0.61394 0.51809 0.0
C484 C 0.13543 0.67872 0.5838 0.0
C485 C 0.1124 0.66934 0.56106 0.0
C486 C 0.14174 0.69575 0.57856 0.0
N487 N 0.1212 0.66593 0.57497 0.0
C488 C 0.11842 0.68623 0.55526 0.0
C489 C 0.13349 0.69965 0.56396 0.0
H490 H 0.14242 0.67564 0.59466 0.0
H491 H 0.10105 0.65891 0.5543 0.0
C492 C 0.05832 0.5835 0.57103 0.0
N493 N 0.07184 0.59778 0.5635 0.0
C494 C 0.04414 0.57024 0.5618 0.0
C495 C 0.05689 0.58734 0.53746 0.0
C496 C 0.07074 0.60028 0.54717 0.0
C497 C 0.04392 0.57181 0.54471 0.0
H498 H 0.05935 0.58204 0.58411 0.0
H499 H 0.08116 0.61199 0.54158 0.0
O500 O 0.13415 0.64018 0.5993 0.0
O501 O 0.1049 0.602 0.59373 0.0
O502 O 0.08567 0.62952 0.58986 0.0
O503 O 0.12033 0.62787 0.56502 0.0
H504 H 0.16411 0.6314 0.61323 0.0
H505 H 0.12319 0.66028 0.6197 0.0
H506 H 0.1786 0.64034 0.64101 0.0
H507 H 0.1384 0.66873 0.64738 0.0
H508 H 0.09908 0.55178 0.56825 0.0
H509 H 0.10596 0.58378 0.62005 0.0
H510 H 0.10058 0.58191 0.56759 0.0
H511 H 0.10418 0.55351 0.61981 0.0
H512 H 0.11445 0.60892 0.66191 0.0
H513 H 0.06279 0.62684 0.65324 0.0
H514 H 0.20223 0.63113 0.56253 0.0
H515 H 0.18097 0.58988 0.59799 0.0
H516 H 0.06082 0.62813 0.5645 0.0
H517 H 0.08925 0.65714 0.60751 0.0
H518 H 0.04439 0.64974 0.55843 0.0
H519 H 0.07238 0.67827 0.60066 0.0
H520 H 0.11888 0.64485 0.53792 0.0
H521 H 0.13061 0.60091 0.55696 0.0
H522 H 0.12478 0.63603 0.50996 0.0
H523 H 0.13597 0.5927 0.52869 0.0
H524 H 0.15375 0.70565 0.58546 0.0
H525 H 0.11169 0.68874 0.54396 0.0
H526 H 0.03411 0.55861 0.5679 0.0
H527 H 0.05732 0.58911 0.52433 0.0
Li528 Li 0.87183 0.37395 0.41201 0.0
Li529 Li 0.90962 0.38298 0.41638 0.0
Li530 Li 0.89405 0.36867 0.39072 0.0
Li531 Li 0.88888 0.35264 0.41663 0.0
C532 C 0.89072 0.40372 0.3911 0.0
N533 N 0.88258 0.42955 0.37437 0.0
C534 C 0.89872 0.42071 0.39687 0.0
C535 C 0.87897 0.39999 0.37661 0.0
C536 C 0.89431 0.43355 0.38831 0.0
C537 C 0.87493 0.4132 0.36839 0.0
C538 C 0.88461 0.38129 0.44421 0.0
C539 C 0.87745 0.38654 0.47222 0.0
N540 N 0.88113 0.4033 0.46847 0.0
C541 C 0.88824 0.39855 0.44066 0.0
C542 C 0.87913 0.37522 0.46013 0.0
C543 C 0.88643 0.40948 0.45307 0.0
C544 C 0.82864 0.36417 0.418 0.0
N545 N 0.84641 0.37833 0.41579 0.0
C546 C 0.82628 0.39674 0.41733 0.0
C547 C 0.84567 0.39447 0.41573 0.0
C548 C 0.80761 0.38224 0.41877 0.0
C549 C 0.80894 0.36581 0.41932 0.0
H550 H 0.82973 0.35151 0.41829 0.0
H551 H 0.86001 0.40557 0.4142 0.0
C552 C 0.94498 0.41334 0.41468 0.0
N553 N 0.9336 0.40047 0.4249 0.0
C554 C 0.96109 0.42778 0.42088 0.0
C555 C 0.95414 0.41487 0.44778 0.0
C556 C 0.93825 0.40069 0.44106 0.0
C557 C 0.9654 0.42887 0.43772 0.0
H558 H 0.94094 0.41267 0.40184 0.0
H559 H 0.92897 0.39021 0.44887 0.0
C560 C 0.85107 0.34406 0.38973 0.0
N561 N 0.81793 0.32749 0.36876 0.0
C562 C 0.84455 0.32625 0.38735 0.0
C563 C 0.84052 0.35339 0.3816 0.0
C564 C 0.82783 0.31813 0.37664 0.0
C565 C 0.82386 0.3448 0.37102 0.0
C566 C 0.93229 0.36138 0.41196 0.0
C567 C 0.94889 0.36022 0.4025 0.0
C568 C 0.93271 0.35961 0.42893 0.0
C569 C 0.9657 0.35729 0.41021 0.0
C570 C 0.9498 0.35671 0.43618 0.0
N571 N 0.9658 0.35562 0.42675 0.0
C572 C 0.91466 0.38237 0.36177 0.0
C573 C 0.88783 0.35485 0.35833 0.0
C574 C 0.91912 0.38341 0.34506 0.0
N575 N 0.89911 0.36833 0.36799 0.0
C576 C 0.8916 0.35541 0.34155 0.0
C577 C 0.9074 0.36986 0.33467 0.0
H578 H 0.92352 0.39281 0.36982 0.0
H579 H 0.87583 0.3437 0.36357 0.0
C580 C 0.88122 0.32787 0.44175 0.0
N581 N 0.88539 0.33087 0.42557 0.0
C582 C 0.87601 0.31124 0.448 0.0
C583 C 0.88055 0.30137 0.42093 0.0
C584 C 0.88586 0.31822 0.41525 0.0
C585 C 0.87486 0.2976 0.43742 0.0
H586 H 0.88122 0.33826 0.44967 0.0
H587 H 0.88938 0.32109 0.40245 0.0
O588 O 0.89503 0.39101 0.39932 0.0
O589 O 0.88667 0.3704 0.43229 0.0
O590 O 0.86743 0.35217 0.40021 0.0
O591 O 0.91578 0.3643 0.40455 0.0
H592 H 0.90822 0.42398 0.40787 0.0
H593 H 0.87329 0.38712 0.3716 0.0
H594 H 0.90028 0.4467 0.39271 0.0
H595 H 0.86581 0.41045 0.35719 0.0
H596 H 0.87326 0.382 0.48459 0.0
H597 H 0.89257 0.4035 0.42849 0.0
H598 H 0.87625 0.36191 0.46315 0.0
H599 H 0.8893 0.42289 0.45046 0.0
H600 H 0.8258 0.40961 0.41689 0.0
H601 H 0.79485 0.35436 0.42061 0.0
H602 H 0.96955 0.43823 0.4127 0.0
H603 H 0.95665 0.41527 0.46088 0.0
H604 H 0.85236 0.31878 0.39364 0.0
H605 H 0.84488 0.36705 0.38363 0.0
H606 H 0.82271 0.30437 0.37462 0.0
H607 H 0.81557 0.35188 0.36467 0.0
H608 H 0.94878 0.36158 0.38934 0.0
H609 H 0.92003 0.3605 0.43646 0.0
H610 H 0.97867 0.35637 0.40304 0.0
H611 H 0.95034 0.35533 0.44931 0.0
H612 H 0.93166 0.39467 0.34037 0.0
H613 H 0.88197 0.34475 0.33402 0.0
H614 H 0.87207 0.30898 0.46084 0.0
H615 H 0.87963 0.29129 0.41226 0.0
Li616 Li 0.38677 0.87327 0.89248 0.0
Li617 Li 0.39598 0.88453 0.91978 0.0
Li618 Li 0.39406 0.85611 0.91449 0.0
Li619 Li 0.36231 0.86271 0.91616 0.0
C620 C 0.43398 0.87921 0.90613 0.0
N621 N 0.47577 0.88233 0.90998 0.0
C622 C 0.44396 0.88378 0.92131 0.0
C623 C 0.44538 0.87643 0.89287 0.0
C624 C 0.46506 0.88523 0.92303 0.0
C625 C 0.46645 0.87802 0.89508 0.0
C626 C 0.37446 0.90237 0.90815 0.0
C627 C 0.3699 0.92455 0.92504 0.0
N628 N 0.3799 0.9365 0.91352 0.0
C629 C 0.38458 0.91484 0.89643 0.0
C630 C 0.36693 0.90721 0.92252 0.0
C631 C 0.38721 0.93204 0.89939 0.0
C632 C 0.37281 0.87089 0.85989 0.0
N633 N 0.38926 0.87888 0.87009 0.0
C634 C 0.41074 0.8939 0.84781 0.0
C635 C 0.4079 0.89035 0.86449 0.0
C636 C 0.39427 0.88542 0.83689 0.0
C637 C 0.37502 0.87394 0.84311 0.0
H638 H 0.35817 0.86186 0.86477 0.0
H639 H 0.42065 0.8965 0.87298 0.0
C640 C 0.41037 0.90597 0.94728 0.0
N641 N 0.41175 0.90494 0.93078 0.0
C642 C 0.42445 0.92005 0.95565 0.0
C643 C 0.4403 0.93199 0.92974 0.0
C644 C 0.42603 0.91764 0.9219 0.0
C645 C 0.43993 0.93308 0.94685 0.0
H646 H 0.39889 0.89554 0.95395 0.0
H647 H 0.42689 0.91623 0.9088 0.0
C648 C 0.3715 0.83751 0.88709 0.0
N649 N 0.37466 0.81499 0.86325 0.0
C650 C 0.355 0.82171 0.88473 0.0
C651 C 0.38961 0.84183 0.87732 0.0
C652 C 0.35691 0.81049 0.87262 0.0
C653 C 0.3909 0.83029 0.86533 0.0
C654 C 0.37363 0.85062 0.94422 0.0
C655 C 0.3632 0.8341 0.93782 0.0
C656 C 0.37437 0.85309 0.96114 0.0
C657 C 0.35374 0.82036 0.94848 0.0
C658 C 0.36468 0.83902 0.9714 0.0
N659 N 0.35466 0.82308 0.96491 0.0
C660 C 0.42088 0.84489 0.93354 0.0
C661 C 0.40693 0.82641 0.911 0.0
C662 C 0.4344 0.83612 0.93737 0.0
N663 N 0.40813 0.84041 0.92014 0.0
C664 C 0.42004 0.8172 0.91445 0.0
C665 C 0.43442 0.82232 0.92751 0.0
H666 H 0.42104 0.85567 0.941 0.0
H667 H 0.39623 0.82247 0.90082 0.0
C668 C 0.32744 0.8602 0.93633 0.0
N669 N 0.33355 0.85473 0.92222 0.0
C670 C 0.30611 0.85409 0.94083 0.0
C671 C 0.29796 0.83685 0.91618 0.0
C672 C 0.31937 0.84341 0.9121 0.0
C673 C 0.29104 0.84213 0.93074 0.0
H674 H 0.33916 0.86921 0.94415 0.0
H675 H 0.32475 0.83935 0.90094 0.0
O676 O 0.4133 0.87772 0.90415 0.0
O677 O 0.37215 0.88554 0.90563 0.0
O678 O 0.36961 0.84878 0.89866 0.0
O679 O 0.38275 0.86444 0.9341 0.0
H680 H 0.43546 0.88589 0.93177 0.0
H681 H 0.43808 0.87314 0.88096 0.0
H682 H 0.47289 0.88862 0.93474 0.0
H683 H 0.47542 0.87585 0.88492 0.0
H684 H 0.3643 0.92851 0.93616 0.0
H685 H 0.39049 0.9113 0.88523 0.0
H686 H 0.35915 0.89772 0.93174 0.0
H687 H 0.3951 0.94185 0.89047 0.0
H688 H 0.42586 0.90273 0.84345 0.0
H689 H 0.36188 0.86731 0.83507 0.0
H690 H 0.42362 0.92055 0.96885 0.0
H691 H 0.45219 0.94167 0.92257 0.0
H692 H 0.34087 0.81813 0.89218 0.0
H693 H 0.40263 0.85386 0.8791 0.0
H694 H 0.34427 0.79822 0.87068 0.0
H695 H 0.40485 0.83348 0.85772 0.0
H696 H 0.36234 0.83183 0.9248 0.0
H697 H 0.38228 0.86579 0.96631 0.0
H698 H 0.34564 0.80753 0.94369 0.0
H699 H 0.36511 0.84077 0.98452 0.0
H700 H 0.44489 0.84024 0.94779 0.0
H701 H 0.41945 0.80657 0.90656 0.0
H702 H 0.30152 0.85862 0.95209 0.0
H703 H 0.28708 0.82736 0.90818 0.0
Li704 Li 0.49548 0.37913 0.41926 0.0
Li705 Li 0.4862 0.34894 0.41251 0.0
Li706 Li 0.52265 0.3693 0.40944 0.0
Li707 Li 0.49432 0.36965 0.39092 0.0
C708 C 0.52002 0.35893 0.43952 0.0
N709 N 0.55031 0.35204 0.45791 0.0
C710 C 0.51953 0.34203 0.44095 0.0
C711 C 0.53598 0.37232 0.44741 0.0
C712 C 0.53494 0.33881 0.45034 0.0
C713 C 0.55115 0.36858 0.45663 0.0
C714 C 0.45083 0.35397 0.41096 0.0
C715 C 0.41885 0.32958 0.40578 0.0
N716 N 0.41129 0.3319 0.42065 0.0
C717 C 0.44273 0.35615 0.42617 0.0
C718 C 0.4388 0.34063 0.40064 0.0
C719 C 0.4227 0.34484 0.43085 0.0
C720 C 0.48083 0.40588 0.4269 0.0
N721 N 0.49 0.39518 0.43326 0.0
C722 C 0.49627 0.41036 0.45862 0.0
C723 C 0.49702 0.39679 0.44895 0.0
C724 C 0.48824 0.42233 0.45201 0.0
C725 C 0.47995 0.41974 0.43608 0.0
H726 H 0.47516 0.40412 0.41442 0.0
H727 H 0.50393 0.38792 0.45374 0.0
C728 C 0.46835 0.31288 0.40919 0.0
N729 N 0.46999 0.32619 0.41937 0.0
C730 C 0.46021 0.29599 0.41492 0.0
C731 C 0.45464 0.30676 0.44132 0.0
C732 C 0.46274 0.32348 0.43501 0.0
C733 C 0.45403 0.29281 0.43137 0.0
H734 H 0.47462 0.3154 0.39695 0.0
H735 H 0.46454 0.33437 0.44288 0.0
C736 C 0.52002 0.40647 0.40283 0.0
N737 N 0.5256 0.44092 0.40613 0.0
C738 C 0.51133 0.41445 0.39133 0.0
C739 C 0.53164 0.41606 0.41599 0.0
C740 C 0.51434 0.43187 0.3932 0.0
C741 C 0.53422 0.43344 0.41746 0.0
C742 C 0.50823 0.34648 0.37851 0.0
C743 C 0.52839 0.3517 0.37151 0.0
C744 C 0.49051 0.33723 0.3691 0.0
C745 C 0.53049 0.3476 0.3552 0.0
C746 C 0.49327 0.33342 0.35282 0.0
N747 N 0.51304 0.33863 0.34626 0.0
C748 C 0.55734 0.35794 0.4109 0.0
C749 C 0.56657 0.3882 0.41306 0.0
C750 C 0.57854 0.35967 0.4126 0.0
N751 N 0.55181 0.37211 0.41117 0.0
C752 C 0.58788 0.3905 0.41503 0.0
C753 C 0.59406 0.37612 0.41477 0.0
H754 H 0.54525 0.34529 0.40941 0.0
H755 H 0.56181 0.39925 0.41307 0.0
C756 C 0.46836 0.37068 0.36389 0.0
N757 N 0.48856 0.37403 0.36896 0.0
C758 C 0.46423 0.37327 0.34756 0.0
C759 C 0.50179 0.3829 0.34211 0.0
C760 C 0.50519 0.38034 0.35855 0.0
C761 C 0.48106 0.37929 0.33635 0.0
H762 H 0.45546 0.36593 0.37251 0.0
H763 H 0.52111 0.38308 0.363 0.0
O764 O 0.50537 0.36243 0.43008 0.0
O765 O 0.47059 0.36465 0.40632 0.0
O766 O 0.51696 0.38933 0.40134 0.0
O767 O 0.50582 0.35058 0.39441 0.0
H768 H 0.50761 0.33151 0.4347 0.0
H769 H 0.5369 0.38553 0.44617 0.0
H770 H 0.53475 0.32581 0.45155 0.0
H771 H 0.56366 0.37884 0.4627 0.0
H772 H 0.40942 0.31913 0.39797 0.0
H773 H 0.45189 0.36635 0.43434 0.0
H774 H 0.44491 0.33869 0.38888 0.0
H775 H 0.41626 0.34632 0.44262 0.0
H776 H 0.50286 0.41195 0.47085 0.0
H777 H 0.47338 0.42859 0.43065 0.0
H778 H 0.4605 0.28572 0.4069 0.0
H779 H 0.45009 0.30485 0.45407 0.0
H780 H 0.5022 0.40725 0.38112 0.0
H781 H 0.53808 0.41005 0.42523 0.0
H782 H 0.50764 0.43819 0.38442 0.0
H783 H 0.54295 0.44095 0.42768 0.0
H784 H 0.54226 0.35902 0.37852 0.0
H785 H 0.47476 0.33333 0.37421 0.0
H786 H 0.54599 0.35161 0.34961 0.0
H787 H 0.47969 0.32639 0.34537 0.0
H788 H 0.58272 0.34827 0.4124 0.0
H789 H 0.59944 0.40341 0.41647 0.0
H790 H 0.44804 0.37063 0.3438 0.0
H791 H 0.51527 0.38731 0.33396 0.0
Li792 Li 0.08928 0.61354 0.91718 0.0
Li793 Li 0.12717 0.62082 0.91232 0.0
Li794 Li 0.11111 0.64261 0.91511 0.0
Li795 Li 0.10365 0.62387 0.89087 0.0
C796 C 0.1182 0.63497 0.94607 0.0
N797 N 0.1288 0.65388 0.97469 0.0
C798 C 0.13728 0.63714 0.95399 0.0
C799 C 0.10434 0.64217 0.95289 0.0
C800 C 0.14239 0.6468 0.9684 0.0
C801 C 0.11003 0.65176 0.9673 0.0
C802 C 0.10109 0.58629 0.90671 0.0
C803 C 0.09468 0.55632 0.90123 0.0
N804 N 0.09653 0.55364 0.91747 0.0
C805 C 0.10297 0.58323 0.92336 0.0
C806 C 0.0969 0.57272 0.89556 0.0
C807 C 0.10059 0.56663 0.92854 0.0
C808 C 0.0527 0.58363 0.91894 0.0
N809 N 0.0656 0.59729 0.92769 0.0
C810 C 0.04846 0.58502 0.95254 0.0
C811 C 0.06345 0.59842 0.9441 0.0
C812 C 0.03576 0.57027 0.94399 0.0
C813 C 0.03754 0.56986 0.92691 0.0
H814 H 0.05496 0.58304 0.9059 0.0
H815 H 0.07414 0.60925 0.95077 0.0
C816 C 0.16991 0.6309 0.92028 0.0
N817 N 0.15302 0.61681 0.91579 0.0
C818 C 0.18993 0.62987 0.92193 0.0
C819 C 0.17489 0.59979 0.91439 0.0
C820 C 0.15521 0.60145 0.9127 0.0
C821 C 0.19259 0.61415 0.91893 0.0
H822 H 0.16785 0.64306 0.9223 0.0
H823 H 0.14196 0.59056 0.90846 0.0
C824 C 0.06238 0.62572 0.90501 0.0
N825 N 0.01881 0.61324 0.90791 0.0
C826 C 0.04978 0.61496 0.89293 0.0
C827 C 0.05283 0.6303 0.91848 0.0
C828 C 0.02778 0.60875 0.89464 0.0
C829 C 0.03078 0.6238 0.91975 0.0
C830 C 0.14671 0.64222 0.88682 0.0
C831 C 0.16256 0.65814 0.88356 0.0
C832 C 0.14681 0.62746 0.87868 0.0
C833 C 0.17826 0.65904 0.87214 0.0
C834 C 0.16279 0.6289 0.86735 0.0
N835 N 0.17805 0.64453 0.86434 0.0
C836 C 0.13491 0.67381 0.93027 0.0
C837 C 0.10219 0.67313 0.91926 0.0
C838 C 0.13936 0.6905 0.93603 0.0
N839 N 0.11645 0.66543 0.92228 0.0
C840 C 0.10629 0.69006 0.92443 0.0
C841 C 0.125 0.69879 0.93303 0.0
H842 H 0.14615 0.66748 0.93216 0.0
H843 H 0.08778 0.66622 0.91266 0.0
C844 C 0.08845 0.60705 0.86114 0.0
N845 N 0.09879 0.62265 0.86813 0.0
C846 C 0.08466 0.60581 0.84434 0.0
C847 C 0.10231 0.63674 0.84232 0.0
C848 C 0.10567 0.63737 0.85917 0.0
C849 C 0.09165 0.62079 0.83469 0.0
H850 H 0.08298 0.59561 0.86866 0.0
H851 H 0.11388 0.64959 0.86513 0.0
O852 O 0.11303 0.62565 0.93187 0.0
O853 O 0.10268 0.6023 0.90132 0.0
O854 O 0.08395 0.63164 0.90372 0.0
O855 O 0.13145 0.64115 0.89817 0.0
H856 H 0.14798 0.63135 0.94913 0.0
H857 H 0.08949 0.6406 0.94697 0.0
H858 H 0.15716 0.64864 0.97461 0.0
H859 H 0.09955 0.65756 0.97259 0.0
H860 H 0.09144 0.54571 0.89272 0.0
H861 H 0.1062 0.59349 0.93223 0.0
H862 H 0.09536 0.57483 0.88264 0.0
H863 H 0.10196 0.56409 0.94138 0.0
H864 H 0.04785 0.58571 0.96575 0.0
H865 H 0.02797 0.55872 0.9199 0.0
H866 H 0.20321 0.64125 0.92544 0.0
H867 H 0.17639 0.58754 0.91162 0.0
H868 H 0.05689 0.61129 0.88244 0.0
H869 H 0.06233 0.63869 0.92788 0.0
H870 H 0.01784 0.60032 0.88544 0.0
H871 H 0.02317 0.62715 0.93015 0.0
H872 H 0.16274 0.66966 0.88983 0.0
H873 H 0.13477 0.615 0.8811 0.0
H874 H 0.19063 0.67128 0.86949 0.0
H875 H 0.16307 0.61759 0.86097 0.0
H876 H 0.15417 0.69708 0.94232 0.0
H877 H 0.09511 0.69627 0.92171 0.0
H878 H 0.07613 0.5933 0.83901 0.0
H879 H 0.10824 0.64857 0.83532 0.0
Li880 Li 0.5899 0.14142 0.41262 0.0
Li881 Li 0.62434 0.13823 0.41309 0.0
Li882 Li 0.60133 0.12966 0.38916 0.0
Li883 Li 0.5931 0.11325 0.41435 0.0
C884 C 0.62243 0.16275 0.38507 0.0
N885 N 0.63806 0.18121 0.35686 0.0
C886 C 0.64408 0.16843 0.38161 0.0
C887 C 0.60875 0.16652 0.37422 0.0
C888 C 0.65167 0.17774 0.36728 0.0
C889 C 0.61695 0.17584 0.36001 0.0
C890 C 0.61407 0.13937 0.44381 0.0
C891 C 0.63921 0.13946 0.46473 0.0
N892 N 0.63937 0.15499 0.47009 0.0
C893 C 0.61442 0.1553 0.44955 0.0
C894 C 0.62648 0.13132 0.45149 0.0
C895 C 0.62733 0.16299 0.46285 0.0
C896 C 0.55847 0.14805 0.43115 0.0
N897 N 0.57371 0.1546 0.41962 0.0
C898 C 0.56387 0.17917 0.41612 0.0
C899 C 0.57691 0.17 0.41235 0.0
C900 C 0.5473 0.17237 0.42743 0.0
C901 C 0.5449 0.15672 0.4352 0.0
H902 H 0.55646 0.13583 0.43685 0.0
H903 H 0.58939 0.17504 0.40344 0.0
C904 C 0.66599 0.13948 0.41925 0.0
N905 N 0.65281 0.1485 0.42009 0.0
C906 C 0.68721 0.14725 0.42372 0.0
C907 C 0.68078 0.17337 0.42995 0.0
C908 C 0.6597 0.1651 0.42538 0.0
C909 C 0.69489 0.16449 0.42894 0.0
H910 H 0.66015 0.12639 0.41476 0.0
H911 H 0.64886 0.17197 0.42578 0.0
C912 C 0.55369 0.11953 0.40127 0.0
N913 N 0.51295 0.11927 0.40429 0.0
C914 C 0.53977 0.10862 0.41259 0.0
C915 C 0.54684 0.13022 0.39141 0.0
C916 C 0.51923 0.10868 0.41393 0.0
C917 C 0.5262 0.12994 0.39316 0.0
C918 C 0.61842 0.10113 0.39865 0.0
C919 C 0.61161 0.09153 0.38434 0.0
C920 C 0.62514 0.09384 0.41194 0.0
C921 C 0.6115 0.07471 0.3836 0.0
C922 C 0.62475 0.07698 0.41073 0.0
N923 N 0.61799 0.06784 0.3967 0.0
C924 C 0.61794 0.13144 0.35713 0.0
C925 C 0.58054 0.11954 0.35926 0.0
C926 C 0.61679 0.12835 0.34032 0.0
N927 N 0.59994 0.12711 0.36616 0.0
C928 C 0.57865 0.11606 0.34255 0.0
C929 C 0.59693 0.12042 0.33283 0.0
H930 H 0.63318 0.13701 0.36303 0.0
H931 H 0.56653 0.11575 0.3668 0.0
C932 C 0.58035 0.08828 0.43899 0.0
N933 N 0.58006 0.09087 0.42264 0.0
C934 C 0.56952 0.07202 0.4455 0.0
C935 C 0.55864 0.06138 0.41814 0.0
C936 C 0.56955 0.07791 0.41218 0.0
C937 C 0.55833 0.05833 0.43504 0.0
H938 H 0.5885 0.09895 0.44701 0.0
H939 H 0.56937 0.08051 0.39924 0.0
O940 O 0.61466 0.1535 0.39897 0.0
O941 O 0.60181 0.13176 0.43064 0.0
O942 O 0.57399 0.11991 0.39997 0.0
O943 O 0.61837 0.11754 0.39969 0.0
H944 H 0.65489 0.16556 0.38981 0.0
H945 H 0.59193 0.16212 0.37665 0.0
H946 H 0.66837 0.18217 0.36442 0.0
H947 H 0.60652 0.17876 0.35146 0.0
H948 H 0.64901 0.13344 0.47072 0.0
H949 H 0.60498 0.16173 0.44371 0.0
H950 H 0.62649 0.11904 0.44714 0.0
H951 H 0.62783 0.17536 0.46738 0.0
H952 H 0.56671 0.19142 0.41016 0.0
H953 H 0.53232 0.15095 0.44393 0.0
H954 H 0.69765 0.14005 0.42255 0.0
H955 H 0.68604 0.18664 0.43405 0.0
H956 H 0.54481 0.10032 0.42039 0.0
H957 H 0.55743 0.1388 0.38263 0.0
H958 H 0.50833 0.10036 0.42269 0.0
H959 H 0.52075 0.13825 0.3857 0.0
H960 H 0.60631 0.09692 0.37395 0.0
H961 H 0.63026 0.10103 0.42317 0.0
H962 H 0.60619 0.0671 0.37262 0.0
H963 H 0.62974 0.07113 0.42096 0.0
H964 H 0.6313 0.13206 0.33329 0.0
H965 H 0.56305 0.10958 0.33741 0.0
H966 H 0.56928 0.07038 0.45864 0.0
H967 H 0.55032 0.05119 0.40965 0.0
Li968 Li 0.51069 0.64576 0.91963 0.0
Li969 Li 0.50641 0.61621 0.92287 0.0
Li970 Li 0.50582 0.62766 0.89602 0.0
Li971 Li 0.47656 0.62348 0.91454 0.0
C972 C 0.54781 0.63898 0.92123 0.0
N973 N 0.58346 0.6482 0.94079 0.0
C974 C 0.54652 0.64271 0.93778 0.0
C975 C 0.56724 0.63997 0.91464 0.0
C976 C 0.56471 0.64734 0.94747 0.0
C977 C 0.58508 0.64465 0.92472 0.0
C978 C 0.47971 0.61943 0.94767 0.0
C979 C 0.4561 0.59204 0.95788 0.0
N980 N 0.45489 0.59962 0.97239 0.0
C981 C 0.47822 0.62695 0.96268 0.0
C982 C 0.46854 0.60183 0.94523 0.0
C983 C 0.46559 0.61672 0.97503 0.0
C984 C 0.50743 0.67306 0.93619 0.0
N985 N 0.52181 0.66867 0.92756 0.0
C986 C 0.5458 0.69793 0.92735 0.0
C987 C 0.54094 0.68054 0.92338 0.0
C988 C 0.53075 0.70299 0.93562 0.0
C989 C 0.51158 0.69018 0.9404 0.0
H990 H 0.49219 0.66335 0.93901 0.0
H991 H 0.55196 0.67668 0.91628 0.0
C992 C 0.51346 0.58542 0.92711 0.0
N993 N 0.51377 0.59983 0.9351 0.0
C994 C 0.51488 0.57148 0.93586 0.0
C995 C 0.51802 0.58787 0.96079 0.0
C996 C 0.51668 0.60153 0.95155 0.0
C997 C 0.51652 0.57243 0.95298 0.0
H998 H 0.51113 0.58448 0.91402 0.0
H999 H 0.51688 0.61314 0.95761 0.0
C1000 C 0.49882 0.65858 0.89183 0.0
N1001 N 0.514 0.68853 0.87363 0.0
C1002 C 0.48539 0.66731 0.88757 0.0
C1003 C 0.51998 0.66508 0.88683 0.0
C1004 C 0.49336 0.68243 0.87836 0.0
C1005 C 0.52735 0.68023 0.87764 0.0
C1006 C 0.4725 0.5964 0.89301 0.0
C1007 C 0.46106 0.60417 0.88373 0.0
C1008 C 0.47005 0.57926 0.88994 0.0
C1009 C 0.44744 0.59468 0.87149 0.0
C1010 C 0.45627 0.57019 0.87758 0.0
N1011 N 0.44535 0.57803 0.86868 0.0
C1012 C 0.52838 0.62068 0.86934 0.0
C1013 C 0.50036 0.63002 0.86208 0.0
C1014 C 0.53235 0.6185 0.85286 0.0
N1015 N 0.51248 0.62622 0.87358 0.0
C1016 C 0.50361 0.62786 0.84555 0.0
C1017 C 0.5196 0.62184 0.84078 0.0
H1018 H 0.53772 0.6177 0.87878 0.0
H1019 H 0.48788 0.63448 0.86573 0.0
C1020 C 0.44157 0.63292 0.91793 0.0
N1021 N 0.44704 0.6188 0.91659 0.0
C1022 C 0.42033 0.63111 0.91892 0.0
C1023 C 0.41071 0.60017 0.91752 0.0
C1024 C 0.4322 0.60259 0.91658 0.0
C1025 C 0.40454 0.61457 0.91852 0.0
H1026 H 0.45377 0.64562 0.91813 0.0
H1027 H 0.437 0.59156 0.9156 0.0
O1028 O 0.53029 0.63442 0.9114 0.0
O1029 O 0.49213 0.62936 0.93555 0.0
O1030 O 0.49125 0.64389 0.90104 0.0
O1031 O 0.48603 0.60541 0.90506 0.0
H1032 H 0.53169 0.6421 0.94314 0.0
H1033 H 0.5685 0.63715 0.90184 0.0
H1034 H 0.56393 0.65025 0.96029 0.0
H1035 H 0.60022 0.64546 0.91977 0.0
H1036 H 0.44743 0.5784 0.95616 0.0
H1037 H 0.48678 0.64056 0.96476 0.0
H1038 H 0.46955 0.59573 0.93375 0.0
H1039 H 0.46431 0.62237 0.98671 0.0
H1040 H 0.56078 0.70735 0.92347 0.0
H1041 H 0.49925 0.6934 0.94639 0.0
H1042 H 0.51352 0.55977 0.92937 0.0
H1043 H 0.51954 0.58916 0.97396 0.0
H1044 H 0.46898 0.66245 0.89136 0.0
H1045 H 0.53065 0.65855 0.89005 0.0
H1046 H 0.48315 0.68932 0.87498 0.0
H1047 H 0.54369 0.68542 0.87372 0.0
H1048 H 0.46262 0.61739 0.88595 0.0
H1049 H 0.47871 0.573 0.89703 0.0
H1050 H 0.43853 0.60056 0.86421 0.0
H1051 H 0.45425 0.55692 0.87507 0.0
H1052 H 0.54481 0.6138 0.84962 0.0
H1053 H 0.49367 0.63084 0.83658 0.0
H1054 H 0.41633 0.64255 0.92 0.0
H1055 H 0.39906 0.58721 0.91707 0.0
H1056 H 0.62276 0.10873 0.31436 0.0
H1057 H 0.61988 0.10201 0.28515 0.0
H1058 H 0.56402 0.11524 0.28212 0.0
H1059 H 0.56712 0.12256 0.31117 0.0
H1060 H 0.56037 0.08384 0.26597 0.0
H1061 H 0.60786 0.14338 0.26947 0.0
H1062 H 0.63952 0.16705 0.27936 0.0
H1063 H 0.67944 0.14197 0.25923 0.0
H1064 H 0.64797 0.11801 0.24941 0.0
H1065 H 0.55122 0.09965 0.1818 0.0
H1066 H 0.55342 0.09895 0.21156 0.0
H1067 H 0.61443 0.09382 0.20791 0.0
H1068 H 0.61284 0.0954 0.1782 0.0
H1069 H 0.61664 0.11863 0.22799 0.0
H1070 H 0.57011 0.06045 0.222 0.0
H1071 H 0.53893 0.03622 0.21231 0.0
H1072 H 0.49784 0.05728 0.23708 0.0
H1073 H 0.52877 0.08179 0.24674 0.0
C1074 C 0.61001 0.11043 0.30746 0.0
C1075 C 0.59523 0.11628 0.31511 0.0
C1076 C 0.60829 0.10643 0.29081 0.0
C1077 C 0.59174 0.10814 0.28155 0.0
C1078 C 0.5768 0.11372 0.28914 0.0
C1079 C 0.5786 0.11787 0.30574 0.0
C1080 C 0.59039 0.10471 0.2638 0.0
C1081 C 0.57255 0.09149 0.25759 0.0
C1082 C 0.60664 0.11438 0.25305 0.0
C1083 C 0.62556 0.12881 0.25887 0.0
C1084 C 0.62338 0.14284 0.26728 0.0
C1085 C 0.64129 0.15632 0.27285 0.0
C1086 C 0.66147 0.15599 0.26997 0.0
C1087 C 0.66379 0.14219 0.26147 0.0
C1088 C 0.64593 0.12866 0.2559 0.0
C1089 C 0.56506 0.09828 0.18733 0.0
C1090 C 0.58192 0.09771 0.17761 0.0
C1091 C 0.56618 0.09766 0.20435 0.0
C1092 C 0.58404 0.09622 0.21197 0.0
C1093 C 0.60048 0.0949 0.20229 0.0
C1094 C 0.59945 0.09565 0.18528 0.0
C1095 C 0.58646 0.09779 0.22997 0.0
C1096 C 0.60452 0.11074 0.23629 0.0
C1097 C 0.57046 0.08775 0.2408 0.0
C1098 C 0.55178 0.07305 0.23498 0.0
C1099 C 0.55442 0.06001 0.22527 0.0
C1100 C 0.53679 0.0462 0.2198 0.0
C1101 C 0.51641 0.04523 0.22405 0.0
C1102 C 0.51363 0.05806 0.23379 0.0
C1103 C 0.53121 0.0719 0.23928 0.0
H1104 H 0.50278 0.03453 0.21981 0.0
H1105 H 0.67532 0.16644 0.27429 0.0
H1106 H 0.56007 0.62442 0.68517 0.0
H1107 H 0.56208 0.625 0.71508 0.0
H1108 H 0.49418 0.60022 0.71778 0.0
H1109 H 0.49194 0.60028 0.68809 0.0
H1110 H 0.50755 0.62758 0.73703 0.0
H1111 H 0.52809 0.57865 0.72659 0.0
H1112 H 0.54981 0.5636 0.71423 0.0
H1113 H 0.60529 0.59893 0.73762 0.0
H1114 H 0.58393 0.61434 0.74996 0.0
H1115 H 0.48912 0.60479 0.81883 0.0
H1116 H 0.49298 0.60223 0.78937 0.0
H1117 H 0.56032 0.62964 0.79353 0.0
H1118 H 0.55654 0.63205 0.82323 0.0
H1119 H 0.55048 0.60301 0.77099 0.0
H1120 H 0.52969 0.6512 0.78221 0.0
H1121 H 0.50791 0.66607 0.7948 0.0
H1122 H 0.45297 0.63222 0.76963 0.0
H1123 H 0.47437 0.61696 0.75709 0.0
C1124 C 0.54558 0.61908 0.69215 0.0
C1125 C 0.52584 0.61227 0.68421 0.0
C1126 C 0.54678 0.61927 0.70924 0.0
C1127 C 0.52829 0.61255 0.71866 0.0
C1128 C 0.50866 0.60544 0.71075 0.0
C1129 C 0.50743 0.60532 0.69374 0.0
C1130 C 0.52903 0.61376 0.73676 0.0
C1131 C 0.51676 0.62202 0.74444 0.0
C1132 C 0.54163 0.60706 0.74641 0.0
C1133 C 0.55446 0.59776 0.73906 0.0
C1134 C 0.54495 0.5833 0.72899 0.0
C1135 C 0.55719 0.57468 0.72201 0.0
C1136 C 0.57893 0.58034 0.7251 0.0
C1137 C 0.58846 0.59459 0.73522 0.0
C1138 C 0.57629 0.60326 0.74222 0.0
C1139 C 0.50477 0.61019 0.81348 0.0
C1140 C 0.5225 0.61886 0.82324 0.0
C1141 C 0.50696 0.60869 0.79667 0.0
C1142 C 0.52687 0.61606 0.78924 0.0
C1143 C 0.5448 0.62394 0.79904 0.0
C1144 C 0.54263 0.62532 0.81596 0.0
C1145 C 0.52854 0.61639 0.77117 0.0
C1146 C 0.54135 0.60859 0.76353 0.0
C1147 C 0.51646 0.62354 0.76147 0.0
C1148 C 0.50361 0.63286 0.7688 0.0
C1149 C 0.51294 0.64686 0.77944 0.0
C1150 C 0.50066 0.65536 0.78656 0.0
C1151 C 0.47906 0.65007 0.78304 0.0
C1152 C 0.4697 0.63629 0.77235 0.0
C1153 C 0.4819 0.62773 0.76522 0.0
H1154 H 0.46958 0.65666 0.78857 0.0
H1155 H 0.58837 0.57365 0.71968 0.0
H1156 H 0.92405 0.39733 0.17891 0.0
H1157 H 0.92776 0.39851 0.2087 0.0
H1158 H 0.9031 0.34289 0.21062 0.0
H1159 H 0.89895 0.3417 0.1809 0.0
H1160 H 0.88348 0.35516 0.23174 0.0
H1161 H 0.95636 0.36759 0.21791 0.0
H1162 H 0.99031 0.38308 0.20416 0.0
H1163 H 0.99389 0.43012 0.22789 0.0
H1164 H 0.9598 0.41496 0.24162 0.0
H1165 H 0.90658 0.34375 0.31392 0.0
H1166 H 0.90976 0.34486 0.28418 0.0
H1167 H 0.92097 0.39928 0.28503 0.0
H1168 H 0.91701 0.39823 0.31478 0.0
H1169 H 0.94814 0.38868 0.26291 0.0
H1170 H 0.87484 0.37596 0.27621 0.0
H1171 H 0.84123 0.36014 0.29026 0.0
H1172 H 0.83904 0.31305 0.26736 0.0
H1173 H 0.87285 0.32856 0.25337 0.0
C1174 C 0.91977 0.38538 0.1857 0.0
C1175 C 0.91116 0.36943 0.17766 0.0
C1176 C 0.92192 0.38606 0.2027 0.0
C1177 C 0.91584 0.37078 0.21189 0.0
C1178 C 0.90782 0.35484 0.20379 0.0
C1179 C 0.90545 0.35417 0.18683 0.0
C1180 C 0.91646 0.37132 0.23001 0.0
C1181 C 0.89774 0.36228 0.23852 0.0
C1182 C 0.93489 0.38103 0.23888 0.0
C1183 C 0.95541 0.39017 0.23067 0.0
C1184 C 0.9643 0.38127 0.22009 0.0
C1185 C 0.98358 0.38998 0.21232 0.0
C1186 C 0.99422 0.40758 0.21511 0.0
C1187 C 0.98562 0.41649 0.22572 0.0
C1188 C 0.96632 0.40784 0.23351 0.0
C1189 C 0.90962 0.35596 0.30782 0.0
C1190 C 0.91127 0.37085 0.31676 0.0
C1191 C 0.91163 0.35659 0.29085 0.0
C1192 C 0.91549 0.37213 0.28249 0.0
C1193 C 0.91809 0.38719 0.29134 0.0
C1194 C 0.91587 0.38655 0.30833 0.0
C1195 C 0.91531 0.37231 0.26444 0.0
C1196 C 0.93399 0.38154 0.25602 0.0
C1197 C 0.8969 0.36273 0.2556 0.0
C1198 C 0.87649 0.35339 0.26389 0.0
C1199 C 0.86729 0.3622 0.27429 0.0
C1200 C 0.84819 0.3533 0.28222 0.0
C1201 C 0.83803 0.33559 0.27974 0.0
C1202 C 0.84694 0.32676 0.26929 0.0
C1203 C 0.86607 0.3356 0.26135 0.0
H1204 H 0.82324 0.32871 0.28589 0.0
H1205 H 0.00916 0.4143 0.20909 0.0
H1206 H 0.41208 0.91577 0.8202 0.0
H1207 H 0.41725 0.91953 0.79053 0.0
H1208 H 0.38883 0.86446 0.78391 0.0
H1209 H 0.38385 0.86062 0.81342 0.0
H1210 H 0.42547 0.87904 0.76597 0.0
H1211 H 0.36022 0.88876 0.77723 0.0
H1212 H 0.3389 0.90352 0.79069 0.0
H1213 H 0.37877 0.95175 0.77001 0.0
H1214 H 0.40051 0.93729 0.7566 0.0
H1215 H 0.37111 0.87776 0.68427 0.0
H1216 H 0.37284 0.88204 0.71387 0.0
H1217 H 0.44089 0.90547 0.71121 0.0
H1218 H 0.43933 0.9008 0.68161 0.0
H1219 H 0.38826 0.9102 0.73397 0.0
H1220 H 0.46049 0.89127 0.74488 0.0
H1221 H 0.48008 0.87498 0.73147 0.0
H1222 H 0.42299 0.84248 0.70784 0.0
H1223 H 0.40304 0.85844 0.72127 0.0
C1224 C 0.40705 0.90449 0.81238 0.0
C1225 C 0.39742 0.88791 0.81905 0.0
C1226 C 0.40995 0.90666 0.79549 0.0
C1227 C 0.40336 0.89226 0.78509 0.0
C1228 C 0.39404 0.87571 0.79176 0.0
C1229 C 0.39102 0.87355 0.80858 0.0
C1230 C 0.40564 0.89425 0.76717 0.0
C1231 C 0.41754 0.88601 0.75897 0.0
C1232 C 0.39524 0.90332 0.7581 0.0
C1233 C 0.38212 0.91199 0.76608 0.0
C1234 C 0.36454 0.90254 0.77566 0.0
C1235 C 0.35236 0.91084 0.78326 0.0
C1236 C 0.35751 0.92857 0.78125 0.0
C1237 C 0.37482 0.93802 0.77159 0.0
C1238 C 0.38707 0.92978 0.76398 0.0
C1239 C 0.38644 0.8838 0.68999 0.0
C1240 C 0.4051 0.88875 0.68066 0.0
C1241 C 0.38739 0.88643 0.70686 0.0
C1242 C 0.40699 0.89396 0.71471 0.0
C1243 C 0.42562 0.89953 0.70537 0.0
C1244 C 0.42468 0.89692 0.68847 0.0
C1245 C 0.40784 0.89477 0.73277 0.0
C1246 C 0.39659 0.90356 0.74098 0.0
C1247 C 0.41865 0.88605 0.74188 0.0
C1248 C 0.43037 0.87617 0.73392 0.0
C1249 C 0.45213 0.88061 0.73685 0.0
C1250 C 0.46329 0.87144 0.72925 0.0
C1251 C 0.4528 0.85774 0.71876 0.0
C1252 C 0.43111 0.85313 0.71591 0.0
C1253 C 0.41988 0.86225 0.72351 0.0
H1254 H 0.46147 0.85068 0.71287 0.0
H1255 H 0.34806 0.93498 0.78714 0.0
H1256 H 0.50528 0.40421 0.31518 0.0
H1257 H 0.50032 0.40616 0.28588 0.0
H1258 H 0.44228 0.36186 0.28825 0.0
H1259 H 0.44792 0.35905 0.3174 0.0
H1260 H 0.46381 0.35822 0.26383 0.0
H1261 H 0.44355 0.40436 0.28204 0.0
H1262 H 0.44653 0.43082 0.2971 0.0
H1263 H 0.50289 0.45914 0.27036 0.0
H1264 H 0.50044 0.43279 0.25529 0.0
H1265 H 0.43872 0.36942 0.18102 0.0
H1266 H 0.43612 0.37049 0.21079 0.0
H1267 H 0.50173 0.40368 0.21355 0.0
H1268 H 0.50491 0.40203 0.18398 0.0
H1269 H 0.47225 0.41283 0.23508 0.0
H1270 H 0.49323 0.36489 0.21927 0.0
H1271 H 0.48864 0.33832 0.2038 0.0
H1272 H 0.42798 0.31325 0.22627 0.0
H1273 H 0.43206 0.33981 0.24166 0.0
C1274 C 0.49151 0.39478 0.30949 0.0
C1275 C 0.47707 0.3814 0.31872 0.0
C1276 C 0.48851 0.3961 0.29273 0.0
C1277 C 0.47074 0.38432 0.28484 0.0
C1278 C 0.45606 0.37116 0.29406 0.0
C1279 C 0.45921 0.36968 0.3108 0.0
C1280 C 0.46825 0.38509 0.26683 0.0
C1281 C 0.46521 0.37011 0.25763 0.0
C1282 C 0.47037 0.40063 0.25862 0.0
C1283 C 0.47189 0.41655 0.26762 0.0
C1284 C 0.45667 0.4162 0.27945 0.0
C1285 C 0.45825 0.43119 0.28798 0.0
C1286 C 0.47491 0.44665 0.28471 0.0
C1287 C 0.49 0.44715 0.27288 0.0
C1288 C 0.48851 0.4322 0.26433 0.0
C1289 C 0.45264 0.37695 0.18792 0.0
C1290 C 0.4721 0.38548 0.18002 0.0
C1291 C 0.45103 0.37767 0.20491 0.0
C1292 C 0.46875 0.38712 0.2143 0.0
C1293 C 0.48785 0.39642 0.20646 0.0
C1294 C 0.48958 0.3955 0.18951 0.0
C1295 C 0.468 0.38607 0.23233 0.0
C1296 C 0.47051 0.40096 0.24144 0.0
C1297 C 0.46514 0.37043 0.24051 0.0
C1298 C 0.46283 0.35439 0.23146 0.0
C1299 C 0.47883 0.35376 0.2208 0.0
C1300 C 0.47634 0.3387 0.21206 0.0
C1301 C 0.458 0.32412 0.21402 0.0
C1302 C 0.44215 0.32456 0.22475 0.0
C1303 C 0.44455 0.33961 0.23348 0.0
H1304 H 0.4561 0.31247 0.20724 0.0
H1305 H 0.47611 0.45824 0.29133 0.0
H1306 H 0.08807 0.59258 0.68156 0.0
H1307 H 0.08446 0.59275 0.71125 0.0
H1308 H 0.07403 0.64089 0.70845 0.0
H1309 H 0.07843 0.64113 0.67876 0.0
H1310 H 0.10307 0.64248 0.73078 0.0
H1311 H 0.03362 0.60316 0.71818 0.0
H1312 H 0.00682 0.57777 0.70541 0.0
H1313 H 0.03184 0.54439 0.73123 0.0
H1314 H 0.059 0.5696 0.74399 0.0
H1315 H 0.08004 0.64279 0.81541 0.0
H1316 H 0.07561 0.64176 0.78571 0.0
H1317 H 0.09026 0.59545 0.78377 0.0
H1318 H 0.09504 0.5965 0.81342 0.0
H1319 H 0.05647 0.5936 0.76397 0.0
H1320 H 0.1275 0.63295 0.77455 0.0
H1321 H 0.15454 0.65827 0.78724 0.0
H1322 H 0.12632 0.69151 0.76493 0.0
H1323 H 0.09891 0.66634 0.75229 0.0
C1324 C 0.08497 0.60319 0.68726 0.0
C1325 C 0.08364 0.61689 0.67782 0.0
C1326 C 0.08266 0.60317 0.70421 0.0
C1327 C 0.07878 0.61675 0.71205 0.0
C1328 C 0.07694 0.63025 0.70263 0.0
C1329 C 0.0793 0.6303 0.68566 0.0
C1330 C 0.07816 0.61746 0.73013 0.0
C1331 C 0.09256 0.63193 0.73803 0.0
C1332 C 0.06482 0.60352 0.73957 0.0
C1333 C 0.04847 0.5883 0.73194 0.0
C1334 C 0.03352 0.59042 0.72104 0.0
C1335 C 0.01824 0.57605 0.71382 0.0
C1336 C 0.01765 0.55948 0.71748 0.0
C1337 C 0.03232 0.55723 0.7284 0.0
C1338 C 0.04765 0.57156 0.73565 0.0
C1339 C 0.08243 0.63244 0.80866 0.0
C1340 C 0.08805 0.61979 0.81677 0.0
C1341 C 0.07978 0.63182 0.79171 0.0
C1342 C 0.08277 0.61861 0.78257 0.0
C1343 C 0.08781 0.60572 0.79064 0.0
C1344 C 0.0905 0.60633 0.80758 0.0
C1345 C 0.08143 0.61855 0.76452 0.0
C1346 C 0.06675 0.6042 0.75667 0.0
C1347 C 0.09451 0.6326 0.75509 0.0
C1348 C 0.11102 0.64775 0.76263 0.0
C1349 C 0.12695 0.64565 0.77246 0.0
C1350 C 0.14236 0.65997 0.77963 0.0
C1351 C 0.14211 0.67649 0.77694 0.0
C1352 C 0.12647 0.67871 0.76703 0.0
C1353 C 0.111 0.66442 0.75986 0.0
H1354 H 0.15406 0.68756 0.78249 0.0
H1355 H 0.00581 0.54837 0.71188 0.0
H1356 H 0.57932 0.068 0.00811 0.0
H1357 H 0.56 0.0456 0.98876 0.0
H1358 H 0.56019 0.00653 0.02333 0.0
H1359 H 0.58013 0.02895 0.04272 0.0
H1360 H 0.56064 0.9969 0.98918 0.0
H1361 H 0.52263 0.01982 0.02709 0.0
H1362 H 0.51557 0.04368 0.04066 0.0
H1363 H 0.50031 0.0605 0.99431 0.0
H1364 H 0.50778 0.03694 0.98042 0.0
H1365 H 0.4627 0.92998 0.97327 0.0
H1366 H 0.49207 0.95265 0.9865 0.0
H1367 H 0.48494 0.99007 0.95279 0.0
H1368 H 0.45524 0.96745 0.93963 0.0
H1369 H 0.48958 0.00125 0.98472 0.0
H1370 H 0.5241 0.97581 0.94718 0.0
H1371 H 0.53173 0.95197 0.93411 0.0
H1372 H 0.55313 0.93931 0.98006 0.0
H1373 H 0.5453 0.96291 0.99348 0.0
C1374 C 0.57613 0.05468 0.01136 0.0
C1375 C 0.58087 0.0502 0.02706 0.0
C1376 C 0.56502 0.0419 0.00029 0.0
C1377 C 0.55839 0.02451 0.00481 0.0
C1378 C 0.56513 0.01993 0.01971 0.0
C1379 C 0.5763 0.03273 0.03081 0.0
C1380 C 0.54131 0.01157 0.99558 0.0
C1381 C 0.54506 -0.00227 0.98823 0.0
C1382 C 0.52111 0.01288 0.99431 0.0
C1383 C 0.51599 0.02674 0.00269 0.0
C1384 C 0.51792 0.02868 0.01978 0.0
C1385 C 0.51384 0.04215 0.02753 0.0
C1386 C 0.50754 0.05362 0.01835 0.0
C1387 C 0.50523 0.05161 0.0014 0.0
C1388 C 0.5094 0.03821 0.99358 0.0
C1389 C 0.4672 0.94308 0.96883 0.0
C1390 C 0.4567 0.94701 0.95547 0.0
C1391 C 0.48411 0.95595 0.97626 0.0
C1392 C 0.4908 0.97293 0.97043 0.0
C1393 C 0.48004 0.97699 0.95735 0.0
C1394 C 0.46317 0.9641 0.94985 0.0
C1395 C 0.50883 0.98649 0.97821 0.0
C1396 C 0.5052 0.00045 0.98543 0.0
C1397 C 0.52905 0.98518 0.97942 0.0
C1398 C 0.53393 0.97104 0.97137 0.0
C1399 C 0.53027 0.96786 0.95453 0.0
C1400 C 0.53466 0.9544 0.94705 0.0
C1401 C 0.54287 0.94411 0.95626 0.0
C1402 C 0.54675 0.94728 0.97295 0.0
C1403 C 0.54236 0.96071 0.9805 0.0
H1404 H 0.54625 0.9337 0.95044 0.0
H1405 H 0.50438 0.06403 0.02437 0.0
H1406 H 0.50271 0.53957 0.55694 0.0
H1407 H 0.49955 0.51475 0.53986 0.0
H1408 H 0.52694 0.54854 0.49928 0.0
H1409 H 0.53035 0.5736 0.51643 0.0
H1410 H 0.49129 0.52199 0.49053 0.0
H1411 H 0.55546 0.52854 0.51896 0.0
H1412 H 0.57864 0.53199 0.54299 0.0
H1413 H 0.53727 0.48334 0.56184 0.0
H1414 H 0.51367 0.4797 0.53804 0.0
H1415 H 0.50244 0.45538 0.44084 0.0
H1416 H 0.50813 0.48167 0.45657 0.0
H1417 H 0.4841 0.45118 0.49982 0.0
H1418 H 0.47863 0.42481 0.48414 0.0
H1419 H 0.51986 0.47705 0.50634 0.0
H1420 H 0.45488 0.47105 0.47875 0.0
H1421 H 0.43136 0.46753 0.45492 0.0
H1422 H 0.47391 0.51501 0.43469 0.0
H1423 H 0.49783 0.5187 0.45831 0.0
C1424 C 0.50848 0.54178 0.54449 0.0
C1425 C 0.51694 0.55858 0.53807 0.0
C1426 C 0.50659 0.52757 0.53472 0.0
C1427 C 0.51321 0.52983 0.51836 0.0
C1428 C 0.52176 0.54655 0.5119 0.0
C1429 C 0.52366 0.56082 0.52168 0.0
C1430 C 0.51037 0.51461 0.50791 0.0
C1431 C 0.49783 0.51229 0.49381 0.0
C1432 C 0.51849 0.5018 0.51246 0.0
C1433 C 0.5327 0.50392 0.52677 0.0
C1434 C 0.55121 0.51864 0.52829 0.0
C1435 C 0.56445 0.52061 0.54186 0.0
C1436 C 0.55941 0.50791 0.55395 0.0
C1437 C 0.54115 0.49318 0.55248 0.0
C1438 C 0.52785 0.49114 0.53894 0.0
C1439 C 0.49802 0.45428 0.45364 0.0
C1440 C 0.48998 0.43807 0.46127 0.0
C1441 C 0.50132 0.4693 0.46262 0.0
C1442 C 0.49637 0.46837 0.47934 0.0
C1443 C 0.48807 0.45218 0.48693 0.0
C1444 C 0.48492 0.43715 0.47799 0.0
C1445 C 0.50055 0.4843 0.48906 0.0
C1446 C 0.51338 0.48677 0.50301 0.0
C1447 C 0.49265 0.49723 0.4844 0.0
C1448 C 0.47824 0.49506 0.47022 0.0
C1449 C 0.4593 0.48068 0.46916 0.0
C1450 C 0.44588 0.47866 0.4557 0.0
C1451 C 0.45117 0.49102 0.44328 0.0
C1452 C 0.46985 0.50544 0.44431 0.0
C1453 C 0.48333 0.50751 0.45774 0.0
H1454 H 0.44076 0.48943 0.43287 0.0
H1455 H 0.56967 0.50946 0.56445 0.0
H1456 H 0.03348 0.53737 0.93864 0.0
H1457 H 0.01832 0.51269 0.95671 0.0
H1458 H 0.99502 0.54326 0.98856 0.0
H1459 H 0.0102 0.5681 0.97044 0.0
H1460 H 0.01841 0.52856 0.00488 0.0
H1461 H 0.96089 0.5097 0.96683 0.0
H1462 H 0.9438 0.50235 0.93982 0.0
H1463 H 0.97037 0.46303 0.93363 0.0
H1464 H 0.98788 0.47029 0.96051 0.0
H1465 H 0.95768 0.45963 0.05662 0.0
H1466 H 0.97225 0.4844 0.03854 0.0
H1467 H 0.99654 0.45453 0.00665 0.0
H1468 H 0.98208 0.42964 0.0248 0.0
H1469 H 0.97232 0.46889 0.99041 0.0
H1470 H 0.03008 0.4879 0.02827 0.0
H1471 H 0.04723 0.49521 0.05526 0.0
H1472 H 0.02023 0.53422 0.06176 0.0
H1473 H 0.00267 0.52699 0.03489 0.0
C1474 C 0.02452 0.53869 0.94919 0.0
C1475 C 0.02304 0.55466 0.95317 0.0
C1476 C 0.01592 0.52458 0.95955 0.0
C1477 C 0.00556 0.52617 0.97396 0.0
C1478 C 0.00306 0.54183 0.97751 0.0
C1479 C 0.0117 0.55597 0.96717 0.0
C1480 C -0.00073 0.51204 0.98607 0.0
C1481 C 0.00802 0.51556 0.00182 0.0
C1482 C 0.98631 0.49501 0.98184 0.0
C1483 C 0.97586 0.49065 0.96563 0.0
C1484 C 0.96325 0.49959 0.95965 0.0
C1485 C 0.95345 0.49541 0.94437 0.0
C1486 C 0.95604 0.48226 0.935 0.0
C1487 C 0.9684 0.47323 0.94089 0.0
C1488 C 0.97824 0.47735 0.95616 0.0
C1489 C 0.96672 0.45849 0.04605 0.0
C1490 C 0.96868 0.44269 0.04208 0.0
C1491 C 0.97496 0.47264 0.03569 0.0
C1492 C 0.98541 0.47126 0.02126 0.0
C1493 C 0.98839 0.45579 0.0177 0.0
C1494 C 0.98015 0.44162 0.02806 0.0
C1495 C 0.99148 0.48541 0.0092 0.0
C1496 C 0.98269 0.48189 0.99346 0.0
C1497 C 0.0044 0.50244 0.01343 0.0
C1498 C 0.01489 0.50678 0.02963 0.0
C1499 C 0.02764 0.49793 0.03552 0.0
C1500 C 0.03747 0.50208 0.05078 0.0
C1501 C 0.03478 0.51514 0.06024 0.0
C1502 C 0.02228 0.5241 0.05443 0.0
C1503 C 0.0124 0.51999 0.03918 0.0
H1504 H 0.04241 0.51834 0.07205 0.0
H1505 H 0.94843 0.47905 0.92318 0.0
H1506 H 0.56794 0.04148 0.46071 0.0
H1507 H 0.54398 0.01667 0.47525 0.0
H1508 H 0.49537 0.01136 0.43926 0.0
H1509 H 0.51887 0.03702 0.42524 0.0
H1510 H 0.47964 0.01118 0.46746 0.0
H1511 H 0.51811 0.97958 0.44471 0.0
H1512 H 0.54891 0.97271 0.43577 0.0
H1513 H 0.56952 0.97418 0.48558 0.0
H1514 H 0.53902 0.98131 0.49482 0.0
H1515 H 0.4208 0.93675 0.5186 0.0
H1516 H 0.43784 0.95429 0.49497 0.0
H1517 H 0.49131 0.98294 0.525 0.0
H1518 H 0.47408 0.96604 0.54886 0.0
H1519 H 0.49932 0.96584 0.49469 0.0
H1520 H 0.46235 0.00284 0.51514 0.0
H1521 H 0.43016 0.00837 0.52281 0.0
H1522 H 0.40481 0.99386 0.47461 0.0
H1523 H 0.43677 0.98803 0.46673 0.0
C1524 C 0.55221 0.03498 0.45581 0.0
C1525 C 0.54522 0.0414 0.44198 0.0
C1526 C 0.5386 0.02057 0.46399 0.0
C1527 C 0.51789 0.01202 0.45827 0.0
C1528 C 0.51129 0.01775 0.44387 0.0
C1529 C 0.52483 0.03234 0.43579 0.0
C1530 C 0.50257 -0.00134 0.46857 0.0
C1531 C 0.48372 0.00097 0.47305 0.0
C1532 C 0.5078 0.98531 0.47591 0.0
C1533 C 0.52627 0.98105 0.47045 0.0
C1534 C 0.52928 0.97856 0.45376 0.0
C1535 C 0.54668 0.9746 0.44864 0.0
C1536 C 0.56117 0.97302 0.4601 0.0
C1537 C 0.55827 0.97539 0.47672 0.0
C1538 C 0.5409 0.97936 0.48191 0.0
C1539 C 0.43588 0.94714 0.52031 0.0
C1540 C 0.44616 0.94998 0.5356 0.0
C1541 C 0.44565 0.95699 0.50677 0.0
C1542 C 0.46584 0.96968 0.50832 0.0
C1543 C 0.47577 0.97302 0.52363 0.0
C1544 C 0.46593 0.96336 0.53721 0.0
C1545 C 0.47725 0.97903 0.49391 0.0
C1546 C 0.49517 0.97582 0.48869 0.0
C1547 C 0.47096 0.99127 0.48565 0.0
C1548 C 0.4518 0.99478 0.49042 0.0
C1549 C 0.44981 0.00066 0.50624 0.0
C1550 C 0.43164 0.00389 0.51061 0.0
C1551 C 0.41541 0.00141 0.49922 0.0
C1552 C 0.41736 0.99574 0.48342 0.0
C1553 C 0.4355 0.99248 0.479 0.0
H1554 H 0.40136 0.00393 0.50262 0.0
H1555 H 0.57464 0.96995 0.45611 0.0
H1556 H 0.49229 0.56035 0.97999 0.0
H1557 H 0.48674 0.53359 0.99473 0.0
H1558 H 0.53054 0.5224 0.96247 0.0
H1559 H 0.53594 0.54917 0.94748 0.0
H1560 H 0.49605 0.4948 0.96614 0.0
H1561 H 0.54376 0.53541 0.00248 0.0
H1562 H 0.55743 0.56159 0.01952 0.0
H1563 H 0.50143 0.5434 0.04918 0.0
H1564 H 0.48728 0.51721 0.03218 0.0
H1565 H 0.50765 0.4284 0.01672 0.0
H1566 H 0.51275 0.45417 0.00047 0.0
H1567 H 0.46341 0.4635 0.02767 0.0
H1568 H 0.45765 0.43738 0.04369 0.0
H1569 H 0.50144 0.49186 0.02648 0.0
H1570 H 0.45415 0.45098 0.98948 0.0
H1571 H 0.44161 0.42475 0.97246 0.0
H1572 H 0.49874 0.44351 0.94412 0.0
H1573 H 0.51177 0.46976 0.96113 0.0
C1574 C 0.50105 0.55236 0.97622 0.0
C1575 C 0.51468 0.5569 0.96266 0.0
C1576 C 0.49784 0.53704 0.98464 0.0
C1577 C 0.50841 0.52607 0.97983 0.0
C1578 C 0.52222 0.53067 0.96639 0.0
C1579 C 0.52531 0.54595 0.95786 0.0
C1580 C 0.50436 0.50951 0.98847 0.0
C1581 C 0.49757 0.49419 0.97931 0.0
C1582 C 0.5059 0.50868 0.00569 0.0
C1583 C 0.51437 0.52441 0.01596 0.0
C1584 C 0.53428 0.53705 0.01256 0.0
C1585 C 0.54213 0.55188 0.02222 0.0
C1586 C 0.53029 0.55418 0.0354 0.0
C1587 C 0.51058 0.54162 0.03896 0.0
C1588 C 0.50265 0.52677 0.02933 0.0
C1589 C 0.49744 0.43562 0.01898 0.0
C1590 C 0.48225 0.4308 0.03156 0.0
C1591 C 0.50049 0.45043 0.00973 0.0
C1592 C 0.48848 0.46072 0.01291 0.0
C1593 C 0.47291 0.45574 0.02511 0.0
C1594 C 0.4697 0.44085 0.03428 0.0
C1595 C 0.49304 0.47723 0.00415 0.0
C1596 C 0.49997 0.49253 0.01331 0.0
C1597 C 0.49183 0.47804 0.98694 0.0
C1598 C 0.48403 0.46226 0.97669 0.0
C1599 C 0.46413 0.44944 0.97972 0.0
C1600 C 0.45691 0.43458 0.97005 0.0
C1601 C 0.46939 0.43244 0.95725 0.0
C1602 C 0.4891 0.44517 0.95406 0.0
C1603 C 0.4964 0.46006 0.9637 0.0
H1604 H 0.46377 0.42093 0.94977 0.0
H1605 H 0.53639 0.56567 0.04287 0.0
H1606 H 0.9937 0.4331 0.46274 0.0
H1607 H 0.0093 0.45899 0.47946 0.0
H1608 H 0.98439 0.48741 0.44649 0.0
H1609 H 0.96828 0.46155 0.42994 0.0
H1610 H 0.02544 0.50716 0.46106 0.0
H1611 H 0.95447 0.46984 0.4752 0.0
H1612 H 0.92739 0.44142 0.48138 0.0
H1613 H 0.96299 0.43668 0.52337 0.0
H1614 H 0.99054 0.46492 0.5172 0.0
H1615 H 0.02187 0.57122 0.51643 0.0
H1616 H 0.0086 0.54728 0.49702 0.0
H1617 H 0.02678 0.51463 0.53004 0.0
H1618 H 0.04039 0.53844 0.54932 0.0
H1619 H 0.98864 0.49742 0.51472 0.0
H1620 H 0.05953 0.53457 0.50083 0.0
H1621 H 0.08729 0.56257 0.49441 0.0
H1622 H 0.0524 0.56756 0.45208 0.0
H1623 H 0.02422 0.5397 0.45843 0.0
C1624 C 0.99192 0.44495 0.45886 0.0
C1625 C 0.97941 0.4452 0.44522 0.0
C1626 C 0.00094 0.45972 0.46835 0.0
C1627 C 0.99763 0.47493 0.46429 0.0
C1628 C 0.98707 0.47574 0.44977 0.0
C1629 C 0.97792 0.46094 0.44032 0.0
C1630 C 0.00218 0.48894 0.47637 0.0
C1631 C 0.01729 0.50514 0.47272 0.0
C1632 C 0.99154 0.48612 0.49159 0.0
C1633 C 0.97466 0.46941 0.49565 0.0
C1634 C 0.95659 0.46268 0.48569 0.0
C1635 C 0.94116 0.44661 0.48918 0.0
C1636 C 0.94349 0.43724 0.50274 0.0
C1637 C 0.96122 0.44395 0.51286 0.0
C1638 C 0.97675 0.45999 0.50937 0.0
C1639 C 0.02281 0.55888 0.51962 0.0
C1640 C 0.03235 0.55677 0.53434 0.0
C1641 C 0.0152 0.54524 0.50856 0.0
C1642 C 0.01706 0.52933 0.51205 0.0
C1643 C 0.02523 0.52684 0.52717 0.0
C1644 C 0.0329 0.54046 0.5382 0.0
C1645 C 0.01205 0.51569 0.4995 0.0
C1646 C 0.99678 0.49951 0.50305 0.0
C1647 C 0.02257 0.51855 0.48421 0.0
C1648 C 0.03966 0.53515 0.4802 0.0
C1649 C 0.0577 0.5417 0.49022 0.0
C1650 C 0.07352 0.55754 0.48659 0.0
C1651 C 0.07158 0.56686 0.47287 0.0
C1652 C 0.05386 0.56034 0.46272 0.0
C1653 C 0.03796 0.54452 0.46633 0.0
H1654 H 0.08384 0.57913 0.47008 0.0
H1655 H 0.93153 0.42479 0.50542 0.0
H1656 H 0.50316 0.16157 0.08813 0.0
H1657 H 0.48238 0.17961 0.08325 0.0
H1658 H 0.5111 0.19319 0.03568 0.0
H1659 H 0.53301 0.176 0.04092 0.0
H1660 H 0.51334 0.2207 0.05055 0.0
H1661 H 0.45675 0.16826 0.04083 0.0
H1662 H 0.43298 0.13821 0.04537 0.0
H1663 H 0.41143 0.15293 0.09032 0.0
H1664 H 0.4353 0.18303 0.0862 0.0
H1665 H 0.45962 0.27801 0.04599 0.0
H1666 H 0.46199 0.25031 0.03806 0.0
H1667 H 0.45523 0.23439 0.08858 0.0
H1668 H 0.45301 0.26206 0.09652 0.0
H1669 H 0.43779 0.20632 0.06517 0.0
H1670 H 0.50184 0.25686 0.07669 0.0
H1671 H 0.52473 0.28707 0.07153 0.0
H1672 H 0.53127 0.27486 0.02127 0.0
H1673 H 0.50799 0.24464 0.02607 0.0
C1674 C 0.50509 0.16837 0.07661 0.0
C1675 C 0.52 0.16748 0.06502 0.0
C1676 C 0.49287 0.17846 0.0737 0.0
C1677 C 0.49494 0.18763 0.05899 0.0
C1678 C 0.50915 0.18619 0.04709 0.0
C1679 C 0.52157 0.17623 0.05007 0.0
C1680 C 0.48413 0.20022 0.05697 0.0
C1681 C 0.49665 0.21736 0.05327 0.0
C1682 C 0.46239 0.19603 0.06067 0.0
C1683 C 0.44793 0.17793 0.06323 0.0
C1684 C 0.44706 0.16508 0.05175 0.0
C1685 C 0.43354 0.14803 0.05424 0.0
C1686 C 0.42072 0.14366 0.06813 0.0
C1687 C 0.42136 0.15634 0.07956 0.0
C1688 C 0.43486 0.17341 0.07713 0.0
C1689 C 0.45771 0.26828 0.05527 0.0
C1690 C 0.45632 0.2721 0.07185 0.0
C1691 C 0.45908 0.25249 0.05074 0.0
C1692 C 0.459 0.24042 0.06277 0.0
C1693 C 0.45525 0.24352 0.07913 0.0
C1694 C 0.45411 0.25933 0.08366 0.0
C1695 C 0.46715 0.22655 0.0591 0.0
C1696 C 0.45425 0.20933 0.06188 0.0
C1697 C 0.48849 0.23056 0.05442 0.0
C1698 C 0.50301 0.24857 0.05168 0.0
C1699 C 0.50806 0.26065 0.06452 0.0
C1700 C 0.52109 0.27777 0.06166 0.0
C1701 C 0.52941 0.28289 0.04607 0.0
C1702 C 0.52477 0.27088 0.03333 0.0
C1703 C 0.51165 0.25377 0.0361 0.0
H1704 H 0.53951 0.29614 0.04387 0.0
H1705 H 0.41026 0.13045 0.07004 0.0
H1706 H 0.37135 0.58113 0.58652 0.0
H1707 H 0.33431 0.57866 0.58376 0.0
H1708 H 0.35321 0.63381 0.58911 0.0
H1709 H 0.39004 0.6363 0.59203 0.0
H1710 H 0.32035 0.61799 0.60783 0.0
H1711 H 0.33925 0.61294 0.55161 0.0
H1712 H 0.3522 0.60022 0.52865 0.0
H1713 H 0.30211 0.55153 0.53669 0.0
H1714 H 0.28903 0.56391 0.55985 0.0
H1715 H 0.23305 0.63603 0.58005 0.0
H1716 H 0.26782 0.63352 0.58108 0.0
H1717 H 0.23847 0.57808 0.5806 0.0
H1718 H 0.20344 0.58048 0.57922 0.0
H1719 H 0.27468 0.59075 0.56047 0.0
H1720 H 0.25461 0.59649 0.61562 0.0
H1721 H 0.24139 0.60955 0.63816 0.0
H1722 H 0.29386 0.65719 0.63188 0.0
H1723 H 0.30723 0.64449 0.60912 0.0
C1724 C 0.36757 0.59271 0.58699 0.0
C1725 C 0.38355 0.6089 0.5896 0.0
C1726 C 0.34643 0.59129 0.58539 0.0
C1727 C 0.34099 0.60607 0.58614 0.0
C1728 C 0.357 0.62222 0.58858 0.0
C1729 C 0.37804 0.62363 0.5903 0.0
C1730 C 0.31863 0.60484 0.58485 0.0
C1731 C 0.31047 0.61217 0.59738 0.0
C1732 C 0.30546 0.59675 0.5715 0.0
C1733 C 0.31332 0.5893 0.55758 0.0
C1734 C 0.33111 0.59949 0.54857 0.0
C1735 C 0.33845 0.59234 0.5355 0.0
C1736 C 0.32802 0.57506 0.53124 0.0
C1737 C 0.31019 0.5649 0.54002 0.0
C1738 C 0.3028 0.57198 0.55311 0.0
C1739 C 0.23396 0.62329 0.57987 0.0
C1740 C 0.21548 0.60845 0.57959 0.0
C1741 C 0.25384 0.62188 0.58059 0.0
C1742 C 0.25567 0.60562 0.58111 0.0
C1743 C 0.23735 0.59075 0.58027 0.0
C1744 C 0.21738 0.59214 0.57961 0.0
C1745 C 0.27676 0.60432 0.58322 0.0
C1746 C 0.28459 0.59645 0.57094 0.0
C1747 C 0.2897 0.61194 0.59679 0.0
C1748 C 0.28183 0.61957 0.61058 0.0
C1749 C 0.26325 0.60979 0.61897 0.0
C1750 C 0.25574 0.61713 0.63179 0.0
C1751 C 0.26676 0.6342 0.63642 0.0
C1752 C 0.28534 0.64397 0.62827 0.0
C1753 C 0.2929 0.6367 0.61542 0.0
H1754 H 0.26091 0.63986 0.64636 0.0
H1755 H 0.33372 0.56956 0.52112 0.0
H1756 H 0.88064 0.27081 0.06164 0.0
H1757 H 0.85951 0.23993 0.06035 0.0
H1758 H 0.80607 0.2516 0.04294 0.0
H1759 H 0.82645 0.28206 0.04475 0.0
H1760 H 0.82591 0.22622 0.07955 0.0
H1761 H 0.77345 0.22116 0.02098 0.0
H1762 H 0.77897 0.22968 0.99201 0.0
H1763 H 0.84312 0.23171 0.99487 0.0
H1764 H 0.83793 0.22294 0.0238 0.0
H1765 H 0.71853 0.19478 0.0902 0.0
H1766 H 0.75602 0.20887 0.08414 0.0
H1767 H 0.75414 0.16605 0.05356 0.0
H1768 H 0.7165 0.15159 0.05987 0.0
H1769 H 0.77178 0.19632 0.03796 0.0
H1770 H 0.78391 0.17313 0.08737 0.0
H1771 H 0.77881 0.1642 0.11627 0.0
H1772 H 0.79692 0.21708 0.13117 0.0
H1773 H 0.8018 0.22634 0.10236 0.0
C1774 C 0.86449 0.26677 0.05727 0.0
C1775 C 0.85524 0.27901 0.05347 0.0
C1776 C 0.85253 0.24912 0.0564 0.0
C1777 C 0.83129 0.24345 0.05142 0.0
C1778 C 0.82258 0.25561 0.04644 0.0
C1779 C 0.83436 0.27316 0.04749 0.0
C1780 C 0.81683 0.22549 0.05423 0.0
C1781 C 0.81432 0.21942 0.07039 0.0
C1782 C 0.80218 0.21627 0.04213 0.0
C1783 C 0.80527 0.22135 0.02462 0.0
C1784 C 0.78868 0.22325 0.01542 0.0
C1785 C 0.79177 0.22817 -0.001 0.0
C1786 C 0.81138 0.23123 0.9916 0.0
C1787 C 0.82794 0.22936 0.00061 0.0
C1788 C 0.82494 0.22443 0.01704 0.0
C1789 C 0.72615 0.18813 0.08251 0.0
C1790 C 0.71449 0.1721 0.07546 0.0
C1791 C 0.74761 0.19619 0.07907 0.0
C1792 C 0.75791 0.18839 0.06856 0.0
C1793 C 0.74649 0.17223 0.06175 0.0
C1794 C 0.72497 0.16409 0.06527 0.0
C1795 C 0.77995 0.19821 0.06352 0.0
C1796 C 0.78383 0.20266 0.04697 0.0
C1797 C 0.79598 0.20583 0.07522 0.0
C1798 C 0.79326 0.20042 0.09265 0.0
C1799 C 0.78672 0.18286 0.0968 0.0
C1800 C 0.78387 0.17774 0.11317 0.0
C1801 C 0.78756 0.19007 0.12555 0.0
C1802 C 0.79412 0.20755 0.12157 0.0
C1803 C 0.79698 0.21274 0.10521 0.0
H1804 H 0.78532 0.18608 0.13822 0.0
H1805 H 0.81374 0.23506 0.97889 0.0
H1806 H 0.48792 0.82745 0.58762 0.0
H1807 H 0.50884 0.80957 0.58202 0.0
H1808 H 0.47398 0.79172 0.53729 0.0
H1809 H 0.45235 0.80903 0.54318 0.0
H1810 H 0.47475 0.76564 0.55443 0.0
H1811 H 0.52711 0.81775 0.53678 0.0
H1812 H 0.55023 0.84839 0.5378 0.0
H1813 H 0.58092 0.83887 0.58068 0.0
H1814 H 0.55776 0.80821 0.58008 0.0
H1815 H 0.53013 0.71031 0.54487 0.0
H1816 H 0.52482 0.73691 0.53691 0.0
H1817 H 0.54191 0.75711 0.58561 0.0
H1818 H 0.54697 0.7305 0.5936 0.0
H1819 H 0.55267 0.78322 0.56003 0.0
H1820 H 0.49413 0.73314 0.58039 0.0
H1821 H 0.47075 0.70254 0.57958 0.0
H1822 H 0.45158 0.70906 0.53075 0.0
H1823 H 0.47524 0.73964 0.53115 0.0
C1824 C 0.48471 0.81973 0.57658 0.0
C1825 C 0.46832 0.81954 0.56593 0.0
C1826 C 0.49692 0.80972 0.57325 0.0
C1827 C 0.49317 0.79945 0.55912 0.0
C1828 C 0.47725 0.79963 0.54821 0.0
C1829 C 0.46496 0.8096 0.55156 0.0
C1830 C 0.50426 0.78714 0.55676 0.0
C1831 C 0.49184 0.7696 0.55517 0.0
C1832 C 0.52655 0.79222 0.558 0.0
C1833 C 0.54058 0.81067 0.55843 0.0
C1834 C 0.53867 0.8222 0.5465 0.0
C1835 C 0.55181 0.83958 0.54699 0.0
C1836 C 0.56702 0.84558 0.55931 0.0
C1837 C 0.56914 0.8342 0.57114 0.0
C1838 C 0.55602 0.81681 0.57072 0.0
C1839 C 0.53371 0.72079 0.5536 0.0
C1840 C 0.53886 0.71847 0.56983 0.0
C1841 C 0.53063 0.73592 0.54907 0.0
C1842 C 0.53277 0.74884 0.56074 0.0
C1843 C 0.54027 0.74731 0.57643 0.0
C1844 C 0.54309 0.73212 0.581 0.0
C1845 C 0.52306 0.76193 0.55793 0.0
C1846 C 0.53567 0.77949 0.55873 0.0
C1847 C 0.50091 0.75694 0.55592 0.0
C1848 C 0.48665 0.73859 0.55572 0.0
C1849 C 0.48509 0.728 0.56943 0.0
C1850 C 0.47178 0.71067 0.56905 0.0
C1851 C 0.45971 0.70386 0.55511 0.0
C1852 C 0.46097 0.71435 0.54152 0.0
C1853 C 0.47435 0.73167 0.54181 0.0
H1854 H 0.4493 0.69047 0.55487 0.0
H1855 H 0.57718 0.85904 0.55966 0.0
H1856 H 0.6241 0.39158 0.11055 0.0
H1857 H 0.66112 0.39509 0.10694 0.0
H1858 H 0.65229 0.39112 0.05463 0.0
H1859 H 0.61488 0.38652 0.0582 0.0
H1860 H 0.67301 0.37206 0.06347 0.0
H1861 H 0.68118 0.43015 0.07398 0.0
H1862 H 0.67627 0.4546 0.08816 0.0
H1863 H 0.70578 0.44404 0.13122 0.0
H1864 H 0.7106 0.41935 0.11738 0.0
H1865 H 0.7846 0.39277 0.05298 0.0
H1866 H 0.75013 0.39606 0.05187 0.0
H1867 H 0.74392 0.38943 0.10412 0.0
H1868 H 0.77783 0.38549 0.10535 0.0
H1869 H 0.73231 0.41685 0.09193 0.0
H1870 H 0.71975 0.35638 0.08095 0.0
H1871 H 0.72518 0.33276 0.06562 0.0
H1872 H 0.70449 0.34976 0.02145 0.0
H1873 H 0.69922 0.37364 0.0365 0.0
C1874 C 0.62996 0.39136 0.09826 0.0
C1875 C 0.61642 0.38869 0.08468 0.0
C1876 C 0.65127 0.39364 0.0962 0.0
C1877 C 0.65963 0.39363 0.08049 0.0
C1878 C 0.64625 0.39127 0.06687 0.0
C1879 C 0.62487 0.3888 0.06893 0.0
C1880 C 0.68196 0.39497 0.0784 0.0
C1881 C 0.686 0.38209 0.06941 0.0
C1882 C 0.69897 0.40796 0.08626 0.0
C1883 C 0.69611 0.4228 0.09467 0.0
C1884 C 0.68648 0.43295 0.08651 0.0
C1885 C 0.68374 0.44687 0.09449 0.0
C1886 C 0.69067 0.45085 0.11059 0.0
C1887 C 0.7004 0.44093 0.11875 0.0
C1888 C 0.70317 0.42699 0.11084 0.0
C1889 C 0.77587 0.3919 0.06424 0.0
C1890 C 0.78404 0.38881 0.07925 0.0
C1891 C 0.75626 0.39392 0.06358 0.0
C1892 C 0.74453 0.39297 0.07792 0.0
C1893 C 0.75284 0.39035 0.09294 0.0
C1894 C 0.7723 0.38817 0.0936 0.0
C1895 C 0.72308 0.39379 0.07731 0.0
C1896 C 0.71926 0.40704 0.08579 0.0
C1897 C 0.70632 0.38132 0.0688 0.0
C1898 C 0.70933 0.3669 0.0598 0.0
C1899 C 0.71652 0.35516 0.06794 0.0
C1900 C 0.71954 0.34171 0.05931 0.0
C1901 C 0.71524 0.33979 0.04256 0.0
C1902 C 0.70785 0.35128 0.03442 0.0
C1903 C 0.70484 0.36477 0.04299 0.0
H1904 H 0.71759 0.32937 0.0359 0.0
H1905 H 0.68853 0.46163 0.11675 0.0
H1906 H 0.14166 0.73002 0.58024 0.0
H1907 H 0.16484 0.75844 0.57116 0.0
H1908 H 0.16891 0.73781 0.52337 0.0
H1909 H 0.14615 0.70916 0.5326 0.0
H1910 H 0.20632 0.75112 0.53664 0.0
H1911 H 0.15115 0.77184 0.52767 0.0
H1912 H 0.11799 0.77686 0.53278 0.0
H1913 H 0.14494 0.80586 0.57597 0.0
H1914 H 0.17818 0.80081 0.57129 0.0
H1915 H 0.29552 0.82753 0.53274 0.0
H1916 H 0.25984 0.80906 0.5243 0.0
H1917 H 0.23717 0.81085 0.5733 0.0
H1918 H 0.27267 0.82923 0.58181 0.0
H1919 H 0.20687 0.80947 0.55002 0.0
H1920 H 0.25574 0.78 0.56298 0.0
H1921 H 0.28875 0.77431 0.55911 0.0
H1922 H 0.27233 0.76094 0.50889 0.0
H1923 H 0.23935 0.76681 0.51243 0.0
C1924 C 0.14703 0.73165 0.56766 0.0
C1925 C 0.14243 0.71734 0.55722 0.0
C1926 C 0.16008 0.74796 0.5624 0.0
C1927 C 0.16865 0.75029 0.54656 0.0
C1928 C 0.16244 0.73631 0.53563 0.0
C1929 C 0.14937 0.71996 0.54091 0.0
C1930 C 0.18713 0.76607 0.54284 0.0
C1931 C 0.20623 0.76395 0.53897 0.0
C1932 C 0.18717 0.78278 0.54618 0.0
C1933 C 0.16719 0.7859 0.54913 0.0
C1934 C 0.14998 0.77919 0.53833 0.0
C1935 C 0.13116 0.78206 0.54114 0.0
C1936 C 0.12936 0.79167 0.55469 0.0
C1937 C 0.14638 0.79844 0.56546 0.0
C1938 C 0.16523 0.79561 0.56271 0.0
C1939 C 0.28284 0.82418 0.54164 0.0
C1940 C 0.28694 0.82958 0.558 0.0
C1941 C 0.26247 0.81376 0.53677 0.0
C1942 C 0.24595 0.80845 0.54823 0.0
C1943 C 0.24968 0.81488 0.56425 0.0
C1944 C 0.27001 0.82534 0.56911 0.0
C1945 C 0.22582 0.79424 0.54445 0.0
C1946 C 0.2066 0.79669 0.54699 0.0
C1947 C 0.22557 0.77774 0.53999 0.0
C1948 C 0.24527 0.77406 0.5379 0.0
C1949 C 0.25926 0.77596 0.55109 0.0
C1950 C 0.27795 0.7727 0.54896 0.0
C1951 C 0.28267 0.76732 0.53375 0.0
C1952 C 0.26868 0.76515 0.52065 0.0
C1953 C 0.25 0.76846 0.5227 0.0
H1954 H 0.29714 0.76479 0.53212 0.0
H1955 H 0.11477 0.79388 0.55685 0.0
H1956 H 0.79391 0.40212 0.43917 0.0
H1957 H 0.75849 0.40403 0.43987 0.0
H1958 H 0.73924 0.36861 0.39929 0.0
H1959 H 0.77434 0.36642 0.39876 0.0
H1960 H 0.72798 0.3991 0.39674 0.0
H1961 H 0.72438 0.35279 0.43403 0.0
H1962 H 0.73588 0.3403 0.45789 0.0
H1963 H 0.7238 0.37704 0.4894 0.0
H1964 H 0.71253 0.38993 0.46565 0.0
H1965 H 0.61673 0.36246 0.39541 0.0
H1966 H 0.6544 0.36688 0.3975 0.0
H1967 H 0.66008 0.39923 0.43982 0.0
H1968 H 0.62233 0.39494 0.43771 0.0
H1969 H 0.67973 0.3744 0.44341 0.0
H1970 H 0.6796 0.41879 0.40716 0.0
H1971 H 0.66833 0.43191 0.38365 0.0
H1972 H 0.68793 0.40031 0.3507 0.0
H1973 H 0.69901 0.38678 0.37405 0.0
C1974 C 0.78209 0.39484 0.43039 0.0
C1975 C 0.78669 0.38404 0.41898 0.0
C1976 C 0.76194 0.39591 0.43081 0.0
C1977 C 0.74632 0.38643 0.41964 0.0
C1978 C 0.75111 0.37602 0.40798 0.0
C1979 C 0.77107 0.37471 0.40775 0.0
C1980 C 0.72469 0.38686 0.42028 0.0
C1981 C 0.71737 0.39363 0.40689 0.0
C1982 C 0.71116 0.38021 0.43378 0.0
C1983 C 0.7179 0.37247 0.44805 0.0
C1984 C 0.7244 0.35833 0.44602 0.0
C1985 C 0.73082 0.35115 0.45953 0.0
C1986 C 0.73064 0.35791 0.47515 0.0
C1987 C 0.72398 0.37184 0.47729 0.0
C1988 C 0.71757 0.37909 0.46381 0.0
C1989 C 0.626 0.37042 0.40521 0.0
C1990 C 0.61668 0.37838 0.41639 0.0
C1991 C 0.6475 0.37302 0.40634 0.0
C1992 C 0.66001 0.38348 0.41874 0.0
C1993 C 0.65067 0.39116 0.43014 0.0
C1994 C 0.6292 0.38876 0.42888 0.0
C1995 C 0.68283 0.38628 0.41968 0.0
C1996 C 0.6904 0.38011 0.43336 0.0
C1997 C 0.69666 0.39362 0.4065 0.0
C1998 C 0.68995 0.40164 0.39238 0.0
C1999 C 0.68131 0.41451 0.39491 0.0
C2000 C 0.675 0.42204 0.38161 0.0
C2001 C 0.67736 0.41691 0.36569 0.0
C2002 C 0.68608 0.40425 0.36304 0.0
C2003 C 0.6924 0.39665 0.37631 0.0
H2004 H 0.67248 0.42278 0.35541 0.0
H2005 H 0.7356 0.35233 0.48559 0.0
H2006 H 0.25579 0.83327 0.91122 0.0
H2007 H 0.21997 0.81488 0.91846 0.0
H2008 H 0.23877 0.81553 0.96896 0.0
H2009 H 0.27506 0.83295 0.9616 0.0
H2010 H 0.2228 0.78453 0.9591 0.0
H2011 H 0.19883 0.83132 0.95593 0.0
H2012 H 0.19499 0.85745 0.9445 0.0
H2013 H 0.16446 0.82903 0.90194 0.0
H2014 H 0.16839 0.80279 0.91298 0.0
H2015 H 0.13189 0.71269 0.96356 0.0
H2016 H 0.15081 0.74314 0.97024 0.0
H2017 H 0.15209 0.75602 0.91902 0.0
H2018 H 0.13221 0.72579 0.91252 0.0
H2019 H 0.15397 0.78333 0.93724 0.0
H2020 H 0.19014 0.74173 0.936 0.0
H2021 H 0.19559 0.71542 0.94534 0.0
H2022 H 0.20459 0.73479 0.99455 0.0
H2023 H 0.19905 0.76117 0.98547 0.0
C2024 C 0.2523 0.82966 0.92391 0.0
C2025 C 0.26847 0.83426 0.93574 0.0
C2026 C 0.23163 0.8194 0.92811 0.0
C2027 C 0.22656 0.81384 0.9443 0.0
C2028 C 0.24228 0.81967 0.95639 0.0
C2029 C 0.26306 0.82972 0.95215 0.0
C2030 C 0.20632 0.79953 0.94786 0.0
C2031 C 0.20763 0.78455 0.95484 0.0
C2032 C 0.18655 0.79932 0.94197 0.0
C2033 C 0.18395 0.81506 0.9353 0.0
C2034 C 0.1914 0.83065 0.9441 0.0
C2035 C 0.18919 0.84549 0.93768 0.0
C2036 C 0.17949 0.8449 0.9225 0.0
C2037 C 0.17194 0.82946 0.91371 0.0
C2038 C 0.17411 0.81459 0.92006 0.0
C2039 C 0.13547 0.7222 0.95388 0.0
C2040 C 0.13091 0.71705 0.93755 0.0
C2041 C 0.14628 0.73954 0.95767 0.0
C2042 C 0.1534 0.75176 0.94507 0.0
C2043 C 0.14684 0.74683 0.92894 0.0
C2044 C 0.13557 0.72956 0.92521 0.0
C2045 C 0.17086 0.76845 0.94797 0.0
C2046 C 0.16903 0.78373 0.94212 0.0
C2047 C 0.19036 0.769 0.9547 0.0
C2048 C 0.19395 0.75328 0.96011 0.0
C2049 C 0.19322 0.74032 0.94881 0.0
C2050 C 0.19632 0.72541 0.95406 0.0
C2051 C 0.20035 0.7234 0.97054 0.0
C2052 C 0.20141 0.73634 0.9818 0.0
C2053 C 0.1983 0.75128 0.97662 0.0
H2054 H 0.20271 0.71184 0.97458 0.0
H2055 H 0.17782 0.85641 0.91755 0.0
H2056 H 0.52953 0.17606 0.4568 0.0
H2057 H 0.50636 0.19234 0.46209 0.0
H2058 H 0.50871 0.20574 0.41102 0.0
H2059 H 0.53114 0.18912 0.40551 0.0
H2060 H 0.51991 0.23406 0.43246 0.0
H2061 H 0.46536 0.17809 0.42477 0.0
H2062 H 0.44669 0.14722 0.43062 0.0
H2063 H 0.43504 0.15947 0.47984 0.0
H2064 H 0.45393 0.19042 0.47434 0.0
H2065 H 0.43213 0.26072 0.41873 0.0
H2066 H 0.43997 0.23484 0.42469 0.0
H2067 H 0.47801 0.26051 0.4659 0.0
H2068 H 0.4707 0.28645 0.45987 0.0
H2069 H 0.44551 0.21181 0.45211 0.0
H2070 H 0.52599 0.26438 0.45452 0.0
H2071 H 0.54321 0.29525 0.44766 0.0
H2072 H 0.50171 0.28868 0.40646 0.0
H2073 H 0.48442 0.25778 0.41301 0.0
C2074 C 0.52481 0.18222 0.44665 0.0
C2075 C 0.53244 0.18148 0.43075 0.0
C2076 C 0.51161 0.19153 0.44971 0.0
C2077 C 0.50594 0.20025 0.43694 0.0
C2078 C 0.51307 0.19917 0.42105 0.0
C2079 C 0.52605 0.18979 0.41795 0.0
C2080 C 0.49377 0.21153 0.44014 0.0
C2081 C 0.50371 0.22916 0.43688 0.0
C2082 C 0.47264 0.20514 0.44589 0.0
C2083 C 0.46129 0.18655 0.4492 0.0
C2084 C 0.45901 0.17419 0.43689 0.0
C2085 C 0.44835 0.15668 0.44013 0.0
C2086 C 0.43975 0.15138 0.45561 0.0
C2087 C 0.44175 0.16359 0.46787 0.0
C2088 C 0.45242 0.18112 0.46469 0.0
C2089 C 0.4414 0.26058 0.42948 0.0
C2090 C 0.45129 0.27576 0.43854 0.0
C2091 C 0.44568 0.24572 0.43298 0.0
C2092 C 0.45987 0.24595 0.44554 0.0
C2093 C 0.46704 0.26015 0.45614 0.0
C2094 C 0.46282 0.27501 0.45264 0.0
C2095 C 0.47176 0.2342 0.44447 0.0
C2096 C 0.46184 0.21662 0.44802 0.0
C2097 C 0.49292 0.24051 0.43882 0.0
C2098 C 0.50386 0.25886 0.43433 0.0
C2099 C 0.52066 0.26953 0.44394 0.0
C2100 C 0.53039 0.28702 0.44013 0.0
C2101 C 0.5235 0.29393 0.42666 0.0
C2102 C 0.50697 0.28333 0.41692 0.0
C2103 C 0.49721 0.26584 0.42067 0.0
H2104 H 0.53099 0.30748 0.42375 0.0
H2105 H 0.43148 0.13782 0.4581 0.0
H2106 H 0.20371 0.58908 0.93356 0.0
H2107 H 0.23882 0.58675 0.9341 0.0
H2108 H 0.26431 0.63395 0.90653 0.0
H2109 H 0.22934 0.63633 0.90593 0.0
H2110 H 0.27572 0.6069 0.89425 0.0
H2111 H 0.27385 0.63493 0.94586 0.0
H2112 H 0.25895 0.63742 0.97284 0.0
H2113 H 0.26502 0.59001 0.98805 0.0
H2114 H 0.27969 0.58711 0.96106 0.0
H2115 H 0.38571 0.63394 0.90235 0.0
H2116 H 0.34865 0.63111 0.90307 0.0
H2117 H 0.33455 0.5874 0.93536 0.0
H2118 H 0.37195 0.59055 0.93517 0.0
H2119 H 0.31556 0.60884 0.9456 0.0
H2120 H 0.31985 0.58142 0.89556 0.0
H2121 H 0.33428 0.57786 0.86871 0.0
H2122 H 0.3227 0.62204 0.85043 0.0
H2123 H 0.30848 0.62603 0.87726 0.0
C2124 C 0.21683 0.59894 0.92763 0.0
C2125 C 0.21385 0.61292 0.91976 0.0
C2126 C 0.23684 0.59763 0.928 0.0
C2127 C 0.25412 0.61021 0.92039 0.0
C2128 C 0.25115 0.62413 0.91248 0.0
C2129 C 0.23123 0.62554 0.91225 0.0
C2130 C 0.27533 0.60887 0.92048 0.0
C2131 C 0.28454 0.60747 0.90545 0.0
C2132 C 0.28641 0.60895 0.93515 0.0
C2133 C 0.27762 0.6107 0.95138 0.0
C2134 C 0.27182 0.62495 0.9549 0.0
C2135 C 0.26346 0.62645 0.97021 0.0
C2136 C 0.26098 0.61385 0.98213 0.0
C2137 C 0.26691 0.59974 0.97879 0.0
C2138 C 0.27526 0.59817 0.96349 0.0
C2139 C 0.3748 0.6238 0.90973 0.0
C2140 C 0.38182 0.6125 0.91875 0.0
C2141 C 0.35355 0.62208 0.90998 0.0
C2142 C 0.33877 0.6089 0.91909 0.0
C2143 C 0.34568 0.59761 0.92818 0.0
C2144 C 0.36701 0.59934 0.92796 0.0
C2145 C 0.31623 0.60729 0.91932 0.0
C2146 C 0.30671 0.60808 0.93439 0.0
C2147 C 0.30473 0.60644 0.90468 0.0
C2148 C 0.31324 0.6041 0.88848 0.0
C2149 C 0.32053 0.59046 0.88586 0.0
C2150 C 0.32865 0.58835 0.87063 0.0
C2151 C 0.32945 0.59974 0.85788 0.0
C2152 C 0.32209 0.61324 0.86032 0.0
C2153 C 0.31397 0.61541 0.87554 0.0
H2154 H 0.33573 0.59808 0.8461 0.0
H2155 H 0.25451 0.61504 0.99398 0.0
H2156 H 0.71956 0.19664 0.41907 0.0
H2157 H 0.75719 0.21169 0.42398 0.0
H2158 H 0.75997 0.16788 0.45075 0.0
H2159 H 0.72185 0.15272 0.44613 0.0
H2160 H 0.78135 0.19892 0.46635 0.0
H2161 H 0.78255 0.17454 0.41473 0.0
H2162 H 0.77112 0.16544 0.3865 0.0
H2163 H 0.78732 0.2183 0.37219 0.0
H2164 H 0.79853 0.22774 0.40037 0.0
H2165 H 0.88569 0.26975 0.4291 0.0
H2166 H 0.86371 0.2393 0.43269 0.0
H2167 H 0.81924 0.25403 0.46107 0.0
H2168 H 0.8408 0.28412 0.4575 0.0
H2169 H 0.82712 0.2269 0.41936 0.0
H2170 H 0.78836 0.2241 0.4844 0.0
H2171 H 0.8004 0.23232 0.51265 0.0
H2172 H 0.8618 0.23168 0.5006 0.0
H2173 H 0.85007 0.22318 0.47232 0.0
C2174 C 0.72808 0.19024 0.42614 0.0
C2175 C 0.71774 0.17354 0.43227 0.0
C2176 C 0.74964 0.19876 0.42877 0.0
C2177 C 0.76141 0.19077 0.4375 0.0
C2178 C 0.75116 0.17418 0.44387 0.0
C2179 C 0.72947 0.16555 0.44116 0.0
C2180 C 0.78427 0.20031 0.44015 0.0
C2181 C 0.79159 0.20489 0.45615 0.0
C2182 C 0.79788 0.20738 0.4268 0.0
C2183 C 0.79142 0.20184 0.40971 0.0
C2184 C 0.78361 0.18423 0.40559 0.0
C2185 C 0.77715 0.17901 0.38958 0.0
C2186 C 0.7785 0.19128 0.37756 0.0
C2187 C 0.78633 0.20881 0.38151 0.0
C2188 C 0.79278 0.2141 0.3975 0.0
C2189 C 0.87149 0.26644 0.43645 0.0
C2190 C 0.86487 0.2794 0.44282 0.0
C2191 C 0.85903 0.24903 0.43859 0.0
C2192 C 0.83983 0.24432 0.44718 0.0
C2193 C 0.83419 0.25723 0.4547 0.0
C2194 C 0.84659 0.27455 0.45259 0.0
C2195 C 0.82359 0.22675 0.44558 0.0
C2196 C 0.81741 0.22056 0.4297 0.0
C2197 C 0.81126 0.21804 0.45907 0.0
C2198 C 0.8183 0.22298 0.47617 0.0
C2199 C 0.80437 0.22554 0.48778 0.0
C2200 C 0.81117 0.23031 0.50381 0.0
C2201 C 0.83185 0.23253 0.50842 0.0
C2202 C 0.84579 0.22998 0.49701 0.0
C2203 C 0.83908 0.22522 0.48096 0.0
H2204 H 0.83708 0.23623 0.52083 0.0
H2205 H 0.77348 0.18721 0.36518 0.0
H2206 H 0.54825 0.72927 0.91376 0.0
H2207 H 0.54423 0.75724 0.91369 0.0
H2208 H 0.51332 0.7458 0.96068 0.0
H2209 H 0.51874 0.7185 0.96137 0.0
H2210 H 0.50883 0.75942 0.91057 0.0
H2211 H 0.5089 0.77919 0.97967 0.0
H2212 H 0.53132 0.78211 0.00406 0.0
H2213 H 0.58463 0.78679 0.9735 0.0
H2214 H 0.56265 0.78417 0.94891 0.0
H2215 H 0.42712 0.78783 0.9266 0.0
H2216 H 0.45313 0.77385 0.92862 0.0
H2217 H 0.50265 0.82321 0.93674 0.0
H2218 H 0.47663 0.83735 0.93468 0.0
H2219 H 0.50775 0.79841 0.95621 0.0
H2220 H 0.49883 0.80619 0.90002 0.0
H2221 H 0.47967 0.80581 0.8743 0.0
H2222 H 0.45107 0.75064 0.87677 0.0
H2223 H 0.46979 0.7507 0.90265 0.0
C2224 C 0.54152 0.73304 0.92444 0.0
C2225 C 0.53342 0.72146 0.93744 0.0
C2226 C 0.53904 0.74902 0.92431 0.0
C2227 C 0.52826 0.75365 0.93708 0.0
C2228 C 0.52191 0.74275 0.95073 0.0
C2229 C 0.52472 0.72694 0.951 0.0
C2230 C 0.52018 0.76794 0.93491 0.0
C2231 C 0.50895 0.76811 0.9205 0.0
C2232 C 0.52069 0.77968 0.94763 0.0
C2233 C 0.53406 0.7814 0.96241 0.0
C2234 C 0.52544 0.78096 0.97813 0.0
C2235 C 0.53807 0.78253 0.992 0.0
C2236 C 0.55937 0.7846 0.99033 0.0
C2237 C 0.56811 0.78513 0.97478 0.0
C2238 C 0.55556 0.78357 0.96087 0.0
C2239 C 0.44354 0.79572 0.92883 0.0
C2240 C 0.44985 0.8137 0.93033 0.0
C2241 C 0.45838 0.78772 0.93 0.0
C2242 C 0.47987 0.79754 0.93254 0.0
C2243 C 0.48615 0.81542 0.93473 0.0
C2244 C 0.47126 0.82345 0.9336 0.0
C2245 C 0.49563 0.78897 0.93235 0.0
C2246 C 0.50819 0.78995 0.94623 0.0
C2247 C 0.49692 0.77863 0.91897 0.0
C2248 C 0.48565 0.77846 0.90334 0.0
C2249 C 0.48835 0.79398 0.89514 0.0
C2250 C 0.47757 0.79382 0.88053 0.0
C2251 C 0.46415 0.77821 0.87392 0.0
C2252 C 0.46148 0.76272 0.88191 0.0
C2253 C 0.47219 0.76281 0.89654 0.0
H2254 H 0.45582 0.77811 0.8626 0.0
H2255 H 0.56912 0.78581 0.00109 0.0
loop_
_geom_bond_atom_site_label_1
_geom_bond_atom_site_label_2
_geom_bond_distance
_geom_bond_site_symmetry_2
_ccdc_geom_bond_type
Li0 N17 1.990 . S
Li0 O60 1.956 . S
Li0 O61 1.970 . S
Li0 O62 1.961 . S
Li1 N25 1.990 . S
Li1 O60 1.970 . S
Li1 O61 1.956 . S
Li1 O63 1.961 . S
Li2 N47 1.990 . S
Li2 O60 1.961 . S
Li2 O62 1.956 . S
Li2 O63 1.970 . S
Li3 N53 1.990 . S
Li3 O61 1.961 . S
Li3 O62 1.970 . S
Li3 O63 1.956 . S
C4 C6 1.348 . S
C4 C7 1.356 . S
C4 O60 1.325 . S
N5 C8 1.314 . S
N5 C9 1.279 . S
C6 C4 1.348 . S
C6 C8 1.353 . S
C6 H64 0.929 . S
C7 C4 1.356 . S
C7 C9 1.358 . S
C7 H65 0.930 . S
C8 N5 1.314 . S
C8 C6 1.353 . S
C8 H66 0.930 . S
C9 N5 1.279 . S
C9 C7 1.358 . S
C9 H67 0.930 . S
C10 C13 1.348 . S
C10 C14 1.356 . S
C10 O61 1.325 . S
C11 N12 1.279 . S
C11 C14 1.358 . S
C11 H68 0.930 . S
N12 C11 1.279 . S
N12 C15 1.314 . S
C13 C10 1.348 . S
C13 C15 1.353 . S
C13 H69 0.929 . S
C14 C10 1.356 . S
C14 C11 1.358 . S
C14 H70 0.930 . S
C15 N12 1.314 . S
C15 C13 1.353 . S
C15 H71 0.930 . S
C16 N17 1.314 . S
C16 C21 1.353 . S
C16 H22 0.930 . S
N17 Li0 1.990 . S
N17 C16 1.314 . S
N17 C19 1.279 . S
C18 C19 1.358 . S
C18 C20 1.356 . S
C18 H72 0.930 . S
C19 N17 1.279 . S
C19 C18 1.358 . S
C19 H23 0.930 . S
C20 C18 1.356 . S
C20 C21 1.348 . S
C21 C16 1.353 . S
C21 C20 1.348 . S
C21 H73 0.929 . S
H22 C16 0.930 . S
H23 C19 0.930 . S
C24 N25 1.314 . S
C24 C26 1.353 . S
C24 H30 0.930 . S
N25 Li1 1.990 . S
N25 C24 1.314 . S
N25 C28 1.279 . S
C26 C24 1.353 . S
C26 C29 1.348 . S
C26 H74 0.929 . S
C27 C28 1.358 . S
C27 C29 1.356 . S
C27 H75 0.930 . S
C28 N25 1.279 . S
C28 C27 1.358 . S
C28 H31 0.930 . S
C29 C26 1.348 . S
C29 C27 1.356 . S
H30 C24 0.930 . S
H31 C28 0.930 . S
C32 C34 1.348 . S
C32 C35 1.356 . S
C32 O62 1.325 . S
N33 C36 1.314 . S
N33 C37 1.279 . S
C34 C32 1.348 . S
C34 C36 1.353 . S
C34 H76 0.929 . S
C35 C32 1.356 . S
C35 C37 1.358 . S
C35 H77 0.930 . S
C36 N33 1.314 . S
C36 C34 1.353 . S
C36 H78 0.930 . S
C37 N33 1.279 . S
C37 C35 1.358 . S
C37 H79 0.930 . S
C38 C39 1.348 . S
C38 C40 1.356 . S
C38 O63 1.325 . S
C39 C38 1.348 . S
C39 C41 1.353 . S
C39 H80 0.929 . S
C40 C38 1.356 . S
C40 C42 1.358 . S
C40 H81 0.930 . S
C41 C39 1.353 . S
C41 N43 1.314 . S
C41 H82 0.930 . S
C42 C40 1.358 . S
C42 N43 1.279 . S
C42 H83 0.930 . S
N43 C41 1.314 . S
N43 C42 1.279 . S
C44 C46 1.353 . S
C44 N47 1.314 . S
C44 H50 0.930 . S
C45 N47 1.279 . S
C45 C48 1.358 . S
C45 H51 0.930 . S
C46 C44 1.353 . S
C46 C49 1.348 . S
C46 H84 0.929 . S
N47 Li2 1.990 . S
N47 C44 1.314 . S
N47 C45 1.279 . S
C48 C45 1.358 . S
C48 C49 1.356 . S
C48 H85 0.930 . S
C49 C46 1.348 . S
C49 C48 1.356 . S
H50 C44 0.930 . S
H51 C45 0.930 . S
C52 N53 1.314 . S
C52 C54 1.353 . S
C52 H58 0.930 . S
N53 Li3 1.990 . S
N53 C52 1.314 . S
N53 C56 1.279 . S
C54 C52 1.353 . S
C54 C57 1.348 . S
C54 H86 0.929 . S
C55 C56 1.358 . S
C55 C57 1.356 . S
C55 H87 0.930 . S
C56 N53 1.279 . S
C56 C55 1.358 . S
C56 H59 0.930 . S
C57 C54 1.348 . S
C57 C55 1.356 . S
H58 C52 0.930 . S
H59 C56 0.930 . S
O60 Li0 1.956 . S
O60 Li1 1.970 . S
O60 Li2 1.961 . S
O60 C4 1.325 . S
O61 Li0 1.970 . S
O61 Li1 1.956 . S
O61 Li3 1.961 . S
O61 C10 1.325 . S
O62 Li0 1.961 . S
O62 Li2 1.956 . S
O62 Li3 1.970 . S
O62 C32 1.325 . S
O63 Li1 1.961 . S
O63 Li2 1.970 . S
O63 Li3 1.956 . S
O63 C38 1.325 . S
H64 C6 0.929 . S
H65 C7 0.930 . S
H66 C8 0.930 . S
H67 C9 0.930 . S
H68 C11 0.930 . S
H69 C13 0.929 . S
H70 C14 0.930 . S
H71 C15 0.930 . S
H72 C18 0.930 . S
H73 C21 0.929 . S
H74 C26 0.929 . S
H75 C27 0.930 . S
H76 C34 0.929 . S
H77 C35 0.930 . S
H78 C36 0.930 . S
H79 C37 0.930 . S
H80 C39 0.929 . S
H81 C40 0.930 . S
H82 C41 0.930 . S
H83 C42 0.930 . S
H84 C46 0.929 . S
H85 C48 0.930 . S
H86 C54 0.929 . S
H87 C55 0.930 . S
Li88 N105 1.990 . S
Li88 O148 1.956 . S
Li88 O149 1.970 . S
Li88 O150 1.961 . S
Li89 N113 1.990 . S
Li89 O148 1.970 . S
Li89 O149 1.956 . S
Li89 O151 1.961 . S
Li90 N135 1.990 . S
Li90 O148 1.961 . S
Li90 O150 1.956 . S
Li90 O151 1.970 . S
Li91 N141 1.990 . S
Li91 O149 1.961 . S
Li91 O150 1.970 . S
Li91 O151 1.956 . S
C92 C94 1.348 . S
C92 C95 1.356 . S
C92 O148 1.325 . S
N93 C96 1.314 . S
N93 C97 1.279 . S
C94 C92 1.348 . S
C94 C96 1.353 . S
C94 H152 0.929 . S
C95 C92 1.356 . S
C95 C97 1.358 . S
C95 H153 0.930 . S
C96 N93 1.314 . S
C96 C94 1.353 . S
C96 H154 0.930 . S
C97 N93 1.279 . S
C97 C95 1.358 . S
C97 H155 0.930 . S
C98 C101 1.348 . S
C98 C102 1.356 . S
C98 O149 1.325 . S
C99 N100 1.279 . S
C99 C102 1.358 . S
C99 H156 0.930 . S
N100 C99 1.279 . S
N100 C103 1.314 . S
C101 C98 1.348 . S
C101 C103 1.353 . S
C101 H157 0.929 . S
C102 C98 1.356 . S
C102 C99 1.358 . S
C102 H158 0.930 . S
C103 N100 1.314 . S
C103 C101 1.353 . S
C103 H159 0.930 . S
C104 N105 1.314 . S
C104 C109 1.353 . S
C104 H110 0.930 . S
N105 Li88 1.990 . S
N105 C104 1.314 . S
N105 C107 1.279 . S
C106 C107 1.358 . S
C106 C108 1.356 . S
C106 H160 0.930 . S
C107 N105 1.279 . S
C107 C106 1.358 . S
C107 H111 0.930 . S
C108 C106 1.356 . S
C108 C109 1.348 . S
C109 C104 1.353 . S
C109 C108 1.348 . S
C109 H161 0.929 . S
H110 C104 0.930 . S
H111 C107 0.930 . S
C112 N113 1.314 . S
C112 C114 1.353 . S
C112 H118 0.930 . S
N113 Li89 1.990 . S
N113 C112 1.314 . S
N113 C116 1.279 . S
C114 C112 1.353 . S
C114 C117 1.348 . S
C114 H162 0.929 . S
C115 C116 1.358 . S
C115 C117 1.356 . S
C115 H163 0.930 . S
C116 N113 1.279 . S
C116 C115 1.358 . S
C116 H119 0.930 . S
C117 C114 1.348 . S
C117 C115 1.356 . S
H118 C112 0.930 . S
H119 C116 0.930 . S
C120 C122 1.348 . S
C120 C123 1.356 . S
C120 O150 1.325 . S
N121 C124 1.314 . S
N121 C125 1.279 . S
C122 C120 1.348 . S
C122 C124 1.353 . S
C122 H164 0.929 . S
C123 C120 1.356 . S
C123 C125 1.358 . S
C123 H165 0.930 . S
C124 N121 1.314 . S
C124 C122 1.353 . S
C124 H166 0.930 . S
C125 N121 1.279 . S
C125 C123 1.358 . S
C125 H167 0.930 . S
C126 C127 1.348 . S
C126 C128 1.356 . S
C126 O151 1.325 . S
C127 C126 1.348 . S
C127 C129 1.353 . S
C127 H168 0.929 . S
C128 C126 1.356 . S
C128 C130 1.358 . S
C128 H169 0.930 . S
C129 C127 1.353 . S
C129 N131 1.314 . S
C129 H170 0.930 . S
C130 C128 1.358 . S
C130 N131 1.279 . S
C130 H171 0.930 . S
N131 C129 1.314 . S
N131 C130 1.279 . S
C132 C134 1.353 . S
C132 N135 1.314 . S
C132 H138 0.930 . S
C133 N135 1.279 . S
C133 C136 1.358 . S
C133 H139 0.930 . S
C134 C132 1.353 . S
C134 C137 1.348 . S
C134 H172 0.929 . S
N135 Li90 1.990 . S
N135 C132 1.314 . S
N135 C133 1.279 . S
C136 C133 1.358 . S
C136 C137 1.356 . S
C136 H173 0.930 . S
C137 C134 1.348 . S
C137 C136 1.356 . S
H138 C132 0.930 . S
H139 C133 0.930 . S
C140 N141 1.314 . S
C140 C142 1.353 . S
C140 H146 0.930 . S
N141 Li91 1.990 . S
N141 C140 1.314 . S
N141 C144 1.279 . S
C142 C140 1.353 . S
C142 C145 1.348 . S
C142 H174 0.929 . S
C143 C144 1.358 . S
C143 C145 1.356 . S
C143 H175 0.930 . S
C144 N141 1.279 . S
C144 C143 1.358 . S
C144 H147 0.930 . S
C145 C142 1.348 . S
C145 C143 1.356 . S
H146 C140 0.930 . S
H147 C144 0.930 . S
O148 Li88 1.956 . S
O148 Li89 1.970 . S
O148 Li90 1.961 . S
O148 C92 1.325 . S
O149 Li88 1.970 . S
O149 Li89 1.956 . S
O149 Li91 1.961 . S
O149 C98 1.325 . S
O150 Li88 1.961 . S
O150 Li90 1.956 . S
O150 Li91 1.970 . S
O150 C120 1.325 . S
O151 Li89 1.961 . S
O151 Li90 1.970 . S
O151 Li91 1.956 . S
O151 C126 1.325 . S
H152 C94 0.929 . S
H153 C95 0.930 . S
H154 C96 0.930 . S
H155 C97 0.930 . S
H156 C99 0.930 . S
H157 C101 0.929 . S
H158 C102 0.930 . S
H159 C103 0.930 . S
H160 C106 0.930 . S
H161 C109 0.929 . S
H162 C114 0.929 . S
H163 C115 0.930 . S
H164 C122 0.929 . S
H165 C123 0.930 . S
H166 C124 0.930 . S
H167 C125 0.930 . S
H168 C127 0.929 . S
H169 C128 0.930 . S
H170 C129 0.930 . S
H171 C130 0.930 . S
H172 C134 0.929 . S
H173 C136 0.930 . S
H174 C142 0.929 . S
H175 C143 0.930 . S
Li176 N193 1.990 . S
Li176 O236 1.956 . S
Li176 O237 1.970 . S
Li176 O238 1.961 . S
Li177 N201 1.990 . S
Li177 O236 1.970 . S
Li177 O237 1.956 . S
Li177 O239 1.961 . S
Li178 N223 1.990 . S
Li178 O236 1.961 . S
Li178 O238 1.956 . S
Li178 O239 1.970 . S
Li179 N229 1.990 . S
Li179 O237 1.961 . S
Li179 O238 1.970 . S
Li179 O239 1.956 . S
C180 C182 1.348 . S
C180 C183 1.356 . S
C180 O236 1.325 . S
N181 C184 1.314 . S
N181 C185 1.279 . S
C182 C180 1.348 . S
C182 C184 1.353 . S
C182 H240 0.929 . S
C183 C180 1.356 . S
C183 C185 1.358 . S
C183 H241 0.930 . S
C184 N181 1.314 . S
C184 C182 1.353 . S
C184 H242 0.930 . S
C185 N181 1.279 . S
C185 C183 1.358 . S
C185 H243 0.930 . S
C186 C189 1.348 . S
C186 C190 1.356 . S
C186 O237 1.325 . S
C187 N188 1.279 . S
C187 C190 1.358 . S
C187 H244 0.930 . S
N188 C187 1.279 . S
N188 C191 1.314 . S
C189 C186 1.348 . S
C189 C191 1.353 . S
C189 H245 0.929 . S
C190 C186 1.356 . S
C190 C187 1.358 . S
C190 H246 0.930 . S
C191 N188 1.314 . S
C191 C189 1.353 . S
C191 H247 0.930 . S
C192 N193 1.314 . S
C192 C197 1.353 . S
C192 H198 0.930 . S
N193 Li176 1.990 . S
N193 C192 1.314 . S
N193 C195 1.279 . S
C194 C195 1.358 . S
C194 C196 1.356 . S
C194 H248 0.930 . S
C195 N193 1.279 . S
C195 C194 1.358 . S
C195 H199 0.930 . S
C196 C194 1.356 . S
C196 C197 1.348 . S
C197 C192 1.353 . S
C197 C196 1.348 . S
C197 H249 0.929 . S
H198 C192 0.930 . S
H199 C195 0.930 . S
C200 N201 1.314 . S
C200 C202 1.353 . S
C200 H206 0.930 . S
N201 Li177 1.990 . S
N201 C200 1.314 . S
N201 C204 1.279 . S
C202 C200 1.353 . S
C202 C205 1.348 . S
C202 H250 0.929 . S
C203 C204 1.358 . S
C203 C205 1.356 . S
C203 H251 0.930 . S
C204 N201 1.279 . S
C204 C203 1.358 . S
C204 H207 0.930 . S
C205 C202 1.348 . S
C205 C203 1.356 . S
H206 C200 0.930 . S
H207 C204 0.930 . S
C208 C210 1.348 . S
C208 C211 1.356 . S
C208 O238 1.325 . S
N209 C212 1.314 . S
N209 C213 1.279 . S
C210 C208 1.348 . S
C210 C212 1.353 . S
C210 H252 0.929 . S
C211 C208 1.356 . S
C211 C213 1.358 . S
C211 H253 0.930 . S
C212 N209 1.314 . S
C212 C210 1.353 . S
C212 H254 0.930 . S
C213 N209 1.279 . S
C213 C211 1.358 . S
C213 H255 0.930 . S
C214 C215 1.348 . S
C214 C216 1.356 . S
C214 O239 1.325 . S
C215 C214 1.348 . S
C215 C217 1.353 . S
C215 H256 0.929 . S
C216 C214 1.356 . S
C216 C218 1.358 . S
C216 H257 0.930 . S
C217 C215 1.353 . S
C217 N219 1.314 . S
C217 H258 0.930 . S
C218 C216 1.358 . S
C218 N219 1.279 . S
C218 H259 0.930 . S
N219 C217 1.314 . S
N219 C218 1.279 . S
C220 C222 1.353 . S
C220 N223 1.314 . S
C220 H226 0.930 . S
C221 N223 1.279 . S
C221 C224 1.358 . S
C221 H227 0.930 . S
C222 C220 1.353 . S
C222 C225 1.348 . S
C222 H260 0.929 . S
N223 Li178 1.990 . S
N223 C220 1.314 . S
N223 C221 1.279 . S
C224 C221 1.358 . S
C224 C225 1.356 . S
C224 H261 0.930 . S
C225 C222 1.348 . S
C225 C224 1.356 . S
H226 C220 0.930 . S
H227 C221 0.930 . S
C228 N229 1.314 . S
C228 C230 1.353 . S
C228 H234 0.930 . S
N229 Li179 1.990 . S
N229 C228 1.314 . S
N229 C232 1.279 . S
C230 C228 1.353 . S
C230 C233 1.348 . S
C230 H262 0.929 . S
C231 C232 1.358 . S
C231 C233 1.356 . S
C231 H263 0.930 . S
C232 N229 1.279 . S
C232 C231 1.358 . S
C232 H235 0.930 . S
C233 C230 1.348 . S
C233 C231 1.356 . S
H234 C228 0.930 . S
H235 C232 0.930 . S
O236 Li176 1.956 . S
O236 Li177 1.970 . S
O236 Li178 1.961 . S
O236 C180 1.325 . S
O237 Li176 1.970 . S
O237 Li177 1.956 . S
O237 Li179 1.961 . S
O237 C186 1.325 . S
O238 Li176 1.961 . S
O238 Li178 1.956 . S
O238 Li179 1.970 . S
O238 C208 1.325 . S
O239 Li177 1.961 . S
O239 Li178 1.970 . S
O239 Li179 1.956 . S
O239 C214 1.325 . S
H240 C182 0.929 . S
H241 C183 0.930 . S
H242 C184 0.930 . S
H243 C185 0.930 . S
H244 C187 0.930 . S
H245 C189 0.929 . S
H246 C190 0.930 . S
H247 C191 0.930 . S
H248 C194 0.930 . S
H249 C197 0.929 . S
H250 C202 0.929 . S
H251 C203 0.930 . S
H252 C210 0.929 . S
H253 C211 0.930 . S
H254 C212 0.930 . S
H255 C213 0.930 . S
H256 C215 0.929 . S
H257 C216 0.930 . S
H258 C217 0.930 . S
H259 C218 0.930 . S
H260 C222 0.929 . S
H261 C224 0.930 . S
H262 C230 0.929 . S
H263 C231 0.930 . S
Li264 N281 1.990 . S
Li264 O324 1.956 . S
Li264 O325 1.970 . S
Li264 O326 1.961 . S
Li265 N289 1.990 . S
Li265 O324 1.970 . S
Li265 O325 1.956 . S
Li265 O327 1.961 . S
Li266 N311 1.990 . S
Li266 O324 1.961 . S
Li266 O326 1.956 . S
Li266 O327 1.970 . S
Li267 N317 1.990 . S
Li267 O325 1.961 . S
Li267 O326 1.970 . S
Li267 O327 1.956 . S
C268 C270 1.348 . S
C268 C271 1.356 . S
C268 O324 1.325 . S
N269 C272 1.314 . S
N269 C273 1.279 . S
C270 C268 1.348 . S
C270 C272 1.353 . S
C270 H328 0.929 . S
C271 C268 1.356 . S
C271 C273 1.358 . S
C271 H329 0.930 . S
C272 N269 1.314 . S
C272 C270 1.353 . S
C272 H330 0.930 . S
C273 N269 1.279 . S
C273 C271 1.358 . S
C273 H331 0.930 . S
C274 C277 1.348 . S
C274 C278 1.356 . S
C274 O325 1.325 . S
C275 N276 1.279 . S
C275 C278 1.358 . S
C275 H332 0.930 . S
N276 C275 1.279 . S
N276 C279 1.314 . S
C277 C274 1.348 . S
C277 C279 1.353 . S
C277 H333 0.929 . S
C278 C274 1.356 . S
C278 C275 1.358 . S
C278 H334 0.930 . S
C279 N276 1.314 . S
C279 C277 1.353 . S
C279 H335 0.930 . S
C280 N281 1.314 . S
C280 C285 1.353 . S
C280 H286 0.930 . S
N281 Li264 1.990 . S
N281 C280 1.314 . S
N281 C283 1.279 . S
C282 C283 1.358 . S
C282 C284 1.356 . S
C282 H336 0.930 . S
C283 N281 1.279 . S
C283 C282 1.358 . S
C283 H287 0.930 . S
C284 C282 1.356 . S
C284 C285 1.348 . S
C285 C280 1.353 . S
C285 C284 1.348 . S
C285 H337 0.929 . S
H286 C280 0.930 . S
H287 C283 0.930 . S
C288 N289 1.314 . S
C288 C290 1.353 . S
C288 H294 0.930 . S
N289 Li265 1.990 . S
N289 C288 1.314 . S
N289 C292 1.279 . S
C290 C288 1.353 . S
C290 C293 1.348 . S
C290 H338 0.929 . S
C291 C292 1.358 . S
C291 C293 1.356 . S
C291 H339 0.930 . S
C292 N289 1.279 . S
C292 C291 1.358 . S
C292 H295 0.930 . S
C293 C290 1.348 . S
C293 C291 1.356 . S
H294 C288 0.930 . S
H295 C292 0.930 . S
C296 C298 1.348 . S
C296 C299 1.356 . S
C296 O326 1.325 . S
N297 C300 1.314 . S
N297 C301 1.279 . S
C298 C296 1.348 . S
C298 C300 1.353 . S
C298 H340 0.929 . S
C299 C296 1.356 . S
C299 C301 1.358 . S
C299 H341 0.930 . S
C300 N297 1.314 . S
C300 C298 1.353 . S
C300 H342 0.930 . S
C301 N297 1.279 . S
C301 C299 1.358 . S
C301 H343 0.930 . S
C302 C303 1.348 . S
C302 C304 1.356 . S
C302 O327 1.325 . S
C303 C302 1.348 . S
C303 C305 1.353 . S
C303 H344 0.929 . S
C304 C302 1.356 . S
C304 C306 1.358 . S
C304 H345 0.930 . S
C305 C303 1.353 . S
C305 N307 1.314 . S
C305 H346 0.930 . S
C306 C304 1.358 . S
C306 N307 1.279 . S
C306 H347 0.930 . S
N307 C305 1.314 . S
N307 C306 1.279 . S
C308 C310 1.353 . S
C308 N311 1.314 . S
C308 H314 0.930 . S
C309 N311 1.279 . S
C309 C312 1.358 . S
C309 H315 0.930 . S
C310 C308 1.353 . S
C310 C313 1.348 . S
C310 H348 0.929 . S
N311 Li266 1.990 . S
N311 C308 1.314 . S
N311 C309 1.279 . S
C312 C309 1.358 . S
C312 C313 1.356 . S
C312 H349 0.930 . S
C313 C310 1.348 . S
C313 C312 1.356 . S
H314 C308 0.930 . S
H315 C309 0.930 . S
C316 N317 1.314 . S
C316 C318 1.353 . S
C316 H322 0.930 . S
N317 Li267 1.990 . S
N317 C316 1.314 . S
N317 C320 1.279 . S
C318 C316 1.353 . S
C318 C321 1.348 . S
C318 H350 0.929 . S
C319 C320 1.358 . S
C319 C321 1.356 . S
C319 H351 0.930 . S
C320 N317 1.279 . S
C320 C319 1.358 . S
C320 H323 0.930 . S
C321 C318 1.348 . S
C321 C319 1.356 . S
H322 C316 0.930 . S
H323 C320 0.930 . S
O324 Li264 1.956 . S
O324 Li265 1.970 . S
O324 Li266 1.961 . S
O324 C268 1.325 . S
O325 Li264 1.970 . S
O325 Li265 1.956 . S
O325 Li267 1.961 . S
O325 C274 1.325 . S
O326 Li264 1.961 . S
O326 Li266 1.956 . S
O326 Li267 1.970 . S
O326 C296 1.325 . S
O327 Li265 1.961 . S
O327 Li266 1.970 . S
O327 Li267 1.956 . S
O327 C302 1.325 . S
H328 C270 0.929 . S
H329 C271 0.930 . S
H330 C272 0.930 . S
H331 C273 0.930 . S
H332 C275 0.930 . S
H333 C277 0.929 . S
H334 C278 0.930 . S
H335 C279 0.930 . S
H336 C282 0.930 . S
H337 C285 0.929 . S
H338 C290 0.929 . S
H339 C291 0.930 . S
H340 C298 0.929 . S
H341 C299 0.930 . S
H342 C300 0.930 . S
H343 C301 0.930 . S
H344 C303 0.929 . S
H345 C304 0.930 . S
H346 C305 0.930 . S
H347 C306 0.930 . S
H348 C310 0.929 . S
H349 C312 0.930 . S
H350 C318 0.929 . S
H351 C319 0.930 . S
Li352 N369 1.990 . S
Li352 O412 1.956 . S
Li352 O413 1.970 . S
Li352 O414 1.961 . S
Li353 N377 1.990 . S
Li353 O412 1.970 . S
Li353 O413 1.956 . S
Li353 O415 1.961 . S
Li354 N399 1.990 . S
Li354 O412 1.961 . S
Li354 O414 1.956 . S
Li354 O415 1.970 . S
Li355 N405 1.990 . S
Li355 O413 1.961 . S
Li355 O414 1.970 . S
Li355 O415 1.956 . S
C356 C358 1.348 . S
C356 C359 1.356 . S
C356 O412 1.325 . S
N357 C360 1.314 . S
N357 C361 1.279 . S
C358 C356 1.348 . S
C358 C360 1.353 . S
C358 H416 0.929 . S
C359 C356 1.356 . S
C359 C361 1.358 . S
C359 H417 0.930 . S
C360 N357 1.314 . S
C360 C358 1.353 . S
C360 H418 0.930 . S
C361 N357 1.279 . S
C361 C359 1.358 . S
C361 H419 0.930 . S
C362 C365 1.348 . S
C362 C366 1.356 . S
C362 O413 1.325 . S
C363 N364 1.279 . S
C363 C366 1.358 . S
C363 H420 0.930 . S
N364 C363 1.279 . S
N364 C367 1.314 . S
C365 C362 1.348 . S
C365 C367 1.353 . S
C365 H421 0.929 . S
C366 C362 1.356 . S
C366 C363 1.358 . S
C366 H422 0.930 . S
C367 N364 1.314 . S
C367 C365 1.353 . S
C367 H423 0.930 . S
C368 N369 1.314 . S
C368 C373 1.353 . S
C368 H374 0.930 . S
N369 Li352 1.990 . S
N369 C368 1.314 . S
N369 C371 1.279 . S
C370 C371 1.358 . S
C370 C372 1.356 . S
C370 H424 0.930 . S
C371 N369 1.279 . S
C371 C370 1.358 . S
C371 H375 0.930 . S
C372 C370 1.356 . S
C372 C373 1.348 . S
C373 C368 1.353 . S
C373 C372 1.348 . S
C373 H425 0.929 . S
H374 C368 0.930 . S
H375 C371 0.930 . S
C376 N377 1.314 . S
C376 C378 1.353 . S
C376 H382 0.930 . S
N377 Li353 1.990 . S
N377 C376 1.314 . S
N377 C380 1.279 . S
C378 C376 1.353 . S
C378 C381 1.348 . S
C378 H426 0.929 . S
C379 C380 1.358 . S
C379 C381 1.356 . S
C379 H427 0.930 . S
C380 N377 1.279 . S
C380 C379 1.358 . S
C380 H383 0.930 . S
C381 C378 1.348 . S
C381 C379 1.356 . S
H382 C376 0.930 . S
H383 C380 0.930 . S
C384 C386 1.348 . S
C384 C387 1.356 . S
C384 O414 1.325 . S
N385 C388 1.314 . S
N385 C389 1.279 . S
C386 C384 1.348 . S
C386 C388 1.353 . S
C386 H428 0.929 . S
C387 C384 1.356 . S
C387 C389 1.358 . S
C387 H429 0.930 . S
C388 N385 1.314 . S
C388 C386 1.353 . S
C388 H430 0.930 . S
C389 N385 1.279 . S
C389 C387 1.358 . S
C389 H431 0.930 . S
C390 C391 1.348 . S
C390 C392 1.356 . S
C390 O415 1.325 . S
C391 C390 1.348 . S
C391 C393 1.353 . S
C391 H432 0.929 . S
C392 C390 1.356 . S
C392 C394 1.358 . S
C392 H433 0.930 . S
C393 C391 1.353 . S
C393 N395 1.314 . S
C393 H434 0.930 . S
C394 C392 1.358 . S
C394 N395 1.279 . S
C394 H435 0.930 . S
N395 C393 1.314 . S
N395 C394 1.279 . S
C396 C398 1.353 . S
C396 N399 1.314 . S
C396 H402 0.930 . S
C397 N399 1.279 . S
C397 C400 1.358 . S
C397 H403 0.930 . S
C398 C396 1.353 . S
C398 C401 1.348 . S
C398 H436 0.929 . S
N399 Li354 1.990 . S
N399 C396 1.314 . S
N399 C397 1.279 . S
C400 C397 1.358 . S
C400 C401 1.356 . S
C400 H437 0.930 . S
C401 C398 1.348 . S
C401 C400 1.356 . S
H402 C396 0.930 . S
H403 C397 0.930 . S
C404 N405 1.314 . S
C404 C406 1.353 . S
C404 H410 0.930 . S
N405 Li355 1.990 . S
N405 C404 1.314 . S
N405 C408 1.279 . S
C406 C404 1.353 . S
C406 C409 1.348 . S
C406 H438 0.929 . S
C407 C408 1.358 . S
C407 C409 1.356 . S
C407 H439 0.930 . S
C408 N405 1.279 . S
C408 C407 1.358 . S
C408 H411 0.930 . S
C409 C406 1.348 . S
C409 C407 1.356 . S
H410 C404 0.930 . S
H411 C408 0.930 . S
O412 Li352 1.956 . S
O412 Li353 1.970 . S
O412 Li354 1.961 . S
O412 C356 1.325 . S
O413 Li352 1.970 . S
O413 Li353 1.956 . S
O413 Li355 1.961 . S
O413 C362 1.325 . S
O414 Li352 1.961 . S
O414 Li354 1.956 . S
O414 Li355 1.970 . S
O414 C384 1.325 . S
O415 Li353 1.961 . S
O415 Li354 1.970 . S
O415 Li355 1.956 . S
O415 C390 1.325 . S
H416 C358 0.929 . S
H417 C359 0.930 . S
H418 C360 0.930 . S
H419 C361 0.930 . S
H420 C363 0.930 . S
H421 C365 0.929 . S
H422 C366 0.930 . S
H423 C367 0.930 . S
H424 C370 0.930 . S
H425 C373 0.929 . S
H426 C378 0.929 . S
H427 C379 0.930 . S
H428 C386 0.929 . S
H429 C387 0.930 . S
H430 C388 0.930 . S
H431 C389 0.930 . S
H432 C391 0.929 . S
H433 C392 0.930 . S
H434 C393 0.930 . S
H435 C394 0.930 . S
H436 C398 0.929 . S
H437 C400 0.930 . S
H438 C406 0.929 . S
H439 C407 0.930 . S
Li440 N457 1.990 . S
Li440 O500 1.956 . S
Li440 O501 1.970 . S
Li440 O502 1.961 . S
Li441 N465 1.990 . S
Li441 O500 1.970 . S
Li441 O501 1.956 . S
Li441 O503 1.961 . S
Li442 N487 1.990 . S
Li442 O500 1.961 . S
Li442 O502 1.956 . S
Li442 O503 1.970 . S
Li443 N493 1.990 . S
Li443 O501 1.961 . S
Li443 O502 1.970 . S
Li443 O503 1.956 . S
C444 C446 1.348 . S
C444 C447 1.356 . S
C444 O500 1.325 . S
N445 C448 1.314 . S
N445 C449 1.279 . S
C446 C444 1.348 . S
C446 C448 1.353 . S
C446 H504 0.929 . S
C447 C444 1.356 . S
C447 C449 1.358 . S
C447 H505 0.930 . S
C448 N445 1.314 . S
C448 C446 1.353 . S
C448 H506 0.930 . S
C449 N445 1.279 . S
C449 C447 1.358 . S
C449 H507 0.930 . S
C450 C453 1.348 . S
C450 C454 1.356 . S
C450 O501 1.325 . S
C451 N452 1.279 . S
C451 C454 1.358 . S
C451 H508 0.930 . S
N452 C451 1.279 . S
N452 C455 1.314 . S
C453 C450 1.348 . S
C453 C455 1.353 . S
C453 H509 0.929 . S
C454 C450 1.356 . S
C454 C451 1.358 . S
C454 H510 0.930 . S
C455 N452 1.314 . S
C455 C453 1.353 . S
C455 H511 0.930 . S
C456 N457 1.314 . S
C456 C461 1.353 . S
C456 H462 0.930 . S
N457 Li440 1.990 . S
N457 C456 1.314 . S
N457 C459 1.279 . S
C458 C459 1.358 . S
C458 C460 1.356 . S
C458 H512 0.930 . S
C459 N457 1.279 . S
C459 C458 1.358 . S
C459 H463 0.930 . S
C460 C458 1.356 . S
C460 C461 1.348 . S
C461 C456 1.353 . S
C461 C460 1.348 . S
C461 H513 0.929 . S
H462 C456 0.930 . S
H463 C459 0.930 . S
C464 N465 1.314 . S
C464 C466 1.353 . S
C464 H470 0.930 . S
N465 Li441 1.990 . S
N465 C464 1.314 . S
N465 C468 1.279 . S
C466 C464 1.353 . S
C466 C469 1.348 . S
C466 H514 0.929 . S
C467 C468 1.358 . S
C467 C469 1.356 . S
C467 H515 0.930 . S
C468 N465 1.279 . S
C468 C467 1.358 . S
C468 H471 0.930 . S
C469 C466 1.348 . S
C469 C467 1.356 . S
H470 C464 0.930 . S
H471 C468 0.930 . S
C472 C474 1.348 . S
C472 C475 1.356 . S
C472 O502 1.325 . S
N473 C476 1.314 . S
N473 C477 1.279 . S
C474 C472 1.348 . S
C474 C476 1.353 . S
C474 H516 0.929 . S
C475 C472 1.356 . S
C475 C477 1.358 . S
C475 H517 0.930 . S
C476 N473 1.314 . S
C476 C474 1.353 . S
C476 H518 0.930 . S
C477 N473 1.279 . S
C477 C475 1.358 . S
C477 H519 0.930 . S
C478 C479 1.348 . S
C478 C480 1.356 . S
C478 O503 1.325 . S
C479 C478 1.348 . S
C479 C481 1.353 . S
C479 H520 0.929 . S
C480 C478 1.356 . S
C480 C482 1.358 . S
C480 H521 0.930 . S
C481 C479 1.353 . S
C481 N483 1.314 . S
C481 H522 0.930 . S
C482 C480 1.358 . S
C482 N483 1.279 . S
C482 H523 0.930 . S
N483 C481 1.314 . S
N483 C482 1.279 . S
C484 C486 1.353 . S
C484 N487 1.314 . S
C484 H490 0.930 . S
C485 N487 1.279 . S
C485 C488 1.358 . S
C485 H491 0.930 . S
C486 C484 1.353 . S
C486 C489 1.348 . S
C486 H524 0.929 . S
N487 Li442 1.990 . S
N487 C484 1.314 . S
N487 C485 1.279 . S
C488 C485 1.358 . S
C488 C489 1.356 . S
C488 H525 0.930 . S
C489 C486 1.348 . S
C489 C488 1.356 . S
H490 C484 0.930 . S
H491 C485 0.930 . S
C492 N493 1.314 . S
C492 C494 1.353 . S
C492 H498 0.930 . S
N493 Li443 1.990 . S
N493 C492 1.314 . S
N493 C496 1.279 . S
C494 C492 1.353 . S
C494 C497 1.348 . S
C494 H526 0.929 . S
C495 C496 1.358 . S
C495 C497 1.356 . S
C495 H527 0.930 . S
C496 N493 1.279 . S
C496 C495 1.358 . S
C496 H499 0.930 . S
C497 C494 1.348 . S
C497 C495 1.356 . S
H498 C492 0.930 . S
H499 C496 0.930 . S
O500 Li440 1.956 . S
O500 Li441 1.970 . S
O500 Li442 1.961 . S
O500 C444 1.325 . S
O501 Li440 1.970 . S
O501 Li441 1.956 . S
O501 Li443 1.961 . S
O501 C450 1.325 . S
O502 Li440 1.961 . S
O502 Li442 1.956 . S
O502 Li443 1.970 . S
O502 C472 1.325 . S
O503 Li441 1.961 . S
O503 Li442 1.970 . S
O503 Li443 1.956 . S
O503 C478 1.325 . S
H504 C446 0.929 . S
H505 C447 0.930 . S
H506 C448 0.930 . S
H507 C449 0.930 . S
H508 C451 0.930 . S
H509 C453 0.929 . S
H510 C454 0.930 . S
H511 C455 0.930 . S
H512 C458 0.930 . S
H513 C461 0.929 . S
H514 C466 0.929 . S
H515 C467 0.930 . S
H516 C474 0.929 . S
H517 C475 0.930 . S
H518 C476 0.930 . S
H519 C477 0.930 . S
H520 C479 0.929 . S
H521 C480 0.930 . S
H522 C481 0.930 . S
H523 C482 0.930 . S
H524 C486 0.929 . S
H525 C488 0.930 . S
H526 C494 0.929 . S
H527 C495 0.930 . S
Li528 N545 1.990 . S
Li528 O588 1.956 . S
Li528 O589 1.970 . S
Li528 O590 1.961 . S
Li529 N553 1.990 . S
Li529 O588 1.970 . S
Li529 O589 1.956 . S
Li529 O591 1.961 . S
Li530 N575 1.990 . S
Li530 O588 1.961 . S
Li530 O590 1.956 . S
Li530 O591 1.970 . S
Li531 N581 1.990 . S
Li531 O589 1.961 . S
Li531 O590 1.970 . S
Li531 O591 1.956 . S
C532 C534 1.348 . S
C532 C535 1.356 . S
C532 O588 1.325 . S
N533 C536 1.314 . S
N533 C537 1.279 . S
C534 C532 1.348 . S
C534 C536 1.353 . S
C534 H592 0.929 . S
C535 C532 1.356 . S
C535 C537 1.358 . S
C535 H593 0.930 . S
C536 N533 1.314 . S
C536 C534 1.353 . S
C536 H594 0.930 . S
C537 N533 1.279 . S
C537 C535 1.358 . S
C537 H595 0.930 . S
C538 C541 1.348 . S
C538 C542 1.356 . S
C538 O589 1.325 . S
C539 N540 1.279 . S
C539 C542 1.358 . S
C539 H596 0.930 . S
N540 C539 1.279 . S
N540 C543 1.314 . S
C541 C538 1.348 . S
C541 C543 1.353 . S
C541 H597 0.929 . S
C542 C538 1.356 . S
C542 C539 1.358 . S
C542 H598 0.930 . S
C543 N540 1.314 . S
C543 C541 1.353 . S
C543 H599 0.930 . S
C544 N545 1.314 . S
C544 C549 1.353 . S
C544 H550 0.930 . S
N545 Li528 1.990 . S
N545 C544 1.314 . S
N545 C547 1.279 . S
C546 C547 1.358 . S
C546 C548 1.356 . S
C546 H600 0.930 . S
C547 N545 1.279 . S
C547 C546 1.358 . S
C547 H551 0.930 . S
C548 C546 1.356 . S
C548 C549 1.348 . S
C549 C544 1.353 . S
C549 C548 1.348 . S
C549 H601 0.929 . S
H550 C544 0.930 . S
H551 C547 0.930 . S
C552 N553 1.314 . S
C552 C554 1.353 . S
C552 H558 0.930 . S
N553 Li529 1.990 . S
N553 C552 1.314 . S
N553 C556 1.279 . S
C554 C552 1.353 . S
C554 C557 1.348 . S
C554 H602 0.929 . S
C555 C556 1.358 . S
C555 C557 1.356 . S
C555 H603 0.930 . S
C556 N553 1.279 . S
C556 C555 1.358 . S
C556 H559 0.930 . S
C557 C554 1.348 . S
C557 C555 1.356 . S
H558 C552 0.930 . S
H559 C556 0.930 . S
C560 C562 1.348 . S
C560 C563 1.356 . S
C560 O590 1.325 . S
N561 C564 1.314 . S
N561 C565 1.279 . S
C562 C560 1.348 . S
C562 C564 1.353 . S
C562 H604 0.929 . S
C563 C560 1.356 . S
C563 C565 1.358 . S
C563 H605 0.930 . S
C564 N561 1.314 . S
C564 C562 1.353 . S
C564 H606 0.930 . S
C565 N561 1.279 . S
C565 C563 1.358 . S
C565 H607 0.930 . S
C566 C567 1.348 . S
C566 C568 1.356 . S
C566 O591 1.325 . S
C567 C566 1.348 . S
C567 C569 1.353 . S
C567 H608 0.929 . S
C568 C566 1.356 . S
C568 C570 1.358 . S
C568 H609 0.930 . S
C569 C567 1.353 . S
C569 N571 1.314 . S
C569 H610 0.930 . S
C570 C568 1.358 . S
C570 N571 1.279 . S
C570 H611 0.930 . S
N571 C569 1.314 . S
N571 C570 1.279 . S
C572 C574 1.353 . S
C572 N575 1.314 . S
C572 H578 0.930 . S
C573 N575 1.279 . S
C573 C576 1.358 . S
C573 H579 0.930 . S
C574 C572 1.353 . S
C574 C577 1.348 . S
C574 H612 0.929 . S
N575 Li530 1.990 . S
N575 C572 1.314 . S
N575 C573 1.279 . S
C576 C573 1.358 . S
C576 C577 1.356 . S
C576 H613 0.930 . S
C577 C574 1.348 . S
C577 C576 1.356 . S
H578 C572 0.930 . S
H579 C573 0.930 . S
C580 N581 1.314 . S
C580 C582 1.353 . S
C580 H586 0.930 . S
N581 Li531 1.990 . S
N581 C580 1.314 . S
N581 C584 1.279 . S
C582 C580 1.353 . S
C582 C585 1.348 . S
C582 H614 0.929 . S
C583 C584 1.358 . S
C583 C585 1.356 . S
C583 H615 0.930 . S
C584 N581 1.279 . S
C584 C583 1.358 . S
C584 H587 0.930 . S
C585 C582 1.348 . S
C585 C583 1.356 . S
H586 C580 0.930 . S
H587 C584 0.930 . S
O588 Li528 1.956 . S
O588 Li529 1.970 . S
O588 Li530 1.961 . S
O588 C532 1.325 . S
O589 Li528 1.970 . S
O589 Li529 1.956 . S
O589 Li531 1.961 . S
O589 C538 1.325 . S
O590 Li528 1.961 . S
O590 Li530 1.956 . S
O590 Li531 1.970 . S
O590 C560 1.325 . S
O591 Li529 1.961 . S
O591 Li530 1.970 . S
O591 Li531 1.956 . S
O591 C566 1.325 . S
H592 C534 0.929 . S
H593 C535 0.930 . S
H594 C536 0.930 . S
H595 C537 0.930 . S
H596 C539 0.930 . S
H597 C541 0.929 . S
H598 C542 0.930 . S
H599 C543 0.930 . S
H600 C546 0.930 . S
H601 C549 0.929 . S
H602 C554 0.929 . S
H603 C555 0.930 . S
H604 C562 0.929 . S
H605 C563 0.930 . S
H606 C564 0.930 . S
H607 C565 0.930 . S
H608 C567 0.929 . S
H609 C568 0.930 . S
H610 C569 0.930 . S
H611 C570 0.930 . S
H612 C574 0.929 . S
H613 C576 0.930 . S
H614 C582 0.929 . S
H615 C583 0.930 . S
Li616 N633 1.990 . S
Li616 O676 1.956 . S
Li616 O677 1.970 . S
Li616 O678 1.961 . S
Li617 N641 1.990 . S
Li617 O676 1.970 . S
Li617 O677 1.956 . S
Li617 O679 1.961 . S
Li618 N663 1.990 . S
Li618 O676 1.961 . S
Li618 O678 1.956 . S
Li618 O679 1.970 . S
Li619 N669 1.990 . S
Li619 O677 1.961 . S
Li619 O678 1.970 . S
Li619 O679 1.956 . S
C620 C622 1.348 . S
C620 C623 1.356 . S
C620 O676 1.325 . S
N621 C624 1.314 . S
N621 C625 1.279 . S
C622 C620 1.348 . S
C622 C624 1.353 . S
C622 H680 0.929 . S
C623 C620 1.356 . S
C623 C625 1.358 . S
C623 H681 0.930 . S
C624 N621 1.314 . S
C624 C622 1.353 . S
C624 H682 0.930 . S
C625 N621 1.279 . S
C625 C623 1.358 . S
C625 H683 0.930 . S
C626 C629 1.348 . S
C626 C630 1.356 . S
C626 O677 1.325 . S
C627 N628 1.279 . S
C627 C630 1.358 . S
C627 H684 0.930 . S
N628 C627 1.279 . S
N628 C631 1.314 . S
C629 C626 1.348 . S
C629 C631 1.353 . S
C629 H685 0.929 . S
C630 C626 1.356 . S
C630 C627 1.358 . S
C630 H686 0.930 . S
C631 N628 1.314 . S
C631 C629 1.353 . S
C631 H687 0.930 . S
C632 N633 1.314 . S
C632 C637 1.353 . S
C632 H638 0.930 . S
N633 Li616 1.990 . S
N633 C632 1.314 . S
N633 C635 1.279 . S
C634 C635 1.358 . S
C634 C636 1.356 . S
C634 H688 0.930 . S
C635 N633 1.279 . S
C635 C634 1.358 . S
C635 H639 0.930 . S
C636 C634 1.356 . S
C636 C637 1.348 . S
C637 C632 1.353 . S
C637 C636 1.348 . S
C637 H689 0.929 . S
H638 C632 0.930 . S
H639 C635 0.930 . S
C640 N641 1.314 . S
C640 C642 1.353 . S
C640 H646 0.930 . S
N641 Li617 1.990 . S
N641 C640 1.314 . S
N641 C644 1.279 . S
C642 C640 1.353 . S
C642 C645 1.348 . S
C642 H690 0.929 . S
C643 C644 1.358 . S
C643 C645 1.356 . S
C643 H691 0.930 . S
C644 N641 1.279 . S
C644 C643 1.358 . S
C644 H647 0.930 . S
C645 C642 1.348 . S
C645 C643 1.356 . S
H646 C640 0.930 . S
H647 C644 0.930 . S
C648 C650 1.348 . S
C648 C651 1.356 . S
C648 O678 1.325 . S
N649 C652 1.314 . S
N649 C653 1.279 . S
C650 C648 1.348 . S
C650 C652 1.353 . S
C650 H692 0.929 . S
C651 C648 1.356 . S
C651 C653 1.358 . S
C651 H693 0.930 . S
C652 N649 1.314 . S
C652 C650 1.353 . S
C652 H694 0.930 . S
C653 N649 1.279 . S
C653 C651 1.358 . S
C653 H695 0.930 . S
C654 C655 1.348 . S
C654 C656 1.356 . S
C654 O679 1.325 . S
C655 C654 1.348 . S
C655 C657 1.353 . S
C655 H696 0.929 . S
C656 C654 1.356 . S
C656 C658 1.358 . S
C656 H697 0.930 . S
C657 C655 1.353 . S
C657 N659 1.314 . S
C657 H698 0.930 . S
C658 C656 1.358 . S
C658 N659 1.279 . S
C658 H699 0.930 . S
N659 C657 1.314 . S
N659 C658 1.279 . S
C660 C662 1.353 . S
C660 N663 1.314 . S
C660 H666 0.930 . S
C661 N663 1.279 . S
C661 C664 1.358 . S
C661 H667 0.930 . S
C662 C660 1.353 . S
C662 C665 1.348 . S
C662 H700 0.929 . S
N663 Li618 1.990 . S
N663 C660 1.314 . S
N663 C661 1.279 . S
C664 C661 1.358 . S
C664 C665 1.356 . S
C664 H701 0.930 . S
C665 C662 1.348 . S
C665 C664 1.356 . S
H666 C660 0.930 . S
H667 C661 0.930 . S
C668 N669 1.314 . S
C668 C670 1.353 . S
C668 H674 0.930 . S
N669 Li619 1.990 . S
N669 C668 1.314 . S
N669 C672 1.279 . S
C670 C668 1.353 . S
C670 C673 1.348 . S
C670 H702 0.929 . S
C671 C672 1.358 . S
C671 C673 1.356 . S
C671 H703 0.930 . S
C672 N669 1.279 . S
C672 C671 1.358 . S
C672 H675 0.930 . S
C673 C670 1.348 . S
C673 C671 1.356 . S
H674 C668 0.930 . S
H675 C672 0.930 . S
O676 Li616 1.956 . S
O676 Li617 1.970 . S
O676 Li618 1.961 . S
O676 C620 1.325 . S
O677 Li616 1.970 . S
O677 Li617 1.956 . S
O677 Li619 1.961 . S
O677 C626 1.325 . S
O678 Li616 1.961 . S
O678 Li618 1.956 . S
O678 Li619 1.970 . S
O678 C648 1.325 . S
O679 Li617 1.961 . S
O679 Li618 1.970 . S
O679 Li619 1.956 . S
O679 C654 1.325 . S
H680 C622 0.929 . S
H681 C623 0.930 . S
H682 C624 0.930 . S
H683 C625 0.930 . S
H684 C627 0.930 . S
H685 C629 0.929 . S
H686 C630 0.930 . S
H687 C631 0.930 . S
H688 C634 0.930 . S
H689 C637 0.929 . S
H690 C642 0.929 . S
H691 C643 0.930 . S
H692 C650 0.929 . S
H693 C651 0.930 . S
H694 C652 0.930 . S
H695 C653 0.930 . S
H696 C655 0.929 . S
H697 C656 0.930 . S
H698 C657 0.930 . S
H699 C658 0.930 . S
H700 C662 0.929 . S
H701 C664 0.930 . S
H702 C670 0.929 . S
H703 C671 0.930 . S
Li704 N721 1.990 . S
Li704 O764 1.956 . S
Li704 O765 1.970 . S
Li704 O766 1.961 . S
Li705 N729 1.990 . S
Li705 O764 1.970 . S
Li705 O765 1.956 . S
Li705 O767 1.961 . S
Li706 N751 1.990 . S
Li706 O764 1.961 . S
Li706 O766 1.956 . S
Li706 O767 1.970 . S
Li707 N757 1.990 . S
Li707 O765 1.961 . S
Li707 O766 1.970 . S
Li707 O767 1.956 . S
C708 C710 1.348 . S
C708 C711 1.356 . S
C708 O764 1.325 . S
N709 C712 1.314 . S
N709 C713 1.279 . S
C710 C708 1.348 . S
C710 C712 1.353 . S
C710 H768 0.929 . S
C711 C708 1.356 . S
C711 C713 1.358 . S
C711 H769 0.930 . S
C712 N709 1.314 . S
C712 C710 1.353 . S
C712 H770 0.930 . S
C713 N709 1.279 . S
C713 C711 1.358 . S
C713 H771 0.930 . S
C714 C717 1.348 . S
C714 C718 1.356 . S
C714 O765 1.325 . S
C715 N716 1.279 . S
C715 C718 1.358 . S
C715 H772 0.930 . S
N716 C715 1.279 . S
N716 C719 1.314 . S
C717 C714 1.348 . S
C717 C719 1.353 . S
C717 H773 0.929 . S
C718 C714 1.356 . S
C718 C715 1.358 . S
C718 H774 0.930 . S
C719 N716 1.314 . S
C719 C717 1.353 . S
C719 H775 0.930 . S
C720 N721 1.314 . S
C720 C725 1.353 . S
C720 H726 0.930 . S
N721 Li704 1.990 . S
N721 C720 1.314 . S
N721 C723 1.279 . S
C722 C723 1.358 . S
C722 C724 1.356 . S
C722 H776 0.930 . S
C723 N721 1.279 . S
C723 C722 1.358 . S
C723 H727 0.930 . S
C724 C722 1.356 . S
C724 C725 1.348 . S
C725 C720 1.353 . S
C725 C724 1.348 . S
C725 H777 0.929 . S
H726 C720 0.930 . S
H727 C723 0.930 . S
C728 N729 1.314 . S
C728 C730 1.353 . S
C728 H734 0.930 . S
N729 Li705 1.990 . S
N729 C728 1.314 . S
N729 C732 1.279 . S
C730 C728 1.353 . S
C730 C733 1.348 . S
C730 H778 0.929 . S
C731 C732 1.358 . S
C731 C733 1.356 . S
C731 H779 0.930 . S
C732 N729 1.279 . S
C732 C731 1.358 . S
C732 H735 0.930 . S
C733 C730 1.348 . S
C733 C731 1.356 . S
H734 C728 0.930 . S
H735 C732 0.930 . S
C736 C738 1.348 . S
C736 C739 1.356 . S
C736 O766 1.325 . S
N737 C740 1.314 . S
N737 C741 1.279 . S
C738 C736 1.348 . S
C738 C740 1.353 . S
C738 H780 0.929 . S
C739 C736 1.356 . S
C739 C741 1.358 . S
C739 H781 0.930 . S
C740 N737 1.314 . S
C740 C738 1.353 . S
C740 H782 0.930 . S
C741 N737 1.279 . S
C741 C739 1.358 . S
C741 H783 0.930 . S
C742 C743 1.348 . S
C742 C744 1.356 . S
C742 O767 1.325 . S
C743 C742 1.348 . S
C743 C745 1.353 . S
C743 H784 0.929 . S
C744 C742 1.356 . S
C744 C746 1.358 . S
C744 H785 0.930 . S
C745 C743 1.353 . S
C745 N747 1.314 . S
C745 H786 0.930 . S
C746 C744 1.358 . S
C746 N747 1.279 . S
C746 H787 0.930 . S
N747 C745 1.314 . S
N747 C746 1.279 . S
C748 C750 1.353 . S
C748 N751 1.314 . S
C748 H754 0.930 . S
C749 N751 1.279 . S
C749 C752 1.358 . S
C749 H755 0.930 . S
C750 C748 1.353 . S
C750 C753 1.348 . S
C750 H788 0.929 . S
N751 Li706 1.990 . S
N751 C748 1.314 . S
N751 C749 1.279 . S
C752 C749 1.358 . S
C752 C753 1.356 . S
C752 H789 0.930 . S
C753 C750 1.348 . S
C753 C752 1.356 . S
H754 C748 0.930 . S
H755 C749 0.930 . S
C756 N757 1.314 . S
C756 C758 1.353 . S
C756 H762 0.930 . S
N757 Li707 1.990 . S
N757 C756 1.314 . S
N757 C760 1.279 . S
C758 C756 1.353 . S
C758 C761 1.348 . S
C758 H790 0.929 . S
C759 C760 1.358 . S
C759 C761 1.356 . S
C759 H791 0.930 . S
C760 N757 1.279 . S
C760 C759 1.358 . S
C760 H763 0.930 . S
C761 C758 1.348 . S
C761 C759 1.356 . S
H762 C756 0.930 . S
H763 C760 0.930 . S
O764 Li704 1.956 . S
O764 Li705 1.970 . S
O764 Li706 1.961 . S
O764 C708 1.325 . S
O765 Li704 1.970 . S
O765 Li705 1.956 . S
O765 Li707 1.961 . S
O765 C714 1.325 . S
O766 Li704 1.961 . S
O766 Li706 1.956 . S
O766 Li707 1.970 . S
O766 C736 1.325 . S
O767 Li705 1.961 . S
O767 Li706 1.970 . S
O767 Li707 1.956 . S
O767 C742 1.325 . S
H768 C710 0.929 . S
H769 C711 0.930 . S
H770 C712 0.930 . S
H771 C713 0.930 . S
H772 C715 0.930 . S
H773 C717 0.929 . S
H774 C718 0.930 . S
H775 C719 0.930 . S
H776 C722 0.930 . S
H777 C725 0.929 . S
H778 C730 0.929 . S
H779 C731 0.930 . S
H780 C738 0.929 . S
H781 C739 0.930 . S
H782 C740 0.930 . S
H783 C741 0.930 . S
H784 C743 0.929 . S
H785 C744 0.930 . S
H786 C745 0.930 . S
H787 C746 0.930 . S
H788 C750 0.929 . S
H789 C752 0.930 . S
H790 C758 0.929 . S
H791 C759 0.930 . S
Li792 N809 1.990 . S
Li792 O852 1.956 . S
Li792 O853 1.970 . S
Li792 O854 1.961 . S
Li793 N817 1.990 . S
Li793 O852 1.970 . S
Li793 O853 1.956 . S
Li793 O855 1.961 . S
Li794 N839 1.990 . S
Li794 O852 1.961 . S
Li794 O854 1.956 . S
Li794 O855 1.970 . S
Li795 N845 1.990 . S
Li795 O853 1.961 . S
Li795 O854 1.970 . S
Li795 O855 1.956 . S
C796 C798 1.348 . S
C796 C799 1.356 . S
C796 O852 1.325 . S
N797 C800 1.314 . S
N797 C801 1.279 . S
C798 C796 1.348 . S
C798 C800 1.353 . S
C798 H856 0.929 . S
C799 C796 1.356 . S
C799 C801 1.358 . S
C799 H857 0.930 . S
C800 N797 1.314 . S
C800 C798 1.353 . S
C800 H858 0.930 . S
C801 N797 1.279 . S
C801 C799 1.358 . S
C801 H859 0.930 . S
C802 C805 1.348 . S
C802 C806 1.356 . S
C802 O853 1.325 . S
C803 N804 1.279 . S
C803 C806 1.358 . S
C803 H860 0.930 . S
N804 C803 1.279 . S
N804 C807 1.314 . S
C805 C802 1.348 . S
C805 C807 1.353 . S
C805 H861 0.929 . S
C806 C802 1.356 . S
C806 C803 1.358 . S
C806 H862 0.930 . S
C807 N804 1.314 . S
C807 C805 1.353 . S
C807 H863 0.930 . S
C808 N809 1.314 . S
C808 C813 1.353 . S
C808 H814 0.930 . S
N809 Li792 1.990 . S
N809 C808 1.314 . S
N809 C811 1.279 . S
C810 C811 1.358 . S
C810 C812 1.356 . S
C810 H864 0.930 . S
C811 N809 1.279 . S
C811 C810 1.358 . S
C811 H815 0.930 . S
C812 C810 1.356 . S
C812 C813 1.348 . S
C813 C808 1.353 . S
C813 C812 1.348 . S
C813 H865 0.929 . S
H814 C808 0.930 . S
H815 C811 0.930 . S
C816 N817 1.314 . S
C816 C818 1.353 . S
C816 H822 0.930 . S
N817 Li793 1.990 . S
N817 C816 1.314 . S
N817 C820 1.279 . S
C818 C816 1.353 . S
C818 C821 1.348 . S
C818 H866 0.929 . S
C819 C820 1.358 . S
C819 C821 1.356 . S
C819 H867 0.930 . S
C820 N817 1.279 . S
C820 C819 1.358 . S
C820 H823 0.930 . S
C821 C818 1.348 . S
C821 C819 1.356 . S
H822 C816 0.930 . S
H823 C820 0.930 . S
C824 C826 1.348 . S
C824 C827 1.356 . S
C824 O854 1.325 . S
N825 C828 1.314 . S
N825 C829 1.279 . S
C826 C824 1.348 . S
C826 C828 1.353 . S
C826 H868 0.929 . S
C827 C824 1.356 . S
C827 C829 1.358 . S
C827 H869 0.930 . S
C828 N825 1.314 . S
C828 C826 1.353 . S
C828 H870 0.930 . S
C829 N825 1.279 . S
C829 C827 1.358 . S
C829 H871 0.930 . S
C830 C831 1.348 . S
C830 C832 1.356 . S
C830 O855 1.325 . S
C831 C830 1.348 . S
C831 C833 1.353 . S
C831 H872 0.929 . S
C832 C830 1.356 . S
C832 C834 1.358 . S
C832 H873 0.930 . S
C833 C831 1.353 . S
C833 N835 1.314 . S
C833 H874 0.930 . S
C834 C832 1.358 . S
C834 N835 1.279 . S
C834 H875 0.930 . S
N835 C833 1.314 . S
N835 C834 1.279 . S
C836 C838 1.353 . S
C836 N839 1.314 . S
C836 H842 0.930 . S
C837 N839 1.279 . S
C837 C840 1.358 . S
C837 H843 0.930 . S
C838 C836 1.353 . S
C838 C841 1.348 . S
C838 H876 0.929 . S
N839 Li794 1.990 . S
N839 C836 1.314 . S
N839 C837 1.279 . S
C840 C837 1.358 . S
C840 C841 1.356 . S
C840 H877 0.930 . S
C841 C838 1.348 . S
C841 C840 1.356 . S
H842 C836 0.930 . S
H843 C837 0.930 . S
C844 N845 1.314 . S
C844 C846 1.353 . S
C844 H850 0.930 . S
N845 Li795 1.990 . S
N845 C844 1.314 . S
N845 C848 1.279 . S
C846 C844 1.353 . S
C846 C849 1.348 . S
C846 H878 0.929 . S
C847 C848 1.358 . S
C847 C849 1.356 . S
C847 H879 0.930 . S
C848 N845 1.279 . S
C848 C847 1.358 . S
C848 H851 0.930 . S
C849 C846 1.348 . S
C849 C847 1.356 . S
H850 C844 0.930 . S
H851 C848 0.930 . S
O852 Li792 1.956 . S
O852 Li793 1.970 . S
O852 Li794 1.961 . S
O852 C796 1.325 . S
O853 Li792 1.970 . S
O853 Li793 1.956 . S
O853 Li795 1.961 . S
O853 C802 1.325 . S
O854 Li792 1.961 . S
O854 Li794 1.956 . S
O854 Li795 1.970 . S
O854 C824 1.325 . S
O855 Li793 1.961 . S
O855 Li794 1.970 . S
O855 Li795 1.956 . S
O855 C830 1.325 . S
H856 C798 0.929 . S
H857 C799 0.930 . S
H858 C800 0.930 . S
H859 C801 0.930 . S
H860 C803 0.930 . S
H861 C805 0.929 . S
H862 C806 0.930 . S
H863 C807 0.930 . S
H864 C810 0.930 . S
H865 C813 0.929 . S
H866 C818 0.929 . S
H867 C819 0.930 . S
H868 C826 0.929 . S
H869 C827 0.930 . S
H870 C828 0.930 . S
H871 C829 0.930 . S
H872 C831 0.929 . S
H873 C832 0.930 . S
H874 C833 0.930 . S
H875 C834 0.930 . S
H876 C838 0.929 . S
H877 C840 0.930 . S
H878 C846 0.929 . S
H879 C847 0.930 . S
Li880 N897 1.990 . S
Li880 O940 1.956 . S
Li880 O941 1.970 . S
Li880 O942 1.961 . S
Li881 N905 1.990 . S
Li881 O940 1.970 . S
Li881 O941 1.956 . S
Li881 O943 1.961 . S
Li882 N927 1.990 . S
Li882 O940 1.961 . S
Li882 O942 1.956 . S
Li882 O943 1.970 . S
Li883 N933 1.990 . S
Li883 O941 1.961 . S
Li883 O942 1.970 . S
Li883 O943 1.956 . S
C884 C886 1.348 . S
C884 C887 1.356 . S
C884 O940 1.325 . S
N885 C888 1.314 . S
N885 C889 1.279 . S
C886 C884 1.348 . S
C886 C888 1.353 . S
C886 H944 0.929 . S
C887 C884 1.356 . S
C887 C889 1.358 . S
C887 H945 0.930 . S
C888 N885 1.314 . S
C888 C886 1.353 . S
C888 H946 0.930 . S
C889 N885 1.279 . S
C889 C887 1.358 . S
C889 H947 0.930 . S
C890 C893 1.348 . S
C890 C894 1.356 . S
C890 O941 1.325 . S
C891 N892 1.279 . S
C891 C894 1.358 . S
C891 H948 0.930 . S
N892 C891 1.279 . S
N892 C895 1.314 . S
C893 C890 1.348 . S
C893 C895 1.353 . S
C893 H949 0.929 . S
C894 C890 1.356 . S
C894 C891 1.358 . S
C894 H950 0.930 . S
C895 N892 1.314 . S
C895 C893 1.353 . S
C895 H951 0.930 . S
C896 N897 1.314 . S
C896 C901 1.353 . S
C896 H902 0.930 . S
N897 Li880 1.990 . S
N897 C896 1.314 . S
N897 C899 1.279 . S
C898 C899 1.358 . S
C898 C900 1.356 . S
C898 H952 0.930 . S
C899 N897 1.279 . S
C899 C898 1.358 . S
C899 H903 0.930 . S
C900 C898 1.356 . S
C900 C901 1.348 . S
C901 C896 1.353 . S
C901 C900 1.348 . S
C901 H953 0.929 . S
H902 C896 0.930 . S
H903 C899 0.930 . S
C904 N905 1.314 . S
C904 C906 1.353 . S
C904 H910 0.930 . S
N905 Li881 1.990 . S
N905 C904 1.314 . S
N905 C908 1.279 . S
C906 C904 1.353 . S
C906 C909 1.348 . S
C906 H954 0.929 . S
C907 C908 1.358 . S
C907 C909 1.356 . S
C907 H955 0.930 . S
C908 N905 1.279 . S
C908 C907 1.358 . S
C908 H911 0.930 . S
C909 C906 1.348 . S
C909 C907 1.356 . S
H910 C904 0.930 . S
H911 C908 0.930 . S
C912 C914 1.348 . S
C912 C915 1.356 . S
C912 O942 1.325 . S
N913 C916 1.314 . S
N913 C917 1.279 . S
C914 C912 1.348 . S
C914 C916 1.353 . S
C914 H956 0.929 . S
C915 C912 1.356 . S
C915 C917 1.358 . S
C915 H957 0.930 . S
C916 N913 1.314 . S
C916 C914 1.353 . S
C916 H958 0.930 . S
C917 N913 1.279 . S
C917 C915 1.358 . S
C917 H959 0.930 . S
C918 C919 1.348 . S
C918 C920 1.356 . S
C918 O943 1.325 . S
C919 C918 1.348 . S
C919 C921 1.353 . S
C919 H960 0.929 . S
C920 C918 1.356 . S
C920 C922 1.358 . S
C920 H961 0.930 . S
C921 C919 1.353 . S
C921 N923 1.314 . S
C921 H962 0.930 . S
C922 C920 1.358 . S
C922 N923 1.279 . S
C922 H963 0.930 . S
N923 C921 1.314 . S
N923 C922 1.279 . S
C924 C926 1.353 . S
C924 N927 1.314 . S
C924 H930 0.930 . S
C925 N927 1.279 . S
C925 C928 1.358 . S
C925 H931 0.930 . S
C926 C924 1.353 . S
C926 C929 1.348 . S
C926 H964 0.929 . S
N927 Li882 1.990 . S
N927 C924 1.314 . S
N927 C925 1.279 . S
C928 C925 1.358 . S
C928 C929 1.356 . S
C928 H965 0.930 . S
C929 C926 1.348 . S
C929 C928 1.356 . S
H930 C924 0.930 . S
H931 C925 0.930 . S
C932 N933 1.314 . S
C932 C934 1.353 . S
C932 H938 0.930 . S
N933 Li883 1.990 . S
N933 C932 1.314 . S
N933 C936 1.279 . S
C934 C932 1.353 . S
C934 C937 1.348 . S
C934 H966 0.929 . S
C935 C936 1.358 . S
C935 C937 1.356 . S
C935 H967 0.930 . S
C936 N933 1.279 . S
C936 C935 1.358 . S
C936 H939 0.930 . S
C937 C934 1.348 . S
C937 C935 1.356 . S
H938 C932 0.930 . S
H939 C936 0.930 . S
O940 Li880 1.956 . S
O940 Li881 1.970 . S
O940 Li882 1.961 . S
O940 C884 1.325 . S
O941 Li880 1.970 . S
O941 Li881 1.956 . S
O941 Li883 1.961 . S
O941 C890 1.325 . S
O942 Li880 1.961 . S
O942 Li882 1.956 . S
O942 Li883 1.970 . S
O942 C912 1.325 . S
O943 Li881 1.961 . S
O943 Li882 1.970 . S
O943 Li883 1.956 . S
O943 C918 1.325 . S
H944 C886 0.929 . S
H945 C887 0.930 . S
H946 C888 0.930 . S
H947 C889 0.930 . S
H948 C891 0.930 . S
H949 C893 0.929 . S
H950 C894 0.930 . S
H951 C895 0.930 . S
H952 C898 0.930 . S
H953 C901 0.929 . S
H954 C906 0.929 . S
H955 C907 0.930 . S
H956 C914 0.929 . S
H957 C915 0.930 . S
H958 C916 0.930 . S
H959 C917 0.930 . S
H960 C919 0.929 . S
H961 C920 0.930 . S
H962 C921 0.930 . S
H963 C922 0.930 . S
H964 C926 0.929 . S
H965 C928 0.930 . S
H966 C934 0.929 . S
H967 C935 0.930 . S
Li968 N985 1.990 . S
Li968 O1028 1.956 . S
Li968 O1029 1.970 . S
Li968 O1030 1.961 . S
Li969 N993 1.990 . S
Li969 O1028 1.970 . S
Li969 O1029 1.956 . S
Li969 O1031 1.961 . S
Li970 N1015 1.990 . S
Li970 O1028 1.961 . S
Li970 O1030 1.956 . S
Li970 O1031 1.970 . S
Li971 N1021 1.990 . S
Li971 O1029 1.961 . S
Li971 O1030 1.970 . S
Li971 O1031 1.956 . S
C972 C974 1.348 . S
C972 C975 1.356 . S
C972 O1028 1.325 . S
N973 C976 1.314 . S
N973 C977 1.279 . S
C974 C972 1.348 . S
C974 C976 1.353 . S
C974 H1032 0.929 . S
C975 C972 1.356 . S
C975 C977 1.358 . S
C975 H1033 0.930 . S
C976 N973 1.314 . S
C976 C974 1.353 . S
C976 H1034 0.930 . S
C977 N973 1.279 . S
C977 C975 1.358 . S
C977 H1035 0.930 . S
C978 C981 1.348 . S
C978 C982 1.356 . S
C978 O1029 1.325 . S
C979 N980 1.279 . S
C979 C982 1.358 . S
C979 H1036 0.930 . S
N980 C979 1.279 . S
N980 C983 1.314 . S
C981 C978 1.348 . S
C981 C983 1.353 . S
C981 H1037 0.929 . S
C982 C978 1.356 . S
C982 C979 1.358 . S
C982 H1038 0.930 . S
C983 N980 1.314 . S
C983 C981 1.353 . S
C983 H1039 0.930 . S
C984 N985 1.314 . S
C984 C989 1.353 . S
C984 H990 0.930 . S
N985 Li968 1.990 . S
N985 C984 1.314 . S
N985 C987 1.279 . S
C986 C987 1.358 . S
C986 C988 1.356 . S
C986 H1040 0.930 . S
C987 N985 1.279 . S
C987 C986 1.358 . S
C987 H991 0.930 . S
C988 C986 1.356 . S
C988 C989 1.348 . S
C989 C984 1.353 . S
C989 C988 1.348 . S
C989 H1041 0.929 . S
H990 C984 0.930 . S
H991 C987 0.930 . S
C992 N993 1.314 . S
C992 C994 1.353 . S
C992 H998 0.930 . S
N993 Li969 1.990 . S
N993 C992 1.314 . S
N993 C996 1.279 . S
C994 C992 1.353 . S
C994 C997 1.348 . S
C994 H1042 0.929 . S
C995 C996 1.358 . S
C995 C997 1.356 . S
C995 H1043 0.930 . S
C996 N993 1.279 . S
C996 C995 1.358 . S
C996 H999 0.930 . S
C997 C994 1.348 . S
C997 C995 1.356 . S
H998 C992 0.930 . S
H999 C996 0.930 . S
C1000 C1002 1.348 . S
C1000 C1003 1.356 . S
C1000 O1030 1.325 . S
N1001 C1004 1.314 . S
N1001 C1005 1.279 . S
C1002 C1000 1.348 . S
C1002 C1004 1.353 . S
C1002 H1044 0.929 . S
C1003 C1000 1.356 . S
C1003 C1005 1.358 . S
C1003 H1045 0.930 . S
C1004 N1001 1.314 . S
C1004 C1002 1.353 . S
C1004 H1046 0.930 . S
C1005 N1001 1.279 . S
C1005 C1003 1.358 . S
C1005 H1047 0.930 . S
C1006 C1007 1.348 . S
C1006 C1008 1.356 . S
C1006 O1031 1.325 . S
C1007 C1006 1.348 . S
C1007 C1009 1.353 . S
C1007 H1048 0.929 . S
C1008 C1006 1.356 . S
C1008 C1010 1.358 . S
C1008 H1049 0.930 . S
C1009 C1007 1.353 . S
C1009 N1011 1.314 . S
C1009 H1050 0.930 . S
C1010 C1008 1.358 . S
C1010 N1011 1.279 . S
C1010 H1051 0.930 . S
N1011 C1009 1.314 . S
N1011 C1010 1.279 . S
C1012 C1014 1.353 . S
C1012 N1015 1.314 . S
C1012 H1018 0.930 . S
C1013 N1015 1.279 . S
C1013 C1016 1.358 . S
C1013 H1019 0.930 . S
C1014 C1012 1.353 . S
C1014 C1017 1.348 . S
C1014 H1052 0.929 . S
N1015 Li970 1.990 . S
N1015 C1012 1.314 . S
N1015 C1013 1.279 . S
C1016 C1013 1.358 . S
C1016 C1017 1.356 . S
C1016 H1053 0.930 . S
C1017 C1014 1.348 . S
C1017 C1016 1.356 . S
H1018 C1012 0.930 . S
H1019 C1013 0.930 . S
C1020 N1021 1.314 . S
C1020 C1022 1.353 . S
C1020 H1026 0.930 . S
N1021 Li971 1.990 . S
N1021 C1020 1.314 . S
N1021 C1024 1.279 . S
C1022 C1020 1.353 . S
C1022 C1025 1.348 . S
C1022 H1054 0.929 . S
C1023 C1024 1.358 . S
C1023 C1025 1.356 . S
C1023 H1055 0.930 . S
C1024 N1021 1.279 . S
C1024 C1023 1.358 . S
C1024 H1027 0.930 . S
C1025 C1022 1.348 . S
C1025 C1023 1.356 . S
H1026 C1020 0.930 . S
H1027 C1024 0.930 . S
O1028 Li968 1.956 . S
O1028 Li969 1.970 . S
O1028 Li970 1.961 . S
O1028 C972 1.325 . S
O1029 Li968 1.970 . S
O1029 Li969 1.956 . S
O1029 Li971 1.961 . S
O1029 C978 1.325 . S
O1030 Li968 1.961 . S
O1030 Li970 1.956 . S
O1030 Li971 1.970 . S
O1030 C1000 1.325 . S
O1031 Li969 1.961 . S
O1031 Li970 1.970 . S
O1031 Li971 1.956 . S
O1031 C1006 1.325 . S
H1032 C974 0.929 . S
H1033 C975 0.930 . S
H1034 C976 0.930 . S
H1035 C977 0.930 . S
H1036 C979 0.930 . S
H1037 C981 0.929 . S
H1038 C982 0.930 . S
H1039 C983 0.930 . S
H1040 C986 0.930 . S
H1041 C989 0.929 . S
H1042 C994 0.929 . S
H1043 C995 0.930 . S
H1044 C1002 0.929 . S
H1045 C1003 0.930 . S
H1046 C1004 0.930 . S
H1047 C1005 0.930 . S
H1048 C1007 0.929 . S
H1049 C1008 0.930 . S
H1050 C1009 0.930 . S
H1051 C1010 0.930 . S
H1052 C1014 0.929 . S
H1053 C1016 0.930 . S
H1054 C1022 0.929 . S
H1055 C1023 0.930 . S
H1056 C1074 0.951 . S
H1057 C1076 0.951 . S
H1058 C1078 0.950 . S
H1059 C1079 0.950 . S
H1060 C1081 0.950 . S
H1061 C1084 0.950 . S
H1062 C1085 0.950 . S
H1063 C1087 0.950 . S
H1064 C1088 0.950 . S
H1065 C1089 0.951 . S
H1066 C1091 0.951 . S
H1067 C1093 0.950 . S
H1068 C1094 0.950 . S
H1069 C1096 0.950 . S
H1070 C1099 0.950 . S
H1071 C1100 0.950 . S
H1072 C1102 0.950 . S
H1073 C1103 0.950 . S
C1074 H1056 0.951 . S
C1074 C1075 1.366 . S
C1074 C1076 1.388 . S
C1075 C1074 1.366 . S
C1075 C1079 1.385 . S
C1076 H1057 0.951 . S
C1076 C1074 1.388 . S
C1076 C1077 1.366 . S
C1077 C1076 1.366 . S
C1077 C1078 1.414 . S
C1077 C1080 1.499 . S
C1078 H1058 0.950 . S
C1078 C1077 1.414 . S
C1078 C1079 1.374 . S
C1079 H1059 0.950 . S
C1079 C1075 1.385 . S
C1079 C1078 1.374 . S
C1080 C1077 1.499 . S
C1080 C1081 1.373 . S
C1080 C1082 1.389 . S
C1081 H1060 0.950 . S
C1081 C1080 1.373 . S
C1081 C1097 1.377 . S
C1082 C1080 1.389 . S
C1082 C1083 1.524 . S
C1082 C1096 1.377 . S
C1083 C1082 1.524 . S
C1083 C1084 1.397 . S
C1083 C1088 1.363 . S
C1084 H1061 0.950 . S
C1084 C1083 1.397 . S
C1084 C1085 1.334 . S
C1085 H1062 0.950 . S
C1085 C1084 1.334 . S
C1085 C1086 1.287 . S
C1086 C1085 1.287 . S
C1086 C1087 1.524 . S
C1086 H1105 0.913 . S
C1087 H1063 0.950 . S
C1087 C1086 1.524 . S
C1087 C1088 1.415 . S
C1088 H1064 0.950 . S
C1088 C1083 1.363 . S
C1088 C1087 1.415 . S
C1089 H1065 0.951 . S
C1089 C1090 1.366 . S
C1089 C1091 1.388 . S
C1090 C1089 1.366 . S
C1090 C1094 1.385 . S
C1091 H1066 0.951 . S
C1091 C1089 1.388 . S
C1091 C1092 1.366 . S
C1092 C1091 1.366 . S
C1092 C1093 1.414 . S
C1092 C1095 1.499 . S
C1093 H1067 0.950 . S
C1093 C1092 1.414 . S
C1093 C1094 1.374 . S
C1094 H1068 0.950 . S
C1094 C1090 1.385 . S
C1094 C1093 1.374 . S
C1095 C1092 1.499 . S
C1095 C1096 1.373 . S
C1095 C1097 1.389 . S
C1096 H1069 0.950 . S
C1096 C1082 1.377 . S
C1096 C1095 1.373 . S
C1097 C1081 1.377 . S
C1097 C1095 1.389 . S
C1097 C1098 1.524 . S
C1098 C1097 1.524 . S
C1098 C1099 1.397 . S
C1098 C1103 1.363 . S
C1099 H1070 0.950 . S
C1099 C1098 1.397 . S
C1099 C1100 1.334 . S
C1100 H1071 0.950 . S
C1100 C1099 1.334 . S
C1100 C1101 1.287 . S
C1101 C1100 1.287 . S
C1101 C1102 1.524 . S
C1101 H1104 0.999 . S
C1102 H1072 0.950 . S
C1102 C1101 1.524 . S
C1102 C1103 1.415 . S
C1103 H1073 0.950 . S
C1103 C1098 1.363 . S
C1103 C1102 1.415 . S
H1104 C1101 0.999 . S
H1105 C1086 0.913 . S
H1106 C1124 0.951 . S
H1107 C1126 0.951 . S
H1108 C1128 0.950 . S
H1109 C1129 0.950 . S
H1110 C1131 0.950 . S
H1111 C1134 0.950 . S
H1112 C1135 0.950 . S
H1113 C1137 0.950 . S
H1114 C1138 0.950 . S
H1115 C1139 0.951 . S
H1116 C1141 0.951 . S
H1117 C1143 0.950 . S
H1118 C1144 0.950 . S
H1119 C1146 0.950 . S
H1120 C1149 0.950 . S
H1121 C1150 0.950 . S
H1122 C1152 0.950 . S
H1123 C1153 0.950 . S
C1124 H1106 0.951 . S
C1124 C1125 1.366 . S
C1124 C1126 1.388 . S
C1125 C1124 1.366 . S
C1125 C1129 1.385 . S
C1126 H1107 0.951 . S
C1126 C1124 1.388 . S
C1126 C1127 1.366 . S
C1127 C1126 1.366 . S
C1127 C1128 1.414 . S
C1127 C1130 1.499 . S
C1128 H1108 0.950 . S
C1128 C1127 1.414 . S
C1128 C1129 1.374 . S
C1129 H1109 0.950 . S
C1129 C1125 1.385 . S
C1129 C1128 1.374 . S
C1130 C1127 1.499 . S
C1130 C1131 1.373 . S
C1130 C1132 1.389 . S
C1131 H1110 0.950 . S
C1131 C1130 1.373 . S
C1131 C1147 1.377 . S
C1132 C1130 1.389 . S
C1132 C1133 1.524 . S
C1132 C1146 1.377 . S
C1133 C1132 1.524 . S
C1133 C1134 1.397 . S
C1133 C1138 1.363 . S
C1134 H1111 0.950 . S
C1134 C1133 1.397 . S
C1134 C1135 1.334 . S
C1135 H1112 0.950 . S
C1135 C1134 1.334 . S
C1135 C1136 1.287 . S
C1136 C1135 1.287 . S
C1136 C1137 1.524 . S
C1136 H1155 0.913 . S
C1137 H1113 0.950 . S
C1137 C1136 1.524 . S
C1137 C1138 1.415 . S
C1138 H1114 0.950 . S
C1138 C1133 1.363 . S
C1138 C1137 1.415 . S
C1139 H1115 0.951 . S
C1139 C1140 1.366 . S
C1139 C1141 1.388 . S
C1140 C1139 1.366 . S
C1140 C1144 1.385 . S
C1141 H1116 0.951 . S
C1141 C1139 1.388 . S
C1141 C1142 1.366 . S
C1142 C1141 1.366 . S
C1142 C1143 1.414 . S
C1142 C1145 1.499 . S
C1143 H1117 0.950 . S
C1143 C1142 1.414 . S
C1143 C1144 1.374 . S
C1144 H1118 0.950 . S
C1144 C1140 1.385 . S
C1144 C1143 1.374 . S
C1145 C1142 1.499 . S
C1145 C1146 1.373 . S
C1145 C1147 1.389 . S
C1146 H1119 0.950 . S
C1146 C1132 1.377 . S
C1146 C1145 1.373 . S
C1147 C1131 1.377 . S
C1147 C1145 1.389 . S
C1147 C1148 1.524 . S
C1148 C1147 1.524 . S
C1148 C1149 1.397 . S
C1148 C1153 1.363 . S
C1149 H1120 0.950 . S
C1149 C1148 1.397 . S
C1149 C1150 1.334 . S
C1150 H1121 0.950 . S
C1150 C1149 1.334 . S
C1150 C1151 1.287 . S
C1151 C1150 1.287 . S
C1151 C1152 1.524 . S
C1151 H1154 0.999 . S
C1152 H1122 0.950 . S
C1152 C1151 1.524 . S
C1152 C1153 1.415 . S
C1153 H1123 0.950 . S
C1153 C1148 1.363 . S
C1153 C1152 1.415 . S
H1154 C1151 0.999 . S
H1155 C1136 0.913 . S
H1156 C1174 0.951 . S
H1157 C1176 0.951 . S
H1158 C1178 0.950 . S
H1159 C1179 0.950 . S
H1160 C1181 0.950 . S
H1161 C1184 0.950 . S
H1162 C1185 0.950 . S
H1163 C1187 0.950 1_455 S
H1164 C1188 0.950 . S
H1165 C1189 0.951 . S
H1166 C1191 0.951 . S
H1167 C1193 0.950 . S
H1168 C1194 0.950 . S
H1169 C1196 0.950 . S
H1170 C1199 0.950 . S
H1171 C1200 0.950 . S
H1172 C1202 0.950 . S
H1173 C1203 0.950 . S
C1174 H1156 0.951 . S
C1174 C1175 1.366 . S
C1174 C1176 1.388 . S
C1175 C1174 1.366 . S
C1175 C1179 1.385 . S
C1176 H1157 0.951 . S
C1176 C1174 1.388 . S
C1176 C1177 1.366 . S
C1177 C1176 1.366 . S
C1177 C1178 1.414 . S
C1177 C1180 1.499 . S
C1178 H1158 0.950 . S
C1178 C1177 1.414 . S
C1178 C1179 1.374 . S
C1179 H1159 0.950 . S
C1179 C1175 1.385 . S
C1179 C1178 1.374 . S
C1180 C1177 1.499 . S
C1180 C1181 1.373 . S
C1180 C1182 1.389 . S
C1181 H1160 0.950 . S
C1181 C1180 1.373 . S
C1181 C1197 1.377 . S
C1182 C1180 1.389 . S
C1182 C1183 1.524 . S
C1182 C1196 1.377 . S
C1183 C1182 1.524 . S
C1183 C1184 1.397 . S
C1183 C1188 1.363 . S
C1184 H1161 0.950 . S
C1184 C1183 1.397 . S
C1184 C1185 1.334 . S
C1185 H1162 0.950 . S
C1185 C1184 1.334 . S
C1185 C1186 1.287 . S
C1186 C1185 1.287 . S
C1186 C1187 1.524 . S
C1186 H1205 0.913 1_655 S
C1187 H1163 0.950 1_655 S
C1187 C1186 1.524 . S
C1187 C1188 1.415 . S
C1188 H1164 0.950 . S
C1188 C1183 1.363 . S
C1188 C1187 1.415 . S
C1189 H1165 0.951 . S
C1189 C1190 1.366 . S
C1189 C1191 1.388 . S
C1190 C1189 1.366 . S
C1190 C1194 1.385 . S
C1191 H1166 0.951 . S
C1191 C1189 1.388 . S
C1191 C1192 1.366 . S
C1192 C1191 1.366 . S
C1192 C1193 1.414 . S
C1192 C1195 1.499 . S
C1193 H1167 0.950 . S
C1193 C1192 1.414 . S
C1193 C1194 1.374 . S
C1194 H1168 0.950 . S
C1194 C1190 1.385 . S
C1194 C1193 1.374 . S
C1195 C1192 1.499 . S
C1195 C1196 1.373 . S
C1195 C1197 1.389 . S
C1196 H1169 0.950 . S
C1196 C1182 1.377 . S
C1196 C1195 1.373 . S
C1197 C1181 1.377 . S
C1197 C1195 1.389 . S
C1197 C1198 1.524 . S
C1198 C1197 1.524 . S
C1198 C1199 1.397 . S
C1198 C1203 1.363 . S
C1199 H1170 0.950 . S
C1199 C1198 1.397 . S
C1199 C1200 1.334 . S
C1200 H1171 0.950 . S
C1200 C1199 1.334 . S
C1200 C1201 1.287 . S
C1201 C1200 1.287 . S
C1201 C1202 1.524 . S
C1201 H1204 0.999 . S
C1202 H1172 0.950 . S
C1202 C1201 1.524 . S
C1202 C1203 1.415 . S
C1203 H1173 0.950 . S
C1203 C1198 1.363 . S
C1203 C1202 1.415 . S
H1204 C1201 0.999 . S
H1205 C1186 0.913 1_455 S
H1206 C1224 0.951 . S
H1207 C1226 0.951 . S
H1208 C1228 0.950 . S
H1209 C1229 0.950 . S
H1210 C1231 0.950 . S
H1211 C1234 0.950 . S
H1212 C1235 0.950 . S
H1213 C1237 0.950 . S
H1214 C1238 0.950 . S
H1215 C1239 0.951 . S
H1216 C1241 0.951 . S
H1217 C1243 0.950 . S
H1218 C1244 0.950 . S
H1219 C1246 0.950 . S
H1220 C1249 0.950 . S
H1221 C1250 0.950 . S
H1222 C1252 0.950 . S
H1223 C1253 0.950 . S
C1224 H1206 0.951 . S
C1224 C1225 1.366 . S
C1224 C1226 1.388 . S
C1225 C1224 1.366 . S
C1225 C1229 1.385 . S
C1226 H1207 0.951 . S
C1226 C1224 1.388 . S
C1226 C1227 1.366 . S
C1227 C1226 1.366 . S
C1227 C1228 1.414 . S
C1227 C1230 1.499 . S
C1228 H1208 0.950 . S
C1228 C1227 1.414 . S
C1228 C1229 1.374 . S
C1229 H1209 0.950 . S
C1229 C1225 1.385 . S
C1229 C1228 1.374 . S
C1230 C1227 1.499 . S
C1230 C1231 1.373 . S
C1230 C1232 1.389 . S
C1231 H1210 0.950 . S
C1231 C1230 1.373 . S
C1231 C1247 1.377 . S
C1232 C1230 1.389 . S
C1232 C1233 1.524 . S
C1232 C1246 1.377 . S
C1233 C1232 1.524 . S
C1233 C1234 1.397 . S
C1233 C1238 1.363 . S
C1234 H1211 0.950 . S
C1234 C1233 1.397 . S
C1234 C1235 1.334 . S
C1235 H1212 0.950 . S
C1235 C1234 1.334 . S
C1235 C1236 1.287 . S
C1236 C1235 1.287 . S
C1236 C1237 1.524 . S
C1236 H1255 0.913 . S
C1237 H1213 0.950 . S
C1237 C1236 1.524 . S
C1237 C1238 1.415 . S
C1238 H1214 0.950 . S
C1238 C1233 1.363 . S
C1238 C1237 1.415 . S
C1239 H1215 0.951 . S
C1239 C1240 1.366 . S
C1239 C1241 1.388 . S
C1240 C1239 1.366 . S
C1240 C1244 1.385 . S
C1241 H1216 0.951 . S
C1241 C1239 1.388 . S
C1241 C1242 1.366 . S
C1242 C1241 1.366 . S
C1242 C1243 1.414 . S
C1242 C1245 1.499 . S
C1243 H1217 0.950 . S
C1243 C1242 1.414 . S
C1243 C1244 1.374 . S
C1244 H1218 0.950 . S
C1244 C1240 1.385 . S
C1244 C1243 1.374 . S
C1245 C1242 1.499 . S
C1245 C1246 1.373 . S
C1245 C1247 1.389 . S
C1246 H1219 0.950 . S
C1246 C1232 1.377 . S
C1246 C1245 1.373 . S
C1247 C1231 1.377 . S
C1247 C1245 1.389 . S
C1247 C1248 1.524 . S
C1248 C1247 1.524 . S
C1248 C1249 1.397 . S
C1248 C1253 1.363 . S
C1249 H1220 0.950 . S
C1249 C1248 1.397 . S
C1249 C1250 1.334 . S
C1250 H1221 0.950 . S
C1250 C1249 1.334 . S
C1250 C1251 1.287 . S
C1251 C1250 1.287 . S
C1251 C1252 1.524 . S
C1251 H1254 0.999 . S
C1252 H1222 0.950 . S
C1252 C1251 1.524 . S
C1252 C1253 1.415 . S
C1253 H1223 0.950 . S
C1253 C1248 1.363 . S
C1253 C1252 1.415 . S
H1254 C1251 0.999 . S
H1255 C1236 0.913 . S
H1256 C1274 0.951 . S
H1257 C1276 0.951 . S
H1258 C1278 0.950 . S
H1259 C1279 0.950 . S
H1260 C1281 0.950 . S
H1261 C1284 0.950 . S
H1262 C1285 0.950 . S
H1263 C1287 0.950 . S
H1264 C1288 0.950 . S
H1265 C1289 0.951 . S
H1266 C1291 0.951 . S
H1267 C1293 0.950 . S
H1268 C1294 0.950 . S
H1269 C1296 0.950 . S
H1270 C1299 0.950 . S
H1271 C1300 0.950 . S
H1272 C1302 0.950 . S
H1273 C1303 0.950 . S
C1274 H1256 0.951 . S
C1274 C1275 1.366 . S
C1274 C1276 1.388 . S
C1275 C1274 1.366 . S
C1275 C1279 1.385 . S
C1276 H1257 0.951 . S
C1276 C1274 1.388 . S
C1276 C1277 1.366 . S
C1277 C1276 1.366 . S
C1277 C1278 1.414 . S
C1277 C1280 1.499 . S
C1278 H1258 0.950 . S
C1278 C1277 1.414 . S
C1278 C1279 1.374 . S
C1279 H1259 0.950 . S
C1279 C1275 1.385 . S
C1279 C1278 1.374 . S
C1280 C1277 1.499 . S
C1280 C1281 1.373 . S
C1280 C1282 1.389 . S
C1281 H1260 0.950 . S
C1281 C1280 1.373 . S
C1281 C1297 1.377 . S
C1282 C1280 1.389 . S
C1282 C1283 1.524 . S
C1282 C1296 1.377 . S
C1283 C1282 1.524 . S
C1283 C1284 1.397 . S
C1283 C1288 1.363 . S
C1284 H1261 0.950 . S
C1284 C1283 1.397 . S
C1284 C1285 1.334 . S
C1285 H1262 0.950 . S
C1285 C1284 1.334 . S
C1285 C1286 1.287 . S
C1286 C1285 1.287 . S
C1286 C1287 1.524 . S
C1286 H1305 0.913 . S
C1287 H1263 0.950 . S
C1287 C1286 1.524 . S
C1287 C1288 1.415 . S
C1288 H1264 0.950 . S
C1288 C1283 1.363 . S
C1288 C1287 1.415 . S
C1289 H1265 0.951 . S
C1289 C1290 1.366 . S
C1289 C1291 1.388 . S
C1290 C1289 1.366 . S
C1290 C1294 1.385 . S
C1291 H1266 0.951 . S
C1291 C1289 1.388 . S
C1291 C1292 1.366 . S
C1292 C1291 1.366 . S
C1292 C1293 1.414 . S
C1292 C1295 1.499 . S
C1293 H1267 0.950 . S
C1293 C1292 1.414 . S
C1293 C1294 1.374 . S
C1294 H1268 0.950 . S
C1294 C1290 1.385 . S
C1294 C1293 1.374 . S
C1295 C1292 1.499 . S
C1295 C1296 1.373 . S
C1295 C1297 1.389 . S
C1296 H1269 0.950 . S
C1296 C1282 1.377 . S
C1296 C1295 1.373 . S
C1297 C1281 1.377 . S
C1297 C1295 1.389 . S
C1297 C1298 1.524 . S
C1298 C1297 1.524 . S
C1298 C1299 1.397 . S
C1298 C1303 1.363 . S
C1299 H1270 0.950 . S
C1299 C1298 1.397 . S
C1299 C1300 1.334 . S
C1300 H1271 0.950 . S
C1300 C1299 1.334 . S
C1300 C1301 1.287 . S
C1301 C1300 1.287 . S
C1301 C1302 1.524 . S
C1301 H1304 0.999 . S
C1302 H1272 0.950 . S
C1302 C1301 1.524 . S
C1302 C1303 1.415 . S
C1303 H1273 0.950 . S
C1303 C1298 1.363 . S
C1303 C1302 1.415 . S
H1304 C1301 0.999 . S
H1305 C1286 0.913 . S
H1306 C1324 0.951 . S
H1307 C1326 0.951 . S
H1308 C1328 0.950 . S
H1309 C1329 0.950 . S
H1310 C1331 0.950 . S
H1311 C1334 0.950 . S
H1312 C1335 0.950 . S
H1313 C1337 0.950 . S
H1314 C1338 0.950 . S
H1315 C1339 0.951 . S
H1316 C1341 0.951 . S
H1317 C1343 0.950 . S
H1318 C1344 0.950 . S
H1319 C1346 0.950 . S
H1320 C1349 0.950 . S
H1321 C1350 0.950 . S
H1322 C1352 0.950 . S
H1323 C1353 0.950 . S
C1324 H1306 0.951 . S
C1324 C1325 1.366 . S
C1324 C1326 1.388 . S
C1325 C1324 1.366 . S
C1325 C1329 1.385 . S
C1326 H1307 0.951 . S
C1326 C1324 1.388 . S
C1326 C1327 1.366 . S
C1327 C1326 1.366 . S
C1327 C1328 1.414 . S
C1327 C1330 1.499 . S
C1328 H1308 0.950 . S
C1328 C1327 1.414 . S
C1328 C1329 1.374 . S
C1329 H1309 0.950 . S
C1329 C1325 1.385 . S
C1329 C1328 1.374 . S
C1330 C1327 1.499 . S
C1330 C1331 1.373 . S
C1330 C1332 1.389 . S
C1331 H1310 0.950 . S
C1331 C1330 1.373 . S
C1331 C1347 1.377 . S
C1332 C1330 1.389 . S
C1332 C1333 1.524 . S
C1332 C1346 1.377 . S
C1333 C1332 1.524 . S
C1333 C1334 1.397 . S
C1333 C1338 1.363 . S
C1334 H1311 0.950 . S
C1334 C1333 1.397 . S
C1334 C1335 1.334 . S
C1335 H1312 0.950 . S
C1335 C1334 1.334 . S
C1335 C1336 1.287 . S
C1336 C1335 1.287 . S
C1336 C1337 1.524 . S
C1336 H1355 0.913 . S
C1337 H1313 0.950 . S
C1337 C1336 1.524 . S
C1337 C1338 1.415 . S
C1338 H1314 0.950 . S
C1338 C1333 1.363 . S
C1338 C1337 1.415 . S
C1339 H1315 0.951 . S
C1339 C1340 1.366 . S
C1339 C1341 1.388 . S
C1340 C1339 1.366 . S
C1340 C1344 1.385 . S
C1341 H1316 0.951 . S
C1341 C1339 1.388 . S
C1341 C1342 1.366 . S
C1342 C1341 1.366 . S
C1342 C1343 1.414 . S
C1342 C1345 1.499 . S
C1343 H1317 0.950 . S
C1343 C1342 1.414 . S
C1343 C1344 1.374 . S
C1344 H1318 0.950 . S
C1344 C1340 1.385 . S
C1344 C1343 1.374 . S
C1345 C1342 1.499 . S
C1345 C1346 1.373 . S
C1345 C1347 1.389 . S
C1346 H1319 0.950 . S
C1346 C1332 1.377 . S
C1346 C1345 1.373 . S
C1347 C1331 1.377 . S
C1347 C1345 1.389 . S
C1347 C1348 1.524 . S
C1348 C1347 1.524 . S
C1348 C1349 1.397 . S
C1348 C1353 1.363 . S
C1349 H1320 0.950 . S
C1349 C1348 1.397 . S
C1349 C1350 1.334 . S
C1350 H1321 0.950 . S
C1350 C1349 1.334 . S
C1350 C1351 1.287 . S
C1351 C1350 1.287 . S
C1351 C1352 1.524 . S
C1351 H1354 0.999 . S
C1352 H1322 0.950 . S
C1352 C1351 1.524 . S
C1352 C1353 1.415 . S
C1353 H1323 0.950 . S
C1353 C1348 1.363 . S
C1353 C1352 1.415 . S
H1354 C1351 0.999 . S
H1355 C1336 0.913 . S
H1356 C1374 0.951 . S
H1357 C1376 0.951 . S
H1358 C1378 0.950 . S
H1359 C1379 0.950 . S
H1360 C1381 0.950 . S
H1361 C1384 0.950 . S
H1362 C1385 0.950 . S
H1363 C1387 0.950 . S
H1364 C1388 0.950 . S
H1365 C1389 0.951 . S
H1366 C1391 0.951 . S
H1367 C1393 0.950 . S
H1368 C1394 0.950 . S
H1369 C1396 0.950 . S
H1370 C1399 0.950 . S
H1371 C1400 0.950 . S
H1372 C1402 0.950 . S
H1373 C1403 0.950 . S
C1374 H1356 0.951 . S
C1374 C1375 1.366 . S
C1374 C1376 1.388 . S
C1375 C1374 1.366 . S
C1375 C1379 1.385 . S
C1376 H1357 0.951 . S
C1376 C1374 1.388 . S
C1376 C1377 1.366 . S
C1377 C1376 1.366 . S
C1377 C1378 1.414 . S
C1377 C1380 1.499 . S
C1378 H1358 0.950 . S
C1378 C1377 1.414 . S
C1378 C1379 1.374 . S
C1379 H1359 0.950 . S
C1379 C1375 1.385 . S
C1379 C1378 1.374 . S
C1380 C1377 1.499 . S
C1380 C1381 1.373 1_554 S
C1380 C1382 1.389 . S
C1381 H1360 0.950 . S
C1381 C1380 1.373 1_556 S
C1381 C1397 1.377 1_545 S
C1382 C1380 1.389 . S
C1382 C1383 1.524 . S
C1382 C1396 1.377 1_545 S
C1383 C1382 1.524 . S
C1383 C1384 1.397 . S
C1383 C1388 1.363 . S
C1384 H1361 0.950 . S
C1384 C1383 1.397 . S
C1384 C1385 1.334 . S
C1385 H1362 0.950 . S
C1385 C1384 1.334 . S
C1385 C1386 1.287 . S
C1386 C1385 1.287 . S
C1386 C1387 1.524 . S
C1386 H1405 0.913 . S
C1387 H1363 0.950 . S
C1387 C1386 1.524 . S
C1387 C1388 1.415 . S
C1388 H1364 0.950 . S
C1388 C1383 1.363 . S
C1388 C1387 1.415 . S
C1389 H1365 0.951 . S
C1389 C1390 1.366 . S
C1389 C1391 1.388 . S
C1390 C1389 1.366 . S
C1390 C1394 1.385 . S
C1391 H1366 0.951 . S
C1391 C1389 1.388 . S
C1391 C1392 1.366 . S
C1392 C1391 1.366 . S
C1392 C1393 1.414 . S
C1392 C1395 1.499 . S
C1393 H1367 0.950 . S
C1393 C1392 1.414 . S
C1393 C1394 1.374 . S
C1394 H1368 0.950 . S
C1394 C1390 1.385 . S
C1394 C1393 1.374 . S
C1395 C1392 1.499 . S
C1395 C1396 1.373 1_556 S
C1395 C1397 1.389 . S
C1396 H1369 0.950 . S
C1396 C1382 1.377 1_565 S
C1396 C1395 1.373 1_554 S
C1397 C1381 1.377 1_565 S
C1397 C1395 1.389 . S
C1397 C1398 1.524 . S
C1398 C1397 1.524 . S
C1398 C1399 1.397 . S
C1398 C1403 1.363 . S
C1399 H1370 0.950 . S
C1399 C1398 1.397 . S
C1399 C1400 1.334 . S
C1400 H1371 0.950 . S
C1400 C1399 1.334 . S
C1400 C1401 1.287 . S
C1401 C1400 1.287 . S
C1401 C1402 1.524 . S
C1401 H1404 0.999 . S
C1402 H1372 0.950 . S
C1402 C1401 1.524 . S
C1402 C1403 1.415 . S
C1403 H1373 0.950 . S
C1403 C1398 1.363 . S
C1403 C1402 1.415 . S
H1404 C1401 0.999 . S
H1405 C1386 0.913 . S
H1406 C1424 0.951 . S
H1407 C1426 0.951 . S
H1408 C1428 0.950 . S
H1409 C1429 0.950 . S
H1410 C1431 0.950 . S
H1411 C1434 0.950 . S
H1412 C1435 0.950 . S
H1413 C1437 0.950 . S
H1414 C1438 0.950 . S
H1415 C1439 0.951 . S
H1416 C1441 0.951 . S
H1417 C1443 0.950 . S
H1418 C1444 0.950 . S
H1419 C1446 0.950 . S
H1420 C1449 0.950 . S
H1421 C1450 0.950 . S
H1422 C1452 0.950 . S
H1423 C1453 0.950 . S
C1424 H1406 0.951 . S
C1424 C1425 1.366 . S
C1424 C1426 1.388 . S
C1425 C1424 1.366 . S
C1425 C1429 1.385 . S
C1426 H1407 0.951 . S
C1426 C1424 1.388 . S
C1426 C1427 1.366 . S
C1427 C1426 1.366 . S
C1427 C1428 1.414 . S
C1427 C1430 1.499 . S
C1428 H1408 0.950 . S
C1428 C1427 1.414 . S
C1428 C1429 1.374 . S
C1429 H1409 0.950 . S
C1429 C1425 1.385 . S
C1429 C1428 1.374 . S
C1430 C1427 1.499 . S
C1430 C1431 1.373 . S
C1430 C1432 1.389 . S
C1431 H1410 0.950 . S
C1431 C1430 1.373 . S
C1431 C1447 1.377 . S
C1432 C1430 1.389 . S
C1432 C1433 1.524 . S
C1432 C1446 1.377 . S
C1433 C1432 1.524 . S
C1433 C1434 1.397 . S
C1433 C1438 1.363 . S
C1434 H1411 0.950 . S
C1434 C1433 1.397 . S
C1434 C1435 1.334 . S
C1435 H1412 0.950 . S
C1435 C1434 1.334 . S
C1435 C1436 1.287 . S
C1436 C1435 1.287 . S
C1436 C1437 1.524 . S
C1436 H1455 0.913 . S
C1437 H1413 0.950 . S
C1437 C1436 1.524 . S
C1437 C1438 1.415 . S
C1438 H1414 0.950 . S
C1438 C1433 1.363 . S
C1438 C1437 1.415 . S
C1439 H1415 0.951 . S
C1439 C1440 1.366 . S
C1439 C1441 1.388 . S
C1440 C1439 1.366 . S
C1440 C1444 1.385 . S
C1441 H1416 0.951 . S
C1441 C1439 1.388 . S
C1441 C1442 1.366 . S
C1442 C1441 1.366 . S
C1442 C1443 1.414 . S
C1442 C1445 1.499 . S
C1443 H1417 0.950 . S
C1443 C1442 1.414 . S
C1443 C1444 1.374 . S
C1444 H1418 0.950 . S
C1444 C1440 1.385 . S
C1444 C1443 1.374 . S
C1445 C1442 1.499 . S
C1445 C1446 1.373 . S
C1445 C1447 1.389 . S
C1446 H1419 0.950 . S
C1446 C1432 1.377 . S
C1446 C1445 1.373 . S
C1447 C1431 1.377 . S
C1447 C1445 1.389 . S
C1447 C1448 1.524 . S
C1448 C1447 1.524 . S
C1448 C1449 1.397 . S
C1448 C1453 1.363 . S
C1449 H1420 0.950 . S
C1449 C1448 1.397 . S
C1449 C1450 1.334 . S
C1450 H1421 0.950 . S
C1450 C1449 1.334 . S
C1450 C1451 1.287 . S
C1451 C1450 1.287 . S
C1451 C1452 1.524 . S
C1451 H1454 0.999 . S
C1452 H1422 0.950 . S
C1452 C1451 1.524 . S
C1452 C1453 1.415 . S
C1453 H1423 0.950 . S
C1453 C1448 1.363 . S
C1453 C1452 1.415 . S
H1454 C1451 0.999 . S
H1455 C1436 0.913 . S
H1456 C1474 0.951 . S
H1457 C1476 0.951 . S
H1458 C1478 0.950 . S
H1459 C1479 0.950 . S
H1460 C1481 0.950 . S
H1461 C1484 0.950 . S
H1462 C1485 0.950 . S
H1463 C1487 0.950 . S
H1464 C1488 0.950 1_455 S
H1465 C1489 0.951 . S
H1466 C1491 0.951 . S
H1467 C1493 0.950 . S
H1468 C1494 0.950 . S
H1469 C1496 0.950 . S
H1470 C1499 0.950 . S
H1471 C1500 0.950 . S
H1472 C1502 0.969 . S
H1473 C1503 0.968 . S
C1474 H1456 0.951 . S
C1474 C1475 1.366 . S
C1474 C1476 1.388 . S
C1475 C1474 1.366 . S
C1475 C1479 1.385 . S
C1476 H1457 0.951 . S
C1476 C1474 1.388 . S
C1476 C1477 1.366 . S
C1477 C1476 1.366 . S
C1477 C1478 1.414 . S
C1477 C1480 1.499 . S
C1478 H1458 0.950 . S
C1478 C1477 1.414 . S
C1478 C1479 1.374 . S
C1479 H1459 0.950 . S
C1479 C1475 1.385 . S
C1479 C1478 1.374 . S
C1480 C1477 1.499 . S
C1480 C1481 1.373 1_556 S
C1480 C1482 1.389 1_455 S
C1481 H1460 0.950 . S
C1481 C1480 1.373 1_554 S
C1481 C1497 1.377 . S
C1482 C1480 1.389 1_655 S
C1482 C1483 1.524 . S
C1482 C1496 1.377 . S
C1483 C1482 1.524 . S
C1483 C1484 1.397 . S
C1483 C1488 1.363 . S
C1484 H1461 0.950 . S
C1484 C1483 1.397 . S
C1484 C1485 1.334 . S
C1485 H1462 0.950 . S
C1485 C1484 1.334 . S
C1485 C1486 1.287 . S
C1486 C1485 1.287 . S
C1486 C1487 1.524 . S
C1486 H1505 0.913 . S
C1487 H1463 0.950 . S
C1487 C1486 1.524 . S
C1487 C1488 1.415 . S
C1488 H1464 0.950 1_655 S
C1488 C1483 1.363 . S
C1488 C1487 1.415 . S
C1489 H1465 0.951 . S
C1489 C1490 1.366 . S
C1489 C1491 1.388 . S
C1490 C1489 1.366 . S
C1490 C1494 1.385 . S
C1491 H1466 0.951 . S
C1491 C1489 1.388 . S
C1491 C1492 1.366 . S
C1492 C1491 1.366 . S
C1492 C1493 1.414 . S
C1492 C1495 1.499 . S
C1493 H1467 0.950 . S
C1493 C1492 1.414 . S
C1493 C1494 1.374 . S
C1494 H1468 0.950 . S
C1494 C1490 1.385 . S
C1494 C1493 1.374 . S
C1495 C1492 1.499 . S
C1495 C1496 1.373 1_554 S
C1495 C1497 1.387 1_655 S
C1496 H1469 0.950 . S
C1496 C1482 1.377 . S
C1496 C1495 1.373 1_556 S
C1497 C1481 1.377 . S
C1497 C1495 1.387 1_455 S
C1497 C1498 1.528 . S
C1498 C1497 1.528 . S
C1498 C1499 1.397 . S
C1498 C1503 1.351 1_455 S
C1499 H1470 0.950 . S
C1499 C1498 1.397 . S
C1499 C1500 1.334 . S
C1500 H1471 0.950 . S
C1500 C1499 1.334 . S
C1500 C1501 1.287 . S
C1501 C1500 1.287 . S
C1501 C1502 1.524 . S
C1501 H1504 0.999 . S
C1502 H1472 0.969 . S
C1502 C1501 1.524 . S
C1502 C1503 1.410 1_455 S
C1503 H1473 0.968 . S
C1503 C1498 1.351 1_655 S
C1503 C1502 1.410 1_655 S
H1504 C1501 0.999 . S
H1505 C1486 0.913 . S
H1506 C1524 0.951 . S
H1507 C1526 0.951 . S
H1508 C1528 0.950 . S
H1509 C1529 0.950 . S
H1510 C1531 0.950 . S
H1511 C1534 0.950 . S
H1512 C1535 0.950 . S
H1513 C1537 0.950 . S
H1514 C1538 0.950 . S
H1515 C1539 0.951 . S
H1516 C1541 0.951 . S
H1517 C1543 0.950 . S
H1518 C1544 0.950 . S
H1519 C1546 0.950 . S
H1520 C1549 0.950 . S
H1521 C1550 0.950 . S
H1522 C1552 0.950 . S
H1523 C1553 0.950 . S
C1524 H1506 0.951 . S
C1524 C1525 1.366 . S
C1524 C1526 1.388 . S
C1525 C1524 1.366 . S
C1525 C1529 1.385 . S
C1526 H1507 0.951 . S
C1526 C1524 1.388 . S
C1526 C1527 1.366 . S
C1527 C1526 1.366 . S
C1527 C1528 1.414 . S
C1527 C1530 1.499 . S
C1528 H1508 0.950 . S
C1528 C1527 1.414 . S
C1528 C1529 1.374 . S
C1529 H1509 0.950 . S
C1529 C1525 1.385 . S
C1529 C1528 1.374 . S
C1530 C1527 1.499 . S
C1530 C1531 1.373 . S
C1530 C1532 1.389 . S
C1531 H1510 0.950 . S
C1531 C1530 1.373 . S
C1531 C1547 1.377 1_545 S
C1532 C1530 1.389 . S
C1532 C1533 1.524 . S
C1532 C1546 1.377 1_545 S
C1533 C1532 1.524 . S
C1533 C1534 1.397 . S
C1533 C1538 1.363 . S
C1534 H1511 0.950 . S
C1534 C1533 1.397 . S
C1534 C1535 1.334 . S
C1535 H1512 0.950 . S
C1535 C1534 1.334 . S
C1535 C1536 1.287 . S
C1536 C1535 1.287 . S
C1536 C1537 1.524 . S
C1536 H1555 0.913 . S
C1537 H1513 0.950 . S
C1537 C1536 1.524 . S
C1537 C1538 1.415 . S
C1538 H1514 0.950 . S
C1538 C1533 1.363 . S
C1538 C1537 1.415 . S
C1539 H1515 0.951 . S
C1539 C1540 1.366 . S
C1539 C1541 1.388 . S
C1540 C1539 1.366 . S
C1540 C1544 1.385 . S
C1541 H1516 0.951 . S
C1541 C1539 1.388 . S
C1541 C1542 1.366 . S
C1542 C1541 1.366 . S
C1542 C1543 1.414 . S
C1542 C1545 1.499 . S
C1543 H1517 0.950 . S
C1543 C1542 1.414 . S
C1543 C1544 1.374 . S
C1544 H1518 0.950 . S
C1544 C1540 1.385 . S
C1544 C1543 1.374 . S
C1545 C1542 1.499 . S
C1545 C1546 1.373 . S
C1545 C1547 1.389 . S
C1546 H1519 0.950 . S
C1546 C1532 1.377 1_565 S
C1546 C1545 1.373 . S
C1547 C1531 1.377 1_565 S
C1547 C1545 1.389 . S
C1547 C1548 1.524 . S
C1548 C1547 1.524 . S
C1548 C1549 1.397 . S
C1548 C1553 1.363 . S
C1549 H1520 0.950 . S
C1549 C1548 1.397 . S
C1549 C1550 1.334 . S
C1550 H1521 0.950 . S
C1550 C1549 1.334 . S
C1550 C1551 1.287 . S
C1551 C1550 1.287 . S
C1551 C1552 1.524 . S
C1551 H1554 0.999 . S
C1552 H1522 0.950 . S
C1552 C1551 1.524 . S
C1552 C1553 1.415 . S
C1553 H1523 0.950 . S
C1553 C1548 1.363 . S
C1553 C1552 1.415 . S
H1554 C1551 0.999 . S
H1555 C1536 0.913 . S
H1556 C1574 0.951 . S
H1557 C1576 0.951 . S
H1558 C1578 0.950 . S
H1559 C1579 0.950 . S
H1560 C1581 0.950 . S
H1561 C1584 0.950 . S
H1562 C1585 0.950 . S
H1563 C1587 0.950 . S
H1564 C1588 0.950 . S
H1565 C1589 0.951 . S
H1566 C1591 0.951 . S
H1567 C1593 0.950 . S
H1568 C1594 0.950 . S
H1569 C1596 0.950 . S
H1570 C1599 0.950 . S
H1571 C1600 0.950 . S
H1572 C1602 0.950 . S
H1573 C1603 0.950 . S
C1574 H1556 0.951 . S
C1574 C1575 1.366 . S
C1574 C1576 1.388 . S
C1575 C1574 1.366 . S
C1575 C1579 1.385 . S
C1576 H1557 0.951 . S
C1576 C1574 1.388 . S
C1576 C1577 1.366 . S
C1577 C1576 1.366 . S
C1577 C1578 1.414 . S
C1577 C1580 1.499 . S
C1578 H1558 0.950 . S
C1578 C1577 1.414 . S
C1578 C1579 1.374 . S
C1579 H1559 0.950 . S
C1579 C1575 1.385 . S
C1579 C1578 1.374 . S
C1580 C1577 1.499 . S
C1580 C1581 1.373 . S
C1580 C1582 1.389 1_556 S
C1581 H1560 0.950 . S
C1581 C1580 1.373 . S
C1581 C1597 1.377 . S
C1582 C1580 1.389 1_554 S
C1582 C1583 1.524 . S
C1582 C1596 1.377 . S
C1583 C1582 1.524 . S
C1583 C1584 1.397 . S
C1583 C1588 1.363 . S
C1584 H1561 0.950 . S
C1584 C1583 1.397 . S
C1584 C1585 1.334 . S
C1585 H1562 0.950 . S
C1585 C1584 1.334 . S
C1585 C1586 1.287 . S
C1586 C1585 1.287 . S
C1586 C1587 1.524 . S
C1586 H1605 0.913 . S
C1587 H1563 0.950 . S
C1587 C1586 1.524 . S
C1587 C1588 1.415 . S
C1588 H1564 0.950 . S
C1588 C1583 1.363 . S
C1588 C1587 1.415 . S
C1589 H1565 0.951 . S
C1589 C1590 1.366 . S
C1589 C1591 1.388 . S
C1590 C1589 1.366 . S
C1590 C1594 1.385 . S
C1591 H1566 0.951 . S
C1591 C1589 1.388 . S
C1591 C1592 1.366 . S
C1592 C1591 1.366 . S
C1592 C1593 1.414 . S
C1592 C1595 1.499 . S
C1593 H1567 0.950 . S
C1593 C1592 1.414 . S
C1593 C1594 1.374 . S
C1594 H1568 0.950 . S
C1594 C1590 1.385 . S
C1594 C1593 1.374 . S
C1595 C1592 1.499 . S
C1595 C1596 1.373 . S
C1595 C1597 1.389 1_554 S
C1596 H1569 0.950 . S
C1596 C1582 1.377 . S
C1596 C1595 1.373 . S
C1597 C1581 1.377 . S
C1597 C1595 1.389 1_556 S
C1597 C1598 1.524 . S
C1598 C1597 1.524 . S
C1598 C1599 1.397 . S
C1598 C1603 1.363 . S
C1599 H1570 0.950 . S
C1599 C1598 1.397 . S
C1599 C1600 1.334 . S
C1600 H1571 0.950 . S
C1600 C1599 1.334 . S
C1600 C1601 1.287 . S
C1601 C1600 1.287 . S
C1601 C1602 1.524 . S
C1601 H1604 0.999 . S
C1602 H1572 0.950 . S
C1602 C1601 1.524 . S
C1602 C1603 1.415 . S
C1603 H1573 0.950 . S
C1603 C1598 1.363 . S
C1603 C1602 1.415 . S
H1604 C1601 0.999 . S
H1605 C1586 0.913 . S
H1606 C1624 0.951 . S
H1607 C1626 0.951 1_455 S
H1608 C1628 0.950 . S
H1609 C1629 0.950 . S
H1610 C1631 0.950 . S
H1611 C1634 0.950 . S
H1612 C1635 0.950 . S
H1613 C1637 0.950 1_455 S
H1614 C1638 0.950 . S
H1615 C1639 0.951 . S
H1616 C1641 0.971 . S
H1617 C1643 0.950 . S
H1618 C1644 0.950 . S
H1619 C1646 0.950 . S
H1620 C1649 0.950 . S
H1621 C1650 0.950 . S
H1622 C1652 0.950 1_655 S
H1623 C1653 0.942 1_655 S
C1624 H1606 0.951 . S
C1624 C1625 1.366 . S
C1624 C1626 1.388 . S
C1625 C1624 1.366 . S
C1625 C1629 1.385 . S
C1626 H1607 0.951 1_655 S
C1626 C1624 1.388 . S
C1626 C1627 1.366 . S
C1627 C1626 1.366 . S
C1627 C1628 1.414 . S
C1627 C1630 1.499 . S
C1628 H1608 0.950 . S
C1628 C1627 1.414 . S
C1628 C1629 1.374 . S
C1629 H1609 0.950 . S
C1629 C1625 1.385 . S
C1629 C1628 1.374 . S
C1630 C1627 1.499 . S
C1630 C1631 1.373 . S
C1630 C1632 1.389 . S
C1631 H1610 0.950 . S
C1631 C1630 1.373 . S
C1631 C1647 1.377 1_655 S
C1632 C1630 1.389 . S
C1632 C1633 1.524 . S
C1632 C1646 1.377 1_655 S
C1633 C1632 1.524 . S
C1633 C1634 1.397 . S
C1633 C1638 1.363 1_655 S
C1634 H1611 0.950 . S
C1634 C1633 1.397 . S
C1634 C1635 1.334 . S
C1635 H1612 0.950 . S
C1635 C1634 1.334 . S
C1635 C1636 1.287 . S
C1636 C1635 1.287 . S
C1636 C1637 1.524 . S
C1636 H1655 0.913 . S
C1637 H1613 0.950 1_655 S
C1637 C1636 1.524 . S
C1637 C1638 1.415 1_655 S
C1638 H1614 0.950 . S
C1638 C1633 1.363 1_455 S
C1638 C1637 1.415 1_455 S
C1639 H1615 0.951 . S
C1639 C1640 1.366 . S
C1639 C1641 1.388 . S
C1640 C1639 1.366 . S
C1640 C1644 1.385 . S
C1641 H1616 0.971 . S
C1641 C1639 1.388 . S
C1641 C1642 1.366 . S
C1642 C1641 1.366 . S
C1642 C1643 1.414 . S
C1642 C1645 1.499 . S
C1643 H1617 0.950 . S
C1643 C1642 1.414 . S
C1643 C1644 1.374 . S
C1644 H1618 0.950 . S
C1644 C1640 1.385 . S
C1644 C1643 1.374 . S
C1645 C1642 1.499 . S
C1645 C1646 1.373 . S
C1645 C1647 1.389 . S
C1646 H1619 0.950 . S
C1646 C1632 1.377 1_455 S
C1646 C1645 1.373 . S
C1647 C1631 1.377 1_455 S
C1647 C1645 1.389 . S
C1647 C1648 1.524 . S
C1648 C1647 1.524 . S
C1648 C1649 1.397 . S
C1648 C1653 1.371 . S
C1649 H1620 0.950 . S
C1649 C1648 1.397 . S
C1649 C1650 1.334 . S
C1650 H1621 0.950 . S
C1650 C1649 1.334 . S
C1650 C1651 1.287 . S
C1651 C1650 1.287 . S
C1651 C1652 1.524 . S
C1651 H1654 0.999 . S
C1652 H1622 0.950 1_455 S
C1652 C1651 1.524 . S
C1652 C1653 1.415 . S
C1653 H1623 0.942 1_455 S
C1653 C1648 1.371 . S
C1653 C1652 1.415 . S
H1654 C1651 0.999 . S
H1655 C1636 0.913 . S
H1656 C1674 0.951 . S
H1657 C1676 0.951 . S
H1658 C1678 0.950 . S
H1659 C1679 0.950 . S
H1660 C1681 0.950 . S
H1661 C1684 0.950 . S
H1662 C1685 0.950 . S
H1663 C1687 0.950 . S
H1664 C1688 0.950 . S
H1665 C1689 0.951 . S
H1666 C1691 0.951 . S
H1667 C1693 0.950 . S
H1668 C1694 0.950 . S
H1669 C1696 0.950 . S
H1670 C1699 0.950 . S
H1671 C1700 0.950 . S
H1672 C1702 0.950 . S
H1673 C1703 0.950 . S
C1674 H1656 0.951 . S
C1674 C1675 1.366 . S
C1674 C1676 1.388 . S
C1675 C1674 1.366 . S
C1675 C1679 1.385 . S
C1676 H1657 0.951 . S
C1676 C1674 1.388 . S
C1676 C1677 1.366 . S
C1677 C1676 1.366 . S
C1677 C1678 1.414 . S
C1677 C1680 1.499 . S
C1678 H1658 0.950 . S
C1678 C1677 1.414 . S
C1678 C1679 1.374 . S
C1679 H1659 0.950 . S
C1679 C1675 1.385 . S
C1679 C1678 1.374 . S
C1680 C1677 1.499 . S
C1680 C1681 1.373 . S
C1680 C1682 1.389 . S
C1681 H1660 0.950 . S
C1681 C1680 1.373 . S
C1681 C1697 1.377 . S
C1682 C1680 1.389 . S
C1682 C1683 1.524 . S
C1682 C1696 1.377 . S
C1683 C1682 1.524 . S
C1683 C1684 1.397 . S
C1683 C1688 1.363 . S
C1684 H1661 0.950 . S
C1684 C1683 1.397 . S
C1684 C1685 1.334 . S
C1685 H1662 0.950 . S
C1685 C1684 1.334 . S
C1685 C1686 1.287 . S
C1686 C1685 1.287 . S
C1686 C1687 1.524 . S
C1686 H1705 0.913 . S
C1687 H1663 0.950 . S
C1687 C1686 1.524 . S
C1687 C1688 1.415 . S
C1688 H1664 0.950 . S
C1688 C1683 1.363 . S
C1688 C1687 1.415 . S
C1689 H1665 0.951 . S
C1689 C1690 1.366 . S
C1689 C1691 1.388 . S
C1690 C1689 1.366 . S
C1690 C1694 1.385 . S
C1691 H1666 0.951 . S
C1691 C1689 1.388 . S
C1691 C1692 1.366 . S
C1692 C1691 1.366 . S
C1692 C1693 1.414 . S
C1692 C1695 1.499 . S
C1693 H1667 0.950 . S
C1693 C1692 1.414 . S
C1693 C1694 1.374 . S
C1694 H1668 0.950 . S
C1694 C1690 1.385 . S
C1694 C1693 1.374 . S
C1695 C1692 1.499 . S
C1695 C1696 1.373 . S
C1695 C1697 1.389 . S
C1696 H1669 0.950 . S
C1696 C1682 1.377 . S
C1696 C1695 1.373 . S
C1697 C1681 1.377 . S
C1697 C1695 1.389 . S
C1697 C1698 1.524 . S
C1698 C1697 1.524 . S
C1698 C1699 1.397 . S
C1698 C1703 1.363 . S
C1699 H1670 0.950 . S
C1699 C1698 1.397 . S
C1699 C1700 1.334 . S
C1700 H1671 0.950 . S
C1700 C1699 1.334 . S
C1700 C1701 1.287 . S
C1701 C1700 1.287 . S
C1701 C1702 1.524 . S
C1701 H1704 0.999 . S
C1702 H1672 0.950 . S
C1702 C1701 1.524 . S
C1702 C1703 1.415 . S
C1703 H1673 0.950 . S
C1703 C1698 1.363 . S
C1703 C1702 1.415 . S
H1704 C1701 0.999 . S
H1705 C1686 0.913 . S
H1706 C1724 0.951 . S
H1707 C1726 0.951 . S
H1708 C1728 0.950 . S
H1709 C1729 0.950 . S
H1710 C1731 0.950 . S
H1711 C1734 0.950 . S
H1712 C1735 0.950 . S
H1713 C1737 0.950 . S
H1714 C1738 0.950 . S
H1715 C1739 0.951 . S
H1716 C1741 0.951 . S
H1717 C1743 0.950 . S
H1718 C1744 0.950 . S
H1719 C1746 0.950 . S
H1720 C1749 0.950 . S
H1721 C1750 0.950 . S
H1722 C1752 0.950 . S
H1723 C1753 0.950 . S
C1724 H1706 0.951 . S
C1724 C1725 1.366 . S
C1724 C1726 1.388 . S
C1725 C1724 1.366 . S
C1725 C1729 1.385 . S
C1726 H1707 0.951 . S
C1726 C1724 1.388 . S
C1726 C1727 1.366 . S
C1727 C1726 1.366 . S
C1727 C1728 1.414 . S
C1727 C1730 1.499 . S
C1728 H1708 0.950 . S
C1728 C1727 1.414 . S
C1728 C1729 1.374 . S
C1729 H1709 0.950 . S
C1729 C1725 1.385 . S
C1729 C1728 1.374 . S
C1730 C1727 1.499 . S
C1730 C1731 1.373 . S
C1730 C1732 1.389 . S
C1731 H1710 0.950 . S
C1731 C1730 1.373 . S
C1731 C1747 1.377 . S
C1732 C1730 1.389 . S
C1732 C1733 1.524 . S
C1732 C1746 1.377 . S
C1733 C1732 1.524 . S
C1733 C1734 1.397 . S
C1733 C1738 1.363 . S
C1734 H1711 0.950 . S
C1734 C1733 1.397 . S
C1734 C1735 1.334 . S
C1735 H1712 0.950 . S
C1735 C1734 1.334 . S
C1735 C1736 1.287 . S
C1736 C1735 1.287 . S
C1736 C1737 1.524 . S
C1736 H1755 0.913 . S
C1737 H1713 0.950 . S
C1737 C1736 1.524 . S
C1737 C1738 1.415 . S
C1738 H1714 0.950 . S
C1738 C1733 1.363 . S
C1738 C1737 1.415 . S
C1739 H1715 0.951 . S
C1739 C1740 1.366 . S
C1739 C1741 1.388 . S
C1740 C1739 1.366 . S
C1740 C1744 1.385 . S
C1741 H1716 0.951 . S
C1741 C1739 1.388 . S
C1741 C1742 1.366 . S
C1742 C1741 1.366 . S
C1742 C1743 1.414 . S
C1742 C1745 1.499 . S
C1743 H1717 0.950 . S
C1743 C1742 1.414 . S
C1743 C1744 1.374 . S
C1744 H1718 0.950 . S
C1744 C1740 1.385 . S
C1744 C1743 1.374 . S
C1745 C1742 1.499 . S
C1745 C1746 1.373 . S
C1745 C1747 1.389 . S
C1746 H1719 0.950 . S
C1746 C1732 1.377 . S
C1746 C1745 1.373 . S
C1747 C1731 1.377 . S
C1747 C1745 1.389 . S
C1747 C1748 1.524 . S
C1748 C1747 1.524 . S
C1748 C1749 1.397 . S
C1748 C1753 1.363 . S
C1749 H1720 0.950 . S
C1749 C1748 1.397 . S
C1749 C1750 1.334 . S
C1750 H1721 0.950 . S
C1750 C1749 1.334 . S
C1750 C1751 1.287 . S
C1751 C1750 1.287 . S
C1751 C1752 1.524 . S
C1751 H1754 0.999 . S
C1752 H1722 0.950 . S
C1752 C1751 1.524 . S
C1752 C1753 1.415 . S
C1753 H1723 0.950 . S
C1753 C1748 1.363 . S
C1753 C1752 1.415 . S
H1754 C1751 0.999 . S
H1755 C1736 0.913 . S
H1756 C1774 0.951 . S
H1757 C1776 0.951 . S
H1758 C1778 0.950 . S
H1759 C1779 0.950 . S
H1760 C1781 0.950 . S
H1761 C1784 0.950 . S
H1762 C1785 0.950 . S
H1763 C1787 0.950 . S
H1764 C1788 0.950 . S
H1765 C1789 0.951 . S
H1766 C1791 0.951 . S
H1767 C1793 0.950 . S
H1768 C1794 0.950 . S
H1769 C1796 0.950 . S
H1770 C1799 0.950 . S
H1771 C1800 0.950 . S
H1772 C1802 0.950 . S
H1773 C1803 0.950 . S
C1774 H1756 0.951 . S
C1774 C1775 1.366 . S
C1774 C1776 1.388 . S
C1775 C1774 1.366 . S
C1775 C1779 1.385 . S
C1776 H1757 0.951 . S
C1776 C1774 1.388 . S
C1776 C1777 1.366 . S
C1777 C1776 1.366 . S
C1777 C1778 1.414 . S
C1777 C1780 1.499 . S
C1778 H1758 0.950 . S
C1778 C1777 1.414 . S
C1778 C1779 1.374 . S
C1779 H1759 0.950 . S
C1779 C1775 1.385 . S
C1779 C1778 1.374 . S
C1780 C1777 1.499 . S
C1780 C1781 1.373 . S
C1780 C1782 1.389 . S
C1781 H1760 0.950 . S
C1781 C1780 1.373 . S
C1781 C1797 1.377 . S
C1782 C1780 1.389 . S
C1782 C1783 1.524 . S
C1782 C1796 1.377 . S
C1783 C1782 1.524 . S
C1783 C1784 1.397 . S
C1783 C1788 1.363 . S
C1784 H1761 0.950 . S
C1784 C1783 1.397 . S
C1784 C1785 1.334 . S
C1785 H1762 0.950 . S
C1785 C1784 1.334 . S
C1785 C1786 1.287 . S
C1786 C1785 1.287 . S
C1786 C1787 1.524 . S
C1786 H1805 0.913 1_554 S
C1787 H1763 0.950 . S
C1787 C1786 1.524 . S
C1787 C1788 1.415 . S
C1788 H1764 0.950 . S
C1788 C1783 1.363 . S
C1788 C1787 1.415 . S
C1789 H1765 0.951 . S
C1789 C1790 1.366 . S
C1789 C1791 1.388 . S
C1790 C1789 1.366 . S
C1790 C1794 1.385 . S
C1791 H1766 0.951 . S
C1791 C1789 1.388 . S
C1791 C1792 1.366 . S
C1792 C1791 1.366 . S
C1792 C1793 1.414 . S
C1792 C1795 1.499 . S
C1793 H1767 0.950 . S
C1793 C1792 1.414 . S
C1793 C1794 1.374 . S
C1794 H1768 0.950 . S
C1794 C1790 1.385 . S
C1794 C1793 1.374 . S
C1795 C1792 1.499 . S
C1795 C1796 1.373 . S
C1795 C1797 1.389 . S
C1796 H1769 0.950 . S
C1796 C1782 1.377 . S
C1796 C1795 1.373 . S
C1797 C1781 1.377 . S
C1797 C1795 1.389 . S
C1797 C1798 1.524 . S
C1798 C1797 1.524 . S
C1798 C1799 1.397 . S
C1798 C1803 1.363 . S
C1799 H1770 0.950 . S
C1799 C1798 1.397 . S
C1799 C1800 1.334 . S
C1800 H1771 0.950 . S
C1800 C1799 1.334 . S
C1800 C1801 1.287 . S
C1801 C1800 1.287 . S
C1801 C1802 1.524 . S
C1801 H1804 0.999 . S
C1802 H1772 0.950 . S
C1802 C1801 1.524 . S
C1802 C1803 1.415 . S
C1803 H1773 0.950 . S
C1803 C1798 1.363 . S
C1803 C1802 1.415 . S
H1804 C1801 0.999 . S
H1805 C1786 0.913 1_556 S
H1806 C1824 0.951 . S
H1807 C1826 0.951 . S
H1808 C1828 0.950 . S
H1809 C1829 0.950 . S
H1810 C1831 0.950 . S
H1811 C1834 0.950 . S
H1812 C1835 0.950 . S
H1813 C1837 0.950 . S
H1814 C1838 0.950 . S
H1815 C1839 0.951 . S
H1816 C1841 0.951 . S
H1817 C1843 0.950 . S
H1818 C1844 0.950 . S
H1819 C1846 0.950 . S
H1820 C1849 0.950 . S
H1821 C1850 0.950 . S
H1822 C1852 0.950 . S
H1823 C1853 0.950 . S
C1824 H1806 0.951 . S
C1824 C1825 1.366 . S
C1824 C1826 1.388 . S
C1825 C1824 1.366 . S
C1825 C1829 1.385 . S
C1826 H1807 0.951 . S
C1826 C1824 1.388 . S
C1826 C1827 1.366 . S
C1827 C1826 1.366 . S
C1827 C1828 1.414 . S
C1827 C1830 1.499 . S
C1828 H1808 0.950 . S
C1828 C1827 1.414 . S
C1828 C1829 1.374 . S
C1829 H1809 0.950 . S
C1829 C1825 1.385 . S
C1829 C1828 1.374 . S
C1830 C1827 1.499 . S
C1830 C1831 1.373 . S
C1830 C1832 1.389 . S
C1831 H1810 0.950 . S
C1831 C1830 1.373 . S
C1831 C1847 1.377 . S
C1832 C1830 1.389 . S
C1832 C1833 1.524 . S
C1832 C1846 1.377 . S
C1833 C1832 1.524 . S
C1833 C1834 1.397 . S
C1833 C1838 1.363 . S
C1834 H1811 0.950 . S
C1834 C1833 1.397 . S
C1834 C1835 1.334 . S
C1835 H1812 0.950 . S
C1835 C1834 1.334 . S
C1835 C1836 1.287 . S
C1836 C1835 1.287 . S
C1836 C1837 1.524 . S
C1836 H1855 0.913 . S
C1837 H1813 0.950 . S
C1837 C1836 1.524 . S
C1837 C1838 1.415 . S
C1838 H1814 0.950 . S
C1838 C1833 1.363 . S
C1838 C1837 1.415 . S
C1839 H1815 0.951 . S
C1839 C1840 1.366 . S
C1839 C1841 1.388 . S
C1840 C1839 1.366 . S
C1840 C1844 1.385 . S
C1841 H1816 0.951 . S
C1841 C1839 1.388 . S
C1841 C1842 1.366 . S
C1842 C1841 1.366 . S
C1842 C1843 1.414 . S
C1842 C1845 1.499 . S
C1843 H1817 0.950 . S
C1843 C1842 1.414 . S
C1843 C1844 1.374 . S
C1844 H1818 0.950 . S
C1844 C1840 1.385 . S
C1844 C1843 1.374 . S
C1845 C1842 1.499 . S
C1845 C1846 1.373 . S
C1845 C1847 1.389 . S
C1846 H1819 0.950 . S
C1846 C1832 1.377 . S
C1846 C1845 1.373 . S
C1847 C1831 1.377 . S
C1847 C1845 1.389 . S
C1847 C1848 1.524 . S
C1848 C1847 1.524 . S
C1848 C1849 1.397 . S
C1848 C1853 1.363 . S
C1849 H1820 0.950 . S
C1849 C1848 1.397 . S
C1849 C1850 1.334 . S
C1850 H1821 0.950 . S
C1850 C1849 1.334 . S
C1850 C1851 1.287 . S
C1851 C1850 1.287 . S
C1851 C1852 1.524 . S
C1851 H1854 0.999 . S
C1852 H1822 0.950 . S
C1852 C1851 1.524 . S
C1852 C1853 1.415 . S
C1853 H1823 0.950 . S
C1853 C1848 1.363 . S
C1853 C1852 1.415 . S
H1854 C1851 0.999 . S
H1855 C1836 0.913 . S
H1856 C1874 0.951 . S
H1857 C1876 0.951 . S
H1858 C1878 0.950 . S
H1859 C1879 0.950 . S
H1860 C1881 0.950 . S
H1861 C1884 0.950 . S
H1862 C1885 0.950 . S
H1863 C1887 0.950 . S
H1864 C1888 0.950 . S
H1865 C1889 0.951 . S
H1866 C1891 0.951 . S
H1867 C1893 0.950 . S
H1868 C1894 0.950 . S
H1869 C1896 0.950 . S
H1870 C1899 0.950 . S
H1871 C1900 0.950 . S
H1872 C1902 0.950 . S
H1873 C1903 0.950 . S
C1874 H1856 0.951 . S
C1874 C1875 1.366 . S
C1874 C1876 1.388 . S
C1875 C1874 1.366 . S
C1875 C1879 1.385 . S
C1876 H1857 0.951 . S
C1876 C1874 1.388 . S
C1876 C1877 1.366 . S
C1877 C1876 1.366 . S
C1877 C1878 1.414 . S
C1877 C1880 1.499 . S
C1878 H1858 0.950 . S
C1878 C1877 1.414 . S
C1878 C1879 1.374 . S
C1879 H1859 0.950 . S
C1879 C1875 1.385 . S
C1879 C1878 1.374 . S
C1880 C1877 1.499 . S
C1880 C1881 1.373 . S
C1880 C1882 1.389 . S
C1881 H1860 0.950 . S
C1881 C1880 1.373 . S
C1881 C1897 1.377 . S
C1882 C1880 1.389 . S
C1882 C1883 1.524 . S
C1882 C1896 1.377 . S
C1883 C1882 1.524 . S
C1883 C1884 1.397 . S
C1883 C1888 1.363 . S
C1884 H1861 0.950 . S
C1884 C1883 1.397 . S
C1884 C1885 1.334 . S
C1885 H1862 0.950 . S
C1885 C1884 1.334 . S
C1885 C1886 1.287 . S
C1886 C1885 1.287 . S
C1886 C1887 1.524 . S
C1886 H1905 0.913 . S
C1887 H1863 0.950 . S
C1887 C1886 1.524 . S
C1887 C1888 1.415 . S
C1888 H1864 0.950 . S
C1888 C1883 1.363 . S
C1888 C1887 1.415 . S
C1889 H1865 0.951 . S
C1889 C1890 1.366 . S
C1889 C1891 1.388 . S
C1890 C1889 1.366 . S
C1890 C1894 1.385 . S
C1891 H1866 0.951 . S
C1891 C1889 1.388 . S
C1891 C1892 1.366 . S
C1892 C1891 1.366 . S
C1892 C1893 1.414 . S
C1892 C1895 1.499 . S
C1893 H1867 0.950 . S
C1893 C1892 1.414 . S
C1893 C1894 1.374 . S
C1894 H1868 0.950 . S
C1894 C1890 1.385 . S
C1894 C1893 1.374 . S
C1895 C1892 1.499 . S
C1895 C1896 1.373 . S
C1895 C1897 1.389 . S
C1896 H1869 0.950 . S
C1896 C1882 1.377 . S
C1896 C1895 1.373 . S
C1897 C1881 1.377 . S
C1897 C1895 1.389 . S
C1897 C1898 1.524 . S
C1898 C1897 1.524 . S
C1898 C1899 1.397 . S
C1898 C1903 1.363 . S
C1899 H1870 0.950 . S
C1899 C1898 1.397 . S
C1899 C1900 1.334 . S
C1900 H1871 0.950 . S
C1900 C1899 1.334 . S
C1900 C1901 1.287 . S
C1901 C1900 1.287 . S
C1901 C1902 1.524 . S
C1901 H1904 0.999 . S
C1902 H1872 0.950 . S
C1902 C1901 1.524 . S
C1902 C1903 1.415 . S
C1903 H1873 0.950 . S
C1903 C1898 1.363 . S
C1903 C1902 1.415 . S
H1904 C1901 0.999 . S
H1905 C1886 0.913 . S
H1906 C1924 0.951 . S
H1907 C1926 0.951 . S
H1908 C1928 0.950 . S
H1909 C1929 0.950 . S
H1910 C1931 0.950 . S
H1911 C1934 0.950 . S
H1912 C1935 0.950 . S
H1913 C1937 0.950 . S
H1914 C1938 0.950 . S
H1915 C1939 0.951 . S
H1916 C1941 0.951 . S
H1917 C1943 0.950 . S
H1918 C1944 0.950 . S
H1919 C1946 0.950 . S
H1920 C1949 0.950 . S
H1921 C1950 0.950 . S
H1922 C1952 0.950 . S
H1923 C1953 0.950 . S
C1924 H1906 0.951 . S
C1924 C1925 1.366 . S
C1924 C1926 1.388 . S
C1925 C1924 1.366 . S
C1925 C1929 1.385 . S
C1926 H1907 0.951 . S
C1926 C1924 1.388 . S
C1926 C1927 1.366 . S
C1927 C1926 1.366 . S
C1927 C1928 1.414 . S
C1927 C1930 1.499 . S
C1928 H1908 0.950 . S
C1928 C1927 1.414 . S
C1928 C1929 1.374 . S
C1929 H1909 0.950 . S
C1929 C1925 1.385 . S
C1929 C1928 1.374 . S
C1930 C1927 1.499 . S
C1930 C1931 1.373 . S
C1930 C1932 1.389 . S
C1931 H1910 0.950 . S
C1931 C1930 1.373 . S
C1931 C1947 1.377 . S
C1932 C1930 1.389 . S
C1932 C1933 1.524 . S
C1932 C1946 1.377 . S
C1933 C1932 1.524 . S
C1933 C1934 1.397 . S
C1933 C1938 1.363 . S
C1934 H1911 0.950 . S
C1934 C1933 1.397 . S
C1934 C1935 1.334 . S
C1935 H1912 0.950 . S
C1935 C1934 1.334 . S
C1935 C1936 1.287 . S
C1936 C1935 1.287 . S
C1936 C1937 1.524 . S
C1936 H1955 0.913 . S
C1937 H1913 0.950 . S
C1937 C1936 1.524 . S
C1937 C1938 1.415 . S
C1938 H1914 0.950 . S
C1938 C1933 1.363 . S
C1938 C1937 1.415 . S
C1939 H1915 0.951 . S
C1939 C1940 1.366 . S
C1939 C1941 1.388 . S
C1940 C1939 1.366 . S
C1940 C1944 1.385 . S
C1941 H1916 0.951 . S
C1941 C1939 1.388 . S
C1941 C1942 1.366 . S
C1942 C1941 1.366 . S
C1942 C1943 1.414 . S
C1942 C1945 1.499 . S
C1943 H1917 0.950 . S
C1943 C1942 1.414 . S
C1943 C1944 1.374 . S
C1944 H1918 0.950 . S
C1944 C1940 1.385 . S
C1944 C1943 1.374 . S
C1945 C1942 1.499 . S
C1945 C1946 1.373 . S
C1945 C1947 1.389 . S
C1946 H1919 0.950 . S
C1946 C1932 1.377 . S
C1946 C1945 1.373 . S
C1947 C1931 1.377 . S
C1947 C1945 1.389 . S
C1947 C1948 1.524 . S
C1948 C1947 1.524 . S
C1948 C1949 1.397 . S
C1948 C1953 1.363 . S
C1949 H1920 0.950 . S
C1949 C1948 1.397 . S
C1949 C1950 1.334 . S
C1950 H1921 0.950 . S
C1950 C1949 1.334 . S
C1950 C1951 1.287 . S
C1951 C1950 1.287 . S
C1951 C1952 1.524 . S
C1951 H1954 0.999 . S
C1952 H1922 0.950 . S
C1952 C1951 1.524 . S
C1952 C1953 1.415 . S
C1953 H1923 0.950 . S
C1953 C1948 1.363 . S
C1953 C1952 1.415 . S
H1954 C1951 0.999 . S
H1955 C1936 0.913 . S
H1956 C1974 0.951 . S
H1957 C1976 0.951 . S
H1958 C1978 0.950 . S
H1959 C1979 0.950 . S
H1960 C1981 0.950 . S
H1961 C1984 0.950 . S
H1962 C1985 0.950 . S
H1963 C1987 0.950 . S
H1964 C1988 0.950 . S
H1965 C1989 0.951 . S
H1966 C1991 0.951 . S
H1967 C1993 0.950 . S
H1968 C1994 0.950 . S
H1969 C1996 0.950 . S
H1970 C1999 0.950 . S
H1971 C2000 0.950 . S
H1972 C2002 0.950 . S
H1973 C2003 0.950 . S
C1974 H1956 0.951 . S
C1974 C1975 1.366 . S
C1974 C1976 1.388 . S
C1975 C1974 1.366 . S
C1975 C1979 1.385 . S
C1976 H1957 0.951 . S
C1976 C1974 1.388 . S
C1976 C1977 1.366 . S
C1977 C1976 1.366 . S
C1977 C1978 1.414 . S
C1977 C1980 1.499 . S
C1978 H1958 0.950 . S
C1978 C1977 1.414 . S
C1978 C1979 1.374 . S
C1979 H1959 0.950 . S
C1979 C1975 1.385 . S
C1979 C1978 1.374 . S
C1980 C1977 1.499 . S
C1980 C1981 1.373 . S
C1980 C1982 1.389 . S
C1981 H1960 0.950 . S
C1981 C1980 1.373 . S
C1981 C1997 1.377 . S
C1982 C1980 1.389 . S
C1982 C1983 1.524 . S
C1982 C1996 1.377 . S
C1983 C1982 1.524 . S
C1983 C1984 1.397 . S
C1983 C1988 1.363 . S
C1984 H1961 0.950 . S
C1984 C1983 1.397 . S
C1984 C1985 1.334 . S
C1985 H1962 0.950 . S
C1985 C1984 1.334 . S
C1985 C1986 1.287 . S
C1986 C1985 1.287 . S
C1986 C1987 1.524 . S
C1986 H2005 0.913 . S
C1987 H1963 0.950 . S
C1987 C1986 1.524 . S
C1987 C1988 1.415 . S
C1988 H1964 0.950 . S
C1988 C1983 1.363 . S
C1988 C1987 1.415 . S
C1989 H1965 0.951 . S
C1989 C1990 1.366 . S
C1989 C1991 1.388 . S
C1990 C1989 1.366 . S
C1990 C1994 1.385 . S
C1991 H1966 0.951 . S
C1991 C1989 1.388 . S
C1991 C1992 1.366 . S
C1992 C1991 1.366 . S
C1992 C1993 1.414 . S
C1992 C1995 1.499 . S
C1993 H1967 0.950 . S
C1993 C1992 1.414 . S
C1993 C1994 1.374 . S
C1994 H1968 0.950 . S
C1994 C1990 1.385 . S
C1994 C1993 1.374 . S
C1995 C1992 1.499 . S
C1995 C1996 1.373 . S
C1995 C1997 1.389 . S
C1996 H1969 0.950 . S
C1996 C1982 1.377 . S
C1996 C1995 1.373 . S
C1997 C1981 1.377 . S
C1997 C1995 1.389 . S
C1997 C1998 1.524 . S
C1998 C1997 1.524 . S
C1998 C1999 1.397 . S
C1998 C2003 1.363 . S
C1999 H1970 0.950 . S
C1999 C1998 1.397 . S
C1999 C2000 1.334 . S
C2000 H1971 0.950 . S
C2000 C1999 1.334 . S
C2000 C2001 1.287 . S
C2001 C2000 1.287 . S
C2001 C2002 1.524 . S
C2001 H2004 0.999 . S
C2002 H1972 0.950 . S
C2002 C2001 1.524 . S
C2002 C2003 1.415 . S
C2003 H1973 0.950 . S
C2003 C1998 1.363 . S
C2003 C2002 1.415 . S
H2004 C2001 0.999 . S
H2005 C1986 0.913 . S
H2006 C2024 0.951 . S
H2007 C2026 0.951 . S
H2008 C2028 0.950 . S
H2009 C2029 0.950 . S
H2010 C2031 0.950 . S
H2011 C2034 0.950 . S
H2012 C2035 0.950 . S
H2013 C2037 0.950 . S
H2014 C2038 0.950 . S
H2015 C2039 0.951 . S
H2016 C2041 0.951 . S
H2017 C2043 0.950 . S
H2018 C2044 0.950 . S
H2019 C2046 0.950 . S
H2020 C2049 0.950 . S
H2021 C2050 0.950 . S
H2022 C2052 0.950 1_554 S
H2023 C2053 0.950 . S
C2024 H2006 0.951 . S
C2024 C2025 1.366 . S
C2024 C2026 1.388 . S
C2025 C2024 1.366 . S
C2025 C2029 1.385 . S
C2026 H2007 0.951 . S
C2026 C2024 1.388 . S
C2026 C2027 1.366 . S
C2027 C2026 1.366 . S
C2027 C2028 1.414 . S
C2027 C2030 1.499 . S
C2028 H2008 0.950 . S
C2028 C2027 1.414 . S
C2028 C2029 1.374 . S
C2029 H2009 0.950 . S
C2029 C2025 1.385 . S
C2029 C2028 1.374 . S
C2030 C2027 1.499 . S
C2030 C2031 1.373 . S
C2030 C2032 1.389 . S
C2031 H2010 0.950 . S
C2031 C2030 1.373 . S
C2031 C2047 1.377 . S
C2032 C2030 1.389 . S
C2032 C2033 1.524 . S
C2032 C2046 1.377 . S
C2033 C2032 1.524 . S
C2033 C2034 1.397 . S
C2033 C2038 1.363 . S
C2034 H2011 0.950 . S
C2034 C2033 1.397 . S
C2034 C2035 1.334 . S
C2035 H2012 0.950 . S
C2035 C2034 1.334 . S
C2035 C2036 1.287 . S
C2036 C2035 1.287 . S
C2036 C2037 1.524 . S
C2036 H2055 0.913 . S
C2037 H2013 0.950 . S
C2037 C2036 1.524 . S
C2037 C2038 1.415 . S
C2038 H2014 0.950 . S
C2038 C2033 1.363 . S
C2038 C2037 1.415 . S
C2039 H2015 0.951 . S
C2039 C2040 1.366 . S
C2039 C2041 1.388 . S
C2040 C2039 1.366 . S
C2040 C2044 1.385 . S
C2041 H2016 0.951 . S
C2041 C2039 1.388 . S
C2041 C2042 1.366 . S
C2042 C2041 1.366 . S
C2042 C2043 1.414 . S
C2042 C2045 1.499 . S
C2043 H2017 0.950 . S
C2043 C2042 1.414 . S
C2043 C2044 1.374 . S
C2044 H2018 0.950 . S
C2044 C2040 1.385 . S
C2044 C2043 1.374 . S
C2045 C2042 1.499 . S
C2045 C2046 1.373 . S
C2045 C2047 1.389 . S
C2046 H2019 0.950 . S
C2046 C2032 1.377 . S
C2046 C2045 1.373 . S
C2047 C2031 1.377 . S
C2047 C2045 1.389 . S
C2047 C2048 1.524 . S
C2048 C2047 1.524 . S
C2048 C2049 1.397 . S
C2048 C2053 1.363 . S
C2049 H2020 0.950 . S
C2049 C2048 1.397 . S
C2049 C2050 1.334 . S
C2050 H2021 0.950 . S
C2050 C2049 1.334 . S
C2050 C2051 1.287 . S
C2051 C2050 1.287 . S
C2051 C2052 1.524 . S
C2051 H2054 0.997 . S
C2052 H2022 0.950 1_556 S
C2052 C2051 1.524 . S
C2052 C2053 1.415 . S
C2053 H2023 0.950 . S
C2053 C2048 1.363 . S
C2053 C2052 1.415 . S
H2054 C2051 0.997 . S
H2055 C2036 0.913 . S
H2056 C2074 0.951 . S
H2057 C2076 0.951 . S
H2058 C2078 0.950 . S
H2059 C2079 0.950 . S
H2060 C2081 0.950 . S
H2061 C2084 0.950 . S
H2062 C2085 0.950 . S
H2063 C2087 0.950 . S
H2064 C2088 0.950 . S
H2065 C2089 0.951 . S
H2066 C2091 0.951 . S
H2067 C2093 0.950 . S
H2068 C2094 0.950 . S
H2069 C2096 0.950 . S
H2070 C2099 0.950 . S
H2071 C2100 0.950 . S
H2072 C2102 0.950 . S
H2073 C2103 0.950 . S
C2074 H2056 0.951 . S
C2074 C2075 1.366 . S
C2074 C2076 1.388 . S
C2075 C2074 1.366 . S
C2075 C2079 1.385 . S
C2076 H2057 0.951 . S
C2076 C2074 1.388 . S
C2076 C2077 1.366 . S
C2077 C2076 1.366 . S
C2077 C2078 1.414 . S
C2077 C2080 1.499 . S
C2078 H2058 0.950 . S
C2078 C2077 1.414 . S
C2078 C2079 1.374 . S
C2079 H2059 0.950 . S
C2079 C2075 1.385 . S
C2079 C2078 1.374 . S
C2080 C2077 1.499 . S
C2080 C2081 1.373 . S
C2080 C2082 1.389 . S
C2081 H2060 0.950 . S
C2081 C2080 1.373 . S
C2081 C2097 1.377 . S
C2082 C2080 1.389 . S
C2082 C2083 1.524 . S
C2082 C2096 1.377 . S
C2083 C2082 1.524 . S
C2083 C2084 1.397 . S
C2083 C2088 1.363 . S
C2084 H2061 0.950 . S
C2084 C2083 1.397 . S
C2084 C2085 1.334 . S
C2085 H2062 0.950 . S
C2085 C2084 1.334 . S
C2085 C2086 1.287 . S
C2086 C2085 1.287 . S
C2086 C2087 1.524 . S
C2086 H2105 0.913 . S
C2087 H2063 0.950 . S
C2087 C2086 1.524 . S
C2087 C2088 1.415 . S
C2088 H2064 0.950 . S
C2088 C2083 1.363 . S
C2088 C2087 1.415 . S
C2089 H2065 0.951 . S
C2089 C2090 1.366 . S
C2089 C2091 1.388 . S
C2090 C2089 1.366 . S
C2090 C2094 1.385 . S
C2091 H2066 0.951 . S
C2091 C2089 1.388 . S
C2091 C2092 1.366 . S
C2092 C2091 1.366 . S
C2092 C2093 1.414 . S
C2092 C2095 1.499 . S
C2093 H2067 0.950 . S
C2093 C2092 1.414 . S
C2093 C2094 1.374 . S
C2094 H2068 0.950 . S
C2094 C2090 1.385 . S
C2094 C2093 1.374 . S
C2095 C2092 1.499 . S
C2095 C2096 1.373 . S
C2095 C2097 1.389 . S
C2096 H2069 0.950 . S
C2096 C2082 1.377 . S
C2096 C2095 1.373 . S
C2097 C2081 1.377 . S
C2097 C2095 1.389 . S
C2097 C2098 1.524 . S
C2098 C2097 1.524 . S
C2098 C2099 1.397 . S
C2098 C2103 1.363 . S
C2099 H2070 0.950 . S
C2099 C2098 1.397 . S
C2099 C2100 1.334 . S
C2100 H2071 0.950 . S
C2100 C2099 1.334 . S
C2100 C2101 1.287 . S
C2101 C2100 1.287 . S
C2101 C2102 1.524 . S
C2101 H2104 0.999 . S
C2102 H2072 0.950 . S
C2102 C2101 1.524 . S
C2102 C2103 1.415 . S
C2103 H2073 0.950 . S
C2103 C2098 1.363 . S
C2103 C2102 1.415 . S
H2104 C2101 0.999 . S
H2105 C2086 0.913 . S
H2106 C2124 0.951 . S
H2107 C2126 0.951 . S
H2108 C2128 0.950 . S
H2109 C2129 0.950 . S
H2110 C2131 0.950 . S
H2111 C2134 0.950 . S
H2112 C2135 0.950 . S
H2113 C2137 0.950 . S
H2114 C2138 0.950 . S
H2115 C2139 0.951 . S
H2116 C2141 0.951 . S
H2117 C2143 0.950 . S
H2118 C2144 0.950 . S
H2119 C2146 0.950 . S
H2120 C2149 0.950 . S
H2121 C2150 0.950 . S
H2122 C2152 0.950 . S
H2123 C2153 0.950 . S
C2124 H2106 0.951 . S
C2124 C2125 1.366 . S
C2124 C2126 1.388 . S
C2125 C2124 1.366 . S
C2125 C2129 1.385 . S
C2126 H2107 0.951 . S
C2126 C2124 1.388 . S
C2126 C2127 1.366 . S
C2127 C2126 1.366 . S
C2127 C2128 1.414 . S
C2127 C2130 1.499 . S
C2128 H2108 0.950 . S
C2128 C2127 1.414 . S
C2128 C2129 1.374 . S
C2129 H2109 0.950 . S
C2129 C2125 1.385 . S
C2129 C2128 1.374 . S
C2130 C2127 1.499 . S
C2130 C2131 1.373 . S
C2130 C2132 1.389 . S
C2131 H2110 0.950 . S
C2131 C2130 1.373 . S
C2131 C2147 1.377 . S
C2132 C2130 1.389 . S
C2132 C2133 1.524 . S
C2132 C2146 1.377 . S
C2133 C2132 1.524 . S
C2133 C2134 1.397 . S
C2133 C2138 1.363 . S
C2134 H2111 0.950 . S
C2134 C2133 1.397 . S
C2134 C2135 1.334 . S
C2135 H2112 0.950 . S
C2135 C2134 1.334 . S
C2135 C2136 1.287 . S
C2136 C2135 1.287 . S
C2136 C2137 1.524 . S
C2136 H2155 0.913 . S
C2137 H2113 0.950 . S
C2137 C2136 1.524 . S
C2137 C2138 1.415 . S
C2138 H2114 0.950 . S
C2138 C2133 1.363 . S
C2138 C2137 1.415 . S
C2139 H2115 0.951 . S
C2139 C2140 1.366 . S
C2139 C2141 1.388 . S
C2140 C2139 1.366 . S
C2140 C2144 1.385 . S
C2141 H2116 0.951 . S
C2141 C2139 1.388 . S
C2141 C2142 1.366 . S
C2142 C2141 1.366 . S
C2142 C2143 1.414 . S
C2142 C2145 1.499 . S
C2143 H2117 0.950 . S
C2143 C2142 1.414 . S
C2143 C2144 1.374 . S
C2144 H2118 0.950 . S
C2144 C2140 1.385 . S
C2144 C2143 1.374 . S
C2145 C2142 1.499 . S
C2145 C2146 1.373 . S
C2145 C2147 1.389 . S
C2146 H2119 0.950 . S
C2146 C2132 1.377 . S
C2146 C2145 1.373 . S
C2147 C2131 1.377 . S
C2147 C2145 1.389 . S
C2147 C2148 1.524 . S
C2148 C2147 1.524 . S
C2148 C2149 1.397 . S
C2148 C2153 1.363 . S
C2149 H2120 0.950 . S
C2149 C2148 1.397 . S
C2149 C2150 1.334 . S
C2150 H2121 0.950 . S
C2150 C2149 1.334 . S
C2150 C2151 1.287 . S
C2151 C2150 1.287 . S
C2151 C2152 1.524 . S
C2151 H2154 0.999 . S
C2152 H2122 0.950 . S
C2152 C2151 1.524 . S
C2152 C2153 1.415 . S
C2153 H2123 0.950 . S
C2153 C2148 1.363 . S
C2153 C2152 1.415 . S
H2154 C2151 0.999 . S
H2155 C2136 0.913 . S
H2156 C2174 0.951 . S
H2157 C2176 0.951 . S
H2158 C2178 0.950 . S
H2159 C2179 0.950 . S
H2160 C2181 0.950 . S
H2161 C2184 0.950 . S
H2162 C2185 0.950 . S
H2163 C2187 0.950 . S
H2164 C2188 0.950 . S
H2165 C2189 0.951 . S
H2166 C2191 0.951 . S
H2167 C2193 0.950 . S
H2168 C2194 0.950 . S
H2169 C2196 0.950 . S
H2170 C2199 0.950 . S
H2171 C2200 0.950 . S
H2172 C2202 0.950 . S
H2173 C2203 0.950 . S
C2174 H2156 0.951 . S
C2174 C2175 1.366 . S
C2174 C2176 1.388 . S
C2175 C2174 1.366 . S
C2175 C2179 1.385 . S
C2176 H2157 0.951 . S
C2176 C2174 1.388 . S
C2176 C2177 1.366 . S
C2177 C2176 1.366 . S
C2177 C2178 1.414 . S
C2177 C2180 1.499 . S
C2178 H2158 0.950 . S
C2178 C2177 1.414 . S
C2178 C2179 1.374 . S
C2179 H2159 0.950 . S
C2179 C2175 1.385 . S
C2179 C2178 1.374 . S
C2180 C2177 1.499 . S
C2180 C2181 1.373 . S
C2180 C2182 1.389 . S
C2181 H2160 0.950 . S
C2181 C2180 1.373 . S
C2181 C2197 1.377 . S
C2182 C2180 1.389 . S
C2182 C2183 1.524 . S
C2182 C2196 1.377 . S
C2183 C2182 1.524 . S
C2183 C2184 1.397 . S
C2183 C2188 1.363 . S
C2184 H2161 0.950 . S
C2184 C2183 1.397 . S
C2184 C2185 1.334 . S
C2185 H2162 0.950 . S
C2185 C2184 1.334 . S
C2185 C2186 1.287 . S
C2186 C2185 1.287 . S
C2186 C2187 1.524 . S
C2186 H2205 0.913 . S
C2187 H2163 0.950 . S
C2187 C2186 1.524 . S
C2187 C2188 1.415 . S
C2188 H2164 0.950 . S
C2188 C2183 1.363 . S
C2188 C2187 1.415 . S
C2189 H2165 0.951 . S
C2189 C2190 1.366 . S
C2189 C2191 1.388 . S
C2190 C2189 1.366 . S
C2190 C2194 1.385 . S
C2191 H2166 0.951 . S
C2191 C2189 1.388 . S
C2191 C2192 1.366 . S
C2192 C2191 1.366 . S
C2192 C2193 1.414 . S
C2192 C2195 1.499 . S
C2193 H2167 0.950 . S
C2193 C2192 1.414 . S
C2193 C2194 1.374 . S
C2194 H2168 0.950 . S
C2194 C2190 1.385 . S
C2194 C2193 1.374 . S
C2195 C2192 1.499 . S
C2195 C2196 1.373 . S
C2195 C2197 1.389 . S
C2196 H2169 0.950 . S
C2196 C2182 1.377 . S
C2196 C2195 1.373 . S
C2197 C2181 1.377 . S
C2197 C2195 1.389 . S
C2197 C2198 1.524 . S
C2198 C2197 1.524 . S
C2198 C2199 1.397 . S
C2198 C2203 1.363 . S
C2199 H2170 0.950 . S
C2199 C2198 1.397 . S
C2199 C2200 1.334 . S
C2200 H2171 0.950 . S
C2200 C2199 1.334 . S
C2200 C2201 1.287 . S
C2201 C2200 1.287 . S
C2201 C2202 1.524 . S
C2201 H2204 0.999 . S
C2202 H2172 0.950 . S
C2202 C2201 1.524 . S
C2202 C2203 1.415 . S
C2203 H2173 0.950 . S
C2203 C2198 1.363 . S
C2203 C2202 1.415 . S
H2204 C2201 0.999 . S
H2205 C2186 0.913 . S
H2206 C2224 0.951 . S
H2207 C2226 0.951 . S
H2208 C2228 0.950 . S
H2209 C2229 0.950 . S
H2210 C2231 0.950 . S
H2211 C2234 0.950 . S
H2212 C2235 0.950 . S
H2213 C2237 0.950 . S
H2214 C2238 0.950 . S
H2215 C2239 0.951 . S
H2216 C2241 0.951 . S
H2217 C2243 0.950 . S
H2218 C2244 0.950 . S
H2219 C2246 0.950 . S
H2220 C2249 0.950 . S
H2221 C2250 0.950 . S
H2222 C2252 0.950 . S
H2223 C2253 0.950 . S
C2224 H2206 0.951 . S
C2224 C2225 1.366 . S
C2224 C2226 1.388 . S
C2225 C2224 1.366 . S
C2225 C2229 1.385 . S
C2226 H2207 0.951 . S
C2226 C2224 1.388 . S
C2226 C2227 1.366 . S
C2227 C2226 1.366 . S
C2227 C2228 1.414 . S
C2227 C2230 1.499 . S
C2228 H2208 0.950 . S
C2228 C2227 1.414 . S
C2228 C2229 1.374 . S
C2229 H2209 0.950 . S
C2229 C2225 1.385 . S
C2229 C2228 1.374 . S
C2230 C2227 1.499 . S
C2230 C2231 1.373 . S
C2230 C2232 1.389 . S
C2231 H2210 0.950 . S
C2231 C2230 1.373 . S
C2231 C2247 1.377 . S
C2232 C2230 1.389 . S
C2232 C2233 1.524 . S
C2232 C2246 1.377 . S
C2233 C2232 1.524 . S
C2233 C2234 1.397 . S
C2233 C2238 1.363 . S
C2234 H2211 0.950 . S
C2234 C2233 1.397 . S
C2234 C2235 1.334 . S
C2235 H2212 0.950 . S
C2235 C2234 1.334 . S
C2235 C2236 1.287 . S
C2236 C2235 1.287 . S
C2236 C2237 1.524 . S
C2236 H2255 0.913 . S
C2237 H2213 0.950 . S
C2237 C2236 1.524 . S
C2237 C2238 1.415 . S
C2238 H2214 0.950 . S
C2238 C2233 1.363 . S
C2238 C2237 1.415 . S
C2239 H2215 0.951 . S
C2239 C2240 1.366 . S
C2239 C2241 1.388 . S
C2240 C2239 1.366 . S
C2240 C2244 1.385 . S
C2241 H2216 0.951 . S
C2241 C2239 1.388 . S
C2241 C2242 1.366 . S
C2242 C2241 1.366 . S
C2242 C2243 1.414 . S
C2242 C2245 1.499 . S
C2243 H2217 0.950 . S
C2243 C2242 1.414 . S
C2243 C2244 1.374 . S
C2244 H2218 0.950 . S
C2244 C2240 1.385 . S
C2244 C2243 1.374 . S
C2245 C2242 1.499 . S
C2245 C2246 1.373 . S
C2245 C2247 1.389 . S
C2246 H2219 0.950 . S
C2246 C2232 1.377 . S
C2246 C2245 1.373 . S
C2247 C2231 1.377 . S
C2247 C2245 1.389 . S
C2247 C2248 1.524 . S
C2248 C2247 1.524 . S
C2248 C2249 1.397 . S
C2248 C2253 1.363 . S
C2249 H2220 0.950 . S
C2249 C2248 1.397 . S
C2249 C2250 1.334 . S
C2250 H2221 0.950 . S
C2250 C2249 1.334 . S
C2250 C2251 1.287 . S
C2251 C2250 1.287 . S
C2251 C2252 1.524 . S
C2251 H2254 0.999 . S
C2252 H2222 0.950 . S
C2252 C2251 1.524 . S
C2252 C2253 1.415 . S
C2253 H2223 0.950 . S
C2253 C2248 1.363 . S
C2253 C2252 1.415 . S
H2254 C2251 0.999 . S
H2255 C2236 0.913 . S
C1075 C929 1.569 . S
C1090 C57 1.570 . S
C1125 C117 1.441 . S
C1140 C1017 1.444 . S
C1175 C205 1.507 . S
C1190 C577 1.506 . S
C1225 C636 1.568 . S
C1240 C293 1.570 . S
C1275 C761 1.444 . S
C1290 C372 1.443 . S
C1325 C460 1.508 . S
C1340 C849 1.506 . S
C1375 C49 0.338 . S
C1390 C645 0.317 . S
C1425 C137 1.006 . S
C1440 C724 1.000 . S
C1475 C812 0.954 . S
C1490 C225 0.950 . S
C1525 C937 0.315 . S
C1540 C284 0.335 . S
C1575 C997 1.000 . S
C1590 C409 1.006 . S
C1625 C557 0.955 . S
C1640 C497 0.950 . S
C1675 C20 0.728 . S
C1690 C381 0.736 . S
C1725 C145 0.611 . S
C1740 C469 0.609 . S
C1775 C233 0.647 . S
C1790 C29 0.623 . S
C1825 C313 0.725 . S
C1840 C108 0.734 . S
C1875 C401 0.611 . S
C1890 C196 0.609 . S
C1925 C489 0.647 . S
C1940 C321 0.625 . S
C1975 C548 0.612 . S
C1990 C753 0.609 . S
C2025 C673 0.635 . S
C2040 C841 0.658 . S
C2075 C900 0.712 . S
C2090 C733 0.725 . S
C2125 C821 0.611 . S
C2140 C1025 0.610 . S
C2175 C909 0.635 . S
C2190 C585 0.655 . S
C2225 C988 0.722 . S
C2240 C665 0.710 . S
