# Generated by pormake.
# Topology ume, (4)-cn, num edge types: 1
# Building blocks:
#     Node 0, Type 0, BuildingBlock: MUDLON_clean_sbu_0, # of connection points: 4
#     Node 1, Type 0, BuildingBlock: MUDLON_clean_sbu_0, # of connection points: 4
#     Node 2, Type 0, BuildingBlock: MUDLON_clean_sbu_0, # of connection points: 4
#     Node 3, Type 0, BuildingBlock: MUDLON_clean_sbu_0, # of connection points: 4
#     Node 4, Type 0, BuildingBlock: MUDLON_clean_sbu_0, # of connection points: 4
#     Node 5, Type 0, BuildingBlock: MUDLON_clean_sbu_0, # of connection points: 4
#     Node 6, Type 0, BuildingBlock: MUDLON_clean_sbu_0, # of connection points: 4
#     Node 7, Type 0, BuildingBlock: MUDLON_clean_sbu_0, # of connection points: 4
#     Node 8, Type 0, BuildingBlock: MUDLON_clean_sbu_0, # of connection points: 4
#     Node 9, Type 0, BuildingBlock: MUDLON_clean_sbu_0, # of connection points: 4
#     Node 10, Type 0, BuildingBlock: MUDLON_clean_sbu_0, # of connection points: 4
#     Node 11, Type 0, BuildingBlock: MUDLON_clean_sbu_0, # of connection points: 4
#     Node 12, Type 0, BuildingBlock: MUDLON_clean_sbu_0, # of connection points: 4
#     Node 13, Type 0, BuildingBlock: MUDLON_clean_sbu_0, # of connection points: 4
#     Node 14, Type 0, BuildingBlock: MUDLON_clean_sbu_0, # of connection points: 4
#     Node 15, Type 0, BuildingBlock: MUDLON_clean_sbu_0, # of connection points: 4
#     Edge 16, Type (0, 0), BuildingBlock: EZIPEK_clean_linker_0, # of connection points: 2
#     Edge 17, Type (0, 0), BuildingBlock: EZIPEK_clean_linker_0, # of connection points: 2
#     Edge 18, Type (0, 0), BuildingBlock: EZIPEK_clean_linker_0, # of connection points: 2
#     Edge 19, Type (0, 0), BuildingBlock: EZIPEK_clean_linker_0, # of connection points: 2
#     Edge 20, Type (0, 0), BuildingBlock: EZIPEK_clean_linker_0, # of connection points: 2
#     Edge 21, Type (0, 0), BuildingBlock: EZIPEK_clean_linker_0, # of connection points: 2
#     Edge 22, Type (0, 0), BuildingBlock: EZIPEK_clean_linker_0, # of connection points: 2
#     Edge 23, Type (0, 0), BuildingBlock: EZIPEK_clean_linker_0, # of connection points: 2
#     Edge 24, Type (0, 0), BuildingBlock: EZIPEK_clean_linker_0, # of connection points: 2
#     Edge 25, Type (0, 0), BuildingBlock: EZIPEK_clean_linker_0, # of connection points: 2
#     Edge 26, Type (0, 0), BuildingBlock: EZIPEK_clean_linker_0, # of connection points: 2
#     Edge 27, Type (0, 0), BuildingBlock: EZIPEK_clean_linker_0, # of connection points: 2
#     Edge 28, Type (0, 0), BuildingBlock: EZIPEK_clean_linker_0, # of connection points: 2
#     Edge 29, Type (0, 0), BuildingBlock: EZIPEK_clean_linker_0, # of connection points: 2
#     Edge 30, Type (0, 0), BuildingBlock: EZIPEK_clean_linker_0, # of connection points: 2
#     Edge 31, Type (0, 0), BuildingBlock: EZIPEK_clean_linker_0, # of connection points: 2
#     Edge 32, Type (0, 0), BuildingBlock: EZIPEK_clean_linker_0, # of connection points: 2
#     Edge 33, Type (0, 0), BuildingBlock: EZIPEK_clean_linker_0, # of connection points: 2
#     Edge 34, Type (0, 0), BuildingBlock: EZIPEK_clean_linker_0, # of connection points: 2
#     Edge 35, Type (0, 0), BuildingBlock: EZIPEK_clean_linker_0, # of connection points: 2
#     Edge 36, Type (0, 0), BuildingBlock: EZIPEK_clean_linker_0, # of connection points: 2
#     Edge 37, Type (0, 0), BuildingBlock: EZIPEK_clean_linker_0, # of connection points: 2
#     Edge 38, Type (0, 0), BuildingBlock: EZIPEK_clean_linker_0, # of connection points: 2
#     Edge 39, Type (0, 0), BuildingBlock: EZIPEK_clean_linker_0, # of connection points: 2
#     Edge 40, Type (0, 0), BuildingBlock: EZIPEK_clean_linker_0, # of connection points: 2
#     Edge 41, Type (0, 0), BuildingBlock: EZIPEK_clean_linker_0, # of connection points: 2
#     Edge 42, Type (0, 0), BuildingBlock: EZIPEK_clean_linker_0, # of connection points: 2
#     Edge 43, Type (0, 0), BuildingBlock: EZIPEK_clean_linker_0, # of connection points: 2
#     Edge 44, Type (0, 0), BuildingBlock: EZIPEK_clean_linker_0, # of connection points: 2
#     Edge 45, Type (0, 0), BuildingBlock: EZIPEK_clean_linker_0, # of connection points: 2
#     Edge 46, Type (0, 0), BuildingBlock: EZIPEK_clean_linker_0, # of connection points: 2
#     Edge 47, Type (0, 0), BuildingBlock: EZIPEK_clean_linker_0, # of connection points: 2
# Relax obj value: 0.085
# Max RMSD: 0.263
# Mean RMSD: 0.263
data_MOF--net-ume--node1-MUDLON_clean_sbu_0--edge1-EZIPEK_clean_linker_0
_symmetry_space_group_name_H-M    P1
_symmetry_Int_Tables_number       1
_symmetry_cell_setting            triclinic
loop_
_symmetry_equiv_pos_as_xyz
'x, y, z'
_cell_length_a     21.463265
_cell_length_b     21.539398
_cell_length_c     86.333081
_cell_angle_alpha  90.243744
_cell_angle_beta   89.926174
_cell_angle_gamma 89.838519
loop_
_atom_site_label
_atom_site_type_symbol
_atom_site_fract_x
_atom_site_fract_y
_atom_site_fract_z
_atom_type_partial_charge
Mg0 Mg 0.25899 0.09824 0.33405 0.0
C1 C 0.39496 0.06825 0.33342 0.0
O2 O 0.3966 0.12865 0.33143 0.0
C3 C 0.12379 0.06324 0.33484 0.0
O4 O 0.12003 0.12018 0.34026 0.0
C5 C 0.24852 0.14011 0.30133 0.0
O6 O 0.21603 0.0886 0.30078 0.0
O7 O 0.26995 0.15892 0.31424 0.0
O8 O 0.34262 0.04129 0.33485 0.0
O9 O 0.25326 0.14427 0.35642 0.0
C10 C 0.24626 0.10604 0.36745 0.0
O11 O 0.24334 0.04646 0.36426 0.0
O12 O 0.17663 0.04101 0.33108 0.0
Mg13 Mg 0.90931 0.76249 0.5863 0.0
C14 C 0.82809 0.78772 0.61578 0.0
O15 O 0.80467 0.83524 0.60833 0.0
C16 C 0.80455 0.79337 0.56254 0.0
O17 O 0.77406 0.81803 0.57425 0.0
C18 C 0.94355 0.62921 0.58363 0.0
O19 O 0.88246 0.62612 0.58413 0.0
O20 O 0.96987 0.68203 0.58409 0.0
O21 O 0.86431 0.74997 0.60882 0.0
O22 O 0.96367 0.84801 0.58738 0.0
C23 C 0.93526 0.89985 0.58828 0.0
O24 O 0.87425 0.90116 0.58859 0.0
O25 O 0.85656 0.76677 0.56479 0.0
Mg26 Mg 0.2669 0.40408 0.83176 0.0
C27 C 0.13085 0.42978 0.8323 0.0
O28 O 0.13126 0.36888 0.83295 0.0
C29 C 0.4012 0.44198 0.83202 0.0
O30 O 0.4059 0.38643 0.83813 0.0
C31 C 0.24329 0.36394 0.80002 0.0
O32 O 0.23801 0.42469 0.79958 0.0
O33 O 0.25832 0.33828 0.81273 0.0
O34 O 0.18215 0.45902 0.83166 0.0
O35 O 0.27277 0.36541 0.85493 0.0
C36 C 0.27481 0.4071 0.86539 0.0
O37 O 0.27492 0.46576 0.86133 0.0
O38 O 0.34803 0.4622 0.82793 0.0
Mg39 Mg 0.61003 0.77666 0.08496 0.0
C40 C 0.68522 0.7376 0.11347 0.0
O41 O 0.69432 0.68668 0.10537 0.0
C42 C 0.70999 0.74099 0.06034 0.0
O43 O 0.73714 0.70956 0.07146 0.0
C44 C 0.57614 0.9111 0.08505 0.0
O45 O 0.63662 0.91423 0.08722 0.0
O46 O 0.5504 0.85825 0.08368 0.0
O47 O 0.65741 0.7833 0.10726 0.0
O48 O 0.5531 0.69237 0.08546 0.0
C49 C 0.57581 0.64 0.08146 0.0
O50 O 0.63392 0.63625 0.07686 0.0
O51 O 0.66343 0.77545 0.06345 0.0
Mg52 Mg 0.26739 0.41268 0.96503 0.0
C53 C 0.40262 0.43798 0.96558 0.0
O54 O 0.40069 0.37871 0.96196 0.0
C55 C 0.1317 0.44375 0.96226 0.0
O56 O 0.13242 0.3876 0.95628 0.0
C57 C 0.25618 0.3664 0.99719 0.0
O58 O 0.22785 0.42036 0.99824 0.0
O59 O 0.27497 0.34748 0.98402 0.0
O60 O 0.35174 0.46775 0.96732 0.0
O61 O 0.26976 0.37189 0.94195 0.0
C62 C 0.26866 0.41199 0.93119 0.0
O63 O 0.26676 0.4712 0.93485 0.0
O64 O 0.18221 0.46749 0.96717 0.0
Mg65 Mg 0.61369 0.77884 0.20965 0.0
C66 C 0.68778 0.73975 0.18048 0.0
O67 O 0.7088 0.69447 0.18919 0.0
C68 C 0.64911 0.79402 0.24193 0.0
O69 O 0.58791 0.79596 0.24194 0.0
C70 C 0.58491 0.64515 0.21711 0.0
O71 O 0.64234 0.64769 0.2223 0.0
O72 O 0.55974 0.69363 0.21149 0.0
O73 O 0.6523 0.78096 0.18631 0.0
O74 O 0.55587 0.86163 0.21148 0.0
C75 C 0.58126 0.91252 0.20756 0.0
O76 O 0.63896 0.91225 0.20248 0.0
O77 O 0.67745 0.78458 0.22917 0.0
Mg78 Mg 0.24874 0.10544 0.46575 0.0
C79 C 0.1173 0.0651 0.46601 0.0
O80 O 0.11324 0.12565 0.46456 0.0
C81 C 0.36912 0.02398 0.47138 0.0
O82 O 0.33513 0.98814 0.48027 0.0
C83 C 0.24527 0.13466 0.49888 0.0
O84 O 0.25622 0.07468 0.49859 0.0
O85 O 0.2406 0.16397 0.48618 0.0
O86 O 0.17105 0.03989 0.46681 0.0
O87 O 0.23899 0.15182 0.44366 0.0
C88 C 0.24391 0.11207 0.4328 0.0
O89 O 0.25232 0.05343 0.43638 0.0
O90 O 0.34445 0.07021 0.46463 0.0
Mg91 Mg 0.91176 0.75184 0.71169 0.0
C92 C 0.83222 0.78381 0.68278 0.0
O93 O 0.80476 0.82541 0.69163 0.0
C94 C 0.87374 0.74839 0.74416 0.0
O95 O 0.93065 0.77058 0.74465 0.0
C96 C 0.93666 0.88869 0.71707 0.0
O97 O 0.87646 0.88882 0.7198 0.0
O98 O 0.96417 0.83795 0.71378 0.0
O99 O 0.87342 0.7481 0.68845 0.0
O100 O 0.97243 0.67138 0.71317 0.0
C101 C 0.94839 0.61972 0.70926 0.0
O102 O 0.89058 0.61836 0.7043 0.0
O103 O 0.84844 0.73924 0.73104 0.0
Mg104 Mg 0.7662 0.60701 0.83358 0.0
C105 C 0.89907 0.56747 0.83239 0.0
O106 O 0.90405 0.62756 0.83017 0.0
C107 C 0.62931 0.58376 0.828 0.0
O108 O 0.63066 0.64335 0.82484 0.0
C109 C 0.78065 0.63718 0.80048 0.0
O110 O 0.77015 0.57713 0.80019 0.0
O111 O 0.78012 0.66562 0.81342 0.0
O112 O 0.84538 0.54391 0.83433 0.0
O113 O 0.76562 0.65495 0.85581 0.0
C114 C 0.75529 0.61859 0.86709 0.0
O115 O 0.74337 0.55991 0.8642 0.0
O116 O 0.67947 0.55578 0.83157 0.0
Mg117 Mg 0.40273 0.27766 0.08574 0.0
C118 C 0.36403 0.24589 0.1189 0.0
O119 O 0.37827 0.18914 0.11461 0.0
C120 C 0.35381 0.26115 0.05365 0.0
O121 O 0.40389 0.2261 0.05297 0.0
C122 C 0.43282 0.13971 0.08383 0.0
O123 O 0.37174 0.13588 0.08388 0.0
O124 O 0.45852 0.19285 0.08417 0.0
O125 O 0.3634 0.28907 0.1089 0.0
O126 O 0.46157 0.35907 0.08338 0.0
C127 C 0.43412 0.41155 0.08321 0.0
O128 O 0.37308 0.41373 0.08424 0.0
O129 O 0.33834 0.28579 0.0665 0.0
Mg130 Mg 0.75941 0.89409 0.33477 0.0
C131 C 0.62484 0.92697 0.33453 0.0
O132 O 0.6221 0.86609 0.33402 0.0
C133 C 0.8954 0.92174 0.33105 0.0
O134 O 0.89623 0.86144 0.32871 0.0
C135 C 0.73633 0.86907 0.30192 0.0
O136 O 0.73009 0.92956 0.30324 0.0
O137 O 0.75162 0.8379 0.31383 0.0
O138 O 0.67764 0.9535 0.33502 0.0
O139 O 0.7592 0.84553 0.35689 0.0
C140 C 0.75559 0.88271 0.36835 0.0
O141 O 0.75252 0.94265 0.36575 0.0
O142 O 0.84385 0.94907 0.33364 0.0
Mg143 Mg 0.11043 0.26278 0.58626 0.0
C144 C 0.19017 0.29717 0.61487 0.0
O145 O 0.20876 0.3447 0.60662 0.0
C146 C 0.19604 0.21219 0.56151 0.0
O147 O 0.19891 0.16537 0.57116 0.0
C148 C 0.08196 0.39814 0.58194 0.0
O149 O 0.14068 0.39736 0.57764 0.0
O150 O 0.05574 0.34789 0.58601 0.0
O151 O 0.15419 0.25705 0.60889 0.0
O152 O 0.05161 0.18095 0.58437 0.0
C153 C 0.06943 0.13175 0.59118 0.0
O154 O 0.1207 0.13238 0.59945 0.0
O155 O 0.16802 0.26163 0.56558 0.0
Mg156 Mg 0.75076 0.89244 0.46704 0.0
C157 C 0.88285 0.93169 0.469 0.0
O158 O 0.88592 0.87176 0.47164 0.0
C159 C 0.63545 0.98321 0.46463 0.0
O160 O 0.67344 0.02433 0.45864 0.0
C161 C 0.73375 0.85111 0.4996 0.0
O162 O 0.6911 0.89455 0.49839 0.0
O163 O 0.76561 0.83615 0.4877 0.0
O164 O 0.82974 0.95681 0.46673 0.0
O165 O 0.7543 0.84464 0.44477 0.0
C166 C 0.75155 0.88238 0.43349 0.0
O167 O 0.74678 0.94208 0.43639 0.0
O168 O 0.65607 0.93055 0.46886 0.0
Mg169 Mg 0.11248 0.25096 0.7104 0.0
C170 C 0.18913 0.28593 0.68165 0.0
O171 O 0.21091 0.33015 0.69061 0.0
C172 C 0.15187 0.27185 0.74236 0.0
O173 O 0.09103 0.27857 0.7427 0.0
C174 C 0.07868 0.11697 0.71514 0.0
O175 O 0.13967 0.11274 0.71585 0.0
O176 O 0.05337 0.16986 0.71326 0.0
O177 O 0.15227 0.24567 0.68723 0.0
O178 O 0.05703 0.33598 0.71079 0.0
C179 C 0.08423 0.38765 0.71307 0.0
O180 O 0.14445 0.38859 0.71566 0.0
O181 O 0.17771 0.25646 0.72964 0.0
Mg182 Mg 0.76558 0.61644 0.96573 0.0
C183 C 0.64469 0.55026 0.97567 0.0
O184 O 0.66068 0.56828 0.98964 0.0
C185 C 0.9002 0.58256 0.96243 0.0
O186 O 0.90004 0.63822 0.95629 0.0
C187 C 0.77142 0.65767 0.99864 0.0
O188 O 0.79323 0.60078 0.99958 0.0
O189 O 0.75821 0.6797 0.9854 0.0
O190 O 0.68067 0.56096 0.96428 0.0
O191 O 0.76841 0.66179 0.94333 0.0
C192 C 0.77002 0.62259 0.93229 0.0
O193 O 0.77091 0.56309 0.93554 0.0
O194 O 0.84967 0.56009 0.96767 0.0
Mg195 Mg 0.4129 0.27913 0.21749 0.0
C196 C 0.39817 0.27752 0.18421 0.0
O197 O 0.45833 0.27245 0.18674 0.0
C198 C 0.32678 0.22481 0.2412 0.0
O199 O 0.32598 0.17987 0.2309 0.0
C200 C 0.44648 0.41435 0.21675 0.0
O201 O 0.38637 0.4179 0.21406 0.0
O202 O 0.4715 0.36143 0.21886 0.0
O203 O 0.36188 0.28332 0.19577 0.0
O204 O 0.46918 0.19433 0.21697 0.0
C205 C 0.44829 0.14652 0.21 0.0
O206 O 0.39415 0.14933 0.20299 0.0
O207 O 0.35592 0.2746 0.23823 0.0
C208 C 0.99898 0.94301 0.34336 0.0
C209 C 0.95463 0.95691 0.33168 0.0
C210 C 0.02084 0.04146 0.3222 0.0
C211 C 0.06667 0.02522 0.33334 0.0
N212 N 0.10392 0.95568 0.35315 0.0
N213 N 0.92675 0.01193 0.30844 0.0
C214 C 0.05723 0.97425 0.34344 0.0
C215 C 0.96635 1.00432 0.32069 0.0
N216 N 0.98404 0.90232 0.3549 0.0
N217 N 0.02941 0.09248 0.31307 0.0
H218 H 0.8867 0.98527 0.3069 0.0
H219 H 0.93582 0.041 0.29911 0.0
H220 H 0.0705 0.11822 0.31303 0.0
H221 H 0.99474 0.11144 0.30611 0.0
H222 H 0.01099 0.89574 0.36477 0.0
H223 H 0.94186 0.87861 0.35531 0.0
H224 H 0.10295 0.91432 0.35934 0.0
H225 H 0.14588 0.97941 0.35429 0.0
C226 C 0.97246 0.52936 0.57036 0.0
C227 C 0.98089 0.5712 0.58293 0.0
C228 C 0.05982 0.50192 0.59406 0.0
C229 C 0.04711 0.45758 0.58228 0.0
N230 N 0.98704 0.42527 0.56009 0.0
N231 N 0.02435 0.59301 0.60814 0.0
C232 C 1.00192 0.4701 0.57071 0.0
C233 C 0.02265 0.55656 0.59513 0.0
N234 N 0.93857 0.54744 0.55774 0.0
N235 N 0.10757 0.49195 0.60424 0.0
H236 H 0.9972 0.63287 0.60952 0.0
H237 H 0.04842 0.58095 0.61815 0.0
H238 H 0.13414 0.45139 0.6043 0.0
H239 H 0.12384 0.52564 0.6119 0.0
H240 H 0.93603 0.52185 0.54751 0.0
H241 H 0.91736 0.59093 0.55691 0.0
H242 H 0.9494 0.42873 0.55254 0.0
H243 H 1.00983 0.3825 0.55946 0.0
C244 C 0.55909 0.49991 0.81792 0.0
C245 C 0.56915 0.55003 0.82833 0.0
C246 C 0.46528 0.53446 0.83966 0.0
C247 C 0.45765 0.48085 0.83023 0.0
N248 N 0.49768 0.40948 0.81102 0.0
N249 N 0.53565 0.61156 0.85024 0.0
C250 C 0.50478 0.46264 0.81955 0.0
C251 C 0.52299 0.56684 0.8394 0.0
N252 N 0.60029 0.48967 0.80607 0.0
N253 N 0.41745 0.55431 0.84894 0.0
H254 H 0.57679 0.63708 0.85035 0.0
H255 H 0.50762 0.62057 0.85984 0.0
H256 H 0.37607 0.52978 0.8503 0.0
H257 H 0.41693 0.59711 0.85458 0.0
H258 H 0.59272 0.4582 0.7971 0.0
H259 H 0.64013 0.5165 0.80443 0.0
H260 H 0.53326 0.38925 0.80452 0.0
H261 H 0.45679 0.38343 0.81102 0.0
C262 C 0.46826 0.04044 0.07108 0.0
C263 C 0.4711 0.08209 0.08389 0.0
C264 C 0.53741 1.00826 0.09794 0.0
C265 C 0.53849 0.96896 0.08472 0.0
N266 N 0.5134 0.95135 0.05785 0.0
N267 N 0.51545 0.10996 0.10869 0.0
C268 C 0.50588 0.98583 0.07107 0.0
C269 C 0.50809 0.06744 0.09703 0.0
N270 N 0.42978 0.05317 0.05888 0.0
N271 N 0.56169 0.98763 0.11164 0.0
H272 H 0.49266 0.15266 0.10899 0.0
H273 H 0.54784 0.10496 0.11757 0.0
H274 H 0.58251 0.94411 0.11287 0.0
H275 H 0.5561 0.0109 0.12215 0.0
H276 H 0.41939 0.02117 0.0502 0.0
H277 H 0.40529 0.09479 0.0578 0.0
H278 H 0.49676 0.96487 0.04706 0.0
H279 H 0.54081 0.91134 0.05734 0.0
C280 C 0.04348 0.49484 0.97673 0.0
C281 C 0.07283 0.47997 0.96244 0.0
C282 C 0.98526 0.52613 0.94826 0.0
C283 C 0.95859 0.54565 0.96253 0.0
N284 N 0.96617 0.55719 0.99026 0.0
N285 N 0.07726 0.48952 0.93463 0.0
C286 C 0.98868 0.53227 0.97677 0.0
C287 C 0.04519 0.49775 0.94819 0.0
N288 N 0.06665 0.47124 0.99023 0.0
N289 N 0.95234 0.53285 0.93481 0.0
H290 H 0.12143 0.46928 0.93411 0.0
H291 H 0.06267 0.5075 0.92406 0.0
H292 H 0.90824 0.55326 0.93439 0.0
H293 H 0.96613 0.5135 0.92428 0.0
H294 H 0.04366 0.47467 1.00083 0.0
H295 H 0.10654 0.44357 0.99065 0.0
H296 H 0.98986 0.55506 1.00076 0.0
H297 H 0.92598 0.58447 0.99076 0.0
C298 C 0.53303 0.48124 0.20646 0.0
C299 C 0.48432 0.47198 0.21735 0.0
C300 C 0.49969 0.57749 0.2276 0.0
C301 C 0.55062 0.58541 0.2173 0.0
N302 N 0.6219 0.54247 0.19841 0.0
N303 N 0.42872 0.50595 0.24015 0.0
C304 C 0.56932 0.5364 0.20724 0.0
C305 C 0.46952 0.51877 0.22841 0.0
N306 N 0.54256 0.43881 0.19485 0.0
N307 N 0.48013 0.62614 0.23663 0.0
H308 H 0.40679 0.46306 0.24132 0.0
H309 H 0.42072 0.53547 0.24952 0.0
H310 H 0.50335 0.66858 0.23711 0.0
H311 H 0.43879 0.62593 0.24294 0.0
H312 H 0.57183 0.44642 0.18543 0.0
H313 H 0.51753 0.3976 0.19391 0.0
H314 H 0.64226 0.5059 0.1923 0.0
H315 H 0.64792 0.58319 0.19795 0.0
C316 C 0.47683 0.01856 0.48284 0.0
C317 C 0.43733 0.01303 0.46971 0.0
C318 C 0.52892 0.99678 0.45297 0.0
C319 C 0.56779 0.99699 0.46628 0.0
N320 N 0.57954 1.00385 0.49399 0.0
N321 N 0.42401 0.9893 0.4426 0.0
C322 C 0.54185 1.00643 0.48125 0.0
C323 C 0.46297 1.00049 0.45483 0.0
N324 N 0.45269 0.03865 0.49666 0.0
N325 N 0.55512 0.99316 0.43855 0.0
H326 H 0.37558 0.99075 0.44356 0.0
H327 H 0.43906 0.97359 0.43181 0.0
H328 H 0.60287 0.98781 0.43673 0.0
H329 H 0.53036 0.99977 0.42833 0.0
H330 H 0.47977 0.05059 0.5062 0.0
H331 H 0.40553 0.04833 0.4983 0.0
H332 H 0.56287 1.0019 0.50531 0.0
H333 H 0.62794 1.00066 0.49324 0.0
C334 C 0.04319 0.02158 0.72923 0.0
C335 C 0.04017 0.05989 0.71591 0.0
C336 C 0.96398 0.98912 0.70415 0.0
C337 C 0.97155 0.948 0.71682 0.0
N338 N 0.02288 0.92096 0.74069 0.0
N339 N 1.00606 0.07533 0.68957 0.0
C340 C 0.01267 0.96297 0.72914 0.0
C341 C 1.00246 0.04264 0.70309 0.0
N342 N 0.07303 0.04248 0.74223 0.0
N343 N 0.91999 0.97706 0.6931 0.0
H344 H 0.03444 0.11412 0.68817 0.0
H345 H 0.98532 0.06098 0.67927 0.0
H346 H 0.89285 0.93699 0.69303 0.0
H347 H 0.90715 1.00877 0.6846 0.0
H348 H 0.07136 0.01991 0.75286 0.0
H349 H 0.09507 0.08551 0.74281 0.0
H350 H 0.0577 0.92583 0.74899 0.0
H351 H 0.99915 0.87891 0.74143 0.0
C352 C 0.55078 1.00274 0.3469 0.0
C353 C 0.56666 0.96405 0.33415 0.0
C354 C 0.46761 0.98979 0.32148 0.0
C355 C 0.45385 0.03209 0.3337 0.0
N356 N 0.48625 0.08618 0.3569 0.0
N357 N 0.54634 0.92873 0.3081 0.0
C358 C 0.49678 0.04097 0.34603 0.0
C359 C 0.52661 0.9595 0.32112 0.0
N360 N 0.5856 1.0007 0.36014 0.0
N361 N 0.42444 0.97867 0.31017 0.0
H362 H 0.58963 0.90683 0.30729 0.0
H363 H 0.52247 0.92944 0.29762 0.0
H364 H 0.38228 1.00257 0.30941 0.0
H365 H 0.42855 0.94296 0.30207 0.0
H366 H 0.57235 0.02209 0.37048 0.0
H367 H 0.62526 0.97305 0.36128 0.0
H368 H 0.51927 0.09973 0.36506 0.0
H369 H 0.44619 0.11356 0.35713 0.0
C370 C 0.99988 0.98167 0.57547 0.0
C371 C 0.97 0.959 0.58897 0.0
C372 C 0.99823 0.05383 0.60314 0.0
C373 C 0.03271 0.0739 0.59008 0.0
N374 N 0.07269 0.0551 0.56437 0.0
N375 N 0.94451 0.96966 0.61606 0.0
C376 C 0.03512 0.03743 0.57636 0.0
C377 C 0.97004 0.99415 0.60292 0.0
N378 N 0.99255 0.95112 0.56166 0.0
N379 N 0.99082 0.09281 0.61557 0.0
H380 H 0.9216 0.92709 0.61622 0.0
H381 H 0.94946 0.98928 0.62702 0.0
H382 H 0.01098 0.13678 0.61613 0.0
H383 H 0.96085 0.08399 0.62478 0.0
H384 H 1.00702 0.9689 0.55106 0.0
H385 H 0.96751 0.90988 0.56059 0.0
H386 H 0.08226 0.02714 0.55478 0.0
H387 H 0.09795 0.09633 0.56445 0.0
C388 C 0.02828 0.4562 0.82011 0.0
C389 C 0.07084 0.46378 0.83254 0.0
C390 C 1.00017 0.53837 0.84503 0.0
C391 C 0.95616 0.52855 0.83298 0.0
N392 N 0.92326 0.47061 0.81043 0.0
N393 N 0.09328 0.50232 0.85818 0.0
C394 C 0.96853 0.48485 0.82099 0.0
C395 C 0.05579 0.50233 0.84537 0.0
N396 N 0.04618 0.42409 0.80713 0.0
N397 N 0.98884 0.58229 0.85617 0.0
H398 H 0.13426 0.47637 0.85889 0.0
H399 H 0.08146 0.5238 0.8686 0.0
H400 H 0.94669 0.60613 0.85708 0.0
H401 H 0.0222 0.59747 0.86406 0.0
H402 H 0.02024 0.42277 0.79696 0.0
H403 H 0.08972 0.4029 0.806 0.0
H404 H 0.927 0.43425 0.8025 0.0
H405 H 0.87963 0.49191 0.81031 0.0
C406 C 0.49022 0.57225 0.07113 0.0
C407 C 0.53786 0.58273 0.08222 0.0
C408 C 0.51376 0.48349 0.09466 0.0
C409 C 0.47027 0.4702 0.08275 0.0
N410 N 0.42264 0.4977 0.05842 0.0
N411 N 0.60127 0.54505 0.10329 0.0
C412 C 0.45968 0.51363 0.07068 0.0
C413 C 0.55164 0.53724 0.09357 0.0
N414 N 0.47424 0.61827 0.06101 0.0
N415 N 0.51647 0.4466 0.10749 0.0
H416 H 0.62848 0.58497 0.10344 0.0
H417 H 0.61825 0.51015 0.11047 0.0
H418 H 0.48835 0.40777 0.10892 0.0
H419 H 0.54197 0.45772 0.11737 0.0
H420 H 0.4353 0.61629 0.05385 0.0
H421 H 0.49749 0.66064 0.06046 0.0
H422 H 0.41868 0.5241 0.04839 0.0
H423 H 0.39952 0.45533 0.05765 0.0
C424 C 0.50463 0.44319 0.97973 0.0
C425 C 0.46372 0.46817 0.96841 0.0
C426 C 0.53924 0.55057 0.96294 0.0
C427 C 0.58269 0.52163 0.97304 0.0
N428 N 0.61067 0.43454 0.98908 0.0
N429 N 0.4462 0.53931 0.94732 0.0
C430 C 0.56642 0.46638 0.98093 0.0
C431 C 0.48208 0.52023 0.95949 0.0
N432 N 0.48383 0.39877 0.98974 0.0
N433 N 0.55124 0.60835 0.95717 0.0
H434 H 0.40407 0.5184 0.94438 0.0
H435 H 0.46082 0.57226 0.93931 0.0
H436 H 0.59175 0.633 0.95968 0.0
H437 H 0.51848 0.63441 0.95111 0.0
H438 H 0.50908 0.38408 0.99935 0.0
H439 H 0.43889 0.38062 0.98934 0.0
H440 H 0.60335 0.3905 0.99366 0.0
H441 H 0.6567 0.44945 0.99005 0.0
C442 C 0.53051 1.00272 0.19438 0.0
C443 C 0.54625 0.97181 0.20832 0.0
C444 C 0.49556 0.05439 0.22347 0.0
C445 C 0.48434 0.08771 0.20959 0.0
N446 N 0.49996 0.09904 0.18207 0.0
N447 N 0.55316 0.97204 0.2362 0.0
C448 C 0.50421 0.06333 0.19509 0.0
C449 C 0.53134 0.99866 0.22291 0.0
N450 N 0.53879 0.97323 0.18046 0.0
N451 N 0.46983 0.07453 0.2371 0.0
H452 H 0.57916 0.93105 0.23625 0.0
H453 H 0.54988 0.99306 0.24705 0.0
H454 H 0.4432 0.11494 0.23799 0.0
H455 H 0.47047 0.0487 0.24727 0.0
H456 H 0.52194 0.99039 0.17002 0.0
H457 H 0.55783 0.92876 0.17948 0.0
H458 H 0.51971 0.08663 0.17148 0.0
H459 H 0.48148 0.14388 0.18213 0.0
C460 C 0.97881 0.97431 0.48182 0.0
C461 C 0.94168 0.96803 0.46828 0.0
C462 C 0.0205 0.02428 0.45318 0.0
C463 C 0.05904 0.02783 0.46655 0.0
N464 N 0.07866 1.0016 0.49321 0.0
N465 N 0.93047 0.97814 0.44063 0.0
C466 C 0.03937 1.00117 0.48074 0.0
C467 C 0.96322 0.99097 0.45384 0.0
N468 N 0.95493 0.95672 0.49582 0.0
N469 N 0.03873 0.05298 0.43983 0.0
H470 H 0.88824 0.95432 0.44063 0.0
H471 H 0.94696 0.98699 0.42952 0.0
H472 H 0.0825 0.07313 0.43846 0.0
H473 H 1.00966 0.05948 0.43033 0.0
H474 H 0.97619 0.96579 0.50641 0.0
H475 H 0.91097 0.93686 0.49702 0.0
H476 H 0.07051 0.97706 0.50336 0.0
H477 H 0.12188 0.02357 0.49313 0.0
C478 C 0.06443 0.49035 0.70038 0.0
C479 C 0.04919 0.44692 0.71212 0.0
C480 C 0.96605 0.51581 0.72157 0.0
C481 C 0.98425 0.56108 0.71053 0.0
N482 N 0.0547 0.59521 0.69052 0.0
N483 N 0.99307 0.42187 0.73546 0.0
C484 C 0.0349 0.54958 0.70032 0.0
C485 C 1.00183 0.46046 0.72311 0.0
N486 N 0.10493 0.47378 0.68882 0.0
N487 N 0.91434 0.52555 0.73054 0.0
H488 H 0.01845 0.38105 0.73702 0.0
H489 H 0.96448 0.43262 0.74485 0.0
H490 H 0.88893 0.56686 0.73048 0.0
H491 H 0.89423 0.49139 0.73741 0.0
H492 H 0.1125 0.50023 0.67893 0.0
H493 H 0.12743 0.43088 0.68839 0.0
H494 H 0.09596 0.59259 0.6842 0.0
H495 H 0.03197 0.63779 0.68939 0.0
C496 C 0.19786 0.15042 0.3915 0.0
C497 C 0.25093 0.12574 0.38383 0.0
C498 C 0.30572 0.11724 0.40858 0.0
C499 C 0.24908 0.13042 0.41637 0.0
N500 N 0.1418 0.16309 0.41582 0.0
N501 N 0.35653 0.08761 0.38456 0.0
C502 C 0.19557 0.1495 0.40801 0.0
C503 C 0.30564 0.11068 0.39222 0.0
N504 N 0.14957 0.17355 0.38297 0.0
N505 N 0.35944 0.11118 0.41695 0.0
H506 H 0.35884 0.08484 0.37251 0.0
H507 H 0.39522 0.06862 0.39006 0.0
H508 H 0.36055 0.11671 0.42897 0.0
H509 H 0.40345 0.10643 0.41201 0.0
H510 H 0.11147 0.19672 0.38774 0.0
H511 H 0.15002 0.17378 0.37088 0.0
H512 H 0.09892 0.17006 0.41048 0.0
H513 H 0.13963 0.16519 0.42788 0.0
C514 C 0.88226 0.80546 0.64107 0.0
C515 C 0.8273 0.78812 0.63296 0.0
C516 C 0.77382 0.76923 0.65769 0.0
C517 C 0.82809 0.7887 0.6657 0.0
N518 N 0.92824 0.83915 0.66528 0.0
N519 N 0.71818 0.76235 0.63321 0.0
C520 C 0.88071 0.81068 0.65745 0.0
C521 C 0.7721 0.77297 0.64119 0.0
N522 N 0.9364 0.81645 0.63316 0.0
N523 N 0.72498 0.74508 0.66584 0.0
H524 H 0.71605 0.76231 0.62114 0.0
H525 H 0.67485 0.75742 0.63848 0.0
H526 H 0.7245 0.74291 0.67791 0.0
H527 H 0.68671 0.72379 0.66071 0.0
H528 H 0.9796 0.82074 0.63853 0.0
H529 H 0.93941 0.8177 0.62113 0.0
H530 H 0.96431 0.86285 0.65983 0.0
H531 H 0.92879 0.84445 0.67729 0.0
C532 C 0.33293 0.40244 0.89032 0.0
C533 C 0.27702 0.39147 0.88205 0.0
C534 C 0.22131 0.37334 0.90646 0.0
C535 C 0.27458 0.39401 0.91467 0.0
N536 N 0.38227 0.42487 0.91503 0.0
N537 N 0.16785 0.36593 0.88172 0.0
C538 C 0.33107 0.40679 0.90677 0.0
C539 C 0.22136 0.37546 0.88996 0.0
N540 N 0.38769 0.40828 0.88235 0.0
N541 N 0.17061 0.3525 0.91448 0.0
H542 H 0.1668 0.36515 0.86964 0.0
H543 H 0.12396 0.36166 0.88672 0.0
H544 H 0.16914 0.35138 0.92655 0.0
H545 H 0.13211 0.33181 0.90931 0.0
H546 H 0.43123 0.41151 0.88756 0.0
H547 H 0.39009 0.40497 0.8703 0.0
H548 H 0.42277 0.44228 0.91007 0.0
H549 H 0.38353 0.42418 0.92712 0.0
C550 C 0.73422 0.77225 0.13854 0.0
C551 C 0.6897 0.73544 0.13061 0.0
C552 C 0.65164 0.69442 0.15535 0.0
C553 C 0.69231 0.73529 0.16336 0.0
N554 N 0.7685 0.81711 0.16298 0.0
N555 N 0.59833 0.67031 0.13139 0.0
C556 C 0.73266 0.77534 0.15506 0.0
C557 C 0.64667 0.69842 0.13898 0.0
N558 N 0.77871 0.80308 0.13027 0.0
N559 N 0.61708 0.65212 0.16341 0.0
H560 H 0.5915 0.67357 0.11947 0.0
H561 H 0.56146 0.64857 0.137 0.0
H562 H 0.61588 0.65023 0.17546 0.0
H563 H 0.59288 0.61591 0.15815 0.0
H564 H 0.81635 0.82584 0.1353 0.0
H565 H 0.78052 0.80208 0.11819 0.0
H566 H 0.79371 0.85237 0.15768 0.0
H567 H 0.77033 0.81868 0.17505 0.0
C568 C 0.70045 0.63438 0.89222 0.0
C569 C 0.75586 0.64024 0.88342 0.0
C570 C 0.81534 0.65913 0.90724 0.0
C571 C 0.76237 0.6416 0.91596 0.0
N572 N 0.65321 0.61685 0.9174 0.0
N573 N 0.86578 0.66201 0.88204 0.0
C574 C 0.70418 0.63152 0.90863 0.0
C575 C 0.81308 0.65527 0.89076 0.0
N576 N 0.64442 0.63191 0.88475 0.0
N577 N 0.8678 0.6785 0.91478 0.0
H578 H 0.86509 0.66223 0.86998 0.0
H579 H 0.91044 0.66522 0.88665 0.0
H580 H 0.87033 0.68116 0.92683 0.0
H581 H 0.90674 0.6966 0.90923 0.0
H582 H 0.60146 0.63237 0.89034 0.0
H583 H 0.641 0.63499 0.87273 0.0
H584 H 0.61113 0.60153 0.91282 0.0
H585 H 0.65373 0.61805 0.92949 0.0
C586 C 0.33266 0.23473 0.16219 0.0
C587 C 0.37567 0.27923 0.16797 0.0
C588 C 0.40816 0.30405 0.14163 0.0
C589 C 0.36371 0.26151 0.13566 0.0
N590 N 0.27404 0.1969 0.14003 0.0
N591 N 0.4367 0.37062 0.16305 0.0
C592 C 0.32269 0.23028 0.14589 0.0
C593 C 0.40725 0.31884 0.15759 0.0
N594 N 0.30395 0.19453 0.17206 0.0
N595 N 0.45484 0.32631 0.13244 0.0
H596 H 0.43478 0.38366 0.1747 0.0
H597 H 0.45634 0.40387 0.1558 0.0
H598 H 0.46116 0.31264 0.12095 0.0
H599 H 0.49169 0.35263 0.13674 0.0
H600 H 0.27854 0.15619 0.16832 0.0
H601 H 0.30827 0.19729 0.18405 0.0
H602 H 0.23907 0.17792 0.1469 0.0
H603 H 0.26556 0.1931 0.12816 0.0
C604 C 0.6944 0.86308 0.39234 0.0
C605 C 0.75248 0.86062 0.38457 0.0
C606 C 0.80664 0.84763 0.40938 0.0
C607 C 0.74993 0.86109 0.41715 0.0
N608 N 0.63885 0.87607 0.41671 0.0
N609 N 0.86326 0.8445 0.38493 0.0
C610 C 0.69324 0.86606 0.40881 0.0
C611 C 0.80839 0.8497 0.39287 0.0
N612 N 0.6407 0.86272 0.38384 0.0
N613 N 0.8587 0.83429 0.41786 0.0
H614 H 0.86484 0.8425 0.37286 0.0
H615 H 0.907 0.8433 0.39008 0.0
H616 H 0.85841 0.83324 0.42994 0.0
H617 H 0.90099 0.82028 0.41309 0.0
H618 H 0.59623 0.86052 0.38859 0.0
H619 H 0.64094 0.85971 0.37176 0.0
H620 H 0.59668 0.88732 0.41149 0.0
H621 H 0.63632 0.87457 0.42878 0.0
C622 C 0.14067 0.3187 0.65668 0.0
C623 C 0.19256 0.29295 0.66461 0.0
C624 C 0.24555 0.27312 0.63984 0.0
C625 C 0.19413 0.29983 0.63197 0.0
N626 N 0.09824 0.35842 0.63265 0.0
N627 N 0.29809 0.25485 0.66437 0.0
C628 C 0.14337 0.32583 0.64034 0.0
C629 C 0.24634 0.27316 0.65637 0.0
N630 N 0.08809 0.33498 0.66473 0.0
N631 N 0.29251 0.24607 0.63147 0.0
H632 H 0.29936 0.25299 0.67644 0.0
H633 H 0.34094 0.2455 0.6592 0.0
H634 H 0.29399 0.24713 0.61939 0.0
H635 H 0.32815 0.21984 0.63634 0.0
H636 H 0.04594 0.34637 0.65951 0.0
H637 H 0.08504 0.33371 0.67678 0.0
H638 H 0.06405 0.38486 0.63815 0.0
H639 H 0.09753 0.36322 0.62064 0.0
C640 C 0.33297 0.16643 0.2824 0.0
C641 C 0.26906 0.16901 0.28665 0.0
C642 C 0.24263 0.2111 0.2611 0.0
C643 C 0.30685 0.21145 0.25723 0.0
N644 N 0.4144 0.20043 0.26501 0.0
N645 N 0.16421 0.20271 0.28131 0.0
C646 C 0.3524 0.19311 0.26821 0.0
C647 C 0.22415 0.19405 0.27636 0.0
N648 N 0.37451 0.13438 0.29136 0.0
N649 N 0.19939 0.22585 0.2501 0.0
H650 H 0.14942 0.19085 0.29243 0.0
H651 H 0.13044 0.22612 0.27494 0.0
H652 H 0.21159 0.24119 0.23905 0.0
H653 H 0.15166 0.21968 0.25156 0.0
H654 H 0.42 0.12442 0.28793 0.0
H655 H 0.36215 0.11231 0.3016 0.0
H656 H 0.44927 0.19484 0.27327 0.0
H657 H 0.4311 0.21684 0.25446 0.0
C658 C 0.74164 0.7742 0.52141 0.0
C659 C 0.75523 0.83359 0.51527 0.0
C660 C 0.797 0.86743 0.54034 0.0
C661 C 0.78571 0.80726 0.54639 0.0
N662 N 0.75578 0.70063 0.54241 0.0
N663 N 0.80648 0.93262 0.51764 0.0
C664 C 0.7607 0.7597 0.53681 0.0
C665 C 0.78588 0.87907 0.5244 0.0
N666 N 0.70868 0.73261 0.5127 0.0
N667 N 0.81801 0.91376 0.54985 0.0
H668 H 0.79935 0.94291 0.50598 0.0
H669 H 0.83554 0.96444 0.52313 0.0
H670 H 0.83017 0.90662 0.56136 0.0
H671 H 0.81968 0.9603 0.54668 0.0
H672 H 0.69109 0.69111 0.51699 0.0
H673 H 0.69557 0.74139 0.50128 0.0
H674 H 0.74439 0.66237 0.53559 0.0
H675 H 0.7668 0.68906 0.55381 0.0
C676 C 0.23673 0.32756 0.75732 0.0
C677 C 0.18794 0.28309 0.7568 0.0
C678 C 0.18281 0.28266 0.78519 0.0
C679 C 0.23109 0.32753 0.7857 0.0
N680 N 0.31704 0.37686 0.77278 0.0
N681 N 0.13029 0.20358 0.77006 0.0
C682 C 0.2624 0.34461 0.7719 0.0
C683 C 0.16632 0.25573 0.77072 0.0
N684 N 0.25588 0.35682 0.74414 0.0
N685 N 0.14972 0.26868 0.79825 0.0
H686 H 0.11883 0.18197 0.75961 0.0
H687 H 0.11771 0.17822 0.77982 0.0
H688 H 0.1598 0.28716 0.80911 0.0
H689 H 0.10917 0.24223 0.79808 0.0
H690 H 0.28535 0.39516 0.74422 0.0
H691 H 0.2393 0.34594 0.73315 0.0
H692 H 0.34517 0.38568 0.7632 0.0
H693 H 0.33748 0.38892 0.78334 0.0
C694 C 0.80447 0.70663 1.02379 0.0
C695 C 0.75629 0.69182 1.01315 0.0
C696 C 0.67814 0.70934 0.03335 0.0
C697 C 0.72585 0.72747 0.04387 0.0
N698 N 0.83293 0.75653 0.04803 0.0
N699 N 0.64683 0.69692 1.00666 0.0
C700 C 0.78871 0.73005 0.03876 0.0
C701 C 0.69306 0.69964 1.01751 0.0
N702 N 0.86529 0.69768 1.01962 0.0
N703 N 0.61945 0.69622 0.03858 0.0
H704 H 0.65514 0.68964 0.99492 0.0
H705 H 0.60068 0.70857 1.0091 0.0
H706 H 0.60644 0.69844 0.05018 0.0
H707 H 0.5853 0.67603 0.03164 0.0
H708 H 0.90219 0.70015 0.02742 0.0
H709 H 0.8786 0.68484 1.00842 0.0
H710 H 0.87838 0.76511 0.04441 0.0
H711 H 0.82266 0.77534 0.0589 0.0
C712 C 0.27345 0.26188 0.03248 0.0
C713 C 0.32829 0.287 0.03914 0.0
C714 C 0.33418 0.36498 1.01859 0.0
C715 C 0.28139 0.3377 1.01141 0.0
N716 N 0.20442 0.25679 1.01017 0.0
N717 N 0.41649 0.3561 0.03761 0.0
C718 C 0.25208 0.28499 1.01795 0.0
C719 C 0.36027 0.33673 0.03192 0.0
N720 N 0.24141 0.21678 0.0402 0.0
N721 N 0.35866 0.41884 1.01286 0.0
H722 H 0.43593 0.33922 0.04783 0.0
H723 H 0.44603 0.38622 0.03174 0.0
H724 H 0.34378 0.43922 1.00257 0.0
H725 H 0.39149 0.44553 1.01872 0.0
H726 H 0.19782 0.20057 0.03686 0.0
H727 H 0.2569 0.19798 0.05064 0.0
H728 H 0.18481 0.21472 1.01345 0.0
H729 H 0.18688 0.27366 0.99973 0.0
C730 C 0.67897 0.79179 0.28501 0.0
C731 C 0.72431 0.8393 0.28663 0.0
C732 C 0.72687 0.85253 0.25841 0.0
C733 C 0.68278 0.80391 0.25677 0.0
N734 N 0.63204 0.71521 0.26804 0.0
N735 N 0.80494 0.90057 0.27475 0.0
C736 C 0.66395 0.76952 0.26995 0.0
C737 C 0.75276 0.86486 0.27326 0.0
N738 N 0.64695 0.77077 0.29763 0.0
N739 N 0.74097 0.88986 0.24615 0.0
H740 H 0.82596 0.90911 0.28545 0.0
H741 H 0.83097 0.91585 0.26532 0.0
H742 H 0.72226 0.88384 0.23512 0.0
H743 H 0.7672 0.93027 0.24724 0.0
H744 H 0.6084 0.74167 0.29676 0.0
H745 H 0.65513 0.78629 0.30887 0.0
H746 H 0.62203 0.68525 0.27715 0.0
H747 H 0.6216 0.69695 0.25713 0.0
C748 C 0.2844 0.17311 0.52452 0.0
C749 C 0.23417 0.16555 0.51399 0.0
C750 C 0.15936 0.19266 0.53439 0.0
C751 C 0.20964 0.20117 0.5449 0.0
N752 N 0.31962 0.2102 0.54967 0.0
N753 N 0.1254 0.17876 0.50783 0.0
C754 C 0.27216 0.19464 0.53985 0.0
C755 C 0.17219 0.17929 0.51857 0.0
N756 N 0.34361 0.15846 0.51988 0.0
N757 N 0.09926 0.1933 0.53973 0.0
H758 H 0.1323 0.16634 0.49627 0.0
H759 H 0.0806 0.19525 0.51003 0.0
H760 H 0.08731 0.20295 0.55119 0.0
H761 H 0.06117 0.17947 0.53313 0.0
H762 H 0.3814 0.15545 0.52738 0.0
H763 H 0.35462 0.14673 0.50846 0.0
H764 H 0.3662 0.21217 0.54636 0.0
H765 H 0.31185 0.22585 0.56097 0.0
C766 C 0.8801 0.66948 0.76514 0.0
C767 C 0.8474 0.71962 0.75827 0.0
C768 C 0.76815 0.7143 0.77878 0.0
C769 C 0.80415 0.66804 0.78632 0.0
N770 N 0.90059 0.61084 0.78838 0.0
N771 N 0.76434 0.79495 0.75917 0.0
C772 C 0.86186 0.6482 0.77997 0.0
C773 C 0.79233 0.74345 0.76523 0.0
N774 N 0.92732 0.6405 0.75725 0.0
N775 N 0.71018 0.72889 0.78429 0.0
H776 H 0.78037 0.81661 0.74914 0.0
H777 H 0.72801 0.81869 0.76459 0.0
H778 H 0.69161 0.70905 0.79428 0.0
H779 H 0.67881 0.75725 0.77843 0.0
H780 H 0.94805 0.59936 0.76093 0.0
H781 H 0.94167 0.65377 0.7462 0.0
H782 H 0.94613 0.60036 0.78509 0.0
H783 H 0.88956 0.59537 0.79946 0.0
loop_
_geom_bond_atom_site_label_1
_geom_bond_atom_site_label_2
_geom_bond_distance
_geom_bond_site_symmetry_2
_ccdc_geom_bond_type
Mg0 O7 2.141 . S
Mg0 O8 2.048 . S
Mg0 O9 2.048 . S
Mg0 O12 2.141 . S
C1 O2 1.313 . S
C1 O8 1.195 . S
O2 C1 1.313 . S
C3 O4 1.245 . S
C3 O12 1.289 . S
O4 C3 1.245 . S
C5 O6 1.245 . S
C5 O7 1.289 . S
O6 C5 1.245 . S
O7 Mg0 2.141 . S
O7 C5 1.289 . S
O8 Mg0 2.048 . S
O8 C1 1.195 . S
O9 Mg0 2.048 . S
O9 C10 1.195 . S
C10 O9 1.195 . S
C10 O11 1.313 . S
O11 C10 1.313 . S
O12 Mg0 2.141 . S
O12 C3 1.289 . S
Mg13 O20 2.141 . S
Mg13 O21 2.048 . S
Mg13 O22 2.048 . S
Mg13 O25 2.141 . S
C14 O15 1.313 . S
C14 O21 1.195 . S
O15 C14 1.313 . S
C16 O17 1.245 . S
C16 O25 1.289 . S
O17 C16 1.245 . S
C18 O19 1.245 . S
C18 O20 1.289 . S
O19 C18 1.245 . S
O20 Mg13 2.141 . S
O20 C18 1.289 . S
O21 Mg13 2.048 . S
O21 C14 1.195 . S
O22 Mg13 2.048 . S
O22 C23 1.195 . S
C23 O22 1.195 . S
C23 O24 1.313 . S
O24 C23 1.313 . S
O25 Mg13 2.141 . S
O25 C16 1.289 . S
Mg26 O33 2.141 . S
Mg26 O34 2.048 . S
Mg26 O35 2.048 . S
Mg26 O38 2.141 . S
C27 O28 1.313 . S
C27 O34 1.195 . S
O28 C27 1.313 . S
C29 O30 1.245 . S
C29 O38 1.289 . S
O30 C29 1.245 . S
C31 O32 1.245 . S
C31 O33 1.289 . S
O32 C31 1.245 . S
O33 Mg26 2.141 . S
O33 C31 1.289 . S
O34 Mg26 2.048 . S
O34 C27 1.195 . S
O35 Mg26 2.048 . S
O35 C36 1.195 . S
C36 O35 1.195 . S
C36 O37 1.313 . S
O37 C36 1.313 . S
O38 Mg26 2.141 . S
O38 C29 1.289 . S
Mg39 O46 2.141 . S
Mg39 O47 2.048 . S
Mg39 O48 2.048 . S
Mg39 O51 2.141 . S
C40 O41 1.313 . S
C40 O47 1.195 . S
O41 C40 1.313 . S
C42 O43 1.245 . S
C42 O51 1.289 . S
O43 C42 1.245 . S
C44 O45 1.245 . S
C44 O46 1.289 . S
O45 C44 1.245 . S
O46 Mg39 2.141 . S
O46 C44 1.289 . S
O47 Mg39 2.048 . S
O47 C40 1.195 . S
O48 Mg39 2.048 . S
O48 C49 1.195 . S
C49 O48 1.195 . S
C49 O50 1.313 . S
O50 C49 1.313 . S
O51 Mg39 2.141 . S
O51 C42 1.289 . S
Mg52 O59 2.141 . S
Mg52 O60 2.048 . S
Mg52 O61 2.048 . S
Mg52 O64 2.141 . S
C53 O54 1.313 . S
C53 O60 1.195 . S
O54 C53 1.313 . S
C55 O56 1.245 . S
C55 O64 1.289 . S
O56 C55 1.245 . S
C57 O58 1.245 . S
C57 O59 1.289 . S
O58 C57 1.245 . S
O59 Mg52 2.141 . S
O59 C57 1.289 . S
O60 Mg52 2.048 . S
O60 C53 1.195 . S
O61 Mg52 2.048 . S
O61 C62 1.195 . S
C62 O61 1.195 . S
C62 O63 1.313 . S
O63 C62 1.313 . S
O64 Mg52 2.141 . S
O64 C55 1.289 . S
Mg65 O72 2.141 . S
Mg65 O73 2.048 . S
Mg65 O74 2.048 . S
Mg65 O77 2.141 . S
C66 O67 1.313 . S
C66 O73 1.195 . S
O67 C66 1.313 . S
C68 O69 1.245 . S
C68 O77 1.289 . S
O69 C68 1.245 . S
C70 O71 1.245 . S
C70 O72 1.289 . S
O71 C70 1.245 . S
O72 Mg65 2.141 . S
O72 C70 1.289 . S
O73 Mg65 2.048 . S
O73 C66 1.195 . S
O74 Mg65 2.048 . S
O74 C75 1.195 . S
C75 O74 1.195 . S
C75 O76 1.313 . S
O76 C75 1.313 . S
O77 Mg65 2.141 . S
O77 C68 1.289 . S
Mg78 O85 2.141 . S
Mg78 O86 2.048 . S
Mg78 O87 2.048 . S
Mg78 O90 2.141 . S
C79 O80 1.313 . S
C79 O86 1.195 . S
O80 C79 1.313 . S
C81 O82 1.245 . S
C81 O90 1.289 . S
O82 C81 1.245 . S
C83 O84 1.245 . S
C83 O85 1.289 . S
O84 C83 1.245 . S
O85 Mg78 2.141 . S
O85 C83 1.289 . S
O86 Mg78 2.048 . S
O86 C79 1.195 . S
O87 Mg78 2.048 . S
O87 C88 1.195 . S
C88 O87 1.195 . S
C88 O89 1.313 . S
O89 C88 1.313 . S
O90 Mg78 2.141 . S
O90 C81 1.289 . S
Mg91 O98 2.141 . S
Mg91 O99 2.048 . S
Mg91 O100 2.048 . S
Mg91 O103 2.141 . S
C92 O93 1.313 . S
C92 O99 1.195 . S
O93 C92 1.313 . S
C94 O95 1.245 . S
C94 O103 1.289 . S
O95 C94 1.245 . S
C96 O97 1.245 . S
C96 O98 1.289 . S
O97 C96 1.245 . S
O98 Mg91 2.141 . S
O98 C96 1.289 . S
O99 Mg91 2.048 . S
O99 C92 1.195 . S
O100 Mg91 2.048 . S
O100 C101 1.195 . S
C101 O100 1.195 . S
C101 O102 1.313 . S
O102 C101 1.313 . S
O103 Mg91 2.141 . S
O103 C94 1.289 . S
Mg104 O111 2.141 . S
Mg104 O112 2.048 . S
Mg104 O113 2.048 . S
Mg104 O116 2.141 . S
C105 O106 1.313 . S
C105 O112 1.195 . S
O106 C105 1.313 . S
C107 O108 1.245 . S
C107 O116 1.289 . S
O108 C107 1.245 . S
C109 O110 1.245 . S
C109 O111 1.289 . S
O110 C109 1.245 . S
O111 Mg104 2.141 . S
O111 C109 1.289 . S
O112 Mg104 2.048 . S
O112 C105 1.195 . S
O113 Mg104 2.048 . S
O113 C114 1.195 . S
C114 O113 1.195 . S
C114 O115 1.313 . S
O115 C114 1.313 . S
O116 Mg104 2.141 . S
O116 C107 1.289 . S
Mg117 O124 2.141 . S
Mg117 O125 2.048 . S
Mg117 O126 2.048 . S
Mg117 O129 2.141 . S
C118 O119 1.313 . S
C118 O125 1.195 . S
O119 C118 1.313 . S
C120 O121 1.245 . S
C120 O129 1.289 . S
O121 C120 1.245 . S
C122 O123 1.245 . S
C122 O124 1.289 . S
O123 C122 1.245 . S
O124 Mg117 2.141 . S
O124 C122 1.289 . S
O125 Mg117 2.048 . S
O125 C118 1.195 . S
O126 Mg117 2.048 . S
O126 C127 1.195 . S
C127 O126 1.195 . S
C127 O128 1.313 . S
O128 C127 1.313 . S
O129 Mg117 2.141 . S
O129 C120 1.289 . S
Mg130 O137 2.141 . S
Mg130 O138 2.048 . S
Mg130 O139 2.048 . S
Mg130 O142 2.141 . S
C131 O132 1.313 . S
C131 O138 1.195 . S
O132 C131 1.313 . S
C133 O134 1.245 . S
C133 O142 1.289 . S
O134 C133 1.245 . S
C135 O136 1.245 . S
C135 O137 1.289 . S
O136 C135 1.245 . S
O137 Mg130 2.141 . S
O137 C135 1.289 . S
O138 Mg130 2.048 . S
O138 C131 1.195 . S
O139 Mg130 2.048 . S
O139 C140 1.195 . S
C140 O139 1.195 . S
C140 O141 1.313 . S
O141 C140 1.313 . S
O142 Mg130 2.141 . S
O142 C133 1.289 . S
Mg143 O150 2.141 . S
Mg143 O151 2.048 . S
Mg143 O152 2.048 . S
Mg143 O155 2.141 . S
C144 O145 1.313 . S
C144 O151 1.195 . S
O145 C144 1.313 . S
C146 O147 1.245 . S
C146 O155 1.289 . S
O147 C146 1.245 . S
C148 O149 1.245 . S
C148 O150 1.289 . S
O149 C148 1.245 . S
O150 Mg143 2.141 . S
O150 C148 1.289 . S
O151 Mg143 2.048 . S
O151 C144 1.195 . S
O152 Mg143 2.048 . S
O152 C153 1.195 . S
C153 O152 1.195 . S
C153 O154 1.313 . S
O154 C153 1.313 . S
O155 Mg143 2.141 . S
O155 C146 1.289 . S
Mg156 O163 2.141 . S
Mg156 O164 2.048 . S
Mg156 O165 2.048 . S
Mg156 O168 2.141 . S
C157 O158 1.313 . S
C157 O164 1.195 . S
O158 C157 1.313 . S
C159 O160 1.245 . S
C159 O168 1.289 . S
O160 C159 1.245 . S
C161 O162 1.245 . S
C161 O163 1.289 . S
O162 C161 1.245 . S
O163 Mg156 2.141 . S
O163 C161 1.289 . S
O164 Mg156 2.048 . S
O164 C157 1.195 . S
O165 Mg156 2.048 . S
O165 C166 1.195 . S
C166 O165 1.195 . S
C166 O167 1.313 . S
O167 C166 1.313 . S
O168 Mg156 2.141 . S
O168 C159 1.289 . S
Mg169 O176 2.141 . S
Mg169 O177 2.048 . S
Mg169 O178 2.048 . S
Mg169 O181 2.141 . S
C170 O171 1.313 . S
C170 O177 1.195 . S
O171 C170 1.313 . S
C172 O173 1.245 . S
C172 O181 1.289 . S
O173 C172 1.245 . S
C174 O175 1.245 . S
C174 O176 1.289 . S
O175 C174 1.245 . S
O176 Mg169 2.141 . S
O176 C174 1.289 . S
O177 Mg169 2.048 . S
O177 C170 1.195 . S
O178 Mg169 2.048 . S
O178 C179 1.195 . S
C179 O178 1.195 . S
C179 O180 1.313 . S
O180 C179 1.313 . S
O181 Mg169 2.141 . S
O181 C172 1.289 . S
Mg182 O189 2.141 . S
Mg182 O190 2.048 . S
Mg182 O191 2.048 . S
Mg182 O194 2.141 . S
C183 O184 1.313 . S
C183 O190 1.195 . S
O184 C183 1.313 . S
C185 O186 1.245 . S
C185 O194 1.289 . S
O186 C185 1.245 . S
C187 O188 1.245 . S
C187 O189 1.289 . S
O188 C187 1.245 . S
O189 Mg182 2.141 . S
O189 C187 1.289 . S
O190 Mg182 2.048 . S
O190 C183 1.195 . S
O191 Mg182 2.048 . S
O191 C192 1.195 . S
C192 O191 1.195 . S
C192 O193 1.313 . S
O193 C192 1.313 . S
O194 Mg182 2.141 . S
O194 C185 1.289 . S
Mg195 O202 2.141 . S
Mg195 O203 2.048 . S
Mg195 O204 2.048 . S
Mg195 O207 2.141 . S
C196 O197 1.313 . S
C196 O203 1.195 . S
O197 C196 1.313 . S
C198 O199 1.245 . S
C198 O207 1.289 . S
O199 C198 1.245 . S
C200 O201 1.245 . S
C200 O202 1.289 . S
O201 C200 1.245 . S
O202 Mg195 2.141 . S
O202 C200 1.289 . S
O203 Mg195 2.048 . S
O203 C196 1.195 . S
O204 Mg195 2.048 . S
O204 C205 1.195 . S
C205 O204 1.195 . S
C205 O206 1.313 . S
O206 C205 1.313 . S
O207 Mg195 2.141 . S
O207 C198 1.289 . S
C208 C209 1.363 1_455 S
C208 C214 1.379 1_565 S
C208 N216 1.356 1_455 S
C209 C208 1.363 1_655 S
C209 C215 1.363 . S
C210 C211 1.363 1_655 S
C210 C215 1.379 1_545 S
C210 N217 1.356 1_655 S
C211 C210 1.363 1_455 S
C211 C214 1.363 . S
N212 C214 1.356 . S
N212 H224 0.984 1_545 S
N212 H225 0.985 . S
N213 C215 1.356 . S
N213 H218 0.984 . S
N213 H219 0.985 1_565 S
C214 C208 1.379 1_545 S
C214 C211 1.363 . S
C214 N212 1.356 . S
C215 C209 1.363 . S
C215 C210 1.379 1_565 S
C215 N213 1.356 . S
N216 C208 1.356 1_655 S
N216 H222 0.984 1_655 S
N216 H223 0.984 . S
N217 C210 1.356 1_455 S
N217 H220 0.984 . S
N217 H221 0.985 1_455 S
H218 N213 0.984 . S
H219 N213 0.985 1_545 S
H220 N217 0.984 . S
H221 N217 0.985 1_655 S
H222 N216 0.984 1_455 S
H223 N216 0.984 . S
H224 N212 0.984 1_565 S
H225 N212 0.985 . S
C226 C227 1.363 . S
C226 C232 1.379 1_655 S
C226 N234 1.356 . S
C227 C226 1.363 . S
C227 C233 1.363 . S
C228 C229 1.363 . S
C228 C233 1.379 1_455 S
C228 N235 1.356 . S
C229 C228 1.363 . S
C229 C232 1.363 . S
N230 C232 1.356 . S
N230 H242 0.984 1_455 S
N230 H243 0.985 . S
N231 C233 1.356 . S
N231 H236 0.984 . S
N231 H237 0.985 1_655 S
C232 C226 1.379 1_455 S
C232 C229 1.363 . S
C232 N230 1.356 . S
C233 C227 1.363 . S
C233 C228 1.379 1_655 S
C233 N231 1.356 . S
N234 C226 1.356 . S
N234 H240 0.984 . S
N234 H241 0.984 . S
N235 C228 1.356 . S
N235 H238 0.984 . S
N235 H239 0.985 . S
H236 N231 0.984 . S
H237 N231 0.985 1_455 S
H238 N235 0.984 . S
H239 N235 0.985 . S
H240 N234 0.984 . S
H241 N234 0.984 . S
H242 N230 0.984 1_655 S
H243 N230 0.985 . S
C244 C245 1.363 . S
C244 C250 1.379 . S
C244 N252 1.356 . S
C245 C244 1.363 . S
C245 C251 1.363 . S
C246 C247 1.363 . S
C246 C251 1.379 . S
C246 N253 1.356 . S
C247 C246 1.363 . S
C247 C250 1.363 . S
N248 C250 1.356 . S
N248 H260 0.984 . S
N248 H261 0.985 . S
N249 C251 1.356 . S
N249 H254 0.984 . S
N249 H255 0.985 . S
C250 C244 1.379 . S
C250 C247 1.363 . S
C250 N248 1.356 . S
C251 C245 1.363 . S
C251 C246 1.379 . S
C251 N249 1.356 . S
N252 C244 1.356 . S
N252 H258 0.984 . S
N252 H259 0.984 . S
N253 C246 1.356 . S
N253 H256 0.984 . S
N253 H257 0.985 . S
H254 N249 0.984 . S
H255 N249 0.985 . S
H256 N253 0.984 . S
H257 N253 0.985 . S
H258 N252 0.984 . S
H259 N252 0.984 . S
H260 N248 0.984 . S
H261 N248 0.985 . S
C262 C263 1.363 1_565 S
C262 C268 1.379 . S
C262 N270 1.356 1_565 S
C263 C262 1.363 1_545 S
C263 C269 1.363 . S
C264 C265 1.363 1_545 S
C264 C269 1.379 . S
C264 N271 1.356 1_545 S
C265 C264 1.363 1_565 S
C265 C268 1.363 . S
N266 C268 1.356 . S
N266 H278 0.984 . S
N266 H279 0.985 . S
N267 C269 1.356 . S
N267 H272 0.984 . S
N267 H273 0.985 . S
C268 C262 1.379 . S
C268 C265 1.363 . S
C268 N266 1.356 . S
C269 C263 1.363 . S
C269 C264 1.379 . S
C269 N267 1.356 . S
N270 C262 1.356 1_545 S
N270 H276 0.984 1_545 S
N270 H277 0.984 . S
N271 C264 1.356 1_565 S
N271 H274 0.984 . S
N271 H275 0.985 1_565 S
H272 N267 0.984 . S
H273 N267 0.985 . S
H274 N271 0.984 . S
H275 N271 0.985 1_545 S
H276 N270 0.984 1_565 S
H277 N270 0.984 . S
H278 N266 0.984 . S
H279 N266 0.985 . S
C280 C281 1.363 . S
C280 C286 1.379 . S
C280 N288 1.356 . S
C281 C280 1.363 . S
C281 C287 1.363 1_455 S
C282 C283 1.363 . S
C282 C287 1.379 . S
C282 N289 1.356 . S
C283 C282 1.363 . S
C283 C286 1.363 1_655 S
N284 C286 1.356 1_655 S
N284 H296 0.984 1_655 S
N284 H297 0.985 . S
N285 C287 1.356 1_455 S
N285 H290 0.984 . S
N285 H291 0.985 1_455 S
C286 C280 1.379 . S
C286 C283 1.363 1_455 S
C286 N284 1.356 1_455 S
C287 C281 1.363 1_655 S
C287 C282 1.379 . S
C287 N285 1.356 1_655 S
N288 C280 1.356 . S
N288 H294 0.984 . S
N288 H295 0.984 . S
N289 C282 1.356 . S
N289 H292 0.984 . S
N289 H293 0.985 . S
H290 N285 0.984 . S
H291 N285 0.985 1_655 S
H292 N289 0.984 . S
H293 N289 0.985 . S
H294 N288 0.984 . S
H295 N288 0.984 . S
H296 N284 0.984 1_455 S
H297 N284 0.985 . S
C298 C299 1.363 . S
C298 C304 1.379 . S
C298 N306 1.356 . S
C299 C298 1.363 . S
C299 C305 1.363 . S
C300 C301 1.363 . S
C300 C305 1.379 . S
C300 N307 1.356 . S
C301 C300 1.363 . S
C301 C304 1.363 . S
N302 C304 1.356 . S
N302 H314 0.984 . S
N302 H315 0.985 . S
N303 C305 1.356 . S
N303 H308 0.984 . S
N303 H309 0.985 . S
C304 C298 1.379 . S
C304 C301 1.363 . S
C304 N302 1.356 . S
C305 C299 1.363 . S
C305 C300 1.379 . S
C305 N303 1.356 . S
N306 C298 1.356 . S
N306 H312 0.984 . S
N306 H313 0.984 . S
N307 C300 1.356 . S
N307 H310 0.984 . S
N307 H311 0.985 . S
H308 N303 0.984 . S
H309 N303 0.985 . S
H310 N307 0.984 . S
H311 N307 0.985 . S
H312 N306 0.984 . S
H313 N306 0.984 . S
H314 N302 0.984 . S
H315 N302 0.985 . S
C316 C317 1.363 . S
C316 C322 1.379 1_545 S
C316 N324 1.356 . S
C317 C316 1.363 . S
C317 C323 1.363 . S
C318 C319 1.363 . S
C318 C323 1.379 1_565 S
C318 N325 1.356 . S
C319 C318 1.363 . S
C319 C322 1.363 . S
N320 C322 1.356 . S
N320 H332 0.984 1_565 S
N320 H333 0.985 . S
N321 C323 1.356 . S
N321 H326 0.984 . S
N321 H327 0.985 1_545 S
C322 C316 1.379 1_565 S
C322 C319 1.363 . S
C322 N320 1.356 . S
C323 C317 1.363 . S
C323 C318 1.379 1_545 S
C323 N321 1.356 . S
N324 C316 1.356 . S
N324 H330 0.984 . S
N324 H331 0.984 . S
N325 C318 1.356 . S
N325 H328 0.984 . S
N325 H329 0.985 . S
H326 N321 0.984 . S
H327 N321 0.985 1_565 S
H328 N325 0.984 . S
H329 N325 0.985 . S
H330 N324 0.984 . S
H331 N324 0.984 . S
H332 N320 0.984 1_545 S
H333 N320 0.985 . S
C334 C335 1.363 1_565 S
C334 C340 1.379 1_455 S
C334 N342 1.356 1_565 S
C335 C334 1.363 1_545 S
C335 C341 1.363 . S
C336 C337 1.363 1_545 S
C336 C341 1.379 1_655 S
C336 N343 1.356 1_545 S
C337 C336 1.363 1_565 S
C337 C340 1.363 . S
N338 C340 1.356 . S
N338 H350 0.984 1_655 S
N338 H351 0.985 . S
N339 C341 1.356 . S
N339 H344 0.984 . S
N339 H345 0.985 1_455 S
C340 C334 1.379 1_655 S
C340 C337 1.363 . S
C340 N338 1.356 . S
C341 C335 1.363 . S
C341 C336 1.379 1_455 S
C341 N339 1.356 . S
N342 C334 1.356 1_545 S
N342 H348 0.984 1_545 S
N342 H349 0.984 . S
N343 C336 1.356 1_565 S
N343 H346 0.984 . S
N343 H347 0.985 1_565 S
H344 N339 0.984 . S
H345 N339 0.985 1_655 S
H346 N343 0.984 . S
H347 N343 0.985 1_545 S
H348 N342 0.984 1_565 S
H349 N342 0.984 . S
H350 N338 0.984 1_455 S
H351 N338 0.985 . S
C352 C353 1.363 . S
C352 C358 1.379 1_565 S
C352 N360 1.356 . S
C353 C352 1.363 . S
C353 C359 1.363 . S
C354 C355 1.363 . S
C354 C359 1.379 1_545 S
C354 N361 1.356 . S
C355 C354 1.363 . S
C355 C358 1.363 . S
N356 C358 1.356 . S
N356 H368 0.984 . S
N356 H369 0.985 . S
N357 C359 1.356 . S
N357 H362 0.984 . S
N357 H363 0.985 . S
C358 C352 1.379 1_545 S
C358 C355 1.363 . S
C358 N356 1.356 . S
C359 C353 1.363 . S
C359 C354 1.379 1_565 S
C359 N357 1.356 . S
N360 C352 1.356 . S
N360 H366 0.980 1_565 S
N360 H367 0.984 . S
N361 C354 1.356 . S
N361 H364 0.984 . S
N361 H365 0.980 1_545 S
H362 N357 0.984 . S
H363 N357 0.985 . S
H364 N361 0.984 . S
H365 N361 0.980 1_565 S
H366 N360 0.980 1_545 S
H367 N360 0.984 . S
H368 N356 0.984 . S
H369 N356 0.985 . S
C370 C371 1.363 . S
C370 C376 1.379 1_655 S
C370 N378 1.356 . S
C371 C370 1.363 . S
C371 C377 1.363 1_565 S
C372 C373 1.363 . S
C372 C377 1.379 1_455 S
C372 N379 1.356 . S
C373 C372 1.363 . S
C373 C376 1.363 1_545 S
N374 C376 1.356 1_545 S
N374 H386 0.984 1_545 S
N374 H387 0.985 . S
N375 C377 1.356 1_565 S
N375 H380 0.984 . S
N375 H381 0.985 1_565 S
C376 C370 1.379 1_455 S
C376 C373 1.363 1_565 S
C376 N374 1.356 1_565 S
C377 C371 1.363 1_545 S
C377 C372 1.379 1_655 S
C377 N375 1.356 1_545 S
N378 C370 1.356 . S
N378 H384 0.980 1_655 S
N378 H385 0.984 . S
N379 C372 1.356 . S
N379 H382 0.984 . S
N379 H383 0.980 1_455 S
H380 N375 0.984 . S
H381 N375 0.985 1_545 S
H382 N379 0.984 . S
H383 N379 0.980 1_655 S
H384 N378 0.980 1_455 S
H385 N378 0.984 . S
H386 N374 0.984 1_565 S
H387 N374 0.985 . S
C388 C389 1.363 1_655 S
C388 C394 1.379 . S
C388 N396 1.356 1_655 S
C389 C388 1.363 1_455 S
C389 C395 1.363 . S
C390 C391 1.363 1_455 S
C390 C395 1.379 . S
C390 N397 1.356 1_455 S
C391 C390 1.363 1_655 S
C391 C394 1.363 . S
N392 C394 1.356 . S
N392 H404 0.984 . S
N392 H405 0.985 . S
N393 C395 1.356 . S
N393 H398 0.984 . S
N393 H399 0.985 . S
C394 C388 1.379 . S
C394 C391 1.363 . S
C394 N392 1.356 . S
C395 C389 1.363 . S
C395 C390 1.379 . S
C395 N393 1.356 . S
N396 C388 1.356 1_455 S
N396 H402 0.984 1_455 S
N396 H403 0.984 . S
N397 C390 1.356 1_655 S
N397 H400 0.984 . S
N397 H401 0.985 1_655 S
H398 N393 0.984 . S
H399 N393 0.985 . S
H400 N397 0.984 . S
H401 N397 0.985 1_455 S
H402 N396 0.984 1_655 S
H403 N396 0.984 . S
H404 N392 0.984 . S
H405 N392 0.985 . S
C406 C407 1.363 . S
C406 C412 1.379 . S
C406 N414 1.356 . S
C407 C406 1.363 . S
C407 C413 1.363 . S
C408 C409 1.363 . S
C408 C413 1.379 . S
C408 N415 1.356 . S
C409 C408 1.363 . S
C409 C412 1.363 . S
N410 C412 1.356 . S
N410 H422 0.984 . S
N410 H423 0.985 . S
N411 C413 1.356 . S
N411 H416 0.984 . S
N411 H417 0.985 . S
C412 C406 1.379 . S
C412 C409 1.363 . S
C412 N410 1.356 . S
C413 C407 1.363 . S
C413 C408 1.379 . S
C413 N411 1.356 . S
N414 C406 1.356 . S
N414 H420 0.984 . S
N414 H421 0.984 . S
N415 C408 1.356 . S
N415 H418 0.984 . S
N415 H419 0.985 . S
H416 N411 0.984 . S
H417 N411 0.985 . S
H418 N415 0.984 . S
H419 N415 0.985 . S
H420 N414 0.984 . S
H421 N414 0.984 . S
H422 N410 0.984 . S
H423 N410 0.985 . S
C424 C425 1.363 . S
C424 C430 1.379 . S
C424 N432 1.356 . S
C425 C424 1.363 . S
C425 C431 1.363 . S
C426 C427 1.363 . S
C426 C431 1.379 . S
C426 N433 1.356 . S
C427 C426 1.363 . S
C427 C430 1.363 . S
N428 C430 1.356 . S
N428 H440 0.984 . S
N428 H441 0.985 . S
N429 C431 1.356 . S
N429 H434 0.984 . S
N429 H435 0.985 . S
C430 C424 1.379 . S
C430 C427 1.363 . S
C430 N428 1.356 . S
C431 C425 1.363 . S
C431 C426 1.379 . S
C431 N429 1.356 . S
N432 C424 1.356 . S
N432 H438 0.984 . S
N432 H439 0.984 . S
N433 C426 1.356 . S
N433 H436 0.984 . S
N433 H437 0.985 . S
H434 N429 0.984 . S
H435 N429 0.985 . S
H436 N433 0.984 . S
H437 N433 0.985 . S
H438 N432 0.984 . S
H439 N432 0.984 . S
H440 N428 0.984 . S
H441 N428 0.985 . S
C442 C443 1.363 1_545 S
C442 C448 1.379 . S
C442 N450 1.356 1_545 S
C443 C442 1.363 1_565 S
C443 C449 1.363 . S
C444 C445 1.363 1_565 S
C444 C449 1.379 . S
C444 N451 1.356 1_565 S
C445 C444 1.363 1_545 S
C445 C448 1.363 . S
N446 C448 1.356 . S
N446 H458 0.984 . S
N446 H459 0.985 . S
N447 C449 1.356 . S
N447 H452 0.984 . S
N447 H453 0.985 . S
C448 C442 1.379 . S
C448 C445 1.363 . S
C448 N446 1.356 . S
C449 C443 1.363 . S
C449 C444 1.379 . S
C449 N447 1.356 . S
N450 C442 1.356 1_565 S
N450 H456 0.984 1_565 S
N450 H457 0.984 . S
N451 C444 1.356 1_545 S
N451 H454 0.984 . S
N451 H455 0.985 1_545 S
H452 N447 0.984 . S
H453 N447 0.985 . S
H454 N451 0.984 . S
H455 N451 0.985 1_565 S
H456 N450 0.984 1_545 S
H457 N450 0.984 . S
H458 N446 0.984 . S
H459 N446 0.985 . S
C460 C461 1.363 1_455 S
C460 C466 1.379 1_565 S
C460 N468 1.356 1_455 S
C461 C460 1.363 1_655 S
C461 C467 1.363 . S
C462 C463 1.363 1_655 S
C462 C467 1.379 1_545 S
C462 N469 1.356 1_655 S
C463 C462 1.363 1_455 S
C463 C466 1.363 . S
N464 C466 1.356 . S
N464 H476 0.980 1_545 S
N464 H477 0.985 . S
N465 C467 1.356 . S
N465 H470 0.984 . S
N465 H471 0.980 1_565 S
C466 C460 1.379 1_545 S
C466 C463 1.363 . S
C466 N464 1.356 . S
C467 C461 1.363 . S
C467 C462 1.379 1_565 S
C467 N465 1.356 . S
N468 C460 1.356 1_655 S
N468 H474 0.984 1_655 S
N468 H475 0.984 . S
N469 C462 1.356 1_455 S
N469 H472 0.984 . S
N469 H473 0.985 1_455 S
H470 N465 0.984 . S
H471 N465 0.980 1_545 S
H472 N469 0.984 . S
H473 N469 0.985 1_655 S
H474 N468 0.984 1_455 S
H475 N468 0.984 . S
H476 N464 0.980 1_565 S
H477 N464 0.985 . S
C478 C479 1.363 . S
C478 C484 1.379 1_455 S
C478 N486 1.356 . S
C479 C478 1.363 . S
C479 C485 1.363 . S
C480 C481 1.363 . S
C480 C485 1.379 1_655 S
C480 N487 1.356 . S
C481 C480 1.363 . S
C481 C484 1.363 . S
N482 C484 1.356 . S
N482 H494 0.980 1_655 S
N482 H495 0.985 . S
N483 C485 1.356 . S
N483 H488 0.984 . S
N483 H489 0.980 1_455 S
C484 C478 1.379 1_655 S
C484 C481 1.363 . S
C484 N482 1.356 . S
C485 C479 1.363 . S
C485 C480 1.379 1_455 S
C485 N483 1.356 . S
N486 C478 1.356 . S
N486 H492 0.984 . S
N486 H493 0.984 . S
N487 C480 1.356 . S
N487 H490 0.984 . S
N487 H491 0.985 . S
H488 N483 0.984 . S
H489 N483 0.980 1_655 S
H490 N487 0.984 . S
H491 N487 0.985 . S
H492 N486 0.984 . S
H493 N486 0.984 . S
H494 N482 0.980 1_455 S
H495 N482 0.985 . S
C496 C497 1.363 . S
C496 C502 1.379 . S
C496 N504 1.356 1_545 S
C497 C496 1.363 . S
C497 C503 1.363 . S
C498 C499 1.363 . S
C498 C503 1.379 . S
C498 N505 1.356 . S
C499 C498 1.363 . S
C499 C502 1.363 . S
N500 C502 1.356 1_565 S
N500 H512 0.984 . S
N500 H513 0.985 1_565 S
N501 C503 1.356 . S
N501 H506 0.984 . S
N501 H507 0.985 . S
C502 C496 1.379 . S
C502 C499 1.363 . S
C502 N500 1.356 1_545 S
C503 C497 1.363 . S
C503 C498 1.379 . S
C503 N501 1.356 . S
N504 C496 1.356 1_565 S
N504 H510 0.984 . S
N504 H511 0.984 1_565 S
N505 C498 1.356 . S
N505 H508 0.984 . S
N505 H509 0.985 . S
H506 N501 0.984 . S
H507 N501 0.985 . S
H508 N505 0.984 . S
H509 N505 0.985 . S
H510 N504 0.984 . S
H511 N504 0.984 1_545 S
H512 N500 0.984 . S
H513 N500 0.985 1_545 S
C514 C515 1.363 . S
C514 C520 1.379 . S
C514 N522 1.356 . S
C515 C514 1.363 . S
C515 C521 1.363 . S
C516 C517 1.363 . S
C516 C521 1.379 . S
C516 N523 1.356 . S
C517 C516 1.363 . S
C517 C520 1.363 . S
N518 C520 1.356 . S
N518 H530 0.984 1_655 S
N518 H531 0.985 . S
N519 C521 1.356 . S
N519 H524 0.984 . S
N519 H525 0.985 . S
C520 C514 1.379 . S
C520 C517 1.363 . S
C520 N518 1.356 . S
C521 C515 1.363 . S
C521 C516 1.379 . S
C521 N519 1.356 . S
N522 C514 1.356 . S
N522 H528 0.984 1_655 S
N522 H529 0.984 . S
N523 C516 1.356 . S
N523 H526 0.984 . S
N523 H527 0.985 . S
H524 N519 0.984 . S
H525 N519 0.985 . S
H526 N523 0.984 . S
H527 N523 0.985 . S
H528 N522 0.984 1_455 S
H529 N522 0.984 . S
H530 N518 0.984 1_455 S
H531 N518 0.985 . S
C532 C533 1.363 . S
C532 C538 1.379 . S
C532 N540 1.356 . S
C533 C532 1.363 . S
C533 C539 1.363 . S
C534 C535 1.363 . S
C534 C539 1.379 . S
C534 N541 1.356 . S
C535 C534 1.363 . S
C535 C538 1.363 . S
N536 C538 1.356 . S
N536 H548 0.984 . S
N536 H549 0.985 . S
N537 C539 1.356 . S
N537 H542 0.984 . S
N537 H543 0.985 . S
C538 C532 1.379 . S
C538 C535 1.363 . S
C538 N536 1.356 . S
C539 C533 1.363 . S
C539 C534 1.379 . S
C539 N537 1.356 . S
N540 C532 1.356 . S
N540 H546 0.984 . S
N540 H547 0.984 . S
N541 C534 1.356 . S
N541 H544 0.984 . S
N541 H545 0.985 . S
H542 N537 0.984 . S
H543 N537 0.985 . S
H544 N541 0.984 . S
H545 N541 0.985 . S
H546 N540 0.984 . S
H547 N540 0.984 . S
H548 N536 0.984 . S
H549 N536 0.985 . S
C550 C551 1.363 . S
C550 C556 1.379 . S
C550 N558 1.356 . S
C551 C550 1.363 . S
C551 C557 1.363 . S
C552 C553 1.363 . S
C552 C557 1.379 . S
C552 N559 1.356 . S
C553 C552 1.363 . S
C553 C556 1.363 . S
N554 C556 1.356 . S
N554 H566 0.984 . S
N554 H567 0.985 . S
N555 C557 1.356 . S
N555 H560 0.984 . S
N555 H561 0.985 . S
C556 C550 1.379 . S
C556 C553 1.363 . S
C556 N554 1.356 . S
C557 C551 1.363 . S
C557 C552 1.379 . S
C557 N555 1.356 . S
N558 C550 1.356 . S
N558 H564 0.984 . S
N558 H565 0.984 . S
N559 C552 1.356 . S
N559 H562 0.984 . S
N559 H563 0.985 . S
H560 N555 0.984 . S
H561 N555 0.985 . S
H562 N559 0.984 . S
H563 N559 0.985 . S
H564 N558 0.984 . S
H565 N558 0.984 . S
H566 N554 0.984 . S
H567 N554 0.985 . S
C568 C569 1.363 . S
C568 C574 1.379 . S
C568 N576 1.356 . S
C569 C568 1.363 . S
C569 C575 1.363 . S
C570 C571 1.363 . S
C570 C575 1.379 . S
C570 N577 1.356 . S
C571 C570 1.363 . S
C571 C574 1.363 . S
N572 C574 1.356 . S
N572 H584 0.984 . S
N572 H585 0.985 . S
N573 C575 1.356 . S
N573 H578 0.984 . S
N573 H579 0.985 . S
C574 C568 1.379 . S
C574 C571 1.363 . S
C574 N572 1.356 . S
C575 C569 1.363 . S
C575 C570 1.379 . S
C575 N573 1.356 . S
N576 C568 1.356 . S
N576 H582 0.984 . S
N576 H583 0.984 . S
N577 C570 1.356 . S
N577 H580 0.984 . S
N577 H581 0.985 . S
H578 N573 0.984 . S
H579 N573 0.985 . S
H580 N577 0.984 . S
H581 N577 0.985 . S
H582 N576 0.984 . S
H583 N576 0.984 . S
H584 N572 0.984 . S
H585 N572 0.985 . S
C586 C587 1.363 . S
C586 C592 1.379 . S
C586 N594 1.356 . S
C587 C586 1.363 . S
C587 C593 1.363 . S
C588 C589 1.363 . S
C588 C593 1.379 . S
C588 N595 1.356 . S
C589 C588 1.363 . S
C589 C592 1.363 . S
N590 C592 1.356 . S
N590 H602 0.984 . S
N590 H603 0.985 . S
N591 C593 1.356 . S
N591 H596 0.984 . S
N591 H597 0.985 . S
C592 C586 1.379 . S
C592 C589 1.363 . S
C592 N590 1.356 . S
C593 C587 1.363 . S
C593 C588 1.379 . S
C593 N591 1.356 . S
N594 C586 1.356 . S
N594 H600 0.984 . S
N594 H601 0.984 . S
N595 C588 1.356 . S
N595 H598 0.984 . S
N595 H599 0.985 . S
H596 N591 0.984 . S
H597 N591 0.985 . S
H598 N595 0.984 . S
H599 N595 0.985 . S
H600 N594 0.984 . S
H601 N594 0.984 . S
H602 N590 0.984 . S
H603 N590 0.985 . S
C604 C605 1.363 . S
C604 C610 1.379 . S
C604 N612 1.356 . S
C605 C604 1.363 . S
C605 C611 1.363 . S
C606 C607 1.363 . S
C606 C611 1.379 . S
C606 N613 1.356 1_565 S
C607 C606 1.363 . S
C607 C610 1.363 . S
N608 C610 1.356 . S
N608 H620 0.984 . S
N608 H621 0.985 . S
N609 C611 1.356 1_545 S
N609 H614 0.984 1_545 S
N609 H615 0.985 . S
C610 C604 1.379 . S
C610 C607 1.363 . S
C610 N608 1.356 . S
C611 C605 1.363 . S
C611 C606 1.379 . S
C611 N609 1.356 1_565 S
N612 C604 1.356 . S
N612 H618 0.984 . S
N612 H619 0.984 . S
N613 C606 1.356 1_545 S
N613 H616 0.984 1_545 S
N613 H617 0.985 . S
H614 N609 0.984 1_565 S
H615 N609 0.985 . S
H616 N613 0.984 1_565 S
H617 N613 0.985 . S
H618 N612 0.984 . S
H619 N612 0.984 . S
H620 N608 0.984 . S
H621 N608 0.985 . S
C622 C623 1.363 . S
C622 C628 1.379 . S
C622 N630 1.356 . S
C623 C622 1.363 . S
C623 C629 1.363 . S
C624 C625 1.363 . S
C624 C629 1.379 . S
C624 N631 1.356 . S
C625 C624 1.363 . S
C625 C628 1.363 . S
N626 C628 1.356 . S
N626 H638 0.984 1_455 S
N626 H639 0.985 . S
N627 C629 1.356 . S
N627 H632 0.984 . S
N627 H633 0.985 . S
C628 C622 1.379 . S
C628 C625 1.363 . S
C628 N626 1.356 . S
C629 C623 1.363 . S
C629 C624 1.379 . S
C629 N627 1.356 . S
N630 C622 1.356 . S
N630 H636 0.984 1_455 S
N630 H637 0.984 . S
N631 C624 1.356 . S
N631 H634 0.984 . S
N631 H635 0.985 . S
H632 N627 0.984 . S
H633 N627 0.985 . S
H634 N631 0.984 . S
H635 N631 0.985 . S
H636 N630 0.984 1_655 S
H637 N630 0.984 . S
H638 N626 0.984 1_655 S
H639 N626 0.985 . S
C640 C641 1.363 . S
C640 C646 1.379 . S
C640 N648 1.356 . S
C641 C640 1.363 . S
C641 C647 1.363 . S
C642 C643 1.363 . S
C642 C647 1.379 . S
C642 N649 1.356 . S
C643 C642 1.363 . S
C643 C646 1.363 . S
N644 C646 1.356 . S
N644 H656 0.984 . S
N644 H657 0.985 . S
N645 C647 1.356 . S
N645 H650 0.984 . S
N645 H651 0.985 . S
C646 C640 1.379 . S
C646 C643 1.363 . S
C646 N644 1.356 . S
C647 C641 1.363 . S
C647 C642 1.379 . S
C647 N645 1.356 . S
N648 C640 1.356 . S
N648 H654 0.984 . S
N648 H655 0.984 . S
N649 C642 1.356 . S
N649 H652 0.984 . S
N649 H653 0.985 . S
H650 N645 0.984 . S
H651 N645 0.985 . S
H652 N649 0.984 . S
H653 N649 0.985 . S
H654 N648 0.984 . S
H655 N648 0.984 . S
H656 N644 0.984 . S
H657 N644 0.985 . S
C658 C659 1.363 . S
C658 C664 1.379 . S
C658 N666 1.356 . S
C659 C658 1.363 . S
C659 C665 1.363 . S
C660 C661 1.363 . S
C660 C665 1.379 . S
C660 N667 1.356 . S
C661 C660 1.363 . S
C661 C664 1.363 . S
N662 C664 1.356 . S
N662 H674 0.984 . S
N662 H675 0.985 . S
N663 C665 1.356 . S
N663 H668 0.984 . S
N663 H669 0.985 . S
C664 C658 1.379 . S
C664 C661 1.363 . S
C664 N662 1.356 . S
C665 C659 1.363 . S
C665 C660 1.379 . S
C665 N663 1.356 . S
N666 C658 1.356 . S
N666 H672 0.984 . S
N666 H673 0.984 . S
N667 C660 1.356 . S
N667 H670 0.984 . S
N667 H671 0.985 . S
H668 N663 0.984 . S
H669 N663 0.985 . S
H670 N667 0.984 . S
H671 N667 0.985 . S
H672 N666 0.984 . S
H673 N666 0.984 . S
H674 N662 0.984 . S
H675 N662 0.985 . S
C676 C677 1.363 . S
C676 C682 1.379 . S
C676 N684 1.356 . S
C677 C676 1.363 . S
C677 C683 1.363 . S
C678 C679 1.363 . S
C678 C683 1.379 . S
C678 N685 1.356 . S
C679 C678 1.363 . S
C679 C682 1.363 . S
N680 C682 1.356 . S
N680 H692 0.984 . S
N680 H693 0.985 . S
N681 C683 1.356 . S
N681 H686 0.984 . S
N681 H687 0.985 . S
C682 C676 1.379 . S
C682 C679 1.363 . S
C682 N680 1.356 . S
C683 C677 1.363 . S
C683 C678 1.379 . S
C683 N681 1.356 . S
N684 C676 1.356 . S
N684 H690 0.984 . S
N684 H691 0.984 . S
N685 C678 1.356 . S
N685 H688 0.984 . S
N685 H689 0.985 . S
H686 N681 0.984 . S
H687 N681 0.985 . S
H688 N685 0.984 . S
H689 N685 0.985 . S
H690 N684 0.984 . S
H691 N684 0.984 . S
H692 N680 0.984 . S
H693 N680 0.985 . S
C694 C695 1.363 . S
C694 C700 1.379 1_556 S
C694 N702 1.356 . S
C695 C694 1.363 . S
C695 C701 1.363 . S
C696 C697 1.363 . S
C696 C701 1.379 1_554 S
C696 N703 1.356 . S
C697 C696 1.363 . S
C697 C700 1.363 . S
N698 C700 1.356 . S
N698 H710 0.984 . S
N698 H711 0.985 . S
N699 C701 1.356 . S
N699 H704 0.984 . S
N699 H705 0.985 . S
C700 C694 1.379 1_554 S
C700 C697 1.363 . S
C700 N698 1.356 . S
C701 C695 1.363 . S
C701 C696 1.379 1_556 S
C701 N699 1.356 . S
N702 C694 1.356 . S
N702 H708 0.984 . S
N702 H709 0.984 . S
N703 C696 1.356 . S
N703 H706 0.984 . S
N703 H707 0.985 . S
H704 N699 0.984 . S
H705 N699 0.985 . S
H706 N703 0.984 . S
H707 N703 0.985 . S
H708 N702 0.984 . S
H709 N702 0.984 . S
H710 N698 0.984 . S
H711 N698 0.985 . S
C712 C713 1.363 . S
C712 C718 1.379 . S
C712 N720 1.356 . S
C713 C712 1.363 . S
C713 C719 1.363 1_554 S
C714 C715 1.363 . S
C714 C719 1.379 . S
C714 N721 1.356 . S
C715 C714 1.363 . S
C715 C718 1.363 1_556 S
N716 C718 1.361 . S
N716 H728 1.012 . S
N716 H729 0.953 1_554 S
N717 C719 1.361 . S
N717 H722 0.954 1_556 S
N717 H723 1.011 . S
C718 C712 1.379 . S
C718 C715 1.363 1_554 S
C718 N716 1.361 . S
C719 C713 1.363 1_556 S
C719 C714 1.379 . S
C719 N717 1.361 . S
N720 C712 1.356 . S
N720 H726 0.984 . S
N720 H727 0.984 . S
N721 C714 1.356 . S
N721 H724 0.984 . S
N721 H725 0.985 . S
H722 N717 0.954 1_554 S
H723 N717 1.011 . S
H724 N721 0.984 . S
H725 N721 0.985 . S
H726 N720 0.984 . S
H727 N720 0.984 . S
H728 N716 1.012 . S
H729 N716 0.953 1_556 S
C730 C731 1.363 . S
C730 C736 1.379 . S
C730 N738 1.356 . S
C731 C730 1.363 . S
C731 C737 1.363 . S
C732 C733 1.363 . S
C732 C737 1.379 . S
C732 N739 1.356 . S
C733 C732 1.363 . S
C733 C736 1.363 . S
N734 C736 1.356 . S
N734 H746 0.984 . S
N734 H747 0.985 . S
N735 C737 1.356 . S
N735 H740 0.984 . S
N735 H741 0.985 . S
C736 C730 1.379 . S
C736 C733 1.363 . S
C736 N734 1.356 . S
C737 C731 1.363 . S
C737 C732 1.379 . S
C737 N735 1.356 . S
N738 C730 1.356 . S
N738 H744 0.984 . S
N738 H745 0.984 . S
N739 C732 1.356 . S
N739 H742 0.984 . S
N739 H743 0.985 . S
H740 N735 0.984 . S
H741 N735 0.985 . S
H742 N739 0.984 . S
H743 N739 0.985 . S
H744 N738 0.984 . S
H745 N738 0.984 . S
H746 N734 0.984 . S
H747 N734 0.985 . S
C748 C749 1.363 . S
C748 C754 1.379 . S
C748 N756 1.356 . S
C749 C748 1.363 . S
C749 C755 1.363 . S
C750 C751 1.363 . S
C750 C755 1.379 . S
C750 N757 1.356 . S
C751 C750 1.363 . S
C751 C754 1.363 . S
N752 C754 1.356 . S
N752 H764 0.984 . S
N752 H765 0.985 . S
N753 C755 1.356 . S
N753 H758 0.984 . S
N753 H759 0.985 . S
C754 C748 1.379 . S
C754 C751 1.363 . S
C754 N752 1.356 . S
C755 C749 1.363 . S
C755 C750 1.379 . S
C755 N753 1.356 . S
N756 C748 1.356 . S
N756 H762 0.984 . S
N756 H763 0.984 . S
N757 C750 1.356 . S
N757 H760 0.984 . S
N757 H761 0.985 . S
H758 N753 0.984 . S
H759 N753 0.985 . S
H760 N757 0.984 . S
H761 N757 0.985 . S
H762 N756 0.984 . S
H763 N756 0.984 . S
H764 N752 0.984 . S
H765 N752 0.985 . S
C766 C767 1.363 . S
C766 C772 1.379 . S
C766 N774 1.356 . S
C767 C766 1.363 . S
C767 C773 1.363 . S
C768 C769 1.363 . S
C768 C773 1.379 . S
C768 N775 1.356 . S
C769 C768 1.363 . S
C769 C772 1.363 . S
N770 C772 1.356 . S
N770 H782 0.984 . S
N770 H783 0.985 . S
N771 C773 1.356 . S
N771 H776 0.984 . S
N771 H777 0.985 . S
C772 C766 1.379 . S
C772 C769 1.363 . S
C772 N770 1.356 . S
C773 C767 1.363 . S
C773 C768 1.379 . S
C773 N771 1.356 . S
N774 C766 1.356 . S
N774 H780 0.984 . S
N774 H781 0.984 . S
N775 C768 1.356 . S
N775 H778 0.984 . S
N775 H779 0.985 . S
H776 N771 0.984 . S
H777 N771 0.985 . S
H778 N775 0.984 . S
H779 N775 0.985 . S
H780 N774 0.984 . S
H781 N774 0.984 . S
H782 N770 0.984 . S
H783 N770 0.985 . S
C209 C133 1.986 . S
C211 C3 1.986 . S
C227 C18 2.180 . S
C229 C148 2.180 . S
C245 C107 1.985 . S
C247 C29 1.985 . S
C263 C122 2.180 . S
C265 C44 2.180 . S
C281 C55 1.986 . S
C283 C185 1.986 . S
C299 C200 2.179 . S
C301 C70 2.179 . S
C317 C81 1.986 . S
C319 C159 1.986 . S
C335 C174 2.180 . S
C337 C96 2.180 . S
C353 C131 1.742 . S
C355 C1 1.742 . S
C371 C23 1.876 . S
C373 C153 1.876 . S
C389 C27 1.742 . S
C391 C105 1.742 . S
C407 C49 1.876 . S
C409 C127 1.876 . S
C425 C53 1.742 . S
C427 C183 1.742 . S
C443 C75 1.876 . S
C445 C205 1.876 . S
C461 C157 1.742 . S
C463 C79 1.742 . S
C479 C179 1.877 . S
C481 C101 1.877 . S
C497 C10 1.597 . S
C499 C88 1.597 . S
C515 C14 1.577 . S
C517 C92 1.577 . S
C533 C36 1.597 . S
C535 C62 1.597 . S
C551 C40 1.577 . S
C553 C66 1.577 . S
C569 C114 1.597 . S
C571 C192 1.597 . S
C587 C196 1.577 . S
C589 C118 1.577 . S
C605 C140 1.597 . S
C607 C166 1.597 . S
C623 C170 1.577 . S
C625 C144 1.577 . S
C641 C5 1.759 . S
C643 C198 1.680 . S
C659 C161 1.758 . S
C661 C16 1.680 . S
C677 C172 1.680 . S
C679 C31 1.758 . S
C695 C187 1.758 . S
C697 C42 1.680 . S
C713 C120 1.680 . S
C715 C57 1.758 . S
C731 C135 1.758 . S
C733 C68 1.680 . S
C749 C83 1.758 . S
C751 C146 1.680 . S
C767 C94 1.680 . S
C769 C109 1.759 . S
