# Generated by pormake.
# Topology rkf, (6)-cn, num edge types: 1
# Building blocks:
#     Node 0, Type 0, BuildingBlock: BETDAH_clean_sbu_0, # of connection points: 6
#     Node 1, Type 0, BuildingBlock: BETDAH_clean_sbu_0, # of connection points: 6
#     Node 2, Type 0, BuildingBlock: BETDAH_clean_sbu_0, # of connection points: 6
#     Node 3, Type 0, BuildingBlock: BETDAH_clean_sbu_0, # of connection points: 6
#     Node 4, Type 0, BuildingBlock: BETDAH_clean_sbu_0, # of connection points: 6
#     Node 5, Type 0, BuildingBlock: BETDAH_clean_sbu_0, # of connection points: 6
#     Edge 6, Type (0, 0), BuildingBlock: MIFKUJ_clean_linker_0, # of connection points: 2
#     Edge 7, Type (0, 0), BuildingBlock: MIFKUJ_clean_linker_0, # of connection points: 2
#     Edge 8, Type (0, 0), BuildingBlock: MIFKUJ_clean_linker_0, # of connection points: 2
#     Edge 9, Type (0, 0), BuildingBlock: MIFKUJ_clean_linker_0, # of connection points: 2
#     Edge 10, Type (0, 0), BuildingBlock: MIFKUJ_clean_linker_0, # of connection points: 2
#     Edge 11, Type (0, 0), BuildingBlock: MIFKUJ_clean_linker_0, # of connection points: 2
#     Edge 12, Type (0, 0), BuildingBlock: MIFKUJ_clean_linker_0, # of connection points: 2
#     Edge 13, Type (0, 0), BuildingBlock: MIFKUJ_clean_linker_0, # of connection points: 2
#     Edge 14, Type (0, 0), BuildingBlock: MIFKUJ_clean_linker_0, # of connection points: 2
#     Edge 15, Type (0, 0), BuildingBlock: MIFKUJ_clean_linker_0, # of connection points: 2
#     Edge 16, Type (0, 0), BuildingBlock: MIFKUJ_clean_linker_0, # of connection points: 2
#     Edge 17, Type (0, 0), BuildingBlock: MIFKUJ_clean_linker_0, # of connection points: 2
#     Edge 18, Type (0, 0), BuildingBlock: MIFKUJ_clean_linker_0, # of connection points: 2
#     Edge 19, Type (0, 0), BuildingBlock: MIFKUJ_clean_linker_0, # of connection points: 2
#     Edge 20, Type (0, 0), BuildingBlock: MIFKUJ_clean_linker_0, # of connection points: 2
#     Edge 21, Type (0, 0), BuildingBlock: MIFKUJ_clean_linker_0, # of connection points: 2
#     Edge 22, Type (0, 0), BuildingBlock: MIFKUJ_clean_linker_0, # of connection points: 2
#     Edge 23, Type (0, 0), BuildingBlock: MIFKUJ_clean_linker_0, # of connection points: 2
# Relax obj value: 0.533
# Max RMSD: 0.247
# Mean RMSD: 0.247
data_MOF--net-rkf--node1-BETDAH_clean_sbu_0--edge1-MIFKUJ_clean_linker_0
_symmetry_space_group_name_H-M    P1
_symmetry_Int_Tables_number       1
_symmetry_cell_setting            triclinic
loop_
_symmetry_equiv_pos_as_xyz
'x, y, z'
_cell_length_a     31.689532
_cell_length_b     31.66181
_cell_length_c     60.664167
_cell_angle_alpha  89.890808
_cell_angle_beta   90.214163
_cell_angle_gamma 119.93434
loop_
_atom_site_label
_atom_site_type_symbol
_atom_site_fract_x
_atom_site_fract_y
_atom_site_fract_z
_atom_type_partial_charge
Ho0 Ho 0.24718 0.06436 0.08929 0.0
Ho1 Ho 0.3123 0.16676 0.0785 0.0
C2 C 0.28018 0.14366 0.13081 0.0
C3 C 0.21311 0.97531 0.10212 0.0
C4 C 0.22055 0.94973 0.12045 0.0
C5 C 0.19947 0.89899 0.11954 0.0
C6 C 0.20594 0.87387 0.13695 0.0
C7 C 0.23369 0.89929 0.15548 0.0
C8 C 0.25599 0.95045 0.15597 0.0
C9 C 0.24954 0.97551 0.13854 0.0
C10 C 0.19938 0.11049 0.07586 0.0
C11 C 0.25785 0.08644 1.03656 0.0
C12 C 0.35967 0.25655 1.06534 0.0
C13 C 0.36092 0.28697 1.04692 0.0
C14 C 0.3367 0.26628 1.02709 0.0
C15 C 0.33416 0.29582 1.01065 0.0
C16 C 0.3565 0.34662 1.01368 0.0
C17 C 0.38234 0.36721 1.03331 0.0
C18 C 0.38426 0.33752 1.04984 0.0
C19 C 0.36063 0.12107 0.09316 0.0
O20 O 0.262 0.09707 0.12482 0.0
O21 O 0.29939 0.17785 0.11517 0.0
O22 O 0.19252 0.00118 0.10683 0.0
O23 O 0.25034 -0.00203 0.08895 0.0
O24 O 0.18434 0.06483 1.07213 0.0
O25 O 0.23663 0.12815 0.08789 0.0
O26 O 0.28507 0.13303 1.04304 0.0
O27 O 0.2412 0.05193 1.05191 0.0
O28 O 0.37363 0.22487 1.06134 0.0
O29 O 0.32061 0.23864 0.0775 0.0
O30 O 0.36965 0.16388 0.09922 0.0
O31 O 0.32523 0.10394 0.07972 0.0
H32 H 0.17754 0.87875 0.10548 0.0
H33 H 0.18849 0.83451 0.13612 0.0
H34 H 0.2768 0.97098 0.17021 0.0
H35 H 0.26647 0.01483 0.13933 0.0
H36 H 0.31897 0.22731 1.02448 0.0
H37 H 0.31344 0.2786 0.99587 0.0
H38 H 0.40071 0.4062 1.03602 0.0
H39 H 0.40328 0.35398 1.06509 0.0
Ho40 Ho 0.24964 0.25882 0.42154 0.0
Ho41 Ho 0.23856 0.34094 0.41171 0.0
C42 C 0.2215 0.29859 0.46441 0.0
C43 C 0.28357 0.19978 0.42381 0.0
C44 C 0.31255 0.18672 0.43821 0.0
C45 C 0.35717 0.22222 0.44725 0.0
C46 C 0.38376 0.20838 0.4609 0.0
C47 C 0.36595 0.15893 0.46589 0.0
C48 C 0.3218 0.1236 0.4563 0.0
C49 C 0.29555 0.13741 0.44252 0.0
C50 C 0.15689 0.23577 0.40958 0.0
C51 C 0.25441 0.2867 0.36851 0.0
C52 C 0.20643 0.40133 0.40741 0.0
C53 C 0.17417 0.40827 0.39209 0.0
C54 C 0.12486 0.37249 0.38981 0.0
C55 C 0.09514 0.37888 0.37478 0.0
C56 C 0.11413 0.42094 0.36163 0.0
C57 C 0.1631 0.45723 0.36425 0.0
C58 C 0.1928 0.45106 0.37947 0.0
C59 C 0.33296 0.36836 0.4188 0.0
O60 O 0.2407 0.2719 0.45784 0.0
O61 O 0.21497 0.32565 0.44915 0.0
O62 O 0.24011 0.18842 0.43072 0.0
O63 O 0.30649 0.2426 0.41441 0.0
O64 O 0.16668 0.2118 0.42414 0.0
O65 O 0.19636 0.26699 0.4016 0.0
O66 O 0.23536 0.31402 0.37526 0.0
O67 O 0.26788 0.2663 0.38416 0.0
O68 O 0.24832 0.40979 0.39962 0.0
O69 O 0.18589 0.36248 0.41985 0.0
O70 O 0.31697 0.38501 0.40345 0.0
O71 O 0.29756 0.33748 0.43043 0.0
H72 H 0.37125 0.2606 0.44398 0.0
H73 H 0.41777 0.23644 0.46789 0.0
H74 H 0.30633 0.08528 0.46013 0.0
H75 H 0.26139 0.10954 0.43553 0.0
H76 H 0.10929 0.33905 0.39928 0.0
H77 H 0.05777 0.34989 0.37279 0.0
H78 H 0.17857 0.48996 0.35427 0.0
H79 H 0.23058 0.47932 0.38111 0.0
Ho80 Ho 0.09534 0.30157 0.75782 0.0
Ho81 Ho -0.00839 0.2309 0.74628 0.0
C82 C 0.01843 0.23798 0.79912 0.0
C83 C 0.17221 0.3808 0.7701 0.0
C84 C 0.18834 0.41388 0.78897 0.0
C85 C 0.23294 0.45746 0.78797 0.0
C86 C 0.25094 0.48739 0.80652 0.0
C87 C 0.22458 0.47391 0.82635 0.0
C88 C 0.1782 0.43172 0.82672 0.0
C89 C 0.16025 0.4019 0.80816 0.0
C90 C 0.08308 0.21569 0.74518 0.0
C91 C 0.07234 0.27803 0.70477 0.0
C92 C 0.9066 0.1622 0.73407 0.0
C93 C 0.87842 0.12788 0.71644 0.0
C94 C 0.83158 0.11979 0.71191 0.0
C95 C 0.80178 0.08445 0.69666 0.0
C96 C 0.81834 0.05648 0.68568 0.0
C97 C 0.86562 0.06504 0.69005 0.0
C98 C 0.89546 0.10048 0.70534 0.0
C99 C 0.01094 0.32205 0.75748 0.0
O100 O 0.06216 0.27514 0.7932 0.0
O101 O -0.01436 0.21368 0.78342 0.0
O102 O 0.16592 0.33721 0.77366 0.0
O103 O 0.13724 0.38009 0.75834 0.0
O104 O 0.12354 0.25664 0.74298 0.0
O105 O 0.05251 0.22128 0.75636 0.0
O106 O 0.02694 0.24611 0.71128 0.0
O107 O 0.10495 0.30659 0.71987 0.0
O108 O 0.92209 0.20839 0.73053 0.0
O109 O 0.93807 0.15452 0.74477 0.0
O110 O 0.97266 0.28253 0.76386 0.0
O111 O 0.03591 0.31087 0.74533 0.0
H112 H 0.25461 0.46749 0.77308 0.0
H113 H 0.28644 0.51992 0.80563 0.0
H114 H 0.15703 0.41991 0.84172 0.0
H115 H 0.12537 0.36861 0.80905 0.0
H116 H 0.81764 0.14022 0.72053 0.0
H117 H 0.76541 0.07838 0.69379 0.0
H118 H 0.87962 0.04454 0.68156 0.0
H119 H 0.9314 0.10589 0.70868 0.0
Ho120 Ho 0.88919 0.09319 0.08941 0.0
Ho121 Ho 0.81802 -0.00749 0.07938 0.0
C122 C 0.85372 0.01509 0.13136 0.0
C123 C 0.93031 0.18096 0.10461 0.0
C124 C 0.92907 0.2032 0.12579 0.0
C125 C 0.88921 0.20903 0.13142 0.0
C126 C 0.88796 0.229 0.15174 0.0
C127 C 0.92643 0.2434 0.16681 0.0
C128 C 0.96654 0.23823 0.16106 0.0
C129 C 0.96793 0.21853 0.14072 0.0
C130 C 0.92942 0.04002 0.07569 0.0
C131 C 0.87395 0.07159 1.03695 0.0
C132 C 0.76564 0.90241 1.06729 0.0
C133 C 0.76407 0.867 1.05132 0.0
C134 C 0.77174 0.87744 1.02872 0.0
C135 C 0.77077 0.84272 1.01423 0.0
C136 C 0.76274 0.79756 1.02221 0.0
C137 C 0.75507 0.78733 1.04479 0.0
C138 C 0.75543 0.8217 1.0592 0.0
C139 C 0.77559 0.04361 0.09409 0.0
O140 O 0.87523 0.06164 0.12502 0.0
O141 O 0.83092 0.98075 0.11604 0.0
O142 O 0.95126 0.15431 0.10479 0.0
O143 O 0.89023 0.16143 0.09289 0.0
O144 O 0.94699 0.08583 1.07112 0.0
O145 O 0.89363 0.02585 0.08831 0.0
O146 O 0.84631 0.02513 1.04371 0.0
O147 O 0.89203 0.10636 1.05219 0.0
O148 O 0.75808 0.93712 1.06022 0.0
O149 O 0.80073 0.91769 0.08176 0.0
O150 O 0.76384 1e-05 0.1001 0.0
O151 O 0.81051 0.05872 0.08052 0.0
H152 H 0.85873 0.19787 0.12024 0.0
H153 H 0.85657 0.23248 0.1558 0.0
H154 H -0.00285 0.24991 0.17221 0.0
H155 H -0.00064 0.21507 0.13672 0.0
H156 H 0.77894 0.91238 1.02233 0.0
H157 H 0.77746 0.85158 0.99687 0.0
H158 H 0.74874 0.75273 1.05126 0.0
H159 H 0.74944 0.8131 0.07661 0.0
Ho160 Ho 0.87333 0.88714 0.42288 0.0
Ho161 Ho 0.90875 0.82111 0.41053 0.0
C162 C 0.91614 0.85498 0.4641 0.0
C163 C 0.81298 0.91796 0.4295 0.0
C164 C 0.77625 0.90743 0.44671 0.0
C165 C 0.73879 0.85946 0.45092 0.0
C166 C 0.708 0.84938 0.46898 0.0
C167 C 0.71432 0.88693 0.48332 0.0
C168 C 0.75032 0.93518 0.47838 0.0
C169 C 0.78075 0.94528 0.46021 0.0
C170 C 0.96976 0.93218 0.41258 0.0
C171 C 0.88209 0.87214 0.36873 0.0
C172 C 0.9613 0.78031 0.40542 0.0
C173 C -0.00343 0.78013 0.38975 0.0
C174 C 0.04471 0.79725 0.39676 0.0
C175 C 0.07941 0.79898 0.38213 0.0
C176 C 0.06638 0.783 0.36032 0.0
C177 C 0.01787 0.76458 0.35347 0.0
C178 C 0.98325 0.76326 0.36804 0.0
C179 C 0.81154 0.77375 0.4166 0.0
O180 O 0.89073 0.87628 0.45838 0.0
O181 O 0.92763 0.83275 0.44837 0.0
O182 O 0.85855 0.94208 0.43593 0.0
O183 O 0.8041 0.88197 0.41617 0.0
O184 O 0.9517 0.9497 0.42672 0.0
O185 O 0.93503 0.89613 0.4037 0.0
O186 O 0.90568 0.84852 0.37485 0.0
O187 O 0.86384 0.88741 0.38469 0.0
O188 O 0.91573 0.76016 0.39919 0.0
O189 O 0.9759 0.82097 0.41624 0.0
O190 O 0.83379 0.76452 0.40115 0.0
O191 O 0.84248 0.8076 0.42897 0.0
H192 H 0.73421 0.82935 0.44075 0.0
H193 H 0.68039 0.81194 0.47215 0.0
H194 H 0.75704 0.965 0.48925 0.0
H195 H 0.80929 0.98249 0.45729 0.0
H196 H 0.05566 0.80997 0.41351 0.0
H197 H 0.11652 0.81317 0.38781 0.0
H198 H 0.00705 0.75273 0.33662 0.0
H199 H 0.94638 0.74977 0.36218 0.0
Ho200 Ho 0.02926 0.86638 0.75777 0.0
Ho201 Ho 0.13377 0.90474 0.74806 0.0
C202 C 0.10978 0.91842 0.79923 0.0
C203 C 0.94123 0.81067 0.77111 0.0
C204 C 0.91745 0.77824 0.78996 0.0
C205 C 0.92748 0.74102 0.79566 0.0
C206 C 0.90489 0.7112 0.81386 0.0
C207 C 0.87222 0.7183 0.82676 0.0
C208 C 0.862 0.75529 0.8208 0.0
C209 C 0.88417 0.7847 0.80251 0.0
C210 C 0.07081 0.95465 0.73839 0.0
C211 C 0.05558 0.87018 0.70529 0.0
C212 C 0.22256 0.94381 0.73433 0.0
C213 C 0.24929 0.96243 0.71349 0.0
C214 C 0.26236 0.00919 0.70572 0.0
C215 C 0.28627 0.0255 0.68559 0.0
C216 C 0.29798 -0.00446 0.67301 0.0
C217 C 0.28631 0.94946 0.68116 0.0
C218 C 0.26238 0.93316 0.70124 0.0
C219 C 0.08654 0.81236 0.76462 0.0
O220 O 0.06319 0.88972 0.79313 0.0
O221 O 0.14434 0.93235 0.78393 0.0
O222 O 0.96588 0.85747 0.77532 0.0
O223 O 0.96346 0.79674 0.75728 0.0
O224 O 0.02447 0.92351 0.73811 0.0
O225 O 0.09081 0.94036 0.75236 0.0
O226 O 0.10206 0.89326 0.71222 0.0
O227 O 0.02014 0.85272 0.72028 0.0
O228 O 0.19272 0.89681 0.73522 0.0
O229 O 0.20448 0.96874 0.74344 0.0
O230 O 0.12924 0.84616 0.77082 0.0
O231 O 0.07093 0.82978 0.75014 0.0
H232 H 0.95308 0.73517 0.78622 0.0
H233 H 0.91338 0.68294 0.81793 0.0
H234 H 0.83806 0.76274 0.83067 0.0
H235 H 0.87597 0.81317 0.7984 0.0
H236 H 0.25388 0.03308 0.71507 0.0
H237 H 0.29548 0.06151 0.67984 0.0
H238 H 0.29443 0.92537 0.67173 0.0
H239 H 0.25346 0.89725 0.70702 0.0
H240 H 0.01279 0.03685 0.07846 0.0
H241 H 0.05022 0.02277 1.04674 0.0
H242 H 0.91534 0.96691 1.01058 0.0
H243 H 0.8751 0.96976 1.0444 0.0
H244 H 0.979 0.06786 1.00371 0.0
H245 H 0.12079 0.00449 1.02526 0.0
H246 H 0.12126 0.92694 1.02471 0.0
H247 H 0.00182 0.86717 0.9789 0.0
H248 H 0.00032 0.94426 0.97926 0.0
H249 H 0.11194 0.10497 0.07955 0.0
H250 H 0.06868 0.11289 1.04823 0.0
H251 H 0.20072 0.17595 1.00995 0.0
H252 H 0.24586 0.17902 1.04331 0.0
H253 H 0.13754 0.07321 1.00256 0.0
H254 H 0.10874 0.1969 0.97969 0.0
H255 H 0.10812 0.27418 0.98338 0.0
H256 H 0.00318 0.21243 1.03548 0.0
H257 H 0.00226 0.13445 1.03172 0.0
C258 C -0.00986 0.01777 1.06438 0.0
C259 C 0.94222 0.0084 1.06308 0.0
C260 C 0.01148 0.00968 1.04603 0.0
C261 C -0.01345 -0.00251 1.02568 0.0
C262 C 0.93596 0.97828 1.02582 0.0
C263 C 0.91346 0.98194 1.04495 0.0
C264 C 0.01543 0.02579 1.00639 0.0
C265 C 0.01357 0.06874 1.00261 0.0
C266 C 0.05957 0.02669 1.00211 0.0
C267 C 0.06102 0.98059 1.00194 0.0
C268 C 0.09502 0.97513 1.01482 0.0
C269 C 0.09525 0.93108 1.01467 0.0
C270 C 0.0619 0.89232 1.00164 0.0
C271 C 0.02781 0.8973 0.98891 0.0
C272 C 0.02712 0.94109 0.98915 0.0
C273 C 0.13246 0.12426 1.06506 0.0
C274 C 0.18158 0.13807 1.06317 0.0
C275 C 0.10772 0.12855 1.04695 0.0
C276 C 0.13085 0.14194 1.02627 0.0
C277 C 0.18169 0.1641 1.02552 0.0
C278 C 0.20721 0.16416 1.0444 0.0
C279 C 0.10092 0.11455 1.00702 0.0
C280 C 0.10279 0.07208 1.00213 0.0
C281 C 0.05674 0.114 1.00338 0.0
C282 C 0.05502 0.15971 1.0052 0.0
C283 C 0.08521 0.19971 0.99179 0.0
C284 C 0.08503 0.24358 0.99386 0.0
C285 C 0.05536 0.2481 1.00955 0.0
C286 C 0.02578 0.20872 1.02318 0.0
C287 C 0.02522 0.16451 1.02093 0.0
H288 H 0.05547 0.28218 1.01123 0.0
H289 H 0.06229 0.85834 1.0015 0.0
H290 H 0.00081 0.90177 0.37766 0.0
H291 H 0.04742 0.95459 0.34726 0.0
H292 H 0.09323 0.08002 0.38913 0.0
H293 H 0.04124 0.02776 0.41866 0.0
H294 H 0.00072 0.01008 0.33811 0.0
H295 H 0.19309 0.16857 0.36924 0.0
H296 H 0.27353 0.17769 0.37691 0.0
H297 H 0.23568 0.04887 0.33934 0.0
H298 H 0.15524 0.03932 0.33095 0.0
H299 H 0.07363 0.14591 0.4127 0.0
H300 H 0.02745 0.10087 0.38047 0.0
H301 H 0.09966 0.23156 0.34119 0.0
H302 H 0.14034 0.27802 0.3741 0.0
H303 H 0.14619 0.17437 0.34031 0.0
H304 H 0.00857 0.14434 0.30834 0.0
H305 H 0.9291 0.13624 0.29951 0.0
H306 H 0.85826 0.01244 0.34248 0.0
H307 H 0.93724 0.0197 0.35174 0.0
C308 C 0.02174 0.94065 0.38059 0.0
C309 C 0.01498 0.96115 0.39996 0.0
C310 C 0.04917 0.97063 0.36324 0.0
C311 C 0.07233 0.02121 0.36566 0.0
C312 C 0.07447 0.04093 0.38674 0.0
C313 C 0.04476 0.01113 0.40371 0.0
C314 C 0.07699 0.05197 0.34646 0.0
C315 C 0.03269 0.04613 0.33838 0.0
C316 C 0.11957 0.09759 0.34401 0.0
C317 C 0.16811 0.10354 0.3492 0.0
C318 C 0.20198 0.14248 0.36232 0.0
C319 C 0.24755 0.14758 0.36693 0.0
C320 C 0.25972 0.11395 0.35862 0.0
C321 C 0.22625 0.07496 0.34575 0.0
C322 C 0.18061 0.06964 0.34108 0.0
C323 C 0.07689 0.16572 0.39763 0.0
C324 C 0.113 0.2146 0.39545 0.0
C325 C 0.05034 0.14003 0.37904 0.0
C326 C 0.06276 0.16234 0.35806 0.0
C327 C 0.0904 0.21322 0.35701 0.0
C328 C 0.11458 0.23949 0.37587 0.0
C329 C 0.06776 0.13333 0.34018 0.0
C330 C 0.1144 0.13827 0.33945 0.0
C331 C 0.02742 0.08729 0.33541 0.0
C332 C 0.97918 0.08239 0.33056 0.0
C333 C 0.97612 0.11541 0.316 0.0
C334 C 0.93103 0.11088 0.31087 0.0
C335 C 0.88856 0.07364 0.32031 0.0
C336 C 0.89116 0.041 0.33502 0.0
C337 C 0.93616 0.04515 0.34012 0.0
H338 H 0.85366 0.07018 0.3163 0.0
H339 H 0.29506 0.11806 0.36221 0.0
H340 H 0.02724 0.9489 0.69939 0.0
H341 H 0.06256 0.98861 0.66547 0.0
H342 H 0.20412 0.06651 0.69718 0.0
H343 H 0.16773 0.02239 0.73129 0.0
H344 H 0.22817 0.12404 0.66739 0.0
H345 H 0.13611 0.00664 0.62815 0.0
H346 H 0.10419 0.96414 0.59312 0.0
H347 H 0.01581 0.03076 0.58568 0.0
H348 H 0.04813 0.0755 0.62014 0.0
H349 H 0.01715 0.16734 0.71147 0.0
H350 H 0.04422 0.14265 0.67876 0.0
H351 H 0.15298 0.13391 0.71855 0.0
H352 H 0.13175 0.16734 0.74971 0.0
H353 H 0.05979 0.09023 0.65664 0.0
H354 H 0.25736 0.16765 0.70049 0.0
H355 H 0.31552 0.24542 0.71792 0.0
H356 H 0.23563 0.31172 0.69263 0.0
H357 H 0.17746 0.23476 0.67457 0.0
C358 C 0.06605 0.97441 0.69923 0.0
C359 C 0.09455 0.98313 0.71826 0.0
C360 C 0.08682 -0.00272 0.67943 0.0
C361 C 0.13643 0.03341 0.67826 0.0
C362 C 0.16561 0.04009 0.69717 0.0
C363 C 0.14482 0.01526 0.71693 0.0
C364 C 0.15385 0.07039 0.65966 0.0
C365 C 0.19111 0.11687 0.66593 0.0
C366 C 0.11603 0.07272 0.64821 0.0
C367 C 0.09421 0.04418 0.62754 0.0
C368 C 0.10971 0.01246 0.61931 0.0
C369 C 0.09165 0.988 0.59931 0.0
C370 C 0.05767 -0.00561 0.58727 0.0
C371 C 0.04186 0.02551 0.59514 0.0
C372 C 0.06018 0.05058 0.615 0.0
C373 C 0.04732 0.16091 0.71302 0.0
C374 C 0.07482 0.17281 0.73256 0.0
C375 C 0.06265 0.14644 0.69431 0.0
C376 C 0.10379 0.14075 0.69557 0.0
C377 C 0.12405 0.14239 0.71648 0.0
C378 C 0.11056 0.1595 0.73467 0.0
C379 C 0.12607 0.13219 0.67577 0.0
C380 C 0.09694 0.09867 0.65935 0.0
C381 C 0.17682 0.1483 0.67551 0.0
C382 C 0.21301 0.19514 0.68595 0.0
C383 C 0.25248 0.19888 0.69826 0.0
C384 C 0.28542 0.24289 0.70838 0.0
C385 C 0.27935 0.28351 0.70635 0.0
C386 C 0.24035 0.28026 0.69418 0.0
C387 C 0.20735 0.2364 0.684 0.0
H388 H 0.30485 0.31749 0.71425 0.0
H389 H 0.0438 0.97544 0.57179 0.0
H390 H 0.35731 0.33836 0.96883 0.0
H391 H 0.34008 0.38396 0.94125 0.0
H392 H 0.32819 0.4718 0.99236 0.0
H393 H 0.34323 0.42495 1.02031 0.0
H394 H 0.25022 0.38888 0.94251 0.0
H395 H 0.37978 0.59012 0.96272 0.0
H396 H 0.4599 0.64239 0.98016 0.0
H397 H 0.50601 0.54101 0.9614 0.0
H398 H 0.4265 0.48857 0.94365 0.0
H399 H 0.18451 0.49503 0.86187 0.0
H400 H 0.21436 0.50457 0.8998 0.0
H401 H 0.34766 0.51527 0.8764 0.0
H402 H 0.31831 0.50539 0.83879 0.0
H403 H 0.35918 0.55936 0.91807 0.0
H404 H 0.25292 0.40159 0.87981 0.0
H405 H 0.1777 0.34771 0.85907 0.0
H406 H 0.09178 0.3582 0.91109 0.0
H407 H 0.16654 0.41196 0.93209 0.0
C408 C 0.35084 0.36719 0.97428 0.0
C409 C 0.35113 0.3776 0.99681 0.0
C410 C 0.34139 0.3934 0.95849 0.0
C411 C 0.33289 0.43101 0.96489 0.0
C412 C 0.33503 0.44301 0.98721 0.0
C413 C 0.34388 0.41634 1.00309 0.0
C414 C 0.31833 0.45493 0.9481 0.0
C415 C 0.27361 0.42646 0.93747 0.0
C416 C 0.34895 0.50387 0.94162 0.0
C417 C 0.39694 0.53511 0.95218 0.0
C418 C 0.40705 0.57903 0.96234 0.0
C419 C 0.45237 0.6087 0.97226 0.0
C420 C 0.48795 0.59491 0.97198 0.0
C421 C 0.47835 0.55152 0.96172 0.0
C422 C 0.43311 0.52175 0.95178 0.0
C423 C 0.22096 0.50135 0.86476 0.0
C424 C 0.24835 0.49783 0.8474 0.0
C425 C 0.23814 0.50727 0.88642 0.0
C426 C 0.28263 0.50932 0.89085 0.0
C427 C 0.31314 0.51359 0.87332 0.0
C428 C 0.2961 0.50776 0.85171 0.0
C429 C 0.29125 0.4931 0.91239 0.0
C430 C 0.33485 0.52259 0.92383 0.0
C431 C 0.26001 0.44469 0.91954 0.0
C432 C 0.21509 0.41088 0.9074 0.0
C433 C 0.2179 0.39217 0.88681 0.0
C434 C 0.17541 0.36166 0.87503 0.0
C435 C 0.12998 0.34962 0.88372 0.0
C436 C 0.12694 0.36754 0.90435 0.0
C437 C 0.16933 0.39791 0.91623 0.0
H438 H 0.09721 0.32655 0.87443 0.0
H439 H 0.52302 0.61792 0.97966 0.0
H440 H 0.14015 0.44401 0.31888 0.0
H441 H 0.08627 0.42989 0.28779 0.0
H442 H 0.96593 0.38927 0.33229 0.0
H443 H 0.02005 0.4022 0.36364 0.0
H444 H 0.94161 0.32104 0.30534 0.0
H445 H 0.00252 0.48688 0.29432 0.0
H446 H 0.06091 0.57496 0.29169 0.0
H447 H 0.12997 0.54988 0.23652 0.0
H448 H 0.07265 0.46161 0.23899 0.0
H449 H 0.90093 0.31246 0.17559 0.0
H450 H 0.90657 0.35195 0.21107 0.0
H451 H 0.95668 0.26174 0.24183 0.0
H452 H 0.94964 0.22141 0.20678 0.0
H453 H -0.01504 0.4064 0.23332 0.0
H454 H 0.92864 0.2409 0.29426 0.0
H455 H 0.863 0.15539 0.29737 0.0
H456 H 0.77323 0.18367 0.25366 0.0
H457 H 0.83754 0.26974 0.25078 0.0
C458 C 0.10264 0.43384 0.32209 0.0
C459 C 0.08412 0.42376 0.34361 0.0
C460 C 0.07175 0.42599 0.30427 0.0
C461 C 0.0219 0.40872 0.30763 0.0
C462 C 0.00419 0.40249 0.32928 0.0
C463 C 0.03505 0.40979 0.34714 0.0
C464 C -0.01207 0.3889 0.28863 0.0
C465 C 0.9505 0.34 0.28967 0.0
C466 C -0.00217 0.41422 0.26835 0.0
C467 C 0.03301 0.46741 0.26683 0.0
C468 C 0.03032 0.50004 0.2817 0.0
C469 C 0.06325 0.55006 0.28023 0.0
C470 C 0.09901 0.56799 0.26391 0.0
C471 C 0.10211 0.53593 0.2491 0.0
C472 C 0.0693 0.48589 0.25049 0.0
C473 C 0.91202 0.30037 0.19008 0.0
C474 C 0.92529 0.26422 0.18845 0.0
C475 C 0.91539 0.32304 0.21027 0.0
C476 C 0.93161 0.30954 0.22914 0.0
C477 C 0.94319 0.27222 0.22762 0.0
C478 C 0.93985 0.24964 0.20751 0.0
C479 C 0.9422 0.33765 0.24988 0.0
C480 C 0.97497 0.38802 0.24914 0.0
C481 C 0.9271 0.31403 0.27051 0.0
C482 C 0.88814 0.26204 0.27229 0.0
C483 C 0.89476 0.22914 0.28547 0.0
C484 C 0.85777 0.18049 0.28719 0.0
C485 C 0.81404 0.16413 0.27572 0.0
C486 C 0.80714 0.1964 0.26253 0.0
C487 C 0.84385 0.24515 0.26086 0.0
H488 H 0.78558 0.1264 0.27699 0.0
H489 H 0.12426 0.60672 0.26271 0.0
H490 H 0.76141 0.06453 0.6541 0.0
H491 H 0.71426 0.00593 0.62546 0.0
H492 H 0.7564 0.90543 0.65166 0.0
H493 H 0.80411 0.96439 0.68043 0.0
H494 H 0.77566 0.91863 0.61034 0.0
H495 H 0.63447 0.87673 0.65129 0.0
H496 H 0.57654 0.8883 0.67387 0.0
H497 H 0.55254 0.96233 0.62013 0.0
H498 H 0.61089 0.95193 0.59731 0.0
H499 H 0.69186 0.80957 0.51069 0.0
H500 H 0.67484 0.80582 0.54993 0.0
H501 H 0.66548 0.93673 0.54464 0.0
H502 H 0.67948 0.93917 0.50507 0.0
H503 H 0.61425 0.88077 0.58075 0.0
H504 H 0.77577 0.94385 0.54657 0.0
H505 H 0.83095 0.9302 0.52283 0.0
H506 H 0.81599 0.81548 0.56571 0.0
H507 H 0.75984 0.82776 0.58944 0.0
C508 C 0.75972 0.0295 0.6541 0.0
C509 C 0.78666 0.01914 0.66942 0.0
C510 C 0.73239 -0.00419 0.6378 0.0
C511 C 0.73104 0.95087 0.63662 0.0
C512 C 0.75661 0.93973 0.65237 0.0
C513 C 0.7842 0.97359 0.66864 0.0
C514 C 0.70925 0.91942 0.61703 0.0
C515 C 0.73965 0.9089 0.60429 0.0
C516 C 0.66247 0.9071 0.60895 0.0
C517 C 0.62727 0.91363 0.62258 0.0
C518 C 0.61712 0.89579 0.64431 0.0
C519 C 0.58414 0.9021 0.65716 0.0
C520 C 0.56089 0.92606 0.64845 0.0
C521 C 0.57054 0.94373 0.62686 0.0
C522 C 0.60351 0.93754 0.61394 0.0
C523 C 0.68361 0.83617 0.51754 0.0
C524 C 0.68883 0.8758 0.50486 0.0
C525 C 0.674 0.83397 0.54008 0.0
C526 C 0.67068 0.87195 0.55027 0.0
C527 C 0.66867 0.90742 0.53714 0.0
C528 C 0.67746 0.9092 0.51455 0.0
C529 C 0.68141 0.88192 0.57406 0.0
C530 C 0.64927 0.88874 0.58741 0.0
C531 C 0.72668 0.89103 0.58285 0.0
C532 C 0.76298 0.88605 0.56949 0.0
C533 C 0.78427 0.91571 0.5509 0.0
C534 C 0.81558 0.90815 0.53744 0.0
C535 C 0.82649 0.87166 0.54268 0.0
C536 C 0.80708 0.84341 0.56162 0.0
C537 C 0.77546 0.85058 0.57505 0.0
H538 H 0.84968 0.86501 0.532 0.0
H539 H 0.53537 0.9309 0.65842 0.0
H540 H 0.71375 0.76359 0.98352 0.0
H541 H 0.72496 0.71332 0.95621 0.0
H542 H 0.82763 0.70236 0.99936 0.0
H543 H 0.81619 0.75244 1.02686 0.0
H544 H 0.8643 0.74532 0.95844 0.0
H545 H 0.73091 0.59926 0.98573 0.0
H546 H 0.64774 0.54665 0.99977 0.0
H547 H 0.58813 0.55997 0.93821 0.0
H548 H 0.6709 0.61319 0.92386 0.0
H549 H 0.91797 0.69017 0.85704 0.0
H550 H 0.89235 0.66476 0.89491 0.0
H551 H 0.75715 0.66223 0.88183 0.0
H552 H 0.78082 0.68387 0.84358 0.0
H553 H 0.74385 0.60374 0.91466 0.0
H554 H 0.86391 0.77012 0.89497 0.0
H555 H 0.94187 0.83457 0.87984 0.0
H556 H 0.02024 0.79551 0.92571 0.0
H557 H 0.94255 0.73032 0.94092 0.0
C558 C 0.73789 0.74955 0.98732 0.0
C559 C 0.76447 0.76209 1.00709 0.0
C560 C 0.74381 0.72038 0.97189 0.0
C561 C 0.77671 0.70375 0.97594 0.0
C562 C 0.8016 0.71435 0.99613 0.0
C563 C 0.79517 0.743 1.01172 0.0
C564 C 0.79148 0.68384 0.95747 0.0
C565 C 0.8386 0.71323 0.94926 0.0
C566 C 0.75728 0.64288 0.94531 0.0
C567 C 0.70727 0.6103 0.95372 0.0
C568 C 0.7001 0.59117 0.97521 0.0
C569 C 0.65299 0.5612 0.98322 0.0
C570 C 0.61269 0.54997 0.96989 0.0
C571 C 0.6194 0.56862 0.9485 0.0
C572 C 0.66643 0.59859 0.9404 0.0
C573 C 0.88182 0.68198 0.86189 0.0
C574 C 0.85209 0.69076 0.84751 0.0
C575 C 0.86735 0.66769 0.88363 0.0
C576 C 0.8237 0.66343 0.89138 0.0
C577 C 0.79135 0.66599 0.87632 0.0
C578 C 0.8053 0.67921 0.85451 0.0
C579 C 0.81595 0.66658 0.91523 0.0
C580 C 0.7703 0.6343 0.92439 0.0
C581 C 0.85082 0.70618 0.92803 0.0
C582 C 0.89754 0.74489 0.9188 0.0
C583 C 0.89779 0.77504 0.90169 0.0
C584 C 0.94188 0.81171 0.89313 0.0
C585 C -0.01403 0.819 0.90175 0.0
C586 C -0.01396 0.78967 0.91899 0.0
C587 C 0.942 0.75282 0.92757 0.0
H588 H 0.02003 0.84749 0.89513 0.0
H589 H 0.57626 0.52678 0.97614 0.0
H590 H 0.06172 0.7168 0.33018 0.0
H591 H 0.1164 0.73305 0.29895 0.0
H592 H 0.2094 0.87962 0.32252 0.0
H593 H 0.15477 0.86369 0.35368 0.0
H594 H 0.16984 0.87442 0.28161 0.0
H595 H 0.25694 0.8086 0.31799 0.0
H596 H 0.26793 0.7487 0.33953 0.0
H597 H 0.19928 0.64283 0.28808 0.0
H598 H 0.187 0.70179 0.26635 0.0
H599 H 0.31116 0.91937 0.18248 0.0
H600 H 0.30568 0.89056 0.22047 0.0
H601 H 0.15208 0.79155 0.21157 0.0
H602 H 0.15696 0.82006 0.1739 0.0
H603 H 0.24346 0.78368 0.24774 0.0
H604 H 0.1125 0.85482 0.24431 0.0
H605 H 0.09449 0.90798 0.22107 0.0
H606 H 0.24669 -0.00127 0.20713 0.0
H607 H 0.26576 0.94731 0.23107 0.0
C608 C 0.09448 0.75206 0.32895 0.0
C609 C 0.10379 0.78919 0.34414 0.0
C610 C 0.12594 0.76113 0.31128 0.0
C611 C 0.16695 0.80749 0.30852 0.0
C612 C 0.17811 0.84351 0.32452 0.0
C613 C 0.14689 0.83435 0.34228 0.0
C614 C 0.19192 0.82086 0.28702 0.0
C615 C 0.18711 0.85545 0.27448 0.0
C616 C 0.21357 0.79539 0.27761 0.0
C617 C 0.22078 0.75963 0.29058 0.0
C618 C 0.24376 0.77242 0.31133 0.0
C619 C 0.25027 0.73863 0.32357 0.0
C620 C 0.23418 0.69195 0.31519 0.0
C621 C 0.21162 0.67898 0.29454 0.0
C622 C 0.20495 0.71262 0.28224 0.0
C623 C 0.27663 0.89017 0.18841 0.0
C624 C 0.23427 0.87269 0.17544 0.0
C625 C 0.27375 0.87331 0.20996 0.0
C626 C 0.22843 0.83936 0.2187 0.0
C627 C 0.18739 0.81762 0.20495 0.0
C628 C 0.19025 0.83416 0.18343 0.0
C629 C 0.22076 0.83666 0.24267 0.0
C630 C 0.22795 0.80378 0.25538 0.0
C631 C 0.201 0.8635 0.25239 0.0
C632 C 0.19048 0.89684 0.23925 0.0
C633 C 0.14217 0.88646 0.23649 0.0
C634 C 0.13179 0.91633 0.22323 0.0
C635 C 0.16944 0.95666 0.2126 0.0
C636 C 0.21757 0.96744 0.21536 0.0
C637 C 0.2282 0.93802 0.22883 0.0
H638 H 0.16134 0.9796 0.20223 0.0
H639 H 0.23929 0.66585 0.32469 0.0
H640 H 0.27367 0.04038 0.64121 0.0
H641 H 0.30559 0.0609 0.60384 0.0
H642 H 0.40204 0.00441 0.61705 0.0
H643 H 0.37136 0.98518 0.65492 0.0
H644 H 0.4462 0.09165 0.59352 0.0
H645 H 0.30159 0.93438 0.58812 0.0
H646 H 0.21544 0.87463 0.59559 0.0
H647 H 0.17103 0.96608 0.56246 0.0
H648 H 0.25684 0.02648 0.55488 0.0
H649 H 0.37648 0.07791 0.46664 0.0
H650 H 0.39102 0.04215 0.49952 0.0
H651 H 0.42351 0.17092 0.5367 0.0
H652 H 0.40741 0.206 0.50442 0.0
H653 H 0.32592 0.02581 0.53241 0.0
H654 H 0.48923 0.17938 0.58169 0.0
H655 H 0.5741 0.24309 0.57473 0.0
H656 H 0.58096 0.16181 0.51965 0.0
H657 H 0.49636 0.09719 0.52645 0.0
C658 C 0.30229 0.03311 0.63632 0.0
C659 C 0.31992 0.01102 0.65093 0.0
C660 C 0.32008 0.04433 0.61491 0.0
C661 C 0.35539 0.03319 0.60766 0.0
C662 C 0.37442 0.01276 0.62237 0.0
C663 C 0.35668 0.00159 0.64388 0.0
C664 C 0.37152 0.04257 0.58453 0.0
C665 C 0.42026 0.0769 0.58003 0.0
C666 C 0.33762 0.0221 0.56705 0.0
C667 C 0.28575 0.98499 0.57094 0.0
C668 C 0.27346 0.94175 0.58243 0.0
C669 C 0.22467 0.90775 0.58667 0.0
C670 C 0.18779 0.91654 0.57949 0.0
C671 C 0.19961 0.95922 0.56794 0.0
C672 C 0.24832 -0.00673 0.5636 0.0
C673 C 0.38794 0.0991 0.4817 0.0
C674 C 0.38941 0.14419 0.48309 0.0
C675 C 0.39676 0.07883 0.50037 0.0
C676 C 0.40805 0.1038 0.52051 0.0
C677 C 0.41541 0.15128 0.52123 0.0
C678 C 0.40607 0.17132 0.50268 0.0
C679 C 0.40016 0.07707 0.54142 0.0
C680 C 0.35259 0.03938 0.54565 0.0
C681 C 0.43505 0.09483 0.55859 0.0
C682 C 0.48627 0.13338 0.55458 0.0
C683 C 0.50891 0.17483 0.56819 0.0
C684 C 0.55698 0.2112 0.56425 0.0
C685 C 0.5829 0.20652 0.54675 0.0
C686 C 0.56081 0.16544 0.53317 0.0
C687 C 0.51275 0.12896 0.53704 0.0
H688 H 0.6201 0.23473 0.54372 0.0
H689 H 0.15009 0.89032 0.58289 0.0
H690 H 0.43847 0.15715 0.12089 0.0
H691 H 0.50838 0.14446 0.12003 0.0
H692 H 0.44318 0.04381 1.06597 0.0
H693 H 0.37218 0.05573 1.06715 0.0
H694 H 0.48682 0.01131 0.09205 0.0
H695 H 0.53685 0.16455 1.05813 0.0
H696 H 0.54902 0.24751 1.05461 0.0
H697 H 0.64252 0.29316 0.11148 0.0
H698 H 0.63035 0.21025 0.11553 0.0
H699 H 0.76321 0.10584 1.06599 0.0
H700 H 0.69303 0.11919 1.06455 0.0
H701 H 0.63336 0.02975 0.12244 0.0
H702 H 0.70234 0.01562 0.12359 0.0
H703 H 0.65208 0.15705 0.08942 0.0
H704 H 0.51126 0.96298 0.12008 0.0
H705 H 0.49889 0.87964 0.11913 0.0
H706 H 0.58657 0.91494 1.06082 0.0
H707 H 0.59888 -0.00177 1.06124 0.0
C708 C 0.43867 0.13187 0.10894 0.0
C709 C 0.3997 0.1077 0.094 0.0
C710 C 0.47904 0.12494 0.10833 0.0
C711 C 0.48214 0.09409 0.09256 0.0
C712 C 0.4422 0.06814 0.07822 0.0
C713 C 0.40144 0.07487 0.07892 0.0
C714 C 0.52725 0.08968 0.091 0.0
C715 C 0.52286 0.04326 0.0915 0.0
C716 C 0.57473 0.1311 0.08966 0.0
C717 C 0.58235 0.18107 0.08723 0.0
C718 C 0.55974 0.1922 1.06997 0.0
C719 C 0.56668 0.23922 1.06787 0.0
C720 C 0.59644 0.27555 0.08284 0.0
C721 C 0.61943 0.26496 0.09991 0.0
C722 C 0.61257 0.21797 0.10211 0.0
C723 C 0.73546 0.08968 0.07858 0.0
C724 C 0.73831 0.05937 0.09482 0.0
C725 C 0.69515 0.09716 0.07772 0.0
C726 C 0.65684 0.07451 0.09306 0.0
C727 C 0.66137 0.04663 0.11 0.0
C728 C 0.70123 0.03891 0.11076 0.0
C729 C 0.61165 0.07875 0.09125 0.0
C730 C 0.61603 0.12511 0.09003 0.0
C731 C 0.56412 0.03724 0.09139 0.0
C732 C 0.55634 0.98699 0.09082 0.0
C733 C 0.52771 0.95288 0.107 0.0
C734 C 0.52074 0.90566 0.10656 0.0
C735 C 0.54205 0.89205 0.08996 0.0
C736 C 0.57022 0.92558 1.07371 0.0
C737 C 0.57724 0.97281 1.07406 0.0
H738 H 0.53666 0.8555 0.08967 0.0
H739 H 0.60176 0.31194 0.08119 0.0
H740 H 0.37065 0.40621 0.45999 0.0
H741 H 0.45389 0.47342 0.4676 0.0
H742 H 0.49336 0.46827 0.40009 0.0
H743 H 0.41111 0.40186 0.39264 0.0
H744 H 0.56753 0.48619 0.42637 0.0
H745 H 0.45535 0.5482 0.4183 0.0
H746 H 0.38398 0.55523 0.42882 0.0
H747 H 0.44525 0.60507 0.49325 0.0
H748 H 0.51672 0.5977 0.48317 0.0
H749 H 0.74398 0.71024 0.38852 0.0
H750 H 0.66453 0.64062 0.39675 0.0
H751 H 0.68206 0.68268 0.46518 0.0
H752 H 0.76288 0.75368 0.45688 0.0
H753 H 0.58323 0.64453 0.44799 0.0
H754 H 0.70288 0.59551 0.45286 0.0
H755 H 0.77443 0.59037 0.44086 0.0
H756 H 0.699 0.5163 0.38178 0.0
H757 H 0.62724 0.52167 0.39324 0.0
C758 C 0.39773 0.41836 0.44708 0.0
C759 C 0.3846 0.39837 0.42578 0.0
C760 C 0.44512 0.45728 0.45132 0.0
C761 C 0.48007 0.4767 0.43434 0.0
C762 C 0.46747 0.45431 0.41352 0.0
C763 C 0.42038 0.41603 0.40928 0.0
C764 C 0.52873 0.52194 0.43729 0.0
C765 C 0.57082 0.5207 0.43117 0.0
C766 C 0.53376 0.56714 0.4441 0.0
C767 C 0.49101 0.5718 0.45009 0.0
C768 C 0.4534 0.56031 0.43477 0.0
C769 C 0.41297 0.5644 0.44064 0.0
C770 C 0.41 0.58043 0.46172 0.0
C771 C 0.44754 0.59254 0.47694 0.0
C772 C 0.48801 0.58841 0.47117 0.0
C773 C 0.73087 0.70528 0.40533 0.0
C774 C 0.76014 0.73728 0.42208 0.0
C775 C 0.68531 0.66521 0.41002 0.0
C776 C 0.66751 0.65553 0.43166 0.0
C777 C 0.69513 0.68909 0.44836 0.0
C778 C 0.74124 0.72971 0.44361 0.0
C779 C 0.6215 0.60875 0.43639 0.0
C780 C 0.58007 0.60977 0.44381 0.0
C781 C 0.61689 0.56319 0.43072 0.0
C782 C 0.65973 0.5592 0.42388 0.0
C783 C 0.70164 0.57837 0.43725 0.0
C784 C 0.74223 0.57539 0.43054 0.0
C785 C 0.74128 0.55306 0.41056 0.0
C786 C 0.69968 0.53357 0.39726 0.0
C787 C 0.659 0.5365 0.40387 0.0
H788 H 0.77276 0.55082 0.4054 0.0
H789 H 0.37868 0.58359 0.46623 0.0
H790 H 0.96463 0.35316 0.78557 0.0
H791 H 0.97503 0.43505 0.78854 0.0
H792 H 0.08283 0.48528 0.73697 0.0
H793 H 0.07376 0.40404 0.73462 0.0
H794 H 0.11249 0.55252 0.76532 0.0
H795 H 0.95922 0.45783 0.72903 0.0
H796 H 0.87556 0.38933 0.72399 0.0
H797 H 0.83099 0.4296 0.78335 0.0
H798 H 0.91457 0.49801 0.78889 0.0
H799 H 0.0217 0.73622 0.73873 0.0
H800 H 0.00648 0.6523 0.73886 0.0
H801 H 0.10025 0.68534 0.79562 0.0
H802 H 0.11704 0.7696 0.79491 0.0
H803 H 0.96933 0.5765 0.76371 0.0
H804 H 0.16147 0.62402 0.79468 0.0
H805 H 0.24572 0.69316 0.79401 0.0
H806 H 0.21365 0.74816 0.73536 0.0
H807 H 0.12945 0.67901 0.73551 0.0
C808 C -0.00932 0.38179 0.77494 0.0
C809 C 0.01828 0.37206 0.75983 0.0
C810 C -0.0036 0.42863 0.77653 0.0
C811 C 0.02914 0.46665 0.76271 0.0
C812 C 0.0573 0.45695 0.74787 0.0
C813 C 0.05205 0.41034 0.74649 0.0
C814 C 0.03421 0.51641 0.76361 0.0
C815 C 0.08105 0.55755 0.76503 0.0
C816 C -0.00647 0.52374 0.76278 0.0
C817 C 0.94325 0.48272 0.75949 0.0
C818 C 0.93165 0.45186 0.74109 0.0
C819 C 0.88424 0.41309 0.73813 0.0
C820 C 0.84802 0.40504 0.75337 0.0
C821 C 0.8591 0.43584 0.77157 0.0
C822 C 0.90647 0.47463 0.77463 0.0
C823 C 0.03867 0.72541 0.75136 0.0
C824 C 0.07107 0.75975 0.76665 0.0
C825 C 0.02993 0.67731 0.75145 0.0
C826 C 0.05309 0.66235 0.76692 0.0
C827 C 0.08297 0.69598 0.78307 0.0
C828 C 0.09227 0.74416 0.78278 0.0
C829 C 0.04755 0.61245 0.76564 0.0
C830 C 0.00069 0.57136 0.76414 0.0
C831 C 0.0883 0.6052 0.76566 0.0
C832 C 0.13902 0.64663 0.76527 0.0
C833 C 0.17246 0.65078 0.78161 0.0
C834 C 0.2202 0.68998 0.78132 0.0
C835 C 0.23497 0.72512 0.7647 0.0
C836 C 0.20211 0.72102 0.74827 0.0
C837 C 0.15437 0.68186 0.74846 0.0
H838 H 0.27192 0.75546 0.76452 0.0
H839 H 0.81133 0.37501 0.75105 0.0
H840 H 0.23757 0.08437 0.16833 0.0
H841 H 0.23178 0.10668 0.20645 0.0
H842 H 0.31225 0.25853 0.18884 0.0
H843 H 0.31648 0.23601 0.15056 0.0
H844 H 0.25922 0.26031 0.21753 0.0
H845 H 0.22721 0.08523 0.26355 0.0
H846 H 0.25169 0.02261 0.26185 0.0
H847 H 0.37521 0.11747 0.2222 0.0
H848 H 0.35222 0.18116 0.22415 0.0
H849 H 0.20275 0.29038 0.33091 0.0
H850 H 0.20432 0.2657 0.29269 0.0
H851 H 0.31425 0.2296 0.31044 0.0
H852 H 0.31064 0.25191 0.34869 0.0
H853 H 0.27439 0.17173 0.28156 0.0
H854 H 0.32427 0.34056 0.27409 0.0
H855 H 0.3184 0.41505 0.27786 0.0
H856 H 0.18467 0.34803 0.24098 0.0
H857 H 0.18952 0.27296 0.23718 0.0
C858 C 0.25439 0.12271 0.17237 0.0
C859 C 0.27784 0.15784 0.15542 0.0
C860 C 0.25139 0.13586 0.19476 0.0
C861 C 0.27221 0.18517 0.20194 0.0
C862 C 0.29536 0.22017 0.18487 0.0
C863 C 0.2981 0.20701 0.16248 0.0
C864 C 0.26953 0.20026 0.22656 0.0
C865 C 0.26239 0.24025 0.23131 0.0
C866 C 0.27453 0.17646 0.24575 0.0
C867 C 0.28755 0.13772 0.24374 0.0
C868 C 0.25957 0.09272 0.25445 0.0
C869 C 0.27332 0.05713 0.25353 0.0
C870 C 0.31496 0.06605 0.2419 0.0
C871 C 0.34291 0.11058 0.23116 0.0
C872 C 0.32955 0.14646 0.23218 0.0
C873 C 0.2278 0.27773 0.32677 0.0
C874 C 0.25695 0.27426 0.34373 0.0
C875 C 0.22906 0.26357 0.30436 0.0
C876 C 0.26051 0.24613 0.29717 0.0
C877 C 0.28929 0.24249 0.31432 0.0
C878 C 0.28743 0.25585 0.33671 0.0
C879 C 0.2633 0.23122 0.27252 0.0
C880 C 0.27067 0.19142 0.26776 0.0
C881 C 0.26004 0.25609 0.25335 0.0
C882 C 0.257 0.30103 0.25555 0.0
C883 C 0.29349 0.34166 0.26688 0.0
C884 C 0.29036 0.38397 0.26902 0.0
C885 C 0.25111 0.38621 0.25972 0.0
C886 C 0.21499 0.3462 0.24821 0.0
C887 C 0.21793 0.30378 0.24604 0.0
H888 H 0.24874 0.41899 0.26139 0.0
H889 H 0.32556 0.03846 0.2412 0.0
H890 H 0.23153 0.24839 0.50049 0.0
H891 H 0.20807 0.24475 0.53916 0.0
H892 H 0.15177 0.34054 0.52492 0.0
H893 H 0.17656 0.34517 0.48617 0.0
H894 H 0.18322 0.36469 0.5635 0.0
H895 H 0.08113 0.20012 0.53787 0.0
H896 H 0.06028 0.11999 0.52235 0.0
H897 H 0.14436 0.1009 0.57299 0.0
H898 H 0.16598 0.181 0.58871 0.0
H899 H 0.02099 0.21733 0.66881 0.0
H900 H 0.04532 0.22046 0.6301 0.0
H901 H 0.18397 0.34657 0.64453 0.0
H902 H 0.15974 0.34337 0.68319 0.0
H903 H 0.10748 0.21026 0.60573 0.0
H904 H 0.23821 0.41693 0.59807 0.0
H905 H 0.25013 0.49394 0.61384 0.0
H906 H 0.09771 0.42528 0.62894 0.0
H907 H 0.08481 0.34807 0.61302 0.0
C908 C 0.2141 0.26888 0.50533 0.0
C909 C 0.20647 0.2971 0.48919 0.0
C910 C 0.19986 0.26633 0.52796 0.0
C911 C 0.17632 0.29136 0.53618 0.0
C912 C 0.16931 0.32017 0.52008 0.0
C913 C 0.18369 0.32282 0.49739 0.0
C914 C 0.16007 0.28834 0.56105 0.0
C915 C 0.16696 0.33054 0.57246 0.0
C916 C 0.13775 0.24448 0.57403 0.0
C917 C 0.12569 0.19687 0.56428 0.0
C918 C 0.09554 0.17903 0.54556 0.0
C919 C 0.08347 0.13354 0.53677 0.0
C920 C 0.1011 0.10544 0.54663 0.0
C921 C 0.13084 0.12275 0.56532 0.0
C922 C 0.14295 0.16815 0.57419 0.0
C923 C 0.05668 0.24618 0.66392 0.0
C924 C 0.08754 0.28046 0.68 0.0
C925 C 0.07099 0.24784 0.64134 0.0
C926 C 0.11686 0.28435 0.63312 0.0
C927 C 0.14794 0.31827 0.64929 0.0
C928 C 0.13384 0.3163 0.67192 0.0
C929 C 0.13182 0.28672 0.60816 0.0
C930 C 0.12435 0.24443 0.59675 0.0
C931 C 0.15343 0.33034 0.59517 0.0
C932 C 0.16069 0.37664 0.60456 0.0
C933 C 0.20724 0.41834 0.60469 0.0
C934 C 0.21416 0.462 0.61367 0.0
C935 C 0.17473 0.46445 0.62245 0.0
C936 C 0.12825 0.42329 0.6222 0.0
C937 C 0.12112 0.37956 0.61323 0.0
H938 H 0.18018 0.49827 0.62941 0.0
H939 H 0.09159 0.07017 0.53985 0.0
H940 H 0.92696 0.18011 0.81866 0.0
H941 H 0.90452 0.15347 0.85708 0.0
H942 H 0.05561 0.22978 0.87554 0.0
H943 H 0.07828 0.25829 0.83716 0.0
H944 H 0.97669 0.11143 0.89201 0.0
H945 H 0.0198 0.28123 0.89627 0.0
H946 H 0.01428 0.35299 0.88454 0.0
H947 H 0.86061 0.27566 0.89752 0.0
H948 H 0.86534 0.20325 0.90897 0.0
H949 H 0.85904 0.01346 0.99869 0.0
H950 H 0.88171 0.03815 0.96019 0.0
H951 H 0.9455 0.18877 0.97915 0.0
H952 H 0.91994 0.16369 1.01715 0.0
H953 H 0.91901 0.19394 0.9428 0.0
H954 H 0.89468 0.01889 0.91032 0.0
H955 H 0.90601 0.94863 0.91823 0.0
H956 H 0.02885 0.0387 0.95932 0.0
H957 H 0.01698 0.10915 0.95249 0.0
C958 C 0.9559 0.1918 0.83073 0.0
C959 C 0.00499 0.22212 0.82385 0.0
C960 C 0.94272 0.17614 0.85314 0.0
C961 C 0.97772 0.18878 0.8702 0.0
C962 C 0.02689 0.21869 0.86339 0.0
C963 C 0.04007 0.23537 0.84103 0.0
C964 C 0.96295 0.17106 0.89467 0.0
C965 C 0.96416 0.12984 0.90299 0.0
C966 C 0.94595 0.19348 0.90994 0.0
C967 C 0.94289 0.23677 0.90317 0.0
C968 C -0.01518 0.27946 0.89635 0.0
C969 C 0.98184 0.32025 0.88983 0.0
C970 C 0.93707 0.31884 0.8902 0.0
C971 C 0.89525 0.27667 0.89718 0.0
C972 C 0.89808 0.23576 0.90371 0.0
C973 C 0.87771 0.05197 0.99481 0.0
C974 C 0.88732 0.08599 1.01206 0.0
C975 C 0.89192 0.06665 0.97227 0.0
C976 C 0.91732 0.11648 0.96536 0.0
C977 C 0.92631 0.15013 0.98273 0.0
C978 C 0.9117 0.13546 1.0051 0.0
C979 C 0.93305 0.13399 0.94068 0.0
C980 C 0.93171 0.17528 0.9321 0.0
C981 C 0.94982 0.11145 0.92511 0.0
C982 C 0.95449 0.06885 0.93117 0.0
C983 C 0.92358 0.02341 0.92138 0.0
C984 C 0.92998 0.9836 0.92575 0.0
C985 C 0.96782 -0.01085 0.93953 0.0
C986 C -0.00097 0.03439 0.94909 0.0
C987 C -0.00778 0.07415 0.94514 0.0
H988 H 0.97323 0.95851 0.94261 0.0
H989 H 0.93479 0.35045 0.88515 0.0
H990 H 0.80502 0.92415 0.15305 0.0
H991 H 0.80994 0.90266 0.19152 0.0
H992 H 0.91704 0.0521 0.20487 0.0
H993 H 0.91008 0.0738 0.1668 0.0
H994 H 0.86059 0.89201 0.21879 0.0
H995 H 0.9399 0.08023 0.26015 0.0
H996 H 0.93968 0.15761 0.25549 0.0
H997 H 0.80125 0.0818 0.22263 0.0
H998 H 0.8004 0.0039 0.22725 0.0
H999 H 0.92763 0.8628 0.33041 0.0
H1000 H 0.92512 0.88755 0.29222 0.0
H1001 H 0.82853 0.93932 0.31179 0.0
H1002 H 0.83234 0.91603 0.35002 0.0
H1003 H 0.87759 -0.00165 0.2819 0.0
H1004 H 0.79746 0.82387 0.27798 0.0
H1005 H 0.78907 0.74261 0.2827 0.0
H1006 H 0.91383 0.78485 0.24152 0.0
H1007 H 0.92323 0.86655 0.23675 0.0
C1008 C 0.82937 0.95289 0.16412 0.0
C1009 C 0.85659 0.00131 0.15595 0.0
C1010 C 0.83249 0.94032 0.1866 0.0
C1011 C 0.86325 0.97517 0.20257 0.0
C1012 C 0.89125 0.02348 0.19418 0.0
C1013 C 0.8876 0.03616 0.17179 0.0
C1014 C 0.86636 0.96072 0.22727 0.0
C1015 C 0.86445 0.91593 0.23234 0.0
C1016 C 0.87088 -0.01002 0.24619 0.0
C1017 C 0.87046 0.03635 0.24376 0.0
C1018 C 0.90937 0.08006 0.25197 0.0
C1019 C 0.90947 0.124 0.24931 0.0
C1020 C 0.87069 0.12464 0.2386 0.0
C1021 C 0.83143 0.08127 0.23077 0.0
C1022 C 0.83113 0.03722 0.23339 0.0
C1023 C 0.90544 0.87913 0.32675 0.0
C1024 C 0.87979 0.88629 0.34416 0.0
C1025 C 0.9037 0.89337 0.3044 0.0
C1026 C 0.8757 0.91522 0.29782 0.0
C1027 C 0.85063 0.92285 0.31535 0.0
C1028 C 0.85262 0.90894 0.33768 0.0
C1029 C 0.87243 0.93003 0.27326 0.0
C1030 C 0.87407 0.9747 0.26827 0.0
C1031 C 0.86695 0.90043 0.25443 0.0
C1032 C 0.86131 0.85141 0.25719 0.0
C1033 C 0.82324 0.81588 0.27003 0.0
C1034 C 0.81829 0.76975 0.2727 0.0
C1035 C 0.85097 0.75862 0.26246 0.0
C1036 C 0.88859 0.79355 0.24947 0.0
C1037 C 0.89372 0.83975 0.24676 0.0
H1038 H 0.84709 0.7229 0.26456 0.0
H1039 H 0.87095 0.15871 0.23646 0.0
H1040 H 0.95111 0.7999 0.48647 0.0
H1041 H 0.97485 0.80253 0.52528 0.0
H1042 H 0.94535 0.91923 0.53728 0.0
H1043 H 0.91935 0.91481 0.49884 0.0
H1044 H 0.92205 0.87695 0.57249 0.0
H1045 H 0.04724 0.7914 0.56466 0.0
H1046 H 0.10819 0.79232 0.53915 0.0
H1047 H 0.13054 0.92632 0.51083 0.0
H1048 H 0.07022 0.92652 0.53635 0.0
H1049 H 0.9642 0.82717 0.6845 0.0
H1050 H 0.94263 0.82507 0.64555 0.0
H1051 H 0.09469 0.90665 0.62885 0.0
H1052 H 0.11625 0.9078 0.6679 0.0
H1053 H 0.05985 0.85534 0.59588 0.0
H1054 H 0.00175 0.94718 0.63115 0.0
H1055 H 0.95707 0.97332 0.65542 0.0
H1056 H 0.82131 0.86205 0.62843 0.0
H1057 H 0.86524 0.83458 0.60424 0.0
C1058 C 0.94948 0.82625 0.49724 0.0
C1059 C 0.93246 0.85685 0.48865 0.0
C1060 C 0.96378 0.82816 0.5199 0.0
C1061 C 0.96305 0.86152 0.53543 0.0
C1062 C 0.9466 0.89245 0.52665 0.0
C1063 C 0.93157 0.89 0.50414 0.0
C1064 C 0.97809 0.86375 0.5604 0.0
C1065 C 0.95194 0.87154 0.57737 0.0
C1066 C 0.01858 0.85928 0.56798 0.0
C1067 C 0.05363 0.85849 0.55216 0.0
C1068 C 0.06504 0.82094 0.55293 0.0
C1069 C 0.09954 0.82133 0.5385 0.0
C1070 C 0.12302 0.85922 0.5233 0.0
C1071 C 0.11208 0.89682 0.52251 0.0
C1072 C 0.07766 0.89664 0.53691 0.0
C1073 C -0.00653 0.84464 0.67268 0.0
C1074 C 0.04246 0.86741 0.68024 0.0
C1075 C 0.98085 0.84389 0.64992 0.0
C1076 C 0.01632 0.86645 0.63308 0.0
C1077 C 0.06542 0.88866 0.64062 0.0
C1078 C 0.07806 0.88929 0.66342 0.0
C1079 C 0.00254 0.86649 0.60809 0.0
C1080 C 0.02917 0.85954 0.5911 0.0
C1081 C 0.9638 0.87401 0.60048 0.0
C1082 C 0.93697 0.88852 0.61593 0.0
C1083 C 0.9624 0.92789 0.63051 0.0
C1084 C 0.93716 0.94299 0.64427 0.0
C1085 C 0.88634 0.91928 0.64352 0.0
C1086 C 0.86068 0.88029 0.62905 0.0
C1087 C 0.88578 0.8649 0.61532 0.0
H1088 H 0.86684 0.93118 0.65409 0.0
H1089 H 0.14983 0.85952 0.5122 0.0
H1090 H 0.19899 0.9522 0.82145 0.0
H1091 H 0.222 0.97909 0.85986 0.0
H1092 H 0.07761 0.95318 0.87236 0.0
H1093 H 0.05386 0.92435 0.83411 0.0
H1094 H 0.15308 0.0462 0.8919 0.0
H1095 H 0.10924 0.87793 0.89467 0.0
H1096 H 0.1126 0.80473 0.88372 0.0
H1097 H 0.2648 0.87654 0.90006 0.0
H1098 H 0.26239 0.95041 0.91088 0.0
H1099 H 0.27395 0.14421 0.99812 0.0
H1100 H 0.25071 0.11923 0.95966 0.0
H1101 H 0.18276 0.96862 0.97918 0.0
H1102 H 0.20825 -0.00617 1.01728 0.0
H1103 H 0.21071 0.96324 0.94286 0.0
H1104 H 0.23437 0.13841 0.90968 0.0
H1105 H 0.22472 0.20926 0.91848 0.0
H1106 H 0.10503 0.12017 0.96101 0.0
H1107 H 0.1153 0.04908 0.95327 0.0
C1108 C 0.17166 0.95186 0.83221 0.0
C1109 C 0.124 0.93541 0.82377 0.0
C1110 C 0.18512 0.96753 0.85462 0.0
C1111 C 0.15226 0.96913 0.87001 0.0
C1112 C 0.10474 0.95323 0.86155 0.0
C1113 C 0.09087 0.93626 0.83928 0.0
C1114 C 0.16724 0.98675 0.8945 0.0
C1115 C 0.16573 0.02773 0.90287 0.0
C1116 C 0.18407 0.96404 0.90985 0.0
C1117 C 0.18572 0.91983 0.90337 0.0
C1118 C 0.14349 0.87823 0.89575 0.0
C1119 C 0.14521 0.8366 0.88961 0.0
C1120 C 0.18893 0.83603 0.89112 0.0
C1121 C 0.23098 0.87706 0.89886 0.0
C1122 C 0.22944 0.91881 0.90502 0.0
C1123 C 0.25417 0.10563 0.99439 0.0
C1124 C 0.24359 0.07165 1.01178 0.0
C1125 C 0.23973 0.09084 0.97188 0.0
C1126 C 0.21311 0.04096 0.96517 0.0
C1127 C 0.20295 0.00728 0.98267 0.0
C1128 C 0.21764 0.02204 1.00505 0.0
C1129 C 0.1972 0.02347 0.94053 0.0
C1130 C 0.19834 0.98213 0.93203 0.0
C1131 C 0.18033 0.0461 0.92499 0.0
C1132 C 0.17601 0.08883 0.93113 0.0
C1133 C 0.20644 0.13417 0.92118 0.0
C1134 C 0.20103 0.17433 0.92608 0.0
C1135 C 0.16464 0.16925 0.94058 0.0
C1136 C 0.13381 0.12409 0.95025 0.0
C1137 C 0.13964 0.08398 0.94575 0.0
H1138 H 0.16006 0.2002 0.94416 0.0
H1139 H 0.19021 0.80376 0.88636 0.0
loop_
_geom_bond_atom_site_label_1
_geom_bond_atom_site_label_2
_geom_bond_distance
_geom_bond_site_symmetry_2
_ccdc_geom_bond_type
Ho0 C3 2.811 . S
Ho0 O20 2.322 . S
Ho0 O22 2.378 . S
Ho0 O23 2.524 . S
Ho0 O24 2.381 . S
Ho0 O25 2.669 1_554 S
Ho0 O27 2.346 1_554 S
Ho0 O31 2.305 . S
Ho1 C12 2.811 . S
Ho1 O21 2.346 1_556 S
Ho1 O25 2.305 . S
Ho1 O26 2.322 . S
Ho1 O28 2.378 . S
Ho1 O29 2.524 . S
Ho1 O30 2.381 . S
Ho1 O31 2.669 1_556 S
C2 O20 1.259 . S
C2 O21 1.268 . S
C3 Ho0 2.811 . S
C3 C4 1.488 . S
C3 O22 1.215 . S
C3 O23 1.289 . S
C4 C3 1.488 . S
C4 C5 1.348 . S
C4 C9 1.413 . S
C5 C4 1.348 . S
C5 C6 1.442 . S
C5 H32 0.930 . S
C6 C5 1.442 . S
C6 C7 1.381 . S
C6 H33 0.931 . S
C7 C6 1.381 . S
C7 C8 1.321 . S
C8 C7 1.321 . S
C8 C9 1.403 . S
C8 H34 0.934 1_545 S
C9 C4 1.413 . S
C9 C8 1.403 . S
C9 H35 0.930 . S
C10 O24 1.275 . S
C10 O25 1.256 1_554 S
C11 O26 1.259 . S
C11 O27 1.268 . S
C12 Ho1 2.811 . S
C12 C13 1.488 . S
C12 O28 1.215 . S
C12 O29 1.289 . S
C13 C12 1.488 . S
C13 C14 1.348 . S
C13 C18 1.413 . S
C14 C13 1.348 . S
C14 C15 1.442 . S
C14 H36 0.930 . S
C15 C14 1.442 . S
C15 C16 1.381 . S
C15 H37 0.931 . S
C16 C15 1.381 . S
C16 C17 1.321 . S
C17 C16 1.321 . S
C17 C18 1.403 . S
C17 H38 0.934 . S
C18 C13 1.413 . S
C18 C17 1.403 . S
C18 H39 0.930 . S
C19 O30 1.275 1_554 S
C19 O31 1.256 . S
O20 Ho0 2.322 . S
O20 C2 1.259 . S
O21 Ho1 2.346 1_554 S
O21 C2 1.268 . S
O22 Ho0 2.378 . S
O22 C3 1.215 . S
O23 Ho0 2.524 . S
O23 C3 1.289 . S
O24 Ho0 2.381 . S
O24 C10 1.275 . S
O25 Ho0 2.669 1_556 S
O25 Ho1 2.305 . S
O25 C10 1.256 1_556 S
O26 Ho1 2.322 . S
O26 C11 1.259 . S
O27 Ho0 2.346 1_556 S
O27 C11 1.268 . S
O28 Ho1 2.378 . S
O28 C12 1.215 . S
O29 Ho1 2.524 . S
O29 C12 1.289 . S
O30 Ho1 2.381 . S
O30 C19 1.275 1_556 S
O31 Ho0 2.305 . S
O31 Ho1 2.669 1_554 S
O31 C19 1.256 . S
H32 C5 0.930 . S
H33 C6 0.931 . S
H34 C8 0.934 1_565 S
H35 C9 0.930 . S
H36 C14 0.930 . S
H37 C15 0.931 . S
H38 C17 0.934 . S
H39 C18 0.930 . S
Ho40 C43 2.811 . S
Ho40 O60 2.322 . S
Ho40 O62 2.378 . S
Ho40 O63 2.524 . S
Ho40 O64 2.381 . S
Ho40 O65 2.669 . S
Ho40 O67 2.346 . S
Ho40 O71 2.305 . S
Ho41 C52 2.811 . S
Ho41 O61 2.346 . S
Ho41 O65 2.305 . S
Ho41 O66 2.322 . S
Ho41 O68 2.378 . S
Ho41 O69 2.524 . S
Ho41 O70 2.381 . S
Ho41 O71 2.669 . S
C42 O60 1.259 . S
C42 O61 1.268 . S
C43 Ho40 2.811 . S
C43 C44 1.488 . S
C43 O62 1.215 . S
C43 O63 1.289 . S
C44 C43 1.488 . S
C44 C45 1.348 . S
C44 C49 1.413 . S
C45 C44 1.348 . S
C45 C46 1.442 . S
C45 H72 0.930 . S
C46 C45 1.442 . S
C46 C47 1.381 . S
C46 H73 0.931 . S
C47 C46 1.381 . S
C47 C48 1.321 . S
C48 C47 1.321 . S
C48 C49 1.403 . S
C48 H74 0.934 . S
C49 C44 1.413 . S
C49 C48 1.403 . S
C49 H75 0.930 . S
C50 O64 1.275 . S
C50 O65 1.256 . S
C51 O66 1.259 . S
C51 O67 1.268 . S
C52 Ho41 2.811 . S
C52 C53 1.488 . S
C52 O68 1.215 . S
C52 O69 1.289 . S
C53 C52 1.488 . S
C53 C54 1.348 . S
C53 C58 1.413 . S
C54 C53 1.348 . S
C54 C55 1.442 . S
C54 H76 0.930 . S
C55 C54 1.442 . S
C55 C56 1.381 . S
C55 H77 0.931 . S
C56 C55 1.381 . S
C56 C57 1.321 . S
C57 C56 1.321 . S
C57 C58 1.403 . S
C57 H78 0.934 . S
C58 C53 1.413 . S
C58 C57 1.403 . S
C58 H79 0.930 . S
C59 O70 1.275 . S
C59 O71 1.256 . S
O60 Ho40 2.322 . S
O60 C42 1.259 . S
O61 Ho41 2.346 . S
O61 C42 1.268 . S
O62 Ho40 2.378 . S
O62 C43 1.215 . S
O63 Ho40 2.524 . S
O63 C43 1.289 . S
O64 Ho40 2.381 . S
O64 C50 1.275 . S
O65 Ho40 2.669 . S
O65 Ho41 2.305 . S
O65 C50 1.256 . S
O66 Ho41 2.322 . S
O66 C51 1.259 . S
O67 Ho40 2.346 . S
O67 C51 1.268 . S
O68 Ho41 2.378 . S
O68 C52 1.215 . S
O69 Ho41 2.524 . S
O69 C52 1.289 . S
O70 Ho41 2.381 . S
O70 C59 1.275 . S
O71 Ho40 2.305 . S
O71 Ho41 2.669 . S
O71 C59 1.256 . S
H72 C45 0.930 . S
H73 C46 0.931 . S
H74 C48 0.934 . S
H75 C49 0.930 . S
H76 C54 0.930 . S
H77 C55 0.931 . S
H78 C57 0.934 . S
H79 C58 0.930 . S
Ho80 C83 2.811 . S
Ho80 O100 2.322 1_455 S
Ho80 O102 2.378 . S
Ho80 O103 2.524 . S
Ho80 O104 2.381 . S
Ho80 O105 2.669 1_455 S
Ho80 O107 2.346 . S
Ho80 O111 2.305 . S
Ho81 C92 2.811 . S
Ho81 O101 2.346 . S
Ho81 O105 2.305 . S
Ho81 O106 2.322 1_655 S
Ho81 O108 2.378 . S
Ho81 O109 2.524 . S
Ho81 O110 2.381 . S
Ho81 O111 2.669 1_655 S
C82 O100 1.259 . S
C82 O101 1.268 . S
C83 Ho80 2.811 . S
C83 C84 1.488 . S
C83 O102 1.215 . S
C83 O103 1.289 . S
C84 C83 1.488 . S
C84 C85 1.348 . S
C84 C89 1.413 . S
C85 C84 1.348 . S
C85 C86 1.442 . S
C85 H112 0.930 . S
C86 C85 1.442 . S
C86 C87 1.381 . S
C86 H113 0.931 . S
C87 C86 1.381 . S
C87 C88 1.321 . S
C88 C87 1.321 . S
C88 C89 1.403 . S
C88 H114 0.934 . S
C89 C84 1.413 . S
C89 C88 1.403 . S
C89 H115 0.930 . S
C90 O104 1.275 . S
C90 O105 1.256 1_455 S
C91 O106 1.259 . S
C91 O107 1.268 . S
C92 Ho81 2.811 . S
C92 C93 1.488 . S
C92 O108 1.215 . S
C92 O109 1.289 . S
C93 C92 1.488 . S
C93 C94 1.348 . S
C93 C98 1.413 . S
C94 C93 1.348 . S
C94 C95 1.442 . S
C94 H116 0.930 . S
C95 C94 1.442 . S
C95 C96 1.381 . S
C95 H117 0.931 . S
C96 C95 1.381 . S
C96 C97 1.321 . S
C97 C96 1.321 . S
C97 C98 1.403 . S
C97 H118 0.934 . S
C98 C93 1.413 . S
C98 C97 1.403 . S
C98 H119 0.930 . S
C99 O110 1.275 . S
C99 O111 1.256 1_655 S
O100 Ho80 2.322 1_655 S
O100 C82 1.259 . S
O101 Ho81 2.346 . S
O101 C82 1.268 . S
O102 Ho80 2.378 . S
O102 C83 1.215 . S
O103 Ho80 2.524 . S
O103 C83 1.289 . S
O104 Ho80 2.381 . S
O104 C90 1.275 . S
O105 Ho80 2.669 1_655 S
O105 Ho81 2.305 . S
O105 C90 1.256 1_655 S
O106 Ho81 2.322 1_455 S
O106 C91 1.259 . S
O107 Ho80 2.346 . S
O107 C91 1.268 . S
O108 Ho81 2.378 . S
O108 C92 1.215 . S
O109 Ho81 2.524 . S
O109 C92 1.289 . S
O110 Ho81 2.381 . S
O110 C99 1.275 . S
O111 Ho80 2.305 . S
O111 Ho81 2.669 1_455 S
O111 C99 1.256 1_455 S
H112 C85 0.930 . S
H113 C86 0.931 . S
H114 C88 0.934 . S
H115 C89 0.930 . S
H116 C94 0.930 . S
H117 C95 0.931 . S
H118 C97 0.934 . S
H119 C98 0.930 . S
Ho120 C123 2.811 . S
Ho120 O140 2.322 1_545 S
Ho120 O142 2.378 . S
Ho120 O143 2.524 . S
Ho120 O144 2.381 . S
Ho120 O145 2.669 1_544 S
Ho120 O147 2.346 1_554 S
Ho120 O151 2.305 . S
Ho121 C132 2.811 . S
Ho121 O141 2.346 1_556 S
Ho121 O145 2.305 . S
Ho121 O146 2.322 1_565 S
Ho121 O148 2.378 . S
Ho121 O149 2.524 . S
Ho121 O150 2.381 . S
Ho121 O151 2.669 1_566 S
C122 O140 1.259 . S
C122 O141 1.268 . S
C123 Ho120 2.811 . S
C123 C124 1.488 . S
C123 O142 1.215 . S
C123 O143 1.289 . S
C124 C123 1.488 . S
C124 C125 1.348 . S
C124 C129 1.413 . S
C125 C124 1.348 . S
C125 C126 1.442 . S
C125 H152 0.930 . S
C126 C125 1.442 . S
C126 C127 1.381 . S
C126 H153 0.931 . S
C127 C126 1.381 . S
C127 C128 1.321 . S
C128 C127 1.321 . S
C128 C129 1.403 . S
C128 H154 0.934 . S
C129 C124 1.413 . S
C129 C128 1.403 . S
C129 H155 0.930 . S
C130 O144 1.275 . S
C130 O145 1.256 1_544 S
C131 O146 1.259 . S
C131 O147 1.268 . S
C132 Ho121 2.811 . S
C132 C133 1.488 . S
C132 O148 1.215 . S
C132 O149 1.289 . S
C133 C132 1.488 . S
C133 C134 1.348 . S
C133 C138 1.413 . S
C134 C133 1.348 . S
C134 C135 1.442 . S
C134 H156 0.930 . S
C135 C134 1.442 . S
C135 C136 1.381 . S
C135 H157 0.931 . S
C136 C135 1.381 . S
C136 C137 1.321 . S
C137 C136 1.321 . S
C137 C138 1.403 . S
C137 H158 0.934 . S
C138 C133 1.413 . S
C138 C137 1.403 . S
C138 H159 0.930 . S
C139 O150 1.275 1_554 S
C139 O151 1.256 1_565 S
O140 Ho120 2.322 1_565 S
O140 C122 1.259 . S
O141 Ho121 2.346 1_554 S
O141 C122 1.268 . S
O142 Ho120 2.378 . S
O142 C123 1.215 . S
O143 Ho120 2.524 . S
O143 C123 1.289 . S
O144 Ho120 2.381 . S
O144 C130 1.275 . S
O145 Ho120 2.669 1_566 S
O145 Ho121 2.305 . S
O145 C130 1.256 1_566 S
O146 Ho121 2.322 1_545 S
O146 C131 1.259 . S
O147 Ho120 2.346 1_556 S
O147 C131 1.268 . S
O148 Ho121 2.378 . S
O148 C132 1.215 . S
O149 Ho121 2.524 . S
O149 C132 1.289 . S
O150 Ho121 2.381 . S
O150 C139 1.275 1_556 S
O151 Ho120 2.305 . S
O151 Ho121 2.669 1_544 S
O151 C139 1.256 1_545 S
H152 C125 0.930 . S
H153 C126 0.931 . S
H154 C128 0.934 . S
H155 C129 0.930 . S
H156 C134 0.930 . S
H157 C135 0.931 . S
H158 C137 0.934 . S
H159 C138 0.930 . S
Ho160 C163 2.811 . S
Ho160 O180 2.322 . S
Ho160 O182 2.378 . S
Ho160 O183 2.524 . S
Ho160 O184 2.381 . S
Ho160 O185 2.669 . S
Ho160 O187 2.346 . S
Ho160 O191 2.305 . S
Ho161 C172 2.811 . S
Ho161 O181 2.346 . S
Ho161 O185 2.305 . S
Ho161 O186 2.322 . S
Ho161 O188 2.378 . S
Ho161 O189 2.524 . S
Ho161 O190 2.381 . S
Ho161 O191 2.669 . S
C162 O180 1.259 . S
C162 O181 1.268 . S
C163 Ho160 2.811 . S
C163 C164 1.488 . S
C163 O182 1.215 . S
C163 O183 1.289 . S
C164 C163 1.488 . S
C164 C165 1.348 . S
C164 C169 1.413 . S
C165 C164 1.348 . S
C165 C166 1.442 . S
C165 H192 0.930 . S
C166 C165 1.442 . S
C166 C167 1.381 . S
C166 H193 0.931 . S
C167 C166 1.381 . S
C167 C168 1.321 . S
C168 C167 1.321 . S
C168 C169 1.403 . S
C168 H194 0.934 . S
C169 C164 1.413 . S
C169 C168 1.403 . S
C169 H195 0.930 . S
C170 O184 1.275 . S
C170 O185 1.256 . S
C171 O186 1.259 . S
C171 O187 1.268 . S
C172 Ho161 2.811 . S
C172 C173 1.488 . S
C172 O188 1.215 . S
C172 O189 1.289 . S
C173 C172 1.488 . S
C173 C174 1.348 1_655 S
C173 C178 1.413 . S
C174 C173 1.348 1_455 S
C174 C175 1.442 . S
C174 H196 0.930 . S
C175 C174 1.442 . S
C175 C176 1.381 1_455 S
C175 H197 0.931 . S
C176 C175 1.381 1_655 S
C176 C177 1.321 . S
C177 C176 1.321 . S
C177 C178 1.403 . S
C177 H198 0.934 . S
C178 C173 1.413 . S
C178 C177 1.403 . S
C178 H199 0.930 . S
C179 O190 1.275 . S
C179 O191 1.256 . S
O180 Ho160 2.322 . S
O180 C162 1.259 . S
O181 Ho161 2.346 . S
O181 C162 1.268 . S
O182 Ho160 2.378 . S
O182 C163 1.215 . S
O183 Ho160 2.524 . S
O183 C163 1.289 . S
O184 Ho160 2.381 . S
O184 C170 1.275 . S
O185 Ho160 2.669 . S
O185 Ho161 2.305 . S
O185 C170 1.256 . S
O186 Ho161 2.322 . S
O186 C171 1.259 . S
O187 Ho160 2.346 . S
O187 C171 1.268 . S
O188 Ho161 2.378 . S
O188 C172 1.215 . S
O189 Ho161 2.524 . S
O189 C172 1.289 . S
O190 Ho161 2.381 . S
O190 C179 1.275 . S
O191 Ho160 2.305 . S
O191 Ho161 2.669 . S
O191 C179 1.256 . S
H192 C165 0.930 . S
H193 C166 0.931 . S
H194 C168 0.934 . S
H195 C169 0.930 . S
H196 C174 0.930 . S
H197 C175 0.931 . S
H198 C177 0.934 . S
H199 C178 0.930 . S
Ho200 C203 2.811 . S
Ho200 O220 2.322 . S
Ho200 O222 2.378 . S
Ho200 O223 2.524 . S
Ho200 O224 2.381 . S
Ho200 O225 2.669 . S
Ho200 O227 2.346 . S
Ho200 O231 2.305 . S
Ho201 C212 2.811 . S
Ho201 O221 2.346 . S
Ho201 O225 2.305 . S
Ho201 O226 2.322 . S
Ho201 O228 2.378 . S
Ho201 O229 2.524 . S
Ho201 O230 2.381 . S
Ho201 O231 2.669 . S
C202 O220 1.259 . S
C202 O221 1.268 . S
C203 Ho200 2.811 . S
C203 C204 1.488 . S
C203 O222 1.215 . S
C203 O223 1.289 . S
C204 C203 1.488 . S
C204 C205 1.348 . S
C204 C209 1.413 . S
C205 C204 1.348 . S
C205 C206 1.442 . S
C205 H232 0.930 . S
C206 C205 1.442 . S
C206 C207 1.381 . S
C206 H233 0.931 . S
C207 C206 1.381 . S
C207 C208 1.321 . S
C208 C207 1.321 . S
C208 C209 1.403 . S
C208 H234 0.934 1_455 S
C209 C204 1.413 . S
C209 C208 1.403 . S
C209 H235 0.930 . S
C210 O224 1.275 . S
C210 O225 1.256 . S
C211 O226 1.259 . S
C211 O227 1.268 . S
C212 Ho201 2.811 . S
C212 C213 1.488 . S
C212 O228 1.215 . S
C212 O229 1.289 . S
C213 C212 1.488 . S
C213 C214 1.348 1_565 S
C213 C218 1.413 . S
C214 C213 1.348 1_545 S
C214 C215 1.442 . S
C214 H236 0.930 . S
C215 C214 1.442 . S
C215 C216 1.381 1_545 S
C215 H237 0.931 . S
C216 C215 1.381 1_565 S
C216 C217 1.321 . S
C217 C216 1.321 . S
C217 C218 1.403 . S
C217 H238 0.934 . S
C218 C213 1.413 . S
C218 C217 1.403 . S
C218 H239 0.930 . S
C219 O230 1.275 . S
C219 O231 1.256 . S
O220 Ho200 2.322 . S
O220 C202 1.259 . S
O221 Ho201 2.346 . S
O221 C202 1.268 . S
O222 Ho200 2.378 . S
O222 C203 1.215 . S
O223 Ho200 2.524 . S
O223 C203 1.289 . S
O224 Ho200 2.381 . S
O224 C210 1.275 . S
O225 Ho200 2.669 . S
O225 Ho201 2.305 . S
O225 C210 1.256 . S
O226 Ho201 2.322 . S
O226 C211 1.259 . S
O227 Ho200 2.346 . S
O227 C211 1.268 . S
O228 Ho201 2.378 . S
O228 C212 1.215 . S
O229 Ho201 2.524 . S
O229 C212 1.289 . S
O230 Ho201 2.381 . S
O230 C219 1.275 . S
O231 Ho200 2.305 . S
O231 Ho201 2.669 . S
O231 C219 1.256 . S
H232 C205 0.930 . S
H233 C206 0.931 . S
H234 C208 0.934 1_655 S
H235 C209 0.930 . S
H236 C214 0.930 . S
H237 C215 0.931 . S
H238 C217 0.934 . S
H239 C218 0.930 . S
H240 C258 0.951 . S
H241 C260 0.951 . S
H242 C262 0.950 . S
H243 C263 0.950 . S
H244 C265 0.950 . S
H245 C268 0.950 1_645 S
H246 C269 0.950 . S
H247 C271 0.950 . S
H248 C272 0.950 . S
H249 C273 0.951 . S
H250 C275 0.951 . S
H251 C277 0.950 . S
H252 C278 0.950 . S
H253 C280 0.950 . S
H254 C283 0.950 . S
H255 C284 0.950 . S
H256 C286 0.950 . S
H257 C287 0.967 . S
C258 H240 0.951 . S
C258 C259 1.349 1_556 S
C258 C260 1.388 . S
C259 C258 1.349 1_554 S
C259 C263 1.404 1_565 S
C260 H241 0.951 . S
C260 C258 1.388 . S
C260 C261 1.366 1_566 S
C261 C260 1.366 1_544 S
C261 C262 1.414 . S
C261 C264 1.499 1_655 S
C262 H242 0.950 . S
C262 C261 1.414 . S
C262 C263 1.374 . S
C263 H243 0.950 . S
C263 C259 1.404 1_545 S
C263 C262 1.374 . S
C264 C261 1.499 1_455 S
C264 C265 1.373 1_554 S
C264 C266 1.389 . S
C265 H244 0.950 . S
C265 C264 1.373 1_556 S
C265 C281 1.377 . S
C266 C264 1.389 . S
C266 C267 1.524 1_545 S
C266 C280 1.377 . S
C267 C266 1.524 1_565 S
C267 C268 1.397 . S
C267 C272 1.363 . S
C268 H245 0.950 1_465 S
C268 C267 1.397 . S
C268 C269 1.334 1_455 S
C269 H246 0.950 . S
C269 C268 1.334 1_655 S
C269 C270 1.287 . S
C270 C269 1.287 . S
C270 C271 1.524 1_655 S
C270 H289 0.913 . S
C271 H247 0.950 . S
C271 C270 1.524 1_455 S
C271 C272 1.415 . S
C272 H248 0.950 . S
C272 C267 1.363 . S
C272 C271 1.415 . S
C273 H249 0.951 . S
C273 C274 1.386 . S
C273 C275 1.388 . S
C274 C273 1.386 . S
C274 C278 1.365 1_554 S
C275 H250 0.951 . S
C275 C273 1.388 . S
C275 C276 1.365 1_554 S
C276 C275 1.365 1_556 S
C276 C277 1.415 . S
C276 C279 1.498 . S
C277 H251 0.950 . S
C277 C276 1.415 . S
C277 C278 1.374 . S
C278 H252 0.950 . S
C278 C274 1.365 1_556 S
C278 C277 1.374 . S
C279 C276 1.498 . S
C279 C280 1.364 1_556 S
C279 C281 1.397 . S
C280 H253 0.950 . S
C280 C266 1.377 . S
C280 C279 1.364 1_554 S
C281 C265 1.377 . S
C281 C279 1.397 . S
C281 C282 1.524 . S
C282 C281 1.524 . S
C282 C283 1.397 . S
C282 C287 1.363 . S
C283 H254 0.950 . S
C283 C282 1.397 . S
C283 C284 1.334 . S
C284 H255 0.950 . S
C284 C283 1.334 . S
C284 C285 1.287 . S
C285 C284 1.287 . S
C285 C286 1.524 . S
C285 H288 0.999 . S
C286 H256 0.950 . S
C286 C285 1.524 . S
C286 C287 1.415 . S
C287 H257 0.967 . S
C287 C282 1.363 . S
C287 C286 1.415 . S
H288 C285 0.999 . S
H289 C270 0.913 . S
H290 C308 0.951 . S
H291 C310 0.951 . S
H292 C312 0.950 . S
H293 C313 0.950 . S
H294 C315 0.950 . S
H295 C318 0.948 1_565 S
H296 C319 0.950 . S
H297 C321 0.950 . S
H298 C322 0.950 . S
H299 C323 0.951 . S
H300 C325 0.951 . S
H301 C327 0.950 . S
H302 C328 0.950 . S
H303 C330 0.950 . S
H304 C333 0.950 . S
H305 C334 0.950 . S
H306 C336 0.950 . S
H307 C337 0.950 . S
C308 H290 0.951 . S
C308 C309 1.366 . S
C308 C310 1.388 1_655 S
C309 C308 1.366 . S
C309 C313 1.385 . S
C310 H291 0.951 . S
C310 C308 1.388 1_455 S
C310 C311 1.366 . S
C311 C310 1.366 . S
C311 C312 1.414 . S
C311 C314 1.499 1_565 S
C312 H292 0.950 . S
C312 C311 1.414 . S
C312 C313 1.374 1_455 S
C313 H293 0.950 . S
C313 C309 1.385 . S
C313 C312 1.374 1_655 S
C314 C311 1.499 1_545 S
C314 C315 1.373 . S
C314 C316 1.389 . S
C315 H294 0.950 . S
C315 C314 1.373 . S
C315 C331 1.377 . S
C316 C314 1.389 . S
C316 C317 1.524 . S
C316 C330 1.377 . S
C317 C316 1.524 . S
C317 C318 1.416 . S
C317 C322 1.363 . S
C318 H295 0.948 1_545 S
C318 C317 1.416 . S
C318 C319 1.317 1_545 S
C319 H296 0.950 . S
C319 C318 1.317 1_565 S
C319 C320 1.287 . S
C320 C319 1.287 . S
C320 C321 1.524 1_565 S
C320 H339 0.913 . S
C321 H297 0.950 . S
C321 C320 1.524 1_545 S
C321 C322 1.415 . S
C322 H298 0.950 . S
C322 C317 1.363 . S
C322 C321 1.415 . S
C323 H299 0.951 . S
C323 C324 1.366 . S
C323 C325 1.388 . S
C324 C323 1.366 . S
C324 C328 1.385 . S
C325 H300 0.951 . S
C325 C323 1.388 . S
C325 C326 1.366 . S
C326 C325 1.366 . S
C326 C327 1.414 . S
C326 C329 1.499 . S
C327 H301 0.950 . S
C327 C326 1.414 . S
C327 C328 1.374 . S
C328 H302 0.950 . S
C328 C324 1.385 . S
C328 C327 1.374 . S
C329 C326 1.499 . S
C329 C330 1.373 . S
C329 C331 1.389 . S
C330 H303 0.950 . S
C330 C316 1.377 . S
C330 C329 1.373 . S
C331 C315 1.377 . S
C331 C329 1.389 . S
C331 C332 1.524 . S
C332 C331 1.524 . S
C332 C333 1.397 . S
C332 C337 1.363 . S
C333 H304 0.950 . S
C333 C332 1.397 . S
C333 C334 1.334 . S
C334 H305 0.950 . S
C334 C333 1.334 . S
C334 C335 1.287 1_455 S
C335 C334 1.287 1_655 S
C335 C336 1.524 1_655 S
C335 H338 0.999 . S
C336 H306 0.950 . S
C336 C335 1.524 1_455 S
C336 C337 1.415 . S
C337 H307 0.950 . S
C337 C332 1.363 . S
C337 C336 1.415 . S
H338 C335 0.999 . S
H339 C320 0.913 . S
H340 C358 0.951 . S
H341 C360 0.951 . S
H342 C362 0.950 . S
H343 C363 0.950 . S
H344 C365 0.950 . S
H345 C368 0.950 . S
H346 C369 0.950 . S
H347 C371 0.950 . S
H348 C372 0.950 . S
H349 C373 0.951 . S
H350 C375 0.951 . S
H351 C377 0.950 . S
H352 C378 0.950 . S
H353 C380 0.950 . S
H354 C383 0.950 . S
H355 C384 0.950 1_655 S
H356 C386 0.950 . S
H357 C387 0.950 . S
C358 H340 0.951 . S
C358 C359 1.366 . S
C358 C360 1.388 . S
C359 C358 1.366 . S
C359 C363 1.385 1_565 S
C360 H341 0.951 . S
C360 C358 1.388 . S
C360 C361 1.366 1_565 S
C361 C360 1.366 1_545 S
C361 C362 1.414 . S
C361 C364 1.499 . S
C362 H342 0.950 . S
C362 C361 1.414 . S
C362 C363 1.374 . S
C363 H343 0.950 . S
C363 C359 1.385 1_545 S
C363 C362 1.374 . S
C364 C361 1.499 . S
C364 C365 1.373 . S
C364 C366 1.389 . S
C365 H344 0.950 . S
C365 C364 1.373 . S
C365 C381 1.377 . S
C366 C364 1.389 . S
C366 C367 1.524 . S
C366 C380 1.377 . S
C367 C366 1.524 . S
C367 C368 1.397 . S
C367 C372 1.363 . S
C368 H345 0.950 . S
C368 C367 1.397 . S
C368 C369 1.334 . S
C369 H346 0.950 . S
C369 C368 1.334 . S
C369 C370 1.287 . S
C370 C369 1.287 . S
C370 C371 1.524 1_545 S
C370 H389 0.903 1_545 S
C371 H347 0.950 . S
C371 C370 1.524 1_565 S
C371 C372 1.415 1_565 S
C372 H348 0.950 . S
C372 C367 1.363 . S
C372 C371 1.415 1_545 S
C373 H349 0.951 . S
C373 C374 1.366 1_455 S
C373 C375 1.388 . S
C374 C373 1.366 1_655 S
C374 C378 1.385 . S
C375 H350 0.951 . S
C375 C373 1.388 . S
C375 C376 1.366 . S
C376 C375 1.366 . S
C376 C377 1.414 1_455 S
C376 C379 1.499 . S
C377 H351 0.950 . S
C377 C376 1.414 1_655 S
C377 C378 1.374 . S
C378 H352 0.950 . S
C378 C374 1.385 . S
C378 C377 1.374 . S
C379 C376 1.499 . S
C379 C380 1.373 . S
C379 C381 1.389 . S
C380 H353 0.950 . S
C380 C366 1.377 . S
C380 C379 1.373 . S
C381 C365 1.377 . S
C381 C379 1.389 . S
C381 C382 1.524 . S
C382 C381 1.524 . S
C382 C383 1.397 . S
C382 C387 1.363 . S
C383 H354 0.950 . S
C383 C382 1.397 . S
C383 C384 1.334 . S
C384 H355 0.950 1_455 S
C384 C383 1.334 . S
C384 C385 1.287 . S
C385 C384 1.287 . S
C385 C386 1.524 . S
C385 H388 0.999 . S
C386 H356 0.950 . S
C386 C385 1.524 . S
C386 C387 1.415 . S
C387 H357 0.950 . S
C387 C382 1.363 . S
C387 C386 1.415 . S
H388 C385 0.999 . S
H389 C370 0.903 1_565 S
H390 C408 0.951 . S
H391 C410 0.951 . S
H392 C412 0.950 . S
H393 C413 0.950 . S
H394 C415 0.950 . S
H395 C418 0.950 . S
H396 C419 0.950 . S
H397 C421 0.950 . S
H398 C422 0.950 . S
H399 C423 0.951 . S
H400 C425 0.951 . S
H401 C427 0.950 . S
H402 C428 0.950 . S
H403 C430 0.950 . S
H404 C433 0.950 . S
H405 C434 0.950 . S
H406 C436 0.950 . S
H407 C437 0.950 . S
C408 H390 0.951 . S
C408 C409 1.366 . S
C408 C410 1.388 . S
C409 C408 1.366 . S
C409 C413 1.385 . S
C410 H391 0.951 . S
C410 C408 1.388 . S
C410 C411 1.366 . S
C411 C410 1.366 . S
C411 C412 1.414 . S
C411 C414 1.499 . S
C412 H392 0.950 . S
C412 C411 1.414 . S
C412 C413 1.374 . S
C413 H393 0.950 . S
C413 C409 1.385 . S
C413 C412 1.374 . S
C414 C411 1.499 . S
C414 C415 1.373 . S
C414 C416 1.389 . S
C415 H394 0.950 . S
C415 C414 1.373 . S
C415 C431 1.377 . S
C416 C414 1.389 . S
C416 C417 1.524 . S
C416 C430 1.377 . S
C417 C416 1.524 . S
C417 C418 1.397 . S
C417 C422 1.363 . S
C418 H395 0.950 . S
C418 C417 1.397 . S
C418 C419 1.334 . S
C419 H396 0.950 . S
C419 C418 1.334 . S
C419 C420 1.287 . S
C420 C419 1.287 . S
C420 C421 1.524 . S
C420 H439 0.913 . S
C421 H397 0.950 . S
C421 C420 1.524 . S
C421 C422 1.415 . S
C422 H398 0.950 . S
C422 C417 1.363 . S
C422 C421 1.415 . S
C423 H399 0.951 . S
C423 C424 1.366 . S
C423 C425 1.388 . S
C424 C423 1.366 . S
C424 C428 1.385 . S
C425 H400 0.951 . S
C425 C423 1.388 . S
C425 C426 1.366 . S
C426 C425 1.366 . S
C426 C427 1.414 . S
C426 C429 1.499 . S
C427 H401 0.950 . S
C427 C426 1.414 . S
C427 C428 1.374 . S
C428 H402 0.950 . S
C428 C424 1.385 . S
C428 C427 1.374 . S
C429 C426 1.499 . S
C429 C430 1.373 . S
C429 C431 1.389 . S
C430 H403 0.950 . S
C430 C416 1.377 . S
C430 C429 1.373 . S
C431 C415 1.377 . S
C431 C429 1.389 . S
C431 C432 1.524 . S
C432 C431 1.524 . S
C432 C433 1.397 . S
C432 C437 1.363 . S
C433 H404 0.950 . S
C433 C432 1.397 . S
C433 C434 1.334 . S
C434 H405 0.950 . S
C434 C433 1.334 . S
C434 C435 1.287 . S
C435 C434 1.287 . S
C435 C436 1.524 . S
C435 H438 0.999 . S
C436 H406 0.950 . S
C436 C435 1.524 . S
C436 C437 1.415 . S
C437 H407 0.950 . S
C437 C432 1.363 . S
C437 C436 1.415 . S
H438 C435 0.999 . S
H439 C420 0.913 . S
H440 C458 0.951 . S
H441 C460 0.951 . S
H442 C462 0.950 . S
H443 C463 0.950 . S
H444 C465 0.950 . S
H445 C468 0.950 . S
H446 C469 0.950 . S
H447 C471 0.950 . S
H448 C472 0.950 . S
H449 C473 0.951 . S
H450 C475 0.951 . S
H451 C477 0.950 . S
H452 C478 0.950 . S
H453 C480 0.950 . S
H454 C483 0.950 . S
H455 C484 0.950 . S
H456 C486 0.950 . S
H457 C487 0.950 . S
C458 H440 0.951 . S
C458 C459 1.366 . S
C458 C460 1.388 . S
C459 C458 1.366 . S
C459 C463 1.385 . S
C460 H441 0.951 . S
C460 C458 1.388 . S
C460 C461 1.366 . S
C461 C460 1.366 . S
C461 C462 1.414 . S
C461 C464 1.499 . S
C462 H442 0.950 . S
C462 C461 1.414 . S
C462 C463 1.374 . S
C463 H443 0.950 . S
C463 C459 1.385 . S
C463 C462 1.374 . S
C464 C461 1.499 . S
C464 C465 1.373 . S
C464 C466 1.389 . S
C465 H444 0.950 . S
C465 C464 1.373 . S
C465 C481 1.377 1_455 S
C466 C464 1.389 . S
C466 C467 1.524 . S
C466 C480 1.377 . S
C467 C466 1.524 . S
C467 C468 1.397 . S
C467 C472 1.363 . S
C468 H445 0.950 . S
C468 C467 1.397 . S
C468 C469 1.334 . S
C469 H446 0.950 . S
C469 C468 1.334 . S
C469 C470 1.287 . S
C470 C469 1.287 . S
C470 C471 1.524 . S
C470 H489 0.913 . S
C471 H447 0.950 . S
C471 C470 1.524 . S
C471 C472 1.415 . S
C472 H448 0.950 . S
C472 C467 1.363 . S
C472 C471 1.415 . S
C473 H449 0.951 . S
C473 C474 1.366 . S
C473 C475 1.388 . S
C474 C473 1.366 . S
C474 C478 1.385 . S
C475 H450 0.951 . S
C475 C473 1.388 . S
C475 C476 1.366 . S
C476 C475 1.366 . S
C476 C477 1.414 . S
C476 C479 1.499 . S
C477 H451 0.950 . S
C477 C476 1.414 . S
C477 C478 1.374 . S
C478 H452 0.950 . S
C478 C474 1.385 . S
C478 C477 1.374 . S
C479 C476 1.499 . S
C479 C480 1.373 1_655 S
C479 C481 1.389 . S
C480 H453 0.950 . S
C480 C466 1.377 . S
C480 C479 1.373 1_455 S
C481 C465 1.377 1_655 S
C481 C479 1.389 . S
C481 C482 1.524 . S
C482 C481 1.524 . S
C482 C483 1.397 . S
C482 C487 1.363 . S
C483 H454 0.950 . S
C483 C482 1.397 . S
C483 C484 1.334 . S
C484 H455 0.950 . S
C484 C483 1.334 . S
C484 C485 1.287 . S
C485 C484 1.287 . S
C485 C486 1.524 . S
C485 H488 0.999 . S
C486 H456 0.950 . S
C486 C485 1.524 . S
C486 C487 1.415 . S
C487 H457 0.950 . S
C487 C482 1.363 . S
C487 C486 1.415 . S
H488 C485 0.999 . S
H489 C470 0.913 . S
H490 C508 0.951 . S
H491 C510 0.951 . S
H492 C512 0.950 . S
H493 C513 0.950 . S
H494 C515 0.950 . S
H495 C518 0.950 1_545 S
H496 C519 0.950 . S
H497 C521 0.950 . S
H498 C522 0.950 . S
H499 C523 0.951 . S
H500 C525 0.951 . S
H501 C527 0.950 . S
H502 C528 0.950 . S
H503 C530 0.950 . S
H504 C533 0.950 . S
H505 C534 0.950 . S
H506 C536 0.950 1_455 S
H507 C537 0.950 . S
C508 H490 0.951 . S
C508 C509 1.366 . S
C508 C510 1.388 . S
C509 C508 1.366 . S
C509 C513 1.385 . S
C510 H491 0.951 . S
C510 C508 1.388 . S
C510 C511 1.366 . S
C511 C510 1.366 . S
C511 C512 1.414 . S
C511 C514 1.499 . S
C512 H492 0.950 . S
C512 C511 1.414 . S
C512 C513 1.374 . S
C513 H493 0.950 . S
C513 C509 1.385 . S
C513 C512 1.374 . S
C514 C511 1.499 . S
C514 C515 1.373 . S
C514 C516 1.389 . S
C515 H494 0.950 . S
C515 C514 1.373 . S
C515 C531 1.377 . S
C516 C514 1.389 . S
C516 C517 1.524 1_545 S
C516 C530 1.377 1_545 S
C517 C516 1.524 1_565 S
C517 C518 1.397 . S
C517 C522 1.363 . S
C518 H495 0.950 1_565 S
C518 C517 1.397 . S
C518 C519 1.334 . S
C519 H496 0.950 . S
C519 C518 1.334 . S
C519 C520 1.287 . S
C520 C519 1.287 . S
C520 C521 1.524 . S
C520 H539 0.913 . S
C521 H497 0.950 . S
C521 C520 1.524 . S
C521 C522 1.415 . S
C522 H498 0.950 . S
C522 C517 1.363 . S
C522 C521 1.415 . S
C523 H499 0.951 . S
C523 C524 1.366 . S
C523 C525 1.388 . S
C524 C523 1.366 . S
C524 C528 1.385 . S
C525 H500 0.951 . S
C525 C523 1.388 . S
C525 C526 1.366 . S
C526 C525 1.366 . S
C526 C527 1.414 . S
C526 C529 1.499 . S
C527 H501 0.950 . S
C527 C526 1.414 . S
C527 C528 1.374 . S
C528 H502 0.950 . S
C528 C524 1.385 . S
C528 C527 1.374 . S
C529 C526 1.499 . S
C529 C530 1.373 . S
C529 C531 1.389 1_565 S
C530 H503 0.950 . S
C530 C516 1.377 1_565 S
C530 C529 1.373 . S
C531 C515 1.377 . S
C531 C529 1.389 1_545 S
C531 C532 1.524 . S
C532 C531 1.524 . S
C532 C533 1.397 . S
C532 C537 1.363 . S
C533 H504 0.950 . S
C533 C532 1.397 . S
C533 C534 1.334 . S
C534 H505 0.950 . S
C534 C533 1.334 . S
C534 C535 1.287 . S
C535 C534 1.287 . S
C535 C536 1.524 . S
C535 H538 0.999 1_655 S
C536 H506 0.950 1_655 S
C536 C535 1.524 . S
C536 C537 1.415 . S
C537 H507 0.950 . S
C537 C532 1.363 . S
C537 C536 1.415 . S
H538 C535 0.999 1_455 S
H539 C520 0.913 . S
H540 C558 0.951 . S
H541 C560 0.951 . S
H542 C562 0.950 . S
H543 C563 0.950 . S
H544 C565 0.950 . S
H545 C568 0.950 . S
H546 C569 0.950 . S
H547 C571 0.950 . S
H548 C572 0.950 . S
H549 C573 0.951 . S
H550 C575 0.951 . S
H551 C577 0.950 . S
H552 C578 0.950 . S
H553 C580 0.950 . S
H554 C583 0.950 . S
H555 C584 0.950 . S
H556 C586 0.950 . S
H557 C587 0.950 1_655 S
C558 H540 0.951 . S
C558 C559 1.366 . S
C558 C560 1.388 . S
C559 C558 1.366 . S
C559 C563 1.385 . S
C560 H541 0.951 . S
C560 C558 1.388 . S
C560 C561 1.366 . S
C561 C560 1.366 . S
C561 C562 1.414 . S
C561 C564 1.499 . S
C562 H542 0.950 . S
C562 C561 1.414 . S
C562 C563 1.374 . S
C563 H543 0.950 . S
C563 C559 1.385 . S
C563 C562 1.374 . S
C564 C561 1.499 . S
C564 C565 1.373 . S
C564 C566 1.389 . S
C565 H544 0.950 . S
C565 C564 1.373 . S
C565 C581 1.377 . S
C566 C564 1.389 . S
C566 C567 1.524 . S
C566 C580 1.377 . S
C567 C566 1.524 . S
C567 C568 1.397 . S
C567 C572 1.363 . S
C568 H545 0.950 . S
C568 C567 1.397 . S
C568 C569 1.334 . S
C569 H546 0.950 . S
C569 C568 1.334 . S
C569 C570 1.287 . S
C570 C569 1.287 . S
C570 C571 1.524 . S
C570 H589 0.913 . S
C571 H547 0.950 . S
C571 C570 1.524 . S
C571 C572 1.415 . S
C572 H548 0.950 . S
C572 C567 1.363 . S
C572 C571 1.415 . S
C573 H549 0.951 . S
C573 C574 1.366 . S
C573 C575 1.388 1_455 S
C574 C573 1.366 . S
C574 C578 1.385 1_455 S
C575 H550 0.951 . S
C575 C573 1.388 1_655 S
C575 C576 1.366 . S
C576 C575 1.366 . S
C576 C577 1.414 . S
C576 C579 1.499 . S
C577 H551 0.950 . S
C577 C576 1.414 . S
C577 C578 1.374 . S
C578 H552 0.950 . S
C578 C574 1.385 1_655 S
C578 C577 1.374 . S
C579 C576 1.499 . S
C579 C580 1.373 . S
C579 C581 1.389 . S
C580 H553 0.950 . S
C580 C566 1.377 . S
C580 C579 1.373 . S
C581 C565 1.377 . S
C581 C579 1.389 . S
C581 C582 1.524 . S
C582 C581 1.524 . S
C582 C583 1.397 1_655 S
C582 C587 1.363 1_655 S
C583 H554 0.950 . S
C583 C582 1.397 1_455 S
C583 C584 1.334 . S
C584 H555 0.950 . S
C584 C583 1.334 . S
C584 C585 1.287 . S
C585 C584 1.287 . S
C585 C586 1.524 . S
C585 H588 0.999 . S
C586 H556 0.950 . S
C586 C585 1.524 . S
C586 C587 1.415 . S
C587 H557 0.950 1_455 S
C587 C582 1.363 1_455 S
C587 C586 1.415 . S
H588 C585 0.999 . S
H589 C570 0.913 . S
H590 C608 0.951 . S
H591 C610 0.951 . S
H592 C612 0.950 . S
H593 C613 0.950 . S
H594 C615 0.950 . S
H595 C618 0.950 . S
H596 C619 0.950 . S
H597 C621 0.950 . S
H598 C622 0.950 . S
H599 C623 0.951 . S
H600 C625 0.964 . S
H601 C627 0.950 . S
H602 C628 0.950 . S
H603 C630 0.950 . S
H604 C633 0.950 . S
H605 C634 0.950 . S
H606 C636 0.950 . S
H607 C637 0.950 . S
C608 H590 0.951 . S
C608 C609 1.366 1_455 S
C608 C610 1.388 . S
C609 C608 1.366 1_655 S
C609 C613 1.385 . S
C610 H591 0.951 . S
C610 C608 1.388 . S
C610 C611 1.366 . S
C611 C610 1.366 . S
C611 C612 1.414 . S
C611 C614 1.499 . S
C612 H592 0.950 . S
C612 C611 1.414 . S
C612 C613 1.374 1_455 S
C613 H593 0.950 . S
C613 C609 1.385 . S
C613 C612 1.374 1_655 S
C614 C611 1.499 . S
C614 C615 1.373 . S
C614 C616 1.389 . S
C615 H594 0.950 . S
C615 C614 1.373 . S
C615 C631 1.377 . S
C616 C614 1.389 . S
C616 C617 1.524 . S
C616 C630 1.377 . S
C617 C616 1.524 . S
C617 C618 1.397 . S
C617 C622 1.363 . S
C618 H595 0.950 . S
C618 C617 1.397 . S
C618 C619 1.334 . S
C619 H596 0.950 . S
C619 C618 1.334 . S
C619 C620 1.287 . S
C620 C619 1.287 . S
C620 C621 1.524 . S
C620 H639 0.913 . S
C621 H597 0.950 . S
C621 C620 1.524 . S
C621 C622 1.415 . S
C622 H598 0.950 . S
C622 C617 1.363 . S
C622 C621 1.415 . S
C623 H599 0.951 . S
C623 C624 1.366 . S
C623 C625 1.388 1_545 S
C624 C623 1.366 . S
C624 C628 1.385 1_545 S
C625 H600 0.964 . S
C625 C623 1.388 1_565 S
C625 C626 1.366 . S
C626 C625 1.366 . S
C626 C627 1.414 . S
C626 C629 1.499 . S
C627 H601 0.950 . S
C627 C626 1.414 . S
C627 C628 1.374 . S
C628 H602 0.950 . S
C628 C624 1.385 1_565 S
C628 C627 1.374 . S
C629 C626 1.499 . S
C629 C630 1.373 . S
C629 C631 1.389 . S
C630 H603 0.950 . S
C630 C616 1.377 . S
C630 C629 1.373 . S
C631 C615 1.377 . S
C631 C629 1.389 . S
C631 C632 1.524 . S
C632 C631 1.524 . S
C632 C633 1.397 . S
C632 C637 1.363 . S
C633 H604 0.950 . S
C633 C632 1.397 . S
C633 C634 1.334 . S
C634 H605 0.950 . S
C634 C633 1.334 . S
C634 C635 1.287 . S
C635 C634 1.287 . S
C635 C636 1.524 . S
C635 H638 0.999 . S
C636 H606 0.950 . S
C636 C635 1.524 . S
C636 C637 1.415 . S
C637 H607 0.950 . S
C637 C632 1.363 . S
C637 C636 1.415 . S
H638 C635 0.999 . S
H639 C620 0.913 . S
H640 C658 0.951 1_565 S
H641 C660 0.951 . S
H642 C662 0.950 . S
H643 C663 0.950 . S
H644 C665 0.950 . S
H645 C668 0.950 . S
H646 C669 0.950 . S
H647 C671 0.950 1_565 S
H648 C672 0.950 . S
H649 C673 0.951 . S
H650 C675 0.951 . S
H651 C677 0.950 . S
H652 C678 0.950 . S
H653 C680 0.950 . S
H654 C683 0.950 . S
H655 C684 0.950 . S
H656 C686 0.950 . S
H657 C687 0.950 . S
C658 H640 0.951 1_545 S
C658 C659 1.366 1_545 S
C658 C660 1.388 . S
C659 C658 1.366 1_565 S
C659 C663 1.385 1_565 S
C660 H641 0.951 . S
C660 C658 1.388 . S
C660 C661 1.366 . S
C661 C660 1.366 . S
C661 C662 1.414 . S
C661 C664 1.499 . S
C662 H642 0.950 . S
C662 C661 1.414 . S
C662 C663 1.374 . S
C663 H643 0.950 . S
C663 C659 1.385 1_545 S
C663 C662 1.374 . S
C664 C661 1.499 . S
C664 C665 1.373 . S
C664 C666 1.389 . S
C665 H644 0.950 . S
C665 C664 1.373 . S
C665 C681 1.377 . S
C666 C664 1.389 . S
C666 C667 1.524 . S
C666 C680 1.377 . S
C667 C666 1.524 . S
C667 C668 1.397 . S
C667 C672 1.363 . S
C668 H645 0.950 . S
C668 C667 1.397 . S
C668 C669 1.334 1_545 S
C669 H646 0.950 . S
C669 C668 1.334 1_565 S
C669 C670 1.287 . S
C670 C669 1.287 . S
C670 C671 1.522 1_565 S
C670 H689 0.913 . S
C671 H647 0.950 1_545 S
C671 C670 1.522 1_545 S
C671 C672 1.416 . S
C672 H648 0.950 . S
C672 C667 1.363 . S
C672 C671 1.416 . S
C673 H649 0.951 . S
C673 C674 1.366 . S
C673 C675 1.388 . S
C674 C673 1.366 . S
C674 C678 1.385 . S
C675 H650 0.951 . S
C675 C673 1.388 . S
C675 C676 1.366 . S
C676 C675 1.366 . S
C676 C677 1.414 . S
C676 C679 1.499 . S
C677 H651 0.950 . S
C677 C676 1.414 . S
C677 C678 1.374 . S
C678 H652 0.950 . S
C678 C674 1.385 . S
C678 C677 1.374 . S
C679 C676 1.499 . S
C679 C680 1.373 . S
C679 C681 1.389 . S
C680 H653 0.950 . S
C680 C666 1.377 . S
C680 C679 1.373 . S
C681 C665 1.377 . S
C681 C679 1.389 . S
C681 C682 1.524 . S
C682 C681 1.524 . S
C682 C683 1.397 . S
C682 C687 1.363 . S
C683 H654 0.950 . S
C683 C682 1.397 . S
C683 C684 1.334 . S
C684 H655 0.950 . S
C684 C683 1.334 . S
C684 C685 1.287 . S
C685 C684 1.287 . S
C685 C686 1.524 . S
C685 H688 0.999 . S
C686 H656 0.950 . S
C686 C685 1.524 . S
C686 C687 1.415 . S
C687 H657 0.950 . S
C687 C682 1.363 . S
C687 C686 1.415 . S
H688 C685 0.999 . S
H689 C670 0.913 . S
H690 C708 0.951 . S
H691 C710 0.951 . S
H692 C712 0.950 . S
H693 C713 0.950 . S
H694 C715 0.950 . S
H695 C718 0.950 . S
H696 C719 0.950 . S
H697 C721 0.950 . S
H698 C722 0.950 . S
H699 C723 0.951 . S
H700 C725 0.951 . S
H701 C727 0.950 . S
H702 C728 0.950 . S
H703 C730 0.950 . S
H704 C733 0.950 . S
H705 C734 0.950 . S
H706 C736 0.950 1_556 S
H707 C737 0.940 1_556 S
C708 H690 0.951 . S
C708 C709 1.366 . S
C708 C710 1.388 . S
C709 C708 1.366 . S
C709 C713 1.385 1_554 S
C710 H691 0.951 . S
C710 C708 1.388 . S
C710 C711 1.366 . S
C711 C710 1.366 . S
C711 C712 1.414 1_554 S
C711 C714 1.499 . S
C712 H692 0.950 . S
C712 C711 1.414 1_556 S
C712 C713 1.374 . S
C713 H693 0.950 . S
C713 C709 1.385 1_556 S
C713 C712 1.374 . S
C714 C711 1.499 . S
C714 C715 1.373 . S
C714 C716 1.389 . S
C715 H694 0.950 . S
C715 C714 1.373 . S
C715 C731 1.377 . S
C716 C714 1.389 . S
C716 C717 1.524 . S
C716 C730 1.377 . S
C717 C716 1.524 . S
C717 C718 1.397 1_554 S
C717 C722 1.363 . S
C718 H695 0.950 . S
C718 C717 1.397 1_556 S
C718 C719 1.334 . S
C719 H696 0.950 . S
C719 C718 1.334 . S
C719 C720 1.287 . S
C720 C719 1.287 . S
C720 C721 1.524 1_556 S
C720 H739 0.913 . S
C721 H697 0.950 . S
C721 C720 1.524 1_554 S
C721 C722 1.415 . S
C722 H698 0.950 . S
C722 C717 1.363 . S
C722 C721 1.415 . S
C723 H699 0.951 . S
C723 C724 1.366 1_556 S
C723 C725 1.388 . S
C724 C723 1.366 1_554 S
C724 C728 1.385 1_565 S
C725 H700 0.951 . S
C725 C723 1.388 . S
C725 C726 1.366 1_566 S
C726 C725 1.366 1_544 S
C726 C727 1.414 . S
C726 C729 1.499 . S
C727 H701 0.950 . S
C727 C726 1.414 . S
C727 C728 1.374 . S
C728 H702 0.950 . S
C728 C724 1.385 1_545 S
C728 C727 1.374 . S
C729 C726 1.499 . S
C729 C730 1.373 . S
C729 C731 1.389 . S
C730 H703 0.950 . S
C730 C716 1.377 . S
C730 C729 1.373 . S
C731 C715 1.377 . S
C731 C729 1.389 . S
C731 C732 1.524 1_545 S
C732 C731 1.524 1_565 S
C732 C733 1.397 . S
C732 C737 1.371 . S
C733 H704 0.950 . S
C733 C732 1.397 . S
C733 C734 1.334 . S
C734 H705 0.950 . S
C734 C733 1.334 . S
C734 C735 1.287 . S
C735 C734 1.287 . S
C735 C736 1.524 . S
C735 H738 0.999 . S
C736 H706 0.950 1_554 S
C736 C735 1.524 . S
C736 C737 1.417 . S
C737 H707 0.940 1_554 S
C737 C732 1.371 . S
C737 C736 1.417 . S
H738 C735 0.999 . S
H739 C720 0.913 . S
H740 C758 0.951 . S
H741 C760 0.951 . S
H742 C762 0.950 . S
H743 C763 0.950 . S
H744 C765 0.950 . S
H745 C768 0.950 . S
H746 C769 0.950 . S
H747 C771 0.950 . S
H748 C772 0.950 . S
H749 C773 0.951 . S
H750 C775 0.951 . S
H751 C777 0.950 . S
H752 C778 0.950 . S
H753 C780 0.950 . S
H754 C783 0.950 . S
H755 C784 0.950 . S
H756 C786 0.950 . S
H757 C787 0.950 . S
C758 H740 0.951 . S
C758 C759 1.366 . S
C758 C760 1.388 . S
C759 C758 1.366 . S
C759 C763 1.385 . S
C760 H741 0.951 . S
C760 C758 1.388 . S
C760 C761 1.366 . S
C761 C760 1.366 . S
C761 C762 1.414 . S
C761 C764 1.499 . S
C762 H742 0.950 . S
C762 C761 1.414 . S
C762 C763 1.374 . S
C763 H743 0.950 . S
C763 C759 1.385 . S
C763 C762 1.374 . S
C764 C761 1.499 . S
C764 C765 1.373 . S
C764 C766 1.389 . S
C765 H744 0.950 . S
C765 C764 1.373 . S
C765 C781 1.377 . S
C766 C764 1.389 . S
C766 C767 1.524 . S
C766 C780 1.377 . S
C767 C766 1.524 . S
C767 C768 1.397 . S
C767 C772 1.363 . S
C768 H745 0.950 . S
C768 C767 1.397 . S
C768 C769 1.334 . S
C769 H746 0.950 . S
C769 C768 1.334 . S
C769 C770 1.287 . S
C770 C769 1.287 . S
C770 C771 1.524 . S
C770 H789 0.913 . S
C771 H747 0.950 . S
C771 C770 1.524 . S
C771 C772 1.415 . S
C772 H748 0.950 . S
C772 C767 1.363 . S
C772 C771 1.415 . S
C773 H749 0.951 . S
C773 C774 1.366 . S
C773 C775 1.388 . S
C774 C773 1.366 . S
C774 C778 1.385 . S
C775 H750 0.951 . S
C775 C773 1.388 . S
C775 C776 1.366 . S
C776 C775 1.366 . S
C776 C777 1.414 . S
C776 C779 1.499 . S
C777 H751 0.950 . S
C777 C776 1.414 . S
C777 C778 1.374 . S
C778 H752 0.950 . S
C778 C774 1.385 . S
C778 C777 1.374 . S
C779 C776 1.499 . S
C779 C780 1.373 . S
C779 C781 1.389 . S
C780 H753 0.950 . S
C780 C766 1.377 . S
C780 C779 1.373 . S
C781 C765 1.377 . S
C781 C779 1.389 . S
C781 C782 1.524 . S
C782 C781 1.524 . S
C782 C783 1.397 . S
C782 C787 1.363 . S
C783 H754 0.950 . S
C783 C782 1.397 . S
C783 C784 1.334 . S
C784 H755 0.950 . S
C784 C783 1.334 . S
C784 C785 1.287 . S
C785 C784 1.287 . S
C785 C786 1.524 . S
C785 H788 0.999 . S
C786 H756 0.950 . S
C786 C785 1.524 . S
C786 C787 1.415 . S
C787 H757 0.950 . S
C787 C782 1.363 . S
C787 C786 1.415 . S
H788 C785 0.999 . S
H789 C770 0.913 . S
H790 C808 0.951 . S
H791 C810 0.951 1_655 S
H792 C812 0.950 . S
H793 C813 0.950 . S
H794 C815 0.950 . S
H795 C818 0.950 . S
H796 C819 0.950 . S
H797 C821 0.950 . S
H798 C822 0.950 . S
H799 C823 0.951 . S
H800 C825 0.951 . S
H801 C827 0.950 . S
H802 C828 0.950 . S
H803 C830 0.950 . S
H804 C833 0.950 . S
H805 C834 0.950 . S
H806 C836 0.950 . S
H807 C837 0.950 . S
C808 H790 0.951 . S
C808 C809 1.366 . S
C808 C810 1.388 1_655 S
C809 C808 1.366 . S
C809 C813 1.385 1_655 S
C810 H791 0.951 1_455 S
C810 C808 1.388 1_455 S
C810 C811 1.366 . S
C811 C810 1.366 . S
C811 C812 1.414 . S
C811 C814 1.499 . S
C812 H792 0.950 . S
C812 C811 1.414 . S
C812 C813 1.374 . S
C813 H793 0.950 . S
C813 C809 1.385 1_455 S
C813 C812 1.374 . S
C814 C811 1.499 . S
C814 C815 1.373 . S
C814 C816 1.389 . S
C815 H794 0.950 . S
C815 C814 1.373 . S
C815 C831 1.377 . S
C816 C814 1.389 . S
C816 C817 1.524 1_455 S
C816 C830 1.377 . S
C817 C816 1.524 1_655 S
C817 C818 1.397 . S
C817 C822 1.363 . S
C818 H795 0.950 . S
C818 C817 1.397 . S
C818 C819 1.334 . S
C819 H796 0.950 . S
C819 C818 1.334 . S
C819 C820 1.287 . S
C820 C819 1.287 . S
C820 C821 1.524 . S
C820 H839 0.913 . S
C821 H797 0.950 . S
C821 C820 1.524 . S
C821 C822 1.415 . S
C822 H798 0.950 . S
C822 C817 1.363 . S
C822 C821 1.415 . S
C823 H799 0.951 . S
C823 C824 1.366 . S
C823 C825 1.388 . S
C824 C823 1.366 . S
C824 C828 1.385 . S
C825 H800 0.951 . S
C825 C823 1.388 . S
C825 C826 1.366 . S
C826 C825 1.366 . S
C826 C827 1.414 . S
C826 C829 1.499 . S
C827 H801 0.950 . S
C827 C826 1.414 . S
C827 C828 1.374 . S
C828 H802 0.950 . S
C828 C824 1.385 . S
C828 C827 1.374 . S
C829 C826 1.499 . S
C829 C830 1.373 . S
C829 C831 1.389 . S
C830 H803 0.950 . S
C830 C816 1.377 . S
C830 C829 1.373 . S
C831 C815 1.377 . S
C831 C829 1.389 . S
C831 C832 1.524 . S
C832 C831 1.524 . S
C832 C833 1.397 . S
C832 C837 1.363 . S
C833 H804 0.950 . S
C833 C832 1.397 . S
C833 C834 1.334 . S
C834 H805 0.950 . S
C834 C833 1.334 . S
C834 C835 1.287 . S
C835 C834 1.287 . S
C835 C836 1.524 . S
C835 H838 0.999 . S
C836 H806 0.950 . S
C836 C835 1.524 . S
C836 C837 1.415 . S
C837 H807 0.950 . S
C837 C832 1.363 . S
C837 C836 1.415 . S
H838 C835 0.999 . S
H839 C820 0.913 . S
H840 C858 0.951 . S
H841 C860 0.951 . S
H842 C862 0.950 . S
H843 C863 0.950 . S
H844 C865 0.950 . S
H845 C868 0.950 . S
H846 C869 0.950 . S
H847 C871 0.950 . S
H848 C872 0.950 . S
H849 C873 0.951 . S
H850 C875 0.951 . S
H851 C877 0.950 . S
H852 C878 0.950 . S
H853 C880 0.950 . S
H854 C883 0.950 . S
H855 C884 0.950 . S
H856 C886 0.950 . S
H857 C887 0.950 . S
C858 H840 0.951 . S
C858 C859 1.366 . S
C858 C860 1.388 . S
C859 C858 1.366 . S
C859 C863 1.385 . S
C860 H841 0.951 . S
C860 C858 1.388 . S
C860 C861 1.366 . S
C861 C860 1.366 . S
C861 C862 1.414 . S
C861 C864 1.499 . S
C862 H842 0.950 . S
C862 C861 1.414 . S
C862 C863 1.374 . S
C863 H843 0.950 . S
C863 C859 1.385 . S
C863 C862 1.374 . S
C864 C861 1.499 . S
C864 C865 1.373 . S
C864 C866 1.389 . S
C865 H844 0.950 . S
C865 C864 1.373 . S
C865 C881 1.377 . S
C866 C864 1.389 . S
C866 C867 1.524 . S
C866 C880 1.377 . S
C867 C866 1.524 . S
C867 C868 1.397 . S
C867 C872 1.363 . S
C868 H845 0.950 . S
C868 C867 1.397 . S
C868 C869 1.334 . S
C869 H846 0.950 . S
C869 C868 1.334 . S
C869 C870 1.287 . S
C870 C869 1.287 . S
C870 C871 1.524 . S
C870 H889 0.913 . S
C871 H847 0.950 . S
C871 C870 1.524 . S
C871 C872 1.415 . S
C872 H848 0.950 . S
C872 C867 1.363 . S
C872 C871 1.415 . S
C873 H849 0.951 . S
C873 C874 1.366 . S
C873 C875 1.388 . S
C874 C873 1.366 . S
C874 C878 1.385 . S
C875 H850 0.951 . S
C875 C873 1.388 . S
C875 C876 1.366 . S
C876 C875 1.366 . S
C876 C877 1.414 . S
C876 C879 1.499 . S
C877 H851 0.950 . S
C877 C876 1.414 . S
C877 C878 1.374 . S
C878 H852 0.950 . S
C878 C874 1.385 . S
C878 C877 1.374 . S
C879 C876 1.499 . S
C879 C880 1.373 . S
C879 C881 1.389 . S
C880 H853 0.950 . S
C880 C866 1.377 . S
C880 C879 1.373 . S
C881 C865 1.377 . S
C881 C879 1.389 . S
C881 C882 1.524 . S
C882 C881 1.524 . S
C882 C883 1.397 . S
C882 C887 1.363 . S
C883 H854 0.950 . S
C883 C882 1.397 . S
C883 C884 1.334 . S
C884 H855 0.950 . S
C884 C883 1.334 . S
C884 C885 1.287 . S
C885 C884 1.287 . S
C885 C886 1.524 . S
C885 H888 0.999 . S
C886 H856 0.950 . S
C886 C885 1.524 . S
C886 C887 1.415 . S
C887 H857 0.950 . S
C887 C882 1.363 . S
C887 C886 1.415 . S
H888 C885 0.999 . S
H889 C870 0.913 . S
H890 C908 0.951 . S
H891 C910 0.951 . S
H892 C912 0.950 . S
H893 C913 0.950 . S
H894 C915 0.950 . S
H895 C918 0.950 . S
H896 C919 0.950 . S
H897 C921 0.950 . S
H898 C922 0.950 . S
H899 C923 0.951 . S
H900 C925 0.951 . S
H901 C927 0.950 . S
H902 C928 0.950 . S
H903 C930 0.950 . S
H904 C933 0.950 . S
H905 C934 0.950 . S
H906 C936 0.950 . S
H907 C937 0.950 . S
C908 H890 0.951 . S
C908 C909 1.366 . S
C908 C910 1.388 . S
C909 C908 1.366 . S
C909 C913 1.385 . S
C910 H891 0.951 . S
C910 C908 1.388 . S
C910 C911 1.366 . S
C911 C910 1.366 . S
C911 C912 1.414 . S
C911 C914 1.499 . S
C912 H892 0.950 . S
C912 C911 1.414 . S
C912 C913 1.374 . S
C913 H893 0.950 . S
C913 C909 1.385 . S
C913 C912 1.374 . S
C914 C911 1.499 . S
C914 C915 1.373 . S
C914 C916 1.389 . S
C915 H894 0.950 . S
C915 C914 1.373 . S
C915 C931 1.377 . S
C916 C914 1.389 . S
C916 C917 1.524 . S
C916 C930 1.377 . S
C917 C916 1.524 . S
C917 C918 1.397 . S
C917 C922 1.363 . S
C918 H895 0.950 . S
C918 C917 1.397 . S
C918 C919 1.334 . S
C919 H896 0.950 . S
C919 C918 1.334 . S
C919 C920 1.287 . S
C920 C919 1.287 . S
C920 C921 1.524 . S
C920 H939 0.913 . S
C921 H897 0.950 . S
C921 C920 1.524 . S
C921 C922 1.415 . S
C922 H898 0.950 . S
C922 C917 1.363 . S
C922 C921 1.415 . S
C923 H899 0.951 . S
C923 C924 1.366 . S
C923 C925 1.388 . S
C924 C923 1.366 . S
C924 C928 1.385 . S
C925 H900 0.951 . S
C925 C923 1.388 . S
C925 C926 1.366 . S
C926 C925 1.366 . S
C926 C927 1.414 . S
C926 C929 1.499 . S
C927 H901 0.950 . S
C927 C926 1.414 . S
C927 C928 1.374 . S
C928 H902 0.950 . S
C928 C924 1.385 . S
C928 C927 1.374 . S
C929 C926 1.499 . S
C929 C930 1.373 . S
C929 C931 1.389 . S
C930 H903 0.950 . S
C930 C916 1.377 . S
C930 C929 1.373 . S
C931 C915 1.377 . S
C931 C929 1.389 . S
C931 C932 1.524 . S
C932 C931 1.524 . S
C932 C933 1.397 . S
C932 C937 1.363 . S
C933 H904 0.950 . S
C933 C932 1.397 . S
C933 C934 1.334 . S
C934 H905 0.950 . S
C934 C933 1.334 . S
C934 C935 1.287 . S
C935 C934 1.287 . S
C935 C936 1.524 . S
C935 H938 0.999 . S
C936 H906 0.950 . S
C936 C935 1.524 . S
C936 C937 1.415 . S
C937 H907 0.950 . S
C937 C932 1.363 . S
C937 C936 1.415 . S
H938 C935 0.999 . S
H939 C920 0.913 . S
H940 C958 0.951 . S
H941 C960 0.951 . S
H942 C962 0.950 . S
H943 C963 0.950 . S
H944 C965 0.950 . S
H945 C968 0.950 . S
H946 C969 0.950 . S
H947 C971 0.950 . S
H948 C972 0.950 . S
H949 C973 0.951 . S
H950 C975 0.951 . S
H951 C977 0.950 . S
H952 C978 0.950 . S
H953 C980 0.950 . S
H954 C983 0.950 . S
H955 C984 0.950 . S
H956 C986 0.950 1_455 S
H957 C987 0.950 . S
C958 H940 0.951 . S
C958 C959 1.366 . S
C958 C960 1.388 . S
C959 C958 1.366 . S
C959 C963 1.385 . S
C960 H941 0.951 . S
C960 C958 1.388 . S
C960 C961 1.366 . S
C961 C960 1.366 . S
C961 C962 1.414 . S
C961 C964 1.499 . S
C962 H942 0.950 . S
C962 C961 1.414 . S
C962 C963 1.374 . S
C963 H943 0.950 . S
C963 C959 1.385 . S
C963 C962 1.374 . S
C964 C961 1.499 . S
C964 C965 1.373 . S
C964 C966 1.389 . S
C965 H944 0.950 . S
C965 C964 1.373 . S
C965 C981 1.377 . S
C966 C964 1.389 . S
C966 C967 1.524 . S
C966 C980 1.377 . S
C967 C966 1.524 . S
C967 C968 1.397 . S
C967 C972 1.363 . S
C968 H945 0.950 . S
C968 C967 1.397 . S
C968 C969 1.334 . S
C969 H946 0.950 . S
C969 C968 1.334 . S
C969 C970 1.287 . S
C970 C969 1.287 . S
C970 C971 1.524 . S
C970 H989 0.913 . S
C971 H947 0.950 . S
C971 C970 1.524 . S
C971 C972 1.415 . S
C972 H948 0.950 . S
C972 C967 1.363 . S
C972 C971 1.415 . S
C973 H949 0.951 . S
C973 C974 1.366 . S
C973 C975 1.388 . S
C974 C973 1.366 . S
C974 C978 1.385 . S
C975 H950 0.951 . S
C975 C973 1.388 . S
C975 C976 1.366 . S
C976 C975 1.366 . S
C976 C977 1.414 . S
C976 C979 1.499 . S
C977 H951 0.950 . S
C977 C976 1.414 . S
C977 C978 1.374 . S
C978 H952 0.950 . S
C978 C974 1.385 . S
C978 C977 1.374 . S
C979 C976 1.499 . S
C979 C980 1.373 . S
C979 C981 1.389 . S
C980 H953 0.950 . S
C980 C966 1.377 . S
C980 C979 1.373 . S
C981 C965 1.377 . S
C981 C979 1.389 . S
C981 C982 1.524 . S
C982 C981 1.524 . S
C982 C983 1.397 . S
C982 C987 1.363 . S
C983 H954 0.950 . S
C983 C982 1.397 . S
C983 C984 1.334 1_545 S
C984 H955 0.950 . S
C984 C983 1.334 1_565 S
C984 C985 1.287 . S
C985 C984 1.287 . S
C985 C986 1.524 1_565 S
C985 H988 0.999 . S
C986 H956 0.950 1_655 S
C986 C985 1.524 1_545 S
C986 C987 1.415 . S
C987 H957 0.950 . S
C987 C982 1.363 . S
C987 C986 1.415 . S
H988 C985 0.999 . S
H989 C970 0.913 . S
H990 C1008 0.951 . S
H991 C1010 0.951 . S
H992 C1012 0.950 . S
H993 C1013 0.950 . S
H994 C1015 0.950 . S
H995 C1018 0.950 . S
H996 C1019 0.950 1_545 S
H997 C1021 0.950 . S
H998 C1022 0.950 . S
H999 C1023 0.951 . S
H1000 C1025 0.951 . S
H1001 C1027 0.950 . S
H1002 C1028 0.950 . S
H1003 C1030 0.950 . S
H1004 C1033 0.950 . S
H1005 C1034 0.950 . S
H1006 C1036 0.950 1_455 S
H1007 C1037 0.950 . S
C1008 H990 0.951 . S
C1008 C1009 1.366 . S
C1008 C1010 1.388 . S
C1009 C1008 1.366 . S
C1009 C1013 1.385 . S
C1010 H991 0.951 . S
C1010 C1008 1.388 . S
C1010 C1011 1.366 . S
C1011 C1010 1.366 . S
C1011 C1012 1.414 . S
C1011 C1014 1.499 . S
C1012 H992 0.950 . S
C1012 C1011 1.414 . S
C1012 C1013 1.374 . S
C1013 H993 0.950 . S
C1013 C1009 1.385 . S
C1013 C1012 1.374 . S
C1014 C1011 1.499 . S
C1014 C1015 1.373 . S
C1014 C1016 1.389 . S
C1015 H994 0.950 . S
C1015 C1014 1.373 . S
C1015 C1031 1.377 . S
C1016 C1014 1.389 . S
C1016 C1017 1.524 . S
C1016 C1030 1.377 . S
C1017 C1016 1.524 . S
C1017 C1018 1.397 . S
C1017 C1022 1.363 . S
C1018 H995 0.950 . S
C1018 C1017 1.397 . S
C1018 C1019 1.334 . S
C1019 H996 0.950 1_565 S
C1019 C1018 1.334 . S
C1019 C1020 1.287 . S
C1020 C1019 1.287 . S
C1020 C1021 1.524 . S
C1020 H1039 0.913 . S
C1021 H997 0.950 . S
C1021 C1020 1.524 . S
C1021 C1022 1.415 . S
C1022 H998 0.950 . S
C1022 C1017 1.363 . S
C1022 C1021 1.415 . S
C1023 H999 0.951 . S
C1023 C1024 1.366 . S
C1023 C1025 1.388 . S
C1024 C1023 1.366 . S
C1024 C1028 1.385 . S
C1025 H1000 0.951 . S
C1025 C1023 1.388 . S
C1025 C1026 1.366 . S
C1026 C1025 1.366 . S
C1026 C1027 1.414 . S
C1026 C1029 1.499 . S
C1027 H1001 0.950 . S
C1027 C1026 1.414 . S
C1027 C1028 1.374 . S
C1028 H1002 0.950 . S
C1028 C1024 1.385 . S
C1028 C1027 1.374 . S
C1029 C1026 1.499 . S
C1029 C1030 1.373 . S
C1029 C1031 1.389 . S
C1030 H1003 0.950 . S
C1030 C1016 1.377 . S
C1030 C1029 1.373 . S
C1031 C1015 1.377 . S
C1031 C1029 1.389 . S
C1031 C1032 1.524 . S
C1032 C1031 1.524 . S
C1032 C1033 1.397 . S
C1032 C1037 1.363 . S
C1033 H1004 0.950 . S
C1033 C1032 1.397 . S
C1033 C1034 1.334 . S
C1034 H1005 0.950 . S
C1034 C1033 1.334 . S
C1034 C1035 1.287 . S
C1035 C1034 1.287 . S
C1035 C1036 1.524 . S
C1035 H1038 0.999 1_655 S
C1036 H1006 0.950 1_655 S
C1036 C1035 1.524 . S
C1036 C1037 1.415 . S
C1037 H1007 0.950 . S
C1037 C1032 1.363 . S
C1037 C1036 1.415 . S
H1038 C1035 0.999 1_455 S
H1039 C1020 0.913 . S
H1040 C1058 0.951 1_455 S
H1041 C1060 0.951 . S
H1042 C1062 0.950 . S
H1043 C1063 0.950 . S
H1044 C1065 0.950 . S
H1045 C1068 0.950 . S
H1046 C1069 0.950 . S
H1047 C1071 0.950 . S
H1048 C1072 0.950 . S
H1049 C1073 0.951 . S
H1050 C1075 0.951 . S
H1051 C1077 0.950 . S
H1052 C1078 0.950 . S
H1053 C1080 0.950 . S
H1054 C1083 0.950 . S
H1055 C1084 0.950 . S
H1056 C1086 0.950 . S
H1057 C1087 0.950 . S
C1058 H1040 0.951 1_655 S
C1058 C1059 1.366 . S
C1058 C1060 1.388 1_655 S
C1059 C1058 1.366 . S
C1059 C1063 1.385 . S
C1060 H1041 0.951 . S
C1060 C1058 1.388 1_455 S
C1060 C1061 1.366 1_455 S
C1061 C1060 1.366 1_655 S
C1061 C1062 1.414 . S
C1061 C1064 1.499 1_655 S
C1062 H1042 0.950 . S
C1062 C1061 1.414 . S
C1062 C1063 1.374 . S
C1063 H1043 0.950 . S
C1063 C1059 1.385 . S
C1063 C1062 1.374 . S
C1064 C1061 1.499 1_455 S
C1064 C1065 1.373 1_455 S
C1064 C1066 1.389 . S
C1065 H1044 0.950 . S
C1065 C1064 1.373 1_655 S
C1065 C1081 1.377 . S
C1066 C1064 1.389 . S
C1066 C1067 1.524 . S
C1066 C1080 1.377 . S
C1067 C1066 1.524 . S
C1067 C1068 1.397 . S
C1067 C1072 1.363 . S
C1068 H1045 0.950 . S
C1068 C1067 1.397 . S
C1068 C1069 1.334 . S
C1069 H1046 0.950 . S
C1069 C1068 1.334 . S
C1069 C1070 1.287 . S
C1070 C1069 1.287 . S
C1070 C1071 1.524 . S
C1070 H1089 0.913 . S
C1071 H1047 0.950 . S
C1071 C1070 1.524 . S
C1071 C1072 1.415 . S
C1072 H1048 0.950 . S
C1072 C1067 1.363 . S
C1072 C1071 1.415 . S
C1073 H1049 0.951 . S
C1073 C1074 1.366 . S
C1073 C1075 1.388 . S
C1074 C1073 1.366 . S
C1074 C1078 1.385 . S
C1075 H1050 0.951 . S
C1075 C1073 1.388 . S
C1075 C1076 1.366 . S
C1076 C1075 1.366 . S
C1076 C1077 1.414 . S
C1076 C1079 1.499 . S
C1077 H1051 0.950 . S
C1077 C1076 1.414 . S
C1077 C1078 1.374 . S
C1078 H1052 0.950 . S
C1078 C1074 1.385 . S
C1078 C1077 1.374 . S
C1079 C1076 1.499 . S
C1079 C1080 1.373 . S
C1079 C1081 1.389 1_455 S
C1080 H1053 0.950 . S
C1080 C1066 1.377 . S
C1080 C1079 1.373 . S
C1081 C1065 1.377 . S
C1081 C1079 1.389 1_655 S
C1081 C1082 1.524 . S
C1082 C1081 1.524 . S
C1082 C1083 1.397 . S
C1082 C1087 1.363 . S
C1083 H1054 0.950 . S
C1083 C1082 1.397 . S
C1083 C1084 1.334 . S
C1084 H1055 0.950 . S
C1084 C1083 1.334 . S
C1084 C1085 1.287 . S
C1085 C1084 1.287 . S
C1085 C1086 1.524 . S
C1085 H1088 0.999 . S
C1086 H1056 0.950 . S
C1086 C1085 1.524 . S
C1086 C1087 1.415 . S
C1087 H1057 0.950 . S
C1087 C1082 1.363 . S
C1087 C1086 1.415 . S
H1088 C1085 0.999 . S
H1089 C1070 0.913 . S
H1090 C1108 0.952 1_545 S
H1091 C1110 0.951 . S
H1092 C1112 0.950 . S
H1093 C1113 0.950 . S
H1094 C1115 0.950 . S
H1095 C1118 0.950 . S
H1096 C1119 0.950 . S
H1097 C1121 0.950 . S
H1098 C1122 0.950 1_545 S
H1099 C1123 0.951 . S
H1100 C1125 0.951 . S
H1101 C1127 0.950 . S
H1102 C1128 0.950 . S
H1103 C1130 0.950 . S
H1104 C1133 0.950 . S
H1105 C1134 0.950 . S
H1106 C1136 0.950 . S
H1107 C1137 0.950 . S
C1108 H1090 0.952 1_565 S
C1108 C1109 1.366 . S
C1108 C1110 1.388 1_565 S
C1109 C1108 1.366 . S
C1109 C1113 1.385 . S
C1110 H1091 0.951 . S
C1110 C1108 1.388 1_545 S
C1110 C1111 1.366 1_545 S
C1111 C1110 1.366 1_565 S
C1111 C1112 1.414 . S
C1111 C1114 1.499 1_565 S
C1112 H1092 0.950 . S
C1112 C1111 1.414 . S
C1112 C1113 1.374 . S
C1113 H1093 0.950 . S
C1113 C1109 1.385 . S
C1113 C1112 1.374 . S
C1114 C1111 1.499 1_545 S
C1114 C1115 1.373 . S
C1114 C1116 1.389 1_545 S
C1115 H1094 0.950 . S
C1115 C1114 1.373 . S
C1115 C1131 1.377 . S
C1116 C1114 1.389 1_565 S
C1116 C1117 1.524 . S
C1116 C1130 1.377 1_565 S
C1117 C1116 1.524 . S
C1117 C1118 1.397 . S
C1117 C1122 1.363 . S
C1118 H1095 0.950 . S
C1118 C1117 1.397 . S
C1118 C1119 1.334 . S
C1119 H1096 0.950 . S
C1119 C1118 1.334 . S
C1119 C1120 1.287 . S
C1120 C1119 1.287 . S
C1120 C1121 1.524 . S
C1120 H1139 0.913 . S
C1121 H1097 0.950 . S
C1121 C1120 1.524 . S
C1121 C1122 1.415 . S
C1122 H1098 0.950 1_565 S
C1122 C1117 1.363 . S
C1122 C1121 1.415 . S
C1123 H1099 0.951 . S
C1123 C1124 1.366 . S
C1123 C1125 1.388 . S
C1124 C1123 1.366 . S
C1124 C1128 1.385 . S
C1125 H1100 0.951 . S
C1125 C1123 1.388 . S
C1125 C1126 1.366 . S
C1126 C1125 1.366 . S
C1126 C1127 1.414 . S
C1126 C1129 1.499 . S
C1127 H1101 0.950 . S
C1127 C1126 1.414 . S
C1127 C1128 1.374 . S
C1128 H1102 0.950 . S
C1128 C1124 1.385 . S
C1128 C1127 1.374 . S
C1129 C1126 1.499 . S
C1129 C1130 1.373 . S
C1129 C1131 1.389 . S
C1130 H1103 0.950 . S
C1130 C1116 1.377 1_545 S
C1130 C1129 1.373 . S
C1131 C1115 1.377 . S
C1131 C1129 1.389 . S
C1131 C1132 1.524 . S
C1132 C1131 1.524 . S
C1132 C1133 1.397 . S
C1132 C1137 1.363 . S
C1133 H1104 0.950 . S
C1133 C1132 1.397 . S
C1133 C1134 1.334 . S
C1134 H1105 0.950 . S
C1134 C1133 1.334 . S
C1134 C1135 1.287 . S
C1135 C1134 1.287 . S
C1135 C1136 1.524 . S
C1135 H1138 0.999 . S
C1136 H1106 0.950 . S
C1136 C1135 1.524 . S
C1136 C1137 1.415 . S
C1137 H1107 0.950 . S
C1137 C1132 1.363 . S
C1137 C1136 1.415 . S
H1138 C1135 0.999 . S
H1139 C1120 0.913 . S
C259 C130 1.138 1_565 S
C274 C10 1.139 . S
C309 C170 1.126 . S
C324 C50 1.127 . S
C359 C210 1.128 . S
C374 C90 1.128 1_655 S
C409 C16 0.568 . S
C424 C87 0.540 . S
C459 C56 0.568 . S
C474 C127 0.536 . S
C509 C96 0.569 . S
C524 C167 0.541 . S
C559 C136 0.567 . S
C574 C207 0.537 . S
C609 C176 0.571 . S
C624 C7 0.541 . S
C659 C216 0.568 . S
C674 C47 0.537 . S
C709 C19 1.003 . S
C724 C139 1.000 . S
C759 C59 1.002 . S
C774 C179 1.003 . S
C809 C99 1.002 . S
C824 C219 1.002 . S
C859 C2 3.905 . S
C874 C51 3.959 . S
C909 C42 3.906 . S
C924 C91 3.959 . S
C959 C82 3.905 . S
C974 C131 3.958 . S
C1009 C122 3.906 . S
C1024 C171 3.961 . S
C1059 C162 3.906 . S
C1074 C211 3.960 . S
C1109 C202 3.905 . S
C1124 C11 3.959 . S
