# Generated by pormake.
# Topology uof, (4)-cn, num edge types: 1
# Building blocks:
#     Node 0, Type 0, BuildingBlock: KUFVIS_clean_sbu_0, # of connection points: 4
#     Node 1, Type 0, BuildingBlock: KUFVIS_clean_sbu_0, # of connection points: 4
#     Node 2, Type 0, BuildingBlock: KUFVIS_clean_sbu_0, # of connection points: 4
#     Node 3, Type 0, BuildingBlock: KUFVIS_clean_sbu_0, # of connection points: 4
#     Node 4, Type 0, BuildingBlock: KUFVIS_clean_sbu_0, # of connection points: 4
#     Node 5, Type 0, BuildingBlock: KUFVIS_clean_sbu_0, # of connection points: 4
#     Node 6, Type 0, BuildingBlock: KUFVIS_clean_sbu_0, # of connection points: 4
#     Node 7, Type 0, BuildingBlock: KUFVIS_clean_sbu_0, # of connection points: 4
#     Node 8, Type 0, BuildingBlock: KUFVIS_clean_sbu_0, # of connection points: 4
#     Node 9, Type 0, BuildingBlock: KUFVIS_clean_sbu_0, # of connection points: 4
#     Node 10, Type 0, BuildingBlock: KUFVIS_clean_sbu_0, # of connection points: 4
#     Node 11, Type 0, BuildingBlock: KUFVIS_clean_sbu_0, # of connection points: 4
#     Edge 12, Type (0, 0), BuildingBlock: MIFKUJ_clean_linker_0, # of connection points: 2
#     Edge 13, Type (0, 0), BuildingBlock: MIFKUJ_clean_linker_0, # of connection points: 2
#     Edge 14, Type (0, 0), BuildingBlock: MIFKUJ_clean_linker_0, # of connection points: 2
#     Edge 15, Type (0, 0), BuildingBlock: MIFKUJ_clean_linker_0, # of connection points: 2
#     Edge 16, Type (0, 0), BuildingBlock: MIFKUJ_clean_linker_0, # of connection points: 2
#     Edge 17, Type (0, 0), BuildingBlock: MIFKUJ_clean_linker_0, # of connection points: 2
#     Edge 18, Type (0, 0), BuildingBlock: MIFKUJ_clean_linker_0, # of connection points: 2
#     Edge 19, Type (0, 0), BuildingBlock: MIFKUJ_clean_linker_0, # of connection points: 2
#     Edge 20, Type (0, 0), BuildingBlock: MIFKUJ_clean_linker_0, # of connection points: 2
#     Edge 21, Type (0, 0), BuildingBlock: MIFKUJ_clean_linker_0, # of connection points: 2
#     Edge 22, Type (0, 0), BuildingBlock: MIFKUJ_clean_linker_0, # of connection points: 2
#     Edge 23, Type (0, 0), BuildingBlock: MIFKUJ_clean_linker_0, # of connection points: 2
#     Edge 24, Type (0, 0), BuildingBlock: MIFKUJ_clean_linker_0, # of connection points: 2
#     Edge 25, Type (0, 0), BuildingBlock: MIFKUJ_clean_linker_0, # of connection points: 2
#     Edge 26, Type (0, 0), BuildingBlock: MIFKUJ_clean_linker_0, # of connection points: 2
#     Edge 27, Type (0, 0), BuildingBlock: MIFKUJ_clean_linker_0, # of connection points: 2
#     Edge 28, Type (0, 0), BuildingBlock: MIFKUJ_clean_linker_0, # of connection points: 2
#     Edge 29, Type (0, 0), BuildingBlock: MIFKUJ_clean_linker_0, # of connection points: 2
#     Edge 30, Type (0, 0), BuildingBlock: MIFKUJ_clean_linker_0, # of connection points: 2
#     Edge 31, Type (0, 0), BuildingBlock: MIFKUJ_clean_linker_0, # of connection points: 2
#     Edge 32, Type (0, 0), BuildingBlock: MIFKUJ_clean_linker_0, # of connection points: 2
#     Edge 33, Type (0, 0), BuildingBlock: MIFKUJ_clean_linker_0, # of connection points: 2
#     Edge 34, Type (0, 0), BuildingBlock: MIFKUJ_clean_linker_0, # of connection points: 2
#     Edge 35, Type (0, 0), BuildingBlock: MIFKUJ_clean_linker_0, # of connection points: 2
# Relax obj value: 0.186
# Max RMSD: 0.140
# Mean RMSD: 0.140
data_MOF--net-uof--node1-KUFVIS_clean_sbu_0--edge1-MIFKUJ_clean_linker_0
_symmetry_space_group_name_H-M    P1
_symmetry_Int_Tables_number       1
_symmetry_cell_setting            triclinic
loop_
_symmetry_equiv_pos_as_xyz
'x, y, z'
_cell_length_a     41.948369
_cell_length_b     41.95868
_cell_length_c     80.859033
_cell_angle_alpha  89.992357
_cell_angle_beta   89.977354
_cell_angle_gamma 119.91941
loop_
_atom_site_label
_atom_site_type_symbol
_atom_site_fract_x
_atom_site_fract_y
_atom_site_fract_z
_atom_type_partial_charge
Mn0 Mn 0.24054 0.32484 0.20859 0.0
Mn1 Mn 0.30251 0.30589 0.22626 0.0
C2 C 0.26632 0.29599 0.1937 0.0
C3 C 0.17881 0.30481 0.20097 0.0
C4 C 0.32146 0.38229 0.21514 0.0
O5 O 0.2321 0.32805 0.23355 0.0
O6 O 0.27288 0.31221 0.24335 0.0
C7 C 0.25118 0.23283 0.24052 0.0
N8 N 0.28065 0.25453 0.23078 0.0
C9 C 0.29146 0.20441 0.22518 0.0
C10 C 0.26133 0.18154 0.23521 0.0
C11 C 0.24095 0.19576 0.24282 0.0
C12 C 0.30014 0.24101 0.22322 0.0
H13 H 0.23571 0.24375 0.24649 0.0
C14 C 0.24793 0.32083 0.24537 0.0
O15 O 0.20332 0.33959 0.20152 0.0
O16 O 0.18962 0.28244 0.20591 0.0
N17 N 0.33284 0.29863 0.21087 0.0
C18 C 0.35875 0.32335 0.20035 0.0
C19 C 0.38099 0.31326 0.19139 0.0
C20 C 0.37651 0.27802 0.19346 0.0
C21 C 0.34914 0.2528 0.2041 0.0
C22 C 0.32793 0.26446 0.21274 0.0
H23 H 0.36277 0.35072 0.199 0.0
O24 O 0.25272 0.31367 0.18606 0.0
O25 O 0.26509 0.29643 0.20969 0.0
O26 O 0.29007 0.37443 0.20914 0.0
O27 O 0.32807 0.35888 0.222 0.0
C28 C 0.342 0.21654 0.20646 0.0
C29 C 0.31293 0.19224 0.21684 0.0
H30 H 0.25346 0.15298 0.23708 0.0
H31 H 0.21763 0.17829 0.25057 0.0
H32 H 0.40196 0.33278 0.18314 0.0
H33 H 0.39433 0.27075 0.18686 0.0
H34 H 0.35849 0.20695 0.20026 0.0
H35 H 0.3072 0.16419 0.21826 0.0
Mn36 Mn 0.92307 0.22914 0.54556 0.0
Mn37 Mn 1.00511 0.28176 0.56449 0.0
C38 C 0.97794 0.24747 0.53174 0.0
C39 C 0.87638 0.16944 0.53771 0.0
C40 C 0.95671 0.31181 0.55235 0.0
O41 O 0.90897 0.22269 0.57029 0.0
O42 O 0.96642 0.25513 0.58097 0.0
C43 C 0.01594 0.22297 0.57891 0.0
N44 N 0.02814 0.25333 0.56918 0.0
C45 C 0.08578 0.25544 0.56442 0.0
C46 C 0.07387 0.22422 0.57442 0.0
C47 C 0.03872 0.20782 0.58163 0.0
C48 C 0.06171 0.26904 0.56201 0.0
H49 H 0.98915 0.21059 0.5846 0.0
C50 C 0.93162 0.23476 0.58245 0.0
O51 O 0.87059 0.19716 0.53754 0.0
O52 O 0.90778 0.17608 0.54352 0.0
N53 N 0.04537 0.30901 0.54972 0.0
C54 C 0.05195 0.33792 0.53981 0.0
C55 C 0.0857 0.35708 0.53144 0.0
C56 C 0.11252 0.3467 0.53357 0.0
C57 C 0.10512 0.31686 0.54385 0.0
C58 C 0.07094 0.29871 0.55179 0.0
H59 H 0.03172 0.34647 0.53839 0.0
O60 O 0.94808 0.23777 0.52343 0.0
O61 O 0.97483 0.24673 0.54764 0.0
O62 O 0.93121 0.28238 0.5456 0.0
O63 O 0.98415 0.31352 0.55997 0.0
C64 C 0.13027 0.30434 0.5465 0.0
C65 C 0.12047 0.27344 0.55664 0.0
H66 H 0.09144 0.21256 0.57661 0.0
H67 H 0.02933 0.18373 0.58937 0.0
H68 H 0.0912 0.38005 0.52352 0.0
H69 H 0.13865 0.3618 0.52722 0.0
H70 H 0.15706 0.31801 0.54063 0.0
H71 H 0.13978 0.26368 0.55833 0.0
Mn72 Mn 0.6975 0.92155 0.88584 0.0
Mn73 Mn 0.71161 0.99019 0.9122 0.0
C74 C 0.7338 0.98298 0.87847 0.0
C75 C 0.71666 0.88186 0.8743 0.0
C76 C 0.64067 0.94586 0.89311 0.0
O77 O 0.683 0.89492 0.9084 0.0
O78 O 0.69646 0.9444 0.92434 0.0
C79 C 0.77582 0.99751 0.93069 0.0
N80 N 0.76013 0.0127 0.92116 0.0
C81 C 0.81203 0.07329 0.92491 0.0
C82 C 0.82876 0.05836 0.93483 0.0
C83 C 0.81068 0.02024 0.93762 0.0
C84 C 0.77761 0.0492 0.9181 0.0
H85 H 0.76166 0.96837 0.93313 0.0
C86 C 0.68579 0.91033 0.92244 0.0
O87 O 0.68289 0.8749 0.87301 0.0
O88 O 0.73834 0.91033 0.88309 0.0
N89 N 0.72684 0.03655 0.90187 0.0
C90 C 0.70748 0.04636 0.89157 0.0
C91 C 0.72249 0.08336 0.88693 0.0
C92 C 0.75672 0.10994 0.89328 0.0
C93 C 0.77584 0.09916 0.90404 0.0
C94 C 0.75997 0.06183 0.90789 0.0
H95 H 0.68078 0.02614 0.88695 0.0
O96 O 0.71901 0.95777 0.86718 0.0
O97 O 0.72695 0.97167 0.89359 0.0
O98 O 0.64987 0.92534 0.88508 0.0
O99 O 0.66148 0.96975 0.90366 0.0
C100 C 0.80969 0.12408 0.91135 0.0
C101 C 0.82786 0.11117 0.92173 0.0
H102 H 0.85544 0.0759 0.94037 0.0
H103 H 0.82336 0.00848 0.94527 0.0
H104 H 0.70748 0.09144 0.87867 0.0
H105 H 0.76802 0.13854 0.88986 0.0
H106 H 0.82159 0.15323 0.90923 0.0
H107 H 0.85379 0.13059 0.92737 0.0
Mn108 Mn 0.77914 0.71102 0.21892 0.0
Mn109 Mn 0.72871 0.72387 0.24819 0.0
C110 C 0.76063 0.7546 0.21557 0.0
C111 C 0.83628 0.72615 0.20659 0.0
C112 C 0.69649 0.65839 0.22508 0.0
O113 O 0.78854 0.68831 0.23969 0.0
O114 O 0.75526 0.701 0.25783 0.0
C115 C 0.7884 0.77869 0.26944 0.0
N116 N 0.75796 0.76857 0.26 0.0
C117 C 0.75469 0.82172 0.26851 0.0
C118 C 0.786 0.83278 0.27833 0.0
C119 C 0.80319 0.81138 0.27865 0.0
C120 C 0.74188 0.78951 0.25923 0.0
H121 H 0.80112 0.76183 0.27001 0.0
C122 C 0.77631 0.6881 0.25426 0.0
O123 O 0.80676 0.69478 0.20394 0.0
O124 O 0.83297 0.74792 0.21695 0.0
N125 N 0.70176 0.74641 0.24029 0.0
C126 C 0.67313 0.73303 0.22943 0.0
C127 C 0.65426 0.75242 0.22692 0.0
C128 C 0.66432 0.78466 0.23595 0.0
C129 C 0.69363 0.79759 0.24718 0.0
C130 C 0.71211 0.77777 0.24879 0.0
H131 H 0.66474 0.70775 0.22278 0.0
O132 O 0.76845 0.74104 0.20279 0.0
O133 O 0.76327 0.74201 0.22976 0.0
O134 O 0.7256 0.6672 0.21668 0.0
O135 O 0.69552 0.67759 0.23704 0.0
C136 C 0.70478 0.82894 0.25708 0.0
C137 C 0.73535 0.84109 0.26772 0.0
H138 H 0.79718 0.85775 0.28559 0.0
H139 H 0.82746 0.81979 0.28615 0.0
H140 H 0.63167 0.74227 0.21824 0.0
H141 H 0.64934 0.79925 0.23419 0.0
H142 H 0.68962 0.84348 0.25676 0.0
H143 H 0.7436 0.86511 0.27537 0.0
Mn144 Mn 0.07844 0.76845 0.54827 0.0
Mn145 Mn 0.01064 0.71393 0.57513 0.0
C146 C 0.01702 0.73908 0.5403 0.0
C147 C 0.11696 0.82702 0.53631 0.0
C148 C 0.05804 0.68909 0.55737 0.0
O149 O 0.10427 0.78435 0.57089 0.0
O150 O 0.05573 0.74765 0.58708 0.0
C151 C 0.99973 0.77108 0.59137 0.0
N152 N 0.98582 0.73868 0.58303 0.0
C153 C 0.92411 0.72783 0.58581 0.0
C154 C 0.93774 0.76096 0.59455 0.0
C155 C 0.97576 0.78278 0.59726 0.0
C156 C 0.94937 0.71772 0.58017 0.0
H157 H 0.02884 0.78773 0.59357 0.0
C158 C 0.08921 0.77255 0.58503 0.0
O159 O 0.12545 0.80118 0.53584 0.0
O160 O 0.08706 0.81926 0.54419 0.0
N161 N 0.96472 0.67981 0.56527 0.0
C162 C 0.95637 0.64979 0.5558 0.0
C163 C 0.91954 0.62539 0.55168 0.0
C164 C 0.89177 0.63187 0.55754 0.0
C165 C 0.90105 0.66311 0.56713 0.0
C166 C 0.93817 0.6864 0.57085 0.0
H167 H 0.97758 0.64431 0.55157 0.0
O168 O 0.04291 0.75012 0.52928 0.0
O169 O 0.0277 0.74565 0.55557 0.0
O170 O 0.07765 0.71846 0.54897 0.0
O171 O 0.03352 0.68555 0.56769 0.0
C172 C 0.87496 0.67199 0.57322 0.0
C173 C 0.8865 0.70452 0.5824 0.0
H174 H 0.9193 0.77 0.59916 0.0
H175 H 0.98654 0.80843 0.60396 0.0
H176 H 0.9125 0.60134 0.54423 0.0
H177 H 0.86342 0.61253 0.55472 0.0
H178 H 0.84596 0.65407 0.57092 0.0
H179 H 0.86621 0.71135 0.58676 0.0
Mn180 Mn 0.30846 0.07073 0.88491 0.0
Mn181 Mn 0.29609 0.00697 0.91396 0.0
C182 C 0.26877 0.00824 0.88023 0.0
C183 C 0.29109 0.11134 0.8728 0.0
C184 C 0.36431 0.04538 0.89247 0.0
O185 O 0.32744 0.10165 0.90625 0.0
O186 O 0.31334 0.05505 0.92417 0.0
C187 C 0.23411 0.00465 0.93257 0.0
N188 N 0.24893 0.98699 0.9242 0.0
C189 C 0.19599 0.92797 0.92982 0.0
C190 C 0.18013 0.9455 0.9385 0.0
C191 C 0.19922 0.98402 0.93983 0.0
C192 C 0.23067 0.94999 0.92273 0.0
H193 H 0.24876 0.03422 0.93362 0.0
C194 C 0.32532 0.08891 0.92087 0.0
O195 O 0.32349 0.11524 0.87048 0.0
O196 O 0.26939 0.08481 0.88257 0.0
N197 N 0.27895 0.95856 0.90562 0.0
C198 C 0.29652 0.94635 0.89546 0.0
C199 C 0.28074 0.90853 0.8925 0.0
C200 C 0.24733 0.88377 0.90012 0.0
C201 C 0.22951 0.89698 0.91035 0.0
C202 C 0.24671 0.93491 0.91296 0.0
H203 H 0.32251 0.96528 0.8898 0.0
O204 O 0.28227 0.03096 0.8679 0.0
O205 O 0.27881 0.02253 0.89479 0.0
O206 O 0.35441 0.06408 0.88348 0.0
O207 O 0.34494 0.02481 0.90431 0.0
C208 C 0.1953 0.87408 0.91798 0.0
C209 C 0.17838 0.88959 0.92759 0.0
H210 H 0.15307 0.9297 0.94396 0.0
H211 H 0.18709 0.99776 0.94646 0.0
H212 H 0.29448 0.89843 0.88453 0.0
H213 H 0.2358 0.85471 0.89811 0.0
H214 H 0.18153 0.84456 0.91637 0.0
H215 H 0.15169 0.87179 0.93307 0.0
Mn216 Mn 0.70383 0.76803 0.44122 0.0
Mn217 Mn 0.73254 0.70812 0.43065 0.0
C218 C 0.72136 0.7413 0.46188 0.0
C219 C 0.72059 0.82981 0.44709 0.0
C220 C 0.65209 0.68766 0.43159 0.0
O221 O 0.71297 0.77646 0.41614 0.0
O222 O 0.73724 0.73983 0.41188 0.0
C223 C 0.81139 0.76075 0.42489 0.0
N224 N 0.78466 0.73094 0.43303 0.0
C225 C 0.82938 0.71863 0.44557 0.0
C226 C 0.85739 0.74909 0.43725 0.0
C227 C 0.84835 0.77038 0.42695 0.0
C228 C 0.79309 0.71074 0.44325 0.0
H229 H 0.8045 0.77677 0.41672 0.0
C230 C 0.72841 0.76323 0.40697 0.0
O231 O 0.68688 0.80554 0.44332 0.0
O232 O 0.74426 0.81873 0.4462 0.0
N233 N 0.72987 0.67442 0.44724 0.0
C234 C 0.69957 0.64262 0.45217 0.0
C235 C 0.70383 0.61786 0.46234 0.0
C236 C 0.73923 0.62518 0.46674 0.0
C237 C 0.77007 0.65683 0.46065 0.0
C238 C 0.76411 0.68074 0.45071 0.0
H239 H 0.67229 0.63624 0.44848 0.0
O240 O 0.70143 0.75608 0.46518 0.0
O241 O 0.73121 0.74312 0.44647 0.0
O242 O 0.65616 0.71818 0.43709 0.0
O243 O 0.67877 0.6823 0.42817 0.0
C244 C 0.80647 0.665 0.46365 0.0
C245 C 0.83611 0.69588 0.45611 0.0
H246 H 0.88593 0.75647 0.43874 0.0
H247 H 0.86981 0.79397 0.42052 0.0
H248 H 0.6799 0.59298 0.46661 0.0
H249 H 0.74243 0.60589 0.47449 0.0
H250 H 0.81193 0.64733 0.47149 0.0
H251 H 0.86395 0.70163 0.45834 0.0
Mn252 Mn 0.94696 0.70779 0.77949 0.0
Mn253 Mn 0.03595 0.72951 0.77771 0.0
C254 C 0.98182 0.71937 0.8034 0.0
C255 C 0.90506 0.73001 0.78211 0.0
C256 C 0.97227 0.65204 0.77243 0.0
O257 O 0.96059 0.7231 0.75498 0.0
O258 O 0.02122 0.74169 0.75661 0.0
C259 C 0.0707 0.81056 0.77539 0.0
N260 N 0.06718 0.78018 0.78317 0.0
C261 C 0.1143 0.81734 0.80282 0.0
C262 C 0.11871 0.84904 0.79491 0.0
C263 C 0.09664 0.84562 0.7812 0.0
C264 C 0.08783 0.78315 0.79653 0.0
H265 H 0.05367 0.80803 0.76491 0.0
C266 C 0.9931 0.73797 0.74872 0.0
O267 O 0.89392 0.69639 0.7774 0.0
O268 O 0.94014 0.75078 0.7837 0.0
N269 N 0.05331 0.71929 0.79778 0.0
C270 C 0.04349 0.68614 0.80481 0.0
C271 C 0.0618 0.68479 0.8191 0.0
C272 C 0.09026 0.71746 0.82587 0.0
C273 C 0.09991 0.75122 0.81837 0.0
C274 C 0.08054 0.75089 0.80424 0.0
H275 H 0.02192 0.66091 0.79956 0.0
O276 O 0.9463 0.70046 0.80419 0.0
O277 O 0.99523 0.72971 0.78875 0.0
O278 O 0.94571 0.65817 0.7754 0.0
O279 O 1.00611 0.67698 0.77235 0.0
C280 C 0.12781 0.78519 0.82444 0.0
C281 C 0.13472 0.81829 0.81682 0.0
H282 H 0.13867 0.87613 0.79937 0.0
H283 H 0.09965 0.86995 0.77512 0.0
H284 H 0.05413 0.65862 0.82483 0.0
H285 H 0.10435 0.71634 0.83689 0.0
H286 H 0.14368 0.78605 0.83511 0.0
H287 H 0.15559 0.84428 0.82192 0.0
Mn288 Mn 0.23155 0.93034 0.10317 0.0
Mn289 Mn 0.29034 0.01495 0.08778 0.0
C290 C 0.25221 0.98257 0.11926 0.0
C291 C 0.17033 0.885 0.10954 0.0
C292 C 0.31435 0.9605 0.09788 0.0
O293 O 0.22652 0.92139 0.07793 0.0
O294 O 0.26443 0.9802 0.06981 0.0
C295 C 0.23585 0.03241 0.07351 0.0
N296 N 0.26473 0.04118 0.08382 0.0
C297 C 0.26877 0.09869 0.09106 0.0
C298 C 0.2391 0.09032 0.0805 0.0
C299 C 0.22246 0.05695 0.07175 0.0
C300 C 0.28064 0.07299 0.09245 0.0
H301 H 0.22319 0.00693 0.06667 0.0
C302 C 0.24203 0.94632 0.0668 0.0
O303 O 0.19668 0.87716 0.10921 0.0
O304 O 0.17911 0.91787 0.10494 0.0
N305 N 0.31716 0.05162 0.10415 0.0
C306 C 0.34433 0.0547 0.11439 0.0
C307 C 0.36345 0.08628 0.12423 0.0
C308 C 0.35487 0.11459 0.12321 0.0
C309 C 0.32685 0.11083 0.11254 0.0
C310 C 0.30862 0.07866 0.10312 0.0
H311 H 0.35155 0.03336 0.11497 0.0
O312 O 0.23983 0.95076 0.12623 0.0
O313 O 0.25249 0.98283 0.10329 0.0
O314 O 0.28324 0.93472 0.10318 0.0
O315 O 0.31919 0.99056 0.0917 0.0
C316 C 0.31624 0.13769 0.11089 0.0
C317 C 0.28693 0.13144 0.10033 0.0
H318 H 0.2288 0.10925 0.07906 0.0
H319 H 0.19952 0.05025 0.06359 0.0
H320 H 0.38505 0.08899 0.13242 0.0
H321 H 0.36991 0.13904 0.13072 0.0
H322 H 0.33018 0.16312 0.11782 0.0
H323 H 0.27858 0.15199 0.09942 0.0
Mn324 Mn 0.31192 0.23436 0.4398 0.0
Mn325 Mn 0.29265 0.29869 0.42522 0.0
C326 C 0.28752 0.26108 0.45702 0.0
C327 C 0.29108 0.17193 0.44636 0.0
C328 C 0.36989 0.31508 0.43327 0.0
O329 O 0.3112 0.22709 0.41456 0.0
O330 O 0.29573 0.26952 0.40693 0.0
C331 C 0.21727 0.24877 0.41291 0.0
N332 N 0.24084 0.27788 0.42239 0.0
C333 C 0.19239 0.28935 0.43068 0.0
C334 C 0.16764 0.25971 0.42086 0.0
C335 C 0.18011 0.23918 0.41203 0.0
C336 C 0.22905 0.29749 0.43111 0.0
H337 H 0.22682 0.2331 0.40605 0.0
C338 C 0.3031 0.24412 0.40366 0.0
O339 O 0.32597 0.19564 0.4449 0.0
O340 O 0.26888 0.18396 0.44288 0.0
N341 N 0.28846 0.32886 0.44177 0.0
C342 C 0.31507 0.35433 0.45179 0.0
C343 C 0.3069 0.37651 0.46189 0.0
C344 C 0.27162 0.37248 0.46144 0.0
C345 C 0.24455 0.3458 0.45117 0.0
C346 C 0.25436 0.32464 0.44133 0.0
H347 H 0.34238 0.3579 0.45197 0.0
O348 O 0.30536 0.24604 0.46319 0.0
O349 O 0.28484 0.26036 0.44105 0.0
O350 O 0.36211 0.28306 0.43838 0.0
O351 O 0.34612 0.32302 0.42794 0.0
C352 C 0.20821 0.33924 0.45033 0.0
C353 C 0.18204 0.31079 0.44024 0.0
H354 H 0.13898 0.25229 0.42012 0.0
H355 H 0.16117 0.21619 0.40447 0.0
H356 H 0.32785 0.39695 0.46985 0.0
H357 H 0.26574 0.39012 0.46899 0.0
H358 H 0.19999 0.35571 0.45749 0.0
H359 H 0.15399 0.30547 0.44 0.0
Mn360 Mn 0.0782 0.30493 0.77595 0.0
Mn361 Mn 0.99402 0.28074 0.7607 0.0
C362 C 0.02588 0.27506 0.79235 0.0
C363 C 0.12291 0.28784 0.78214 0.0
C364 C 0.05035 0.35916 0.7698 0.0
O365 O 0.08666 0.30786 0.75072 0.0
O366 O 0.02767 0.28624 0.74264 0.0
C367 C 0.97286 0.20683 0.7478 0.0
N368 N 0.96606 0.22868 0.75792 0.0
C369 C 0.90669 0.17827 0.76529 0.0
C370 C 0.9128 0.15529 0.75476 0.0
C371 C 0.94628 0.16951 0.74617 0.0
C372 C 0.93463 0.21493 0.76678 0.0
H373 H 0.99806 0.21795 0.74081 0.0
C374 C 0.06151 0.29731 0.73964 0.0
O375 O 0.13135 0.32217 0.78175 0.0
O376 O 0.08965 0.26416 0.77789 0.0
N377 N 0.95845 0.27424 0.77713 0.0
C378 C 0.95622 0.30037 0.78626 0.0
C379 C 0.92499 0.29033 0.79607 0.0
C380 C 0.89591 0.2538 0.79601 0.0
C381 C 0.89837 0.22764 0.78613 0.0
C382 C 0.93053 0.23907 0.77691 0.0
H383 H 0.97805 0.32866 0.78605 0.0
O384 O 0.05806 0.29383 0.79907 0.0
O385 O 0.02545 0.27454 0.7764 0.0
O386 O 0.07519 0.35297 0.77565 0.0
O387 O 0.02027 0.33441 0.76349 0.0
C388 C 0.86968 0.19099 0.78465 0.0
C389 C 0.87361 0.16655 0.77401 0.0
H390 H 0.89197 0.12675 0.75309 0.0
H391 H 0.95121 0.15197 0.73802 0.0
H392 H 0.92313 0.3108 0.8035 0.0
H393 H 0.87163 0.24626 0.8034 0.0
H394 H 0.8442 0.18149 0.7914 0.0
H395 H 0.85082 0.13889 0.7725 0.0
Mn396 Mn 0.76825 0.07322 0.11407 0.0
Mn397 Mn 0.70071 0.98414 0.1129 0.0
C398 C 0.75065 0.03777 0.13803 0.0
C399 C 0.8319 0.11697 0.11508 0.0
C400 C 0.68546 0.04725 0.11269 0.0
O401 O 0.76626 0.06175 0.08927 0.0
O402 O 0.71938 1.0031 0.0905 0.0
C403 C 0.74413 0.95069 0.10104 0.0
N404 N 0.72241 0.95349 0.11281 0.0
C405 C 0.71885 0.9025 0.128 0.0
C406 C 0.74112 0.89904 0.11602 0.0
C407 C 0.75396 0.92338 0.10254 0.0
C408 C 0.71035 0.93058 0.12597 0.0
H409 H 0.75352 0.96886 0.09048 0.0
C410 C 0.74328 0.0312 0.0825 0.0
O411 O 0.80772 0.12692 0.11185 0.0
O412 O 0.81935 0.082 0.11595 0.0
N413 N 0.67962 0.96162 0.13365 0.0
C414 C 0.65411 0.96503 0.14276 0.0
C415 C 0.63807 0.94226 0.15659 0.0
C416 C 0.64753 0.91546 0.1606 0.0
C417 C 0.67236 0.91116 0.15054 0.0
C418 C 0.68772 0.93487 0.137 0.0
H419 H 0.64606 0.98496 0.13953 0.0
O420 O 0.76567 0.07317 0.13866 0.0
O421 O 0.74496 0.02384 0.12324 0.0
O422 O 0.71891 0.07366 0.11237 0.0
O423 O 0.67611 0.01336 0.11327 0.0
C424 C 0.68156 0.88352 0.15313 0.0
C425 C 0.70471 0.87912 0.14184 0.0
H426 H 0.74867 0.87791 0.11709 0.0
H427 H 0.77132 0.92101 0.0933 0.0
H428 H 0.61825 0.94518 0.16404 0.0
H429 H 0.63491 0.89779 0.17121 0.0
H430 H 0.6704 0.86502 0.16359 0.0
H431 H 0.7112 0.85745 0.14383 0.0
H432 H 0.86592 0.19228 0.12042 0.0
H433 H 0.9251 0.23103 0.13449 0.0
H434 H 0.94275 0.13844 0.13737 0.0
H435 H 0.88467 0.10012 0.12323 0.0
H436 H 0.94856 0.17235 0.16806 0.0
H437 H 0.99333 0.2067 0.11186 0.0
H438 H 0.99493 0.2323 0.08422 0.0
H439 H 0.01971 0.33537 0.10612 0.0
H440 H 0.01776 0.31019 0.13393 0.0
H441 H 0.12774 0.23324 0.19522 0.0
H442 H 0.06973 0.20847 0.18052 0.0
H443 H 0.08633 0.31787 0.1745 0.0
H444 H 0.14589 0.34323 0.1888 0.0
H445 H 0.06009 0.28243 0.14689 0.0
H446 H 0.02057 0.25243 0.20249 0.0
H447 H 0.01743 0.22875 0.2307 0.0
H448 H 0.9796 0.12045 0.21131 0.0
H449 H 0.983 0.14357 0.18294 0.0
C450 C 0.88288 0.18047 0.12367 0.0
C451 C 0.87035 0.14298 0.12063 0.0
C452 C 0.91666 0.20262 0.1318 0.0
C453 C 0.93838 0.18763 0.13716 0.0
C454 C 0.92652 0.15069 0.1335 0.0
C455 C 0.89322 0.1288 0.12529 0.0
C456 C 0.97228 0.20915 0.14743 0.0
C457 C 0.97304 0.19628 0.16338 0.0
C458 C 1.00379 0.24133 0.14167 0.0
C459 C 1.00494 0.25641 0.12498 0.0
C460 C 0.99876 0.2347 0.11079 0.0
C461 C 0.99981 0.24916 0.09509 0.0
C462 C 0.00729 0.2854 0.09342 0.0
C463 C 0.01384 0.30728 0.10744 0.0
C464 C 0.01279 0.29294 0.12317 0.0
C465 C 0.11904 0.25221 0.19098 0.0
C466 C 0.14156 0.29034 0.19339 0.0
C467 C 0.08552 0.23787 0.18257 0.0
C468 C 0.07283 0.26102 0.17657 0.0
C469 C 0.09516 0.29922 0.17902 0.0
C470 C 0.12916 0.31373 0.18733 0.0
C471 C 0.03684 0.24494 0.16742 0.0
C472 C 0.03556 0.2588 0.15171 0.0
C473 C 1.00447 0.21393 0.17351 0.0
C474 C 1.00229 0.19982 0.19056 0.0
C475 C 0.01181 0.22361 0.20422 0.0
C476 C 0.00995 0.21028 0.22025 0.0
C477 C 0.99838 0.17314 0.22279 0.0
C478 C 0.98857 0.14923 0.20932 0.0
C479 C 0.99041 0.16242 0.19326 0.0
H480 H 0.99696 0.16287 0.23521 0.0
H481 H 0.00811 0.29655 0.08125 0.0
H482 H 0.8857 0.10981 0.53618 0.0
H483 H 0.85178 0.05433 0.51965 0.0
H484 H 0.77676 0.09049 0.50408 0.0
H485 H 0.81126 0.14708 0.52058 0.0
H486 H 0.74378 0.00877 0.51239 0.0
H487 H 0.83601 0.10467 0.47832 0.0
H488 H 0.89856 0.15492 0.47191 0.0
H489 H 0.94008 0.08016 0.47628 0.0
H490 H 0.87802 0.02975 0.48315 0.0
H491 H 0.67932 0.86454 0.45088 0.0
H492 H 0.6983 0.92369 0.46463 0.0
H493 H 0.8053 0.93638 0.47399 0.0
H494 H 0.78724 0.879 0.45977 0.0
H495 H 0.81603 0.99848 0.46623 0.0
H496 H 0.73001 0.90605 0.50413 0.0
H497 H 0.66988 0.85436 0.51269 0.0
H498 H 0.61893 0.91938 0.503 0.0
H499 H 0.67873 0.97132 0.4942 0.0
C500 C 0.86166 0.10595 0.52949 0.0
C501 C 0.85141 0.13322 0.52971 0.0
C502 C 0.84227 0.07406 0.51999 0.0
C503 C 0.81186 0.06824 0.51048 0.0
C504 C 0.80013 0.09433 0.51132 0.0
C505 C 0.81987 0.12667 0.52077 0.0
C506 C 0.79465 0.03624 0.49886 0.0
C507 C 0.75923 0.00673 0.50209 0.0
C508 C 0.815 0.03314 0.4856 0.0
C509 C 0.85237 0.06348 0.48138 0.0
C510 C 0.85855 0.09904 0.47808 0.0
C511 C 0.89395 0.12757 0.47436 0.0
C512 C 0.92334 0.12081 0.47374 0.0
C513 C 0.91738 0.08547 0.47682 0.0
C514 C 0.88208 0.0569 0.48063 0.0
C515 C 0.70702 0.88027 0.45569 0.0
C516 C 0.73171 0.8669 0.45411 0.0
C517 C 0.7178 0.91399 0.46374 0.0
C518 C 0.75325 0.9347 0.47068 0.0
C519 C 0.77789 0.92144 0.46878 0.0
C520 C 0.76741 0.88831 0.46059 0.0
C521 C 0.76541 0.97 0.48002 0.0
C522 C 0.80009 1.00041 0.47635 0.0
C523 C 0.74459 0.97352 0.49304 0.0
C524 C 0.70871 0.94236 0.49832 0.0
C525 C 0.70592 0.9092 0.50371 0.0
C526 C 0.67192 0.87989 0.50863 0.0
C527 C 0.64058 0.88354 0.50833 0.0
C528 C 0.64321 0.91656 0.50318 0.0
C529 C 0.67714 0.94595 0.49824 0.0
H530 H 0.61428 0.86081 0.51214 0.0
H531 H 0.95069 0.14293 0.47082 0.0
H532 H 0.78828 0.89905 0.87097 0.0
H533 H 0.8135 0.86943 0.85353 0.0
H534 H 0.70403 0.78823 0.83853 0.0
H535 H 0.67839 0.81823 0.8559 0.0
H536 H 0.75269 0.75895 0.84612 0.0
H537 H 0.75117 0.85294 0.81255 0.0
H538 H 0.76393 0.91582 0.80644 0.0
H539 H 0.87975 0.95676 0.81201 0.0
H540 H 0.86765 0.89419 0.81841 0.0
H541 H 0.82878 0.69235 0.78465 0.0
H542 H 0.79031 0.71392 0.79805 0.0
H543 H 0.88704 0.81882 0.80757 0.0
H544 H 0.92479 0.79822 0.79368 0.0
H545 H 0.83696 0.83244 0.80072 0.0
H546 H 0.84158 0.7446 0.83758 0.0
H547 H 0.83275 0.68417 0.84593 0.0
H548 H 0.71683 0.6344 0.83665 0.0
H549 H 0.72507 0.69451 0.82806 0.0
C550 C 0.76938 0.87467 0.86412 0.0
C551 C 0.73119 0.86111 0.86488 0.0
C552 C 0.78395 0.85781 0.85406 0.0
C553 C 0.76079 0.82672 0.84455 0.0
C554 C 0.72253 0.8122 0.84571 0.0
C555 C 0.70788 0.8294 0.85566 0.0
C556 C 0.77696 0.81046 0.83308 0.0
C557 C 0.7706 0.77473 0.836 0.0
C558 C 0.80109 0.83127 0.82009 0.0
C559 C 0.80846 0.86888 0.81608 0.0
C560 C 0.77934 0.87538 0.81259 0.0
C561 C 0.78646 0.91097 0.80906 0.0
C562 C 0.82262 0.94028 0.80887 0.0
C563 C 0.85175 0.93404 0.81218 0.0
C564 C 0.84477 0.89851 0.81574 0.0
C565 C 0.84165 0.72024 0.78931 0.0
C566 C 0.87999 0.74344 0.78802 0.0
C567 C 0.81968 0.73248 0.79719 0.0
C568 C 0.83561 0.76797 0.80424 0.0
C569 C 0.87369 0.7914 0.80234 0.0
C570 C 0.89542 0.77943 0.79434 0.0
C571 C 0.81354 0.78099 0.81393 0.0
C572 C 0.81877 0.81627 0.8107 0.0
C573 C 0.78901 0.76004 0.82685 0.0
C574 C 0.78401 0.72392 0.83198 0.0
C575 C 0.81426 0.72071 0.8372 0.0
C576 C 0.80935 0.68654 0.842 0.0
C577 C 0.77427 0.65544 0.84177 0.0
C578 C 0.744 0.65849 0.83679 0.0
C579 C 0.74876 0.6926 0.83196 0.0
H580 H 0.77053 0.62901 0.84549 0.0
H581 H 0.82809 0.96782 0.80613 0.0
H582 H 0.90007 0.79266 0.20791 0.0
H583 H 0.95541 0.81412 0.19104 0.0
H584 H 0.9078 0.70798 0.16743 0.0
H585 H 0.85189 0.68666 0.18403 0.0
H586 H 0.007 0.79783 0.1872 0.0
H587 H 0.93727 0.7174 0.12748 0.0
H588 H 0.87738 0.69095 0.11324 0.0
H589 H 0.8554 0.76942 0.13709 0.0
H590 H 0.91533 0.7966 0.15131 0.0
H591 H 0.14954 0.82607 0.13053 0.0
H592 H 0.09219 0.79369 0.14653 0.0
H593 H 0.05099 0.85713 0.12205 0.0
H594 H 0.10801 0.88952 0.10618 0.0
H595 H 0.99632 0.78685 0.12611 0.0
H596 H 0.08852 0.88236 0.15966 0.0
H597 H 0.14867 0.91684 0.17354 0.0
H598 H 0.12574 0.8207 0.20154 0.0
H599 H 0.06557 0.78552 0.18765 0.0
C600 C 0.90139 0.77373 0.19921 0.0
C601 C 0.87129 0.73792 0.19733 0.0
C602 C 0.93323 0.78607 0.18955 0.0
C603 C 0.93594 0.76299 0.17769 0.0
C604 C 0.90638 0.72673 0.1762 0.0
C605 C 0.8744 0.71443 0.18581 0.0
C606 C 0.96922 0.77733 0.16669 0.0
C607 C 1.00449 0.79505 0.17386 0.0
C608 C 0.96651 0.77461 0.14919 0.0
C609 C 0.93058 0.75871 0.14059 0.0
C610 C 0.91968 0.72905 0.12964 0.0
C611 C 0.88573 0.71393 0.12158 0.0
C612 C 0.86254 0.72841 0.12431 0.0
C613 C 0.87332 0.75813 0.13505 0.0
C614 C 0.90725 0.77338 0.14312 0.0
C615 C 0.12792 0.83251 0.12829 0.0
C616 C 0.13346 0.86041 0.11703 0.0
C617 C 0.09521 0.81419 0.13756 0.0
C618 C 0.06721 0.82316 0.13568 0.0
C619 C 0.07198 0.8496 0.12379 0.0
C620 C 0.10473 0.86814 0.11469 0.0
C621 C 0.0339 0.80677 0.14666 0.0
C622 C 0.9987 0.78891 0.13948 0.0
C623 C 0.03667 0.81019 0.16411 0.0
C624 C 0.07277 0.8312 0.17248 0.0
C625 C 0.09645 0.86849 0.16867 0.0
C626 C 0.13051 0.88818 0.17656 0.0
C627 C 0.14108 0.87093 0.18837 0.0
C628 C 0.11754 0.834 0.19236 0.0
C629 C 0.08345 0.81417 0.18449 0.0
H630 H 0.16745 0.88622 0.19447 0.0
H631 H 0.83626 0.71664 0.11806 0.0
H632 H 0.21961 0.12128 0.45293 0.0
H633 H 0.1955 0.06342 0.46795 0.0
H634 H 0.30477 0.07888 0.47178 0.0
H635 H 0.32949 0.13765 0.45678 0.0
H636 H 0.2467 1.00338 0.46394 0.0
H637 H 0.27359 0.09839 0.50408 0.0
H638 H 0.27115 0.15182 0.51526 0.0
H639 H 0.15329 0.08804 0.51744 0.0
H640 H 0.15499 0.03436 0.50604 0.0
H641 H 0.18722 0.85802 0.52351 0.0
H642 H 0.22158 0.91636 0.50852 0.0
H643 H 0.12926 0.93432 0.51328 0.0
H644 H 0.09589 0.8773 0.52893 0.0
H645 H 0.18531 0.99548 0.51745 0.0
H646 H 0.15506 0.90325 0.47567 0.0
H647 H 0.15335 0.84933 0.46258 0.0
H648 H 0.2714 0.90573 0.46149 0.0
H649 H 0.2738 0.95986 0.47476 0.0
C650 C 0.23867 0.11235 0.45674 0.0
C651 C 0.27664 0.1344 0.45362 0.0
C652 C 0.22473 0.07916 0.46542 0.0
C653 C 0.24826 0.06681 0.47119 0.0
C654 C 0.28602 0.08781 0.46749 0.0
C655 C 0.30013 0.12141 0.45889 0.0
C656 C 0.23321 0.03293 0.4817 0.0
C657 C 0.23383 1.00178 0.47578 0.0
C658 C 0.21547 0.03037 0.49696 0.0
C659 C 0.21442 0.06244 0.50409 0.0
C660 C 0.24714 0.09583 0.50684 0.0
C661 C 0.24589 0.12615 0.51323 0.0
C662 C 0.21209 0.12335 0.51703 0.0
C663 C 0.17946 0.09017 0.51449 0.0
C664 C 0.18055 0.05978 0.50809 0.0
C665 C 0.17437 0.87454 0.52142 0.0
C666 C 0.13875 0.86286 0.52747 0.0
C667 C 0.19395 0.90788 0.51268 0.0
C668 C 0.17803 0.92994 0.50937 0.0
C669 C 0.14253 0.91825 0.51558 0.0
C670 C 0.12331 0.88541 0.52456 0.0
C671 C 0.19797 0.96518 0.49962 0.0
C672 C 0.19834 0.99682 0.50568 0.0
C673 C 0.21597 0.96789 0.48434 0.0
C674 C 0.21461 0.93541 0.47638 0.0
C675 C 0.18065 0.90404 0.47275 0.0
C676 C 0.17956 0.87346 0.46528 0.0
C677 C 0.21225 0.87406 0.46126 0.0
C678 C 0.2461 0.90528 0.46465 0.0
C679 C 0.24735 0.93592 0.47213 0.0
H680 H 0.21135 0.85036 0.45547 0.0
H681 H 0.21117 0.14686 0.52196 0.0
H682 H 0.23143 0.11905 0.87992 0.0
H683 H 0.20787 0.15292 0.8644 0.0
H684 H 0.29695 0.18789 0.82947 0.0
H685 H 0.32158 0.15541 0.84549 0.0
H686 H 0.2848 0.24116 0.83256 0.0
H687 H 0.20482 0.11353 0.82213 0.0
H688 H 0.16363 0.04816 0.82894 0.0
H689 H 0.08962 0.07545 0.85351 0.0
H690 H 0.13064 0.14108 0.84704 0.0
H691 H 0.12193 0.22363 0.77561 0.0
H692 H 0.1556 0.198 0.78968 0.0
H693 H 0.21064 0.29559 0.81986 0.0
H694 H 0.17837 0.32211 0.80504 0.0
H695 H 0.15235 0.17568 0.81807 0.0
H696 H 0.2883 0.3056 0.83751 0.0
H697 H 0.33159 0.36753 0.82681 0.0
H698 H 0.29716 0.32999 0.77713 0.0
H699 H 0.25401 0.26776 0.78751 0.0
C700 C 0.24622 0.13422 0.86901 0.0
C701 C 0.27835 0.13428 0.86394 0.0
C702 C 0.23252 0.15344 0.86002 0.0
C703 C 0.24992 0.17246 0.8454 0.0
C704 C 0.28272 0.17348 0.84061 0.0
C705 C 0.29682 0.15478 0.8498 0.0
C706 C 0.23345 0.19037 0.83494 0.0
C707 C 0.25581 0.22678 0.82942 0.0
C708 C 0.19577 0.17169 0.83034 0.0
C709 C 0.17098 0.13225 0.83424 0.0
C710 C 0.17988 0.10561 0.82908 0.0
C711 C 0.15655 0.06852 0.83287 0.0
C712 C 0.12408 0.05767 0.84169 0.0
C713 C 0.11482 0.0839 0.8467 0.0
C714 C 0.13808 0.12105 0.84297 0.0
C715 C 0.14191 0.24004 0.78497 0.0
C716 C 0.14768 0.27512 0.78905 0.0
C717 C 0.161 0.22518 0.79316 0.0
C718 C 0.18602 0.24459 0.80596 0.0
C719 C 0.19231 0.28006 0.80985 0.0
C720 C 0.17376 0.29532 0.80135 0.0
C721 C 0.20359 0.22668 0.81569 0.0
C722 C 0.18137 0.1902 0.82116 0.0
C723 C 0.24163 0.24487 0.81969 0.0
C724 C 0.26765 0.28214 0.81332 0.0
C725 C 0.29006 0.31055 0.8243 0.0
C726 C 0.31455 0.3457 0.81829 0.0
C727 C 0.31703 0.35272 0.80131 0.0
C728 C 0.29511 0.32456 0.79029 0.0
C729 C 0.27059 0.28936 0.79623 0.0
H730 H 0.33599 0.37996 0.79668 0.0
H731 H 0.10605 0.02893 0.84461 0.0
H732 H 0.66701 0.62968 0.19441 0.0
H733 H 0.60294 0.58189 0.18866 0.0
H734 H 0.58156 0.56616 0.24109 0.0
H735 H 0.64482 0.61301 0.24677 0.0
H736 H 0.54777 0.50205 0.22603 0.0
H737 H 0.56024 0.62203 0.21777 0.0
H738 H 0.5859 0.68296 0.20463 0.0
H739 H 0.54745 0.63182 0.15725 0.0
H740 H 0.52195 0.57051 0.1701 0.0
H741 H 0.36217 0.42784 0.23971 0.0
H742 H 0.42655 0.47623 0.2376 0.0
H743 H 0.42083 0.46552 0.1845 0.0
H744 H 0.3558 0.41733 0.18663 0.0
H745 H 0.46891 0.53895 0.19529 0.0
H746 H 0.45073 0.41752 0.20531 0.0
H747 H 0.42466 0.35797 0.21985 0.0
H748 H 0.47313 0.41367 0.26535 0.0
H749 H 0.49965 0.47357 0.25112 0.0
C750 C 0.64881 0.61523 0.20464 0.0
C751 C 0.66094 0.6251 0.22103 0.0
C752 C 0.6121 0.58825 0.20137 0.0
C753 C 0.58712 0.5707 0.21445 0.0
C754 C 0.60005 0.57919 0.23076 0.0
C755 C 0.63633 0.60608 0.234 0.0
C756 C 0.54707 0.54482 0.21159 0.0
C757 C 0.53063 0.51022 0.21929 0.0
C758 C 0.5245 0.55497 0.20257 0.0
C759 C 0.53963 0.59174 0.19485 0.0
C760 C 0.55752 0.62379 0.20453 0.0
C761 C 0.572 0.65839 0.19714 0.0
C762 C 0.56844 0.66128 0.1801 0.0
C763 C 0.55027 0.62955 0.17043 0.0
C764 C 0.5358 0.59486 0.17776 0.0
C765 C 0.37414 0.4371 0.22755 0.0
C766 C 0.35385 0.41935 0.21332 0.0
C767 C 0.4111 0.46438 0.22635 0.0
C768 C 0.42883 0.47394 0.21091 0.0
C769 C 0.4078 0.45855 0.19654 0.0
C770 C 0.37053 0.43134 0.19775 0.0
C771 C 0.46975 0.49679 0.21013 0.0
C772 C 0.48623 0.53061 0.20174 0.0
C773 C 0.49247 0.48612 0.21866 0.0
C774 C 0.47701 0.45005 0.22716 0.0
C775 C 0.45572 0.41708 0.21843 0.0
C776 C 0.44085 0.38327 0.22661 0.0
C777 C 0.44701 0.38205 0.24351 0.0
C778 C 0.46833 0.41465 0.25226 0.0
C779 C 0.48341 0.44853 0.24414 0.0
H780 H 0.43535 0.35584 0.24981 0.0
H781 H 0.57966 0.6881 0.17441 0.0
H782 H 0.05761 0.64174 0.58019 0.0
H783 H 0.04339 0.57851 0.5756 0.0
H784 H 0.04394 0.59447 0.52289 0.0
H785 H 0.05853 0.65839 0.52751 0.0
H786 H 0.98049 0.53224 0.53357 0.0
H787 H 0.10934 0.58103 0.53946 0.0
H788 H 0.1707 0.61762 0.55203 0.0
H789 H 0.13199 0.55387 0.5966 0.0
H790 H 0.07022 0.51721 0.58439 0.0
H791 H 0.94989 0.34551 0.52447 0.0
H792 H 0.96886 0.4111 0.5219 0.0
H793 H 0.98608 0.42404 0.57464 0.0
H794 H 0.96799 0.35924 0.57711 0.0
H795 H 0.04547 0.47319 0.55912 0.0
H796 H 0.91522 0.42956 0.55444 0.0
H797 H 0.85339 0.3935 0.54222 0.0
H798 H 0.89458 0.44757 0.49558 0.0
H799 H 0.95681 0.48363 0.50748 0.0
C800 C 0.05602 0.63221 0.56759 0.0
C801 C 0.05982 0.65523 0.5542 0.0
C802 C 0.04768 0.59593 0.56497 0.0
C803 C 0.04257 0.58157 0.54889 0.0
C804 C 0.04781 0.60492 0.53541 0.0
C805 C 0.0567 0.64159 0.53804 0.0
C806 C 0.02928 0.54156 0.54651 0.0
C807 C 0.99508 0.51938 0.53883 0.0
C808 C 0.04788 0.52457 0.55362 0.0
C809 C 0.08504 0.5465 0.56103 0.0
C810 C 0.11382 0.57498 0.55199 0.0
C811 C 0.1487 0.5957 0.55904 0.0
C812 C 0.15523 0.58812 0.57511 0.0
C813 C 0.1269 0.55973 0.58415 0.0
C814 C 0.09195 0.53892 0.57716 0.0
C815 C 0.95638 0.36214 0.53554 0.0
C816 C 0.9571 0.34722 0.55101 0.0
C817 C 0.96754 0.39972 0.53407 0.0
C818 C 0.97927 0.4228 0.54807 0.0
C819 C 0.97758 0.4071 0.56362 0.0
C820 C 0.96681 0.36991 0.56505 0.0
C821 C 0.99603 0.46363 0.54669 0.0
C822 C 0.03103 0.486 0.55364 0.0
C823 C 0.97809 0.48068 0.53895 0.0
C824 C 0.94075 0.45894 0.53179 0.0
C825 C 0.91117 0.43351 0.54153 0.0
C826 C 0.87603 0.41313 0.53468 0.0
C827 C 0.87008 0.41815 0.51812 0.0
C828 C 0.89925 0.44365 0.50839 0.0
C829 C 0.93444 0.46408 0.51519 0.0
H830 H 0.84286 0.40236 0.51283 0.0
H831 H 0.18225 0.6042 0.58055 0.0
H832 H 0.41091 0.04307 0.91479 0.0
H833 H 0.45638 0.0241 0.91009 0.0
H834 H 0.43921 0.02296 0.85747 0.0
H835 H 0.39311 0.04216 0.86219 0.0
H836 H 0.43752 0.95747 0.89608 0.0
H837 H 0.52377 0.03453 0.8395 0.0
H838 H 0.54589 0.09348 0.82485 0.0
H839 H 0.54361 0.14531 0.87028 0.0
H840 H 0.52196 0.08682 0.88522 0.0
H841 H 0.60755 0.94143 0.86312 0.0
H842 H 0.55728 0.95461 0.85799 0.0
H843 H 0.54659 0.96447 0.91053 0.0
H844 H 0.59609 0.95135 0.91561 0.0
H845 H 0.55619 0.01813 0.86585 0.0
H846 H 0.46076 0.93741 0.92124 0.0
H847 H 0.43897 0.87828 0.93562 0.0
H848 H 0.45896 0.83253 0.89199 0.0
H849 H 0.48036 0.89119 0.87726 0.0
C850 C 0.41748 0.0398 0.90216 0.0
C851 C 0.3984 0.04415 0.88886 0.0
C852 C 0.44333 0.02866 0.8995 0.0
C853 C 0.45094 0.02157 0.88346 0.0
C854 C 0.43386 0.02831 0.86998 0.0
C855 C 0.40777 0.0396 0.87266 0.0
C856 C 0.47438 0.00431 0.88137 0.0
C857 C 0.46354 0.97084 0.88951 0.0
C858 C 0.50755 0.02079 0.87219 0.0
C859 C 0.52074 0.05617 0.86341 0.0
C860 C 0.52803 0.05853 0.84635 0.0
C861 C 0.5405 0.09186 0.838 0.0
C862 C 0.54599 0.12308 0.84661 0.0
C863 C 0.53916 0.12106 0.8636 0.0
C864 C 0.52671 0.08781 0.87201 0.0
C865 C 0.59352 0.94517 0.87354 0.0
C866 C 0.60542 0.94488 0.88977 0.0
C867 C 0.56518 0.95321 0.8706 0.0
C868 C 0.54794 0.96042 0.88387 0.0
C869 C 0.55893 0.95853 0.90007 0.0
C870 C 0.58725 0.95092 0.90297 0.0
C871 C 0.51998 0.97207 0.88116 0.0
C872 C 0.52983 0.00435 0.87212 0.0
C873 C 0.48567 0.95441 0.88944 0.0
C874 C 0.47238 0.91883 0.89817 0.0
C875 C 0.4603 0.91468 0.91467 0.0
C876 C 0.44806 0.88125 0.9229 0.0
C877 C 0.44765 0.85169 0.91474 0.0
C878 C 0.4594 0.85548 0.89832 0.0
C879 C 0.47164 0.88884 0.89003 0.0
H880 H 0.43819 0.82584 0.92113 0.0
H881 H 0.55564 0.14885 0.84013 0.0
H882 H 0.62308 0.64045 0.40593 0.0
H883 H 0.57289 0.57676 0.40733 0.0
H884 H 0.55053 0.59397 0.4576 0.0
H885 H 0.60079 0.6582 0.45612 0.0
H886 H 0.56179 0.53419 0.4542 0.0
H887 H 0.48763 0.57727 0.42868 0.0
H888 H 0.47197 0.61062 0.40809 0.0
H889 H 0.47755 0.54371 0.36929 0.0
H890 H 0.49376 0.51028 0.38962 0.0
H891 H 0.403 0.35338 0.46097 0.0
H892 H 0.45165 0.4179 0.46167 0.0
H893 H 0.46772 0.41455 0.4091 0.0
H894 H 0.41785 0.3505 0.4084 0.0
H895 H 0.45781 0.46875 0.41521 0.0
H896 H 0.53494 0.42763 0.43999 0.0
H897 H 0.55233 0.39483 0.46014 0.0
H898 H 0.5431 0.45798 0.49972 0.0
H899 H 0.52518 0.49083 0.47983 0.0
C900 C 0.6064 0.63108 0.41703 0.0
C901 C 0.61532 0.65444 0.4308 0.0
C902 C 0.5779 0.59457 0.41788 0.0
C903 C 0.55793 0.58046 0.43259 0.0
C904 C 0.56553 0.60427 0.44612 0.0
C905 C 0.59381 0.6411 0.44518 0.0
C906 C 0.53156 0.54025 0.43411 0.0
C907 C 0.5386 0.51988 0.44589 0.0
C908 C 0.50202 0.52144 0.42294 0.0
C909 C 0.49221 0.54146 0.41067 0.0
C910 C 0.48582 0.56986 0.41574 0.0
C911 C 0.47678 0.58874 0.40412 0.0
C912 C 0.47385 0.57934 0.38739 0.0
C913 C 0.47986 0.55098 0.38225 0.0
C914 C 0.48893 0.53202 0.39383 0.0
C915 C 0.41826 0.36595 0.44975 0.0
C916 C 0.4074 0.34673 0.43471 0.0
C917 C 0.44592 0.40303 0.4501 0.0
C918 C 0.46359 0.42143 0.43543 0.0
C919 C 0.45453 0.40122 0.4206 0.0
C920 C 0.4265 0.36438 0.42022 0.0
C921 C 0.4883 0.46228 0.43513 0.0
C922 C 0.4809 0.48287 0.42359 0.0
C923 C 0.51766 0.4812 0.44645 0.0
C924 C 0.52834 0.46142 0.45843 0.0
C925 C 0.53631 0.4343 0.45301 0.0
C926 C 0.54633 0.41575 0.46438 0.0
C927 C 0.54872 0.42424 0.4812 0.0
C928 C 0.54118 0.45138 0.48669 0.0
C929 C 0.53113 0.47 0.47537 0.0
H930 H 0.55648 0.40985 0.48999 0.0
H931 H 0.46684 0.594 0.37841 0.0
H932 H 0.98872 0.62374 0.74588 0.0
H933 H 0.9986 0.57096 0.74601 0.0
H934 H 0.95662 0.54505 0.79582 0.0
H935 H 0.94616 0.59774 0.79556 0.0
H936 H 0.02669 0.55341 0.79241 0.0
H937 H 0.90976 0.48619 0.76561 0.0
H938 H 0.86262 0.47492 0.74464 0.0
H939 H 0.93539 0.47948 0.70618 0.0
H940 H 0.98318 0.49129 0.7269 0.0
H941 H 0.04297 0.39117 0.79758 0.0
H942 H 0.02735 0.44012 0.79858 0.0
H943 H 0.04616 0.45668 0.74599 0.0
H944 H 0.0599 0.40643 0.74498 0.0
H945 H 0.98459 0.45143 0.75201 0.0
H946 H 0.10275 0.52215 0.77754 0.0
H947 H 0.15208 0.53609 0.79772 0.0
H948 H 0.08059 0.52832 0.83745 0.0
H949 H 0.03065 0.51386 0.81752 0.0
C950 C 0.97991 0.60568 0.75654 0.0
C951 C 0.96571 0.61421 0.77053 0.0
C952 C 0.98593 0.57572 0.75668 0.0
C953 C 0.97845 0.55397 0.77094 0.0
C954 C 0.96252 0.56134 0.78467 0.0
C955 C 0.95593 0.59105 0.78442 0.0
C956 C 0.99052 0.526 0.77192 0.0
C957 C 0.01701 0.53067 0.78377 0.0
C958 C 0.97889 0.49709 0.76031 0.0
C959 C 0.95017 0.48993 0.74781 0.0
C960 C 0.91583 0.4851 0.75267 0.0
C961 C 0.88897 0.47855 0.74083 0.0
C962 C 0.89604 0.47657 0.72409 0.0
C963 C 0.92996 0.48105 0.71915 0.0
C964 C 0.95693 0.48763 0.73094 0.0
C965 C 0.0453 0.40642 0.78639 0.0
C966 C 0.05367 0.39578 0.77128 0.0
C967 C 0.0361 0.4343 0.78692 0.0
C968 C 0.03564 0.45255 0.77236 0.0
C969 C 0.0461 0.44316 0.75741 0.0
C970 C 0.05461 0.41485 0.75685 0.0
C971 C 0.02135 0.47898 0.77239 0.0
C972 C 0.99434 0.47404 0.76072 0.0
C973 C 0.0329 0.50795 0.78404 0.0
C974 C 0.06284 0.51653 0.79605 0.0
C975 C 0.09745 0.52311 0.79059 0.0
C976 C 0.12554 0.53117 0.80198 0.0
C977 C 0.11944 0.53298 0.81886 0.0
C978 C 0.08526 0.52684 0.82437 0.0
C979 C 0.05706 0.51875 0.81304 0.0
H980 H 0.14123 0.53924 0.82765 0.0
H981 H 0.8752 0.4715 0.71494 0.0
H982 H 0.34367 0.9496 0.12609 0.0
H983 H 0.40837 0.96622 0.12987 0.0
H984 H 0.42664 0.98531 0.07741 0.0
H985 H 0.36265 0.96976 0.07375 0.0
H986 H 0.45757 0.94628 0.11856 0.0
H987 H 0.50576 0.06281 0.07023 0.0
H988 H 0.48437 0.10261 0.05786 0.0
H989 H 0.42238 0.09252 0.10173 0.0
H990 H 0.4435 0.05283 0.11442 0.0
H991 H 0.65394 0.05889 0.08583 0.0
H992 H 0.59019 0.04618 0.08443 0.0
H993 H 0.58136 0.03394 0.13747 0.0
H994 H 0.64494 0.04645 0.1388 0.0
H995 H 0.54576 0.07114 0.09759 0.0
H996 H 0.49886 0.95553 0.14618 0.0
H997 H 0.5203 0.91556 0.15833 0.0
H998 H 0.58029 0.92432 0.11392 0.0
H999 H 0.55862 0.96369 0.10138 0.0
C1000 C 0.36122 0.95594 0.11533 0.0
C1001 C 0.34816 0.9581 0.09961 0.0
C1002 C 0.39827 0.96581 0.1175 0.0
C1003 C 0.4227 0.97799 0.10398 0.0
C1004 C 0.40865 0.97687 0.0881 0.0
C1005 C 0.37194 0.96749 0.08597 0.0
C1006 C 0.46318 0.99454 0.10648 0.0
C1007 C 0.47679 0.97379 0.11421 0.0
C1008 C 0.48849 0.0303 0.10059 0.0
C1009 C 0.47601 0.05461 0.09321 0.0
C1010 C 0.48766 0.06919 0.07726 0.0
C1011 C 0.47551 0.09165 0.07019 0.0
C1012 C 0.45187 0.09993 0.07899 0.0
C1013 C 0.44046 0.08586 0.0949 0.0
C1014 C 0.45248 0.06335 0.10203 0.0
C1015 C 0.63893 0.05536 0.09722 0.0
C1016 C 0.65452 0.05443 0.11245 0.0
C1017 C 0.60237 0.04767 0.09642 0.0
C1018 C 0.58071 0.03838 0.11081 0.0
C1019 C 0.59733 0.04055 0.12618 0.0
C1020 C 0.63383 0.04824 0.12696 0.0
C1021 C 0.54012 0.02283 0.10958 0.0
C1022 C 0.52652 0.04376 0.10206 0.0
C1023 C 0.51486 0.98725 0.11566 0.0
C1024 C 0.5274 0.96289 0.12293 0.0
C1025 C 0.51646 0.94877 0.13898 0.0
C1026 C 0.52865 0.9262 0.14593 0.0
C1027 C 0.55164 0.91743 0.13691 0.0
C1028 C 0.56248 0.93115 0.1209 0.0
C1029 C 0.55026 0.9536 0.11387 0.0
H1030 H 0.561 0.89992 0.1423 0.0
H1031 H 0.44249 0.11731 0.07349 0.0
H1032 H 0.2919 0.01697 0.14693 0.0
H1033 H 0.29483 0.07099 0.16051 0.0
H1034 H 0.21642 0.0687 0.12522 0.0
H1035 H 0.21292 0.01484 0.11211 0.0
H1036 H 0.31781 0.13704 0.14689 0.0
H1037 H 0.1646 0.09991 0.14174 0.0
H1038 H 0.10302 0.04479 0.14368 0.0
H1039 H 0.1466 0.99154 0.17405 0.0
H1040 H 0.20826 0.04653 0.17253 0.0
H1041 H 0.29652 0.29925 0.16319 0.0
H1042 H 0.29545 0.2478 0.14834 0.0
H1043 H 0.24402 0.17753 0.19057 0.0
H1044 H 0.23912 0.22657 0.20381 0.0
H1045 H 0.20947 0.14635 0.16407 0.0
H1046 H 0.3593 0.18836 0.17292 0.0
H1047 H 0.4233 0.23756 0.16801 0.0
H1048 H 0.38779 0.27627 0.12671 0.0
H1049 H 0.324 0.22629 0.13103 0.0
C1050 C 0.27505 0.02795 0.14236 0.0
C1051 C 0.25294 0.01285 0.12836 0.0
C1052 C 0.27675 0.05861 0.15002 0.0
C1053 C 0.25565 0.07356 0.14389 0.0
C1054 C 0.23243 0.05724 0.1303 0.0
C1055 C 0.23077 0.02683 0.12272 0.0
C1056 C 0.25939 0.10768 0.15082 0.0
C1057 C 0.29421 0.13917 0.15073 0.0
C1058 C 0.2284 0.11024 0.15559 0.0
C1059 C 0.19116 0.07729 0.15688 0.0
C1060 C 0.16101 0.07653 0.14891 0.0
C1061 C 0.12609 0.04529 0.14993 0.0
C1062 C 0.12093 0.01465 0.15894 0.0
C1063 C 0.15065 0.01525 0.16703 0.0
C1064 C 0.1856 0.04644 0.16608 0.0
C1065 C 0.28551 0.27279 0.16924 0.0
C1066 C 0.26998 0.26728 0.18508 0.0
C1067 C 0.28573 0.2436 0.16093 0.0
C1068 C 0.27153 0.20907 0.16863 0.0
C1069 C 0.25595 0.204 0.18443 0.0
C1070 C 0.25386 0.2323 0.19221 0.0
C1071 C 0.26823 0.17632 0.1601 0.0
C1072 C 0.23318 0.14458 0.15996 0.0
C1073 C 0.29902 0.17365 0.15487 0.0
C1074 C 0.3365 0.20556 0.15316 0.0
C1075 C 0.36507 0.20817 0.16316 0.0
C1076 C 0.40141 0.23566 0.16024 0.0
C1077 C 0.4095 0.26067 0.14732 0.0
C1078 C 0.38139 0.25754 0.137 0.0
C1079 C 0.34514 0.22965 0.13969 0.0
H1080 H 0.43762 0.28204 0.14513 0.0
H1081 H 0.09389 0.99047 0.15969 0.0
H1082 H 0.01854 0.28731 0.5052 0.0
H1083 H 0.07444 0.28935 0.49452 0.0
H1084 H 0.06255 0.20889 0.53105 0.0
H1085 H 1.00599 0.20524 0.54078 0.0
H1086 H 0.13534 0.31258 0.50922 0.0
H1087 H 0.1061 0.16438 0.52153 0.0
H1088 H 0.05426 0.1006 0.52045 0.0
H1089 H 1.00034 0.1323 0.48431 0.0
H1090 H 0.05181 0.19606 0.4851 0.0
H1091 H 0.29887 0.29056 0.4882 0.0
H1092 H 0.252 0.29093 0.50629 0.0
H1093 H 0.17242 0.24401 0.46687 0.0
H1094 H 0.21698 0.23784 0.45021 0.0
H1095 H 0.15223 0.20649 0.49676 0.0
H1096 H 0.17798 0.3536 0.48514 0.0
H1097 H 0.22586 0.41888 0.48729 0.0
H1098 H 0.2846 0.39091 0.52246 0.0
H1099 H 0.23589 0.32589 0.52121 0.0
C1100 C 0.02772 0.26963 0.51059 0.0
C1101 C 0.00913 0.24702 0.52405 0.0
C1102 C 0.05956 0.27087 0.50461 0.0
C1103 C 0.07274 0.24927 0.512 0.0
C1104 C 0.05273 0.22528 0.5249 0.0
C1105 C 0.02077 0.22365 0.53065 0.0
C1106 C 0.10869 0.25374 0.5071 0.0
C1107 C 0.13902 0.2894 0.50638 0.0
C1108 C 0.11374 0.22338 0.50409 0.0
C1109 C 0.0826 0.18505 0.50354 0.0
C1110 C 0.08316 0.15768 0.51335 0.0
C1111 C 0.0538 0.12153 0.5128 0.0
C1112 C 0.02388 0.1124 0.50238 0.0
C1113 C 0.02333 0.13939 0.49246 0.0
C1114 C 0.05255 0.17555 0.49298 0.0
C1115 C 0.27143 0.28099 0.48345 0.0
C1116 C 0.26194 0.26633 0.46743 0.0
C1117 C 0.24489 0.28196 0.49365 0.0
C1118 C 0.20914 0.2694 0.48765 0.0
C1119 C 0.20011 0.25492 0.47161 0.0
C1120 C 0.22577 0.25205 0.46193 0.0
C1121 C 0.17866 0.26557 0.49817 0.0
C1122 C 0.14882 0.22971 0.50004 0.0
C1123 C 0.1741 0.29583 0.50217 0.0
C1124 C 0.20468 0.33442 0.50214 0.0
C1125 C 0.20156 0.36129 0.49304 0.0
C1126 C 0.22844 0.39838 0.49437 0.0
C1127 C 0.25871 0.40896 0.50473 0.0
C1128 C 0.26164 0.38257 0.5141 0.0
C1129 C 0.23443 0.34555 0.51305 0.0
H1130 H 0.27961 0.43766 0.50568 0.0
H1131 H 1.00118 0.08441 0.50196 0.0
H1132 H 0.00872 0.20463 0.79182 0.0
H1133 H 0.96537 0.15533 0.80945 0.0
H1134 H 0.93046 0.22819 0.82999 0.0
H1135 H 0.97951 0.2792 0.81468 0.0
H1136 H 0.93407 0.19454 0.85282 0.0
H1137 H 0.84984 0.11207 0.79982 0.0
H1138 H 0.84676 0.0785 0.77414 0.0
H1139 H 0.9293 0.05643 0.79314 0.0
H1140 H 0.93189 0.08891 0.81902 0.0
H1141 H 0.73428 0.0301 0.85534 0.0
H1142 H 0.78839 0.08606 0.84525 0.0
H1143 H 0.85608 0.07176 0.88127 0.0
H1144 H 0.80199 0.01647 0.89158 0.0
H1145 H 0.84322 0.06993 0.83333 0.0
H1146 H 0.91243 0.13064 0.88709 0.0
H1147 H 0.92361 0.16367 0.9136 0.0
H1148 H 0.87461 0.22457 0.89423 0.0
H1149 H 0.86264 0.19132 0.86771 0.0
C1150 C 0.99145 0.20975 0.8001 0.0
C1151 C 0.99638 0.24517 0.80167 0.0
C1152 C 0.96577 0.18112 0.80992 0.0
C1153 C 0.94292 0.18686 0.82073 0.0
C1154 C 0.94756 0.22254 0.82185 0.0
C1155 C 0.97511 0.25172 0.81292 0.0
C1156 C 0.91622 0.15743 0.83195 0.0
C1157 C 0.91395 0.16749 0.84832 0.0
C1158 C 0.89138 0.12085 0.82686 0.0
C1159 C 0.89293 0.10513 0.81076 0.0
C1160 C 0.86818 0.10112 0.7982 0.0
C1161 C 0.86609 0.0818 0.78376 0.0
C1162 C 0.88857 0.06627 0.78181 0.0
C1163 C 0.91247 0.06917 0.79449 0.0
C1164 C 0.91411 0.08786 0.80906 0.0
C1165 C 0.76054 0.03978 0.86142 0.0
C1166 C 0.76418 0.01955 0.87428 0.0
C1167 C 0.79127 0.07181 0.85582 0.0
C1168 C 0.82612 0.0834 0.86274 0.0
C1169 C 0.82938 0.06411 0.87615 0.0
C1170 C 0.79854 0.03233 0.88189 0.0
C1171 C 0.85898 0.10898 0.85322 0.0
C1172 C 0.86294 0.0975 0.83748 0.0
C1173 C 0.88576 0.14383 0.85898 0.0
C1174 C 0.88544 0.1576 0.8757 0.0
C1175 C 0.90287 0.15012 0.88872 0.0
C1176 C 0.9099 0.1693 0.90364 0.0
C1177 C 0.89979 0.19618 0.90561 0.0
C1178 C 0.88232 0.20367 0.89271 0.0
C1179 C 0.87505 0.18439 0.87781 0.0
H1180 H 0.90541 0.21113 0.91714 0.0
H1181 H 0.88698 0.05144 0.77061 0.0
H1182 H 0.8168 0.04437 0.14358 0.0
H1183 H 0.83333 0.01404 0.16493 0.0
H1184 H 0.72136 0.96067 0.183 0.0
H1185 H 0.70827 0.99811 0.16423 0.0
H1186 H 0.75839 0.96506 0.20631 0.0
H1187 H 0.77901 0.93793 0.14703 0.0
H1188 H 0.81769 0.95569 0.12182 0.0
H1189 H 0.91066 0.9738 0.15092 0.0
H1190 H 0.87279 0.95707 0.17621 0.0
H1191 H 0.72016 0.77028 0.19427 0.0
H1192 H 0.72603 0.83074 0.18948 0.0
H1193 H 0.80711 0.87724 0.22826 0.0
H1194 H 0.8008 0.8168 0.23324 0.0
H1195 H 0.80681 0.88911 0.18231 0.0
H1196 H 0.80228 0.93001 0.23856 0.0
H1197 H 0.78089 0.93556 0.26625 0.0
H1198 H 0.67431 0.90439 0.24642 0.0
H1199 H 0.69522 0.89863 0.2186 0.0
C1200 C 0.79599 0.02637 0.15231 0.0
C1201 C 0.76003 0.0205 0.15142 0.0
C1202 C 0.8053 0.00866 0.16437 0.0
C1203 C 0.77796 0.98253 0.17477 0.0
C1204 C 0.74293 0.97953 0.17477 0.0
C1205 C 0.73469 0.99971 0.16362 0.0
C1206 C 0.78407 0.95655 0.18499 0.0
C1207 C 0.76865 0.94824 0.2009 0.0
C1208 C 0.80073 0.93661 0.17878 0.0
C1209 C 0.823 0.9464 0.16344 0.0
C1210 C 0.80754 0.94538 0.14793 0.0
C1211 C 0.82935 0.95545 0.13369 0.0
C1212 C 0.86646 0.96563 0.13475 0.0
C1213 C 0.88191 0.96594 0.15009 0.0
C1214 C 0.86032 0.95637 0.16438 0.0
C1215 C 0.73832 0.79323 0.20206 0.0
C1216 C 0.75964 0.78901 0.21423 0.0
C1217 C 0.74142 0.82756 0.19948 0.0
C1218 C 0.76644 0.85827 0.20878 0.0
C1219 C 0.78681 0.85378 0.22134 0.0
C1220 C 0.78337 0.81931 0.22406 0.0
C1221 C 0.77691 0.89521 0.20252 0.0
C1222 C 0.79628 0.90588 0.18755 0.0
C1223 C 0.76509 0.91803 0.20979 0.0
C1224 C 0.7499 0.91262 0.22666 0.0
C1225 C 0.7739 0.92301 0.24023 0.0
C1226 C 0.7621 0.92695 0.25588 0.0
C1227 C 0.72626 0.92032 0.2581 0.0
C1228 C 0.70204 0.90944 0.2447 0.0
C1229 C 0.71377 0.90559 0.22902 0.0
H1230 H 0.71721 0.92347 0.27022 0.0
H1231 H 0.88326 0.97334 0.1237 0.0
H1232 H 0.77636 0.79789 0.47825 0.0
H1233 H 0.81653 0.79478 0.49925 0.0
H1234 H 0.75672 0.67612 0.49506 0.0
H1235 H 0.71067 0.68043 0.47873 0.0
H1236 H 0.78754 0.68213 0.51768 0.0
H1237 H 0.84781 0.76618 0.46995 0.0
H1238 H 0.87089 0.82356 0.45379 0.0
H1239 H 0.92969 0.88637 0.49638 0.0
H1240 H 0.90676 0.82928 0.51263 0.0
H1241 H 0.9754 0.694 0.51514 0.0
H1242 H 0.91619 0.68546 0.50522 0.0
H1243 H 0.91611 0.75453 0.54466 0.0
H1244 H 0.97658 0.76617 0.55338 0.0
H1245 H 0.91809 0.77225 0.50641 0.0
H1246 H 0.80128 0.66495 0.54776 0.0
H1247 H 0.77314 0.60076 0.55747 0.0
H1248 H 0.82661 0.57623 0.51827 0.0
H1249 H 0.8542 0.63989 0.50814 0.0
C1250 C 0.77188 0.77125 0.48216 0.0
C1251 C 0.74335 0.73888 0.47531 0.0
C1252 C 0.79541 0.76943 0.49385 0.0
C1253 C 0.79324 0.73553 0.49731 0.0
C1254 C 0.76135 0.70322 0.4921 0.0
C1255 C 0.7356 0.70522 0.48196 0.0
C1256 C 0.82436 0.73312 0.50515 0.0
C1257 C 0.81589 0.70178 0.51473 0.0
C1258 C 0.86219 0.75905 0.50214 0.0
C1259 C 0.87548 0.79337 0.49239 0.0
C1260 C 0.866 0.79218 0.47568 0.0
C1261 C 0.87886 0.82464 0.46658 0.0
C1262 C 0.90183 0.85857 0.47404 0.0
C1263 C 0.91187 0.86007 0.49061 0.0
C1264 C 0.89885 0.82765 0.49977 0.0
C1265 C 0.96214 0.70655 0.52185 0.0
C1266 C 0.97956 0.72942 0.53546 0.0
C1267 C 0.92808 0.70107 0.51641 0.0
C1268 C 0.9109 0.71779 0.52477 0.0
C1269 C 0.92819 0.74013 0.5385 0.0
C1270 C 0.96262 0.74663 0.54352 0.0
C1271 C 0.88026 0.72008 0.51719 0.0
C1272 C 0.88928 0.75226 0.50847 0.0
C1273 C 0.84309 0.69415 0.52014 0.0
C1274 C 0.83104 0.65765 0.5276 0.0
C1275 C 0.80754 0.646 0.5414 0.0
C1276 C 0.79127 0.60956 0.54685 0.0
C1277 C 0.7981 0.58442 0.5385 0.0
C1278 C 0.82152 0.59578 0.5248 0.0
C1279 C 0.8378 0.63217 0.5193 0.0
H1280 H 0.78536 0.55619 0.54269 0.0
H1281 H 0.91179 0.8837 0.46698 0.0
H1282 H 0.20518 0.97746 0.89721 0.0
H1283 H 0.15218 0.91604 0.89401 0.0
H1284 H 0.20465 0.89797 0.85205 0.0
H1285 H 0.26002 0.95741 0.85689 0.0
H1286 H 0.11194 0.89997 0.86869 0.0
H1287 H 0.19408 0.84069 0.84881 0.0
H1288 H 0.23463 0.81593 0.85572 0.0
H1289 H 0.17521 0.77141 0.90097 0.0
H1290 H 0.13544 0.79765 0.89463 0.0
H1291 H 0.01787 0.79224 0.80484 0.0
H1292 H 0.05763 0.83129 0.82658 0.0
H1293 H 0.03048 0.73562 0.85647 0.0
H1294 H 0.99146 0.69578 0.83381 0.0
H1295 H 0.09955 0.77816 0.85762 0.0
H1296 H 1.00434 0.80069 0.86864 0.0
H1297 H 0.95232 0.81117 0.86367 0.0
H1298 H 0.02504 0.91466 0.84057 0.0
H1299 H 0.07742 0.9046 0.84511 0.0
C1300 C 0.20621 0.95934 0.88796 0.0
C1301 C 0.23734 0.97107 0.87793 0.0
C1302 C 0.17584 0.92434 0.88605 0.0
C1303 C 0.17501 0.90115 0.87336 0.0
C1304 C 0.2056 0.91368 0.86278 0.0
C1305 C 0.23679 0.94821 0.86519 0.0
C1306 C 0.13957 0.86822 0.86903 0.0
C1307 C 0.10934 0.87334 0.86629 0.0
C1308 C 0.13517 0.83279 0.86677 0.0
C1309 C 0.16306 0.8229 0.87168 0.0
C1310 C 0.19082 0.82731 0.86062 0.0
C1311 C 0.21334 0.81249 0.86431 0.0
C1312 C 0.20768 0.79228 0.87883 0.0
C1313 C 0.17973 0.78722 0.88977 0.0
C1314 C 0.15756 0.80253 0.88624 0.0
C1315 C 0.02029 0.77952 0.81608 0.0
C1316 C 1.0027 0.74125 0.81761 0.0
C1317 C 0.04244 0.80188 0.82867 0.0
C1318 C 0.04645 0.78653 0.84338 0.0
C1319 C 0.02752 0.74804 0.84527 0.0
C1320 C 1.00536 0.72538 0.83242 0.0
C1321 C 0.07378 0.81135 0.85561 0.0
C1322 C 0.10215 0.80473 0.86018 0.0
C1323 C 0.07624 0.84518 0.85988 0.0
C1324 C 0.04492 0.85187 0.85728 0.0
C1325 C 0.00926 0.82565 0.86245 0.0
C1326 C 0.97968 0.83151 0.8597 0.0
C1327 C 0.98538 0.86357 0.85182 0.0
C1328 C 0.02068 0.88987 0.84671 0.0
C1329 C 0.05037 0.88415 0.84942 0.0
H1330 H 0.96243 0.86803 0.84968 0.0
H1331 H 0.22487 0.78047 0.88158 0.0
H1332 H 0.35571 0.27539 0.38019 0.0
H1333 H 0.34194 0.28548 0.35186 0.0
H1334 H 0.22732 0.20697 0.35975 0.0
H1335 H 0.24136 0.19565 0.38778 0.0
H1336 H 0.30198 0.24311 0.3227 0.0
H1337 H 0.18539 0.26304 0.35105 0.0
H1338 H 0.1701 0.28329 0.37705 0.0
H1339 H 0.284 0.33983 0.39099 0.0
H1340 H 0.30008 0.32069 0.36495 0.0
H1341 H 0.19384 0.26086 0.26018 0.0
H1342 H 0.20123 0.24384 0.28827 0.0
H1343 H 0.28478 0.35592 0.29783 0.0
H1344 H 0.27916 0.37245 0.26933 0.0
H1345 H 0.22833 0.30587 0.32622 0.0
H1346 H 0.3235 0.32393 0.28799 0.0
H1347 H 0.35285 0.31771 0.26276 0.0
H1348 H 0.29912 0.20086 0.2699 0.0
H1349 H 0.26806 0.20621 0.29479 0.0
C1350 C 0.32809 0.25835 0.37545 0.0
C1351 C 0.29966 0.23445 0.38608 0.0
C1352 C 0.3201 0.26463 0.35937 0.0
C1353 C 0.28348 0.24764 0.35391 0.0
C1354 C 0.2557 0.22064 0.36383 0.0
C1355 C 0.26385 0.21376 0.37974 0.0
C1356 C 0.27379 0.26142 0.33893 0.0
C1357 C 0.28554 0.25645 0.32343 0.0
C1358 C 0.25353 0.28012 0.34001 0.0
C1359 C 0.24384 0.28995 0.35613 0.0
C1360 C 0.20714 0.27968 0.3597 0.0
C1361 C 0.19837 0.29115 0.37439 0.0
C1362 C 0.22611 0.31305 0.38558 0.0
C1363 C 0.26258 0.32299 0.38226 0.0
C1364 C 0.27151 0.31171 0.36757 0.0
C1365 C 0.21228 0.28231 0.26857 0.0
C1366 C 0.23589 0.31798 0.2626 0.0
C1367 C 0.21691 0.2724 0.28452 0.0
C1368 C 0.2442 0.29846 0.29491 0.0
C1369 C 0.26379 0.33537 0.28989 0.0
C1370 C 0.26001 0.345 0.27372 0.0
C1371 C 0.25536 0.28631 0.30994 0.0
C1372 C 0.24404 0.29176 0.32545 0.0
C1373 C 0.27705 0.26912 0.30892 0.0
C1374 C 0.29276 0.26541 0.29307 0.0
C1375 C 0.31696 0.29678 0.28391 0.0
C1376 C 0.33415 0.29345 0.26973 0.0
C1377 C 0.32792 0.25893 0.26476 0.0
C1378 C 0.30393 0.22759 0.27377 0.0
C1379 C 0.28631 0.23073 0.28784 0.0
H1380 H 0.34179 0.25648 0.25396 0.0
H1381 H 0.21933 0.32231 0.39684 0.0
H1382 H 0.91231 0.27188 0.60377 0.0
H1383 H 0.93332 0.28098 0.63254 0.0
H1384 H 0.95304 0.18992 0.62828 0.0
H1385 H 0.93008 0.17949 0.59989 0.0
H1386 H 0.92444 0.22448 0.66396 0.0
H1387 H 0.05678 0.25442 0.63045 0.0
H1388 H 0.09011 0.2796 0.6042 0.0
H1389 H 0.03526 0.34198 0.59769 0.0
H1390 H 1.00272 0.31826 0.62415 0.0
H1391 H 0.0524 0.23802 0.72292 0.0
H1392 H 0.02663 0.22468 0.695 0.0
H1393 H 0.05767 0.33852 0.68869 0.0
H1394 H 0.08184 0.35152 0.71698 0.0
H1395 H 0.06048 0.29651 0.65836 0.0
H1396 H 0.9836 0.29844 0.70161 0.0
H1397 H 0.9502 0.28369 0.72812 0.0
H1398 H 0.89256 0.16909 0.71543 0.0
H1399 H 0.92643 0.18304 0.68901 0.0
C1400 C 0.91826 0.25198 0.6094 0.0
C1401 C 0.91956 0.22497 0.59962 0.0
C1402 C 0.93105 0.2577 0.62573 0.0
C1403 C 0.94576 0.23681 0.63227 0.0
C1404 C 0.94217 0.20658 0.62334 0.0
C1405 C 0.92844 0.20026 0.6072 0.0
C1406 C 0.96985 0.2498 0.64701 0.0
C1407 C 0.95415 0.24002 0.66277 0.0
C1408 C 0.00859 0.27092 0.64539 0.0
C1409 C 0.02672 0.28392 0.6291 0.0
C1410 C 0.05174 0.27338 0.62337 0.0
C1411 C 0.0707 0.28762 0.60852 0.0
C1412 C 0.06481 0.31239 0.5993 0.0
C1413 C 0.03974 0.32275 0.60483 0.0
C1414 C 0.02099 0.30886 0.61974 0.0
C1415 C 0.05572 0.26063 0.71523 0.0
C1416 C 0.06923 0.29583 0.72207 0.0
C1417 C 0.04042 0.25284 0.69938 0.0
C1418 C 0.03952 0.28047 0.68999 0.0
C1419 C 0.05797 0.31681 0.69582 0.0
C1420 C 0.07247 0.3244 0.71186 0.0
C1421 C 0.01513 0.27047 0.67536 0.0
C1422 C 0.03079 0.28067 0.65958 0.0
C1423 C 0.9763 0.25058 0.67701 0.0
C1424 C 0.95795 0.24175 0.69341 0.0
C1425 C 0.96443 0.27 0.70461 0.0
C1426 C 0.94521 0.26182 0.71957 0.0
C1427 C 0.91907 0.22552 0.72337 0.0
C1428 C 0.91267 0.19722 0.7124 0.0
C1429 C 0.93197 0.20524 0.69747 0.0
H1430 H 0.90374 0.21932 0.73482 0.0
H1431 H 0.0798 0.32371 0.58791 0.0
H1432 H 0.68637 0.01525 0.06247 0.0
H1433 H 0.6757 0.98727 0.03511 0.0
H1434 H 0.78598 0.00416 0.03488 0.0
H1435 H 0.79639 0.03181 0.06262 0.0
H1436 H 0.70213 0.00463 0.00541 0.0
H1437 H 0.78433 0.92953 0.01632 0.0
H1438 H 0.80518 0.90611 0.03947 0.0
H1439 H 0.7157 0.89529 0.0694 0.0
H1440 H 0.69425 0.91841 0.04642 0.0
H1441 H 0.7355 0.89975 0.93899 0.0
H1442 H 0.74438 0.91476 0.96838 0.0
H1443 H 0.63355 0.8955 0.97163 0.0
H1444 H 0.62552 0.88251 0.94202 0.0
H1445 H 0.71878 0.89605 -0.00039 0.0
H1446 H 0.63073 0.9609 0.98904 0.0
H1447 H 0.60648 0.98274 0.96658 0.0
H1448 H 0.7032 0.01278 0.93772 0.0
H1449 H 0.72761 0.9901 0.95981 0.0
C1450 C 0.70877 0.0142 0.0563 0.0
C1451 C 0.74238 0.0262 0.06447 0.0
C1452 C 0.70257 0.99792 0.04071 0.0
C1453 C 0.72973 0.99288 0.03302 0.0
C1454 C 0.76436 0.00717 0.04068 0.0
C1455 C 0.7706 0.02361 0.05636 0.0
C1456 C 0.72064 0.97099 0.01746 0.0
C1457 C 0.70556 0.98075 0.00426 0.0
C1458 C 0.72517 0.93983 0.01579 0.0
C1459 C 0.73798 0.92609 0.02971 0.0
C1460 C 0.76914 0.92214 0.02785 0.0
C1461 C 0.78107 0.90895 0.04095 0.0
C1462 C 0.76188 0.89937 0.05593 0.0
C1463 C 0.73069 0.90293 0.05784 0.0
C1464 C 0.71868 0.91615 0.04479 0.0
C1465 C 0.71218 0.89628 0.9462 0.0
C1466 C 0.68011 0.89075 0.93816 0.0
C1467 C 0.71754 0.90558 0.963 0.0
C1468 C 0.69027 0.90811 0.97202 0.0
C1469 C 0.65552 0.89512 0.96475 0.0
C1470 C 0.65051 0.88657 0.94788 0.0
C1471 C 0.70004 0.92961 0.98771 0.0
C1472 C 0.71543 0.91995 0.00084 0.0
C1473 C 0.69533 0.96064 0.98948 0.0
C1474 C 0.68077 0.97358 0.97597 0.0
C1475 C 0.6467 0.97198 0.97784 0.0
C1476 C 0.63288 0.9843 0.96515 0.0
C1477 C 0.65319 0.99878 0.95065 0.0
C1478 C 0.68736 1.001 0.94883 0.0
C1479 C 0.7011 0.98825 0.96138 0.0
H1480 H 0.64255 0.00846 0.94086 0.0
H1481 H 0.7711 0.88904 0.06602 0.0
H1482 H 0.84441 0.72647 0.26749 0.0
H1483 H 0.84798 0.74118 0.29685 0.0
H1484 H 0.74036 0.64642 0.30412 0.0
H1485 H 0.73773 0.63133 0.27508 0.0
H1486 H 0.80411 0.7637 0.30548 0.0
H1487 H 0.71367 0.62892 0.34315 0.0
H1488 H 0.70864 0.56841 0.34745 0.0
H1489 H 0.82119 0.61254 0.33262 0.0
H1490 H 0.82712 0.67347 0.32845 0.0
H1491 H 0.67928 0.72777 0.38287 0.0
H1492 H 0.69655 0.71564 0.35567 0.0
H1493 H 0.8089 0.79997 0.36419 0.0
H1494 H 0.79172 0.81152 0.39159 0.0
H1495 H 0.75139 0.69194 0.3568 0.0
H1496 H 0.8448 0.82786 0.32325 0.0
H1497 H 0.85065 0.88873 0.31871 0.0
H1498 H 0.73414 0.84184 0.3252 0.0
H1499 H 0.72762 0.78071 0.32969 0.0
C1500 C 0.82298 0.70702 0.27563 0.0
C1501 C 0.79026 0.67844 0.26894 0.0
C1502 C 0.82459 0.71602 0.29241 0.0
C1503 C 0.79392 0.69574 0.30271 0.0
C1504 C 0.76451 0.66276 0.29661 0.0
C1505 C 0.76321 0.65369 0.2799 0.0
C1506 C 0.78879 0.71262 0.31802 0.0
C1507 C 0.7935 0.74822 0.31683 0.0
C1508 C 0.77398 0.69233 0.33278 0.0
C1509 C 0.77075 0.65578 0.33538 0.0
C1510 C 0.73743 0.62581 0.34089 0.0
C1511 C 0.7344 0.5914 0.34329 0.0
C1512 C 0.76455 0.58662 0.34027 0.0
C1513 C 0.79782 0.61626 0.33489 0.0
C1514 C 0.80101 0.65072 0.33248 0.0
C1515 C 0.70715 0.74534 0.37849 0.0
C1516 C 0.73403 0.77108 0.38919 0.0
C1517 C 0.71715 0.73789 0.36308 0.0
C1518 C 0.75408 0.75657 0.35802 0.0
C1519 C 0.78023 0.78532 0.36784 0.0
C1520 C 0.77029 0.79237 0.38339 0.0
C1521 C 0.766 0.7423 0.34393 0.0
C1522 C 0.76256 0.70736 0.34546 0.0
C1523 C 0.78219 0.76321 0.32954 0.0
C1524 C 0.78585 0.79988 0.32705 0.0
C1525 C 0.82047 0.8306 0.32376 0.0
C1526 C 0.8239 0.86513 0.3212 0.0
C1527 C 0.79282 0.8692 0.32178 0.0
C1528 C 0.75823 0.83871 0.32488 0.0
C1529 C 0.75468 0.80415 0.32749 0.0
H1530 H 0.79551 0.89592 0.31973 0.0
H1531 H 0.76214 0.55996 0.34213 0.0
H1532 H 0.11665 0.74774 0.60895 0.0
H1533 H 0.10444 0.75352 0.63799 0.0
H1534 H 0.08192 0.84017 0.62517 0.0
H1535 H 0.09721 0.83637 0.59643 0.0
H1536 H 0.09763 0.84753 0.65546 0.0
H1537 H 0.01189 0.74514 0.62364 0.0
H1538 H 0.99022 0.69083 0.6055 0.0
H1539 H 0.01878 0.63623 0.64258 0.0
H1540 H 0.04064 0.69016 0.66092 0.0
H1541 H 0.94575 0.71755 0.72174 0.0
H1542 H 0.96365 0.73543 0.69268 0.0
H1543 H 0.07615 0.80583 0.708 0.0
H1544 H 0.05858 0.78978 0.73642 0.0
H1545 H 1.00494 0.72225 0.67416 0.0
H1546 H 0.12679 0.87347 0.68337 0.0
H1547 H 0.13935 0.92841 0.69948 0.0
H1548 H 0.02344 0.88792 0.70426 0.0
H1549 H 0.01014 0.833 0.68798 0.0
C1550 C 0.11197 0.76995 0.61255 0.0
C1551 C 0.10736 0.79127 0.60042 0.0
C1552 C 0.1038 0.7725 0.6291 0.0
C1553 C 0.08999 0.7957 0.63362 0.0
C1554 C 0.09164 0.82139 0.622 0.0
C1555 C 0.10108 0.81966 0.60555 0.0
C1556 C 0.06963 0.78986 0.64951 0.0
C1557 C 0.07745 0.82016 0.65957 0.0
C1558 C 0.04153 0.75439 0.6545 0.0
C1559 C 0.02818 0.72178 0.64357 0.0
C1560 C 0.01368 0.7216 0.62787 0.0
C1561 C 1.00136 0.69091 0.61757 0.0
C1562 C 1.00332 0.66024 0.62284 0.0
C1563 C 0.01736 0.66005 0.63849 0.0
C1564 C 0.02962 0.69062 0.64887 0.0
C1565 C 0.974 0.73766 0.71887 0.0
C1566 C 1.00066 0.75198 0.73145 0.0
C1567 C 0.98432 0.7477 0.70227 0.0
C1568 C 0.02131 0.77238 0.69806 0.0
C1569 C 0.04734 0.78758 0.71076 0.0
C1570 C 0.03715 0.7779 0.72714 0.0
C1571 C 0.03424 0.77975 0.68054 0.0
C1572 C 0.02489 0.74973 0.67006 0.0
C1573 C 0.05961 0.81568 0.67485 0.0
C1574 C 0.06748 0.84895 0.68451 0.0
C1575 C 0.10396 0.87638 0.68775 0.0
C1576 C 0.11122 0.9075 0.69695 0.0
C1577 C 0.08221 0.91162 0.70292 0.0
C1578 C 0.04589 0.88465 0.69967 0.0
C1579 C 0.03848 0.85348 0.69048 0.0
H1580 H 0.08789 0.93573 0.71004 0.0
H1581 H 0.99385 0.63656 0.61482 0.0
H1582 H 0.18603 0.9443 0.04947 0.0
H1583 H 0.19841 0.97555 0.02276 0.0
H1584 H 0.29718 0.96877 0.0179 0.0
H1585 H 0.2847 0.9375 0.04457 0.0
H1586 H 0.30953 0.04102 0.02089 0.0
H1587 H 0.23541 0.93281 0.98715 0.0
H1588 H 0.1783 0.87568 0.98001 0.0
H1589 H 0.1198 0.9353 0.97763 0.0
H1590 H 0.17667 0.99281 0.98467 0.0
H1591 H 0.38126 0.11138 0.94265 0.0
H1592 H 0.36223 0.0917 0.97085 0.0
H1593 H 0.26154 0.0933 0.96213 0.0
H1594 H 0.28046 0.11182 0.93359 0.0
H1595 H 0.24473 0.02703 0.9679 0.0
H1596 H 0.32093 0.13713 0.99664 0.0
H1597 H 0.37686 0.1947 0.00432 0.0
H1598 H 0.43045 0.13393 0.01764 0.0
H1599 H 0.37507 0.07601 0.00979 0.0
C1600 C 0.2088 0.94689 0.04211 0.0
C1601 C 0.23445 0.93855 0.04911 0.0
C1602 C 0.21629 0.96547 0.02695 0.0
C1603 C 0.24924 0.97533 0.01855 0.0
C1604 C 0.27181 0.96181 0.02429 0.0
C1605 C 0.26418 0.9431 0.03937 0.0
C1606 C 0.26331 0.00469 0.00575 0.0
C1607 C 0.29577 0.03787 0.00914 0.0
C1608 C 0.2442 1.00134 0.99092 0.0
C1609 C 0.21011 0.96695 0.9866 0.0
C1610 C 0.21029 0.93365 0.98519 0.0
C1611 C 0.17801 0.90124 0.98112 0.0
C1612 C 0.14539 0.90182 0.97847 0.0
C1613 C 0.14504 0.93486 0.97977 0.0
C1614 C 0.17732 0.96739 0.98372 0.0
C1615 C 0.35644 0.11049 0.9471 0.0
C1616 C 0.33152 0.1113 0.93574 0.0
C1617 C 0.34512 0.09848 0.9633 0.0
C1618 C 0.30965 0.08953 0.96857 0.0
C1619 C 0.28863 0.09902 0.95828 0.0
C1620 C 0.29998 0.11069 0.942 0.0
C1621 C 0.29205 0.06335 0.98262 0.0
C1622 C 0.25867 0.03065 0.9796 0.0
C1623 C 0.31025 0.06734 0.99787 0.0
C1624 C 0.34383 0.10217 0.00251 0.0
C1625 C 0.34474 0.13603 0.00106 0.0
C1626 C 0.37634 0.16874 0.00548 0.0
C1627 C 0.40721 0.16798 0.01144 0.0
C1628 C 0.40652 0.13449 0.01302 0.0
C1629 C 0.375 0.10169 0.00861 0.0
H1630 H 0.43164 0.19334 0.01486 0.0
H1631 H 0.12043 0.8767 0.97532 0.0
loop_
_geom_bond_atom_site_label_1
_geom_bond_atom_site_label_2
_geom_bond_distance
_geom_bond_site_symmetry_2
_ccdc_geom_bond_type
Mn0 O5 2.095 . S
Mn0 O15 2.162 . S
Mn0 O16 2.297 . S
Mn0 O24 2.385 . S
Mn0 O25 2.209 . S
Mn0 O26 2.094 . S
Mn1 O6 2.121 . S
Mn1 N8 2.257 . S
Mn1 N17 2.282 . S
Mn1 O25 2.215 . S
Mn1 O27 2.117 . S
C2 O24 1.234 . S
C2 O25 1.283 . S
C3 O15 1.281 . S
C3 O16 1.236 . S
C4 O26 1.240 . S
C4 O27 1.264 . S
O5 Mn0 2.095 . S
O5 C14 1.250 . S
O6 Mn1 2.121 . S
O6 C14 1.258 . S
C7 N8 1.326 . S
C7 C11 1.460 . S
C7 H13 0.929 . S
N8 Mn1 2.257 . S
N8 C7 1.326 . S
N8 C12 1.362 . S
C9 C10 1.258 . S
C9 C12 1.431 . S
C9 C29 1.449 . S
C10 C9 1.258 . S
C10 C11 1.477 . S
C10 H30 0.931 . S
C11 C7 1.460 . S
C11 C10 1.477 . S
C11 H31 0.930 . S
C12 N8 1.362 . S
C12 C9 1.431 . S
C12 C22 1.476 . S
H13 C7 0.929 . S
C14 O5 1.250 . S
C14 O6 1.258 . S
O15 Mn0 2.162 . S
O15 C3 1.281 . S
O16 Mn0 2.297 . S
O16 C3 1.236 . S
N17 Mn1 2.282 . S
N17 C18 1.328 . S
N17 C22 1.318 . S
C18 N17 1.328 . S
C18 C19 1.457 . S
C18 H23 0.929 . S
C19 C18 1.457 . S
C19 C20 1.291 . S
C19 H32 0.931 . S
C20 C19 1.291 . S
C20 C21 1.373 . S
C20 H33 0.929 . S
C21 C20 1.373 . S
C21 C22 1.396 . S
C21 C28 1.403 . S
C22 C12 1.476 . S
C22 N17 1.318 . S
C22 C21 1.396 . S
H23 C18 0.929 . S
O24 Mn0 2.385 . S
O24 C2 1.234 . S
O25 Mn0 2.209 . S
O25 Mn1 2.215 . S
O25 C2 1.283 . S
O26 Mn0 2.094 . S
O26 C4 1.240 . S
O27 Mn1 2.117 . S
O27 C4 1.264 . S
C28 C21 1.403 . S
C28 C29 1.399 . S
C28 H34 0.929 . S
C29 C9 1.449 . S
C29 C28 1.399 . S
C29 H35 0.930 . S
H30 C10 0.931 . S
H31 C11 0.930 . S
H32 C19 0.931 . S
H33 C20 0.929 . S
H34 C28 0.929 . S
H35 C29 0.930 . S
Mn36 O41 2.095 . S
Mn36 O51 2.162 . S
Mn36 O52 2.297 . S
Mn36 O60 2.385 . S
Mn36 O61 2.209 1_655 S
Mn36 O62 2.094 . S
Mn37 O42 2.121 1_455 S
Mn37 N44 2.257 . S
Mn37 N53 2.282 . S
Mn37 O61 2.215 . S
Mn37 O63 2.117 1_455 S
C38 O60 1.234 1_455 S
C38 O61 1.283 . S
C39 O51 1.281 . S
C39 O52 1.236 . S
C40 O62 1.240 . S
C40 O63 1.264 . S
O41 Mn36 2.095 . S
O41 C50 1.250 . S
O42 Mn37 2.121 1_655 S
O42 C50 1.258 . S
C43 N44 1.326 . S
C43 C47 1.460 . S
C43 H49 0.929 . S
N44 Mn37 2.257 . S
N44 C43 1.326 . S
N44 C48 1.362 . S
C45 C46 1.258 . S
C45 C48 1.431 . S
C45 C65 1.449 . S
C46 C45 1.258 . S
C46 C47 1.477 . S
C46 H66 0.931 . S
C47 C43 1.460 . S
C47 C46 1.477 . S
C47 H67 0.930 . S
C48 N44 1.362 . S
C48 C45 1.431 . S
C48 C58 1.476 . S
H49 C43 0.929 . S
C50 O41 1.250 . S
C50 O42 1.258 . S
O51 Mn36 2.162 . S
O51 C39 1.281 . S
O52 Mn36 2.297 . S
O52 C39 1.236 . S
N53 Mn37 2.282 . S
N53 C54 1.328 . S
N53 C58 1.318 . S
C54 N53 1.328 . S
C54 C55 1.457 . S
C54 H59 0.929 . S
C55 C54 1.457 . S
C55 C56 1.291 . S
C55 H68 0.931 . S
C56 C55 1.291 . S
C56 C57 1.373 . S
C56 H69 0.929 . S
C57 C56 1.373 . S
C57 C58 1.396 . S
C57 C64 1.403 . S
C58 C48 1.476 . S
C58 N53 1.318 . S
C58 C57 1.396 . S
H59 C54 0.929 . S
O60 Mn36 2.385 . S
O60 C38 1.234 1_655 S
O61 Mn36 2.209 1_455 S
O61 Mn37 2.215 . S
O61 C38 1.283 . S
O62 Mn36 2.094 . S
O62 C40 1.240 . S
O63 Mn37 2.117 1_655 S
O63 C40 1.264 . S
C64 C57 1.403 . S
C64 C65 1.399 . S
C64 H70 0.929 . S
C65 C45 1.449 . S
C65 C64 1.399 . S
C65 H71 0.930 . S
H66 C46 0.931 . S
H67 C47 0.930 . S
H68 C55 0.931 . S
H69 C56 0.929 . S
H70 C64 0.929 . S
H71 C65 0.930 . S
Mn72 O77 2.095 . S
Mn72 O87 2.162 . S
Mn72 O88 2.297 . S
Mn72 O96 2.385 . S
Mn72 O97 2.209 1_565 S
Mn72 O98 2.094 . S
Mn73 O78 2.121 1_545 S
Mn73 N80 2.257 . S
Mn73 N89 2.282 . S
Mn73 O97 2.215 . S
Mn73 O99 2.117 1_545 S
C74 O96 1.234 1_545 S
C74 O97 1.283 . S
C75 O87 1.281 . S
C75 O88 1.236 . S
C76 O98 1.240 . S
C76 O99 1.264 . S
O77 Mn72 2.095 . S
O77 C86 1.250 . S
O78 Mn73 2.121 1_565 S
O78 C86 1.258 . S
C79 N80 1.326 . S
C79 C83 1.460 . S
C79 H85 0.929 . S
N80 Mn73 2.257 . S
N80 C79 1.326 . S
N80 C84 1.362 . S
C81 C82 1.258 . S
C81 C84 1.431 . S
C81 C101 1.449 . S
C82 C81 1.258 . S
C82 C83 1.477 . S
C82 H102 0.931 . S
C83 C79 1.460 . S
C83 C82 1.477 . S
C83 H103 0.930 . S
C84 N80 1.362 . S
C84 C81 1.431 . S
C84 C94 1.476 . S
H85 C79 0.929 . S
C86 O77 1.250 . S
C86 O78 1.258 . S
O87 Mn72 2.162 . S
O87 C75 1.281 . S
O88 Mn72 2.297 . S
O88 C75 1.236 . S
N89 Mn73 2.282 . S
N89 C90 1.328 . S
N89 C94 1.318 . S
C90 N89 1.328 . S
C90 C91 1.457 . S
C90 H95 0.929 . S
C91 C90 1.457 . S
C91 C92 1.291 . S
C91 H104 0.931 . S
C92 C91 1.291 . S
C92 C93 1.373 . S
C92 H105 0.929 . S
C93 C92 1.373 . S
C93 C94 1.396 . S
C93 C100 1.403 . S
C94 C84 1.476 . S
C94 N89 1.318 . S
C94 C93 1.396 . S
H95 C90 0.929 . S
O96 Mn72 2.385 . S
O96 C74 1.234 1_565 S
O97 Mn72 2.209 1_545 S
O97 Mn73 2.215 . S
O97 C74 1.283 . S
O98 Mn72 2.094 . S
O98 C76 1.240 . S
O99 Mn73 2.117 1_565 S
O99 C76 1.264 . S
C100 C93 1.403 . S
C100 C101 1.399 . S
C100 H106 0.929 . S
C101 C81 1.449 . S
C101 C100 1.399 . S
C101 H107 0.930 . S
H102 C82 0.931 . S
H103 C83 0.930 . S
H104 C91 0.931 . S
H105 C92 0.929 . S
H106 C100 0.929 . S
H107 C101 0.930 . S
Mn108 O113 2.095 . S
Mn108 O123 2.162 . S
Mn108 O124 2.297 . S
Mn108 O132 2.385 . S
Mn108 O133 2.209 . S
Mn108 O134 2.094 . S
Mn109 O114 2.121 . S
Mn109 N116 2.257 . S
Mn109 N125 2.282 . S
Mn109 O133 2.215 . S
Mn109 O135 2.117 . S
C110 O132 1.234 . S
C110 O133 1.283 . S
C111 O123 1.281 . S
C111 O124 1.236 . S
C112 O134 1.240 . S
C112 O135 1.264 . S
O113 Mn108 2.095 . S
O113 C122 1.250 . S
O114 Mn109 2.121 . S
O114 C122 1.258 . S
C115 N116 1.326 . S
C115 C119 1.460 . S
C115 H121 0.929 . S
N116 Mn109 2.257 . S
N116 C115 1.326 . S
N116 C120 1.362 . S
C117 C118 1.258 . S
C117 C120 1.431 . S
C117 C137 1.449 . S
C118 C117 1.258 . S
C118 C119 1.477 . S
C118 H138 0.931 . S
C119 C115 1.460 . S
C119 C118 1.477 . S
C119 H139 0.930 . S
C120 N116 1.362 . S
C120 C117 1.431 . S
C120 C130 1.476 . S
H121 C115 0.929 . S
C122 O113 1.250 . S
C122 O114 1.258 . S
O123 Mn108 2.162 . S
O123 C111 1.281 . S
O124 Mn108 2.297 . S
O124 C111 1.236 . S
N125 Mn109 2.282 . S
N125 C126 1.328 . S
N125 C130 1.318 . S
C126 N125 1.328 . S
C126 C127 1.457 . S
C126 H131 0.929 . S
C127 C126 1.457 . S
C127 C128 1.291 . S
C127 H140 0.931 . S
C128 C127 1.291 . S
C128 C129 1.373 . S
C128 H141 0.929 . S
C129 C128 1.373 . S
C129 C130 1.396 . S
C129 C136 1.403 . S
C130 C120 1.476 . S
C130 N125 1.318 . S
C130 C129 1.396 . S
H131 C126 0.929 . S
O132 Mn108 2.385 . S
O132 C110 1.234 . S
O133 Mn108 2.209 . S
O133 Mn109 2.215 . S
O133 C110 1.283 . S
O134 Mn108 2.094 . S
O134 C112 1.240 . S
O135 Mn109 2.117 . S
O135 C112 1.264 . S
C136 C129 1.403 . S
C136 C137 1.399 . S
C136 H142 0.929 . S
C137 C117 1.449 . S
C137 C136 1.399 . S
C137 H143 0.930 . S
H138 C118 0.931 . S
H139 C119 0.930 . S
H140 C127 0.931 . S
H141 C128 0.929 . S
H142 C136 0.929 . S
H143 C137 0.930 . S
Mn144 O149 2.095 . S
Mn144 O159 2.162 . S
Mn144 O160 2.297 . S
Mn144 O168 2.385 . S
Mn144 O169 2.209 1_455 S
Mn144 O170 2.094 . S
Mn145 O150 2.121 1_655 S
Mn145 N152 2.257 . S
Mn145 N161 2.282 . S
Mn145 O169 2.215 . S
Mn145 O171 2.117 1_655 S
C146 O168 1.234 1_655 S
C146 O169 1.283 . S
C147 O159 1.281 . S
C147 O160 1.236 . S
C148 O170 1.240 . S
C148 O171 1.264 . S
O149 Mn144 2.095 . S
O149 C158 1.250 . S
O150 Mn145 2.121 1_455 S
O150 C158 1.258 . S
C151 N152 1.326 . S
C151 C155 1.460 . S
C151 H157 0.929 . S
N152 Mn145 2.257 . S
N152 C151 1.326 . S
N152 C156 1.362 . S
C153 C154 1.258 . S
C153 C156 1.431 . S
C153 C173 1.449 . S
C154 C153 1.258 . S
C154 C155 1.477 . S
C154 H174 0.931 . S
C155 C151 1.460 . S
C155 C154 1.477 . S
C155 H175 0.930 . S
C156 N152 1.362 . S
C156 C153 1.431 . S
C156 C166 1.476 . S
H157 C151 0.929 . S
C158 O149 1.250 . S
C158 O150 1.258 . S
O159 Mn144 2.162 . S
O159 C147 1.281 . S
O160 Mn144 2.297 . S
O160 C147 1.236 . S
N161 Mn145 2.282 . S
N161 C162 1.328 . S
N161 C166 1.318 . S
C162 N161 1.328 . S
C162 C163 1.457 . S
C162 H167 0.929 . S
C163 C162 1.457 . S
C163 C164 1.291 . S
C163 H176 0.931 . S
C164 C163 1.291 . S
C164 C165 1.373 . S
C164 H177 0.929 . S
C165 C164 1.373 . S
C165 C166 1.396 . S
C165 C172 1.403 . S
C166 C156 1.476 . S
C166 N161 1.318 . S
C166 C165 1.396 . S
H167 C162 0.929 . S
O168 Mn144 2.385 . S
O168 C146 1.234 1_455 S
O169 Mn144 2.209 1_655 S
O169 Mn145 2.215 . S
O169 C146 1.283 . S
O170 Mn144 2.094 . S
O170 C148 1.240 . S
O171 Mn145 2.117 1_455 S
O171 C148 1.264 . S
C172 C165 1.403 . S
C172 C173 1.399 . S
C172 H178 0.929 . S
C173 C153 1.449 . S
C173 C172 1.399 . S
C173 H179 0.930 . S
H174 C154 0.931 . S
H175 C155 0.930 . S
H176 C163 0.931 . S
H177 C164 0.929 . S
H178 C172 0.929 . S
H179 C173 0.930 . S
Mn180 O185 2.095 . S
Mn180 O195 2.162 . S
Mn180 O196 2.297 . S
Mn180 O204 2.385 . S
Mn180 O205 2.209 1_545 S
Mn180 O206 2.094 . S
Mn181 O186 2.121 1_565 S
Mn181 N188 2.257 . S
Mn181 N197 2.282 . S
Mn181 O205 2.215 . S
Mn181 O207 2.117 1_565 S
C182 O204 1.234 1_565 S
C182 O205 1.283 . S
C183 O195 1.281 . S
C183 O196 1.236 . S
C184 O206 1.240 . S
C184 O207 1.264 . S
O185 Mn180 2.095 . S
O185 C194 1.250 . S
O186 Mn181 2.121 1_545 S
O186 C194 1.258 . S
C187 N188 1.326 . S
C187 C191 1.460 . S
C187 H193 0.929 . S
N188 Mn181 2.257 . S
N188 C187 1.326 . S
N188 C192 1.362 . S
C189 C190 1.258 . S
C189 C192 1.431 . S
C189 C209 1.449 . S
C190 C189 1.258 . S
C190 C191 1.477 . S
C190 H210 0.931 . S
C191 C187 1.460 . S
C191 C190 1.477 . S
C191 H211 0.930 . S
C192 N188 1.362 . S
C192 C189 1.431 . S
C192 C202 1.476 . S
H193 C187 0.929 . S
C194 O185 1.250 . S
C194 O186 1.258 . S
O195 Mn180 2.162 . S
O195 C183 1.281 . S
O196 Mn180 2.297 . S
O196 C183 1.236 . S
N197 Mn181 2.282 . S
N197 C198 1.328 . S
N197 C202 1.318 . S
C198 N197 1.328 . S
C198 C199 1.457 . S
C198 H203 0.929 . S
C199 C198 1.457 . S
C199 C200 1.291 . S
C199 H212 0.931 . S
C200 C199 1.291 . S
C200 C201 1.373 . S
C200 H213 0.929 . S
C201 C200 1.373 . S
C201 C202 1.396 . S
C201 C208 1.403 . S
C202 C192 1.476 . S
C202 N197 1.318 . S
C202 C201 1.396 . S
H203 C198 0.929 . S
O204 Mn180 2.385 . S
O204 C182 1.234 1_545 S
O205 Mn180 2.209 1_565 S
O205 Mn181 2.215 . S
O205 C182 1.283 . S
O206 Mn180 2.094 . S
O206 C184 1.240 . S
O207 Mn181 2.117 1_545 S
O207 C184 1.264 . S
C208 C201 1.403 . S
C208 C209 1.399 . S
C208 H214 0.929 . S
C209 C189 1.449 . S
C209 C208 1.399 . S
C209 H215 0.930 . S
H210 C190 0.931 . S
H211 C191 0.930 . S
H212 C199 0.931 . S
H213 C200 0.929 . S
H214 C208 0.929 . S
H215 C209 0.930 . S
Mn216 O221 2.095 . S
Mn216 O231 2.162 . S
Mn216 O232 2.297 . S
Mn216 O240 2.385 . S
Mn216 O241 2.209 . S
Mn216 O242 2.094 . S
Mn217 O222 2.121 . S
Mn217 N224 2.257 . S
Mn217 N233 2.282 . S
Mn217 O241 2.215 . S
Mn217 O243 2.117 . S
C218 O240 1.234 . S
C218 O241 1.283 . S
C219 O231 1.281 . S
C219 O232 1.236 . S
C220 O242 1.240 . S
C220 O243 1.264 . S
O221 Mn216 2.095 . S
O221 C230 1.250 . S
O222 Mn217 2.121 . S
O222 C230 1.258 . S
C223 N224 1.326 . S
C223 C227 1.460 . S
C223 H229 0.929 . S
N224 Mn217 2.257 . S
N224 C223 1.326 . S
N224 C228 1.362 . S
C225 C226 1.258 . S
C225 C228 1.431 . S
C225 C245 1.449 . S
C226 C225 1.258 . S
C226 C227 1.477 . S
C226 H246 0.931 . S
C227 C223 1.460 . S
C227 C226 1.477 . S
C227 H247 0.930 . S
C228 N224 1.362 . S
C228 C225 1.431 . S
C228 C238 1.476 . S
H229 C223 0.929 . S
C230 O221 1.250 . S
C230 O222 1.258 . S
O231 Mn216 2.162 . S
O231 C219 1.281 . S
O232 Mn216 2.297 . S
O232 C219 1.236 . S
N233 Mn217 2.282 . S
N233 C234 1.328 . S
N233 C238 1.318 . S
C234 N233 1.328 . S
C234 C235 1.457 . S
C234 H239 0.929 . S
C235 C234 1.457 . S
C235 C236 1.291 . S
C235 H248 0.931 . S
C236 C235 1.291 . S
C236 C237 1.373 . S
C236 H249 0.929 . S
C237 C236 1.373 . S
C237 C238 1.396 . S
C237 C244 1.403 . S
C238 C228 1.476 . S
C238 N233 1.318 . S
C238 C237 1.396 . S
H239 C234 0.929 . S
O240 Mn216 2.385 . S
O240 C218 1.234 . S
O241 Mn216 2.209 . S
O241 Mn217 2.215 . S
O241 C218 1.283 . S
O242 Mn216 2.094 . S
O242 C220 1.240 . S
O243 Mn217 2.117 . S
O243 C220 1.264 . S
C244 C237 1.403 . S
C244 C245 1.399 . S
C244 H250 0.929 . S
C245 C225 1.449 . S
C245 C244 1.399 . S
C245 H251 0.930 . S
H246 C226 0.931 . S
H247 C227 0.930 . S
H248 C235 0.931 . S
H249 C236 0.929 . S
H250 C244 0.929 . S
H251 C245 0.930 . S
Mn252 O257 2.095 . S
Mn252 O267 2.162 . S
Mn252 O268 2.297 . S
Mn252 O276 2.385 . S
Mn252 O277 2.209 1_655 S
Mn252 O278 2.094 . S
Mn253 O258 2.121 1_455 S
Mn253 N260 2.257 . S
Mn253 N269 2.282 . S
Mn253 O277 2.215 . S
Mn253 O279 2.117 1_455 S
C254 O276 1.234 1_455 S
C254 O277 1.283 . S
C255 O267 1.281 . S
C255 O268 1.236 . S
C256 O278 1.240 . S
C256 O279 1.264 . S
O257 Mn252 2.095 . S
O257 C266 1.250 . S
O258 Mn253 2.121 1_655 S
O258 C266 1.258 . S
C259 N260 1.326 . S
C259 C263 1.460 . S
C259 H265 0.929 . S
N260 Mn253 2.257 . S
N260 C259 1.326 . S
N260 C264 1.362 . S
C261 C262 1.258 . S
C261 C264 1.431 . S
C261 C281 1.449 . S
C262 C261 1.258 . S
C262 C263 1.477 . S
C262 H282 0.931 . S
C263 C259 1.460 . S
C263 C262 1.477 . S
C263 H283 0.930 . S
C264 N260 1.362 . S
C264 C261 1.431 . S
C264 C274 1.476 . S
H265 C259 0.929 . S
C266 O257 1.250 . S
C266 O258 1.258 . S
O267 Mn252 2.162 . S
O267 C255 1.281 . S
O268 Mn252 2.297 . S
O268 C255 1.236 . S
N269 Mn253 2.282 . S
N269 C270 1.328 . S
N269 C274 1.318 . S
C270 N269 1.328 . S
C270 C271 1.457 . S
C270 H275 0.929 . S
C271 C270 1.457 . S
C271 C272 1.291 . S
C271 H284 0.931 . S
C272 C271 1.291 . S
C272 C273 1.373 . S
C272 H285 0.929 . S
C273 C272 1.373 . S
C273 C274 1.396 . S
C273 C280 1.403 . S
C274 C264 1.476 . S
C274 N269 1.318 . S
C274 C273 1.396 . S
H275 C270 0.929 . S
O276 Mn252 2.385 . S
O276 C254 1.234 1_655 S
O277 Mn252 2.209 1_455 S
O277 Mn253 2.215 . S
O277 C254 1.283 . S
O278 Mn252 2.094 . S
O278 C256 1.240 . S
O279 Mn253 2.117 1_655 S
O279 C256 1.264 . S
C280 C273 1.403 . S
C280 C281 1.399 . S
C280 H286 0.929 . S
C281 C261 1.449 . S
C281 C280 1.399 . S
C281 H287 0.930 . S
H282 C262 0.931 . S
H283 C263 0.930 . S
H284 C271 0.931 . S
H285 C272 0.929 . S
H286 C280 0.929 . S
H287 C281 0.930 . S
Mn288 O293 2.095 . S
Mn288 O303 2.162 . S
Mn288 O304 2.297 . S
Mn288 O312 2.385 . S
Mn288 O313 2.209 1_565 S
Mn288 O314 2.094 . S
Mn289 O294 2.121 1_545 S
Mn289 N296 2.257 . S
Mn289 N305 2.282 . S
Mn289 O313 2.215 . S
Mn289 O315 2.117 1_545 S
C290 O312 1.234 1_545 S
C290 O313 1.283 . S
C291 O303 1.281 . S
C291 O304 1.236 . S
C292 O314 1.240 . S
C292 O315 1.264 . S
O293 Mn288 2.095 . S
O293 C302 1.250 . S
O294 Mn289 2.121 1_565 S
O294 C302 1.258 . S
C295 N296 1.326 . S
C295 C299 1.460 . S
C295 H301 0.929 . S
N296 Mn289 2.257 . S
N296 C295 1.326 . S
N296 C300 1.362 . S
C297 C298 1.258 . S
C297 C300 1.431 . S
C297 C317 1.449 . S
C298 C297 1.258 . S
C298 C299 1.477 . S
C298 H318 0.931 . S
C299 C295 1.460 . S
C299 C298 1.477 . S
C299 H319 0.930 . S
C300 N296 1.362 . S
C300 C297 1.431 . S
C300 C310 1.476 . S
H301 C295 0.929 . S
C302 O293 1.250 . S
C302 O294 1.258 . S
O303 Mn288 2.162 . S
O303 C291 1.281 . S
O304 Mn288 2.297 . S
O304 C291 1.236 . S
N305 Mn289 2.282 . S
N305 C306 1.328 . S
N305 C310 1.318 . S
C306 N305 1.328 . S
C306 C307 1.457 . S
C306 H311 0.929 . S
C307 C306 1.457 . S
C307 C308 1.291 . S
C307 H320 0.931 . S
C308 C307 1.291 . S
C308 C309 1.373 . S
C308 H321 0.929 . S
C309 C308 1.373 . S
C309 C310 1.396 . S
C309 C316 1.403 . S
C310 C300 1.476 . S
C310 N305 1.318 . S
C310 C309 1.396 . S
H311 C306 0.929 . S
O312 Mn288 2.385 . S
O312 C290 1.234 1_565 S
O313 Mn288 2.209 1_545 S
O313 Mn289 2.215 . S
O313 C290 1.283 . S
O314 Mn288 2.094 . S
O314 C292 1.240 . S
O315 Mn289 2.117 1_565 S
O315 C292 1.264 . S
C316 C309 1.403 . S
C316 C317 1.399 . S
C316 H322 0.929 . S
C317 C297 1.449 . S
C317 C316 1.399 . S
C317 H323 0.930 . S
H318 C298 0.931 . S
H319 C299 0.930 . S
H320 C307 0.931 . S
H321 C308 0.929 . S
H322 C316 0.929 . S
H323 C317 0.930 . S
Mn324 O329 2.095 . S
Mn324 O339 2.162 . S
Mn324 O340 2.297 . S
Mn324 O348 2.385 . S
Mn324 O349 2.209 . S
Mn324 O350 2.094 . S
Mn325 O330 2.121 . S
Mn325 N332 2.257 . S
Mn325 N341 2.282 . S
Mn325 O349 2.215 . S
Mn325 O351 2.117 . S
C326 O348 1.234 . S
C326 O349 1.283 . S
C327 O339 1.281 . S
C327 O340 1.236 . S
C328 O350 1.240 . S
C328 O351 1.264 . S
O329 Mn324 2.095 . S
O329 C338 1.250 . S
O330 Mn325 2.121 . S
O330 C338 1.258 . S
C331 N332 1.326 . S
C331 C335 1.460 . S
C331 H337 0.929 . S
N332 Mn325 2.257 . S
N332 C331 1.326 . S
N332 C336 1.362 . S
C333 C334 1.258 . S
C333 C336 1.431 . S
C333 C353 1.449 . S
C334 C333 1.258 . S
C334 C335 1.477 . S
C334 H354 0.931 . S
C335 C331 1.460 . S
C335 C334 1.477 . S
C335 H355 0.930 . S
C336 N332 1.362 . S
C336 C333 1.431 . S
C336 C346 1.476 . S
H337 C331 0.929 . S
C338 O329 1.250 . S
C338 O330 1.258 . S
O339 Mn324 2.162 . S
O339 C327 1.281 . S
O340 Mn324 2.297 . S
O340 C327 1.236 . S
N341 Mn325 2.282 . S
N341 C342 1.328 . S
N341 C346 1.318 . S
C342 N341 1.328 . S
C342 C343 1.457 . S
C342 H347 0.929 . S
C343 C342 1.457 . S
C343 C344 1.291 . S
C343 H356 0.931 . S
C344 C343 1.291 . S
C344 C345 1.373 . S
C344 H357 0.929 . S
C345 C344 1.373 . S
C345 C346 1.396 . S
C345 C352 1.403 . S
C346 C336 1.476 . S
C346 N341 1.318 . S
C346 C345 1.396 . S
H347 C342 0.929 . S
O348 Mn324 2.385 . S
O348 C326 1.234 . S
O349 Mn324 2.209 . S
O349 Mn325 2.215 . S
O349 C326 1.283 . S
O350 Mn324 2.094 . S
O350 C328 1.240 . S
O351 Mn325 2.117 . S
O351 C328 1.264 . S
C352 C345 1.403 . S
C352 C353 1.399 . S
C352 H358 0.929 . S
C353 C333 1.449 . S
C353 C352 1.399 . S
C353 H359 0.930 . S
H354 C334 0.931 . S
H355 C335 0.930 . S
H356 C343 0.931 . S
H357 C344 0.929 . S
H358 C352 0.929 . S
H359 C353 0.930 . S
Mn360 O365 2.095 . S
Mn360 O375 2.162 . S
Mn360 O376 2.297 . S
Mn360 O384 2.385 . S
Mn360 O385 2.209 1_455 S
Mn360 O386 2.094 . S
Mn361 O366 2.121 1_655 S
Mn361 N368 2.257 . S
Mn361 N377 2.282 . S
Mn361 O385 2.215 . S
Mn361 O387 2.117 1_655 S
C362 O384 1.234 1_655 S
C362 O385 1.283 . S
C363 O375 1.281 . S
C363 O376 1.236 . S
C364 O386 1.240 . S
C364 O387 1.264 . S
O365 Mn360 2.095 . S
O365 C374 1.250 . S
O366 Mn361 2.121 1_455 S
O366 C374 1.258 . S
C367 N368 1.326 . S
C367 C371 1.460 . S
C367 H373 0.929 . S
N368 Mn361 2.257 . S
N368 C367 1.326 . S
N368 C372 1.362 . S
C369 C370 1.258 . S
C369 C372 1.431 . S
C369 C389 1.449 . S
C370 C369 1.258 . S
C370 C371 1.477 . S
C370 H390 0.931 . S
C371 C367 1.460 . S
C371 C370 1.477 . S
C371 H391 0.930 . S
C372 N368 1.362 . S
C372 C369 1.431 . S
C372 C382 1.476 . S
H373 C367 0.929 . S
C374 O365 1.250 . S
C374 O366 1.258 . S
O375 Mn360 2.162 . S
O375 C363 1.281 . S
O376 Mn360 2.297 . S
O376 C363 1.236 . S
N377 Mn361 2.282 . S
N377 C378 1.328 . S
N377 C382 1.318 . S
C378 N377 1.328 . S
C378 C379 1.457 . S
C378 H383 0.929 . S
C379 C378 1.457 . S
C379 C380 1.291 . S
C379 H392 0.931 . S
C380 C379 1.291 . S
C380 C381 1.373 . S
C380 H393 0.929 . S
C381 C380 1.373 . S
C381 C382 1.396 . S
C381 C388 1.403 . S
C382 C372 1.476 . S
C382 N377 1.318 . S
C382 C381 1.396 . S
H383 C378 0.929 . S
O384 Mn360 2.385 . S
O384 C362 1.234 1_455 S
O385 Mn360 2.209 1_655 S
O385 Mn361 2.215 . S
O385 C362 1.283 . S
O386 Mn360 2.094 . S
O386 C364 1.240 . S
O387 Mn361 2.117 1_455 S
O387 C364 1.264 . S
C388 C381 1.403 . S
C388 C389 1.399 . S
C388 H394 0.929 . S
C389 C369 1.449 . S
C389 C388 1.399 . S
C389 H395 0.930 . S
H390 C370 0.931 . S
H391 C371 0.930 . S
H392 C379 0.931 . S
H393 C380 0.929 . S
H394 C388 0.929 . S
H395 C389 0.930 . S
Mn396 O401 2.095 . S
Mn396 O411 2.162 . S
Mn396 O412 2.297 . S
Mn396 O420 2.385 . S
Mn396 O421 2.209 1_545 S
Mn396 O422 2.094 . S
Mn397 O402 2.121 1_565 S
Mn397 N404 2.257 . S
Mn397 N413 2.282 . S
Mn397 O421 2.215 . S
Mn397 O423 2.117 1_565 S
C398 O420 1.234 1_565 S
C398 O421 1.283 . S
C399 O411 1.281 . S
C399 O412 1.236 . S
C400 O422 1.240 . S
C400 O423 1.264 . S
O401 Mn396 2.095 . S
O401 C410 1.250 . S
O402 Mn397 2.121 1_545 S
O402 C410 1.258 . S
C403 N404 1.326 . S
C403 C407 1.460 . S
C403 H409 0.929 . S
N404 Mn397 2.257 . S
N404 C403 1.326 . S
N404 C408 1.362 . S
C405 C406 1.258 . S
C405 C408 1.431 . S
C405 C425 1.449 . S
C406 C405 1.258 . S
C406 C407 1.477 . S
C406 H426 0.931 . S
C407 C403 1.460 . S
C407 C406 1.477 . S
C407 H427 0.930 . S
C408 N404 1.362 . S
C408 C405 1.431 . S
C408 C418 1.476 . S
H409 C403 0.929 . S
C410 O401 1.250 . S
C410 O402 1.258 . S
O411 Mn396 2.162 . S
O411 C399 1.281 . S
O412 Mn396 2.297 . S
O412 C399 1.236 . S
N413 Mn397 2.282 . S
N413 C414 1.328 . S
N413 C418 1.318 . S
C414 N413 1.328 . S
C414 C415 1.457 . S
C414 H419 0.929 . S
C415 C414 1.457 . S
C415 C416 1.291 . S
C415 H428 0.931 . S
C416 C415 1.291 . S
C416 C417 1.373 . S
C416 H429 0.929 . S
C417 C416 1.373 . S
C417 C418 1.396 . S
C417 C424 1.403 . S
C418 C408 1.476 . S
C418 N413 1.318 . S
C418 C417 1.396 . S
H419 C414 0.929 . S
O420 Mn396 2.385 . S
O420 C398 1.234 1_545 S
O421 Mn396 2.209 1_565 S
O421 Mn397 2.215 . S
O421 C398 1.283 . S
O422 Mn396 2.094 . S
O422 C400 1.240 . S
O423 Mn397 2.117 1_545 S
O423 C400 1.264 . S
C424 C417 1.403 . S
C424 C425 1.399 . S
C424 H430 0.929 . S
C425 C405 1.449 . S
C425 C424 1.399 . S
C425 H431 0.930 . S
H426 C406 0.931 . S
H427 C407 0.930 . S
H428 C415 0.931 . S
H429 C416 0.929 . S
H430 C424 0.929 . S
H431 C425 0.930 . S
H432 C450 0.951 . S
H433 C452 0.951 . S
H434 C454 0.950 . S
H435 C455 0.950 . S
H436 C457 0.950 . S
H437 C460 0.950 . S
H438 C461 0.950 . S
H439 C463 0.950 . S
H440 C464 0.950 1_455 S
H441 C465 0.951 . S
H442 C467 0.951 . S
H443 C469 0.950 . S
H444 C470 0.950 . S
H445 C472 0.950 . S
H446 C475 0.950 . S
H447 C476 0.950 . S
H448 C478 0.950 . S
H449 C479 0.950 1_655 S
C450 H432 0.951 . S
C450 C451 1.366 . S
C450 C452 1.388 . S
C451 C450 1.366 . S
C451 C455 1.385 . S
C452 H433 0.951 . S
C452 C450 1.388 . S
C452 C453 1.366 . S
C453 C452 1.366 . S
C453 C454 1.414 . S
C453 C456 1.499 . S
C454 H434 0.950 . S
C454 C453 1.414 . S
C454 C455 1.374 . S
C455 H435 0.950 . S
C455 C451 1.385 . S
C455 C454 1.374 . S
C456 C453 1.499 . S
C456 C457 1.373 . S
C456 C458 1.389 . S
C457 H436 0.950 . S
C457 C456 1.373 . S
C457 C473 1.377 1_655 S
C458 C456 1.389 . S
C458 C459 1.524 . S
C458 C472 1.377 1_655 S
C459 C458 1.524 . S
C459 C460 1.397 . S
C459 C464 1.363 . S
C460 H437 0.950 . S
C460 C459 1.397 . S
C460 C461 1.334 . S
C461 H438 0.950 . S
C461 C460 1.334 . S
C461 C462 1.287 . S
C462 C461 1.287 . S
C462 C463 1.524 . S
C462 H481 0.913 . S
C463 H439 0.950 . S
C463 C462 1.524 . S
C463 C464 1.415 . S
C464 H440 0.950 1_655 S
C464 C459 1.363 . S
C464 C463 1.415 . S
C465 H441 0.951 . S
C465 C466 1.366 . S
C465 C467 1.388 . S
C466 C465 1.366 . S
C466 C470 1.385 . S
C467 H442 0.951 . S
C467 C465 1.388 . S
C467 C468 1.366 . S
C468 C467 1.366 . S
C468 C469 1.414 . S
C468 C471 1.499 . S
C469 H443 0.950 . S
C469 C468 1.414 . S
C469 C470 1.374 . S
C470 H444 0.950 . S
C470 C466 1.385 . S
C470 C469 1.374 . S
C471 C468 1.499 . S
C471 C472 1.373 . S
C471 C473 1.389 . S
C472 H445 0.950 . S
C472 C458 1.377 1_455 S
C472 C471 1.373 . S
C473 C457 1.377 1_455 S
C473 C471 1.389 . S
C473 C474 1.524 . S
C474 C473 1.524 . S
C474 C475 1.397 . S
C474 C479 1.363 . S
C475 H446 0.950 . S
C475 C474 1.397 . S
C475 C476 1.334 . S
C476 H447 0.950 . S
C476 C475 1.334 . S
C476 C477 1.287 . S
C477 C476 1.287 . S
C477 C478 1.524 . S
C477 H480 0.999 . S
C478 H448 0.950 . S
C478 C477 1.524 . S
C478 C479 1.415 . S
C479 H449 0.950 1_455 S
C479 C474 1.363 . S
C479 C478 1.415 . S
H480 C477 0.999 . S
H481 C462 0.913 . S
H482 C500 0.951 . S
H483 C502 0.951 . S
H484 C504 0.950 . S
H485 C505 0.950 . S
H486 C507 0.950 . S
H487 C510 0.950 . S
H488 C511 0.950 . S
H489 C513 0.950 1_565 S
H490 C514 0.950 . S
H491 C515 0.951 . S
H492 C517 0.951 . S
H493 C519 0.950 . S
H494 C520 0.950 . S
H495 C522 0.950 . S
H496 C525 0.950 . S
H497 C526 0.950 . S
H498 C528 0.950 1_545 S
H499 C529 0.950 . S
C500 H482 0.951 . S
C500 C501 1.366 . S
C500 C502 1.388 . S
C501 C500 1.366 . S
C501 C505 1.385 . S
C502 H483 0.951 . S
C502 C500 1.388 . S
C502 C503 1.366 . S
C503 C502 1.366 . S
C503 C504 1.414 . S
C503 C506 1.499 . S
C504 H484 0.950 . S
C504 C503 1.414 . S
C504 C505 1.374 . S
C505 H485 0.950 . S
C505 C501 1.385 . S
C505 C504 1.374 . S
C506 C503 1.499 . S
C506 C507 1.373 . S
C506 C508 1.389 . S
C507 H486 0.950 . S
C507 C506 1.373 . S
C507 C523 1.377 1_545 S
C508 C506 1.389 . S
C508 C509 1.524 . S
C508 C522 1.377 1_545 S
C509 C508 1.524 . S
C509 C510 1.397 . S
C509 C514 1.363 1_545 S
C510 H487 0.950 . S
C510 C509 1.397 . S
C510 C511 1.334 . S
C511 H488 0.950 . S
C511 C510 1.334 . S
C511 C512 1.287 . S
C512 C511 1.287 . S
C512 C513 1.524 . S
C512 H531 0.913 . S
C513 H489 0.950 1_545 S
C513 C512 1.524 . S
C513 C514 1.415 1_545 S
C514 H490 0.950 . S
C514 C509 1.363 1_565 S
C514 C513 1.415 1_565 S
C515 H491 0.951 . S
C515 C516 1.366 . S
C515 C517 1.388 . S
C516 C515 1.366 . S
C516 C520 1.385 . S
C517 H492 0.951 . S
C517 C515 1.388 . S
C517 C518 1.366 . S
C518 C517 1.366 . S
C518 C519 1.414 . S
C518 C521 1.499 . S
C519 H493 0.950 . S
C519 C518 1.414 . S
C519 C520 1.374 . S
C520 H494 0.950 . S
C520 C516 1.385 . S
C520 C519 1.374 . S
C521 C518 1.499 . S
C521 C522 1.373 . S
C521 C523 1.389 . S
C522 H495 0.950 . S
C522 C508 1.377 1_565 S
C522 C521 1.373 . S
C523 C507 1.377 1_565 S
C523 C521 1.389 . S
C523 C524 1.524 . S
C524 C523 1.524 . S
C524 C525 1.397 . S
C524 C529 1.363 1_565 S
C525 H496 0.950 . S
C525 C524 1.397 . S
C525 C526 1.334 . S
C526 H497 0.950 . S
C526 C525 1.334 . S
C526 C527 1.287 . S
C527 C526 1.287 . S
C527 C528 1.524 . S
C527 H530 0.999 . S
C528 H498 0.950 1_565 S
C528 C527 1.524 . S
C528 C529 1.415 1_565 S
C529 H499 0.950 . S
C529 C524 1.363 1_545 S
C529 C528 1.415 1_545 S
H530 C527 0.999 . S
H531 C512 0.913 . S
H532 C550 0.951 . S
H533 C552 0.951 . S
H534 C554 0.950 . S
H535 C555 0.950 . S
H536 C557 0.950 . S
H537 C560 0.950 . S
H538 C561 0.950 . S
H539 C563 0.950 . S
H540 C564 0.950 . S
H541 C565 0.951 . S
H542 C567 0.951 . S
H543 C569 0.950 . S
H544 C570 0.950 . S
H545 C572 0.950 . S
H546 C575 0.950 . S
H547 C576 0.950 . S
H548 C578 0.950 . S
H549 C579 0.950 . S
C550 H532 0.951 . S
C550 C551 1.366 . S
C550 C552 1.388 . S
C551 C550 1.366 . S
C551 C555 1.385 . S
C552 H533 0.951 . S
C552 C550 1.388 . S
C552 C553 1.366 . S
C553 C552 1.366 . S
C553 C554 1.414 . S
C553 C556 1.499 . S
C554 H534 0.950 . S
C554 C553 1.414 . S
C554 C555 1.374 . S
C555 H535 0.950 . S
C555 C551 1.385 . S
C555 C554 1.374 . S
C556 C553 1.499 . S
C556 C557 1.373 . S
C556 C558 1.389 . S
C557 H536 0.950 . S
C557 C556 1.373 . S
C557 C573 1.377 . S
C558 C556 1.389 . S
C558 C559 1.524 . S
C558 C572 1.377 . S
C559 C558 1.524 . S
C559 C560 1.397 . S
C559 C564 1.363 . S
C560 H537 0.950 . S
C560 C559 1.397 . S
C560 C561 1.334 . S
C561 H538 0.950 . S
C561 C560 1.334 . S
C561 C562 1.287 . S
C562 C561 1.287 . S
C562 C563 1.524 . S
C562 H581 0.913 . S
C563 H539 0.950 . S
C563 C562 1.524 . S
C563 C564 1.415 . S
C564 H540 0.950 . S
C564 C559 1.363 . S
C564 C563 1.415 . S
C565 H541 0.951 . S
C565 C566 1.366 . S
C565 C567 1.388 . S
C566 C565 1.366 . S
C566 C570 1.385 . S
C567 H542 0.951 . S
C567 C565 1.388 . S
C567 C568 1.366 . S
C568 C567 1.366 . S
C568 C569 1.414 . S
C568 C571 1.499 . S
C569 H543 0.950 . S
C569 C568 1.414 . S
C569 C570 1.374 . S
C570 H544 0.950 . S
C570 C566 1.385 . S
C570 C569 1.374 . S
C571 C568 1.499 . S
C571 C572 1.373 . S
C571 C573 1.389 . S
C572 H545 0.950 . S
C572 C558 1.377 . S
C572 C571 1.373 . S
C573 C557 1.377 . S
C573 C571 1.389 . S
C573 C574 1.524 . S
C574 C573 1.524 . S
C574 C575 1.397 . S
C574 C579 1.363 . S
C575 H546 0.950 . S
C575 C574 1.397 . S
C575 C576 1.334 . S
C576 H547 0.950 . S
C576 C575 1.334 . S
C576 C577 1.287 . S
C577 C576 1.287 . S
C577 C578 1.524 . S
C577 H580 0.999 . S
C578 H548 0.950 . S
C578 C577 1.524 . S
C578 C579 1.415 . S
C579 H549 0.950 . S
C579 C574 1.363 . S
C579 C578 1.415 . S
H580 C577 0.999 . S
H581 C562 0.913 . S
H582 C600 0.951 . S
H583 C602 0.951 . S
H584 C604 0.950 . S
H585 C605 0.950 . S
H586 C607 0.950 . S
H587 C610 0.950 . S
H588 C611 0.950 . S
H589 C613 0.950 . S
H590 C614 0.950 . S
H591 C615 0.951 . S
H592 C617 0.951 . S
H593 C619 0.950 . S
H594 C620 0.950 . S
H595 C622 0.950 . S
H596 C625 0.950 . S
H597 C626 0.950 . S
H598 C628 0.950 . S
H599 C629 0.950 . S
C600 H582 0.951 . S
C600 C601 1.366 . S
C600 C602 1.388 . S
C601 C600 1.366 . S
C601 C605 1.385 . S
C602 H583 0.951 . S
C602 C600 1.388 . S
C602 C603 1.366 . S
C603 C602 1.366 . S
C603 C604 1.414 . S
C603 C606 1.499 . S
C604 H584 0.950 . S
C604 C603 1.414 . S
C604 C605 1.374 . S
C605 H585 0.950 . S
C605 C601 1.385 . S
C605 C604 1.374 . S
C606 C603 1.499 . S
C606 C607 1.373 . S
C606 C608 1.389 . S
C607 H586 0.950 . S
C607 C606 1.373 . S
C607 C623 1.377 1_655 S
C608 C606 1.389 . S
C608 C609 1.524 . S
C608 C622 1.377 1_655 S
C609 C608 1.524 . S
C609 C610 1.397 . S
C609 C614 1.363 . S
C610 H587 0.950 . S
C610 C609 1.397 . S
C610 C611 1.334 . S
C611 H588 0.950 . S
C611 C610 1.334 . S
C611 C612 1.287 . S
C612 C611 1.287 . S
C612 C613 1.524 . S
C612 H631 0.913 . S
C613 H589 0.950 . S
C613 C612 1.524 . S
C613 C614 1.415 . S
C614 H590 0.950 . S
C614 C609 1.363 . S
C614 C613 1.415 . S
C615 H591 0.951 . S
C615 C616 1.366 . S
C615 C617 1.388 . S
C616 C615 1.366 . S
C616 C620 1.385 . S
C617 H592 0.951 . S
C617 C615 1.388 . S
C617 C618 1.366 . S
C618 C617 1.366 . S
C618 C619 1.414 . S
C618 C621 1.499 . S
C619 H593 0.950 . S
C619 C618 1.414 . S
C619 C620 1.374 . S
C620 H594 0.950 . S
C620 C616 1.385 . S
C620 C619 1.374 . S
C621 C618 1.499 . S
C621 C622 1.373 . S
C621 C623 1.389 . S
C622 H595 0.950 . S
C622 C608 1.377 1_455 S
C622 C621 1.373 . S
C623 C607 1.377 1_455 S
C623 C621 1.389 . S
C623 C624 1.524 . S
C624 C623 1.524 . S
C624 C625 1.397 . S
C624 C629 1.363 . S
C625 H596 0.950 . S
C625 C624 1.397 . S
C625 C626 1.334 . S
C626 H597 0.950 . S
C626 C625 1.334 . S
C626 C627 1.287 . S
C627 C626 1.287 . S
C627 C628 1.524 . S
C627 H630 0.999 . S
C628 H598 0.950 . S
C628 C627 1.524 . S
C628 C629 1.415 . S
C629 H599 0.950 . S
C629 C624 1.363 . S
C629 C628 1.415 . S
H630 C627 0.999 . S
H631 C612 0.913 . S
H632 C650 0.951 . S
H633 C652 0.951 . S
H634 C654 0.950 . S
H635 C655 0.950 . S
H636 C657 0.950 . S
H637 C660 0.950 . S
H638 C661 0.950 . S
H639 C663 0.950 . S
H640 C664 0.950 . S
H641 C665 0.951 . S
H642 C667 0.951 . S
H643 C669 0.950 . S
H644 C670 0.950 . S
H645 C672 0.950 . S
H646 C675 0.950 . S
H647 C676 0.950 . S
H648 C678 0.950 . S
H649 C679 0.950 . S
C650 H632 0.951 . S
C650 C651 1.366 . S
C650 C652 1.388 . S
C651 C650 1.366 . S
C651 C655 1.385 . S
C652 H633 0.951 . S
C652 C650 1.388 . S
C652 C653 1.366 . S
C653 C652 1.366 . S
C653 C654 1.414 . S
C653 C656 1.499 . S
C654 H634 0.950 . S
C654 C653 1.414 . S
C654 C655 1.374 . S
C655 H635 0.950 . S
C655 C651 1.385 . S
C655 C654 1.374 . S
C656 C653 1.499 . S
C656 C657 1.373 . S
C656 C658 1.389 . S
C657 H636 0.950 . S
C657 C656 1.373 . S
C657 C673 1.377 1_545 S
C658 C656 1.389 . S
C658 C659 1.524 . S
C658 C672 1.377 1_545 S
C659 C658 1.524 . S
C659 C660 1.397 . S
C659 C664 1.363 . S
C660 H637 0.950 . S
C660 C659 1.397 . S
C660 C661 1.334 . S
C661 H638 0.950 . S
C661 C660 1.334 . S
C661 C662 1.287 . S
C662 C661 1.287 . S
C662 C663 1.524 . S
C662 H681 0.913 . S
C663 H639 0.950 . S
C663 C662 1.524 . S
C663 C664 1.415 . S
C664 H640 0.950 . S
C664 C659 1.363 . S
C664 C663 1.415 . S
C665 H641 0.951 . S
C665 C666 1.366 . S
C665 C667 1.388 . S
C666 C665 1.366 . S
C666 C670 1.385 . S
C667 H642 0.951 . S
C667 C665 1.388 . S
C667 C668 1.366 . S
C668 C667 1.366 . S
C668 C669 1.414 . S
C668 C671 1.499 . S
C669 H643 0.950 . S
C669 C668 1.414 . S
C669 C670 1.374 . S
C670 H644 0.950 . S
C670 C666 1.385 . S
C670 C669 1.374 . S
C671 C668 1.499 . S
C671 C672 1.373 . S
C671 C673 1.389 . S
C672 H645 0.950 . S
C672 C658 1.377 1_565 S
C672 C671 1.373 . S
C673 C657 1.377 1_565 S
C673 C671 1.389 . S
C673 C674 1.524 . S
C674 C673 1.524 . S
C674 C675 1.397 . S
C674 C679 1.363 . S
C675 H646 0.950 . S
C675 C674 1.397 . S
C675 C676 1.334 . S
C676 H647 0.950 . S
C676 C675 1.334 . S
C676 C677 1.287 . S
C677 C676 1.287 . S
C677 C678 1.524 . S
C677 H680 0.999 . S
C678 H648 0.950 . S
C678 C677 1.524 . S
C678 C679 1.415 . S
C679 H649 0.950 . S
C679 C674 1.363 . S
C679 C678 1.415 . S
H680 C677 0.999 . S
H681 C662 0.913 . S
H682 C700 0.951 . S
H683 C702 0.951 . S
H684 C704 0.950 . S
H685 C705 0.950 . S
H686 C707 0.950 . S
H687 C710 0.950 . S
H688 C711 0.950 . S
H689 C713 0.950 . S
H690 C714 0.950 . S
H691 C715 0.951 . S
H692 C717 0.951 . S
H693 C719 0.950 . S
H694 C720 0.950 . S
H695 C722 0.950 . S
H696 C725 0.950 . S
H697 C726 0.950 . S
H698 C728 0.950 . S
H699 C729 0.950 . S
C700 H682 0.951 . S
C700 C701 1.366 . S
C700 C702 1.388 . S
C701 C700 1.366 . S
C701 C705 1.385 . S
C702 H683 0.951 . S
C702 C700 1.388 . S
C702 C703 1.366 . S
C703 C702 1.366 . S
C703 C704 1.414 . S
C703 C706 1.499 . S
C704 H684 0.950 . S
C704 C703 1.414 . S
C704 C705 1.374 . S
C705 H685 0.950 . S
C705 C701 1.385 . S
C705 C704 1.374 . S
C706 C703 1.499 . S
C706 C707 1.373 . S
C706 C708 1.389 . S
C707 H686 0.950 . S
C707 C706 1.373 . S
C707 C723 1.377 . S
C708 C706 1.389 . S
C708 C709 1.524 . S
C708 C722 1.377 . S
C709 C708 1.524 . S
C709 C710 1.397 . S
C709 C714 1.363 . S
C710 H687 0.950 . S
C710 C709 1.397 . S
C710 C711 1.334 . S
C711 H688 0.950 . S
C711 C710 1.334 . S
C711 C712 1.287 . S
C712 C711 1.287 . S
C712 C713 1.524 . S
C712 H731 0.913 . S
C713 H689 0.950 . S
C713 C712 1.524 . S
C713 C714 1.415 . S
C714 H690 0.950 . S
C714 C709 1.363 . S
C714 C713 1.415 . S
C715 H691 0.951 . S
C715 C716 1.366 . S
C715 C717 1.388 . S
C716 C715 1.366 . S
C716 C720 1.385 . S
C717 H692 0.951 . S
C717 C715 1.388 . S
C717 C718 1.366 . S
C718 C717 1.366 . S
C718 C719 1.414 . S
C718 C721 1.499 . S
C719 H693 0.950 . S
C719 C718 1.414 . S
C719 C720 1.374 . S
C720 H694 0.950 . S
C720 C716 1.385 . S
C720 C719 1.374 . S
C721 C718 1.499 . S
C721 C722 1.373 . S
C721 C723 1.389 . S
C722 H695 0.950 . S
C722 C708 1.377 . S
C722 C721 1.373 . S
C723 C707 1.377 . S
C723 C721 1.389 . S
C723 C724 1.524 . S
C724 C723 1.524 . S
C724 C725 1.397 . S
C724 C729 1.363 . S
C725 H696 0.950 . S
C725 C724 1.397 . S
C725 C726 1.334 . S
C726 H697 0.950 . S
C726 C725 1.334 . S
C726 C727 1.287 . S
C727 C726 1.287 . S
C727 C728 1.524 . S
C727 H730 0.999 . S
C728 H698 0.950 . S
C728 C727 1.524 . S
C728 C729 1.415 . S
C729 H699 0.950 . S
C729 C724 1.363 . S
C729 C728 1.415 . S
H730 C727 0.999 . S
H731 C712 0.913 . S
H732 C750 0.951 . S
H733 C752 0.951 . S
H734 C754 0.950 . S
H735 C755 0.950 . S
H736 C757 0.950 . S
H737 C760 0.950 . S
H738 C761 0.950 . S
H739 C763 0.950 . S
H740 C764 0.950 . S
H741 C765 0.951 . S
H742 C767 0.951 . S
H743 C769 0.950 . S
H744 C770 0.950 . S
H745 C772 0.950 . S
H746 C775 0.950 . S
H747 C776 0.950 . S
H748 C778 0.950 . S
H749 C779 0.950 . S
C750 H732 0.951 . S
C750 C751 1.366 . S
C750 C752 1.388 . S
C751 C750 1.366 . S
C751 C755 1.385 . S
C752 H733 0.951 . S
C752 C750 1.388 . S
C752 C753 1.366 . S
C753 C752 1.366 . S
C753 C754 1.414 . S
C753 C756 1.499 . S
C754 H734 0.950 . S
C754 C753 1.414 . S
C754 C755 1.374 . S
C755 H735 0.950 . S
C755 C751 1.385 . S
C755 C754 1.374 . S
C756 C753 1.499 . S
C756 C757 1.373 . S
C756 C758 1.389 . S
C757 H736 0.950 . S
C757 C756 1.373 . S
C757 C773 1.377 . S
C758 C756 1.389 . S
C758 C759 1.524 . S
C758 C772 1.377 . S
C759 C758 1.524 . S
C759 C760 1.397 . S
C759 C764 1.363 . S
C760 H737 0.950 . S
C760 C759 1.397 . S
C760 C761 1.334 . S
C761 H738 0.950 . S
C761 C760 1.334 . S
C761 C762 1.287 . S
C762 C761 1.287 . S
C762 C763 1.524 . S
C762 H781 0.913 . S
C763 H739 0.950 . S
C763 C762 1.524 . S
C763 C764 1.415 . S
C764 H740 0.950 . S
C764 C759 1.363 . S
C764 C763 1.415 . S
C765 H741 0.951 . S
C765 C766 1.366 . S
C765 C767 1.388 . S
C766 C765 1.366 . S
C766 C770 1.385 . S
C767 H742 0.951 . S
C767 C765 1.388 . S
C767 C768 1.366 . S
C768 C767 1.366 . S
C768 C769 1.414 . S
C768 C771 1.499 . S
C769 H743 0.950 . S
C769 C768 1.414 . S
C769 C770 1.374 . S
C770 H744 0.950 . S
C770 C766 1.385 . S
C770 C769 1.374 . S
C771 C768 1.499 . S
C771 C772 1.373 . S
C771 C773 1.389 . S
C772 H745 0.950 . S
C772 C758 1.377 . S
C772 C771 1.373 . S
C773 C757 1.377 . S
C773 C771 1.389 . S
C773 C774 1.524 . S
C774 C773 1.524 . S
C774 C775 1.397 . S
C774 C779 1.363 . S
C775 H746 0.950 . S
C775 C774 1.397 . S
C775 C776 1.334 . S
C776 H747 0.950 . S
C776 C775 1.334 . S
C776 C777 1.287 . S
C777 C776 1.287 . S
C777 C778 1.524 . S
C777 H780 0.999 . S
C778 H748 0.950 . S
C778 C777 1.524 . S
C778 C779 1.415 . S
C779 H749 0.950 . S
C779 C774 1.363 . S
C779 C778 1.415 . S
H780 C777 0.999 . S
H781 C762 0.913 . S
H782 C800 0.926 1_655 S
H783 C802 0.951 1_655 S
H784 C804 0.950 . S
H785 C805 0.950 . S
H786 C807 0.950 . S
H787 C810 0.950 . S
H788 C811 0.950 . S
H789 C813 0.950 1_655 S
H790 C814 0.950 . S
H791 C815 0.926 1_455 S
H792 C817 0.951 1_455 S
H793 C819 0.950 . S
H794 C820 0.950 . S
H795 C822 0.950 . S
H796 C825 0.950 . S
H797 C826 0.950 . S
H798 C828 0.950 1_455 S
H799 C829 0.950 . S
C800 H782 0.926 1_455 S
C800 C801 1.366 . S
C800 C802 1.388 . S
C801 C800 1.366 . S
C801 C805 1.385 . S
C802 H783 0.951 1_455 S
C802 C800 1.388 . S
C802 C803 1.366 . S
C803 C802 1.366 . S
C803 C804 1.414 . S
C803 C806 1.499 . S
C804 H784 0.950 . S
C804 C803 1.414 . S
C804 C805 1.374 . S
C805 H785 0.950 . S
C805 C801 1.385 . S
C805 C804 1.374 . S
C806 C803 1.499 . S
C806 C807 1.373 . S
C806 C808 1.389 . S
C807 H786 0.950 . S
C807 C806 1.373 . S
C807 C823 1.377 1_455 S
C808 C806 1.389 . S
C808 C809 1.524 . S
C808 C822 1.377 1_455 S
C809 C808 1.524 . S
C809 C810 1.397 . S
C809 C814 1.363 1_455 S
C810 H787 0.950 . S
C810 C809 1.397 . S
C810 C811 1.334 . S
C811 H788 0.950 . S
C811 C810 1.334 . S
C811 C812 1.287 . S
C812 C811 1.287 . S
C812 C813 1.524 . S
C812 H831 0.913 . S
C813 H789 0.950 1_455 S
C813 C812 1.524 . S
C813 C814 1.415 1_455 S
C814 H790 0.950 . S
C814 C809 1.363 1_655 S
C814 C813 1.415 1_655 S
C815 H791 0.926 1_655 S
C815 C816 1.366 . S
C815 C817 1.388 . S
C816 C815 1.366 . S
C816 C820 1.385 . S
C817 H792 0.951 1_655 S
C817 C815 1.388 . S
C817 C818 1.366 . S
C818 C817 1.366 . S
C818 C819 1.414 . S
C818 C821 1.499 . S
C819 H793 0.950 . S
C819 C818 1.414 . S
C819 C820 1.374 . S
C820 H794 0.950 . S
C820 C816 1.385 . S
C820 C819 1.374 . S
C821 C818 1.499 . S
C821 C822 1.373 . S
C821 C823 1.389 . S
C822 H795 0.950 . S
C822 C808 1.377 1_655 S
C822 C821 1.373 . S
C823 C807 1.377 1_655 S
C823 C821 1.389 . S
C823 C824 1.524 . S
C824 C823 1.524 . S
C824 C825 1.397 . S
C824 C829 1.363 1_655 S
C825 H796 0.950 . S
C825 C824 1.397 . S
C825 C826 1.334 . S
C826 H797 0.950 . S
C826 C825 1.334 . S
C826 C827 1.287 . S
C827 C826 1.287 . S
C827 C828 1.524 . S
C827 H830 0.999 . S
C828 H798 0.950 1_655 S
C828 C827 1.524 . S
C828 C829 1.415 1_655 S
C829 H799 0.950 . S
C829 C824 1.363 1_455 S
C829 C828 1.415 1_455 S
H830 C827 0.999 . S
H831 C812 0.913 . S
H832 C850 0.951 . S
H833 C852 0.951 . S
H834 C854 0.950 . S
H835 C855 0.950 1_565 S
H836 C857 0.950 . S
H837 C860 0.950 . S
H838 C861 0.950 . S
H839 C863 0.950 . S
H840 C864 0.950 . S
H841 C865 0.951 . S
H842 C867 0.951 . S
H843 C869 0.950 . S
H844 C870 0.950 1_545 S
H845 C872 0.950 . S
H846 C875 0.950 . S
H847 C876 0.950 . S
H848 C878 0.950 . S
H849 C879 0.950 . S
C850 H832 0.951 . S
C850 C851 1.366 . S
C850 C852 1.388 . S
C851 C850 1.366 . S
C851 C855 1.385 . S
C852 H833 0.951 . S
C852 C850 1.388 . S
C852 C853 1.366 . S
C853 C852 1.366 . S
C853 C854 1.414 1_545 S
C853 C856 1.499 . S
C854 H834 0.950 . S
C854 C853 1.414 1_565 S
C854 C855 1.374 1_565 S
C855 H835 0.950 1_545 S
C855 C851 1.385 . S
C855 C854 1.374 1_545 S
C856 C853 1.499 . S
C856 C857 1.373 1_545 S
C856 C858 1.389 . S
C857 H836 0.950 . S
C857 C856 1.373 1_565 S
C857 C873 1.377 . S
C858 C856 1.389 . S
C858 C859 1.524 . S
C858 C872 1.377 . S
C859 C858 1.524 . S
C859 C860 1.397 . S
C859 C864 1.363 . S
C860 H837 0.950 . S
C860 C859 1.397 . S
C860 C861 1.334 . S
C861 H838 0.950 . S
C861 C860 1.334 . S
C861 C862 1.287 . S
C862 C861 1.287 . S
C862 C863 1.524 . S
C862 H881 0.913 . S
C863 H839 0.950 . S
C863 C862 1.524 . S
C863 C864 1.415 . S
C864 H840 0.950 . S
C864 C859 1.363 . S
C864 C863 1.415 . S
C865 H841 0.951 . S
C865 C866 1.366 . S
C865 C867 1.388 . S
C866 C865 1.366 . S
C866 C870 1.385 . S
C867 H842 0.951 . S
C867 C865 1.388 . S
C867 C868 1.366 . S
C868 C867 1.366 . S
C868 C869 1.414 1_565 S
C868 C871 1.499 . S
C869 H843 0.950 . S
C869 C868 1.414 1_545 S
C869 C870 1.374 1_545 S
C870 H844 0.950 1_565 S
C870 C866 1.385 . S
C870 C869 1.374 1_565 S
C871 C868 1.499 . S
C871 C872 1.373 1_565 S
C871 C873 1.389 . S
C872 H845 0.950 . S
C872 C858 1.377 . S
C872 C871 1.373 1_545 S
C873 C857 1.377 . S
C873 C871 1.389 . S
C873 C874 1.524 . S
C874 C873 1.524 . S
C874 C875 1.397 . S
C874 C879 1.363 . S
C875 H846 0.950 . S
C875 C874 1.397 . S
C875 C876 1.334 . S
C876 H847 0.950 . S
C876 C875 1.334 . S
C876 C877 1.287 . S
C877 C876 1.287 . S
C877 C878 1.524 . S
C877 H880 0.999 . S
C878 H848 0.950 . S
C878 C877 1.524 . S
C878 C879 1.415 . S
C879 H849 0.950 . S
C879 C874 1.363 . S
C879 C878 1.415 . S
H880 C877 0.999 . S
H881 C862 0.913 . S
H882 C900 0.951 . S
H883 C902 0.951 . S
H884 C904 0.950 . S
H885 C905 0.950 . S
H886 C907 0.950 . S
H887 C910 0.950 . S
H888 C911 0.950 . S
H889 C913 0.950 . S
H890 C914 0.950 . S
H891 C915 0.951 . S
H892 C917 0.951 . S
H893 C919 0.950 . S
H894 C920 0.950 . S
H895 C922 0.950 . S
H896 C925 0.950 . S
H897 C926 0.950 . S
H898 C928 0.950 . S
H899 C929 0.950 . S
C900 H882 0.951 . S
C900 C901 1.366 . S
C900 C902 1.388 . S
C901 C900 1.366 . S
C901 C905 1.385 . S
C902 H883 0.951 . S
C902 C900 1.388 . S
C902 C903 1.366 . S
C903 C902 1.366 . S
C903 C904 1.414 . S
C903 C906 1.499 . S
C904 H884 0.950 . S
C904 C903 1.414 . S
C904 C905 1.374 . S
C905 H885 0.950 . S
C905 C901 1.385 . S
C905 C904 1.374 . S
C906 C903 1.499 . S
C906 C907 1.373 . S
C906 C908 1.389 . S
C907 H886 0.950 . S
C907 C906 1.373 . S
C907 C923 1.377 . S
C908 C906 1.389 . S
C908 C909 1.524 . S
C908 C922 1.377 . S
C909 C908 1.524 . S
C909 C910 1.397 . S
C909 C914 1.363 . S
C910 H887 0.950 . S
C910 C909 1.397 . S
C910 C911 1.334 . S
C911 H888 0.950 . S
C911 C910 1.334 . S
C911 C912 1.287 . S
C912 C911 1.287 . S
C912 C913 1.524 . S
C912 H931 0.913 . S
C913 H889 0.950 . S
C913 C912 1.524 . S
C913 C914 1.415 . S
C914 H890 0.950 . S
C914 C909 1.363 . S
C914 C913 1.415 . S
C915 H891 0.951 . S
C915 C916 1.366 . S
C915 C917 1.388 . S
C916 C915 1.366 . S
C916 C920 1.385 . S
C917 H892 0.951 . S
C917 C915 1.388 . S
C917 C918 1.366 . S
C918 C917 1.366 . S
C918 C919 1.414 . S
C918 C921 1.499 . S
C919 H893 0.950 . S
C919 C918 1.414 . S
C919 C920 1.374 . S
C920 H894 0.950 . S
C920 C916 1.385 . S
C920 C919 1.374 . S
C921 C918 1.499 . S
C921 C922 1.373 . S
C921 C923 1.389 . S
C922 H895 0.950 . S
C922 C908 1.377 . S
C922 C921 1.373 . S
C923 C907 1.377 . S
C923 C921 1.389 . S
C923 C924 1.524 . S
C924 C923 1.524 . S
C924 C925 1.397 . S
C924 C929 1.363 . S
C925 H896 0.950 . S
C925 C924 1.397 . S
C925 C926 1.334 . S
C926 H897 0.950 . S
C926 C925 1.334 . S
C926 C927 1.287 . S
C927 C926 1.287 . S
C927 C928 1.524 . S
C927 H930 0.999 . S
C928 H898 0.950 . S
C928 C927 1.524 . S
C928 C929 1.415 . S
C929 H899 0.950 . S
C929 C924 1.363 . S
C929 C928 1.415 . S
H930 C927 0.999 . S
H931 C912 0.913 . S
H932 C950 0.951 1_455 S
H933 C952 0.951 1_455 S
H934 C954 0.950 . S
H935 C955 0.950 . S
H936 C957 0.950 . S
H937 C960 0.950 . S
H938 C961 0.950 . S
H939 C963 0.930 1_455 S
H940 C964 0.950 . S
H941 C965 0.951 1_655 S
H942 C967 0.951 1_655 S
H943 C969 0.950 . S
H944 C970 0.950 . S
H945 C972 0.950 . S
H946 C975 0.950 . S
H947 C976 0.950 . S
H948 C978 0.930 1_655 S
H949 C979 0.950 . S
C950 H932 0.951 1_655 S
C950 C951 1.366 . S
C950 C952 1.388 . S
C951 C950 1.366 . S
C951 C955 1.385 . S
C952 H933 0.951 1_655 S
C952 C950 1.388 . S
C952 C953 1.366 . S
C953 C952 1.366 . S
C953 C954 1.414 . S
C953 C956 1.499 . S
C954 H934 0.950 . S
C954 C953 1.414 . S
C954 C955 1.374 . S
C955 H935 0.950 . S
C955 C951 1.385 . S
C955 C954 1.374 . S
C956 C953 1.499 . S
C956 C957 1.373 . S
C956 C958 1.389 . S
C957 H936 0.950 . S
C957 C956 1.373 . S
C957 C973 1.377 1_655 S
C958 C956 1.389 . S
C958 C959 1.524 . S
C958 C972 1.377 1_655 S
C959 C958 1.524 . S
C959 C960 1.397 . S
C959 C964 1.363 1_655 S
C960 H937 0.950 . S
C960 C959 1.397 . S
C960 C961 1.334 . S
C961 H938 0.950 . S
C961 C960 1.334 . S
C961 C962 1.287 . S
C962 C961 1.287 . S
C962 C963 1.561 . S
C962 H981 0.913 . S
C963 H939 0.930 1_655 S
C963 C962 1.561 . S
C963 C964 1.401 1_655 S
C964 H940 0.950 . S
C964 C959 1.363 1_455 S
C964 C963 1.401 1_455 S
C965 H941 0.951 1_455 S
C965 C966 1.366 . S
C965 C967 1.388 . S
C966 C965 1.366 . S
C966 C970 1.385 . S
C967 H942 0.951 1_455 S
C967 C965 1.388 . S
C967 C968 1.366 . S
C968 C967 1.366 . S
C968 C969 1.414 . S
C968 C971 1.499 . S
C969 H943 0.950 . S
C969 C968 1.414 . S
C969 C970 1.374 . S
C970 H944 0.950 . S
C970 C966 1.385 . S
C970 C969 1.374 . S
C971 C968 1.499 . S
C971 C972 1.373 . S
C971 C973 1.389 . S
C972 H945 0.950 . S
C972 C958 1.377 1_455 S
C972 C971 1.373 . S
C973 C957 1.377 1_455 S
C973 C971 1.389 . S
C973 C974 1.524 . S
C974 C973 1.524 . S
C974 C975 1.397 . S
C974 C979 1.363 1_455 S
C975 H946 0.950 . S
C975 C974 1.397 . S
C975 C976 1.334 . S
C976 H947 0.950 . S
C976 C975 1.334 . S
C976 C977 1.287 . S
C977 C976 1.287 . S
C977 C978 1.561 . S
C977 H980 0.999 . S
C978 H948 0.930 1_455 S
C978 C977 1.561 . S
C978 C979 1.401 1_455 S
C979 H949 0.950 . S
C979 C974 1.363 1_655 S
C979 C978 1.401 1_655 S
H980 C977 0.999 . S
H981 C962 0.913 . S
H982 C1000 0.951 1_545 S
H983 C1002 0.951 . S
H984 C1004 0.950 . S
H985 C1005 0.950 . S
H986 C1007 0.950 . S
H987 C1010 0.950 1_565 S
H988 C1011 0.950 1_565 S
H989 C1013 0.950 . S
H990 C1014 0.950 . S
H991 C1015 0.951 1_565 S
H992 C1017 0.951 . S
H993 C1019 0.950 . S
H994 C1020 0.950 . S
H995 C1022 0.950 . S
H996 C1025 0.950 1_545 S
H997 C1026 0.950 1_545 S
H998 C1028 0.950 . S
H999 C1029 0.950 . S
C1000 H982 0.951 1_565 S
C1000 C1001 1.366 . S
C1000 C1002 1.388 1_565 S
C1001 C1000 1.366 . S
C1001 C1005 1.385 . S
C1002 H983 0.951 . S
C1002 C1000 1.388 1_545 S
C1002 C1003 1.366 1_545 S
C1003 C1002 1.366 1_565 S
C1003 C1004 1.414 . S
C1003 C1006 1.499 . S
C1004 H984 0.950 . S
C1004 C1003 1.414 . S
C1004 C1005 1.374 . S
C1005 H985 0.950 . S
C1005 C1001 1.385 . S
C1005 C1004 1.374 . S
C1006 C1003 1.499 . S
C1006 C1007 1.373 . S
C1006 C1008 1.389 1_565 S
C1007 H986 0.950 . S
C1007 C1006 1.373 . S
C1007 C1023 1.377 . S
C1008 C1006 1.389 1_545 S
C1008 C1009 1.524 . S
C1008 C1022 1.377 . S
C1009 C1008 1.524 . S
C1009 C1010 1.397 . S
C1009 C1014 1.363 . S
C1010 H987 0.950 1_545 S
C1010 C1009 1.397 . S
C1010 C1011 1.334 . S
C1011 H988 0.950 1_545 S
C1011 C1010 1.334 . S
C1011 C1012 1.287 . S
C1012 C1011 1.287 . S
C1012 C1013 1.524 . S
C1012 H1031 0.913 . S
C1013 H989 0.950 . S
C1013 C1012 1.524 . S
C1013 C1014 1.415 . S
C1014 H990 0.950 . S
C1014 C1009 1.363 . S
C1014 C1013 1.415 . S
C1015 H991 0.951 1_545 S
C1015 C1016 1.366 . S
C1015 C1017 1.388 1_545 S
C1016 C1015 1.366 . S
C1016 C1020 1.385 . S
C1017 H992 0.951 . S
C1017 C1015 1.388 1_565 S
C1017 C1018 1.366 1_565 S
C1018 C1017 1.366 1_545 S
C1018 C1019 1.414 . S
C1018 C1021 1.499 . S
C1019 H993 0.950 . S
C1019 C1018 1.414 . S
C1019 C1020 1.374 . S
C1020 H994 0.950 . S
C1020 C1016 1.385 . S
C1020 C1019 1.374 . S
C1021 C1018 1.499 . S
C1021 C1022 1.373 . S
C1021 C1023 1.389 1_545 S
C1022 H995 0.950 . S
C1022 C1008 1.377 . S
C1022 C1021 1.373 . S
C1023 C1007 1.377 . S
C1023 C1021 1.389 1_565 S
C1023 C1024 1.524 . S
C1024 C1023 1.524 . S
C1024 C1025 1.397 . S
C1024 C1029 1.363 . S
C1025 H996 0.950 1_565 S
C1025 C1024 1.397 . S
C1025 C1026 1.334 . S
C1026 H997 0.950 1_565 S
C1026 C1025 1.334 . S
C1026 C1027 1.287 . S
C1027 C1026 1.287 . S
C1027 C1028 1.524 . S
C1027 H1030 0.999 . S
C1028 H998 0.950 . S
C1028 C1027 1.524 . S
C1028 C1029 1.415 . S
C1029 H999 0.950 . S
C1029 C1024 1.363 . S
C1029 C1028 1.415 . S
H1030 C1027 0.999 . S
H1031 C1012 0.913 . S
H1032 C1050 0.951 . S
H1033 C1052 0.951 . S
H1034 C1054 0.950 . S
H1035 C1055 0.950 . S
H1036 C1057 0.950 . S
H1037 C1060 0.950 . S
H1038 C1061 0.950 1_565 S
H1039 C1063 0.950 . S
H1040 C1064 0.950 . S
H1041 C1065 0.951 . S
H1042 C1067 0.951 . S
H1043 C1069 0.950 . S
H1044 C1070 0.950 . S
H1045 C1072 0.950 . S
H1046 C1075 0.950 . S
H1047 C1076 0.950 . S
H1048 C1078 0.950 . S
H1049 C1079 0.950 . S
C1050 H1032 0.951 . S
C1050 C1051 1.366 . S
C1050 C1052 1.388 . S
C1051 C1050 1.366 . S
C1051 C1055 1.385 . S
C1052 H1033 0.951 . S
C1052 C1050 1.388 . S
C1052 C1053 1.366 . S
C1053 C1052 1.366 . S
C1053 C1054 1.414 . S
C1053 C1056 1.499 . S
C1054 H1034 0.950 . S
C1054 C1053 1.414 . S
C1054 C1055 1.374 . S
C1055 H1035 0.950 . S
C1055 C1051 1.385 . S
C1055 C1054 1.374 . S
C1056 C1053 1.499 . S
C1056 C1057 1.373 . S
C1056 C1058 1.389 . S
C1057 H1036 0.950 . S
C1057 C1056 1.373 . S
C1057 C1073 1.377 . S
C1058 C1056 1.389 . S
C1058 C1059 1.524 . S
C1058 C1072 1.377 . S
C1059 C1058 1.524 . S
C1059 C1060 1.397 . S
C1059 C1064 1.363 . S
C1060 H1037 0.950 . S
C1060 C1059 1.397 . S
C1060 C1061 1.334 . S
C1061 H1038 0.950 1_545 S
C1061 C1060 1.334 . S
C1061 C1062 1.287 . S
C1062 C1061 1.287 . S
C1062 C1063 1.524 . S
C1062 H1081 0.913 1_545 S
C1063 H1039 0.950 . S
C1063 C1062 1.524 . S
C1063 C1064 1.415 . S
C1064 H1040 0.950 . S
C1064 C1059 1.363 . S
C1064 C1063 1.415 . S
C1065 H1041 0.951 . S
C1065 C1066 1.366 . S
C1065 C1067 1.388 . S
C1066 C1065 1.366 . S
C1066 C1070 1.385 . S
C1067 H1042 0.951 . S
C1067 C1065 1.388 . S
C1067 C1068 1.366 . S
C1068 C1067 1.366 . S
C1068 C1069 1.414 . S
C1068 C1071 1.499 . S
C1069 H1043 0.950 . S
C1069 C1068 1.414 . S
C1069 C1070 1.374 . S
C1070 H1044 0.950 . S
C1070 C1066 1.385 . S
C1070 C1069 1.374 . S
C1071 C1068 1.499 . S
C1071 C1072 1.373 . S
C1071 C1073 1.389 . S
C1072 H1045 0.950 . S
C1072 C1058 1.377 . S
C1072 C1071 1.373 . S
C1073 C1057 1.377 . S
C1073 C1071 1.389 . S
C1073 C1074 1.524 . S
C1074 C1073 1.524 . S
C1074 C1075 1.397 . S
C1074 C1079 1.363 . S
C1075 H1046 0.950 . S
C1075 C1074 1.397 . S
C1075 C1076 1.334 . S
C1076 H1047 0.950 . S
C1076 C1075 1.334 . S
C1076 C1077 1.287 . S
C1077 C1076 1.287 . S
C1077 C1078 1.524 . S
C1077 H1080 0.999 . S
C1078 H1048 0.950 . S
C1078 C1077 1.524 . S
C1078 C1079 1.415 . S
C1079 H1049 0.950 . S
C1079 C1074 1.363 . S
C1079 C1078 1.415 . S
H1080 C1077 0.999 . S
H1081 C1062 0.913 1_565 S
H1082 C1100 0.951 1_655 S
H1083 C1102 0.951 . S
H1084 C1104 0.950 . S
H1085 C1105 0.950 . S
H1086 C1107 0.950 . S
H1087 C1110 0.950 . S
H1088 C1111 0.950 1_655 S
H1089 C1113 0.950 . S
H1090 C1114 0.950 . S
H1091 C1115 0.951 . S
H1092 C1117 0.951 . S
H1093 C1119 0.950 . S
H1094 C1120 0.950 . S
H1095 C1122 0.950 . S
H1096 C1125 0.950 . S
H1097 C1126 0.950 . S
H1098 C1128 0.950 . S
H1099 C1129 0.950 . S
C1100 H1082 0.951 1_455 S
C1100 C1101 1.366 . S
C1100 C1102 1.388 . S
C1101 C1100 1.366 . S
C1101 C1105 1.385 . S
C1102 H1083 0.951 . S
C1102 C1100 1.388 . S
C1102 C1103 1.366 . S
C1103 C1102 1.366 . S
C1103 C1104 1.414 . S
C1103 C1106 1.499 . S
C1104 H1084 0.950 . S
C1104 C1103 1.414 . S
C1104 C1105 1.374 . S
C1105 H1085 0.950 . S
C1105 C1101 1.385 . S
C1105 C1104 1.374 . S
C1106 C1103 1.499 . S
C1106 C1107 1.373 . S
C1106 C1108 1.389 . S
C1107 H1086 0.950 . S
C1107 C1106 1.373 . S
C1107 C1123 1.377 . S
C1108 C1106 1.389 . S
C1108 C1109 1.524 . S
C1108 C1122 1.377 . S
C1109 C1108 1.524 . S
C1109 C1110 1.397 . S
C1109 C1114 1.363 . S
C1110 H1087 0.950 . S
C1110 C1109 1.397 . S
C1110 C1111 1.334 . S
C1111 H1088 0.950 1_455 S
C1111 C1110 1.334 . S
C1111 C1112 1.287 . S
C1112 C1111 1.287 . S
C1112 C1113 1.524 . S
C1112 H1131 0.913 1_455 S
C1113 H1089 0.950 . S
C1113 C1112 1.524 . S
C1113 C1114 1.415 . S
C1114 H1090 0.950 . S
C1114 C1109 1.363 . S
C1114 C1113 1.415 . S
C1115 H1091 0.951 . S
C1115 C1116 1.366 . S
C1115 C1117 1.388 . S
C1116 C1115 1.366 . S
C1116 C1120 1.385 . S
C1117 H1092 0.951 . S
C1117 C1115 1.388 . S
C1117 C1118 1.366 . S
C1118 C1117 1.366 . S
C1118 C1119 1.414 . S
C1118 C1121 1.499 . S
C1119 H1093 0.950 . S
C1119 C1118 1.414 . S
C1119 C1120 1.374 . S
C1120 H1094 0.950 . S
C1120 C1116 1.385 . S
C1120 C1119 1.374 . S
C1121 C1118 1.499 . S
C1121 C1122 1.373 . S
C1121 C1123 1.389 . S
C1122 H1095 0.950 . S
C1122 C1108 1.377 . S
C1122 C1121 1.373 . S
C1123 C1107 1.377 . S
C1123 C1121 1.389 . S
C1123 C1124 1.524 . S
C1124 C1123 1.524 . S
C1124 C1125 1.397 . S
C1124 C1129 1.363 . S
C1125 H1096 0.950 . S
C1125 C1124 1.397 . S
C1125 C1126 1.334 . S
C1126 H1097 0.950 . S
C1126 C1125 1.334 . S
C1126 C1127 1.287 . S
C1127 C1126 1.287 . S
C1127 C1128 1.524 . S
C1127 H1130 0.999 . S
C1128 H1098 0.950 . S
C1128 C1127 1.524 . S
C1128 C1129 1.415 . S
C1129 H1099 0.950 . S
C1129 C1124 1.363 . S
C1129 C1128 1.415 . S
H1130 C1127 0.999 . S
H1131 C1112 0.913 1_655 S
H1132 C1150 0.951 1_455 S
H1133 C1152 0.951 . S
H1134 C1154 0.950 . S
H1135 C1155 0.950 . S
H1136 C1157 0.950 . S
H1137 C1160 0.950 . S
H1138 C1161 0.950 . S
H1139 C1163 0.950 . S
H1140 C1164 0.950 . S
H1141 C1165 0.951 . S
H1142 C1167 0.951 . S
H1143 C1169 0.950 . S
H1144 C1170 0.950 1_565 S
H1145 C1172 0.950 . S
H1146 C1175 0.950 . S
H1147 C1176 0.950 . S
H1148 C1178 0.950 . S
H1149 C1179 0.950 . S
C1150 H1132 0.951 1_655 S
C1150 C1151 1.366 . S
C1150 C1152 1.388 . S
C1151 C1150 1.366 . S
C1151 C1155 1.385 . S
C1152 H1133 0.951 . S
C1152 C1150 1.388 . S
C1152 C1153 1.366 . S
C1153 C1152 1.366 . S
C1153 C1154 1.414 . S
C1153 C1156 1.499 . S
C1154 H1134 0.950 . S
C1154 C1153 1.414 . S
C1154 C1155 1.374 . S
C1155 H1135 0.950 . S
C1155 C1151 1.385 . S
C1155 C1154 1.374 . S
C1156 C1153 1.499 . S
C1156 C1157 1.373 . S
C1156 C1158 1.389 . S
C1157 H1136 0.950 . S
C1157 C1156 1.373 . S
C1157 C1173 1.377 . S
C1158 C1156 1.389 . S
C1158 C1159 1.524 . S
C1158 C1172 1.377 . S
C1159 C1158 1.524 . S
C1159 C1160 1.397 . S
C1159 C1164 1.363 . S
C1160 H1137 0.950 . S
C1160 C1159 1.397 . S
C1160 C1161 1.334 . S
C1161 H1138 0.950 . S
C1161 C1160 1.334 . S
C1161 C1162 1.287 . S
C1162 C1161 1.287 . S
C1162 C1163 1.524 . S
C1162 H1181 0.913 . S
C1163 H1139 0.950 . S
C1163 C1162 1.524 . S
C1163 C1164 1.415 . S
C1164 H1140 0.950 . S
C1164 C1159 1.363 . S
C1164 C1163 1.415 . S
C1165 H1141 0.951 . S
C1165 C1166 1.366 . S
C1165 C1167 1.388 . S
C1166 C1165 1.366 . S
C1166 C1170 1.385 . S
C1167 H1142 0.951 . S
C1167 C1165 1.388 . S
C1167 C1168 1.366 . S
C1168 C1167 1.366 . S
C1168 C1169 1.414 . S
C1168 C1171 1.499 . S
C1169 H1143 0.950 . S
C1169 C1168 1.414 . S
C1169 C1170 1.374 . S
C1170 H1144 0.950 1_545 S
C1170 C1166 1.385 . S
C1170 C1169 1.374 . S
C1171 C1168 1.499 . S
C1171 C1172 1.373 . S
C1171 C1173 1.389 . S
C1172 H1145 0.950 . S
C1172 C1158 1.377 . S
C1172 C1171 1.373 . S
C1173 C1157 1.377 . S
C1173 C1171 1.389 . S
C1173 C1174 1.524 . S
C1174 C1173 1.524 . S
C1174 C1175 1.397 . S
C1174 C1179 1.363 . S
C1175 H1146 0.950 . S
C1175 C1174 1.397 . S
C1175 C1176 1.334 . S
C1176 H1147 0.950 . S
C1176 C1175 1.334 . S
C1176 C1177 1.287 . S
C1177 C1176 1.287 . S
C1177 C1178 1.524 . S
C1177 H1180 0.999 . S
C1178 H1148 0.950 . S
C1178 C1177 1.524 . S
C1178 C1179 1.415 . S
C1179 H1149 0.950 . S
C1179 C1174 1.363 . S
C1179 C1178 1.415 . S
H1180 C1177 0.999 . S
H1181 C1162 0.913 . S
H1182 C1200 0.951 1_545 S
H1183 C1202 0.951 . S
H1184 C1204 0.950 . S
H1185 C1205 0.950 . S
H1186 C1207 0.950 . S
H1187 C1210 0.950 . S
H1188 C1211 0.950 . S
H1189 C1213 0.950 . S
H1190 C1214 0.950 . S
H1191 C1215 0.951 . S
H1192 C1217 0.951 . S
H1193 C1219 0.950 . S
H1194 C1220 0.950 . S
H1195 C1222 0.950 . S
H1196 C1225 0.950 . S
H1197 C1226 0.950 . S
H1198 C1228 0.950 . S
H1199 C1229 0.950 . S
C1200 H1182 0.951 1_565 S
C1200 C1201 1.366 . S
C1200 C1202 1.388 . S
C1201 C1200 1.366 . S
C1201 C1205 1.385 . S
C1202 H1183 0.951 . S
C1202 C1200 1.388 . S
C1202 C1203 1.366 . S
C1203 C1202 1.366 . S
C1203 C1204 1.414 . S
C1203 C1206 1.499 . S
C1204 H1184 0.950 . S
C1204 C1203 1.414 . S
C1204 C1205 1.374 . S
C1205 H1185 0.950 . S
C1205 C1201 1.385 . S
C1205 C1204 1.374 . S
C1206 C1203 1.499 . S
C1206 C1207 1.373 . S
C1206 C1208 1.389 . S
C1207 H1186 0.950 . S
C1207 C1206 1.373 . S
C1207 C1223 1.377 . S
C1208 C1206 1.389 . S
C1208 C1209 1.524 . S
C1208 C1222 1.377 . S
C1209 C1208 1.524 . S
C1209 C1210 1.397 . S
C1209 C1214 1.363 . S
C1210 H1187 0.950 . S
C1210 C1209 1.397 . S
C1210 C1211 1.334 . S
C1211 H1188 0.950 . S
C1211 C1210 1.334 . S
C1211 C1212 1.287 . S
C1212 C1211 1.287 . S
C1212 C1213 1.524 . S
C1212 H1231 0.913 . S
C1213 H1189 0.950 . S
C1213 C1212 1.524 . S
C1213 C1214 1.415 . S
C1214 H1190 0.950 . S
C1214 C1209 1.363 . S
C1214 C1213 1.415 . S
C1215 H1191 0.951 . S
C1215 C1216 1.366 . S
C1215 C1217 1.388 . S
C1216 C1215 1.366 . S
C1216 C1220 1.385 . S
C1217 H1192 0.951 . S
C1217 C1215 1.388 . S
C1217 C1218 1.366 . S
C1218 C1217 1.366 . S
C1218 C1219 1.414 . S
C1218 C1221 1.499 . S
C1219 H1193 0.950 . S
C1219 C1218 1.414 . S
C1219 C1220 1.374 . S
C1220 H1194 0.950 . S
C1220 C1216 1.385 . S
C1220 C1219 1.374 . S
C1221 C1218 1.499 . S
C1221 C1222 1.373 . S
C1221 C1223 1.389 . S
C1222 H1195 0.950 . S
C1222 C1208 1.377 . S
C1222 C1221 1.373 . S
C1223 C1207 1.377 . S
C1223 C1221 1.389 . S
C1223 C1224 1.524 . S
C1224 C1223 1.524 . S
C1224 C1225 1.397 . S
C1224 C1229 1.363 . S
C1225 H1196 0.950 . S
C1225 C1224 1.397 . S
C1225 C1226 1.334 . S
C1226 H1197 0.950 . S
C1226 C1225 1.334 . S
C1226 C1227 1.287 . S
C1227 C1226 1.287 . S
C1227 C1228 1.524 . S
C1227 H1230 0.999 . S
C1228 H1198 0.950 . S
C1228 C1227 1.524 . S
C1228 C1229 1.415 . S
C1229 H1199 0.950 . S
C1229 C1224 1.363 . S
C1229 C1228 1.415 . S
H1230 C1227 0.999 . S
H1231 C1212 0.913 . S
H1232 C1250 0.951 . S
H1233 C1252 0.951 . S
H1234 C1254 0.950 . S
H1235 C1255 0.950 . S
H1236 C1257 0.950 . S
H1237 C1260 0.950 . S
H1238 C1261 0.950 . S
H1239 C1263 0.950 . S
H1240 C1264 0.950 . S
H1241 C1265 0.951 . S
H1242 C1267 0.951 . S
H1243 C1269 0.950 . S
H1244 C1270 0.950 1_455 S
H1245 C1272 0.950 . S
H1246 C1275 0.950 . S
H1247 C1276 0.950 . S
H1248 C1278 0.950 . S
H1249 C1279 0.950 . S
C1250 H1232 0.951 . S
C1250 C1251 1.366 . S
C1250 C1252 1.388 . S
C1251 C1250 1.366 . S
C1251 C1255 1.385 . S
C1252 H1233 0.951 . S
C1252 C1250 1.388 . S
C1252 C1253 1.366 . S
C1253 C1252 1.366 . S
C1253 C1254 1.414 . S
C1253 C1256 1.499 . S
C1254 H1234 0.950 . S
C1254 C1253 1.414 . S
C1254 C1255 1.374 . S
C1255 H1235 0.950 . S
C1255 C1251 1.385 . S
C1255 C1254 1.374 . S
C1256 C1253 1.499 . S
C1256 C1257 1.373 . S
C1256 C1258 1.389 . S
C1257 H1236 0.950 . S
C1257 C1256 1.373 . S
C1257 C1273 1.377 . S
C1258 C1256 1.389 . S
C1258 C1259 1.524 . S
C1258 C1272 1.377 . S
C1259 C1258 1.524 . S
C1259 C1260 1.397 . S
C1259 C1264 1.363 . S
C1260 H1237 0.950 . S
C1260 C1259 1.397 . S
C1260 C1261 1.334 . S
C1261 H1238 0.950 . S
C1261 C1260 1.334 . S
C1261 C1262 1.287 . S
C1262 C1261 1.287 . S
C1262 C1263 1.524 . S
C1262 H1281 0.913 . S
C1263 H1239 0.950 . S
C1263 C1262 1.524 . S
C1263 C1264 1.415 . S
C1264 H1240 0.950 . S
C1264 C1259 1.363 . S
C1264 C1263 1.415 . S
C1265 H1241 0.951 . S
C1265 C1266 1.366 . S
C1265 C1267 1.388 . S
C1266 C1265 1.366 . S
C1266 C1270 1.385 . S
C1267 H1242 0.951 . S
C1267 C1265 1.388 . S
C1267 C1268 1.366 . S
C1268 C1267 1.366 . S
C1268 C1269 1.414 . S
C1268 C1271 1.499 . S
C1269 H1243 0.950 . S
C1269 C1268 1.414 . S
C1269 C1270 1.374 . S
C1270 H1244 0.950 1_655 S
C1270 C1266 1.385 . S
C1270 C1269 1.374 . S
C1271 C1268 1.499 . S
C1271 C1272 1.373 . S
C1271 C1273 1.389 . S
C1272 H1245 0.950 . S
C1272 C1258 1.377 . S
C1272 C1271 1.373 . S
C1273 C1257 1.377 . S
C1273 C1271 1.389 . S
C1273 C1274 1.524 . S
C1274 C1273 1.524 . S
C1274 C1275 1.397 . S
C1274 C1279 1.363 . S
C1275 H1246 0.950 . S
C1275 C1274 1.397 . S
C1275 C1276 1.334 . S
C1276 H1247 0.950 . S
C1276 C1275 1.334 . S
C1276 C1277 1.287 . S
C1277 C1276 1.287 . S
C1277 C1278 1.524 . S
C1277 H1280 0.999 . S
C1278 H1248 0.950 . S
C1278 C1277 1.524 . S
C1278 C1279 1.415 . S
C1279 H1249 0.950 . S
C1279 C1274 1.363 . S
C1279 C1278 1.415 . S
H1280 C1277 0.999 . S
H1281 C1262 0.913 . S
H1282 C1300 0.951 . S
H1283 C1302 0.951 . S
H1284 C1304 0.950 . S
H1285 C1305 0.950 1_545 S
H1286 C1307 0.950 . S
H1287 C1310 0.950 . S
H1288 C1311 0.950 . S
H1289 C1313 0.950 . S
H1290 C1314 0.950 . S
H1291 C1315 0.951 . S
H1292 C1317 0.951 . S
H1293 C1319 0.950 . S
H1294 C1320 0.950 . S
H1295 C1322 0.950 . S
H1296 C1325 0.950 . S
H1297 C1326 0.950 1_655 S
H1298 C1328 0.950 . S
H1299 C1329 0.950 . S
C1300 H1282 0.951 . S
C1300 C1301 1.366 . S
C1300 C1302 1.388 . S
C1301 C1300 1.366 . S
C1301 C1305 1.385 . S
C1302 H1283 0.951 . S
C1302 C1300 1.388 . S
C1302 C1303 1.366 . S
C1303 C1302 1.366 . S
C1303 C1304 1.414 . S
C1303 C1306 1.499 . S
C1304 H1284 0.950 . S
C1304 C1303 1.414 . S
C1304 C1305 1.374 . S
C1305 H1285 0.950 1_565 S
C1305 C1301 1.385 . S
C1305 C1304 1.374 . S
C1306 C1303 1.499 . S
C1306 C1307 1.373 . S
C1306 C1308 1.389 . S
C1307 H1286 0.950 . S
C1307 C1306 1.373 . S
C1307 C1323 1.377 . S
C1308 C1306 1.389 . S
C1308 C1309 1.524 . S
C1308 C1322 1.377 . S
C1309 C1308 1.524 . S
C1309 C1310 1.397 . S
C1309 C1314 1.363 . S
C1310 H1287 0.950 . S
C1310 C1309 1.397 . S
C1310 C1311 1.334 . S
C1311 H1288 0.950 . S
C1311 C1310 1.334 . S
C1311 C1312 1.287 . S
C1312 C1311 1.287 . S
C1312 C1313 1.524 . S
C1312 H1331 0.913 . S
C1313 H1289 0.950 . S
C1313 C1312 1.524 . S
C1313 C1314 1.415 . S
C1314 H1290 0.950 . S
C1314 C1309 1.363 . S
C1314 C1313 1.415 . S
C1315 H1291 0.951 . S
C1315 C1316 1.366 . S
C1315 C1317 1.388 . S
C1316 C1315 1.366 . S
C1316 C1320 1.385 . S
C1317 H1292 0.951 . S
C1317 C1315 1.388 . S
C1317 C1318 1.366 . S
C1318 C1317 1.366 . S
C1318 C1319 1.414 . S
C1318 C1321 1.499 . S
C1319 H1293 0.950 . S
C1319 C1318 1.414 . S
C1319 C1320 1.374 . S
C1320 H1294 0.950 . S
C1320 C1316 1.385 . S
C1320 C1319 1.374 . S
C1321 C1318 1.499 . S
C1321 C1322 1.373 . S
C1321 C1323 1.389 . S
C1322 H1295 0.950 . S
C1322 C1308 1.377 . S
C1322 C1321 1.373 . S
C1323 C1307 1.377 . S
C1323 C1321 1.389 . S
C1323 C1324 1.524 . S
C1324 C1323 1.524 . S
C1324 C1325 1.397 . S
C1324 C1329 1.363 . S
C1325 H1296 0.950 . S
C1325 C1324 1.397 . S
C1325 C1326 1.334 . S
C1326 H1297 0.950 1_455 S
C1326 C1325 1.334 . S
C1326 C1327 1.287 . S
C1327 C1326 1.287 . S
C1327 C1328 1.524 . S
C1327 H1330 0.999 1_455 S
C1328 H1298 0.950 . S
C1328 C1327 1.524 . S
C1328 C1329 1.415 . S
C1329 H1299 0.950 . S
C1329 C1324 1.363 . S
C1329 C1328 1.415 . S
H1330 C1327 0.999 1_655 S
H1331 C1312 0.913 . S
H1332 C1350 0.951 . S
H1333 C1352 0.951 . S
H1334 C1354 0.950 . S
H1335 C1355 0.950 . S
H1336 C1357 0.950 . S
H1337 C1360 0.950 . S
H1338 C1361 0.950 . S
H1339 C1363 0.950 . S
H1340 C1364 0.950 . S
H1341 C1365 0.951 . S
H1342 C1367 0.951 . S
H1343 C1369 0.950 . S
H1344 C1370 0.950 . S
H1345 C1372 0.950 . S
H1346 C1375 0.950 . S
H1347 C1376 0.950 . S
H1348 C1378 0.950 . S
H1349 C1379 0.950 . S
C1350 H1332 0.951 . S
C1350 C1351 1.366 . S
C1350 C1352 1.388 . S
C1351 C1350 1.366 . S
C1351 C1355 1.385 . S
C1352 H1333 0.951 . S
C1352 C1350 1.388 . S
C1352 C1353 1.366 . S
C1353 C1352 1.366 . S
C1353 C1354 1.414 . S
C1353 C1356 1.499 . S
C1354 H1334 0.950 . S
C1354 C1353 1.414 . S
C1354 C1355 1.374 . S
C1355 H1335 0.950 . S
C1355 C1351 1.385 . S
C1355 C1354 1.374 . S
C1356 C1353 1.499 . S
C1356 C1357 1.373 . S
C1356 C1358 1.389 . S
C1357 H1336 0.950 . S
C1357 C1356 1.373 . S
C1357 C1373 1.377 . S
C1358 C1356 1.389 . S
C1358 C1359 1.524 . S
C1358 C1372 1.377 . S
C1359 C1358 1.524 . S
C1359 C1360 1.397 . S
C1359 C1364 1.363 . S
C1360 H1337 0.950 . S
C1360 C1359 1.397 . S
C1360 C1361 1.334 . S
C1361 H1338 0.950 . S
C1361 C1360 1.334 . S
C1361 C1362 1.287 . S
C1362 C1361 1.287 . S
C1362 C1363 1.524 . S
C1362 H1381 0.913 . S
C1363 H1339 0.950 . S
C1363 C1362 1.524 . S
C1363 C1364 1.415 . S
C1364 H1340 0.950 . S
C1364 C1359 1.363 . S
C1364 C1363 1.415 . S
C1365 H1341 0.951 . S
C1365 C1366 1.366 . S
C1365 C1367 1.388 . S
C1366 C1365 1.366 . S
C1366 C1370 1.385 . S
C1367 H1342 0.951 . S
C1367 C1365 1.388 . S
C1367 C1368 1.366 . S
C1368 C1367 1.366 . S
C1368 C1369 1.414 . S
C1368 C1371 1.499 . S
C1369 H1343 0.950 . S
C1369 C1368 1.414 . S
C1369 C1370 1.374 . S
C1370 H1344 0.950 . S
C1370 C1366 1.385 . S
C1370 C1369 1.374 . S
C1371 C1368 1.499 . S
C1371 C1372 1.373 . S
C1371 C1373 1.389 . S
C1372 H1345 0.950 . S
C1372 C1358 1.377 . S
C1372 C1371 1.373 . S
C1373 C1357 1.377 . S
C1373 C1371 1.389 . S
C1373 C1374 1.524 . S
C1374 C1373 1.524 . S
C1374 C1375 1.397 . S
C1374 C1379 1.363 . S
C1375 H1346 0.950 . S
C1375 C1374 1.397 . S
C1375 C1376 1.334 . S
C1376 H1347 0.950 . S
C1376 C1375 1.334 . S
C1376 C1377 1.287 . S
C1377 C1376 1.287 . S
C1377 C1378 1.524 . S
C1377 H1380 0.999 . S
C1378 H1348 0.950 . S
C1378 C1377 1.524 . S
C1378 C1379 1.415 . S
C1379 H1349 0.950 . S
C1379 C1374 1.363 . S
C1379 C1378 1.415 . S
H1380 C1377 0.999 . S
H1381 C1362 0.913 . S
H1382 C1400 0.951 . S
H1383 C1402 0.951 1_455 S
H1384 C1404 0.950 . S
H1385 C1405 0.950 . S
H1386 C1407 0.950 . S
H1387 C1410 0.950 . S
H1388 C1411 0.950 . S
H1389 C1413 0.950 . S
H1390 C1414 0.950 . S
H1391 C1415 0.951 . S
H1392 C1417 0.951 1_655 S
H1393 C1419 0.950 . S
H1394 C1420 0.950 . S
H1395 C1422 0.950 . S
H1396 C1425 0.950 . S
H1397 C1426 0.950 . S
H1398 C1428 0.950 . S
H1399 C1429 0.950 . S
C1400 H1382 0.951 . S
C1400 C1401 1.366 . S
C1400 C1402 1.388 . S
C1401 C1400 1.366 . S
C1401 C1405 1.385 . S
C1402 H1383 0.951 1_655 S
C1402 C1400 1.388 . S
C1402 C1403 1.366 . S
C1403 C1402 1.366 . S
C1403 C1404 1.414 . S
C1403 C1406 1.499 . S
C1404 H1384 0.950 . S
C1404 C1403 1.414 . S
C1404 C1405 1.374 . S
C1405 H1385 0.950 . S
C1405 C1401 1.385 . S
C1405 C1404 1.374 . S
C1406 C1403 1.499 . S
C1406 C1407 1.373 . S
C1406 C1408 1.389 1_655 S
C1407 H1386 0.950 . S
C1407 C1406 1.373 . S
C1407 C1423 1.377 . S
C1408 C1406 1.389 1_455 S
C1408 C1409 1.524 . S
C1408 C1422 1.377 . S
C1409 C1408 1.524 . S
C1409 C1410 1.397 . S
C1409 C1414 1.363 . S
C1410 H1387 0.950 . S
C1410 C1409 1.397 . S
C1410 C1411 1.334 . S
C1411 H1388 0.950 . S
C1411 C1410 1.334 . S
C1411 C1412 1.287 . S
C1412 C1411 1.287 . S
C1412 C1413 1.524 . S
C1412 H1431 0.913 . S
C1413 H1389 0.950 . S
C1413 C1412 1.524 . S
C1413 C1414 1.415 . S
C1414 H1390 0.950 . S
C1414 C1409 1.363 . S
C1414 C1413 1.415 . S
C1415 H1391 0.951 . S
C1415 C1416 1.366 . S
C1415 C1417 1.388 . S
C1416 C1415 1.366 . S
C1416 C1420 1.385 . S
C1417 H1392 0.951 1_455 S
C1417 C1415 1.388 . S
C1417 C1418 1.366 . S
C1418 C1417 1.366 . S
C1418 C1419 1.414 . S
C1418 C1421 1.499 . S
C1419 H1393 0.950 . S
C1419 C1418 1.414 . S
C1419 C1420 1.374 . S
C1420 H1394 0.950 . S
C1420 C1416 1.385 . S
C1420 C1419 1.374 . S
C1421 C1418 1.499 . S
C1421 C1422 1.373 . S
C1421 C1423 1.389 1_455 S
C1422 H1395 0.950 . S
C1422 C1408 1.377 . S
C1422 C1421 1.373 . S
C1423 C1407 1.377 . S
C1423 C1421 1.389 1_655 S
C1423 C1424 1.524 . S
C1424 C1423 1.524 . S
C1424 C1425 1.397 . S
C1424 C1429 1.363 . S
C1425 H1396 0.950 . S
C1425 C1424 1.397 . S
C1425 C1426 1.334 . S
C1426 H1397 0.950 . S
C1426 C1425 1.334 . S
C1426 C1427 1.287 . S
C1427 C1426 1.287 . S
C1427 C1428 1.524 . S
C1427 H1430 0.999 . S
C1428 H1398 0.950 . S
C1428 C1427 1.524 . S
C1428 C1429 1.415 . S
C1429 H1399 0.950 . S
C1429 C1424 1.363 . S
C1429 C1428 1.415 . S
H1430 C1427 0.999 . S
H1431 C1412 0.913 . S
H1432 C1450 0.951 1_565 S
H1433 C1452 0.951 . S
H1434 C1454 0.950 . S
H1435 C1455 0.950 . S
H1436 C1457 0.950 . S
H1437 C1460 0.950 1_545 S
H1438 C1461 0.950 . S
H1439 C1463 0.950 . S
H1440 C1464 0.950 . S
H1441 C1465 0.951 1_545 S
H1442 C1467 0.951 . S
H1443 C1469 0.950 . S
H1444 C1470 0.950 . S
H1445 C1472 0.950 . S
H1446 C1475 0.950 1_565 S
H1447 C1476 0.950 . S
H1448 C1478 0.950 . S
H1449 C1479 0.950 . S
C1450 H1432 0.951 1_545 S
C1450 C1451 1.366 . S
C1450 C1452 1.388 1_545 S
C1451 C1450 1.366 . S
C1451 C1455 1.385 . S
C1452 H1433 0.951 . S
C1452 C1450 1.388 1_565 S
C1452 C1453 1.366 1_565 S
C1453 C1452 1.366 1_545 S
C1453 C1454 1.414 . S
C1453 C1456 1.499 . S
C1454 H1434 0.950 . S
C1454 C1453 1.414 . S
C1454 C1455 1.374 . S
C1455 H1435 0.950 . S
C1455 C1451 1.385 . S
C1455 C1454 1.374 . S
C1456 C1453 1.499 . S
C1456 C1457 1.373 . S
C1456 C1458 1.389 1_545 S
C1457 H1436 0.950 . S
C1457 C1456 1.373 . S
C1457 C1473 1.377 1_554 S
C1458 C1456 1.389 1_565 S
C1458 C1459 1.524 . S
C1458 C1472 1.377 1_554 S
C1459 C1458 1.524 . S
C1459 C1460 1.397 . S
C1459 C1464 1.363 . S
C1460 H1437 0.950 1_565 S
C1460 C1459 1.397 . S
C1460 C1461 1.334 . S
C1461 H1438 0.950 . S
C1461 C1460 1.334 . S
C1461 C1462 1.287 . S
C1462 C1461 1.287 . S
C1462 C1463 1.524 . S
C1462 H1481 0.913 . S
C1463 H1439 0.950 . S
C1463 C1462 1.524 . S
C1463 C1464 1.415 . S
C1464 H1440 0.950 . S
C1464 C1459 1.363 . S
C1464 C1463 1.415 . S
C1465 H1441 0.951 1_565 S
C1465 C1466 1.366 . S
C1465 C1467 1.388 1_565 S
C1466 C1465 1.366 . S
C1466 C1470 1.385 . S
C1467 H1442 0.951 . S
C1467 C1465 1.388 1_545 S
C1467 C1468 1.366 1_545 S
C1468 C1467 1.366 1_565 S
C1468 C1469 1.414 . S
C1468 C1471 1.499 . S
C1469 H1443 0.950 . S
C1469 C1468 1.414 . S
C1469 C1470 1.374 . S
C1470 H1444 0.950 . S
C1470 C1466 1.385 . S
C1470 C1469 1.374 . S
C1471 C1468 1.499 . S
C1471 C1472 1.373 . S
C1471 C1473 1.389 1_565 S
C1472 H1445 0.950 . S
C1472 C1458 1.377 1_556 S
C1472 C1471 1.373 . S
C1473 C1457 1.377 1_556 S
C1473 C1471 1.389 1_545 S
C1473 C1474 1.524 . S
C1474 C1473 1.524 . S
C1474 C1475 1.397 . S
C1474 C1479 1.363 . S
C1475 H1446 0.950 1_545 S
C1475 C1474 1.397 . S
C1475 C1476 1.334 . S
C1476 H1447 0.950 . S
C1476 C1475 1.334 . S
C1476 C1477 1.287 . S
C1477 C1476 1.287 . S
C1477 C1478 1.524 . S
C1477 H1480 0.999 . S
C1478 H1448 0.950 . S
C1478 C1477 1.524 . S
C1478 C1479 1.415 . S
C1479 H1449 0.950 . S
C1479 C1474 1.363 . S
C1479 C1478 1.415 . S
H1480 C1477 0.999 . S
H1481 C1462 0.913 . S
H1482 C1500 0.951 . S
H1483 C1502 0.951 . S
H1484 C1504 0.950 . S
H1485 C1505 0.950 . S
H1486 C1507 0.950 . S
H1487 C1510 0.950 . S
H1488 C1511 0.950 . S
H1489 C1513 0.950 . S
H1490 C1514 0.950 . S
H1491 C1515 0.951 . S
H1492 C1517 0.951 . S
H1493 C1519 0.950 . S
H1494 C1520 0.950 . S
H1495 C1522 0.950 . S
H1496 C1525 0.950 . S
H1497 C1526 0.950 . S
H1498 C1528 0.950 . S
H1499 C1529 0.950 . S
C1500 H1482 0.951 . S
C1500 C1501 1.366 . S
C1500 C1502 1.388 . S
C1501 C1500 1.366 . S
C1501 C1505 1.385 . S
C1502 H1483 0.951 . S
C1502 C1500 1.388 . S
C1502 C1503 1.366 . S
C1503 C1502 1.366 . S
C1503 C1504 1.414 . S
C1503 C1506 1.499 . S
C1504 H1484 0.950 . S
C1504 C1503 1.414 . S
C1504 C1505 1.374 . S
C1505 H1485 0.950 . S
C1505 C1501 1.385 . S
C1505 C1504 1.374 . S
C1506 C1503 1.499 . S
C1506 C1507 1.373 . S
C1506 C1508 1.389 . S
C1507 H1486 0.950 . S
C1507 C1506 1.373 . S
C1507 C1523 1.377 . S
C1508 C1506 1.389 . S
C1508 C1509 1.524 . S
C1508 C1522 1.377 . S
C1509 C1508 1.524 . S
C1509 C1510 1.397 . S
C1509 C1514 1.363 . S
C1510 H1487 0.950 . S
C1510 C1509 1.397 . S
C1510 C1511 1.334 . S
C1511 H1488 0.950 . S
C1511 C1510 1.334 . S
C1511 C1512 1.287 . S
C1512 C1511 1.287 . S
C1512 C1513 1.524 . S
C1512 H1531 0.913 . S
C1513 H1489 0.950 . S
C1513 C1512 1.524 . S
C1513 C1514 1.415 . S
C1514 H1490 0.950 . S
C1514 C1509 1.363 . S
C1514 C1513 1.415 . S
C1515 H1491 0.951 . S
C1515 C1516 1.366 . S
C1515 C1517 1.388 . S
C1516 C1515 1.366 . S
C1516 C1520 1.385 . S
C1517 H1492 0.951 . S
C1517 C1515 1.388 . S
C1517 C1518 1.366 . S
C1518 C1517 1.366 . S
C1518 C1519 1.414 . S
C1518 C1521 1.499 . S
C1519 H1493 0.950 . S
C1519 C1518 1.414 . S
C1519 C1520 1.374 . S
C1520 H1494 0.950 . S
C1520 C1516 1.385 . S
C1520 C1519 1.374 . S
C1521 C1518 1.499 . S
C1521 C1522 1.373 . S
C1521 C1523 1.389 . S
C1522 H1495 0.950 . S
C1522 C1508 1.377 . S
C1522 C1521 1.373 . S
C1523 C1507 1.377 . S
C1523 C1521 1.389 . S
C1523 C1524 1.524 . S
C1524 C1523 1.524 . S
C1524 C1525 1.397 . S
C1524 C1529 1.363 . S
C1525 H1496 0.950 . S
C1525 C1524 1.397 . S
C1525 C1526 1.334 . S
C1526 H1497 0.950 . S
C1526 C1525 1.334 . S
C1526 C1527 1.287 . S
C1527 C1526 1.287 . S
C1527 C1528 1.524 . S
C1527 H1530 0.999 . S
C1528 H1498 0.950 . S
C1528 C1527 1.524 . S
C1528 C1529 1.415 . S
C1529 H1499 0.950 . S
C1529 C1524 1.363 . S
C1529 C1528 1.415 . S
H1530 C1527 0.999 . S
H1531 C1512 0.913 . S
H1532 C1550 0.951 . S
H1533 C1552 0.951 . S
H1534 C1554 0.950 . S
H1535 C1555 0.950 1_655 S
H1536 C1557 0.950 . S
H1537 C1560 0.950 . S
H1538 C1561 0.950 . S
H1539 C1563 0.950 . S
H1540 C1564 0.950 . S
H1541 C1565 0.951 . S
H1542 C1567 0.951 . S
H1543 C1569 0.950 . S
H1544 C1570 0.950 1_455 S
H1545 C1572 0.950 . S
H1546 C1575 0.950 . S
H1547 C1576 0.950 . S
H1548 C1578 0.950 . S
H1549 C1579 0.950 . S
C1550 H1532 0.951 . S
C1550 C1551 1.366 . S
C1550 C1552 1.388 . S
C1551 C1550 1.366 . S
C1551 C1555 1.385 . S
C1552 H1533 0.951 . S
C1552 C1550 1.388 . S
C1552 C1553 1.366 . S
C1553 C1552 1.366 . S
C1553 C1554 1.414 1_455 S
C1553 C1556 1.499 . S
C1554 H1534 0.950 . S
C1554 C1553 1.414 1_655 S
C1554 C1555 1.374 1_655 S
C1555 H1535 0.950 1_455 S
C1555 C1551 1.385 . S
C1555 C1554 1.374 1_455 S
C1556 C1553 1.499 . S
C1556 C1557 1.373 1_455 S
C1556 C1558 1.389 . S
C1557 H1536 0.950 . S
C1557 C1556 1.373 1_655 S
C1557 C1573 1.377 . S
C1558 C1556 1.389 . S
C1558 C1559 1.524 . S
C1558 C1572 1.377 . S
C1559 C1558 1.524 . S
C1559 C1560 1.397 . S
C1559 C1564 1.363 . S
C1560 H1537 0.950 . S
C1560 C1559 1.397 . S
C1560 C1561 1.334 . S
C1561 H1538 0.950 . S
C1561 C1560 1.334 . S
C1561 C1562 1.287 . S
C1562 C1561 1.287 . S
C1562 C1563 1.524 . S
C1562 H1581 0.913 . S
C1563 H1539 0.950 . S
C1563 C1562 1.524 . S
C1563 C1564 1.415 . S
C1564 H1540 0.950 . S
C1564 C1559 1.363 . S
C1564 C1563 1.415 . S
C1565 H1541 0.951 . S
C1565 C1566 1.366 . S
C1565 C1567 1.388 . S
C1566 C1565 1.366 . S
C1566 C1570 1.385 . S
C1567 H1542 0.951 . S
C1567 C1565 1.388 . S
C1567 C1568 1.366 . S
C1568 C1567 1.366 . S
C1568 C1569 1.414 1_655 S
C1568 C1571 1.499 . S
C1569 H1543 0.950 . S
C1569 C1568 1.414 1_455 S
C1569 C1570 1.374 1_455 S
C1570 H1544 0.950 1_655 S
C1570 C1566 1.385 . S
C1570 C1569 1.374 1_655 S
C1571 C1568 1.499 . S
C1571 C1572 1.373 1_655 S
C1571 C1573 1.389 . S
C1572 H1545 0.950 . S
C1572 C1558 1.377 . S
C1572 C1571 1.373 1_455 S
C1573 C1557 1.377 . S
C1573 C1571 1.389 . S
C1573 C1574 1.524 . S
C1574 C1573 1.524 . S
C1574 C1575 1.397 . S
C1574 C1579 1.363 . S
C1575 H1546 0.950 . S
C1575 C1574 1.397 . S
C1575 C1576 1.334 . S
C1576 H1547 0.950 . S
C1576 C1575 1.334 . S
C1576 C1577 1.287 . S
C1577 C1576 1.287 . S
C1577 C1578 1.524 . S
C1577 H1580 0.999 . S
C1578 H1548 0.950 . S
C1578 C1577 1.524 . S
C1578 C1579 1.415 . S
C1579 H1549 0.950 . S
C1579 C1574 1.363 . S
C1579 C1578 1.415 . S
H1580 C1577 0.999 . S
H1581 C1562 0.913 . S
H1582 C1600 0.951 . S
H1583 C1602 0.951 . S
H1584 C1604 0.947 1_545 S
H1585 C1605 0.950 1_545 S
H1586 C1607 0.950 . S
H1587 C1610 0.950 . S
H1588 C1611 0.950 . S
H1589 C1613 0.950 1_556 S
H1590 C1614 0.963 . S
H1591 C1615 0.951 . S
H1592 C1617 0.951 . S
H1593 C1619 0.947 1_565 S
H1594 C1620 0.950 1_565 S
H1595 C1622 0.950 . S
H1596 C1625 0.950 . S
H1597 C1626 0.950 . S
H1598 C1628 0.950 1_554 S
H1599 C1629 0.963 . S
C1600 H1582 0.951 . S
C1600 C1601 1.366 . S
C1600 C1602 1.388 . S
C1601 C1600 1.366 . S
C1601 C1605 1.385 . S
C1602 H1583 0.951 . S
C1602 C1600 1.388 . S
C1602 C1603 1.366 . S
C1603 C1602 1.366 . S
C1603 C1604 1.415 . S
C1603 C1606 1.499 . S
C1604 H1584 0.947 1_565 S
C1604 C1603 1.415 . S
C1604 C1605 1.375 . S
C1605 H1585 0.950 1_565 S
C1605 C1601 1.385 . S
C1605 C1604 1.375 . S
C1606 C1603 1.499 . S
C1606 C1607 1.373 1_565 S
C1606 C1608 1.389 . S
C1607 H1586 0.950 . S
C1607 C1606 1.373 1_545 S
C1607 C1623 1.377 1_554 S
C1608 C1606 1.389 . S
C1608 C1609 1.524 . S
C1608 C1622 1.377 1_554 S
C1609 C1608 1.524 . S
C1609 C1610 1.397 . S
C1609 C1614 1.353 1_554 S
C1610 H1587 0.950 . S
C1610 C1609 1.397 . S
C1610 C1611 1.334 . S
C1611 H1588 0.950 . S
C1611 C1610 1.334 . S
C1611 C1612 1.287 . S
C1612 C1611 1.287 . S
C1612 C1613 1.524 . S
C1612 H1631 0.913 . S
C1613 H1589 0.950 1_554 S
C1613 C1612 1.524 . S
C1613 C1614 1.412 1_554 S
C1614 H1590 0.963 . S
C1614 C1609 1.353 1_556 S
C1614 C1613 1.412 1_556 S
C1615 H1591 0.951 . S
C1615 C1616 1.366 . S
C1615 C1617 1.388 . S
C1616 C1615 1.366 . S
C1616 C1620 1.385 . S
C1617 H1592 0.951 . S
C1617 C1615 1.388 . S
C1617 C1618 1.366 . S
C1618 C1617 1.366 . S
C1618 C1619 1.416 . S
C1618 C1621 1.499 . S
C1619 H1593 0.947 1_545 S
C1619 C1618 1.416 . S
C1619 C1620 1.375 . S
C1620 H1594 0.950 1_545 S
C1620 C1616 1.385 . S
C1620 C1619 1.375 . S
C1621 C1618 1.499 . S
C1621 C1622 1.373 1_545 S
C1621 C1623 1.389 . S
C1622 H1595 0.950 . S
C1622 C1608 1.377 1_556 S
C1622 C1621 1.373 1_565 S
C1623 C1607 1.377 1_556 S
C1623 C1621 1.389 . S
C1623 C1624 1.524 . S
C1624 C1623 1.524 . S
C1624 C1625 1.397 . S
C1624 C1629 1.353 1_556 S
C1625 H1596 0.950 . S
C1625 C1624 1.397 . S
C1625 C1626 1.334 . S
C1626 H1597 0.950 . S
C1626 C1625 1.334 . S
C1626 C1627 1.287 . S
C1627 C1626 1.287 . S
C1627 C1628 1.524 . S
C1627 H1630 0.999 . S
C1628 H1598 0.950 1_556 S
C1628 C1627 1.524 . S
C1628 C1629 1.412 1_556 S
C1629 H1599 0.963 . S
C1629 C1624 1.353 1_554 S
C1629 C1628 1.412 1_554 S
H1630 C1627 0.999 . S
H1631 C1612 0.913 . S
C451 C399 1.616 . S
C466 C3 1.616 . S
C501 C39 1.617 . S
C516 C219 1.616 . S
C551 C75 1.617 . S
C566 C255 1.616 . S
C601 C111 1.617 . S
C616 C291 1.617 . S
C651 C327 1.617 . S
C666 C147 1.617 . S
C701 C183 1.617 . S
C716 C363 1.616 . S
C751 C112 1.119 . S
C766 C4 1.119 . S
C801 C148 1.119 . S
C816 C40 1.118 . S
C851 C184 1.118 . S
C866 C76 1.118 . S
C901 C220 1.119 . S
C916 C328 1.118 . S
C951 C256 1.119 . S
C966 C364 1.118 . S
C1001 C292 1.119 . S
C1016 C400 1.119 . S
C1051 C290 0.170 . S
C1066 C2 0.169 . S
C1101 C38 0.171 . S
C1116 C326 0.169 . S
C1151 C362 0.169 . S
C1166 C74 0.169 . S
C1201 C398 0.169 . S
C1216 C110 0.169 . S
C1251 C218 0.169 . S
C1266 C146 0.169 . S
C1301 C182 0.169 . S
C1316 C254 0.171 . S
C1351 C338 1.510 . S
C1366 C14 1.510 . S
C1401 C50 1.510 . S
C1416 C374 1.510 . S
C1451 C410 1.509 . S
C1466 C86 1.510 . S
C1501 C122 1.509 . S
C1516 C230 1.509 . S
C1551 C158 1.510 . S
C1566 C266 1.509 . S
C1601 C302 1.509 . S
C1616 C194 1.509 . S
