# Generated by pormake.
# Topology ure, (4)-cn, num edge types: 1
# Building blocks:
#     Node 0, Type 0, BuildingBlock: QUQFOY_clean_sbu_1, # of connection points: 4
#     Node 1, Type 0, BuildingBlock: QUQFOY_clean_sbu_1, # of connection points: 4
#     Node 2, Type 0, BuildingBlock: QUQFOY_clean_sbu_1, # of connection points: 4
#     Node 3, Type 0, BuildingBlock: QUQFOY_clean_sbu_1, # of connection points: 4
#     Node 4, Type 0, BuildingBlock: QUQFOY_clean_sbu_1, # of connection points: 4
#     Node 5, Type 0, BuildingBlock: QUQFOY_clean_sbu_1, # of connection points: 4
#     Node 6, Type 0, BuildingBlock: QUQFOY_clean_sbu_1, # of connection points: 4
#     Node 7, Type 0, BuildingBlock: QUQFOY_clean_sbu_1, # of connection points: 4
#     Node 8, Type 0, BuildingBlock: QUQFOY_clean_sbu_1, # of connection points: 4
#     Node 9, Type 0, BuildingBlock: QUQFOY_clean_sbu_1, # of connection points: 4
#     Node 10, Type 0, BuildingBlock: QUQFOY_clean_sbu_1, # of connection points: 4
#     Node 11, Type 0, BuildingBlock: QUQFOY_clean_sbu_1, # of connection points: 4
#     Node 12, Type 0, BuildingBlock: QUQFOY_clean_sbu_1, # of connection points: 4
#     Node 13, Type 0, BuildingBlock: QUQFOY_clean_sbu_1, # of connection points: 4
#     Node 14, Type 0, BuildingBlock: QUQFOY_clean_sbu_1, # of connection points: 4
#     Node 15, Type 0, BuildingBlock: QUQFOY_clean_sbu_1, # of connection points: 4
#     Edge 16, Type (0, 0), BuildingBlock: EZIPEK_clean_linker_0, # of connection points: 2
#     Edge 17, Type (0, 0), BuildingBlock: EZIPEK_clean_linker_0, # of connection points: 2
#     Edge 18, Type (0, 0), BuildingBlock: EZIPEK_clean_linker_0, # of connection points: 2
#     Edge 19, Type (0, 0), BuildingBlock: EZIPEK_clean_linker_0, # of connection points: 2
#     Edge 20, Type (0, 0), BuildingBlock: EZIPEK_clean_linker_0, # of connection points: 2
#     Edge 21, Type (0, 0), BuildingBlock: EZIPEK_clean_linker_0, # of connection points: 2
#     Edge 22, Type (0, 0), BuildingBlock: EZIPEK_clean_linker_0, # of connection points: 2
#     Edge 23, Type (0, 0), BuildingBlock: EZIPEK_clean_linker_0, # of connection points: 2
#     Edge 24, Type (0, 0), BuildingBlock: EZIPEK_clean_linker_0, # of connection points: 2
#     Edge 25, Type (0, 0), BuildingBlock: EZIPEK_clean_linker_0, # of connection points: 2
#     Edge 26, Type (0, 0), BuildingBlock: EZIPEK_clean_linker_0, # of connection points: 2
#     Edge 27, Type (0, 0), BuildingBlock: EZIPEK_clean_linker_0, # of connection points: 2
#     Edge 28, Type (0, 0), BuildingBlock: EZIPEK_clean_linker_0, # of connection points: 2
#     Edge 29, Type (0, 0), BuildingBlock: EZIPEK_clean_linker_0, # of connection points: 2
#     Edge 30, Type (0, 0), BuildingBlock: EZIPEK_clean_linker_0, # of connection points: 2
#     Edge 31, Type (0, 0), BuildingBlock: EZIPEK_clean_linker_0, # of connection points: 2
#     Edge 32, Type (0, 0), BuildingBlock: EZIPEK_clean_linker_0, # of connection points: 2
#     Edge 33, Type (0, 0), BuildingBlock: EZIPEK_clean_linker_0, # of connection points: 2
#     Edge 34, Type (0, 0), BuildingBlock: EZIPEK_clean_linker_0, # of connection points: 2
#     Edge 35, Type (0, 0), BuildingBlock: EZIPEK_clean_linker_0, # of connection points: 2
#     Edge 36, Type (0, 0), BuildingBlock: EZIPEK_clean_linker_0, # of connection points: 2
#     Edge 37, Type (0, 0), BuildingBlock: EZIPEK_clean_linker_0, # of connection points: 2
#     Edge 38, Type (0, 0), BuildingBlock: EZIPEK_clean_linker_0, # of connection points: 2
#     Edge 39, Type (0, 0), BuildingBlock: EZIPEK_clean_linker_0, # of connection points: 2
#     Edge 40, Type (0, 0), BuildingBlock: EZIPEK_clean_linker_0, # of connection points: 2
#     Edge 41, Type (0, 0), BuildingBlock: EZIPEK_clean_linker_0, # of connection points: 2
#     Edge 42, Type (0, 0), BuildingBlock: EZIPEK_clean_linker_0, # of connection points: 2
#     Edge 43, Type (0, 0), BuildingBlock: EZIPEK_clean_linker_0, # of connection points: 2
#     Edge 44, Type (0, 0), BuildingBlock: EZIPEK_clean_linker_0, # of connection points: 2
#     Edge 45, Type (0, 0), BuildingBlock: EZIPEK_clean_linker_0, # of connection points: 2
#     Edge 46, Type (0, 0), BuildingBlock: EZIPEK_clean_linker_0, # of connection points: 2
#     Edge 47, Type (0, 0), BuildingBlock: EZIPEK_clean_linker_0, # of connection points: 2
# Relax obj value: 0.276
# Max RMSD: 0.318
# Mean RMSD: 0.225
data_MOF--net-ure--node1-QUQFOY_clean_sbu_1--edge1-EZIPEK_clean_linker_0
_symmetry_space_group_name_H-M    P1
_symmetry_Int_Tables_number       1
_symmetry_cell_setting            triclinic
loop_
_symmetry_equiv_pos_as_xyz
'x, y, z'
_cell_length_a     23.022704
_cell_length_b     25.632308
_cell_length_c     24.343796
_cell_angle_alpha  93.365364
_cell_angle_beta   93.612039
_cell_angle_gamma 96.710981
loop_
_atom_site_label
_atom_site_type_symbol
_atom_site_fract_x
_atom_site_fract_y
_atom_site_fract_z
_atom_type_partial_charge
O0 O 0.35086 0.22825 0.24569 0.0
Cd1 Cd 0.27328 0.2453 0.2771 0.0
Cd2 Cd 0.33874 0.33573 0.30098 0.0
O3 O 0.40085 0.30709 0.25584 0.0
O4 O 0.21728 0.18469 0.24645 0.0
O5 O 0.21352 0.26662 0.22237 0.0
C6 C 0.19421 0.21712 0.21575 0.0
C7 C 0.30257 0.41343 0.28267 0.0
C8 C 0.39735 0.25874 0.24013 0.0
C9 C 0.29858 0.27882 0.39626 0.0
O10 O 0.3363 0.31332 0.37974 0.0
O11 O 0.264 0.24941 0.36159 0.0
O12 O 0.35431 0.41349 0.30635 0.0
O13 O 0.27149 0.36894 0.268 0.0
O14 O 0.02433 0.9634 0.60161 0.0
Cd15 Cd 0.99947 0.94583 0.51934 0.0
Cd16 Cd 0.99803 0.05779 0.5218 0.0
O17 O 0.04236 0.04979 0.59688 0.0
O18 O 0.02243 0.87543 0.49628 0.0
O19 O 0.06116 0.9497 0.46422 0.0
C20 C 0.05935 0.89916 0.46552 0.0
C21 C 0.01242 0.14084 0.48478 0.0
C22 C 0.0419 0.00892 0.62427 0.0
C23 C 0.8832 0.9829 0.50556 0.0
O24 O 0.91053 0.02881 0.51472 0.0
O25 O 0.91057 0.94276 0.50144 0.0
O26 O 0.98674 0.13398 0.52949 0.0
O27 O 0.03232 0.10096 0.46104 0.0
O28 O 0.16845 0.79458 0.75591 0.0
Cd29 Cd 0.25706 0.8098 0.78165 0.0
Cd30 Cd 0.23624 0.70851 0.77903 0.0
O31 O 0.1827 0.72049 0.71214 0.0
O32 O 0.2911 0.8775 0.75447 0.0
O33 O 0.31181 0.79874 0.7232 0.0
C34 C 0.3177 0.84935 0.72066 0.0
C35 C 0.26692 0.62438 0.78144 0.0
C36 C 0.15004 0.75597 0.72161 0.0
C37 C 0.24426 0.76914 0.88534 0.0
O38 O 0.21042 0.7365 0.85362 0.0
O39 O 0.28105 0.80127 0.86397 0.0
O40 O 0.21349 0.63231 0.78648 0.0
O41 O 0.30443 0.66446 0.77434 0.0
O42 O 0.58379 0.01281 0.93221 0.0
Cd43 Cd 0.49526 0.99345 0.9379 0.0
Cd44 Cd 0.53437 0.98096 0.04089 0.0
O45 O 0.60863 0.02661 0.02121 0.0
O46 O 0.45444 0.03042 0.87969 0.0
O47 O 0.44936 0.0486 0.96956 0.0
C48 C 0.43647 0.05896 0.91918 0.0
C49 C 0.50428 0.98589 0.13107 0.0
C50 C 0.62207 0.0279 0.97155 0.0
C51 C 0.49369 0.88409 0.96706 0.0
O52 O 0.52542 0.90458 0.009 0.0
O53 O 0.46847 0.91273 0.93428 0.0
O54 O 0.47152 0.99942 0.09068 0.0
O55 O 0.55436 0.97202 0.12002 0.0
O56 O 0.28038 0.65484 0.30184 0.0
Cd57 Cd 0.28953 0.73696 0.30449 0.0
Cd58 Cd 0.27874 0.71359 0.20165 0.0
O59 O 0.23235 0.64496 0.22041 0.0
O60 O 0.26459 0.76747 0.37517 0.0
O61 O 0.21739 0.77344 0.29399 0.0
C62 C 0.22154 0.7836 0.34689 0.0
C63 C 0.25152 0.74463 0.11668 0.0
C64 C 0.25171 0.62513 0.26324 0.0
C65 C 0.39902 0.7467 0.25512 0.0
O66 O 0.36811 0.71622 0.2189 0.0
O67 O 0.3732 0.77135 0.29119 0.0
O68 O 0.2764 0.70259 0.1208 0.0
O69 O 0.24103 0.77006 0.16155 0.0
O70 O 0.47559 0.96459 0.39755 0.0
Cd71 Cd 0.50724 0.96895 0.47888 0.0
Cd72 Cd 0.55102 0.07185 0.45999 0.0
O73 O 0.51974 0.04291 0.38107 0.0
O74 O 0.46746 0.9074 0.51342 0.0
O75 O 0.46067 0.99026 0.54169 0.0
C76 C 0.44805 0.9405 0.54752 0.0
C77 C 0.53513 0.15902 0.4825 0.0
C78 C 0.49012 0.9993 0.36416 0.0
C79 C 0.637 0.99915 0.49571 0.0
O80 O 0.62825 0.04635 0.48837 0.0
O81 O 0.59496 0.96216 0.49198 0.0
O82 O 0.57392 0.14803 0.44929 0.0
O83 O 0.5059 0.12062 0.50468 0.0
O84 O 0.28342 0.38045 0.83363 0.0
Cd85 Cd 0.25734 0.30015 0.83432 0.0
Cd86 Cd 0.24759 0.30258 0.72069 0.0
O87 O 0.28443 0.37782 0.74292 0.0
O88 O 0.29291 0.26542 0.8974 0.0
O89 O 0.30584 0.2445 0.80938 0.0
C90 C 0.31444 0.23582 0.86095 0.0
C91 C 0.26683 0.28111 0.62904 0.0
C92 C 0.29072 0.40365 0.78936 0.0
C93 C 0.13691 0.28023 0.78207 0.0
O94 O 0.16077 0.28692 0.73698 0.0
O95 O 0.16786 0.28137 0.82732 0.0
O96 O 0.23201 0.31466 0.64176 0.0
O97 O 0.29004 0.25716 0.66836 0.0
O98 O 0.04147 0.05424 0.89366 0.0
Cd99 Cd 0.99574 0.05808 0.96316 0.0
Cd100 Cd 0.96721 0.95044 0.93593 0.0
O101 O 0.0099 0.97198 0.86687 0.0
O102 O 0.02329 0.12965 0.99696 0.0
O103 O 0.03816 0.05633 0.03715 0.0
C104 C 0.04551 0.10711 0.0378 0.0
C105 C 0.9816 0.86422 0.95644 0.0
C106 C 0.03857 0.01573 0.85817 0.0
C107 C 0.86769 0.01877 0.94554 0.0
O108 O 0.88392 0.97293 0.94444 0.0
O109 O 0.90629 0.05844 0.95336 0.0
O110 O 0.94653 0.87392 0.91621 0.0
O111 O 0.00754 0.90383 0.98734 0.0
O112 O 0.74422 0.13831 0.80948 0.0
Cd113 Cd 0.76841 0.21801 0.81981 0.0
Cd114 Cd 0.77654 0.21908 0.70843 0.0
O115 O 0.76935 0.13953 0.72358 0.0
O116 O 0.73963 0.25081 0.88752 0.0
O117 O 0.70984 0.26782 0.8027 0.0
C118 C 0.7072 0.27575 0.85545 0.0
C119 C 0.7534 0.23065 0.61518 0.0
C120 C 0.75396 0.11406 0.76461 0.0
C121 C 0.88321 0.2581 0.77966 0.0
O122 O 0.85375 0.26472 0.73543 0.0
O123 O 0.85799 0.23738 0.81929 0.0
O124 O 0.79884 0.20995 0.63162 0.0
O125 O 0.71952 0.24535 0.65178 0.0
O126 O 0.97953 0.44036 0.89329 0.0
Cd127 Cd 0.00126 0.44417 0.97728 0.0
Cd128 Cd 0.02684 0.55442 0.9599 0.0
O129 O 0.9897 0.5261 0.88423 0.0
O130 O 0.96674 0.37815 0.00774 0.0
O131 O 0.94526 0.4576 0.03472 0.0
C132 C 0.9394 0.40734 0.03963 0.0
C133 C 0.01825 0.64516 0.9711 0.0
C134 C 0.97786 0.47926 0.8635 0.0
C135 C 0.12589 0.48869 0.99297 0.0
O136 O 0.10854 0.5317 0.97899 0.0
O137 O 0.08929 0.44892 -0.00088 0.0
O138 O 0.0543 0.62694 0.9391 0.0
O139 O 0.98878 0.61232 4e-05 0.0
O140 O 0.7974 0.84539 0.30679 0.0
Cd141 Cd 0.77442 0.76402 0.30357 0.0
Cd142 Cd 0.76275 0.77305 0.19444 0.0
O143 O 0.79254 0.84951 0.21658 0.0
O144 O 0.80989 0.7308 0.36787 0.0
O145 O 0.82585 0.70975 0.28071 0.0
C146 C 0.83349 0.70171 0.33252 0.0
C147 C 0.79363 0.75265 0.10656 0.0
C148 C 0.80027 0.87222 0.26446 0.0
C149 C 0.65245 0.74653 0.25451 0.0
O150 O 0.67537 0.75625 0.20945 0.0
O151 O 0.68498 0.74299 0.29793 0.0
O152 O 0.75243 0.78132 0.1142 0.0
O153 O 0.81543 0.73149 0.14867 0.0
O154 O 0.10733 0.49259 0.44628 0.0
Cd155 Cd 0.01957 0.46785 0.42872 0.0
Cd156 Cd 0.0261 0.45335 0.53982 0.0
O157 O 0.10131 0.50466 0.53588 0.0
O158 O 0.99059 0.50727 0.36618 0.0
O159 O 0.96204 0.51676 0.45134 0.0
C160 C 0.96071 0.53081 0.40111 0.0
C161 C 0.99414 0.45551 0.62901 0.0
C162 C 0.13079 0.50855 0.49381 0.0
C163 C 0.01057 0.35805 0.45568 0.0
O164 O 0.02407 0.37804 0.50439 0.0
O165 O 0.99963 0.38693 0.41648 0.0
O166 O 0.04102 0.43608 0.61725 0.0
O167 O 0.96343 0.47326 0.58975 0.0
O168 O 0.50093 0.478 0.07984 0.0
Cd169 Cd 0.49137 0.46987 0.99433 0.0
Cd170 Cd 0.49026 0.57535 0.02092 0.0
O171 O 0.54644 0.5587 0.08474 0.0
O172 O 0.50632 0.39653 0.97216 0.0
O173 O 0.56352 0.4671 0.95178 0.0
C174 C 0.55272 0.41637 0.95018 0.0
C175 C 0.49208 0.66309 0.99406 0.0
C176 C 0.52945 0.51709 0.10806 0.0
C177 C 0.37854 0.50466 0.99197 0.0
O178 O 0.4058 0.54012 0.02574 0.0
O179 O 0.40767 0.47681 0.96182 0.0
O180 O 0.48184 0.65052 0.04303 0.0
O181 O 0.50422 0.62613 0.95995 0.0
O182 O 0.88275 0.70717 0.73894 0.0
Cd183 Cd 0.80239 0.71585 0.76677 0.0
Cd184 Cd 0.84346 0.81444 0.77245 0.0
O185 O 0.89047 0.78643 0.7103 0.0
O186 O 0.74767 0.65573 0.73421 0.0
O187 O 0.74463 0.73887 0.71236 0.0
C188 C 0.72538 0.68935 0.70428 0.0
C189 C 0.81736 0.9006 0.76376 0.0
C190 C 0.90756 0.7412 0.70957 0.0
C191 C 0.8326 0.75907 0.87787 0.0
O192 O 0.863 0.79446 0.85358 0.0
O193 O 0.79637 0.72519 0.84977 0.0
O194 O 0.87086 0.89088 0.76783 0.0
O195 O 0.77774 0.8605 0.76312 0.0
O196 O 0.65822 0.26571 0.25106 0.0
Cd197 Cd 0.74669 0.27609 0.27269 0.0
Cd198 Cd 0.72283 0.17292 0.27027 0.0
O199 O 0.6598 0.1869 0.21101 0.0
O200 O 0.78185 0.3422 0.24338 0.0
O201 O 0.79999 0.26218 0.2136 0.0
C202 C 0.80705 0.31265 0.20975 0.0
C203 C 0.75528 0.08938 0.26631 0.0
C204 C 0.63289 0.22642 0.22109 0.0
C205 C 0.73941 0.23578 0.37879 0.0
O206 O 0.71005 0.19768 0.35007 0.0
O207 O 0.76931 0.27175 0.35532 0.0
O208 O 0.70312 0.09638 0.27835 0.0
O209 O 0.78978 0.12997 0.25463 0.0
O210 O 0.52261 0.55381 0.37481 0.0
Cd211 Cd 0.49913 0.56386 0.45403 0.0
Cd212 Cd 0.4637 0.45782 0.44169 0.0
O213 O 0.48057 0.47161 0.36078 0.0
O214 O 0.54414 0.62898 0.48857 0.0
O215 O 0.5516 0.54893 0.51754 0.0
C216 C 0.56639 0.59931 0.52322 0.0
C217 C 0.48398 0.37365 0.4661 0.0
C218 C 0.5073 0.51282 0.34302 0.0
C219 C 0.37637 0.53199 0.47503 0.0
O220 O 0.39015 0.48538 0.47158 0.0
O221 O 0.41345 0.57085 0.46712 0.0
O222 O 0.43642 0.38106 0.43872 0.0
O223 O 0.51991 0.41491 0.48235 0.0
C224 C 0.17336 0.19283 0.11543 0.0
C225 C 0.15268 0.19628 0.16907 0.0
C226 C 0.06101 0.14188 0.13662 0.0
C227 C 0.08135 0.139 0.08279 0.0
N228 N 0.15227 0.16746 0.01821 0.0
N229 N 0.07476 0.18304 0.22988 0.0
C230 C 0.13589 0.16668 0.07128 0.0
C231 C 0.09576 0.1734 0.17942 0.0
N232 N 0.23017 0.21156 0.10741 0.0
N233 N 0.00879 0.11409 0.14676 0.0
H234 H 0.09938 0.20639 0.26168 0.0
H235 H 0.03179 0.17169 0.23914 0.0
H236 H 0.98062 0.09311 0.11578 0.0
H237 H 0.99435 0.1096 0.18605 0.0
H238 H 0.25037 0.20414 0.07118 0.0
H239 H 0.25902 0.23187 0.13828 0.0
H240 H 0.18729 0.19267 0.00618 0.0
H241 H 0.12905 0.145 0.9851 0.0
C242 C 0.12611 0.82781 0.45845 0.0
C243 C 0.09971 0.86909 0.43396 0.0
C244 C 0.15744 0.85764 0.35358 0.0
C245 C 0.17761 0.81207 0.37514 0.0
N246 N 0.1648 0.74533 0.44109 0.0
N247 N 0.07901 0.91269 0.35066 0.0
C248 C 0.157 0.79452 0.42546 0.0
C249 C 0.11201 0.88099 0.37926 0.0
N250 N 0.12472 0.82176 0.51375 0.0
N251 N 0.18315 0.88044 0.31042 0.0
H252 H 0.04296 0.92795 0.36638 0.0
H253 H 0.0832 0.91856 0.30901 0.0
H254 H 0.21878 0.86681 0.29224 0.0
H255 H 0.17329 0.91644 0.29687 0.0
H256 H 0.14728 0.7945 0.53374 0.0
H257 H 0.10766 0.84812 0.54072 0.0
H258 H 0.14595 0.72942 0.47519 0.0
H259 H 0.18361 0.71813 0.41644 0.0
C260 C 0.35723 0.89111 0.57917 0.0
C261 C 0.41273 0.92106 0.59256 0.0
C262 C 0.40658 0.90305 0.69023 0.0
C263 C 0.35051 0.87436 0.67692 0.0
N264 N 0.2678 0.84738 0.61165 0.0
N265 N 0.48842 0.96069 0.66053 0.0
C266 C 0.32457 0.87003 0.62214 0.0
C267 C 0.43668 0.9289 0.64814 0.0
N268 N 0.33601 0.88246 0.5252 0.0
N269 N 0.43195 0.90356 0.74267 0.0
H270 H 0.51371 0.97759 0.63069 0.0
H271 H 0.50512 0.9729 0.70051 0.0
H272 H 0.41082 0.88544 0.77448 0.0
H273 H 0.47513 0.91881 0.7543 0.0
H274 H 0.29986 0.85547 0.51172 0.0
H275 H 0.35617 0.90071 0.49298 0.0
H276 H 0.24375 0.8484 0.57418 0.0
H277 H 0.24284 0.83055 0.6418 0.0
C278 C 0.43745 0.15063 0.88825 0.0
C279 C 0.40538 0.10494 0.90667 0.0
C280 C 0.31494 0.14717 0.90025 0.0
C281 C 0.34616 0.19131 0.87778 0.0
N282 N 0.43577 0.23437 0.84662 0.0
N283 N 0.31357 0.05662 0.92551 0.0
C284 C 0.40705 0.19274 0.87057 0.0
C285 C 0.34415 0.10252 0.91184 0.0
N286 N 0.49734 0.15448 0.8897 0.0
N287 N 0.25722 0.14787 0.91034 0.0
H288 H 0.33371 0.02356 0.93506 0.0
H289 H 0.26804 0.04973 0.92395 0.0
H290 H 0.23295 0.17784 0.89885 0.0
H291 H 0.23384 0.12022 0.93274 0.0
H292 H 0.5241 0.18859 0.88238 0.0
H293 H 0.52109 0.12455 0.90245 0.0
H294 H 0.4782 0.23521 0.83401 0.0
H295 H 0.41606 0.2675 0.83655 0.0
C296 C 0.66212 0.36147 0.85665 0.0
C297 C 0.6675 0.31205 0.87896 0.0
C298 C 0.60644 0.33618 0.95305 0.0
C299 C 0.5933 0.38138 0.92579 0.0
N300 N 0.59925 0.42955 0.84334 0.0
N301 N 0.63031 0.2473 0.9407 0.0
C302 C 0.61845 0.39202 0.87517 0.0
C303 C 0.63548 0.29785 0.92496 0.0
N304 N 0.70019 0.38073 0.8198 0.0
N305 N 0.59397 0.33069 0.00669 0.0
H306 H 0.64689 0.21674 0.91896 0.0
H307 H 0.60316 0.23455 0.97119 0.0
H308 H 0.57695 0.3596 0.03056 0.0
H309 H 0.60757 0.30046 0.02933 0.0
H310 H 0.70101 0.41868 0.80639 0.0
H311 H 0.7353 0.36159 0.80774 0.0
H312 H 0.61276 0.43516 0.80381 0.0
H313 H 0.56507 0.45081 0.85348 0.0
C314 C 0.93537 0.36471 0.12925 0.0
C315 C 0.90522 0.38368 0.08324 0.0
C316 C 0.81086 0.35788 0.12136 0.0
C317 C 0.8409 0.33622 0.16582 0.0
N318 N 0.93032 0.31279 0.20943 0.0
N319 N 0.81513 0.39227 0.03059 0.0
C320 C 0.90277 0.33759 0.16883 0.0
C321 C 0.84314 0.37885 0.07803 0.0
N322 N 0.99519 0.37464 0.13623 0.0
N323 N 0.75144 0.35839 0.12064 0.0
H324 H 0.83749 0.40822 -0.00168 0.0
H325 H 0.77013 0.38424 0.02118 0.0
H326 H 0.72562 0.34033 0.14949 0.0
H327 H 0.72779 0.37897 0.09321 0.0
H328 H 0.01953 0.3671 0.17174 0.0
H329 H 0.02064 0.39443 0.10818 0.0
H330 H 0.97429 0.30676 0.21011 0.0
H331 H 0.90836 0.29505 0.24095 0.0
C332 C 0.95915 0.62096 0.36577 0.0
C333 C 0.92804 0.57481 0.38437 0.0
C334 C 0.83591 0.61418 0.3739 0.0
C335 C 0.86631 0.65839 0.3509 0.0
N336 N 0.95566 0.70235 0.32011 0.0
N337 N 0.83626 0.52396 0.39925 0.0
C338 C 0.92757 0.66117 0.34518 0.0
C339 C 0.86629 0.57062 0.38701 0.0
N340 N 0.01914 0.62757 0.37046 0.0
N341 N 0.77782 0.61365 0.38305 0.0
H342 H 0.85684 0.4911 0.40856 0.0
H343 H 0.79075 0.51612 0.39583 0.0
H344 H 0.75262 0.64254 0.37026 0.0
H345 H 0.75518 0.58618 0.40623 0.0
H346 H 0.0446 0.6626 0.36369 0.0
H347 H 0.0439 0.59943 0.38583 0.0
H348 H 0.99851 0.70351 0.30846 0.0
H349 H 0.93507 0.73434 0.30787 0.0
C350 C 0.58755 0.62411 0.62377 0.0
C351 C 0.60682 0.62317 0.56946 0.0
C352 C 0.70325 0.66761 0.60367 0.0
C353 C 0.68323 0.67031 0.65761 0.0
N354 N 0.60559 0.65907 0.7191 0.0
N355 N 0.67922 0.64897 0.50553 0.0
C356 C 0.62512 0.65068 0.66775 0.0
C357 C 0.66348 0.6467 0.55872 0.0
N358 N 0.53344 0.59943 0.63319 0.0
N359 N 0.76105 0.68265 0.5959 0.0
H360 H 0.65293 0.63085 0.47168 0.0
H361 H 0.71689 0.6712 0.49435 0.0
H362 H 0.79151 0.69904 0.62757 0.0
H363 H 0.78011 0.67581 0.55892 0.0
H364 H 0.5193 0.59336 0.67233 0.0
H365 H 0.50319 0.58229 0.6017 0.0
H366 H 0.56215 0.65052 0.72835 0.0
H367 H 0.63228 0.67855 0.75204 0.0
C368 C 0.29587 0.32486 0.48911 0.0
C369 C 0.29258 0.27677 0.45644 0.0
C370 C 0.27558 0.22822 0.5392 0.0
C371 C 0.28404 0.27664 0.57162 0.0
N372 N 0.32364 0.36829 0.57879 0.0
N373 N 0.29309 0.18225 0.45306 0.0
C374 C 0.30127 0.32401 0.54696 0.0
C375 C 0.28655 0.22813 0.48218 0.0
N376 N 0.28982 0.3712 0.46549 0.0
N377 N 0.25461 0.18292 0.56187 0.0
H378 H 0.30268 0.18059 0.41179 0.0
H379 H 0.29467 0.14667 0.47138 0.0
H380 H 0.24638 0.18156 0.60341 0.0
H381 H 0.2413 0.14769 0.5385 0.0
H382 H 0.28715 0.4062 0.48871 0.0
H383 H 0.27987 0.37359 0.42342 0.0
H384 H 0.34272 0.40196 0.56176 0.0
H385 H 0.32969 0.36896 0.6217 0.0
C386 C 0.03306 0.06223 0.77153 0.0
C387 C 0.0579 0.02385 0.80179 0.0
C388 C 0.08782 0.98468 0.71499 0.0
C389 C 0.05111 0.01568 0.68523 0.0
N390 N 0.97475 0.07326 0.68864 0.0
N391 N 0.11103 0.94829 0.80256 0.0
C392 C 0.02003 0.05184 0.71429 0.0
C393 C 0.08629 0.98502 0.77352 0.0
N394 N 0.02102 0.10823 0.79685 0.0
N395 N 0.1246 0.95589 0.68763 0.0
H396 H 0.11444 0.95025 0.84562 0.0
H397 H 0.12608 0.91524 0.78398 0.0
H398 H 0.12735 0.95584 0.64501 0.0
H399 H 0.15578 0.93589 0.70757 0.0
H400 H 0.00243 0.1368 0.77552 0.0
H401 H 0.03591 0.12106 0.83713 0.0
H402 H 0.94706 0.09502 0.71029 0.0
H403 H 0.95989 0.06403 0.64752 0.0
C404 C 0.25124 0.81367 0.98249 0.0
C405 C 0.2408 0.76721 0.94614 0.0
C406 C 0.20816 0.71804 0.02353 0.0
C407 C 0.23354 0.75954 0.06088 0.0
N408 N 0.27966 0.8492 0.07626 0.0
N409 N 0.22087 0.67066 0.9404 0.0
C410 C 0.25463 0.80849 0.04068 0.0
C411 C 0.22183 0.7184 0.96844 0.0
N412 N 0.25528 0.86239 0.96216 0.0
N413 N 0.17439 0.67601 0.04138 0.0
H414 H 0.23861 0.66468 0.90251 0.0
H415 H 0.23861 0.66468 0.90251 0.0
H416 H 0.16299 0.67472 0.08219 0.0
H417 H 0.15422 0.64539 0.01399 0.0
H418 H 0.25832 0.89705 0.98733 0.0
H419 H 0.24842 0.86822 0.92039 0.0
H420 H 0.3017 0.88359 0.06311 0.0
H421 H 0.28143 0.84732 0.11894 0.0
C422 C 0.50687 0.94683 0.27738 0.0
C423 C 0.4793 0.98708 0.30391 0.0
C424 C 0.45596 0.02209 0.21465 0.0
C425 C 0.48545 0.98273 0.18838 0.0
N426 N 0.513 0.89484 0.19239 0.0
N427 N 0.40923 0.04916 0.29671 0.0
C428 C 0.50248 0.94087 0.21905 0.0
C429 C 0.44755 0.02011 0.27203 0.0
N430 N 0.54008 0.91612 0.3072 0.0
N431 N 0.43914 0.06297 0.18642 0.0
H432 H 0.40313 0.04872 0.33883 0.0
H433 H 0.37904 0.06847 0.2745 0.0
H434 H 0.44754 0.06862 0.14563 0.0
H435 H 0.41979 0.09369 0.20454 0.0
H436 H 0.56639 0.89059 0.28889 0.0
H437 H 0.54516 0.91884 0.35011 0.0
H438 H 0.52107 0.86163 0.21304 0.0
H439 H 0.50632 0.88781 0.14966 0.0
C440 C 0.47475 0.19698 0.24871 0.0
C441 C 0.45061 0.23782 0.2211 0.0
C442 C 0.54376 0.25985 0.17904 0.0
C443 C 0.5687 0.22219 0.21051 0.0
N444 N 0.55596 0.14944 0.26999 0.0
N445 N 0.45579 0.29674 0.14774 0.0
C446 C 0.53322 0.18825 0.24221 0.0
C447 C 0.48326 0.26558 0.18213 0.0
N448 N 0.44478 0.16693 0.28435 0.0
N449 N 0.57876 0.29151 0.14817 0.0
H450 H 0.41107 0.30009 0.14835 0.0
H451 H 0.47548 0.3153 0.11558 0.0
H452 H 0.62223 0.28582 0.14265 0.0
H453 H 0.56569 0.32426 0.12975 0.0
H454 H 0.40127 0.16837 0.29281 0.0
H455 H 0.40127 0.16837 0.29281 0.0
H456 H 0.53116 0.12449 0.29439 0.0
H457 H 0.59891 0.14101 0.26852 0.0
C458 C 0.0676 0.28129 0.45533 0.0
C459 C 0.01288 0.30079 0.44563 0.0
C460 C 0.96304 0.21077 0.44054 0.0
C461 C 0.01573 0.193 0.46116 0.0
N462 N 0.11899 0.21027 0.48772 0.0
N463 N 0.90793 0.28488 0.42892 0.0
C464 C 0.06862 0.22771 0.46734 0.0
C465 C 0.96048 0.26564 0.43692 0.0
N466 N 0.1184 0.31431 0.4531 0.0
N467 N 0.91559 0.17496 0.42413 0.0
H468 H 0.90458 0.32467 0.4245 0.0
H469 H 0.8677 0.26185 0.42986 0.0
H470 H 0.91609 0.13452 0.42687 0.0
H471 H 0.87848 0.18498 0.40255 0.0
H472 H 0.15985 0.30178 0.45505 0.0
H473 H 0.11861 0.35364 0.444 0.0
H474 H 0.15712 0.2352 0.49996 0.0
H475 H 0.12163 0.17093 0.49524 0.0
C476 C 0.99308 0.69074 0.70378 0.0
C477 C 0.96472 0.73336 0.68675 0.0
C478 C 0.05973 0.78258 0.67263 0.0
C479 C 0.08708 0.74572 0.70358 0.0
N480 N 0.07712 0.66746 0.75564 0.0
N481 N 0.96884 0.80647 0.62947 0.0
C482 C 0.05344 0.6997 0.7199 0.0
C483 C 0.99752 0.77538 0.66289 0.0
N484 N 0.96222 0.64205 0.70468 0.0
N485 N 0.09297 0.82508 0.6547 0.0
H486 H 0.92399 0.79793 0.61853 0.0
H487 H 0.98935 0.8369 0.60856 0.0
H488 H 0.13866 0.82992 0.65926 0.0
H489 H 0.07568 0.85617 0.63663 0.0
H490 H 0.98187 0.60867 0.71381 0.0
H491 H 0.91852 0.63442 0.68914 0.0
H492 H 0.0521 0.63681 0.77283 0.0
H493 H 0.11974 0.67494 0.77346 0.0
C494 C 0.53045 0.74547 0.94752 0.0
C495 C 0.48722 0.71801 0.97811 0.0
C496 C 0.44196 0.7995 0.993 0.0
C497 C 0.48347 0.82601 0.96085 0.0
N498 N 0.55881 0.82271 0.89733 0.0
N499 N 0.39261 0.71694 0.01696 0.0
C500 C 0.52457 0.79818 0.93428 0.0
C501 C 0.44014 0.74441 0.99675 0.0
N502 N 0.57953 0.72322 0.93499 0.0
N503 N 0.40601 0.82739 0.02256 0.0
H504 H 0.38882 0.67669 0.02089 0.0
H505 H 0.35446 0.73338 0.02504 0.0
H506 H 0.40301 0.86728 0.01827 0.0
H507 H 0.3826 0.81158 0.05418 0.0
H508 H 0.61513 0.74358 0.91794 0.0
H509 H 0.58775 0.68617 0.94652 0.0
H510 H 0.58607 0.80333 0.87272 0.0
H511 H 0.5555 0.86143 0.88759 0.0
C512 C 0.56245 0.76666 0.30372 0.0
C513 C 0.58754 0.74485 0.25687 0.0
C514 C 0.49155 0.73859 0.20651 0.0
C515 C 0.46448 0.74977 0.25616 0.0
N516 N 0.47744 0.75824 0.35653 0.0
N517 N 0.56892 0.69539 0.16852 0.0
C518 C 0.50064 0.75912 0.30629 0.0
C519 C 0.54996 0.72619 0.2097 0.0
N520 N 0.59624 0.79702 0.34447 0.0
N521 N 0.46323 0.74224 0.15614 0.0
H522 H 0.60968 0.68138 0.17125 0.0
H523 H 0.54103 0.67836 0.13531 0.0
H524 H 0.42309 0.75712 0.15133 0.0
H525 H 0.48376 0.73773 0.11946 0.0
H526 H 0.578 0.81636 0.37688 0.0
H527 H 0.64074 0.80909 0.34215 0.0
H528 H 0.50376 0.76152 0.39335 0.0
H529 H 0.43334 0.74703 0.36174 0.0
C530 C 0.54524 0.25278 0.52431 0.0
C531 C 0.51748 0.21271 0.48559 0.0
C532 C 0.47684 0.27869 0.43225 0.0
C533 C 0.49772 0.31879 0.47392 0.0
N534 N 0.54143 0.34012 0.56693 0.0
N535 N 0.44144 0.18695 0.41341 0.0
C536 C 0.52925 0.30494 0.52223 0.0
C537 C 0.4779 0.22547 0.44344 0.0
N538 N 0.58683 0.24122 0.56266 0.0
N539 N 0.46099 0.29081 0.37997 0.0
H540 H 0.44165 0.14696 0.41923 0.0
H541 H 0.40653 0.19595 0.38776 0.0
H542 H 0.46748 0.32882 0.36661 0.0
H543 H 0.44926 0.26193 0.34809 0.0
H544 H 0.61282 0.26997 0.58827 0.0
H545 H 0.59777 0.2031 0.56613 0.0
H546 H 0.56009 0.33028 0.60446 0.0
H547 H 0.5271 0.37719 0.56872 0.0
C548 C 0.03803 0.23723 0.74336 0.0
C549 C 0.07199 0.27423 0.78167 0.0
C550 C 0.98245 0.29833 0.82101 0.0
C551 C 0.94815 0.26441 0.78023 0.0
N552 N 0.94269 0.2028 0.70009 0.0
N553 N 0.07584 0.35025 0.84579 0.0
C554 C 0.97581 0.23488 0.7401 0.0
C555 C 0.04413 0.30737 0.81778 0.0
N556 N 0.06506 0.20187 0.71268 0.0
N557 N 0.9564 0.32215 0.86293 0.0
H558 H 0.12029 0.361 0.84135 0.0
H559 H 0.05679 0.37854 0.86855 0.0
H560 H 0.91108 0.32065 0.86449 0.0
H561 H 0.98021 0.33996 0.89828 0.0
H562 H 0.04294 0.17144 0.68653 0.0
H563 H 0.10994 0.19935 0.717 0.0
H564 H 0.95954 0.1877 0.66462 0.0
H565 H 0.89781 0.19187 0.70125 0.0
C566 C 0.00285 0.77769 0.91485 0.0
C567 C 0.99446 0.80924 0.96293 0.0
C568 C 0.00809 0.73406 0.01866 0.0
C569 C 0.00768 0.70117 0.96958 0.0
N570 N 0.98783 0.6903 0.87042 0.0
N571 N 0.97976 0.81449 0.06053 0.0
C572 C 0.00016 0.72256 0.91749 0.0
C573 C 0.9946 0.78673 0.01499 0.0
N574 N 0.01595 0.80035 0.86696 0.0
N575 N 0.02369 0.71602 0.06851 0.0
H576 H 0.96895 0.85278 0.05976 0.0
H577 H 0.9728 0.79768 0.09787 0.0
H578 H 0.03535 0.6783 0.07276 0.0
H579 H 0.03056 0.74017 0.10484 0.0
H580 H 0.02727 0.77895 0.83229 0.0
H581 H 0.02276 0.84101 0.86399 0.0
H582 H 0.97663 0.70435 0.83232 0.0
H583 H 0.98144 0.64935 0.87043 0.0
C584 C 0.30845 0.49442 0.23131 0.0
C585 C 0.28098 0.46379 0.27093 0.0
C586 C 0.22273 0.53505 0.29508 0.0
C587 C 0.25618 0.56801 0.26109 0.0
N588 N 0.32769 0.57614 0.19116 0.0
N589 N 0.2137 0.45423 0.34271 0.0
C590 C 0.29731 0.54697 0.22733 0.0
C591 C 0.23781 0.48352 0.30289 0.0
N592 N 0.34657 0.47374 0.19763 0.0
N593 N 0.17542 0.55247 0.31819 0.0
H594 H 0.22268 0.41594 0.34869 0.0
H595 H 0.18757 0.46888 0.37189 0.0
H596 H 0.16361 0.59006 0.31292 0.0
H597 H 0.14519 0.52842 0.33838 0.0
H598 H 0.36787 0.49526 0.16808 0.0
H599 H 0.35547 0.43476 0.19809 0.0
H600 H 0.32374 0.61546 0.18481 0.0
H601 H 0.32374 0.61546 0.18481 0.0
C602 C 0.82578 0.05159 0.78491 0.0
C603 C 0.76829 0.05937 0.7659 0.0
C604 C 0.74782 0.96601 0.7354 0.0
C605 C 0.80208 0.95612 0.76213 0.0
N606 N 0.88948 0.99181 0.82047 0.0
N607 N 0.67135 0.02363 0.72998 0.0
C608 C 0.84059 0.99958 0.7886 0.0
C609 C 0.72813 0.01636 0.7437 0.0
N610 N 0.86651 0.09419 0.79978 0.0
N611 N 0.71732 0.9291 0.69833 0.0
H612 H 0.65627 0.06039 0.73449 0.0
H613 H 0.63859 0.9926 0.71853 0.0
H614 H 0.73347 0.89444 0.68544 0.0
H615 H 0.68011 0.93607 0.67458 0.0
H616 H 0.91076 0.0916 0.80817 0.0
H617 H 0.85744 0.13307 0.79997 0.0
H618 H 0.91615 0.02194 0.8433 0.0
H619 H 0.89969 0.95545 0.83186 0.0
C620 C 0.27942 0.44666 0.97895 0.0
C621 C 0.3131 0.49693 0.98984 0.0
C622 C 0.22626 0.53162 0.02158 0.0
C623 C 0.19012 0.48591 -0.00026 0.0
N624 N 0.18433 0.40143 0.94725 0.0
N625 N 0.30994 0.5908 0.00529 0.0
C626 C 0.21703 0.44352 0.97552 0.0
C627 C 0.28386 0.54042 0.00617 0.0
N628 N 0.30573 0.40167 0.97466 0.0
N629 N 0.20679 0.56793 0.05664 0.0
H630 H 0.34751 0.59962 0.9842 0.0
H631 H 0.28956 0.62308 0.01877 0.0
H632 H 0.16568 0.56291 0.07277 0.0
H633 H 0.16568 0.56291 0.07277 0.0
H634 H 0.28195 0.36428 0.97136 0.0
H635 H 0.35068 0.40083 0.98115 0.0
H636 H 0.20312 0.373 0.92425 0.0
H637 H 0.13885 0.39698 0.94242 0.0
C638 C 0.82317 0.02211 0.29321 0.0
C639 C 0.77218 0.03519 0.26336 0.0
C640 C 0.73724 0.9419 0.24532 0.0
C641 C 0.79118 0.92855 0.2686 0.0
N642 N 0.88896 0.95586 0.30875 0.0
N643 N 0.68953 0.00687 0.19805 0.0
C644 C 0.83542 0.96866 0.29075 0.0
C645 C 0.73192 0.99485 0.2355 0.0
N646 N 0.85811 0.0598 0.326 0.0
N647 N 0.69006 0.90423 0.23432 0.0
H648 H 0.68589 0.04522 0.18728 0.0
H649 H 0.66276 0.97822 0.17297 0.0
H650 H 0.69084 0.86507 0.24351 0.0
H651 H 0.64834 0.91313 0.22204 0.0
H652 H 0.89208 0.05127 0.35306 0.0
H653 H 0.85016 0.099 0.32964 0.0
H654 H 0.92487 0.98383 0.32034 0.0
H655 H 0.89825 0.91696 0.30866 0.0
C656 C 0.78205 0.075 0.9495 0.0
C657 C 0.80324 0.02526 0.93971 0.0
C658 C 0.70406 0.98048 0.94365 0.0
C659 C 0.68425 0.0288 0.96012 0.0
N660 N 0.70291 0.12239 0.98041 0.0
N661 N 0.7738 0.93948 0.89309 0.0
C662 C 0.72277 0.07634 0.96335 0.0
C663 C 0.76131 0.9804 0.92673 0.0
N664 N 0.81574 0.12042 0.93925 0.0
N665 N 0.66925 0.93375 0.94654 0.0
H666 H 0.81376 0.93875 0.87598 0.0
H667 H 0.742 0.90932 0.87665 0.0
H668 H 0.62688 0.93103 0.95974 0.0
H669 H 0.68479 0.89731 0.94095 0.0
H670 H 0.80146 0.15745 0.94231 0.0
H671 H 0.85414 0.12066 0.91884 0.0
H672 H 0.7301 0.15758 0.98984 0.0
H673 H 0.65928 0.12453 0.98866 0.0
C674 C 0.32477 0.55314 0.81688 0.0
C675 C 0.28159 0.5696 0.77948 0.0
C676 C 0.24177 0.47831 0.75593 0.0
C677 C 0.28829 0.46111 0.78863 0.0
N678 N 0.38058 0.48222 0.84195 0.0
N679 N 0.2123 0.54696 0.70078 0.0
C680 C 0.3319 0.49853 0.81677 0.0
C681 C 0.24449 0.53182 0.74487 0.0
N682 N 0.35682 0.58881 0.85414 0.0
N683 N 0.19321 0.44422 0.73777 0.0
H684 H 0.21481 0.58596 0.69009 0.0
H685 H 0.18839 0.52006 0.67161 0.0
H686 H 0.18676 0.40523 0.74836 0.0
H687 H 0.15624 0.45643 0.71779 0.0
H688 H 0.38447 0.57794 0.88593 0.0
H689 H 0.35251 0.62889 0.8558 0.0
H690 H 0.41685 0.50822 0.85755 0.0
H691 H 0.38644 0.44252 0.84308 0.0
C692 C 0.21886 0.56287 0.46348 0.0
C693 C 0.19444 0.52682 0.50023 0.0
C694 C 0.29386 0.5152 0.53511 0.0
C695 C 0.31629 0.5398 0.48907 0.0
N696 N 0.29729 0.59175 0.41023 0.0
N697 N 0.21093 0.4641 0.56922 0.0
C698 C 0.27864 0.56554 0.45412 0.0
C699 C 0.2324 0.50255 0.53668 0.0
N700 N 0.18569 0.59442 0.43532 0.0
N701 N 0.33136 0.50419 0.57741 0.0
H702 H 0.16666 0.45066 0.57043 0.0
H703 H 0.23786 0.44188 0.59174 0.0
H704 H 0.37672 0.51386 0.57747 0.0
H705 H 0.31706 0.49085 0.61448 0.0
H706 H 0.14132 0.59631 0.44089 0.0
H707 H 0.14132 0.59631 0.44089 0.0
H708 H 0.34011 0.59473 0.39793 0.0
H709 H 0.34011 0.59473 0.39793 0.0
C710 C 0.83322 0.80467 0.97284 0.0
C711 C 0.83662 0.75818 0.93913 0.0
C712 C 0.82326 0.70569 0.01981 0.0
C713 C 0.81999 0.75258 0.05263 0.0
N714 N 0.84592 0.84651 0.06499 0.0
N715 N 0.85401 0.66698 0.93467 0.0
C716 C 0.83346 0.80197 0.03058 0.0
C717 C 0.83797 0.70938 0.96403 0.0
N718 N 0.8244 0.85067 0.95013 0.0
N719 N 0.80939 0.65787 0.04063 0.0
H720 H 0.86659 0.66896 0.89434 0.0
H721 H 0.86087 0.63189 0.95217 0.0
H722 H 0.79912 0.65388 0.08138 0.0
H723 H 0.80461 0.62248 0.01653 0.0
H724 H 0.81491 0.8836 0.97349 0.0
H725 H 0.82045 0.85443 0.9079 0.0
H726 H 0.86103 0.88304 0.05114 0.0
H727 H 0.84806 0.8455 0.10788 0.0
C728 C 0.487 0.55103 0.2531 0.0
C729 C 0.5158 0.51495 0.28349 0.0
C730 C 0.55715 0.48202 0.1992 0.0
C731 C 0.5287 0.51873 0.16897 0.0
N732 N 0.46143 0.58578 0.16828 0.0
N733 N 0.58418 0.4508 0.28876 0.0
C734 C 0.4934 0.55295 0.19609 0.0
C735 C 0.5523 0.48141 0.25738 0.0
N736 N 0.45103 0.58272 0.27804 0.0
N737 N 0.58785 0.44722 0.17196 0.0
H738 H 0.58194 0.44985 0.33135 0.0
H739 H 0.61575 0.42891 0.27376 0.0
H740 H 0.59514 0.4487 0.13018 0.0
H741 H 0.60413 0.41546 0.1897 0.0
H742 H 0.43086 0.6111 0.25738 0.0
H743 H 0.44029 0.58039 0.31885 0.0
H744 H 0.459 0.58848 0.12573 0.0
H745 H 0.459 0.58848 0.12573 0.0
C746 C 0.7495 0.18859 0.46516 0.0
C747 C 0.74008 0.23561 0.43963 0.0
C748 C 0.73427 0.28057 0.53062 0.0
C749 C 0.73974 0.23245 0.55525 0.0
N750 N 0.73437 0.13803 0.54462 0.0
N751 N 0.70838 0.32224 0.44721 0.0
C752 C 0.74144 0.18564 0.52196 0.0
C753 C 0.72801 0.28055 0.47206 0.0
N754 N 0.7689 0.14747 0.43606 0.0
N755 N 0.73759 0.32651 0.56268 0.0
H756 H 0.70156 0.32311 0.40454 0.0
H757 H 0.69329 0.35353 0.46907 0.0
H758 H 0.74185 0.3281 0.60564 0.0
H759 H 0.74049 0.36338 0.54648 0.0
H760 H 0.78242 0.11482 0.4545 0.0
H761 H 0.77802 0.14818 0.39472 0.0
H762 H 0.73057 0.1025 0.52106 0.0
H763 H 0.72573 0.1341 0.58585 0.0
C764 C 0.93657 0.43536 0.71172 0.0
C765 C 0.9832 0.46494 0.68752 0.0
C766 C 0.02865 0.49571 0.77835 0.0
C767 C 0.9791 0.47127 0.80301 0.0
N768 N 0.88316 0.42138 0.79381 0.0
N769 N 0.06542 0.53314 0.69692 0.0
C770 C 0.93211 0.44191 0.7699 0.0
C771 C 0.0265 0.49836 0.72065 0.0
N772 N 0.89804 0.4 0.67948 0.0
N773 N 0.07931 0.51365 0.80969 0.0
H774 H 0.06456 0.53704 0.65445 0.0
H775 H 0.09438 0.56185 0.71975 0.0
H776 H 0.08477 0.50905 0.85192 0.0
H777 H 0.11823 0.52737 0.79279 0.0
H778 H 0.86693 0.37317 0.69526 0.0
H779 H 0.89956 0.39548 0.63674 0.0
H780 H 0.84522 0.40366 0.77145 0.0
H781 H 0.87916 0.42516 0.83627 0.0
C782 C 0.79286 0.99439 0.5543 0.0
C783 C 0.81854 0.97704 0.50596 0.0
C784 C 0.72272 0.9653 0.45432 0.0
C785 C 0.69778 0.98632 0.5014 0.0
N786 N 0.70681 0.02119 0.59583 0.0
N787 N 0.80685 0.93297 0.41528 0.0
C788 C 0.73207 1.00017 0.55164 0.0
C789 C 0.78309 0.95825 0.45768 0.0
N790 N 0.82646 1.00302 0.60315 0.0
N791 N 0.68972 0.95583 0.40516 0.0
H792 H 0.85137 0.92928 0.41463 0.0
H793 H 0.78138 0.9115 0.38308 0.0
H794 H 0.64511 0.9597 0.40086 0.0
H795 H 0.70707 0.94759 0.36759 0.0
H796 H 0.81029 0.01209 0.64102 0.0
H797 H 0.87053 0.99693 0.60676 0.0
H798 H 0.73045 0.03964 0.63082 0.0
H799 H 0.66179 0.02301 0.59617 0.0
loop_
_geom_bond_atom_site_label_1
_geom_bond_atom_site_label_2
_geom_bond_distance
_geom_bond_site_symmetry_2
_ccdc_geom_bond_type
O0 Cd1 2.223 . S
O0 C8 1.315 . S
Cd1 O0 2.223 . S
Cd1 O4 2.297 . S
Cd1 O5 2.439 . S
Cd1 O11 2.240 . S
Cd2 O3 2.240 . S
Cd2 O10 2.223 . S
Cd2 O12 2.297 . S
Cd2 O13 2.439 . S
O3 Cd2 2.240 . S
O3 C8 1.279 . S
O4 Cd1 2.297 . S
O4 C6 1.247 . S
O5 Cd1 2.439 . S
O5 C6 1.208 . S
C6 O4 1.247 . S
C6 O5 1.208 . S
C7 O12 1.247 . S
C7 O13 1.208 . S
C8 O0 1.315 . S
C8 O3 1.279 . S
C9 O10 1.315 . S
C9 O11 1.279 . S
O10 Cd2 2.223 . S
O10 C9 1.315 . S
O11 Cd1 2.240 . S
O11 C9 1.279 . S
O12 Cd2 2.297 . S
O12 C7 1.247 . S
O13 Cd2 2.439 . S
O13 C7 1.208 . S
O14 Cd15 2.223 . S
O14 C22 1.315 . S
Cd15 O14 2.223 . S
Cd15 O18 2.297 1_655 S
Cd15 O19 2.439 1_655 S
Cd15 O25 2.240 1_565 S
Cd16 O17 2.240 1_655 S
Cd16 O24 2.223 . S
Cd16 O26 2.297 . S
Cd16 O27 2.439 1_655 S
O17 Cd16 2.240 1_455 S
O17 C22 1.279 1_445 S
O18 Cd15 2.297 1_455 S
O18 C20 1.247 . S
O19 Cd15 2.439 1_455 S
O19 C20 1.208 . S
C20 O18 1.247 . S
C20 O19 1.208 . S
C21 O26 1.247 . S
C21 O27 1.208 1_655 S
C22 O14 1.315 . S
C22 O17 1.279 1_665 S
C23 O24 1.315 . S
C23 O25 1.279 . S
O24 Cd16 2.223 . S
O24 C23 1.315 . S
O25 Cd15 2.240 1_545 S
O25 C23 1.279 . S
O26 Cd16 2.297 . S
O26 C21 1.247 . S
O27 Cd16 2.439 1_455 S
O27 C21 1.208 1_455 S
O28 Cd29 2.223 . S
O28 C36 1.315 . S
Cd29 O28 2.223 . S
Cd29 O32 2.297 . S
Cd29 O33 2.439 . S
Cd29 O39 2.240 . S
Cd30 O31 2.240 . S
Cd30 O38 2.223 . S
Cd30 O40 2.297 . S
Cd30 O41 2.439 . S
O31 Cd30 2.240 . S
O31 C36 1.279 . S
O32 Cd29 2.297 . S
O32 C34 1.247 . S
O33 Cd29 2.439 . S
O33 C34 1.208 . S
C34 O32 1.247 . S
C34 O33 1.208 . S
C35 O40 1.247 . S
C35 O41 1.208 . S
C36 O28 1.315 . S
C36 O31 1.279 . S
C37 O38 1.315 . S
C37 O39 1.279 . S
O38 Cd30 2.223 . S
O38 C37 1.315 . S
O39 Cd29 2.240 . S
O39 C37 1.279 . S
O40 Cd30 2.297 . S
O40 C35 1.247 . S
O41 Cd30 2.439 . S
O41 C35 1.208 . S
O42 Cd43 2.223 . S
O42 C50 1.315 . S
Cd43 O42 2.223 . S
Cd43 O46 2.302 . S
Cd43 O47 2.439 1_565 S
Cd43 O53 2.240 . S
Cd44 O45 2.240 1_554 S
Cd44 O52 2.223 . S
Cd44 O54 2.297 . S
Cd44 O55 2.439 . S
O45 Cd44 2.240 1_556 S
O45 C50 1.279 . S
O46 Cd43 2.302 . S
O46 C48 1.244 1_565 S
O47 Cd43 2.439 1_545 S
O47 C48 1.208 . S
C48 O46 1.244 1_545 S
C48 O47 1.208 . S
C49 O54 1.247 . S
C49 O55 1.208 . S
C50 O42 1.315 . S
C50 O45 1.279 . S
C51 O52 1.315 . S
C51 O53 1.279 1_554 S
O52 Cd44 2.223 . S
O52 C51 1.315 . S
O53 Cd43 2.240 . S
O53 C51 1.279 1_556 S
O54 Cd44 2.297 . S
O54 C49 1.247 . S
O55 Cd44 2.439 . S
O55 C49 1.208 . S
O56 Cd57 2.223 . S
O56 C64 1.315 . S
Cd57 O56 2.223 . S
Cd57 O60 2.297 . S
Cd57 O61 2.439 . S
Cd57 O67 2.240 . S
Cd58 O59 2.240 . S
Cd58 O66 2.223 . S
Cd58 O68 2.297 . S
Cd58 O69 2.439 . S
O59 Cd58 2.240 . S
O59 C64 1.279 . S
O60 Cd57 2.297 . S
O60 C62 1.247 . S
O61 Cd57 2.439 . S
O61 C62 1.208 . S
C62 O60 1.247 . S
C62 O61 1.208 . S
C63 O68 1.247 . S
C63 O69 1.208 . S
C64 O56 1.315 . S
C64 O59 1.279 . S
C65 O66 1.315 . S
C65 O67 1.279 . S
O66 Cd58 2.223 . S
O66 C65 1.315 . S
O67 Cd57 2.240 . S
O67 C65 1.279 . S
O68 Cd58 2.297 . S
O68 C63 1.247 . S
O69 Cd58 2.439 . S
O69 C63 1.208 . S
O70 Cd71 2.223 . S
O70 C78 1.315 . S
Cd71 O70 2.223 . S
Cd71 O74 2.297 . S
Cd71 O75 2.439 . S
Cd71 O81 2.240 1_565 S
Cd72 O73 2.240 1_545 S
Cd72 O80 2.223 . S
Cd72 O82 2.297 . S
Cd72 O83 2.439 . S
O73 Cd72 2.240 1_565 S
O73 C78 1.279 . S
O74 Cd71 2.297 . S
O74 C76 1.247 . S
O75 Cd71 2.439 . S
O75 C76 1.208 . S
C76 O74 1.247 . S
C76 O75 1.208 . S
C77 O82 1.247 . S
C77 O83 1.208 . S
C78 O70 1.315 . S
C78 O73 1.279 . S
C79 O80 1.315 . S
C79 O81 1.279 . S
O80 Cd72 2.223 . S
O80 C79 1.315 . S
O81 Cd71 2.240 1_545 S
O81 C79 1.279 . S
O82 Cd72 2.297 . S
O82 C77 1.247 . S
O83 Cd72 2.439 . S
O83 C77 1.208 . S
O84 Cd85 2.223 . S
O84 C92 1.315 . S
Cd85 O84 2.223 . S
Cd85 O88 2.297 . S
Cd85 O89 2.439 . S
Cd85 O95 2.240 . S
Cd86 O87 2.240 . S
Cd86 O94 2.223 . S
Cd86 O96 2.297 . S
Cd86 O97 2.439 . S
O87 Cd86 2.240 . S
O87 C92 1.279 . S
O88 Cd85 2.297 . S
O88 C90 1.247 . S
O89 Cd85 2.439 . S
O89 C90 1.208 . S
C90 O88 1.247 . S
C90 O89 1.208 . S
C91 O96 1.247 . S
C91 O97 1.208 . S
C92 O84 1.315 . S
C92 O87 1.279 . S
C93 O94 1.315 . S
C93 O95 1.279 . S
O94 Cd86 2.223 . S
O94 C93 1.315 . S
O95 Cd85 2.240 . S
O95 C93 1.279 . S
O96 Cd86 2.297 . S
O96 C91 1.247 . S
O97 Cd86 2.439 . S
O97 C91 1.208 . S
O98 Cd99 2.223 . S
O98 C106 1.315 . S
Cd99 O98 2.223 . S
Cd99 O102 2.298 1_655 S
Cd99 O103 2.439 1_656 S
Cd99 O109 2.240 1_545 S
Cd100 O101 2.240 1_655 S
Cd100 O108 2.223 . S
Cd100 O110 2.297 . S
Cd100 O111 2.439 1_655 S
O101 Cd100 2.240 1_455 S
O101 C106 1.279 1_465 S
O102 Cd99 2.298 1_455 S
O102 C104 1.246 1_556 S
O103 Cd99 2.439 1_454 S
O103 C104 1.208 . S
C104 O102 1.246 1_554 S
C104 O103 1.208 . S
C105 O110 1.247 . S
C105 O111 1.208 1_655 S
C106 O98 1.315 . S
C106 O101 1.279 1_645 S
C107 O108 1.315 . S
C107 O109 1.279 . S
O108 Cd100 2.223 . S
O108 C107 1.315 . S
O109 Cd99 2.240 1_565 S
O109 C107 1.279 . S
O110 Cd100 2.297 . S
O110 C105 1.247 . S
O111 Cd100 2.439 1_455 S
O111 C105 1.208 1_455 S
O112 Cd113 2.223 . S
O112 C120 1.315 . S
Cd113 O112 2.223 . S
Cd113 O116 2.297 . S
Cd113 O117 2.439 . S
Cd113 O123 2.240 . S
Cd114 O115 2.240 . S
Cd114 O122 2.223 . S
Cd114 O124 2.297 . S
Cd114 O125 2.439 . S
O115 Cd114 2.240 . S
O115 C120 1.279 . S
O116 Cd113 2.297 . S
O116 C118 1.247 . S
O117 Cd113 2.439 . S
O117 C118 1.208 . S
C118 O116 1.247 . S
C118 O117 1.208 . S
C119 O124 1.247 . S
C119 O125 1.208 . S
C120 O112 1.315 . S
C120 O115 1.279 . S
C121 O122 1.315 . S
C121 O123 1.279 . S
O122 Cd114 2.223 . S
O122 C121 1.315 . S
O123 Cd113 2.240 . S
O123 C121 1.279 . S
O124 Cd114 2.297 . S
O124 C119 1.247 . S
O125 Cd114 2.439 . S
O125 C119 1.208 . S
O126 Cd127 2.223 1_556 S
O126 C134 1.315 1_455 S
Cd127 O126 2.223 1_554 S
Cd127 O130 2.297 1_455 S
Cd127 O131 2.439 1_455 S
Cd127 O137 2.240 . S
Cd128 O129 2.240 1_455 S
Cd128 O136 2.223 . S
Cd128 O138 2.297 . S
Cd128 O139 2.439 1_456 S
O129 Cd128 2.240 1_655 S
O129 C134 1.279 . S
O130 Cd127 2.297 1_655 S
O130 C132 1.247 . S
O131 Cd127 2.439 1_655 S
O131 C132 1.208 . S
C132 O130 1.247 . S
C132 O131 1.208 . S
C133 O138 1.247 1_654 S
C133 O139 1.208 . S
C134 O126 1.315 1_655 S
C134 O129 1.279 . S
C135 O136 1.315 . S
C135 O137 1.279 1_556 S
O136 Cd128 2.223 . S
O136 C135 1.315 . S
O137 Cd127 2.240 . S
O137 C135 1.279 1_554 S
O138 Cd128 2.297 . S
O138 C133 1.247 1_456 S
O139 Cd128 2.439 1_654 S
O139 C133 1.208 . S
O140 Cd141 2.223 . S
O140 C148 1.315 . S
Cd141 O140 2.223 . S
Cd141 O144 2.297 . S
Cd141 O145 2.439 . S
Cd141 O151 2.240 . S
Cd142 O143 2.240 . S
Cd142 O150 2.223 . S
Cd142 O152 2.297 . S
Cd142 O153 2.439 . S
O143 Cd142 2.240 . S
O143 C148 1.279 . S
O144 Cd141 2.297 . S
O144 C146 1.247 . S
O145 Cd141 2.439 . S
O145 C146 1.208 . S
C146 O144 1.247 . S
C146 O145 1.208 . S
C147 O152 1.247 . S
C147 O153 1.208 . S
C148 O140 1.315 . S
C148 O143 1.279 . S
C149 O150 1.315 . S
C149 O151 1.279 . S
O150 Cd142 2.223 . S
O150 C149 1.315 . S
O151 Cd141 2.240 . S
O151 C149 1.279 . S
O152 Cd142 2.297 . S
O152 C147 1.247 . S
O153 Cd142 2.439 . S
O153 C147 1.208 . S
O154 Cd155 2.223 1_455 S
O154 C162 1.315 . S
Cd155 O154 2.223 1_655 S
Cd155 O158 2.297 . S
Cd155 O159 2.439 . S
Cd155 O165 2.240 . S
Cd156 O157 2.240 . S
Cd156 O164 2.223 . S
Cd156 O166 2.297 . S
Cd156 O167 2.439 1_455 S
O157 Cd156 2.240 . S
O157 C162 1.279 . S
O158 Cd155 2.297 . S
O158 C160 1.247 . S
O159 Cd155 2.439 . S
O159 C160 1.208 . S
C160 O158 1.247 . S
C160 O159 1.208 . S
C161 O166 1.247 1_655 S
C161 O167 1.208 . S
C162 O154 1.315 . S
C162 O157 1.279 . S
C163 O164 1.315 . S
C163 O165 1.279 1_455 S
O164 Cd156 2.223 . S
O164 C163 1.315 . S
O165 Cd155 2.240 . S
O165 C163 1.279 1_655 S
O166 Cd156 2.297 . S
O166 C161 1.247 1_455 S
O167 Cd156 2.439 1_655 S
O167 C161 1.208 . S
O168 Cd169 2.223 1_554 S
O168 C176 1.315 . S
Cd169 O168 2.223 1_556 S
Cd169 O172 2.297 . S
Cd169 O173 2.439 . S
Cd169 O179 2.240 . S
Cd170 O171 2.240 . S
Cd170 O178 2.223 . S
Cd170 O180 2.297 . S
Cd170 O181 2.439 1_554 S
O171 Cd170 2.240 . S
O171 C176 1.279 . S
O172 Cd169 2.297 . S
O172 C174 1.247 . S
O173 Cd169 2.439 . S
O173 C174 1.208 . S
C174 O172 1.247 . S
C174 O173 1.208 . S
C175 O180 1.247 1_556 S
C175 O181 1.208 . S
C176 O168 1.315 . S
C176 O171 1.279 . S
C177 O178 1.315 . S
C177 O179 1.279 1_554 S
O178 Cd170 2.223 . S
O178 C177 1.315 . S
O179 Cd169 2.240 . S
O179 C177 1.279 1_556 S
O180 Cd170 2.297 . S
O180 C175 1.247 1_554 S
O181 Cd170 2.439 1_556 S
O181 C175 1.208 . S
O182 Cd183 2.223 . S
O182 C190 1.315 . S
Cd183 O182 2.223 . S
Cd183 O186 2.297 . S
Cd183 O187 2.439 . S
Cd183 O193 2.240 . S
Cd184 O185 2.240 . S
Cd184 O192 2.223 . S
Cd184 O194 2.297 . S
Cd184 O195 2.439 . S
O185 Cd184 2.240 . S
O185 C190 1.279 . S
O186 Cd183 2.297 . S
O186 C188 1.247 . S
O187 Cd183 2.439 . S
O187 C188 1.208 . S
C188 O186 1.247 . S
C188 O187 1.208 . S
C189 O194 1.247 . S
C189 O195 1.208 . S
C190 O182 1.315 . S
C190 O185 1.279 . S
C191 O192 1.315 . S
C191 O193 1.279 . S
O192 Cd184 2.223 . S
O192 C191 1.315 . S
O193 Cd183 2.240 . S
O193 C191 1.279 . S
O194 Cd184 2.297 . S
O194 C189 1.247 . S
O195 Cd184 2.439 . S
O195 C189 1.208 . S
O196 Cd197 2.223 . S
O196 C204 1.315 . S
Cd197 O196 2.223 . S
Cd197 O200 2.297 . S
Cd197 O201 2.439 . S
Cd197 O207 2.240 . S
Cd198 O199 2.240 . S
Cd198 O206 2.223 . S
Cd198 O208 2.297 . S
Cd198 O209 2.439 . S
O199 Cd198 2.240 . S
O199 C204 1.279 . S
O200 Cd197 2.297 . S
O200 C202 1.247 . S
O201 Cd197 2.439 . S
O201 C202 1.208 . S
C202 O200 1.247 . S
C202 O201 1.208 . S
C203 O208 1.247 . S
C203 O209 1.208 . S
C204 O196 1.315 . S
C204 O199 1.279 . S
C205 O206 1.315 . S
C205 O207 1.279 . S
O206 Cd198 2.223 . S
O206 C205 1.315 . S
O207 Cd197 2.240 . S
O207 C205 1.279 . S
O208 Cd198 2.297 . S
O208 C203 1.247 . S
O209 Cd198 2.439 . S
O209 C203 1.208 . S
O210 Cd211 2.223 . S
O210 C218 1.315 . S
Cd211 O210 2.223 . S
Cd211 O214 2.297 . S
Cd211 O215 2.439 . S
Cd211 O221 2.240 . S
Cd212 O213 2.240 . S
Cd212 O220 2.223 . S
Cd212 O222 2.297 . S
Cd212 O223 2.439 . S
O213 Cd212 2.240 . S
O213 C218 1.279 . S
O214 Cd211 2.297 . S
O214 C216 1.247 . S
O215 Cd211 2.439 . S
O215 C216 1.208 . S
C216 O214 1.247 . S
C216 O215 1.208 . S
C217 O222 1.247 . S
C217 O223 1.208 . S
C218 O210 1.315 . S
C218 O213 1.279 . S
C219 O220 1.315 . S
C219 O221 1.279 . S
O220 Cd212 2.223 . S
O220 C219 1.315 . S
O221 Cd211 2.240 . S
O221 C219 1.279 . S
O222 Cd212 2.297 . S
O222 C217 1.247 . S
O223 Cd212 2.439 . S
O223 C217 1.208 . S
C224 C225 1.363 . S
C224 C230 1.379 . S
C224 N232 1.356 . S
C225 C224 1.363 . S
C225 C231 1.363 . S
C226 C227 1.363 . S
C226 C231 1.379 . S
C226 N233 1.356 . S
C227 C226 1.363 . S
C227 C230 1.363 . S
N228 C230 1.356 1_556 S
N228 H240 0.984 . S
N228 H241 0.985 . S
N229 C231 1.356 . S
N229 H234 0.984 . S
N229 H235 0.985 . S
C230 C224 1.379 . S
C230 C227 1.363 . S
C230 N228 1.356 1_554 S
C231 C225 1.363 . S
C231 C226 1.379 . S
C231 N229 1.356 . S
N232 C224 1.356 . S
N232 H238 0.984 . S
N232 H239 0.984 . S
N233 C226 1.356 . S
N233 H236 0.984 . S
N233 H237 0.985 . S
H234 N229 0.984 . S
H235 N229 0.985 . S
H236 N233 0.984 . S
H237 N233 0.985 . S
H238 N232 0.984 . S
H239 N232 0.984 . S
H240 N228 0.984 . S
H241 N228 0.985 . S
C242 C243 1.363 . S
C242 C248 1.379 . S
C242 N250 1.356 . S
C243 C242 1.363 . S
C243 C249 1.363 . S
C244 C245 1.363 . S
C244 C249 1.379 . S
C244 N251 1.356 . S
C245 C244 1.363 . S
C245 C248 1.363 . S
N246 C248 1.356 . S
N246 H258 0.984 . S
N246 H259 0.985 . S
N247 C249 1.356 . S
N247 H252 0.984 . S
N247 H253 0.985 . S
C248 C242 1.379 . S
C248 C245 1.363 . S
C248 N246 1.356 . S
C249 C243 1.363 . S
C249 C244 1.379 . S
C249 N247 1.356 . S
N250 C242 1.356 . S
N250 H256 0.984 . S
N250 H257 0.984 . S
N251 C244 1.356 . S
N251 H254 0.984 . S
N251 H255 0.985 . S
H252 N247 0.984 . S
H253 N247 0.985 . S
H254 N251 0.984 . S
H255 N251 0.985 . S
H256 N250 0.984 . S
H257 N250 0.984 . S
H258 N246 0.984 . S
H259 N246 0.985 . S
C260 C261 1.363 . S
C260 C266 1.379 . S
C260 N268 1.356 . S
C261 C260 1.363 . S
C261 C267 1.363 . S
C262 C263 1.363 . S
C262 C267 1.379 . S
C262 N269 1.356 . S
C263 C262 1.363 . S
C263 C266 1.363 . S
N264 C266 1.356 . S
N264 H276 0.984 . S
N264 H277 0.985 . S
N265 C267 1.356 . S
N265 H270 0.984 . S
N265 H271 0.985 . S
C266 C260 1.379 . S
C266 C263 1.363 . S
C266 N264 1.356 . S
C267 C261 1.363 . S
C267 C262 1.379 . S
C267 N265 1.356 . S
N268 C260 1.356 . S
N268 H274 0.984 . S
N268 H275 0.984 . S
N269 C262 1.356 . S
N269 H272 0.984 . S
N269 H273 0.985 . S
H270 N265 0.984 . S
H271 N265 0.985 . S
H272 N269 0.984 . S
H273 N269 0.985 . S
H274 N268 0.984 . S
H275 N268 0.984 . S
H276 N264 0.984 . S
H277 N264 0.985 . S
C278 C279 1.363 . S
C278 C284 1.379 . S
C278 N286 1.356 . S
C279 C278 1.363 . S
C279 C285 1.363 . S
C280 C281 1.363 . S
C280 C285 1.379 . S
C280 N287 1.356 . S
C281 C280 1.363 . S
C281 C284 1.363 . S
N282 C284 1.356 . S
N282 H294 0.984 . S
N282 H295 0.985 . S
N283 C285 1.356 . S
N283 H288 0.984 . S
N283 H289 0.985 . S
C284 C278 1.379 . S
C284 C281 1.363 . S
C284 N282 1.356 . S
C285 C279 1.363 . S
C285 C280 1.379 . S
C285 N283 1.356 . S
N286 C278 1.356 . S
N286 H292 0.984 . S
N286 H293 0.984 . S
N287 C280 1.356 . S
N287 H290 0.984 . S
N287 H291 0.985 . S
H288 N283 0.984 . S
H289 N283 0.985 . S
H290 N287 0.984 . S
H291 N287 0.985 . S
H292 N286 0.984 . S
H293 N286 0.984 . S
H294 N282 0.984 . S
H295 N282 0.985 . S
C296 C297 1.363 . S
C296 C302 1.379 . S
C296 N304 1.356 . S
C297 C296 1.363 . S
C297 C303 1.363 . S
C298 C299 1.363 . S
C298 C303 1.379 . S
C298 N305 1.361 . S
C299 C298 1.363 . S
C299 C302 1.363 . S
N300 C302 1.356 . S
N300 H312 0.984 . S
N300 H313 0.985 . S
N301 C303 1.356 . S
N301 H306 0.984 . S
N301 H307 0.985 . S
C302 C296 1.379 . S
C302 C299 1.363 . S
C302 N300 1.356 . S
C303 C297 1.363 . S
C303 C298 1.379 . S
C303 N301 1.356 . S
N304 C296 1.356 . S
N304 H310 0.984 . S
N304 H311 0.984 . S
N305 C298 1.361 . S
N305 H308 0.983 1_556 S
N305 H309 0.981 1_556 S
H306 N301 0.984 . S
H307 N301 0.985 . S
H308 N305 0.983 1_554 S
H309 N305 0.981 1_554 S
H310 N304 0.984 . S
H311 N304 0.984 . S
H312 N300 0.984 . S
H313 N300 0.985 . S
C314 C315 1.363 . S
C314 C320 1.379 . S
C314 N322 1.356 . S
C315 C314 1.363 . S
C315 C321 1.363 . S
C316 C317 1.363 . S
C316 C321 1.379 . S
C316 N323 1.356 . S
C317 C316 1.363 . S
C317 C320 1.363 . S
N318 C320 1.356 . S
N318 H330 0.984 . S
N318 H331 0.985 . S
N319 C321 1.356 . S
N319 H324 0.984 . S
N319 H325 0.985 . S
C320 C314 1.379 . S
C320 C317 1.363 . S
C320 N318 1.356 . S
C321 C315 1.363 . S
C321 C316 1.379 . S
C321 N319 1.356 . S
N322 C314 1.356 . S
N322 H328 0.984 . S
N322 H329 0.984 . S
N323 C316 1.356 . S
N323 H326 0.984 . S
N323 H327 0.985 . S
H324 N319 0.984 . S
H325 N319 0.985 . S
H326 N323 0.984 . S
H327 N323 0.985 . S
H328 N322 0.984 . S
H329 N322 0.984 . S
H330 N318 0.984 . S
H331 N318 0.985 . S
C332 C333 1.363 . S
C332 C338 1.379 . S
C332 N340 1.347 1_655 S
C333 C332 1.363 . S
C333 C339 1.363 . S
C334 C335 1.363 . S
C334 C339 1.379 . S
C334 N341 1.356 . S
C335 C334 1.363 . S
C335 C338 1.363 . S
N336 C338 1.356 . S
N336 H348 0.984 . S
N336 H349 0.985 . S
N337 C339 1.356 . S
N337 H342 0.984 . S
N337 H343 0.985 . S
C338 C332 1.379 . S
C338 C335 1.363 . S
C338 N336 1.356 . S
C339 C333 1.363 . S
C339 C334 1.379 . S
C339 N337 1.356 . S
N340 C332 1.347 1_455 S
N340 H346 0.992 . S
N340 H347 0.986 . S
N341 C334 1.356 . S
N341 H344 0.984 . S
N341 H345 0.985 . S
H342 N337 0.984 . S
H343 N337 0.985 . S
H344 N341 0.984 . S
H345 N341 0.985 . S
H346 N340 0.992 . S
H347 N340 0.986 . S
H348 N336 0.984 . S
H349 N336 0.985 . S
C350 C351 1.363 . S
C350 C356 1.379 . S
C350 N358 1.356 . S
C351 C350 1.363 . S
C351 C357 1.363 . S
C352 C353 1.363 . S
C352 C357 1.379 . S
C352 N359 1.356 . S
C353 C352 1.363 . S
C353 C356 1.363 . S
N354 C356 1.356 . S
N354 H366 0.984 . S
N354 H367 0.985 . S
N355 C357 1.356 . S
N355 H360 0.984 . S
N355 H361 0.985 . S
C356 C350 1.379 . S
C356 C353 1.363 . S
C356 N354 1.356 . S
C357 C351 1.363 . S
C357 C352 1.379 . S
C357 N355 1.356 . S
N358 C350 1.356 . S
N358 H364 0.984 . S
N358 H365 0.984 . S
N359 C352 1.356 . S
N359 H362 0.984 . S
N359 H363 0.985 . S
H360 N355 0.984 . S
H361 N355 0.985 . S
H362 N359 0.984 . S
H363 N359 0.985 . S
H364 N358 0.984 . S
H365 N358 0.984 . S
H366 N354 0.984 . S
H367 N354 0.985 . S
C368 C369 1.363 . S
C368 C374 1.379 . S
C368 N376 1.356 . S
C369 C368 1.363 . S
C369 C375 1.363 . S
C370 C371 1.363 . S
C370 C375 1.379 . S
C370 N377 1.356 . S
C371 C370 1.363 . S
C371 C374 1.363 . S
N372 C374 1.356 . S
N372 H384 0.984 . S
N372 H385 0.985 . S
N373 C375 1.356 . S
N373 H378 0.984 . S
N373 H379 0.985 . S
C374 C368 1.379 . S
C374 C371 1.363 . S
C374 N372 1.356 . S
C375 C369 1.363 . S
C375 C370 1.379 . S
C375 N373 1.356 . S
N376 C368 1.356 . S
N376 H382 0.984 . S
N376 H383 0.984 . S
N377 C370 1.356 . S
N377 H380 0.984 . S
N377 H381 0.985 . S
H378 N373 0.984 . S
H379 N373 0.985 . S
H380 N377 0.984 . S
H381 N377 0.985 . S
H382 N376 0.984 . S
H383 N376 0.984 . S
H384 N372 0.984 . S
H385 N372 0.985 . S
C386 C387 1.363 . S
C386 C392 1.379 . S
C386 N394 1.356 . S
C387 C386 1.363 . S
C387 C393 1.363 1_545 S
C388 C389 1.363 . S
C388 C393 1.379 . S
C388 N395 1.356 1_655 S
C389 C388 1.363 . S
C389 C392 1.363 1_565 S
N390 C392 1.356 . S
N390 H402 0.984 . S
N390 H403 0.985 . S
N391 C393 1.356 1_455 S
N391 H396 0.984 . S
N391 H397 0.985 . S
C392 C386 1.379 . S
C392 C389 1.363 1_545 S
C392 N390 1.356 . S
C393 C387 1.363 1_565 S
C393 C388 1.379 . S
C393 N391 1.356 1_655 S
N394 C386 1.356 . S
N394 H400 0.984 . S
N394 H401 0.984 . S
N395 C388 1.356 1_455 S
N395 H398 0.984 . S
N395 H399 0.985 . S
H396 N391 0.984 . S
H397 N391 0.985 . S
H398 N395 0.984 . S
H399 N395 0.985 . S
H400 N394 0.984 . S
H401 N394 0.984 . S
H402 N390 0.984 . S
H403 N390 0.985 . S
C404 C405 1.363 . S
C404 C410 1.379 1_556 S
C404 N412 1.356 . S
C405 C404 1.363 . S
C405 C411 1.363 . S
C406 C407 1.363 . S
C406 C411 1.379 1_554 S
C406 N413 1.356 . S
C407 C406 1.363 . S
C407 C410 1.363 . S
N408 C410 1.356 . S
N408 H420 0.984 . S
N408 H421 0.985 . S
N409 C411 1.356 . S
N409 H414 0.984 . S
N409 H415 0.985 . S
C410 C404 1.379 1_554 S
C410 C407 1.363 . S
C410 N408 1.356 . S
C411 C405 1.363 . S
C411 C406 1.379 1_556 S
C411 N409 1.356 . S
N412 C404 1.356 . S
N412 H418 0.984 . S
N412 H419 0.984 . S
N413 C406 1.356 . S
N413 H416 0.984 . S
N413 H417 0.985 . S
H414 N409 0.984 . S
H415 N409 0.985 . S
H416 N413 0.984 . S
H417 N413 0.985 . S
H418 N412 0.984 . S
H419 N412 0.984 . S
H420 N408 0.984 . S
H421 N408 0.985 . S
C422 C423 1.363 . S
C422 C428 1.379 . S
C422 N430 1.356 . S
C423 C422 1.363 . S
C423 C429 1.363 . S
C424 C425 1.363 . S
C424 C429 1.379 . S
C424 N431 1.356 . S
C425 C424 1.363 . S
C425 C428 1.363 . S
N426 C428 1.356 . S
N426 H438 0.984 . S
N426 H439 0.985 . S
N427 C429 1.356 . S
N427 H432 0.984 . S
N427 H433 0.985 1_565 S
C428 C422 1.379 . S
C428 C425 1.363 . S
C428 N426 1.356 . S
C429 C423 1.363 . S
C429 C424 1.379 . S
C429 N427 1.356 . S
N430 C422 1.356 . S
N430 H436 0.984 . S
N430 H437 0.984 . S
N431 C424 1.356 . S
N431 H434 0.984 . S
N431 H435 0.985 1_565 S
H432 N427 0.984 . S
H433 N427 0.985 1_545 S
H434 N431 0.984 . S
H435 N431 0.985 1_545 S
H436 N430 0.984 . S
H437 N430 0.984 . S
H438 N426 0.984 . S
H439 N426 0.985 . S
C440 C441 1.363 . S
C440 C446 1.379 . S
C440 N448 1.356 . S
C441 C440 1.363 . S
C441 C447 1.363 . S
C442 C443 1.363 . S
C442 C447 1.379 . S
C442 N449 1.356 . S
C443 C442 1.363 . S
C443 C446 1.363 . S
N444 C446 1.356 . S
N444 H456 0.984 . S
N444 H457 0.985 . S
N445 C447 1.356 . S
N445 H450 0.984 . S
N445 H451 0.985 . S
C446 C440 1.379 . S
C446 C443 1.363 . S
C446 N444 1.356 . S
C447 C441 1.363 . S
C447 C442 1.379 . S
C447 N445 1.356 . S
N448 C440 1.356 . S
N448 H454 0.984 . S
N448 H455 0.984 . S
N449 C442 1.356 . S
N449 H452 0.984 . S
N449 H453 0.985 . S
H450 N445 0.984 . S
H451 N445 0.985 . S
H452 N449 0.984 . S
H453 N449 0.985 . S
H454 N448 0.984 . S
H455 N448 0.984 . S
H456 N444 0.984 . S
H457 N444 0.985 . S
C458 C459 1.363 . S
C458 C464 1.379 . S
C458 N466 1.356 . S
C459 C458 1.363 . S
C459 C465 1.363 1_455 S
C460 C461 1.363 1_655 S
C460 C465 1.379 . S
C460 N467 1.356 . S
C461 C460 1.363 1_455 S
C461 C464 1.363 . S
N462 C464 1.356 . S
N462 H474 0.984 . S
N462 H475 0.985 . S
N463 C465 1.356 . S
N463 H468 0.984 . S
N463 H469 0.985 . S
C464 C458 1.379 . S
C464 C461 1.363 . S
C464 N462 1.356 . S
C465 C459 1.363 1_655 S
C465 C460 1.379 . S
C465 N463 1.356 . S
N466 C458 1.356 . S
N466 H472 0.984 . S
N466 H473 0.984 . S
N467 C460 1.356 . S
N467 H470 0.984 . S
N467 H471 0.985 . S
H468 N463 0.984 . S
H469 N463 0.985 . S
H470 N467 0.984 . S
H471 N467 0.985 . S
H472 N466 0.984 . S
H473 N466 0.984 . S
H474 N462 0.984 . S
H475 N462 0.985 . S
C476 C477 1.363 . S
C476 C482 1.379 1_655 S
C476 N484 1.356 . S
C477 C476 1.363 . S
C477 C483 1.363 . S
C478 C479 1.363 . S
C478 C483 1.379 1_455 S
C478 N485 1.356 . S
C479 C478 1.363 . S
C479 C482 1.363 . S
N480 C482 1.356 . S
N480 H492 0.984 . S
N480 H493 0.985 . S
N481 C483 1.356 . S
N481 H486 0.984 . S
N481 H487 0.985 . S
C482 C476 1.379 1_455 S
C482 C479 1.363 . S
C482 N480 1.356 . S
C483 C477 1.363 . S
C483 C478 1.379 1_655 S
C483 N481 1.356 . S
N484 C476 1.356 . S
N484 H490 0.984 . S
N484 H491 0.984 . S
N485 C478 1.356 . S
N485 H488 0.984 . S
N485 H489 0.985 . S
H486 N481 0.984 . S
H487 N481 0.985 . S
H488 N485 0.984 . S
H489 N485 0.985 . S
H490 N484 0.984 . S
H491 N484 0.984 . S
H492 N480 0.984 . S
H493 N480 0.985 . S
C494 C495 1.363 . S
C494 C500 1.379 . S
C494 N502 1.356 . S
C495 C494 1.363 . S
C495 C501 1.363 1_556 S
C496 C497 1.363 1_554 S
C496 C501 1.379 . S
C496 N503 1.356 . S
C497 C496 1.363 1_556 S
C497 C500 1.363 . S
N498 C500 1.356 . S
N498 H510 0.984 . S
N498 H511 0.985 . S
N499 C501 1.356 . S
N499 H504 0.984 . S
N499 H505 0.985 . S
C500 C494 1.379 . S
C500 C497 1.363 . S
C500 N498 1.356 . S
C501 C495 1.363 1_554 S
C501 C496 1.379 . S
C501 N499 1.356 . S
N502 C494 1.356 . S
N502 H508 0.984 . S
N502 H509 0.984 . S
N503 C496 1.356 . S
N503 H506 0.984 . S
N503 H507 0.985 . S
H504 N499 0.984 . S
H505 N499 0.985 . S
H506 N503 0.984 . S
H507 N503 0.985 . S
H508 N502 0.984 . S
H509 N502 0.984 . S
H510 N498 0.984 . S
H511 N498 0.985 . S
C512 C513 1.363 . S
C512 C518 1.379 . S
C512 N520 1.356 . S
C513 C512 1.363 . S
C513 C519 1.363 . S
C514 C515 1.363 . S
C514 C519 1.379 . S
C514 N521 1.356 . S
C515 C514 1.363 . S
C515 C518 1.363 . S
N516 C518 1.356 . S
N516 H528 0.984 . S
N516 H529 0.985 . S
N517 C519 1.356 . S
N517 H522 0.984 . S
N517 H523 0.985 . S
C518 C512 1.379 . S
C518 C515 1.363 . S
C518 N516 1.356 . S
C519 C513 1.363 . S
C519 C514 1.379 . S
C519 N517 1.356 . S
N520 C512 1.356 . S
N520 H526 0.984 . S
N520 H527 0.984 . S
N521 C514 1.356 . S
N521 H524 0.984 . S
N521 H525 0.985 . S
H522 N517 0.984 . S
H523 N517 0.985 . S
H524 N521 0.984 . S
H525 N521 0.985 . S
H526 N520 0.984 . S
H527 N520 0.984 . S
H528 N516 0.984 . S
H529 N516 0.985 . S
C530 C531 1.363 . S
C530 C536 1.379 . S
C530 N538 1.356 . S
C531 C530 1.363 . S
C531 C537 1.363 . S
C532 C533 1.363 . S
C532 C537 1.379 . S
C532 N539 1.356 . S
C533 C532 1.363 . S
C533 C536 1.363 . S
N534 C536 1.356 . S
N534 H546 0.984 . S
N534 H547 0.985 . S
N535 C537 1.356 . S
N535 H540 0.984 . S
N535 H541 0.985 . S
C536 C530 1.379 . S
C536 C533 1.363 . S
C536 N534 1.356 . S
C537 C531 1.363 . S
C537 C532 1.379 . S
C537 N535 1.356 . S
N538 C530 1.356 . S
N538 H544 0.984 . S
N538 H545 0.984 . S
N539 C532 1.356 . S
N539 H542 0.984 . S
N539 H543 0.985 . S
H540 N535 0.984 . S
H541 N535 0.985 . S
H542 N539 0.984 . S
H543 N539 0.985 . S
H544 N538 0.984 . S
H545 N538 0.984 . S
H546 N534 0.984 . S
H547 N534 0.985 . S
C548 C549 1.363 . S
C548 C554 1.379 . S
C548 N556 1.356 . S
C549 C548 1.363 . S
C549 C555 1.363 . S
C550 C551 1.363 1_455 S
C550 C555 1.379 . S
C550 N557 1.356 1_455 S
C551 C550 1.363 1_655 S
C551 C554 1.363 1_655 S
N552 C554 1.356 1_655 S
N552 H564 0.984 . S
N552 H565 0.985 . S
N553 C555 1.356 . S
N553 H558 0.984 . S
N553 H559 0.985 . S
C554 C548 1.379 . S
C554 C551 1.363 1_455 S
C554 N552 1.356 1_455 S
C555 C549 1.363 . S
C555 C550 1.379 . S
C555 N553 1.356 . S
N556 C548 1.356 . S
N556 H562 0.984 . S
N556 H563 0.984 . S
N557 C550 1.356 1_655 S
N557 H560 0.984 . S
N557 H561 0.985 . S
H558 N553 0.984 . S
H559 N553 0.985 . S
H560 N557 0.984 . S
H561 N557 0.985 . S
H562 N556 0.984 . S
H563 N556 0.984 . S
H564 N552 0.984 . S
H565 N552 0.985 . S
C566 C567 1.363 . S
C566 C572 1.379 . S
C566 N574 1.356 . S
C567 C566 1.363 . S
C567 C573 1.363 1_656 S
C568 C569 1.363 1_455 S
C568 C573 1.379 . S
C568 N575 1.356 . S
C569 C568 1.363 1_655 S
C569 C572 1.363 1_554 S
N570 C572 1.356 . S
N570 H582 0.984 . S
N570 H583 0.985 . S
N571 C573 1.356 . S
N571 H576 0.984 . S
N571 H577 0.985 . S
C572 C566 1.379 . S
C572 C569 1.363 1_556 S
C572 N570 1.356 . S
C573 C567 1.363 1_454 S
C573 C568 1.379 . S
C573 N571 1.356 . S
N574 C566 1.356 . S
N574 H580 0.984 . S
N574 H581 0.984 . S
N575 C568 1.356 . S
N575 H578 0.984 . S
N575 H579 0.985 . S
H576 N571 0.984 . S
H577 N571 0.985 . S
H578 N575 0.984 . S
H579 N575 0.985 . S
H580 N574 0.984 . S
H581 N574 0.984 . S
H582 N570 0.984 . S
H583 N570 0.985 . S
C584 C585 1.363 . S
C584 C590 1.379 . S
C584 N592 1.356 . S
C585 C584 1.363 . S
C585 C591 1.363 . S
C586 C587 1.363 . S
C586 C591 1.379 . S
C586 N593 1.356 . S
C587 C586 1.363 . S
C587 C590 1.363 . S
N588 C590 1.356 . S
N588 H600 0.984 . S
N588 H601 0.985 . S
N589 C591 1.356 . S
N589 H594 0.984 . S
N589 H595 0.985 . S
C590 C584 1.379 . S
C590 C587 1.363 . S
C590 N588 1.356 . S
C591 C585 1.363 . S
C591 C586 1.379 . S
C591 N589 1.356 . S
N592 C584 1.356 . S
N592 H598 0.984 . S
N592 H599 0.984 . S
N593 C586 1.356 . S
N593 H596 0.984 . S
N593 H597 0.985 . S
H594 N589 0.984 . S
H595 N589 0.985 . S
H596 N593 0.984 . S
H597 N593 0.985 . S
H598 N592 0.984 . S
H599 N592 0.984 . S
H600 N588 0.984 . S
H601 N588 0.985 . S
C602 C603 1.363 . S
C602 C608 1.379 . S
C602 N610 1.356 . S
C603 C602 1.363 . S
C603 C609 1.363 . S
C604 C605 1.363 1_545 S
C604 C609 1.379 . S
C604 N611 1.356 1_545 S
C605 C604 1.363 1_565 S
C605 C608 1.363 1_565 S
N606 C608 1.356 1_565 S
N606 H618 0.984 . S
N606 H619 0.985 . S
N607 C609 1.356 . S
N607 H612 0.984 . S
N607 H613 0.985 . S
C608 C602 1.379 . S
C608 C605 1.363 1_545 S
C608 N606 1.356 1_545 S
C609 C603 1.363 . S
C609 C604 1.379 . S
C609 N607 1.356 . S
N610 C602 1.356 . S
N610 H616 0.984 . S
N610 H617 0.984 . S
N611 C604 1.356 1_565 S
N611 H614 0.984 . S
N611 H615 0.985 . S
H612 N607 0.984 . S
H613 N607 0.985 . S
H614 N611 0.984 . S
H615 N611 0.985 . S
H616 N610 0.984 . S
H617 N610 0.984 . S
H618 N606 0.984 . S
H619 N606 0.985 . S
C620 C621 1.363 1_556 S
C620 C626 1.379 . S
C620 N628 1.356 . S
C621 C620 1.363 1_554 S
C621 C627 1.363 . S
C622 C623 1.363 1_554 S
C622 C627 1.379 . S
C622 N629 1.356 1_554 S
C623 C622 1.363 1_556 S
C623 C626 1.363 . S
N624 C626 1.356 . S
N624 H636 0.984 . S
N624 H637 0.985 . S
N625 C627 1.356 . S
N625 H630 0.984 . S
N625 H631 0.985 . S
C626 C620 1.379 . S
C626 C623 1.363 . S
C626 N624 1.356 . S
C627 C621 1.363 . S
C627 C622 1.379 . S
C627 N625 1.356 . S
N628 C620 1.356 . S
N628 H634 0.984 . S
N628 H635 0.984 1_556 S
N629 C622 1.356 1_556 S
N629 H632 0.985 . S
N629 H633 0.984 1_556 S
H630 N625 0.984 . S
H631 N625 0.985 . S
H632 N629 0.985 . S
H633 N629 0.984 1_554 S
H634 N628 0.984 . S
H635 N628 0.984 1_554 S
H636 N624 0.984 . S
H637 N624 0.985 . S
C638 C639 1.363 . S
C638 C644 1.379 1_545 S
C638 N646 1.356 . S
C639 C638 1.363 . S
C639 C645 1.363 1_545 S
C640 C641 1.363 . S
C640 C645 1.379 . S
C640 N647 1.356 . S
C641 C640 1.363 . S
C641 C644 1.363 . S
N642 C644 1.356 . S
N642 H654 0.984 . S
N642 H655 0.985 . S
N643 C645 1.356 1_545 S
N643 H648 0.984 . S
N643 H649 0.985 1_545 S
C644 C638 1.379 1_565 S
C644 C641 1.363 . S
C644 N642 1.356 . S
C645 C639 1.363 1_565 S
C645 C640 1.379 . S
C645 N643 1.356 1_565 S
N646 C638 1.356 . S
N646 H652 0.984 . S
N646 H653 0.984 . S
N647 C640 1.356 . S
N647 H650 0.984 . S
N647 H651 0.985 . S
H648 N643 0.984 . S
H649 N643 0.985 1_565 S
H650 N647 0.984 . S
H651 N647 0.985 . S
H652 N646 0.984 . S
H653 N646 0.984 . S
H654 N642 0.984 . S
H655 N642 0.985 . S
C656 C657 1.363 . S
C656 C662 1.379 . S
C656 N664 1.356 1_565 S
C657 C656 1.363 . S
C657 C663 1.363 . S
C658 C659 1.363 . S
C658 C663 1.379 . S
C658 N665 1.356 . S
C659 C658 1.363 . S
C659 C662 1.363 . S
N660 C662 1.356 1_545 S
N660 H672 0.984 . S
N660 H673 0.985 . S
N661 C663 1.356 . S
N661 H666 0.984 . S
N661 H667 0.985 . S
C662 C656 1.379 . S
C662 C659 1.363 . S
C662 N660 1.356 1_565 S
C663 C657 1.363 . S
C663 C658 1.379 . S
C663 N661 1.356 . S
N664 C656 1.356 1_545 S
N664 H670 0.984 . S
N664 H671 0.984 . S
N665 C658 1.356 . S
N665 H668 0.984 . S
N665 H669 0.985 . S
H666 N661 0.984 . S
H667 N661 0.985 . S
H668 N665 0.984 . S
H669 N665 0.985 . S
H670 N664 0.984 . S
H671 N664 0.984 . S
H672 N660 0.984 . S
H673 N660 0.985 . S
C674 C675 1.363 . S
C674 C680 1.379 . S
C674 N682 1.356 . S
C675 C674 1.363 . S
C675 C681 1.363 . S
C676 C677 1.363 . S
C676 C681 1.379 . S
C676 N683 1.356 . S
C677 C676 1.363 . S
C677 C680 1.363 . S
N678 C680 1.356 . S
N678 H690 0.984 . S
N678 H691 0.985 . S
N679 C681 1.356 . S
N679 H684 0.984 . S
N679 H685 0.985 . S
C680 C674 1.379 . S
C680 C677 1.363 . S
C680 N678 1.356 . S
C681 C675 1.363 . S
C681 C676 1.379 . S
C681 N679 1.356 . S
N682 C674 1.356 . S
N682 H688 0.984 . S
N682 H689 0.984 . S
N683 C676 1.356 . S
N683 H686 0.984 . S
N683 H687 0.985 . S
H684 N679 0.984 . S
H685 N679 0.985 . S
H686 N683 0.984 . S
H687 N683 0.985 . S
H688 N682 0.984 . S
H689 N682 0.984 . S
H690 N678 0.984 . S
H691 N678 0.985 . S
C692 C693 1.363 . S
C692 C698 1.379 . S
C692 N700 1.356 . S
C693 C692 1.363 . S
C693 C699 1.363 . S
C694 C695 1.363 . S
C694 C699 1.379 . S
C694 N701 1.356 . S
C695 C694 1.363 . S
C695 C698 1.363 . S
N696 C698 1.356 . S
N696 H708 0.984 . S
N696 H709 0.985 . S
N697 C699 1.356 . S
N697 H702 0.984 . S
N697 H703 0.985 . S
C698 C692 1.379 . S
C698 C695 1.363 . S
C698 N696 1.356 . S
C699 C693 1.363 . S
C699 C694 1.379 . S
C699 N697 1.356 . S
N700 C692 1.356 . S
N700 H706 0.984 . S
N700 H707 0.984 . S
N701 C694 1.356 . S
N701 H704 0.984 . S
N701 H705 0.985 . S
H702 N697 0.984 . S
H703 N697 0.985 . S
H704 N701 0.984 . S
H705 N701 0.985 . S
H706 N700 0.984 . S
H707 N700 0.984 . S
H708 N696 0.984 . S
H709 N696 0.985 . S
C710 C711 1.363 . S
C710 C716 1.379 1_556 S
C710 N718 1.356 . S
C711 C710 1.363 . S
C711 C717 1.363 . S
C712 C713 1.363 1_556 S
C712 C717 1.379 . S
C712 N719 1.356 1_556 S
C713 C712 1.363 1_554 S
C713 C716 1.363 . S
N714 C716 1.356 . S
N714 H726 0.984 . S
N714 H727 0.985 . S
N715 C717 1.356 . S
N715 H720 0.984 . S
N715 H721 0.985 . S
C716 C710 1.379 1_554 S
C716 C713 1.363 . S
C716 N714 1.356 . S
C717 C711 1.363 . S
C717 C712 1.379 . S
C717 N715 1.356 . S
N718 C710 1.356 . S
N718 H724 0.984 . S
N718 H725 0.984 . S
N719 C712 1.356 1_554 S
N719 H722 0.984 . S
N719 H723 0.985 1_554 S
H720 N715 0.984 . S
H721 N715 0.985 . S
H722 N719 0.984 . S
H723 N719 0.985 1_556 S
H724 N718 0.984 . S
H725 N718 0.984 . S
H726 N714 0.984 . S
H727 N714 0.985 . S
C728 C729 1.363 . S
C728 C734 1.379 . S
C728 N736 1.356 . S
C729 C728 1.363 . S
C729 C735 1.363 . S
C730 C731 1.363 . S
C730 C735 1.379 . S
C730 N737 1.356 . S
C731 C730 1.363 . S
C731 C734 1.363 . S
N732 C734 1.356 . S
N732 H744 0.984 . S
N732 H745 0.985 . S
N733 C735 1.356 . S
N733 H738 0.984 . S
N733 H739 0.985 . S
C734 C728 1.379 . S
C734 C731 1.363 . S
C734 N732 1.356 . S
C735 C729 1.363 . S
C735 C730 1.379 . S
C735 N733 1.356 . S
N736 C728 1.356 . S
N736 H742 0.984 . S
N736 H743 0.984 . S
N737 C730 1.356 . S
N737 H740 0.984 . S
N737 H741 0.985 . S
H738 N733 0.984 . S
H739 N733 0.985 . S
H740 N737 0.984 . S
H741 N737 0.985 . S
H742 N736 0.984 . S
H743 N736 0.984 . S
H744 N732 0.984 . S
H745 N732 0.985 . S
C746 C747 1.363 . S
C746 C752 1.379 . S
C746 N754 1.356 . S
C747 C746 1.363 . S
C747 C753 1.363 . S
C748 C749 1.363 . S
C748 C753 1.379 . S
C748 N755 1.356 . S
C749 C748 1.363 . S
C749 C752 1.363 . S
N750 C752 1.356 . S
N750 H762 0.984 . S
N750 H763 0.985 . S
N751 C753 1.356 . S
N751 H756 0.984 . S
N751 H757 0.985 . S
C752 C746 1.379 . S
C752 C749 1.363 . S
C752 N750 1.356 . S
C753 C747 1.363 . S
C753 C748 1.379 . S
C753 N751 1.356 . S
N754 C746 1.356 . S
N754 H760 0.984 . S
N754 H761 0.984 . S
N755 C748 1.356 . S
N755 H758 0.984 . S
N755 H759 0.985 . S
H756 N751 0.984 . S
H757 N751 0.985 . S
H758 N755 0.984 . S
H759 N755 0.985 . S
H760 N754 0.984 . S
H761 N754 0.984 . S
H762 N750 0.984 . S
H763 N750 0.985 . S
C764 C765 1.363 . S
C764 C770 1.379 . S
C764 N772 1.356 . S
C765 C764 1.363 . S
C765 C771 1.363 1_655 S
C766 C767 1.363 1_455 S
C766 C771 1.379 . S
C766 N773 1.356 . S
C767 C766 1.363 1_655 S
C767 C770 1.363 . S
N768 C770 1.356 . S
N768 H780 0.984 . S
N768 H781 0.985 . S
N769 C771 1.356 . S
N769 H774 0.984 . S
N769 H775 0.985 . S
C770 C764 1.379 . S
C770 C767 1.363 . S
C770 N768 1.356 . S
C771 C765 1.363 1_455 S
C771 C766 1.379 . S
C771 N769 1.356 . S
N772 C764 1.356 . S
N772 H778 0.984 . S
N772 H779 0.984 . S
N773 C766 1.356 . S
N773 H776 0.984 . S
N773 H777 0.985 . S
H774 N769 0.984 . S
H775 N769 0.985 . S
H776 N773 0.984 . S
H777 N773 0.985 . S
H778 N772 0.984 . S
H779 N772 0.984 . S
H780 N768 0.984 . S
H781 N768 0.985 . S
C782 C783 1.363 . S
C782 C788 1.379 . S
C782 N790 1.356 . S
C783 C782 1.363 . S
C783 C789 1.363 . S
C784 C785 1.363 . S
C784 C789 1.379 . S
C784 N791 1.356 1_545 S
C785 C784 1.363 . S
C785 C788 1.363 . S
N786 C788 1.356 . S
N786 H798 0.984 . S
N786 H799 0.985 . S
N787 C789 1.356 1_565 S
N787 H792 0.984 . S
N787 H793 0.985 . S
C788 C782 1.379 . S
C788 C785 1.363 . S
C788 N786 1.356 . S
C789 C783 1.363 . S
C789 C784 1.379 . S
C789 N787 1.356 1_545 S
N790 C782 1.356 . S
N790 H796 0.984 . S
N790 H797 0.984 . S
N791 C784 1.356 1_565 S
N791 H794 0.984 1_565 S
N791 H795 0.985 . S
H792 N787 0.984 . S
H793 N787 0.985 . S
H794 N791 0.984 1_545 S
H795 N791 0.985 . S
H796 N790 0.984 . S
H797 N790 0.984 . S
H798 N786 0.984 . S
H799 N786 0.985 . S
C225 C6 1.672 . S
C227 C104 1.628 . S
C243 C20 1.749 . S
C245 C62 1.754 . S
C261 C76 1.549 . S
C263 C34 1.621 . S
C279 C48 1.881 . S
C281 C90 1.733 . S
C297 C118 1.754 . S
C299 C174 1.749 . S
C315 C132 1.549 . S
C317 C202 1.622 . S
C333 C160 1.881 . S
C335 C146 1.733 . S
C351 C216 1.628 . S
C353 C188 1.672 . S
C369 C9 1.316 . S
C371 C91 1.148 . S
C387 C106 1.790 . S
C389 C22 1.793 . S
C405 C37 1.322 . S
C407 C63 1.156 . S
C423 C78 1.792 . S
C425 C49 1.667 . S
C441 C8 1.483 . S
C443 C204 1.487 . S
C459 C163 1.020 . S
C461 C21 0.955 1_455 S
C477 C190 1.483 . S
C479 C36 1.487 . S
C495 C175 0.955 . S
C497 C51 1.020 1_556 S
C513 C149 1.854 . S
C515 C65 1.820 . S
C531 C77 1.052 . S
C533 C217 1.138 . S
C549 C93 1.854 . S
C551 C121 1.821 . S
C567 C105 1.138 . S
C569 C133 1.053 . S
C585 C7 1.576 . S
C587 C64 1.682 . S
C603 C120 1.682 . S
C605 C189 1.576 . S
C621 C177 1.608 . S
C623 C135 1.633 . S
C639 C203 1.406 . S
C641 C148 1.449 . S
C657 C107 1.580 . S
C659 C50 1.591 . S
C675 C35 1.406 . S
C677 C92 1.449 . S
C693 C162 1.591 . S
C695 C219 1.580 . S
C711 C191 1.316 . S
C713 C147 1.148 . S
C729 C218 1.790 . S
C731 C176 1.793 . S
C747 C205 1.322 . S
C749 C119 1.157 . S
C765 C161 1.667 . S
C767 C134 1.792 . S
C783 C23 1.607 . S
C785 C79 1.635 . S
