# Generated by pormake.
# Topology whk, (6)-cn, num edge types: 1
# Building blocks:
#     Node 0, Type 0, BuildingBlock: IZENUY_clean_sbu_0, # of connection points: 6
#     Node 1, Type 0, BuildingBlock: IZENUY_clean_sbu_0, # of connection points: 6
#     Node 2, Type 0, BuildingBlock: IZENUY_clean_sbu_0, # of connection points: 6
#     Node 3, Type 0, BuildingBlock: IZENUY_clean_sbu_0, # of connection points: 6
#     Node 4, Type 0, BuildingBlock: IZENUY_clean_sbu_0, # of connection points: 6
#     Node 5, Type 0, BuildingBlock: IZENUY_clean_sbu_0, # of connection points: 6
#     Node 6, Type 0, BuildingBlock: IZENUY_clean_sbu_0, # of connection points: 6
#     Node 7, Type 0, BuildingBlock: IZENUY_clean_sbu_0, # of connection points: 6
#     Node 8, Type 0, BuildingBlock: IZENUY_clean_sbu_0, # of connection points: 6
#     Node 9, Type 0, BuildingBlock: IZENUY_clean_sbu_0, # of connection points: 6
#     Node 10, Type 0, BuildingBlock: IZENUY_clean_sbu_0, # of connection points: 6
#     Node 11, Type 0, BuildingBlock: IZENUY_clean_sbu_0, # of connection points: 6
#     Node 12, Type 0, BuildingBlock: IZENUY_clean_sbu_0, # of connection points: 6
#     Node 13, Type 0, BuildingBlock: IZENUY_clean_sbu_0, # of connection points: 6
#     Node 14, Type 0, BuildingBlock: IZENUY_clean_sbu_0, # of connection points: 6
#     Node 15, Type 0, BuildingBlock: IZENUY_clean_sbu_0, # of connection points: 6
#     Edge 16, Type (0, 0), BuildingBlock: OJICUG_clean_linker_0, # of connection points: 2
#     Edge 17, Type (0, 0), BuildingBlock: OJICUG_clean_linker_0, # of connection points: 2
#     Edge 18, Type (0, 0), BuildingBlock: OJICUG_clean_linker_0, # of connection points: 2
#     Edge 19, Type (0, 0), BuildingBlock: OJICUG_clean_linker_0, # of connection points: 2
#     Edge 20, Type (0, 0), BuildingBlock: OJICUG_clean_linker_0, # of connection points: 2
#     Edge 21, Type (0, 0), BuildingBlock: OJICUG_clean_linker_0, # of connection points: 2
#     Edge 22, Type (0, 0), BuildingBlock: OJICUG_clean_linker_0, # of connection points: 2
#     Edge 23, Type (0, 0), BuildingBlock: OJICUG_clean_linker_0, # of connection points: 2
#     Edge 24, Type (0, 0), BuildingBlock: OJICUG_clean_linker_0, # of connection points: 2
#     Edge 25, Type (0, 0), BuildingBlock: OJICUG_clean_linker_0, # of connection points: 2
#     Edge 26, Type (0, 0), BuildingBlock: OJICUG_clean_linker_0, # of connection points: 2
#     Edge 27, Type (0, 0), BuildingBlock: OJICUG_clean_linker_0, # of connection points: 2
#     Edge 28, Type (0, 0), BuildingBlock: OJICUG_clean_linker_0, # of connection points: 2
#     Edge 29, Type (0, 0), BuildingBlock: OJICUG_clean_linker_0, # of connection points: 2
#     Edge 30, Type (0, 0), BuildingBlock: OJICUG_clean_linker_0, # of connection points: 2
#     Edge 31, Type (0, 0), BuildingBlock: OJICUG_clean_linker_0, # of connection points: 2
#     Edge 32, Type (0, 0), BuildingBlock: OJICUG_clean_linker_0, # of connection points: 2
#     Edge 33, Type (0, 0), BuildingBlock: OJICUG_clean_linker_0, # of connection points: 2
#     Edge 34, Type (0, 0), BuildingBlock: OJICUG_clean_linker_0, # of connection points: 2
#     Edge 35, Type (0, 0), BuildingBlock: OJICUG_clean_linker_0, # of connection points: 2
#     Edge 36, Type (0, 0), BuildingBlock: OJICUG_clean_linker_0, # of connection points: 2
#     Edge 37, Type (0, 0), BuildingBlock: OJICUG_clean_linker_0, # of connection points: 2
#     Edge 38, Type (0, 0), BuildingBlock: OJICUG_clean_linker_0, # of connection points: 2
#     Edge 39, Type (0, 0), BuildingBlock: OJICUG_clean_linker_0, # of connection points: 2
#     Edge 40, Type (0, 0), BuildingBlock: OJICUG_clean_linker_0, # of connection points: 2
#     Edge 41, Type (0, 0), BuildingBlock: OJICUG_clean_linker_0, # of connection points: 2
#     Edge 42, Type (0, 0), BuildingBlock: OJICUG_clean_linker_0, # of connection points: 2
#     Edge 43, Type (0, 0), BuildingBlock: OJICUG_clean_linker_0, # of connection points: 2
#     Edge 44, Type (0, 0), BuildingBlock: OJICUG_clean_linker_0, # of connection points: 2
#     Edge 45, Type (0, 0), BuildingBlock: OJICUG_clean_linker_0, # of connection points: 2
#     Edge 46, Type (0, 0), BuildingBlock: OJICUG_clean_linker_0, # of connection points: 2
#     Edge 47, Type (0, 0), BuildingBlock: OJICUG_clean_linker_0, # of connection points: 2
#     Edge 48, Type (0, 0), BuildingBlock: OJICUG_clean_linker_0, # of connection points: 2
#     Edge 49, Type (0, 0), BuildingBlock: OJICUG_clean_linker_0, # of connection points: 2
#     Edge 50, Type (0, 0), BuildingBlock: OJICUG_clean_linker_0, # of connection points: 2
#     Edge 51, Type (0, 0), BuildingBlock: OJICUG_clean_linker_0, # of connection points: 2
#     Edge 52, Type (0, 0), BuildingBlock: OJICUG_clean_linker_0, # of connection points: 2
#     Edge 53, Type (0, 0), BuildingBlock: OJICUG_clean_linker_0, # of connection points: 2
#     Edge 54, Type (0, 0), BuildingBlock: OJICUG_clean_linker_0, # of connection points: 2
#     Edge 55, Type (0, 0), BuildingBlock: OJICUG_clean_linker_0, # of connection points: 2
#     Edge 56, Type (0, 0), BuildingBlock: OJICUG_clean_linker_0, # of connection points: 2
#     Edge 57, Type (0, 0), BuildingBlock: OJICUG_clean_linker_0, # of connection points: 2
#     Edge 58, Type (0, 0), BuildingBlock: OJICUG_clean_linker_0, # of connection points: 2
#     Edge 59, Type (0, 0), BuildingBlock: OJICUG_clean_linker_0, # of connection points: 2
#     Edge 60, Type (0, 0), BuildingBlock: OJICUG_clean_linker_0, # of connection points: 2
#     Edge 61, Type (0, 0), BuildingBlock: OJICUG_clean_linker_0, # of connection points: 2
#     Edge 62, Type (0, 0), BuildingBlock: OJICUG_clean_linker_0, # of connection points: 2
#     Edge 63, Type (0, 0), BuildingBlock: OJICUG_clean_linker_0, # of connection points: 2
# Relax obj value: 0.292
# Max RMSD: 0.220
# Mean RMSD: 0.220
data_MOF--net-whk--node1-IZENUY_clean_sbu_0--edge1-OJICUG_clean_linker_0
_symmetry_space_group_name_H-M    P1
_symmetry_Int_Tables_number       1
_symmetry_cell_setting            triclinic
loop_
_symmetry_equiv_pos_as_xyz
'x, y, z'
_cell_length_a     26.950631
_cell_length_b     26.945386
_cell_length_c     35.671314
_cell_angle_alpha  90.004402
_cell_angle_beta   90.038947
_cell_angle_gamma 89.999982
loop_
_atom_site_label
_atom_site_type_symbol
_atom_site_fract_x
_atom_site_fract_y
_atom_site_fract_z
_atom_type_partial_charge
Fe0 Fe 0.57028 0.15533 0.44163 0.0
Fe1 Fe 0.50713 0.22326 0.49189 0.0
O2 O 0.54903 0.21501 0.45453 0.0
Fe3 Fe 0.57083 0.26794 0.4295 0.0
O4 O 0.63022 0.25761 0.44829 0.0
O5 O 0.63466 0.17807 0.43363 0.0
O6 O 0.5915 0.14039 0.48778 0.0
C7 C 0.57052 0.14597 0.51883 0.0
C8 C 0.57629 0.19127 0.37294 0.0
O9 O 0.53191 0.17267 0.52193 0.0
C10 C 0.47445 0.29091 0.43439 0.0
O11 O 0.5098 0.12459 0.4484 0.0
O12 O 0.46165 0.18408 0.4702 0.0
O13 O 0.58892 0.23374 0.38527 0.0
O14 O 0.55048 0.16489 0.394 0.0
C15 C 0.56437 0.30493 0.50334 0.0
O16 O 0.47569 0.27516 0.46811 0.0
O17 O 0.50935 0.28139 0.41154 0.0
C18 C 0.46703 0.14277 0.45432 0.0
O19 O 0.54963 0.26401 0.51621 0.0
O20 O 0.56263 0.31304 0.46837 0.0
C21 C 0.65435 0.21811 0.44562 0.0
Fe22 Fe 0.28227 0.51066 0.48741 0.0
Fe23 Fe 0.23524 0.57139 0.42418 0.0
O24 O 0.28907 0.55104 0.4489 0.0
Fe25 Fe 0.34843 0.57156 0.43459 0.0
O26 O 0.36392 0.59554 0.47992 0.0
O27 O 0.33448 0.53602 0.51545 0.0
O28 O 0.24327 0.55468 0.5116 0.0
C29 C 0.20184 0.5693 0.49957 0.0
C30 C 0.36128 0.46878 0.44971 0.0
O31 O 0.19193 0.56618 0.46479 0.0
C32 C 0.31056 0.57354 0.36633 0.0
O33 O 0.2289 0.47865 0.46622 0.0
O34 O 0.22094 0.50891 0.40883 0.0
O35 O 0.37945 0.51142 0.4431 0.0
O36 O 0.31999 0.46399 0.46569 0.0
C37 C 0.28524 0.65599 0.43425 0.0
O38 O 0.26805 0.58612 0.37866 0.0
O39 O 0.33774 0.54907 0.38779 0.0
C40 C 0.21194 0.47552 0.43296 0.0
O41 O 0.24615 0.63218 0.43977 0.0
O42 O 0.32584 0.63545 0.42454 0.0
C43 C 0.35972 0.57542 0.51144 0.0
Fe44 Fe 0.93258 0.23554 0.42477 0.0
Fe45 Fe 0.93175 0.34879 0.4346 0.0
O46 O 0.95223 0.28967 0.44946 0.0
Fe47 Fe 0.992 0.28336 0.48838 0.0
O48 O 0.94776 0.2443 0.5123 0.0
O49 O 0.93746 0.19253 0.46561 0.0
O50 O 0.87152 0.24619 0.43971 0.0
C51 C 0.84763 0.28518 0.43388 0.0
C52 C 0.02843 0.21308 0.43452 0.0
O53 O 0.8681 0.32583 0.42415 0.0
C54 C 0.03415 0.36222 0.4507 0.0
O55 O 0.9183 0.26791 0.379 0.0
O56 O 0.95513 0.33765 0.38815 0.0
O57 O 0.02457 0.23003 0.46773 0.0
O58 O 0.99536 0.22163 0.41005 0.0
C59 C 0.92673 0.36093 0.51128 0.0
O60 O 0.99159 0.38012 0.44347 0.0
O61 O 0.03885 0.32111 0.46698 0.0
C62 C 0.93099 0.31034 0.3666 0.0
O63 O 0.90703 0.36471 0.47957 0.0
O64 O 0.96602 0.3357 0.51585 0.0
C65 C 0.93365 0.20267 0.5003 0.0
Fe66 Fe 0.22309 0.99631 0.49221 0.0
Fe67 Fe 0.26807 0.93361 0.42934 0.0
O68 O 0.21503 0.95486 0.45452 0.0
Fe69 Fe 0.1555 0.93358 0.44134 0.0
O70 O 0.14043 0.91184 0.48727 0.0
O71 O 0.17262 0.97098 0.52198 0.0
O72 O 0.26404 0.95365 0.51619 0.0
C73 C 0.30501 0.93928 0.50319 0.0
C74 C 0.14239 0.03661 0.45505 0.0
O75 O 0.31311 0.94162 0.46825 0.0
C76 C 0.1916 0.92845 0.37271 0.0
O77 O 0.27473 0.02824 0.46868 0.0
O78 O 0.28106 0.99537 0.41182 0.0
O79 O 0.12454 0.99387 0.44845 0.0
O80 O 0.18369 0.04192 0.47096 0.0
C81 C 0.21864 0.84972 0.44495 0.0
O82 O 0.23404 0.91578 0.385 0.0
O83 O 0.16521 0.95403 0.39391 0.0
C84 C 0.29028 0.03007 0.43493 0.0
O85 O 0.25808 0.87394 0.44768 0.0
O86 O 0.17852 0.86935 0.43301 0.0
C87 C 0.14584 0.93251 0.51847 0.0
Fe88 Fe 0.01306 0.78339 0.14458 0.0
Fe89 Fe 0.0725 0.73555 0.20815 0.0
O90 O 0.05284 0.78968 0.18349 0.0
Fe91 Fe 0.07331 0.8488 0.19838 0.0
O92 O 0.09802 0.86474 0.15341 0.0
O93 O 0.03902 0.83576 0.11712 0.0
O94 O 0.0573 0.74436 0.12064 0.0
C95 C 0.07142 0.70272 0.13261 0.0
C96 C 0.97091 0.86224 0.18229 0.0
O97 O 0.06762 0.69256 0.1673 0.0
C98 C 0.07409 0.8103 0.26635 0.0
O99 O 0.9805 0.73005 0.16521 0.0
O100 O 0.00974 0.72162 0.22288 0.0
O101 O 0.01347 0.88013 0.18953 0.0
O102 O 0.96621 0.82113 0.166 0.0
C103 C 0.15744 0.7852 0.19905 0.0
O104 O 0.08679 0.76789 0.25394 0.0
O105 O 0.04994 0.83761 0.24482 0.0
C106 C 0.97665 0.71307 0.19841 0.0
O107 O 0.13356 0.74621 0.1932 0.0
O108 O 0.13696 0.82583 0.20881 0.0
C109 C 0.07831 0.86099 0.1217 0.0
Fe110 Fe 0.72273 0.01067 0.14554 0.0
Fe111 Fe 0.7698 0.07147 0.20871 0.0
O112 O 0.71596 0.05107 0.18404 0.0
Fe113 Fe 0.65661 0.07157 0.19838 0.0
O114 O 0.64106 0.09553 0.15306 0.0
O115 O 0.67048 0.03599 0.11753 0.0
O116 O 0.76168 0.05469 0.12131 0.0
C117 C 0.80311 0.06935 0.13331 0.0
C118 C 0.64378 0.96878 0.1833 0.0
O119 O 0.81307 0.06625 0.16807 0.0
C120 C 0.69455 0.0736 0.26661 0.0
O121 O 0.77614 0.9787 0.1667 0.0
O122 O 0.78416 0.00901 0.22408 0.0
O123 O 0.6256 0.01142 0.1899 0.0
O124 O 0.68506 0.96399 0.1673 0.0
C125 C 0.71974 0.15604 0.19866 0.0
O126 O 0.73703 0.08622 0.25425 0.0
O127 O 0.66736 0.0491 0.24518 0.0
C128 C 0.79314 0.97561 0.19996 0.0
O129 O 0.75884 0.13224 0.19311 0.0
O130 O 0.67918 0.13548 0.20842 0.0
C131 C 0.64523 0.07539 0.12154 0.0
Fe132 Fe 0.4348 0.65535 0.19131 0.0
Fe133 Fe 0.49797 0.72331 0.14109 0.0
O134 O 0.45606 0.71504 0.17844 0.0
Fe135 Fe 0.43426 0.76795 0.2035 0.0
O136 O 0.37487 0.75763 0.1847 0.0
O137 O 0.37042 0.67808 0.19931 0.0
O138 O 0.4136 0.64044 0.14515 0.0
C139 C 0.43459 0.64603 0.1141 0.0
C140 C 0.42879 0.69125 0.26003 0.0
O141 O 0.47319 0.67273 0.11102 0.0
C142 C 0.53064 0.79092 0.19863 0.0
O143 O 0.49529 0.62461 0.18454 0.0
O144 O 0.54344 0.68412 0.16277 0.0
O145 O 0.41616 0.73372 0.24771 0.0
O146 O 0.45458 0.66488 0.23895 0.0
C147 C 0.44071 0.80498 0.12967 0.0
O148 O 0.52939 0.7752 0.16489 0.0
O149 O 0.49573 0.78139 0.22147 0.0
C150 C 0.53806 0.6428 0.17864 0.0
O151 O 0.45547 0.76407 0.11679 0.0
O152 O 0.44246 0.81307 0.16465 0.0
C153 C 0.35073 0.71814 0.18735 0.0
Fe154 Fe 0.84956 0.43359 0.19156 0.0
Fe155 Fe 0.78193 0.49634 0.14074 0.0
O156 O 0.79001 0.45489 0.17843 0.0
Fe157 Fe 0.737 0.43367 0.20365 0.0
O158 O 0.74694 0.37399 0.1853 0.0
O159 O 0.82652 0.36936 0.1999 0.0
O160 O 0.86456 0.41184 0.14562 0.0
C161 C 0.85913 0.43253 0.11443 0.0
C162 C 0.81354 0.42848 0.26022 0.0
O163 O 0.83236 0.47101 0.11094 0.0
C164 C 0.71481 0.53014 0.19806 0.0
O165 O 0.88053 0.49387 0.18444 0.0
O166 O 0.82137 0.54194 0.16197 0.0
O167 O 0.77107 0.41584 0.24796 0.0
O168 O 0.83993 0.45403 0.23901 0.0
C169 C 0.69998 0.43934 0.12981 0.0
O170 O 0.73032 0.52829 0.16431 0.0
O171 O 0.72405 0.49544 0.22117 0.0
C172 C 0.86268 0.53661 0.17786 0.0
O173 O 0.74094 0.4537 0.11679 0.0
O174 O 0.69192 0.44169 0.16476 0.0
C175 C 0.78637 0.34976 0.18799 0.0
Fe176 Fe 0.43273 0.84881 0.69487 0.0
Fe177 Fe 0.49477 0.78182 0.64317 0.0
O178 O 0.45275 0.78934 0.68048 0.0
Fe179 Fe 0.42941 0.7358 0.70396 0.0
O180 O 0.37058 0.74833 0.68486 0.0
O181 O 0.36778 0.8271 0.70191 0.0
O182 O 0.41223 0.86635 0.64913 0.0
C183 C 0.43306 0.86131 0.61797 0.0
C184 C 0.42514 0.8099 0.76245 0.0
O185 O 0.47105 0.83391 0.61425 0.0
C186 C 0.5256 0.71175 0.69949 0.0
O187 O 0.49384 0.87865 0.68908 0.0
O188 O 0.5409 0.81935 0.66572 0.0
O189 O 0.41133 0.76847 0.74889 0.0
O190 O 0.452 0.83639 0.74223 0.0
C191 C 0.43623 0.70171 0.62928 0.0
O192 O 0.52503 0.72855 0.66603 0.0
O193 O 0.49028 0.72043 0.72214 0.0
C194 C 0.53628 0.8603 0.68224 0.0
O195 O 0.45169 0.743 0.61771 0.0
O196 O 0.43739 0.69206 0.66406 0.0
C197 C 0.34735 0.78827 0.68843 0.0
Fe198 Fe 0.65551 0.43318 0.6949 0.0
Fe199 Fe 0.72016 0.49699 0.64288 0.0
O200 O 0.71428 0.4548 0.68027 0.0
Fe201 Fe 0.76863 0.43305 0.70351 0.0
O202 O 0.75743 0.37366 0.68501 0.0
O203 O 0.67897 0.36893 0.7024 0.0
O204 O 0.63855 0.41173 0.64928 0.0
C205 C 0.64214 0.43315 0.61823 0.0
C206 C 0.69517 0.42759 0.76242 0.0
O207 O 0.66788 0.47231 0.61458 0.0
C208 C 0.79117 0.52946 0.69802 0.0
O209 O 0.6239 0.49339 0.68878 0.0
O210 O 0.68219 0.54221 0.66607 0.0
O211 O 0.73691 0.41487 0.7488 0.0
O212 O 0.66758 0.45328 0.74212 0.0
C213 C 0.80098 0.43969 0.62843 0.0
O214 O 0.7734 0.52834 0.66488 0.0
O215 O 0.78296 0.49449 0.72111 0.0
C216 C 0.64138 0.53639 0.68256 0.0
O217 O 0.75935 0.45465 0.61707 0.0
O218 O 0.81132 0.44144 0.6631 0.0
C219 C 0.71828 0.34934 0.68904 0.0
Fe220 Fe 0.07124 0.65533 0.69456 0.0
Fe221 Fe 0.01024 0.72276 0.64262 0.0
O222 O 0.04998 0.71495 0.68148 0.0
Fe223 Fe 0.06869 0.76801 0.70789 0.0
O224 O 0.13004 0.75901 0.69303 0.0
O225 O 0.1346 0.67852 0.70565 0.0
O226 O 0.09607 0.64198 0.64909 0.0
C227 C 0.07619 0.64683 0.61751 0.0
C228 C 0.0714 0.6902 0.76376 0.0
O229 O 0.03674 0.67201 0.61365 0.0
C230 C 0.97279 0.79034 0.69812 0.0
O231 O 0.01169 0.62389 0.6849 0.0
O232 O 0.96381 0.6835 0.66299 0.0
O233 O 0.08306 0.73357 0.75275 0.0
O234 O 0.04789 0.66356 0.74136 0.0
C235 C 0.06786 0.80457 0.63344 0.0
O236 O 0.97703 0.77474 0.66457 0.0
O237 O 0.00555 0.78056 0.7226 0.0
C238 C 0.96893 0.6419 0.67849 0.0
O239 O 0.05409 0.76358 0.61996 0.0
O240 O 0.06369 0.81284 0.66836 0.0
C241 C 0.15446 0.72003 0.69738 0.0
Fe242 Fe 0.78023 0.01099 0.64334 0.0
Fe243 Fe 0.73588 0.06972 0.70874 0.0
O244 O 0.78864 0.05055 0.68222 0.0
Fe245 Fe 0.84848 0.07119 0.6953 0.0
O246 O 0.86205 0.09588 0.64983 0.0
O247 O 0.83078 0.03743 0.61415 0.0
O248 O 0.73943 0.05512 0.62088 0.0
C249 C 0.69855 0.06892 0.63443 0.0
C250 C 0.86107 0.9688 0.67884 0.0
O251 O 0.69059 0.06483 0.6694 0.0
C252 C 0.81379 0.07182 0.76452 0.0
O253 O 0.72838 0.97794 0.66567 0.0
O254 O 0.72324 0.00674 0.72367 0.0
O255 O 0.87934 0.01133 0.68569 0.0
O256 O 0.81944 0.96419 0.66331 0.0
C257 C 0.78446 0.15506 0.69832 0.0
O258 O 0.7706 0.08401 0.75346 0.0
O259 O 0.84014 0.04797 0.74216 0.0
C260 C 0.71342 0.97376 0.6994 0.0
O261 O 0.74528 0.13097 0.69372 0.0
O262 O 0.82587 0.13477 0.70633 0.0
C263 C 0.85658 0.07646 0.61816 0.0
Fe264 Fe 0.93383 0.15541 0.93828 0.0
Fe265 Fe 0.99475 0.22282 0.99028 0.0
O266 O 0.95508 0.21503 0.95138 0.0
Fe267 Fe 0.93644 0.26809 0.92495 0.0
O268 O 0.87505 0.25912 0.93973 0.0
O269 O 0.87049 0.17861 0.92714 0.0
O270 O 0.90892 0.14208 0.98373 0.0
C271 C 0.92874 0.14692 1.01533 0.0
C272 C 0.93378 0.19027 0.86908 0.0
O273 O 0.9682 0.17208 1.01922 0.0
C274 C 0.03232 0.29039 0.93483 0.0
O275 O 0.99336 0.12396 0.94799 0.0
O276 O 0.04121 0.18356 0.96995 0.0
O277 O 0.92214 0.23366 0.88008 0.0
O278 O 0.95724 0.16362 0.8915 0.0
C279 C 0.93714 0.30464 0.99942 0.0
O280 O 0.02801 0.2748 0.96837 0.0
O281 O 0.99961 0.28061 0.91031 0.0
C282 C 0.0361 0.14197 0.95444 0.0
O283 O 0.95087 0.26365 1.0129 0.0
O284 O 0.94137 0.31292 0.9645 0.0
C285 C 0.85063 0.22015 0.93534 0.0
Fe286 Fe 0.23643 0.93312 0.92953 0.0
Fe287 Fe 0.34955 0.93323 0.93815 0.0
O288 O 0.29078 0.95487 0.95277 0.0
Fe289 Fe 0.28489 0.99707 0.99016 0.0
O290 O 0.24569 0.95473 1.01597 0.0
O291 O 0.19373 0.94153 0.96993 0.0
O292 O 0.24762 0.87374 0.94804 0.0
C293 C 0.28676 0.84941 0.944 0.0
C294 C 0.21391 0.02953 0.93501 0.0
O295 O 0.32608 0.86899 0.93066 0.0
C296 C 0.36368 0.03644 0.95048 0.0
O297 O 0.26816 0.91492 0.88425 0.0
O298 O 0.33749 0.95332 0.89093 0.0
O299 O 0.23166 0.02842 0.96816 0.0
O300 O 0.22212 0.99457 0.91193 0.0
C301 C 0.36291 0.93323 1.01483 0.0
O302 O 0.38116 0.99344 0.94428 0.0
O303 O 0.32287 0.04227 0.96698 0.0
C304 C 0.30991 0.92764 0.87063 0.0
O305 O 0.3665 0.9118 0.98378 0.0
O306 O 0.33716 0.97238 1.01847 0.0
C307 C 0.20406 0.93978 1.0046 0.0
Fe308 Fe 0.51022 0.28182 0.98985 0.0
Fe309 Fe 0.57559 0.23579 0.92908 0.0
O310 O 0.55227 0.28933 0.95256 0.0
Fe311 Fe 0.57233 0.34879 0.93819 0.0
O312 O 0.5928 0.36631 0.98394 0.0
O313 O 0.53394 0.3339 1.01879 0.0
O314 O 0.55326 0.24297 1.01532 0.0
C315 C 0.5687 0.20168 1.00375 0.0
C316 C 0.46878 0.36031 0.95077 0.0
O317 O 0.56755 0.19203 0.96896 0.0
C318 C 0.57994 0.30988 0.8706 0.0
O319 O 0.47995 0.22857 0.96697 0.0
O320 O 0.51473 0.22047 0.91086 0.0
O321 O 0.51123 0.37866 0.94396 0.0
O322 O 0.46412 0.31938 0.96729 0.0
C323 C 0.65767 0.28819 0.94464 0.0
O324 O 0.59373 0.26845 0.88416 0.0
O325 O 0.55308 0.33638 0.89082 0.0
C326 C 0.47939 0.2118 0.9335 0.0
O327 O 0.63441 0.24828 0.94822 0.0
O328 O 0.63727 0.32705 0.93117 0.0
C329 C 0.57194 0.36129 1.01508 0.0
Fe330 Fe 0.26927 0.56976 0.92416 0.0
Fe331 Fe 0.15666 0.57123 0.93759 0.0
O332 O 0.2165 0.5506 0.95067 0.0
Fe333 Fe 0.2249 0.51107 0.98957 0.0
O334 O 0.2657 0.55521 1.01202 0.0
O335 O 0.31455 0.56488 0.96351 0.0
O336 O 0.25986 0.63101 0.93917 0.0
C337 C 0.2207 0.6551 0.93456 0.0
C338 C 0.2917 0.4738 0.93352 0.0
O339 O 0.17928 0.63482 0.92655 0.0
C340 C 0.14407 0.46886 0.95407 0.0
O341 O 0.23456 0.58403 0.87944 0.0
O342 O 0.16501 0.548 0.89072 0.0
O343 O 0.27675 0.478 0.96725 0.0
O344 O 0.2819 0.50677 0.90924 0.0
C345 C 0.14854 0.57655 1.01473 0.0
O346 O 0.1258 0.51138 0.94719 0.0
O347 O 0.18569 0.46425 0.96961 0.0
C348 C 0.19139 0.57183 0.86837 0.0
O349 O 0.14308 0.59594 0.98305 0.0
O350 O 0.17435 0.53752 1.01875 0.0
C351 C 0.30659 0.56899 0.99848 0.0
C352 C 0.65216 0.18178 0.32991 0.0
C353 C 0.60613 0.16425 0.34341 0.0
H354 H 0.71751 0.16659 0.2969 0.0
C355 C 0.59184 0.11587 0.33283 0.0
H356 H 0.66498 0.21848 0.33761 0.0
C357 C 0.62206 0.08612 0.31001 0.0
C358 C 0.66818 0.10314 0.2966 0.0
H359 H 0.55709 0.1004 0.34264 0.0
H360 H 0.60869 0.04959 0.3023 0.0
C361 C 0.68286 0.15156 0.30706 0.0
C362 C 0.3529 0.68172 0.30303 0.0
C363 C 0.39896 0.66423 0.28955 0.0
H364 H 0.28755 0.66649 0.33602 0.0
C365 C 0.41329 0.61586 0.30015 0.0
H366 H 0.34006 0.7184 0.29532 0.0
C367 C 0.38308 0.5861 0.32297 0.0
C368 C 0.33694 0.60308 0.33636 0.0
H369 H 0.44806 0.60042 0.29036 0.0
H370 H 0.39648 0.54959 0.33069 0.0
C371 C 0.32222 0.65148 0.32588 0.0
C372 C 0.91865 0.3827 0.3231 0.0
C373 C 0.90158 0.33661 0.33653 0.0
H374 H 0.90437 0.44771 0.29048 0.0
C375 C 0.85317 0.32191 0.32608 0.0
H376 H 0.95517 0.39606 0.33082 0.0
C377 C 0.82297 0.35262 0.30321 0.0
C378 C 0.84053 0.39866 0.28974 0.0
H379 H 0.83812 0.28728 0.33628 0.0
H380 H 0.78628 0.33981 0.2955 0.0
C381 C 0.8889 0.41295 0.3003 0.0
C382 C 0.11623 0.91293 0.33264 0.0
C383 C 0.16461 0.89863 0.34319 0.0
H384 H 0.04994 0.89603 0.30213 0.0
C385 C 0.18214 0.85258 0.32972 0.0
H386 H 0.10077 0.94769 0.34246 0.0
C387 C 0.15194 0.82187 0.30686 0.0
C388 C 0.10353 0.83658 0.29641 0.0
H389 H 0.21883 0.83977 0.33743 0.0
H390 H 0.16697 0.78723 0.29666 0.0
C391 C 0.08647 0.88268 0.30985 0.0
C392 C 0.38216 0.91393 0.82732 0.0
C393 C 0.33542 0.89797 0.84028 0.0
H394 H 0.44689 0.89873 0.79477 0.0
C395 C 0.31906 0.85058 0.82863 0.0
H396 H 0.39673 0.94973 0.83571 0.0
C397 C 0.34903 0.82013 0.80533 0.0
C398 C 0.39578 0.8366 0.79242 0.0
H399 H 0.28367 0.83649 0.83824 0.0
H400 H 0.33515 0.78412 0.79688 0.0
C401 C 0.41156 0.88404 0.80408 0.0
C402 C 0.65609 0.32013 0.82777 0.0
C403 C 0.6093 0.33656 0.84063 0.0
H404 H 0.72147 0.33652 0.7949 0.0
C405 C 0.59347 0.38396 0.82891 0.0
H406 H 0.67002 0.28417 0.83627 0.0
C407 C 0.62287 0.41385 0.80568 0.0
C408 C 0.66964 0.39793 0.79276 0.0
H409 H 0.55811 0.39862 0.83819 0.0
H410 H 0.60826 0.44962 0.79725 0.0
C411 C 0.68605 0.35058 0.80447 0.0
C412 C 0.14808 0.68 0.80564 0.0
C413 C 0.10127 0.66314 0.7932 0.0
H414 H 0.2143 0.66418 0.83749 0.0
C415 C 0.0866 0.61507 0.80422 0.0
H416 H 0.16123 0.71634 0.79751 0.0
C417 C 0.11718 0.58503 0.82661 0.0
C418 C 0.16407 0.60146 0.83896 0.0
H419 H 0.05132 0.60011 0.79501 0.0
H420 H 0.1036 0.54875 0.83475 0.0
C421 C 0.1791 0.64955 0.82803 0.0
C422 C 0.82596 0.14945 0.805 0.0
C423 C 0.84115 0.10147 0.7939 0.0
H424 H 0.84366 0.21616 0.83568 0.0
C425 C 0.88816 0.08519 0.80609 0.0
H426 H 0.79062 0.16395 0.7957 0.0
C427 C 0.91873 0.11527 0.82846 0.0
C428 C 0.90391 0.16323 0.83963 0.0
H429 H 0.90186 0.049 0.79783 0.0
H430 H 0.95412 0.10043 0.83754 0.0
C431 C 0.85695 0.17993 0.82738 0.0
C432 C 0.37468 0.13727 0.45025 0.0
C433 C 0.42139 0.11561 0.44333 0.0
H434 H 0.29598 0.12722 0.45161 0.0
C435 C 0.42322 0.06865 0.42618 0.0
H436 H 0.37156 0.17381 0.46269 0.0
C437 C 0.37927 0.04248 0.41887 0.0
C438 C 0.33303 0.06287 0.42874 0.0
H439 H 0.4585 0.05129 0.41991 0.0
H440 H 0.38172 0.00479 0.40845 0.0
C441 C 0.33113 0.11108 0.44326 0.0
C442 C 0.36723 0.37625 0.44819 0.0
C443 C 0.38866 0.4227 0.43995 0.0
H444 H 0.37749 0.29765 0.45161 0.0
C445 C 0.43567 0.42386 0.42288 0.0
H446 H 0.3307 0.37357 0.46067 0.0
C447 C 0.462 0.37964 0.41677 0.0
C448 C 0.44175 0.33377 0.42779 0.0
H449 H 0.45291 0.45889 0.41568 0.0
H450 H 0.49964 0.38172 0.40623 0.0
C451 C 0.39358 0.33245 0.44241 0.0
C452 C 0.12655 0.36931 0.45114 0.0
C453 C 0.08022 0.3896 0.44111 0.0
H454 H 0.20495 0.3804 0.45524 0.0
C455 C 0.07915 0.4353 0.42208 0.0
H456 H 0.12915 0.33379 0.46523 0.0
C457 C 0.12331 0.46149 0.4155 0.0
C458 C 0.16901 0.44243 0.42804 0.0
H459 H 0.04422 0.45159 0.41346 0.0
H460 H 0.12128 0.49817 0.40315 0.0
C461 C 0.17028 0.39555 0.44491 0.0
C462 C 0.06935 0.08049 0.42551 0.0
C463 C 0.1149 0.08228 0.44473 0.0
H464 H 0.00644 0.12182 0.40573 0.0
C465 C 0.13497 0.12894 0.45411 0.0
H466 H 0.05327 0.04527 0.41736 0.0
C467 C 0.1086 0.17237 0.4471 0.0
C468 C 0.06184 0.17041 0.43009 0.0
H469 H 0.17038 0.13206 0.46831 0.0
H470 H 0.1235 0.20738 0.45699 0.0
C471 C 0.04305 0.12434 0.41815 0.0
C472 C 0.92591 0.93533 0.2109 0.0
C473 C 0.92484 0.88964 0.19186 0.0
H474 H 0.8838 0.99822 0.22981 0.0
C475 C 0.87851 0.86937 0.18178 0.0
H476 H 0.96084 0.9516 0.21954 0.0
C477 C 0.83479 0.89563 0.18799 0.0
C478 C 0.83607 0.94251 0.20487 0.0
H479 H 0.87591 0.83386 0.16768 0.0
H480 H 0.80012 0.8805 0.17764 0.0
C481 C 0.88176 0.96154 0.21746 0.0
C482 C 0.6115 0.83245 0.19063 0.0
C483 C 0.56333 0.83378 0.20525 0.0
H484 H 0.67438 0.87357 0.17236 0.0
C485 C 0.54308 0.87965 0.21627 0.0
H486 H 0.62759 0.79765 0.18143 0.0
C487 C 0.56941 0.92387 0.21015 0.0
C488 C 0.61642 0.92271 0.19308 0.0
H489 H 0.50544 0.88173 0.2268 0.0
H490 H 0.55216 0.9589 0.21735 0.0
C491 C 0.63785 0.87625 0.18485 0.0
C492 C 0.6304 0.63732 0.18276 0.0
C493 C 0.58369 0.61565 0.18965 0.0
H494 H 0.70911 0.6273 0.18143 0.0
C495 C 0.58186 0.56869 0.20677 0.0
H496 H 0.63353 0.67387 0.17034 0.0
C497 C 0.62581 0.54252 0.21411 0.0
C498 C 0.67206 0.56294 0.20427 0.0
H499 H 0.54658 0.55131 0.21302 0.0
H500 H 0.62336 0.50483 0.2245 0.0
C501 C 0.67396 0.61114 0.18976 0.0
C502 C 0.89648 0.67237 0.18584 0.0
C503 C 0.94325 0.6704 0.20283 0.0
H504 H 0.83469 0.63207 0.16463 0.0
C505 C 0.96206 0.62432 0.21475 0.0
H506 H 0.88158 0.70739 0.17597 0.0
C507 C 0.93574 0.58048 0.20738 0.0
C508 C 0.89019 0.58228 0.18818 0.0
H509 H 0.99867 0.6218 0.22716 0.0
H510 H 0.95183 0.54525 0.21551 0.0
C511 C 0.87011 0.62895 0.17882 0.0
C512 C 0.67241 0.89328 0.68839 0.0
C513 C 0.67107 0.94026 0.70509 0.0
H514 H 0.63129 0.83139 0.66825 0.0
C515 C 0.62546 0.95919 0.71783 0.0
H516 H 0.70705 0.87829 0.67789 0.0
C517 C 0.58134 0.9329 0.7114 0.0
C518 C 0.5824 0.88722 0.69237 0.0
H519 H 0.6234 0.99595 0.73004 0.0
H520 H 0.54642 0.94922 0.71998 0.0
C521 C 0.62872 0.86689 0.68236 0.0
C522 C 0.56618 0.57933 0.70973 0.0
C523 C 0.6135 0.58171 0.69323 0.0
H524 H 0.50117 0.61999 0.72611 0.0
C525 C 0.63446 0.62867 0.68608 0.0
H526 H 0.54928 0.54385 0.71609 0.0
C527 C 0.60729 0.67186 0.69213 0.0
C528 C 0.55878 0.66933 0.70597 0.0
H529 H 0.67123 0.63223 0.67412 0.0
H530 H 0.62303 0.70716 0.68369 0.0
C531 C 0.53902 0.62293 0.71613 0.0
C532 C 0.92469 0.56778 0.7063 0.0
C533 C 0.92313 0.61442 0.68864 0.0
H534 H 0.88291 0.5044 0.72465 0.0
C535 C 0.87652 0.63579 0.68085 0.0
H536 H 0.95987 0.55066 0.71325 0.0
C537 C 0.83285 0.60978 0.68784 0.0
C538 C 0.83448 0.56199 0.70317 0.0
H539 H 0.87356 0.67207 0.66797 0.0
H540 H 0.79782 0.62585 0.67911 0.0
C541 C 0.88061 0.54177 0.71358 0.0
C542 C 0.93386 0.92353 0.70776 0.0
C543 C 0.88823 0.92262 0.6886 0.0
H544 H 0.99617 0.88107 0.72735 0.0
C545 C 0.86748 0.8763 0.67906 0.0
H546 H 0.95048 0.95845 0.71605 0.0
C547 C 0.89315 0.83238 0.68596 0.0
C548 C 0.93993 0.83344 0.703 0.0
H549 H 0.832 0.87381 0.66489 0.0
H550 H 0.87771 0.79768 0.67592 0.0
C551 C 0.95948 0.87919 0.71499 0.0
C552 C 0.08039 0.06785 0.92665 0.0
C553 C 0.08192 0.11448 0.94432 0.0
H554 H 0.1222 0.00448 0.90831 0.0
C555 C 0.12852 0.13585 0.95216 0.0
H556 H 0.04522 0.05073 0.91967 0.0
C557 C 0.1722 0.10985 0.94521 0.0
C558 C 0.1706 0.06206 0.92985 0.0
H559 H 0.13146 0.17212 0.96506 0.0
H560 H 0.20722 0.12591 0.95397 0.0
C561 C 0.12447 0.04184 0.9194 0.0
C562 C 0.37053 0.12872 0.94686 0.0
C563 C 0.39153 0.08176 0.93977 0.0
H564 H 0.38192 0.20721 0.94919 0.0
C565 C 0.43887 0.07937 0.92332 0.0
H566 H 0.33375 0.13228 0.95879 0.0
C567 C 0.46602 0.12297 0.91689 0.0
C568 C 0.44622 0.16938 0.927 0.0
H569 H 0.4558 0.04388 0.917 0.0
H570 H 0.50389 0.12003 0.90695 0.0
C571 C 0.39769 0.17191 0.94079 0.0
C572 C 0.37634 0.3669 0.95056 0.0
C573 C 0.42268 0.38724 0.94061 0.0
H574 H 0.29801 0.37829 0.95495 0.0
C575 C 0.42378 0.43294 0.92161 0.0
H576 H 0.37374 0.33138 0.96463 0.0
C577 C 0.37967 0.45923 0.91515 0.0
C578 C 0.33403 0.44029 0.92784 0.0
H579 H 0.45871 0.44926 0.91308 0.0
H580 H 0.38176 0.496 0.90297 0.0
C581 C 0.33266 0.39329 0.94449 0.0
C582 C 0.07134 0.42355 0.92511 0.0
C583 C 0.1169 0.42267 0.94434 0.0
H584 H 0.00907 0.38107 0.90547 0.0
C585 C 0.13761 0.37636 0.95398 0.0
H586 H 0.05476 0.45845 0.91674 0.0
C587 C 0.11194 0.33244 0.9471 0.0
C588 C 0.06521 0.33347 0.92997 0.0
H589 H 0.17304 0.37389 0.96821 0.0
H590 H 0.12733 0.29776 0.95721 0.0
C591 C 0.04571 0.37921 0.9179 0.0
C592 C 0.7258 0.25911 0.47289 0.0
C593 C 0.70707 0.22657 0.4455 0.0
H594 H 0.7847 0.30807 0.48858 0.0
C595 C 0.73324 0.21855 0.41234 0.0
H596 H 0.70509 0.2665 0.49835 0.0
C597 C 0.77701 0.24429 0.40603 0.0
C598 C 0.79509 0.27767 0.43305 0.0
H599 H 0.71887 0.19423 0.39079 0.0
H600 H 0.79834 0.2359 0.38111 0.0
C601 C 0.76953 0.28479 0.46658 0.0
C602 C 0.28487 0.73442 0.46665 0.0
C603 C 0.27778 0.70855 0.43323 0.0
H604 H 0.26679 0.79932 0.49799 0.0
C605 C 0.24465 0.72656 0.406 0.0
H606 H 0.30796 0.71936 0.4888 0.0
C607 C 0.21914 0.77055 0.41197 0.0
C608 C 0.22712 0.797 0.44502 0.0
H609 H 0.23626 0.70501 0.38117 0.0
H610 H 0.19504 0.78485 0.39025 0.0
C611 C 0.25944 0.77839 0.47262 0.0
C612 C 0.2793 0.75915 0.16007 0.0
C613 C 0.29801 0.72659 0.18745 0.0
H614 H 0.22041 0.80812 0.14438 0.0
C615 C 0.27182 0.71855 0.22059 0.0
H616 H 0.30002 0.76655 0.13462 0.0
C617 C 0.22805 0.74428 0.2269 0.0
C618 C 0.20998 0.77768 0.19989 0.0
H619 H 0.28618 0.69421 0.24214 0.0
H620 H 0.20671 0.73587 0.25181 0.0
C621 C 0.23557 0.78482 0.16638 0.0
C622 C 0.74551 0.27847 0.16034 0.0
C623 C 0.77787 0.29704 0.18792 0.0
H624 H 0.69695 0.21947 0.14415 0.0
C625 C 0.78587 0.27057 0.22095 0.0
H626 H 0.73814 0.29943 0.13498 0.0
C627 C 0.76036 0.22658 0.22691 0.0
C628 C 0.72719 0.2086 0.19969 0.0
H629 H 0.81001 0.28484 0.24266 0.0
H630 H 0.76878 0.20501 0.25173 0.0
C631 C 0.72007 0.23451 0.1663 0.0
C632 C 0.22506 0.75908 0.72673 0.0
C633 C 0.20691 0.72818 0.69813 0.0
H634 H 0.28309 0.8079 0.74429 0.0
C635 C 0.23196 0.7248 0.66402 0.0
H636 H 0.20407 0.76474 0.75225 0.0
C637 C 0.27545 0.75134 0.65883 0.0
C638 C 0.29447 0.78102 0.68789 0.0
H639 H 0.21664 0.70363 0.64089 0.0
H640 H 0.29594 0.7465 0.63292 0.0
C641 C 0.26855 0.78572 0.72153 0.0
C642 C 0.7438 0.22531 0.72698 0.0
C643 C 0.77681 0.20758 0.6996 0.0
H644 H 0.69441 0.28354 0.7432 0.0
C645 C 0.78408 0.23394 0.66645 0.0
H646 H 0.73543 0.20344 0.75166 0.0
C647 C 0.75895 0.27817 0.66091 0.0
C648 C 0.72682 0.29658 0.6887 0.0
H649 H 0.80708 0.21909 0.64417 0.0
H650 H 0.76637 0.29941 0.6357 0.0
C651 C 0.71856 0.26956 0.72142 0.0
C652 C 0.77311 0.22448 0.96867 0.0
C653 C 0.79818 0.22829 0.9346 0.0
H654 H 0.70909 0.24577 0.99988 0.0
C655 C 0.78001 0.25948 0.90618 0.0
H656 H 0.78844 0.20307 0.99167 0.0
C657 C 0.73649 0.28601 0.91154 0.0
C658 C 0.71055 0.28088 0.94513 0.0
H659 H 0.80103 0.26545 0.88071 0.0
H660 H 0.72195 0.30843 0.88892 0.0
C661 C 0.72959 0.25091 0.97401 0.0
C662 C 0.24593 0.77824 0.97201 0.0
C663 C 0.2782 0.79665 0.94432 0.0
H664 H 0.19774 0.71916 0.98861 0.0
C665 C 0.28667 0.76961 0.91163 0.0
H666 H 0.23836 0.7995 0.99719 0.0
C667 C 0.26149 0.72535 0.90601 0.0
C668 C 0.22833 0.70762 0.93329 0.0
H669 H 0.31096 0.78358 0.88993 0.0
H670 H 0.27002 0.70346 0.88136 0.0
C671 C 0.22085 0.734 0.9664 0.0
C672 C 0.59265 0.14068 0.5881 0.0
C673 C 0.59433 0.12104 0.55152 0.0
H674 H 0.62451 0.13933 0.64367 0.0
C675 C 0.62588 0.08045 0.54455 0.0
H676 H 0.56905 0.17214 0.59434 0.0
C677 C 0.6577 0.06253 0.57217 0.0
C678 C 0.65869 0.08402 0.60797 0.0
H679 H 0.62781 0.06382 0.51693 0.0
H680 H 0.68287 0.03263 0.56502 0.0
C681 C 0.62452 0.12208 0.61624 0.0
C682 C 0.38689 0.62568 0.60963 0.0
C683 C 0.42072 0.66397 0.60116 0.0
H684 H 0.34062 0.56702 0.58784 0.0
C685 C 0.43797 0.66837 0.5642 0.0
H686 H 0.37292 0.62137 0.6379 0.0
C687 C 0.42024 0.63728 0.53604 0.0
C688 C 0.38415 0.6009 0.54365 0.0
H689 H 0.46456 0.69683 0.55669 0.0
H690 H 0.43372 0.64315 0.50777 0.0
C691 C 0.36857 0.59445 0.58103 0.0
C692 C 0.90828 0.37185 0.58071 0.0
C693 C 0.90094 0.38585 0.54307 0.0
H694 H 0.88231 0.37804 0.63768 0.0
C695 C 0.86377 0.42094 0.53493 0.0
H696 H 0.93636 0.34474 0.58793 0.0
C697 C 0.83287 0.43927 0.56295 0.0
C698 C 0.83827 0.42363 0.60024 0.0
H699 H 0.8572 0.43322 0.50644 0.0
H700 H 0.80382 0.46507 0.55511 0.0
C701 C 0.87725 0.39078 0.60913 0.0
C702 C 0.06223 0.8449 0.57102 0.0
C703 C 0.0832 0.84421 0.60699 0.0
H704 H 0.06417 0.87462 0.51577 0.0
C705 C 0.12092 0.8786 0.61559 0.0
H706 H 0.03256 0.81954 0.56365 0.0
C707 C 0.13976 0.91045 0.58761 0.0
C708 C 0.12068 0.90849 0.55087 0.0
H709 H 0.13771 0.87883 0.64319 0.0
H710 H 0.17095 0.93429 0.59411 0.0
C711 C 0.08038 0.87672 0.54354 0.0
C712 C 0.12781 0.89085 1.02387 0.0
C713 C 0.16676 0.92372 1.03277 0.0
H714 H 0.06871 0.84478 1.04506 0.0
C715 C 0.17213 0.93938 0.07006 0.0
H716 H 0.12278 0.8781 0.99532 0.0
C717 C 0.14122 0.92105 0.09807 0.0
C718 C 0.10408 0.88593 0.08993 0.0
H719 H 0.20117 0.9652 0.07791 0.0
H720 H 0.14777 0.93333 0.12657 0.0
C721 C 0.09677 0.87191 1.05229 0.0
C722 C 0.63637 0.09441 1.05197 0.0
C723 C 0.62078 0.10085 0.08935 0.0
H724 H 0.63202 0.12136 0.9951 0.0
C725 C 0.58467 0.13721 0.09696 0.0
H726 H 0.66432 0.06699 1.04515 0.0
C727 C 0.56694 0.16831 0.06881 0.0
C728 C 0.5842 0.16393 1.03185 0.0
H729 H 0.57119 0.14307 0.12523 0.0
H730 H 0.54033 0.19676 0.07632 0.0
C731 C 0.61803 0.12564 1.02337 0.0
C732 C 0.38059 0.62217 1.01668 0.0
C733 C 0.34644 0.5841 1.02495 0.0
H734 H 0.43605 0.67224 1.0386 0.0
C735 C 0.34744 0.56258 1.06073 0.0
H736 H 0.3806 0.63944 0.98926 0.0
C737 C 0.37926 0.5805 0.08836 0.0
C738 C 0.41079 0.62111 0.08141 0.0
H739 H 0.32228 0.53267 0.06786 0.0
H740 H 0.37733 0.56385 0.11597 0.0
C741 C 0.41246 0.64077 1.04483 0.0
C742 C 0.92462 0.3768 0.08932 0.0
C743 C 0.88429 0.40854 0.08201 0.0
H744 H 0.97248 0.31968 0.06918 0.0
C745 C 0.86518 0.41048 1.04528 0.0
H746 H 0.94086 0.37472 0.11708 0.0
C747 C 0.88403 0.37864 1.01728 0.0
C748 C 0.92179 0.34429 1.02586 0.0
H749 H 0.83396 0.43428 1.03879 0.0
H750 H 0.86721 0.37885 0.98969 0.0
C751 C 0.94279 0.345 1.06183 0.0
C752 C 0.41122 0.86798 0.54895 0.0
C753 C 0.40923 0.8869 0.5857 0.0
H754 H 0.37949 0.87 0.49344 0.0
C755 C 0.37716 0.92693 0.59318 0.0
H756 H 0.4352 0.83693 0.54236 0.0
C757 C 0.34508 0.94493 0.56578 0.0
C758 C 0.34451 0.9241 0.52978 0.0
H759 H 0.37497 0.94294 0.621 0.0
H760 H 0.31947 0.97434 0.57321 0.0
C761 C 0.37918 0.8867 0.52106 0.0
C762 C 0.57734 0.37608 0.59377 0.0
C763 C 0.61654 0.40905 0.58608 0.0
H764 H 0.5306 0.31782 0.57391 0.0
C765 C 0.63471 0.41185 0.54915 0.0
H766 H 0.56194 0.37326 0.62174 0.0
C767 C 0.6161 0.37978 0.52125 0.0
C768 C 0.5795 0.3443 0.53009 0.0
H769 H 0.66513 0.43654 0.5424 0.0
H770 H 0.63223 0.38078 0.49346 0.0
C771 C 0.55939 0.34403 0.56633 0.0
C772 C 0.12613 0.61946 0.51911 0.0
C773 C 0.16404 0.58516 0.52754 0.0
H774 H 0.06805 0.66641 0.54101 0.0
C775 C 0.16829 0.56787 0.56452 0.0
H776 H 0.12194 0.63348 0.49083 0.0
C777 C 0.13758 0.586 0.59273 0.0
C778 C 0.10163 0.62255 0.58519 0.0
H779 H 0.19641 0.54088 0.57202 0.0
H780 H 0.14335 0.57235 0.62097 0.0
C781 C 0.09523 0.63819 0.54779 0.0
C782 C 0.86516 0.0957 0.54843 0.0
C783 C 0.88069 0.10215 0.58586 0.0
H784 H 0.8699 0.12244 0.49147 0.0
C785 C 0.91701 0.13834 0.59345 0.0
H786 H 0.83715 0.06834 0.54159 0.0
C787 C 0.93499 0.1692 0.56528 0.0
C788 C 0.91784 0.16484 0.52827 0.0
H789 H 0.93058 0.14419 0.62171 0.0
H790 H 0.96179 0.19749 0.57283 0.0
C791 C 0.8838 0.12673 0.51978 0.0
C792 C 0.90978 0.13815 0.08506 0.0
C793 C 0.90323 0.12267 1.04763 0.0
H794 H 0.88322 0.13329 0.14205 0.0
C795 C 0.86713 0.08628 1.04006 0.0
H796 H 0.93708 0.16623 0.09186 0.0
C797 C 0.83644 0.06813 0.06828 0.0
C798 C 0.84086 0.08525 0.1053 0.0
H799 H 0.86124 0.07275 1.0118 0.0
H800 H 0.80822 0.04126 1.06075 0.0
C801 C 0.87889 0.1194 0.11374 0.0
C802 C 0.42774 0.8762 1.03928 0.0
C803 C 0.38851 0.90913 1.04697 0.0
H804 H 0.47452 0.81796 1.05912 0.0
C805 C 0.37033 0.91189 0.0839 0.0
H806 H 0.44316 0.87341 1.01131 0.0
C807 C 0.38895 0.87981 0.11179 0.0
C808 C 0.42558 0.84437 0.10294 0.0
H809 H 0.33988 0.93655 0.09065 0.0
H810 H 0.3728 0.88078 0.13958 0.0
C811 C 0.4457 0.84414 0.06671 0.0
C812 C 0.65979 0.44503 0.06728 0.0
C813 C 0.66045 0.42415 0.10326 0.0
H814 H 0.62982 0.44305 1.01208 0.0
C815 C 0.62587 0.38667 0.11197 0.0
H816 H 0.68533 0.4745 1.05985 0.0
C817 C 0.59381 0.36794 0.0841 0.0
C818 C 0.59573 0.3869 1.04736 0.0
H819 H 0.62563 0.36993 0.13958 0.0
H820 H 0.56991 0.33683 0.09068 0.0
C821 C 0.6277 0.42701 1.03989 0.0
C822 C 0.12124 0.62676 0.11311 0.0
C823 C 0.08725 0.66492 0.10462 0.0
H824 H 0.16786 0.56834 0.09131 0.0
C825 C 0.07017 0.66934 0.06759 0.0
H826 H 0.13508 0.62243 0.14143 0.0
C827 C 0.08817 0.63849 1.03942 0.0
C828 C 0.12442 0.60225 1.04702 0.0
H829 H 0.04342 0.69766 1.06004 0.0
H830 H 0.07465 0.64439 1.01116 0.0
C831 C 0.13989 0.59574 0.08446 0.0
loop_
_geom_bond_atom_site_label_1
_geom_bond_atom_site_label_2
_geom_bond_distance
_geom_bond_site_symmetry_2
_ccdc_geom_bond_type
Fe0 O2 1.918 . S
Fe0 O5 1.997 . S
Fe0 O6 2.002 . S
Fe0 O11 1.976 . S
Fe0 O14 1.996 . S
Fe1 O2 1.918 . S
Fe1 O9 1.997 . S
Fe1 O12 1.996 . S
Fe1 O16 1.976 . S
Fe1 O19 2.002 . S
O2 Fe0 1.918 . S
O2 Fe1 1.918 . S
O2 Fe3 1.918 . S
Fe3 O2 1.918 . S
Fe3 O4 2.002 . S
Fe3 O13 1.976 . S
Fe3 O17 1.996 . S
Fe3 O20 1.997 . S
O4 Fe3 2.002 . S
O4 C21 1.295 . S
O5 Fe0 1.997 . S
O5 C21 1.235 . S
O6 Fe0 2.002 . S
O6 C7 1.295 . S
C7 O6 1.295 . S
C7 O9 1.235 . S
C8 O13 1.287 . S
C8 O14 1.255 . S
O9 Fe1 1.997 . S
O9 C7 1.235 . S
C10 O16 1.287 . S
C10 O17 1.255 . S
O11 Fe0 1.976 . S
O11 C18 1.287 . S
O12 Fe1 1.996 . S
O12 C18 1.255 . S
O13 Fe3 1.976 . S
O13 C8 1.287 . S
O14 Fe0 1.996 . S
O14 C8 1.255 . S
C15 O19 1.295 . S
C15 O20 1.235 . S
O16 Fe1 1.976 . S
O16 C10 1.287 . S
O17 Fe3 1.996 . S
O17 C10 1.255 . S
C18 O11 1.287 . S
C18 O12 1.255 . S
O19 Fe1 2.002 . S
O19 C15 1.295 . S
O20 Fe3 1.997 . S
O20 C15 1.235 . S
C21 O4 1.295 . S
C21 O5 1.235 . S
Fe22 O24 1.918 . S
Fe22 O27 1.997 . S
Fe22 O28 2.002 . S
Fe22 O33 1.976 . S
Fe22 O36 1.996 . S
Fe23 O24 1.918 . S
Fe23 O31 1.997 . S
Fe23 O34 1.996 . S
Fe23 O38 1.976 . S
Fe23 O41 2.002 . S
O24 Fe22 1.918 . S
O24 Fe23 1.918 . S
O24 Fe25 1.918 . S
Fe25 O24 1.918 . S
Fe25 O26 2.002 . S
Fe25 O35 1.976 . S
Fe25 O39 1.996 . S
Fe25 O42 1.997 . S
O26 Fe25 2.002 . S
O26 C43 1.295 . S
O27 Fe22 1.997 . S
O27 C43 1.235 . S
O28 Fe22 2.002 . S
O28 C29 1.295 . S
C29 O28 1.295 . S
C29 O31 1.235 . S
C30 O35 1.287 . S
C30 O36 1.255 . S
O31 Fe23 1.997 . S
O31 C29 1.235 . S
C32 O38 1.287 . S
C32 O39 1.255 . S
O33 Fe22 1.976 . S
O33 C40 1.287 . S
O34 Fe23 1.996 . S
O34 C40 1.255 . S
O35 Fe25 1.976 . S
O35 C30 1.287 . S
O36 Fe22 1.996 . S
O36 C30 1.255 . S
C37 O41 1.295 . S
C37 O42 1.235 . S
O38 Fe23 1.976 . S
O38 C32 1.287 . S
O39 Fe25 1.996 . S
O39 C32 1.255 . S
C40 O33 1.287 . S
C40 O34 1.255 . S
O41 Fe23 2.002 . S
O41 C37 1.295 . S
O42 Fe25 1.997 . S
O42 C37 1.235 . S
C43 O26 1.295 . S
C43 O27 1.235 . S
Fe44 O46 1.918 . S
Fe44 O49 1.997 . S
Fe44 O50 2.002 . S
Fe44 O55 1.976 . S
Fe44 O58 1.996 . S
Fe45 O46 1.918 . S
Fe45 O53 1.997 . S
Fe45 O56 1.996 . S
Fe45 O60 1.976 . S
Fe45 O63 2.002 . S
O46 Fe44 1.918 . S
O46 Fe45 1.918 . S
O46 Fe47 1.918 . S
Fe47 O46 1.918 . S
Fe47 O48 2.002 . S
Fe47 O57 1.976 1_655 S
Fe47 O61 1.996 1_655 S
Fe47 O64 1.997 . S
O48 Fe47 2.002 . S
O48 C65 1.295 . S
O49 Fe44 1.997 . S
O49 C65 1.235 . S
O50 Fe44 2.002 . S
O50 C51 1.295 . S
C51 O50 1.295 . S
C51 O53 1.235 . S
C52 O57 1.287 . S
C52 O58 1.255 1_455 S
O53 Fe45 1.997 . S
O53 C51 1.235 . S
C54 O60 1.287 1_455 S
C54 O61 1.255 . S
O55 Fe44 1.976 . S
O55 C62 1.287 . S
O56 Fe45 1.996 . S
O56 C62 1.255 . S
O57 Fe47 1.976 1_455 S
O57 C52 1.287 . S
O58 Fe44 1.996 . S
O58 C52 1.255 1_655 S
C59 O63 1.295 . S
C59 O64 1.235 . S
O60 Fe45 1.976 . S
O60 C54 1.287 1_655 S
O61 Fe47 1.996 1_455 S
O61 C54 1.255 . S
C62 O55 1.287 . S
C62 O56 1.255 . S
O63 Fe45 2.002 . S
O63 C59 1.295 . S
O64 Fe47 1.997 . S
O64 C59 1.235 . S
C65 O48 1.295 . S
C65 O49 1.235 . S
Fe66 O68 1.918 . S
Fe66 O71 1.997 . S
Fe66 O72 2.002 . S
Fe66 O77 1.976 1_565 S
Fe66 O80 1.996 1_565 S
Fe67 O68 1.918 . S
Fe67 O75 1.997 . S
Fe67 O78 1.996 . S
Fe67 O82 1.976 . S
Fe67 O85 2.002 . S
O68 Fe66 1.918 . S
O68 Fe67 1.918 . S
O68 Fe69 1.918 . S
Fe69 O68 1.918 . S
Fe69 O70 2.002 . S
Fe69 O79 1.976 . S
Fe69 O83 1.996 . S
Fe69 O86 1.997 . S
O70 Fe69 2.002 . S
O70 C87 1.295 . S
O71 Fe66 1.997 . S
O71 C87 1.235 . S
O72 Fe66 2.002 . S
O72 C73 1.295 . S
C73 O72 1.295 . S
C73 O75 1.235 . S
C74 O79 1.287 1_545 S
C74 O80 1.255 . S
O75 Fe67 1.997 . S
O75 C73 1.235 . S
C76 O82 1.287 . S
C76 O83 1.255 . S
O77 Fe66 1.976 1_545 S
O77 C84 1.287 . S
O78 Fe67 1.996 . S
O78 C84 1.255 1_565 S
O79 Fe69 1.976 . S
O79 C74 1.287 1_565 S
O80 Fe66 1.996 1_545 S
O80 C74 1.255 . S
C81 O85 1.295 . S
C81 O86 1.235 . S
O82 Fe67 1.976 . S
O82 C76 1.287 . S
O83 Fe69 1.996 . S
O83 C76 1.255 . S
C84 O77 1.287 . S
C84 O78 1.255 1_545 S
O85 Fe67 2.002 . S
O85 C81 1.295 . S
O86 Fe69 1.997 . S
O86 C81 1.235 . S
C87 O70 1.295 . S
C87 O71 1.235 . S
Fe88 O90 1.918 . S
Fe88 O93 1.997 . S
Fe88 O94 2.002 . S
Fe88 O99 1.976 1_455 S
Fe88 O102 1.996 1_455 S
Fe89 O90 1.918 . S
Fe89 O97 1.997 . S
Fe89 O100 1.996 . S
Fe89 O104 1.976 . S
Fe89 O107 2.002 . S
O90 Fe88 1.918 . S
O90 Fe89 1.918 . S
O90 Fe91 1.918 . S
Fe91 O90 1.918 . S
Fe91 O92 2.002 . S
Fe91 O101 1.976 . S
Fe91 O105 1.996 . S
Fe91 O108 1.997 . S
O92 Fe91 2.002 . S
O92 C109 1.295 . S
O93 Fe88 1.997 . S
O93 C109 1.235 . S
O94 Fe88 2.002 . S
O94 C95 1.295 . S
C95 O94 1.295 . S
C95 O97 1.235 . S
C96 O101 1.287 1_655 S
C96 O102 1.255 . S
O97 Fe89 1.997 . S
O97 C95 1.235 . S
C98 O104 1.287 . S
C98 O105 1.255 . S
O99 Fe88 1.976 1_655 S
O99 C106 1.287 . S
O100 Fe89 1.996 . S
O100 C106 1.255 1_455 S
O101 Fe91 1.976 . S
O101 C96 1.287 1_455 S
O102 Fe88 1.996 1_655 S
O102 C96 1.255 . S
C103 O107 1.295 . S
C103 O108 1.235 . S
O104 Fe89 1.976 . S
O104 C98 1.287 . S
O105 Fe91 1.996 . S
O105 C98 1.255 . S
C106 O99 1.287 . S
C106 O100 1.255 1_655 S
O107 Fe89 2.002 . S
O107 C103 1.295 . S
O108 Fe91 1.997 . S
O108 C103 1.235 . S
C109 O92 1.295 . S
C109 O93 1.235 . S
Fe110 O112 1.918 . S
Fe110 O115 1.997 . S
Fe110 O116 2.002 . S
Fe110 O121 1.976 1_545 S
Fe110 O124 1.996 1_545 S
Fe111 O112 1.918 . S
Fe111 O119 1.997 . S
Fe111 O122 1.996 . S
Fe111 O126 1.976 . S
Fe111 O129 2.002 . S
O112 Fe110 1.918 . S
O112 Fe111 1.918 . S
O112 Fe113 1.918 . S
Fe113 O112 1.918 . S
Fe113 O114 2.002 . S
Fe113 O123 1.976 . S
Fe113 O127 1.996 . S
Fe113 O130 1.997 . S
O114 Fe113 2.002 . S
O114 C131 1.295 . S
O115 Fe110 1.997 . S
O115 C131 1.235 . S
O116 Fe110 2.002 . S
O116 C117 1.295 . S
C117 O116 1.295 . S
C117 O119 1.235 . S
C118 O123 1.287 1_565 S
C118 O124 1.255 . S
O119 Fe111 1.997 . S
O119 C117 1.235 . S
C120 O126 1.287 . S
C120 O127 1.255 . S
O121 Fe110 1.976 1_565 S
O121 C128 1.287 . S
O122 Fe111 1.996 . S
O122 C128 1.255 1_545 S
O123 Fe113 1.976 . S
O123 C118 1.287 1_545 S
O124 Fe110 1.996 1_565 S
O124 C118 1.255 . S
C125 O129 1.295 . S
C125 O130 1.235 . S
O126 Fe111 1.976 . S
O126 C120 1.287 . S
O127 Fe113 1.996 . S
O127 C120 1.255 . S
C128 O121 1.287 . S
C128 O122 1.255 1_565 S
O129 Fe111 2.002 . S
O129 C125 1.295 . S
O130 Fe113 1.997 . S
O130 C125 1.235 . S
C131 O114 1.295 . S
C131 O115 1.235 . S
Fe132 O134 1.918 . S
Fe132 O137 1.997 . S
Fe132 O138 2.002 . S
Fe132 O143 1.976 . S
Fe132 O146 1.996 . S
Fe133 O134 1.918 . S
Fe133 O141 1.997 . S
Fe133 O144 1.996 . S
Fe133 O148 1.976 . S
Fe133 O151 2.002 . S
O134 Fe132 1.918 . S
O134 Fe133 1.918 . S
O134 Fe135 1.918 . S
Fe135 O134 1.918 . S
Fe135 O136 2.002 . S
Fe135 O145 1.976 . S
Fe135 O149 1.996 . S
Fe135 O152 1.997 . S
O136 Fe135 2.002 . S
O136 C153 1.295 . S
O137 Fe132 1.997 . S
O137 C153 1.235 . S
O138 Fe132 2.002 . S
O138 C139 1.295 . S
C139 O138 1.295 . S
C139 O141 1.235 . S
C140 O145 1.287 . S
C140 O146 1.255 . S
O141 Fe133 1.997 . S
O141 C139 1.235 . S
C142 O148 1.287 . S
C142 O149 1.255 . S
O143 Fe132 1.976 . S
O143 C150 1.287 . S
O144 Fe133 1.996 . S
O144 C150 1.255 . S
O145 Fe135 1.976 . S
O145 C140 1.287 . S
O146 Fe132 1.996 . S
O146 C140 1.255 . S
C147 O151 1.295 . S
C147 O152 1.235 . S
O148 Fe133 1.976 . S
O148 C142 1.287 . S
O149 Fe135 1.996 . S
O149 C142 1.255 . S
C150 O143 1.287 . S
C150 O144 1.255 . S
O151 Fe133 2.002 . S
O151 C147 1.295 . S
O152 Fe135 1.997 . S
O152 C147 1.235 . S
C153 O136 1.295 . S
C153 O137 1.235 . S
Fe154 O156 1.918 . S
Fe154 O159 1.997 . S
Fe154 O160 2.002 . S
Fe154 O165 1.976 . S
Fe154 O168 1.996 . S
Fe155 O156 1.918 . S
Fe155 O163 1.997 . S
Fe155 O166 1.996 . S
Fe155 O170 1.976 . S
Fe155 O173 2.002 . S
O156 Fe154 1.918 . S
O156 Fe155 1.918 . S
O156 Fe157 1.918 . S
Fe157 O156 1.918 . S
Fe157 O158 2.002 . S
Fe157 O167 1.976 . S
Fe157 O171 1.996 . S
Fe157 O174 1.997 . S
O158 Fe157 2.002 . S
O158 C175 1.295 . S
O159 Fe154 1.997 . S
O159 C175 1.235 . S
O160 Fe154 2.002 . S
O160 C161 1.295 . S
C161 O160 1.295 . S
C161 O163 1.235 . S
C162 O167 1.287 . S
C162 O168 1.255 . S
O163 Fe155 1.997 . S
O163 C161 1.235 . S
C164 O170 1.287 . S
C164 O171 1.255 . S
O165 Fe154 1.976 . S
O165 C172 1.287 . S
O166 Fe155 1.996 . S
O166 C172 1.255 . S
O167 Fe157 1.976 . S
O167 C162 1.287 . S
O168 Fe154 1.996 . S
O168 C162 1.255 . S
C169 O173 1.295 . S
C169 O174 1.235 . S
O170 Fe155 1.976 . S
O170 C164 1.287 . S
O171 Fe157 1.996 . S
O171 C164 1.255 . S
C172 O165 1.287 . S
C172 O166 1.255 . S
O173 Fe155 2.002 . S
O173 C169 1.295 . S
O174 Fe157 1.997 . S
O174 C169 1.235 . S
C175 O158 1.295 . S
C175 O159 1.235 . S
Fe176 O178 1.918 . S
Fe176 O181 1.997 . S
Fe176 O182 2.002 . S
Fe176 O187 1.976 . S
Fe176 O190 1.996 . S
Fe177 O178 1.918 . S
Fe177 O185 1.997 . S
Fe177 O188 1.996 . S
Fe177 O192 1.976 . S
Fe177 O195 2.002 . S
O178 Fe176 1.918 . S
O178 Fe177 1.918 . S
O178 Fe179 1.918 . S
Fe179 O178 1.918 . S
Fe179 O180 2.002 . S
Fe179 O189 1.976 . S
Fe179 O193 1.996 . S
Fe179 O196 1.997 . S
O180 Fe179 2.002 . S
O180 C197 1.295 . S
O181 Fe176 1.997 . S
O181 C197 1.235 . S
O182 Fe176 2.002 . S
O182 C183 1.295 . S
C183 O182 1.295 . S
C183 O185 1.235 . S
C184 O189 1.287 . S
C184 O190 1.255 . S
O185 Fe177 1.997 . S
O185 C183 1.235 . S
C186 O192 1.287 . S
C186 O193 1.255 . S
O187 Fe176 1.976 . S
O187 C194 1.287 . S
O188 Fe177 1.996 . S
O188 C194 1.255 . S
O189 Fe179 1.976 . S
O189 C184 1.287 . S
O190 Fe176 1.996 . S
O190 C184 1.255 . S
C191 O195 1.295 . S
C191 O196 1.235 . S
O192 Fe177 1.976 . S
O192 C186 1.287 . S
O193 Fe179 1.996 . S
O193 C186 1.255 . S
C194 O187 1.287 . S
C194 O188 1.255 . S
O195 Fe177 2.002 . S
O195 C191 1.295 . S
O196 Fe179 1.997 . S
O196 C191 1.235 . S
C197 O180 1.295 . S
C197 O181 1.235 . S
Fe198 O200 1.918 . S
Fe198 O203 1.997 . S
Fe198 O204 2.002 . S
Fe198 O209 1.976 . S
Fe198 O212 1.996 . S
Fe199 O200 1.918 . S
Fe199 O207 1.997 . S
Fe199 O210 1.996 . S
Fe199 O214 1.976 . S
Fe199 O217 2.002 . S
O200 Fe198 1.918 . S
O200 Fe199 1.918 . S
O200 Fe201 1.918 . S
Fe201 O200 1.918 . S
Fe201 O202 2.002 . S
Fe201 O211 1.976 . S
Fe201 O215 1.996 . S
Fe201 O218 1.997 . S
O202 Fe201 2.002 . S
O202 C219 1.295 . S
O203 Fe198 1.997 . S
O203 C219 1.235 . S
O204 Fe198 2.002 . S
O204 C205 1.295 . S
C205 O204 1.295 . S
C205 O207 1.235 . S
C206 O211 1.287 . S
C206 O212 1.255 . S
O207 Fe199 1.997 . S
O207 C205 1.235 . S
C208 O214 1.287 . S
C208 O215 1.255 . S
O209 Fe198 1.976 . S
O209 C216 1.287 . S
O210 Fe199 1.996 . S
O210 C216 1.255 . S
O211 Fe201 1.976 . S
O211 C206 1.287 . S
O212 Fe198 1.996 . S
O212 C206 1.255 . S
C213 O217 1.295 . S
C213 O218 1.235 . S
O214 Fe199 1.976 . S
O214 C208 1.287 . S
O215 Fe201 1.996 . S
O215 C208 1.255 . S
C216 O209 1.287 . S
C216 O210 1.255 . S
O217 Fe199 2.002 . S
O217 C213 1.295 . S
O218 Fe201 1.997 . S
O218 C213 1.235 . S
C219 O202 1.295 . S
C219 O203 1.235 . S
Fe220 O222 1.918 . S
Fe220 O225 1.997 . S
Fe220 O226 2.002 . S
Fe220 O231 1.976 . S
Fe220 O234 1.996 . S
Fe221 O222 1.918 . S
Fe221 O229 1.997 . S
Fe221 O232 1.996 1_455 S
Fe221 O236 1.976 1_455 S
Fe221 O239 2.002 . S
O222 Fe220 1.918 . S
O222 Fe221 1.918 . S
O222 Fe223 1.918 . S
Fe223 O222 1.918 . S
Fe223 O224 2.002 . S
Fe223 O233 1.976 . S
Fe223 O237 1.996 . S
Fe223 O240 1.997 . S
O224 Fe223 2.002 . S
O224 C241 1.295 . S
O225 Fe220 1.997 . S
O225 C241 1.235 . S
O226 Fe220 2.002 . S
O226 C227 1.295 . S
C227 O226 1.295 . S
C227 O229 1.235 . S
C228 O233 1.287 . S
C228 O234 1.255 . S
O229 Fe221 1.997 . S
O229 C227 1.235 . S
C230 O236 1.287 . S
C230 O237 1.255 1_655 S
O231 Fe220 1.976 . S
O231 C238 1.287 1_455 S
O232 Fe221 1.996 1_655 S
O232 C238 1.255 . S
O233 Fe223 1.976 . S
O233 C228 1.287 . S
O234 Fe220 1.996 . S
O234 C228 1.255 . S
C235 O239 1.295 . S
C235 O240 1.235 . S
O236 Fe221 1.976 1_655 S
O236 C230 1.287 . S
O237 Fe223 1.996 . S
O237 C230 1.255 1_455 S
C238 O231 1.287 1_655 S
C238 O232 1.255 . S
O239 Fe221 2.002 . S
O239 C235 1.295 . S
O240 Fe223 1.997 . S
O240 C235 1.235 . S
C241 O224 1.295 . S
C241 O225 1.235 . S
Fe242 O244 1.918 . S
Fe242 O247 1.997 . S
Fe242 O248 2.002 . S
Fe242 O253 1.976 1_545 S
Fe242 O256 1.996 1_545 S
Fe243 O244 1.918 . S
Fe243 O251 1.997 . S
Fe243 O254 1.996 . S
Fe243 O258 1.976 . S
Fe243 O261 2.002 . S
O244 Fe242 1.918 . S
O244 Fe243 1.918 . S
O244 Fe245 1.918 . S
Fe245 O244 1.918 . S
Fe245 O246 2.002 . S
Fe245 O255 1.976 . S
Fe245 O259 1.996 . S
Fe245 O262 1.997 . S
O246 Fe245 2.002 . S
O246 C263 1.295 . S
O247 Fe242 1.997 . S
O247 C263 1.235 . S
O248 Fe242 2.002 . S
O248 C249 1.295 . S
C249 O248 1.295 . S
C249 O251 1.235 . S
C250 O255 1.287 1_565 S
C250 O256 1.255 . S
O251 Fe243 1.997 . S
O251 C249 1.235 . S
C252 O258 1.287 . S
C252 O259 1.255 . S
O253 Fe242 1.976 1_565 S
O253 C260 1.287 . S
O254 Fe243 1.996 . S
O254 C260 1.255 1_545 S
O255 Fe245 1.976 . S
O255 C250 1.287 1_545 S
O256 Fe242 1.996 1_565 S
O256 C250 1.255 . S
C257 O261 1.295 . S
C257 O262 1.235 . S
O258 Fe243 1.976 . S
O258 C252 1.287 . S
O259 Fe245 1.996 . S
O259 C252 1.255 . S
C260 O253 1.287 . S
C260 O254 1.255 1_565 S
O261 Fe243 2.002 . S
O261 C257 1.295 . S
O262 Fe245 1.997 . S
O262 C257 1.235 . S
C263 O246 1.295 . S
C263 O247 1.235 . S
Fe264 O266 1.918 . S
Fe264 O269 1.997 . S
Fe264 O270 2.002 . S
Fe264 O275 1.976 . S
Fe264 O278 1.996 . S
Fe265 O266 1.918 . S
Fe265 O273 1.997 . S
Fe265 O276 1.996 1_655 S
Fe265 O280 1.976 1_655 S
Fe265 O283 2.002 . S
O266 Fe264 1.918 . S
O266 Fe265 1.918 . S
O266 Fe267 1.918 . S
Fe267 O266 1.918 . S
Fe267 O268 2.002 . S
Fe267 O277 1.976 . S
Fe267 O281 1.996 . S
Fe267 O284 1.997 . S
O268 Fe267 2.002 . S
O268 C285 1.295 . S
O269 Fe264 1.997 . S
O269 C285 1.235 . S
O270 Fe264 2.002 . S
O270 C271 1.295 . S
C271 O270 1.295 . S
C271 O273 1.235 . S
C272 O277 1.287 . S
C272 O278 1.255 . S
O273 Fe265 1.997 . S
O273 C271 1.235 . S
C274 O280 1.287 . S
C274 O281 1.255 1_455 S
O275 Fe264 1.976 . S
O275 C282 1.287 1_655 S
O276 Fe265 1.996 1_455 S
O276 C282 1.255 . S
O277 Fe267 1.976 . S
O277 C272 1.287 . S
O278 Fe264 1.996 . S
O278 C272 1.255 . S
C279 O283 1.295 . S
C279 O284 1.235 . S
O280 Fe265 1.976 1_455 S
O280 C274 1.287 . S
O281 Fe267 1.996 . S
O281 C274 1.255 1_655 S
C282 O275 1.287 1_455 S
C282 O276 1.255 . S
O283 Fe265 2.002 . S
O283 C279 1.295 . S
O284 Fe267 1.997 . S
O284 C279 1.235 . S
C285 O268 1.295 . S
C285 O269 1.235 . S
Fe286 O288 1.918 . S
Fe286 O291 1.997 . S
Fe286 O292 2.002 . S
Fe286 O297 1.976 . S
Fe286 O300 1.996 . S
Fe287 O288 1.918 . S
Fe287 O295 1.997 . S
Fe287 O298 1.996 . S
Fe287 O302 1.976 . S
Fe287 O305 2.002 . S
O288 Fe286 1.918 . S
O288 Fe287 1.918 . S
O288 Fe289 1.918 . S
Fe289 O288 1.918 . S
Fe289 O290 2.002 . S
Fe289 O299 1.976 1_565 S
Fe289 O303 1.996 1_565 S
Fe289 O306 1.997 . S
O290 Fe289 2.002 . S
O290 C307 1.295 . S
O291 Fe286 1.997 . S
O291 C307 1.235 . S
O292 Fe286 2.002 . S
O292 C293 1.295 . S
C293 O292 1.295 . S
C293 O295 1.235 . S
C294 O299 1.287 . S
C294 O300 1.255 1_545 S
O295 Fe287 1.997 . S
O295 C293 1.235 . S
C296 O302 1.287 1_545 S
C296 O303 1.255 . S
O297 Fe286 1.976 . S
O297 C304 1.287 . S
O298 Fe287 1.996 . S
O298 C304 1.255 . S
O299 Fe289 1.976 1_545 S
O299 C294 1.287 . S
O300 Fe286 1.996 . S
O300 C294 1.255 1_565 S
C301 O305 1.295 . S
C301 O306 1.235 . S
O302 Fe287 1.976 . S
O302 C296 1.287 1_565 S
O303 Fe289 1.996 1_545 S
O303 C296 1.255 . S
C304 O297 1.287 . S
C304 O298 1.255 . S
O305 Fe287 2.002 . S
O305 C301 1.295 . S
O306 Fe289 1.997 . S
O306 C301 1.235 . S
C307 O290 1.295 . S
C307 O291 1.235 . S
Fe308 O310 1.918 . S
Fe308 O313 1.997 . S
Fe308 O314 2.002 . S
Fe308 O319 1.976 . S
Fe308 O322 1.996 . S
Fe309 O310 1.918 . S
Fe309 O317 1.997 . S
Fe309 O320 1.996 . S
Fe309 O324 1.976 . S
Fe309 O327 2.002 . S
O310 Fe308 1.918 . S
O310 Fe309 1.918 . S
O310 Fe311 1.918 . S
Fe311 O310 1.918 . S
Fe311 O312 2.002 . S
Fe311 O321 1.976 . S
Fe311 O325 1.996 . S
Fe311 O328 1.997 . S
O312 Fe311 2.002 . S
O312 C329 1.295 . S
O313 Fe308 1.997 . S
O313 C329 1.235 . S
O314 Fe308 2.002 . S
O314 C315 1.295 . S
C315 O314 1.295 . S
C315 O317 1.235 . S
C316 O321 1.287 . S
C316 O322 1.255 . S
O317 Fe309 1.997 . S
O317 C315 1.235 . S
C318 O324 1.287 . S
C318 O325 1.255 . S
O319 Fe308 1.976 . S
O319 C326 1.287 . S
O320 Fe309 1.996 . S
O320 C326 1.255 . S
O321 Fe311 1.976 . S
O321 C316 1.287 . S
O322 Fe308 1.996 . S
O322 C316 1.255 . S
C323 O327 1.295 . S
C323 O328 1.235 . S
O324 Fe309 1.976 . S
O324 C318 1.287 . S
O325 Fe311 1.996 . S
O325 C318 1.255 . S
C326 O319 1.287 . S
C326 O320 1.255 . S
O327 Fe309 2.002 . S
O327 C323 1.295 . S
O328 Fe311 1.997 . S
O328 C323 1.235 . S
C329 O312 1.295 . S
C329 O313 1.235 . S
Fe330 O332 1.918 . S
Fe330 O335 1.997 . S
Fe330 O336 2.002 . S
Fe330 O341 1.976 . S
Fe330 O344 1.996 . S
Fe331 O332 1.918 . S
Fe331 O339 1.997 . S
Fe331 O342 1.996 . S
Fe331 O346 1.976 . S
Fe331 O349 2.002 . S
O332 Fe330 1.918 . S
O332 Fe331 1.918 . S
O332 Fe333 1.918 . S
Fe333 O332 1.918 . S
Fe333 O334 2.002 . S
Fe333 O343 1.976 . S
Fe333 O347 1.996 . S
Fe333 O350 1.997 . S
O334 Fe333 2.002 . S
O334 C351 1.295 . S
O335 Fe330 1.997 . S
O335 C351 1.235 . S
O336 Fe330 2.002 . S
O336 C337 1.295 . S
C337 O336 1.295 . S
C337 O339 1.235 . S
C338 O343 1.287 . S
C338 O344 1.255 . S
O339 Fe331 1.997 . S
O339 C337 1.235 . S
C340 O346 1.287 . S
C340 O347 1.255 . S
O341 Fe330 1.976 . S
O341 C348 1.287 . S
O342 Fe331 1.996 . S
O342 C348 1.255 . S
O343 Fe333 1.976 . S
O343 C338 1.287 . S
O344 Fe330 1.996 . S
O344 C338 1.255 . S
C345 O349 1.295 . S
C345 O350 1.235 . S
O346 Fe331 1.976 . S
O346 C340 1.287 . S
O347 Fe333 1.996 . S
O347 C340 1.255 . S
C348 O341 1.287 . S
C348 O342 1.255 . S
O349 Fe331 2.002 . S
O349 C345 1.295 . S
O350 Fe333 1.997 . S
O350 C345 1.235 . S
C351 O334 1.295 . S
C351 O335 1.235 . S
C352 C353 1.387 . S
C352 H356 0.950 . S
C352 C361 1.390 . S
C353 C352 1.387 . S
C353 C355 1.387 . S
H354 C361 0.950 . S
C355 C353 1.387 . S
C355 C357 1.390 . S
C355 H359 0.950 . S
H356 C352 0.950 . S
C357 C355 1.390 . S
C357 C358 1.387 . S
C357 H360 0.950 . S
C358 C357 1.387 . S
C358 C361 1.387 . S
H359 C355 0.950 . S
H360 C357 0.950 . S
C361 C352 1.390 . S
C361 H354 0.950 . S
C361 C358 1.387 . S
C362 C363 1.387 . S
C362 H366 0.950 . S
C362 C371 1.390 . S
C363 C362 1.387 . S
C363 C365 1.387 . S
H364 C371 0.950 . S
C365 C363 1.387 . S
C365 C367 1.390 . S
C365 H369 0.950 . S
H366 C362 0.950 . S
C367 C365 1.390 . S
C367 C368 1.387 . S
C367 H370 0.950 . S
C368 C367 1.387 . S
C368 C371 1.387 . S
H369 C365 0.950 . S
H370 C367 0.950 . S
C371 C362 1.390 . S
C371 H364 0.950 . S
C371 C368 1.387 . S
C372 C373 1.387 . S
C372 H376 0.950 . S
C372 C381 1.390 . S
C373 C372 1.387 . S
C373 C375 1.387 . S
H374 C381 0.950 . S
C375 C373 1.387 . S
C375 C377 1.390 . S
C375 H379 0.950 . S
H376 C372 0.950 . S
C377 C375 1.390 . S
C377 C378 1.387 . S
C377 H380 0.950 . S
C378 C377 1.387 . S
C378 C381 1.387 . S
H379 C375 0.950 . S
H380 C377 0.950 . S
C381 C372 1.390 . S
C381 H374 0.950 . S
C381 C378 1.387 . S
C382 C383 1.387 . S
C382 H386 0.950 . S
C382 C391 1.390 . S
C383 C382 1.387 . S
C383 C385 1.387 . S
H384 C391 0.950 . S
C385 C383 1.387 . S
C385 C387 1.390 . S
C385 H389 0.950 . S
H386 C382 0.950 . S
C387 C385 1.390 . S
C387 C388 1.387 . S
C387 H390 0.950 . S
C388 C387 1.387 . S
C388 C391 1.387 . S
H389 C385 0.950 . S
H390 C387 0.950 . S
C391 C382 1.390 . S
C391 H384 0.950 . S
C391 C388 1.387 . S
C392 C393 1.387 . S
C392 H396 0.950 . S
C392 C401 1.390 . S
C393 C392 1.387 . S
C393 C395 1.387 . S
H394 C401 0.950 . S
C395 C393 1.387 . S
C395 C397 1.390 . S
C395 H399 0.950 . S
H396 C392 0.950 . S
C397 C395 1.390 . S
C397 C398 1.387 . S
C397 H400 0.950 . S
C398 C397 1.387 . S
C398 C401 1.387 . S
H399 C395 0.950 . S
H400 C397 0.950 . S
C401 C392 1.390 . S
C401 H394 0.950 . S
C401 C398 1.387 . S
C402 C403 1.387 . S
C402 H406 0.950 . S
C402 C411 1.390 . S
C403 C402 1.387 . S
C403 C405 1.387 . S
H404 C411 0.950 . S
C405 C403 1.387 . S
C405 C407 1.390 . S
C405 H409 0.950 . S
H406 C402 0.950 . S
C407 C405 1.390 . S
C407 C408 1.387 . S
C407 H410 0.950 . S
C408 C407 1.387 . S
C408 C411 1.387 . S
H409 C405 0.950 . S
H410 C407 0.950 . S
C411 C402 1.390 . S
C411 H404 0.950 . S
C411 C408 1.387 . S
C412 C413 1.387 . S
C412 H416 0.950 . S
C412 C421 1.390 . S
C413 C412 1.387 . S
C413 C415 1.387 . S
H414 C421 0.950 . S
C415 C413 1.387 . S
C415 C417 1.390 . S
C415 H419 0.950 . S
H416 C412 0.950 . S
C417 C415 1.390 . S
C417 C418 1.387 . S
C417 H420 0.950 . S
C418 C417 1.387 . S
C418 C421 1.387 . S
H419 C415 0.950 . S
H420 C417 0.950 . S
C421 C412 1.390 . S
C421 H414 0.950 . S
C421 C418 1.387 . S
C422 C423 1.387 . S
C422 H426 0.950 . S
C422 C431 1.390 . S
C423 C422 1.387 . S
C423 C425 1.387 . S
H424 C431 0.950 . S
C425 C423 1.387 . S
C425 C427 1.390 . S
C425 H429 0.950 . S
H426 C422 0.950 . S
C427 C425 1.390 . S
C427 C428 1.387 . S
C427 H430 0.950 . S
C428 C427 1.387 . S
C428 C431 1.387 . S
H429 C425 0.950 . S
H430 C427 0.950 . S
C431 C422 1.390 . S
C431 H424 0.950 . S
C431 C428 1.387 . S
C432 C433 1.387 . S
C432 H436 0.950 . S
C432 C441 1.390 . S
C433 C432 1.387 . S
C433 C435 1.387 . S
H434 C441 0.950 . S
C435 C433 1.387 . S
C435 C437 1.390 . S
C435 H439 0.950 . S
H436 C432 0.950 . S
C437 C435 1.390 . S
C437 C438 1.387 . S
C437 H440 0.950 . S
C438 C437 1.387 . S
C438 C441 1.387 . S
H439 C435 0.950 . S
H440 C437 0.950 . S
C441 C432 1.390 . S
C441 H434 0.950 . S
C441 C438 1.387 . S
C442 C443 1.387 . S
C442 H446 0.950 . S
C442 C451 1.390 . S
C443 C442 1.387 . S
C443 C445 1.387 . S
H444 C451 0.950 . S
C445 C443 1.387 . S
C445 C447 1.390 . S
C445 H449 0.950 . S
H446 C442 0.950 . S
C447 C445 1.390 . S
C447 C448 1.387 . S
C447 H450 0.950 . S
C448 C447 1.387 . S
C448 C451 1.387 . S
H449 C445 0.950 . S
H450 C447 0.950 . S
C451 C442 1.390 . S
C451 H444 0.950 . S
C451 C448 1.387 . S
C452 C453 1.387 . S
C452 H456 0.950 . S
C452 C461 1.390 . S
C453 C452 1.387 . S
C453 C455 1.387 . S
H454 C461 0.950 . S
C455 C453 1.387 . S
C455 C457 1.390 . S
C455 H459 0.950 . S
H456 C452 0.950 . S
C457 C455 1.390 . S
C457 C458 1.387 . S
C457 H460 0.950 . S
C458 C457 1.387 . S
C458 C461 1.387 . S
H459 C455 0.950 . S
H460 C457 0.950 . S
C461 C452 1.390 . S
C461 H454 0.950 . S
C461 C458 1.387 . S
C462 C463 1.387 . S
C462 H466 0.950 . S
C462 C471 1.390 . S
C463 C462 1.387 . S
C463 C465 1.387 . S
H464 C471 0.950 . S
C465 C463 1.387 . S
C465 C467 1.390 . S
C465 H469 0.950 . S
H466 C462 0.950 . S
C467 C465 1.390 . S
C467 C468 1.387 . S
C467 H470 0.950 . S
C468 C467 1.387 . S
C468 C471 1.387 . S
H469 C465 0.950 . S
H470 C467 0.950 . S
C471 C462 1.390 . S
C471 H464 0.950 . S
C471 C468 1.387 . S
C472 C473 1.387 . S
C472 H476 0.950 . S
C472 C481 1.390 . S
C473 C472 1.387 . S
C473 C475 1.387 . S
H474 C481 0.950 . S
C475 C473 1.387 . S
C475 C477 1.390 . S
C475 H479 0.950 . S
H476 C472 0.950 . S
C477 C475 1.390 . S
C477 C478 1.387 . S
C477 H480 0.950 . S
C478 C477 1.387 . S
C478 C481 1.387 . S
H479 C475 0.950 . S
H480 C477 0.950 . S
C481 C472 1.390 . S
C481 H474 0.950 . S
C481 C478 1.387 . S
C482 C483 1.387 . S
C482 H486 0.950 . S
C482 C491 1.390 . S
C483 C482 1.387 . S
C483 C485 1.387 . S
H484 C491 0.950 . S
C485 C483 1.387 . S
C485 C487 1.390 . S
C485 H489 0.950 . S
H486 C482 0.950 . S
C487 C485 1.390 . S
C487 C488 1.387 . S
C487 H490 0.950 . S
C488 C487 1.387 . S
C488 C491 1.387 . S
H489 C485 0.950 . S
H490 C487 0.950 . S
C491 C482 1.390 . S
C491 H484 0.950 . S
C491 C488 1.387 . S
C492 C493 1.387 . S
C492 H496 0.950 . S
C492 C501 1.390 . S
C493 C492 1.387 . S
C493 C495 1.387 . S
H494 C501 0.950 . S
C495 C493 1.387 . S
C495 C497 1.390 . S
C495 H499 0.950 . S
H496 C492 0.950 . S
C497 C495 1.390 . S
C497 C498 1.387 . S
C497 H500 0.950 . S
C498 C497 1.387 . S
C498 C501 1.387 . S
H499 C495 0.950 . S
H500 C497 0.950 . S
C501 C492 1.390 . S
C501 H494 0.950 . S
C501 C498 1.387 . S
C502 C503 1.387 . S
C502 H506 0.950 . S
C502 C511 1.390 . S
C503 C502 1.387 . S
C503 C505 1.387 . S
H504 C511 0.950 . S
C505 C503 1.387 . S
C505 C507 1.390 . S
C505 H509 0.950 . S
H506 C502 0.950 . S
C507 C505 1.390 . S
C507 C508 1.387 . S
C507 H510 0.950 . S
C508 C507 1.387 . S
C508 C511 1.387 . S
H509 C505 0.950 . S
H510 C507 0.950 . S
C511 C502 1.390 . S
C511 H504 0.950 . S
C511 C508 1.387 . S
C512 C513 1.387 . S
C512 H516 0.950 . S
C512 C521 1.390 . S
C513 C512 1.387 . S
C513 C515 1.387 . S
H514 C521 0.950 . S
C515 C513 1.387 . S
C515 C517 1.390 . S
C515 H519 0.950 . S
H516 C512 0.950 . S
C517 C515 1.390 . S
C517 C518 1.387 . S
C517 H520 0.950 . S
C518 C517 1.387 . S
C518 C521 1.387 . S
H519 C515 0.950 . S
H520 C517 0.950 . S
C521 C512 1.390 . S
C521 H514 0.950 . S
C521 C518 1.387 . S
C522 C523 1.387 . S
C522 H526 0.950 . S
C522 C531 1.390 . S
C523 C522 1.387 . S
C523 C525 1.387 . S
H524 C531 0.950 . S
C525 C523 1.387 . S
C525 C527 1.390 . S
C525 H529 0.950 . S
H526 C522 0.950 . S
C527 C525 1.390 . S
C527 C528 1.387 . S
C527 H530 0.950 . S
C528 C527 1.387 . S
C528 C531 1.387 . S
H529 C525 0.950 . S
H530 C527 0.950 . S
C531 C522 1.390 . S
C531 H524 0.950 . S
C531 C528 1.387 . S
C532 C533 1.387 . S
C532 H536 0.950 . S
C532 C541 1.390 . S
C533 C532 1.387 . S
C533 C535 1.387 . S
H534 C541 0.950 . S
C535 C533 1.387 . S
C535 C537 1.390 . S
C535 H539 0.950 . S
H536 C532 0.950 . S
C537 C535 1.390 . S
C537 C538 1.387 . S
C537 H540 0.950 . S
C538 C537 1.387 . S
C538 C541 1.387 . S
H539 C535 0.950 . S
H540 C537 0.950 . S
C541 C532 1.390 . S
C541 H534 0.950 . S
C541 C538 1.387 . S
C542 C543 1.387 . S
C542 H546 0.950 . S
C542 C551 1.390 . S
C543 C542 1.387 . S
C543 C545 1.387 . S
H544 C551 0.950 . S
C545 C543 1.387 . S
C545 C547 1.390 . S
C545 H549 0.950 . S
H546 C542 0.950 . S
C547 C545 1.390 . S
C547 C548 1.387 . S
C547 H550 0.950 . S
C548 C547 1.387 . S
C548 C551 1.387 . S
H549 C545 0.950 . S
H550 C547 0.950 . S
C551 C542 1.390 . S
C551 H544 0.950 . S
C551 C548 1.387 . S
C552 C553 1.387 . S
C552 H556 0.950 . S
C552 C561 1.390 . S
C553 C552 1.387 . S
C553 C555 1.387 . S
H554 C561 0.950 . S
C555 C553 1.387 . S
C555 C557 1.390 . S
C555 H559 0.950 . S
H556 C552 0.950 . S
C557 C555 1.390 . S
C557 C558 1.387 . S
C557 H560 0.950 . S
C558 C557 1.387 . S
C558 C561 1.387 . S
H559 C555 0.950 . S
H560 C557 0.950 . S
C561 C552 1.390 . S
C561 H554 0.950 . S
C561 C558 1.387 . S
C562 C563 1.387 . S
C562 H566 0.950 . S
C562 C571 1.390 . S
C563 C562 1.387 . S
C563 C565 1.387 . S
H564 C571 0.950 . S
C565 C563 1.387 . S
C565 C567 1.390 . S
C565 H569 0.950 . S
H566 C562 0.950 . S
C567 C565 1.390 . S
C567 C568 1.387 . S
C567 H570 0.950 . S
C568 C567 1.387 . S
C568 C571 1.387 . S
H569 C565 0.950 . S
H570 C567 0.950 . S
C571 C562 1.390 . S
C571 H564 0.950 . S
C571 C568 1.387 . S
C572 C573 1.387 . S
C572 H576 0.950 . S
C572 C581 1.390 . S
C573 C572 1.387 . S
C573 C575 1.387 . S
H574 C581 0.950 . S
C575 C573 1.387 . S
C575 C577 1.390 . S
C575 H579 0.950 . S
H576 C572 0.950 . S
C577 C575 1.390 . S
C577 C578 1.387 . S
C577 H580 0.950 . S
C578 C577 1.387 . S
C578 C581 1.387 . S
H579 C575 0.950 . S
H580 C577 0.950 . S
C581 C572 1.390 . S
C581 H574 0.950 . S
C581 C578 1.387 . S
C582 C583 1.387 . S
C582 H586 0.950 . S
C582 C591 1.390 . S
C583 C582 1.387 . S
C583 C585 1.387 . S
H584 C591 0.950 . S
C585 C583 1.387 . S
C585 C587 1.390 . S
C585 H589 0.950 . S
H586 C582 0.950 . S
C587 C585 1.390 . S
C587 C588 1.387 . S
C587 H590 0.950 . S
C588 C587 1.387 . S
C588 C591 1.387 . S
H589 C585 0.950 . S
H590 C587 0.950 . S
C591 C582 1.390 . S
C591 H584 0.950 . S
C591 C588 1.387 . S
C592 C593 1.387 . S
C592 H596 0.950 . S
C592 C601 1.390 . S
C593 C592 1.387 . S
C593 C595 1.387 . S
H594 C601 0.950 . S
C595 C593 1.387 . S
C595 C597 1.390 . S
C595 H599 0.950 . S
H596 C592 0.950 . S
C597 C595 1.390 . S
C597 C598 1.387 . S
C597 H600 0.950 . S
C598 C597 1.387 . S
C598 C601 1.387 . S
H599 C595 0.950 . S
H600 C597 0.950 . S
C601 C592 1.390 . S
C601 H594 0.950 . S
C601 C598 1.387 . S
C602 C603 1.387 . S
C602 H606 0.950 . S
C602 C611 1.390 . S
C603 C602 1.387 . S
C603 C605 1.387 . S
H604 C611 0.950 . S
C605 C603 1.387 . S
C605 C607 1.390 . S
C605 H609 0.950 . S
H606 C602 0.950 . S
C607 C605 1.390 . S
C607 C608 1.387 . S
C607 H610 0.950 . S
C608 C607 1.387 . S
C608 C611 1.387 . S
H609 C605 0.950 . S
H610 C607 0.950 . S
C611 C602 1.390 . S
C611 H604 0.950 . S
C611 C608 1.387 . S
C612 C613 1.387 . S
C612 H616 0.950 . S
C612 C621 1.390 . S
C613 C612 1.387 . S
C613 C615 1.387 . S
H614 C621 0.950 . S
C615 C613 1.387 . S
C615 C617 1.390 . S
C615 H619 0.950 . S
H616 C612 0.950 . S
C617 C615 1.390 . S
C617 C618 1.387 . S
C617 H620 0.950 . S
C618 C617 1.387 . S
C618 C621 1.387 . S
H619 C615 0.950 . S
H620 C617 0.950 . S
C621 C612 1.390 . S
C621 H614 0.950 . S
C621 C618 1.387 . S
C622 C623 1.387 . S
C622 H626 0.950 . S
C622 C631 1.390 . S
C623 C622 1.387 . S
C623 C625 1.387 . S
H624 C631 0.950 . S
C625 C623 1.387 . S
C625 C627 1.390 . S
C625 H629 0.950 . S
H626 C622 0.950 . S
C627 C625 1.390 . S
C627 C628 1.387 . S
C627 H630 0.950 . S
C628 C627 1.387 . S
C628 C631 1.387 . S
H629 C625 0.950 . S
H630 C627 0.950 . S
C631 C622 1.390 . S
C631 H624 0.950 . S
C631 C628 1.387 . S
C632 C633 1.387 . S
C632 H636 0.950 . S
C632 C641 1.390 . S
C633 C632 1.387 . S
C633 C635 1.387 . S
H634 C641 0.950 . S
C635 C633 1.387 . S
C635 C637 1.390 . S
C635 H639 0.950 . S
H636 C632 0.950 . S
C637 C635 1.390 . S
C637 C638 1.387 . S
C637 H640 0.950 . S
C638 C637 1.387 . S
C638 C641 1.387 . S
H639 C635 0.950 . S
H640 C637 0.950 . S
C641 C632 1.390 . S
C641 H634 0.950 . S
C641 C638 1.387 . S
C642 C643 1.387 . S
C642 H646 0.950 . S
C642 C651 1.390 . S
C643 C642 1.387 . S
C643 C645 1.387 . S
H644 C651 0.950 . S
C645 C643 1.387 . S
C645 C647 1.390 . S
C645 H649 0.950 . S
H646 C642 0.950 . S
C647 C645 1.390 . S
C647 C648 1.387 . S
C647 H650 0.950 . S
C648 C647 1.387 . S
C648 C651 1.387 . S
H649 C645 0.950 . S
H650 C647 0.950 . S
C651 C642 1.390 . S
C651 H644 0.950 . S
C651 C648 1.387 . S
C652 C653 1.387 . S
C652 H656 0.950 . S
C652 C661 1.390 . S
C653 C652 1.387 . S
C653 C655 1.387 . S
H654 C661 0.950 . S
C655 C653 1.387 . S
C655 C657 1.390 . S
C655 H659 0.950 . S
H656 C652 0.950 . S
C657 C655 1.390 . S
C657 C658 1.387 . S
C657 H660 0.950 . S
C658 C657 1.387 . S
C658 C661 1.387 . S
H659 C655 0.950 . S
H660 C657 0.950 . S
C661 C652 1.390 . S
C661 H654 0.950 . S
C661 C658 1.387 . S
C662 C663 1.387 . S
C662 H666 0.950 . S
C662 C671 1.390 . S
C663 C662 1.387 . S
C663 C665 1.387 . S
H664 C671 0.950 . S
C665 C663 1.387 . S
C665 C667 1.390 . S
C665 H669 0.950 . S
H666 C662 0.950 . S
C667 C665 1.390 . S
C667 C668 1.387 . S
C667 H670 0.950 . S
C668 C667 1.387 . S
C668 C671 1.387 . S
H669 C665 0.950 . S
H670 C667 0.950 . S
C671 C662 1.390 . S
C671 H664 0.950 . S
C671 C668 1.387 . S
C672 C673 1.387 . S
C672 H676 0.950 . S
C672 C681 1.390 . S
C673 C672 1.387 . S
C673 C675 1.387 . S
H674 C681 0.950 . S
C675 C673 1.387 . S
C675 C677 1.390 . S
C675 H679 0.950 . S
H676 C672 0.950 . S
C677 C675 1.390 . S
C677 C678 1.387 . S
C677 H680 0.950 . S
C678 C677 1.387 . S
C678 C681 1.387 . S
H679 C675 0.950 . S
H680 C677 0.950 . S
C681 C672 1.390 . S
C681 H674 0.950 . S
C681 C678 1.387 . S
C682 C683 1.387 . S
C682 H686 0.950 . S
C682 C691 1.390 . S
C683 C682 1.387 . S
C683 C685 1.387 . S
H684 C691 0.950 . S
C685 C683 1.387 . S
C685 C687 1.390 . S
C685 H689 0.950 . S
H686 C682 0.950 . S
C687 C685 1.390 . S
C687 C688 1.387 . S
C687 H690 0.950 . S
C688 C687 1.387 . S
C688 C691 1.387 . S
H689 C685 0.950 . S
H690 C687 0.950 . S
C691 C682 1.390 . S
C691 H684 0.950 . S
C691 C688 1.387 . S
C692 C693 1.387 . S
C692 H696 0.950 . S
C692 C701 1.390 . S
C693 C692 1.387 . S
C693 C695 1.387 . S
H694 C701 0.950 . S
C695 C693 1.387 . S
C695 C697 1.390 . S
C695 H699 0.950 . S
H696 C692 0.950 . S
C697 C695 1.390 . S
C697 C698 1.387 . S
C697 H700 0.950 . S
C698 C697 1.387 . S
C698 C701 1.387 . S
H699 C695 0.950 . S
H700 C697 0.950 . S
C701 C692 1.390 . S
C701 H694 0.950 . S
C701 C698 1.387 . S
C702 C703 1.387 . S
C702 H706 0.950 . S
C702 C711 1.390 . S
C703 C702 1.387 . S
C703 C705 1.387 . S
H704 C711 0.950 . S
C705 C703 1.387 . S
C705 C707 1.390 . S
C705 H709 0.950 . S
H706 C702 0.950 . S
C707 C705 1.390 . S
C707 C708 1.387 . S
C707 H710 0.950 . S
C708 C707 1.387 . S
C708 C711 1.387 . S
H709 C705 0.950 . S
H710 C707 0.950 . S
C711 C702 1.390 . S
C711 H704 0.950 . S
C711 C708 1.387 . S
C712 C713 1.387 . S
C712 H716 0.950 . S
C712 C721 1.390 . S
C713 C712 1.387 . S
C713 C715 1.387 . S
H714 C721 0.950 . S
C715 C713 1.387 . S
C715 C717 1.390 1_556 S
C715 H719 0.950 . S
H716 C712 0.950 . S
C717 C715 1.390 1_554 S
C717 C718 1.387 . S
C717 H720 0.950 . S
C718 C717 1.387 . S
C718 C721 1.387 1_554 S
H719 C715 0.950 . S
H720 C717 0.950 . S
C721 C712 1.390 . S
C721 H714 0.950 . S
C721 C718 1.387 1_556 S
C722 C723 1.387 1_556 S
C722 H726 0.947 1_556 S
C722 C731 1.390 . S
C723 C722 1.387 1_554 S
C723 C725 1.387 . S
H724 C731 0.950 . S
C725 C723 1.387 . S
C725 C727 1.390 1_554 S
C725 H729 0.950 . S
H726 C722 0.947 1_554 S
C727 C725 1.390 1_556 S
C727 C728 1.387 . S
C727 H730 0.950 . S
C728 C727 1.387 . S
C728 C731 1.387 . S
H729 C725 0.950 . S
H730 C727 0.950 . S
C731 C722 1.390 . S
C731 H724 0.950 . S
C731 C728 1.387 . S
C732 C733 1.387 . S
C732 H736 0.950 . S
C732 C741 1.390 1_556 S
C733 C732 1.387 . S
C733 C735 1.387 . S
H734 C741 0.950 . S
C735 C733 1.387 . S
C735 C737 1.390 1_556 S
C735 H739 0.950 . S
H736 C732 0.950 . S
C737 C735 1.390 1_554 S
C737 C738 1.387 . S
C737 H740 0.950 . S
C738 C737 1.387 . S
C738 C741 1.387 . S
H739 C735 0.950 . S
H740 C737 0.950 . S
C741 C732 1.390 1_554 S
C741 H734 0.950 . S
C741 C738 1.387 . S
C742 C743 1.387 . S
C742 H746 0.950 . S
C742 C751 1.390 1_554 S
C743 C742 1.387 . S
C743 C745 1.387 1_554 S
H744 C751 0.950 . S
C745 C743 1.387 1_556 S
C745 C747 1.390 . S
C745 H749 0.950 . S
H746 C742 0.950 . S
C747 C745 1.390 . S
C747 C748 1.387 . S
C747 H750 0.950 . S
C748 C747 1.387 . S
C748 C751 1.387 . S
H749 C745 0.950 . S
H750 C747 0.950 . S
C751 C742 1.390 1_556 S
C751 H744 0.950 . S
C751 C748 1.387 . S
C752 C753 1.387 . S
C752 H756 0.950 . S
C752 C761 1.390 . S
C753 C752 1.387 . S
C753 C755 1.387 . S
H754 C761 0.950 . S
C755 C753 1.387 . S
C755 C757 1.390 . S
C755 H759 0.950 . S
H756 C752 0.950 . S
C757 C755 1.390 . S
C757 C758 1.387 . S
C757 H760 0.950 . S
C758 C757 1.387 . S
C758 C761 1.387 . S
H759 C755 0.950 . S
H760 C757 0.950 . S
C761 C752 1.390 . S
C761 H754 0.950 . S
C761 C758 1.387 . S
C762 C763 1.387 . S
C762 H766 0.950 . S
C762 C771 1.390 . S
C763 C762 1.387 . S
C763 C765 1.387 . S
H764 C771 0.950 . S
C765 C763 1.387 . S
C765 C767 1.390 . S
C765 H769 0.950 . S
H766 C762 0.950 . S
C767 C765 1.390 . S
C767 C768 1.387 . S
C767 H770 0.950 . S
C768 C767 1.387 . S
C768 C771 1.387 . S
H769 C765 0.950 . S
H770 C767 0.950 . S
C771 C762 1.390 . S
C771 H764 0.950 . S
C771 C768 1.387 . S
C772 C773 1.387 . S
C772 H776 0.950 . S
C772 C781 1.390 . S
C773 C772 1.387 . S
C773 C775 1.387 . S
H774 C781 0.950 . S
C775 C773 1.387 . S
C775 C777 1.390 . S
C775 H779 0.950 . S
H776 C772 0.950 . S
C777 C775 1.390 . S
C777 C778 1.387 . S
C777 H780 0.950 . S
C778 C777 1.387 . S
C778 C781 1.387 . S
H779 C775 0.950 . S
H780 C777 0.950 . S
C781 C772 1.390 . S
C781 H774 0.950 . S
C781 C778 1.387 . S
C782 C783 1.387 . S
C782 H786 0.950 . S
C782 C791 1.390 . S
C783 C782 1.387 . S
C783 C785 1.387 . S
H784 C791 0.950 . S
C785 C783 1.387 . S
C785 C787 1.390 . S
C785 H789 0.950 . S
H786 C782 0.950 . S
C787 C785 1.390 . S
C787 C788 1.387 . S
C787 H790 0.950 . S
C788 C787 1.387 . S
C788 C791 1.387 . S
H789 C785 0.950 . S
H790 C787 0.950 . S
C791 C782 1.390 . S
C791 H784 0.950 . S
C791 C788 1.387 . S
C792 C793 1.387 1_554 S
C792 H796 0.950 . S
C792 C801 1.390 . S
C793 C792 1.387 1_556 S
C793 C795 1.387 . S
H794 C801 0.950 . S
C795 C793 1.387 . S
C795 C797 1.390 1_556 S
C795 H799 0.950 . S
H796 C792 0.950 . S
C797 C795 1.390 1_554 S
C797 C798 1.387 . S
C797 H800 0.950 . S
C798 C797 1.387 . S
C798 C801 1.387 . S
H799 C795 0.950 . S
H800 C797 0.950 . S
C801 C792 1.390 . S
C801 H794 0.950 . S
C801 C798 1.387 . S
C802 C803 1.387 . S
C802 H806 0.950 . S
C802 C811 1.390 1_556 S
C803 C802 1.387 . S
C803 C805 1.387 1_556 S
H804 C811 0.950 . S
C805 C803 1.387 1_554 S
C805 C807 1.390 . S
C805 H809 0.950 . S
H806 C802 0.950 . S
C807 C805 1.390 . S
C807 C808 1.387 . S
C807 H810 0.950 . S
C808 C807 1.387 . S
C808 C811 1.387 . S
H809 C805 0.950 . S
H810 C807 0.950 . S
C811 C802 1.390 1_554 S
C811 H804 0.950 . S
C811 C808 1.387 . S
C812 C813 1.387 . S
C812 H816 0.950 . S
C812 C821 1.390 1_554 S
C813 C812 1.387 . S
C813 C815 1.387 . S
H814 C821 0.950 . S
C815 C813 1.387 . S
C815 C817 1.390 . S
C815 H819 0.950 . S
H816 C812 0.950 . S
C817 C815 1.390 . S
C817 C818 1.387 1_554 S
C817 H820 0.950 1_554 S
C818 C817 1.387 1_556 S
C818 C821 1.387 . S
H819 C815 0.950 . S
H820 C817 0.950 1_556 S
C821 C812 1.390 1_556 S
C821 H814 0.950 . S
C821 C818 1.387 . S
C822 C823 1.387 . S
C822 H826 0.950 . S
C822 C831 1.390 . S
C823 C822 1.387 . S
C823 C825 1.387 . S
H824 C831 0.950 . S
C825 C823 1.387 . S
C825 C827 1.390 1_554 S
C825 H829 0.950 . S
H826 C822 0.950 . S
C827 C825 1.390 1_556 S
C827 C828 1.387 . S
C827 H830 0.950 . S
C828 C827 1.387 . S
C828 C831 1.387 1_556 S
H829 C825 0.950 . S
H830 C827 0.950 . S
C831 C822 1.390 . S
C831 H824 0.950 . S
C831 C828 1.387 1_554 S
C353 C8 2.181 . S
C358 C120 2.181 . S
C363 C140 2.180 . S
C368 C32 2.180 . S
C373 C62 2.180 . S
C378 C162 2.179 . S
C383 C76 2.178 . S
C388 C98 2.178 . S
C393 C304 2.181 . S
C398 C184 2.181 . S
C403 C318 2.178 . S
C408 C206 2.178 . S
C413 C228 2.179 . S
C418 C348 2.179 . S
C423 C252 2.179 . S
C428 C272 2.179 . S
C433 C18 1.579 . S
C438 C84 1.534 . S
C443 C30 1.579 . S
C448 C10 1.534 . S
C453 C54 1.579 . S
C458 C40 1.534 . S
C463 C74 1.578 . S
C468 C52 1.532 . S
C473 C96 1.578 . S
C478 C128 1.532 . S
C483 C142 1.534 . S
C488 C118 1.579 . S
C493 C150 1.579 . S
C498 C164 1.534 . S
C503 C106 1.534 . S
C508 C172 1.579 . S
C513 C260 1.532 . S
C518 C194 1.578 . S
C523 C216 1.579 . S
C528 C186 1.534 . S
C533 C238 1.579 . S
C538 C208 1.534 . S
C543 C250 1.579 . S
C548 C230 1.534 . S
C553 C282 1.579 . S
C558 C294 1.534 . S
C563 C296 1.578 . S
C568 C326 1.532 . S
C573 C316 1.578 . S
C578 C338 1.532 . S
C583 C340 1.579 . S
C588 C274 1.534 . S
C593 C21 0.617 . S
C598 C51 0.617 . S
C603 C37 0.617 . S
C608 C81 0.617 . S
C613 C153 0.617 . S
C618 C103 0.617 . S
C623 C175 0.617 . S
C628 C125 0.617 . S
C633 C241 0.617 . S
C638 C197 0.617 . S
C643 C257 0.617 . S
C648 C219 0.617 . S
C653 C285 0.624 . S
C658 C323 0.624 . S
C663 C293 0.624 . S
C668 C337 0.624 . S
C673 C7 1.315 . S
C678 C249 1.307 . S
C683 C191 1.307 . S
C688 C43 1.315 . S
C693 C59 1.315 . S
C698 C213 1.308 . S
C703 C235 1.307 . S
C708 C87 1.316 . S
C713 C307 1.307 . S
C718 C109 1.315 . S
C723 C131 1.315 . S
C728 C315 1.306 . S
C733 C351 1.308 . S
C738 C139 1.315 . S
C743 C161 1.316 . S
C748 C279 1.307 . S
C753 C183 1.316 . S
C758 C73 1.306 . S
C763 C205 1.315 . S
C768 C15 1.307 . S
C773 C29 1.306 . S
C778 C227 1.316 . S
C783 C263 1.316 . S
C788 C65 1.307 . S
C793 C271 1.316 . S
C798 C117 1.306 . S
C803 C301 1.315 . S
C808 C147 1.307 . S
C813 C169 1.308 . S
C818 C329 1.315 . S
C823 C95 1.307 . S
C828 C345 1.316 . S
