# Generated by pormake.
# Topology crs, (6)-cn, num edge types: 1
# Building blocks:
#     Node 0, Type 0, BuildingBlock: CUKXOW_clean_sbu_0, # of connection points: 6
#     Node 1, Type 0, BuildingBlock: CUKXOW_clean_sbu_0, # of connection points: 6
#     Node 2, Type 0, BuildingBlock: CUKXOW_clean_sbu_0, # of connection points: 6
#     Node 3, Type 0, BuildingBlock: CUKXOW_clean_sbu_0, # of connection points: 6
#     Node 4, Type 0, BuildingBlock: CUKXOW_clean_sbu_0, # of connection points: 6
#     Node 5, Type 0, BuildingBlock: CUKXOW_clean_sbu_0, # of connection points: 6
#     Node 6, Type 0, BuildingBlock: CUKXOW_clean_sbu_0, # of connection points: 6
#     Node 7, Type 0, BuildingBlock: CUKXOW_clean_sbu_0, # of connection points: 6
#     Node 8, Type 0, BuildingBlock: CUKXOW_clean_sbu_0, # of connection points: 6
#     Node 9, Type 0, BuildingBlock: CUKXOW_clean_sbu_0, # of connection points: 6
#     Node 10, Type 0, BuildingBlock: CUKXOW_clean_sbu_0, # of connection points: 6
#     Node 11, Type 0, BuildingBlock: CUKXOW_clean_sbu_0, # of connection points: 6
#     Node 12, Type 0, BuildingBlock: CUKXOW_clean_sbu_0, # of connection points: 6
#     Node 13, Type 0, BuildingBlock: CUKXOW_clean_sbu_0, # of connection points: 6
#     Node 14, Type 0, BuildingBlock: CUKXOW_clean_sbu_0, # of connection points: 6
#     Node 15, Type 0, BuildingBlock: CUKXOW_clean_sbu_0, # of connection points: 6
#     Edge 16, Type (0, 0), BuildingBlock: ZUJKAS_clean_linker_0, # of connection points: 2
#     Edge 17, Type (0, 0), BuildingBlock: ZUJKAS_clean_linker_0, # of connection points: 2
#     Edge 18, Type (0, 0), BuildingBlock: ZUJKAS_clean_linker_0, # of connection points: 2
#     Edge 19, Type (0, 0), BuildingBlock: ZUJKAS_clean_linker_0, # of connection points: 2
#     Edge 20, Type (0, 0), BuildingBlock: ZUJKAS_clean_linker_0, # of connection points: 2
#     Edge 21, Type (0, 0), BuildingBlock: ZUJKAS_clean_linker_0, # of connection points: 2
#     Edge 22, Type (0, 0), BuildingBlock: ZUJKAS_clean_linker_0, # of connection points: 2
#     Edge 23, Type (0, 0), BuildingBlock: ZUJKAS_clean_linker_0, # of connection points: 2
#     Edge 24, Type (0, 0), BuildingBlock: ZUJKAS_clean_linker_0, # of connection points: 2
#     Edge 25, Type (0, 0), BuildingBlock: ZUJKAS_clean_linker_0, # of connection points: 2
#     Edge 26, Type (0, 0), BuildingBlock: ZUJKAS_clean_linker_0, # of connection points: 2
#     Edge 27, Type (0, 0), BuildingBlock: ZUJKAS_clean_linker_0, # of connection points: 2
#     Edge 28, Type (0, 0), BuildingBlock: ZUJKAS_clean_linker_0, # of connection points: 2
#     Edge 29, Type (0, 0), BuildingBlock: ZUJKAS_clean_linker_0, # of connection points: 2
#     Edge 30, Type (0, 0), BuildingBlock: ZUJKAS_clean_linker_0, # of connection points: 2
#     Edge 31, Type (0, 0), BuildingBlock: ZUJKAS_clean_linker_0, # of connection points: 2
#     Edge 32, Type (0, 0), BuildingBlock: ZUJKAS_clean_linker_0, # of connection points: 2
#     Edge 33, Type (0, 0), BuildingBlock: ZUJKAS_clean_linker_0, # of connection points: 2
#     Edge 34, Type (0, 0), BuildingBlock: ZUJKAS_clean_linker_0, # of connection points: 2
#     Edge 35, Type (0, 0), BuildingBlock: ZUJKAS_clean_linker_0, # of connection points: 2
#     Edge 36, Type (0, 0), BuildingBlock: ZUJKAS_clean_linker_0, # of connection points: 2
#     Edge 37, Type (0, 0), BuildingBlock: ZUJKAS_clean_linker_0, # of connection points: 2
#     Edge 38, Type (0, 0), BuildingBlock: ZUJKAS_clean_linker_0, # of connection points: 2
#     Edge 39, Type (0, 0), BuildingBlock: ZUJKAS_clean_linker_0, # of connection points: 2
#     Edge 40, Type (0, 0), BuildingBlock: ZUJKAS_clean_linker_0, # of connection points: 2
#     Edge 41, Type (0, 0), BuildingBlock: ZUJKAS_clean_linker_0, # of connection points: 2
#     Edge 42, Type (0, 0), BuildingBlock: ZUJKAS_clean_linker_0, # of connection points: 2
#     Edge 43, Type (0, 0), BuildingBlock: ZUJKAS_clean_linker_0, # of connection points: 2
#     Edge 44, Type (0, 0), BuildingBlock: ZUJKAS_clean_linker_0, # of connection points: 2
#     Edge 45, Type (0, 0), BuildingBlock: ZUJKAS_clean_linker_0, # of connection points: 2
#     Edge 46, Type (0, 0), BuildingBlock: ZUJKAS_clean_linker_0, # of connection points: 2
#     Edge 47, Type (0, 0), BuildingBlock: ZUJKAS_clean_linker_0, # of connection points: 2
#     Edge 48, Type (0, 0), BuildingBlock: ZUJKAS_clean_linker_0, # of connection points: 2
#     Edge 49, Type (0, 0), BuildingBlock: ZUJKAS_clean_linker_0, # of connection points: 2
#     Edge 50, Type (0, 0), BuildingBlock: ZUJKAS_clean_linker_0, # of connection points: 2
#     Edge 51, Type (0, 0), BuildingBlock: ZUJKAS_clean_linker_0, # of connection points: 2
#     Edge 52, Type (0, 0), BuildingBlock: ZUJKAS_clean_linker_0, # of connection points: 2
#     Edge 53, Type (0, 0), BuildingBlock: ZUJKAS_clean_linker_0, # of connection points: 2
#     Edge 54, Type (0, 0), BuildingBlock: ZUJKAS_clean_linker_0, # of connection points: 2
#     Edge 55, Type (0, 0), BuildingBlock: ZUJKAS_clean_linker_0, # of connection points: 2
#     Edge 56, Type (0, 0), BuildingBlock: ZUJKAS_clean_linker_0, # of connection points: 2
#     Edge 57, Type (0, 0), BuildingBlock: ZUJKAS_clean_linker_0, # of connection points: 2
#     Edge 58, Type (0, 0), BuildingBlock: ZUJKAS_clean_linker_0, # of connection points: 2
#     Edge 59, Type (0, 0), BuildingBlock: ZUJKAS_clean_linker_0, # of connection points: 2
#     Edge 60, Type (0, 0), BuildingBlock: ZUJKAS_clean_linker_0, # of connection points: 2
#     Edge 61, Type (0, 0), BuildingBlock: ZUJKAS_clean_linker_0, # of connection points: 2
#     Edge 62, Type (0, 0), BuildingBlock: ZUJKAS_clean_linker_0, # of connection points: 2
#     Edge 63, Type (0, 0), BuildingBlock: ZUJKAS_clean_linker_0, # of connection points: 2
# Relax obj value: 0.149
# Max RMSD: 0.216
# Mean RMSD: 0.189
data_MOF--net-crs--node1-CUKXOW_clean_sbu_0--edge1-ZUJKAS_clean_linker_0
_symmetry_space_group_name_H-M    P1
_symmetry_Int_Tables_number       1
_symmetry_cell_setting            triclinic
loop_
_symmetry_equiv_pos_as_xyz
'x, y, z'
_cell_length_a     49.555815
_cell_length_b     56.893964
_cell_length_c     59.685876
_cell_angle_alpha  93.831577
_cell_angle_beta   92.834662
_cell_angle_gamma 92.120177
loop_
_atom_site_label
_atom_site_type_symbol
_atom_site_fract_x
_atom_site_fract_y
_atom_site_fract_z
_atom_type_partial_charge
Tb0 Tb 0.01209 0.99154 0.98047 0.0
C1 C 0.03548 0.99459 0.03117 0.0
Tb2 Tb 0.99506 0.03079 0.013 0.0
O3 O 0.03708 0.01634 0.96304 0.0
O4 O 0.03096 0.02235 -0.0028 0.0
O5 O 0.0315 0.98157 0.01191 0.0
C6 C 0.98832 0.07221 0.03523 0.0
O7 O 0.02569 0.01588 0.03444 0.0
C8 C 0.96707 0.99079 0.01329 0.0
C9 C 0.97129 0.02732 0.96252 0.0
O10 O 0.97359 0.05314 0.03683 0.0
O11 O 0.00675 0.068 0.02099 0.0
O12 O 0.97122 0.00554 0.03079 0.0
O13 O 0.97627 -0.00015 -0.00358 0.0
O14 O 0.97679 0.04115 0.98113 0.0
O15 O 0.97992 0.00555 0.96008 0.0
C16 C 0.01814 0.94929 0.95963 0.0
O17 O 0.02847 0.96906 0.95366 0.0
O18 O 0.00448 0.9533 0.97735 0.0
C19 C 0.04075 0.03123 0.98048 0.0
Tb20 Tb 0.99655 0.24555 0.27086 0.0
C21 C 0.05347 0.22846 0.26025 0.0
Tb22 Tb 0.02812 0.27177 0.23707 0.0
O23 O 0.99379 0.2135 0.24845 0.0
O24 O 0.99552 0.24667 0.23542 0.0
O25 O 0.03535 0.23009 0.27581 0.0
C26 C 0.05479 0.28641 0.20274 0.0
O27 O 0.05224 0.24079 0.24207 0.0
C28 C 0.0292 0.29231 0.27757 0.0
C29 C 0.97101 0.28889 0.248 0.0
O30 O 0.06515 0.2848 0.22293 0.0
O31 O 0.02955 0.27941 0.20175 0.0
O32 O 0.03152 0.30375 0.25964 0.0
O33 O 0.0292 0.27056 0.27239 0.0
O34 O 0.9894 0.28778 0.23262 0.0
O35 O 0.97191 0.27599 0.26574 0.0
C36 C 0.96926 0.23147 0.30508 0.0
O37 O 0.96072 0.22927 0.28415 0.0
O38 O 0.99309 0.24182 0.30683 0.0
C39 C 0.99573 0.22486 0.23042 0.0
Tb40 Tb 0.74383 0.28283 0.49302 0.0
C41 C 0.72435 0.28297 0.54309 0.0
Tb42 Tb 0.76297 0.24534 0.5236 0.0
O43 O 0.71747 0.25669 0.47305 0.0
O44 O 0.72613 0.25329 0.50723 0.0
O45 O 0.72826 0.29515 0.52522 0.0
C46 C 0.76977 0.203 0.53898 0.0
O47 O 0.73334 0.26141 0.54483 0.0
C48 C 0.79231 0.28477 0.52668 0.0
C49 C 0.78258 0.24552 0.47333 0.0
O50 O 0.75351 0.20751 0.52231 0.0
O51 O 0.78217 0.22241 0.54725 0.0
O52 O 0.79019 0.27118 0.54325 0.0
O53 O 0.7807 0.27465 0.50926 0.0
O54 O 0.78002 0.23373 0.49165 0.0
O55 O 0.77254 0.26661 0.47125 0.0
C56 C 0.73625 0.32392 0.47528 0.0
O57 O 0.72177 0.30467 0.47015 0.0
O58 O 0.755 0.32001 0.49033 0.0
C59 C 0.71498 0.24318 0.48959 0.0
Tb60 Tb 0.77758 0.02722 0.73199 0.0
C61 C 0.79088 0.98094 0.75509 0.0
Tb62 Tb 0.75084 0.0186 0.7761 0.0
O63 O 0.8169 0.03355 0.75003 0.0
O64 O 0.78108 0.04177 0.76551 0.0
O65 O 0.79122 0.99183 0.73608 0.0
C66 C 0.74136 0.01002 0.81842 0.0
O67 O 0.77795 0.98909 0.77285 0.0
C68 C 0.72273 0.00455 0.73911 0.0
C69 C 0.73782 0.06441 0.75352 0.0
O70 O 0.765 0.01433 0.81084 0.0
O71 O 0.72309 0.01079 0.80219 0.0
O72 O 0.71162 0.01151 0.7575 0.0
O73 O 0.74776 0.00396 0.7428 0.0
O74 O 0.74123 0.05503 0.77317 0.0
O75 O 0.74765 0.05484 0.7348 0.0
C76 C 0.78644 0.03477 0.68936 0.0
O77 O 0.80021 0.04451 0.70681 0.0
O78 O 0.76769 0.02071 0.69591 0.0
C79 C 0.80623 0.04065 0.76863 0.0
Tb80 Tb 0.50149 0.76324 0.27366 0.0
C81 C 0.56262 0.75233 0.26655 0.0
Tb82 Tb 0.53342 0.78903 0.23765 0.0
O83 O 0.49238 0.72951 0.25343 0.0
O84 O 0.51231 0.75725 0.2407 0.0
O85 O 0.54295 0.75327 0.28094 0.0
C86 C 0.55278 0.8063 0.2012 0.0
O87 O 0.56175 0.76295 0.24737 0.0
C88 C 0.53745 0.80844 0.27912 0.0
C89 C 0.47021 0.79335 0.23938 0.0
O90 O 0.55379 0.7845 0.20624 0.0
O91 O 0.54101 0.81852 0.21678 0.0
O92 O 0.55615 0.8101 0.26476 0.0
O93 O 0.51689 0.79796 0.26928 0.0
O94 O 0.49153 0.79385 0.22676 0.0
O95 O 0.47093 0.78538 0.2598 0.0
C96 C 0.47717 0.75306 0.31058 0.0
O97 O 0.46688 0.74938 0.29019 0.0
O98 O 0.50136 0.76275 0.31035 0.0
C99 C 0.50338 0.7366 0.23562 0.0
Tb100 Tb 0.23813 0.78254 0.4906 0.0
C101 C 0.21882 0.78181 0.54088 0.0
Tb102 Tb 0.26409 0.74974 0.52278 0.0
O103 O 0.21543 0.75322 0.47183 0.0
O104 O 0.22576 0.75175 0.50593 0.0
O105 O 0.2188 0.79264 0.52182 0.0
C106 C 0.28012 0.71134 0.54201 0.0
O107 O 0.23339 0.76314 0.54438 0.0
C108 C 0.28533 0.79272 0.52463 0.0
C109 C 0.28366 0.75071 0.47292 0.0
O110 O 0.25766 0.71296 0.53027 0.0
O111 O 0.29351 0.73145 0.5432 0.0
O112 O 0.28518 0.77987 0.54185 0.0
O113 O 0.27618 0.78047 0.50743 0.0
O114 O 0.28126 0.73836 0.49087 0.0
O115 O 0.27098 0.77061 0.47057 0.0
C116 C 0.22417 0.822 0.47227 0.0
O117 O 0.21649 0.80082 0.46451 0.0
O118 O 0.23964 0.82092 0.49028 0.0
C119 C 0.21576 0.73992 0.48873 0.0
Tb120 Tb 0.27313 0.5235 0.72709 0.0
C121 C 0.27606 0.46936 0.73625 0.0
Tb122 Tb 0.2456 0.50477 0.76714 0.0
O123 O 0.30147 0.54455 0.75036 0.0
O124 O 0.28566 0.51194 0.75876 0.0
O125 O 0.27717 0.48545 0.72115 0.0
C126 C 0.23355 0.49494 0.80866 0.0
O127 O 0.26812 0.47427 0.75689 0.0
C128 C 0.21736 0.4985 0.72884 0.0
C129 C 0.23952 0.55849 0.75621 0.0
O130 O 0.2191 0.48844 0.79043 0.0
O131 O 0.25458 0.50726 0.8035 0.0
O132 O 0.21493 0.48489 0.7453 0.0
O133 O 0.23283 0.51595 0.73532 0.0
O134 O 0.23782 0.54247 0.77141 0.0
O135 O 0.24992 0.55395 0.73637 0.0
C136 C 0.29047 0.53398 0.68715 0.0
O137 O 0.30521 0.53474 0.70575 0.0
O138 O 0.266 0.52718 0.69104 0.0
C139 C 0.3001 0.52975 0.76591 0.0
Tb140 Tb 0.01281 0.49205 0.4874 0.0
C141 C 0.03036 0.50312 0.53791 0.0
Tb142 Tb 0.98799 0.5334 0.51309 0.0
O143 O 0.05281 0.5099 0.49114 0.0
O144 O 0.0181 0.52937 0.48937 0.0
O145 O 0.02649 0.48613 0.52166 0.0
C146 C 0.97735 0.57609 0.53047 0.0
O147 O 0.02024 0.52424 0.53663 0.0
C148 C 0.96721 0.49143 0.52018 0.0
C149 C 0.96794 0.52115 0.46249 0.0
O150 O 0.95923 0.55958 0.524 0.0
O151 O 0.00126 0.56853 0.52695 0.0
O152 O 0.96756 0.50938 0.53483 0.0
O153 O 0.97577 0.49833 0.50219 0.0
O154 O 0.96785 0.53665 0.48018 0.0
O155 O 0.98296 0.50224 0.46209 0.0
C156 C 0.02226 0.45224 0.46383 0.0
O157 O 0.02817 0.47331 0.45796 0.0
O158 O 0.011 0.45353 0.48305 0.0
C159 C 0.0434 0.53087 0.49278 0.0
Tb160 Tb 0.24469 0.27869 0.98044 0.0
C161 C 0.22527 0.28472 0.03063 0.0
Tb162 Tb 0.26252 0.24421 0.01489 0.0
O163 O 0.21731 0.25171 0.96275 0.0
O164 O 0.22609 0.25144 -0.00266 0.0
O165 O 0.22799 0.29418 0.01107 0.0
C166 C 0.26658 0.20383 0.03473 0.0
O167 O 0.23462 0.26384 0.03502 0.0
C168 C 0.29244 0.28303 0.01486 0.0
C169 C 0.28271 0.23866 0.96485 0.0
O170 O 0.28149 0.22284 0.0401 0.0
O171 O 0.24952 0.20767 0.01838 0.0
O172 O 0.28975 0.27132 0.03268 0.0
O173 O 0.28101 0.27146 -0.00191 0.0
O174 O 0.27988 0.22907 0.98434 0.0
O175 O 0.27301 0.25941 0.96048 0.0
C176 C 0.24003 0.31877 0.9602 0.0
O177 O 0.22524 0.29964 0.95515 0.0
O178 O 0.25739 0.31524 0.97644 0.0
C179 C 0.21452 0.24 0.98054 0.0
Tb180 Tb 0.25867 0.00353 0.2176 0.0
C181 C 0.26893 0.95004 0.2258 0.0
Tb182 Tb 0.2355 0.98136 0.25852 0.0
O183 O 0.28748 0.02516 0.24008 0.0
O184 O 0.27388 0.99187 0.24843 0.0
O185 O 0.26696 0.96631 0.21087 0.0
C186 C 0.22472 0.97049 0.29994 0.0
O187 O 0.26197 0.9539 0.24693 0.0
C188 C 0.2062 0.97455 0.22115 0.0
C189 C 0.22465 0.03512 0.24967 0.0
O190 O 0.21389 0.96007 0.28151 0.0
O191 O 0.24168 0.98704 0.29509 0.0
O192 O 0.20556 0.96012 0.23706 0.0
O193 O 0.22021 0.99276 0.22776 0.0
O194 O 0.22442 0.01824 0.26407 0.0
O195 O 0.23418 0.03211 0.22933 0.0
C196 C 0.26915 0.01669 0.17674 0.0
O197 O 0.28575 0.01918 0.19431 0.0
O198 O 0.24682 0.00644 0.18213 0.0
C199 C 0.2876 0.01008 0.25547 0.0
Tb200 Tb 0.47212 0.24021 0.7558 0.0
C201 C 0.53465 0.2332 0.74813 0.0
Tb202 Tb 0.49967 0.26851 0.72302 0.0
O203 O 0.44937 0.21891 0.72904 0.0
O204 O 0.48791 0.23238 0.72378 0.0
O205 O 0.51397 0.22956 0.76099 0.0
C206 C 0.51751 0.28843 0.68707 0.0
O207 O 0.53282 0.24624 0.73062 0.0
C208 C 0.50483 0.28615 0.76499 0.0
C209 C 0.4378 0.27485 0.72968 0.0
O210 O 0.51489 0.29923 0.7066 0.0
O211 O 0.50984 0.26648 0.68777 0.0
O212 O 0.52333 0.28811 0.75052 0.0
O213 O 0.48396 0.27616 0.75519 0.0
O214 O 0.45727 0.27524 0.71526 0.0
O215 O 0.44113 0.26527 0.74922 0.0
C216 C 0.4566 0.22102 0.7928 0.0
O217 O 0.44566 0.2164 0.77276 0.0
O218 O 0.47614 0.2367 0.7921 0.0
C219 C 0.4674 0.22146 0.71429 0.0
Tb220 Tb 0.97519 0.73338 0.77175 0.0
C221 C 0.03409 0.72432 0.75891 0.0
Tb222 Tb -0.00072 0.76373 0.7372 0.0
O223 O 0.97543 0.70229 0.74811 0.0
O224 O 0.97022 0.73572 0.73659 0.0
O225 O 0.01641 0.72238 0.77468 0.0
C226 C 0.02175 0.78085 0.70185 0.0
O227 O 0.02991 0.73731 0.74147 0.0
C228 C 0.00043 0.78334 0.77797 0.0
C229 C 0.94162 0.7744 0.75178 0.0
O230 O 0.0017 0.76542 0.7008 0.0
O231 O 0.02909 0.7865 0.7227 0.0
O232 O -0.00118 0.79514 0.7601 0.0
O233 O 0.00379 0.76192 0.77249 0.0
O234 O 0.95813 0.77515 0.73499 0.0
O235 O 0.94624 0.76142 0.76918 0.0
C236 C 0.95305 0.71502 0.80666 0.0
O237 O 0.94269 0.71341 0.78622 0.0
O238 O 0.97571 0.72728 0.80755 0.0
C239 C 0.97337 0.71449 0.73055 0.0
Tb240 Tb 0.76255 0.51853 0.22799 0.0
C241 C 0.77757 0.46874 0.24218 0.0
Tb242 Tb 0.73701 0.50052 0.26978 0.0
O243 O 0.80258 0.52044 0.24522 0.0
O244 O 0.76784 0.52541 0.26319 0.0
O245 O 0.77654 0.48286 0.22536 0.0
C246 C 0.72978 0.48584 0.3106 0.0
O247 O 0.76548 0.47328 0.2613 0.0
C248 C 0.70607 0.49595 0.23294 0.0
C249 C 0.72195 0.5501 0.25558 0.0
O250 O 0.71551 0.4786 0.29247 0.0
O251 O 0.74805 0.50125 0.30572 0.0
O252 O 0.69666 0.49724 0.2529 0.0
O253 O 0.73135 0.49415 0.23453 0.0
O254 O 0.72414 0.53646 0.2727 0.0
O255 O 0.73249 0.54477 0.23589 0.0
C256 C 0.77278 0.53552 0.18866 0.0
O257 O 0.78072 0.54526 0.20825 0.0
O258 O 0.7592 0.51602 0.19115 0.0
C259 C 0.79304 0.52332 0.26504 0.0
Tb260 Tb 0.73507 0.786 0.98234 0.0
C261 C 0.71493 0.79447 0.03201 0.0
Tb262 Tb 0.7504 0.75247 0.0182 0.0
O263 O 0.70879 0.75836 0.96439 0.0
O264 O 0.71491 0.75974 -0.00056 0.0
O265 O 0.72064 0.80381 0.01291 0.0
C266 C 0.75377 0.71285 0.03927 0.0
O267 O 0.72139 0.77275 0.03637 0.0
C268 C 0.78205 0.79032 0.0177 0.0
C269 C 0.77198 0.74451 0.96866 0.0
O270 O 0.7667 0.73263 0.04564 0.0
O271 O 0.73887 0.71547 0.02123 0.0
O272 O 0.77841 0.77922 0.03573 0.0
O273 O 0.77053 0.77858 0.0011 0.0
O274 O 0.76834 0.73598 0.98854 0.0
O275 O 0.76266 0.76505 0.96311 0.0
C276 C 0.73105 0.82501 0.96036 0.0
O277 O 0.75216 0.81921 0.97206 0.0
O278 O 0.71215 0.80861 0.96065 0.0
C279 C 0.70431 0.74772 0.98257 0.0
Tb280 Tb 0.52577 0.00403 0.51262 0.0
C281 C 0.51595 0.98336 0.46182 0.0
Tb282 Tb 0.4815 0.02319 0.48349 0.0
O283 O 0.49603 0.98765 0.53311 0.0
O284 O 0.48725 0.99132 0.49903 0.0
O285 O 0.53336 0.98667 0.47957 0.0
C286 C 0.43457 0.03387 0.46359 0.0
O287 O 0.49271 0.99418 0.46075 0.0
C288 C 0.52997 0.04267 0.48 0.0
C289 C 0.49106 0.04389 0.53431 0.0
O290 O 0.45723 0.04591 0.4631 0.0
O291 O 0.43831 0.01595 0.47552 0.0
O292 O 0.51171 0.0401 0.46355 0.0
O293 O 0.51971 0.03593 0.49745 0.0
O294 O 0.47414 0.04126 0.51622 0.0
O295 O 0.51392 0.0325 0.53576 0.0
C296 C 0.57273 0.99375 0.53268 0.0
O297 O 0.5513 0.97984 0.53021 0.0
O298 O 0.56777 0.01329 0.52359 0.0
C299 C 0.47745 0.98506 0.5169 0.0
Tb300 Tb 0.51213 0.49311 0.9841 0.0
C301 C 0.53939 0.50172 0.03195 0.0
Tb302 Tb 0.49194 0.53368 0.01444 0.0
O303 O 0.55156 0.51147 0.98273 0.0
O304 O 0.51665 0.53049 0.98657 0.0
O305 O 0.53383 0.48541 0.01521 0.0
C306 C 0.48885 0.5713 0.04364 0.0
O307 O 0.52783 0.52244 0.03295 0.0
C308 C 0.46172 0.49469 0.01209 0.0
C309 C 0.46424 0.52492 0.96694 0.0
O310 O 0.48058 0.54994 0.04676 0.0
O311 O 0.49841 0.57163 0.0238 0.0
O312 O 0.45248 0.51558 0.01594 0.0
O313 O 0.48719 0.49629 0.0119 0.0
O314 O 0.47017 0.54133 0.9835 0.0
O315 O 0.47578 0.50416 0.96585 0.0
C316 C 0.51597 0.45584 0.95451 0.0
O317 O 0.52299 0.4775 0.95135 0.0
O318 O 0.50718 0.45503 0.97459 0.0
C319 C 0.54208 0.53229 0.98637 0.0
H320 H 0.0199 0.11246 0.03498 0.0
H321 H 0.02177 0.14616 0.063 0.0
H322 H 0.95643 0.1139 0.09678 0.0
H323 H 0.95404 0.08059 0.06861 0.0
H324 H 0.953 0.16251 0.09591 0.0
H325 H 0.05558 0.13713 0.12548 0.0
H326 H 0.05175 0.14381 0.09653 0.0
H327 H 0.03421 0.11838 0.10592 0.0
C328 C 0.00563 0.11285 0.04817 0.0
C329 C 0.98701 0.09391 0.04986 0.0
C330 C 0.00681 0.13199 0.06419 0.0
C331 C 0.98959 0.13225 0.08217 0.0
C332 C 0.96994 0.11398 0.08305 0.0
H333 H 0.00106 0.17857 0.2187 0.0
H334 H 0.00088 0.15947 0.18078 0.0
C335 C 0.96864 0.09496 0.06701 0.0
C336 C 0.99324 0.15028 0.10121 0.0
H337 H 0.03589 0.16763 0.14641 0.0
C338 C 0.97125 0.16397 0.1068 0.0
C339 C 0.01705 0.15188 0.11543 0.0
C340 C 0.04096 0.13694 0.11073 0.0
C341 C 0.972 0.17851 0.12678 0.0
C342 C 0.99554 0.1796 0.14125 0.0
C343 C 0.01795 0.16675 0.13516 0.0
C344 C 0.99627 0.19175 0.16395 0.0
C345 C 0.94709 0.19152 0.13285 0.0
C346 C 0.99398 0.21625 0.167 0.0
C347 C 0.9939 0.22717 0.18869 0.0
C348 C 0.99634 0.21372 0.20754 0.0
C349 C -0.00094 0.1893 0.20442 0.0
C350 C -0.00094 0.17841 0.18281 0.0
H351 H 0.92916 0.18561 0.12171 0.0
H352 H 0.94231 0.18899 0.15053 0.0
H353 H 0.95089 0.21066 0.13128 0.0
H354 H 0.99215 0.22686 0.15264 0.0
H355 H 0.99155 0.24601 0.1907 0.0
H356 H 0.7854 0.25947 0.43083 0.0
H357 H 0.81907 0.24895 0.40387 0.0
H358 H 0.85359 0.20105 0.44938 0.0
H359 H 0.81961 0.21119 0.47644 0.0
H360 H 0.87433 0.25776 0.41644 0.0
H361 H 0.85146 0.1639 0.38681 0.0
H362 H 0.82655 0.18229 0.3994 0.0
H363 H 0.85304 0.17103 0.4167 0.0
C364 C 0.79982 0.24636 0.43496 0.0
C365 C 0.80008 0.23635 0.45583 0.0
C366 C 0.81898 0.24034 0.41953 0.0
C367 C 0.83872 0.22426 0.4247 0.0
C368 C 0.83825 0.21327 0.44501 0.0
H369 H 0.98553 0.23372 0.34943 0.0
H370 H 0.95701 0.2276 0.38114 0.0
C371 C 0.81889 0.21916 0.46046 0.0
C372 C 0.86141 0.22132 0.40988 0.0
H373 H 0.88953 0.18275 0.37247 0.0
C374 C 0.87787 0.24133 0.40694 0.0
C375 C 0.86581 0.1998 0.39769 0.0
C376 C 0.84825 0.178 0.4001 0.0
C377 C 0.89799 0.24074 0.39136 0.0
C378 C 0.90219 0.21932 0.37882 0.0
C379 C 0.88635 0.19904 0.38232 0.0
C380 C 0.92068 0.21856 0.36022 0.0
C381 C 0.91352 0.26338 0.38759 0.0
C382 C 0.90993 0.21426 0.33809 0.0
C383 C 0.92617 0.21747 0.32007 0.0
C384 C 0.95332 0.22513 0.32397 0.0
C385 C 0.96452 0.22805 0.34608 0.0
C386 C 0.9483 0.2246 0.36414 0.0
H387 H 0.90403 0.27909 0.39539 0.0
H388 H 0.93435 0.26278 0.3952 0.0
H389 H 0.91495 0.26566 0.36935 0.0
H390 H 0.88864 0.20958 0.33477 0.0
H391 H 0.91716 0.21497 0.30312 0.0
H392 H 0.82077 0.06815 0.67535 0.0
H393 H 0.81827 0.08586 0.6393 0.0
H394 H 0.75475 0.03516 0.61507 0.0
H395 H 0.75657 0.01781 0.65167 0.0
H396 H 0.82201 0.07246 0.59464 0.0
H397 H 0.7168 0.09663 0.61298 0.0
H398 H 0.73864 0.08397 0.63357 0.0
H399 H 0.72338 0.06578 0.61022 0.0
C400 C 0.80662 0.0605 0.66221 0.0
C401 C 0.78853 0.04195 0.66632 0.0
C402 C 0.80528 0.07056 0.64157 0.0
C403 C 0.78592 0.06215 0.6247 0.0
C404 C 0.7694 0.04224 0.62808 0.0
H405 H 0.74135 0.16248 0.52492 0.0
H406 H 0.74547 0.12364 0.53998 0.0
C407 C 0.77056 0.03229 0.64889 0.0
C408 C 0.78131 0.07631 0.60507 0.0
H409 H 0.73766 0.11577 0.58484 0.0
C410 C 0.80335 0.08154 0.5921 0.0
C411 C 0.75685 0.08804 0.60171 0.0
C412 C 0.73256 0.08351 0.61538 0.0
C413 C 0.80228 0.09944 0.57708 0.0
C414 C 0.77864 0.11242 0.57515 0.0
C415 C 0.7558 0.1058 0.58655 0.0
C416 C 0.77825 0.13484 0.56406 0.0
C417 C 0.82683 0.10499 0.56413 0.0
C418 C 0.79522 0.15395 0.57276 0.0
C419 C 0.79274 0.17612 0.56438 0.0
C420 C 0.77322 0.17948 0.5472 0.0
C421 C 0.75659 0.16027 0.53818 0.0
C422 C 0.75898 0.13811 0.54666 0.0
H423 H 0.83928 0.08928 0.56162 0.0
H424 H 0.82099 0.11139 0.54747 0.0
H425 H 0.83956 0.119 0.5738 0.0
H426 H 0.80975 0.1519 0.58659 0.0
H427 H 0.80575 0.19069 0.57159 0.0
H428 H 0.95627 0.0039 0.92241 0.0
H429 H 0.92457 0.01599 0.89341 0.0
H430 H 0.91318 0.08104 0.93249 0.0
H431 H 0.94518 0.0691 0.96198 0.0
H432 H 0.86739 0.02997 0.90334 0.0
H433 H 0.93246 0.09698 0.8651 0.0
H434 H 0.94728 0.07379 0.88023 0.0
H435 H 0.93082 0.09702 0.89524 0.0
C436 C 0.9472 0.02084 0.92493 0.0
C437 C 0.95316 0.0355 0.94457 0.0
C438 C 0.92908 0.02769 0.90832 0.0
C439 C 0.91665 0.04932 0.91095 0.0
C440 C 0.92275 0.06429 0.93027 0.0
H441 H 0.78699 0.06148 0.80665 0.0
H442 H 0.81141 0.06933 0.84327 0.0
C443 C 0.94098 0.05743 0.94703 0.0
C444 C 0.89683 0.05541 0.89335 0.0
H445 H 0.89247 0.08335 0.84465 0.0
C446 C 0.87239 0.04209 0.89074 0.0
C447 C 0.90377 0.07116 0.8771 0.0
C448 C 0.93 0.08564 0.87936 0.0
C449 C 0.85544 0.04287 0.87137 0.0
C450 C 0.86313 0.05764 0.85445 0.0
C451 C 0.88672 0.07212 0.85776 0.0
C452 C 0.84901 0.05571 0.83206 0.0
C453 C 0.83057 0.02658 0.8684 0.0
C454 C 0.86241 0.04615 0.81361 0.0
C455 C 0.8486 0.04171 0.79276 0.0
C456 C 0.8212 0.04675 0.79015 0.0
C457 C 0.80806 0.05716 0.8084 0.0
C458 C 0.82193 0.06168 0.82925 0.0
H459 H 0.82969 0.01387 0.88172 0.0
H460 H 0.81221 0.03714 0.86902 0.0
H461 H 0.83 0.01649 0.85179 0.0
H462 H 0.88333 0.04139 0.81554 0.0
H463 H 0.85914 0.03377 0.77888 0.0
H464 H 0.06898 0.95746 0.02812 0.0
H465 H 0.09948 0.94421 0.05788 0.0
H466 H 0.07176 0.99831 0.10434 0.0
H467 H 0.04137 0.01173 0.07488 0.0
H468 H 0.14106 0.97489 0.08254 0.0
H469 H 0.06718 0.93603 0.13775 0.0
H470 H 0.05946 0.93982 0.10831 0.0
H471 H 0.05819 0.96437 0.12878 0.0
C472 C 0.06918 0.96637 0.04474 0.0
C473 C 0.05285 0.98569 0.04918 0.0
C474 C 0.08658 0.95877 0.06166 0.0
C475 C 0.08749 0.97014 0.08324 0.0
C476 C 0.07093 0.98913 0.0878 0.0
H477 H 0.1947 0.00742 0.19161 0.0
H478 H 0.16902 0.00133 0.15556 0.0
C479 C 0.05375 0.99686 0.07092 0.0
C480 C 0.10705 0.96356 0.10082 0.0
H481 H 0.1106 0.94875 0.15517 0.0
C482 C 0.13458 0.96863 0.09827 0.0
C483 C 0.09845 0.95508 0.12109 0.0
C484 C 0.06922 0.94827 0.12413 0.0
C485 C 0.15357 0.96723 0.11625 0.0
C486 C 0.14456 0.96082 0.13718 0.0
C487 C 0.11736 0.9539 0.13913 0.0
C488 C 0.16219 0.96376 0.15784 0.0
C489 C 0.1829 0.97345 0.11293 0.0
C490 C 0.16632 0.94472 0.17119 0.0
C491 C 0.18093 0.9482 0.19181 0.0
C492 C 0.19143 0.97077 0.19928 0.0
C493 C 0.18729 0.98978 0.18592 0.0
C494 C 0.17274 0.98629 0.16533 0.0
H495 H 0.18781 0.97012 0.09506 0.0
H496 H 0.18698 0.9925 0.11762 0.0
H497 H 0.19653 0.96325 0.12358 0.0
H498 H 0.15798 0.92728 0.16577 0.0
H499 H 0.18388 0.93332 0.20195 0.0
H500 H 0.04505 0.44844 0.42356 0.0
H501 H 0.04766 0.41299 0.39849 0.0
H502 H 0.01067 0.37143 0.44744 0.0
H503 H 0.00766 0.40713 0.47262 0.0
H504 H 0.07186 0.36896 0.40446 0.0
H505 H 0.95966 0.36072 0.39034 0.0
H506 H 0.97649 0.38718 0.40339 0.0
H507 H 0.97348 0.36129 0.41882 0.0
C508 C 0.0377 0.43172 0.42907 0.0
C509 C 0.02596 0.43046 0.44987 0.0
C510 C 0.03929 0.41149 0.4148 0.0
C511 C 0.02912 0.3897 0.42107 0.0
C512 C 0.01833 0.38818 0.44224 0.0
H513 H 0.03635 0.2714 0.31723 0.0
H514 H 0.03593 0.29059 0.35541 0.0
C515 C 0.0167 0.4085 0.45658 0.0
C516 C 0.02843 0.36918 0.40452 0.0
H517 H 0.98547 0.33727 0.36658 0.0
C518 C 0.053 0.36152 0.39653 0.0
C519 C 0.00371 0.3597 0.39421 0.0
C520 C 0.97676 0.36763 0.40195 0.0
C521 C 0.0535 0.34563 0.37759 0.0
C522 C 0.02884 0.33729 0.36654 0.0
C523 C 0.00427 0.34374 0.37531 0.0
C524 C 0.02822 0.32511 0.34398 0.0
C525 C 0.08028 0.3391 0.36848 0.0
C526 C 0.02384 0.33827 0.32521 0.0
C527 C 0.02405 0.32746 0.3036 0.0
C528 C 0.02848 0.30329 0.30047 0.0
C529 C 0.03258 0.29002 0.3193 0.0
C530 C 0.03247 0.30092 0.341 0.0
H531 H 0.0977 0.34645 0.37952 0.0
H532 H 0.08142 0.31962 0.36663 0.0
H533 H 0.08198 0.34579 0.35153 0.0
H534 H 0.02057 0.357 0.32732 0.0
H535 H 0.02079 0.33802 0.28933 0.0
H536 H 0.7053 0.26119 0.57888 0.0
H537 H 0.67004 0.27456 0.60319 0.0
H538 H 0.66706 0.33972 0.57031 0.0
H539 H 0.70216 0.32639 0.54559 0.0
H540 H 0.66494 0.315 0.63261 0.0
H541 H 0.58987 0.31012 0.55956 0.0
H542 H 0.6226 0.29746 0.55782 0.0
H543 H 0.61968 0.32882 0.55799 0.0
C544 C 0.69749 0.27851 0.57698 0.0
C545 C 0.70623 0.29255 0.56005 0.0
C546 C 0.67735 0.28614 0.59092 0.0
C547 C 0.66568 0.30792 0.58821 0.0
C548 C 0.67552 0.32266 0.57232 0.0
H549 H 0.54111 0.33239 0.68621 0.0
H550 H 0.57499 0.3446 0.66023 0.0
C551 C 0.69563 0.31501 0.55829 0.0
C552 C 0.64194 0.31407 0.60105 0.0
H553 H 0.57319 0.31573 0.59544 0.0
C554 C 0.64489 0.31572 0.62457 0.0
C555 C 0.61591 0.31487 0.59033 0.0
C556 C 0.6116 0.3126 0.56505 0.0
C557 C 0.62229 0.31659 0.63776 0.0
C558 C 0.59615 0.31627 0.62702 0.0
C559 C 0.59332 0.31616 0.60353 0.0
C560 C 0.57179 0.31177 0.63958 0.0
C561 C 0.6265 0.316 0.66295 0.0
C562 C 0.55764 0.28996 0.6356 0.0
C563 C 0.53823 0.28307 0.65021 0.0
C564 C 0.53277 0.29791 0.66901 0.0
C565 C 0.54518 0.32059 0.67188 0.0
C566 C 0.56457 0.32753 0.65716 0.0
H567 H 0.64784 0.31298 0.6682 0.0
H568 H 0.6209 0.33309 0.67115 0.0
H569 H 0.61341 0.30188 0.66923 0.0
H570 H 0.56288 0.2776 0.62205 0.0
H571 H 0.52881 0.26554 0.6476 0.0
H572 H 0.7792 0.99893 0.85011 0.0
H573 H 0.77206 0.9729 0.8805 0.0
H574 H 0.68601 0.97167 0.86529 0.0
H575 H 0.69304 0.99754 0.83473 0.0
H576 H 0.73661 0.97083 0.91955 0.0
H577 H 0.71188 0.90352 0.84864 0.0
H578 H 0.72809 0.93172 0.84459 0.0
H579 H 0.69254 0.92965 0.84907 0.0
C580 C 0.75872 0.99373 0.85374 0.0
C581 C 0.73669 -0.00013 0.83995 0.0
C582 C 0.75467 0.9789 0.87109 0.0
C583 C 0.72857 0.97013 0.87478 0.0
C584 C 0.70632 0.97813 0.86245 0.0
H585 H 0.68679 0.84083 0.93801 0.0
H586 H 0.6834 0.87801 0.91969 0.0
C587 C 0.71036 0.99289 0.84507 0.0
C588 C 0.72517 0.95002 0.88889 0.0
H589 H 0.71216 0.89059 0.88505 0.0
C590 C 0.73101 0.9533 0.91213 0.0
C591 C 0.71798 0.92722 0.879 0.0
C592 C 0.71243 0.92263 0.85395 0.0
C593 C 0.72995 0.93419 0.92582 0.0
C594 C 0.72346 0.91128 0.91582 0.0
C595 C 0.71702 0.90819 0.89266 0.0
C596 C 0.72476 0.88997 0.92865 0.0
C597 C 0.73576 0.9387 0.95082 0.0
C598 C 0.74918 0.88435 0.93956 0.0
C599 C 0.75112 0.86322 0.95 0.0
C600 C 0.72876 0.84726 0.94943 0.0
C601 C 0.70431 0.85287 0.93859 0.0
C602 C 0.70234 0.87408 0.92824 0.0
H603 H 0.73167 0.95716 0.95654 0.0
H604 H 0.72345 0.92655 0.9604 0.0
H605 H 0.75745 0.93588 0.95487 0.0
H606 H 0.76695 0.89602 0.93953 0.0
H607 H 0.77022 0.85925 0.95826 0.0
H608 H 0.18437 0.31439 0.0228 0.0
H609 H 0.15196 0.32858 0.04985 0.0
H610 H 0.1963 0.29612 0.10273 0.0
H611 H 0.22837 0.28146 0.07582 0.0
H612 H 0.1249 0.29027 0.07486 0.0
H613 H 0.17358 0.36382 0.12995 0.0
H614 H 0.18217 0.35756 0.10109 0.0
H615 H 0.1951 0.33995 0.12276 0.0
C616 C 0.18758 0.31081 0.04032 0.0
C617 C 0.20864 0.29663 0.04727 0.0
C618 C 0.16913 0.31898 0.05568 0.0
C619 C 0.17204 0.31357 0.0782 0.0
C620 C 0.19407 0.30075 0.08543 0.0
H621 H 0.10903 0.29068 0.19981 0.0
H622 H 0.13362 0.30251 0.16765 0.0
C623 C 0.21218 0.29221 0.07005 0.0
C624 C 0.14993 0.31727 0.0934 0.0
H625 H 0.13766 0.3416 0.14537 0.0
C626 C 0.12712 0.30193 0.09004 0.0
C627 C 0.15326 0.33246 0.11305 0.0
C628 C 0.17725 0.34956 0.11694 0.0
C629 C 0.10874 0.29967 0.10691 0.0
C630 C 0.11293 0.31387 0.1273 0.0
C631 C 0.13456 0.33068 0.12977 0.0
C632 C 0.09765 0.30915 0.14727 0.0
C633 C 0.08653 0.28066 0.10344 0.0
C634 C 0.06931 0.30936 0.14662 0.0
C635 C 0.05524 0.30193 0.16475 0.0
C636 C 0.06941 0.29491 0.18396 0.0
C637 C 0.09773 0.29591 0.18508 0.0
C638 C 0.11175 0.30281 0.1668 0.0
H639 H 0.08968 0.26822 0.08874 0.0
H640 H 0.0852 0.27037 0.11854 0.0
H641 H 0.06687 0.28892 0.10041 0.0
H642 H 0.05808 0.31479 0.13195 0.0
H643 H 0.03334 0.30163 0.16374 0.0
H644 H 0.69294 0.45299 0.32244 0.0
H645 H 0.69262 0.43371 0.35783 0.0
H646 H 0.76135 0.47776 0.38387 0.0
H647 H 0.76191 0.49698 0.34834 0.0
H648 H 0.76913 0.43047 0.38573 0.0
H649 H 0.67168 0.45236 0.42161 0.0
H650 H 0.66763 0.4419 0.39256 0.0
H651 H 0.68659 0.46907 0.40032 0.0
C652 C 0.70761 0.45887 0.33589 0.0
C653 C 0.72749 0.47635 0.33273 0.0
C654 C 0.70727 0.44801 0.35616 0.0
C655 C 0.7267 0.45459 0.37358 0.0
C656 C 0.74602 0.47264 0.3707 0.0
H657 H 0.76635 0.36479 0.4841 0.0
H658 H 0.76416 0.4005 0.46332 0.0
C659 C 0.74634 0.48354 0.35043 0.0
C660 C 0.72893 0.44039 0.39337 0.0
H661 H 0.69187 0.41694 0.4337 0.0
C662 C 0.75252 0.42789 0.3966 0.0
C663 C 0.70718 0.43712 0.40744 0.0
C664 C 0.68195 0.45102 0.40547 0.0
C665 C 0.75425 0.41094 0.41252 0.0
C666 C 0.73194 0.40677 0.42581 0.0
C667 C 0.70889 0.42017 0.42341 0.0
C668 C 0.73114 0.38688 0.44045 0.0
C669 C 0.77925 0.39659 0.41396 0.0
C670 C 0.71258 0.3679 0.43499 0.0
C671 C 0.71366 0.34765 0.44688 0.0
C672 C 0.73334 0.34612 0.46438 0.0
C673 C 0.75111 0.36554 0.47054 0.0
C674 C 0.74994 0.38586 0.45869 0.0
H675 H 0.79245 0.39915 0.39973 0.0
H676 H 0.79115 0.40199 0.42982 0.0
H677 H 0.77366 0.37752 0.41411 0.0
H678 H 0.69792 0.36841 0.42096 0.0
H679 H 0.69968 0.33293 0.44191 0.0
H680 H 0.61 0.02697 0.55007 0.0
H681 H 0.64165 0.02349 0.58214 0.0
H682 H 0.61995 0.94928 0.58204 0.0
H683 H 0.58718 0.95303 0.55055 0.0
H684 H 0.6134 0.96968 0.62113 0.0
H685 H 0.71411 0.99931 0.59607 0.0
H686 H 0.68992 0.02104 0.59045 0.0
H687 H 0.68635 0.99227 0.5757 0.0
C688 C 0.61259 0.00977 0.55647 0.0
C689 C 0.5961 0.99028 0.54803 0.0
C690 C 0.63086 0.00775 0.57472 0.0
C691 C 0.6334 0.98607 0.58443 0.0
C692 C 0.61834 0.96618 0.57482 0.0
H693 H 0.74068 0.97792 0.70408 0.0
H694 H 0.71924 0.97106 0.66626 0.0
C695 C 0.5997 0.9683 0.55683 0.0
C696 C 0.64827 0.98508 0.60648 0.0
H697 H 0.7069 0.00304 0.63608 0.0
C698 C 0.63405 0.97656 0.62425 0.0
C699 C 0.67525 0.99394 0.61062 0.0
C700 C 0.69232 0.0019 0.59209 0.0
C701 C 0.64564 0.97747 0.64617 0.0
C702 C 0.67187 0.98782 0.65057 0.0
C703 C 0.68658 0.99545 0.6327 0.0
C704 C 0.68423 0.99128 0.67364 0.0
C705 C 0.62959 0.96741 0.6644 0.0
C706 C 0.67161 0.00493 0.69029 0.0
C707 C 0.68373 0.00872 0.71192 0.0
C708 C 0.70884 0.99927 0.717 0.0
C709 C 0.72134 0.9855 0.70043 0.0
C710 C 0.70917 0.98159 0.67887 0.0
H711 H 0.61413 0.95393 0.65731 0.0
H712 H 0.64295 0.95924 0.67692 0.0
H713 H 0.61886 0.98178 0.67323 0.0
H714 H 0.65263 0.013 0.68643 0.0
H715 H 0.67389 0.01958 0.72443 0.0
H716 H 0.04262 0.94004 0.92055 0.0
H717 H 0.03976 0.9032 0.89689 0.0
H718 H 0.99359 0.86992 0.94633 0.0
H719 H 0.99586 0.90706 0.96991 0.0
H720 H 0.05441 0.85705 0.90328 0.0
H721 H 0.94285 0.86351 0.88993 0.0
H722 H 0.96401 0.88762 0.9029 0.0
H723 H 0.95595 0.86258 0.91846 0.0
C724 C 0.03213 0.9248 0.92648 0.0
C725 C 0.01921 0.92637 0.94687 0.0
C726 C 0.03059 0.90376 0.91302 0.0
C727 C 0.01614 0.88397 0.91974 0.0
C728 C 0.00444 0.88513 0.94069 0.0
H729 H 0.01378 0.76331 0.81733 0.0
H730 H 0.01585 0.78283 0.85548 0.0
C731 C 0.00585 0.90627 0.95415 0.0
C732 C 0.01181 0.863 0.90377 0.0
H733 H 0.96369 0.83491 0.86763 0.0
C734 C 0.03454 0.85178 0.89578 0.0
C735 C 0.9858 0.8563 0.89405 0.0
C736 C 0.96071 0.86816 0.90159 0.0
C737 C 0.03217 0.8351 0.87731 0.0
C738 C 0.00633 0.82935 0.86687 0.0
C739 C 0.98342 0.83936 0.87582 0.0
C740 C 0.00315 0.81641 0.84455 0.0
C741 C 0.05745 0.82508 0.86807 0.0
C742 C 0.99465 0.82867 0.82603 0.0
C743 C 0.99334 0.81763 0.80446 0.0
C744 C 0.00042 0.79408 0.80104 0.0
C745 C 0.00816 0.78149 0.81962 0.0
C746 C 0.00951 0.79262 0.84132 0.0
H747 H 0.07614 0.83334 0.87673 0.0
H748 H 0.05736 0.80585 0.87017 0.0
H749 H 0.05804 0.82764 0.84982 0.0
H750 H 0.98967 0.84705 0.8282 0.0
H751 H 0.98713 0.82765 0.79042 0.0
H752 H 0.05998 0.05859 0.01772 0.0
H753 H 0.08873 0.09476 0.0189 0.0
H754 H 0.09004 0.08877 0.94655 0.0
H755 H 0.06087 0.05295 0.94527 0.0
H756 H 0.14068 0.10095 0.0029 0.0
H757 H 0.06781 0.15666 0.9597 0.0
H758 H 0.0577 0.12924 0.97106 0.0
H759 H 0.07311 0.12911 0.9444 0.0
C760 C 0.06612 0.06519 0.00206 0.0
C761 C 0.05792 0.05314 0.98137 0.0
C762 C 0.08267 0.08576 0.00277 0.0
C763 C 0.09122 0.09469 0.9828 0.0
C764 C 0.08325 0.08251 0.96215 0.0
H765 H 0.19274 0.21136 0.94537 0.0
H766 H 0.16346 0.17586 0.94685 0.0
C767 C 0.06672 0.06197 0.96144 0.0
C768 C 0.10901 0.1164 0.98351 0.0
H769 H 0.11327 0.17173 0.96463 0.0
C770 C 0.13464 0.11651 0.99469 0.0
C771 C 0.10109 0.13669 0.97281 0.0
C772 C 0.07334 0.1381 0.96149 0.0
C773 C 0.15287 0.13609 0.99486 0.0
C774 C 0.14508 0.15625 0.98385 0.0
C775 C 0.1193 0.15623 0.97294 0.0
C776 C 0.16338 0.17749 0.98318 0.0
C777 C 0.18062 0.13472 0.00622 0.0
C778 C 0.17287 0.19038 0.00309 0.0
C779 C 0.1896 0.21065 0.00226 0.0
C780 C 0.19708 0.21845 0.9815 0.0
C781 C 0.18737 0.2057 0.9616 0.0
C782 C 0.17066 0.18543 0.96243 0.0
H783 H 0.18584 0.11622 0.00875 0.0
H784 H 0.19635 0.14287 0.99625 0.0
H785 H 0.18111 0.14445 0.02299 0.0
H786 H 0.16702 0.18497 0.01927 0.0
H787 H 0.1964 0.22038 0.01786 0.0
H788 H 0.71371 0.58313 0.22497 0.0
H789 H 0.69051 0.62005 0.2303 0.0
H790 H 0.67448 0.60433 0.29818 0.0
H791 H 0.69796 0.5675 0.29321 0.0
H792 H 0.63693 0.62478 0.24091 0.0
H793 H 0.70673 0.67206 0.30601 0.0
H794 H 0.7162 0.64631 0.28931 0.0
H795 H 0.69517 0.64317 0.31269 0.0
C796 C 0.7054 0.58754 0.24109 0.0
C797 C 0.70775 0.57237 0.25868 0.0
C798 C 0.69219 0.60866 0.2441 0.0
C799 C 0.68122 0.61505 0.26474 0.0
C800 C 0.68337 0.59994 0.2823 0.0
H801 H 0.56873 0.7223 0.30036 0.0
H802 H 0.60024 0.69028 0.30199 0.0
C803 C 0.69661 0.57881 0.27933 0.0
C804 C 0.66622 0.63692 0.2674 0.0
H805 H 0.66521 0.69007 0.29754 0.0
C806 C 0.64317 0.63909 0.25322 0.0
C807 C 0.67444 0.65547 0.28356 0.0
C808 C 0.69962 0.65432 0.29866 0.0
C809 C 0.62796 0.65931 0.25484 0.0
C810 C 0.63619 0.67783 0.27094 0.0
C811 C 0.6591 0.67571 0.28525 0.0
C812 C 0.62105 0.69958 0.27265 0.0
C813 C 0.60308 0.66077 0.23943 0.0
C814 C 0.62324 0.71579 0.25613 0.0
C815 C 0.60534 0.73407 0.2551 0.0
C816 C 0.58489 0.73631 0.27056 0.0
C817 C 0.58413 0.72102 0.28813 0.0
C818 C 0.60211 0.70274 0.28913 0.0
H819 H 0.59742 0.64365 0.23002 0.0
H820 H 0.5857 0.6665 0.24921 0.0
H821 H 0.60691 0.67411 0.22709 0.0
H822 H 0.63788 0.71355 0.24334 0.0
H823 H 0.60669 0.74563 0.24147 0.0
H824 H 0.31027 0.81958 0.55984 0.0
H825 H 0.33859 0.85562 0.55811 0.0
H826 H 0.32292 0.85315 0.48624 0.0
H827 H 0.29512 0.81693 0.48781 0.0
H828 H 0.37708 0.85802 0.49894 0.0
H829 H 0.31967 0.92354 0.54814 0.0
H830 H 0.32645 0.89744 0.56244 0.0
H831 H 0.30491 0.89533 0.53719 0.0
C832 C 0.31261 0.82692 0.54373 0.0
C833 C 0.30046 0.81551 0.52398 0.0
C834 C 0.32862 0.84759 0.54278 0.0
C835 C 0.33257 0.85727 0.52208 0.0
C836 C 0.32001 0.84609 0.5024 0.0
H837 H 0.44302 0.96849 0.48172 0.0
H838 H 0.40574 0.93908 0.48238 0.0
C839 C 0.30407 0.82543 0.50334 0.0
C840 C 0.35153 0.87789 0.52067 0.0
H841 H 0.36472 0.93525 0.54008 0.0
C842 C 0.37423 0.87499 0.50774 0.0
C843 C 0.34783 0.89996 0.53224 0.0
C844 C 0.32327 0.9044 0.54563 0.0
C845 C 0.39372 0.89333 0.50655 0.0
C846 C 0.39018 0.91536 0.51829 0.0
C847 C 0.36735 0.91836 0.53106 0.0
C848 C 0.41059 0.9351 0.51816 0.0
C849 C 0.41842 0.8887 0.49335 0.0
C850 C 0.42486 0.9434 0.53819 0.0
C851 C 0.44598 0.96036 0.53789 0.0
C852 C 0.45312 0.96937 0.51755 0.0
C853 C 0.43798 0.96186 0.49765 0.0
C854 C 0.41682 0.94493 0.49798 0.0
H855 H 0.42112 0.86953 0.48978 0.0
H856 H 0.41621 0.89687 0.47702 0.0
H857 H 0.43696 0.89656 0.50255 0.0
H858 H 0.42029 0.93613 0.55396 0.0
H859 H 0.45723 0.96591 0.55349 0.0
H860 H 0.05219 0.70009 0.79423 0.0
H861 H 0.09253 0.67697 0.79681 0.0
H862 H 0.11325 0.6957 0.73079 0.0
H863 H 0.07303 0.71923 0.7281 0.0
H864 H 0.10127 0.63879 0.76731 0.0
H865 H 0.18546 0.70604 0.76762 0.0
H866 H 0.15134 0.71353 0.77367 0.0
H867 H 0.16021 0.70731 0.74511 0.0
C868 C 0.06542 0.69953 0.78031 0.0
C869 C 0.05931 0.71141 0.76089 0.0
C870 C 0.08852 0.68638 0.78188 0.0
C871 C 0.106 0.6849 0.76413 0.0
C872 C 0.1003 0.69707 0.74488 0.0
H873 H 0.23147 0.59272 0.7268 0.0
H874 H 0.20151 0.62565 0.7309 0.0
C875 C 0.0772 0.71033 0.7433 0.0
C876 C 0.12859 0.66872 0.76494 0.0
H877 H 0.19712 0.66577 0.76285 0.0
C878 C 0.12226 0.6447 0.76658 0.0
C879 C 0.15586 0.67656 0.76378 0.0
C880 C 0.16375 0.7023 0.76264 0.0
C881 C 0.14243 0.62815 0.76666 0.0
C882 C 0.16973 0.63594 0.76553 0.0
C883 C 0.17615 0.65997 0.76393 0.0
C884 C 0.19151 0.61897 0.76481 0.0
C885 C 0.13426 0.60236 0.76723 0.0
C886 C 0.19667 0.60504 0.78294 0.0
C887 C 0.21362 0.58607 0.78064 0.0
C888 C 0.22577 0.58088 0.76019 0.0
C889 C 0.22225 0.59608 0.74272 0.0
C890 C 0.20519 0.61497 0.74502 0.0
H891 H 0.11228 0.59895 0.76316 0.0
H892 H 0.14568 0.59142 0.75516 0.0
H893 H 0.13891 0.59658 0.78434 0.0
H894 H 0.18657 0.60817 0.79848 0.0
H895 H 0.21621 0.57491 0.79453 0.0
H896 H 0.80943 0.30704 0.49064 0.0
H897 H 0.84033 0.34159 0.49083 0.0
H898 H 0.84644 0.3454 0.56336 0.0
H899 H 0.81596 0.31042 0.56319 0.0
H900 H 0.83607 0.38592 0.5079 0.0
H901 H 0.92509 0.34747 0.54946 0.0
H902 H 0.89558 0.3298 0.53902 0.0
H903 H 0.8956 0.34657 0.56568 0.0
C904 C 0.81736 0.31526 0.50663 0.0
C905 C 0.81038 0.30604 0.52692 0.0
C906 C 0.83506 0.33498 0.50672 0.0
C907 C 0.84616 0.34587 0.52709 0.0
C908 C 0.83876 0.33694 0.54741 0.0
H909 H 0.94526 0.47503 0.55746 0.0
H910 H 0.91635 0.43928 0.5595 0.0
C911 C 0.82118 0.31707 0.54732 0.0
C912 C 0.86499 0.36685 0.52693 0.0
H913 H 0.92844 0.38855 0.54432 0.0
C914 C 0.85629 0.38642 0.51579 0.0
C915 C 0.89145 0.36753 0.53719 0.0
C916 C 0.90263 0.34664 0.54832 0.0
C917 C 0.87317 0.40667 0.51483 0.0
C918 C 0.89947 0.40737 0.5252 0.0
C919 C 0.9082 0.38794 0.53646 0.0
C920 C 0.91825 0.42813 0.52427 0.0
C921 C 0.86272 0.42732 0.50289 0.0
C922 C 0.92933 0.43334 0.50391 0.0
C923 C 0.94593 0.45359 0.50274 0.0
C924 C 0.95163 0.46903 0.52191 0.0
C925 C 0.94111 0.46346 0.54242 0.0
C926 C 0.92464 0.44308 0.54361 0.0
H927 H 0.84051 0.42565 0.49918 0.0
H928 H 0.86758 0.44407 0.51318 0.0
H929 H 0.87274 0.4284 0.48675 0.0
H930 H 0.92483 0.42188 0.48885 0.0
H931 H 0.95375 0.45746 0.4867 0.0
H932 H 0.28862 0.93655 0.18505 0.0
H933 H 0.31528 0.90221 0.1761 0.0
H934 H 0.30544 0.87928 0.24276 0.0
H935 H 0.27857 0.91325 0.25179 0.0
H936 H 0.36284 0.89705 0.19921 0.0
H937 H 0.2976 0.81721 0.20498 0.0
H938 H 0.28406 0.84584 0.20123 0.0
H939 H 0.29462 0.83763 0.22885 0.0
C940 C 0.29163 0.92394 0.19766 0.0
C941 C 0.28181 0.92781 0.21926 0.0
C942 C 0.30673 0.90427 0.19244 0.0
C943 C 0.31202 0.88807 0.20865 0.0
C944 C 0.30103 0.89125 0.2298 0.0
H945 H 0.42547 0.80338 0.26252 0.0
H946 H 0.38546 0.82296 0.24911 0.0
C947 C 0.28595 0.91087 0.23504 0.0
C948 C 0.33264 0.87031 0.20514 0.0
H949 H 0.34576 0.81316 0.21393 0.0
C950 C 0.35905 0.87853 0.20174 0.0
C951 C 0.32754 0.84622 0.20843 0.0
C952 C 0.29933 0.83618 0.21084 0.0
C953 C 0.38093 0.8638 0.20364 0.0
C954 C 0.37605 0.84009 0.20858 0.0
C955 C 0.3494 0.8314 0.21026 0.0
C956 C 0.39848 0.82525 0.21521 0.0
C957 C 0.4092 0.87425 0.20214 0.0
C958 C 0.41867 0.8195 0.20038 0.0
C959 C 0.44182 0.80861 0.20808 0.0
C960 C 0.44488 0.80303 0.23066 0.0
C961 C 0.42384 0.80758 0.24508 0.0
C962 C 0.40087 0.81865 0.23742 0.0
H963 H 0.40955 0.89377 0.20191 0.0
H964 H 0.42246 0.86952 0.21656 0.0
H965 H 0.41786 0.86707 0.18644 0.0
H966 H 0.41691 0.8241 0.18307 0.0
H967 H 0.45749 0.80497 0.19646 0.0
H968 H 0.29396 0.45208 0.69594 0.0
H969 H 0.31283 0.41358 0.68745 0.0
H970 H 0.29869 0.39451 0.75475 0.0
H971 H 0.27946 0.43263 0.7633 0.0
H972 H 0.35789 0.39956 0.70974 0.0
H973 H 0.27386 0.33446 0.71776 0.0
H974 H 0.26841 0.36529 0.7144 0.0
H975 H 0.27785 0.35541 0.74163 0.0
C976 C 0.29446 0.43956 0.70883 0.0
C977 C 0.2854 0.4455 0.73036 0.0
C978 C 0.30512 0.41754 0.7039 0.0
C979 C 0.30674 0.40108 0.72035 0.0
C980 C 0.29697 0.4067 0.74162 0.0
H981 H 0.40024 0.28905 0.75917 0.0
H982 H 0.3649 0.31706 0.75286 0.0
C983 C 0.28626 0.42865 0.74655 0.0
C984 C 0.32191 0.37944 0.71648 0.0
H985 H 0.31906 0.3201 0.72206 0.0
C986 C 0.34928 0.3821 0.71191 0.0
C987 C 0.31059 0.35676 0.71947 0.0
C988 C 0.28098 0.35276 0.72337 0.0
C989 C 0.36611 0.36288 0.71156 0.0
C990 C 0.35505 0.34032 0.71543 0.0
C991 C 0.32741 0.33745 0.71908 0.0
C992 C 0.37258 0.32013 0.71778 0.0
C993 C 0.39591 0.36717 0.70839 0.0
C994 C 0.38768 0.31186 0.69986 0.0
C995 C 0.40809 0.29608 0.70346 0.0
C996 C 0.41342 0.28815 0.72498 0.0
C997 C 0.39672 0.29495 0.74243 0.0
C998 C 0.37647 0.3109 0.73885 0.0
H999 H 0.40193 0.38624 0.71002 0.0
H1000 H 0.40831 0.35804 0.72088 0.0
H1001 H 0.40072 0.36009 0.69134 0.0
H1002 H 0.38457 0.3185 0.68337 0.0
H1003 H 0.42035 0.29084 0.68959 0.0
H1004 H 0.17518 0.80911 0.53491 0.0
H1005 H 0.13868 0.81509 0.56044 0.0
H1006 H 0.18136 0.77649 0.60993 0.0
H1007 H 0.21763 0.76986 0.5843 0.0
H1008 H 0.1302 0.75907 0.59968 0.0
H1009 H 0.13014 0.85612 0.61787 0.0
H1010 H 0.12869 0.84662 0.5885 0.0
H1011 H 0.15832 0.84154 0.60582 0.0
C1012 C 0.1771 0.80232 0.55142 0.0
C1013 C 0.19917 0.78883 0.55755 0.0
C1014 C 0.15625 0.80587 0.56602 0.0
C1015 C 0.15742 0.79634 0.58708 0.0
C1016 C 0.18012 0.78396 0.59369 0.0
H1017 H 0.06756 0.80842 0.7034 0.0
H1018 H 0.09694 0.81465 0.67253 0.0
C1019 C 0.2008 0.78018 0.57904 0.0
C1020 C 0.1339 0.79697 0.6013 0.0
H1021 H 0.09387 0.83358 0.63128 0.0
C1022 C 0.1222 0.77535 0.60657 0.0
C1023 C 0.12354 0.81828 0.6101 0.0
C1024 C 0.13592 0.84198 0.60548 0.0
C1025 C 0.1009 0.77436 0.62104 0.0
C1026 C 0.09048 0.79566 0.6299 0.0
C1027 C 0.10172 0.81733 0.62418 0.0
C1028 C 0.07024 0.7956 0.64721 0.0
C1029 C 0.09072 0.75052 0.62753 0.0
C1030 C 0.04497 0.78372 0.64295 0.0
C1031 C 0.02833 0.77982 0.66066 0.0
C1032 C 0.03664 0.78812 0.68267 0.0
C1033 C 0.06084 0.80169 0.68656 0.0
C1034 C 0.07756 0.80535 0.66894 0.0
H1035 H 0.10476 0.73639 0.623 0.0
H1036 H 0.0879 0.75076 0.64588 0.0
H1037 H 0.0709 0.7459 0.61855 0.0
H1038 H 0.03876 0.7765 0.62616 0.0
H1039 H 0.00958 0.7695 0.65728 0.0
H1040 H 0.247 0.99029 0.33983 0.0
H1041 H 0.24295 0.9751 0.37713 0.0
H1042 H 0.18932 0.91848 0.34796 0.0
H1043 H 0.19266 0.93392 0.31097 0.0
H1044 H 0.17369 0.93645 0.38954 0.0
H1045 H 0.28314 0.91661 0.39187 0.0
H1046 H 0.27506 0.94688 0.3895 0.0
H1047 H 0.26561 0.92538 0.36678 0.0
C1048 C 0.23404 0.97482 0.34153 0.0
C1049 C 0.22033 0.96308 0.32261 0.0
C1050 C 0.23183 0.96613 0.36276 0.0
C1051 C 0.2162 0.94546 0.36519 0.0
C1052 C 0.2015 0.93446 0.34643 0.0
H1053 H 0.19174 0.82644 0.43489 0.0
H1054 H 0.18737 0.86149 0.41362 0.0
C1055 C 0.20351 0.94321 0.32531 0.0
C1056 C 0.21666 0.93384 0.38661 0.0
H1057 H 0.25716 0.90159 0.41956 0.0
C1058 C 0.19201 0.92918 0.39641 0.0
C1059 C 0.24065 0.92449 0.39556 0.0
C1060 C 0.26762 0.92839 0.38537 0.0
C1061 C 0.19047 0.9143 0.41414 0.0
C1062 C 0.21413 0.90374 0.42205 0.0
C1063 C 0.23906 0.90975 0.41337 0.0
C1064 C 0.21319 0.88407 0.43696 0.0
C1065 C 0.16342 0.90938 0.42374 0.0
C1066 C 0.22915 0.88519 0.45711 0.0
C1067 C 0.23176 0.86515 0.4692 0.0
C1068 C 0.21869 0.8437 0.46114 0.0
C1069 C 0.20195 0.84282 0.44144 0.0
C1070 C 0.19925 0.86287 0.42942 0.0
H1071 H 0.14976 0.9242 0.42154 0.0
H1072 H 0.15365 0.89335 0.41473 0.0
H1073 H 0.16569 0.90629 0.4419 0.0
H1074 H 0.24031 0.90134 0.46302 0.0
H1075 H 0.24485 0.86621 0.48435 0.0
H1076 H 0.95506 0.73601 0.69362 0.0
H1077 H 0.94873 0.71857 0.65494 0.0
H1078 H 0.97982 0.65334 0.67626 0.0
H1079 H 0.98554 0.67051 0.71495 0.0
H1080 H 0.98356 0.70072 0.62583 0.0
H1081 H 0.90935 0.63075 0.64403 0.0
H1082 H 0.91893 0.65519 0.66402 0.0
H1083 H 0.93941 0.62968 0.66184 0.0
C1084 C 0.96056 0.71796 0.68998 0.0
C1085 C 0.97062 0.70448 0.70718 0.0
C1086 C 0.95688 0.70803 0.66793 0.0
C1087 C 0.96318 0.68449 0.66285 0.0
C1088 C 0.97402 0.6713 0.67996 0.0
H1089 H 0.01474 0.60715 0.55116 0.0
H1090 H 0.00699 0.63835 0.5797 0.0
C1091 C 0.97747 0.68114 0.70199 0.0
C1092 C 0.95908 0.67368 0.63964 0.0
H1093 H 0.93374 0.62368 0.61029 0.0
C1094 C 0.97225 0.68408 0.62228 0.0
C1095 C 0.94355 0.65243 0.63481 0.0
C1096 C 0.92676 0.64154 0.65214 0.0
C1097 C 0.97207 0.67279 0.60063 0.0
C1098 C 0.95903 0.65025 0.59651 0.0
C1099 C 0.9441 0.64081 0.61343 0.0
C1100 C 0.96326 0.63479 0.57609 0.0
C1101 C 0.98627 0.68498 0.58259 0.0
C1102 C 0.9413 0.62232 0.56439 0.0
C1103 C 0.94576 0.60398 0.54838 0.0
C1104 C 0.97224 0.59798 0.5438 0.0
C1105 C 0.99411 0.61149 0.55433 0.0
C1106 C 0.98967 0.62956 0.57052 0.0
H1107 H 0.98477 0.70442 0.58504 0.0
H1108 H 0.00806 0.68113 0.58369 0.0
H1109 H 0.97772 0.67905 0.56551 0.0
H1110 H 0.92074 0.62597 0.56847 0.0
H1111 H 0.92857 0.59379 0.54043 0.0
H1112 H 0.32313 0.71862 0.47748 0.0
H1113 H 0.36229 0.7138 0.45439 0.0
H1114 H 0.33073 0.76377 0.40963 0.0
H1115 H 0.2918 0.76899 0.43264 0.0
H1116 H 0.36829 0.70091 0.40867 0.0
H1117 H 0.40554 0.79267 0.43132 0.0
H1118 H 0.37965 0.77821 0.44635 0.0
H1119 H 0.37108 0.79126 0.42041 0.0
C1120 C 0.3243 0.72832 0.46253 0.0
C1121 C 0.30456 0.74446 0.45705 0.0
C1122 C 0.34674 0.7256 0.44944 0.0
C1123 C 0.34968 0.73896 0.43076 0.0
C1124 C 0.32912 0.75382 0.4244 0.0
H1125 H 0.4272 0.73278 0.31134 0.0
H1126 H 0.40137 0.72587 0.34404 0.0
C1127 C 0.3068 0.75664 0.43748 0.0
C1128 C 0.37443 0.73801 0.41804 0.0
H1129 H 0.42283 0.77384 0.39791 0.0
C1130 C 0.38057 0.71672 0.4066 0.0
C1131 C 0.39095 0.75849 0.416 0.0
C1132 C 0.38667 0.78138 0.42939 0.0
C1133 C 0.40148 0.71586 0.3916 0.0
C1134 C 0.41606 0.73694 0.38773 0.0
C1135 C 0.4114 0.75775 0.40065 0.0
C1136 C 0.43333 0.73864 0.36837 0.0
C1137 C 0.4072 0.69254 0.3796 0.0
C1138 C 0.45975 0.74862 0.37114 0.0
C1139 C 0.4745 0.75294 0.35234 0.0
C1140 C 0.46286 0.74745 0.33062 0.0
C1141 C 0.43668 0.73708 0.32793 0.0
C1142 C 0.422 0.73285 0.34662 0.0
H1143 H 0.40265 0.67771 0.39021 0.0
H1144 H 0.39396 0.68988 0.36402 0.0
H1145 H 0.4286 0.69186 0.37499 0.0
H1146 H 0.4687 0.75352 0.38781 0.0
H1147 H 0.49467 0.761 0.35477 0.0
H1148 H 0.23425 0.01508 0.13995 0.0
H1149 H 0.23566 0.04095 0.10879 0.0
H1150 H 0.31215 0.07176 0.1362 0.0
H1151 H 0.31116 0.04556 0.16692 0.0
H1152 H 0.234 0.08759 0.11635 0.0
H1153 H 0.32539 0.06794 0.07022 0.0
H1154 H 0.31121 0.04793 0.08918 0.0
H1155 H 0.33311 0.07254 0.09988 0.0
C1156 C 0.25176 0.02685 0.13887 0.0
C1157 C 0.27256 0.02845 0.15581 0.0
C1158 C 0.25253 0.04163 0.12111 0.0
C1159 C 0.2741 0.05818 0.12006 0.0
C1160 C 0.29562 0.05878 0.13632 0.0
H1161 H 0.30237 0.19275 0.06821 0.0
H1162 H 0.30377 0.15556 0.08679 0.0
C1163 C 0.29495 0.04391 0.15398 0.0
C1164 C 0.27227 0.07705 0.10418 0.0
H1165 H 0.30795 0.10677 0.06671 0.0
C1166 C 0.24992 0.09149 0.10516 0.0
C1167 C 0.29313 0.08222 0.08971 0.0
C1168 C 0.31692 0.06667 0.08701 0.0
C1169 C 0.24842 0.11154 0.09282 0.0
C1170 C 0.26973 0.11715 0.079 0.0
C1171 C 0.29173 0.10241 0.07747 0.0
C1172 C 0.2699 0.13885 0.06674 0.0
C1173 C 0.2246 0.12712 0.09537 0.0
C1174 C 0.25061 0.1415 0.0492 0.0
C1175 C 0.24977 0.16264 0.03865 0.0
C1176 C 0.26822 0.1814 0.04549 0.0
C1177 C 0.28788 0.17855 0.06272 0.0
C1178 C 0.28876 0.15735 0.07324 0.0
H1179 H 0.21239 0.12262 0.10972 0.0
H1180 H 0.23151 0.14595 0.09786 0.0
H1181 H 0.21129 0.12499 0.0798 0.0
H1182 H 0.23605 0.12732 0.04385 0.0
H1183 H 0.23448 0.16441 0.02533 0.0
H1184 H 0.8024 0.70641 0.97679 0.0
H1185 H 0.83807 0.69068 0.95384 0.0
H1186 H 0.81845 0.73895 0.90334 0.0
H1187 H 0.78297 0.75492 0.92604 0.0
H1188 H 0.8387 0.6724 0.90496 0.0
H1189 H 0.89924 0.75504 0.92824 0.0
H1190 H 0.87106 0.74551 0.94395 0.0
H1191 H 0.86521 0.75995 0.91835 0.0
C1192 C 0.80533 0.71341 0.96061 0.0
C1193 C 0.79017 0.73222 0.95339 0.0
C1194 C 0.82569 0.70436 0.94757 0.0
C1195 C 0.83102 0.71399 0.9272 0.0
C1196 C 0.81472 0.73157 0.91923 0.0
H1197 H 0.90201 0.69655 0.80741 0.0
H1198 H 0.87713 0.68912 0.84054 0.0
C1199 C 0.79448 0.74066 0.93222 0.0
C1200 C 0.8549 0.7074 0.91491 0.0
H1201 H 0.91129 0.73267 0.89504 0.0
C1202 C 0.85497 0.68529 0.90308 0.0
C1203 C 0.87647 0.72397 0.91319 0.0
C1204 C 0.87822 0.74737 0.9268 0.0
C1205 C 0.87497 0.68019 0.88782 0.0
C1206 C 0.89476 0.6979 0.88413 0.0
C1207 C 0.89601 0.71912 0.89764 0.0
C1208 C 0.91143 0.69676 0.86423 0.0
C1209 C 0.87413 0.65623 0.87535 0.0
C1210 C 0.93906 0.70345 0.86642 0.0
C1211 C 0.95312 0.70838 0.84747 0.0
C1212 C 0.93975 0.70646 0.82612 0.0
C1213 C 0.91272 0.69813 0.82375 0.0
C1214 C 0.89859 0.69354 0.84268 0.0
H1215 H 0.86677 0.64245 0.88617 0.0
H1216 H 0.85973 0.65614 0.86049 0.0
H1217 H 0.89432 0.65154 0.86956 0.0
H1218 H 0.94932 0.7062 0.88289 0.0
H1219 H 0.97405 0.71466 0.84963 0.0
H1220 H 0.25946 0.53753 0.64882 0.0
H1221 H 0.26941 0.56235 0.6182 0.0
H1222 H 0.34942 0.57875 0.64829 0.0
H1223 H 0.33943 0.55406 0.67916 0.0
H1224 H 0.31893 0.61736 0.6439 0.0
H1225 H 0.31465 0.56363 0.56307 0.0
H1226 H 0.28643 0.55708 0.57964 0.0
H1227 H 0.32008 0.55102 0.58986 0.0
C1228 C 0.27947 0.5458 0.6485 0.0
C1229 C 0.2986 0.54414 0.6664 0.0
C1230 C 0.28523 0.55983 0.6309 0.0
C1231 C 0.31024 0.57225 0.63089 0.0
C1232 C 0.33008 0.56917 0.64793 0.0
H1233 H 0.32895 0.70412 0.56293 0.0
H1234 H 0.34205 0.66927 0.58231 0.0
C1235 C 0.32434 0.55512 0.66554 0.0
C1236 C 0.31345 0.5916 0.61578 0.0
H1237 H 0.30459 0.60485 0.56108 0.0
C1238 C 0.3165 0.61465 0.62574 0.0
C1239 C 0.31007 0.58795 0.59215 0.0
C1240 C 0.30789 0.56354 0.58054 0.0
C1241 C 0.31433 0.63424 0.61285 0.0
C1242 C 0.30967 0.63062 0.58928 0.0
C1243 C 0.30811 0.60756 0.57917 0.0
C1244 C 0.30349 0.65041 0.57527 0.0
C1245 C 0.31518 0.65854 0.6248 0.0
C1246 C 0.27794 0.65086 0.56411 0.0
C1247 C 0.27059 0.67054 0.55285 0.0
C1248 C 0.28864 0.6901 0.55268 0.0
C1249 C 0.31458 0.68933 0.56311 0.0
C1250 C 0.32204 0.6695 0.57418 0.0
H1251 H 0.31327 0.65785 0.64322 0.0
H1252 H 0.33478 0.66772 0.62211 0.0
H1253 H 0.29871 0.66921 0.61808 0.0
H1254 H 0.26334 0.6363 0.56475 0.0
H1255 H 0.25052 0.67069 0.54479 0.0
H1256 H 0.31025 0.05107 0.27558 0.0
H1257 H 0.33065 0.0573 0.31396 0.0
H1258 H 0.3124 0.98438 0.32511 0.0
H1259 H 0.29342 0.97782 0.28658 0.0
H1260 H 0.30919 0.05196 0.35514 0.0
H1261 H 0.39229 0.99072 0.34159 0.0
H1262 H 0.37127 0.00031 0.31869 0.0
H1263 H 0.35948 0.97691 0.33507 0.0
C1264 C 0.31089 0.03637 0.28622 0.0
C1265 C 0.30029 0.01399 0.27824 0.0
C1266 C 0.32232 0.03998 0.30812 0.0
C1267 C 0.32329 0.02123 0.32225 0.0
C1268 C 0.31233 0.99896 0.31434 0.0
H1269 H 0.39115 0.00338 0.45548 0.0
H1270 H 0.35863 0.00244 0.42315 0.0
C1271 C 0.30131 0.99529 0.2924 0.0
C1272 C 0.33617 0.02475 0.34515 0.0
H1273 H 0.38624 0.00473 0.37926 0.0
C1274 C 0.32609 0.04171 0.36043 0.0
C1275 C 0.35829 0.0114 0.35191 0.0
C1276 C 0.37115 0.99399 0.3359 0.0
C1277 C 0.33745 0.04544 0.38247 0.0
C1278 C 0.35919 0.03179 0.38922 0.0
C1279 C 0.36922 0.01487 0.37399 0.0
C1280 C 0.37332 0.03553 0.41154 0.0
C1281 C 0.32619 0.06375 0.39847 0.0
C1282 C 0.39158 0.05488 0.416 0.0
C1283 C 0.4103 0.05535 0.43429 0.0
C1284 C 0.41091 0.03647 0.44828 0.0
C1285 C 0.39106 0.01815 0.44492 0.0
C1286 C 0.37249 0.01759 0.42652 0.0
H1287 H 0.30679 0.07036 0.39177 0.0
H1288 H 0.32295 0.05634 0.41492 0.0
H1289 H 0.34099 0.07889 0.40148 0.0
H1290 H 0.39269 0.0687 0.4044 0.0
H1291 H 0.42543 0.06966 0.43657 0.0
H1292 H 0.80429 0.81982 0.05208 0.0
H1293 H 0.83614 0.8535 0.04961 0.0
H1294 H 0.83498 0.84009 0.97757 0.0
H1295 H 0.80321 0.80646 0.97998 0.0
H1296 H 0.88748 0.85364 0.03254 0.0
H1297 H 0.82004 0.91026 0.98443 0.0
H1298 H 0.80741 0.88498 -0.00197 0.0
H1299 H 0.82323 0.88108 0.97167 0.0
C1300 C 0.81074 0.82417 0.03573 0.0
C1301 C 0.80098 0.81078 0.0162 0.0
C1302 C 0.82891 0.84339 0.03432 0.0
C1303 C 0.83759 0.84958 0.01337 0.0
C1304 C 0.82806 0.83603 0.99386 0.0
H1305 H 0.94874 0.96237 0.9764 0.0
H1306 H 0.91857 0.92705 0.97563 0.0
C1307 C 0.80991 0.81681 0.99526 0.0
C1308 C 0.85731 0.86972 0.01207 0.0
H1309 H 0.86587 0.92356 0.99062 0.0
C1310 C 0.88273 0.86895 0.02341 0.0
C1311 C 0.85118 0.88959 -3e-05 0.0
C1312 C 0.82392 0.89173 0.98798 0.0
C1313 C 0.90221 0.88748 0.02299 0.0
C1314 C 0.89592 0.90755 0.01126 0.0
C1315 C 0.87066 0.90817 -0.0004 0.0
C1316 C 0.91487 0.92848 0.01168 0.0
C1317 C 0.9295 0.88524 0.03486 0.0
C1318 C 0.9227 0.94106 0.03215 0.0
C1319 C 0.93996 0.96111 0.03262 0.0
C1320 C 0.94962 0.96907 0.01261 0.0
C1321 C 0.94178 0.95651 0.99209 0.0
C1322 C 0.92448 0.93641 0.99163 0.0
H1323 H 0.93384 0.86653 0.03728 0.0
H1324 H 0.9459 0.89305 0.02534 0.0
H1325 H 0.92977 0.89478 0.05171 0.0
H1326 H 0.91513 0.93558 0.04777 0.0
H1327 H 0.94555 0.97052 0.04865 0.0
H1328 H 0.6999 0.21814 0.52466 0.0
H1329 H 0.67223 0.18142 0.52294 0.0
H1330 H 0.66436 0.1818 0.45067 0.0
H1331 H 0.69262 0.21822 0.45228 0.0
H1332 H 0.61956 0.17461 0.5061 0.0
H1333 H 0.68601 0.11441 0.45954 0.0
H1334 H 0.69802 0.14268 0.47254 0.0
H1335 H 0.67931 0.14089 0.44585 0.0
C1336 C 0.69259 0.21019 0.50839 0.0
C1337 C 0.69861 0.22087 0.48857 0.0
C1338 C 0.67672 0.18927 0.50744 0.0
C1339 C 0.66659 0.17864 0.48666 0.0
C1340 C 0.67248 0.18936 0.46685 0.0
H1341 H 0.55044 0.06457 0.44481 0.0
H1342 H 0.58516 0.09666 0.44671 0.0
C1343 C 0.68842 0.21027 0.46779 0.0
C1344 C 0.64855 0.15712 0.48583 0.0
H1345 H 0.64086 0.10009 0.46381 0.0
C1346 C 0.62433 0.15826 0.49701 0.0
C1347 C 0.65477 0.13582 0.47391 0.0
C1348 C 0.68105 0.13322 0.46244 0.0
C1349 C 0.60587 0.13886 0.4962 0.0
C1350 C 0.61198 0.11762 0.48414 0.0
C1351 C 0.63624 0.11641 0.47303 0.0
C1352 C 0.59309 0.09665 0.48269 0.0
C1353 C 0.57963 0.14147 0.50777 0.0
C1354 C 0.58673 0.08553 0.50215 0.0
C1355 C 0.56695 0.06728 0.50111 0.0
C1356 C 0.55328 0.05971 0.48053 0.0
C1357 C 0.56061 0.07008 0.46088 0.0
C1358 C 0.58042 0.08838 0.46195 0.0
H1359 H 0.57528 0.16027 0.51175 0.0
H1360 H 0.56244 0.13302 0.49717 0.0
H1361 H 0.58092 0.13266 0.5238 0.0
H1362 H 0.59658 0.0914 0.51827 0.0
H1363 H 0.56169 0.05969 0.51655 0.0
H1364 H 0.78188 0.43411 0.27155 0.0
H1365 H 0.81262 0.40161 0.27038 0.0
H1366 H 0.84166 0.42314 0.20769 0.0
H1367 H 0.81074 0.45571 0.2085 0.0
H1368 H 0.83249 0.37302 0.2099 0.0
H1369 H 0.89488 0.41432 0.28301 0.0
H1370 H 0.8595 0.41062 0.28774 0.0
H1371 H 0.87038 0.43032 0.26736 0.0
C1372 C 0.7946 0.43189 0.25738 0.0
C1373 C 0.79406 0.44768 0.24023 0.0
C1374 C 0.8122 0.41333 0.2568 0.0
C1375 C 0.82967 0.41033 0.23918 0.0
C1376 C 0.82837 0.42534 0.22149 0.0
H1377 H 0.96118 0.31739 0.21359 0.0
H1378 H 0.92584 0.34599 0.2105 0.0
C1379 C 0.8107 0.44391 0.22201 0.0
C1380 C 0.85007 0.39213 0.23976 0.0
H1381 H 0.90537 0.37559 0.27022 0.0
C1382 C 0.84851 0.37356 0.223 0.0
C1383 C 0.87094 0.39307 0.25686 0.0
C1384 C 0.87428 0.41325 0.27467 0.0
C1385 C 0.86702 0.35549 0.22323 0.0
C1386 C 0.88769 0.35633 0.24049 0.0
C1387 C 0.88934 0.375 0.25712 0.0
C1388 C 0.90803 0.33811 0.24165 0.0
C1389 C 0.86402 0.33543 0.20533 0.0
C1390 C 0.90986 0.32449 0.26034 0.0
C1391 C 0.93008 0.30822 0.26225 0.0
C1392 C 0.94897 0.30544 0.24554 0.0
C1393 C 0.94693 0.31904 0.22673 0.0
C1394 C 0.92665 0.33528 0.22484 0.0
H1395 H 0.84367 0.33455 0.19654 0.0
H1396 H 0.8793 0.33799 0.19264 0.0
H1397 H 0.86751 0.31831 0.21268 0.0
H1398 H 0.89573 0.32659 0.27355 0.0
H1399 H 0.93109 0.29808 0.27697 0.0
H1400 H 0.02761 0.57544 0.48544 0.0
H1401 H 0.05673 0.61124 0.48501 0.0
H1402 H 0.12621 0.57176 0.50322 0.0
H1403 H 0.09734 0.53592 0.50312 0.0
H1404 H 0.0897 0.63568 0.51663 0.0
H1405 H 0.1505 0.6008 0.44739 0.0
H1406 H 0.11963 0.58615 0.45483 0.0
H1407 H 0.15085 0.58248 0.47072 0.0
C1408 C 0.04909 0.57447 0.48941 0.0
C1409 C 0.06031 0.5529 0.49407 0.0
C1410 C 0.06571 0.59491 0.48915 0.0
C1411 C 0.09378 0.59409 0.49356 0.0
C1412 C 0.10476 0.5727 0.49911 0.0
H1413 H 0.2045 0.71571 0.52541 0.0
H1414 H 0.1753 0.68025 0.52657 0.0
C1415 C 0.08823 0.55227 0.49919 0.0
C1416 C 0.11161 0.61552 0.49227 0.0
H1417 H 0.16716 0.63657 0.46709 0.0
C1418 C 0.10657 0.63592 0.50573 0.0
C1419 C 0.13335 0.61599 0.47774 0.0
C1420 C 0.13877 0.59527 0.46168 0.0
C1421 C 0.12298 0.65658 0.50541 0.0
C1422 C 0.14547 0.65668 0.49165 0.0
C1423 C 0.15017 0.63642 0.47787 0.0
C1424 C 0.1641 0.67772 0.49093 0.0
C1425 C 0.11566 0.67823 0.51948 0.0
C1426 C 0.16854 0.68756 0.47038 0.0
C1427 C 0.18578 0.7075 0.46961 0.0
C1428 C 0.19894 0.71798 0.48937 0.0
C1429 C 0.19486 0.7079 0.50987 0.0
C1430 C 0.17782 0.68783 0.5106 0.0
H1431 H 0.09401 0.67744 0.52352 0.0
H1432 H 0.12795 0.67939 0.5356 0.0
H1433 H 0.11974 0.69452 0.51076 0.0
H1434 H 0.15833 0.68 0.45495 0.0
H1435 H 0.18853 0.7149 0.45358 0.0
H1436 H 0.72305 0.093 0.78887 0.0
H1437 H 0.6927 0.12574 0.78777 0.0
H1438 H 0.6868 0.11733 0.71534 0.0
H1439 H 0.71716 0.08432 0.71619 0.0
H1440 H 0.69432 0.16958 0.76386 0.0
H1441 H 0.60819 0.10646 0.73748 0.0
H1442 H 0.63992 0.09704 0.74927 0.0
H1443 H 0.63735 0.10512 0.72072 0.0
C1444 C 0.71556 0.09823 0.77266 0.0
C1445 C 0.72221 0.0859 0.75261 0.0
C1446 C 0.69835 0.11702 0.7721 0.0
C1447 C 0.68741 0.12368 0.75151 0.0
C1448 C 0.69499 0.11222 0.73139 0.0
H1449 H 0.58168 0.23758 0.72652 0.0
H1450 H 0.62058 0.21266 0.72899 0.0
C1451 C 0.71234 0.09344 0.73191 0.0
C1452 C 0.66638 0.14129 0.75138 0.0
H1453 H 0.59859 0.14665 0.74184 0.0
C1454 C 0.67339 0.16469 0.75895 0.0
C1455 C 0.63913 0.13458 0.74531 0.0
C1456 C 0.6305 0.10942 0.73788 0.0
C1457 C 0.65368 0.18173 0.76045 0.0
C1458 C 0.62648 0.17503 0.75417 0.0
C1459 C 0.61952 0.15162 0.74667 0.0
C1460 C 0.60474 0.192 0.75486 0.0
C1461 C 0.66193 0.20659 0.76912 0.0
C1462 C 0.5831 0.18867 0.76875 0.0
C1463 C 0.56074 0.20281 0.76735 0.0
C1464 C 0.55961 0.22032 0.75184 0.0
C1465 C 0.58186 0.22419 0.7386 0.0
C1466 C 0.60421 0.21009 0.74007 0.0
H1467 H 0.6823 0.20763 0.77787 0.0
H1468 H 0.66247 0.218 0.75476 0.0
H1469 H 0.64708 0.21373 0.78087 0.0
H1470 H 0.58319 0.17467 0.7802 0.0
H1471 H 0.54397 0.19939 0.7778 0.0
H1472 H 0.74727 0.52236 0.14797 0.0
H1473 H 0.74624 0.54513 0.11441 0.0
H1474 H 0.80189 0.59731 0.14867 0.0
H1475 H 0.80312 0.57467 0.18195 0.0
H1476 H 0.72775 0.59031 0.1156 0.0
H1477 H 0.83178 0.59043 0.08643 0.0
H1478 H 0.81917 0.56885 0.10462 0.0
H1479 H 0.83155 0.59752 0.11615 0.0
C1480 C 0.75983 0.53836 0.14802 0.0
C1481 C 0.77528 0.54685 0.16744 0.0
C1482 C 0.7592 0.55133 0.12892 0.0
C1483 C 0.77429 0.57271 0.12897 0.0
C1484 C 0.79062 0.58058 0.14807 0.0
H1485 H 0.7843 0.70528 0.07697 0.0
H1486 H 0.78825 0.66822 0.09527 0.0
C1487 C 0.79115 0.56773 0.16714 0.0
C1488 C 0.77038 0.58857 0.11058 0.0
H1489 H 0.80546 0.62405 0.07746 0.0
C1490 C 0.74455 0.59729 0.10677 0.0
C1491 C 0.79237 0.59757 0.09914 0.0
C1492 C 0.82021 0.58791 0.10162 0.0
C1493 C 0.74055 0.61614 0.09316 0.0
C1494 C 0.76294 0.62617 0.0829 0.0
C1495 C 0.78841 0.61643 0.08555 0.0
C1496 C 0.7609 0.64811 0.07116 0.0
C1497 C 0.7128 0.62614 0.09106 0.0
C1498 C 0.74433 0.64894 0.05151 0.0
C1499 C 0.7419 0.67012 0.04116 0.0
C1500 C 0.75618 0.69064 0.05025 0.0
C1501 C 0.77303 0.68969 0.06971 0.0
C1502 C 0.77538 0.66856 0.08009 0.0
H1503 H 0.69892 0.61902 0.10325 0.0
H1504 H 0.71413 0.64566 0.09378 0.0
H1505 H 0.7038 0.62158 0.07386 0.0
H1506 H 0.7333 0.63326 0.04422 0.0
H1507 H 0.72889 0.67043 0.02606 0.0
H1508 H 0.93718 0.55909 0.45406 0.0
H1509 H 0.90495 0.56278 0.42207 0.0
H1510 H 0.92429 0.49382 0.39458 0.0
H1511 H 0.95649 0.48991 0.42622 0.0
H1512 H 0.91631 0.55769 0.37334 0.0
H1513 H 0.83946 0.49269 0.39927 0.0
H1514 H 0.86491 0.50712 0.41875 0.0
H1515 H 0.87362 0.48304 0.39983 0.0
C1516 C 0.93464 0.54473 0.44118 0.0
C1517 C 0.9494 0.52418 0.44275 0.0
C1518 C 0.91622 0.54688 0.42295 0.0
C1519 C 0.91206 0.52843 0.40621 0.0
C1520 C 0.92701 0.5081 0.40754 0.0
H1521 H 0.84555 0.51243 0.27133 0.0
H1522 H 0.87343 0.51609 0.30654 0.0
C1523 C 0.94553 0.50599 0.42559 0.0
C1524 C 0.89237 0.53033 0.38707 0.0
H1525 H 0.8343 0.50462 0.36185 0.0
C1526 C 0.89822 0.5463 0.37091 0.0
C1527 C 0.86869 0.51558 0.38414 0.0
C1528 C 0.86106 0.49875 0.40148 0.0
C1529 C 0.88151 0.54719 0.35133 0.0
C1530 C 0.85856 0.53162 0.34788 0.0
C1531 C 0.85206 0.51639 0.36451 0.0
C1532 C 0.84178 0.53008 0.32663 0.0
C1533 C 0.88866 0.56455 0.33432 0.0
C1534 C 0.81472 0.5365 0.32641 0.0
C1535 C 0.79883 0.53456 0.3063 0.0
C1536 C 0.80966 0.52572 0.28627 0.0
C1537 C 0.83674 0.5193 0.28656 0.0
C1538 C 0.85267 0.52144 0.3066 0.0
H1539 H 0.90287 0.57887 0.34175 0.0
H1540 H 0.89853 0.55519 0.32021 0.0
H1541 H 0.87022 0.57253 0.32733 0.0
H1542 H 0.806 0.54319 0.34174 0.0
H1543 H 0.77817 0.54012 0.30639 0.0
H1544 H 0.21567 0.52872 0.69518 0.0
H1545 H 0.18452 0.5268 0.66208 0.0
H1546 H 0.14373 0.46541 0.68547 0.0
H1547 H 0.1766 0.46597 0.71742 0.0
H1548 H 0.14576 0.4594 0.64309 0.0
H1549 H 0.11068 0.54947 0.66081 0.0
H1550 H 0.14624 0.55016 0.65673 0.0
H1551 H 0.13313 0.53576 0.68019 0.0
C1552 C 0.20052 0.51448 0.69294 0.0
C1553 C 0.19879 0.49732 0.70869 0.0
C1554 C 0.1823 0.51369 0.67425 0.0
C1555 C 0.16122 0.49635 0.67153 0.0
C1556 C 0.1597 0.47904 0.68719 0.0
H1557 H 0.02205 0.51653 0.58137 0.0
H1558 H 0.05245 0.51222 0.61428 0.0
C1559 C 0.17843 0.47942 0.7055 0.0
C1560 C 0.14078 0.49618 0.65241 0.0
H1561 H 0.09807 0.53118 0.62448 0.0
C1562 C 0.13513 0.47505 0.63917 0.0
C1563 C 0.12639 0.51643 0.6475 0.0
C1564 C 0.1292 0.53912 0.66223 0.0
C1565 C 0.11582 0.47367 0.62105 0.0
C1566 C 0.10273 0.49431 0.61527 0.0
C1567 C 0.10821 0.51536 0.62867 0.0
C1568 C 0.08323 0.49469 0.59554 0.0
C1569 C 0.10921 0.44991 0.60882 0.0
C1570 C 0.09008 0.486 0.57403 0.0
C1571 C 0.07223 0.48771 0.55538 0.0
C1572 C 0.04774 0.49897 0.55779 0.0
C1573 C 0.04086 0.50774 0.57918 0.0
C1574 C 0.05828 0.50535 0.59793 0.0
H1575 H 0.11314 0.43537 0.61993 0.0
H1576 H 0.08775 0.44822 0.60246 0.0
H1577 H 0.12234 0.44758 0.59437 0.0
H1578 H 0.10954 0.4785 0.5715 0.0
H1579 H 0.07813 0.48122 0.53892 0.0
H1580 H 0.57353 0.78119 0.16664 0.0
H1581 H 0.59611 0.79632 0.13488 0.0
H1582 H 0.58078 0.86756 0.15889 0.0
H1583 H 0.55798 0.85238 0.19103 0.0
H1584 H 0.57695 0.82855 0.1008 0.0
H1585 H 0.66558 0.86309 0.15621 0.0
H1586 H 0.64179 0.84181 0.16603 0.0
H1587 H 0.63183 0.87135 0.1624 0.0
C1588 C 0.57472 0.80006 0.16506 0.0
C1589 C 0.56431 0.81567 0.18129 0.0
C1590 C 0.58746 0.80867 0.14687 0.0
C1591 C 0.59011 0.83302 0.14466 0.0
C1592 C 0.57894 0.84872 0.16043 0.0
H1593 H 0.68846 0.8353 0.02596 0.0
H1594 H 0.65822 0.85499 0.05192 0.0
C1595 C 0.56599 0.84005 0.17869 0.0
C1596 C 0.60667 0.84125 0.12668 0.0
H1597 H 0.6731 0.85327 0.11829 0.0
C1598 C 0.59772 0.83493 0.10437 0.0
C1599 C 0.63363 0.84966 0.13157 0.0
C1600 C 0.64399 0.85692 0.15532 0.0
C1601 C 0.61594 0.83403 0.08714 0.0
C1602 C 0.64359 0.83976 0.09256 0.0
C1603 C 0.65184 0.84885 0.11433 0.0
C1604 C 0.66447 0.83072 0.07789 0.0
C1605 C 0.60612 0.8244 0.06387 0.0
C1606 C 0.67844 0.81104 0.08427 0.0
C1607 C 0.69551 0.79976 0.06959 0.0
C1608 C 0.69902 0.808 0.04825 0.0
C1609 C 0.68605 0.82847 0.04228 0.0
C1610 C 0.66879 0.83974 0.05703 0.0
H1611 H 0.58395 0.82042 0.0626 0.0
H1612 H 0.61098 0.8374 0.05147 0.0
H1613 H 0.6166 0.80799 0.05922 0.0
H1614 H 0.67525 0.8038 0.10032 0.0
H1615 H 0.7054 0.7842 0.0748 0.0
H1616 H 0.71057 0.5201 0.19558 0.0
H1617 H 0.68293 0.51473 0.16034 0.0
H1618 H 0.63479 0.46026 0.18833 0.0
H1619 H 0.66289 0.46551 0.22355 0.0
H1620 H 0.67175 0.47463 0.13032 0.0
H1621 H 0.57914 0.50731 0.16902 0.0
H1622 H 0.61217 0.51102 0.1832 0.0
H1623 H 0.59415 0.48293 0.18185 0.0
C1624 C 0.69469 0.5065 0.19389 0.0
C1625 C 0.68931 0.49274 0.21188 0.0
C1626 C 0.67867 0.50362 0.17391 0.0
C1627 C 0.6568 0.48709 0.17172 0.0
C1628 C 0.65142 0.47326 0.18974 0.0
H1629 H 0.56085 0.45955 0.04263 0.0
H1630 H 0.58983 0.45258 0.07602 0.0
C1631 C 0.66743 0.47624 0.20978 0.0
C1632 C 0.63916 0.48515 0.15084 0.0
H1633 H 0.57557 0.49581 0.1304 0.0
C1634 C 0.65063 0.47901 0.1303 0.0
C1635 C 0.61167 0.49103 0.15093 0.0
C1636 C 0.59851 0.49863 0.17237 0.0
C1637 C 0.63549 0.47916 0.10977 0.0
C1638 C 0.60817 0.48541 0.10988 0.0
C1639 C 0.5965 0.49086 0.13044 0.0
C1640 C 0.59211 0.48911 0.08891 0.0
C1641 C 0.64908 0.47372 0.08807 0.0
C1642 C 0.58399 0.51188 0.08513 0.0
C1643 C 0.56753 0.51588 0.0663 0.0
C1644 C 0.55869 0.49715 0.05077 0.0
C1645 C 0.56739 0.47435 0.05423 0.0
C1646 C 0.58395 0.47034 0.07326 0.0
H1647 H 0.67129 0.4723 0.09078 0.0
H1648 H 0.64057 0.45673 0.08 0.0
H1649 H 0.64515 0.48761 0.07624 0.0
H1650 H 0.59016 0.52661 0.09695 0.0
H1651 H 0.56147 0.53372 0.06414 0.0
H1652 H 0.40726 0.49027 0.0146 0.0
H1653 H 0.3792 0.45409 0.01479 0.0
H1654 H 0.44991 0.41286 0.00689 0.0
H1655 H 0.47827 0.44917 0.00839 0.0
H1656 H 0.3674 0.4195 0.98543 0.0
H1657 H 0.41963 0.38277 0.05859 0.0
H1658 H 0.42694 0.41229 0.05078 0.0
H1659 H 0.44203 0.38753 0.03653 0.0
C1660 C 0.41685 0.47348 0.01305 0.0
C1661 C 0.44497 0.47254 0.01137 0.0
C1662 C 0.40076 0.45277 0.01307 0.0
C1663 C 0.41238 0.43061 0.01122 0.0
C1664 C 0.44045 0.42966 0.00895 0.0
H1665 H 0.31374 0.30075 0.97792 0.0
H1666 H 0.34277 0.33632 0.97652 0.0
C1667 C 0.45665 0.45043 0.00939 0.0
C1668 C 0.39492 0.4087 0.01152 0.0
H1669 H 0.38731 0.35727 0.03745 0.0
C1670 C 0.37174 0.40593 -0.00313 0.0
C1671 C 0.40018 0.39112 0.02672 0.0
C1672 C 0.42337 0.39366 0.0442 0.0
C1673 C 0.35381 0.3862 -0.00305 0.0
C1674 C 0.35973 0.36814 0.01146 0.0
C1675 C 0.38285 0.37093 0.02614 0.0
C1676 C 0.34198 0.34646 0.01212 0.0
C1677 C 0.3282 0.38543 0.98209 0.0
C1678 C 0.33256 0.3397 0.03268 0.0
C1679 C 0.3165 0.31905 0.03357 0.0
C1680 C 0.30931 0.30487 0.01388 0.0
C1681 C 0.3187 0.31155 0.99331 0.0
C1682 C 0.33512 0.332 0.99248 0.0
H1683 H 0.32278 0.40332 0.97745 0.0
H1684 H 0.33114 0.37463 0.96629 0.0
H1685 H 0.31098 0.3775 0.99056 0.0
H1686 H 0.33761 0.35044 0.0481 0.0
H1687 H 0.30953 0.31427 0.04964 0.0
H1688 H 0.09094 0.21528 0.23008 0.0
H1689 H 0.12421 0.18485 0.23386 0.0
H1690 H 0.09836 0.17331 0.30031 0.0
H1691 H 0.06497 0.20346 0.29674 0.0
H1692 H 0.16732 0.17959 0.2685 0.0
H1693 H 0.08653 0.10847 0.26392 0.0
H1694 H 0.08036 0.13777 0.25551 0.0
H1695 H 0.08333 0.13234 0.2848 0.0
C1696 C 0.09248 0.20643 0.24558 0.0
C1697 C 0.07509 0.21159 0.26299 0.0
C1698 C 0.11152 0.18911 0.24771 0.0
C1699 C 0.11338 0.17673 0.26724 0.0
C1700 C 0.09688 0.1825 0.285 0.0
H1701 H 0.19792 0.0473 0.28764 0.0
H1702 H 0.17379 0.08345 0.29563 0.0
C1703 C 0.07783 0.19974 0.28289 0.0
C1704 C 0.13157 0.15691 0.26852 0.0
H1705 H 0.1314 0.09699 0.26848 0.0
C1706 C 0.15956 0.16152 0.26864 0.0
C1707 C 0.12123 0.13345 0.26883 0.0
C1708 C 0.09122 0.12756 0.2681 0.0
C1709 C 0.17761 0.14311 0.26877 0.0
C1710 C 0.16721 0.11959 0.26836 0.0
C1711 C 0.13926 0.11508 0.26892 0.0
C1712 C 0.18457 0.09924 0.26514 0.0
C1713 C 0.20757 0.14898 0.26925 0.0
C1714 C 0.19863 0.09628 0.24542 0.0
C1715 C 0.21232 0.07572 0.24078 0.0
C1716 C 0.212 0.0576 0.2557 0.0
C1717 C 0.19851 0.06089 0.27579 0.0
C1718 C 0.18478 0.08152 0.28041 0.0
H1719 H 0.21245 0.16709 0.27684 0.0
H1720 H 0.21919 0.13629 0.27883 0.0
H1721 H 0.21432 0.14812 0.25177 0.0
H1722 H 0.19817 0.10949 0.23317 0.0
H1723 H 0.22254 0.07383 0.22518 0.0
H1724 H 0.20462 0.32854 0.92599 0.0
H1725 H 0.20264 0.36525 0.90673 0.0
H1726 H 0.26845 0.39574 0.95055 0.0
H1727 H 0.27063 0.35903 0.9697 0.0
H1728 H 0.19592 0.41352 0.92459 0.0
H1729 H 0.29489 0.40025 0.88613 0.0
H1730 H 0.27651 0.37675 0.89837 0.0
H1731 H 0.29461 0.39934 0.91617 0.0
C1732 C 0.21856 0.34313 0.93153 0.0
C1733 C 0.23792 0.341 0.94915 0.0
C1734 C 0.21735 0.36406 0.92062 0.0
C1735 C 0.23555 0.38306 0.92714 0.0
C1736 C 0.25444 0.38117 0.94514 0.0
H1737 H 0.26637 0.50258 0.84653 0.0
H1738 H 0.26558 0.48016 0.88016 0.0
C1739 C 0.25565 0.36025 0.95605 0.0
C1740 C 0.23547 0.40438 0.91433 0.0
H1741 H 0.27139 0.43347 0.87675 0.0
C1742 C 0.2125 0.41808 0.91429 0.0
C1743 C 0.25726 0.41033 0.90111 0.0
C1744 C 0.28219 0.39587 0.90023 0.0
C1745 C 0.21046 0.43732 0.90084 0.0
C1746 C 0.23172 0.44258 0.88679 0.0
C1747 C 0.25515 0.42947 0.88761 0.0
C1748 C 0.22906 0.45963 0.86921 0.0
C1749 C 0.18548 0.45165 0.90166 0.0
C1750 C 0.2084 0.456 0.85223 0.0
C1751 C 0.20878 0.46885 0.83313 0.0
C1752 C 0.23 0.48532 0.83061 0.0
C1753 C 0.24977 0.49 0.84816 0.0
C1754 C 0.24934 0.47719 0.86733 0.0
H1755 H 0.17643 0.45122 0.9183 0.0
H1756 H 0.19 0.47029 0.89823 0.0
H1757 H 0.17016 0.444 0.88876 0.0
H1758 H 0.19293 0.44217 0.85302 0.0
H1759 H 0.19338 0.46485 0.81976 0.0
H1760 H 0.28263 0.24446 0.92011 0.0
H1761 H 0.31668 0.23174 0.89427 0.0
H1762 H 0.35731 0.19588 0.94687 0.0
H1763 H 0.32284 0.2081 0.9728 0.0
H1764 H 0.37041 0.24721 0.90521 0.0
H1765 H 0.36047 0.14952 0.89027 0.0
H1766 H 0.33308 0.16688 0.90012 0.0
H1767 H 0.36123 0.16168 0.91893 0.0
C1768 C 0.29845 0.23341 0.92604 0.0
C1769 C 0.30031 0.22748 0.94848 0.0
C1770 C 0.31782 0.22611 0.91127 0.0
C1771 C 0.33945 0.21292 0.91873 0.0
C1772 C 0.34054 0.20577 0.94076 0.0
H1773 H 0.47837 0.22832 0.83562 0.0
H1774 H 0.45552 0.22113 0.87018 0.0
C1775 C 0.3209 0.21285 0.95554 0.0
C1776 C 0.36244 0.20973 0.90424 0.0
H1777 H 0.39484 0.16918 0.87183 0.0
C1778 C 0.37602 0.23015 0.89807 0.0
C1779 C 0.36964 0.1874 0.89522 0.0
C1780 C 0.35533 0.16504 0.90129 0.0
C1781 C 0.39558 0.22905 0.88202 0.0
C1782 C 0.40239 0.20675 0.87244 0.0
C1783 C 0.38974 0.18618 0.87943 0.0
C1784 C 0.41939 0.205 0.85284 0.0
C1785 C 0.40735 0.2519 0.8744 0.0
C1786 C 0.40743 0.19666 0.83189 0.0
C1787 C 0.42057 0.2004 0.81226 0.0
C1788 C 0.4457 0.2127 0.81338 0.0
C1789 C 0.45878 0.2191 0.83441 0.0
C1790 C 0.44578 0.21502 0.85409 0.0
H1791 H 0.39608 0.26739 0.88048 0.0
H1792 H 0.42861 0.25454 0.88108 0.0
H1793 H 0.40719 0.25144 0.85576 0.0
H1794 H 0.3871 0.18881 0.8306 0.0
H1795 H 0.41022 0.1951 0.7962 0.0
H1796 H 0.43861 0.49258 0.93677 0.0
H1797 H 0.40708 0.49969 0.90554 0.0
H1798 H 0.41227 0.57422 0.92449 0.0
H1799 H 0.44402 0.56732 0.95612 0.0
H1800 H 0.35452 0.52719 0.90782 0.0
H1801 H 0.43495 0.56273 0.8557 0.0
H1802 H 0.44279 0.54372 0.87798 0.0
H1803 H 0.43369 0.57345 0.88473 0.0
C1804 C 0.43305 0.51052 0.93443 0.0
C1805 C 0.444 0.52943 0.94885 0.0
C1806 C 0.41493 0.5145 0.91661 0.0
C1807 C 0.40753 0.53744 0.91272 0.0
C1808 C 0.41789 0.55639 0.92727 0.0
H1809 H 0.32329 0.57019 0.78656 0.0
H1810 H 0.34675 0.57516 0.82385 0.0
C1811 C 0.43594 0.5524 0.94531 0.0
C1812 C 0.38973 0.54122 0.89282 0.0
H1813 H 0.39172 0.55541 0.83831 0.0
C1814 C 0.36246 0.5337 0.89269 0.0
C1815 C 0.40024 0.54981 0.87325 0.0
C1816 C 0.42953 0.55788 0.87268 0.0
C1817 C 0.34551 0.53392 0.87317 0.0
C1818 C 0.35641 0.54121 0.85315 0.0
C1819 C 0.38341 0.54973 0.85363 0.0
C1820 C 0.34082 0.53862 0.8312 0.0
C1821 C 0.31618 0.52614 0.8742 0.0
C1822 C 0.33001 0.51641 0.82284 0.0
C1823 C 0.31658 0.51359 0.80166 0.0
C1824 C 0.31398 0.53288 0.78835 0.0
C1825 C 0.325 0.55506 0.79656 0.0
C1826 C 0.33831 0.55792 0.81784 0.0
H1827 H 0.30905 0.52924 0.89147 0.0
H1828 H 0.30304 0.53553 0.86244 0.0
H1829 H 0.31385 0.50693 0.86955 0.0
H1830 H 0.33243 0.5011 0.8325 0.0
H1831 H 0.30859 0.49623 0.79556 0.0
H1832 H 0.68974 0.7151 0.94818 0.0
H1833 H 0.66236 0.67859 0.94986 0.0
H1834 H 0.65341 0.69467 0.02074 0.0
H1835 H 0.68177 0.73066 0.01925 0.0
H1836 H 0.66219 0.65008 0.01375 0.0
H1837 H 0.58241 0.67182 0.9513 0.0
H1838 H 0.61501 0.67185 0.93959 0.0
H1839 H 0.60843 0.69307 0.96226 0.0
C1840 C 0.68183 0.71083 0.96408 0.0
C1841 C 0.68769 0.72574 0.98355 0.0
C1842 C 0.66601 0.69005 0.96501 0.0
C1843 C 0.65515 0.68408 0.98531 0.0
C1844 C 0.66134 0.6989 0.00484 0.0
H1845 H 0.52428 0.57729 0.98818 0.0
H1846 H 0.55164 0.61415 0.99022 0.0
C1847 C 0.67751 0.71948 0.00398 0.0
C1848 C 0.63776 0.66225 0.98632 0.0
H1849 H 0.58212 0.63196 0.96147 0.0
C1850 C 0.64456 0.64622 0.00241 0.0
C1851 C 0.6144 0.65732 0.97187 0.0
C1852 C 0.60445 0.67455 0.95547 0.0
C1853 C 0.62903 0.62529 0.00418 0.0
C1854 C 0.60656 0.61973 0.98886 0.0
C1855 C 0.59949 0.63598 0.97306 0.0
C1856 C 0.59006 0.59725 0.98886 0.0
C1857 C 0.63659 0.60972 0.02282 0.0
C1858 C 0.60234 0.57536 0.98729 0.0
C1859 C 0.58673 0.55431 0.9868 0.0
C1860 C 0.55844 0.55466 0.98737 0.0
C1861 C 0.54607 0.57648 0.98839 0.0
C1862 C 0.56172 0.59756 0.98929 0.0
H1863 H 0.64771 0.61996 0.03712 0.0
H1864 H 0.61845 0.60087 0.0292 0.0
H1865 H 0.65012 0.59601 0.01635 0.0
H1866 H 0.62402 0.5745 0.98611 0.0
H1867 H 0.59681 0.53773 0.98571 0.0
H1868 H 0.9095 0.78535 0.78667 0.0
H1869 H 0.87671 0.81642 0.78886 0.0
H1870 H 0.89043 0.83136 0.72035 0.0
H1871 H 0.92286 0.80028 0.71787 0.0
H1872 H 0.89176 0.86302 0.78362 0.0
H1873 H 0.80831 0.83307 0.72206 0.0
H1874 H 0.83235 0.81317 0.7332 0.0
H1875 H 0.84097 0.83091 0.71054 0.0
C1876 C 0.90504 0.79484 0.77188 0.0
C1877 C 0.91889 0.79044 0.75212 0.0
C1878 C 0.88633 0.81259 0.77319 0.0
C1879 C 0.88099 0.82599 0.75471 0.0
C1880 C 0.89386 0.8209 0.73466 0.0
H1881 H 0.81796 0.95727 0.72229 0.0
H1882 H 0.83819 0.91886 0.72396 0.0
C1883 C 0.91259 0.80324 0.73334 0.0
C1884 C 0.86469 0.84713 0.75706 0.0
H1885 H 0.81225 0.87474 0.73234 0.0
C1886 C 0.87406 0.86547 0.77272 0.0
C1887 C 0.84173 0.85021 0.74272 0.0
C1888 C 0.83008 0.83069 0.72634 0.0
C1889 C 0.86187 0.88732 0.77366 0.0
C1890 C 0.83952 0.89068 0.75875 0.0
C1891 C 0.82953 0.87208 0.74363 0.0
C1892 C 0.82696 0.91374 0.75792 0.0
C1893 C 0.87378 0.90695 0.78984 0.0
C1894 C 0.8139 0.92342 0.77645 0.0
C1895 C 0.80244 0.94541 0.77563 0.0
C1896 C 0.8037 0.95799 0.75616 0.0
C1897 C 0.81669 0.94811 0.73756 0.0
C1898 C 0.82817 0.92613 0.73844 0.0
H1899 H 0.89421 0.90297 0.79676 0.0
H1900 H 0.87524 0.92379 0.78149 0.0
H1901 H 0.86043 0.90949 0.80412 0.0
H1902 H 0.81245 0.91393 0.79151 0.0
H1903 H 0.79245 0.95242 0.79022 0.0
H1904 H 0.42628 0.19304 0.69486 0.0
H1905 H 0.42812 0.164 0.66287 0.0
H1906 H 0.51122 0.1855 0.65476 0.0
H1907 H 0.50946 0.21478 0.68675 0.0
H1908 H 0.47899 0.17742 0.61343 0.0
H1909 H 0.46985 0.10293 0.66857 0.0
H1910 H 0.44363 0.12381 0.67084 0.0
H1911 H 0.4779 0.13285 0.6795 0.0
C1912 C 0.44487 0.19174 0.68612 0.0
C1913 C 0.46781 0.206 0.69341 0.0
C1914 C 0.44592 0.17508 0.66792 0.0
C1915 C 0.46995 0.17229 0.65673 0.0
C1916 C 0.49253 0.18728 0.66328 0.0
H1917 H 0.51976 0.05282 0.57448 0.0
H1918 H 0.51346 0.08411 0.6035 0.0
C1919 C 0.49149 0.204 0.68152 0.0
C1920 C 0.4718 0.15311 0.6388 0.0
H1921 H 0.46891 0.09315 0.6294 0.0
C1922 C 0.47674 0.15899 0.61687 0.0
C1923 C 0.46919 0.12908 0.64343 0.0
C1924 C 0.46509 0.12168 0.66688 0.0
C1925 C 0.47891 0.14144 0.59937 0.0
C1926 C 0.47575 0.11742 0.60392 0.0
C1927 C 0.47101 0.11157 0.6259 0.0
C1928 C 0.47866 0.09803 0.58639 0.0
C1929 C 0.48522 0.14872 0.57629 0.0
C1930 C 0.46078 0.09509 0.56732 0.0
C1931 C 0.46427 0.07709 0.55063 0.0
C1932 C 0.4857 0.0617 0.55274 0.0
C1933 C 0.50308 0.06435 0.5722 0.0
C1934 C 0.49954 0.08227 0.58885 0.0
H1935 H 0.49282 0.16737 0.57673 0.0
H1936 H 0.50055 0.13729 0.56877 0.0
H1937 H 0.46655 0.1468 0.56517 0.0
H1938 H 0.44421 0.10678 0.56529 0.0
H1939 H 0.45047 0.07556 0.53591 0.0
H1940 H 0.46372 0.29166 0.79373 0.0
H1941 H 0.46425 0.31726 0.82858 0.0
H1942 H 0.54784 0.3372 0.8206 0.0
H1943 H 0.54748 0.31162 0.78592 0.0
H1944 H 0.53552 0.32783 0.86567 0.0
H1945 H 0.4654 0.39016 0.82782 0.0
H1946 H 0.45374 0.35977 0.82636 0.0
H1947 H 0.48239 0.36826 0.81104 0.0
C1948 C 0.48225 0.30137 0.79953 0.0
C1949 C 0.5055 0.29984 0.78701 0.0
C1950 C 0.4825 0.31605 0.81938 0.0
C1951 C 0.50598 0.32941 0.82702 0.0
C1952 C 0.52948 0.32714 0.81499 0.0
H1953 H 0.53117 0.4573 0.9115 0.0
H1954 H 0.52833 0.42533 0.88184 0.0
C1955 C 0.52922 0.31255 0.79515 0.0
C1956 C 0.50598 0.34653 0.84698 0.0
H1957 H 0.48053 0.39893 0.86557 0.0
C1958 C 0.52335 0.34329 0.86576 0.0
C1959 C 0.4903 0.36683 0.84694 0.0
C1960 C 0.47203 0.37169 0.82694 0.0
C1961 C 0.52557 0.35987 0.88441 0.0
C1962 C 0.50992 0.38017 0.88433 0.0
C1963 C 0.4924 0.38329 0.86565 0.0
C1964 C 0.51249 0.39908 0.90285 0.0
C1965 C 0.54528 0.35597 0.90376 0.0
C1966 C 0.50457 0.39496 0.92459 0.0
C1967 C 0.50616 0.41328 0.94161 0.0
C1968 C 0.51569 0.43599 0.93715 0.0
C1969 C 0.52384 0.43997 0.91546 0.0
C1970 C 0.52216 0.42173 0.89848 0.0
H1971 H 0.55938 0.34182 0.89944 0.0
H1972 H 0.55728 0.37246 0.90901 0.0
H1973 H 0.53392 0.35079 0.91833 0.0
H1974 H 0.49668 0.37771 0.92827 0.0
H1975 H 0.49955 0.40977 0.95814 0.0
H1976 H 0.57898 0.83605 0.29899 0.0
H1977 H 0.57793 0.86397 0.33191 0.0
H1978 H 0.49464 0.84299 0.33997 0.0
H1979 H 0.49567 0.8148 0.30708 0.0
H1980 H 0.54467 0.90171 0.33544 0.0
H1981 H 0.52803 0.84255 0.40413 0.0
H1982 H 0.53926 0.83203 0.37707 0.0
H1983 H 0.5042 0.83765 0.38046 0.0
C1984 C 0.56056 0.83712 0.30798 0.0
C1985 C 0.5374 0.82327 0.30046 0.0
C1986 C 0.55998 0.85311 0.32677 0.0
C1987 C 0.53629 0.8555 0.33854 0.0
C1988 C 0.5133 0.84119 0.33142 0.0
H1989 H 0.48791 0.97528 0.42127 0.0
H1990 H 0.49448 0.94453 0.39179 0.0
C1991 C 0.51387 0.82515 0.31257 0.0
C1992 C 0.53519 0.87414 0.35716 0.0
H1993 H 0.52313 0.88363 0.41288 0.0
C1994 C 0.54011 0.89772 0.3524 0.0
C1995 C 0.5295 0.86895 0.37934 0.0
C1996 C 0.52518 0.84391 0.38569 0.0
C1997 C 0.5389 0.91625 0.36905 0.0
C1998 C 0.53232 0.91114 0.39104 0.0
C1999 C 0.52803 0.88753 0.39598 0.0
C2000 C 0.52897 0.93014 0.40891 0.0
C2001 C 0.54479 0.94119 0.363 0.0
C2002 C 0.54607 0.93221 0.42848 0.0
C2003 C 0.54243 0.94991 0.44545 0.0
C2004 C 0.52138 0.96568 0.44327 0.0
C2005 C 0.50439 0.96354 0.42356 0.0
C2006 C 0.50815 0.94598 0.4066 0.0
H2007 H 0.55608 0.94167 0.3474 0.0
H2008 H 0.52542 0.94998 0.36013 0.0
H2009 H 0.55669 0.95145 0.37684 0.0
H2010 H 0.56222 0.9201 0.43062 0.0
H2011 H 0.55577 0.95091 0.46044 0.0
H2012 H 0.5088 0.61644 0.04035 0.0
H2013 H 0.5145 0.64803 0.07065 0.0
H2014 H 0.47829 0.60214 0.11641 0.0
H2015 H 0.47252 0.57068 0.08636 0.0
H2016 H 0.47358 0.66885 0.10017 0.0
H2017 H 0.55429 0.62374 0.14634 0.0
H2018 H 0.54491 0.61641 0.117 0.0
H2019 H 0.52446 0.60557 0.13842 0.0
C2020 C 0.50183 0.61323 0.05684 0.0
C2021 C 0.49028 0.59111 0.06106 0.0
C2022 C 0.50513 0.63124 0.0741 0.0
C2023 C 0.49716 0.62728 0.09583 0.0
C2024 C 0.48492 0.60543 0.09984 0.0
H2025 H 0.49109 0.69006 0.22811 0.0
H2026 H 0.49179 0.6658 0.19286 0.0
C2027 C 0.48152 0.58752 0.08263 0.0
C2028 C 0.50194 0.64566 0.1146 0.0
H2029 H 0.53445 0.65577 0.16632 0.0
C2030 C 0.48716 0.66623 0.11453 0.0
C2031 C 0.51977 0.6422 0.13322 0.0
C2032 C 0.53698 0.62089 0.13377 0.0
C2033 C 0.48862 0.68283 0.13318 0.0
C2034 C 0.50571 0.67889 0.15219 0.0
C2035 C 0.52131 0.65877 0.15179 0.0
C2036 C 0.50594 0.69414 0.17344 0.0
C2037 C 0.47085 0.70378 0.13286 0.0
C2038 C 0.51395 0.71818 0.17437 0.0
C2039 C 0.51347 0.73217 0.19463 0.0
C2040 C 0.50522 0.72226 0.21423 0.0
C2041 C 0.49759 0.69818 0.21327 0.0
C2042 C 0.49802 0.68428 0.19313 0.0
H2043 H 0.45506 0.70177 0.11892 0.0
H2044 H 0.46082 0.70646 0.14901 0.0
H2045 H 0.48349 0.71987 0.13059 0.0
H2046 H 0.52052 0.72612 0.15947 0.0
H2047 H 0.51906 0.75073 0.19485 0.0
loop_
_geom_bond_atom_site_label_1
_geom_bond_atom_site_label_2
_geom_bond_distance
_geom_bond_site_symmetry_2
_ccdc_geom_bond_type
Tb0 O3 2.450 1_565 S
Tb0 O4 2.594 1_566 S
Tb0 O5 2.375 1_556 S
Tb0 O13 2.344 1_456 S
Tb0 O15 2.352 1_465 S
Tb0 O17 2.429 . S
Tb0 O18 2.516 . S
C1 O5 1.262 . S
C1 O7 1.252 1_565 S
Tb2 O4 2.343 1_655 S
Tb2 O7 2.353 1_655 S
Tb2 O10 2.422 1_655 S
Tb2 O11 2.513 . S
Tb2 O12 2.453 1_545 S
Tb2 O13 2.595 1_545 S
Tb2 O14 2.374 1_554 S
O3 Tb0 2.450 1_545 S
O3 C19 1.212 1_556 S
O4 Tb0 2.594 1_544 S
O4 Tb2 2.343 1_455 S
O4 C19 1.276 . S
O5 Tb0 2.375 1_554 S
O5 C1 1.262 . S
C6 O10 1.269 1_655 S
C6 O11 1.246 . S
O7 C1 1.252 1_545 S
O7 Tb2 2.353 1_455 S
C8 O12 1.245 . S
C8 O13 1.259 . S
C9 O14 1.250 . S
C9 O15 1.263 . S
O10 Tb2 2.422 1_455 S
O10 C6 1.269 1_455 S
O11 Tb2 2.513 . S
O11 C6 1.246 . S
O12 Tb2 2.453 1_565 S
O12 C8 1.245 . S
O13 Tb0 2.344 1_654 S
O13 Tb2 2.595 1_565 S
O13 C8 1.259 . S
O14 Tb2 2.374 1_556 S
O14 C9 1.250 . S
O15 Tb0 2.352 1_645 S
O15 C9 1.263 . S
C16 O17 1.275 . S
C16 O18 1.246 . S
O17 Tb0 2.429 . S
O17 C16 1.275 . S
O18 Tb0 2.516 . S
O18 C16 1.246 . S
C19 O3 1.212 1_554 S
C19 O4 1.276 . S
Tb20 O23 2.453 . S
Tb20 O24 2.596 1_655 S
Tb20 O25 2.374 1_655 S
Tb20 O33 2.343 1_655 S
Tb20 O35 2.353 . S
Tb20 O37 2.427 . S
Tb20 O38 2.513 . S
C21 O25 1.251 . S
C21 O27 1.263 . S
Tb22 O24 2.343 . S
Tb22 O27 2.353 . S
Tb22 O30 2.427 . S
Tb22 O31 2.513 . S
Tb22 O32 2.453 . S
Tb22 O33 2.596 . S
Tb22 O34 2.374 1_455 S
O23 Tb20 2.453 . S
O23 C39 1.245 . S
O24 Tb20 2.596 1_455 S
O24 Tb22 2.343 . S
O24 C39 1.259 1_455 S
O25 Tb20 2.374 1_455 S
O25 C21 1.251 . S
C26 O30 1.275 . S
C26 O31 1.246 . S
O27 C21 1.263 . S
O27 Tb22 2.353 . S
C28 O32 1.245 . S
C28 O33 1.259 . S
C29 O34 1.250 . S
C29 O35 1.263 . S
O30 Tb22 2.427 . S
O30 C26 1.275 . S
O31 Tb22 2.513 . S
O31 C26 1.246 . S
O32 Tb22 2.453 . S
O32 C28 1.245 . S
O33 Tb20 2.343 1_455 S
O33 Tb22 2.596 . S
O33 C28 1.259 . S
O34 Tb22 2.374 1_655 S
O34 C29 1.250 . S
O35 Tb20 2.353 . S
O35 C29 1.263 . S
C36 O37 1.275 . S
C36 O38 1.246 . S
O37 Tb20 2.427 . S
O37 C36 1.275 . S
O38 Tb20 2.513 . S
O38 C36 1.246 . S
C39 O23 1.245 . S
C39 O24 1.259 1_655 S
Tb40 O43 2.453 . S
Tb40 O44 2.596 . S
Tb40 O45 2.374 . S
Tb40 O53 2.343 . S
Tb40 O55 2.353 . S
Tb40 O57 2.427 . S
Tb40 O58 2.513 . S
C41 O45 1.251 . S
C41 O47 1.263 . S
Tb42 O44 2.343 . S
Tb42 O47 2.353 . S
Tb42 O50 2.427 . S
Tb42 O51 2.513 . S
Tb42 O52 2.453 . S
Tb42 O53 2.596 . S
Tb42 O54 2.374 . S
O43 Tb40 2.453 . S
O43 C59 1.245 . S
O44 Tb40 2.596 . S
O44 Tb42 2.343 . S
O44 C59 1.259 . S
O45 Tb40 2.374 . S
O45 C41 1.251 . S
C46 O50 1.275 . S
C46 O51 1.246 . S
O47 C41 1.263 . S
O47 Tb42 2.353 . S
C48 O52 1.245 . S
C48 O53 1.259 . S
C49 O54 1.250 . S
C49 O55 1.263 . S
O50 Tb42 2.427 . S
O50 C46 1.275 . S
O51 Tb42 2.513 . S
O51 C46 1.246 . S
O52 Tb42 2.453 . S
O52 C48 1.245 . S
O53 Tb40 2.343 . S
O53 Tb42 2.596 . S
O53 C48 1.259 . S
O54 Tb42 2.374 . S
O54 C49 1.250 . S
O55 Tb40 2.353 . S
O55 C49 1.263 . S
C56 O57 1.275 . S
C56 O58 1.246 . S
O57 Tb40 2.427 . S
O57 C56 1.275 . S
O58 Tb40 2.513 . S
O58 C56 1.246 . S
C59 O43 1.245 . S
C59 O44 1.259 . S
Tb60 O63 2.453 . S
Tb60 O64 2.596 . S
Tb60 O65 2.374 . S
Tb60 O73 2.343 . S
Tb60 O75 2.353 . S
Tb60 O77 2.427 . S
Tb60 O78 2.513 . S
C61 O65 1.251 1_565 S
C61 O67 1.263 . S
Tb62 O64 2.343 1_565 S
Tb62 O67 2.353 . S
Tb62 O70 2.427 . S
Tb62 O71 2.513 . S
Tb62 O72 2.453 . S
Tb62 O73 2.596 1_565 S
Tb62 O74 2.374 1_565 S
O63 Tb60 2.453 . S
O63 C79 1.245 . S
O64 Tb60 2.596 . S
O64 Tb62 2.343 1_545 S
O64 C79 1.259 . S
O65 Tb60 2.374 . S
O65 C61 1.251 1_545 S
C66 O70 1.275 . S
C66 O71 1.246 . S
O67 C61 1.263 . S
O67 Tb62 2.353 . S
C68 O72 1.245 1_545 S
C68 O73 1.259 . S
C69 O74 1.250 . S
C69 O75 1.263 . S
O70 Tb62 2.427 . S
O70 C66 1.275 . S
O71 Tb62 2.513 . S
O71 C66 1.246 . S
O72 Tb62 2.453 . S
O72 C68 1.245 1_565 S
O73 Tb60 2.343 . S
O73 Tb62 2.596 1_545 S
O73 C68 1.259 . S
O74 Tb62 2.374 1_545 S
O74 C69 1.250 . S
O75 Tb60 2.353 . S
O75 C69 1.263 . S
C76 O77 1.275 . S
C76 O78 1.246 . S
O77 Tb60 2.427 . S
O77 C76 1.275 . S
O78 Tb60 2.513 . S
O78 C76 1.246 . S
C79 O63 1.245 . S
C79 O64 1.259 . S
Tb80 O83 2.453 . S
Tb80 O84 2.596 . S
Tb80 O85 2.374 . S
Tb80 O93 2.343 . S
Tb80 O95 2.353 . S
Tb80 O97 2.427 . S
Tb80 O98 2.513 . S
C81 O85 1.251 . S
C81 O87 1.263 . S
Tb82 O84 2.343 . S
Tb82 O87 2.353 . S
Tb82 O90 2.427 . S
Tb82 O91 2.513 . S
Tb82 O92 2.453 . S
Tb82 O93 2.596 . S
Tb82 O94 2.374 . S
O83 Tb80 2.453 . S
O83 C99 1.245 . S
O84 Tb80 2.596 . S
O84 Tb82 2.343 . S
O84 C99 1.259 . S
O85 Tb80 2.374 . S
O85 C81 1.251 . S
C86 O90 1.275 . S
C86 O91 1.246 . S
O87 C81 1.263 . S
O87 Tb82 2.353 . S
C88 O92 1.245 . S
C88 O93 1.259 . S
C89 O94 1.250 . S
C89 O95 1.263 . S
O90 Tb82 2.427 . S
O90 C86 1.275 . S
O91 Tb82 2.513 . S
O91 C86 1.246 . S
O92 Tb82 2.453 . S
O92 C88 1.245 . S
O93 Tb80 2.343 . S
O93 Tb82 2.596 . S
O93 C88 1.259 . S
O94 Tb82 2.374 . S
O94 C89 1.250 . S
O95 Tb80 2.353 . S
O95 C89 1.263 . S
C96 O97 1.275 . S
C96 O98 1.246 . S
O97 Tb80 2.427 . S
O97 C96 1.275 . S
O98 Tb80 2.513 . S
O98 C96 1.246 . S
C99 O83 1.245 . S
C99 O84 1.259 . S
Tb100 O103 2.453 . S
Tb100 O104 2.596 . S
Tb100 O105 2.374 . S
Tb100 O113 2.343 . S
Tb100 O115 2.353 . S
Tb100 O117 2.427 . S
Tb100 O118 2.513 . S
C101 O105 1.251 . S
C101 O107 1.263 . S
Tb102 O104 2.343 . S
Tb102 O107 2.353 . S
Tb102 O110 2.427 . S
Tb102 O111 2.513 . S
Tb102 O112 2.453 . S
Tb102 O113 2.596 . S
Tb102 O114 2.374 . S
O103 Tb100 2.453 . S
O103 C119 1.245 . S
O104 Tb100 2.596 . S
O104 Tb102 2.343 . S
O104 C119 1.259 . S
O105 Tb100 2.374 . S
O105 C101 1.251 . S
C106 O110 1.275 . S
C106 O111 1.246 . S
O107 C101 1.263 . S
O107 Tb102 2.353 . S
C108 O112 1.245 . S
C108 O113 1.259 . S
C109 O114 1.250 . S
C109 O115 1.263 . S
O110 Tb102 2.427 . S
O110 C106 1.275 . S
O111 Tb102 2.513 . S
O111 C106 1.246 . S
O112 Tb102 2.453 . S
O112 C108 1.245 . S
O113 Tb100 2.343 . S
O113 Tb102 2.596 . S
O113 C108 1.259 . S
O114 Tb102 2.374 . S
O114 C109 1.250 . S
O115 Tb100 2.353 . S
O115 C109 1.263 . S
C116 O117 1.275 . S
C116 O118 1.246 . S
O117 Tb100 2.427 . S
O117 C116 1.275 . S
O118 Tb100 2.513 . S
O118 C116 1.246 . S
C119 O103 1.245 . S
C119 O104 1.259 . S
Tb120 O123 2.453 . S
Tb120 O124 2.596 . S
Tb120 O125 2.374 . S
Tb120 O133 2.343 . S
Tb120 O135 2.353 . S
Tb120 O137 2.427 . S
Tb120 O138 2.513 . S
C121 O125 1.251 . S
C121 O127 1.263 . S
Tb122 O124 2.343 . S
Tb122 O127 2.353 . S
Tb122 O130 2.427 . S
Tb122 O131 2.513 . S
Tb122 O132 2.453 . S
Tb122 O133 2.596 . S
Tb122 O134 2.374 . S
O123 Tb120 2.453 . S
O123 C139 1.245 . S
O124 Tb120 2.596 . S
O124 Tb122 2.343 . S
O124 C139 1.259 . S
O125 Tb120 2.374 . S
O125 C121 1.251 . S
C126 O130 1.275 . S
C126 O131 1.246 . S
O127 C121 1.263 . S
O127 Tb122 2.353 . S
C128 O132 1.245 . S
C128 O133 1.259 . S
C129 O134 1.250 . S
C129 O135 1.263 . S
O130 Tb122 2.427 . S
O130 C126 1.275 . S
O131 Tb122 2.513 . S
O131 C126 1.246 . S
O132 Tb122 2.453 . S
O132 C128 1.245 . S
O133 Tb120 2.343 . S
O133 Tb122 2.596 . S
O133 C128 1.259 . S
O134 Tb122 2.374 . S
O134 C129 1.250 . S
O135 Tb120 2.353 . S
O135 C129 1.263 . S
C136 O137 1.275 . S
C136 O138 1.246 . S
O137 Tb120 2.427 . S
O137 C136 1.275 . S
O138 Tb120 2.513 . S
O138 C136 1.246 . S
C139 O123 1.245 . S
C139 O124 1.259 . S
Tb140 O143 2.453 . S
Tb140 O144 2.596 . S
Tb140 O145 2.374 . S
Tb140 O153 2.343 1_455 S
Tb140 O155 2.353 1_455 S
Tb140 O157 2.427 . S
Tb140 O158 2.513 . S
C141 O145 1.251 . S
C141 O147 1.263 . S
Tb142 O144 2.343 1_655 S
Tb142 O147 2.353 1_655 S
Tb142 O150 2.427 1_655 S
Tb142 O151 2.513 . S
Tb142 O152 2.453 . S
Tb142 O153 2.596 . S
Tb142 O154 2.374 . S
O143 Tb140 2.453 . S
O143 C159 1.245 . S
O144 Tb140 2.596 . S
O144 Tb142 2.343 1_455 S
O144 C159 1.259 . S
O145 Tb140 2.374 . S
O145 C141 1.251 . S
C146 O150 1.275 1_655 S
C146 O151 1.246 . S
O147 C141 1.263 . S
O147 Tb142 2.353 1_455 S
C148 O152 1.245 . S
C148 O153 1.259 . S
C149 O154 1.250 . S
C149 O155 1.263 . S
O150 Tb142 2.427 1_455 S
O150 C146 1.275 1_455 S
O151 Tb142 2.513 . S
O151 C146 1.246 . S
O152 Tb142 2.453 . S
O152 C148 1.245 . S
O153 Tb140 2.343 1_655 S
O153 Tb142 2.596 . S
O153 C148 1.259 . S
O154 Tb142 2.374 . S
O154 C149 1.250 . S
O155 Tb140 2.353 1_655 S
O155 C149 1.263 . S
C156 O157 1.275 . S
C156 O158 1.246 . S
O157 Tb140 2.427 . S
O157 C156 1.275 . S
O158 Tb140 2.513 . S
O158 C156 1.246 . S
C159 O143 1.245 . S
C159 O144 1.259 . S
Tb160 O163 2.453 . S
Tb160 O164 2.596 1_556 S
Tb160 O165 2.374 1_556 S
Tb160 O173 2.336 1_556 S
Tb160 O175 2.353 . S
Tb160 O177 2.427 . S
Tb160 O178 2.513 . S
C161 O165 1.251 . S
C161 O167 1.263 . S
Tb162 O164 2.343 . S
Tb162 O167 2.353 . S
Tb162 O170 2.427 . S
Tb162 O171 2.513 . S
Tb162 O172 2.453 . S
Tb162 O173 2.604 . S
Tb162 O174 2.374 1_554 S
O163 Tb160 2.453 . S
O163 C179 1.245 . S
O164 Tb160 2.596 1_554 S
O164 Tb162 2.343 . S
O164 C179 1.259 1_554 S
O165 Tb160 2.374 1_554 S
O165 C161 1.251 . S
C166 O170 1.275 . S
C166 O171 1.246 . S
O167 C161 1.263 . S
O167 Tb162 2.353 . S
C168 O172 1.245 . S
C168 O173 1.264 . S
C169 O174 1.250 . S
C169 O175 1.263 . S
O170 Tb162 2.427 . S
O170 C166 1.275 . S
O171 Tb162 2.513 . S
O171 C166 1.246 . S
O172 Tb162 2.453 . S
O172 C168 1.245 . S
O173 Tb160 2.336 1_554 S
O173 Tb162 2.604 . S
O173 C168 1.264 . S
O174 Tb162 2.374 1_556 S
O174 C169 1.250 . S
O175 Tb160 2.353 . S
O175 C169 1.263 . S
C176 O177 1.275 . S
C176 O178 1.246 . S
O177 Tb160 2.427 . S
O177 C176 1.275 . S
O178 Tb160 2.513 . S
O178 C176 1.246 . S
C179 O163 1.245 . S
C179 O164 1.259 1_556 S
Tb180 O183 2.453 . S
Tb180 O184 2.596 . S
Tb180 O185 2.374 1_545 S
Tb180 O193 2.343 . S
Tb180 O195 2.353 . S
Tb180 O197 2.427 . S
Tb180 O198 2.513 . S
C181 O185 1.251 . S
C181 O187 1.263 . S
Tb182 O184 2.343 1_565 S
Tb182 O187 2.353 . S
Tb182 O190 2.427 . S
Tb182 O191 2.513 . S
Tb182 O192 2.453 . S
Tb182 O193 2.596 1_565 S
Tb182 O194 2.374 1_565 S
O183 Tb180 2.453 . S
O183 C199 1.245 . S
O184 Tb180 2.596 . S
O184 Tb182 2.343 1_545 S
O184 C199 1.259 . S
O185 Tb180 2.374 1_565 S
O185 C181 1.251 . S
C186 O190 1.275 . S
C186 O191 1.246 . S
O187 C181 1.263 . S
O187 Tb182 2.353 . S
C188 O192 1.245 . S
C188 O193 1.259 1_565 S
C189 O194 1.250 . S
C189 O195 1.263 . S
O190 Tb182 2.427 . S
O190 C186 1.275 . S
O191 Tb182 2.513 . S
O191 C186 1.246 . S
O192 Tb182 2.453 . S
O192 C188 1.245 . S
O193 Tb180 2.343 . S
O193 Tb182 2.596 1_545 S
O193 C188 1.259 1_545 S
O194 Tb182 2.374 1_545 S
O194 C189 1.250 . S
O195 Tb180 2.353 . S
O195 C189 1.263 . S
C196 O197 1.275 . S
C196 O198 1.246 . S
O197 Tb180 2.427 . S
O197 C196 1.275 . S
O198 Tb180 2.513 . S
O198 C196 1.246 . S
C199 O183 1.245 . S
C199 O184 1.259 . S
Tb200 O203 2.453 . S
Tb200 O204 2.596 . S
Tb200 O205 2.374 . S
Tb200 O213 2.343 . S
Tb200 O215 2.353 . S
Tb200 O217 2.427 . S
Tb200 O218 2.513 . S
C201 O205 1.251 . S
C201 O207 1.263 . S
Tb202 O204 2.343 . S
Tb202 O207 2.353 . S
Tb202 O210 2.427 . S
Tb202 O211 2.513 . S
Tb202 O212 2.453 . S
Tb202 O213 2.596 . S
Tb202 O214 2.374 . S
O203 Tb200 2.453 . S
O203 C219 1.245 . S
O204 Tb200 2.596 . S
O204 Tb202 2.343 . S
O204 C219 1.259 . S
O205 Tb200 2.374 . S
O205 C201 1.251 . S
C206 O210 1.275 . S
C206 O211 1.246 . S
O207 C201 1.263 . S
O207 Tb202 2.353 . S
C208 O212 1.245 . S
C208 O213 1.259 . S
C209 O214 1.250 . S
C209 O215 1.263 . S
O210 Tb202 2.427 . S
O210 C206 1.275 . S
O211 Tb202 2.513 . S
O211 C206 1.246 . S
O212 Tb202 2.453 . S
O212 C208 1.245 . S
O213 Tb200 2.343 . S
O213 Tb202 2.596 . S
O213 C208 1.259 . S
O214 Tb202 2.374 . S
O214 C209 1.250 . S
O215 Tb200 2.353 . S
O215 C209 1.263 . S
C216 O217 1.275 . S
C216 O218 1.246 . S
O217 Tb200 2.427 . S
O217 C216 1.275 . S
O218 Tb200 2.513 . S
O218 C216 1.246 . S
C219 O203 1.245 . S
C219 O204 1.259 . S
Tb220 O223 2.453 . S
Tb220 O224 2.596 1_655 S
Tb220 O225 2.374 1_655 S
Tb220 O233 2.343 1_655 S
Tb220 O235 2.353 . S
Tb220 O237 2.427 . S
Tb220 O238 2.513 . S
C221 O225 1.251 . S
C221 O227 1.263 . S
Tb222 O224 2.343 . S
Tb222 O227 2.353 . S
Tb222 O230 2.427 . S
Tb222 O231 2.513 . S
Tb222 O232 2.453 . S
Tb222 O233 2.596 . S
Tb222 O234 2.374 1_455 S
O223 Tb220 2.453 . S
O223 C239 1.245 . S
O224 Tb220 2.596 1_455 S
O224 Tb222 2.343 . S
O224 C239 1.259 1_455 S
O225 Tb220 2.374 1_455 S
O225 C221 1.251 . S
C226 O230 1.275 . S
C226 O231 1.246 . S
O227 C221 1.263 . S
O227 Tb222 2.353 . S
C228 O232 1.245 . S
C228 O233 1.259 . S
C229 O234 1.250 . S
C229 O235 1.263 . S
O230 Tb222 2.427 . S
O230 C226 1.275 . S
O231 Tb222 2.513 . S
O231 C226 1.246 . S
O232 Tb222 2.453 . S
O232 C228 1.245 . S
O233 Tb220 2.343 1_455 S
O233 Tb222 2.596 . S
O233 C228 1.259 . S
O234 Tb222 2.374 1_655 S
O234 C229 1.250 . S
O235 Tb220 2.353 . S
O235 C229 1.263 . S
C236 O237 1.275 . S
C236 O238 1.246 . S
O237 Tb220 2.427 . S
O237 C236 1.275 . S
O238 Tb220 2.513 . S
O238 C236 1.246 . S
C239 O223 1.245 . S
C239 O224 1.259 1_655 S
Tb240 O243 2.453 . S
Tb240 O244 2.596 . S
Tb240 O245 2.374 . S
Tb240 O253 2.343 . S
Tb240 O255 2.353 . S
Tb240 O257 2.427 . S
Tb240 O258 2.513 . S
C241 O245 1.251 . S
C241 O247 1.263 . S
Tb242 O244 2.343 . S
Tb242 O247 2.353 . S
Tb242 O250 2.427 . S
Tb242 O251 2.513 . S
Tb242 O252 2.453 . S
Tb242 O253 2.596 . S
Tb242 O254 2.374 . S
O243 Tb240 2.453 . S
O243 C259 1.245 . S
O244 Tb240 2.596 . S
O244 Tb242 2.343 . S
O244 C259 1.259 . S
O245 Tb240 2.374 . S
O245 C241 1.251 . S
C246 O250 1.275 . S
C246 O251 1.246 . S
O247 C241 1.263 . S
O247 Tb242 2.353 . S
C248 O252 1.245 . S
C248 O253 1.259 . S
C249 O254 1.250 . S
C249 O255 1.263 . S
O250 Tb242 2.427 . S
O250 C246 1.275 . S
O251 Tb242 2.513 . S
O251 C246 1.246 . S
O252 Tb242 2.453 . S
O252 C248 1.245 . S
O253 Tb240 2.343 . S
O253 Tb242 2.596 . S
O253 C248 1.259 . S
O254 Tb242 2.374 . S
O254 C249 1.250 . S
O255 Tb240 2.353 . S
O255 C249 1.263 . S
C256 O257 1.275 . S
C256 O258 1.246 . S
O257 Tb240 2.427 . S
O257 C256 1.275 . S
O258 Tb240 2.513 . S
O258 C256 1.246 . S
C259 O243 1.245 . S
C259 O244 1.259 . S
Tb260 O263 2.453 . S
Tb260 O264 2.596 1_556 S
Tb260 O265 2.374 1_556 S
Tb260 O273 2.343 1_556 S
Tb260 O275 2.353 . S
Tb260 O277 2.427 . S
Tb260 O278 2.513 . S
C261 O265 1.251 . S
C261 O267 1.263 . S
Tb262 O264 2.343 . S
Tb262 O267 2.353 . S
Tb262 O270 2.427 . S
Tb262 O271 2.513 . S
Tb262 O272 2.453 . S
Tb262 O273 2.596 . S
Tb262 O274 2.374 1_554 S
O263 Tb260 2.453 . S
O263 C279 1.276 . S
O264 Tb260 2.596 1_554 S
O264 Tb262 2.343 . S
O264 C279 1.248 1_554 S
O265 Tb260 2.374 1_554 S
O265 C261 1.251 . S
C266 O270 1.275 . S
C266 O271 1.246 . S
O267 C261 1.263 . S
O267 Tb262 2.353 . S
C268 O272 1.245 . S
C268 O273 1.259 . S
C269 O274 1.250 . S
C269 O275 1.263 . S
O270 Tb262 2.427 . S
O270 C266 1.275 . S
O271 Tb262 2.513 . S
O271 C266 1.246 . S
O272 Tb262 2.453 . S
O272 C268 1.245 . S
O273 Tb260 2.343 1_554 S
O273 Tb262 2.596 . S
O273 C268 1.259 . S
O274 Tb262 2.374 1_556 S
O274 C269 1.250 . S
O275 Tb260 2.353 . S
O275 C269 1.263 . S
C276 O277 1.275 . S
C276 O278 1.246 . S
O277 Tb260 2.427 . S
O277 C276 1.275 . S
O278 Tb260 2.513 . S
O278 C276 1.246 . S
C279 O263 1.276 . S
C279 O264 1.248 1_556 S
Tb280 O283 2.453 . S
Tb280 O284 2.596 . S
Tb280 O285 2.374 . S
Tb280 O293 2.343 1_565 S
Tb280 O295 2.353 1_565 S
Tb280 O297 2.427 1_565 S
Tb280 O298 2.513 . S
C281 O285 1.251 . S
C281 O287 1.263 . S
Tb282 O284 2.343 1_545 S
Tb282 O287 2.353 1_545 S
Tb282 O290 2.427 . S
Tb282 O291 2.513 . S
Tb282 O292 2.453 . S
Tb282 O293 2.596 . S
Tb282 O294 2.374 . S
O283 Tb280 2.453 . S
O283 C299 1.245 . S
O284 Tb280 2.596 . S
O284 Tb282 2.343 1_565 S
O284 C299 1.259 . S
O285 Tb280 2.374 . S
O285 C281 1.251 . S
C286 O290 1.275 . S
C286 O291 1.246 . S
O287 C281 1.263 . S
O287 Tb282 2.353 1_565 S
C288 O292 1.245 . S
C288 O293 1.259 . S
C289 O294 1.250 . S
C289 O295 1.263 . S
O290 Tb282 2.427 . S
O290 C286 1.275 . S
O291 Tb282 2.513 . S
O291 C286 1.246 . S
O292 Tb282 2.453 . S
O292 C288 1.245 . S
O293 Tb280 2.343 1_545 S
O293 Tb282 2.596 . S
O293 C288 1.259 . S
O294 Tb282 2.374 . S
O294 C289 1.250 . S
O295 Tb280 2.353 1_545 S
O295 C289 1.263 . S
C296 O297 1.275 . S
C296 O298 1.246 1_545 S
O297 Tb280 2.427 1_545 S
O297 C296 1.275 . S
O298 Tb280 2.513 . S
O298 C296 1.246 1_565 S
C299 O283 1.245 . S
C299 O284 1.259 . S
Tb300 O303 2.453 . S
Tb300 O304 2.596 1_556 S
Tb300 O305 2.374 1_556 S
Tb300 O313 2.337 1_556 S
Tb300 O315 2.353 . S
Tb300 O317 2.427 . S
Tb300 O318 2.513 . S
C301 O305 1.251 . S
C301 O307 1.263 . S
Tb302 O304 2.343 . S
Tb302 O307 2.353 . S
Tb302 O310 2.427 . S
Tb302 O311 2.513 . S
Tb302 O312 2.453 . S
Tb302 O313 2.602 . S
Tb302 O314 2.374 1_554 S
O303 Tb300 2.453 . S
O303 C319 1.231 1_556 S
O304 Tb300 2.596 1_554 S
O304 Tb302 2.343 . S
O304 C319 1.266 . S
O305 Tb300 2.374 1_554 S
O305 C301 1.251 . S
C306 O310 1.275 . S
C306 O311 1.246 . S
O307 C301 1.263 . S
O307 Tb302 2.353 . S
C308 O312 1.245 . S
C308 O313 1.264 . S
C309 O314 1.250 . S
C309 O315 1.263 . S
O310 Tb302 2.427 . S
O310 C306 1.275 . S
O311 Tb302 2.513 . S
O311 C306 1.246 . S
O312 Tb302 2.453 . S
O312 C308 1.245 . S
O313 Tb300 2.337 1_554 S
O313 Tb302 2.602 . S
O313 C308 1.264 . S
O314 Tb302 2.374 1_556 S
O314 C309 1.250 . S
O315 Tb300 2.353 . S
O315 C309 1.263 . S
C316 O317 1.275 . S
C316 O318 1.246 . S
O317 Tb300 2.427 . S
O317 C316 1.275 . S
O318 Tb300 2.513 . S
O318 C316 1.246 . S
C319 O303 1.231 1_554 S
C319 O304 1.266 . S
H320 C328 0.929 . S
H321 C330 0.930 . S
H322 C332 0.930 . S
H323 C335 0.924 1_455 S
H324 C338 0.930 . S
H325 C340 0.960 . S
H326 C340 0.960 . S
H327 C340 0.960 . S
C328 H320 0.929 . S
C328 C329 1.377 . S
C328 C330 1.384 . S
C329 C328 1.377 . S
C329 C335 1.395 . S
C330 H321 0.930 . S
C330 C328 1.384 . S
C330 C331 1.372 . S
C331 C330 1.372 . S
C331 C332 1.400 1_655 S
C331 C336 1.490 . S
C332 H322 0.930 . S
C332 C331 1.400 1_455 S
C332 C335 1.387 1_455 S
H333 C349 0.929 1_455 S
H334 C350 0.931 . S
C335 H323 0.924 1_655 S
C335 C329 1.395 . S
C335 C332 1.387 1_655 S
C336 C331 1.490 . S
C336 C338 1.395 . S
C336 C339 1.403 1_655 S
H337 C343 0.930 . S
C338 H324 0.930 . S
C338 C336 1.395 . S
C338 C341 1.403 . S
C339 C336 1.403 1_455 S
C339 C340 1.524 . S
C339 C343 1.400 . S
C340 H325 0.960 . S
C340 H326 0.960 . S
C340 H327 0.960 . S
C340 C339 1.524 . S
C341 C338 1.403 . S
C341 C342 1.392 . S
C341 C345 1.495 . S
C342 C341 1.392 . S
C342 C343 1.385 1_655 S
C342 C344 1.478 . S
C343 H337 0.930 . S
C343 C339 1.400 . S
C343 C342 1.385 1_455 S
C344 C342 1.478 . S
C344 C346 1.381 . S
C344 C350 1.383 . S
C345 C341 1.495 . S
C345 H351 0.959 . S
C345 H352 0.961 . S
C345 H353 0.960 . S
C346 C344 1.381 . S
C346 C347 1.394 . S
C346 H354 0.930 . S
C347 C346 1.394 . S
C347 C348 1.386 . S
C347 H355 0.929 . S
C348 C347 1.386 . S
C348 C349 1.376 . S
C349 H333 0.929 1_655 S
C349 C348 1.376 . S
C349 C350 1.380 . S
C350 H334 0.931 . S
C350 C344 1.383 . S
C350 C349 1.380 . S
H351 C345 0.959 . S
H352 C345 0.961 . S
H353 C345 0.960 . S
H354 C346 0.930 . S
H355 C347 0.929 . S
H356 C364 0.929 . S
H357 C366 0.930 . S
H358 C368 0.930 . S
H359 C371 0.929 . S
H360 C374 0.930 . S
H361 C376 0.960 . S
H362 C376 0.960 . S
H363 C376 0.960 . S
C364 H356 0.929 . S
C364 C365 1.377 . S
C364 C366 1.384 . S
C365 C364 1.377 . S
C365 C371 1.390 . S
C366 H357 0.930 . S
C366 C364 1.384 . S
C366 C367 1.372 . S
C367 C366 1.372 . S
C367 C368 1.400 . S
C367 C372 1.490 . S
C368 H358 0.930 . S
C368 C367 1.400 . S
C368 C371 1.386 . S
H369 C385 0.930 . S
H370 C386 0.931 . S
C371 H359 0.929 . S
C371 C365 1.390 . S
C371 C368 1.386 . S
C372 C367 1.490 . S
C372 C374 1.395 . S
C372 C375 1.403 . S
H373 C379 0.930 . S
C374 H360 0.930 . S
C374 C372 1.395 . S
C374 C377 1.403 . S
C375 C372 1.403 . S
C375 C376 1.524 . S
C375 C379 1.400 . S
C376 H361 0.960 . S
C376 H362 0.960 . S
C376 H363 0.960 . S
C376 C375 1.524 . S
C377 C374 1.403 . S
C377 C378 1.392 . S
C377 C381 1.495 . S
C378 C377 1.392 . S
C378 C379 1.385 . S
C378 C380 1.478 . S
C379 H373 0.930 . S
C379 C375 1.400 . S
C379 C378 1.385 . S
C380 C378 1.478 . S
C380 C382 1.381 . S
C380 C386 1.383 . S
C381 C377 1.495 . S
C381 H387 0.959 . S
C381 H388 0.961 . S
C381 H389 0.960 . S
C382 C380 1.381 . S
C382 C383 1.394 . S
C382 H390 0.930 . S
C383 C382 1.394 . S
C383 C384 1.383 . S
C383 H391 0.929 . S
C384 C383 1.383 . S
C384 C385 1.377 . S
C385 H369 0.930 . S
C385 C384 1.377 . S
C385 C386 1.379 . S
C386 H370 0.931 . S
C386 C380 1.383 . S
C386 C385 1.379 . S
H387 C381 0.959 . S
H388 C381 0.961 . S
H389 C381 0.960 . S
H390 C382 0.930 . S
H391 C383 0.929 . S
H392 C400 0.929 . S
H393 C402 0.930 . S
H394 C404 0.930 . S
H395 C407 0.929 . S
H396 C410 0.930 . S
H397 C412 0.960 . S
H398 C412 0.960 . S
H399 C412 0.960 . S
C400 H392 0.929 . S
C400 C401 1.377 . S
C400 C402 1.384 . S
C401 C400 1.377 . S
C401 C407 1.390 . S
C402 H393 0.930 . S
C402 C400 1.384 . S
C402 C403 1.372 . S
C403 C402 1.372 . S
C403 C404 1.400 . S
C403 C408 1.490 . S
C404 H394 0.930 . S
C404 C403 1.400 . S
C404 C407 1.386 . S
H405 C421 0.930 . S
H406 C422 0.931 . S
C407 H395 0.929 . S
C407 C401 1.390 . S
C407 C404 1.386 . S
C408 C403 1.490 . S
C408 C410 1.395 . S
C408 C411 1.403 . S
H409 C415 0.930 . S
C410 H396 0.930 . S
C410 C408 1.395 . S
C410 C413 1.403 . S
C411 C408 1.403 . S
C411 C412 1.524 . S
C411 C415 1.400 . S
C412 H397 0.960 . S
C412 H398 0.960 . S
C412 H399 0.960 . S
C412 C411 1.524 . S
C413 C410 1.403 . S
C413 C414 1.392 . S
C413 C417 1.495 . S
C414 C413 1.392 . S
C414 C415 1.385 . S
C414 C416 1.478 . S
C415 H409 0.930 . S
C415 C411 1.400 . S
C415 C414 1.385 . S
C416 C414 1.478 . S
C416 C418 1.381 . S
C416 C422 1.383 . S
C417 C413 1.495 . S
C417 H423 0.959 . S
C417 H424 0.961 . S
C417 H425 0.960 . S
C418 C416 1.381 . S
C418 C419 1.394 . S
C418 H426 0.930 . S
C419 C418 1.394 . S
C419 C420 1.383 . S
C419 H427 0.929 . S
C420 C419 1.383 . S
C420 C421 1.377 . S
C421 H405 0.930 . S
C421 C420 1.377 . S
C421 C422 1.379 . S
C422 H406 0.931 . S
C422 C416 1.383 . S
C422 C421 1.379 . S
H423 C417 0.959 . S
H424 C417 0.961 . S
H425 C417 0.960 . S
H426 C418 0.930 . S
H427 C419 0.929 . S
H428 C436 0.929 . S
H429 C438 0.930 . S
H430 C440 0.930 . S
H431 C443 0.929 . S
H432 C446 0.929 1_565 S
H433 C448 0.960 . S
H434 C448 0.960 . S
H435 C448 0.960 . S
C436 H428 0.929 . S
C436 C437 1.377 . S
C436 C438 1.384 . S
C437 C436 1.377 . S
C437 C443 1.390 . S
C438 H429 0.930 . S
C438 C436 1.384 . S
C438 C439 1.372 . S
C439 C438 1.372 . S
C439 C440 1.400 . S
C439 C444 1.490 . S
C440 H430 0.930 . S
C440 C439 1.400 . S
C440 C443 1.386 . S
H441 C457 0.930 . S
H442 C458 0.931 . S
C443 H431 0.929 . S
C443 C437 1.390 . S
C443 C440 1.386 . S
C444 C439 1.490 . S
C444 C446 1.395 . S
C444 C447 1.403 . S
H445 C451 0.930 . S
C446 H432 0.929 1_545 S
C446 C444 1.395 . S
C446 C449 1.403 1_545 S
C447 C444 1.403 . S
C447 C448 1.524 . S
C447 C451 1.400 . S
C448 H433 0.960 . S
C448 H434 0.960 . S
C448 H435 0.960 . S
C448 C447 1.524 . S
C449 C446 1.403 1_565 S
C449 C450 1.392 1_565 S
C449 C453 1.495 . S
C450 C449 1.392 1_545 S
C450 C451 1.385 . S
C450 C452 1.478 . S
C451 H445 0.930 . S
C451 C447 1.400 . S
C451 C450 1.385 . S
C452 C450 1.478 . S
C452 C454 1.381 . S
C452 C458 1.383 . S
C453 C449 1.495 . S
C453 H459 0.959 . S
C453 H460 0.961 . S
C453 H461 0.960 . S
C454 C452 1.381 . S
C454 C455 1.394 . S
C454 H462 0.930 . S
C455 C454 1.394 . S
C455 C456 1.383 . S
C455 H463 0.929 . S
C456 C455 1.383 . S
C456 C457 1.377 . S
C457 H441 0.930 . S
C457 C456 1.377 . S
C457 C458 1.379 . S
C458 H442 0.931 . S
C458 C452 1.383 . S
C458 C457 1.379 . S
H459 C453 0.959 . S
H460 C453 0.961 . S
H461 C453 0.960 . S
H462 C454 0.930 . S
H463 C455 0.929 . S
H464 C472 0.929 . S
H465 C474 0.930 . S
H466 C476 0.930 . S
H467 C479 0.929 . S
H468 C482 0.930 . S
H469 C484 0.960 . S
H470 C484 0.928 1_565 S
H471 C484 0.960 . S
C472 H464 0.929 . S
C472 C473 1.405 . S
C472 C474 1.384 . S
C473 C472 1.405 . S
C473 C479 1.365 1_565 S
C474 H465 0.930 . S
C474 C472 1.384 . S
C474 C475 1.408 . S
C475 C474 1.408 . S
C475 C476 1.361 1_565 S
C475 C480 1.490 . S
C476 H466 0.930 . S
C476 C475 1.361 1_545 S
C476 C479 1.386 . S
H477 C493 0.930 . S
H478 C494 0.931 . S
C479 H467 0.929 . S
C479 C473 1.365 1_545 S
C479 C476 1.386 . S
C480 C475 1.490 . S
C480 C482 1.406 . S
C480 C483 1.395 1_565 S
H481 C487 0.930 . S
C482 H468 0.930 . S
C482 C480 1.406 . S
C482 C485 1.403 . S
C483 C480 1.395 1_545 S
C483 C484 1.524 . S
C483 C487 1.400 . S
C484 H469 0.960 . S
C484 H470 0.928 1_545 S
C484 H471 0.960 . S
C484 C483 1.524 . S
C485 C482 1.403 . S
C485 C486 1.398 . S
C485 C489 1.495 . S
C486 C485 1.398 . S
C486 C487 1.379 1_565 S
C486 C488 1.479 1_565 S
C487 H481 0.930 . S
C487 C483 1.400 . S
C487 C486 1.379 1_545 S
C488 C486 1.479 1_545 S
C488 C490 1.363 1_545 S
C488 C494 1.400 . S
C489 C485 1.495 . S
C489 H495 0.959 . S
C489 H496 0.961 . S
C489 H497 0.960 . S
C490 C488 1.363 1_565 S
C490 C491 1.394 . S
C490 H498 0.930 . S
C491 C490 1.394 . S
C491 C492 1.383 1_565 S
C491 H499 0.929 . S
C492 C491 1.383 1_545 S
C492 C493 1.377 . S
C493 H477 0.930 . S
C493 C492 1.377 . S
C493 C494 1.379 . S
C494 H478 0.931 . S
C494 C488 1.400 . S
C494 C493 1.379 . S
H495 C489 0.959 . S
H496 C489 0.961 . S
H497 C489 0.960 . S
H498 C490 0.930 . S
H499 C491 0.929 . S
H500 C508 0.917 1_655 S
H501 C510 0.930 1_655 S
H502 C512 0.930 . S
H503 C515 0.929 . S
H504 C518 0.930 . S
H505 C520 0.960 . S
H506 C520 0.960 . S
H507 C520 0.960 . S
C508 H500 0.917 1_455 S
C508 C509 1.377 . S
C508 C510 1.384 . S
C509 C508 1.377 . S
C509 C515 1.390 . S
C510 H501 0.930 1_455 S
C510 C508 1.384 . S
C510 C511 1.372 . S
C511 C510 1.372 . S
C511 C512 1.400 . S
C511 C516 1.490 . S
C512 H502 0.930 . S
C512 C511 1.400 . S
C512 C515 1.386 . S
H513 C529 0.930 . S
H514 C530 0.931 . S
C515 H503 0.929 . S
C515 C509 1.390 . S
C515 C512 1.386 . S
C516 C511 1.490 . S
C516 C518 1.395 . S
C516 C519 1.403 1_455 S
H517 C523 0.935 . S
C518 H504 0.930 . S
C518 C516 1.395 . S
C518 C521 1.403 . S
C519 C516 1.403 1_655 S
C519 C520 1.524 . S
C519 C523 1.401 . S
C520 H505 0.960 . S
C520 H506 0.960 . S
C520 H507 0.960 . S
C520 C519 1.524 . S
C521 C518 1.403 . S
C521 C522 1.392 . S
C521 C525 1.495 . S
C522 C521 1.392 . S
C522 C523 1.379 1_455 S
C522 C524 1.478 . S
C523 H517 0.935 . S
C523 C519 1.401 . S
C523 C522 1.379 1_655 S
C524 C522 1.478 . S
C524 C526 1.381 . S
C524 C530 1.383 . S
C525 C521 1.495 . S
C525 H531 0.959 . S
C525 H532 0.961 . S
C525 H533 0.960 . S
C526 C524 1.381 . S
C526 C527 1.394 1_455 S
C526 H534 0.930 1_455 S
C527 C526 1.394 1_655 S
C527 C528 1.382 1_655 S
C527 H535 0.930 . S
C528 C527 1.382 1_455 S
C528 C529 1.377 . S
C529 H513 0.930 . S
C529 C528 1.377 . S
C529 C530 1.379 . S
C530 H514 0.931 . S
C530 C524 1.383 . S
C530 C529 1.379 . S
H531 C525 0.959 . S
H532 C525 0.961 . S
H533 C525 0.960 . S
H534 C526 0.930 1_655 S
H535 C527 0.930 . S
H536 C544 0.929 . S
H537 C546 0.930 . S
H538 C548 0.930 . S
H539 C551 0.929 . S
H540 C554 0.930 . S
H541 C556 0.960 . S
H542 C556 0.960 . S
H543 C556 0.960 . S
C544 H536 0.929 . S
C544 C545 1.377 . S
C544 C546 1.384 . S
C545 C544 1.377 . S
C545 C551 1.390 . S
C546 H537 0.930 . S
C546 C544 1.384 . S
C546 C547 1.372 . S
C547 C546 1.372 . S
C547 C548 1.400 . S
C547 C552 1.490 . S
C548 H538 0.930 . S
C548 C547 1.400 . S
C548 C551 1.386 . S
H549 C565 0.930 . S
H550 C566 0.931 . S
C551 H539 0.929 . S
C551 C545 1.390 . S
C551 C548 1.386 . S
C552 C547 1.490 . S
C552 C554 1.395 . S
C552 C555 1.403 . S
H553 C559 0.930 . S
C554 H540 0.930 . S
C554 C552 1.395 . S
C554 C557 1.403 . S
C555 C552 1.403 . S
C555 C556 1.524 . S
C555 C559 1.400 . S
C556 H541 0.960 . S
C556 H542 0.960 . S
C556 H543 0.960 . S
C556 C555 1.524 . S
C557 C554 1.403 . S
C557 C558 1.392 . S
C557 C561 1.495 . S
C558 C557 1.392 . S
C558 C559 1.385 . S
C558 C560 1.478 . S
C559 H553 0.930 . S
C559 C555 1.400 . S
C559 C558 1.385 . S
C560 C558 1.478 . S
C560 C562 1.381 . S
C560 C566 1.383 . S
C561 C557 1.495 . S
C561 H567 0.959 . S
C561 H568 0.961 . S
C561 H569 0.960 . S
C562 C560 1.381 . S
C562 C563 1.394 . S
C562 H570 0.930 . S
C563 C562 1.394 . S
C563 C564 1.383 . S
C563 H571 0.929 . S
C564 C563 1.383 . S
C564 C565 1.377 . S
C565 H549 0.930 . S
C565 C564 1.377 . S
C565 C566 1.379 . S
C566 H550 0.931 . S
C566 C560 1.383 . S
C566 C565 1.379 . S
H567 C561 0.959 . S
H568 C561 0.961 . S
H569 C561 0.960 . S
H570 C562 0.930 . S
H571 C563 0.929 . S
H572 C580 0.929 . S
H573 C582 0.930 . S
H574 C584 0.930 . S
H575 C587 0.929 . S
H576 C590 0.930 . S
H577 C592 0.960 . S
H578 C592 0.960 . S
H579 C592 0.960 . S
C580 H572 0.929 . S
C580 C581 1.377 . S
C580 C582 1.384 . S
C581 C580 1.377 . S
C581 C587 1.390 . S
C582 H573 0.930 . S
C582 C580 1.384 . S
C582 C583 1.372 . S
C583 C582 1.372 . S
C583 C584 1.400 . S
C583 C588 1.490 . S
C584 H574 0.930 . S
C584 C583 1.400 . S
C584 C587 1.386 . S
H585 C601 0.930 . S
H586 C602 0.931 . S
C587 H575 0.929 . S
C587 C581 1.390 . S
C587 C584 1.386 . S
C588 C583 1.490 . S
C588 C590 1.395 . S
C588 C591 1.403 . S
H589 C595 0.930 . S
C590 H576 0.930 . S
C590 C588 1.395 . S
C590 C593 1.403 . S
C591 C588 1.403 . S
C591 C592 1.524 . S
C591 C595 1.400 . S
C592 H577 0.960 . S
C592 H578 0.960 . S
C592 H579 0.960 . S
C592 C591 1.524 . S
C593 C590 1.403 . S
C593 C594 1.392 . S
C593 C597 1.495 . S
C594 C593 1.392 . S
C594 C595 1.385 . S
C594 C596 1.478 . S
C595 H589 0.930 . S
C595 C591 1.400 . S
C595 C594 1.385 . S
C596 C594 1.478 . S
C596 C598 1.381 . S
C596 C602 1.383 . S
C597 C593 1.495 . S
C597 H603 0.959 . S
C597 H604 0.961 . S
C597 H605 0.960 . S
C598 C596 1.381 . S
C598 C599 1.394 . S
C598 H606 0.930 . S
C599 C598 1.394 . S
C599 C600 1.383 . S
C599 H607 0.929 . S
C600 C599 1.383 . S
C600 C601 1.377 . S
C601 H585 0.930 . S
C601 C600 1.377 . S
C601 C602 1.379 . S
C602 H586 0.931 . S
C602 C596 1.383 . S
C602 C601 1.379 . S
H603 C597 0.959 . S
H604 C597 0.961 . S
H605 C597 0.960 . S
H606 C598 0.930 . S
H607 C599 0.929 . S
H608 C616 0.929 . S
H609 C618 0.930 . S
H610 C620 0.930 . S
H611 C623 0.929 . S
H612 C626 0.930 . S
H613 C628 0.960 . S
H614 C628 0.960 . S
H615 C628 0.960 . S
C616 H608 0.929 . S
C616 C617 1.377 . S
C616 C618 1.384 . S
C617 C616 1.377 . S
C617 C623 1.390 . S
C618 H609 0.930 . S
C618 C616 1.384 . S
C618 C619 1.372 . S
C619 C618 1.372 . S
C619 C620 1.400 . S
C619 C624 1.490 . S
C620 H610 0.930 . S
C620 C619 1.400 . S
C620 C623 1.386 . S
H621 C637 0.930 . S
H622 C638 0.931 . S
C623 H611 0.929 . S
C623 C617 1.390 . S
C623 C620 1.386 . S
C624 C619 1.490 . S
C624 C626 1.395 . S
C624 C627 1.403 . S
H625 C631 0.930 . S
C626 H612 0.930 . S
C626 C624 1.395 . S
C626 C629 1.403 . S
C627 C624 1.403 . S
C627 C628 1.524 . S
C627 C631 1.400 . S
C628 H613 0.960 . S
C628 H614 0.960 . S
C628 H615 0.960 . S
C628 C627 1.524 . S
C629 C626 1.403 . S
C629 C630 1.392 . S
C629 C633 1.495 . S
C630 C629 1.392 . S
C630 C631 1.385 . S
C630 C632 1.478 . S
C631 H625 0.930 . S
C631 C627 1.400 . S
C631 C630 1.385 . S
C632 C630 1.478 . S
C632 C634 1.381 . S
C632 C638 1.383 . S
C633 C629 1.495 . S
C633 H639 0.959 . S
C633 H640 0.961 . S
C633 H641 0.960 . S
C634 C632 1.381 . S
C634 C635 1.394 . S
C634 H642 0.930 . S
C635 C634 1.394 . S
C635 C636 1.383 . S
C635 H643 0.929 . S
C636 C635 1.383 . S
C636 C637 1.377 . S
C637 H621 0.930 . S
C637 C636 1.377 . S
C637 C638 1.379 . S
C638 H622 0.931 . S
C638 C632 1.383 . S
C638 C637 1.379 . S
H639 C633 0.959 . S
H640 C633 0.961 . S
H641 C633 0.960 . S
H642 C634 0.930 . S
H643 C635 0.929 . S
H644 C652 0.929 . S
H645 C654 0.930 . S
H646 C656 0.930 . S
H647 C659 0.929 . S
H648 C662 0.930 . S
H649 C664 0.960 . S
H650 C664 0.960 . S
H651 C664 0.960 . S
C652 H644 0.929 . S
C652 C653 1.377 . S
C652 C654 1.384 . S
C653 C652 1.377 . S
C653 C659 1.390 . S
C654 H645 0.930 . S
C654 C652 1.384 . S
C654 C655 1.372 . S
C655 C654 1.372 . S
C655 C656 1.400 . S
C655 C660 1.490 . S
C656 H646 0.930 . S
C656 C655 1.400 . S
C656 C659 1.386 . S
H657 C673 0.930 . S
H658 C674 0.931 . S
C659 H647 0.929 . S
C659 C653 1.390 . S
C659 C656 1.386 . S
C660 C655 1.490 . S
C660 C662 1.395 . S
C660 C663 1.403 . S
H661 C667 0.930 . S
C662 H648 0.930 . S
C662 C660 1.395 . S
C662 C665 1.403 . S
C663 C660 1.403 . S
C663 C664 1.524 . S
C663 C667 1.400 . S
C664 H649 0.960 . S
C664 H650 0.960 . S
C664 H651 0.960 . S
C664 C663 1.524 . S
C665 C662 1.403 . S
C665 C666 1.392 . S
C665 C669 1.495 . S
C666 C665 1.392 . S
C666 C667 1.385 . S
C666 C668 1.478 . S
C667 H661 0.930 . S
C667 C663 1.400 . S
C667 C666 1.385 . S
C668 C666 1.478 . S
C668 C670 1.381 . S
C668 C674 1.383 . S
C669 C665 1.495 . S
C669 H675 0.959 . S
C669 H676 0.961 . S
C669 H677 0.960 . S
C670 C668 1.381 . S
C670 C671 1.394 . S
C670 H678 0.930 . S
C671 C670 1.394 . S
C671 C672 1.383 . S
C671 H679 0.929 . S
C672 C671 1.383 . S
C672 C673 1.377 . S
C673 H657 0.930 . S
C673 C672 1.377 . S
C673 C674 1.379 . S
C674 H658 0.931 . S
C674 C668 1.383 . S
C674 C673 1.379 . S
H675 C669 0.959 . S
H676 C669 0.961 . S
H677 C669 0.960 . S
H678 C670 0.930 . S
H679 C671 0.929 . S
H680 C688 0.929 . S
H681 C690 0.930 . S
H682 C692 0.930 . S
H683 C695 0.929 . S
H684 C698 0.930 . S
H685 C700 0.960 . S
H686 C700 0.960 . S
H687 C700 0.960 . S
C688 H680 0.929 . S
C688 C689 1.377 . S
C688 C690 1.384 . S
C689 C688 1.377 . S
C689 C695 1.390 1_545 S
C690 H681 0.930 . S
C690 C688 1.384 . S
C690 C691 1.372 . S
C691 C690 1.372 . S
C691 C692 1.400 1_545 S
C691 C696 1.490 . S
C692 H682 0.930 . S
C692 C691 1.400 1_565 S
C692 C695 1.386 . S
H693 C709 0.930 1_565 S
H694 C710 0.919 1_565 S
C695 H683 0.929 . S
C695 C689 1.390 1_565 S
C695 C692 1.386 . S
C696 C691 1.490 . S
C696 C698 1.395 . S
C696 C699 1.403 . S
H697 C703 0.930 . S
C698 H684 0.930 . S
C698 C696 1.395 . S
C698 C701 1.403 . S
C699 C696 1.403 . S
C699 C700 1.524 . S
C699 C703 1.400 . S
C700 H685 0.960 . S
C700 H686 0.960 . S
C700 H687 0.960 . S
C700 C699 1.524 . S
C701 C698 1.403 . S
C701 C702 1.392 . S
C701 C705 1.496 . S
C702 C701 1.392 . S
C702 C703 1.385 . S
C702 C704 1.478 . S
C703 H697 0.930 . S
C703 C699 1.400 . S
C703 C702 1.385 . S
C704 C702 1.478 . S
C704 C706 1.381 . S
C704 C710 1.395 . S
C705 C701 1.496 . S
C705 H711 0.958 1_545 S
C705 H712 0.959 1_545 S
C705 H713 0.962 . S
C706 C704 1.381 . S
C706 C707 1.394 . S
C706 H714 0.930 . S
C707 C706 1.394 . S
C707 C708 1.383 . S
C707 H715 0.929 . S
C708 C707 1.383 . S
C708 C709 1.377 . S
C709 H693 0.930 1_545 S
C709 C708 1.377 . S
C709 C710 1.380 . S
C710 H694 0.919 1_545 S
C710 C704 1.395 . S
C710 C709 1.380 . S
H711 C705 0.958 1_565 S
H712 C705 0.959 1_565 S
H713 C705 0.962 . S
H714 C706 0.930 . S
H715 C707 0.929 . S
H716 C724 0.944 . S
H717 C726 0.930 . S
H718 C728 0.930 . S
H719 C731 0.929 . S
H720 C734 0.930 . S
H721 C736 0.960 . S
H722 C736 0.960 . S
H723 C736 0.982 . S
C724 H716 0.944 . S
C724 C725 1.364 1_655 S
C724 C726 1.384 . S
C725 C724 1.364 1_455 S
C725 C731 1.390 . S
C726 H717 0.930 . S
C726 C724 1.384 . S
C726 C727 1.372 1_655 S
C727 C726 1.372 1_455 S
C727 C728 1.400 . S
C727 C732 1.490 . S
C728 H718 0.930 . S
C728 C727 1.400 . S
C728 C731 1.386 . S
H729 C745 0.930 . S
H730 C746 0.931 . S
C731 H719 0.929 . S
C731 C725 1.390 . S
C731 C728 1.386 . S
C732 C727 1.490 . S
C732 C734 1.395 . S
C732 C735 1.398 1_455 S
H733 C739 0.923 1_655 S
C734 H720 0.930 . S
C734 C732 1.395 . S
C734 C737 1.403 . S
C735 C732 1.398 1_655 S
C735 C736 1.530 . S
C735 C739 1.397 1_655 S
C736 H721 0.960 . S
C736 H722 0.960 . S
C736 H723 0.982 . S
C736 C735 1.530 . S
C737 C734 1.403 . S
C737 C738 1.392 . S
C737 C741 1.495 . S
C738 C737 1.392 . S
C738 C739 1.394 . S
C738 C740 1.478 . S
C739 H733 0.923 1_455 S
C739 C735 1.397 1_455 S
C739 C738 1.394 . S
C740 C738 1.478 . S
C740 C742 1.381 1_455 S
C740 C746 1.383 . S
C741 C737 1.495 . S
C741 H747 0.959 . S
C741 H748 0.961 . S
C741 H749 0.960 . S
C742 C740 1.381 1_655 S
C742 C743 1.394 . S
C742 H750 0.930 . S
C743 C742 1.394 . S
C743 C744 1.383 1_655 S
C743 H751 0.929 . S
C744 C743 1.383 1_455 S
C744 C745 1.377 . S
C745 H729 0.930 . S
C745 C744 1.377 . S
C745 C746 1.379 . S
C746 H730 0.931 . S
C746 C740 1.383 . S
C746 C745 1.379 . S
H747 C741 0.959 . S
H748 C741 0.961 . S
H749 C741 0.960 . S
H750 C742 0.930 . S
H751 C743 0.929 . S
H752 C760 0.929 . S
H753 C762 0.930 . S
H754 C764 0.930 . S
H755 C767 0.929 . S
H756 C770 0.930 . S
H757 C772 0.960 . S
H758 C772 0.960 . S
H759 C772 0.960 . S
C760 H752 0.929 . S
C760 C761 1.377 . S
C760 C762 1.384 . S
C761 C760 1.377 . S
C761 C767 1.390 1_554 S
C762 H753 0.930 . S
C762 C760 1.384 . S
C762 C763 1.372 . S
C763 C762 1.372 . S
C763 C764 1.400 1_554 S
C763 C768 1.490 . S
C764 H754 0.930 . S
C764 C763 1.400 1_556 S
C764 C767 1.386 . S
H765 C781 0.930 . S
H766 C782 0.931 . S
C767 H755 0.929 . S
C767 C761 1.390 1_556 S
C767 C764 1.386 . S
C768 C763 1.490 . S
C768 C770 1.395 . S
C768 C771 1.403 1_554 S
H769 C775 0.930 . S
C770 H756 0.930 . S
C770 C768 1.395 . S
C770 C773 1.403 . S
C771 C768 1.403 1_556 S
C771 C772 1.524 . S
C771 C775 1.400 . S
C772 H757 0.960 . S
C772 H758 0.960 . S
C772 H759 0.960 . S
C772 C771 1.524 . S
C773 C770 1.403 . S
C773 C774 1.392 . S
C773 C777 1.495 . S
C774 C773 1.392 . S
C774 C775 1.385 1_554 S
C774 C776 1.478 . S
C775 H769 0.930 . S
C775 C771 1.400 . S
C775 C774 1.385 1_556 S
C776 C774 1.478 . S
C776 C778 1.381 . S
C776 C782 1.383 1_554 S
C777 C773 1.495 . S
C777 H783 0.959 . S
C777 H784 0.961 . S
C777 H785 0.960 . S
C778 C776 1.381 . S
C778 C779 1.394 . S
C778 H786 0.930 . S
C779 C778 1.394 . S
C779 C780 1.383 . S
C779 H787 0.929 . S
C780 C779 1.383 . S
C780 C781 1.377 1_554 S
C781 H765 0.930 . S
C781 C780 1.377 1_556 S
C781 C782 1.379 . S
C782 H766 0.931 . S
C782 C776 1.383 1_556 S
C782 C781 1.379 . S
H783 C777 0.959 . S
H784 C777 0.961 . S
H785 C777 0.960 . S
H786 C778 0.930 . S
H787 C779 0.929 . S
H788 C796 0.929 . S
H789 C798 0.930 . S
H790 C800 0.930 . S
H791 C803 0.929 . S
H792 C806 0.930 . S
H793 C808 0.960 . S
H794 C808 0.960 . S
H795 C808 0.960 . S
C796 H788 0.929 . S
C796 C797 1.377 . S
C796 C798 1.384 . S
C797 C796 1.377 . S
C797 C803 1.390 . S
C798 H789 0.930 . S
C798 C796 1.384 . S
C798 C799 1.372 . S
C799 C798 1.372 . S
C799 C800 1.400 . S
C799 C804 1.490 . S
C800 H790 0.930 . S
C800 C799 1.400 . S
C800 C803 1.386 . S
H801 C817 0.930 . S
H802 C818 0.931 . S
C803 H791 0.929 . S
C803 C797 1.390 . S
C803 C800 1.386 . S
C804 C799 1.490 . S
C804 C806 1.395 . S
C804 C807 1.403 . S
H805 C811 0.930 . S
C806 H792 0.930 . S
C806 C804 1.395 . S
C806 C809 1.403 . S
C807 C804 1.403 . S
C807 C808 1.524 . S
C807 C811 1.400 . S
C808 H793 0.960 . S
C808 H794 0.960 . S
C808 H795 0.960 . S
C808 C807 1.524 . S
C809 C806 1.403 . S
C809 C810 1.392 . S
C809 C813 1.495 . S
C810 C809 1.392 . S
C810 C811 1.385 . S
C810 C812 1.478 . S
C811 H805 0.930 . S
C811 C807 1.400 . S
C811 C810 1.385 . S
C812 C810 1.478 . S
C812 C814 1.381 . S
C812 C818 1.383 . S
C813 C809 1.495 . S
C813 H819 0.959 . S
C813 H820 0.961 . S
C813 H821 0.960 . S
C814 C812 1.381 . S
C814 C815 1.394 . S
C814 H822 0.930 . S
C815 C814 1.394 . S
C815 C816 1.383 . S
C815 H823 0.929 . S
C816 C815 1.383 . S
C816 C817 1.377 . S
C817 H801 0.930 . S
C817 C816 1.377 . S
C817 C818 1.379 . S
C818 H802 0.931 . S
C818 C812 1.383 . S
C818 C817 1.379 . S
H819 C813 0.959 . S
H820 C813 0.961 . S
H821 C813 0.960 . S
H822 C814 0.930 . S
H823 C815 0.929 . S
H824 C832 0.929 . S
H825 C834 0.930 . S
H826 C836 0.930 . S
H827 C839 0.929 . S
H828 C842 0.930 . S
H829 C844 0.960 . S
H830 C844 0.960 . S
H831 C844 0.960 . S
C832 H824 0.929 . S
C832 C833 1.377 . S
C832 C834 1.384 . S
C833 C832 1.377 . S
C833 C839 1.390 . S
C834 H825 0.930 . S
C834 C832 1.384 . S
C834 C835 1.372 . S
C835 C834 1.372 . S
C835 C836 1.400 . S
C835 C840 1.490 . S
C836 H826 0.930 . S
C836 C835 1.400 . S
C836 C839 1.386 . S
H837 C853 0.930 . S
H838 C854 0.931 . S
C839 H827 0.929 . S
C839 C833 1.390 . S
C839 C836 1.386 . S
C840 C835 1.490 . S
C840 C842 1.395 . S
C840 C843 1.403 . S
H841 C847 0.930 . S
C842 H828 0.930 . S
C842 C840 1.395 . S
C842 C845 1.403 . S
C843 C840 1.403 . S
C843 C844 1.524 . S
C843 C847 1.400 . S
C844 H829 0.960 . S
C844 H830 0.960 . S
C844 H831 0.960 . S
C844 C843 1.524 . S
C845 C842 1.403 . S
C845 C846 1.392 . S
C845 C849 1.495 . S
C846 C845 1.392 . S
C846 C847 1.385 . S
C846 C848 1.478 . S
C847 H841 0.930 . S
C847 C843 1.400 . S
C847 C846 1.385 . S
C848 C846 1.478 . S
C848 C850 1.381 . S
C848 C854 1.383 . S
C849 C845 1.495 . S
C849 H855 0.959 . S
C849 H856 0.961 . S
C849 H857 0.960 . S
C850 C848 1.381 . S
C850 C851 1.394 . S
C850 H858 0.930 . S
C851 C850 1.394 . S
C851 C852 1.383 . S
C851 H859 0.929 . S
C852 C851 1.383 . S
C852 C853 1.377 . S
C853 H837 0.930 . S
C853 C852 1.377 . S
C853 C854 1.379 . S
C854 H838 0.931 . S
C854 C848 1.383 . S
C854 C853 1.379 . S
H855 C849 0.959 . S
H856 C849 0.961 . S
H857 C849 0.960 . S
H858 C850 0.930 . S
H859 C851 0.929 . S
H860 C868 0.929 . S
H861 C870 0.930 . S
H862 C872 0.930 . S
H863 C875 0.929 . S
H864 C878 0.930 . S
H865 C880 0.960 . S
H866 C880 0.960 . S
H867 C880 0.960 . S
C868 H860 0.929 . S
C868 C869 1.377 . S
C868 C870 1.384 . S
C869 C868 1.377 . S
C869 C875 1.390 . S
C870 H861 0.930 . S
C870 C868 1.384 . S
C870 C871 1.372 . S
C871 C870 1.372 . S
C871 C872 1.400 . S
C871 C876 1.490 . S
C872 H862 0.930 . S
C872 C871 1.400 . S
C872 C875 1.386 . S
H873 C889 0.930 . S
H874 C890 0.931 . S
C875 H863 0.929 . S
C875 C869 1.390 . S
C875 C872 1.386 . S
C876 C871 1.490 . S
C876 C878 1.395 . S
C876 C879 1.403 . S
H877 C883 0.930 . S
C878 H864 0.930 . S
C878 C876 1.395 . S
C878 C881 1.403 . S
C879 C876 1.403 . S
C879 C880 1.524 . S
C879 C883 1.400 . S
C880 H865 0.960 . S
C880 H866 0.960 . S
C880 H867 0.960 . S
C880 C879 1.524 . S
C881 C878 1.403 . S
C881 C882 1.392 . S
C881 C885 1.495 . S
C882 C881 1.392 . S
C882 C883 1.385 . S
C882 C884 1.478 . S
C883 H877 0.930 . S
C883 C879 1.400 . S
C883 C882 1.385 . S
C884 C882 1.478 . S
C884 C886 1.381 . S
C884 C890 1.383 . S
C885 C881 1.495 . S
C885 H891 0.959 . S
C885 H892 0.961 . S
C885 H893 0.960 . S
C886 C884 1.381 . S
C886 C887 1.394 . S
C886 H894 0.930 . S
C887 C886 1.394 . S
C887 C888 1.383 . S
C887 H895 0.929 . S
C888 C887 1.383 . S
C888 C889 1.377 . S
C889 H873 0.930 . S
C889 C888 1.377 . S
C889 C890 1.379 . S
C890 H874 0.931 . S
C890 C884 1.383 . S
C890 C889 1.379 . S
H891 C885 0.959 . S
H892 C885 0.961 . S
H893 C885 0.960 . S
H894 C886 0.930 . S
H895 C887 0.929 . S
H896 C904 0.929 . S
H897 C906 0.930 . S
H898 C908 0.930 . S
H899 C911 0.929 . S
H900 C914 0.930 . S
H901 C916 0.960 . S
H902 C916 0.960 . S
H903 C916 0.960 . S
C904 H896 0.929 . S
C904 C905 1.377 . S
C904 C906 1.384 . S
C905 C904 1.377 . S
C905 C911 1.390 . S
C906 H897 0.930 . S
C906 C904 1.384 . S
C906 C907 1.372 . S
C907 C906 1.372 . S
C907 C908 1.400 . S
C907 C912 1.490 . S
C908 H898 0.930 . S
C908 C907 1.400 . S
C908 C911 1.386 . S
H909 C925 0.930 . S
H910 C926 0.931 . S
C911 H899 0.929 . S
C911 C905 1.390 . S
C911 C908 1.386 . S
C912 C907 1.490 . S
C912 C914 1.395 . S
C912 C915 1.403 . S
H913 C919 0.930 . S
C914 H900 0.930 . S
C914 C912 1.395 . S
C914 C917 1.403 . S
C915 C912 1.403 . S
C915 C916 1.524 . S
C915 C919 1.400 . S
C916 H901 0.960 . S
C916 H902 0.960 . S
C916 H903 0.960 . S
C916 C915 1.524 . S
C917 C914 1.403 . S
C917 C918 1.392 . S
C917 C921 1.495 . S
C918 C917 1.392 . S
C918 C919 1.385 . S
C918 C920 1.478 . S
C919 H913 0.930 . S
C919 C915 1.400 . S
C919 C918 1.385 . S
C920 C918 1.478 . S
C920 C922 1.381 . S
C920 C926 1.383 . S
C921 C917 1.495 . S
C921 H927 0.959 . S
C921 H928 0.961 . S
C921 H929 0.960 . S
C922 C920 1.381 . S
C922 C923 1.394 . S
C922 H930 0.930 . S
C923 C922 1.394 . S
C923 C924 1.383 . S
C923 H931 0.929 . S
C924 C923 1.383 . S
C924 C925 1.377 . S
C925 H909 0.930 . S
C925 C924 1.377 . S
C925 C926 1.379 . S
C926 H910 0.931 . S
C926 C920 1.383 . S
C926 C925 1.379 . S
H927 C921 0.959 . S
H928 C921 0.961 . S
H929 C921 0.960 . S
H930 C922 0.930 . S
H931 C923 0.929 . S
H932 C940 0.929 . S
H933 C942 0.930 . S
H934 C944 0.930 . S
H935 C947 0.929 . S
H936 C950 0.930 . S
H937 C952 0.960 . S
H938 C952 0.960 . S
H939 C952 0.960 . S
C940 H932 0.929 . S
C940 C941 1.377 . S
C940 C942 1.384 . S
C941 C940 1.377 . S
C941 C947 1.390 . S
C942 H933 0.930 . S
C942 C940 1.384 . S
C942 C943 1.372 . S
C943 C942 1.372 . S
C943 C944 1.400 . S
C943 C948 1.490 . S
C944 H934 0.930 . S
C944 C943 1.400 . S
C944 C947 1.386 . S
H945 C961 0.930 . S
H946 C962 0.931 . S
C947 H935 0.929 . S
C947 C941 1.390 . S
C947 C944 1.386 . S
C948 C943 1.490 . S
C948 C950 1.395 . S
C948 C951 1.403 . S
H949 C955 0.930 . S
C950 H936 0.930 . S
C950 C948 1.395 . S
C950 C953 1.403 . S
C951 C948 1.403 . S
C951 C952 1.524 . S
C951 C955 1.400 . S
C952 H937 0.960 . S
C952 H938 0.960 . S
C952 H939 0.960 . S
C952 C951 1.524 . S
C953 C950 1.403 . S
C953 C954 1.392 . S
C953 C957 1.495 . S
C954 C953 1.392 . S
C954 C955 1.385 . S
C954 C956 1.478 . S
C955 H949 0.930 . S
C955 C951 1.400 . S
C955 C954 1.385 . S
C956 C954 1.478 . S
C956 C958 1.381 . S
C956 C962 1.383 . S
C957 C953 1.495 . S
C957 H963 0.959 . S
C957 H964 0.961 . S
C957 H965 0.960 . S
C958 C956 1.381 . S
C958 C959 1.394 . S
C958 H966 0.930 . S
C959 C958 1.394 . S
C959 C960 1.383 . S
C959 H967 0.929 . S
C960 C959 1.383 . S
C960 C961 1.377 . S
C961 H945 0.930 . S
C961 C960 1.377 . S
C961 C962 1.379 . S
C962 H946 0.931 . S
C962 C956 1.383 . S
C962 C961 1.379 . S
H963 C957 0.959 . S
H964 C957 0.961 . S
H965 C957 0.960 . S
H966 C958 0.930 . S
H967 C959 0.929 . S
H968 C976 0.929 . S
H969 C978 0.930 . S
H970 C980 0.930 . S
H971 C983 0.929 . S
H972 C986 0.930 . S
H973 C988 0.960 . S
H974 C988 0.960 . S
H975 C988 0.960 . S
C976 H968 0.929 . S
C976 C977 1.377 . S
C976 C978 1.384 . S
C977 C976 1.377 . S
C977 C983 1.390 . S
C978 H969 0.930 . S
C978 C976 1.384 . S
C978 C979 1.372 . S
C979 C978 1.372 . S
C979 C980 1.400 . S
C979 C984 1.490 . S
C980 H970 0.930 . S
C980 C979 1.400 . S
C980 C983 1.386 . S
H981 C997 0.930 . S
H982 C998 0.931 . S
C983 H971 0.929 . S
C983 C977 1.390 . S
C983 C980 1.386 . S
C984 C979 1.490 . S
C984 C986 1.395 . S
C984 C987 1.403 . S
H985 C991 0.930 . S
C986 H972 0.930 . S
C986 C984 1.395 . S
C986 C989 1.403 . S
C987 C984 1.403 . S
C987 C988 1.524 . S
C987 C991 1.400 . S
C988 H973 0.960 . S
C988 H974 0.960 . S
C988 H975 0.960 . S
C988 C987 1.524 . S
C989 C986 1.403 . S
C989 C990 1.392 . S
C989 C993 1.495 . S
C990 C989 1.392 . S
C990 C991 1.385 . S
C990 C992 1.478 . S
C991 H985 0.930 . S
C991 C987 1.400 . S
C991 C990 1.385 . S
C992 C990 1.478 . S
C992 C994 1.381 . S
C992 C998 1.383 . S
C993 C989 1.495 . S
C993 H999 0.959 . S
C993 H1000 0.961 . S
C993 H1001 0.960 . S
C994 C992 1.381 . S
C994 C995 1.394 . S
C994 H1002 0.930 . S
C995 C994 1.394 . S
C995 C996 1.383 . S
C995 H1003 0.929 . S
C996 C995 1.383 . S
C996 C997 1.377 . S
C997 H981 0.930 . S
C997 C996 1.377 . S
C997 C998 1.379 . S
C998 H982 0.931 . S
C998 C992 1.383 . S
C998 C997 1.379 . S
H999 C993 0.959 . S
H1000 C993 0.961 . S
H1001 C993 0.960 . S
H1002 C994 0.930 . S
H1003 C995 0.929 . S
H1004 C1012 0.929 . S
H1005 C1014 0.930 . S
H1006 C1016 0.930 . S
H1007 C1019 0.929 . S
H1008 C1022 0.930 . S
H1009 C1024 0.960 . S
H1010 C1024 0.960 . S
H1011 C1024 0.960 . S
C1012 H1004 0.929 . S
C1012 C1013 1.377 . S
C1012 C1014 1.384 . S
C1013 C1012 1.377 . S
C1013 C1019 1.390 . S
C1014 H1005 0.930 . S
C1014 C1012 1.384 . S
C1014 C1015 1.372 . S
C1015 C1014 1.372 . S
C1015 C1016 1.400 . S
C1015 C1020 1.490 . S
C1016 H1006 0.930 . S
C1016 C1015 1.400 . S
C1016 C1019 1.386 . S
H1017 C1033 0.930 . S
H1018 C1034 0.931 . S
C1019 H1007 0.929 . S
C1019 C1013 1.390 . S
C1019 C1016 1.386 . S
C1020 C1015 1.490 . S
C1020 C1022 1.395 . S
C1020 C1023 1.403 . S
H1021 C1027 0.930 . S
C1022 H1008 0.930 . S
C1022 C1020 1.395 . S
C1022 C1025 1.403 . S
C1023 C1020 1.403 . S
C1023 C1024 1.524 . S
C1023 C1027 1.400 . S
C1024 H1009 0.960 . S
C1024 H1010 0.960 . S
C1024 H1011 0.960 . S
C1024 C1023 1.524 . S
C1025 C1022 1.403 . S
C1025 C1026 1.392 . S
C1025 C1029 1.495 . S
C1026 C1025 1.392 . S
C1026 C1027 1.385 . S
C1026 C1028 1.478 . S
C1027 H1021 0.930 . S
C1027 C1023 1.400 . S
C1027 C1026 1.385 . S
C1028 C1026 1.478 . S
C1028 C1030 1.381 . S
C1028 C1034 1.383 . S
C1029 C1025 1.495 . S
C1029 H1035 0.959 . S
C1029 H1036 0.961 . S
C1029 H1037 0.960 . S
C1030 C1028 1.381 . S
C1030 C1031 1.394 . S
C1030 H1038 0.930 . S
C1031 C1030 1.394 . S
C1031 C1032 1.383 . S
C1031 H1039 0.929 . S
C1032 C1031 1.383 . S
C1032 C1033 1.377 . S
C1033 H1017 0.930 . S
C1033 C1032 1.377 . S
C1033 C1034 1.379 . S
C1034 H1018 0.931 . S
C1034 C1028 1.383 . S
C1034 C1033 1.379 . S
H1035 C1029 0.959 . S
H1036 C1029 0.961 . S
H1037 C1029 0.960 . S
H1038 C1030 0.930 . S
H1039 C1031 0.929 . S
H1040 C1048 0.929 . S
H1041 C1050 0.930 . S
H1042 C1052 0.930 . S
H1043 C1055 0.929 . S
H1044 C1058 0.930 . S
H1045 C1060 0.960 . S
H1046 C1060 0.960 . S
H1047 C1060 0.960 . S
C1048 H1040 0.929 . S
C1048 C1049 1.377 . S
C1048 C1050 1.384 . S
C1049 C1048 1.377 . S
C1049 C1055 1.390 . S
C1050 H1041 0.930 . S
C1050 C1048 1.384 . S
C1050 C1051 1.372 . S
C1051 C1050 1.372 . S
C1051 C1052 1.400 . S
C1051 C1056 1.490 . S
C1052 H1042 0.930 . S
C1052 C1051 1.400 . S
C1052 C1055 1.386 . S
H1053 C1069 0.930 . S
H1054 C1070 0.931 . S
C1055 H1043 0.929 . S
C1055 C1049 1.390 . S
C1055 C1052 1.386 . S
C1056 C1051 1.490 . S
C1056 C1058 1.395 . S
C1056 C1059 1.403 . S
H1057 C1063 0.930 . S
C1058 H1044 0.930 . S
C1058 C1056 1.395 . S
C1058 C1061 1.403 . S
C1059 C1056 1.403 . S
C1059 C1060 1.524 . S
C1059 C1063 1.400 . S
C1060 H1045 0.960 . S
C1060 H1046 0.960 . S
C1060 H1047 0.960 . S
C1060 C1059 1.524 . S
C1061 C1058 1.403 . S
C1061 C1062 1.392 . S
C1061 C1065 1.495 . S
C1062 C1061 1.392 . S
C1062 C1063 1.385 . S
C1062 C1064 1.478 . S
C1063 H1057 0.930 . S
C1063 C1059 1.400 . S
C1063 C1062 1.385 . S
C1064 C1062 1.478 . S
C1064 C1066 1.381 . S
C1064 C1070 1.383 . S
C1065 C1061 1.495 . S
C1065 H1071 0.959 . S
C1065 H1072 0.961 . S
C1065 H1073 0.960 . S
C1066 C1064 1.381 . S
C1066 C1067 1.394 . S
C1066 H1074 0.930 . S
C1067 C1066 1.394 . S
C1067 C1068 1.383 . S
C1067 H1075 0.929 . S
C1068 C1067 1.383 . S
C1068 C1069 1.377 . S
C1069 H1053 0.930 . S
C1069 C1068 1.377 . S
C1069 C1070 1.379 . S
C1070 H1054 0.931 . S
C1070 C1064 1.383 . S
C1070 C1069 1.379 . S
H1071 C1065 0.959 . S
H1072 C1065 0.961 . S
H1073 C1065 0.960 . S
H1074 C1066 0.930 . S
H1075 C1067 0.929 . S
H1076 C1084 0.929 . S
H1077 C1086 0.930 . S
H1078 C1088 0.930 . S
H1079 C1091 0.929 . S
H1080 C1094 0.930 . S
H1081 C1096 0.960 . S
H1082 C1096 0.960 . S
H1083 C1096 0.960 . S
C1084 H1076 0.929 . S
C1084 C1085 1.377 . S
C1084 C1086 1.384 . S
C1085 C1084 1.377 . S
C1085 C1091 1.390 1_655 S
C1086 H1077 0.930 . S
C1086 C1084 1.384 . S
C1086 C1087 1.372 . S
C1087 C1086 1.372 . S
C1087 C1088 1.400 1_655 S
C1087 C1092 1.490 . S
C1088 H1078 0.930 . S
C1088 C1087 1.400 1_455 S
C1088 C1091 1.386 . S
H1089 C1105 0.930 . S
H1090 C1106 0.931 . S
C1091 H1079 0.929 . S
C1091 C1085 1.390 1_455 S
C1091 C1088 1.386 . S
C1092 C1087 1.490 . S
C1092 C1094 1.395 1_655 S
C1092 C1095 1.403 . S
H1093 C1099 0.930 . S
C1094 H1080 0.930 . S
C1094 C1092 1.395 1_455 S
C1094 C1097 1.403 . S
C1095 C1092 1.403 . S
C1095 C1096 1.524 . S
C1095 C1099 1.400 . S
C1096 H1081 0.960 . S
C1096 H1082 0.960 . S
C1096 H1083 0.960 . S
C1096 C1095 1.524 . S
C1097 C1094 1.403 . S
C1097 C1098 1.392 1_455 S
C1097 C1101 1.495 . S
C1098 C1097 1.392 1_655 S
C1098 C1099 1.385 . S
C1098 C1100 1.478 . S
C1099 H1093 0.930 . S
C1099 C1095 1.400 . S
C1099 C1098 1.385 . S
C1100 C1098 1.478 . S
C1100 C1102 1.381 . S
C1100 C1106 1.383 1_655 S
C1101 C1097 1.495 . S
C1101 H1107 0.959 . S
C1101 H1108 0.961 . S
C1101 H1109 0.960 1_455 S
C1102 C1100 1.381 . S
C1102 C1103 1.394 . S
C1102 H1110 0.930 . S
C1103 C1102 1.394 . S
C1103 C1104 1.383 . S
C1103 H1111 0.929 . S
C1104 C1103 1.383 . S
C1104 C1105 1.377 1_655 S
C1105 H1089 0.930 . S
C1105 C1104 1.377 1_455 S
C1105 C1106 1.379 . S
C1106 H1090 0.931 . S
C1106 C1100 1.383 1_455 S
C1106 C1105 1.379 . S
H1107 C1101 0.959 . S
H1108 C1101 0.961 . S
H1109 C1101 0.960 1_655 S
H1110 C1102 0.930 . S
H1111 C1103 0.929 . S
H1112 C1120 0.929 . S
H1113 C1122 0.930 . S
H1114 C1124 0.930 . S
H1115 C1127 0.929 . S
H1116 C1130 0.930 . S
H1117 C1132 0.960 . S
H1118 C1132 0.960 . S
H1119 C1132 0.960 . S
C1120 H1112 0.929 . S
C1120 C1121 1.377 . S
C1120 C1122 1.384 . S
C1121 C1120 1.377 . S
C1121 C1127 1.390 . S
C1122 H1113 0.930 . S
C1122 C1120 1.384 . S
C1122 C1123 1.372 . S
C1123 C1122 1.372 . S
C1123 C1124 1.400 . S
C1123 C1128 1.490 . S
C1124 H1114 0.930 . S
C1124 C1123 1.400 . S
C1124 C1127 1.386 . S
H1125 C1141 0.930 . S
H1126 C1142 0.931 . S
C1127 H1115 0.929 . S
C1127 C1121 1.390 . S
C1127 C1124 1.386 . S
C1128 C1123 1.490 . S
C1128 C1130 1.395 . S
C1128 C1131 1.403 . S
H1129 C1135 0.930 . S
C1130 H1116 0.930 . S
C1130 C1128 1.395 . S
C1130 C1133 1.403 . S
C1131 C1128 1.403 . S
C1131 C1132 1.524 . S
C1131 C1135 1.400 . S
C1132 H1117 0.960 . S
C1132 H1118 0.960 . S
C1132 H1119 0.960 . S
C1132 C1131 1.524 . S
C1133 C1130 1.403 . S
C1133 C1134 1.392 . S
C1133 C1137 1.495 . S
C1134 C1133 1.392 . S
C1134 C1135 1.385 . S
C1134 C1136 1.478 . S
C1135 H1129 0.930 . S
C1135 C1131 1.400 . S
C1135 C1134 1.385 . S
C1136 C1134 1.478 . S
C1136 C1138 1.381 . S
C1136 C1142 1.383 . S
C1137 C1133 1.495 . S
C1137 H1143 0.959 . S
C1137 H1144 0.961 . S
C1137 H1145 0.960 . S
C1138 C1136 1.381 . S
C1138 C1139 1.394 . S
C1138 H1146 0.930 . S
C1139 C1138 1.394 . S
C1139 C1140 1.383 . S
C1139 H1147 0.929 . S
C1140 C1139 1.383 . S
C1140 C1141 1.377 . S
C1141 H1125 0.930 . S
C1141 C1140 1.377 . S
C1141 C1142 1.379 . S
C1142 H1126 0.931 . S
C1142 C1136 1.383 . S
C1142 C1141 1.379 . S
H1143 C1137 0.959 . S
H1144 C1137 0.961 . S
H1145 C1137 0.960 . S
H1146 C1138 0.930 . S
H1147 C1139 0.929 . S
H1148 C1156 0.929 . S
H1149 C1158 0.930 . S
H1150 C1160 0.930 . S
H1151 C1163 0.929 . S
H1152 C1166 0.930 . S
H1153 C1168 0.960 . S
H1154 C1168 0.960 . S
H1155 C1168 0.960 . S
C1156 H1148 0.929 . S
C1156 C1157 1.377 . S
C1156 C1158 1.384 . S
C1157 C1156 1.377 . S
C1157 C1163 1.390 . S
C1158 H1149 0.930 . S
C1158 C1156 1.384 . S
C1158 C1159 1.372 . S
C1159 C1158 1.372 . S
C1159 C1160 1.400 . S
C1159 C1164 1.490 . S
C1160 H1150 0.930 . S
C1160 C1159 1.400 . S
C1160 C1163 1.386 . S
H1161 C1177 0.930 . S
H1162 C1178 0.931 . S
C1163 H1151 0.929 . S
C1163 C1157 1.390 . S
C1163 C1160 1.386 . S
C1164 C1159 1.490 . S
C1164 C1166 1.395 . S
C1164 C1167 1.403 . S
H1165 C1171 0.930 . S
C1166 H1152 0.930 . S
C1166 C1164 1.395 . S
C1166 C1169 1.403 . S
C1167 C1164 1.403 . S
C1167 C1168 1.524 . S
C1167 C1171 1.400 . S
C1168 H1153 0.960 . S
C1168 H1154 0.960 . S
C1168 H1155 0.960 . S
C1168 C1167 1.524 . S
C1169 C1166 1.403 . S
C1169 C1170 1.392 . S
C1169 C1173 1.495 . S
C1170 C1169 1.392 . S
C1170 C1171 1.385 . S
C1170 C1172 1.478 . S
C1171 H1165 0.930 . S
C1171 C1167 1.400 . S
C1171 C1170 1.385 . S
C1172 C1170 1.478 . S
C1172 C1174 1.381 . S
C1172 C1178 1.383 . S
C1173 C1169 1.495 . S
C1173 H1179 0.959 . S
C1173 H1180 0.961 . S
C1173 H1181 0.960 . S
C1174 C1172 1.381 . S
C1174 C1175 1.394 . S
C1174 H1182 0.930 . S
C1175 C1174 1.394 . S
C1175 C1176 1.383 . S
C1175 H1183 0.929 . S
C1176 C1175 1.383 . S
C1176 C1177 1.377 . S
C1177 H1161 0.930 . S
C1177 C1176 1.377 . S
C1177 C1178 1.379 . S
C1178 H1162 0.931 . S
C1178 C1172 1.383 . S
C1178 C1177 1.379 . S
H1179 C1173 0.959 . S
H1180 C1173 0.961 . S
H1181 C1173 0.960 . S
H1182 C1174 0.930 . S
H1183 C1175 0.929 . S
H1184 C1192 0.929 . S
H1185 C1194 0.930 . S
H1186 C1196 0.930 . S
H1187 C1199 0.929 . S
H1188 C1202 0.930 . S
H1189 C1204 0.960 . S
H1190 C1204 0.960 . S
H1191 C1204 0.960 . S
C1192 H1184 0.929 . S
C1192 C1193 1.377 . S
C1192 C1194 1.384 . S
C1193 C1192 1.377 . S
C1193 C1199 1.390 . S
C1194 H1185 0.930 . S
C1194 C1192 1.384 . S
C1194 C1195 1.372 . S
C1195 C1194 1.372 . S
C1195 C1196 1.400 . S
C1195 C1200 1.490 . S
C1196 H1186 0.930 . S
C1196 C1195 1.400 . S
C1196 C1199 1.386 . S
H1197 C1213 0.930 . S
H1198 C1214 0.931 . S
C1199 H1187 0.929 . S
C1199 C1193 1.390 . S
C1199 C1196 1.386 . S
C1200 C1195 1.490 . S
C1200 C1202 1.395 . S
C1200 C1203 1.403 . S
H1201 C1207 0.930 . S
C1202 H1188 0.930 . S
C1202 C1200 1.395 . S
C1202 C1205 1.403 . S
C1203 C1200 1.403 . S
C1203 C1204 1.524 . S
C1203 C1207 1.400 . S
C1204 H1189 0.960 . S
C1204 H1190 0.960 . S
C1204 H1191 0.960 . S
C1204 C1203 1.524 . S
C1205 C1202 1.403 . S
C1205 C1206 1.392 . S
C1205 C1209 1.495 . S
C1206 C1205 1.392 . S
C1206 C1207 1.385 . S
C1206 C1208 1.478 . S
C1207 H1201 0.930 . S
C1207 C1203 1.400 . S
C1207 C1206 1.385 . S
C1208 C1206 1.478 . S
C1208 C1210 1.381 . S
C1208 C1214 1.383 . S
C1209 C1205 1.495 . S
C1209 H1215 0.959 . S
C1209 H1216 0.961 . S
C1209 H1217 0.960 . S
C1210 C1208 1.381 . S
C1210 C1211 1.394 . S
C1210 H1218 0.930 . S
C1211 C1210 1.394 . S
C1211 C1212 1.383 . S
C1211 H1219 0.929 . S
C1212 C1211 1.383 . S
C1212 C1213 1.377 . S
C1213 H1197 0.930 . S
C1213 C1212 1.377 . S
C1213 C1214 1.379 . S
C1214 H1198 0.931 . S
C1214 C1208 1.383 . S
C1214 C1213 1.379 . S
H1215 C1209 0.959 . S
H1216 C1209 0.961 . S
H1217 C1209 0.960 . S
H1218 C1210 0.930 . S
H1219 C1211 0.929 . S
H1220 C1228 0.929 . S
H1221 C1230 0.930 . S
H1222 C1232 0.930 . S
H1223 C1235 0.929 . S
H1224 C1238 0.930 . S
H1225 C1240 0.960 . S
H1226 C1240 0.960 . S
H1227 C1240 0.960 . S
C1228 H1220 0.929 . S
C1228 C1229 1.377 . S
C1228 C1230 1.384 . S
C1229 C1228 1.377 . S
C1229 C1235 1.390 . S
C1230 H1221 0.930 . S
C1230 C1228 1.384 . S
C1230 C1231 1.372 . S
C1231 C1230 1.372 . S
C1231 C1232 1.400 . S
C1231 C1236 1.490 . S
C1232 H1222 0.930 . S
C1232 C1231 1.400 . S
C1232 C1235 1.386 . S
H1233 C1249 0.930 . S
H1234 C1250 0.931 . S
C1235 H1223 0.929 . S
C1235 C1229 1.390 . S
C1235 C1232 1.386 . S
C1236 C1231 1.490 . S
C1236 C1238 1.395 . S
C1236 C1239 1.403 . S
H1237 C1243 0.930 . S
C1238 H1224 0.930 . S
C1238 C1236 1.395 . S
C1238 C1241 1.403 . S
C1239 C1236 1.403 . S
C1239 C1240 1.524 . S
C1239 C1243 1.400 . S
C1240 H1225 0.960 . S
C1240 H1226 0.960 . S
C1240 H1227 0.960 . S
C1240 C1239 1.524 . S
C1241 C1238 1.403 . S
C1241 C1242 1.392 . S
C1241 C1245 1.495 . S
C1242 C1241 1.392 . S
C1242 C1243 1.385 . S
C1242 C1244 1.478 . S
C1243 H1237 0.930 . S
C1243 C1239 1.400 . S
C1243 C1242 1.385 . S
C1244 C1242 1.478 . S
C1244 C1246 1.381 . S
C1244 C1250 1.383 . S
C1245 C1241 1.495 . S
C1245 H1251 0.959 . S
C1245 H1252 0.961 . S
C1245 H1253 0.960 . S
C1246 C1244 1.381 . S
C1246 C1247 1.394 . S
C1246 H1254 0.930 . S
C1247 C1246 1.394 . S
C1247 C1248 1.383 . S
C1247 H1255 0.929 . S
C1248 C1247 1.383 . S
C1248 C1249 1.377 . S
C1249 H1233 0.930 . S
C1249 C1248 1.377 . S
C1249 C1250 1.379 . S
C1250 H1234 0.931 . S
C1250 C1244 1.383 . S
C1250 C1249 1.379 . S
H1251 C1245 0.959 . S
H1252 C1245 0.961 . S
H1253 C1245 0.960 . S
H1254 C1246 0.930 . S
H1255 C1247 0.929 . S
H1256 C1264 0.929 . S
H1257 C1266 0.930 . S
H1258 C1268 0.930 . S
H1259 C1271 0.929 . S
H1260 C1274 0.930 . S
H1261 C1276 0.960 . S
H1262 C1276 0.960 1_545 S
H1263 C1276 0.960 . S
C1264 H1256 0.929 . S
C1264 C1265 1.377 . S
C1264 C1266 1.384 . S
C1265 C1264 1.377 . S
C1265 C1271 1.390 1_545 S
C1266 H1257 0.930 . S
C1266 C1264 1.384 . S
C1266 C1267 1.372 . S
C1267 C1266 1.372 . S
C1267 C1268 1.400 1_545 S
C1267 C1272 1.490 . S
C1268 H1258 0.930 . S
C1268 C1267 1.400 1_565 S
C1268 C1271 1.386 . S
H1269 C1285 0.930 . S
H1270 C1286 0.931 . S
C1271 H1259 0.929 . S
C1271 C1265 1.390 1_565 S
C1271 C1268 1.386 . S
C1272 C1267 1.490 . S
C1272 C1274 1.395 . S
C1272 C1275 1.403 . S
H1273 C1279 0.930 . S
C1274 H1260 0.930 . S
C1274 C1272 1.395 . S
C1274 C1277 1.403 . S
C1275 C1272 1.403 . S
C1275 C1276 1.524 1_545 S
C1275 C1279 1.400 . S
C1276 H1261 0.960 . S
C1276 H1262 0.960 1_565 S
C1276 H1263 0.960 . S
C1276 C1275 1.524 1_565 S
C1277 C1274 1.403 . S
C1277 C1278 1.392 . S
C1277 C1281 1.495 . S
C1278 C1277 1.392 . S
C1278 C1279 1.385 . S
C1278 C1280 1.478 . S
C1279 H1273 0.930 . S
C1279 C1275 1.400 . S
C1279 C1278 1.385 . S
C1280 C1278 1.478 . S
C1280 C1282 1.381 . S
C1280 C1286 1.383 1_545 S
C1281 C1277 1.495 . S
C1281 H1287 0.959 . S
C1281 H1288 0.961 . S
C1281 H1289 0.960 . S
C1282 C1280 1.381 . S
C1282 C1283 1.394 . S
C1282 H1290 0.930 . S
C1283 C1282 1.394 . S
C1283 C1284 1.383 . S
C1283 H1291 0.929 . S
C1284 C1283 1.383 . S
C1284 C1285 1.377 1_545 S
C1285 H1269 0.930 . S
C1285 C1284 1.377 1_565 S
C1285 C1286 1.379 . S
C1286 H1270 0.931 . S
C1286 C1280 1.383 1_565 S
C1286 C1285 1.379 . S
H1287 C1281 0.959 . S
H1288 C1281 0.961 . S
H1289 C1281 0.960 . S
H1290 C1282 0.930 . S
H1291 C1283 0.929 . S
H1292 C1300 0.929 . S
H1293 C1302 0.930 . S
H1294 C1304 0.930 . S
H1295 C1307 0.929 . S
H1296 C1310 0.930 . S
H1297 C1312 0.960 . S
H1298 C1312 0.960 1_554 S
H1299 C1312 0.960 . S
C1300 H1292 0.929 . S
C1300 C1301 1.377 . S
C1300 C1302 1.384 . S
C1301 C1300 1.377 . S
C1301 C1307 1.390 1_554 S
C1302 H1293 0.930 . S
C1302 C1300 1.384 . S
C1302 C1303 1.372 . S
C1303 C1302 1.372 . S
C1303 C1304 1.400 1_554 S
C1303 C1308 1.490 . S
C1304 H1294 0.930 . S
C1304 C1303 1.400 1_556 S
C1304 C1307 1.386 . S
H1305 C1321 0.930 . S
H1306 C1322 0.931 . S
C1307 H1295 0.929 . S
C1307 C1301 1.390 1_556 S
C1307 C1304 1.386 . S
C1308 C1303 1.490 . S
C1308 C1310 1.395 . S
C1308 C1311 1.415 . S
H1309 C1315 0.926 1_556 S
C1310 H1296 0.930 . S
C1310 C1308 1.395 . S
C1310 C1313 1.403 . S
C1311 C1308 1.415 . S
C1311 C1312 1.519 1_554 S
C1311 C1315 1.397 . S
C1312 H1297 0.960 . S
C1312 H1298 0.960 1_556 S
C1312 H1299 0.960 . S
C1312 C1311 1.519 1_556 S
C1313 C1310 1.403 . S
C1313 C1314 1.392 . S
C1313 C1317 1.495 . S
C1314 C1313 1.392 . S
C1314 C1315 1.387 . S
C1314 C1316 1.478 . S
C1315 H1309 0.926 1_554 S
C1315 C1311 1.397 . S
C1315 C1314 1.387 . S
C1316 C1314 1.478 . S
C1316 C1318 1.381 . S
C1316 C1322 1.383 1_554 S
C1317 C1313 1.495 . S
C1317 H1323 0.959 . S
C1317 H1324 0.927 1_554 S
C1317 H1325 0.960 . S
C1318 C1316 1.381 . S
C1318 C1319 1.394 . S
C1318 H1326 0.930 . S
C1319 C1318 1.394 . S
C1319 C1320 1.429 . S
C1319 H1327 0.929 . S
C1320 C1319 1.429 . S
C1320 C1321 1.338 1_554 S
C1321 H1305 0.930 . S
C1321 C1320 1.338 1_556 S
C1321 C1322 1.379 . S
C1322 H1306 0.931 . S
C1322 C1316 1.383 1_556 S
C1322 C1321 1.379 . S
H1323 C1317 0.959 . S
H1324 C1317 0.927 1_556 S
H1325 C1317 0.960 . S
H1326 C1318 0.930 . S
H1327 C1319 0.929 . S
H1328 C1336 0.929 . S
H1329 C1338 0.930 . S
H1330 C1340 0.930 . S
H1331 C1343 0.929 . S
H1332 C1346 0.930 . S
H1333 C1348 0.960 . S
H1334 C1348 0.960 . S
H1335 C1348 0.960 . S
C1336 H1328 0.929 . S
C1336 C1337 1.377 . S
C1336 C1338 1.384 . S
C1337 C1336 1.377 . S
C1337 C1343 1.390 . S
C1338 H1329 0.930 . S
C1338 C1336 1.384 . S
C1338 C1339 1.372 . S
C1339 C1338 1.372 . S
C1339 C1340 1.400 . S
C1339 C1344 1.490 . S
C1340 H1330 0.930 . S
C1340 C1339 1.400 . S
C1340 C1343 1.386 . S
H1341 C1357 0.930 . S
H1342 C1358 0.931 . S
C1343 H1331 0.929 . S
C1343 C1337 1.390 . S
C1343 C1340 1.386 . S
C1344 C1339 1.490 . S
C1344 C1346 1.395 . S
C1344 C1347 1.403 . S
H1345 C1351 0.930 . S
C1346 H1332 0.930 . S
C1346 C1344 1.395 . S
C1346 C1349 1.403 . S
C1347 C1344 1.403 . S
C1347 C1348 1.524 . S
C1347 C1351 1.400 . S
C1348 H1333 0.960 . S
C1348 H1334 0.960 . S
C1348 H1335 0.960 . S
C1348 C1347 1.524 . S
C1349 C1346 1.403 . S
C1349 C1350 1.392 . S
C1349 C1353 1.495 . S
C1350 C1349 1.392 . S
C1350 C1351 1.385 . S
C1350 C1352 1.478 . S
C1351 H1345 0.930 . S
C1351 C1347 1.400 . S
C1351 C1350 1.385 . S
C1352 C1350 1.478 . S
C1352 C1354 1.381 . S
C1352 C1358 1.383 . S
C1353 C1349 1.495 . S
C1353 H1359 0.959 . S
C1353 H1360 0.961 . S
C1353 H1361 0.960 . S
C1354 C1352 1.381 . S
C1354 C1355 1.394 . S
C1354 H1362 0.930 . S
C1355 C1354 1.394 . S
C1355 C1356 1.383 . S
C1355 H1363 0.929 . S
C1356 C1355 1.383 . S
C1356 C1357 1.377 . S
C1357 H1341 0.930 . S
C1357 C1356 1.377 . S
C1357 C1358 1.379 . S
C1358 H1342 0.931 . S
C1358 C1352 1.383 . S
C1358 C1357 1.379 . S
H1359 C1353 0.959 . S
H1360 C1353 0.961 . S
H1361 C1353 0.960 . S
H1362 C1354 0.930 . S
H1363 C1355 0.929 . S
H1364 C1372 0.929 . S
H1365 C1374 0.930 . S
H1366 C1376 0.930 . S
H1367 C1379 0.929 . S
H1368 C1382 0.930 . S
H1369 C1384 0.960 . S
H1370 C1384 0.960 . S
H1371 C1384 0.960 . S
C1372 H1364 0.929 . S
C1372 C1373 1.377 . S
C1372 C1374 1.384 . S
C1373 C1372 1.377 . S
C1373 C1379 1.390 . S
C1374 H1365 0.930 . S
C1374 C1372 1.384 . S
C1374 C1375 1.372 . S
C1375 C1374 1.372 . S
C1375 C1376 1.400 . S
C1375 C1380 1.490 . S
C1376 H1366 0.930 . S
C1376 C1375 1.400 . S
C1376 C1379 1.386 . S
H1377 C1393 0.930 . S
H1378 C1394 0.931 . S
C1379 H1367 0.929 . S
C1379 C1373 1.390 . S
C1379 C1376 1.386 . S
C1380 C1375 1.490 . S
C1380 C1382 1.395 . S
C1380 C1383 1.403 . S
H1381 C1387 0.930 . S
C1382 H1368 0.930 . S
C1382 C1380 1.395 . S
C1382 C1385 1.403 . S
C1383 C1380 1.403 . S
C1383 C1384 1.524 . S
C1383 C1387 1.400 . S
C1384 H1369 0.960 . S
C1384 H1370 0.960 . S
C1384 H1371 0.960 . S
C1384 C1383 1.524 . S
C1385 C1382 1.403 . S
C1385 C1386 1.392 . S
C1385 C1389 1.495 . S
C1386 C1385 1.392 . S
C1386 C1387 1.385 . S
C1386 C1388 1.478 . S
C1387 H1381 0.930 . S
C1387 C1383 1.400 . S
C1387 C1386 1.385 . S
C1388 C1386 1.478 . S
C1388 C1390 1.381 . S
C1388 C1394 1.383 . S
C1389 C1385 1.495 . S
C1389 H1395 0.959 . S
C1389 H1396 0.961 . S
C1389 H1397 0.960 . S
C1390 C1388 1.381 . S
C1390 C1391 1.394 . S
C1390 H1398 0.930 . S
C1391 C1390 1.394 . S
C1391 C1392 1.383 . S
C1391 H1399 0.929 . S
C1392 C1391 1.383 . S
C1392 C1393 1.377 . S
C1393 H1377 0.930 . S
C1393 C1392 1.377 . S
C1393 C1394 1.379 . S
C1394 H1378 0.931 . S
C1394 C1388 1.383 . S
C1394 C1393 1.379 . S
H1395 C1389 0.959 . S
H1396 C1389 0.961 . S
H1397 C1389 0.960 . S
H1398 C1390 0.930 . S
H1399 C1391 0.929 . S
H1400 C1408 0.929 . S
H1401 C1410 0.930 . S
H1402 C1412 0.930 . S
H1403 C1415 0.929 . S
H1404 C1418 0.930 . S
H1405 C1420 0.960 . S
H1406 C1420 0.960 . S
H1407 C1420 0.960 . S
C1408 H1400 0.929 . S
C1408 C1409 1.377 . S
C1408 C1410 1.384 . S
C1409 C1408 1.377 . S
C1409 C1415 1.390 . S
C1410 H1401 0.930 . S
C1410 C1408 1.384 . S
C1410 C1411 1.372 . S
C1411 C1410 1.372 . S
C1411 C1412 1.400 . S
C1411 C1416 1.490 . S
C1412 H1402 0.930 . S
C1412 C1411 1.400 . S
C1412 C1415 1.386 . S
H1413 C1429 0.930 . S
H1414 C1430 0.931 . S
C1415 H1403 0.929 . S
C1415 C1409 1.390 . S
C1415 C1412 1.386 . S
C1416 C1411 1.490 . S
C1416 C1418 1.395 . S
C1416 C1419 1.403 . S
H1417 C1423 0.930 . S
C1418 H1404 0.930 . S
C1418 C1416 1.395 . S
C1418 C1421 1.403 . S
C1419 C1416 1.403 . S
C1419 C1420 1.524 . S
C1419 C1423 1.400 . S
C1420 H1405 0.960 . S
C1420 H1406 0.960 . S
C1420 H1407 0.960 . S
C1420 C1419 1.524 . S
C1421 C1418 1.403 . S
C1421 C1422 1.392 . S
C1421 C1425 1.495 . S
C1422 C1421 1.392 . S
C1422 C1423 1.385 . S
C1422 C1424 1.478 . S
C1423 H1417 0.930 . S
C1423 C1419 1.400 . S
C1423 C1422 1.385 . S
C1424 C1422 1.478 . S
C1424 C1426 1.381 . S
C1424 C1430 1.383 . S
C1425 C1421 1.495 . S
C1425 H1431 0.959 . S
C1425 H1432 0.961 . S
C1425 H1433 0.960 . S
C1426 C1424 1.381 . S
C1426 C1427 1.394 . S
C1426 H1434 0.930 . S
C1427 C1426 1.394 . S
C1427 C1428 1.383 . S
C1427 H1435 0.929 . S
C1428 C1427 1.383 . S
C1428 C1429 1.377 . S
C1429 H1413 0.930 . S
C1429 C1428 1.377 . S
C1429 C1430 1.379 . S
C1430 H1414 0.931 . S
C1430 C1424 1.383 . S
C1430 C1429 1.379 . S
H1431 C1425 0.959 . S
H1432 C1425 0.961 . S
H1433 C1425 0.960 . S
H1434 C1426 0.930 . S
H1435 C1427 0.929 . S
H1436 C1444 0.929 . S
H1437 C1446 0.930 . S
H1438 C1448 0.930 . S
H1439 C1451 0.929 . S
H1440 C1454 0.930 . S
H1441 C1456 0.960 . S
H1442 C1456 0.960 . S
H1443 C1456 0.960 . S
C1444 H1436 0.929 . S
C1444 C1445 1.377 . S
C1444 C1446 1.384 . S
C1445 C1444 1.377 . S
C1445 C1451 1.390 . S
C1446 H1437 0.930 . S
C1446 C1444 1.384 . S
C1446 C1447 1.372 . S
C1447 C1446 1.372 . S
C1447 C1448 1.400 . S
C1447 C1452 1.490 . S
C1448 H1438 0.930 . S
C1448 C1447 1.400 . S
C1448 C1451 1.386 . S
H1449 C1465 0.930 . S
H1450 C1466 0.931 . S
C1451 H1439 0.929 . S
C1451 C1445 1.390 . S
C1451 C1448 1.386 . S
C1452 C1447 1.490 . S
C1452 C1454 1.395 . S
C1452 C1455 1.403 . S
H1453 C1459 0.930 . S
C1454 H1440 0.930 . S
C1454 C1452 1.395 . S
C1454 C1457 1.403 . S
C1455 C1452 1.403 . S
C1455 C1456 1.524 . S
C1455 C1459 1.400 . S
C1456 H1441 0.960 . S
C1456 H1442 0.960 . S
C1456 H1443 0.960 . S
C1456 C1455 1.524 . S
C1457 C1454 1.403 . S
C1457 C1458 1.392 . S
C1457 C1461 1.495 . S
C1458 C1457 1.392 . S
C1458 C1459 1.385 . S
C1458 C1460 1.478 . S
C1459 H1453 0.930 . S
C1459 C1455 1.400 . S
C1459 C1458 1.385 . S
C1460 C1458 1.478 . S
C1460 C1462 1.381 . S
C1460 C1466 1.383 . S
C1461 C1457 1.495 . S
C1461 H1467 0.959 . S
C1461 H1468 0.961 . S
C1461 H1469 0.960 . S
C1462 C1460 1.381 . S
C1462 C1463 1.394 . S
C1462 H1470 0.930 . S
C1463 C1462 1.394 . S
C1463 C1464 1.383 . S
C1463 H1471 0.929 . S
C1464 C1463 1.383 . S
C1464 C1465 1.377 . S
C1465 H1449 0.930 . S
C1465 C1464 1.377 . S
C1465 C1466 1.379 . S
C1466 H1450 0.931 . S
C1466 C1460 1.383 . S
C1466 C1465 1.379 . S
H1467 C1461 0.959 . S
H1468 C1461 0.961 . S
H1469 C1461 0.960 . S
H1470 C1462 0.930 . S
H1471 C1463 0.929 . S
H1472 C1480 0.929 . S
H1473 C1482 0.930 . S
H1474 C1484 0.930 . S
H1475 C1487 0.929 . S
H1476 C1490 0.930 . S
H1477 C1492 0.960 . S
H1478 C1492 0.960 . S
H1479 C1492 0.960 . S
C1480 H1472 0.929 . S
C1480 C1481 1.377 . S
C1480 C1482 1.384 . S
C1481 C1480 1.377 . S
C1481 C1487 1.390 . S
C1482 H1473 0.930 . S
C1482 C1480 1.384 . S
C1482 C1483 1.372 . S
C1483 C1482 1.372 . S
C1483 C1484 1.400 . S
C1483 C1488 1.490 . S
C1484 H1474 0.930 . S
C1484 C1483 1.400 . S
C1484 C1487 1.386 . S
H1485 C1501 0.930 . S
H1486 C1502 0.931 . S
C1487 H1475 0.929 . S
C1487 C1481 1.390 . S
C1487 C1484 1.386 . S
C1488 C1483 1.490 . S
C1488 C1490 1.395 . S
C1488 C1491 1.403 . S
H1489 C1495 0.930 . S
C1490 H1476 0.930 . S
C1490 C1488 1.395 . S
C1490 C1493 1.403 . S
C1491 C1488 1.403 . S
C1491 C1492 1.524 . S
C1491 C1495 1.400 . S
C1492 H1477 0.960 . S
C1492 H1478 0.960 . S
C1492 H1479 0.960 . S
C1492 C1491 1.524 . S
C1493 C1490 1.403 . S
C1493 C1494 1.392 . S
C1493 C1497 1.495 . S
C1494 C1493 1.392 . S
C1494 C1495 1.385 . S
C1494 C1496 1.478 . S
C1495 H1489 0.930 . S
C1495 C1491 1.400 . S
C1495 C1494 1.385 . S
C1496 C1494 1.478 . S
C1496 C1498 1.381 . S
C1496 C1502 1.383 . S
C1497 C1493 1.495 . S
C1497 H1503 0.959 . S
C1497 H1504 0.961 . S
C1497 H1505 0.960 . S
C1498 C1496 1.381 . S
C1498 C1499 1.394 . S
C1498 H1506 0.930 . S
C1499 C1498 1.394 . S
C1499 C1500 1.383 . S
C1499 H1507 0.929 . S
C1500 C1499 1.383 . S
C1500 C1501 1.377 . S
C1501 H1485 0.930 . S
C1501 C1500 1.377 . S
C1501 C1502 1.379 . S
C1502 H1486 0.931 . S
C1502 C1496 1.383 . S
C1502 C1501 1.379 . S
H1503 C1497 0.959 . S
H1504 C1497 0.961 . S
H1505 C1497 0.960 . S
H1506 C1498 0.930 . S
H1507 C1499 0.929 . S
H1508 C1516 0.929 . S
H1509 C1518 0.930 . S
H1510 C1520 0.930 . S
H1511 C1523 0.929 . S
H1512 C1526 0.930 . S
H1513 C1528 0.960 . S
H1514 C1528 0.960 . S
H1515 C1528 0.960 . S
C1516 H1508 0.929 . S
C1516 C1517 1.377 . S
C1516 C1518 1.384 . S
C1517 C1516 1.377 . S
C1517 C1523 1.390 . S
C1518 H1509 0.930 . S
C1518 C1516 1.384 . S
C1518 C1519 1.372 . S
C1519 C1518 1.372 . S
C1519 C1520 1.400 . S
C1519 C1524 1.490 . S
C1520 H1510 0.930 . S
C1520 C1519 1.400 . S
C1520 C1523 1.386 . S
H1521 C1537 0.930 . S
H1522 C1538 0.931 . S
C1523 H1511 0.929 . S
C1523 C1517 1.390 . S
C1523 C1520 1.386 . S
C1524 C1519 1.490 . S
C1524 C1526 1.395 . S
C1524 C1527 1.403 . S
H1525 C1531 0.930 . S
C1526 H1512 0.930 . S
C1526 C1524 1.395 . S
C1526 C1529 1.403 . S
C1527 C1524 1.403 . S
C1527 C1528 1.524 . S
C1527 C1531 1.400 . S
C1528 H1513 0.960 . S
C1528 H1514 0.960 . S
C1528 H1515 0.960 . S
C1528 C1527 1.524 . S
C1529 C1526 1.403 . S
C1529 C1530 1.392 . S
C1529 C1533 1.495 . S
C1530 C1529 1.392 . S
C1530 C1531 1.385 . S
C1530 C1532 1.478 . S
C1531 H1525 0.930 . S
C1531 C1527 1.400 . S
C1531 C1530 1.385 . S
C1532 C1530 1.478 . S
C1532 C1534 1.381 . S
C1532 C1538 1.383 . S
C1533 C1529 1.495 . S
C1533 H1539 0.959 . S
C1533 H1540 0.961 . S
C1533 H1541 0.960 . S
C1534 C1532 1.381 . S
C1534 C1535 1.394 . S
C1534 H1542 0.930 . S
C1535 C1534 1.394 . S
C1535 C1536 1.383 . S
C1535 H1543 0.929 . S
C1536 C1535 1.383 . S
C1536 C1537 1.377 . S
C1537 H1521 0.930 . S
C1537 C1536 1.377 . S
C1537 C1538 1.379 . S
C1538 H1522 0.931 . S
C1538 C1532 1.383 . S
C1538 C1537 1.379 . S
H1539 C1533 0.959 . S
H1540 C1533 0.961 . S
H1541 C1533 0.960 . S
H1542 C1534 0.930 . S
H1543 C1535 0.929 . S
H1544 C1552 0.929 . S
H1545 C1554 0.930 . S
H1546 C1556 0.930 . S
H1547 C1559 0.929 . S
H1548 C1562 0.930 . S
H1549 C1564 0.960 . S
H1550 C1564 0.960 . S
H1551 C1564 0.960 . S
C1552 H1544 0.929 . S
C1552 C1553 1.377 . S
C1552 C1554 1.384 . S
C1553 C1552 1.377 . S
C1553 C1559 1.390 . S
C1554 H1545 0.930 . S
C1554 C1552 1.384 . S
C1554 C1555 1.372 . S
C1555 C1554 1.372 . S
C1555 C1556 1.400 . S
C1555 C1560 1.490 . S
C1556 H1546 0.930 . S
C1556 C1555 1.400 . S
C1556 C1559 1.386 . S
H1557 C1573 0.930 . S
H1558 C1574 0.931 . S
C1559 H1547 0.929 . S
C1559 C1553 1.390 . S
C1559 C1556 1.386 . S
C1560 C1555 1.490 . S
C1560 C1562 1.395 . S
C1560 C1563 1.403 . S
H1561 C1567 0.930 . S
C1562 H1548 0.930 . S
C1562 C1560 1.395 . S
C1562 C1565 1.403 . S
C1563 C1560 1.403 . S
C1563 C1564 1.524 . S
C1563 C1567 1.400 . S
C1564 H1549 0.960 . S
C1564 H1550 0.960 . S
C1564 H1551 0.960 . S
C1564 C1563 1.524 . S
C1565 C1562 1.403 . S
C1565 C1566 1.392 . S
C1565 C1569 1.495 . S
C1566 C1565 1.392 . S
C1566 C1567 1.385 . S
C1566 C1568 1.478 . S
C1567 H1561 0.930 . S
C1567 C1563 1.400 . S
C1567 C1566 1.385 . S
C1568 C1566 1.478 . S
C1568 C1570 1.381 . S
C1568 C1574 1.383 . S
C1569 C1565 1.495 . S
C1569 H1575 0.959 . S
C1569 H1576 0.961 . S
C1569 H1577 0.960 . S
C1570 C1568 1.381 . S
C1570 C1571 1.394 . S
C1570 H1578 0.930 . S
C1571 C1570 1.394 . S
C1571 C1572 1.383 . S
C1571 H1579 0.929 . S
C1572 C1571 1.383 . S
C1572 C1573 1.377 . S
C1573 H1557 0.930 . S
C1573 C1572 1.377 . S
C1573 C1574 1.379 . S
C1574 H1558 0.931 . S
C1574 C1568 1.383 . S
C1574 C1573 1.379 . S
H1575 C1569 0.959 . S
H1576 C1569 0.961 . S
H1577 C1569 0.960 . S
H1578 C1570 0.930 . S
H1579 C1571 0.929 . S
H1580 C1588 0.929 . S
H1581 C1590 0.930 . S
H1582 C1592 0.930 . S
H1583 C1595 0.929 . S
H1584 C1598 0.930 . S
H1585 C1600 0.960 . S
H1586 C1600 0.960 . S
H1587 C1600 0.960 . S
C1588 H1580 0.929 . S
C1588 C1589 1.377 . S
C1588 C1590 1.384 . S
C1589 C1588 1.377 . S
C1589 C1595 1.390 . S
C1590 H1581 0.930 . S
C1590 C1588 1.384 . S
C1590 C1591 1.372 . S
C1591 C1590 1.372 . S
C1591 C1592 1.400 . S
C1591 C1596 1.490 . S
C1592 H1582 0.930 . S
C1592 C1591 1.400 . S
C1592 C1595 1.386 . S
H1593 C1609 0.930 . S
H1594 C1610 0.931 . S
C1595 H1583 0.929 . S
C1595 C1589 1.390 . S
C1595 C1592 1.386 . S
C1596 C1591 1.490 . S
C1596 C1598 1.395 . S
C1596 C1599 1.403 . S
H1597 C1603 0.930 . S
C1598 H1584 0.930 . S
C1598 C1596 1.395 . S
C1598 C1601 1.403 . S
C1599 C1596 1.403 . S
C1599 C1600 1.524 . S
C1599 C1603 1.400 . S
C1600 H1585 0.960 . S
C1600 H1586 0.960 . S
C1600 H1587 0.960 . S
C1600 C1599 1.524 . S
C1601 C1598 1.403 . S
C1601 C1602 1.392 . S
C1601 C1605 1.495 . S
C1602 C1601 1.392 . S
C1602 C1603 1.385 . S
C1602 C1604 1.478 . S
C1603 H1597 0.930 . S
C1603 C1599 1.400 . S
C1603 C1602 1.385 . S
C1604 C1602 1.478 . S
C1604 C1606 1.381 . S
C1604 C1610 1.383 . S
C1605 C1601 1.495 . S
C1605 H1611 0.959 . S
C1605 H1612 0.961 . S
C1605 H1613 0.960 . S
C1606 C1604 1.381 . S
C1606 C1607 1.394 . S
C1606 H1614 0.930 . S
C1607 C1606 1.394 . S
C1607 C1608 1.383 . S
C1607 H1615 0.929 . S
C1608 C1607 1.383 . S
C1608 C1609 1.377 . S
C1609 H1593 0.930 . S
C1609 C1608 1.377 . S
C1609 C1610 1.379 . S
C1610 H1594 0.931 . S
C1610 C1604 1.383 . S
C1610 C1609 1.379 . S
H1611 C1605 0.959 . S
H1612 C1605 0.961 . S
H1613 C1605 0.960 . S
H1614 C1606 0.930 . S
H1615 C1607 0.929 . S
H1616 C1624 0.929 . S
H1617 C1626 0.930 . S
H1618 C1628 0.930 . S
H1619 C1631 0.929 . S
H1620 C1634 0.930 . S
H1621 C1636 0.960 . S
H1622 C1636 0.960 . S
H1623 C1636 0.960 . S
C1624 H1616 0.929 . S
C1624 C1625 1.377 . S
C1624 C1626 1.384 . S
C1625 C1624 1.377 . S
C1625 C1631 1.390 . S
C1626 H1617 0.930 . S
C1626 C1624 1.384 . S
C1626 C1627 1.372 . S
C1627 C1626 1.372 . S
C1627 C1628 1.400 . S
C1627 C1632 1.490 . S
C1628 H1618 0.930 . S
C1628 C1627 1.400 . S
C1628 C1631 1.386 . S
H1629 C1645 0.930 . S
H1630 C1646 0.931 . S
C1631 H1619 0.929 . S
C1631 C1625 1.390 . S
C1631 C1628 1.386 . S
C1632 C1627 1.490 . S
C1632 C1634 1.395 . S
C1632 C1635 1.403 . S
H1633 C1639 0.930 . S
C1634 H1620 0.930 . S
C1634 C1632 1.395 . S
C1634 C1637 1.403 . S
C1635 C1632 1.403 . S
C1635 C1636 1.524 . S
C1635 C1639 1.400 . S
C1636 H1621 0.960 . S
C1636 H1622 0.960 . S
C1636 H1623 0.960 . S
C1636 C1635 1.524 . S
C1637 C1634 1.403 . S
C1637 C1638 1.392 . S
C1637 C1641 1.495 . S
C1638 C1637 1.392 . S
C1638 C1639 1.385 . S
C1638 C1640 1.478 . S
C1639 H1633 0.930 . S
C1639 C1635 1.400 . S
C1639 C1638 1.385 . S
C1640 C1638 1.478 . S
C1640 C1642 1.381 . S
C1640 C1646 1.383 . S
C1641 C1637 1.495 . S
C1641 H1647 0.959 . S
C1641 H1648 0.961 . S
C1641 H1649 0.960 . S
C1642 C1640 1.381 . S
C1642 C1643 1.394 . S
C1642 H1650 0.930 . S
C1643 C1642 1.394 . S
C1643 C1644 1.383 . S
C1643 H1651 0.929 . S
C1644 C1643 1.383 . S
C1644 C1645 1.377 . S
C1645 H1629 0.930 . S
C1645 C1644 1.377 . S
C1645 C1646 1.379 . S
C1646 H1630 0.931 . S
C1646 C1640 1.383 . S
C1646 C1645 1.379 . S
H1647 C1641 0.959 . S
H1648 C1641 0.961 . S
H1649 C1641 0.960 . S
H1650 C1642 0.930 . S
H1651 C1643 0.929 . S
H1652 C1660 0.929 . S
H1653 C1662 0.930 . S
H1654 C1664 0.930 . S
H1655 C1667 0.929 . S
H1656 C1670 0.930 . S
H1657 C1672 0.960 . S
H1658 C1672 0.960 . S
H1659 C1672 0.960 . S
C1660 H1652 0.929 . S
C1660 C1661 1.377 . S
C1660 C1662 1.384 . S
C1661 C1660 1.377 . S
C1661 C1667 1.390 1_554 S
C1662 H1653 0.930 . S
C1662 C1660 1.384 . S
C1662 C1663 1.372 . S
C1663 C1662 1.372 . S
C1663 C1664 1.400 1_554 S
C1663 C1668 1.490 . S
C1664 H1654 0.930 . S
C1664 C1663 1.400 1_556 S
C1664 C1667 1.386 . S
H1665 C1681 0.930 . S
H1666 C1682 0.931 . S
C1667 H1655 0.929 . S
C1667 C1661 1.390 1_556 S
C1667 C1664 1.386 . S
C1668 C1663 1.490 . S
C1668 C1670 1.395 . S
C1668 C1671 1.403 1_554 S
H1669 C1675 0.930 . S
C1670 H1656 0.930 . S
C1670 C1668 1.395 . S
C1670 C1673 1.403 . S
C1671 C1668 1.403 1_556 S
C1671 C1672 1.524 . S
C1671 C1675 1.400 . S
C1672 H1657 0.960 . S
C1672 H1658 0.960 . S
C1672 H1659 0.960 . S
C1672 C1671 1.524 . S
C1673 C1670 1.403 . S
C1673 C1674 1.392 . S
C1673 C1677 1.495 . S
C1674 C1673 1.392 . S
C1674 C1675 1.385 1_554 S
C1674 C1676 1.478 . S
C1675 H1669 0.930 . S
C1675 C1671 1.400 . S
C1675 C1674 1.385 1_556 S
C1676 C1674 1.478 . S
C1676 C1678 1.381 . S
C1676 C1682 1.383 1_554 S
C1677 C1673 1.495 . S
C1677 H1683 0.959 . S
C1677 H1684 0.961 . S
C1677 H1685 0.960 . S
C1678 C1676 1.381 . S
C1678 C1679 1.394 . S
C1678 H1686 0.930 . S
C1679 C1678 1.394 . S
C1679 C1680 1.383 . S
C1679 H1687 0.929 . S
C1680 C1679 1.383 . S
C1680 C1681 1.377 1_554 S
C1681 H1665 0.930 . S
C1681 C1680 1.377 1_556 S
C1681 C1682 1.379 . S
C1682 H1666 0.931 . S
C1682 C1676 1.383 1_556 S
C1682 C1681 1.379 . S
H1683 C1677 0.959 . S
H1684 C1677 0.961 . S
H1685 C1677 0.960 . S
H1686 C1678 0.930 . S
H1687 C1679 0.929 . S
H1688 C1696 0.929 . S
H1689 C1698 0.930 . S
H1690 C1700 0.930 . S
H1691 C1703 0.929 . S
H1692 C1706 0.930 . S
H1693 C1708 0.960 . S
H1694 C1708 0.960 . S
H1695 C1708 0.960 . S
C1696 H1688 0.929 . S
C1696 C1697 1.377 . S
C1696 C1698 1.384 . S
C1697 C1696 1.377 . S
C1697 C1703 1.390 . S
C1698 H1689 0.930 . S
C1698 C1696 1.384 . S
C1698 C1699 1.372 . S
C1699 C1698 1.372 . S
C1699 C1700 1.400 . S
C1699 C1704 1.490 . S
C1700 H1690 0.930 . S
C1700 C1699 1.400 . S
C1700 C1703 1.386 . S
H1701 C1717 0.930 . S
H1702 C1718 0.931 . S
C1703 H1691 0.929 . S
C1703 C1697 1.390 . S
C1703 C1700 1.386 . S
C1704 C1699 1.490 . S
C1704 C1706 1.395 . S
C1704 C1707 1.403 . S
H1705 C1711 0.930 . S
C1706 H1692 0.930 . S
C1706 C1704 1.395 . S
C1706 C1709 1.403 . S
C1707 C1704 1.403 . S
C1707 C1708 1.524 . S
C1707 C1711 1.400 . S
C1708 H1693 0.960 . S
C1708 H1694 0.960 . S
C1708 H1695 0.960 . S
C1708 C1707 1.524 . S
C1709 C1706 1.403 . S
C1709 C1710 1.392 . S
C1709 C1713 1.495 . S
C1710 C1709 1.392 . S
C1710 C1711 1.385 . S
C1710 C1712 1.478 . S
C1711 H1705 0.930 . S
C1711 C1707 1.400 . S
C1711 C1710 1.385 . S
C1712 C1710 1.478 . S
C1712 C1714 1.381 . S
C1712 C1718 1.383 . S
C1713 C1709 1.495 . S
C1713 H1719 0.959 . S
C1713 H1720 0.961 . S
C1713 H1721 0.960 . S
C1714 C1712 1.381 . S
C1714 C1715 1.394 . S
C1714 H1722 0.930 . S
C1715 C1714 1.394 . S
C1715 C1716 1.383 . S
C1715 H1723 0.929 . S
C1716 C1715 1.383 . S
C1716 C1717 1.377 . S
C1717 H1701 0.930 . S
C1717 C1716 1.377 . S
C1717 C1718 1.379 . S
C1718 H1702 0.931 . S
C1718 C1712 1.383 . S
C1718 C1717 1.379 . S
H1719 C1713 0.959 . S
H1720 C1713 0.961 . S
H1721 C1713 0.960 . S
H1722 C1714 0.930 . S
H1723 C1715 0.929 . S
H1724 C1732 0.929 . S
H1725 C1734 0.930 . S
H1726 C1736 0.930 . S
H1727 C1739 0.929 . S
H1728 C1742 0.930 . S
H1729 C1744 0.960 . S
H1730 C1744 0.960 . S
H1731 C1744 0.960 . S
C1732 H1724 0.929 . S
C1732 C1733 1.377 . S
C1732 C1734 1.384 . S
C1733 C1732 1.377 . S
C1733 C1739 1.390 . S
C1734 H1725 0.930 . S
C1734 C1732 1.384 . S
C1734 C1735 1.372 . S
C1735 C1734 1.372 . S
C1735 C1736 1.400 . S
C1735 C1740 1.490 . S
C1736 H1726 0.930 . S
C1736 C1735 1.400 . S
C1736 C1739 1.386 . S
H1737 C1753 0.930 . S
H1738 C1754 0.931 . S
C1739 H1727 0.929 . S
C1739 C1733 1.390 . S
C1739 C1736 1.386 . S
C1740 C1735 1.490 . S
C1740 C1742 1.395 . S
C1740 C1743 1.403 . S
H1741 C1747 0.930 . S
C1742 H1728 0.930 . S
C1742 C1740 1.395 . S
C1742 C1745 1.403 . S
C1743 C1740 1.403 . S
C1743 C1744 1.524 . S
C1743 C1747 1.400 . S
C1744 H1729 0.960 . S
C1744 H1730 0.960 . S
C1744 H1731 0.960 . S
C1744 C1743 1.524 . S
C1745 C1742 1.403 . S
C1745 C1746 1.392 . S
C1745 C1749 1.495 . S
C1746 C1745 1.392 . S
C1746 C1747 1.385 . S
C1746 C1748 1.478 . S
C1747 H1741 0.930 . S
C1747 C1743 1.400 . S
C1747 C1746 1.385 . S
C1748 C1746 1.478 . S
C1748 C1750 1.381 . S
C1748 C1754 1.383 . S
C1749 C1745 1.495 . S
C1749 H1755 0.959 . S
C1749 H1756 0.961 . S
C1749 H1757 0.960 . S
C1750 C1748 1.381 . S
C1750 C1751 1.394 . S
C1750 H1758 0.930 . S
C1751 C1750 1.394 . S
C1751 C1752 1.383 . S
C1751 H1759 0.929 . S
C1752 C1751 1.383 . S
C1752 C1753 1.377 . S
C1753 H1737 0.930 . S
C1753 C1752 1.377 . S
C1753 C1754 1.379 . S
C1754 H1738 0.931 . S
C1754 C1748 1.383 . S
C1754 C1753 1.379 . S
H1755 C1749 0.959 . S
H1756 C1749 0.961 . S
H1757 C1749 0.960 . S
H1758 C1750 0.930 . S
H1759 C1751 0.929 . S
H1760 C1768 0.929 . S
H1761 C1770 0.930 . S
H1762 C1772 0.930 . S
H1763 C1775 0.929 . S
H1764 C1778 0.930 . S
H1765 C1780 0.960 . S
H1766 C1780 0.960 . S
H1767 C1780 0.960 . S
C1768 H1760 0.929 . S
C1768 C1769 1.377 . S
C1768 C1770 1.384 . S
C1769 C1768 1.377 . S
C1769 C1775 1.390 . S
C1770 H1761 0.930 . S
C1770 C1768 1.384 . S
C1770 C1771 1.372 . S
C1771 C1770 1.372 . S
C1771 C1772 1.400 . S
C1771 C1776 1.490 . S
C1772 H1762 0.930 . S
C1772 C1771 1.400 . S
C1772 C1775 1.386 . S
H1773 C1789 0.930 . S
H1774 C1790 0.931 . S
C1775 H1763 0.929 . S
C1775 C1769 1.390 . S
C1775 C1772 1.386 . S
C1776 C1771 1.490 . S
C1776 C1778 1.395 . S
C1776 C1779 1.403 . S
H1777 C1783 0.930 . S
C1778 H1764 0.930 . S
C1778 C1776 1.395 . S
C1778 C1781 1.403 . S
C1779 C1776 1.403 . S
C1779 C1780 1.524 . S
C1779 C1783 1.400 . S
C1780 H1765 0.960 . S
C1780 H1766 0.960 . S
C1780 H1767 0.960 . S
C1780 C1779 1.524 . S
C1781 C1778 1.403 . S
C1781 C1782 1.392 . S
C1781 C1785 1.495 . S
C1782 C1781 1.392 . S
C1782 C1783 1.385 . S
C1782 C1784 1.478 . S
C1783 H1777 0.930 . S
C1783 C1779 1.400 . S
C1783 C1782 1.385 . S
C1784 C1782 1.478 . S
C1784 C1786 1.381 . S
C1784 C1790 1.383 . S
C1785 C1781 1.495 . S
C1785 H1791 0.959 . S
C1785 H1792 0.961 . S
C1785 H1793 0.960 . S
C1786 C1784 1.381 . S
C1786 C1787 1.394 . S
C1786 H1794 0.930 . S
C1787 C1786 1.394 . S
C1787 C1788 1.383 . S
C1787 H1795 0.929 . S
C1788 C1787 1.383 . S
C1788 C1789 1.377 . S
C1789 H1773 0.930 . S
C1789 C1788 1.377 . S
C1789 C1790 1.379 . S
C1790 H1774 0.931 . S
C1790 C1784 1.383 . S
C1790 C1789 1.379 . S
H1791 C1785 0.959 . S
H1792 C1785 0.961 . S
H1793 C1785 0.960 . S
H1794 C1786 0.930 . S
H1795 C1787 0.929 . S
H1796 C1804 0.929 . S
H1797 C1806 0.930 . S
H1798 C1808 0.930 . S
H1799 C1811 0.929 . S
H1800 C1814 0.930 . S
H1801 C1816 0.960 . S
H1802 C1816 0.960 . S
H1803 C1816 0.960 . S
C1804 H1796 0.929 . S
C1804 C1805 1.377 . S
C1804 C1806 1.384 . S
C1805 C1804 1.377 . S
C1805 C1811 1.390 . S
C1806 H1797 0.930 . S
C1806 C1804 1.384 . S
C1806 C1807 1.372 . S
C1807 C1806 1.372 . S
C1807 C1808 1.400 . S
C1807 C1812 1.490 . S
C1808 H1798 0.930 . S
C1808 C1807 1.400 . S
C1808 C1811 1.386 . S
H1809 C1825 0.930 . S
H1810 C1826 0.931 . S
C1811 H1799 0.929 . S
C1811 C1805 1.390 . S
C1811 C1808 1.386 . S
C1812 C1807 1.490 . S
C1812 C1814 1.395 . S
C1812 C1815 1.403 . S
H1813 C1819 0.930 . S
C1814 H1800 0.930 . S
C1814 C1812 1.395 . S
C1814 C1817 1.403 . S
C1815 C1812 1.403 . S
C1815 C1816 1.524 . S
C1815 C1819 1.400 . S
C1816 H1801 0.960 . S
C1816 H1802 0.960 . S
C1816 H1803 0.960 . S
C1816 C1815 1.524 . S
C1817 C1814 1.403 . S
C1817 C1818 1.392 . S
C1817 C1821 1.495 . S
C1818 C1817 1.392 . S
C1818 C1819 1.385 . S
C1818 C1820 1.478 . S
C1819 H1813 0.930 . S
C1819 C1815 1.400 . S
C1819 C1818 1.385 . S
C1820 C1818 1.478 . S
C1820 C1822 1.381 . S
C1820 C1826 1.383 . S
C1821 C1817 1.495 . S
C1821 H1827 0.959 . S
C1821 H1828 0.961 . S
C1821 H1829 0.960 . S
C1822 C1820 1.381 . S
C1822 C1823 1.394 . S
C1822 H1830 0.930 . S
C1823 C1822 1.394 . S
C1823 C1824 1.383 . S
C1823 H1831 0.929 . S
C1824 C1823 1.383 . S
C1824 C1825 1.377 . S
C1825 H1809 0.930 . S
C1825 C1824 1.377 . S
C1825 C1826 1.379 . S
C1826 H1810 0.931 . S
C1826 C1820 1.383 . S
C1826 C1825 1.379 . S
H1827 C1821 0.959 . S
H1828 C1821 0.961 . S
H1829 C1821 0.960 . S
H1830 C1822 0.930 . S
H1831 C1823 0.929 . S
H1832 C1840 0.929 . S
H1833 C1842 0.930 . S
H1834 C1844 0.930 . S
H1835 C1847 0.929 . S
H1836 C1850 0.930 . S
H1837 C1852 0.960 . S
H1838 C1852 0.960 . S
H1839 C1852 0.960 . S
C1840 H1832 0.929 . S
C1840 C1841 1.377 1_556 S
C1840 C1842 1.384 . S
C1841 C1840 1.377 1_554 S
C1841 C1847 1.390 . S
C1842 H1833 0.930 . S
C1842 C1840 1.384 . S
C1842 C1843 1.372 1_556 S
C1843 C1842 1.372 1_554 S
C1843 C1844 1.400 . S
C1843 C1848 1.490 . S
C1844 H1834 0.930 . S
C1844 C1843 1.400 . S
C1844 C1847 1.386 . S
H1845 C1861 0.930 . S
H1846 C1862 0.931 . S
C1847 H1835 0.929 . S
C1847 C1841 1.390 . S
C1847 C1844 1.386 . S
C1848 C1843 1.490 . S
C1848 C1850 1.395 1_554 S
C1848 C1851 1.403 . S
H1849 C1855 0.930 . S
C1850 H1836 0.930 . S
C1850 C1848 1.395 1_556 S
C1850 C1853 1.403 . S
C1851 C1848 1.403 . S
C1851 C1852 1.524 . S
C1851 C1855 1.400 . S
C1852 H1837 0.960 . S
C1852 H1838 0.960 . S
C1852 H1839 0.960 . S
C1852 C1851 1.524 . S
C1853 C1850 1.403 . S
C1853 C1854 1.392 1_556 S
C1853 C1857 1.495 . S
C1854 C1853 1.392 1_554 S
C1854 C1855 1.385 . S
C1854 C1856 1.478 . S
C1855 H1849 0.930 . S
C1855 C1851 1.400 . S
C1855 C1854 1.385 . S
C1856 C1854 1.478 . S
C1856 C1858 1.381 1_554 S
C1856 C1862 1.383 . S
C1857 C1853 1.495 . S
C1857 H1863 0.959 . S
C1857 H1864 0.961 . S
C1857 H1865 0.960 . S
C1858 C1856 1.381 1_556 S
C1858 C1859 1.394 . S
C1858 H1866 0.930 . S
C1859 C1858 1.394 . S
C1859 C1860 1.383 1_556 S
C1859 H1867 0.929 . S
C1860 C1859 1.383 1_554 S
C1860 C1861 1.377 . S
C1861 H1845 0.930 . S
C1861 C1860 1.377 . S
C1861 C1862 1.379 . S
C1862 H1846 0.931 . S
C1862 C1856 1.383 . S
C1862 C1861 1.379 . S
H1863 C1857 0.959 . S
H1864 C1857 0.961 . S
H1865 C1857 0.960 . S
H1866 C1858 0.930 . S
H1867 C1859 0.929 . S
H1868 C1876 0.929 . S
H1869 C1878 0.930 . S
H1870 C1880 0.930 . S
H1871 C1883 0.929 . S
H1872 C1886 0.930 . S
H1873 C1888 0.960 . S
H1874 C1888 0.960 . S
H1875 C1888 0.960 . S
C1876 H1868 0.929 . S
C1876 C1877 1.377 . S
C1876 C1878 1.384 . S
C1877 C1876 1.377 . S
C1877 C1883 1.390 . S
C1878 H1869 0.930 . S
C1878 C1876 1.384 . S
C1878 C1879 1.372 . S
C1879 C1878 1.372 . S
C1879 C1880 1.400 . S
C1879 C1884 1.490 . S
C1880 H1870 0.930 . S
C1880 C1879 1.400 . S
C1880 C1883 1.386 . S
H1881 C1897 0.930 . S
H1882 C1898 0.931 . S
C1883 H1871 0.929 . S
C1883 C1877 1.390 . S
C1883 C1880 1.386 . S
C1884 C1879 1.490 . S
C1884 C1886 1.395 . S
C1884 C1887 1.403 . S
H1885 C1891 0.930 . S
C1886 H1872 0.930 . S
C1886 C1884 1.395 . S
C1886 C1889 1.403 . S
C1887 C1884 1.403 . S
C1887 C1888 1.524 . S
C1887 C1891 1.400 . S
C1888 H1873 0.960 . S
C1888 H1874 0.960 . S
C1888 H1875 0.960 . S
C1888 C1887 1.524 . S
C1889 C1886 1.403 . S
C1889 C1890 1.392 . S
C1889 C1893 1.495 . S
C1890 C1889 1.392 . S
C1890 C1891 1.385 . S
C1890 C1892 1.478 . S
C1891 H1885 0.930 . S
C1891 C1887 1.400 . S
C1891 C1890 1.385 . S
C1892 C1890 1.478 . S
C1892 C1894 1.381 . S
C1892 C1898 1.383 . S
C1893 C1889 1.495 . S
C1893 H1899 0.959 . S
C1893 H1900 0.961 . S
C1893 H1901 0.960 . S
C1894 C1892 1.381 . S
C1894 C1895 1.394 . S
C1894 H1902 0.930 . S
C1895 C1894 1.394 . S
C1895 C1896 1.383 . S
C1895 H1903 0.929 . S
C1896 C1895 1.383 . S
C1896 C1897 1.377 . S
C1897 H1881 0.930 . S
C1897 C1896 1.377 . S
C1897 C1898 1.379 . S
C1898 H1882 0.931 . S
C1898 C1892 1.383 . S
C1898 C1897 1.379 . S
H1899 C1893 0.959 . S
H1900 C1893 0.961 . S
H1901 C1893 0.960 . S
H1902 C1894 0.930 . S
H1903 C1895 0.929 . S
H1904 C1912 0.929 . S
H1905 C1914 0.930 . S
H1906 C1916 0.930 . S
H1907 C1919 0.929 . S
H1908 C1922 0.930 . S
H1909 C1924 0.960 . S
H1910 C1924 0.960 . S
H1911 C1924 0.960 . S
C1912 H1904 0.929 . S
C1912 C1913 1.377 . S
C1912 C1914 1.384 . S
C1913 C1912 1.377 . S
C1913 C1919 1.390 . S
C1914 H1905 0.930 . S
C1914 C1912 1.384 . S
C1914 C1915 1.372 . S
C1915 C1914 1.372 . S
C1915 C1916 1.400 . S
C1915 C1920 1.490 . S
C1916 H1906 0.930 . S
C1916 C1915 1.400 . S
C1916 C1919 1.386 . S
H1917 C1933 0.930 . S
H1918 C1934 0.931 . S
C1919 H1907 0.929 . S
C1919 C1913 1.390 . S
C1919 C1916 1.386 . S
C1920 C1915 1.490 . S
C1920 C1922 1.395 . S
C1920 C1923 1.403 . S
H1921 C1927 0.930 . S
C1922 H1908 0.930 . S
C1922 C1920 1.395 . S
C1922 C1925 1.403 . S
C1923 C1920 1.403 . S
C1923 C1924 1.524 . S
C1923 C1927 1.400 . S
C1924 H1909 0.960 . S
C1924 H1910 0.960 . S
C1924 H1911 0.960 . S
C1924 C1923 1.524 . S
C1925 C1922 1.403 . S
C1925 C1926 1.392 . S
C1925 C1929 1.495 . S
C1926 C1925 1.392 . S
C1926 C1927 1.385 . S
C1926 C1928 1.478 . S
C1927 H1921 0.930 . S
C1927 C1923 1.400 . S
C1927 C1926 1.385 . S
C1928 C1926 1.478 . S
C1928 C1930 1.381 . S
C1928 C1934 1.383 . S
C1929 C1925 1.495 . S
C1929 H1935 0.959 . S
C1929 H1936 0.961 . S
C1929 H1937 0.960 . S
C1930 C1928 1.381 . S
C1930 C1931 1.394 . S
C1930 H1938 0.930 . S
C1931 C1930 1.394 . S
C1931 C1932 1.383 . S
C1931 H1939 0.929 . S
C1932 C1931 1.383 . S
C1932 C1933 1.377 . S
C1933 H1917 0.930 . S
C1933 C1932 1.377 . S
C1933 C1934 1.379 . S
C1934 H1918 0.931 . S
C1934 C1928 1.383 . S
C1934 C1933 1.379 . S
H1935 C1929 0.959 . S
H1936 C1929 0.961 . S
H1937 C1929 0.960 . S
H1938 C1930 0.930 . S
H1939 C1931 0.929 . S
H1940 C1948 0.929 . S
H1941 C1950 0.930 . S
H1942 C1952 0.930 . S
H1943 C1955 0.929 . S
H1944 C1958 0.930 . S
H1945 C1960 0.960 . S
H1946 C1960 0.960 . S
H1947 C1960 0.960 . S
C1948 H1940 0.929 . S
C1948 C1949 1.377 . S
C1948 C1950 1.384 . S
C1949 C1948 1.377 . S
C1949 C1955 1.390 . S
C1950 H1941 0.930 . S
C1950 C1948 1.384 . S
C1950 C1951 1.372 . S
C1951 C1950 1.372 . S
C1951 C1952 1.400 . S
C1951 C1956 1.490 . S
C1952 H1942 0.930 . S
C1952 C1951 1.400 . S
C1952 C1955 1.386 . S
H1953 C1969 0.930 . S
H1954 C1970 0.931 . S
C1955 H1943 0.929 . S
C1955 C1949 1.390 . S
C1955 C1952 1.386 . S
C1956 C1951 1.490 . S
C1956 C1958 1.395 . S
C1956 C1959 1.403 . S
H1957 C1963 0.930 . S
C1958 H1944 0.930 . S
C1958 C1956 1.395 . S
C1958 C1961 1.403 . S
C1959 C1956 1.403 . S
C1959 C1960 1.524 . S
C1959 C1963 1.400 . S
C1960 H1945 0.960 . S
C1960 H1946 0.960 . S
C1960 H1947 0.960 . S
C1960 C1959 1.524 . S
C1961 C1958 1.403 . S
C1961 C1962 1.392 . S
C1961 C1965 1.495 . S
C1962 C1961 1.392 . S
C1962 C1963 1.385 . S
C1962 C1964 1.478 . S
C1963 H1957 0.930 . S
C1963 C1959 1.400 . S
C1963 C1962 1.385 . S
C1964 C1962 1.478 . S
C1964 C1966 1.381 . S
C1964 C1970 1.383 . S
C1965 C1961 1.495 . S
C1965 H1971 0.959 . S
C1965 H1972 0.961 . S
C1965 H1973 0.960 . S
C1966 C1964 1.381 . S
C1966 C1967 1.394 . S
C1966 H1974 0.930 . S
C1967 C1966 1.394 . S
C1967 C1968 1.383 . S
C1967 H1975 0.929 . S
C1968 C1967 1.383 . S
C1968 C1969 1.377 . S
C1969 H1953 0.930 . S
C1969 C1968 1.377 . S
C1969 C1970 1.379 . S
C1970 H1954 0.931 . S
C1970 C1964 1.383 . S
C1970 C1969 1.379 . S
H1971 C1965 0.959 . S
H1972 C1965 0.961 . S
H1973 C1965 0.960 . S
H1974 C1966 0.930 . S
H1975 C1967 0.929 . S
H1976 C1984 0.929 . S
H1977 C1986 0.930 . S
H1978 C1988 0.930 . S
H1979 C1991 0.929 . S
H1980 C1994 0.930 . S
H1981 C1996 0.960 . S
H1982 C1996 0.960 . S
H1983 C1996 0.960 . S
C1984 H1976 0.929 . S
C1984 C1985 1.377 . S
C1984 C1986 1.384 . S
C1985 C1984 1.377 . S
C1985 C1991 1.390 . S
C1986 H1977 0.930 . S
C1986 C1984 1.384 . S
C1986 C1987 1.372 . S
C1987 C1986 1.372 . S
C1987 C1988 1.400 . S
C1987 C1992 1.490 . S
C1988 H1978 0.930 . S
C1988 C1987 1.400 . S
C1988 C1991 1.386 . S
H1989 C2005 0.930 . S
H1990 C2006 0.931 . S
C1991 H1979 0.929 . S
C1991 C1985 1.390 . S
C1991 C1988 1.386 . S
C1992 C1987 1.490 . S
C1992 C1994 1.395 . S
C1992 C1995 1.403 . S
H1993 C1999 0.930 . S
C1994 H1980 0.930 . S
C1994 C1992 1.395 . S
C1994 C1997 1.403 . S
C1995 C1992 1.403 . S
C1995 C1996 1.524 . S
C1995 C1999 1.400 . S
C1996 H1981 0.960 . S
C1996 H1982 0.960 . S
C1996 H1983 0.960 . S
C1996 C1995 1.524 . S
C1997 C1994 1.403 . S
C1997 C1998 1.392 . S
C1997 C2001 1.495 . S
C1998 C1997 1.392 . S
C1998 C1999 1.385 . S
C1998 C2000 1.478 . S
C1999 H1993 0.930 . S
C1999 C1995 1.400 . S
C1999 C1998 1.385 . S
C2000 C1998 1.478 . S
C2000 C2002 1.381 . S
C2000 C2006 1.383 . S
C2001 C1997 1.495 . S
C2001 H2007 0.959 . S
C2001 H2008 0.961 . S
C2001 H2009 0.960 . S
C2002 C2000 1.381 . S
C2002 C2003 1.394 . S
C2002 H2010 0.930 . S
C2003 C2002 1.394 . S
C2003 C2004 1.383 . S
C2003 H2011 0.929 . S
C2004 C2003 1.383 . S
C2004 C2005 1.377 . S
C2005 H1989 0.930 . S
C2005 C2004 1.377 . S
C2005 C2006 1.379 . S
C2006 H1990 0.931 . S
C2006 C2000 1.383 . S
C2006 C2005 1.379 . S
H2007 C2001 0.959 . S
H2008 C2001 0.961 . S
H2009 C2001 0.960 . S
H2010 C2002 0.930 . S
H2011 C2003 0.929 . S
H2012 C2020 0.929 . S
H2013 C2022 0.930 . S
H2014 C2024 0.930 . S
H2015 C2027 0.929 . S
H2016 C2030 0.930 . S
H2017 C2032 0.960 . S
H2018 C2032 0.960 . S
H2019 C2032 0.960 . S
C2020 H2012 0.929 . S
C2020 C2021 1.377 . S
C2020 C2022 1.384 . S
C2021 C2020 1.377 . S
C2021 C2027 1.390 . S
C2022 H2013 0.930 . S
C2022 C2020 1.384 . S
C2022 C2023 1.372 . S
C2023 C2022 1.372 . S
C2023 C2024 1.400 . S
C2023 C2028 1.490 . S
C2024 H2014 0.930 . S
C2024 C2023 1.400 . S
C2024 C2027 1.386 . S
H2025 C2041 0.930 . S
H2026 C2042 0.931 . S
C2027 H2015 0.929 . S
C2027 C2021 1.390 . S
C2027 C2024 1.386 . S
C2028 C2023 1.490 . S
C2028 C2030 1.395 . S
C2028 C2031 1.403 . S
H2029 C2035 0.930 . S
C2030 H2016 0.930 . S
C2030 C2028 1.395 . S
C2030 C2033 1.403 . S
C2031 C2028 1.403 . S
C2031 C2032 1.524 . S
C2031 C2035 1.400 . S
C2032 H2017 0.960 . S
C2032 H2018 0.960 . S
C2032 H2019 0.960 . S
C2032 C2031 1.524 . S
C2033 C2030 1.403 . S
C2033 C2034 1.392 . S
C2033 C2037 1.495 . S
C2034 C2033 1.392 . S
C2034 C2035 1.385 . S
C2034 C2036 1.478 . S
C2035 H2029 0.930 . S
C2035 C2031 1.400 . S
C2035 C2034 1.385 . S
C2036 C2034 1.478 . S
C2036 C2038 1.381 . S
C2036 C2042 1.383 . S
C2037 C2033 1.495 . S
C2037 H2043 0.959 . S
C2037 H2044 0.961 . S
C2037 H2045 0.960 . S
C2038 C2036 1.381 . S
C2038 C2039 1.394 . S
C2038 H2046 0.930 . S
C2039 C2038 1.394 . S
C2039 C2040 1.383 . S
C2039 H2047 0.929 . S
C2040 C2039 1.383 . S
C2040 C2041 1.377 . S
C2041 H2025 0.930 . S
C2041 C2040 1.377 . S
C2041 C2042 1.379 . S
C2042 H2026 0.931 . S
C2042 C2036 1.383 . S
C2042 C2041 1.379 . S
H2043 C2037 0.959 . S
H2044 C2037 0.961 . S
H2045 C2037 0.960 . S
H2046 C2038 0.930 . S
H2047 C2039 0.929 . S
C329 C6 1.065 . S
C348 C39 1.028 . S
C365 C49 0.778 . S
C384 C36 0.760 . S
C401 C76 0.749 . S
C420 C46 0.787 . S
C437 C9 0.847 . S
C456 C79 0.884 . S
C473 C1 0.849 . S
C492 C188 0.848 1_545 S
C509 C156 1.057 . S
C528 C28 1.012 . S
C545 C41 1.044 . S
C564 C206 0.991 . S
C581 C66 0.937 . S
C600 C276 0.968 . S
C617 C161 0.805 . S
C636 C26 0.827 . S
C653 C246 0.965 . S
C672 C56 0.943 . S
C689 C296 0.942 . S
C708 C68 0.899 . S
C725 C16 1.061 . S
C744 C228 1.016 . S
C761 C19 1.148 . S
C780 C179 1.174 1_554 S
C797 C249 1.323 . S
C816 C81 1.333 . S
C833 C108 1.191 . S
C852 C299 1.176 . S
C869 C221 1.240 . S
C888 C129 1.245 . S
C905 C48 1.163 . S
C924 C148 1.182 . S
C941 C181 1.282 . S
C960 C89 1.285 . S
C977 C121 1.324 . S
C996 C209 1.332 . S
C1013 C101 0.778 . S
C1032 C226 0.757 . S
C1049 C186 0.760 . S
C1068 C116 0.769 . S
C1085 C239 1.041 . S
C1104 C146 1.086 . S
C1121 C109 1.044 . S
C1140 C96 1.025 . S
C1157 C196 0.944 . S
C1176 C166 0.924 . S
C1193 C269 0.805 . S
C1212 C236 0.779 . S
C1229 C136 0.972 . S
C1248 C106 0.949 . S
C1265 C199 0.923 . S
C1284 C286 0.967 . S
C1301 C268 1.143 . S
C1320 C8 1.155 . S
C1337 C59 1.203 . S
C1356 C288 1.189 . S
C1373 C241 1.237 . S
C1392 C29 1.236 . S
C1409 C159 1.147 . S
C1428 C119 1.167 . S
C1445 C69 1.283 . S
C1464 C201 1.263 . S
C1481 C256 0.931 . S
C1500 C266 0.941 . S
C1517 C149 1.247 . S
C1536 C259 1.162 . S
C1553 C128 1.205 . S
C1572 C141 1.252 . S
C1589 C86 0.796 . S
C1608 C261 0.814 . S
C1625 C248 1.196 . S
C1644 C301 1.247 . S
C1661 C308 1.183 . S
C1680 C168 1.199 . S
C1697 C21 1.187 . S
C1716 C189 1.157 . S
C1733 C176 0.919 . S
C1752 C126 0.930 . S
C1769 C169 0.801 . S
C1788 C216 0.787 . S
C1805 C309 1.234 . S
C1824 C139 1.206 . S
C1841 C279 1.178 1_554 S
C1860 C319 1.156 . S
C1877 C229 1.187 . S
C1896 C61 1.191 . S
C1913 C219 1.371 . S
C1932 C289 1.422 . S
C1949 C208 1.389 . S
C1968 C316 1.421 . S
C1985 C88 1.372 . S
C2004 C281 1.410 . S
C2021 C306 1.406 . S
C2040 C99 1.399 . S
