# Generated by pormake.
# Topology ume, (4)-cn, num edge types: 1
# Building blocks:
#     Node 0, Type 0, BuildingBlock: QUQFOY_clean_sbu_1, # of connection points: 4
#     Node 1, Type 0, BuildingBlock: QUQFOY_clean_sbu_1, # of connection points: 4
#     Node 2, Type 0, BuildingBlock: QUQFOY_clean_sbu_1, # of connection points: 4
#     Node 3, Type 0, BuildingBlock: QUQFOY_clean_sbu_1, # of connection points: 4
#     Node 4, Type 0, BuildingBlock: QUQFOY_clean_sbu_1, # of connection points: 4
#     Node 5, Type 0, BuildingBlock: QUQFOY_clean_sbu_1, # of connection points: 4
#     Node 6, Type 0, BuildingBlock: QUQFOY_clean_sbu_1, # of connection points: 4
#     Node 7, Type 0, BuildingBlock: QUQFOY_clean_sbu_1, # of connection points: 4
#     Node 8, Type 0, BuildingBlock: QUQFOY_clean_sbu_1, # of connection points: 4
#     Node 9, Type 0, BuildingBlock: QUQFOY_clean_sbu_1, # of connection points: 4
#     Node 10, Type 0, BuildingBlock: QUQFOY_clean_sbu_1, # of connection points: 4
#     Node 11, Type 0, BuildingBlock: QUQFOY_clean_sbu_1, # of connection points: 4
#     Node 12, Type 0, BuildingBlock: QUQFOY_clean_sbu_1, # of connection points: 4
#     Node 13, Type 0, BuildingBlock: QUQFOY_clean_sbu_1, # of connection points: 4
#     Node 14, Type 0, BuildingBlock: QUQFOY_clean_sbu_1, # of connection points: 4
#     Node 15, Type 0, BuildingBlock: QUQFOY_clean_sbu_1, # of connection points: 4
#     Edge 16, Type (0, 0), BuildingBlock: OJICUG_clean_linker_0, # of connection points: 2
#     Edge 17, Type (0, 0), BuildingBlock: OJICUG_clean_linker_0, # of connection points: 2
#     Edge 18, Type (0, 0), BuildingBlock: OJICUG_clean_linker_0, # of connection points: 2
#     Edge 19, Type (0, 0), BuildingBlock: OJICUG_clean_linker_0, # of connection points: 2
#     Edge 20, Type (0, 0), BuildingBlock: OJICUG_clean_linker_0, # of connection points: 2
#     Edge 21, Type (0, 0), BuildingBlock: OJICUG_clean_linker_0, # of connection points: 2
#     Edge 22, Type (0, 0), BuildingBlock: OJICUG_clean_linker_0, # of connection points: 2
#     Edge 23, Type (0, 0), BuildingBlock: OJICUG_clean_linker_0, # of connection points: 2
#     Edge 24, Type (0, 0), BuildingBlock: OJICUG_clean_linker_0, # of connection points: 2
#     Edge 25, Type (0, 0), BuildingBlock: OJICUG_clean_linker_0, # of connection points: 2
#     Edge 26, Type (0, 0), BuildingBlock: OJICUG_clean_linker_0, # of connection points: 2
#     Edge 27, Type (0, 0), BuildingBlock: OJICUG_clean_linker_0, # of connection points: 2
#     Edge 28, Type (0, 0), BuildingBlock: OJICUG_clean_linker_0, # of connection points: 2
#     Edge 29, Type (0, 0), BuildingBlock: OJICUG_clean_linker_0, # of connection points: 2
#     Edge 30, Type (0, 0), BuildingBlock: OJICUG_clean_linker_0, # of connection points: 2
#     Edge 31, Type (0, 0), BuildingBlock: OJICUG_clean_linker_0, # of connection points: 2
#     Edge 32, Type (0, 0), BuildingBlock: OJICUG_clean_linker_0, # of connection points: 2
#     Edge 33, Type (0, 0), BuildingBlock: OJICUG_clean_linker_0, # of connection points: 2
#     Edge 34, Type (0, 0), BuildingBlock: OJICUG_clean_linker_0, # of connection points: 2
#     Edge 35, Type (0, 0), BuildingBlock: OJICUG_clean_linker_0, # of connection points: 2
#     Edge 36, Type (0, 0), BuildingBlock: OJICUG_clean_linker_0, # of connection points: 2
#     Edge 37, Type (0, 0), BuildingBlock: OJICUG_clean_linker_0, # of connection points: 2
#     Edge 38, Type (0, 0), BuildingBlock: OJICUG_clean_linker_0, # of connection points: 2
#     Edge 39, Type (0, 0), BuildingBlock: OJICUG_clean_linker_0, # of connection points: 2
#     Edge 40, Type (0, 0), BuildingBlock: OJICUG_clean_linker_0, # of connection points: 2
#     Edge 41, Type (0, 0), BuildingBlock: OJICUG_clean_linker_0, # of connection points: 2
#     Edge 42, Type (0, 0), BuildingBlock: OJICUG_clean_linker_0, # of connection points: 2
#     Edge 43, Type (0, 0), BuildingBlock: OJICUG_clean_linker_0, # of connection points: 2
#     Edge 44, Type (0, 0), BuildingBlock: OJICUG_clean_linker_0, # of connection points: 2
#     Edge 45, Type (0, 0), BuildingBlock: OJICUG_clean_linker_0, # of connection points: 2
#     Edge 46, Type (0, 0), BuildingBlock: OJICUG_clean_linker_0, # of connection points: 2
#     Edge 47, Type (0, 0), BuildingBlock: OJICUG_clean_linker_0, # of connection points: 2
# Relax obj value: 0.058
# Max RMSD: 0.123
# Mean RMSD: 0.123
data_MOF--net-ume--node1-QUQFOY_clean_sbu_1--edge1-OJICUG_clean_linker_0
_symmetry_space_group_name_H-M    P1
_symmetry_Int_Tables_number       1
_symmetry_cell_setting            triclinic
loop_
_symmetry_equiv_pos_as_xyz
'x, y, z'
_cell_length_a     20.847292
_cell_length_b     20.850045
_cell_length_c     83.059621
_cell_angle_alpha  89.981998
_cell_angle_beta   90.016738
_cell_angle_gamma 90.033213
loop_
_atom_site_label
_atom_site_type_symbol
_atom_site_fract_x
_atom_site_fract_y
_atom_site_fract_z
_atom_type_partial_charge
O0 O 0.26657 0.11007 0.35614 0.0
Cd1 Cd 0.26113 0.08469 0.33228 0.0
Cd2 Cd 0.31953 0.1999 0.3306 0.0
O3 O 0.28995 0.21308 0.35436 0.0
O4 O 0.19626 1.01277 0.33129 0.0
O5 O 0.17865 0.10886 0.32112 0.0
C6 C 0.15739 0.05243 0.32444 0.0
C7 C 0.28349 0.24705 0.30689 0.0
C8 C 0.27514 0.1643 0.36284 0.0
C9 C 0.39979 0.08504 0.32301 0.0
O10 O 0.39952 0.1434 0.32748 0.0
O11 O 0.34733 0.0536 0.32217 0.0
O12 O 0.32518 0.27626 0.31582 0.0
O13 O 0.25886 0.1946 0.31229 0.0
O14 O 0.93311 0.76285 0.60584 0.0
Cd15 Cd 0.95913 0.75899 0.58199 0.0
Cd16 Cd 0.84388 0.81797 0.58039 0.0
O17 O 0.83041 0.78757 0.60407 0.0
O18 O 0.03119 0.69434 0.58092 0.0
O19 O 0.93541 0.67705 0.57052 0.0
C20 C 0.99177 0.65574 0.57387 0.0
C21 C 0.79745 0.78207 0.55656 0.0
C22 C 0.87889 0.77158 0.61252 0.0
C23 C 0.95916 0.89828 0.57312 0.0
O24 O 0.90064 0.89795 0.57747 0.0
O25 O 0.99052 0.84582 0.57224 0.0
O26 O 0.7679 0.82357 0.56547 0.0
O27 O 0.84984 0.75763 0.56204 0.0
O28 O 0.28011 0.4319 0.85597 0.0
Cd29 Cd 0.28363 0.45777 0.83211 0.0
Cd30 Cd 0.22426 0.34254 0.83065 0.0
O31 O 0.25474 0.32932 0.85433 0.0
O32 O 0.34831 0.52986 0.83095 0.0
O33 O 0.36541 0.43407 0.82057 0.0
C34 C 0.38679 0.49045 0.82388 0.0
C35 C 0.26 0.29573 0.80688 0.0
C36 C 0.27118 0.37781 0.86272 0.0
C37 C 0.14417 0.45784 0.82332 0.0
O38 O 0.14441 0.39935 0.8277 0.0
O39 O 0.1967 0.48915 0.82241 0.0
O40 O 0.21841 0.26639 0.81581 0.0
O41 O 0.28461 0.34814 0.8123 0.0
O42 O 0.61069 0.7806 0.10587 0.0
Cd43 Cd 0.58481 0.78458 0.08202 0.0
Cd44 Cd 0.7 0.72569 0.08046 0.0
O45 O 0.71342 0.756 0.10414 0.0
O46 O 0.51278 0.84925 0.08091 0.0
O47 O 0.6086 0.86654 0.07055 0.0
C48 C 0.55222 0.88785 0.07388 0.0
C49 C 0.74685 0.76136 0.05667 0.0
C50 C 0.6649 0.77188 0.11258 0.0
C51 C 0.58477 0.64534 0.07315 0.0
O52 O 0.64327 0.6457 0.07753 0.0
O53 O 0.5534 0.6978 0.07225 0.0
O54 O 0.77615 0.71983 0.06562 0.0
O55 O 0.69445 0.78599 0.06208 0.0
O56 O 0.27015 0.43484 0.93886 0.0
Cd57 Cd 0.2606 0.46054 0.96261 0.0
Cd58 Cd 0.31634 0.34547 0.96521 0.0
O59 O 0.28829 0.33099 0.94136 0.0
O60 O 0.19515 0.53194 0.96315 0.0
O61 O 0.17701 0.43545 0.97304 0.0
C62 C 0.15582 0.49186 0.9697 0.0
C63 C 0.2799 0.29876 0.98895 0.0
C64 C 0.27754 0.37979 0.93251 0.0
C65 C 0.39761 0.4597 0.97278 0.0
O66 O 0.39695 0.40127 0.96836 0.0
O67 O 0.34541 0.49155 0.9734 0.0
O68 O 0.32155 0.26936 0.98007 0.0
O69 O 0.25545 0.35118 0.98349 0.0
O70 O 0.6094 0.77058 0.18886 0.0
Cd71 Cd 0.58422 0.76148 0.21266 0.0
Cd72 Cd 0.69943 0.81771 0.21499 0.0
O73 O 0.71321 0.78953 0.19113 0.0
O74 O 0.51275 0.69603 0.21336 0.0
O75 O 0.60941 0.67804 0.22316 0.0
C76 C 0.55292 0.65679 0.21989 0.0
C77 C 0.74659 0.78126 0.23867 0.0
C78 C 0.66421 0.77823 0.18239 0.0
C79 C 0.58525 0.8987 0.22271 0.0
O80 O 0.64358 0.89815 0.21822 0.0
O81 O 0.55344 0.84644 0.22341 0.0
O82 O 0.77584 0.82297 0.22975 0.0
O83 O 0.69407 0.75678 0.23326 0.0
O84 O 0.2765 0.1093 0.43926 0.0
Cd85 Cd 0.28405 0.0841 0.46309 0.0
Cd86 Cd 0.22691 0.19928 0.46512 0.0
O87 O 0.25594 0.21284 0.44132 0.0
O88 O 0.34919 1.01245 0.46399 0.0
O89 O 0.36705 0.10893 0.4739 0.0
C90 C 0.38824 0.05243 0.47067 0.0
C91 C 0.26323 0.24596 0.48887 0.0
C92 C 0.26852 0.16387 0.43269 0.0
C93 C 0.14609 0.08472 0.4727 0.0
O94 O 0.14658 0.14308 0.46821 0.0
O95 O 0.19844 0.05316 0.47352 0.0
O96 O 0.22167 0.27545 0.47997 0.0
O97 O 0.28757 0.1935 0.48342 0.0
O98 O 0.93456 0.77263 0.68877 0.0
Cd99 Cd 0.95989 0.78183 0.71256 0.0
Cd100 Cd 0.8447 0.72564 0.71495 0.0
O101 O 0.83073 0.75386 0.69109 0.0
O102 O 0.03135 0.8473 0.71323 0.0
O103 O 0.93473 0.8653 0.72304 0.0
C104 C 0.99121 0.88654 0.71976 0.0
C105 C 0.79789 0.76211 0.73866 0.0
C106 C 0.87969 0.76505 0.68233 0.0
C107 C 0.95891 0.64464 0.72265 0.0
O108 O 0.90056 0.64518 0.71815 0.0
O109 O 0.99071 0.6969 0.72333 0.0
O110 O 0.76847 0.72044 0.72977 0.0
O111 O 0.85036 0.78653 0.73322 0.0
O112 O 0.76255 0.61187 0.85584 0.0
Cd113 Cd 0.759 0.58585 0.83199 0.0
Cd114 Cd 0.81826 0.70103 0.83046 0.0
O115 O 0.78765 0.7145 0.85412 0.0
O116 O 0.69433 0.51375 0.83088 0.0
O117 O 0.67717 0.60947 0.82045 0.0
C118 C 0.65581 0.55312 0.8238 0.0
C119 C 0.7827 0.74759 0.80663 0.0
C120 C 0.77133 0.66605 0.86254 0.0
C121 C 0.89844 0.58573 0.82324 0.0
O122 O 0.89817 0.64423 0.8276 0.0
O123 O 0.84591 0.55442 0.82232 0.0
O124 O 0.8242 0.77704 0.81557 0.0
O125 O 0.75805 0.69522 0.81207 0.0
O126 O 0.43171 0.26388 0.106 0.0
Cd127 Cd 0.45725 0.26007 0.08211 0.0
Cd128 Cd 0.342 0.31908 0.08068 0.0
O129 O 0.32898 0.28859 0.10437 0.0
O130 O 0.52928 0.19543 0.08094 0.0
O131 O 0.43331 0.17816 0.07065 0.0
C132 C 0.48974 0.15685 0.07393 0.0
C133 C 0.29497 0.28347 0.05691 0.0
C134 C 0.37763 0.27258 0.11275 0.0
C135 C 0.45713 0.39938 0.07327 0.0
O136 O 0.39872 0.39904 0.07771 0.0
O137 O 0.48846 0.34692 0.07233 0.0
O138 O 0.26571 0.32495 0.06587 0.0
O139 O 0.34742 0.25884 0.0623 0.0
O140 O 0.7769 0.93338 0.35609 0.0
Cd141 Cd 0.78395 0.95854 0.33224 0.0
Cd142 Cd 0.72644 0.84342 0.33033 0.0
O143 O 0.75566 0.82994 0.35411 0.0
O144 O 0.84912 0.03023 0.3313 0.0
O145 O 0.86675 0.93382 0.32134 0.0
C146 C 0.88804 0.99032 0.32456 0.0
C147 C 0.76232 0.79632 0.3066 0.0
C148 C 0.76875 0.8789 0.3627 0.0
C149 C 0.64579 0.95807 0.32276 0.0
O150 O 0.64622 0.89971 0.32724 0.0
O151 O 0.69819 0.98959 0.32191 0.0
O152 O 0.72072 0.76709 0.31555 0.0
O153 O 0.78697 0.84877 0.31199 0.0
O154 O 0.11232 0.27959 0.60594 0.0
Cd155 Cd 0.0867 0.2835 0.58207 0.0
Cd156 Cd 0.20201 0.22451 0.58062 0.0
O157 O 0.21506 0.25495 0.60431 0.0
O158 O 1.01463 0.34812 0.5809 0.0
O159 O 0.11059 0.36547 0.57063 0.0
C160 C 0.05417 0.38675 0.57391 0.0
C161 C 0.24869 0.26047 0.55683 0.0
C162 C 0.16643 0.27091 0.6127 0.0
C163 C 0.08688 0.1442 0.57321 0.0
O164 O 0.1453 0.14453 0.57765 0.0
O165 O 0.05553 0.19666 0.57228 0.0
O166 O 0.27817 0.21898 0.56576 0.0
O167 O 0.19622 0.28486 0.56227 0.0
O168 O 0.7672 0.93303 0.43923 0.0
Cd169 Cd 0.7614 0.95838 0.46309 0.0
Cd170 Cd 0.81948 0.84312 0.46483 0.0
O171 O 0.78994 0.82991 0.44107 0.0
O172 O 0.69657 0.03029 0.46403 0.0
O173 O 0.67875 0.93412 0.47414 0.0
C174 C 0.65758 0.99057 0.47083 0.0
C175 C 0.78314 0.79645 0.48858 0.0
C176 C 0.77556 0.87874 0.43256 0.0
C177 C 0.89993 0.95788 0.47246 0.0
O178 O 0.89958 0.89955 0.46796 0.0
O179 O 0.84752 0.98934 0.47329 0.0
O180 O 0.82472 0.76695 0.47969 0.0
O181 O 0.75878 0.84889 0.48312 0.0
O182 O 0.10951 0.27018 0.68889 0.0
Cd183 Cd 0.08386 0.26101 0.71266 0.0
Cd184 Cd 0.19899 0.31717 0.71514 0.0
O185 O 0.21332 0.28889 0.69131 0.0
O186 O 1.01239 0.19555 0.71325 0.0
O187 O 0.10887 0.17753 0.72316 0.0
C188 C 0.05244 0.15629 0.71982 0.0
C189 C 0.24551 0.28076 0.73891 0.0
C190 C 0.16448 0.27771 0.6825 0.0
C191 C 0.08471 0.3982 0.72272 0.0
O192 O 0.14311 0.39765 0.71827 0.0
O193 O 0.0529 0.34593 0.72338 0.0
O194 O 0.27504 0.3224 0.73003 0.0
O195 O 0.1931 0.25632 0.73343 0.0
O196 O 0.77184 0.60985 0.93874 0.0
Cd197 Cd 0.78132 0.58438 0.96251 0.0
Cd198 Cd 0.7255 0.69951 0.96499 0.0
O199 O 0.75365 0.71371 0.94114 0.0
O200 O 0.84675 0.51296 0.96313 0.0
O201 O 0.86492 0.60956 0.97294 0.0
C202 C 0.88609 0.5531 0.96965 0.0
C203 C 0.76194 0.7463 0.98872 0.0
C204 C 0.76446 0.66481 0.93234 0.0
C205 C 0.64428 0.58536 0.97266 0.0
O206 O 0.64491 0.64372 0.96818 0.0
O207 O 0.69649 0.55354 0.97333 0.0
O208 O 0.72031 0.7757 0.97981 0.0
O209 O 0.78638 0.69386 0.98328 0.0
O210 O 0.43465 0.27328 0.18896 0.0
Cd211 Cd 0.46029 0.28237 0.21273 0.0
Cd212 Cd 0.34518 0.22621 0.2152 0.0
O213 O 0.33086 0.25449 0.19136 0.0
O214 O 0.53174 0.34784 0.21335 0.0
O215 O 0.43526 0.36578 0.22325 0.0
C216 C 0.49168 0.38705 0.21993 0.0
C217 C 0.29842 0.26247 0.23894 0.0
C218 C 0.37969 0.26573 0.18256 0.0
C219 C 0.45948 0.14516 0.22279 0.0
O220 O 0.40107 0.14573 0.21835 0.0
O221 O 0.4913 0.19741 0.22345 0.0
O222 O 0.26903 0.22081 0.23004 0.0
O223 O 0.35083 0.28701 0.2335 0.0
C224 C 1.00285 0.95734 0.3217 0.0
C225 C 0.95656 1.0064 0.32215 0.0
H226 H 0.1029 0.93336 0.32225 0.0
C227 C 0.97707 0.07053 0.32177 0.0
H228 H 0.98853 0.9074 0.32205 0.0
C229 C 0.04257 0.0853 0.32151 0.0
C230 C 0.08887 0.03626 0.32205 0.0
H231 H 0.94252 0.1093 0.32208 0.0
H232 H 0.05689 0.13525 0.32173 0.0
C233 C 0.06836 0.97212 0.32186 0.0
C234 C 0.07216 0.567 0.5711 0.0
C235 C 1.00799 0.58735 0.57135 0.0
H236 H 0.13696 0.48732 0.57121 0.0
C237 C 0.95898 0.54097 0.57081 0.0
H238 H 0.11088 0.60163 0.57149 0.0
C239 C 0.97382 0.4755 0.57104 0.0
C240 C 0.03798 0.45515 0.57137 0.0
H241 H 0.90902 0.55518 0.57108 0.0
H242 H 0.93509 0.44087 0.57139 0.0
C243 C 0.087 0.50153 0.57089 0.0
C244 C 0.56703 0.47267 0.82099 0.0
C245 C 0.5874 0.53684 0.82127 0.0
H246 H 0.48734 0.40779 0.82111 0.0
C247 C 0.54102 0.5858 0.82075 0.0
H248 H 0.60167 0.43398 0.82136 0.0
C249 C 0.47554 0.57089 0.82099 0.0
C250 C 0.45517 0.50672 0.82131 0.0
H251 H 0.55524 0.63577 0.82103 0.0
H252 H 0.44091 0.60958 0.82136 0.0
C253 C 0.50155 0.45775 0.82079 0.0
C254 C 0.57011 0.06812 0.07106 0.0
C255 C 0.50595 0.08846 0.07138 0.0
H256 H 0.63495 0.98846 0.07111 0.0
C257 C 0.45694 0.04206 0.07088 0.0
H258 H 0.60884 0.10276 0.07142 0.0
C259 C 0.47182 0.97659 0.07108 0.0
C260 C 0.53599 0.95625 0.07136 0.0
H261 H 0.40698 0.05625 0.0712 0.0
H262 H 0.4331 0.94195 0.07146 0.0
C263 C 0.58498 1.00266 0.07083 0.0
C264 C 0.0665 0.57184 0.97209 0.0
C265 C 0.08715 0.50777 0.97186 0.0
H266 H 0.98653 0.6363 0.97201 0.0
C267 C 0.04095 0.45857 0.97233 0.0
H268 H 0.10096 0.61073 0.97176 0.0
C269 C 0.97541 0.47313 0.97211 0.0
C270 C 0.95476 0.5372 0.97184 0.0
H271 H 0.05538 0.40868 0.97209 0.0
H272 H 0.94095 0.43425 0.97181 0.0
C273 C 1.00096 0.58641 0.97228 0.0
C274 C 0.57168 0.47644 0.22236 0.0
C275 C 0.5076 0.45572 0.22213 0.0
H276 H 0.63615 0.55647 0.22227 0.0
C277 C 0.45839 0.50185 0.22261 0.0
H278 H 0.61057 0.44203 0.22202 0.0
C279 C 0.47296 0.5674 0.2224 0.0
C280 C 0.53703 0.58812 0.22212 0.0
H281 H 0.40849 0.48736 0.22238 0.0
H282 H 0.43406 0.60181 0.22209 0.0
C283 C 0.58625 0.54199 0.22256 0.0
C284 C 0.47726 0.9723 0.47343 0.0
C285 C 0.45677 0.0364 0.47306 0.0
H286 H 0.55706 0.90765 0.47349 0.0
C287 C 0.50307 0.08552 0.47351 0.0
H288 H 0.4427 0.93349 0.47312 0.0
C289 C 0.56857 0.0708 0.47336 0.0
C290 C 0.58906 1.00668 0.47317 0.0
H291 H 0.48876 0.13544 0.47316 0.0
H292 H 0.60313 0.10959 0.47297 0.0
C293 C 0.54276 0.95759 0.4737 0.0
C294 C 0.08573 0.04148 0.72249 0.0
C295 C 0.03652 0.08761 0.72201 0.0
H296 H 0.11007 0.94152 0.72196 0.0
C297 C 0.97245 0.06689 0.72223 0.0
H298 H 0.13564 0.05597 0.72226 0.0
C299 C 0.95788 1.00134 0.72242 0.0
C300 C 1.0071 0.95521 0.72198 0.0
H301 H 0.93356 0.1013 0.72189 0.0
H302 H 0.90798 0.98685 0.72213 0.0
C303 C 0.07117 0.97593 0.72227 0.0
C304 C 0.52596 0.95468 0.31974 0.0
C305 C 0.58321 0.99055 0.32014 0.0
H306 H 0.42321 0.95617 0.32008 0.0
C307 C 0.57926 0.05779 0.31963 0.0
H308 H 0.52719 0.90275 0.32 0.0
C309 C 0.51952 0.08841 0.31977 0.0
C310 C 0.46229 0.05255 0.32029 0.0
H311 H 0.62228 0.08693 0.31989 0.0
H312 H 0.51831 0.14034 0.32005 0.0
C313 C 0.46621 0.98531 0.31974 0.0
C314 C 0.05914 0.96467 0.57013 0.0
C315 C 0.99188 0.96083 0.57059 0.0
H316 H 0.14187 0.02549 0.57052 0.0
C317 C 0.95617 1.01812 0.57011 0.0
H318 H 0.08817 0.92161 0.57044 0.0
C319 C 0.98696 0.07782 0.57006 0.0
C320 C 0.05421 0.08166 0.57063 0.0
H321 H 0.90423 1.01699 0.57033 0.0
H322 H 0.95793 0.12087 0.57033 0.0
C323 C 0.08993 0.02436 0.57022 0.0
C324 C 0.02431 0.45491 0.82032 0.0
C325 C 0.08168 0.49058 0.82077 0.0
H326 H 0.92155 0.45674 0.82051 0.0
C327 C 0.07796 0.55783 0.82024 0.0
H328 H 0.02534 0.40298 0.82058 0.0
C329 C 1.01832 0.58866 0.82029 0.0
C330 C 0.96095 0.55299 0.82073 0.0
H331 H 0.12108 0.58682 0.82054 0.0
H332 H 1.01728 0.64059 0.82054 0.0
C333 C 0.96466 0.48574 0.82023 0.0
C334 C 0.5878 0.5255 0.07016 0.0
C335 C 0.55207 0.58278 0.07062 0.0
H336 H 0.58608 0.42275 0.07041 0.0
C337 C 0.48481 0.57892 0.07015 0.0
H338 H 0.63974 0.52665 0.07039 0.0
C339 C 0.45404 0.51921 0.07025 0.0
C340 C 0.48978 0.46193 0.07068 0.0
H341 H 0.45577 0.62196 0.07045 0.0
H342 H 0.40211 0.51806 0.07054 0.0
C343 C 0.55703 0.46579 0.07013 0.0
C344 C 0.46466 0.55908 0.97602 0.0
C345 C 0.46031 0.49186 0.97552 0.0
H346 H 0.52612 0.64132 0.97561 0.0
C347 C 0.51732 0.45571 0.97602 0.0
H348 H 0.42183 0.58844 0.9757 0.0
C349 C 0.57726 0.48603 0.97605 0.0
C350 C 0.5816 0.55324 0.97545 0.0
H351 H 0.51579 0.40379 0.97578 0.0
H352 H 0.62008 0.45667 0.97575 0.0
C353 C 0.52459 0.5894 0.97593 0.0
C354 C 0.48588 0.96558 0.22608 0.0
C355 C 0.5531 0.96133 0.22549 0.0
H356 H 0.40361 0.02692 0.22578 0.0
C357 C 0.58925 1.01838 0.22597 0.0
H358 H 0.45653 0.92271 0.22578 0.0
C359 C 0.55891 0.07827 0.22605 0.0
C360 C 0.49168 0.08252 0.22553 0.0
H361 H 0.64118 1.01692 0.22566 0.0
H362 H 0.58826 0.12113 0.22572 0.0
C363 C 0.45554 0.02546 0.22603 0.0
C364 C 0.9665 0.05757 0.47575 0.0
C365 C 0.96247 0.99034 0.47519 0.0
H366 H 0.02759 0.1401 0.4755 0.0
C367 C 1.01965 0.95444 0.47571 0.0
H368 H 0.92353 0.08672 0.47541 0.0
C369 C 0.07943 0.98504 0.47585 0.0
C370 C 0.08348 0.05228 0.47534 0.0
H371 H 1.01836 0.90252 0.47543 0.0
H372 H 0.1224 0.95588 0.47559 0.0
C373 C 0.02629 0.08817 0.47576 0.0
C374 C 0.08865 0.51789 0.72595 0.0
C375 C 0.05252 0.46083 0.72546 0.0
H376 H 0.08765 0.62063 0.7257 0.0
C377 C 0.98529 0.46507 0.72598 0.0
H378 H 0.14058 0.51643 0.7257 0.0
C379 C 0.95494 0.52495 0.7259 0.0
C380 C 0.99108 0.58201 0.72543 0.0
H381 H 0.95595 0.4222 0.72566 0.0
H382 H 0.90301 0.5264 0.7256 0.0
C383 C 0.0583 0.57777 0.726 0.0
C384 C 0.27643 0.22549 0.38933 0.0
C385 C 0.27146 0.16752 0.3807 0.0
H386 H 0.27896 0.27045 0.4127 0.0
C387 C 0.26496 0.11 0.38937 0.0
H388 H 0.28155 0.27064 0.38301 0.0
C389 C 0.26444 0.10984 0.40608 0.0
C390 C 0.26971 0.16724 0.41483 0.0
H391 H 0.26104 0.06426 0.38326 0.0
H392 H 0.25947 0.06409 0.41215 0.0
C393 C 0.27504 0.22539 0.4063 0.0
C394 C 0.81801 0.77583 0.63904 0.0
C395 C 0.87539 0.76672 0.63036 0.0
H396 H 0.7737 0.78206 0.66245 0.0
C397 C 0.93227 0.75544 0.63899 0.0
H398 H 0.77335 0.78462 0.63276 0.0
C399 C 0.93257 0.75495 0.65571 0.0
C400 C 0.87592 0.76498 0.66449 0.0
H401 H 0.9775 0.74796 0.63286 0.0
H402 H 0.97784 0.74649 0.66176 0.0
C403 C 0.81819 0.77446 0.65601 0.0
C404 C 0.26591 0.31748 0.88931 0.0
C405 C 0.2763 0.37449 0.88056 0.0
H406 H 0.25852 0.27378 0.91278 0.0
C407 C 0.28897 0.43125 0.88911 0.0
H408 H 0.25603 0.27292 0.88309 0.0
C409 C 0.28942 0.43185 0.90583 0.0
C410 C 0.27795 0.37561 0.91468 0.0
H411 H 0.29754 0.47617 0.88292 0.0
H412 H 0.29891 0.477 0.91183 0.0
C413 C 0.26723 0.31795 0.90627 0.0
C414 C 0.61134 0.78707 0.13905 0.0
C415 C 0.66834 0.77655 0.13042 0.0
H416 H 0.56572 0.79542 0.16182 0.0
C417 C 0.72583 0.76805 0.1391 0.0
H418 H 0.56601 0.79402 0.13291 0.0
C419 C 0.72567 0.76936 0.15606 0.0
C420 C 0.66787 0.77817 0.16455 0.0
H421 H 0.77059 0.75983 0.13282 0.0
H422 H 0.77028 0.7623 0.16251 0.0
C423 C 0.61107 0.78752 0.15577 0.0
C424 C 0.75362 0.61283 0.88897 0.0
C425 C 0.76614 0.66955 0.88038 0.0
H426 H 0.74366 0.56729 0.91172 0.0
C427 C 0.77625 0.72668 0.88909 0.0
H428 H 0.74526 0.56781 0.88281 0.0
C429 C 0.7748 0.72639 0.90605 0.0
C430 C 0.76422 0.66879 0.9145 0.0
H431 H 0.786 0.77121 0.88284 0.0
H432 H 0.78329 0.77067 0.91253 0.0
C433 C 0.75303 0.61242 0.90569 0.0
C434 C 0.31773 0.27511 0.15631 0.0
C435 C 0.37563 0.2658 0.16472 0.0
H436 H 0.27243 0.28519 0.13312 0.0
C437 C 0.43218 0.25604 0.15588 0.0
H438 H 0.27332 0.2825 0.1628 0.0
C439 C 0.43158 0.25662 0.13916 0.0
C440 C 0.37449 0.26769 0.1306 0.0
H441 H 0.47758 0.24774 0.16188 0.0
H442 H 0.47672 0.24934 0.13297 0.0
C443 C 0.31724 0.27655 0.13934 0.0
C444 C 0.76649 0.9332 0.38929 0.0
C445 C 0.77032 0.87565 0.38056 0.0
H446 H 0.76421 0.97896 0.4121 0.0
C447 C 0.77443 0.81744 0.38912 0.0
H448 H 0.76254 0.97902 0.38321 0.0
C449 C 0.77587 0.81741 0.40608 0.0
C450 C 0.77216 0.87551 0.4147 0.0
H451 H 0.77725 0.77227 0.38273 0.0
H452 H 0.77992 0.77219 0.41242 0.0
C453 C 0.76705 0.93312 0.40601 0.0
C454 C 0.22641 0.26834 0.65625 0.0
C455 C 0.16853 0.27767 0.66466 0.0
H456 H 0.27167 0.25825 0.63306 0.0
C457 C 0.11197 0.28745 0.65581 0.0
H458 H 0.27083 0.26093 0.66275 0.0
C459 C 0.11254 0.28688 0.6391 0.0
C460 C 0.16961 0.27578 0.63054 0.0
H461 H 0.06658 0.29577 0.66181 0.0
H462 H 0.06739 0.29417 0.63291 0.0
C463 C 0.22688 0.2669 0.63929 0.0
C464 C 0.3129 0.31118 0.28247 0.0
C465 C 0.27277 0.26578 0.28987 0.0
H466 H 0.35161 0.3467 0.26035 0.0
C467 C 0.23079 0.22963 0.28017 0.0
H468 H 0.34547 0.34012 0.28958 0.0
C469 C 0.23431 0.23332 0.26337 0.0
C470 C 0.27993 0.27319 0.25597 0.0
H471 H 0.1987 0.19467 0.2855 0.0
H472 H 0.20506 0.20102 0.25627 0.0
C473 C 0.31647 0.31482 0.26567 0.0
C474 C 0.73036 0.81454 0.51525 0.0
C475 C 0.77224 0.77807 0.50561 0.0
H476 H 0.70458 0.84365 0.53911 0.0
C477 C 0.81214 0.73269 0.51309 0.0
H478 H 0.69846 0.84949 0.50987 0.0
C479 C 0.81556 0.72934 0.52989 0.0
C480 C 0.77911 0.77124 0.53953 0.0
H481 H 0.84464 0.70352 0.50603 0.0
H482 H 0.85052 0.69743 0.53527 0.0
C483 C 0.73374 0.81113 0.53206 0.0
C484 C 0.30944 0.30972 0.76339 0.0
C485 C 0.26383 0.26994 0.75595 0.0
H486 H 0.34493 0.34819 0.78554 0.0
C487 C 0.22715 0.22831 0.76562 0.0
H488 H 0.33878 0.34201 0.75631 0.0
C489 C 0.2306 0.23186 0.78243 0.0
C490 C 0.27073 0.27715 0.78986 0.0
H491 H 0.19201 0.19651 0.76027 0.0
H492 H 0.19793 0.20291 0.78951 0.0
C493 C 0.31283 0.31331 0.78019 0.0
C494 C 0.73293 0.8104 1.01315 0.0
C495 C 0.77274 0.76479 1.00574 0.0
H496 H 0.69439 0.84602 0.03527 0.0
C497 C 0.81437 0.72827 1.01545 0.0
H498 H 0.70063 0.83963 1.00604 0.0
C499 C 0.81079 0.73186 0.03225 0.0
C500 C 0.76546 0.77199 0.03965 0.0
H501 H 0.8462 0.69313 1.01012 0.0
H502 H 0.83974 0.6993 0.03935 0.0
C503 C 0.7293 0.81393 0.02994 0.0
C504 C 0.31236 0.23093 0.03019 0.0
C505 C 0.2763 0.27294 0.03988 0.0
H506 H 0.34098 0.20523 1.00629 0.0
C507 C 0.23109 0.31322 0.03248 0.0
H508 H 0.34717 0.19872 0.03552 0.0
C509 C 0.22754 0.31688 1.01568 0.0
C510 C 0.26908 0.28027 1.00598 0.0
H511 H 0.20223 0.34583 0.03958 0.0
H512 H 0.19581 0.35212 1.01035 0.0
C513 C 0.30875 0.23453 1.01339 0.0
C514 C 0.81475 0.81386 0.27986 0.0
C515 C 0.77289 0.77764 0.28958 0.0
H516 H 0.84018 0.84262 0.25595 0.0
C517 C 0.73272 0.73225 0.28219 0.0
H518 H 0.84687 0.84881 0.28517 0.0
C519 C 0.72896 0.72869 0.2654 0.0
C520 C 0.76535 0.77041 0.25568 0.0
H521 H 0.70024 0.70325 0.28931 0.0
H522 H 0.69377 0.69682 0.26009 0.0
C523 C 0.81104 0.81025 0.26306 0.0
C524 C 0.23427 0.30982 0.51334 0.0
C525 C 0.27412 0.26437 0.5059 0.0
H526 H 0.19586 0.34519 0.53551 0.0
C527 C 0.31593 0.22788 0.51556 0.0
H528 H 0.20183 0.33902 0.50627 0.0
C529 C 0.31251 0.23133 0.53236 0.0
C530 C 0.26715 0.27129 0.53981 0.0
H531 H 0.34781 0.19287 0.5102 0.0
H532 H 0.3416 0.19879 0.53944 0.0
C533 C 0.2308 0.31323 0.53015 0.0
C534 C 0.73377 0.73319 0.76311 0.0
C535 C 0.77937 0.773 0.75568 0.0
H536 H 0.69811 0.6948 0.78525 0.0
C537 C 0.81587 0.81476 0.76536 0.0
H538 H 0.70456 0.70079 0.75602 0.0
C539 C 0.81226 0.81133 0.78216 0.0
C540 C 0.77212 0.76602 0.78959 0.0
H541 H 0.85101 0.8466 0.76001 0.0
H542 H 0.84479 0.84039 0.78925 0.0
C543 C 0.7302 0.72971 0.77991 0.0
loop_
_geom_bond_atom_site_label_1
_geom_bond_atom_site_label_2
_geom_bond_distance
_geom_bond_site_symmetry_2
_ccdc_geom_bond_type
O0 Cd1 2.223 . S
O0 C8 1.315 . S
Cd1 O0 2.223 . S
Cd1 O4 2.297 . S
Cd1 O5 2.439 . S
Cd1 O11 2.240 . S
Cd2 O3 2.240 . S
Cd2 O10 2.223 . S
Cd2 O12 2.297 . S
Cd2 O13 2.439 . S
O3 Cd2 2.240 . S
O3 C8 1.279 . S
O4 Cd1 2.297 . S
O4 C6 1.247 . S
O5 Cd1 2.439 . S
O5 C6 1.208 . S
C6 O4 1.247 . S
C6 O5 1.208 . S
C7 O12 1.247 . S
C7 O13 1.208 . S
C8 O0 1.315 . S
C8 O3 1.279 . S
C9 O10 1.315 . S
C9 O11 1.279 . S
O10 Cd2 2.223 . S
O10 C9 1.315 . S
O11 Cd1 2.240 . S
O11 C9 1.279 . S
O12 Cd2 2.297 . S
O12 C7 1.247 . S
O13 Cd2 2.439 . S
O13 C7 1.208 . S
O14 Cd15 2.223 . S
O14 C22 1.315 . S
Cd15 O14 2.223 . S
Cd15 O18 2.297 . S
Cd15 O19 2.439 . S
Cd15 O25 2.240 . S
Cd16 O17 2.240 . S
Cd16 O24 2.223 . S
Cd16 O26 2.297 . S
Cd16 O27 2.439 . S
O17 Cd16 2.240 . S
O17 C22 1.279 . S
O18 Cd15 2.297 . S
O18 C20 1.247 . S
O19 Cd15 2.439 . S
O19 C20 1.208 . S
C20 O18 1.247 . S
C20 O19 1.208 . S
C21 O26 1.247 . S
C21 O27 1.208 . S
C22 O14 1.315 . S
C22 O17 1.279 . S
C23 O24 1.315 . S
C23 O25 1.279 . S
O24 Cd16 2.223 . S
O24 C23 1.315 . S
O25 Cd15 2.240 . S
O25 C23 1.279 . S
O26 Cd16 2.297 . S
O26 C21 1.247 . S
O27 Cd16 2.439 . S
O27 C21 1.208 . S
O28 Cd29 2.223 . S
O28 C36 1.315 . S
Cd29 O28 2.223 . S
Cd29 O32 2.297 . S
Cd29 O33 2.439 . S
Cd29 O39 2.240 . S
Cd30 O31 2.240 . S
Cd30 O38 2.223 . S
Cd30 O40 2.297 . S
Cd30 O41 2.439 . S
O31 Cd30 2.240 . S
O31 C36 1.279 . S
O32 Cd29 2.297 . S
O32 C34 1.247 . S
O33 Cd29 2.439 . S
O33 C34 1.208 . S
C34 O32 1.247 . S
C34 O33 1.208 . S
C35 O40 1.247 . S
C35 O41 1.208 . S
C36 O28 1.315 . S
C36 O31 1.279 . S
C37 O38 1.315 . S
C37 O39 1.279 . S
O38 Cd30 2.223 . S
O38 C37 1.315 . S
O39 Cd29 2.240 . S
O39 C37 1.279 . S
O40 Cd30 2.297 . S
O40 C35 1.247 . S
O41 Cd30 2.439 . S
O41 C35 1.208 . S
O42 Cd43 2.223 . S
O42 C50 1.315 . S
Cd43 O42 2.223 . S
Cd43 O46 2.297 . S
Cd43 O47 2.439 . S
Cd43 O53 2.240 . S
Cd44 O45 2.240 . S
Cd44 O52 2.223 . S
Cd44 O54 2.297 . S
Cd44 O55 2.439 . S
O45 Cd44 2.240 . S
O45 C50 1.279 . S
O46 Cd43 2.297 . S
O46 C48 1.247 . S
O47 Cd43 2.439 . S
O47 C48 1.208 . S
C48 O46 1.247 . S
C48 O47 1.208 . S
C49 O54 1.247 . S
C49 O55 1.208 . S
C50 O42 1.315 . S
C50 O45 1.279 . S
C51 O52 1.315 . S
C51 O53 1.279 . S
O52 Cd44 2.223 . S
O52 C51 1.315 . S
O53 Cd43 2.240 . S
O53 C51 1.279 . S
O54 Cd44 2.297 . S
O54 C49 1.247 . S
O55 Cd44 2.439 . S
O55 C49 1.208 . S
O56 Cd57 2.223 . S
O56 C64 1.315 . S
Cd57 O56 2.223 . S
Cd57 O60 2.297 . S
Cd57 O61 2.439 . S
Cd57 O67 2.240 . S
Cd58 O59 2.240 . S
Cd58 O66 2.223 . S
Cd58 O68 2.297 . S
Cd58 O69 2.439 . S
O59 Cd58 2.240 . S
O59 C64 1.279 . S
O60 Cd57 2.297 . S
O60 C62 1.247 . S
O61 Cd57 2.439 . S
O61 C62 1.208 . S
C62 O60 1.247 . S
C62 O61 1.208 . S
C63 O68 1.247 . S
C63 O69 1.208 . S
C64 O56 1.315 . S
C64 O59 1.279 . S
C65 O66 1.315 . S
C65 O67 1.279 . S
O66 Cd58 2.223 . S
O66 C65 1.315 . S
O67 Cd57 2.240 . S
O67 C65 1.279 . S
O68 Cd58 2.297 . S
O68 C63 1.247 . S
O69 Cd58 2.439 . S
O69 C63 1.208 . S
O70 Cd71 2.223 . S
O70 C78 1.315 . S
Cd71 O70 2.223 . S
Cd71 O74 2.297 . S
Cd71 O75 2.439 . S
Cd71 O81 2.240 . S
Cd72 O73 2.240 . S
Cd72 O80 2.223 . S
Cd72 O82 2.297 . S
Cd72 O83 2.439 . S
O73 Cd72 2.240 . S
O73 C78 1.279 . S
O74 Cd71 2.297 . S
O74 C76 1.247 . S
O75 Cd71 2.439 . S
O75 C76 1.208 . S
C76 O74 1.247 . S
C76 O75 1.208 . S
C77 O82 1.247 . S
C77 O83 1.208 . S
C78 O70 1.315 . S
C78 O73 1.279 . S
C79 O80 1.315 . S
C79 O81 1.279 . S
O80 Cd72 2.223 . S
O80 C79 1.315 . S
O81 Cd71 2.240 . S
O81 C79 1.279 . S
O82 Cd72 2.297 . S
O82 C77 1.247 . S
O83 Cd72 2.439 . S
O83 C77 1.208 . S
O84 Cd85 2.223 . S
O84 C92 1.315 . S
Cd85 O84 2.223 . S
Cd85 O88 2.297 . S
Cd85 O89 2.439 . S
Cd85 O95 2.240 . S
Cd86 O87 2.240 . S
Cd86 O94 2.223 . S
Cd86 O96 2.297 . S
Cd86 O97 2.439 . S
O87 Cd86 2.240 . S
O87 C92 1.279 . S
O88 Cd85 2.297 . S
O88 C90 1.247 . S
O89 Cd85 2.439 . S
O89 C90 1.208 . S
C90 O88 1.247 . S
C90 O89 1.208 . S
C91 O96 1.247 . S
C91 O97 1.208 . S
C92 O84 1.315 . S
C92 O87 1.279 . S
C93 O94 1.315 . S
C93 O95 1.279 . S
O94 Cd86 2.223 . S
O94 C93 1.315 . S
O95 Cd85 2.240 . S
O95 C93 1.279 . S
O96 Cd86 2.297 . S
O96 C91 1.247 . S
O97 Cd86 2.439 . S
O97 C91 1.208 . S
O98 Cd99 2.223 . S
O98 C106 1.315 . S
Cd99 O98 2.223 . S
Cd99 O102 2.297 . S
Cd99 O103 2.439 . S
Cd99 O109 2.240 . S
Cd100 O101 2.240 . S
Cd100 O108 2.223 . S
Cd100 O110 2.297 . S
Cd100 O111 2.439 . S
O101 Cd100 2.240 . S
O101 C106 1.279 . S
O102 Cd99 2.297 . S
O102 C104 1.247 . S
O103 Cd99 2.439 . S
O103 C104 1.208 . S
C104 O102 1.247 . S
C104 O103 1.208 . S
C105 O110 1.247 . S
C105 O111 1.208 . S
C106 O98 1.315 . S
C106 O101 1.279 . S
C107 O108 1.315 . S
C107 O109 1.279 . S
O108 Cd100 2.223 . S
O108 C107 1.315 . S
O109 Cd99 2.240 . S
O109 C107 1.279 . S
O110 Cd100 2.297 . S
O110 C105 1.247 . S
O111 Cd100 2.439 . S
O111 C105 1.208 . S
O112 Cd113 2.223 . S
O112 C120 1.315 . S
Cd113 O112 2.223 . S
Cd113 O116 2.297 . S
Cd113 O117 2.439 . S
Cd113 O123 2.240 . S
Cd114 O115 2.240 . S
Cd114 O122 2.223 . S
Cd114 O124 2.297 . S
Cd114 O125 2.439 . S
O115 Cd114 2.240 . S
O115 C120 1.279 . S
O116 Cd113 2.297 . S
O116 C118 1.247 . S
O117 Cd113 2.439 . S
O117 C118 1.208 . S
C118 O116 1.247 . S
C118 O117 1.208 . S
C119 O124 1.247 . S
C119 O125 1.208 . S
C120 O112 1.315 . S
C120 O115 1.279 . S
C121 O122 1.315 . S
C121 O123 1.279 . S
O122 Cd114 2.223 . S
O122 C121 1.315 . S
O123 Cd113 2.240 . S
O123 C121 1.279 . S
O124 Cd114 2.297 . S
O124 C119 1.247 . S
O125 Cd114 2.439 . S
O125 C119 1.208 . S
O126 Cd127 2.223 . S
O126 C134 1.315 . S
Cd127 O126 2.223 . S
Cd127 O130 2.297 . S
Cd127 O131 2.439 . S
Cd127 O137 2.240 . S
Cd128 O129 2.240 . S
Cd128 O136 2.223 . S
Cd128 O138 2.297 . S
Cd128 O139 2.439 . S
O129 Cd128 2.240 . S
O129 C134 1.279 . S
O130 Cd127 2.297 . S
O130 C132 1.247 . S
O131 Cd127 2.439 . S
O131 C132 1.208 . S
C132 O130 1.247 . S
C132 O131 1.208 . S
C133 O138 1.247 . S
C133 O139 1.208 . S
C134 O126 1.315 . S
C134 O129 1.279 . S
C135 O136 1.315 . S
C135 O137 1.279 . S
O136 Cd128 2.223 . S
O136 C135 1.315 . S
O137 Cd127 2.240 . S
O137 C135 1.279 . S
O138 Cd128 2.297 . S
O138 C133 1.247 . S
O139 Cd128 2.439 . S
O139 C133 1.208 . S
O140 Cd141 2.223 . S
O140 C148 1.315 . S
Cd141 O140 2.223 . S
Cd141 O144 2.297 . S
Cd141 O145 2.439 . S
Cd141 O151 2.240 . S
Cd142 O143 2.240 . S
Cd142 O150 2.223 . S
Cd142 O152 2.297 . S
Cd142 O153 2.439 . S
O143 Cd142 2.240 . S
O143 C148 1.279 . S
O144 Cd141 2.297 . S
O144 C146 1.247 . S
O145 Cd141 2.439 . S
O145 C146 1.208 . S
C146 O144 1.247 . S
C146 O145 1.208 . S
C147 O152 1.247 . S
C147 O153 1.208 . S
C148 O140 1.315 . S
C148 O143 1.279 . S
C149 O150 1.315 . S
C149 O151 1.279 . S
O150 Cd142 2.223 . S
O150 C149 1.315 . S
O151 Cd141 2.240 . S
O151 C149 1.279 . S
O152 Cd142 2.297 . S
O152 C147 1.247 . S
O153 Cd142 2.439 . S
O153 C147 1.208 . S
O154 Cd155 2.223 . S
O154 C162 1.315 . S
Cd155 O154 2.223 . S
Cd155 O158 2.297 . S
Cd155 O159 2.439 . S
Cd155 O165 2.240 . S
Cd156 O157 2.240 . S
Cd156 O164 2.223 . S
Cd156 O166 2.297 . S
Cd156 O167 2.439 . S
O157 Cd156 2.240 . S
O157 C162 1.279 . S
O158 Cd155 2.297 . S
O158 C160 1.247 . S
O159 Cd155 2.439 . S
O159 C160 1.208 . S
C160 O158 1.247 . S
C160 O159 1.208 . S
C161 O166 1.247 . S
C161 O167 1.208 . S
C162 O154 1.315 . S
C162 O157 1.279 . S
C163 O164 1.315 . S
C163 O165 1.279 . S
O164 Cd156 2.223 . S
O164 C163 1.315 . S
O165 Cd155 2.240 . S
O165 C163 1.279 . S
O166 Cd156 2.297 . S
O166 C161 1.247 . S
O167 Cd156 2.439 . S
O167 C161 1.208 . S
O168 Cd169 2.223 . S
O168 C176 1.315 . S
Cd169 O168 2.223 . S
Cd169 O172 2.297 . S
Cd169 O173 2.439 . S
Cd169 O179 2.240 . S
Cd170 O171 2.240 . S
Cd170 O178 2.223 . S
Cd170 O180 2.297 . S
Cd170 O181 2.439 . S
O171 Cd170 2.240 . S
O171 C176 1.279 . S
O172 Cd169 2.297 . S
O172 C174 1.247 . S
O173 Cd169 2.439 . S
O173 C174 1.208 . S
C174 O172 1.247 . S
C174 O173 1.208 . S
C175 O180 1.247 . S
C175 O181 1.208 . S
C176 O168 1.315 . S
C176 O171 1.279 . S
C177 O178 1.315 . S
C177 O179 1.279 . S
O178 Cd170 2.223 . S
O178 C177 1.315 . S
O179 Cd169 2.240 . S
O179 C177 1.279 . S
O180 Cd170 2.297 . S
O180 C175 1.247 . S
O181 Cd170 2.439 . S
O181 C175 1.208 . S
O182 Cd183 2.223 . S
O182 C190 1.315 . S
Cd183 O182 2.223 . S
Cd183 O186 2.297 . S
Cd183 O187 2.439 . S
Cd183 O193 2.240 . S
Cd184 O185 2.240 . S
Cd184 O192 2.223 . S
Cd184 O194 2.297 . S
Cd184 O195 2.439 . S
O185 Cd184 2.240 . S
O185 C190 1.279 . S
O186 Cd183 2.297 . S
O186 C188 1.247 . S
O187 Cd183 2.439 . S
O187 C188 1.208 . S
C188 O186 1.247 . S
C188 O187 1.208 . S
C189 O194 1.247 . S
C189 O195 1.208 . S
C190 O182 1.315 . S
C190 O185 1.279 . S
C191 O192 1.315 . S
C191 O193 1.279 . S
O192 Cd184 2.223 . S
O192 C191 1.315 . S
O193 Cd183 2.240 . S
O193 C191 1.279 . S
O194 Cd184 2.297 . S
O194 C189 1.247 . S
O195 Cd184 2.439 . S
O195 C189 1.208 . S
O196 Cd197 2.223 . S
O196 C204 1.315 . S
Cd197 O196 2.223 . S
Cd197 O200 2.297 . S
Cd197 O201 2.439 . S
Cd197 O207 2.240 . S
Cd198 O199 2.240 . S
Cd198 O206 2.223 . S
Cd198 O208 2.297 . S
Cd198 O209 2.439 . S
O199 Cd198 2.240 . S
O199 C204 1.279 . S
O200 Cd197 2.297 . S
O200 C202 1.247 . S
O201 Cd197 2.439 . S
O201 C202 1.208 . S
C202 O200 1.247 . S
C202 O201 1.208 . S
C203 O208 1.247 . S
C203 O209 1.208 . S
C204 O196 1.315 . S
C204 O199 1.279 . S
C205 O206 1.315 . S
C205 O207 1.279 . S
O206 Cd198 2.223 . S
O206 C205 1.315 . S
O207 Cd197 2.240 . S
O207 C205 1.279 . S
O208 Cd198 2.297 . S
O208 C203 1.247 . S
O209 Cd198 2.439 . S
O209 C203 1.208 . S
O210 Cd211 2.223 . S
O210 C218 1.315 . S
Cd211 O210 2.223 . S
Cd211 O214 2.297 . S
Cd211 O215 2.439 . S
Cd211 O221 2.240 . S
Cd212 O213 2.240 . S
Cd212 O220 2.223 . S
Cd212 O222 2.297 . S
Cd212 O223 2.439 . S
O213 Cd212 2.240 . S
O213 C218 1.279 . S
O214 Cd211 2.297 . S
O214 C216 1.247 . S
O215 Cd211 2.439 . S
O215 C216 1.208 . S
C216 O214 1.247 . S
C216 O215 1.208 . S
C217 O222 1.247 . S
C217 O223 1.208 . S
C218 O210 1.315 . S
C218 O213 1.279 . S
C219 O220 1.315 . S
C219 O221 1.279 . S
O220 Cd212 2.223 . S
O220 C219 1.315 . S
O221 Cd211 2.240 . S
O221 C219 1.279 . S
O222 Cd212 2.297 . S
O222 C217 1.247 . S
O223 Cd212 2.439 . S
O223 C217 1.208 . S
C224 C225 1.387 . S
C224 H228 0.950 . S
C224 C233 1.390 1_665 S
C225 C224 1.387 . S
C225 C227 1.387 . S
H226 C233 0.950 . S
C227 C225 1.387 . S
C227 C229 1.390 1_665 S
C227 H231 0.950 . S
H228 C224 0.950 . S
C229 C227 1.390 1_445 S
C229 C230 1.387 . S
C229 H232 0.950 . S
C230 C229 1.387 . S
C230 C233 1.387 . S
H231 C227 0.950 . S
H232 C229 0.950 . S
C233 C224 1.390 1_445 S
C233 H226 0.950 . S
C233 C230 1.387 . S
C234 C235 1.387 . S
C234 H238 0.950 . S
C234 C243 1.390 1_655 S
C235 C234 1.387 . S
C235 C237 1.387 . S
H236 C243 0.950 . S
C237 C235 1.387 . S
C237 C239 1.390 1_655 S
C237 H241 0.950 . S
H238 C234 0.950 . S
C239 C237 1.390 1_455 S
C239 C240 1.387 . S
C239 H242 0.950 . S
C240 C239 1.387 . S
C240 C243 1.387 . S
H241 C237 0.950 . S
H242 C239 0.950 . S
C243 C234 1.390 1_455 S
C243 H236 0.950 . S
C243 C240 1.387 . S
C244 C245 1.387 . S
C244 H248 0.950 . S
C244 C253 1.390 . S
C245 C244 1.387 . S
C245 C247 1.387 . S
H246 C253 0.950 . S
C247 C245 1.387 . S
C247 C249 1.390 . S
C247 H251 0.950 . S
H248 C244 0.950 . S
C249 C247 1.390 . S
C249 C250 1.387 . S
C249 H252 0.950 . S
C250 C249 1.387 . S
C250 C253 1.387 . S
H251 C247 0.950 . S
H252 C249 0.950 . S
C253 C244 1.390 . S
C253 H246 0.950 . S
C253 C250 1.387 . S
C254 C255 1.387 . S
C254 H258 0.950 . S
C254 C263 1.390 1_545 S
C255 C254 1.387 . S
C255 C257 1.387 . S
H256 C263 0.950 . S
C257 C255 1.387 . S
C257 C259 1.390 1_545 S
C257 H261 0.950 . S
H258 C254 0.950 . S
C259 C257 1.390 1_565 S
C259 C260 1.387 . S
C259 H262 0.950 . S
C260 C259 1.387 . S
C260 C263 1.387 . S
H261 C257 0.950 . S
H262 C259 0.950 . S
C263 C254 1.390 1_565 S
C263 H256 0.950 . S
C263 C260 1.387 . S
C264 C265 1.387 . S
C264 H268 0.950 . S
C264 C273 1.390 1_455 S
C265 C264 1.387 . S
C265 C267 1.387 . S
H266 C273 0.950 . S
C267 C265 1.387 . S
C267 C269 1.390 1_455 S
C267 H271 0.950 . S
H268 C264 0.950 . S
C269 C267 1.390 1_655 S
C269 C270 1.387 . S
C269 H272 0.950 . S
C270 C269 1.387 . S
C270 C273 1.387 . S
H271 C267 0.950 . S
H272 C269 0.950 . S
C273 C264 1.390 1_655 S
C273 H266 0.950 . S
C273 C270 1.387 . S
C274 C275 1.387 . S
C274 H278 0.950 . S
C274 C283 1.390 . S
C275 C274 1.387 . S
C275 C277 1.387 . S
H276 C283 0.950 . S
C277 C275 1.387 . S
C277 C279 1.390 . S
C277 H281 0.950 . S
H278 C274 0.950 . S
C279 C277 1.390 . S
C279 C280 1.387 . S
C279 H282 0.950 . S
C280 C279 1.387 . S
C280 C283 1.387 . S
H281 C277 0.950 . S
H282 C279 0.950 . S
C283 C274 1.390 . S
C283 H276 0.950 . S
C283 C280 1.387 . S
C284 C285 1.387 . S
C284 H288 0.950 . S
C284 C293 1.390 1_545 S
C285 C284 1.387 . S
C285 C287 1.387 . S
H286 C293 0.950 . S
C287 C285 1.387 . S
C287 C289 1.390 1_545 S
C287 H291 0.950 . S
H288 C284 0.950 . S
C289 C287 1.390 1_565 S
C289 C290 1.387 . S
C289 H292 0.950 . S
C290 C289 1.387 . S
C290 C293 1.387 . S
H291 C287 0.950 . S
H292 C289 0.950 . S
C293 C284 1.390 1_565 S
C293 H286 0.950 . S
C293 C290 1.387 . S
C294 C295 1.387 . S
C294 H298 0.950 . S
C294 C303 1.390 1_445 S
C295 C294 1.387 . S
C295 C297 1.387 . S
H296 C303 0.950 . S
C297 C295 1.387 . S
C297 C299 1.390 1_445 S
C297 H301 0.950 . S
H298 C294 0.950 . S
C299 C297 1.390 1_665 S
C299 C300 1.387 . S
C299 H302 0.950 . S
C300 C299 1.387 . S
C300 C303 1.387 . S
H301 C297 0.950 . S
H302 C299 0.950 . S
C303 C294 1.390 1_665 S
C303 H296 0.950 . S
C303 C300 1.387 . S
C304 C305 1.387 . S
C304 H308 0.950 . S
C304 C313 1.390 1_565 S
C305 C304 1.387 . S
C305 C307 1.387 . S
H306 C313 0.950 . S
C307 C305 1.387 . S
C307 C309 1.390 1_565 S
C307 H311 0.950 . S
H308 C304 0.950 . S
C309 C307 1.390 1_545 S
C309 C310 1.387 . S
C309 H312 0.950 . S
C310 C309 1.387 . S
C310 C313 1.387 . S
H311 C307 0.950 . S
H312 C309 0.950 . S
C313 C304 1.390 1_545 S
C313 H306 0.950 . S
C313 C310 1.387 . S
C314 C315 1.387 . S
C314 H318 0.950 . S
C314 C323 1.390 1_665 S
C315 C314 1.387 . S
C315 C317 1.387 . S
H316 C323 0.950 . S
C317 C315 1.387 . S
C317 C319 1.390 1_665 S
C317 H321 0.950 . S
H318 C314 0.950 . S
C319 C317 1.390 1_445 S
C319 C320 1.387 . S
C319 H322 0.950 . S
C320 C319 1.387 . S
C320 C323 1.387 . S
H321 C317 0.950 . S
H322 C319 0.950 . S
C323 C314 1.390 1_445 S
C323 H316 0.950 . S
C323 C320 1.387 . S
C324 C325 1.387 . S
C324 H328 0.950 . S
C324 C333 1.390 1_455 S
C325 C324 1.387 . S
C325 C327 1.387 . S
H326 C333 0.950 . S
C327 C325 1.387 . S
C327 C329 1.390 1_455 S
C327 H331 0.950 . S
H328 C324 0.950 . S
C329 C327 1.390 1_655 S
C329 C330 1.387 . S
C329 H332 0.950 . S
C330 C329 1.387 . S
C330 C333 1.387 . S
H331 C327 0.950 . S
H332 C329 0.950 . S
C333 C324 1.390 1_655 S
C333 H326 0.950 . S
C333 C330 1.387 . S
C334 C335 1.387 . S
C334 H338 0.950 . S
C334 C343 1.390 . S
C335 C334 1.387 . S
C335 C337 1.387 . S
H336 C343 0.950 . S
C337 C335 1.387 . S
C337 C339 1.390 . S
C337 H341 0.950 . S
H338 C334 0.950 . S
C339 C337 1.390 . S
C339 C340 1.387 . S
C339 H342 0.950 . S
C340 C339 1.387 . S
C340 C343 1.387 . S
H341 C337 0.950 . S
H342 C339 0.950 . S
C343 C334 1.390 . S
C343 H336 0.950 . S
C343 C340 1.387 . S
C344 C345 1.387 . S
C344 H348 0.950 . S
C344 C353 1.390 . S
C345 C344 1.387 . S
C345 C347 1.387 . S
H346 C353 0.950 . S
C347 C345 1.387 . S
C347 C349 1.390 . S
C347 H351 0.950 . S
H348 C344 0.950 . S
C349 C347 1.390 . S
C349 C350 1.387 . S
C349 H352 0.950 . S
C350 C349 1.387 . S
C350 C353 1.387 . S
H351 C347 0.950 . S
H352 C349 0.950 . S
C353 C344 1.390 . S
C353 H346 0.950 . S
C353 C350 1.387 . S
C354 C355 1.387 . S
C354 H358 0.950 . S
C354 C363 1.390 1_565 S
C355 C354 1.387 . S
C355 C357 1.387 . S
H356 C363 0.950 . S
C357 C355 1.387 . S
C357 C359 1.390 1_565 S
C357 H361 0.950 . S
H358 C354 0.950 . S
C359 C357 1.390 1_545 S
C359 C360 1.387 . S
C359 H362 0.950 . S
C360 C359 1.387 . S
C360 C363 1.387 . S
H361 C357 0.950 . S
H362 C359 0.950 . S
C363 C354 1.390 1_545 S
C363 H356 0.950 . S
C363 C360 1.387 . S
C364 C365 1.387 . S
C364 H368 0.950 . S
C364 C373 1.390 1_665 S
C365 C364 1.387 . S
C365 C367 1.387 . S
H366 C373 0.950 . S
C367 C365 1.387 . S
C367 C369 1.390 1_665 S
C367 H371 0.950 . S
H368 C364 0.950 . S
C369 C367 1.390 1_445 S
C369 C370 1.387 . S
C369 H372 0.950 . S
C370 C369 1.387 . S
C370 C373 1.387 . S
H371 C367 0.950 . S
H372 C369 0.950 . S
C373 C364 1.390 1_445 S
C373 H366 0.950 . S
C373 C370 1.387 . S
C374 C375 1.387 . S
C374 H378 0.950 . S
C374 C383 1.390 1_455 S
C375 C374 1.387 . S
C375 C377 1.387 . S
H376 C383 0.950 . S
C377 C375 1.387 . S
C377 C379 1.390 1_455 S
C377 H381 0.950 . S
H378 C374 0.950 . S
C379 C377 1.390 1_655 S
C379 C380 1.387 . S
C379 H382 0.950 . S
C380 C379 1.387 . S
C380 C383 1.387 . S
H381 C377 0.950 . S
H382 C379 0.950 . S
C383 C374 1.390 1_655 S
C383 H376 0.950 . S
C383 C380 1.387 . S
C384 C385 1.387 . S
C384 H388 0.950 . S
C384 C393 1.390 . S
C385 C384 1.387 . S
C385 C387 1.387 . S
H386 C393 0.950 . S
C387 C385 1.387 . S
C387 C389 1.390 . S
C387 H391 0.950 . S
H388 C384 0.950 . S
C389 C387 1.390 . S
C389 C390 1.387 . S
C389 H392 0.950 . S
C390 C389 1.387 . S
C390 C393 1.387 . S
H391 C387 0.950 . S
H392 C389 0.950 . S
C393 C384 1.390 . S
C393 H386 0.950 . S
C393 C390 1.387 . S
C394 C395 1.387 . S
C394 H398 0.950 . S
C394 C403 1.390 . S
C395 C394 1.387 . S
C395 C397 1.387 . S
H396 C403 0.950 . S
C397 C395 1.387 . S
C397 C399 1.390 . S
C397 H401 0.950 . S
H398 C394 0.950 . S
C399 C397 1.390 . S
C399 C400 1.387 . S
C399 H402 0.950 . S
C400 C399 1.387 . S
C400 C403 1.387 . S
H401 C397 0.950 . S
H402 C399 0.950 . S
C403 C394 1.390 . S
C403 H396 0.950 . S
C403 C400 1.387 . S
C404 C405 1.387 . S
C404 H408 0.950 . S
C404 C413 1.390 . S
C405 C404 1.387 . S
C405 C407 1.387 . S
H406 C413 0.950 . S
C407 C405 1.387 . S
C407 C409 1.390 . S
C407 H411 0.950 . S
H408 C404 0.950 . S
C409 C407 1.390 . S
C409 C410 1.387 . S
C409 H412 0.950 . S
C410 C409 1.387 . S
C410 C413 1.387 . S
H411 C407 0.950 . S
H412 C409 0.950 . S
C413 C404 1.390 . S
C413 H406 0.950 . S
C413 C410 1.387 . S
C414 C415 1.387 . S
C414 H418 0.950 . S
C414 C423 1.390 . S
C415 C414 1.387 . S
C415 C417 1.387 . S
H416 C423 0.950 . S
C417 C415 1.387 . S
C417 C419 1.390 . S
C417 H421 0.950 . S
H418 C414 0.950 . S
C419 C417 1.390 . S
C419 C420 1.387 . S
C419 H422 0.950 . S
C420 C419 1.387 . S
C420 C423 1.387 . S
H421 C417 0.950 . S
H422 C419 0.950 . S
C423 C414 1.390 . S
C423 H416 0.950 . S
C423 C420 1.387 . S
C424 C425 1.387 . S
C424 H428 0.950 . S
C424 C433 1.390 . S
C425 C424 1.387 . S
C425 C427 1.387 . S
H426 C433 0.950 . S
C427 C425 1.387 . S
C427 C429 1.390 . S
C427 H431 0.950 . S
H428 C424 0.950 . S
C429 C427 1.390 . S
C429 C430 1.387 . S
C429 H432 0.950 . S
C430 C429 1.387 . S
C430 C433 1.387 . S
H431 C427 0.950 . S
H432 C429 0.950 . S
C433 C424 1.390 . S
C433 H426 0.950 . S
C433 C430 1.387 . S
C434 C435 1.387 . S
C434 H438 0.950 . S
C434 C443 1.390 . S
C435 C434 1.387 . S
C435 C437 1.387 . S
H436 C443 0.950 . S
C437 C435 1.387 . S
C437 C439 1.390 . S
C437 H441 0.950 . S
H438 C434 0.950 . S
C439 C437 1.390 . S
C439 C440 1.387 . S
C439 H442 0.950 . S
C440 C439 1.387 . S
C440 C443 1.387 . S
H441 C437 0.950 . S
H442 C439 0.950 . S
C443 C434 1.390 . S
C443 H436 0.950 . S
C443 C440 1.387 . S
C444 C445 1.387 . S
C444 H448 0.950 . S
C444 C453 1.390 . S
C445 C444 1.387 . S
C445 C447 1.387 . S
H446 C453 0.950 . S
C447 C445 1.387 . S
C447 C449 1.390 . S
C447 H451 0.950 . S
H448 C444 0.950 . S
C449 C447 1.390 . S
C449 C450 1.387 . S
C449 H452 0.950 . S
C450 C449 1.387 . S
C450 C453 1.387 . S
H451 C447 0.950 . S
H452 C449 0.950 . S
C453 C444 1.390 . S
C453 H446 0.950 . S
C453 C450 1.387 . S
C454 C455 1.387 . S
C454 H458 0.950 . S
C454 C463 1.390 . S
C455 C454 1.387 . S
C455 C457 1.387 . S
H456 C463 0.950 . S
C457 C455 1.387 . S
C457 C459 1.390 . S
C457 H461 0.950 . S
H458 C454 0.950 . S
C459 C457 1.390 . S
C459 C460 1.387 . S
C459 H462 0.950 . S
C460 C459 1.387 . S
C460 C463 1.387 . S
H461 C457 0.950 . S
H462 C459 0.950 . S
C463 C454 1.390 . S
C463 H456 0.950 . S
C463 C460 1.387 . S
C464 C465 1.387 . S
C464 H468 0.950 . S
C464 C473 1.390 . S
C465 C464 1.387 . S
C465 C467 1.387 . S
H466 C473 0.950 . S
C467 C465 1.387 . S
C467 C469 1.390 . S
C467 H471 0.950 . S
H468 C464 0.950 . S
C469 C467 1.390 . S
C469 C470 1.387 . S
C469 H472 0.950 . S
C470 C469 1.387 . S
C470 C473 1.387 . S
H471 C467 0.950 . S
H472 C469 0.950 . S
C473 C464 1.390 . S
C473 H466 0.950 . S
C473 C470 1.387 . S
C474 C475 1.387 . S
C474 H478 0.950 . S
C474 C483 1.390 . S
C475 C474 1.387 . S
C475 C477 1.387 . S
H476 C483 0.950 . S
C477 C475 1.387 . S
C477 C479 1.390 . S
C477 H481 0.950 . S
H478 C474 0.950 . S
C479 C477 1.390 . S
C479 C480 1.387 . S
C479 H482 0.950 . S
C480 C479 1.387 . S
C480 C483 1.387 . S
H481 C477 0.950 . S
H482 C479 0.950 . S
C483 C474 1.390 . S
C483 H476 0.950 . S
C483 C480 1.387 . S
C484 C485 1.387 . S
C484 H488 0.950 . S
C484 C493 1.390 . S
C485 C484 1.387 . S
C485 C487 1.387 . S
H486 C493 0.950 . S
C487 C485 1.387 . S
C487 C489 1.390 . S
C487 H491 0.950 . S
H488 C484 0.950 . S
C489 C487 1.390 . S
C489 C490 1.387 . S
C489 H492 0.950 . S
C490 C489 1.387 . S
C490 C493 1.387 . S
H491 C487 0.950 . S
H492 C489 0.950 . S
C493 C484 1.390 . S
C493 H486 0.950 . S
C493 C490 1.387 . S
C494 C495 1.387 . S
C494 H498 0.950 . S
C494 C503 1.390 1_556 S
C495 C494 1.387 . S
C495 C497 1.387 . S
H496 C503 0.950 . S
C497 C495 1.387 . S
C497 C499 1.390 1_556 S
C497 H501 0.950 . S
H498 C494 0.950 . S
C499 C497 1.390 1_554 S
C499 C500 1.387 . S
C499 H502 0.950 . S
C500 C499 1.387 . S
C500 C503 1.387 . S
H501 C497 0.950 . S
H502 C499 0.950 . S
C503 C494 1.390 1_554 S
C503 H496 0.950 . S
C503 C500 1.387 . S
C504 C505 1.387 . S
C504 H508 0.950 . S
C504 C513 1.390 1_554 S
C505 C504 1.387 . S
C505 C507 1.387 . S
H506 C513 0.950 . S
C507 C505 1.387 . S
C507 C509 1.390 1_554 S
C507 H511 0.950 . S
H508 C504 0.950 . S
C509 C507 1.390 1_556 S
C509 C510 1.387 . S
C509 H512 0.950 . S
C510 C509 1.387 . S
C510 C513 1.387 . S
H511 C507 0.950 . S
H512 C509 0.950 . S
C513 C504 1.390 1_556 S
C513 H506 0.950 . S
C513 C510 1.387 . S
C514 C515 1.387 . S
C514 H518 0.950 . S
C514 C523 1.390 . S
C515 C514 1.387 . S
C515 C517 1.387 . S
H516 C523 0.950 . S
C517 C515 1.387 . S
C517 C519 1.390 . S
C517 H521 0.950 . S
H518 C514 0.950 . S
C519 C517 1.390 . S
C519 C520 1.387 . S
C519 H522 0.950 . S
C520 C519 1.387 . S
C520 C523 1.387 . S
H521 C517 0.950 . S
H522 C519 0.950 . S
C523 C514 1.390 . S
C523 H516 0.950 . S
C523 C520 1.387 . S
C524 C525 1.387 . S
C524 H528 0.950 . S
C524 C533 1.390 . S
C525 C524 1.387 . S
C525 C527 1.387 . S
H526 C533 0.950 . S
C527 C525 1.387 . S
C527 C529 1.390 . S
C527 H531 0.950 . S
H528 C524 0.950 . S
C529 C527 1.390 . S
C529 C530 1.387 . S
C529 H532 0.950 . S
C530 C529 1.387 . S
C530 C533 1.387 . S
H531 C527 0.950 . S
H532 C529 0.950 . S
C533 C524 1.390 . S
C533 H526 0.950 . S
C533 C530 1.387 . S
C534 C535 1.387 . S
C534 H538 0.950 . S
C534 C543 1.390 . S
C535 C534 1.387 . S
C535 C537 1.387 . S
H536 C543 0.950 . S
C537 C535 1.387 . S
C537 C539 1.390 . S
C537 H541 0.950 . S
H538 C534 0.950 . S
C539 C537 1.390 . S
C539 C540 1.387 . S
C539 H542 0.950 . S
C540 C539 1.387 . S
C540 C543 1.387 . S
H541 C537 0.950 . S
H542 C539 0.950 . S
C543 C534 1.390 . S
C543 H536 0.950 . S
C543 C540 1.387 . S
C225 C146 1.336 . S
C230 C6 1.336 . S
C235 C20 1.334 . S
C240 C160 1.334 . S
C245 C118 1.336 . S
C250 C34 1.336 . S
C255 C132 1.337 . S
C260 C48 1.337 . S
C265 C62 1.334 . S
C270 C202 1.334 . S
C275 C216 1.333 . S
C280 C76 1.333 . S
C285 C90 1.334 . S
C290 C174 1.334 . S
C295 C188 1.334 . S
C300 C104 1.334 . S
C305 C149 1.730 . S
C310 C9 1.730 . S
C315 C23 1.729 . S
C320 C163 1.729 . S
C325 C37 1.730 . S
C330 C121 1.730 . S
C335 C51 1.730 . S
C340 C135 1.730 . S
C345 C65 1.729 . S
C350 C205 1.729 . S
C355 C79 1.730 . S
C360 C219 1.730 . S
C365 C177 1.731 . S
C370 C93 1.731 . S
C375 C191 1.728 . S
C380 C107 1.728 . S
C385 C8 1.263 . S
C390 C92 1.263 . S
C395 C22 1.263 . S
C400 C106 1.263 . S
C405 C36 1.263 . S
C410 C64 1.263 . S
C415 C50 1.260 . S
C420 C78 1.260 . S
C425 C120 1.260 . S
C430 C204 1.260 . S
C435 C218 1.263 . S
C440 C134 1.263 . S
C445 C148 1.260 . S
C450 C176 1.260 . S
C455 C190 1.262 . S
C460 C162 1.262 . S
C465 C7 1.542 . S
C470 C217 1.542 . S
C475 C175 1.542 . S
C480 C21 1.542 . S
C485 C189 1.543 . S
C490 C35 1.542 . S
C495 C203 1.543 . S
C500 C49 1.542 . S
C505 C133 1.542 . S
C510 C63 1.543 . S
C515 C147 1.543 . S
C520 C77 1.544 . S
C525 C91 1.543 . S
C530 C161 1.542 . S
C535 C105 1.543 . S
C540 C119 1.542 . S
