# Generated by pormake.
# Topology noo, (5)-cn, num edge types: 1
# Building blocks:
#     Node 0, Type 0, BuildingBlock: XOMCOT_clean_sbu_0, # of connection points: 5
#     Node 1, Type 0, BuildingBlock: XOMCOT_clean_sbu_0, # of connection points: 5
#     Node 2, Type 0, BuildingBlock: XOMCOT_clean_sbu_0, # of connection points: 5
#     Node 3, Type 0, BuildingBlock: XOMCOT_clean_sbu_0, # of connection points: 5
#     Node 4, Type 0, BuildingBlock: XOMCOT_clean_sbu_0, # of connection points: 5
#     Node 5, Type 0, BuildingBlock: XOMCOT_clean_sbu_0, # of connection points: 5
#     Node 6, Type 0, BuildingBlock: XOMCOT_clean_sbu_0, # of connection points: 5
#     Node 7, Type 0, BuildingBlock: XOMCOT_clean_sbu_0, # of connection points: 5
#     Edge 8, Type (0, 0), BuildingBlock: OJICUG_clean_linker_0, # of connection points: 2
#     Edge 9, Type (0, 0), BuildingBlock: OJICUG_clean_linker_0, # of connection points: 2
#     Edge 10, Type (0, 0), BuildingBlock: OJICUG_clean_linker_0, # of connection points: 2
#     Edge 11, Type (0, 0), BuildingBlock: OJICUG_clean_linker_0, # of connection points: 2
#     Edge 12, Type (0, 0), BuildingBlock: OJICUG_clean_linker_0, # of connection points: 2
#     Edge 13, Type (0, 0), BuildingBlock: OJICUG_clean_linker_0, # of connection points: 2
#     Edge 14, Type (0, 0), BuildingBlock: OJICUG_clean_linker_0, # of connection points: 2
#     Edge 15, Type (0, 0), BuildingBlock: OJICUG_clean_linker_0, # of connection points: 2
#     Edge 16, Type (0, 0), BuildingBlock: OJICUG_clean_linker_0, # of connection points: 2
#     Edge 17, Type (0, 0), BuildingBlock: OJICUG_clean_linker_0, # of connection points: 2
#     Edge 18, Type (0, 0), BuildingBlock: OJICUG_clean_linker_0, # of connection points: 2
#     Edge 19, Type (0, 0), BuildingBlock: OJICUG_clean_linker_0, # of connection points: 2
#     Edge 20, Type (0, 0), BuildingBlock: OJICUG_clean_linker_0, # of connection points: 2
#     Edge 21, Type (0, 0), BuildingBlock: OJICUG_clean_linker_0, # of connection points: 2
#     Edge 22, Type (0, 0), BuildingBlock: OJICUG_clean_linker_0, # of connection points: 2
#     Edge 23, Type (0, 0), BuildingBlock: OJICUG_clean_linker_0, # of connection points: 2
#     Edge 24, Type (0, 0), BuildingBlock: OJICUG_clean_linker_0, # of connection points: 2
#     Edge 25, Type (0, 0), BuildingBlock: OJICUG_clean_linker_0, # of connection points: 2
#     Edge 26, Type (0, 0), BuildingBlock: OJICUG_clean_linker_0, # of connection points: 2
#     Edge 27, Type (0, 0), BuildingBlock: OJICUG_clean_linker_0, # of connection points: 2
# Relax obj value: 0.062
# Max RMSD: 0.103
# Mean RMSD: 0.103
data_MOF--net-noo--node1-XOMCOT_clean_sbu_0--edge1-OJICUG_clean_linker_0
_symmetry_space_group_name_H-M    P1
_symmetry_Int_Tables_number       1
_symmetry_cell_setting            triclinic
loop_
_symmetry_equiv_pos_as_xyz
'x, y, z'
_cell_length_a     29.362895
_cell_length_b     29.461463
_cell_length_c     22.790429
_cell_angle_alpha  90.018967
_cell_angle_beta   90.438979
_cell_angle_gamma 90.045965
loop_
_atom_site_label
_atom_site_type_symbol
_atom_site_fract_x
_atom_site_fract_y
_atom_site_fract_z
_atom_type_partial_charge
Co0 Co 0.44422 0.23756 0.0739 0.0
C1 C 0.4788 0.14416 0.09317 0.0
C2 C 0.52378 0.1946 0.12919 0.0
C3 C 0.54247 0.15242 0.13916 0.0
N4 N 0.48411 0.18936 0.09991 0.0
N5 N 0.51418 0.12075 0.11643 0.0
H6 H 0.45 0.12872 0.07111 0.0
H7 H 0.53811 0.22686 0.1425 0.0
C8 C 0.50871 0.30873 0.02366 0.0
O9 O 0.47847 0.32202 0.98452 0.0
N10 N 0.40403 0.2862 0.0484 0.0
C11 C 0.369 0.28313 0.01002 0.0
C12 C 0.34812 0.32469 1.00563 0.0
C13 C 0.40323 0.32958 0.06784 0.0
N14 N 0.36968 0.35409 0.04175 0.0
C15 C 0.40722 0.17957 0.98522 0.0
C16 C 0.46428 0.20226 0.89437 0.0
C17 C 0.42621 0.1747 0.88255 0.0
C18 C 0.39896 0.16179 0.92969 0.0
C19 C 0.47196 0.21873 0.95147 0.0
N20 N 0.44174 0.20985 0.99542 0.0
H21 H 0.3842 0.16978 0.01942 0.0
H22 H 0.50209 0.23853 0.95926 0.0
H23 H 0.35816 0.2528 0.98749 0.0
H24 H 0.42706 0.34284 0.09998 0.0
O25 O 0.39284 0.20668 0.10793 0.0
O26 O 0.43635 0.25586 0.15528 0.0
O27 O 0.50032 0.27537 0.0577 0.0
C28 C 0.40222 0.22764 0.15649 0.0
H29 H 0.57419 0.14563 0.16201 0.0
H30 H 0.31831 0.33213 0.97914 0.0
H31 H 0.48725 0.21216 0.85971 0.0
H32 H 0.37054 0.13875 0.92372 0.0
Co33 Co 0.81181 0.43822 0.06653 0.0
C34 C 0.90582 0.47328 0.09013 0.0
C35 C 0.85446 0.51803 0.12277 0.0
C36 C 0.89646 0.53686 0.13452 0.0
N37 N 0.86016 0.47842 0.09405 0.0
N38 N 0.92876 0.50874 0.11385 0.0
H39 H 0.92223 0.44446 0.07036 0.0
H40 H 0.82214 0.53234 0.13521 0.0
C41 C 0.74423 0.51186 0.07942 0.0
O42 O 0.73433 0.49326 0.13007 0.0
N43 N 0.76333 0.39831 0.03896 0.0
C44 C 0.76741 0.36563 0.99779 0.0
C45 C 0.72523 0.34719 0.98636 0.0
C46 C 0.71864 0.3983 0.05325 0.0
N47 N 0.69475 0.36768 0.02123 0.0
C48 C 0.8749 0.40908 0.97957 0.0
C49 C 0.83531 0.45179 0.88424 0.0
C50 C 0.87189 0.42204 0.87504 0.0
C51 C 0.89228 0.40149 0.92384 0.0
C52 C 0.81886 0.45866 0.94118 0.0
N53 N 0.83844 0.43706 0.98816 0.0
H54 H 0.88983 0.39041 0.01544 0.0
H55 H 0.78907 0.47959 0.94643 0.0
H56 H 0.79876 0.35584 0.97684 0.0
H57 H 0.70361 0.42045 0.08549 0.0
O58 O 0.84335 0.38664 0.09997 0.0
O59 O 0.79381 0.4288 0.14757 0.0
O60 O 0.77404 0.49342 0.04652 0.0
C61 C 0.82254 0.39525 0.14862 0.0
H62 H 0.90268 0.5685 0.15736 0.0
H63 H 0.71751 0.32042 0.95526 0.0
H64 H 0.81814 0.46791 0.84755 0.0
H65 H 0.92082 0.37856 0.91893 0.0
Co66 Co 0.61205 0.81183 0.07073 0.0
C67 C 0.57633 0.90545 0.0897 0.0
C68 C 0.53083 0.85461 0.12215 0.0
C69 C 0.51207 0.89655 0.13264 0.0
N70 N 0.57087 0.86002 0.09438 0.0
N71 N 0.54067 0.92851 0.11215 0.0
H72 H 0.60568 0.92154 0.0706 0.0
H73 H 0.51632 0.82259 0.13526 0.0
C74 C 0.53837 0.74421 0.08552 0.0
O75 O 0.55611 0.73652 0.13762 0.0
N76 N 0.65309 0.76374 0.0473 0.0
C77 C 0.6912 0.76896 0.01547 0.0
C78 C 0.71199 0.7274 0.00938 0.0
C79 C 0.65148 0.71911 0.06068 0.0
N80 N 0.68703 0.69598 0.03783 0.0
C81 C 0.642 0.87237 0.98098 0.0
C82 C 0.5995 0.8304 0.8872 0.0
C83 C 0.62875 0.8672 0.87641 0.0
C84 C 0.64957 0.88849 0.92448 0.0
C85 C 0.59284 0.81516 0.94474 0.0
N86 N 0.61408 0.83609 0.99101 0.0
H87 H 0.66051 0.88826 0.0164 0.0
H88 H 0.57192 0.78553 0.95114 0.0
H89 H 0.7037 0.80093 0.99882 0.0
H90 H 0.62519 0.70386 0.08693 0.0
O91 O 0.66301 0.84489 0.10396 0.0
O92 O 0.62084 0.79605 0.15284 0.0
O93 O 0.55733 0.77278 0.05122 0.0
C94 C 0.65436 0.82489 0.15323 0.0
H95 H 0.48028 0.90299 0.15489 0.0
H96 H 0.74392 0.72122 0.98738 0.0
H97 H 0.58251 0.8129 0.85143 0.0
H98 H 0.67336 0.91619 0.91854 0.0
Co99 Co 0.23877 0.60854 0.07431 0.0
C100 C 0.14475 0.57256 0.09317 0.0
C101 C 0.19596 0.52741 0.12621 0.0
C102 C 0.15394 0.50841 0.13634 0.0
N103 N 0.1904 0.5674 0.09827 0.0
N104 N 0.12171 0.53679 0.11545 0.0
H105 H 0.12843 0.60172 0.07379 0.0
H106 H 0.22817 0.51301 0.13951 0.0
C107 C 0.30662 0.53523 0.08947 0.0
O108 O 0.31425 0.55255 0.1417 0.0
N109 N 0.28698 0.6495 0.05059 0.0
C110 C 0.28175 0.68701 0.01743 0.0
C111 C 0.32336 0.70793 0.0115 0.0
C112 C 0.33169 0.64843 0.06499 0.0
N113 N 0.35484 0.6837 0.04143 0.0
C114 C 0.17719 0.63865 0.98515 0.0
C115 C 0.2192 0.59842 0.89053 0.0
C116 C 0.18236 0.62784 0.8805 0.0
C117 C 0.16082 0.64719 0.92886 0.0
C118 C 0.23469 0.59066 0.94806 0.0
N119 N 0.21381 0.61093 0.99469 0.0
H120 H 0.16122 0.65632 0.02083 0.0
H121 H 0.26465 0.57004 0.95422 0.0
H122 H 0.24972 0.69905 0.99974 0.0
H123 H 0.34696 0.62275 0.09251 0.0
O124 O 0.20605 0.65928 0.1073 0.0
O125 O 0.2553 0.61707 0.15632 0.0
O126 O 0.27781 0.55416 0.05492 0.0
C127 C 0.2266 0.65062 0.1565 0.0
H128 H 0.14764 0.47655 0.15848 0.0
H129 H 0.32953 0.7395 0.98863 0.0
H130 H 0.23721 0.58324 0.85418 0.0
H131 H 0.13207 0.66985 0.92324 0.0
Co132 Co 0.941 0.31422 0.44576 0.0
C133 C 0.9821 0.40717 0.43411 0.0
C134 C 1.01106 0.35863 0.37511 0.0
C135 C 0.02994 0.40043 0.36368 0.0
N136 N 0.98088 0.3627 0.41915 0.0
N137 N 1.0118 0.43076 0.40096 0.0
H138 H 0.96067 0.42283 0.46648 0.0
H139 H 1.01783 0.32767 0.35134 0.0
C140 C 1.01709 0.24946 0.42997 0.0
O141 O 0.99955 0.24101 0.37795 0.0
N142 N 0.90143 0.26555 0.4716 0.0
C143 C 0.86444 0.27014 0.50569 0.0
C144 C 0.84384 0.22848 0.51171 0.0
C145 C 0.9025 0.22115 0.45672 0.0
N146 N 0.86768 0.19757 0.48087 0.0
C147 C 0.91063 0.37471 0.53548 0.0
C148 C 0.95621 0.33505 0.6285 0.0
C149 C 0.92573 0.37068 0.63975 0.0
C150 C 0.90337 0.3909 0.59207 0.0
C151 C 0.96254 0.31975 0.57096 0.0
N152 N 0.93981 0.33953 0.52504 0.0
H153 H 0.89159 0.39007 0.50008 0.0
H154 H 0.9844 0.29088 0.5644 0.0
H155 H 0.85229 0.3018 0.52363 0.0
H156 H 0.92773 0.20655 0.42814 0.0
O157 O 0.88884 0.34573 0.41297 0.0
O158 O 0.93088 0.29668 0.36442 0.0
O159 O 0.99698 0.27699 0.46453 0.0
C160 C 0.89702 0.32505 0.36399 0.0
H161 H 0.05465 0.40811 0.33009 0.0
H162 H 0.81255 0.22196 0.53503 0.0
H163 H 0.97439 0.31842 0.66398 0.0
H164 H 0.87879 0.4178 0.59843 0.0
Co165 Co 0.74015 0.94007 0.44961 0.0
C166 C 0.64705 0.98131 0.43698 0.0
C167 C 0.69602 1.01064 0.37893 0.0
C168 C 0.65416 0.02951 0.36679 0.0
N169 N 0.69171 0.98021 0.42281 0.0
N170 N 0.62357 1.01112 0.40348 0.0
H171 H 0.6311 0.95975 0.46897 0.0
H172 H 0.72718 1.01755 0.35568 0.0
C173 C 0.80557 1.0154 0.43465 0.0
O174 O 0.8139 0.99773 0.38297 0.0
N175 N 0.78892 0.90033 0.4754 0.0
C176 C 0.7847 0.86369 0.51032 0.0
C177 C 0.82641 0.84279 0.51548 0.0
C178 C 0.83307 0.90085 0.45917 0.0
N179 N 0.85689 0.86608 0.48324 0.0
C180 C 0.67894 0.9089 0.53738 0.0
C181 C 0.71919 0.95103 0.63274 0.0
C182 C 0.68323 0.92048 0.64205 0.0
C183 C 0.66258 0.90013 0.5933 0.0
C184 C 0.73472 0.95897 0.57554 0.0
N185 N 0.71466 0.93783 0.52853 0.0
H186 H 0.66306 0.89133 0.50115 0.0
H187 H 0.76405 0.98054 0.56996 0.0
H188 H 0.75325 0.85197 0.5294 0.0
H189 H 0.84731 0.92562 0.42963 0.0
O190 O 0.70835 0.88848 0.41638 0.0
O191 O 0.75744 0.93071 0.36817 0.0
O192 O 0.77773 0.99563 0.46918 0.0
C193 C 0.72879 0.89707 0.36751 0.0
H194 H 0.64659 0.05435 0.33311 0.0
H195 H 0.83321 0.81168 0.53921 0.0
H196 H 0.73649 0.96704 0.66943 0.0
H197 H 0.63436 0.87676 0.59832 0.0
Co198 Co 0.11411 0.73858 0.45068 0.0
C199 C 0.07435 0.64509 0.43747 0.0
C200 C 0.04227 0.69432 0.38164 0.0
C201 C 1.02395 0.65241 0.36916 0.0
N202 N 0.07399 0.68993 0.42441 0.0
N203 N 0.04405 0.62163 0.40443 0.0
H204 H 0.09741 0.62916 0.46815 0.0
H205 H 0.03414 0.7256 0.35922 0.0
C206 C 0.03842 0.80371 0.43393 0.0
O207 O 0.05571 0.81195 0.38207 0.0
N208 N 0.15387 0.78758 0.47594 0.0
C209 C 0.1904 0.78381 0.51171 0.0
C210 C 0.21127 0.8255 0.51633 0.0
C211 C 0.15339 0.83147 0.45864 0.0
N212 N 0.18807 0.85556 0.48291 0.0
C213 C 0.14501 0.67846 0.54091 0.0
C214 C 0.09965 0.71793 0.63336 0.0
C215 C 0.12993 0.68205 0.64487 0.0
C216 C 0.15226 0.66203 0.59747 0.0
C217 C 0.09334 0.7335 0.5758 0.0
N218 N 0.11592 0.71375 0.53017 0.0
H219 H 0.16401 0.66313 0.50584 0.0
H220 H 0.07152 0.76242 0.56897 0.0
H221 H 0.20206 0.75269 0.53184 0.0
H222 H 0.12867 0.84533 0.42829 0.0
O223 O 0.16589 0.70677 0.41883 0.0
O224 O 0.12342 0.75533 0.36918 0.0
O225 O 0.05843 0.77602 0.46871 0.0
C226 C 0.15716 0.7268 0.36945 0.0
H227 H 0.99831 0.64495 0.33614 0.0
H228 H 0.24227 0.83258 0.54064 0.0
H229 H 0.08152 0.73444 0.66862 0.0
H230 H 0.17675 0.63501 0.60404 0.0
Co231 Co 0.31554 0.11261 0.45052 0.0
C232 C 0.40892 0.07247 0.43754 0.0
C233 C 0.35921 0.04162 0.38089 0.0
C234 C 0.4011 1.02323 0.36851 0.0
N235 N 0.36393 0.07261 0.42414 0.0
N236 N 0.43215 0.04258 0.40433 0.0
H237 H 0.42522 0.09488 0.46857 0.0
H238 H 0.32775 0.03406 0.35806 0.0
C239 C 0.24987 0.03715 0.4328 0.0
O240 O 0.24149 0.05465 0.38086 0.0
N241 N 0.26676 0.15222 0.47579 0.0
C242 C 0.27089 0.18828 0.51179 0.0
C243 C 0.22923 0.20931 0.51617 0.0
C244 C 0.22271 0.15215 0.45817 0.0
N245 N 0.19884 0.18667 0.48238 0.0
C246 C 0.37684 0.14085 0.54178 0.0
C247 C 0.33478 0.09682 0.63347 0.0
C248 C 0.37225 0.12503 0.64551 0.0
C249 C 0.39366 0.14665 0.59863 0.0
C250 C 0.31927 0.09145 0.57563 0.0
N251 N 0.34039 0.11322 0.53034 0.0
H252 H 0.39283 0.1597 0.50702 0.0
H253 H 0.28917 0.07123 0.56828 0.0
H254 H 0.30227 0.19947 0.53221 0.0
H255 H 0.20861 0.12782 0.42759 0.0
O256 O 0.34792 0.16445 0.41949 0.0
O257 O 0.29874 0.12308 0.36899 0.0
O258 O 0.27765 0.05704 0.46778 0.0
C259 C 0.32765 0.15653 0.36983 0.0
H260 H 0.40835 0.99809 0.33522 0.0
H261 H 0.22242 0.24006 0.54054 0.0
H262 H 0.31699 0.07975 0.66861 0.0
H263 H 0.42196 0.16962 0.60601 0.0
C264 C 0.48996 0.99553 0.11348 0.0
C265 C 0.53411 0.97704 0.11382 0.0
H266 H 0.44898 0.05557 0.11439 0.0
C267 C 0.57159 1.00672 0.11561 0.0
H268 H 0.46034 0.97369 0.1116 0.0
C269 C 0.56505 0.05374 0.11692 0.0
C270 C 0.52088 0.07222 0.11608 0.0
H271 H 0.60601 0.99364 0.11657 0.0
H272 H 0.59466 0.07562 0.11768 0.0
C273 C 0.48342 0.04253 0.11443 0.0
C274 C 0.99574 0.55995 0.11622 0.0
C275 C 0.97746 0.51577 0.11547 0.0
H276 H 0.05574 0.60131 0.1171 0.0
C277 C 1.00756 0.47871 0.11556 0.0
H278 H 0.9736 0.58928 0.11565 0.0
C279 C 0.05471 0.48564 0.11605 0.0
C280 C 0.073 0.5298 0.11612 0.0
H281 H 0.99473 0.44427 0.11566 0.0
H282 H 0.07683 0.45629 0.11535 0.0
C283 C 0.0429 0.56688 0.11637 0.0
C284 C 1.02468 0.50213 0.45571 0.0
C285 C 1.02015 0.47891 0.40211 0.0
H286 H 0.03701 0.56617 0.49828 0.0
C287 C 1.02405 0.5033 0.34945 0.0
H288 H 1.02202 0.48392 0.49681 0.0
C289 C 0.03165 0.55014 0.35031 0.0
C290 C 0.03663 0.57334 0.40384 0.0
H291 H 1.02043 0.48619 0.30761 0.0
H292 H 0.03418 0.56825 0.30912 0.0
C293 C 0.0335 0.54888 0.45655 0.0
C294 C 0.55093 1.02325 0.35085 0.0
C295 C 0.57529 1.01924 0.40387 0.0
H296 H 0.4858 0.03321 0.30963 0.0
C297 C 0.55188 1.02324 0.45714 0.0
H298 H 0.56823 1.01999 0.30927 0.0
C299 C 0.50495 0.03169 0.45734 0.0
C300 C 0.48053 0.03499 0.40429 0.0
H301 H 0.57007 1.02046 0.49849 0.0
H302 H 0.48753 0.03486 0.49884 0.0
C303 C 0.5039 0.03049 0.35106 0.0
C304 C 0.35399 0.46718 0.11562 0.0
C305 C 0.32666 0.49048 0.07451 0.0
H306 H 0.38867 0.40565 0.13793 0.0
C307 C 0.31637 0.46921 0.02088 0.0
H308 H 0.36269 0.48252 0.15742 0.0
C309 C 0.33164 0.42511 0.00955 0.0
C310 C 0.35739 0.40101 0.05166 0.0
H311 H 0.29568 0.4862 0.98805 0.0
H312 H 0.32277 0.4098 0.96787 0.0
C313 C 0.36913 0.42301 0.10437 0.0
C314 C 0.5753 0.34307 0.97152 0.0
C315 C 0.55524 0.32823 0.02388 0.0
H316 H 0.6363 0.36668 0.92985 0.0
C317 C 0.58104 0.3297 0.07617 0.0
H318 H 0.55637 0.34206 0.93056 0.0
C319 C 0.62625 0.34501 0.0759 0.0
C320 C 0.64681 0.35782 0.0231 0.0
H321 H 0.56639 0.31851 0.11719 0.0
H322 H 0.64583 0.34497 0.11636 0.0
C323 C 0.6209 0.35704 0.97103 0.0
C324 C 0.682 0.62408 0.09401 0.0
C325 C 0.69815 0.64849 0.0454 0.0
H326 H 0.68349 0.56199 0.14254 0.0
C327 C 0.72696 0.62617 1.00557 0.0
H328 H 0.66008 0.64003 0.12587 0.0
C329 C 0.74065 0.58127 0.0153 0.0
C330 C 0.72584 0.55752 0.06511 0.0
H331 H 0.73938 0.64353 0.96705 0.0
H332 H 0.76375 0.56559 0.9845 0.0
C333 C 0.69566 0.57921 0.10371 0.0
C334 C 0.42643 0.68083 0.09977 0.0
C335 C 0.40233 0.6954 0.04969 0.0
H336 H 0.48811 0.68444 0.15007 0.0
C337 C 0.42487 0.7234 0.00906 0.0
H338 H 0.41028 0.65956 0.13223 0.0
C339 C 0.46965 0.73791 0.01941 0.0
C340 C 0.49302 0.72478 0.07069 0.0
H341 H 0.40775 0.7346 0.96945 0.0
H342 H 0.48545 0.76039 0.98795 0.0
C343 C 0.47116 0.69534 0.11013 0.0
C344 C 0.85414 0.08285 0.4102 0.0
C345 C 0.82508 0.06055 0.44971 0.0
H346 H 0.89017 0.14366 0.38868 0.0
C347 C 0.81283 0.08308 0.50158 0.0
H348 H 0.86441 0.06656 0.3698 0.0
C349 C 0.8279 0.12743 0.51255 0.0
C350 C 0.85558 0.15042 0.47194 0.0
H351 H 0.79071 0.0669 0.53314 0.0
H352 H 0.8174 0.14387 0.55268 0.0
C353 C 0.8692 0.12716 0.42116 0.0
C354 C 0.97192 0.81144 0.50207 0.0
C355 C 0.99338 0.82311 0.44927 0.0
H356 H 0.91215 0.81658 0.55472 0.0
C357 C 0.97014 0.85153 0.40948 0.0
H358 H 0.98883 0.78981 0.53386 0.0
C359 C 0.92597 0.86663 0.42125 0.0
C360 C 0.90383 0.85368 0.47312 0.0
H361 H 0.9856 0.86127 0.36836 0.0
H362 H 0.90868 0.88714 0.38865 0.0
C363 C 0.92773 0.82655 0.51384 0.0
C364 C 0.20243 0.96858 0.40805 0.0
C365 C 0.2306 0.99202 0.44811 0.0
H366 H 0.16713 0.90698 0.38726 0.0
C367 C 0.24219 0.9707 0.50132 0.0
H368 H 0.19276 0.9839 0.3666 0.0
C369 C 0.22725 0.92654 0.51328 0.0
C370 C 0.20036 0.90245 0.47236 0.0
H371 H 0.26362 0.98773 0.53336 0.0
H372 H 0.23716 0.91114 0.55453 0.0
C373 C 0.18748 0.9244 0.42002 0.0
C374 C 0.08554 0.20189 0.40639 0.0
C375 C 0.06229 0.23014 0.44595 0.0
H376 H 0.14696 0.16627 0.38647 0.0
C377 C 0.08382 0.24161 0.49921 0.0
H378 H 0.07006 0.19229 0.36492 0.0
C379 C 0.12802 0.22639 0.51173 0.0
C380 C 0.15192 0.19936 0.47131 0.0
H381 H 0.06693 0.26311 0.53085 0.0
H382 H 0.14358 0.23618 0.55301 0.0
C383 C 0.12973 0.18669 0.4189 0.0
C384 C 0.34175 0.18469 0.20934 0.0
C385 C 0.37822 0.21568 0.21116 0.0
H386 H 0.29677 0.14202 0.25815 0.0
C387 C 0.39416 0.2311 0.26585 0.0
H388 H 0.3285 0.17232 0.16782 0.0
C389 C 0.37588 0.21367 0.31773 0.0
C390 C 0.3413 0.18057 0.31579 0.0
H391 H 0.42216 0.25498 0.26866 0.0
H392 H 0.39026 0.22468 0.35927 0.0
C393 C 0.32347 0.16733 0.26112 0.0
C394 C 0.81942 0.38723 0.25793 0.0
C395 C 0.83561 0.37185 0.20363 0.0
H396 H 0.826 0.38413 0.35147 0.0
C397 C 0.86841 0.33709 0.20276 0.0
H398 H 0.79416 0.41394 0.26005 0.0
C399 C 0.88665 0.31998 0.25509 0.0
C400 C 0.87252 0.33737 0.30934 0.0
H401 H 0.88147 0.3244 0.16158 0.0
H402 H 0.91328 0.29464 0.2529 0.0
C403 C 0.83775 0.37018 0.3103 0.0
C404 C 0.68287 0.83846 0.31426 0.0
C405 C 0.71551 0.87341 0.31284 0.0
H406 H 0.63812 0.79533 0.26473 0.0
C407 C 0.73144 0.8886 0.25836 0.0
H408 H 0.67004 0.8259 0.35563 0.0
C409 C 0.71307 0.87109 0.2063 0.0
C410 C 0.67851 0.83802 0.20776 0.0
H411 H 0.75657 0.91545 0.25587 0.0
H412 H 0.72469 0.88483 0.16495 0.0
C413 C 0.66456 0.8209 0.2622 0.0
C414 C 0.21479 0.67978 0.31708 0.0
C415 C 0.18048 0.71305 0.31513 0.0
H416 H 0.25664 0.63405 0.2682 0.0
C417 C 0.16532 0.72912 0.26043 0.0
H418 H 0.22728 0.66681 0.35865 0.0
C419 C 0.18209 0.71027 0.20867 0.0
C420 C 0.21439 0.67507 0.21068 0.0
H421 H 0.13898 0.75476 0.25753 0.0
H422 H 0.16836 0.72206 0.16715 0.0
C423 C 0.23163 0.66097 0.2653 0.0
C424 C 0.64672 0.84874 0.77155 0.0
C425 C 0.64035 0.88145 0.8156 0.0
H426 H 0.66598 0.83538 0.68297 0.0
C427 C 0.64794 0.92749 0.80189 0.0
H428 H 0.64229 0.81296 0.78072 0.0
C429 C 0.66214 0.94033 0.74578 0.0
C430 C 0.66859 0.90749 0.702 0.0
H431 H 0.64287 0.95368 0.83453 0.0
H432 H 0.66756 0.97597 0.73644 0.0
C433 C 0.66059 0.8616 0.71551 0.0
C434 C 0.14945 0.62151 0.71915 0.0
C435 C 0.14086 0.66746 0.70592 0.0
H436 H 0.16937 0.5729 0.78462 0.0
C437 C 0.14557 0.69985 0.75081 0.0
H438 H 0.14564 0.59557 0.68581 0.0
C439 C 0.15889 0.68678 0.80723 0.0
C440 C 0.16796 0.641 0.82028 0.0
H441 H 0.1403 0.7356 0.74204 0.0
H442 H 0.16307 0.7128 0.84044 0.0
C443 C 0.16308 0.60846 0.77567 0.0
C444 C 0.35377 0.14573 0.74895 0.0
C445 C 0.38662 0.13519 0.70674 0.0
H446 H 0.34044 0.16789 0.83612 0.0
C447 C 0.43299 0.13737 0.7226 0.0
H448 H 0.31785 0.14545 0.73775 0.0
C449 C 0.44617 0.14987 0.7796 0.0
C450 C 0.41321 0.16074 0.82179 0.0
H451 H 0.45908 0.12931 0.69091 0.0
H452 H 0.48209 0.15069 0.79065 0.0
C453 C 0.36686 0.15861 0.8055 0.0
C454 C 0.90971 0.35169 0.7449 0.0
C455 C 0.91455 0.38461 0.70079 0.0
H456 H 0.89176 0.33762 0.8337 0.0
C457 C 0.90586 0.43037 0.71473 0.0
H458 H 0.91503 0.31606 0.73554 0.0
C459 C 0.89204 0.44275 0.77119 0.0
C460 C 0.88698 0.40968 0.81503 0.0
H461 H 0.9097 0.45669 0.68198 0.0
H462 H 0.88566 0.4782 0.78067 0.0
C463 C 0.89615 0.36407 0.80123 0.0
loop_
_geom_bond_atom_site_label_1
_geom_bond_atom_site_label_2
_geom_bond_distance
_geom_bond_site_symmetry_2
_ccdc_geom_bond_type
Co0 N4 2.148 . S
Co0 N10 2.128 . S
Co0 N20 2.194 1_554 S
Co0 O25 2.351 . S
Co0 O26 2.155 . S
Co0 O27 2.096 . S
C1 N4 1.301 . S
C1 N5 1.328 . S
C1 H6 0.930 . S
C2 C3 1.333 . S
C2 N4 1.317 . S
C2 H7 0.930 . S
C3 C2 1.333 . S
C3 N5 1.350 . S
C3 H29 0.931 . S
N4 Co0 2.148 . S
N4 C1 1.301 . S
N4 C2 1.317 . S
N5 C1 1.328 . S
N5 C3 1.350 . S
H6 C1 0.930 . S
H7 C2 0.930 . S
C8 O9 1.224 1_554 S
C8 O27 1.247 . S
O9 C8 1.224 1_556 S
N10 Co0 2.128 . S
N10 C11 1.355 . S
N10 C13 1.311 . S
C11 N10 1.355 . S
C11 C12 1.363 . S
C11 H23 0.929 . S
C12 C11 1.363 . S
C12 N14 1.375 . S
C12 H30 0.931 . S
C13 N10 1.311 . S
C13 N14 1.347 . S
C13 H24 0.929 . S
N14 C12 1.375 . S
N14 C13 1.347 . S
C15 C18 1.365 . S
C15 N20 1.328 . S
C15 H21 0.929 1_556 S
C16 C17 1.362 . S
C16 C19 1.378 . S
C16 H31 0.929 . S
C17 C16 1.362 . S
C17 C18 1.366 . S
C18 C15 1.365 . S
C18 C17 1.366 . S
C18 H32 0.930 . S
C19 C16 1.378 . S
C19 N20 1.315 . S
C19 H22 0.930 . S
N20 Co0 2.194 1_556 S
N20 C15 1.328 . S
N20 C19 1.315 . S
H21 C15 0.929 1_554 S
H22 C19 0.930 . S
H23 C11 0.929 . S
H24 C13 0.929 . S
O25 Co0 2.351 . S
O25 C28 1.244 . S
O26 Co0 2.155 . S
O26 C28 1.240 . S
O27 Co0 2.096 . S
O27 C8 1.247 . S
C28 O25 1.244 . S
C28 O26 1.240 . S
H29 C3 0.931 . S
H30 C12 0.931 . S
H31 C16 0.929 . S
H32 C18 0.930 . S
Co33 N37 2.148 . S
Co33 N43 2.128 . S
Co33 N53 2.194 1_554 S
Co33 O58 2.351 . S
Co33 O59 2.155 . S
Co33 O60 2.096 . S
C34 N37 1.301 . S
C34 N38 1.328 . S
C34 H39 0.930 . S
C35 C36 1.333 . S
C35 N37 1.317 . S
C35 H40 0.930 . S
C36 C35 1.333 . S
C36 N38 1.350 . S
C36 H62 0.931 . S
N37 Co33 2.148 . S
N37 C34 1.301 . S
N37 C35 1.317 . S
N38 C34 1.328 . S
N38 C36 1.350 . S
H39 C34 0.930 . S
H40 C35 0.930 . S
C41 O42 1.224 1_554 S
C41 O60 1.247 . S
O42 C41 1.224 1_556 S
N43 Co33 2.128 . S
N43 C44 1.355 . S
N43 C46 1.311 . S
C44 N43 1.355 . S
C44 C45 1.363 . S
C44 H56 0.929 . S
C45 C44 1.363 . S
C45 N47 1.375 . S
C45 H63 0.931 . S
C46 N43 1.311 . S
C46 N47 1.347 . S
C46 H57 0.929 . S
N47 C45 1.375 . S
N47 C46 1.347 . S
C48 C51 1.365 . S
C48 N53 1.328 . S
C48 H54 0.929 1_556 S
C49 C50 1.362 . S
C49 C52 1.378 . S
C49 H64 0.929 . S
C50 C49 1.362 . S
C50 C51 1.366 . S
C51 C48 1.365 . S
C51 C50 1.366 . S
C51 H65 0.930 . S
C52 C49 1.378 . S
C52 N53 1.315 . S
C52 H55 0.930 . S
N53 Co33 2.194 1_556 S
N53 C48 1.328 . S
N53 C52 1.315 . S
H54 C48 0.929 1_554 S
H55 C52 0.930 . S
H56 C44 0.929 . S
H57 C46 0.929 . S
O58 Co33 2.351 . S
O58 C61 1.244 . S
O59 Co33 2.155 . S
O59 C61 1.240 . S
O60 Co33 2.096 . S
O60 C41 1.247 . S
C61 O58 1.244 . S
C61 O59 1.240 . S
H62 C36 0.931 . S
H63 C45 0.931 . S
H64 C49 0.929 . S
H65 C51 0.930 . S
Co66 N70 2.148 . S
Co66 N76 2.128 . S
Co66 N86 2.194 1_554 S
Co66 O91 2.351 . S
Co66 O92 2.155 . S
Co66 O93 2.096 . S
C67 N70 1.301 . S
C67 N71 1.328 . S
C67 H72 0.930 . S
C68 C69 1.333 . S
C68 N70 1.317 . S
C68 H73 0.930 . S
C69 C68 1.333 . S
C69 N71 1.350 . S
C69 H95 0.931 . S
N70 Co66 2.148 . S
N70 C67 1.301 . S
N70 C68 1.317 . S
N71 C67 1.328 . S
N71 C69 1.350 . S
H72 C67 0.930 . S
H73 C68 0.930 . S
C74 O75 1.224 1_554 S
C74 O93 1.247 . S
O75 C74 1.224 1_556 S
N76 Co66 2.128 . S
N76 C77 1.355 . S
N76 C79 1.311 . S
C77 N76 1.355 . S
C77 C78 1.363 . S
C77 H89 0.929 . S
C78 C77 1.363 . S
C78 N80 1.375 . S
C78 H96 0.931 . S
C79 N76 1.311 . S
C79 N80 1.347 . S
C79 H90 0.929 . S
N80 C78 1.375 . S
N80 C79 1.347 . S
C81 C84 1.365 . S
C81 N86 1.328 . S
C81 H87 0.929 1_556 S
C82 C83 1.362 . S
C82 C85 1.378 . S
C82 H97 0.929 . S
C83 C82 1.362 . S
C83 C84 1.366 . S
C84 C81 1.365 . S
C84 C83 1.366 . S
C84 H98 0.930 . S
C85 C82 1.378 . S
C85 N86 1.315 . S
C85 H88 0.930 . S
N86 Co66 2.194 1_556 S
N86 C81 1.328 . S
N86 C85 1.315 . S
H87 C81 0.929 1_554 S
H88 C85 0.930 . S
H89 C77 0.929 . S
H90 C79 0.929 . S
O91 Co66 2.351 . S
O91 C94 1.244 . S
O92 Co66 2.155 . S
O92 C94 1.240 . S
O93 Co66 2.096 . S
O93 C74 1.247 . S
C94 O91 1.244 . S
C94 O92 1.240 . S
H95 C69 0.931 . S
H96 C78 0.931 . S
H97 C82 0.929 . S
H98 C84 0.930 . S
Co99 N103 2.148 . S
Co99 N109 2.128 . S
Co99 N119 2.194 1_554 S
Co99 O124 2.351 . S
Co99 O125 2.155 . S
Co99 O126 2.096 . S
C100 N103 1.301 . S
C100 N104 1.328 . S
C100 H105 0.930 . S
C101 C102 1.333 . S
C101 N103 1.317 . S
C101 H106 0.930 . S
C102 C101 1.333 . S
C102 N104 1.350 . S
C102 H128 0.931 . S
N103 Co99 2.148 . S
N103 C100 1.301 . S
N103 C101 1.317 . S
N104 C100 1.328 . S
N104 C102 1.350 . S
H105 C100 0.930 . S
H106 C101 0.930 . S
C107 O108 1.224 1_554 S
C107 O126 1.247 . S
O108 C107 1.224 1_556 S
N109 Co99 2.128 . S
N109 C110 1.355 . S
N109 C112 1.311 . S
C110 N109 1.355 . S
C110 C111 1.363 . S
C110 H122 0.929 . S
C111 C110 1.363 . S
C111 N113 1.375 . S
C111 H129 0.931 . S
C112 N109 1.311 . S
C112 N113 1.347 . S
C112 H123 0.929 . S
N113 C111 1.375 . S
N113 C112 1.347 . S
C114 C117 1.365 . S
C114 N119 1.328 . S
C114 H120 0.929 1_556 S
C115 C116 1.362 . S
C115 C118 1.378 . S
C115 H130 0.929 . S
C116 C115 1.362 . S
C116 C117 1.366 . S
C117 C114 1.365 . S
C117 C116 1.366 . S
C117 H131 0.930 . S
C118 C115 1.378 . S
C118 N119 1.315 . S
C118 H121 0.930 . S
N119 Co99 2.194 1_556 S
N119 C114 1.328 . S
N119 C118 1.315 . S
H120 C114 0.929 1_554 S
H121 C118 0.930 . S
H122 C110 0.929 . S
H123 C112 0.929 . S
O124 Co99 2.351 . S
O124 C127 1.244 . S
O125 Co99 2.155 . S
O125 C127 1.240 . S
O126 Co99 2.096 . S
O126 C107 1.247 . S
C127 O124 1.244 . S
C127 O125 1.240 . S
H128 C102 0.931 . S
H129 C111 0.931 . S
H130 C115 0.929 . S
H131 C117 0.930 . S
Co132 N136 2.148 . S
Co132 N142 2.128 . S
Co132 N152 2.194 . S
Co132 O157 2.351 . S
Co132 O158 2.155 . S
Co132 O159 2.096 . S
C133 N136 1.301 . S
C133 N137 1.328 . S
C133 H138 0.930 . S
C134 C135 1.333 . S
C134 N136 1.317 1_455 S
C134 H139 0.930 . S
C135 C134 1.333 . S
C135 N137 1.350 1_455 S
C135 H161 0.931 . S
N136 Co132 2.148 . S
N136 C133 1.301 . S
N136 C134 1.317 1_655 S
N137 C133 1.328 . S
N137 C135 1.350 1_655 S
H138 C133 0.930 . S
H139 C134 0.930 . S
C140 O141 1.224 . S
C140 O159 1.247 . S
O141 C140 1.224 . S
N142 Co132 2.128 . S
N142 C143 1.355 . S
N142 C145 1.311 . S
C143 N142 1.355 . S
C143 C144 1.363 . S
C143 H155 0.929 . S
C144 C143 1.363 . S
C144 N146 1.375 . S
C144 H162 0.931 . S
C145 N142 1.311 . S
C145 N146 1.347 . S
C145 H156 0.929 . S
N146 C144 1.375 . S
N146 C145 1.347 . S
C147 C150 1.365 . S
C147 N152 1.328 . S
C147 H153 0.929 . S
C148 C149 1.362 . S
C148 C151 1.378 . S
C148 H163 0.929 . S
C149 C148 1.362 . S
C149 C150 1.366 . S
C150 C147 1.365 . S
C150 C149 1.366 . S
C150 H164 0.930 . S
C151 C148 1.378 . S
C151 N152 1.315 . S
C151 H154 0.930 . S
N152 Co132 2.194 . S
N152 C147 1.328 . S
N152 C151 1.315 . S
H153 C147 0.929 . S
H154 C151 0.930 . S
H155 C143 0.929 . S
H156 C145 0.929 . S
O157 Co132 2.351 . S
O157 C160 1.244 . S
O158 Co132 2.155 . S
O158 C160 1.240 . S
O159 Co132 2.096 . S
O159 C140 1.247 . S
C160 O157 1.244 . S
C160 O158 1.240 . S
H161 C135 0.931 . S
H162 C144 0.931 . S
H163 C148 0.929 . S
H164 C150 0.930 . S
Co165 N169 2.148 . S
Co165 N175 2.128 . S
Co165 N185 2.194 . S
Co165 O190 2.351 . S
Co165 O191 2.155 . S
Co165 O192 2.096 . S
C166 N169 1.301 . S
C166 N170 1.328 . S
C166 H171 0.930 . S
C167 C168 1.333 . S
C167 N169 1.317 1_545 S
C167 H172 0.930 . S
C168 C167 1.333 . S
C168 N170 1.350 1_545 S
C168 H194 0.931 . S
N169 Co165 2.148 . S
N169 C166 1.301 . S
N169 C167 1.317 1_565 S
N170 C166 1.328 . S
N170 C168 1.350 1_565 S
H171 C166 0.930 . S
H172 C167 0.930 . S
C173 O174 1.224 . S
C173 O192 1.247 . S
O174 C173 1.224 . S
N175 Co165 2.128 . S
N175 C176 1.355 . S
N175 C178 1.311 . S
C176 N175 1.355 . S
C176 C177 1.363 . S
C176 H188 0.929 . S
C177 C176 1.363 . S
C177 N179 1.375 . S
C177 H195 0.931 . S
C178 N175 1.311 . S
C178 N179 1.347 . S
C178 H189 0.929 . S
N179 C177 1.375 . S
N179 C178 1.347 . S
C180 C183 1.365 . S
C180 N185 1.328 . S
C180 H186 0.929 . S
C181 C182 1.362 . S
C181 C184 1.378 . S
C181 H196 0.929 . S
C182 C181 1.362 . S
C182 C183 1.366 . S
C183 C180 1.365 . S
C183 C182 1.366 . S
C183 H197 0.930 . S
C184 C181 1.378 . S
C184 N185 1.315 . S
C184 H187 0.930 . S
N185 Co165 2.194 . S
N185 C180 1.328 . S
N185 C184 1.315 . S
H186 C180 0.929 . S
H187 C184 0.930 . S
H188 C176 0.929 . S
H189 C178 0.929 . S
O190 Co165 2.351 . S
O190 C193 1.244 . S
O191 Co165 2.155 . S
O191 C193 1.240 . S
O192 Co165 2.096 . S
O192 C173 1.247 . S
C193 O190 1.244 . S
C193 O191 1.240 . S
H194 C168 0.931 . S
H195 C177 0.931 . S
H196 C181 0.929 . S
H197 C183 0.930 . S
Co198 N202 2.148 . S
Co198 N208 2.128 . S
Co198 N218 2.194 . S
Co198 O223 2.351 . S
Co198 O224 2.155 . S
Co198 O225 2.096 . S
C199 N202 1.301 . S
C199 N203 1.328 . S
C199 H204 0.930 . S
C200 C201 1.333 . S
C200 N202 1.317 1_655 S
C200 H205 0.930 . S
C201 C200 1.333 . S
C201 N203 1.350 1_655 S
C201 H227 0.931 . S
N202 Co198 2.148 . S
N202 C199 1.301 . S
N202 C200 1.317 1_455 S
N203 C199 1.328 . S
N203 C201 1.350 1_455 S
H204 C199 0.930 . S
H205 C200 0.930 . S
C206 O207 1.224 . S
C206 O225 1.247 . S
O207 C206 1.224 . S
N208 Co198 2.128 . S
N208 C209 1.355 . S
N208 C211 1.311 . S
C209 N208 1.355 . S
C209 C210 1.363 . S
C209 H221 0.929 . S
C210 C209 1.363 . S
C210 N212 1.375 . S
C210 H228 0.931 . S
C211 N208 1.311 . S
C211 N212 1.347 . S
C211 H222 0.929 . S
N212 C210 1.375 . S
N212 C211 1.347 . S
C213 C216 1.365 . S
C213 N218 1.328 . S
C213 H219 0.929 . S
C214 C215 1.362 . S
C214 C217 1.378 . S
C214 H229 0.929 . S
C215 C214 1.362 . S
C215 C216 1.366 . S
C216 C213 1.365 . S
C216 C215 1.366 . S
C216 H230 0.930 . S
C217 C214 1.378 . S
C217 N218 1.315 . S
C217 H220 0.930 . S
N218 Co198 2.194 . S
N218 C213 1.328 . S
N218 C217 1.315 . S
H219 C213 0.929 . S
H220 C217 0.930 . S
H221 C209 0.929 . S
H222 C211 0.929 . S
O223 Co198 2.351 . S
O223 C226 1.244 . S
O224 Co198 2.155 . S
O224 C226 1.240 . S
O225 Co198 2.096 . S
O225 C206 1.247 . S
C226 O223 1.244 . S
C226 O224 1.240 . S
H227 C201 0.931 . S
H228 C210 0.931 . S
H229 C214 0.929 . S
H230 C216 0.930 . S
Co231 N235 2.148 . S
Co231 N241 2.128 . S
Co231 N251 2.194 . S
Co231 O256 2.351 . S
Co231 O257 2.155 . S
Co231 O258 2.096 . S
C232 N235 1.301 . S
C232 N236 1.328 . S
C232 H237 0.930 . S
C233 C234 1.333 . S
C233 N235 1.317 1_565 S
C233 H238 0.930 . S
C234 C233 1.333 . S
C234 N236 1.350 1_565 S
C234 H260 0.931 . S
N235 Co231 2.148 . S
N235 C232 1.301 . S
N235 C233 1.317 1_545 S
N236 C232 1.328 . S
N236 C234 1.350 1_545 S
H237 C232 0.930 . S
H238 C233 0.930 . S
C239 O240 1.224 . S
C239 O258 1.247 . S
O240 C239 1.224 . S
N241 Co231 2.128 . S
N241 C242 1.355 . S
N241 C244 1.311 . S
C242 N241 1.355 . S
C242 C243 1.363 . S
C242 H254 0.929 . S
C243 C242 1.363 . S
C243 N245 1.375 . S
C243 H261 0.931 . S
C244 N241 1.311 . S
C244 N245 1.347 . S
C244 H255 0.929 . S
N245 C243 1.375 . S
N245 C244 1.347 . S
C246 C249 1.365 . S
C246 N251 1.328 . S
C246 H252 0.929 . S
C247 C248 1.362 . S
C247 C250 1.378 . S
C247 H262 0.929 . S
C248 C247 1.362 . S
C248 C249 1.366 . S
C249 C246 1.365 . S
C249 C248 1.366 . S
C249 H263 0.930 . S
C250 C247 1.378 . S
C250 N251 1.315 . S
C250 H253 0.930 . S
N251 Co231 2.194 . S
N251 C246 1.328 . S
N251 C250 1.315 . S
H252 C246 0.929 . S
H253 C250 0.930 . S
H254 C242 0.929 . S
H255 C244 0.929 . S
O256 Co231 2.351 . S
O256 C259 1.244 . S
O257 Co231 2.155 . S
O257 C259 1.240 . S
O258 Co231 2.096 . S
O258 C239 1.247 . S
C259 O256 1.244 . S
C259 O257 1.240 . S
H260 C234 0.931 . S
H261 C243 0.931 . S
H262 C247 0.929 . S
H263 C249 0.930 . S
C264 C265 1.387 . S
C264 H268 0.950 . S
C264 C273 1.390 1_565 S
C265 C264 1.387 . S
C265 C267 1.387 . S
H266 C273 0.950 . S
C267 C265 1.387 . S
C267 C269 1.390 1_565 S
C267 H271 0.950 1_554 S
H268 C264 0.950 . S
C269 C267 1.390 1_545 S
C269 C270 1.387 . S
C269 H272 0.950 1_554 S
C270 C269 1.387 . S
C270 C273 1.387 . S
H271 C267 0.950 1_556 S
H272 C269 0.950 1_556 S
C273 C264 1.390 1_545 S
C273 H266 0.950 . S
C273 C270 1.387 . S
C274 C275 1.387 . S
C274 H278 0.950 . S
C274 C283 1.390 1_655 S
C275 C274 1.387 . S
C275 C277 1.387 . S
H276 C283 0.950 . S
C277 C275 1.387 . S
C277 C279 1.390 1_655 S
C277 H281 0.950 1_554 S
H278 C274 0.950 . S
C279 C277 1.390 1_455 S
C279 C280 1.387 . S
C279 H282 0.950 1_554 S
C280 C279 1.387 . S
C280 C283 1.387 . S
H281 C277 0.950 1_556 S
H282 C279 0.950 1_556 S
C283 C274 1.390 1_455 S
C283 H276 0.950 . S
C283 C280 1.387 . S
C284 C285 1.387 . S
C284 H288 0.950 . S
C284 C293 1.390 1_655 S
C285 C284 1.387 . S
C285 C287 1.387 . S
H286 C293 0.950 . S
C287 C285 1.387 . S
C287 C289 1.390 1_655 S
C287 H291 0.950 . S
H288 C284 0.950 . S
C289 C287 1.390 1_455 S
C289 C290 1.387 . S
C289 H292 0.950 . S
C290 C289 1.387 . S
C290 C293 1.387 . S
H291 C287 0.950 . S
H292 C289 0.950 . S
C293 C284 1.390 1_455 S
C293 H286 0.950 . S
C293 C290 1.387 . S
C294 C295 1.387 . S
C294 H298 0.950 . S
C294 C303 1.390 1_565 S
C295 C294 1.387 . S
C295 C297 1.387 . S
H296 C303 0.950 . S
C297 C295 1.387 . S
C297 C299 1.390 1_565 S
C297 H301 0.950 . S
H298 C294 0.950 . S
C299 C297 1.390 1_545 S
C299 C300 1.387 . S
C299 H302 0.950 . S
C300 C299 1.387 . S
C300 C303 1.387 . S
H301 C297 0.950 . S
H302 C299 0.950 . S
C303 C294 1.390 1_545 S
C303 H296 0.950 . S
C303 C300 1.387 . S
C304 C305 1.387 1_556 S
C304 H308 0.950 . S
C304 C313 1.390 . S
C305 C304 1.387 1_554 S
C305 C307 1.387 . S
H306 C313 0.950 . S
C307 C305 1.387 . S
C307 C309 1.390 . S
C307 H311 0.950 . S
H308 C304 0.950 . S
C309 C307 1.390 . S
C309 C310 1.387 . S
C309 H312 0.950 . S
C310 C309 1.387 . S
C310 C313 1.387 1_554 S
H311 C307 0.950 . S
H312 C309 0.950 . S
C313 C304 1.390 . S
C313 H306 0.950 . S
C313 C310 1.387 1_556 S
C314 C315 1.387 1_556 S
C314 H318 0.950 . S
C314 C323 1.390 . S
C315 C314 1.387 1_554 S
C315 C317 1.387 . S
H316 C323 0.950 . S
C317 C315 1.387 . S
C317 C319 1.390 . S
C317 H321 0.950 . S
H318 C314 0.950 . S
C319 C317 1.390 . S
C319 C320 1.387 . S
C319 H322 0.950 . S
C320 C319 1.387 . S
C320 C323 1.387 1_554 S
H321 C317 0.950 . S
H322 C319 0.950 . S
C323 C314 1.390 . S
C323 H316 0.950 . S
C323 C320 1.387 1_556 S
C324 C325 1.387 1_556 S
C324 H328 0.950 . S
C324 C333 1.390 . S
C325 C324 1.387 1_554 S
C325 C327 1.387 . S
H326 C333 0.950 . S
C327 C325 1.387 . S
C327 C329 1.390 . S
C327 H331 0.950 . S
H328 C324 0.950 . S
C329 C327 1.390 . S
C329 C330 1.387 . S
C329 H332 0.950 . S
C330 C329 1.387 . S
C330 C333 1.387 1_554 S
H331 C327 0.950 . S
H332 C329 0.950 . S
C333 C324 1.390 . S
C333 H326 0.950 . S
C333 C330 1.387 1_556 S
C334 C335 1.387 1_556 S
C334 H338 0.950 . S
C334 C343 1.390 . S
C335 C334 1.387 1_554 S
C335 C337 1.387 . S
H336 C343 0.950 . S
C337 C335 1.387 . S
C337 C339 1.390 . S
C337 H341 0.950 . S
H338 C334 0.950 . S
C339 C337 1.390 . S
C339 C340 1.387 . S
C339 H342 0.950 . S
C340 C339 1.387 . S
C340 C343 1.387 1_554 S
H341 C337 0.950 . S
H342 C339 0.950 . S
C343 C334 1.390 . S
C343 H336 0.950 . S
C343 C340 1.387 1_556 S
C344 C345 1.387 . S
C344 H348 0.950 . S
C344 C353 1.390 . S
C345 C344 1.387 . S
C345 C347 1.387 . S
H346 C353 0.950 . S
C347 C345 1.387 . S
C347 C349 1.390 . S
C347 H351 0.950 . S
H348 C344 0.950 . S
C349 C347 1.390 . S
C349 C350 1.387 . S
C349 H352 0.950 . S
C350 C349 1.387 . S
C350 C353 1.387 . S
H351 C347 0.950 . S
H352 C349 0.950 . S
C353 C344 1.390 . S
C353 H346 0.950 . S
C353 C350 1.387 . S
C354 C355 1.387 . S
C354 H358 0.950 . S
C354 C363 1.390 . S
C355 C354 1.387 . S
C355 C357 1.387 . S
H356 C363 0.950 . S
C357 C355 1.387 . S
C357 C359 1.390 . S
C357 H361 0.950 . S
H358 C354 0.950 . S
C359 C357 1.390 . S
C359 C360 1.387 . S
C359 H362 0.950 . S
C360 C359 1.387 . S
C360 C363 1.387 . S
H361 C357 0.950 . S
H362 C359 0.950 . S
C363 C354 1.390 . S
C363 H356 0.950 . S
C363 C360 1.387 . S
C364 C365 1.387 . S
C364 H368 0.950 . S
C364 C373 1.390 . S
C365 C364 1.387 . S
C365 C367 1.387 . S
H366 C373 0.950 . S
C367 C365 1.387 . S
C367 C369 1.390 . S
C367 H371 0.950 . S
H368 C364 0.950 . S
C369 C367 1.390 . S
C369 C370 1.387 . S
C369 H372 0.950 . S
C370 C369 1.387 . S
C370 C373 1.387 . S
H371 C367 0.950 . S
H372 C369 0.950 . S
C373 C364 1.390 . S
C373 H366 0.950 . S
C373 C370 1.387 . S
C374 C375 1.387 . S
C374 H378 0.950 . S
C374 C383 1.390 . S
C375 C374 1.387 . S
C375 C377 1.387 . S
H376 C383 0.950 . S
C377 C375 1.387 . S
C377 C379 1.390 . S
C377 H381 0.950 . S
H378 C374 0.950 . S
C379 C377 1.390 . S
C379 C380 1.387 . S
C379 H382 0.950 . S
C380 C379 1.387 . S
C380 C383 1.387 . S
H381 C377 0.950 . S
H382 C379 0.950 . S
C383 C374 1.390 . S
C383 H376 0.950 . S
C383 C380 1.387 . S
C384 C385 1.387 . S
C384 H388 0.950 . S
C384 C393 1.390 . S
C385 C384 1.387 . S
C385 C387 1.387 . S
H386 C393 0.950 . S
C387 C385 1.387 . S
C387 C389 1.390 . S
C387 H391 0.950 . S
H388 C384 0.950 . S
C389 C387 1.390 . S
C389 C390 1.387 . S
C389 H392 0.950 . S
C390 C389 1.387 . S
C390 C393 1.387 . S
H391 C387 0.950 . S
H392 C389 0.950 . S
C393 C384 1.390 . S
C393 H386 0.950 . S
C393 C390 1.387 . S
C394 C395 1.387 . S
C394 H398 0.950 . S
C394 C403 1.390 . S
C395 C394 1.387 . S
C395 C397 1.387 . S
H396 C403 0.950 . S
C397 C395 1.387 . S
C397 C399 1.390 . S
C397 H401 0.950 . S
H398 C394 0.950 . S
C399 C397 1.390 . S
C399 C400 1.387 . S
C399 H402 0.950 . S
C400 C399 1.387 . S
C400 C403 1.387 . S
H401 C397 0.950 . S
H402 C399 0.950 . S
C403 C394 1.390 . S
C403 H396 0.950 . S
C403 C400 1.387 . S
C404 C405 1.387 . S
C404 H408 0.950 . S
C404 C413 1.390 . S
C405 C404 1.387 . S
C405 C407 1.387 . S
H406 C413 0.950 . S
C407 C405 1.387 . S
C407 C409 1.390 . S
C407 H411 0.950 . S
H408 C404 0.950 . S
C409 C407 1.390 . S
C409 C410 1.387 . S
C409 H412 0.950 . S
C410 C409 1.387 . S
C410 C413 1.387 . S
H411 C407 0.950 . S
H412 C409 0.950 . S
C413 C404 1.390 . S
C413 H406 0.950 . S
C413 C410 1.387 . S
C414 C415 1.387 . S
C414 H418 0.950 . S
C414 C423 1.390 . S
C415 C414 1.387 . S
C415 C417 1.387 . S
H416 C423 0.950 . S
C417 C415 1.387 . S
C417 C419 1.390 . S
C417 H421 0.950 . S
H418 C414 0.950 . S
C419 C417 1.390 . S
C419 C420 1.387 . S
C419 H422 0.950 . S
C420 C419 1.387 . S
C420 C423 1.387 . S
H421 C417 0.950 . S
H422 C419 0.950 . S
C423 C414 1.390 . S
C423 H416 0.950 . S
C423 C420 1.387 . S
C424 C425 1.387 . S
C424 H428 0.950 . S
C424 C433 1.390 . S
C425 C424 1.387 . S
C425 C427 1.387 . S
H426 C433 0.950 . S
C427 C425 1.387 . S
C427 C429 1.390 . S
C427 H431 0.950 . S
H428 C424 0.950 . S
C429 C427 1.390 . S
C429 C430 1.387 . S
C429 H432 0.950 . S
C430 C429 1.387 . S
C430 C433 1.387 . S
H431 C427 0.950 . S
H432 C429 0.950 . S
C433 C424 1.390 . S
C433 H426 0.950 . S
C433 C430 1.387 . S
C434 C435 1.387 . S
C434 H438 0.950 . S
C434 C443 1.390 . S
C435 C434 1.387 . S
C435 C437 1.387 . S
H436 C443 0.950 . S
C437 C435 1.387 . S
C437 C439 1.390 . S
C437 H441 0.950 . S
H438 C434 0.950 . S
C439 C437 1.390 . S
C439 C440 1.387 . S
C439 H442 0.950 . S
C440 C439 1.387 . S
C440 C443 1.387 . S
H441 C437 0.950 . S
H442 C439 0.950 . S
C443 C434 1.390 . S
C443 H436 0.950 . S
C443 C440 1.387 . S
C444 C445 1.387 . S
C444 H448 0.950 . S
C444 C453 1.390 . S
C445 C444 1.387 . S
C445 C447 1.387 . S
H446 C453 0.950 . S
C447 C445 1.387 . S
C447 C449 1.390 . S
C447 H451 0.950 . S
H448 C444 0.950 . S
C449 C447 1.390 . S
C449 C450 1.387 . S
C449 H452 0.950 . S
C450 C449 1.387 . S
C450 C453 1.387 . S
H451 C447 0.950 . S
H452 C449 0.950 . S
C453 C444 1.390 . S
C453 H446 0.950 . S
C453 C450 1.387 . S
C454 C455 1.387 . S
C454 H458 0.950 . S
C454 C463 1.390 . S
C455 C454 1.387 . S
C455 C457 1.387 . S
H456 C463 0.950 . S
C457 C455 1.387 . S
C457 C459 1.390 . S
C457 H461 0.950 . S
H458 C454 0.950 . S
C459 C457 1.390 . S
C459 C460 1.387 . S
C459 H462 0.950 . S
C460 C459 1.387 . S
C460 C463 1.387 . S
H461 C457 0.950 . S
H462 C459 0.950 . S
C463 C454 1.390 . S
C463 H456 0.950 . S
C463 C460 1.387 . S
C265 N71 1.550 . S
C270 N5 1.550 . S
C275 N38 1.551 . S
C280 N104 1.551 . S
C285 N137 1.551 . S
C290 N203 1.551 . S
C295 N170 1.550 . S
C300 N236 1.550 . S
C305 C107 1.596 . S
C310 N14 1.531 . S
C315 C8 1.596 . S
C320 N47 1.531 . S
C325 N80 1.531 . S
C330 C41 1.596 . S
C335 N113 1.531 . S
C340 C74 1.596 . S
C345 C173 1.596 1_545 S
C350 N146 1.531 . S
C355 C206 1.596 1_655 S
C360 N179 1.528 . S
C365 C239 1.596 1_565 S
C370 N212 1.531 . S
C375 C140 1.596 1_455 S
C380 N245 1.531 . S
C385 C28 1.406 . S
C390 C259 1.406 . S
C395 C61 1.406 . S
C400 C160 1.406 . S
C405 C193 1.406 . S
C410 C94 1.406 . S
C415 C226 1.405 . S
C420 C127 1.405 . S
C425 C83 1.490 . S
C430 C182 1.490 . S
C435 C215 1.489 . S
C440 C116 1.490 . S
C445 C248 1.490 . S
C450 C17 1.490 . S
C455 C149 1.490 . S
C460 C50 1.489 . S
