# Generated by pormake.
# Topology pyr-e, (6)-cn, num edge types: 1
# Building blocks:
#     Node 0, Type 0, BuildingBlock: OJICUG_clean_sbu_0, # of connection points: 6
#     Node 1, Type 0, BuildingBlock: OJICUG_clean_sbu_0, # of connection points: 6
#     Node 2, Type 0, BuildingBlock: OJICUG_clean_sbu_0, # of connection points: 6
#     Node 3, Type 0, BuildingBlock: OJICUG_clean_sbu_0, # of connection points: 6
#     Node 4, Type 0, BuildingBlock: OJICUG_clean_sbu_0, # of connection points: 6
#     Node 5, Type 0, BuildingBlock: OJICUG_clean_sbu_0, # of connection points: 6
#     Node 6, Type 0, BuildingBlock: OJICUG_clean_sbu_0, # of connection points: 6
#     Node 7, Type 0, BuildingBlock: OJICUG_clean_sbu_0, # of connection points: 6
#     Node 8, Type 0, BuildingBlock: OJICUG_clean_sbu_0, # of connection points: 6
#     Node 9, Type 0, BuildingBlock: OJICUG_clean_sbu_0, # of connection points: 6
#     Node 10, Type 0, BuildingBlock: OJICUG_clean_sbu_0, # of connection points: 6
#     Node 11, Type 0, BuildingBlock: OJICUG_clean_sbu_0, # of connection points: 6
#     Node 12, Type 0, BuildingBlock: OJICUG_clean_sbu_0, # of connection points: 6
#     Node 13, Type 0, BuildingBlock: OJICUG_clean_sbu_0, # of connection points: 6
#     Node 14, Type 0, BuildingBlock: OJICUG_clean_sbu_0, # of connection points: 6
#     Node 15, Type 0, BuildingBlock: OJICUG_clean_sbu_0, # of connection points: 6
#     Node 16, Type 0, BuildingBlock: OJICUG_clean_sbu_0, # of connection points: 6
#     Node 17, Type 0, BuildingBlock: OJICUG_clean_sbu_0, # of connection points: 6
#     Node 18, Type 0, BuildingBlock: OJICUG_clean_sbu_0, # of connection points: 6
#     Node 19, Type 0, BuildingBlock: OJICUG_clean_sbu_0, # of connection points: 6
#     Node 20, Type 0, BuildingBlock: OJICUG_clean_sbu_0, # of connection points: 6
#     Node 21, Type 0, BuildingBlock: OJICUG_clean_sbu_0, # of connection points: 6
#     Node 22, Type 0, BuildingBlock: OJICUG_clean_sbu_0, # of connection points: 6
#     Node 23, Type 0, BuildingBlock: OJICUG_clean_sbu_0, # of connection points: 6
#     Edge 24, Type (0, 0), BuildingBlock: OJICUG_clean_linker_0, # of connection points: 2
#     Edge 25, Type (0, 0), BuildingBlock: OJICUG_clean_linker_0, # of connection points: 2
#     Edge 26, Type (0, 0), BuildingBlock: OJICUG_clean_linker_0, # of connection points: 2
#     Edge 27, Type (0, 0), BuildingBlock: OJICUG_clean_linker_0, # of connection points: 2
#     Edge 28, Type (0, 0), BuildingBlock: OJICUG_clean_linker_0, # of connection points: 2
#     Edge 29, Type (0, 0), BuildingBlock: OJICUG_clean_linker_0, # of connection points: 2
#     Edge 30, Type (0, 0), BuildingBlock: OJICUG_clean_linker_0, # of connection points: 2
#     Edge 31, Type (0, 0), BuildingBlock: OJICUG_clean_linker_0, # of connection points: 2
#     Edge 32, Type (0, 0), BuildingBlock: OJICUG_clean_linker_0, # of connection points: 2
#     Edge 33, Type (0, 0), BuildingBlock: OJICUG_clean_linker_0, # of connection points: 2
#     Edge 34, Type (0, 0), BuildingBlock: OJICUG_clean_linker_0, # of connection points: 2
#     Edge 35, Type (0, 0), BuildingBlock: OJICUG_clean_linker_0, # of connection points: 2
#     Edge 36, Type (0, 0), BuildingBlock: OJICUG_clean_linker_0, # of connection points: 2
#     Edge 37, Type (0, 0), BuildingBlock: OJICUG_clean_linker_0, # of connection points: 2
#     Edge 38, Type (0, 0), BuildingBlock: OJICUG_clean_linker_0, # of connection points: 2
#     Edge 39, Type (0, 0), BuildingBlock: OJICUG_clean_linker_0, # of connection points: 2
#     Edge 40, Type (0, 0), BuildingBlock: OJICUG_clean_linker_0, # of connection points: 2
#     Edge 41, Type (0, 0), BuildingBlock: OJICUG_clean_linker_0, # of connection points: 2
#     Edge 42, Type (0, 0), BuildingBlock: OJICUG_clean_linker_0, # of connection points: 2
#     Edge 43, Type (0, 0), BuildingBlock: OJICUG_clean_linker_0, # of connection points: 2
#     Edge 44, Type (0, 0), BuildingBlock: OJICUG_clean_linker_0, # of connection points: 2
#     Edge 45, Type (0, 0), BuildingBlock: OJICUG_clean_linker_0, # of connection points: 2
#     Edge 46, Type (0, 0), BuildingBlock: OJICUG_clean_linker_0, # of connection points: 2
#     Edge 47, Type (0, 0), BuildingBlock: OJICUG_clean_linker_0, # of connection points: 2
#     Edge 48, Type (0, 0), BuildingBlock: OJICUG_clean_linker_0, # of connection points: 2
#     Edge 49, Type (0, 0), BuildingBlock: OJICUG_clean_linker_0, # of connection points: 2
#     Edge 50, Type (0, 0), BuildingBlock: OJICUG_clean_linker_0, # of connection points: 2
#     Edge 51, Type (0, 0), BuildingBlock: OJICUG_clean_linker_0, # of connection points: 2
#     Edge 52, Type (0, 0), BuildingBlock: OJICUG_clean_linker_0, # of connection points: 2
#     Edge 53, Type (0, 0), BuildingBlock: OJICUG_clean_linker_0, # of connection points: 2
#     Edge 54, Type (0, 0), BuildingBlock: OJICUG_clean_linker_0, # of connection points: 2
#     Edge 55, Type (0, 0), BuildingBlock: OJICUG_clean_linker_0, # of connection points: 2
#     Edge 56, Type (0, 0), BuildingBlock: OJICUG_clean_linker_0, # of connection points: 2
#     Edge 57, Type (0, 0), BuildingBlock: OJICUG_clean_linker_0, # of connection points: 2
#     Edge 58, Type (0, 0), BuildingBlock: OJICUG_clean_linker_0, # of connection points: 2
#     Edge 59, Type (0, 0), BuildingBlock: OJICUG_clean_linker_0, # of connection points: 2
#     Edge 60, Type (0, 0), BuildingBlock: OJICUG_clean_linker_0, # of connection points: 2
#     Edge 61, Type (0, 0), BuildingBlock: OJICUG_clean_linker_0, # of connection points: 2
#     Edge 62, Type (0, 0), BuildingBlock: OJICUG_clean_linker_0, # of connection points: 2
#     Edge 63, Type (0, 0), BuildingBlock: OJICUG_clean_linker_0, # of connection points: 2
#     Edge 64, Type (0, 0), BuildingBlock: OJICUG_clean_linker_0, # of connection points: 2
#     Edge 65, Type (0, 0), BuildingBlock: OJICUG_clean_linker_0, # of connection points: 2
#     Edge 66, Type (0, 0), BuildingBlock: OJICUG_clean_linker_0, # of connection points: 2
#     Edge 67, Type (0, 0), BuildingBlock: OJICUG_clean_linker_0, # of connection points: 2
#     Edge 68, Type (0, 0), BuildingBlock: OJICUG_clean_linker_0, # of connection points: 2
#     Edge 69, Type (0, 0), BuildingBlock: OJICUG_clean_linker_0, # of connection points: 2
#     Edge 70, Type (0, 0), BuildingBlock: OJICUG_clean_linker_0, # of connection points: 2
#     Edge 71, Type (0, 0), BuildingBlock: OJICUG_clean_linker_0, # of connection points: 2
#     Edge 72, Type (0, 0), BuildingBlock: OJICUG_clean_linker_0, # of connection points: 2
#     Edge 73, Type (0, 0), BuildingBlock: OJICUG_clean_linker_0, # of connection points: 2
#     Edge 74, Type (0, 0), BuildingBlock: OJICUG_clean_linker_0, # of connection points: 2
#     Edge 75, Type (0, 0), BuildingBlock: OJICUG_clean_linker_0, # of connection points: 2
#     Edge 76, Type (0, 0), BuildingBlock: OJICUG_clean_linker_0, # of connection points: 2
#     Edge 77, Type (0, 0), BuildingBlock: OJICUG_clean_linker_0, # of connection points: 2
#     Edge 78, Type (0, 0), BuildingBlock: OJICUG_clean_linker_0, # of connection points: 2
#     Edge 79, Type (0, 0), BuildingBlock: OJICUG_clean_linker_0, # of connection points: 2
#     Edge 80, Type (0, 0), BuildingBlock: OJICUG_clean_linker_0, # of connection points: 2
#     Edge 81, Type (0, 0), BuildingBlock: OJICUG_clean_linker_0, # of connection points: 2
#     Edge 82, Type (0, 0), BuildingBlock: OJICUG_clean_linker_0, # of connection points: 2
#     Edge 83, Type (0, 0), BuildingBlock: OJICUG_clean_linker_0, # of connection points: 2
#     Edge 84, Type (0, 0), BuildingBlock: OJICUG_clean_linker_0, # of connection points: 2
#     Edge 85, Type (0, 0), BuildingBlock: OJICUG_clean_linker_0, # of connection points: 2
#     Edge 86, Type (0, 0), BuildingBlock: OJICUG_clean_linker_0, # of connection points: 2
#     Edge 87, Type (0, 0), BuildingBlock: OJICUG_clean_linker_0, # of connection points: 2
#     Edge 88, Type (0, 0), BuildingBlock: OJICUG_clean_linker_0, # of connection points: 2
#     Edge 89, Type (0, 0), BuildingBlock: OJICUG_clean_linker_0, # of connection points: 2
#     Edge 90, Type (0, 0), BuildingBlock: OJICUG_clean_linker_0, # of connection points: 2
#     Edge 91, Type (0, 0), BuildingBlock: OJICUG_clean_linker_0, # of connection points: 2
#     Edge 92, Type (0, 0), BuildingBlock: OJICUG_clean_linker_0, # of connection points: 2
#     Edge 93, Type (0, 0), BuildingBlock: OJICUG_clean_linker_0, # of connection points: 2
#     Edge 94, Type (0, 0), BuildingBlock: OJICUG_clean_linker_0, # of connection points: 2
#     Edge 95, Type (0, 0), BuildingBlock: OJICUG_clean_linker_0, # of connection points: 2
# Relax obj value: 0.593
# Max RMSD: 0.261
# Mean RMSD: 0.261
data_MOF--net-pyr-e--node1-OJICUG_clean_sbu_0--edge1-OJICUG_clean_linker_0
_symmetry_space_group_name_H-M    P1
_symmetry_Int_Tables_number       1
_symmetry_cell_setting            triclinic
loop_
_symmetry_equiv_pos_as_xyz
'x, y, z'
_cell_length_a     32.978008
_cell_length_b     32.968882
_cell_length_c     32.964272
_cell_angle_alpha  89.958637
_cell_angle_beta   90.036677
_cell_angle_gamma 90.149316
loop_
_atom_site_label
_atom_site_type_symbol
_atom_site_fract_x
_atom_site_fract_y
_atom_site_fract_z
_atom_type_partial_charge
Sc0 Sc 0.96316 0.21013 0.96481 0.0
Sc1 Sc 0.04251 0.21722 0.03878 0.0
Sc2 Sc 0.0082 0.304 0.99027 0.0
O3 O 0.00444 0.24354 0.99792 0.0
C4 C 0.99329 0.2758 0.89957 0.0
C5 C 0.04401 0.15757 0.96209 0.0
C6 C 0.1017 0.28339 0.00075 0.0
C7 C 0.96135 0.16493 0.05059 0.0
C8 C 0.91234 0.28839 0.98866 0.0
C9 C 0.01598 0.29564 0.0868 0.0
O10 O 0.97431 0.24334 0.90861 0.0
O11 O 0.05873 0.1731 0.99421 0.0
O12 O 0.07299 0.30476 0.98688 0.0
O13 O 0.94575 0.17203 0.016 0.0
O14 O 0.94398 0.31003 0.99242 0.0
O15 O 0.02935 0.25954 0.08702 0.0
O16 O 0.91315 0.2509 0.97918 0.0
O17 O 0.99501 0.17969 0.06202 0.0
O18 O 0.00797 0.31493 0.05441 0.0
O19 O 0.00947 0.16674 0.94736 0.0
O20 O 0.00827 0.29949 0.92584 0.0
O21 O 0.09586 0.25154 0.02159 0.0
Sc22 Sc 0.5347 0.78884 0.46209 0.0
Sc23 Sc 0.45619 0.78174 0.53688 0.0
Sc24 Sc 0.49199 0.69458 0.49032 0.0
O25 O 0.49445 0.75531 0.49637 0.0
C26 C 0.5051 0.72153 0.39873 0.0
C27 C 0.45336 0.84072 0.45972 0.0
C28 C 0.39812 0.71362 0.50028 0.0
C29 C 0.53682 0.83544 0.54676 0.0
C30 C 0.58734 0.71201 0.48746 0.0
C31 C 0.48418 0.70481 0.58663 0.0
O32 O 0.5226 0.75507 0.4066 0.0
O33 O 0.43878 0.82489 0.49176 0.0
O34 O 0.42722 0.69261 0.48671 0.0
O35 O 0.55242 0.82753 0.51241 0.0
O36 O 0.55627 0.68995 0.49292 0.0
O37 O 0.47041 0.74073 0.58605 0.0
O38 O 0.58555 0.74892 0.47603 0.0
O39 O 0.50331 0.82072 0.55877 0.0
O40 O 0.49228 0.68494 0.55466 0.0
O41 O 0.48798 0.83192 0.44503 0.0
O42 O 0.49208 0.69757 0.4258 0.0
O43 O 0.40339 0.74592 0.52059 0.0
Sc44 Sc 0.48745 0.19492 0.99149 0.0
Sc45 Sc 0.53939 0.28102 0.96122 0.0
Sc46 Sc 0.46294 0.28676 0.03691 0.0
O47 O 0.49672 0.25458 0.99638 0.0
C48 C 0.3988 0.22145 0.00266 0.0
C49 C 0.50693 0.21643 0.89875 0.0
C50 C 0.46208 0.34081 0.95831 0.0
C51 C 0.58342 0.20099 0.9924 0.0
C52 C 0.47925 0.20941 0.08728 0.0
C53 C 0.54836 0.33236 0.04181 0.0
O54 O 0.42456 0.20413 0.98005 0.0
O55 O 0.52179 0.25131 0.90534 0.0
O56 O 0.44322 0.32705 0.98916 0.0
O57 O 0.5505 0.18354 0.00276 0.0
O58 O 0.48147 0.24796 0.08667 0.0
O59 O 0.56324 0.31353 0.01184 0.0
O60 O 0.47651 0.18801 0.05535 0.0
O61 O 0.58457 0.23481 0.97366 0.0
O62 O 0.51138 0.32918 0.05231 0.0
O63 O 0.49571 0.19289 0.92702 0.0
O64 O 0.40885 0.24871 0.02828 0.0
O65 O 0.49705 0.32877 0.94694 0.0
Sc66 Sc 0.01092 0.80486 0.48631 0.0
Sc67 Sc 0.95697 0.71855 0.46085 0.0
Sc68 Sc 0.03417 0.71525 0.53582 0.0
O69 O 0.00046 0.7458 0.49412 0.0
C70 C 0.09877 0.77723 0.49716 0.0
C71 C 0.98827 0.78057 0.39526 0.0
C72 C 0.03416 0.65846 0.45936 0.0
C73 C 0.91504 0.80017 0.49062 0.0
C74 C 0.01946 0.79494 0.58231 0.0
C75 C 0.94897 0.66964 0.54298 0.0
O76 O 0.07306 0.79317 0.47344 0.0
O77 O 0.97352 0.746 0.40348 0.0
O78 O 0.05335 0.67327 0.48954 0.0
O79 O 0.94853 0.8176 0.49905 0.0
O80 O 0.01546 0.75651 0.58358 0.0
O81 O 0.93367 0.68785 0.51282 0.0
O82 O 0.02411 0.81437 0.54935 0.0
O83 O 0.91268 0.76579 0.473 0.0
O84 O 0.98603 0.67325 0.55303 0.0
O85 O 0.00049 0.80494 0.42228 0.0
O86 O 0.08838 0.75255 0.52517 0.0
O87 O 0.99905 0.67011 0.44777 0.0
Sc88 Sc 0.96399 0.9632 0.21396 0.0
Sc89 Sc 0.04029 0.03907 0.22027 0.0
Sc90 Sc 0.01713 0.97898 0.30319 0.0
O91 O 0.00706 0.99437 0.24564 0.0
C92 C 0.91989 0.97718 0.29527 0.0
C93 C 0.95872 0.05029 0.17161 0.0
C94 C 0.01857 0.07583 0.30666 0.0
C95 C 0.04064 0.96375 0.15739 0.0
C96 C 0.9987 0.89356 0.27205 0.0
C97 C 0.10755 0.00058 0.27727 0.0
O98 O 0.91771 0.9819 0.25687 0.0
O99 O 0.9884 0.0646 0.19134 0.0
O100 O 0.01196 0.04099 0.3222 0.0
O101 O 0.0102 0.94431 0.17155 0.0
O102 O 0.02506 0.91695 0.2872 0.0
O103 O 0.09809 0.02159 0.24645 0.0
O104 O 0.97084 0.90684 0.24884 0.0
O105 O 0.05237 0.99859 0.17 0.0
O106 O 0.08139 0.98413 0.30001 0.0
O107 O 0.94852 0.01313 0.17337 0.0
O108 O 0.95319 0.97107 0.31391 0.0
O109 O 0.02953 0.08094 0.26992 0.0
Sc110 Sc 0.53471 0.0391 0.70886 0.0
Sc111 Sc 0.46037 0.96101 0.72044 0.0
Sc112 Sc 0.49806 0.01118 0.80477 0.0
O113 O 0.49772 0.00378 0.74439 0.0
C114 C 0.59205 0.02095 0.7827 0.0
C115 C 0.5381 0.95308 0.66405 0.0
C116 C 0.4967 0.91513 0.79732 0.0
C117 C 0.45143 0.03803 0.66082 0.0
C118 C 0.50418 0.10178 0.77716 0.0
C119 C 0.40384 0.9941 0.78978 0.0
O120 O 0.58823 0.02406 0.74438 0.0
O121 O 0.50801 0.9386 0.68315 0.0
O122 O 0.50787 0.94776 0.8146 0.0
O123 O 0.48404 0.05646 0.67061 0.0
O124 O 0.48835 0.0745 0.79914 0.0
O125 O 0.40756 0.9779 0.75515 0.0
O126 O 0.52532 0.09386 0.74571 0.0
O127 O 0.44094 0.0036 0.675 0.0
O128 O 0.43385 0.00543 0.81094 0.0
O129 O 0.54975 0.98978 0.6674 0.0
O130 O 0.56224 0.01929 0.8069 0.0
O131 O 0.47661 0.91457 0.76432 0.0
Sc132 Sc 0.49347 0.49174 0.69353 0.0
Sc133 Sc 0.53811 0.45763 0.78251 0.0
Sc134 Sc 0.46231 0.53521 0.78627 0.0
O135 O 0.49791 0.49503 0.75435 0.0
C136 C 0.48887 0.58726 0.70938 0.0
C137 C 0.58955 0.48468 0.70609 0.0
C138 C 0.54574 0.53921 0.83468 0.0
C139 C 0.50325 0.3982 0.71494 0.0
C140 C 0.40115 0.50414 0.7179 0.0
C141 C 0.45961 0.45492 0.83974 0.0
O142 O 0.49529 0.55601 0.68792 0.0
O143 O 0.5881 0.47109 0.74212 0.0
O144 O 0.51118 0.55383 0.82606 0.0
O145 O 0.49064 0.4269 0.69273 0.0
O146 O 0.40806 0.52222 0.75125 0.0
O147 O 0.4924 0.44076 0.82534 0.0
O148 O 0.42885 0.49096 0.69486 0.0
O149 O 0.52248 0.40401 0.74781 0.0
O150 O 0.44443 0.4889 0.8295 0.0
O151 O 0.55806 0.49278 0.68544 0.0
O152 O 0.47668 0.58571 0.74604 0.0
O153 O 0.55885 0.5059 0.82062 0.0
Sc154 Sc 0.0088 0.50984 0.19373 0.0
Sc155 Sc 0.96212 0.54305 0.28187 0.0
Sc156 Sc 0.03757 0.46519 0.28677 0.0
O157 O 0.00288 0.50587 0.25437 0.0
C158 C 0.01246 0.41406 0.20905 0.0
C159 C 0.91244 0.51641 0.20414 0.0
C160 C 0.95333 0.46143 0.33388 0.0
C161 C 0.99803 0.60318 0.2153 0.0
C162 C 0.10039 0.49661 0.21989 0.0
C163 C 0.03969 0.54512 0.34053 0.0
O164 O 0.00739 0.44559 0.18758 0.0
O165 O 0.91306 0.52978 0.24027 0.0
O166 O 0.98807 0.44687 0.32599 0.0
O167 O 0.01129 0.5747 0.19326 0.0
O168 O 0.09252 0.47756 0.25251 0.0
O169 O 0.00707 0.55939 0.32574 0.0
O170 O 0.07333 0.51097 0.19673 0.0
O171 O 0.97826 0.597 0.24778 0.0
O172 O 0.05513 0.51128 0.33025 0.0
O173 O 0.94441 0.50857 0.18416 0.0
O174 O 0.02313 0.41508 0.24621 0.0
O175 O 0.94045 0.49465 0.31935 0.0
Sc176 Sc 0.21438 0.96346 0.96579 0.0
Sc177 Sc 0.21656 0.03746 0.04412 0.0
Sc178 Sc 0.30547 0.00603 0.99887 0.0
O179 O 0.2451 0.00241 0.00291 0.0
C180 C 0.28999 0.91117 0.98583 0.0
C181 C 0.1642 0.95723 0.0483 0.0
C182 C 0.2927 0.0044 0.09373 0.0
C183 C 0.16024 0.0417 0.96415 0.0
C184 C 0.28353 -0.00022 0.90764 0.0
C185 C 0.28415 0.09881 0.01674 0.0
O186 O 0.25145 0.91232 0.98426 0.0
O187 O 0.18244 0.9866 0.06526 0.0
O188 O 0.31169 0.99282 0.06224 0.0
O189 O 0.17512 0.01156 0.94522 0.0
O190 O 0.30138 0.01906 0.93579 0.0
O191 O 0.2477 0.09292 0.02752 0.0
O192 O 0.25479 0.97466 0.91436 0.0
O193 O 0.1708 0.05235 -0.00018 0.0
O194 O 0.30837 0.07015 0.00883 0.0
O195 O 0.16965 0.94732 0.01143 0.0
O196 O 0.31205 0.94271 0.98683 0.0
O197 O 0.26002 0.02492 0.09228 0.0
Sc198 Sc 0.71062 0.53597 0.03586 0.0
Sc199 Sc 0.71639 0.45959 0.95885 0.0
Sc200 Sc 0.80394 0.5079 0.99179 0.0
O201 O 0.74343 0.50114 0.99572 0.0
C202 C 0.77737 0.59931 0.00455 0.0
C203 C 0.65841 0.53752 0.95463 0.0
C204 C 0.78255 0.49554 0.89863 0.0
C205 C 0.66403 0.45105 0.04007 0.0
C206 C 0.78833 0.51199 0.08758 0.0
C207 C 0.79446 0.41123 0.98619 0.0
O208 O 0.74498 0.59115 0.02386 0.0
O209 O 0.67284 0.50432 0.9414 0.0
O210 O 0.80437 0.5097 0.92694 0.0
O211 O 0.67122 0.48623 0.05419 0.0
O212 O 0.80993 0.50732 0.0561 0.0
O213 O 0.75826 0.41114 0.97297 0.0
O214 O 0.75094 0.52184 0.08645 0.0
O215 O 0.67897 0.43806 0.00714 0.0
O216 O 0.81411 0.44361 0.99357 0.0
O217 O 0.66816 0.55342 0.98853 0.0
O218 O 0.80047 0.57239 0.98998 0.0
O219 O 0.7505 0.47518 0.90502 0.0
Sc220 Sc 0.69482 0.49401 0.49455 0.0
Sc221 Sc 0.78227 0.54046 0.45872 0.0
Sc222 Sc 0.78902 0.46412 0.53584 0.0
O223 O 0.75559 0.49949 0.49657 0.0
C224 C 0.71284 0.48947 0.58968 0.0
C225 C 0.70571 0.5904 0.487 0.0
C226 C 0.83587 0.54885 0.5394 0.0
C227 C 0.71397 0.50463 0.40074 0.0
C228 C 0.72046 0.40191 0.50664 0.0
C229 C 0.83985 0.46243 0.45358 0.0
O230 O 0.6907 0.49599 0.55889 0.0
O231 O 0.74167 0.58974 0.47329 0.0
O232 O 0.82826 0.51398 0.55411 0.0
O233 O 0.69281 0.49094 0.42977 0.0
O234 O 0.75444 0.40916 0.52348 0.0
O235 O 0.82477 0.49531 0.44029 0.0
O236 O 0.69675 0.42942 0.49429 0.0
O237 O 0.74634 0.52486 0.406 0.0
O238 O 0.83115 0.44701 0.48799 0.0
O239 O 0.6857 0.55845 0.49515 0.0
O240 O 0.74953 0.47749 0.58735 0.0
O241 O 0.82111 0.56157 0.5062 0.0
Sc242 Sc 0.19263 0.9911 0.48333 0.0
Sc243 Sc 0.27689 0.96223 0.53873 0.0
Sc244 Sc 0.28472 0.03781 0.4622 0.0
O245 O 0.25179 0.99689 0.49495 0.0
C246 C 0.22371 0.00133 0.39564 0.0
C247 C 0.21393 0.89906 0.50428 0.0
C248 C 0.33897 0.9594 0.46304 0.0
C249 C 0.19513 0.99327 0.57972 0.0
C250 C 0.20593 0.08677 0.47643 0.0
C251 C 0.32837 0.0427 0.54856 0.0
O252 O 0.20477 0.97942 0.42098 0.0
O253 O 0.24783 0.90607 0.52099 0.0
O254 O 0.32612 0.99053 0.444 0.0
O255 O 0.17862 0.00242 0.54596 0.0
O256 O 0.24441 0.08678 0.47998 0.0
O257 O 0.30911 0.01278 0.56312 0.0
O258 O 0.18525 0.05458 0.47184 0.0
O259 O 0.22928 0.97536 0.5824 0.0
O260 O 0.32555 0.05355 0.51166 0.0
O261 O 0.19085 0.92693 0.49167 0.0
O262 O 0.24937 0.02823 0.40655 0.0
O263 O 0.32565 0.94772 0.49753 0.0
Sc264 Sc 0.03525 0.78859 0.03442 0.0
Sc265 Sc 0.95679 0.78185 0.95947 0.0
Sc266 Sc 0.99026 0.6949 0.0083 0.0
O267 O 0.99427 0.75536 0.00076 0.0
C268 C 0.0861 0.71041 0.01054 0.0
C269 C 0.03815 0.83409 0.94888 0.0
C270 C 0.98327 0.70322 0.9117 0.0
C271 C 0.95461 0.84139 0.0363 0.0
C272 C 0.00458 0.7228 0.09917 0.0
C273 C 0.89697 0.71586 0.99701 0.0
O274 O 0.0853 0.74788 0.02012 0.0
O275 O 0.00479 0.81919 0.93673 0.0
O276 O 0.99091 0.68394 0.94418 0.0
O277 O 0.98878 0.83185 0.05165 0.0
O278 O 0.98965 0.69927 0.07273 0.0
O279 O 0.9031 0.74769 0.97619 0.0
O280 O 0.02377 0.75516 0.09035 0.0
O281 O 0.94035 0.82612 0.00383 0.0
O282 O 0.92547 0.6944 0.01115 0.0
O283 O 0.05307 0.82702 0.98376 0.0
O284 O 0.05447 0.68879 0.00661 0.0
O285 O 0.97016 0.73942 0.91134 0.0
Sc286 Sc 0.46356 0.21065 0.53664 0.0
Sc287 Sc 0.54167 0.21776 0.46144 0.0
Sc288 Sc 0.50614 0.3049 0.50819 0.0
O289 O 0.50364 0.24418 0.50216 0.0
C290 C 0.41083 0.28734 0.5113 0.0
C291 C 0.461 0.1641 0.45194 0.0
C292 C 0.51363 0.29473 0.41186 0.0
C293 C 0.54486 0.15888 0.53866 0.0
C294 C 0.49332 0.27804 0.59983 0.0
C295 C 0.59994 0.28574 0.49791 0.0
O296 O 0.41267 0.25043 0.52271 0.0
O297 O 0.49436 0.17894 0.43967 0.0
O298 O 0.5056 0.31457 0.44386 0.0
O299 O 0.5104 0.16776 0.55364 0.0
O300 O 0.50634 0.30194 0.57271 0.0
O301 O 0.59458 0.25343 0.47763 0.0
O302 O 0.47572 0.24455 0.59203 0.0
O303 O 0.55915 0.17455 0.50642 0.0
O304 O 0.57092 0.30682 0.51153 0.0
O305 O 0.44574 0.17183 0.48648 0.0
O306 O 0.44186 0.30946 0.50584 0.0
O307 O 0.52741 0.25882 0.41238 0.0
Sc308 Sc 0.51104 0.80446 0.00795 0.0
Sc309 Sc 0.45954 0.71811 0.03844 0.0
Sc310 Sc 0.53535 0.71274 0.96196 0.0
O311 O 0.50186 0.74476 0.00292 0.0
C312 C 0.51862 0.79046 0.91204 0.0
C313 C 0.41499 0.79798 0.00774 0.0
C314 C 0.45 0.66703 0.95757 0.0
C315 C 0.49231 0.78274 0.1008 0.0
C316 C 0.59975 0.77787 0.99602 0.0
C317 C 0.53694 0.65851 0.04058 0.0
O318 O 0.52125 0.81171 0.94406 0.0
O319 O 0.41406 0.76402 0.02621 0.0
O320 O 0.48674 0.67064 0.94644 0.0
O321 O 0.50352 0.80623 0.0725 0.0
O322 O 0.58955 0.75051 0.97059 0.0
O323 O 0.50222 0.67069 0.05249 0.0
O324 O 0.57414 0.79549 0.01859 0.0
O325 O 0.47721 0.74796 0.09423 0.0
O326 O 0.55529 0.67205 0.00931 0.0
O327 O 0.44779 0.81568 0.9974 0.0
O328 O 0.51673 0.75189 0.91245 0.0
O329 O 0.43551 0.6853 0.98808 0.0
Sc330 Sc 0.98441 0.19488 0.51457 0.0
Sc331 Sc 0.03931 0.28026 0.53953 0.0
Sc332 Sc 0.96417 0.28305 0.46298 0.0
O333 O 0.99608 0.25342 0.50635 0.0
C334 C 0.98354 0.20243 0.42087 0.0
C335 C 0.08006 0.19771 0.51014 0.0
C336 C 0.04947 0.32833 0.45739 0.0
C337 C 0.00742 0.21904 0.60525 0.0
C338 C 0.8982 0.2231 0.50254 0.0
C339 C 0.96247 0.34108 0.53818 0.0
O340 O 0.96815 0.18644 0.45224 0.0
O341 O 0.08256 0.23151 0.52897 0.0
O342 O 0.01238 0.32549 0.44725 0.0
O343 O 0.99675 0.19409 0.57813 0.0
O344 O 0.90986 0.24519 0.47281 0.0
O345 O 0.99756 0.32969 0.55028 0.0
O346 O 0.92312 0.20944 0.52849 0.0
O347 O 0.02074 0.25423 0.59709 0.0
O348 O 0.94333 0.3255 0.50824 0.0
O349 O 0.04643 0.18109 0.50041 0.0
O350 O 0.98725 0.24077 0.41763 0.0
O351 O 0.06436 0.3093 0.48727 0.0
Sc352 Sc 0.9867 0.01664 0.69553 0.0
Sc353 Sc 0.96045 0.95952 0.77965 0.0
Sc354 Sc 0.03569 0.0364 0.78637 0.0
O355 O 0.99412 0.00389 0.7542 0.0
C356 C 0.08283 0.02312 0.70656 0.0
C357 C 0.98989 0.92022 0.69654 0.0
C358 C 0.04164 0.9498 0.8296 0.0
C359 C 0.8954 0.99382 0.71863 0.0
C360 C 0.9993 0.10354 0.7258 0.0
C361 C 0.95787 0.03532 0.84168 0.0
O362 O 0.05012 0.02857 0.68692 0.0
O363 O 0.97315 0.91665 0.73125 0.0
O364 O 0.05186 0.98696 0.82735 0.0
O365 O 0.92251 0.0077 0.69526 0.0
O366 O 0.0267 0.09191 0.75053 0.0
O367 O 0.94656 0.00043 0.82897 0.0
O368 O 0.97509 0.07875 0.70909 0.0
O369 O 0.90349 0.9765 0.75197 0.0
O370 O 0.98852 0.05476 0.82804 0.0
O371 O 0.99792 0.95437 0.6802 0.0
O372 O 0.08374 0.01839 0.74496 0.0
O373 O 0.01178 0.9352 0.81035 0.0
Sc374 Sc 0.49869 0.98894 0.19403 0.0
Sc375 Sc 0.53732 0.03849 0.27842 0.0
Sc376 Sc 0.46302 0.9602 0.29041 0.0
O377 O 0.49963 0.99582 0.25457 0.0
C378 C 0.4049 0.97915 0.21679 0.0
C379 C 0.5008 0.08506 0.20216 0.0
C380 C 0.45957 0.0462 0.33519 0.0
C381 C 0.59315 0.00519 0.20837 0.0
C382 C 0.49307 0.8978 0.22172 0.0
C383 C 0.54672 0.96168 0.33811 0.0
O384 O 0.4344 0.98235 0.19238 0.0
O385 O 0.52045 0.08544 0.2354 0.0
O386 O 0.44727 0.00977 0.33122 0.0
O387 O 0.56301 0.99337 0.18766 0.0
O388 O 0.47342 0.90527 0.25422 0.0
O389 O 0.55754 0.99567 0.3232 0.0
O390 O 0.50699 0.92534 0.19879 0.0
O391 O 0.58964 0.02207 0.24271 0.0
O392 O 0.51367 0.94366 0.32911 0.0
O393 O 0.49002 0.05254 0.18449 0.0
O394 O 0.40914 0.97403 0.25485 0.0
O395 O 0.49019 0.06038 0.3167 0.0
Sc396 Sc 0.53633 0.46434 0.21246 0.0
Sc397 Sc 0.46053 0.54192 0.21606 0.0
Sc398 Sc 0.50515 0.50795 0.30511 0.0
O399 O 0.50072 0.50457 0.2443 0.0
C400 C 0.50961 0.4124 0.28928 0.0
C401 C 0.45297 0.46041 0.16381 0.0
C402 C 0.40906 0.51491 0.29257 0.0
C403 C 0.5392 0.54452 0.15895 0.0
C404 C 0.59747 0.49549 0.2809 0.0
C405 C 0.49533 0.60146 0.28357 0.0
O406 O 0.5216 0.41387 0.25256 0.0
O407 O 0.43971 0.4936 0.17802 0.0
O408 O 0.44056 0.50675 0.31319 0.0
O409 O 0.55447 0.51065 0.16941 0.0
O410 O 0.56978 0.50895 0.30379 0.0
O411 O 0.47623 0.59562 0.25063 0.0
O412 O 0.59052 0.47712 0.24771 0.0
O413 O 0.50628 0.55863 0.17314 0.0
O414 O 0.50783 0.57279 0.30588 0.0
O415 O 0.48759 0.4459 0.17239 0.0
O416 O 0.50347 0.44367 0.31078 0.0
O417 O 0.41052 0.52858 0.25655 0.0
Sc418 Sc 0.96077 0.53342 0.71183 0.0
Sc419 Sc 0.03584 0.45514 0.71639 0.0
Sc420 Sc 0.98949 0.48843 0.80471 0.0
O421 O 0.99531 0.49247 0.74405 0.0
C422 C 0.98604 0.58426 0.78975 0.0
C423 C 0.04496 0.53701 0.66468 0.0
C424 C 0.08581 0.48156 0.79414 0.0
C425 C 0.95835 0.45377 0.65753 0.0
C426 C 0.89789 0.50182 0.77853 0.0
C427 C -0.00014 0.39504 0.78303 0.0
O428 O 0.97522 0.58335 0.75264 0.0
O429 O 0.05761 0.50356 0.67889 0.0
O430 O 0.0539 0.48947 0.81418 0.0
O431 O 0.94322 0.4877 0.66797 0.0
O432 O 0.92494 0.48752 0.80173 0.0
O433 O 0.01954 0.40117 0.75048 0.0
O434 O 0.90577 0.52088 0.74591 0.0
O435 O 0.99075 0.43906 0.67241 0.0
O436 O 0.98678 0.42358 0.80511 0.0
O437 O 0.01039 0.55183 0.67286 0.0
O438 O 0.99115 0.55265 0.81109 0.0
O439 O 0.08506 0.46821 0.75799 0.0
Sc440 Sc 0.69277 0.9923 0.00052 0.0
Sc441 Sc 0.78134 0.96186 0.95429 0.0
Sc442 Sc 0.78363 0.03504 0.03306 0.0
O443 O 0.75297 0.99626 0.99597 0.0
C444 C 0.70801 0.08708 0.01409 0.0
C445 C 0.7045 0.99492 0.90577 0.0
C446 C 0.83335 0.04192 0.95025 0.0
C447 C 0.71458 0.8999 0.98161 0.0
C448 C 0.71475 0.9982 0.09129 0.0
C449 C 0.83819 0.95742 0.03395 0.0
O450 O 0.68608 0.05541 0.014 0.0
O451 O 0.73693 0.97397 0.90682 0.0
O452 O 0.82869 0.05089 0.98749 0.0
O453 O 0.69003 0.92838 0.98919 0.0
O454 O 0.74283 0.02404 0.08439 0.0
O455 O 0.82803 0.9475 0.99793 0.0
O456 O 0.69779 0.97801 0.06323 0.0
O457 O 0.75115 0.90605 0.97139 0.0
O458 O 0.82255 0.98671 0.05359 0.0
O459 O 0.68604 0.0067 0.93751 0.0
O460 O 0.74658 0.08606 0.0143 0.0
O461 O 0.81423 0.01339 0.93284 0.0
Sc462 Sc 0.19457 0.49096 0.00624 0.0
Sc463 Sc 0.28194 0.53925 0.03968 0.0
Sc464 Sc 0.2881 0.46325 0.96232 0.0
O465 O 0.25509 0.49782 0.00252 0.0
C466 C 0.2215 0.39964 0.99323 0.0
C467 C 0.21564 0.50293 0.09953 0.0
C468 C 0.34026 0.46163 0.0437 0.0
C469 C 0.20392 0.5876 0.01237 0.0
C470 C 0.21025 0.48698 0.91047 0.0
C471 C 0.33432 0.54835 0.95849 0.0
O472 O 0.19816 0.42646 0.00758 0.0
O473 O 0.24764 0.52344 0.09332 0.0
O474 O 0.33079 0.44598 0.0096 0.0
O475 O 0.1843 0.55524 0.00484 0.0
O476 O 0.24762 0.47706 0.91167 0.0
O477 O 0.31949 0.561 0.99161 0.0
O478 O 0.18867 0.49186 0.94193 0.0
O479 O 0.24011 0.58767 0.02559 0.0
O480 O 0.32711 0.51332 0.94403 0.0
O481 O 0.19399 0.48875 0.0711 0.0
O482 O 0.25409 0.40789 0.9743 0.0
O483 O 0.32548 0.49458 0.05715 0.0
Sc484 Sc 0.20928 0.5347 0.46278 0.0
Sc485 Sc 0.21637 0.45893 0.54043 0.0
Sc486 Sc 0.30364 0.5053 0.50408 0.0
O487 O 0.24288 0.49969 0.50222 0.0
C488 C 0.28558 0.50956 0.40893 0.0
C489 C 0.16267 0.44976 0.45993 0.0
C490 C 0.29277 0.40896 0.51198 0.0
C491 C 0.15863 0.53677 0.54521 0.0
C492 C 0.2777 0.59728 0.49169 0.0
C493 C 0.28478 0.49502 0.598 0.0
O494 O 0.24882 0.52136 0.41126 0.0
O495 O 0.17741 0.43752 0.4933 0.0
O496 O 0.31278 0.44087 0.50364 0.0
O497 O 0.16704 0.55186 0.51058 0.0
O498 O 0.30152 0.56988 0.50409 0.0
O499 O 0.25241 0.47477 0.59292 0.0
O500 O 0.2437 0.58985 0.47494 0.0
O501 O 0.17395 0.50412 0.55876 0.0
O502 O 0.30584 0.50861 0.56885 0.0
O503 O 0.17026 0.48446 0.44477 0.0
O504 O 0.30773 0.50316 0.43973 0.0
O505 O 0.2569 0.40967 0.5259 0.0
Sc506 Sc 0.713 0.96199 0.53741 0.0
Sc507 Sc 0.72202 0.03607 0.46009 0.0
Sc508 Sc 0.80506 0.00809 0.5173 0.0
O509 O 0.74634 0.00227 0.50463 0.0
C510 C 0.77408 0.99788 0.60402 0.0
C511 C 0.65927 0.03996 0.53541 0.0
C512 C 0.78404 0.09982 0.49476 0.0
C513 C 0.67007 0.95656 0.45074 0.0
C514 C 0.79077 0.91253 0.52403 0.0
C515 C 0.80499 0.00505 0.42123 0.0
O516 O 0.74935 0.97024 0.59278 0.0
O517 O 0.67197 0.05024 0.50018 0.0
O518 O 0.80729 0.0721 0.50747 0.0
O519 O 0.67122 0.94752 0.48823 0.0
O520 O 0.81147 0.94452 0.53024 0.0
O521 O 0.77106 0.02331 0.41772 0.0
O522 O 0.75249 0.91291 0.51889 0.0
O523 O 0.69151 0.98457 0.43542 0.0
O524 O 0.82045 0.99559 0.45538 0.0
O525 O 0.67294 0.01007 0.55578 0.0
O526 O 0.79113 0.02137 0.57883 0.0
O527 O 0.75004 0.0926 0.47832 0.0
C528 C 0.93952 0.09485 0.0691 0.0
C529 C 0.94213 0.13624 0.07899 0.0
H530 H 0.94175 0.03384 0.09197 0.0
C531 C 0.93826 0.14805 0.11966 0.0
H532 H 0.943 0.08506 0.03793 0.0
C533 C 0.9375 0.11899 0.15039 0.0
C534 C 0.94085 0.07761 0.14095 0.0
H535 H 0.94036 0.1798 0.12796 0.0
H536 H 0.93895 0.12907 0.18165 0.0
C537 C 0.9388 0.06554 0.10007 0.0
C538 C 0.56126 0.85504 0.61457 0.0
C539 C 0.55568 0.86553 0.57375 0.0
H540 H 0.56166 0.87584 0.67593 0.0
C541 C 0.55616 0.90668 0.56255 0.0
H542 H 0.56071 0.82349 0.62385 0.0
C543 C 0.55652 0.93687 0.59255 0.0
C544 C 0.55636 0.92589 0.63374 0.0
H545 H 0.55119 0.91538 0.53124 0.0
H546 H 0.55177 0.96815 0.5837 0.0
C547 C 0.56177 0.88501 0.64434 0.0
C548 C 0.43014 0.39073 0.86335 0.0
C549 C 0.44106 0.43091 0.87211 0.0
H550 H 0.42732 0.32978 0.88552 0.0
C551 C 0.44779 0.44249 0.91252 0.0
H552 H 0.42557 0.38118 0.83221 0.0
C553 C 0.44911 0.41298 0.943 0.0
C554 C 0.44329 0.37201 0.9331 0.0
H555 H 0.4573 0.47316 0.91963 0.0
H556 H 0.45948 0.42148 0.973 0.0
C557 C 0.43124 0.36137 0.89375 0.0
C558 C 0.0469 0.58623 0.44414 0.0
C559 C 0.05328 0.6272 0.43461 0.0
H560 H 0.03943 0.5262 0.42027 0.0
C561 C 0.0669 0.63801 0.39583 0.0
H562 H 0.0355 0.57761 0.47375 0.0
C563 C 0.069 0.60882 0.36537 0.0
C564 C 0.05754 0.56867 0.37356 0.0
H565 H 0.07134 0.66963 0.38791 0.0
H566 H 0.07473 0.61853 0.33447 0.0
C567 C 0.0493 0.55688 0.41364 0.0
C568 C 0.10535 0.93183 0.13996 0.0
C569 C 0.06682 0.94445 0.12731 0.0
H570 H 0.16755 0.92459 0.12326 0.0
C571 C 0.05887 0.94949 0.08583 0.0
H572 H 0.11204 0.9283 0.17197 0.0
C573 C 0.09061 0.94676 0.05776 0.0
C574 C 0.13039 0.93981 0.07137 0.0
H575 H 0.02945 0.95999 0.07572 0.0
H576 H 0.085 0.9555 0.02656 0.0
C577 C 0.13703 0.92957 0.11213 0.0
C578 C 0.38274 0.06214 0.64491 0.0
C579 C 0.42291 0.05668 0.63219 0.0
H580 H 0.32043 0.06374 0.62723 0.0
C581 C 0.43207 0.05838 0.59064 0.0
H582 H 0.37511 0.06072 0.67686 0.0
C583 C 0.4006 0.06018 0.56202 0.0
C584 C 0.35998 0.05999 0.575 0.0
H585 H 0.46286 0.05364 0.58028 0.0
H586 H 0.40785 0.05654 0.53019 0.0
C587 C 0.3515 0.06395 0.61652 0.0
C588 C 0.55841 0.55604 0.90668 0.0
C589 C 0.5709 0.55827 0.86599 0.0
H590 H 0.57785 0.54817 0.96835 0.0
C591 C 0.61177 0.56579 0.85709 0.0
H592 H 0.52708 0.54936 0.91404 0.0
C593 C 0.64056 0.56544 0.88802 0.0
C594 C 0.62878 0.55728 0.92809 0.0
H595 H 0.62199 0.56713 0.82587 0.0
H596 H 0.67241 0.56656 0.87998 0.0
C597 C 0.5874 0.55539 0.93776 0.0
C598 C 0.88657 0.43594 0.35554 0.0
C599 C 0.92754 0.44242 0.36482 0.0
H600 H 0.82582 0.43566 0.37805 0.0
C601 C 0.93987 0.4433 0.40564 0.0
H602 H 0.87646 0.43555 0.32425 0.0
C603 C 0.91072 0.44366 0.4366 0.0
C604 C 0.86934 0.44288 0.42667 0.0
H605 H 0.9713 0.44906 0.41335 0.0
H606 H 0.92028 0.44974 0.46744 0.0
C607 C 0.85765 0.43601 0.38632 0.0
C608 C 0.1388 0.10618 0.93387 0.0
C609 C 0.12886 0.06638 0.94496 0.0
H610 H 0.11781 0.16729 0.9291 0.0
C611 C 0.088 0.05537 0.94982 0.0
H612 H 0.17025 0.11525 0.93064 0.0
C613 C 0.05788 0.08519 0.94885 0.0
C614 C 0.06873 0.12598 0.94325 0.0
H615 H 0.07997 0.02489 0.95923 0.0
H616 H 0.02727 0.07716 0.95775 0.0
C617 C 0.10882 0.13587 0.93293 0.0
C618 C 0.56342 0.40406 0.06034 0.0
C619 C 0.57498 0.36305 0.06048 0.0
H620 H 0.58405 0.46566 0.05454 0.0
C621 C 0.61594 0.3532 0.06642 0.0
H622 H 0.53207 0.41234 0.05521 0.0
C623 C 0.64546 0.38351 0.066 0.0
C624 C 0.63444 0.42409 0.0598 0.0
H625 H 0.62553 0.32178 0.06657 0.0
H626 H 0.67712 0.37476 0.06573 0.0
C627 C 0.59317 0.43458 0.05996 0.0
C628 C 0.93541 0.59765 0.56126 0.0
C629 C 0.92302 0.63843 0.56175 0.0
H630 H 0.91612 0.53572 0.55441 0.0
C631 C 0.88182 0.64735 0.56736 0.0
H632 H 0.96698 0.59007 0.55637 0.0
C633 C 0.85293 0.61646 0.56608 0.0
C634 C 0.86485 0.57622 0.55946 0.0
H635 H 0.87157 0.67857 0.56773 0.0
H636 H 0.82109 0.62457 0.56555 0.0
C637 C 0.90631 0.56654 0.56005 0.0
C638 C 0.35934 0.89447 0.43308 0.0
C639 C 0.37015 0.9339 0.44467 0.0
H640 H 0.37901 0.83301 0.42725 0.0
C641 C 0.4112 0.94398 0.4497 0.0
H642 H 0.3277 0.88614 0.42965 0.0
C643 C 0.4407 0.91356 0.44801 0.0
C644 C 0.429 0.87308 0.4417 0.0
H645 H 0.41988 0.97412 0.45955 0.0
H646 H 0.47152 0.92082 0.45685 0.0
C647 C 0.38865 0.86417 0.43156 0.0
C648 C 0.06407 0.88144 0.85026 0.0
C649 C 0.0599 0.92265 0.86012 0.0
H650 H 0.06121 0.82032 0.87183 0.0
C651 C 0.06079 0.93425 0.90116 0.0
H652 H 0.06345 0.87176 0.81884 0.0
C653 C 0.05965 0.90455 0.93172 0.0
C654 C 0.05769 0.86326 0.92125 0.0
H655 H 0.05713 0.9658 0.90953 0.0
H656 H 0.05526 0.91392 0.9629 0.0
C657 C 0.06277 0.85198 0.88058 0.0
C658 C 0.4364 0.14435 0.38424 0.0
C659 C 0.44202 0.13398 0.42509 0.0
H660 H 0.43596 0.12333 0.32295 0.0
C661 C 0.44147 0.09288 0.43644 0.0
H662 H 0.437 0.17587 0.37486 0.0
C663 C 0.44104 0.06259 0.40655 0.0
C664 C 0.44118 0.07344 0.36533 0.0
H665 H 0.44649 0.08428 0.46777 0.0
H666 H 0.44581 0.03134 0.41549 0.0
C667 C 0.43582 0.11428 0.35457 0.0
C668 C 0.56811 0.63789 0.10491 0.0
C669 C 0.55599 0.62729 0.06557 0.0
H670 H 0.57361 0.61812 0.16647 0.0
C671 C 0.55002 0.58634 0.05569 0.0
H672 H 0.57214 0.66948 0.11313 0.0
C673 C 0.55117 0.55685 0.0862 0.0
C674 C 0.55789 0.56845 0.1266 0.0
H675 H 0.53957 0.57788 0.0257 0.0
H676 H 0.54149 0.52623 0.0791 0.0
C677 C 0.56903 0.60856 0.13535 0.0
C678 C 0.92738 0.39112 0.63164 0.0
C679 C 0.9405 0.43086 0.62401 0.0
H680 H 0.92289 0.33068 0.60844 0.0
C681 C 0.94982 0.44267 0.58418 0.0
H682 H 0.92082 0.38137 0.66236 0.0
C683 C 0.95152 0.41353 0.55342 0.0
C684 C 0.94329 0.37275 0.56239 0.0
H685 H 0.96096 0.47301 0.57799 0.0
H686 H 0.96387 0.42196 0.52414 0.0
C687 C 0.92863 0.36217 0.60087 0.0
C688 C 0.89268 0.06671 0.85855 0.0
C689 C 0.93124 0.05449 0.87149 0.0
H690 H 0.83036 0.07378 0.87488 0.0
C691 C 0.93897 0.0498 0.91307 0.0
H692 H 0.88614 0.06999 0.82648 0.0
C693 C 0.90706 0.05252 0.94096 0.0
C694 C 0.8673 0.05912 0.9271 0.0
H695 H 0.96842 0.0396 0.92342 0.0
H696 H 0.91259 0.0441 0.97226 0.0
C697 C 0.86084 0.06901 0.88622 0.0
C698 C 0.61528 0.93733 0.35434 0.0
C699 C 0.57516 0.94324 0.36698 0.0
H700 H 0.67756 0.93513 0.37205 0.0
C701 C 0.56598 0.94208 0.40855 0.0
H702 H 0.62294 0.93829 0.32238 0.0
C703 C 0.59742 0.9403 0.43721 0.0
C704 C 0.63806 0.93995 0.42426 0.0
H705 H 0.53522 0.94716 0.41885 0.0
H706 H 0.59017 0.94426 0.469 0.0
C707 C 0.64649 0.93548 0.38277 0.0
C708 C 0.4114 0.44427 0.06059 0.0
C709 C 0.37003 0.44199 0.0702 0.0
H710 H 0.47166 0.45076 0.08435 0.0
C711 C 0.35831 0.43367 0.11026 0.0
H712 H 0.4209 0.45163 0.03001 0.0
C713 C 0.38708 0.43353 0.14122 0.0
C714 C 0.4279 0.44138 0.13237 0.0
H715 H 0.32646 0.43226 0.11828 0.0
H716 H 0.37684 0.43204 0.17243 0.0
C717 C 0.44038 0.44381 0.09169 0.0
C718 C 0.14061 0.56312 0.61242 0.0
C719 C 0.12901 0.55627 0.57202 0.0
H720 H 0.12173 0.56321 0.67447 0.0
C721 C 0.08765 0.55522 0.56205 0.0
H722 H 0.17242 0.56367 0.62072 0.0
C723 C 0.05848 0.55526 0.59298 0.0
C724 C 0.07075 0.55611 0.63382 0.0
H725 H 0.07817 0.54915 0.53118 0.0
H726 H 0.0271 0.54929 0.58522 0.0
C727 C 0.11165 0.56285 0.64317 0.0
C728 C 0.91049 0.94363 0.04786 0.0
C729 C 0.86965 0.93264 0.05286 0.0
H730 H 0.97123 0.92183 0.04008 0.0
C731 C 0.85971 0.89288 0.06407 0.0
H732 H 0.91851 0.9741 0.0384 0.0
C733 C 0.88969 0.86319 0.06513 0.0
C734 C 0.92979 0.87306 0.05485 0.0
H735 H 0.82826 0.88382 0.06738 0.0
H736 H 0.88073 0.83178 0.0691 0.0
C737 C 0.94062 0.91383 0.04899 0.0
C738 C 0.38222 0.64657 0.93328 0.0
C739 C 0.42321 0.63661 0.93873 0.0
H740 H 0.32104 0.62502 0.93407 0.0
C741 C 0.43476 0.5956 0.93813 0.0
H742 H 0.37263 0.67799 0.9337 0.0
C743 C 0.40501 0.56508 0.93826 0.0
C744 C 0.36375 0.57559 0.93891 0.0
H745 H 0.46615 0.58724 0.94286 0.0
H746 H 0.41416 0.53392 0.94311 0.0
C747 C 0.35269 0.61626 0.93342 0.0
C748 C 0.14593 0.38155 0.43472 0.0
C749 C 0.13387 0.42193 0.44023 0.0
H750 H 0.12748 0.31936 0.43446 0.0
C751 C 0.09239 0.43147 0.4392 0.0
H752 H 0.17778 0.37355 0.43563 0.0
C753 C 0.06337 0.40024 0.43853 0.0
C754 C 0.07587 0.35948 0.43909 0.0
H755 H 0.08247 0.46239 0.44401 0.0
H756 H 0.03174 0.40787 0.44287 0.0
C757 C 0.11714 0.35054 0.43409 0.0
C758 C 0.6098 0.13561 0.56625 0.0
C759 C 0.56936 0.12662 0.55657 0.0
H760 H 0.67078 0.11367 0.56772 0.0
C761 C 0.55762 0.08613 0.55045 0.0
H762 H 0.61944 0.16679 0.57039 0.0
C763 C 0.5871 0.05574 0.54857 0.0
C764 C 0.62818 0.06587 0.55323 0.0
H765 H 0.52671 0.07883 0.54195 0.0
H766 H 0.57835 0.02552 0.53902 0.0
C767 C 0.63912 0.10534 0.56454 0.0
C768 C 0.8433 0.36955 0.02495 0.0
C769 C 0.8161 0.37262 0.99239 0.0
H770 H 0.89436 0.33873 0.04993 0.0
C771 C 0.81492 0.34153 0.96319 0.0
H772 H 0.84444 0.39284 0.04813 0.0
C773 C 0.84384 0.3103 0.96417 0.0
C774 C 0.87375 0.30996 0.99456 0.0
H775 H 0.7942 0.34336 0.93775 0.0
H776 H 0.84518 0.28893 0.93926 0.0
C777 C 0.87168 0.33845 0.02612 0.0
C778 C 0.65543 0.69005 0.46224 0.0
C779 C 0.62651 0.69153 0.49347 0.0
H780 H 0.70438 0.65611 0.4358 0.0
C781 C 0.62997 0.6647 0.52638 0.0
H782 H 0.65299 0.71012 0.43632 0.0
C783 C 0.65861 0.6338 0.52582 0.0
C784 C 0.68464 0.62937 0.49252 0.0
H785 H 0.60805 0.66534 0.55086 0.0
H786 H 0.65841 0.61155 0.55005 0.0
C787 C 0.68459 0.65906 0.46184 0.0
C788 C 0.31495 0.1513 0.97338 0.0
C789 C 0.30021 0.14011 0.01167 0.0
H790 H 0.35715 0.18775 0.94027 0.0
C791 C 0.31091 0.16337 0.0457 0.0
H792 H 0.30728 0.13349 0.94681 0.0
C793 C 0.33975 0.19454 0.04204 0.0
C794 C 0.35825 0.20232 0.00435 0.0
H795 H 0.30033 0.15474 0.0756 0.0
H796 H 0.3508 0.20917 0.06933 0.0
C797 C 0.34353 0.18231 0.96969 0.0
C798 C 0.15949 0.80421 0.53391 0.0
C799 C 0.13966 0.79566 0.49708 0.0
H800 H 0.20027 0.84454 0.56504 0.0
C801 C 0.1537 0.81419 0.46133 0.0
H802 H 0.14917 0.79052 0.56196 0.0
C803 C 0.18258 0.84505 0.46319 0.0
C804 C 0.1983 0.85745 0.50072 0.0
H805 H 0.13925 0.80789 0.43246 0.0
H806 H 0.18957 0.86194 0.43584 0.0
C807 C 0.18876 0.83512 0.53572 0.0
C808 C 0.03116 0.83517 0.30664 0.0
C809 C 0.99586 0.85269 0.29042 0.0
H810 H 0.05611 0.79732 0.3531 0.0
C811 C 0.9579 0.83685 0.30189 0.0
H812 H 0.06082 0.84664 0.29822 0.0
C813 C 0.9553 0.80817 0.33328 0.0
C814 C 0.9906 0.79506 0.35315 0.0
H815 H 0.93019 0.85 0.2902 0.0
H816 H 0.92572 0.79989 0.34497 0.0
C817 C 0.02853 0.80684 0.33798 0.0
C818 C 0.46608 0.15492 0.81333 0.0
C819 C 0.50215 0.14317 0.79402 0.0
H820 H 0.43952 0.18828 0.86216 0.0
C821 C 0.5381 0.16452 0.80265 0.0
H822 H 0.438 0.13884 0.80732 0.0
C823 C 0.53889 0.19319 0.83416 0.0
C824 C 0.50377 0.20051 0.85712 0.0
H825 H 0.56642 0.15559 0.78866 0.0
H826 H 0.56773 0.20598 0.84347 0.0
C827 C 0.46694 0.1831 0.84483 0.0
C828 C 0.46057 0.68355 0.65583 0.0
C829 C 0.49059 0.68387 0.62556 0.0
H830 H 0.43669 0.65194 0.70775 0.0
C831 C 0.52439 0.65848 0.6296 0.0
H832 H 0.4342 0.7029 0.6532 0.0
C833 C 0.52609 0.63011 0.66077 0.0
C834 C 0.49382 0.62629 0.68827 0.0
H835 H 0.54817 0.65859 0.60692 0.0
H836 H 0.55095 0.60866 0.66118 0.0
C837 C 0.46211 0.65465 0.68712 0.0
C838 C 0.97674 0.34383 0.12849 0.0
C839 C 0.00981 0.3174 0.12529 0.0
H840 H 0.95106 0.39451 0.1593 0.0
C841 C 0.03931 0.31701 0.15612 0.0
H842 H 0.95333 0.34427 0.10541 0.0
C843 C 0.03803 0.34608 0.18723 0.0
C844 C 0.00711 0.3753 0.18763 0.0
H845 H 0.0651 0.29683 0.15417 0.0
H846 H 0.06308 0.3481 0.20841 0.0
C847 C 0.97532 0.37237 0.15946 0.0
C848 C 0.33818 0.96536 0.8142 0.0
C849 C 0.36362 0.99903 0.80816 0.0
H850 H 0.29129 0.93933 0.85116 0.0
C851 C 0.35495 0.03562 0.82792 0.0
H852 H 0.3446 0.93678 0.79934 0.0
C853 C 0.32449 0.03723 0.85705 0.0
C854 C 0.30259 0.0021 0.86726 0.0
H855 H 0.3741 0.06201 0.82343 0.0
H856 H 0.32085 0.06492 0.87438 0.0
C857 C 0.30767 0.96687 0.84376 0.0
C858 C 0.81125 0.53833 0.15507 0.0
C859 C 0.8099 0.50688 0.12635 0.0
H860 H 0.84554 0.56599 0.20331 0.0
C861 C 0.8378 0.47492 0.12933 0.0
H862 H 0.79039 0.56356 0.15296 0.0
C863 C 0.86936 0.47662 0.15729 0.0
C864 C 0.87343 0.51011 0.18317 0.0
H865 H 0.83732 0.45032 0.10753 0.0
H866 H 0.89221 0.45306 0.15676 0.0
C867 C 0.84292 0.53985 0.1836 0.0
C868 C 0.63431 0.52534 0.66165 0.0
C869 C 0.62899 0.49085 0.68598 0.0
H870 H 0.66711 0.55256 0.61287 0.0
C871 C 0.65836 0.46 0.68504 0.0
H872 H 0.61229 0.54968 0.66216 0.0
C873 C 0.68995 0.46158 0.65648 0.0
C874 C 0.69237 0.49417 0.62908 0.0
H875 H 0.65471 0.43305 0.70352 0.0
H876 H 0.7097 0.4356 0.65311 0.0
C877 C 0.66584 0.5271 0.63367 0.0
C878 C 0.1695 0.03564 0.30223 0.0
C879 C 0.14965 0.99928 0.29205 0.0
H880 H 0.2102 0.06484 0.34391 0.0
C881 C 0.16403 0.96265 0.3082 0.0
H882 H 0.15862 0.06431 0.29045 0.0
C883 C 0.19337 0.96291 0.33864 0.0
C884 C 0.20864 -0.00016 0.35349 0.0
H885 H 0.14916 0.93424 0.30076 0.0
H886 H 0.20062 0.93462 0.35373 0.0
C887 C 0.19899 0.03594 0.33294 0.0
C888 C 0.18348 0.65714 0.03575 0.0
C889 C 0.18229 0.62622 0.00636 0.0
H890 H 0.15323 0.7096 0.05997 0.0
C891 C 0.15511 0.62947 0.97381 0.0
H892 H 0.2042 0.65516 0.06117 0.0
C893 C 0.12675 0.66059 0.97282 0.0
C894 C 0.12469 0.68889 0.00455 0.0
H895 H 0.15397 0.60631 0.9505 0.0
H896 H 0.10408 0.66047 0.94899 0.0
C897 C 0.15458 0.68838 0.03493 0.0
C898 C 0.34289 0.3093 0.5367 0.0
C899 C 0.37166 0.30772 0.50533 0.0
H900 H 0.29415 0.3434 0.56329 0.0
C901 C 0.36809 0.33445 0.47236 0.0
H902 H 0.34543 0.28929 0.56265 0.0
C903 C 0.33954 0.36541 0.473 0.0
C904 C 0.31371 0.36997 0.50643 0.0
H905 H 0.38991 0.33371 0.44779 0.0
H906 H 0.33967 0.3876 0.44872 0.0
C907 C 0.31381 0.34035 0.53716 0.0
C908 C 0.65865 0.80451 0.95635 0.0
C909 C 0.64043 0.79666 0.99415 0.0
H910 H 0.69791 0.8443 0.92263 0.0
C911 C 0.65558 0.81637 0.0288 0.0
H912 H 0.64725 0.79009 0.92909 0.0
C913 C 0.68437 0.84718 0.02502 0.0
C914 C 0.69878 0.85852 0.98665 0.0
H915 H 0.64215 0.81086 0.05829 0.0
H916 H 0.69235 0.86482 0.05161 0.0
C917 C 0.68763 0.83553 0.95259 0.0
C918 C 0.83861 0.19453 0.46488 0.0
C919 C 0.85768 0.20377 0.50197 0.0
H920 H 0.79866 0.15354 0.43355 0.0
C921 C 0.84305 0.18561 0.53769 0.0
H922 H 0.84925 0.20798 0.43684 0.0
C923 C 0.81445 0.15449 0.53569 0.0
C924 C 0.79949 0.14151 0.49806 0.0
H925 H 0.85677 0.19248 0.56678 0.0
H926 H 0.80703 0.13794 0.56314 0.0
C927 C 0.80959 0.16341 0.46295 0.0
C928 C 0.03996 0.19263 0.66793 0.0
C929 C 0.00464 0.20445 0.64731 0.0
H930 H 0.0659 0.15099 0.71069 0.0
C931 C 0.96692 0.19036 0.66105 0.0
H932 H 0.06943 0.20261 0.65729 0.0
C933 C 0.96483 0.16093 0.6914 0.0
C934 C 0.00049 0.14484 0.70825 0.0
H935 H 0.93934 0.19881 0.64529 0.0
H936 H 0.93558 0.14765 0.69853 0.0
C937 C 0.03789 0.16299 0.69846 0.0
C938 C 0.46031 0.80522 0.16565 0.0
C939 C 0.49542 0.79875 0.14241 0.0
H940 H 0.43217 0.84229 0.21121 0.0
C941 C 0.5319 0.81712 0.15438 0.0
H942 H 0.43174 0.79166 0.15662 0.0
C943 C 0.53228 0.84542 0.18577 0.0
C944 C 0.49606 0.85631 0.20531 0.0
H945 H 0.55931 0.8126 0.13685 0.0
H946 H 0.55997 0.86229 0.19147 0.0
C947 C 0.46061 0.83402 0.19706 0.0
C948 C 0.47214 0.36979 0.33788 0.0
C949 C 0.5044 0.3734 0.31035 0.0
H950 H 0.44992 0.34142 0.39173 0.0
C951 C 0.53589 0.34479 0.3114 0.0
H952 H 0.44745 0.39144 0.33753 0.0
C953 C 0.53726 0.31585 0.34265 0.0
C954 C 0.50728 0.31574 0.37297 0.0
H955 H 0.56129 0.34733 0.29072 0.0
H956 H 0.56349 0.2963 0.34521 0.0
C957 C 0.47366 0.34137 0.36901 0.0
C958 C 0.0233 0.62566 0.83955 0.0
C959 C 0.9916 0.62297 0.81125 0.0
H960 H 0.04542 0.65377 0.89354 0.0
C961 C 0.96102 0.65258 0.81139 0.0
H962 H 0.04731 0.60326 0.83989 0.0
C963 C 0.95998 0.68182 0.84236 0.0
C964 C 0.98936 0.68125 0.8733 0.0
H965 H 0.93606 0.65078 0.7901 0.0
H966 H 0.93442 0.70232 0.8441 0.0
C967 C 0.0221 0.65439 0.87036 0.0
C968 C 0.64189 0.96334 0.17028 0.0
C969 C 0.63329 6e-05 0.18983 0.0
H970 H 0.67639 0.93353 0.12445 0.0
C971 C 0.65901 0.03353 0.18387 0.0
H972 H 0.62257 0.93707 0.17474 0.0
C973 C 0.68983 0.03169 0.15463 0.0
C974 C 0.695 0.99629 0.13139 0.0
H975 H 0.65269 0.0622 0.19859 0.0
H976 H 0.70649 0.05908 0.14732 0.0
C977 C 0.6727 0.96137 0.14154 0.0
C978 C 0.18714 0.46003 0.84324 0.0
C979 C 0.18861 0.49177 0.87166 0.0
H980 H 0.15271 0.4319 0.79535 0.0
C981 C 0.16068 0.52368 0.86844 0.0
H982 H 0.208 0.4348 0.84555 0.0
C983 C 0.12904 0.52171 0.84057 0.0
C984 C 0.12489 0.48799 0.815 0.0
H985 H 0.16121 0.54848 0.89001 0.0
H986 H 0.1062 0.54528 0.84093 0.0
C987 C 0.15539 0.45823 0.8148 0.0
C988 C 0.34016 0.5394 0.31367 0.0
C989 C 0.36962 0.50864 0.3127 0.0
H990 H 0.2887 0.56359 0.34559 0.0
C991 C 0.36436 0.4741 0.33698 0.0
H992 H 0.34375 0.56639 0.29525 0.0
C993 C 0.33279 0.47219 0.36492 0.0
C994 C 0.30613 0.50501 0.36953 0.0
H995 H 0.38645 0.44981 0.33645 0.0
H996 H 0.33158 0.44669 0.38567 0.0
C997 C 0.30852 0.53767 0.3422 0.0
C998 C 0.80176 0.96102 0.66418 0.0
C999 C 0.79144 0.99786 0.64532 0.0
H1000 H 0.84367 0.93094 0.70397 0.0
C1001 C 0.80816 0.03413 0.66033 0.0
H1002 H 0.78955 0.93261 0.65301 0.0
C1003 C 0.83918 0.03309 0.68903 0.0
C1004 C 0.85347 0.99586 0.70366 0.0
H1005 H 0.80053 0.06297 0.64652 0.0
H1006 H 0.8548 0.06105 0.6966 0.0
C1007 C 0.83277 0.96004 0.69332 0.0
C1008 C 0.95689 0.30944 0.84378 0.0
C1009 C 0.99278 0.29158 0.85791 0.0
H1010 H 0.93113 0.35734 0.80816 0.0
C1011 C 0.02972 0.30158 0.83914 0.0
H1012 H 0.92823 0.30288 0.85849 0.0
C1013 C 0.03129 0.33214 0.80967 0.0
C1014 C 0.99608 0.35376 0.79964 0.0
H1015 H 0.05786 0.2888 0.85026 0.0
H1016 H 0.06059 0.34205 0.79852 0.0
C1017 C 0.95859 0.34077 0.81521 0.0
C1018 C 0.54015 0.68696 0.34289 0.0
C1019 C 0.5047 0.70538 0.35731 0.0
H1020 H 0.56477 0.63846 0.30739 0.0
C1021 C 0.46732 0.69559 0.33931 0.0
H1022 H 0.56912 0.69335 0.35708 0.0
C1023 C 0.46491 0.66475 0.31026 0.0
C1024 C 0.49972 0.64271 0.29991 0.0
H1025 H 0.43953 0.7088 0.35075 0.0
H1026 H 0.43533 0.65503 0.29967 0.0
C1027 C 0.53761 0.65539 0.31472 0.0
C1028 C 0.4551 0.12546 0.15841 0.0
C1029 C 0.49079 0.12348 0.18153 0.0
H1030 H 0.42305 0.15583 0.11103 0.0
C1031 C 0.51868 0.1558 0.17966 0.0
H1032 H 0.43283 0.10126 0.15974 0.0
C1033 C 0.51293 0.18737 0.1516 0.0
C1034 C 0.47912 0.18681 0.12567 0.0
H1035 H 0.54645 0.15488 0.1972 0.0
H1036 H 0.53654 0.20993 0.14765 0.0
C1037 C 0.44933 0.15683 0.13081 0.0
C1038 C 0.97782 0.84791 0.67454 0.0
C1039 C 0.00147 0.88351 0.67373 0.0
H1040 H 0.96532 0.7906 0.64572 0.0
C1041 C 0.03541 0.88531 0.64817 0.0
H1042 H 0.9516 0.84574 0.69423 0.0
C1043 C 0.04355 0.85385 0.62138 0.0
C1044 C 0.0178 0.81996 0.61923 0.0
H1045 H 0.05474 0.91193 0.64758 0.0
H1046 H 0.06854 0.8573 0.60027 0.0
C1047 C 0.98585 0.81625 0.64718 0.0
C1048 C 0.82731 0.01786 0.34903 0.0
C1049 C 0.82825 0.99407 0.38452 0.0
H1050 H 0.856 0.03093 0.29177 0.0
C1051 C 0.85451 0.96069 0.38629 0.0
H1052 H 0.80712 0.04366 0.34683 0.0
C1053 C 0.88168 0.95326 0.35497 0.0
C1054 C 0.88348 0.97907 0.32114 0.0
H1055 H 0.85529 0.94121 0.41275 0.0
H1056 H 0.90307 0.92854 0.35835 0.0
C1057 C 0.85496 0.01046 0.31744 0.0
C1058 C 0.65343 0.98306 0.80405 0.0
C1059 C 0.63204 0.01979 0.80205 0.0
H1060 H 0.69432 0.94628 0.83906 0.0
C1061 C 0.64114 0.0507 0.82982 0.0
H1062 H 0.64603 0.95847 0.78353 0.0
C1063 C 0.66769 0.04348 0.86188 0.0
C1064 C 0.68593 0.00535 0.86646 0.0
H1065 H 0.62443 0.07897 0.82922 0.0
H1066 H 0.67163 0.06674 0.88478 0.0
C1067 C 0.68064 0.97596 0.83603 0.0
C1068 C 0.34237 0.46612 0.69084 0.0
C1069 C 0.36017 0.50351 0.70084 0.0
H1070 H 0.3023 0.43443 0.65051 0.0
C1071 C 0.34555 0.53913 0.68284 0.0
H1072 H 0.35396 0.43825 0.70381 0.0
C1073 C 0.3171 0.53684 0.65152 0.0
C1074 C 0.30222 0.49901 0.63877 0.0
H1075 H 0.3596 0.56813 0.6895 0.0
H1076 H 0.3094 0.56417 0.63496 0.0
C1077 C 0.31298 0.46395 0.66032 0.0
C1078 C 0.15963 0.53369 0.19253 0.0
C1079 C 0.14158 0.4966 0.2033 0.0
H1080 H 0.19948 0.56443 0.15129 0.0
C1081 C 0.15601 0.46057 0.18601 0.0
H1082 H 0.14825 0.56187 0.20496 0.0
C1083 C 0.1842 0.46214 0.15444 0.0
C1084 C 0.19907 0.49966 0.14074 0.0
H1085 H 0.14182 0.43178 0.19327 0.0
H1086 H 0.19156 0.43448 0.13832 0.0
C1087 C 0.18878 0.53514 0.16177 0.0
C1088 C 0.37424 0.84137 0.96195 0.0
C1089 C 0.37668 0.81871 0.99789 0.0
H1090 H 0.34278 0.88756 0.92927 0.0
C1091 C 0.34435 0.82007 0.02568 0.0
H1092 H 0.39846 0.84036 0.93976 0.0
C1093 C 0.31222 0.84727 0.01957 0.0
C1094 C 0.31207 0.87264 0.98534 0.0
H1095 H 0.34562 0.80278 0.05361 0.0
H1096 H 0.28976 0.85111 0.04321 0.0
C1097 C 0.34215 0.86794 0.95568 0.0
C1098 C 0.84248 0.68421 0.03827 0.0
C1099 C 0.85578 0.69906 0.00061 0.0
H1100 H 0.80428 0.6415 0.06907 0.0
C1101 C 0.83459 0.68824 0.96531 0.0
H1102 H 0.85872 0.69192 0.06581 0.0
C1103 C 0.80412 0.65869 0.96708 0.0
C1104 C 0.79375 0.64071 0.0043 0.0
H1105 H 0.84478 0.69886 0.9359 0.0
H1106 H 0.7916 0.64699 0.93901 0.0
C1107 C 0.81118 0.6556 0.04016 0.0
C1108 C 0.66306 0.31315 0.46722 0.0
C1109 C 0.64088 0.30305 0.50213 0.0
H1110 H 0.70727 0.35347 0.44143 0.0
C1111 C 0.65329 0.31848 0.53985 0.0
H1112 H 0.65357 0.30208 0.43775 0.0
C1113 C 0.68483 0.34678 0.5421 0.0
C1114 C 0.70355 0.36073 0.50653 0.0
H1115 H 0.63629 0.31135 0.56708 0.0
H1116 H 0.69113 0.36128 0.57094 0.0
C1117 C 0.69387 0.34237 0.46933 0.0
C1118 C 0.11769 0.15481 0.46142 0.0
C1119 C 0.11753 0.17662 0.49793 0.0
H1120 H 0.14752 0.11037 0.42517 0.0
C1121 C 0.15187 0.17518 0.52324 0.0
H1122 H 0.09208 0.15616 0.44087 0.0
C1123 C 0.18403 0.14886 0.51405 0.0
C1124 C 0.18211 0.1243 0.47928 0.0
H1125 H 0.1525 0.19199 0.55146 0.0
H1126 H 0.20842 0.14513 0.53575 0.0
C1127 C 0.14968 0.12907 0.45214 0.0
C1128 C 0.03918 0.65769 0.18343 0.0
C1129 C 0.00167 0.64448 0.19875 0.0
H1130 H 0.06958 0.69588 0.14046 0.0
C1131 C 0.9664 0.66594 0.18862 0.0
H1132 H 0.06668 0.64124 0.19059 0.0
C1133 C 0.96796 0.69659 0.15926 0.0
C1134 C 0.00495 0.70683 0.14073 0.0
H1135 H 0.9371 0.65584 0.19961 0.0
H1136 H 0.93982 0.70927 0.14804 0.0
C1137 C 0.04087 0.68913 0.15499 0.0
C1138 C 0.46094 0.34426 0.68384 0.0
C1139 C 0.49886 0.35698 0.69855 0.0
H1140 H 0.42936 0.30625 0.6416 0.0
C1141 C 0.53367 0.33496 0.68814 0.0
H1142 H 0.4338 0.36117 0.69124 0.0
C1143 C 0.53121 0.30409 0.65912 0.0
C1144 C 0.4938 0.29427 0.64122 0.0
H1145 H 0.56326 0.3447 0.69867 0.0
H1146 H 0.55899 0.2909 0.64763 0.0
C1147 C 0.45837 0.31267 0.65571 0.0
C1148 C 0.54236 0.8749 0.84131 0.0
C1149 C 0.50671 0.8768 0.81814 0.0
H1150 H 0.57453 0.84447 0.88858 0.0
C1151 C 0.47894 0.84436 0.81991 0.0
H1152 H 0.56457 0.89916 0.84006 0.0
C1153 C 0.4848 0.81271 0.84785 0.0
C1154 C 0.51861 0.81329 0.87377 0.0
H1155 H 0.4512 0.84519 0.80231 0.0
H1156 H 0.46129 0.79003 0.8517 0.0
C1157 C 0.54825 0.84344 0.8688 0.0
C1158 C 0.0201 0.10526 0.37549 0.0
C1159 C 0.01432 0.11121 0.33382 0.0
H1160 H 0.01576 0.12969 0.43483 0.0
C1161 C 0.00271 0.14991 0.31977 0.0
H1162 H 0.03006 0.07625 0.3873 0.0
C1163 C 0.99438 0.18125 0.34759 0.0
C1164 C 0.9977 0.1739 0.38946 0.0
H1165 H 0.99833 0.15533 0.28767 0.0
H1166 H 0.98357 0.21024 0.33658 0.0
C1167 C 0.01196 0.13606 0.40279 0.0
C1168 C 0.12284 0.04791 0.64854 0.0
C1169 C 0.11985 0.02123 0.68163 0.0
H1170 H 0.14898 0.05978 0.59053 0.0
C1171 C 0.14653 0.98816 0.68408 0.0
H1172 H 0.10266 0.07372 0.64602 0.0
C1173 C 0.17334 0.98007 0.65193 0.0
C1174 C 0.17321 0.00475 0.61706 0.0
H1175 H 0.14436 0.96687 0.70902 0.0
H1176 H 0.19193 0.95305 0.6531 0.0
C1177 C 0.14904 0.03969 0.61657 0.0
C1178 C 0.35507 0.94899 0.17077 0.0
C1179 C 0.3647 0.98031 0.19789 0.0
H1180 H 0.32431 0.93239 0.11609 0.0
C1181 C 0.34389 0.01734 0.19514 0.0
H1182 H 0.3714 0.92051 0.17187 0.0
C1183 C 0.31671 0.0242 0.1631 0.0
C1184 C 0.31093 0.99431 0.13328 0.0
H1185 H 0.35176 0.04225 0.2151 0.0
H1186 H 0.30351 0.05404 0.15947 0.0
C1187 C 0.32859 0.95599 0.13858 0.0
C1188 C 0.65611 0.53368 0.30813 0.0
C1189 C 0.63847 0.49624 0.29797 0.0
H1190 H 0.69609 0.56539 0.34853 0.0
C1191 C 0.65336 0.46061 0.31574 0.0
H1192 H 0.64433 0.56155 0.29534 0.0
C1193 C 0.6819 0.4629 0.34699 0.0
C1194 C 0.6966 0.50075 0.35991 0.0
H1195 H 0.63945 0.43157 0.30896 0.0
H1196 H 0.68978 0.43553 0.36339 0.0
C1197 C 0.68557 0.53586 0.33858 0.0
C1198 C 0.84191 0.53772 0.81195 0.0
C1199 C 0.85665 0.50167 0.79499 0.0
H1200 H 0.80605 0.5639 0.85935 0.0
C1201 C 0.83881 0.46454 0.80596 0.0
H1202 H 0.85592 0.56656 0.80452 0.0
C1203 C 0.80959 0.4631 0.83664 0.0
C1204 C 0.799 0.49865 0.85738 0.0
H1205 H 0.85042 0.43635 0.79376 0.0
H1206 H 0.79908 0.43381 0.84732 0.0
C1207 C 0.81363 0.53618 0.84345 0.0
C1208 C 0.65536 0.12987 0.04414 0.0
C1209 C 0.68579 0.12555 0.01477 0.0
H1210 H 0.59903 0.15745 0.05989 0.0
C1211 C 0.68621 0.15156 0.98103 0.0
H1212 H 0.65435 0.10985 0.07023 0.0
C1213 C 0.65426 0.17899 0.97498 0.0
C1214 C 0.62158 0.18 0.00238 0.0
H1215 H 0.709 0.14809 0.95764 0.0
H1216 H 0.65343 0.19677 0.94735 0.0
C1217 C 0.62349 0.15672 0.03795 0.0
C1218 C 0.15563 0.31563 0.95919 0.0
C1219 C 0.14281 0.30027 0.99681 0.0
H1220 H 0.1936 0.35859 0.9285 0.0
C1221 C 0.16462 0.31038 0.03196 0.0
H1222 H 0.13893 0.30844 0.93179 0.0
C1223 C 0.19525 0.33976 0.03019 0.0
C1224 C 0.20514 0.35826 0.9931 0.0
H1225 H 0.15484 0.29933 0.06135 0.0
H1226 H 0.20826 0.35096 0.05824 0.0
C1227 C 0.18707 0.34406 0.95729 0.0
C1228 C 0.34498 0.68055 0.45829 0.0
C1229 C 0.35721 0.6962 0.49598 0.0
H1230 H 0.3073 0.63756 0.42727 0.0
C1231 C 0.33485 0.68631 0.53083 0.0
H1232 H 0.3621 0.68753 0.43111 0.0
C1233 C 0.30404 0.65708 0.52875 0.0
C1234 C 0.29453 0.6385 0.49161 0.0
H1235 H 0.34419 0.69755 0.56029 0.0
H1236 H 0.2905 0.64614 0.55664 0.0
C1237 C 0.31345 0.65224 0.45605 0.0
C1238 C 0.87809 0.84335 0.53937 0.0
C1239 C 0.87769 0.82116 0.50309 0.0
H1240 H 0.84918 0.88867 0.57523 0.0
C1241 C 0.84329 0.8228 0.4779 0.0
H1242 H 0.90387 0.84194 0.55973 0.0
C1243 C 0.81165 0.84979 0.48691 0.0
C1244 C 0.81424 0.87481 0.52131 0.0
H1245 H 0.84233 0.80574 0.44985 0.0
H1246 H 0.78721 0.85363 0.46529 0.0
C1247 C 0.84661 0.86974 0.54846 0.0
loop_
_geom_bond_atom_site_label_1
_geom_bond_atom_site_label_2
_geom_bond_distance
_geom_bond_site_symmetry_2
_ccdc_geom_bond_type
Sc0 O3 2.025 1_655 S
Sc0 O10 2.105 1_654 S
Sc0 O13 2.105 . S
Sc0 O16 2.105 . S
Sc0 O19 2.103 1_654 S
Sc1 O3 2.025 . S
Sc1 O11 2.105 . S
Sc1 O15 2.105 . S
Sc1 O17 2.105 . S
Sc1 O21 2.105 . S
Sc2 O3 2.025 . S
Sc2 O12 2.105 . S
Sc2 O14 2.105 1_455 S
Sc2 O18 2.105 1_455 S
Sc2 O20 2.105 1_554 S
O3 Sc0 2.025 1_455 S
O3 Sc1 2.025 . S
O3 Sc2 2.025 . S
C4 O10 1.268 . S
C4 O20 1.268 . S
C5 O11 1.268 . S
C5 O19 1.258 1_554 S
C6 O12 1.268 . S
C6 O21 1.268 . S
C7 O13 1.268 . S
C7 O17 1.268 1_655 S
C8 O14 1.268 . S
C8 O16 1.268 . S
C9 O15 1.268 . S
C9 O18 1.268 1_455 S
O10 Sc0 2.105 1_456 S
O10 C4 1.268 . S
O11 Sc1 2.105 . S
O11 C5 1.268 . S
O12 Sc2 2.105 . S
O12 C6 1.268 . S
O13 Sc0 2.105 . S
O13 C7 1.268 . S
O14 Sc2 2.105 1_655 S
O14 C8 1.268 . S
O15 Sc1 2.105 . S
O15 C9 1.268 . S
O16 Sc0 2.105 . S
O16 C8 1.268 . S
O17 Sc1 2.105 . S
O17 C7 1.268 1_455 S
O18 Sc2 2.105 1_655 S
O18 C9 1.268 1_655 S
O19 Sc0 2.103 1_456 S
O19 C5 1.258 1_556 S
O20 Sc2 2.105 1_556 S
O20 C4 1.268 . S
O21 Sc1 2.105 . S
O21 C6 1.268 . S
Sc22 O25 2.025 . S
Sc22 O32 2.105 . S
Sc22 O35 2.105 . S
Sc22 O38 2.105 . S
Sc22 O41 2.105 . S
Sc23 O25 2.025 . S
Sc23 O33 2.105 . S
Sc23 O37 2.105 . S
Sc23 O39 2.105 . S
Sc23 O43 2.105 . S
Sc24 O25 2.025 . S
Sc24 O34 2.105 . S
Sc24 O36 2.105 . S
Sc24 O40 2.105 . S
Sc24 O42 2.105 . S
O25 Sc22 2.025 . S
O25 Sc23 2.025 . S
O25 Sc24 2.025 . S
C26 O32 1.268 . S
C26 O42 1.268 . S
C27 O33 1.268 . S
C27 O41 1.268 . S
C28 O34 1.268 . S
C28 O43 1.268 . S
C29 O35 1.268 . S
C29 O39 1.268 . S
C30 O36 1.268 . S
C30 O38 1.268 . S
C31 O37 1.268 . S
C31 O40 1.268 . S
O32 Sc22 2.105 . S
O32 C26 1.268 . S
O33 Sc23 2.105 . S
O33 C27 1.268 . S
O34 Sc24 2.105 . S
O34 C28 1.268 . S
O35 Sc22 2.105 . S
O35 C29 1.268 . S
O36 Sc24 2.105 . S
O36 C30 1.268 . S
O37 Sc23 2.105 . S
O37 C31 1.268 . S
O38 Sc22 2.105 . S
O38 C30 1.268 . S
O39 Sc23 2.105 . S
O39 C29 1.268 . S
O40 Sc24 2.105 . S
O40 C31 1.268 . S
O41 Sc22 2.105 . S
O41 C27 1.268 . S
O42 Sc24 2.105 . S
O42 C26 1.268 . S
O43 Sc23 2.105 . S
O43 C28 1.268 . S
Sc44 O47 2.025 . S
Sc44 O54 2.105 . S
Sc44 O57 2.105 . S
Sc44 O60 2.105 1_556 S
Sc44 O63 2.105 . S
Sc45 O47 2.025 . S
Sc45 O55 2.105 . S
Sc45 O59 2.105 . S
Sc45 O61 2.105 . S
Sc45 O65 2.105 . S
Sc46 O47 2.025 . S
Sc46 O56 2.105 . S
Sc46 O58 2.105 1_556 S
Sc46 O62 2.103 1_556 S
Sc46 O64 2.105 . S
O47 Sc44 2.025 . S
O47 Sc45 2.025 . S
O47 Sc46 2.025 . S
C48 O54 1.268 . S
C48 O64 1.268 . S
C49 O55 1.268 . S
C49 O63 1.268 . S
C50 O56 1.268 . S
C50 O65 1.268 . S
C51 O57 1.268 . S
C51 O61 1.268 . S
C52 O58 1.268 . S
C52 O60 1.268 . S
C53 O59 1.268 . S
C53 O62 1.258 1_556 S
O54 Sc44 2.105 . S
O54 C48 1.268 . S
O55 Sc45 2.105 . S
O55 C49 1.268 . S
O56 Sc46 2.105 . S
O56 C50 1.268 . S
O57 Sc44 2.105 . S
O57 C51 1.268 . S
O58 Sc46 2.105 1_554 S
O58 C52 1.268 . S
O59 Sc45 2.105 . S
O59 C53 1.268 . S
O60 Sc44 2.105 1_554 S
O60 C52 1.268 . S
O61 Sc45 2.105 . S
O61 C51 1.268 . S
O62 Sc46 2.103 1_554 S
O62 C53 1.258 1_554 S
O63 Sc44 2.105 . S
O63 C49 1.268 . S
O64 Sc46 2.105 . S
O64 C48 1.268 . S
O65 Sc45 2.105 . S
O65 C50 1.268 . S
Sc66 O69 2.025 . S
Sc66 O76 2.105 1_655 S
Sc66 O79 2.105 . S
Sc66 O82 2.105 . S
Sc66 O85 2.105 1_655 S
Sc67 O69 2.025 . S
Sc67 O77 2.105 . S
Sc67 O81 2.105 . S
Sc67 O83 2.105 . S
Sc67 O87 2.105 . S
Sc68 O69 2.025 1_455 S
Sc68 O78 2.105 . S
Sc68 O80 2.105 1_455 S
Sc68 O84 2.105 1_455 S
Sc68 O86 2.105 . S
O69 Sc66 2.025 . S
O69 Sc67 2.025 . S
O69 Sc68 2.025 1_655 S
C70 O76 1.268 . S
C70 O86 1.268 . S
C71 O77 1.268 . S
C71 O85 1.268 1_655 S
C72 O78 1.268 . S
C72 O87 1.268 1_455 S
C73 O79 1.268 . S
C73 O83 1.268 . S
C74 O80 1.268 . S
C74 O82 1.268 . S
C75 O81 1.268 . S
C75 O84 1.268 . S
O76 Sc66 2.105 1_455 S
O76 C70 1.268 . S
O77 Sc67 2.105 . S
O77 C71 1.268 . S
O78 Sc68 2.105 . S
O78 C72 1.268 . S
O79 Sc66 2.105 . S
O79 C73 1.268 . S
O80 Sc68 2.105 1_655 S
O80 C74 1.268 . S
O81 Sc67 2.105 . S
O81 C75 1.268 . S
O82 Sc66 2.105 . S
O82 C74 1.268 . S
O83 Sc67 2.105 . S
O83 C73 1.268 . S
O84 Sc68 2.105 1_655 S
O84 C75 1.268 . S
O85 Sc66 2.105 1_455 S
O85 C71 1.268 1_455 S
O86 Sc68 2.105 . S
O86 C70 1.268 . S
O87 Sc67 2.105 . S
O87 C72 1.268 1_655 S
Sc88 O91 2.025 1_565 S
Sc88 O98 2.105 1_465 S
Sc88 O101 2.105 . S
Sc88 O104 2.105 . S
Sc88 O107 2.103 1_465 S
Sc89 O91 2.025 . S
Sc89 O99 2.105 . S
Sc89 O103 2.105 . S
Sc89 O105 2.105 . S
Sc89 O109 2.105 . S
Sc90 O91 2.025 . S
Sc90 O100 2.105 . S
Sc90 O102 2.105 1_545 S
Sc90 O106 2.105 1_545 S
Sc90 O108 2.105 1_455 S
O91 Sc88 2.025 1_545 S
O91 Sc89 2.025 . S
O91 Sc90 2.025 . S
C92 O98 1.268 . S
C92 O108 1.268 . S
C93 O99 1.268 . S
C93 O107 1.258 1_455 S
C94 O100 1.268 . S
C94 O109 1.268 . S
C95 O101 1.268 . S
C95 O105 1.268 1_565 S
C96 O102 1.268 . S
C96 O104 1.268 . S
C97 O103 1.268 . S
C97 O106 1.268 1_545 S
O98 Sc88 2.105 1_645 S
O98 C92 1.268 . S
O99 Sc89 2.105 . S
O99 C93 1.268 . S
O100 Sc90 2.105 . S
O100 C94 1.268 . S
O101 Sc88 2.105 . S
O101 C95 1.268 . S
O102 Sc90 2.105 1_565 S
O102 C96 1.268 . S
O103 Sc89 2.105 . S
O103 C97 1.268 . S
O104 Sc88 2.105 . S
O104 C96 1.268 . S
O105 Sc89 2.105 . S
O105 C95 1.268 1_545 S
O106 Sc90 2.105 1_565 S
O106 C97 1.268 1_565 S
O107 Sc88 2.103 1_645 S
O107 C93 1.258 1_655 S
O108 Sc90 2.105 1_655 S
O108 C92 1.268 . S
O109 Sc89 2.105 . S
O109 C94 1.268 . S
Sc110 O113 2.025 1_545 S
Sc110 O120 2.105 1_545 S
Sc110 O123 2.105 . S
Sc110 O126 2.105 . S
Sc110 O129 2.105 1_545 S
Sc111 O113 2.025 . S
Sc111 O121 2.105 . S
Sc111 O125 2.105 . S
Sc111 O127 2.105 . S
Sc111 O131 2.105 . S
Sc112 O113 2.025 . S
Sc112 O122 2.105 . S
Sc112 O124 2.105 1_565 S
Sc112 O128 2.105 1_565 S
Sc112 O130 2.105 . S
O113 Sc110 2.025 1_565 S
O113 Sc111 2.025 . S
O113 Sc112 2.025 . S
C114 O120 1.268 . S
C114 O130 1.268 . S
C115 O121 1.268 . S
C115 O129 1.268 . S
C116 O122 1.268 . S
C116 O131 1.268 . S
C117 O123 1.268 . S
C117 O127 1.268 1_545 S
C118 O124 1.268 . S
C118 O126 1.268 . S
C119 O125 1.268 . S
C119 O128 1.268 1_565 S
O120 Sc110 2.105 1_565 S
O120 C114 1.268 . S
O121 Sc111 2.105 . S
O121 C115 1.268 . S
O122 Sc112 2.105 . S
O122 C116 1.268 . S
O123 Sc110 2.105 . S
O123 C117 1.268 . S
O124 Sc112 2.105 1_545 S
O124 C118 1.268 . S
O125 Sc111 2.105 . S
O125 C119 1.268 . S
O126 Sc110 2.105 . S
O126 C118 1.268 . S
O127 Sc111 2.105 . S
O127 C117 1.268 1_565 S
O128 Sc112 2.105 1_545 S
O128 C119 1.268 1_545 S
O129 Sc110 2.105 1_565 S
O129 C115 1.268 . S
O130 Sc112 2.105 . S
O130 C114 1.268 . S
O131 Sc111 2.105 . S
O131 C116 1.268 . S
Sc132 O135 2.025 . S
Sc132 O142 2.105 . S
Sc132 O145 2.105 . S
Sc132 O148 2.105 . S
Sc132 O151 2.105 . S
Sc133 O135 2.025 . S
Sc133 O143 2.105 . S
Sc133 O147 2.105 . S
Sc133 O149 2.105 . S
Sc133 O153 2.105 . S
Sc134 O135 2.025 . S
Sc134 O144 2.105 . S
Sc134 O146 2.105 . S
Sc134 O150 2.105 . S
Sc134 O152 2.105 . S
O135 Sc132 2.025 . S
O135 Sc133 2.025 . S
O135 Sc134 2.025 . S
C136 O142 1.268 . S
C136 O152 1.268 . S
C137 O143 1.268 . S
C137 O151 1.268 . S
C138 O144 1.268 . S
C138 O153 1.268 . S
C139 O145 1.268 . S
C139 O149 1.268 . S
C140 O146 1.268 . S
C140 O148 1.268 . S
C141 O147 1.268 . S
C141 O150 1.268 . S
O142 Sc132 2.105 . S
O142 C136 1.268 . S
O143 Sc133 2.105 . S
O143 C137 1.268 . S
O144 Sc134 2.105 . S
O144 C138 1.268 . S
O145 Sc132 2.105 . S
O145 C139 1.268 . S
O146 Sc134 2.105 . S
O146 C140 1.268 . S
O147 Sc133 2.105 . S
O147 C141 1.268 . S
O148 Sc132 2.105 . S
O148 C140 1.268 . S
O149 Sc133 2.105 . S
O149 C139 1.268 . S
O150 Sc134 2.105 . S
O150 C141 1.268 . S
O151 Sc132 2.105 . S
O151 C137 1.268 . S
O152 Sc134 2.105 . S
O152 C136 1.268 . S
O153 Sc133 2.105 . S
O153 C138 1.268 . S
Sc154 O157 2.025 . S
Sc154 O164 2.105 . S
Sc154 O167 2.105 . S
Sc154 O170 2.105 1_655 S
Sc154 O173 2.105 . S
Sc155 O157 2.025 . S
Sc155 O165 2.105 . S
Sc155 O169 2.105 . S
Sc155 O171 2.105 . S
Sc155 O175 2.105 . S
Sc156 O157 2.025 . S
Sc156 O166 2.105 . S
Sc156 O168 2.105 1_655 S
Sc156 O172 2.103 1_655 S
Sc156 O174 2.105 . S
O157 Sc154 2.025 . S
O157 Sc155 2.025 . S
O157 Sc156 2.025 . S
C158 O164 1.268 . S
C158 O174 1.268 . S
C159 O165 1.268 . S
C159 O173 1.268 . S
C160 O166 1.268 . S
C160 O175 1.268 . S
C161 O167 1.268 . S
C161 O171 1.268 . S
C162 O168 1.268 . S
C162 O170 1.268 . S
C163 O169 1.268 . S
C163 O172 1.258 1_655 S
O164 Sc154 2.105 . S
O164 C158 1.268 . S
O165 Sc155 2.105 . S
O165 C159 1.268 . S
O166 Sc156 2.105 . S
O166 C160 1.268 . S
O167 Sc154 2.105 . S
O167 C161 1.268 . S
O168 Sc156 2.105 1_455 S
O168 C162 1.268 . S
O169 Sc155 2.105 . S
O169 C163 1.268 . S
O170 Sc154 2.105 1_455 S
O170 C162 1.268 . S
O171 Sc155 2.105 . S
O171 C161 1.268 . S
O172 Sc156 2.103 1_455 S
O172 C163 1.258 1_455 S
O173 Sc154 2.105 . S
O173 C159 1.268 . S
O174 Sc156 2.105 . S
O174 C158 1.268 . S
O175 Sc155 2.105 . S
O175 C160 1.268 . S
Sc176 O179 2.025 1_556 S
Sc176 O186 2.105 1_546 S
Sc176 O189 2.105 . S
Sc176 O192 2.105 . S
Sc176 O195 2.103 1_546 S
Sc177 O179 2.025 . S
Sc177 O187 2.105 . S
Sc177 O191 2.105 . S
Sc177 O193 2.105 . S
Sc177 O197 2.105 . S
Sc178 O179 2.025 . S
Sc178 O188 2.105 . S
Sc178 O190 2.105 1_554 S
Sc178 O194 2.105 1_554 S
Sc178 O196 2.105 1_545 S
O179 Sc176 2.025 1_554 S
O179 Sc177 2.025 . S
O179 Sc178 2.025 . S
C180 O186 1.268 . S
C180 O196 1.268 . S
C181 O187 1.268 . S
C181 O195 1.258 1_545 S
C182 O188 1.268 . S
C182 O197 1.268 . S
C183 O189 1.268 . S
C183 O193 1.268 1_556 S
C184 O190 1.268 . S
C184 O192 1.268 . S
C185 O191 1.268 . S
C185 O194 1.268 1_554 S
O186 Sc176 2.105 1_564 S
O186 C180 1.268 . S
O187 Sc177 2.105 . S
O187 C181 1.268 . S
O188 Sc178 2.105 . S
O188 C182 1.268 . S
O189 Sc176 2.105 . S
O189 C183 1.268 . S
O190 Sc178 2.105 1_556 S
O190 C184 1.268 . S
O191 Sc177 2.105 . S
O191 C185 1.268 . S
O192 Sc176 2.105 . S
O192 C184 1.268 . S
O193 Sc177 2.105 . S
O193 C183 1.268 1_554 S
O194 Sc178 2.105 1_556 S
O194 C185 1.268 1_556 S
O195 Sc176 2.103 1_564 S
O195 C181 1.258 1_565 S
O196 Sc178 2.105 1_565 S
O196 C180 1.268 . S
O197 Sc177 2.105 . S
O197 C182 1.268 . S
Sc198 O201 2.025 1_554 S
Sc198 O208 2.105 1_554 S
Sc198 O211 2.105 . S
Sc198 O214 2.105 . S
Sc198 O217 2.105 1_554 S
Sc199 O201 2.025 . S
Sc199 O209 2.105 . S
Sc199 O213 2.105 . S
Sc199 O215 2.105 . S
Sc199 O219 2.105 . S
Sc200 O201 2.025 . S
Sc200 O210 2.105 . S
Sc200 O212 2.105 1_556 S
Sc200 O216 2.105 1_556 S
Sc200 O218 2.105 . S
O201 Sc198 2.025 1_556 S
O201 Sc199 2.025 . S
O201 Sc200 2.025 . S
C202 O208 1.268 . S
C202 O218 1.268 . S
C203 O209 1.268 . S
C203 O217 1.268 . S
C204 O210 1.268 . S
C204 O219 1.268 . S
C205 O211 1.268 . S
C205 O215 1.268 1_554 S
C206 O212 1.268 . S
C206 O214 1.268 . S
C207 O213 1.268 . S
C207 O216 1.268 1_556 S
O208 Sc198 2.105 1_556 S
O208 C202 1.268 . S
O209 Sc199 2.105 . S
O209 C203 1.268 . S
O210 Sc200 2.105 . S
O210 C204 1.268 . S
O211 Sc198 2.105 . S
O211 C205 1.268 . S
O212 Sc200 2.105 1_554 S
O212 C206 1.268 . S
O213 Sc199 2.105 . S
O213 C207 1.268 . S
O214 Sc198 2.105 . S
O214 C206 1.268 . S
O215 Sc199 2.105 . S
O215 C205 1.268 1_556 S
O216 Sc200 2.105 1_554 S
O216 C207 1.268 1_554 S
O217 Sc198 2.105 1_556 S
O217 C203 1.268 . S
O218 Sc200 2.105 . S
O218 C202 1.268 . S
O219 Sc199 2.105 . S
O219 C204 1.268 . S
Sc220 O223 2.025 . S
Sc220 O230 2.105 . S
Sc220 O233 2.105 . S
Sc220 O236 2.105 . S
Sc220 O239 2.105 . S
Sc221 O223 2.025 . S
Sc221 O231 2.105 . S
Sc221 O235 2.105 . S
Sc221 O237 2.105 . S
Sc221 O241 2.105 . S
Sc222 O223 2.025 . S
Sc222 O232 2.105 . S
Sc222 O234 2.105 . S
Sc222 O238 2.105 . S
Sc222 O240 2.105 . S
O223 Sc220 2.025 . S
O223 Sc221 2.025 . S
O223 Sc222 2.025 . S
C224 O230 1.268 . S
C224 O240 1.268 . S
C225 O231 1.268 . S
C225 O239 1.268 . S
C226 O232 1.268 . S
C226 O241 1.268 . S
C227 O233 1.268 . S
C227 O237 1.268 . S
C228 O234 1.268 . S
C228 O236 1.268 . S
C229 O235 1.268 . S
C229 O238 1.268 . S
O230 Sc220 2.105 . S
O230 C224 1.268 . S
O231 Sc221 2.105 . S
O231 C225 1.268 . S
O232 Sc222 2.105 . S
O232 C226 1.268 . S
O233 Sc220 2.105 . S
O233 C227 1.268 . S
O234 Sc222 2.105 . S
O234 C228 1.268 . S
O235 Sc221 2.105 . S
O235 C229 1.268 . S
O236 Sc220 2.105 . S
O236 C228 1.268 . S
O237 Sc221 2.105 . S
O237 C227 1.268 . S
O238 Sc222 2.105 . S
O238 C229 1.268 . S
O239 Sc220 2.105 . S
O239 C225 1.268 . S
O240 Sc222 2.105 . S
O240 C224 1.268 . S
O241 Sc221 2.105 . S
O241 C226 1.268 . S
Sc242 O245 2.025 . S
Sc242 O252 2.105 . S
Sc242 O255 2.105 . S
Sc242 O258 2.105 1_565 S
Sc242 O261 2.105 . S
Sc243 O245 2.025 . S
Sc243 O253 2.105 . S
Sc243 O257 2.105 . S
Sc243 O259 2.105 . S
Sc243 O263 2.105 . S
Sc244 O245 2.025 . S
Sc244 O254 2.105 . S
Sc244 O256 2.105 1_565 S
Sc244 O260 2.103 1_565 S
Sc244 O262 2.105 . S
O245 Sc242 2.025 . S
O245 Sc243 2.025 . S
O245 Sc244 2.025 . S
C246 O252 1.268 . S
C246 O262 1.268 . S
C247 O253 1.268 . S
C247 O261 1.268 . S
C248 O254 1.268 . S
C248 O263 1.268 . S
C249 O255 1.268 . S
C249 O259 1.268 . S
C250 O256 1.268 . S
C250 O258 1.268 . S
C251 O257 1.268 . S
C251 O260 1.258 1_565 S
O252 Sc242 2.105 . S
O252 C246 1.268 . S
O253 Sc243 2.105 . S
O253 C247 1.268 . S
O254 Sc244 2.105 . S
O254 C248 1.268 . S
O255 Sc242 2.105 . S
O255 C249 1.268 . S
O256 Sc244 2.105 1_545 S
O256 C250 1.268 . S
O257 Sc243 2.105 . S
O257 C251 1.268 . S
O258 Sc242 2.105 1_545 S
O258 C250 1.268 . S
O259 Sc243 2.105 . S
O259 C249 1.268 . S
O260 Sc244 2.103 1_545 S
O260 C251 1.258 1_545 S
O261 Sc242 2.105 . S
O261 C247 1.268 . S
O262 Sc244 2.105 . S
O262 C246 1.268 . S
O263 Sc243 2.105 . S
O263 C248 1.268 . S
Sc264 O267 2.025 1_455 S
Sc264 O274 2.105 . S
Sc264 O277 2.103 1_456 S
Sc264 O280 2.105 1_456 S
Sc264 O283 2.105 . S
Sc265 O267 2.025 . S
Sc265 O275 2.105 . S
Sc265 O279 2.105 . S
Sc265 O281 2.105 . S
Sc265 O285 2.105 . S
Sc266 O267 2.025 . S
Sc266 O276 2.105 1_655 S
Sc266 O278 2.105 1_556 S
Sc266 O282 2.105 . S
Sc266 O284 2.105 1_655 S
O267 Sc264 2.025 1_655 S
O267 Sc265 2.025 . S
O267 Sc266 2.025 . S
C268 O274 1.268 . S
C268 O284 1.268 . S
C269 O275 1.268 1_455 S
C269 O283 1.268 . S
C270 O276 1.268 1_655 S
C270 O285 1.268 . S
C271 O277 1.258 1_556 S
C271 O281 1.268 . S
C272 O278 1.268 . S
C272 O280 1.268 . S
C273 O279 1.268 . S
C273 O282 1.268 . S
O274 Sc264 2.105 . S
O274 C268 1.268 . S
O275 Sc265 2.105 . S
O275 C269 1.268 1_655 S
O276 Sc266 2.105 1_455 S
O276 C270 1.268 1_455 S
O277 Sc264 2.103 1_654 S
O277 C271 1.258 1_554 S
O278 Sc266 2.105 1_554 S
O278 C272 1.268 . S
O279 Sc265 2.105 . S
O279 C273 1.268 . S
O280 Sc264 2.105 1_654 S
O280 C272 1.268 . S
O281 Sc265 2.105 . S
O281 C271 1.268 . S
O282 Sc266 2.105 . S
O282 C273 1.268 . S
O283 Sc264 2.105 . S
O283 C269 1.268 . S
O284 Sc266 2.105 1_455 S
O284 C268 1.268 . S
O285 Sc265 2.105 . S
O285 C270 1.268 . S
Sc286 O289 2.025 . S
Sc286 O296 2.105 . S
Sc286 O299 2.105 . S
Sc286 O302 2.105 . S
Sc286 O305 2.105 . S
Sc287 O289 2.025 . S
Sc287 O297 2.105 . S
Sc287 O301 2.105 . S
Sc287 O303 2.105 . S
Sc287 O307 2.105 . S
Sc288 O289 2.025 . S
Sc288 O298 2.105 . S
Sc288 O300 2.105 . S
Sc288 O304 2.105 . S
Sc288 O306 2.105 . S
O289 Sc286 2.025 . S
O289 Sc287 2.025 . S
O289 Sc288 2.025 . S
C290 O296 1.268 . S
C290 O306 1.268 . S
C291 O297 1.268 . S
C291 O305 1.268 . S
C292 O298 1.268 . S
C292 O307 1.268 . S
C293 O299 1.268 . S
C293 O303 1.268 . S
C294 O300 1.268 . S
C294 O302 1.268 . S
C295 O301 1.268 . S
C295 O304 1.268 . S
O296 Sc286 2.105 . S
O296 C290 1.268 . S
O297 Sc287 2.105 . S
O297 C291 1.268 . S
O298 Sc288 2.105 . S
O298 C292 1.268 . S
O299 Sc286 2.105 . S
O299 C293 1.268 . S
O300 Sc288 2.105 . S
O300 C294 1.268 . S
O301 Sc287 2.105 . S
O301 C295 1.268 . S
O302 Sc286 2.105 . S
O302 C294 1.268 . S
O303 Sc287 2.105 . S
O303 C293 1.268 . S
O304 Sc288 2.105 . S
O304 C295 1.268 . S
O305 Sc286 2.105 . S
O305 C291 1.268 . S
O306 Sc288 2.105 . S
O306 C290 1.268 . S
O307 Sc287 2.105 . S
O307 C292 1.268 . S
Sc308 O311 2.025 . S
Sc308 O318 2.105 1_554 S
Sc308 O321 2.105 . S
Sc308 O324 2.105 . S
Sc308 O327 2.105 . S
Sc309 O311 2.025 . S
Sc309 O319 2.105 . S
Sc309 O323 2.105 . S
Sc309 O325 2.105 . S
Sc309 O329 2.105 . S
Sc310 O311 2.025 . S
Sc310 O320 2.103 1_554 S
Sc310 O322 2.105 . S
Sc310 O326 2.105 . S
Sc310 O328 2.105 1_554 S
O311 Sc308 2.025 . S
O311 Sc309 2.025 . S
O311 Sc310 2.025 . S
C312 O318 1.268 . S
C312 O328 1.268 . S
C313 O319 1.268 . S
C313 O327 1.268 . S
C314 O320 1.258 1_554 S
C314 O329 1.268 . S
C315 O321 1.268 . S
C315 O325 1.268 . S
C316 O322 1.268 . S
C316 O324 1.268 . S
C317 O323 1.268 . S
C317 O326 1.268 . S
O318 Sc308 2.105 1_556 S
O318 C312 1.268 . S
O319 Sc309 2.105 . S
O319 C313 1.268 . S
O320 Sc310 2.103 1_556 S
O320 C314 1.258 1_556 S
O321 Sc308 2.105 . S
O321 C315 1.268 . S
O322 Sc310 2.105 . S
O322 C316 1.268 . S
O323 Sc309 2.105 . S
O323 C317 1.268 . S
O324 Sc308 2.105 . S
O324 C316 1.268 . S
O325 Sc309 2.105 . S
O325 C315 1.268 . S
O326 Sc310 2.105 . S
O326 C317 1.268 . S
O327 Sc308 2.105 . S
O327 C313 1.268 . S
O328 Sc310 2.105 1_556 S
O328 C312 1.268 . S
O329 Sc309 2.105 . S
O329 C314 1.268 . S
Sc330 O333 2.025 . S
Sc330 O340 2.105 . S
Sc330 O343 2.105 1_455 S
Sc330 O346 2.105 1_455 S
Sc330 O349 2.105 . S
Sc331 O333 2.025 . S
Sc331 O341 2.105 . S
Sc331 O345 2.105 . S
Sc331 O347 2.105 . S
Sc331 O351 2.105 . S
Sc332 O333 2.025 1_655 S
Sc332 O342 2.105 1_655 S
Sc332 O344 2.105 . S
Sc332 O348 2.105 . S
Sc332 O350 2.105 1_655 S
O333 Sc330 2.025 . S
O333 Sc331 2.025 . S
O333 Sc332 2.025 1_455 S
C334 O340 1.268 . S
C334 O350 1.268 . S
C335 O341 1.268 . S
C335 O349 1.268 . S
C336 O342 1.268 . S
C336 O351 1.268 . S
C337 O343 1.268 1_455 S
C337 O347 1.268 . S
C338 O344 1.268 . S
C338 O346 1.268 . S
C339 O345 1.268 1_655 S
C339 O348 1.268 . S
O340 Sc330 2.105 . S
O340 C334 1.268 . S
O341 Sc331 2.105 . S
O341 C335 1.268 . S
O342 Sc332 2.105 1_455 S
O342 C336 1.268 . S
O343 Sc330 2.105 1_655 S
O343 C337 1.268 1_655 S
O344 Sc332 2.105 . S
O344 C338 1.268 . S
O345 Sc331 2.105 . S
O345 C339 1.268 1_455 S
O346 Sc330 2.105 1_655 S
O346 C338 1.268 . S
O347 Sc331 2.105 . S
O347 C337 1.268 . S
O348 Sc332 2.105 . S
O348 C339 1.268 . S
O349 Sc330 2.105 . S
O349 C335 1.268 . S
O350 Sc332 2.105 1_455 S
O350 C334 1.268 . S
O351 Sc331 2.105 . S
O351 C336 1.268 . S
Sc352 O355 2.025 . S
Sc352 O362 2.105 1_655 S
Sc352 O365 2.105 1_565 S
Sc352 O368 2.105 1_565 S
Sc352 O371 2.105 . S
Sc353 O355 2.025 . S
Sc353 O363 2.105 . S
Sc353 O367 2.105 . S
Sc353 O369 2.105 . S
Sc353 O373 2.105 . S
Sc354 O355 2.025 1_545 S
Sc354 O364 2.103 1_645 S
Sc354 O366 2.105 . S
Sc354 O370 2.105 . S
Sc354 O372 2.105 1_645 S
O355 Sc352 2.025 . S
O355 Sc353 2.025 . S
O355 Sc354 2.025 1_565 S
C356 O362 1.268 . S
C356 O372 1.268 . S
C357 O363 1.268 . S
C357 O371 1.268 . S
C358 O364 1.258 1_655 S
C358 O373 1.268 . S
C359 O365 1.268 1_565 S
C359 O369 1.268 . S
C360 O366 1.268 . S
C360 O368 1.268 . S
C361 O367 1.268 1_545 S
C361 O370 1.268 . S
O362 Sc352 2.105 1_455 S
O362 C356 1.268 . S
O363 Sc353 2.105 . S
O363 C357 1.268 . S
O364 Sc354 2.103 1_465 S
O364 C358 1.258 1_455 S
O365 Sc352 2.105 1_545 S
O365 C359 1.268 1_545 S
O366 Sc354 2.105 . S
O366 C360 1.268 . S
O367 Sc353 2.105 . S
O367 C361 1.268 1_565 S
O368 Sc352 2.105 1_545 S
O368 C360 1.268 . S
O369 Sc353 2.105 . S
O369 C359 1.268 . S
O370 Sc354 2.105 . S
O370 C361 1.268 . S
O371 Sc352 2.105 . S
O371 C357 1.268 . S
O372 Sc354 2.105 1_465 S
O372 C356 1.268 . S
O373 Sc353 2.105 . S
O373 C358 1.268 . S
Sc374 O377 2.025 . S
Sc374 O384 2.105 . S
Sc374 O387 2.105 1_545 S
Sc374 O390 2.105 1_545 S
Sc374 O393 2.105 . S
Sc375 O377 2.025 . S
Sc375 O385 2.105 . S
Sc375 O389 2.105 . S
Sc375 O391 2.105 . S
Sc375 O395 2.105 . S
Sc376 O377 2.025 1_565 S
Sc376 O386 2.105 1_565 S
Sc376 O388 2.105 . S
Sc376 O392 2.105 . S
Sc376 O394 2.105 1_565 S
O377 Sc374 2.025 . S
O377 Sc375 2.025 . S
O377 Sc376 2.025 1_545 S
C378 O384 1.268 . S
C378 O394 1.268 . S
C379 O385 1.268 . S
C379 O393 1.268 . S
C380 O386 1.268 . S
C380 O395 1.268 . S
C381 O387 1.268 1_545 S
C381 O391 1.268 . S
C382 O388 1.268 . S
C382 O390 1.268 . S
C383 O389 1.268 1_565 S
C383 O392 1.268 . S
O384 Sc374 2.105 . S
O384 C378 1.268 . S
O385 Sc375 2.105 . S
O385 C379 1.268 . S
O386 Sc376 2.105 1_545 S
O386 C380 1.268 . S
O387 Sc374 2.105 1_565 S
O387 C381 1.268 1_565 S
O388 Sc376 2.105 . S
O388 C382 1.268 . S
O389 Sc375 2.105 . S
O389 C383 1.268 1_545 S
O390 Sc374 2.105 1_565 S
O390 C382 1.268 . S
O391 Sc375 2.105 . S
O391 C381 1.268 . S
O392 Sc376 2.105 . S
O392 C383 1.268 . S
O393 Sc374 2.105 . S
O393 C379 1.268 . S
O394 Sc376 2.105 1_545 S
O394 C378 1.268 . S
O395 Sc375 2.105 . S
O395 C380 1.268 . S
Sc396 O399 2.025 . S
Sc396 O406 2.105 . S
Sc396 O409 2.105 . S
Sc396 O412 2.105 . S
Sc396 O415 2.105 . S
Sc397 O399 2.025 . S
Sc397 O407 2.105 . S
Sc397 O411 2.105 . S
Sc397 O413 2.105 . S
Sc397 O417 2.105 . S
Sc398 O399 2.025 . S
Sc398 O408 2.105 . S
Sc398 O410 2.105 . S
Sc398 O414 2.105 . S
Sc398 O416 2.105 . S
O399 Sc396 2.025 . S
O399 Sc397 2.025 . S
O399 Sc398 2.025 . S
C400 O406 1.268 . S
C400 O416 1.268 . S
C401 O407 1.268 . S
C401 O415 1.268 . S
C402 O408 1.268 . S
C402 O417 1.268 . S
C403 O409 1.268 . S
C403 O413 1.268 . S
C404 O410 1.268 . S
C404 O412 1.268 . S
C405 O411 1.268 . S
C405 O414 1.268 . S
O406 Sc396 2.105 . S
O406 C400 1.268 . S
O407 Sc397 2.105 . S
O407 C401 1.268 . S
O408 Sc398 2.105 . S
O408 C402 1.268 . S
O409 Sc396 2.105 . S
O409 C403 1.268 . S
O410 Sc398 2.105 . S
O410 C404 1.268 . S
O411 Sc397 2.105 . S
O411 C405 1.268 . S
O412 Sc396 2.105 . S
O412 C404 1.268 . S
O413 Sc397 2.105 . S
O413 C403 1.268 . S
O414 Sc398 2.105 . S
O414 C405 1.268 . S
O415 Sc396 2.105 . S
O415 C401 1.268 . S
O416 Sc398 2.105 . S
O416 C400 1.268 . S
O417 Sc397 2.105 . S
O417 C402 1.268 . S
Sc418 O421 2.025 . S
Sc418 O428 2.105 . S
Sc418 O431 2.103 1_455 S
Sc418 O434 2.105 1_455 S
Sc418 O437 2.105 . S
Sc419 O421 2.025 . S
Sc419 O429 2.105 . S
Sc419 O433 2.105 . S
Sc419 O435 2.105 . S
Sc419 O439 2.105 . S
Sc420 O421 2.025 . S
Sc420 O430 2.105 . S
Sc420 O432 2.105 1_455 S
Sc420 O436 2.105 . S
Sc420 O438 2.105 . S
O421 Sc418 2.025 . S
O421 Sc419 2.025 . S
O421 Sc420 2.025 . S
C422 O428 1.268 . S
C422 O438 1.268 . S
C423 O429 1.268 . S
C423 O437 1.268 . S
C424 O430 1.268 . S
C424 O439 1.268 . S
C425 O431 1.258 1_455 S
C425 O435 1.268 . S
C426 O432 1.268 . S
C426 O434 1.268 . S
C427 O433 1.268 . S
C427 O436 1.268 . S
O428 Sc418 2.105 . S
O428 C422 1.268 . S
O429 Sc419 2.105 . S
O429 C423 1.268 . S
O430 Sc420 2.105 . S
O430 C424 1.268 . S
O431 Sc418 2.103 1_655 S
O431 C425 1.258 1_655 S
O432 Sc420 2.105 1_655 S
O432 C426 1.268 . S
O433 Sc419 2.105 . S
O433 C427 1.268 . S
O434 Sc418 2.105 1_655 S
O434 C426 1.268 . S
O435 Sc419 2.105 . S
O435 C425 1.268 . S
O436 Sc420 2.105 . S
O436 C427 1.268 . S
O437 Sc418 2.105 . S
O437 C423 1.268 . S
O438 Sc420 2.105 . S
O438 C422 1.268 . S
O439 Sc419 2.105 . S
O439 C424 1.268 . S
Sc440 O443 2.025 . S
Sc440 O450 2.105 1_565 S
Sc440 O453 2.105 1_556 S
Sc440 O456 2.105 1_556 S
Sc440 O459 2.105 . S
Sc441 O443 2.025 . S
Sc441 O451 2.105 . S
Sc441 O455 2.105 . S
Sc441 O457 2.105 . S
Sc441 O461 2.105 . S
Sc442 O443 2.025 1_554 S
Sc442 O452 2.103 1_564 S
Sc442 O454 2.105 . S
Sc442 O458 2.105 . S
Sc442 O460 2.105 1_564 S
O443 Sc440 2.025 . S
O443 Sc441 2.025 . S
O443 Sc442 2.025 1_556 S
C444 O450 1.268 . S
C444 O460 1.268 . S
C445 O451 1.268 . S
C445 O459 1.268 . S
C446 O452 1.258 1_565 S
C446 O461 1.268 . S
C447 O453 1.268 1_556 S
C447 O457 1.268 . S
C448 O454 1.268 . S
C448 O456 1.268 . S
C449 O455 1.268 1_554 S
C449 O458 1.268 . S
O450 Sc440 2.105 1_545 S
O450 C444 1.268 . S
O451 Sc441 2.105 . S
O451 C445 1.268 . S
O452 Sc442 2.103 1_546 S
O452 C446 1.258 1_545 S
O453 Sc440 2.105 1_554 S
O453 C447 1.268 1_554 S
O454 Sc442 2.105 . S
O454 C448 1.268 . S
O455 Sc441 2.105 . S
O455 C449 1.268 1_556 S
O456 Sc440 2.105 1_554 S
O456 C448 1.268 . S
O457 Sc441 2.105 . S
O457 C447 1.268 . S
O458 Sc442 2.105 . S
O458 C449 1.268 . S
O459 Sc440 2.105 . S
O459 C445 1.268 . S
O460 Sc442 2.105 1_546 S
O460 C444 1.268 . S
O461 Sc441 2.105 . S
O461 C446 1.268 . S
Sc462 O465 2.025 . S
Sc462 O472 2.105 . S
Sc462 O475 2.105 1_554 S
Sc462 O478 2.105 1_554 S
Sc462 O481 2.105 . S
Sc463 O465 2.025 . S
Sc463 O473 2.105 . S
Sc463 O477 2.105 . S
Sc463 O479 2.105 . S
Sc463 O483 2.105 . S
Sc464 O465 2.025 1_556 S
Sc464 O474 2.105 1_556 S
Sc464 O476 2.105 . S
Sc464 O480 2.105 . S
Sc464 O482 2.105 1_556 S
O465 Sc462 2.025 . S
O465 Sc463 2.025 . S
O465 Sc464 2.025 1_554 S
C466 O472 1.268 . S
C466 O482 1.268 . S
C467 O473 1.268 . S
C467 O481 1.268 . S
C468 O474 1.268 . S
C468 O483 1.268 . S
C469 O475 1.268 1_554 S
C469 O479 1.268 . S
C470 O476 1.268 . S
C470 O478 1.268 . S
C471 O477 1.268 1_556 S
C471 O480 1.268 . S
O472 Sc462 2.105 . S
O472 C466 1.268 . S
O473 Sc463 2.105 . S
O473 C467 1.268 . S
O474 Sc464 2.105 1_554 S
O474 C468 1.268 . S
O475 Sc462 2.105 1_556 S
O475 C469 1.268 1_556 S
O476 Sc464 2.105 . S
O476 C470 1.268 . S
O477 Sc463 2.105 . S
O477 C471 1.268 1_554 S
O478 Sc462 2.105 1_556 S
O478 C470 1.268 . S
O479 Sc463 2.105 . S
O479 C469 1.268 . S
O480 Sc464 2.105 . S
O480 C471 1.268 . S
O481 Sc462 2.105 . S
O481 C467 1.268 . S
O482 Sc464 2.105 1_554 S
O482 C466 1.268 . S
O483 Sc463 2.105 . S
O483 C468 1.268 . S
Sc484 O487 2.025 . S
Sc484 O494 2.105 . S
Sc484 O497 2.105 . S
Sc484 O500 2.105 . S
Sc484 O503 2.105 . S
Sc485 O487 2.025 . S
Sc485 O495 2.105 . S
Sc485 O499 2.105 . S
Sc485 O501 2.105 . S
Sc485 O505 2.105 . S
Sc486 O487 2.025 . S
Sc486 O496 2.105 . S
Sc486 O498 2.105 . S
Sc486 O502 2.105 . S
Sc486 O504 2.105 . S
O487 Sc484 2.025 . S
O487 Sc485 2.025 . S
O487 Sc486 2.025 . S
C488 O494 1.268 . S
C488 O504 1.268 . S
C489 O495 1.268 . S
C489 O503 1.268 . S
C490 O496 1.268 . S
C490 O505 1.268 . S
C491 O497 1.268 . S
C491 O501 1.268 . S
C492 O498 1.268 . S
C492 O500 1.268 . S
C493 O499 1.268 . S
C493 O502 1.268 . S
O494 Sc484 2.105 . S
O494 C488 1.268 . S
O495 Sc485 2.105 . S
O495 C489 1.268 . S
O496 Sc486 2.105 . S
O496 C490 1.268 . S
O497 Sc484 2.105 . S
O497 C491 1.268 . S
O498 Sc486 2.105 . S
O498 C492 1.268 . S
O499 Sc485 2.105 . S
O499 C493 1.268 . S
O500 Sc484 2.105 . S
O500 C492 1.268 . S
O501 Sc485 2.105 . S
O501 C491 1.268 . S
O502 Sc486 2.105 . S
O502 C493 1.268 . S
O503 Sc484 2.105 . S
O503 C489 1.268 . S
O504 Sc486 2.105 . S
O504 C488 1.268 . S
O505 Sc485 2.105 . S
O505 C490 1.268 . S
Sc506 O509 2.025 . S
Sc506 O516 2.105 . S
Sc506 O519 2.103 1_545 S
Sc506 O522 2.105 1_545 S
Sc506 O525 2.105 . S
Sc507 O509 2.025 . S
Sc507 O517 2.105 . S
Sc507 O521 2.105 . S
Sc507 O523 2.105 . S
Sc507 O527 2.105 . S
Sc508 O509 2.025 . S
Sc508 O518 2.105 . S
Sc508 O520 2.105 1_545 S
Sc508 O524 2.105 . S
Sc508 O526 2.105 . S
O509 Sc506 2.025 . S
O509 Sc507 2.025 . S
O509 Sc508 2.025 . S
C510 O516 1.268 . S
C510 O526 1.268 . S
C511 O517 1.268 . S
C511 O525 1.268 . S
C512 O518 1.268 . S
C512 O527 1.268 . S
C513 O519 1.258 1_545 S
C513 O523 1.268 . S
C514 O520 1.268 . S
C514 O522 1.268 . S
C515 O521 1.268 . S
C515 O524 1.268 . S
O516 Sc506 2.105 . S
O516 C510 1.268 . S
O517 Sc507 2.105 . S
O517 C511 1.268 . S
O518 Sc508 2.105 . S
O518 C512 1.268 . S
O519 Sc506 2.103 1_565 S
O519 C513 1.258 1_565 S
O520 Sc508 2.105 1_565 S
O520 C514 1.268 . S
O521 Sc507 2.105 . S
O521 C515 1.268 . S
O522 Sc506 2.105 1_565 S
O522 C514 1.268 . S
O523 Sc507 2.105 . S
O523 C513 1.268 . S
O524 Sc508 2.105 . S
O524 C515 1.268 . S
O525 Sc506 2.105 . S
O525 C511 1.268 . S
O526 Sc508 2.105 . S
O526 C510 1.268 . S
O527 Sc507 2.105 . S
O527 C512 1.268 . S
C528 C529 1.387 1_455 S
C528 H532 0.950 . S
C528 C537 1.390 . S
C529 C528 1.387 1_655 S
C529 C531 1.387 . S
H530 C537 0.950 . S
C531 C529 1.387 . S
C531 C533 1.390 . S
C531 H535 0.950 . S
H532 C528 0.950 . S
C533 C531 1.390 . S
C533 C534 1.387 1_655 S
C533 H536 0.950 . S
C534 C533 1.387 1_455 S
C534 C537 1.387 . S
H535 C531 0.950 . S
H536 C533 0.950 . S
C537 C528 1.390 . S
C537 H530 0.950 . S
C537 C534 1.387 . S
C538 C539 1.387 . S
C538 H542 0.950 . S
C538 C547 1.390 . S
C539 C538 1.387 . S
C539 C541 1.387 . S
H540 C547 0.950 . S
C541 C539 1.387 . S
C541 C543 1.390 . S
C541 H545 0.950 . S
H542 C538 0.950 . S
C543 C541 1.390 . S
C543 C544 1.387 . S
C543 H546 0.950 . S
C544 C543 1.387 . S
C544 C547 1.387 . S
H545 C541 0.950 . S
H546 C543 0.950 . S
C547 C538 1.390 . S
C547 H540 0.950 . S
C547 C544 1.387 . S
C548 C549 1.387 . S
C548 H552 0.950 . S
C548 C557 1.390 . S
C549 C548 1.387 . S
C549 C551 1.387 . S
H550 C557 0.950 . S
C551 C549 1.387 . S
C551 C553 1.390 . S
C551 H555 0.950 . S
H552 C548 0.950 . S
C553 C551 1.390 . S
C553 C554 1.387 . S
C553 H556 0.950 . S
C554 C553 1.387 . S
C554 C557 1.387 . S
H555 C551 0.950 . S
H556 C553 0.950 . S
C557 C548 1.390 . S
C557 H550 0.950 . S
C557 C554 1.387 . S
C558 C559 1.387 . S
C558 H562 0.950 . S
C558 C567 1.390 . S
C559 C558 1.387 . S
C559 C561 1.387 1_455 S
H560 C567 0.950 . S
C561 C559 1.387 1_655 S
C561 C563 1.390 . S
C561 H565 0.950 . S
H562 C558 0.950 . S
C563 C561 1.390 . S
C563 C564 1.387 . S
C563 H566 0.950 . S
C564 C563 1.387 . S
C564 C567 1.387 1_655 S
H565 C561 0.950 . S
H566 C563 0.950 . S
C567 C558 1.390 . S
C567 H560 0.950 . S
C567 C564 1.387 1_455 S
C568 C569 1.387 . S
C568 H572 0.950 . S
C568 C577 1.390 . S
C569 C568 1.387 . S
C569 C571 1.387 1_565 S
H570 C577 0.950 . S
C571 C569 1.387 1_545 S
C571 C573 1.390 . S
C571 H575 0.950 . S
H572 C568 0.950 . S
C573 C571 1.390 . S
C573 C574 1.387 . S
C573 H576 0.950 . S
C574 C573 1.387 . S
C574 C577 1.387 1_545 S
H575 C571 0.950 . S
H576 C573 0.950 . S
C577 C568 1.390 . S
C577 H570 0.950 . S
C577 C574 1.387 1_565 S
C578 C579 1.387 . S
C578 H582 0.950 . S
C578 C587 1.390 . S
C579 C578 1.387 . S
C579 C581 1.387 1_545 S
H580 C587 0.950 . S
C581 C579 1.387 1_565 S
C581 C583 1.390 . S
C581 H585 0.950 . S
H582 C578 0.950 . S
C583 C581 1.390 . S
C583 C584 1.387 . S
C583 H586 0.950 . S
C584 C583 1.387 . S
C584 C587 1.387 1_565 S
H585 C581 0.950 . S
H586 C583 0.950 . S
C587 C578 1.390 . S
C587 H580 0.950 . S
C587 C584 1.387 1_545 S
C588 C589 1.387 . S
C588 H592 0.950 . S
C588 C597 1.390 . S
C589 C588 1.387 . S
C589 C591 1.387 . S
H590 C597 0.950 . S
C591 C589 1.387 . S
C591 C593 1.390 . S
C591 H595 0.950 . S
H592 C588 0.950 . S
C593 C591 1.390 . S
C593 C594 1.387 . S
C593 H596 0.950 . S
C594 C593 1.387 . S
C594 C597 1.387 . S
H595 C591 0.950 . S
H596 C593 0.950 . S
C597 C588 1.390 . S
C597 H590 0.950 . S
C597 C594 1.387 . S
C598 C599 1.387 . S
C598 H602 0.950 . S
C598 C607 1.390 . S
C599 C598 1.387 . S
C599 C601 1.387 . S
H600 C607 0.950 . S
C601 C599 1.387 . S
C601 C603 1.390 . S
C601 H605 0.950 . S
H602 C598 0.950 . S
C603 C601 1.390 . S
C603 C604 1.387 . S
C603 H606 0.950 . S
C604 C603 1.387 . S
C604 C607 1.387 . S
H605 C601 0.950 . S
H606 C603 0.950 . S
C607 C598 1.390 . S
C607 H600 0.950 . S
C607 C604 1.387 . S
C608 C609 1.387 . S
C608 H612 0.950 . S
C608 C617 1.390 . S
C609 C608 1.387 . S
C609 C611 1.387 1_556 S
H610 C617 0.950 . S
C611 C609 1.387 1_554 S
C611 C613 1.390 . S
C611 H615 0.950 . S
H612 C608 0.950 . S
C613 C611 1.390 . S
C613 C614 1.387 . S
C613 H616 0.950 . S
C614 C613 1.387 . S
C614 C617 1.387 1_554 S
H615 C611 0.950 . S
H616 C613 0.950 . S
C617 C608 1.390 . S
C617 H610 0.950 . S
C617 C614 1.387 1_556 S
C618 C619 1.387 1_554 S
C618 H622 0.950 . S
C618 C627 1.390 . S
C619 C618 1.387 1_556 S
C619 C621 1.387 . S
H620 C627 0.950 . S
C621 C619 1.387 . S
C621 C623 1.390 . S
C621 H625 0.950 . S
H622 C618 0.950 . S
C623 C621 1.390 . S
C623 C624 1.387 1_556 S
C623 H626 0.950 . S
C624 C623 1.387 1_554 S
C624 C627 1.387 . S
H625 C621 0.950 . S
H626 C623 0.950 . S
C627 C618 1.390 . S
C627 H620 0.950 . S
C627 C624 1.387 . S
C628 C629 1.387 . S
C628 H632 0.950 . S
C628 C637 1.390 . S
C629 C628 1.387 . S
C629 C631 1.387 . S
H630 C637 0.950 . S
C631 C629 1.387 . S
C631 C633 1.390 . S
C631 H635 0.950 . S
H632 C628 0.950 . S
C633 C631 1.390 . S
C633 C634 1.387 . S
C633 H636 0.950 . S
C634 C633 1.387 . S
C634 C637 1.387 . S
H635 C631 0.950 . S
H636 C633 0.950 . S
C637 C628 1.390 . S
C637 H630 0.950 . S
C637 C634 1.387 . S
C638 C639 1.387 . S
C638 H642 0.950 . S
C638 C647 1.390 . S
C639 C638 1.387 . S
C639 C641 1.387 . S
H640 C647 0.950 . S
C641 C639 1.387 . S
C641 C643 1.390 . S
C641 H645 0.950 . S
H642 C638 0.950 . S
C643 C641 1.390 . S
C643 C644 1.387 . S
C643 H646 0.950 . S
C644 C643 1.387 . S
C644 C647 1.387 . S
H645 C641 0.950 . S
H646 C643 0.950 . S
C647 C638 1.390 . S
C647 H640 0.950 . S
C647 C644 1.387 . S
C648 C649 1.387 1_455 S
C648 H652 0.950 . S
C648 C657 1.390 . S
C649 C648 1.387 1_655 S
C649 C651 1.387 . S
H650 C657 0.950 . S
C651 C649 1.387 . S
C651 C653 1.390 . S
C651 H655 0.950 . S
H652 C648 0.950 . S
C653 C651 1.390 . S
C653 C654 1.387 1_655 S
C653 H656 0.950 . S
C654 C653 1.387 1_455 S
C654 C657 1.387 . S
H655 C651 0.950 . S
H656 C653 0.950 . S
C657 C648 1.390 . S
C657 H650 0.950 . S
C657 C654 1.387 . S
C658 C659 1.387 . S
C658 H662 0.950 . S
C658 C667 1.390 . S
C659 C658 1.387 . S
C659 C661 1.387 . S
H660 C667 0.950 . S
C661 C659 1.387 . S
C661 C663 1.390 . S
C661 H665 0.950 . S
H662 C658 0.950 . S
C663 C661 1.390 . S
C663 C664 1.387 . S
C663 H666 0.950 . S
C664 C663 1.387 . S
C664 C667 1.387 . S
H665 C661 0.950 . S
H666 C663 0.950 . S
C667 C658 1.390 . S
C667 H660 0.950 . S
C667 C664 1.387 . S
C668 C669 1.387 . S
C668 H672 0.950 . S
C668 C677 1.390 . S
C669 C668 1.387 . S
C669 C671 1.387 . S
H670 C677 0.950 . S
C671 C669 1.387 . S
C671 C673 1.390 . S
C671 H675 0.950 . S
H672 C668 0.950 . S
C673 C671 1.390 . S
C673 C674 1.387 . S
C673 H676 0.950 . S
C674 C673 1.387 . S
C674 C677 1.387 . S
H675 C671 0.950 . S
H676 C673 0.950 . S
C677 C668 1.390 . S
C677 H670 0.950 . S
C677 C674 1.387 . S
C678 C679 1.387 . S
C678 H682 0.950 . S
C678 C687 1.390 . S
C679 C678 1.387 . S
C679 C681 1.387 1_455 S
H680 C687 0.950 . S
C681 C679 1.387 1_655 S
C681 C683 1.390 . S
C681 H685 0.950 . S
H682 C678 0.950 . S
C683 C681 1.390 . S
C683 C684 1.387 . S
C683 H686 0.950 . S
C684 C683 1.387 . S
C684 C687 1.387 1_655 S
H685 C681 0.950 . S
H686 C683 0.950 . S
C687 C678 1.390 . S
C687 H680 0.950 . S
C687 C684 1.387 1_455 S
C688 C689 1.387 . S
C688 H692 0.950 . S
C688 C697 1.390 . S
C689 C688 1.387 . S
C689 C691 1.387 1_545 S
H690 C697 0.950 . S
C691 C689 1.387 1_565 S
C691 C693 1.390 . S
C691 H695 0.950 . S
H692 C688 0.950 . S
C693 C691 1.390 . S
C693 C694 1.387 . S
C693 H696 0.950 . S
C694 C693 1.387 . S
C694 C697 1.387 1_565 S
H695 C691 0.950 . S
H696 C693 0.950 . S
C697 C688 1.390 . S
C697 H690 0.950 . S
C697 C694 1.387 1_545 S
C698 C699 1.387 . S
C698 H702 0.950 . S
C698 C707 1.390 . S
C699 C698 1.387 . S
C699 C701 1.387 1_565 S
H700 C707 0.950 . S
C701 C699 1.387 1_545 S
C701 C703 1.390 . S
C701 H705 0.950 . S
H702 C698 0.950 . S
C703 C701 1.390 . S
C703 C704 1.387 . S
C703 H706 0.950 . S
C704 C703 1.387 . S
C704 C707 1.387 1_545 S
H705 C701 0.950 . S
H706 C703 0.950 . S
C707 C698 1.390 . S
C707 H700 0.950 . S
C707 C704 1.387 1_565 S
C708 C709 1.387 . S
C708 H712 0.950 . S
C708 C717 1.390 . S
C709 C708 1.387 . S
C709 C711 1.387 . S
H710 C717 0.950 . S
C711 C709 1.387 . S
C711 C713 1.390 . S
C711 H715 0.950 . S
H712 C708 0.950 . S
C713 C711 1.390 . S
C713 C714 1.387 . S
C713 H716 0.950 . S
C714 C713 1.387 . S
C714 C717 1.387 . S
H715 C711 0.950 . S
H716 C713 0.950 . S
C717 C708 1.390 . S
C717 H710 0.950 . S
C717 C714 1.387 . S
C718 C719 1.387 . S
C718 H722 0.950 . S
C718 C727 1.390 . S
C719 C718 1.387 . S
C719 C721 1.387 . S
H720 C727 0.950 . S
C721 C719 1.387 . S
C721 C723 1.390 . S
C721 H725 0.950 . S
H722 C718 0.950 . S
C723 C721 1.390 . S
C723 C724 1.387 . S
C723 H726 0.950 . S
C724 C723 1.387 . S
C724 C727 1.387 . S
H725 C721 0.950 . S
H726 C723 0.950 . S
C727 C718 1.390 . S
C727 H720 0.950 . S
C727 C724 1.387 . S
C728 C729 1.396 . S
C728 H732 0.947 1_554 S
C728 C737 1.385 1_554 S
C729 C728 1.396 . S
C729 C731 1.387 . S
H730 C737 0.950 . S
C731 C729 1.387 . S
C731 C733 1.390 . S
C731 H735 0.950 . S
H732 C728 0.947 1_556 S
C733 C731 1.390 . S
C733 C734 1.387 1_554 S
C733 H736 0.950 . S
C734 C733 1.387 1_556 S
C734 C737 1.387 . S
H735 C731 0.950 . S
H736 C733 0.950 . S
C737 C728 1.385 1_556 S
C737 H730 0.950 . S
C737 C734 1.387 . S
C738 C739 1.387 1_556 S
C738 H742 0.950 . S
C738 C747 1.390 . S
C739 C738 1.387 1_554 S
C739 C741 1.387 . S
H740 C747 0.950 . S
C741 C739 1.387 . S
C741 C743 1.390 . S
C741 H745 0.950 . S
H742 C738 0.950 . S
C743 C741 1.390 . S
C743 C744 1.387 1_554 S
C743 H746 0.950 . S
C744 C743 1.387 1_556 S
C744 C747 1.387 . S
H745 C741 0.950 . S
H746 C743 0.950 . S
C747 C738 1.390 . S
C747 H740 0.950 . S
C747 C744 1.387 . S
C748 C749 1.387 . S
C748 H752 0.950 . S
C748 C757 1.390 . S
C749 C748 1.387 . S
C749 C751 1.387 . S
H750 C757 0.950 . S
C751 C749 1.387 . S
C751 C753 1.390 . S
C751 H755 0.950 . S
H752 C748 0.950 . S
C753 C751 1.390 . S
C753 C754 1.387 . S
C753 H756 0.950 . S
C754 C753 1.387 . S
C754 C757 1.387 . S
H755 C751 0.950 . S
H756 C753 0.950 . S
C757 C748 1.390 . S
C757 H750 0.950 . S
C757 C754 1.387 . S
C758 C759 1.387 . S
C758 H762 0.950 . S
C758 C767 1.390 . S
C759 C758 1.387 . S
C759 C761 1.387 . S
H760 C767 0.950 . S
C761 C759 1.387 . S
C761 C763 1.390 . S
C761 H765 0.950 . S
H762 C758 0.950 . S
C763 C761 1.390 . S
C763 C764 1.387 . S
C763 H766 0.950 . S
C764 C763 1.387 . S
C764 C767 1.387 . S
H765 C761 0.950 . S
H766 C763 0.950 . S
C767 C758 1.390 . S
C767 H760 0.950 . S
C767 C764 1.387 . S
C768 C769 1.387 . S
C768 H772 0.950 . S
C768 C777 1.390 . S
C769 C768 1.387 . S
C769 C771 1.387 1_554 S
H770 C777 0.950 . S
C771 C769 1.387 1_556 S
C771 C773 1.390 . S
C771 H775 0.950 . S
H772 C768 0.950 . S
C773 C771 1.390 . S
C773 C774 1.387 1_556 S
C773 H776 0.950 . S
C774 C773 1.387 1_554 S
C774 C777 1.387 . S
H775 C771 0.950 . S
H776 C773 0.950 . S
C777 C768 1.390 . S
C777 H770 0.950 . S
C777 C774 1.387 . S
C778 C779 1.387 . S
C778 H782 0.950 . S
C778 C787 1.390 . S
C779 C778 1.387 . S
C779 C781 1.387 . S
H780 C787 0.950 . S
C781 C779 1.387 . S
C781 C783 1.390 . S
C781 H785 0.950 . S
H782 C778 0.950 . S
C783 C781 1.390 . S
C783 C784 1.387 . S
C783 H786 0.950 . S
C784 C783 1.387 . S
C784 C787 1.387 . S
H785 C781 0.950 . S
H786 C783 0.950 . S
C787 C778 1.390 . S
C787 H780 0.950 . S
C787 C784 1.387 . S
C788 C789 1.387 . S
C788 H792 0.950 . S
C788 C797 1.390 . S
C789 C788 1.387 . S
C789 C791 1.387 1_556 S
H790 C797 0.950 . S
C791 C789 1.387 1_554 S
C791 C793 1.390 . S
C791 H795 0.950 . S
H792 C788 0.950 . S
C793 C791 1.390 . S
C793 C794 1.387 1_554 S
C793 H796 0.950 . S
C794 C793 1.387 1_556 S
C794 C797 1.387 . S
H795 C791 0.950 . S
H796 C793 0.950 . S
C797 C788 1.390 . S
C797 H790 0.950 . S
C797 C794 1.387 . S
C798 C799 1.387 . S
C798 H802 0.950 . S
C798 C807 1.390 . S
C799 C798 1.387 . S
C799 C801 1.387 . S
H800 C807 0.950 . S
C801 C799 1.387 . S
C801 C803 1.390 . S
C801 H805 0.950 . S
H802 C798 0.950 . S
C803 C801 1.390 . S
C803 C804 1.387 . S
C803 H806 0.950 . S
C804 C803 1.387 . S
C804 C807 1.387 . S
H805 C801 0.950 . S
H806 C803 0.950 . S
C807 C798 1.390 . S
C807 H800 0.950 . S
C807 C804 1.387 . S
C808 C809 1.387 . S
C808 H812 0.950 . S
C808 C817 1.390 . S
C809 C808 1.387 . S
C809 C811 1.387 1_455 S
H810 C817 0.950 . S
C811 C809 1.387 1_655 S
C811 C813 1.390 . S
C811 H815 0.950 . S
H812 C808 0.950 . S
C813 C811 1.390 . S
C813 C814 1.387 1_655 S
C813 H816 0.950 . S
C814 C813 1.387 1_455 S
C814 C817 1.387 . S
H815 C811 0.950 . S
H816 C813 0.950 . S
C817 C808 1.390 . S
C817 H810 0.950 . S
C817 C814 1.387 . S
C818 C819 1.387 . S
C818 H822 0.950 . S
C818 C827 1.390 . S
C819 C818 1.387 . S
C819 C821 1.387 . S
H820 C827 0.950 . S
C821 C819 1.387 . S
C821 C823 1.390 . S
C821 H825 0.950 . S
H822 C818 0.950 . S
C823 C821 1.390 . S
C823 C824 1.387 . S
C823 H826 0.950 . S
C824 C823 1.387 . S
C824 C827 1.387 . S
H825 C821 0.950 . S
H826 C823 0.950 . S
C827 C818 1.390 . S
C827 H820 0.950 . S
C827 C824 1.387 . S
C828 C829 1.387 . S
C828 H832 0.950 . S
C828 C837 1.390 . S
C829 C828 1.387 . S
C829 C831 1.387 . S
H830 C837 0.950 . S
C831 C829 1.387 . S
C831 C833 1.390 . S
C831 H835 0.950 . S
H832 C828 0.950 . S
C833 C831 1.390 . S
C833 C834 1.387 . S
C833 H836 0.950 . S
C834 C833 1.387 . S
C834 C837 1.387 . S
H835 C831 0.950 . S
H836 C833 0.950 . S
C837 C828 1.390 . S
C837 H830 0.950 . S
C837 C834 1.387 . S
C838 C839 1.387 . S
C838 H842 0.950 . S
C838 C847 1.390 . S
C839 C838 1.387 . S
C839 C841 1.387 1_655 S
H840 C847 0.950 . S
C841 C839 1.387 1_455 S
C841 C843 1.390 . S
C841 H845 0.950 . S
H842 C838 0.950 . S
C843 C841 1.390 . S
C843 C844 1.387 1_455 S
C843 H846 0.950 . S
C844 C843 1.387 1_655 S
C844 C847 1.387 . S
H845 C841 0.950 . S
H846 C843 0.950 . S
C847 C838 1.390 . S
C847 H840 0.950 . S
C847 C844 1.387 . S
C848 C849 1.387 1_565 S
C848 H852 0.950 . S
C848 C857 1.390 . S
C849 C848 1.387 1_545 S
C849 C851 1.387 . S
H850 C857 0.950 . S
C851 C849 1.387 . S
C851 C853 1.390 . S
C851 H855 0.950 . S
H852 C848 0.950 . S
C853 C851 1.390 . S
C853 C854 1.387 . S
C853 H856 0.950 . S
C854 C853 1.387 . S
C854 C857 1.387 1_545 S
H855 C851 0.950 . S
H856 C853 0.950 . S
C857 C848 1.390 . S
C857 H850 0.950 . S
C857 C854 1.387 1_565 S
C858 C859 1.387 . S
C858 H862 0.950 . S
C858 C867 1.390 . S
C859 C858 1.387 . S
C859 C861 1.387 . S
H860 C867 0.950 . S
C861 C859 1.387 . S
C861 C863 1.390 . S
C861 H865 0.950 . S
H862 C858 0.950 . S
C863 C861 1.390 . S
C863 C864 1.387 . S
C863 H866 0.950 . S
C864 C863 1.387 . S
C864 C867 1.387 . S
H865 C861 0.950 . S
H866 C863 0.950 . S
C867 C858 1.390 . S
C867 H860 0.950 . S
C867 C864 1.387 . S
C868 C869 1.387 . S
C868 H872 0.950 . S
C868 C877 1.390 . S
C869 C868 1.387 . S
C869 C871 1.387 . S
H870 C877 0.950 . S
C871 C869 1.387 . S
C871 C873 1.390 . S
C871 H875 0.950 . S
H872 C868 0.950 . S
C873 C871 1.390 . S
C873 C874 1.387 . S
C873 H876 0.950 . S
C874 C873 1.387 . S
C874 C877 1.387 . S
H875 C871 0.950 . S
H876 C873 0.950 . S
C877 C868 1.390 . S
C877 H870 0.950 . S
C877 C874 1.387 . S
C878 C879 1.387 1_545 S
C878 H882 0.950 . S
C878 C887 1.390 . S
C879 C878 1.387 1_565 S
C879 C881 1.387 . S
H880 C887 0.950 . S
C881 C879 1.387 . S
C881 C883 1.390 . S
C881 H885 0.950 . S
H882 C878 0.950 . S
C883 C881 1.390 . S
C883 C884 1.387 . S
C883 H886 0.950 . S
C884 C883 1.387 . S
C884 C887 1.387 1_565 S
H885 C881 0.950 . S
H886 C883 0.950 . S
C887 C878 1.390 . S
C887 H880 0.950 . S
C887 C884 1.387 1_545 S
C888 C889 1.387 1_554 S
C888 H892 0.950 . S
C888 C897 1.390 . S
C889 C888 1.387 1_556 S
C889 C891 1.387 . S
H890 C897 0.950 . S
C891 C889 1.387 . S
C891 C893 1.390 . S
C891 H895 0.950 . S
H892 C888 0.950 . S
C893 C891 1.390 . S
C893 C894 1.387 . S
C893 H896 0.950 . S
C894 C893 1.387 . S
C894 C897 1.387 1_556 S
H895 C891 0.950 . S
H896 C893 0.950 . S
C897 C888 1.390 . S
C897 H890 0.950 . S
C897 C894 1.387 1_554 S
C898 C899 1.387 . S
C898 H902 0.950 . S
C898 C907 1.390 . S
C899 C898 1.387 . S
C899 C901 1.387 . S
H900 C907 0.950 . S
C901 C899 1.387 . S
C901 C903 1.390 . S
C901 H905 0.950 . S
H902 C898 0.950 . S
C903 C901 1.390 . S
C903 C904 1.387 . S
C903 H906 0.950 . S
C904 C903 1.387 . S
C904 C907 1.387 . S
H905 C901 0.950 . S
H906 C903 0.950 . S
C907 C898 1.390 . S
C907 H900 0.950 . S
C907 C904 1.387 . S
C908 C909 1.387 1_556 S
C908 H912 0.950 . S
C908 C917 1.390 . S
C909 C908 1.387 1_554 S
C909 C911 1.387 . S
H910 C917 0.950 . S
C911 C909 1.387 . S
C911 C913 1.390 . S
C911 H915 0.950 . S
H912 C908 0.950 . S
C913 C911 1.390 . S
C913 C914 1.387 . S
C913 H916 0.950 . S
C914 C913 1.387 . S
C914 C917 1.387 1_554 S
H915 C911 0.950 . S
H916 C913 0.950 . S
C917 C908 1.390 . S
C917 H910 0.950 . S
C917 C914 1.387 1_556 S
C918 C919 1.387 . S
C918 H922 0.950 . S
C918 C927 1.390 . S
C919 C918 1.387 . S
C919 C921 1.387 . S
H920 C927 0.950 . S
C921 C919 1.387 . S
C921 C923 1.390 . S
C921 H925 0.950 . S
H922 C918 0.950 . S
C923 C921 1.390 . S
C923 C924 1.387 . S
C923 H926 0.950 . S
C924 C923 1.387 . S
C924 C927 1.387 . S
H925 C921 0.950 . S
H926 C923 0.950 . S
C927 C918 1.390 . S
C927 H920 0.950 . S
C927 C924 1.387 . S
C928 C929 1.387 1_455 S
C928 H932 0.950 . S
C928 C937 1.390 . S
C929 C928 1.387 1_655 S
C929 C931 1.387 . S
H930 C937 0.950 . S
C931 C929 1.387 . S
C931 C933 1.390 . S
C931 H935 0.950 . S
H932 C928 0.950 . S
C933 C931 1.390 . S
C933 C934 1.387 . S
C933 H936 0.950 . S
C934 C933 1.387 . S
C934 C937 1.387 1_655 S
H935 C931 0.950 . S
H936 C933 0.950 . S
C937 C928 1.390 . S
C937 H930 0.950 . S
C937 C934 1.387 1_455 S
C938 C939 1.387 . S
C938 H942 0.950 . S
C938 C947 1.390 . S
C939 C938 1.387 . S
C939 C941 1.387 . S
H940 C947 0.950 . S
C941 C939 1.387 . S
C941 C943 1.390 . S
C941 H945 0.950 . S
H942 C938 0.950 . S
C943 C941 1.390 . S
C943 C944 1.387 . S
C943 H946 0.950 . S
C944 C943 1.387 . S
C944 C947 1.387 . S
H945 C941 0.950 . S
H946 C943 0.950 . S
C947 C938 1.390 . S
C947 H940 0.950 . S
C947 C944 1.387 . S
C948 C949 1.387 . S
C948 H952 0.950 . S
C948 C957 1.390 . S
C949 C948 1.387 . S
C949 C951 1.387 . S
H950 C957 0.950 . S
C951 C949 1.387 . S
C951 C953 1.390 . S
C951 H955 0.950 . S
H952 C948 0.950 . S
C953 C951 1.390 . S
C953 C954 1.387 . S
C953 H956 0.950 . S
C954 C953 1.387 . S
C954 C957 1.387 . S
H955 C951 0.950 . S
H956 C953 0.950 . S
C957 C948 1.390 . S
C957 H950 0.950 . S
C957 C954 1.387 . S
C958 C959 1.387 . S
C958 H962 0.950 . S
C958 C967 1.390 . S
C959 C958 1.387 . S
C959 C961 1.387 . S
H960 C967 0.950 . S
C961 C959 1.387 . S
C961 C963 1.390 . S
C961 H965 0.950 . S
H962 C958 0.950 . S
C963 C961 1.390 . S
C963 C964 1.387 . S
C963 H966 0.950 . S
C964 C963 1.387 . S
C964 C967 1.387 . S
H965 C961 0.950 . S
H966 C963 0.950 . S
C967 C958 1.390 . S
C967 H960 0.950 . S
C967 C964 1.387 . S
C968 C969 1.387 . S
C968 H972 0.950 . S
C968 C977 1.390 . S
C969 C968 1.387 . S
C969 C971 1.387 1_565 S
H970 C977 0.950 . S
C971 C969 1.387 1_545 S
C971 C973 1.390 . S
C971 H975 0.950 . S
H972 C968 0.950 . S
C973 C971 1.390 . S
C973 C974 1.387 1_545 S
C973 H976 0.950 . S
C974 C973 1.387 1_565 S
C974 C977 1.387 . S
H975 C971 0.950 . S
H976 C973 0.950 . S
C977 C968 1.390 . S
C977 H970 0.950 . S
C977 C974 1.387 . S
C978 C979 1.387 . S
C978 H982 0.950 . S
C978 C987 1.390 . S
C979 C978 1.387 . S
C979 C981 1.387 . S
H980 C987 0.950 . S
C981 C979 1.387 . S
C981 C983 1.390 . S
C981 H985 0.950 . S
H982 C978 0.950 . S
C983 C981 1.390 . S
C983 C984 1.387 . S
C983 H986 0.950 . S
C984 C983 1.387 . S
C984 C987 1.387 . S
H985 C981 0.950 . S
H986 C983 0.950 . S
C987 C978 1.390 . S
C987 H980 0.950 . S
C987 C984 1.387 . S
C988 C989 1.387 . S
C988 H992 0.950 . S
C988 C997 1.390 . S
C989 C988 1.387 . S
C989 C991 1.387 . S
H990 C997 0.950 . S
C991 C989 1.387 . S
C991 C993 1.390 . S
C991 H995 0.950 . S
H992 C988 0.950 . S
C993 C991 1.390 . S
C993 C994 1.387 . S
C993 H996 0.950 . S
C994 C993 1.387 . S
C994 C997 1.387 . S
H995 C991 0.950 . S
H996 C993 0.950 . S
C997 C988 1.390 . S
C997 H990 0.950 . S
C997 C994 1.387 . S
C998 C999 1.387 1_565 S
C998 H1002 0.950 . S
C998 C1007 1.390 . S
C999 C998 1.387 1_545 S
C999 C1001 1.387 . S
H1000 C1007 0.950 . S
C1001 C999 1.387 . S
C1001 C1003 1.390 . S
C1001 H1005 0.950 . S
H1002 C998 0.950 . S
C1003 C1001 1.390 . S
C1003 C1004 1.387 . S
C1003 H1006 0.950 . S
C1004 C1003 1.387 . S
C1004 C1007 1.387 1_545 S
H1005 C1001 0.950 . S
H1006 C1003 0.950 . S
C1007 C998 1.390 . S
C1007 H1000 0.950 . S
C1007 C1004 1.387 1_565 S
C1008 C1009 1.387 1_655 S
C1008 H1012 0.950 . S
C1008 C1017 1.390 . S
C1009 C1008 1.387 1_455 S
C1009 C1011 1.387 . S
H1010 C1017 0.950 . S
C1011 C1009 1.387 . S
C1011 C1013 1.390 . S
C1011 H1015 0.950 . S
H1012 C1008 0.950 . S
C1013 C1011 1.390 . S
C1013 C1014 1.387 . S
C1013 H1016 0.950 . S
C1014 C1013 1.387 . S
C1014 C1017 1.387 1_455 S
H1015 C1011 0.950 . S
H1016 C1013 0.950 . S
C1017 C1008 1.390 . S
C1017 H1010 0.950 . S
C1017 C1014 1.387 1_655 S
C1018 C1019 1.387 . S
C1018 H1022 0.950 . S
C1018 C1027 1.390 . S
C1019 C1018 1.387 . S
C1019 C1021 1.387 . S
H1020 C1027 0.950 . S
C1021 C1019 1.387 . S
C1021 C1023 1.390 . S
C1021 H1025 0.950 . S
H1022 C1018 0.950 . S
C1023 C1021 1.390 . S
C1023 C1024 1.387 . S
C1023 H1026 0.950 . S
C1024 C1023 1.387 . S
C1024 C1027 1.387 . S
H1025 C1021 0.950 . S
H1026 C1023 0.950 . S
C1027 C1018 1.390 . S
C1027 H1020 0.950 . S
C1027 C1024 1.387 . S
C1028 C1029 1.387 . S
C1028 H1032 0.950 . S
C1028 C1037 1.390 . S
C1029 C1028 1.387 . S
C1029 C1031 1.387 . S
H1030 C1037 0.950 . S
C1031 C1029 1.387 . S
C1031 C1033 1.390 . S
C1031 H1035 0.950 . S
H1032 C1028 0.950 . S
C1033 C1031 1.390 . S
C1033 C1034 1.387 . S
C1033 H1036 0.950 . S
C1034 C1033 1.387 . S
C1034 C1037 1.387 . S
H1035 C1031 0.950 . S
H1036 C1033 0.950 . S
C1037 C1028 1.390 . S
C1037 H1030 0.950 . S
C1037 C1034 1.387 . S
C1038 C1039 1.387 . S
C1038 H1042 0.950 . S
C1038 C1047 1.390 . S
C1039 C1038 1.387 . S
C1039 C1041 1.387 . S
H1040 C1047 0.950 . S
C1041 C1039 1.387 . S
C1041 C1043 1.390 . S
C1041 H1045 0.950 1_655 S
H1042 C1038 0.950 . S
C1043 C1041 1.390 . S
C1043 C1044 1.387 . S
C1043 H1046 0.950 1_655 S
C1044 C1043 1.387 . S
C1044 C1047 1.387 . S
H1045 C1041 0.950 1_455 S
H1046 C1043 0.950 1_455 S
C1047 C1038 1.390 . S
C1047 H1040 0.950 . S
C1047 C1044 1.387 . S
C1048 C1049 1.387 . S
C1048 H1052 0.950 . S
C1048 C1057 1.390 . S
C1049 C1048 1.387 . S
C1049 C1051 1.387 1_545 S
H1050 C1057 0.950 . S
C1051 C1049 1.387 1_565 S
C1051 C1053 1.390 . S
C1051 H1055 0.950 . S
H1052 C1048 0.950 . S
C1053 C1051 1.390 . S
C1053 C1054 1.387 1_565 S
C1053 H1056 0.950 . S
C1054 C1053 1.387 1_545 S
C1054 C1057 1.387 . S
H1055 C1051 0.950 . S
H1056 C1053 0.950 . S
C1057 C1048 1.390 . S
C1057 H1050 0.950 . S
C1057 C1054 1.387 . S
C1058 C1059 1.387 . S
C1058 H1062 0.950 . S
C1058 C1067 1.390 . S
C1059 C1058 1.387 . S
C1059 C1061 1.387 1_565 S
H1060 C1067 0.950 . S
C1061 C1059 1.387 1_545 S
C1061 C1063 1.390 . S
C1061 H1065 0.950 . S
H1062 C1058 0.950 . S
C1063 C1061 1.390 . S
C1063 C1064 1.387 1_545 S
C1063 H1066 0.950 . S
C1064 C1063 1.387 1_565 S
C1064 C1067 1.387 . S
H1065 C1061 0.950 . S
H1066 C1063 0.950 . S
C1067 C1058 1.390 . S
C1067 H1060 0.950 . S
C1067 C1064 1.387 . S
C1068 C1069 1.387 . S
C1068 H1072 0.950 . S
C1068 C1077 1.390 . S
C1069 C1068 1.387 . S
C1069 C1071 1.387 . S
H1070 C1077 0.950 . S
C1071 C1069 1.387 . S
C1071 C1073 1.390 . S
C1071 H1075 0.950 . S
H1072 C1068 0.950 . S
C1073 C1071 1.390 . S
C1073 C1074 1.387 . S
C1073 H1076 0.950 . S
C1074 C1073 1.387 . S
C1074 C1077 1.387 . S
H1075 C1071 0.950 . S
H1076 C1073 0.950 . S
C1077 C1068 1.390 . S
C1077 H1070 0.950 . S
C1077 C1074 1.387 . S
C1078 C1079 1.387 . S
C1078 H1082 0.950 . S
C1078 C1087 1.390 . S
C1079 C1078 1.387 . S
C1079 C1081 1.387 . S
H1080 C1087 0.950 . S
C1081 C1079 1.387 . S
C1081 C1083 1.390 . S
C1081 H1085 0.950 . S
H1082 C1078 0.950 . S
C1083 C1081 1.390 . S
C1083 C1084 1.387 . S
C1083 H1086 0.950 . S
C1084 C1083 1.387 . S
C1084 C1087 1.387 . S
H1085 C1081 0.950 . S
H1086 C1083 0.950 . S
C1087 C1078 1.390 . S
C1087 H1080 0.950 . S
C1087 C1084 1.387 . S
C1088 C1089 1.387 1_556 S
C1088 H1092 0.950 . S
C1088 C1097 1.390 . S
C1089 C1088 1.387 1_554 S
C1089 C1091 1.387 . S
H1090 C1097 0.950 . S
C1091 C1089 1.387 . S
C1091 C1093 1.390 . S
C1091 H1095 0.950 . S
H1092 C1088 0.950 . S
C1093 C1091 1.390 . S
C1093 C1094 1.387 . S
C1093 H1096 0.950 . S
C1094 C1093 1.387 . S
C1094 C1097 1.387 1_554 S
H1095 C1091 0.950 . S
H1096 C1093 0.950 . S
C1097 C1088 1.390 . S
C1097 H1090 0.950 . S
C1097 C1094 1.387 1_556 S
C1098 C1099 1.387 1_554 S
C1098 H1102 0.950 . S
C1098 C1107 1.390 . S
C1099 C1098 1.387 1_556 S
C1099 C1101 1.387 . S
H1100 C1107 0.950 . S
C1101 C1099 1.387 . S
C1101 C1103 1.390 . S
C1101 H1105 0.950 . S
H1102 C1098 0.950 . S
C1103 C1101 1.390 . S
C1103 C1104 1.387 . S
C1103 H1106 0.950 . S
C1104 C1103 1.387 . S
C1104 C1107 1.387 1_556 S
H1105 C1101 0.950 . S
H1106 C1103 0.950 . S
C1107 C1098 1.390 . S
C1107 H1100 0.950 . S
C1107 C1104 1.387 1_554 S
C1108 C1109 1.387 . S
C1108 H1112 0.950 . S
C1108 C1117 1.390 . S
C1109 C1108 1.387 . S
C1109 C1111 1.387 . S
H1110 C1117 0.950 . S
C1111 C1109 1.387 . S
C1111 C1113 1.390 . S
C1111 H1115 0.950 . S
H1112 C1108 0.950 . S
C1113 C1111 1.390 . S
C1113 C1114 1.387 . S
C1113 H1116 0.950 . S
C1114 C1113 1.387 . S
C1114 C1117 1.387 . S
H1115 C1111 0.950 . S
H1116 C1113 0.950 . S
C1117 C1108 1.390 . S
C1117 H1110 0.950 . S
C1117 C1114 1.387 . S
C1118 C1119 1.387 . S
C1118 H1122 0.950 . S
C1118 C1127 1.390 . S
C1119 C1118 1.387 . S
C1119 C1121 1.387 . S
H1120 C1127 0.950 . S
C1121 C1119 1.387 . S
C1121 C1123 1.390 . S
C1121 H1125 0.950 . S
H1122 C1118 0.950 . S
C1123 C1121 1.390 . S
C1123 C1124 1.387 . S
C1123 H1126 0.950 . S
C1124 C1123 1.387 . S
C1124 C1127 1.387 . S
H1125 C1121 0.950 . S
H1126 C1123 0.950 . S
C1127 C1118 1.390 . S
C1127 H1120 0.950 . S
C1127 C1124 1.387 . S
C1128 C1129 1.409 . S
C1128 H1132 0.931 1_655 S
C1128 C1137 1.388 1_655 S
C1129 C1128 1.409 . S
C1129 C1131 1.387 . S
H1130 C1137 0.950 . S
C1131 C1129 1.387 . S
C1131 C1133 1.390 . S
C1131 H1135 0.950 . S
H1132 C1128 0.931 1_455 S
C1133 C1131 1.390 . S
C1133 C1134 1.387 . S
C1133 H1136 0.950 . S
C1134 C1133 1.387 . S
C1134 C1137 1.387 1_655 S
H1135 C1131 0.950 . S
H1136 C1133 0.950 . S
C1137 C1128 1.388 1_455 S
C1137 H1130 0.950 . S
C1137 C1134 1.387 1_455 S
C1138 C1139 1.387 . S
C1138 H1142 0.950 . S
C1138 C1147 1.390 . S
C1139 C1138 1.387 . S
C1139 C1141 1.387 . S
H1140 C1147 0.950 . S
C1141 C1139 1.387 . S
C1141 C1143 1.390 . S
C1141 H1145 0.950 . S
H1142 C1138 0.950 . S
C1143 C1141 1.390 . S
C1143 C1144 1.387 . S
C1143 H1146 0.950 . S
C1144 C1143 1.387 . S
C1144 C1147 1.387 . S
H1145 C1141 0.950 . S
H1146 C1143 0.950 . S
C1147 C1138 1.390 . S
C1147 H1140 0.950 . S
C1147 C1144 1.387 . S
C1148 C1149 1.387 . S
C1148 H1152 0.950 . S
C1148 C1157 1.390 . S
C1149 C1148 1.387 . S
C1149 C1151 1.387 . S
H1150 C1157 0.950 . S
C1151 C1149 1.387 . S
C1151 C1153 1.390 . S
C1151 H1155 0.950 . S
H1152 C1148 0.950 . S
C1153 C1151 1.390 . S
C1153 C1154 1.387 . S
C1153 H1156 0.950 . S
C1154 C1153 1.387 . S
C1154 C1157 1.387 . S
H1155 C1151 0.950 . S
H1156 C1153 0.950 . S
C1157 C1148 1.390 . S
C1157 H1150 0.950 . S
C1157 C1154 1.387 . S
C1158 C1159 1.387 . S
C1158 H1162 0.950 . S
C1158 C1167 1.390 . S
C1159 C1158 1.387 . S
C1159 C1161 1.387 . S
H1160 C1167 0.950 . S
C1161 C1159 1.387 . S
C1161 C1163 1.390 . S
C1161 H1165 0.950 . S
H1162 C1158 0.950 . S
C1163 C1161 1.390 . S
C1163 C1164 1.387 . S
C1163 H1166 0.950 . S
C1164 C1163 1.387 . S
C1164 C1167 1.387 . S
H1165 C1161 0.950 . S
H1166 C1163 0.950 . S
C1167 C1158 1.390 . S
C1167 H1160 0.950 . S
C1167 C1164 1.387 . S
C1168 C1169 1.387 1_545 S
C1168 H1172 0.950 . S
C1168 C1177 1.390 . S
C1169 C1168 1.387 1_565 S
C1169 C1171 1.387 . S
H1170 C1177 0.950 . S
C1171 C1169 1.387 . S
C1171 C1173 1.390 . S
C1171 H1175 0.950 . S
H1172 C1168 0.950 . S
C1173 C1171 1.390 . S
C1173 C1174 1.387 . S
C1173 H1176 0.950 . S
C1174 C1173 1.387 . S
C1174 C1177 1.387 1_565 S
H1175 C1171 0.950 . S
H1176 C1173 0.950 . S
C1177 C1168 1.390 . S
C1177 H1170 0.950 . S
C1177 C1174 1.387 1_545 S
C1178 C1179 1.387 1_565 S
C1178 H1182 0.950 . S
C1178 C1187 1.390 . S
C1179 C1178 1.387 1_545 S
C1179 C1181 1.387 . S
H1180 C1187 0.950 . S
C1181 C1179 1.387 . S
C1181 C1183 1.390 . S
C1181 H1185 0.950 . S
H1182 C1178 0.950 . S
C1183 C1181 1.390 . S
C1183 C1184 1.387 . S
C1183 H1186 0.950 . S
C1184 C1183 1.387 . S
C1184 C1187 1.387 1_545 S
H1185 C1181 0.950 . S
H1186 C1183 0.950 . S
C1187 C1178 1.390 . S
C1187 H1180 0.950 . S
C1187 C1184 1.387 1_565 S
C1188 C1189 1.387 . S
C1188 H1192 0.950 . S
C1188 C1197 1.390 . S
C1189 C1188 1.387 . S
C1189 C1191 1.387 . S
H1190 C1197 0.950 . S
C1191 C1189 1.387 . S
C1191 C1193 1.390 . S
C1191 H1195 0.950 . S
H1192 C1188 0.950 . S
C1193 C1191 1.390 . S
C1193 C1194 1.387 . S
C1193 H1196 0.950 . S
C1194 C1193 1.387 . S
C1194 C1197 1.387 . S
H1195 C1191 0.950 . S
H1196 C1193 0.950 . S
C1197 C1188 1.390 . S
C1197 H1190 0.950 . S
C1197 C1194 1.387 . S
C1198 C1199 1.387 . S
C1198 H1202 0.950 . S
C1198 C1207 1.390 . S
C1199 C1198 1.387 . S
C1199 C1201 1.387 . S
H1200 C1207 0.950 . S
C1201 C1199 1.387 . S
C1201 C1203 1.390 . S
C1201 H1205 0.950 . S
H1202 C1198 0.950 . S
C1203 C1201 1.390 . S
C1203 C1204 1.387 . S
C1203 H1206 0.950 . S
C1204 C1203 1.387 . S
C1204 C1207 1.387 . S
H1205 C1201 0.950 . S
H1206 C1203 0.950 . S
C1207 C1198 1.390 . S
C1207 H1200 0.950 . S
C1207 C1204 1.387 . S
C1208 C1209 1.387 1_554 S
C1208 H1212 0.950 . S
C1208 C1217 1.390 . S
C1209 C1208 1.387 1_556 S
C1209 C1211 1.387 . S
H1210 C1217 0.950 . S
C1211 C1209 1.387 . S
C1211 C1213 1.390 . S
C1211 H1215 0.950 . S
H1212 C1208 0.950 . S
C1213 C1211 1.390 . S
C1213 C1214 1.387 . S
C1213 H1216 0.950 . S
C1214 C1213 1.387 . S
C1214 C1217 1.387 1_556 S
H1215 C1211 0.950 . S
H1216 C1213 0.950 . S
C1217 C1208 1.390 . S
C1217 H1210 0.950 . S
C1217 C1214 1.387 1_554 S
C1218 C1219 1.387 1_556 S
C1218 H1222 0.950 . S
C1218 C1227 1.390 . S
C1219 C1218 1.387 1_554 S
C1219 C1221 1.387 . S
H1220 C1227 0.950 . S
C1221 C1219 1.387 . S
C1221 C1223 1.390 . S
C1221 H1225 0.950 . S
H1222 C1218 0.950 . S
C1223 C1221 1.390 . S
C1223 C1224 1.387 . S
C1223 H1226 0.950 . S
C1224 C1223 1.387 . S
C1224 C1227 1.387 1_554 S
H1225 C1221 0.950 . S
H1226 C1223 0.950 . S
C1227 C1218 1.390 . S
C1227 H1220 0.950 . S
C1227 C1224 1.387 1_556 S
C1228 C1229 1.387 . S
C1228 H1232 0.950 . S
C1228 C1237 1.390 . S
C1229 C1228 1.387 . S
C1229 C1231 1.387 . S
H1230 C1237 0.950 . S
C1231 C1229 1.387 . S
C1231 C1233 1.390 . S
C1231 H1235 0.950 . S
H1232 C1228 0.950 . S
C1233 C1231 1.390 . S
C1233 C1234 1.387 . S
C1233 H1236 0.950 . S
C1234 C1233 1.387 . S
C1234 C1237 1.387 . S
H1235 C1231 0.950 . S
H1236 C1233 0.950 . S
C1237 C1228 1.390 . S
C1237 H1230 0.950 . S
C1237 C1234 1.387 . S
C1238 C1239 1.387 . S
C1238 H1242 0.950 . S
C1238 C1247 1.390 . S
C1239 C1238 1.387 . S
C1239 C1241 1.387 . S
H1240 C1247 0.950 . S
C1241 C1239 1.387 . S
C1241 C1243 1.390 . S
C1241 H1245 0.950 . S
H1242 C1238 0.950 . S
C1243 C1241 1.390 . S
C1243 C1244 1.387 . S
C1243 H1246 0.950 . S
C1244 C1243 1.387 . S
C1244 C1247 1.387 . S
H1245 C1241 0.950 . S
H1246 C1243 0.950 . S
C1247 C1238 1.390 . S
C1247 H1240 0.950 . S
C1247 C1244 1.387 . S
C529 C7 1.048 . S
C534 C93 1.118 . S
C539 C29 1.049 . S
C544 C115 1.116 . S
C549 C141 1.118 . S
C554 C50 1.045 . S
C559 C72 1.050 . S
C564 C163 1.115 . S
C569 C95 1.046 . S
C574 C181 1.116 . S
C579 C117 1.049 . S
C584 C251 1.115 . S
C589 C138 1.047 . S
C594 C203 1.118 . S
C599 C160 1.049 . S
C604 C229 1.115 . S
C609 C183 1.047 . S
C614 C5 1.116 . S
C619 C53 1.115 . S
C624 C205 1.049 . S
C629 C75 1.117 . S
C634 C226 1.049 . S
C639 C248 1.045 . S
C644 C27 1.118 . S
C649 C358 1.117 . S
C654 C269 1.049 . S
C659 C291 1.050 . S
C664 C380 1.115 . S
C669 C317 1.050 . S
C674 C403 1.117 . S
C679 C425 1.115 . S
C684 C339 1.050 . S
C689 C361 1.048 . S
C694 C446 1.118 . S
C699 C383 1.050 . S
C704 C513 1.117 . S
C709 C468 1.116 . S
C714 C401 1.048 . S
C719 C491 1.118 . S
C724 C423 1.047 . S
C729 C449 1.045 . S
C734 C271 1.117 . S
C739 C314 1.117 . S
C744 C471 1.049 . S
C749 C489 1.048 . S
C754 C336 1.118 . S
C759 C293 1.115 . S
C764 C511 1.050 . S
C769 C207 1.099 1_554 S
C774 C8 1.033 . S
C779 C30 1.026 . S
C784 C225 1.101 . S
C789 C185 1.099 1_556 S
C794 C48 1.033 . S
C799 C70 1.026 . S
C804 C247 1.101 . S
C809 C96 1.033 . S
C814 C71 1.099 1_455 S
C819 C118 1.030 . S
C824 C49 1.101 . S
C829 C31 1.100 . S
C834 C136 1.027 . S
C839 C9 1.099 1_655 S
C844 C158 1.033 . S
C849 C119 1.101 1_545 S
C854 C184 1.026 . S
C859 C206 1.026 . S
C864 C159 1.101 . S
C869 C137 1.099 . S
C874 C224 1.032 . S
C879 C97 1.101 1_565 S
C884 C246 1.027 . S
C889 C469 1.099 1_556 S
C894 C268 1.033 . S
C899 C290 1.033 . S
C904 C490 1.099 . S
C909 C316 1.033 . S
C914 C447 1.099 1_554 S
C919 C338 1.033 . S
C924 C512 1.099 . S
C929 C337 1.099 1_655 S
C934 C360 1.033 . S
C939 C315 1.099 . S
C944 C382 1.032 . S
C949 C400 1.028 . S
C954 C292 1.100 . S
C959 C422 1.028 . S
C964 C270 1.102 1_455 S
C969 C381 1.101 1_565 S
C974 C448 1.027 . S
C979 C470 1.033 . S
C984 C424 1.099 . S
C989 C402 1.099 . S
C994 C488 1.033 . S
C999 C510 1.033 . S
C1004 C359 1.099 1_545 S
C1009 C4 1.304 . S
C1014 C427 1.385 . S
C1019 C26 1.303 . S
C1024 C405 1.385 . S
C1029 C379 1.386 . S
C1034 C52 1.304 . S
C1039 C357 1.387 . S
C1044 C74 1.301 . S
C1049 C515 1.387 . S
C1054 C92 1.300 . S
C1059 C114 1.300 . S
C1064 C445 1.387 . S
C1069 C140 1.300 . S
C1074 C493 1.387 . S
C1079 C162 1.300 . S
C1084 C467 1.387 . S
C1089 C313 1.386 . S
C1094 C180 1.304 . S
C1099 C273 1.386 . S
C1104 C202 1.304 . S
C1109 C295 1.387 . S
C1114 C228 1.300 . S
C1119 C335 1.386 . S
C1124 C250 1.304 . S
C1129 C161 1.387 . S
C1134 C272 1.301 . S
C1139 C139 1.386 . S
C1144 C294 1.299 . S
C1149 C116 1.387 . S
C1154 C312 1.300 . S
C1159 C94 1.387 . S
C1164 C334 1.303 . S
C1169 C356 1.300 . S
C1174 C249 1.387 . S
C1179 C378 1.300 . S
C1184 C182 1.387 . S
C1189 C404 1.304 . S
C1194 C227 1.385 . S
C1199 C426 1.300 . S
C1204 C204 1.387 . S
C1209 C444 1.300 . S
C1214 C51 1.387 . S
C1219 C6 1.387 . S
C1224 C466 1.300 . S
C1229 C28 1.386 . S
C1234 C492 1.299 . S
C1239 C73 1.387 . S
C1244 C514 1.300 . S
