# Generated by pormake.
# Topology whw, (6)-cn, num edge types: 1
# Building blocks:
#     Node 0, Type 0, BuildingBlock: CUKXOW_clean_sbu_0, # of connection points: 6
#     Node 1, Type 0, BuildingBlock: CUKXOW_clean_sbu_0, # of connection points: 6
#     Node 2, Type 0, BuildingBlock: CUKXOW_clean_sbu_0, # of connection points: 6
#     Node 3, Type 0, BuildingBlock: CUKXOW_clean_sbu_0, # of connection points: 6
#     Node 4, Type 0, BuildingBlock: CUKXOW_clean_sbu_0, # of connection points: 6
#     Node 5, Type 0, BuildingBlock: CUKXOW_clean_sbu_0, # of connection points: 6
#     Node 6, Type 0, BuildingBlock: CUKXOW_clean_sbu_0, # of connection points: 6
#     Node 7, Type 0, BuildingBlock: CUKXOW_clean_sbu_0, # of connection points: 6
#     Node 8, Type 0, BuildingBlock: CUKXOW_clean_sbu_0, # of connection points: 6
#     Node 9, Type 0, BuildingBlock: CUKXOW_clean_sbu_0, # of connection points: 6
#     Node 10, Type 0, BuildingBlock: CUKXOW_clean_sbu_0, # of connection points: 6
#     Node 11, Type 0, BuildingBlock: CUKXOW_clean_sbu_0, # of connection points: 6
#     Node 12, Type 0, BuildingBlock: CUKXOW_clean_sbu_0, # of connection points: 6
#     Node 13, Type 0, BuildingBlock: CUKXOW_clean_sbu_0, # of connection points: 6
#     Node 14, Type 0, BuildingBlock: CUKXOW_clean_sbu_0, # of connection points: 6
#     Node 15, Type 0, BuildingBlock: CUKXOW_clean_sbu_0, # of connection points: 6
#     Edge 16, Type (0, 0), None
#     Edge 17, Type (0, 0), None
#     Edge 18, Type (0, 0), None
#     Edge 19, Type (0, 0), None
#     Edge 20, Type (0, 0), None
#     Edge 21, Type (0, 0), None
#     Edge 22, Type (0, 0), None
#     Edge 23, Type (0, 0), None
#     Edge 24, Type (0, 0), None
#     Edge 25, Type (0, 0), None
#     Edge 26, Type (0, 0), None
#     Edge 27, Type (0, 0), None
#     Edge 28, Type (0, 0), None
#     Edge 29, Type (0, 0), None
#     Edge 30, Type (0, 0), None
#     Edge 31, Type (0, 0), None
#     Edge 32, Type (0, 0), None
#     Edge 33, Type (0, 0), None
#     Edge 34, Type (0, 0), None
#     Edge 35, Type (0, 0), None
#     Edge 36, Type (0, 0), None
#     Edge 37, Type (0, 0), None
#     Edge 38, Type (0, 0), None
#     Edge 39, Type (0, 0), None
#     Edge 40, Type (0, 0), None
#     Edge 41, Type (0, 0), None
#     Edge 42, Type (0, 0), None
#     Edge 43, Type (0, 0), None
#     Edge 44, Type (0, 0), None
#     Edge 45, Type (0, 0), None
#     Edge 46, Type (0, 0), None
#     Edge 47, Type (0, 0), None
#     Edge 48, Type (0, 0), None
#     Edge 49, Type (0, 0), None
#     Edge 50, Type (0, 0), None
#     Edge 51, Type (0, 0), None
#     Edge 52, Type (0, 0), None
#     Edge 53, Type (0, 0), None
#     Edge 54, Type (0, 0), None
#     Edge 55, Type (0, 0), None
#     Edge 56, Type (0, 0), None
#     Edge 57, Type (0, 0), None
#     Edge 58, Type (0, 0), None
#     Edge 59, Type (0, 0), None
#     Edge 60, Type (0, 0), None
#     Edge 61, Type (0, 0), None
#     Edge 62, Type (0, 0), None
#     Edge 63, Type (0, 0), None
# Relax obj value: 0.317
# Max RMSD: 0.188
# Mean RMSD: 0.182
data_MOF--net-whw--node1-CUKXOW_clean_sbu_0--edge1-none
_symmetry_space_group_name_H-M    P1
_symmetry_Int_Tables_number       1
_symmetry_cell_setting            triclinic
loop_
_symmetry_equiv_pos_as_xyz
'x, y, z'
_cell_length_a     22.973195
_cell_length_b     23.214901
_cell_length_c     11.797407
_cell_angle_alpha  98.021111
_cell_angle_beta   89.986431
_cell_angle_gamma 90.021171
loop_
_atom_site_label
_atom_site_type_symbol
_atom_site_fract_x
_atom_site_fract_y
_atom_site_fract_z
_atom_type_partial_charge
Tb0 Tb -0.02717 0.06645 0.32479 0.0
C1 C 0.04365 -0.02036 0.15467 0.0
Tb2 Tb 0.082 0.10187 0.24019 0.0
O3 O 0.91159 0.05933 0.18431 0.0
O4 O -0.00227 0.08774 0.15955 0.0
O5 O -0.00601 -0.01298 0.21117 0.0
C6 C 0.15178 0.11586 1.07033 0.0
O7 O 0.08967 0.01007 0.18947 0.0
C8 C 0.09384 0.12222 0.45778 0.0
C9 C -0.00742 0.19319 0.30417 0.0
O10 O 0.1551 0.0735 0.13044 0.0
O11 O 0.11638 0.1547 0.12116 0.0
O12 O 0.1288 0.14212 0.38623 0.0
O13 O 0.06088 0.08042 0.40574 0.0
O14 O 0.04791 0.18416 0.30792 0.0
O15 O 0.95568 0.15795 0.34244 0.0
C16 C 0.89071 0.03715 0.46904 0.0
O17 O 0.8853 0.07437 0.39827 0.0
O18 O 0.94258 0.01462 0.45536 0.0
C19 C 0.94706 0.07899 0.11338 0.0
Tb20 Tb 0.09734 0.65107 0.5042 0.0
C21 C 0.19822 0.65944 0.32823 0.0
Tb22 Tb 0.10452 0.7578 0.38799 0.0
O23 O 0.05861 0.58686 0.3696 0.0
O24 O 0.0721 0.67178 0.3417 0.0
O25 O 0.18205 0.63496 0.41884 0.0
C26 C 0.14241 0.82541 0.24298 0.0
O27 O 0.17115 0.70444 0.29798 0.0
C28 C 0.10373 0.78912 0.6087 0.0
C29 C -0.00467 0.73474 0.49986 0.0
O30 O 0.17499 0.79807 0.30707 0.0
O31 O 0.08821 0.82118 0.27539 0.0
O32 O 0.09043 0.82339 0.53557 0.0
O33 O 0.12705 0.74165 0.55598 0.0
O34 O 0.01435 0.73889 0.39597 0.0
O35 O 0.02161 0.70084 0.5642 0.0
C36 C 0.09455 0.58152 0.66608 0.0
O37 O 0.05722 0.58219 0.58447 0.0
O38 O 0.13476 0.61974 0.65512 0.0
C39 C 0.0509 0.6231 0.29695 0.0
Tb40 Tb 0.5061 0.84461 0.73363 0.0
C41 C 0.43404 0.93658 0.62166 0.0
Tb42 Tb 0.39741 0.80275 0.61452 0.0
O43 O 0.56959 0.84776 0.59541 0.0
O44 O 0.48405 0.81803 0.56339 0.0
O45 O 0.47952 0.92769 0.6861 0.0
C46 C 0.35731 0.74968 0.4251 0.0
O47 O 0.39463 0.89551 0.58965 0.0
C48 C 0.37176 0.79669 0.83006 0.0
C49 C 0.47858 0.71776 0.70407 0.0
O50 O 0.33223 0.79541 0.48043 0.0
O51 O 0.4008 0.73225 0.48002 0.0
O52 O 0.33396 0.79219 0.74645 0.0
O53 O 0.42112 0.81473 0.79236 0.0
O54 O 0.42483 0.72186 0.67011 0.0
O55 O 0.51745 0.75427 0.68031 0.0
C56 C 0.57578 0.86119 0.91642 0.0
O57 O 0.58586 0.82647 0.823 0.0
O58 O 0.52687 0.88767 0.90498 0.0
C59 C 0.53371 0.82361 0.5169 0.0
Tb60 Tb 0.38366 0.32655 0.90371 0.0
C61 C 0.47096 0.28702 1.06025 0.0
Tb62 Tb 0.34815 0.24025 0.09726 0.0
O63 O 0.38415 0.40586 1.02714 0.0
O64 O 0.34531 0.33037 1.06824 0.0
O65 O 0.46387 0.32817 0.99599 0.0
C66 C 0.36224 0.16766 0.26359 0.0
O67 O 0.43193 0.28037 0.13823 0.0
C68 C 0.35366 0.19638 0.88622 0.0
C69 C 0.25341 0.28373 0.92376 0.0
O70 O 0.39607 0.17117 0.17607 0.0
O71 O 0.3205 0.20635 0.25773 0.0
O72 O 0.32681 0.16962 0.96019 0.0
O73 O 0.38255 0.23818 0.93444 0.0
O74 O 0.26306 0.26362 1.02509 0.0
O75 O 0.29357 0.30654 0.8619 0.0
C76 C 0.42953 0.34498 0.69934 0.0
O77 O 0.38368 0.37053 0.74952 0.0
O78 O 0.4493 0.30864 0.76438 0.0
C79 C 0.36289 0.38075 0.11098 0.0
Tb80 Tb -0.02736 0.86191 0.86686 0.0
C81 C 0.04368 0.94863 1.03743 0.0
Tb82 Tb 0.08214 0.82636 0.9522 0.0
O83 O 0.9115 0.86881 1.00815 0.0
O84 O -0.00239 0.84069 1.03137 0.0
O85 O -0.00599 0.94125 0.98085 0.0
C86 C 0.15166 0.81242 0.12197 0.0
O87 O 0.08971 0.91818 1.00288 0.0
C88 C 0.09394 0.80613 0.73454 0.0
C89 C -0.00734 0.73509 0.8879 0.0
O90 O 0.15521 0.85477 1.06189 0.0
O91 O 0.11616 0.77357 1.07149 0.0
O92 O 0.1289 0.78621 0.80602 0.0
O93 O 0.06094 0.84785 0.78673 0.0
O94 O 0.04801 0.74412 0.88418 0.0
O95 O 0.95575 0.77029 0.84954 0.0
C96 C 0.89066 0.89114 0.72293 0.0
O97 O 0.88517 0.85391 0.79368 0.0
O98 O 0.94252 0.91374 0.73649 0.0
C99 C 0.94719 0.84923 1.0787 0.0
Tb100 Tb 0.38366 0.60168 0.28854 0.0
C101 C 0.47098 0.64122 0.13195 0.0
Tb102 Tb 0.34819 0.68799 1.09493 0.0
O103 O 0.38417 0.52239 0.16502 0.0
O104 O 0.34536 0.59786 0.12396 0.0
O105 O 0.46388 0.60007 0.19621 0.0
C106 C 0.36229 0.76055 0.92856 0.0
O107 O 0.43196 0.64787 1.05399 0.0
C108 C 0.35371 0.73188 0.30597 0.0
C109 C 0.25342 0.64449 0.26839 0.0
O110 O 0.39608 0.75714 1.01615 0.0
O111 O 0.32056 0.72183 0.93443 0.0
O112 O 0.32682 0.7586 0.23202 0.0
O113 O 0.38258 0.69007 0.25776 0.0
O114 O 0.26308 0.66462 0.16708 0.0
O115 O 0.29357 0.6217 0.33026 0.0
C116 C 0.42909 0.58332 0.4932 0.0
O117 O 0.38338 0.55764 0.44278 0.0
O118 O 0.44913 0.6195 0.4281 0.0
C119 C 0.36296 0.5475 1.08115 0.0
Tb120 Tb 0.50611 0.08366 0.45851 0.0
C121 C 0.43404 -0.00836 0.57037 0.0
Tb122 Tb 0.39744 0.12546 0.57765 0.0
O123 O 0.56959 0.08048 0.59672 0.0
O124 O 0.48406 0.11018 0.62877 0.0
O125 O 0.47952 0.00056 0.50595 0.0
C126 C 0.35748 0.17844 0.76717 0.0
O127 O 0.39464 0.03269 0.60243 0.0
C128 C 0.37179 0.13165 0.36226 0.0
C129 C 0.47861 0.21053 0.48824 0.0
O130 O 0.33224 0.13281 0.71173 0.0
O131 O 0.40101 0.19588 0.71232 0.0
O132 O 0.33397 0.13606 0.44585 0.0
O133 O 0.42118 0.11361 0.39976 0.0
O134 O 0.42487 0.20641 0.52225 0.0
O135 O 0.51747 0.17401 0.51194 0.0
C136 C 0.57581 0.06706 0.27574 0.0
O137 O 0.5859 0.10179 0.36914 0.0
O138 O 0.52689 0.04057 0.2872 0.0
C139 C 0.53371 0.1046 0.67525 0.0
Tb140 Tb 0.09735 0.27719 0.68794 0.0
C141 C 0.19817 0.26884 0.86401 0.0
Tb142 Tb 0.10446 0.17044 0.80433 0.0
O143 O 0.05861 0.3414 0.82252 0.0
O144 O 0.07208 0.25648 0.85042 0.0
O145 O 0.18206 0.29327 0.77331 0.0
C146 C 0.14236 0.10297 0.94931 0.0
O147 O 0.17104 0.22388 0.89436 0.0
C148 C 0.10376 0.13913 0.5836 0.0
C149 C -0.00468 0.1935 0.69227 0.0
O150 O 0.17499 0.13024 0.88514 0.0
O151 O 0.08811 0.10716 0.91721 0.0
O152 O 0.09042 0.10484 0.65672 0.0
O153 O 0.12703 0.18661 0.63637 0.0
O154 O 0.01431 0.18935 0.79618 0.0
O155 O 0.02163 0.2274 0.62794 0.0
C156 C 0.09456 0.3467 0.526 0.0
O157 O 0.05725 0.34606 0.60769 0.0
O158 O 0.13474 0.30848 0.53692 0.0
C159 C 0.05088 0.30515 0.89518 0.0
Tb160 Tb 0.88365 0.10167 0.7884 0.0
C161 C -0.029 0.14107 0.6316 0.0
Tb162 Tb 0.84822 0.18798 0.59478 0.0
O163 O 0.8842 0.02236 0.66495 0.0
O164 O 0.84533 0.09786 0.62383 0.0
O165 O -0.03612 0.10002 0.6961 0.0
C166 C 0.86226 0.26057 0.42845 0.0
O167 O 0.93197 0.14785 0.55373 0.0
C168 C 0.85378 0.23188 0.80576 0.0
C169 C 0.75344 0.14459 0.76838 0.0
O170 O 0.89612 0.25707 0.5159 0.0
O171 O 0.82052 0.22186 0.43436 0.0
O172 O 0.82692 0.25862 0.7318 0.0
O173 O 0.88264 0.19006 0.75757 0.0
O174 O 0.76311 0.16469 0.66704 0.0
O175 O 0.79358 0.12174 0.83018 0.0
C176 C 0.929 0.08337 0.99315 0.0
O177 O 0.88331 0.05767 0.94269 0.0
O178 O 0.94911 0.11949 0.92798 0.0
C179 C 0.863 0.04752 0.58115 0.0
Tb180 Tb 0.59736 0.7772 0.18803 0.0
C181 C 0.69826 0.76877 0.36394 0.0
Tb182 Tb 0.60449 0.67042 0.3042 0.0
O183 O 0.55866 0.84141 0.32263 0.0
O184 O 0.57218 0.75648 0.35059 0.0
O185 O 0.68208 0.7933 0.27341 0.0
C186 C 0.6424 0.60278 0.44915 0.0
O187 O 0.6712 0.72373 0.39412 0.0
C188 C 0.60365 0.63917 1.08348 0.0
C189 C 0.49527 0.69365 0.19265 0.0
O190 O 0.67496 0.63014 0.38501 0.0
O191 O 0.58819 0.607 0.41679 0.0
O192 O 0.59033 0.60487 0.15659 0.0
O193 O 0.627 0.68662 0.13621 0.0
O194 O 0.51433 0.68938 0.29645 0.0
O195 O 0.52159 0.72747 0.12819 0.0
C196 C 0.59447 0.8466 1.02606 0.0
O197 O 0.55714 0.84598 0.1077 0.0
O198 O 0.63478 0.80852 1.03703 0.0
C199 C 0.55105 0.80518 0.39536 0.0
Tb200 Tb 0.59734 0.15107 1.00414 0.0
C201 C 0.69823 0.15951 0.8282 0.0
Tb202 Tb 0.60447 0.25782 0.88797 0.0
O203 O 0.55866 0.08682 0.86954 0.0
O204 O 0.57217 0.17175 0.84158 0.0
O205 O 0.68206 0.135 0.91878 0.0
C206 C 0.64238 0.32549 0.74309 0.0
O207 O 0.67117 0.20452 0.79799 0.0
C208 C 0.60361 0.2891 0.10869 0.0
C209 C 0.49524 0.23458 0.99955 0.0
O210 O 0.67495 0.29814 0.80717 0.0
O211 O 0.58817 0.32124 0.77543 0.0
O212 O 0.5903 0.32337 1.03557 0.0
O213 O 0.62698 0.24166 1.05596 0.0
O214 O 0.51431 0.23885 0.89574 0.0
O215 O 0.52157 0.20078 1.064 0.0
C216 C 0.59449 0.08165 0.16609 0.0
O217 O 0.55714 0.08226 1.0845 0.0
O218 O 0.63479 0.11977 0.15508 0.0
C219 C 0.55104 0.12304 0.79681 0.0
Tb220 Tb 0.88371 0.82657 0.40376 0.0
C221 C -0.02898 0.78718 0.56051 0.0
Tb222 Tb 0.84821 0.74027 0.59734 0.0
O223 O 0.88423 0.90591 0.52713 0.0
O224 O 0.84534 0.83038 0.5683 0.0
O225 O -0.03608 0.82822 0.49601 0.0
C226 C 0.86228 0.66769 0.76367 0.0
O227 O 0.93198 0.7804 0.6384 0.0
C228 C 0.85377 0.69638 0.38635 0.0
C229 C 0.75346 0.78372 0.42379 0.0
O230 O 0.89613 0.6712 0.67617 0.0
O231 O 0.82055 0.70637 0.7578 0.0
O232 O 0.8269 0.66963 0.46031 0.0
O233 O 0.88265 0.7382 0.43454 0.0
O234 O 0.76311 0.76357 0.52509 0.0
O235 O 0.79362 0.80653 0.36193 0.0
C236 C 0.9294 0.84494 0.19924 0.0
O237 O 0.8836 0.87053 0.24952 0.0
O238 O 0.9493 0.8087 0.26435 0.0
C239 C 0.863 0.88075 0.61091 0.0
Tb240 Tb 0.47284 0.56644 0.82487 0.0
C241 C 0.54362 0.47962 0.65464 0.0
Tb242 Tb 0.58208 0.60183 0.74007 0.0
O243 O 0.41158 0.55943 0.68445 0.0
O244 O 0.49776 0.58773 0.65965 0.0
O245 O 0.49397 0.48701 0.71119 0.0
C246 C 0.65168 0.61575 0.57019 0.0
O247 O 0.58966 0.51002 0.68943 0.0
C248 C 0.59391 0.62215 0.95765 0.0
C249 C 0.49274 0.69323 0.80457 0.0
O250 O 0.65518 0.57342 0.63033 0.0
O251 O 0.61624 0.65462 0.62077 0.0
O252 O 0.62889 0.64207 0.88614 0.0
O253 O 0.56092 0.58039 0.90557 0.0
O254 O 0.5481 0.68416 0.80774 0.0
O255 O 0.45583 0.65796 0.84271 0.0
C256 C 0.3908 0.53725 0.96918 0.0
O257 O 0.38531 0.57441 0.89833 0.0
O258 O 0.44264 0.51464 0.95555 0.0
C259 C 0.44709 0.57903 0.61348 0.0
Tb260 Tb 0.00615 0.34455 0.23354 0.0
C261 C 0.93411 0.43659 0.12167 0.0
Tb262 Tb 0.89739 0.30279 0.11437 0.0
O263 O 0.06961 0.34768 1.09522 0.0
O264 O -0.01598 0.31807 1.06338 0.0
O265 O -0.0204 0.42765 0.18603 0.0
C266 C 0.85753 0.24982 0.92479 0.0
O267 O 0.89465 0.39557 1.0897 0.0
C268 C 0.87179 0.29657 0.32978 0.0
C269 C -0.02145 0.21766 0.20355 0.0
O270 O 0.83225 0.29541 0.98023 0.0
O271 O 0.90104 0.23241 0.97969 0.0
O272 O 0.83394 0.29217 0.24627 0.0
O273 O 0.92117 0.31463 0.29219 0.0
O274 O 0.9248 0.22184 0.16967 0.0
O275 O 0.01748 0.25419 0.18011 0.0
C276 C 0.0757 0.36107 0.4163 0.0
O277 O 0.08589 0.32637 0.32292 0.0
O278 O 0.02684 0.38762 0.40491 0.0
C279 C 0.03366 0.3236 1.01677 0.0
Tb280 Tb 0.47255 0.36192 0.3667 0.0
C281 C 0.54363 0.44864 0.53738 0.0
Tb282 Tb 0.58217 0.32637 0.45227 0.0
O283 O 0.41144 0.36871 0.50824 0.0
O284 O 0.49755 0.34075 0.53094 0.0
O285 O 0.49394 0.44124 0.48083 0.0
C286 C 0.65166 0.31252 0.6221 0.0
O287 O 0.58968 0.41822 0.50281 0.0
C288 C 0.59388 0.30612 0.23456 0.0
C289 C 0.49275 0.23504 0.38766 0.0
O290 O 0.65519 0.35487 0.56201 0.0
O291 O 0.61618 0.27363 0.57161 0.0
O292 O 0.62889 0.28624 0.30599 0.0
O293 O 0.5609 0.34784 0.28681 0.0
O294 O 0.54812 0.24409 0.38445 0.0
O295 O 0.45581 0.27027 0.34943 0.0
C296 C 0.39068 0.39104 0.22285 0.0
O297 O 0.38509 0.35385 0.29365 0.0
O298 O 0.4425 0.41373 0.23633 0.0
C299 C 0.44723 0.34921 0.57868 0.0
Tb300 Tb 0.00616 0.58372 0.95857 0.0
C301 C 0.93411 0.49167 1.07046 0.0
Tb302 Tb 0.89742 0.62546 1.07775 0.0
O303 O 0.0696 0.58057 0.09687 0.0
O304 O -0.01596 0.61019 0.12875 0.0
O305 O -0.02039 0.50061 1.00607 0.0
C306 C 0.85754 0.67845 0.26731 0.0
O307 O 0.89467 0.53268 0.10245 0.0
C308 C 0.87182 0.63169 0.86235 0.0
C309 C -0.02138 0.71061 0.98853 0.0
O310 O 0.83226 0.63284 0.21189 0.0
O311 O 0.90107 0.69586 0.21242 0.0
O312 O 0.83398 0.63608 0.94591 0.0
O313 O 0.9212 0.61364 0.8999 0.0
O314 O 0.92487 0.70642 1.02245 0.0
O315 O 0.01753 0.67407 1.01196 0.0
C316 C 0.07571 0.56715 0.77578 0.0
O317 O 0.08593 0.60184 0.86916 0.0
O318 O 0.02681 0.54061 0.78721 0.0
C319 C 0.03367 0.60465 0.17535 0.0
loop_
_geom_bond_atom_site_label_1
_geom_bond_atom_site_label_2
_geom_bond_distance
_geom_bond_site_symmetry_2
_ccdc_geom_bond_type
Tb0 O3 2.453 . S
Tb0 O4 2.596 1_655 S
Tb0 O5 2.374 1_655 S
Tb0 O13 2.343 1_655 S
Tb0 O15 2.353 . S
Tb0 O17 2.427 . S
Tb0 O18 2.513 . S
C1 O5 1.251 . S
C1 O7 1.263 . S
Tb2 O4 2.343 . S
Tb2 O7 2.353 . S
Tb2 O10 2.427 1_554 S
Tb2 O11 2.513 1_554 S
Tb2 O12 2.453 . S
Tb2 O13 2.596 . S
Tb2 O14 2.374 . S
O3 Tb0 2.453 . S
O3 C19 1.245 1_554 S
O4 Tb0 2.596 1_455 S
O4 Tb2 2.343 . S
O4 C19 1.259 1_454 S
O5 Tb0 2.374 1_455 S
O5 C1 1.251 . S
C6 O10 1.275 . S
C6 O11 1.246 . S
O7 C1 1.263 . S
O7 Tb2 2.353 . S
C8 O12 1.245 . S
C8 O13 1.259 . S
C9 O14 1.250 . S
C9 O15 1.263 1_455 S
O10 Tb2 2.427 1_556 S
O10 C6 1.275 . S
O11 Tb2 2.513 1_556 S
O11 C6 1.246 . S
O12 Tb2 2.453 . S
O12 C8 1.245 . S
O13 Tb0 2.343 1_455 S
O13 Tb2 2.596 . S
O13 C8 1.259 . S
O14 Tb2 2.374 . S
O14 C9 1.250 . S
O15 Tb0 2.353 . S
O15 C9 1.263 1_655 S
C16 O17 1.275 . S
C16 O18 1.246 . S
O17 Tb0 2.427 . S
O17 C16 1.275 . S
O18 Tb0 2.513 . S
O18 C16 1.246 . S
C19 O3 1.245 1_556 S
C19 O4 1.259 1_656 S
Tb20 O23 2.453 . S
Tb20 O24 2.596 . S
Tb20 O25 2.374 . S
Tb20 O33 2.343 . S
Tb20 O35 2.353 . S
Tb20 O37 2.427 . S
Tb20 O38 2.513 . S
C21 O25 1.251 . S
C21 O27 1.263 . S
Tb22 O24 2.343 . S
Tb22 O27 2.353 . S
Tb22 O30 2.427 . S
Tb22 O31 2.513 . S
Tb22 O32 2.453 . S
Tb22 O33 2.596 . S
Tb22 O34 2.374 . S
O23 Tb20 2.453 . S
O23 C39 1.245 . S
O24 Tb20 2.596 . S
O24 Tb22 2.343 . S
O24 C39 1.259 . S
O25 Tb20 2.374 . S
O25 C21 1.251 . S
C26 O30 1.275 . S
C26 O31 1.246 . S
O27 C21 1.263 . S
O27 Tb22 2.353 . S
C28 O32 1.245 . S
C28 O33 1.259 . S
C29 O34 1.250 . S
C29 O35 1.263 . S
O30 Tb22 2.427 . S
O30 C26 1.275 . S
O31 Tb22 2.513 . S
O31 C26 1.246 . S
O32 Tb22 2.453 . S
O32 C28 1.245 . S
O33 Tb20 2.343 . S
O33 Tb22 2.596 . S
O33 C28 1.259 . S
O34 Tb22 2.374 . S
O34 C29 1.250 . S
O35 Tb20 2.353 . S
O35 C29 1.263 . S
C36 O37 1.275 . S
C36 O38 1.246 . S
O37 Tb20 2.427 . S
O37 C36 1.275 . S
O38 Tb20 2.513 . S
O38 C36 1.246 . S
C39 O23 1.245 . S
C39 O24 1.259 . S
Tb40 O43 2.453 . S
Tb40 O44 2.596 . S
Tb40 O45 2.374 . S
Tb40 O53 2.343 . S
Tb40 O55 2.353 . S
Tb40 O57 2.427 . S
Tb40 O58 2.513 . S
C41 O45 1.251 . S
C41 O47 1.263 . S
Tb42 O44 2.343 . S
Tb42 O47 2.353 . S
Tb42 O50 2.427 . S
Tb42 O51 2.513 . S
Tb42 O52 2.453 . S
Tb42 O53 2.596 . S
Tb42 O54 2.374 . S
O43 Tb40 2.453 . S
O43 C59 1.245 . S
O44 Tb40 2.596 . S
O44 Tb42 2.343 . S
O44 C59 1.259 . S
O45 Tb40 2.374 . S
O45 C41 1.251 . S
C46 O50 1.275 . S
C46 O51 1.246 . S
O47 C41 1.263 . S
O47 Tb42 2.353 . S
C48 O52 1.245 . S
C48 O53 1.259 . S
C49 O54 1.250 . S
C49 O55 1.263 . S
O50 Tb42 2.427 . S
O50 C46 1.275 . S
O51 Tb42 2.513 . S
O51 C46 1.246 . S
O52 Tb42 2.453 . S
O52 C48 1.245 . S
O53 Tb40 2.343 . S
O53 Tb42 2.596 . S
O53 C48 1.259 . S
O54 Tb42 2.374 . S
O54 C49 1.250 . S
O55 Tb40 2.353 . S
O55 C49 1.263 . S
C56 O57 1.275 . S
C56 O58 1.246 . S
O57 Tb40 2.427 . S
O57 C56 1.275 . S
O58 Tb40 2.513 . S
O58 C56 1.246 . S
C59 O43 1.245 . S
C59 O44 1.259 . S
Tb60 O63 2.453 1_556 S
Tb60 O64 2.596 . S
Tb60 O65 2.374 . S
Tb60 O73 2.343 . S
Tb60 O75 2.353 . S
Tb60 O77 2.427 . S
Tb60 O78 2.513 . S
C61 O65 1.251 . S
C61 O67 1.263 . S
Tb62 O64 2.343 . S
Tb62 O67 2.353 . S
Tb62 O70 2.427 1_556 S
Tb62 O71 2.513 1_556 S
Tb62 O72 2.453 . S
Tb62 O73 2.596 . S
Tb62 O74 2.374 . S
O63 Tb60 2.453 1_554 S
O63 C79 1.245 . S
O64 Tb60 2.596 . S
O64 Tb62 2.343 . S
O64 C79 1.259 1_556 S
O65 Tb60 2.374 . S
O65 C61 1.251 . S
C66 O70 1.275 . S
C66 O71 1.246 . S
O67 C61 1.263 . S
O67 Tb62 2.353 . S
C68 O72 1.245 . S
C68 O73 1.259 . S
C69 O74 1.250 . S
C69 O75 1.263 . S
O70 Tb62 2.427 1_554 S
O70 C66 1.275 . S
O71 Tb62 2.513 1_554 S
O71 C66 1.246 . S
O72 Tb62 2.453 . S
O72 C68 1.245 . S
O73 Tb60 2.343 . S
O73 Tb62 2.596 . S
O73 C68 1.259 . S
O74 Tb62 2.374 . S
O74 C69 1.250 . S
O75 Tb60 2.353 . S
O75 C69 1.263 . S
C76 O77 1.275 . S
C76 O78 1.246 . S
O77 Tb60 2.427 . S
O77 C76 1.275 . S
O78 Tb60 2.513 . S
O78 C76 1.246 . S
C79 O63 1.245 . S
C79 O64 1.259 1_554 S
Tb80 O83 2.453 . S
Tb80 O84 2.596 1_655 S
Tb80 O85 2.374 1_655 S
Tb80 O93 2.343 1_655 S
Tb80 O95 2.353 . S
Tb80 O97 2.427 . S
Tb80 O98 2.513 . S
C81 O85 1.251 . S
C81 O87 1.263 . S
Tb82 O84 2.343 . S
Tb82 O87 2.353 . S
Tb82 O90 2.427 1_556 S
Tb82 O91 2.513 1_556 S
Tb82 O92 2.453 . S
Tb82 O93 2.596 . S
Tb82 O94 2.374 . S
O83 Tb80 2.453 . S
O83 C99 1.245 1_556 S
O84 Tb80 2.596 1_455 S
O84 Tb82 2.343 . S
O84 C99 1.259 1_456 S
O85 Tb80 2.374 1_455 S
O85 C81 1.251 . S
C86 O90 1.275 . S
C86 O91 1.246 . S
O87 C81 1.263 . S
O87 Tb82 2.353 . S
C88 O92 1.245 . S
C88 O93 1.259 . S
C89 O94 1.250 . S
C89 O95 1.263 1_455 S
O90 Tb82 2.427 1_554 S
O90 C86 1.275 . S
O91 Tb82 2.513 1_554 S
O91 C86 1.246 . S
O92 Tb82 2.453 . S
O92 C88 1.245 . S
O93 Tb80 2.343 1_455 S
O93 Tb82 2.596 . S
O93 C88 1.259 . S
O94 Tb82 2.374 . S
O94 C89 1.250 . S
O95 Tb80 2.353 . S
O95 C89 1.263 1_655 S
C96 O97 1.275 . S
C96 O98 1.246 . S
O97 Tb80 2.427 . S
O97 C96 1.275 . S
O98 Tb80 2.513 . S
O98 C96 1.246 . S
C99 O83 1.245 1_554 S
C99 O84 1.259 1_654 S
Tb100 O103 2.453 1_554 S
Tb100 O104 2.596 . S
Tb100 O105 2.374 . S
Tb100 O113 2.343 . S
Tb100 O115 2.353 . S
Tb100 O117 2.427 . S
Tb100 O118 2.513 . S
C101 O105 1.251 . S
C101 O107 1.263 . S
Tb102 O104 2.343 . S
Tb102 O107 2.353 . S
Tb102 O110 2.427 1_554 S
Tb102 O111 2.513 1_554 S
Tb102 O112 2.453 . S
Tb102 O113 2.596 . S
Tb102 O114 2.374 . S
O103 Tb100 2.453 1_556 S
O103 C119 1.245 . S
O104 Tb100 2.596 . S
O104 Tb102 2.343 . S
O104 C119 1.259 1_554 S
O105 Tb100 2.374 . S
O105 C101 1.251 . S
C106 O110 1.275 . S
C106 O111 1.246 . S
O107 C101 1.263 . S
O107 Tb102 2.353 . S
C108 O112 1.245 . S
C108 O113 1.259 . S
C109 O114 1.250 . S
C109 O115 1.263 . S
O110 Tb102 2.427 1_556 S
O110 C106 1.275 . S
O111 Tb102 2.513 1_556 S
O111 C106 1.246 . S
O112 Tb102 2.453 . S
O112 C108 1.245 . S
O113 Tb100 2.343 . S
O113 Tb102 2.596 . S
O113 C108 1.259 . S
O114 Tb102 2.374 . S
O114 C109 1.250 . S
O115 Tb100 2.353 . S
O115 C109 1.263 . S
C116 O117 1.275 . S
C116 O118 1.246 . S
O117 Tb100 2.427 . S
O117 C116 1.275 . S
O118 Tb100 2.513 . S
O118 C116 1.246 . S
C119 O103 1.245 . S
C119 O104 1.259 1_556 S
Tb120 O123 2.453 . S
Tb120 O124 2.596 . S
Tb120 O125 2.374 . S
Tb120 O133 2.343 . S
Tb120 O135 2.353 . S
Tb120 O137 2.427 . S
Tb120 O138 2.513 . S
C121 O125 1.251 . S
C121 O127 1.263 . S
Tb122 O124 2.343 . S
Tb122 O127 2.353 . S
Tb122 O130 2.427 . S
Tb122 O131 2.513 . S
Tb122 O132 2.453 . S
Tb122 O133 2.596 . S
Tb122 O134 2.374 . S
O123 Tb120 2.453 . S
O123 C139 1.245 . S
O124 Tb120 2.596 . S
O124 Tb122 2.343 . S
O124 C139 1.259 . S
O125 Tb120 2.374 . S
O125 C121 1.251 . S
C126 O130 1.275 . S
C126 O131 1.246 . S
O127 C121 1.263 . S
O127 Tb122 2.353 . S
C128 O132 1.245 . S
C128 O133 1.259 . S
C129 O134 1.250 . S
C129 O135 1.263 . S
O130 Tb122 2.427 . S
O130 C126 1.275 . S
O131 Tb122 2.513 . S
O131 C126 1.246 . S
O132 Tb122 2.453 . S
O132 C128 1.245 . S
O133 Tb120 2.343 . S
O133 Tb122 2.596 . S
O133 C128 1.259 . S
O134 Tb122 2.374 . S
O134 C129 1.250 . S
O135 Tb120 2.353 . S
O135 C129 1.263 . S
C136 O137 1.275 . S
C136 O138 1.246 . S
O137 Tb120 2.427 . S
O137 C136 1.275 . S
O138 Tb120 2.513 . S
O138 C136 1.246 . S
C139 O123 1.245 . S
C139 O124 1.259 . S
Tb140 O143 2.453 . S
Tb140 O144 2.596 . S
Tb140 O145 2.374 . S
Tb140 O153 2.343 . S
Tb140 O155 2.353 . S
Tb140 O157 2.427 . S
Tb140 O158 2.513 . S
C141 O145 1.251 . S
C141 O147 1.263 . S
Tb142 O144 2.343 . S
Tb142 O147 2.353 . S
Tb142 O150 2.427 . S
Tb142 O151 2.513 . S
Tb142 O152 2.453 . S
Tb142 O153 2.596 . S
Tb142 O154 2.374 . S
O143 Tb140 2.453 . S
O143 C159 1.245 . S
O144 Tb140 2.596 . S
O144 Tb142 2.343 . S
O144 C159 1.259 . S
O145 Tb140 2.374 . S
O145 C141 1.251 . S
C146 O150 1.275 . S
C146 O151 1.246 . S
O147 C141 1.263 . S
O147 Tb142 2.353 . S
C148 O152 1.245 . S
C148 O153 1.259 . S
C149 O154 1.250 . S
C149 O155 1.263 . S
O150 Tb142 2.427 . S
O150 C146 1.275 . S
O151 Tb142 2.513 . S
O151 C146 1.246 . S
O152 Tb142 2.453 . S
O152 C148 1.245 . S
O153 Tb140 2.343 . S
O153 Tb142 2.596 . S
O153 C148 1.259 . S
O154 Tb142 2.374 . S
O154 C149 1.250 . S
O155 Tb140 2.353 . S
O155 C149 1.263 . S
C156 O157 1.275 . S
C156 O158 1.246 . S
O157 Tb140 2.427 . S
O157 C156 1.275 . S
O158 Tb140 2.513 . S
O158 C156 1.246 . S
C159 O143 1.245 . S
C159 O144 1.259 . S
Tb160 O163 2.453 . S
Tb160 O164 2.596 . S
Tb160 O165 2.374 1_655 S
Tb160 O173 2.343 . S
Tb160 O175 2.353 . S
Tb160 O177 2.427 . S
Tb160 O178 2.513 . S
C161 O165 1.251 . S
C161 O167 1.263 . S
Tb162 O164 2.343 . S
Tb162 O167 2.353 1_655 S
Tb162 O170 2.427 . S
Tb162 O171 2.513 . S
Tb162 O172 2.453 . S
Tb162 O173 2.596 . S
Tb162 O174 2.374 . S
O163 Tb160 2.453 . S
O163 C179 1.245 . S
O164 Tb160 2.596 . S
O164 Tb162 2.343 . S
O164 C179 1.259 . S
O165 Tb160 2.374 1_455 S
O165 C161 1.251 . S
C166 O170 1.275 . S
C166 O171 1.246 . S
O167 C161 1.263 . S
O167 Tb162 2.353 1_455 S
C168 O172 1.245 . S
C168 O173 1.259 . S
C169 O174 1.250 . S
C169 O175 1.263 . S
O170 Tb162 2.427 . S
O170 C166 1.275 . S
O171 Tb162 2.513 . S
O171 C166 1.246 . S
O172 Tb162 2.453 . S
O172 C168 1.245 . S
O173 Tb160 2.343 . S
O173 Tb162 2.596 . S
O173 C168 1.259 . S
O174 Tb162 2.374 . S
O174 C169 1.250 . S
O175 Tb160 2.353 . S
O175 C169 1.263 . S
C176 O177 1.275 . S
C176 O178 1.246 . S
O177 Tb160 2.427 . S
O177 C176 1.275 . S
O178 Tb160 2.513 . S
O178 C176 1.246 . S
C179 O163 1.245 . S
C179 O164 1.259 . S
Tb180 O183 2.453 . S
Tb180 O184 2.596 . S
Tb180 O185 2.374 . S
Tb180 O193 2.343 . S
Tb180 O195 2.353 . S
Tb180 O197 2.427 1_554 S
Tb180 O198 2.513 1_554 S
C181 O185 1.251 . S
C181 O187 1.263 . S
Tb182 O184 2.343 . S
Tb182 O187 2.353 . S
Tb182 O190 2.427 . S
Tb182 O191 2.513 . S
Tb182 O192 2.453 . S
Tb182 O193 2.596 . S
Tb182 O194 2.374 . S
O183 Tb180 2.453 . S
O183 C199 1.245 . S
O184 Tb180 2.596 . S
O184 Tb182 2.343 . S
O184 C199 1.259 . S
O185 Tb180 2.374 . S
O185 C181 1.251 . S
C186 O190 1.275 . S
C186 O191 1.246 . S
O187 C181 1.263 . S
O187 Tb182 2.353 . S
C188 O192 1.245 1_556 S
C188 O193 1.259 1_556 S
C189 O194 1.250 . S
C189 O195 1.263 . S
O190 Tb182 2.427 . S
O190 C186 1.275 . S
O191 Tb182 2.513 . S
O191 C186 1.246 . S
O192 Tb182 2.453 . S
O192 C188 1.245 1_554 S
O193 Tb180 2.343 . S
O193 Tb182 2.596 . S
O193 C188 1.259 1_554 S
O194 Tb182 2.374 . S
O194 C189 1.250 . S
O195 Tb180 2.353 . S
O195 C189 1.263 . S
C196 O197 1.275 . S
C196 O198 1.246 . S
O197 Tb180 2.427 1_556 S
O197 C196 1.275 . S
O198 Tb180 2.513 1_556 S
O198 C196 1.246 . S
C199 O183 1.245 . S
C199 O184 1.259 . S
Tb200 O203 2.453 . S
Tb200 O204 2.596 . S
Tb200 O205 2.374 . S
Tb200 O213 2.343 . S
Tb200 O215 2.353 . S
Tb200 O217 2.427 1_556 S
Tb200 O218 2.513 1_556 S
C201 O205 1.251 . S
C201 O207 1.263 . S
Tb202 O204 2.343 . S
Tb202 O207 2.353 . S
Tb202 O210 2.427 . S
Tb202 O211 2.513 . S
Tb202 O212 2.453 . S
Tb202 O213 2.596 . S
Tb202 O214 2.374 . S
O203 Tb200 2.453 . S
O203 C219 1.245 . S
O204 Tb200 2.596 . S
O204 Tb202 2.343 . S
O204 C219 1.259 . S
O205 Tb200 2.374 . S
O205 C201 1.251 . S
C206 O210 1.275 . S
C206 O211 1.246 . S
O207 C201 1.263 . S
O207 Tb202 2.353 . S
C208 O212 1.245 1_554 S
C208 O213 1.259 1_554 S
C209 O214 1.250 . S
C209 O215 1.263 . S
O210 Tb202 2.427 . S
O210 C206 1.275 . S
O211 Tb202 2.513 . S
O211 C206 1.246 . S
O212 Tb202 2.453 . S
O212 C208 1.245 1_556 S
O213 Tb200 2.343 . S
O213 Tb202 2.596 . S
O213 C208 1.259 1_556 S
O214 Tb202 2.374 . S
O214 C209 1.250 . S
O215 Tb200 2.353 . S
O215 C209 1.263 . S
C216 O217 1.275 . S
C216 O218 1.246 . S
O217 Tb200 2.427 1_554 S
O217 C216 1.275 . S
O218 Tb200 2.513 1_554 S
O218 C216 1.246 . S
C219 O203 1.245 . S
C219 O204 1.259 . S
Tb220 O223 2.453 . S
Tb220 O224 2.596 . S
Tb220 O225 2.374 1_655 S
Tb220 O233 2.343 . S
Tb220 O235 2.353 . S
Tb220 O237 2.427 . S
Tb220 O238 2.513 . S
C221 O225 1.251 . S
C221 O227 1.263 . S
Tb222 O224 2.343 . S
Tb222 O227 2.353 1_655 S
Tb222 O230 2.427 . S
Tb222 O231 2.513 . S
Tb222 O232 2.453 . S
Tb222 O233 2.596 . S
Tb222 O234 2.374 . S
O223 Tb220 2.453 . S
O223 C239 1.245 . S
O224 Tb220 2.596 . S
O224 Tb222 2.343 . S
O224 C239 1.259 . S
O225 Tb220 2.374 1_455 S
O225 C221 1.251 . S
C226 O230 1.275 . S
C226 O231 1.246 . S
O227 C221 1.263 . S
O227 Tb222 2.353 1_455 S
C228 O232 1.245 . S
C228 O233 1.259 . S
C229 O234 1.250 . S
C229 O235 1.263 . S
O230 Tb222 2.427 . S
O230 C226 1.275 . S
O231 Tb222 2.513 . S
O231 C226 1.246 . S
O232 Tb222 2.453 . S
O232 C228 1.245 . S
O233 Tb220 2.343 . S
O233 Tb222 2.596 . S
O233 C228 1.259 . S
O234 Tb222 2.374 . S
O234 C229 1.250 . S
O235 Tb220 2.353 . S
O235 C229 1.263 . S
C236 O237 1.275 . S
C236 O238 1.246 . S
O237 Tb220 2.427 . S
O237 C236 1.275 . S
O238 Tb220 2.513 . S
O238 C236 1.246 . S
C239 O223 1.245 . S
C239 O224 1.259 . S
Tb240 O243 2.453 . S
Tb240 O244 2.596 . S
Tb240 O245 2.374 . S
Tb240 O253 2.343 . S
Tb240 O255 2.353 . S
Tb240 O257 2.427 . S
Tb240 O258 2.513 . S
C241 O245 1.251 . S
C241 O247 1.263 . S
Tb242 O244 2.343 . S
Tb242 O247 2.353 . S
Tb242 O250 2.427 . S
Tb242 O251 2.513 . S
Tb242 O252 2.453 . S
Tb242 O253 2.596 . S
Tb242 O254 2.374 . S
O243 Tb240 2.453 . S
O243 C259 1.245 . S
O244 Tb240 2.596 . S
O244 Tb242 2.343 . S
O244 C259 1.259 . S
O245 Tb240 2.374 . S
O245 C241 1.251 . S
C246 O250 1.275 . S
C246 O251 1.246 . S
O247 C241 1.263 . S
O247 Tb242 2.353 . S
C248 O252 1.245 . S
C248 O253 1.259 . S
C249 O254 1.250 . S
C249 O255 1.263 . S
O250 Tb242 2.427 . S
O250 C246 1.275 . S
O251 Tb242 2.513 . S
O251 C246 1.246 . S
O252 Tb242 2.453 . S
O252 C248 1.245 . S
O253 Tb240 2.343 . S
O253 Tb242 2.596 . S
O253 C248 1.259 . S
O254 Tb242 2.374 . S
O254 C249 1.250 . S
O255 Tb240 2.353 . S
O255 C249 1.263 . S
C256 O257 1.275 . S
C256 O258 1.246 . S
O257 Tb240 2.427 . S
O257 C256 1.275 . S
O258 Tb240 2.513 . S
O258 C256 1.246 . S
C259 O243 1.245 . S
C259 O244 1.259 . S
Tb260 O263 2.453 1_554 S
Tb260 O264 2.596 1_554 S
Tb260 O265 2.374 . S
Tb260 O273 2.343 1_455 S
Tb260 O275 2.353 . S
Tb260 O277 2.427 . S
Tb260 O278 2.513 . S
C261 O265 1.251 1_655 S
C261 O267 1.263 . S
Tb262 O264 2.343 1_654 S
Tb262 O267 2.353 . S
Tb262 O270 2.427 1_554 S
Tb262 O271 2.513 1_554 S
Tb262 O272 2.453 . S
Tb262 O273 2.596 . S
Tb262 O274 2.374 . S
O263 Tb260 2.453 1_556 S
O263 C279 1.245 . S
O264 Tb260 2.596 1_556 S
O264 Tb262 2.343 1_456 S
O264 C279 1.259 . S
O265 Tb260 2.374 . S
O265 C261 1.251 1_455 S
C266 O270 1.275 . S
C266 O271 1.246 . S
O267 C261 1.263 . S
O267 Tb262 2.353 . S
C268 O272 1.245 . S
C268 O273 1.259 . S
C269 O274 1.250 1_455 S
C269 O275 1.263 . S
O270 Tb262 2.427 1_556 S
O270 C266 1.275 . S
O271 Tb262 2.513 1_556 S
O271 C266 1.246 . S
O272 Tb262 2.453 . S
O272 C268 1.245 . S
O273 Tb260 2.343 1_655 S
O273 Tb262 2.596 . S
O273 C268 1.259 . S
O274 Tb262 2.374 . S
O274 C269 1.250 1_655 S
O275 Tb260 2.353 . S
O275 C269 1.263 . S
C276 O277 1.275 . S
C276 O278 1.246 . S
O277 Tb260 2.427 . S
O277 C276 1.275 . S
O278 Tb260 2.513 . S
O278 C276 1.246 . S
C279 O263 1.245 . S
C279 O264 1.259 . S
Tb280 O283 2.453 . S
Tb280 O284 2.596 . S
Tb280 O285 2.374 . S
Tb280 O293 2.343 . S
Tb280 O295 2.353 . S
Tb280 O297 2.427 . S
Tb280 O298 2.513 . S
C281 O285 1.251 . S
C281 O287 1.263 . S
Tb282 O284 2.343 . S
Tb282 O287 2.353 . S
Tb282 O290 2.427 . S
Tb282 O291 2.513 . S
Tb282 O292 2.453 . S
Tb282 O293 2.596 . S
Tb282 O294 2.374 . S
O283 Tb280 2.453 . S
O283 C299 1.245 . S
O284 Tb280 2.596 . S
O284 Tb282 2.343 . S
O284 C299 1.259 . S
O285 Tb280 2.374 . S
O285 C281 1.251 . S
C286 O290 1.275 . S
C286 O291 1.246 . S
O287 C281 1.263 . S
O287 Tb282 2.353 . S
C288 O292 1.245 . S
C288 O293 1.259 . S
C289 O294 1.250 . S
C289 O295 1.263 . S
O290 Tb282 2.427 . S
O290 C286 1.275 . S
O291 Tb282 2.513 . S
O291 C286 1.246 . S
O292 Tb282 2.453 . S
O292 C288 1.245 . S
O293 Tb280 2.343 . S
O293 Tb282 2.596 . S
O293 C288 1.259 . S
O294 Tb282 2.374 . S
O294 C289 1.250 . S
O295 Tb280 2.353 . S
O295 C289 1.263 . S
C296 O297 1.275 . S
C296 O298 1.246 . S
O297 Tb280 2.427 . S
O297 C296 1.275 . S
O298 Tb280 2.513 . S
O298 C296 1.246 . S
C299 O283 1.245 . S
C299 O284 1.259 . S
Tb300 O303 2.453 1_556 S
Tb300 O304 2.596 1_556 S
Tb300 O305 2.374 . S
Tb300 O313 2.343 1_455 S
Tb300 O315 2.353 . S
Tb300 O317 2.427 . S
Tb300 O318 2.513 . S
C301 O305 1.251 1_655 S
C301 O307 1.263 . S
Tb302 O304 2.343 1_656 S
Tb302 O307 2.353 . S
Tb302 O310 2.427 1_556 S
Tb302 O311 2.513 1_556 S
Tb302 O312 2.453 . S
Tb302 O313 2.596 . S
Tb302 O314 2.374 . S
O303 Tb300 2.453 1_554 S
O303 C319 1.245 . S
O304 Tb300 2.596 1_554 S
O304 Tb302 2.343 1_454 S
O304 C319 1.259 . S
O305 Tb300 2.374 . S
O305 C301 1.251 1_455 S
C306 O310 1.275 . S
C306 O311 1.246 . S
O307 C301 1.263 . S
O307 Tb302 2.353 . S
C308 O312 1.245 . S
C308 O313 1.259 . S
C309 O314 1.250 1_455 S
C309 O315 1.263 . S
O310 Tb302 2.427 1_554 S
O310 C306 1.275 . S
O311 Tb302 2.513 1_554 S
O311 C306 1.246 . S
O312 Tb302 2.453 . S
O312 C308 1.245 . S
O313 Tb300 2.343 1_655 S
O313 Tb302 2.596 . S
O313 C308 1.259 . S
O314 Tb302 2.374 . S
O314 C309 1.250 1_655 S
O315 Tb300 2.353 . S
O315 C309 1.263 . S
C316 O317 1.275 . S
C316 O318 1.246 . S
O317 Tb300 2.427 . S
O317 C316 1.275 . S
O318 Tb300 2.513 . S
O318 C316 1.246 . S
C319 O303 1.245 . S
C319 O304 1.259 . S
C6 C146 0.469 . S
C26 C86 0.469 . S
C108 C46 0.992 . S
C68 C126 0.992 . S
C236 C99 1.924 . S
C176 C19 1.924 . S
C219 C139 2.454 . S
C59 C199 2.454 . S
C186 C246 0.469 . S
C206 C286 0.469 . S
C266 C168 0.992 . S
C228 C306 0.992 . S
C299 C76 1.924 . S
C259 C116 1.924 . S
C39 C319 2.455 . S
C159 C279 2.455 . S
C269 C9 1.215 . S
C221 C29 0.650 . S
C249 C49 1.215 . S
C209 C61 0.650 . S
C89 C309 1.215 . S
C189 C101 0.650 . S
C129 C289 1.215 . S
C149 C161 0.650 . S
C1 C81 2.791 1_544 S
C21 C109 2.482 . S
C121 C41 2.182 1_545 S
C69 C141 2.482 . S
C201 C169 2.482 . S
C229 C181 2.482 . S
C241 C281 2.792 . S
C301 C261 2.182 1_556 S
C8 C148 2.729 . S
C28 C88 2.729 . S
C106 C48 2.580 . S
C128 C66 2.580 . S
C239 C96 1.249 . S
C179 C16 1.249 . S
C216 C136 1.328 . S
C56 C196 1.328 . S
C248 C188 2.729 . S
C288 C208 2.729 . S
C268 C166 2.580 . S
C308 C226 2.580 . S
C296 C79 1.249 . S
C119 C256 1.249 . S
C36 C316 1.328 . S
C276 C156 1.328 . S
