# Generated by pormake.
# Topology ume, (4)-cn, num edge types: 1
# Building blocks:
#     Node 0, Type 0, BuildingBlock: ESEHIV_clean_sbu_0, # of connection points: 4
#     Node 1, Type 0, BuildingBlock: ESEHIV_clean_sbu_0, # of connection points: 4
#     Node 2, Type 0, BuildingBlock: ESEHIV_clean_sbu_0, # of connection points: 4
#     Node 3, Type 0, BuildingBlock: ESEHIV_clean_sbu_0, # of connection points: 4
#     Node 4, Type 0, BuildingBlock: ESEHIV_clean_sbu_0, # of connection points: 4
#     Node 5, Type 0, BuildingBlock: ESEHIV_clean_sbu_0, # of connection points: 4
#     Node 6, Type 0, BuildingBlock: ESEHIV_clean_sbu_0, # of connection points: 4
#     Node 7, Type 0, BuildingBlock: ESEHIV_clean_sbu_0, # of connection points: 4
#     Node 8, Type 0, BuildingBlock: ESEHIV_clean_sbu_0, # of connection points: 4
#     Node 9, Type 0, BuildingBlock: ESEHIV_clean_sbu_0, # of connection points: 4
#     Node 10, Type 0, BuildingBlock: ESEHIV_clean_sbu_0, # of connection points: 4
#     Node 11, Type 0, BuildingBlock: ESEHIV_clean_sbu_0, # of connection points: 4
#     Node 12, Type 0, BuildingBlock: ESEHIV_clean_sbu_0, # of connection points: 4
#     Node 13, Type 0, BuildingBlock: ESEHIV_clean_sbu_0, # of connection points: 4
#     Node 14, Type 0, BuildingBlock: ESEHIV_clean_sbu_0, # of connection points: 4
#     Node 15, Type 0, BuildingBlock: ESEHIV_clean_sbu_0, # of connection points: 4
#     Edge 16, Type (0, 0), BuildingBlock: KIFKEQ_clean_linker_1, # of connection points: 2
#     Edge 17, Type (0, 0), BuildingBlock: KIFKEQ_clean_linker_1, # of connection points: 2
#     Edge 18, Type (0, 0), BuildingBlock: KIFKEQ_clean_linker_1, # of connection points: 2
#     Edge 19, Type (0, 0), BuildingBlock: KIFKEQ_clean_linker_1, # of connection points: 2
#     Edge 20, Type (0, 0), BuildingBlock: KIFKEQ_clean_linker_1, # of connection points: 2
#     Edge 21, Type (0, 0), BuildingBlock: KIFKEQ_clean_linker_1, # of connection points: 2
#     Edge 22, Type (0, 0), BuildingBlock: KIFKEQ_clean_linker_1, # of connection points: 2
#     Edge 23, Type (0, 0), BuildingBlock: KIFKEQ_clean_linker_1, # of connection points: 2
#     Edge 24, Type (0, 0), BuildingBlock: KIFKEQ_clean_linker_1, # of connection points: 2
#     Edge 25, Type (0, 0), BuildingBlock: KIFKEQ_clean_linker_1, # of connection points: 2
#     Edge 26, Type (0, 0), BuildingBlock: KIFKEQ_clean_linker_1, # of connection points: 2
#     Edge 27, Type (0, 0), BuildingBlock: KIFKEQ_clean_linker_1, # of connection points: 2
#     Edge 28, Type (0, 0), BuildingBlock: KIFKEQ_clean_linker_1, # of connection points: 2
#     Edge 29, Type (0, 0), BuildingBlock: KIFKEQ_clean_linker_1, # of connection points: 2
#     Edge 30, Type (0, 0), BuildingBlock: KIFKEQ_clean_linker_1, # of connection points: 2
#     Edge 31, Type (0, 0), BuildingBlock: KIFKEQ_clean_linker_1, # of connection points: 2
#     Edge 32, Type (0, 0), BuildingBlock: KIFKEQ_clean_linker_1, # of connection points: 2
#     Edge 33, Type (0, 0), BuildingBlock: KIFKEQ_clean_linker_1, # of connection points: 2
#     Edge 34, Type (0, 0), BuildingBlock: KIFKEQ_clean_linker_1, # of connection points: 2
#     Edge 35, Type (0, 0), BuildingBlock: KIFKEQ_clean_linker_1, # of connection points: 2
#     Edge 36, Type (0, 0), BuildingBlock: KIFKEQ_clean_linker_1, # of connection points: 2
#     Edge 37, Type (0, 0), BuildingBlock: KIFKEQ_clean_linker_1, # of connection points: 2
#     Edge 38, Type (0, 0), BuildingBlock: KIFKEQ_clean_linker_1, # of connection points: 2
#     Edge 39, Type (0, 0), BuildingBlock: KIFKEQ_clean_linker_1, # of connection points: 2
#     Edge 40, Type (0, 0), BuildingBlock: KIFKEQ_clean_linker_1, # of connection points: 2
#     Edge 41, Type (0, 0), BuildingBlock: KIFKEQ_clean_linker_1, # of connection points: 2
#     Edge 42, Type (0, 0), BuildingBlock: KIFKEQ_clean_linker_1, # of connection points: 2
#     Edge 43, Type (0, 0), BuildingBlock: KIFKEQ_clean_linker_1, # of connection points: 2
#     Edge 44, Type (0, 0), BuildingBlock: KIFKEQ_clean_linker_1, # of connection points: 2
#     Edge 45, Type (0, 0), BuildingBlock: KIFKEQ_clean_linker_1, # of connection points: 2
#     Edge 46, Type (0, 0), BuildingBlock: KIFKEQ_clean_linker_1, # of connection points: 2
#     Edge 47, Type (0, 0), BuildingBlock: KIFKEQ_clean_linker_1, # of connection points: 2
# Relax obj value: 0.042
# Max RMSD: 0.160
# Mean RMSD: 0.135
data_MOF--net-ume--node1-ESEHIV_clean_sbu_0--edge1-KIFKEQ_clean_linker_1
_symmetry_space_group_name_H-M    P1
_symmetry_Int_Tables_number       1
_symmetry_cell_setting            triclinic
loop_
_symmetry_equiv_pos_as_xyz
'x, y, z'
_cell_length_a     28.402494
_cell_length_b     34.499945
_cell_length_c     122.03252
_cell_angle_alpha  89.944528
_cell_angle_beta   90.130857
_cell_angle_gamma 90.03692
loop_
_atom_site_label
_atom_site_type_symbol
_atom_site_fract_x
_atom_site_fract_y
_atom_site_fract_z
_atom_type_partial_charge
Cu0 Cu 0.26985 0.10124 0.31679 0.0
N1 N 0.27637 0.1303 0.32964 0.0
N2 N 0.27878 0.14726 0.34732 0.0
C3 C 0.27397 0.11778 0.3401 0.0
C4 C 0.28469 0.17935 0.34114 0.0
C5 C 0.28329 0.16881 0.33027 0.0
O6 O 0.21236 0.07041 0.31821 0.0
C7 C 0.36669 0.08773 0.31552 0.0
O8 O 0.36731 0.12499 0.31774 0.0
H9 H 0.26785 0.08785 0.34235 0.0
H10 H 0.28704 0.18793 0.3233 0.0
N11 N 0.26218 0.13533 0.30499 0.0
N12 N 0.26979 0.16477 0.28875 0.0
C13 C 0.28568 0.13621 0.2954 0.0
C14 C 0.23026 0.16401 0.30435 0.0
C15 C 0.23496 0.18231 0.29438 0.0
C16 C 0.18771 0.06023 0.30996 0.0
O17 O 0.20385 0.06711 0.30007 0.0
H18 H 0.31397 0.11647 0.29339 0.0
H19 H 0.20511 0.17091 0.3107 0.0
O20 O 0.32701 0.07062 0.31464 0.0
H21 H 0.29011 0.20839 0.34425 0.0
H22 H 0.21371 0.20618 0.29144 0.0
Cu23 Cu 0.97649 0.76803 0.57608 0.0
N24 N 1.01609 0.81057 0.57796 0.0
N25 N 0.04235 0.87159 0.57847 0.0
C26 C 1.00725 0.84767 0.57527 0.0
C27 C 0.07466 0.84838 0.58328 0.0
C28 C 0.05829 0.81082 0.58297 0.0
O29 O 0.93751 0.776 0.56316 0.0
C30 C 0.92772 0.78703 0.59566 0.0
O31 O 0.93191 0.82284 0.59214 0.0
H32 H 0.97485 0.85706 0.57145 0.0
H33 H 0.07549 0.78551 0.58635 0.0
N34 N 1.01371 0.72471 0.57339 0.0
N35 N 0.03762 0.6632 0.57219 0.0
C36 C 1.00319 0.68745 0.57555 0.0
C37 C 0.05602 0.72412 0.56847 0.0
C38 C 0.07096 0.68625 0.56775 0.0
C39 C 0.90452 0.80067 0.56213 0.0
O40 O 0.89187 0.82158 0.57061 0.0
H41 H 0.97091 0.67843 0.5795 0.0
H42 H 0.07436 0.74946 0.56546 0.0
O43 O 0.94203 0.75933 0.58963 0.0
H44 H 0.10759 0.85776 0.58687 0.0
H45 H 0.10324 0.67642 0.56397 0.0
Cu46 Cu 0.28688 0.4338 0.81697 0.0
N47 N 0.2858 0.40076 0.82905 0.0
N48 N 0.28432 0.37987 0.84641 0.0
C49 C 0.28529 0.41108 0.8397 0.0
C50 C 0.28415 0.34882 0.83967 0.0
C51 C 0.28499 0.3618 0.82899 0.0
O52 O 0.34176 0.4674 0.81884 0.0
C53 C 0.20639 0.47737 0.80875 0.0
O54 O 0.2292 0.48089 0.79945 0.0
H55 H 0.28613 0.4409 0.84243 0.0
H56 H 0.28478 0.3441 0.82168 0.0
N57 N 0.29634 0.4036 0.8044 0.0
N58 N 0.28925 0.37519 0.788 0.0
C59 C 0.26755 0.39638 0.79583 0.0
C60 C 0.33711 0.38576 0.802 0.0
C61 C 0.33295 0.36835 0.79191 0.0
C62 C 0.36464 0.4812 0.81076 0.0
O63 O 0.34724 0.47735 0.80083 0.0
H64 H 0.23192 0.40718 0.79522 0.0
H65 H 0.36807 0.38609 0.80717 0.0
O66 O 0.22614 0.46049 0.81683 0.0
H67 H 0.28271 0.31882 0.84224 0.0
H68 H 0.36011 0.35198 0.78778 0.0
Cu69 Cu 0.57097 0.76302 0.07423 0.0
N70 N 0.53104 0.7211 0.07667 0.0
N71 N 0.5084 0.65964 0.07862 0.0
C72 C 0.54464 0.68381 0.07661 0.0
C73 C 0.47047 0.68256 0.08005 0.0
C74 C 0.48467 0.72062 0.07894 0.0
O75 O 0.61155 0.74997 0.06196 0.0
C76 C 0.58134 0.78642 0.09573 0.0
O77 O 0.53748 0.79678 0.09396 0.0
H78 H 0.58039 0.67461 0.07499 0.0
H79 H 0.46283 0.74605 0.07984 0.0
N80 N 0.53673 0.80732 0.07048 0.0
N81 N 0.51658 0.86957 0.06883 0.0
C82 C 0.54988 0.84432 0.07219 0.0
C83 C 0.49402 0.80927 0.0657 0.0
C84 C 0.48132 0.84767 0.06475 0.0
C85 C 0.5911 0.73749 0.05335 0.0
O86 O 0.54497 0.73455 0.05333 0.0
H87 H 0.58275 0.85249 0.07607 0.0
H88 H 0.47353 0.78453 0.06308 0.0
O89 O 0.60472 0.77143 0.08791 0.0
H90 H 0.43531 0.67255 0.08197 0.0
H91 H 0.44895 0.85866 0.06123 0.0
Cu92 Cu 0.27667 0.41657 0.95924 0.0
N93 N 0.27871 0.38705 0.94641 0.0
N94 N 0.27893 0.37072 0.92867 0.0
C95 C 0.27401 0.39977 0.93602 0.0
C96 C 0.28722 0.33863 0.93472 0.0
C97 C 0.28723 0.34882 0.94563 0.0
O98 O 0.22022 0.44934 0.95879 0.0
C99 C 0.35201 0.46662 0.9672 0.0
O100 O 0.3249 0.47493 0.97558 0.0
H101 H 0.26703 0.42971 0.93392 0.0
H102 H 0.29383 0.32977 0.9525 0.0
N103 N 0.27211 0.38274 0.97125 0.0
N104 N 0.28551 0.35178 0.98707 0.0
C105 C 0.29813 0.38165 0.98052 0.0
C106 C 0.24208 0.35265 0.97204 0.0
C107 C 0.25033 0.33348 0.98174 0.0
C108 C 0.18168 0.43351 0.95575 0.0
O109 O 0.1823 0.3969 0.95282 0.0
H110 H 0.32665 0.40146 0.98229 0.0
H111 H 0.21654 0.34462 0.96588 0.0
O112 O 0.33648 0.44454 0.95965 0.0
H113 H 0.2941 0.30998 0.9315 0.0
H114 H 0.23194 0.30799 0.98465 0.0
Cu115 Cu 0.591 0.7659 0.19629 0.0
N116 N 0.55041 0.8086 0.19623 0.0
N117 N 0.52465 0.8697 0.19738 0.0
C118 C 0.55885 0.84437 0.20019 0.0
C119 C 0.49296 0.8488 0.19162 0.0
C120 C 0.50902 0.81119 0.19091 0.0
O121 O 0.63597 0.7713 0.20827 0.0
C122 C 0.62994 0.79201 0.17633 0.0
O123 O 0.62641 0.82602 0.18107 0.0
H124 H 0.59011 0.85204 0.20474 0.0
H125 H 0.49281 0.78774 0.18639 0.0
N126 N 0.55521 0.72164 0.19909 0.0
N127 N 0.53132 0.65989 0.20024 0.0
C128 C 0.56411 0.68464 0.19623 0.0
C129 C 0.5157 0.7204 0.20511 0.0
C130 C 0.50087 0.68252 0.20583 0.0
C131 C 0.6657 0.79867 0.2093 0.0
O132 O 0.67114 0.82386 0.20134 0.0
H133 H 0.5942 0.6762 0.19137 0.0
H134 H 0.49939 0.7453 0.20891 0.0
O135 O 0.61909 0.76174 0.18175 0.0
H136 H 0.46182 0.8603 0.18766 0.0
H137 H 0.47074 0.67247 0.21044 0.0
Cu138 Cu 0.28482 0.10873 0.4607 0.0
N139 N 0.27663 0.13503 0.44741 0.0
N140 N 0.27467 0.15001 0.42958 0.0
C141 C 0.28395 0.12222 0.43711 0.0
C142 C 0.26079 0.18123 0.43539 0.0
C143 C 0.26187 0.17187 0.44634 0.0
O144 O 0.34089 0.07587 0.46002 0.0
C145 C 0.20641 0.05781 0.45744 0.0
O146 O 0.22768 0.04829 0.44828 0.0
H147 H 0.29645 0.09338 0.43519 0.0
H148 H 0.25241 0.19061 0.45309 0.0
N149 N 0.29368 0.14531 0.47182 0.0
N150 N 0.28401 0.17841 0.4874 0.0
C151 C 0.27208 0.14641 0.48164 0.0
C152 C 0.32035 0.17752 0.47139 0.0
C153 C 0.31438 0.19804 0.48096 0.0
C154 C 0.37907 0.091 0.45655 0.0
O155 O 0.37837 0.12718 0.45319 0.0
H156 H 0.24672 0.12498 0.48432 0.0
H157 H 0.34159 0.18612 0.46446 0.0
O158 O 0.22655 0.08124 0.464 0.0
H159 H 0.24989 0.20874 0.43195 0.0
H160 H 0.3307 0.22549 0.48297 0.0
Cu161 Cu 0.97218 0.76275 0.69634 0.0
N162 N 1.0081 0.71783 0.69483 0.0
N163 N 0.02916 0.6555 0.69479 0.0
C164 C 0.99536 0.68136 0.6974 0.0
C165 C 0.06464 0.67656 0.69048 0.0
C166 C 0.05143 0.71499 0.69047 0.0
O167 O 0.93216 0.75777 0.70915 0.0
C168 C 0.92269 0.74586 0.67663 0.0
O169 O 0.92307 0.71007 0.6803 0.0
H170 H 0.96188 0.67388 0.70103 0.0
H171 H 0.07163 0.73914 0.68733 0.0
N172 N 1.01241 0.80425 0.69914 0.0
N173 N 0.03841 0.86484 0.70139 0.0
C174 C 1.0039 0.84209 0.69728 0.0
C175 C 0.05364 0.80296 0.70457 0.0
C176 C 0.06981 0.84028 0.70597 0.0
C177 C 0.8969 0.73542 0.71032 0.0
O178 O 0.88203 0.71474 0.70197 0.0
H179 H 0.97198 0.85277 0.69347 0.0
H180 H 0.07 0.77677 0.70762 0.0
O181 O 0.93931 0.77282 0.68263 0.0
H182 H 0.09715 0.66489 0.68726 0.0
H183 H 0.10177 0.84871 0.71019 0.0
Cu184 Cu 0.78832 0.60644 0.81374 0.0
N185 N 0.80088 0.62838 0.82745 0.0
N186 N 0.80569 0.63944 0.84546 0.0
C187 C 0.78317 0.6198 0.83741 0.0
C188 C 0.83832 0.66131 0.84034 0.0
C189 C 0.83523 0.65443 0.82927 0.0
O190 O 0.72576 0.58298 0.8131 0.0
C191 C 0.86293 0.5524 0.81705 0.0
O192 O 0.84514 0.54889 0.82692 0.0
H193 H 0.75585 0.59851 0.8388 0.0
H194 H 0.8574 0.66673 0.82296 0.0
N195 N 0.78741 0.64632 0.80343 0.0
N196 N 0.79472 0.67855 0.78761 0.0
C197 C 0.80245 0.64482 0.79299 0.0
C198 C 0.76948 0.68204 0.80476 0.0
C199 C 0.77402 0.70203 0.79503 0.0
C200 C 0.70895 0.55529 0.81878 0.0
O201 O 0.73608 0.53719 0.82586 0.0
H202 H 0.81885 0.61947 0.78945 0.0
H203 H 0.75367 0.69259 0.81224 0.0
O204 O 0.84132 0.573 0.80998 0.0
H205 H 0.86303 0.68062 0.84433 0.0
H206 H 0.76201 0.73131 0.79351 0.0
Cu207 Cu 0.46755 0.26415 0.07922 0.0
N208 N 0.50492 0.3078 0.08136 0.0
N209 N 0.52584 0.37002 0.08196 0.0
C210 C 0.4929 0.34431 0.07872 0.0
C211 C 0.56 0.34891 0.08681 0.0
C212 C 0.54675 0.31046 0.08651 0.0
O213 O 0.42646 0.2744 0.06673 0.0
C214 C 0.4143 0.28072 0.09834 0.0
O215 O 0.41111 0.31574 0.09417 0.0
H216 H 0.4602 0.35191 0.07468 0.0
H217 H 0.56558 0.28632 0.09009 0.0
N218 N 0.50524 0.22103 0.07634 0.0
N219 N 0.52718 0.15942 0.07416 0.0
C220 C 0.4911 0.18378 0.07621 0.0
C221 C 0.55171 0.2202 0.0742 0.0
C222 C 0.5654 0.18219 0.0729 0.0
C223 C 0.44405 0.27151 0.05717 0.0
O224 O 0.48809 0.26054 0.05616 0.0
H225 H 0.45524 0.17473 0.07777 0.0
H226 H 0.57408 0.24544 0.07353 0.0
O227 O 0.43421 0.25415 0.0928 0.0
H228 H 0.59126 0.3606 0.09068 0.0
H229 H 0.60055 0.17209 0.07102 0.0
Cu230 Cu 0.76976 0.92231 0.314 0.0
N231 N 0.76177 0.8991 0.32778 0.0
N232 N 0.75792 0.88988 0.34589 0.0
C233 C 0.77543 0.91208 0.33772 0.0
C234 C 0.73269 0.86185 0.34092 0.0
C235 C 0.73511 0.8676 0.32979 0.0
O236 O 0.83169 0.94669 0.31292 0.0
C237 C 0.6756 0.94085 0.31116 0.0
O238 O 0.67346 0.90283 0.31132 0.0
H239 H 0.796 0.93808 0.33899 0.0
H240 H 0.71735 0.85056 0.32361 0.0
N241 N 0.76843 0.88359 0.30327 0.0
N242 N 0.75901 0.85302 0.28729 0.0
C243 C 0.7572 0.88736 0.29258 0.0
C244 C 0.77844 0.84578 0.3047 0.0
C245 C 0.77218 0.82677 0.29489 0.0
C246 C 0.84706 0.97587 0.31821 0.0
O247 O 0.8189 0.99418 0.32498 0.0
H248 H 0.74706 0.91453 0.2888 0.0
H249 H 0.78954 0.83288 0.31236 0.0
O250 O 0.71597 0.95703 0.31177 0.0
H251 H 0.71343 0.83904 0.34504 0.0
H252 H 0.77739 0.79614 0.29341 0.0
Cu253 Cu 0.09367 0.26634 0.57829 0.0
N254 N 0.05439 0.22337 0.57914 0.0
N255 N 0.03221 0.16135 0.57883 0.0
C256 C 0.06603 0.18714 0.57616 0.0
C257 C 0.99791 0.18228 0.58366 0.0
C258 C 1.0119 0.22055 0.58392 0.0
O259 O 0.13734 0.25703 0.56628 0.0
C260 C 0.10762 0.29039 0.60022 0.0
O261 O 0.07076 0.31222 0.59821 0.0
H262 H 0.09924 0.17982 0.57236 0.0
H263 H 0.99329 0.24435 0.5877 0.0
N264 N 0.05801 0.3107 0.57525 0.0
N265 N 0.037 0.37262 0.57297 0.0
C266 C 0.07208 0.34795 0.57573 0.0
C267 C 1.01274 0.3118 0.57199 0.0
C268 C 0.99967 0.34986 0.5706 0.0
C269 C 0.12137 0.25988 0.55655 0.0
O270 O 0.07723 0.27003 0.5551 0.0
H271 H 0.10737 0.35665 0.57801 0.0
H272 H 0.99077 0.28665 0.57065 0.0
O273 O 0.12477 0.26982 0.59253 0.0
H274 H 0.96611 0.17055 0.58725 0.0
H275 H 0.96508 0.35994 0.5682 0.0
Cu276 Cu 0.78682 0.93129 0.45838 0.0
N277 N 0.7896 0.904 0.44521 0.0
N278 N 0.7917 0.89125 0.42728 0.0
C279 C 0.77888 0.91691 0.43508 0.0
C280 C 0.81099 0.8611 0.43272 0.0
C281 C 0.80971 0.86909 0.44376 0.0
O282 O 0.73015 0.9636 0.45849 0.0
C283 C 0.86395 0.98033 0.46645 0.0
O284 O 0.83991 0.98656 0.47545 0.0
H285 H 0.7641 0.94525 0.43344 0.0
H286 H 0.82405 0.85135 0.45027 0.0
N287 N 0.78306 0.89514 0.46985 0.0
N288 N 0.79185 0.86422 0.48587 0.0
C289 C 0.80341 0.89577 0.47985 0.0
C290 C 0.75794 0.86207 0.46956 0.0
C291 C 0.76325 0.843 0.47938 0.0
C292 C 0.69105 0.9476 0.45598 0.0
O293 O 0.69106 0.91083 0.45321 0.0
H294 H 0.82679 0.91845 0.4826 0.0
H295 H 0.73721 0.85239 0.46264 0.0
O296 O 0.84608 0.95994 0.45881 0.0
H297 H 0.8256 0.83538 0.42897 0.0
H298 H 0.74674 0.81584 0.48161 0.0
Cu299 Cu 0.08275 0.26265 0.70181 0.0
N300 N 0.04128 0.30431 0.7007 0.0
N301 N 1.0165 0.36553 0.69935 0.0
C302 C 0.05406 0.34179 0.70017 0.0
C303 C 0.9785 0.34203 0.69935 0.0
C304 C 0.99394 0.30419 0.70011 0.0
O305 O 0.12363 0.27254 0.71425 0.0
C306 C 0.09371 0.24429 0.67973 0.0
O307 O 0.05137 0.22995 0.68124 0.0
H308 H 0.09024 0.3515 0.70047 0.0
H309 H 0.97219 0.27847 0.70012 0.0
N310 N 0.04992 0.21711 0.70503 0.0
N311 N 0.0314 0.15443 0.70666 0.0
C312 C 0.06008 0.18065 0.70186 0.0
C313 C 1.01398 0.21376 0.71212 0.0
C314 C 1.00236 0.17518 0.71312 0.0
C315 C 0.15751 0.29662 0.71454 0.0
O316 O 0.16976 0.31494 0.70554 0.0
H317 H 0.08903 0.17341 0.69648 0.0
H318 H 0.99822 0.23766 0.71651 0.0
O319 O 0.1155 0.25909 0.68785 0.0
H320 H 0.94228 0.35146 0.69864 0.0
H321 H 0.97499 0.16331 0.71829 0.0
Cu322 Cu 0.77297 0.59109 0.95741 0.0
N323 N 0.7684 0.62119 0.94474 0.0
N324 N 0.76623 0.63755 0.92701 0.0
C325 C 0.77666 0.60957 0.93438 0.0
C326 C 0.7508 0.66789 0.93299 0.0
C327 C 0.75219 0.6577 0.94392 0.0
O328 O 0.82948 0.55859 0.95657 0.0
C329 C 0.69611 0.54703 0.96679 0.0
O330 O 0.72049 0.54705 0.97595 0.0
H331 H 0.78881 0.58078 0.93229 0.0
H332 H 0.74134 0.67536 0.95078 0.0
N333 N 0.77939 0.62332 0.96968 0.0
N334 N 0.76465 0.65458 0.98536 0.0
C335 C 0.74598 0.63498 0.97679 0.0
C336 C 0.82032 0.63654 0.97382 0.0
C337 C 0.81139 0.65575 0.98347 0.0
C338 C 0.86774 0.57382 0.95316 0.0
O339 O 0.86706 0.60998 0.94977 0.0
H340 H 0.70908 0.62769 0.97596 0.0
H341 H 0.85459 0.63154 0.97028 0.0
O342 O 0.7139 0.5621 0.95821 0.0
H343 H 0.7394 0.6955 0.9297 0.0
H344 H 0.83742 0.669 0.98876 0.0
Cu345 Cu 0.46049 0.26348 0.19969 0.0
N346 N 0.5009 0.22098 0.19855 0.0
N347 N 0.52777 0.16004 0.19852 0.0
C348 C 0.49112 0.18362 0.2008 0.0
C349 C 0.56208 0.18373 0.19478 0.0
C350 C 0.54537 0.22122 0.19481 0.0
O351 O 0.41934 0.25583 0.21225 0.0
C352 C 0.41509 0.24322 0.17965 0.0
O353 O 0.41877 0.20755 0.18331 0.0
H354 H 0.45722 0.1738 0.20368 0.0
H355 H 0.56408 0.24686 0.19214 0.0
N356 N 0.49656 0.30749 0.2026 0.0
N357 N 0.52155 0.36906 0.20308 0.0
C358 C 0.4903 0.34369 0.19871 0.0
C359 C 0.53284 0.30982 0.20965 0.0
C360 C 0.54834 0.34762 0.20996 0.0
C361 C 0.38711 0.23038 0.21311 0.0
O362 O 0.3764 0.20872 0.20462 0.0
H363 H 0.46306 0.35112 0.19287 0.0
H364 H 0.54636 0.28579 0.21441 0.0
O365 O 0.4284 0.27118 0.18572 0.0
H366 H 0.59675 0.17475 0.19215 0.0
H367 H 0.57624 0.3585 0.21517 0.0
H368 H 0.91391 0.94492 0.30466 0.0
H369 H 0.89422 0.03372 0.32916 0.0
H370 H 0.99645 0.9631 0.30301 0.0
H371 H 0.97684 0.05236 0.32736 0.0
H372 H 0.13823 0.0505 0.32911 0.0
H373 H 0.05656 0.02948 0.33122 0.0
H374 H 0.0451 1.01518 0.29616 0.0
H375 H 0.12667 0.03552 0.29407 0.0
C376 C 0.92707 0.96848 0.30967 0.0
C377 C 0.8972 0.98788 0.31703 0.0
C378 C 0.97449 0.97903 0.30868 0.0
C379 C 0.9935 1.00923 0.31505 0.0
C380 C 0.96364 0.02863 0.32243 0.0
C381 C 0.9161 0.01814 0.32339 0.0
C382 C 0.11843 0.04251 0.32186 0.0
C383 C 0.13919 0.04469 0.31142 0.0
C384 C 0.07142 0.03078 0.32306 0.0
C385 C 0.04401 0.02076 0.31386 0.0
C386 C 0.06515 0.02225 0.30345 0.0
C387 C 0.11202 0.03408 0.30224 0.0
H388 H 0.11403 0.6162 0.57291 0.0
H389 H 0.96196 0.61522 0.5727 0.0
H390 H 0.11465 0.54553 0.57304 0.0
H391 H 0.96257 0.54465 0.5732 0.0
H392 H 0.98252 0.42076 0.56081 0.0
H393 H 0.98297 0.49127 0.56094 0.0
H394 H 0.09514 0.4903 0.58489 0.0
H395 H 0.09457 0.4196 0.58481 0.0
C396 C 0.08074 0.60094 0.5729 0.0
C397 C 0.03795 0.62144 0.57275 0.0
C398 C 0.0811 0.56043 0.5731 0.0
C399 C 0.03866 0.53947 0.5731 0.0
C400 C 0.99588 0.55994 0.57307 0.0
C401 C 0.99553 0.60044 0.57291 0.0
C402 C 1.00704 0.43549 0.56617 0.0
C403 C 0.03839 0.41442 0.57283 0.0
C404 C 1.00728 0.47596 0.56625 0.0
C405 C 0.03892 0.4964 0.57297 0.0
C406 C 0.07067 0.4754 0.57954 0.0
C407 C 0.0704 0.43486 0.57947 0.0
H408 H 0.64277 0.58949 0.80562 0.0
H409 H 0.65967 0.49824 0.82957 0.0
H410 H 0.55934 0.5744 0.80413 0.0
H411 H 0.57612 0.48248 0.82788 0.0
H412 H 0.41555 0.4872 0.82988 0.0
H413 H 0.49797 0.50605 0.83199 0.0
H414 H 0.50727 0.52603 0.79711 0.0
H415 H 0.42489 0.50814 0.79505 0.0
C416 C 0.6288 0.56599 0.81053 0.0
C417 C 0.65818 0.54503 0.8177 0.0
C418 C 0.58082 0.55721 0.80964 0.0
C419 C 0.56073 0.52715 0.81587 0.0
C420 C 0.5901 0.50617 0.82306 0.0
C421 C 0.63819 0.515 0.82396 0.0
C422 C 0.43502 0.49608 0.82268 0.0
C423 C 0.4134 0.49618 0.81229 0.0
C424 C 0.4825 0.50653 0.82387 0.0
C425 C 0.5096 0.51738 0.81472 0.0
C426 C 0.48756 0.5183 0.80438 0.0
C427 C 0.44017 0.50789 0.80318 0.0
H428 H 0.45622 0.11587 0.06604 0.0
H429 H 0.59417 0.10901 0.08072 0.0
H430 H 0.45375 0.04544 0.06452 0.0
H431 H 0.59132 0.03853 0.07969 0.0
H432 H 0.59281 0.91558 0.06651 0.0
H433 H 0.59532 0.9861 0.0676 0.0
H434 H 0.44598 0.98785 0.07449 0.0
H435 H 0.44361 0.91747 0.0729 0.0
C436 C 0.48576 0.09915 0.06907 0.0
C437 C 0.52541 0.11782 0.07347 0.0
C438 C 0.48436 0.05875 0.06825 0.0
C439 C 0.52234 0.03604 0.07198 0.0
C440 C 0.56181 0.05492 0.0765 0.0
C441 C 0.56345 0.09533 0.07715 0.0
C442 C 0.56066 0.93118 0.06827 0.0
C443 C 0.51802 0.91116 0.06959 0.0
C444 C 0.56202 0.9716 0.06896 0.0
C445 C 0.52085 0.99292 0.07116 0.0
C446 C 0.47824 0.97265 0.07256 0.0
C447 C 0.47681 0.93228 0.0717 0.0
H448 H 0.16441 0.51007 0.96096 0.0
H449 H 0.09535 0.40511 0.95022 0.0
H450 H 0.08847 0.54371 0.96072 0.0
H451 H 1.02027 0.43862 0.94983 0.0
H452 H 0.88518 0.49972 0.96055 0.0
H453 H 0.96118 0.46664 0.96168 0.0
H454 H 0.02952 0.56717 0.94781 0.0
H455 H 0.95409 0.60028 0.94684 0.0
C456 C 0.13318 0.4942 0.95853 0.0
C457 C 0.13616 0.45488 0.95561 0.0
C458 C 0.08964 0.51349 0.95835 0.0
C459 C 0.04807 0.49386 0.95529 0.0
C460 C 0.05125 0.45455 0.9524 0.0
C461 C 0.09458 0.43539 0.95255 0.0
C462 C 0.9164 0.51469 0.95772 0.0
C463 C 0.91335 0.55264 0.95358 0.0
C464 C 0.96002 0.49572 0.95834 0.0
C465 C 1.00167 0.51425 0.95487 0.0
C466 C 0.99845 0.55218 0.95073 0.0
C467 C 0.95496 0.57106 0.95008 0.0
H468 H 0.45408 0.41633 0.19438 0.0
H469 H 0.59511 0.41696 0.2078 0.0
H470 H 0.45748 0.48623 0.19227 0.0
H471 H 0.59729 0.48698 0.2063 0.0
H472 H 0.60363 0.61132 0.19502 0.0
H473 H 0.60167 0.5409 0.19429 0.0
H474 H 0.45462 0.54248 0.20328 0.0
H475 H 0.45582 0.61266 0.20336 0.0
C476 C 0.48593 0.43113 0.19686 0.0
C477 C 0.52416 0.41056 0.20136 0.0
C478 C 0.48764 0.47149 0.19577 0.0
C479 C 0.52749 0.49251 0.1992 0.0
C480 C 0.56613 0.4719 0.20346 0.0
C481 C 0.56457 0.43154 0.20447 0.0
C482 C 0.57064 0.5968 0.19666 0.0
C483 C 0.52998 0.61806 0.19934 0.0
C484 C 0.56966 0.55623 0.19638 0.0
C485 C 0.52806 0.53577 0.1988 0.0
C486 C 0.48721 0.55706 0.20124 0.0
C487 C 0.48811 0.59755 0.20146 0.0
H488 H 0.39621 0.01629 0.46348 0.0
H489 H 0.46495 0.11687 0.44974 0.0
H490 H 0.47168 0.98218 0.46382 0.0
H491 H 0.53976 0.08274 0.44989 0.0
H492 H 0.67542 0.02393 0.46154 0.0
H493 H 0.59999 0.0581 0.46211 0.0
H494 H 0.52876 0.95398 0.45151 0.0
H495 H 0.60353 0.91985 0.45114 0.0
C496 C 0.42729 0.03106 0.46049 0.0
C497 C 0.42436 0.06933 0.45658 0.0
C498 C 0.47059 1.01148 0.46064 0.0
C499 C 0.51201 0.02972 0.45691 0.0
C500 C 0.5089 0.06795 0.453 0.0
C501 C 0.46574 0.08745 0.45283 0.0
C502 C 0.64365 1.00837 0.45934 0.0
C503 C 0.64569 0.96914 0.45629 0.0
C504 C 0.60037 0.02798 0.45962 0.0
C505 C 0.55811 1.00881 0.45687 0.0
C506 C 0.56033 0.96957 0.45385 0.0
C507 C 0.60344 0.95005 0.45355 0.0
H508 H 1.01038 0.10165 0.72229 0.0
H509 H 0.05644 0.11299 0.68875 0.0
H510 H 1.01296 0.03124 0.72064 0.0
H511 H 0.05945 0.04223 0.68712 0.0
H512 H 1.00254 0.91452 0.68634 0.0
H513 H 1.00169 0.98544 0.68734 0.0
H514 H 0.07561 0.9804 0.71826 0.0
H515 H 0.07604 0.90979 0.71732 0.0
C516 C 1.02083 0.08908 0.71455 0.0
C517 C 0.03313 0.11285 0.70564 0.0
C518 C 1.02274 0.04877 0.71364 0.0
C519 C 0.03652 0.03127 0.70376 0.0
C520 C 0.04847 0.05496 0.69481 0.0
C521 C 0.04712 0.09538 0.69577 0.0
C522 C 1.01854 0.92863 0.69334 0.0
C523 C 0.03932 0.90659 0.70175 0.0
C524 C 1.0184 0.96916 0.69387 0.0
C525 C 0.03847 0.9884 0.70289 0.0
C526 C 0.05954 0.96635 0.71125 0.0
C527 C 0.06017 0.92593 0.71066 0.0
H528 H 0.58696 0.9132 0.31415 0.0
H529 H 0.66293 0.01945 0.30801 0.0
H530 H 0.51361 0.9487 0.3148 0.0
H531 H 0.58857 0.05525 0.30815 0.0
H532 H 0.45453 0.11245 0.32128 0.0
H533 H 0.52881 0.07804 0.3197 0.0
H534 H 0.45619 0.98126 0.3048 0.0
H535 H 0.38143 0.01524 0.30688 0.0
C536 C 0.58799 0.94421 0.31278 0.0
C537 C 0.63102 0.96345 0.31103 0.0
C538 C 0.54558 0.96465 0.31307 0.0
C539 C 0.54462 1.00501 0.31148 0.0
C540 C 0.58773 0.02428 0.30958 0.0
C541 C 0.63045 1.00377 0.30942 0.0
C542 C 0.45437 0.0838 0.31766 0.0
C543 C 0.41189 0.06651 0.31427 0.0
C544 C 0.49722 0.06412 0.31666 0.0
C545 C 0.49898 0.02668 0.31212 0.0
C546 C 0.45642 1.00969 0.30854 0.0
C547 C 0.41342 0.02923 0.30968 0.0
H548 H 0.99319 0.91686 0.56423 0.0
H549 H 0.09294 0.92162 0.59102 0.0
H550 H 0.99116 0.98744 0.56368 0.0
H551 H 0.09137 0.99199 0.5903 0.0
H552 H 0.1106 0.11667 0.57901 0.0
H553 H 0.11435 0.04623 0.57805 0.0
H554 H 0.96271 0.04101 0.57578 0.0
H555 H 0.95902 0.11174 0.57649 0.0
C556 C 1.0146 0.93281 0.57002 0.0
C557 C 0.04309 0.91334 0.57771 0.0
C558 C 1.01346 0.97328 0.56968 0.0
C559 C 0.04105 0.9952 0.57696 0.0
C560 C 0.07018 0.97585 0.58449 0.0
C561 C 0.07112 0.93542 0.58488 0.0
C562 C 0.07809 0.10059 0.57814 0.0
C563 C 0.03447 0.1198 0.57782 0.0
C564 C 0.08024 0.06021 0.5777 0.0
C565 C 0.03883 0.03813 0.57688 0.0
C566 C 0.99524 0.0573 0.57633 0.0
C567 C 0.99308 0.09773 0.57685 0.0
H568 H 0.14505 0.49502 0.79209 0.0
H569 H 0.15399 0.48681 0.82733 0.0
H570 H 0.06144 0.51016 0.79346 0.0
H571 H 0.07111 0.50365 0.82878 0.0
H572 H 0.91315 0.49872 0.82869 0.0
H573 H 0.99504 0.47993 0.82625 0.0
H574 H 1.00516 0.55654 0.79829 0.0
H575 H 0.92258 0.57382 0.80047 0.0
C576 C 0.12933 0.49703 0.80015 0.0
C577 C 0.15631 0.48964 0.8096 0.0
C578 C 0.08125 0.50584 0.80095 0.0
C579 C 0.05892 0.50795 0.81123 0.0
C580 C 0.0864 0.50139 0.82069 0.0
C581 C 0.13426 0.4921 0.81988 0.0
C582 C 0.9327 0.51115 0.82193 0.0
C583 C 0.91121 0.53779 0.81479 0.0
C584 C 0.97999 0.50071 0.82059 0.0
C585 C 1.00744 0.51708 0.81216 0.0
C586 C 0.98539 0.54291 0.80482 0.0
C587 C 0.93786 0.55294 0.80607 0.0
H588 H 0.57907 0.61628 0.08682 0.0
H589 H 0.44212 0.60925 0.07165 0.0
H590 H 0.58303 0.54583 0.08769 0.0
H591 H 0.44651 0.53864 0.07201 0.0
H592 H 0.44808 0.41409 0.08418 0.0
H593 H 0.44349 0.48452 0.08354 0.0
H594 H 0.59308 0.49009 0.07707 0.0
H595 H 0.59751 0.41956 0.07823 0.0
C596 C 0.55004 0.59949 0.08356 0.0
C597 C 0.5103 0.61807 0.07917 0.0
C598 C 0.55233 0.55911 0.08399 0.0
C599 C 0.5152 0.53632 0.07987 0.0
C600 C 0.47544 0.5551 0.07545 0.0
C601 C 0.47287 0.59555 0.07519 0.0
C602 C 0.47983 0.43049 0.08256 0.0
C603 C 0.52315 0.41152 0.08124 0.0
C604 C 0.47726 0.47087 0.08215 0.0
C605 C 0.5179 0.49322 0.08024 0.0
C606 C 0.56118 0.47401 0.07878 0.0
C607 C 0.56381 0.43362 0.07938 0.0
H608 H 0.41729 0.45403 0.95111 0.0
H609 H 0.40021 0.50893 0.98265 0.0
H610 H 0.50012 0.47219 0.95103 0.0
H611 H 0.48311 0.52779 0.98247 0.0
H612 H 0.64414 0.51854 0.98395 0.0
H613 H 0.56128 0.49978 0.98395 0.0
H614 H 0.55186 0.52722 0.94947 0.0
H615 H 0.6348 0.54525 0.94942 0.0
C616 C 0.43105 0.4703 0.958 0.0
C617 C 0.40188 0.47999 0.96689 0.0
C618 C 0.47866 0.48087 0.95793 0.0
C619 C 0.49856 0.50141 0.96675 0.0
C620 C 0.46925 0.51149 0.9756 0.0
C621 C 0.42154 0.50097 0.97566 0.0
C622 C 0.62453 0.52029 0.97634 0.0
C623 C 0.64636 0.53333 0.96668 0.0
C624 C 0.5768 0.50986 0.97637 0.0
C625 C 0.54962 0.51211 0.96672 0.0
C626 C 0.57168 0.52467 0.95703 0.0
C627 C 0.61934 0.53515 0.95701 0.0
H628 H 0.44947 0.9179 0.19845 0.0
H629 H 0.60148 0.91598 0.19934 0.0
H630 H 0.45091 0.98864 0.19938 0.0
H631 H 0.60286 0.98636 0.20056 0.0
H632 H 0.58502 0.11077 0.18741 0.0
H633 H 0.58462 0.04037 0.18808 0.0
H634 H 0.4718 0.04317 0.21171 0.0
H635 H 0.47248 0.11378 0.21118 0.0
C636 C 0.48313 0.93253 0.19892 0.0
C637 C 0.5253 0.91122 0.1988 0.0
C638 C 0.48397 0.97302 0.19955 0.0
C639 C 0.52703 0.9931 0.2 0.0
C640 C 0.56914 0.97176 0.20011 0.0
C641 C 0.56829 0.93133 0.19954 0.0
C642 C 0.56057 0.09658 0.19289 0.0
C643 C 0.52873 0.11822 0.19923 0.0
C644 C 0.56032 0.0561 0.19325 0.0
C645 C 0.52815 0.03617 0.19994 0.0
C646 C 0.4966 0.05768 0.20636 0.0
C647 C 0.49698 0.09821 0.20604 0.0
H648 H 0.91656 0.9856 0.44781 0.0
H649 H 0.92357 1.00544 0.4827 0.0
H650 H 0.99875 1.00412 0.44606 0.0
H651 H 1.00668 0.02243 0.48106 0.0
H652 H 0.14425 0.0857 0.47266 0.0
H653 H 0.06167 0.06851 0.47494 0.0
H654 H 0.0752 0.98222 0.44948 0.0
H655 H 0.15714 1.00071 0.44689 0.0
C656 C 0.93573 0.99384 0.45513 0.0
C657 C 0.91338 0.99403 0.4654 0.0
C658 C 0.98318 1.00413 0.45415 0.0
C659 C 1.00998 1.01439 0.46343 0.0
C660 C 0.98732 1.01514 0.47369 0.0
C661 C 0.93957 1.00529 0.47465 0.0
C662 C 0.12966 0.06287 0.46759 0.0
C663 C 0.15736 0.04472 0.45955 0.0
C664 C 0.08218 0.05286 0.46893 0.0
C665 C 0.0612 0.02412 0.46234 0.0
C666 C 0.08951 1.00516 0.45453 0.0
C667 C 0.13679 0.01549 0.45311 0.0
H668 H 0.08359 0.40983 0.6899 0.0
H669 H 0.95127 0.41557 0.70712 0.0
H670 H 0.08608 0.48024 0.6889 0.0
H671 H 0.95407 0.48624 0.70639 0.0
H672 H 0.95139 0.6105 0.69321 0.0
H673 H 0.94763 0.54004 0.69427 0.0
H674 H 0.09788 0.53598 0.69992 0.0
H675 H 0.10151 0.60642 0.69858 0.0
C676 C 0.05525 0.42622 0.69357 0.0
C677 C 1.0173 0.40719 0.69862 0.0
C678 C 0.0567 0.46663 0.69303 0.0
C679 C 1.02043 0.48907 0.69762 0.0
C680 C 0.98231 0.46995 0.70263 0.0
C681 C 0.98067 0.42945 0.70307 0.0
C682 C 0.9835 0.59452 0.69477 0.0
C683 C 0.02677 0.61396 0.6958 0.0
C684 C 0.98138 0.5541 0.6954 0.0
C685 C 1.02246 0.53218 0.69715 0.0
C686 C 0.06565 0.55179 0.69834 0.0
C687 C 0.06779 0.59217 0.69761 0.0
H688 H 0.30701 0.08791 0.36041 0.0
H689 H 0.2467 0.20261 0.36101 0.0
H690 H 0.30792 0.08681 0.38047 0.0
H691 H 0.24649 0.20139 0.38092 0.0
H692 H 0.29789 0.20768 0.41566 0.0
H693 H 0.29975 0.20521 0.39576 0.0
H694 H 0.26046 0.0842 0.39677 0.0
H695 H 0.25981 0.0867 0.41682 0.0
C696 C 0.29347 0.11268 0.36483 0.0
C697 C 0.27726 0.14551 0.35913 0.0
C698 C 0.29391 0.11208 0.37633 0.0
C699 C 0.27782 0.14421 0.38236 0.0
C700 C 0.26041 0.17653 0.37659 0.0
C701 C 0.26036 0.17723 0.36516 0.0
C702 C 0.28956 0.18057 0.41164 0.0
C703 C 0.27825 0.1475 0.41781 0.0
C704 C 0.29045 0.17913 0.40021 0.0
C705 C 0.27953 0.14465 0.3946 0.0
C706 C 0.26939 0.1112 0.40079 0.0
C707 C 0.26894 0.11259 0.41228 0.0
H708 H 0.93473 0.71924 0.60723 0.0
H709 H 0.88986 0.83836 0.61024 0.0
H710 H 0.92401 0.71016 0.62682 0.0
H711 H 0.87756 0.82896 0.62982 0.0
H712 H 0.93542 0.81303 0.66506 0.0
H713 H 0.92711 0.82236 0.64541 0.0
H714 H 0.87292 0.70581 0.64219 0.0
H715 H 0.88277 0.69607 0.66185 0.0
C716 C 0.92149 0.74326 0.61203 0.0
C717 C 0.91369 0.77966 0.60717 0.0
C718 C 0.91509 0.73801 0.62329 0.0
C719 C 0.90036 0.76895 0.62997 0.0
C720 C 0.88991 0.80471 0.62498 0.0
C721 C 0.89666 0.81004 0.61373 0.0
C722 C 0.92101 0.78958 0.6602 0.0
C723 C 0.91027 0.75365 0.66503 0.0
C724 C 0.91599 0.79499 0.6489 0.0
C725 C 0.89974 0.76471 0.64215 0.0
C726 C 0.88646 0.72951 0.64709 0.0
C727 C 0.8918 0.72401 0.65838 0.0
H728 H 0.31533 0.32275 0.85988 0.0
H729 H 0.25145 0.43632 0.85991 0.0
H730 H 0.31282 0.32151 0.87979 0.0
H731 H 0.24885 0.43506 0.87989 0.0
H732 H 0.29867 0.43357 0.91602 0.0
H733 H 0.29946 0.43667 0.89605 0.0
H734 H 0.25635 0.3167 0.89451 0.0
H735 H 0.2557 0.31362 0.91443 0.0
C736 C 0.30035 0.34734 0.86411 0.0
C737 C 0.28343 0.37956 0.85824 0.0
C738 C 0.29888 0.34662 0.87556 0.0
C739 C 0.28038 0.37809 0.88146 0.0
C740 C 0.26383 0.41051 0.87561 0.0
C741 C 0.26534 0.41123 0.86414 0.0
C742 C 0.28886 0.40799 0.91143 0.0
C743 C 0.27744 0.37325 0.91686 0.0
C744 C 0.28933 0.40976 0.89996 0.0
C745 C 0.27833 0.37685 0.89366 0.0
C746 C 0.266 0.34238 0.8991 0.0
C747 C 0.26559 0.3406 0.91054 0.0
H748 H 0.64934 0.74146 0.10552 0.0
H749 H 0.55622 0.83813 0.11129 0.0
H750 H 0.67262 0.74226 0.12494 0.0
H751 H 0.57965 0.83923 0.13047 0.0
H752 H 0.65086 0.85182 0.16256 0.0
H753 H 0.65012 0.85134 0.14262 0.0
H754 H 0.62663 0.72774 0.14283 0.0
H755 H 0.62733 0.72803 0.16289 0.0
C756 C 0.63467 0.76334 0.11088 0.0
C757 C 0.60092 0.7897 0.10692 0.0
C758 C 0.64772 0.76362 0.12198 0.0
C759 C 0.628 0.79084 0.12921 0.0
C760 C 0.59588 0.81819 0.12509 0.0
C761 C 0.58226 0.81744 0.11411 0.0
C762 C 0.6464 0.82435 0.1584 0.0
C763 C 0.63836 0.79004 0.16434 0.0
C764 C 0.64592 0.82414 0.14696 0.0
C765 C 0.63771 0.78961 0.14118 0.0
C766 C 0.63321 0.75478 0.14708 0.0
C767 C 0.63343 0.75499 0.15857 0.0
H768 H 0.87255 0.64462 0.86116 0.0
H769 H 0.72362 0.62692 0.8562 0.0
H770 H 0.86131 0.64196 0.88095 0.0
H771 H 0.71225 0.62402 0.87612 0.0
H772 H 0.71131 0.67362 0.91196 0.0
H773 H 0.71948 0.67141 0.89202 0.0
H774 H 0.83785 0.59387 0.89545 0.0
H775 H 0.82992 0.59637 0.91538 0.0
C776 C 0.83736 0.6402 0.86431 0.0
C777 C 0.79889 0.63625 0.85713 0.0
C778 C 0.831 0.6383 0.87565 0.0
C779 C 0.78591 0.63279 0.88009 0.0
C780 C 0.74737 0.62853 0.87292 0.0
C781 C 0.75388 0.62991 0.86155 0.0
C782 C 0.73911 0.65618 0.90845 0.0
C783 C 0.77013 0.63532 0.91525 0.0
C784 C 0.74347 0.65459 0.89704 0.0
C785 C 0.77932 0.6325 0.89217 0.0
C786 C 0.81006 0.61135 0.89896 0.0
C787 C 0.80533 0.61256 0.91037 0.0
H788 H 0.4233 0.31063 0.16792 0.0
H789 H 0.37887 0.19132 0.16496 0.0
H790 H 0.41411 0.31907 0.14822 0.0
H791 H 0.36817 0.20007 0.1453 0.0
H792 H 0.42781 0.21461 0.11032 0.0
H793 H 0.41909 0.20636 0.12998 0.0
H794 H 0.3638 0.32267 0.13254 0.0
H795 H 0.37394 0.33135 0.11285 0.0
C796 C 0.41053 0.28643 0.1631 0.0
C797 C 0.40235 0.25017 0.16801 0.0
C798 C 0.40502 0.29131 0.15178 0.0
C799 C 0.39085 0.26013 0.1451 0.0
C800 C 0.38012 0.2245 0.15013 0.0
C801 C 0.38595 0.21954 0.16143 0.0
C802 C 0.41313 0.23828 0.11503 0.0
C803 C 0.402 0.27378 0.11 0.0
C804 C 0.40785 0.23346 0.12634 0.0
C805 C 0.39103 0.26394 0.13292 0.0
C806 C 0.37767 0.29881 0.12778 0.0
C807 C 0.38315 0.30368 0.11646 0.0
H808 H 0.69173 0.87668 0.36126 0.0
H809 H 0.83471 0.91581 0.35684 0.0
H810 H 0.70089 0.88169 0.3811 0.0
H811 H 0.84408 0.92085 0.37679 0.0
H812 H 0.8532 0.86546 0.41208 0.0
H813 H 0.84554 0.87018 0.39218 0.0
H814 H 0.71467 0.93225 0.39602 0.0
H815 H 0.72242 0.92743 0.41599 0.0
C816 C 0.72509 0.88648 0.36455 0.0
C817 C 0.76267 0.89555 0.35753 0.0
C818 C 0.73019 0.88971 0.3759 0.0
C819 C 0.7732 0.9016 0.38049 0.0
C820 C 0.81059 0.91141 0.37347 0.0
C821 C 0.80521 0.90876 0.36208 0.0
C822 C 0.82285 0.88013 0.40867 0.0
C823 C 0.78818 0.89579 0.41557 0.0
C824 C 0.81873 0.88321 0.39729 0.0
C825 C 0.77952 0.90157 0.39256 0.0
C826 C 0.74518 0.91779 0.39946 0.0
C827 C 0.74968 0.91522 0.41086 0.0
H828 H 0.07541 0.19639 0.66263 0.0
H829 H 0.15217 0.29998 0.67131 0.0
H830 H 0.0935 0.20734 0.64334 0.0
H831 H 0.16963 0.31138 0.65188 0.0
H832 H 0.09892 0.34164 0.617 0.0
H833 H 0.10988 0.32883 0.63651 0.0
H834 H 0.16022 0.21387 0.62904 0.0
H835 H 0.14993 0.2269 0.60943 0.0
C836 C 0.09701 0.22108 0.66042 0.0
C837 C 0.11219 0.24743 0.66845 0.0
C838 C 0.1076 0.22722 0.64938 0.0
C839 C 0.13286 0.26027 0.64611 0.0
C840 C 0.15004 0.2857 0.65419 0.0
C841 C 0.14024 0.27908 0.66529 0.0
C842 C 0.11351 0.314 0.6195 0.0
C843 C 0.12328 0.2852 0.6117 0.0
C844 C 0.12003 0.30675 0.63067 0.0
C845 C 0.13568 0.27029 0.63429 0.0
C846 C 0.14797 0.24219 0.62646 0.0
C847 C 0.14229 0.24972 0.61525 0.0
H848 H 0.30834 0.11632 0.27373 0.0
H849 H 0.26763 0.23536 0.27903 0.0
H850 H 0.33468 0.13292 0.25525 0.0
H851 H 0.29295 0.25178 0.26052 0.0
H852 H 0.39618 0.27291 0.2319 0.0
H853 H 0.36705 0.257 0.25013 0.0
H854 H 0.30138 0.15361 0.23729 0.0
H855 H 0.33081 0.16934 0.21903 0.0
C856 C 0.30514 0.14602 0.27097 0.0
C857 C 0.28587 0.17449 0.27787 0.0
C858 C 0.31973 0.15546 0.26034 0.0
C859 C 0.31577 0.19366 0.2564 0.0
C860 C 0.29676 0.22214 0.26332 0.0
C861 C 0.28186 0.21265 0.2739 0.0
C862 C 0.3752 0.24694 0.23293 0.0
C863 C 0.36586 0.22241 0.22399 0.0
C864 C 0.35838 0.23788 0.24339 0.0
C865 C 0.33207 0.20394 0.24518 0.0
C866 C 0.32205 0.17972 0.23621 0.0
C867 C 0.33858 0.18893 0.22572 0.0
H868 H 0.81856 0.91439 0.50188 0.0
H869 H 0.79884 0.7927 0.49496 0.0
H870 H 0.84375 0.89828 0.52047 0.0
H871 H 0.82242 0.77674 0.5136 0.0
H872 H 0.92163 0.7616 0.54309 0.0
H873 H 0.89336 0.77711 0.52476 0.0
H874 H 0.813 0.87265 0.53784 0.0
H875 H 0.84192 0.8575 0.55622 0.0
C876 C 0.81963 0.88423 0.5043 0.0
C877 C 0.8067 0.85487 0.49689 0.0
C878 C 0.83352 0.87501 0.515 0.0
C879 C 0.83502 0.83621 0.51854 0.0
C880 C 0.82206 0.80689 0.51113 0.0
C881 C 0.80806 0.8161 0.50046 0.0
C882 C 0.89766 0.78576 0.54209 0.0
C883 C 0.88411 0.80833 0.55114 0.0
C884 C 0.88129 0.79456 0.53157 0.0
C885 C 0.85101 0.8262 0.52982 0.0
C886 C 0.83679 0.84839 0.53889 0.0
C887 C 0.85306 0.8395 0.54944 0.0
H888 H 0.2291 0.34815 0.71858 0.0
H889 H 0.13532 0.26776 0.73475 0.0
H890 H 0.26109 0.36739 0.73636 0.0
H891 H 0.16763 0.2867 0.75244 0.0
H892 H 0.19781 0.36258 0.78252 0.0
H893 H 0.16705 0.34341 0.76462 0.0
H894 H 0.30838 0.34201 0.75165 0.0
H895 H 0.33891 0.36219 0.76941 0.0
C896 C 0.2156 0.33433 0.7259 0.0
C897 C 0.17959 0.30645 0.72522 0.0
C898 C 0.23401 0.34529 0.73609 0.0
C899 C 0.21669 0.32875 0.74583 0.0
C900 C 0.18123 0.30045 0.74512 0.0
C901 C 0.16299 0.28938 0.73495 0.0
C902 C 0.22225 0.35846 0.77583 0.0
C903 C 0.27085 0.36379 0.77744 0.0
C904 C 0.2047 0.3471 0.7656 0.0
C905 C 0.2353 0.34105 0.7567 0.0
C906 C 0.28382 0.34669 0.75829 0.0
C907 C 0.30137 0.35784 0.76853 0.0
H908 H 0.67496 0.68064 0.98668 0.0
H909 H 0.79979 0.65919 1.00596 0.0
H910 H 0.63394 0.70265 1.00307 0.0
H911 H 0.75875 0.68014 1.0224 0.0
H912 H 0.68407 0.75169 0.04858 0.0
H913 H 0.72652 0.73387 0.03193 0.0
H914 H 0.60105 0.67821 1.01941 0.0
H915 H 0.55856 0.69723 0.03576 0.0
C916 C 0.6935 0.68041 0.99444 0.0
C917 C 0.74059 0.66823 0.99501 0.0
C918 C 0.67002 0.69291 1.00386 0.0
C919 C 0.69291 0.69309 1.01412 0.0
C920 C 0.74017 0.6811 1.01464 0.0
C921 C 0.76373 0.66898 1.00521 0.0
C922 C 0.66567 0.73568 0.04225 0.0
C923 C 0.61793 0.72603 0.04348 0.0
C924 C 0.69001 0.72529 0.03271 0.0
C925 C 0.66723 0.70471 1.02425 0.0
C926 C 0.61958 0.69477 1.0256 0.0
C927 C 0.59524 0.70546 0.03505 0.0
H928 H 0.45904 0.24619 0.03644 0.0
H929 H 0.36842 0.32073 0.05542 0.0
H930 H 0.41843 0.26586 1.0197 0.0
H931 H 0.32811 0.34101 0.03852 0.0
H932 H 0.31973 0.39887 1.00297 0.0
H933 H 0.35491 0.37894 1.0205 0.0
H934 H 0.33367 0.25893 1.01185 0.0
H935 H 0.29836 0.27879 0.99445 0.0
C936 C 0.43027 0.26667 0.03704 0.0
C937 C 0.41681 0.28185 0.04724 0.0
C938 C 0.40699 0.27784 0.02745 0.0
C939 C 0.37025 0.305 0.02782 0.0
C940 C 0.35653 0.32017 0.03802 0.0
C941 C 0.37929 0.30836 0.04767 0.0
C942 C 0.32267 0.36829 1.00484 0.0
C943 C 0.30635 0.34037 0.99736 0.0
C944 C 0.34234 0.35692 1.01489 0.0
C945 C 0.34687 0.31741 1.01752 0.0
C946 C 0.33065 0.28957 1.01002 0.0
C947 C 0.31028 0.30093 1.00009 0.0
H948 H 0.78468 0.89592 0.26979 0.0
H949 H 0.70949 0.79287 0.27931 0.0
H950 H 0.76885 0.88176 0.25053 0.0
H951 H 0.69055 0.77964 0.26023 0.0
H952 H 0.68898 0.74569 0.22502 0.0
H953 H 0.7165 0.75842 0.24358 0.0
H954 H 0.71334 0.88166 0.23691 0.0
H955 H 0.68925 0.86838 0.21817 0.0
C956 C 0.76417 0.87049 0.26771 0.0
C957 C 0.74836 0.84542 0.27597 0.0
C958 C 0.75482 0.86234 0.25668 0.0
C959 C 0.72837 0.82938 0.25368 0.0
C960 C 0.7121 0.80468 0.26207 0.0
C961 C 0.7225 0.81237 0.27305 0.0
C962 C 0.69505 0.77542 0.22751 0.0
C963 C 0.68714 0.80601 0.22015 0.0
C964 C 0.71028 0.78287 0.23821 0.0
C965 C 0.71661 0.82122 0.24193 0.0
C966 C 0.70972 0.85172 0.23441 0.0
C967 C 0.69569 0.84416 0.22363 0.0
H968 H 0.26803 0.25203 0.49399 0.0
H969 H 0.2574 0.13273 0.50437 0.0
H970 H 0.23333 0.27301 0.51129 0.0
H971 H 0.22248 0.15379 0.52173 0.0
H972 H 0.20025 0.21391 0.55564 0.0
H973 H 0.24365 0.19427 0.53916 0.0
H974 H 0.15096 0.26431 0.51927 0.0
H975 H 0.10753 0.28347 0.53558 0.0
C976 C 0.25882 0.23032 0.50003 0.0
C977 C 0.26535 0.19071 0.49781 0.0
C978 C 0.2387 0.24232 0.5099 0.0
C979 C 0.22521 0.21503 0.51785 0.0
C980 C 0.23288 0.17546 0.51578 0.0
C981 C 0.25241 0.1634 0.50582 0.0
C982 C 0.18956 0.22537 0.54775 0.0
C983 C 0.15051 0.25022 0.54689 0.0
C984 C 0.21414 0.21394 0.53833 0.0
C985 C 0.20065 0.2278 0.52795 0.0
C986 C 0.16241 0.25343 0.52717 0.0
C987 C 0.13743 0.26426 0.53651 0.0
H988 H 0.92085 0.77294 0.72922 0.0
H989 H 0.82734 0.68476 0.71656 0.0
H990 H 0.89336 0.75972 0.74769 0.0
H991 H 0.79895 0.6721 0.7351 0.0
H992 H 0.80682 0.62787 0.77079 0.0
H993 H 0.82805 0.64316 0.75196 0.0
H994 H 0.82701 0.76524 0.75977 0.0
H995 H 0.80785 0.74992 0.7787 0.0
C996 C 0.89392 0.75106 0.73035 0.0
C997 C 0.87645 0.72981 0.72139 0.0
C998 C 0.87795 0.74361 0.74096 0.0
C999 C 0.84402 0.71474 0.74291 0.0
C1000 C 0.82561 0.69415 0.73392 0.0
C1001 C 0.84161 0.70163 0.72327 0.0
C1002 C 0.81148 0.65796 0.76854 0.0
C1003 C 0.80586 0.6876 0.77634 0.0
C1004 C 0.82303 0.66677 0.75767 0.0
C1005 C 0.82926 0.70545 0.75433 0.0
C1006 C 0.823 0.7351 0.76208 0.0
C1007 C 0.8115 0.7263 0.77294 0.0
loop_
_geom_bond_atom_site_label_1
_geom_bond_atom_site_label_2
_geom_bond_distance
_geom_bond_site_symmetry_2
_ccdc_geom_bond_type
Cu0 N1 1.999 . S
Cu0 O6 1.974 . S
Cu0 N11 1.985 . S
Cu0 O20 1.959 . S
N1 Cu0 1.999 . S
N1 C3 1.263 . S
N1 C5 1.389 . S
N2 C3 1.358 . S
N2 C4 1.400 . S
C3 N1 1.263 . S
C3 N2 1.358 . S
C3 H9 0.930 . S
C4 N2 1.400 . S
C4 C5 1.351 . S
C4 H21 0.930 . S
C5 N1 1.389 . S
C5 C4 1.351 . S
C5 H10 0.930 . S
O6 Cu0 1.974 . S
O6 C16 1.282 . S
C7 O8 1.261 . S
C7 O20 1.251 . S
O8 C7 1.261 . S
H9 C3 0.930 . S
H10 C5 0.930 . S
N11 Cu0 1.985 . S
N11 C13 1.335 . S
N11 C14 1.390 . S
N12 C13 1.345 . S
N12 C15 1.336 . S
C13 N11 1.335 . S
C13 N12 1.345 . S
C13 H18 0.930 . S
C14 N11 1.390 . S
C14 C15 1.346 . S
C14 H19 0.930 . S
C15 N12 1.336 . S
C15 C14 1.346 . S
C15 H22 0.929 . S
C16 O6 1.282 . S
C16 O17 1.216 . S
O17 C16 1.216 . S
H18 C13 0.930 . S
H19 C14 0.930 . S
O20 Cu0 1.959 . S
O20 C7 1.251 . S
H21 C4 0.930 . S
H22 C15 0.929 . S
Cu23 N24 1.999 . S
Cu23 O29 1.974 . S
Cu23 N34 1.985 . S
Cu23 O43 1.959 . S
N24 Cu23 1.999 . S
N24 C26 1.263 . S
N24 C28 1.377 1_655 S
N25 C26 1.358 . S
N25 C27 1.400 . S
C26 N24 1.263 . S
C26 N25 1.358 . S
C26 H32 0.930 . S
C27 N25 1.400 . S
C27 C28 1.350 1_655 S
C27 H44 0.930 1_655 S
C28 N24 1.377 1_455 S
C28 C27 1.350 1_455 S
C28 H33 0.942 . S
O29 Cu23 1.974 . S
O29 C39 1.282 . S
C30 O31 1.261 . S
C30 O43 1.251 . S
O31 C30 1.261 . S
H32 C26 0.930 . S
H33 C28 0.942 . S
N34 Cu23 1.985 . S
N34 C36 1.335 . S
N34 C37 1.390 . S
N35 C36 1.345 . S
N35 C38 1.336 . S
C36 N34 1.335 . S
C36 N35 1.345 . S
C36 H41 0.930 . S
C37 N34 1.390 . S
C37 C38 1.346 . S
C37 H42 0.930 . S
C38 N35 1.336 . S
C38 C37 1.346 . S
C38 H45 0.929 . S
C39 O29 1.282 . S
C39 O40 1.216 . S
O40 C39 1.216 . S
H41 C36 0.930 . S
H42 C37 0.930 . S
O43 Cu23 1.959 . S
O43 C30 1.251 . S
H44 C27 0.930 1_455 S
H45 C38 0.929 . S
Cu46 N47 1.999 . S
Cu46 O52 1.974 . S
Cu46 N57 1.985 . S
Cu46 O66 1.959 . S
N47 Cu46 1.999 . S
N47 C49 1.263 . S
N47 C51 1.389 . S
N48 C49 1.358 . S
N48 C50 1.400 . S
C49 N47 1.263 . S
C49 N48 1.358 . S
C49 H55 0.930 . S
C50 N48 1.400 . S
C50 C51 1.351 . S
C50 H67 0.930 . S
C51 N47 1.389 . S
C51 C50 1.351 . S
C51 H56 0.930 . S
O52 Cu46 1.974 . S
O52 C62 1.282 . S
C53 O54 1.261 . S
C53 O66 1.251 . S
O54 C53 1.261 . S
H55 C49 0.930 . S
H56 C51 0.930 . S
N57 Cu46 1.985 . S
N57 C59 1.335 . S
N57 C60 1.390 . S
N58 C59 1.345 . S
N58 C61 1.336 . S
C59 N57 1.335 . S
C59 N58 1.345 . S
C59 H64 0.930 . S
C60 N57 1.390 . S
C60 C61 1.346 . S
C60 H65 0.930 . S
C61 N58 1.336 . S
C61 C60 1.346 . S
C61 H68 0.929 . S
C62 O52 1.282 . S
C62 O63 1.216 . S
O63 C62 1.216 . S
H64 C59 0.930 . S
H65 C60 0.930 . S
O66 Cu46 1.959 . S
O66 C53 1.251 . S
H67 C50 0.930 . S
H68 C61 0.929 . S
Cu69 N70 1.999 . S
Cu69 O75 1.974 . S
Cu69 N80 1.985 . S
Cu69 O89 1.959 . S
N70 Cu69 1.999 . S
N70 C72 1.263 . S
N70 C74 1.389 . S
N71 C72 1.358 . S
N71 C73 1.400 . S
C72 N70 1.263 . S
C72 N71 1.358 . S
C72 H78 0.930 . S
C73 N71 1.400 . S
C73 C74 1.351 . S
C73 H90 0.930 . S
C74 N70 1.389 . S
C74 C73 1.351 . S
C74 H79 0.930 . S
O75 Cu69 1.974 . S
O75 C85 1.282 . S
C76 O77 1.261 . S
C76 O89 1.251 . S
O77 C76 1.261 . S
H78 C72 0.930 . S
H79 C74 0.930 . S
N80 Cu69 1.985 . S
N80 C82 1.335 . S
N80 C83 1.390 . S
N81 C82 1.345 . S
N81 C84 1.336 . S
C82 N80 1.335 . S
C82 N81 1.345 . S
C82 H87 0.930 . S
C83 N80 1.390 . S
C83 C84 1.346 . S
C83 H88 0.930 . S
C84 N81 1.336 . S
C84 C83 1.346 . S
C84 H91 0.929 . S
C85 O75 1.282 . S
C85 O86 1.216 . S
O86 C85 1.216 . S
H87 C82 0.930 . S
H88 C83 0.930 . S
O89 Cu69 1.959 . S
O89 C76 1.251 . S
H90 C73 0.930 . S
H91 C84 0.929 . S
Cu92 N93 1.999 . S
Cu92 O98 1.974 . S
Cu92 N103 1.985 . S
Cu92 O112 1.959 . S
N93 Cu92 1.999 . S
N93 C95 1.263 . S
N93 C97 1.389 . S
N94 C95 1.358 . S
N94 C96 1.400 . S
C95 N93 1.263 . S
C95 N94 1.358 . S
C95 H101 0.930 . S
C96 N94 1.400 . S
C96 C97 1.351 . S
C96 H113 0.930 . S
C97 N93 1.389 . S
C97 C96 1.351 . S
C97 H102 0.930 . S
O98 Cu92 1.974 . S
O98 C108 1.282 . S
C99 O100 1.261 . S
C99 O112 1.251 . S
O100 C99 1.261 . S
H101 C95 0.930 . S
H102 C97 0.930 . S
N103 Cu92 1.985 . S
N103 C105 1.335 . S
N103 C106 1.390 . S
N104 C105 1.345 . S
N104 C107 1.336 . S
C105 N103 1.335 . S
C105 N104 1.345 . S
C105 H110 0.930 . S
C106 N103 1.390 . S
C106 C107 1.346 . S
C106 H111 0.930 . S
C107 N104 1.336 . S
C107 C106 1.346 . S
C107 H114 0.929 . S
C108 O98 1.282 . S
C108 O109 1.216 . S
O109 C108 1.216 . S
H110 C105 0.930 . S
H111 C106 0.930 . S
O112 Cu92 1.959 . S
O112 C99 1.251 . S
H113 C96 0.930 . S
H114 C107 0.929 . S
Cu115 N116 1.999 . S
Cu115 O121 1.974 . S
Cu115 N126 1.985 . S
Cu115 O135 1.959 . S
N116 Cu115 1.999 . S
N116 C118 1.263 . S
N116 C120 1.389 . S
N117 C118 1.358 . S
N117 C119 1.400 . S
C118 N116 1.263 . S
C118 N117 1.358 . S
C118 H124 0.930 . S
C119 N117 1.400 . S
C119 C120 1.351 . S
C119 H136 0.930 . S
C120 N116 1.389 . S
C120 C119 1.351 . S
C120 H125 0.930 . S
O121 Cu115 1.974 . S
O121 C131 1.282 . S
C122 O123 1.261 . S
C122 O135 1.251 . S
O123 C122 1.261 . S
H124 C118 0.930 . S
H125 C120 0.930 . S
N126 Cu115 1.985 . S
N126 C128 1.335 . S
N126 C129 1.390 . S
N127 C128 1.345 . S
N127 C130 1.336 . S
C128 N126 1.335 . S
C128 N127 1.345 . S
C128 H133 0.930 . S
C129 N126 1.390 . S
C129 C130 1.346 . S
C129 H134 0.930 . S
C130 N127 1.336 . S
C130 C129 1.346 . S
C130 H137 0.929 . S
C131 O121 1.282 . S
C131 O132 1.216 . S
O132 C131 1.216 . S
H133 C128 0.930 . S
H134 C129 0.930 . S
O135 Cu115 1.959 . S
O135 C122 1.251 . S
H136 C119 0.930 . S
H137 C130 0.929 . S
Cu138 N139 1.999 . S
Cu138 O144 1.974 . S
Cu138 N149 1.985 . S
Cu138 O158 1.959 . S
N139 Cu138 1.999 . S
N139 C141 1.263 . S
N139 C143 1.389 . S
N140 C141 1.358 . S
N140 C142 1.400 . S
C141 N139 1.263 . S
C141 N140 1.358 . S
C141 H147 0.930 . S
C142 N140 1.400 . S
C142 C143 1.351 . S
C142 H159 0.930 . S
C143 N139 1.389 . S
C143 C142 1.351 . S
C143 H148 0.930 . S
O144 Cu138 1.974 . S
O144 C154 1.282 . S
C145 O146 1.261 . S
C145 O158 1.251 . S
O146 C145 1.261 . S
H147 C141 0.930 . S
H148 C143 0.930 . S
N149 Cu138 1.985 . S
N149 C151 1.335 . S
N149 C152 1.390 . S
N150 C151 1.345 . S
N150 C153 1.336 . S
C151 N149 1.335 . S
C151 N150 1.345 . S
C151 H156 0.930 . S
C152 N149 1.390 . S
C152 C153 1.346 . S
C152 H157 0.930 . S
C153 N150 1.336 . S
C153 C152 1.346 . S
C153 H160 0.929 . S
C154 O144 1.282 . S
C154 O155 1.216 . S
O155 C154 1.216 . S
H156 C151 0.930 . S
H157 C152 0.930 . S
O158 Cu138 1.959 . S
O158 C145 1.251 . S
H159 C142 0.930 . S
H160 C153 0.929 . S
Cu161 N162 1.999 . S
Cu161 O167 1.974 . S
Cu161 N172 1.985 . S
Cu161 O181 1.959 . S
N162 Cu161 1.999 . S
N162 C164 1.263 . S
N162 C166 1.377 1_655 S
N163 C164 1.358 . S
N163 C165 1.400 . S
C164 N162 1.263 . S
C164 N163 1.358 . S
C164 H170 0.930 . S
C165 N163 1.400 . S
C165 C166 1.350 1_655 S
C165 H182 0.930 1_655 S
C166 N162 1.377 1_455 S
C166 C165 1.350 1_455 S
C166 H171 0.941 . S
O167 Cu161 1.974 . S
O167 C177 1.282 . S
C168 O169 1.261 . S
C168 O181 1.251 . S
O169 C168 1.261 . S
H170 C164 0.930 . S
H171 C166 0.941 . S
N172 Cu161 1.985 . S
N172 C174 1.335 . S
N172 C175 1.390 . S
N173 C174 1.345 . S
N173 C176 1.336 . S
C174 N172 1.335 . S
C174 N173 1.345 . S
C174 H179 0.930 . S
C175 N172 1.390 . S
C175 C176 1.346 . S
C175 H180 0.930 . S
C176 N173 1.336 . S
C176 C175 1.346 . S
C176 H183 0.929 . S
C177 O167 1.282 . S
C177 O178 1.216 . S
O178 C177 1.216 . S
H179 C174 0.930 . S
H180 C175 0.930 . S
O181 Cu161 1.959 . S
O181 C168 1.251 . S
H182 C165 0.930 1_455 S
H183 C176 0.929 . S
Cu184 N185 1.999 . S
Cu184 O190 1.974 . S
Cu184 N195 1.985 . S
Cu184 O204 1.959 . S
N185 Cu184 1.999 . S
N185 C187 1.263 . S
N185 C189 1.389 . S
N186 C187 1.358 . S
N186 C188 1.400 . S
C187 N185 1.263 . S
C187 N186 1.358 . S
C187 H193 0.930 . S
C188 N186 1.400 . S
C188 C189 1.351 . S
C188 H205 0.930 . S
C189 N185 1.389 . S
C189 C188 1.351 . S
C189 H194 0.930 . S
O190 Cu184 1.974 . S
O190 C200 1.282 . S
C191 O192 1.261 . S
C191 O204 1.251 . S
O192 C191 1.261 . S
H193 C187 0.930 . S
H194 C189 0.930 . S
N195 Cu184 1.985 . S
N195 C197 1.335 . S
N195 C198 1.390 . S
N196 C197 1.345 . S
N196 C199 1.336 . S
C197 N195 1.335 . S
C197 N196 1.345 . S
C197 H202 0.930 . S
C198 N195 1.390 . S
C198 C199 1.346 . S
C198 H203 0.930 . S
C199 N196 1.336 . S
C199 C198 1.346 . S
C199 H206 0.929 . S
C200 O190 1.282 . S
C200 O201 1.216 . S
O201 C200 1.216 . S
H202 C197 0.930 . S
H203 C198 0.930 . S
O204 Cu184 1.959 . S
O204 C191 1.251 . S
H205 C188 0.930 . S
H206 C199 0.929 . S
Cu207 N208 1.999 . S
Cu207 O213 1.974 . S
Cu207 N218 1.985 . S
Cu207 O227 1.959 . S
N208 Cu207 1.999 . S
N208 C210 1.263 . S
N208 C212 1.389 . S
N209 C210 1.358 . S
N209 C211 1.400 . S
C210 N208 1.263 . S
C210 N209 1.358 . S
C210 H216 0.930 . S
C211 N209 1.400 . S
C211 C212 1.351 . S
C211 H228 0.930 . S
C212 N208 1.389 . S
C212 C211 1.351 . S
C212 H217 0.930 . S
O213 Cu207 1.974 . S
O213 C223 1.282 . S
C214 O215 1.261 . S
C214 O227 1.251 . S
O215 C214 1.261 . S
H216 C210 0.930 . S
H217 C212 0.930 . S
N218 Cu207 1.985 . S
N218 C220 1.335 . S
N218 C221 1.390 . S
N219 C220 1.345 . S
N219 C222 1.336 . S
C220 N218 1.335 . S
C220 N219 1.345 . S
C220 H225 0.930 . S
C221 N218 1.390 . S
C221 C222 1.346 . S
C221 H226 0.930 . S
C222 N219 1.336 . S
C222 C221 1.346 . S
C222 H229 0.929 . S
C223 O213 1.282 . S
C223 O224 1.216 . S
O224 C223 1.216 . S
H225 C220 0.930 . S
H226 C221 0.930 . S
O227 Cu207 1.959 . S
O227 C214 1.251 . S
H228 C211 0.930 . S
H229 C222 0.929 . S
Cu230 N231 1.999 . S
Cu230 O236 1.974 . S
Cu230 N241 1.985 . S
Cu230 O250 1.959 . S
N231 Cu230 1.999 . S
N231 C233 1.263 . S
N231 C235 1.389 . S
N232 C233 1.358 . S
N232 C234 1.400 . S
C233 N231 1.263 . S
C233 N232 1.358 . S
C233 H239 0.930 . S
C234 N232 1.400 . S
C234 C235 1.351 . S
C234 H251 0.930 . S
C235 N231 1.389 . S
C235 C234 1.351 . S
C235 H240 0.930 . S
O236 Cu230 1.974 . S
O236 C246 1.282 . S
C237 O238 1.261 . S
C237 O250 1.251 . S
O238 C237 1.261 . S
H239 C233 0.930 . S
H240 C235 0.930 . S
N241 Cu230 1.985 . S
N241 C243 1.335 . S
N241 C244 1.390 . S
N242 C243 1.345 . S
N242 C245 1.336 . S
C243 N241 1.335 . S
C243 N242 1.345 . S
C243 H248 0.930 . S
C244 N241 1.390 . S
C244 C245 1.346 . S
C244 H249 0.930 . S
C245 N242 1.336 . S
C245 C244 1.346 . S
C245 H252 0.929 . S
C246 O236 1.282 . S
C246 O247 1.216 . S
O247 C246 1.216 . S
H248 C243 0.930 . S
H249 C244 0.930 . S
O250 Cu230 1.959 . S
O250 C237 1.251 . S
H251 C234 0.930 . S
H252 C245 0.929 . S
Cu253 N254 1.999 . S
Cu253 O259 1.974 . S
Cu253 N264 1.985 . S
Cu253 O273 1.959 . S
N254 Cu253 1.999 . S
N254 C256 1.263 . S
N254 C258 1.377 1_455 S
N255 C256 1.358 . S
N255 C257 1.400 . S
C256 N254 1.263 . S
C256 N255 1.358 . S
C256 H262 0.930 . S
C257 N255 1.400 . S
C257 C258 1.350 1_455 S
C257 H274 0.930 1_455 S
C258 N254 1.377 1_655 S
C258 C257 1.350 1_655 S
C258 H263 0.941 . S
O259 Cu253 1.974 . S
O259 C269 1.282 . S
C260 O261 1.261 . S
C260 O273 1.251 . S
O261 C260 1.261 . S
H262 C256 0.930 . S
H263 C258 0.941 . S
N264 Cu253 1.985 . S
N264 C266 1.335 . S
N264 C267 1.390 . S
N265 C266 1.345 . S
N265 C268 1.336 . S
C266 N264 1.335 . S
C266 N265 1.345 . S
C266 H271 0.930 . S
C267 N264 1.390 . S
C267 C268 1.346 . S
C267 H272 0.930 . S
C268 N265 1.336 . S
C268 C267 1.346 . S
C268 H275 0.929 . S
C269 O259 1.282 . S
C269 O270 1.216 . S
O270 C269 1.216 . S
H271 C266 0.930 . S
H272 C267 0.930 . S
O273 Cu253 1.959 . S
O273 C260 1.251 . S
H274 C257 0.930 1_655 S
H275 C268 0.929 . S
Cu276 N277 1.999 . S
Cu276 O282 1.974 . S
Cu276 N287 1.985 . S
Cu276 O296 1.959 . S
N277 Cu276 1.999 . S
N277 C279 1.263 . S
N277 C281 1.389 . S
N278 C279 1.358 . S
N278 C280 1.400 . S
C279 N277 1.263 . S
C279 N278 1.358 . S
C279 H285 0.930 . S
C280 N278 1.400 . S
C280 C281 1.351 . S
C280 H297 0.930 . S
C281 N277 1.389 . S
C281 C280 1.351 . S
C281 H286 0.930 . S
O282 Cu276 1.974 . S
O282 C292 1.282 . S
C283 O284 1.261 . S
C283 O296 1.251 . S
O284 C283 1.261 . S
H285 C279 0.930 . S
H286 C281 0.930 . S
N287 Cu276 1.985 . S
N287 C289 1.335 . S
N287 C290 1.390 . S
N288 C289 1.345 . S
N288 C291 1.336 . S
C289 N287 1.335 . S
C289 N288 1.345 . S
C289 H294 0.930 . S
C290 N287 1.390 . S
C290 C291 1.346 . S
C290 H295 0.930 . S
C291 N288 1.336 . S
C291 C290 1.346 . S
C291 H298 0.929 . S
C292 O282 1.282 . S
C292 O293 1.216 . S
O293 C292 1.216 . S
H294 C289 0.930 . S
H295 C290 0.930 . S
O296 Cu276 1.959 . S
O296 C283 1.251 . S
H297 C280 0.930 . S
H298 C291 0.929 . S
Cu299 N300 1.999 . S
Cu299 O305 1.974 . S
Cu299 N310 1.985 . S
Cu299 O319 1.959 . S
N300 Cu299 1.999 . S
N300 C302 1.263 . S
N300 C304 1.378 1_455 S
N301 C302 1.358 . S
N301 C303 1.400 . S
C302 N300 1.263 . S
C302 N301 1.358 . S
C302 H308 0.930 . S
C303 N301 1.400 . S
C303 C304 1.350 1_455 S
C303 H320 0.930 1_455 S
C304 N300 1.378 1_655 S
C304 C303 1.350 1_655 S
C304 H309 0.940 . S
O305 Cu299 1.974 . S
O305 C315 1.282 . S
C306 O307 1.261 . S
C306 O319 1.251 . S
O307 C306 1.261 . S
H308 C302 0.930 . S
H309 C304 0.940 . S
N310 Cu299 1.985 . S
N310 C312 1.335 . S
N310 C313 1.390 . S
N311 C312 1.345 . S
N311 C314 1.336 . S
C312 N310 1.335 . S
C312 N311 1.345 . S
C312 H317 0.930 . S
C313 N310 1.390 . S
C313 C314 1.346 . S
C313 H318 0.930 . S
C314 N311 1.336 . S
C314 C313 1.346 . S
C314 H321 0.929 . S
C315 O305 1.282 . S
C315 O316 1.216 . S
O316 C315 1.216 . S
H317 C312 0.930 . S
H318 C313 0.930 . S
O319 Cu299 1.959 . S
O319 C306 1.251 . S
H320 C303 0.930 1_655 S
H321 C314 0.929 . S
Cu322 N323 1.999 . S
Cu322 O328 1.974 . S
Cu322 N333 1.985 . S
Cu322 O342 1.959 . S
N323 Cu322 1.999 . S
N323 C325 1.263 . S
N323 C327 1.389 . S
N324 C325 1.358 . S
N324 C326 1.400 . S
C325 N323 1.263 . S
C325 N324 1.358 . S
C325 H331 0.930 . S
C326 N324 1.400 . S
C326 C327 1.351 . S
C326 H343 0.930 . S
C327 N323 1.389 . S
C327 C326 1.351 . S
C327 H332 0.930 . S
O328 Cu322 1.974 . S
O328 C338 1.282 . S
C329 O330 1.261 . S
C329 O342 1.251 . S
O330 C329 1.261 . S
H331 C325 0.930 . S
H332 C327 0.930 . S
N333 Cu322 1.985 . S
N333 C335 1.335 . S
N333 C336 1.390 . S
N334 C335 1.345 . S
N334 C337 1.336 . S
C335 N333 1.335 . S
C335 N334 1.345 . S
C335 H340 0.930 . S
C336 N333 1.390 . S
C336 C337 1.346 . S
C336 H341 0.930 . S
C337 N334 1.336 . S
C337 C336 1.346 . S
C337 H344 0.929 . S
C338 O328 1.282 . S
C338 O339 1.216 . S
O339 C338 1.216 . S
H340 C335 0.930 . S
H341 C336 0.930 . S
O342 Cu322 1.959 . S
O342 C329 1.251 . S
H343 C326 0.930 . S
H344 C337 0.929 . S
Cu345 N346 1.999 . S
Cu345 O351 1.974 . S
Cu345 N356 1.985 . S
Cu345 O365 1.959 . S
N346 Cu345 1.999 . S
N346 C348 1.263 . S
N346 C350 1.389 . S
N347 C348 1.358 . S
N347 C349 1.400 . S
C348 N346 1.263 . S
C348 N347 1.358 . S
C348 H354 0.930 . S
C349 N347 1.400 . S
C349 C350 1.351 . S
C349 H366 0.930 . S
C350 N346 1.389 . S
C350 C349 1.351 . S
C350 H355 0.930 . S
O351 Cu345 1.974 . S
O351 C361 1.282 . S
C352 O353 1.261 . S
C352 O365 1.251 . S
O353 C352 1.261 . S
H354 C348 0.930 . S
H355 C350 0.930 . S
N356 Cu345 1.985 . S
N356 C358 1.335 . S
N356 C359 1.390 . S
N357 C358 1.345 . S
N357 C360 1.336 . S
C358 N356 1.335 . S
C358 N357 1.345 . S
C358 H363 0.930 . S
C359 N356 1.390 . S
C359 C360 1.346 . S
C359 H364 0.930 . S
C360 N357 1.336 . S
C360 C359 1.346 . S
C360 H367 0.929 . S
C361 O351 1.282 . S
C361 O362 1.216 . S
O362 C361 1.216 . S
H363 C358 0.930 . S
H364 C359 0.930 . S
O365 Cu345 1.959 . S
O365 C352 1.251 . S
H366 C349 0.930 . S
H367 C360 0.929 . S
H368 C376 0.950 . S
H369 C381 0.950 1_545 S
H370 C378 0.950 . S
H371 C380 0.950 . S
H372 C382 0.950 . S
H373 C384 0.950 . S
H374 C386 0.950 . S
H375 C387 0.950 1_565 S
C376 H368 0.950 . S
C376 C377 1.386 . S
C376 C378 1.391 . S
C377 C376 1.386 . S
C377 C381 1.393 . S
C378 H370 0.950 . S
C378 C376 1.391 . S
C378 C379 1.400 . S
C379 C378 1.400 . S
C379 C380 1.398 1_565 S
C379 C385 1.491 1_665 S
C380 H371 0.950 . S
C380 C379 1.398 1_545 S
C380 C381 1.391 1_545 S
C381 H369 0.950 1_565 S
C381 C377 1.393 . S
C381 C380 1.391 1_565 S
C382 H372 0.950 . S
C382 C383 1.386 . S
C382 C384 1.391 . S
C383 C382 1.386 . S
C383 C387 1.393 . S
C384 H373 0.950 . S
C384 C382 1.391 . S
C384 C385 1.400 . S
C385 C379 1.491 1_445 S
C385 C384 1.400 . S
C385 C386 1.398 1_545 S
C386 H374 0.950 . S
C386 C385 1.398 1_565 S
C386 C387 1.391 1_565 S
C387 H375 0.950 1_545 S
C387 C383 1.393 . S
C387 C386 1.391 1_545 S
H388 C396 0.942 1_455 S
H389 C401 0.950 . S
H390 C398 0.950 . S
H391 C400 0.950 . S
H392 C402 0.942 1_655 S
H393 C404 0.950 . S
H394 C406 0.950 . S
H395 C407 0.950 . S
C396 H388 0.942 1_655 S
C396 C397 1.386 . S
C396 C398 1.391 1_655 S
C397 C396 1.386 . S
C397 C401 1.393 . S
C398 H390 0.950 . S
C398 C396 1.391 1_455 S
C398 C399 1.400 1_455 S
C399 C398 1.400 1_655 S
C399 C400 1.398 . S
C399 C405 1.491 1_655 S
C400 H391 0.950 . S
C400 C399 1.398 . S
C400 C401 1.391 . S
C401 H389 0.950 . S
C401 C397 1.393 . S
C401 C400 1.391 . S
C402 H392 0.942 1_455 S
C402 C403 1.386 . S
C402 C404 1.391 1_455 S
C403 C402 1.386 . S
C403 C407 1.393 . S
C404 H393 0.950 . S
C404 C402 1.391 1_655 S
C404 C405 1.400 1_655 S
C405 C399 1.491 1_455 S
C405 C404 1.400 1_455 S
C405 C406 1.398 . S
C406 H394 0.950 . S
C406 C405 1.398 . S
C406 C407 1.391 . S
C407 H395 0.950 . S
C407 C403 1.393 . S
C407 C406 1.391 . S
H408 C416 0.950 . S
H409 C421 0.950 . S
H410 C418 0.950 . S
H411 C420 0.950 . S
H412 C422 0.950 . S
H413 C424 0.950 . S
H414 C426 0.950 . S
H415 C427 0.950 . S
C416 H408 0.950 . S
C416 C417 1.386 . S
C416 C418 1.391 . S
C417 C416 1.386 . S
C417 C421 1.393 . S
C418 H410 0.950 . S
C418 C416 1.391 . S
C418 C419 1.400 . S
C419 C418 1.400 . S
C419 C420 1.398 . S
C419 C425 1.491 . S
C420 H411 0.950 . S
C420 C419 1.398 . S
C420 C421 1.391 . S
C421 H409 0.950 . S
C421 C417 1.393 . S
C421 C420 1.391 . S
C422 H412 0.950 . S
C422 C423 1.386 . S
C422 C424 1.391 . S
C423 C422 1.386 . S
C423 C427 1.393 . S
C424 H413 0.950 . S
C424 C422 1.391 . S
C424 C425 1.400 . S
C425 C419 1.491 . S
C425 C424 1.400 . S
C425 C426 1.398 . S
C426 H414 0.950 . S
C426 C425 1.398 . S
C426 C427 1.391 . S
C427 H415 0.950 . S
C427 C423 1.393 . S
C427 C426 1.391 . S
H428 C436 0.950 . S
H429 C441 0.950 . S
H430 C438 0.950 . S
H431 C440 0.950 . S
H432 C442 0.950 . S
H433 C444 0.950 . S
H434 C446 0.950 . S
H435 C447 0.950 . S
C436 H428 0.950 . S
C436 C437 1.386 . S
C436 C438 1.391 . S
C437 C436 1.386 . S
C437 C441 1.393 . S
C438 H430 0.950 . S
C438 C436 1.391 . S
C438 C439 1.400 . S
C439 C438 1.400 . S
C439 C440 1.398 . S
C439 C445 1.491 1_545 S
C440 H431 0.950 . S
C440 C439 1.398 . S
C440 C441 1.391 . S
C441 H429 0.950 . S
C441 C437 1.393 . S
C441 C440 1.391 . S
C442 H432 0.950 . S
C442 C443 1.386 . S
C442 C444 1.391 . S
C443 C442 1.386 . S
C443 C447 1.393 . S
C444 H433 0.950 . S
C444 C442 1.391 . S
C444 C445 1.400 . S
C445 C439 1.491 1_565 S
C445 C444 1.400 . S
C445 C446 1.398 . S
C446 H434 0.950 . S
C446 C445 1.398 . S
C446 C447 1.391 . S
C447 H435 0.950 . S
C447 C443 1.393 . S
C447 C446 1.391 . S
H448 C456 0.950 . S
H449 C461 0.950 . S
H450 C458 0.950 . S
H451 C460 0.950 . S
H452 C462 0.950 . S
H453 C464 0.950 . S
H454 C466 0.950 . S
H455 C467 0.950 . S
C456 H448 0.950 . S
C456 C457 1.386 . S
C456 C458 1.391 . S
C457 C456 1.386 . S
C457 C461 1.393 . S
C458 H450 0.950 . S
C458 C456 1.391 . S
C458 C459 1.400 . S
C459 C458 1.400 . S
C459 C460 1.398 . S
C459 C465 1.491 1_455 S
C460 H451 0.950 . S
C460 C459 1.398 . S
C460 C461 1.391 . S
C461 H449 0.950 . S
C461 C457 1.393 . S
C461 C460 1.391 . S
C462 H452 0.950 . S
C462 C463 1.386 . S
C462 C464 1.391 . S
C463 C462 1.386 . S
C463 C467 1.393 . S
C464 H453 0.950 . S
C464 C462 1.391 . S
C464 C465 1.400 . S
C465 C459 1.491 1_655 S
C465 C464 1.400 . S
C465 C466 1.398 . S
C466 H454 0.950 . S
C466 C465 1.398 . S
C466 C467 1.391 . S
C467 H455 0.950 . S
C467 C463 1.393 . S
C467 C466 1.391 . S
H468 C476 0.950 . S
H469 C481 0.950 . S
H470 C478 0.950 . S
H471 C480 0.950 . S
H472 C482 0.950 . S
H473 C484 0.950 . S
H474 C486 0.950 . S
H475 C487 0.950 . S
C476 H468 0.950 . S
C476 C477 1.386 . S
C476 C478 1.391 . S
C477 C476 1.386 . S
C477 C481 1.393 . S
C478 H470 0.950 . S
C478 C476 1.391 . S
C478 C479 1.400 . S
C479 C478 1.400 . S
C479 C480 1.398 . S
C479 C485 1.491 . S
C480 H471 0.950 . S
C480 C479 1.398 . S
C480 C481 1.391 . S
C481 H469 0.950 . S
C481 C477 1.393 . S
C481 C480 1.391 . S
C482 H472 0.950 . S
C482 C483 1.386 . S
C482 C484 1.391 . S
C483 C482 1.386 . S
C483 C487 1.393 . S
C484 H473 0.950 . S
C484 C482 1.391 . S
C484 C485 1.400 . S
C485 C479 1.491 . S
C485 C484 1.400 . S
C485 C486 1.398 . S
C486 H474 0.950 . S
C486 C485 1.398 . S
C486 C487 1.391 . S
C487 H475 0.950 . S
C487 C483 1.393 . S
C487 C486 1.391 . S
H488 C496 0.950 . S
H489 C501 0.950 1_565 S
H490 C498 0.950 . S
H491 C500 0.950 . S
H492 C502 0.950 . S
H493 C504 0.950 . S
H494 C506 0.950 . S
H495 C507 0.950 1_545 S
C496 H488 0.950 . S
C496 C497 1.386 . S
C496 C498 1.391 . S
C497 C496 1.386 . S
C497 C501 1.393 . S
C498 H490 0.950 . S
C498 C496 1.391 . S
C498 C499 1.400 . S
C499 C498 1.400 . S
C499 C500 1.398 1_545 S
C499 C505 1.491 1_545 S
C500 H491 0.950 . S
C500 C499 1.398 1_565 S
C500 C501 1.391 1_565 S
C501 H489 0.950 1_545 S
C501 C497 1.393 . S
C501 C500 1.391 1_545 S
C502 H492 0.950 . S
C502 C503 1.386 . S
C502 C504 1.391 . S
C503 C502 1.386 . S
C503 C507 1.393 . S
C504 H493 0.950 . S
C504 C502 1.391 . S
C504 C505 1.400 . S
C505 C499 1.491 1_565 S
C505 C504 1.400 . S
C505 C506 1.398 1_565 S
C506 H494 0.950 . S
C506 C505 1.398 1_545 S
C506 C507 1.391 1_545 S
C507 H495 0.950 1_565 S
C507 C503 1.393 . S
C507 C506 1.391 1_565 S
H508 C516 0.950 . S
H509 C521 0.950 1_655 S
H510 C518 0.950 . S
H511 C520 0.950 . S
H512 C522 0.950 . S
H513 C524 0.950 . S
H514 C526 0.950 . S
H515 C527 0.950 1_455 S
C516 H508 0.950 . S
C516 C517 1.386 . S
C516 C518 1.391 . S
C517 C516 1.386 . S
C517 C521 1.393 . S
C518 H510 0.950 . S
C518 C516 1.391 . S
C518 C519 1.400 . S
C519 C518 1.400 . S
C519 C520 1.398 1_455 S
C519 C525 1.491 1_445 S
C520 H511 0.950 . S
C520 C519 1.398 1_655 S
C520 C521 1.391 1_655 S
C521 H509 0.950 1_455 S
C521 C517 1.393 . S
C521 C520 1.391 1_455 S
C522 H512 0.950 . S
C522 C523 1.386 . S
C522 C524 1.391 . S
C523 C522 1.386 . S
C523 C527 1.393 . S
C524 H513 0.950 . S
C524 C522 1.391 . S
C524 C525 1.400 . S
C525 C519 1.491 1_665 S
C525 C524 1.400 . S
C525 C526 1.398 1_655 S
C526 H514 0.950 . S
C526 C525 1.398 1_455 S
C526 C527 1.391 1_455 S
C527 H515 0.950 1_655 S
C527 C523 1.393 . S
C527 C526 1.391 1_655 S
H528 C536 0.950 1_545 S
H529 C541 0.950 . S
H530 C538 0.950 . S
H531 C540 0.950 . S
H532 C542 0.950 1_565 S
H533 C544 0.950 . S
H534 C546 0.950 . S
H535 C547 0.950 . S
C536 H528 0.950 1_565 S
C536 C537 1.386 . S
C536 C538 1.391 1_565 S
C537 C536 1.386 . S
C537 C541 1.393 . S
C538 H530 0.950 . S
C538 C536 1.391 1_545 S
C538 C539 1.400 1_545 S
C539 C538 1.400 1_565 S
C539 C540 1.398 . S
C539 C545 1.491 1_565 S
C540 H531 0.950 . S
C540 C539 1.398 . S
C540 C541 1.391 . S
C541 H529 0.950 . S
C541 C537 1.393 . S
C541 C540 1.391 . S
C542 H532 0.950 1_545 S
C542 C543 1.386 . S
C542 C544 1.391 1_545 S
C543 C542 1.386 . S
C543 C547 1.393 . S
C544 H533 0.950 . S
C544 C542 1.391 1_565 S
C544 C545 1.400 1_565 S
C545 C539 1.491 1_545 S
C545 C544 1.400 1_545 S
C545 C546 1.398 . S
C546 H534 0.950 . S
C546 C545 1.398 . S
C546 C547 1.391 . S
C547 H535 0.950 . S
C547 C543 1.393 . S
C547 C546 1.391 . S
H548 C556 0.950 . S
H549 C561 0.950 . S
H550 C558 0.950 . S
H551 C560 0.950 1_455 S
H552 C562 0.950 . S
H553 C564 0.950 . S
H554 C566 0.950 1_655 S
H555 C567 0.950 . S
C556 H548 0.950 . S
C556 C557 1.386 . S
C556 C558 1.391 . S
C557 C556 1.386 . S
C557 C561 1.393 . S
C558 H550 0.950 . S
C558 C556 1.391 . S
C558 C559 1.400 . S
C559 C558 1.400 . S
C559 C560 1.398 . S
C559 C565 1.491 1_665 S
C560 H551 0.950 1_655 S
C560 C559 1.398 . S
C560 C561 1.391 . S
C561 H549 0.950 . S
C561 C557 1.393 . S
C561 C560 1.391 . S
C562 H552 0.950 . S
C562 C563 1.386 . S
C562 C564 1.391 . S
C563 C562 1.386 . S
C563 C567 1.393 . S
C564 H553 0.950 . S
C564 C562 1.391 . S
C564 C565 1.400 . S
C565 C559 1.491 1_445 S
C565 C564 1.400 . S
C565 C566 1.398 . S
C566 H554 0.950 1_455 S
C566 C565 1.398 . S
C566 C567 1.391 . S
C567 H555 0.950 . S
C567 C563 1.393 . S
C567 C566 1.391 . S
H568 C576 0.950 . S
H569 C581 0.950 . S
H570 C578 0.950 . S
H571 C580 0.950 . S
H572 C582 0.950 . S
H573 C584 0.950 . S
H574 C586 0.950 . S
H575 C587 0.950 . S
C576 H568 0.950 . S
C576 C577 1.386 . S
C576 C578 1.391 . S
C577 C576 1.386 . S
C577 C581 1.393 . S
C578 H570 0.950 . S
C578 C576 1.391 . S
C578 C579 1.400 . S
C579 C578 1.400 . S
C579 C580 1.398 . S
C579 C585 1.491 1_455 S
C580 H571 0.950 . S
C580 C579 1.398 . S
C580 C581 1.391 . S
C581 H569 0.950 . S
C581 C577 1.393 . S
C581 C580 1.391 . S
C582 H572 0.950 . S
C582 C583 1.386 . S
C582 C584 1.391 . S
C583 C582 1.386 . S
C583 C587 1.393 . S
C584 H573 0.950 . S
C584 C582 1.391 . S
C584 C585 1.400 . S
C585 C579 1.491 1_655 S
C585 C584 1.400 . S
C585 C586 1.398 . S
C586 H574 0.950 . S
C586 C585 1.398 . S
C586 C587 1.391 . S
C587 H575 0.950 . S
C587 C583 1.393 . S
C587 C586 1.391 . S
H588 C596 0.950 . S
H589 C601 0.950 . S
H590 C598 0.950 . S
H591 C600 0.950 . S
H592 C602 0.950 . S
H593 C604 0.950 . S
H594 C606 0.950 . S
H595 C607 0.950 . S
C596 H588 0.950 . S
C596 C597 1.386 . S
C596 C598 1.391 . S
C597 C596 1.386 . S
C597 C601 1.393 . S
C598 H590 0.950 . S
C598 C596 1.391 . S
C598 C599 1.400 . S
C599 C598 1.400 . S
C599 C600 1.398 . S
C599 C605 1.491 . S
C600 H591 0.950 . S
C600 C599 1.398 . S
C600 C601 1.391 . S
C601 H589 0.950 . S
C601 C597 1.393 . S
C601 C600 1.391 . S
C602 H592 0.950 . S
C602 C603 1.386 . S
C602 C604 1.391 . S
C603 C602 1.386 . S
C603 C607 1.393 . S
C604 H593 0.950 . S
C604 C602 1.391 . S
C604 C605 1.400 . S
C605 C599 1.491 . S
C605 C604 1.400 . S
C605 C606 1.398 . S
C606 H594 0.950 . S
C606 C605 1.398 . S
C606 C607 1.391 . S
C607 H595 0.950 . S
C607 C603 1.393 . S
C607 C606 1.391 . S
H608 C616 0.950 . S
H609 C621 0.950 . S
H610 C618 0.950 . S
H611 C620 0.950 . S
H612 C622 0.950 . S
H613 C624 0.950 . S
H614 C626 0.950 . S
H615 C627 0.950 . S
C616 H608 0.950 . S
C616 C617 1.386 . S
C616 C618 1.391 . S
C617 C616 1.386 . S
C617 C621 1.393 . S
C618 H610 0.950 . S
C618 C616 1.391 . S
C618 C619 1.400 . S
C619 C618 1.400 . S
C619 C620 1.398 . S
C619 C625 1.491 . S
C620 H611 0.950 . S
C620 C619 1.398 . S
C620 C621 1.391 . S
C621 H609 0.950 . S
C621 C617 1.393 . S
C621 C620 1.391 . S
C622 H612 0.950 . S
C622 C623 1.386 . S
C622 C624 1.391 . S
C623 C622 1.386 . S
C623 C627 1.393 . S
C624 H613 0.950 . S
C624 C622 1.391 . S
C624 C625 1.400 . S
C625 C619 1.491 . S
C625 C624 1.400 . S
C625 C626 1.398 . S
C626 H614 0.950 . S
C626 C625 1.398 . S
C626 C627 1.391 . S
C627 H615 0.950 . S
C627 C623 1.393 . S
C627 C626 1.391 . S
H628 C636 0.950 . S
H629 C641 0.950 . S
H630 C638 0.950 . S
H631 C640 0.950 . S
H632 C642 0.950 . S
H633 C644 0.950 . S
H634 C646 0.950 . S
H635 C647 0.950 . S
C636 H628 0.950 . S
C636 C637 1.386 . S
C636 C638 1.391 . S
C637 C636 1.386 . S
C637 C641 1.393 . S
C638 H630 0.950 . S
C638 C636 1.391 . S
C638 C639 1.400 . S
C639 C638 1.400 . S
C639 C640 1.398 . S
C639 C645 1.491 1_565 S
C640 H631 0.950 . S
C640 C639 1.398 . S
C640 C641 1.391 . S
C641 H629 0.950 . S
C641 C637 1.393 . S
C641 C640 1.391 . S
C642 H632 0.950 . S
C642 C643 1.386 . S
C642 C644 1.391 . S
C643 C642 1.386 . S
C643 C647 1.393 . S
C644 H633 0.950 . S
C644 C642 1.391 . S
C644 C645 1.400 . S
C645 C639 1.491 1_545 S
C645 C644 1.400 . S
C645 C646 1.398 . S
C646 H634 0.950 . S
C646 C645 1.398 . S
C646 C647 1.391 . S
C647 H635 0.950 . S
C647 C643 1.393 . S
C647 C646 1.391 . S
H648 C656 0.950 . S
H649 C661 0.950 1_545 S
H650 C658 0.950 . S
H651 C660 0.950 . S
H652 C662 0.950 . S
H653 C664 0.950 . S
H654 C666 0.950 . S
H655 C667 0.950 1_565 S
C656 H648 0.950 . S
C656 C657 1.386 . S
C656 C658 1.391 . S
C657 C656 1.386 . S
C657 C661 1.393 . S
C658 H650 0.950 . S
C658 C656 1.391 . S
C658 C659 1.400 . S
C659 C658 1.400 . S
C659 C660 1.398 1_565 S
C659 C665 1.491 1_665 S
C660 H651 0.950 . S
C660 C659 1.398 1_545 S
C660 C661 1.391 1_545 S
C661 H649 0.950 1_565 S
C661 C657 1.393 . S
C661 C660 1.391 1_565 S
C662 H652 0.950 . S
C662 C663 1.386 . S
C662 C664 1.391 . S
C663 C662 1.386 . S
C663 C667 1.393 . S
C664 H653 0.950 . S
C664 C662 1.391 . S
C664 C665 1.400 . S
C665 C659 1.491 1_445 S
C665 C664 1.400 . S
C665 C666 1.398 1_545 S
C666 H654 0.950 . S
C666 C665 1.398 1_565 S
C666 C667 1.391 1_565 S
C667 H655 0.950 1_545 S
C667 C663 1.393 . S
C667 C666 1.391 1_545 S
H668 C676 0.950 . S
H669 C681 0.938 1_655 S
H670 C678 0.950 . S
H671 C680 0.950 . S
H672 C682 0.950 . S
H673 C684 0.950 . S
H674 C686 0.950 . S
H675 C687 0.938 1_455 S
C676 H668 0.950 . S
C676 C677 1.386 . S
C676 C678 1.391 . S
C677 C676 1.386 . S
C677 C681 1.413 . S
C678 H670 0.950 . S
C678 C676 1.391 . S
C678 C679 1.400 . S
C679 C678 1.400 . S
C679 C680 1.398 1_455 S
C679 C685 1.491 1_455 S
C680 H671 0.950 . S
C680 C679 1.398 1_655 S
C680 C681 1.382 1_655 S
C681 H669 0.938 1_455 S
C681 C677 1.413 . S
C681 C680 1.382 1_455 S
C682 H672 0.950 . S
C682 C683 1.386 . S
C682 C684 1.391 . S
C683 C682 1.386 . S
C683 C687 1.413 . S
C684 H673 0.950 . S
C684 C682 1.391 . S
C684 C685 1.400 . S
C685 C679 1.491 1_655 S
C685 C684 1.400 . S
C685 C686 1.398 1_655 S
C686 H674 0.950 . S
C686 C685 1.398 1_455 S
C686 C687 1.383 1_455 S
C687 H675 0.938 1_655 S
C687 C683 1.413 . S
C687 C686 1.383 1_655 S
H688 C696 0.950 1_565 S
H689 C701 0.950 . S
H690 C698 0.950 1_565 S
H691 C700 0.950 . S
H692 C702 0.950 . S
H693 C704 0.950 . S
H694 C706 0.950 1_565 S
H695 C707 0.950 1_565 S
C696 H688 0.950 1_545 S
C696 C697 1.386 . S
C696 C698 1.391 . S
C697 C696 1.386 . S
C697 C701 1.393 . S
C698 H690 0.950 1_545 S
C698 C696 1.391 . S
C698 C699 1.400 . S
C699 C698 1.400 . S
C699 C700 1.398 . S
C699 C705 1.491 . S
C700 H691 0.950 . S
C700 C699 1.398 . S
C700 C701 1.391 . S
C701 H689 0.950 . S
C701 C697 1.393 . S
C701 C700 1.391 . S
C702 H692 0.950 . S
C702 C703 1.386 . S
C702 C704 1.391 . S
C703 C702 1.386 . S
C703 C707 1.393 . S
C704 H693 0.950 . S
C704 C702 1.391 . S
C704 C705 1.400 . S
C705 C699 1.491 . S
C705 C704 1.400 . S
C705 C706 1.398 . S
C706 H694 0.950 1_545 S
C706 C705 1.398 . S
C706 C707 1.391 . S
C707 H695 0.950 1_545 S
C707 C703 1.393 . S
C707 C706 1.391 . S
H708 C716 0.950 . S
H709 C721 0.950 . S
H710 C718 0.950 . S
H711 C720 0.950 . S
H712 C722 0.950 . S
H713 C724 0.950 . S
H714 C726 0.950 . S
H715 C727 0.950 . S
C716 H708 0.950 . S
C716 C717 1.386 . S
C716 C718 1.391 . S
C717 C716 1.386 . S
C717 C721 1.393 . S
C718 H710 0.950 . S
C718 C716 1.391 . S
C718 C719 1.400 . S
C719 C718 1.400 . S
C719 C720 1.398 . S
C719 C725 1.491 . S
C720 H711 0.950 . S
C720 C719 1.398 . S
C720 C721 1.391 . S
C721 H709 0.950 . S
C721 C717 1.393 . S
C721 C720 1.391 . S
C722 H712 0.950 . S
C722 C723 1.386 . S
C722 C724 1.391 . S
C723 C722 1.386 . S
C723 C727 1.393 . S
C724 H713 0.950 . S
C724 C722 1.391 . S
C724 C725 1.400 . S
C725 C719 1.491 . S
C725 C724 1.400 . S
C725 C726 1.398 . S
C726 H714 0.950 . S
C726 C725 1.398 . S
C726 C727 1.391 . S
C727 H715 0.950 . S
C727 C723 1.393 . S
C727 C726 1.391 . S
H728 C736 0.950 . S
H729 C741 0.950 . S
H730 C738 0.950 . S
H731 C740 0.950 . S
H732 C742 0.950 . S
H733 C744 0.950 . S
H734 C746 0.950 . S
H735 C747 0.950 . S
C736 H728 0.950 . S
C736 C737 1.386 . S
C736 C738 1.391 . S
C737 C736 1.386 . S
C737 C741 1.393 . S
C738 H730 0.950 . S
C738 C736 1.391 . S
C738 C739 1.400 . S
C739 C738 1.400 . S
C739 C740 1.398 . S
C739 C745 1.491 . S
C740 H731 0.950 . S
C740 C739 1.398 . S
C740 C741 1.391 . S
C741 H729 0.950 . S
C741 C737 1.393 . S
C741 C740 1.391 . S
C742 H732 0.950 . S
C742 C743 1.386 . S
C742 C744 1.391 . S
C743 C742 1.386 . S
C743 C747 1.393 . S
C744 H733 0.950 . S
C744 C742 1.391 . S
C744 C745 1.400 . S
C745 C739 1.491 . S
C745 C744 1.400 . S
C745 C746 1.398 . S
C746 H734 0.950 . S
C746 C745 1.398 . S
C746 C747 1.391 . S
C747 H735 0.950 . S
C747 C743 1.393 . S
C747 C746 1.391 . S
H748 C756 0.950 . S
H749 C761 0.950 . S
H750 C758 0.950 . S
H751 C760 0.950 . S
H752 C762 0.950 . S
H753 C764 0.950 . S
H754 C766 0.950 . S
H755 C767 0.950 . S
C756 H748 0.950 . S
C756 C757 1.386 . S
C756 C758 1.391 . S
C757 C756 1.386 . S
C757 C761 1.393 . S
C758 H750 0.950 . S
C758 C756 1.391 . S
C758 C759 1.400 . S
C759 C758 1.400 . S
C759 C760 1.398 . S
C759 C765 1.491 . S
C760 H751 0.950 . S
C760 C759 1.398 . S
C760 C761 1.391 . S
C761 H749 0.950 . S
C761 C757 1.393 . S
C761 C760 1.391 . S
C762 H752 0.950 . S
C762 C763 1.386 . S
C762 C764 1.391 . S
C763 C762 1.386 . S
C763 C767 1.393 . S
C764 H753 0.950 . S
C764 C762 1.391 . S
C764 C765 1.400 . S
C765 C759 1.491 . S
C765 C764 1.400 . S
C765 C766 1.398 . S
C766 H754 0.950 . S
C766 C765 1.398 . S
C766 C767 1.391 . S
C767 H755 0.950 . S
C767 C763 1.393 . S
C767 C766 1.391 . S
H768 C776 0.950 . S
H769 C781 0.950 . S
H770 C778 0.950 . S
H771 C780 0.950 . S
H772 C782 0.950 . S
H773 C784 0.950 . S
H774 C786 0.950 . S
H775 C787 0.950 . S
C776 H768 0.950 . S
C776 C777 1.386 . S
C776 C778 1.391 . S
C777 C776 1.386 . S
C777 C781 1.393 . S
C778 H770 0.950 . S
C778 C776 1.391 . S
C778 C779 1.400 . S
C779 C778 1.400 . S
C779 C780 1.398 . S
C779 C785 1.491 . S
C780 H771 0.950 . S
C780 C779 1.398 . S
C780 C781 1.391 . S
C781 H769 0.950 . S
C781 C777 1.393 . S
C781 C780 1.391 . S
C782 H772 0.950 . S
C782 C783 1.386 . S
C782 C784 1.391 . S
C783 C782 1.386 . S
C783 C787 1.393 . S
C784 H773 0.950 . S
C784 C782 1.391 . S
C784 C785 1.400 . S
C785 C779 1.491 . S
C785 C784 1.400 . S
C785 C786 1.398 . S
C786 H774 0.950 . S
C786 C785 1.398 . S
C786 C787 1.391 . S
C787 H775 0.950 . S
C787 C783 1.393 . S
C787 C786 1.391 . S
H788 C796 0.950 . S
H789 C801 0.950 . S
H790 C798 0.950 . S
H791 C800 0.950 . S
H792 C802 0.950 . S
H793 C804 0.950 . S
H794 C806 0.950 . S
H795 C807 0.950 . S
C796 H788 0.950 . S
C796 C797 1.386 . S
C796 C798 1.391 . S
C797 C796 1.386 . S
C797 C801 1.393 . S
C798 H790 0.950 . S
C798 C796 1.391 . S
C798 C799 1.400 . S
C799 C798 1.400 . S
C799 C800 1.398 . S
C799 C805 1.491 . S
C800 H791 0.950 . S
C800 C799 1.398 . S
C800 C801 1.391 . S
C801 H789 0.950 . S
C801 C797 1.393 . S
C801 C800 1.391 . S
C802 H792 0.950 . S
C802 C803 1.386 . S
C802 C804 1.391 . S
C803 C802 1.386 . S
C803 C807 1.393 . S
C804 H793 0.950 . S
C804 C802 1.391 . S
C804 C805 1.400 . S
C805 C799 1.491 . S
C805 C804 1.400 . S
C805 C806 1.398 . S
C806 H794 0.950 . S
C806 C805 1.398 . S
C806 C807 1.391 . S
C807 H795 0.950 . S
C807 C803 1.393 . S
C807 C806 1.391 . S
H808 C816 0.950 . S
H809 C821 0.950 . S
H810 C818 0.950 . S
H811 C820 0.950 . S
H812 C822 0.950 . S
H813 C824 0.950 . S
H814 C826 0.950 . S
H815 C827 0.950 . S
C816 H808 0.950 . S
C816 C817 1.386 . S
C816 C818 1.391 . S
C817 C816 1.386 . S
C817 C821 1.393 . S
C818 H810 0.950 . S
C818 C816 1.391 . S
C818 C819 1.400 . S
C819 C818 1.400 . S
C819 C820 1.398 . S
C819 C825 1.491 . S
C820 H811 0.950 . S
C820 C819 1.398 . S
C820 C821 1.391 . S
C821 H809 0.950 . S
C821 C817 1.393 . S
C821 C820 1.391 . S
C822 H812 0.950 . S
C822 C823 1.386 . S
C822 C824 1.391 . S
C823 C822 1.386 . S
C823 C827 1.393 . S
C824 H813 0.950 . S
C824 C822 1.391 . S
C824 C825 1.400 . S
C825 C819 1.491 . S
C825 C824 1.400 . S
C825 C826 1.398 . S
C826 H814 0.950 . S
C826 C825 1.398 . S
C826 C827 1.391 . S
C827 H815 0.950 . S
C827 C823 1.393 . S
C827 C826 1.391 . S
H828 C836 0.950 1_655 S
H829 C841 0.950 . S
H830 C838 0.950 1_655 S
H831 C840 0.950 . S
H832 C842 0.950 . S
H833 C844 0.950 . S
H834 C846 0.950 1_655 S
H835 C847 0.950 1_655 S
C836 H828 0.950 1_455 S
C836 C837 1.386 . S
C836 C838 1.391 . S
C837 C836 1.386 . S
C837 C841 1.393 . S
C838 H830 0.950 1_455 S
C838 C836 1.391 . S
C838 C839 1.400 . S
C839 C838 1.400 . S
C839 C840 1.398 . S
C839 C845 1.491 . S
C840 H831 0.950 . S
C840 C839 1.398 . S
C840 C841 1.391 . S
C841 H829 0.950 . S
C841 C837 1.393 . S
C841 C840 1.391 . S
C842 H832 0.950 . S
C842 C843 1.386 . S
C842 C844 1.391 . S
C843 C842 1.386 . S
C843 C847 1.393 . S
C844 H833 0.950 . S
C844 C842 1.391 . S
C844 C845 1.400 . S
C845 C839 1.491 . S
C845 C844 1.400 . S
C845 C846 1.398 . S
C846 H834 0.950 1_455 S
C846 C845 1.398 . S
C846 C847 1.391 . S
C847 H835 0.950 1_455 S
C847 C843 1.393 . S
C847 C846 1.391 . S
H848 C856 0.950 . S
H849 C861 0.950 . S
H850 C858 0.950 . S
H851 C860 0.950 . S
H852 C862 0.950 . S
H853 C864 0.950 . S
H854 C866 0.950 . S
H855 C867 0.950 . S
C856 H848 0.950 . S
C856 C857 1.386 . S
C856 C858 1.391 . S
C857 C856 1.386 . S
C857 C861 1.393 . S
C858 H850 0.950 . S
C858 C856 1.391 . S
C858 C859 1.400 . S
C859 C858 1.400 . S
C859 C860 1.398 . S
C859 C865 1.491 . S
C860 H851 0.950 . S
C860 C859 1.398 . S
C860 C861 1.391 . S
C861 H849 0.950 . S
C861 C857 1.393 . S
C861 C860 1.391 . S
C862 H852 0.950 . S
C862 C863 1.386 . S
C862 C864 1.391 . S
C863 C862 1.386 . S
C863 C867 1.393 . S
C864 H853 0.950 . S
C864 C862 1.391 . S
C864 C865 1.400 . S
C865 C859 1.491 . S
C865 C864 1.400 . S
C865 C866 1.398 . S
C866 H854 0.950 . S
C866 C865 1.398 . S
C866 C867 1.391 . S
C867 H855 0.950 . S
C867 C863 1.393 . S
C867 C866 1.391 . S
H868 C876 0.950 . S
H869 C881 0.950 . S
H870 C878 0.950 . S
H871 C880 0.950 . S
H872 C882 0.950 . S
H873 C884 0.950 . S
H874 C886 0.950 . S
H875 C887 0.950 . S
C876 H868 0.950 . S
C876 C877 1.386 . S
C876 C878 1.391 . S
C877 C876 1.386 . S
C877 C881 1.393 . S
C878 H870 0.950 . S
C878 C876 1.391 . S
C878 C879 1.400 . S
C879 C878 1.400 . S
C879 C880 1.398 . S
C879 C885 1.491 . S
C880 H871 0.950 . S
C880 C879 1.398 . S
C880 C881 1.391 . S
C881 H869 0.950 . S
C881 C877 1.393 . S
C881 C880 1.391 . S
C882 H872 0.950 . S
C882 C883 1.386 . S
C882 C884 1.391 . S
C883 C882 1.386 . S
C883 C887 1.393 . S
C884 H873 0.950 . S
C884 C882 1.391 . S
C884 C885 1.400 . S
C885 C879 1.491 . S
C885 C884 1.400 . S
C885 C886 1.398 . S
C886 H874 0.950 . S
C886 C885 1.398 . S
C886 C887 1.391 . S
C887 H875 0.950 . S
C887 C883 1.393 . S
C887 C886 1.391 . S
H888 C896 0.950 . S
H889 C901 0.950 . S
H890 C898 0.950 . S
H891 C900 0.950 . S
H892 C902 0.950 . S
H893 C904 0.950 . S
H894 C906 0.950 . S
H895 C907 0.950 . S
C896 H888 0.950 . S
C896 C897 1.386 . S
C896 C898 1.391 . S
C897 C896 1.386 . S
C897 C901 1.393 . S
C898 H890 0.950 . S
C898 C896 1.391 . S
C898 C899 1.400 . S
C899 C898 1.400 . S
C899 C900 1.398 . S
C899 C905 1.491 . S
C900 H891 0.950 . S
C900 C899 1.398 . S
C900 C901 1.391 . S
C901 H889 0.950 . S
C901 C897 1.393 . S
C901 C900 1.391 . S
C902 H892 0.950 . S
C902 C903 1.386 . S
C902 C904 1.391 . S
C903 C902 1.386 . S
C903 C907 1.393 . S
C904 H893 0.950 . S
C904 C902 1.391 . S
C904 C905 1.400 . S
C905 C899 1.491 . S
C905 C904 1.400 . S
C905 C906 1.398 . S
C906 H894 0.950 . S
C906 C905 1.398 . S
C906 C907 1.391 . S
C907 H895 0.950 . S
C907 C903 1.393 . S
C907 C906 1.391 . S
H908 C916 0.950 . S
H909 C921 0.950 . S
H910 C918 0.950 . S
H911 C920 0.950 . S
H912 C922 0.950 . S
H913 C924 0.950 . S
H914 C926 0.912 1_556 S
H915 C927 0.950 . S
C916 H908 0.950 . S
C916 C917 1.386 . S
C916 C918 1.391 . S
C917 C916 1.386 . S
C917 C921 1.393 . S
C918 H910 0.950 . S
C918 C916 1.391 . S
C918 C919 1.400 . S
C919 C918 1.400 . S
C919 C920 1.398 . S
C919 C925 1.491 1_556 S
C920 H911 0.950 . S
C920 C919 1.398 . S
C920 C921 1.391 . S
C921 H909 0.950 . S
C921 C917 1.393 . S
C921 C920 1.391 . S
C922 H912 0.950 . S
C922 C923 1.386 . S
C922 C924 1.391 . S
C923 C922 1.386 . S
C923 C927 1.393 . S
C924 H913 0.950 . S
C924 C922 1.391 . S
C924 C925 1.400 . S
C925 C919 1.491 1_554 S
C925 C924 1.400 . S
C925 C926 1.398 . S
C926 H914 0.912 1_554 S
C926 C925 1.398 . S
C926 C927 1.391 . S
C927 H915 0.950 . S
C927 C923 1.393 . S
C927 C926 1.391 . S
H928 C936 0.950 . S
H929 C941 0.950 . S
H930 C938 0.950 . S
H931 C940 0.900 1_556 S
H932 C942 0.950 . S
H933 C944 0.950 . S
H934 C946 0.950 . S
H935 C947 0.950 . S
C936 H928 0.950 . S
C936 C937 1.386 . S
C936 C938 1.391 . S
C937 C936 1.386 . S
C937 C941 1.393 . S
C938 H930 0.950 . S
C938 C936 1.391 . S
C938 C939 1.400 . S
C939 C938 1.400 . S
C939 C940 1.398 . S
C939 C945 1.491 1_554 S
C940 H931 0.900 1_554 S
C940 C939 1.398 . S
C940 C941 1.391 . S
C941 H929 0.950 . S
C941 C937 1.393 . S
C941 C940 1.391 . S
C942 H932 0.950 . S
C942 C943 1.386 . S
C942 C944 1.391 . S
C943 C942 1.386 . S
C943 C947 1.393 . S
C944 H933 0.950 . S
C944 C942 1.391 . S
C944 C945 1.400 . S
C945 C939 1.491 1_556 S
C945 C944 1.400 . S
C945 C946 1.398 . S
C946 H934 0.950 . S
C946 C945 1.398 . S
C946 C947 1.391 . S
C947 H935 0.950 . S
C947 C943 1.393 . S
C947 C946 1.391 . S
H948 C956 0.950 . S
H949 C961 0.950 . S
H950 C958 0.950 . S
H951 C960 0.950 . S
H952 C962 0.950 . S
H953 C964 0.950 . S
H954 C966 0.950 . S
H955 C967 0.950 . S
C956 H948 0.950 . S
C956 C957 1.386 . S
C956 C958 1.391 . S
C957 C956 1.386 . S
C957 C961 1.393 . S
C958 H950 0.950 . S
C958 C956 1.391 . S
C958 C959 1.400 . S
C959 C958 1.400 . S
C959 C960 1.398 . S
C959 C965 1.491 . S
C960 H951 0.950 . S
C960 C959 1.398 . S
C960 C961 1.391 . S
C961 H949 0.950 . S
C961 C957 1.393 . S
C961 C960 1.391 . S
C962 H952 0.950 . S
C962 C963 1.386 . S
C962 C964 1.391 . S
C963 C962 1.386 . S
C963 C967 1.393 . S
C964 H953 0.950 . S
C964 C962 1.391 . S
C964 C965 1.400 . S
C965 C959 1.491 . S
C965 C964 1.400 . S
C965 C966 1.398 . S
C966 H954 0.950 . S
C966 C965 1.398 . S
C966 C967 1.391 . S
C967 H955 0.950 . S
C967 C963 1.393 . S
C967 C966 1.391 . S
H968 C976 0.950 . S
H969 C981 0.950 . S
H970 C978 0.950 . S
H971 C980 0.950 . S
H972 C982 0.950 . S
H973 C984 0.950 . S
H974 C986 0.950 . S
H975 C987 0.950 . S
C976 H968 0.950 . S
C976 C977 1.386 . S
C976 C978 1.391 . S
C977 C976 1.386 . S
C977 C981 1.393 . S
C978 H970 0.950 . S
C978 C976 1.391 . S
C978 C979 1.400 . S
C979 C978 1.400 . S
C979 C980 1.398 . S
C979 C985 1.491 . S
C980 H971 0.950 . S
C980 C979 1.398 . S
C980 C981 1.391 . S
C981 H969 0.950 . S
C981 C977 1.393 . S
C981 C980 1.391 . S
C982 H972 0.950 . S
C982 C983 1.386 . S
C982 C984 1.391 . S
C983 C982 1.386 . S
C983 C987 1.393 . S
C984 H973 0.950 . S
C984 C982 1.391 . S
C984 C985 1.400 . S
C985 C979 1.491 . S
C985 C984 1.400 . S
C985 C986 1.398 . S
C986 H974 0.950 . S
C986 C985 1.398 . S
C986 C987 1.391 . S
C987 H975 0.950 . S
C987 C983 1.393 . S
C987 C986 1.391 . S
H988 C996 0.950 . S
H989 C1001 0.950 . S
H990 C998 0.950 . S
H991 C1000 0.950 . S
H992 C1002 0.950 . S
H993 C1004 0.950 . S
H994 C1006 0.950 . S
H995 C1007 0.950 . S
C996 H988 0.950 . S
C996 C997 1.386 . S
C996 C998 1.391 . S
C997 C996 1.386 . S
C997 C1001 1.393 . S
C998 H990 0.950 . S
C998 C996 1.391 . S
C998 C999 1.400 . S
C999 C998 1.400 . S
C999 C1000 1.398 . S
C999 C1005 1.491 . S
C1000 H991 0.950 . S
C1000 C999 1.398 . S
C1000 C1001 1.391 . S
C1001 H989 0.950 . S
C1001 C997 1.393 . S
C1001 C1000 1.391 . S
C1002 H992 0.950 . S
C1002 C1003 1.386 . S
C1002 C1004 1.391 . S
C1003 C1002 1.386 . S
C1003 C1007 1.393 . S
C1004 H993 0.950 . S
C1004 C1002 1.391 . S
C1004 C1005 1.400 . S
C1005 C999 1.491 . S
C1005 C1004 1.400 . S
C1005 C1006 1.398 . S
C1006 H994 0.950 . S
C1006 C1005 1.398 . S
C1006 C1007 1.391 . S
C1007 H995 0.950 . S
C1007 C1003 1.393 . S
C1007 C1006 1.391 . S
C377 C246 2.044 . S
C383 C16 2.048 . S
C397 N35 1.941 . S
C403 N265 1.934 . S
C417 C200 2.045 . S
C423 C62 2.051 . S
C437 N219 1.930 . S
C443 N81 1.944 . S
C457 C108 2.043 . S
C463 C338 2.045 . S
C477 N357 1.931 . S
C483 N127 1.941 . S
C497 C154 2.051 . S
C503 C292 2.058 . S
C517 N311 1.932 . S
C523 N173 1.938 . S
C537 C237 1.263 . S
C543 C7 1.256 . S
C557 N25 1.007 . S
C563 N255 1.018 . S
C577 C53 1.265 . S
C583 C191 1.260 . S
C597 N71 0.986 . S
C603 N209 1.005 . S
C617 C99 1.242 . S
C623 C329 1.245 . S
C637 N117 1.016 . S
C643 N347 1.017 . S
C657 C283 1.243 . S
C663 C145 1.248 . S
C677 N301 0.970 . S
C683 N163 0.984 . S
C697 N2 1.597 . S
C703 N140 1.593 . S
C717 C30 1.643 . S
C723 C168 1.637 . S
C737 N48 1.620 . S
C743 N94 1.622 . S
C757 C76 1.634 . S
C763 C122 1.633 . S
C777 N186 1.596 . S
C783 N324 1.616 . S
C797 C352 1.643 . S
C803 C214 1.637 . S
C817 N232 1.597 . S
C823 N278 1.618 . S
C837 C306 1.634 . S
C843 C260 1.633 . S
C857 N12 1.680 . S
C863 C361 1.669 . S
C877 N288 1.684 . S
C883 C39 1.662 . S
C897 C315 1.676 . S
C903 N58 1.681 . S
C917 N334 1.687 . S
C923 C85 1.673 . S
C937 C223 1.664 . S
C943 N104 1.682 . S
C957 N242 1.680 . S
C963 C131 1.675 . S
C977 N150 1.686 . S
C983 C269 1.660 . S
C997 C177 1.664 . S
C1003 N196 1.692 . S
