# Generated by pormake.
# Topology smm, (6)-cn, num edge types: 1
# Building blocks:
#     Node 0, Type 0, BuildingBlock: FUNLAD_clean_sbu_0, # of connection points: 6
#     Node 1, Type 0, BuildingBlock: FUNLAD_clean_sbu_0, # of connection points: 6
#     Node 2, Type 0, BuildingBlock: FUNLAD_clean_sbu_0, # of connection points: 6
#     Node 3, Type 0, BuildingBlock: FUNLAD_clean_sbu_0, # of connection points: 6
#     Node 4, Type 0, BuildingBlock: FUNLAD_clean_sbu_0, # of connection points: 6
#     Node 5, Type 0, BuildingBlock: FUNLAD_clean_sbu_0, # of connection points: 6
#     Node 6, Type 0, BuildingBlock: FUNLAD_clean_sbu_0, # of connection points: 6
#     Node 7, Type 0, BuildingBlock: FUNLAD_clean_sbu_0, # of connection points: 6
#     Node 8, Type 0, BuildingBlock: FUNLAD_clean_sbu_0, # of connection points: 6
#     Edge 9, Type (0, 0), BuildingBlock: EYOCIG_clean_linker_4, # of connection points: 2
#     Edge 10, Type (0, 0), BuildingBlock: EYOCIG_clean_linker_4, # of connection points: 2
#     Edge 11, Type (0, 0), BuildingBlock: EYOCIG_clean_linker_4, # of connection points: 2
#     Edge 12, Type (0, 0), BuildingBlock: EYOCIG_clean_linker_4, # of connection points: 2
#     Edge 13, Type (0, 0), BuildingBlock: EYOCIG_clean_linker_4, # of connection points: 2
#     Edge 14, Type (0, 0), BuildingBlock: EYOCIG_clean_linker_4, # of connection points: 2
#     Edge 15, Type (0, 0), BuildingBlock: EYOCIG_clean_linker_4, # of connection points: 2
#     Edge 16, Type (0, 0), BuildingBlock: EYOCIG_clean_linker_4, # of connection points: 2
#     Edge 17, Type (0, 0), BuildingBlock: EYOCIG_clean_linker_4, # of connection points: 2
#     Edge 18, Type (0, 0), BuildingBlock: EYOCIG_clean_linker_4, # of connection points: 2
#     Edge 19, Type (0, 0), BuildingBlock: EYOCIG_clean_linker_4, # of connection points: 2
#     Edge 20, Type (0, 0), BuildingBlock: EYOCIG_clean_linker_4, # of connection points: 2
#     Edge 21, Type (0, 0), BuildingBlock: EYOCIG_clean_linker_4, # of connection points: 2
#     Edge 22, Type (0, 0), BuildingBlock: EYOCIG_clean_linker_4, # of connection points: 2
#     Edge 23, Type (0, 0), BuildingBlock: EYOCIG_clean_linker_4, # of connection points: 2
#     Edge 24, Type (0, 0), BuildingBlock: EYOCIG_clean_linker_4, # of connection points: 2
#     Edge 25, Type (0, 0), BuildingBlock: EYOCIG_clean_linker_4, # of connection points: 2
#     Edge 26, Type (0, 0), BuildingBlock: EYOCIG_clean_linker_4, # of connection points: 2
#     Edge 27, Type (0, 0), BuildingBlock: EYOCIG_clean_linker_4, # of connection points: 2
#     Edge 28, Type (0, 0), BuildingBlock: EYOCIG_clean_linker_4, # of connection points: 2
#     Edge 29, Type (0, 0), BuildingBlock: EYOCIG_clean_linker_4, # of connection points: 2
#     Edge 30, Type (0, 0), BuildingBlock: EYOCIG_clean_linker_4, # of connection points: 2
#     Edge 31, Type (0, 0), BuildingBlock: EYOCIG_clean_linker_4, # of connection points: 2
#     Edge 32, Type (0, 0), BuildingBlock: EYOCIG_clean_linker_4, # of connection points: 2
#     Edge 33, Type (0, 0), BuildingBlock: EYOCIG_clean_linker_4, # of connection points: 2
#     Edge 34, Type (0, 0), BuildingBlock: EYOCIG_clean_linker_4, # of connection points: 2
#     Edge 35, Type (0, 0), BuildingBlock: EYOCIG_clean_linker_4, # of connection points: 2
# Relax obj value: 0.469
# Max RMSD: 0.296
# Mean RMSD: 0.294
data_MOF--net-smm--node1-FUNLAD_clean_sbu_0--edge1-EYOCIG_clean_linker_4
_symmetry_space_group_name_H-M    P1
_symmetry_Int_Tables_number       1
_symmetry_cell_setting            triclinic
loop_
_symmetry_equiv_pos_as_xyz
'x, y, z'
_cell_length_a     37.665108
_cell_length_b     37.61969
_cell_length_c     17.844988
_cell_angle_alpha  90.189149
_cell_angle_beta   90.10167
_cell_angle_gamma 120.02215
loop_
_atom_site_label
_atom_site_type_symbol
_atom_site_fract_x
_atom_site_fract_y
_atom_site_fract_z
_atom_type_partial_charge
C0 C 0.94734 0.10922 0.02791 0.0
N1 N 0.02745 0.20486 0.17894 0.0
C2 C 0.99291 0.18061 0.21904 0.0
C3 C 0.99199 0.18567 0.29566 0.0
C4 C 0.02662 0.21633 0.33173 0.0
C5 C 0.0625 0.24062 0.29083 0.0
C6 C 0.06224 0.23428 0.21322 0.0
Zn7 Zn 0.01817 0.19876 0.06582 0.0
C8 C 0.06002 0.16556 0.99207 0.0
N9 N 0.97994 0.18035 0.84064 0.0
C10 C 0.94533 0.17534 0.80647 0.0
C11 C 0.0144 0.19029 0.8005 0.0
C12 C 0.01546 0.19638 0.72396 0.0
C13 C 0.98105 0.1929 0.68807 0.0
C14 C 0.94522 0.18156 0.72897 0.0
Zn15 Zn 0.9892 0.18396 0.9538 0.0
O16 O 0.97374 0.13163 0.07751 0.0
C17 C 0.94622 0.2135 0.04709 0.0
O18 O 0.94466 0.12493 0.96745 0.0
H19 H 0.04234 0.19626 0.82803 0.0
H20 H 0.96487 0.15875 0.19142 0.0
H21 H 0.91857 0.1683 0.8395 0.0
O22 O 0.97347 0.21329 0.0873 0.0
O23 O 0.94413 0.20411 0.97765 0.0
H24 H 0.08907 0.25379 0.18022 0.0
O25 O 0.03389 0.24319 0.93214 0.0
O26 O 0.06319 0.26398 0.04177 0.0
O27 O 0.03361 0.16127 0.94241 0.0
O28 O 0.06274 0.1843 0.05234 0.0
C29 C 0.06108 0.27094 0.97226 0.0
H30 H 0.96381 0.16668 0.32605 0.0
H31 H 0.08976 0.26467 0.31797 0.0
H32 H 0.0436 0.20538 0.69357 0.0
H33 H 0.91814 0.17873 0.70196 0.0
C34 C 0.84588 0.90648 0.99205 0.0
N35 N 0.83008 0.81066 0.84147 0.0
C36 C 0.81975 0.83488 0.8012 0.0
C37 C 0.81378 0.82982 0.72455 0.0
C38 C 0.81783 0.79919 0.68863 0.0
C39 C 0.82944 0.77492 0.72973 0.0
C40 C 0.83549 0.78125 0.80736 0.0
Zn41 Zn 0.82701 0.81685 0.95453 0.0
C42 C 0.90214 0.85002 0.02839 0.0
N43 N 0.80751 0.83553 0.17952 0.0
C44 C 0.77788 0.8405 0.21345 0.0
C45 C 0.83206 0.82564 0.21989 0.0
C46 C 0.82702 0.81953 0.29641 0.0
C47 C 0.79605 0.82294 0.33204 0.0
C48 C 0.77154 0.83426 0.29091 0.0
Zn49 Zn 0.81305 0.83181 0.06642 0.0
O50 O 0.84977 0.884 0.94257 0.0
C51 C 0.74043 0.80229 0.97295 0.0
O52 O 0.82757 0.89085 0.05252 0.0
H53 H 0.85407 0.8197 0.19255 0.0
H54 H 0.81354 0.85673 0.82868 0.0
H55 H 0.75813 0.8475 0.18024 0.0
O56 O 0.76782 0.80241 0.93286 0.0
O57 O 0.74783 0.81174 0.04238 0.0
H58 H 0.84286 0.76177 0.8405 0.0
O59 O 0.79848 0.77258 0.08834 0.0
O60 O 0.80677 0.75164 0.97882 0.0
O61 O 0.88014 0.85443 0.07797 0.0
O62 O 0.886 0.83122 0.96818 0.0
C63 C 0.79781 0.74476 0.04834 0.0
H64 H 0.80457 0.8488 0.69401 0.0
H65 H 0.83271 0.75089 0.7027 0.0
H66 H 0.84618 0.81054 0.32698 0.0
H67 H 0.74725 0.83703 0.31771 0.0
C68 C 0.16087 0.06393 0.02751 0.0
N69 N 0.17644 0.98377 0.17683 0.0
C70 C 0.1869 0.01837 0.21752 0.0
C71 C 0.19284 0.01925 0.29415 0.0
C72 C 0.18862 0.9845 0.32959 0.0
C73 C 0.17689 0.94857 0.28806 0.0
C74 C 0.17088 0.94888 0.21047 0.0
Zn75 Zn 0.17952 0.99305 0.0639 0.0
C76 C 0.10434 0.95108 0.99006 0.0
N77 N 0.19902 0.03121 0.83929 0.0
C78 C 0.2287 0.06582 0.80561 0.0
C79 C 0.17438 -0.00327 0.79862 0.0
C80 C 0.1794 0.99565 0.72205 0.0
C81 C 0.21042 0.03003 0.68667 0.0
C82 C 0.23502 0.0659 0.7281 0.0
Zn83 Zn 0.1935 0.02196 0.95229 0.0
O84 O 0.15692 0.03753 0.07667 0.0
C85 C 0.26617 0.06506 0.04576 0.0
O86 O 0.17914 0.06656 0.96693 0.0
H87 H 0.15233 0.96878 0.82575 0.0
H88 H 0.19322 0.04648 0.19039 0.0
H89 H 0.24852 0.09259 0.83904 0.0
O90 O 0.23876 0.03781 0.08572 0.0
O91 O 0.25877 0.06711 0.97643 0.0
H92 H 0.1634 0.922 0.177 0.0
O93 O 0.20792 0.97722 0.92963 0.0
O94 O 0.19962 0.948 0.03883 0.0
O95 O 0.12637 0.97749 0.94066 0.0
O96 O 0.12048 0.94841 0.05009 0.0
C97 C 0.20856 0.95006 0.96928 0.0
H98 H 0.20215 0.04747 0.32503 0.0
H99 H 0.17348 0.92121 0.31473 0.0
H100 H 0.16017 0.96748 0.69124 0.0
H101 H 0.25936 0.09296 0.7015 0.0
C102 C 0.7264 0.49884 0.32472 0.0
N103 N 0.64627 0.51377 0.17361 0.0
C104 C 0.68074 0.52383 0.13343 0.0
C105 C 0.68176 0.52992 0.0569 0.0
C106 C 0.64729 0.52631 0.02104 0.0
C107 C 0.61146 0.51489 0.06199 0.0
C108 C 0.61162 0.50868 0.13949 0.0
Zn109 Zn 0.65554 0.51725 0.28676 0.0
C110 C 0.61371 0.44237 0.36048 0.0
N111 N 0.69375 0.53784 0.51194 0.0
C112 C 0.72846 0.5674 0.54621 0.0
C113 C 0.65926 0.51343 0.55205 0.0
C114 C 0.65829 0.5185 0.62866 0.0
C115 C 0.69282 0.54934 0.6647 0.0
C116 C 0.72866 0.57376 0.6238 0.0
Zn117 Zn 0.68448 0.53187 0.3988 0.0
O118 O 0.69999 0.49461 0.27509 0.0
C119 C 0.7274 0.60418 0.30554 0.0
O120 O 0.72908 0.51747 0.38511 0.0
H121 H 0.63127 0.49147 0.52444 0.0
H122 H 0.70871 0.52985 0.16093 0.0
H123 H 0.75525 0.58702 0.51321 0.0
O124 O 0.70021 0.5765 0.26532 0.0
O125 O 0.72949 0.59712 0.375 0.0
H126 H 0.58484 0.50156 0.17255 0.0
O127 O 0.63976 0.54632 0.4205 0.0
O128 O 0.61046 0.53735 0.31086 0.0
O129 O 0.6401 0.4647 0.41016 0.0
O130 O 0.61101 0.45819 0.30018 0.0
C131 C 0.61253 0.54662 0.38037 0.0
H132 H 0.7099 0.53899 0.02647 0.0
H133 H 0.58433 0.51197 0.03502 0.0
H134 H 0.63014 0.49942 0.65904 0.0
H135 H 0.75584 0.59794 0.65092 0.0
C136 C 0.51263 0.23971 0.32321 0.0
N137 N 0.49709 0.14407 0.17234 0.0
C138 C 0.48684 0.16835 0.13206 0.0
C139 C 0.48084 0.16328 0.05541 0.0
C140 C 0.48476 0.13257 0.01952 0.0
C141 C 0.4963 0.10824 0.06061 0.0
C142 C 0.5024 0.11459 0.13823 0.0
Zn143 Zn 0.49391 0.15017 0.28541 0.0
C144 C 0.56895 0.18331 0.35958 0.0
N145 N 0.47412 0.16856 0.5104 0.0
C146 C 0.44451 0.17357 0.54431 0.0
C147 C 0.49863 0.15861 0.55078 0.0
C148 C 0.49357 0.1525 0.6273 0.0
C149 C 0.46264 0.15598 0.66292 0.0
C150 C 0.43816 0.16734 0.62178 0.0
Zn151 Zn 0.47977 0.16495 0.39731 0.0
O152 O 0.51662 0.21732 0.27368 0.0
C153 C 0.40726 0.13548 0.30359 0.0
O154 O 0.49425 0.22399 0.38358 0.0
H155 H 0.52061 0.15264 0.52345 0.0
H156 H 0.48069 0.19025 0.15953 0.0
H157 H 0.4248 0.18061 0.5111 0.0
O158 O 0.43471 0.13569 0.26356 0.0
O159 O 0.41457 0.14485 0.37306 0.0
H160 H 0.50969 0.09506 0.17137 0.0
O161 O 0.46523 0.10572 0.41906 0.0
O162 O 0.47371 0.08493 0.30954 0.0
O163 O 0.54686 0.18761 0.40909 0.0
O164 O 0.55291 0.16458 0.29926 0.0
C165 C 0.46466 0.07797 0.37901 0.0
H166 H 0.47168 0.18229 0.02487 0.0
H167 H 0.49947 0.08415 0.0336 0.0
H168 H 0.5127 0.14349 0.65788 0.0
H169 H 0.4139 0.17016 0.64857 0.0
C170 C 0.7713 0.28478 0.3237 0.0
N171 N 0.86648 0.36499 0.1739 0.0
C172 C 0.84212 0.33045 0.13318 0.0
C173 C 0.84718 0.32947 0.05661 0.0
C174 C 0.87797 0.36404 0.02126 0.0
C175 C 0.90235 0.39994 0.06278 0.0
C176 C 0.896 0.39974 0.1403 0.0
Zn177 Zn 0.86061 0.35571 0.28687 0.0
C178 C 0.82761 0.39762 0.3612 0.0
N179 N 0.84277 0.31753 0.51146 0.0
C180 C 0.83762 0.2828 0.54515 0.0
C181 C 0.85285 0.35205 0.55213 0.0
C182 C 0.8589 0.35304 0.62874 0.0
C183 C 0.85521 0.3185 0.66419 0.0
C184 C 0.84378 0.28262 0.62272 0.0
Zn185 Zn 0.84616 0.32679 0.39848 0.0
O186 O 0.79353 0.31119 0.27447 0.0
C187 C 0.87554 0.2838 0.30461 0.0
O188 O 0.78719 0.28214 0.38409 0.0
H189 H 0.85889 0.38006 0.52499 0.0
H190 H 0.8202 0.30242 0.16026 0.0
H191 H 0.83046 0.25599 0.51171 0.0
O192 O 0.87512 0.311 0.26476 0.0
O193 O 0.86634 0.28173 0.37403 0.0
H194 H 0.9156 0.42657 0.17378 0.0
O195 O 0.90534 0.37158 0.42089 0.0
O196 O 0.92579 0.40085 0.31167 0.0
O197 O 0.82347 0.37122 0.41051 0.0
O198 O 0.84616 0.4003 0.30096 0.0
C199 C 0.93292 0.3988 0.38115 0.0
H200 H 0.82813 0.30128 0.02574 0.0
H201 H 0.9265 0.42715 0.0362 0.0
H202 H 0.86797 0.38122 0.65958 0.0
H203 H 0.84079 0.25543 0.64937 0.0
C204 C 0.28069 0.77596 0.69329 0.0
N205 N 0.36079 0.87193 0.84378 0.0
C206 C 0.32623 0.84781 0.88392 0.0
C207 C 0.32536 0.85291 0.96054 0.0
C208 C 0.36009 0.88346 0.99657 0.0
C209 C 0.39597 0.90765 0.95561 0.0
C210 C 0.39564 0.90128 0.87799 0.0
Zn211 Zn 0.3515 0.86561 0.73067 0.0
C212 C 0.39338 0.83224 0.65748 0.0
N213 N 0.31329 0.84671 0.50544 0.0
C214 C 0.27879 0.84198 0.47126 0.0
C215 C 0.34768 0.85641 0.46528 0.0
C216 C 0.34881 0.86258 0.38876 0.0
C217 C 0.31455 0.85945 0.3529 0.0
C218 C 0.27875 0.8483 0.39379 0.0
Zn219 Zn 0.32255 0.85052 0.61863 0.0
O220 O 0.30708 0.7985 0.74282 0.0
C221 C 0.27951 0.88021 0.71147 0.0
O222 O 0.27803 0.79152 0.63263 0.0
H223 H 0.37557 0.86219 0.4928 0.0
H224 H 0.29815 0.826 0.85633 0.0
H225 H 0.25208 0.83515 0.50428 0.0
O226 O 0.30679 0.88014 0.7518 0.0
O227 O 0.27743 0.87066 0.64211 0.0
H228 H 0.4225 0.92068 0.84495 0.0
O229 O 0.36723 0.90971 0.59661 0.0
O230 O 0.3965 0.93077 0.70621 0.0
O231 O 0.36697 0.82782 0.60771 0.0
O232 O 0.39608 0.85114 0.71755 0.0
C233 C 0.3944 0.93757 0.63661 0.0
H234 H 0.29718 0.83401 0.99097 0.0
H235 H 0.4233 0.93161 0.98272 0.0
H236 H 0.37692 0.87143 0.35839 0.0
H237 H 0.25178 0.84576 0.36681 0.0
C238 C 0.17924 0.57317 0.65853 0.0
N239 N 0.16348 0.47735 0.50798 0.0
C240 C 0.15314 0.50157 0.4677 0.0
C241 C 0.14717 0.4965 0.39105 0.0
C242 C 0.15122 0.46587 0.35514 0.0
C243 C 0.16283 0.4416 0.39624 0.0
C244 C 0.16889 0.44794 0.47387 0.0
Zn245 Zn 0.1604 0.48355 0.62104 0.0
C246 C 0.23553 0.51674 0.69495 0.0
N247 N 0.14087 0.50222 0.84604 0.0
C248 C 0.11122 0.50717 0.87996 0.0
C249 C 0.16543 0.49233 0.88642 0.0
C250 C 0.16038 0.48621 0.96293 0.0
C251 C 0.1294 0.48961 0.99856 0.0
C252 C 0.10488 0.50092 0.95743 0.0
Zn253 Zn 0.14642 0.49851 0.73293 0.0
O254 O 0.18313 0.55069 0.60907 0.0
C255 C 0.07382 0.46898 0.63942 0.0
O256 O 0.16094 0.55755 0.71902 0.0
H257 H 0.18744 0.4864 0.85908 0.0
H258 H 0.14693 0.52342 0.49518 0.0
H259 H 0.09147 0.51416 0.84675 0.0
O260 O 0.1012 0.46908 0.59935 0.0
O261 O 0.08121 0.47844 0.70885 0.0
H262 H 0.17626 0.42846 0.50701 0.0
O263 O 0.13186 0.43927 0.75486 0.0
O264 O 0.1402 0.41834 0.64536 0.0
O265 O 0.21351 0.52112 0.74452 0.0
O266 O 0.21941 0.49795 0.63472 0.0
C267 C 0.13122 0.41146 0.71487 0.0
H268 H 0.13796 0.51547 0.36051 0.0
H269 H 0.1661 0.41757 0.36921 0.0
H270 H 0.17954 0.47723 0.9935 0.0
H271 H 0.08058 0.50367 0.98422 0.0
C272 C 0.49423 0.73075 0.69534 0.0
N273 N 0.50945 0.65061 0.84537 0.0
C274 C 0.51965 0.68515 0.88604 0.0
C275 C 0.52568 0.68611 0.96266 0.0
C276 C 0.52184 0.65151 0.9981 0.0
C277 C 0.51031 0.61561 0.95661 0.0
C278 C 0.50419 0.61584 0.87904 0.0
Zn279 Zn 0.51276 0.65988 0.7324 0.0
C280 C 0.43781 0.6179 0.65791 0.0
N281 N 0.53285 0.69804 0.50781 0.0
C282 C 0.56242 0.73275 0.4742 0.0
C283 C 0.50839 0.66353 0.4671 0.0
C284 C 0.51344 0.66252 0.39053 0.0
C285 C 0.54432 0.69703 0.35518 0.0
C286 C 0.56876 0.73291 0.39668 0.0
Zn287 Zn 0.52708 0.68878 0.62079 0.0
O288 O 0.49012 0.70435 0.74463 0.0
C289 C 0.5995 0.73187 0.71484 0.0
O290 O 0.51269 0.73338 0.63501 0.0
H291 H 0.48643 0.63552 0.49419 0.0
H292 H 0.52578 0.7132 0.85891 0.0
H293 H 0.58209 0.75955 0.50767 0.0
O294 O 0.57196 0.70465 0.75464 0.0
O295 O 0.59229 0.73391 0.64539 0.0
H296 H 0.49694 0.589 0.8456 0.0
O297 O 0.54154 0.64404 0.59852 0.0
O298 O 0.53289 0.6148 0.70778 0.0
O299 O 0.45998 0.6443 0.60862 0.0
O300 O 0.45376 0.61525 0.7182 0.0
C301 C 0.542 0.61685 0.63832 0.0
H302 H 0.53482 0.71431 0.99351 0.0
H303 H 0.50721 0.58838 0.98327 0.0
H304 H 0.49434 0.63434 0.35967 0.0
H305 H 0.59298 0.76008 0.3701 0.0
C306 C 0.10383 0.33027 0.87841 0.0
C307 C 0.0893 0.30788 0.93243 0.0
C308 C 0.11474 0.35217 0.80891 0.0
C309 C 0.12254 0.37454 0.75485 0.0
C310 C 0.68096 0.78594 0.87893 0.0
C311 C 0.70346 0.79378 0.93308 0.0
C312 C 0.65894 0.77493 0.80924 0.0
C313 C 0.63647 0.76028 0.755 0.0
C314 C 0.2252 0.90735 0.87468 0.0
C315 C 0.21731 0.92187 0.92893 0.0
C316 C 0.23628 0.89644 0.80507 0.0
C317 C 0.25099 0.88865 0.75106 0.0
C318 C 0.34781 0.11915 0.2095 0.0
C319 C 0.37031 0.12697 0.26364 0.0
C320 C 0.32575 0.10816 0.13986 0.0
C321 C 0.30321 0.09351 0.0857 0.0
C322 C 0.8921 0.24087 0.21042 0.0
C323 C 0.88422 0.25548 0.26455 0.0
C324 C 0.90315 0.22989 0.14086 0.0
C325 C 0.91781 0.22205 0.08683 0.0
C326 C 0.78123 0.68545 0.14236 0.0
C327 C 0.78907 0.70782 0.08829 0.0
C328 C 0.77027 0.66355 0.21185 0.0
C329 C 0.7557 0.64114 0.26584 0.0
C330 C 0.01437 0.45271 0.54537 0.0
C331 C 0.03686 0.46051 0.59952 0.0
C332 C 0.99235 0.44175 0.47568 0.0
C333 C 0.96989 0.42714 0.42141 0.0
C334 C 0.55851 0.57395 0.54397 0.0
C335 C 0.55066 0.58854 0.59817 0.0
C336 C 0.56952 0.56298 0.47434 0.0
C337 C 0.58415 0.55517 0.42024 0.0
C338 C 0.4481 0.01864 0.47296 0.0
C339 C 0.45595 0.04102 0.41889 0.0
C340 C 0.43714 -0.00322 0.54249 0.0
C341 C 0.4226 0.97445 0.59659 0.0
C342 C 0.12319 0.10656 0.02087 0.0
C343 C 0.13895 0.08592 0.03204 0.0
C344 C 0.10235 0.12757 0.99997 0.0
C345 C 0.08186 0.14344 0.98845 0.0
C346 C 0.8838 0.98689 0.99937 0.0
C347 C 0.86792 0.95045 0.98796 0.0
C348 C 0.90478 0.02882 0.02039 0.0
C349 C 0.92538 0.06525 0.03187 0.0
C350 C 0.98239 0.88787 0.02003 0.0
C351 C 0.94609 0.87209 0.03191 0.0
C352 C 0.02409 0.9087 0.99847 0.0
C353 C 0.0604 0.92922 0.9866 0.0
C354 C 0.76884 0.46098 0.33249 0.0
C355 C 0.74829 0.47679 0.32091 0.0
C356 C 0.78975 0.44008 0.35361 0.0
C357 C 0.80557 0.41952 0.36511 0.0
C358 C 0.57133 0.36198 0.35234 0.0
C359 C 0.59185 0.3984 0.3641 0.0
C360 C 0.55044 0.3201 0.33099 0.0
C361 C 0.53464 0.28368 0.31933 0.0
C362 C 0.64924 0.22124 0.35187 0.0
C363 C 0.6129 0.2054 0.36337 0.0
C364 C 0.69102 0.2422 0.33088 0.0
C365 C 0.72737 0.26281 0.31953 0.0
C366 C 0.45648 0.77329 0.68772 0.0
C367 C 0.47223 0.75269 0.69935 0.0
C368 C 0.43566 0.79424 0.66627 0.0
C369 C 0.41519 0.81009 0.65432 0.0
C370 C 0.21712 0.65359 0.66564 0.0
C371 C 0.20125 0.61713 0.65438 0.0
C372 C 0.23811 0.69555 0.68642 0.0
C373 C 0.25872 0.73201 0.69764 0.0
C374 C 0.35754 0.57546 0.66557 0.0
C375 C 0.39387 0.596 0.654 0.0
C376 C 0.31579 0.55459 0.68685 0.0
C377 C 0.27948 0.5388 0.69856 0.0
C378 C -0.00423 0.21217 0.54643 0.0
C379 C 0.98463 0.20266 0.60996 0.0
C380 C 0.01225 0.22056 0.4738 0.0
C381 C 0.0233 0.22235 0.41011 0.0
C382 C 0.79939 0.79505 0.54639 0.0
C383 C 0.80857 0.79322 0.61017 0.0
C384 C 0.79137 0.80351 0.47366 0.0
C385 C 0.78981 0.81308 0.4101 0.0
C386 C 0.21506 0.01524 0.54483 0.0
C387 C 0.21665 0.02639 0.60853 0.0
C388 C 0.20702 -0.00125 0.47193 0.0
C389 C 0.19784 0.98774 0.40804 0.0
C390 C 0.67834 0.55371 0.80667 0.0
C391 C 0.6894 0.55544 0.74301 0.0
C392 C 0.66188 0.54542 0.87932 0.0
C393 C 0.65079 0.53597 0.94289 0.0
C394 C 0.45804 0.13669 0.8046 0.0
C395 C 0.45643 0.1462 0.74101 0.0
C396 C 0.46613 0.12831 0.87733 0.0
C397 C 0.47538 0.12652 0.9411 0.0
C398 C 0.87418 0.33305 0.80631 0.0
C399 C 0.86479 0.32196 0.7425 0.0
C400 C 0.88241 0.34952 0.87922 0.0
C401 C 0.8841 0.36061 0.943 0.0
C402 C 0.32942 0.87909 0.2114 0.0
C403 C 0.31825 0.86945 0.27489 0.0
C404 C 0.34588 0.88758 0.13876 0.0
C405 C 0.35688 0.88943 0.07502 0.0
C406 C 0.12472 0.47017 0.14017 0.0
C407 C 0.12315 0.47975 0.07661 0.0
C408 C 0.13275 0.46172 0.2129 0.0
C409 C 0.14195 0.45989 0.27668 0.0
C410 C 0.54882 0.68244 0.2132 0.0
C411 C 0.55047 0.69354 0.27696 0.0
C412 C 0.54064 0.66597 0.14029 0.0
C413 C 0.53131 0.6549 0.07646 0.0
loop_
_geom_bond_atom_site_label_1
_geom_bond_atom_site_label_2
_geom_bond_distance
_geom_bond_site_symmetry_2
_ccdc_geom_bond_type
C0 O16 1.251 . S
C0 O18 1.254 1_554 S
N1 C2 1.333 . S
N1 C6 1.307 . S
N1 Zn7 2.020 . S
C2 N1 1.333 . S
C2 C3 1.379 . S
C2 H20 0.952 1_455 S
C3 C2 1.379 . S
C3 C4 1.390 . S
C3 H30 0.949 1_455 S
C4 C3 1.390 . S
C4 C5 1.357 . S
C5 C4 1.357 . S
C5 C6 1.370 . S
C5 H31 0.950 . S
C6 N1 1.307 . S
C6 C5 1.370 . S
C6 H24 0.948 . S
Zn7 N1 2.020 . S
Zn7 O16 2.039 1_455 S
Zn7 O22 2.034 1_455 S
Zn7 O26 2.025 . S
Zn7 O28 2.024 . S
C8 O27 1.246 . S
C8 O28 1.249 1_556 S
N9 C10 1.307 . S
N9 C11 1.333 1_655 S
N9 Zn15 2.020 . S
C10 N9 1.307 . S
C10 C14 1.370 . S
C10 H21 0.948 . S
C11 N9 1.333 1_455 S
C11 C12 1.379 . S
C11 H19 0.952 . S
C12 C11 1.379 . S
C12 C13 1.390 1_455 S
C12 H32 0.949 . S
C13 C12 1.390 1_655 S
C13 C14 1.357 . S
C14 C10 1.370 . S
C14 C13 1.357 . S
C14 H33 0.950 . S
Zn15 N9 2.020 . S
Zn15 O18 2.025 . S
Zn15 O23 2.024 . S
Zn15 O25 2.039 1_655 S
Zn15 O27 2.034 1_655 S
O16 C0 1.251 . S
O16 Zn7 2.039 1_655 S
C17 O22 1.246 . S
C17 O23 1.249 1_554 S
O18 C0 1.254 1_556 S
O18 Zn15 2.025 . S
H19 C11 0.952 . S
H20 C2 0.952 1_655 S
H21 C10 0.948 . S
O22 Zn7 2.034 1_655 S
O22 C17 1.246 . S
O23 Zn15 2.024 . S
O23 C17 1.249 1_556 S
H24 C6 0.948 . S
O25 Zn15 2.039 1_455 S
O25 C29 1.251 . S
O26 Zn7 2.025 . S
O26 C29 1.254 1_554 S
O27 C8 1.246 . S
O27 Zn15 2.034 1_455 S
O28 Zn7 2.024 . S
O28 C8 1.249 1_554 S
C29 O25 1.251 . S
C29 O26 1.254 1_556 S
H30 C3 0.949 1_655 S
H31 C5 0.950 . S
H32 C12 0.949 . S
H33 C14 0.950 . S
C34 O50 1.251 . S
C34 O52 1.254 1_556 S
N35 C36 1.333 . S
N35 C40 1.307 . S
N35 Zn41 2.020 . S
C36 N35 1.333 . S
C36 C37 1.379 . S
C36 H54 0.952 . S
C37 C36 1.379 . S
C37 C38 1.390 . S
C37 H64 0.949 . S
C38 C37 1.390 . S
C38 C39 1.357 . S
C39 C38 1.357 . S
C39 C40 1.370 . S
C39 H65 0.950 . S
C40 N35 1.307 . S
C40 C39 1.370 . S
C40 H58 0.948 . S
Zn41 N35 2.020 . S
Zn41 O50 2.039 . S
Zn41 O56 2.034 . S
Zn41 O60 2.025 . S
Zn41 O62 2.024 . S
C42 O61 1.246 . S
C42 O62 1.249 1_554 S
N43 C44 1.307 . S
N43 C45 1.333 . S
N43 Zn49 2.020 . S
C44 N43 1.307 . S
C44 C48 1.370 . S
C44 H55 0.948 . S
C45 N43 1.333 . S
C45 C46 1.379 . S
C45 H53 0.952 . S
C46 C45 1.379 . S
C46 C47 1.390 . S
C46 H66 0.949 . S
C47 C46 1.390 . S
C47 C48 1.357 . S
C48 C44 1.370 . S
C48 C47 1.357 . S
C48 H67 0.950 . S
Zn49 N43 2.020 . S
Zn49 O52 2.025 . S
Zn49 O57 2.024 . S
Zn49 O59 2.039 . S
Zn49 O61 2.034 . S
O50 C34 1.251 . S
O50 Zn41 2.039 . S
C51 O56 1.246 . S
C51 O57 1.249 1_556 S
O52 C34 1.254 1_554 S
O52 Zn49 2.025 . S
H53 C45 0.952 . S
H54 C36 0.952 . S
H55 C44 0.948 . S
O56 Zn41 2.034 . S
O56 C51 1.246 . S
O57 Zn49 2.024 . S
O57 C51 1.249 1_554 S
H58 C40 0.948 . S
O59 Zn49 2.039 . S
O59 C63 1.251 . S
O60 Zn41 2.025 . S
O60 C63 1.254 1_556 S
O61 C42 1.246 . S
O61 Zn49 2.034 . S
O62 Zn41 2.024 . S
O62 C42 1.249 1_556 S
C63 O59 1.251 . S
C63 O60 1.254 1_554 S
H64 C37 0.949 . S
H65 C39 0.950 . S
H66 C46 0.949 . S
H67 C48 0.950 . S
C68 O84 1.251 . S
C68 O86 1.254 1_554 S
N69 C70 1.333 1_565 S
N69 C74 1.307 . S
N69 Zn75 2.020 . S
C70 N69 1.333 1_545 S
C70 C71 1.379 . S
C70 H88 0.952 . S
C71 C70 1.379 . S
C71 C72 1.390 1_545 S
C71 H98 0.949 . S
C72 C71 1.390 1_565 S
C72 C73 1.357 . S
C73 C72 1.357 . S
C73 C74 1.370 . S
C73 H99 0.950 . S
C74 N69 1.307 . S
C74 C73 1.370 . S
C74 H92 0.948 . S
Zn75 N69 2.020 . S
Zn75 O84 2.039 1_565 S
Zn75 O90 2.034 1_565 S
Zn75 O94 2.025 . S
Zn75 O96 2.024 . S
C76 O95 1.246 . S
C76 O96 1.249 1_556 S
N77 C78 1.307 . S
N77 C79 1.333 . S
N77 Zn83 2.020 . S
C78 N77 1.307 . S
C78 C82 1.370 . S
C78 H89 0.948 . S
C79 N77 1.333 . S
C79 C80 1.379 . S
C79 H87 0.952 1_545 S
C80 C79 1.379 . S
C80 C81 1.390 . S
C80 H100 0.949 1_545 S
C81 C80 1.390 . S
C81 C82 1.357 . S
C82 C78 1.370 . S
C82 C81 1.357 . S
C82 H101 0.950 . S
Zn83 N77 2.020 . S
Zn83 O86 2.025 . S
Zn83 O91 2.024 . S
Zn83 O93 2.039 1_545 S
Zn83 O95 2.034 1_545 S
O84 C68 1.251 . S
O84 Zn75 2.039 1_545 S
C85 O90 1.246 . S
C85 O91 1.249 1_554 S
O86 C68 1.254 1_556 S
O86 Zn83 2.025 . S
H87 C79 0.952 1_565 S
H88 C70 0.952 . S
H89 C78 0.948 . S
O90 Zn75 2.034 1_545 S
O90 C85 1.246 . S
O91 Zn83 2.024 . S
O91 C85 1.249 1_556 S
H92 C74 0.948 . S
O93 Zn83 2.039 1_565 S
O93 C97 1.251 . S
O94 Zn75 2.025 . S
O94 C97 1.254 1_554 S
O95 C76 1.246 . S
O95 Zn83 2.034 1_565 S
O96 Zn75 2.024 . S
O96 C76 1.249 1_554 S
C97 O93 1.251 . S
C97 O94 1.254 1_556 S
H98 C71 0.949 . S
H99 C73 0.950 . S
H100 C80 0.949 1_565 S
H101 C82 0.950 . S
C102 O118 1.251 . S
C102 O120 1.254 . S
N103 C104 1.333 . S
N103 C108 1.307 . S
N103 Zn109 2.020 . S
C104 N103 1.333 . S
C104 C105 1.379 . S
C104 H122 0.952 . S
C105 C104 1.379 . S
C105 C106 1.390 1_554 S
C105 H132 0.949 1_554 S
C106 C105 1.390 1_556 S
C106 C107 1.357 1_556 S
C107 C106 1.357 1_554 S
C107 C108 1.370 . S
C107 H133 0.950 . S
C108 N103 1.307 . S
C108 C107 1.370 . S
C108 H126 0.948 . S
Zn109 N103 2.020 . S
Zn109 O118 2.039 . S
Zn109 O124 2.034 . S
Zn109 O128 2.025 . S
Zn109 O130 2.024 . S
C110 O129 1.246 . S
C110 O130 1.249 . S
N111 C112 1.307 . S
N111 C113 1.333 . S
N111 Zn117 2.020 . S
C112 N111 1.307 . S
C112 C116 1.370 . S
C112 H123 0.948 . S
C113 N111 1.333 . S
C113 C114 1.379 . S
C113 H121 0.952 . S
C114 C113 1.379 . S
C114 C115 1.390 . S
C114 H134 0.949 . S
C115 C114 1.390 . S
C115 C116 1.357 . S
C116 C112 1.370 . S
C116 C115 1.357 . S
C116 H135 0.950 . S
Zn117 N111 2.020 . S
Zn117 O120 2.025 . S
Zn117 O125 2.024 . S
Zn117 O127 2.039 . S
Zn117 O129 2.034 . S
O118 C102 1.251 . S
O118 Zn109 2.039 . S
C119 O124 1.246 . S
C119 O125 1.249 . S
O120 C102 1.254 . S
O120 Zn117 2.025 . S
H121 C113 0.952 . S
H122 C104 0.952 . S
H123 C112 0.948 . S
O124 Zn109 2.034 . S
O124 C119 1.246 . S
O125 Zn117 2.024 . S
O125 C119 1.249 . S
H126 C108 0.948 . S
O127 Zn117 2.039 . S
O127 C131 1.251 . S
O128 Zn109 2.025 . S
O128 C131 1.254 . S
O129 C110 1.246 . S
O129 Zn117 2.034 . S
O130 Zn109 2.024 . S
O130 C110 1.249 . S
C131 O127 1.251 . S
C131 O128 1.254 . S
H132 C105 0.949 1_556 S
H133 C107 0.950 . S
H134 C114 0.949 . S
H135 C116 0.950 . S
C136 O152 1.251 . S
C136 O154 1.254 . S
N137 C138 1.333 . S
N137 C142 1.307 . S
N137 Zn143 2.020 . S
C138 N137 1.333 . S
C138 C139 1.379 . S
C138 H156 0.952 . S
C139 C138 1.379 . S
C139 C140 1.390 1_554 S
C139 H166 0.949 1_554 S
C140 C139 1.390 1_556 S
C140 C141 1.357 1_556 S
C141 C140 1.357 1_554 S
C141 C142 1.370 . S
C141 H167 0.950 . S
C142 N137 1.307 . S
C142 C141 1.370 . S
C142 H160 0.948 . S
Zn143 N137 2.020 . S
Zn143 O152 2.039 . S
Zn143 O158 2.034 . S
Zn143 O162 2.025 . S
Zn143 O164 2.024 . S
C144 O163 1.246 . S
C144 O164 1.249 . S
N145 C146 1.307 . S
N145 C147 1.333 . S
N145 Zn151 2.020 . S
C146 N145 1.307 . S
C146 C150 1.370 . S
C146 H157 0.948 . S
C147 N145 1.333 . S
C147 C148 1.379 . S
C147 H155 0.952 . S
C148 C147 1.379 . S
C148 C149 1.390 . S
C148 H168 0.949 . S
C149 C148 1.390 . S
C149 C150 1.357 . S
C150 C146 1.370 . S
C150 C149 1.357 . S
C150 H169 0.950 . S
Zn151 N145 2.020 . S
Zn151 O154 2.025 . S
Zn151 O159 2.024 . S
Zn151 O161 2.039 . S
Zn151 O163 2.034 . S
O152 C136 1.251 . S
O152 Zn143 2.039 . S
C153 O158 1.246 . S
C153 O159 1.249 . S
O154 C136 1.254 . S
O154 Zn151 2.025 . S
H155 C147 0.952 . S
H156 C138 0.952 . S
H157 C146 0.948 . S
O158 Zn143 2.034 . S
O158 C153 1.246 . S
O159 Zn151 2.024 . S
O159 C153 1.249 . S
H160 C142 0.948 . S
O161 Zn151 2.039 . S
O161 C165 1.251 . S
O162 Zn143 2.025 . S
O162 C165 1.254 . S
O163 C144 1.246 . S
O163 Zn151 2.034 . S
O164 Zn143 2.024 . S
O164 C144 1.249 . S
C165 O161 1.251 . S
C165 O162 1.254 . S
H166 C139 0.949 1_556 S
H167 C141 0.950 . S
H168 C148 0.949 . S
H169 C150 0.950 . S
C170 O186 1.251 . S
C170 O188 1.254 . S
N171 C172 1.333 . S
N171 C176 1.307 . S
N171 Zn177 2.020 . S
C172 N171 1.333 . S
C172 C173 1.379 . S
C172 H190 0.952 . S
C173 C172 1.379 . S
C173 C174 1.390 1_554 S
C173 H200 0.949 1_554 S
C174 C173 1.390 1_556 S
C174 C175 1.357 1_556 S
C175 C174 1.357 1_554 S
C175 C176 1.370 . S
C175 H201 0.950 . S
C176 N171 1.307 . S
C176 C175 1.370 . S
C176 H194 0.948 . S
Zn177 N171 2.020 . S
Zn177 O186 2.039 . S
Zn177 O192 2.034 . S
Zn177 O196 2.025 . S
Zn177 O198 2.024 . S
C178 O197 1.246 . S
C178 O198 1.249 . S
N179 C180 1.307 . S
N179 C181 1.333 . S
N179 Zn185 2.020 . S
C180 N179 1.307 . S
C180 C184 1.370 . S
C180 H191 0.948 . S
C181 N179 1.333 . S
C181 C182 1.379 . S
C181 H189 0.952 . S
C182 C181 1.379 . S
C182 C183 1.390 . S
C182 H202 0.949 . S
C183 C182 1.390 . S
C183 C184 1.357 . S
C184 C180 1.370 . S
C184 C183 1.357 . S
C184 H203 0.950 . S
Zn185 N179 2.020 . S
Zn185 O188 2.025 . S
Zn185 O193 2.024 . S
Zn185 O195 2.039 . S
Zn185 O197 2.034 . S
O186 C170 1.251 . S
O186 Zn177 2.039 . S
C187 O192 1.246 . S
C187 O193 1.249 . S
O188 C170 1.254 . S
O188 Zn185 2.025 . S
H189 C181 0.952 . S
H190 C172 0.952 . S
H191 C180 0.948 . S
O192 Zn177 2.034 . S
O192 C187 1.246 . S
O193 Zn185 2.024 . S
O193 C187 1.249 . S
H194 C176 0.948 . S
O195 Zn185 2.039 . S
O195 C199 1.251 . S
O196 Zn177 2.025 . S
O196 C199 1.254 . S
O197 C178 1.246 . S
O197 Zn185 2.034 . S
O198 Zn177 2.024 . S
O198 C178 1.249 . S
C199 O195 1.251 . S
C199 O196 1.254 . S
H200 C173 0.949 1_556 S
H201 C175 0.950 . S
H202 C182 0.949 . S
H203 C184 0.950 . S
C204 O220 1.251 . S
C204 O222 1.254 . S
N205 C206 1.333 . S
N205 C210 1.307 . S
N205 Zn211 2.020 . S
C206 N205 1.333 . S
C206 C207 1.379 . S
C206 H224 0.952 . S
C207 C206 1.379 . S
C207 C208 1.390 1_556 S
C207 H234 0.949 1_556 S
C208 C207 1.390 1_554 S
C208 C209 1.357 1_554 S
C209 C208 1.357 1_556 S
C209 C210 1.370 . S
C209 H235 0.950 . S
C210 N205 1.307 . S
C210 C209 1.370 . S
C210 H228 0.948 . S
Zn211 N205 2.020 . S
Zn211 O220 2.039 . S
Zn211 O226 2.034 . S
Zn211 O230 2.025 . S
Zn211 O232 2.024 . S
C212 O231 1.246 . S
C212 O232 1.249 . S
N213 C214 1.307 . S
N213 C215 1.333 . S
N213 Zn219 2.020 . S
C214 N213 1.307 . S
C214 C218 1.370 . S
C214 H225 0.948 . S
C215 N213 1.333 . S
C215 C216 1.379 . S
C215 H223 0.952 . S
C216 C215 1.379 . S
C216 C217 1.390 . S
C216 H236 0.949 . S
C217 C216 1.390 . S
C217 C218 1.357 . S
C218 C214 1.370 . S
C218 C217 1.357 . S
C218 H237 0.950 . S
Zn219 N213 2.020 . S
Zn219 O222 2.025 . S
Zn219 O227 2.024 . S
Zn219 O229 2.039 . S
Zn219 O231 2.034 . S
O220 C204 1.251 . S
O220 Zn211 2.039 . S
C221 O226 1.246 . S
C221 O227 1.249 . S
O222 C204 1.254 . S
O222 Zn219 2.025 . S
H223 C215 0.952 . S
H224 C206 0.952 . S
H225 C214 0.948 . S
O226 Zn211 2.034 . S
O226 C221 1.246 . S
O227 Zn219 2.024 . S
O227 C221 1.249 . S
H228 C210 0.948 . S
O229 Zn219 2.039 . S
O229 C233 1.251 . S
O230 Zn211 2.025 . S
O230 C233 1.254 . S
O231 C212 1.246 . S
O231 Zn219 2.034 . S
O232 Zn211 2.024 . S
O232 C212 1.249 . S
C233 O229 1.251 . S
C233 O230 1.254 . S
H234 C207 0.949 1_554 S
H235 C209 0.950 . S
H236 C216 0.949 . S
H237 C218 0.950 . S
C238 O254 1.251 . S
C238 O256 1.254 . S
N239 C240 1.333 . S
N239 C244 1.307 . S
N239 Zn245 2.020 . S
C240 N239 1.333 . S
C240 C241 1.379 . S
C240 H258 0.952 . S
C241 C240 1.379 . S
C241 C242 1.390 . S
C241 H268 0.949 . S
C242 C241 1.390 . S
C242 C243 1.357 . S
C243 C242 1.357 . S
C243 C244 1.370 . S
C243 H269 0.950 . S
C244 N239 1.307 . S
C244 C243 1.370 . S
C244 H262 0.948 . S
Zn245 N239 2.020 . S
Zn245 O254 2.039 . S
Zn245 O260 2.034 . S
Zn245 O264 2.025 . S
Zn245 O266 2.024 . S
C246 O265 1.246 . S
C246 O266 1.249 . S
N247 C248 1.307 . S
N247 C249 1.333 . S
N247 Zn253 2.020 . S
C248 N247 1.307 . S
C248 C252 1.370 . S
C248 H259 0.948 . S
C249 N247 1.333 . S
C249 C250 1.379 . S
C249 H257 0.952 . S
C250 C249 1.379 . S
C250 C251 1.390 1_556 S
C250 H270 0.949 1_556 S
C251 C250 1.390 1_554 S
C251 C252 1.357 1_554 S
C252 C248 1.370 . S
C252 C251 1.357 1_556 S
C252 H271 0.950 . S
Zn253 N247 2.020 . S
Zn253 O256 2.025 . S
Zn253 O261 2.024 . S
Zn253 O263 2.039 . S
Zn253 O265 2.034 . S
O254 C238 1.251 . S
O254 Zn245 2.039 . S
C255 O260 1.246 . S
C255 O261 1.249 . S
O256 C238 1.254 . S
O256 Zn253 2.025 . S
H257 C249 0.952 . S
H258 C240 0.952 . S
H259 C248 0.948 . S
O260 Zn245 2.034 . S
O260 C255 1.246 . S
O261 Zn253 2.024 . S
O261 C255 1.249 . S
H262 C244 0.948 . S
O263 Zn253 2.039 . S
O263 C267 1.251 . S
O264 Zn245 2.025 . S
O264 C267 1.254 . S
O265 C246 1.246 . S
O265 Zn253 2.034 . S
O266 Zn245 2.024 . S
O266 C246 1.249 . S
C267 O263 1.251 . S
C267 O264 1.254 . S
H268 C241 0.949 . S
H269 C243 0.950 . S
H270 C250 0.949 1_554 S
H271 C252 0.950 . S
C272 O288 1.251 . S
C272 O290 1.254 . S
N273 C274 1.333 . S
N273 C278 1.307 . S
N273 Zn279 2.020 . S
C274 N273 1.333 . S
C274 C275 1.379 . S
C274 H292 0.952 . S
C275 C274 1.379 . S
C275 C276 1.390 1_556 S
C275 H302 0.949 1_556 S
C276 C275 1.390 1_554 S
C276 C277 1.357 1_554 S
C277 C276 1.357 1_556 S
C277 C278 1.370 . S
C277 H303 0.950 . S
C278 N273 1.307 . S
C278 C277 1.370 . S
C278 H296 0.948 . S
Zn279 N273 2.020 . S
Zn279 O288 2.039 . S
Zn279 O294 2.034 . S
Zn279 O298 2.025 . S
Zn279 O300 2.024 . S
C280 O299 1.246 . S
C280 O300 1.249 . S
N281 C282 1.307 . S
N281 C283 1.333 . S
N281 Zn287 2.020 . S
C282 N281 1.307 . S
C282 C286 1.370 . S
C282 H293 0.948 . S
C283 N281 1.333 . S
C283 C284 1.379 . S
C283 H291 0.952 . S
C284 C283 1.379 . S
C284 C285 1.390 . S
C284 H304 0.949 . S
C285 C284 1.390 . S
C285 C286 1.357 . S
C286 C282 1.370 . S
C286 C285 1.357 . S
C286 H305 0.950 . S
Zn287 N281 2.020 . S
Zn287 O290 2.025 . S
Zn287 O295 2.024 . S
Zn287 O297 2.039 . S
Zn287 O299 2.034 . S
O288 C272 1.251 . S
O288 Zn279 2.039 . S
C289 O294 1.246 . S
C289 O295 1.249 . S
O290 C272 1.254 . S
O290 Zn287 2.025 . S
H291 C283 0.952 . S
H292 C274 0.952 . S
H293 C282 0.948 . S
O294 Zn279 2.034 . S
O294 C289 1.246 . S
O295 Zn287 2.024 . S
O295 C289 1.249 . S
H296 C278 0.948 . S
O297 Zn287 2.039 . S
O297 C301 1.251 . S
O298 Zn279 2.025 . S
O298 C301 1.254 . S
O299 C280 1.246 . S
O299 Zn287 2.034 . S
O300 Zn279 2.024 . S
O300 C280 1.249 . S
C301 O297 1.251 . S
C301 O298 1.254 . S
H302 C275 0.949 1_554 S
H303 C277 0.950 . S
H304 C284 0.949 . S
H305 C286 0.950 . S
C306 C307 1.170 . S
C306 C308 1.380 . S
C307 C306 1.170 . S
C308 C306 1.380 . S
C308 C309 1.170 . S
C309 C308 1.170 . S
C310 C311 1.170 . S
C310 C312 1.380 . S
C311 C310 1.170 . S
C312 C310 1.380 . S
C312 C313 1.170 . S
C313 C312 1.170 . S
C314 C315 1.170 . S
C314 C316 1.380 . S
C315 C314 1.170 . S
C316 C314 1.380 . S
C316 C317 1.170 . S
C317 C316 1.170 . S
C318 C319 1.170 . S
C318 C320 1.380 . S
C319 C318 1.170 . S
C320 C318 1.380 . S
C320 C321 1.170 . S
C321 C320 1.170 . S
C322 C323 1.170 . S
C322 C324 1.380 . S
C323 C322 1.170 . S
C324 C322 1.380 . S
C324 C325 1.170 . S
C325 C324 1.170 . S
C326 C327 1.170 . S
C326 C328 1.380 . S
C327 C326 1.170 . S
C328 C326 1.380 . S
C328 C329 1.170 . S
C329 C328 1.170 . S
C330 C331 1.170 . S
C330 C332 1.380 1_455 S
C331 C330 1.170 . S
C332 C330 1.380 1_655 S
C332 C333 1.170 . S
C333 C332 1.170 . S
C334 C335 1.170 . S
C334 C336 1.380 . S
C335 C334 1.170 . S
C336 C334 1.380 . S
C336 C337 1.170 . S
C337 C336 1.170 . S
C338 C339 1.170 . S
C338 C340 1.394 . S
C339 C338 1.170 . S
C340 C338 1.394 . S
C340 C341 1.156 1_545 S
C341 C340 1.156 1_565 S
C342 C343 1.170 . S
C342 C344 1.380 . S
C343 C342 1.170 . S
C344 C342 1.380 . S
C344 C345 1.170 1_554 S
C345 C344 1.170 1_556 S
C346 C347 1.170 . S
C346 C348 1.380 1_566 S
C347 C346 1.170 . S
C348 C346 1.380 1_544 S
C348 C349 1.170 . S
C349 C348 1.170 . S
C350 C351 1.170 . S
C350 C352 1.380 1_655 S
C351 C350 1.170 . S
C352 C350 1.380 1_455 S
C352 C353 1.170 1_554 S
C353 C352 1.170 1_556 S
C354 C355 1.170 . S
C354 C356 1.380 . S
C355 C354 1.170 . S
C356 C354 1.380 . S
C356 C357 1.170 . S
C357 C356 1.170 . S
C358 C359 1.170 . S
C358 C360 1.380 . S
C359 C358 1.170 . S
C360 C358 1.380 . S
C360 C361 1.170 . S
C361 C360 1.170 . S
C362 C363 1.170 . S
C362 C364 1.380 . S
C363 C362 1.170 . S
C364 C362 1.380 . S
C364 C365 1.170 . S
C365 C364 1.170 . S
C366 C367 1.170 . S
C366 C368 1.380 . S
C367 C366 1.170 . S
C368 C366 1.380 . S
C368 C369 1.170 . S
C369 C368 1.170 . S
C370 C371 1.170 . S
C370 C372 1.380 . S
C371 C370 1.170 . S
C372 C370 1.380 . S
C372 C373 1.170 . S
C373 C372 1.170 . S
C374 C375 1.170 . S
C374 C376 1.380 . S
C375 C374 1.170 . S
C376 C374 1.380 . S
C376 C377 1.170 . S
C377 C376 1.170 . S
C378 C379 1.170 1_455 S
C378 C380 1.380 . S
C379 C378 1.170 1_655 S
C380 C378 1.380 . S
C380 C381 1.170 . S
C381 C380 1.170 . S
C382 C383 1.170 . S
C382 C384 1.380 . S
C383 C382 1.170 . S
C384 C382 1.380 . S
C384 C385 1.170 . S
C385 C384 1.170 . S
C386 C387 1.170 . S
C386 C388 1.380 . S
C387 C386 1.170 . S
C388 C386 1.380 . S
C388 C389 1.170 1_545 S
C389 C388 1.170 1_565 S
C390 C391 1.170 . S
C390 C392 1.380 . S
C391 C390 1.170 . S
C392 C390 1.380 . S
C392 C393 1.170 . S
C393 C392 1.170 . S
C394 C395 1.170 . S
C394 C396 1.380 . S
C395 C394 1.170 . S
C396 C394 1.380 . S
C396 C397 1.170 . S
C397 C396 1.170 . S
C398 C399 1.170 . S
C398 C400 1.380 . S
C399 C398 1.170 . S
C400 C398 1.380 . S
C400 C401 1.170 . S
C401 C400 1.170 . S
C402 C403 1.170 . S
C402 C404 1.380 . S
C403 C402 1.170 . S
C404 C402 1.380 . S
C404 C405 1.170 . S
C405 C404 1.170 . S
C406 C407 1.170 . S
C406 C408 1.380 . S
C407 C406 1.170 . S
C408 C406 1.380 . S
C408 C409 1.170 . S
C409 C408 1.170 . S
C410 C411 1.170 . S
C410 C412 1.380 . S
C411 C410 1.170 . S
C412 C410 1.380 . S
C412 C413 1.170 . S
C413 C412 1.170 . S
C307 C29 1.870 . S
C309 C267 1.909 . S
C311 C51 1.893 . S
C313 C289 1.860 . S
C315 C97 1.863 . S
C317 C221 1.905 . S
C319 C153 1.847 . S
C321 C85 1.832 . S
C323 C187 1.873 . S
C325 C17 1.860 . S
C327 C63 1.873 . S
C329 C119 1.889 . S
C331 C255 1.887 . S
C333 C199 1.887 . S
C335 C301 1.901 . S
C337 C131 1.913 . S
C339 C165 1.919 . S
C341 C233 1.944 . S
C343 C68 1.376 . S
C345 C8 1.353 . S
C347 C34 1.380 . S
C349 C0 1.362 . S
C351 C42 1.396 . S
C353 C76 1.368 . S
C355 C102 1.372 . S
C357 C178 1.384 . S
C359 C110 1.374 . S
C361 C136 1.389 . S
C363 C144 1.371 . S
C365 C170 1.381 . S
C367 C272 1.402 . S
C369 C212 1.384 . S
C371 C238 1.365 . S
C373 C204 1.379 . S
C375 C280 1.368 . S
C377 C246 1.397 . S
C379 C13 1.281 . S
C381 C4 1.323 . S
C383 C38 1.266 . S
C385 C47 1.284 . S
C387 C81 1.278 . S
C389 C72 1.245 . S
C391 C115 1.305 . S
C393 C106 1.271 . S
C395 C149 1.254 . S
C397 C140 1.303 . S
C399 C183 1.246 . S
C401 C174 1.280 . S
C403 C217 1.329 . S
C405 C208 1.279 . S
C407 C251 1.309 . S
C409 C242 1.292 . S
C411 C285 1.286 . S
C413 C276 1.255 . S
