# Generated by pormake.
# Topology unb, (4)-cn, num edge types: 1
# Building blocks:
#     Node 0, Type 0, BuildingBlock: QUQFOY_clean_sbu_1, # of connection points: 4
#     Node 1, Type 0, BuildingBlock: QUQFOY_clean_sbu_1, # of connection points: 4
#     Node 2, Type 0, BuildingBlock: QUQFOY_clean_sbu_1, # of connection points: 4
#     Node 3, Type 0, BuildingBlock: QUQFOY_clean_sbu_1, # of connection points: 4
#     Node 4, Type 0, BuildingBlock: QUQFOY_clean_sbu_1, # of connection points: 4
#     Node 5, Type 0, BuildingBlock: QUQFOY_clean_sbu_1, # of connection points: 4
#     Node 6, Type 0, BuildingBlock: QUQFOY_clean_sbu_1, # of connection points: 4
#     Node 7, Type 0, BuildingBlock: QUQFOY_clean_sbu_1, # of connection points: 4
#     Node 8, Type 0, BuildingBlock: QUQFOY_clean_sbu_1, # of connection points: 4
#     Node 9, Type 0, BuildingBlock: QUQFOY_clean_sbu_1, # of connection points: 4
#     Node 10, Type 0, BuildingBlock: QUQFOY_clean_sbu_1, # of connection points: 4
#     Node 11, Type 0, BuildingBlock: QUQFOY_clean_sbu_1, # of connection points: 4
#     Node 12, Type 0, BuildingBlock: QUQFOY_clean_sbu_1, # of connection points: 4
#     Node 13, Type 0, BuildingBlock: QUQFOY_clean_sbu_1, # of connection points: 4
#     Node 14, Type 0, BuildingBlock: QUQFOY_clean_sbu_1, # of connection points: 4
#     Node 15, Type 0, BuildingBlock: QUQFOY_clean_sbu_1, # of connection points: 4
#     Node 16, Type 0, BuildingBlock: QUQFOY_clean_sbu_1, # of connection points: 4
#     Node 17, Type 0, BuildingBlock: QUQFOY_clean_sbu_1, # of connection points: 4
#     Edge 18, Type (0, 0), BuildingBlock: MIFKUJ_clean_linker_0, # of connection points: 2
#     Edge 19, Type (0, 0), BuildingBlock: MIFKUJ_clean_linker_0, # of connection points: 2
#     Edge 20, Type (0, 0), BuildingBlock: MIFKUJ_clean_linker_0, # of connection points: 2
#     Edge 21, Type (0, 0), BuildingBlock: MIFKUJ_clean_linker_0, # of connection points: 2
#     Edge 22, Type (0, 0), BuildingBlock: MIFKUJ_clean_linker_0, # of connection points: 2
#     Edge 23, Type (0, 0), BuildingBlock: MIFKUJ_clean_linker_0, # of connection points: 2
#     Edge 24, Type (0, 0), BuildingBlock: MIFKUJ_clean_linker_0, # of connection points: 2
#     Edge 25, Type (0, 0), BuildingBlock: MIFKUJ_clean_linker_0, # of connection points: 2
#     Edge 26, Type (0, 0), BuildingBlock: MIFKUJ_clean_linker_0, # of connection points: 2
#     Edge 27, Type (0, 0), BuildingBlock: MIFKUJ_clean_linker_0, # of connection points: 2
#     Edge 28, Type (0, 0), BuildingBlock: MIFKUJ_clean_linker_0, # of connection points: 2
#     Edge 29, Type (0, 0), BuildingBlock: MIFKUJ_clean_linker_0, # of connection points: 2
#     Edge 30, Type (0, 0), BuildingBlock: MIFKUJ_clean_linker_0, # of connection points: 2
#     Edge 31, Type (0, 0), BuildingBlock: MIFKUJ_clean_linker_0, # of connection points: 2
#     Edge 32, Type (0, 0), BuildingBlock: MIFKUJ_clean_linker_0, # of connection points: 2
#     Edge 33, Type (0, 0), BuildingBlock: MIFKUJ_clean_linker_0, # of connection points: 2
#     Edge 34, Type (0, 0), BuildingBlock: MIFKUJ_clean_linker_0, # of connection points: 2
#     Edge 35, Type (0, 0), BuildingBlock: MIFKUJ_clean_linker_0, # of connection points: 2
#     Edge 36, Type (0, 0), BuildingBlock: MIFKUJ_clean_linker_0, # of connection points: 2
#     Edge 37, Type (0, 0), BuildingBlock: MIFKUJ_clean_linker_0, # of connection points: 2
#     Edge 38, Type (0, 0), BuildingBlock: MIFKUJ_clean_linker_0, # of connection points: 2
#     Edge 39, Type (0, 0), BuildingBlock: MIFKUJ_clean_linker_0, # of connection points: 2
#     Edge 40, Type (0, 0), BuildingBlock: MIFKUJ_clean_linker_0, # of connection points: 2
#     Edge 41, Type (0, 0), BuildingBlock: MIFKUJ_clean_linker_0, # of connection points: 2
#     Edge 42, Type (0, 0), BuildingBlock: MIFKUJ_clean_linker_0, # of connection points: 2
#     Edge 43, Type (0, 0), BuildingBlock: MIFKUJ_clean_linker_0, # of connection points: 2
#     Edge 44, Type (0, 0), BuildingBlock: MIFKUJ_clean_linker_0, # of connection points: 2
#     Edge 45, Type (0, 0), BuildingBlock: MIFKUJ_clean_linker_0, # of connection points: 2
#     Edge 46, Type (0, 0), BuildingBlock: MIFKUJ_clean_linker_0, # of connection points: 2
#     Edge 47, Type (0, 0), BuildingBlock: MIFKUJ_clean_linker_0, # of connection points: 2
#     Edge 48, Type (0, 0), BuildingBlock: MIFKUJ_clean_linker_0, # of connection points: 2
#     Edge 49, Type (0, 0), BuildingBlock: MIFKUJ_clean_linker_0, # of connection points: 2
#     Edge 50, Type (0, 0), BuildingBlock: MIFKUJ_clean_linker_0, # of connection points: 2
#     Edge 51, Type (0, 0), BuildingBlock: MIFKUJ_clean_linker_0, # of connection points: 2
#     Edge 52, Type (0, 0), BuildingBlock: MIFKUJ_clean_linker_0, # of connection points: 2
#     Edge 53, Type (0, 0), BuildingBlock: MIFKUJ_clean_linker_0, # of connection points: 2
# Relax obj value: 0.088
# Max RMSD: 0.099
# Mean RMSD: 0.099
data_MOF--net-unb--node1-QUQFOY_clean_sbu_1--edge1-MIFKUJ_clean_linker_0
_symmetry_space_group_name_H-M    P1
_symmetry_Int_Tables_number       1
_symmetry_cell_setting            triclinic
loop_
_symmetry_equiv_pos_as_xyz
'x, y, z'
_cell_length_a     81.594282
_cell_length_b     81.586704
_cell_length_c     36.714362
_cell_angle_alpha  90.01507
_cell_angle_beta   90.005893
_cell_angle_gamma 119.98522
loop_
_atom_site_label
_atom_site_type_symbol
_atom_site_fract_x
_atom_site_fract_y
_atom_site_fract_z
_atom_type_partial_charge
O0 O 0.17352 0.27742 0.08674 0.0
Cd1 Cd 0.16335 0.29565 0.09717 0.0
Cd2 Cd 0.13001 0.26512 0.0657 0.0
O3 O 0.1465 0.25261 0.06986 0.0
O4 O 0.17922 0.31306 0.13701 0.0
O5 O 0.14849 0.29312 0.14275 0.0
C6 C 0.1642 0.30598 0.157 0.0
C7 C 0.09721 0.24432 0.06112 0.0
C8 C 0.1641 0.26024 0.07655 0.0
C9 C 0.15106 0.30391 0.02718 0.0
O10 O 0.13813 0.28667 0.02854 0.0
O11 O 0.16293 0.31122 0.05305 0.0
O12 O 0.10883 0.24525 0.03656 0.0
O13 O 0.10422 0.25471 0.08974 0.0
O14 O 0.73284 0.9001 0.09712 0.0
Cd15 Cd 0.7113 0.8729 0.10732 0.0
Cd16 Cd 0.73601 0.86308 0.06734 0.0
O17 O 0.75113 0.89227 0.06613 0.0
O18 O 0.69624 0.87407 0.14903 0.0
O19 O 0.71199 0.85852 0.15136 0.0
C20 C 0.70124 0.86378 0.16734 0.0
C21 C 0.75442 0.84892 0.05496 0.0
C22 C 0.74781 0.9048 0.07893 0.0
C23 C 0.69577 0.85013 0.03982 0.0
O24 O 0.71101 0.84954 0.03896 0.0
O25 O 0.69294 0.85935 0.06451 0.0
O26 O 0.75109 0.85822 0.03078 0.0
O27 O 0.74769 0.84792 0.08718 0.0
O28 O 0.10171 0.82524 0.09009 0.0
Cd29 Cd 0.1303 0.83547 0.09795 0.0
Cd30 Cd 0.13204 0.86802 0.06456 0.0
O31 O 0.10327 0.85187 0.07245 0.0
O32 O 0.1325 0.81979 0.13725 0.0
O33 O 0.14356 0.85057 0.14278 0.0
C34 C 0.14085 0.83489 0.15694 0.0
C35 C 0.14404 0.90061 0.05593 0.0
C36 C 0.0936 0.83442 0.0805 0.0
C37 C 0.14827 0.8456 0.02559 0.0
O38 O 0.14384 0.85845 0.0267 0.0
O39 O 0.145 0.83471 0.05271 0.0
O40 O 0.13271 0.8882 0.03313 0.0
O41 O 0.14805 0.89459 0.0852 0.0
O42 O 0.27258 0.17248 0.92153 0.0
Cd43 Cd 0.29143 0.16294 0.91241 0.0
Cd44 Cd 0.26066 0.12956 0.94536 0.0
O45 O 0.24787 0.1457 0.93971 0.0
O46 O 0.30892 0.17963 0.87348 0.0
O47 O 0.29044 0.1487 0.86672 0.0
C48 C 0.30282 0.16482 0.85312 0.0
C49 C 0.2402 0.09693 0.95399 0.0
C50 C 0.25545 0.16317 0.932 0.0
C51 C 0.2995 0.15206 0.98392 0.0
O52 O 0.28236 0.13891 0.98234 0.0
O53 O 0.30695 0.16353 0.95752 0.0
O54 O 0.24154 0.10928 0.9772 0.0
O55 O 0.24985 0.10303 0.92432 0.0
O56 O 0.83272 0.09714 0.91503 0.0
Cd57 Cd 0.835 0.12308 0.90594 0.0
Cd58 Cd 0.86842 0.13644 0.9493 0.0
O59 O 0.85564 0.10743 0.9558 0.0
O60 O 0.81799 0.11935 0.86387 0.0
O61 O 0.84884 0.13939 0.86261 0.0
C62 C 0.83266 0.13167 0.84616 0.0
C63 C 0.9011 0.15234 0.96159 0.0
C64 C 0.84196 0.09387 0.939 0.0
C65 C 0.83822 0.14546 0.97235 0.0
O66 O 0.85552 0.14996 0.97264 0.0
O67 O 0.82682 0.13361 0.94931 0.0
O68 O 0.88866 0.14425 0.98668 0.0
O69 O 0.89512 0.15133 0.92869 0.0
O70 O 0.8988 0.72083 0.92234 0.0
Cd71 Cd 0.87069 0.7023 0.91137 0.0
Cd72 Cd 0.86579 0.73116 0.94602 0.0
O73 O 0.89495 0.74384 0.94472 0.0
O74 O 0.86902 0.68554 0.87029 0.0
O75 O 0.85846 0.70577 0.86667 0.0
C76 C 0.86111 0.69301 0.8513 0.0
C77 C 0.85405 0.75203 0.95399 0.0
C78 C 0.90566 0.73732 0.93587 0.0
C79 C 0.84842 0.69128 0.97955 0.0
O80 O 0.85107 0.70799 0.97923 0.0
O81 O 0.85511 0.68559 0.95451 0.0
O82 O 0.86374 0.74953 0.97861 0.0
O83 O 0.85154 0.74322 0.9235 0.0
O84 O 0.83792 0.60503 0.41367 0.0
Cd85 Cd 0.82606 0.62209 0.41867 0.0
Cd86 Cd 0.79447 0.59004 0.39689 0.0
O87 O 0.81098 0.57814 0.40872 0.0
O88 O 0.84157 0.64269 0.45395 0.0
O89 O 0.81188 0.62056 0.46453 0.0
C90 C 0.82722 0.63528 0.47572 0.0
C91 C 0.76158 0.57187 0.40267 0.0
C92 C 0.82892 0.58709 0.41119 0.0
C93 C 0.81263 0.62348 0.34498 0.0
O94 O 0.80121 0.606 0.35023 0.0
O95 O 0.8235 0.6337 0.37044 0.0
O96 O 0.77081 0.56722 0.38065 0.0
O97 O 0.7711 0.58635 0.42348 0.0
O98 O 0.39438 0.23785 0.41507 0.0
Cd99 Cd 0.37689 0.20889 0.42157 0.0
Cd100 Cd 0.40891 0.20999 0.39339 0.0
O101 O 0.42126 0.2381 0.40661 0.0
O102 O 0.35799 0.2055 0.4597 0.0
O103 O 0.3786 0.19559 0.46646 0.0
C104 C 0.36504 0.1976 0.47987 0.0
C105 C 0.42857 0.19672 0.3883 0.0
C106 C 0.41224 0.24693 0.41064 0.0
C107 C 0.37301 0.19513 0.34693 0.0
O108 O 0.39068 0.20161 0.34996 0.0
O109 O 0.36324 0.19447 0.37447 0.0
O110 O 0.43017 0.20991 0.36701 0.0
O111 O 0.41641 0.19161 0.41441 0.0
O112 O 0.76196 0.15263 0.40586 0.0
Cd113 Cd 0.79025 0.16198 0.41357 0.0
Cd114 Cd 0.79371 0.19546 0.38172 0.0
O115 O 0.76463 0.17953 0.38674 0.0
O116 O 0.79175 0.14588 0.45281 0.0
O117 O 0.80406 0.17687 0.45822 0.0
C118 C 0.8006 0.16095 0.47246 0.0
C119 C 0.8063 0.22833 0.37637 0.0
C120 C 0.75444 0.16216 0.39506 0.0
C121 C 0.8091 0.17259 0.34202 0.0
O122 O 0.80627 0.18651 0.34413 0.0
O123 O 0.80407 0.16057 0.36767 0.0
O124 O 0.79548 0.21668 0.35198 0.0
O125 O 0.8095 0.22135 0.40523 0.0
O126 O 0.93937 0.50181 0.25686 0.0
Cd127 Cd 0.95829 0.49241 0.24758 0.0
Cd128 Cd 0.92859 0.45919 0.28169 0.0
O129 O 0.91544 0.47504 0.27725 0.0
O130 O 0.9751 0.5081 0.20699 0.0
O131 O 0.95629 0.47707 0.20303 0.0
C132 C 0.96852 0.4928 0.1879 0.0
C133 C 0.90829 0.42647 0.28954 0.0
C134 C 0.92248 0.49235 0.26859 0.0
C135 C 0.96774 0.48228 0.31858 0.0
O136 O 0.95076 0.46874 0.3177 0.0
O137 O 0.97452 0.49378 0.29205 0.0
O138 O 0.90994 0.43858 0.31364 0.0
O139 O 0.91765 0.43285 0.25963 0.0
O140 O 0.49613 0.44129 0.25339 0.0
Cd141 Cd 0.50875 0.47031 0.24711 0.0
Cd142 Cd 0.53877 0.46837 0.27409 0.0
O143 O 0.52252 0.44042 0.25951 0.0
O144 O 0.49359 0.47485 0.21005 0.0
O145 O 0.52354 0.48281 0.20164 0.0
C146 C 0.50826 0.48185 0.18912 0.0
C147 C 0.57173 0.48205 0.27485 0.0
C148 C 0.50462 0.43188 0.25647 0.0
C149 C 0.51948 0.48406 0.32193 0.0
O150 O 0.52986 0.4766 0.31927 0.0
O151 O 0.51077 0.48516 0.29417 0.0
O152 O 0.56098 0.46781 0.29501 0.0
O153 O 0.5638 0.48814 0.25242 0.0
O154 O 0.55598 0.05226 0.2518 0.0
Cd155 Cd 0.52735 0.03429 0.24495 0.0
Cd156 Cd 0.52515 0.06497 0.2797 0.0
O157 O 0.55402 0.07646 0.27374 0.0
O158 O 0.52339 0.01589 0.20545 0.0
O159 O 0.51476 0.03761 0.2007 0.0
C160 C 0.51598 0.02379 0.18629 0.0
C161 C 0.51491 0.08692 0.28894 0.0
C162 C 0.56387 0.06918 0.26352 0.0
C163 C 0.50736 0.02567 0.31595 0.0
O164 O 0.51094 0.04269 0.31507 0.0
O165 O 0.51259 0.01895 0.29018 0.0
O166 O 0.52501 0.08431 0.31245 0.0
O167 O 0.51118 0.07765 0.25873 0.0
O168 O 0.50306 0.94212 0.74754 0.0
Cd169 Cd 0.48807 0.95624 0.75367 0.0
Cd170 Cd 0.45938 0.92291 0.73254 0.0
O171 O 0.4778 0.91367 0.74652 0.0
O172 O 0.50052 0.97665 0.79082 0.0
O173 O 0.47244 0.951 0.79889 0.0
C174 C 0.48608 0.96674 0.81155 0.0
C175 C 0.4267 0.9024 0.73561 0.0
C176 C 0.49569 0.92421 0.74707 0.0
C177 C 0.4741 0.95585 0.6802 0.0
O178 O 0.46526 0.9381 0.68514 0.0
O179 O 0.48322 0.9669 0.70632 0.0
O180 O 0.43738 0.89908 0.71485 0.0
O181 O 0.43476 0.91675 0.75729 0.0
O182 O 0.06104 0.56389 0.75489 0.0
Cd183 Cd 0.04368 0.53481 0.75812 0.0
Cd184 Cd 0.07542 0.53683 0.73294 0.0
O185 O 0.08806 0.5641 0.75193 0.0
O186 O 0.02352 0.53066 0.79381 0.0
O187 O 0.04387 0.5206 0.80288 0.0
C188 C 0.02999 0.52249 0.81477 0.0
C189 C 0.09221 0.5205 0.7333 0.0
C190 C 0.07903 0.57299 0.75434 0.0
C191 C 0.04251 0.52472 0.68149 0.0
O192 O 0.06026 0.53217 0.68566 0.0
O193 O 0.03183 0.52169 0.70893 0.0
O194 O 0.09779 0.53571 0.71464 0.0
O195 O 0.0774 0.51484 0.75349 0.0
O196 O 0.43741 0.49915 0.74941 0.0
Cd197 Cd 0.46639 0.51194 0.75635 0.0
Cd198 Cd 0.46464 0.54208 0.7311 0.0
O199 O 0.43637 0.52547 0.74323 0.0
O200 O 0.47108 0.49691 0.79346 0.0
O201 O 0.4786 0.52674 0.80196 0.0
C202 C 0.47786 0.51156 0.81446 0.0
C203 C 0.47879 0.57506 0.73393 0.0
C204 C 0.42792 0.50755 0.74582 0.0
C205 C 0.48094 0.52378 0.68227 0.0
O206 O 0.47364 0.53427 0.68552 0.0
O207 O 0.4815 0.51441 0.70944 0.0
O208 O 0.46491 0.56509 0.71236 0.0
O209 O 0.48414 0.56627 0.75585 0.0
O210 O 0.61117 0.84303 0.60227 0.0
Cd211 Cd 0.62839 0.83132 0.59872 0.0
Cd212 Cd 0.59651 0.79965 0.62164 0.0
O213 O 0.58454 0.8161 0.60993 0.0
O214 O 0.64865 0.84645 0.56262 0.0
O215 O 0.62701 0.81637 0.55412 0.0
C216 C 0.64139 0.83168 0.54189 0.0
C217 C 0.57774 0.76676 0.61651 0.0
C218 C 0.59329 0.83396 0.60588 0.0
C219 C 0.63014 0.81872 0.67315 0.0
O220 O 0.61281 0.80673 0.66792 0.0
O221 O 0.64012 0.82973 0.64762 0.0
O222 O 0.57361 0.77631 0.63874 0.0
O223 O 0.59217 0.77592 0.59545 0.0
O224 O 0.16058 0.7645 0.59149 0.0
Cd225 Cd 0.17355 0.79367 0.58764 0.0
Cd226 Cd 0.20243 0.79021 0.6118 0.0
O227 O 0.18676 0.76303 0.59278 0.0
O228 O 0.15878 0.79948 0.55183 0.0
O229 O 0.18851 0.80678 0.54272 0.0
C230 C 0.17343 0.80647 0.53081 0.0
C231 C 0.23549 0.80523 0.61267 0.0
C232 C 0.16883 0.75477 0.59135 0.0
C233 C 0.18312 0.80384 0.66377 0.0
O234 O 0.19265 0.79558 0.65927 0.0
O235 O 0.17574 0.80733 0.6365 0.0
O236 O 0.22513 0.79012 0.63108 0.0
O237 O 0.22708 0.81136 0.59154 0.0
O238 O 0.23279 0.39458 0.5944 0.0
Cd239 Cd 0.20361 0.37831 0.58912 0.0
Cd240 Cd 0.20643 0.41025 0.61288 0.0
O241 O 0.23374 0.422 0.59449 0.0
O242 O 0.19787 0.35805 0.55243 0.0
O243 O 0.19139 0.38107 0.54371 0.0
C244 C 0.19148 0.36626 0.53136 0.0
C245 C 0.19047 0.42736 0.61138 0.0
C246 C 0.24228 0.41258 0.59397 0.0
C247 C 0.19233 0.37753 0.66474 0.0
O248 O 0.20099 0.39536 0.66064 0.0
O249 O 0.18898 0.36678 0.63731 0.0
O250 O 0.20571 0.43302 0.62996 0.0
O251 O 0.1847 0.41241 0.59154 0.0
H252 H 0.18005 0.38195 0.47802 0.0
H253 H 0.17214 0.37161 0.41459 0.0
H254 H 0.18176 0.32507 0.43551 0.0
H255 H 0.18944 0.33515 0.49883 0.0
H256 H 0.19334 0.36945 0.36246 0.0
H257 H 0.15357 0.28769 0.3818 0.0
H258 H 0.13204 0.26396 0.42613 0.0
H259 H 0.1139 0.30231 0.46295 0.0
H260 H 0.1351 0.32616 0.41852 0.0
H261 H 0.19575 0.3258 0.19884 0.0
H262 H 0.19763 0.33585 0.26199 0.0
H263 H 0.13692 0.31108 0.26492 0.0
H264 H 0.13492 0.30022 0.20196 0.0
H265 H 0.14745 0.30362 0.32539 0.0
H266 H 0.1688 0.3608 0.25797 0.0
H267 H 0.18803 0.3854 0.2129 0.0
H268 H 0.23865 0.39797 0.27105 0.0
H269 H 0.21975 0.37327 0.31623 0.0
C270 C 0.18027 0.36938 0.46922 0.0
C271 C 0.18536 0.35937 0.49358 0.0
C272 C 0.17581 0.36353 0.43289 0.0
C273 C 0.17621 0.34748 0.42022 0.0
C274 C 0.18104 0.33733 0.44466 0.0
C275 C 0.18552 0.34317 0.48091 0.0
C276 C 0.17241 0.34176 0.38117 0.0
C277 C 0.18324 0.35507 0.35436 0.0
C278 C 0.15898 0.32311 0.37039 0.0
C279 C 0.14607 0.30878 0.39703 0.0
C280 C 0.14493 0.29104 0.39925 0.0
C281 C 0.13279 0.27757 0.42442 0.0
C282 C 0.12165 0.28165 0.44742 0.0
C283 C 0.12259 0.29919 0.44523 0.0
C284 C 0.13469 0.3127 0.42009 0.0
C285 C 0.18278 0.32252 0.21286 0.0
C286 C 0.16518 0.3123 0.19527 0.0
C287 C 0.18388 0.32839 0.249 0.0
C288 C 0.16746 0.32461 0.26823 0.0
C289 C 0.14983 0.31426 0.25077 0.0
C290 C 0.14869 0.30809 0.21471 0.0
C291 C 0.16873 0.33119 0.30665 0.0
C292 C 0.15745 0.31803 0.3334 0.0
C293 C 0.18146 0.35011 0.3173 0.0
C294 C 0.19286 0.36509 0.29034 0.0
C295 C 0.18404 0.36874 0.26103 0.0
C296 C 0.19488 0.38271 0.23548 0.0
C297 C 0.21455 0.39321 0.23907 0.0
C298 C 0.22342 0.38981 0.26829 0.0
C299 C 0.21264 0.37585 0.29391 0.0
H300 H 0.22292 0.40402 0.21925 0.0
H301 H 0.11227 0.2712 0.46689 0.0
H302 H 0.67046 0.86233 0.50851 0.0
H303 H 0.68074 0.86514 0.44531 0.0
H304 H 0.6396 0.80639 0.42709 0.0
H305 H 0.62893 0.80355 0.49034 0.0
H306 H 0.69577 0.84963 0.40415 0.0
H307 H 0.62239 0.80145 0.3403 0.0
H308 H 0.58868 0.78986 0.3535 0.0
H309 H 0.60389 0.83946 0.41766 0.0
H310 H 0.63764 0.85144 0.40445 0.0
H311 H 0.70857 0.84171 0.21355 0.0
H312 H 0.69846 0.83364 0.27706 0.0
H313 H 0.66988 0.866 0.27123 0.0
H314 H 0.67959 0.8738 0.20784 0.0
H315 H 0.64843 0.83412 0.30601 0.0
H316 H 0.71359 0.88362 0.31229 0.0
H317 H 0.74777 0.8988 0.2994 0.0
H318 H 0.74986 0.85267 0.35109 0.0
H319 H 0.71562 0.8371 0.36388 0.0
C320 C 0.66367 0.84993 0.4912 0.0
C321 C 0.64876 0.83274 0.50447 0.0
C322 C 0.66962 0.85156 0.45502 0.0
C323 C 0.66082 0.83606 0.43122 0.0
C324 C 0.64643 0.81864 0.44475 0.0
C325 C 0.64039 0.81701 0.48098 0.0
C326 C 0.66624 0.8385 0.392 0.0
C327 C 0.68538 0.84609 0.3827 0.0
C328 C 0.65278 0.83418 0.36389 0.0
C329 C 0.63253 0.82721 0.37174 0.0
C330 C 0.61852 0.80989 0.35715 0.0
C331 C 0.59941 0.80326 0.36464 0.0
C332 C 0.59415 0.81388 0.38652 0.0
C333 C 0.60798 0.83121 0.40084 0.0
C334 C 0.6271 0.83792 0.3934 0.0
C335 C 0.70008 0.84705 0.22578 0.0
C336 C 0.69495 0.85846 0.20561 0.0
C337 C 0.69436 0.84248 0.26214 0.0
C338 C 0.68353 0.84935 0.27911 0.0
C339 C 0.67818 0.86049 0.25879 0.0
C340 C 0.68382 0.865 0.22251 0.0
C341 C 0.67797 0.84529 0.31815 0.0
C342 C 0.65879 0.83739 0.32742 0.0
C343 C 0.69145 0.84975 0.34626 0.0
C344 C 0.71202 0.8591 0.33866 0.0
C345 C 0.72132 0.87665 0.32065 0.0
C346 C 0.7407 0.88533 0.31341 0.0
C347 C 0.75097 0.87668 0.32432 0.0
C348 C 0.74188 0.85934 0.34259 0.0
C349 C 0.72249 0.85058 0.34986 0.0
H350 H 0.76598 0.88343 0.3187 0.0
H351 H 0.57936 0.80872 0.39231 0.0
H352 H 0.14308 0.80573 0.49781 0.0
H353 H 0.14034 0.81338 0.43471 0.0
H354 H 0.19871 0.82963 0.41589 0.0
H355 H 0.20145 0.82157 0.47903 0.0
H356 H 0.15606 0.84366 0.39353 0.0
H357 H 0.20321 0.81718 0.32918 0.0
H358 H 0.21402 0.79441 0.3421 0.0
H359 H 0.1642 0.76084 0.40619 0.0
H360 H 0.153 0.78327 0.39326 0.0
H361 H 0.16242 0.86433 0.20344 0.0
H362 H 0.17091 0.86234 0.26667 0.0
H363 H 0.14009 0.80138 0.25976 0.0
H364 H 0.13215 0.8033 0.1965 0.0
H365 H 0.1709 0.81149 0.29502 0.0
H366 H 0.12185 0.82782 0.30206 0.0
H367 H 0.10688 0.84708 0.28967 0.0
H368 H 0.15343 0.89503 0.34111 0.0
H369 H 0.16879 0.8761 0.35342 0.0
C370 C 0.15541 0.81107 0.48039 0.0
C371 C 0.17246 0.8129 0.49345 0.0
C372 C 0.15383 0.81551 0.44427 0.0
C373 C 0.16923 0.82188 0.42031 0.0
C374 C 0.18652 0.82445 0.43365 0.0
C375 C 0.1881 0.81992 0.46982 0.0
C376 C 0.16679 0.82495 0.38113 0.0
C377 C 0.15945 0.83674 0.37198 0.0
C378 C 0.17088 0.81569 0.35291 0.0
C379 C 0.17741 0.80203 0.36062 0.0
C380 C 0.19456 0.80492 0.34596 0.0
C381 C 0.20075 0.79207 0.35328 0.0
C382 C 0.18984 0.77623 0.37507 0.0
C383 C 0.17268 0.77316 0.38945 0.0
C384 C 0.16641 0.78594 0.38217 0.0
C385 C 0.15754 0.85052 0.21538 0.0
C386 C 0.14656 0.83398 0.19493 0.0
C387 C 0.16233 0.84939 0.25161 0.0
C388 C 0.15596 0.83169 0.26828 0.0
C389 C 0.14524 0.81521 0.24762 0.0
C390 C 0.14065 0.81633 0.2114 0.0
C391 C 0.16006 0.83014 0.30733 0.0
C392 C 0.16776 0.81865 0.31648 0.0
C393 C 0.15578 0.83924 0.3356 0.0
C394 C 0.14656 0.85062 0.32829 0.0
C395 C 0.12896 0.84251 0.31049 0.0
C396 C 0.12039 0.85336 0.30352 0.0
C397 C 0.12923 0.87228 0.31449 0.0
C398 C 0.14662 0.88038 0.33256 0.0
C399 C 0.15526 0.8696 0.33956 0.0
H400 H 0.12258 0.88065 0.30908 0.0
H401 H 0.19467 0.76631 0.38073 0.0
H402 H 0.34486 0.20901 0.52129 0.0
H403 H 0.33506 0.20106 0.58484 0.0
H404 H 0.35962 0.16502 0.58787 0.0
H405 H 0.37003 0.17334 0.52431 0.0
H406 H 0.31609 0.15223 0.6182 0.0
H407 H 0.38452 0.19569 0.62845 0.0
H408 H 0.41363 0.22539 0.61295 0.0
H409 H 0.38859 0.25755 0.65169 0.0
H410 H 0.35921 0.228 0.66687 0.0
H411 H 0.30373 0.13768 0.81038 0.0
H412 H 0.31514 0.14107 0.74756 0.0
H413 H 0.3272 0.19899 0.74652 0.0
H414 H 0.31701 0.19595 0.80977 0.0
H415 H 0.35374 0.19889 0.71402 0.0
H416 H 0.28638 0.15887 0.70316 0.0
H417 H 0.2551 0.13102 0.71541 0.0
H418 H 0.27466 0.09436 0.6752 0.0
H419 H 0.30614 0.122 0.66311 0.0
C420 C 0.3481 0.19929 0.53533 0.0
C421 C 0.35826 0.19182 0.51775 0.0
C422 C 0.34249 0.19479 0.57164 0.0
C423 C 0.34662 0.18247 0.59095 0.0
C424 C 0.35629 0.17454 0.57332 0.0
C425 C 0.36227 0.17935 0.53711 0.0
C426 C 0.34133 0.17855 0.62993 0.0
C427 C 0.32444 0.16219 0.63941 0.0
C428 C 0.35192 0.19192 0.65716 0.0
C429 C 0.36962 0.20965 0.6484 0.0
C430 C 0.38516 0.20909 0.6333 0.0
C431 C 0.40172 0.22589 0.62466 0.0
C432 C 0.40294 0.24334 0.63123 0.0
C433 C 0.38762 0.24402 0.64656 0.0
C434 C 0.37102 0.22726 0.65522 0.0
C435 C 0.30887 0.15112 0.79667 0.0
C436 C 0.30948 0.16654 0.815 0.0
C437 C 0.31527 0.15304 0.76061 0.0
C438 C 0.32179 0.17022 0.74173 0.0
C439 C 0.32235 0.18559 0.76023 0.0
C440 C 0.31645 0.18383 0.79647 0.0
C441 C 0.32823 0.17245 0.70295 0.0
C442 C 0.34536 0.18865 0.69325 0.0
C443 C 0.31757 0.1591 0.6754 0.0
C444 C 0.29867 0.14248 0.68263 0.0
C445 C 0.28405 0.14486 0.69718 0.0
C446 C 0.26628 0.12911 0.70405 0.0
C447 C 0.26291 0.11093 0.6962 0.0
C448 C 0.2773 0.10845 0.68134 0.0
C449 C 0.2951 0.12415 0.67445 0.0
H450 H 0.24914 0.09876 0.70153 0.0
H451 H 0.41577 0.25634 0.62452 0.0
H452 H 0.82572 0.18972 0.51686 0.0
H453 H 0.83328 0.18729 0.58077 0.0
H454 H 0.7944 0.12716 0.57832 0.0
H455 H 0.78711 0.12936 0.51457 0.0
H456 H 0.79008 0.14826 0.639 0.0
H457 H 0.83757 0.13957 0.57552 0.0
H458 H 0.86439 0.1494 0.53332 0.0
H459 H 0.89759 0.1997 0.59648 0.0
H460 H 0.87084 0.19028 0.63878 0.0
H461 H 0.80423 0.11061 0.79867 0.0
H462 H 0.80077 0.11808 0.73592 0.0
H463 H 0.853 0.17134 0.74465 0.0
H464 H 0.85701 0.16337 0.80724 0.0
H465 H 0.85203 0.15791 0.68144 0.0
H466 H 0.80735 0.16741 0.74701 0.0
H467 H 0.7812 0.1601 0.78957 0.0
H468 H 0.74346 0.11246 0.72389 0.0
H469 H 0.76945 0.11932 0.68118 0.0
C470 C 0.81889 0.17598 0.52991 0.0
C471 C 0.80584 0.15973 0.51064 0.0
C472 C 0.82324 0.17461 0.56635 0.0
C473 C 0.81438 0.15704 0.58421 0.0
C474 C 0.80137 0.14085 0.56502 0.0
C475 C 0.79728 0.14214 0.52854 0.0
C476 C 0.81824 0.15539 0.62314 0.0
C477 C 0.80356 0.15022 0.64835 0.0
C478 C 0.83607 0.15873 0.63541 0.0
C479 C 0.85213 0.16434 0.61004 0.0
C480 C 0.85052 0.15282 0.58019 0.0
C481 C 0.86573 0.15829 0.5563 0.0
C482 C 0.88267 0.1752 0.56214 0.0
C483 C 0.88445 0.18663 0.59194 0.0
C484 C 0.86928 0.18123 0.61589 0.0
C485 C 0.81498 0.12393 0.78728 0.0
C486 C 0.83082 0.13647 0.80801 0.0
C487 C 0.81292 0.12827 0.75138 0.0
C488 C 0.82635 0.14553 0.73561 0.0
C489 C 0.84236 0.15798 0.75614 0.0
C490 C 0.84463 0.15344 0.79194 0.0
C491 C 0.82367 0.15029 0.6976 0.0
C492 C 0.83856 0.15612 0.67245 0.0
C493 C 0.80612 0.14797 0.68547 0.0
C494 C 0.7904 0.1438 0.71103 0.0
C495 C 0.7935 0.1553 0.74177 0.0
C496 C 0.7787 0.15125 0.7659 0.0
C497 C 0.76069 0.13581 0.75948 0.0
C498 C 0.75743 0.12441 0.72885 0.0
C499 C 0.77218 0.12839 0.70463 0.0
H500 H 0.74925 0.13269 0.7782 0.0
H501 H 0.89442 0.17941 0.54362 0.0
H502 H 0.8614 0.66404 0.8147 0.0
H503 H 0.85405 0.65546 0.7507 0.0
H504 H 0.84161 0.70059 0.73622 0.0
H505 H 0.84854 0.70901 0.80073 0.0
H506 H 0.8168 0.67015 0.69924 0.0
H507 H 0.88415 0.70582 0.70881 0.0
H508 H 0.91555 0.7143 0.73334 0.0
H509 H 0.90733 0.66008 0.70123 0.0
H510 H 0.87575 0.65117 0.67693 0.0
H511 H 0.85562 0.66849 0.50314 0.0
H512 H 0.8597 0.68001 0.5657 0.0
H513 H 0.80706 0.63061 0.59586 0.0
H514 H 0.80263 0.61926 0.53292 0.0
H515 H 0.8651 0.66605 0.62392 0.0
H516 H 0.78777 0.63992 0.66965 0.0
H517 H 0.75777 0.6349 0.64341 0.0
H518 H 0.78846 0.6764 0.56093 0.0
H519 H 0.81864 0.68186 0.58696 0.0
C520 C 0.85702 0.67212 0.798 0.0
C521 C 0.85571 0.68732 0.8128 0.0
C522 C 0.85287 0.66722 0.76132 0.0
C523 C 0.84759 0.67758 0.7384 0.0
C524 C 0.84571 0.69242 0.75331 0.0
C525 C 0.84973 0.69725 0.79018 0.0
C526 C 0.84458 0.67319 0.69875 0.0
C527 C 0.82735 0.66926 0.68274 0.0
C528 C 0.8585 0.67244 0.67691 0.0
C529 C 0.87752 0.67777 0.69133 0.0
C530 C 0.88898 0.69566 0.7072 0.0
C531 C 0.90682 0.70055 0.72103 0.0
C532 C 0.91341 0.68772 0.71892 0.0
C533 C 0.90219 0.67 0.70288 0.0
C534 C 0.88434 0.66502 0.68904 0.0
C535 C 0.84477 0.66018 0.52296 0.0
C536 C 0.8288 0.64294 0.51302 0.0
C537 C 0.84716 0.66677 0.5588 0.0
C538 C 0.83369 0.65626 0.58564 0.0
C539 C 0.81753 0.63918 0.57564 0.0
C540 C 0.81503 0.63265 0.53962 0.0
C541 C 0.83716 0.66267 0.62434 0.0
C542 C 0.85451 0.66696 0.64027 0.0
C543 C 0.82353 0.6642 0.64576 0.0
C544 C 0.80546 0.66115 0.63007 0.0
C545 C 0.78812 0.64802 0.646 0.0
C546 C 0.77108 0.64509 0.63114 0.0
C547 C 0.77121 0.65528 0.60045 0.0
C548 C 0.78838 0.66847 0.58462 0.0
C549 C 0.80545 0.67146 0.59938 0.0
H550 H 0.758 0.65298 0.58898 0.0
H551 H 0.92722 0.69154 0.72964 0.0
H552 H 0.98526 0.52367 0.14356 0.0
H553 H 0.99435 0.52499 0.07964 0.0
H554 H 0.97499 0.46525 0.08142 0.0
H555 H 0.96528 0.46364 0.14535 0.0
H556 H 0.01763 0.49928 0.04949 0.0
H557 H 0.94821 0.46612 0.03961 0.0
H558 H 0.91724 0.46291 0.05427 0.0
H559 H 0.9358 0.5184 0.01119 0.0
H560 H 0.967 0.52203 0.99681 0.0
H561 H 0.03175 0.49615 0.85863 0.0
H562 H 0.01988 0.48744 0.92104 0.0
H563 H 0.00039 0.52784 0.91816 0.0
H564 H 0.01111 0.53561 0.85534 0.0
H565 H 0.97592 0.49992 0.95186 0.0
H566 H 0.04367 0.53531 0.96249 0.0
H567 H 0.07652 0.54295 0.95086 0.0
H568 H 0.06415 0.48922 0.99498 0.0
H569 H 0.03115 0.48117 0.00648 0.0
C570 C 0.98297 0.5108 0.13045 0.0
C571 C 0.97452 0.49353 0.14952 0.0
C572 C 0.98816 0.51159 0.09393 0.0
C573 C 0.98531 0.49523 0.07592 0.0
C574 C 0.97726 0.47802 0.09495 0.0
C575 C 0.97169 0.47712 0.13137 0.0
C576 C 0.99053 0.49628 0.03697 0.0
C577 C 0.00842 0.49904 0.02792 0.0
C578 C 0.97876 0.49667 0.00922 0.0
C579 C 0.95998 0.49442 0.01753 0.0
C580 C 0.94575 0.47771 0.03363 0.0
C581 C 0.92814 0.47579 0.04179 0.0
C582 C 0.92457 0.49046 0.03377 0.0
C583 C 0.93859 0.50706 0.01744 0.0
C584 C 0.95623 0.50904 0.00926 0.0
C585 C 0.0248 0.50304 0.87132 0.0
C586 C 0.02236 0.51656 0.85208 0.0
C587 C 0.01814 0.49817 0.90714 0.0
C588 C 0.0095 0.50721 0.92489 0.0
C589 C 0.00691 0.52056 0.90534 0.0
C590 C 0.0131 0.52505 0.86933 0.0
C591 C 0.00325 0.50304 0.96374 0.0
C592 C 0.98516 0.49985 0.97302 0.0
C593 C 0.01509 0.50274 0.99181 0.0
C594 C 0.0349 0.50755 0.98494 0.0
C595 C 0.04793 0.52507 0.96946 0.0
C596 C 0.06658 0.52948 0.96294 0.0
C597 C 0.0724 0.51655 0.97207 0.0
C598 C 0.0596 0.4992 0.98785 0.0
C599 C 0.04093 0.49471 0.9944 0.0
H600 H 0.08684 0.52 0.967 0.0
H601 H 0.91093 0.48895 0.04011 0.0
H602 H 0.47688 0.47688 0.15302 0.0
H603 H 0.47439 0.48435 0.08972 0.0
H604 H 0.5346 0.50808 0.07635 0.0
H605 H 0.53709 0.50004 0.13964 0.0
H606 H 0.487 0.51463 0.05121 0.0
H607 H 0.54421 0.50093 0.98949 0.0
H608 H 0.55946 0.48192 1.00196 0.0
H609 H 0.51003 0.44117 0.05984 0.0
H610 H 0.49442 0.45981 0.04733 0.0
H611 H 0.49542 0.54038 0.86419 0.0
H612 H 0.50355 0.53803 0.92748 0.0
H613 H 0.48118 0.47803 0.91367 0.0
H614 H 0.47361 0.48039 0.85035 0.0
H615 H 0.51156 0.49133 0.95238 0.0
H616 H 0.45567 0.49688 0.95605 0.0
H617 H 0.43624 0.51164 0.94353 0.0
H618 H 0.47593 0.56149 1.00184 0.0
H619 H 0.49573 0.54709 0.01431 0.0
C620 C 0.48964 0.48377 0.13673 0.0
C621 C 0.50718 0.48774 0.15137 0.0
C622 C 0.48819 0.48809 0.10047 0.0
C623 C 0.50425 0.49659 0.07796 0.0
C624 C 0.52193 0.5012 0.09288 0.0
C625 C 0.52336 0.49668 0.12914 0.0
C626 C 0.50222 0.50005 0.03877 0.0
C627 C 0.4925 0.50964 0.02964 0.0
C628 C 0.50908 0.49329 0.01042 0.0
C629 C 0.51826 0.48189 0.01784 0.0
C630 C 0.5366 0.48789 0.0048 0.0
C631 C 0.5453 0.47718 0.01188 0.0
C632 C 0.53575 0.46039 0.0318 0.0
C633 C 0.51744 0.45422 0.04455 0.0
C634 C 0.50867 0.46486 0.03751 0.0
C635 C 0.49238 0.52672 0.87459 0.0
C636 C 0.48379 0.51057 0.85223 0.0
C637 C 0.49695 0.52537 0.91085 0.0
C638 C 0.49275 0.50779 0.92564 0.0
C639 C 0.48461 0.49176 0.90301 0.0
C640 C 0.48022 0.49313 0.86675 0.0
C641 C 0.49626 0.50582 0.96483 0.0
C642 C 0.50629 0.49655 0.97396 0.0
C643 C 0.48915 0.51232 0.99318 0.0
C644 C 0.47728 0.521 0.98574 0.0
C645 C 0.46033 0.51104 0.96596 0.0
C646 C 0.44924 0.51933 0.95891 0.0
C647 C 0.45488 0.53751 0.97178 0.0
C648 C 0.4716 0.54742 0.99182 0.0
C649 C 0.48276 0.5392 0.9989 0.0
H650 H 0.44627 0.5439 0.96631 0.0
H651 H 0.54252 0.45213 0.03728 0.0
H652 H 0.51414 0.0445 0.12955 0.0
H653 H 0.50653 0.03464 0.06596 0.0
H654 H 0.49512 0.97857 0.09475 0.0
H655 H 0.50392 0.98881 0.15775 0.0
H656 H 0.51392 0.98721 0.03788 0.0
H657 H 0.45932 0.99099 0.07063 0.0
H658 H 0.44125 0.00536 0.09507 0.0
H659 H 0.46573 0.04923 0.01438 0.0
H660 H 0.48415 0.03526 0.98972 0.0
H661 H 0.46633 0.94465 0.86944 0.0
H662 H 0.46878 0.95434 0.93343 0.0
H663 H 0.50737 0.01217 0.90311 0.0
H664 H 0.5055 0.00254 0.83926 0.0
H665 H 0.47334 0.0018 0.95943 0.0
H666 H 0.52964 0.99692 0.93148 0.0
H667 H 0.54498 0.97972 0.90726 0.0
H668 H 0.51284 0.93388 0.98121 0.0
H669 H 0.49708 0.95072 0.00546 0.0
C670 C 0.50983 0.03003 0.12228 0.0
C671 C 0.50963 0.01742 0.14855 0.0
C672 C 0.50535 0.02433 0.08591 0.0
C673 C 0.49995 0.00572 0.07532 0.0
C674 C 0.49929 0.99302 0.10194 0.0
C675 C 0.50426 0.99885 0.13804 0.0
C676 C 0.49602 -0.00028 0.03634 0.0
C677 C 0.50479 0.99022 0.02112 0.0
C678 C 0.4843 0.00373 0.01383 0.0
C679 C 0.47325 0.01217 0.02856 0.0
C680 C 0.46095 0.00378 0.05826 0.0
C681 C 0.45063 0.01184 0.07213 0.0
C682 C 0.45238 0.02822 0.05635 0.0
C683 C 0.46441 0.03655 0.0266 0.0
C684 C 0.47478 0.02856 0.01265 0.0
C685 C 0.47513 0.95947 0.87634 0.0
C686 C 0.48578 0.97283 0.84939 0.0
C687 C 0.47651 0.96496 0.91285 0.0
C688 C 0.48824 0.98395 0.92285 0.0
C689 C 0.4982 0.99747 0.89582 0.0
C690 C 0.49717 0.99192 0.85944 0.0
C691 C 0.49123 0.98946 0.96176 0.0
C692 C 0.48234 0.99883 0.97668 0.0
C693 C 0.50246 0.98499 0.98428 0.0
C694 C 0.51203 0.97496 0.96993 0.0
C695 C 0.5257 0.98309 0.94229 0.0
C696 C 0.53451 0.97343 0.92863 0.0
C697 C 0.52984 0.95569 0.9426 0.0
C698 C 0.51641 0.9476 0.97036 0.0
C699 C 0.50755 0.9572 0.98408 0.0
H700 H 0.53667 0.94823 0.93199 0.0
H701 H 0.44438 0.03444 0.06712 0.0
H702 H 0.1259 0.29329 0.97119 0.0
H703 H 0.1312 0.3074 0.91085 0.0
H704 H 0.18582 0.35257 0.94487 0.0
H705 H 0.18071 0.33843 0.00581 0.0
H706 H 0.16403 0.36348 0.8964 0.0
H707 H 0.18482 0.31745 0.90644 0.0
H708 H 0.17979 0.28597 0.92231 0.0
H709 H 0.13517 0.26037 0.84321 0.0
H710 H 0.13948 0.29172 0.82781 0.0
H711 H 0.20902 0.39519 0.72781 0.0
H712 H 0.20019 0.38347 0.78969 0.0
H713 H 0.15411 0.33107 0.74841 0.0
H714 H 0.16359 0.34252 0.68579 0.0
H715 H 0.16971 0.32345 0.80101 0.0
H716 H 0.14766 0.36721 0.78879 0.0
H717 H 0.14928 0.39745 0.77384 0.0
H718 H 0.19231 0.42583 0.855 0.0
H719 H 0.19114 0.3958 0.87011 0.0
C720 C 0.13895 0.30641 0.96621 0.0
C721 C 0.15304 0.31458 0.99323 0.0
C722 C 0.14191 0.31445 0.93164 0.0
C723 C 0.159 0.33083 0.92332 0.0
C724 C 0.17255 0.33986 0.95086 0.0
C725 C 0.16962 0.33176 0.98561 0.0
C726 C 0.16335 0.33731 0.88505 0.0
C727 C 0.16551 0.3549 0.87553 0.0
C728 C 0.16456 0.32571 0.85773 0.0
C729 C 0.16235 0.30692 0.86625 0.0
C730 C 0.17383 0.30511 0.89263 0.0
C731 C 0.17112 0.28727 0.90153 0.0
C732 C 0.15719 0.27115 0.88373 0.0
C733 C 0.14595 0.27286 0.85699 0.0
C734 C 0.14849 0.29066 0.84823 0.0
C735 C 0.19697 0.38116 0.73184 0.0
C736 C 0.18687 0.36981 0.70196 0.0
C737 C 0.19184 0.37452 0.76733 0.0
C738 C 0.17614 0.35658 0.77392 0.0
C739 C 0.16619 0.34503 0.74407 0.0
C740 C 0.1716 0.35155 0.70833 0.0
C741 C 0.17055 0.34982 0.81198 0.0
C742 C 0.16816 0.33212 0.82162 0.0
C743 C 0.16874 0.36118 0.83922 0.0
C744 C 0.16942 0.37927 0.83038 0.0
C745 C 0.15756 0.37992 0.80329 0.0
C746 C 0.15839 0.39702 0.79481 0.0
C747 C 0.17092 0.41355 0.8134 0.0
C748 C 0.18262 0.41301 0.8406 0.0
C749 C 0.18187 0.39595 0.84917 0.0
H750 H 0.17154 0.42678 0.80679 0.0
H751 H 0.1551 0.25734 0.89062 0.0
H752 H 0.61633 0.79256 0.72745 0.0
H753 H 0.62614 0.79696 0.7911 0.0
H754 H 0.67067 0.85378 0.76731 0.0
H755 H 0.66119 0.84927 0.70307 0.0
H756 H 0.68279 0.83782 0.81423 0.0
H757 H 0.62845 0.84537 0.8058 0.0
H758 H 0.59581 0.83652 0.78877 0.0
H759 H 0.57419 0.78667 0.85515 0.0
H760 H 0.60671 0.79512 0.87235 0.0
H761 H 0.67249 0.86205 0.01127 0.0
H762 H 0.6589 0.85518 0.9498 0.0
H763 H 0.67698 0.81414 0.93522 0.0
H764 H 0.69084 0.82118 0.99607 0.0
H765 H 0.63386 0.82513 0.90772 0.0
H766 H 0.69898 0.82204 0.85411 0.0
H767 H 0.73216 0.83362 0.8719 0.0
H768 H 0.73344 0.88018 0.92905 0.0
H769 H 0.7004 0.86905 0.91111 0.0
C770 C 0.62836 0.80593 0.73564 0.0
C771 C 0.6379 0.82064 0.7103 0.0
C772 C 0.63387 0.80846 0.77211 0.0
C773 C 0.64881 0.82586 0.78417 0.0
C774 C 0.65899 0.84027 0.75863 0.0
C775 C 0.65361 0.83767 0.72193 0.0
C776 C 0.65349 0.82908 0.82355 0.0
C777 C 0.67208 0.83504 0.8346 0.0
C778 C 0.63961 0.82586 0.8502 0.0
C779 C 0.62002 0.82081 0.84014 0.0
C780 C 0.61674 0.83247 0.8166 0.0
C781 C 0.59826 0.82753 0.80694 0.0
C782 C 0.58294 0.81103 0.82077 0.0
C783 C 0.58607 0.79945 0.84442 0.0
C784 C 0.60452 0.80432 0.85419 0.0
C785 C 0.673 0.85112 0.9954 0.0
C786 C 0.68295 0.84234 0.00821 0.0
C787 C 0.6653 0.84726 0.96024 0.0
C788 C 0.6674 0.83453 0.93767 0.0
C789 C 0.67558 0.82433 0.95192 0.0
C790 C 0.68341 0.8283 0.98677 0.0
C791 C 0.66299 0.83333 0.89827 0.0
C792 C 0.64451 0.82785 0.88726 0.0
C793 C 0.67707 0.83744 0.87157 0.0
C794 C 0.69715 0.84459 0.88153 0.0
C795 C 0.70638 0.83481 0.87027 0.0
C796 C 0.72516 0.84129 0.88042 0.0
C797 C 0.73488 0.85759 0.90169 0.0
C798 C 0.72588 0.86752 0.91267 0.0
C799 C 0.70713 0.86113 0.90253 0.0
H800 H 0.74939 0.86255 0.90961 0.0
H801 H 0.56865 0.80723 0.81323 0.0
H802 H 0.15689 0.81784 0.00838 0.0
H803 H 0.16473 0.81089 0.94776 0.0
H804 H 0.16312 0.85901 0.90354 0.0
H805 H 0.15565 0.86622 0.96339 0.0
H806 H 0.13971 0.82413 0.86679 0.0
H807 H 0.20381 0.86234 0.91195 0.0
H808 H 0.22987 0.87038 0.95523 0.0
H809 H 0.22595 0.81665 0.93546 0.0
H810 H 0.19966 0.80818 0.89242 0.0
H811 H 0.17176 0.82882 0.68581 0.0
H812 H 0.16731 0.83616 0.74854 0.0
H813 H 0.18266 0.79592 0.78875 0.0
H814 H 0.18778 0.78911 0.72663 0.0
H815 H 0.19873 0.82545 0.82912 0.0
H816 H 0.13577 0.78623 0.78544 0.0
H817 H 0.10864 0.77584 0.7438 0.0
H818 H 0.10845 0.82768 0.76282 0.0
H819 H 0.13576 0.8385 0.80423 0.0
C820 C 0.15854 0.82711 0.98587 0.0
C821 C 0.1555 0.84249 0.99076 0.0
C822 C 0.16298 0.82311 0.9513 0.0
C823 C 0.16434 0.83439 0.92125 0.0
C824 C 0.162 0.85009 0.92637 0.0
C825 C 0.15777 0.85419 0.96073 0.0
C826 C 0.16717 0.82942 0.88394 0.0
C827 C 0.15268 0.82458 0.85836 0.0
C828 C 0.18382 0.82943 0.87347 0.0
C829 C 0.19963 0.83454 0.8993 0.0
C830 C 0.20838 0.85216 0.9171 0.0
C831 C 0.22322 0.85682 0.94153 0.0
C832 C 0.22952 0.84401 0.94818 0.0
C833 C 0.22103 0.82654 0.93034 0.0
C834 C 0.20617 0.82182 0.90591 0.0
C835 C 0.17418 0.82158 0.70808 0.0
C836 C 0.18016 0.80844 0.70127 0.0
C837 C 0.17157 0.82571 0.7439 0.0
C838 C 0.17445 0.81643 0.77343 0.0
C839 C 0.18042 0.80333 0.76654 0.0
C840 C 0.18331 0.79943 0.73091 0.0
C841 C 0.17131 0.82032 0.81157 0.0
C842 C 0.1857 0.82491 0.83739 0.0
C843 C 0.15438 0.81971 0.8225 0.0
C844 C 0.13793 0.81325 0.79765 0.0
C845 C 0.13003 0.79547 0.78053 0.0
C846 C 0.11461 0.7895 0.757 0.0
C847 C 0.10686 0.80111 0.75059 0.0
C848 C 0.11449 0.81871 0.76777 0.0
C849 C 0.12993 0.82477 0.7913 0.0
H850 H 0.09491 0.79646 0.73237 0.0
H851 H 0.24101 0.84764 0.96709 0.0
H852 H 0.39121 0.20805 0.28277 0.0
H853 H 0.37832 0.1996 0.22145 0.0
H854 H 0.32314 0.16141 0.26554 0.0
H855 H 0.33595 0.1702 0.32786 0.0
H856 H 0.34046 0.14777 0.20433 0.0
H857 H 0.32412 0.19545 0.23542 0.0
H858 H 0.33098 0.22655 0.25895 0.0
H859 H 0.3736 0.25435 0.17689 0.0
H860 H 0.3672 0.22339 0.15322 0.0
H861 H 0.28736 0.12896 0.04314 0.0
H862 H 0.30089 0.13552 0.10374 0.0
H863 H 0.34839 0.18768 0.06549 0.0
H864 H 0.3344 0.18153 1.00433 0.0
H865 H 0.33524 0.19414 0.12485 0.0
H866 H 0.35252 0.14846 0.0921 0.0
H867 H 0.34833 0.11836 0.0682 0.0
H868 H 0.30751 0.08779 0.15179 0.0
H869 H 0.31126 0.11769 0.17592 0.0
C870 C 0.37631 0.19782 0.27961 0.0
C871 C 0.36457 0.18971 0.31018 0.0
C872 C 0.36899 0.19307 0.24451 0.0
C873 C 0.34985 0.17992 0.23911 0.0
C874 C 0.338 0.1716 0.26938 0.0
C875 C 0.34528 0.17666 0.30481 0.0
C876 C 0.34255 0.17507 0.2015 0.0
C877 C 0.33891 0.15768 0.18701 0.0
C878 C 0.3415 0.18847 0.17873 0.0
C879 C 0.34531 0.2071 0.19279 0.0
C880 C 0.33509 0.20819 0.22262 0.0
C881 C 0.33886 0.2258 0.23593 0.0
C882 C 0.35275 0.24242 0.21949 0.0
C883 C 0.36286 0.24147 0.18963 0.0
C884 C 0.35915 0.22389 0.17623 0.0
C885 C 0.30084 0.14174 0.04726 0.0
C886 C 0.30974 0.1548 0.01878 0.0
C887 C 0.30865 0.1454 0.08208 0.0
C888 C 0.32576 0.16202 0.08927 0.0
C889 C 0.33515 0.17475 0.06059 0.0
C890 C 0.32722 0.17117 0.02559 0.0
C891 C 0.33288 0.16663 0.1273 0.0
C892 C 0.33665 0.18407 0.14195 0.0
C893 C 0.33435 0.15337 0.15004 0.0
C894 C 0.33205 0.13533 0.13563 0.0
C895 C 0.34254 0.13531 0.10522 0.0
C896 C 0.34027 0.11829 0.09167 0.0
C897 C 0.32763 0.10117 0.10842 0.0
C898 C 0.31728 0.10106 0.13882 0.0
C899 C 0.31949 0.11805 0.15248 0.0
H900 H 0.3259 0.088 0.09788 0.0
H901 H 0.35565 0.25604 0.22983 0.0
H902 H 0.80617 0.12349 0.01081 0.0
H903 H 0.80042 0.12885 0.07369 0.0
H904 H 0.84889 0.18526 0.06939 0.0
H905 H 0.85529 0.17939 0.00715 0.0
H906 H 0.85277 0.16907 0.12403 0.0
H907 H 0.80055 0.17456 0.08098 0.0
H908 H 0.77109 0.16568 0.0474 0.0
H909 H 0.74186 0.11443 0.10966 0.0
H910 H 0.77121 0.12287 0.1433 0.0
H911 H 0.83359 0.19915 0.29481 0.0
H912 H 0.83863 0.19427 0.23097 0.0
H913 H 0.80329 0.13398 0.24476 0.0
H914 H 0.79851 0.13874 0.30908 0.0
H915 H 0.79242 0.15161 0.18675 0.0
H916 H 0.84633 0.14818 0.23033 0.0
H917 H 0.87609 0.1594 0.26443 0.0
H918 H 0.90239 0.21029 0.2006 0.0
H919 H 0.87268 0.1995 0.16646 0.0
C920 C 0.81513 0.13729 0.02282 0.0
C921 C 0.83115 0.15105 1.00418 0.0
C922 C 0.81187 0.14036 0.05892 0.0
C923 C 0.82426 0.15747 0.07657 0.0
C924 C 0.83924 0.17186 0.05662 0.0
C925 C 0.84278 0.16861 0.02091 0.0
C926 C 0.82306 0.1595 0.11666 0.0
C927 C 0.83959 0.16556 0.13751 0.0
C928 C 0.80582 0.15443 0.13468 0.0
C929 C 0.78814 0.14927 0.11442 0.0
C930 C 0.78788 0.16132 0.08731 0.0
C931 C 0.77119 0.15638 0.06831 0.0
C932 C 0.75463 0.13948 0.07633 0.0
C933 C 0.75471 0.1275 0.10344 0.0
C934 C 0.77136 0.13237 0.12252 0.0
C935 C 0.82737 0.18482 0.28451 0.0
C936 C 0.81572 0.16931 0.30686 0.0
C937 C 0.8302 0.18206 0.24805 0.0
C938 C 0.82121 0.16379 0.23321 0.0
C939 C 0.8103 0.14819 0.25583 0.0
C940 C 0.80776 0.15091 0.29259 0.0
C941 C 0.82207 0.16126 0.19349 0.0
C942 C 0.80552 0.15511 0.17291 0.0
C943 C 0.83933 0.16661 0.17561 0.0
C944 C 0.85722 0.1731 0.19607 0.0
C945 C 0.8584 0.16184 0.22379 0.0
C946 C 0.87527 0.16811 0.24307 0.0
C947 C 0.89111 0.18557 0.23475 0.0
C948 C 0.89011 0.19678 0.20705 0.0
C949 C 0.87326 0.19058 0.1877 0.0
H950 H 0.90416 0.19039 0.24971 0.0
H951 H 0.74172 0.13568 0.06159 0.0
H952 H 0.8563 0.6658 0.01151 0.0
H953 H 0.84692 0.65244 0.07267 0.0
H954 H 0.81111 0.67721 0.08224 0.0
H955 H 0.82117 0.69129 0.0219 0.0
H956 H 0.83166 0.68591 0.13873 0.0
H957 H 0.79351 0.62763 0.07559 0.0
H958 H 0.78654 0.6021 0.03162 0.0
H959 H 0.82595 0.5901 0.08603 0.0
H960 H 0.83334 0.61572 0.13007 0.0
H961 H 0.7862 0.60857 0.29133 0.0
H962 H 0.78918 0.6191 0.22834 0.0
H963 H 0.84499 0.66583 0.25136 0.0
H964 H 0.84185 0.65562 0.31496 0.0
H965 H 0.81214 0.62059 0.17836 0.0
H966 H 0.8554 0.70223 0.19398 0.0
H967 H 0.85891 0.72686 0.23743 0.0
H968 H 0.80252 0.69036 0.27684 0.0
H969 H 0.79859 0.66562 0.23332 0.0
C970 C 0.84603 0.66793 0.02631 0.0
C971 C 0.83947 0.67958 0.01207 0.0
C972 C 0.84067 0.66031 0.06131 0.0
C973 C 0.82829 0.66382 0.0822 0.0
C974 C 0.82081 0.67444 0.06688 0.0
C975 C 0.82645 0.68236 0.03229 0.0
C976 C 0.82438 0.65786 0.12099 0.0
C977 C 0.82729 0.67158 0.14731 0.0
C978 C 0.81853 0.63915 0.13234 0.0
C979 C 0.81409 0.62371 0.10594 0.0
C980 C 0.80079 0.61963 0.07802 0.0
C981 C 0.79675 0.60513 0.05311 0.0
C982 C 0.80583 0.59451 0.05598 0.0
C983 C 0.81894 0.59835 0.08382 0.0
C984 C 0.82304 0.61284 0.10879 0.0
C985 C 0.79902 0.62125 0.28314 0.0
C986 C 0.81381 0.63127 0.30811 0.0
C987 C 0.80073 0.6272 0.24705 0.0
C988 C 0.81729 0.64324 0.23503 0.0
C989 C 0.83195 0.65355 0.26009 0.0
C990 C 0.83016 0.64771 0.29644 0.0
C991 C 0.81941 0.64864 0.19596 0.0
C992 C 0.81635 0.63487 0.16967 0.0
C993 C 0.82461 0.66716 0.18453 0.0
C994 C 0.82679 0.68201 0.21063 0.0
C995 C 0.84373 0.69949 0.21184 0.0
C996 C 0.8458 0.71346 0.23649 0.0
C997 C 0.83097 0.71015 0.25997 0.0
C998 C 0.81403 0.69288 0.25875 0.0
C999 C 0.81188 0.67887 0.23413 0.0
H1000 H 0.83261 0.72099 0.27904 0.0
H1001 H 0.80268 0.58329 0.03667 0.0
H1002 H 0.0024 0.51265 0.3375 0.0
H1003 H 0.01686 0.51976 0.39838 0.0
H1004 H 0.9714 0.46675 0.4383 0.0
H1005 H 0.95708 0.45939 0.3781 0.0
H1006 H 0.97726 0.49919 0.47809 0.0
H1007 H 0.0124 0.47058 0.43005 0.0
H1008 H 0.03355 0.46746 0.38613 0.0
H1009 H 0.07739 0.52422 0.40985 0.0
H1010 H 0.05639 0.52777 0.45356 0.0
H1011 H 0.00708 0.49755 0.65903 0.0
H1012 H 0.99551 0.49007 0.59616 0.0
H1013 H 0.0489 0.53565 0.55728 0.0
H1014 H 0.06074 0.54243 0.61952 0.0
H1015 H 0.0395 0.50786 0.51548 0.0
H1016 H 0.00631 0.53791 0.5618 0.0
H1017 H 0.98597 0.54336 0.60391 0.0
H1018 H 0.93964 0.48768 0.58149 0.0
H1019 H 0.95979 0.4818 0.53959 0.0
C1020 C 0.99572 0.50234 0.35905 0.0
C1021 C 0.97849 0.48554 0.35294 0.0
C1022 C 0.00397 0.50645 0.3938 0.0
C1023 C 0.99505 0.49384 0.42281 0.0
C1024 C 0.97839 0.47672 0.41632 0.0
C1025 C 0.97027 0.47254 0.38176 0.0
C1026 C 0.00225 0.49883 0.46054 0.0
C1027 C 0.99079 0.50092 0.48647 0.0
C1028 C 0.02013 0.50166 0.47097 0.0
C1029 C 0.03275 0.49951 0.44477 0.0
C1030 C 0.02648 0.48246 0.42565 0.0
C1031 C 0.03846 0.4806 0.40085 0.0
C1032 C 0.05678 0.49565 0.39512 0.0
C1033 C 0.06318 0.51258 0.41426 0.0
C1034 C 0.05126 0.51452 0.43907 0.0
C1035 C 0.01626 0.50596 0.63699 0.0
C1036 C 0.0348 0.5205 0.64411 0.0
C1037 C 0.00964 0.50176 0.60108 0.0
C1038 C 0.02125 0.51243 0.57183 0.0
C1039 C 0.03968 0.52712 0.57918 0.0
C1040 C 0.04641 0.53101 0.61485 0.0
C1041 C 0.01447 0.50819 0.53349 0.0
C1042 C 0.02599 0.50624 0.50732 0.0
C1043 C 0.99678 0.50587 0.52264 0.0
C1044 C 0.98462 0.50935 0.54784 0.0
C1045 C 0.99183 0.52678 0.56606 0.0
C1046 C 0.98033 0.52995 0.58986 0.0
C1047 C 0.96154 0.51586 0.59545 0.0
C1048 C 0.9542 0.49857 0.57718 0.0
C1049 C 0.96565 0.49532 0.55338 0.0
H1050 H 0.95265 0.51834 0.61388 0.0
H1051 H 0.06603 0.49419 0.37592 0.0
H1052 H 0.47847 0.53959 0.6187 0.0
H1053 H 0.48674 0.53448 0.55774 0.0
H1054 H 0.50665 0.49853 0.60147 0.0
H1055 H 0.49824 0.50344 0.66315 0.0
H1056 H 0.5307 0.5254 0.54644 0.0
H1057 H 0.46557 0.47762 0.56578 0.0
H1058 H 0.43234 0.46606 0.58291 0.0
H1059 H 0.4275 0.49966 0.49818 0.0
H1060 H 0.46081 0.51165 0.48089 0.0
H1061 H 0.53192 0.4785 0.38697 0.0
H1062 H 0.52697 0.48748 0.44722 0.0
H1063 H 0.49705 0.51349 0.40019 0.0
H1064 H 0.50145 0.50392 0.33926 0.0
H1065 H 0.47855 0.49303 0.45691 0.0
H1066 H 0.54277 0.54019 0.43538 0.0
H1067 H 0.57613 0.55273 0.41798 0.0
H1068 H 0.5832 0.52207 0.50582 0.0
H1069 H 0.5498 0.50912 0.52345 0.0
C1070 C 0.48474 0.53068 0.6156 0.0
C1071 C 0.48757 0.52179 0.64588 0.0
C1072 C 0.48942 0.52778 0.58065 0.0
C1073 C 0.49709 0.51599 0.57516 0.0
C1074 C 0.50067 0.50765 0.60529 0.0
C1075 C 0.49584 0.51043 0.64044 0.0
C1076 C 0.50066 0.51191 0.53769 0.0
C1077 C 0.51933 0.51811 0.52691 0.0
C1078 C 0.48581 0.50296 0.51207 0.0
C1079 C 0.46574 0.49568 0.52228 0.0
C1080 C 0.45747 0.48267 0.551 0.0
C1081 C 0.43861 0.47602 0.56071 0.0
C1082 C 0.42783 0.48216 0.54171 0.0
C1083 C 0.43587 0.49493 0.5129 0.0
C1084 C 0.45474 0.50165 0.50312 0.0
C1085 C 0.52439 0.48627 0.38922 0.0
C1086 C 0.51712 0.49056 0.35818 0.0
C1087 C 0.52168 0.49149 0.42382 0.0
C1088 C 0.51194 0.50147 0.42826 0.0
C1089 C 0.5047 0.50587 0.39737 0.0
C1090 C 0.50725 0.50045 0.36258 0.0
C1091 C 0.50868 0.50645 0.46538 0.0
C1092 C 0.49002 0.50042 0.47621 0.0
C1093 C 0.52358 0.51572 0.49093 0.0
C1094 C 0.54372 0.52356 0.48055 0.0
C1095 C 0.5514 0.53601 0.45083 0.0
C1096 C 0.57032 0.54321 0.44096 0.0
C1097 C 0.58176 0.53816 0.46073 0.0
C1098 C 0.57431 0.52595 0.4905 0.0
C1099 C 0.55539 0.5187 0.50048 0.0
H1100 H 0.59641 0.54375 0.45303 0.0
H1101 H 0.41323 0.47699 0.54926 0.0
H1102 H 0.49353 0.99269 0.65622 0.0
H1103 H 0.49562 0.00389 0.59353 0.0
H1104 H 0.45788 0.94665 0.55795 0.0
H1105 H 0.45534 0.93546 0.62017 0.0
H1106 H 0.50965 0.99552 0.53643 0.0
H1107 H 0.4337 0.94631 0.48281 0.0
H1108 H 0.40096 0.92997 0.50611 0.0
H1109 H 0.4167 0.97204 0.58967 0.0
H1110 H 0.44946 0.98879 0.56657 0.0
H1111 H 0.51115 0.9966 0.34382 0.0
H1112 H 0.50224 0.9831 0.40521 0.0
H1113 H 0.47596 0.0168 0.42537 0.0
H1114 H 0.4849 0.03041 0.36443 0.0
H1115 H 0.45547 0.98067 0.45486 0.0
H1116 H 0.51933 0.03336 0.45262 0.0
H1117 H 0.55291 0.05203 0.43481 0.0
H1118 H 0.56163 0.0064 0.46727 0.0
H1119 H 0.52803 0.98735 0.48477 0.0
C1120 C 0.48547 0.98255 0.63512 0.0
C1121 C 0.47434 0.9632 0.64322 0.0
C1122 C 0.48671 0.98895 0.59931 0.0
C1123 C 0.4768 0.97612 0.57109 0.0
C1124 C 0.46539 0.95686 0.5793 0.0
C1125 C 0.46407 0.95049 0.61497 0.0
C1126 C 0.47935 0.98259 0.5327 0.0
C1127 C 0.49778 0.99228 0.51865 0.0
C1128 C 0.46386 0.9784 0.50951 0.0
C1129 C 0.44408 0.96872 0.52309 0.0
C1130 C 0.43015 0.95215 0.506 0.0
C1131 C 0.41159 0.94281 0.51918 0.0
C1132 C 0.40676 0.94995 0.54937 0.0
C1133 C 0.42047 0.9665 0.56634 0.0
C1134 C 0.43904 0.97592 0.55323 0.0
C1135 C 0.50305 0.00075 0.36102 0.0
C1136 C 0.49882 0.01464 0.34946 0.0
C1137 C 0.49808 0.99313 0.39612 0.0
C1138 C 0.48865 -0.00084 0.41991 0.0
C1139 C 0.48326 0.012 0.40746 0.0
C1140 C 0.48842 0.01979 0.37266 0.0
C1141 C 0.48575 0.99335 0.45866 0.0
C1142 C 0.46728 0.9838 0.4727 0.0
C1143 C 0.5012 0.99783 0.48206 0.0
C1144 C 0.52112 0.00886 0.46964 0.0
C1145 C 0.52833 0.0272 0.45543 0.0
C1146 C 0.54739 0.03787 0.44552 0.0
C1147 C 0.55938 0.0304 0.44998 0.0
C1148 C 0.55231 0.01216 0.46387 0.0
C1149 C 0.53327 0.00142 0.47376 0.0
H1150 H 0.57419 0.0388 0.44302 0.0
H1151 H 0.3924 0.94266 0.55961 0.0
H1152 H 0.20211 0.27437 0.06732 0.0
H1153 H 0.21764 0.25761 0.04325 0.0
H1154 H 0.16408 0.20556 0.04134 0.0
H1155 H 0.14837 0.22218 0.06514 0.0
H1156 H 0.1946 0.20121 0.0659 0.0
H1157 H 0.17863 0.2288 0.96569 0.0
H1158 H 0.1783 0.2545 0.93125 0.0
H1159 H 0.23902 0.28449 0.92641 0.0
H1160 H 0.2397 0.25899 0.96132 0.0
H1161 H 0.21793 0.14776 0.94892 0.0
H1162 H 0.20221 0.16423 0.97309 0.0
H1163 H 0.25376 0.21772 0.96024 0.0
H1164 H 0.26946 0.20142 0.93513 0.0
H1165 H 0.22446 0.22157 0.94413 0.0
H1166 H 0.24108 0.19441 0.04304 0.0
H1167 H 0.24206 0.16892 0.0773 0.0
H1168 H 0.18146 0.13893 0.08594 0.0
H1169 H 0.18012 0.16414 0.05126 0.0
C1170 C 0.19367 0.25928 0.06246 0.0
C1171 C 0.17397 0.24963 0.06795 0.0
C1172 C 0.20256 0.24977 0.0485 0.0
C1173 C 0.19195 0.23042 0.04008 0.0
C1174 C 0.17249 0.22051 0.04754 0.0
C1175 C 0.16355 0.23005 0.06112 0.0
C1176 C 0.20092 0.22074 0.02162 0.0
C1177 C 0.20096 0.2055 0.03912 0.0
C1178 C 0.20957 0.22665 0.98705 0.0
C1179 C 0.20922 0.2421 0.96646 0.0
C1180 C 0.19192 0.24097 0.95761 0.0
C1181 C 0.19167 0.25549 0.93791 0.0
C1182 C 0.20864 0.27117 0.92669 0.0
C1183 C 0.22589 0.27235 0.93516 0.0
C1184 C 0.22622 0.25786 0.95488 0.0
C1185 C 0.22585 0.16306 0.95061 0.0
C1186 C 0.24502 0.17325 0.9404 0.0
C1187 C 0.21687 0.17245 0.96473 0.0
C1188 C 0.22696 0.19216 0.96942 0.0
C1189 C 0.24574 0.20248 0.95717 0.0
C1190 C 0.25469 0.19312 0.94272 0.0
C1191 C 0.21819 0.20197 0.98835 0.0
C1192 C 0.21817 0.21726 0.97095 0.0
C1193 C 0.20973 0.1962 0.02319 0.0
C1194 C 0.21049 0.18107 0.04424 0.0
C1195 C 0.22796 0.18232 0.05202 0.0
C1196 C 0.22858 0.16793 0.07155 0.0
C1197 C 0.21183 0.15229 0.08371 0.0
C1198 C 0.19443 0.15104 0.07646 0.0
C1199 C 0.19372 0.16538 0.05689 0.0
H1200 H 0.21234 0.14117 0.09882 0.0
H1201 H 0.20843 0.28238 0.91131 0.0
H1202 H 0.85139 0.08204 1.00094 0.0
H1203 H 0.83763 0.04981 0.02376 0.0
H1204 H 0.80432 0.02871 0.9257 0.0
H1205 H 0.81749 0.06112 0.90332 0.0
H1206 H 0.78279 0.0128 0.98011 0.0
H1207 H 0.84328 0.02232 0.94601 0.0
H1208 H 0.87812 0.03863 0.94325 0.0
H1209 H 0.88067 0.03362 0.05926 0.0
H1210 H 0.84585 0.0175 0.06278 0.0
H1211 H 0.77852 0.91913 0.03381 0.0
H1212 H 0.79662 0.95126 0.01023 0.0
H1213 H 0.76458 0.96831 0.0781 0.0
H1214 H 0.74596 0.93597 0.10118 0.0
H1215 H 0.81913 0.98523 0.03522 0.0
H1216 H 0.7561 -0.00082 0.03222 0.0
H1217 H 0.72126 0.9811 0.02771 0.0
H1218 H 0.72405 0.93619 0.97234 0.0
H1219 H 0.75889 0.95411 0.97607 0.0
C1220 C 0.84136 0.07054 0.98392 0.0
C1221 C 0.83552 0.07416 0.95029 0.0
C1222 C 0.83354 0.05206 0.99699 0.0
C1223 C 0.82003 0.03675 0.97637 0.0
C1224 C 0.81466 0.04028 0.94219 0.0
C1225 C 0.82226 0.05881 0.92934 0.0
C1226 C 0.81065 0.01723 0.99149 0.0
C1227 C 0.79079 0.0068 0.99203 0.0
C1228 C 0.821 0.0092 0.00668 0.0
C1229 C 0.84195 0.01884 0.00468 0.0
C1230 C 0.85128 0.02482 0.97096 0.0
C1231 C 0.87102 0.03401 0.96926 0.0
C1232 C 0.8816 0.0372 1.00107 0.0
C1233 C 0.87246 0.03116 0.03464 0.0
C1234 C 0.85271 0.02197 0.03651 0.0
C1235 C 0.77543 0.92973 0.04413 0.0
C1236 C 0.7606 0.92489 0.06909 0.0
C1237 C 0.78585 0.94814 0.03063 0.0
C1238 C 0.78173 0.96211 0.04185 0.0
C1239 C 0.76773 0.95764 0.06846 0.0
C1240 C 0.75717 0.93916 0.08178 0.0
C1241 C 0.79136 0.98101 0.02418 0.0
C1242 C 0.81121 0.99131 0.02325 0.0
C1243 C 0.78103 0.9887 0.00756 0.0
C1244 C 0.76008 0.97791 0.0048 0.0
C1245 C 0.74927 0.98548 0.01897 0.0
C1246 C 0.72953 0.97525 0.01657 0.0
C1247 C 0.72045 0.95748 0.99986 0.0
C1248 C 0.7311 0.94993 0.98539 0.0
C1249 C 0.75084 0.9601 0.98768 0.0
H1250 H 0.70516 0.94959 0.99806 0.0
H1251 H 0.89689 0.04432 0.99969 0.0
H1252 H 0.92633 0.77477 0.95399 0.0
H1253 H 0.95844 0.79155 0.97873 0.0
H1254 H 0.96285 0.74135 0.96596 0.0
H1255 H 0.93077 0.72445 0.94089 0.0
H1256 H 0.97193 0.75734 0.03656 0.0
H1257 H 0.98762 0.77687 0.91165 0.0
H1258 H 0.98519 0.79057 0.85343 0.0
H1259 H 0.00138 0.84336 0.90675 0.0
H1260 H 0.00365 0.82989 0.96543 0.0
H1261 H 0.06978 0.79623 0.07486 0.0
H1262 H 0.03734 0.78007 0.05225 0.0
H1263 H 0.03815 0.83334 0.04777 0.0
H1264 H 0.07086 0.84969 0.06928 0.0
H1265 H 0.02591 0.8159 0.98634 0.0
H1266 H 0.01057 0.79766 0.11059 0.0
H1267 H 0.0123 0.78467 0.17017 0.0
H1268 H 0.99456 0.73061 0.12088 0.0
H1269 H 0.99297 0.74335 0.06087 0.0
C1270 C 0.93424 0.76738 0.95585 0.0
C1271 C 0.92598 0.74826 0.94552 0.0
C1272 C 0.95258 0.77699 0.96999 0.0
C1273 C 0.96296 0.76765 0.97426 0.0
C1274 C 0.95502 0.74877 0.96294 0.0
C1275 C 0.93675 0.73919 0.94838 0.0
C1276 C 0.9817 0.77731 0.99229 0.0
C1277 C 0.98386 0.77 0.0254 0.0
C1278 C 0.99695 0.79418 0.97828 0.0
C1279 C 0.99562 0.80231 0.94301 0.0
C1280 C 0.9905 0.79135 0.91103 0.0
C1281 C 0.98919 0.79908 0.87793 0.0
C1282 C 0.99308 0.8178 0.87641 0.0
C1283 C 0.99835 0.82885 0.90798 0.0
C1284 C -0.00034 0.82118 0.94116 0.0
C1285 C 0.06293 0.80447 0.06985 0.0
C1286 C 0.07295 0.82427 0.07372 0.0
C1287 C 0.04433 0.79519 0.05694 0.0
C1288 C 0.03524 0.80547 0.04834 0.0
C1289 C 0.0449 0.82512 0.054 0.0
C1290 C 0.06357 0.83444 0.06649 0.0
C1291 C 0.01628 0.79596 0.03081 0.0
C1292 C 0.01403 0.80328 0.99772 0.0
C1293 C 0.00086 0.77923 0.04511 0.0
C1294 C 0.00182 0.77152 0.08116 0.0
C1295 C 0.00719 0.78304 0.11239 0.0
C1296 C 0.00811 0.77572 0.14625 0.0
C1297 C 0.00359 0.75684 0.14929 0.0
C1298 C 0.99808 0.74524 0.11847 0.0
C1299 C 0.99714 0.7525 0.08453 0.0
H1300 H 0.00432 0.7512 0.17553 0.0
H1301 H 0.99206 0.82377 0.85075 0.0
H1302 H 0.83443 0.76256 0.90759 0.0
H1303 H 0.81807 0.77999 0.9236 0.0
H1304 H 0.83697 0.7845 0.03474 0.0
H1305 H 0.85341 0.76746 0.01911 0.0
H1306 H 0.79774 0.7707 0.02744 0.0
H1307 H 0.85756 0.822 0.98453 0.0
H1308 H 0.88314 0.83845 0.9396 0.0
H1309 H 0.84359 0.83936 0.86361 0.0
H1310 H 0.81771 0.82267 0.90795 0.0
H1311 H 0.77067 0.83428 0.10038 0.0
H1312 H 0.78835 0.81854 0.0825 0.0
H1313 H 0.77908 0.82557 0.96919 0.0
H1314 H 0.7622 0.84189 0.9868 0.0
H1315 H 0.81328 0.83311 0.97637 0.0
H1316 H 0.75347 0.78219 0.01603 0.0
H1317 H 0.72673 0.76463 0.05816 0.0
H1318 H 0.76411 0.76122 0.13619 0.0
H1319 H 0.79113 0.77898 0.0947 0.0
C1320 C 0.83523 0.76745 0.93531 0.0
C1321 C 0.84521 0.76364 0.96205 0.0
C1322 C 0.8259 0.77738 0.94441 0.0
C1323 C 0.82632 0.78346 0.98038 0.0
C1324 C 0.83644 0.77985 0.00689 0.0
C1325 C 0.8459 0.77017 0.9978 0.0
C1326 C 0.81585 0.79319 0.99096 0.0
C1327 C 0.80122 0.78444 0.01659 0.0
C1328 C 0.82011 0.81083 0.97601 0.0
C1329 C 0.83567 0.8209 0.9494 0.0
C1330 C 0.85428 0.82555 0.95812 0.0
C1331 C 0.86885 0.83495 0.93279 0.0
C1332 C 0.86498 0.8399 0.89873 0.0
C1333 C 0.84656 0.8355 0.88998 0.0
C1334 C 0.83194 0.82608 0.9152 0.0
C1335 C 0.77245 0.83247 0.0717 0.0
C1336 C 0.76507 0.83932 0.04503 0.0
C1337 C 0.78247 0.82339 0.06147 0.0
C1338 C 0.78486 0.82064 0.02443 0.0
C1339 C 0.7775 0.82755 0.99789 0.0
C1340 C 0.7678 0.83686 0.00805 0.0
C1341 C 0.79506 0.81066 0.01304 0.0
C1342 C 0.80967 0.81934 0.98724 0.0
C1343 C 0.79057 0.79278 0.02741 0.0
C1344 C 0.77435 0.78208 0.05241 0.0
C1345 C 0.75601 0.77782 0.04229 0.0
C1346 C 0.7408 0.76781 0.06603 0.0
C1347 C 0.74373 0.76186 0.09987 0.0
C1348 C 0.76187 0.76587 0.10999 0.0
C1349 C 0.77713 0.77589 0.08637 0.0
H1350 H 0.73193 0.75411 0.11821 0.0
H1351 H 0.87628 0.84718 0.87916 0.0
H1352 H 0.16263 0.93122 0.10168 0.0
H1353 H 0.1783 0.96489 0.08461 0.0
H1354 H 0.16188 0.94925 0.97272 0.0
H1355 H 0.14593 0.91587 0.98946 0.0
H1356 H 0.20226 0.9771 0.98666 0.0
H1357 H 0.13828 0.96351 0.01274 0.0
H1358 H 0.11011 0.95238 0.05182 0.0
H1359 H 0.14334 0.99416 0.13221 0.0
H1360 H 0.17179 0.00536 0.09379 0.0
H1361 H 0.22849 0.06636 0.90825 0.0
H1362 H 0.21111 0.03279 0.92521 0.0
H1363 H 0.21047 0.04833 0.03741 0.0
H1364 H 0.22684 0.08155 0.02041 0.0
H1365 H 0.17859 0.01998 0.02405 0.0
H1366 H 0.24222 0.03412 1.00248 0.0
H1367 H 0.27188 0.04543 0.96798 0.0
H1368 H 0.24213 0.00346 0.88565 0.0
H1369 H 0.21223 0.99205 0.91945 0.0
C1370 C 0.16228 0.93501 0.07354 0.0
C1371 C 0.15299 0.92094 0.04696 0.0
C1372 C 0.17121 0.95418 0.06385 0.0
C1373 C 0.17122 0.95944 0.02741 0.0
C1374 C 0.16203 0.94542 1.00094 0.0
C1375 C 0.15284 0.92637 0.01065 0.0
C1376 C 0.1809 0.97955 0.01649 0.0
C1377 C 0.19705 0.9865 0.9945 0.0
C1378 C 0.17429 0.99179 0.02759 0.0
C1379 C 0.15719 0.98512 0.05059 0.0
C1380 C 0.13962 0.9702 0.03891 0.0
C1381 C 0.12359 0.9639 0.0609 0.0
C1382 C 0.12495 0.97252 0.09453 0.0
C1383 C 0.14232 0.98748 0.10619 0.0
C1384 C 0.15839 0.99381 0.08431 0.0
C1385 C 0.22447 0.06254 0.93643 0.0
C1386 C 0.22902 0.07658 0.96296 0.0
C1387 C 0.21467 0.04338 0.94619 0.0
C1388 C 0.20973 0.03799 0.98277 0.0
C1389 C 0.21405 0.05205 0.00904 0.0
C1390 C 0.22347 0.07109 0.99923 0.0
C1391 C 0.20018 0.01778 0.99407 0.0
C1392 C 0.18397 0.01073 0.01616 0.0
C1393 C 0.20701 0.00554 0.9837 0.0
C1394 C 0.22495 0.01237 0.96329 0.0
C1395 C 0.24198 0.0274 0.97687 0.0
C1396 C 0.25884 0.03381 0.95747 0.0
C1397 C 0.25888 0.02521 0.92459 0.0
C1398 C 0.24207 0.01014 0.91109 0.0
C1399 C 0.22516 0.00368 0.93037 0.0
H1400 H 0.27195 0.03019 0.90961 0.0
H1401 H 0.11253 0.96763 0.11152 0.0
H1402 H 0.91649 0.16515 0.02827 0.0
H1403 H 0.94982 0.1807 0.0455 0.0
H1404 H 0.96503 0.17756 0.9343 0.0
H1405 H 0.93149 0.16216 0.91655 0.0
H1406 H 0.98108 0.164 0.99038 0.0
H1407 H 0.97467 0.2181 0.96131 0.0
H1408 H 0.95988 0.23802 0.965 0.0
H1409 H 0.9706 0.2449 0.08008 0.0
H1410 H 0.98522 0.22478 0.07716 0.0
H1411 H 0.07969 0.22321 1.00127 0.0
H1412 H 0.04616 0.20688 0.98688 0.0
H1413 H 0.03419 0.22259 0.09157 0.0
H1414 H 0.06813 0.23965 0.10585 0.0
H1415 H 0.01583 0.22921 0.04036 0.0
H1416 H 0.0224 0.17621 0.07152 0.0
H1417 H 0.03628 0.15543 0.07085 0.0
H1418 H 0.0242 0.14509 0.95662 0.0
H1419 H 0.01048 0.16604 0.95647 0.0
C1420 C 0.92691 0.16783 0.00738 0.0
C1421 C 0.9214 0.16242 0.97104 0.0
C1422 C 0.94594 0.17676 0.01729 0.0
C1423 C 0.95982 0.18029 0.99116 0.0
C1424 C 0.95445 0.17494 0.9548 0.0
C1425 C 0.93535 0.16624 0.94469 0.0
C1426 C 0.97988 0.18919 1.00233 0.0
C1427 C 0.98884 0.17836 1.00077 0.0
C1428 C 0.9896 0.20762 0.01727 0.0
C1429 C 0.98087 0.21977 0.01907 0.0
C1430 C 0.97372 0.22371 0.98746 0.0
C1431 C 0.9654 0.23508 0.9894 0.0
C1432 C 0.96425 0.24268 0.02277 0.0
C1433 C 0.97147 0.23898 0.05425 0.0
C1434 C 0.97979 0.22761 0.05247 0.0
C1435 C 0.06996 0.22304 0.02154 0.0
C1436 C 0.07659 0.23273 0.05478 0.0
C1437 C 0.05072 0.21358 0.01328 0.0
C1438 C 0.03758 0.21328 0.03829 0.0
C1439 C 0.04408 0.22261 0.07188 0.0
C1440 C 0.06344 0.23226 0.08009 0.0
C1441 C 0.01725 0.20409 0.02821 0.0
C1442 C 0.00816 0.21483 0.03005 0.0
C1443 C 0.00731 0.18545 0.014 0.0
C1444 C 0.01556 0.17284 0.01393 0.0
C1445 C 0.02284 0.16963 0.04618 0.0
C1446 C 0.03065 0.1578 0.04596 0.0
C1447 C 0.03116 0.14898 0.01369 0.0
C1448 C 0.02381 0.15195 0.98159 0.0
C1449 C 0.016 0.16378 0.98165 0.0
H1450 H 0.03722 0.13982 0.01358 0.0
H1451 H 0.95781 0.25148 0.02421 0.0
H1452 H 0.86696 0.6022 0.4005 0.0
H1453 H 0.88302 0.58574 0.37793 0.0
H1454 H 0.83079 0.53248 0.38451 0.0
H1455 H 0.81454 0.54879 0.40709 0.0
H1456 H 0.86277 0.53011 0.4053 0.0
H1457 H 0.84205 0.55422 0.30636 0.0
H1458 H 0.83957 0.57901 0.27258 0.0
H1459 H 0.89997 0.61061 0.26034 0.0
H1460 H 0.90283 0.58613 0.29457 0.0
H1461 H 0.88523 0.47628 0.28798 0.0
H1462 H 0.86916 0.49236 0.31233 0.0
H1463 H 0.9194 0.54641 0.29456 0.0
H1464 H 0.93547 0.53047 0.26936 0.0
H1465 H 0.88856 0.54857 0.28012 0.0
H1466 H 0.90973 0.52495 0.37831 0.0
H1467 H 0.91281 0.50076 0.41302 0.0
H1468 H 0.85258 0.46898 0.42787 0.0
H1469 H 0.84911 0.49287 0.39279 0.0
C1470 C 0.85894 0.58693 0.39798 0.0
C1471 C 0.83939 0.57684 0.4052 0.0
C1472 C 0.86814 0.57757 0.38488 0.0
C1473 C 0.85799 0.55797 0.37892 0.0
C1474 C 0.83883 0.54765 0.38873 0.0
C1475 C 0.82958 0.55701 0.40162 0.0
C1476 C 0.86695 0.54846 0.35988 0.0
C1477 C 0.86823 0.53398 0.3778 0.0
C1478 C 0.87438 0.5538 0.32425 0.0
C1479 C 0.87267 0.56844 0.30335 0.0
C1480 C 0.85482 0.56653 0.29671 0.0
C1481 C 0.85334 0.58051 0.27745 0.0
C1482 C 0.8696 0.5964 0.26441 0.0
C1483 C 0.88738 0.59831 0.27051 0.0
C1484 C 0.88894 0.58438 0.28982 0.0
C1485 C 0.89277 0.49161 0.28862 0.0
C1486 C 0.91172 0.50208 0.27708 0.0
C1487 C 0.88359 0.50077 0.30279 0.0
C1488 C 0.89324 0.52056 0.30616 0.0
C1489 C 0.91173 0.53111 0.29249 0.0
C1490 C 0.92089 0.52197 0.27803 0.0
C1491 C 0.88442 0.53017 0.32551 0.0
C1492 C 0.88313 0.54468 0.30764 0.0
C1493 C 0.87709 0.52493 0.36129 0.0
C1494 C 0.87915 0.51061 0.38262 0.0
C1495 C 0.89713 0.51274 0.38876 0.0
C1496 C 0.89895 0.49909 0.40853 0.0
C1497 C 0.8829 0.48332 0.42256 0.0
C1498 C 0.86499 0.48119 0.41694 0.0
C1499 C 0.86309 0.49479 0.39714 0.0
H1500 H 0.88433 0.47277 0.43786 0.0
H1501 H 0.86843 0.60721 0.2495 0.0
H1502 H 0.51819 0.40755 0.2658 0.0
H1503 H 0.50105 0.37552 0.29019 0.0
H1504 H 0.44912 0.37732 0.28792 0.0
H1505 H 0.46622 0.40956 0.2639 0.0
H1506 H 0.45518 0.36723 0.35395 0.0
H1507 H 0.45551 0.34787 0.23131 0.0
H1508 H 0.46934 0.34756 0.17178 0.0
H1509 H 0.50519 0.32986 0.22326 0.0
H1510 H 0.49176 0.33032 0.28319 0.0
H1511 H 0.39659 0.26961 0.40253 0.0
H1512 H 0.41184 0.30139 0.37656 0.0
H1513 H 0.46532 0.30264 0.37515 0.0
H1514 H 0.45016 0.27077 0.40063 0.0
H1515 H 0.45708 0.31081 0.30952 0.0
H1516 H 0.45745 0.33116 0.43235 0.0
H1517 H 0.44365 0.33151 0.49189 0.0
H1518 H 0.40641 0.34729 0.43994 0.0
H1519 H 0.41982 0.34678 0.37999 0.0
C1520 C 0.50304 0.40101 0.26963 0.0
C1521 C 0.49362 0.41121 0.26313 0.0
C1522 C 0.49324 0.38265 0.28357 0.0
C1523 C 0.4738 0.37404 0.291 0.0
C1524 C 0.46414 0.38375 0.28255 0.0
C1525 C 0.47393 0.40213 0.26856 0.0
C1526 C 0.46401 0.35565 0.31042 0.0
C1527 C 0.45528 0.35477 0.34392 0.0
C1528 C 0.46462 0.33958 0.29783 0.0
C1529 C 0.47274 0.33929 0.2618 0.0
C1530 C 0.46646 0.34406 0.22999 0.0
C1531 C 0.4742 0.34383 0.19616 0.0
C1532 C 0.48817 0.33874 0.19375 0.0
C1533 C 0.49438 0.33382 0.22517 0.0
C1534 C 0.48669 0.33404 0.25907 0.0
C1535 C 0.41169 0.27681 0.39762 0.0
C1536 C 0.42211 0.26754 0.40337 0.0
C1537 C 0.4204 0.29501 0.38271 0.0
C1538 C 0.4397 0.30434 0.37368 0.0
C1539 C 0.45037 0.29562 0.38162 0.0
C1540 C 0.44169 0.27743 0.39641 0.0
C1541 C 0.44842 0.32244 0.35322 0.0
C1542 C 0.45692 0.32324 0.31949 0.0
C1543 C 0.44759 0.33842 0.36561 0.0
C1544 C 0.43951 0.33874 0.40163 0.0
C1545 C 0.44621 0.33454 0.43358 0.0
C1546 C 0.43848 0.3348 0.46741 0.0
C1547 C 0.42413 0.33937 0.46968 0.0
C1548 C 0.41751 0.34373 0.43813 0.0
C1549 C 0.42518 0.34348 0.40422 0.0
H1550 H 0.41816 0.33956 0.4959 0.0
H1551 H 0.49414 0.33857 0.16753 0.0
H1552 H 0.58914 0.05649 0.25691 0.0
H1553 H 0.62231 0.07292 0.276 0.0
H1554 H 0.61866 0.12249 0.30254 0.0
H1555 H 0.58559 0.10629 0.28334 0.0
H1556 H 0.65346 0.13092 0.27077 0.0
H1557 H 0.61098 0.0912 0.36647 0.0
H1558 H 0.58578 0.06045 0.38924 0.0
H1559 H 0.62127 0.03621 0.37133 0.0
H1560 H 0.6465 0.06674 0.34741 0.0
H1561 H 0.7318 0.17782 0.38711 0.0
H1562 H 0.69928 0.16219 0.36438 0.0
H1563 H 0.69884 0.1091 0.35938 0.0
H1564 H 0.73091 0.12443 0.3838 0.0
H1565 H 0.66607 0.10206 0.37841 0.0
H1566 H 0.70802 0.13907 0.28269 0.0
H1567 H 0.73324 0.16783 0.25327 0.0
H1568 H 0.70013 0.19507 0.26543 0.0
H1569 H 0.6748 0.16654 0.29537 0.0
C1570 C 0.59548 0.07101 0.26609 0.0
C1571 C 0.58463 0.07998 0.26907 0.0
C1572 C 0.61442 0.08036 0.27707 0.0
C1573 C 0.62279 0.09879 0.29122 0.0
C1574 C 0.61241 0.10824 0.29183 0.0
C1575 C 0.59348 0.0989 0.28097 0.0
C1576 C 0.64172 0.10764 0.30849 0.0
C1577 C 0.65623 0.12475 0.2945 0.0
C1578 C 0.64538 0.09927 0.33887 0.0
C1579 C 0.63055 0.0812 0.35483 0.0
C1580 C 0.61338 0.07929 0.36725 0.0
C1581 C 0.59908 0.06189 0.38032 0.0
C1582 C 0.60191 0.04636 0.3817 0.0
C1583 C 0.61909 0.04824 0.37019 0.0
C1584 C 0.63338 0.06559 0.35682 0.0
C1585 C 0.72462 0.16274 0.38181 0.0
C1586 C 0.73395 0.15238 0.38704 0.0
C1587 C 0.7061 0.15385 0.36847 0.0
C1588 C 0.69678 0.13457 0.35909 0.0
C1589 C 0.70574 0.12401 0.36616 0.0
C1590 C 0.72409 0.1328 0.38021 0.0
C1591 C 0.67801 0.12549 0.34079 0.0
C1592 C 0.66344 0.10831 0.35463 0.0
C1593 C 0.67444 0.1336 0.30976 0.0
C1594 C 0.6896 0.15074 0.2916 0.0
C1595 C 0.70617 0.15124 0.27931 0.0
C1596 C 0.72048 0.16749 0.26251 0.0
C1597 C 0.71831 0.18328 0.25757 0.0
C1598 C 0.7018 0.18284 0.26933 0.0
C1599 C 0.68746 0.16663 0.28619 0.0
H1600 H 0.7294 0.19585 0.24457 0.0
H1601 H 0.5908 0.03285 0.39166 0.0
H1602 H 0.50093 0.10343 0.24244 0.0
H1603 H 0.48716 0.12321 0.25945 0.0
H1604 H 0.49656 0.11697 0.37288 0.0
H1605 H 0.51071 0.09782 0.3563 0.0
H1606 H 0.45739 0.10878 0.3492 0.0
H1607 H 0.52474 0.15524 0.34475 0.0
H1608 H 0.55578 0.17191 0.31418 0.0
H1609 H 0.53214 0.19014 0.22963 0.0
H1610 H 0.50087 0.17332 0.25946 0.0
H1611 H 0.43395 0.17264 0.4326 0.0
H1612 H 0.44989 0.15489 0.41664 0.0
H1613 H 0.46185 0.17993 0.30938 0.0
H1614 H 0.44698 0.19831 0.32579 0.0
H1615 H 0.49037 0.17816 0.32899 0.0
H1616 H 0.42399 0.13331 0.32904 0.0
H1617 H 0.39162 0.11565 0.35393 0.0
H1618 H 0.41084 0.093 0.4386 0.0
H1619 H 0.44339 0.11072 0.41447 0.0
C1620 C 0.50014 0.1064 0.27093 0.0
C1621 C 0.50697 0.09919 0.29801 0.0
C1622 C 0.49229 0.11764 0.28058 0.0
C1623 C 0.49087 0.12145 0.3174 0.0
C1624 C 0.49754 0.11414 0.34437 0.0
C1625 C 0.50571 0.1033 0.33477 0.0
C1626 C 0.48236 0.13299 0.32818 0.0
C1627 C 0.4646 0.12399 0.34513 0.0
C1628 C 0.49164 0.15267 0.3219 0.0
C1629 C 0.51044 0.16283 0.30409 0.0
C1630 C 0.52612 0.16264 0.31944 0.0
C1631 C 0.54376 0.17215 0.3023 0.0
C1632 C 0.54592 0.18203 0.26992 0.0
C1633 C 0.53044 0.18246 0.25467 0.0
C1634 C 0.51276 0.17294 0.2717 0.0
C1635 C 0.44019 0.17448 0.40581 0.0
C1636 C 0.4392 0.18684 0.38048 0.0
C1637 C 0.44915 0.16422 0.39656 0.0
C1638 C 0.45677 0.16576 0.36148 0.0
C1639 C 0.45613 0.17846 0.33659 0.0
C1640 C 0.44757 0.18897 0.34604 0.0
C1641 C 0.46518 0.15403 0.3502 0.0
C1642 C 0.48299 0.16297 0.33312 0.0
C1643 C 0.4557 0.13417 0.35558 0.0
C1644 C 0.43615 0.12351 0.37019 0.0
C1645 C 0.42133 0.12467 0.35313 0.0
C1646 C 0.40296 0.11463 0.36707 0.0
C1647 C 0.39919 0.10325 0.39789 0.0
C1648 C 0.41379 0.10185 0.41477 0.0
C1649 C 0.4322 0.11188 0.40096 0.0
H1650 H 0.38495 0.09548 0.40864 0.0
H1651 H 0.55959 0.18939 0.25669 0.0
H1652 H 0.80723 0.24571 0.31275 0.0
H1653 H 0.82417 0.27948 0.29943 0.0
H1654 H 0.84323 0.29159 0.41083 0.0
H1655 H 0.82647 0.2575 0.42447 0.0
H1656 H 0.82771 0.31466 0.37676 0.0
H1657 H 0.87371 0.29463 0.35731 0.0
H1658 H 0.88474 0.27397 0.3313 0.0
H1659 H 0.87619 0.28841 0.22325 0.0
H1660 H 0.86483 0.30896 0.24865 0.0
H1661 H 0.89692 0.41018 0.3559 0.0
H1662 H 0.87903 0.37669 0.37061 0.0
H1663 H 0.87526 0.36282 0.25629 0.0
H1664 H 0.89416 0.39663 0.24148 0.0
H1665 H 0.88237 0.34006 0.29198 0.0
H1666 H 0.83666 0.35958 0.30757 0.0
H1667 H 0.82363 0.3792 0.33014 0.0
H1668 H 0.82882 0.36479 0.44036 0.0
H1669 H 0.84212 0.34527 0.41848 0.0
C1670 C 0.81489 0.2555 0.33461 0.0
C1671 C 0.81554 0.24893 0.36971 0.0
C1672 C 0.8246 0.2748 0.32685 0.0
C1673 C 0.835 0.28794 0.35407 0.0
C1674 C 0.83526 0.28157 0.38949 0.0
C1675 C 0.82573 0.26215 0.39721 0.0
C1676 C 0.84593 0.30828 0.34492 0.0
C1677 C 0.83986 0.32036 0.35872 0.0
C1678 C 0.86125 0.31539 0.3202 0.0
C1679 C 0.86825 0.30319 0.3049 0.0
C1680 C 0.87403 0.29327 0.32801 0.0
C1681 C 0.88037 0.28161 0.31338 0.0
C1682 C 0.88112 0.27984 0.27565 0.0
C1683 C 0.87558 0.28978 0.25247 0.0
C1684 C 0.86921 0.30145 0.26697 0.0
C1685 C 0.89219 0.40003 0.33378 0.0
C1686 C 0.8968 0.40603 0.29746 0.0
C1687 C 0.88184 0.38084 0.34226 0.0
C1688 C 0.87537 0.36717 0.31456 0.0
C1689 C 0.88001 0.3731 0.27816 0.0
C1690 C 0.89075 0.3924 0.26968 0.0
C1691 C 0.86428 0.34672 0.32394 0.0
C1692 C 0.87025 0.33452 0.31008 0.0
C1693 C 0.84862 0.33942 0.3481 0.0
C1694 C 0.84055 0.35109 0.36138 0.0
C1695 C 0.83515 0.3607 0.33663 0.0
C1696 C 0.8277 0.37179 0.34931 0.0
C1697 C 0.82544 0.37327 0.38666 0.0
C1698 C 0.83059 0.36364 0.41143 0.0
C1699 C 0.83807 0.35254 0.39891 0.0
H1700 H 0.81967 0.38187 0.39642 0.0
H1701 H 0.88603 0.2708 0.26437 0.0
H1702 H 0.59611 0.52007 0.27353 0.0
H1703 H 0.6284 0.53664 0.29757 0.0
H1704 H 0.62596 0.48303 0.31388 0.0
H1705 H 0.59332 0.46652 0.29205 0.0
H1706 H 0.63828 0.50168 0.37164 0.0
H1707 H 0.65468 0.51781 0.24603 0.0
H1708 H 0.65373 0.53044 0.18553 0.0
H1709 H 0.67263 0.58527 0.2323 0.0
H1710 H 0.67347 0.5729 0.29319 0.0
H1711 H 0.73774 0.53517 0.38475 0.0
H1712 H 0.70445 0.52096 0.36722 0.0
H1713 H 0.70555 0.57298 0.39385 0.0
H1714 H 0.73884 0.58715 0.41248 0.0
H1715 H 0.69394 0.55757 0.31815 0.0
H1716 H 0.6797 0.54002 0.44406 0.0
H1717 H 0.68202 0.52612 0.50211 0.0
H1718 H 0.66047 0.47197 0.45045 0.0
H1719 H 0.65828 0.48561 0.39193 0.0
C1720 C 0.6027 0.51191 0.28137 0.0
C1721 C 0.59232 0.49206 0.28086 0.0
C1722 C 0.62117 0.52137 0.29515 0.0
C1723 C 0.62974 0.51112 0.30756 0.0
C1724 C 0.61966 0.49129 0.30488 0.0
C1725 C 0.60108 0.48185 0.29207 0.0
C1726 C 0.64857 0.52079 0.32578 0.0
C1727 C 0.65046 0.51375 0.35956 0.0
C1728 C 0.66445 0.53692 0.31079 0.0
C1729 C 0.66394 0.54438 0.27422 0.0
C1730 C 0.65849 0.53252 0.24346 0.0
C1731 C 0.658 0.53964 0.20909 0.0
C1732 C 0.66306 0.55863 0.20509 0.0
C1733 C 0.66868 0.57055 0.23545 0.0
C1734 C 0.66918 0.56351 0.26989 0.0
C1735 C 0.73072 0.54338 0.3879 0.0
C1736 C 0.74079 0.56221 0.40009 0.0
C1737 C 0.71175 0.53528 0.37778 0.0
C1738 C 0.70265 0.54599 0.37908 0.0
C1739 C 0.7124 0.56454 0.39271 0.0
C1740 C 0.73131 0.57253 0.40364 0.0
C1741 C 0.68351 0.53817 0.36327 0.0
C1742 C 0.68162 0.54557 0.33007 0.0
C1743 C 0.66774 0.52214 0.37833 0.0
C1744 C 0.66898 0.51388 0.41353 0.0
C1745 C 0.67562 0.52519 0.44499 0.0
C1746 C 0.67687 0.51735 0.47801 0.0
C1747 C 0.67143 0.49819 0.47995 0.0
C1748 C 0.66469 0.48682 0.4489 0.0
C1749 C 0.66342 0.49459 0.41581 0.0
H1750 H 0.67241 0.49214 0.50554 0.0
H1751 H 0.66267 0.56411 0.17846 0.0
H1752 H 0.60781 0.87236 0.60713 0.0
H1753 H 0.592 0.88917 0.62919 0.0
H1754 H 0.53987 0.83613 0.64077 0.0
H1755 H 0.55543 0.81922 0.61828 0.0
H1756 H 0.53337 0.8638 0.61763 0.0
H1757 H 0.56963 0.85546 0.71179 0.0
H1758 H 0.59862 0.85836 0.73882 0.0
H1759 H 0.62556 0.91892 0.73313 0.0
H1760 H 0.59687 0.91638 0.70518 0.0
H1761 H 0.48458 0.88659 0.74506 0.0
H1762 H 0.50258 0.87246 0.72111 0.0
H1763 H 0.55169 0.92792 0.70939 0.0
H1764 H 0.53384 0.94225 0.73365 0.0
H1765 H 0.56079 0.90073 0.731 0.0
H1766 H 0.52392 0.90884 0.63819 0.0
H1767 H 0.49472 0.90561 0.61144 0.0
H1768 H 0.46867 0.84508 0.61562 0.0
H1769 H 0.49763 0.84795 0.64295 0.0
C1770 C 0.59287 0.86428 0.61354 0.0
C1771 C 0.58296 0.8444 0.61141 0.0
C1772 C 0.58389 0.87392 0.62637 0.0
C1773 C 0.5649 0.86385 0.63745 0.0
C1774 C 0.55459 0.84417 0.63265 0.0
C1775 C 0.56353 0.83452 0.61977 0.0
C1776 C 0.5561 0.87354 0.65653 0.0
C1777 C 0.53929 0.87175 0.64255 0.0
C1778 C 0.564 0.88417 0.68878 0.0
C1779 C 0.58118 0.88572 0.70601 0.0
C1780 C 0.58179 0.8694 0.71604 0.0
C1781 C 0.59816 0.87097 0.73156 0.0
C1782 C 0.61393 0.88881 0.73769 0.0
C1783 C 0.61335 0.90511 0.72832 0.0
C1784 C 0.59704 0.90361 0.7126 0.0
C1785 C 0.49933 0.8958 0.7382 0.0
C1786 C 0.50768 0.91559 0.74076 0.0
C1787 C 0.50957 0.88769 0.72434 0.0
C1788 C 0.5283 0.89919 0.71265 0.0
C1789 C 0.53718 0.91882 0.71799 0.0
C1790 C 0.52695 0.92697 0.73191 0.0
C1791 C 0.53801 0.89084 0.69223 0.0
C1792 C 0.55496 0.89288 0.70596 0.0
C1793 C 0.53023 0.88039 0.65979 0.0
C1794 C 0.51288 0.87862 0.64291 0.0
C1795 C 0.51192 0.89484 0.63364 0.0
C1796 C 0.49542 0.89308 0.61835 0.0
C1797 C 0.47984 0.87515 0.61191 0.0
C1798 C 0.48074 0.85896 0.62066 0.0
C1799 C 0.4972 0.86064 0.63602 0.0
H1800 H 0.46707 0.87381 0.60008 0.0
H1801 H 0.62658 0.88999 0.74975 0.0
H1802 H 0.1308 0.73322 0.60402 0.0
H1803 H 0.11445 0.70162 0.63085 0.0
H1804 H 0.16525 0.69805 0.62149 0.0
H1805 H 0.18175 0.72962 0.59451 0.0
H1806 H 0.13241 0.66345 0.60949 0.0
H1807 H 0.15766 0.71397 0.69776 0.0
H1808 H 0.162 0.74349 0.72515 0.0
H1809 H 0.10233 0.71684 0.74596 0.0
H1810 H 0.09759 0.68723 0.71809 0.0
H1811 H 0.11686 0.59628 0.74209 0.0
H1812 H 0.13173 0.62789 0.7155 0.0
H1813 H 0.07925 0.62825 0.72495 0.0
H1814 H 0.06416 0.59656 0.75164 0.0
H1815 H 0.11195 0.66426 0.73662 0.0
H1816 H 0.08674 0.61363 0.64911 0.0
H1817 H 0.08238 0.58413 0.62159 0.0
H1818 H 0.14193 0.61105 0.59924 0.0
H1819 H 0.14669 0.64063 0.62723 0.0
C1820 C 0.13837 0.72553 0.60663 0.0
C1821 C 0.15769 0.7341 0.59768 0.0
C1822 C 0.12902 0.7075 0.62219 0.0
C1823 C 0.13881 0.69775 0.62895 0.0
C1824 C 0.15751 0.70545 0.61678 0.0
C1825 C 0.16691 0.72351 0.60133 0.0
C1826 C 0.13024 0.68051 0.65186 0.0
C1827 C 0.12809 0.66366 0.63735 0.0
C1828 C 0.12437 0.68077 0.6881 0.0
C1829 C 0.12724 0.69845 0.70549 0.0
C1830 C 0.14544 0.71444 0.70795 0.0
C1831 C 0.14798 0.73119 0.72358 0.0
C1832 C 0.13245 0.73205 0.73721 0.0
C1833 C 0.11435 0.71615 0.73534 0.0
C1834 C 0.11172 0.69938 0.71964 0.0
C1835 C 0.10858 0.60325 0.73957 0.0
C1836 C 0.0892 0.59372 0.74839 0.0
C1837 C 0.1171 0.6213 0.7242 0.0
C1838 C 0.10644 0.63016 0.71751 0.0
C1839 C 0.08765 0.62155 0.72966 0.0
C1840 C 0.07907 0.60343 0.74492 0.0
C1841 C 0.11423 0.64725 0.69427 0.0
C1842 C 0.11623 0.66405 0.70872 0.0
C1843 C 0.11995 0.64696 0.65796 0.0
C1844 C 0.1171 0.62928 0.6406 0.0
C1845 C 0.09893 0.61321 0.63858 0.0
C1846 C 0.09638 0.59649 0.62287 0.0
C1847 C 0.11187 0.59571 0.60876 0.0
C1848 C 0.12994 0.61167 0.61023 0.0
C1849 C 0.13257 0.62842 0.626 0.0
H1850 H 0.10987 0.58274 0.59661 0.0
H1851 H 0.13444 0.74503 0.74927 0.0
H1852 H 0.40346 0.52083 0.73489 0.0
H1853 H 0.37154 0.50341 0.70995 0.0
H1854 H 0.37381 0.45174 0.71348 0.0
H1855 H 0.40592 0.46912 0.73806 0.0
H1856 H 0.36337 0.45717 0.64725 0.0
H1857 H 0.34439 0.45818 0.76985 0.0
H1858 H 0.34416 0.47232 0.82907 0.0
H1859 H 0.32582 0.50748 0.77682 0.0
H1860 H 0.3262 0.49373 0.71718 0.0
H1861 H 0.26498 0.39701 0.60345 0.0
H1862 H 0.29714 0.41284 0.62792 0.0
H1863 H 0.29853 0.46636 0.62448 0.0
H1864 H 0.2664 0.45069 0.60019 0.0
H1865 H 0.30681 0.45878 0.69175 0.0
H1866 H 0.32643 0.45806 0.56892 0.0
H1867 H 0.32672 0.44383 0.50985 0.0
H1868 H 0.34369 0.40778 0.56295 0.0
H1869 H 0.34324 0.42161 0.62245 0.0
C1870 C 0.39705 0.50569 0.73118 0.0
C1871 C 0.40733 0.49641 0.73831 0.0
C1872 C 0.37875 0.49573 0.71691 0.0
C1873 C 0.3703 0.47627 0.70975 0.0
C1874 C 0.38012 0.46677 0.71862 0.0
C1875 C 0.39843 0.47672 0.73295 0.0
C1876 C 0.35184 0.46622 0.69052 0.0
C1877 C 0.35089 0.45722 0.65731 0.0
C1878 C 0.33573 0.46673 0.70315 0.0
C1879 C 0.33549 0.47504 0.73898 0.0
C1880 C 0.34046 0.46904 0.77093 0.0
C1881 C 0.34027 0.47696 0.80459 0.0
C1882 C 0.33502 0.49082 0.80669 0.0
C1883 C 0.32991 0.49675 0.77514 0.0
C1884 C 0.33008 0.48889 0.74141 0.0
C1885 C 0.27229 0.41222 0.60695 0.0
C1886 C 0.26301 0.42254 0.60018 0.0
C1887 C 0.29069 0.42125 0.621 0.0
C1888 C 0.30016 0.44075 0.62832 0.0
C1889 C 0.2914 0.45127 0.61931 0.0
C1890 C 0.27306 0.44228 0.6052 0.0
C1891 C 0.31839 0.44988 0.64835 0.0
C1892 C 0.31927 0.45867 0.68177 0.0
C1893 C 0.3344 0.44914 0.63594 0.0
C1894 C 0.3346 0.44073 0.60021 0.0
C1895 C 0.33005 0.44697 0.56806 0.0
C1896 C 0.33028 0.439 0.53449 0.0
C1897 C 0.33517 0.42487 0.53266 0.0
C1898 C 0.33988 0.41871 0.56441 0.0
C1899 C 0.33965 0.42662 0.59806 0.0
H1900 H 0.33535 0.41873 0.50664 0.0
H1901 H 0.33488 0.49693 0.83278 0.0
H1902 H 0.15204 0.41124 0.60818 0.0
H1903 H 0.1333 0.42509 0.63017 0.0
H1904 H 0.18462 0.47827 0.64844 0.0
H1905 H 0.20332 0.46417 0.62826 0.0
H1906 H 0.16452 0.46994 0.70574 0.0
H1907 H 0.1508 0.47019 0.57832 0.0
H1908 H 0.13983 0.45645 0.51724 0.0
H1909 H 0.08466 0.41837 0.56026 0.0
H1910 H 0.09537 0.43173 0.62172 0.0
H1911 H 0.12898 0.53364 0.71576 0.0
H1912 H 0.14367 0.51504 0.6981 0.0
H1913 H 0.09138 0.4635 0.71984 0.0
H1914 H 0.07665 0.48214 0.73853 0.0
H1915 H 0.1088 0.46761 0.64639 0.0
H1916 H 0.12321 0.47066 0.77366 0.0
H1917 H 0.13507 0.48647 0.83288 0.0
H1918 H 0.1904 0.52087 0.78701 0.0
H1919 H 0.17881 0.50546 0.72733 0.0
C1920 C 0.15925 0.42602 0.61603 0.0
C1921 C 0.1791 0.43666 0.61653 0.0
C1922 C 0.14853 0.43394 0.62865 0.0
C1923 C 0.15751 0.45277 0.64105 0.0
C1924 C 0.17734 0.46367 0.63941 0.0
C1925 C 0.18802 0.45566 0.62758 0.0
C1926 C 0.14655 0.46084 0.65819 0.0
C1927 C 0.15247 0.46958 0.69244 0.0
C1928 C 0.13041 0.45987 0.6416 0.0
C1929 C 0.12395 0.45181 0.60469 0.0
C1930 C 0.13637 0.45878 0.57481 0.0
C1931 C 0.13019 0.45108 0.54011 0.0
C1932 C 0.11158 0.43651 0.53489 0.0
C1933 C 0.09908 0.42964 0.56435 0.0
C1934 C 0.1052 0.43727 0.59912 0.0
C1935 C 0.12073 0.51835 0.71754 0.0
C1936 C 0.10172 0.5093 0.72861 0.0
C1937 C 0.12912 0.50776 0.70739 0.0
C1938 C 0.11856 0.48794 0.70756 0.0
C1939 C 0.09971 0.47881 0.71956 0.0
C1940 C 0.0914 0.48944 0.73049 0.0
C1941 C 0.12715 0.47701 0.69318 0.0
C1942 C 0.12076 0.46774 0.6596 0.0
C1943 C 0.14304 0.47774 0.71004 0.0
C1944 C 0.15009 0.48701 0.74593 0.0
C1945 C 0.13787 0.48171 0.7761 0.0
C1946 C 0.14455 0.49058 0.80978 0.0
C1947 C 0.16347 0.50469 0.81369 0.0
C1948 C 0.17575 0.50994 0.78394 0.0
C1949 C 0.16914 0.50113 0.75019 0.0
H1950 H 0.16862 0.51154 0.83979 0.0
H1951 H 0.10682 0.43057 0.50801 0.0
H1952 H 0.46484 0.5977 0.71398 0.0
H1953 H 0.48294 0.63056 0.69382 0.0
H1954 H 0.53494 0.63161 0.72089 0.0
H1955 H 0.51672 0.59891 0.74286 0.0
H1956 H 0.53937 0.66502 0.7327 0.0
H1957 H 0.51677 0.62245 0.63265 0.0
H1958 H 0.49344 0.59605 0.59493 0.0
H1959 H 0.46292 0.62561 0.57737 0.0
H1960 H 0.48592 0.65208 0.61546 0.0
H1961 H 0.59198 0.74298 0.61005 0.0
H1962 H 0.57608 0.7095 0.62818 0.0
H1963 H 0.5244 0.71046 0.64688 0.0
H1964 H 0.54035 0.744 0.63013 0.0
H1965 H 0.5226 0.67571 0.60836 0.0
H1966 H 0.54586 0.71717 0.71572 0.0
H1967 H 0.57139 0.74346 0.75029 0.0
H1968 H 0.6037 0.71503 0.74908 0.0
H1969 H 0.57846 0.68871 0.71392 0.0
C1970 C 0.48011 0.60513 0.71653 0.0
C1971 C 0.48941 0.59579 0.72976 0.0
C1972 C 0.49046 0.62383 0.70464 0.0
C1973 C 0.51033 0.63335 0.70459 0.0
C1974 C 0.51963 0.6245 0.72028 0.0
C1975 C 0.50922 0.60585 0.73299 0.0
C1976 C 0.52123 0.65202 0.68626 0.0
C1977 C 0.53584 0.66723 0.70534 0.0
C1978 C 0.51681 0.655 0.65034 0.0
C1979 C 0.503 0.63918 0.62716 0.0
C1980 C 0.50502 0.62327 0.62093 0.0
C1981 C 0.49186 0.6083 0.59947 0.0
C1982 C 0.47669 0.60914 0.58382 0.0
C1983 C 0.47467 0.62498 0.58954 0.0
C1984 C 0.48778 0.63998 0.61103 0.0
C1985 C 0.57709 0.73586 0.61702 0.0
C1986 C 0.56733 0.74597 0.61869 0.0
C1987 C 0.56809 0.71684 0.62756 0.0
C1988 C 0.54915 0.70766 0.63902 0.0
C1989 C 0.53902 0.71736 0.63806 0.0
C1990 C 0.54812 0.73646 0.62848 0.0
C1991 C 0.54027 0.68854 0.65517 0.0
C1992 C 0.52613 0.67331 0.63559 0.0
C1993 C 0.5454 0.68545 0.6902 0.0
C1994 C 0.5604 0.70111 0.71183 0.0
C1995 C 0.55849 0.71662 0.72253 0.0
C1996 C 0.57289 0.73151 0.74228 0.0
C1997 C 0.58919 0.73095 0.75177 0.0
C1998 C 0.59108 0.71547 0.74165 0.0
C1999 C 0.57674 0.70056 0.72182 0.0
H2000 H 0.60033 0.7425 0.76705 0.0
H2001 H 0.46651 0.59753 0.56721 0.0
H2002 H 0.25679 0.79306 0.64756 0.0
H2003 H 0.2893 0.81216 0.6687 0.0
H2004 H 0.29337 0.8612 0.61554 0.0
H2005 H 0.26067 0.842 0.59379 0.0
H2006 H 0.32624 0.86021 0.60966 0.0
H2007 H 0.28479 0.8562 0.70409 0.0
H2008 H 0.25747 0.84066 0.74563 0.0
H2009 H 0.28098 0.80908 0.79416 0.0
H2010 H 0.30831 0.82421 0.75251 0.0
H2011 H 0.39997 0.91009 0.76329 0.0
H2012 H 0.36689 0.8959 0.74342 0.0
H2013 H 0.37389 0.85679 0.67521 0.0
H2014 H 0.40667 0.87069 0.69485 0.0
H2015 H 0.33528 0.85917 0.74328 0.0
H2016 H 0.35546 0.85694 0.5917 0.0
H2017 H 0.38282 0.87497 0.55113 0.0
H2018 H 0.40177 0.92423 0.61844 0.0
H2019 H 0.37434 0.90662 0.65901 0.0
C2020 C 0.26467 0.80783 0.6398 0.0
C2021 C 0.25611 0.81607 0.61928 0.0
C2022 C 0.28322 0.81876 0.65211 0.0
C2023 C 0.29356 0.83818 0.64446 0.0
C2024 C 0.28554 0.84625 0.62199 0.0
C2025 C 0.2669 0.83526 0.60949 0.0
C2026 C 0.3124 0.85 0.66138 0.0
C2027 C 0.32822 0.86007 0.63885 0.0
C2028 C 0.3149 0.85032 0.69964 0.0
C2029 C 0.29855 0.84126 0.72499 0.0
C2030 C 0.28408 0.84585 0.72345 0.0
C2031 C 0.2686 0.83712 0.74704 0.0
C2032 C 0.26748 0.82387 0.77248 0.0
C2033 C 0.28187 0.81934 0.77443 0.0
C2034 C 0.29737 0.82801 0.75086 0.0
C2035 C 0.3943 0.89816 0.74477 0.0
C2036 C 0.40598 0.89162 0.73039 0.0
C2037 C 0.37546 0.89015 0.73333 0.0
C2038 C 0.36816 0.87562 0.70723 0.0
C2039 C 0.37941 0.86825 0.69483 0.0
C2040 C 0.39812 0.87616 0.70628 0.0
C2041 C 0.34911 0.86856 0.69139 0.0
C2042 C 0.33327 0.85946 0.71413 0.0
C2043 C 0.34658 0.86954 0.65343 0.0
C2044 C 0.3629 0.88037 0.62861 0.0
C2045 C 0.36539 0.87165 0.59773 0.0
C2046 C 0.38092 0.8818 0.57474 0.0
C2047 C 0.39406 0.90071 0.58228 0.0
C2048 C 0.39162 0.90955 0.6127 0.0
C2049 C 0.37609 0.89949 0.63572 0.0
H2050 H 0.40611 0.90851 0.56453 0.0
H2051 H 0.25548 0.81713 0.79072 0.0
loop_
_geom_bond_atom_site_label_1
_geom_bond_atom_site_label_2
_geom_bond_distance
_geom_bond_site_symmetry_2
_ccdc_geom_bond_type
O0 Cd1 2.223 . S
O0 C8 1.315 . S
Cd1 O0 2.223 . S
Cd1 O4 2.297 . S
Cd1 O5 2.439 . S
Cd1 O11 2.240 . S
Cd2 O3 2.240 . S
Cd2 O10 2.223 1_554 S
Cd2 O12 2.297 . S
Cd2 O13 2.439 . S
O3 Cd2 2.240 . S
O3 C8 1.279 . S
O4 Cd1 2.297 . S
O4 C6 1.247 . S
O5 Cd1 2.439 . S
O5 C6 1.208 . S
C6 O4 1.247 . S
C6 O5 1.208 . S
C7 O12 1.247 . S
C7 O13 1.208 . S
C8 O0 1.315 . S
C8 O3 1.279 . S
C9 O10 1.315 . S
C9 O11 1.279 1_556 S
O10 Cd2 2.223 1_556 S
O10 C9 1.315 . S
O11 Cd1 2.240 . S
O11 C9 1.279 1_554 S
O12 Cd2 2.297 . S
O12 C7 1.247 . S
O13 Cd2 2.439 . S
O13 C7 1.208 . S
O14 Cd15 2.223 . S
O14 C22 1.315 . S
Cd15 O14 2.223 . S
Cd15 O18 2.297 . S
Cd15 O19 2.439 . S
Cd15 O25 2.240 . S
Cd16 O17 2.240 . S
Cd16 O24 2.223 1_554 S
Cd16 O26 2.297 . S
Cd16 O27 2.439 . S
O17 Cd16 2.240 . S
O17 C22 1.279 . S
O18 Cd15 2.297 . S
O18 C20 1.247 . S
O19 Cd15 2.439 . S
O19 C20 1.208 . S
C20 O18 1.247 . S
C20 O19 1.208 . S
C21 O26 1.247 . S
C21 O27 1.208 . S
C22 O14 1.315 . S
C22 O17 1.279 . S
C23 O24 1.315 . S
C23 O25 1.279 1_556 S
O24 Cd16 2.223 1_556 S
O24 C23 1.315 . S
O25 Cd15 2.240 . S
O25 C23 1.279 1_554 S
O26 Cd16 2.297 . S
O26 C21 1.247 . S
O27 Cd16 2.439 . S
O27 C21 1.208 . S
O28 Cd29 2.223 . S
O28 C36 1.315 . S
Cd29 O28 2.223 . S
Cd29 O32 2.297 . S
Cd29 O33 2.439 . S
Cd29 O39 2.240 . S
Cd30 O31 2.240 . S
Cd30 O38 2.223 1_554 S
Cd30 O40 2.297 . S
Cd30 O41 2.439 . S
O31 Cd30 2.240 . S
O31 C36 1.279 . S
O32 Cd29 2.297 . S
O32 C34 1.247 . S
O33 Cd29 2.439 . S
O33 C34 1.208 . S
C34 O32 1.247 . S
C34 O33 1.208 . S
C35 O40 1.247 . S
C35 O41 1.208 . S
C36 O28 1.315 . S
C36 O31 1.279 . S
C37 O38 1.315 . S
C37 O39 1.279 1_556 S
O38 Cd30 2.223 1_556 S
O38 C37 1.315 . S
O39 Cd29 2.240 . S
O39 C37 1.279 1_554 S
O40 Cd30 2.297 . S
O40 C35 1.247 . S
O41 Cd30 2.439 . S
O41 C35 1.208 . S
O42 Cd43 2.223 . S
O42 C50 1.315 . S
Cd43 O42 2.223 . S
Cd43 O46 2.297 . S
Cd43 O47 2.439 . S
Cd43 O53 2.240 . S
Cd44 O45 2.240 . S
Cd44 O52 2.223 1_556 S
Cd44 O54 2.297 . S
Cd44 O55 2.439 . S
O45 Cd44 2.240 . S
O45 C50 1.279 . S
O46 Cd43 2.297 . S
O46 C48 1.247 . S
O47 Cd43 2.439 . S
O47 C48 1.208 . S
C48 O46 1.247 . S
C48 O47 1.208 . S
C49 O54 1.247 . S
C49 O55 1.208 . S
C50 O42 1.315 . S
C50 O45 1.279 . S
C51 O52 1.315 . S
C51 O53 1.279 1_554 S
O52 Cd44 2.223 1_554 S
O52 C51 1.315 . S
O53 Cd43 2.240 . S
O53 C51 1.279 1_556 S
O54 Cd44 2.297 . S
O54 C49 1.247 . S
O55 Cd44 2.439 . S
O55 C49 1.208 . S
O56 Cd57 2.223 . S
O56 C64 1.315 . S
Cd57 O56 2.223 . S
Cd57 O60 2.297 . S
Cd57 O61 2.439 . S
Cd57 O67 2.240 . S
Cd58 O59 2.240 . S
Cd58 O66 2.223 1_556 S
Cd58 O68 2.297 . S
Cd58 O69 2.439 . S
O59 Cd58 2.240 . S
O59 C64 1.279 . S
O60 Cd57 2.297 . S
O60 C62 1.247 . S
O61 Cd57 2.439 . S
O61 C62 1.208 . S
C62 O60 1.247 . S
C62 O61 1.208 . S
C63 O68 1.247 . S
C63 O69 1.208 . S
C64 O56 1.315 . S
C64 O59 1.279 . S
C65 O66 1.315 . S
C65 O67 1.279 1_554 S
O66 Cd58 2.223 1_554 S
O66 C65 1.315 . S
O67 Cd57 2.240 . S
O67 C65 1.279 1_556 S
O68 Cd58 2.297 . S
O68 C63 1.247 . S
O69 Cd58 2.439 . S
O69 C63 1.208 . S
O70 Cd71 2.223 . S
O70 C78 1.315 . S
Cd71 O70 2.223 . S
Cd71 O74 2.297 . S
Cd71 O75 2.439 . S
Cd71 O81 2.240 . S
Cd72 O73 2.240 . S
Cd72 O80 2.223 1_556 S
Cd72 O82 2.297 . S
Cd72 O83 2.439 . S
O73 Cd72 2.240 . S
O73 C78 1.279 . S
O74 Cd71 2.297 . S
O74 C76 1.247 . S
O75 Cd71 2.439 . S
O75 C76 1.208 . S
C76 O74 1.247 . S
C76 O75 1.208 . S
C77 O82 1.247 . S
C77 O83 1.208 . S
C78 O70 1.315 . S
C78 O73 1.279 . S
C79 O80 1.315 . S
C79 O81 1.279 1_554 S
O80 Cd72 2.223 1_554 S
O80 C79 1.315 . S
O81 Cd71 2.240 . S
O81 C79 1.279 1_556 S
O82 Cd72 2.297 . S
O82 C77 1.247 . S
O83 Cd72 2.439 . S
O83 C77 1.208 . S
O84 Cd85 2.223 . S
O84 C92 1.315 . S
Cd85 O84 2.223 . S
Cd85 O88 2.297 . S
Cd85 O89 2.439 . S
Cd85 O95 2.240 . S
Cd86 O87 2.240 . S
Cd86 O94 2.223 . S
Cd86 O96 2.297 . S
Cd86 O97 2.439 . S
O87 Cd86 2.240 . S
O87 C92 1.279 . S
O88 Cd85 2.297 . S
O88 C90 1.247 . S
O89 Cd85 2.439 . S
O89 C90 1.208 . S
C90 O88 1.247 . S
C90 O89 1.208 . S
C91 O96 1.247 . S
C91 O97 1.208 . S
C92 O84 1.315 . S
C92 O87 1.279 . S
C93 O94 1.315 . S
C93 O95 1.279 . S
O94 Cd86 2.223 . S
O94 C93 1.315 . S
O95 Cd85 2.240 . S
O95 C93 1.279 . S
O96 Cd86 2.297 . S
O96 C91 1.247 . S
O97 Cd86 2.439 . S
O97 C91 1.208 . S
O98 Cd99 2.223 . S
O98 C106 1.315 . S
Cd99 O98 2.223 . S
Cd99 O102 2.297 . S
Cd99 O103 2.439 . S
Cd99 O109 2.240 . S
Cd100 O101 2.240 . S
Cd100 O108 2.223 . S
Cd100 O110 2.297 . S
Cd100 O111 2.439 . S
O101 Cd100 2.240 . S
O101 C106 1.279 . S
O102 Cd99 2.297 . S
O102 C104 1.247 . S
O103 Cd99 2.439 . S
O103 C104 1.208 . S
C104 O102 1.247 . S
C104 O103 1.208 . S
C105 O110 1.247 . S
C105 O111 1.208 . S
C106 O98 1.315 . S
C106 O101 1.279 . S
C107 O108 1.315 . S
C107 O109 1.279 . S
O108 Cd100 2.223 . S
O108 C107 1.315 . S
O109 Cd99 2.240 . S
O109 C107 1.279 . S
O110 Cd100 2.297 . S
O110 C105 1.247 . S
O111 Cd100 2.439 . S
O111 C105 1.208 . S
O112 Cd113 2.223 . S
O112 C120 1.315 . S
Cd113 O112 2.223 . S
Cd113 O116 2.297 . S
Cd113 O117 2.439 . S
Cd113 O123 2.240 . S
Cd114 O115 2.240 . S
Cd114 O122 2.223 . S
Cd114 O124 2.297 . S
Cd114 O125 2.439 . S
O115 Cd114 2.240 . S
O115 C120 1.279 . S
O116 Cd113 2.297 . S
O116 C118 1.247 . S
O117 Cd113 2.439 . S
O117 C118 1.208 . S
C118 O116 1.247 . S
C118 O117 1.208 . S
C119 O124 1.247 . S
C119 O125 1.208 . S
C120 O112 1.315 . S
C120 O115 1.279 . S
C121 O122 1.315 . S
C121 O123 1.279 . S
O122 Cd114 2.223 . S
O122 C121 1.315 . S
O123 Cd113 2.240 . S
O123 C121 1.279 . S
O124 Cd114 2.297 . S
O124 C119 1.247 . S
O125 Cd114 2.439 . S
O125 C119 1.208 . S
O126 Cd127 2.223 . S
O126 C134 1.315 . S
Cd127 O126 2.223 . S
Cd127 O130 2.297 . S
Cd127 O131 2.439 . S
Cd127 O137 2.240 . S
Cd128 O129 2.240 . S
Cd128 O136 2.223 . S
Cd128 O138 2.297 . S
Cd128 O139 2.439 . S
O129 Cd128 2.240 . S
O129 C134 1.279 . S
O130 Cd127 2.297 . S
O130 C132 1.247 . S
O131 Cd127 2.439 . S
O131 C132 1.208 . S
C132 O130 1.247 . S
C132 O131 1.208 . S
C133 O138 1.247 . S
C133 O139 1.208 . S
C134 O126 1.315 . S
C134 O129 1.279 . S
C135 O136 1.315 . S
C135 O137 1.279 . S
O136 Cd128 2.223 . S
O136 C135 1.315 . S
O137 Cd127 2.240 . S
O137 C135 1.279 . S
O138 Cd128 2.297 . S
O138 C133 1.247 . S
O139 Cd128 2.439 . S
O139 C133 1.208 . S
O140 Cd141 2.223 . S
O140 C148 1.315 . S
Cd141 O140 2.223 . S
Cd141 O144 2.297 . S
Cd141 O145 2.439 . S
Cd141 O151 2.240 . S
Cd142 O143 2.240 . S
Cd142 O150 2.223 . S
Cd142 O152 2.297 . S
Cd142 O153 2.439 . S
O143 Cd142 2.240 . S
O143 C148 1.279 . S
O144 Cd141 2.297 . S
O144 C146 1.247 . S
O145 Cd141 2.439 . S
O145 C146 1.208 . S
C146 O144 1.247 . S
C146 O145 1.208 . S
C147 O152 1.247 . S
C147 O153 1.208 . S
C148 O140 1.315 . S
C148 O143 1.279 . S
C149 O150 1.315 . S
C149 O151 1.279 . S
O150 Cd142 2.223 . S
O150 C149 1.315 . S
O151 Cd141 2.240 . S
O151 C149 1.279 . S
O152 Cd142 2.297 . S
O152 C147 1.247 . S
O153 Cd142 2.439 . S
O153 C147 1.208 . S
O154 Cd155 2.223 . S
O154 C162 1.315 . S
Cd155 O154 2.223 . S
Cd155 O158 2.297 . S
Cd155 O159 2.439 . S
Cd155 O165 2.240 . S
Cd156 O157 2.240 . S
Cd156 O164 2.223 . S
Cd156 O166 2.297 . S
Cd156 O167 2.439 . S
O157 Cd156 2.240 . S
O157 C162 1.279 . S
O158 Cd155 2.297 . S
O158 C160 1.247 . S
O159 Cd155 2.439 . S
O159 C160 1.208 . S
C160 O158 1.247 . S
C160 O159 1.208 . S
C161 O166 1.247 . S
C161 O167 1.208 . S
C162 O154 1.315 . S
C162 O157 1.279 . S
C163 O164 1.315 . S
C163 O165 1.279 . S
O164 Cd156 2.223 . S
O164 C163 1.315 . S
O165 Cd155 2.240 . S
O165 C163 1.279 . S
O166 Cd156 2.297 . S
O166 C161 1.247 . S
O167 Cd156 2.439 . S
O167 C161 1.208 . S
O168 Cd169 2.223 . S
O168 C176 1.315 . S
Cd169 O168 2.223 . S
Cd169 O172 2.297 . S
Cd169 O173 2.439 . S
Cd169 O179 2.240 . S
Cd170 O171 2.240 . S
Cd170 O178 2.223 . S
Cd170 O180 2.297 . S
Cd170 O181 2.439 . S
O171 Cd170 2.240 . S
O171 C176 1.279 . S
O172 Cd169 2.297 . S
O172 C174 1.247 . S
O173 Cd169 2.439 . S
O173 C174 1.208 . S
C174 O172 1.247 . S
C174 O173 1.208 . S
C175 O180 1.247 . S
C175 O181 1.208 . S
C176 O168 1.315 . S
C176 O171 1.279 . S
C177 O178 1.315 . S
C177 O179 1.279 . S
O178 Cd170 2.223 . S
O178 C177 1.315 . S
O179 Cd169 2.240 . S
O179 C177 1.279 . S
O180 Cd170 2.297 . S
O180 C175 1.247 . S
O181 Cd170 2.439 . S
O181 C175 1.208 . S
O182 Cd183 2.223 . S
O182 C190 1.315 . S
Cd183 O182 2.223 . S
Cd183 O186 2.297 . S
Cd183 O187 2.439 . S
Cd183 O193 2.240 . S
Cd184 O185 2.240 . S
Cd184 O192 2.223 . S
Cd184 O194 2.297 . S
Cd184 O195 2.439 . S
O185 Cd184 2.240 . S
O185 C190 1.279 . S
O186 Cd183 2.297 . S
O186 C188 1.247 . S
O187 Cd183 2.439 . S
O187 C188 1.208 . S
C188 O186 1.247 . S
C188 O187 1.208 . S
C189 O194 1.247 . S
C189 O195 1.208 . S
C190 O182 1.315 . S
C190 O185 1.279 . S
C191 O192 1.315 . S
C191 O193 1.279 . S
O192 Cd184 2.223 . S
O192 C191 1.315 . S
O193 Cd183 2.240 . S
O193 C191 1.279 . S
O194 Cd184 2.297 . S
O194 C189 1.247 . S
O195 Cd184 2.439 . S
O195 C189 1.208 . S
O196 Cd197 2.223 . S
O196 C204 1.315 . S
Cd197 O196 2.223 . S
Cd197 O200 2.297 . S
Cd197 O201 2.439 . S
Cd197 O207 2.240 . S
Cd198 O199 2.240 . S
Cd198 O206 2.223 . S
Cd198 O208 2.297 . S
Cd198 O209 2.439 . S
O199 Cd198 2.240 . S
O199 C204 1.279 . S
O200 Cd197 2.297 . S
O200 C202 1.247 . S
O201 Cd197 2.439 . S
O201 C202 1.208 . S
C202 O200 1.247 . S
C202 O201 1.208 . S
C203 O208 1.247 . S
C203 O209 1.208 . S
C204 O196 1.315 . S
C204 O199 1.279 . S
C205 O206 1.315 . S
C205 O207 1.279 . S
O206 Cd198 2.223 . S
O206 C205 1.315 . S
O207 Cd197 2.240 . S
O207 C205 1.279 . S
O208 Cd198 2.297 . S
O208 C203 1.247 . S
O209 Cd198 2.439 . S
O209 C203 1.208 . S
O210 Cd211 2.223 . S
O210 C218 1.315 . S
Cd211 O210 2.223 . S
Cd211 O214 2.297 . S
Cd211 O215 2.439 . S
Cd211 O221 2.240 . S
Cd212 O213 2.240 . S
Cd212 O220 2.223 . S
Cd212 O222 2.297 . S
Cd212 O223 2.439 . S
O213 Cd212 2.240 . S
O213 C218 1.279 . S
O214 Cd211 2.297 . S
O214 C216 1.247 . S
O215 Cd211 2.439 . S
O215 C216 1.208 . S
C216 O214 1.247 . S
C216 O215 1.208 . S
C217 O222 1.247 . S
C217 O223 1.208 . S
C218 O210 1.315 . S
C218 O213 1.279 . S
C219 O220 1.315 . S
C219 O221 1.279 . S
O220 Cd212 2.223 . S
O220 C219 1.315 . S
O221 Cd211 2.240 . S
O221 C219 1.279 . S
O222 Cd212 2.297 . S
O222 C217 1.247 . S
O223 Cd212 2.439 . S
O223 C217 1.208 . S
O224 Cd225 2.223 . S
O224 C232 1.315 . S
Cd225 O224 2.223 . S
Cd225 O228 2.297 . S
Cd225 O229 2.439 . S
Cd225 O235 2.240 . S
Cd226 O227 2.240 . S
Cd226 O234 2.223 . S
Cd226 O236 2.297 . S
Cd226 O237 2.439 . S
O227 Cd226 2.240 . S
O227 C232 1.279 . S
O228 Cd225 2.297 . S
O228 C230 1.247 . S
O229 Cd225 2.439 . S
O229 C230 1.208 . S
C230 O228 1.247 . S
C230 O229 1.208 . S
C231 O236 1.247 . S
C231 O237 1.208 . S
C232 O224 1.315 . S
C232 O227 1.279 . S
C233 O234 1.315 . S
C233 O235 1.279 . S
O234 Cd226 2.223 . S
O234 C233 1.315 . S
O235 Cd225 2.240 . S
O235 C233 1.279 . S
O236 Cd226 2.297 . S
O236 C231 1.247 . S
O237 Cd226 2.439 . S
O237 C231 1.208 . S
O238 Cd239 2.223 . S
O238 C246 1.315 . S
Cd239 O238 2.223 . S
Cd239 O242 2.297 . S
Cd239 O243 2.439 . S
Cd239 O249 2.240 . S
Cd240 O241 2.240 . S
Cd240 O248 2.223 . S
Cd240 O250 2.297 . S
Cd240 O251 2.439 . S
O241 Cd240 2.240 . S
O241 C246 1.279 . S
O242 Cd239 2.297 . S
O242 C244 1.247 . S
O243 Cd239 2.439 . S
O243 C244 1.208 . S
C244 O242 1.247 . S
C244 O243 1.208 . S
C245 O250 1.247 . S
C245 O251 1.208 . S
C246 O238 1.315 . S
C246 O241 1.279 . S
C247 O248 1.315 . S
C247 O249 1.279 . S
O248 Cd240 2.223 . S
O248 C247 1.315 . S
O249 Cd239 2.240 . S
O249 C247 1.279 . S
O250 Cd240 2.297 . S
O250 C245 1.247 . S
O251 Cd240 2.439 . S
O251 C245 1.208 . S
H252 C270 0.951 . S
H253 C272 0.951 . S
H254 C274 0.950 . S
H255 C275 0.950 . S
H256 C277 0.950 . S
H257 C280 0.950 . S
H258 C281 0.950 . S
H259 C283 0.950 . S
H260 C284 0.950 . S
H261 C285 0.951 . S
H262 C287 0.951 . S
H263 C289 0.950 . S
H264 C290 0.950 . S
H265 C292 0.950 . S
H266 C295 0.950 . S
H267 C296 0.950 . S
H268 C298 0.950 . S
H269 C299 0.950 . S
C270 H252 0.951 . S
C270 C271 1.366 . S
C270 C272 1.388 . S
C271 C270 1.366 . S
C271 C275 1.385 . S
C272 H253 0.951 . S
C272 C270 1.388 . S
C272 C273 1.366 . S
C273 C272 1.366 . S
C273 C274 1.414 . S
C273 C276 1.499 . S
C274 H254 0.950 . S
C274 C273 1.414 . S
C274 C275 1.374 . S
C275 H255 0.950 . S
C275 C271 1.385 . S
C275 C274 1.374 . S
C276 C273 1.499 . S
C276 C277 1.373 . S
C276 C278 1.389 . S
C277 H256 0.950 . S
C277 C276 1.373 . S
C277 C293 1.377 . S
C278 C276 1.389 . S
C278 C279 1.524 . S
C278 C292 1.377 . S
C279 C278 1.524 . S
C279 C280 1.397 . S
C279 C284 1.363 . S
C280 H257 0.950 . S
C280 C279 1.397 . S
C280 C281 1.334 . S
C281 H258 0.950 . S
C281 C280 1.334 . S
C281 C282 1.287 . S
C282 C281 1.287 . S
C282 C283 1.524 . S
C282 H301 0.913 . S
C283 H259 0.950 . S
C283 C282 1.524 . S
C283 C284 1.415 . S
C284 H260 0.950 . S
C284 C279 1.363 . S
C284 C283 1.415 . S
C285 H261 0.951 . S
C285 C286 1.366 . S
C285 C287 1.388 . S
C286 C285 1.366 . S
C286 C290 1.385 . S
C287 H262 0.951 . S
C287 C285 1.388 . S
C287 C288 1.366 . S
C288 C287 1.366 . S
C288 C289 1.414 . S
C288 C291 1.499 . S
C289 H263 0.950 . S
C289 C288 1.414 . S
C289 C290 1.374 . S
C290 H264 0.950 . S
C290 C286 1.385 . S
C290 C289 1.374 . S
C291 C288 1.499 . S
C291 C292 1.373 . S
C291 C293 1.389 . S
C292 H265 0.950 . S
C292 C278 1.377 . S
C292 C291 1.373 . S
C293 C277 1.377 . S
C293 C291 1.389 . S
C293 C294 1.524 . S
C294 C293 1.524 . S
C294 C295 1.397 . S
C294 C299 1.363 . S
C295 H266 0.950 . S
C295 C294 1.397 . S
C295 C296 1.334 . S
C296 H267 0.950 . S
C296 C295 1.334 . S
C296 C297 1.287 . S
C297 C296 1.287 . S
C297 C298 1.524 . S
C297 H300 0.999 . S
C298 H268 0.950 . S
C298 C297 1.524 . S
C298 C299 1.415 . S
C299 H269 0.950 . S
C299 C294 1.363 . S
C299 C298 1.415 . S
H300 C297 0.999 . S
H301 C282 0.913 . S
H302 C320 0.951 . S
H303 C322 0.951 . S
H304 C324 0.950 . S
H305 C325 0.950 . S
H306 C327 0.950 . S
H307 C330 0.950 . S
H308 C331 0.950 . S
H309 C333 0.950 . S
H310 C334 0.950 . S
H311 C335 0.951 . S
H312 C337 0.951 . S
H313 C339 0.950 . S
H314 C340 0.950 . S
H315 C342 0.950 . S
H316 C345 0.950 . S
H317 C346 0.950 . S
H318 C348 0.950 . S
H319 C349 0.950 . S
C320 H302 0.951 . S
C320 C321 1.366 . S
C320 C322 1.388 . S
C321 C320 1.366 . S
C321 C325 1.385 . S
C322 H303 0.951 . S
C322 C320 1.388 . S
C322 C323 1.366 . S
C323 C322 1.366 . S
C323 C324 1.414 . S
C323 C326 1.499 . S
C324 H304 0.950 . S
C324 C323 1.414 . S
C324 C325 1.374 . S
C325 H305 0.950 . S
C325 C321 1.385 . S
C325 C324 1.374 . S
C326 C323 1.499 . S
C326 C327 1.373 . S
C326 C328 1.389 . S
C327 H306 0.950 . S
C327 C326 1.373 . S
C327 C343 1.377 . S
C328 C326 1.389 . S
C328 C329 1.524 . S
C328 C342 1.377 . S
C329 C328 1.524 . S
C329 C330 1.397 . S
C329 C334 1.363 . S
C330 H307 0.950 . S
C330 C329 1.397 . S
C330 C331 1.334 . S
C331 H308 0.950 . S
C331 C330 1.334 . S
C331 C332 1.287 . S
C332 C331 1.287 . S
C332 C333 1.524 . S
C332 H351 0.913 . S
C333 H309 0.950 . S
C333 C332 1.524 . S
C333 C334 1.415 . S
C334 H310 0.950 . S
C334 C329 1.363 . S
C334 C333 1.415 . S
C335 H311 0.951 . S
C335 C336 1.366 . S
C335 C337 1.388 . S
C336 C335 1.366 . S
C336 C340 1.385 . S
C337 H312 0.951 . S
C337 C335 1.388 . S
C337 C338 1.366 . S
C338 C337 1.366 . S
C338 C339 1.414 . S
C338 C341 1.499 . S
C339 H313 0.950 . S
C339 C338 1.414 . S
C339 C340 1.374 . S
C340 H314 0.950 . S
C340 C336 1.385 . S
C340 C339 1.374 . S
C341 C338 1.499 . S
C341 C342 1.373 . S
C341 C343 1.389 . S
C342 H315 0.950 . S
C342 C328 1.377 . S
C342 C341 1.373 . S
C343 C327 1.377 . S
C343 C341 1.389 . S
C343 C344 1.524 . S
C344 C343 1.524 . S
C344 C345 1.397 . S
C344 C349 1.363 . S
C345 H316 0.950 . S
C345 C344 1.397 . S
C345 C346 1.334 . S
C346 H317 0.950 . S
C346 C345 1.334 . S
C346 C347 1.287 . S
C347 C346 1.287 . S
C347 C348 1.524 . S
C347 H350 0.999 . S
C348 H318 0.950 . S
C348 C347 1.524 . S
C348 C349 1.415 . S
C349 H319 0.950 . S
C349 C344 1.363 . S
C349 C348 1.415 . S
H350 C347 0.999 . S
H351 C332 0.913 . S
H352 C370 0.951 . S
H353 C372 0.951 . S
H354 C374 0.950 . S
H355 C375 0.950 . S
H356 C377 0.950 . S
H357 C380 0.950 . S
H358 C381 0.950 . S
H359 C383 0.950 . S
H360 C384 0.950 . S
H361 C385 0.951 . S
H362 C387 0.951 . S
H363 C389 0.950 . S
H364 C390 0.950 . S
H365 C392 0.950 . S
H366 C395 0.950 . S
H367 C396 0.950 . S
H368 C398 0.950 . S
H369 C399 0.950 . S
C370 H352 0.951 . S
C370 C371 1.366 . S
C370 C372 1.388 . S
C371 C370 1.366 . S
C371 C375 1.385 . S
C372 H353 0.951 . S
C372 C370 1.388 . S
C372 C373 1.366 . S
C373 C372 1.366 . S
C373 C374 1.414 . S
C373 C376 1.499 . S
C374 H354 0.950 . S
C374 C373 1.414 . S
C374 C375 1.374 . S
C375 H355 0.950 . S
C375 C371 1.385 . S
C375 C374 1.374 . S
C376 C373 1.499 . S
C376 C377 1.373 . S
C376 C378 1.389 . S
C377 H356 0.950 . S
C377 C376 1.373 . S
C377 C393 1.377 . S
C378 C376 1.389 . S
C378 C379 1.524 . S
C378 C392 1.377 . S
C379 C378 1.524 . S
C379 C380 1.397 . S
C379 C384 1.363 . S
C380 H357 0.950 . S
C380 C379 1.397 . S
C380 C381 1.334 . S
C381 H358 0.950 . S
C381 C380 1.334 . S
C381 C382 1.287 . S
C382 C381 1.287 . S
C382 C383 1.524 . S
C382 H401 0.913 . S
C383 H359 0.950 . S
C383 C382 1.524 . S
C383 C384 1.415 . S
C384 H360 0.950 . S
C384 C379 1.363 . S
C384 C383 1.415 . S
C385 H361 0.951 . S
C385 C386 1.366 . S
C385 C387 1.388 . S
C386 C385 1.366 . S
C386 C390 1.385 . S
C387 H362 0.951 . S
C387 C385 1.388 . S
C387 C388 1.366 . S
C388 C387 1.366 . S
C388 C389 1.414 . S
C388 C391 1.499 . S
C389 H363 0.950 . S
C389 C388 1.414 . S
C389 C390 1.374 . S
C390 H364 0.950 . S
C390 C386 1.385 . S
C390 C389 1.374 . S
C391 C388 1.499 . S
C391 C392 1.373 . S
C391 C393 1.389 . S
C392 H365 0.950 . S
C392 C378 1.377 . S
C392 C391 1.373 . S
C393 C377 1.377 . S
C393 C391 1.389 . S
C393 C394 1.524 . S
C394 C393 1.524 . S
C394 C395 1.397 . S
C394 C399 1.363 . S
C395 H366 0.950 . S
C395 C394 1.397 . S
C395 C396 1.334 . S
C396 H367 0.950 . S
C396 C395 1.334 . S
C396 C397 1.287 . S
C397 C396 1.287 . S
C397 C398 1.524 . S
C397 H400 0.999 . S
C398 H368 0.950 . S
C398 C397 1.524 . S
C398 C399 1.415 . S
C399 H369 0.950 . S
C399 C394 1.363 . S
C399 C398 1.415 . S
H400 C397 0.999 . S
H401 C382 0.913 . S
H402 C420 0.951 . S
H403 C422 0.951 . S
H404 C424 0.950 . S
H405 C425 0.950 . S
H406 C427 0.950 . S
H407 C430 0.950 . S
H408 C431 0.950 . S
H409 C433 0.950 . S
H410 C434 0.950 . S
H411 C435 0.951 . S
H412 C437 0.951 . S
H413 C439 0.950 . S
H414 C440 0.950 . S
H415 C442 0.950 . S
H416 C445 0.950 . S
H417 C446 0.950 . S
H418 C448 0.950 . S
H419 C449 0.950 . S
C420 H402 0.951 . S
C420 C421 1.366 . S
C420 C422 1.388 . S
C421 C420 1.366 . S
C421 C425 1.385 . S
C422 H403 0.951 . S
C422 C420 1.388 . S
C422 C423 1.366 . S
C423 C422 1.366 . S
C423 C424 1.414 . S
C423 C426 1.499 . S
C424 H404 0.950 . S
C424 C423 1.414 . S
C424 C425 1.374 . S
C425 H405 0.950 . S
C425 C421 1.385 . S
C425 C424 1.374 . S
C426 C423 1.499 . S
C426 C427 1.373 . S
C426 C428 1.389 . S
C427 H406 0.950 . S
C427 C426 1.373 . S
C427 C443 1.377 . S
C428 C426 1.389 . S
C428 C429 1.524 . S
C428 C442 1.377 . S
C429 C428 1.524 . S
C429 C430 1.397 . S
C429 C434 1.363 . S
C430 H407 0.950 . S
C430 C429 1.397 . S
C430 C431 1.334 . S
C431 H408 0.950 . S
C431 C430 1.334 . S
C431 C432 1.287 . S
C432 C431 1.287 . S
C432 C433 1.524 . S
C432 H451 0.913 . S
C433 H409 0.950 . S
C433 C432 1.524 . S
C433 C434 1.415 . S
C434 H410 0.950 . S
C434 C429 1.363 . S
C434 C433 1.415 . S
C435 H411 0.951 . S
C435 C436 1.366 . S
C435 C437 1.388 . S
C436 C435 1.366 . S
C436 C440 1.385 . S
C437 H412 0.951 . S
C437 C435 1.388 . S
C437 C438 1.366 . S
C438 C437 1.366 . S
C438 C439 1.414 . S
C438 C441 1.499 . S
C439 H413 0.950 . S
C439 C438 1.414 . S
C439 C440 1.374 . S
C440 H414 0.950 . S
C440 C436 1.385 . S
C440 C439 1.374 . S
C441 C438 1.499 . S
C441 C442 1.373 . S
C441 C443 1.389 . S
C442 H415 0.950 . S
C442 C428 1.377 . S
C442 C441 1.373 . S
C443 C427 1.377 . S
C443 C441 1.389 . S
C443 C444 1.524 . S
C444 C443 1.524 . S
C444 C445 1.397 . S
C444 C449 1.363 . S
C445 H416 0.950 . S
C445 C444 1.397 . S
C445 C446 1.334 . S
C446 H417 0.950 . S
C446 C445 1.334 . S
C446 C447 1.287 . S
C447 C446 1.287 . S
C447 C448 1.524 . S
C447 H450 0.999 . S
C448 H418 0.950 . S
C448 C447 1.524 . S
C448 C449 1.415 . S
C449 H419 0.950 . S
C449 C444 1.363 . S
C449 C448 1.415 . S
H450 C447 0.999 . S
H451 C432 0.913 . S
H452 C470 0.951 . S
H453 C472 0.951 . S
H454 C474 0.950 . S
H455 C475 0.950 . S
H456 C477 0.950 . S
H457 C480 0.950 . S
H458 C481 0.950 . S
H459 C483 0.950 . S
H460 C484 0.950 . S
H461 C485 0.951 . S
H462 C487 0.951 . S
H463 C489 0.950 . S
H464 C490 0.950 . S
H465 C492 0.950 . S
H466 C495 0.950 . S
H467 C496 0.950 . S
H468 C498 0.950 . S
H469 C499 0.950 . S
C470 H452 0.951 . S
C470 C471 1.366 . S
C470 C472 1.388 . S
C471 C470 1.366 . S
C471 C475 1.385 . S
C472 H453 0.951 . S
C472 C470 1.388 . S
C472 C473 1.366 . S
C473 C472 1.366 . S
C473 C474 1.414 . S
C473 C476 1.499 . S
C474 H454 0.950 . S
C474 C473 1.414 . S
C474 C475 1.374 . S
C475 H455 0.950 . S
C475 C471 1.385 . S
C475 C474 1.374 . S
C476 C473 1.499 . S
C476 C477 1.373 . S
C476 C478 1.389 . S
C477 H456 0.950 . S
C477 C476 1.373 . S
C477 C493 1.377 . S
C478 C476 1.389 . S
C478 C479 1.524 . S
C478 C492 1.377 . S
C479 C478 1.524 . S
C479 C480 1.397 . S
C479 C484 1.363 . S
C480 H457 0.950 . S
C480 C479 1.397 . S
C480 C481 1.334 . S
C481 H458 0.950 . S
C481 C480 1.334 . S
C481 C482 1.287 . S
C482 C481 1.287 . S
C482 C483 1.524 . S
C482 H501 0.913 . S
C483 H459 0.950 . S
C483 C482 1.524 . S
C483 C484 1.415 . S
C484 H460 0.950 . S
C484 C479 1.363 . S
C484 C483 1.415 . S
C485 H461 0.951 . S
C485 C486 1.366 . S
C485 C487 1.388 . S
C486 C485 1.366 . S
C486 C490 1.385 . S
C487 H462 0.951 . S
C487 C485 1.388 . S
C487 C488 1.366 . S
C488 C487 1.366 . S
C488 C489 1.414 . S
C488 C491 1.499 . S
C489 H463 0.950 . S
C489 C488 1.414 . S
C489 C490 1.374 . S
C490 H464 0.950 . S
C490 C486 1.385 . S
C490 C489 1.374 . S
C491 C488 1.499 . S
C491 C492 1.373 . S
C491 C493 1.389 . S
C492 H465 0.950 . S
C492 C478 1.377 . S
C492 C491 1.373 . S
C493 C477 1.377 . S
C493 C491 1.389 . S
C493 C494 1.524 . S
C494 C493 1.524 . S
C494 C495 1.397 . S
C494 C499 1.363 . S
C495 H466 0.950 . S
C495 C494 1.397 . S
C495 C496 1.334 . S
C496 H467 0.950 . S
C496 C495 1.334 . S
C496 C497 1.287 . S
C497 C496 1.287 . S
C497 C498 1.524 . S
C497 H500 0.999 . S
C498 H468 0.950 . S
C498 C497 1.524 . S
C498 C499 1.415 . S
C499 H469 0.950 . S
C499 C494 1.363 . S
C499 C498 1.415 . S
H500 C497 0.999 . S
H501 C482 0.913 . S
H502 C520 0.951 . S
H503 C522 0.951 . S
H504 C524 0.950 . S
H505 C525 0.950 . S
H506 C527 0.950 . S
H507 C530 0.950 . S
H508 C531 0.950 . S
H509 C533 0.950 . S
H510 C534 0.950 . S
H511 C535 0.951 . S
H512 C537 0.951 . S
H513 C539 0.950 . S
H514 C540 0.950 . S
H515 C542 0.950 . S
H516 C545 0.950 . S
H517 C546 0.950 . S
H518 C548 0.950 . S
H519 C549 0.950 . S
C520 H502 0.951 . S
C520 C521 1.366 . S
C520 C522 1.388 . S
C521 C520 1.366 . S
C521 C525 1.385 . S
C522 H503 0.951 . S
C522 C520 1.388 . S
C522 C523 1.366 . S
C523 C522 1.366 . S
C523 C524 1.414 . S
C523 C526 1.499 . S
C524 H504 0.950 . S
C524 C523 1.414 . S
C524 C525 1.374 . S
C525 H505 0.950 . S
C525 C521 1.385 . S
C525 C524 1.374 . S
C526 C523 1.499 . S
C526 C527 1.373 . S
C526 C528 1.389 . S
C527 H506 0.950 . S
C527 C526 1.373 . S
C527 C543 1.377 . S
C528 C526 1.389 . S
C528 C529 1.524 . S
C528 C542 1.377 . S
C529 C528 1.524 . S
C529 C530 1.397 . S
C529 C534 1.363 . S
C530 H507 0.950 . S
C530 C529 1.397 . S
C530 C531 1.334 . S
C531 H508 0.950 . S
C531 C530 1.334 . S
C531 C532 1.287 . S
C532 C531 1.287 . S
C532 C533 1.524 . S
C532 H551 0.913 . S
C533 H509 0.950 . S
C533 C532 1.524 . S
C533 C534 1.415 . S
C534 H510 0.950 . S
C534 C529 1.363 . S
C534 C533 1.415 . S
C535 H511 0.951 . S
C535 C536 1.366 . S
C535 C537 1.388 . S
C536 C535 1.366 . S
C536 C540 1.385 . S
C537 H512 0.951 . S
C537 C535 1.388 . S
C537 C538 1.366 . S
C538 C537 1.366 . S
C538 C539 1.414 . S
C538 C541 1.499 . S
C539 H513 0.950 . S
C539 C538 1.414 . S
C539 C540 1.374 . S
C540 H514 0.950 . S
C540 C536 1.385 . S
C540 C539 1.374 . S
C541 C538 1.499 . S
C541 C542 1.373 . S
C541 C543 1.389 . S
C542 H515 0.950 . S
C542 C528 1.377 . S
C542 C541 1.373 . S
C543 C527 1.377 . S
C543 C541 1.389 . S
C543 C544 1.524 . S
C544 C543 1.524 . S
C544 C545 1.397 . S
C544 C549 1.363 . S
C545 H516 0.950 . S
C545 C544 1.397 . S
C545 C546 1.334 . S
C546 H517 0.950 . S
C546 C545 1.334 . S
C546 C547 1.287 . S
C547 C546 1.287 . S
C547 C548 1.524 . S
C547 H550 0.999 . S
C548 H518 0.950 . S
C548 C547 1.524 . S
C548 C549 1.415 . S
C549 H519 0.950 . S
C549 C544 1.363 . S
C549 C548 1.415 . S
H550 C547 0.999 . S
H551 C532 0.913 . S
H552 C570 0.951 . S
H553 C572 0.951 . S
H554 C574 0.950 . S
H555 C575 0.950 . S
H556 C577 0.950 . S
H557 C580 0.950 . S
H558 C581 0.950 . S
H559 C583 0.950 . S
H560 C584 0.950 . S
H561 C585 0.951 . S
H562 C587 0.951 . S
H563 C589 0.950 . S
H564 C590 0.950 . S
H565 C592 0.950 . S
H566 C595 0.950 . S
H567 C596 0.950 . S
H568 C598 0.950 . S
H569 C599 0.950 . S
C570 H552 0.951 . S
C570 C571 1.366 . S
C570 C572 1.388 . S
C571 C570 1.366 . S
C571 C575 1.385 . S
C572 H553 0.951 . S
C572 C570 1.388 . S
C572 C573 1.366 . S
C573 C572 1.366 . S
C573 C574 1.414 . S
C573 C576 1.499 . S
C574 H554 0.950 . S
C574 C573 1.414 . S
C574 C575 1.374 . S
C575 H555 0.950 . S
C575 C571 1.385 . S
C575 C574 1.374 . S
C576 C573 1.499 . S
C576 C577 1.373 1_655 S
C576 C578 1.389 . S
C577 H556 0.950 . S
C577 C576 1.373 1_455 S
C577 C593 1.377 1_554 S
C578 C576 1.389 . S
C578 C579 1.524 . S
C578 C592 1.377 1_554 S
C579 C578 1.524 . S
C579 C580 1.397 . S
C579 C584 1.363 . S
C580 H557 0.950 . S
C580 C579 1.397 . S
C580 C581 1.334 . S
C581 H558 0.950 . S
C581 C580 1.334 . S
C581 C582 1.287 . S
C582 C581 1.287 . S
C582 C583 1.524 . S
C582 H601 0.913 . S
C583 H559 0.950 . S
C583 C582 1.524 . S
C583 C584 1.415 . S
C584 H560 0.950 . S
C584 C579 1.363 . S
C584 C583 1.415 . S
C585 H561 0.951 . S
C585 C586 1.366 . S
C585 C587 1.388 . S
C586 C585 1.366 . S
C586 C590 1.385 . S
C587 H562 0.951 . S
C587 C585 1.388 . S
C587 C588 1.366 . S
C588 C587 1.366 . S
C588 C589 1.414 . S
C588 C591 1.499 . S
C589 H563 0.950 . S
C589 C588 1.414 . S
C589 C590 1.374 . S
C590 H564 0.950 . S
C590 C586 1.385 . S
C590 C589 1.374 . S
C591 C588 1.499 . S
C591 C592 1.373 1_455 S
C591 C593 1.389 . S
C592 H565 0.950 . S
C592 C578 1.377 1_556 S
C592 C591 1.373 1_655 S
C593 C577 1.377 1_556 S
C593 C591 1.389 . S
C593 C594 1.524 . S
C594 C593 1.524 . S
C594 C595 1.397 . S
C594 C599 1.363 . S
C595 H566 0.950 . S
C595 C594 1.397 . S
C595 C596 1.334 . S
C596 H567 0.950 . S
C596 C595 1.334 . S
C596 C597 1.287 . S
C597 C596 1.287 . S
C597 C598 1.524 . S
C597 H600 0.999 . S
C598 H568 0.950 . S
C598 C597 1.524 . S
C598 C599 1.415 . S
C599 H569 0.950 . S
C599 C594 1.363 . S
C599 C598 1.415 . S
H600 C597 0.999 . S
H601 C582 0.913 . S
H602 C620 0.951 . S
H603 C622 0.951 . S
H604 C624 0.950 . S
H605 C625 0.950 . S
H606 C627 0.950 . S
H607 C630 0.950 . S
H608 C631 0.950 . S
H609 C633 0.950 1_556 S
H610 C634 0.950 . S
H611 C635 0.951 . S
H612 C637 0.951 . S
H613 C639 0.950 . S
H614 C640 0.950 . S
H615 C642 0.950 . S
H616 C645 0.950 . S
H617 C646 0.950 . S
H618 C648 0.950 1_554 S
H619 C649 0.950 . S
C620 H602 0.951 . S
C620 C621 1.366 . S
C620 C622 1.388 . S
C621 C620 1.366 . S
C621 C625 1.385 . S
C622 H603 0.951 . S
C622 C620 1.388 . S
C622 C623 1.366 . S
C623 C622 1.366 . S
C623 C624 1.414 . S
C623 C626 1.499 . S
C624 H604 0.950 . S
C624 C623 1.414 . S
C624 C625 1.374 . S
C625 H605 0.950 . S
C625 C621 1.385 . S
C625 C624 1.374 . S
C626 C623 1.499 . S
C626 C627 1.373 . S
C626 C628 1.389 . S
C627 H606 0.950 . S
C627 C626 1.373 . S
C627 C643 1.377 1_554 S
C628 C626 1.389 . S
C628 C629 1.524 . S
C628 C642 1.377 1_554 S
C629 C628 1.524 . S
C629 C630 1.397 . S
C629 C634 1.363 1_554 S
C630 H607 0.950 . S
C630 C629 1.397 . S
C630 C631 1.334 . S
C631 H608 0.950 . S
C631 C630 1.334 . S
C631 C632 1.287 . S
C632 C631 1.287 . S
C632 C633 1.524 . S
C632 H651 0.913 . S
C633 H609 0.950 1_554 S
C633 C632 1.524 . S
C633 C634 1.415 1_554 S
C634 H610 0.950 . S
C634 C629 1.363 1_556 S
C634 C633 1.415 1_556 S
C635 H611 0.951 . S
C635 C636 1.366 . S
C635 C637 1.388 . S
C636 C635 1.366 . S
C636 C640 1.385 . S
C637 H612 0.951 . S
C637 C635 1.388 . S
C637 C638 1.366 . S
C638 C637 1.366 . S
C638 C639 1.414 . S
C638 C641 1.499 . S
C639 H613 0.950 . S
C639 C638 1.414 . S
C639 C640 1.374 . S
C640 H614 0.950 . S
C640 C636 1.385 . S
C640 C639 1.374 . S
C641 C638 1.499 . S
C641 C642 1.373 . S
C641 C643 1.389 . S
C642 H615 0.950 . S
C642 C628 1.377 1_556 S
C642 C641 1.373 . S
C643 C627 1.377 1_556 S
C643 C641 1.389 . S
C643 C644 1.524 . S
C644 C643 1.524 . S
C644 C645 1.397 . S
C644 C649 1.363 1_556 S
C645 H616 0.950 . S
C645 C644 1.397 . S
C645 C646 1.334 . S
C646 H617 0.950 . S
C646 C645 1.334 . S
C646 C647 1.287 . S
C647 C646 1.287 . S
C647 C648 1.524 . S
C647 H650 0.999 . S
C648 H618 0.950 1_556 S
C648 C647 1.524 . S
C648 C649 1.415 1_556 S
C649 H619 0.950 . S
C649 C644 1.363 1_554 S
C649 C648 1.415 1_554 S
H650 C647 0.999 . S
H651 C632 0.913 . S
H652 C670 0.951 . S
H653 C672 0.951 . S
H654 C674 0.950 . S
H655 C675 0.950 1_565 S
H656 C677 0.950 . S
H657 C680 0.950 . S
H658 C681 0.950 . S
H659 C683 0.957 . S
H660 C684 0.950 1_556 S
H661 C685 0.951 . S
H662 C687 0.951 . S
H663 C689 0.950 . S
H664 C690 0.950 1_545 S
H665 C692 0.950 . S
H666 C695 0.950 . S
H667 C696 0.950 . S
H668 C698 0.957 . S
H669 C699 0.950 1_554 S
C670 H652 0.951 . S
C670 C671 1.366 . S
C670 C672 1.388 . S
C671 C670 1.366 . S
C671 C675 1.385 . S
C672 H653 0.951 . S
C672 C670 1.388 . S
C672 C673 1.366 . S
C673 C672 1.366 . S
C673 C674 1.414 1_545 S
C673 C676 1.499 . S
C674 H654 0.950 . S
C674 C673 1.414 1_565 S
C674 C675 1.374 1_565 S
C675 H655 0.950 1_545 S
C675 C671 1.385 . S
C675 C674 1.374 1_545 S
C676 C673 1.499 . S
C676 C677 1.373 1_545 S
C676 C678 1.389 . S
C677 H656 0.950 . S
C677 C676 1.373 1_565 S
C677 C693 1.377 1_554 S
C678 C676 1.389 . S
C678 C679 1.524 . S
C678 C692 1.377 1_554 S
C679 C678 1.524 . S
C679 C680 1.397 . S
C679 C684 1.363 . S
C680 H657 0.950 . S
C680 C679 1.397 . S
C680 C681 1.334 . S
C681 H658 0.950 . S
C681 C680 1.334 . S
C681 C682 1.287 . S
C682 C681 1.287 . S
C682 C683 1.524 . S
C682 H701 0.913 . S
C683 H659 0.957 . S
C683 C682 1.524 . S
C683 C684 1.415 . S
C684 H660 0.950 1_554 S
C684 C679 1.363 . S
C684 C683 1.415 . S
C685 H661 0.951 . S
C685 C686 1.366 . S
C685 C687 1.388 . S
C686 C685 1.366 . S
C686 C690 1.385 . S
C687 H662 0.951 . S
C687 C685 1.388 . S
C687 C688 1.366 . S
C688 C687 1.366 . S
C688 C689 1.414 1_565 S
C688 C691 1.499 . S
C689 H663 0.950 . S
C689 C688 1.414 1_545 S
C689 C690 1.374 1_545 S
C690 H664 0.950 1_565 S
C690 C686 1.385 . S
C690 C689 1.374 1_565 S
C691 C688 1.499 . S
C691 C692 1.373 1_565 S
C691 C693 1.389 . S
C692 H665 0.950 . S
C692 C678 1.377 1_556 S
C692 C691 1.373 1_545 S
C693 C677 1.377 1_556 S
C693 C691 1.389 . S
C693 C694 1.524 . S
C694 C693 1.524 . S
C694 C695 1.397 . S
C694 C699 1.363 . S
C695 H666 0.950 . S
C695 C694 1.397 . S
C695 C696 1.334 . S
C696 H667 0.950 . S
C696 C695 1.334 . S
C696 C697 1.287 . S
C697 C696 1.287 . S
C697 C698 1.524 . S
C697 H700 0.999 . S
C698 H668 0.957 . S
C698 C697 1.524 . S
C698 C699 1.415 . S
C699 H669 0.950 1_556 S
C699 C694 1.363 . S
C699 C698 1.415 . S
H700 C697 0.999 . S
H701 C682 0.913 . S
H702 C720 0.951 . S
H703 C722 0.951 . S
H704 C724 0.950 . S
H705 C725 0.950 . S
H706 C727 0.950 . S
H707 C730 0.950 . S
H708 C731 0.950 . S
H709 C733 0.950 . S
H710 C734 0.950 . S
H711 C735 0.951 . S
H712 C737 0.951 . S
H713 C739 0.950 . S
H714 C740 0.950 . S
H715 C742 0.950 . S
H716 C745 0.950 . S
H717 C746 0.950 . S
H718 C748 0.950 . S
H719 C749 0.950 . S
C720 H702 0.951 . S
C720 C721 1.366 . S
C720 C722 1.388 . S
C721 C720 1.366 . S
C721 C725 1.385 . S
C722 H703 0.951 . S
C722 C720 1.388 . S
C722 C723 1.366 . S
C723 C722 1.366 . S
C723 C724 1.414 . S
C723 C726 1.499 . S
C724 H704 0.950 . S
C724 C723 1.414 . S
C724 C725 1.374 . S
C725 H705 0.950 . S
C725 C721 1.385 . S
C725 C724 1.374 . S
C726 C723 1.499 . S
C726 C727 1.373 . S
C726 C728 1.389 . S
C727 H706 0.950 . S
C727 C726 1.373 . S
C727 C743 1.377 . S
C728 C726 1.389 . S
C728 C729 1.524 . S
C728 C742 1.377 . S
C729 C728 1.524 . S
C729 C730 1.397 . S
C729 C734 1.363 . S
C730 H707 0.950 . S
C730 C729 1.397 . S
C730 C731 1.334 . S
C731 H708 0.950 . S
C731 C730 1.334 . S
C731 C732 1.287 . S
C732 C731 1.287 . S
C732 C733 1.524 . S
C732 H751 0.913 . S
C733 H709 0.950 . S
C733 C732 1.524 . S
C733 C734 1.415 . S
C734 H710 0.950 . S
C734 C729 1.363 . S
C734 C733 1.415 . S
C735 H711 0.951 . S
C735 C736 1.366 . S
C735 C737 1.388 . S
C736 C735 1.366 . S
C736 C740 1.385 . S
C737 H712 0.951 . S
C737 C735 1.388 . S
C737 C738 1.366 . S
C738 C737 1.366 . S
C738 C739 1.414 . S
C738 C741 1.499 . S
C739 H713 0.950 . S
C739 C738 1.414 . S
C739 C740 1.374 . S
C740 H714 0.950 . S
C740 C736 1.385 . S
C740 C739 1.374 . S
C741 C738 1.499 . S
C741 C742 1.373 . S
C741 C743 1.389 . S
C742 H715 0.950 . S
C742 C728 1.377 . S
C742 C741 1.373 . S
C743 C727 1.377 . S
C743 C741 1.389 . S
C743 C744 1.524 . S
C744 C743 1.524 . S
C744 C745 1.397 . S
C744 C749 1.363 . S
C745 H716 0.950 . S
C745 C744 1.397 . S
C745 C746 1.334 . S
C746 H717 0.950 . S
C746 C745 1.334 . S
C746 C747 1.287 . S
C747 C746 1.287 . S
C747 C748 1.524 . S
C747 H750 0.999 . S
C748 H718 0.950 . S
C748 C747 1.524 . S
C748 C749 1.415 . S
C749 H719 0.950 . S
C749 C744 1.363 . S
C749 C748 1.415 . S
H750 C747 0.999 . S
H751 C732 0.913 . S
H752 C770 0.951 . S
H753 C772 0.951 . S
H754 C774 0.950 . S
H755 C775 0.950 . S
H756 C777 0.950 . S
H757 C780 0.950 . S
H758 C781 0.950 . S
H759 C783 0.950 . S
H760 C784 0.950 . S
H761 C785 0.951 . S
H762 C787 0.951 . S
H763 C789 0.950 . S
H764 C790 0.950 . S
H765 C792 0.950 . S
H766 C795 0.950 . S
H767 C796 0.950 . S
H768 C798 0.950 . S
H769 C799 0.950 . S
C770 H752 0.951 . S
C770 C771 1.366 . S
C770 C772 1.388 . S
C771 C770 1.366 . S
C771 C775 1.385 . S
C772 H753 0.951 . S
C772 C770 1.388 . S
C772 C773 1.366 . S
C773 C772 1.366 . S
C773 C774 1.414 . S
C773 C776 1.499 . S
C774 H754 0.950 . S
C774 C773 1.414 . S
C774 C775 1.374 . S
C775 H755 0.950 . S
C775 C771 1.385 . S
C775 C774 1.374 . S
C776 C773 1.499 . S
C776 C777 1.373 . S
C776 C778 1.389 . S
C777 H756 0.950 . S
C777 C776 1.373 . S
C777 C793 1.377 . S
C778 C776 1.389 . S
C778 C779 1.524 . S
C778 C792 1.377 . S
C779 C778 1.524 . S
C779 C780 1.397 . S
C779 C784 1.363 . S
C780 H757 0.950 . S
C780 C779 1.397 . S
C780 C781 1.334 . S
C781 H758 0.950 . S
C781 C780 1.334 . S
C781 C782 1.287 . S
C782 C781 1.287 . S
C782 C783 1.524 . S
C782 H801 0.913 . S
C783 H759 0.950 . S
C783 C782 1.524 . S
C783 C784 1.415 . S
C784 H760 0.950 . S
C784 C779 1.363 . S
C784 C783 1.415 . S
C785 H761 0.951 . S
C785 C786 1.366 . S
C785 C787 1.388 . S
C786 C785 1.366 . S
C786 C790 1.385 . S
C787 H762 0.951 . S
C787 C785 1.388 . S
C787 C788 1.366 . S
C788 C787 1.366 . S
C788 C789 1.414 . S
C788 C791 1.499 . S
C789 H763 0.950 . S
C789 C788 1.414 . S
C789 C790 1.374 . S
C790 H764 0.950 . S
C790 C786 1.385 . S
C790 C789 1.374 . S
C791 C788 1.499 . S
C791 C792 1.373 . S
C791 C793 1.389 . S
C792 H765 0.950 . S
C792 C778 1.377 . S
C792 C791 1.373 . S
C793 C777 1.377 . S
C793 C791 1.389 . S
C793 C794 1.524 . S
C794 C793 1.524 . S
C794 C795 1.397 . S
C794 C799 1.363 . S
C795 H766 0.950 . S
C795 C794 1.397 . S
C795 C796 1.334 . S
C796 H767 0.950 . S
C796 C795 1.334 . S
C796 C797 1.287 . S
C797 C796 1.287 . S
C797 C798 1.524 . S
C797 H800 0.999 . S
C798 H768 0.950 . S
C798 C797 1.524 . S
C798 C799 1.415 . S
C799 H769 0.950 . S
C799 C794 1.363 . S
C799 C798 1.415 . S
H800 C797 0.999 . S
H801 C782 0.913 . S
H802 C820 0.951 . S
H803 C822 0.951 . S
H804 C824 0.950 . S
H805 C825 0.950 . S
H806 C827 0.950 . S
H807 C830 0.950 . S
H808 C831 0.950 . S
H809 C833 0.950 . S
H810 C834 0.950 . S
H811 C835 0.951 . S
H812 C837 0.951 . S
H813 C839 0.950 . S
H814 C840 0.950 . S
H815 C842 0.950 . S
H816 C845 0.950 . S
H817 C846 0.950 . S
H818 C848 0.950 . S
H819 C849 0.950 . S
C820 H802 0.951 . S
C820 C821 1.366 . S
C820 C822 1.388 . S
C821 C820 1.366 . S
C821 C825 1.385 . S
C822 H803 0.951 . S
C822 C820 1.388 . S
C822 C823 1.366 . S
C823 C822 1.366 . S
C823 C824 1.414 . S
C823 C826 1.499 . S
C824 H804 0.950 . S
C824 C823 1.414 . S
C824 C825 1.374 . S
C825 H805 0.950 . S
C825 C821 1.385 . S
C825 C824 1.374 . S
C826 C823 1.499 . S
C826 C827 1.373 . S
C826 C828 1.389 . S
C827 H806 0.950 . S
C827 C826 1.373 . S
C827 C843 1.377 . S
C828 C826 1.389 . S
C828 C829 1.524 . S
C828 C842 1.377 . S
C829 C828 1.524 . S
C829 C830 1.397 . S
C829 C834 1.363 . S
C830 H807 0.950 . S
C830 C829 1.397 . S
C830 C831 1.334 . S
C831 H808 0.950 . S
C831 C830 1.334 . S
C831 C832 1.287 . S
C832 C831 1.287 . S
C832 C833 1.524 . S
C832 H851 0.913 . S
C833 H809 0.950 . S
C833 C832 1.524 . S
C833 C834 1.415 . S
C834 H810 0.950 . S
C834 C829 1.363 . S
C834 C833 1.415 . S
C835 H811 0.951 . S
C835 C836 1.366 . S
C835 C837 1.388 . S
C836 C835 1.366 . S
C836 C840 1.385 . S
C837 H812 0.951 . S
C837 C835 1.388 . S
C837 C838 1.366 . S
C838 C837 1.366 . S
C838 C839 1.414 . S
C838 C841 1.499 . S
C839 H813 0.950 . S
C839 C838 1.414 . S
C839 C840 1.374 . S
C840 H814 0.950 . S
C840 C836 1.385 . S
C840 C839 1.374 . S
C841 C838 1.499 . S
C841 C842 1.373 . S
C841 C843 1.389 . S
C842 H815 0.950 . S
C842 C828 1.377 . S
C842 C841 1.373 . S
C843 C827 1.377 . S
C843 C841 1.389 . S
C843 C844 1.524 . S
C844 C843 1.524 . S
C844 C845 1.397 . S
C844 C849 1.363 . S
C845 H816 0.950 . S
C845 C844 1.397 . S
C845 C846 1.334 . S
C846 H817 0.950 . S
C846 C845 1.334 . S
C846 C847 1.287 . S
C847 C846 1.287 . S
C847 C848 1.524 . S
C847 H850 0.999 . S
C848 H818 0.950 . S
C848 C847 1.524 . S
C848 C849 1.415 . S
C849 H819 0.950 . S
C849 C844 1.363 . S
C849 C848 1.415 . S
H850 C847 0.999 . S
H851 C832 0.913 . S
H852 C870 0.951 . S
H853 C872 0.951 . S
H854 C874 0.950 . S
H855 C875 0.950 . S
H856 C877 0.950 . S
H857 C880 0.950 . S
H858 C881 0.950 . S
H859 C883 0.950 . S
H860 C884 0.950 . S
H861 C885 0.951 . S
H862 C887 0.951 . S
H863 C889 0.950 . S
H864 C890 0.950 . S
H865 C892 0.950 . S
H866 C895 0.950 . S
H867 C896 0.950 . S
H868 C898 0.950 . S
H869 C899 0.950 . S
C870 H852 0.951 . S
C870 C871 1.366 . S
C870 C872 1.388 . S
C871 C870 1.366 . S
C871 C875 1.385 . S
C872 H853 0.951 . S
C872 C870 1.388 . S
C872 C873 1.366 . S
C873 C872 1.366 . S
C873 C874 1.414 . S
C873 C876 1.499 . S
C874 H854 0.950 . S
C874 C873 1.414 . S
C874 C875 1.374 . S
C875 H855 0.950 . S
C875 C871 1.385 . S
C875 C874 1.374 . S
C876 C873 1.499 . S
C876 C877 1.373 . S
C876 C878 1.389 . S
C877 H856 0.950 . S
C877 C876 1.373 . S
C877 C893 1.377 . S
C878 C876 1.389 . S
C878 C879 1.524 . S
C878 C892 1.377 . S
C879 C878 1.524 . S
C879 C880 1.397 . S
C879 C884 1.363 . S
C880 H857 0.950 . S
C880 C879 1.397 . S
C880 C881 1.334 . S
C881 H858 0.950 . S
C881 C880 1.334 . S
C881 C882 1.287 . S
C882 C881 1.287 . S
C882 C883 1.524 . S
C882 H901 0.913 . S
C883 H859 0.950 . S
C883 C882 1.524 . S
C883 C884 1.415 . S
C884 H860 0.950 . S
C884 C879 1.363 . S
C884 C883 1.415 . S
C885 H861 0.951 . S
C885 C886 1.366 . S
C885 C887 1.388 . S
C886 C885 1.366 . S
C886 C890 1.385 . S
C887 H862 0.951 . S
C887 C885 1.388 . S
C887 C888 1.366 . S
C888 C887 1.366 . S
C888 C889 1.414 . S
C888 C891 1.499 . S
C889 H863 0.950 . S
C889 C888 1.414 . S
C889 C890 1.374 . S
C890 H864 0.950 . S
C890 C886 1.385 . S
C890 C889 1.374 . S
C891 C888 1.499 . S
C891 C892 1.373 . S
C891 C893 1.389 . S
C892 H865 0.950 . S
C892 C878 1.377 . S
C892 C891 1.373 . S
C893 C877 1.377 . S
C893 C891 1.389 . S
C893 C894 1.524 . S
C894 C893 1.524 . S
C894 C895 1.397 . S
C894 C899 1.363 . S
C895 H866 0.950 . S
C895 C894 1.397 . S
C895 C896 1.334 . S
C896 H867 0.950 . S
C896 C895 1.334 . S
C896 C897 1.287 . S
C897 C896 1.287 . S
C897 C898 1.524 . S
C897 H900 0.999 . S
C898 H868 0.950 . S
C898 C897 1.524 . S
C898 C899 1.415 . S
C899 H869 0.950 . S
C899 C894 1.363 . S
C899 C898 1.415 . S
H900 C897 0.999 . S
H901 C882 0.913 . S
H902 C920 0.951 . S
H903 C922 0.951 . S
H904 C924 0.950 . S
H905 C925 0.950 . S
H906 C927 0.950 . S
H907 C930 0.950 . S
H908 C931 0.950 . S
H909 C933 0.950 . S
H910 C934 0.950 . S
H911 C935 0.951 . S
H912 C937 0.951 . S
H913 C939 0.950 . S
H914 C940 0.950 . S
H915 C942 0.950 . S
H916 C945 0.950 . S
H917 C946 0.950 . S
H918 C948 0.950 . S
H919 C949 0.950 . S
C920 H902 0.951 . S
C920 C921 1.366 . S
C920 C922 1.388 . S
C921 C920 1.366 . S
C921 C925 1.385 . S
C922 H903 0.951 . S
C922 C920 1.388 . S
C922 C923 1.366 . S
C923 C922 1.366 . S
C923 C924 1.414 . S
C923 C926 1.499 . S
C924 H904 0.950 . S
C924 C923 1.414 . S
C924 C925 1.374 . S
C925 H905 0.950 . S
C925 C921 1.385 . S
C925 C924 1.374 . S
C926 C923 1.499 . S
C926 C927 1.373 . S
C926 C928 1.389 . S
C927 H906 0.950 . S
C927 C926 1.373 . S
C927 C943 1.377 . S
C928 C926 1.389 . S
C928 C929 1.524 . S
C928 C942 1.377 . S
C929 C928 1.524 . S
C929 C930 1.397 . S
C929 C934 1.363 . S
C930 H907 0.950 . S
C930 C929 1.397 . S
C930 C931 1.334 . S
C931 H908 0.950 . S
C931 C930 1.334 . S
C931 C932 1.287 . S
C932 C931 1.287 . S
C932 C933 1.524 . S
C932 H951 0.913 . S
C933 H909 0.950 . S
C933 C932 1.524 . S
C933 C934 1.415 . S
C934 H910 0.950 . S
C934 C929 1.363 . S
C934 C933 1.415 . S
C935 H911 0.951 . S
C935 C936 1.366 . S
C935 C937 1.388 . S
C936 C935 1.366 . S
C936 C940 1.385 . S
C937 H912 0.951 . S
C937 C935 1.388 . S
C937 C938 1.366 . S
C938 C937 1.366 . S
C938 C939 1.414 . S
C938 C941 1.499 . S
C939 H913 0.950 . S
C939 C938 1.414 . S
C939 C940 1.374 . S
C940 H914 0.950 . S
C940 C936 1.385 . S
C940 C939 1.374 . S
C941 C938 1.499 . S
C941 C942 1.373 . S
C941 C943 1.389 . S
C942 H915 0.950 . S
C942 C928 1.377 . S
C942 C941 1.373 . S
C943 C927 1.377 . S
C943 C941 1.389 . S
C943 C944 1.524 . S
C944 C943 1.524 . S
C944 C945 1.397 . S
C944 C949 1.363 . S
C945 H916 0.950 . S
C945 C944 1.397 . S
C945 C946 1.334 . S
C946 H917 0.950 . S
C946 C945 1.334 . S
C946 C947 1.287 . S
C947 C946 1.287 . S
C947 C948 1.524 . S
C947 H950 0.999 . S
C948 H918 0.950 . S
C948 C947 1.524 . S
C948 C949 1.415 . S
C949 H919 0.950 . S
C949 C944 1.363 . S
C949 C948 1.415 . S
H950 C947 0.999 . S
H951 C932 0.913 . S
H952 C970 0.951 . S
H953 C972 0.951 . S
H954 C974 0.950 . S
H955 C975 0.950 . S
H956 C977 0.950 . S
H957 C980 0.950 . S
H958 C981 0.950 . S
H959 C983 0.950 . S
H960 C984 0.950 . S
H961 C985 0.951 . S
H962 C987 0.951 . S
H963 C989 0.950 . S
H964 C990 0.950 . S
H965 C992 0.950 . S
H966 C995 0.950 . S
H967 C996 0.950 . S
H968 C998 0.950 . S
H969 C999 0.950 . S
C970 H952 0.951 . S
C970 C971 1.366 . S
C970 C972 1.388 . S
C971 C970 1.366 . S
C971 C975 1.385 . S
C972 H953 0.951 . S
C972 C970 1.388 . S
C972 C973 1.366 . S
C973 C972 1.366 . S
C973 C974 1.414 . S
C973 C976 1.499 . S
C974 H954 0.950 . S
C974 C973 1.414 . S
C974 C975 1.374 . S
C975 H955 0.950 . S
C975 C971 1.385 . S
C975 C974 1.374 . S
C976 C973 1.499 . S
C976 C977 1.373 . S
C976 C978 1.389 . S
C977 H956 0.950 . S
C977 C976 1.373 . S
C977 C993 1.377 . S
C978 C976 1.389 . S
C978 C979 1.524 . S
C978 C992 1.377 . S
C979 C978 1.524 . S
C979 C980 1.397 . S
C979 C984 1.363 . S
C980 H957 0.950 . S
C980 C979 1.397 . S
C980 C981 1.334 . S
C981 H958 0.950 . S
C981 C980 1.334 . S
C981 C982 1.287 . S
C982 C981 1.287 . S
C982 C983 1.524 . S
C982 H1001 0.913 . S
C983 H959 0.950 . S
C983 C982 1.524 . S
C983 C984 1.415 . S
C984 H960 0.950 . S
C984 C979 1.363 . S
C984 C983 1.415 . S
C985 H961 0.951 . S
C985 C986 1.366 . S
C985 C987 1.388 . S
C986 C985 1.366 . S
C986 C990 1.385 . S
C987 H962 0.951 . S
C987 C985 1.388 . S
C987 C988 1.366 . S
C988 C987 1.366 . S
C988 C989 1.414 . S
C988 C991 1.499 . S
C989 H963 0.950 . S
C989 C988 1.414 . S
C989 C990 1.374 . S
C990 H964 0.950 . S
C990 C986 1.385 . S
C990 C989 1.374 . S
C991 C988 1.499 . S
C991 C992 1.373 . S
C991 C993 1.389 . S
C992 H965 0.950 . S
C992 C978 1.377 . S
C992 C991 1.373 . S
C993 C977 1.377 . S
C993 C991 1.389 . S
C993 C994 1.524 . S
C994 C993 1.524 . S
C994 C995 1.397 . S
C994 C999 1.363 . S
C995 H966 0.950 . S
C995 C994 1.397 . S
C995 C996 1.334 . S
C996 H967 0.950 . S
C996 C995 1.334 . S
C996 C997 1.287 . S
C997 C996 1.287 . S
C997 C998 1.524 . S
C997 H1000 0.999 . S
C998 H968 0.950 . S
C998 C997 1.524 . S
C998 C999 1.415 . S
C999 H969 0.950 . S
C999 C994 1.363 . S
C999 C998 1.415 . S
H1000 C997 0.999 . S
H1001 C982 0.913 . S
H1002 C1020 0.951 . S
H1003 C1022 0.951 1_455 S
H1004 C1024 0.950 . S
H1005 C1025 0.950 . S
H1006 C1027 0.950 . S
H1007 C1030 0.950 . S
H1008 C1031 0.950 . S
H1009 C1033 0.950 . S
H1010 C1034 0.950 . S
H1011 C1035 0.951 . S
H1012 C1037 0.951 1_655 S
H1013 C1039 0.950 . S
H1014 C1040 0.950 . S
H1015 C1042 0.950 . S
H1016 C1045 0.950 . S
H1017 C1046 0.950 . S
H1018 C1048 0.950 . S
H1019 C1049 0.950 . S
C1020 H1002 0.951 . S
C1020 C1021 1.366 . S
C1020 C1022 1.388 . S
C1021 C1020 1.366 . S
C1021 C1025 1.385 . S
C1022 H1003 0.951 1_655 S
C1022 C1020 1.388 . S
C1022 C1023 1.366 . S
C1023 C1022 1.366 . S
C1023 C1024 1.414 . S
C1023 C1026 1.499 . S
C1024 H1004 0.950 . S
C1024 C1023 1.414 . S
C1024 C1025 1.374 . S
C1025 H1005 0.950 . S
C1025 C1021 1.385 . S
C1025 C1024 1.374 . S
C1026 C1023 1.499 . S
C1026 C1027 1.373 . S
C1026 C1028 1.389 1_655 S
C1027 H1006 0.950 . S
C1027 C1026 1.373 . S
C1027 C1043 1.377 . S
C1028 C1026 1.389 1_455 S
C1028 C1029 1.524 . S
C1028 C1042 1.377 . S
C1029 C1028 1.524 . S
C1029 C1030 1.397 . S
C1029 C1034 1.363 . S
C1030 H1007 0.950 . S
C1030 C1029 1.397 . S
C1030 C1031 1.334 . S
C1031 H1008 0.950 . S
C1031 C1030 1.334 . S
C1031 C1032 1.287 . S
C1032 C1031 1.287 . S
C1032 C1033 1.524 . S
C1032 H1051 0.913 . S
C1033 H1009 0.950 . S
C1033 C1032 1.524 . S
C1033 C1034 1.415 . S
C1034 H1010 0.950 . S
C1034 C1029 1.363 . S
C1034 C1033 1.415 . S
C1035 H1011 0.951 . S
C1035 C1036 1.366 . S
C1035 C1037 1.388 . S
C1036 C1035 1.366 . S
C1036 C1040 1.385 . S
C1037 H1012 0.951 1_455 S
C1037 C1035 1.388 . S
C1037 C1038 1.366 . S
C1038 C1037 1.366 . S
C1038 C1039 1.414 . S
C1038 C1041 1.499 . S
C1039 H1013 0.950 . S
C1039 C1038 1.414 . S
C1039 C1040 1.374 . S
C1040 H1014 0.950 . S
C1040 C1036 1.385 . S
C1040 C1039 1.374 . S
C1041 C1038 1.499 . S
C1041 C1042 1.373 . S
C1041 C1043 1.389 1_455 S
C1042 H1015 0.950 . S
C1042 C1028 1.377 . S
C1042 C1041 1.373 . S
C1043 C1027 1.377 . S
C1043 C1041 1.389 1_655 S
C1043 C1044 1.524 . S
C1044 C1043 1.524 . S
C1044 C1045 1.397 . S
C1044 C1049 1.363 . S
C1045 H1016 0.950 . S
C1045 C1044 1.397 . S
C1045 C1046 1.334 . S
C1046 H1017 0.950 . S
C1046 C1045 1.334 . S
C1046 C1047 1.287 . S
C1047 C1046 1.287 . S
C1047 C1048 1.524 . S
C1047 H1050 0.999 . S
C1048 H1018 0.950 . S
C1048 C1047 1.524 . S
C1048 C1049 1.415 . S
C1049 H1019 0.950 . S
C1049 C1044 1.363 . S
C1049 C1048 1.415 . S
H1050 C1047 0.999 . S
H1051 C1032 0.913 . S
H1052 C1070 0.951 . S
H1053 C1072 0.951 . S
H1054 C1074 0.950 . S
H1055 C1075 0.950 . S
H1056 C1077 0.950 . S
H1057 C1080 0.950 . S
H1058 C1081 0.950 . S
H1059 C1083 0.950 . S
H1060 C1084 0.950 . S
H1061 C1085 0.951 . S
H1062 C1087 0.951 . S
H1063 C1089 0.950 . S
H1064 C1090 0.950 . S
H1065 C1092 0.950 . S
H1066 C1095 0.950 . S
H1067 C1096 0.950 . S
H1068 C1098 0.950 . S
H1069 C1099 0.950 . S
C1070 H1052 0.951 . S
C1070 C1071 1.366 . S
C1070 C1072 1.388 . S
C1071 C1070 1.366 . S
C1071 C1075 1.385 . S
C1072 H1053 0.951 . S
C1072 C1070 1.388 . S
C1072 C1073 1.366 . S
C1073 C1072 1.366 . S
C1073 C1074 1.414 . S
C1073 C1076 1.499 . S
C1074 H1054 0.950 . S
C1074 C1073 1.414 . S
C1074 C1075 1.374 . S
C1075 H1055 0.950 . S
C1075 C1071 1.385 . S
C1075 C1074 1.374 . S
C1076 C1073 1.499 . S
C1076 C1077 1.373 . S
C1076 C1078 1.389 . S
C1077 H1056 0.950 . S
C1077 C1076 1.373 . S
C1077 C1093 1.377 . S
C1078 C1076 1.389 . S
C1078 C1079 1.524 . S
C1078 C1092 1.377 . S
C1079 C1078 1.524 . S
C1079 C1080 1.397 . S
C1079 C1084 1.363 . S
C1080 H1057 0.950 . S
C1080 C1079 1.397 . S
C1080 C1081 1.334 . S
C1081 H1058 0.950 . S
C1081 C1080 1.334 . S
C1081 C1082 1.287 . S
C1082 C1081 1.287 . S
C1082 C1083 1.524 . S
C1082 H1101 0.913 . S
C1083 H1059 0.950 . S
C1083 C1082 1.524 . S
C1083 C1084 1.415 . S
C1084 H1060 0.950 . S
C1084 C1079 1.363 . S
C1084 C1083 1.415 . S
C1085 H1061 0.951 . S
C1085 C1086 1.366 . S
C1085 C1087 1.388 . S
C1086 C1085 1.366 . S
C1086 C1090 1.385 . S
C1087 H1062 0.951 . S
C1087 C1085 1.388 . S
C1087 C1088 1.366 . S
C1088 C1087 1.366 . S
C1088 C1089 1.414 . S
C1088 C1091 1.499 . S
C1089 H1063 0.950 . S
C1089 C1088 1.414 . S
C1089 C1090 1.374 . S
C1090 H1064 0.950 . S
C1090 C1086 1.385 . S
C1090 C1089 1.374 . S
C1091 C1088 1.499 . S
C1091 C1092 1.373 . S
C1091 C1093 1.389 . S
C1092 H1065 0.950 . S
C1092 C1078 1.377 . S
C1092 C1091 1.373 . S
C1093 C1077 1.377 . S
C1093 C1091 1.389 . S
C1093 C1094 1.524 . S
C1094 C1093 1.524 . S
C1094 C1095 1.397 . S
C1094 C1099 1.363 . S
C1095 H1066 0.950 . S
C1095 C1094 1.397 . S
C1095 C1096 1.334 . S
C1096 H1067 0.950 . S
C1096 C1095 1.334 . S
C1096 C1097 1.287 . S
C1097 C1096 1.287 . S
C1097 C1098 1.524 . S
C1097 H1100 0.999 . S
C1098 H1068 0.950 . S
C1098 C1097 1.524 . S
C1098 C1099 1.415 . S
C1099 H1069 0.950 . S
C1099 C1094 1.363 . S
C1099 C1098 1.415 . S
H1100 C1097 0.999 . S
H1101 C1082 0.913 . S
H1102 C1120 0.951 . S
H1103 C1122 0.951 1_545 S
H1104 C1124 0.950 . S
H1105 C1125 0.950 . S
H1106 C1127 0.950 . S
H1107 C1130 0.950 . S
H1108 C1131 0.950 . S
H1109 C1133 0.950 1_545 S
H1110 C1134 1.002 . S
H1111 C1135 0.951 . S
H1112 C1137 0.951 1_565 S
H1113 C1139 0.950 . S
H1114 C1140 0.950 . S
H1115 C1142 0.950 . S
H1116 C1145 0.950 . S
H1117 C1146 0.950 . S
H1118 C1148 0.950 1_565 S
H1119 C1149 0.956 . S
C1120 H1102 0.951 . S
C1120 C1121 1.366 . S
C1120 C1122 1.388 . S
C1121 C1120 1.366 . S
C1121 C1125 1.385 . S
C1122 H1103 0.951 1_565 S
C1122 C1120 1.388 . S
C1122 C1123 1.366 . S
C1123 C1122 1.366 . S
C1123 C1124 1.414 . S
C1123 C1126 1.499 . S
C1124 H1104 0.950 . S
C1124 C1123 1.414 . S
C1124 C1125 1.374 . S
C1125 H1105 0.950 . S
C1125 C1121 1.385 . S
C1125 C1124 1.374 . S
C1126 C1123 1.499 . S
C1126 C1127 1.373 . S
C1126 C1128 1.389 . S
C1127 H1106 0.950 . S
C1127 C1126 1.373 . S
C1127 C1143 1.377 1_565 S
C1128 C1126 1.389 . S
C1128 C1129 1.524 . S
C1128 C1142 1.377 1_565 S
C1129 C1128 1.524 . S
C1129 C1130 1.397 . S
C1129 C1134 1.300 1_565 S
C1130 H1107 0.950 . S
C1130 C1129 1.397 . S
C1130 C1131 1.334 . S
C1131 H1108 0.950 . S
C1131 C1130 1.334 . S
C1131 C1132 1.287 . S
C1132 C1131 1.287 . S
C1132 C1133 1.524 . S
C1132 H1151 0.913 . S
C1133 H1109 0.950 1_565 S
C1133 C1132 1.524 . S
C1133 C1134 1.429 1_565 S
C1134 H1110 1.002 . S
C1134 C1129 1.300 1_545 S
C1134 C1133 1.429 1_545 S
C1135 H1111 0.951 . S
C1135 C1136 1.366 . S
C1135 C1137 1.388 . S
C1136 C1135 1.366 . S
C1136 C1140 1.385 . S
C1137 H1112 0.951 1_545 S
C1137 C1135 1.388 . S
C1137 C1138 1.366 . S
C1138 C1137 1.366 . S
C1138 C1139 1.414 . S
C1138 C1141 1.499 . S
C1139 H1113 0.950 . S
C1139 C1138 1.414 . S
C1139 C1140 1.374 . S
C1140 H1114 0.950 . S
C1140 C1136 1.385 . S
C1140 C1139 1.374 . S
C1141 C1138 1.499 . S
C1141 C1142 1.373 . S
C1141 C1143 1.389 . S
C1142 H1115 0.950 . S
C1142 C1128 1.377 1_545 S
C1142 C1141 1.373 . S
C1143 C1127 1.377 1_545 S
C1143 C1141 1.389 . S
C1143 C1144 1.524 . S
C1144 C1143 1.524 . S
C1144 C1145 1.397 . S
C1144 C1149 1.355 1_545 S
C1145 H1116 0.950 . S
C1145 C1144 1.397 . S
C1145 C1146 1.334 . S
C1146 H1117 0.950 . S
C1146 C1145 1.334 . S
C1146 C1147 1.287 . S
C1147 C1146 1.287 . S
C1147 C1148 1.524 . S
C1147 H1150 0.999 . S
C1148 H1118 0.950 1_545 S
C1148 C1147 1.524 . S
C1148 C1149 1.416 1_545 S
C1149 H1119 0.956 . S
C1149 C1144 1.355 1_565 S
C1149 C1148 1.416 1_565 S
H1150 C1147 0.999 . S
H1151 C1132 0.913 . S
H1152 C1170 0.951 . S
H1153 C1172 0.951 . S
H1154 C1174 0.950 . S
H1155 C1175 0.950 . S
H1156 C1177 0.950 . S
H1157 C1180 0.950 . S
H1158 C1181 0.950 . S
H1159 C1183 0.950 . S
H1160 C1184 0.950 . S
H1161 C1185 0.951 . S
H1162 C1187 0.951 . S
H1163 C1189 0.950 . S
H1164 C1190 0.950 . S
H1165 C1192 0.950 . S
H1166 C1195 0.950 . S
H1167 C1196 0.950 . S
H1168 C1198 0.950 . S
H1169 C1199 0.950 . S
C1170 H1152 0.951 . S
C1170 C1171 1.366 . S
C1170 C1172 1.388 . S
C1171 C1170 1.366 . S
C1171 C1175 1.385 . S
C1172 H1153 0.951 . S
C1172 C1170 1.388 . S
C1172 C1173 1.366 . S
C1173 C1172 1.366 . S
C1173 C1174 1.414 . S
C1173 C1176 1.499 . S
C1174 H1154 0.950 . S
C1174 C1173 1.414 . S
C1174 C1175 1.374 . S
C1175 H1155 0.950 . S
C1175 C1171 1.385 . S
C1175 C1174 1.374 . S
C1176 C1173 1.499 . S
C1176 C1177 1.373 . S
C1176 C1178 1.389 1_554 S
C1177 H1156 0.950 . S
C1177 C1176 1.373 . S
C1177 C1193 1.377 . S
C1178 C1176 1.389 1_556 S
C1178 C1179 1.524 . S
C1178 C1192 1.377 . S
C1179 C1178 1.524 . S
C1179 C1180 1.397 . S
C1179 C1184 1.363 . S
C1180 H1157 0.950 . S
C1180 C1179 1.397 . S
C1180 C1181 1.334 . S
C1181 H1158 0.950 . S
C1181 C1180 1.334 . S
C1181 C1182 1.287 . S
C1182 C1181 1.287 . S
C1182 C1183 1.524 . S
C1182 H1201 0.913 . S
C1183 H1159 0.950 . S
C1183 C1182 1.524 . S
C1183 C1184 1.415 . S
C1184 H1160 0.950 . S
C1184 C1179 1.363 . S
C1184 C1183 1.415 . S
C1185 H1161 0.951 . S
C1185 C1186 1.366 . S
C1185 C1187 1.388 . S
C1186 C1185 1.366 . S
C1186 C1190 1.385 . S
C1187 H1162 0.951 . S
C1187 C1185 1.388 . S
C1187 C1188 1.366 . S
C1188 C1187 1.366 . S
C1188 C1189 1.414 . S
C1188 C1191 1.499 . S
C1189 H1163 0.950 . S
C1189 C1188 1.414 . S
C1189 C1190 1.374 . S
C1190 H1164 0.950 . S
C1190 C1186 1.385 . S
C1190 C1189 1.374 . S
C1191 C1188 1.499 . S
C1191 C1192 1.373 . S
C1191 C1193 1.389 1_556 S
C1192 H1165 0.950 . S
C1192 C1178 1.377 . S
C1192 C1191 1.373 . S
C1193 C1177 1.377 . S
C1193 C1191 1.389 1_554 S
C1193 C1194 1.524 . S
C1194 C1193 1.524 . S
C1194 C1195 1.397 . S
C1194 C1199 1.363 . S
C1195 H1166 0.950 . S
C1195 C1194 1.397 . S
C1195 C1196 1.334 . S
C1196 H1167 0.950 . S
C1196 C1195 1.334 . S
C1196 C1197 1.287 . S
C1197 C1196 1.287 . S
C1197 C1198 1.524 . S
C1197 H1200 0.999 . S
C1198 H1168 0.950 . S
C1198 C1197 1.524 . S
C1198 C1199 1.415 . S
C1199 H1169 0.950 . S
C1199 C1194 1.363 . S
C1199 C1198 1.415 . S
H1200 C1197 0.999 . S
H1201 C1182 0.913 . S
H1202 C1220 0.951 1_554 S
H1203 C1222 0.951 . S
H1204 C1224 0.950 . S
H1205 C1225 0.950 . S
H1206 C1227 0.950 . S
H1207 C1230 0.950 1_556 S
H1208 C1231 0.950 1_556 S
H1209 C1233 0.950 . S
H1210 C1234 0.950 . S
H1211 C1235 0.951 1_556 S
H1212 C1237 0.951 . S
H1213 C1239 0.950 . S
H1214 C1240 0.950 . S
H1215 C1242 0.950 . S
H1216 C1245 0.950 1_554 S
H1217 C1246 0.950 1_554 S
H1218 C1248 0.950 . S
H1219 C1249 0.950 . S
C1220 H1202 0.951 1_556 S
C1220 C1221 1.366 . S
C1220 C1222 1.388 1_556 S
C1221 C1220 1.366 . S
C1221 C1225 1.385 . S
C1222 H1203 0.951 . S
C1222 C1220 1.388 1_554 S
C1222 C1223 1.366 1_554 S
C1223 C1222 1.366 1_556 S
C1223 C1224 1.414 . S
C1223 C1226 1.499 . S
C1224 H1204 0.950 . S
C1224 C1223 1.414 . S
C1224 C1225 1.374 . S
C1225 H1205 0.950 . S
C1225 C1221 1.385 . S
C1225 C1224 1.374 . S
C1226 C1223 1.499 . S
C1226 C1227 1.373 . S
C1226 C1228 1.389 1_556 S
C1227 H1206 0.950 . S
C1227 C1226 1.373 . S
C1227 C1243 1.377 1_545 S
C1228 C1226 1.389 1_554 S
C1228 C1229 1.524 . S
C1228 C1242 1.377 1_545 S
C1229 C1228 1.524 . S
C1229 C1230 1.397 . S
C1229 C1234 1.363 . S
C1230 H1207 0.950 1_554 S
C1230 C1229 1.397 . S
C1230 C1231 1.334 . S
C1231 H1208 0.950 1_554 S
C1231 C1230 1.334 . S
C1231 C1232 1.287 . S
C1232 C1231 1.287 . S
C1232 C1233 1.524 . S
C1232 H1251 0.913 . S
C1233 H1209 0.950 . S
C1233 C1232 1.524 . S
C1233 C1234 1.415 . S
C1234 H1210 0.950 . S
C1234 C1229 1.363 . S
C1234 C1233 1.415 . S
C1235 H1211 0.951 1_554 S
C1235 C1236 1.366 . S
C1235 C1237 1.388 1_554 S
C1236 C1235 1.366 . S
C1236 C1240 1.385 . S
C1237 H1212 0.951 . S
C1237 C1235 1.388 1_556 S
C1237 C1238 1.366 1_556 S
C1238 C1237 1.366 1_554 S
C1238 C1239 1.414 . S
C1238 C1241 1.499 . S
C1239 H1213 0.950 . S
C1239 C1238 1.414 . S
C1239 C1240 1.374 . S
C1240 H1214 0.950 . S
C1240 C1236 1.385 . S
C1240 C1239 1.374 . S
C1241 C1238 1.499 . S
C1241 C1242 1.373 . S
C1241 C1243 1.389 1_554 S
C1242 H1215 0.950 . S
C1242 C1228 1.377 1_565 S
C1242 C1241 1.373 . S
C1243 C1227 1.377 1_565 S
C1243 C1241 1.389 1_556 S
C1243 C1244 1.524 . S
C1244 C1243 1.524 . S
C1244 C1245 1.397 . S
C1244 C1249 1.363 . S
C1245 H1216 0.950 1_556 S
C1245 C1244 1.397 . S
C1245 C1246 1.334 . S
C1246 H1217 0.950 1_556 S
C1246 C1245 1.334 . S
C1246 C1247 1.287 . S
C1247 C1246 1.287 . S
C1247 C1248 1.524 . S
C1247 H1250 0.999 . S
C1248 H1218 0.950 . S
C1248 C1247 1.524 . S
C1248 C1249 1.415 . S
C1249 H1219 0.950 . S
C1249 C1244 1.363 . S
C1249 C1248 1.415 . S
H1250 C1247 0.999 . S
H1251 C1232 0.913 . S
H1252 C1270 0.951 . S
H1253 C1272 0.951 . S
H1254 C1274 0.950 1_554 S
H1255 C1275 0.950 . S
H1256 C1277 0.950 . S
H1257 C1280 0.950 . S
H1258 C1281 0.950 . S
H1259 C1283 0.954 1_455 S
H1260 C1284 0.947 1_455 S
H1261 C1285 0.951 . S
H1262 C1287 0.951 . S
H1263 C1289 0.950 1_556 S
H1264 C1290 0.950 . S
H1265 C1292 0.950 . S
H1266 C1295 0.950 . S
H1267 C1296 0.950 . S
H1268 C1298 0.950 1_655 S
H1269 C1299 0.950 1_655 S
C1270 H1252 0.951 . S
C1270 C1271 1.366 . S
C1270 C1272 1.388 . S
C1271 C1270 1.366 . S
C1271 C1275 1.385 . S
C1272 H1253 0.951 . S
C1272 C1270 1.388 . S
C1272 C1273 1.366 . S
C1273 C1272 1.366 . S
C1273 C1274 1.414 . S
C1273 C1276 1.499 . S
C1274 H1254 0.950 1_556 S
C1274 C1273 1.414 . S
C1274 C1275 1.374 . S
C1275 H1255 0.950 . S
C1275 C1271 1.385 . S
C1275 C1274 1.374 . S
C1276 C1273 1.499 . S
C1276 C1277 1.373 1_556 S
C1276 C1278 1.389 . S
C1277 H1256 0.950 . S
C1277 C1276 1.373 1_554 S
C1277 C1293 1.377 1_655 S
C1278 C1276 1.389 . S
C1278 C1279 1.524 . S
C1278 C1292 1.377 1_655 S
C1279 C1278 1.524 . S
C1279 C1280 1.397 . S
C1279 C1284 1.365 . S
C1280 H1257 0.950 . S
C1280 C1279 1.397 . S
C1280 C1281 1.334 . S
C1281 H1258 0.950 . S
C1281 C1280 1.334 . S
C1281 C1282 1.287 . S
C1282 C1281 1.287 . S
C1282 C1283 1.524 . S
C1282 H1301 0.913 . S
C1283 H1259 0.954 1_655 S
C1283 C1282 1.524 . S
C1283 C1284 1.419 . S
C1284 H1260 0.947 1_655 S
C1284 C1279 1.365 . S
C1284 C1283 1.419 . S
C1285 H1261 0.951 . S
C1285 C1286 1.366 . S
C1285 C1287 1.388 . S
C1286 C1285 1.366 . S
C1286 C1290 1.385 . S
C1287 H1262 0.951 . S
C1287 C1285 1.388 . S
C1287 C1288 1.366 . S
C1288 C1287 1.366 . S
C1288 C1289 1.414 . S
C1288 C1291 1.499 . S
C1289 H1263 0.950 1_554 S
C1289 C1288 1.414 . S
C1289 C1290 1.374 . S
C1290 H1264 0.950 . S
C1290 C1286 1.385 . S
C1290 C1289 1.374 . S
C1291 C1288 1.499 . S
C1291 C1292 1.373 1_554 S
C1291 C1293 1.389 . S
C1292 H1265 0.950 . S
C1292 C1278 1.377 1_455 S
C1292 C1291 1.373 1_556 S
C1293 C1277 1.377 1_455 S
C1293 C1291 1.389 . S
C1293 C1294 1.524 . S
C1294 C1293 1.524 . S
C1294 C1295 1.397 . S
C1294 C1299 1.363 . S
C1295 H1266 0.950 . S
C1295 C1294 1.397 . S
C1295 C1296 1.334 . S
C1296 H1267 0.950 . S
C1296 C1295 1.334 . S
C1296 C1297 1.287 . S
C1297 C1296 1.287 . S
C1297 C1298 1.524 . S
C1297 H1300 0.999 . S
C1298 H1268 0.950 1_455 S
C1298 C1297 1.524 . S
C1298 C1299 1.415 . S
C1299 H1269 0.950 1_455 S
C1299 C1294 1.363 . S
C1299 C1298 1.415 . S
H1300 C1297 0.999 . S
H1301 C1282 0.913 . S
H1302 C1320 0.951 . S
H1303 C1322 0.951 . S
H1304 C1324 0.950 . S
H1305 C1325 0.959 . S
H1306 C1327 0.950 . S
H1307 C1330 0.950 . S
H1308 C1331 0.950 . S
H1309 C1333 0.950 . S
H1310 C1334 0.950 . S
H1311 C1335 0.951 . S
H1312 C1337 0.951 . S
H1313 C1339 0.950 . S
H1314 C1340 0.959 . S
H1315 C1342 0.950 . S
H1316 C1345 0.950 . S
H1317 C1346 0.950 . S
H1318 C1348 0.950 . S
H1319 C1349 0.950 . S
C1320 H1302 0.951 . S
C1320 C1321 1.366 . S
C1320 C1322 1.388 . S
C1321 C1320 1.366 . S
C1321 C1325 1.372 1_556 S
C1322 H1303 0.951 . S
C1322 C1320 1.388 . S
C1322 C1323 1.366 . S
C1323 C1322 1.366 . S
C1323 C1324 1.414 1_556 S
C1323 C1326 1.499 . S
C1324 H1304 0.950 . S
C1324 C1323 1.414 1_554 S
C1324 C1325 1.377 . S
C1325 H1305 0.959 . S
C1325 C1321 1.372 1_554 S
C1325 C1324 1.377 . S
C1326 C1323 1.499 . S
C1326 C1327 1.373 1_556 S
C1326 C1328 1.389 . S
C1327 H1306 0.950 . S
C1327 C1326 1.373 1_554 S
C1327 C1343 1.377 . S
C1328 C1326 1.389 . S
C1328 C1329 1.524 . S
C1328 C1342 1.377 . S
C1329 C1328 1.524 . S
C1329 C1330 1.397 . S
C1329 C1334 1.363 . S
C1330 H1307 0.950 . S
C1330 C1329 1.397 . S
C1330 C1331 1.334 . S
C1331 H1308 0.950 . S
C1331 C1330 1.334 . S
C1331 C1332 1.287 . S
C1332 C1331 1.287 . S
C1332 C1333 1.524 . S
C1332 H1351 0.913 . S
C1333 H1309 0.950 . S
C1333 C1332 1.524 . S
C1333 C1334 1.415 . S
C1334 H1310 0.950 . S
C1334 C1329 1.363 . S
C1334 C1333 1.415 . S
C1335 H1311 0.951 . S
C1335 C1336 1.366 . S
C1335 C1337 1.388 . S
C1336 C1335 1.366 . S
C1336 C1340 1.372 1_554 S
C1337 H1312 0.951 . S
C1337 C1335 1.388 . S
C1337 C1338 1.366 . S
C1338 C1337 1.366 . S
C1338 C1339 1.414 1_554 S
C1338 C1341 1.499 . S
C1339 H1313 0.950 . S
C1339 C1338 1.414 1_556 S
C1339 C1340 1.377 . S
C1340 H1314 0.959 . S
C1340 C1336 1.372 1_556 S
C1340 C1339 1.377 . S
C1341 C1338 1.499 . S
C1341 C1342 1.373 1_554 S
C1341 C1343 1.389 . S
C1342 H1315 0.950 . S
C1342 C1328 1.377 . S
C1342 C1341 1.373 1_556 S
C1343 C1327 1.377 . S
C1343 C1341 1.389 . S
C1343 C1344 1.524 . S
C1344 C1343 1.524 . S
C1344 C1345 1.397 . S
C1344 C1349 1.363 . S
C1345 H1316 0.950 . S
C1345 C1344 1.397 . S
C1345 C1346 1.334 . S
C1346 H1317 0.950 . S
C1346 C1345 1.334 . S
C1346 C1347 1.287 . S
C1347 C1346 1.287 . S
C1347 C1348 1.524 . S
C1347 H1350 0.999 . S
C1348 H1318 0.950 . S
C1348 C1347 1.524 . S
C1348 C1349 1.415 . S
C1349 H1319 0.950 . S
C1349 C1344 1.363 . S
C1349 C1348 1.415 . S
H1350 C1347 0.999 . S
H1351 C1332 0.913 . S
H1352 C1370 0.951 . S
H1353 C1372 0.951 . S
H1354 C1374 0.950 . S
H1355 C1375 0.950 . S
H1356 C1377 0.950 . S
H1357 C1380 0.945 1_556 S
H1358 C1381 0.950 . S
H1359 C1383 0.950 . S
H1360 C1384 0.950 1_545 S
H1361 C1385 0.951 . S
H1362 C1387 0.951 . S
H1363 C1389 0.950 . S
H1364 C1390 0.950 . S
H1365 C1392 0.950 . S
H1366 C1395 0.945 1_554 S
H1367 C1396 0.950 . S
H1368 C1398 0.950 . S
H1369 C1399 0.950 1_565 S
C1370 H1352 0.951 . S
C1370 C1371 1.366 . S
C1370 C1372 1.388 . S
C1371 C1370 1.366 . S
C1371 C1375 1.385 1_554 S
C1372 H1353 0.951 . S
C1372 C1370 1.388 . S
C1372 C1373 1.366 . S
C1373 C1372 1.366 . S
C1373 C1374 1.414 1_554 S
C1373 C1376 1.499 . S
C1374 H1354 0.950 . S
C1374 C1373 1.414 1_556 S
C1374 C1375 1.374 . S
C1375 H1355 0.950 . S
C1375 C1371 1.385 1_556 S
C1375 C1374 1.374 . S
C1376 C1373 1.499 . S
C1376 C1377 1.373 1_554 S
C1376 C1378 1.389 . S
C1377 H1356 0.950 . S
C1377 C1376 1.373 1_556 S
C1377 C1393 1.377 1_565 S
C1378 C1376 1.389 . S
C1378 C1379 1.524 . S
C1378 C1392 1.377 1_565 S
C1379 C1378 1.524 . S
C1379 C1380 1.397 . S
C1379 C1384 1.363 . S
C1380 H1357 0.945 1_554 S
C1380 C1379 1.397 . S
C1380 C1381 1.334 . S
C1381 H1358 0.950 . S
C1381 C1380 1.334 . S
C1381 C1382 1.287 . S
C1382 C1381 1.287 . S
C1382 C1383 1.524 . S
C1382 H1401 0.913 . S
C1383 H1359 0.950 . S
C1383 C1382 1.524 . S
C1383 C1384 1.415 . S
C1384 H1360 0.950 1_565 S
C1384 C1379 1.363 . S
C1384 C1383 1.415 . S
C1385 H1361 0.951 . S
C1385 C1386 1.366 . S
C1385 C1387 1.388 . S
C1386 C1385 1.366 . S
C1386 C1390 1.385 1_556 S
C1387 H1362 0.951 . S
C1387 C1385 1.388 . S
C1387 C1388 1.366 . S
C1388 C1387 1.366 . S
C1388 C1389 1.414 1_556 S
C1388 C1391 1.499 . S
C1389 H1363 0.950 . S
C1389 C1388 1.414 1_554 S
C1389 C1390 1.374 . S
C1390 H1364 0.950 . S
C1390 C1386 1.385 1_554 S
C1390 C1389 1.374 . S
C1391 C1388 1.499 . S
C1391 C1392 1.373 1_556 S
C1391 C1393 1.389 . S
C1392 H1365 0.950 . S
C1392 C1378 1.377 1_545 S
C1392 C1391 1.373 1_554 S
C1393 C1377 1.377 1_545 S
C1393 C1391 1.389 . S
C1393 C1394 1.524 . S
C1394 C1393 1.524 . S
C1394 C1395 1.397 . S
C1394 C1399 1.363 . S
C1395 H1366 0.945 1_556 S
C1395 C1394 1.397 . S
C1395 C1396 1.334 . S
C1396 H1367 0.950 . S
C1396 C1395 1.334 . S
C1396 C1397 1.287 . S
C1397 C1396 1.287 . S
C1397 C1398 1.524 . S
C1397 H1400 0.999 . S
C1398 H1368 0.950 . S
C1398 C1397 1.524 . S
C1398 C1399 1.415 . S
C1399 H1369 0.950 1_545 S
C1399 C1394 1.363 . S
C1399 C1398 1.415 . S
H1400 C1397 0.999 . S
H1401 C1382 0.913 . S
H1402 C1420 0.951 . S
H1403 C1422 0.951 1_554 S
H1404 C1424 0.950 . S
H1405 C1425 0.950 . S
H1406 C1427 0.950 . S
H1407 C1430 0.950 . S
H1408 C1431 0.950 . S
H1409 C1433 0.950 . S
H1410 C1434 0.950 . S
H1411 C1435 0.951 . S
H1412 C1437 0.951 1_556 S
H1413 C1439 0.950 . S
H1414 C1440 0.950 . S
H1415 C1442 0.950 . S
H1416 C1445 0.950 . S
H1417 C1446 0.950 . S
H1418 C1448 0.950 . S
H1419 C1449 0.950 . S
C1420 H1402 0.951 . S
C1420 C1421 1.366 . S
C1420 C1422 1.388 . S
C1421 C1420 1.366 . S
C1421 C1425 1.385 . S
C1422 H1403 0.951 1_556 S
C1422 C1420 1.388 . S
C1422 C1423 1.366 . S
C1423 C1422 1.366 . S
C1423 C1424 1.414 . S
C1423 C1426 1.499 . S
C1424 H1404 0.950 . S
C1424 C1423 1.414 . S
C1424 C1425 1.374 . S
C1425 H1405 0.950 . S
C1425 C1421 1.385 . S
C1425 C1424 1.374 . S
C1426 C1423 1.499 . S
C1426 C1427 1.373 1_556 S
C1426 C1428 1.389 . S
C1427 H1406 0.950 . S
C1427 C1426 1.373 1_554 S
C1427 C1443 1.377 1_655 S
C1428 C1426 1.389 . S
C1428 C1429 1.524 . S
C1428 C1442 1.377 1_655 S
C1429 C1428 1.524 . S
C1429 C1430 1.397 . S
C1429 C1434 1.363 . S
C1430 H1407 0.950 . S
C1430 C1429 1.397 . S
C1430 C1431 1.334 . S
C1431 H1408 0.950 . S
C1431 C1430 1.334 . S
C1431 C1432 1.287 . S
C1432 C1431 1.287 . S
C1432 C1433 1.524 . S
C1432 H1451 0.913 . S
C1433 H1409 0.950 . S
C1433 C1432 1.524 . S
C1433 C1434 1.415 . S
C1434 H1410 0.950 . S
C1434 C1429 1.363 . S
C1434 C1433 1.415 . S
C1435 H1411 0.951 . S
C1435 C1436 1.366 . S
C1435 C1437 1.388 . S
C1436 C1435 1.366 . S
C1436 C1440 1.385 . S
C1437 H1412 0.951 1_554 S
C1437 C1435 1.388 . S
C1437 C1438 1.366 . S
C1438 C1437 1.366 . S
C1438 C1439 1.414 . S
C1438 C1441 1.499 . S
C1439 H1413 0.950 . S
C1439 C1438 1.414 . S
C1439 C1440 1.374 . S
C1440 H1414 0.950 . S
C1440 C1436 1.385 . S
C1440 C1439 1.374 . S
C1441 C1438 1.499 . S
C1441 C1442 1.373 1_554 S
C1441 C1443 1.389 . S
C1442 H1415 0.950 . S
C1442 C1428 1.377 1_455 S
C1442 C1441 1.373 1_556 S
C1443 C1427 1.377 1_455 S
C1443 C1441 1.389 . S
C1443 C1444 1.524 . S
C1444 C1443 1.524 . S
C1444 C1445 1.397 . S
C1444 C1449 1.363 . S
C1445 H1416 0.950 . S
C1445 C1444 1.397 . S
C1445 C1446 1.334 . S
C1446 H1417 0.950 . S
C1446 C1445 1.334 . S
C1446 C1447 1.287 . S
C1447 C1446 1.287 . S
C1447 C1448 1.524 . S
C1447 H1450 0.999 . S
C1448 H1418 0.950 . S
C1448 C1447 1.524 . S
C1448 C1449 1.415 . S
C1449 H1419 0.950 . S
C1449 C1444 1.363 . S
C1449 C1448 1.415 . S
H1450 C1447 0.999 . S
H1451 C1432 0.913 . S
H1452 C1470 0.951 . S
H1453 C1472 0.951 . S
H1454 C1474 0.950 . S
H1455 C1475 0.950 . S
H1456 C1477 0.950 . S
H1457 C1480 0.950 . S
H1458 C1481 0.950 . S
H1459 C1483 0.950 . S
H1460 C1484 0.950 . S
H1461 C1485 0.951 . S
H1462 C1487 0.951 . S
H1463 C1489 0.950 . S
H1464 C1490 0.950 . S
H1465 C1492 0.950 . S
H1466 C1495 0.950 . S
H1467 C1496 0.950 . S
H1468 C1498 0.950 . S
H1469 C1499 0.950 . S
C1470 H1452 0.951 . S
C1470 C1471 1.366 . S
C1470 C1472 1.388 . S
C1471 C1470 1.366 . S
C1471 C1475 1.385 . S
C1472 H1453 0.951 . S
C1472 C1470 1.388 . S
C1472 C1473 1.366 . S
C1473 C1472 1.366 . S
C1473 C1474 1.414 . S
C1473 C1476 1.499 . S
C1474 H1454 0.950 . S
C1474 C1473 1.414 . S
C1474 C1475 1.374 . S
C1475 H1455 0.950 . S
C1475 C1471 1.385 . S
C1475 C1474 1.374 . S
C1476 C1473 1.499 . S
C1476 C1477 1.373 . S
C1476 C1478 1.389 . S
C1477 H1456 0.950 . S
C1477 C1476 1.373 . S
C1477 C1493 1.377 . S
C1478 C1476 1.389 . S
C1478 C1479 1.524 . S
C1478 C1492 1.377 . S
C1479 C1478 1.524 . S
C1479 C1480 1.397 . S
C1479 C1484 1.363 . S
C1480 H1457 0.950 . S
C1480 C1479 1.397 . S
C1480 C1481 1.334 . S
C1481 H1458 0.950 . S
C1481 C1480 1.334 . S
C1481 C1482 1.287 . S
C1482 C1481 1.287 . S
C1482 C1483 1.524 . S
C1482 H1501 0.913 . S
C1483 H1459 0.950 . S
C1483 C1482 1.524 . S
C1483 C1484 1.415 . S
C1484 H1460 0.950 . S
C1484 C1479 1.363 . S
C1484 C1483 1.415 . S
C1485 H1461 0.951 . S
C1485 C1486 1.366 . S
C1485 C1487 1.388 . S
C1486 C1485 1.366 . S
C1486 C1490 1.385 . S
C1487 H1462 0.951 . S
C1487 C1485 1.388 . S
C1487 C1488 1.366 . S
C1488 C1487 1.366 . S
C1488 C1489 1.414 . S
C1488 C1491 1.499 . S
C1489 H1463 0.950 . S
C1489 C1488 1.414 . S
C1489 C1490 1.374 . S
C1490 H1464 0.950 . S
C1490 C1486 1.385 . S
C1490 C1489 1.374 . S
C1491 C1488 1.499 . S
C1491 C1492 1.373 . S
C1491 C1493 1.389 . S
C1492 H1465 0.950 . S
C1492 C1478 1.377 . S
C1492 C1491 1.373 . S
C1493 C1477 1.377 . S
C1493 C1491 1.389 . S
C1493 C1494 1.524 . S
C1494 C1493 1.524 . S
C1494 C1495 1.397 . S
C1494 C1499 1.363 . S
C1495 H1466 0.950 . S
C1495 C1494 1.397 . S
C1495 C1496 1.334 . S
C1496 H1467 0.950 . S
C1496 C1495 1.334 . S
C1496 C1497 1.287 . S
C1497 C1496 1.287 . S
C1497 C1498 1.524 . S
C1497 H1500 0.999 . S
C1498 H1468 0.950 . S
C1498 C1497 1.524 . S
C1498 C1499 1.415 . S
C1499 H1469 0.950 . S
C1499 C1494 1.363 . S
C1499 C1498 1.415 . S
H1500 C1497 0.999 . S
H1501 C1482 0.913 . S
H1502 C1520 0.951 . S
H1503 C1522 0.951 . S
H1504 C1524 0.950 . S
H1505 C1525 0.950 . S
H1506 C1527 0.950 . S
H1507 C1530 0.950 . S
H1508 C1531 0.950 . S
H1509 C1533 0.950 . S
H1510 C1534 0.950 . S
H1511 C1535 0.951 . S
H1512 C1537 0.951 . S
H1513 C1539 0.950 . S
H1514 C1540 0.950 . S
H1515 C1542 0.950 . S
H1516 C1545 0.950 . S
H1517 C1546 0.950 . S
H1518 C1548 0.950 . S
H1519 C1549 0.950 . S
C1520 H1502 0.951 . S
C1520 C1521 1.366 . S
C1520 C1522 1.388 . S
C1521 C1520 1.366 . S
C1521 C1525 1.385 . S
C1522 H1503 0.951 . S
C1522 C1520 1.388 . S
C1522 C1523 1.366 . S
C1523 C1522 1.366 . S
C1523 C1524 1.414 . S
C1523 C1526 1.499 . S
C1524 H1504 0.950 . S
C1524 C1523 1.414 . S
C1524 C1525 1.374 . S
C1525 H1505 0.950 . S
C1525 C1521 1.385 . S
C1525 C1524 1.374 . S
C1526 C1523 1.499 . S
C1526 C1527 1.373 . S
C1526 C1528 1.389 . S
C1527 H1506 0.950 . S
C1527 C1526 1.373 . S
C1527 C1543 1.377 . S
C1528 C1526 1.389 . S
C1528 C1529 1.524 . S
C1528 C1542 1.377 . S
C1529 C1528 1.524 . S
C1529 C1530 1.397 . S
C1529 C1534 1.363 . S
C1530 H1507 0.950 . S
C1530 C1529 1.397 . S
C1530 C1531 1.334 . S
C1531 H1508 0.950 . S
C1531 C1530 1.334 . S
C1531 C1532 1.287 . S
C1532 C1531 1.287 . S
C1532 C1533 1.524 . S
C1532 H1551 0.913 . S
C1533 H1509 0.950 . S
C1533 C1532 1.524 . S
C1533 C1534 1.415 . S
C1534 H1510 0.950 . S
C1534 C1529 1.363 . S
C1534 C1533 1.415 . S
C1535 H1511 0.951 . S
C1535 C1536 1.366 . S
C1535 C1537 1.388 . S
C1536 C1535 1.366 . S
C1536 C1540 1.385 . S
C1537 H1512 0.951 . S
C1537 C1535 1.388 . S
C1537 C1538 1.366 . S
C1538 C1537 1.366 . S
C1538 C1539 1.414 . S
C1538 C1541 1.499 . S
C1539 H1513 0.950 . S
C1539 C1538 1.414 . S
C1539 C1540 1.374 . S
C1540 H1514 0.950 . S
C1540 C1536 1.385 . S
C1540 C1539 1.374 . S
C1541 C1538 1.499 . S
C1541 C1542 1.373 . S
C1541 C1543 1.389 . S
C1542 H1515 0.950 . S
C1542 C1528 1.377 . S
C1542 C1541 1.373 . S
C1543 C1527 1.377 . S
C1543 C1541 1.389 . S
C1543 C1544 1.524 . S
C1544 C1543 1.524 . S
C1544 C1545 1.397 . S
C1544 C1549 1.363 . S
C1545 H1516 0.950 . S
C1545 C1544 1.397 . S
C1545 C1546 1.334 . S
C1546 H1517 0.950 . S
C1546 C1545 1.334 . S
C1546 C1547 1.287 . S
C1547 C1546 1.287 . S
C1547 C1548 1.524 . S
C1547 H1550 0.999 . S
C1548 H1518 0.950 . S
C1548 C1547 1.524 . S
C1548 C1549 1.415 . S
C1549 H1519 0.950 . S
C1549 C1544 1.363 . S
C1549 C1548 1.415 . S
H1550 C1547 0.999 . S
H1551 C1532 0.913 . S
H1552 C1570 0.951 . S
H1553 C1572 0.951 . S
H1554 C1574 0.950 . S
H1555 C1575 0.950 . S
H1556 C1577 0.950 . S
H1557 C1580 0.950 . S
H1558 C1581 0.950 . S
H1559 C1583 0.950 . S
H1560 C1584 0.950 . S
H1561 C1585 0.951 . S
H1562 C1587 0.951 . S
H1563 C1589 0.950 . S
H1564 C1590 0.950 . S
H1565 C1592 0.950 . S
H1566 C1595 0.950 . S
H1567 C1596 0.950 . S
H1568 C1598 0.950 . S
H1569 C1599 0.950 . S
C1570 H1552 0.951 . S
C1570 C1571 1.366 . S
C1570 C1572 1.388 . S
C1571 C1570 1.366 . S
C1571 C1575 1.385 . S
C1572 H1553 0.951 . S
C1572 C1570 1.388 . S
C1572 C1573 1.366 . S
C1573 C1572 1.366 . S
C1573 C1574 1.414 . S
C1573 C1576 1.499 . S
C1574 H1554 0.950 . S
C1574 C1573 1.414 . S
C1574 C1575 1.374 . S
C1575 H1555 0.950 . S
C1575 C1571 1.385 . S
C1575 C1574 1.374 . S
C1576 C1573 1.499 . S
C1576 C1577 1.373 . S
C1576 C1578 1.389 . S
C1577 H1556 0.950 . S
C1577 C1576 1.373 . S
C1577 C1593 1.377 . S
C1578 C1576 1.389 . S
C1578 C1579 1.524 . S
C1578 C1592 1.377 . S
C1579 C1578 1.524 . S
C1579 C1580 1.397 . S
C1579 C1584 1.363 . S
C1580 H1557 0.950 . S
C1580 C1579 1.397 . S
C1580 C1581 1.334 . S
C1581 H1558 0.950 . S
C1581 C1580 1.334 . S
C1581 C1582 1.287 . S
C1582 C1581 1.287 . S
C1582 C1583 1.524 . S
C1582 H1601 0.913 . S
C1583 H1559 0.950 . S
C1583 C1582 1.524 . S
C1583 C1584 1.415 . S
C1584 H1560 0.950 . S
C1584 C1579 1.363 . S
C1584 C1583 1.415 . S
C1585 H1561 0.951 . S
C1585 C1586 1.366 . S
C1585 C1587 1.388 . S
C1586 C1585 1.366 . S
C1586 C1590 1.385 . S
C1587 H1562 0.951 . S
C1587 C1585 1.388 . S
C1587 C1588 1.366 . S
C1588 C1587 1.366 . S
C1588 C1589 1.414 . S
C1588 C1591 1.499 . S
C1589 H1563 0.950 . S
C1589 C1588 1.414 . S
C1589 C1590 1.374 . S
C1590 H1564 0.950 . S
C1590 C1586 1.385 . S
C1590 C1589 1.374 . S
C1591 C1588 1.499 . S
C1591 C1592 1.373 . S
C1591 C1593 1.389 . S
C1592 H1565 0.950 . S
C1592 C1578 1.377 . S
C1592 C1591 1.373 . S
C1593 C1577 1.377 . S
C1593 C1591 1.389 . S
C1593 C1594 1.524 . S
C1594 C1593 1.524 . S
C1594 C1595 1.397 . S
C1594 C1599 1.363 . S
C1595 H1566 0.950 . S
C1595 C1594 1.397 . S
C1595 C1596 1.334 . S
C1596 H1567 0.950 . S
C1596 C1595 1.334 . S
C1596 C1597 1.287 . S
C1597 C1596 1.287 . S
C1597 C1598 1.524 . S
C1597 H1600 0.999 . S
C1598 H1568 0.950 . S
C1598 C1597 1.524 . S
C1598 C1599 1.415 . S
C1599 H1569 0.950 . S
C1599 C1594 1.363 . S
C1599 C1598 1.415 . S
H1600 C1597 0.999 . S
H1601 C1582 0.913 . S
H1602 C1620 0.951 . S
H1603 C1622 0.951 . S
H1604 C1624 0.950 . S
H1605 C1625 0.950 . S
H1606 C1627 0.950 . S
H1607 C1630 0.950 . S
H1608 C1631 0.950 . S
H1609 C1633 0.950 . S
H1610 C1634 0.950 . S
H1611 C1635 0.951 . S
H1612 C1637 0.951 . S
H1613 C1639 0.950 . S
H1614 C1640 0.950 . S
H1615 C1642 0.950 . S
H1616 C1645 0.950 . S
H1617 C1646 0.950 . S
H1618 C1648 0.950 . S
H1619 C1649 0.950 . S
C1620 H1602 0.951 . S
C1620 C1621 1.366 . S
C1620 C1622 1.388 . S
C1621 C1620 1.366 . S
C1621 C1625 1.385 . S
C1622 H1603 0.951 . S
C1622 C1620 1.388 . S
C1622 C1623 1.366 . S
C1623 C1622 1.366 . S
C1623 C1624 1.414 . S
C1623 C1626 1.499 . S
C1624 H1604 0.950 . S
C1624 C1623 1.414 . S
C1624 C1625 1.374 . S
C1625 H1605 0.950 . S
C1625 C1621 1.385 . S
C1625 C1624 1.374 . S
C1626 C1623 1.499 . S
C1626 C1627 1.373 . S
C1626 C1628 1.389 . S
C1627 H1606 0.950 . S
C1627 C1626 1.373 . S
C1627 C1643 1.377 . S
C1628 C1626 1.389 . S
C1628 C1629 1.524 . S
C1628 C1642 1.377 . S
C1629 C1628 1.524 . S
C1629 C1630 1.397 . S
C1629 C1634 1.363 . S
C1630 H1607 0.950 . S
C1630 C1629 1.397 . S
C1630 C1631 1.334 . S
C1631 H1608 0.950 . S
C1631 C1630 1.334 . S
C1631 C1632 1.287 . S
C1632 C1631 1.287 . S
C1632 C1633 1.524 . S
C1632 H1651 0.913 . S
C1633 H1609 0.950 . S
C1633 C1632 1.524 . S
C1633 C1634 1.415 . S
C1634 H1610 0.950 . S
C1634 C1629 1.363 . S
C1634 C1633 1.415 . S
C1635 H1611 0.951 . S
C1635 C1636 1.366 . S
C1635 C1637 1.388 . S
C1636 C1635 1.366 . S
C1636 C1640 1.385 . S
C1637 H1612 0.951 . S
C1637 C1635 1.388 . S
C1637 C1638 1.366 . S
C1638 C1637 1.366 . S
C1638 C1639 1.414 . S
C1638 C1641 1.499 . S
C1639 H1613 0.950 . S
C1639 C1638 1.414 . S
C1639 C1640 1.374 . S
C1640 H1614 0.950 . S
C1640 C1636 1.385 . S
C1640 C1639 1.374 . S
C1641 C1638 1.499 . S
C1641 C1642 1.373 . S
C1641 C1643 1.389 . S
C1642 H1615 0.950 . S
C1642 C1628 1.377 . S
C1642 C1641 1.373 . S
C1643 C1627 1.377 . S
C1643 C1641 1.389 . S
C1643 C1644 1.524 . S
C1644 C1643 1.524 . S
C1644 C1645 1.397 . S
C1644 C1649 1.363 . S
C1645 H1616 0.950 . S
C1645 C1644 1.397 . S
C1645 C1646 1.334 . S
C1646 H1617 0.950 . S
C1646 C1645 1.334 . S
C1646 C1647 1.287 . S
C1647 C1646 1.287 . S
C1647 C1648 1.524 . S
C1647 H1650 0.999 . S
C1648 H1618 0.950 . S
C1648 C1647 1.524 . S
C1648 C1649 1.415 . S
C1649 H1619 0.950 . S
C1649 C1644 1.363 . S
C1649 C1648 1.415 . S
H1650 C1647 0.999 . S
H1651 C1632 0.913 . S
H1652 C1670 0.951 . S
H1653 C1672 0.951 . S
H1654 C1674 0.950 . S
H1655 C1675 0.950 . S
H1656 C1677 0.950 . S
H1657 C1680 0.950 . S
H1658 C1681 0.950 . S
H1659 C1683 0.950 . S
H1660 C1684 0.950 . S
H1661 C1685 0.951 . S
H1662 C1687 0.951 . S
H1663 C1689 0.950 . S
H1664 C1690 0.950 . S
H1665 C1692 0.950 . S
H1666 C1695 0.950 . S
H1667 C1696 0.950 . S
H1668 C1698 0.950 . S
H1669 C1699 0.950 . S
C1670 H1652 0.951 . S
C1670 C1671 1.366 . S
C1670 C1672 1.388 . S
C1671 C1670 1.366 . S
C1671 C1675 1.385 . S
C1672 H1653 0.951 . S
C1672 C1670 1.388 . S
C1672 C1673 1.366 . S
C1673 C1672 1.366 . S
C1673 C1674 1.414 . S
C1673 C1676 1.499 . S
C1674 H1654 0.950 . S
C1674 C1673 1.414 . S
C1674 C1675 1.374 . S
C1675 H1655 0.950 . S
C1675 C1671 1.385 . S
C1675 C1674 1.374 . S
C1676 C1673 1.499 . S
C1676 C1677 1.373 . S
C1676 C1678 1.389 . S
C1677 H1656 0.950 . S
C1677 C1676 1.373 . S
C1677 C1693 1.377 . S
C1678 C1676 1.389 . S
C1678 C1679 1.524 . S
C1678 C1692 1.377 . S
C1679 C1678 1.524 . S
C1679 C1680 1.397 . S
C1679 C1684 1.363 . S
C1680 H1657 0.950 . S
C1680 C1679 1.397 . S
C1680 C1681 1.334 . S
C1681 H1658 0.950 . S
C1681 C1680 1.334 . S
C1681 C1682 1.287 . S
C1682 C1681 1.287 . S
C1682 C1683 1.524 . S
C1682 H1701 0.913 . S
C1683 H1659 0.950 . S
C1683 C1682 1.524 . S
C1683 C1684 1.415 . S
C1684 H1660 0.950 . S
C1684 C1679 1.363 . S
C1684 C1683 1.415 . S
C1685 H1661 0.951 . S
C1685 C1686 1.366 . S
C1685 C1687 1.388 . S
C1686 C1685 1.366 . S
C1686 C1690 1.385 . S
C1687 H1662 0.951 . S
C1687 C1685 1.388 . S
C1687 C1688 1.366 . S
C1688 C1687 1.366 . S
C1688 C1689 1.414 . S
C1688 C1691 1.499 . S
C1689 H1663 0.950 . S
C1689 C1688 1.414 . S
C1689 C1690 1.374 . S
C1690 H1664 0.950 . S
C1690 C1686 1.385 . S
C1690 C1689 1.374 . S
C1691 C1688 1.499 . S
C1691 C1692 1.373 . S
C1691 C1693 1.389 . S
C1692 H1665 0.950 . S
C1692 C1678 1.377 . S
C1692 C1691 1.373 . S
C1693 C1677 1.377 . S
C1693 C1691 1.389 . S
C1693 C1694 1.524 . S
C1694 C1693 1.524 . S
C1694 C1695 1.397 . S
C1694 C1699 1.363 . S
C1695 H1666 0.950 . S
C1695 C1694 1.397 . S
C1695 C1696 1.334 . S
C1696 H1667 0.950 . S
C1696 C1695 1.334 . S
C1696 C1697 1.287 . S
C1697 C1696 1.287 . S
C1697 C1698 1.524 . S
C1697 H1700 0.999 . S
C1698 H1668 0.950 . S
C1698 C1697 1.524 . S
C1698 C1699 1.415 . S
C1699 H1669 0.950 . S
C1699 C1694 1.363 . S
C1699 C1698 1.415 . S
H1700 C1697 0.999 . S
H1701 C1682 0.913 . S
H1702 C1720 0.951 . S
H1703 C1722 0.951 . S
H1704 C1724 0.950 . S
H1705 C1725 0.950 . S
H1706 C1727 0.950 . S
H1707 C1730 0.950 . S
H1708 C1731 0.950 . S
H1709 C1733 0.950 . S
H1710 C1734 0.950 . S
H1711 C1735 0.951 . S
H1712 C1737 0.951 . S
H1713 C1739 0.950 . S
H1714 C1740 0.950 . S
H1715 C1742 0.950 . S
H1716 C1745 0.950 . S
H1717 C1746 0.950 . S
H1718 C1748 0.950 . S
H1719 C1749 0.950 . S
C1720 H1702 0.951 . S
C1720 C1721 1.366 . S
C1720 C1722 1.388 . S
C1721 C1720 1.366 . S
C1721 C1725 1.385 . S
C1722 H1703 0.951 . S
C1722 C1720 1.388 . S
C1722 C1723 1.366 . S
C1723 C1722 1.366 . S
C1723 C1724 1.414 . S
C1723 C1726 1.499 . S
C1724 H1704 0.950 . S
C1724 C1723 1.414 . S
C1724 C1725 1.374 . S
C1725 H1705 0.950 . S
C1725 C1721 1.385 . S
C1725 C1724 1.374 . S
C1726 C1723 1.499 . S
C1726 C1727 1.373 . S
C1726 C1728 1.389 . S
C1727 H1706 0.950 . S
C1727 C1726 1.373 . S
C1727 C1743 1.377 . S
C1728 C1726 1.389 . S
C1728 C1729 1.524 . S
C1728 C1742 1.377 . S
C1729 C1728 1.524 . S
C1729 C1730 1.397 . S
C1729 C1734 1.363 . S
C1730 H1707 0.950 . S
C1730 C1729 1.397 . S
C1730 C1731 1.334 . S
C1731 H1708 0.950 . S
C1731 C1730 1.334 . S
C1731 C1732 1.287 . S
C1732 C1731 1.287 . S
C1732 C1733 1.524 . S
C1732 H1751 0.913 . S
C1733 H1709 0.950 . S
C1733 C1732 1.524 . S
C1733 C1734 1.415 . S
C1734 H1710 0.950 . S
C1734 C1729 1.363 . S
C1734 C1733 1.415 . S
C1735 H1711 0.951 . S
C1735 C1736 1.366 . S
C1735 C1737 1.388 . S
C1736 C1735 1.366 . S
C1736 C1740 1.385 . S
C1737 H1712 0.951 . S
C1737 C1735 1.388 . S
C1737 C1738 1.366 . S
C1738 C1737 1.366 . S
C1738 C1739 1.414 . S
C1738 C1741 1.499 . S
C1739 H1713 0.950 . S
C1739 C1738 1.414 . S
C1739 C1740 1.374 . S
C1740 H1714 0.950 . S
C1740 C1736 1.385 . S
C1740 C1739 1.374 . S
C1741 C1738 1.499 . S
C1741 C1742 1.373 . S
C1741 C1743 1.389 . S
C1742 H1715 0.950 . S
C1742 C1728 1.377 . S
C1742 C1741 1.373 . S
C1743 C1727 1.377 . S
C1743 C1741 1.389 . S
C1743 C1744 1.524 . S
C1744 C1743 1.524 . S
C1744 C1745 1.397 . S
C1744 C1749 1.363 . S
C1745 H1716 0.950 . S
C1745 C1744 1.397 . S
C1745 C1746 1.334 . S
C1746 H1717 0.950 . S
C1746 C1745 1.334 . S
C1746 C1747 1.287 . S
C1747 C1746 1.287 . S
C1747 C1748 1.524 . S
C1747 H1750 0.999 . S
C1748 H1718 0.950 . S
C1748 C1747 1.524 . S
C1748 C1749 1.415 . S
C1749 H1719 0.950 . S
C1749 C1744 1.363 . S
C1749 C1748 1.415 . S
H1750 C1747 0.999 . S
H1751 C1732 0.913 . S
H1752 C1770 0.951 . S
H1753 C1772 0.951 . S
H1754 C1774 0.950 . S
H1755 C1775 0.950 . S
H1756 C1777 0.950 . S
H1757 C1780 0.950 . S
H1758 C1781 0.950 . S
H1759 C1783 0.950 . S
H1760 C1784 0.950 . S
H1761 C1785 0.951 . S
H1762 C1787 0.951 . S
H1763 C1789 0.950 . S
H1764 C1790 0.950 . S
H1765 C1792 0.950 . S
H1766 C1795 0.950 . S
H1767 C1796 0.950 . S
H1768 C1798 0.950 . S
H1769 C1799 0.950 . S
C1770 H1752 0.951 . S
C1770 C1771 1.366 . S
C1770 C1772 1.388 . S
C1771 C1770 1.366 . S
C1771 C1775 1.385 . S
C1772 H1753 0.951 . S
C1772 C1770 1.388 . S
C1772 C1773 1.366 . S
C1773 C1772 1.366 . S
C1773 C1774 1.414 . S
C1773 C1776 1.499 . S
C1774 H1754 0.950 . S
C1774 C1773 1.414 . S
C1774 C1775 1.374 . S
C1775 H1755 0.950 . S
C1775 C1771 1.385 . S
C1775 C1774 1.374 . S
C1776 C1773 1.499 . S
C1776 C1777 1.373 . S
C1776 C1778 1.389 . S
C1777 H1756 0.950 . S
C1777 C1776 1.373 . S
C1777 C1793 1.377 . S
C1778 C1776 1.389 . S
C1778 C1779 1.524 . S
C1778 C1792 1.377 . S
C1779 C1778 1.524 . S
C1779 C1780 1.397 . S
C1779 C1784 1.363 . S
C1780 H1757 0.950 . S
C1780 C1779 1.397 . S
C1780 C1781 1.334 . S
C1781 H1758 0.950 . S
C1781 C1780 1.334 . S
C1781 C1782 1.287 . S
C1782 C1781 1.287 . S
C1782 C1783 1.524 . S
C1782 H1801 0.913 . S
C1783 H1759 0.950 . S
C1783 C1782 1.524 . S
C1783 C1784 1.415 . S
C1784 H1760 0.950 . S
C1784 C1779 1.363 . S
C1784 C1783 1.415 . S
C1785 H1761 0.951 . S
C1785 C1786 1.366 . S
C1785 C1787 1.388 . S
C1786 C1785 1.366 . S
C1786 C1790 1.385 . S
C1787 H1762 0.951 . S
C1787 C1785 1.388 . S
C1787 C1788 1.366 . S
C1788 C1787 1.366 . S
C1788 C1789 1.414 . S
C1788 C1791 1.499 . S
C1789 H1763 0.950 . S
C1789 C1788 1.414 . S
C1789 C1790 1.374 . S
C1790 H1764 0.950 . S
C1790 C1786 1.385 . S
C1790 C1789 1.374 . S
C1791 C1788 1.499 . S
C1791 C1792 1.373 . S
C1791 C1793 1.389 . S
C1792 H1765 0.950 . S
C1792 C1778 1.377 . S
C1792 C1791 1.373 . S
C1793 C1777 1.377 . S
C1793 C1791 1.389 . S
C1793 C1794 1.524 . S
C1794 C1793 1.524 . S
C1794 C1795 1.397 . S
C1794 C1799 1.363 . S
C1795 H1766 0.950 . S
C1795 C1794 1.397 . S
C1795 C1796 1.334 . S
C1796 H1767 0.950 . S
C1796 C1795 1.334 . S
C1796 C1797 1.287 . S
C1797 C1796 1.287 . S
C1797 C1798 1.524 . S
C1797 H1800 0.999 . S
C1798 H1768 0.950 . S
C1798 C1797 1.524 . S
C1798 C1799 1.415 . S
C1799 H1769 0.950 . S
C1799 C1794 1.363 . S
C1799 C1798 1.415 . S
H1800 C1797 0.999 . S
H1801 C1782 0.913 . S
H1802 C1820 0.951 . S
H1803 C1822 0.951 . S
H1804 C1824 0.950 . S
H1805 C1825 0.950 . S
H1806 C1827 0.950 . S
H1807 C1830 0.950 . S
H1808 C1831 0.950 . S
H1809 C1833 0.950 . S
H1810 C1834 0.950 . S
H1811 C1835 0.951 . S
H1812 C1837 0.951 . S
H1813 C1839 0.950 . S
H1814 C1840 0.950 . S
H1815 C1842 0.950 . S
H1816 C1845 0.950 . S
H1817 C1846 0.950 . S
H1818 C1848 0.950 . S
H1819 C1849 0.950 . S
C1820 H1802 0.951 . S
C1820 C1821 1.366 . S
C1820 C1822 1.388 . S
C1821 C1820 1.366 . S
C1821 C1825 1.385 . S
C1822 H1803 0.951 . S
C1822 C1820 1.388 . S
C1822 C1823 1.366 . S
C1823 C1822 1.366 . S
C1823 C1824 1.414 . S
C1823 C1826 1.499 . S
C1824 H1804 0.950 . S
C1824 C1823 1.414 . S
C1824 C1825 1.374 . S
C1825 H1805 0.950 . S
C1825 C1821 1.385 . S
C1825 C1824 1.374 . S
C1826 C1823 1.499 . S
C1826 C1827 1.373 . S
C1826 C1828 1.389 . S
C1827 H1806 0.950 . S
C1827 C1826 1.373 . S
C1827 C1843 1.377 . S
C1828 C1826 1.389 . S
C1828 C1829 1.524 . S
C1828 C1842 1.377 . S
C1829 C1828 1.524 . S
C1829 C1830 1.397 . S
C1829 C1834 1.363 . S
C1830 H1807 0.950 . S
C1830 C1829 1.397 . S
C1830 C1831 1.334 . S
C1831 H1808 0.950 . S
C1831 C1830 1.334 . S
C1831 C1832 1.287 . S
C1832 C1831 1.287 . S
C1832 C1833 1.524 . S
C1832 H1851 0.913 . S
C1833 H1809 0.950 . S
C1833 C1832 1.524 . S
C1833 C1834 1.415 . S
C1834 H1810 0.950 . S
C1834 C1829 1.363 . S
C1834 C1833 1.415 . S
C1835 H1811 0.951 . S
C1835 C1836 1.366 . S
C1835 C1837 1.388 . S
C1836 C1835 1.366 . S
C1836 C1840 1.385 . S
C1837 H1812 0.951 . S
C1837 C1835 1.388 . S
C1837 C1838 1.366 . S
C1838 C1837 1.366 . S
C1838 C1839 1.414 . S
C1838 C1841 1.499 . S
C1839 H1813 0.950 . S
C1839 C1838 1.414 . S
C1839 C1840 1.374 . S
C1840 H1814 0.950 . S
C1840 C1836 1.385 . S
C1840 C1839 1.374 . S
C1841 C1838 1.499 . S
C1841 C1842 1.373 . S
C1841 C1843 1.389 . S
C1842 H1815 0.950 . S
C1842 C1828 1.377 . S
C1842 C1841 1.373 . S
C1843 C1827 1.377 . S
C1843 C1841 1.389 . S
C1843 C1844 1.524 . S
C1844 C1843 1.524 . S
C1844 C1845 1.397 . S
C1844 C1849 1.363 . S
C1845 H1816 0.950 . S
C1845 C1844 1.397 . S
C1845 C1846 1.334 . S
C1846 H1817 0.950 . S
C1846 C1845 1.334 . S
C1846 C1847 1.287 . S
C1847 C1846 1.287 . S
C1847 C1848 1.524 . S
C1847 H1850 0.999 . S
C1848 H1818 0.950 . S
C1848 C1847 1.524 . S
C1848 C1849 1.415 . S
C1849 H1819 0.950 . S
C1849 C1844 1.363 . S
C1849 C1848 1.415 . S
H1850 C1847 0.999 . S
H1851 C1832 0.913 . S
H1852 C1870 0.951 . S
H1853 C1872 0.951 . S
H1854 C1874 0.950 . S
H1855 C1875 0.950 . S
H1856 C1877 0.950 . S
H1857 C1880 0.950 . S
H1858 C1881 0.950 . S
H1859 C1883 0.950 . S
H1860 C1884 0.950 . S
H1861 C1885 0.951 . S
H1862 C1887 0.951 . S
H1863 C1889 0.950 . S
H1864 C1890 0.950 . S
H1865 C1892 0.950 . S
H1866 C1895 0.950 . S
H1867 C1896 0.950 . S
H1868 C1898 0.950 . S
H1869 C1899 0.950 . S
C1870 H1852 0.951 . S
C1870 C1871 1.366 . S
C1870 C1872 1.388 . S
C1871 C1870 1.366 . S
C1871 C1875 1.385 . S
C1872 H1853 0.951 . S
C1872 C1870 1.388 . S
C1872 C1873 1.366 . S
C1873 C1872 1.366 . S
C1873 C1874 1.414 . S
C1873 C1876 1.499 . S
C1874 H1854 0.950 . S
C1874 C1873 1.414 . S
C1874 C1875 1.374 . S
C1875 H1855 0.950 . S
C1875 C1871 1.385 . S
C1875 C1874 1.374 . S
C1876 C1873 1.499 . S
C1876 C1877 1.373 . S
C1876 C1878 1.389 . S
C1877 H1856 0.950 . S
C1877 C1876 1.373 . S
C1877 C1893 1.377 . S
C1878 C1876 1.389 . S
C1878 C1879 1.524 . S
C1878 C1892 1.377 . S
C1879 C1878 1.524 . S
C1879 C1880 1.397 . S
C1879 C1884 1.363 . S
C1880 H1857 0.950 . S
C1880 C1879 1.397 . S
C1880 C1881 1.334 . S
C1881 H1858 0.950 . S
C1881 C1880 1.334 . S
C1881 C1882 1.287 . S
C1882 C1881 1.287 . S
C1882 C1883 1.524 . S
C1882 H1901 0.913 . S
C1883 H1859 0.950 . S
C1883 C1882 1.524 . S
C1883 C1884 1.415 . S
C1884 H1860 0.950 . S
C1884 C1879 1.363 . S
C1884 C1883 1.415 . S
C1885 H1861 0.951 . S
C1885 C1886 1.366 . S
C1885 C1887 1.388 . S
C1886 C1885 1.366 . S
C1886 C1890 1.385 . S
C1887 H1862 0.951 . S
C1887 C1885 1.388 . S
C1887 C1888 1.366 . S
C1888 C1887 1.366 . S
C1888 C1889 1.414 . S
C1888 C1891 1.499 . S
C1889 H1863 0.950 . S
C1889 C1888 1.414 . S
C1889 C1890 1.374 . S
C1890 H1864 0.950 . S
C1890 C1886 1.385 . S
C1890 C1889 1.374 . S
C1891 C1888 1.499 . S
C1891 C1892 1.373 . S
C1891 C1893 1.389 . S
C1892 H1865 0.950 . S
C1892 C1878 1.377 . S
C1892 C1891 1.373 . S
C1893 C1877 1.377 . S
C1893 C1891 1.389 . S
C1893 C1894 1.524 . S
C1894 C1893 1.524 . S
C1894 C1895 1.397 . S
C1894 C1899 1.363 . S
C1895 H1866 0.950 . S
C1895 C1894 1.397 . S
C1895 C1896 1.334 . S
C1896 H1867 0.950 . S
C1896 C1895 1.334 . S
C1896 C1897 1.287 . S
C1897 C1896 1.287 . S
C1897 C1898 1.524 . S
C1897 H1900 0.999 . S
C1898 H1868 0.950 . S
C1898 C1897 1.524 . S
C1898 C1899 1.415 . S
C1899 H1869 0.950 . S
C1899 C1894 1.363 . S
C1899 C1898 1.415 . S
H1900 C1897 0.999 . S
H1901 C1882 0.913 . S
H1902 C1920 0.951 . S
H1903 C1922 0.951 . S
H1904 C1924 0.950 . S
H1905 C1925 0.950 . S
H1906 C1927 0.950 . S
H1907 C1930 0.950 . S
H1908 C1931 0.950 . S
H1909 C1933 0.950 . S
H1910 C1934 0.950 . S
H1911 C1935 0.951 . S
H1912 C1937 0.951 . S
H1913 C1939 0.950 . S
H1914 C1940 0.950 . S
H1915 C1942 0.950 . S
H1916 C1945 0.950 . S
H1917 C1946 0.950 . S
H1918 C1948 0.950 . S
H1919 C1949 0.950 . S
C1920 H1902 0.951 . S
C1920 C1921 1.366 . S
C1920 C1922 1.388 . S
C1921 C1920 1.366 . S
C1921 C1925 1.385 . S
C1922 H1903 0.951 . S
C1922 C1920 1.388 . S
C1922 C1923 1.366 . S
C1923 C1922 1.366 . S
C1923 C1924 1.414 . S
C1923 C1926 1.499 . S
C1924 H1904 0.950 . S
C1924 C1923 1.414 . S
C1924 C1925 1.374 . S
C1925 H1905 0.950 . S
C1925 C1921 1.385 . S
C1925 C1924 1.374 . S
C1926 C1923 1.499 . S
C1926 C1927 1.373 . S
C1926 C1928 1.389 . S
C1927 H1906 0.950 . S
C1927 C1926 1.373 . S
C1927 C1943 1.377 . S
C1928 C1926 1.389 . S
C1928 C1929 1.524 . S
C1928 C1942 1.377 . S
C1929 C1928 1.524 . S
C1929 C1930 1.397 . S
C1929 C1934 1.363 . S
C1930 H1907 0.950 . S
C1930 C1929 1.397 . S
C1930 C1931 1.334 . S
C1931 H1908 0.950 . S
C1931 C1930 1.334 . S
C1931 C1932 1.287 . S
C1932 C1931 1.287 . S
C1932 C1933 1.524 . S
C1932 H1951 0.913 . S
C1933 H1909 0.950 . S
C1933 C1932 1.524 . S
C1933 C1934 1.415 . S
C1934 H1910 0.950 . S
C1934 C1929 1.363 . S
C1934 C1933 1.415 . S
C1935 H1911 0.951 . S
C1935 C1936 1.366 . S
C1935 C1937 1.388 . S
C1936 C1935 1.366 . S
C1936 C1940 1.385 . S
C1937 H1912 0.951 . S
C1937 C1935 1.388 . S
C1937 C1938 1.366 . S
C1938 C1937 1.366 . S
C1938 C1939 1.414 . S
C1938 C1941 1.499 . S
C1939 H1913 0.950 . S
C1939 C1938 1.414 . S
C1939 C1940 1.374 . S
C1940 H1914 0.950 . S
C1940 C1936 1.385 . S
C1940 C1939 1.374 . S
C1941 C1938 1.499 . S
C1941 C1942 1.373 . S
C1941 C1943 1.389 . S
C1942 H1915 0.950 . S
C1942 C1928 1.377 . S
C1942 C1941 1.373 . S
C1943 C1927 1.377 . S
C1943 C1941 1.389 . S
C1943 C1944 1.524 . S
C1944 C1943 1.524 . S
C1944 C1945 1.397 . S
C1944 C1949 1.363 . S
C1945 H1916 0.950 . S
C1945 C1944 1.397 . S
C1945 C1946 1.334 . S
C1946 H1917 0.950 . S
C1946 C1945 1.334 . S
C1946 C1947 1.287 . S
C1947 C1946 1.287 . S
C1947 C1948 1.524 . S
C1947 H1950 0.999 . S
C1948 H1918 0.950 . S
C1948 C1947 1.524 . S
C1948 C1949 1.415 . S
C1949 H1919 0.950 . S
C1949 C1944 1.363 . S
C1949 C1948 1.415 . S
H1950 C1947 0.999 . S
H1951 C1932 0.913 . S
H1952 C1970 0.951 . S
H1953 C1972 0.951 . S
H1954 C1974 0.950 . S
H1955 C1975 0.950 . S
H1956 C1977 0.950 . S
H1957 C1980 0.950 . S
H1958 C1981 0.950 . S
H1959 C1983 0.950 . S
H1960 C1984 0.950 . S
H1961 C1985 0.951 . S
H1962 C1987 0.951 . S
H1963 C1989 0.950 . S
H1964 C1990 0.950 . S
H1965 C1992 0.950 . S
H1966 C1995 0.950 . S
H1967 C1996 0.950 . S
H1968 C1998 0.950 . S
H1969 C1999 0.950 . S
C1970 H1952 0.951 . S
C1970 C1971 1.366 . S
C1970 C1972 1.388 . S
C1971 C1970 1.366 . S
C1971 C1975 1.385 . S
C1972 H1953 0.951 . S
C1972 C1970 1.388 . S
C1972 C1973 1.366 . S
C1973 C1972 1.366 . S
C1973 C1974 1.414 . S
C1973 C1976 1.499 . S
C1974 H1954 0.950 . S
C1974 C1973 1.414 . S
C1974 C1975 1.374 . S
C1975 H1955 0.950 . S
C1975 C1971 1.385 . S
C1975 C1974 1.374 . S
C1976 C1973 1.499 . S
C1976 C1977 1.373 . S
C1976 C1978 1.389 . S
C1977 H1956 0.950 . S
C1977 C1976 1.373 . S
C1977 C1993 1.377 . S
C1978 C1976 1.389 . S
C1978 C1979 1.524 . S
C1978 C1992 1.377 . S
C1979 C1978 1.524 . S
C1979 C1980 1.397 . S
C1979 C1984 1.363 . S
C1980 H1957 0.950 . S
C1980 C1979 1.397 . S
C1980 C1981 1.334 . S
C1981 H1958 0.950 . S
C1981 C1980 1.334 . S
C1981 C1982 1.287 . S
C1982 C1981 1.287 . S
C1982 C1983 1.524 . S
C1982 H2001 0.913 . S
C1983 H1959 0.950 . S
C1983 C1982 1.524 . S
C1983 C1984 1.415 . S
C1984 H1960 0.950 . S
C1984 C1979 1.363 . S
C1984 C1983 1.415 . S
C1985 H1961 0.951 . S
C1985 C1986 1.366 . S
C1985 C1987 1.388 . S
C1986 C1985 1.366 . S
C1986 C1990 1.385 . S
C1987 H1962 0.951 . S
C1987 C1985 1.388 . S
C1987 C1988 1.366 . S
C1988 C1987 1.366 . S
C1988 C1989 1.414 . S
C1988 C1991 1.499 . S
C1989 H1963 0.950 . S
C1989 C1988 1.414 . S
C1989 C1990 1.374 . S
C1990 H1964 0.950 . S
C1990 C1986 1.385 . S
C1990 C1989 1.374 . S
C1991 C1988 1.499 . S
C1991 C1992 1.373 . S
C1991 C1993 1.389 . S
C1992 H1965 0.950 . S
C1992 C1978 1.377 . S
C1992 C1991 1.373 . S
C1993 C1977 1.377 . S
C1993 C1991 1.389 . S
C1993 C1994 1.524 . S
C1994 C1993 1.524 . S
C1994 C1995 1.397 . S
C1994 C1999 1.363 . S
C1995 H1966 0.950 . S
C1995 C1994 1.397 . S
C1995 C1996 1.334 . S
C1996 H1967 0.950 . S
C1996 C1995 1.334 . S
C1996 C1997 1.287 . S
C1997 C1996 1.287 . S
C1997 C1998 1.524 . S
C1997 H2000 0.999 . S
C1998 H1968 0.950 . S
C1998 C1997 1.524 . S
C1998 C1999 1.415 . S
C1999 H1969 0.950 . S
C1999 C1994 1.363 . S
C1999 C1998 1.415 . S
H2000 C1997 0.999 . S
H2001 C1982 0.913 . S
H2002 C2020 0.951 . S
H2003 C2022 0.951 . S
H2004 C2024 0.950 . S
H2005 C2025 0.950 . S
H2006 C2027 0.950 . S
H2007 C2030 0.950 . S
H2008 C2031 0.950 . S
H2009 C2033 0.950 . S
H2010 C2034 0.950 . S
H2011 C2035 0.951 . S
H2012 C2037 0.951 . S
H2013 C2039 0.950 . S
H2014 C2040 0.950 . S
H2015 C2042 0.950 . S
H2016 C2045 0.950 . S
H2017 C2046 0.950 . S
H2018 C2048 0.950 . S
H2019 C2049 0.950 . S
C2020 H2002 0.951 . S
C2020 C2021 1.366 . S
C2020 C2022 1.388 . S
C2021 C2020 1.366 . S
C2021 C2025 1.385 . S
C2022 H2003 0.951 . S
C2022 C2020 1.388 . S
C2022 C2023 1.366 . S
C2023 C2022 1.366 . S
C2023 C2024 1.414 . S
C2023 C2026 1.499 . S
C2024 H2004 0.950 . S
C2024 C2023 1.414 . S
C2024 C2025 1.374 . S
C2025 H2005 0.950 . S
C2025 C2021 1.385 . S
C2025 C2024 1.374 . S
C2026 C2023 1.499 . S
C2026 C2027 1.373 . S
C2026 C2028 1.389 . S
C2027 H2006 0.950 . S
C2027 C2026 1.373 . S
C2027 C2043 1.377 . S
C2028 C2026 1.389 . S
C2028 C2029 1.524 . S
C2028 C2042 1.377 . S
C2029 C2028 1.524 . S
C2029 C2030 1.397 . S
C2029 C2034 1.363 . S
C2030 H2007 0.950 . S
C2030 C2029 1.397 . S
C2030 C2031 1.334 . S
C2031 H2008 0.950 . S
C2031 C2030 1.334 . S
C2031 C2032 1.287 . S
C2032 C2031 1.287 . S
C2032 C2033 1.524 . S
C2032 H2051 0.913 . S
C2033 H2009 0.950 . S
C2033 C2032 1.524 . S
C2033 C2034 1.415 . S
C2034 H2010 0.950 . S
C2034 C2029 1.363 . S
C2034 C2033 1.415 . S
C2035 H2011 0.951 . S
C2035 C2036 1.366 . S
C2035 C2037 1.388 . S
C2036 C2035 1.366 . S
C2036 C2040 1.385 . S
C2037 H2012 0.951 . S
C2037 C2035 1.388 . S
C2037 C2038 1.366 . S
C2038 C2037 1.366 . S
C2038 C2039 1.414 . S
C2038 C2041 1.499 . S
C2039 H2013 0.950 . S
C2039 C2038 1.414 . S
C2039 C2040 1.374 . S
C2040 H2014 0.950 . S
C2040 C2036 1.385 . S
C2040 C2039 1.374 . S
C2041 C2038 1.499 . S
C2041 C2042 1.373 . S
C2041 C2043 1.389 . S
C2042 H2015 0.950 . S
C2042 C2028 1.377 . S
C2042 C2041 1.373 . S
C2043 C2027 1.377 . S
C2043 C2041 1.389 . S
C2043 C2044 1.524 . S
C2044 C2043 1.524 . S
C2044 C2045 1.397 . S
C2044 C2049 1.363 . S
C2045 H2016 0.950 . S
C2045 C2044 1.397 . S
C2045 C2046 1.334 . S
C2046 H2017 0.950 . S
C2046 C2045 1.334 . S
C2046 C2047 1.287 . S
C2047 C2046 1.287 . S
C2047 C2048 1.524 . S
C2047 H2050 0.999 . S
C2048 H2018 0.950 . S
C2048 C2047 1.524 . S
C2048 C2049 1.415 . S
C2049 H2019 0.950 . S
C2049 C2044 1.363 . S
C2049 C2048 1.415 . S
H2050 C2047 0.999 . S
H2051 C2032 0.913 . S
C271 C244 1.713 . S
C286 C6 1.713 . S
C321 C216 1.712 . S
C336 C20 1.712 . S
C371 C230 1.712 . S
C386 C34 1.712 . S
C421 C104 1.712 . S
C436 C48 1.712 . S
C471 C118 1.713 . S
C486 C62 1.713 . S
C521 C76 1.712 . S
C536 C90 1.712 . S
C571 C132 1.712 . S
C586 C188 1.712 . S
C621 C146 1.712 . S
C636 C202 1.712 . S
C671 C160 1.712 . S
C686 C174 1.712 . S
C721 C9 0.620 . S
C736 C247 0.620 . S
C771 C219 0.619 . S
C786 C23 0.620 . S
C821 C37 0.618 . S
C836 C233 0.617 . S
C871 C107 0.618 . S
C886 C51 0.619 . S
C921 C65 0.617 . S
C936 C121 0.618 . S
C971 C79 0.617 . S
C986 C93 0.618 . S
C1021 C135 0.618 . S
C1036 C191 0.618 . S
C1071 C205 0.618 . S
C1086 C149 0.619 . S
C1121 C177 0.620 . S
C1136 C163 0.619 . S
C1171 C8 1.838 . S
C1186 C50 1.838 . S
C1221 C64 1.838 . S
C1236 C22 1.839 . S
C1271 C78 1.839 . S
C1286 C36 1.838 . S
C1321 C77 1.799 . S
C1336 C21 1.799 . S
C1371 C35 1.800 . S
C1386 C49 1.799 . S
C1421 C63 1.799 . S
C1436 C7 1.800 . S
C1471 C92 1.838 . S
C1486 C134 1.838 . S
C1521 C148 1.839 . S
C1536 C106 1.839 . S
C1571 C162 1.839 . S
C1586 C120 1.838 . S
C1621 C161 1.799 . S
C1636 C105 1.798 . S
C1671 C119 1.799 . S
C1686 C133 1.800 . S
C1721 C147 1.799 . S
C1736 C91 1.799 . S
C1771 C218 1.838 . S
C1786 C176 1.838 . S
C1821 C232 1.839 . S
C1836 C190 1.839 . S
C1871 C204 1.839 . S
C1886 C246 1.839 . S
C1921 C245 1.798 . S
C1936 C189 1.799 . S
C1971 C203 1.800 . S
C1986 C217 1.799 . S
C2021 C231 1.800 . S
C2036 C175 1.800 . S
