# Generated by pormake.
# Topology gie, (4)-cn, num edge types: 1
# Building blocks:
#     Node 0, Type 0, BuildingBlock: CEKHIL_clean_sbu_0, # of connection points: 4
#     Node 1, Type 0, BuildingBlock: CEKHIL_clean_sbu_0, # of connection points: 4
#     Node 2, Type 0, BuildingBlock: CEKHIL_clean_sbu_0, # of connection points: 4
#     Node 3, Type 0, BuildingBlock: CEKHIL_clean_sbu_0, # of connection points: 4
#     Node 4, Type 0, BuildingBlock: CEKHIL_clean_sbu_0, # of connection points: 4
#     Node 5, Type 0, BuildingBlock: CEKHIL_clean_sbu_0, # of connection points: 4
#     Node 6, Type 0, BuildingBlock: CEKHIL_clean_sbu_0, # of connection points: 4
#     Node 7, Type 0, BuildingBlock: CEKHIL_clean_sbu_0, # of connection points: 4
#     Node 8, Type 0, BuildingBlock: CEKHIL_clean_sbu_0, # of connection points: 4
#     Node 9, Type 0, BuildingBlock: CEKHIL_clean_sbu_0, # of connection points: 4
#     Node 10, Type 0, BuildingBlock: CEKHIL_clean_sbu_0, # of connection points: 4
#     Node 11, Type 0, BuildingBlock: CEKHIL_clean_sbu_0, # of connection points: 4
#     Node 12, Type 0, BuildingBlock: CEKHIL_clean_sbu_0, # of connection points: 4
#     Node 13, Type 0, BuildingBlock: CEKHIL_clean_sbu_0, # of connection points: 4
#     Node 14, Type 0, BuildingBlock: CEKHIL_clean_sbu_0, # of connection points: 4
#     Node 15, Type 0, BuildingBlock: CEKHIL_clean_sbu_0, # of connection points: 4
#     Node 16, Type 0, BuildingBlock: CEKHIL_clean_sbu_0, # of connection points: 4
#     Node 17, Type 0, BuildingBlock: CEKHIL_clean_sbu_0, # of connection points: 4
#     Node 18, Type 0, BuildingBlock: CEKHIL_clean_sbu_0, # of connection points: 4
#     Node 19, Type 0, BuildingBlock: CEKHIL_clean_sbu_0, # of connection points: 4
#     Node 20, Type 0, BuildingBlock: CEKHIL_clean_sbu_0, # of connection points: 4
#     Node 21, Type 0, BuildingBlock: CEKHIL_clean_sbu_0, # of connection points: 4
#     Node 22, Type 0, BuildingBlock: CEKHIL_clean_sbu_0, # of connection points: 4
#     Node 23, Type 0, BuildingBlock: CEKHIL_clean_sbu_0, # of connection points: 4
#     Node 24, Type 0, BuildingBlock: CEKHIL_clean_sbu_0, # of connection points: 4
#     Node 25, Type 0, BuildingBlock: CEKHIL_clean_sbu_0, # of connection points: 4
#     Node 26, Type 0, BuildingBlock: CEKHIL_clean_sbu_0, # of connection points: 4
#     Node 27, Type 0, BuildingBlock: CEKHIL_clean_sbu_0, # of connection points: 4
#     Node 28, Type 0, BuildingBlock: CEKHIL_clean_sbu_0, # of connection points: 4
#     Node 29, Type 0, BuildingBlock: CEKHIL_clean_sbu_0, # of connection points: 4
#     Node 30, Type 0, BuildingBlock: CEKHIL_clean_sbu_0, # of connection points: 4
#     Node 31, Type 0, BuildingBlock: CEKHIL_clean_sbu_0, # of connection points: 4
#     Node 32, Type 0, BuildingBlock: CEKHIL_clean_sbu_0, # of connection points: 4
#     Node 33, Type 0, BuildingBlock: CEKHIL_clean_sbu_0, # of connection points: 4
#     Node 34, Type 0, BuildingBlock: CEKHIL_clean_sbu_0, # of connection points: 4
#     Node 35, Type 0, BuildingBlock: CEKHIL_clean_sbu_0, # of connection points: 4
#     Node 36, Type 0, BuildingBlock: CEKHIL_clean_sbu_0, # of connection points: 4
#     Node 37, Type 0, BuildingBlock: CEKHIL_clean_sbu_0, # of connection points: 4
#     Node 38, Type 0, BuildingBlock: CEKHIL_clean_sbu_0, # of connection points: 4
#     Node 39, Type 0, BuildingBlock: CEKHIL_clean_sbu_0, # of connection points: 4
#     Node 40, Type 0, BuildingBlock: CEKHIL_clean_sbu_0, # of connection points: 4
#     Node 41, Type 0, BuildingBlock: CEKHIL_clean_sbu_0, # of connection points: 4
#     Node 42, Type 0, BuildingBlock: CEKHIL_clean_sbu_0, # of connection points: 4
#     Node 43, Type 0, BuildingBlock: CEKHIL_clean_sbu_0, # of connection points: 4
#     Node 44, Type 0, BuildingBlock: CEKHIL_clean_sbu_0, # of connection points: 4
#     Node 45, Type 0, BuildingBlock: CEKHIL_clean_sbu_0, # of connection points: 4
#     Node 46, Type 0, BuildingBlock: CEKHIL_clean_sbu_0, # of connection points: 4
#     Node 47, Type 0, BuildingBlock: CEKHIL_clean_sbu_0, # of connection points: 4
#     Node 48, Type 0, BuildingBlock: CEKHIL_clean_sbu_0, # of connection points: 4
#     Node 49, Type 0, BuildingBlock: CEKHIL_clean_sbu_0, # of connection points: 4
#     Node 50, Type 0, BuildingBlock: CEKHIL_clean_sbu_0, # of connection points: 4
#     Node 51, Type 0, BuildingBlock: CEKHIL_clean_sbu_0, # of connection points: 4
#     Node 52, Type 0, BuildingBlock: CEKHIL_clean_sbu_0, # of connection points: 4
#     Node 53, Type 0, BuildingBlock: CEKHIL_clean_sbu_0, # of connection points: 4
#     Node 54, Type 0, BuildingBlock: CEKHIL_clean_sbu_0, # of connection points: 4
#     Node 55, Type 0, BuildingBlock: CEKHIL_clean_sbu_0, # of connection points: 4
#     Node 56, Type 0, BuildingBlock: CEKHIL_clean_sbu_0, # of connection points: 4
#     Node 57, Type 0, BuildingBlock: CEKHIL_clean_sbu_0, # of connection points: 4
#     Node 58, Type 0, BuildingBlock: CEKHIL_clean_sbu_0, # of connection points: 4
#     Node 59, Type 0, BuildingBlock: CEKHIL_clean_sbu_0, # of connection points: 4
#     Node 60, Type 0, BuildingBlock: CEKHIL_clean_sbu_0, # of connection points: 4
#     Node 61, Type 0, BuildingBlock: CEKHIL_clean_sbu_0, # of connection points: 4
#     Node 62, Type 0, BuildingBlock: CEKHIL_clean_sbu_0, # of connection points: 4
#     Node 63, Type 0, BuildingBlock: CEKHIL_clean_sbu_0, # of connection points: 4
#     Node 64, Type 0, BuildingBlock: CEKHIL_clean_sbu_0, # of connection points: 4
#     Node 65, Type 0, BuildingBlock: CEKHIL_clean_sbu_0, # of connection points: 4
#     Node 66, Type 0, BuildingBlock: CEKHIL_clean_sbu_0, # of connection points: 4
#     Node 67, Type 0, BuildingBlock: CEKHIL_clean_sbu_0, # of connection points: 4
#     Node 68, Type 0, BuildingBlock: CEKHIL_clean_sbu_0, # of connection points: 4
#     Node 69, Type 0, BuildingBlock: CEKHIL_clean_sbu_0, # of connection points: 4
#     Node 70, Type 0, BuildingBlock: CEKHIL_clean_sbu_0, # of connection points: 4
#     Node 71, Type 0, BuildingBlock: CEKHIL_clean_sbu_0, # of connection points: 4
#     Node 72, Type 0, BuildingBlock: CEKHIL_clean_sbu_0, # of connection points: 4
#     Node 73, Type 0, BuildingBlock: CEKHIL_clean_sbu_0, # of connection points: 4
#     Node 74, Type 0, BuildingBlock: CEKHIL_clean_sbu_0, # of connection points: 4
#     Node 75, Type 0, BuildingBlock: CEKHIL_clean_sbu_0, # of connection points: 4
#     Node 76, Type 0, BuildingBlock: CEKHIL_clean_sbu_0, # of connection points: 4
#     Node 77, Type 0, BuildingBlock: CEKHIL_clean_sbu_0, # of connection points: 4
#     Node 78, Type 0, BuildingBlock: CEKHIL_clean_sbu_0, # of connection points: 4
#     Node 79, Type 0, BuildingBlock: CEKHIL_clean_sbu_0, # of connection points: 4
#     Node 80, Type 0, BuildingBlock: CEKHIL_clean_sbu_0, # of connection points: 4
#     Node 81, Type 0, BuildingBlock: CEKHIL_clean_sbu_0, # of connection points: 4
#     Node 82, Type 0, BuildingBlock: CEKHIL_clean_sbu_0, # of connection points: 4
#     Node 83, Type 0, BuildingBlock: CEKHIL_clean_sbu_0, # of connection points: 4
#     Node 84, Type 0, BuildingBlock: CEKHIL_clean_sbu_0, # of connection points: 4
#     Node 85, Type 0, BuildingBlock: CEKHIL_clean_sbu_0, # of connection points: 4
#     Node 86, Type 0, BuildingBlock: CEKHIL_clean_sbu_0, # of connection points: 4
#     Node 87, Type 0, BuildingBlock: CEKHIL_clean_sbu_0, # of connection points: 4
#     Node 88, Type 0, BuildingBlock: CEKHIL_clean_sbu_0, # of connection points: 4
#     Node 89, Type 0, BuildingBlock: CEKHIL_clean_sbu_0, # of connection points: 4
#     Node 90, Type 0, BuildingBlock: CEKHIL_clean_sbu_0, # of connection points: 4
#     Node 91, Type 0, BuildingBlock: CEKHIL_clean_sbu_0, # of connection points: 4
#     Node 92, Type 0, BuildingBlock: CEKHIL_clean_sbu_0, # of connection points: 4
#     Node 93, Type 0, BuildingBlock: CEKHIL_clean_sbu_0, # of connection points: 4
#     Node 94, Type 0, BuildingBlock: CEKHIL_clean_sbu_0, # of connection points: 4
#     Node 95, Type 0, BuildingBlock: CEKHIL_clean_sbu_0, # of connection points: 4
#     Edge 96, Type (0, 0), BuildingBlock: UVAHIK_clean_linker_0, # of connection points: 2
#     Edge 97, Type (0, 0), BuildingBlock: UVAHIK_clean_linker_0, # of connection points: 2
#     Edge 98, Type (0, 0), BuildingBlock: UVAHIK_clean_linker_0, # of connection points: 2
#     Edge 99, Type (0, 0), BuildingBlock: UVAHIK_clean_linker_0, # of connection points: 2
#     Edge 100, Type (0, 0), BuildingBlock: UVAHIK_clean_linker_0, # of connection points: 2
#     Edge 101, Type (0, 0), BuildingBlock: UVAHIK_clean_linker_0, # of connection points: 2
#     Edge 102, Type (0, 0), BuildingBlock: UVAHIK_clean_linker_0, # of connection points: 2
#     Edge 103, Type (0, 0), BuildingBlock: UVAHIK_clean_linker_0, # of connection points: 2
#     Edge 104, Type (0, 0), BuildingBlock: UVAHIK_clean_linker_0, # of connection points: 2
#     Edge 105, Type (0, 0), BuildingBlock: UVAHIK_clean_linker_0, # of connection points: 2
#     Edge 106, Type (0, 0), BuildingBlock: UVAHIK_clean_linker_0, # of connection points: 2
#     Edge 107, Type (0, 0), BuildingBlock: UVAHIK_clean_linker_0, # of connection points: 2
#     Edge 108, Type (0, 0), BuildingBlock: UVAHIK_clean_linker_0, # of connection points: 2
#     Edge 109, Type (0, 0), BuildingBlock: UVAHIK_clean_linker_0, # of connection points: 2
#     Edge 110, Type (0, 0), BuildingBlock: UVAHIK_clean_linker_0, # of connection points: 2
#     Edge 111, Type (0, 0), BuildingBlock: UVAHIK_clean_linker_0, # of connection points: 2
#     Edge 112, Type (0, 0), BuildingBlock: UVAHIK_clean_linker_0, # of connection points: 2
#     Edge 113, Type (0, 0), BuildingBlock: UVAHIK_clean_linker_0, # of connection points: 2
#     Edge 114, Type (0, 0), BuildingBlock: UVAHIK_clean_linker_0, # of connection points: 2
#     Edge 115, Type (0, 0), BuildingBlock: UVAHIK_clean_linker_0, # of connection points: 2
#     Edge 116, Type (0, 0), BuildingBlock: UVAHIK_clean_linker_0, # of connection points: 2
#     Edge 117, Type (0, 0), BuildingBlock: UVAHIK_clean_linker_0, # of connection points: 2
#     Edge 118, Type (0, 0), BuildingBlock: UVAHIK_clean_linker_0, # of connection points: 2
#     Edge 119, Type (0, 0), BuildingBlock: UVAHIK_clean_linker_0, # of connection points: 2
#     Edge 120, Type (0, 0), BuildingBlock: UVAHIK_clean_linker_0, # of connection points: 2
#     Edge 121, Type (0, 0), BuildingBlock: UVAHIK_clean_linker_0, # of connection points: 2
#     Edge 122, Type (0, 0), BuildingBlock: UVAHIK_clean_linker_0, # of connection points: 2
#     Edge 123, Type (0, 0), BuildingBlock: UVAHIK_clean_linker_0, # of connection points: 2
#     Edge 124, Type (0, 0), BuildingBlock: UVAHIK_clean_linker_0, # of connection points: 2
#     Edge 125, Type (0, 0), BuildingBlock: UVAHIK_clean_linker_0, # of connection points: 2
#     Edge 126, Type (0, 0), BuildingBlock: UVAHIK_clean_linker_0, # of connection points: 2
#     Edge 127, Type (0, 0), BuildingBlock: UVAHIK_clean_linker_0, # of connection points: 2
#     Edge 128, Type (0, 0), BuildingBlock: UVAHIK_clean_linker_0, # of connection points: 2
#     Edge 129, Type (0, 0), BuildingBlock: UVAHIK_clean_linker_0, # of connection points: 2
#     Edge 130, Type (0, 0), BuildingBlock: UVAHIK_clean_linker_0, # of connection points: 2
#     Edge 131, Type (0, 0), BuildingBlock: UVAHIK_clean_linker_0, # of connection points: 2
#     Edge 132, Type (0, 0), BuildingBlock: UVAHIK_clean_linker_0, # of connection points: 2
#     Edge 133, Type (0, 0), BuildingBlock: UVAHIK_clean_linker_0, # of connection points: 2
#     Edge 134, Type (0, 0), BuildingBlock: UVAHIK_clean_linker_0, # of connection points: 2
#     Edge 135, Type (0, 0), BuildingBlock: UVAHIK_clean_linker_0, # of connection points: 2
#     Edge 136, Type (0, 0), BuildingBlock: UVAHIK_clean_linker_0, # of connection points: 2
#     Edge 137, Type (0, 0), BuildingBlock: UVAHIK_clean_linker_0, # of connection points: 2
#     Edge 138, Type (0, 0), BuildingBlock: UVAHIK_clean_linker_0, # of connection points: 2
#     Edge 139, Type (0, 0), BuildingBlock: UVAHIK_clean_linker_0, # of connection points: 2
#     Edge 140, Type (0, 0), BuildingBlock: UVAHIK_clean_linker_0, # of connection points: 2
#     Edge 141, Type (0, 0), BuildingBlock: UVAHIK_clean_linker_0, # of connection points: 2
#     Edge 142, Type (0, 0), BuildingBlock: UVAHIK_clean_linker_0, # of connection points: 2
#     Edge 143, Type (0, 0), BuildingBlock: UVAHIK_clean_linker_0, # of connection points: 2
#     Edge 144, Type (0, 0), BuildingBlock: UVAHIK_clean_linker_0, # of connection points: 2
#     Edge 145, Type (0, 0), BuildingBlock: UVAHIK_clean_linker_0, # of connection points: 2
#     Edge 146, Type (0, 0), BuildingBlock: UVAHIK_clean_linker_0, # of connection points: 2
#     Edge 147, Type (0, 0), BuildingBlock: UVAHIK_clean_linker_0, # of connection points: 2
#     Edge 148, Type (0, 0), BuildingBlock: UVAHIK_clean_linker_0, # of connection points: 2
#     Edge 149, Type (0, 0), BuildingBlock: UVAHIK_clean_linker_0, # of connection points: 2
#     Edge 150, Type (0, 0), BuildingBlock: UVAHIK_clean_linker_0, # of connection points: 2
#     Edge 151, Type (0, 0), BuildingBlock: UVAHIK_clean_linker_0, # of connection points: 2
#     Edge 152, Type (0, 0), BuildingBlock: UVAHIK_clean_linker_0, # of connection points: 2
#     Edge 153, Type (0, 0), BuildingBlock: UVAHIK_clean_linker_0, # of connection points: 2
#     Edge 154, Type (0, 0), BuildingBlock: UVAHIK_clean_linker_0, # of connection points: 2
#     Edge 155, Type (0, 0), BuildingBlock: UVAHIK_clean_linker_0, # of connection points: 2
#     Edge 156, Type (0, 0), BuildingBlock: UVAHIK_clean_linker_0, # of connection points: 2
#     Edge 157, Type (0, 0), BuildingBlock: UVAHIK_clean_linker_0, # of connection points: 2
#     Edge 158, Type (0, 0), BuildingBlock: UVAHIK_clean_linker_0, # of connection points: 2
#     Edge 159, Type (0, 0), BuildingBlock: UVAHIK_clean_linker_0, # of connection points: 2
#     Edge 160, Type (0, 0), BuildingBlock: UVAHIK_clean_linker_0, # of connection points: 2
#     Edge 161, Type (0, 0), BuildingBlock: UVAHIK_clean_linker_0, # of connection points: 2
#     Edge 162, Type (0, 0), BuildingBlock: UVAHIK_clean_linker_0, # of connection points: 2
#     Edge 163, Type (0, 0), BuildingBlock: UVAHIK_clean_linker_0, # of connection points: 2
#     Edge 164, Type (0, 0), BuildingBlock: UVAHIK_clean_linker_0, # of connection points: 2
#     Edge 165, Type (0, 0), BuildingBlock: UVAHIK_clean_linker_0, # of connection points: 2
#     Edge 166, Type (0, 0), BuildingBlock: UVAHIK_clean_linker_0, # of connection points: 2
#     Edge 167, Type (0, 0), BuildingBlock: UVAHIK_clean_linker_0, # of connection points: 2
#     Edge 168, Type (0, 0), BuildingBlock: UVAHIK_clean_linker_0, # of connection points: 2
#     Edge 169, Type (0, 0), BuildingBlock: UVAHIK_clean_linker_0, # of connection points: 2
#     Edge 170, Type (0, 0), BuildingBlock: UVAHIK_clean_linker_0, # of connection points: 2
#     Edge 171, Type (0, 0), BuildingBlock: UVAHIK_clean_linker_0, # of connection points: 2
#     Edge 172, Type (0, 0), BuildingBlock: UVAHIK_clean_linker_0, # of connection points: 2
#     Edge 173, Type (0, 0), BuildingBlock: UVAHIK_clean_linker_0, # of connection points: 2
#     Edge 174, Type (0, 0), BuildingBlock: UVAHIK_clean_linker_0, # of connection points: 2
#     Edge 175, Type (0, 0), BuildingBlock: UVAHIK_clean_linker_0, # of connection points: 2
#     Edge 176, Type (0, 0), BuildingBlock: UVAHIK_clean_linker_0, # of connection points: 2
#     Edge 177, Type (0, 0), BuildingBlock: UVAHIK_clean_linker_0, # of connection points: 2
#     Edge 178, Type (0, 0), BuildingBlock: UVAHIK_clean_linker_0, # of connection points: 2
#     Edge 179, Type (0, 0), BuildingBlock: UVAHIK_clean_linker_0, # of connection points: 2
#     Edge 180, Type (0, 0), BuildingBlock: UVAHIK_clean_linker_0, # of connection points: 2
#     Edge 181, Type (0, 0), BuildingBlock: UVAHIK_clean_linker_0, # of connection points: 2
#     Edge 182, Type (0, 0), BuildingBlock: UVAHIK_clean_linker_0, # of connection points: 2
#     Edge 183, Type (0, 0), BuildingBlock: UVAHIK_clean_linker_0, # of connection points: 2
#     Edge 184, Type (0, 0), BuildingBlock: UVAHIK_clean_linker_0, # of connection points: 2
#     Edge 185, Type (0, 0), BuildingBlock: UVAHIK_clean_linker_0, # of connection points: 2
#     Edge 186, Type (0, 0), BuildingBlock: UVAHIK_clean_linker_0, # of connection points: 2
#     Edge 187, Type (0, 0), BuildingBlock: UVAHIK_clean_linker_0, # of connection points: 2
#     Edge 188, Type (0, 0), BuildingBlock: UVAHIK_clean_linker_0, # of connection points: 2
#     Edge 189, Type (0, 0), BuildingBlock: UVAHIK_clean_linker_0, # of connection points: 2
#     Edge 190, Type (0, 0), BuildingBlock: UVAHIK_clean_linker_0, # of connection points: 2
#     Edge 191, Type (0, 0), BuildingBlock: UVAHIK_clean_linker_0, # of connection points: 2
#     Edge 192, Type (0, 0), BuildingBlock: UVAHIK_clean_linker_0, # of connection points: 2
#     Edge 193, Type (0, 0), BuildingBlock: UVAHIK_clean_linker_0, # of connection points: 2
#     Edge 194, Type (0, 0), BuildingBlock: UVAHIK_clean_linker_0, # of connection points: 2
#     Edge 195, Type (0, 0), BuildingBlock: UVAHIK_clean_linker_0, # of connection points: 2
#     Edge 196, Type (0, 0), BuildingBlock: UVAHIK_clean_linker_0, # of connection points: 2
#     Edge 197, Type (0, 0), BuildingBlock: UVAHIK_clean_linker_0, # of connection points: 2
#     Edge 198, Type (0, 0), BuildingBlock: UVAHIK_clean_linker_0, # of connection points: 2
#     Edge 199, Type (0, 0), BuildingBlock: UVAHIK_clean_linker_0, # of connection points: 2
#     Edge 200, Type (0, 0), BuildingBlock: UVAHIK_clean_linker_0, # of connection points: 2
#     Edge 201, Type (0, 0), BuildingBlock: UVAHIK_clean_linker_0, # of connection points: 2
#     Edge 202, Type (0, 0), BuildingBlock: UVAHIK_clean_linker_0, # of connection points: 2
#     Edge 203, Type (0, 0), BuildingBlock: UVAHIK_clean_linker_0, # of connection points: 2
#     Edge 204, Type (0, 0), BuildingBlock: UVAHIK_clean_linker_0, # of connection points: 2
#     Edge 205, Type (0, 0), BuildingBlock: UVAHIK_clean_linker_0, # of connection points: 2
#     Edge 206, Type (0, 0), BuildingBlock: UVAHIK_clean_linker_0, # of connection points: 2
#     Edge 207, Type (0, 0), BuildingBlock: UVAHIK_clean_linker_0, # of connection points: 2
#     Edge 208, Type (0, 0), BuildingBlock: UVAHIK_clean_linker_0, # of connection points: 2
#     Edge 209, Type (0, 0), BuildingBlock: UVAHIK_clean_linker_0, # of connection points: 2
#     Edge 210, Type (0, 0), BuildingBlock: UVAHIK_clean_linker_0, # of connection points: 2
#     Edge 211, Type (0, 0), BuildingBlock: UVAHIK_clean_linker_0, # of connection points: 2
#     Edge 212, Type (0, 0), BuildingBlock: UVAHIK_clean_linker_0, # of connection points: 2
#     Edge 213, Type (0, 0), BuildingBlock: UVAHIK_clean_linker_0, # of connection points: 2
#     Edge 214, Type (0, 0), BuildingBlock: UVAHIK_clean_linker_0, # of connection points: 2
#     Edge 215, Type (0, 0), BuildingBlock: UVAHIK_clean_linker_0, # of connection points: 2
#     Edge 216, Type (0, 0), BuildingBlock: UVAHIK_clean_linker_0, # of connection points: 2
#     Edge 217, Type (0, 0), BuildingBlock: UVAHIK_clean_linker_0, # of connection points: 2
#     Edge 218, Type (0, 0), BuildingBlock: UVAHIK_clean_linker_0, # of connection points: 2
#     Edge 219, Type (0, 0), BuildingBlock: UVAHIK_clean_linker_0, # of connection points: 2
#     Edge 220, Type (0, 0), BuildingBlock: UVAHIK_clean_linker_0, # of connection points: 2
#     Edge 221, Type (0, 0), BuildingBlock: UVAHIK_clean_linker_0, # of connection points: 2
#     Edge 222, Type (0, 0), BuildingBlock: UVAHIK_clean_linker_0, # of connection points: 2
#     Edge 223, Type (0, 0), BuildingBlock: UVAHIK_clean_linker_0, # of connection points: 2
#     Edge 224, Type (0, 0), BuildingBlock: UVAHIK_clean_linker_0, # of connection points: 2
#     Edge 225, Type (0, 0), BuildingBlock: UVAHIK_clean_linker_0, # of connection points: 2
#     Edge 226, Type (0, 0), BuildingBlock: UVAHIK_clean_linker_0, # of connection points: 2
#     Edge 227, Type (0, 0), BuildingBlock: UVAHIK_clean_linker_0, # of connection points: 2
#     Edge 228, Type (0, 0), BuildingBlock: UVAHIK_clean_linker_0, # of connection points: 2
#     Edge 229, Type (0, 0), BuildingBlock: UVAHIK_clean_linker_0, # of connection points: 2
#     Edge 230, Type (0, 0), BuildingBlock: UVAHIK_clean_linker_0, # of connection points: 2
#     Edge 231, Type (0, 0), BuildingBlock: UVAHIK_clean_linker_0, # of connection points: 2
#     Edge 232, Type (0, 0), BuildingBlock: UVAHIK_clean_linker_0, # of connection points: 2
#     Edge 233, Type (0, 0), BuildingBlock: UVAHIK_clean_linker_0, # of connection points: 2
#     Edge 234, Type (0, 0), BuildingBlock: UVAHIK_clean_linker_0, # of connection points: 2
#     Edge 235, Type (0, 0), BuildingBlock: UVAHIK_clean_linker_0, # of connection points: 2
#     Edge 236, Type (0, 0), BuildingBlock: UVAHIK_clean_linker_0, # of connection points: 2
#     Edge 237, Type (0, 0), BuildingBlock: UVAHIK_clean_linker_0, # of connection points: 2
#     Edge 238, Type (0, 0), BuildingBlock: UVAHIK_clean_linker_0, # of connection points: 2
#     Edge 239, Type (0, 0), BuildingBlock: UVAHIK_clean_linker_0, # of connection points: 2
#     Edge 240, Type (0, 0), BuildingBlock: UVAHIK_clean_linker_0, # of connection points: 2
#     Edge 241, Type (0, 0), BuildingBlock: UVAHIK_clean_linker_0, # of connection points: 2
#     Edge 242, Type (0, 0), BuildingBlock: UVAHIK_clean_linker_0, # of connection points: 2
#     Edge 243, Type (0, 0), BuildingBlock: UVAHIK_clean_linker_0, # of connection points: 2
#     Edge 244, Type (0, 0), BuildingBlock: UVAHIK_clean_linker_0, # of connection points: 2
#     Edge 245, Type (0, 0), BuildingBlock: UVAHIK_clean_linker_0, # of connection points: 2
#     Edge 246, Type (0, 0), BuildingBlock: UVAHIK_clean_linker_0, # of connection points: 2
#     Edge 247, Type (0, 0), BuildingBlock: UVAHIK_clean_linker_0, # of connection points: 2
#     Edge 248, Type (0, 0), BuildingBlock: UVAHIK_clean_linker_0, # of connection points: 2
#     Edge 249, Type (0, 0), BuildingBlock: UVAHIK_clean_linker_0, # of connection points: 2
#     Edge 250, Type (0, 0), BuildingBlock: UVAHIK_clean_linker_0, # of connection points: 2
#     Edge 251, Type (0, 0), BuildingBlock: UVAHIK_clean_linker_0, # of connection points: 2
#     Edge 252, Type (0, 0), BuildingBlock: UVAHIK_clean_linker_0, # of connection points: 2
#     Edge 253, Type (0, 0), BuildingBlock: UVAHIK_clean_linker_0, # of connection points: 2
#     Edge 254, Type (0, 0), BuildingBlock: UVAHIK_clean_linker_0, # of connection points: 2
#     Edge 255, Type (0, 0), BuildingBlock: UVAHIK_clean_linker_0, # of connection points: 2
#     Edge 256, Type (0, 0), BuildingBlock: UVAHIK_clean_linker_0, # of connection points: 2
#     Edge 257, Type (0, 0), BuildingBlock: UVAHIK_clean_linker_0, # of connection points: 2
#     Edge 258, Type (0, 0), BuildingBlock: UVAHIK_clean_linker_0, # of connection points: 2
#     Edge 259, Type (0, 0), BuildingBlock: UVAHIK_clean_linker_0, # of connection points: 2
#     Edge 260, Type (0, 0), BuildingBlock: UVAHIK_clean_linker_0, # of connection points: 2
#     Edge 261, Type (0, 0), BuildingBlock: UVAHIK_clean_linker_0, # of connection points: 2
#     Edge 262, Type (0, 0), BuildingBlock: UVAHIK_clean_linker_0, # of connection points: 2
#     Edge 263, Type (0, 0), BuildingBlock: UVAHIK_clean_linker_0, # of connection points: 2
#     Edge 264, Type (0, 0), BuildingBlock: UVAHIK_clean_linker_0, # of connection points: 2
#     Edge 265, Type (0, 0), BuildingBlock: UVAHIK_clean_linker_0, # of connection points: 2
#     Edge 266, Type (0, 0), BuildingBlock: UVAHIK_clean_linker_0, # of connection points: 2
#     Edge 267, Type (0, 0), BuildingBlock: UVAHIK_clean_linker_0, # of connection points: 2
#     Edge 268, Type (0, 0), BuildingBlock: UVAHIK_clean_linker_0, # of connection points: 2
#     Edge 269, Type (0, 0), BuildingBlock: UVAHIK_clean_linker_0, # of connection points: 2
#     Edge 270, Type (0, 0), BuildingBlock: UVAHIK_clean_linker_0, # of connection points: 2
#     Edge 271, Type (0, 0), BuildingBlock: UVAHIK_clean_linker_0, # of connection points: 2
#     Edge 272, Type (0, 0), BuildingBlock: UVAHIK_clean_linker_0, # of connection points: 2
#     Edge 273, Type (0, 0), BuildingBlock: UVAHIK_clean_linker_0, # of connection points: 2
#     Edge 274, Type (0, 0), BuildingBlock: UVAHIK_clean_linker_0, # of connection points: 2
#     Edge 275, Type (0, 0), BuildingBlock: UVAHIK_clean_linker_0, # of connection points: 2
#     Edge 276, Type (0, 0), BuildingBlock: UVAHIK_clean_linker_0, # of connection points: 2
#     Edge 277, Type (0, 0), BuildingBlock: UVAHIK_clean_linker_0, # of connection points: 2
#     Edge 278, Type (0, 0), BuildingBlock: UVAHIK_clean_linker_0, # of connection points: 2
#     Edge 279, Type (0, 0), BuildingBlock: UVAHIK_clean_linker_0, # of connection points: 2
#     Edge 280, Type (0, 0), BuildingBlock: UVAHIK_clean_linker_0, # of connection points: 2
#     Edge 281, Type (0, 0), BuildingBlock: UVAHIK_clean_linker_0, # of connection points: 2
#     Edge 282, Type (0, 0), BuildingBlock: UVAHIK_clean_linker_0, # of connection points: 2
#     Edge 283, Type (0, 0), BuildingBlock: UVAHIK_clean_linker_0, # of connection points: 2
#     Edge 284, Type (0, 0), BuildingBlock: UVAHIK_clean_linker_0, # of connection points: 2
#     Edge 285, Type (0, 0), BuildingBlock: UVAHIK_clean_linker_0, # of connection points: 2
#     Edge 286, Type (0, 0), BuildingBlock: UVAHIK_clean_linker_0, # of connection points: 2
#     Edge 287, Type (0, 0), BuildingBlock: UVAHIK_clean_linker_0, # of connection points: 2
# Relax obj value: 0.129
# Max RMSD: 0.216
# Mean RMSD: 0.209
data_MOF--net-gie--node1-CEKHIL_clean_sbu_0--edge1-UVAHIK_clean_linker_0
_symmetry_space_group_name_H-M    P1
_symmetry_Int_Tables_number       1
_symmetry_cell_setting            triclinic
loop_
_symmetry_equiv_pos_as_xyz
'x, y, z'
_cell_length_a     109.84734
_cell_length_b     109.11605
_cell_length_c     109.06249
_cell_angle_alpha  90.004787
_cell_angle_beta   90.004313
_cell_angle_gamma 89.997892
loop_
_atom_site_label
_atom_site_type_symbol
_atom_site_fract_x
_atom_site_fract_y
_atom_site_fract_z
_atom_type_partial_charge
Co0 Co 0.99326 0.13693 0.40884 0.0
O1 O 0.98613 0.12186 0.4144 0.0
O2 O 0.98767 0.12766 0.39495 0.0
C3 C 0.01024 0.1363 0.41998 0.0
O4 O 0.00049 0.15126 0.39954 0.0
Co5 Co 0.99685 0.15873 0.42654 0.0
O6 O 0.00688 0.16548 0.41297 0.0
C7 C 0.97254 0.15412 0.41641 0.0
C8 C 0.98435 0.11942 0.40288 0.0
C9 C 0.00625 0.16118 0.40212 0.0
O10 O 0.97708 0.14539 0.40999 0.0
O11 O 0.97875 0.16024 0.42423 0.0
O12 O 0.00935 0.13003 0.40991 0.0
O13 O 0.00035 0.14145 0.42392 0.0
Co14 Co 0.11289 0.74387 0.65458 0.0
O15 O 0.12486 0.73146 0.65778 0.0
O16 O 0.11902 0.73754 0.63927 0.0
C17 C 0.11998 0.75786 0.66782 0.0
O18 O 0.10131 0.75667 0.64765 0.0
Co19 Co 0.09483 0.75227 0.67478 0.0
O20 O 0.09227 0.76628 0.66345 0.0
C21 C 0.09069 0.72881 0.66208 0.0
C22 C 0.12602 0.73064 0.64595 0.0
C23 C 0.09488 0.76547 0.6521 0.0
O24 O 0.09965 0.73119 0.65487 0.0
O25 O 0.08766 0.73572 0.67107 0.0
O26 O 0.12496 0.75658 0.6571 0.0
O27 O 0.11183 0.74979 0.67069 0.0
Co28 Co 0.50403 0.85987 0.9106 0.0
O29 O 0.51543 0.87266 0.91441 0.0
O30 O 0.5076 0.86906 0.896 0.0
C31 C 0.49144 0.86312 0.92635 0.0
O32 O 0.49168 0.84826 0.90314 0.0
Co33 Co 0.50005 0.83764 0.92778 0.0
O34 O 0.48582 0.8343 0.91706 0.0
C35 C 0.52201 0.83869 0.91236 0.0
C36 C 0.51447 0.87581 0.90296 0.0
C37 C 0.48473 0.83945 0.90662 0.0
O38 O 0.5177 0.84825 0.90702 0.0
O39 O 0.51679 0.83353 0.9215 0.0
O40 O 0.49085 0.86992 0.91661 0.0
O41 O 0.5004 0.85541 0.92685 0.0
Co42 Co 0.38204 0.25089 0.15695 0.0
O43 O 0.36866 0.26154 0.16075 0.0
O44 O 0.37489 0.25689 0.14195 0.0
C45 C 0.37727 0.23554 0.16964 0.0
O46 O 0.39502 0.23989 0.14947 0.0
Co47 Co 0.40143 0.24463 0.17659 0.0
O48 O 0.40505 0.231 0.16508 0.0
C49 C 0.40255 0.26847 0.16411 0.0
C50 C 0.36728 0.26273 0.14898 0.0
C51 C 0.40224 0.23166 0.15376 0.0
O52 O 0.39352 0.2652 0.15738 0.0
O53 O 0.40686 0.26181 0.17274 0.0
O54 O 0.37189 0.23657 0.15909 0.0
O55 O 0.38413 0.24463 0.17288 0.0
Co56 Co 0.99095 0.86185 0.08808 0.0
O57 O 0.97844 0.87389 0.08564 0.0
O58 O 0.98654 0.86889 0.10361 0.0
C59 C 0.00335 0.8679 0.07298 0.0
O60 O 0.00416 0.85038 0.09422 0.0
Co61 Co 0.99655 0.84224 0.06829 0.0
O62 O 0.01133 0.83935 0.07838 0.0
C63 C 0.975 0.8393 0.08402 0.0
C64 C 0.97896 0.87562 0.09742 0.0
C65 C 0.01191 0.84293 0.08949 0.0
O66 O 0.97836 0.84877 0.09013 0.0
O67 O 0.9806 0.8355 0.07443 0.0
O68 O 0.00328 0.8736 0.08343 0.0
O69 O 0.99498 0.85967 0.07147 0.0
Co70 Co 0.38221 0.74721 0.34001 0.0
O71 O 0.37018 0.73536 0.33523 0.0
O72 O 0.37332 0.74182 0.35426 0.0
C73 C 0.3781 0.76094 0.32531 0.0
O74 O 0.39319 0.75961 0.34842 0.0
Co75 Co 0.40376 0.75392 0.32295 0.0
O76 O 0.40571 0.76794 0.33442 0.0
C77 C 0.40418 0.73056 0.33649 0.0
C78 C 0.36704 0.73509 0.34671 0.0
C79 C 0.40105 0.76769 0.34512 0.0
O80 O 0.39457 0.73389 0.34235 0.0
O81 O 0.4088 0.73683 0.32771 0.0
O82 O 0.37145 0.76039 0.33513 0.0
O83 O 0.38621 0.75243 0.32409 0.0
Co84 Co 0.50419 0.13714 0.58669 0.0
O85 O 0.51507 0.12397 0.58277 0.0
O86 O 0.50847 0.1285 0.60146 0.0
C87 C 0.4906 0.13342 0.57191 0.0
O88 O 0.49261 0.1495 0.59424 0.0
Co89 Co 0.49994 0.15848 0.56843 0.0
O90 O 0.48695 0.16336 0.5801 0.0
C91 C 0.52255 0.15771 0.58284 0.0
C92 C 0.51481 0.12134 0.59438 0.0
C93 C 0.48616 0.15871 0.5908 0.0
O94 O 0.51828 0.14858 0.5889 0.0
O95 O 0.51707 0.16244 0.57362 0.0
O96 O 0.49044 0.12715 0.58202 0.0
O97 O 0.49971 0.14082 0.57047 0.0
Co98 Co 0.11473 0.25109 0.83805 0.0
O99 O 0.12814 0.26177 0.83455 0.0
O100 O 0.12276 0.25555 0.85314 0.0
C101 C 0.1188 0.23704 0.82367 0.0
O102 O 0.10192 0.23967 0.84515 0.0
Co103 Co 0.09432 0.2471 0.81884 0.0
O104 O 0.08929 0.23372 0.83006 0.0
C105 C 0.09462 0.26986 0.83323 0.0
C106 C 0.13025 0.26172 0.84627 0.0
C107 C 0.09318 0.23298 0.84105 0.0
O108 O 0.10351 0.26552 0.83953 0.0
O109 O 0.09007 0.2643 0.82396 0.0
O110 O 0.12459 0.23699 0.83405 0.0
O111 O 0.11174 0.24635 0.82173 0.0
Co112 Co 0.39814 0.0001 0.12866 0.0
O113 O 0.40695 0.01345 0.12158 0.0
O114 O 0.41132 0.00481 0.13948 0.0
C115 C 0.39709 0.98911 0.11129 0.0
O116 O 0.39142 0.98579 0.13853 0.0
Co117 Co 0.37229 0.9932 0.11932 0.0
O118 O 0.37568 0.97766 0.12816 0.0
C119 C 0.37554 0.01466 0.13553 0.0
C120 C 0.41391 0.01296 0.13117 0.0
C121 C 0.38358 0.97722 0.13672 0.0
O122 O 0.38682 0.01188 0.13711 0.0
O123 O 0.36848 0.00884 0.12822 0.0
O124 O 0.40682 0.98856 0.11807 0.0
O125 O 0.3889 0.99681 0.11476 0.0
Co126 Co 0.25228 0.15734 0.38741 0.0
O127 O 0.26235 0.16163 0.37371 0.0
O128 O 0.25887 0.14267 0.3802 0.0
C129 C 0.23639 0.16915 0.38248 0.0
O130 O 0.24198 0.14925 0.40058 0.0
Co131 Co 0.2451 0.17656 0.40697 0.0
O132 O 0.23317 0.16389 0.41201 0.0
C133 C 0.26957 0.16572 0.40768 0.0
C134 C 0.26389 0.14992 0.3722 0.0
C135 C 0.23429 0.15273 0.40876 0.0
O136 O 0.26658 0.15866 0.39875 0.0
O137 O 0.26251 0.17397 0.41205 0.0
O138 O 0.23797 0.15858 0.37726 0.0
O139 O 0.24516 0.1729 0.38952 0.0
Co140 Co 0.09547 0.997 0.62935 0.0
O141 O 0.08776 0.98299 0.62228 0.0
O142 O 0.08259 0.99138 0.64008 0.0
C143 C 0.09582 0.008 0.61196 0.0
O144 O 0.10098 0.01184 0.63919 0.0
Co145 Co 0.12078 0.00591 0.62028 0.0
O146 O 0.11581 0.0213 0.62862 0.0
C147 C 0.11912 0.98445 0.63674 0.0
C148 C 0.08067 0.98303 0.63179 0.0
C149 C 0.10792 0.02112 0.63718 0.0
O150 O 0.10759 0.98618 0.63797 0.0
O151 O 0.12584 0.99088 0.62961 0.0
O152 O 0.08602 0.00779 0.61865 0.0
O153 O 0.10456 0.00096 0.61552 0.0
Co154 Co 0.24077 0.83813 0.886 0.0
O155 O 0.22844 0.83459 0.87402 0.0
O156 O 0.23531 0.85316 0.87866 0.0
C157 C 0.2541 0.82378 0.88013 0.0
O158 O 0.25364 0.84546 0.89719 0.0
Co159 Co 0.24814 0.81945 0.90603 0.0
O160 O 0.26267 0.83016 0.90754 0.0
C161 C 0.22539 0.83343 0.90881 0.0
C162 C 0.22822 0.84634 0.872 0.0
C163 C 0.26227 0.84126 0.90395 0.0
O164 O 0.22804 0.8395 0.89908 0.0
O165 O 0.23193 0.82464 0.91294 0.0
O166 O 0.25333 0.83411 0.87427 0.0
O167 O 0.24595 0.8219 0.88851 0.0
Co168 Co 0.40313 0.9966 0.36715 0.0
O169 O 0.41269 0.98346 0.37355 0.0
O170 O 0.41629 0.99295 0.3559 0.0
C171 C 0.40185 0.00686 0.38493 0.0
O172 O 0.3955 0.01091 0.358 0.0
Co173 Co 0.3771 0.00158 0.37726 0.0
O174 O 0.37923 0.01749 0.36864 0.0
C175 C 0.38136 0.98082 0.36047 0.0
C176 C 0.4194 0.98461 0.36383 0.0
C177 C 0.38704 0.0188 0.36009 0.0
O178 O 0.39224 0.98465 0.35843 0.0
O179 O 0.37425 0.98569 0.3684 0.0
O180 O 0.41143 0.00813 0.37804 0.0
O181 O 0.394 -0.00113 0.38132 0.0
Co182 Co 0.24215 0.15791 0.61189 0.0
O183 O 0.23044 0.16135 0.62449 0.0
O184 O 0.2363 0.14276 0.61862 0.0
C185 C 0.25651 0.17118 0.61778 0.0
O186 O 0.25423 0.15073 0.59978 0.0
Co187 Co 0.24897 0.1775 0.59255 0.0
O188 O 0.26288 0.16628 0.58945 0.0
C189 C 0.2258 0.16435 0.59011 0.0
C190 C 0.22972 0.14953 0.62584 0.0
C191 C 0.26246 0.15504 0.5926 0.0
O192 O 0.2289 0.15771 0.59931 0.0
O193 O 0.23226 0.1733 0.58618 0.0
O194 O 0.25533 0.16068 0.62325 0.0
O195 O 0.248 0.17399 0.61002 0.0
Co196 Co 0.09709 0.9976 0.86786 0.0
O197 O 0.0931 0.01284 0.87544 0.0
O198 O 0.08317 0.00485 0.85966 0.0
C199 C 0.09953 0.98735 0.88554 0.0
O200 O 0.0986 0.98186 0.85795 0.0
Co201 Co 0.12258 0.98602 0.8724 0.0
O202 O 0.11513 0.97151 0.86437 0.0
C203 C 0.12011 0.00766 0.85643 0.0
C204 C 0.08439 0.01379 0.86748 0.0
C205 C 0.10544 0.97227 0.85797 0.0
O206 O 0.10848 0.00632 0.85642 0.0
O207 O 0.12727 0.00124 0.86312 0.0
O208 O 0.08869 0.98866 0.8809 0.0
O209 O 0.10818 0.99292 0.87983 0.0
Co210 Co 0.25547 0.83383 0.1116 0.0
O211 O 0.26593 0.83028 0.12523 0.0
O212 O 0.2606 0.84891 0.11906 0.0
C213 C 0.24068 0.82048 0.11604 0.0
O214 O 0.24447 0.84113 0.09856 0.0
Co215 Co 0.25015 0.81442 0.09155 0.0
O216 O 0.23651 0.82569 0.08753 0.0
C217 C 0.27338 0.82781 0.09101 0.0
C218 C 0.2663 0.84207 0.12694 0.0
C219 C 0.23674 0.8369 0.09079 0.0
O220 O 0.26974 0.83422 0.10018 0.0
O221 O 0.2672 0.81893 0.0865 0.0
O222 O 0.24136 0.83092 0.1217 0.0
O223 O 0.24984 0.81776 0.10905 0.0
Co224 Co 0.13177 0.40666 0.99473 0.0
O225 O 0.11874 0.4107 0.98372 0.0
O226 O 0.12492 0.39182 0.98805 0.0
C227 C 0.12638 0.41888 0.01028 0.0
O228 O 0.14445 0.39895 0.00594 0.0
Co229 Co 0.15078 0.42626 0.00222 0.0
O230 O 0.15414 0.41434 0.01557 0.0
C231 C 0.15299 0.41426 0.97819 0.0
C232 C 0.11745 0.39897 0.98218 0.0
C233 C 0.15147 0.40303 0.01446 0.0
O234 O 0.14376 0.40754 0.98087 0.0
O235 O 0.15703 0.42271 0.98526 0.0
O236 O 0.12112 0.40834 0.00874 0.0
O237 O 0.13353 0.42241 0.00152 0.0
Co238 Co 0.63057 0.09018 0.00088 0.0
O239 O 0.61815 0.08676 0.01277 0.0
O240 O 0.62291 0.10528 0.00582 0.0
C241 C 0.62564 0.07571 0.9872 0.0
O242 O 0.64239 0.09717 0.98836 0.0
Co243 Co 0.65073 0.07098 0.99567 0.0
O244 O 0.65469 0.08206 0.98181 0.0
C245 C 0.65209 0.08571 0.01813 0.0
C246 C 0.61612 0.0985 0.01284 0.0
C247 C 0.65067 0.09301 0.98113 0.0
O248 O 0.64292 0.09193 0.01431 0.0
O249 O 0.65621 0.07631 0.01246 0.0
O250 O 0.61963 0.08595 0.98766 0.0
O251 O 0.63329 0.07387 0.99606 0.0
Co252 Co 0.14793 0.3784 0.24768 0.0
O253 O 0.15348 0.37036 0.2332 0.0
O254 O 0.16092 0.38788 0.24024 0.0
C255 C 0.1474 0.3615 0.25937 0.0
O256 O 0.14448 0.38906 0.26263 0.0
Co257 Co 0.12276 0.37137 0.25868 0.0
O258 O 0.12946 0.37991 0.27327 0.0
C259 C 0.1239 0.38679 0.23651 0.0
C260 C 0.16104 0.37937 0.23186 0.0
C261 C 0.13793 0.38785 0.27235 0.0
O262 O 0.13552 0.38756 0.23771 0.0
O263 O 0.1172 0.38016 0.24347 0.0
O264 O 0.15761 0.36736 0.25791 0.0
O265 O 0.13833 0.36543 0.25298 0.0
Co266 Co 0.8653 0.91019 0.4995 0.0
O267 O 0.87775 0.91359 0.5114 0.0
O268 O 0.87315 0.89512 0.50423 0.0
C269 C 0.8701 0.92498 0.48611 0.0
O270 O 0.85351 0.90314 0.487 0.0
Co271 Co 0.84486 0.9291 0.49435 0.0
O272 O 0.84075 0.91791 0.48061 0.0
C273 C 0.8437 0.91415 0.51671 0.0
C274 C 0.8799 0.90188 0.51131 0.0
C275 C 0.84498 0.90705 0.47994 0.0
O276 O 0.85301 0.90813 0.51293 0.0
O277 O 0.83943 0.9235 0.51106 0.0
O278 O 0.87615 0.91476 0.48631 0.0
O279 O 0.86234 0.92654 0.49492 0.0
Co280 Co 0.84378 0.11691 0.24555 0.0
O281 O 0.83297 0.12217 0.23285 0.0
O282 O 0.83175 0.1043 0.24257 0.0
C283 C 0.84395 0.13472 0.25586 0.0
O284 O 0.853 0.1087 0.25948 0.0
Co285 Co 0.86898 0.12951 0.24869 0.0
O286 O 0.86928 0.1202 0.26435 0.0
C287 C 0.8653 0.11194 0.22858 0.0
C288 C 0.82752 0.11172 0.23426 0.0
C289 C 0.86214 0.11122 0.26643 0.0
O290 O 0.85483 0.10913 0.23306 0.0
O291 O 0.87195 0.12058 0.23286 0.0
O292 O 0.83508 0.12699 0.25753 0.0
O293 O 0.85159 0.13191 0.24734 0.0
Co294 Co 0.36495 0.58865 0.49505 0.0
O295 O 0.3777 0.58515 0.48356 0.0
O296 O 0.37362 0.60355 0.49116 0.0
C297 C 0.36889 0.57311 0.50787 0.0
O298 O 0.35295 0.59568 0.50738 0.0
Co299 Co 0.34377 0.57027 0.499 0.0
O300 O 0.34065 0.58048 0.51374 0.0
C301 C 0.34379 0.58606 0.4771 0.0
C302 C 0.38045 0.5967 0.48424 0.0
C303 C 0.34478 0.59136 0.51464 0.0
O304 O 0.35323 0.59163 0.48128 0.0
O305 O 0.33904 0.57672 0.48237 0.0
O306 O 0.37519 0.58316 0.50841 0.0
O307 O 0.3613 0.57226 0.49883 0.0
Co308 Co 0.15102 0.61727 0.2492 0.0
O309 O 0.15889 0.62432 0.26315 0.0
O310 O 0.16413 0.60665 0.25455 0.0
C311 C 0.1503 0.63482 0.23847 0.0
O312 O 0.14536 0.60746 0.23437 0.0
Co313 Co 0.1255 0.62619 0.24072 0.0
O314 O 0.13012 0.61776 0.22527 0.0
C315 C 0.12773 0.6099 0.26228 0.0
C316 C 0.16608 0.6149 0.26294 0.0
C317 C 0.13813 0.60931 0.22528 0.0
O318 O 0.13918 0.60848 0.26018 0.0
O319 O 0.12093 0.61713 0.25606 0.0
O320 O 0.16016 0.62821 0.23835 0.0
O321 O 0.14172 0.63103 0.24556 0.0
Co322 Co 0.34426 0.37871 0.74928 0.0
O323 O 0.33649 0.37024 0.76248 0.0
O324 O 0.33077 0.38838 0.75528 0.0
C325 C 0.3457 0.36228 0.73694 0.0
O326 O 0.34966 0.38995 0.73551 0.0
Co327 Co 0.37023 0.37161 0.74064 0.0
O328 O 0.36638 0.38233 0.72644 0.0
C329 C 0.36704 0.38576 0.76348 0.0
C330 C 0.329 0.37943 0.76295 0.0
C331 C 0.35765 0.39002 0.7269 0.0
O332 O 0.35564 0.38704 0.7611 0.0
O333 O 0.37419 0.37912 0.757 0.0
O334 O 0.33562 0.3685 0.73741 0.0
O335 O 0.3541 0.36562 0.7445 0.0
Co336 Co 0.00076 0.86682 0.59333 0.0
O337 O 0.01133 0.88064 0.59116 0.0
O338 O 0.0057 0.87297 0.60912 0.0
C339 C 0.98638 0.87259 0.57993 0.0
O340 O 0.98956 0.85329 0.59931 0.0
Co341 Co 0.99564 0.84846 0.57233 0.0
O342 O 0.98164 0.84379 0.58288 0.0
C343 C 0.01865 0.8466 0.58603 0.0
C344 C 0.01161 0.88132 0.60305 0.0
C345 C 0.98178 0.84603 0.59434 0.0
O346 O 0.015 0.85531 0.59306 0.0
O347 O 0.01255 0.84282 0.57677 0.0
O348 O 0.98671 0.87722 0.59089 0.0
O349 O 0.99551 0.86567 0.57694 0.0
Co350 Co 0.87995 0.25102 0.34544 0.0
O351 O 0.86904 0.26459 0.34328 0.0
O352 O 0.87487 0.25694 0.36122 0.0
C353 C 0.87141 0.23847 0.33166 0.0
O354 O 0.89047 0.237 0.35146 0.0
Co355 Co 0.89695 0.242 0.32472 0.0
O356 O 0.89893 0.22735 0.3354 0.0
C357 C 0.90323 0.26447 0.33825 0.0
C358 C 0.86834 0.26482 0.35518 0.0
C359 C 0.89638 0.22798 0.34678 0.0
O360 O 0.89421 0.26246 0.34547 0.0
O361 O 0.90556 0.25778 0.32889 0.0
O362 O 0.86679 0.23955 0.34258 0.0
O363 O 0.88021 0.24591 0.32902 0.0
Co364 Co 0.49333 0.12892 0.09265 0.0
O365 O 0.48277 0.11505 0.09063 0.0
O366 O 0.48859 0.12276 0.10852 0.0
C367 C 0.5076 0.12321 0.07912 0.0
O368 O 0.50457 0.14253 0.09841 0.0
Co369 Co 0.49801 0.14715 0.07138 0.0
O370 O 0.51197 0.15218 0.08181 0.0
C371 C 0.47528 0.14907 0.08551 0.0
C372 C 0.48266 0.11437 0.10253 0.0
C373 C 0.51209 0.14995 0.09328 0.0
O374 O 0.47906 0.1404 0.09253 0.0
O375 O 0.48119 0.15276 0.07609 0.0
O376 O 0.50739 0.11856 0.09007 0.0
O377 O 0.49838 0.13003 0.07621 0.0
Co378 Co 0.61554 0.73881 0.8412 0.0
O379 O 0.62697 0.72581 0.83876 0.0
O380 O 0.62152 0.73332 0.85687 0.0
C381 C 0.62314 0.75155 0.82708 0.0
O382 O 0.60454 0.75245 0.84731 0.0
Co383 Co 0.59755 0.74641 0.82076 0.0
O384 O 0.59539 0.76122 0.83112 0.0
C385 C 0.59261 0.72418 0.83517 0.0
C386 C 0.62827 0.7258 0.8506 0.0
C387 C 0.5982 0.76108 0.84245 0.0
O388 O 0.60186 0.72673 0.84189 0.0
O389 O 0.58957 0.73053 0.82577 0.0
O390 O 0.62807 0.75078 0.83787 0.0
O391 O 0.6146 0.74369 0.82471 0.0
Co392 Co 0.00144 0.13133 0.90454 0.0
O393 O 0.01376 0.11906 0.90707 0.0
O394 O 0.00641 0.1247 0.88897 0.0
C395 C 0.9884 0.12498 0.91898 0.0
O396 O 0.98853 0.14302 0.89816 0.0
Co397 Co 0.99501 0.15048 0.92449 0.0
O398 O 0.98105 0.15432 0.91361 0.0
C399 C 0.01745 0.15352 0.91012 0.0
C400 C 0.01371 0.11773 0.89522 0.0
C401 C 0.98082 0.15074 0.90249 0.0
O402 O 0.01434 0.14433 0.90346 0.0
O403 O 0.01133 0.15714 0.91943 0.0
O404 O 0.9888 0.11958 0.90838 0.0
O405 O 0.99676 0.1331 0.92102 0.0
Co406 Co 0.61631 0.25622 0.65549 0.0
O407 O 0.62821 0.26891 0.65781 0.0
O408 O 0.62216 0.26162 0.6398 0.0
C409 C 0.62361 0.24312 0.66944 0.0
O410 O 0.60493 0.24305 0.64925 0.0
Co411 Co 0.59817 0.24857 0.67572 0.0
O412 O 0.59487 0.23431 0.66486 0.0
C413 C 0.59379 0.2713 0.66187 0.0
C414 C 0.6292 0.26896 0.64593 0.0
C415 C 0.59794 0.23469 0.6536 0.0
O416 O 0.60297 0.2687 0.65506 0.0
O417 O 0.59064 0.26479 0.67112 0.0
O418 O 0.62849 0.24384 0.65862 0.0
O419 O 0.6153 0.25118 0.67194 0.0
Co420 Co 0.49271 0.86719 0.40406 0.0
O421 O 0.48268 0.88151 0.40552 0.0
O422 O 0.48815 0.87284 0.38796 0.0
C423 C 0.50722 0.873 0.41731 0.0
O424 O 0.50345 0.85299 0.39882 0.0
Co425 Co 0.49693 0.84967 0.42599 0.0
O426 O 0.51063 0.84369 0.41571 0.0
C427 C 0.47395 0.84812 0.41218 0.0
C428 C 0.48258 0.88172 0.3936 0.0
C429 C 0.51075 0.8455 0.40417 0.0
O430 O 0.47804 0.85623 0.4047 0.0
O431 O 0.47978 0.8447 0.42176 0.0
O432 O 0.50713 0.87715 0.40615 0.0
O433 O 0.49781 0.8666 0.42053 0.0
Co434 Co 0.88245 0.73834 0.15746 0.0
O435 O 0.86921 0.7272 0.15986 0.0
O436 O 0.87691 0.73239 0.14178 0.0
C437 C 0.87556 0.75308 0.1699 0.0
O438 O 0.89554 0.7499 0.15129 0.0
Co439 Co 0.89968 0.74544 0.17866 0.0
O440 O 0.90429 0.75905 0.16749 0.0
C441 C 0.90323 0.72185 0.16609 0.0
C442 C 0.86872 0.72643 0.14799 0.0
C443 C 0.9024 0.7582 0.15599 0.0
O444 O 0.89448 0.72461 0.15878 0.0
O445 O 0.90649 0.72867 0.17506 0.0
O446 O 0.87148 0.75209 0.15878 0.0
O447 O 0.88272 0.74441 0.17363 0.0
Co448 Co 0.58951 -0.00095 0.86484 0.0
O449 O 0.58728 0.01092 0.87761 0.0
O450 O 0.60514 0.00371 0.87139 0.0
C451 C 0.57519 0.98588 0.87113 0.0
O452 O 0.59542 0.9865 0.8524 0.0
Co453 Co 0.56893 0.99371 0.84611 0.0
O454 O 0.57977 0.98024 0.84068 0.0
C455 C 0.58327 0.01635 0.84384 0.0
C456 C 0.59905 0.01078 0.87876 0.0
C457 C 0.59085 0.97954 0.84406 0.0
O458 O 0.59037 0.01255 0.85239 0.0
O459 O 0.57368 0.01058 0.84048 0.0
O460 O 0.58589 0.98589 0.87617 0.0
O461 O 0.57306 0.99461 0.86338 0.0
Co462 Co 0.74506 0.84418 0.61416 0.0
O463 O 0.73434 0.84182 0.62784 0.0
O464 O 0.73975 0.85988 0.62021 0.0
C465 C 0.75979 0.83123 0.61981 0.0
O466 O 0.75619 0.85024 0.60061 0.0
Co467 Co 0.75019 0.82311 0.59593 0.0
O468 O 0.76399 0.83381 0.591 0.0
C469 C 0.72708 0.83648 0.59409 0.0
C470 C 0.73362 0.8537 0.62831 0.0
C471 C 0.76388 0.84528 0.59324 0.0
O472 O 0.73084 0.84361 0.60265 0.0
O473 O 0.73318 0.82721 0.59032 0.0
O474 O 0.75917 0.84215 0.62451 0.0
O475 O 0.75061 0.82789 0.61312 0.0
Co476 Co 0.90996 0.99662 0.36239 0.0
O477 O 0.91143 0.98379 0.37425 0.0
O478 O 0.89396 0.99188 0.36808 0.0
C479 C 0.92436 0.00876 0.37046 0.0
O480 O 0.905 0.01039 0.35074 0.0
Co481 Co 0.93166 0.00309 0.34527 0.0
O482 O 0.92216 0.01834 0.34278 0.0
C483 C 0.91679 0.98117 0.34016 0.0
C484 C 0.89967 0.98429 0.37526 0.0
C485 C 0.91075 0.0188 0.34482 0.0
O486 O 0.9094 0.98418 0.3488 0.0
O487 O 0.92656 0.98711 0.33774 0.0
O488 O 0.91342 0.00871 0.37496 0.0
O489 O 0.92655 0.00067 0.36208 0.0
Co490 Co 0.75212 0.15008 0.1179 0.0
O491 O 0.76379 0.151 0.13104 0.0
O492 O 0.75633 0.13382 0.12316 0.0
C493 C 0.73887 0.16409 0.12482 0.0
O494 O 0.73979 0.14526 0.10492 0.0
Co495 Co 0.74721 0.17197 0.10049 0.0
O496 O 0.73275 0.16219 0.09558 0.0
C497 C 0.7693 0.15714 0.09698 0.0
C498 C 0.76332 0.13909 0.13118 0.0
C499 C 0.73226 0.15072 0.09774 0.0
O500 O 0.7656 0.14989 0.10549 0.0
O501 O 0.76364 0.16695 0.09399 0.0
O502 O 0.73891 0.15304 0.12925 0.0
O503 O 0.7478 0.16675 0.11752 0.0
Co504 Co 0.58706 0.99612 0.63261 0.0
O505 O 0.58487 0.98418 0.61996 0.0
O506 O 0.60277 0.99101 0.62641 0.0
C507 C 0.57319 0.00944 0.62558 0.0
O508 O 0.59272 0.00888 0.64505 0.0
Co509 Co 0.56583 0.00217 0.65043 0.0
O510 O 0.57585 0.01696 0.65352 0.0
C511 C 0.57974 0.97935 0.65371 0.0
C512 C 0.59663 0.98414 0.61887 0.0
C513 C 0.58726 0.01718 0.65139 0.0
O514 O 0.58719 0.98277 0.64529 0.0
O515 O 0.57024 0.98545 0.65671 0.0
O516 O 0.58407 0.00916 0.62094 0.0
O517 O 0.57067 0.00089 0.6334 0.0
Co518 Co 0.75216 0.8418 0.38243 0.0
O519 O 0.76428 0.83949 0.36995 0.0
O520 O 0.75731 0.8575 0.37631 0.0
C521 C 0.73882 0.82781 0.37572 0.0
O522 O 0.7395 0.84794 0.39453 0.0
Co523 Co 0.74566 0.82138 0.40099 0.0
O524 O 0.73115 0.83179 0.40412 0.0
C525 C 0.76824 0.83544 0.40439 0.0
C526 C 0.76444 0.85137 0.36905 0.0
C527 C 0.73127 0.84313 0.40138 0.0
O528 O 0.76522 0.84223 0.39526 0.0
O529 O 0.76194 0.82625 0.40799 0.0
O530 O 0.73933 0.83861 0.37072 0.0
O531 O 0.74724 0.82534 0.38367 0.0
Co532 Co 0.90402 0.00075 0.13254 0.0
O533 O 0.9078 0.01029 0.11825 0.0
O534 O 0.88923 0.00721 0.12564 0.0
C535 C 0.91565 0.98452 0.12796 0.0
O536 O 0.89641 0.99097 0.1464 0.0
Co537 Co 0.92382 0.99418 0.1517 0.0
O538 O 0.91115 0.98302 0.15828 0.0
C539 C 0.91334 0.01899 0.15162 0.0
C540 C 0.89613 0.01193 0.11718 0.0
C541 C 0.90001 0.98394 0.15515 0.0
O542 O 0.90575 0.01562 0.1433 0.0
O543 O 0.92184 0.01204 0.15565 0.0
O544 O 0.90499 0.98584 0.12297 0.0
O545 O 0.91949 0.99367 0.13445 0.0
Co546 Co 0.74257 0.15345 0.8799 0.0
O547 O 0.73166 0.15552 0.86629 0.0
O548 O 0.7376 0.13764 0.87387 0.0
C549 C 0.75664 0.16695 0.87363 0.0
O550 O 0.75418 0.14747 0.8931 0.0
Co551 Co 0.74846 0.17434 0.89814 0.0
O552 O 0.76266 0.16384 0.90218 0.0
C553 C 0.7254 0.16075 0.90068 0.0
C554 C 0.73154 0.14363 0.86558 0.0
C555 C 0.76235 0.15239 0.89997 0.0
O556 O 0.7286 0.15374 0.89177 0.0
O557 O 0.73181 0.16984 0.90438 0.0
O558 O 0.75631 0.15596 0.86909 0.0
O559 O 0.74777 0.16986 0.88091 0.0
Co560 Co 0.86479 0.59192 0.0054 0.0
O561 O 0.87575 0.58907 0.01878 0.0
O562 O 0.86933 0.60734 0.01258 0.0
C563 C 0.87389 0.5794 0.99195 0.0
O564 O 0.8541 0.59861 0.9918 0.0
Co565 Co 0.84859 0.57133 0.99473 0.0
O566 O 0.84668 0.58291 0.9808 0.0
C567 C 0.8415 0.5832 0.0179 0.0
C568 C 0.87608 0.60092 0.01997 0.0
C569 C 0.84866 0.59431 0.9823 0.0
O570 O 0.85051 0.59062 0.01674 0.0
O571 O 0.83937 0.57444 0.01039 0.0
O572 O 0.8781 0.59037 0.99382 0.0
O573 O 0.86512 0.57594 -0.00091 0.0
Co574 Co 0.36623 0.90102 0.99167 0.0
O575 O 0.37957 0.90359 0.98066 0.0
O576 O 0.37235 0.88542 0.9862 0.0
C577 C 0.37253 0.91411 0.00614 0.0
O578 O 0.35321 0.89467 0.00319 0.0
Co579 Co 0.34812 0.92169 -0.00195 0.0
O580 O 0.34388 0.91073 0.01197 0.0
C581 C 0.34573 0.9088 0.97446 0.0
C582 C 0.38044 0.89172 0.98022 0.0
C583 C 0.34618 0.8993 0.01138 0.0
O584 O 0.35442 0.90163 0.9777 0.0
O585 O 0.34212 0.91785 0.98101 0.0
O586 O 0.37701 0.90313 0.00551 0.0
O587 O 0.36526 0.91728 0.99732 0.0
Co588 Co 0.83764 0.61012 0.74207 0.0
O589 O 0.83462 0.62328 0.73087 0.0
O590 O 0.85291 0.616 0.73551 0.0
C591 C 0.82563 0.6168 0.75727 0.0
O592 O 0.84421 0.59708 0.75368 0.0
Co593 Co 0.81646 0.59269 0.74928 0.0
O594 O 0.82819 0.58729 0.762 0.0
C595 C 0.82781 0.59021 0.72506 0.0
C596 C 0.84635 0.62397 0.72959 0.0
C597 C 0.83957 0.58959 0.76151 0.0
O598 O 0.83604 0.59792 0.72834 0.0
O599 O 0.81859 0.58757 0.73173 0.0
O600 O 0.83648 0.62129 0.75582 0.0
O601 O 0.82187 0.60958 0.74864 0.0
Co602 Co 0.12982 0.09279 0.49172 0.0
O603 O 0.11772 0.09049 0.47923 0.0
O604 O 0.12555 0.1084 0.4848 0.0
C605 C 0.12119 0.08081 0.50594 0.0
O606 O 0.14184 0.09904 0.50438 0.0
Co607 Co 0.14579 0.07155 0.50148 0.0
O608 O 0.14942 0.08317 0.51501 0.0
C609 C 0.15179 0.08291 0.47775 0.0
C610 C 0.11793 0.10234 0.478 0.0
C611 C 0.14786 0.09463 0.51347 0.0
O612 O 0.14312 0.09066 0.47932 0.0
O613 O 0.15417 0.07424 0.48528 0.0
O614 O 0.11738 0.09197 0.50431 0.0
O615 O 0.12922 0.07689 0.49819 0.0
Co616 Co 0.15479 0.88258 0.74566 0.0
O617 O 0.15928 0.87008 0.73419 0.0
O618 O 0.14029 0.8754 0.7387 0.0
C619 C 0.16719 0.8768 0.7609 0.0
O620 O 0.14678 0.89466 0.75736 0.0
Co621 Co 0.17401 0.90192 0.75345 0.0
O622 O 0.16128 0.90686 0.76536 0.0
C623 C 0.16271 0.90373 0.72916 0.0
C624 C 0.1477 0.86836 0.73261 0.0
C625 C 0.15029 0.90312 0.76479 0.0
O626 O 0.15529 0.89517 0.73225 0.0
O627 O 0.17162 0.90712 0.73592 0.0
O628 O 0.15686 0.87129 0.75918 0.0
O629 O 0.17035 0.88456 0.7525 0.0
Co630 Co 0.63251 0.40032 0.50393 0.0
O631 O 0.62078 0.40395 0.51647 0.0
O632 O 0.62677 0.38529 0.511 0.0
C633 C 0.62504 0.41291 0.48962 0.0
O634 O 0.64376 0.39277 0.49127 0.0
Co635 Co 0.65051 0.41969 0.49402 0.0
O636 O 0.65298 0.40767 0.48056 0.0
C637 C 0.65501 0.40847 0.51811 0.0
C638 C 0.61986 0.39214 0.51781 0.0
C639 C 0.65017 0.39645 0.48213 0.0
O640 O 0.64592 0.40128 0.51632 0.0
O641 O 0.65817 0.41687 0.51057 0.0
O642 O 0.62017 0.40221 0.49141 0.0
O643 O 0.63345 0.41614 0.49729 0.0
Co644 Co 0.83955 0.38423 0.7541 0.0
O645 O 0.83562 0.37077 0.76474 0.0
O646 O 0.85426 0.37776 0.76112 0.0
C647 C 0.82804 0.37866 0.73812 0.0
O648 O 0.8473 0.39731 0.74339 0.0
Co649 Co 0.81982 0.40302 0.74613 0.0
O650 O 0.8328 0.40946 0.73527 0.0
C651 C 0.82975 0.40412 0.7711 0.0
C652 C 0.84727 0.36986 0.7666 0.0
C653 C 0.84383 0.40601 0.73626 0.0
O654 O 0.83767 0.39596 0.76818 0.0
O655 O 0.82126 0.40765 0.76388 0.0
O656 O 0.83862 0.37363 0.7399 0.0
O657 O 0.82417 0.38577 0.74679 0.0
Co658 Co 0.65574 0.61448 0.25036 0.0
O659 O 0.65943 0.62803 0.26088 0.0
O660 O 0.6408 0.62166 0.25629 0.0
C661 C 0.6684 0.61959 0.23509 0.0
O662 O 0.64844 0.60131 0.23942 0.0
Co663 Co 0.67565 0.59525 0.24434 0.0
O664 O 0.66348 0.58924 0.23232 0.0
C665 C 0.66357 0.59452 0.26835 0.0
C666 C 0.64775 0.62954 0.26187 0.0
C667 C 0.65236 0.59262 0.23251 0.0
O668 O 0.65624 0.60295 0.26469 0.0
O669 O 0.6726 0.59077 0.26196 0.0
O670 O 0.65782 0.62478 0.23609 0.0
O671 O 0.67158 0.61255 0.24411 0.0
Co672 Co 0.48965 0.63512 0.91016 0.0
O673 O 0.4779 0.62248 0.91348 0.0
O674 O 0.4828 0.62941 0.89499 0.0
C675 C 0.50469 0.62815 0.92219 0.0
O676 O 0.50155 0.64739 0.90295 0.0
Co677 Co 0.4986 0.65294 0.93043 0.0
O678 O 0.51168 0.65648 0.91837 0.0
C679 C 0.47471 0.65708 0.9189 0.0
C680 C 0.47657 0.62179 0.90165 0.0
C681 C 0.51029 0.65409 0.90702 0.0
O682 O 0.47672 0.64807 0.91158 0.0
O683 O 0.48201 0.66015 0.92753 0.0
O684 O 0.50278 0.62334 0.91147 0.0
O685 O 0.49652 0.63586 0.92591 0.0
Co686 Co 0.61596 0.24343 0.1568 0.0
O687 O 0.62753 0.23073 0.16037 0.0
O688 O 0.62394 0.23843 0.14189 0.0
C689 C 0.62122 0.25622 0.17197 0.0
O690 O 0.60519 0.25675 0.14961 0.0
Co691 Co 0.59541 0.24991 0.1752 0.0
O692 O 0.59331 0.26449 0.1645 0.0
C693 C 0.59316 0.22774 0.15999 0.0
C694 C 0.63008 0.23089 0.14874 0.0
C695 C 0.59757 0.26476 0.15363 0.0
O696 O 0.60288 0.23087 0.15424 0.0
O697 O 0.58904 0.23365 0.16925 0.0
O698 O 0.62751 0.25582 0.1619 0.0
O699 O 0.61284 0.24796 0.17313 0.0
Co700 Co 0.00368 0.36043 0.4081 0.0
O701 O 0.01286 0.37478 0.41222 0.0
O702 O 0.00917 0.3683 0.39329 0.0
C703 C 0.98783 0.36379 0.42052 0.0
O704 O 0.99409 0.34651 0.40035 0.0
Co705 Co -0.00089 0.34029 0.42761 0.0
O706 O 0.98643 0.33512 0.4157 0.0
C707 C 0.02294 0.34153 0.41548 0.0
C708 C 0.01392 0.37651 0.40049 0.0
C709 C 0.98683 0.3382 0.40443 0.0
O710 O 0.01882 0.35019 0.40866 0.0
O711 O 0.01673 0.33666 0.42415 0.0
O712 O 0.98867 0.36941 0.41006 0.0
O713 O 0.99735 0.3576 0.42386 0.0
Co714 Co 0.88187 0.74945 0.65509 0.0
O715 O 0.86935 0.76061 0.66015 0.0
O716 O 0.8736 0.75582 0.64086 0.0
C717 C 0.87748 0.73451 0.66844 0.0
O718 O 0.89358 0.73797 0.64636 0.0
Co719 Co 0.90282 0.74224 0.67265 0.0
O720 O 0.90545 0.72894 0.6605 0.0
C721 C 0.90357 0.76619 0.66031 0.0
C722 C 0.86684 0.76184 0.64858 0.0
C723 C 0.90138 0.7298 0.64959 0.0
O724 O 0.89396 0.76317 0.65431 0.0
O725 O 0.90826 0.75942 0.66866 0.0
O726 O 0.87126 0.7357 0.65838 0.0
O727 O 0.88526 0.74312 0.67076 0.0
Co728 Co 0.49212 0.36251 0.58779 0.0
O729 O 0.48134 0.37581 0.58404 0.0
O730 O 0.4854 0.36891 0.60276 0.0
C731 C 0.50762 0.36823 0.57582 0.0
O732 O 0.50311 0.34955 0.59527 0.0
Co733 Co 0.49951 0.34376 0.56779 0.0
O734 O 0.51244 0.33962 0.57985 0.0
C735 C 0.47529 0.34198 0.579 0.0
C736 C 0.47973 0.37674 0.59581 0.0
C737 C 0.51137 0.34228 0.59118 0.0
O738 O 0.47833 0.35057 0.58644 0.0
O739 O 0.48218 0.3383 0.57027 0.0
O740 O 0.50601 0.37331 0.58646 0.0
O741 O 0.49898 0.36103 0.57212 0.0
Co742 Co 0.88192 0.24372 0.84133 0.0
O743 O 0.86947 0.23254 0.8361 0.0
O744 O 0.87422 0.23651 0.85547 0.0
C745 C 0.87674 0.2593 0.82903 0.0
O746 O 0.8937 0.25503 0.85026 0.0
Co747 Co 0.90203 0.25248 0.82344 0.0
O748 O 0.90444 0.26534 0.83608 0.0
C749 C 0.90385 0.22793 0.83445 0.0
C750 C 0.8673 0.23078 0.84767 0.0
C751 C 0.90093 0.26375 0.8471 0.0
O752 O 0.89431 0.2302 0.84086 0.0
O753 O 0.9082 0.23539 0.82651 0.0
O754 O 0.87091 0.25738 0.8392 0.0
O755 O 0.88459 0.25099 0.82594 0.0
Co756 Co 0.00309 0.63572 0.08678 0.0
O757 O 0.01211 0.62134 0.08235 0.0
O758 O 0.01014 0.62859 0.10127 0.0
C759 C 0.98618 0.63166 0.07621 0.0
O760 O 0.99401 0.64972 0.09498 0.0
Co761 Co 0.99591 0.65515 0.06743 0.0
O762 O 0.98368 0.65949 0.08014 0.0
C763 C 0.02084 0.65505 0.07715 0.0
C764 C 0.01433 0.62015 0.094 0.0
C765 C 0.98551 0.65698 0.0914 0.0
O766 O 0.01789 0.64618 0.0843 0.0
O767 O 0.01353 0.65978 0.06933 0.0
O768 O 0.98811 0.62651 0.08676 0.0
O769 O 0.99519 0.63783 0.07162 0.0
Co770 Co 0.61434 0.75236 0.33854 0.0
O771 O 0.6259 0.76506 0.33504 0.0
O772 O 0.6227 0.75694 0.35341 0.0
C773 C 0.61934 0.74004 0.3229 0.0
O774 O 0.60364 0.73886 0.34556 0.0
Co775 Co 0.59349 0.74643 0.32027 0.0
O776 O 0.59202 0.73133 0.33034 0.0
C777 C 0.59151 0.76813 0.33623 0.0
C778 C 0.62882 0.76452 0.34657 0.0
C779 C 0.59627 0.7308 0.3412 0.0
O780 O 0.60136 0.76488 0.3417 0.0
O781 O 0.58722 0.76247 0.32689 0.0
O782 O 0.62577 0.7401 0.33289 0.0
O783 O 0.61093 0.74832 0.32215 0.0
Co784 Co 0.8963 0.49812 0.62761 0.0
O785 O 0.90046 0.51269 0.61878 0.0
O786 O 0.90877 0.50701 0.63642 0.0
C787 C 0.89646 0.48581 0.6111 0.0
O788 O 0.89457 0.48364 0.63921 0.0
Co789 Co 0.87243 0.48402 0.62225 0.0
O790 O 0.87999 0.47095 0.63235 0.0
C791 C 0.87157 0.50721 0.63616 0.0
C792 C 0.90811 0.51497 0.62755 0.0
C793 C 0.88869 0.47345 0.63966 0.0
O794 O 0.88327 0.50736 0.6366 0.0
O795 O 0.8655 0.49912 0.63025 0.0
O796 O 0.90657 0.48833 0.61677 0.0
O797 O 0.88686 0.49132 0.61512 0.0
Co798 Co 0.75565 0.65691 0.88385 0.0
O799 O 0.76668 0.66011 0.87058 0.0
O800 O 0.761 0.64163 0.87691 0.0
C801 C 0.74123 0.67032 0.87854 0.0
O802 O 0.74417 0.64996 0.89668 0.0
Co803 Co 0.75003 0.67678 0.9033 0.0
O804 O 0.73722 0.66514 0.9087 0.0
C805 C 0.77332 0.66367 0.90441 0.0
C806 C 0.76724 0.64828 0.86928 0.0
C807 C 0.73712 0.65401 0.90517 0.0
O808 O 0.76958 0.65674 0.89567 0.0
O809 O 0.76719 0.6728 0.90845 0.0
O810 O 0.7419 0.6597 0.87322 0.0
O811 O 0.75011 0.6731 0.88585 0.0
Co812 Co 0.59506 0.49871 0.12746 0.0
O813 O 0.58934 0.48451 0.11898 0.0
O814 O 0.58146 0.49165 0.13628 0.0
C815 C 0.59679 0.51062 0.11079 0.0
O816 O 0.59842 0.5133 0.13856 0.0
Co817 Co 0.62085 0.50898 0.12205 0.0
O818 O 0.6148 0.52336 0.13138 0.0
C819 C 0.61822 0.48656 0.13683 0.0
C820 C 0.58142 0.48333 0.12772 0.0
C821 C 0.60567 0.52257 0.13856 0.0
O822 O 0.60664 0.48816 0.13703 0.0
O823 O 0.6255 0.49341 0.13073 0.0
O824 O 0.58628 0.50942 0.11615 0.0
O825 O 0.60547 0.50388 0.11504 0.0
Co826 Co 0.74292 0.33762 0.38403 0.0
O827 O 0.73297 0.33363 0.37016 0.0
O828 O 0.73686 0.35249 0.3767 0.0
C829 C 0.75864 0.32536 0.37954 0.0
O830 O 0.7532 0.34526 0.39752 0.0
Co831 Co 0.74891 0.3178 0.40353 0.0
O832 O 0.76144 0.32994 0.40853 0.0
C833 C 0.72483 0.32952 0.40374 0.0
C834 C 0.73172 0.34537 0.36865 0.0
C835 C 0.76075 0.34122 0.40558 0.0
O836 O 0.72841 0.33675 0.39517 0.0
O837 O 0.73136 0.32071 0.40787 0.0
O838 O 0.75745 0.3359 0.37416 0.0
O839 O 0.74952 0.32191 0.38624 0.0
Co840 Co 0.89885 0.49724 0.86773 0.0
O841 O 0.90414 0.48279 0.87601 0.0
O842 O 0.9117 0.48938 0.85836 0.0
C843 C 0.89855 0.50911 0.88453 0.0
O844 O 0.89567 0.51203 0.85681 0.0
Co845 Co 0.87387 0.5087 0.87462 0.0
O846 O 0.88043 0.52289 0.86531 0.0
C847 C 0.87471 0.48604 0.86 0.0
C848 C 0.91167 0.48114 0.86701 0.0
C849 C 0.88902 0.52171 0.85753 0.0
O850 O 0.88627 0.48739 0.85873 0.0
O851 O 0.86819 0.49299 0.86682 0.0
O852 O 0.90871 0.50745 0.87863 0.0
O853 O 0.88937 0.50288 0.88064 0.0
Co854 Co 0.74336 0.65824 0.11054 0.0
O855 O 0.73236 0.66193 0.12374 0.0
O856 O 0.73851 0.64328 0.11844 0.0
C857 C 0.7574 0.6724 0.11491 0.0
O858 O 0.75482 0.65073 0.09806 0.0
Co859 Co 0.74851 0.67683 0.08978 0.0
O860 O 0.76114 0.66491 0.08457 0.0
C861 C 0.7254 0.66328 0.08979 0.0
C862 C 0.73215 0.65019 0.12573 0.0
C863 C 0.76148 0.6541 0.08899 0.0
O864 O 0.72933 0.65695 0.09889 0.0
O865 O 0.73133 0.67229 0.0852 0.0
O866 O 0.75712 0.66208 0.12084 0.0
O867 O 0.74844 0.67443 0.10746 0.0
Co868 Co 0.59652 0.49769 0.36705 0.0
O869 O 0.58954 0.51163 0.37498 0.0
O870 O 0.58279 0.50357 0.35758 0.0
C871 C 0.59824 0.48642 0.38416 0.0
O872 O 0.6011 0.48296 0.35655 0.0
Co873 Co 0.62247 0.48864 0.37376 0.0
O874 O 0.61657 0.47331 0.36597 0.0
C875 C 0.61947 0.5104 0.35794 0.0
C876 C 0.58166 0.51181 0.36613 0.0
C877 C 0.60804 0.47358 0.35805 0.0
O878 O 0.6079 0.50863 0.35764 0.0
O879 O 0.62679 0.50384 0.36432 0.0
O880 O 0.58792 0.48679 0.37832 0.0
O881 O 0.60671 0.49347 0.38001 0.0
Co882 Co 0.75444 0.33947 0.61373 0.0
O883 O 0.76655 0.33633 0.62603 0.0
O884 O 0.75937 0.35469 0.62102 0.0
C885 C 0.74105 0.32505 0.61914 0.0
O886 O 0.74175 0.34632 0.60207 0.0
Co887 Co 0.74883 0.32028 0.5936 0.0
O888 O 0.73491 0.33126 0.58984 0.0
C889 C 0.77101 0.33509 0.59162 0.0
C890 C 0.76652 0.34811 0.62784 0.0
C891 C 0.73437 0.3422 0.59392 0.0
O892 O 0.76744 0.34118 0.60101 0.0
O893 O 0.76528 0.32573 0.58749 0.0
O894 O 0.74166 0.33534 0.62509 0.0
O895 O 0.74962 0.32312 0.6112 0.0
Co896 Co 0.63041 0.90762 0.49552 0.0
O897 O 0.618 0.91124 0.48365 0.0
O898 O 0.62234 0.89269 0.49076 0.0
C899 C 0.62576 0.92249 0.50889 0.0
O900 O 0.6421 0.90034 0.50798 0.0
Co901 Co 0.65111 0.92612 0.50099 0.0
O902 O 0.65388 0.91543 0.51547 0.0
C903 C 0.6521 0.91138 0.47841 0.0
C904 C 0.61566 0.89956 0.48373 0.0
C905 C 0.6499 0.90446 0.51574 0.0
O906 O 0.64266 0.90548 0.48207 0.0
O907 O 0.65656 0.92053 0.48426 0.0
O908 O 0.61961 0.91233 0.50872 0.0
O909 O 0.6336 0.92392 0.50013 0.0
Co910 Co 0.13342 0.58905 0.50197 0.0
O911 O 0.11985 0.58558 0.51248 0.0
O912 O 0.12675 0.6042 0.50814 0.0
C913 C 0.12832 0.57677 0.48642 0.0
O914 O 0.14674 0.5962 0.49115 0.0
Co915 Co 0.15218 0.56884 0.49565 0.0
O916 O 0.15632 0.58036 0.48219 0.0
C917 C 0.15351 0.58095 0.51964 0.0
C918 C 0.11887 0.59737 0.51383 0.0
C919 C 0.15389 0.59175 0.48293 0.0
O920 O 0.14474 0.58802 0.51636 0.0
O921 O 0.15764 0.57229 0.51292 0.0
O922 O 0.1233 0.58748 0.48757 0.0
O923 O 0.13501 0.57315 0.49552 0.0
Co924 Co 0.64748 0.87733 0.74606 0.0
O925 O 0.65306 0.86977 0.73132 0.0
O926 O 0.66099 0.88663 0.73939 0.0
C927 C 0.64604 0.8599 0.75687 0.0
O928 O 0.64414 0.88742 0.76138 0.0
Co929 Co 0.62179 0.87087 0.75607 0.0
O930 O 0.62768 0.87966 0.77088 0.0
C931 C 0.62417 0.88679 0.73444 0.0
C932 C 0.661 0.87853 0.73061 0.0
C933 C 0.6368 0.88689 0.77057 0.0
O934 O 0.6357 0.88747 0.73633 0.0
O935 O 0.6171 0.87981 0.74064 0.0
O936 O 0.65648 0.86545 0.75592 0.0
O937 O 0.63725 0.86449 0.75052 0.0
Co938 Co 0.36578 0.40718 0.00175 0.0
O939 O 0.37799 0.41063 0.01382 0.0
O940 O 0.37377 0.39215 0.00647 0.0
C941 C 0.37085 0.42219 0.98874 0.0
O942 O 0.35427 0.4002 0.98892 0.0
Co943 Co 0.34538 0.42602 0.99624 0.0
O944 O 0.34305 0.41572 0.98141 0.0
C945 C 0.34385 0.41091 0.01853 0.0
C946 C 0.38045 0.39899 0.01356 0.0
C947 C 0.34685 0.40469 0.98097 0.0
O948 O 0.35329 0.40496 0.01494 0.0
O949 O 0.33959 0.4202 0.01277 0.0
O950 O 0.37688 0.41195 0.98885 0.0
O951 O 0.36284 0.42356 0.99734 0.0
Co952 Co 0.34838 0.61714 0.74695 0.0
O953 O 0.34349 0.62557 0.73241 0.0
O954 O 0.33482 0.60865 0.73953 0.0
C955 C 0.35019 0.63391 0.75864 0.0
O956 O 0.3507 0.60616 0.76182 0.0
Co957 Co 0.37378 0.62175 0.75853 0.0
O958 O 0.36671 0.61288 0.77272 0.0
C959 C 0.37175 0.60745 0.73571 0.0
C960 C 0.33533 0.61708 0.7311 0.0
C961 C 0.35737 0.60605 0.77152 0.0
O962 O 0.36012 0.60717 0.73697 0.0
O963 O 0.37882 0.61342 0.74289 0.0
O964 O 0.33956 0.62888 0.75713 0.0
O965 O 0.359 0.62922 0.75239 0.0
Co966 Co 0.8631 0.08831 0.99317 0.0
O967 O 0.87634 0.08424 0.98248 0.0
O968 O 0.87131 0.10312 0.9881 0.0
C969 C 0.86699 0.07445 0.00777 0.0
O970 O 0.85043 0.09588 0.00447 0.0
Co971 Co 0.84259 0.06939 0.99797 0.0
O972 O 0.83925 0.08039 0.0121 0.0
C973 C 0.84249 0.08338 0.97493 0.0
C974 C 0.8786 0.09591 0.98207 0.0
C975 C 0.84271 0.09154 0.0122 0.0
O976 O 0.85174 0.08946 0.9788 0.0
O977 O 0.83781 0.07443 0.98089 0.0
O978 O 0.87297 0.08471 0.0074 0.0
O979 O 0.86002 0.07222 -0.00155 0.0
Co980 Co 0.65211 0.11786 0.7502 0.0
O981 O 0.66217 0.12437 0.76291 0.0
O982 O 0.66564 0.10683 0.75317 0.0
C983 C 0.65002 0.13565 0.74007 0.0
O984 O 0.64391 0.10868 0.73622 0.0
Co985 Co 0.62568 0.12763 0.74702 0.0
O986 O 0.62665 0.11859 0.73125 0.0
C987 C 0.63131 0.11052 0.76711 0.0
C988 C 0.66897 0.11478 0.76141 0.0
C989 C 0.63464 0.11036 0.72919 0.0
O990 O 0.64201 0.10882 0.76263 0.0
O991 O 0.6238 0.11843 0.76285 0.0
O992 O 0.65965 0.12893 0.73833 0.0
O993 O 0.64268 0.13191 0.74848 0.0
Co994 Co 0.84619 0.87974 0.2483 0.0
O995 O 0.8425 0.87178 0.26344 0.0
O996 O 0.83262 0.88792 0.25612 0.0
C997 C 0.84811 0.86248 0.23728 0.0
O998 O 0.8474 0.8901 0.23285 0.0
Co999 Co 0.87138 0.87538 0.23601 0.0
O1000 O 0.86368 0.88397 0.22195 0.0
C1001 C 0.86957 0.89099 0.25793 0.0
C1002 C 0.83396 0.87987 0.26483 0.0
C1003 C 0.85406 0.8904 0.22314 0.0
O1004 O 0.85791 0.89084 0.25701 0.0
O1005 O 0.8766 0.88452 0.25115 0.0
O1006 O 0.83737 0.86709 0.23923 0.0
O1007 O 0.85701 0.86782 0.24284 0.0
Co1008 Co 0.50079 0.36406 0.09415 0.0
O1009 O 0.51319 0.37624 0.09185 0.0
O1010 O 0.50508 0.37108 0.10977 0.0
C1011 C 0.48841 0.37003 0.07898 0.0
O1012 O 0.48761 0.3525 0.10014 0.0
Co1013 Co 0.49559 0.34446 0.07428 0.0
O1014 O 0.48126 0.34052 0.08466 0.0
C1015 C 0.51761 0.34235 0.0894 0.0
C1016 C 0.51266 0.37788 0.10365 0.0
C1017 C 0.48031 0.34448 0.09562 0.0
O1018 O 0.51362 0.35112 0.09616 0.0
O1019 O 0.51225 0.33888 0.07957 0.0
O1020 O 0.48833 0.37569 0.08946 0.0
O1021 O 0.49688 0.36191 0.07753 0.0
Co1022 Co 0.38127 0.75506 0.84426 0.0
O1023 O 0.36856 0.7664 0.8403 0.0
O1024 O 0.37457 0.76173 0.85916 0.0
C1025 C 0.37509 0.74006 0.83173 0.0
O1026 O 0.39353 0.74345 0.85197 0.0
Co1027 Co 0.40006 0.74691 0.82474 0.0
O1028 O 0.40514 0.73485 0.83734 0.0
C1029 C 0.40262 0.77111 0.83632 0.0
C1030 C 0.36713 0.76768 0.85205 0.0
C1031 C 0.40169 0.73576 0.84846 0.0
O1032 O 0.39364 0.76855 0.84343 0.0
O1033 O 0.40627 0.76399 0.82775 0.0
O1034 O 0.37007 0.74151 0.8424 0.0
O1035 O 0.38282 0.74841 0.82844 0.0
Co1036 Co 0.99472 0.63073 0.59059 0.0
O1037 O 0.98314 0.61794 0.58737 0.0
O1038 O 0.98875 0.62426 0.60587 0.0
C1039 C 0.00927 0.6248 0.57749 0.0
O1040 O 0.00657 0.64316 0.59759 0.0
Co1041 Co 0.00138 0.64966 0.57047 0.0
O1042 O 0.01383 0.65512 0.58248 0.0
C1043 C 0.97796 0.65189 0.5832 0.0
C1044 C 0.98219 0.61693 0.59921 0.0
C1045 C 0.01373 0.65159 0.59362 0.0
O1046 O 0.98129 0.64321 0.59042 0.0
O1047 O 0.98429 0.65533 0.57396 0.0
O1048 O 0.00814 0.61951 0.5881 0.0
O1049 O 0.00064 0.63233 0.57452 0.0
Co1050 Co 0.11358 0.24169 0.34356 0.0
O1051 O 0.1239 0.22785 0.34056 0.0
O1052 O 0.11815 0.23439 0.35894 0.0
C1053 C 0.12309 0.25474 0.33089 0.0
O1054 O 0.10362 0.25579 0.3504 0.0
Co1055 Co 0.09771 0.25326 0.32309 0.0
O1056 O 0.09654 0.26717 0.33479 0.0
C1057 C 0.08977 0.23028 0.33488 0.0
C1058 C 0.12456 0.2268 0.35241 0.0
C1059 C 0.09858 0.26555 0.34617 0.0
O1060 O 0.09873 0.23103 0.34243 0.0
O1061 O 0.08811 0.23785 0.32606 0.0
O1062 O 0.1274 0.25266 0.34178 0.0
O1063 O 0.11397 0.24799 0.32759 0.0
Co1064 Co 0.50143 0.63019 0.40367 0.0
O1065 O 0.51249 0.61686 0.40651 0.0
O1066 O 0.50559 0.62259 0.38828 0.0
C1067 C 0.48814 0.62542 0.41849 0.0
O1068 O 0.48959 0.64282 0.39706 0.0
Co1069 Co 0.49701 0.65044 0.42298 0.0
O1070 O 0.48266 0.65438 0.41259 0.0
C1071 C 0.51939 0.65109 0.40813 0.0
C1072 C 0.51209 0.61503 0.39474 0.0
C1073 C 0.48219 0.65079 0.40148 0.0
O1074 O 0.51539 0.64191 0.40195 0.0
O1075 O 0.51377 0.65551 0.41743 0.0
O1076 O 0.48784 0.61979 0.40801 0.0
O1077 O 0.49718 0.63285 0.42018 0.0
Co1078 Co 0.11702 0.75042 0.14707 0.0
O1079 O 0.12859 0.76345 0.14896 0.0
O1080 O 0.1227 0.75543 0.13119 0.0
C1081 C 0.1246 0.73794 0.16143 0.0
O1082 O 0.10592 0.73677 0.14135 0.0
Co1083 Co 0.09905 0.74346 0.16767 0.0
O1084 O 0.09513 0.72918 0.15707 0.0
C1085 C 0.09465 0.76577 0.15332 0.0
C1086 C 0.12948 0.76322 0.13708 0.0
C1087 C 0.09855 0.72886 0.14591 0.0
O1088 O 0.10347 0.76264 0.14626 0.0
O1089 O 0.0918 0.75978 0.163 0.0
O1090 O 0.12946 0.7384 0.15059 0.0
O1091 O 0.11616 0.74595 0.16368 0.0
Co1092 Co 0.99453 0.36417 0.90343 0.0
O1093 O 0.9822 0.37644 0.90584 0.0
O1094 O 0.9888 0.36988 0.88775 0.0
C1095 C 0.00824 0.37135 0.91687 0.0
O1096 O 0.00729 0.35224 0.89721 0.0
Co1097 Co 0.00186 0.34626 0.92421 0.0
O1098 O 0.01608 0.34307 0.9134 0.0
C1099 C 0.97885 0.34228 0.91101 0.0
C1100 C 0.98171 0.37713 0.89394 0.0
C1101 C 0.01573 0.34563 0.902 0.0
O1102 O 0.98177 0.35098 0.90362 0.0
O1103 O 0.98527 0.3394 0.92039 0.0
O1104 O 0.00723 0.37622 0.90604 0.0
O1105 O -2e-05 0.36339 0.91973 0.0
Co1106 Co 0.38093 0.24389 0.64956 0.0
O1107 O 0.36969 0.23093 0.65327 0.0
O1108 O 0.37545 0.2365 0.63457 0.0
C1109 C 0.37281 0.25795 0.66211 0.0
O1110 O 0.39168 0.25688 0.64191 0.0
Co1111 Co 0.39834 0.25493 0.66893 0.0
O1112 O 0.40077 0.26807 0.65654 0.0
C1113 C 0.40408 0.23094 0.65786 0.0
C1114 C 0.36875 0.22952 0.64147 0.0
C1115 C 0.398 0.26617 0.64536 0.0
O1116 O 0.39495 0.23214 0.65059 0.0
O1117 O 0.40664 0.23869 0.66631 0.0
O1118 O 0.36807 0.25594 0.65139 0.0
O1119 O 0.38154 0.25068 0.66535 0.0
Co1120 Co 0.08638 0.50123 0.36343 0.0
O1121 O 0.0835 0.51306 0.37606 0.0
O1122 O 0.1017 0.50623 0.37052 0.0
C1123 C 0.07202 0.4879 0.36928 0.0
O1124 O 0.09275 0.48865 0.35126 0.0
Co1125 Co 0.06629 0.49587 0.34412 0.0
O1126 O 0.07703 0.48186 0.33992 0.0
C1127 C 0.08034 0.5187 0.34253 0.0
C1128 C 0.0952 0.51315 0.3777 0.0
C1129 C 0.08811 0.48123 0.34335 0.0
O1130 O 0.08751 0.51466 0.35091 0.0
O1131 O 0.07067 0.51307 0.33919 0.0
O1132 O 0.08254 0.48807 0.37471 0.0
O1133 O 0.07006 0.4966 0.36147 0.0
Co1134 Co 0.24454 0.34187 0.11604 0.0
O1135 O 0.23265 0.33973 0.12878 0.0
O1136 O 0.23946 0.35765 0.12201 0.0
C1137 C 0.25819 0.32807 0.12258 0.0
O1138 O 0.25694 0.34781 0.1036 0.0
Co1139 Co 0.2505 0.32103 0.09769 0.0
O1140 O 0.26474 0.33154 0.09372 0.0
C1141 C 0.22797 0.33518 0.09449 0.0
C1142 C 0.23246 0.35163 0.12948 0.0
C1143 C 0.26481 0.34291 0.0964 0.0
O1144 O 0.23131 0.34214 0.10338 0.0
O1145 O 0.23402 0.32573 0.0911 0.0
O1146 O 0.25762 0.33888 0.12755 0.0
O1147 O 0.24953 0.32543 0.11495 0.0
Co1148 Co 0.40525 0.49517 0.86235 0.0
O1149 O 0.40972 0.48496 0.87592 0.0
O1150 O 0.3908 0.4882 0.86954 0.0
C1151 C 0.41678 0.51133 0.86744 0.0
O1152 O 0.39709 0.50553 0.84924 0.0
Co1153 Co 0.42444 0.50264 0.84296 0.0
O1154 O 0.41147 0.5138 0.83711 0.0
C1155 C 0.41401 0.47787 0.84213 0.0
C1156 C 0.39813 0.48313 0.87741 0.0
C1157 C 0.40043 0.51277 0.84056 0.0
O1158 O 0.40676 0.48086 0.85087 0.0
O1159 O 0.42231 0.48501 0.83802 0.0
O1160 O 0.4063 0.50954 0.87263 0.0
O1161 O 0.42062 0.5026 0.86036 0.0
Co1162 Co 0.24928 0.65309 0.6158 0.0
O1163 O 0.26159 0.65582 0.62802 0.0
O1164 O 0.2542 0.63765 0.62266 0.0
C1165 C 0.23604 0.66753 0.62164 0.0
O1166 O 0.23641 0.64659 0.60418 0.0
Co1167 Co 0.24354 0.67271 0.59614 0.0
O1168 O 0.22957 0.66184 0.59218 0.0
C1169 C 0.26575 0.65803 0.5937 0.0
C1170 C 0.26156 0.64399 0.62948 0.0
C1171 C 0.22899 0.65086 0.59613 0.0
O1172 O 0.26217 0.6516 0.60287 0.0
O1173 O 0.26004 0.66754 0.58994 0.0
O1174 O 0.23661 0.65712 0.6274 0.0
O1175 O 0.24457 0.66952 0.61367 0.0
Co1176 Co 0.08659 0.49523 0.13385 0.0
O1177 O 0.08344 0.48329 0.12141 0.0
O1178 O 0.10183 0.48951 0.127 0.0
C1179 C 0.07284 0.50897 0.12748 0.0
O1180 O 0.09314 0.50788 0.14592 0.0
Co1181 Co 0.06618 0.50145 0.15258 0.0
O1182 O 0.07723 0.51523 0.15663 0.0
C1183 C 0.07954 0.47827 0.1549 0.0
C1184 C 0.09513 0.48275 0.11984 0.0
C1185 C 0.08842 0.51558 0.1535 0.0
O1186 O 0.08703 0.48197 0.14664 0.0
O1187 O 0.06996 0.48424 0.1579 0.0
O1188 O 0.08343 0.50831 0.12225 0.0
O1189 O 0.07043 0.50047 0.13538 0.0
Co1190 Co 0.25024 0.34222 0.88186 0.0
O1191 O 0.26101 0.33944 0.86829 0.0
O1192 O 0.25409 0.35762 0.87415 0.0
C1193 C 0.23696 0.3273 0.8774 0.0
O1194 O 0.23859 0.34877 0.89471 0.0
Co1195 Co 0.24651 0.32293 0.90225 0.0
O1196 O 0.23276 0.3336 0.90731 0.0
C1197 C 0.26882 0.33782 0.90222 0.0
C1198 C 0.26046 0.35119 0.86643 0.0
C1199 C 0.23185 0.34456 0.90337 0.0
O1200 O 0.26445 0.34408 0.89327 0.0
O1201 O 0.26345 0.32841 0.9067 0.0
O1202 O 0.23647 0.33777 0.87178 0.0
O1203 O 0.24617 0.32568 0.88464 0.0
Co1204 Co 0.40518 0.50156 0.63349 0.0
O1205 O 0.40889 0.50979 0.61845 0.0
O1206 O 0.39036 0.50778 0.62629 0.0
C1207 C 0.41615 0.48467 0.6301 0.0
O1208 O 0.39786 0.4931 0.64834 0.0
Co1209 Co 0.42567 0.49651 0.65235 0.0
O1210 O 0.41311 0.48605 0.66017 0.0
C1211 C 0.4155 0.5213 0.65048 0.0
C1212 C 0.39726 0.51165 0.6174 0.0
C1213 C 0.40185 0.48674 0.65742 0.0
O1214 O 0.40751 0.51722 0.6429 0.0
O1215 O 0.42419 0.5147 0.65469 0.0
O1216 O 0.40541 0.48587 0.62529 0.0
O1217 O 0.42057 0.49428 0.63546 0.0
Co1218 Co 0.24502 0.65442 0.37909 0.0
O1219 O 0.23362 0.65606 0.36587 0.0
O1220 O 0.2409 0.63843 0.37284 0.0
C1221 C 0.25802 0.66896 0.37283 0.0
O1222 O 0.25729 0.64903 0.39192 0.0
Co1223 Co 0.24965 0.67543 0.3976 0.0
O1224 O 0.2643 0.66563 0.40184 0.0
C1225 C 0.2277 0.66015 0.40027 0.0
C1226 C 0.23417 0.64419 0.36492 0.0
C1227 C 0.26486 0.65426 0.39922 0.0
O1228 O 0.23142 0.65346 0.39133 0.0
O1229 O 0.23331 0.66982 0.40383 0.0
O1230 O 0.25829 0.65808 0.36801 0.0
O1231 O 0.24912 0.67112 0.38032 0.0
Co1232 Co 0.36634 0.09455 0.50321 0.0
O1233 O 0.37893 0.0919 0.51506 0.0
O1234 O 0.37248 0.11011 0.50873 0.0
C1235 C 0.37311 0.08107 0.48936 0.0
O1236 O 0.35422 0.10098 0.49077 0.0
Co1237 Co 0.34808 0.07419 0.49637 0.0
O1238 O 0.3436 0.08536 0.48273 0.0
C1239 C 0.34493 0.08746 0.51958 0.0
C1240 C 0.38003 0.10375 0.51534 0.0
C1241 C 0.34669 0.09661 0.48289 0.0
O1242 O 0.35374 0.09453 0.51646 0.0
O1243 O 0.34157 0.07823 0.51316 0.0
O1244 O 0.37782 0.09195 0.49009 0.0
O1245 O 0.3653 0.0782 0.4978 0.0
Co1246 Co 0.86788 0.40153 0.49081 0.0
O1247 O 0.87935 0.40207 0.47753 0.0
O1248 O 0.87195 0.38511 0.486 0.0
C1249 C 0.87701 0.41534 0.50291 0.0
O1250 O 0.85647 0.39708 0.50468 0.0
Co1251 Co 0.85209 0.42384 0.49806 0.0
O1252 O 0.84801 0.41394 0.51281 0.0
C1253 C 0.84542 0.40936 0.47631 0.0
C1254 C 0.87915 0.39016 0.47802 0.0
C1255 C 0.85002 0.40244 0.5129 0.0
O1256 O 0.85401 0.40182 0.4789 0.0
O1257 O 0.84347 0.4192 0.48241 0.0
O1258 O 0.88085 0.40409 0.50255 0.0
O1259 O 0.86863 0.41821 0.49505 0.0
Co1260 Co 0.33615 0.11372 0.24721 0.0
O1261 O 0.33362 0.12648 0.23549 0.0
O1262 O 0.35167 0.12069 0.24248 0.0
C1263 C 0.3217 0.11965 0.2604 0.0
O1264 O 0.34199 0.10123 0.25981 0.0
Co1265 Co 0.31538 0.09485 0.25155 0.0
O1266 O 0.32577 0.09003 0.26561 0.0
C1267 C 0.33001 0.09336 0.22911 0.0
C1268 C 0.34532 0.128 0.23553 0.0
C1269 C 0.33689 0.0932 0.26679 0.0
O1270 O 0.33732 0.10136 0.23361 0.0
O1271 O 0.32004 0.09024 0.23433 0.0
O1272 O 0.3323 0.12491 0.26046 0.0
O1273 O 0.31973 0.11205 0.25152 0.0
Co1274 Co 0.63031 0.59418 0.98976 0.0
O1275 O 0.61938 0.59166 0.97627 0.0
O1276 O 0.62544 0.6098 0.9832 0.0
C1277 C 0.62144 0.58108 0.00284 0.0
O1278 O 0.64095 0.60051 0.00362 0.0
Co1279 Co 0.64676 0.57334 -0.00031 0.0
O1280 O 0.64871 0.5845 0.01394 0.0
C1281 C 0.65375 0.58626 0.97702 0.0
C1282 C 0.61876 0.60354 0.97561 0.0
C1283 C 0.64657 0.59592 0.01289 0.0
O1284 O 0.64464 0.59352 0.97837 0.0
O1285 O 0.65593 0.57723 0.9842 0.0
O1286 O 0.61703 0.59201 0.00129 0.0
O1287 O 0.63021 0.57799 0.99553 0.0
Co1288 Co 0.6575 0.382 0.24451 0.0
O1289 O 0.66049 0.36947 0.2326 0.0
O1290 O 0.64227 0.37453 0.23975 0.0
C1291 C 0.67208 0.37632 0.25772 0.0
O1292 O 0.65103 0.39395 0.25727 0.0
Co1293 Co 0.6773 0.4016 0.24986 0.0
O1294 O 0.66673 0.40524 0.26415 0.0
C1295 C 0.66288 0.40325 0.22721 0.0
C1296 C 0.64885 0.36744 0.23281 0.0
C1297 C 0.6557 0.40169 0.26484 0.0
O1298 O 0.656 0.39457 0.23113 0.0
O1299 O 0.67247 0.40679 0.23287 0.0
O1300 O 0.66166 0.37072 0.25758 0.0
O1301 O 0.67385 0.38421 0.24904 0.0
Co1302 Co 0.1303 0.90534 0.00741 0.0
O1303 O 0.11832 0.90767 0.01995 0.0
O1304 O 0.1234 0.88973 0.01184 0.0
C1305 C 0.12383 0.92037 0.99507 0.0
O1306 O 0.14169 0.89939 0.99403 0.0
Co1307 Co 0.14938 0.92539 0.00166 0.0
O1308 O 0.15319 0.91499 0.98723 0.0
C1309 C 0.15269 0.90978 0.02338 0.0
C1310 C 0.11649 0.89592 0.01927 0.0
C1311 C 0.14949 0.90394 0.98651 0.0
O1312 O 0.14337 0.90348 0.02007 0.0
O1313 O 0.15621 0.91943 0.01772 0.0
O1314 O 0.11849 0.90976 0.99506 0.0
O1315 O 0.1321 0.92201 0.00339 0.0
Co1316 Co 0.33578 0.88316 0.25142 0.0
O1317 O 0.33393 0.87013 0.263 0.0
O1318 O 0.35161 0.8767 0.25571 0.0
C1319 C 0.32139 0.87675 0.2384 0.0
O1320 O 0.34108 0.89596 0.2389 0.0
Co1321 Co 0.31447 0.90137 0.24706 0.0
O1322 O 0.3245 0.90643 0.23285 0.0
C1323 C 0.32933 0.90355 0.26937 0.0
C1324 C 0.34568 0.86898 0.26256 0.0
C1325 C 0.33574 0.90371 0.2318 0.0
O1326 O 0.3366 0.89535 0.26517 0.0
O1327 O 0.31949 0.90674 0.26393 0.0
O1328 O 0.33221 0.87199 0.23812 0.0
O1329 O 0.31922 0.88427 0.24732 0.0
Co1330 Co 0.15708 0.11296 0.75149 0.0
O1331 O 0.15949 0.12542 0.7636 0.0
O1332 O 0.14149 0.11853 0.75747 0.0
C1333 C 0.16993 0.12046 0.73742 0.0
O1334 O 0.15113 0.10069 0.73875 0.0
Co1335 Co 0.17859 0.0959 0.74416 0.0
O1336 O 0.16756 0.09159 0.73045 0.0
C1337 C 0.16567 0.09159 0.76737 0.0
C1338 C 0.14771 0.12616 0.76417 0.0
C1339 C 0.15616 0.09382 0.73059 0.0
O1340 O 0.1579 0.09993 0.76451 0.0
O1341 O 0.17505 0.08911 0.76086 0.0
O1342 O 0.15905 0.12495 0.73855 0.0
O1343 O 0.17318 0.11271 0.74579 0.0
C1344 C 0.01702 0.17966 0.39396 0.0
C1345 C 0.01267 0.16768 0.39215 0.0
C1346 C 0.02368 0.18554 0.38481 0.0
C1347 C 0.04419 0.17903 0.35963 0.0
H1348 H 0.04016 0.21367 0.35276 0.0
C1349 C 0.06871 0.22187 0.33214 0.0
C1350 C 0.08046 0.22076 0.33715 0.0
C1351 C 0.05942 0.21395 0.33583 0.0
C1352 C 0.04128 0.20394 0.35438 0.0
H1353 H 0.01173 0.15258 0.37922 0.0
H1354 H 0.02354 0.16287 0.36328 0.0
H1355 H 0.02504 0.203 0.36519 0.0
H1356 H 0.0919 0.20987 0.34918 0.0
H1357 H 0.0757 0.19609 0.35558 0.0
H1358 H 0.0607 0.18009 0.34921 0.0
C1359 C 0.02172 0.16767 0.37178 0.0
C1360 C 0.03269 0.19788 0.36159 0.0
C1361 C 0.01493 0.16181 0.38089 0.0
C1362 C 0.08292 0.21105 0.34524 0.0
C1363 C 0.07366 0.20308 0.34883 0.0
C1364 C 0.05284 0.18512 0.35248 0.0
C1365 C 0.02623 0.17955 0.37371 0.0
C1366 C 0.03426 0.18546 0.36457 0.0
C1367 C 0.06174 0.2047 0.34447 0.0
C1368 C 0.05163 0.19771 0.35008 0.0
H1369 H 0.01541 0.18444 0.40251 0.0
H1370 H 0.02719 0.19464 0.3866 0.0
H1371 H 0.04564 0.16946 0.36183 0.0
H1372 H 0.06653 0.22923 0.32585 0.0
H1373 H 0.05032 0.21532 0.33225 0.0
C1374 C 0.03708 0.84455 0.59929 0.0
C1375 C 0.02986 0.83997 0.58968 0.0
C1376 C 0.04625 0.83738 0.60443 0.0
C1377 C 0.0653 0.80988 0.60132 0.0
H1378 H 0.06007 0.80726 0.63638 0.0
C1379 C 0.08718 0.77191 0.63145 0.0
C1380 C 0.08983 0.77479 0.64372 0.0
C1381 C 0.08133 0.78046 0.62392 0.0
C1382 C 0.06188 0.80804 0.62666 0.0
H1383 H 0.02737 0.82466 0.57721 0.0
H1384 H 0.04349 0.81211 0.58626 0.0
H1385 H 0.04786 0.8214 0.62447 0.0
H1386 H 0.08925 0.78909 0.65749 0.0
H1387 H 0.07956 0.80414 0.64429 0.0
H1388 H 0.07942 0.79652 0.60356 0.0
C1389 C 0.04195 0.82126 0.5898 0.0
C1390 C 0.05482 0.81613 0.61982 0.0
C1391 C 0.03271 0.82844 0.58465 0.0
C1392 C 0.08711 0.78655 0.64813 0.0
C1393 C 0.08149 0.79515 0.64057 0.0
C1394 C 0.07252 0.80185 0.60822 0.0
C1395 C 0.04846 0.82549 0.60005 0.0
C1396 C 0.05644 0.81714 0.6071 0.0
C1397 C 0.0782 0.79212 0.62847 0.0
C1398 C 0.07088 0.80083 0.62099 0.0
H1399 H 0.03529 0.85347 0.60327 0.0
H1400 H 0.05129 0.84094 0.61219 0.0
H1401 H 0.0667 0.81051 0.59151 0.0
H1402 H 0.08918 0.76289 0.62782 0.0
H1403 H 0.07886 0.77776 0.61469 0.0
C1404 C 0.42229 0.78259 0.83676 0.0
C1405 C 0.40973 0.78222 0.83915 0.0
C1406 C 0.4295 0.79181 0.84188 0.0
C1407 C 0.44325 0.81345 0.85255 0.0
H1408 H 0.43441 0.81849 0.88661 0.0
C1409 C 0.47371 0.84045 0.88649 0.0
C1410 C 0.47527 0.83496 0.89806 0.0
C1411 C 0.46493 0.83605 0.87834 0.0
C1412 C 0.43701 0.81717 0.87712 0.0
H1413 H 0.39465 0.79192 0.84752 0.0
H1414 H 0.40715 0.80825 0.85608 0.0
H1415 H 0.42053 0.8077 0.87311 0.0
H1416 H 0.46874 0.82056 0.91013 0.0
H1417 H 0.4536 0.81282 0.89588 0.0
H1418 H 0.4601 0.82232 0.85687 0.0
C1419 C 0.41152 0.80118 0.85068 0.0
C1420 C 0.42896 0.81116 0.8693 0.0
C1421 C 0.40435 0.79186 0.84572 0.0
C1422 C 0.46778 0.82504 0.90132 0.0
C1423 C 0.45902 0.82065 0.89317 0.0
C1424 C 0.45135 0.81944 0.86042 0.0
C1425 C 0.42425 0.80091 0.84934 0.0
C1426 C 0.43208 0.80896 0.85699 0.0
C1427 C 0.45751 0.82609 0.88158 0.0
C1428 C 0.44843 0.82107 0.87287 0.0
H1429 H 0.42669 0.77527 0.83172 0.0
H1430 H 0.43927 0.79126 0.8407 0.0
H1431 H 0.44587 0.81203 0.84309 0.0
H1432 H 0.47929 0.84814 0.88369 0.0
H1433 H 0.4639 0.84049 0.86951 0.0
C1434 C 0.45749 0.15172 0.09953 0.0
C1435 C 0.46429 0.1559 0.08943 0.0
C1436 C 0.44875 0.15922 0.10495 0.0
C1437 C 0.43003 0.1869 0.10228 0.0
H1438 H 0.43784 0.19067 0.13675 0.0
C1439 C 0.4096 0.22536 0.13292 0.0
C1440 C 0.40759 0.22257 0.14533 0.0
C1441 C 0.41533 0.21687 0.12522 0.0
C1442 C 0.43533 0.18959 0.12721 0.0
H1443 H 0.46637 0.1708 0.0764 0.0
H1444 H 0.45098 0.18391 0.08594 0.0
H1445 H 0.4491 0.17606 0.12444 0.0
H1446 H 0.40925 0.20849 0.15925 0.0
H1447 H 0.41878 0.19356 0.14582 0.0
H1448 H 0.41612 0.20039 0.10512 0.0
C1449 C 0.45254 0.17483 0.08964 0.0
C1450 C 0.44183 0.18123 0.12015 0.0
C1451 C 0.46136 0.16733 0.08421 0.0
C1452 C 0.41093 0.21098 0.14978 0.0
C1453 C 0.41644 0.20245 0.14207 0.0
C1454 C 0.42336 0.1952 0.10942 0.0
C1455 C 0.44655 0.17103 0.10036 0.0
C1456 C 0.43924 0.17977 0.10764 0.0
C1457 C 0.41899 0.20537 0.12977 0.0
C1458 C 0.42592 0.1966 0.122 0.0
H1459 H 0.45934 0.1429 0.10368 0.0
H1460 H 0.44409 0.15601 0.11309 0.0
H1461 H 0.42791 0.18594 0.09263 0.0
H1462 H 0.40709 0.23424 0.12926 0.0
H1463 H 0.41723 0.21947 0.11584 0.0
C1464 C 0.01946 0.83632 0.11011 0.0
C1465 C 0.0214 0.83759 0.09743 0.0
C1466 C 0.02785 0.82999 0.11737 0.0
C1467 C 0.05218 0.8068 0.11401 0.0
H1468 H 0.05913 0.81435 0.14807 0.0
C1469 C 0.09075 0.78336 0.13926 0.0
C1470 C 0.08713 0.77635 0.14946 0.0
C1471 C 0.08304 0.79218 0.13434 0.0
C1472 C 0.05719 0.81217 0.13858 0.0
H1473 H 0.03401 0.83407 0.08257 0.0
H1474 H 0.04889 0.82353 0.09527 0.0
H1475 H 0.04535 0.82762 0.13633 0.0
H1476 H 0.07289 0.77383 0.16304 0.0
H1477 H 0.05935 0.78947 0.15434 0.0
H1478 H 0.06421 0.79157 0.11616 0.0
C1479 C 0.04066 0.82692 0.09956 0.0
C1480 C 0.0493 0.8197 0.13186 0.0
C1481 C 0.03219 0.83304 0.09228 0.0
C1482 C 0.07593 0.77901 0.15514 0.0
C1483 C 0.0682 0.78797 0.15021 0.0
C1484 C 0.06014 0.79944 0.12063 0.0
C1485 C 0.03843 0.82498 0.11212 0.0
C1486 C 0.04678 0.81714 0.11945 0.0
C1487 C 0.07157 0.79429 0.13953 0.0
C1488 C 0.06278 0.80209 0.13292 0.0
H1489 H 0.01119 0.83973 0.11432 0.0
H1490 H 0.02579 0.82861 0.12698 0.0
H1491 H 0.05017 0.80428 0.10462 0.0
H1492 H 0.09939 0.78173 0.13476 0.0
H1493 H 0.08586 0.79707 0.12617 0.0
C1494 C 0.41037 0.78792 0.35034 0.0
C1495 C 0.40522 0.7768 0.35422 0.0
C1496 C 0.41481 0.79632 0.3589 0.0
C1497 C 0.42896 0.79766 0.38859 0.0
H1498 H 0.42294 0.83259 0.3861 0.0
C1499 C 0.45814 0.83182 0.41584 0.0
C1500 C 0.46252 0.84171 0.40883 0.0
C1501 C 0.44846 0.82466 0.41157 0.0
C1502 C 0.42475 0.82286 0.38691 0.0
H1503 H 0.40052 0.76581 0.37012 0.0
H1504 H 0.40864 0.78041 0.38508 0.0
H1505 H 0.41109 0.81835 0.37362 0.0
H1506 H 0.45956 0.85228 0.39222 0.0
H1507 H 0.44308 0.83971 0.38469 0.0
H1508 H 0.44316 0.8021 0.4012 0.0
C1509 C 0.40908 0.78264 0.37541 0.0
C1510 C 0.41792 0.81473 0.3798 0.0
C1511 C 0.40442 0.77432 0.36685 0.0
C1512 C 0.45651 0.8447 0.39785 0.0
C1513 C 0.44693 0.83752 0.39356 0.0
C1514 C 0.43592 0.80579 0.39557 0.0
C1515 C 0.41436 0.79367 0.37149 0.0
C1516 C 0.4202 0.80209 0.38034 0.0
C1517 C 0.44299 0.8272 0.40018 0.0
C1518 C 0.43416 0.81853 0.39453 0.0
H1519 H 0.41104 0.79011 0.34068 0.0
H1520 H 0.41897 0.80471 0.35564 0.0
H1521 H 0.43094 0.78794 0.3891 0.0
H1522 H 0.46248 0.82932 0.4244 0.0
H1523 H 0.44551 0.81691 0.41702 0.0
C1524 C 0.40911 0.21098 0.64781 0.0
C1525 C 0.41256 0.22066 0.65558 0.0
C1526 C 0.41765 0.20233 0.64398 0.0
C1527 C 0.43727 0.18318 0.63927 0.0
H1528 H 0.46549 0.19957 0.62555 0.0
C1529 C 0.47508 0.15864 0.61093 0.0
C1530 C 0.47788 0.1645 0.59979 0.0
C1531 C 0.46765 0.16441 0.6196 0.0
C1532 C 0.45769 0.19485 0.62941 0.0
H1533 H 0.42747 0.22829 0.66618 0.0
H1534 H 0.44242 0.21319 0.65937 0.0
H1535 H 0.45145 0.211 0.63851 0.0
H1536 H 0.47497 0.18096 0.58899 0.0
H1537 H 0.46212 0.19099 0.60413 0.0
H1538 H 0.44336 0.16713 0.6297 0.0
C1539 C 0.43311 0.21239 0.6562 0.0
C1540 C 0.44973 0.20135 0.63694 0.0
C1541 C 0.42453 0.221 0.66013 0.0
C1542 C 0.47301 0.17618 0.59746 0.0
C1543 C 0.46573 0.18198 0.60617 0.0
C1544 C 0.44532 0.17663 0.6318 0.0
C1545 C 0.42983 0.20322 0.64777 0.0
C1546 C 0.43926 0.19568 0.64167 0.0
C1547 C 0.46305 0.17619 0.61735 0.0
C1548 C 0.4554 0.18254 0.62651 0.0
H1549 H 0.39992 0.21037 0.64425 0.0
H1550 H 0.41487 0.19542 0.63742 0.0
H1551 H 0.42929 0.17857 0.64286 0.0
H1552 H 0.47865 0.14962 0.61298 0.0
H1553 H 0.4657 0.15976 0.62816 0.0
C1554 C 0.09166 0.22218 0.86137 0.0
C1555 C 0.0872 0.22416 0.84944 0.0
C1556 C 0.08592 0.21384 0.86921 0.0
C1557 C 0.06469 0.18749 0.86872 0.0
H1558 H 0.05896 0.19582 0.90279 0.0
C1559 C 0.02901 0.17324 0.90876 0.0
C1560 C 0.0282 0.16065 0.90624 0.0
C1561 C 0.03821 0.18032 0.90343 0.0
C1562 C 0.06047 0.19337 0.89329 0.0
H1563 H 0.07309 0.21899 0.83647 0.0
H1564 H 0.06303 0.20471 0.85014 0.0
H1565 H 0.0708 0.20967 0.88987 0.0
H1566 H 0.03697 0.14537 0.8971 0.0
H1567 H 0.05325 0.15759 0.88819 0.0
H1568 H 0.05386 0.17161 0.87182 0.0
C1569 C 0.07112 0.20938 0.85338 0.0
C1570 C 0.06737 0.20124 0.88592 0.0
C1571 C 0.07686 0.21765 0.84555 0.0
C1572 C 0.03725 0.1551 0.89903 0.0
C1573 C 0.04654 0.16213 0.89387 0.0
C1574 C 0.05775 0.1797 0.87603 0.0
C1575 C 0.0756 0.20732 0.86527 0.0
C1576 C 0.06933 0.1985 0.87348 0.0
C1577 C 0.04687 0.17489 0.89562 0.0
C1578 C 0.05538 0.18262 0.88836 0.0
H1579 H 0.09963 0.22703 0.86465 0.0
H1580 H 0.08964 0.2124 0.87829 0.0
H1581 H 0.06621 0.185 0.85923 0.0
H1582 H 0.02215 0.17777 0.91427 0.0
H1583 H 0.0381 0.19013 0.90491 0.0
C1584 C 0.37779 0.03239 0.15 0.0
C1585 C 0.37027 0.0247 0.14295 0.0
C1586 C 0.37269 0.04126 0.15768 0.0
C1587 C 0.34534 0.04681 0.17547 0.0
H1588 H 0.35774 0.07991 0.17874 0.0
C1589 C 0.32521 0.07998 0.21104 0.0
C1590 C 0.33361 0.0871 0.21764 0.0
C1591 C 0.32887 0.07358 0.20057 0.0
C1592 C 0.35424 0.07066 0.17801 0.0
H1593 H 0.35151 0.02059 0.13815 0.0
H1594 H 0.34268 0.03599 0.15165 0.0
H1595 H 0.36595 0.06646 0.16285 0.0
H1596 H 0.35239 0.09329 0.21827 0.0
H1597 H 0.35883 0.08186 0.20034 0.0
H1598 H 0.33402 0.05069 0.19089 0.0
C1599 C 0.3525 0.03511 0.15123 0.0
C1600 C 0.35891 0.063 0.16889 0.0
C1601 C 0.35758 0.02633 0.14348 0.0
C1602 C 0.34567 0.08792 0.21339 0.0
C1603 C 0.34935 0.08142 0.20302 0.0
C1604 C 0.34076 0.0544 0.18467 0.0
C1605 C 0.36 0.04252 0.15854 0.0
C1606 C 0.35457 0.05097 0.16762 0.0
C1607 C 0.34104 0.07406 0.19656 0.0
C1608 C 0.34524 0.06638 0.18614 0.0
H1609 H 0.3876 0.03143 0.14977 0.0
H1610 H 0.37867 0.04682 0.16329 0.0
H1611 H 0.34195 0.0375 0.1748 0.0
H1612 H 0.31583 0.07927 0.21399 0.0
H1613 H 0.32217 0.06818 0.19568 0.0
C1614 C 0.15549 0.09051 0.45658 0.0
C1615 C 0.15999 0.08499 0.46728 0.0
C1616 C 0.16347 0.09497 0.44771 0.0
C1617 C 0.181 0.11361 0.43825 0.0
H1618 H 0.21371 0.10219 0.4313 0.0
C1619 C 0.21835 0.14689 0.42402 0.0
C1620 C 0.2263 0.14347 0.41454 0.0
C1621 C 0.21037 0.13838 0.42911 0.0
C1622 C 0.20455 0.10543 0.43303 0.0
H1623 H 0.17627 0.07892 0.4767 0.0
H1624 H 0.19029 0.08716 0.46146 0.0
H1625 H 0.19922 0.08849 0.44142 0.0
H1626 H 0.23225 0.1283 0.40312 0.0
H1627 H 0.21817 0.11342 0.41201 0.0
H1628 H 0.18624 0.13049 0.42991 0.0
C1629 C 0.1806 0.08782 0.45973 0.0
C1630 C 0.19629 0.09762 0.43891 0.0
C1631 C 0.17258 0.08313 0.46851 0.0
C1632 C 0.22625 0.13124 0.41043 0.0
C1633 C 0.21822 0.1227 0.41553 0.0
C1634 C 0.1892 0.12134 0.43236 0.0
C1635 C 0.17613 0.09429 0.44951 0.0
C1636 C 0.18449 0.10172 0.4418 0.0
C1637 C 0.21008 0.12624 0.42481 0.0
C1638 C 0.20115 0.11747 0.42997 0.0
H1639 H 0.1458 0.09188 0.45533 0.0
H1640 H 0.15972 0.09956 0.43975 0.0
H1641 H 0.17208 0.11719 0.44048 0.0
H1642 H 0.2182 0.15619 0.4275 0.0
H1643 H 0.20439 0.14132 0.43645 0.0
C1644 C 0.11799 0.96573 0.64999 0.0
C1645 C 0.125 0.97484 0.64423 0.0
C1646 C 0.12352 0.95699 0.6575 0.0
C1647 C 0.14952 0.95303 0.67754 0.0
H1648 H 0.14138 0.91849 0.67604 0.0
C1649 C 0.16868 0.91895 0.71295 0.0
C1650 C 0.1603 0.91039 0.71759 0.0
C1651 C 0.16586 0.92586 0.70252 0.0
C1652 C 0.14369 0.92812 0.67664 0.0
H1653 H 0.14336 0.98179 0.64171 0.0
H1654 H 0.15295 0.96662 0.655 0.0
H1655 H 0.1333 0.93247 0.66058 0.0
H1656 H 0.14253 0.90215 0.71469 0.0
H1657 H 0.13751 0.91437 0.69689 0.0
H1658 H 0.15939 0.9489 0.69389 0.0
C1659 C 0.14319 0.96625 0.65363 0.0
C1660 C 0.13909 0.93609 0.66776 0.0
C1661 C 0.13769 0.97489 0.64599 0.0
C1662 C 0.14923 0.90863 0.71137 0.0
C1663 C 0.14637 0.9156 0.70106 0.0
C1664 C 0.15399 0.94509 0.68651 0.0
C1665 C 0.13615 0.95728 0.65951 0.0
C1666 C 0.14182 0.94864 0.66825 0.0
C1667 C 0.15457 0.92442 0.69659 0.0
C1668 C 0.15095 0.93257 0.68629 0.0
H1669 H 0.1082 0.9654 0.64878 0.0
H1670 H 0.11788 0.95022 0.66202 0.0
H1671 H 0.15166 0.9627 0.67817 0.0
H1672 H 0.17734 0.92045 0.71745 0.0
H1673 H 0.17248 0.93242 0.6992 0.0
C1674 C 0.26926 0.86211 0.91032 0.0
C1675 C 0.27187 0.84971 0.90813 0.0
C1676 C 0.27816 0.86985 0.91523 0.0
C1677 C 0.30693 0.86792 0.93287 0.0
H1678 H 0.30822 0.90297 0.92702 0.0
C1679 C 0.34363 0.89657 0.95526 0.0
C1680 C 0.33892 0.90555 0.96321 0.0
C1681 C 0.33633 0.89144 0.94616 0.0
C1682 C 0.30794 0.89319 0.92867 0.0
H1683 H 0.28595 0.83582 0.90851 0.0
H1684 H 0.30164 0.84939 0.91646 0.0
H1685 H 0.29388 0.89028 0.91538 0.0
H1686 H 0.32327 0.91708 0.96699 0.0
H1687 H 0.31049 0.90805 0.95098 0.0
H1688 H 0.32103 0.87079 0.94603 0.0
C1689 C 0.29261 0.85309 0.91496 0.0
C1690 C 0.29971 0.88592 0.92209 0.0
C1691 C 0.28366 0.84531 0.91034 0.0
C1692 C 0.32714 0.91013 0.96108 0.0
C1693 C 0.31983 0.905 0.9519 0.0
C1694 C 0.31525 0.87512 0.93924 0.0
C1695 C 0.2899 0.86538 0.91781 0.0
C1696 C 0.29904 0.87319 0.92418 0.0
C1697 C 0.32421 0.89523 0.94477 0.0
C1698 C 0.3158 0.8878 0.93726 0.0
H1699 H 0.26021 0.86571 0.90869 0.0
H1700 H 0.27566 0.8792 0.91741 0.0
H1701 H 0.30648 0.85825 0.93506 0.0
H1702 H 0.35275 0.89299 0.95648 0.0
H1703 H 0.33996 0.88404 0.94064 0.0
C1704 C 0.38229 0.9678 0.34164 0.0
C1705 C 0.37652 0.97083 0.35273 0.0
C1706 C 0.37699 0.95937 0.33364 0.0
C1707 C 0.35534 0.93421 0.33083 0.0
H1708 H 0.35063 0.94659 0.29781 0.0
C1709 C 0.34181 0.90504 0.28849 0.0
C1710 C 0.33292 0.91006 0.28067 0.0
C1711 C 0.34616 0.91174 0.29847 0.0
C1712 C 0.35181 0.94306 0.30702 0.0
H1713 H 0.36107 0.96682 0.36449 0.0
H1714 H 0.35192 0.95194 0.35052 0.0
H1715 H 0.36102 0.95926 0.31299 0.0
H1716 H 0.32124 0.92579 0.27751 0.0
H1717 H 0.32904 0.93756 0.29486 0.0
H1718 H 0.34626 0.91789 0.32472 0.0
C1719 C 0.36047 0.9562 0.34802 0.0
C1720 C 0.35786 0.95023 0.31564 0.0
C1721 C 0.36568 0.96476 0.35596 0.0
C1722 C 0.32811 0.92168 0.28334 0.0
C1723 C 0.33258 0.92844 0.29322 0.0
C1724 C 0.34944 0.92692 0.32212 0.0
C1725 C 0.36593 0.95369 0.33667 0.0
C1726 C 0.35969 0.94587 0.32761 0.0
C1727 C 0.34181 0.92361 0.30071 0.0
C1728 C 0.34761 0.93133 0.31016 0.0
H1729 H 0.39066 0.97227 0.33889 0.0
H1730 H 0.38141 0.95747 0.32497 0.0
H1731 H 0.35666 0.93068 0.34002 0.0
H1732 H 0.34561 0.89605 0.28673 0.0
H1733 H 0.35331 0.90785 0.3041 0.0
C1734 C 0.28323 0.15103 0.58442 0.0
C1735 C 0.27164 0.14663 0.58753 0.0
C1736 C 0.29178 0.14328 0.57905 0.0
C1737 C 0.2986 0.11054 0.57176 0.0
H1738 H 0.31829 0.12562 0.5464 0.0
C1739 C 0.32605 0.08621 0.53258 0.0
C1740 C 0.33777 0.09099 0.53051 0.0
C1741 C 0.3185 0.0914 0.54153 0.0
C1742 C 0.31293 0.12131 0.55354 0.0
H1743 H 0.25996 0.13063 0.58776 0.0
H1744 H 0.2747 0.11718 0.57781 0.0
H1745 H 0.30395 0.13805 0.55782 0.0
H1746 H 0.35119 0.10408 0.53708 0.0
H1747 H 0.33798 0.11313 0.55249 0.0
H1748 H 0.30738 0.09362 0.56685 0.0
C1749 C 0.27734 0.12652 0.57983 0.0
C1750 C 0.30475 0.12844 0.56016 0.0
C1751 C 0.26885 0.13424 0.58545 0.0
C1752 C 0.34214 0.10032 0.53825 0.0
C1753 C 0.3346 0.10551 0.5471 0.0
C1754 C 0.30669 0.10333 0.56494 0.0
C1755 C 0.28885 0.13101 0.57638 0.0
C1756 C 0.29755 0.12321 0.56944 0.0
C1757 C 0.32258 0.10142 0.54847 0.0
C1758 C 0.31399 0.10872 0.55587 0.0
H1759 H 0.28569 0.16049 0.58615 0.0
H1760 H 0.30067 0.14698 0.57688 0.0
H1761 H 0.29327 0.10622 0.5789 0.0
H1762 H 0.32244 0.07899 0.52682 0.0
H1763 H 0.30923 0.08813 0.54245 0.0
C1764 C 0.11891 0.02104 0.8379 0.0
C1765 C 0.12545 0.0169 0.84817 0.0
C1766 C 0.12408 0.02951 0.82987 0.0
C1767 C 0.14607 0.05407 0.82739 0.0
H1768 H 0.14712 0.04553 0.79286 0.0
C1769 C 0.15487 0.08787 0.78723 0.0
C1770 C 0.16316 0.08393 0.77823 0.0
C1771 C 0.15151 0.08006 0.79678 0.0
C1772 C 0.14695 0.04798 0.80248 0.0
H1773 H 0.14237 0.01868 0.85831 0.0
H1774 H 0.15129 0.03375 0.84433 0.0
H1775 H 0.13831 0.03115 0.80757 0.0
H1776 H 0.17477 0.06889 0.77245 0.0
H1777 H 0.16868 0.05519 0.78904 0.0
H1778 H 0.15445 0.07107 0.8222 0.0
C1779 C 0.14223 0.03029 0.84249 0.0
C1780 C 0.14184 0.03983 0.81085 0.0
C1781 C 0.13715 0.02163 0.85041 0.0
C1782 C 0.16837 0.07221 0.77924 0.0
C1783 C 0.16486 0.06434 0.78868 0.0
C1784 C 0.151 0.06235 0.81896 0.0
C1785 C 0.13578 0.03417 0.83209 0.0
C1786 C 0.14135 0.04281 0.82335 0.0
C1787 C 0.15625 0.06813 0.79739 0.0
C1788 C 0.15148 0.05934 0.80645 0.0
H1789 H 0.10989 0.01756 0.83592 0.0
H1790 H 0.11893 0.03246 0.82193 0.0
H1791 H 0.14573 0.05654 0.837 0.0
H1792 H 0.15077 0.09689 0.78673 0.0
H1793 H 0.14481 0.08314 0.80339 0.0
C1794 C 0.21659 0.8409 0.0811 0.0
C1795 C 0.22779 0.84537 0.08536 0.0
C1796 C 0.20813 0.84882 0.07584 0.0
C1797 C 0.20033 0.88183 0.07189 0.0
H1798 H 0.1818 0.86902 0.04448 0.0
C1799 C 0.17179 0.90976 0.03611 0.0
C1800 C 0.16025 0.90482 0.03347 0.0
C1801 C 0.1797 0.90367 0.04412 0.0
C1802 C 0.18685 0.87268 0.05219 0.0
H1803 H 0.23891 0.86163 0.08759 0.0
H1804 H 0.22433 0.87543 0.07789 0.0
H1805 H 0.19652 0.85595 0.05468 0.0
H1806 H 0.14758 0.8902 0.03803 0.0
H1807 H 0.16143 0.87959 0.05177 0.0
H1808 H 0.19082 0.89878 0.06888 0.0
C1809 C 0.22193 0.86586 0.07891 0.0
C1810 C 0.19524 0.86518 0.0581 0.0
C1811 C 0.23032 0.85795 0.08439 0.0
C1812 C 0.15647 0.89418 0.03968 0.0
C1813 C 0.16438 0.88808 0.04756 0.0
C1814 C 0.19202 0.88942 0.06581 0.0
C1815 C 0.21076 0.86137 0.07448 0.0
C1816 C 0.202 0.86959 0.06812 0.0
C1817 C 0.17618 0.89254 0.04951 0.0
C1818 C 0.18513 0.88482 0.05601 0.0
H1819 H 0.21431 0.83127 0.08194 0.0
H1820 H 0.19949 0.84507 0.07285 0.0
H1821 H 0.20529 0.8855 0.07964 0.0
H1822 H 0.17497 0.91797 0.03154 0.0
H1823 H 0.18879 0.90725 0.04551 0.0
C1824 C 0.21477 0.33415 0.07563 0.0
C1825 C 0.21717 0.33904 0.08733 0.0
C1826 C 0.20582 0.3394 0.06814 0.0
C1827 C 0.19322 0.36941 0.06277 0.0
H1828 H 0.16817 0.35359 0.04335 0.0
C1829 C 0.16003 0.39834 0.03504 0.0
C1830 C 0.15695 0.39434 0.02321 0.0
C1831 C 0.16601 0.39053 0.04315 0.0
C1832 C 0.17522 0.35812 0.04862 0.0
H1833 H 0.21125 0.35252 0.10074 0.0
H1834 H 0.1958 0.36162 0.08767 0.0
H1835 H 0.18098 0.34128 0.05707 0.0
H1836 H 0.15731 0.37892 0.0107 0.0
H1837 H 0.16825 0.36534 0.02474 0.0
H1838 H 0.18797 0.38611 0.05417 0.0
C1839 C 0.20096 0.35388 0.08424 0.0
C1840 C 0.18249 0.35107 0.05648 0.0
C1841 C 0.20982 0.34865 0.09171 0.0
C1842 C 0.1596 0.38222 0.01978 0.0
C1843 C 0.1658 0.37444 0.02784 0.0
C1844 C 0.18611 0.37639 0.05485 0.0
C1845 C 0.19918 0.34961 0.07224 0.0
C1846 C 0.19144 0.35672 0.06373 0.0
C1847 C 0.1693 0.3786 0.03954 0.0
C1848 C 0.17691 0.37089 0.04778 0.0
H1849 H 0.22023 0.32672 0.07201 0.0
H1850 H 0.20459 0.33595 0.05891 0.0
H1851 H 0.20026 0.37395 0.06804 0.0
H1852 H 0.15787 0.40756 0.03802 0.0
H1853 H 0.1682 0.39393 0.05221 0.0
C1854 C 0.66596 0.09735 0.96471 0.0
C1855 C 0.65603 0.10128 0.97182 0.0
C1856 C 0.67126 0.10514 0.95612 0.0
C1857 C 0.6748 0.13771 0.94808 0.0
H1858 H 0.68767 0.1237 0.9181 0.0
C1859 C 0.70515 0.15044 0.9019 0.0
C1860 C 0.7143 0.15743 0.90755 0.0
C1861 C 0.69563 0.14555 0.90881 0.0
C1862 C 0.68394 0.1279 0.92628 0.0
H1863 H 0.64379 0.11651 0.97531 0.0
H1864 H 0.65299 0.13008 0.9601 0.0
H1865 H 0.67541 0.11115 0.93161 0.0
H1866 H 0.72029 0.16539 0.92473 0.0
H1867 H 0.70397 0.15649 0.9369 0.0
H1868 H 0.68328 0.15453 0.94264 0.0
C1869 C 0.65675 0.121 0.96135 0.0
C1870 C 0.67706 0.1206 0.93415 0.0
C1871 C 0.65145 0.11319 0.97002 0.0
C1872 C 0.71334 0.16006 0.92012 0.0
C1873 C 0.70393 0.15498 0.92709 0.0
C1874 C 0.68162 0.14508 0.94013 0.0
C1875 C 0.66673 0.11705 0.95431 0.0
C1876 C 0.67271 0.12531 0.9453 0.0
C1877 C 0.69518 0.14732 0.92158 0.0
C1878 C 0.68653 0.14017 0.92927 0.0
H1879 H 0.66979 0.08827 0.96588 0.0
H1880 H 0.6791 0.10187 0.95105 0.0
H1881 H 0.67161 0.14162 0.95662 0.0
H1882 H 0.70556 0.14842 0.89218 0.0
H1883 H 0.68886 0.14 0.9042 0.0
C1884 C 0.12511 0.3998 0.21765 0.0
C1885 C 0.11802 0.39414 0.22678 0.0
C1886 C 0.11966 0.40719 0.20877 0.0
C1887 C 0.09328 0.42681 0.20424 0.0
H1888 H 0.10311 0.42624 0.1701 0.0
C1889 C 0.07397 0.46155 0.16967 0.0
C1890 C 0.08247 0.46687 0.16164 0.0
C1891 C 0.07707 0.45123 0.17658 0.0
C1892 C 0.10032 0.42656 0.17962 0.0
H1893 H 0.0996 0.39158 0.23353 0.0
H1894 H 0.09012 0.40461 0.21804 0.0
H1895 H 0.11096 0.41075 0.18418 0.0
H1896 H 0.1008 0.46529 0.15434 0.0
H1897 H 0.10628 0.44758 0.1666 0.0
H1898 H 0.08306 0.44287 0.19989 0.0
C1899 C 0.09989 0.40331 0.21782 0.0
C1900 C 0.10479 0.41768 0.18766 0.0
C1901 C 0.10533 0.39583 0.22666 0.0
C1902 C 0.09401 0.46143 0.16042 0.0
C1903 C 0.09714 0.45119 0.1674 0.0
C1904 C 0.08889 0.43575 0.19624 0.0
C1905 C 0.10702 0.40915 0.20887 0.0
C1906 C 0.10145 0.41783 0.20008 0.0
C1907 C 0.08877 0.44606 0.17569 0.0
C1908 C 0.09251 0.43585 0.18387 0.0
H1909 H 0.1349 0.39864 0.21743 0.0
H1910 H 0.12539 0.41168 0.20205 0.0
H1911 H 0.09068 0.42723 0.21381 0.0
H1912 H 0.06495 0.46542 0.17073 0.0
H1913 H 0.07033 0.44738 0.18272 0.0
C1914 C 0.77972 0.83754 0.42411 0.0
C1915 C 0.77918 0.83906 0.41134 0.0
C1916 C 0.7891 0.843 0.43086 0.0
C1917 C 0.81165 0.85336 0.44335 0.0
H1918 H 0.81898 0.88621 0.43195 0.0
C1919 C 0.84357 0.88631 0.46998 0.0
C1920 C 0.8394 0.89847 0.47103 0.0
C1921 C 0.83783 0.8781 0.46201 0.0
C1922 C 0.81702 0.87707 0.43529 0.0
H1923 H 0.78857 0.84639 0.39547 0.0
H1924 H 0.80516 0.85544 0.40714 0.0
H1925 H 0.80622 0.87298 0.4196 0.0
H1926 H 0.826 0.91151 0.46438 0.0
H1927 H 0.81596 0.89721 0.45071 0.0
H1928 H 0.82194 0.85784 0.45942 0.0
C1929 C 0.79813 0.85051 0.41204 0.0
C1930 C 0.80984 0.86938 0.4281 0.0
C1931 C 0.78866 0.84526 0.40534 0.0
C1932 C 0.82951 0.90225 0.4638 0.0
C1933 C 0.82378 0.89405 0.45587 0.0
C1934 C 0.8188 0.86112 0.4506 0.0
C1935 C 0.79819 0.84991 0.42492 0.0
C1936 C 0.8069 0.85749 0.43211 0.0
C1937 C 0.82783 0.88187 0.45491 0.0
C1938 C 0.82135 0.87315 0.44675 0.0
H1939 H 0.7725 0.83283 0.42895 0.0
H1940 H 0.7888 0.8424 0.44076 0.0
H1941 H 0.80968 0.84421 0.44665 0.0
H1942 H 0.85119 0.88309 0.4754 0.0
H1943 H 0.84124 0.86881 0.46138 0.0
C1944 C 0.88102 0.10761 0.21244 0.0
C1945 C 0.87029 0.10422 0.21861 0.0
C1946 C 0.88639 0.09968 0.20395 0.0
C1947 C 0.88945 0.0672 0.19816 0.0
H1948 H 0.90038 0.07608 0.16552 0.0
C1949 C 0.91676 0.03353 0.16903 0.0
C1950 C 0.91137 0.03099 0.15762 0.0
C1951 C 0.91328 0.04385 0.17572 0.0
C1952 C 0.89742 0.07353 0.17464 0.0
H1953 H 0.85649 0.09005 0.22028 0.0
H1954 H 0.86599 0.07619 0.20562 0.0
H1955 H 0.89036 0.09149 0.1785 0.0
H1956 H 0.89885 0.03786 0.14383 0.0
H1957 H 0.89285 0.05595 0.15552 0.0
H1958 H 0.89639 0.04929 0.19439 0.0
C1959 C 0.87024 0.08497 0.2074 0.0
C1960 C 0.89173 0.08231 0.18205 0.0
C1961 C 0.86479 0.09294 0.21575 0.0
C1962 C 0.90309 0.03949 0.15265 0.0
C1963 C 0.89971 0.04989 0.1593 0.0
C1964 C 0.89527 0.05851 0.19087 0.0
C1965 C 0.8812 0.08816 0.20162 0.0
C1966 C 0.88755 0.07914 0.1938 0.0
C1967 C 0.90445 0.05191 0.17107 0.0
C1968 C 0.89921 0.06155 0.17901 0.0
H1969 H 0.88545 0.11627 0.21437 0.0
H1970 H 0.89486 0.10232 0.19961 0.0
H1971 H 0.88642 0.06457 0.20725 0.0
H1972 H 0.9232 0.02722 0.17312 0.0
H1973 H 0.91716 0.0453 0.18474 0.0
C1974 C 0.28259 0.64294 0.59078 0.0
C1975 C 0.27647 0.65354 0.58677 0.0
C1976 C 0.29156 0.63755 0.58356 0.0
C1977 C 0.31316 0.64124 0.55863 0.0
H1978 H 0.3052 0.60734 0.55156 0.0
C1979 C 0.33836 0.61216 0.52186 0.0
C1980 C 0.33931 0.59949 0.52393 0.0
C1981 C 0.33184 0.61958 0.53002 0.0
C1982 C 0.30774 0.6167 0.5536 0.0
H1983 H 0.27567 0.66727 0.57238 0.0
H1984 H 0.29156 0.65777 0.55975 0.0
H1985 H 0.29213 0.61916 0.56503 0.0
H1986 H 0.33501 0.58477 0.53653 0.0
H1987 H 0.32416 0.59771 0.55101 0.0
H1988 H 0.32896 0.63869 0.54738 0.0
C1989 C 0.28924 0.65368 0.5685 0.0
C1990 C 0.30018 0.6235 0.56125 0.0
C1991 C 0.28014 0.65907 0.5757 0.0
C1992 C 0.33424 0.59448 0.53462 0.0
C1993 C 0.32794 0.6019 0.54286 0.0
C1994 C 0.32088 0.63435 0.55107 0.0
C1995 C 0.29472 0.64267 0.57221 0.0
C1996 C 0.30284 0.63579 0.56389 0.0
C1997 C 0.32631 0.61447 0.54048 0.0
C1998 C 0.31829 0.62196 0.54853 0.0
H1999 H 0.28016 0.63849 0.59932 0.0
H2000 H 0.29578 0.62913 0.58668 0.0
H2001 H 0.31537 0.65072 0.56057 0.0
H2002 H 0.34216 0.61625 0.51366 0.0
H2003 H 0.33071 0.62919 0.52783 0.0
C2004 C 0.10926 0.60172 0.27293 0.0
C2005 C 0.12201 0.60253 0.2721 0.0
C2006 C 0.10382 0.59422 0.28171 0.0
C2007 C 0.10892 0.57835 0.3109 0.0
H2008 H 0.08527 0.55505 0.29851 0.0
C2009 C 0.09566 0.53482 0.33732 0.0
C2010 C 0.08382 0.53009 0.33607 0.0
C2011 C 0.09932 0.54502 0.33057 0.0
C2012 C 0.09164 0.56165 0.30222 0.0
H2013 H 0.13904 0.59645 0.28018 0.0
H2014 H 0.12948 0.58337 0.29558 0.0
H2015 H 0.09358 0.57056 0.28486 0.0
H2016 H 0.06635 0.53277 0.3272 0.0
H2017 H 0.07265 0.5508 0.31564 0.0
H2018 H 0.10702 0.56946 0.32827 0.0
C2019 C 0.12373 0.58856 0.28939 0.0
C2020 C 0.09644 0.5705 0.29437 0.0
C2021 C 0.12919 0.59597 0.28052 0.0
C2022 C 0.07558 0.53609 0.32826 0.0
C2023 C 0.07921 0.54639 0.3216 0.0
C2024 C 0.10402 0.56958 0.31881 0.0
C2025 C 0.111 0.58748 0.28993 0.0
C2026 C 0.10527 0.5788 0.29858 0.0
C2027 C 0.0912 0.55084 0.32249 0.0
C2028 C 0.09549 0.56097 0.3145 0.0
H2029 H 0.10344 0.60666 0.26661 0.0
H2030 H 0.09398 0.59361 0.28202 0.0
H2031 H 0.11562 0.58475 0.31439 0.0
H2032 H 0.10227 0.53041 0.34323 0.0
H2033 H 0.10868 0.54805 0.33136 0.0
C2034 C 0.41572 0.4641 0.82384 0.0
C2035 C 0.41196 0.46596 0.836 0.0
C2036 C 0.41218 0.45357 0.81748 0.0
C2037 C 0.38775 0.43038 0.81793 0.0
H2038 H 0.40667 0.4161 0.79157 0.0
C2039 C 0.38424 0.3905 0.77784 0.0
C2040 C 0.37232 0.39283 0.77377 0.0
C2041 C 0.38957 0.39784 0.78686 0.0
C2042 C 0.40132 0.41982 0.79902 0.0
H2043 H 0.40233 0.45783 0.85135 0.0
H2044 H 0.3965 0.4393 0.8404 0.0
H2045 H 0.41598 0.43129 0.80495 0.0
H2046 H 0.35653 0.40454 0.77625 0.0
H2047 H 0.3659 0.41751 0.79169 0.0
H2048 H 0.37315 0.4188 0.81213 0.0
C2049 C 0.40182 0.44615 0.83561 0.0
C2050 C 0.40661 0.42867 0.8066 0.0
C2051 C 0.40523 0.45674 0.84192 0.0
C2052 C 0.36572 0.40245 0.77919 0.0
C2053 C 0.37109 0.40985 0.78812 0.0
C2054 C 0.38249 0.42146 0.81043 0.0
C2055 C 0.40492 0.44461 0.8232 0.0
C2056 C 0.39981 0.43424 0.81599 0.0
C2057 C 0.38314 0.40775 0.79194 0.0
C2058 C 0.38912 0.41627 0.80072 0.0
H2059 H 0.42087 0.47106 0.81901 0.0
H2060 H 0.41463 0.45278 0.8079 0.0
H2061 H 0.38216 0.43455 0.82497 0.0
H2062 H 0.38955 0.38308 0.77396 0.0
H2063 H 0.39879 0.39582 0.78975 0.0
C2064 C 0.9051 0.78478 0.64702 0.0
C2065 C 0.91002 0.77747 0.65643 0.0
C2066 C 0.91197 0.7941 0.64172 0.0
C2067 C 0.93859 0.81395 0.64428 0.0
H2068 H 0.94166 0.80813 0.60933 0.0
C2069 C 0.97554 0.83736 0.6146 0.0
C2070 C 0.97284 0.8398 0.60225 0.0
C2071 C 0.96726 0.83095 0.62192 0.0
C2072 C 0.94074 0.81012 0.61902 0.0
H2073 H 0.92566 0.77499 0.66836 0.0
H2074 H 0.93765 0.79146 0.65907 0.0
H2075 H 0.92796 0.79555 0.62139 0.0
H2076 H 0.95917 0.8381 0.58804 0.0
H2077 H 0.94451 0.82743 0.60089 0.0
H2078 H 0.95125 0.82867 0.64189 0.0
C2079 C 0.92848 0.78982 0.6558 0.0
C2080 C 0.93293 0.80284 0.62593 0.0
C2081 C 0.92162 0.78038 0.66108 0.0
C2082 C 0.96156 0.83614 0.59747 0.0
C2083 C 0.9532 0.82996 0.60484 0.0
C2084 C 0.9463 0.82141 0.63731 0.0
C2085 C 0.92386 0.79642 0.64578 0.0
C2086 C 0.93181 0.80465 0.63862 0.0
C2087 C 0.95603 0.82706 0.61709 0.0
C2088 C 0.94752 0.81954 0.62458 0.0
H2089 H 0.89613 0.78295 0.64331 0.0
H2090 H 0.90817 0.7992 0.6341 0.0
H2091 H 0.93785 0.8155 0.65406 0.0
H2092 H 0.9842 0.84006 0.6185 0.0
H2093 H 0.96985 0.82875 0.63124 0.0
C2094 C 0.95581 0.16977 0.41726 0.0
C2095 C 0.96011 0.15832 0.41322 0.0
C2096 C 0.94561 0.1751 0.41175 0.0
C2097 C 0.93298 0.176 0.38145 0.0
H2098 H 0.90766 0.19626 0.39561 0.0
C2099 C 0.9035 0.20653 0.35062 0.0
C2100 C 0.90087 0.2183 0.35508 0.0
C2101 C 0.90824 0.19757 0.35843 0.0
C2102 C 0.91474 0.19071 0.39151 0.0
H2103 H 0.95615 0.14283 0.40134 0.0
H2104 H 0.93847 0.15221 0.39173 0.0
H2105 H 0.92006 0.18323 0.40892 0.0
H2106 H 0.90096 0.2299 0.37123 0.0
H2107 H 0.90975 0.21454 0.38468 0.0
H2108 H 0.92841 0.18393 0.36422 0.0
C2109 C 0.94311 0.15712 0.39899 0.0
C2110 C 0.92175 0.1832 0.39914 0.0
C2111 C 0.95324 0.15177 0.40452 0.0
C2112 C 0.90284 0.22087 0.36754 0.0
C2113 C 0.90779 0.21201 0.37529 0.0
C2114 C 0.92614 0.18362 0.37387 0.0
C2115 C 0.93957 0.16907 0.40214 0.0
C2116 C 0.93103 0.17589 0.39417 0.0
C2117 C 0.91069 0.20027 0.37082 0.0
C2118 C 0.91705 0.19124 0.37881 0.0
H2119 H 0.96082 0.17503 0.42401 0.0
H2120 H 0.94305 0.18434 0.41434 0.0
H2121 H 0.94025 0.17063 0.3774 0.0
H2122 H 0.90191 0.20425 0.34109 0.0
H2123 H 0.91008 0.18857 0.3547 0.0
C2124 C 0.53181 0.16102 0.09575 0.0
C2125 C 0.52108 0.1564 0.10099 0.0
C2126 C 0.54017 0.16746 0.1029 0.0
C2127 C 0.54879 0.17461 0.13516 0.0
H2128 H 0.56441 0.20247 0.11968 0.0
C2129 C 0.57492 0.21378 0.16038 0.0
C2130 C 0.586 0.21738 0.15498 0.0
C2131 C 0.56752 0.20504 0.15467 0.0
C2132 C 0.5602 0.19465 0.12409 0.0
H2133 H 0.51073 0.15474 0.11784 0.0
H2134 H 0.52511 0.16641 0.13025 0.0
H2135 H 0.55032 0.18998 0.10793 0.0
H2136 H 0.59828 0.21402 0.13971 0.0
H2137 H 0.58531 0.19897 0.12978 0.0
H2138 H 0.55847 0.17973 0.15149 0.0
C2139 C 0.52724 0.1648 0.12069 0.0
C2140 C 0.55216 0.18744 0.11735 0.0
C2141 C 0.51896 0.15817 0.11356 0.0
C2142 C 0.58977 0.2116 0.14409 0.0
C2143 C 0.58234 0.20298 0.13836 0.0
C2144 C 0.55673 0.18197 0.14197 0.0
C2145 C 0.53789 0.16963 0.11541 0.0
C2146 C 0.54641 0.17727 0.12275 0.0
C2147 C 0.57103 0.19986 0.14343 0.0
C2148 C 0.56257 0.19198 0.13644 0.0
H2149 H 0.53378 0.15962 0.08612 0.0
H2150 H 0.54842 0.17075 0.09858 0.0
H2151 H 0.54463 0.16678 0.13958 0.0
H2152 H 0.57177 0.218 0.16879 0.0
H2153 H 0.55881 0.20278 0.15873 0.0
C2154 C 0.59179 0.7688 0.86304 0.0
C2155 C 0.59338 0.77086 0.85043 0.0
C2156 C 0.5862 0.77765 0.87039 0.0
C2157 C 0.56525 0.80394 0.86754 0.0
H2158 H 0.57233 0.80813 0.90214 0.0
C2159 C 0.5385 0.8381 0.89657 0.0
C2160 C 0.53302 0.83296 0.90703 0.0
C2161 C 0.54781 0.83193 0.89047 0.0
C2162 C 0.5703 0.80704 0.89248 0.0
H2163 H 0.59113 0.78407 0.83576 0.0
H2164 H 0.5818 0.79969 0.84864 0.0
H2165 H 0.58533 0.79489 0.88964 0.0
H2166 H 0.53367 0.81769 0.91978 0.0
H2167 H 0.54999 0.80691 0.90907 0.0
H2168 H 0.55023 0.81604 0.87038 0.0
C2169 C 0.58444 0.79108 0.8528 0.0
C2170 C 0.57769 0.79944 0.88533 0.0
C2171 C 0.58983 0.78216 0.84542 0.0
C2172 C 0.53762 0.82187 0.91171 0.0
C2173 C 0.54701 0.81572 0.90562 0.0
C2174 C 0.55799 0.81163 0.87464 0.0
C2175 C 0.58226 0.78882 0.86531 0.0
C2176 C 0.57514 0.79767 0.8728 0.0
C2177 C 0.55191 0.82053 0.89474 0.0
C2178 C 0.56034 0.81314 0.8872 0.0
H2179 H 0.59441 0.76016 0.86716 0.0
H2180 H 0.58455 0.7755 0.87994 0.0
H2181 H 0.56281 0.8026 0.85802 0.0
H2182 H 0.53531 0.8467 0.89277 0.0
H2183 H 0.55157 0.8359 0.88219 0.0
C2184 C 0.96387 0.16547 0.8982 0.0
C2185 C 0.9716 0.15605 0.89413 0.0
C2186 C 0.95557 0.17089 0.89019 0.0
C2187 C 0.94996 0.17621 0.85737 0.0
H2188 H 0.91884 0.18759 0.86962 0.0
C2189 C 0.90465 0.20668 0.84286 0.0
C2190 C 0.91063 0.21659 0.83727 0.0
C2191 C 0.9113 0.19684 0.84755 0.0
C2192 C 0.92736 0.18428 0.8659 0.0
H2193 H 0.97641 0.14472 0.87849 0.0
H2194 H 0.96176 0.15411 0.86456 0.0
H2195 H 0.93154 0.17479 0.8825 0.0
H2196 H 0.92816 0.2236 0.83144 0.0
H2197 H 0.93981 0.20667 0.83998 0.0
H2198 H 0.94573 0.18571 0.84072 0.0
C2199 C 0.96229 0.15741 0.8739 0.0
C2200 C 0.93475 0.17709 0.87339 0.0
C2201 C 0.97064 0.152 0.88192 0.0
C2202 C 0.9233 0.21608 0.8357 0.0
C2203 C 0.92998 0.20632 0.84056 0.0
C2204 C 0.94252 0.18336 0.84981 0.0
C2205 C 0.95472 0.16698 0.87793 0.0
C2206 C 0.94628 0.17326 0.86936 0.0
C2207 C 0.92408 0.1968 0.84694 0.0
C2208 C 0.93126 0.18774 0.85411 0.0
H2209 H 0.96437 0.16885 0.90752 0.0
H2210 H 0.95004 0.17839 0.89355 0.0
H2211 H 0.95882 0.17345 0.85399 0.0
H2212 H 0.89485 0.20673 0.84402 0.0
H2213 H 0.90643 0.1895 0.85209 0.0
C2214 C 0.53856 0.16009 0.59892 0.0
C2215 C 0.53375 0.16363 0.58751 0.0
C2216 C 0.54798 0.16674 0.60429 0.0
C2217 C 0.56057 0.19791 0.60394 0.0
H2218 H 0.58348 0.18389 0.6271 0.0
C2219 C 0.59347 0.22759 0.63229 0.0
C2220 C 0.59287 0.22554 0.64501 0.0
C2221 C 0.58814 0.21936 0.62412 0.0
C2222 C 0.57714 0.1879 0.62063 0.0
H2223 H 0.53573 0.17636 0.57235 0.0
H2224 H 0.55246 0.18777 0.58161 0.0
H2225 H 0.57142 0.17038 0.614 0.0
H2226 H 0.58657 0.21301 0.6591 0.0
H2227 H 0.57731 0.19855 0.64474 0.0
H2228 H 0.56629 0.21542 0.61064 0.0
C2229 C 0.54866 0.18007 0.58656 0.0
C2230 C 0.57022 0.18019 0.61315 0.0
C2231 C 0.53913 0.17348 0.58123 0.0
C2232 C 0.58713 0.21488 0.64936 0.0
C2233 C 0.58192 0.20656 0.64115 0.0
C2234 C 0.56761 0.2056 0.61129 0.0
C2235 C 0.55294 0.17701 0.59834 0.0
C2236 C 0.56162 0.1851 0.60494 0.0
C2237 C 0.58223 0.20884 0.62848 0.0
C2238 C 0.57575 0.20065 0.61989 0.0
H2239 H 0.53469 0.15253 0.60403 0.0
H2240 H 0.55091 0.16418 0.61342 0.0
H2241 H 0.55391 0.20204 0.5979 0.0
H2242 H 0.59782 0.23571 0.62862 0.0
H2243 H 0.58854 0.22127 0.61438 0.0
C2244 C 0.53001 0.83352 0.40199 0.0
C2245 C 0.51954 0.8386 0.39662 0.0
C2246 C 0.53831 0.82696 0.39488 0.0
C2247 C 0.5475 0.82071 0.36263 0.0
H2248 H 0.56242 0.79208 0.37738 0.0
C2249 C 0.57345 0.7823 0.33628 0.0
C2250 C 0.58439 0.77828 0.34167 0.0
C2251 C 0.56608 0.79086 0.34229 0.0
C2252 C 0.5584 0.80013 0.37318 0.0
H2253 H 0.50957 0.84082 0.3796 0.0
H2254 H 0.52383 0.82897 0.36727 0.0
H2255 H 0.54828 0.80437 0.38932 0.0
H2256 H 0.59644 0.78066 0.35732 0.0
H2257 H 0.58351 0.79542 0.36776 0.0
H2258 H 0.55742 0.81606 0.34632 0.0
C2259 C 0.52581 0.83032 0.3769 0.0
C2260 C 0.55033 0.80721 0.38003 0.0
C2261 C 0.51759 0.83705 0.38398 0.0
C2262 C 0.58804 0.78345 0.35291 0.0
C2263 C 0.58063 0.79187 0.35894 0.0
C2264 C 0.55547 0.8135 0.35571 0.0
C2265 C 0.53625 0.82515 0.38228 0.0
C2266 C 0.54483 0.81764 0.37488 0.0
C2267 C 0.56947 0.79544 0.35383 0.0
C2268 C 0.56104 0.80319 0.36098 0.0
H2269 H 0.53185 0.83472 0.41167 0.0
H2270 H 0.54639 0.82335 0.39929 0.0
H2271 H 0.54355 0.82877 0.35841 0.0
H2272 H 0.57039 0.77857 0.32761 0.0
H2273 H 0.55748 0.79346 0.33818 0.0
C2274 C 0.91042 0.76399 0.13531 0.0
C2275 C 0.90856 0.76692 0.14772 0.0
C2276 C 0.91655 0.77211 0.12758 0.0
C2277 C 0.93756 0.79864 0.12883 0.0
H2278 H 0.92902 0.80219 0.09449 0.0
C2279 C 0.95861 0.83616 0.09953 0.0
C2280 C 0.96483 0.83196 0.08907 0.0
C2281 C 0.95044 0.82856 0.10564 0.0
C2282 C 0.93149 0.80123 0.10406 0.0
H2283 H 0.91122 0.78084 0.16165 0.0
H2284 H 0.92151 0.79519 0.14811 0.0
H2285 H 0.91724 0.7883 0.10753 0.0
H2286 H 0.96659 0.81682 0.07627 0.0
H2287 H 0.95211 0.80354 0.087 0.0
H2288 H 0.95162 0.81173 0.12541 0.0
C2289 C 0.91864 0.78644 0.14441 0.0
C2290 C 0.92481 0.79325 0.11152 0.0
C2291 C 0.91268 0.77825 0.15217 0.0
C2292 C 0.962 0.82031 0.08434 0.0
C2293 C 0.95371 0.81272 0.09045 0.0
C2294 C 0.94409 0.8067 0.12144 0.0
C2295 C 0.9208 0.78341 0.13205 0.0
C2296 C 0.92777 0.79189 0.12402 0.0
C2297 C 0.94821 0.81666 0.10138 0.0
C2298 C 0.9411 0.80809 0.10901 0.0
H2299 H 0.90738 0.75528 0.13163 0.0
H2300 H 0.9182 0.76939 0.11818 0.0
H2301 H 0.94033 0.79759 0.1383 0.0
H2302 H 0.9604 0.84514 0.10335 0.0
H2303 H 0.94614 0.83186 0.11396 0.0
C2304 C 0.59528 0.96558 0.82648 0.0
C2305 C 0.59887 0.97066 0.83775 0.0
C2306 C 0.60285 0.95742 0.82029 0.0
C2307 C 0.62629 0.93462 0.82472 0.0
H2308 H 0.62996 0.93788 0.7895 0.0
C2309 C 0.63147 0.89438 0.79155 0.0
C2310 C 0.63802 0.89595 0.78059 0.0
C2311 C 0.63063 0.90391 0.80004 0.0
C2312 C 0.62929 0.93693 0.79936 0.0
H2313 H 0.61322 0.97105 0.85143 0.0
H2314 H 0.62641 0.95648 0.84063 0.0
H2315 H 0.62053 0.95436 0.80119 0.0
H2316 H 0.64971 0.90838 0.77045 0.0
H2317 H 0.64815 0.92507 0.78529 0.0
H2318 H 0.63455 0.91691 0.82279 0.0
C2319 C 0.61774 0.95898 0.8366 0.0
C2320 C 0.62376 0.94632 0.80602 0.0
C2321 C 0.61021 0.96731 0.84274 0.0
C2322 C 0.64453 0.9069 0.77877 0.0
C2323 C 0.6436 0.91648 0.78723 0.0
C2324 C 0.63174 0.92516 0.81803 0.0
C2325 C 0.61415 0.95404 0.82527 0.0
C2326 C 0.62185 0.94507 0.81869 0.0
C2327 C 0.63626 0.91523 0.79772 0.0
C2328 C 0.63294 0.92607 0.80522 0.0
H2329 H 0.58663 0.96798 0.82234 0.0
H2330 H 0.59978 0.9536 0.81165 0.0
H2331 H 0.62491 0.93344 0.83449 0.0
H2332 H 0.62647 0.88601 0.7933 0.0
H2333 H 0.62484 0.90267 0.80798 0.0
C2334 C 0.84134 0.89865 0.5334 0.0
C2335 C 0.83704 0.90925 0.52746 0.0
C2336 C 0.83422 0.89275 0.54217 0.0
C2337 C 0.80823 0.89524 0.56296 0.0
H2338 H 0.8031 0.8611 0.55448 0.0
C2339 C 0.7705 0.86571 0.58524 0.0
C2340 C 0.77283 0.85317 0.58698 0.0
C2341 C 0.77883 0.87306 0.57895 0.0
C2342 C 0.80458 0.87054 0.55717 0.0
H2343 H 0.8223 0.92249 0.52683 0.0
H2344 H 0.80989 0.91214 0.54231 0.0
H2345 H 0.81713 0.8734 0.54248 0.0
H2346 H 0.78592 0.8386 0.58403 0.0
H2347 H 0.80064 0.85147 0.57347 0.0
H2348 H 0.79579 0.89234 0.57779 0.0
C2349 C 0.81875 0.90842 0.54005 0.0
C2350 C 0.81259 0.87759 0.55024 0.0
C2351 C 0.82584 0.91431 0.53117 0.0
C2352 C 0.78379 0.8482 0.58264 0.0
C2353 C 0.7922 0.85558 0.57654 0.0
C2354 C 0.8003 0.88812 0.57004 0.0
C2355 C 0.82272 0.89737 0.54529 0.0
C2356 C 0.81448 0.88999 0.55304 0.0
C2357 C 0.78975 0.86806 0.57444 0.0
C2358 C 0.79836 0.87568 0.5672 0.0
H2359 H 0.84998 0.89457 0.53093 0.0
H2360 H 0.83755 0.88433 0.54624 0.0
H2361 H 0.80957 0.90479 0.5653 0.0
H2362 H 0.76209 0.86978 0.58847 0.0
H2363 H 0.77654 0.88258 0.57737 0.0
C2364 C 0.89183 0.02791 0.33564 0.0
C2365 C 0.90395 0.02921 0.33954 0.0
C2366 C 0.88609 0.03739 0.32918 0.0
C2367 C 0.89442 0.06405 0.31006 0.0
H2368 H 0.8601 0.07217 0.31197 0.0
C2369 C 0.8753 0.10516 0.28416 0.0
C2370 C 0.86507 0.10288 0.27676 0.0
C2371 C 0.87893 0.0967 0.29302 0.0
C2372 C 0.86969 0.06994 0.31134 0.0
H2373 H 0.91923 0.04173 0.34066 0.0
H2374 H 0.90915 0.05834 0.32987 0.0
H2375 H 0.86855 0.05643 0.32557 0.0
H2376 H 0.8502 0.0902 0.27342 0.0
H2377 H 0.85662 0.07538 0.28894 0.0
H2378 H 0.89563 0.07752 0.29591 0.0
C2379 C 0.90419 0.04988 0.3313 0.0
C2380 C 0.87452 0.06092 0.31909 0.0
C2381 C 0.90995 0.04039 0.33756 0.0
C2382 C 0.85817 0.09222 0.2789 0.0
C2383 C 0.8618 0.08375 0.28783 0.0
C2384 C 0.88964 0.07308 0.30244 0.0
C2385 C 0.89234 0.04837 0.32666 0.0
C2386 C 0.88698 0.05793 0.31857 0.0
C2387 C 0.8724 0.08577 0.29473 0.0
C2388 C 0.87725 0.07618 0.30302 0.0
H2389 H 0.887 0.01937 0.33705 0.0
H2390 H 0.87697 0.0359 0.32571 0.0
H2391 H 0.90396 0.06175 0.30912 0.0
H2392 H 0.88077 0.11333 0.2829 0.0
H2393 H 0.88703 0.09859 0.29836 0.0
C2394 C 0.66968 0.08501 0.03291 0.0
C2395 C 0.6587 0.09039 0.02901 0.0
C2396 C 0.67669 0.09058 0.04206 0.0
C2397 C 0.6833 0.12103 0.05318 0.0
H2398 H 0.69875 0.10518 0.08092 0.0
C2399 C 0.71229 0.1488 0.08692 0.0
C2400 C 0.72296 0.14331 0.09139 0.0
C2401 C 0.7037 0.14185 0.08055 0.0
C2402 C 0.69462 0.10971 0.07313 0.0
H2403 H 0.64606 0.10536 0.03236 0.0
H2404 H 0.65835 0.11505 0.04814 0.0
H2405 H 0.68509 0.09341 0.06766 0.0
H2406 H 0.73296 0.12623 0.09282 0.0
H2407 H 0.71824 0.11422 0.08126 0.0
H2408 H 0.69308 0.13715 0.05815 0.0
C2409 C 0.66157 0.10661 0.04402 0.0
C2410 C 0.68676 0.10298 0.06561 0.0
C2411 C 0.65454 0.10103 0.03498 0.0
C2412 C 0.72479 0.1307 0.08952 0.0
C2413 C 0.71629 0.12379 0.08296 0.0
C2414 C 0.69125 0.1277 0.06056 0.0
C2415 C 0.67285 0.10164 0.04739 0.0
C2416 C 0.68101 0.10861 0.0556 0.0
C2417 C 0.70569 0.12931 0.07829 0.0
C2418 C 0.697 0.12216 0.07066 0.0
H2419 H 0.67312 0.07678 0.02855 0.0
H2420 H 0.68538 0.08659 0.04451 0.0
H2421 H 0.67914 0.12553 0.04538 0.0
H2422 H 0.71056 0.15846 0.08838 0.0
H2423 H 0.69551 0.14636 0.07735 0.0
C2424 C 0.58859 0.03865 0.65878 0.0
C2425 C 0.59431 0.02732 0.65684 0.0
C2426 C 0.59453 0.04797 0.66511 0.0
C2427 C 0.6242 0.05848 0.67757 0.0
H2428 H 0.60303 0.07545 0.70042 0.0
C2429 C 0.63957 0.09114 0.71739 0.0
C2430 C 0.6325 0.10181 0.71885 0.0
C2431 C 0.63639 0.08233 0.70861 0.0
C2432 C 0.60904 0.07088 0.694 0.0
H2433 H 0.61096 0.01702 0.65944 0.0
H2434 H 0.62132 0.03327 0.67096 0.0
H2435 H 0.59474 0.05943 0.68748 0.0
H2436 H 0.61711 0.11198 0.71155 0.0
H2437 H 0.61161 0.09665 0.69639 0.0
H2438 H 0.63858 0.06991 0.68451 0.0
C2439 C 0.61227 0.03499 0.6674 0.0
C2440 C 0.60429 0.06172 0.68654 0.0
C2441 C 0.60635 0.02568 0.66085 0.0
C2442 C 0.62266 0.1038 0.71085 0.0
C2443 C 0.61948 0.09502 0.70215 0.0
C2444 C 0.62901 0.06764 0.68518 0.0
C2445 C 0.60627 0.04612 0.66989 0.0
C2446 C 0.61173 0.05554 0.67807 0.0
C2447 C 0.62607 0.08404 0.7012 0.0
C2448 C 0.62139 0.07405 0.69331 0.0
H2449 H 0.57939 0.04026 0.65556 0.0
H2450 H 0.58978 0.05655 0.66651 0.0
H2451 H 0.63017 0.05389 0.67114 0.0
H2452 H 0.64725 0.08935 0.72335 0.0
H2453 H 0.64161 0.07393 0.70805 0.0
C2454 C 0.71065 0.84627 0.41047 0.0
C2455 C 0.72189 0.85116 0.40679 0.0
C2456 C 0.70203 0.85369 0.41624 0.0
C2457 C 0.69433 0.88621 0.4237 0.0
H2458 H 0.67694 0.87083 0.45054 0.0
C2459 C 0.66987 0.91148 0.46385 0.0
C2460 C 0.65855 0.90665 0.46747 0.0
C2461 C 0.67666 0.90576 0.45462 0.0
C2462 C 0.68162 0.87522 0.44297 0.0
H2463 H 0.73283 0.86767 0.40597 0.0
H2464 H 0.71802 0.8805 0.41652 0.0
H2465 H 0.69063 0.85865 0.43806 0.0
H2466 H 0.64509 0.89258 0.4635 0.0
H2467 H 0.65699 0.88263 0.44759 0.0
H2468 H 0.68559 0.90295 0.42917 0.0
C2469 C 0.71568 0.87104 0.41467 0.0
C2470 C 0.68944 0.86823 0.43576 0.0
C2471 C 0.72422 0.86367 0.40869 0.0
C2472 C 0.65384 0.89647 0.46112 0.0
C2473 C 0.66065 0.89074 0.45199 0.0
C2474 C 0.6866 0.89326 0.43107 0.0
C2475 C 0.70455 0.8661 0.41869 0.0
C2476 C 0.6959 0.87361 0.42602 0.0
C2477 C 0.67226 0.8951 0.44892 0.0
C2478 C 0.68017 0.8878 0.44075 0.0
H2479 H 0.70853 0.8367 0.40893 0.0
H2480 H 0.69343 0.84962 0.41889 0.0
H2481 H 0.69904 0.89063 0.41619 0.0
H2482 H 0.67374 0.91934 0.46849 0.0
H2483 H 0.68562 0.90927 0.45242 0.0
C2484 C 0.89381 0.97114 0.17309 0.0
C2485 C 0.8909 0.97645 0.16173 0.0
C2486 C 0.88553 0.9635 0.17902 0.0
C2487 C 0.86139 0.94193 0.17265 0.0
H2488 H 0.85804 0.94225 0.20804 0.0
C2489 C 0.84476 0.91032 0.2166 0.0
C2490 C 0.85157 0.89979 0.21369 0.0
C2491 C 0.84495 0.92051 0.20883 0.0
C2492 C 0.85859 0.94214 0.19813 0.0
H2493 H 0.87689 0.97807 0.14778 0.0
H2494 H 0.86245 0.96446 0.15812 0.0
H2495 H 0.86758 0.95954 0.19772 0.0
H2496 H 0.8627 0.89118 0.19971 0.0
H2497 H 0.86307 0.90889 0.18624 0.0
H2498 H 0.85294 0.92423 0.17314 0.0
C2499 C 0.87115 0.96633 0.16242 0.0
C2500 C 0.86418 0.952 0.19224 0.0
C2501 C 0.8794 0.97413 0.15654 0.0
C2502 C 0.8575 0.89921 0.20229 0.0
C2503 C 0.85762 0.90934 0.1945 0.0
C2504 C 0.85585 0.93202 0.17855 0.0
C2505 C 0.87418 0.96088 0.17367 0.0
C2506 C 0.86606 0.95176 0.17951 0.0
C2507 C 0.85185 0.9203 0.19798 0.0
C2508 C 0.85483 0.93182 0.1914 0.0
H2509 H 0.90257 0.97277 0.17735 0.0
H2510 H 0.88819 0.95928 0.1876 0.0
H2511 H 0.86274 0.94151 0.16282 0.0
H2512 H 0.84002 0.91104 0.22528 0.0
H2513 H 0.84029 0.92879 0.21166 0.0
C2514 C 0.84104 0.09802 0.95736 0.0
C2515 C 0.83629 0.08788 0.96374 0.0
C2516 C 0.83419 0.10384 0.94832 0.0
C2517 C 0.80758 0.10192 0.92808 0.0
H2518 H 0.80384 0.13634 0.93613 0.0
C2519 C 0.76923 0.13192 0.90763 0.0
C2520 C 0.77159 0.14442 0.90569 0.0
C2521 C 0.77787 0.12449 0.9134 0.0
C2522 C 0.80494 0.12683 0.93353 0.0
H2523 H 0.82105 0.07524 0.96478 0.0
H2524 H 0.80911 0.08545 0.94888 0.0
H2525 H 0.81805 0.12386 0.94769 0.0
H2526 H 0.78501 0.15884 0.90771 0.0
H2527 H 0.80024 0.14584 0.91733 0.0
H2528 H 0.79452 0.10492 0.91382 0.0
C2529 C 0.81812 0.08889 0.95099 0.0
C2530 C 0.81307 0.11967 0.94021 0.0
C2531 C 0.82495 0.08308 0.96012 0.0
C2532 C 0.78287 0.14928 0.90928 0.0
C2533 C 0.79158 0.14181 0.91484 0.0
C2534 C 0.79954 0.10916 0.92124 0.0
C2535 C 0.8225 0.0996 0.94538 0.0
C2536 C 0.81441 0.10714 0.93761 0.0
C2537 C 0.78912 0.12937 0.91717 0.0
C2538 C 0.79805 0.12169 0.92396 0.0
H2539 H 0.84981 0.10188 0.95976 0.0
H2540 H 0.83783 0.11198 0.94398 0.0
H2541 H 0.80849 0.09228 0.9259 0.0
H2542 H 0.76059 0.12794 0.90498 0.0
H2543 H 0.77556 0.11501 0.91519 0.0
C2544 C 0.78735 0.66413 0.92259 0.0
C2545 C 0.78473 0.66009 0.91063 0.0
C2546 C 0.79687 0.65877 0.92924 0.0
C2547 C 0.8108 0.629 0.93149 0.0
H2548 H 0.83422 0.64417 0.95331 0.0
C2549 C 0.84198 0.59917 0.96097 0.0
C2550 C 0.84392 0.60298 0.97309 0.0
C2551 C 0.83679 0.60715 0.95245 0.0
C2552 C 0.82766 0.6398 0.94733 0.0
H2553 H 0.7908 0.64824 0.89583 0.0
H2554 H 0.80728 0.63895 0.90745 0.0
H2555 H 0.8216 0.65702 0.93998 0.0
H2556 H 0.84227 0.6182 0.98577 0.0
H2557 H 0.8327 0.63195 0.97108 0.0
H2558 H 0.8162 0.61188 0.93911 0.0
C2559 C 0.80187 0.64606 0.91174 0.0
C2560 C 0.8205 0.64716 0.93968 0.0
C2561 C 0.79242 0.65139 0.90511 0.0
C2562 C 0.8409 0.61503 0.97646 0.0
C2563 C 0.83549 0.62294 0.968 0.0
C2564 C 0.81778 0.62168 0.93921 0.0
C2565 C 0.80385 0.64933 0.92402 0.0
C2566 C 0.81201 0.64179 0.93171 0.0
C2567 C 0.83318 0.61903 0.95593 0.0
C2568 C 0.82629 0.62695 0.94727 0.0
H2569 H 0.78162 0.67084 0.92707 0.0
H2570 H 0.79822 0.66143 0.93871 0.0
H2571 H 0.80413 0.62464 0.92561 0.0
H2572 H 0.84441 0.59 0.95807 0.0
H2573 H 0.83546 0.60392 0.94315 0.0
C2574 C 0.28741 0.8276 0.07282 0.0
C2575 C 0.28452 0.83195 0.08462 0.0
C2576 C 0.29633 0.83347 0.0658 0.0
C2577 C 0.30694 0.86418 0.06151 0.0
H2578 H 0.33276 0.85051 0.04154 0.0
C2579 C 0.33682 0.89537 0.03185 0.0
C2580 C 0.34041 0.891 0.02031 0.0
C2581 C 0.33137 0.88751 0.04031 0.0
C2582 C 0.32549 0.85445 0.04695 0.0
H2583 H 0.28966 0.84501 0.09875 0.0
H2584 H 0.30503 0.85525 0.08643 0.0
H2585 H 0.32128 0.83716 0.0554 0.0
H2586 H 0.34111 0.87501 0.00852 0.0
H2587 H 0.33107 0.86142 0.02304 0.0
H2588 H 0.31053 0.88126 0.0528 0.0
C2589 C 0.30029 0.84743 0.08259 0.0
C2590 C 0.319 0.84681 0.05492 0.0
C2591 C 0.29148 0.84155 0.08962 0.0
C2592 C 0.33848 0.87861 0.01739 0.0
C2593 C 0.33281 0.8708 0.02576 0.0
C2594 C 0.31324 0.87175 0.05344 0.0
C2595 C 0.30243 0.84377 0.07046 0.0
C2596 C 0.30972 0.85166 0.0623 0.0
C2597 C 0.32914 0.87515 0.03732 0.0
C2598 C 0.32263 0.86701 0.04606 0.0
H2599 H 0.28228 0.82018 0.06871 0.0
H2600 H 0.29784 0.83049 0.05644 0.0
H2601 H 0.29963 0.86808 0.06693 0.0
H2602 H 0.33836 0.90483 0.03441 0.0
H2603 H 0.32894 0.89114 0.04922 0.0
C2604 C 0.88683 0.54341 0.85083 0.0
C2605 C 0.89015 0.53131 0.84807 0.0
C2606 C 0.8851 0.55193 0.84146 0.0
C2607 C 0.87017 0.56238 0.82113 0.0
H2608 H 0.88482 0.56268 0.78877 0.0
C2609 C 0.84257 0.57533 0.77915 0.0
C2610 C 0.84758 0.58359 0.77065 0.0
C2611 C 0.84974 0.57025 0.78836 0.0
C2612 C 0.88074 0.56281 0.79781 0.0
H2613 H 0.89529 0.51885 0.83349 0.0
H2614 H 0.89181 0.53358 0.81704 0.0
H2615 H 0.89527 0.55231 0.80573 0.0
H2616 H 0.86425 0.59262 0.76493 0.0
H2617 H 0.87686 0.58362 0.78116 0.0
H2618 H 0.85559 0.57266 0.81327 0.0
C2619 C 0.89077 0.53662 0.82644 0.0
C2620 C 0.88666 0.55681 0.80749 0.0
C2621 C 0.89273 0.52814 0.83586 0.0
C2622 C 0.86009 0.58632 0.77135 0.0
C2623 C 0.86732 0.58116 0.78061 0.0
C2624 C 0.86429 0.56833 0.81152 0.0
C2625 C 0.88636 0.54843 0.82911 0.0
C2626 C 0.88129 0.5563 0.8192 0.0
C2627 C 0.86212 0.57326 0.78933 0.0
C2628 C 0.86932 0.5683 0.79969 0.0
H2629 H 0.88498 0.54614 0.8602 0.0
H2630 H 0.88207 0.56107 0.84386 0.0
H2631 H 0.86562 0.56205 0.82993 0.0
H2632 H 0.83301 0.57289 0.77886 0.0
H2633 H 0.84554 0.56398 0.7948 0.0
C2634 C 0.15674 0.11516 0.51833 0.0
C2635 C 0.15371 0.10322 0.52209 0.0
C2636 C 0.16299 0.12304 0.52623 0.0
C2637 C 0.18252 0.12197 0.55388 0.0
H2638 H 0.17835 0.15729 0.55345 0.0
C2639 C 0.20684 0.15193 0.58857 0.0
C2640 C 0.21475 0.16061 0.58333 0.0
C2641 C 0.19774 0.14648 0.58156 0.0
C2642 C 0.17958 0.14744 0.55362 0.0
H2643 H 0.15423 0.09039 0.53724 0.0
H2644 H 0.16466 0.10426 0.5512 0.0
H2645 H 0.16537 0.14438 0.54053 0.0
H2646 H 0.21857 0.17119 0.56692 0.0
H2647 H 0.20248 0.16161 0.55464 0.0
H2648 H 0.19656 0.12501 0.56708 0.0
C2649 C 0.16266 0.10742 0.542 0.0
C2650 C 0.17221 0.14004 0.54621 0.0
C2651 C 0.15662 0.09947 0.53404 0.0
C2652 C 0.21267 0.16449 0.57121 0.0
C2653 C 0.20347 0.15904 0.56418 0.0
C2654 C 0.18971 0.12932 0.56139 0.0
C2655 C 0.16617 0.11921 0.53812 0.0
C2656 C 0.17362 0.1272 0.54623 0.0
C2657 C 0.19628 0.14964 0.5692 0.0
C2658 C 0.18831 0.1421 0.56133 0.0
H2659 H 0.15465 0.11828 0.50914 0.0
H2660 H 0.16566 0.13196 0.52284 0.0
H2661 H 0.18416 0.11219 0.55391 0.0
H2662 H 0.20802 0.14888 0.59795 0.0
H2663 H 0.19217 0.13939 0.58567 0.0
C2664 C 0.13022 0.90315 0.77591 0.0
C2665 C 0.14126 0.90899 0.77295 0.0
C2666 C 0.122 0.90868 0.78404 0.0
C2667 C 0.11377 0.93856 0.79738 0.0
H2668 H 0.10512 0.92055 0.82676 0.0
C2669 C 0.10933 0.95117 0.84996 0.0
C2670 C 0.10298 0.96232 0.84907 0.0
C2671 C 0.10928 0.94286 0.84024 0.0
C2672 C 0.1073 0.92565 0.81853 0.0
H2673 H 0.15216 0.92531 0.77591 0.0
H2674 H 0.13785 0.93492 0.78989 0.0
H2675 H 0.11462 0.9098 0.80955 0.0
H2676 H 0.09055 0.97289 0.83779 0.0
H2677 H 0.09047 0.95834 0.82078 0.0
H2678 H 0.10727 0.95455 0.80655 0.0
C2679 C 0.13552 0.92611 0.78596 0.0
C2680 C 0.11266 0.91948 0.80866 0.0
C2681 C 0.14377 0.92054 0.77803 0.0
C2682 C 0.09563 0.96443 0.83873 0.0
C2683 C 0.09563 0.95613 0.82896 0.0
C2684 C 0.10837 0.9447 0.80719 0.0
C2685 C 0.12459 0.92023 0.78911 0.0
C2686 C 0.11644 0.92601 0.79823 0.0
C2687 C 0.1029 0.94553 0.82939 0.0
C2688 C 0.10557 0.93843 0.81809 0.0
H2689 H 0.12805 0.89422 0.77216 0.0
H2690 H 0.11365 0.90395 0.78637 0.0
H2691 H 0.11647 0.94377 0.78937 0.0
H2692 H 0.11496 0.94917 0.85787 0.0
H2693 H 0.11503 0.93482 0.84088 0.0
C2694 C 0.659 0.39081 0.46174 0.0
C2695 C 0.65477 0.38723 0.47336 0.0
C2696 C 0.66367 0.38212 0.45361 0.0
C2697 C 0.67972 0.35327 0.45339 0.0
H2698 H 0.6724 0.35339 0.41861 0.0
C2699 C 0.70924 0.32563 0.42016 0.0
C2700 C 0.71315 0.33238 0.40991 0.0
C2701 C 0.69937 0.32969 0.42717 0.0
C2702 C 0.67456 0.35324 0.42829 0.0
H2703 H 0.65196 0.37171 0.48549 0.0
H2704 H 0.6604 0.35658 0.47133 0.0
H2705 H 0.66042 0.36609 0.43255 0.0
H2706 H 0.7091 0.34814 0.39843 0.0
H2707 H 0.69229 0.35534 0.41075 0.0
H2708 H 0.69433 0.3411 0.44917 0.0
C2709 C 0.65999 0.3661 0.46853 0.0
C2710 C 0.66768 0.36049 0.43625 0.0
C2711 C 0.65515 0.37476 0.4766 0.0
C2712 C 0.70644 0.34275 0.40633 0.0
C2713 C 0.69667 0.34684 0.41337 0.0
C2714 C 0.6867 0.34615 0.44542 0.0
C2715 C 0.66435 0.36972 0.45699 0.0
C2716 C 0.67042 0.3608 0.44882 0.0
C2717 C 0.69327 0.34061 0.42411 0.0
C2718 C 0.68444 0.34632 0.43272 0.0
H2719 H 0.65876 0.40033 0.45894 0.0
H2720 H 0.66712 0.38516 0.44481 0.0
H2721 H 0.68207 0.35342 0.46304 0.0
H2722 H 0.7141 0.31751 0.4231 0.0
H2723 H 0.69682 0.32452 0.43525 0.0
C2724 C 0.89498 0.46987 0.66137 0.0
C2725 C 0.89075 0.46515 0.65015 0.0
C2726 C 0.89418 0.46286 0.67205 0.0
C2727 C 0.88908 0.43251 0.6854 0.0
H2728 H 0.86536 0.44886 0.70601 0.0
C2729 C 0.85805 0.40601 0.71862 0.0
C2730 C 0.85294 0.41214 0.72865 0.0
C2731 C 0.86565 0.41228 0.71048 0.0
C2732 C 0.87225 0.4442 0.70067 0.0
H2733 H 0.88364 0.44898 0.64108 0.0
H2734 H 0.88253 0.43663 0.65974 0.0
H2735 H 0.87461 0.45988 0.68917 0.0
H2736 H 0.85213 0.42921 0.73864 0.0
H2737 H 0.86601 0.44004 0.72494 0.0
H2738 H 0.88679 0.41681 0.6969 0.0
C2739 C 0.8863 0.4458 0.66026 0.0
C2740 C 0.87751 0.45056 0.69094 0.0
C2741 C 0.88686 0.45288 0.64961 0.0
C2742 C 0.85596 0.42439 0.73086 0.0
C2743 C 0.86382 0.43059 0.72293 0.0
C2744 C 0.88402 0.4262 0.69535 0.0
C2745 C 0.88942 0.45093 0.67163 0.0
C2746 C 0.88571 0.44468 0.68304 0.0
C2747 C 0.86846 0.42474 0.71239 0.0
C2748 C 0.87524 0.43185 0.7029 0.0
H2749 H 0.89802 0.47928 0.66208 0.0
H2750 H 0.89665 0.46697 0.68074 0.0
H2751 H 0.89541 0.42782 0.6794 0.0
H2752 H 0.85572 0.39654 0.71678 0.0
H2753 H 0.86882 0.40746 0.70242 0.0
C2754 C 0.63233 0.59137 0.22146 0.0
C2755 C 0.64366 0.58615 0.22444 0.0
C2756 C 0.62441 0.58537 0.21339 0.0
C2757 C 0.61775 0.55514 0.19991 0.0
H2758 H 0.60727 0.57315 0.17113 0.0
C2759 C 0.6108 0.54313 0.14722 0.0
C2760 C 0.60432 0.53207 0.14815 0.0
C2761 C 0.61146 0.55113 0.15718 0.0
C2762 C 0.60999 0.56804 0.17919 0.0
H2763 H 0.65541 0.57041 0.22156 0.0
H2764 H 0.64161 0.55999 0.20761 0.0
H2765 H 0.61682 0.58409 0.18818 0.0
H2766 H 0.59257 0.52122 0.1599 0.0
H2767 H 0.59381 0.5352 0.17736 0.0
H2768 H 0.61163 0.539 0.1907 0.0
C2769 C 0.63882 0.56868 0.21152 0.0
C2770 C 0.61538 0.57431 0.18897 0.0
C2771 C 0.64678 0.57471 0.21942 0.0
C2772 C 0.59771 0.52964 0.15892 0.0
C2773 C 0.59845 0.53761 0.16893 0.0
C2774 C 0.61231 0.54889 0.19019 0.0
C2775 C 0.62761 0.57398 0.20834 0.0
C2776 C 0.61975 0.56783 0.19919 0.0
C2777 C 0.6057 0.54821 0.1683 0.0
C2778 C 0.6088 0.55521 0.17953 0.0
H2779 H 0.62969 0.60019 0.22515 0.0
H2780 H 0.61581 0.58965 0.21106 0.0
H2781 H 0.62092 0.54996 0.20776 0.0
H2782 H 0.61588 0.54535 0.139 0.0
H2783 H 0.6172 0.55917 0.15641 0.0
C2784 C 0.57267 0.71281 0.83496 0.0
C2785 C 0.58469 0.71401 0.83927 0.0
C2786 C 0.56464 0.70458 0.8406 0.0
C2787 C 0.55919 0.69326 0.87084 0.0
H2788 H 0.53833 0.66829 0.85679 0.0
C2789 C 0.53075 0.66254 0.90197 0.0
C2790 C 0.51893 0.65948 0.8982 0.0
C2791 C 0.53883 0.66806 0.89382 0.0
C2792 C 0.54398 0.67534 0.86083 0.0
H2793 H 0.59801 0.70666 0.85204 0.0
H2794 H 0.58399 0.69252 0.86187 0.0
H2795 H 0.55227 0.67979 0.84352 0.0
H2796 H 0.50632 0.65956 0.8829 0.0
H2797 H 0.52028 0.66971 0.86877 0.0
H2798 H 0.55079 0.68935 0.88799 0.0
C2799 C 0.58076 0.69803 0.85427 0.0
C2800 C 0.55197 0.68186 0.85323 0.0
C2801 C 0.58876 0.70615 0.84864 0.0
C2802 C 0.51541 0.66182 0.88604 0.0
C2803 C 0.52344 0.66757 0.87792 0.0
C2804 C 0.55113 0.68694 0.87836 0.0
C2805 C 0.56854 0.6975 0.85061 0.0
C2806 C 0.55975 0.69073 0.85825 0.0
C2807 C 0.5352 0.67091 0.88177 0.0
C2808 C 0.54354 0.67776 0.87351 0.0
H2809 H 0.56927 0.71869 0.82774 0.0
H2810 H 0.55522 0.7043 0.83765 0.0
H2811 H 0.56495 0.70026 0.87486 0.0
H2812 H 0.53378 0.66063 0.91123 0.0
H2813 H 0.54793 0.67016 0.89702 0.0
C2814 C 0.53378 0.3384 0.10505 0.0
C2815 C 0.52863 0.3357 0.09356 0.0
C2816 C 0.54365 0.33169 0.10945 0.0
C2817 C 0.55822 0.30154 0.1061 0.0
H2818 H 0.58188 0.316 0.1282 0.0
C2819 C 0.59345 0.27235 0.13235 0.0
C2820 C 0.59291 0.27418 0.14511 0.0
C2821 C 0.58785 0.28064 0.12437 0.0
C2822 C 0.57537 0.31186 0.12198 0.0
H2823 H 0.53021 0.32413 0.07745 0.0
H2824 H 0.54762 0.31252 0.08508 0.0
H2825 H 0.56803 0.32924 0.11676 0.0
H2826 H 0.58668 0.28645 0.15945 0.0
H2827 H 0.57705 0.30096 0.1455 0.0
H2828 H 0.56549 0.28416 0.1115 0.0
C2829 C 0.54384 0.3197 0.09078 0.0
C2830 C 0.5674 0.31942 0.11548 0.0
C2831 C 0.53388 0.32638 0.08639 0.0
C2832 C 0.58718 0.28475 0.14967 0.0
C2833 C 0.58175 0.29311 0.14169 0.0
C2834 C 0.56629 0.294 0.11251 0.0
C2835 C 0.54872 0.32215 0.10245 0.0
C2836 C 0.55845 0.31432 0.10778 0.0
C2837 C 0.5818 0.291 0.12898 0.0
C2838 C 0.57468 0.29908 0.12078 0.0
H2839 H 0.53 0.3455 0.11085 0.0
H2840 H 0.54699 0.33371 0.11857 0.0
H2841 H 0.55137 0.29728 0.10037 0.0
H2842 H 0.59778 0.26429 0.12855 0.0
H2843 H 0.58805 0.27885 0.1146 0.0
C2844 C 0.96812 0.32604 0.40031 0.0
C2845 C 0.9786 0.33186 0.39582 0.0
C2846 C 0.96045 0.31966 0.39241 0.0
C2847 C 0.95214 0.31513 0.35985 0.0
H2848 H 0.93831 0.28515 0.37295 0.0
C2849 C 0.92318 0.27562 0.33592 0.0
C2850 C 0.91173 0.27446 0.34161 0.0
C2851 C 0.93184 0.28383 0.34057 0.0
C2852 C 0.94217 0.29348 0.36918 0.0
H2853 H 0.98913 0.33583 0.37948 0.0
H2854 H 0.97582 0.32431 0.36564 0.0
H2855 H 0.95287 0.29669 0.38515 0.0
H2856 H 0.90006 0.28178 0.35596 0.0
H2857 H 0.91523 0.29582 0.36409 0.0
H2858 H 0.94134 0.31161 0.34375 0.0
C2859 C 0.97347 0.32485 0.37527 0.0
C2860 C 0.95041 0.30015 0.37618 0.0
C2861 C 0.98111 0.3314 0.38319 0.0
C2862 C 0.90883 0.28227 0.35145 0.0
C2863 C 0.91747 0.29036 0.3561 0.0
C2864 C 0.94394 0.30831 0.35275 0.0
C2865 C 0.96315 0.31876 0.37985 0.0
C2866 C 0.95526 0.31123 0.37176 0.0
C2867 C 0.92912 0.29092 0.35094 0.0
C2868 C 0.93873 0.2976 0.35752 0.0
H2869 H 0.96579 0.32644 0.40995 0.0
H2870 H 0.95237 0.3154 0.3962 0.0
H2871 H 0.95569 0.32363 0.3562 0.0
H2872 H 0.92568 0.26978 0.3283 0.0
H2873 H 0.94084 0.28413 0.33653 0.0
C2874 C 0.96311 0.66911 0.57965 0.0
C2875 C 0.96673 0.65873 0.58636 0.0
C2876 C 0.95336 0.67634 0.58366 0.0
C2877 C 0.92782 0.67717 0.60637 0.0
H2878 H 0.93451 0.71206 0.60681 0.0
C2879 C 0.911 0.70991 0.64377 0.0
C2880 C 0.90617 0.72129 0.64023 0.0
C2881 C 0.91604 0.70206 0.63505 0.0
C2882 C 0.9324 0.70237 0.60656 0.0
H2883 H 0.96245 0.64744 0.6022 0.0
H2884 H 0.94584 0.66009 0.6093 0.0
H2885 H 0.94756 0.69845 0.59493 0.0
H2886 H 0.9027 0.73333 0.62479 0.0
H2887 H 0.91189 0.71965 0.60955 0.0
H2888 H 0.91314 0.68109 0.6187 0.0
C2889 C 0.95033 0.66262 0.60083 0.0
C2890 C 0.93984 0.69455 0.59972 0.0
C2891 C 0.95999 0.6554 0.59681 0.0
C2892 C 0.90632 0.72459 0.62777 0.0
C2893 C 0.91159 0.71681 0.61906 0.0
C2894 C 0.9205 0.68497 0.61334 0.0
C2895 C 0.94705 0.67333 0.59448 0.0
C2896 C 0.93787 0.6818 0.59986 0.0
C2897 C 0.91653 0.7055 0.62266 0.0
C2898 C 0.92294 0.69758 0.61376 0.0
H2899 H 0.96803 0.6719 0.57151 0.0
H2900 H 0.95095 0.68442 0.57844 0.0
H2901 H 0.92585 0.66744 0.60645 0.0
H2902 H 0.91095 0.7071 0.65329 0.0
H2903 H 0.91992 0.69344 0.63807 0.0
C2904 C 0.51664 0.33465 0.61218 0.0
C2905 C 0.51996 0.33668 0.59991 0.0
C2906 C 0.52469 0.32882 0.62023 0.0
C2907 C 0.55195 0.30881 0.61954 0.0
H2908 H 0.55414 0.3166 0.65419 0.0
C2909 C 0.59003 0.28948 0.64857 0.0
C2910 C 0.58601 0.28168 0.658 0.0
C2911 C 0.58205 0.29775 0.64311 0.0
C2912 C 0.55355 0.31436 0.64453 0.0
H2913 H 0.53451 0.33492 0.58661 0.0
H2914 H 0.54869 0.32526 0.60067 0.0
H2915 H 0.54004 0.3281 0.64105 0.0
H2916 H 0.57075 0.27726 0.66985 0.0
H2917 H 0.55676 0.2919 0.66023 0.0
H2918 H 0.56565 0.29533 0.62293 0.0
C2919 C 0.53972 0.32763 0.60402 0.0
C2920 C 0.54547 0.32087 0.63702 0.0
C2921 C 0.53161 0.33323 0.59595 0.0
C2922 C 0.57411 0.28309 0.66256 0.0
C2923 C 0.56611 0.29147 0.6571 0.0
C2924 C 0.56011 0.3025 0.62696 0.0
C2925 C 0.53628 0.3251 0.61619 0.0
C2926 C 0.54465 0.31821 0.62439 0.0
C2927 C 0.56992 0.29847 0.64701 0.0
C2928 C 0.56105 0.30526 0.63948 0.0
H2929 H 0.50769 0.33724 0.61547 0.0
H2930 H 0.52169 0.32693 0.6295 0.0
H2931 H 0.55133 0.30621 0.60998 0.0
H2932 H 0.59919 0.28881 0.64496 0.0
H2933 H 0.5852 0.30319 0.63542 0.0
C2934 C 0.96483 0.32443 0.91491 0.0
C2935 C 0.96787 0.33494 0.90808 0.0
C2936 C 0.9551 0.31697 0.91131 0.0
C2937 C 0.92824 0.31586 0.89034 0.0
H2938 H 0.93552 0.28112 0.88876 0.0
C2939 C 0.90973 0.28387 0.8533 0.0
C2940 C 0.90574 0.2721 0.85659 0.0
C2941 C 0.91495 0.2916 0.86202 0.0
C2942 C 0.93324 0.29076 0.88936 0.0
H2943 H 0.96266 0.3461 0.89244 0.0
H2944 H 0.94601 0.33305 0.8861 0.0
H2945 H 0.9491 0.29478 0.89998 0.0
H2946 H 0.90387 0.25924 0.87164 0.0
H2947 H 0.91337 0.27273 0.88689 0.0
H2948 H 0.91279 0.31187 0.87904 0.0
C2949 C 0.95097 0.33062 0.89433 0.0
C2950 C 0.941 0.2986 0.89581 0.0
C2951 C 0.96065 0.33806 0.89791 0.0
C2952 C 0.90685 0.26829 0.86886 0.0
C2953 C 0.9123 0.27596 0.87756 0.0
C2954 C 0.92057 0.30804 0.88379 0.0
C2955 C 0.9482 0.31986 0.90084 0.0
C2956 C 0.93882 0.31131 0.89601 0.0
C2957 C 0.91647 0.28765 0.87418 0.0
C2958 C 0.92322 0.29549 0.88292 0.0
H2959 H 0.97015 0.32179 0.92284 0.0
H2960 H 0.95311 0.30882 0.91662 0.0
H2961 H 0.92613 0.32555 0.89056 0.0
H2962 H 0.90892 0.28709 0.84394 0.0
H2963 H 0.91822 0.30051 0.85913 0.0
C2964 C 0.98098 0.66438 0.11266 0.0
C2965 C 0.97715 0.66218 0.10058 0.0
C2966 C 0.97289 0.66932 0.12125 0.0
C2967 C 0.94361 0.68623 0.12263 0.0
H2968 H 0.94449 0.67773 0.15717 0.0
C2969 C 0.90638 0.70272 0.15403 0.0
C2970 C 0.91072 0.71107 0.16283 0.0
C2971 C 0.91432 0.69454 0.14836 0.0
C2972 C 0.94418 0.68012 0.14753 0.0
H2973 H 0.96178 0.66273 0.08814 0.0
H2974 H 0.94759 0.6708 0.10313 0.0
H2975 H 0.95885 0.66801 0.14291 0.0
H2976 H 0.92647 0.71637 0.17362 0.0
H2977 H 0.94037 0.70193 0.16365 0.0
H2978 H 0.92883 0.6981 0.12717 0.0
C2979 C 0.95692 0.6693 0.10593 0.0
C2980 C 0.95242 0.67466 0.13938 0.0
C2981 C 0.96505 0.66463 0.09732 0.0
C2982 C 0.92286 0.7101 0.16683 0.0
C2983 C 0.93082 0.70184 0.16115 0.0
C2984 C 0.93529 0.69147 0.13068 0.0
C2985 C 0.96077 0.67191 0.11796 0.0
C2986 C 0.95219 0.67764 0.12681 0.0
C2987 C 0.92671 0.69449 0.15144 0.0
C2988 C 0.93546 0.68844 0.14317 0.0
H2989 H 0.99028 0.66252 0.1154 0.0
H2990 H 0.97621 0.67132 0.13038 0.0
H2991 H 0.94337 0.68907 0.11312 0.0
H2992 H 0.89703 0.70306 0.1509 0.0
H2993 H 0.91094 0.68881 0.14099 0.0
C2994 C 0.53448 0.66845 0.40874 0.0
C2995 C 0.53049 0.65734 0.40357 0.0
C2996 C 0.54387 0.67514 0.40321 0.0
C2997 C 0.55557 0.68059 0.37276 0.0
H2998 H 0.58265 0.697 0.38857 0.0
C2999 C 0.58807 0.70973 0.34425 0.0
C3000 C 0.59179 0.72095 0.34928 0.0
C3001 C 0.58254 0.70088 0.35161 0.0
C3002 C 0.57507 0.69257 0.38404 0.0
H3003 H 0.53392 0.64411 0.38907 0.0
H3004 H 0.55013 0.65582 0.37946 0.0
H3005 H 0.56936 0.68355 0.40059 0.0
H3006 H 0.59312 0.73158 0.36602 0.0
H3007 H 0.58297 0.71635 0.37881 0.0
H3008 H 0.56069 0.6899 0.35641 0.0
C3009 C 0.5459 0.65941 0.38769 0.0
C3010 C 0.56751 0.68484 0.39092 0.0
C3011 C 0.53661 0.65271 0.39323 0.0
C3012 C 0.59036 0.72297 0.36192 0.0
C3013 C 0.58459 0.7142 0.36925 0.0
C3014 C 0.56296 0.6884 0.36595 0.0
C3015 C 0.54936 0.67085 0.3924 0.0
C3016 C 0.55772 0.67877 0.3853 0.0
C3017 C 0.58033 0.70317 0.36412 0.0
C3018 C 0.57284 0.69449 0.37146 0.0
H3019 H 0.53002 0.67226 0.41674 0.0
H3020 H 0.54637 0.68397 0.407 0.0
H3021 H 0.54792 0.67622 0.36825 0.0
H3022 H 0.58925 0.70787 0.33457 0.0
H3023 H 0.57974 0.69235 0.3474 0.0
C3024 C 0.84019 0.58524 0.70644 0.0
C3025 C 0.82953 0.58353 0.71336 0.0
C3026 C 0.84247 0.57808 0.6961 0.0
C3027 C 0.83486 0.54791 0.68348 0.0
H3028 H 0.85357 0.5597 0.65573 0.0
C3029 C 0.85237 0.51559 0.6454 0.0
C3030 C 0.86488 0.51681 0.64297 0.0
C3031 C 0.84625 0.52443 0.65233 0.0
C3032 C 0.84831 0.5563 0.66341 0.0
H3033 H 0.81253 0.57341 0.71435 0.0
H3034 H 0.81645 0.56103 0.69617 0.0
H3035 H 0.84562 0.5743 0.67068 0.0
H3036 H 0.88069 0.52848 0.64557 0.0
H3037 H 0.87001 0.54385 0.65762 0.0
H3038 H 0.83777 0.52988 0.67632 0.0
C3039 C 0.82317 0.56775 0.69893 0.0
C3040 C 0.84379 0.56464 0.67198 0.0
C3041 C 0.82091 0.57489 0.70933 0.0
C3042 C 0.87106 0.52721 0.64733 0.0
C3043 C 0.86493 0.53609 0.65414 0.0
C3044 C 0.83931 0.53958 0.67486 0.0
C3045 C 0.8341 0.56908 0.69236 0.0
C3046 C 0.83731 0.56051 0.6823 0.0
C3047 C 0.8525 0.53472 0.65682 0.0
C3048 C 0.84636 0.54367 0.66493 0.0
H3049 H 0.84703 0.59183 0.70923 0.0
H3050 H 0.85106 0.57926 0.69137 0.0
H3051 H 0.83004 0.54438 0.69139 0.0
H3052 H 0.84734 0.50768 0.64217 0.0
H3053 H 0.83665 0.52319 0.65423 0.0
C3054 C 0.72279 0.64874 0.92221 0.0
C3055 C 0.72882 0.64531 0.91137 0.0
C3056 C 0.71531 0.64043 0.92833 0.0
C3057 C 0.69655 0.6133 0.92423 0.0
H3058 H 0.70013 0.61017 0.95948 0.0
C3059 C 0.6749 0.58572 0.9685 0.0
C3060 C 0.66263 0.58919 0.96729 0.0
C3061 C 0.68365 0.59028 0.9604 0.0
C3062 C 0.69914 0.6108 0.94962 0.0
H3063 H 0.73149 0.63051 0.89833 0.0
H3064 H 0.71824 0.61602 0.90903 0.0
H3065 H 0.7142 0.62313 0.94802 0.0
H3066 H 0.64977 0.59933 0.9561 0.0
H3067 H 0.66504 0.60714 0.94189 0.0
H3068 H 0.68119 0.60128 0.92595 0.0
C3069 C 0.71941 0.62515 0.91276 0.0
C3070 C 0.7071 0.61831 0.94309 0.0
C3071 C 0.72702 0.63343 0.90668 0.0
C3072 C 0.65917 0.59658 0.95732 0.0
C3073 C 0.66789 0.60098 0.94913 0.0
C3074 C 0.68847 0.60589 0.9308 0.0
C3075 C 0.7136 0.62855 0.92371 0.0
C3076 C 0.70576 0.61978 0.93038 0.0
C3077 C 0.68025 0.59821 0.95084 0.0
C3078 C 0.6896 0.60472 0.94358 0.0
H3079 H 0.72395 0.65781 0.92607 0.0
H3080 H 0.71079 0.64332 0.93668 0.0
H3081 H 0.69532 0.61432 0.91443 0.0
H3082 H 0.67784 0.58005 0.97609 0.0
H3083 H 0.69313 0.58795 0.96185 0.0
C3084 C 0.64784 0.40736 0.21044 0.0
C3085 C 0.65914 0.40987 0.21596 0.0
C3086 C 0.6438 0.41429 0.20049 0.0
C3087 C 0.65348 0.43551 0.17612 0.0
H3088 H 0.62087 0.44866 0.17967 0.0
C3089 C 0.63571 0.47626 0.14743 0.0
C3090 C 0.62332 0.47644 0.14423 0.0
C3091 C 0.64029 0.46708 0.15507 0.0
C3092 C 0.62991 0.44491 0.17838 0.0
H3093 H 0.67532 0.42126 0.21493 0.0
H3094 H 0.66823 0.43335 0.19754 0.0
H3095 H 0.62858 0.43425 0.19477 0.0
H3096 H 0.60614 0.46676 0.14604 0.0
H3097 H 0.61418 0.45061 0.15907 0.0
H3098 H 0.65481 0.44621 0.15972 0.0
C3099 C 0.66252 0.42601 0.20094 0.0
C3100 C 0.63433 0.43666 0.18706 0.0
C3101 C 0.66654 0.41913 0.21096 0.0
C3102 C 0.6157 0.467 0.14848 0.0
C3103 C 0.6203 0.45776 0.15599 0.0
C3104 C 0.64901 0.4437 0.16735 0.0
C3105 C 0.65101 0.42382 0.19579 0.0
C3106 C 0.64619 0.43197 0.18609 0.0
C3107 C 0.6326 0.45781 0.15957 0.0
C3108 C 0.63721 0.44858 0.16845 0.0
H3109 H 0.64193 0.40025 0.21399 0.0
H3110 H 0.63495 0.41232 0.19659 0.0
H3111 H 0.66262 0.43194 0.17511 0.0
H3112 H 0.64181 0.48342 0.14433 0.0
H3113 H 0.64977 0.46748 0.15775 0.0
C3114 C 0.77942 0.34561 0.41779 0.0
C3115 C 0.76897 0.34995 0.4118 0.0
C3116 C 0.78709 0.35366 0.42398 0.0
C3117 C 0.79555 0.3863 0.42729 0.0
H3118 H 0.80973 0.37422 0.45754 0.0
C3119 C 0.82551 0.41166 0.46506 0.0
C3120 C 0.83684 0.40577 0.46647 0.0
C3121 C 0.81666 0.40673 0.45722 0.0
C3122 C 0.80577 0.37771 0.44913 0.0
H3123 H 0.75847 0.36621 0.40741 0.0
H3124 H 0.77178 0.38031 0.41855 0.0
H3125 H 0.79491 0.36171 0.44667 0.0
H3126 H 0.8481 0.39075 0.45991 0.0
H3127 H 0.83261 0.38216 0.44651 0.0
H3128 H 0.80652 0.40242 0.43004 0.0
C3129 C 0.77411 0.37067 0.41829 0.0
C3130 C 0.79738 0.37053 0.44284 0.0
C3131 C 0.76646 0.36259 0.41195 0.0
C3132 C 0.83943 0.39543 0.45921 0.0
C3133 C 0.83061 0.39051 0.4515 0.0
C3134 C 0.8039 0.39358 0.43372 0.0
C3135 C 0.78443 0.36625 0.4245 0.0
C3136 C 0.79242 0.37457 0.43167 0.0
C3137 C 0.81906 0.39589 0.45076 0.0
C3138 C 0.80925 0.38916 0.44452 0.0
H3139 H 0.78174 0.33595 0.41766 0.0
H3140 H 0.79515 0.34998 0.42835 0.0
H3141 H 0.79192 0.38965 0.41869 0.0
H3142 H 0.82324 0.41965 0.47049 0.0
H3143 H 0.80775 0.41096 0.45677 0.0
C3144 C 0.82673 0.42229 0.7847 0.0
C3145 C 0.83109 0.41031 0.78305 0.0
C3146 C 0.82953 0.4288 0.79535 0.0
C3147 C 0.85323 0.42936 0.81922 0.0
H3148 H 0.83383 0.45641 0.83144 0.0
C3149 C 0.85672 0.47249 0.85573 0.0
C3150 C 0.86874 0.47607 0.85307 0.0
C3151 C 0.85116 0.46308 0.84907 0.0
C3152 C 0.8393 0.44876 0.82831 0.0
H3153 H 0.84089 0.39535 0.79165 0.0
H3154 H 0.84539 0.40653 0.81044 0.0
H3155 H 0.82486 0.44189 0.8171 0.0
H3156 H 0.8843 0.47259 0.8413 0.0
H3157 H 0.87453 0.45656 0.8295 0.0
H3158 H 0.8676 0.43608 0.83054 0.0
C3159 C 0.84021 0.41109 0.80334 0.0
C3160 C 0.8342 0.44053 0.81995 0.0
C3161 C 0.83758 0.40466 0.7926 0.0
C3162 C 0.87506 0.47002 0.84365 0.0
C3163 C 0.86948 0.46073 0.83694 0.0
C3164 C 0.85826 0.43748 0.82768 0.0
C3165 C 0.8366 0.4234 0.80466 0.0
C3166 C 0.84123 0.43095 0.815 0.0
C3167 C 0.85747 0.45712 0.83956 0.0
C3168 C 0.85151 0.44753 0.832 0.0
H3169 H 0.82172 0.42689 0.77749 0.0
H3170 H 0.82671 0.43829 0.79594 0.0
H3171 H 0.85899 0.42219 0.81556 0.0
H3172 H 0.85163 0.4769 0.863 0.0
H3173 H 0.84194 0.46044 0.8514 0.0
C3174 C 0.77138 0.6334 0.08866 0.0
C3175 C 0.76941 0.64486 0.08309 0.0
C3176 C 0.77839 0.62446 0.0828 0.0
C3177 C 0.78876 0.61501 0.0523 0.0
H3178 H 0.81503 0.59855 0.06942 0.0
C3179 C 0.83631 0.5929 0.03792 0.0
C3180 C 0.83274 0.5857 0.02786 0.0
C3181 C 0.82768 0.5972 0.04625 0.0
C3182 C 0.80764 0.60299 0.06457 0.0
H3183 H 0.77338 0.65595 0.06706 0.0
H3184 H 0.78557 0.64034 0.05686 0.0
H3185 H 0.80166 0.61256 0.08064 0.0
H3186 H 0.81747 0.57661 0.01912 0.0
H3187 H 0.80233 0.58426 0.03368 0.0
H3188 H 0.79497 0.60586 0.03615 0.0
C3189 C 0.7816 0.63826 0.06572 0.0
C3190 C 0.79998 0.61095 0.07099 0.0
C3191 C 0.77471 0.64723 0.07161 0.0
C3192 C 0.82049 0.58217 0.02677 0.0
C3193 C 0.81182 0.58659 0.03505 0.0
C3194 C 0.79634 0.60699 0.04592 0.0
C3195 C 0.78343 0.62676 0.07121 0.0
C3196 C 0.79069 0.61729 0.06482 0.0
C3197 C 0.8153 0.59447 0.04463 0.0
C3198 C 0.80605 0.60115 0.05192 0.0
H3199 H 0.76746 0.63129 0.09753 0.0
H3200 H 0.77967 0.61566 0.08723 0.0
H3201 H 0.78155 0.61966 0.04737 0.0
H3202 H 0.84571 0.59568 0.03907 0.0
H3203 H 0.83063 0.60332 0.05348 0.0
C3204 C 0.64996 0.59108 0.28642 0.0
C3205 C 0.66069 0.58817 0.28001 0.0
C3206 C 0.64623 0.58399 0.29636 0.0
C3207 C 0.65564 0.56121 0.31922 0.0
H3208 H 0.62262 0.54916 0.31549 0.0
C3209 C 0.63699 0.52035 0.34714 0.0
C3210 C 0.62461 0.52037 0.35038 0.0
C3211 C 0.64172 0.5295 0.33957 0.0
C3212 C 0.63177 0.5526 0.31685 0.0
H3213 H 0.67637 0.57605 0.27962 0.0
H3214 H 0.66982 0.5637 0.2971 0.0
H3215 H 0.63058 0.56401 0.30097 0.0
H3216 H 0.60758 0.53028 0.34864 0.0
H3217 H 0.61588 0.54645 0.33577 0.0
H3218 H 0.65681 0.54985 0.33517 0.0
C3219 C 0.6643 0.57145 0.29433 0.0
C3220 C 0.63634 0.56109 0.30849 0.0
C3221 C 0.66801 0.57849 0.28429 0.0
C3222 C 0.61713 0.52992 0.34617 0.0
C3223 C 0.62189 0.53916 0.33874 0.0
C3224 C 0.65101 0.55281 0.32771 0.0
C3225 C 0.65319 0.57392 0.3002 0.0
C3226 C 0.64832 0.56542 0.30955 0.0
C3227 C 0.6342 0.53898 0.33519 0.0
C3228 C 0.63904 0.54833 0.32657 0.0
H3229 H 0.64414 0.59853 0.28347 0.0
H3230 H 0.63771 0.58618 0.30086 0.0
H3231 H 0.6649 0.56447 0.32025 0.0
H3232 H 0.64298 0.51308 0.3502 0.0
H3233 H 0.65119 0.52894 0.33688 0.0
C3234 C 0.67514 0.40758 0.52875 0.0
C3235 C 0.66244 0.40623 0.52912 0.0
C3236 C 0.6823 0.4031 0.53836 0.0
C3237 C 0.69592 0.39457 0.56108 0.0
H3238 H 0.68464 0.36253 0.57148 0.0
C3239 C 0.72449 0.3629 0.59254 0.0
C3240 C 0.72514 0.3506 0.58871 0.0
C3241 C 0.71612 0.37093 0.58719 0.0
C3242 C 0.68793 0.37146 0.56867 0.0
H3243 H 0.64715 0.40042 0.54025 0.0
H3244 H 0.65958 0.39308 0.5572 0.0
H3245 H 0.6716 0.37522 0.55884 0.0
H3246 H 0.71733 0.33707 0.5764 0.0
H3247 H 0.70293 0.35107 0.56701 0.0
H3248 H 0.71259 0.39037 0.57037 0.0
C3249 C 0.66408 0.3971 0.54934 0.0
C3250 C 0.68037 0.37885 0.56157 0.0
C3251 C 0.65696 0.40136 0.53967 0.0
C3252 C 0.71709 0.34647 0.57959 0.0
C3253 C 0.70876 0.35449 0.57426 0.0
C3254 C 0.70353 0.38712 0.56816 0.0
C3255 C 0.67685 0.39737 0.54854 0.0
C3256 C 0.68436 0.39039 0.55746 0.0
C3257 C 0.70822 0.36682 0.57794 0.0
C3258 C 0.69971 0.37536 0.57176 0.0
H3259 H 0.67957 0.4113 0.5207 0.0
H3260 H 0.69211 0.40341 0.5374 0.0
H3261 H 0.69922 0.40346 0.55818 0.0
H3262 H 0.73052 0.36638 0.59959 0.0
H3263 H 0.71584 0.38036 0.59029 0.0
C3264 C 0.7085 0.84951 0.59252 0.0
C3265 C 0.71574 0.84005 0.58766 0.0
C3266 C 0.69926 0.85477 0.58554 0.0
C3267 C 0.67935 0.85266 0.55901 0.0
H3268 H 0.68683 0.88718 0.55513 0.0
C3269 C 0.65636 0.88348 0.52231 0.0
C3270 C 0.65503 0.89601 0.52494 0.0
C3271 C 0.66238 0.87574 0.53054 0.0
C3272 C 0.68438 0.87764 0.55628 0.0
H3273 H 0.71815 0.8279 0.57209 0.0
H3274 H 0.70181 0.83714 0.55987 0.0
H3275 H 0.69914 0.8747 0.5687 0.0
H3276 H 0.65814 0.91013 0.53853 0.0
H3277 H 0.66806 0.89661 0.55316 0.0
H3278 H 0.66441 0.85566 0.54675 0.0
C3279 C 0.70344 0.84047 0.56908 0.0
C3280 C 0.69152 0.87047 0.564 0.0
C3281 C 0.71279 0.83522 0.57607 0.0
C3282 C 0.65923 0.90054 0.5362 0.0
C3283 C 0.665 0.89278 0.54453 0.0
C3284 C 0.67202 0.85991 0.5514 0.0
C3285 C 0.69697 0.85062 0.5736 0.0
C3286 C 0.68908 0.85795 0.56546 0.0
C3287 C 0.66699 0.88036 0.54167 0.0
C3288 C 0.67446 0.87252 0.54995 0.0
H3289 H 0.71035 0.85332 0.6015 0.0
H3290 H 0.69427 0.86249 0.58926 0.0
H3291 H 0.67733 0.843 0.56001 0.0
H3292 H 0.65323 0.87976 0.51366 0.0
H3293 H 0.66383 0.86628 0.52795 0.0
C3294 C 0.21078 0.6452 0.40353 0.0
C3295 C 0.21711 0.65571 0.40742 0.0
C3296 C 0.20225 0.63963 0.41115 0.0
C3297 C 0.183 0.6427 0.43842 0.0
H3298 H 0.19092 0.60836 0.44296 0.0
C3299 C 0.16161 0.61249 0.47672 0.0
C3300 C 0.15961 0.60008 0.47396 0.0
C3301 C 0.16763 0.62009 0.46834 0.0
C3302 C 0.1884 0.61787 0.44167 0.0
H3303 H 0.21864 0.66918 0.42201 0.0
H3304 H 0.20361 0.65937 0.43534 0.0
H3305 H 0.20248 0.6205 0.42844 0.0
H3306 H 0.16162 0.58606 0.46002 0.0
H3307 H 0.17169 0.59931 0.4453 0.0
H3308 H 0.16877 0.63998 0.4516 0.0
C3309 C 0.20537 0.65547 0.42638 0.0
C3310 C 0.19507 0.62483 0.43337 0.0
C3311 C 0.214 0.66105 0.41875 0.0
C3312 C 0.16327 0.59553 0.46251 0.0
C3313 C 0.16909 0.60313 0.45409 0.0
C3314 C 0.17617 0.63565 0.44668 0.0
C3315 C 0.19978 0.64446 0.42281 0.0
C3316 C 0.19241 0.63729 0.43161 0.0
C3317 C 0.17161 0.61544 0.45699 0.0
C3318 C 0.17877 0.62312 0.44834 0.0
H3319 H 0.21278 0.64093 0.39479 0.0
H3320 H 0.19789 0.63126 0.40812 0.0
H3321 H 0.1808 0.6523 0.43722 0.0
H3322 H 0.15886 0.61624 0.48549 0.0
H3323 H 0.16949 0.62949 0.47092 0.0
C3324 C 0.62564 0.9045 0.72002 0.0
C3325 C 0.61887 0.89468 0.72481 0.0
C3326 C 0.62064 0.91218 0.71114 0.0
C3327 C 0.61074 0.92381 0.6883 0.0
H3328 H 0.57697 0.93368 0.69137 0.0
C3329 C 0.59013 0.95903 0.65522 0.0
C3330 C 0.58254 0.96797 0.66046 0.0
C3331 C 0.59341 0.94862 0.66187 0.0
C3332 C 0.58644 0.93107 0.69041 0.0
H3333 H 0.60162 0.88505 0.7238 0.0
H3334 H 0.59299 0.89829 0.70802 0.0
H3335 H 0.58528 0.9185 0.7054 0.0
H3336 H 0.5722 0.97289 0.67666 0.0
H3337 H 0.57831 0.95501 0.68846 0.0
H3338 H 0.61216 0.93692 0.67388 0.0
C3339 C 0.60207 0.90022 0.71136 0.0
C3340 C 0.59116 0.92222 0.69835 0.0
C3341 C 0.60703 0.8926 0.72037 0.0
C3342 C 0.57803 0.96613 0.67236 0.0
C3343 C 0.58147 0.95582 0.67909 0.0
C3344 C 0.60607 0.93276 0.68048 0.0
C3345 C 0.6088 0.91015 0.70669 0.0
C3346 C 0.60343 0.91866 0.69754 0.0
C3347 C 0.58935 0.94701 0.67399 0.0
C3348 C 0.59392 0.93666 0.68156 0.0
H3349 H 0.63475 0.90642 0.72329 0.0
H3350 H 0.626 0.91988 0.70797 0.0
H3351 H 0.62016 0.92111 0.68723 0.0
H3352 H 0.5936 0.96011 0.64598 0.0
H3353 H 0.59925 0.9419 0.65754 0.0
C3354 C 0.33807 0.40171 0.96013 0.0
C3355 C 0.34195 0.39665 0.97129 0.0
C3356 C 0.33238 0.3944 0.95135 0.0
C3357 C 0.32496 0.36203 0.94293 0.0
H3358 H 0.29759 0.37775 0.9269 0.0
C3359 C 0.28438 0.33715 0.91915 0.0
C3360 C 0.28005 0.34241 0.9082 0.0
C3361 C 0.29386 0.34271 0.92568 0.0
C3362 C 0.30531 0.37327 0.93117 0.0
H3363 H 0.34334 0.37991 0.98188 0.0
H3364 H 0.33291 0.36719 0.96677 0.0
H3365 H 0.3104 0.38958 0.94057 0.0
H3366 H 0.28299 0.35709 0.89505 0.0
H3367 H 0.29938 0.36674 0.90649 0.0
H3368 H 0.31931 0.34553 0.93382 0.0
C3369 C 0.33453 0.37674 0.96463 0.0
C3370 C 0.31271 0.38007 0.93898 0.0
C3371 C 0.34045 0.38404 0.97333 0.0
C3372 C 0.28594 0.35287 0.90354 0.0
C3373 C 0.29533 0.35843 0.91008 0.0
C3374 C 0.31741 0.35517 0.93519 0.0
C3375 C 0.33018 0.3819 0.95363 0.0
C3376 C 0.32266 0.37457 0.94497 0.0
C3377 C 0.29911 0.35364 0.92139 0.0
C3378 C 0.30753 0.36076 0.92923 0.0
H3379 H 0.33931 0.41138 0.95823 0.0
H3380 H 0.3295 0.39863 0.94285 0.0
H3381 H 0.3326 0.35752 0.94729 0.0
H3382 H 0.28011 0.32907 0.92297 0.0
H3383 H 0.2966 0.33885 0.9344 0.0
C3384 C 0.40366 0.54082 0.65186 0.0
C3385 C 0.41364 0.5337 0.65567 0.0
C3386 C 0.40028 0.55124 0.65843 0.0
C3387 C 0.40912 0.57304 0.68274 0.0
H3388 H 0.37543 0.56949 0.69277 0.0
C3389 C 0.38941 0.59711 0.72552 0.0
C3390 C 0.37714 0.60069 0.72533 0.0
C3391 C 0.39436 0.59051 0.71574 0.0
C3392 C 0.38477 0.57085 0.6899 0.0
H3393 H 0.42865 0.53268 0.6686 0.0
H3394 H 0.42269 0.55088 0.68008 0.0
H3395 H 0.38366 0.55604 0.67716 0.0
H3396 H 0.36055 0.60068 0.71452 0.0
H3397 H 0.36924 0.58953 0.69734 0.0
H3398 H 0.41023 0.58784 0.69558 0.0
C3399 C 0.41747 0.54835 0.67204 0.0
C3400 C 0.38949 0.5631 0.68094 0.0
C3401 C 0.42084 0.53788 0.66549 0.0
C3402 C 0.36999 0.59785 0.71503 0.0
C3403 C 0.37498 0.59143 0.70519 0.0
C3404 C 0.40434 0.58093 0.69164 0.0
C3405 C 0.40685 0.55479 0.66889 0.0
C3406 C 0.40174 0.56401 0.67738 0.0
C3407 C 0.38717 0.58751 0.70549 0.0
C3408 C 0.39215 0.5798 0.69544 0.0
H3409 H 0.39802 0.538 0.64422 0.0
H3410 H 0.39217 0.55619 0.6557 0.0
H3411 H 0.41859 0.57394 0.68012 0.0
H3412 H 0.39513 0.59916 0.73335 0.0
H3413 H 0.40373 0.58748 0.71638 0.0
C3414 C 0.7829 0.15897 0.07849 0.0
C3415 C 0.77997 0.15321 0.08966 0.0
C3416 C 0.79159 0.15382 0.07064 0.0
C3417 C 0.80189 0.12366 0.06243 0.0
H3418 H 0.82873 0.13909 0.04527 0.0
C3419 C 0.83349 0.09486 0.03275 0.0
C3420 C 0.83741 0.09974 0.02153 0.0
C3421 C 0.8278 0.10231 0.04139 0.0
C3422 C 0.82118 0.13469 0.04989 0.0
H3423 H 0.78471 0.13816 0.10181 0.0
H3424 H 0.79968 0.1292 0.08809 0.0
H3425 H 0.81663 0.15103 0.05994 0.0
H3426 H 0.83882 0.11629 0.01065 0.0
H3427 H 0.82838 0.12929 0.0256 0.0
H3428 H 0.80592 0.10753 0.05224 0.0
C3429 C 0.79515 0.13759 0.08536 0.0
C3430 C 0.81431 0.14152 0.0583 0.0
C3431 C 0.78656 0.14274 0.0932 0.0
C3432 C 0.83586 0.11231 0.01925 0.0
C3433 C 0.82994 0.11976 0.02784 0.0
C3434 C 0.80858 0.11693 0.05396 0.0
C3435 C 0.79742 0.14282 0.07384 0.0
C3436 C 0.80473 0.13597 0.06476 0.0
C3437 C 0.82565 0.11478 0.03893 0.0
C3438 C 0.81843 0.12227 0.0477 0.0
H3439 H 0.77805 0.16708 0.07551 0.0
H3440 H 0.79321 0.158 0.06178 0.0
H3441 H 0.79435 0.11926 0.06708 0.0
H3442 H 0.8348 0.08525 0.03486 0.0
H3443 H 0.82498 0.09822 0.04998 0.0
C3444 C 0.59526 0.03577 0.84234 0.0
C3445 C 0.58677 0.0276 0.8372 0.0
C3446 C 0.59945 0.04581 0.83563 0.0
C3447 C 0.60521 0.05478 0.80427 0.0
H3448 H 0.60834 0.08781 0.81708 0.0
C3449 C 0.63343 0.09141 0.7796 0.0
C3450 C 0.62713 0.10234 0.77706 0.0
C3451 C 0.62869 0.08295 0.78791 0.0
C3452 C 0.60751 0.07862 0.81342 0.0
H3453 H 0.57569 0.02381 0.82116 0.0
H3454 H 0.58319 0.04128 0.80938 0.0
H3455 H 0.59871 0.07186 0.82964 0.0
H3456 H 0.61131 0.11328 0.78182 0.0
H3457 H 0.60313 0.0985 0.79648 0.0
H3458 H 0.61408 0.06143 0.78813 0.0
C3459 C 0.58656 0.03987 0.81861 0.0
C3460 C 0.60204 0.06953 0.82059 0.0
C3461 C 0.58224 0.02992 0.82537 0.0
C3462 C 0.61633 0.10491 0.7835 0.0
C3463 C 0.61168 0.09649 0.79194 0.0
C3464 C 0.61081 0.06379 0.7972 0.0
C3465 C 0.59535 0.04777 0.82361 0.0
C3466 C 0.60081 0.05755 0.81603 0.0
C3467 C 0.61766 0.08531 0.79396 0.0
C3468 C 0.612 0.07579 0.80171 0.0
H3469 H 0.59885 0.03428 0.85147 0.0
H3470 H 0.60627 0.05175 0.83966 0.0
H3471 H 0.60448 0.04557 0.80062 0.0
H3472 H 0.64178 0.08916 0.77483 0.0
H3473 H 0.63353 0.07443 0.78944 0.0
C3474 C 0.90526 0.96173 0.33646 0.0
C3475 C 0.91358 0.97061 0.33234 0.0
C3476 C 0.90166 0.95218 0.32875 0.0
C3477 C 0.89663 0.94584 0.29681 0.0
H3478 H 0.89621 0.91148 0.30598 0.0
C3479 C 0.86848 0.90952 0.2713 0.0
C3480 C 0.87508 0.89935 0.267 0.0
C3481 C 0.87378 0.91773 0.27951 0.0
C3482 C 0.89633 0.92105 0.30333 0.0
H3483 H 0.92484 0.9763 0.317 0.0
H3484 H 0.91829 0.95975 0.30346 0.0
H3485 H 0.90487 0.9267 0.32011 0.0
H3486 H 0.89225 0.8896 0.26822 0.0
H3487 H 0.90142 0.9039 0.28288 0.0
H3488 H 0.8878 0.94029 0.28021 0.0
C3489 C 0.91467 0.96017 0.31269 0.0
C3490 C 0.90122 0.92971 0.31139 0.0
C3491 C 0.91843 0.9696 0.32045 0.0
C3492 C 0.88699 0.8974 0.27132 0.0
C3493 C 0.8922 0.90551 0.27973 0.0
C3494 C 0.89155 0.93723 0.28888 0.0
C3495 C 0.90616 0.95147 0.31673 0.0
C3496 C 0.9014 0.94217 0.30817 0.0
C3497 C 0.88568 0.91581 0.28375 0.0
C3498 C 0.89134 0.92478 0.29209 0.0
H3499 H 0.90143 0.96223 0.3456 0.0
H3500 H 0.89503 0.94559 0.33202 0.0
H3501 H 0.89658 0.95542 0.29419 0.0
H3502 H 0.8593 0.91129 0.26813 0.0
H3503 H 0.86857 0.92559 0.28257 0.0
C3504 C 0.46859 0.3442 0.11536 0.0
C3505 C 0.47069 0.33933 0.10361 0.0
C3506 C 0.45988 0.33896 0.1231 0.0
C3507 C 0.43344 0.31776 0.12316 0.0
H3508 H 0.44236 0.31252 0.15716 0.0
C3509 C 0.40278 0.28898 0.15398 0.0
C3510 C 0.40886 0.27996 0.16083 0.0
C3511 C 0.40921 0.29877 0.1489 0.0
C3512 C 0.43972 0.31391 0.1477 0.0
H3513 H 0.46512 0.32525 0.09071 0.0
H3514 H 0.45019 0.316 0.10425 0.0
H3515 H 0.45572 0.32443 0.1439 0.0
H3516 H 0.42629 0.27454 0.16844 0.0
H3517 H 0.43759 0.29137 0.15926 0.0
H3518 H 0.41789 0.30663 0.12667 0.0
C3519 C 0.45508 0.32401 0.10743 0.0
C3520 C 0.44732 0.32086 0.14012 0.0
C3521 C 0.46373 0.32927 0.09968 0.0
C3522 C 0.42135 0.28137 0.16321 0.0
C3523 C 0.42782 0.29107 0.15798 0.0
C3524 C 0.42592 0.31074 0.13069 0.0
C3525 C 0.45311 0.32873 0.11926 0.0
C3526 C 0.4444 0.32261 0.12768 0.0
C3527 C 0.4219 0.29964 0.15039 0.0
C3528 C 0.42909 0.3085 0.14299 0.0
H3529 H 0.47372 0.35201 0.11865 0.0
H3530 H 0.45848 0.34292 0.1321 0.0
H3531 H 0.43082 0.31911 0.11369 0.0
H3532 H 0.39312 0.28824 0.15215 0.0
H3533 H 0.40431 0.30539 0.14339 0.0
C3534 C 0.40222 0.72601 0.86928 0.0
C3535 C 0.40766 0.72797 0.85776 0.0
C3536 C 0.40805 0.71882 0.87812 0.0
C3537 C 0.43814 0.70869 0.88771 0.0
H3538 H 0.42211 0.68056 0.90229 0.0
C3539 C 0.45487 0.661 0.90834 0.0
C3540 C 0.46411 0.66503 0.9163 0.0
C3541 C 0.44613 0.6692 0.90398 0.0
C3542 C 0.42663 0.68848 0.89839 0.0
H3543 H 0.42346 0.72394 0.84652 0.0
H3544 H 0.43368 0.71159 0.86203 0.0
H3545 H 0.41064 0.69422 0.88865 0.0
H3546 H 0.47085 0.68061 0.92668 0.0
H3547 H 0.45562 0.69493 0.91892 0.0
H3548 H 0.4542 0.70284 0.89709 0.0
C3549 C 0.42491 0.71559 0.86417 0.0
C3550 C 0.42008 0.69628 0.89065 0.0
C3551 C 0.41901 0.72259 0.85528 0.0
C3552 C 0.46388 0.67721 0.92052 0.0
C3553 C 0.45521 0.68543 0.91604 0.0
C3554 C 0.44462 0.70101 0.89556 0.0
C3555 C 0.4195 0.71367 0.87567 0.0
C3556 C 0.42589 0.70626 0.885 0.0
C3557 C 0.44652 0.68159 0.90741 0.0
C3558 C 0.43902 0.69067 0.90075 0.0
H3559 H 0.39345 0.73 0.87144 0.0
H3560 H 0.40372 0.71746 0.88694 0.0
H3561 H 0.44278 0.71639 0.88352 0.0
H3562 H 0.45473 0.65165 0.90501 0.0
H3563 H 0.43957 0.666 0.89729 0.0
C3564 C 0.02665 0.66943 0.59966 0.0
C3565 C 0.0218 0.65785 0.60247 0.0
C3566 C 0.03368 0.67571 0.60824 0.0
C3567 C 0.0537 0.67215 0.63429 0.0
H3568 H 0.0455 0.70617 0.64056 0.0
C3569 C 0.07097 0.71736 0.66351 0.0
C3570 C 0.08301 0.71808 0.65917 0.0
C3571 C 0.06312 0.70829 0.65913 0.0
C3572 C 0.04779 0.69662 0.63908 0.0
H3573 H 0.02083 0.64362 0.61634 0.0
H3574 H 0.03342 0.65459 0.63128 0.0
H3575 H 0.03238 0.69382 0.62741 0.0
H3576 H 0.09653 0.70922 0.64767 0.0
H3577 H 0.08282 0.69339 0.6401 0.0
H3578 H 0.06942 0.67515 0.64558 0.0
C3579 C 0.03161 0.65879 0.62247 0.0
C3580 C 0.04036 0.68961 0.63146 0.0
C3581 C 0.02439 0.65255 0.61394 0.0
C3582 C 0.08727 0.709 0.65109 0.0
C3583 C 0.07945 0.69986 0.64683 0.0
C3584 C 0.06125 0.67923 0.6418 0.0
C3585 C 0.03615 0.67049 0.61974 0.0
C3586 C 0.04338 0.67741 0.62881 0.0
C3587 C 0.0672 0.69969 0.65048 0.0
C3588 C 0.05846 0.6916 0.64408 0.0
H3589 H 0.02481 0.67377 0.59092 0.0
H3590 H 0.03722 0.68468 0.60588 0.0
H3591 H 0.0562 0.66275 0.63234 0.0
H3592 H 0.06742 0.72419 0.66977 0.0
H3593 H 0.05373 0.70828 0.66216 0.0
C3594 C 0.09276 0.28712 0.35108 0.0
C3595 C 0.09436 0.27495 0.35491 0.0
C3596 C 0.08795 0.29584 0.35909 0.0
C3597 C 0.07911 0.30126 0.39181 0.0
H3598 H 0.05556 0.32301 0.37674 0.0
C3599 C 0.03821 0.32443 0.41618 0.0
C3600 C 0.03487 0.3362 0.41215 0.0
C3601 C 0.04814 0.31839 0.41088 0.0
C3602 C 0.06227 0.31716 0.38108 0.0
H3603 H 0.09254 0.26241 0.37022 0.0
H3604 H 0.08363 0.27745 0.38403 0.0
H3605 H 0.06771 0.30966 0.36392 0.0
H3606 H 0.04015 0.35139 0.40042 0.0
H3607 H 0.0574 0.34085 0.39124 0.0
H3608 H 0.07298 0.30843 0.40908 0.0
C3609 C 0.0864 0.28041 0.37498 0.0
C3610 C 0.06929 0.3095 0.37372 0.0
C3611 C 0.09143 0.27175 0.36702 0.0
C3612 C 0.04232 0.34223 0.40357 0.0
C3613 C 0.05221 0.33621 0.3983 0.0
C3614 C 0.07193 0.30885 0.39922 0.0
C3615 C 0.08438 0.29252 0.37104 0.0
C3616 C 0.07773 0.30136 0.37897 0.0
C3617 C 0.05487 0.32405 0.4015 0.0
C3618 C 0.06338 0.3168 0.3939 0.0
H3619 H 0.09514 0.2899 0.34185 0.0
H3620 H 0.08683 0.30514 0.35583 0.0
H3621 H 0.08564 0.29523 0.39617 0.0
H3622 H 0.03269 0.31955 0.42281 0.0
H3623 H 0.04999 0.309 0.4135 0.0
C3624 C 0.4202 0.71435 0.33386 0.0
C3625 C 0.41059 0.7194 0.3407 0.0
C3626 C 0.42695 0.70453 0.3385 0.0
C3627 C 0.42763 0.68134 0.36379 0.0
H3628 H 0.46259 0.68446 0.35999 0.0
C3629 C 0.46283 0.66238 0.39802 0.0
C3630 C 0.47308 0.65636 0.39322 0.0
C3631 C 0.45447 0.66803 0.39021 0.0
C3632 C 0.45284 0.68336 0.36097 0.0
H3633 H 0.40025 0.71776 0.35759 0.0
H3634 H 0.41219 0.70105 0.36581 0.0
H3635 H 0.44915 0.69797 0.34852 0.0
H3636 H 0.48251 0.65136 0.37645 0.0
H3637 H 0.468 0.66151 0.36283 0.0
H3638 H 0.43149 0.66717 0.37684 0.0
C3639 C 0.4144 0.70441 0.35674 0.0
C3640 C 0.44511 0.69106 0.35436 0.0
C3641 C 0.40758 0.71411 0.35205 0.0
C3642 C 0.4747 0.65593 0.38043 0.0
C3643 C 0.46643 0.66175 0.37264 0.0
C3644 C 0.43538 0.67377 0.37054 0.0
C3645 C 0.42432 0.69964 0.35014 0.0
C3646 C 0.43241 0.69033 0.35588 0.0
C3647 C 0.4563 0.66791 0.37747 0.0
C3648 C 0.44805 0.67488 0.36936 0.0
H3649 H 0.42267 0.71812 0.32502 0.0
H3650 H 0.43438 0.70092 0.33306 0.0
H3651 H 0.4179 0.68033 0.36499 0.0
H3652 H 0.46129 0.6628 0.40783 0.0
H3653 H 0.44678 0.67283 0.39416 0.0
C3654 C 0.04217 0.65422 0.08492 0.0
C3655 C 0.03277 0.66088 0.07926 0.0
C3656 C 0.05234 0.66025 0.08962 0.0
C3657 C 0.06491 0.67574 0.10848 0.0
H3658 H 0.07788 0.70672 0.09704 0.0
C3659 C 0.08372 0.71199 0.14145 0.0
C3660 C 0.09349 0.71937 0.13767 0.0
C3661 C 0.07842 0.70365 0.13334 0.0
C3662 C 0.07453 0.69798 0.1003 0.0
H3663 H 0.02712 0.6789 0.07313 0.0
H3664 H 0.04466 0.68949 0.08166 0.0
H3665 H 0.06578 0.69412 0.08319 0.0
H3666 H 0.10569 0.72342 0.12252 0.0
H3667 H 0.09656 0.70873 0.10847 0.0
H3668 H 0.07363 0.67958 0.12557 0.0
C3669 C 0.04433 0.6796 0.08232 0.0
C3670 C 0.06748 0.69082 0.0924 0.0
C3671 C 0.03423 0.67353 0.07744 0.0
C3672 C 0.09809 0.71796 0.12571 0.0
C3673 C 0.09284 0.70957 0.11762 0.0
C3674 C 0.07201 0.68285 0.11633 0.0
C3675 C 0.05322 0.67309 0.08895 0.0
C3676 C 0.06232 0.67977 0.0965 0.0
C3677 C 0.08284 0.70244 0.12129 0.0
C3678 C 0.07661 0.69421 0.11246 0.0
H3679 H 0.04136 0.64441 0.08627 0.0
H3680 H 0.0592 0.65492 0.09436 0.0
H3681 H 0.06098 0.66737 0.11204 0.0
H3682 H 0.07992 0.71287 0.15058 0.0
H3683 H 0.07061 0.69844 0.13641 0.0
C3684 C 0.09374 0.28752 0.84779 0.0
C3685 C 0.08874 0.28121 0.83773 0.0
C3686 C 0.08724 0.29686 0.85353 0.0
C3687 C 0.0611 0.31782 0.85147 0.0
H3688 H 0.05769 0.31058 0.88611 0.0
C3689 C 0.02287 0.33849 0.88144 0.0
C3690 C 0.02521 0.34047 0.89394 0.0
C3691 C 0.03161 0.33291 0.87399 0.0
C3692 C 0.05871 0.31296 0.87653 0.0
H3693 H 0.07341 0.28053 0.82518 0.0
H3694 H 0.06204 0.29692 0.83528 0.0
H3695 H 0.07156 0.29855 0.87372 0.0
H3696 H 0.03874 0.33887 0.90832 0.0
H3697 H 0.05416 0.32959 0.89527 0.0
H3698 H 0.04823 0.33228 0.85431 0.0
C3699 C 0.071 0.29456 0.83869 0.0
C3700 C 0.06665 0.30601 0.86941 0.0
C3701 C 0.0775 0.28514 0.83295 0.0
C3702 C 0.03662 0.33725 0.89875 0.0
C3703 C 0.04543 0.33188 0.89127 0.0
C3704 C 0.05324 0.32492 0.85865 0.0
C3705 C 0.07563 0.30015 0.84931 0.0
C3706 C 0.06785 0.30829 0.85681 0.0
C3707 C 0.04295 0.32938 0.87886 0.0
C3708 C 0.05185 0.32248 0.87126 0.0
H3709 H 0.10246 0.28489 0.85161 0.0
H3710 H 0.09109 0.30119 0.86159 0.0
H3711 H 0.0619 0.31976 0.84176 0.0
H3712 H 0.01414 0.34087 0.87749 0.0
H3713 H 0.0293 0.331 0.86453 0.0
C3714 C 0.46056 0.32476 0.57503 0.0
C3715 C 0.46369 0.3355 0.58143 0.0
C3716 C 0.45055 0.31775 0.57873 0.0
C3717 C 0.42391 0.31763 0.60023 0.0
H3718 H 0.43177 0.28312 0.60325 0.0
C3719 C 0.40677 0.28637 0.63899 0.0
C3720 C 0.40273 0.27456 0.63587 0.0
C3721 C 0.41177 0.29404 0.63007 0.0
C3722 C 0.42934 0.29269 0.60229 0.0
H3723 H 0.45817 0.34776 0.59611 0.0
H3724 H 0.44114 0.33546 0.60271 0.0
H3725 H 0.44475 0.29635 0.59095 0.0
H3726 H 0.40057 0.26161 0.6209 0.0
H3727 H 0.40961 0.27495 0.6054 0.0
H3728 H 0.40896 0.314 0.61235 0.0
C3729 C 0.44622 0.33246 0.59476 0.0
C3730 C 0.43673 0.30029 0.59518 0.0
C3731 C 0.45613 0.33948 0.59103 0.0
C3732 C 0.40358 0.27067 0.6236 0.0
C3733 C 0.40877 0.27826 0.61472 0.0
C3734 C 0.41663 0.31006 0.6075 0.0
C3735 C 0.44351 0.32131 0.5889 0.0
C3736 C 0.43433 0.31293 0.59438 0.0
C3737 C 0.41298 0.28997 0.6179 0.0
C3738 C 0.41949 0.29761 0.60885 0.0
H3739 H 0.46612 0.3215 0.56751 0.0
H3740 H 0.44857 0.30932 0.57387 0.0
H3741 H 0.42163 0.32726 0.59959 0.0
H3742 H 0.40617 0.28964 0.64835 0.0
H3743 H 0.41508 0.30299 0.63276 0.0
C3744 C 0.09068 0.46269 0.33017 0.0
C3745 C 0.09587 0.47153 0.33793 0.0
C3746 C 0.09781 0.45344 0.32509 0.0
C3747 C 0.12888 0.44524 0.31638 0.0
H3748 H 0.11471 0.41276 0.31466 0.0
C3749 C 0.13605 0.39343 0.29438 0.0
C3750 C 0.13901 0.39687 0.28234 0.0
C3751 C 0.13421 0.40232 0.30338 0.0
C3752 C 0.119 0.42167 0.31525 0.0
H3753 H 0.11274 0.47762 0.34635 0.0
H3754 H 0.12524 0.46134 0.33738 0.0
H3755 H 0.1045 0.42862 0.32628 0.0
H3756 H 0.14339 0.41217 0.27049 0.0
H3757 H 0.13973 0.42777 0.28607 0.0
H3758 H 0.14333 0.43826 0.30515 0.0
C3759 C 0.11561 0.46166 0.33526 0.0
C3760 C 0.11302 0.43083 0.32179 0.0
C3761 C 0.10844 0.47094 0.34043 0.0
C3762 C 0.14113 0.40928 0.27971 0.0
C3763 C 0.13906 0.41822 0.28868 0.0
C3764 C 0.13491 0.43603 0.30981 0.0
C3765 C 0.11033 0.45277 0.32761 0.0
C3766 C 0.11768 0.44279 0.32212 0.0
C3767 C 0.135 0.41485 0.30045 0.0
C3768 C 0.12987 0.4242 0.30892 0.0
H3769 H 0.08106 0.46284 0.328 0.0
H3770 H 0.09351 0.44685 0.31904 0.0
H3771 H 0.13268 0.4544 0.31649 0.0
H3772 H 0.13456 0.38389 0.29668 0.0
H3773 H 0.13147 0.39939 0.31245 0.0
C3774 C 0.34163 0.39572 0.03551 0.0
C3775 C 0.33718 0.40609 0.0293 0.0
C3776 C 0.33465 0.38999 0.04449 0.0
C3777 C 0.30892 0.39277 0.06551 0.0
H3778 H 0.3041 0.35834 0.05809 0.0
C3779 C 0.27166 0.36338 0.08877 0.0
C3780 C 0.27399 0.35085 0.09056 0.0
C3781 C 0.28 0.37071 0.08247 0.0
C3782 C 0.30551 0.36786 0.0605 0.0
H3783 H 0.32224 0.4191 0.02835 0.0
H3784 H 0.31005 0.40902 0.0442 0.0
H3785 H 0.31776 0.37046 0.0455 0.0
H3786 H 0.28714 0.3363 0.08783 0.0
H3787 H 0.30192 0.34915 0.07731 0.0
H3788 H 0.29678 0.39013 0.08064 0.0
C3789 C 0.31895 0.40536 0.04198 0.0
C3790 C 0.3133 0.37482 0.05322 0.0
C3791 C 0.32591 0.41108 0.03289 0.0
C3792 C 0.28502 0.34589 0.0864 0.0
C3793 C 0.29345 0.35326 0.08031 0.0
C3794 C 0.30123 0.38574 0.07294 0.0
C3795 C 0.32311 0.39454 0.04755 0.0
C3796 C 0.31506 0.38732 0.05563 0.0
C3797 C 0.29094 0.3657 0.07802 0.0
C3798 C 0.29941 0.3732 0.07049 0.0
H3799 H 0.35033 0.39169 0.03314 0.0
H3800 H 0.33812 0.38175 0.0488 0.0
H3801 H 0.31018 0.4024 0.06755 0.0
H3802 H 0.26319 0.36743 0.09185 0.0
H3803 H 0.27767 0.3802 0.08076 0.0
C3804 C 0.39358 0.52502 0.82257 0.0
C3805 C 0.39116 0.52029 0.83429 0.0
C3806 C 0.38521 0.53268 0.8168 0.0
C3807 C 0.36267 0.55559 0.82349 0.0
H3808 H 0.35763 0.55392 0.78834 0.0
C3809 C 0.3473 0.58672 0.77874 0.0
C3810 C 0.35497 0.59676 0.78111 0.0
C3811 C 0.34689 0.57681 0.78686 0.0
C3812 C 0.35863 0.55443 0.7982 0.0
H3813 H 0.37797 0.51969 0.84908 0.0
H3814 H 0.36338 0.53342 0.83902 0.0
H3815 H 0.36621 0.53639 0.79908 0.0
H3816 H 0.3672 0.60486 0.79447 0.0
H3817 H 0.3666 0.58761 0.80849 0.0
H3818 H 0.3557 0.5739 0.82249 0.0
C3819 C 0.37173 0.53104 0.83431 0.0
C3820 C 0.36366 0.54442 0.80433 0.0
C3821 C 0.38006 0.52318 0.84003 0.0
C3822 C 0.36134 0.59719 0.79227 0.0
C3823 C 0.36088 0.58733 0.8004 0.0
C3824 C 0.35767 0.56565 0.81735 0.0
C3825 C 0.37429 0.5359 0.82267 0.0
C3826 C 0.36625 0.54513 0.81691 0.0
C3827 C 0.35407 0.57682 0.79753 0.0
C3828 C 0.35614 0.56536 0.80455 0.0
H3829 H 0.40201 0.52292 0.81788 0.0
H3830 H 0.38751 0.53646 0.80791 0.0
H3831 H 0.36458 0.55636 0.8332 0.0
H3832 H 0.34217 0.58615 0.77028 0.0
H3833 H 0.34143 0.56889 0.78449 0.0
C3834 C 0.21806 0.63069 0.59574 0.0
C3835 C 0.21968 0.64255 0.59095 0.0
C3836 C 0.20965 0.62265 0.59047 0.0
C3837 C 0.18313 0.62171 0.56945 0.0
H3838 H 0.19336 0.58817 0.56373 0.0
C3839 C 0.17229 0.58189 0.53254 0.0
C3840 C 0.15973 0.58391 0.53126 0.0
C3841 C 0.17864 0.58709 0.54235 0.0
C3842 C 0.19036 0.5975 0.56527 0.0
H3843 H 0.21357 0.6553 0.57697 0.0
H3844 H 0.19915 0.64125 0.56766 0.0
H3845 H 0.20629 0.60185 0.57568 0.0
H3846 H 0.14374 0.59179 0.53983 0.0
H3847 H 0.15472 0.60046 0.55718 0.0
H3848 H 0.16763 0.6177 0.55843 0.0
C3849 C 0.2042 0.63821 0.57563 0.0
C3850 C 0.19771 0.60531 0.57224 0.0
C3851 C 0.21254 0.64626 0.58093 0.0
C3852 C 0.15347 0.59026 0.54051 0.0
C3853 C 0.15977 0.59529 0.5504 0.0
C3854 C 0.17585 0.61396 0.56243 0.0
C3855 C 0.20271 0.62628 0.58029 0.0
C3856 C 0.1943 0.61758 0.57415 0.0
C3857 C 0.17251 0.59427 0.55113 0.0
C3858 C 0.17949 0.60183 0.56002 0.0
H3859 H 0.22334 0.62755 0.60352 0.0
H3860 H 0.20861 0.61358 0.59437 0.0
H3861 H 0.18014 0.63105 0.57094 0.0
H3862 H 0.17735 0.57705 0.52553 0.0
H3863 H 0.18845 0.58616 0.54255 0.0
C3864 C 0.14095 0.58818 0.21687 0.0
C3865 C 0.13807 0.60057 0.21495 0.0
C3866 C 0.13865 0.5795 0.20771 0.0
C3867 C 0.11756 0.57586 0.18181 0.0
H3868 H 0.13304 0.54405 0.179 0.0
C3869 C 0.10853 0.52652 0.15596 0.0
C3870 C 0.09609 0.52539 0.15888 0.0
C3871 C 0.1155 0.53605 0.16098 0.0
C3872 C 0.12873 0.55296 0.17953 0.0
H3873 H 0.13183 0.61383 0.20158 0.0
H3874 H 0.12833 0.59883 0.18542 0.0
H3875 H 0.14316 0.56043 0.19045 0.0
H3876 H 0.08133 0.53335 0.16951 0.0
H3877 H 0.09341 0.54968 0.17823 0.0
H3878 H 0.10313 0.56844 0.17101 0.0
C3879 C 0.13184 0.59567 0.19415 0.0
C3880 C 0.13445 0.56231 0.18619 0.0
C3881 C 0.1339 0.60429 0.20337 0.0
C3882 C 0.09085 0.53392 0.16697 0.0
C3883 C 0.09777 0.54338 0.17192 0.0
C3884 C 0.11191 0.56659 0.17514 0.0
C3885 C 0.13362 0.5831 0.19639 0.0
C3886 C 0.12875 0.57377 0.18771 0.0
C3887 C 0.11013 0.54465 0.16892 0.0
C3888 C 0.1172 0.55491 0.17429 0.0
H3889 H 0.14418 0.58505 0.22572 0.0
H3890 H 0.14007 0.56992 0.20984 0.0
H3891 H 0.11276 0.58447 0.18286 0.0
H3892 H 0.11286 0.52011 0.14977 0.0
H3893 H 0.12502 0.53681 0.15851 0.0
C3894 C 0.17247 0.41335 0.96636 0.0
C3895 C 0.1599 0.41107 0.96703 0.0
C3896 C 0.17947 0.408 0.95709 0.0
C3897 C 0.1925 0.39741 0.93492 0.0
H3898 H 0.1836 0.36341 0.92968 0.0
C3899 C 0.22099 0.36475 0.90447 0.0
C3900 C 0.22287 0.35288 0.90914 0.0
C3901 C 0.21264 0.37266 0.91002 0.0
C3902 C 0.18624 0.37288 0.93107 0.0
H3903 H 0.1446 0.40251 0.95783 0.0
H3904 H 0.15674 0.39353 0.94145 0.0
H3905 H 0.1703 0.37658 0.94159 0.0
H3906 H 0.21742 0.34003 0.92331 0.0
H3907 H 0.20306 0.35388 0.93308 0.0
H3908 H 0.2088 0.39345 0.92491 0.0
C3909 C 0.16128 0.39905 0.94832 0.0
C3910 C 0.17851 0.3805 0.93774 0.0
C3911 C 0.15431 0.40426 0.95766 0.0
C3912 C 0.21617 0.34909 0.91943 0.0
C3913 C 0.20787 0.35701 0.92499 0.0
C3914 C 0.20028 0.38974 0.92827 0.0
C3915 C 0.17401 0.4004 0.94824 0.0
C3916 C 0.18162 0.39282 0.93992 0.0
C3917 C 0.20601 0.36889 0.92036 0.0
C3918 C 0.19734 0.37733 0.92649 0.0
H3919 H 0.17704 0.41854 0.97347 0.0
H3920 H 0.18926 0.40918 0.95737 0.0
H3921 H 0.19512 0.40688 0.93632 0.0
H3922 H 0.22595 0.36796 0.89651 0.0
H3923 H 0.21132 0.38171 0.90615 0.0
C3924 C 0.3963 0.47521 0.67637 0.0
C3925 C 0.39314 0.47934 0.66459 0.0
C3926 C 0.38876 0.46707 0.68264 0.0
C3927 C 0.36805 0.44219 0.67663 0.0
H3928 H 0.36292 0.44348 0.71179 0.0
C3929 C 0.35 0.41045 0.71979 0.0
C3930 C 0.35736 0.40008 0.71782 0.0
C3931 C 0.35099 0.42069 0.71216 0.0
C3932 C 0.36405 0.44306 0.70193 0.0
H3933 H 0.3794 0.47854 0.65032 0.0
H3934 H 0.36628 0.46408 0.66127 0.0
H3935 H 0.3708 0.46145 0.70111 0.0
H3936 H 0.37087 0.39201 0.70574 0.0
H3937 H 0.37257 0.40985 0.69247 0.0
H3938 H 0.36185 0.42359 0.67755 0.0
C3939 C 0.37457 0.46724 0.66562 0.0
C3940 C 0.36865 0.45331 0.69585 0.0
C3941 C 0.38205 0.47554 0.65941 0.0
C3942 C 0.36514 0.39988 0.70759 0.0
C3943 C 0.36605 0.41007 0.69991 0.0
C3944 C 0.36355 0.43189 0.68273 0.0
C3945 C 0.37797 0.46278 0.67721 0.0
C3946 C 0.37103 0.45284 0.68321 0.0
C3947 C 0.35925 0.4207 0.70234 0.0
C3948 C 0.36186 0.43212 0.6955 0.0
H3949 H 0.40476 0.47802 0.68062 0.0
H3950 H 0.39167 0.46368 0.6915 0.0
H3951 H 0.36988 0.44157 0.66689 0.0
H3952 H 0.34386 0.4109 0.72754 0.0
H3953 H 0.34557 0.42873 0.71416 0.0
C3954 C 0.32688 0.58621 0.46156 0.0
C3955 C 0.33763 0.59141 0.46627 0.0
C3956 C 0.32024 0.59227 0.45244 0.0
C3957 C 0.31385 0.62327 0.44274 0.0
H3958 H 0.29923 0.6086 0.41391 0.0
C3959 C 0.28483 0.65215 0.40999 0.0
C3960 C 0.27428 0.6467 0.4052 0.0
C3961 C 0.29352 0.64507 0.41606 0.0
C3962 C 0.30315 0.6128 0.422 0.0
H3963 H 0.35023 0.60667 0.46446 0.0
H3964 H 0.33858 0.6172 0.44872 0.0
H3965 H 0.31275 0.59637 0.42688 0.0
H3966 H 0.26461 0.62952 0.40286 0.0
H3967 H 0.27952 0.61724 0.41387 0.0
H3968 H 0.30395 0.63948 0.43834 0.0
C3969 C 0.33526 0.60851 0.45216 0.0
C3970 C 0.31092 0.60581 0.42936 0.0
C3971 C 0.34193 0.60244 0.46117 0.0
C3972 C 0.27269 0.63398 0.40641 0.0
C3973 C 0.28129 0.62692 0.41266 0.0
C3974 C 0.30598 0.63019 0.43551 0.0
C3975 C 0.3242 0.60365 0.44796 0.0
C3976 C 0.31633 0.611 0.43979 0.0
C3977 C 0.29176 0.6324 0.41767 0.0
C3978 C 0.3005 0.62506 0.42505 0.0
H3979 H 0.32333 0.5777 0.46522 0.0
H3980 H 0.31171 0.58835 0.44936 0.0
H3981 H 0.31774 0.62742 0.45087 0.0
H3982 H 0.28639 0.66191 0.40903 0.0
H3983 H 0.3016 0.64956 0.41954 0.0
C3984 C 0.34565 0.11712 0.47259 0.0
C3985 C 0.34124 0.10507 0.47383 0.0
C3986 C 0.34031 0.12521 0.46426 0.0
C3987 C 0.31989 0.12613 0.43719 0.0
H3988 H 0.31341 0.15939 0.44789 0.0
C3989 C 0.28243 0.16512 0.42655 0.0
C3990 C 0.28122 0.16317 0.41389 0.0
C3991 C 0.29231 0.16016 0.43291 0.0
C3992 C 0.31516 0.15014 0.44475 0.0
H3993 H 0.3278 0.09209 0.46721 0.0
H3994 H 0.31832 0.10625 0.45293 0.0
H3995 H 0.32531 0.14575 0.46091 0.0
H3996 H 0.29001 0.15574 0.39771 0.0
H3997 H 0.30748 0.14752 0.40872 0.0
H3998 H 0.30911 0.13015 0.42146 0.0
C3999 C 0.32608 0.10938 0.45819 0.0
C4000 C 0.3221 0.14235 0.45216 0.0
C4001 C 0.33146 0.10127 0.46646 0.0
C4002 C 0.29062 0.1572 0.40752 0.0
C4003 C 0.30058 0.15243 0.41384 0.0
C4004 C 0.31289 0.13385 0.42985 0.0
C4005 C 0.33041 0.12146 0.45702 0.0
C4006 C 0.32427 0.13016 0.44859 0.0
C4007 C 0.30124 0.15332 0.42669 0.0
C4008 C 0.3102 0.14587 0.43367 0.0
H4009 H 0.35324 0.12032 0.47806 0.0
H4010 H 0.34395 0.1344 0.46347 0.0
H4011 H 0.32159 0.11686 0.43406 0.0
H4012 H 0.2753 0.16967 0.43169 0.0
H4013 H 0.29245 0.16098 0.4428 0.0
C4014 C 0.84227 0.38219 0.52014 0.0
C4015 C 0.84401 0.39478 0.52227 0.0
C4016 C 0.83576 0.37504 0.52846 0.0
C4017 C 0.81312 0.37819 0.55336 0.0
H4018 H 0.82006 0.34369 0.55851 0.0
C4019 C 0.78785 0.35026 0.58942 0.0
C4020 C 0.78169 0.33989 0.58488 0.0
C4021 C 0.79675 0.35605 0.58243 0.0
C4022 C 0.81804 0.35331 0.5571 0.0
H4023 H 0.84083 0.40961 0.53508 0.0
H4024 H 0.82986 0.39705 0.54989 0.0
H4025 H 0.83352 0.35594 0.5455 0.0
H4026 H 0.78072 0.32699 0.56976 0.0
H4027 H 0.79651 0.33714 0.55755 0.0
H4028 H 0.79779 0.37558 0.56514 0.0
C4029 C 0.83316 0.39277 0.54157 0.0
C4030 C 0.82569 0.36032 0.54963 0.0
C4031 C 0.83951 0.39997 0.53313 0.0
C4032 C 0.78524 0.33498 0.5735 0.0
C4033 C 0.79428 0.34075 0.56652 0.0
C4034 C 0.80562 0.37124 0.56094 0.0
C4035 C 0.83099 0.38026 0.53922 0.0
C4036 C 0.82328 0.37285 0.54762 0.0
C4037 C 0.79981 0.35155 0.5708 0.0
C4038 C 0.80799 0.35875 0.56285 0.0
H4039 H 0.84557 0.37792 0.5118 0.0
H4040 H 0.83413 0.36552 0.52623 0.0
H4041 H 0.81077 0.3877 0.55179 0.0
H4042 H 0.78551 0.35424 0.59821 0.0
H4043 H 0.80102 0.36427 0.58597 0.0
C4044 C 0.38949 0.02848 0.33943 0.0
C4045 C 0.38559 0.0293 0.35166 0.0
C4046 C 0.38646 0.03765 0.33101 0.0
C4047 C 0.3626 0.06094 0.32675 0.0
H4048 H 0.38073 0.06838 0.29716 0.0
C4049 C 0.35607 0.09088 0.27932 0.0
C4050 C 0.34404 0.0873 0.27669 0.0
C4051 C 0.36249 0.08538 0.28897 0.0
C4052 C 0.37564 0.06654 0.30546 0.0
H4053 H 0.37647 0.04086 0.36496 0.0
H4054 H 0.37159 0.05706 0.35043 0.0
H4055 H 0.39042 0.05661 0.31357 0.0
H4056 H 0.32948 0.07489 0.28201 0.0
H4057 H 0.34065 0.06532 0.29853 0.0
H4058 H 0.34785 0.07084 0.31873 0.0
C4059 C 0.37656 0.04913 0.34717 0.0
C4060 C 0.38113 0.05969 0.31481 0.0
C4061 C 0.3794 0.03987 0.35553 0.0
C4062 C 0.33868 0.078 0.2838 0.0
C4063 C 0.34506 0.07254 0.29337 0.0
C4064 C 0.35716 0.06782 0.31748 0.0
C4065 C 0.37962 0.04791 0.3347 0.0
C4066 C 0.37457 0.05655 0.32544 0.0
C4067 C 0.35698 0.07623 0.29617 0.0
C4068 C 0.36347 0.07038 0.30658 0.0
H4069 H 0.39428 0.02043 0.33618 0.0
H4070 H 0.3889 0.03632 0.32148 0.0
H4071 H 0.35716 0.05862 0.33469 0.0
H4072 H 0.36047 0.09801 0.27403 0.0
H4073 H 0.37167 0.08842 0.29094 0.0
C4074 C 0.65425 0.61651 0.01938 0.0
C4075 C 0.6515 0.60428 0.0223 0.0
C4076 C 0.6601 0.62404 0.0279 0.0
C4077 C 0.67967 0.62138 0.05531 0.0
H4078 H 0.67569 0.65668 0.05673 0.0
C4079 C 0.70706 0.64978 0.08923 0.0
C4080 C 0.714 0.65918 0.08383 0.0
C4081 C 0.69746 0.6444 0.08285 0.0
C4082 C 0.67686 0.64682 0.05641 0.0
H4083 H 0.6519 0.59059 0.03669 0.0
H4084 H 0.66164 0.60383 0.05173 0.0
H4085 H 0.66222 0.64448 0.04365 0.0
H4086 H 0.71564 0.67095 0.06787 0.0
H4087 H 0.69879 0.66146 0.0567 0.0
H4088 H 0.69426 0.62369 0.06803 0.0
C4089 C 0.65974 0.6075 0.04271 0.0
C4090 C 0.6692 0.63984 0.0489 0.0
C4091 C 0.6541 0.59992 0.03412 0.0
C4092 C 0.71053 0.66369 0.07226 0.0
C4093 C 0.70086 0.65829 0.06588 0.0
C4094 C 0.68718 0.62832 0.06289 0.0
C4095 C 0.66314 0.61954 0.0396 0.0
C4096 C 0.6706 0.62702 0.04818 0.0
C4097 C 0.69455 0.64831 0.07096 0.0
C4098 C 0.68592 0.6411 0.06345 0.0
H4099 H 0.65237 0.62011 0.01031 0.0
H4100 H 0.66268 0.6332 0.02511 0.0
H4101 H 0.68127 0.6116 0.05477 0.0
H4102 H 0.70933 0.64621 0.09821 0.0
H4103 H 0.6926 0.63685 0.08705 0.0
C4104 C 0.61043 0.45139 0.35334 0.0
C4105 C 0.60715 0.46319 0.34947 0.0
C4106 C 0.61191 0.44197 0.34482 0.0
C4107 C 0.60964 0.43415 0.31138 0.0
H4108 H 0.64022 0.41773 0.31817 0.0
C4109 C 0.65332 0.41441 0.28371 0.0
C4110 C 0.64805 0.40675 0.27481 0.0
C4111 C 0.64633 0.41917 0.29323 0.0
C4112 C 0.63164 0.42219 0.31615 0.0
H4113 H 0.6019 0.47424 0.33384 0.0
H4114 H 0.60503 0.45799 0.31885 0.0
H4115 H 0.63057 0.42971 0.3341 0.0
H4116 H 0.6312 0.39816 0.26894 0.0
H4117 H 0.61892 0.40659 0.2857 0.0
H4118 H 0.61132 0.42719 0.29306 0.0
C4119 C 0.60619 0.45584 0.32847 0.0
C4120 C 0.62597 0.42894 0.32535 0.0
C4121 C 0.60446 0.4652 0.33705 0.0
C4122 C 0.63555 0.40402 0.27565 0.0
C4123 C 0.62851 0.40886 0.28521 0.0
C4124 C 0.61538 0.42741 0.3021 0.0
C4125 C 0.61045 0.44425 0.33221 0.0
C4126 C 0.61509 0.43533 0.32301 0.0
C4127 C 0.63388 0.41642 0.29413 0.0
C4128 C 0.62666 0.42174 0.3043 0.0
H4129 H 0.61234 0.44956 0.36292 0.0
H4130 H 0.61481 0.43306 0.34808 0.0
H4131 H 0.60117 0.43879 0.30931 0.0
H4132 H 0.6629 0.41675 0.28338 0.0
H4133 H 0.65068 0.42517 0.29981 0.0
C4134 C 0.15067 0.88377 0.97552 0.0
C4135 C 0.15487 0.89585 0.97705 0.0
C4136 C 0.15629 0.87591 0.96713 0.0
C4137 C 0.17722 0.87568 0.94044 0.0
H4138 H 0.18419 0.84246 0.95097 0.0
C4139 C 0.21411 0.83591 0.9286 0.0
C4140 C 0.21463 0.83746 0.91583 0.0
C4141 C 0.20486 0.8415 0.9354 0.0
C4142 C 0.18233 0.85171 0.9479 0.0
H4143 H 0.16813 0.9092 0.97077 0.0
H4144 H 0.17802 0.89548 0.95637 0.0
H4145 H 0.17197 0.85581 0.964 0.0
H4146 H 0.20534 0.84511 0.90004 0.0
H4147 H 0.18901 0.85449 0.91184 0.0
H4148 H 0.18812 0.87189 0.92472 0.0
C4149 C 0.17026 0.89211 0.96148 0.0
C4150 C 0.1752 0.85932 0.9553 0.0
C4151 C 0.16462 0.89998 0.96981 0.0
C4152 C 0.20527 0.84394 0.90991 0.0
C4153 C 0.19595 0.84937 0.91668 0.0
C4154 C 0.1844 0.86811 0.93311 0.0
C4155 C 0.16624 0.87996 0.96012 0.0
C4156 C 0.17276 0.87147 0.95175 0.0
C4157 C 0.19588 0.8486 0.92954 0.0
C4158 C 0.18721 0.8561 0.93683 0.0
H4159 H 0.14313 0.88031 0.9809 0.0
H4160 H 0.15287 0.86665 0.96618 0.0
H4161 H 0.17536 0.88492 0.93735 0.0
H4162 H 0.22121 0.83098 0.9334 0.0
H4163 H 0.20515 0.84079 0.9453 0.0
C4164 C 0.35497 0.90665 0.21952 0.0
C4165 C 0.34278 0.90979 0.22193 0.0
C4166 C 0.36131 0.91226 0.20988 0.0
C4167 C 0.35567 0.92881 0.18093 0.0
H4168 H 0.38841 0.94147 0.18485 0.0
C4169 C 0.38648 0.96855 0.15778 0.0
C4170 C 0.3828 0.96698 0.14554 0.0
C4171 C 0.38383 0.95959 0.16656 0.0
C4172 C 0.37927 0.93797 0.18361 0.0
H4173 H 0.32782 0.92154 0.21624 0.0
H4174 H 0.33884 0.93129 0.1997 0.0
H4175 H 0.37895 0.92992 0.20156 0.0
H4176 H 0.3746 0.95433 0.13264 0.0
H4177 H 0.37039 0.93853 0.14781 0.0
H4178 H 0.35558 0.93732 0.16337 0.0
C4179 C 0.34346 0.92434 0.20506 0.0
C4180 C 0.3739 0.93126 0.19314 0.0
C4181 C 0.33716 0.91878 0.21463 0.0
C4182 C 0.37733 0.95589 0.14206 0.0
C4183 C 0.37487 0.94686 0.15077 0.0
C4184 C 0.36097 0.93552 0.17148 0.0
C4185 C 0.35555 0.92105 0.20247 0.0
C4186 C 0.36192 0.92689 0.19199 0.0
C4187 C 0.37761 0.94882 0.16322 0.0
C4188 C 0.37275 0.9404 0.17277 0.0
H4189 H 0.35958 0.89978 0.22498 0.0
H4190 H 0.37063 0.90954 0.20808 0.0
H4191 H 0.3465 0.92538 0.17968 0.0
H4192 H 0.39072 0.97702 0.16073 0.0
H4193 H 0.38602 0.96147 0.17605 0.0
C4194 C 0.154 0.08048 0.71214 0.0
C4195 C 0.14858 0.08829 0.72082 0.0
C4196 C 0.14715 0.07548 0.70265 0.0
C4197 C 0.13293 0.07207 0.67954 0.0
H4198 H 0.10205 0.05606 0.68581 0.0
C4199 C 0.11159 0.04315 0.64201 0.0
C4200 C 0.10776 0.0315 0.64584 0.0
C4201 C 0.11339 0.0525 0.65055 0.0
C4202 C 0.11065 0.06051 0.6839 0.0
H4203 H 0.1316 0.09683 0.72637 0.0
H4204 H 0.11958 0.088 0.70963 0.0
H4205 H 0.11201 0.06762 0.70219 0.0
H4206 H 0.10197 0.02068 0.66145 0.0
H4207 H 0.10566 0.03677 0.67645 0.0
H4208 H 0.13216 0.06439 0.66163 0.0
C4209 C 0.12916 0.08579 0.71028 0.0
C4210 C 0.11628 0.06725 0.69325 0.0
C4211 C 0.13606 0.09085 0.71984 0.0
C4212 C 0.10495 0.02959 0.65825 0.0
C4213 C 0.107 0.03887 0.66685 0.0
C4214 C 0.12738 0.06531 0.67027 0.0
C4215 C 0.1347 0.07815 0.70152 0.0
C4216 C 0.12768 0.07273 0.69126 0.0
C4217 C 0.11169 0.05029 0.66315 0.0
C4218 C 0.11634 0.05914 0.67242 0.0
H4219 H 0.16359 0.07822 0.71261 0.0
H4220 H 0.15163 0.06939 0.69623 0.0
H4221 H 0.1416 0.0764 0.67766 0.0
H4222 H 0.11359 0.04493 0.63245 0.0
H4223 H 0.11665 0.06129 0.64732 0.0
C4224 C 0.02377 0.13803 0.4383 0.0
C4225 C 0.0222 0.13834 0.42556 0.0
C4226 C 0.03551 0.13764 0.44327 0.0
C4227 C 0.06567 0.12679 0.4338 0.0
H4228 H 0.07524 0.13778 0.46618 0.0
C4229 C 0.10803 0.1215 0.47037 0.0
C4230 C 0.1092 0.10868 0.46996 0.0
C4231 C 0.09876 0.12735 0.46383 0.0
C4232 C 0.07278 0.13483 0.45703 0.0
H4233 H 0.03136 0.13989 0.40804 0.0
H4234 H 0.05178 0.13977 0.41667 0.0
H4235 H 0.05627 0.14529 0.45718 0.0
H4236 H 0.10199 0.09198 0.462 0.0
H4237 H 0.08586 0.10213 0.45063 0.0
H4238 H 0.08204 0.11624 0.43368 0.0
C4239 C 0.04408 0.13927 0.42285 0.0
C4240 C 0.06187 0.13902 0.45194 0.0
C4241 C 0.0324 0.13938 0.41791 0.0
C4242 C 0.10131 0.10187 0.4625 0.0
C4243 C 0.0921 0.1077 0.45593 0.0
C4244 C 0.07655 0.12265 0.43885 0.0
C4245 C 0.04579 0.13778 0.43553 0.0
C4246 C 0.05806 0.13481 0.44038 0.0
C4247 C 0.0906 0.12047 0.4567 0.0
C4248 C 0.08005 0.12635 0.45065 0.0
H4249 H 0.01597 0.13723 0.44434 0.0
H4250 H 0.0365 0.13644 0.45307 0.0
H4251 H 0.06297 0.1232 0.42495 0.0
H4252 H 0.11401 0.12699 0.47604 0.0
H4253 H 0.09787 0.13721 0.46448 0.0
C4254 C 0.15122 0.85289 0.71629 0.0
C4255 C 0.14334 0.85821 0.72489 0.0
C4256 C 0.14787 0.84226 0.71009 0.0
C4257 C 0.12196 0.82174 0.70279 0.0
H4258 H 0.14792 0.79791 0.69898 0.0
C4259 C 0.11468 0.772 0.68511 0.0
C4260 C 0.12246 0.76872 0.67542 0.0
C4261 C 0.11671 0.7828 0.6917 0.0
C4262 C 0.1406 0.8045 0.69997 0.0
H4263 H 0.12556 0.85695 0.73341 0.0
H4264 H 0.11977 0.83811 0.72277 0.0
H4265 H 0.15212 0.81737 0.709 0.0
H4266 H 0.13858 0.77395 0.6652 0.0
H4267 H 0.14225 0.79263 0.67686 0.0
H4268 H 0.11044 0.80862 0.69384 0.0
C4269 C 0.12848 0.84226 0.72068 0.0
C4270 C 0.143 0.81568 0.70562 0.0
C4271 C 0.13179 0.85303 0.72678 0.0
C4272 C 0.13244 0.77625 0.67262 0.0
C4273 C 0.13456 0.78692 0.67931 0.0
C4274 C 0.11953 0.81045 0.69723 0.0
C4275 C 0.13663 0.83659 0.7125 0.0
C4276 C 0.13378 0.82453 0.70691 0.0
C4277 C 0.12668 0.79033 0.68884 0.0
C4278 C 0.12889 0.80184 0.69561 0.0
H4279 H 0.16012 0.8568 0.71455 0.0
H4280 H 0.15421 0.83835 0.70357 0.0
H4281 H 0.11468 0.82837 0.70359 0.0
H4282 H 0.10691 0.76636 0.68744 0.0
H4283 H 0.11056 0.78523 0.69907 0.0
C4284 C 0.39358 0.87333 0.9765 0.0
C4285 C 0.39119 0.88587 0.97467 0.0
C4286 C 0.4049 0.86841 0.97326 0.0
C4287 C 0.43633 0.87842 0.97008 0.0
H4288 H 0.44154 0.85055 0.94865 0.0
C4289 C 0.47567 0.87491 0.93729 0.0
C4290 C 0.48189 0.86382 0.93572 0.0
C4291 C 0.46567 0.87557 0.94506 0.0
C4292 C 0.44023 0.85813 0.95493 0.0
H4293 H 0.39834 0.90284 0.96721 0.0
H4294 H 0.41795 0.89425 0.96155 0.0
H4295 H 0.42088 0.85541 0.95572 0.0
H4296 H 0.48286 0.84475 0.9412 0.0
H4297 H 0.46487 0.84582 0.95464 0.0
H4298 H 0.45549 0.88159 0.96879 0.0
C4299 C 0.41121 0.8883 0.9657 0.0
C4300 C 0.42844 0.86094 0.9589 0.0
C4301 C 0.39995 0.89318 0.96885 0.0
C4302 C 0.4782 0.85342 0.94234 0.0
C4303 C 0.46794 0.85401 0.94995 0.0
C4304 C 0.44805 0.87562 0.96615 0.0
C4305 C 0.41393 0.87599 0.96825 0.0
C4306 C 0.42638 0.87145 0.96602 0.0
C4307 C 0.46156 0.86509 0.95126 0.0
C4308 C 0.45001 0.86581 0.95808 0.0
H4309 H 0.38697 0.86748 0.98096 0.0
H4310 H 0.40679 0.85886 0.9752 0.0
H4311 H 0.43497 0.88642 0.97581 0.0
H4312 H 0.47838 0.88305 0.9323 0.0
H4313 H 0.46081 0.88418 0.94578 0.0
C4314 C 0.37816 0.2233 0.18903 0.0
C4315 C 0.37724 0.22379 0.17622 0.0
C4316 C 0.37716 0.21205 0.19512 0.0
C4317 C 0.36411 0.1813 0.18977 0.0
H4318 H 0.37872 0.17386 0.22127 0.0
C4319 C 0.36352 0.13995 0.2282 0.0
C4320 C 0.35088 0.13793 0.22826 0.0
C4321 C 0.36845 0.14971 0.22147 0.0
C4322 C 0.37472 0.17573 0.21238 0.0
H4323 H 0.37574 0.21301 0.15961 0.0
H4324 H 0.37457 0.19342 0.1701 0.0
H4325 H 0.38505 0.19224 0.21011 0.0
H4326 H 0.33352 0.14457 0.22144 0.0
H4327 H 0.34202 0.1615 0.20999 0.0
H4328 H 0.35392 0.16481 0.19189 0.0
C4329 C 0.37542 0.20166 0.17556 0.0
C4330 C 0.37822 0.18633 0.20607 0.0
C4331 C 0.37612 0.21288 0.16953 0.0
C4332 C 0.3433 0.14579 0.22151 0.0
C4333 C 0.34819 0.15548 0.21487 0.0
C4334 C 0.36072 0.17071 0.196 0.0
C4335 C 0.37549 0.20111 0.18844 0.0
C4336 C 0.37278 0.18936 0.19478 0.0
C4337 C 0.36081 0.15754 0.2147 0.0
C4338 C 0.36573 0.16796 0.20751 0.0
H4339 H 0.37913 0.23163 0.19433 0.0
H4340 H 0.37718 0.212 0.20504 0.0
H4341 H 0.35956 0.18336 0.18121 0.0
H4342 H 0.36956 0.13405 0.23335 0.0
H4343 H 0.37822 0.15105 0.22147 0.0
C4344 C 0.01682 0.86063 0.05589 0.0
C4345 C 0.01339 0.86978 0.06427 0.0
C4346 C 0.02739 0.86202 0.04885 0.0
C4347 C 0.04906 0.88522 0.03781 0.0
H4348 H 0.07397 0.86028 0.04164 0.0
C4349 C 0.09878 0.89745 0.03331 0.0
C4350 C 0.10585 0.89035 0.0253 0.0
C4351 C 0.08738 0.89335 0.03706 0.0
C4352 C 0.06703 0.86722 0.04035 0.0
H4353 H 0.01784 0.88776 0.07144 0.0
H4354 H 0.03603 0.89029 0.05906 0.0
H4355 H 0.05314 0.85619 0.04869 0.0
H4356 H 0.107 0.87298 0.01567 0.0
H4357 H 0.08695 0.86576 0.02238 0.0
H4358 H 0.06294 0.89642 0.02993 0.0
C4359 C 0.03068 0.88202 0.05793 0.0
C4360 C 0.05514 0.86487 0.0443 0.0
C4361 C 0.0203 0.88055 0.06507 0.0
C4362 C 0.10172 0.87865 0.02185 0.0
C4363 C 0.09026 0.87452 0.02564 0.0
C4364 C 0.06088 0.88755 0.0339 0.0
C4365 C 0.03445 0.8727 0.04993 0.0
C4366 C 0.04618 0.87404 0.04346 0.0
C4367 C 0.08282 0.88208 0.03288 0.0
C4368 C 0.07007 0.87876 0.03555 0.0
H4369 H 0.01163 0.85223 0.05512 0.0
H4370 H 0.03013 0.85473 0.0427 0.0
H4371 H 0.04226 0.89235 0.03689 0.0
H4372 H 0.10178 0.90644 0.03623 0.0
H4373 H 0.08193 0.89921 0.04291 0.0
C4374 C 0.38601 0.77421 0.30828 0.0
C4375 C 0.37666 0.77102 0.31648 0.0
C4376 C 0.3846 0.78425 0.30039 0.0
C4377 C 0.3612 0.80291 0.2857 0.0
H4378 H 0.38319 0.83061 0.28846 0.0
C4379 C 0.34476 0.85094 0.27637 0.0
C4380 C 0.35166 0.85853 0.26866 0.0
C4381 C 0.34958 0.84001 0.28076 0.0
C4382 C 0.37712 0.82286 0.28741 0.0
H4383 H 0.35846 0.77556 0.32271 0.0
H4384 H 0.35592 0.79281 0.30884 0.0
H4385 H 0.38852 0.811 0.29815 0.0
H4386 H 0.36928 0.861 0.26003 0.0
H4387 H 0.37783 0.84173 0.2679 0.0
H4388 H 0.34957 0.81474 0.27542 0.0
C4389 C 0.36434 0.78764 0.30852 0.0
C4390 C 0.38017 0.81167 0.29291 0.0
C4391 C 0.36583 0.77782 0.3165 0.0
C4392 C 0.36377 0.8553 0.26596 0.0
C4393 C 0.36864 0.84429 0.27042 0.0
C4394 C 0.35818 0.814 0.28022 0.0
C4395 C 0.37371 0.79099 0.30045 0.0
C4396 C 0.37198 0.80179 0.2925 0.0
C4397 C 0.36142 0.8364 0.27755 0.0
C4398 C 0.36585 0.82422 0.28147 0.0
H4399 H 0.39448 0.76912 0.30814 0.0
H4400 H 0.39195 0.78671 0.29424 0.0
H4401 H 0.35484 0.79534 0.28512 0.0
H4402 H 0.33545 0.85324 0.27873 0.0
H4403 H 0.34394 0.83425 0.28651 0.0
C4404 C 0.39349 0.12183 0.51929 0.0
C4405 C 0.3905 0.10949 0.5215 0.0
C4406 C 0.4047 0.12652 0.52316 0.0
C4407 C 0.4354 0.11545 0.52922 0.0
H4408 H 0.4405 0.1451 0.54815 0.0
C4409 C 0.4741 0.12123 0.56261 0.0
C4410 C 0.4807 0.13221 0.56297 0.0
C4411 C 0.46405 0.12009 0.55497 0.0
C4412 C 0.43923 0.13697 0.54259 0.0
H4413 H 0.3964 0.09268 0.53029 0.0
H4414 H 0.41583 0.10086 0.53711 0.0
H4415 H 0.42005 0.14019 0.54051 0.0
H4416 H 0.4822 0.15059 0.55558 0.0
H4417 H 0.46415 0.14868 0.54231 0.0
H4418 H 0.45436 0.11189 0.53177 0.0
C4419 C 0.40966 0.10683 0.53216 0.0
C4420 C 0.42756 0.13414 0.53829 0.0
C4421 C 0.3985 0.10218 0.52834 0.0
C4422 C 0.47725 0.14201 0.55537 0.0
C4423 C 0.46696 0.14095 0.54786 0.0
C4424 C 0.44699 0.11827 0.53349 0.0
C4425 C 0.41304 0.11889 0.52922 0.0
C4426 C 0.4255 0.12308 0.53204 0.0
C4427 C 0.46028 0.12997 0.54768 0.0
C4428 C 0.4489 0.12877 0.54064 0.0
H4429 H 0.38746 0.12768 0.51404 0.0
H4430 H 0.40709 0.13588 0.52089 0.0
H4431 H 0.43407 0.10702 0.52414 0.0
H4432 H 0.47661 0.11354 0.56836 0.0
H4433 H 0.45895 0.11159 0.55511 0.0
C4434 C 0.12993 0.14 0.76818 0.0
C4435 C 0.14191 0.13632 0.77087 0.0
C4436 C 0.12546 0.15115 0.77269 0.0
C4437 C 0.13741 0.18095 0.78187 0.0
H4438 H 0.10666 0.1866 0.79839 0.0
C4439 C 0.13051 0.21938 0.81581 0.0
C4440 C 0.12008 0.22675 0.81507 0.0
C4441 C 0.13172 0.20913 0.80837 0.0
C4442 C 0.11514 0.18518 0.79353 0.0
H4443 H 0.15819 0.1408 0.7812 0.0
H4444 H 0.15035 0.16004 0.78915 0.0
H4445 H 0.11124 0.16621 0.78998 0.0
H4446 H 0.10271 0.22927 0.80598 0.0
H4447 H 0.10474 0.21091 0.79299 0.0
H4448 H 0.14158 0.19967 0.78582 0.0
C4449 C 0.14453 0.15453 0.78332 0.0
C4450 C 0.11778 0.17355 0.78879 0.0
C4451 C 0.14898 0.14347 0.77884 0.0
C4452 C 0.11088 0.22375 0.80664 0.0
C4453 C 0.112 0.21327 0.79929 0.0
C4454 C 0.1348 0.1925 0.78658 0.0
C4455 C 0.13292 0.15871 0.77991 0.0
C4456 C 0.12915 0.17125 0.78336 0.0
C4457 C 0.12246 0.20591 0.80012 0.0
C4458 C 0.12385 0.19459 0.79285 0.0
H4459 H 0.12429 0.13465 0.76204 0.0
H4460 H 0.11644 0.15415 0.77001 0.0
H4461 H 0.14612 0.1795 0.77742 0.0
H4462 H 0.13774 0.2215 0.82223 0.0
H4463 H 0.13981 0.20352 0.80928 0.0
C4464 C 0.47619 0.1034 0.1217 0.0
C4465 C 0.47697 0.10387 0.10883 0.0
C4466 C 0.47168 0.09292 0.12755 0.0
C4467 C 0.46782 0.05997 0.1225 0.0
H4468 H 0.43938 0.06177 0.14348 0.0
C4469 C 0.43022 0.02512 0.12145 0.0
C4470 C 0.42436 0.0213 0.1322 0.0
C4471 C 0.43935 0.03391 0.12191 0.0
C4472 C 0.44754 0.06111 0.13795 0.0
H4473 H 0.47345 0.09385 0.09201 0.0
H4474 H 0.46569 0.07565 0.10218 0.0
H4475 H 0.45021 0.0806 0.13791 0.0
H4476 H 0.42359 0.02335 0.15194 0.0
H4477 H 0.4395 0.03928 0.15271 0.0
H4478 H 0.46475 0.04063 0.12189 0.0
C4479 C 0.46865 0.08331 0.10776 0.0
C4480 C 0.4537 0.07187 0.13473 0.0
C4481 C 0.47298 0.09379 0.10193 0.0
C4482 C 0.42805 0.02616 0.14354 0.0
C4483 C 0.43708 0.03524 0.14398 0.0
C4484 C 0.46171 0.04926 0.12573 0.0
C4485 C 0.46809 0.0827 0.1206 0.0
C4486 C 0.46349 0.07141 0.12646 0.0
C4487 C 0.44271 0.03926 0.13312 0.0
C4488 C 0.45114 0.04981 0.13294 0.0
H4489 H 0.47921 0.11106 0.12724 0.0
H4490 H 0.47124 0.09267 0.13747 0.0
H4491 H 0.4755 0.05938 0.11629 0.0
H4492 H 0.42756 0.02146 0.1126 0.0
H4493 H 0.44339 0.03696 0.11337 0.0
C4494 C 0.22134 0.1853 0.38875 0.0
C4495 C 0.22499 0.17597 0.38068 0.0
C4496 C 0.21011 0.19118 0.38706 0.0
C4497 C 0.18798 0.19819 0.36319 0.0
H4498 H 0.1635 0.19924 0.38881 0.0
C4499 C 0.13929 0.20961 0.35091 0.0
C4500 C 0.13366 0.21867 0.35804 0.0
C4501 C 0.1498 0.20383 0.3551 0.0
C4502 C 0.17029 0.1991 0.38162 0.0
H4503 H 0.21998 0.16555 0.3645 0.0
H4504 H 0.20065 0.17588 0.36148 0.0
H4505 H 0.18397 0.19147 0.39346 0.0
H4506 H 0.13393 0.22809 0.37555 0.0
H4507 H 0.15248 0.21811 0.38281 0.0
H4508 H 0.17452 0.20576 0.35133 0.0
C4509 C 0.20636 0.17865 0.3691 0.0
C4510 C 0.18198 0.19472 0.38429 0.0
C4511 C 0.2174 0.17272 0.37086 0.0
C4512 C 0.13811 0.22113 0.36986 0.0
C4513 C 0.14873 0.21542 0.37402 0.0
C4514 C 0.17639 0.20258 0.36055 0.0
C4515 C 0.2026 0.18791 0.37717 0.0
C4516 C 0.1908 0.194 0.375 0.0
C4517 C 0.15496 0.20712 0.36643 0.0
C4518 C 0.16733 0.20281 0.36964 0.0
H4519 H 0.22702 0.18791 0.39643 0.0
H4520 H 0.20737 0.19833 0.39338 0.0
H4521 H 0.1947 0.19789 0.35593 0.0
H4522 H 0.13595 0.20742 0.34182 0.0
H4523 H 0.15421 0.19718 0.34921 0.0
C4524 C 0.01832 0.89222 0.62216 0.0
C4525 C 0.01749 0.89174 0.60929 0.0
C4526 C 0.02301 0.90265 0.62797 0.0
C4527 C 0.02732 0.93551 0.62275 0.0
H4528 H 0.05558 0.93345 0.64397 0.0
C4529 C 0.06542 0.96976 0.62179 0.0
C4530 C 0.07066 0.97415 0.63265 0.0
C4531 C 0.05643 0.96082 0.62217 0.0
C4532 C 0.04747 0.93418 0.63837 0.0
H4533 H 0.02111 0.90165 0.59243 0.0
H4534 H 0.02919 0.91976 0.60253 0.0
H4535 H 0.04453 0.91473 0.6384 0.0
H4536 H 0.07055 0.97287 0.65247 0.0
H4537 H 0.05492 0.95665 0.65313 0.0
H4538 H 0.03069 0.9548 0.62203 0.0
C4539 C 0.02613 0.91216 0.60814 0.0
C4540 C 0.04119 0.92348 0.63515 0.0
C4541 C 0.02162 0.90174 0.60235 0.0
C4542 C 0.06658 0.96961 0.64399 0.0
C4543 C 0.05771 0.96037 0.64436 0.0
C4544 C 0.03355 0.94615 0.62596 0.0
C4545 C 0.02673 0.91279 0.62098 0.0
C4546 C 0.03147 0.92404 0.62681 0.0
C4547 C 0.0526 0.95591 0.63342 0.0
C4548 C 0.04405 0.94549 0.63327 0.0
H4549 H 0.01521 0.88463 0.62773 0.0
H4550 H 0.02348 0.90292 0.63788 0.0
H4551 H 0.01969 0.93618 0.61649 0.0
H4552 H 0.06836 0.97316 0.61294 0.0
H4553 H 0.05278 0.9574 0.6136 0.0
C4554 C 0.3526 0.77243 0.86905 0.0
C4555 C 0.35654 0.77433 0.85694 0.0
C4556 C 0.34129 0.7769 0.87289 0.0
C4557 C 0.31179 0.78524 0.85951 0.0
H4558 H 0.30518 0.80109 0.89062 0.0
C4559 C 0.27126 0.81665 0.86727 0.0
C4560 C 0.26452 0.81557 0.87814 0.0
C4561 C 0.28181 0.80981 0.86559 0.0
C4562 C 0.30688 0.79646 0.88201 0.0
H4563 H 0.35229 0.7832 0.83967 0.0
H4564 H 0.33277 0.79122 0.84643 0.0
H4565 H 0.32573 0.79352 0.88621 0.0
H4566 H 0.26332 0.80631 0.89569 0.0
H4567 H 0.28212 0.79445 0.89282 0.0
H4568 H 0.29311 0.78853 0.85511 0.0
C4569 C 0.33819 0.78597 0.85285 0.0
C4570 C 0.31862 0.79218 0.87947 0.0
C4571 C 0.34941 0.78147 0.84901 0.0
C4572 C 0.26836 0.80729 0.88721 0.0
C4573 C 0.2791 0.80057 0.88561 0.0
C4574 C 0.30013 0.78954 0.86202 0.0
C4575 C 0.33382 0.78335 0.86467 0.0
C4576 C 0.32124 0.78687 0.86803 0.0
C4577 C 0.28593 0.80186 0.8748 0.0
C4578 C 0.29765 0.79548 0.87314 0.0
H4579 H 0.35793 0.76694 0.87535 0.0
H4580 H 0.33816 0.7748 0.88207 0.0
H4581 H 0.31346 0.78084 0.85076 0.0
H4582 H 0.26848 0.82295 0.86011 0.0
H4583 H 0.28698 0.81106 0.85722 0.0
C4584 C 0.47661 0.89219 0.37401 0.0
C4585 C 0.47749 0.89226 0.38688 0.0
C4586 C 0.47282 0.90271 0.36771 0.0
C4587 C 0.47176 0.93599 0.37104 0.0
H4588 H 0.44231 0.93561 0.35144 0.0
C4589 C 0.43681 0.97336 0.37256 0.0
C4590 C 0.43002 0.97663 0.3622 0.0
C4591 C 0.44568 0.96433 0.37179 0.0
C4592 C 0.45077 0.93586 0.35654 0.0
H4593 H 0.4749 0.90327 0.40324 0.0
H4594 H 0.46843 0.92154 0.39228 0.0
H4595 H 0.45183 0.91624 0.35746 0.0
H4596 H 0.42739 0.9735 0.34277 0.0
H4597 H 0.44286 0.95719 0.34147 0.0
H4598 H 0.47034 0.95553 0.37079 0.0
C4599 C 0.47073 0.91342 0.38706 0.0
C4600 C 0.45617 0.92478 0.36003 0.0
C4601 C 0.47431 0.90291 0.39333 0.0
C4602 C 0.43262 0.97114 0.35085 0.0
C4603 C 0.44139 0.96182 0.35013 0.0
C4604 C 0.46642 0.94702 0.36751 0.0
C4605 C 0.4701 0.91347 0.3742 0.0
C4606 C 0.46631 0.9248 0.36786 0.0
C4607 C 0.44782 0.95819 0.36068 0.0
C4608 C 0.45549 0.94705 0.36083 0.0
H4609 H 0.47901 0.88408 0.36881 0.0
H4610 H 0.47229 0.90253 0.35779 0.0
H4611 H 0.47971 0.9362 0.37692 0.0
H4612 H 0.43494 0.97751 0.38139 0.0
H4613 H 0.45033 0.96161 0.38012 0.0
C4614 C 0.27604 0.17508 0.62841 0.0
C4615 C 0.26797 0.17807 0.6189 0.0
C4616 C 0.2876 0.18024 0.62883 0.0
C4617 C 0.30637 0.20571 0.61754 0.0
H4618 H 0.33255 0.18443 0.62843 0.0
C4619 C 0.35543 0.22315 0.62409 0.0
C4620 C 0.35951 0.22134 0.63617 0.0
C4621 C 0.34527 0.21682 0.61973 0.0
C4622 C 0.32534 0.19044 0.6253 0.0
H4623 H 0.26543 0.1892 0.60264 0.0
H4624 H 0.28586 0.19816 0.60326 0.0
H4625 H 0.31229 0.17594 0.62508 0.0
H4626 H 0.35676 0.21094 0.65288 0.0
H4627 H 0.33916 0.19969 0.64518 0.0
H4628 H 0.31948 0.22023 0.61792 0.0
C4629 C 0.28318 0.19185 0.61043 0.0
C4630 C 0.31373 0.18563 0.62346 0.0
C4631 C 0.27149 0.18673 0.61007 0.0
C4632 C 0.35377 0.21253 0.64354 0.0
C4633 C 0.34375 0.20606 0.63912 0.0
C4634 C 0.31803 0.2105 0.61926 0.0
C4635 C 0.29143 0.18843 0.61968 0.0
C4636 C 0.30403 0.19329 0.61997 0.0
C4637 C 0.3392 0.20842 0.62732 0.0
C4638 C 0.32751 0.20296 0.6235 0.0
H4639 H 0.27351 0.16855 0.63544 0.0
H4640 H 0.29359 0.17772 0.63631 0.0
H4641 H 0.29908 0.21185 0.6149 0.0
H4642 H 0.35969 0.22991 0.61822 0.0
H4643 H 0.34195 0.21872 0.61058 0.0
C4644 C 0.06771 0.02677 0.85832 0.0
C4645 C 0.07664 0.02484 0.86735 0.0
C4646 C 0.06085 0.03762 0.85828 0.0
C4647 C 0.06174 0.06931 0.8704 0.0
H4648 H 0.02649 0.06818 0.86906 0.0
C4649 C 0.03127 0.10331 0.89546 0.0
C4650 C 0.02135 0.10842 0.88919 0.0
C4651 C 0.03822 0.09411 0.89003 0.0
C4652 C 0.03634 0.06866 0.86921 0.0
H4653 H 0.0852 0.03262 0.88354 0.0
H4654 H 0.07329 0.05122 0.88353 0.0
H4655 H 0.0383 0.04972 0.86433 0.0
H4656 H 0.01089 0.10799 0.87233 0.0
H4657 H 0.02294 0.09156 0.86292 0.0
H4658 H 0.05979 0.08801 0.87598 0.0
C4659 C 0.07171 0.04458 0.87631 0.0
C4660 C 0.04309 0.05812 0.86649 0.0
C4661 C 0.07847 0.03383 0.87637 0.0
C4662 C 0.01854 0.10423 0.87733 0.0
C4663 C 0.02537 0.09483 0.87197 0.0
C4664 C 0.05502 0.07976 0.87322 0.0
C4665 C 0.06292 0.04669 0.86722 0.0
C4666 C 0.05584 0.05824 0.86755 0.0
C4667 C 0.03526 0.0897 0.8783 0.0
C4668 C 0.04227 0.0794 0.87308 0.0
H4669 H 0.06611 0.01998 0.85126 0.0
H4670 H 0.05409 0.039 0.85119 0.0
H4671 H 0.07158 0.06975 0.871 0.0
H4672 H 0.03364 0.10638 0.9046 0.0
H4673 H 0.04573 0.09019 0.89514 0.0
C4674 C 0.21975 0.8173 0.12381 0.0
C4675 C 0.22909 0.81374 0.11579 0.0
C4676 C 0.20822 0.81218 0.12282 0.0
C4677 C 0.19143 0.78562 0.11178 0.0
H4678 H 0.16397 0.80728 0.11747 0.0
C4679 C 0.14284 0.7673 0.11906 0.0
C4680 C 0.13852 0.77078 0.13067 0.0
C4681 C 0.15274 0.77338 0.11383 0.0
C4682 C 0.17153 0.80116 0.11571 0.0
H4683 H 0.23384 0.80167 0.10074 0.0
H4684 H 0.21347 0.79262 0.099 0.0
H4685 H 0.18427 0.81592 0.11472 0.0
H4686 H 0.1405 0.78379 0.14556 0.0
H4687 H 0.15765 0.79455 0.13634 0.0
H4688 H 0.17869 0.77084 0.11322 0.0
C4689 C 0.21516 0.79944 0.10602 0.0
C4690 C 0.18314 0.80607 0.11421 0.0
C4691 C 0.22679 0.80458 0.10703 0.0
C4692 C 0.14371 0.7809 0.13662 0.0
C4693 C 0.15345 0.7871 0.1313 0.0
C4694 C 0.17978 0.78071 0.11319 0.0
C4695 C 0.20571 0.8034 0.11376 0.0
C4696 C 0.19327 0.79831 0.1128 0.0
C4697 C 0.15827 0.78317 0.12004 0.0
C4698 C 0.16984 0.78843 0.11568 0.0
H4699 H 0.22128 0.82424 0.13075 0.0
H4700 H 0.20123 0.81513 0.12919 0.0
H4701 H 0.19907 0.77944 0.11073 0.0
H4702 H 0.13898 0.7595 0.1143 0.0
H4703 H 0.15632 0.77022 0.10513 0.0
C4704 C 0.12387 0.4182 0.03284 0.0
C4705 C 0.12586 0.42513 0.0222 0.0
C4706 C 0.12287 0.42393 0.0442 0.0
C4707 C 0.12672 0.45369 0.06064 0.0
H4708 H 0.10136 0.43994 0.08118 0.0
C4709 C 0.09238 0.46906 0.10186 0.0
C4710 C 0.10029 0.47529 0.10982 0.0
C4711 C 0.09691 0.46253 0.09191 0.0
C4712 C 0.10844 0.44394 0.07555 0.0
H4713 H 0.12889 0.44337 0.01504 0.0
H4714 H 0.12643 0.45357 0.03489 0.0
H4715 H 0.1067 0.42981 0.06223 0.0
H4716 H 0.1192 0.47947 0.11368 0.0
H4717 H 0.12721 0.46772 0.09628 0.0
H4718 H 0.12784 0.46827 0.07377 0.0
C4719 C 0.12596 0.44367 0.03453 0.0
C4720 C 0.11166 0.43802 0.06473 0.0
C4721 C 0.12725 0.43787 0.02314 0.0
C4722 C 0.11289 0.47472 0.1077 0.0
C4723 C 0.11746 0.46808 0.09771 0.0
C4724 C 0.12338 0.45972 0.07146 0.0
C4725 C 0.12351 0.43676 0.04517 0.0
C4726 C 0.12075 0.44285 0.05705 0.0
C4727 C 0.10949 0.46192 0.0897 0.0
C4728 C 0.11404 0.45501 0.07891 0.0
H4729 H 0.12309 0.40831 0.0324 0.0
H4730 H 0.12139 0.41826 0.05222 0.0
H4731 H 0.13388 0.45758 0.05503 0.0
H4732 H 0.0826 0.4694 0.10316 0.0
H4733 H 0.09047 0.45815 0.08579 0.0
C4734 C 0.61656 0.0146 0.89292 0.0
C4735 C 0.60506 0.018 0.8884 0.0
C4736 C 0.62164 0.02081 0.90291 0.0
C4737 C 0.62016 0.04966 0.91998 0.0
H4738 H 0.62704 0.03045 0.94912 0.0
C4739 C 0.61609 0.07043 0.96731 0.0
C4740 C 0.62497 0.0679 0.97621 0.0
C4741 C 0.61595 0.06407 0.95628 0.0
C4742 C 0.62541 0.03593 0.941 0.0
H4743 H 0.59008 0.03078 0.89037 0.0
H4744 H 0.59905 0.04177 0.90758 0.0
H4745 H 0.62319 0.02007 0.92957 0.0
H4746 H 0.64044 0.05641 0.98073 0.0
H4747 H 0.64017 0.04514 0.96124 0.0
H4748 H 0.62202 0.06548 0.93136 0.0
C4749 C 0.60411 0.03429 0.90348 0.0
C4750 C 0.62322 0.03 0.92983 0.0
C4751 C 0.59895 0.02796 0.89369 0.0
C4752 C 0.63349 0.05854 0.97402 0.0
C4753 C 0.63335 0.05212 0.96289 0.0
C4754 C 0.62242 0.05557 0.93107 0.0
C4755 C 0.6154 0.03067 0.9083 0.0
C4756 C 0.62013 0.03683 0.91937 0.0
C4757 C 0.62471 0.05503 0.95382 0.0
C4758 C 0.62457 0.04875 0.94179 0.0
H4759 H 0.62142 0.00689 0.88902 0.0
H4760 H 0.63037 0.01788 0.90649 0.0
H4761 H 0.61797 0.05512 0.91198 0.0
H4762 H 0.60932 0.0775 0.96878 0.0
H4763 H 0.60896 0.06627 0.94962 0.0
C4764 C 0.16804 0.37047 0.21219 0.0
C4765 C 0.16888 0.37992 0.22088 0.0
C4766 C 0.17477 0.37092 0.20143 0.0
C4767 C 0.20228 0.38247 0.18758 0.0
H4768 H 0.18601 0.37144 0.15798 0.0
C4769 C 0.22728 0.37013 0.142 0.0
C4770 C 0.22477 0.35798 0.13853 0.0
C4771 C 0.2203 0.37587 0.15107 0.0
C4772 C 0.19064 0.37467 0.16613 0.0
H4773 H 0.17765 0.39718 0.22524 0.0
H4774 H 0.18972 0.39788 0.20622 0.0
H4775 H 0.17401 0.37646 0.1761 0.0
H4776 H 0.21289 0.3424 0.14151 0.0
H4777 H 0.20057 0.35249 0.15713 0.0
H4778 H 0.21899 0.38015 0.17764 0.0
C4779 C 0.1837 0.39019 0.20783 0.0
C4780 C 0.18381 0.37753 0.17648 0.0
C4781 C 0.17683 0.38978 0.21868 0.0
C4782 C 0.21503 0.35177 0.14403 0.0
C4783 C 0.20794 0.35756 0.1529 0.0
C4784 C 0.20915 0.37967 0.17714 0.0
C4785 C 0.18256 0.38082 0.19905 0.0
C4786 C 0.18959 0.38087 0.18748 0.0
C4787 C 0.21057 0.36961 0.15657 0.0
C4788 C 0.20339 0.37522 0.16653 0.0
H4789 H 0.16208 0.36269 0.21361 0.0
H4790 H 0.17395 0.36341 0.19498 0.0
H4791 H 0.20696 0.38501 0.19595 0.0
H4792 H 0.23478 0.37511 0.13791 0.0
H4793 H 0.22248 0.38516 0.15379 0.0
C4794 C 0.86231 0.94196 0.47268 0.0
C4795 C 0.87154 0.93363 0.47587 0.0
C4796 C 0.86354 0.94931 0.46221 0.0
C4797 C 0.88664 0.96179 0.44137 0.0
H4798 H 0.86248 0.95935 0.41551 0.0
C4799 C 0.90007 0.96899 0.39208 0.0
C4800 C 0.89352 0.97772 0.38532 0.0
C4801 C 0.89553 0.96457 0.40312 0.0
C4802 C 0.86919 0.96026 0.42273 0.0
H4803 H 0.88939 0.9267 0.47096 0.0
H4804 H 0.89162 0.9396 0.45297 0.0
H4805 H 0.85806 0.95087 0.43592 0.0
H4806 H 0.87662 0.98795 0.38432 0.0
H4807 H 0.86857 0.98003 0.40379 0.0
H4808 H 0.89797 0.97069 0.42818 0.0
C4809 C 0.88343 0.94047 0.45845 0.0
C4810 C 0.86666 0.95547 0.43438 0.0
C4811 C 0.88212 0.93303 0.46871 0.0
C4812 C 0.88186 0.98123 0.38936 0.0
C4813 C 0.87727 0.97674 0.40048 0.0
C4814 C 0.88917 0.96651 0.4298 0.0
C4815 C 0.87413 0.94859 0.45501 0.0
C4816 C 0.87557 0.95581 0.44364 0.0
C4817 C 0.88433 0.96876 0.40767 0.0
C4818 C 0.88066 0.96537 0.42025 0.0
H4819 H 0.85403 0.94253 0.47803 0.0
H4820 H 0.85625 0.95552 0.45972 0.0
H4821 H 0.89358 0.96234 0.44841 0.0
H4822 H 0.90901 0.96599 0.38913 0.0
H4823 H 0.90101 0.95819 0.40837 0.0
C4824 C 0.80821 0.11672 0.22381 0.0
C4825 C 0.81763 0.10833 0.22592 0.0
C4826 C 0.80049 0.11525 0.21377 0.0
C4827 C 0.78377 0.10784 0.19241 0.0
H4828 H 0.80439 0.11219 0.16384 0.0
C4829 C 0.76553 0.12027 0.14399 0.0
C4830 C 0.76983 0.13191 0.14054 0.0
C4831 C 0.77095 0.11397 0.15372 0.0
C4832 C 0.79852 0.11073 0.17169 0.0
H4833 H 0.82619 0.09157 0.21973 0.0
H4834 H 0.81289 0.08924 0.20174 0.0
H4835 H 0.81346 0.10603 0.18339 0.0
H4836 H 0.78343 0.14584 0.14409 0.0
H4837 H 0.79316 0.13461 0.16087 0.0
H4838 H 0.76891 0.11306 0.18079 0.0
C4839 C 0.81129 0.09673 0.20805 0.0
C4840 C 0.80367 0.10714 0.18283 0.0
C4841 C 0.81881 0.09802 0.21833 0.0
C4842 C 0.77994 0.1369 0.1466 0.0
C4843 C 0.78553 0.13046 0.15612 0.0
C4844 C 0.77859 0.11118 0.18121 0.0
C4845 C 0.80233 0.10556 0.20551 0.0
C4846 C 0.79641 0.10612 0.19337 0.0
C4847 C 0.78093 0.11907 0.1599 0.0
C4848 C 0.786 0.11311 0.1709 0.0
H4849 H 0.80727 0.1248 0.22952 0.0
H4850 H 0.79375 0.12226 0.21191 0.0
H4851 H 0.77803 0.10719 0.20046 0.0
H4852 H 0.7577 0.11625 0.13949 0.0
H4853 H 0.76725 0.1052 0.15654 0.0
C4854 C 0.36027 0.55602 0.52055 0.0
C4855 C 0.37005 0.56371 0.51744 0.0
C4856 C 0.36128 0.54796 0.53051 0.0
C4857 C 0.38331 0.53157 0.54924 0.0
H4858 H 0.36295 0.53835 0.57751 0.0
C4859 C 0.40018 0.52204 0.59736 0.0
C4860 C 0.39223 0.51706 0.6061 0.0
C4861 C 0.3958 0.52601 0.58607 0.0
C4862 C 0.36853 0.53614 0.56963 0.0
H4863 H 0.38865 0.56871 0.5218 0.0
H4864 H 0.39054 0.55441 0.53884 0.0
H4865 H 0.35802 0.54761 0.55765 0.0
H4866 H 0.37338 0.51265 0.61006 0.0
H4867 H 0.36567 0.51962 0.59015 0.0
H4868 H 0.39404 0.52041 0.56114 0.0
C4869 C 0.38207 0.55469 0.53374 0.0
C4870 C 0.36569 0.54141 0.55829 0.0
C4871 C 0.38097 0.5629 0.52405 0.0
C4872 C 0.37971 0.51649 0.60349 0.0
C4873 C 0.37531 0.52045 0.5921 0.0
C4874 C 0.38607 0.52623 0.56049 0.0
C4875 C 0.3722 0.54729 0.53717 0.0
C4876 C 0.37336 0.53954 0.54816 0.0
C4877 C 0.38337 0.52502 0.5832 0.0
C4878 C 0.37904 0.5289 0.57093 0.0
H4879 H 0.35175 0.55653 0.5156 0.0
H4880 H 0.35356 0.54234 0.53305 0.0
H4881 H 0.38927 0.52993 0.54149 0.0
H4882 H 0.40986 0.52271 0.59915 0.0
H4883 H 0.4022 0.52983 0.57955 0.0
C4884 C 0.22356 0.6446 0.3448 0.0
C4885 C 0.22836 0.63776 0.35457 0.0
C4886 C 0.21922 0.63873 0.33435 0.0
C4887 C 0.20551 0.61142 0.32251 0.0
H4888 H 0.21589 0.62521 0.29143 0.0
C4889 C 0.18034 0.60274 0.27623 0.0
C4890 C 0.17618 0.61406 0.27174 0.0
C4891 C 0.18922 0.60239 0.28548 0.0
C4892 C 0.21306 0.62109 0.30001 0.0
H4893 H 0.23197 0.6194 0.36127 0.0
H4894 H 0.22396 0.60906 0.34294 0.0
H4895 H 0.22659 0.63082 0.31022 0.0
H4896 H 0.17833 0.63377 0.2728 0.0
H4897 H 0.1939 0.63317 0.28858 0.0
H4898 H 0.1914 0.6024 0.31233 0.0
C4899 C 0.22379 0.61898 0.3434 0.0
C4900 C 0.21913 0.62433 0.31074 0.0
C4901 C 0.22833 0.62489 0.35385 0.0
C4902 C 0.18135 0.62493 0.27617 0.0
C4903 C 0.19033 0.62458 0.28512 0.0
C4904 C 0.19938 0.6082 0.31173 0.0
C4905 C 0.21946 0.6259 0.33347 0.0
C4906 C 0.21501 0.62002 0.32213 0.0
C4907 C 0.19423 0.61335 0.29001 0.0
C4908 C 0.20274 0.61354 0.3005 0.0
H4909 H 0.22345 0.65452 0.34506 0.0
H4910 H 0.21569 0.64425 0.3269 0.0
H4911 H 0.2022 0.60799 0.33121 0.0
H4912 H 0.17642 0.59424 0.27296 0.0
H4913 H 0.19207 0.59364 0.28918 0.0
C4914 C 0.2709 0.34925 0.8463 0.0
C4915 C 0.266 0.35679 0.85548 0.0
C4916 C 0.27523 0.35432 0.83543 0.0
C4917 C 0.28816 0.38162 0.82191 0.0
H4918 H 0.28047 0.36456 0.79167 0.0
C4919 C 0.31363 0.39039 0.77599 0.0
C4920 C 0.3189 0.37943 0.7718 0.0
C4921 C 0.30465 0.39011 0.78511 0.0
C4922 C 0.28257 0.36953 0.80001 0.0
H4923 H 0.26206 0.37558 0.86064 0.0
H4924 H 0.26995 0.3845 0.84157 0.0
H4925 H 0.26954 0.35938 0.81044 0.0
H4926 H 0.31861 0.35962 0.77335 0.0
H4927 H 0.3029 0.35911 0.78899 0.0
H4928 H 0.30169 0.3913 0.81155 0.0
C4929 C 0.27028 0.37466 0.84282 0.0
C4930 C 0.27637 0.36654 0.81074 0.0
C4931 C 0.2658 0.36956 0.8537 0.0
C4932 C 0.31475 0.36821 0.77647 0.0
C4933 C 0.30568 0.36791 0.78534 0.0
C4934 C 0.2944 0.38463 0.81114 0.0
C4935 C 0.27484 0.36704 0.83352 0.0
C4936 C 0.27952 0.37214 0.82189 0.0
C4937 C 0.30065 0.37884 0.78988 0.0
C4938 C 0.29203 0.37818 0.80025 0.0
H4939 H 0.27119 0.33939 0.84739 0.0
H4940 H 0.27896 0.34826 0.82851 0.0
H4941 H 0.29073 0.38609 0.8304 0.0
H4942 H 0.31672 0.39916 0.77252 0.0
H4943 H 0.30092 0.39864 0.78852 0.0
C4944 C 0.89488 0.88516 0.51567 0.0
C4945 C 0.88985 0.89662 0.51868 0.0
C4946 C 0.90489 0.88063 0.5222 0.0
C4947 C 0.92071 0.88296 0.55151 0.0
H4948 H 0.95026 0.87539 0.53357 0.0
C4949 C 0.96681 0.88297 0.57534 0.0
C4950 C 0.97555 0.87418 0.5721 0.0
C4951 C 0.95613 0.88417 0.56858 0.0
C4952 C 0.94203 0.87723 0.53871 0.0
H4953 H 0.89102 0.91214 0.53103 0.0
H4954 H 0.90827 0.9041 0.54259 0.0
H4955 H 0.93147 0.87982 0.52236 0.0
H4956 H 0.98012 0.85986 0.55913 0.0
H4957 H 0.96124 0.86181 0.54733 0.0
H4958 H 0.93112 0.88044 0.56784 0.0
C4959 C 0.90456 0.89868 0.53515 0.0
C4960 C 0.9313 0.87978 0.5323 0.0
C4961 C 0.89474 0.9033 0.5285 0.0
C4962 C 0.97352 0.86673 0.5618 0.0
C4963 C 0.96273 0.86787 0.55505 0.0
C4964 C 0.93136 0.88028 0.55791 0.0
C4965 C 0.9098 0.88738 0.53197 0.0
C4966 C 0.92065 0.883 0.53866 0.0
C4967 C 0.95385 0.87652 0.55847 0.0
C4968 C 0.94225 0.87778 0.55159 0.0
H4969 H 0.8913 0.87986 0.50809 0.0
H4970 H 0.90878 0.87189 0.51961 0.0
H4971 H 0.91256 0.88525 0.55661 0.0
H4972 H 0.96817 0.88893 0.58316 0.0
H4973 H 0.94967 0.89117 0.57127 0.0
C4974 C 0.85803 0.2207 0.32672 0.0
C4975 C 0.86766 0.22848 0.3234 0.0
C4976 C 0.85484 0.21082 0.31926 0.0
C4977 C 0.86772 0.19027 0.29618 0.0
H4978 H 0.83405 0.18211 0.28918 0.0
C4979 C 0.85518 0.15386 0.26069 0.0
C4980 C 0.84578 0.14564 0.26356 0.0
C4981 C 0.85735 0.16405 0.26804 0.0
C4982 C 0.84348 0.1842 0.29119 0.0
H4983 H 0.88136 0.23224 0.30959 0.0
H4984 H 0.87577 0.21496 0.29652 0.0
H4985 H 0.83875 0.20006 0.30174 0.0
H4986 H 0.83113 0.14169 0.27627 0.0
H4987 H 0.83502 0.15955 0.28931 0.0
H4988 H 0.8725 0.17442 0.28576 0.0
C4989 C 0.87076 0.21645 0.30495 0.0
C4990 C 0.84617 0.19448 0.29833 0.0
C4991 C 0.87392 0.22636 0.31239 0.0
C4992 C 0.83844 0.1479 0.27386 0.0
C4993 C 0.84063 0.15813 0.28127 0.0
C4994 C 0.86504 0.18 0.28909 0.0
C4995 C 0.86126 0.20852 0.30838 0.0
C4996 C 0.85833 0.19765 0.30082 0.0
C4997 C 0.8502 0.16624 0.27847 0.0
C4998 C 0.85291 0.1769 0.28643 0.0
H4999 H 0.85304 0.22212 0.33517 0.0
H5000 H 0.84756 0.2048 0.32218 0.0
H5001 H 0.87716 0.19235 0.29816 0.0
H5002 H 0.86093 0.15242 0.25275 0.0
H5003 H 0.86462 0.17026 0.2655 0.0
C5004 C 0.5205 0.12984 0.06131 0.0
C5005 C 0.51857 0.12212 0.07142 0.0
C5006 C 0.53151 0.12938 0.05485 0.0
C5007 C 0.56337 0.11869 0.05855 0.0
H5008 H 0.56432 0.11939 0.02302 0.0
C5009 C 0.60135 0.097 0.03005 0.0
C5010 C 0.60618 0.10372 0.02023 0.0
C5011 C 0.59139 0.10146 0.03658 0.0
C5012 C 0.56419 0.1194 0.03295 0.0
H5013 H 0.52634 0.10751 0.08239 0.0
H5014 H 0.54526 0.10643 0.071 0.0
H5015 H 0.545 0.12279 0.03365 0.0
H5016 H 0.60454 0.12041 0.00957 0.0
H5017 H 0.58679 0.12809 0.02087 0.0
H5018 H 0.58243 0.11467 0.05782 0.0
C5019 C 0.53853 0.11314 0.06825 0.0
C5020 C 0.55315 0.12134 0.03904 0.0
C5021 C 0.52762 0.11367 0.07472 0.0
C5022 C 0.601 0.11509 0.01715 0.0
C5023 C 0.59085 0.11945 0.02355 0.0
C5024 C 0.57433 0.11661 0.05248 0.0
C5025 C 0.54071 0.12113 0.05839 0.0
C5026 C 0.55257 0.12065 0.0519 0.0
C5027 C 0.58594 0.11261 0.03326 0.0
C5028 C 0.57478 0.11664 0.03964 0.0
H5029 H 0.51366 0.13646 0.05859 0.0
H5030 H 0.53292 0.13566 0.0473 0.0
H5031 H 0.56329 0.11844 0.06848 0.0
H5032 H 0.6052 0.08823 0.03263 0.0
H5033 H 0.58768 0.09597 0.04397 0.0
C5034 C 0.61887 0.76491 0.80894 0.0
C5035 C 0.62649 0.76153 0.81869 0.0
C5036 C 0.62168 0.77515 0.80177 0.0
C5037 C 0.63961 0.80379 0.80315 0.0
H5038 H 0.63273 0.8051 0.76831 0.0
C5039 C 0.65359 0.84435 0.77192 0.0
C5040 C 0.64432 0.84874 0.76423 0.0
C5041 C 0.65195 0.83348 0.77849 0.0
C5042 C 0.63466 0.80485 0.77805 0.0
H5043 H 0.64329 0.76573 0.82825 0.0
H5044 H 0.64839 0.78329 0.81555 0.0
H5045 H 0.62905 0.78614 0.77959 0.0
H5046 H 0.62605 0.84534 0.75743 0.0
H5047 H 0.62325 0.82637 0.76884 0.0
H5048 H 0.64531 0.82249 0.80154 0.0
C5049 C 0.64006 0.77834 0.81364 0.0
C5050 C 0.63251 0.79403 0.78452 0.0
C5051 C 0.63718 0.76823 0.82086 0.0
C5052 C 0.63337 0.84216 0.76328 0.0
C5053 C 0.63179 0.83127 0.76973 0.0
C5054 C 0.64187 0.81456 0.79666 0.0
C5055 C 0.63223 0.78207 0.80417 0.0
C5056 C 0.63487 0.79341 0.79716 0.0
C5057 C 0.64107 0.8268 0.77734 0.0
C5058 C 0.6393 0.81521 0.78409 0.0
H5059 H 0.61055 0.75991 0.8071 0.0
H5060 H 0.61539 0.77785 0.79462 0.0
H5061 H 0.64133 0.8037 0.81293 0.0
H5062 H 0.66211 0.84926 0.7728 0.0
H5063 H 0.65925 0.83018 0.7843 0.0
C5064 C 0.89399 0.11237 0.97794 0.0
C5065 C 0.88953 0.10051 0.97572 0.0
C5066 C 0.90517 0.11605 0.97299 0.0
C5067 C 0.93362 0.10259 0.96094 0.0
H5068 H 0.93903 0.13458 0.94645 0.0
C5069 C 0.97121 0.11209 0.92615 0.0
C5070 C 0.97828 0.1227 0.92753 0.0
C5071 C 0.96116 0.11007 0.93365 0.0
C5072 C 0.93768 0.12569 0.95066 0.0
H5073 H 0.89285 0.08345 0.96607 0.0
H5074 H 0.91207 0.08994 0.95722 0.0
H5075 H 0.91939 0.12995 0.95603 0.0
H5076 H 0.9805 0.13951 0.9379 0.0
H5077 H 0.96261 0.13607 0.95096 0.0
H5078 H 0.9517 0.09816 0.95515 0.0
C5079 C 0.9072 0.09629 0.96307 0.0
C5080 C 0.92646 0.12303 0.95612 0.0
C5081 C 0.89613 0.0926 0.96806 0.0
C5082 C 0.97521 0.13123 0.93668 0.0
C5083 C 0.96498 0.1293 0.94409 0.0
C5084 C 0.94475 0.10521 0.95541 0.0
C5085 C 0.91201 0.10793 0.96572 0.0
C5086 C 0.92422 0.11133 0.96102 0.0
C5087 C 0.95787 0.1187 0.9426 0.0
C5088 C 0.94677 0.11667 0.94997 0.0
H5089 H 0.88908 0.11864 0.98384 0.0
H5090 H 0.90863 0.12508 0.97518 0.0
H5091 H 0.9323 0.0936 0.96495 0.0
H5092 H 0.97338 0.10536 0.91918 0.0
H5093 H 0.95575 0.10189 0.93224 0.0
C5094 C 0.63727 0.154 0.73591 0.0
C5095 C 0.64748 0.14683 0.73298 0.0
C5096 C 0.63485 0.16476 0.72949 0.0
C5097 C 0.64938 0.18805 0.70992 0.0
H5098 H 0.61605 0.19584 0.70107 0.0
C5099 C 0.63669 0.22542 0.67506 0.0
C5100 C 0.62675 0.23303 0.67781 0.0
C5101 C 0.63945 0.21544 0.68252 0.0
C5102 C 0.62538 0.19386 0.70363 0.0
H5103 H 0.66312 0.14519 0.72099 0.0
H5104 H 0.65877 0.16396 0.70955 0.0
H5105 H 0.62041 0.17699 0.71223 0.0
H5106 H 0.61199 0.23633 0.69058 0.0
H5107 H 0.6168 0.21874 0.70366 0.0
H5108 H 0.65434 0.20484 0.70109 0.0
C5109 C 0.65275 0.16135 0.71697 0.0
C5110 C 0.62788 0.18307 0.71 0.0
C5111 C 0.6552 0.15057 0.72345 0.0
C5112 C 0.61971 0.2306 0.68827 0.0
C5113 C 0.62242 0.22053 0.6957 0.0
C5114 C 0.64688 0.19881 0.70349 0.0
C5115 C 0.64255 0.16856 0.71995 0.0
C5116 C 0.63992 0.18002 0.71318 0.0
C5117 C 0.63227 0.21282 0.69283 0.0
C5118 C 0.63486 0.20179 0.70025 0.0
H5119 H 0.63117 0.15138 0.74326 0.0
H5120 H 0.62703 0.1702 0.73213 0.0
H5121 H 0.65872 0.18607 0.71242 0.0
H5122 H 0.64229 0.22709 0.66706 0.0
H5123 H 0.64701 0.20958 0.68002 0.0
C5124 C 0.52004 0.86706 0.43543 0.0
C5125 C 0.5181 0.87445 0.42507 0.0
C5126 C 0.53097 0.86793 0.442 0.0
C5127 C 0.56267 0.87919 0.43834 0.0
H5128 H 0.56338 0.87901 0.47389 0.0
C5129 C 0.60062 0.90125 0.46675 0.0
C5130 C 0.60551 0.89449 0.47652 0.0
C5131 C 0.59054 0.89687 0.46033 0.0
C5132 C 0.56331 0.87889 0.46395 0.0
H5133 H 0.52574 0.88889 0.41377 0.0
H5134 H 0.54447 0.89068 0.42536 0.0
H5135 H 0.54418 0.87517 0.46317 0.0
H5136 H 0.60382 0.87784 0.48723 0.0
H5137 H 0.5859 0.8703 0.47612 0.0
H5138 H 0.58166 0.8835 0.43916 0.0
C5139 C 0.53784 0.88391 0.42822 0.0
C5140 C 0.55235 0.87668 0.45782 0.0
C5141 C 0.52704 0.88296 0.42164 0.0
C5142 C 0.60024 0.88319 0.47968 0.0
C5143 C 0.58999 0.87891 0.4734 0.0
C5144 C 0.57355 0.88154 0.44447 0.0
C5145 C 0.54006 0.87625 0.43834 0.0
C5146 C 0.55185 0.87714 0.44494 0.0
C5147 C 0.58505 0.88575 0.4637 0.0
C5148 C 0.57391 0.88168 0.45731 0.0
H5149 H 0.51329 0.86041 0.43825 0.0
H5150 H 0.53241 0.86189 0.44975 0.0
H5151 H 0.56268 0.87926 0.42841 0.0
H5152 H 0.60452 0.90998 0.46411 0.0
H5153 H 0.58682 0.90236 0.45295 0.0
C5154 C 0.86202 0.84816 0.22646 0.0
C5155 C 0.85013 0.85145 0.2298 0.0
C5156 C 0.86421 0.83723 0.22025 0.0
C5157 C 0.86748 0.81055 0.21438 0.0
H5158 H 0.8459 0.799 0.18877 0.0
C5159 C 0.87477 0.76403 0.19007 0.0
C5160 C 0.87256 0.76387 0.1774 0.0
C5161 C 0.87149 0.77426 0.19706 0.0
C5162 C 0.85207 0.80214 0.19585 0.0
H5163 H 0.83115 0.84608 0.2291 0.0
H5164 H 0.83499 0.82676 0.21844 0.0
H5165 H 0.8413 0.81808 0.19932 0.0
H5166 H 0.86558 0.77433 0.16201 0.0
H5167 H 0.86028 0.79223 0.17405 0.0
H5168 H 0.87856 0.79493 0.21051 0.0
C5169 C 0.84262 0.83273 0.22046 0.0
C5170 C 0.84933 0.813 0.20201 0.0
C5171 C 0.84041 0.84376 0.22657 0.0
C5172 C 0.86725 0.77414 0.1718 0.0
C5173 C 0.86412 0.78437 0.17872 0.0
C5174 C 0.87027 0.79976 0.20814 0.0
C5175 C 0.85458 0.82927 0.21738 0.0
C5176 C 0.85709 0.81741 0.21124 0.0
C5177 C 0.86608 0.78453 0.19145 0.0
C5178 C 0.86269 0.79551 0.19869 0.0
H5179 H 0.86968 0.85398 0.22874 0.0
H5180 H 0.87349 0.83502 0.21773 0.0
H5181 H 0.87352 0.81357 0.22163 0.0
H5182 H 0.87883 0.75619 0.19459 0.0
H5183 H 0.87304 0.77405 0.20686 0.0
C5184 C 0.56764 0.96926 0.88459 0.0
C5185 C 0.56634 0.97615 0.87382 0.0
C5186 C 0.5598 0.95955 0.88703 0.0
C5187 C 0.54237 0.93612 0.8721 0.0
H5188 H 0.52906 0.93104 0.90464 0.0
C5189 C 0.51715 0.89165 0.88661 0.0
C5190 C 0.52001 0.88721 0.89836 0.0
C5191 C 0.52135 0.90312 0.88281 0.0
C5192 C 0.53277 0.9323 0.89553 0.0
H5193 H 0.55578 0.97848 0.85719 0.0
H5194 H 0.54215 0.96111 0.86134 0.0
H5195 H 0.53838 0.95065 0.8995 0.0
H5196 H 0.52988 0.89103 0.91515 0.0
H5197 H 0.53745 0.91086 0.90842 0.0
H5198 H 0.53727 0.91757 0.8683 0.0
C5199 C 0.54918 0.96339 0.86792 0.0
C5200 C 0.53801 0.94354 0.89258 0.0
C5201 C 0.55693 0.9733 0.86558 0.0
C5202 C 0.52747 0.89424 0.90607 0.0
C5203 C 0.5317 0.90566 0.90226 0.0
C5204 C 0.53719 0.92481 0.87509 0.0
C5205 C 0.55062 0.95642 0.87865 0.0
C5206 C 0.54316 0.94542 0.88096 0.0
C5207 C 0.5285 0.91032 0.89069 0.0
C5208 C 0.53268 0.92268 0.88696 0.0
H5209 H 0.5748 0.9713 0.89111 0.0
H5210 H 0.56119 0.95422 0.89529 0.0
H5211 H 0.54638 0.93735 0.86311 0.0
H5212 H 0.51136 0.88643 0.88049 0.0
H5213 H 0.51872 0.90648 0.87385 0.0
C5214 C 0.85396 0.77106 0.63199 0.0
C5215 C 0.85641 0.76932 0.64452 0.0
C5216 C 0.84378 0.77782 0.62829 0.0
C5217 C 0.81774 0.78645 0.62335 0.0
H5218 H 0.8089 0.81505 0.64245 0.0
C5219 C 0.7711 0.81127 0.619 0.0
C5220 C 0.77106 0.824 0.62079 0.0
C5221 C 0.78184 0.80456 0.62071 0.0
C5222 C 0.81129 0.80719 0.63689 0.0
H5223 H 0.85011 0.77317 0.66297 0.0
H5224 H 0.83233 0.7847 0.65656 0.0
H5225 H 0.82725 0.80387 0.64751 0.0
H5226 H 0.78227 0.83985 0.62485 0.0
H5227 H 0.80096 0.8283 0.6274 0.0
H5228 H 0.80184 0.79005 0.61253 0.0
C5229 C 0.83836 0.78111 0.64956 0.0
C5230 C 0.82175 0.80066 0.63992 0.0
C5231 C 0.84853 0.77445 0.65325 0.0
C5232 C 0.78198 0.82999 0.6237 0.0
C5233 C 0.79269 0.82336 0.6252 0.0
C5234 C 0.80727 0.79307 0.62025 0.0
C5235 C 0.83586 0.78291 0.63705 0.0
C5236 C 0.82504 0.79014 0.63329 0.0
C5237 C 0.79271 0.81053 0.62406 0.0
C5238 C 0.80391 0.8035 0.62703 0.0
H5239 H 0.85989 0.76721 0.62506 0.0
H5240 H 0.84218 0.77916 0.61858 0.0
H5241 H 0.81998 0.77832 0.61812 0.0
H5242 H 0.76278 0.80647 0.61668 0.0
H5243 H 0.78152 0.79468 0.61981 0.0
C5244 C 0.94276 0.02149 0.366 0.0
C5245 C 0.93315 0.01832 0.37387 0.0
C5246 C 0.95026 0.03146 0.36877 0.0
C5247 C 0.9611 0.05094 0.39359 0.0
H5248 H 0.96028 0.07759 0.37008 0.0
C5249 C 0.97345 0.09996 0.40752 0.0
C5250 C 0.97931 0.10755 0.39899 0.0
C5251 C 0.96912 0.08848 0.40401 0.0
C5252 C 0.96085 0.07018 0.37665 0.0
H5253 H 0.9242 0.02255 0.39108 0.0
H5254 H 0.93752 0.03973 0.39609 0.0
H5255 H 0.95124 0.05789 0.36477 0.0
H5256 H 0.98535 0.10913 0.38014 0.0
H5257 H 0.97813 0.0889 0.37406 0.0
H5258 H 0.97073 0.06309 0.40548 0.0
C5259 C 0.93916 0.03462 0.38773 0.0
C5260 C 0.95565 0.05892 0.3736 0.0
C5261 C 0.93151 0.02486 0.38483 0.0
C5262 C 0.98076 0.10348 0.38687 0.0
C5263 C 0.97659 0.09191 0.38339 0.0
C5264 C 0.96647 0.06213 0.39657 0.0
C5265 C 0.94842 0.03815 0.37961 0.0
C5266 C 0.95549 0.04933 0.38216 0.0
C5267 C 0.97074 0.08425 0.39193 0.0
C5268 C 0.96612 0.07199 0.38827 0.0
H5269 H 0.94422 0.01658 0.3575 0.0
H5270 H 0.95738 0.03405 0.36241 0.0
H5271 H 0.96113 0.04361 0.40028 0.0
H5272 H 0.97215 0.10291 0.41692 0.0
H5273 H 0.96439 0.08298 0.41076 0.0
C5274 C 0.64452 0.2134 0.15056 0.0
C5275 C 0.64003 0.22333 0.14375 0.0
C5276 C 0.65461 0.20684 0.14644 0.0
C5277 C 0.68241 0.21053 0.12918 0.0
H5278 H 0.68354 0.17505 0.13064 0.0
C5279 C 0.72612 0.18218 0.11869 0.0
C5280 C 0.72811 0.17202 0.12635 0.0
C5281 C 0.71516 0.1887 0.11936 0.0
C5282 C 0.68341 0.18497 0.13027 0.0
H5283 H 0.64237 0.23408 0.12719 0.0
H5284 H 0.66027 0.22268 0.12009 0.0
H5285 H 0.66429 0.18562 0.13403 0.0
H5286 H 0.72053 0.16111 0.14111 0.0
H5287 H 0.7017 0.17264 0.14254 0.0
H5288 H 0.70164 0.20991 0.12594 0.0
C5289 C 0.65589 0.21997 0.12857 0.0
C5290 C 0.67237 0.19099 0.13214 0.0
C5291 C 0.64564 0.22642 0.13259 0.0
C5292 C 0.7192 0.16882 0.13499 0.0
C5293 C 0.70835 0.17536 0.13573 0.0
C5294 C 0.69351 0.2045 0.12742 0.0
C5295 C 0.66051 0.2102 0.13552 0.0
C5296 C 0.67183 0.20383 0.13188 0.0
C5297 C 0.70607 0.18521 0.12775 0.0
C5298 C 0.69417 0.19166 0.12827 0.0
H5299 H 0.64036 0.21082 0.15918 0.0
H5300 H 0.65807 0.19941 0.15203 0.0
H5301 H 0.68222 0.22046 0.12901 0.0
H5302 H 0.73283 0.18484 0.11193 0.0
H5303 H 0.71367 0.19625 0.11308 0.0
C5304 C 0.56688 0.02675 0.61233 0.0
C5305 C 0.56482 0.01956 0.62278 0.0
C5306 C 0.55957 0.03688 0.60991 0.0
C5307 C 0.54236 0.06052 0.62477 0.0
H5308 H 0.53003 0.06666 0.59202 0.0
C5309 C 0.51763 0.1055 0.6107 0.0
C5310 C 0.52055 0.11008 0.59902 0.0
C5311 C 0.52192 0.09402 0.61442 0.0
C5312 C 0.53349 0.06512 0.60119 0.0
H5313 H 0.55342 0.01714 0.63883 0.0
H5314 H 0.54074 0.03522 0.63472 0.0
H5315 H 0.53888 0.04678 0.5969 0.0
H5316 H 0.53071 0.1066 0.58234 0.0
H5317 H 0.53846 0.08681 0.58892 0.0
H5318 H 0.53746 0.07906 0.62892 0.0
C5319 C 0.54797 0.03287 0.62839 0.0
C5320 C 0.53846 0.05372 0.60399 0.0
C5321 C 0.55517 0.02254 0.6307 0.0
C5322 C 0.52823 0.10325 0.59135 0.0
C5323 C 0.53257 0.09186 0.59508 0.0
C5324 C 0.53746 0.07201 0.62194 0.0
C5325 C 0.55017 0.04012 0.61799 0.0
C5326 C 0.5432 0.05143 0.6157 0.0
C5327 C 0.52923 0.08698 0.60653 0.0
C5328 C 0.53329 0.07451 0.61001 0.0
H5329 H 0.57423 0.02463 0.60606 0.0
H5330 H 0.56152 0.04242 0.6019 0.0
H5331 H 0.54605 0.05897 0.63385 0.0
H5332 H 0.51168 0.11056 0.61679 0.0
H5333 H 0.51919 0.0905 0.62328 0.0
C5334 C 0.645 0.78024 0.34388 0.0
C5335 C 0.63939 0.77138 0.35129 0.0
C5336 C 0.65594 0.7856 0.34747 0.0
C5337 C 0.67666 0.7908 0.37359 0.0
H5338 H 0.70039 0.79472 0.34753 0.0
C5339 C 0.72563 0.80984 0.38118 0.0
C5340 C 0.72851 0.81956 0.37323 0.0
C5341 C 0.71524 0.8027 0.3791 0.0
C5342 C 0.69385 0.79367 0.3549 0.0
H5343 H 0.64052 0.76155 0.36853 0.0
H5344 H 0.65981 0.77085 0.37478 0.0
H5345 H 0.68087 0.78512 0.34311 0.0
H5346 H 0.72304 0.82922 0.35675 0.0
H5347 H 0.70511 0.8167 0.35305 0.0
H5348 H 0.68975 0.79947 0.38534 0.0
C5349 C 0.65568 0.77371 0.36622 0.0
C5350 C 0.68265 0.78825 0.35236 0.0
C5351 C 0.64465 0.76838 0.36265 0.0
C5352 C 0.72104 0.8218 0.36303 0.0
C5353 C 0.71081 0.8146 0.36088 0.0
C5354 C 0.68794 0.79619 0.37615 0.0
C5355 C 0.66159 0.78213 0.3585 0.0
C5356 C 0.67381 0.78703 0.3616 0.0
C5357 C 0.70774 0.80506 0.36893 0.0
C5358 C 0.6965 0.79792 0.36674 0.0
H5359 H 0.64109 0.78284 0.33514 0.0
H5360 H 0.6601 0.79231 0.34147 0.0
H5361 H 0.67002 0.79 0.38089 0.0
H5362 H 0.73123 0.80794 0.38913 0.0
H5363 H 0.71307 0.79536 0.38541 0.0
C5364 C 0.9752 0.89005 0.11479 0.0
C5365 C 0.97169 0.88526 0.10337 0.0
C5366 C 0.96893 0.89998 0.11986 0.0
C5367 C 0.94005 0.91653 0.11906 0.0
H5368 H 0.95905 0.94581 0.12545 0.0
C5369 C 0.91827 0.96389 0.11874 0.0
C5370 C 0.92235 0.97288 0.12696 0.0
C5371 C 0.92428 0.9527 0.11785 0.0
C5372 C 0.95361 0.93766 0.12398 0.0
H5373 H 0.95866 0.88669 0.0885 0.0
H5374 H 0.94756 0.90386 0.09748 0.0
H5375 H 0.96939 0.92656 0.12074 0.0
H5376 H 0.93592 0.97728 0.1407 0.0
H5377 H 0.94639 0.95752 0.13928 0.0
H5378 H 0.92427 0.92752 0.12217 0.0
C5379 C 0.95518 0.89999 0.10247 0.0
C5380 C 0.95955 0.92666 0.12126 0.0
C5381 C 0.96156 0.89023 0.09731 0.0
C5382 C 0.93261 0.9705 0.13426 0.0
C5383 C 0.93861 0.95921 0.13343 0.0
C5384 C 0.93413 0.92745 0.12191 0.0
C5385 C 0.95894 0.90507 0.11368 0.0
C5386 C 0.95278 0.91611 0.11842 0.0
C5387 C 0.93446 0.95017 0.12523 0.0
C5388 C 0.94083 0.93824 0.12399 0.0
H5389 H 0.98301 0.88639 0.11962 0.0
H5390 H 0.97196 0.90376 0.12852 0.0
H5391 H 0.93466 0.90845 0.11705 0.0
H5392 H 0.91044 0.9655 0.11293 0.0
H5393 H 0.92102 0.94608 0.1112 0.0
C5394 C 0.85181 0.22502 0.86344 0.0
C5395 C 0.85671 0.22352 0.85165 0.0
C5396 C 0.84077 0.21945 0.86656 0.0
C5397 C 0.81331 0.20658 0.85166 0.0
H5398 H 0.80655 0.19311 0.88386 0.0
C5399 C 0.77469 0.17273 0.86125 0.0
C5400 C 0.76712 0.17503 0.87136 0.0
C5401 C 0.78506 0.17979 0.85929 0.0
C5402 C 0.80829 0.197 0.87489 0.0
H5403 H 0.85439 0.21444 0.83413 0.0
H5404 H 0.83545 0.20435 0.83969 0.0
H5405 H 0.82637 0.20248 0.87976 0.0
H5406 H 0.76435 0.18657 0.8873 0.0
H5407 H 0.78283 0.19882 0.88399 0.0
H5408 H 0.7954 0.20066 0.84668 0.0
C5409 C 0.83982 0.21018 0.8464 0.0
C5410 C 0.81962 0.20235 0.87252 0.0
C5411 C 0.85075 0.21586 0.84325 0.0
C5412 C 0.77003 0.18464 0.87942 0.0
C5413 C 0.78059 0.19158 0.87758 0.0
C5414 C 0.80208 0.20112 0.85398 0.0
C5415 C 0.83452 0.21218 0.85797 0.0
C5416 C 0.82233 0.20701 0.86081 0.0
C5417 C 0.78818 0.18918 0.86749 0.0
C5418 C 0.79954 0.19613 0.86555 0.0
H5419 H 0.85621 0.23093 0.87008 0.0
H5420 H 0.83693 0.22123 0.87553 0.0
H5421 H 0.81494 0.2104 0.84264 0.0
H5422 H 0.77264 0.1654 0.85488 0.0
H5423 H 0.79082 0.17771 0.8515 0.0
C5424 C 0.8719 0.56121 0.97825 0.0
C5425 C 0.87818 0.57187 0.98163 0.0
C5426 C 0.87568 0.55439 0.96812 0.0
C5427 C 0.89352 0.55706 0.93954 0.0
H5428 H 0.89001 0.5217 0.93952 0.0
C5429 C 0.90706 0.52481 0.89898 0.0
C5430 C 0.89754 0.51698 0.89544 0.0
C5431 C 0.90606 0.53177 0.90972 0.0
C5432 C 0.89107 0.53157 0.93944 0.0
H5433 H 0.8935 0.58364 0.97731 0.0
H5434 H 0.9003 0.57156 0.9598 0.0
H5435 H 0.886 0.53315 0.95827 0.0
H5436 H 0.87949 0.51038 0.90017 0.0
H5437 H 0.87788 0.52235 0.9189 0.0
H5438 H 0.8986 0.55534 0.92062 0.0
C5439 C 0.8923 0.5686 0.96479 0.0
C5440 C 0.8887 0.53814 0.95013 0.0
C5441 C 0.88844 0.57548 0.97486 0.0
C5442 C 0.88699 0.51632 0.90268 0.0
C5443 C 0.88609 0.5231 0.91344 0.0
C5444 C 0.89602 0.55045 0.92886 0.0
C5445 C 0.8859 0.55803 0.96125 0.0
C5446 C 0.8896 0.55099 0.95023 0.0
C5447 C 0.89563 0.5308 0.9171 0.0
C5448 C 0.89453 0.53769 0.92867 0.0
H5449 H 0.86392 0.55825 0.98327 0.0
H5450 H 0.8704 0.54642 0.96552 0.0
H5451 H 0.89419 0.56696 0.93926 0.0
H5452 H 0.91527 0.5255 0.89352 0.0
H5453 H 0.91352 0.5377 0.9124 0.0
C5454 C 0.38462 0.91883 0.02481 0.0
C5455 C 0.37535 0.92216 0.01659 0.0
C5456 C 0.38728 0.92618 0.0349 0.0
C5457 C 0.37371 0.94858 0.05546 0.0
H5458 H 0.40713 0.95675 0.0636 0.0
C5459 C 0.38514 0.98356 0.09281 0.0
C5460 C 0.39511 0.98124 0.10051 0.0
C5461 C 0.383 0.97624 0.08259 0.0
C5462 C 0.39777 0.95439 0.06155 0.0
H5463 H 0.36159 0.93576 0.0124 0.0
H5464 H 0.36617 0.94864 0.03022 0.0
H5465 H 0.40283 0.9444 0.04544 0.0
H5466 H 0.4107 0.96948 0.10362 0.0
H5467 H 0.40681 0.95641 0.0858 0.0
H5468 H 0.36861 0.95833 0.07164 0.0
C5469 C 0.37137 0.94032 0.0288 0.0
C5470 C 0.39531 0.94739 0.05113 0.0
C5471 C 0.36879 0.93301 0.0186 0.0
C5472 C 0.40296 0.97147 0.0978 0.0
C5473 C 0.40076 0.96404 0.08758 0.0
C5474 C 0.37617 0.95548 0.06593 0.0
C5475 C 0.38064 0.93695 0.03703 0.0
C5476 C 0.38325 0.94448 0.04797 0.0
C5477 C 0.39072 0.96635 0.07989 0.0
C5478 C 0.38822 0.95855 0.06904 0.0
H5479 H 0.38984 0.91051 0.02348 0.0
H5480 H 0.39437 0.92332 0.04118 0.0
H5481 H 0.36435 0.94627 0.05334 0.0
H5482 H 0.37899 0.99111 0.09461 0.0
H5483 H 0.37535 0.97844 0.07673 0.0
C5484 C 0.7713 0.63091 0.85495 0.0
C5485 C 0.77415 0.64274 0.85915 0.0
C5486 C 0.77708 0.62616 0.84457 0.0
C5487 C 0.80424 0.62898 0.82555 0.0
H5488 H 0.78358 0.61984 0.79817 0.0
C5489 C 0.82277 0.62799 0.77684 0.0
C5490 C 0.81891 0.61876 0.76877 0.0
C5491 C 0.81719 0.62945 0.78819 0.0
C5492 C 0.78949 0.62212 0.80579 0.0
H5493 H 0.78555 0.65869 0.8562 0.0
H5494 H 0.79586 0.65026 0.83825 0.0
H5495 H 0.77443 0.62449 0.81807 0.0
H5496 H 0.80603 0.60395 0.7661 0.0
H5497 H 0.79635 0.60635 0.78618 0.0
H5498 H 0.8193 0.62667 0.81341 0.0
C5499 C 0.7891 0.64472 0.84291 0.0
C5500 C 0.78425 0.62479 0.81715 0.0
C5501 C 0.78317 0.64955 0.85312 0.0
C5502 C 0.80916 0.61116 0.77215 0.0
C5503 C 0.80362 0.61255 0.78363 0.0
C5504 C 0.80949 0.62618 0.81426 0.0
C5505 C 0.78596 0.63308 0.83843 0.0
C5506 C 0.79157 0.62856 0.82701 0.0
C5507 C 0.8077 0.62161 0.79184 0.0
C5508 C 0.80215 0.62309 0.80415 0.0
H5509 H 0.76433 0.6255 0.85942 0.0
H5510 H 0.77456 0.61715 0.84127 0.0
H5511 H 0.81006 0.63172 0.83309 0.0
H5512 H 0.83018 0.63407 0.77441 0.0
H5513 H 0.82032 0.63676 0.79412 0.0
C5514 C 0.10791 0.07766 0.52423 0.0
C5515 C 0.11749 0.07361 0.51671 0.0
C5516 C 0.10476 0.07113 0.53477 0.0
C5517 C 0.11784 0.05069 0.5575 0.0
H5518 H 0.08464 0.04085 0.56459 0.0
C5519 C 0.10754 0.01464 0.59373 0.0
C5520 C 0.09735 0.01614 0.60133 0.0
C5521 C 0.10937 0.02235 0.58376 0.0
C5522 C 0.09392 0.04372 0.56284 0.0
H5523 H 0.13116 0.05949 0.51417 0.0
H5524 H 0.12574 0.04818 0.53269 0.0
H5525 H 0.08896 0.05305 0.54626 0.0
H5526 H 0.081 0.02682 0.60447 0.0
H5527 H 0.08435 0.04058 0.58702 0.0
H5528 H 0.12287 0.04154 0.57403 0.0
C5529 C 0.1207 0.05641 0.53042 0.0
C5530 C 0.09638 0.05064 0.55235 0.0
C5531 C 0.12376 0.06284 0.51981 0.0
C5532 C 0.08893 0.02547 0.59872 0.0
C5533 C 0.09082 0.03329 0.58873 0.0
C5534 C 0.11537 0.04391 0.56802 0.0
C5535 C 0.11124 0.06055 0.53803 0.0
C5536 C 0.1084 0.05395 0.54948 0.0
C5537 C 0.10114 0.03185 0.58121 0.0
C5538 C 0.10343 0.0401 0.57067 0.0
H5539 H 0.10291 0.08593 0.52203 0.0
H5540 H 0.09746 0.07452 0.54053 0.0
H5541 H 0.12715 0.05337 0.5556 0.0
H5542 H 0.11412 0.00744 0.59544 0.0
H5543 H 0.11724 0.02078 0.57798 0.0
C5544 C 0.21193 0.84446 0.85622 0.0
C5545 C 0.22092 0.85156 0.86197 0.0
C5546 C 0.20575 0.84897 0.84601 0.0
C5547 C 0.20968 0.86924 0.82007 0.0
H5548 H 0.17477 0.86546 0.81647 0.0
C5549 C 0.18336 0.88306 0.77589 0.0
C5550 C 0.17414 0.87491 0.77227 0.0
C5551 C 0.18917 0.88156 0.78722 0.0
C5552 C 0.18454 0.8665 0.8173 0.0
H5553 H 0.23037 0.86902 0.86174 0.0
H5554 H 0.21963 0.87684 0.8437 0.0
H5555 H 0.18439 0.86053 0.83599 0.0
H5556 H 0.16413 0.85854 0.77732 0.0
H5557 H 0.17442 0.85574 0.79678 0.0
H5558 H 0.20991 0.87474 0.80122 0.0
C5559 C 0.21737 0.86782 0.84716 0.0
C5560 C 0.19001 0.86373 0.82848 0.0
C5561 C 0.22344 0.86337 0.8575 0.0
C5562 C 0.1711 0.86506 0.77994 0.0
C5563 C 0.17693 0.86351 0.79115 0.0
C5564 C 0.20421 0.87191 0.80881 0.0
C5565 C 0.20856 0.8606 0.84128 0.0
C5566 C 0.20265 0.86485 0.82989 0.0
C5567 C 0.18587 0.87186 0.79504 0.0
C5568 C 0.19161 0.87029 0.80724 0.0
H5569 H 0.20981 0.83532 0.85948 0.0
H5570 H 0.19906 0.84319 0.84156 0.0
H5571 H 0.21947 0.87009 0.82093 0.0
H5572 H 0.18586 0.89075 0.77013 0.0
H5573 H 0.19602 0.88815 0.78997 0.0
C5574 C 0.6113 0.47938 0.40133 0.0
C5575 C 0.60045 0.47824 0.39464 0.0
C5576 C 0.61356 0.47182 0.41135 0.0
C5577 C 0.59834 0.452 0.43397 0.0
H5578 H 0.63133 0.44062 0.43968 0.0
C5579 C 0.61156 0.41727 0.47179 0.0
C5580 C 0.62173 0.42042 0.47893 0.0
C5581 C 0.60857 0.42411 0.46141 0.0
C5582 C 0.6221 0.44381 0.43823 0.0
H5583 H 0.58346 0.46827 0.39308 0.0
H5584 H 0.58752 0.45479 0.41053 0.0
H5585 H 0.62676 0.45244 0.4213 0.0
H5586 H 0.63672 0.43319 0.48092 0.0
H5587 H 0.63156 0.44509 0.46266 0.0
H5588 H 0.59372 0.44317 0.45089 0.0
C5589 C 0.59419 0.46169 0.40813 0.0
C5590 C 0.61947 0.45059 0.42773 0.0
C5591 C 0.59189 0.46935 0.39812 0.0
C5592 C 0.62883 0.43057 0.47558 0.0
C5593 C 0.62592 0.43733 0.46511 0.0
C5594 C 0.60096 0.44511 0.44443 0.0
C5595 C 0.60507 0.46285 0.41484 0.0
C5596 C 0.60761 0.45492 0.42557 0.0
C5597 C 0.6158 0.43412 0.45793 0.0
C5598 C 0.6129 0.4411 0.44671 0.0
H5599 H 0.61804 0.48622 0.39892 0.0
H5600 H 0.62191 0.47315 0.41647 0.0
H5601 H 0.58915 0.45532 0.43265 0.0
H5602 H 0.60591 0.40949 0.47418 0.0
H5603 H 0.60077 0.42142 0.45597 0.0
C5604 C 0.78346 0.34707 0.64297 0.0
C5605 C 0.77386 0.35366 0.63764 0.0
C5606 C 0.78985 0.35194 0.65287 0.0
C5607 C 0.78572 0.3714 0.67913 0.0
H5608 H 0.82094 0.37035 0.68127 0.0
C5609 C 0.81171 0.3848 0.72333 0.0
C5610 C 0.82159 0.37723 0.72639 0.0
C5611 C 0.80606 0.38367 0.7119 0.0
C5612 C 0.81109 0.37062 0.68085 0.0
H5613 H 0.76352 0.37059 0.63826 0.0
H5614 H 0.77459 0.37901 0.65584 0.0
H5615 H 0.81094 0.36527 0.66195 0.0
H5616 H 0.83315 0.3624 0.72009 0.0
H5617 H 0.82309 0.36016 0.70041 0.0
H5618 H 0.78577 0.37612 0.69815 0.0
C5619 C 0.77719 0.37013 0.65225 0.0
C5620 C 0.8054 0.36779 0.66978 0.0
C5621 C 0.77092 0.36534 0.6422 0.0
C5622 C 0.82561 0.36842 0.71794 0.0
C5623 C 0.81991 0.36722 0.7066 0.0
C5624 C 0.7914 0.37408 0.69026 0.0
C5625 C 0.78663 0.36342 0.65771 0.0
C5626 C 0.79267 0.36792 0.66891 0.0
C5627 C 0.81014 0.3749 0.70339 0.0
C5628 C 0.80414 0.37344 0.69131 0.0
H5629 H 0.78592 0.33806 0.6396 0.0
H5630 H 0.79704 0.34656 0.65702 0.0
H5631 H 0.77586 0.37145 0.67867 0.0
H5632 H 0.80847 0.3917 0.72967 0.0
H5633 H 0.7986 0.38977 0.70967 0.0
C5634 C 0.72815 0.63325 0.14059 0.0
C5635 C 0.72532 0.64498 0.13609 0.0
C5636 C 0.72213 0.62863 0.15089 0.0
C5637 C 0.69404 0.63125 0.16829 0.0
H5638 H 0.71293 0.62203 0.19691 0.0
C5639 C 0.67258 0.63045 0.21562 0.0
C5640 C 0.67574 0.62117 0.22392 0.0
C5641 C 0.67889 0.63178 0.20465 0.0
C5642 C 0.70753 0.62433 0.18893 0.0
H5643 H 0.71385 0.66096 0.13857 0.0
H5644 H 0.70312 0.65275 0.15636 0.0
H5645 H 0.72334 0.62693 0.17768 0.0
H5646 H 0.68811 0.6061 0.22743 0.0
H5647 H 0.69914 0.60831 0.208 0.0
H5648 H 0.67825 0.62872 0.17938 0.0
C5649 C 0.71005 0.64719 0.15199 0.0
C5650 C 0.71348 0.62715 0.17796 0.0
C5651 C 0.71621 0.6519 0.14186 0.0
C5652 C 0.68552 0.61335 0.22117 0.0
C5653 C 0.69182 0.61462 0.21008 0.0
C5654 C 0.6881 0.62829 0.17917 0.0
C5655 C 0.71303 0.63558 0.15664 0.0
C5656 C 0.70678 0.63097 0.16768 0.0
C5657 C 0.68844 0.62377 0.20164 0.0
C5658 C 0.69478 0.6252 0.18973 0.0
H5659 H 0.7352 0.62777 0.13634 0.0
H5660 H 0.72454 0.61964 0.15433 0.0
H5661 H 0.6887 0.63399 0.1604 0.0
H5662 H 0.66517 0.63671 0.21756 0.0
H5663 H 0.67628 0.63915 0.19854 0.0
C5664 C 0.52021 0.63487 0.93764 0.0
C5665 C 0.51666 0.62692 0.92816 0.0
C5666 C 0.53213 0.6346 0.94213 0.0
C5667 C 0.56305 0.62371 0.93362 0.0
H5668 H 0.5695 0.62635 0.96846 0.0
C5669 C 0.6043 0.60291 0.95807 0.0
C5670 C 0.60974 0.60952 0.96765 0.0
C5671 C 0.5942 0.60766 0.95195 0.0
C5672 C 0.56786 0.62585 0.95868 0.0
H5673 H 0.52256 0.61203 0.91641 0.0
H5674 H 0.54312 0.61122 0.92453 0.0
H5675 H 0.54879 0.62908 0.9609 0.0
H5676 H 0.60942 0.62657 0.97787 0.0
H5677 H 0.59155 0.63477 0.96729 0.0
H5678 H 0.58205 0.61981 0.93153 0.0
C5679 C 0.5369 0.618 0.92819 0.0
C5680 C 0.556 0.6274 0.95434 0.0
C5681 C 0.52506 0.61836 0.92364 0.0
C5682 C 0.60539 0.62129 0.97051 0.0
C5683 C 0.59515 0.62596 0.96452 0.0
C5684 C 0.57487 0.62203 0.93797 0.0
C5685 C 0.54066 0.62628 0.93731 0.0
C5686 C 0.55341 0.62602 0.9418 0.0
C5687 C 0.58929 0.61902 0.95543 0.0
C5688 C 0.57732 0.62281 0.95056 0.0
H5689 H 0.51392 0.64157 0.94131 0.0
H5690 H 0.53473 0.64111 0.94915 0.0
H5691 H 0.56142 0.62293 0.92386 0.0
H5692 H 0.60751 0.59383 0.95567 0.0
H5693 H 0.58979 0.60209 0.94503 0.0
C5694 C 0.61372 0.26956 0.18913 0.0
C5695 C 0.62291 0.26629 0.18078 0.0
C5696 C 0.61514 0.27988 0.19663 0.0
C5697 C 0.63846 0.30037 0.20938 0.0
H5698 H 0.61417 0.32612 0.20746 0.0
C5699 C 0.65119 0.34976 0.21867 0.0
C5700 C 0.64373 0.35666 0.22651 0.0
C5701 C 0.64726 0.33851 0.21418 0.0
C5702 C 0.62093 0.31893 0.20824 0.0
H5703 H 0.6409 0.27089 0.17401 0.0
H5704 H 0.64345 0.28866 0.18717 0.0
H5705 H 0.60988 0.30594 0.19851 0.0
H5706 H 0.62601 0.35752 0.23525 0.0
H5707 H 0.61908 0.3377 0.22726 0.0
H5708 H 0.64966 0.31333 0.21875 0.0
C5709 C 0.63515 0.28334 0.18793 0.0
C5710 C 0.61847 0.3074 0.20317 0.0
C5711 C 0.63366 0.27321 0.18034 0.0
C5712 C 0.63195 0.35239 0.22921 0.0
C5713 C 0.62799 0.34106 0.22467 0.0
C5714 C 0.6409 0.31182 0.21444 0.0
C5715 C 0.62587 0.28687 0.19604 0.0
C5716 C 0.6274 0.29818 0.20335 0.0
C5717 C 0.63579 0.33386 0.21743 0.0
C5718 C 0.63235 0.32134 0.21353 0.0
H5719 H 0.60533 0.26438 0.18961 0.0
H5720 H 0.60787 0.28243 0.20284 0.0
H5721 H 0.64541 0.29333 0.20982 0.0
H5722 H 0.66027 0.35286 0.21631 0.0
H5723 H 0.65333 0.33329 0.20833 0.0
C5724 C 0.974 0.35485 0.43655 0.0
C5725 C 0.97604 0.36311 0.42688 0.0
C5726 C 0.96239 0.35378 0.44175 0.0
C5727 C 0.93003 0.36133 0.43531 0.0
H5728 H 0.92672 0.36345 0.47062 0.0
C5729 C 0.89286 0.38776 0.46004 0.0
C5730 C 0.88754 0.38276 0.4706 0.0
C5731 C 0.90206 0.38145 0.45393 0.0
C5732 C 0.92748 0.36254 0.46076 0.0
H5733 H 0.96769 0.37693 0.4153 0.0
H5734 H 0.94772 0.37529 0.42447 0.0
H5735 H 0.94674 0.35968 0.46164 0.0
H5736 H 0.88723 0.36705 0.48279 0.0
H5737 H 0.90368 0.35616 0.47225 0.0
H5738 H 0.91093 0.36516 0.43443 0.0
C5739 C 0.95488 0.36936 0.42783 0.0
C5740 C 0.93893 0.36038 0.45562 0.0
C5741 C 0.96639 0.37041 0.42267 0.0
C5742 C 0.89118 0.37109 0.47464 0.0
C5743 C 0.90058 0.36487 0.46866 0.0
C5744 C 0.91864 0.36362 0.44043 0.0
C5745 C 0.95269 0.36095 0.43732 0.0
C5746 C 0.94039 0.36033 0.44282 0.0
C5747 C 0.90623 0.37013 0.4584 0.0
C5748 C 0.91738 0.36475 0.45317 0.0
H5749 H 0.98129 0.34909 0.43994 0.0
H5750 H 0.96095 0.34727 0.4491 0.0
H5751 H 0.93084 0.36101 0.42541 0.0
H5752 H 0.89017 0.39673 0.45674 0.0
H5753 H 0.90638 0.38574 0.4461 0.0
C5754 C 0.86395 0.63775 0.72465 0.0
C5755 C 0.8518 0.6342 0.72269 0.0
C5756 C 0.86834 0.64872 0.71965 0.0
C5757 C 0.85649 0.67845 0.70924 0.0
H5758 H 0.88765 0.68274 0.69308 0.0
C5759 C 0.86533 0.71656 0.67505 0.0
C5760 C 0.87586 0.7237 0.67635 0.0
C5761 C 0.86366 0.70614 0.68218 0.0
C5762 C 0.87902 0.68168 0.69778 0.0
H5763 H 0.83502 0.63879 0.71328 0.0
H5764 H 0.84271 0.65766 0.70439 0.0
H5765 H 0.88248 0.66283 0.70221 0.0
H5766 H 0.893 0.72555 0.68604 0.0
H5767 H 0.89014 0.70694 0.69848 0.0
H5768 H 0.85281 0.69707 0.70443 0.0
C5769 C 0.84875 0.65223 0.71006 0.0
C5770 C 0.87605 0.67032 0.70296 0.0
C5771 C 0.84437 0.64137 0.71507 0.0
C5772 C 0.88476 0.72021 0.68493 0.0
C5773 C 0.88317 0.70958 0.69197 0.0
C5774 C 0.85942 0.68971 0.70403 0.0
C5775 C 0.86063 0.65625 0.71264 0.0
C5776 C 0.86458 0.66851 0.70838 0.0
C5777 C 0.87255 0.70254 0.69067 0.0
C5778 C 0.87054 0.69132 0.69795 0.0
H5779 H 0.86986 0.63239 0.73051 0.0
H5780 H 0.87755 0.65158 0.72174 0.0
H5781 H 0.84773 0.67744 0.71368 0.0
H5782 H 0.85832 0.71904 0.66851 0.0
H5783 H 0.85545 0.70077 0.68093 0.0
C5784 C 0.5228 0.3608 0.56038 0.0
C5785 C 0.51944 0.36916 0.56956 0.0
C5786 C 0.53456 0.36105 0.55547 0.0
C5787 C 0.56548 0.37319 0.56216 0.0
H5788 H 0.57053 0.36916 0.52721 0.0
C5789 C 0.605 0.39403 0.53492 0.0
C5790 C 0.61061 0.38679 0.52592 0.0
C5791 C 0.59509 0.3895 0.54149 0.0
C5792 C 0.56928 0.37007 0.53702 0.0
H5793 H 0.52545 0.38469 0.5804 0.0
H5794 H 0.54567 0.38548 0.57152 0.0
H5795 H 0.55027 0.36607 0.5358 0.0
H5796 H 0.61069 0.36898 0.51707 0.0
H5797 H 0.59311 0.36117 0.52841 0.0
H5798 H 0.58439 0.37791 0.56319 0.0
C5799 C 0.53949 0.37839 0.56843 0.0
C5800 C 0.55768 0.3683 0.54195 0.0
C5801 C 0.52784 0.37804 0.57342 0.0
C5802 C 0.60652 0.37474 0.52398 0.0
C5803 C 0.59646 0.37029 0.53041 0.0
C5804 C 0.57702 0.37512 0.5572 0.0
C5805 C 0.54307 0.36978 0.55957 0.0
C5806 C 0.5556 0.37017 0.55452 0.0
C5807 C 0.59054 0.37773 0.53903 0.0
C5808 C 0.57893 0.37384 0.54456 0.0
H5809 H 0.5165 0.35384 0.55726 0.0
H5810 H 0.53704 0.35427 0.54868 0.0
H5811 H 0.56425 0.37437 0.57194 0.0
H5812 H 0.60802 0.40333 0.53662 0.0
H5813 H 0.59059 0.39543 0.54805 0.0
C5814 C 0.86451 0.35621 0.77261 0.0
C5815 C 0.85234 0.3599 0.77411 0.0
C5816 C 0.86899 0.34606 0.77898 0.0
C5817 C 0.86414 0.32713 0.80605 0.0
H5818 H 0.87672 0.3001 0.78672 0.0
C5819 C 0.86546 0.27862 0.82523 0.0
C5820 C 0.87524 0.2709 0.82229 0.0
C5821 C 0.86418 0.28993 0.8195 0.0
C5822 C 0.87347 0.30763 0.79229 0.0
H5823 H 0.83546 0.35624 0.78373 0.0
H5824 H 0.8434 0.3387 0.7951 0.0
H5825 H 0.8721 0.31963 0.77678 0.0
H5826 H 0.89131 0.26884 0.81095 0.0
H5827 H 0.88922 0.28885 0.80101 0.0
H5828 H 0.86546 0.31527 0.82155 0.0
C5829 C 0.84941 0.34358 0.78892 0.0
C5830 C 0.87081 0.31878 0.78659 0.0
C5831 C 0.84487 0.35357 0.78239 0.0
C5832 C 0.88366 0.27462 0.81336 0.0
C5833 C 0.88245 0.28605 0.80766 0.0
C5834 C 0.86694 0.31606 0.81177 0.0
C5835 C 0.86145 0.33964 0.78713 0.0
C5836 C 0.86582 0.32849 0.79338 0.0
C5837 C 0.87274 0.29388 0.81077 0.0
C5838 C 0.87128 0.30606 0.8049 0.0
H5839 H 0.87044 0.36092 0.76623 0.0
H5840 H 0.87831 0.34317 0.77749 0.0
H5841 H 0.86044 0.33456 0.81148 0.0
H5842 H 0.85876 0.27594 0.83201 0.0
H5843 H 0.8564 0.29555 0.82186 0.0
C5844 C 0.89204 0.59951 0.03608 0.0
C5845 C 0.88462 0.60679 0.02855 0.0
C5846 C 0.90136 0.60481 0.0429 0.0
C5847 C 0.91814 0.61836 0.05985 0.0
H5848 H 0.93868 0.64094 0.04178 0.0
C5849 C 0.96394 0.6327 0.07953 0.0
C5850 C 0.97377 0.63246 0.07134 0.0
C5851 C 0.95204 0.63259 0.07519 0.0
C5852 C 0.93304 0.63464 0.04694 0.0
H5853 H 0.88064 0.62539 0.02279 0.0
H5854 H 0.89693 0.63471 0.03488 0.0
H5855 H 0.91914 0.63469 0.03321 0.0
H5856 H 0.97905 0.63258 0.05224 0.0
H5857 H 0.95814 0.63165 0.04451 0.0
H5858 H 0.93229 0.61755 0.07315 0.0
C5859 C 0.89563 0.62488 0.03533 0.0
C5860 C 0.92177 0.63119 0.04212 0.0
C5861 C 0.88627 0.61955 0.02848 0.0
C5862 C 0.97156 0.63267 0.05869 0.0
C5863 C 0.95959 0.63226 0.05431 0.0
C5864 C 0.92942 0.6217 0.06461 0.0
C5865 C 0.90344 0.61752 0.04238 0.0
C5866 C 0.91436 0.62275 0.04838 0.0
C5867 C 0.94971 0.63191 0.06255 0.0
C5868 C 0.93714 0.62965 0.05809 0.0
H5869 H 0.89097 0.58965 0.03633 0.0
H5870 H 0.90731 0.59885 0.04811 0.0
H5871 H 0.91255 0.61197 0.06497 0.0
H5872 H 0.96545 0.63289 0.08935 0.0
H5873 H 0.94466 0.63272 0.08178 0.0
C5874 C 0.65066 0.64823 0.27453 0.0
C5875 C 0.64279 0.64048 0.26802 0.0
C5876 C 0.64657 0.65949 0.27887 0.0
C5877 C 0.61967 0.6776 0.28686 0.0
H5878 H 0.64236 0.70453 0.28256 0.0
C5879 C 0.61145 0.7268 0.30586 0.0
C5880 C 0.62097 0.73031 0.31372 0.0
C5881 C 0.61282 0.71663 0.29815 0.0
C5882 C 0.63589 0.69712 0.28372 0.0
H5883 H 0.62429 0.63812 0.26146 0.0
H5884 H 0.61711 0.65796 0.26914 0.0
H5885 H 0.64696 0.68459 0.27363 0.0
H5886 H 0.6395 0.7264 0.31934 0.0
H5887 H 0.64198 0.70893 0.30574 0.0
H5888 H 0.60878 0.69018 0.29727 0.0
C5889 C 0.62645 0.65527 0.27083 0.0
C5890 C 0.63855 0.6857 0.2787 0.0
C5891 C 0.63055 0.64393 0.26647 0.0
C5892 C 0.63201 0.72387 0.31339 0.0
C5893 C 0.63345 0.71391 0.30557 0.0
C5894 C 0.61698 0.6891 0.29186 0.0
C5895 C 0.63453 0.66329 0.27677 0.0
C5896 C 0.6307 0.67571 0.28062 0.0
C5897 C 0.62383 0.71008 0.29802 0.0
C5898 C 0.6253 0.69881 0.29069 0.0
H5899 H 0.6601 0.64577 0.27598 0.0
H5900 H 0.65292 0.66533 0.28374 0.0
H5901 H 0.61345 0.67006 0.28845 0.0
H5902 H 0.60284 0.73162 0.30597 0.0
H5903 H 0.60529 0.71381 0.29239 0.0
C5904 C 0.92366 0.52908 0.63688 0.0
C5905 C 0.91545 0.52629 0.6274 0.0
C5906 C 0.93046 0.53994 0.63652 0.0
C5907 C 0.93111 0.57038 0.62135 0.0
H5908 H 0.96597 0.56899 0.62679 0.0
C5909 C 0.96479 0.60239 0.59774 0.0
C5910 C 0.97402 0.6078 0.60479 0.0
C5911 C 0.95717 0.59357 0.60286 0.0
C5912 C 0.95622 0.56956 0.62547 0.0
H5913 H 0.90793 0.53264 0.61012 0.0
H5914 H 0.91981 0.55131 0.6094 0.0
H5915 H 0.95337 0.55116 0.63169 0.0
H5916 H 0.98254 0.60828 0.62272 0.0
H5917 H 0.96931 0.59251 0.63163 0.0
H5918 H 0.93406 0.58852 0.6145 0.0
C5919 C 0.92088 0.54531 0.61725 0.0
C5920 C 0.949 0.55938 0.62828 0.0
C5921 C 0.91414 0.53453 0.6176 0.0
C5922 C 0.97547 0.60426 0.6171 0.0
C5923 C 0.96795 0.59525 0.62218 0.0
C5924 C 0.93832 0.58047 0.61844 0.0
C5925 C 0.92908 0.54818 0.6267 0.0
C5926 C 0.93643 0.55955 0.62584 0.0
C5927 C 0.95873 0.58985 0.61509 0.0
C5928 C 0.95097 0.58 0.62011 0.0
H5929 H 0.92484 0.5229 0.64456 0.0
H5930 H 0.93671 0.54193 0.64393 0.0
H5931 H 0.92141 0.57089 0.61966 0.0
H5932 H 0.96345 0.60497 0.58824 0.0
H5933 H 0.95021 0.58943 0.59717 0.0
C5934 C 0.64271 0.7221 0.86792 0.0
C5935 C 0.63819 0.71879 0.85633 0.0
C5936 C 0.65382 0.71738 0.87205 0.0
C5937 C 0.68211 0.70656 0.85855 0.0
H5938 H 0.69033 0.69392 0.89074 0.0
C5939 C 0.72293 0.676 0.86665 0.0
C5940 C 0.73044 0.67809 0.87684 0.0
C5941 C 0.71219 0.68255 0.8652 0.0
C5942 C 0.68818 0.69767 0.8818 0.0
H5943 H 0.641 0.70706 0.84053 0.0
H5944 H 0.66021 0.69868 0.84781 0.0
H5945 H 0.66959 0.70133 0.88669 0.0
H5946 H 0.73273 0.68872 0.89347 0.0
H5947 H 0.71361 0.7002 0.89097 0.0
H5948 H 0.70049 0.70267 0.85351 0.0
C5949 C 0.65539 0.70518 0.85355 0.0
C5950 C 0.67634 0.70182 0.87948 0.0
C5951 C 0.64437 0.70991 0.84942 0.0
C5952 C 0.72711 0.68701 0.8855 0.0
C5953 C 0.71618 0.69349 0.88412 0.0
C5954 C 0.69386 0.70244 0.86086 0.0
C5955 C 0.66048 0.70929 0.86462 0.0
C5956 C 0.67314 0.70592 0.8677 0.0
C5957 C 0.70866 0.69127 0.87394 0.0
C5958 C 0.6969 0.69762 0.87237 0.0
H5959 H 0.6381 0.72894 0.87343 0.0
H5960 H 0.65754 0.72063 0.88066 0.0
H5961 H 0.67997 0.71002 0.84949 0.0
H5962 H 0.72529 0.66917 0.85983 0.0
H5963 H 0.70648 0.68055 0.85735 0.0
C5964 C 0.56543 0.47035 0.13798 0.0
C5965 C 0.57347 0.47245 0.12816 0.0
C5966 C 0.55871 0.45944 0.13857 0.0
C5967 C 0.55966 0.42777 0.12723 0.0
H5968 H 0.52444 0.42776 0.12949 0.0
C5969 C 0.53017 0.39231 0.10353 0.0
C5970 C 0.52014 0.3873 0.1097 0.0
C5971 C 0.53693 0.40169 0.10887 0.0
C5972 C 0.53429 0.42758 0.12914 0.0
H5973 H 0.5805 0.46495 0.11112 0.0
H5974 H 0.56888 0.44614 0.11217 0.0
H5975 H 0.53575 0.44675 0.13336 0.0
H5976 H 0.50934 0.38803 0.12634 0.0
H5977 H 0.52112 0.40475 0.13561 0.0
H5978 H 0.55823 0.40884 0.12237 0.0
C5979 C 0.56787 0.45277 0.1195 0.0
C5980 C 0.54074 0.43843 0.13134 0.0
C5981 C 0.57446 0.46361 0.11886 0.0
C5982 C 0.51708 0.39172 0.12141 0.0
C5983 C 0.52376 0.40128 0.12669 0.0
C5984 C 0.55325 0.417 0.12501 0.0
C5985 C 0.56009 0.45047 0.12942 0.0
C5986 C 0.55344 0.4387 0.12987 0.0
C5987 C 0.53372 0.40635 0.12043 0.0
C5988 C 0.54048 0.41694 0.12543 0.0
H5989 H 0.5645 0.47702 0.14527 0.0
H5990 H 0.55268 0.45789 0.14627 0.0
H5991 H 0.56948 0.4277 0.12628 0.0
H5992 H 0.53274 0.38906 0.0945 0.0
H5993 H 0.54447 0.40556 0.10377 0.0
C5994 C 0.7795 0.32283 0.37126 0.0
C5995 C 0.77042 0.31893 0.37941 0.0
C5996 C 0.79102 0.31755 0.37155 0.0
C5997 C 0.8076 0.29004 0.3812 0.0
H5998 H 0.83547 0.31064 0.37389 0.0
C5999 C 0.85544 0.27003 0.37326 0.0
C6000 C 0.85966 0.27294 0.36145 0.0
C6001 C 0.84579 0.27658 0.37841 0.0
C6002 C 0.82778 0.30482 0.37607 0.0
H6003 H 0.76616 0.30632 0.39416 0.0
H6004 H 0.78648 0.29711 0.39477 0.0
H6005 H 0.81563 0.32003 0.37751 0.0
H6006 H 0.85778 0.28544 0.34613 0.0
H6007 H 0.84109 0.29704 0.35523 0.0
H6008 H 0.81978 0.27482 0.37949 0.0
C6009 C 0.78462 0.30422 0.3881 0.0
C6010 C 0.81642 0.31015 0.37805 0.0
C6011 C 0.773 0.30947 0.38775 0.0
C6012 C 0.85464 0.28298 0.35522 0.0
C6013 C 0.84516 0.28966 0.36046 0.0
C6014 C 0.81901 0.28471 0.37935 0.0
C6015 C 0.79379 0.30831 0.38007 0.0
C6016 C 0.80611 0.30279 0.38014 0.0
C6017 C 0.84041 0.28627 0.37193 0.0
C6018 C 0.82908 0.29204 0.37633 0.0
H6019 H 0.77775 0.33003 0.36466 0.0
H6020 H 0.79775 0.32067 0.36499 0.0
H6021 H 0.79984 0.28411 0.38273 0.0
H6022 H 0.85915 0.2623 0.37825 0.0
H6023 H 0.84228 0.27385 0.38728 0.0
C6024 C 0.92689 0.46727 0.85665 0.0
C6025 C 0.91926 0.46998 0.86664 0.0
C6026 C 0.93344 0.45622 0.85638 0.0
C6027 C 0.93297 0.42525 0.86995 0.0
H6028 H 0.96799 0.42504 0.86557 0.0
C6029 C 0.9642 0.3916 0.89432 0.0
C6030 C 0.97374 0.38608 0.8878 0.0
C6031 C 0.95704 0.40059 0.88881 0.0
C6032 C 0.95818 0.42491 0.86655 0.0
H6033 H 0.91273 0.46342 0.88426 0.0
H6034 H 0.92406 0.44445 0.88379 0.0
H6035 H 0.95641 0.44368 0.86096 0.0
H6036 H 0.98323 0.3855 0.87037 0.0
H6037 H 0.97079 0.40154 0.86079 0.0
H6038 H 0.93479 0.40676 0.87621 0.0
C6039 C 0.92487 0.45065 0.87606 0.0
C6040 C 0.95157 0.43555 0.8639 0.0
C6041 C 0.91844 0.4616 0.87637 0.0
C6042 C 0.97589 0.38959 0.87559 0.0
C6043 C 0.96884 0.39877 0.87012 0.0
C6044 C 0.93956 0.41469 0.87265 0.0
C6045 C 0.93231 0.44774 0.86603 0.0
C6046 C 0.93897 0.43595 0.86609 0.0
C6047 C 0.95938 0.40436 0.87672 0.0
C6048 C 0.95227 0.41458 0.87145 0.0
H6049 H 0.92769 0.47357 0.84903 0.0
H6050 H 0.9392 0.45421 0.84857 0.0
H6051 H 0.92322 0.42524 0.87147 0.0
H6052 H 0.96233 0.38906 0.90374 0.0
H6053 H 0.94989 0.40487 0.89415 0.0
C6054 C 0.77141 0.68878 0.1071 0.0
C6055 C 0.76761 0.68093 0.11655 0.0
C6056 C 0.78192 0.69593 0.10857 0.0
C6057 C 0.80176 0.70905 0.13207 0.0
H6058 H 0.82899 0.70247 0.11037 0.0
C6059 C 0.85002 0.71374 0.14911 0.0
C6060 C 0.85827 0.72047 0.14199 0.0
C6061 C 0.8389 0.7101 0.14422 0.0
C6062 C 0.82141 0.70456 0.11637 0.0
H6063 H 0.77134 0.67467 0.13504 0.0
H6064 H 0.78936 0.6873 0.13771 0.0
H6065 H 0.80855 0.69519 0.10488 0.0
H6066 H 0.86178 0.72796 0.1239 0.0
H6067 H 0.84219 0.72146 0.11528 0.0
H6068 H 0.81456 0.71797 0.14379 0.0
C6069 C 0.78437 0.68791 0.12916 0.0
C6070 C 0.80975 0.70047 0.11321 0.0
C6071 C 0.77411 0.68064 0.1276 0.0
C6072 C 0.85556 0.72277 0.12959 0.0
C6073 C 0.84437 0.7191 0.12467 0.0
C6074 C 0.81335 0.71314 0.1352 0.0
C6075 C 0.78846 0.6955 0.11963 0.0
C6076 C 0.79996 0.70227 0.1213 0.0
C6077 C 0.83578 0.71313 0.13211 0.0
C6078 C 0.82336 0.71048 0.12764 0.0
H6079 H 0.76655 0.68908 0.09846 0.0
H6080 H 0.78496 0.70171 0.10111 0.0
H6081 H 0.7943 0.71066 0.13836 0.0
H6082 H 0.85191 0.71171 0.15865 0.0
H6083 H 0.83256 0.7052 0.15005 0.0
C6084 C 0.52337 0.59536 0.39671 0.0
C6085 C 0.518 0.60425 0.38916 0.0
C6086 C 0.52802 0.58461 0.39168 0.0
C6087 C 0.5407 0.57098 0.36422 0.0
H6088 H 0.53399 0.54085 0.38187 0.0
C6089 C 0.566 0.52472 0.35536 0.0
C6090 C 0.57175 0.52088 0.36621 0.0
C6091 C 0.55712 0.53395 0.35575 0.0
C6092 C 0.5358 0.54916 0.37674 0.0
H6093 H 0.5136 0.60906 0.37037 0.0
H6094 H 0.52201 0.5902 0.36152 0.0
H6095 H 0.52289 0.55948 0.38713 0.0
H6096 H 0.57249 0.52325 0.38594 0.0
H6097 H 0.55697 0.53905 0.38663 0.0
H6098 H 0.55411 0.56069 0.35427 0.0
C6099 C 0.52247 0.59158 0.37134 0.0
C6100 C 0.52952 0.55981 0.37978 0.0
C6101 C 0.51769 0.60234 0.37641 0.0
C6102 C 0.56825 0.52608 0.37743 0.0
C6103 C 0.55929 0.53505 0.37784 0.0
C6104 C 0.54702 0.56027 0.36116 0.0
C6105 C 0.52747 0.58253 0.37899 0.0
C6106 C 0.53231 0.57093 0.37395 0.0
C6107 C 0.55372 0.53916 0.36703 0.0
C6108 C 0.54499 0.54943 0.3678 0.0
H6109 H 0.52377 0.59656 0.40656 0.0
H6110 H 0.53207 0.57789 0.39776 0.0
H6111 H 0.54298 0.57945 0.35958 0.0
H6112 H 0.56859 0.52085 0.3466 0.0
H6113 H 0.55296 0.53705 0.3473 0.0
C6114 C 0.64487 0.28542 0.64622 0.0
C6115 C 0.63871 0.27618 0.63978 0.0
C6116 C 0.65491 0.2912 0.641 0.0
C6117 C 0.67993 0.28501 0.62055 0.0
H6118 H 0.68621 0.31971 0.62483 0.0
C6119 C 0.72651 0.30941 0.61067 0.0
C6120 C 0.72999 0.3175 0.62006 0.0
C6121 C 0.71493 0.304 0.61085 0.0
C6122 C 0.68457 0.31 0.62354 0.0
H6123 H 0.63787 0.26604 0.62268 0.0
H6124 H 0.65565 0.27609 0.61362 0.0
H6125 H 0.66585 0.3117 0.62863 0.0
H6126 H 0.7246 0.32555 0.63742 0.0
H6127 H 0.70466 0.31604 0.63783 0.0
H6128 H 0.69886 0.28328 0.61602 0.0
C6129 C 0.65264 0.27885 0.62267 0.0
C6130 C 0.67293 0.30545 0.62568 0.0
C6131 C 0.64246 0.27317 0.62783 0.0
C6132 C 0.72208 0.3195 0.62996 0.0
C6133 C 0.71063 0.31414 0.63015 0.0
C6134 C 0.69163 0.28958 0.61844 0.0
C6135 C 0.65906 0.28777 0.62931 0.0
C6136 C 0.67062 0.29286 0.62465 0.0
C6137 C 0.70677 0.30667 0.62042 0.0
C6138 C 0.69413 0.30204 0.6204 0.0
H6139 H 0.64215 0.28792 0.65543 0.0
H6140 H 0.65978 0.29797 0.64637 0.0
H6141 H 0.67836 0.27524 0.61975 0.0
H6142 H 0.73246 0.3077 0.60294 0.0
H6143 H 0.71218 0.29817 0.6033 0.0
C6144 C 0.63355 0.93968 0.52204 0.0
C6145 C 0.62434 0.93126 0.51904 0.0
C6146 C 0.63231 0.94727 0.53234 0.0
C6147 C 0.60924 0.96047 0.55263 0.0
H6148 H 0.63302 0.95835 0.57886 0.0
C6149 C 0.59538 0.96942 0.60159 0.0
C6150 C 0.60239 0.97762 0.60855 0.0
C6151 C 0.59977 0.96485 0.59054 0.0
C6152 C 0.62642 0.95919 0.57153 0.0
H6153 H 0.60652 0.92438 0.52412 0.0
H6154 H 0.60426 0.93772 0.54181 0.0
H6155 H 0.63756 0.94922 0.55877 0.0
H6156 H 0.61983 0.98684 0.60983 0.0
H6157 H 0.6276 0.9787 0.59034 0.0
H6158 H 0.59793 0.97001 0.56536 0.0
C6159 C 0.61245 0.93845 0.53632 0.0
C6160 C 0.62902 0.95402 0.56006 0.0
C6161 C 0.61377 0.93078 0.52623 0.0
C6162 C 0.61424 0.98053 0.60463 0.0
C6163 C 0.61867 0.97591 0.59349 0.0
C6164 C 0.60667 0.96561 0.56401 0.0
C6165 C 0.62172 0.94669 0.53954 0.0
C6166 C 0.62024 0.95424 0.55069 0.0
C6167 C 0.61127 0.96839 0.58617 0.0
C6168 C 0.61502 0.9646 0.57371 0.0
H6169 H 0.64181 0.94018 0.51665 0.0
H6170 H 0.63957 0.95356 0.53468 0.0
H6171 H 0.60241 0.96092 0.54547 0.0
H6172 H 0.58628 0.96688 0.60444 0.0
H6173 H 0.59401 0.9588 0.58522 0.0
C6174 C 0.12858 0.55753 0.47394 0.0
C6175 C 0.12807 0.57035 0.47459 0.0
C6176 C 0.1273 0.55163 0.46261 0.0
C6177 C 0.11414 0.55775 0.43208 0.0
H6178 H 0.12817 0.52619 0.42389 0.0
C6179 C 0.11326 0.5203 0.38987 0.0
C6180 C 0.10064 0.5204 0.3877 0.0
C6181 C 0.11815 0.5268 0.39978 0.0
C6182 C 0.12432 0.53509 0.42597 0.0
H6183 H 0.12703 0.58713 0.46403 0.0
H6184 H 0.12535 0.57694 0.44431 0.0
H6185 H 0.13476 0.53681 0.44249 0.0
H6186 H 0.08328 0.52736 0.39417 0.0
H6187 H 0.09172 0.53846 0.41141 0.0
H6188 H 0.10385 0.55618 0.41557 0.0
C6189 C 0.12611 0.57136 0.45248 0.0
C6190 C 0.12798 0.5411 0.43669 0.0
C6191 C 0.12709 0.57721 0.46377 0.0
C6192 C 0.09305 0.52716 0.39553 0.0
C6193 C 0.0979 0.5336 0.40539 0.0
C6194 C 0.11059 0.55182 0.42136 0.0
C6195 C 0.12576 0.5585 0.45178 0.0
C6196 C 0.12278 0.55242 0.43996 0.0
C6197 C 0.11049 0.53351 0.40765 0.0
C6198 C 0.11541 0.54031 0.41832 0.0
H6199 H 0.12943 0.55209 0.4822 0.0
H6200 H 0.127 0.54171 0.46243 0.0
H6201 H 0.10977 0.56635 0.43434 0.0
H6202 H 0.11932 0.51514 0.38399 0.0
H6203 H 0.1279 0.52664 0.40125 0.0
C6204 C 0.67728 0.88911 0.7182 0.0
C6205 C 0.66916 0.87929 0.71988 0.0
C6206 C 0.6844 0.88981 0.70754 0.0
C6207 C 0.68496 0.87825 0.67578 0.0
H6208 H 0.72012 0.88081 0.67752 0.0
C6209 C 0.71674 0.85324 0.64344 0.0
C6210 C 0.72609 0.8598 0.63765 0.0
C6211 C 0.70968 0.85878 0.65247 0.0
C6212 C 0.71029 0.88037 0.67687 0.0
H6213 H 0.66237 0.86238 0.7119 0.0
H6214 H 0.67468 0.86358 0.69359 0.0
H6215 H 0.70782 0.88502 0.69584 0.0
H6216 H 0.7355 0.87725 0.63676 0.0
H6217 H 0.72326 0.88688 0.653 0.0
H6218 H 0.68744 0.87278 0.65711 0.0
C6219 C 0.67543 0.87086 0.7003 0.0
C6220 C 0.70327 0.88278 0.68732 0.0
C6221 C 0.66844 0.87013 0.71087 0.0
C6222 C 0.72828 0.87203 0.64107 0.0
C6223 C 0.72135 0.87752 0.65034 0.0
C6224 C 0.69195 0.87576 0.66543 0.0
C6225 C 0.68336 0.88077 0.69841 0.0
C6226 C 0.69058 0.88118 0.68697 0.0
C6227 C 0.71197 0.87092 0.65605 0.0
C6228 C 0.70468 0.87631 0.66604 0.0
H6229 H 0.67801 0.89629 0.72502 0.0
H6230 H 0.69052 0.8975 0.70631 0.0
H6231 H 0.67517 0.87719 0.67521 0.0
H6232 H 0.71483 0.84382 0.64096 0.0
H6233 H 0.70257 0.85348 0.65686 0.0
C6234 C 0.40178 0.47024 0.89582 0.0
C6235 C 0.39359 0.47664 0.88832 0.0
C6236 C 0.398 0.46558 0.90708 0.0
C6237 C 0.37133 0.4572 0.92567 0.0
H6238 H 0.39455 0.46104 0.95222 0.0
C6239 C 0.36333 0.43923 0.97531 0.0
C6240 C 0.3726 0.43106 0.97877 0.0
C6241 C 0.36479 0.44667 0.96496 0.0
C6242 C 0.38795 0.46001 0.94491 0.0
H6243 H 0.37489 0.48273 0.8864 0.0
H6244 H 0.36828 0.47462 0.90623 0.0
H6245 H 0.39899 0.46989 0.93221 0.0
H6246 H 0.3908 0.4246 0.97458 0.0
H6247 H 0.39346 0.43776 0.95679 0.0
H6248 H 0.36041 0.44709 0.93847 0.0
C6249 C 0.37761 0.47317 0.90335 0.0
C6250 C 0.39052 0.46496 0.93344 0.0
C6251 C 0.38138 0.47779 0.89201 0.0
C6252 C 0.3835 0.4308 0.97208 0.0
C6253 C 0.38505 0.43837 0.96195 0.0
C6254 C 0.36872 0.45229 0.93722 0.0
C6255 C 0.38598 0.46731 0.91113 0.0
C6256 C 0.38244 0.46325 0.92359 0.0
C6257 C 0.37566 0.44623 0.95818 0.0
C6258 C 0.3772 0.45334 0.9468 0.0
H6259 H 0.41121 0.46909 0.89315 0.0
H6260 H 0.40458 0.46078 0.91271 0.0
H6261 H 0.36494 0.45574 0.91825 0.0
H6262 H 0.35483 0.43956 0.98033 0.0
H6263 H 0.35745 0.45269 0.9622 0.0
C6264 C 0.32904 0.62587 0.7111 0.0
C6265 C 0.3275 0.61684 0.72013 0.0
C6266 C 0.32212 0.62563 0.70043 0.0
C6267 C 0.29335 0.61525 0.68773 0.0
H6268 H 0.30887 0.62514 0.65732 0.0
C6269 C 0.26697 0.62613 0.64275 0.0
C6270 C 0.26949 0.63805 0.63857 0.0
C6271 C 0.27424 0.62074 0.65179 0.0
C6272 C 0.30444 0.62225 0.66572 0.0
H6273 H 0.31744 0.60049 0.72513 0.0
H6274 H 0.30515 0.60013 0.70632 0.0
H6275 H 0.32136 0.62033 0.67518 0.0
H6276 H 0.28171 0.65356 0.64025 0.0
H6277 H 0.29452 0.64408 0.65585 0.0
H6278 H 0.27639 0.61758 0.67826 0.0
C6279 C 0.31178 0.60736 0.70758 0.0
C6280 C 0.31156 0.61954 0.67593 0.0
C6281 C 0.31879 0.60758 0.71831 0.0
C6282 C 0.27954 0.64438 0.64334 0.0
C6283 C 0.28691 0.63893 0.65219 0.0
C6284 C 0.28621 0.61789 0.67744 0.0
C6285 C 0.31348 0.61634 0.6985 0.0
C6286 C 0.30606 0.61656 0.68718 0.0
C6287 C 0.28427 0.62712 0.65656 0.0
C6288 C 0.29171 0.6219 0.66653 0.0
H6289 H 0.33564 0.63316 0.71222 0.0
H6290 H 0.32343 0.63285 0.69375 0.0
H6291 H 0.28888 0.613 0.69628 0.0
H6292 H 0.25923 0.62107 0.63923 0.0
H6293 H 0.27203 0.61164 0.65506 0.0
C6294 C 0.87084 0.07212 0.03005 0.0
C6295 C 0.86687 0.06695 0.01897 0.0
C6296 C 0.87102 0.06517 0.04074 0.0
C6297 C 0.87553 0.03436 0.05116 0.0
H6298 H 0.86592 0.04777 0.08268 0.0
C6299 C 0.89839 0.02061 0.0962 0.0
C6300 C 0.89093 0.01802 0.10632 0.0
C6301 C 0.8934 0.02548 0.08551 0.0
C6302 C 0.86849 0.04383 0.07394 0.0
H6303 H 0.8597 0.05058 0.01036 0.0
H6304 H 0.86039 0.03818 0.02917 0.0
H6305 H 0.85997 0.05829 0.06379 0.0
H6306 H 0.87246 0.0187 0.11333 0.0
H6307 H 0.86377 0.02753 0.09462 0.0
H6308 H 0.88451 0.0202 0.06131 0.0
C6309 C 0.86324 0.04768 0.02951 0.0
C6310 C 0.86514 0.04985 0.06316 0.0
C6311 C 0.86286 0.05474 0.0188 0.0
C6312 C 0.87842 0.02063 0.10565 0.0
C6313 C 0.87345 0.02566 0.09498 0.0
C6314 C 0.87899 0.02841 0.06194 0.0
C6315 C 0.86738 0.05286 0.04055 0.0
C6316 C 0.86892 0.04535 0.05171 0.0
C6317 C 0.88088 0.02797 0.08477 0.0
C6318 C 0.87579 0.03329 0.07341 0.0
H6319 H 0.87387 0.08156 0.03048 0.0
H6320 H 0.87441 0.06934 0.04909 0.0
H6321 H 0.87862 0.03075 0.04245 0.0
H6322 H 0.90805 0.01868 0.09643 0.0
H6323 H 0.89936 0.0274 0.07783 0.0
C6324 C 0.72253 0.14417 0.84467 0.0
C6325 C 0.72606 0.13733 0.85497 0.0
C6326 C 0.71888 0.13827 0.83396 0.0
C6327 C 0.70505 0.11131 0.82143 0.0
H6328 H 0.71949 0.12309 0.79117 0.0
C6329 C 0.68245 0.10198 0.77477 0.0
C6330 C 0.67981 0.11322 0.76911 0.0
C6331 C 0.69115 0.10144 0.78417 0.0
C6332 C 0.71548 0.11957 0.79953 0.0
H6333 H 0.72803 0.11897 0.86234 0.0
H6334 H 0.72119 0.10863 0.84356 0.0
H6335 H 0.72822 0.1292 0.81082 0.0
H6336 H 0.68467 0.1324 0.76796 0.0
H6337 H 0.6999 0.13147 0.78403 0.0
H6338 H 0.69172 0.10245 0.81016 0.0
C6339 C 0.7215 0.11855 0.84381 0.0
C6340 C 0.72045 0.12308 0.81075 0.0
C6341 C 0.72536 0.12446 0.85452 0.0
C6342 C 0.68658 0.12364 0.77223 0.0
C6343 C 0.69536 0.12306 0.78138 0.0
C6344 C 0.69999 0.10786 0.81017 0.0
C6345 C 0.71852 0.12543 0.83336 0.0
C6346 C 0.71493 0.11946 0.82177 0.0
C6347 C 0.69744 0.11208 0.78777 0.0
C6348 C 0.7048 0.11248 0.79914 0.0
H6349 H 0.72298 0.15408 0.84471 0.0
H6350 H 0.71638 0.14377 0.82607 0.0
H6351 H 0.70067 0.10839 0.82983 0.0
H6352 H 0.67723 0.09385 0.77254 0.0
H6353 H 0.69259 0.09286 0.78895 0.0
C6354 C 0.81776 0.88906 0.27832 0.0
C6355 C 0.82654 0.87995 0.2761 0.0
C6356 C 0.81118 0.88908 0.28934 0.0
C6357 C 0.81249 0.87659 0.32088 0.0
H6358 H 0.77725 0.87848 0.32027 0.0
C6359 C 0.78201 0.85133 0.35467 0.0
C6360 C 0.77216 0.85757 0.35994 0.0
C6361 C 0.78901 0.85692 0.3456 0.0
C6362 C 0.7871 0.87819 0.32061 0.0
H6363 H 0.83515 0.86365 0.28352 0.0
H6364 H 0.82368 0.86361 0.30243 0.0
H6365 H 0.78885 0.88326 0.30171 0.0
H6366 H 0.7619 0.87456 0.35999 0.0
H6367 H 0.77404 0.88424 0.34377 0.0
H6368 H 0.81071 0.8708 0.33954 0.0
C6369 C 0.82202 0.87089 0.29589 0.0
C6370 C 0.79373 0.88093 0.31002 0.0
C6371 C 0.82852 0.87085 0.28497 0.0
C6372 C 0.76949 0.86957 0.35608 0.0
C6373 C 0.77638 0.87509 0.34682 0.0
C6374 C 0.80588 0.87375 0.3314 0.0
C6375 C 0.81336 0.88005 0.29827 0.0
C6376 C 0.80646 0.87967 0.30993 0.0
C6377 C 0.78617 0.86878 0.3415 0.0
C6378 C 0.79312 0.8741 0.33122 0.0
H6379 H 0.81606 0.89619 0.27163 0.0
H6380 H 0.80451 0.89623 0.29093 0.0
H6381 H 0.82232 0.87582 0.32116 0.0
H6382 H 0.78428 0.84209 0.3575 0.0
H6383 H 0.79644 0.85181 0.34153 0.0
C6384 C 0.47596 0.36338 0.06089 0.0
C6385 C 0.47873 0.37215 0.0699 0.0
C6386 C 0.46603 0.36515 0.05303 0.0
C6387 C 0.44612 0.38908 0.04057 0.0
H6388 H 0.42072 0.36438 0.03997 0.0
C6389 C 0.39754 0.40175 0.02822 0.0
C6390 C 0.39111 0.39411 0.02014 0.0
C6391 C 0.40855 0.39792 0.03324 0.0
C6392 C 0.42782 0.37127 0.03988 0.0
H6393 H 0.47366 0.38978 0.07753 0.0
H6394 H 0.45658 0.39297 0.06371 0.0
H6395 H 0.44026 0.35983 0.04984 0.0
H6396 H 0.39085 0.37625 0.01142 0.0
H6397 H 0.41025 0.36954 0.02025 0.0
H6398 H 0.43373 0.40063 0.03088 0.0
C6399 C 0.46198 0.38472 0.06273 0.0
C6400 C 0.43898 0.36866 0.04549 0.0
C6401 C 0.47171 0.38286 0.07068 0.0
C6402 C 0.39563 0.38232 0.01763 0.0
C6403 C 0.40672 0.37849 0.02267 0.0
C6404 C 0.43504 0.39167 0.03495 0.0
C6405 C 0.45895 0.37584 0.05393 0.0
C6406 C 0.44807 0.3777 0.0462 0.0
C6407 C 0.41343 0.3864 0.03027 0.0
C6408 C 0.42562 0.38295 0.03491 0.0
H6409 H 0.48121 0.35501 0.06015 0.0
H6410 H 0.46386 0.35819 0.04629 0.0
H6411 H 0.45307 0.39613 0.04083 0.0
H6412 H 0.39424 0.41084 0.03043 0.0
H6413 H 0.41336 0.40409 0.03934 0.0
C6414 C 0.36342 0.6507 0.76615 0.0
C6415 C 0.35228 0.64445 0.76676 0.0
C6416 C 0.36554 0.66089 0.7735 0.0
C6417 C 0.34981 0.68458 0.79168 0.0
H6418 H 0.38231 0.68998 0.80455 0.0
C6419 C 0.36198 0.72216 0.82688 0.0
C6420 C 0.3722 0.72937 0.82408 0.0
C6421 C 0.35923 0.71185 0.81988 0.0
C6422 C 0.37323 0.68861 0.80092 0.0
H6423 H 0.33464 0.64378 0.77563 0.0
H6424 H 0.33848 0.66149 0.78886 0.0
H6425 H 0.37796 0.67136 0.79304 0.0
H6426 H 0.38756 0.73154 0.81179 0.0
H6427 H 0.38284 0.71328 0.79961 0.0
H6428 H 0.3451 0.70177 0.79989 0.0
C6429 C 0.34548 0.65865 0.78247 0.0
C6430 C 0.37072 0.67797 0.79432 0.0
C6431 C 0.3433 0.64849 0.77497 0.0
C6432 C 0.37962 0.72614 0.81412 0.0
C6433 C 0.37696 0.7157 0.80721 0.0
C6434 C 0.3523 0.69515 0.79843 0.0
C6435 C 0.35664 0.66497 0.78179 0.0
C6436 C 0.35903 0.6759 0.78948 0.0
C6437 C 0.36675 0.70848 0.81006 0.0
C6438 C 0.36406 0.69729 0.80299 0.0
H6439 H 0.37048 0.64786 0.75982 0.0
H6440 H 0.37412 0.66568 0.77252 0.0
H6441 H 0.34076 0.68335 0.78794 0.0
H6442 H 0.35608 0.72448 0.8345 0.0
H6443 H 0.35136 0.70637 0.82229 0.0
C6444 C 0.1048 0.61463 0.51907 0.0
C6445 C 0.10896 0.60264 0.52122 0.0
C6446 C 0.09467 0.61913 0.5254 0.0
C6447 C 0.07657 0.61493 0.55317 0.0
H6448 H 0.04868 0.62497 0.5338 0.0
C6449 C 0.02878 0.61409 0.57333 0.0
C6450 C 0.02052 0.62342 0.57027 0.0
C6451 C 0.0399 0.61317 0.56729 0.0
C6452 C 0.05644 0.62243 0.53937 0.0
H6453 H 0.10619 0.58615 0.53194 0.0
H6454 H 0.08873 0.59412 0.5432 0.0
H6455 H 0.06818 0.62105 0.52371 0.0
H6456 H 0.01731 0.63897 0.55834 0.0
H6457 H 0.03696 0.63748 0.54785 0.0
H6458 H 0.06498 0.61622 0.56882 0.0
C6459 C 0.0932 0.59998 0.53657 0.0
C6460 C 0.06758 0.62019 0.53359 0.0
C6461 C 0.10314 0.59541 0.53009 0.0
C6462 C 0.0235 0.63166 0.56085 0.0
C6463 C 0.03474 0.6308 0.55485 0.0
C6464 C 0.06552 0.61731 0.55896 0.0
C6465 C 0.08876 0.6118 0.53416 0.0
C6466 C 0.07762 0.61607 0.54041 0.0
C6467 C 0.04313 0.62163 0.55814 0.0
C6468 C 0.05521 0.62069 0.55209 0.0
H6469 H 0.10912 0.62036 0.51223 0.0
H6470 H 0.09139 0.62829 0.52342 0.0
H6471 H 0.08425 0.61192 0.55863 0.0
H6472 H 0.02668 0.60753 0.58047 0.0
H6473 H 0.04598 0.60577 0.56982 0.0
C6474 C 0.13753 0.272 0.32715 0.0
C6475 C 0.12713 0.26536 0.32365 0.0
C6476 C 0.14081 0.28265 0.32087 0.0
C6477 C 0.12724 0.30744 0.30369 0.0
H6478 H 0.1592 0.31301 0.28962 0.0
C6479 C 0.13503 0.34452 0.2679 0.0
C6480 C 0.14597 0.35113 0.26788 0.0
C6481 C 0.13347 0.33458 0.27571 0.0
C6482 C 0.15031 0.31169 0.2937 0.0
H6483 H 0.11222 0.2644 0.31064 0.0
H6484 H 0.11783 0.28314 0.29983 0.0
H6485 H 0.15528 0.29423 0.30127 0.0
H6486 H 0.16389 0.35264 0.27606 0.0
H6487 H 0.16109 0.33525 0.29001 0.0
H6488 H 0.12222 0.32483 0.29633 0.0
C6489 C 0.12342 0.28009 0.30743 0.0
C6490 C 0.14807 0.30094 0.30029 0.0
C6491 C 0.12025 0.26936 0.31358 0.0
C6492 C 0.15537 0.34766 0.27589 0.0
C6493 C 0.15378 0.33769 0.28382 0.0
C6494 C 0.12952 0.31822 0.29727 0.0
C6495 C 0.13362 0.2869 0.31113 0.0
C6496 C 0.13642 0.29862 0.30505 0.0
C6497 C 0.14279 0.33107 0.2838 0.0
C6498 C 0.14097 0.32032 0.2919 0.0
H6499 H 0.14302 0.26908 0.33487 0.0
H6500 H 0.14871 0.28778 0.32387 0.0
H6501 H 0.11826 0.30593 0.30751 0.0
H6502 H 0.12765 0.34693 0.26175 0.0
H6503 H 0.12501 0.32951 0.27523 0.0
C6504 C 0.47106 0.61312 0.42679 0.0
C6505 C 0.47839 0.62362 0.42757 0.0
C6506 C 0.46146 0.6114 0.43492 0.0
C6507 C 0.43907 0.62732 0.4528 0.0
H6508 H 0.43447 0.59542 0.46779 0.0
C6509 C 0.39585 0.61332 0.48069 0.0
C6510 C 0.39145 0.60149 0.47814 0.0
C6511 C 0.407 0.61721 0.47585 0.0
C6512 C 0.4356 0.60436 0.46364 0.0
H6513 H 0.48149 0.64058 0.43745 0.0
H6514 H 0.46431 0.63766 0.45163 0.0
H6515 H 0.45356 0.60006 0.45741 0.0
H6516 H 0.39495 0.5847 0.46809 0.0
H6517 H 0.41419 0.59152 0.45953 0.0
H6518 H 0.42084 0.63141 0.45857 0.0
C6519 C 0.46618 0.63075 0.44476 0.0
C6520 C 0.44654 0.60703 0.45778 0.0
C6521 C 0.47599 0.63237 0.43671 0.0
C6522 C 0.39815 0.59382 0.47032 0.0
C6523 C 0.40923 0.5977 0.4655 0.0
C6524 C 0.42803 0.62461 0.45863 0.0
C6525 C 0.45887 0.62022 0.44392 0.0
C6526 C 0.44823 0.61838 0.45199 0.0
C6527 C 0.41392 0.60932 0.46842 0.0
C6528 C 0.42606 0.61295 0.46373 0.0
H6529 H 0.47272 0.60622 0.41985 0.0
H6530 H 0.45587 0.60327 0.43399 0.0
H6531 H 0.44016 0.63612 0.44834 0.0
H6532 H 0.39086 0.61942 0.4867 0.0
H6533 H 0.41039 0.62623 0.47823 0.0
C6534 C 0.12116 0.72621 0.18083 0.0
C6535 C 0.12805 0.72831 0.1702 0.0
C6536 C 0.12414 0.71654 0.18867 0.0
C6537 C 0.14889 0.69556 0.19739 0.0
H6538 H 0.12255 0.674 0.20712 0.0
C6539 C 0.15686 0.64885 0.22149 0.0
C6540 C 0.14861 0.64578 0.23082 0.0
C6541 C 0.15481 0.65918 0.21417 0.0
C6542 C 0.13 0.68001 0.20462 0.0
H6543 H 0.14365 0.72223 0.1596 0.0
H6544 H 0.14885 0.70541 0.1733 0.0
H6545 H 0.11814 0.69202 0.19476 0.0
H6546 H 0.13199 0.65126 0.2401 0.0
H6547 H 0.12861 0.66931 0.22762 0.0
H6548 H 0.16075 0.68357 0.20734 0.0
C6549 C 0.14119 0.71122 0.1756 0.0
C6550 C 0.12745 0.69033 0.19756 0.0
C6551 C 0.13815 0.7208 0.16772 0.0
C6552 C 0.13844 0.65331 0.23287 0.0
C6553 C 0.13646 0.66363 0.22567 0.0
C6554 C 0.15143 0.68525 0.20456 0.0
C6555 C 0.13412 0.7089 0.18605 0.0
C6556 C 0.13686 0.6982 0.19389 0.0
C6557 C 0.14452 0.66662 0.21614 0.0
C6558 C 0.142 0.67739 0.20828 0.0
H6559 H 0.11334 0.73187 0.18296 0.0
H6560 H 0.11862 0.71499 0.19675 0.0
H6561 H 0.1563 0.70153 0.19472 0.0
H6562 H 0.16476 0.64318 0.21973 0.0
H6563 H 0.16114 0.66121 0.20683 0.0
C6564 C 0.10309 0.38216 0.97632 0.0
C6565 C 0.10755 0.39409 0.97449 0.0
C6566 C 0.0929 0.37805 0.9698 0.0
C6567 C 0.07494 0.38333 0.94209 0.0
H6568 H 0.04706 0.37273 0.96117 0.0
C6569 C 0.02727 0.38289 0.92123 0.0
C6570 C 0.01926 0.37337 0.92432 0.0
C6571 C 0.03827 0.38427 0.92744 0.0
C6572 C 0.05481 0.37545 0.95567 0.0
H6573 H 0.10527 0.41087 0.96411 0.0
H6574 H 0.0877 0.40359 0.95253 0.0
H6575 H 0.0665 0.37653 0.97138 0.0
H6576 H 0.01631 0.35799 0.93655 0.0
H6577 H 0.03572 0.36021 0.94724 0.0
H6578 H 0.06342 0.38224 0.92637 0.0
C6579 C 0.09198 0.39747 0.95906 0.0
C6580 C 0.06593 0.37763 0.96153 0.0
C6581 C 0.10199 0.40165 0.96572 0.0
C6582 C 0.02231 0.36542 0.93398 0.0
C6583 C 0.03343 0.36672 0.94012 0.0
C6584 C 0.06391 0.38101 0.93621 0.0
C6585 C 0.08722 0.38573 0.96119 0.0
C6586 C 0.07599 0.38187 0.95482 0.0
C6587 C 0.04161 0.37607 0.9368 0.0
C6588 C 0.05361 0.37737 0.94297 0.0
H6589 H 0.1072 0.37617 0.98306 0.0
H6590 H 0.08939 0.36894 0.97155 0.0
H6591 H 0.08264 0.38646 0.93671 0.0
H6592 H 0.0251 0.38923 0.91391 0.0
H6593 H 0.04417 0.3918 0.92487 0.0
C6594 C 0.35887 0.27552 0.66632 0.0
C6595 C 0.36894 0.26838 0.66975 0.0
C6596 C 0.35526 0.28548 0.67349 0.0
C6597 C 0.35863 0.2986 0.7046 0.0
H6598 H 0.34901 0.32896 0.68883 0.0
C6599 C 0.35789 0.34442 0.72995 0.0
C6600 C 0.34749 0.35179 0.72865 0.0
C6601 C 0.3595 0.33413 0.7226 0.0
C6602 C 0.35153 0.32049 0.69333 0.0
H6603 H 0.38319 0.26605 0.6833 0.0
H6604 H 0.37709 0.28358 0.69567 0.0
H6605 H 0.35384 0.31104 0.6763 0.0
H6606 H 0.33074 0.35436 0.71846 0.0
H6607 H 0.33368 0.3363 0.70537 0.0
H6608 H 0.35668 0.30818 0.7216 0.0
C6609 C 0.37179 0.28135 0.6876 0.0
C6610 C 0.35428 0.31022 0.68619 0.0
C6611 C 0.37535 0.27136 0.68047 0.0
C6612 C 0.33883 0.34881 0.71966 0.0
C6613 C 0.34051 0.33853 0.71217 0.0
C6614 C 0.35599 0.30887 0.71172 0.0
C6615 C 0.36169 0.28852 0.6842 0.0
C6616 C 0.35804 0.29922 0.69175 0.0
C6617 C 0.3508 0.33103 0.71371 0.0
C6618 C 0.35259 0.31995 0.70614 0.0
H6619 H 0.35373 0.2734 0.65811 0.0
H6620 H 0.34735 0.29072 0.67069 0.0
H6621 H 0.36122 0.29019 0.70919 0.0
H6622 H 0.36474 0.3465 0.73679 0.0
H6623 H 0.3676 0.32859 0.72384 0.0
C6624 C 0.05466 0.47459 0.36264 0.0
C6625 C 0.06331 0.47794 0.37152 0.0
C6626 C 0.04717 0.46439 0.36456 0.0
C6627 C 0.03452 0.44483 0.38849 0.0
H6628 H 0.038 0.4177 0.36577 0.0
C6629 C 0.02538 0.39589 0.40369 0.0
C6630 C 0.01933 0.38789 0.39569 0.0
C6631 C 0.02934 0.4073 0.39962 0.0
C6632 C 0.03673 0.42526 0.37208 0.0
H6633 H 0.07063 0.47372 0.38949 0.0
H6634 H 0.05735 0.45619 0.39297 0.0
H6635 H 0.04655 0.43775 0.36056 0.0
H6636 H 0.01296 0.38536 0.37703 0.0
H6637 H 0.01983 0.40545 0.36989 0.0
H6638 H 0.0249 0.43243 0.40012 0.0
C6639 C 0.05643 0.46131 0.38451 0.0
C6640 C 0.04159 0.43671 0.36908 0.0
C6641 C 0.06406 0.47128 0.38249 0.0
C6642 C 0.01766 0.39134 0.38339 0.0
C6643 C 0.02157 0.40284 0.37931 0.0
C6644 C 0.02956 0.43346 0.39143 0.0
C6645 C 0.04805 0.45768 0.37551 0.0
C6646 C 0.04087 0.44644 0.37747 0.0
C6647 C 0.02724 0.41102 0.38746 0.0
C6648 C 0.03101 0.42343 0.38347 0.0
H6649 H 0.05395 0.47958 0.35409 0.0
H6650 H 0.04076 0.4617 0.35751 0.0
H6651 H 0.03376 0.45227 0.39503 0.0
H6652 H 0.02689 0.39343 0.4132 0.0
H6653 H 0.034 0.41324 0.40604 0.0
C6654 C 0.27748 0.3233 0.13343 0.0
C6655 C 0.26911 0.32039 0.12415 0.0
C6656 C 0.28844 0.31697 0.13438 0.0
C6657 C 0.3044 0.28867 0.12518 0.0
H6658 H 0.33266 0.3076 0.13504 0.0
C6659 C 0.35274 0.26789 0.13208 0.0
C6660 C 0.35723 0.27009 0.14394 0.0
C6661 C 0.34252 0.27425 0.1278 0.0
C6662 C 0.32485 0.30222 0.13222 0.0
H6663 H 0.26548 0.30833 0.10879 0.0
H6664 H 0.28484 0.29733 0.1103 0.0
H6665 H 0.31346 0.31802 0.131 0.0
H6666 H 0.35494 0.28094 0.16044 0.0
H6667 H 0.33734 0.29224 0.15284 0.0
H6668 H 0.31594 0.27286 0.12647 0.0
C6669 C 0.28284 0.30446 0.11692 0.0
C6670 C 0.31384 0.30815 0.12999 0.0
C6671 C 0.27177 0.31075 0.11604 0.0
C6672 C 0.35163 0.27903 0.15127 0.0
C6673 C 0.34161 0.28554 0.14691 0.0
C6674 C 0.3155 0.28274 0.12728 0.0
C6675 C 0.29139 0.30765 0.12599 0.0
C6676 C 0.30338 0.30141 0.12684 0.0
C6677 C 0.33687 0.28309 0.13522 0.0
C6678 C 0.32571 0.28945 0.13116 0.0
H6679 H 0.27563 0.33059 0.1399 0.0
H6680 H 0.29463 0.31942 0.1417 0.0
H6681 H 0.29651 0.2832 0.12281 0.0
H6682 H 0.35687 0.26099 0.12627 0.0
H6683 H 0.33901 0.27224 0.11873 0.0
C6684 C 0.43258 0.52681 0.86132 0.0
C6685 C 0.42341 0.52289 0.86937 0.0
C6686 C 0.43812 0.53827 0.86299 0.0
C6687 C 0.43301 0.56794 0.879 0.0
H6688 H 0.46785 0.57221 0.87529 0.0
C6689 C 0.46063 0.60559 0.90307 0.0
C6690 C 0.46913 0.61209 0.89601 0.0
C6691 C 0.45443 0.59561 0.89805 0.0
C6692 C 0.45808 0.57117 0.87618 0.0
H6693 H 0.41317 0.52754 0.88573 0.0
H6694 H 0.42301 0.54713 0.88888 0.0
H6695 H 0.45852 0.55261 0.86983 0.0
H6696 H 0.47771 0.61344 0.87814 0.0
H6697 H 0.46702 0.59577 0.86946 0.0
H6698 H 0.4327 0.5863 0.88593 0.0
C6699 C 0.42568 0.5417 0.88101 0.0
C6700 C 0.45274 0.55997 0.87304 0.0
C6701 C 0.4201 0.5304 0.87927 0.0
C6702 C 0.47114 0.60862 0.88376 0.0
C6703 C 0.46511 0.59849 0.87882 0.0
C6704 C 0.43838 0.57904 0.88229 0.0
C6705 C 0.4346 0.54589 0.8728 0.0
C6706 C 0.44018 0.55814 0.8747 0.0
C6707 C 0.45679 0.59185 0.88597 0.0
C6708 C 0.45098 0.58066 0.88114 0.0
H6709 H 0.43526 0.52119 0.85359 0.0
H6710 H 0.44495 0.54124 0.85649 0.0
H6711 H 0.42326 0.56696 0.88007 0.0
H6712 H 0.45892 0.60807 0.91253 0.0
H6713 H 0.44811 0.59057 0.90377 0.0
C6714 C 0.22218 0.68413 0.61388 0.0
C6715 C 0.22509 0.67526 0.62275 0.0
C6716 C 0.21092 0.69016 0.61428 0.0
C6717 C 0.18002 0.6859 0.62695 0.0
H6718 H 0.17639 0.72096 0.62253 0.0
C6719 C 0.14097 0.7136 0.64753 0.0
C6720 C 0.13556 0.72289 0.6405 0.0
C6721 C 0.15098 0.70718 0.64303 0.0
C6722 C 0.17724 0.71112 0.62355 0.0
H6723 H 0.21893 0.6663 0.63937 0.0
H6724 H 0.19956 0.67693 0.64023 0.0
H6725 H 0.19631 0.71141 0.61934 0.0
H6726 H 0.1361 0.73254 0.62313 0.0
H6727 H 0.15385 0.72137 0.61532 0.0
H6728 H 0.16111 0.68567 0.63167 0.0
C6729 C 0.20572 0.67898 0.63274 0.0
C6730 C 0.18863 0.70567 0.62174 0.0
C6731 C 0.21687 0.67297 0.63231 0.0
C6732 C 0.14009 0.72538 0.62871 0.0
C6733 C 0.15026 0.71906 0.62427 0.0
C6734 C 0.1687 0.69135 0.62882 0.0
C6735 C 0.20246 0.6874 0.62357 0.0
C6736 C 0.1902 0.69305 0.62381 0.0
C6737 C 0.15588 0.71002 0.63148 0.0
C6738 C 0.16729 0.70405 0.62748 0.0
H6739 H 0.22836 0.68607 0.6064 0.0
H6740 H 0.20867 0.69664 0.60711 0.0
H6741 H 0.18087 0.6761 0.62829 0.0
H6742 H 0.13766 0.7115 0.65664 0.0
H6743 H 0.15521 0.70032 0.64882 0.0
C6744 C 0.05588 0.52305 0.13356 0.0
C6745 C 0.06454 0.5192 0.1249 0.0
C6746 C 0.04879 0.53346 0.1313 0.0
C6747 C 0.03681 0.55258 0.10682 0.0
H6748 H 0.04067 0.58032 0.12873 0.0
C6749 C 0.02616 0.60102 0.09064 0.0
C6750 C 0.02035 0.60909 0.09876 0.0
C6751 C 0.03064 0.58983 0.09481 0.0
C6752 C 0.0393 0.57261 0.12263 0.0
H6753 H 0.0723 0.52279 0.10698 0.0
H6754 H 0.05967 0.54069 0.1029 0.0
H6755 H 0.04913 0.56037 0.13443 0.0
H6756 H 0.01495 0.612 0.11766 0.0
H6757 H 0.02261 0.59228 0.12494 0.0
H6758 H 0.02705 0.56466 0.09498 0.0
C6759 C 0.05846 0.53579 0.11145 0.0
C6760 C 0.04412 0.56122 0.12591 0.0
C6761 C 0.06571 0.5256 0.11381 0.0
C6762 C 0.01945 0.60595 0.11122 0.0
C6763 C 0.02384 0.59467 0.11538 0.0
C6764 C 0.03186 0.56389 0.10361 0.0
C6765 C 0.05007 0.53989 0.12023 0.0
C6766 C 0.0432 0.55124 0.11785 0.0
C6767 C 0.02927 0.58639 0.10716 0.0
C6768 C 0.0334 0.57413 0.11129 0.0
H6769 H 0.05486 0.51827 0.14219 0.0
H6770 H 0.04235 0.53652 0.13818 0.0
H6771 H 0.03591 0.54494 0.10053 0.0
H6772 H 0.02708 0.60325 0.08101 0.0
H6773 H 0.0351 0.58382 0.0883 0.0
C6774 C 0.22045 0.31843 0.86478 0.0
C6775 C 0.22743 0.31803 0.87554 0.0
C6776 C 0.21102 0.31013 0.86296 0.0
C6777 C 0.18805 0.29299 0.87847 0.0
H6778 H 0.18491 0.2765 0.84712 0.0
C6779 C 0.14488 0.26564 0.86348 0.0
C6780 C 0.14122 0.26766 0.8513 0.0
C6781 C 0.15599 0.27029 0.86773 0.0
C6782 C 0.18563 0.28107 0.85591 0.0
H6783 H 0.2301 0.30868 0.89286 0.0
H6784 H 0.21315 0.29422 0.88979 0.0
H6785 H 0.20389 0.28683 0.85229 0.0
H6786 H 0.14601 0.27656 0.83418 0.0
H6787 H 0.16514 0.28484 0.84161 0.0
H6788 H 0.16952 0.28777 0.88181 0.0
C6789 C 0.21519 0.30091 0.88274 0.0
C6790 C 0.19652 0.28688 0.85889 0.0
C6791 C 0.22486 0.30911 0.88446 0.0
C6792 C 0.14862 0.27475 0.84358 0.0
C6793 C 0.15965 0.2794 0.84781 0.0
C6794 C 0.17707 0.28723 0.87544 0.0
C6795 C 0.20822 0.30137 0.87194 0.0
C6796 C 0.19768 0.29322 0.87001 0.0
C6797 C 0.16359 0.27702 0.85984 0.0
C6798 C 0.17563 0.28159 0.86393 0.0
H6799 H 0.22226 0.3252 0.85774 0.0
H6800 H 0.20568 0.31075 0.85462 0.0
H6801 H 0.18874 0.2979 0.88707 0.0
H6802 H 0.13935 0.26018 0.86962 0.0
H6803 H 0.15878 0.26833 0.87705 0.0
C6804 C 0.43507 0.47196 0.63091 0.0
C6805 C 0.42237 0.47277 0.63002 0.0
C6806 C 0.44087 0.46064 0.6294 0.0
C6807 C 0.43517 0.43116 0.6142 0.0
H6808 H 0.46532 0.42137 0.62988 0.0
C6809 C 0.47109 0.38803 0.61378 0.0
C6810 C 0.47222 0.38662 0.60102 0.0
C6811 C 0.46448 0.39785 0.61863 0.0
C6812 C 0.45681 0.42391 0.62554 0.0
H6813 H 0.40564 0.46241 0.628 0.0
H6814 H 0.41566 0.44269 0.62578 0.0
H6815 H 0.45471 0.43977 0.63694 0.0
H6816 H 0.46727 0.39426 0.58335 0.0
H6817 H 0.45587 0.41137 0.59177 0.0
H6818 H 0.43718 0.41535 0.60286 0.0
C6819 C 0.42123 0.45077 0.62714 0.0
C6820 C 0.45082 0.43451 0.62949 0.0
C6821 C 0.41549 0.46206 0.62844 0.0
C6822 C 0.46651 0.39507 0.59322 0.0
C6823 C 0.45993 0.40484 0.59805 0.0
C6824 C 0.44111 0.4206 0.6103 0.0
C6825 C 0.43399 0.44998 0.62715 0.0
C6826 C 0.44001 0.43831 0.62375 0.0
C6827 C 0.45888 0.40637 0.6108 0.0
C6828 C 0.4521 0.41697 0.61577 0.0
H6829 H 0.44054 0.48012 0.63218 0.0
H6830 H 0.45072 0.46035 0.6294 0.0
H6831 H 0.42697 0.43391 0.60943 0.0
H6832 H 0.47541 0.38165 0.62002 0.0
H6833 H 0.46373 0.39875 0.62849 0.0
C6834 C 0.27545 0.67611 0.36027 0.0
C6835 C 0.26792 0.67776 0.37053 0.0
C6836 C 0.28536 0.68381 0.3583 0.0
C6837 C 0.30772 0.70207 0.37415 0.0
H6838 H 0.31426 0.71511 0.34173 0.0
C6839 C 0.35095 0.73046 0.36229 0.0
C6840 C 0.35615 0.72829 0.35072 0.0
C6841 C 0.33982 0.7251 0.36544 0.0
C6842 C 0.31263 0.71143 0.35081 0.0
H6843 H 0.26472 0.68882 0.38673 0.0
H6844 H 0.28238 0.70222 0.38339 0.0
H6845 H 0.29495 0.70491 0.34579 0.0
H6846 H 0.35414 0.71834 0.33363 0.0
H6847 H 0.33497 0.70871 0.33924 0.0
H6848 H 0.3256 0.70817 0.37906 0.0
C6849 C 0.28048 0.69499 0.37686 0.0
C6850 C 0.30154 0.70569 0.35314 0.0
C6851 C 0.27038 0.68738 0.37872 0.0
C6852 C 0.3503 0.72027 0.34258 0.0
C6853 C 0.33925 0.71485 0.34575 0.0
C6854 C 0.3189 0.70774 0.37179 0.0
C6855 C 0.28806 0.69322 0.36663 0.0
C6856 C 0.29909 0.70073 0.36474 0.0
C6857 C 0.33373 0.71742 0.3571 0.0
C6858 C 0.32157 0.71224 0.36 0.0
H6859 H 0.27375 0.66877 0.3538 0.0
H6860 H 0.29114 0.68217 0.35042 0.0
H6861 H 0.30605 0.69823 0.38315 0.0
H6862 H 0.35525 0.73665 0.36874 0.0
H6863 H 0.33579 0.72729 0.37424 0.0
C6864 C 0.36995 0.06194 0.47704 0.0
C6865 C 0.37645 0.07278 0.47927 0.0
C6866 C 0.37306 0.05446 0.46711 0.0
C6867 C 0.38911 0.05567 0.43737 0.0
H6868 H 0.389 0.02025 0.44005 0.0
C6869 C 0.40733 0.02406 0.39909 0.0
C6870 C 0.39968 0.01424 0.39599 0.0
C6871 C 0.40496 0.03105 0.40956 0.0
C6872 C 0.38901 0.03014 0.43918 0.0
H6873 H 0.39147 0.08416 0.47315 0.0
H6874 H 0.39703 0.07106 0.45609 0.0
H6875 H 0.38369 0.03269 0.45788 0.0
H6876 H 0.38366 0.00392 0.40142 0.0
H6877 H 0.37957 0.01609 0.41963 0.0
H6878 H 0.39448 0.05312 0.41869 0.0
C6879 C 0.38937 0.06844 0.46176 0.0
C6880 C 0.38593 0.03724 0.44935 0.0
C6881 C 0.38622 0.07591 0.47159 0.0
C6882 C 0.38972 0.01145 0.40357 0.0
C6883 C 0.38742 0.01835 0.41405 0.0
C6884 C 0.39226 0.04857 0.42723 0.0
C6885 C 0.38275 0.05771 0.45931 0.0
C6886 C 0.38593 0.05009 0.44854 0.0
C6887 C 0.39498 0.02824 0.41712 0.0
C6888 C 0.39219 0.03575 0.42803 0.0
H6889 H 0.36236 0.05935 0.48283 0.0
H6890 H 0.36773 0.0463 0.46539 0.0
H6891 H 0.38899 0.06555 0.43639 0.0
H6892 H 0.41507 0.02638 0.39339 0.0
H6893 H 0.41097 0.0386 0.41179 0.0
C6894 C 0.8917 0.42108 0.51929 0.0
C6895 C 0.88112 0.42376 0.51259 0.0
C6896 C 0.89516 0.42842 0.52916 0.0
C6897 C 0.88881 0.45829 0.54441 0.0
H6898 H 0.90039 0.44122 0.57337 0.0
C6899 C 0.88537 0.4782 0.59279 0.0
C6900 C 0.89598 0.4782 0.59997 0.0
C6901 C 0.885 0.47184 0.58173 0.0
C6902 C 0.89733 0.44611 0.5653 0.0
H6903 H 0.866 0.43637 0.51071 0.0
H6904 H 0.87173 0.44896 0.52822 0.0
H6905 H 0.89706 0.42984 0.55443 0.0
H6906 H 0.91442 0.47128 0.60142 0.0
H6907 H 0.91364 0.45978 0.58207 0.0
H6908 H 0.8885 0.47444 0.55557 0.0
C6909 C 0.87758 0.44138 0.5257 0.0
C6910 C 0.89546 0.43962 0.55442 0.0
C6911 C 0.87423 0.43412 0.5157 0.0
C6912 C 0.90614 0.47143 0.59605 0.0
C6913 C 0.90569 0.46488 0.58502 0.0
C6914 C 0.89052 0.46472 0.55533 0.0
C6915 C 0.88799 0.43851 0.53266 0.0
C6916 C 0.89099 0.44561 0.54389 0.0
C6917 C 0.89517 0.46521 0.57771 0.0
C6918 C 0.8946 0.45864 0.5659 0.0
H6919 H 0.89726 0.41321 0.51699 0.0
H6920 H 0.90337 0.4261 0.53413 0.0
H6921 H 0.88564 0.46325 0.53643 0.0
H6922 H 0.87739 0.48333 0.59557 0.0
H6923 H 0.87672 0.47207 0.57633 0.0
C6924 C 0.31369 0.13279 0.27702 0.0
C6925 C 0.31294 0.12185 0.27032 0.0
C6926 C 0.30617 0.13471 0.28709 0.0
C6927 C 0.29196 0.11901 0.31185 0.0
H6928 H 0.27527 0.14995 0.31678 0.0
C6929 C 0.26837 0.13285 0.3576 0.0
C6930 C 0.26984 0.14516 0.36109 0.0
C6931 C 0.27242 0.12885 0.34612 0.0
C6932 C 0.27995 0.14129 0.31557 0.0
H6933 H 0.30366 0.1044 0.26867 0.0
H6934 H 0.29065 0.10764 0.28673 0.0
H6935 H 0.28365 0.14503 0.29668 0.0
H6936 H 0.27733 0.16274 0.35572 0.0
H6937 H 0.28471 0.15571 0.33593 0.0
H6938 H 0.28882 0.11553 0.33092 0.0
C6939 C 0.29698 0.11474 0.284 0.0
C6940 C 0.28462 0.13845 0.30405 0.0
C6941 C 0.30436 0.11292 0.27369 0.0
C6942 C 0.27597 0.15323 0.35322 0.0
C6943 C 0.28008 0.14923 0.34183 0.0
C6944 C 0.28736 0.1219 0.32345 0.0
C6945 C 0.29791 0.12564 0.29079 0.0
C6946 C 0.29096 0.12746 0.30219 0.0
C6947 C 0.27805 0.13709 0.33801 0.0
C6948 C 0.28166 0.13326 0.3255 0.0
H6949 H 0.32022 0.13982 0.27457 0.0
H6950 H 0.30713 0.14313 0.29227 0.0
H6951 H 0.29691 0.11052 0.31062 0.0
H6952 H 0.26362 0.12644 0.36348 0.0
H6953 H 0.27074 0.11945 0.34343 0.0
C6954 C 0.60754 0.57674 0.02037 0.0
C6955 C 0.61782 0.57352 0.0134 0.0
C6956 C 0.60459 0.57019 0.03095 0.0
C6957 C 0.61871 0.55234 0.05506 0.0
H6958 H 0.58637 0.53958 0.06146 0.0
C6959 C 0.60983 0.51828 0.09386 0.0
C6960 C 0.59879 0.51885 0.10029 0.0
C6961 C 0.61175 0.52561 0.0836 0.0
C6962 C 0.59539 0.54327 0.05992 0.0
H6963 H 0.63288 0.56078 0.01182 0.0
H6964 H 0.62782 0.54945 0.03046 0.0
H6965 H 0.59032 0.55086 0.04251 0.0
H6966 H 0.58114 0.52767 0.10122 0.0
H6967 H 0.5846 0.54081 0.08337 0.0
H6968 H 0.62381 0.54504 0.07247 0.0
C6969 C 0.62208 0.55704 0.02771 0.0
C6970 C 0.59765 0.54965 0.04905 0.0
C6971 C 0.62493 0.56347 0.01703 0.0
C6972 C 0.58972 0.52703 0.09638 0.0
C6973 C 0.59169 0.53449 0.08613 0.0
C6974 C 0.61643 0.54612 0.06598 0.0
C6975 C 0.61196 0.56043 0.03482 0.0
C6976 C 0.60937 0.55405 0.04646 0.0
C6977 C 0.60271 0.5338 0.07959 0.0
C6978 C 0.6048 0.54132 0.06845 0.0
H6979 H 0.60188 0.58443 0.01775 0.0
H6980 H 0.59676 0.57298 0.03631 0.0
H6981 H 0.62777 0.55587 0.05336 0.0
H6982 H 0.61696 0.51199 0.09661 0.0
H6983 H 0.62024 0.52464 0.07865 0.0
C6984 C 0.68925 0.38323 0.27119 0.0
C6985 C 0.68082 0.37421 0.26769 0.0
C6986 C 0.69667 0.38141 0.28147 0.0
C6987 C 0.70953 0.35751 0.301 0.0
H6988 H 0.70595 0.38016 0.32819 0.0
C6989 C 0.71939 0.3423 0.3498 0.0
C6990 C 0.72573 0.35027 0.35761 0.0
C6991 C 0.71503 0.34641 0.33854 0.0
C6992 C 0.70723 0.37387 0.32062 0.0
H6993 H 0.67381 0.35608 0.27177 0.0
H6994 H 0.68695 0.35279 0.28943 0.0
H6995 H 0.69729 0.38533 0.30815 0.0
H6996 H 0.7321 0.36893 0.36002 0.0
H6997 H 0.72452 0.37614 0.34019 0.0
H6998 H 0.71925 0.34594 0.31337 0.0
C6999 C 0.68777 0.36128 0.28436 0.0
C7000 C 0.70231 0.37684 0.30918 0.0
C7001 C 0.68022 0.3632 0.2743 0.0
C7002 C 0.7272 0.36259 0.35417 0.0
C7003 C 0.72288 0.36671 0.34283 0.0
C7004 C 0.71452 0.35459 0.31237 0.0
C7005 C 0.69593 0.37042 0.28813 0.0
C7006 C 0.70309 0.36849 0.29941 0.0
C7007 C 0.717 0.35857 0.33479 0.0
C7008 C 0.71304 0.36253 0.32242 0.0
H7009 H 0.68984 0.39182 0.26624 0.0
H7010 H 0.70292 0.38857 0.28426 0.0
H7011 H 0.71035 0.35101 0.29355 0.0
H7012 H 0.71802 0.33277 0.35225 0.0
H7013 H 0.71023 0.34 0.33271 0.0
C7014 C 0.09266 0.97417 0.90301 0.0
C7015 C 0.10189 0.98075 0.89705 0.0
C7016 C 0.09498 0.96848 0.91426 0.0
C7017 C 0.12039 0.9579 0.93397 0.0
H7018 H 0.09563 0.95786 0.95932 0.0
C7019 C 0.12936 0.93857 0.98229 0.0
C7020 C 0.12094 0.9295 0.98563 0.0
C7021 C 0.12695 0.94625 0.97232 0.0
C7022 C 0.10262 0.95786 0.95231 0.0
H7023 H 0.12076 0.98657 0.8981 0.0
H7024 H 0.1247 0.97697 0.91774 0.0
H7025 H 0.09154 0.968 0.93978 0.0
H7026 H 0.10317 0.92174 0.98175 0.0
H7027 H 0.09891 0.93525 0.96452 0.0
H7028 H 0.13146 0.94779 0.94655 0.0
C7029 C 0.11575 0.97592 0.91369 0.0
C7030 C 0.10026 0.96355 0.9411 0.0
C7031 C 0.11347 0.98148 0.90245 0.0
C7032 C 0.10985 0.92862 0.97929 0.0
C7033 C 0.10736 0.9364 0.9695 0.0
C7034 C 0.12279 0.95234 0.94521 0.0
C7035 C 0.10654 0.96937 0.91975 0.0
C7036 C 0.10907 0.96352 0.93175 0.0
C7037 C 0.116 0.94509 0.96575 0.0
C7038 C 0.11388 0.95215 0.95442 0.0
H7039 H 0.08365 0.97346 0.89902 0.0
H7040 H 0.08774 0.96333 0.9186 0.0
H7041 H 0.12731 0.95752 0.92691 0.0
H7042 H 0.13798 0.9394 0.98704 0.0
H7043 H 0.13372 0.95294 0.96959 0.0
C7044 C 0.31353 0.86295 0.2223 0.0
C7045 C 0.31254 0.87404 0.2287 0.0
C7046 C 0.30598 0.86056 0.21235 0.0
C7047 C 0.29146 0.87534 0.18728 0.0
H7048 H 0.27608 0.84366 0.18271 0.0
C7049 C 0.26947 0.85954 0.1414 0.0
C7050 C 0.27168 0.84728 0.13815 0.0
C7051 C 0.27302 0.86394 0.15288 0.0
C7052 C 0.28038 0.85253 0.18383 0.0
H7053 H 0.30278 0.89126 0.23002 0.0
H7054 H 0.28973 0.8872 0.21214 0.0
H7055 H 0.28387 0.84934 0.20287 0.0
H7056 H 0.27992 0.8302 0.14402 0.0
H7057 H 0.2864 0.83794 0.16388 0.0
H7058 H 0.28857 0.87827 0.16808 0.0
C7059 C 0.29625 0.88033 0.21502 0.0
C7060 C 0.2847 0.8558 0.19537 0.0
C7061 C 0.30366 0.88262 0.22521 0.0
C7062 C 0.27801 0.83967 0.14631 0.0
C7063 C 0.2816 0.84406 0.15774 0.0
C7064 C 0.2872 0.87202 0.17567 0.0
C7065 C 0.29745 0.86931 0.20849 0.0
C7066 C 0.29062 0.86706 0.19709 0.0
C7067 C 0.27886 0.85614 0.16127 0.0
C7068 C 0.282 0.8604 0.17376 0.0
H7069 H 0.32028 0.85618 0.22486 0.0
H7070 H 0.30716 0.85205 0.20736 0.0
H7071 H 0.2961 0.88403 0.1884 0.0
H7072 H 0.26457 0.86561 0.13528 0.0
H7073 H 0.27081 0.87329 0.15536 0.0
C7074 C 0.18665 0.11473 0.7229 0.0
C7075 C 0.17698 0.12249 0.72614 0.0
C7076 C 0.19225 0.1159 0.71145 0.0
C7077 C 0.18648 0.12897 0.68063 0.0
H7078 H 0.22148 0.12656 0.67671 0.0
C7079 C 0.21327 0.1511 0.64142 0.0
C7080 C 0.22236 0.14413 0.6357 0.0
C7081 C 0.20707 0.14647 0.65155 0.0
C7082 C 0.21167 0.12704 0.67766 0.0
H7083 H 0.16601 0.13796 0.72033 0.0
H7084 H 0.17602 0.1403 0.70064 0.0
H7085 H 0.21236 0.12261 0.69676 0.0
H7086 H 0.23195 0.12675 0.63581 0.0
H7087 H 0.22125 0.11874 0.65381 0.0
H7088 H 0.1859 0.13401 0.66167 0.0
C7089 C 0.17901 0.13301 0.70667 0.0
C7090 C 0.20645 0.12479 0.68911 0.0
C7091 C 0.17336 0.13176 0.71801 0.0
C7092 C 0.22494 0.13229 0.64005 0.0
C7093 C 0.21888 0.12773 0.65034 0.0
C7094 C 0.19171 0.13136 0.66925 0.0
C7095 C 0.18833 0.12493 0.70313 0.0
C7096 C 0.19382 0.12603 0.69078 0.0
C7097 C 0.21001 0.13485 0.65624 0.0
C7098 C 0.20436 0.13067 0.66775 0.0
H7099 H 0.18962 0.10751 0.72901 0.0
H7100 H 0.1994 0.10953 0.70898 0.0
H7101 H 0.17669 0.12967 0.68153 0.0
H7102 H 0.2111 0.16025 0.63821 0.0
H7103 H 0.20032 0.15216 0.65603 0.0
loop_
_geom_bond_atom_site_label_1
_geom_bond_atom_site_label_2
_geom_bond_distance
_geom_bond_site_symmetry_2
_ccdc_geom_bond_type
Co0 O1 2.216 1_455 S
Co0 O2 2.076 1_455 S
Co0 O4 2.004 . S
Co0 O10 2.021 1_455 S
Co0 O12 2.137 . S
Co0 O13 2.244 . S
O1 Co0 2.216 1_655 S
O1 C8 1.247 . S
O2 Co0 2.076 1_655 S
O2 C8 1.306 . S
C3 O12 1.247 . S
C3 O13 1.272 . S
O4 Co0 2.004 . S
O4 C9 1.259 . S
Co5 O6 2.061 . S
Co5 O11 2.052 1_455 S
Co5 O13 2.135 . S
O6 Co5 2.061 . S
O6 C9 1.235 . S
C7 O10 1.238 . S
C7 O11 1.241 . S
C8 O1 1.247 . S
C8 O2 1.306 . S
C9 O4 1.259 . S
C9 O6 1.235 . S
O10 Co0 2.021 1_655 S
O10 C7 1.238 . S
O11 Co5 2.052 1_655 S
O11 C7 1.241 . S
O12 Co0 2.137 . S
O12 C3 1.247 . S
O13 Co0 2.244 . S
O13 C3 1.272 . S
O13 Co5 2.135 . S
Co14 O15 2.216 . S
Co14 O16 2.091 . S
Co14 O18 2.004 . S
Co14 O24 2.021 . S
Co14 O26 2.137 . S
Co14 O27 2.244 . S
O15 Co14 2.216 . S
O15 C22 1.247 . S
O16 Co14 2.091 . S
O16 C22 1.261 . S
C17 O26 1.247 . S
C17 O27 1.272 . S
O18 Co14 2.004 . S
O18 C23 1.259 . S
Co19 O20 2.061 . S
Co19 O25 2.052 . S
Co19 O27 2.135 . S
O20 Co19 2.061 . S
O20 C23 1.235 . S
C21 O24 1.238 . S
C21 O25 1.241 . S
C22 O15 1.247 . S
C22 O16 1.261 . S
C23 O18 1.259 . S
C23 O20 1.235 . S
O24 Co14 2.021 . S
O24 C21 1.238 . S
O25 Co19 2.052 . S
O25 C21 1.241 . S
O26 Co14 2.137 . S
O26 C17 1.247 . S
O27 Co14 2.244 . S
O27 C17 1.272 . S
O27 Co19 2.135 . S
Co28 O29 2.216 . S
Co28 O30 2.091 . S
Co28 O32 2.004 . S
Co28 O38 2.021 . S
Co28 O40 2.137 . S
Co28 O41 2.244 . S
O29 Co28 2.216 . S
O29 C36 1.247 . S
O30 Co28 2.091 . S
O30 C36 1.261 . S
C31 O40 1.247 . S
C31 O41 1.272 . S
O32 Co28 2.004 . S
O32 C37 1.259 . S
Co33 O34 2.061 . S
Co33 O39 2.052 . S
Co33 O41 2.135 . S
O34 Co33 2.061 . S
O34 C37 1.235 . S
C35 O38 1.238 . S
C35 O39 1.241 . S
C36 O29 1.247 . S
C36 O30 1.261 . S
C37 O32 1.259 . S
C37 O34 1.235 . S
O38 Co28 2.021 . S
O38 C35 1.238 . S
O39 Co33 2.052 . S
O39 C35 1.241 . S
O40 Co28 2.137 . S
O40 C31 1.247 . S
O41 Co28 2.244 . S
O41 C31 1.272 . S
O41 Co33 2.135 . S
Co42 O43 2.216 . S
Co42 O44 2.091 . S
Co42 O46 2.004 . S
Co42 O52 2.021 . S
Co42 O54 2.137 . S
Co42 O55 2.244 . S
O43 Co42 2.216 . S
O43 C50 1.247 . S
O44 Co42 2.091 . S
O44 C50 1.261 . S
C45 O54 1.247 . S
C45 O55 1.272 . S
O46 Co42 2.004 . S
O46 C51 1.259 . S
Co47 O48 2.061 . S
Co47 O53 2.052 . S
Co47 O55 2.135 . S
O48 Co47 2.061 . S
O48 C51 1.235 . S
C49 O52 1.238 . S
C49 O53 1.241 . S
C50 O43 1.247 . S
C50 O44 1.261 . S
C51 O46 1.259 . S
C51 O48 1.235 . S
O52 Co42 2.021 . S
O52 C49 1.238 . S
O53 Co47 2.052 . S
O53 C49 1.241 . S
O54 Co42 2.137 . S
O54 C45 1.247 . S
O55 Co42 2.244 . S
O55 C45 1.272 . S
O55 Co47 2.135 . S
Co56 O57 2.216 1_455 S
Co56 O58 2.076 1_455 S
Co56 O60 2.004 . S
Co56 O66 2.021 1_455 S
Co56 O68 2.137 . S
Co56 O69 2.244 . S
O57 Co56 2.216 1_655 S
O57 C64 1.247 . S
O58 Co56 2.076 1_655 S
O58 C64 1.305 . S
C59 O68 1.247 . S
C59 O69 1.272 . S
O60 Co56 2.004 . S
O60 C65 1.259 . S
Co61 O62 2.061 . S
Co61 O67 2.052 1_455 S
Co61 O69 2.135 . S
O62 Co61 2.061 . S
O62 C65 1.235 . S
C63 O66 1.238 . S
C63 O67 1.241 . S
C64 O57 1.247 . S
C64 O58 1.305 . S
C65 O60 1.259 . S
C65 O62 1.235 . S
O66 Co56 2.021 1_655 S
O66 C63 1.238 . S
O67 Co61 2.052 1_655 S
O67 C63 1.241 . S
O68 Co56 2.137 . S
O68 C59 1.247 . S
O69 Co56 2.244 . S
O69 C59 1.272 . S
O69 Co61 2.135 . S
Co70 O71 2.216 . S
Co70 O72 2.091 . S
Co70 O74 2.004 . S
Co70 O80 2.021 . S
Co70 O82 2.137 . S
Co70 O83 2.244 . S
O71 Co70 2.216 . S
O71 C78 1.247 . S
O72 Co70 2.091 . S
O72 C78 1.261 . S
C73 O82 1.247 . S
C73 O83 1.272 . S
O74 Co70 2.004 . S
O74 C79 1.259 . S
Co75 O76 2.061 . S
Co75 O81 2.052 . S
Co75 O83 2.135 . S
O76 Co75 2.061 . S
O76 C79 1.235 . S
C77 O80 1.238 . S
C77 O81 1.241 . S
C78 O71 1.247 . S
C78 O72 1.261 . S
C79 O74 1.259 . S
C79 O76 1.235 . S
O80 Co70 2.021 . S
O80 C77 1.238 . S
O81 Co75 2.052 . S
O81 C77 1.241 . S
O82 Co70 2.137 . S
O82 C73 1.247 . S
O83 Co70 2.244 . S
O83 C73 1.272 . S
O83 Co75 2.135 . S
Co84 O85 2.216 . S
Co84 O86 2.091 . S
Co84 O88 2.004 . S
Co84 O94 2.021 . S
Co84 O96 2.137 . S
Co84 O97 2.244 . S
O85 Co84 2.216 . S
O85 C92 1.247 . S
O86 Co84 2.091 . S
O86 C92 1.261 . S
C87 O96 1.247 . S
C87 O97 1.272 . S
O88 Co84 2.004 . S
O88 C93 1.259 . S
Co89 O90 2.061 . S
Co89 O95 2.052 . S
Co89 O97 2.135 . S
O90 Co89 2.061 . S
O90 C93 1.235 . S
C91 O94 1.238 . S
C91 O95 1.241 . S
C92 O85 1.247 . S
C92 O86 1.261 . S
C93 O88 1.259 . S
C93 O90 1.235 . S
O94 Co84 2.021 . S
O94 C91 1.238 . S
O95 Co89 2.052 . S
O95 C91 1.241 . S
O96 Co84 2.137 . S
O96 C87 1.247 . S
O97 Co84 2.244 . S
O97 C87 1.272 . S
O97 Co89 2.135 . S
Co98 O99 2.216 . S
Co98 O100 2.091 . S
Co98 O102 2.004 . S
Co98 O108 2.021 . S
Co98 O110 2.137 . S
Co98 O111 2.244 . S
O99 Co98 2.216 . S
O99 C106 1.247 . S
O100 Co98 2.091 . S
O100 C106 1.261 . S
C101 O110 1.247 . S
C101 O111 1.272 . S
O102 Co98 2.004 . S
O102 C107 1.259 . S
Co103 O104 2.061 . S
Co103 O109 2.052 . S
Co103 O111 2.135 . S
O104 Co103 2.061 . S
O104 C107 1.235 . S
C105 O108 1.238 . S
C105 O109 1.241 . S
C106 O99 1.247 . S
C106 O100 1.261 . S
C107 O102 1.259 . S
C107 O104 1.235 . S
O108 Co98 2.021 . S
O108 C105 1.238 . S
O109 Co103 2.052 . S
O109 C105 1.241 . S
O110 Co98 2.137 . S
O110 C101 1.247 . S
O111 Co98 2.244 . S
O111 C101 1.272 . S
O111 Co103 2.135 . S
Co112 O113 2.216 . S
Co112 O114 2.091 . S
Co112 O116 2.004 1_545 S
Co112 O122 2.021 . S
Co112 O124 2.137 1_545 S
Co112 O125 2.244 1_545 S
O113 Co112 2.216 . S
O113 C120 1.247 . S
O114 Co112 2.091 . S
O114 C120 1.261 . S
C115 O124 1.247 . S
C115 O125 1.272 . S
O116 Co112 2.004 1_565 S
O116 C121 1.259 . S
Co117 O118 2.061 . S
Co117 O123 2.052 1_565 S
Co117 O125 2.135 . S
O118 Co117 2.061 . S
O118 C121 1.235 . S
C119 O122 1.238 . S
C119 O123 1.241 . S
C120 O113 1.247 . S
C120 O114 1.261 . S
C121 O116 1.259 . S
C121 O118 1.235 . S
O122 Co112 2.021 . S
O122 C119 1.238 . S
O123 Co117 2.052 1_545 S
O123 C119 1.241 . S
O124 Co112 2.137 1_565 S
O124 C115 1.247 . S
O125 Co112 2.244 1_565 S
O125 C115 1.272 . S
O125 Co117 2.135 . S
Co126 O127 2.216 . S
Co126 O128 2.091 . S
Co126 O130 2.004 . S
Co126 O136 2.021 . S
Co126 O138 2.137 . S
Co126 O139 2.244 . S
O127 Co126 2.216 . S
O127 C134 1.247 . S
O128 Co126 2.091 . S
O128 C134 1.261 . S
C129 O138 1.247 . S
C129 O139 1.272 . S
O130 Co126 2.004 . S
O130 C135 1.259 . S
Co131 O132 2.061 . S
Co131 O137 2.052 . S
Co131 O139 2.135 . S
O132 Co131 2.061 . S
O132 C135 1.235 . S
C133 O136 1.238 . S
C133 O137 1.241 . S
C134 O127 1.247 . S
C134 O128 1.261 . S
C135 O130 1.259 . S
C135 O132 1.235 . S
O136 Co126 2.021 . S
O136 C133 1.238 . S
O137 Co131 2.052 . S
O137 C133 1.241 . S
O138 Co126 2.137 . S
O138 C129 1.247 . S
O139 Co126 2.244 . S
O139 C129 1.272 . S
O139 Co131 2.135 . S
Co140 O141 2.216 . S
Co140 O142 2.091 . S
Co140 O144 2.004 1_565 S
Co140 O150 2.021 . S
Co140 O152 2.137 1_565 S
Co140 O153 2.244 1_565 S
O141 Co140 2.216 . S
O141 C148 1.247 . S
O142 Co140 2.091 . S
O142 C148 1.261 . S
C143 O152 1.247 . S
C143 O153 1.272 . S
O144 Co140 2.004 1_545 S
O144 C149 1.259 . S
Co145 O146 2.061 . S
Co145 O151 2.052 1_545 S
Co145 O153 2.135 . S
O146 Co145 2.061 . S
O146 C149 1.235 . S
C147 O150 1.238 . S
C147 O151 1.241 . S
C148 O141 1.247 . S
C148 O142 1.261 . S
C149 O144 1.259 . S
C149 O146 1.235 . S
O150 Co140 2.021 . S
O150 C147 1.238 . S
O151 Co145 2.052 1_565 S
O151 C147 1.241 . S
O152 Co140 2.137 1_545 S
O152 C143 1.247 . S
O153 Co140 2.244 1_545 S
O153 C143 1.272 . S
O153 Co145 2.135 . S
Co154 O155 2.216 . S
Co154 O156 2.091 . S
Co154 O158 2.004 . S
Co154 O164 2.021 . S
Co154 O166 2.137 . S
Co154 O167 2.244 . S
O155 Co154 2.216 . S
O155 C162 1.247 . S
O156 Co154 2.091 . S
O156 C162 1.261 . S
C157 O166 1.247 . S
C157 O167 1.272 . S
O158 Co154 2.004 . S
O158 C163 1.259 . S
Co159 O160 2.061 . S
Co159 O165 2.052 . S
Co159 O167 2.135 . S
O160 Co159 2.061 . S
O160 C163 1.235 . S
C161 O164 1.238 . S
C161 O165 1.241 . S
C162 O155 1.247 . S
C162 O156 1.261 . S
C163 O158 1.259 . S
C163 O160 1.235 . S
O164 Co154 2.021 . S
O164 C161 1.238 . S
O165 Co159 2.052 . S
O165 C161 1.241 . S
O166 Co154 2.137 . S
O166 C157 1.247 . S
O167 Co154 2.244 . S
O167 C157 1.272 . S
O167 Co159 2.135 . S
Co168 O169 2.216 . S
Co168 O170 2.091 . S
Co168 O172 2.004 1_565 S
Co168 O178 2.021 . S
Co168 O180 2.137 1_565 S
Co168 O181 2.244 1_565 S
O169 Co168 2.216 . S
O169 C176 1.247 . S
O170 Co168 2.091 . S
O170 C176 1.261 . S
C171 O180 1.247 . S
C171 O181 1.272 . S
O172 Co168 2.004 1_545 S
O172 C177 1.259 . S
Co173 O174 2.061 . S
Co173 O179 2.052 1_545 S
Co173 O181 2.135 . S
O174 Co173 2.061 . S
O174 C177 1.235 . S
C175 O178 1.238 . S
C175 O179 1.241 . S
C176 O169 1.247 . S
C176 O170 1.261 . S
C177 O172 1.259 . S
C177 O174 1.235 . S
O178 Co168 2.021 . S
O178 C175 1.238 . S
O179 Co173 2.052 1_565 S
O179 C175 1.241 . S
O180 Co168 2.137 1_545 S
O180 C171 1.247 . S
O181 Co168 2.244 1_545 S
O181 C171 1.272 . S
O181 Co173 2.135 . S
Co182 O183 2.216 . S
Co182 O184 2.091 . S
Co182 O186 2.004 . S
Co182 O192 2.021 . S
Co182 O194 2.137 . S
Co182 O195 2.244 . S
O183 Co182 2.216 . S
O183 C190 1.247 . S
O184 Co182 2.091 . S
O184 C190 1.261 . S
C185 O194 1.247 . S
C185 O195 1.272 . S
O186 Co182 2.004 . S
O186 C191 1.259 . S
Co187 O188 2.061 . S
Co187 O193 2.052 . S
Co187 O195 2.135 . S
O188 Co187 2.061 . S
O188 C191 1.235 . S
C189 O192 1.238 . S
C189 O193 1.241 . S
C190 O183 1.247 . S
C190 O184 1.261 . S
C191 O186 1.259 . S
C191 O188 1.235 . S
O192 Co182 2.021 . S
O192 C189 1.238 . S
O193 Co187 2.052 . S
O193 C189 1.241 . S
O194 Co182 2.137 . S
O194 C185 1.247 . S
O195 Co182 2.244 . S
O195 C185 1.272 . S
O195 Co187 2.135 . S
Co196 O197 2.216 . S
Co196 O198 2.091 . S
Co196 O200 2.004 1_545 S
Co196 O206 2.021 . S
Co196 O208 2.137 1_545 S
Co196 O209 2.244 1_545 S
O197 Co196 2.216 . S
O197 C204 1.247 . S
O198 Co196 2.091 . S
O198 C204 1.261 . S
C199 O208 1.247 . S
C199 O209 1.272 . S
O200 Co196 2.004 1_565 S
O200 C205 1.259 . S
Co201 O202 2.061 . S
Co201 O207 2.052 1_565 S
Co201 O209 2.135 . S
O202 Co201 2.061 . S
O202 C205 1.235 . S
C203 O206 1.238 . S
C203 O207 1.241 . S
C204 O197 1.247 . S
C204 O198 1.261 . S
C205 O200 1.259 . S
C205 O202 1.235 . S
O206 Co196 2.021 . S
O206 C203 1.238 . S
O207 Co201 2.052 1_545 S
O207 C203 1.241 . S
O208 Co196 2.137 1_565 S
O208 C199 1.247 . S
O209 Co196 2.244 1_565 S
O209 C199 1.272 . S
O209 Co201 2.135 . S
Co210 O211 2.216 . S
Co210 O212 2.091 . S
Co210 O214 2.004 . S
Co210 O220 2.021 . S
Co210 O222 2.137 . S
Co210 O223 2.244 . S
O211 Co210 2.216 . S
O211 C218 1.247 . S
O212 Co210 2.091 . S
O212 C218 1.261 . S
C213 O222 1.247 . S
C213 O223 1.272 . S
O214 Co210 2.004 . S
O214 C219 1.259 . S
Co215 O216 2.061 . S
Co215 O221 2.052 . S
Co215 O223 2.135 . S
O216 Co215 2.061 . S
O216 C219 1.235 . S
C217 O220 1.238 . S
C217 O221 1.241 . S
C218 O211 1.247 . S
C218 O212 1.261 . S
C219 O214 1.259 . S
C219 O216 1.235 . S
O220 Co210 2.021 . S
O220 C217 1.238 . S
O221 Co215 2.052 . S
O221 C217 1.241 . S
O222 Co210 2.137 . S
O222 C213 1.247 . S
O223 Co210 2.244 . S
O223 C213 1.272 . S
O223 Co215 2.135 . S
Co224 O225 2.216 1_554 S
Co224 O226 2.091 1_554 S
Co224 O228 2.004 . S
Co224 O234 2.021 1_554 S
Co224 O236 2.137 . S
Co224 O237 2.244 . S
O225 Co224 2.216 1_556 S
O225 C232 1.247 . S
O226 Co224 2.091 1_556 S
O226 C232 1.261 . S
C227 O236 1.247 . S
C227 O237 1.272 . S
O228 Co224 2.004 . S
O228 C233 1.259 . S
Co229 O230 2.061 . S
Co229 O235 2.052 1_554 S
Co229 O237 2.135 . S
O230 Co229 2.061 . S
O230 C233 1.235 . S
C231 O234 1.238 . S
C231 O235 1.241 . S
C232 O225 1.247 . S
C232 O226 1.261 . S
C233 O228 1.259 . S
C233 O230 1.235 . S
O234 Co224 2.021 1_556 S
O234 C231 1.238 . S
O235 Co229 2.052 1_556 S
O235 C231 1.241 . S
O236 Co224 2.137 . S
O236 C227 1.247 . S
O237 Co224 2.244 . S
O237 C227 1.272 . S
O237 Co229 2.135 . S
Co238 O239 2.216 1_556 S
Co238 O240 2.091 1_556 S
Co238 O242 2.004 . S
Co238 O248 2.021 1_556 S
Co238 O250 2.137 . S
Co238 O251 2.244 . S
O239 Co238 2.216 1_554 S
O239 C246 1.247 . S
O240 Co238 2.091 1_554 S
O240 C246 1.261 . S
C241 O250 1.247 . S
C241 O251 1.272 . S
O242 Co238 2.004 . S
O242 C247 1.259 . S
Co243 O244 2.061 . S
Co243 O249 2.052 1_556 S
Co243 O251 2.135 . S
O244 Co243 2.061 . S
O244 C247 1.235 . S
C245 O248 1.238 . S
C245 O249 1.241 . S
C246 O239 1.247 . S
C246 O240 1.261 . S
C247 O242 1.259 . S
C247 O244 1.235 . S
O248 Co238 2.021 1_554 S
O248 C245 1.238 . S
O249 Co243 2.052 1_554 S
O249 C245 1.241 . S
O250 Co238 2.137 . S
O250 C241 1.247 . S
O251 Co238 2.244 . S
O251 C241 1.272 . S
O251 Co243 2.135 . S
Co252 O253 2.216 . S
Co252 O254 2.091 . S
Co252 O256 2.004 . S
Co252 O262 2.021 . S
Co252 O264 2.137 . S
Co252 O265 2.244 . S
O253 Co252 2.216 . S
O253 C260 1.247 . S
O254 Co252 2.091 . S
O254 C260 1.261 . S
C255 O264 1.247 . S
C255 O265 1.272 . S
O256 Co252 2.004 . S
O256 C261 1.259 . S
Co257 O258 2.061 . S
Co257 O263 2.052 . S
Co257 O265 2.135 . S
O258 Co257 2.061 . S
O258 C261 1.235 . S
C259 O262 1.238 . S
C259 O263 1.241 . S
C260 O253 1.247 . S
C260 O254 1.261 . S
C261 O256 1.259 . S
C261 O258 1.235 . S
O262 Co252 2.021 . S
O262 C259 1.238 . S
O263 Co257 2.052 . S
O263 C259 1.241 . S
O264 Co252 2.137 . S
O264 C255 1.247 . S
O265 Co252 2.244 . S
O265 C255 1.272 . S
O265 Co257 2.135 . S
Co266 O267 2.216 . S
Co266 O268 2.091 . S
Co266 O270 2.004 . S
Co266 O276 2.021 . S
Co266 O278 2.137 . S
Co266 O279 2.244 . S
O267 Co266 2.216 . S
O267 C274 1.247 . S
O268 Co266 2.091 . S
O268 C274 1.261 . S
C269 O278 1.247 . S
C269 O279 1.272 . S
O270 Co266 2.004 . S
O270 C275 1.259 . S
Co271 O272 2.061 . S
Co271 O277 2.052 . S
Co271 O279 2.135 . S
O272 Co271 2.061 . S
O272 C275 1.235 . S
C273 O276 1.238 . S
C273 O277 1.241 . S
C274 O267 1.247 . S
C274 O268 1.261 . S
C275 O270 1.259 . S
C275 O272 1.235 . S
O276 Co266 2.021 . S
O276 C273 1.238 . S
O277 Co271 2.052 . S
O277 C273 1.241 . S
O278 Co266 2.137 . S
O278 C269 1.247 . S
O279 Co266 2.244 . S
O279 C269 1.272 . S
O279 Co271 2.135 . S
Co280 O281 2.216 . S
Co280 O282 2.091 . S
Co280 O284 2.004 . S
Co280 O290 2.021 . S
Co280 O292 2.137 . S
Co280 O293 2.244 . S
O281 Co280 2.216 . S
O281 C288 1.247 . S
O282 Co280 2.091 . S
O282 C288 1.261 . S
C283 O292 1.247 . S
C283 O293 1.272 . S
O284 Co280 2.004 . S
O284 C289 1.259 . S
Co285 O286 2.061 . S
Co285 O291 2.052 . S
Co285 O293 2.135 . S
O286 Co285 2.061 . S
O286 C289 1.235 . S
C287 O290 1.238 . S
C287 O291 1.241 . S
C288 O281 1.247 . S
C288 O282 1.261 . S
C289 O284 1.259 . S
C289 O286 1.235 . S
O290 Co280 2.021 . S
O290 C287 1.238 . S
O291 Co285 2.052 . S
O291 C287 1.241 . S
O292 Co280 2.137 . S
O292 C283 1.247 . S
O293 Co280 2.244 . S
O293 C283 1.272 . S
O293 Co285 2.135 . S
Co294 O295 2.216 . S
Co294 O296 2.091 . S
Co294 O298 2.004 . S
Co294 O304 2.021 . S
Co294 O306 2.137 . S
Co294 O307 2.244 . S
O295 Co294 2.216 . S
O295 C302 1.247 . S
O296 Co294 2.091 . S
O296 C302 1.261 . S
C297 O306 1.247 . S
C297 O307 1.272 . S
O298 Co294 2.004 . S
O298 C303 1.259 . S
Co299 O300 2.061 . S
Co299 O305 2.052 . S
Co299 O307 2.135 . S
O300 Co299 2.061 . S
O300 C303 1.235 . S
C301 O304 1.238 . S
C301 O305 1.241 . S
C302 O295 1.247 . S
C302 O296 1.261 . S
C303 O298 1.259 . S
C303 O300 1.235 . S
O304 Co294 2.021 . S
O304 C301 1.238 . S
O305 Co299 2.052 . S
O305 C301 1.241 . S
O306 Co294 2.137 . S
O306 C297 1.247 . S
O307 Co294 2.244 . S
O307 C297 1.272 . S
O307 Co299 2.135 . S
Co308 O309 2.216 . S
Co308 O310 2.091 . S
Co308 O312 2.004 . S
Co308 O318 2.021 . S
Co308 O320 2.137 . S
Co308 O321 2.244 . S
O309 Co308 2.216 . S
O309 C316 1.247 . S
O310 Co308 2.091 . S
O310 C316 1.261 . S
C311 O320 1.247 . S
C311 O321 1.272 . S
O312 Co308 2.004 . S
O312 C317 1.259 . S
Co313 O314 2.061 . S
Co313 O319 2.052 . S
Co313 O321 2.135 . S
O314 Co313 2.061 . S
O314 C317 1.235 . S
C315 O318 1.238 . S
C315 O319 1.241 . S
C316 O309 1.247 . S
C316 O310 1.261 . S
C317 O312 1.259 . S
C317 O314 1.235 . S
O318 Co308 2.021 . S
O318 C315 1.238 . S
O319 Co313 2.052 . S
O319 C315 1.241 . S
O320 Co308 2.137 . S
O320 C311 1.247 . S
O321 Co308 2.244 . S
O321 C311 1.272 . S
O321 Co313 2.135 . S
Co322 O323 2.216 . S
Co322 O324 2.091 . S
Co322 O326 2.004 . S
Co322 O332 2.021 . S
Co322 O334 2.137 . S
Co322 O335 2.244 . S
O323 Co322 2.216 . S
O323 C330 1.247 . S
O324 Co322 2.091 . S
O324 C330 1.261 . S
C325 O334 1.247 . S
C325 O335 1.272 . S
O326 Co322 2.004 . S
O326 C331 1.259 . S
Co327 O328 2.061 . S
Co327 O333 2.052 . S
Co327 O335 2.135 . S
O328 Co327 2.061 . S
O328 C331 1.235 . S
C329 O332 1.238 . S
C329 O333 1.241 . S
C330 O323 1.247 . S
C330 O324 1.261 . S
C331 O326 1.259 . S
C331 O328 1.235 . S
O332 Co322 2.021 . S
O332 C329 1.238 . S
O333 Co327 2.052 . S
O333 C329 1.241 . S
O334 Co322 2.137 . S
O334 C325 1.247 . S
O335 Co322 2.244 . S
O335 C325 1.272 . S
O335 Co327 2.135 . S
Co336 O337 2.216 1_655 S
Co336 O338 2.091 1_655 S
Co336 O340 2.004 . S
Co336 O346 2.021 1_655 S
Co336 O348 2.137 . S
Co336 O349 2.244 . S
O337 Co336 2.216 1_455 S
O337 C344 1.247 . S
O338 Co336 2.091 1_455 S
O338 C344 1.261 . S
C339 O348 1.247 . S
C339 O349 1.272 . S
O340 Co336 2.004 . S
O340 C345 1.259 . S
Co341 O342 2.061 . S
Co341 O347 2.052 1_655 S
Co341 O349 2.135 . S
O342 Co341 2.061 . S
O342 C345 1.235 . S
C343 O346 1.238 . S
C343 O347 1.241 . S
C344 O337 1.247 . S
C344 O338 1.261 . S
C345 O340 1.259 . S
C345 O342 1.235 . S
O346 Co336 2.021 1_455 S
O346 C343 1.238 . S
O347 Co341 2.052 1_455 S
O347 C343 1.241 . S
O348 Co336 2.137 . S
O348 C339 1.247 . S
O349 Co336 2.244 . S
O349 C339 1.272 . S
O349 Co341 2.135 . S
Co350 O351 2.216 . S
Co350 O352 2.091 . S
Co350 O354 2.004 . S
Co350 O360 2.021 . S
Co350 O362 2.137 . S
Co350 O363 2.244 . S
O351 Co350 2.216 . S
O351 C358 1.247 . S
O352 Co350 2.091 . S
O352 C358 1.261 . S
C353 O362 1.247 . S
C353 O363 1.272 . S
O354 Co350 2.004 . S
O354 C359 1.259 . S
Co355 O356 2.061 . S
Co355 O361 2.052 . S
Co355 O363 2.135 . S
O356 Co355 2.061 . S
O356 C359 1.235 . S
C357 O360 1.238 . S
C357 O361 1.241 . S
C358 O351 1.247 . S
C358 O352 1.261 . S
C359 O354 1.259 . S
C359 O356 1.235 . S
O360 Co350 2.021 . S
O360 C357 1.238 . S
O361 Co355 2.052 . S
O361 C357 1.241 . S
O362 Co350 2.137 . S
O362 C353 1.247 . S
O363 Co350 2.244 . S
O363 C353 1.272 . S
O363 Co355 2.135 . S
Co364 O365 2.216 . S
Co364 O366 2.091 . S
Co364 O368 2.004 . S
Co364 O374 2.021 . S
Co364 O376 2.137 . S
Co364 O377 2.244 . S
O365 Co364 2.216 . S
O365 C372 1.247 . S
O366 Co364 2.091 . S
O366 C372 1.261 . S
C367 O376 1.247 . S
C367 O377 1.272 . S
O368 Co364 2.004 . S
O368 C373 1.259 . S
Co369 O370 2.061 . S
Co369 O375 2.052 . S
Co369 O377 2.135 . S
O370 Co369 2.061 . S
O370 C373 1.235 . S
C371 O374 1.238 . S
C371 O375 1.241 . S
C372 O365 1.247 . S
C372 O366 1.261 . S
C373 O368 1.259 . S
C373 O370 1.235 . S
O374 Co364 2.021 . S
O374 C371 1.238 . S
O375 Co369 2.052 . S
O375 C371 1.241 . S
O376 Co364 2.137 . S
O376 C367 1.247 . S
O377 Co364 2.244 . S
O377 C367 1.272 . S
O377 Co369 2.135 . S
Co378 O379 2.216 . S
Co378 O380 2.091 . S
Co378 O382 2.004 . S
Co378 O388 2.021 . S
Co378 O390 2.137 . S
Co378 O391 2.244 . S
O379 Co378 2.216 . S
O379 C386 1.247 . S
O380 Co378 2.091 . S
O380 C386 1.261 . S
C381 O390 1.247 . S
C381 O391 1.272 . S
O382 Co378 2.004 . S
O382 C387 1.259 . S
Co383 O384 2.061 . S
Co383 O389 2.052 . S
Co383 O391 2.135 . S
O384 Co383 2.061 . S
O384 C387 1.235 . S
C385 O388 1.238 . S
C385 O389 1.241 . S
C386 O379 1.247 . S
C386 O380 1.261 . S
C387 O382 1.259 . S
C387 O384 1.235 . S
O388 Co378 2.021 . S
O388 C385 1.238 . S
O389 Co383 2.052 . S
O389 C385 1.241 . S
O390 Co378 2.137 . S
O390 C381 1.247 . S
O391 Co378 2.244 . S
O391 C381 1.272 . S
O391 Co383 2.135 . S
Co392 O393 2.216 1_655 S
Co392 O394 2.091 1_655 S
Co392 O396 2.004 . S
Co392 O402 2.021 1_655 S
Co392 O404 2.137 . S
Co392 O405 2.244 . S
O393 Co392 2.216 1_455 S
O393 C400 1.247 . S
O394 Co392 2.091 1_455 S
O394 C400 1.261 . S
C395 O404 1.247 . S
C395 O405 1.272 . S
O396 Co392 2.004 . S
O396 C401 1.259 . S
Co397 O398 2.061 . S
Co397 O403 2.052 1_655 S
Co397 O405 2.135 . S
O398 Co397 2.061 . S
O398 C401 1.235 . S
C399 O402 1.238 . S
C399 O403 1.241 . S
C400 O393 1.247 . S
C400 O394 1.261 . S
C401 O396 1.259 . S
C401 O398 1.235 . S
O402 Co392 2.021 1_455 S
O402 C399 1.238 . S
O403 Co397 2.052 1_455 S
O403 C399 1.241 . S
O404 Co392 2.137 . S
O404 C395 1.247 . S
O405 Co392 2.244 . S
O405 C395 1.272 . S
O405 Co397 2.135 . S
Co406 O407 2.216 . S
Co406 O408 2.091 . S
Co406 O410 2.004 . S
Co406 O416 2.021 . S
Co406 O418 2.137 . S
Co406 O419 2.244 . S
O407 Co406 2.216 . S
O407 C414 1.247 . S
O408 Co406 2.091 . S
O408 C414 1.261 . S
C409 O418 1.247 . S
C409 O419 1.272 . S
O410 Co406 2.004 . S
O410 C415 1.259 . S
Co411 O412 2.061 . S
Co411 O417 2.052 . S
Co411 O419 2.135 . S
O412 Co411 2.061 . S
O412 C415 1.235 . S
C413 O416 1.238 . S
C413 O417 1.241 . S
C414 O407 1.247 . S
C414 O408 1.261 . S
C415 O410 1.259 . S
C415 O412 1.235 . S
O416 Co406 2.021 . S
O416 C413 1.238 . S
O417 Co411 2.052 . S
O417 C413 1.241 . S
O418 Co406 2.137 . S
O418 C409 1.247 . S
O419 Co406 2.244 . S
O419 C409 1.272 . S
O419 Co411 2.135 . S
Co420 O421 2.216 . S
Co420 O422 2.091 . S
Co420 O424 2.004 . S
Co420 O430 2.021 . S
Co420 O432 2.137 . S
Co420 O433 2.244 . S
O421 Co420 2.216 . S
O421 C428 1.247 . S
O422 Co420 2.091 . S
O422 C428 1.261 . S
C423 O432 1.247 . S
C423 O433 1.272 . S
O424 Co420 2.004 . S
O424 C429 1.259 . S
Co425 O426 2.061 . S
Co425 O431 2.052 . S
Co425 O433 2.135 . S
O426 Co425 2.061 . S
O426 C429 1.235 . S
C427 O430 1.238 . S
C427 O431 1.241 . S
C428 O421 1.247 . S
C428 O422 1.261 . S
C429 O424 1.259 . S
C429 O426 1.235 . S
O430 Co420 2.021 . S
O430 C427 1.238 . S
O431 Co425 2.052 . S
O431 C427 1.241 . S
O432 Co420 2.137 . S
O432 C423 1.247 . S
O433 Co420 2.244 . S
O433 C423 1.272 . S
O433 Co425 2.135 . S
Co434 O435 2.216 . S
Co434 O436 2.091 . S
Co434 O438 2.004 . S
Co434 O444 2.021 . S
Co434 O446 2.137 . S
Co434 O447 2.244 . S
O435 Co434 2.216 . S
O435 C442 1.247 . S
O436 Co434 2.091 . S
O436 C442 1.261 . S
C437 O446 1.247 . S
C437 O447 1.272 . S
O438 Co434 2.004 . S
O438 C443 1.259 . S
Co439 O440 2.061 . S
Co439 O445 2.052 . S
Co439 O447 2.135 . S
O440 Co439 2.061 . S
O440 C443 1.235 . S
C441 O444 1.238 . S
C441 O445 1.241 . S
C442 O435 1.247 . S
C442 O436 1.261 . S
C443 O438 1.259 . S
C443 O440 1.235 . S
O444 Co434 2.021 . S
O444 C441 1.238 . S
O445 Co439 2.052 . S
O445 C441 1.241 . S
O446 Co434 2.137 . S
O446 C437 1.247 . S
O447 Co434 2.244 . S
O447 C437 1.272 . S
O447 Co439 2.135 . S
Co448 O449 2.216 1_565 S
Co448 O450 2.091 1_565 S
Co448 O452 2.004 . S
Co448 O458 2.021 1_565 S
Co448 O460 2.137 . S
Co448 O461 2.244 . S
O449 Co448 2.216 1_545 S
O449 C456 1.247 . S
O450 Co448 2.091 1_545 S
O450 C456 1.261 . S
C451 O460 1.247 . S
C451 O461 1.272 . S
O452 Co448 2.004 . S
O452 C457 1.259 . S
Co453 O454 2.061 . S
Co453 O459 2.052 1_565 S
Co453 O461 2.135 . S
O454 Co453 2.061 . S
O454 C457 1.235 . S
C455 O458 1.238 . S
C455 O459 1.241 . S
C456 O449 1.247 . S
C456 O450 1.261 . S
C457 O452 1.259 . S
C457 O454 1.235 . S
O458 Co448 2.021 1_545 S
O458 C455 1.238 . S
O459 Co453 2.052 1_545 S
O459 C455 1.241 . S
O460 Co448 2.137 . S
O460 C451 1.247 . S
O461 Co448 2.244 . S
O461 C451 1.272 . S
O461 Co453 2.135 . S
Co462 O463 2.216 . S
Co462 O464 2.091 . S
Co462 O466 2.004 . S
Co462 O472 2.021 . S
Co462 O474 2.137 . S
Co462 O475 2.244 . S
O463 Co462 2.216 . S
O463 C470 1.247 . S
O464 Co462 2.091 . S
O464 C470 1.261 . S
C465 O474 1.247 . S
C465 O475 1.272 . S
O466 Co462 2.004 . S
O466 C471 1.259 . S
Co467 O468 2.061 . S
Co467 O473 2.052 . S
Co467 O475 2.135 . S
O468 Co467 2.061 . S
O468 C471 1.235 . S
C469 O472 1.238 . S
C469 O473 1.241 . S
C470 O463 1.247 . S
C470 O464 1.261 . S
C471 O466 1.259 . S
C471 O468 1.235 . S
O472 Co462 2.021 . S
O472 C469 1.238 . S
O473 Co467 2.052 . S
O473 C469 1.241 . S
O474 Co462 2.137 . S
O474 C465 1.247 . S
O475 Co462 2.244 . S
O475 C465 1.272 . S
O475 Co467 2.135 . S
Co476 O477 2.216 1_545 S
Co476 O478 2.091 1_545 S
Co476 O480 2.004 . S
Co476 O486 2.021 1_545 S
Co476 O488 2.137 . S
Co476 O489 2.244 . S
O477 Co476 2.216 1_565 S
O477 C484 1.247 . S
O478 Co476 2.091 1_565 S
O478 C484 1.261 . S
C479 O488 1.247 . S
C479 O489 1.272 . S
O480 Co476 2.004 . S
O480 C485 1.259 . S
Co481 O482 2.061 . S
Co481 O487 2.052 1_545 S
Co481 O489 2.135 . S
O482 Co481 2.061 . S
O482 C485 1.235 . S
C483 O486 1.238 . S
C483 O487 1.241 . S
C484 O477 1.247 . S
C484 O478 1.261 . S
C485 O480 1.259 . S
C485 O482 1.235 . S
O486 Co476 2.021 1_565 S
O486 C483 1.238 . S
O487 Co481 2.052 1_565 S
O487 C483 1.241 . S
O488 Co476 2.137 . S
O488 C479 1.247 . S
O489 Co476 2.244 . S
O489 C479 1.272 . S
O489 Co481 2.135 . S
Co490 O491 2.216 . S
Co490 O492 2.091 . S
Co490 O494 2.004 . S
Co490 O500 2.021 . S
Co490 O502 2.137 . S
Co490 O503 2.244 . S
O491 Co490 2.216 . S
O491 C498 1.247 . S
O492 Co490 2.091 . S
O492 C498 1.261 . S
C493 O502 1.247 . S
C493 O503 1.272 . S
O494 Co490 2.004 . S
O494 C499 1.259 . S
Co495 O496 2.061 . S
Co495 O501 2.052 . S
Co495 O503 2.135 . S
O496 Co495 2.061 . S
O496 C499 1.235 . S
C497 O500 1.238 . S
C497 O501 1.241 . S
C498 O491 1.247 . S
C498 O492 1.261 . S
C499 O494 1.259 . S
C499 O496 1.235 . S
O500 Co490 2.021 . S
O500 C497 1.238 . S
O501 Co495 2.052 . S
O501 C497 1.241 . S
O502 Co490 2.137 . S
O502 C493 1.247 . S
O503 Co490 2.244 . S
O503 C493 1.272 . S
O503 Co495 2.135 . S
Co504 O505 2.216 1_545 S
Co504 O506 2.091 1_545 S
Co504 O508 2.004 . S
Co504 O514 2.021 1_545 S
Co504 O516 2.137 . S
Co504 O517 2.244 . S
O505 Co504 2.216 1_565 S
O505 C512 1.247 . S
O506 Co504 2.091 1_565 S
O506 C512 1.261 . S
C507 O516 1.247 . S
C507 O517 1.272 . S
O508 Co504 2.004 . S
O508 C513 1.259 . S
Co509 O510 2.061 . S
Co509 O515 2.052 1_545 S
Co509 O517 2.135 . S
O510 Co509 2.061 . S
O510 C513 1.235 . S
C511 O514 1.238 . S
C511 O515 1.241 . S
C512 O505 1.247 . S
C512 O506 1.261 . S
C513 O508 1.259 . S
C513 O510 1.235 . S
O514 Co504 2.021 1_565 S
O514 C511 1.238 . S
O515 Co509 2.052 1_565 S
O515 C511 1.241 . S
O516 Co504 2.137 . S
O516 C507 1.247 . S
O517 Co504 2.244 . S
O517 C507 1.272 . S
O517 Co509 2.135 . S
Co518 O519 2.216 . S
Co518 O520 2.091 . S
Co518 O522 2.004 . S
Co518 O528 2.021 . S
Co518 O530 2.137 . S
Co518 O531 2.244 . S
O519 Co518 2.216 . S
O519 C526 1.247 . S
O520 Co518 2.091 . S
O520 C526 1.261 . S
C521 O530 1.247 . S
C521 O531 1.272 . S
O522 Co518 2.004 . S
O522 C527 1.259 . S
Co523 O524 2.061 . S
Co523 O529 2.052 . S
Co523 O531 2.135 . S
O524 Co523 2.061 . S
O524 C527 1.235 . S
C525 O528 1.238 . S
C525 O529 1.241 . S
C526 O519 1.247 . S
C526 O520 1.261 . S
C527 O522 1.259 . S
C527 O524 1.235 . S
O528 Co518 2.021 . S
O528 C525 1.238 . S
O529 Co523 2.052 . S
O529 C525 1.241 . S
O530 Co518 2.137 . S
O530 C521 1.247 . S
O531 Co518 2.244 . S
O531 C521 1.272 . S
O531 Co523 2.135 . S
Co532 O533 2.216 1_565 S
Co532 O534 2.091 1_565 S
Co532 O536 2.004 . S
Co532 O542 2.021 1_565 S
Co532 O544 2.137 . S
Co532 O545 2.244 . S
O533 Co532 2.216 1_545 S
O533 C540 1.247 . S
O534 Co532 2.091 1_545 S
O534 C540 1.261 . S
C535 O544 1.247 . S
C535 O545 1.272 . S
O536 Co532 2.004 . S
O536 C541 1.259 . S
Co537 O538 2.061 . S
Co537 O543 2.052 1_565 S
Co537 O545 2.135 . S
O538 Co537 2.061 . S
O538 C541 1.235 . S
C539 O542 1.238 . S
C539 O543 1.241 . S
C540 O533 1.247 . S
C540 O534 1.261 . S
C541 O536 1.259 . S
C541 O538 1.235 . S
O542 Co532 2.021 1_545 S
O542 C539 1.238 . S
O543 Co537 2.052 1_545 S
O543 C539 1.241 . S
O544 Co532 2.137 . S
O544 C535 1.247 . S
O545 Co532 2.244 . S
O545 C535 1.272 . S
O545 Co537 2.135 . S
Co546 O547 2.216 . S
Co546 O548 2.091 . S
Co546 O550 2.004 . S
Co546 O556 2.021 . S
Co546 O558 2.137 . S
Co546 O559 2.244 . S
O547 Co546 2.216 . S
O547 C554 1.247 . S
O548 Co546 2.091 . S
O548 C554 1.261 . S
C549 O558 1.247 . S
C549 O559 1.272 . S
O550 Co546 2.004 . S
O550 C555 1.259 . S
Co551 O552 2.061 . S
Co551 O557 2.052 . S
Co551 O559 2.135 . S
O552 Co551 2.061 . S
O552 C555 1.235 . S
C553 O556 1.238 . S
C553 O557 1.241 . S
C554 O547 1.247 . S
C554 O548 1.261 . S
C555 O550 1.259 . S
C555 O552 1.235 . S
O556 Co546 2.021 . S
O556 C553 1.238 . S
O557 Co551 2.052 . S
O557 C553 1.241 . S
O558 Co546 2.137 . S
O558 C549 1.247 . S
O559 Co546 2.244 . S
O559 C549 1.272 . S
O559 Co551 2.135 . S
Co560 O561 2.216 1_556 S
Co560 O562 2.096 . S
Co560 O564 2.004 . S
Co560 O570 2.021 1_556 S
Co560 O572 2.137 . S
Co560 O573 2.244 . S
O561 Co560 2.216 1_554 S
O561 C568 1.247 . S
O562 Co560 2.096 . S
O562 C568 1.248 1_556 S
C563 O572 1.247 . S
C563 O573 1.272 . S
O564 Co560 2.004 . S
O564 C569 1.259 . S
Co565 O566 2.061 . S
Co565 O571 2.052 1_556 S
Co565 O573 2.135 . S
O566 Co565 2.061 . S
O566 C569 1.235 . S
C567 O570 1.238 . S
C567 O571 1.241 . S
C568 O561 1.247 . S
C568 O562 1.248 1_554 S
C569 O564 1.259 . S
C569 O566 1.235 . S
O570 Co560 2.021 1_554 S
O570 C567 1.238 . S
O571 Co565 2.052 1_554 S
O571 C567 1.241 . S
O572 Co560 2.137 . S
O572 C563 1.247 . S
O573 Co560 2.244 . S
O573 C563 1.272 . S
O573 Co565 2.135 . S
Co574 O575 2.216 1_554 S
Co574 O576 2.095 . S
Co574 O578 2.004 . S
Co574 O584 2.021 1_554 S
Co574 O586 2.137 . S
Co574 O587 2.244 . S
O575 Co574 2.216 1_556 S
O575 C582 1.247 . S
O576 Co574 2.095 . S
O576 C582 1.252 1_554 S
C577 O586 1.247 . S
C577 O587 1.272 . S
O578 Co574 2.004 . S
O578 C583 1.259 . S
Co579 O580 2.061 . S
Co579 O585 2.052 1_554 S
Co579 O587 2.135 . S
O580 Co579 2.061 . S
O580 C583 1.235 . S
C581 O584 1.238 . S
C581 O585 1.241 . S
C582 O575 1.247 . S
C582 O576 1.252 1_556 S
C583 O578 1.259 . S
C583 O580 1.235 . S
O584 Co574 2.021 1_556 S
O584 C581 1.238 . S
O585 Co579 2.052 1_556 S
O585 C581 1.241 . S
O586 Co574 2.137 . S
O586 C577 1.247 . S
O587 Co574 2.244 . S
O587 C577 1.272 . S
O587 Co579 2.135 . S
Co588 O589 2.216 . S
Co588 O590 2.091 . S
Co588 O592 2.004 . S
Co588 O598 2.021 . S
Co588 O600 2.137 . S
Co588 O601 2.244 . S
O589 Co588 2.216 . S
O589 C596 1.247 . S
O590 Co588 2.091 . S
O590 C596 1.261 . S
C591 O600 1.247 . S
C591 O601 1.272 . S
O592 Co588 2.004 . S
O592 C597 1.259 . S
Co593 O594 2.061 . S
Co593 O599 2.052 . S
Co593 O601 2.135 . S
O594 Co593 2.061 . S
O594 C597 1.235 . S
C595 O598 1.238 . S
C595 O599 1.241 . S
C596 O589 1.247 . S
C596 O590 1.261 . S
C597 O592 1.259 . S
C597 O594 1.235 . S
O598 Co588 2.021 . S
O598 C595 1.238 . S
O599 Co593 2.052 . S
O599 C595 1.241 . S
O600 Co588 2.137 . S
O600 C591 1.247 . S
O601 Co588 2.244 . S
O601 C591 1.272 . S
O601 Co593 2.135 . S
Co602 O603 2.216 . S
Co602 O604 2.091 . S
Co602 O606 2.004 . S
Co602 O612 2.021 . S
Co602 O614 2.137 . S
Co602 O615 2.244 . S
O603 Co602 2.216 . S
O603 C610 1.247 . S
O604 Co602 2.091 . S
O604 C610 1.261 . S
C605 O614 1.247 . S
C605 O615 1.272 . S
O606 Co602 2.004 . S
O606 C611 1.259 . S
Co607 O608 2.061 . S
Co607 O613 2.052 . S
Co607 O615 2.135 . S
O608 Co607 2.061 . S
O608 C611 1.235 . S
C609 O612 1.238 . S
C609 O613 1.241 . S
C610 O603 1.247 . S
C610 O604 1.261 . S
C611 O606 1.259 . S
C611 O608 1.235 . S
O612 Co602 2.021 . S
O612 C609 1.238 . S
O613 Co607 2.052 . S
O613 C609 1.241 . S
O614 Co602 2.137 . S
O614 C605 1.247 . S
O615 Co602 2.244 . S
O615 C605 1.272 . S
O615 Co607 2.135 . S
Co616 O617 2.216 . S
Co616 O618 2.091 . S
Co616 O620 2.004 . S
Co616 O626 2.021 . S
Co616 O628 2.137 . S
Co616 O629 2.244 . S
O617 Co616 2.216 . S
O617 C624 1.247 . S
O618 Co616 2.091 . S
O618 C624 1.261 . S
C619 O628 1.247 . S
C619 O629 1.272 . S
O620 Co616 2.004 . S
O620 C625 1.259 . S
Co621 O622 2.061 . S
Co621 O627 2.052 . S
Co621 O629 2.135 . S
O622 Co621 2.061 . S
O622 C625 1.235 . S
C623 O626 1.238 . S
C623 O627 1.241 . S
C624 O617 1.247 . S
C624 O618 1.261 . S
C625 O620 1.259 . S
C625 O622 1.235 . S
O626 Co616 2.021 . S
O626 C623 1.238 . S
O627 Co621 2.052 . S
O627 C623 1.241 . S
O628 Co616 2.137 . S
O628 C619 1.247 . S
O629 Co616 2.244 . S
O629 C619 1.272 . S
O629 Co621 2.135 . S
Co630 O631 2.216 . S
Co630 O632 2.091 . S
Co630 O634 2.004 . S
Co630 O640 2.021 . S
Co630 O642 2.137 . S
Co630 O643 2.244 . S
O631 Co630 2.216 . S
O631 C638 1.247 . S
O632 Co630 2.091 . S
O632 C638 1.261 . S
C633 O642 1.247 . S
C633 O643 1.272 . S
O634 Co630 2.004 . S
O634 C639 1.259 . S
Co635 O636 2.061 . S
Co635 O641 2.052 . S
Co635 O643 2.135 . S
O636 Co635 2.061 . S
O636 C639 1.235 . S
C637 O640 1.238 . S
C637 O641 1.241 . S
C638 O631 1.247 . S
C638 O632 1.261 . S
C639 O634 1.259 . S
C639 O636 1.235 . S
O640 Co630 2.021 . S
O640 C637 1.238 . S
O641 Co635 2.052 . S
O641 C637 1.241 . S
O642 Co630 2.137 . S
O642 C633 1.247 . S
O643 Co630 2.244 . S
O643 C633 1.272 . S
O643 Co635 2.135 . S
Co644 O645 2.216 . S
Co644 O646 2.091 . S
Co644 O648 2.004 . S
Co644 O654 2.021 . S
Co644 O656 2.137 . S
Co644 O657 2.244 . S
O645 Co644 2.216 . S
O645 C652 1.247 . S
O646 Co644 2.091 . S
O646 C652 1.261 . S
C647 O656 1.247 . S
C647 O657 1.272 . S
O648 Co644 2.004 . S
O648 C653 1.259 . S
Co649 O650 2.061 . S
Co649 O655 2.052 . S
Co649 O657 2.135 . S
O650 Co649 2.061 . S
O650 C653 1.235 . S
C651 O654 1.238 . S
C651 O655 1.241 . S
C652 O645 1.247 . S
C652 O646 1.261 . S
C653 O648 1.259 . S
C653 O650 1.235 . S
O654 Co644 2.021 . S
O654 C651 1.238 . S
O655 Co649 2.052 . S
O655 C651 1.241 . S
O656 Co644 2.137 . S
O656 C647 1.247 . S
O657 Co644 2.244 . S
O657 C647 1.272 . S
O657 Co649 2.135 . S
Co658 O659 2.216 . S
Co658 O660 2.091 . S
Co658 O662 2.004 . S
Co658 O668 2.021 . S
Co658 O670 2.137 . S
Co658 O671 2.244 . S
O659 Co658 2.216 . S
O659 C666 1.247 . S
O660 Co658 2.091 . S
O660 C666 1.261 . S
C661 O670 1.247 . S
C661 O671 1.272 . S
O662 Co658 2.004 . S
O662 C667 1.259 . S
Co663 O664 2.061 . S
Co663 O669 2.052 . S
Co663 O671 2.135 . S
O664 Co663 2.061 . S
O664 C667 1.235 . S
C665 O668 1.238 . S
C665 O669 1.241 . S
C666 O659 1.247 . S
C666 O660 1.261 . S
C667 O662 1.259 . S
C667 O664 1.235 . S
O668 Co658 2.021 . S
O668 C665 1.238 . S
O669 Co663 2.052 . S
O669 C665 1.241 . S
O670 Co658 2.137 . S
O670 C661 1.247 . S
O671 Co658 2.244 . S
O671 C661 1.272 . S
O671 Co663 2.135 . S
Co672 O673 2.216 . S
Co672 O674 2.091 . S
Co672 O676 2.004 . S
Co672 O682 2.021 . S
Co672 O684 2.137 . S
Co672 O685 2.244 . S
O673 Co672 2.216 . S
O673 C680 1.247 . S
O674 Co672 2.091 . S
O674 C680 1.261 . S
C675 O684 1.247 . S
C675 O685 1.272 . S
O676 Co672 2.004 . S
O676 C681 1.259 . S
Co677 O678 2.061 . S
Co677 O683 2.052 . S
Co677 O685 2.135 . S
O678 Co677 2.061 . S
O678 C681 1.235 . S
C679 O682 1.238 . S
C679 O683 1.241 . S
C680 O673 1.247 . S
C680 O674 1.261 . S
C681 O676 1.259 . S
C681 O678 1.235 . S
O682 Co672 2.021 . S
O682 C679 1.238 . S
O683 Co677 2.052 . S
O683 C679 1.241 . S
O684 Co672 2.137 . S
O684 C675 1.247 . S
O685 Co672 2.244 . S
O685 C675 1.272 . S
O685 Co677 2.135 . S
Co686 O687 2.216 . S
Co686 O688 2.091 . S
Co686 O690 2.004 . S
Co686 O696 2.021 . S
Co686 O698 2.137 . S
Co686 O699 2.244 . S
O687 Co686 2.216 . S
O687 C694 1.247 . S
O688 Co686 2.091 . S
O688 C694 1.261 . S
C689 O698 1.247 . S
C689 O699 1.272 . S
O690 Co686 2.004 . S
O690 C695 1.259 . S
Co691 O692 2.061 . S
Co691 O697 2.052 . S
Co691 O699 2.135 . S
O692 Co691 2.061 . S
O692 C695 1.235 . S
C693 O696 1.238 . S
C693 O697 1.241 . S
C694 O687 1.247 . S
C694 O688 1.261 . S
C695 O690 1.259 . S
C695 O692 1.235 . S
O696 Co686 2.021 . S
O696 C693 1.238 . S
O697 Co691 2.052 . S
O697 C693 1.241 . S
O698 Co686 2.137 . S
O698 C689 1.247 . S
O699 Co686 2.244 . S
O699 C689 1.272 . S
O699 Co691 2.135 . S
Co700 O701 2.216 1_655 S
Co700 O702 2.086 1_655 S
Co700 O704 2.004 . S
Co700 O710 2.021 1_655 S
Co700 O712 2.137 . S
Co700 O713 2.244 . S
O701 Co700 2.216 1_455 S
O701 C708 1.247 . S
O702 Co700 2.086 1_455 S
O702 C708 1.277 . S
C703 O712 1.247 . S
C703 O713 1.272 . S
O704 Co700 2.004 . S
O704 C709 1.259 . S
Co705 O706 2.061 . S
Co705 O711 2.052 1_655 S
Co705 O713 2.135 . S
O706 Co705 2.061 . S
O706 C709 1.235 . S
C707 O710 1.238 . S
C707 O711 1.241 . S
C708 O701 1.247 . S
C708 O702 1.277 . S
C709 O704 1.259 . S
C709 O706 1.235 . S
O710 Co700 2.021 1_455 S
O710 C707 1.238 . S
O711 Co705 2.052 1_455 S
O711 C707 1.241 . S
O712 Co700 2.137 . S
O712 C703 1.247 . S
O713 Co700 2.244 . S
O713 C703 1.272 . S
O713 Co705 2.135 . S
Co714 O715 2.216 . S
Co714 O716 2.091 . S
Co714 O718 2.004 . S
Co714 O724 2.021 . S
Co714 O726 2.137 . S
Co714 O727 2.244 . S
O715 Co714 2.216 . S
O715 C722 1.247 . S
O716 Co714 2.091 . S
O716 C722 1.261 . S
C717 O726 1.247 . S
C717 O727 1.272 . S
O718 Co714 2.004 . S
O718 C723 1.259 . S
Co719 O720 2.061 . S
Co719 O725 2.052 . S
Co719 O727 2.135 . S
O720 Co719 2.061 . S
O720 C723 1.235 . S
C721 O724 1.238 . S
C721 O725 1.241 . S
C722 O715 1.247 . S
C722 O716 1.261 . S
C723 O718 1.259 . S
C723 O720 1.235 . S
O724 Co714 2.021 . S
O724 C721 1.238 . S
O725 Co719 2.052 . S
O725 C721 1.241 . S
O726 Co714 2.137 . S
O726 C717 1.247 . S
O727 Co714 2.244 . S
O727 C717 1.272 . S
O727 Co719 2.135 . S
Co728 O729 2.216 . S
Co728 O730 2.091 . S
Co728 O732 2.004 . S
Co728 O738 2.021 . S
Co728 O740 2.137 . S
Co728 O741 2.244 . S
O729 Co728 2.216 . S
O729 C736 1.247 . S
O730 Co728 2.091 . S
O730 C736 1.261 . S
C731 O740 1.247 . S
C731 O741 1.272 . S
O732 Co728 2.004 . S
O732 C737 1.259 . S
Co733 O734 2.061 . S
Co733 O739 2.052 . S
Co733 O741 2.135 . S
O734 Co733 2.061 . S
O734 C737 1.235 . S
C735 O738 1.238 . S
C735 O739 1.241 . S
C736 O729 1.247 . S
C736 O730 1.261 . S
C737 O732 1.259 . S
C737 O734 1.235 . S
O738 Co728 2.021 . S
O738 C735 1.238 . S
O739 Co733 2.052 . S
O739 C735 1.241 . S
O740 Co728 2.137 . S
O740 C731 1.247 . S
O741 Co728 2.244 . S
O741 C731 1.272 . S
O741 Co733 2.135 . S
Co742 O743 2.216 . S
Co742 O744 2.091 . S
Co742 O746 2.004 . S
Co742 O752 2.021 . S
Co742 O754 2.137 . S
Co742 O755 2.244 . S
O743 Co742 2.216 . S
O743 C750 1.247 . S
O744 Co742 2.091 . S
O744 C750 1.261 . S
C745 O754 1.247 . S
C745 O755 1.272 . S
O746 Co742 2.004 . S
O746 C751 1.259 . S
Co747 O748 2.061 . S
Co747 O753 2.052 . S
Co747 O755 2.135 . S
O748 Co747 2.061 . S
O748 C751 1.235 . S
C749 O752 1.238 . S
C749 O753 1.241 . S
C750 O743 1.247 . S
C750 O744 1.261 . S
C751 O746 1.259 . S
C751 O748 1.235 . S
O752 Co742 2.021 . S
O752 C749 1.238 . S
O753 Co747 2.052 . S
O753 C749 1.241 . S
O754 Co742 2.137 . S
O754 C745 1.247 . S
O755 Co742 2.244 . S
O755 C745 1.272 . S
O755 Co747 2.135 . S
Co756 O757 2.216 1_655 S
Co756 O758 2.086 1_655 S
Co756 O760 2.004 . S
Co756 O766 2.021 1_655 S
Co756 O768 2.137 . S
Co756 O769 2.244 . S
O757 Co756 2.216 1_455 S
O757 C764 1.247 . S
O758 Co756 2.086 1_455 S
O758 C764 1.276 . S
C759 O768 1.247 . S
C759 O769 1.272 . S
O760 Co756 2.004 . S
O760 C765 1.259 . S
Co761 O762 2.061 . S
Co761 O767 2.052 1_655 S
Co761 O769 2.135 . S
O762 Co761 2.061 . S
O762 C765 1.235 . S
C763 O766 1.238 . S
C763 O767 1.241 . S
C764 O757 1.247 . S
C764 O758 1.276 . S
C765 O760 1.259 . S
C765 O762 1.235 . S
O766 Co756 2.021 1_455 S
O766 C763 1.238 . S
O767 Co761 2.052 1_455 S
O767 C763 1.241 . S
O768 Co756 2.137 . S
O768 C759 1.247 . S
O769 Co756 2.244 . S
O769 C759 1.272 . S
O769 Co761 2.135 . S
Co770 O771 2.216 . S
Co770 O772 2.091 . S
Co770 O774 2.004 . S
Co770 O780 2.021 . S
Co770 O782 2.137 . S
Co770 O783 2.244 . S
O771 Co770 2.216 . S
O771 C778 1.247 . S
O772 Co770 2.091 . S
O772 C778 1.261 . S
C773 O782 1.247 . S
C773 O783 1.272 . S
O774 Co770 2.004 . S
O774 C779 1.259 . S
Co775 O776 2.061 . S
Co775 O781 2.052 . S
Co775 O783 2.135 . S
O776 Co775 2.061 . S
O776 C779 1.235 . S
C777 O780 1.238 . S
C777 O781 1.241 . S
C778 O771 1.247 . S
C778 O772 1.261 . S
C779 O774 1.259 . S
C779 O776 1.235 . S
O780 Co770 2.021 . S
O780 C777 1.238 . S
O781 Co775 2.052 . S
O781 C777 1.241 . S
O782 Co770 2.137 . S
O782 C773 1.247 . S
O783 Co770 2.244 . S
O783 C773 1.272 . S
O783 Co775 2.135 . S
Co784 O785 2.216 . S
Co784 O786 2.091 . S
Co784 O788 2.004 . S
Co784 O794 2.021 . S
Co784 O796 2.137 . S
Co784 O797 2.244 . S
O785 Co784 2.216 . S
O785 C792 1.247 . S
O786 Co784 2.091 . S
O786 C792 1.261 . S
C787 O796 1.247 . S
C787 O797 1.272 . S
O788 Co784 2.004 . S
O788 C793 1.259 . S
Co789 O790 2.061 . S
Co789 O795 2.052 . S
Co789 O797 2.135 . S
O790 Co789 2.061 . S
O790 C793 1.235 . S
C791 O794 1.238 . S
C791 O795 1.241 . S
C792 O785 1.247 . S
C792 O786 1.261 . S
C793 O788 1.259 . S
C793 O790 1.235 . S
O794 Co784 2.021 . S
O794 C791 1.238 . S
O795 Co789 2.052 . S
O795 C791 1.241 . S
O796 Co784 2.137 . S
O796 C787 1.247 . S
O797 Co784 2.244 . S
O797 C787 1.272 . S
O797 Co789 2.135 . S
Co798 O799 2.216 . S
Co798 O800 2.091 . S
Co798 O802 2.004 . S
Co798 O808 2.021 . S
Co798 O810 2.137 . S
Co798 O811 2.244 . S
O799 Co798 2.216 . S
O799 C806 1.247 . S
O800 Co798 2.091 . S
O800 C806 1.261 . S
C801 O810 1.247 . S
C801 O811 1.272 . S
O802 Co798 2.004 . S
O802 C807 1.259 . S
Co803 O804 2.061 . S
Co803 O809 2.052 . S
Co803 O811 2.135 . S
O804 Co803 2.061 . S
O804 C807 1.235 . S
C805 O808 1.238 . S
C805 O809 1.241 . S
C806 O799 1.247 . S
C806 O800 1.261 . S
C807 O802 1.259 . S
C807 O804 1.235 . S
O808 Co798 2.021 . S
O808 C805 1.238 . S
O809 Co803 2.052 . S
O809 C805 1.241 . S
O810 Co798 2.137 . S
O810 C801 1.247 . S
O811 Co798 2.244 . S
O811 C801 1.272 . S
O811 Co803 2.135 . S
Co812 O813 2.216 . S
Co812 O814 2.091 . S
Co812 O816 2.004 . S
Co812 O822 2.021 . S
Co812 O824 2.137 . S
Co812 O825 2.244 . S
O813 Co812 2.216 . S
O813 C820 1.247 . S
O814 Co812 2.091 . S
O814 C820 1.261 . S
C815 O824 1.247 . S
C815 O825 1.272 . S
O816 Co812 2.004 . S
O816 C821 1.259 . S
Co817 O818 2.061 . S
Co817 O823 2.052 . S
Co817 O825 2.135 . S
O818 Co817 2.061 . S
O818 C821 1.235 . S
C819 O822 1.238 . S
C819 O823 1.241 . S
C820 O813 1.247 . S
C820 O814 1.261 . S
C821 O816 1.259 . S
C821 O818 1.235 . S
O822 Co812 2.021 . S
O822 C819 1.238 . S
O823 Co817 2.052 . S
O823 C819 1.241 . S
O824 Co812 2.137 . S
O824 C815 1.247 . S
O825 Co812 2.244 . S
O825 C815 1.272 . S
O825 Co817 2.135 . S
Co826 O827 2.216 . S
Co826 O828 2.091 . S
Co826 O830 2.004 . S
Co826 O836 2.021 . S
Co826 O838 2.137 . S
Co826 O839 2.244 . S
O827 Co826 2.216 . S
O827 C834 1.247 . S
O828 Co826 2.091 . S
O828 C834 1.261 . S
C829 O838 1.247 . S
C829 O839 1.272 . S
O830 Co826 2.004 . S
O830 C835 1.259 . S
Co831 O832 2.061 . S
Co831 O837 2.052 . S
Co831 O839 2.135 . S
O832 Co831 2.061 . S
O832 C835 1.235 . S
C833 O836 1.238 . S
C833 O837 1.241 . S
C834 O827 1.247 . S
C834 O828 1.261 . S
C835 O830 1.259 . S
C835 O832 1.235 . S
O836 Co826 2.021 . S
O836 C833 1.238 . S
O837 Co831 2.052 . S
O837 C833 1.241 . S
O838 Co826 2.137 . S
O838 C829 1.247 . S
O839 Co826 2.244 . S
O839 C829 1.272 . S
O839 Co831 2.135 . S
Co840 O841 2.216 . S
Co840 O842 2.091 . S
Co840 O844 2.004 . S
Co840 O850 2.021 . S
Co840 O852 2.137 . S
Co840 O853 2.244 . S
O841 Co840 2.216 . S
O841 C848 1.247 . S
O842 Co840 2.091 . S
O842 C848 1.261 . S
C843 O852 1.247 . S
C843 O853 1.272 . S
O844 Co840 2.004 . S
O844 C849 1.259 . S
Co845 O846 2.061 . S
Co845 O851 2.052 . S
Co845 O853 2.135 . S
O846 Co845 2.061 . S
O846 C849 1.235 . S
C847 O850 1.238 . S
C847 O851 1.241 . S
C848 O841 1.247 . S
C848 O842 1.261 . S
C849 O844 1.259 . S
C849 O846 1.235 . S
O850 Co840 2.021 . S
O850 C847 1.238 . S
O851 Co845 2.052 . S
O851 C847 1.241 . S
O852 Co840 2.137 . S
O852 C843 1.247 . S
O853 Co840 2.244 . S
O853 C843 1.272 . S
O853 Co845 2.135 . S
Co854 O855 2.216 . S
Co854 O856 2.091 . S
Co854 O858 2.004 . S
Co854 O864 2.021 . S
Co854 O866 2.137 . S
Co854 O867 2.244 . S
O855 Co854 2.216 . S
O855 C862 1.247 . S
O856 Co854 2.091 . S
O856 C862 1.261 . S
C857 O866 1.247 . S
C857 O867 1.272 . S
O858 Co854 2.004 . S
O858 C863 1.259 . S
Co859 O860 2.061 . S
Co859 O865 2.052 . S
Co859 O867 2.135 . S
O860 Co859 2.061 . S
O860 C863 1.235 . S
C861 O864 1.238 . S
C861 O865 1.241 . S
C862 O855 1.247 . S
C862 O856 1.261 . S
C863 O858 1.259 . S
C863 O860 1.235 . S
O864 Co854 2.021 . S
O864 C861 1.238 . S
O865 Co859 2.052 . S
O865 C861 1.241 . S
O866 Co854 2.137 . S
O866 C857 1.247 . S
O867 Co854 2.244 . S
O867 C857 1.272 . S
O867 Co859 2.135 . S
Co868 O869 2.216 . S
Co868 O870 2.091 . S
Co868 O872 2.004 . S
Co868 O878 2.021 . S
Co868 O880 2.137 . S
Co868 O881 2.244 . S
O869 Co868 2.216 . S
O869 C876 1.247 . S
O870 Co868 2.091 . S
O870 C876 1.261 . S
C871 O880 1.247 . S
C871 O881 1.272 . S
O872 Co868 2.004 . S
O872 C877 1.259 . S
Co873 O874 2.061 . S
Co873 O879 2.052 . S
Co873 O881 2.135 . S
O874 Co873 2.061 . S
O874 C877 1.235 . S
C875 O878 1.238 . S
C875 O879 1.241 . S
C876 O869 1.247 . S
C876 O870 1.261 . S
C877 O872 1.259 . S
C877 O874 1.235 . S
O878 Co868 2.021 . S
O878 C875 1.238 . S
O879 Co873 2.052 . S
O879 C875 1.241 . S
O880 Co868 2.137 . S
O880 C871 1.247 . S
O881 Co868 2.244 . S
O881 C871 1.272 . S
O881 Co873 2.135 . S
Co882 O883 2.216 . S
Co882 O884 2.091 . S
Co882 O886 2.004 . S
Co882 O892 2.021 . S
Co882 O894 2.137 . S
Co882 O895 2.244 . S
O883 Co882 2.216 . S
O883 C890 1.247 . S
O884 Co882 2.091 . S
O884 C890 1.261 . S
C885 O894 1.247 . S
C885 O895 1.272 . S
O886 Co882 2.004 . S
O886 C891 1.259 . S
Co887 O888 2.061 . S
Co887 O893 2.052 . S
Co887 O895 2.135 . S
O888 Co887 2.061 . S
O888 C891 1.235 . S
C889 O892 1.238 . S
C889 O893 1.241 . S
C890 O883 1.247 . S
C890 O884 1.261 . S
C891 O886 1.259 . S
C891 O888 1.235 . S
O892 Co882 2.021 . S
O892 C889 1.238 . S
O893 Co887 2.052 . S
O893 C889 1.241 . S
O894 Co882 2.137 . S
O894 C885 1.247 . S
O895 Co882 2.244 . S
O895 C885 1.272 . S
O895 Co887 2.135 . S
Co896 O897 2.216 . S
Co896 O898 2.091 . S
Co896 O900 2.004 . S
Co896 O906 2.021 . S
Co896 O908 2.137 . S
Co896 O909 2.244 . S
O897 Co896 2.216 . S
O897 C904 1.247 . S
O898 Co896 2.091 . S
O898 C904 1.261 . S
C899 O908 1.247 . S
C899 O909 1.272 . S
O900 Co896 2.004 . S
O900 C905 1.259 . S
Co901 O902 2.061 . S
Co901 O907 2.052 . S
Co901 O909 2.135 . S
O902 Co901 2.061 . S
O902 C905 1.235 . S
C903 O906 1.238 . S
C903 O907 1.241 . S
C904 O897 1.247 . S
C904 O898 1.261 . S
C905 O900 1.259 . S
C905 O902 1.235 . S
O906 Co896 2.021 . S
O906 C903 1.238 . S
O907 Co901 2.052 . S
O907 C903 1.241 . S
O908 Co896 2.137 . S
O908 C899 1.247 . S
O909 Co896 2.244 . S
O909 C899 1.272 . S
O909 Co901 2.135 . S
Co910 O911 2.216 . S
Co910 O912 2.091 . S
Co910 O914 2.004 . S
Co910 O920 2.021 . S
Co910 O922 2.137 . S
Co910 O923 2.244 . S
O911 Co910 2.216 . S
O911 C918 1.247 . S
O912 Co910 2.091 . S
O912 C918 1.261 . S
C913 O922 1.247 . S
C913 O923 1.272 . S
O914 Co910 2.004 . S
O914 C919 1.259 . S
Co915 O916 2.061 . S
Co915 O921 2.052 . S
Co915 O923 2.135 . S
O916 Co915 2.061 . S
O916 C919 1.235 . S
C917 O920 1.238 . S
C917 O921 1.241 . S
C918 O911 1.247 . S
C918 O912 1.261 . S
C919 O914 1.259 . S
C919 O916 1.235 . S
O920 Co910 2.021 . S
O920 C917 1.238 . S
O921 Co915 2.052 . S
O921 C917 1.241 . S
O922 Co910 2.137 . S
O922 C913 1.247 . S
O923 Co910 2.244 . S
O923 C913 1.272 . S
O923 Co915 2.135 . S
Co924 O925 2.216 . S
Co924 O926 2.091 . S
Co924 O928 2.004 . S
Co924 O934 2.021 . S
Co924 O936 2.137 . S
Co924 O937 2.244 . S
O925 Co924 2.216 . S
O925 C932 1.247 . S
O926 Co924 2.091 . S
O926 C932 1.261 . S
C927 O936 1.247 . S
C927 O937 1.272 . S
O928 Co924 2.004 . S
O928 C933 1.259 . S
Co929 O930 2.061 . S
Co929 O935 2.052 . S
Co929 O937 2.135 . S
O930 Co929 2.061 . S
O930 C933 1.235 . S
C931 O934 1.238 . S
C931 O935 1.241 . S
C932 O925 1.247 . S
C932 O926 1.261 . S
C933 O928 1.259 . S
C933 O930 1.235 . S
O934 Co924 2.021 . S
O934 C931 1.238 . S
O935 Co929 2.052 . S
O935 C931 1.241 . S
O936 Co924 2.137 . S
O936 C927 1.247 . S
O937 Co924 2.244 . S
O937 C927 1.272 . S
O937 Co929 2.135 . S
Co938 O939 2.216 1_556 S
Co938 O940 2.091 1_556 S
Co938 O942 2.004 . S
Co938 O948 2.021 1_556 S
Co938 O950 2.137 . S
Co938 O951 2.244 . S
O939 Co938 2.216 1_554 S
O939 C946 1.247 . S
O940 Co938 2.091 1_554 S
O940 C946 1.261 . S
C941 O950 1.247 . S
C941 O951 1.272 . S
O942 Co938 2.004 . S
O942 C947 1.259 . S
Co943 O944 2.061 . S
Co943 O949 2.052 1_556 S
Co943 O951 2.135 . S
O944 Co943 2.061 . S
O944 C947 1.235 . S
C945 O948 1.238 . S
C945 O949 1.241 . S
C946 O939 1.247 . S
C946 O940 1.261 . S
C947 O942 1.259 . S
C947 O944 1.235 . S
O948 Co938 2.021 1_554 S
O948 C945 1.238 . S
O949 Co943 2.052 1_554 S
O949 C945 1.241 . S
O950 Co938 2.137 . S
O950 C941 1.247 . S
O951 Co938 2.244 . S
O951 C941 1.272 . S
O951 Co943 2.135 . S
Co952 O953 2.216 . S
Co952 O954 2.091 . S
Co952 O956 2.004 . S
Co952 O962 2.021 . S
Co952 O964 2.137 . S
Co952 O965 2.244 . S
O953 Co952 2.216 . S
O953 C960 1.247 . S
O954 Co952 2.091 . S
O954 C960 1.261 . S
C955 O964 1.247 . S
C955 O965 1.272 . S
O956 Co952 2.004 . S
O956 C961 1.259 . S
Co957 O958 2.061 . S
Co957 O963 2.052 . S
Co957 O965 2.135 . S
O958 Co957 2.061 . S
O958 C961 1.235 . S
C959 O962 1.238 . S
C959 O963 1.241 . S
C960 O953 1.247 . S
C960 O954 1.261 . S
C961 O956 1.259 . S
C961 O958 1.235 . S
O962 Co952 2.021 . S
O962 C959 1.238 . S
O963 Co957 2.052 . S
O963 C959 1.241 . S
O964 Co952 2.137 . S
O964 C955 1.247 . S
O965 Co952 2.244 . S
O965 C955 1.272 . S
O965 Co957 2.135 . S
Co966 O967 2.216 1_554 S
Co966 O968 2.091 1_554 S
Co966 O970 2.004 . S
Co966 O976 2.021 1_554 S
Co966 O978 2.137 . S
Co966 O979 2.244 . S
O967 Co966 2.216 1_556 S
O967 C974 1.247 . S
O968 Co966 2.091 1_556 S
O968 C974 1.261 . S
C969 O978 1.247 . S
C969 O979 1.272 . S
O970 Co966 2.004 . S
O970 C975 1.259 . S
Co971 O972 2.061 . S
Co971 O977 2.052 1_554 S
Co971 O979 2.135 . S
O972 Co971 2.061 . S
O972 C975 1.235 . S
C973 O976 1.238 . S
C973 O977 1.241 . S
C974 O967 1.247 . S
C974 O968 1.261 . S
C975 O970 1.259 . S
C975 O972 1.235 . S
O976 Co966 2.021 1_556 S
O976 C973 1.238 . S
O977 Co971 2.052 1_556 S
O977 C973 1.241 . S
O978 Co966 2.137 . S
O978 C969 1.247 . S
O979 Co966 2.244 . S
O979 C969 1.272 . S
O979 Co971 2.135 . S
Co980 O981 2.216 . S
Co980 O982 2.091 . S
Co980 O984 2.004 . S
Co980 O990 2.021 . S
Co980 O992 2.137 . S
Co980 O993 2.244 . S
O981 Co980 2.216 . S
O981 C988 1.247 . S
O982 Co980 2.091 . S
O982 C988 1.261 . S
C983 O992 1.247 . S
C983 O993 1.272 . S
O984 Co980 2.004 . S
O984 C989 1.259 . S
Co985 O986 2.061 . S
Co985 O991 2.052 . S
Co985 O993 2.135 . S
O986 Co985 2.061 . S
O986 C989 1.235 . S
C987 O990 1.238 . S
C987 O991 1.241 . S
C988 O981 1.247 . S
C988 O982 1.261 . S
C989 O984 1.259 . S
C989 O986 1.235 . S
O990 Co980 2.021 . S
O990 C987 1.238 . S
O991 Co985 2.052 . S
O991 C987 1.241 . S
O992 Co980 2.137 . S
O992 C983 1.247 . S
O993 Co980 2.244 . S
O993 C983 1.272 . S
O993 Co985 2.135 . S
Co994 O995 2.216 . S
Co994 O996 2.091 . S
Co994 O998 2.004 . S
Co994 O1004 2.021 . S
Co994 O1006 2.137 . S
Co994 O1007 2.244 . S
O995 Co994 2.216 . S
O995 C1002 1.247 . S
O996 Co994 2.091 . S
O996 C1002 1.261 . S
C997 O1006 1.247 . S
C997 O1007 1.272 . S
O998 Co994 2.004 . S
O998 C1003 1.259 . S
Co999 O1000 2.061 . S
Co999 O1005 2.052 . S
Co999 O1007 2.135 . S
O1000 Co999 2.061 . S
O1000 C1003 1.235 . S
C1001 O1004 1.238 . S
C1001 O1005 1.241 . S
C1002 O995 1.247 . S
C1002 O996 1.261 . S
C1003 O998 1.259 . S
C1003 O1000 1.235 . S
O1004 Co994 2.021 . S
O1004 C1001 1.238 . S
O1005 Co999 2.052 . S
O1005 C1001 1.241 . S
O1006 Co994 2.137 . S
O1006 C997 1.247 . S
O1007 Co994 2.244 . S
O1007 C997 1.272 . S
O1007 Co999 2.135 . S
Co1008 O1009 2.216 . S
Co1008 O1010 2.091 . S
Co1008 O1012 2.004 . S
Co1008 O1018 2.021 . S
Co1008 O1020 2.137 . S
Co1008 O1021 2.244 . S
O1009 Co1008 2.216 . S
O1009 C1016 1.247 . S
O1010 Co1008 2.091 . S
O1010 C1016 1.261 . S
C1011 O1020 1.247 . S
C1011 O1021 1.272 . S
O1012 Co1008 2.004 . S
O1012 C1017 1.259 . S
Co1013 O1014 2.061 . S
Co1013 O1019 2.052 . S
Co1013 O1021 2.135 . S
O1014 Co1013 2.061 . S
O1014 C1017 1.235 . S
C1015 O1018 1.238 . S
C1015 O1019 1.241 . S
C1016 O1009 1.247 . S
C1016 O1010 1.261 . S
C1017 O1012 1.259 . S
C1017 O1014 1.235 . S
O1018 Co1008 2.021 . S
O1018 C1015 1.238 . S
O1019 Co1013 2.052 . S
O1019 C1015 1.241 . S
O1020 Co1008 2.137 . S
O1020 C1011 1.247 . S
O1021 Co1008 2.244 . S
O1021 C1011 1.272 . S
O1021 Co1013 2.135 . S
Co1022 O1023 2.216 . S
Co1022 O1024 2.091 . S
Co1022 O1026 2.004 . S
Co1022 O1032 2.021 . S
Co1022 O1034 2.137 . S
Co1022 O1035 2.244 . S
O1023 Co1022 2.216 . S
O1023 C1030 1.247 . S
O1024 Co1022 2.091 . S
O1024 C1030 1.261 . S
C1025 O1034 1.247 . S
C1025 O1035 1.272 . S
O1026 Co1022 2.004 . S
O1026 C1031 1.259 . S
Co1027 O1028 2.061 . S
Co1027 O1033 2.052 . S
Co1027 O1035 2.135 . S
O1028 Co1027 2.061 . S
O1028 C1031 1.235 . S
C1029 O1032 1.238 . S
C1029 O1033 1.241 . S
C1030 O1023 1.247 . S
C1030 O1024 1.261 . S
C1031 O1026 1.259 . S
C1031 O1028 1.235 . S
O1032 Co1022 2.021 . S
O1032 C1029 1.238 . S
O1033 Co1027 2.052 . S
O1033 C1029 1.241 . S
O1034 Co1022 2.137 . S
O1034 C1025 1.247 . S
O1035 Co1022 2.244 . S
O1035 C1025 1.272 . S
O1035 Co1027 2.135 . S
Co1036 O1037 2.216 1_455 S
Co1036 O1038 2.091 1_455 S
Co1036 O1040 2.004 . S
Co1036 O1046 2.021 1_455 S
Co1036 O1048 2.137 . S
Co1036 O1049 2.244 . S
O1037 Co1036 2.216 1_655 S
O1037 C1044 1.247 . S
O1038 Co1036 2.091 1_655 S
O1038 C1044 1.261 . S
C1039 O1048 1.247 . S
C1039 O1049 1.272 . S
O1040 Co1036 2.004 . S
O1040 C1045 1.259 . S
Co1041 O1042 2.061 . S
Co1041 O1047 2.052 1_455 S
Co1041 O1049 2.135 . S
O1042 Co1041 2.061 . S
O1042 C1045 1.235 . S
C1043 O1046 1.238 . S
C1043 O1047 1.241 . S
C1044 O1037 1.247 . S
C1044 O1038 1.261 . S
C1045 O1040 1.259 . S
C1045 O1042 1.235 . S
O1046 Co1036 2.021 1_655 S
O1046 C1043 1.238 . S
O1047 Co1041 2.052 1_655 S
O1047 C1043 1.241 . S
O1048 Co1036 2.137 . S
O1048 C1039 1.247 . S
O1049 Co1036 2.244 . S
O1049 C1039 1.272 . S
O1049 Co1041 2.135 . S
Co1050 O1051 2.216 . S
Co1050 O1052 2.091 . S
Co1050 O1054 2.004 . S
Co1050 O1060 2.021 . S
Co1050 O1062 2.137 . S
Co1050 O1063 2.244 . S
O1051 Co1050 2.216 . S
O1051 C1058 1.247 . S
O1052 Co1050 2.091 . S
O1052 C1058 1.261 . S
C1053 O1062 1.247 . S
C1053 O1063 1.272 . S
O1054 Co1050 2.004 . S
O1054 C1059 1.259 . S
Co1055 O1056 2.061 . S
Co1055 O1061 2.052 . S
Co1055 O1063 2.135 . S
O1056 Co1055 2.061 . S
O1056 C1059 1.235 . S
C1057 O1060 1.238 . S
C1057 O1061 1.241 . S
C1058 O1051 1.247 . S
C1058 O1052 1.261 . S
C1059 O1054 1.259 . S
C1059 O1056 1.235 . S
O1060 Co1050 2.021 . S
O1060 C1057 1.238 . S
O1061 Co1055 2.052 . S
O1061 C1057 1.241 . S
O1062 Co1050 2.137 . S
O1062 C1053 1.247 . S
O1063 Co1050 2.244 . S
O1063 C1053 1.272 . S
O1063 Co1055 2.135 . S
Co1064 O1065 2.216 . S
Co1064 O1066 2.091 . S
Co1064 O1068 2.004 . S
Co1064 O1074 2.021 . S
Co1064 O1076 2.137 . S
Co1064 O1077 2.244 . S
O1065 Co1064 2.216 . S
O1065 C1072 1.247 . S
O1066 Co1064 2.091 . S
O1066 C1072 1.261 . S
C1067 O1076 1.247 . S
C1067 O1077 1.272 . S
O1068 Co1064 2.004 . S
O1068 C1073 1.259 . S
Co1069 O1070 2.061 . S
Co1069 O1075 2.052 . S
Co1069 O1077 2.135 . S
O1070 Co1069 2.061 . S
O1070 C1073 1.235 . S
C1071 O1074 1.238 . S
C1071 O1075 1.241 . S
C1072 O1065 1.247 . S
C1072 O1066 1.261 . S
C1073 O1068 1.259 . S
C1073 O1070 1.235 . S
O1074 Co1064 2.021 . S
O1074 C1071 1.238 . S
O1075 Co1069 2.052 . S
O1075 C1071 1.241 . S
O1076 Co1064 2.137 . S
O1076 C1067 1.247 . S
O1077 Co1064 2.244 . S
O1077 C1067 1.272 . S
O1077 Co1069 2.135 . S
Co1078 O1079 2.216 . S
Co1078 O1080 2.091 . S
Co1078 O1082 2.004 . S
Co1078 O1088 2.021 . S
Co1078 O1090 2.137 . S
Co1078 O1091 2.244 . S
O1079 Co1078 2.216 . S
O1079 C1086 1.247 . S
O1080 Co1078 2.091 . S
O1080 C1086 1.261 . S
C1081 O1090 1.247 . S
C1081 O1091 1.272 . S
O1082 Co1078 2.004 . S
O1082 C1087 1.259 . S
Co1083 O1084 2.061 . S
Co1083 O1089 2.052 . S
Co1083 O1091 2.135 . S
O1084 Co1083 2.061 . S
O1084 C1087 1.235 . S
C1085 O1088 1.238 . S
C1085 O1089 1.241 . S
C1086 O1079 1.247 . S
C1086 O1080 1.261 . S
C1087 O1082 1.259 . S
C1087 O1084 1.235 . S
O1088 Co1078 2.021 . S
O1088 C1085 1.238 . S
O1089 Co1083 2.052 . S
O1089 C1085 1.241 . S
O1090 Co1078 2.137 . S
O1090 C1081 1.247 . S
O1091 Co1078 2.244 . S
O1091 C1081 1.272 . S
O1091 Co1083 2.135 . S
Co1092 O1093 2.216 1_455 S
Co1092 O1094 2.091 1_455 S
Co1092 O1096 2.004 . S
Co1092 O1102 2.021 1_455 S
Co1092 O1104 2.137 . S
Co1092 O1105 2.244 . S
O1093 Co1092 2.216 1_655 S
O1093 C1100 1.247 . S
O1094 Co1092 2.091 1_655 S
O1094 C1100 1.261 . S
C1095 O1104 1.247 . S
C1095 O1105 1.272 . S
O1096 Co1092 2.004 . S
O1096 C1101 1.259 . S
Co1097 O1098 2.061 . S
Co1097 O1103 2.052 1_455 S
Co1097 O1105 2.135 . S
O1098 Co1097 2.061 . S
O1098 C1101 1.235 . S
C1099 O1102 1.238 . S
C1099 O1103 1.241 . S
C1100 O1093 1.247 . S
C1100 O1094 1.261 . S
C1101 O1096 1.259 . S
C1101 O1098 1.235 . S
O1102 Co1092 2.021 1_655 S
O1102 C1099 1.238 . S
O1103 Co1097 2.052 1_655 S
O1103 C1099 1.241 . S
O1104 Co1092 2.137 . S
O1104 C1095 1.247 . S
O1105 Co1092 2.244 . S
O1105 C1095 1.272 . S
O1105 Co1097 2.135 . S
Co1106 O1107 2.216 . S
Co1106 O1108 2.091 . S
Co1106 O1110 2.004 . S
Co1106 O1116 2.021 . S
Co1106 O1118 2.137 . S
Co1106 O1119 2.244 . S
O1107 Co1106 2.216 . S
O1107 C1114 1.247 . S
O1108 Co1106 2.091 . S
O1108 C1114 1.261 . S
C1109 O1118 1.247 . S
C1109 O1119 1.272 . S
O1110 Co1106 2.004 . S
O1110 C1115 1.259 . S
Co1111 O1112 2.061 . S
Co1111 O1117 2.052 . S
Co1111 O1119 2.135 . S
O1112 Co1111 2.061 . S
O1112 C1115 1.235 . S
C1113 O1116 1.238 . S
C1113 O1117 1.241 . S
C1114 O1107 1.247 . S
C1114 O1108 1.261 . S
C1115 O1110 1.259 . S
C1115 O1112 1.235 . S
O1116 Co1106 2.021 . S
O1116 C1113 1.238 . S
O1117 Co1111 2.052 . S
O1117 C1113 1.241 . S
O1118 Co1106 2.137 . S
O1118 C1109 1.247 . S
O1119 Co1106 2.244 . S
O1119 C1109 1.272 . S
O1119 Co1111 2.135 . S
Co1120 O1121 2.216 . S
Co1120 O1122 2.091 . S
Co1120 O1124 2.004 . S
Co1120 O1130 2.021 . S
Co1120 O1132 2.137 . S
Co1120 O1133 2.244 . S
O1121 Co1120 2.216 . S
O1121 C1128 1.247 . S
O1122 Co1120 2.091 . S
O1122 C1128 1.261 . S
C1123 O1132 1.247 . S
C1123 O1133 1.272 . S
O1124 Co1120 2.004 . S
O1124 C1129 1.259 . S
Co1125 O1126 2.061 . S
Co1125 O1131 2.052 . S
Co1125 O1133 2.135 . S
O1126 Co1125 2.061 . S
O1126 C1129 1.235 . S
C1127 O1130 1.238 . S
C1127 O1131 1.241 . S
C1128 O1121 1.247 . S
C1128 O1122 1.261 . S
C1129 O1124 1.259 . S
C1129 O1126 1.235 . S
O1130 Co1120 2.021 . S
O1130 C1127 1.238 . S
O1131 Co1125 2.052 . S
O1131 C1127 1.241 . S
O1132 Co1120 2.137 . S
O1132 C1123 1.247 . S
O1133 Co1120 2.244 . S
O1133 C1123 1.272 . S
O1133 Co1125 2.135 . S
Co1134 O1135 2.216 . S
Co1134 O1136 2.091 . S
Co1134 O1138 2.004 . S
Co1134 O1144 2.021 . S
Co1134 O1146 2.137 . S
Co1134 O1147 2.244 . S
O1135 Co1134 2.216 . S
O1135 C1142 1.247 . S
O1136 Co1134 2.091 . S
O1136 C1142 1.261 . S
C1137 O1146 1.247 . S
C1137 O1147 1.272 . S
O1138 Co1134 2.004 . S
O1138 C1143 1.259 . S
Co1139 O1140 2.061 . S
Co1139 O1145 2.052 . S
Co1139 O1147 2.135 . S
O1140 Co1139 2.061 . S
O1140 C1143 1.235 . S
C1141 O1144 1.238 . S
C1141 O1145 1.241 . S
C1142 O1135 1.247 . S
C1142 O1136 1.261 . S
C1143 O1138 1.259 . S
C1143 O1140 1.235 . S
O1144 Co1134 2.021 . S
O1144 C1141 1.238 . S
O1145 Co1139 2.052 . S
O1145 C1141 1.241 . S
O1146 Co1134 2.137 . S
O1146 C1137 1.247 . S
O1147 Co1134 2.244 . S
O1147 C1137 1.272 . S
O1147 Co1139 2.135 . S
Co1148 O1149 2.216 . S
Co1148 O1150 2.091 . S
Co1148 O1152 2.004 . S
Co1148 O1158 2.021 . S
Co1148 O1160 2.137 . S
Co1148 O1161 2.244 . S
O1149 Co1148 2.216 . S
O1149 C1156 1.247 . S
O1150 Co1148 2.091 . S
O1150 C1156 1.261 . S
C1151 O1160 1.247 . S
C1151 O1161 1.272 . S
O1152 Co1148 2.004 . S
O1152 C1157 1.259 . S
Co1153 O1154 2.061 . S
Co1153 O1159 2.052 . S
Co1153 O1161 2.135 . S
O1154 Co1153 2.061 . S
O1154 C1157 1.235 . S
C1155 O1158 1.238 . S
C1155 O1159 1.241 . S
C1156 O1149 1.247 . S
C1156 O1150 1.261 . S
C1157 O1152 1.259 . S
C1157 O1154 1.235 . S
O1158 Co1148 2.021 . S
O1158 C1155 1.238 . S
O1159 Co1153 2.052 . S
O1159 C1155 1.241 . S
O1160 Co1148 2.137 . S
O1160 C1151 1.247 . S
O1161 Co1148 2.244 . S
O1161 C1151 1.272 . S
O1161 Co1153 2.135 . S
Co1162 O1163 2.216 . S
Co1162 O1164 2.091 . S
Co1162 O1166 2.004 . S
Co1162 O1172 2.021 . S
Co1162 O1174 2.137 . S
Co1162 O1175 2.244 . S
O1163 Co1162 2.216 . S
O1163 C1170 1.247 . S
O1164 Co1162 2.091 . S
O1164 C1170 1.261 . S
C1165 O1174 1.247 . S
C1165 O1175 1.272 . S
O1166 Co1162 2.004 . S
O1166 C1171 1.259 . S
Co1167 O1168 2.061 . S
Co1167 O1173 2.052 . S
Co1167 O1175 2.135 . S
O1168 Co1167 2.061 . S
O1168 C1171 1.235 . S
C1169 O1172 1.238 . S
C1169 O1173 1.241 . S
C1170 O1163 1.247 . S
C1170 O1164 1.261 . S
C1171 O1166 1.259 . S
C1171 O1168 1.235 . S
O1172 Co1162 2.021 . S
O1172 C1169 1.238 . S
O1173 Co1167 2.052 . S
O1173 C1169 1.241 . S
O1174 Co1162 2.137 . S
O1174 C1165 1.247 . S
O1175 Co1162 2.244 . S
O1175 C1165 1.272 . S
O1175 Co1167 2.135 . S
Co1176 O1177 2.216 . S
Co1176 O1178 2.091 . S
Co1176 O1180 2.004 . S
Co1176 O1186 2.021 . S
Co1176 O1188 2.137 . S
Co1176 O1189 2.244 . S
O1177 Co1176 2.216 . S
O1177 C1184 1.247 . S
O1178 Co1176 2.091 . S
O1178 C1184 1.261 . S
C1179 O1188 1.247 . S
C1179 O1189 1.272 . S
O1180 Co1176 2.004 . S
O1180 C1185 1.259 . S
Co1181 O1182 2.061 . S
Co1181 O1187 2.052 . S
Co1181 O1189 2.135 . S
O1182 Co1181 2.061 . S
O1182 C1185 1.235 . S
C1183 O1186 1.238 . S
C1183 O1187 1.241 . S
C1184 O1177 1.247 . S
C1184 O1178 1.261 . S
C1185 O1180 1.259 . S
C1185 O1182 1.235 . S
O1186 Co1176 2.021 . S
O1186 C1183 1.238 . S
O1187 Co1181 2.052 . S
O1187 C1183 1.241 . S
O1188 Co1176 2.137 . S
O1188 C1179 1.247 . S
O1189 Co1176 2.244 . S
O1189 C1179 1.272 . S
O1189 Co1181 2.135 . S
Co1190 O1191 2.216 . S
Co1190 O1192 2.091 . S
Co1190 O1194 2.004 . S
Co1190 O1200 2.021 . S
Co1190 O1202 2.137 . S
Co1190 O1203 2.244 . S
O1191 Co1190 2.216 . S
O1191 C1198 1.247 . S
O1192 Co1190 2.091 . S
O1192 C1198 1.261 . S
C1193 O1202 1.247 . S
C1193 O1203 1.272 . S
O1194 Co1190 2.004 . S
O1194 C1199 1.259 . S
Co1195 O1196 2.061 . S
Co1195 O1201 2.052 . S
Co1195 O1203 2.135 . S
O1196 Co1195 2.061 . S
O1196 C1199 1.235 . S
C1197 O1200 1.238 . S
C1197 O1201 1.241 . S
C1198 O1191 1.247 . S
C1198 O1192 1.261 . S
C1199 O1194 1.259 . S
C1199 O1196 1.235 . S
O1200 Co1190 2.021 . S
O1200 C1197 1.238 . S
O1201 Co1195 2.052 . S
O1201 C1197 1.241 . S
O1202 Co1190 2.137 . S
O1202 C1193 1.247 . S
O1203 Co1190 2.244 . S
O1203 C1193 1.272 . S
O1203 Co1195 2.135 . S
Co1204 O1205 2.216 . S
Co1204 O1206 2.091 . S
Co1204 O1208 2.004 . S
Co1204 O1214 2.021 . S
Co1204 O1216 2.137 . S
Co1204 O1217 2.244 . S
O1205 Co1204 2.216 . S
O1205 C1212 1.247 . S
O1206 Co1204 2.091 . S
O1206 C1212 1.261 . S
C1207 O1216 1.247 . S
C1207 O1217 1.272 . S
O1208 Co1204 2.004 . S
O1208 C1213 1.259 . S
Co1209 O1210 2.061 . S
Co1209 O1215 2.052 . S
Co1209 O1217 2.135 . S
O1210 Co1209 2.061 . S
O1210 C1213 1.235 . S
C1211 O1214 1.238 . S
C1211 O1215 1.241 . S
C1212 O1205 1.247 . S
C1212 O1206 1.261 . S
C1213 O1208 1.259 . S
C1213 O1210 1.235 . S
O1214 Co1204 2.021 . S
O1214 C1211 1.238 . S
O1215 Co1209 2.052 . S
O1215 C1211 1.241 . S
O1216 Co1204 2.137 . S
O1216 C1207 1.247 . S
O1217 Co1204 2.244 . S
O1217 C1207 1.272 . S
O1217 Co1209 2.135 . S
Co1218 O1219 2.216 . S
Co1218 O1220 2.091 . S
Co1218 O1222 2.004 . S
Co1218 O1228 2.021 . S
Co1218 O1230 2.137 . S
Co1218 O1231 2.244 . S
O1219 Co1218 2.216 . S
O1219 C1226 1.247 . S
O1220 Co1218 2.091 . S
O1220 C1226 1.261 . S
C1221 O1230 1.247 . S
C1221 O1231 1.272 . S
O1222 Co1218 2.004 . S
O1222 C1227 1.259 . S
Co1223 O1224 2.061 . S
Co1223 O1229 2.052 . S
Co1223 O1231 2.135 . S
O1224 Co1223 2.061 . S
O1224 C1227 1.235 . S
C1225 O1228 1.238 . S
C1225 O1229 1.241 . S
C1226 O1219 1.247 . S
C1226 O1220 1.261 . S
C1227 O1222 1.259 . S
C1227 O1224 1.235 . S
O1228 Co1218 2.021 . S
O1228 C1225 1.238 . S
O1229 Co1223 2.052 . S
O1229 C1225 1.241 . S
O1230 Co1218 2.137 . S
O1230 C1221 1.247 . S
O1231 Co1218 2.244 . S
O1231 C1221 1.272 . S
O1231 Co1223 2.135 . S
Co1232 O1233 2.216 . S
Co1232 O1234 2.091 . S
Co1232 O1236 2.004 . S
Co1232 O1242 2.021 . S
Co1232 O1244 2.137 . S
Co1232 O1245 2.244 . S
O1233 Co1232 2.216 . S
O1233 C1240 1.247 . S
O1234 Co1232 2.091 . S
O1234 C1240 1.261 . S
C1235 O1244 1.247 . S
C1235 O1245 1.272 . S
O1236 Co1232 2.004 . S
O1236 C1241 1.259 . S
Co1237 O1238 2.061 . S
Co1237 O1243 2.052 . S
Co1237 O1245 2.135 . S
O1238 Co1237 2.061 . S
O1238 C1241 1.235 . S
C1239 O1242 1.238 . S
C1239 O1243 1.241 . S
C1240 O1233 1.247 . S
C1240 O1234 1.261 . S
C1241 O1236 1.259 . S
C1241 O1238 1.235 . S
O1242 Co1232 2.021 . S
O1242 C1239 1.238 . S
O1243 Co1237 2.052 . S
O1243 C1239 1.241 . S
O1244 Co1232 2.137 . S
O1244 C1235 1.247 . S
O1245 Co1232 2.244 . S
O1245 C1235 1.272 . S
O1245 Co1237 2.135 . S
Co1246 O1247 2.216 . S
Co1246 O1248 2.091 . S
Co1246 O1250 2.004 . S
Co1246 O1256 2.021 . S
Co1246 O1258 2.137 . S
Co1246 O1259 2.244 . S
O1247 Co1246 2.216 . S
O1247 C1254 1.247 . S
O1248 Co1246 2.091 . S
O1248 C1254 1.261 . S
C1249 O1258 1.247 . S
C1249 O1259 1.272 . S
O1250 Co1246 2.004 . S
O1250 C1255 1.259 . S
Co1251 O1252 2.061 . S
Co1251 O1257 2.052 . S
Co1251 O1259 2.135 . S
O1252 Co1251 2.061 . S
O1252 C1255 1.235 . S
C1253 O1256 1.238 . S
C1253 O1257 1.241 . S
C1254 O1247 1.247 . S
C1254 O1248 1.261 . S
C1255 O1250 1.259 . S
C1255 O1252 1.235 . S
O1256 Co1246 2.021 . S
O1256 C1253 1.238 . S
O1257 Co1251 2.052 . S
O1257 C1253 1.241 . S
O1258 Co1246 2.137 . S
O1258 C1249 1.247 . S
O1259 Co1246 2.244 . S
O1259 C1249 1.272 . S
O1259 Co1251 2.135 . S
Co1260 O1261 2.216 . S
Co1260 O1262 2.091 . S
Co1260 O1264 2.004 . S
Co1260 O1270 2.021 . S
Co1260 O1272 2.137 . S
Co1260 O1273 2.244 . S
O1261 Co1260 2.216 . S
O1261 C1268 1.247 . S
O1262 Co1260 2.091 . S
O1262 C1268 1.261 . S
C1263 O1272 1.247 . S
C1263 O1273 1.272 . S
O1264 Co1260 2.004 . S
O1264 C1269 1.259 . S
Co1265 O1266 2.061 . S
Co1265 O1271 2.052 . S
Co1265 O1273 2.135 . S
O1266 Co1265 2.061 . S
O1266 C1269 1.235 . S
C1267 O1270 1.238 . S
C1267 O1271 1.241 . S
C1268 O1261 1.247 . S
C1268 O1262 1.261 . S
C1269 O1264 1.259 . S
C1269 O1266 1.235 . S
O1270 Co1260 2.021 . S
O1270 C1267 1.238 . S
O1271 Co1265 2.052 . S
O1271 C1267 1.241 . S
O1272 Co1260 2.137 . S
O1272 C1263 1.247 . S
O1273 Co1260 2.244 . S
O1273 C1263 1.272 . S
O1273 Co1265 2.135 . S
Co1274 O1275 2.216 1_554 S
Co1274 O1276 2.095 . S
Co1274 O1278 2.004 . S
Co1274 O1284 2.021 1_554 S
Co1274 O1286 2.137 . S
Co1274 O1287 2.244 . S
O1275 Co1274 2.216 1_556 S
O1275 C1282 1.247 . S
O1276 Co1274 2.095 . S
O1276 C1282 1.250 1_554 S
C1277 O1286 1.247 . S
C1277 O1287 1.272 . S
O1278 Co1274 2.004 . S
O1278 C1283 1.259 . S
Co1279 O1280 2.061 . S
Co1279 O1285 2.052 1_554 S
Co1279 O1287 2.135 . S
O1280 Co1279 2.061 . S
O1280 C1283 1.235 . S
C1281 O1284 1.238 . S
C1281 O1285 1.241 . S
C1282 O1275 1.247 . S
C1282 O1276 1.250 1_556 S
C1283 O1278 1.259 . S
C1283 O1280 1.235 . S
O1284 Co1274 2.021 1_556 S
O1284 C1281 1.238 . S
O1285 Co1279 2.052 1_556 S
O1285 C1281 1.241 . S
O1286 Co1274 2.137 . S
O1286 C1277 1.247 . S
O1287 Co1274 2.244 . S
O1287 C1277 1.272 . S
O1287 Co1279 2.135 . S
Co1288 O1289 2.216 . S
Co1288 O1290 2.091 . S
Co1288 O1292 2.004 . S
Co1288 O1298 2.021 . S
Co1288 O1300 2.137 . S
Co1288 O1301 2.244 . S
O1289 Co1288 2.216 . S
O1289 C1296 1.247 . S
O1290 Co1288 2.091 . S
O1290 C1296 1.261 . S
C1291 O1300 1.247 . S
C1291 O1301 1.272 . S
O1292 Co1288 2.004 . S
O1292 C1297 1.259 . S
Co1293 O1294 2.061 . S
Co1293 O1299 2.052 . S
Co1293 O1301 2.135 . S
O1294 Co1293 2.061 . S
O1294 C1297 1.235 . S
C1295 O1298 1.238 . S
C1295 O1299 1.241 . S
C1296 O1289 1.247 . S
C1296 O1290 1.261 . S
C1297 O1292 1.259 . S
C1297 O1294 1.235 . S
O1298 Co1288 2.021 . S
O1298 C1295 1.238 . S
O1299 Co1293 2.052 . S
O1299 C1295 1.241 . S
O1300 Co1288 2.137 . S
O1300 C1291 1.247 . S
O1301 Co1288 2.244 . S
O1301 C1291 1.272 . S
O1301 Co1293 2.135 . S
Co1302 O1303 2.216 1_556 S
Co1302 O1304 2.096 . S
Co1302 O1306 2.004 . S
Co1302 O1312 2.021 1_556 S
Co1302 O1314 2.137 . S
Co1302 O1315 2.244 . S
O1303 Co1302 2.216 1_554 S
O1303 C1310 1.247 . S
O1304 Co1302 2.096 . S
O1304 C1310 1.250 1_556 S
C1305 O1314 1.247 . S
C1305 O1315 1.272 . S
O1306 Co1302 2.004 . S
O1306 C1311 1.259 . S
Co1307 O1308 2.061 . S
Co1307 O1313 2.052 1_556 S
Co1307 O1315 2.135 . S
O1308 Co1307 2.061 . S
O1308 C1311 1.235 . S
C1309 O1312 1.238 . S
C1309 O1313 1.241 . S
C1310 O1303 1.247 . S
C1310 O1304 1.250 1_554 S
C1311 O1306 1.259 . S
C1311 O1308 1.235 . S
O1312 Co1302 2.021 1_554 S
O1312 C1309 1.238 . S
O1313 Co1307 2.052 1_554 S
O1313 C1309 1.241 . S
O1314 Co1302 2.137 . S
O1314 C1305 1.247 . S
O1315 Co1302 2.244 . S
O1315 C1305 1.272 . S
O1315 Co1307 2.135 . S
Co1316 O1317 2.216 . S
Co1316 O1318 2.091 . S
Co1316 O1320 2.004 . S
Co1316 O1326 2.021 . S
Co1316 O1328 2.137 . S
Co1316 O1329 2.244 . S
O1317 Co1316 2.216 . S
O1317 C1324 1.247 . S
O1318 Co1316 2.091 . S
O1318 C1324 1.261 . S
C1319 O1328 1.247 . S
C1319 O1329 1.272 . S
O1320 Co1316 2.004 . S
O1320 C1325 1.259 . S
Co1321 O1322 2.061 . S
Co1321 O1327 2.052 . S
Co1321 O1329 2.135 . S
O1322 Co1321 2.061 . S
O1322 C1325 1.235 . S
C1323 O1326 1.238 . S
C1323 O1327 1.241 . S
C1324 O1317 1.247 . S
C1324 O1318 1.261 . S
C1325 O1320 1.259 . S
C1325 O1322 1.235 . S
O1326 Co1316 2.021 . S
O1326 C1323 1.238 . S
O1327 Co1321 2.052 . S
O1327 C1323 1.241 . S
O1328 Co1316 2.137 . S
O1328 C1319 1.247 . S
O1329 Co1316 2.244 . S
O1329 C1319 1.272 . S
O1329 Co1321 2.135 . S
Co1330 O1331 2.216 . S
Co1330 O1332 2.091 . S
Co1330 O1334 2.004 . S
Co1330 O1340 2.021 . S
Co1330 O1342 2.137 . S
Co1330 O1343 2.244 . S
O1331 Co1330 2.216 . S
O1331 C1338 1.247 . S
O1332 Co1330 2.091 . S
O1332 C1338 1.261 . S
C1333 O1342 1.247 . S
C1333 O1343 1.272 . S
O1334 Co1330 2.004 . S
O1334 C1339 1.259 . S
Co1335 O1336 2.061 . S
Co1335 O1341 2.052 . S
Co1335 O1343 2.135 . S
O1336 Co1335 2.061 . S
O1336 C1339 1.235 . S
C1337 O1340 1.238 . S
C1337 O1341 1.241 . S
C1338 O1331 1.247 . S
C1338 O1332 1.261 . S
C1339 O1334 1.259 . S
C1339 O1336 1.235 . S
O1340 Co1330 2.021 . S
O1340 C1337 1.238 . S
O1341 Co1335 2.052 . S
O1341 C1337 1.241 . S
O1342 Co1330 2.137 . S
O1342 C1333 1.247 . S
O1343 Co1330 2.244 . S
O1343 C1333 1.272 . S
O1343 Co1335 2.135 . S
C1344 C1345 1.349 . S
C1344 C1346 1.327 . S
C1344 H1369 0.950 . S
C1345 C1344 1.349 . S
C1345 C1361 1.349 . S
C1346 C1344 1.327 . S
C1346 C1365 1.429 . S
C1346 H1370 0.950 . S
C1347 C1364 1.574 . S
C1347 C1366 1.368 . S
C1347 H1371 0.949 . S
H1348 C1352 0.949 . S
C1349 C1350 1.349 . S
C1349 C1351 1.327 . S
C1349 H1372 0.950 . S
C1350 C1349 1.349 . S
C1350 C1362 1.349 . S
C1351 C1349 1.327 . S
C1351 C1367 1.429 . S
C1351 H1373 0.950 . S
C1352 H1348 0.949 . S
C1352 C1360 1.574 . S
C1352 C1368 1.368 . S
H1353 C1361 0.950 . S
H1354 C1359 0.950 . S
H1355 C1360 0.949 . S
H1356 C1362 0.950 . S
H1357 C1363 0.950 . S
H1358 C1364 0.949 . S
C1359 H1354 0.950 . S
C1359 C1361 1.327 . S
C1359 C1365 1.429 . S
C1360 C1352 1.574 . S
C1360 H1355 0.949 . S
C1360 C1366 1.368 . S
C1361 C1345 1.349 . S
C1361 H1353 0.950 . S
C1361 C1359 1.327 . S
C1362 C1350 1.349 . S
C1362 H1356 0.950 . S
C1362 C1363 1.327 . S
C1363 H1357 0.950 . S
C1363 C1362 1.327 . S
C1363 C1367 1.429 . S
C1364 C1347 1.574 . S
C1364 H1358 0.949 . S
C1364 C1368 1.368 . S
C1365 C1346 1.429 . S
C1365 C1359 1.429 . S
C1365 C1366 1.523 . S
C1366 C1347 1.368 . S
C1366 C1360 1.368 . S
C1366 C1365 1.523 . S
C1367 C1351 1.429 . S
C1367 C1363 1.429 . S
C1367 C1368 1.523 . S
C1368 C1352 1.368 . S
C1368 C1364 1.368 . S
C1368 C1367 1.523 . S
H1369 C1344 0.950 . S
H1370 C1346 0.950 . S
H1371 C1347 0.949 . S
H1372 C1349 0.950 . S
H1373 C1351 0.950 . S
C1374 C1375 1.349 . S
C1374 C1376 1.327 . S
C1374 H1399 0.950 . S
C1375 C1374 1.349 . S
C1375 C1391 1.349 . S
C1376 C1374 1.327 . S
C1376 C1395 1.429 . S
C1376 H1400 0.950 . S
C1377 C1394 1.574 . S
C1377 C1396 1.368 . S
C1377 H1401 0.949 . S
H1378 C1382 0.949 . S
C1379 C1380 1.349 . S
C1379 C1381 1.327 . S
C1379 H1402 0.950 . S
C1380 C1379 1.349 . S
C1380 C1392 1.349 . S
C1381 C1379 1.327 . S
C1381 C1397 1.429 . S
C1381 H1403 0.950 . S
C1382 H1378 0.949 . S
C1382 C1390 1.574 . S
C1382 C1398 1.368 . S
H1383 C1391 0.950 . S
H1384 C1389 0.950 . S
H1385 C1390 0.949 . S
H1386 C1392 0.950 . S
H1387 C1393 0.950 . S
H1388 C1394 0.949 . S
C1389 H1384 0.950 . S
C1389 C1391 1.327 . S
C1389 C1395 1.429 . S
C1390 C1382 1.574 . S
C1390 H1385 0.949 . S
C1390 C1396 1.368 . S
C1391 C1375 1.349 . S
C1391 H1383 0.950 . S
C1391 C1389 1.327 . S
C1392 C1380 1.349 . S
C1392 H1386 0.950 . S
C1392 C1393 1.327 . S
C1393 H1387 0.950 . S
C1393 C1392 1.327 . S
C1393 C1397 1.429 . S
C1394 C1377 1.574 . S
C1394 H1388 0.949 . S
C1394 C1398 1.368 . S
C1395 C1376 1.429 . S
C1395 C1389 1.429 . S
C1395 C1396 1.523 . S
C1396 C1377 1.368 . S
C1396 C1390 1.368 . S
C1396 C1395 1.523 . S
C1397 C1381 1.429 . S
C1397 C1393 1.429 . S
C1397 C1398 1.523 . S
C1398 C1382 1.368 . S
C1398 C1394 1.368 . S
C1398 C1397 1.523 . S
H1399 C1374 0.950 . S
H1400 C1376 0.950 . S
H1401 C1377 0.949 . S
H1402 C1379 0.950 . S
H1403 C1381 0.950 . S
C1404 C1405 1.349 . S
C1404 C1406 1.327 . S
C1404 H1429 0.950 . S
C1405 C1404 1.349 . S
C1405 C1421 1.349 . S
C1406 C1404 1.327 . S
C1406 C1425 1.429 . S
C1406 H1430 0.950 . S
C1407 C1424 1.574 . S
C1407 C1426 1.368 . S
C1407 H1431 0.949 . S
H1408 C1412 0.949 . S
C1409 C1410 1.349 . S
C1409 C1411 1.327 . S
C1409 H1432 0.950 . S
C1410 C1409 1.349 . S
C1410 C1422 1.349 . S
C1411 C1409 1.327 . S
C1411 C1427 1.429 . S
C1411 H1433 0.950 . S
C1412 H1408 0.949 . S
C1412 C1420 1.574 . S
C1412 C1428 1.368 . S
H1413 C1421 0.950 . S
H1414 C1419 0.950 . S
H1415 C1420 0.949 . S
H1416 C1422 0.950 . S
H1417 C1423 0.950 . S
H1418 C1424 0.949 . S
C1419 H1414 0.950 . S
C1419 C1421 1.327 . S
C1419 C1425 1.429 . S
C1420 C1412 1.574 . S
C1420 H1415 0.949 . S
C1420 C1426 1.368 . S
C1421 C1405 1.349 . S
C1421 H1413 0.950 . S
C1421 C1419 1.327 . S
C1422 C1410 1.349 . S
C1422 H1416 0.950 . S
C1422 C1423 1.327 . S
C1423 H1417 0.950 . S
C1423 C1422 1.327 . S
C1423 C1427 1.429 . S
C1424 C1407 1.574 . S
C1424 H1418 0.949 . S
C1424 C1428 1.368 . S
C1425 C1406 1.429 . S
C1425 C1419 1.429 . S
C1425 C1426 1.523 . S
C1426 C1407 1.368 . S
C1426 C1420 1.368 . S
C1426 C1425 1.523 . S
C1427 C1411 1.429 . S
C1427 C1423 1.429 . S
C1427 C1428 1.523 . S
C1428 C1412 1.368 . S
C1428 C1424 1.368 . S
C1428 C1427 1.523 . S
H1429 C1404 0.950 . S
H1430 C1406 0.950 . S
H1431 C1407 0.949 . S
H1432 C1409 0.950 . S
H1433 C1411 0.950 . S
C1434 C1435 1.349 . S
C1434 C1436 1.327 . S
C1434 H1459 0.950 . S
C1435 C1434 1.349 . S
C1435 C1451 1.349 . S
C1436 C1434 1.327 . S
C1436 C1455 1.429 . S
C1436 H1460 0.950 . S
C1437 C1454 1.574 . S
C1437 C1456 1.368 . S
C1437 H1461 0.949 . S
H1438 C1442 0.949 . S
C1439 C1440 1.349 . S
C1439 C1441 1.327 . S
C1439 H1462 0.950 . S
C1440 C1439 1.349 . S
C1440 C1452 1.349 . S
C1441 C1439 1.327 . S
C1441 C1457 1.429 . S
C1441 H1463 0.950 . S
C1442 H1438 0.949 . S
C1442 C1450 1.574 . S
C1442 C1458 1.368 . S
H1443 C1451 0.950 . S
H1444 C1449 0.950 . S
H1445 C1450 0.949 . S
H1446 C1452 0.950 . S
H1447 C1453 0.950 . S
H1448 C1454 0.949 . S
C1449 H1444 0.950 . S
C1449 C1451 1.327 . S
C1449 C1455 1.429 . S
C1450 C1442 1.574 . S
C1450 H1445 0.949 . S
C1450 C1456 1.368 . S
C1451 C1435 1.349 . S
C1451 H1443 0.950 . S
C1451 C1449 1.327 . S
C1452 C1440 1.349 . S
C1452 H1446 0.950 . S
C1452 C1453 1.327 . S
C1453 H1447 0.950 . S
C1453 C1452 1.327 . S
C1453 C1457 1.429 . S
C1454 C1437 1.574 . S
C1454 H1448 0.949 . S
C1454 C1458 1.368 . S
C1455 C1436 1.429 . S
C1455 C1449 1.429 . S
C1455 C1456 1.523 . S
C1456 C1437 1.368 . S
C1456 C1450 1.368 . S
C1456 C1455 1.523 . S
C1457 C1441 1.429 . S
C1457 C1453 1.429 . S
C1457 C1458 1.523 . S
C1458 C1442 1.368 . S
C1458 C1454 1.368 . S
C1458 C1457 1.523 . S
H1459 C1434 0.950 . S
H1460 C1436 0.950 . S
H1461 C1437 0.949 . S
H1462 C1439 0.950 . S
H1463 C1441 0.950 . S
C1464 C1465 1.349 . S
C1464 C1466 1.327 . S
C1464 H1489 0.950 . S
C1465 C1464 1.349 . S
C1465 C1481 1.349 . S
C1466 C1464 1.327 . S
C1466 C1485 1.429 . S
C1466 H1490 0.950 . S
C1467 C1484 1.574 . S
C1467 C1486 1.368 . S
C1467 H1491 0.949 . S
H1468 C1472 0.949 . S
C1469 C1470 1.349 . S
C1469 C1471 1.327 . S
C1469 H1492 0.950 . S
C1470 C1469 1.349 . S
C1470 C1482 1.349 . S
C1471 C1469 1.327 . S
C1471 C1487 1.429 . S
C1471 H1493 0.950 . S
C1472 H1468 0.949 . S
C1472 C1480 1.574 . S
C1472 C1488 1.368 . S
H1473 C1481 0.950 . S
H1474 C1479 0.950 . S
H1475 C1480 0.949 . S
H1476 C1482 0.950 . S
H1477 C1483 0.950 . S
H1478 C1484 0.949 . S
C1479 H1474 0.950 . S
C1479 C1481 1.327 . S
C1479 C1485 1.429 . S
C1480 C1472 1.574 . S
C1480 H1475 0.949 . S
C1480 C1486 1.368 . S
C1481 C1465 1.349 . S
C1481 H1473 0.950 . S
C1481 C1479 1.327 . S
C1482 C1470 1.349 . S
C1482 H1476 0.950 . S
C1482 C1483 1.327 . S
C1483 H1477 0.950 . S
C1483 C1482 1.327 . S
C1483 C1487 1.429 . S
C1484 C1467 1.574 . S
C1484 H1478 0.949 . S
C1484 C1488 1.368 . S
C1485 C1466 1.429 . S
C1485 C1479 1.429 . S
C1485 C1486 1.523 . S
C1486 C1467 1.368 . S
C1486 C1480 1.368 . S
C1486 C1485 1.523 . S
C1487 C1471 1.429 . S
C1487 C1483 1.429 . S
C1487 C1488 1.523 . S
C1488 C1472 1.368 . S
C1488 C1484 1.368 . S
C1488 C1487 1.523 . S
H1489 C1464 0.950 . S
H1490 C1466 0.950 . S
H1491 C1467 0.949 . S
H1492 C1469 0.950 . S
H1493 C1471 0.950 . S
C1494 C1495 1.349 . S
C1494 C1496 1.327 . S
C1494 H1519 0.950 . S
C1495 C1494 1.349 . S
C1495 C1511 1.349 . S
C1496 C1494 1.327 . S
C1496 C1515 1.429 . S
C1496 H1520 0.950 . S
C1497 C1514 1.574 . S
C1497 C1516 1.368 . S
C1497 H1521 0.949 . S
H1498 C1502 0.949 . S
C1499 C1500 1.349 . S
C1499 C1501 1.327 . S
C1499 H1522 0.950 . S
C1500 C1499 1.349 . S
C1500 C1512 1.349 . S
C1501 C1499 1.327 . S
C1501 C1517 1.429 . S
C1501 H1523 0.950 . S
C1502 H1498 0.949 . S
C1502 C1510 1.574 . S
C1502 C1518 1.368 . S
H1503 C1511 0.950 . S
H1504 C1509 0.950 . S
H1505 C1510 0.949 . S
H1506 C1512 0.950 . S
H1507 C1513 0.950 . S
H1508 C1514 0.949 . S
C1509 H1504 0.950 . S
C1509 C1511 1.327 . S
C1509 C1515 1.429 . S
C1510 C1502 1.574 . S
C1510 H1505 0.949 . S
C1510 C1516 1.368 . S
C1511 C1495 1.349 . S
C1511 H1503 0.950 . S
C1511 C1509 1.327 . S
C1512 C1500 1.349 . S
C1512 H1506 0.950 . S
C1512 C1513 1.327 . S
C1513 H1507 0.950 . S
C1513 C1512 1.327 . S
C1513 C1517 1.429 . S
C1514 C1497 1.574 . S
C1514 H1508 0.949 . S
C1514 C1518 1.368 . S
C1515 C1496 1.429 . S
C1515 C1509 1.429 . S
C1515 C1516 1.523 . S
C1516 C1497 1.368 . S
C1516 C1510 1.368 . S
C1516 C1515 1.523 . S
C1517 C1501 1.429 . S
C1517 C1513 1.429 . S
C1517 C1518 1.523 . S
C1518 C1502 1.368 . S
C1518 C1514 1.368 . S
C1518 C1517 1.523 . S
H1519 C1494 0.950 . S
H1520 C1496 0.950 . S
H1521 C1497 0.949 . S
H1522 C1499 0.950 . S
H1523 C1501 0.950 . S
C1524 C1525 1.349 . S
C1524 C1526 1.327 . S
C1524 H1549 0.950 . S
C1525 C1524 1.349 . S
C1525 C1541 1.349 . S
C1526 C1524 1.327 . S
C1526 C1545 1.429 . S
C1526 H1550 0.950 . S
C1527 C1544 1.574 . S
C1527 C1546 1.368 . S
C1527 H1551 0.949 . S
H1528 C1532 0.949 . S
C1529 C1530 1.349 . S
C1529 C1531 1.327 . S
C1529 H1552 0.950 . S
C1530 C1529 1.349 . S
C1530 C1542 1.349 . S
C1531 C1529 1.327 . S
C1531 C1547 1.429 . S
C1531 H1553 0.950 . S
C1532 H1528 0.949 . S
C1532 C1540 1.574 . S
C1532 C1548 1.368 . S
H1533 C1541 0.950 . S
H1534 C1539 0.950 . S
H1535 C1540 0.949 . S
H1536 C1542 0.950 . S
H1537 C1543 0.950 . S
H1538 C1544 0.949 . S
C1539 H1534 0.950 . S
C1539 C1541 1.327 . S
C1539 C1545 1.429 . S
C1540 C1532 1.574 . S
C1540 H1535 0.949 . S
C1540 C1546 1.368 . S
C1541 C1525 1.349 . S
C1541 H1533 0.950 . S
C1541 C1539 1.327 . S
C1542 C1530 1.349 . S
C1542 H1536 0.950 . S
C1542 C1543 1.327 . S
C1543 H1537 0.950 . S
C1543 C1542 1.327 . S
C1543 C1547 1.429 . S
C1544 C1527 1.574 . S
C1544 H1538 0.949 . S
C1544 C1548 1.368 . S
C1545 C1526 1.429 . S
C1545 C1539 1.429 . S
C1545 C1546 1.523 . S
C1546 C1527 1.368 . S
C1546 C1540 1.368 . S
C1546 C1545 1.523 . S
C1547 C1531 1.429 . S
C1547 C1543 1.429 . S
C1547 C1548 1.523 . S
C1548 C1532 1.368 . S
C1548 C1544 1.368 . S
C1548 C1547 1.523 . S
H1549 C1524 0.950 . S
H1550 C1526 0.950 . S
H1551 C1527 0.949 . S
H1552 C1529 0.950 . S
H1553 C1531 0.950 . S
C1554 C1555 1.349 . S
C1554 C1556 1.327 . S
C1554 H1579 0.950 . S
C1555 C1554 1.349 . S
C1555 C1571 1.349 . S
C1556 C1554 1.327 . S
C1556 C1575 1.429 . S
C1556 H1580 0.950 . S
C1557 C1574 1.574 . S
C1557 C1576 1.368 . S
C1557 H1581 0.949 . S
H1558 C1562 0.949 . S
C1559 C1560 1.349 . S
C1559 C1561 1.327 . S
C1559 H1582 0.950 . S
C1560 C1559 1.349 . S
C1560 C1572 1.349 . S
C1561 C1559 1.327 . S
C1561 C1577 1.429 . S
C1561 H1583 0.950 . S
C1562 H1558 0.949 . S
C1562 C1570 1.574 . S
C1562 C1578 1.368 . S
H1563 C1571 0.950 . S
H1564 C1569 0.950 . S
H1565 C1570 0.949 . S
H1566 C1572 0.950 . S
H1567 C1573 0.950 . S
H1568 C1574 0.949 . S
C1569 H1564 0.950 . S
C1569 C1571 1.327 . S
C1569 C1575 1.429 . S
C1570 C1562 1.574 . S
C1570 H1565 0.949 . S
C1570 C1576 1.368 . S
C1571 C1555 1.349 . S
C1571 H1563 0.950 . S
C1571 C1569 1.327 . S
C1572 C1560 1.349 . S
C1572 H1566 0.950 . S
C1572 C1573 1.327 . S
C1573 H1567 0.950 . S
C1573 C1572 1.327 . S
C1573 C1577 1.429 . S
C1574 C1557 1.574 . S
C1574 H1568 0.949 . S
C1574 C1578 1.368 . S
C1575 C1556 1.429 . S
C1575 C1569 1.429 . S
C1575 C1576 1.523 . S
C1576 C1557 1.368 . S
C1576 C1570 1.368 . S
C1576 C1575 1.523 . S
C1577 C1561 1.429 . S
C1577 C1573 1.429 . S
C1577 C1578 1.523 . S
C1578 C1562 1.368 . S
C1578 C1574 1.368 . S
C1578 C1577 1.523 . S
H1579 C1554 0.950 . S
H1580 C1556 0.950 . S
H1581 C1557 0.949 . S
H1582 C1559 0.950 . S
H1583 C1561 0.950 . S
C1584 C1585 1.349 . S
C1584 C1586 1.327 . S
C1584 H1609 0.950 . S
C1585 C1584 1.349 . S
C1585 C1601 1.349 . S
C1586 C1584 1.327 . S
C1586 C1605 1.429 . S
C1586 H1610 0.950 . S
C1587 C1604 1.574 . S
C1587 C1606 1.368 . S
C1587 H1611 0.949 . S
H1588 C1592 0.949 . S
C1589 C1590 1.349 . S
C1589 C1591 1.327 . S
C1589 H1612 0.950 . S
C1590 C1589 1.349 . S
C1590 C1602 1.349 . S
C1591 C1589 1.327 . S
C1591 C1607 1.429 . S
C1591 H1613 0.950 . S
C1592 H1588 0.949 . S
C1592 C1600 1.574 . S
C1592 C1608 1.368 . S
H1593 C1601 0.950 . S
H1594 C1599 0.950 . S
H1595 C1600 0.949 . S
H1596 C1602 0.950 . S
H1597 C1603 0.950 . S
H1598 C1604 0.949 . S
C1599 H1594 0.950 . S
C1599 C1601 1.327 . S
C1599 C1605 1.429 . S
C1600 C1592 1.574 . S
C1600 H1595 0.949 . S
C1600 C1606 1.368 . S
C1601 C1585 1.349 . S
C1601 H1593 0.950 . S
C1601 C1599 1.327 . S
C1602 C1590 1.349 . S
C1602 H1596 0.950 . S
C1602 C1603 1.327 . S
C1603 H1597 0.950 . S
C1603 C1602 1.327 . S
C1603 C1607 1.429 . S
C1604 C1587 1.574 . S
C1604 H1598 0.949 . S
C1604 C1608 1.368 . S
C1605 C1586 1.429 . S
C1605 C1599 1.429 . S
C1605 C1606 1.523 . S
C1606 C1587 1.368 . S
C1606 C1600 1.368 . S
C1606 C1605 1.523 . S
C1607 C1591 1.429 . S
C1607 C1603 1.429 . S
C1607 C1608 1.523 . S
C1608 C1592 1.368 . S
C1608 C1604 1.368 . S
C1608 C1607 1.523 . S
H1609 C1584 0.950 . S
H1610 C1586 0.950 . S
H1611 C1587 0.949 . S
H1612 C1589 0.950 . S
H1613 C1591 0.950 . S
C1614 C1615 1.349 . S
C1614 C1616 1.327 . S
C1614 H1639 0.950 . S
C1615 C1614 1.349 . S
C1615 C1631 1.349 . S
C1616 C1614 1.327 . S
C1616 C1635 1.429 . S
C1616 H1640 0.950 . S
C1617 C1634 1.574 . S
C1617 C1636 1.368 . S
C1617 H1641 0.949 . S
H1618 C1622 0.949 . S
C1619 C1620 1.349 . S
C1619 C1621 1.327 . S
C1619 H1642 0.950 . S
C1620 C1619 1.349 . S
C1620 C1632 1.349 . S
C1621 C1619 1.327 . S
C1621 C1637 1.429 . S
C1621 H1643 0.950 . S
C1622 H1618 0.949 . S
C1622 C1630 1.574 . S
C1622 C1638 1.368 . S
H1623 C1631 0.950 . S
H1624 C1629 0.950 . S
H1625 C1630 0.949 . S
H1626 C1632 0.950 . S
H1627 C1633 0.950 . S
H1628 C1634 0.949 . S
C1629 H1624 0.950 . S
C1629 C1631 1.327 . S
C1629 C1635 1.429 . S
C1630 C1622 1.574 . S
C1630 H1625 0.949 . S
C1630 C1636 1.368 . S
C1631 C1615 1.349 . S
C1631 H1623 0.950 . S
C1631 C1629 1.327 . S
C1632 C1620 1.349 . S
C1632 H1626 0.950 . S
C1632 C1633 1.327 . S
C1633 H1627 0.950 . S
C1633 C1632 1.327 . S
C1633 C1637 1.429 . S
C1634 C1617 1.574 . S
C1634 H1628 0.949 . S
C1634 C1638 1.368 . S
C1635 C1616 1.429 . S
C1635 C1629 1.429 . S
C1635 C1636 1.523 . S
C1636 C1617 1.368 . S
C1636 C1630 1.368 . S
C1636 C1635 1.523 . S
C1637 C1621 1.429 . S
C1637 C1633 1.429 . S
C1637 C1638 1.523 . S
C1638 C1622 1.368 . S
C1638 C1634 1.368 . S
C1638 C1637 1.523 . S
H1639 C1614 0.950 . S
H1640 C1616 0.950 . S
H1641 C1617 0.949 . S
H1642 C1619 0.950 . S
H1643 C1621 0.950 . S
C1644 C1645 1.349 . S
C1644 C1646 1.327 . S
C1644 H1669 0.950 . S
C1645 C1644 1.349 . S
C1645 C1661 1.349 . S
C1646 C1644 1.327 . S
C1646 C1665 1.429 . S
C1646 H1670 0.950 . S
C1647 C1664 1.574 . S
C1647 C1666 1.368 . S
C1647 H1671 0.949 . S
H1648 C1652 0.949 . S
C1649 C1650 1.349 . S
C1649 C1651 1.327 . S
C1649 H1672 0.950 . S
C1650 C1649 1.349 . S
C1650 C1662 1.349 . S
C1651 C1649 1.327 . S
C1651 C1667 1.429 . S
C1651 H1673 0.950 . S
C1652 H1648 0.949 . S
C1652 C1660 1.574 . S
C1652 C1668 1.368 . S
H1653 C1661 0.950 . S
H1654 C1659 0.950 . S
H1655 C1660 0.949 . S
H1656 C1662 0.950 . S
H1657 C1663 0.950 . S
H1658 C1664 0.949 . S
C1659 H1654 0.950 . S
C1659 C1661 1.327 . S
C1659 C1665 1.429 . S
C1660 C1652 1.574 . S
C1660 H1655 0.949 . S
C1660 C1666 1.368 . S
C1661 C1645 1.349 . S
C1661 H1653 0.950 . S
C1661 C1659 1.327 . S
C1662 C1650 1.349 . S
C1662 H1656 0.950 . S
C1662 C1663 1.327 . S
C1663 H1657 0.950 . S
C1663 C1662 1.327 . S
C1663 C1667 1.429 . S
C1664 C1647 1.574 . S
C1664 H1658 0.949 . S
C1664 C1668 1.368 . S
C1665 C1646 1.429 . S
C1665 C1659 1.429 . S
C1665 C1666 1.523 . S
C1666 C1647 1.368 . S
C1666 C1660 1.368 . S
C1666 C1665 1.523 . S
C1667 C1651 1.429 . S
C1667 C1663 1.429 . S
C1667 C1668 1.523 . S
C1668 C1652 1.368 . S
C1668 C1664 1.368 . S
C1668 C1667 1.523 . S
H1669 C1644 0.950 . S
H1670 C1646 0.950 . S
H1671 C1647 0.949 . S
H1672 C1649 0.950 . S
H1673 C1651 0.950 . S
C1674 C1675 1.349 . S
C1674 C1676 1.327 . S
C1674 H1699 0.950 . S
C1675 C1674 1.349 . S
C1675 C1691 1.349 . S
C1676 C1674 1.327 . S
C1676 C1695 1.429 . S
C1676 H1700 0.950 . S
C1677 C1694 1.574 . S
C1677 C1696 1.368 . S
C1677 H1701 0.949 . S
H1678 C1682 0.949 . S
C1679 C1680 1.349 . S
C1679 C1681 1.327 . S
C1679 H1702 0.950 . S
C1680 C1679 1.349 . S
C1680 C1692 1.349 . S
C1681 C1679 1.327 . S
C1681 C1697 1.429 . S
C1681 H1703 0.950 . S
C1682 H1678 0.949 . S
C1682 C1690 1.574 . S
C1682 C1698 1.368 . S
H1683 C1691 0.950 . S
H1684 C1689 0.950 . S
H1685 C1690 0.949 . S
H1686 C1692 0.950 . S
H1687 C1693 0.950 . S
H1688 C1694 0.949 . S
C1689 H1684 0.950 . S
C1689 C1691 1.327 . S
C1689 C1695 1.429 . S
C1690 C1682 1.574 . S
C1690 H1685 0.949 . S
C1690 C1696 1.368 . S
C1691 C1675 1.349 . S
C1691 H1683 0.950 . S
C1691 C1689 1.327 . S
C1692 C1680 1.349 . S
C1692 H1686 0.950 . S
C1692 C1693 1.327 . S
C1693 H1687 0.950 . S
C1693 C1692 1.327 . S
C1693 C1697 1.429 . S
C1694 C1677 1.574 . S
C1694 H1688 0.949 . S
C1694 C1698 1.368 . S
C1695 C1676 1.429 . S
C1695 C1689 1.429 . S
C1695 C1696 1.523 . S
C1696 C1677 1.368 . S
C1696 C1690 1.368 . S
C1696 C1695 1.523 . S
C1697 C1681 1.429 . S
C1697 C1693 1.429 . S
C1697 C1698 1.523 . S
C1698 C1682 1.368 . S
C1698 C1694 1.368 . S
C1698 C1697 1.523 . S
H1699 C1674 0.950 . S
H1700 C1676 0.950 . S
H1701 C1677 0.949 . S
H1702 C1679 0.950 . S
H1703 C1681 0.950 . S
C1704 C1705 1.349 . S
C1704 C1706 1.327 . S
C1704 H1729 0.950 . S
C1705 C1704 1.349 . S
C1705 C1721 1.349 . S
C1706 C1704 1.327 . S
C1706 C1725 1.429 . S
C1706 H1730 0.950 . S
C1707 C1724 1.574 . S
C1707 C1726 1.368 . S
C1707 H1731 0.949 . S
H1708 C1712 0.949 . S
C1709 C1710 1.349 . S
C1709 C1711 1.327 . S
C1709 H1732 0.950 . S
C1710 C1709 1.349 . S
C1710 C1722 1.349 . S
C1711 C1709 1.327 . S
C1711 C1727 1.429 . S
C1711 H1733 0.950 . S
C1712 H1708 0.949 . S
C1712 C1720 1.574 . S
C1712 C1728 1.368 . S
H1713 C1721 0.950 . S
H1714 C1719 0.950 . S
H1715 C1720 0.949 . S
H1716 C1722 0.950 . S
H1717 C1723 0.950 . S
H1718 C1724 0.949 . S
C1719 H1714 0.950 . S
C1719 C1721 1.327 . S
C1719 C1725 1.429 . S
C1720 C1712 1.574 . S
C1720 H1715 0.949 . S
C1720 C1726 1.368 . S
C1721 C1705 1.349 . S
C1721 H1713 0.950 . S
C1721 C1719 1.327 . S
C1722 C1710 1.349 . S
C1722 H1716 0.950 . S
C1722 C1723 1.327 . S
C1723 H1717 0.950 . S
C1723 C1722 1.327 . S
C1723 C1727 1.429 . S
C1724 C1707 1.574 . S
C1724 H1718 0.949 . S
C1724 C1728 1.368 . S
C1725 C1706 1.429 . S
C1725 C1719 1.429 . S
C1725 C1726 1.523 . S
C1726 C1707 1.368 . S
C1726 C1720 1.368 . S
C1726 C1725 1.523 . S
C1727 C1711 1.429 . S
C1727 C1723 1.429 . S
C1727 C1728 1.523 . S
C1728 C1712 1.368 . S
C1728 C1724 1.368 . S
C1728 C1727 1.523 . S
H1729 C1704 0.950 . S
H1730 C1706 0.950 . S
H1731 C1707 0.949 . S
H1732 C1709 0.950 . S
H1733 C1711 0.950 . S
C1734 C1735 1.349 . S
C1734 C1736 1.327 . S
C1734 H1759 0.950 . S
C1735 C1734 1.349 . S
C1735 C1751 1.349 . S
C1736 C1734 1.327 . S
C1736 C1755 1.429 . S
C1736 H1760 0.950 . S
C1737 C1754 1.574 . S
C1737 C1756 1.368 . S
C1737 H1761 0.949 . S
H1738 C1742 0.949 . S
C1739 C1740 1.349 . S
C1739 C1741 1.327 . S
C1739 H1762 0.950 . S
C1740 C1739 1.349 . S
C1740 C1752 1.349 . S
C1741 C1739 1.327 . S
C1741 C1757 1.429 . S
C1741 H1763 0.950 . S
C1742 H1738 0.949 . S
C1742 C1750 1.574 . S
C1742 C1758 1.368 . S
H1743 C1751 0.950 . S
H1744 C1749 0.950 . S
H1745 C1750 0.949 . S
H1746 C1752 0.950 . S
H1747 C1753 0.950 . S
H1748 C1754 0.949 . S
C1749 H1744 0.950 . S
C1749 C1751 1.327 . S
C1749 C1755 1.429 . S
C1750 C1742 1.574 . S
C1750 H1745 0.949 . S
C1750 C1756 1.368 . S
C1751 C1735 1.349 . S
C1751 H1743 0.950 . S
C1751 C1749 1.327 . S
C1752 C1740 1.349 . S
C1752 H1746 0.950 . S
C1752 C1753 1.327 . S
C1753 H1747 0.950 . S
C1753 C1752 1.327 . S
C1753 C1757 1.429 . S
C1754 C1737 1.574 . S
C1754 H1748 0.949 . S
C1754 C1758 1.368 . S
C1755 C1736 1.429 . S
C1755 C1749 1.429 . S
C1755 C1756 1.523 . S
C1756 C1737 1.368 . S
C1756 C1750 1.368 . S
C1756 C1755 1.523 . S
C1757 C1741 1.429 . S
C1757 C1753 1.429 . S
C1757 C1758 1.523 . S
C1758 C1742 1.368 . S
C1758 C1754 1.368 . S
C1758 C1757 1.523 . S
H1759 C1734 0.950 . S
H1760 C1736 0.950 . S
H1761 C1737 0.949 . S
H1762 C1739 0.950 . S
H1763 C1741 0.950 . S
C1764 C1765 1.349 . S
C1764 C1766 1.327 . S
C1764 H1789 0.950 . S
C1765 C1764 1.349 . S
C1765 C1781 1.349 . S
C1766 C1764 1.327 . S
C1766 C1785 1.429 . S
C1766 H1790 0.950 . S
C1767 C1784 1.574 . S
C1767 C1786 1.368 . S
C1767 H1791 0.949 . S
H1768 C1772 0.949 . S
C1769 C1770 1.349 . S
C1769 C1771 1.327 . S
C1769 H1792 0.950 . S
C1770 C1769 1.349 . S
C1770 C1782 1.349 . S
C1771 C1769 1.327 . S
C1771 C1787 1.429 . S
C1771 H1793 0.950 . S
C1772 H1768 0.949 . S
C1772 C1780 1.574 . S
C1772 C1788 1.368 . S
H1773 C1781 0.950 . S
H1774 C1779 0.950 . S
H1775 C1780 0.949 . S
H1776 C1782 0.950 . S
H1777 C1783 0.950 . S
H1778 C1784 0.949 . S
C1779 H1774 0.950 . S
C1779 C1781 1.327 . S
C1779 C1785 1.429 . S
C1780 C1772 1.574 . S
C1780 H1775 0.949 . S
C1780 C1786 1.368 . S
C1781 C1765 1.349 . S
C1781 H1773 0.950 . S
C1781 C1779 1.327 . S
C1782 C1770 1.349 . S
C1782 H1776 0.950 . S
C1782 C1783 1.327 . S
C1783 H1777 0.950 . S
C1783 C1782 1.327 . S
C1783 C1787 1.429 . S
C1784 C1767 1.574 . S
C1784 H1778 0.949 . S
C1784 C1788 1.368 . S
C1785 C1766 1.429 . S
C1785 C1779 1.429 . S
C1785 C1786 1.523 . S
C1786 C1767 1.368 . S
C1786 C1780 1.368 . S
C1786 C1785 1.523 . S
C1787 C1771 1.429 . S
C1787 C1783 1.429 . S
C1787 C1788 1.523 . S
C1788 C1772 1.368 . S
C1788 C1784 1.368 . S
C1788 C1787 1.523 . S
H1789 C1764 0.950 . S
H1790 C1766 0.950 . S
H1791 C1767 0.949 . S
H1792 C1769 0.950 . S
H1793 C1771 0.950 . S
C1794 C1795 1.349 . S
C1794 C1796 1.327 . S
C1794 H1819 0.950 . S
C1795 C1794 1.349 . S
C1795 C1811 1.349 . S
C1796 C1794 1.327 . S
C1796 C1815 1.429 . S
C1796 H1820 0.950 . S
C1797 C1814 1.574 . S
C1797 C1816 1.368 . S
C1797 H1821 0.949 . S
H1798 C1802 0.949 . S
C1799 C1800 1.349 . S
C1799 C1801 1.327 . S
C1799 H1822 0.950 . S
C1800 C1799 1.349 . S
C1800 C1812 1.349 . S
C1801 C1799 1.327 . S
C1801 C1817 1.429 . S
C1801 H1823 0.950 . S
C1802 H1798 0.949 . S
C1802 C1810 1.574 . S
C1802 C1818 1.368 . S
H1803 C1811 0.950 . S
H1804 C1809 0.950 . S
H1805 C1810 0.949 . S
H1806 C1812 0.950 . S
H1807 C1813 0.950 . S
H1808 C1814 0.949 . S
C1809 H1804 0.950 . S
C1809 C1811 1.327 . S
C1809 C1815 1.429 . S
C1810 C1802 1.574 . S
C1810 H1805 0.949 . S
C1810 C1816 1.368 . S
C1811 C1795 1.349 . S
C1811 H1803 0.950 . S
C1811 C1809 1.327 . S
C1812 C1800 1.349 . S
C1812 H1806 0.950 . S
C1812 C1813 1.327 . S
C1813 H1807 0.950 . S
C1813 C1812 1.327 . S
C1813 C1817 1.429 . S
C1814 C1797 1.574 . S
C1814 H1808 0.949 . S
C1814 C1818 1.368 . S
C1815 C1796 1.429 . S
C1815 C1809 1.429 . S
C1815 C1816 1.523 . S
C1816 C1797 1.368 . S
C1816 C1810 1.368 . S
C1816 C1815 1.523 . S
C1817 C1801 1.429 . S
C1817 C1813 1.429 . S
C1817 C1818 1.523 . S
C1818 C1802 1.368 . S
C1818 C1814 1.368 . S
C1818 C1817 1.523 . S
H1819 C1794 0.950 . S
H1820 C1796 0.950 . S
H1821 C1797 0.949 . S
H1822 C1799 0.950 . S
H1823 C1801 0.950 . S
C1824 C1825 1.349 . S
C1824 C1826 1.327 . S
C1824 H1849 0.950 . S
C1825 C1824 1.349 . S
C1825 C1841 1.349 . S
C1826 C1824 1.327 . S
C1826 C1845 1.429 . S
C1826 H1850 0.950 . S
C1827 C1844 1.574 . S
C1827 C1846 1.368 . S
C1827 H1851 0.949 . S
H1828 C1832 0.949 . S
C1829 C1830 1.349 . S
C1829 C1831 1.327 . S
C1829 H1852 0.950 . S
C1830 C1829 1.349 . S
C1830 C1842 1.349 . S
C1831 C1829 1.327 . S
C1831 C1847 1.429 . S
C1831 H1853 0.950 . S
C1832 H1828 0.949 . S
C1832 C1840 1.574 . S
C1832 C1848 1.368 . S
H1833 C1841 0.950 . S
H1834 C1839 0.950 . S
H1835 C1840 0.949 . S
H1836 C1842 0.950 . S
H1837 C1843 0.950 . S
H1838 C1844 0.949 . S
C1839 H1834 0.950 . S
C1839 C1841 1.327 . S
C1839 C1845 1.429 . S
C1840 C1832 1.574 . S
C1840 H1835 0.949 . S
C1840 C1846 1.368 . S
C1841 C1825 1.349 . S
C1841 H1833 0.950 . S
C1841 C1839 1.327 . S
C1842 C1830 1.349 . S
C1842 H1836 0.950 . S
C1842 C1843 1.327 . S
C1843 H1837 0.950 . S
C1843 C1842 1.327 . S
C1843 C1847 1.429 . S
C1844 C1827 1.574 . S
C1844 H1838 0.949 . S
C1844 C1848 1.368 . S
C1845 C1826 1.429 . S
C1845 C1839 1.429 . S
C1845 C1846 1.523 . S
C1846 C1827 1.368 . S
C1846 C1840 1.368 . S
C1846 C1845 1.523 . S
C1847 C1831 1.429 . S
C1847 C1843 1.429 . S
C1847 C1848 1.523 . S
C1848 C1832 1.368 . S
C1848 C1844 1.368 . S
C1848 C1847 1.523 . S
H1849 C1824 0.950 . S
H1850 C1826 0.950 . S
H1851 C1827 0.949 . S
H1852 C1829 0.950 . S
H1853 C1831 0.950 . S
C1854 C1855 1.349 . S
C1854 C1856 1.327 . S
C1854 H1879 0.950 . S
C1855 C1854 1.349 . S
C1855 C1871 1.349 . S
C1856 C1854 1.327 . S
C1856 C1875 1.429 . S
C1856 H1880 0.950 . S
C1857 C1874 1.574 . S
C1857 C1876 1.368 . S
C1857 H1881 0.949 . S
H1858 C1862 0.949 . S
C1859 C1860 1.349 . S
C1859 C1861 1.327 . S
C1859 H1882 0.950 . S
C1860 C1859 1.349 . S
C1860 C1872 1.349 . S
C1861 C1859 1.327 . S
C1861 C1877 1.429 . S
C1861 H1883 0.950 . S
C1862 H1858 0.949 . S
C1862 C1870 1.574 . S
C1862 C1878 1.368 . S
H1863 C1871 0.950 . S
H1864 C1869 0.950 . S
H1865 C1870 0.949 . S
H1866 C1872 0.950 . S
H1867 C1873 0.950 . S
H1868 C1874 0.949 . S
C1869 H1864 0.950 . S
C1869 C1871 1.327 . S
C1869 C1875 1.429 . S
C1870 C1862 1.574 . S
C1870 H1865 0.949 . S
C1870 C1876 1.368 . S
C1871 C1855 1.349 . S
C1871 H1863 0.950 . S
C1871 C1869 1.327 . S
C1872 C1860 1.349 . S
C1872 H1866 0.950 . S
C1872 C1873 1.327 . S
C1873 H1867 0.950 . S
C1873 C1872 1.327 . S
C1873 C1877 1.429 . S
C1874 C1857 1.574 . S
C1874 H1868 0.949 . S
C1874 C1878 1.368 . S
C1875 C1856 1.429 . S
C1875 C1869 1.429 . S
C1875 C1876 1.523 . S
C1876 C1857 1.368 . S
C1876 C1870 1.368 . S
C1876 C1875 1.523 . S
C1877 C1861 1.429 . S
C1877 C1873 1.429 . S
C1877 C1878 1.523 . S
C1878 C1862 1.368 . S
C1878 C1874 1.368 . S
C1878 C1877 1.523 . S
H1879 C1854 0.950 . S
H1880 C1856 0.950 . S
H1881 C1857 0.949 . S
H1882 C1859 0.950 . S
H1883 C1861 0.950 . S
C1884 C1885 1.349 . S
C1884 C1886 1.327 . S
C1884 H1909 0.950 . S
C1885 C1884 1.349 . S
C1885 C1901 1.349 . S
C1886 C1884 1.327 . S
C1886 C1905 1.429 . S
C1886 H1910 0.950 . S
C1887 C1904 1.574 . S
C1887 C1906 1.368 . S
C1887 H1911 0.949 . S
H1888 C1892 0.949 . S
C1889 C1890 1.349 . S
C1889 C1891 1.327 . S
C1889 H1912 0.950 . S
C1890 C1889 1.349 . S
C1890 C1902 1.349 . S
C1891 C1889 1.327 . S
C1891 C1907 1.429 . S
C1891 H1913 0.950 . S
C1892 H1888 0.949 . S
C1892 C1900 1.574 . S
C1892 C1908 1.368 . S
H1893 C1901 0.950 . S
H1894 C1899 0.950 . S
H1895 C1900 0.949 . S
H1896 C1902 0.950 . S
H1897 C1903 0.950 . S
H1898 C1904 0.949 . S
C1899 H1894 0.950 . S
C1899 C1901 1.327 . S
C1899 C1905 1.429 . S
C1900 C1892 1.574 . S
C1900 H1895 0.949 . S
C1900 C1906 1.368 . S
C1901 C1885 1.349 . S
C1901 H1893 0.950 . S
C1901 C1899 1.327 . S
C1902 C1890 1.349 . S
C1902 H1896 0.950 . S
C1902 C1903 1.327 . S
C1903 H1897 0.950 . S
C1903 C1902 1.327 . S
C1903 C1907 1.429 . S
C1904 C1887 1.574 . S
C1904 H1898 0.949 . S
C1904 C1908 1.368 . S
C1905 C1886 1.429 . S
C1905 C1899 1.429 . S
C1905 C1906 1.523 . S
C1906 C1887 1.368 . S
C1906 C1900 1.368 . S
C1906 C1905 1.523 . S
C1907 C1891 1.429 . S
C1907 C1903 1.429 . S
C1907 C1908 1.523 . S
C1908 C1892 1.368 . S
C1908 C1904 1.368 . S
C1908 C1907 1.523 . S
H1909 C1884 0.950 . S
H1910 C1886 0.950 . S
H1911 C1887 0.949 . S
H1912 C1889 0.950 . S
H1913 C1891 0.950 . S
C1914 C1915 1.349 . S
C1914 C1916 1.327 . S
C1914 H1939 0.950 . S
C1915 C1914 1.349 . S
C1915 C1931 1.349 . S
C1916 C1914 1.327 . S
C1916 C1935 1.429 . S
C1916 H1940 0.950 . S
C1917 C1934 1.574 . S
C1917 C1936 1.368 . S
C1917 H1941 0.949 . S
H1918 C1922 0.949 . S
C1919 C1920 1.349 . S
C1919 C1921 1.327 . S
C1919 H1942 0.950 . S
C1920 C1919 1.349 . S
C1920 C1932 1.349 . S
C1921 C1919 1.327 . S
C1921 C1937 1.429 . S
C1921 H1943 0.950 . S
C1922 H1918 0.949 . S
C1922 C1930 1.574 . S
C1922 C1938 1.368 . S
H1923 C1931 0.950 . S
H1924 C1929 0.950 . S
H1925 C1930 0.949 . S
H1926 C1932 0.950 . S
H1927 C1933 0.950 . S
H1928 C1934 0.949 . S
C1929 H1924 0.950 . S
C1929 C1931 1.327 . S
C1929 C1935 1.429 . S
C1930 C1922 1.574 . S
C1930 H1925 0.949 . S
C1930 C1936 1.368 . S
C1931 C1915 1.349 . S
C1931 H1923 0.950 . S
C1931 C1929 1.327 . S
C1932 C1920 1.349 . S
C1932 H1926 0.950 . S
C1932 C1933 1.327 . S
C1933 H1927 0.950 . S
C1933 C1932 1.327 . S
C1933 C1937 1.429 . S
C1934 C1917 1.574 . S
C1934 H1928 0.949 . S
C1934 C1938 1.368 . S
C1935 C1916 1.429 . S
C1935 C1929 1.429 . S
C1935 C1936 1.523 . S
C1936 C1917 1.368 . S
C1936 C1930 1.368 . S
C1936 C1935 1.523 . S
C1937 C1921 1.429 . S
C1937 C1933 1.429 . S
C1937 C1938 1.523 . S
C1938 C1922 1.368 . S
C1938 C1934 1.368 . S
C1938 C1937 1.523 . S
H1939 C1914 0.950 . S
H1940 C1916 0.950 . S
H1941 C1917 0.949 . S
H1942 C1919 0.950 . S
H1943 C1921 0.950 . S
C1944 C1945 1.349 . S
C1944 C1946 1.327 . S
C1944 H1969 0.950 . S
C1945 C1944 1.349 . S
C1945 C1961 1.349 . S
C1946 C1944 1.327 . S
C1946 C1965 1.429 . S
C1946 H1970 0.950 . S
C1947 C1964 1.574 . S
C1947 C1966 1.368 . S
C1947 H1971 0.949 . S
H1948 C1952 0.949 . S
C1949 C1950 1.349 . S
C1949 C1951 1.327 . S
C1949 H1972 0.950 . S
C1950 C1949 1.349 . S
C1950 C1962 1.349 . S
C1951 C1949 1.327 . S
C1951 C1967 1.429 . S
C1951 H1973 0.950 . S
C1952 H1948 0.949 . S
C1952 C1960 1.574 . S
C1952 C1968 1.368 . S
H1953 C1961 0.950 . S
H1954 C1959 0.950 . S
H1955 C1960 0.949 . S
H1956 C1962 0.950 . S
H1957 C1963 0.950 . S
H1958 C1964 0.949 . S
C1959 H1954 0.950 . S
C1959 C1961 1.327 . S
C1959 C1965 1.429 . S
C1960 C1952 1.574 . S
C1960 H1955 0.949 . S
C1960 C1966 1.368 . S
C1961 C1945 1.349 . S
C1961 H1953 0.950 . S
C1961 C1959 1.327 . S
C1962 C1950 1.349 . S
C1962 H1956 0.950 . S
C1962 C1963 1.327 . S
C1963 H1957 0.950 . S
C1963 C1962 1.327 . S
C1963 C1967 1.429 . S
C1964 C1947 1.574 . S
C1964 H1958 0.949 . S
C1964 C1968 1.368 . S
C1965 C1946 1.429 . S
C1965 C1959 1.429 . S
C1965 C1966 1.523 . S
C1966 C1947 1.368 . S
C1966 C1960 1.368 . S
C1966 C1965 1.523 . S
C1967 C1951 1.429 . S
C1967 C1963 1.429 . S
C1967 C1968 1.523 . S
C1968 C1952 1.368 . S
C1968 C1964 1.368 . S
C1968 C1967 1.523 . S
H1969 C1944 0.950 . S
H1970 C1946 0.950 . S
H1971 C1947 0.949 . S
H1972 C1949 0.950 . S
H1973 C1951 0.950 . S
C1974 C1975 1.349 . S
C1974 C1976 1.327 . S
C1974 H1999 0.950 . S
C1975 C1974 1.349 . S
C1975 C1991 1.349 . S
C1976 C1974 1.327 . S
C1976 C1995 1.429 . S
C1976 H2000 0.950 . S
C1977 C1994 1.574 . S
C1977 C1996 1.368 . S
C1977 H2001 0.949 . S
H1978 C1982 0.949 . S
C1979 C1980 1.349 . S
C1979 C1981 1.327 . S
C1979 H2002 0.950 . S
C1980 C1979 1.349 . S
C1980 C1992 1.349 . S
C1981 C1979 1.327 . S
C1981 C1997 1.429 . S
C1981 H2003 0.950 . S
C1982 H1978 0.949 . S
C1982 C1990 1.574 . S
C1982 C1998 1.368 . S
H1983 C1991 0.950 . S
H1984 C1989 0.950 . S
H1985 C1990 0.949 . S
H1986 C1992 0.950 . S
H1987 C1993 0.950 . S
H1988 C1994 0.949 . S
C1989 H1984 0.950 . S
C1989 C1991 1.327 . S
C1989 C1995 1.429 . S
C1990 C1982 1.574 . S
C1990 H1985 0.949 . S
C1990 C1996 1.368 . S
C1991 C1975 1.349 . S
C1991 H1983 0.950 . S
C1991 C1989 1.327 . S
C1992 C1980 1.349 . S
C1992 H1986 0.950 . S
C1992 C1993 1.327 . S
C1993 H1987 0.950 . S
C1993 C1992 1.327 . S
C1993 C1997 1.429 . S
C1994 C1977 1.574 . S
C1994 H1988 0.949 . S
C1994 C1998 1.368 . S
C1995 C1976 1.429 . S
C1995 C1989 1.429 . S
C1995 C1996 1.523 . S
C1996 C1977 1.368 . S
C1996 C1990 1.368 . S
C1996 C1995 1.523 . S
C1997 C1981 1.429 . S
C1997 C1993 1.429 . S
C1997 C1998 1.523 . S
C1998 C1982 1.368 . S
C1998 C1994 1.368 . S
C1998 C1997 1.523 . S
H1999 C1974 0.950 . S
H2000 C1976 0.950 . S
H2001 C1977 0.949 . S
H2002 C1979 0.950 . S
H2003 C1981 0.950 . S
C2004 C2005 1.349 . S
C2004 C2006 1.327 . S
C2004 H2029 0.950 . S
C2005 C2004 1.349 . S
C2005 C2021 1.349 . S
C2006 C2004 1.327 . S
C2006 C2025 1.429 . S
C2006 H2030 0.950 . S
C2007 C2024 1.574 . S
C2007 C2026 1.368 . S
C2007 H2031 0.949 . S
H2008 C2012 0.949 . S
C2009 C2010 1.349 . S
C2009 C2011 1.327 . S
C2009 H2032 0.950 . S
C2010 C2009 1.349 . S
C2010 C2022 1.349 . S
C2011 C2009 1.327 . S
C2011 C2027 1.429 . S
C2011 H2033 0.950 . S
C2012 H2008 0.949 . S
C2012 C2020 1.574 . S
C2012 C2028 1.368 . S
H2013 C2021 0.950 . S
H2014 C2019 0.950 . S
H2015 C2020 0.949 . S
H2016 C2022 0.950 . S
H2017 C2023 0.950 . S
H2018 C2024 0.949 . S
C2019 H2014 0.950 . S
C2019 C2021 1.327 . S
C2019 C2025 1.429 . S
C2020 C2012 1.574 . S
C2020 H2015 0.949 . S
C2020 C2026 1.368 . S
C2021 C2005 1.349 . S
C2021 H2013 0.950 . S
C2021 C2019 1.327 . S
C2022 C2010 1.349 . S
C2022 H2016 0.950 . S
C2022 C2023 1.327 . S
C2023 H2017 0.950 . S
C2023 C2022 1.327 . S
C2023 C2027 1.429 . S
C2024 C2007 1.574 . S
C2024 H2018 0.949 . S
C2024 C2028 1.368 . S
C2025 C2006 1.429 . S
C2025 C2019 1.429 . S
C2025 C2026 1.523 . S
C2026 C2007 1.368 . S
C2026 C2020 1.368 . S
C2026 C2025 1.523 . S
C2027 C2011 1.429 . S
C2027 C2023 1.429 . S
C2027 C2028 1.523 . S
C2028 C2012 1.368 . S
C2028 C2024 1.368 . S
C2028 C2027 1.523 . S
H2029 C2004 0.950 . S
H2030 C2006 0.950 . S
H2031 C2007 0.949 . S
H2032 C2009 0.950 . S
H2033 C2011 0.950 . S
C2034 C2035 1.349 . S
C2034 C2036 1.327 . S
C2034 H2059 0.950 . S
C2035 C2034 1.349 . S
C2035 C2051 1.349 . S
C2036 C2034 1.327 . S
C2036 C2055 1.429 . S
C2036 H2060 0.950 . S
C2037 C2054 1.574 . S
C2037 C2056 1.368 . S
C2037 H2061 0.949 . S
H2038 C2042 0.949 . S
C2039 C2040 1.349 . S
C2039 C2041 1.327 . S
C2039 H2062 0.950 . S
C2040 C2039 1.349 . S
C2040 C2052 1.349 . S
C2041 C2039 1.327 . S
C2041 C2057 1.429 . S
C2041 H2063 0.950 . S
C2042 H2038 0.949 . S
C2042 C2050 1.574 . S
C2042 C2058 1.368 . S
H2043 C2051 0.950 . S
H2044 C2049 0.950 . S
H2045 C2050 0.949 . S
H2046 C2052 0.950 . S
H2047 C2053 0.950 . S
H2048 C2054 0.949 . S
C2049 H2044 0.950 . S
C2049 C2051 1.327 . S
C2049 C2055 1.429 . S
C2050 C2042 1.574 . S
C2050 H2045 0.949 . S
C2050 C2056 1.368 . S
C2051 C2035 1.349 . S
C2051 H2043 0.950 . S
C2051 C2049 1.327 . S
C2052 C2040 1.349 . S
C2052 H2046 0.950 . S
C2052 C2053 1.327 . S
C2053 H2047 0.950 . S
C2053 C2052 1.327 . S
C2053 C2057 1.429 . S
C2054 C2037 1.574 . S
C2054 H2048 0.949 . S
C2054 C2058 1.368 . S
C2055 C2036 1.429 . S
C2055 C2049 1.429 . S
C2055 C2056 1.523 . S
C2056 C2037 1.368 . S
C2056 C2050 1.368 . S
C2056 C2055 1.523 . S
C2057 C2041 1.429 . S
C2057 C2053 1.429 . S
C2057 C2058 1.523 . S
C2058 C2042 1.368 . S
C2058 C2054 1.368 . S
C2058 C2057 1.523 . S
H2059 C2034 0.950 . S
H2060 C2036 0.950 . S
H2061 C2037 0.949 . S
H2062 C2039 0.950 . S
H2063 C2041 0.950 . S
C2064 C2065 1.349 . S
C2064 C2066 1.327 . S
C2064 H2089 0.950 . S
C2065 C2064 1.349 . S
C2065 C2081 1.349 . S
C2066 C2064 1.327 . S
C2066 C2085 1.429 . S
C2066 H2090 0.950 . S
C2067 C2084 1.574 . S
C2067 C2086 1.368 . S
C2067 H2091 0.949 . S
H2068 C2072 0.949 . S
C2069 C2070 1.349 . S
C2069 C2071 1.327 . S
C2069 H2092 0.950 . S
C2070 C2069 1.349 . S
C2070 C2082 1.349 . S
C2071 C2069 1.327 . S
C2071 C2087 1.429 . S
C2071 H2093 0.950 . S
C2072 H2068 0.949 . S
C2072 C2080 1.574 . S
C2072 C2088 1.368 . S
H2073 C2081 0.950 . S
H2074 C2079 0.950 . S
H2075 C2080 0.949 . S
H2076 C2082 0.950 . S
H2077 C2083 0.950 . S
H2078 C2084 0.949 . S
C2079 H2074 0.950 . S
C2079 C2081 1.327 . S
C2079 C2085 1.429 . S
C2080 C2072 1.574 . S
C2080 H2075 0.949 . S
C2080 C2086 1.368 . S
C2081 C2065 1.349 . S
C2081 H2073 0.950 . S
C2081 C2079 1.327 . S
C2082 C2070 1.349 . S
C2082 H2076 0.950 . S
C2082 C2083 1.327 . S
C2083 H2077 0.950 . S
C2083 C2082 1.327 . S
C2083 C2087 1.429 . S
C2084 C2067 1.574 . S
C2084 H2078 0.949 . S
C2084 C2088 1.368 . S
C2085 C2066 1.429 . S
C2085 C2079 1.429 . S
C2085 C2086 1.523 . S
C2086 C2067 1.368 . S
C2086 C2080 1.368 . S
C2086 C2085 1.523 . S
C2087 C2071 1.429 . S
C2087 C2083 1.429 . S
C2087 C2088 1.523 . S
C2088 C2072 1.368 . S
C2088 C2084 1.368 . S
C2088 C2087 1.523 . S
H2089 C2064 0.950 . S
H2090 C2066 0.950 . S
H2091 C2067 0.949 . S
H2092 C2069 0.950 . S
H2093 C2071 0.950 . S
C2094 C2095 1.349 . S
C2094 C2096 1.327 . S
C2094 H2119 0.950 . S
C2095 C2094 1.349 . S
C2095 C2111 1.349 . S
C2096 C2094 1.327 . S
C2096 C2115 1.429 . S
C2096 H2120 0.950 . S
C2097 C2114 1.574 . S
C2097 C2116 1.368 . S
C2097 H2121 0.949 . S
H2098 C2102 0.949 . S
C2099 C2100 1.349 . S
C2099 C2101 1.327 . S
C2099 H2122 0.950 . S
C2100 C2099 1.349 . S
C2100 C2112 1.349 . S
C2101 C2099 1.327 . S
C2101 C2117 1.429 . S
C2101 H2123 0.950 . S
C2102 H2098 0.949 . S
C2102 C2110 1.574 . S
C2102 C2118 1.368 . S
H2103 C2111 0.950 . S
H2104 C2109 0.950 . S
H2105 C2110 0.949 . S
H2106 C2112 0.950 . S
H2107 C2113 0.950 . S
H2108 C2114 0.949 . S
C2109 H2104 0.950 . S
C2109 C2111 1.327 . S
C2109 C2115 1.429 . S
C2110 C2102 1.574 . S
C2110 H2105 0.949 . S
C2110 C2116 1.368 . S
C2111 C2095 1.349 . S
C2111 H2103 0.950 . S
C2111 C2109 1.327 . S
C2112 C2100 1.349 . S
C2112 H2106 0.950 . S
C2112 C2113 1.327 . S
C2113 H2107 0.950 . S
C2113 C2112 1.327 . S
C2113 C2117 1.429 . S
C2114 C2097 1.574 . S
C2114 H2108 0.949 . S
C2114 C2118 1.368 . S
C2115 C2096 1.429 . S
C2115 C2109 1.429 . S
C2115 C2116 1.523 . S
C2116 C2097 1.368 . S
C2116 C2110 1.368 . S
C2116 C2115 1.523 . S
C2117 C2101 1.429 . S
C2117 C2113 1.429 . S
C2117 C2118 1.523 . S
C2118 C2102 1.368 . S
C2118 C2114 1.368 . S
C2118 C2117 1.523 . S
H2119 C2094 0.950 . S
H2120 C2096 0.950 . S
H2121 C2097 0.949 . S
H2122 C2099 0.950 . S
H2123 C2101 0.950 . S
C2124 C2125 1.349 . S
C2124 C2126 1.327 . S
C2124 H2149 0.950 . S
C2125 C2124 1.349 . S
C2125 C2141 1.349 . S
C2126 C2124 1.327 . S
C2126 C2145 1.429 . S
C2126 H2150 0.950 . S
C2127 C2144 1.574 . S
C2127 C2146 1.368 . S
C2127 H2151 0.949 . S
H2128 C2132 0.949 . S
C2129 C2130 1.349 . S
C2129 C2131 1.327 . S
C2129 H2152 0.950 . S
C2130 C2129 1.349 . S
C2130 C2142 1.349 . S
C2131 C2129 1.327 . S
C2131 C2147 1.429 . S
C2131 H2153 0.950 . S
C2132 H2128 0.949 . S
C2132 C2140 1.574 . S
C2132 C2148 1.368 . S
H2133 C2141 0.950 . S
H2134 C2139 0.950 . S
H2135 C2140 0.949 . S
H2136 C2142 0.950 . S
H2137 C2143 0.950 . S
H2138 C2144 0.949 . S
C2139 H2134 0.950 . S
C2139 C2141 1.327 . S
C2139 C2145 1.429 . S
C2140 C2132 1.574 . S
C2140 H2135 0.949 . S
C2140 C2146 1.368 . S
C2141 C2125 1.349 . S
C2141 H2133 0.950 . S
C2141 C2139 1.327 . S
C2142 C2130 1.349 . S
C2142 H2136 0.950 . S
C2142 C2143 1.327 . S
C2143 H2137 0.950 . S
C2143 C2142 1.327 . S
C2143 C2147 1.429 . S
C2144 C2127 1.574 . S
C2144 H2138 0.949 . S
C2144 C2148 1.368 . S
C2145 C2126 1.429 . S
C2145 C2139 1.429 . S
C2145 C2146 1.523 . S
C2146 C2127 1.368 . S
C2146 C2140 1.368 . S
C2146 C2145 1.523 . S
C2147 C2131 1.429 . S
C2147 C2143 1.429 . S
C2147 C2148 1.523 . S
C2148 C2132 1.368 . S
C2148 C2144 1.368 . S
C2148 C2147 1.523 . S
H2149 C2124 0.950 . S
H2150 C2126 0.950 . S
H2151 C2127 0.949 . S
H2152 C2129 0.950 . S
H2153 C2131 0.950 . S
C2154 C2155 1.349 . S
C2154 C2156 1.327 . S
C2154 H2179 0.950 . S
C2155 C2154 1.349 . S
C2155 C2171 1.349 . S
C2156 C2154 1.327 . S
C2156 C2175 1.429 . S
C2156 H2180 0.950 . S
C2157 C2174 1.574 . S
C2157 C2176 1.368 . S
C2157 H2181 0.949 . S
H2158 C2162 0.949 . S
C2159 C2160 1.349 . S
C2159 C2161 1.327 . S
C2159 H2182 0.950 . S
C2160 C2159 1.349 . S
C2160 C2172 1.349 . S
C2161 C2159 1.327 . S
C2161 C2177 1.429 . S
C2161 H2183 0.950 . S
C2162 H2158 0.949 . S
C2162 C2170 1.574 . S
C2162 C2178 1.368 . S
H2163 C2171 0.950 . S
H2164 C2169 0.950 . S
H2165 C2170 0.949 . S
H2166 C2172 0.950 . S
H2167 C2173 0.950 . S
H2168 C2174 0.949 . S
C2169 H2164 0.950 . S
C2169 C2171 1.327 . S
C2169 C2175 1.429 . S
C2170 C2162 1.574 . S
C2170 H2165 0.949 . S
C2170 C2176 1.368 . S
C2171 C2155 1.349 . S
C2171 H2163 0.950 . S
C2171 C2169 1.327 . S
C2172 C2160 1.349 . S
C2172 H2166 0.950 . S
C2172 C2173 1.327 . S
C2173 H2167 0.950 . S
C2173 C2172 1.327 . S
C2173 C2177 1.429 . S
C2174 C2157 1.574 . S
C2174 H2168 0.949 . S
C2174 C2178 1.368 . S
C2175 C2156 1.429 . S
C2175 C2169 1.429 . S
C2175 C2176 1.523 . S
C2176 C2157 1.368 . S
C2176 C2170 1.368 . S
C2176 C2175 1.523 . S
C2177 C2161 1.429 . S
C2177 C2173 1.429 . S
C2177 C2178 1.523 . S
C2178 C2162 1.368 . S
C2178 C2174 1.368 . S
C2178 C2177 1.523 . S
H2179 C2154 0.950 . S
H2180 C2156 0.950 . S
H2181 C2157 0.949 . S
H2182 C2159 0.950 . S
H2183 C2161 0.950 . S
C2184 C2185 1.349 . S
C2184 C2186 1.327 . S
C2184 H2209 0.950 . S
C2185 C2184 1.349 . S
C2185 C2201 1.349 . S
C2186 C2184 1.327 . S
C2186 C2205 1.429 . S
C2186 H2210 0.950 . S
C2187 C2204 1.574 . S
C2187 C2206 1.368 . S
C2187 H2211 0.949 . S
H2188 C2192 0.949 . S
C2189 C2190 1.349 . S
C2189 C2191 1.327 . S
C2189 H2212 0.950 . S
C2190 C2189 1.349 . S
C2190 C2202 1.349 . S
C2191 C2189 1.327 . S
C2191 C2207 1.429 . S
C2191 H2213 0.950 . S
C2192 H2188 0.949 . S
C2192 C2200 1.574 . S
C2192 C2208 1.368 . S
H2193 C2201 0.950 . S
H2194 C2199 0.950 . S
H2195 C2200 0.949 . S
H2196 C2202 0.950 . S
H2197 C2203 0.950 . S
H2198 C2204 0.949 . S
C2199 H2194 0.950 . S
C2199 C2201 1.327 . S
C2199 C2205 1.429 . S
C2200 C2192 1.574 . S
C2200 H2195 0.949 . S
C2200 C2206 1.368 . S
C2201 C2185 1.349 . S
C2201 H2193 0.950 . S
C2201 C2199 1.327 . S
C2202 C2190 1.349 . S
C2202 H2196 0.950 . S
C2202 C2203 1.327 . S
C2203 H2197 0.950 . S
C2203 C2202 1.327 . S
C2203 C2207 1.429 . S
C2204 C2187 1.574 . S
C2204 H2198 0.949 . S
C2204 C2208 1.368 . S
C2205 C2186 1.429 . S
C2205 C2199 1.429 . S
C2205 C2206 1.523 . S
C2206 C2187 1.368 . S
C2206 C2200 1.368 . S
C2206 C2205 1.523 . S
C2207 C2191 1.429 . S
C2207 C2203 1.429 . S
C2207 C2208 1.523 . S
C2208 C2192 1.368 . S
C2208 C2204 1.368 . S
C2208 C2207 1.523 . S
H2209 C2184 0.950 . S
H2210 C2186 0.950 . S
H2211 C2187 0.949 . S
H2212 C2189 0.950 . S
H2213 C2191 0.950 . S
C2214 C2215 1.349 . S
C2214 C2216 1.327 . S
C2214 H2239 0.950 . S
C2215 C2214 1.349 . S
C2215 C2231 1.349 . S
C2216 C2214 1.327 . S
C2216 C2235 1.429 . S
C2216 H2240 0.950 . S
C2217 C2234 1.574 . S
C2217 C2236 1.368 . S
C2217 H2241 0.949 . S
H2218 C2222 0.949 . S
C2219 C2220 1.349 . S
C2219 C2221 1.327 . S
C2219 H2242 0.950 . S
C2220 C2219 1.349 . S
C2220 C2232 1.349 . S
C2221 C2219 1.327 . S
C2221 C2237 1.429 . S
C2221 H2243 0.950 . S
C2222 H2218 0.949 . S
C2222 C2230 1.574 . S
C2222 C2238 1.368 . S
H2223 C2231 0.950 . S
H2224 C2229 0.950 . S
H2225 C2230 0.949 . S
H2226 C2232 0.950 . S
H2227 C2233 0.950 . S
H2228 C2234 0.949 . S
C2229 H2224 0.950 . S
C2229 C2231 1.327 . S
C2229 C2235 1.429 . S
C2230 C2222 1.574 . S
C2230 H2225 0.949 . S
C2230 C2236 1.368 . S
C2231 C2215 1.349 . S
C2231 H2223 0.950 . S
C2231 C2229 1.327 . S
C2232 C2220 1.349 . S
C2232 H2226 0.950 . S
C2232 C2233 1.327 . S
C2233 H2227 0.950 . S
C2233 C2232 1.327 . S
C2233 C2237 1.429 . S
C2234 C2217 1.574 . S
C2234 H2228 0.949 . S
C2234 C2238 1.368 . S
C2235 C2216 1.429 . S
C2235 C2229 1.429 . S
C2235 C2236 1.523 . S
C2236 C2217 1.368 . S
C2236 C2230 1.368 . S
C2236 C2235 1.523 . S
C2237 C2221 1.429 . S
C2237 C2233 1.429 . S
C2237 C2238 1.523 . S
C2238 C2222 1.368 . S
C2238 C2234 1.368 . S
C2238 C2237 1.523 . S
H2239 C2214 0.950 . S
H2240 C2216 0.950 . S
H2241 C2217 0.949 . S
H2242 C2219 0.950 . S
H2243 C2221 0.950 . S
C2244 C2245 1.349 . S
C2244 C2246 1.327 . S
C2244 H2269 0.950 . S
C2245 C2244 1.349 . S
C2245 C2261 1.349 . S
C2246 C2244 1.327 . S
C2246 C2265 1.429 . S
C2246 H2270 0.950 . S
C2247 C2264 1.574 . S
C2247 C2266 1.368 . S
C2247 H2271 0.949 . S
H2248 C2252 0.949 . S
C2249 C2250 1.349 . S
C2249 C2251 1.327 . S
C2249 H2272 0.950 . S
C2250 C2249 1.349 . S
C2250 C2262 1.349 . S
C2251 C2249 1.327 . S
C2251 C2267 1.429 . S
C2251 H2273 0.950 . S
C2252 H2248 0.949 . S
C2252 C2260 1.574 . S
C2252 C2268 1.368 . S
H2253 C2261 0.950 . S
H2254 C2259 0.950 . S
H2255 C2260 0.949 . S
H2256 C2262 0.950 . S
H2257 C2263 0.950 . S
H2258 C2264 0.949 . S
C2259 H2254 0.950 . S
C2259 C2261 1.327 . S
C2259 C2265 1.429 . S
C2260 C2252 1.574 . S
C2260 H2255 0.949 . S
C2260 C2266 1.368 . S
C2261 C2245 1.349 . S
C2261 H2253 0.950 . S
C2261 C2259 1.327 . S
C2262 C2250 1.349 . S
C2262 H2256 0.950 . S
C2262 C2263 1.327 . S
C2263 H2257 0.950 . S
C2263 C2262 1.327 . S
C2263 C2267 1.429 . S
C2264 C2247 1.574 . S
C2264 H2258 0.949 . S
C2264 C2268 1.368 . S
C2265 C2246 1.429 . S
C2265 C2259 1.429 . S
C2265 C2266 1.523 . S
C2266 C2247 1.368 . S
C2266 C2260 1.368 . S
C2266 C2265 1.523 . S
C2267 C2251 1.429 . S
C2267 C2263 1.429 . S
C2267 C2268 1.523 . S
C2268 C2252 1.368 . S
C2268 C2264 1.368 . S
C2268 C2267 1.523 . S
H2269 C2244 0.950 . S
H2270 C2246 0.950 . S
H2271 C2247 0.949 . S
H2272 C2249 0.950 . S
H2273 C2251 0.950 . S
C2274 C2275 1.349 . S
C2274 C2276 1.327 . S
C2274 H2299 0.950 . S
C2275 C2274 1.349 . S
C2275 C2291 1.349 . S
C2276 C2274 1.327 . S
C2276 C2295 1.429 . S
C2276 H2300 0.950 . S
C2277 C2294 1.574 . S
C2277 C2296 1.368 . S
C2277 H2301 0.949 . S
H2278 C2282 0.949 . S
C2279 C2280 1.349 . S
C2279 C2281 1.327 . S
C2279 H2302 0.950 . S
C2280 C2279 1.349 . S
C2280 C2292 1.349 . S
C2281 C2279 1.327 . S
C2281 C2297 1.429 . S
C2281 H2303 0.950 . S
C2282 H2278 0.949 . S
C2282 C2290 1.574 . S
C2282 C2298 1.368 . S
H2283 C2291 0.950 . S
H2284 C2289 0.950 . S
H2285 C2290 0.949 . S
H2286 C2292 0.950 . S
H2287 C2293 0.950 . S
H2288 C2294 0.949 . S
C2289 H2284 0.950 . S
C2289 C2291 1.327 . S
C2289 C2295 1.429 . S
C2290 C2282 1.574 . S
C2290 H2285 0.949 . S
C2290 C2296 1.368 . S
C2291 C2275 1.349 . S
C2291 H2283 0.950 . S
C2291 C2289 1.327 . S
C2292 C2280 1.349 . S
C2292 H2286 0.950 . S
C2292 C2293 1.327 . S
C2293 H2287 0.950 . S
C2293 C2292 1.327 . S
C2293 C2297 1.429 . S
C2294 C2277 1.574 . S
C2294 H2288 0.949 . S
C2294 C2298 1.368 . S
C2295 C2276 1.429 . S
C2295 C2289 1.429 . S
C2295 C2296 1.523 . S
C2296 C2277 1.368 . S
C2296 C2290 1.368 . S
C2296 C2295 1.523 . S
C2297 C2281 1.429 . S
C2297 C2293 1.429 . S
C2297 C2298 1.523 . S
C2298 C2282 1.368 . S
C2298 C2294 1.368 . S
C2298 C2297 1.523 . S
H2299 C2274 0.950 . S
H2300 C2276 0.950 . S
H2301 C2277 0.949 . S
H2302 C2279 0.950 . S
H2303 C2281 0.950 . S
C2304 C2305 1.349 . S
C2304 C2306 1.327 . S
C2304 H2329 0.950 . S
C2305 C2304 1.349 . S
C2305 C2321 1.349 . S
C2306 C2304 1.327 . S
C2306 C2325 1.429 . S
C2306 H2330 0.950 . S
C2307 C2324 1.574 . S
C2307 C2326 1.368 . S
C2307 H2331 0.949 . S
H2308 C2312 0.949 . S
C2309 C2310 1.349 . S
C2309 C2311 1.327 . S
C2309 H2332 0.950 . S
C2310 C2309 1.349 . S
C2310 C2322 1.349 . S
C2311 C2309 1.327 . S
C2311 C2327 1.429 . S
C2311 H2333 0.950 . S
C2312 H2308 0.949 . S
C2312 C2320 1.574 . S
C2312 C2328 1.368 . S
H2313 C2321 0.950 . S
H2314 C2319 0.950 . S
H2315 C2320 0.949 . S
H2316 C2322 0.950 . S
H2317 C2323 0.950 . S
H2318 C2324 0.949 . S
C2319 H2314 0.950 . S
C2319 C2321 1.327 . S
C2319 C2325 1.429 . S
C2320 C2312 1.574 . S
C2320 H2315 0.949 . S
C2320 C2326 1.368 . S
C2321 C2305 1.349 . S
C2321 H2313 0.950 . S
C2321 C2319 1.327 . S
C2322 C2310 1.349 . S
C2322 H2316 0.950 . S
C2322 C2323 1.327 . S
C2323 H2317 0.950 . S
C2323 C2322 1.327 . S
C2323 C2327 1.429 . S
C2324 C2307 1.574 . S
C2324 H2318 0.949 . S
C2324 C2328 1.368 . S
C2325 C2306 1.429 . S
C2325 C2319 1.429 . S
C2325 C2326 1.523 . S
C2326 C2307 1.368 . S
C2326 C2320 1.368 . S
C2326 C2325 1.523 . S
C2327 C2311 1.429 . S
C2327 C2323 1.429 . S
C2327 C2328 1.523 . S
C2328 C2312 1.368 . S
C2328 C2324 1.368 . S
C2328 C2327 1.523 . S
H2329 C2304 0.950 . S
H2330 C2306 0.950 . S
H2331 C2307 0.949 . S
H2332 C2309 0.950 . S
H2333 C2311 0.950 . S
C2334 C2335 1.349 . S
C2334 C2336 1.327 . S
C2334 H2359 0.950 . S
C2335 C2334 1.349 . S
C2335 C2351 1.349 . S
C2336 C2334 1.327 . S
C2336 C2355 1.429 . S
C2336 H2360 0.950 . S
C2337 C2354 1.574 . S
C2337 C2356 1.368 . S
C2337 H2361 0.949 . S
H2338 C2342 0.949 . S
C2339 C2340 1.349 . S
C2339 C2341 1.327 . S
C2339 H2362 0.950 . S
C2340 C2339 1.349 . S
C2340 C2352 1.349 . S
C2341 C2339 1.327 . S
C2341 C2357 1.429 . S
C2341 H2363 0.950 . S
C2342 H2338 0.949 . S
C2342 C2350 1.574 . S
C2342 C2358 1.368 . S
H2343 C2351 0.950 . S
H2344 C2349 0.950 . S
H2345 C2350 0.949 . S
H2346 C2352 0.950 . S
H2347 C2353 0.950 . S
H2348 C2354 0.949 . S
C2349 H2344 0.950 . S
C2349 C2351 1.327 . S
C2349 C2355 1.429 . S
C2350 C2342 1.574 . S
C2350 H2345 0.949 . S
C2350 C2356 1.368 . S
C2351 C2335 1.349 . S
C2351 H2343 0.950 . S
C2351 C2349 1.327 . S
C2352 C2340 1.349 . S
C2352 H2346 0.950 . S
C2352 C2353 1.327 . S
C2353 H2347 0.950 . S
C2353 C2352 1.327 . S
C2353 C2357 1.429 . S
C2354 C2337 1.574 . S
C2354 H2348 0.949 . S
C2354 C2358 1.368 . S
C2355 C2336 1.429 . S
C2355 C2349 1.429 . S
C2355 C2356 1.523 . S
C2356 C2337 1.368 . S
C2356 C2350 1.368 . S
C2356 C2355 1.523 . S
C2357 C2341 1.429 . S
C2357 C2353 1.429 . S
C2357 C2358 1.523 . S
C2358 C2342 1.368 . S
C2358 C2354 1.368 . S
C2358 C2357 1.523 . S
H2359 C2334 0.950 . S
H2360 C2336 0.950 . S
H2361 C2337 0.949 . S
H2362 C2339 0.950 . S
H2363 C2341 0.950 . S
C2364 C2365 1.349 . S
C2364 C2366 1.327 . S
C2364 H2389 0.950 . S
C2365 C2364 1.349 . S
C2365 C2381 1.349 . S
C2366 C2364 1.327 . S
C2366 C2385 1.429 . S
C2366 H2390 0.950 . S
C2367 C2384 1.574 . S
C2367 C2386 1.368 . S
C2367 H2391 0.949 . S
H2368 C2372 0.949 . S
C2369 C2370 1.349 . S
C2369 C2371 1.327 . S
C2369 H2392 0.950 . S
C2370 C2369 1.349 . S
C2370 C2382 1.349 . S
C2371 C2369 1.327 . S
C2371 C2387 1.429 . S
C2371 H2393 0.950 . S
C2372 H2368 0.949 . S
C2372 C2380 1.574 . S
C2372 C2388 1.368 . S
H2373 C2381 0.950 . S
H2374 C2379 0.950 . S
H2375 C2380 0.949 . S
H2376 C2382 0.950 . S
H2377 C2383 0.950 . S
H2378 C2384 0.949 . S
C2379 H2374 0.950 . S
C2379 C2381 1.327 . S
C2379 C2385 1.429 . S
C2380 C2372 1.574 . S
C2380 H2375 0.949 . S
C2380 C2386 1.368 . S
C2381 C2365 1.349 . S
C2381 H2373 0.950 . S
C2381 C2379 1.327 . S
C2382 C2370 1.349 . S
C2382 H2376 0.950 . S
C2382 C2383 1.327 . S
C2383 H2377 0.950 . S
C2383 C2382 1.327 . S
C2383 C2387 1.429 . S
C2384 C2367 1.574 . S
C2384 H2378 0.949 . S
C2384 C2388 1.368 . S
C2385 C2366 1.429 . S
C2385 C2379 1.429 . S
C2385 C2386 1.523 . S
C2386 C2367 1.368 . S
C2386 C2380 1.368 . S
C2386 C2385 1.523 . S
C2387 C2371 1.429 . S
C2387 C2383 1.429 . S
C2387 C2388 1.523 . S
C2388 C2372 1.368 . S
C2388 C2384 1.368 . S
C2388 C2387 1.523 . S
H2389 C2364 0.950 . S
H2390 C2366 0.950 . S
H2391 C2367 0.949 . S
H2392 C2369 0.950 . S
H2393 C2371 0.950 . S
C2394 C2395 1.349 . S
C2394 C2396 1.327 . S
C2394 H2419 0.950 . S
C2395 C2394 1.349 . S
C2395 C2411 1.349 . S
C2396 C2394 1.327 . S
C2396 C2415 1.429 . S
C2396 H2420 0.950 . S
C2397 C2414 1.574 . S
C2397 C2416 1.368 . S
C2397 H2421 0.949 . S
H2398 C2402 0.949 . S
C2399 C2400 1.349 . S
C2399 C2401 1.327 . S
C2399 H2422 0.950 . S
C2400 C2399 1.349 . S
C2400 C2412 1.349 . S
C2401 C2399 1.327 . S
C2401 C2417 1.429 . S
C2401 H2423 0.950 . S
C2402 H2398 0.949 . S
C2402 C2410 1.574 . S
C2402 C2418 1.368 . S
H2403 C2411 0.950 . S
H2404 C2409 0.950 . S
H2405 C2410 0.949 . S
H2406 C2412 0.950 . S
H2407 C2413 0.950 . S
H2408 C2414 0.949 . S
C2409 H2404 0.950 . S
C2409 C2411 1.327 . S
C2409 C2415 1.429 . S
C2410 C2402 1.574 . S
C2410 H2405 0.949 . S
C2410 C2416 1.368 . S
C2411 C2395 1.349 . S
C2411 H2403 0.950 . S
C2411 C2409 1.327 . S
C2412 C2400 1.349 . S
C2412 H2406 0.950 . S
C2412 C2413 1.327 . S
C2413 H2407 0.950 . S
C2413 C2412 1.327 . S
C2413 C2417 1.429 . S
C2414 C2397 1.574 . S
C2414 H2408 0.949 . S
C2414 C2418 1.368 . S
C2415 C2396 1.429 . S
C2415 C2409 1.429 . S
C2415 C2416 1.523 . S
C2416 C2397 1.368 . S
C2416 C2410 1.368 . S
C2416 C2415 1.523 . S
C2417 C2401 1.429 . S
C2417 C2413 1.429 . S
C2417 C2418 1.523 . S
C2418 C2402 1.368 . S
C2418 C2414 1.368 . S
C2418 C2417 1.523 . S
H2419 C2394 0.950 . S
H2420 C2396 0.950 . S
H2421 C2397 0.949 . S
H2422 C2399 0.950 . S
H2423 C2401 0.950 . S
C2424 C2425 1.349 . S
C2424 C2426 1.327 . S
C2424 H2449 0.950 . S
C2425 C2424 1.349 . S
C2425 C2441 1.349 . S
C2426 C2424 1.327 . S
C2426 C2445 1.429 . S
C2426 H2450 0.950 . S
C2427 C2444 1.574 . S
C2427 C2446 1.368 . S
C2427 H2451 0.949 . S
H2428 C2432 0.949 . S
C2429 C2430 1.349 . S
C2429 C2431 1.327 . S
C2429 H2452 0.950 . S
C2430 C2429 1.349 . S
C2430 C2442 1.349 . S
C2431 C2429 1.327 . S
C2431 C2447 1.429 . S
C2431 H2453 0.950 . S
C2432 H2428 0.949 . S
C2432 C2440 1.574 . S
C2432 C2448 1.368 . S
H2433 C2441 0.950 . S
H2434 C2439 0.950 . S
H2435 C2440 0.949 . S
H2436 C2442 0.950 . S
H2437 C2443 0.950 . S
H2438 C2444 0.949 . S
C2439 H2434 0.950 . S
C2439 C2441 1.327 . S
C2439 C2445 1.429 . S
C2440 C2432 1.574 . S
C2440 H2435 0.949 . S
C2440 C2446 1.368 . S
C2441 C2425 1.349 . S
C2441 H2433 0.950 . S
C2441 C2439 1.327 . S
C2442 C2430 1.349 . S
C2442 H2436 0.950 . S
C2442 C2443 1.327 . S
C2443 H2437 0.950 . S
C2443 C2442 1.327 . S
C2443 C2447 1.429 . S
C2444 C2427 1.574 . S
C2444 H2438 0.949 . S
C2444 C2448 1.368 . S
C2445 C2426 1.429 . S
C2445 C2439 1.429 . S
C2445 C2446 1.523 . S
C2446 C2427 1.368 . S
C2446 C2440 1.368 . S
C2446 C2445 1.523 . S
C2447 C2431 1.429 . S
C2447 C2443 1.429 . S
C2447 C2448 1.523 . S
C2448 C2432 1.368 . S
C2448 C2444 1.368 . S
C2448 C2447 1.523 . S
H2449 C2424 0.950 . S
H2450 C2426 0.950 . S
H2451 C2427 0.949 . S
H2452 C2429 0.950 . S
H2453 C2431 0.950 . S
C2454 C2455 1.349 . S
C2454 C2456 1.327 . S
C2454 H2479 0.950 . S
C2455 C2454 1.349 . S
C2455 C2471 1.349 . S
C2456 C2454 1.327 . S
C2456 C2475 1.429 . S
C2456 H2480 0.950 . S
C2457 C2474 1.574 . S
C2457 C2476 1.368 . S
C2457 H2481 0.949 . S
H2458 C2462 0.949 . S
C2459 C2460 1.349 . S
C2459 C2461 1.327 . S
C2459 H2482 0.950 . S
C2460 C2459 1.349 . S
C2460 C2472 1.349 . S
C2461 C2459 1.327 . S
C2461 C2477 1.429 . S
C2461 H2483 0.950 . S
C2462 H2458 0.949 . S
C2462 C2470 1.574 . S
C2462 C2478 1.368 . S
H2463 C2471 0.950 . S
H2464 C2469 0.950 . S
H2465 C2470 0.949 . S
H2466 C2472 0.950 . S
H2467 C2473 0.950 . S
H2468 C2474 0.949 . S
C2469 H2464 0.950 . S
C2469 C2471 1.327 . S
C2469 C2475 1.429 . S
C2470 C2462 1.574 . S
C2470 H2465 0.949 . S
C2470 C2476 1.368 . S
C2471 C2455 1.349 . S
C2471 H2463 0.950 . S
C2471 C2469 1.327 . S
C2472 C2460 1.349 . S
C2472 H2466 0.950 . S
C2472 C2473 1.327 . S
C2473 H2467 0.950 . S
C2473 C2472 1.327 . S
C2473 C2477 1.429 . S
C2474 C2457 1.574 . S
C2474 H2468 0.949 . S
C2474 C2478 1.368 . S
C2475 C2456 1.429 . S
C2475 C2469 1.429 . S
C2475 C2476 1.523 . S
C2476 C2457 1.368 . S
C2476 C2470 1.368 . S
C2476 C2475 1.523 . S
C2477 C2461 1.429 . S
C2477 C2473 1.429 . S
C2477 C2478 1.523 . S
C2478 C2462 1.368 . S
C2478 C2474 1.368 . S
C2478 C2477 1.523 . S
H2479 C2454 0.950 . S
H2480 C2456 0.950 . S
H2481 C2457 0.949 . S
H2482 C2459 0.950 . S
H2483 C2461 0.950 . S
C2484 C2485 1.349 . S
C2484 C2486 1.327 . S
C2484 H2509 0.950 . S
C2485 C2484 1.349 . S
C2485 C2501 1.349 . S
C2486 C2484 1.327 . S
C2486 C2505 1.429 . S
C2486 H2510 0.950 . S
C2487 C2504 1.574 . S
C2487 C2506 1.368 . S
C2487 H2511 0.949 . S
H2488 C2492 0.949 . S
C2489 C2490 1.349 . S
C2489 C2491 1.327 . S
C2489 H2512 0.950 . S
C2490 C2489 1.349 . S
C2490 C2502 1.349 . S
C2491 C2489 1.327 . S
C2491 C2507 1.429 . S
C2491 H2513 0.950 . S
C2492 H2488 0.949 . S
C2492 C2500 1.574 . S
C2492 C2508 1.368 . S
H2493 C2501 0.950 . S
H2494 C2499 0.950 . S
H2495 C2500 0.949 . S
H2496 C2502 0.950 . S
H2497 C2503 0.950 . S
H2498 C2504 0.949 . S
C2499 H2494 0.950 . S
C2499 C2501 1.327 . S
C2499 C2505 1.429 . S
C2500 C2492 1.574 . S
C2500 H2495 0.949 . S
C2500 C2506 1.368 . S
C2501 C2485 1.349 . S
C2501 H2493 0.950 . S
C2501 C2499 1.327 . S
C2502 C2490 1.349 . S
C2502 H2496 0.950 . S
C2502 C2503 1.327 . S
C2503 H2497 0.950 . S
C2503 C2502 1.327 . S
C2503 C2507 1.429 . S
C2504 C2487 1.574 . S
C2504 H2498 0.949 . S
C2504 C2508 1.368 . S
C2505 C2486 1.429 . S
C2505 C2499 1.429 . S
C2505 C2506 1.523 . S
C2506 C2487 1.368 . S
C2506 C2500 1.368 . S
C2506 C2505 1.523 . S
C2507 C2491 1.429 . S
C2507 C2503 1.429 . S
C2507 C2508 1.523 . S
C2508 C2492 1.368 . S
C2508 C2504 1.368 . S
C2508 C2507 1.523 . S
H2509 C2484 0.950 . S
H2510 C2486 0.950 . S
H2511 C2487 0.949 . S
H2512 C2489 0.950 . S
H2513 C2491 0.950 . S
C2514 C2515 1.349 . S
C2514 C2516 1.327 . S
C2514 H2539 0.950 . S
C2515 C2514 1.349 . S
C2515 C2531 1.349 . S
C2516 C2514 1.327 . S
C2516 C2535 1.429 . S
C2516 H2540 0.950 . S
C2517 C2534 1.574 . S
C2517 C2536 1.368 . S
C2517 H2541 0.949 . S
H2518 C2522 0.949 . S
C2519 C2520 1.349 . S
C2519 C2521 1.327 . S
C2519 H2542 0.950 . S
C2520 C2519 1.349 . S
C2520 C2532 1.349 . S
C2521 C2519 1.327 . S
C2521 C2537 1.429 . S
C2521 H2543 0.950 . S
C2522 H2518 0.949 . S
C2522 C2530 1.574 . S
C2522 C2538 1.368 . S
H2523 C2531 0.950 . S
H2524 C2529 0.950 . S
H2525 C2530 0.949 . S
H2526 C2532 0.950 . S
H2527 C2533 0.950 . S
H2528 C2534 0.949 . S
C2529 H2524 0.950 . S
C2529 C2531 1.327 . S
C2529 C2535 1.429 . S
C2530 C2522 1.574 . S
C2530 H2525 0.949 . S
C2530 C2536 1.368 . S
C2531 C2515 1.349 . S
C2531 H2523 0.950 . S
C2531 C2529 1.327 . S
C2532 C2520 1.349 . S
C2532 H2526 0.950 . S
C2532 C2533 1.327 . S
C2533 H2527 0.950 . S
C2533 C2532 1.327 . S
C2533 C2537 1.429 . S
C2534 C2517 1.574 . S
C2534 H2528 0.949 . S
C2534 C2538 1.368 . S
C2535 C2516 1.429 . S
C2535 C2529 1.429 . S
C2535 C2536 1.523 . S
C2536 C2517 1.368 . S
C2536 C2530 1.368 . S
C2536 C2535 1.523 . S
C2537 C2521 1.429 . S
C2537 C2533 1.429 . S
C2537 C2538 1.523 . S
C2538 C2522 1.368 . S
C2538 C2534 1.368 . S
C2538 C2537 1.523 . S
H2539 C2514 0.950 . S
H2540 C2516 0.950 . S
H2541 C2517 0.949 . S
H2542 C2519 0.950 . S
H2543 C2521 0.950 . S
C2544 C2545 1.349 . S
C2544 C2546 1.327 . S
C2544 H2569 0.950 . S
C2545 C2544 1.349 . S
C2545 C2561 1.349 . S
C2546 C2544 1.327 . S
C2546 C2565 1.429 . S
C2546 H2570 0.950 . S
C2547 C2564 1.574 . S
C2547 C2566 1.368 . S
C2547 H2571 0.949 . S
H2548 C2552 0.949 . S
C2549 C2550 1.349 . S
C2549 C2551 1.327 . S
C2549 H2572 0.950 . S
C2550 C2549 1.349 . S
C2550 C2562 1.349 . S
C2551 C2549 1.327 . S
C2551 C2567 1.429 . S
C2551 H2573 0.950 . S
C2552 H2548 0.949 . S
C2552 C2560 1.574 . S
C2552 C2568 1.368 . S
H2553 C2561 0.950 . S
H2554 C2559 0.950 . S
H2555 C2560 0.949 . S
H2556 C2562 0.950 . S
H2557 C2563 0.950 . S
H2558 C2564 0.949 . S
C2559 H2554 0.950 . S
C2559 C2561 1.327 . S
C2559 C2565 1.429 . S
C2560 C2552 1.574 . S
C2560 H2555 0.949 . S
C2560 C2566 1.368 . S
C2561 C2545 1.349 . S
C2561 H2553 0.950 . S
C2561 C2559 1.327 . S
C2562 C2550 1.349 . S
C2562 H2556 0.950 . S
C2562 C2563 1.327 . S
C2563 H2557 0.950 . S
C2563 C2562 1.327 . S
C2563 C2567 1.429 . S
C2564 C2547 1.574 . S
C2564 H2558 0.949 . S
C2564 C2568 1.368 . S
C2565 C2546 1.429 . S
C2565 C2559 1.429 . S
C2565 C2566 1.523 . S
C2566 C2547 1.368 . S
C2566 C2560 1.368 . S
C2566 C2565 1.523 . S
C2567 C2551 1.429 . S
C2567 C2563 1.429 . S
C2567 C2568 1.523 . S
C2568 C2552 1.368 . S
C2568 C2564 1.368 . S
C2568 C2567 1.523 . S
H2569 C2544 0.950 . S
H2570 C2546 0.950 . S
H2571 C2547 0.949 . S
H2572 C2549 0.950 . S
H2573 C2551 0.950 . S
C2574 C2575 1.349 . S
C2574 C2576 1.327 . S
C2574 H2599 0.950 . S
C2575 C2574 1.349 . S
C2575 C2591 1.349 . S
C2576 C2574 1.327 . S
C2576 C2595 1.429 . S
C2576 H2600 0.950 . S
C2577 C2594 1.574 . S
C2577 C2596 1.368 . S
C2577 H2601 0.949 . S
H2578 C2582 0.949 . S
C2579 C2580 1.349 . S
C2579 C2581 1.327 . S
C2579 H2602 0.950 . S
C2580 C2579 1.349 . S
C2580 C2592 1.349 . S
C2581 C2579 1.327 . S
C2581 C2597 1.429 . S
C2581 H2603 0.950 . S
C2582 H2578 0.949 . S
C2582 C2590 1.574 . S
C2582 C2598 1.368 . S
H2583 C2591 0.950 . S
H2584 C2589 0.950 . S
H2585 C2590 0.949 . S
H2586 C2592 0.950 . S
H2587 C2593 0.950 . S
H2588 C2594 0.949 . S
C2589 H2584 0.950 . S
C2589 C2591 1.327 . S
C2589 C2595 1.429 . S
C2590 C2582 1.574 . S
C2590 H2585 0.949 . S
C2590 C2596 1.368 . S
C2591 C2575 1.349 . S
C2591 H2583 0.950 . S
C2591 C2589 1.327 . S
C2592 C2580 1.349 . S
C2592 H2586 0.950 . S
C2592 C2593 1.327 . S
C2593 H2587 0.950 . S
C2593 C2592 1.327 . S
C2593 C2597 1.429 . S
C2594 C2577 1.574 . S
C2594 H2588 0.949 . S
C2594 C2598 1.368 . S
C2595 C2576 1.429 . S
C2595 C2589 1.429 . S
C2595 C2596 1.523 . S
C2596 C2577 1.368 . S
C2596 C2590 1.368 . S
C2596 C2595 1.523 . S
C2597 C2581 1.429 . S
C2597 C2593 1.429 . S
C2597 C2598 1.523 . S
C2598 C2582 1.368 . S
C2598 C2594 1.368 . S
C2598 C2597 1.523 . S
H2599 C2574 0.950 . S
H2600 C2576 0.950 . S
H2601 C2577 0.949 . S
H2602 C2579 0.950 . S
H2603 C2581 0.950 . S
C2604 C2605 1.349 . S
C2604 C2606 1.327 . S
C2604 H2629 0.950 . S
C2605 C2604 1.349 . S
C2605 C2621 1.349 . S
C2606 C2604 1.327 . S
C2606 C2625 1.429 . S
C2606 H2630 0.950 . S
C2607 C2624 1.574 . S
C2607 C2626 1.368 . S
C2607 H2631 0.949 . S
H2608 C2612 0.949 . S
C2609 C2610 1.349 . S
C2609 C2611 1.327 . S
C2609 H2632 0.950 . S
C2610 C2609 1.349 . S
C2610 C2622 1.349 . S
C2611 C2609 1.327 . S
C2611 C2627 1.429 . S
C2611 H2633 0.950 . S
C2612 H2608 0.949 . S
C2612 C2620 1.574 . S
C2612 C2628 1.368 . S
H2613 C2621 0.950 . S
H2614 C2619 0.950 . S
H2615 C2620 0.949 . S
H2616 C2622 0.950 . S
H2617 C2623 0.950 . S
H2618 C2624 0.949 . S
C2619 H2614 0.950 . S
C2619 C2621 1.327 . S
C2619 C2625 1.429 . S
C2620 C2612 1.574 . S
C2620 H2615 0.949 . S
C2620 C2626 1.368 . S
C2621 C2605 1.349 . S
C2621 H2613 0.950 . S
C2621 C2619 1.327 . S
C2622 C2610 1.349 . S
C2622 H2616 0.950 . S
C2622 C2623 1.327 . S
C2623 H2617 0.950 . S
C2623 C2622 1.327 . S
C2623 C2627 1.429 . S
C2624 C2607 1.574 . S
C2624 H2618 0.949 . S
C2624 C2628 1.368 . S
C2625 C2606 1.429 . S
C2625 C2619 1.429 . S
C2625 C2626 1.523 . S
C2626 C2607 1.368 . S
C2626 C2620 1.368 . S
C2626 C2625 1.523 . S
C2627 C2611 1.429 . S
C2627 C2623 1.429 . S
C2627 C2628 1.523 . S
C2628 C2612 1.368 . S
C2628 C2624 1.368 . S
C2628 C2627 1.523 . S
H2629 C2604 0.950 . S
H2630 C2606 0.950 . S
H2631 C2607 0.949 . S
H2632 C2609 0.950 . S
H2633 C2611 0.950 . S
C2634 C2635 1.349 . S
C2634 C2636 1.327 . S
C2634 H2659 0.950 . S
C2635 C2634 1.349 . S
C2635 C2651 1.349 . S
C2636 C2634 1.327 . S
C2636 C2655 1.429 . S
C2636 H2660 0.950 . S
C2637 C2654 1.574 . S
C2637 C2656 1.368 . S
C2637 H2661 0.949 . S
H2638 C2642 0.949 . S
C2639 C2640 1.349 . S
C2639 C2641 1.327 . S
C2639 H2662 0.950 . S
C2640 C2639 1.349 . S
C2640 C2652 1.349 . S
C2641 C2639 1.327 . S
C2641 C2657 1.429 . S
C2641 H2663 0.950 . S
C2642 H2638 0.949 . S
C2642 C2650 1.574 . S
C2642 C2658 1.368 . S
H2643 C2651 0.950 . S
H2644 C2649 0.950 . S
H2645 C2650 0.949 . S
H2646 C2652 0.950 . S
H2647 C2653 0.950 . S
H2648 C2654 0.949 . S
C2649 H2644 0.950 . S
C2649 C2651 1.327 . S
C2649 C2655 1.429 . S
C2650 C2642 1.574 . S
C2650 H2645 0.949 . S
C2650 C2656 1.368 . S
C2651 C2635 1.349 . S
C2651 H2643 0.950 . S
C2651 C2649 1.327 . S
C2652 C2640 1.349 . S
C2652 H2646 0.950 . S
C2652 C2653 1.327 . S
C2653 H2647 0.950 . S
C2653 C2652 1.327 . S
C2653 C2657 1.429 . S
C2654 C2637 1.574 . S
C2654 H2648 0.949 . S
C2654 C2658 1.368 . S
C2655 C2636 1.429 . S
C2655 C2649 1.429 . S
C2655 C2656 1.523 . S
C2656 C2637 1.368 . S
C2656 C2650 1.368 . S
C2656 C2655 1.523 . S
C2657 C2641 1.429 . S
C2657 C2653 1.429 . S
C2657 C2658 1.523 . S
C2658 C2642 1.368 . S
C2658 C2654 1.368 . S
C2658 C2657 1.523 . S
H2659 C2634 0.950 . S
H2660 C2636 0.950 . S
H2661 C2637 0.949 . S
H2662 C2639 0.950 . S
H2663 C2641 0.950 . S
C2664 C2665 1.349 . S
C2664 C2666 1.327 . S
C2664 H2689 0.950 . S
C2665 C2664 1.349 . S
C2665 C2681 1.349 . S
C2666 C2664 1.327 . S
C2666 C2685 1.429 . S
C2666 H2690 0.950 . S
C2667 C2684 1.574 . S
C2667 C2686 1.368 . S
C2667 H2691 0.949 . S
H2668 C2672 0.949 . S
C2669 C2670 1.349 . S
C2669 C2671 1.327 . S
C2669 H2692 0.950 . S
C2670 C2669 1.349 . S
C2670 C2682 1.349 . S
C2671 C2669 1.327 . S
C2671 C2687 1.429 . S
C2671 H2693 0.950 . S
C2672 H2668 0.949 . S
C2672 C2680 1.574 . S
C2672 C2688 1.368 . S
H2673 C2681 0.950 . S
H2674 C2679 0.950 . S
H2675 C2680 0.949 . S
H2676 C2682 0.950 . S
H2677 C2683 0.950 . S
H2678 C2684 0.949 . S
C2679 H2674 0.950 . S
C2679 C2681 1.327 . S
C2679 C2685 1.429 . S
C2680 C2672 1.574 . S
C2680 H2675 0.949 . S
C2680 C2686 1.368 . S
C2681 C2665 1.349 . S
C2681 H2673 0.950 . S
C2681 C2679 1.327 . S
C2682 C2670 1.349 . S
C2682 H2676 0.950 . S
C2682 C2683 1.327 . S
C2683 H2677 0.950 . S
C2683 C2682 1.327 . S
C2683 C2687 1.429 . S
C2684 C2667 1.574 . S
C2684 H2678 0.949 . S
C2684 C2688 1.368 . S
C2685 C2666 1.429 . S
C2685 C2679 1.429 . S
C2685 C2686 1.523 . S
C2686 C2667 1.368 . S
C2686 C2680 1.368 . S
C2686 C2685 1.523 . S
C2687 C2671 1.429 . S
C2687 C2683 1.429 . S
C2687 C2688 1.523 . S
C2688 C2672 1.368 . S
C2688 C2684 1.368 . S
C2688 C2687 1.523 . S
H2689 C2664 0.950 . S
H2690 C2666 0.950 . S
H2691 C2667 0.949 . S
H2692 C2669 0.950 . S
H2693 C2671 0.950 . S
C2694 C2695 1.349 . S
C2694 C2696 1.327 . S
C2694 H2719 0.950 . S
C2695 C2694 1.349 . S
C2695 C2711 1.349 . S
C2696 C2694 1.327 . S
C2696 C2715 1.429 . S
C2696 H2720 0.950 . S
C2697 C2714 1.574 . S
C2697 C2716 1.368 . S
C2697 H2721 0.949 . S
H2698 C2702 0.949 . S
C2699 C2700 1.349 . S
C2699 C2701 1.327 . S
C2699 H2722 0.950 . S
C2700 C2699 1.349 . S
C2700 C2712 1.349 . S
C2701 C2699 1.327 . S
C2701 C2717 1.429 . S
C2701 H2723 0.950 . S
C2702 H2698 0.949 . S
C2702 C2710 1.574 . S
C2702 C2718 1.368 . S
H2703 C2711 0.950 . S
H2704 C2709 0.950 . S
H2705 C2710 0.949 . S
H2706 C2712 0.950 . S
H2707 C2713 0.950 . S
H2708 C2714 0.949 . S
C2709 H2704 0.950 . S
C2709 C2711 1.327 . S
C2709 C2715 1.429 . S
C2710 C2702 1.574 . S
C2710 H2705 0.949 . S
C2710 C2716 1.368 . S
C2711 C2695 1.349 . S
C2711 H2703 0.950 . S
C2711 C2709 1.327 . S
C2712 C2700 1.349 . S
C2712 H2706 0.950 . S
C2712 C2713 1.327 . S
C2713 H2707 0.950 . S
C2713 C2712 1.327 . S
C2713 C2717 1.429 . S
C2714 C2697 1.574 . S
C2714 H2708 0.949 . S
C2714 C2718 1.368 . S
C2715 C2696 1.429 . S
C2715 C2709 1.429 . S
C2715 C2716 1.523 . S
C2716 C2697 1.368 . S
C2716 C2710 1.368 . S
C2716 C2715 1.523 . S
C2717 C2701 1.429 . S
C2717 C2713 1.429 . S
C2717 C2718 1.523 . S
C2718 C2702 1.368 . S
C2718 C2714 1.368 . S
C2718 C2717 1.523 . S
H2719 C2694 0.950 . S
H2720 C2696 0.950 . S
H2721 C2697 0.949 . S
H2722 C2699 0.950 . S
H2723 C2701 0.950 . S
C2724 C2725 1.349 . S
C2724 C2726 1.327 . S
C2724 H2749 0.950 . S
C2725 C2724 1.349 . S
C2725 C2741 1.349 . S
C2726 C2724 1.327 . S
C2726 C2745 1.429 . S
C2726 H2750 0.950 . S
C2727 C2744 1.574 . S
C2727 C2746 1.368 . S
C2727 H2751 0.949 . S
H2728 C2732 0.949 . S
C2729 C2730 1.349 . S
C2729 C2731 1.327 . S
C2729 H2752 0.950 . S
C2730 C2729 1.349 . S
C2730 C2742 1.349 . S
C2731 C2729 1.327 . S
C2731 C2747 1.429 . S
C2731 H2753 0.950 . S
C2732 H2728 0.949 . S
C2732 C2740 1.574 . S
C2732 C2748 1.368 . S
H2733 C2741 0.950 . S
H2734 C2739 0.950 . S
H2735 C2740 0.949 . S
H2736 C2742 0.950 . S
H2737 C2743 0.950 . S
H2738 C2744 0.949 . S
C2739 H2734 0.950 . S
C2739 C2741 1.327 . S
C2739 C2745 1.429 . S
C2740 C2732 1.574 . S
C2740 H2735 0.949 . S
C2740 C2746 1.368 . S
C2741 C2725 1.349 . S
C2741 H2733 0.950 . S
C2741 C2739 1.327 . S
C2742 C2730 1.349 . S
C2742 H2736 0.950 . S
C2742 C2743 1.327 . S
C2743 H2737 0.950 . S
C2743 C2742 1.327 . S
C2743 C2747 1.429 . S
C2744 C2727 1.574 . S
C2744 H2738 0.949 . S
C2744 C2748 1.368 . S
C2745 C2726 1.429 . S
C2745 C2739 1.429 . S
C2745 C2746 1.523 . S
C2746 C2727 1.368 . S
C2746 C2740 1.368 . S
C2746 C2745 1.523 . S
C2747 C2731 1.429 . S
C2747 C2743 1.429 . S
C2747 C2748 1.523 . S
C2748 C2732 1.368 . S
C2748 C2744 1.368 . S
C2748 C2747 1.523 . S
H2749 C2724 0.950 . S
H2750 C2726 0.950 . S
H2751 C2727 0.949 . S
H2752 C2729 0.950 . S
H2753 C2731 0.950 . S
C2754 C2755 1.349 . S
C2754 C2756 1.327 . S
C2754 H2779 0.950 . S
C2755 C2754 1.349 . S
C2755 C2771 1.349 . S
C2756 C2754 1.327 . S
C2756 C2775 1.429 . S
C2756 H2780 0.950 . S
C2757 C2774 1.574 . S
C2757 C2776 1.368 . S
C2757 H2781 0.949 . S
H2758 C2762 0.949 . S
C2759 C2760 1.349 . S
C2759 C2761 1.327 . S
C2759 H2782 0.950 . S
C2760 C2759 1.349 . S
C2760 C2772 1.349 . S
C2761 C2759 1.327 . S
C2761 C2777 1.429 . S
C2761 H2783 0.950 . S
C2762 H2758 0.949 . S
C2762 C2770 1.574 . S
C2762 C2778 1.368 . S
H2763 C2771 0.950 . S
H2764 C2769 0.950 . S
H2765 C2770 0.949 . S
H2766 C2772 0.950 . S
H2767 C2773 0.950 . S
H2768 C2774 0.949 . S
C2769 H2764 0.950 . S
C2769 C2771 1.327 . S
C2769 C2775 1.429 . S
C2770 C2762 1.574 . S
C2770 H2765 0.949 . S
C2770 C2776 1.368 . S
C2771 C2755 1.349 . S
C2771 H2763 0.950 . S
C2771 C2769 1.327 . S
C2772 C2760 1.349 . S
C2772 H2766 0.950 . S
C2772 C2773 1.327 . S
C2773 H2767 0.950 . S
C2773 C2772 1.327 . S
C2773 C2777 1.429 . S
C2774 C2757 1.574 . S
C2774 H2768 0.949 . S
C2774 C2778 1.368 . S
C2775 C2756 1.429 . S
C2775 C2769 1.429 . S
C2775 C2776 1.523 . S
C2776 C2757 1.368 . S
C2776 C2770 1.368 . S
C2776 C2775 1.523 . S
C2777 C2761 1.429 . S
C2777 C2773 1.429 . S
C2777 C2778 1.523 . S
C2778 C2762 1.368 . S
C2778 C2774 1.368 . S
C2778 C2777 1.523 . S
H2779 C2754 0.950 . S
H2780 C2756 0.950 . S
H2781 C2757 0.949 . S
H2782 C2759 0.950 . S
H2783 C2761 0.950 . S
C2784 C2785 1.349 . S
C2784 C2786 1.327 . S
C2784 H2809 0.950 . S
C2785 C2784 1.349 . S
C2785 C2801 1.349 . S
C2786 C2784 1.327 . S
C2786 C2805 1.429 . S
C2786 H2810 0.950 . S
C2787 C2804 1.574 . S
C2787 C2806 1.368 . S
C2787 H2811 0.949 . S
H2788 C2792 0.949 . S
C2789 C2790 1.349 . S
C2789 C2791 1.327 . S
C2789 H2812 0.950 . S
C2790 C2789 1.349 . S
C2790 C2802 1.349 . S
C2791 C2789 1.327 . S
C2791 C2807 1.429 . S
C2791 H2813 0.950 . S
C2792 H2788 0.949 . S
C2792 C2800 1.574 . S
C2792 C2808 1.368 . S
H2793 C2801 0.950 . S
H2794 C2799 0.950 . S
H2795 C2800 0.949 . S
H2796 C2802 0.950 . S
H2797 C2803 0.950 . S
H2798 C2804 0.949 . S
C2799 H2794 0.950 . S
C2799 C2801 1.327 . S
C2799 C2805 1.429 . S
C2800 C2792 1.574 . S
C2800 H2795 0.949 . S
C2800 C2806 1.368 . S
C2801 C2785 1.349 . S
C2801 H2793 0.950 . S
C2801 C2799 1.327 . S
C2802 C2790 1.349 . S
C2802 H2796 0.950 . S
C2802 C2803 1.327 . S
C2803 H2797 0.950 . S
C2803 C2802 1.327 . S
C2803 C2807 1.429 . S
C2804 C2787 1.574 . S
C2804 H2798 0.949 . S
C2804 C2808 1.368 . S
C2805 C2786 1.429 . S
C2805 C2799 1.429 . S
C2805 C2806 1.523 . S
C2806 C2787 1.368 . S
C2806 C2800 1.368 . S
C2806 C2805 1.523 . S
C2807 C2791 1.429 . S
C2807 C2803 1.429 . S
C2807 C2808 1.523 . S
C2808 C2792 1.368 . S
C2808 C2804 1.368 . S
C2808 C2807 1.523 . S
H2809 C2784 0.950 . S
H2810 C2786 0.950 . S
H2811 C2787 0.949 . S
H2812 C2789 0.950 . S
H2813 C2791 0.950 . S
C2814 C2815 1.349 . S
C2814 C2816 1.327 . S
C2814 H2839 0.950 . S
C2815 C2814 1.349 . S
C2815 C2831 1.349 . S
C2816 C2814 1.327 . S
C2816 C2835 1.429 . S
C2816 H2840 0.950 . S
C2817 C2834 1.574 . S
C2817 C2836 1.368 . S
C2817 H2841 0.949 . S
H2818 C2822 0.949 . S
C2819 C2820 1.349 . S
C2819 C2821 1.327 . S
C2819 H2842 0.950 . S
C2820 C2819 1.349 . S
C2820 C2832 1.349 . S
C2821 C2819 1.327 . S
C2821 C2837 1.429 . S
C2821 H2843 0.950 . S
C2822 H2818 0.949 . S
C2822 C2830 1.574 . S
C2822 C2838 1.368 . S
H2823 C2831 0.950 . S
H2824 C2829 0.950 . S
H2825 C2830 0.949 . S
H2826 C2832 0.950 . S
H2827 C2833 0.950 . S
H2828 C2834 0.949 . S
C2829 H2824 0.950 . S
C2829 C2831 1.327 . S
C2829 C2835 1.429 . S
C2830 C2822 1.574 . S
C2830 H2825 0.949 . S
C2830 C2836 1.368 . S
C2831 C2815 1.349 . S
C2831 H2823 0.950 . S
C2831 C2829 1.327 . S
C2832 C2820 1.349 . S
C2832 H2826 0.950 . S
C2832 C2833 1.327 . S
C2833 H2827 0.950 . S
C2833 C2832 1.327 . S
C2833 C2837 1.429 . S
C2834 C2817 1.574 . S
C2834 H2828 0.949 . S
C2834 C2838 1.368 . S
C2835 C2816 1.429 . S
C2835 C2829 1.429 . S
C2835 C2836 1.523 . S
C2836 C2817 1.368 . S
C2836 C2830 1.368 . S
C2836 C2835 1.523 . S
C2837 C2821 1.429 . S
C2837 C2833 1.429 . S
C2837 C2838 1.523 . S
C2838 C2822 1.368 . S
C2838 C2834 1.368 . S
C2838 C2837 1.523 . S
H2839 C2814 0.950 . S
H2840 C2816 0.950 . S
H2841 C2817 0.949 . S
H2842 C2819 0.950 . S
H2843 C2821 0.950 . S
C2844 C2845 1.349 . S
C2844 C2846 1.327 . S
C2844 H2869 0.950 . S
C2845 C2844 1.349 . S
C2845 C2861 1.349 . S
C2846 C2844 1.327 . S
C2846 C2865 1.429 . S
C2846 H2870 0.950 . S
C2847 C2864 1.574 . S
C2847 C2866 1.368 . S
C2847 H2871 0.949 . S
H2848 C2852 0.949 . S
C2849 C2850 1.349 . S
C2849 C2851 1.327 . S
C2849 H2872 0.950 . S
C2850 C2849 1.349 . S
C2850 C2862 1.349 . S
C2851 C2849 1.327 . S
C2851 C2867 1.429 . S
C2851 H2873 0.950 . S
C2852 H2848 0.949 . S
C2852 C2860 1.574 . S
C2852 C2868 1.368 . S
H2853 C2861 0.950 . S
H2854 C2859 0.950 . S
H2855 C2860 0.949 . S
H2856 C2862 0.950 . S
H2857 C2863 0.950 . S
H2858 C2864 0.949 . S
C2859 H2854 0.950 . S
C2859 C2861 1.327 . S
C2859 C2865 1.429 . S
C2860 C2852 1.574 . S
C2860 H2855 0.949 . S
C2860 C2866 1.368 . S
C2861 C2845 1.349 . S
C2861 H2853 0.950 . S
C2861 C2859 1.327 . S
C2862 C2850 1.349 . S
C2862 H2856 0.950 . S
C2862 C2863 1.327 . S
C2863 H2857 0.950 . S
C2863 C2862 1.327 . S
C2863 C2867 1.429 . S
C2864 C2847 1.574 . S
C2864 H2858 0.949 . S
C2864 C2868 1.368 . S
C2865 C2846 1.429 . S
C2865 C2859 1.429 . S
C2865 C2866 1.523 . S
C2866 C2847 1.368 . S
C2866 C2860 1.368 . S
C2866 C2865 1.523 . S
C2867 C2851 1.429 . S
C2867 C2863 1.429 . S
C2867 C2868 1.523 . S
C2868 C2852 1.368 . S
C2868 C2864 1.368 . S
C2868 C2867 1.523 . S
H2869 C2844 0.950 . S
H2870 C2846 0.950 . S
H2871 C2847 0.949 . S
H2872 C2849 0.950 . S
H2873 C2851 0.950 . S
C2874 C2875 1.349 . S
C2874 C2876 1.327 . S
C2874 H2899 0.950 . S
C2875 C2874 1.349 . S
C2875 C2891 1.349 . S
C2876 C2874 1.327 . S
C2876 C2895 1.429 . S
C2876 H2900 0.950 . S
C2877 C2894 1.574 . S
C2877 C2896 1.368 . S
C2877 H2901 0.949 . S
H2878 C2882 0.949 . S
C2879 C2880 1.349 . S
C2879 C2881 1.327 . S
C2879 H2902 0.950 . S
C2880 C2879 1.349 . S
C2880 C2892 1.349 . S
C2881 C2879 1.327 . S
C2881 C2897 1.429 . S
C2881 H2903 0.950 . S
C2882 H2878 0.949 . S
C2882 C2890 1.574 . S
C2882 C2898 1.368 . S
H2883 C2891 0.950 . S
H2884 C2889 0.950 . S
H2885 C2890 0.949 . S
H2886 C2892 0.950 . S
H2887 C2893 0.950 . S
H2888 C2894 0.949 . S
C2889 H2884 0.950 . S
C2889 C2891 1.327 . S
C2889 C2895 1.429 . S
C2890 C2882 1.574 . S
C2890 H2885 0.949 . S
C2890 C2896 1.368 . S
C2891 C2875 1.349 . S
C2891 H2883 0.950 . S
C2891 C2889 1.327 . S
C2892 C2880 1.349 . S
C2892 H2886 0.950 . S
C2892 C2893 1.327 . S
C2893 H2887 0.950 . S
C2893 C2892 1.327 . S
C2893 C2897 1.429 . S
C2894 C2877 1.574 . S
C2894 H2888 0.949 . S
C2894 C2898 1.368 . S
C2895 C2876 1.429 . S
C2895 C2889 1.429 . S
C2895 C2896 1.523 . S
C2896 C2877 1.368 . S
C2896 C2890 1.368 . S
C2896 C2895 1.523 . S
C2897 C2881 1.429 . S
C2897 C2893 1.429 . S
C2897 C2898 1.523 . S
C2898 C2882 1.368 . S
C2898 C2894 1.368 . S
C2898 C2897 1.523 . S
H2899 C2874 0.950 . S
H2900 C2876 0.950 . S
H2901 C2877 0.949 . S
H2902 C2879 0.950 . S
H2903 C2881 0.950 . S
C2904 C2905 1.349 . S
C2904 C2906 1.327 . S
C2904 H2929 0.950 . S
C2905 C2904 1.349 . S
C2905 C2921 1.349 . S
C2906 C2904 1.327 . S
C2906 C2925 1.429 . S
C2906 H2930 0.950 . S
C2907 C2924 1.574 . S
C2907 C2926 1.368 . S
C2907 H2931 0.949 . S
H2908 C2912 0.949 . S
C2909 C2910 1.349 . S
C2909 C2911 1.327 . S
C2909 H2932 0.950 . S
C2910 C2909 1.349 . S
C2910 C2922 1.349 . S
C2911 C2909 1.327 . S
C2911 C2927 1.429 . S
C2911 H2933 0.950 . S
C2912 H2908 0.949 . S
C2912 C2920 1.574 . S
C2912 C2928 1.368 . S
H2913 C2921 0.950 . S
H2914 C2919 0.950 . S
H2915 C2920 0.949 . S
H2916 C2922 0.950 . S
H2917 C2923 0.950 . S
H2918 C2924 0.949 . S
C2919 H2914 0.950 . S
C2919 C2921 1.327 . S
C2919 C2925 1.429 . S
C2920 C2912 1.574 . S
C2920 H2915 0.949 . S
C2920 C2926 1.368 . S
C2921 C2905 1.349 . S
C2921 H2913 0.950 . S
C2921 C2919 1.327 . S
C2922 C2910 1.349 . S
C2922 H2916 0.950 . S
C2922 C2923 1.327 . S
C2923 H2917 0.950 . S
C2923 C2922 1.327 . S
C2923 C2927 1.429 . S
C2924 C2907 1.574 . S
C2924 H2918 0.949 . S
C2924 C2928 1.368 . S
C2925 C2906 1.429 . S
C2925 C2919 1.429 . S
C2925 C2926 1.523 . S
C2926 C2907 1.368 . S
C2926 C2920 1.368 . S
C2926 C2925 1.523 . S
C2927 C2911 1.429 . S
C2927 C2923 1.429 . S
C2927 C2928 1.523 . S
C2928 C2912 1.368 . S
C2928 C2924 1.368 . S
C2928 C2927 1.523 . S
H2929 C2904 0.950 . S
H2930 C2906 0.950 . S
H2931 C2907 0.949 . S
H2932 C2909 0.950 . S
H2933 C2911 0.950 . S
C2934 C2935 1.349 . S
C2934 C2936 1.327 . S
C2934 H2959 0.950 . S
C2935 C2934 1.349 . S
C2935 C2951 1.349 . S
C2936 C2934 1.327 . S
C2936 C2955 1.429 . S
C2936 H2960 0.950 . S
C2937 C2954 1.574 . S
C2937 C2956 1.368 . S
C2937 H2961 0.949 . S
H2938 C2942 0.949 . S
C2939 C2940 1.349 . S
C2939 C2941 1.327 . S
C2939 H2962 0.950 . S
C2940 C2939 1.349 . S
C2940 C2952 1.349 . S
C2941 C2939 1.327 . S
C2941 C2957 1.429 . S
C2941 H2963 0.950 . S
C2942 H2938 0.949 . S
C2942 C2950 1.574 . S
C2942 C2958 1.368 . S
H2943 C2951 0.950 . S
H2944 C2949 0.950 . S
H2945 C2950 0.949 . S
H2946 C2952 0.950 . S
H2947 C2953 0.950 . S
H2948 C2954 0.949 . S
C2949 H2944 0.950 . S
C2949 C2951 1.327 . S
C2949 C2955 1.429 . S
C2950 C2942 1.574 . S
C2950 H2945 0.949 . S
C2950 C2956 1.368 . S
C2951 C2935 1.349 . S
C2951 H2943 0.950 . S
C2951 C2949 1.327 . S
C2952 C2940 1.349 . S
C2952 H2946 0.950 . S
C2952 C2953 1.327 . S
C2953 H2947 0.950 . S
C2953 C2952 1.327 . S
C2953 C2957 1.429 . S
C2954 C2937 1.574 . S
C2954 H2948 0.949 . S
C2954 C2958 1.368 . S
C2955 C2936 1.429 . S
C2955 C2949 1.429 . S
C2955 C2956 1.523 . S
C2956 C2937 1.368 . S
C2956 C2950 1.368 . S
C2956 C2955 1.523 . S
C2957 C2941 1.429 . S
C2957 C2953 1.429 . S
C2957 C2958 1.523 . S
C2958 C2942 1.368 . S
C2958 C2954 1.368 . S
C2958 C2957 1.523 . S
H2959 C2934 0.950 . S
H2960 C2936 0.950 . S
H2961 C2937 0.949 . S
H2962 C2939 0.950 . S
H2963 C2941 0.950 . S
C2964 C2965 1.349 . S
C2964 C2966 1.327 . S
C2964 H2989 0.950 . S
C2965 C2964 1.349 . S
C2965 C2981 1.349 . S
C2966 C2964 1.327 . S
C2966 C2985 1.429 . S
C2966 H2990 0.950 . S
C2967 C2984 1.574 . S
C2967 C2986 1.368 . S
C2967 H2991 0.949 . S
H2968 C2972 0.949 . S
C2969 C2970 1.349 . S
C2969 C2971 1.327 . S
C2969 H2992 0.950 . S
C2970 C2969 1.349 . S
C2970 C2982 1.349 . S
C2971 C2969 1.327 . S
C2971 C2987 1.429 . S
C2971 H2993 0.950 . S
C2972 H2968 0.949 . S
C2972 C2980 1.574 . S
C2972 C2988 1.368 . S
H2973 C2981 0.950 . S
H2974 C2979 0.950 . S
H2975 C2980 0.949 . S
H2976 C2982 0.950 . S
H2977 C2983 0.950 . S
H2978 C2984 0.949 . S
C2979 H2974 0.950 . S
C2979 C2981 1.327 . S
C2979 C2985 1.429 . S
C2980 C2972 1.574 . S
C2980 H2975 0.949 . S
C2980 C2986 1.368 . S
C2981 C2965 1.349 . S
C2981 H2973 0.950 . S
C2981 C2979 1.327 . S
C2982 C2970 1.349 . S
C2982 H2976 0.950 . S
C2982 C2983 1.327 . S
C2983 H2977 0.950 . S
C2983 C2982 1.327 . S
C2983 C2987 1.429 . S
C2984 C2967 1.574 . S
C2984 H2978 0.949 . S
C2984 C2988 1.368 . S
C2985 C2966 1.429 . S
C2985 C2979 1.429 . S
C2985 C2986 1.523 . S
C2986 C2967 1.368 . S
C2986 C2980 1.368 . S
C2986 C2985 1.523 . S
C2987 C2971 1.429 . S
C2987 C2983 1.429 . S
C2987 C2988 1.523 . S
C2988 C2972 1.368 . S
C2988 C2984 1.368 . S
C2988 C2987 1.523 . S
H2989 C2964 0.950 . S
H2990 C2966 0.950 . S
H2991 C2967 0.949 . S
H2992 C2969 0.950 . S
H2993 C2971 0.950 . S
C2994 C2995 1.349 . S
C2994 C2996 1.327 . S
C2994 H3019 0.950 . S
C2995 C2994 1.349 . S
C2995 C3011 1.349 . S
C2996 C2994 1.327 . S
C2996 C3015 1.429 . S
C2996 H3020 0.950 . S
C2997 C3014 1.574 . S
C2997 C3016 1.368 . S
C2997 H3021 0.949 . S
H2998 C3002 0.949 . S
C2999 C3000 1.349 . S
C2999 C3001 1.327 . S
C2999 H3022 0.950 . S
C3000 C2999 1.349 . S
C3000 C3012 1.349 . S
C3001 C2999 1.327 . S
C3001 C3017 1.429 . S
C3001 H3023 0.950 . S
C3002 H2998 0.949 . S
C3002 C3010 1.574 . S
C3002 C3018 1.368 . S
H3003 C3011 0.950 . S
H3004 C3009 0.950 . S
H3005 C3010 0.949 . S
H3006 C3012 0.950 . S
H3007 C3013 0.950 . S
H3008 C3014 0.949 . S
C3009 H3004 0.950 . S
C3009 C3011 1.327 . S
C3009 C3015 1.429 . S
C3010 C3002 1.574 . S
C3010 H3005 0.949 . S
C3010 C3016 1.368 . S
C3011 C2995 1.349 . S
C3011 H3003 0.950 . S
C3011 C3009 1.327 . S
C3012 C3000 1.349 . S
C3012 H3006 0.950 . S
C3012 C3013 1.327 . S
C3013 H3007 0.950 . S
C3013 C3012 1.327 . S
C3013 C3017 1.429 . S
C3014 C2997 1.574 . S
C3014 H3008 0.949 . S
C3014 C3018 1.368 . S
C3015 C2996 1.429 . S
C3015 C3009 1.429 . S
C3015 C3016 1.523 . S
C3016 C2997 1.368 . S
C3016 C3010 1.368 . S
C3016 C3015 1.523 . S
C3017 C3001 1.429 . S
C3017 C3013 1.429 . S
C3017 C3018 1.523 . S
C3018 C3002 1.368 . S
C3018 C3014 1.368 . S
C3018 C3017 1.523 . S
H3019 C2994 0.950 . S
H3020 C2996 0.950 . S
H3021 C2997 0.949 . S
H3022 C2999 0.950 . S
H3023 C3001 0.950 . S
C3024 C3025 1.349 . S
C3024 C3026 1.327 . S
C3024 H3049 0.950 . S
C3025 C3024 1.349 . S
C3025 C3041 1.349 . S
C3026 C3024 1.327 . S
C3026 C3045 1.429 . S
C3026 H3050 0.950 . S
C3027 C3044 1.574 . S
C3027 C3046 1.368 . S
C3027 H3051 0.949 . S
H3028 C3032 0.949 . S
C3029 C3030 1.349 . S
C3029 C3031 1.327 . S
C3029 H3052 0.950 . S
C3030 C3029 1.349 . S
C3030 C3042 1.349 . S
C3031 C3029 1.327 . S
C3031 C3047 1.429 . S
C3031 H3053 0.950 . S
C3032 H3028 0.949 . S
C3032 C3040 1.574 . S
C3032 C3048 1.368 . S
H3033 C3041 0.950 . S
H3034 C3039 0.950 . S
H3035 C3040 0.949 . S
H3036 C3042 0.950 . S
H3037 C3043 0.950 . S
H3038 C3044 0.949 . S
C3039 H3034 0.950 . S
C3039 C3041 1.327 . S
C3039 C3045 1.429 . S
C3040 C3032 1.574 . S
C3040 H3035 0.949 . S
C3040 C3046 1.368 . S
C3041 C3025 1.349 . S
C3041 H3033 0.950 . S
C3041 C3039 1.327 . S
C3042 C3030 1.349 . S
C3042 H3036 0.950 . S
C3042 C3043 1.327 . S
C3043 H3037 0.950 . S
C3043 C3042 1.327 . S
C3043 C3047 1.429 . S
C3044 C3027 1.574 . S
C3044 H3038 0.949 . S
C3044 C3048 1.368 . S
C3045 C3026 1.429 . S
C3045 C3039 1.429 . S
C3045 C3046 1.523 . S
C3046 C3027 1.368 . S
C3046 C3040 1.368 . S
C3046 C3045 1.523 . S
C3047 C3031 1.429 . S
C3047 C3043 1.429 . S
C3047 C3048 1.523 . S
C3048 C3032 1.368 . S
C3048 C3044 1.368 . S
C3048 C3047 1.523 . S
H3049 C3024 0.950 . S
H3050 C3026 0.950 . S
H3051 C3027 0.949 . S
H3052 C3029 0.950 . S
H3053 C3031 0.950 . S
C3054 C3055 1.349 . S
C3054 C3056 1.327 . S
C3054 H3079 0.950 . S
C3055 C3054 1.349 . S
C3055 C3071 1.349 . S
C3056 C3054 1.327 . S
C3056 C3075 1.429 . S
C3056 H3080 0.950 . S
C3057 C3074 1.574 . S
C3057 C3076 1.368 . S
C3057 H3081 0.949 . S
H3058 C3062 0.949 . S
C3059 C3060 1.349 . S
C3059 C3061 1.327 . S
C3059 H3082 0.950 . S
C3060 C3059 1.349 . S
C3060 C3072 1.349 . S
C3061 C3059 1.327 . S
C3061 C3077 1.429 . S
C3061 H3083 0.950 . S
C3062 H3058 0.949 . S
C3062 C3070 1.574 . S
C3062 C3078 1.368 . S
H3063 C3071 0.950 . S
H3064 C3069 0.950 . S
H3065 C3070 0.949 . S
H3066 C3072 0.950 . S
H3067 C3073 0.950 . S
H3068 C3074 0.949 . S
C3069 H3064 0.950 . S
C3069 C3071 1.327 . S
C3069 C3075 1.429 . S
C3070 C3062 1.574 . S
C3070 H3065 0.949 . S
C3070 C3076 1.368 . S
C3071 C3055 1.349 . S
C3071 H3063 0.950 . S
C3071 C3069 1.327 . S
C3072 C3060 1.349 . S
C3072 H3066 0.950 . S
C3072 C3073 1.327 . S
C3073 H3067 0.950 . S
C3073 C3072 1.327 . S
C3073 C3077 1.429 . S
C3074 C3057 1.574 . S
C3074 H3068 0.949 . S
C3074 C3078 1.368 . S
C3075 C3056 1.429 . S
C3075 C3069 1.429 . S
C3075 C3076 1.523 . S
C3076 C3057 1.368 . S
C3076 C3070 1.368 . S
C3076 C3075 1.523 . S
C3077 C3061 1.429 . S
C3077 C3073 1.429 . S
C3077 C3078 1.523 . S
C3078 C3062 1.368 . S
C3078 C3074 1.368 . S
C3078 C3077 1.523 . S
H3079 C3054 0.950 . S
H3080 C3056 0.950 . S
H3081 C3057 0.949 . S
H3082 C3059 0.950 . S
H3083 C3061 0.950 . S
C3084 C3085 1.349 . S
C3084 C3086 1.327 . S
C3084 H3109 0.950 . S
C3085 C3084 1.349 . S
C3085 C3101 1.349 . S
C3086 C3084 1.327 . S
C3086 C3105 1.429 . S
C3086 H3110 0.950 . S
C3087 C3104 1.574 . S
C3087 C3106 1.368 . S
C3087 H3111 0.949 . S
H3088 C3092 0.949 . S
C3089 C3090 1.349 . S
C3089 C3091 1.327 . S
C3089 H3112 0.950 . S
C3090 C3089 1.349 . S
C3090 C3102 1.349 . S
C3091 C3089 1.327 . S
C3091 C3107 1.429 . S
C3091 H3113 0.950 . S
C3092 H3088 0.949 . S
C3092 C3100 1.574 . S
C3092 C3108 1.368 . S
H3093 C3101 0.950 . S
H3094 C3099 0.950 . S
H3095 C3100 0.949 . S
H3096 C3102 0.950 . S
H3097 C3103 0.950 . S
H3098 C3104 0.949 . S
C3099 H3094 0.950 . S
C3099 C3101 1.327 . S
C3099 C3105 1.429 . S
C3100 C3092 1.574 . S
C3100 H3095 0.949 . S
C3100 C3106 1.368 . S
C3101 C3085 1.349 . S
C3101 H3093 0.950 . S
C3101 C3099 1.327 . S
C3102 C3090 1.349 . S
C3102 H3096 0.950 . S
C3102 C3103 1.327 . S
C3103 H3097 0.950 . S
C3103 C3102 1.327 . S
C3103 C3107 1.429 . S
C3104 C3087 1.574 . S
C3104 H3098 0.949 . S
C3104 C3108 1.368 . S
C3105 C3086 1.429 . S
C3105 C3099 1.429 . S
C3105 C3106 1.523 . S
C3106 C3087 1.368 . S
C3106 C3100 1.368 . S
C3106 C3105 1.523 . S
C3107 C3091 1.429 . S
C3107 C3103 1.429 . S
C3107 C3108 1.523 . S
C3108 C3092 1.368 . S
C3108 C3104 1.368 . S
C3108 C3107 1.523 . S
H3109 C3084 0.950 . S
H3110 C3086 0.950 . S
H3111 C3087 0.949 . S
H3112 C3089 0.950 . S
H3113 C3091 0.950 . S
C3114 C3115 1.349 . S
C3114 C3116 1.327 . S
C3114 H3139 0.950 . S
C3115 C3114 1.349 . S
C3115 C3131 1.349 . S
C3116 C3114 1.327 . S
C3116 C3135 1.429 . S
C3116 H3140 0.950 . S
C3117 C3134 1.574 . S
C3117 C3136 1.368 . S
C3117 H3141 0.949 . S
H3118 C3122 0.949 . S
C3119 C3120 1.349 . S
C3119 C3121 1.327 . S
C3119 H3142 0.950 . S
C3120 C3119 1.349 . S
C3120 C3132 1.349 . S
C3121 C3119 1.327 . S
C3121 C3137 1.429 . S
C3121 H3143 0.950 . S
C3122 H3118 0.949 . S
C3122 C3130 1.574 . S
C3122 C3138 1.368 . S
H3123 C3131 0.950 . S
H3124 C3129 0.950 . S
H3125 C3130 0.949 . S
H3126 C3132 0.950 . S
H3127 C3133 0.950 . S
H3128 C3134 0.949 . S
C3129 H3124 0.950 . S
C3129 C3131 1.327 . S
C3129 C3135 1.429 . S
C3130 C3122 1.574 . S
C3130 H3125 0.949 . S
C3130 C3136 1.368 . S
C3131 C3115 1.349 . S
C3131 H3123 0.950 . S
C3131 C3129 1.327 . S
C3132 C3120 1.349 . S
C3132 H3126 0.950 . S
C3132 C3133 1.327 . S
C3133 H3127 0.950 . S
C3133 C3132 1.327 . S
C3133 C3137 1.429 . S
C3134 C3117 1.574 . S
C3134 H3128 0.949 . S
C3134 C3138 1.368 . S
C3135 C3116 1.429 . S
C3135 C3129 1.429 . S
C3135 C3136 1.523 . S
C3136 C3117 1.368 . S
C3136 C3130 1.368 . S
C3136 C3135 1.523 . S
C3137 C3121 1.429 . S
C3137 C3133 1.429 . S
C3137 C3138 1.523 . S
C3138 C3122 1.368 . S
C3138 C3134 1.368 . S
C3138 C3137 1.523 . S
H3139 C3114 0.950 . S
H3140 C3116 0.950 . S
H3141 C3117 0.949 . S
H3142 C3119 0.950 . S
H3143 C3121 0.950 . S
C3144 C3145 1.349 . S
C3144 C3146 1.327 . S
C3144 H3169 0.950 . S
C3145 C3144 1.349 . S
C3145 C3161 1.349 . S
C3146 C3144 1.327 . S
C3146 C3165 1.429 . S
C3146 H3170 0.950 . S
C3147 C3164 1.574 . S
C3147 C3166 1.368 . S
C3147 H3171 0.949 . S
H3148 C3152 0.949 . S
C3149 C3150 1.349 . S
C3149 C3151 1.327 . S
C3149 H3172 0.950 . S
C3150 C3149 1.349 . S
C3150 C3162 1.349 . S
C3151 C3149 1.327 . S
C3151 C3167 1.429 . S
C3151 H3173 0.950 . S
C3152 H3148 0.949 . S
C3152 C3160 1.574 . S
C3152 C3168 1.368 . S
H3153 C3161 0.950 . S
H3154 C3159 0.950 . S
H3155 C3160 0.949 . S
H3156 C3162 0.950 . S
H3157 C3163 0.950 . S
H3158 C3164 0.949 . S
C3159 H3154 0.950 . S
C3159 C3161 1.327 . S
C3159 C3165 1.429 . S
C3160 C3152 1.574 . S
C3160 H3155 0.949 . S
C3160 C3166 1.368 . S
C3161 C3145 1.349 . S
C3161 H3153 0.950 . S
C3161 C3159 1.327 . S
C3162 C3150 1.349 . S
C3162 H3156 0.950 . S
C3162 C3163 1.327 . S
C3163 H3157 0.950 . S
C3163 C3162 1.327 . S
C3163 C3167 1.429 . S
C3164 C3147 1.574 . S
C3164 H3158 0.949 . S
C3164 C3168 1.368 . S
C3165 C3146 1.429 . S
C3165 C3159 1.429 . S
C3165 C3166 1.523 . S
C3166 C3147 1.368 . S
C3166 C3160 1.368 . S
C3166 C3165 1.523 . S
C3167 C3151 1.429 . S
C3167 C3163 1.429 . S
C3167 C3168 1.523 . S
C3168 C3152 1.368 . S
C3168 C3164 1.368 . S
C3168 C3167 1.523 . S
H3169 C3144 0.950 . S
H3170 C3146 0.950 . S
H3171 C3147 0.949 . S
H3172 C3149 0.950 . S
H3173 C3151 0.950 . S
C3174 C3175 1.349 . S
C3174 C3176 1.327 . S
C3174 H3199 0.950 . S
C3175 C3174 1.349 . S
C3175 C3191 1.349 . S
C3176 C3174 1.327 . S
C3176 C3195 1.429 . S
C3176 H3200 0.950 . S
C3177 C3194 1.574 . S
C3177 C3196 1.368 . S
C3177 H3201 0.949 . S
H3178 C3182 0.949 . S
C3179 C3180 1.349 . S
C3179 C3181 1.327 . S
C3179 H3202 0.950 . S
C3180 C3179 1.349 . S
C3180 C3192 1.349 . S
C3181 C3179 1.327 . S
C3181 C3197 1.429 . S
C3181 H3203 0.950 . S
C3182 H3178 0.949 . S
C3182 C3190 1.574 . S
C3182 C3198 1.368 . S
H3183 C3191 0.950 . S
H3184 C3189 0.950 . S
H3185 C3190 0.949 . S
H3186 C3192 0.950 . S
H3187 C3193 0.950 . S
H3188 C3194 0.949 . S
C3189 H3184 0.950 . S
C3189 C3191 1.327 . S
C3189 C3195 1.429 . S
C3190 C3182 1.574 . S
C3190 H3185 0.949 . S
C3190 C3196 1.368 . S
C3191 C3175 1.349 . S
C3191 H3183 0.950 . S
C3191 C3189 1.327 . S
C3192 C3180 1.349 . S
C3192 H3186 0.950 . S
C3192 C3193 1.327 . S
C3193 H3187 0.950 . S
C3193 C3192 1.327 . S
C3193 C3197 1.429 . S
C3194 C3177 1.574 . S
C3194 H3188 0.949 . S
C3194 C3198 1.368 . S
C3195 C3176 1.429 . S
C3195 C3189 1.429 . S
C3195 C3196 1.523 . S
C3196 C3177 1.368 . S
C3196 C3190 1.368 . S
C3196 C3195 1.523 . S
C3197 C3181 1.429 . S
C3197 C3193 1.429 . S
C3197 C3198 1.523 . S
C3198 C3182 1.368 . S
C3198 C3194 1.368 . S
C3198 C3197 1.523 . S
H3199 C3174 0.950 . S
H3200 C3176 0.950 . S
H3201 C3177 0.949 . S
H3202 C3179 0.950 . S
H3203 C3181 0.950 . S
C3204 C3205 1.349 . S
C3204 C3206 1.327 . S
C3204 H3229 0.950 . S
C3205 C3204 1.349 . S
C3205 C3221 1.349 . S
C3206 C3204 1.327 . S
C3206 C3225 1.429 . S
C3206 H3230 0.950 . S
C3207 C3224 1.574 . S
C3207 C3226 1.368 . S
C3207 H3231 0.949 . S
H3208 C3212 0.949 . S
C3209 C3210 1.349 . S
C3209 C3211 1.327 . S
C3209 H3232 0.950 . S
C3210 C3209 1.349 . S
C3210 C3222 1.349 . S
C3211 C3209 1.327 . S
C3211 C3227 1.429 . S
C3211 H3233 0.950 . S
C3212 H3208 0.949 . S
C3212 C3220 1.574 . S
C3212 C3228 1.368 . S
H3213 C3221 0.950 . S
H3214 C3219 0.950 . S
H3215 C3220 0.949 . S
H3216 C3222 0.950 . S
H3217 C3223 0.950 . S
H3218 C3224 0.949 . S
C3219 H3214 0.950 . S
C3219 C3221 1.327 . S
C3219 C3225 1.429 . S
C3220 C3212 1.574 . S
C3220 H3215 0.949 . S
C3220 C3226 1.368 . S
C3221 C3205 1.349 . S
C3221 H3213 0.950 . S
C3221 C3219 1.327 . S
C3222 C3210 1.349 . S
C3222 H3216 0.950 . S
C3222 C3223 1.327 . S
C3223 H3217 0.950 . S
C3223 C3222 1.327 . S
C3223 C3227 1.429 . S
C3224 C3207 1.574 . S
C3224 H3218 0.949 . S
C3224 C3228 1.368 . S
C3225 C3206 1.429 . S
C3225 C3219 1.429 . S
C3225 C3226 1.523 . S
C3226 C3207 1.368 . S
C3226 C3220 1.368 . S
C3226 C3225 1.523 . S
C3227 C3211 1.429 . S
C3227 C3223 1.429 . S
C3227 C3228 1.523 . S
C3228 C3212 1.368 . S
C3228 C3224 1.368 . S
C3228 C3227 1.523 . S
H3229 C3204 0.950 . S
H3230 C3206 0.950 . S
H3231 C3207 0.949 . S
H3232 C3209 0.950 . S
H3233 C3211 0.950 . S
C3234 C3235 1.349 . S
C3234 C3236 1.327 . S
C3234 H3259 0.950 . S
C3235 C3234 1.349 . S
C3235 C3251 1.349 . S
C3236 C3234 1.327 . S
C3236 C3255 1.429 . S
C3236 H3260 0.950 . S
C3237 C3254 1.574 . S
C3237 C3256 1.368 . S
C3237 H3261 0.949 . S
H3238 C3242 0.949 . S
C3239 C3240 1.349 . S
C3239 C3241 1.327 . S
C3239 H3262 0.950 . S
C3240 C3239 1.349 . S
C3240 C3252 1.349 . S
C3241 C3239 1.327 . S
C3241 C3257 1.429 . S
C3241 H3263 0.950 . S
C3242 H3238 0.949 . S
C3242 C3250 1.574 . S
C3242 C3258 1.368 . S
H3243 C3251 0.950 . S
H3244 C3249 0.950 . S
H3245 C3250 0.949 . S
H3246 C3252 0.950 . S
H3247 C3253 0.950 . S
H3248 C3254 0.949 . S
C3249 H3244 0.950 . S
C3249 C3251 1.327 . S
C3249 C3255 1.429 . S
C3250 C3242 1.574 . S
C3250 H3245 0.949 . S
C3250 C3256 1.368 . S
C3251 C3235 1.349 . S
C3251 H3243 0.950 . S
C3251 C3249 1.327 . S
C3252 C3240 1.349 . S
C3252 H3246 0.950 . S
C3252 C3253 1.327 . S
C3253 H3247 0.950 . S
C3253 C3252 1.327 . S
C3253 C3257 1.429 . S
C3254 C3237 1.574 . S
C3254 H3248 0.949 . S
C3254 C3258 1.368 . S
C3255 C3236 1.429 . S
C3255 C3249 1.429 . S
C3255 C3256 1.523 . S
C3256 C3237 1.368 . S
C3256 C3250 1.368 . S
C3256 C3255 1.523 . S
C3257 C3241 1.429 . S
C3257 C3253 1.429 . S
C3257 C3258 1.523 . S
C3258 C3242 1.368 . S
C3258 C3254 1.368 . S
C3258 C3257 1.523 . S
H3259 C3234 0.950 . S
H3260 C3236 0.950 . S
H3261 C3237 0.949 . S
H3262 C3239 0.950 . S
H3263 C3241 0.950 . S
C3264 C3265 1.349 . S
C3264 C3266 1.327 . S
C3264 H3289 0.950 . S
C3265 C3264 1.349 . S
C3265 C3281 1.349 . S
C3266 C3264 1.327 . S
C3266 C3285 1.429 . S
C3266 H3290 0.950 . S
C3267 C3284 1.574 . S
C3267 C3286 1.368 . S
C3267 H3291 0.949 . S
H3268 C3272 0.949 . S
C3269 C3270 1.349 . S
C3269 C3271 1.327 . S
C3269 H3292 0.950 . S
C3270 C3269 1.349 . S
C3270 C3282 1.349 . S
C3271 C3269 1.327 . S
C3271 C3287 1.429 . S
C3271 H3293 0.950 . S
C3272 H3268 0.949 . S
C3272 C3280 1.574 . S
C3272 C3288 1.368 . S
H3273 C3281 0.950 . S
H3274 C3279 0.950 . S
H3275 C3280 0.949 . S
H3276 C3282 0.950 . S
H3277 C3283 0.950 . S
H3278 C3284 0.949 . S
C3279 H3274 0.950 . S
C3279 C3281 1.327 . S
C3279 C3285 1.429 . S
C3280 C3272 1.574 . S
C3280 H3275 0.949 . S
C3280 C3286 1.368 . S
C3281 C3265 1.349 . S
C3281 H3273 0.950 . S
C3281 C3279 1.327 . S
C3282 C3270 1.349 . S
C3282 H3276 0.950 . S
C3282 C3283 1.327 . S
C3283 H3277 0.950 . S
C3283 C3282 1.327 . S
C3283 C3287 1.429 . S
C3284 C3267 1.574 . S
C3284 H3278 0.949 . S
C3284 C3288 1.368 . S
C3285 C3266 1.429 . S
C3285 C3279 1.429 . S
C3285 C3286 1.523 . S
C3286 C3267 1.368 . S
C3286 C3280 1.368 . S
C3286 C3285 1.523 . S
C3287 C3271 1.429 . S
C3287 C3283 1.429 . S
C3287 C3288 1.523 . S
C3288 C3272 1.368 . S
C3288 C3284 1.368 . S
C3288 C3287 1.523 . S
H3289 C3264 0.950 . S
H3290 C3266 0.950 . S
H3291 C3267 0.949 . S
H3292 C3269 0.950 . S
H3293 C3271 0.950 . S
C3294 C3295 1.349 . S
C3294 C3296 1.327 . S
C3294 H3319 0.950 . S
C3295 C3294 1.349 . S
C3295 C3311 1.349 . S
C3296 C3294 1.327 . S
C3296 C3315 1.429 . S
C3296 H3320 0.950 . S
C3297 C3314 1.574 . S
C3297 C3316 1.368 . S
C3297 H3321 0.949 . S
H3298 C3302 0.949 . S
C3299 C3300 1.349 . S
C3299 C3301 1.327 . S
C3299 H3322 0.950 . S
C3300 C3299 1.349 . S
C3300 C3312 1.349 . S
C3301 C3299 1.327 . S
C3301 C3317 1.429 . S
C3301 H3323 0.950 . S
C3302 H3298 0.949 . S
C3302 C3310 1.574 . S
C3302 C3318 1.368 . S
H3303 C3311 0.950 . S
H3304 C3309 0.950 . S
H3305 C3310 0.949 . S
H3306 C3312 0.950 . S
H3307 C3313 0.950 . S
H3308 C3314 0.949 . S
C3309 H3304 0.950 . S
C3309 C3311 1.327 . S
C3309 C3315 1.429 . S
C3310 C3302 1.574 . S
C3310 H3305 0.949 . S
C3310 C3316 1.368 . S
C3311 C3295 1.349 . S
C3311 H3303 0.950 . S
C3311 C3309 1.327 . S
C3312 C3300 1.349 . S
C3312 H3306 0.950 . S
C3312 C3313 1.327 . S
C3313 H3307 0.950 . S
C3313 C3312 1.327 . S
C3313 C3317 1.429 . S
C3314 C3297 1.574 . S
C3314 H3308 0.949 . S
C3314 C3318 1.368 . S
C3315 C3296 1.429 . S
C3315 C3309 1.429 . S
C3315 C3316 1.523 . S
C3316 C3297 1.368 . S
C3316 C3310 1.368 . S
C3316 C3315 1.523 . S
C3317 C3301 1.429 . S
C3317 C3313 1.429 . S
C3317 C3318 1.523 . S
C3318 C3302 1.368 . S
C3318 C3314 1.368 . S
C3318 C3317 1.523 . S
H3319 C3294 0.950 . S
H3320 C3296 0.950 . S
H3321 C3297 0.949 . S
H3322 C3299 0.950 . S
H3323 C3301 0.950 . S
C3324 C3325 1.349 . S
C3324 C3326 1.327 . S
C3324 H3349 0.950 . S
C3325 C3324 1.349 . S
C3325 C3341 1.349 . S
C3326 C3324 1.327 . S
C3326 C3345 1.429 . S
C3326 H3350 0.950 . S
C3327 C3344 1.574 . S
C3327 C3346 1.368 . S
C3327 H3351 0.949 . S
H3328 C3332 0.949 . S
C3329 C3330 1.349 . S
C3329 C3331 1.327 . S
C3329 H3352 0.950 . S
C3330 C3329 1.349 . S
C3330 C3342 1.349 . S
C3331 C3329 1.327 . S
C3331 C3347 1.429 . S
C3331 H3353 0.950 . S
C3332 H3328 0.949 . S
C3332 C3340 1.574 . S
C3332 C3348 1.368 . S
H3333 C3341 0.950 . S
H3334 C3339 0.950 . S
H3335 C3340 0.949 . S
H3336 C3342 0.950 . S
H3337 C3343 0.950 . S
H3338 C3344 0.949 . S
C3339 H3334 0.950 . S
C3339 C3341 1.327 . S
C3339 C3345 1.429 . S
C3340 C3332 1.574 . S
C3340 H3335 0.949 . S
C3340 C3346 1.368 . S
C3341 C3325 1.349 . S
C3341 H3333 0.950 . S
C3341 C3339 1.327 . S
C3342 C3330 1.349 . S
C3342 H3336 0.950 . S
C3342 C3343 1.327 . S
C3343 H3337 0.950 . S
C3343 C3342 1.327 . S
C3343 C3347 1.429 . S
C3344 C3327 1.574 . S
C3344 H3338 0.949 . S
C3344 C3348 1.368 . S
C3345 C3326 1.429 . S
C3345 C3339 1.429 . S
C3345 C3346 1.523 . S
C3346 C3327 1.368 . S
C3346 C3340 1.368 . S
C3346 C3345 1.523 . S
C3347 C3331 1.429 . S
C3347 C3343 1.429 . S
C3347 C3348 1.523 . S
C3348 C3332 1.368 . S
C3348 C3344 1.368 . S
C3348 C3347 1.523 . S
H3349 C3324 0.950 . S
H3350 C3326 0.950 . S
H3351 C3327 0.949 . S
H3352 C3329 0.950 . S
H3353 C3331 0.950 . S
C3354 C3355 1.349 . S
C3354 C3356 1.327 . S
C3354 H3379 0.950 . S
C3355 C3354 1.349 . S
C3355 C3371 1.349 . S
C3356 C3354 1.327 . S
C3356 C3375 1.429 . S
C3356 H3380 0.950 . S
C3357 C3374 1.574 . S
C3357 C3376 1.368 . S
C3357 H3381 0.949 . S
H3358 C3362 0.949 . S
C3359 C3360 1.349 . S
C3359 C3361 1.327 . S
C3359 H3382 0.950 . S
C3360 C3359 1.349 . S
C3360 C3372 1.349 . S
C3361 C3359 1.327 . S
C3361 C3377 1.429 . S
C3361 H3383 0.950 . S
C3362 H3358 0.949 . S
C3362 C3370 1.574 . S
C3362 C3378 1.368 . S
H3363 C3371 0.950 . S
H3364 C3369 0.950 . S
H3365 C3370 0.949 . S
H3366 C3372 0.950 . S
H3367 C3373 0.950 . S
H3368 C3374 0.949 . S
C3369 H3364 0.950 . S
C3369 C3371 1.327 . S
C3369 C3375 1.429 . S
C3370 C3362 1.574 . S
C3370 H3365 0.949 . S
C3370 C3376 1.368 . S
C3371 C3355 1.349 . S
C3371 H3363 0.950 . S
C3371 C3369 1.327 . S
C3372 C3360 1.349 . S
C3372 H3366 0.950 . S
C3372 C3373 1.327 . S
C3373 H3367 0.950 . S
C3373 C3372 1.327 . S
C3373 C3377 1.429 . S
C3374 C3357 1.574 . S
C3374 H3368 0.949 . S
C3374 C3378 1.368 . S
C3375 C3356 1.429 . S
C3375 C3369 1.429 . S
C3375 C3376 1.523 . S
C3376 C3357 1.368 . S
C3376 C3370 1.368 . S
C3376 C3375 1.523 . S
C3377 C3361 1.429 . S
C3377 C3373 1.429 . S
C3377 C3378 1.523 . S
C3378 C3362 1.368 . S
C3378 C3374 1.368 . S
C3378 C3377 1.523 . S
H3379 C3354 0.950 . S
H3380 C3356 0.950 . S
H3381 C3357 0.949 . S
H3382 C3359 0.950 . S
H3383 C3361 0.950 . S
C3384 C3385 1.349 . S
C3384 C3386 1.327 . S
C3384 H3409 0.950 . S
C3385 C3384 1.349 . S
C3385 C3401 1.349 . S
C3386 C3384 1.327 . S
C3386 C3405 1.429 . S
C3386 H3410 0.950 . S
C3387 C3404 1.574 . S
C3387 C3406 1.368 . S
C3387 H3411 0.949 . S
H3388 C3392 0.949 . S
C3389 C3390 1.349 . S
C3389 C3391 1.327 . S
C3389 H3412 0.950 . S
C3390 C3389 1.349 . S
C3390 C3402 1.349 . S
C3391 C3389 1.327 . S
C3391 C3407 1.429 . S
C3391 H3413 0.950 . S
C3392 H3388 0.949 . S
C3392 C3400 1.574 . S
C3392 C3408 1.368 . S
H3393 C3401 0.950 . S
H3394 C3399 0.950 . S
H3395 C3400 0.949 . S
H3396 C3402 0.950 . S
H3397 C3403 0.950 . S
H3398 C3404 0.949 . S
C3399 H3394 0.950 . S
C3399 C3401 1.327 . S
C3399 C3405 1.429 . S
C3400 C3392 1.574 . S
C3400 H3395 0.949 . S
C3400 C3406 1.368 . S
C3401 C3385 1.349 . S
C3401 H3393 0.950 . S
C3401 C3399 1.327 . S
C3402 C3390 1.349 . S
C3402 H3396 0.950 . S
C3402 C3403 1.327 . S
C3403 H3397 0.950 . S
C3403 C3402 1.327 . S
C3403 C3407 1.429 . S
C3404 C3387 1.574 . S
C3404 H3398 0.949 . S
C3404 C3408 1.368 . S
C3405 C3386 1.429 . S
C3405 C3399 1.429 . S
C3405 C3406 1.523 . S
C3406 C3387 1.368 . S
C3406 C3400 1.368 . S
C3406 C3405 1.523 . S
C3407 C3391 1.429 . S
C3407 C3403 1.429 . S
C3407 C3408 1.523 . S
C3408 C3392 1.368 . S
C3408 C3404 1.368 . S
C3408 C3407 1.523 . S
H3409 C3384 0.950 . S
H3410 C3386 0.950 . S
H3411 C3387 0.949 . S
H3412 C3389 0.950 . S
H3413 C3391 0.950 . S
C3414 C3415 1.349 . S
C3414 C3416 1.327 . S
C3414 H3439 0.950 . S
C3415 C3414 1.349 . S
C3415 C3431 1.349 . S
C3416 C3414 1.327 . S
C3416 C3435 1.429 . S
C3416 H3440 0.950 . S
C3417 C3434 1.574 . S
C3417 C3436 1.368 . S
C3417 H3441 0.949 . S
H3418 C3422 0.949 . S
C3419 C3420 1.349 . S
C3419 C3421 1.327 . S
C3419 H3442 0.950 . S
C3420 C3419 1.349 . S
C3420 C3432 1.349 . S
C3421 C3419 1.327 . S
C3421 C3437 1.429 . S
C3421 H3443 0.950 . S
C3422 H3418 0.949 . S
C3422 C3430 1.574 . S
C3422 C3438 1.368 . S
H3423 C3431 0.950 . S
H3424 C3429 0.950 . S
H3425 C3430 0.949 . S
H3426 C3432 0.950 . S
H3427 C3433 0.950 . S
H3428 C3434 0.949 . S
C3429 H3424 0.950 . S
C3429 C3431 1.327 . S
C3429 C3435 1.429 . S
C3430 C3422 1.574 . S
C3430 H3425 0.949 . S
C3430 C3436 1.368 . S
C3431 C3415 1.349 . S
C3431 H3423 0.950 . S
C3431 C3429 1.327 . S
C3432 C3420 1.349 . S
C3432 H3426 0.950 . S
C3432 C3433 1.327 . S
C3433 H3427 0.950 . S
C3433 C3432 1.327 . S
C3433 C3437 1.429 . S
C3434 C3417 1.574 . S
C3434 H3428 0.949 . S
C3434 C3438 1.368 . S
C3435 C3416 1.429 . S
C3435 C3429 1.429 . S
C3435 C3436 1.523 . S
C3436 C3417 1.368 . S
C3436 C3430 1.368 . S
C3436 C3435 1.523 . S
C3437 C3421 1.429 . S
C3437 C3433 1.429 . S
C3437 C3438 1.523 . S
C3438 C3422 1.368 . S
C3438 C3434 1.368 . S
C3438 C3437 1.523 . S
H3439 C3414 0.950 . S
H3440 C3416 0.950 . S
H3441 C3417 0.949 . S
H3442 C3419 0.950 . S
H3443 C3421 0.950 . S
C3444 C3445 1.349 . S
C3444 C3446 1.327 . S
C3444 H3469 0.950 . S
C3445 C3444 1.349 . S
C3445 C3461 1.349 . S
C3446 C3444 1.327 . S
C3446 C3465 1.429 . S
C3446 H3470 0.950 . S
C3447 C3464 1.574 . S
C3447 C3466 1.368 . S
C3447 H3471 0.949 . S
H3448 C3452 0.949 . S
C3449 C3450 1.349 . S
C3449 C3451 1.327 . S
C3449 H3472 0.950 . S
C3450 C3449 1.349 . S
C3450 C3462 1.349 . S
C3451 C3449 1.327 . S
C3451 C3467 1.429 . S
C3451 H3473 0.950 . S
C3452 H3448 0.949 . S
C3452 C3460 1.574 . S
C3452 C3468 1.368 . S
H3453 C3461 0.950 . S
H3454 C3459 0.950 . S
H3455 C3460 0.949 . S
H3456 C3462 0.950 . S
H3457 C3463 0.950 . S
H3458 C3464 0.949 . S
C3459 H3454 0.950 . S
C3459 C3461 1.327 . S
C3459 C3465 1.429 . S
C3460 C3452 1.574 . S
C3460 H3455 0.949 . S
C3460 C3466 1.368 . S
C3461 C3445 1.349 . S
C3461 H3453 0.950 . S
C3461 C3459 1.327 . S
C3462 C3450 1.349 . S
C3462 H3456 0.950 . S
C3462 C3463 1.327 . S
C3463 H3457 0.950 . S
C3463 C3462 1.327 . S
C3463 C3467 1.429 . S
C3464 C3447 1.574 . S
C3464 H3458 0.949 . S
C3464 C3468 1.368 . S
C3465 C3446 1.429 . S
C3465 C3459 1.429 . S
C3465 C3466 1.523 . S
C3466 C3447 1.368 . S
C3466 C3460 1.368 . S
C3466 C3465 1.523 . S
C3467 C3451 1.429 . S
C3467 C3463 1.429 . S
C3467 C3468 1.523 . S
C3468 C3452 1.368 . S
C3468 C3464 1.368 . S
C3468 C3467 1.523 . S
H3469 C3444 0.950 . S
H3470 C3446 0.950 . S
H3471 C3447 0.949 . S
H3472 C3449 0.950 . S
H3473 C3451 0.950 . S
C3474 C3475 1.349 . S
C3474 C3476 1.327 . S
C3474 H3499 0.950 . S
C3475 C3474 1.349 . S
C3475 C3491 1.349 . S
C3476 C3474 1.327 . S
C3476 C3495 1.429 . S
C3476 H3500 0.950 . S
C3477 C3494 1.574 . S
C3477 C3496 1.368 . S
C3477 H3501 0.949 . S
H3478 C3482 0.949 . S
C3479 C3480 1.349 . S
C3479 C3481 1.327 . S
C3479 H3502 0.950 . S
C3480 C3479 1.349 . S
C3480 C3492 1.349 . S
C3481 C3479 1.327 . S
C3481 C3497 1.429 . S
C3481 H3503 0.950 . S
C3482 H3478 0.949 . S
C3482 C3490 1.574 . S
C3482 C3498 1.368 . S
H3483 C3491 0.950 . S
H3484 C3489 0.950 . S
H3485 C3490 0.949 . S
H3486 C3492 0.950 . S
H3487 C3493 0.950 . S
H3488 C3494 0.949 . S
C3489 H3484 0.950 . S
C3489 C3491 1.327 . S
C3489 C3495 1.429 . S
C3490 C3482 1.574 . S
C3490 H3485 0.949 . S
C3490 C3496 1.368 . S
C3491 C3475 1.349 . S
C3491 H3483 0.950 . S
C3491 C3489 1.327 . S
C3492 C3480 1.349 . S
C3492 H3486 0.950 . S
C3492 C3493 1.327 . S
C3493 H3487 0.950 . S
C3493 C3492 1.327 . S
C3493 C3497 1.429 . S
C3494 C3477 1.574 . S
C3494 H3488 0.949 . S
C3494 C3498 1.368 . S
C3495 C3476 1.429 . S
C3495 C3489 1.429 . S
C3495 C3496 1.523 . S
C3496 C3477 1.368 . S
C3496 C3490 1.368 . S
C3496 C3495 1.523 . S
C3497 C3481 1.429 . S
C3497 C3493 1.429 . S
C3497 C3498 1.523 . S
C3498 C3482 1.368 . S
C3498 C3494 1.368 . S
C3498 C3497 1.523 . S
H3499 C3474 0.950 . S
H3500 C3476 0.950 . S
H3501 C3477 0.949 . S
H3502 C3479 0.950 . S
H3503 C3481 0.950 . S
C3504 C3505 1.349 . S
C3504 C3506 1.327 . S
C3504 H3529 0.950 . S
C3505 C3504 1.349 . S
C3505 C3521 1.349 . S
C3506 C3504 1.327 . S
C3506 C3525 1.429 . S
C3506 H3530 0.950 . S
C3507 C3524 1.574 . S
C3507 C3526 1.368 . S
C3507 H3531 0.949 . S
H3508 C3512 0.949 . S
C3509 C3510 1.349 . S
C3509 C3511 1.327 . S
C3509 H3532 0.950 . S
C3510 C3509 1.349 . S
C3510 C3522 1.349 . S
C3511 C3509 1.327 . S
C3511 C3527 1.429 . S
C3511 H3533 0.950 . S
C3512 H3508 0.949 . S
C3512 C3520 1.574 . S
C3512 C3528 1.368 . S
H3513 C3521 0.950 . S
H3514 C3519 0.950 . S
H3515 C3520 0.949 . S
H3516 C3522 0.950 . S
H3517 C3523 0.950 . S
H3518 C3524 0.949 . S
C3519 H3514 0.950 . S
C3519 C3521 1.327 . S
C3519 C3525 1.429 . S
C3520 C3512 1.574 . S
C3520 H3515 0.949 . S
C3520 C3526 1.368 . S
C3521 C3505 1.349 . S
C3521 H3513 0.950 . S
C3521 C3519 1.327 . S
C3522 C3510 1.349 . S
C3522 H3516 0.950 . S
C3522 C3523 1.327 . S
C3523 H3517 0.950 . S
C3523 C3522 1.327 . S
C3523 C3527 1.429 . S
C3524 C3507 1.574 . S
C3524 H3518 0.949 . S
C3524 C3528 1.368 . S
C3525 C3506 1.429 . S
C3525 C3519 1.429 . S
C3525 C3526 1.523 . S
C3526 C3507 1.368 . S
C3526 C3520 1.368 . S
C3526 C3525 1.523 . S
C3527 C3511 1.429 . S
C3527 C3523 1.429 . S
C3527 C3528 1.523 . S
C3528 C3512 1.368 . S
C3528 C3524 1.368 . S
C3528 C3527 1.523 . S
H3529 C3504 0.950 . S
H3530 C3506 0.950 . S
H3531 C3507 0.949 . S
H3532 C3509 0.950 . S
H3533 C3511 0.950 . S
C3534 C3535 1.349 . S
C3534 C3536 1.327 . S
C3534 H3559 0.950 . S
C3535 C3534 1.349 . S
C3535 C3551 1.349 . S
C3536 C3534 1.327 . S
C3536 C3555 1.429 . S
C3536 H3560 0.950 . S
C3537 C3554 1.574 . S
C3537 C3556 1.368 . S
C3537 H3561 0.949 . S
H3538 C3542 0.949 . S
C3539 C3540 1.349 . S
C3539 C3541 1.327 . S
C3539 H3562 0.950 . S
C3540 C3539 1.349 . S
C3540 C3552 1.349 . S
C3541 C3539 1.327 . S
C3541 C3557 1.429 . S
C3541 H3563 0.950 . S
C3542 H3538 0.949 . S
C3542 C3550 1.574 . S
C3542 C3558 1.368 . S
H3543 C3551 0.950 . S
H3544 C3549 0.950 . S
H3545 C3550 0.949 . S
H3546 C3552 0.950 . S
H3547 C3553 0.950 . S
H3548 C3554 0.949 . S
C3549 H3544 0.950 . S
C3549 C3551 1.327 . S
C3549 C3555 1.429 . S
C3550 C3542 1.574 . S
C3550 H3545 0.949 . S
C3550 C3556 1.368 . S
C3551 C3535 1.349 . S
C3551 H3543 0.950 . S
C3551 C3549 1.327 . S
C3552 C3540 1.349 . S
C3552 H3546 0.950 . S
C3552 C3553 1.327 . S
C3553 H3547 0.950 . S
C3553 C3552 1.327 . S
C3553 C3557 1.429 . S
C3554 C3537 1.574 . S
C3554 H3548 0.949 . S
C3554 C3558 1.368 . S
C3555 C3536 1.429 . S
C3555 C3549 1.429 . S
C3555 C3556 1.523 . S
C3556 C3537 1.368 . S
C3556 C3550 1.368 . S
C3556 C3555 1.523 . S
C3557 C3541 1.429 . S
C3557 C3553 1.429 . S
C3557 C3558 1.523 . S
C3558 C3542 1.368 . S
C3558 C3554 1.368 . S
C3558 C3557 1.523 . S
H3559 C3534 0.950 . S
H3560 C3536 0.950 . S
H3561 C3537 0.949 . S
H3562 C3539 0.950 . S
H3563 C3541 0.950 . S
C3564 C3565 1.349 . S
C3564 C3566 1.327 . S
C3564 H3589 0.950 . S
C3565 C3564 1.349 . S
C3565 C3581 1.349 . S
C3566 C3564 1.327 . S
C3566 C3585 1.429 . S
C3566 H3590 0.950 . S
C3567 C3584 1.574 . S
C3567 C3586 1.368 . S
C3567 H3591 0.949 . S
H3568 C3572 0.949 . S
C3569 C3570 1.349 . S
C3569 C3571 1.327 . S
C3569 H3592 0.950 . S
C3570 C3569 1.349 . S
C3570 C3582 1.349 . S
C3571 C3569 1.327 . S
C3571 C3587 1.429 . S
C3571 H3593 0.950 . S
C3572 H3568 0.949 . S
C3572 C3580 1.574 . S
C3572 C3588 1.368 . S
H3573 C3581 0.950 . S
H3574 C3579 0.950 . S
H3575 C3580 0.949 . S
H3576 C3582 0.950 . S
H3577 C3583 0.950 . S
H3578 C3584 0.949 . S
C3579 H3574 0.950 . S
C3579 C3581 1.327 . S
C3579 C3585 1.429 . S
C3580 C3572 1.574 . S
C3580 H3575 0.949 . S
C3580 C3586 1.368 . S
C3581 C3565 1.349 . S
C3581 H3573 0.950 . S
C3581 C3579 1.327 . S
C3582 C3570 1.349 . S
C3582 H3576 0.950 . S
C3582 C3583 1.327 . S
C3583 H3577 0.950 . S
C3583 C3582 1.327 . S
C3583 C3587 1.429 . S
C3584 C3567 1.574 . S
C3584 H3578 0.949 . S
C3584 C3588 1.368 . S
C3585 C3566 1.429 . S
C3585 C3579 1.429 . S
C3585 C3586 1.523 . S
C3586 C3567 1.368 . S
C3586 C3580 1.368 . S
C3586 C3585 1.523 . S
C3587 C3571 1.429 . S
C3587 C3583 1.429 . S
C3587 C3588 1.523 . S
C3588 C3572 1.368 . S
C3588 C3584 1.368 . S
C3588 C3587 1.523 . S
H3589 C3564 0.950 . S
H3590 C3566 0.950 . S
H3591 C3567 0.949 . S
H3592 C3569 0.950 . S
H3593 C3571 0.950 . S
C3594 C3595 1.349 . S
C3594 C3596 1.327 . S
C3594 H3619 0.950 . S
C3595 C3594 1.349 . S
C3595 C3611 1.349 . S
C3596 C3594 1.327 . S
C3596 C3615 1.429 . S
C3596 H3620 0.950 . S
C3597 C3614 1.574 . S
C3597 C3616 1.368 . S
C3597 H3621 0.949 . S
H3598 C3602 0.949 . S
C3599 C3600 1.349 . S
C3599 C3601 1.327 . S
C3599 H3622 0.950 . S
C3600 C3599 1.349 . S
C3600 C3612 1.349 . S
C3601 C3599 1.327 . S
C3601 C3617 1.429 . S
C3601 H3623 0.950 . S
C3602 H3598 0.949 . S
C3602 C3610 1.574 . S
C3602 C3618 1.368 . S
H3603 C3611 0.950 . S
H3604 C3609 0.950 . S
H3605 C3610 0.949 . S
H3606 C3612 0.950 . S
H3607 C3613 0.950 . S
H3608 C3614 0.949 . S
C3609 H3604 0.950 . S
C3609 C3611 1.327 . S
C3609 C3615 1.429 . S
C3610 C3602 1.574 . S
C3610 H3605 0.949 . S
C3610 C3616 1.368 . S
C3611 C3595 1.349 . S
C3611 H3603 0.950 . S
C3611 C3609 1.327 . S
C3612 C3600 1.349 . S
C3612 H3606 0.950 . S
C3612 C3613 1.327 . S
C3613 H3607 0.950 . S
C3613 C3612 1.327 . S
C3613 C3617 1.429 . S
C3614 C3597 1.574 . S
C3614 H3608 0.949 . S
C3614 C3618 1.368 . S
C3615 C3596 1.429 . S
C3615 C3609 1.429 . S
C3615 C3616 1.523 . S
C3616 C3597 1.368 . S
C3616 C3610 1.368 . S
C3616 C3615 1.523 . S
C3617 C3601 1.429 . S
C3617 C3613 1.429 . S
C3617 C3618 1.523 . S
C3618 C3602 1.368 . S
C3618 C3614 1.368 . S
C3618 C3617 1.523 . S
H3619 C3594 0.950 . S
H3620 C3596 0.950 . S
H3621 C3597 0.949 . S
H3622 C3599 0.950 . S
H3623 C3601 0.950 . S
C3624 C3625 1.349 . S
C3624 C3626 1.327 . S
C3624 H3649 0.950 . S
C3625 C3624 1.349 . S
C3625 C3641 1.349 . S
C3626 C3624 1.327 . S
C3626 C3645 1.429 . S
C3626 H3650 0.950 . S
C3627 C3644 1.574 . S
C3627 C3646 1.368 . S
C3627 H3651 0.949 . S
H3628 C3632 0.949 . S
C3629 C3630 1.349 . S
C3629 C3631 1.327 . S
C3629 H3652 0.950 . S
C3630 C3629 1.349 . S
C3630 C3642 1.349 . S
C3631 C3629 1.327 . S
C3631 C3647 1.429 . S
C3631 H3653 0.950 . S
C3632 H3628 0.949 . S
C3632 C3640 1.574 . S
C3632 C3648 1.368 . S
H3633 C3641 0.950 . S
H3634 C3639 0.950 . S
H3635 C3640 0.949 . S
H3636 C3642 0.950 . S
H3637 C3643 0.950 . S
H3638 C3644 0.949 . S
C3639 H3634 0.950 . S
C3639 C3641 1.327 . S
C3639 C3645 1.429 . S
C3640 C3632 1.574 . S
C3640 H3635 0.949 . S
C3640 C3646 1.368 . S
C3641 C3625 1.349 . S
C3641 H3633 0.950 . S
C3641 C3639 1.327 . S
C3642 C3630 1.349 . S
C3642 H3636 0.950 . S
C3642 C3643 1.327 . S
C3643 H3637 0.950 . S
C3643 C3642 1.327 . S
C3643 C3647 1.429 . S
C3644 C3627 1.574 . S
C3644 H3638 0.949 . S
C3644 C3648 1.368 . S
C3645 C3626 1.429 . S
C3645 C3639 1.429 . S
C3645 C3646 1.523 . S
C3646 C3627 1.368 . S
C3646 C3640 1.368 . S
C3646 C3645 1.523 . S
C3647 C3631 1.429 . S
C3647 C3643 1.429 . S
C3647 C3648 1.523 . S
C3648 C3632 1.368 . S
C3648 C3644 1.368 . S
C3648 C3647 1.523 . S
H3649 C3624 0.950 . S
H3650 C3626 0.950 . S
H3651 C3627 0.949 . S
H3652 C3629 0.950 . S
H3653 C3631 0.950 . S
C3654 C3655 1.349 . S
C3654 C3656 1.327 . S
C3654 H3679 0.950 . S
C3655 C3654 1.349 . S
C3655 C3671 1.349 . S
C3656 C3654 1.327 . S
C3656 C3675 1.429 . S
C3656 H3680 0.950 . S
C3657 C3674 1.574 . S
C3657 C3676 1.368 . S
C3657 H3681 0.949 . S
H3658 C3662 0.949 . S
C3659 C3660 1.349 . S
C3659 C3661 1.327 . S
C3659 H3682 0.950 . S
C3660 C3659 1.349 . S
C3660 C3672 1.349 . S
C3661 C3659 1.327 . S
C3661 C3677 1.429 . S
C3661 H3683 0.950 . S
C3662 H3658 0.949 . S
C3662 C3670 1.574 . S
C3662 C3678 1.368 . S
H3663 C3671 0.950 . S
H3664 C3669 0.950 . S
H3665 C3670 0.949 . S
H3666 C3672 0.950 . S
H3667 C3673 0.950 . S
H3668 C3674 0.949 . S
C3669 H3664 0.950 . S
C3669 C3671 1.327 . S
C3669 C3675 1.429 . S
C3670 C3662 1.574 . S
C3670 H3665 0.949 . S
C3670 C3676 1.368 . S
C3671 C3655 1.349 . S
C3671 H3663 0.950 . S
C3671 C3669 1.327 . S
C3672 C3660 1.349 . S
C3672 H3666 0.950 . S
C3672 C3673 1.327 . S
C3673 H3667 0.950 . S
C3673 C3672 1.327 . S
C3673 C3677 1.429 . S
C3674 C3657 1.574 . S
C3674 H3668 0.949 . S
C3674 C3678 1.368 . S
C3675 C3656 1.429 . S
C3675 C3669 1.429 . S
C3675 C3676 1.523 . S
C3676 C3657 1.368 . S
C3676 C3670 1.368 . S
C3676 C3675 1.523 . S
C3677 C3661 1.429 . S
C3677 C3673 1.429 . S
C3677 C3678 1.523 . S
C3678 C3662 1.368 . S
C3678 C3674 1.368 . S
C3678 C3677 1.523 . S
H3679 C3654 0.950 . S
H3680 C3656 0.950 . S
H3681 C3657 0.949 . S
H3682 C3659 0.950 . S
H3683 C3661 0.950 . S
C3684 C3685 1.349 . S
C3684 C3686 1.327 . S
C3684 H3709 0.950 . S
C3685 C3684 1.349 . S
C3685 C3701 1.349 . S
C3686 C3684 1.327 . S
C3686 C3705 1.429 . S
C3686 H3710 0.950 . S
C3687 C3704 1.574 . S
C3687 C3706 1.368 . S
C3687 H3711 0.949 . S
H3688 C3692 0.949 . S
C3689 C3690 1.349 . S
C3689 C3691 1.327 . S
C3689 H3712 0.950 . S
C3690 C3689 1.349 . S
C3690 C3702 1.349 . S
C3691 C3689 1.327 . S
C3691 C3707 1.429 . S
C3691 H3713 0.950 . S
C3692 H3688 0.949 . S
C3692 C3700 1.574 . S
C3692 C3708 1.368 . S
H3693 C3701 0.950 . S
H3694 C3699 0.950 . S
H3695 C3700 0.949 . S
H3696 C3702 0.950 . S
H3697 C3703 0.950 . S
H3698 C3704 0.949 . S
C3699 H3694 0.950 . S
C3699 C3701 1.327 . S
C3699 C3705 1.429 . S
C3700 C3692 1.574 . S
C3700 H3695 0.949 . S
C3700 C3706 1.368 . S
C3701 C3685 1.349 . S
C3701 H3693 0.950 . S
C3701 C3699 1.327 . S
C3702 C3690 1.349 . S
C3702 H3696 0.950 . S
C3702 C3703 1.327 . S
C3703 H3697 0.950 . S
C3703 C3702 1.327 . S
C3703 C3707 1.429 . S
C3704 C3687 1.574 . S
C3704 H3698 0.949 . S
C3704 C3708 1.368 . S
C3705 C3686 1.429 . S
C3705 C3699 1.429 . S
C3705 C3706 1.523 . S
C3706 C3687 1.368 . S
C3706 C3700 1.368 . S
C3706 C3705 1.523 . S
C3707 C3691 1.429 . S
C3707 C3703 1.429 . S
C3707 C3708 1.523 . S
C3708 C3692 1.368 . S
C3708 C3704 1.368 . S
C3708 C3707 1.523 . S
H3709 C3684 0.950 . S
H3710 C3686 0.950 . S
H3711 C3687 0.949 . S
H3712 C3689 0.950 . S
H3713 C3691 0.950 . S
C3714 C3715 1.349 . S
C3714 C3716 1.327 . S
C3714 H3739 0.950 . S
C3715 C3714 1.349 . S
C3715 C3731 1.349 . S
C3716 C3714 1.327 . S
C3716 C3735 1.429 . S
C3716 H3740 0.950 . S
C3717 C3734 1.574 . S
C3717 C3736 1.368 . S
C3717 H3741 0.949 . S
H3718 C3722 0.949 . S
C3719 C3720 1.349 . S
C3719 C3721 1.327 . S
C3719 H3742 0.950 . S
C3720 C3719 1.349 . S
C3720 C3732 1.349 . S
C3721 C3719 1.327 . S
C3721 C3737 1.429 . S
C3721 H3743 0.950 . S
C3722 H3718 0.949 . S
C3722 C3730 1.574 . S
C3722 C3738 1.368 . S
H3723 C3731 0.950 . S
H3724 C3729 0.950 . S
H3725 C3730 0.949 . S
H3726 C3732 0.950 . S
H3727 C3733 0.950 . S
H3728 C3734 0.949 . S
C3729 H3724 0.950 . S
C3729 C3731 1.327 . S
C3729 C3735 1.429 . S
C3730 C3722 1.574 . S
C3730 H3725 0.949 . S
C3730 C3736 1.368 . S
C3731 C3715 1.349 . S
C3731 H3723 0.950 . S
C3731 C3729 1.327 . S
C3732 C3720 1.349 . S
C3732 H3726 0.950 . S
C3732 C3733 1.327 . S
C3733 H3727 0.950 . S
C3733 C3732 1.327 . S
C3733 C3737 1.429 . S
C3734 C3717 1.574 . S
C3734 H3728 0.949 . S
C3734 C3738 1.368 . S
C3735 C3716 1.429 . S
C3735 C3729 1.429 . S
C3735 C3736 1.523 . S
C3736 C3717 1.368 . S
C3736 C3730 1.368 . S
C3736 C3735 1.523 . S
C3737 C3721 1.429 . S
C3737 C3733 1.429 . S
C3737 C3738 1.523 . S
C3738 C3722 1.368 . S
C3738 C3734 1.368 . S
C3738 C3737 1.523 . S
H3739 C3714 0.950 . S
H3740 C3716 0.950 . S
H3741 C3717 0.949 . S
H3742 C3719 0.950 . S
H3743 C3721 0.950 . S
C3744 C3745 1.349 . S
C3744 C3746 1.327 . S
C3744 H3769 0.950 . S
C3745 C3744 1.349 . S
C3745 C3761 1.349 . S
C3746 C3744 1.327 . S
C3746 C3765 1.429 . S
C3746 H3770 0.950 . S
C3747 C3764 1.574 . S
C3747 C3766 1.368 . S
C3747 H3771 0.949 . S
H3748 C3752 0.949 . S
C3749 C3750 1.349 . S
C3749 C3751 1.327 . S
C3749 H3772 0.950 . S
C3750 C3749 1.349 . S
C3750 C3762 1.349 . S
C3751 C3749 1.327 . S
C3751 C3767 1.429 . S
C3751 H3773 0.950 . S
C3752 H3748 0.949 . S
C3752 C3760 1.574 . S
C3752 C3768 1.368 . S
H3753 C3761 0.950 . S
H3754 C3759 0.950 . S
H3755 C3760 0.949 . S
H3756 C3762 0.950 . S
H3757 C3763 0.950 . S
H3758 C3764 0.949 . S
C3759 H3754 0.950 . S
C3759 C3761 1.327 . S
C3759 C3765 1.429 . S
C3760 C3752 1.574 . S
C3760 H3755 0.949 . S
C3760 C3766 1.368 . S
C3761 C3745 1.349 . S
C3761 H3753 0.950 . S
C3761 C3759 1.327 . S
C3762 C3750 1.349 . S
C3762 H3756 0.950 . S
C3762 C3763 1.327 . S
C3763 H3757 0.950 . S
C3763 C3762 1.327 . S
C3763 C3767 1.429 . S
C3764 C3747 1.574 . S
C3764 H3758 0.949 . S
C3764 C3768 1.368 . S
C3765 C3746 1.429 . S
C3765 C3759 1.429 . S
C3765 C3766 1.523 . S
C3766 C3747 1.368 . S
C3766 C3760 1.368 . S
C3766 C3765 1.523 . S
C3767 C3751 1.429 . S
C3767 C3763 1.429 . S
C3767 C3768 1.523 . S
C3768 C3752 1.368 . S
C3768 C3764 1.368 . S
C3768 C3767 1.523 . S
H3769 C3744 0.950 . S
H3770 C3746 0.950 . S
H3771 C3747 0.949 . S
H3772 C3749 0.950 . S
H3773 C3751 0.950 . S
C3774 C3775 1.349 . S
C3774 C3776 1.327 . S
C3774 H3799 0.950 . S
C3775 C3774 1.349 . S
C3775 C3791 1.349 . S
C3776 C3774 1.327 . S
C3776 C3795 1.429 . S
C3776 H3800 0.950 . S
C3777 C3794 1.574 . S
C3777 C3796 1.368 . S
C3777 H3801 0.949 . S
H3778 C3782 0.949 . S
C3779 C3780 1.349 . S
C3779 C3781 1.327 . S
C3779 H3802 0.950 . S
C3780 C3779 1.349 . S
C3780 C3792 1.349 . S
C3781 C3779 1.327 . S
C3781 C3797 1.429 . S
C3781 H3803 0.950 . S
C3782 H3778 0.949 . S
C3782 C3790 1.574 . S
C3782 C3798 1.368 . S
H3783 C3791 0.950 . S
H3784 C3789 0.950 . S
H3785 C3790 0.949 . S
H3786 C3792 0.950 . S
H3787 C3793 0.950 . S
H3788 C3794 0.949 . S
C3789 H3784 0.950 . S
C3789 C3791 1.327 . S
C3789 C3795 1.429 . S
C3790 C3782 1.574 . S
C3790 H3785 0.949 . S
C3790 C3796 1.368 . S
C3791 C3775 1.349 . S
C3791 H3783 0.950 . S
C3791 C3789 1.327 . S
C3792 C3780 1.349 . S
C3792 H3786 0.950 . S
C3792 C3793 1.327 . S
C3793 H3787 0.950 . S
C3793 C3792 1.327 . S
C3793 C3797 1.429 . S
C3794 C3777 1.574 . S
C3794 H3788 0.949 . S
C3794 C3798 1.368 . S
C3795 C3776 1.429 . S
C3795 C3789 1.429 . S
C3795 C3796 1.523 . S
C3796 C3777 1.368 . S
C3796 C3790 1.368 . S
C3796 C3795 1.523 . S
C3797 C3781 1.429 . S
C3797 C3793 1.429 . S
C3797 C3798 1.523 . S
C3798 C3782 1.368 . S
C3798 C3794 1.368 . S
C3798 C3797 1.523 . S
H3799 C3774 0.950 . S
H3800 C3776 0.950 . S
H3801 C3777 0.949 . S
H3802 C3779 0.950 . S
H3803 C3781 0.950 . S
C3804 C3805 1.349 . S
C3804 C3806 1.327 . S
C3804 H3829 0.950 . S
C3805 C3804 1.349 . S
C3805 C3821 1.349 . S
C3806 C3804 1.327 . S
C3806 C3825 1.429 . S
C3806 H3830 0.950 . S
C3807 C3824 1.574 . S
C3807 C3826 1.368 . S
C3807 H3831 0.949 . S
H3808 C3812 0.949 . S
C3809 C3810 1.349 . S
C3809 C3811 1.327 . S
C3809 H3832 0.950 . S
C3810 C3809 1.349 . S
C3810 C3822 1.349 . S
C3811 C3809 1.327 . S
C3811 C3827 1.429 . S
C3811 H3833 0.950 . S
C3812 H3808 0.949 . S
C3812 C3820 1.574 . S
C3812 C3828 1.368 . S
H3813 C3821 0.950 . S
H3814 C3819 0.950 . S
H3815 C3820 0.949 . S
H3816 C3822 0.950 . S
H3817 C3823 0.950 . S
H3818 C3824 0.949 . S
C3819 H3814 0.950 . S
C3819 C3821 1.327 . S
C3819 C3825 1.429 . S
C3820 C3812 1.574 . S
C3820 H3815 0.949 . S
C3820 C3826 1.368 . S
C3821 C3805 1.349 . S
C3821 H3813 0.950 . S
C3821 C3819 1.327 . S
C3822 C3810 1.349 . S
C3822 H3816 0.950 . S
C3822 C3823 1.327 . S
C3823 H3817 0.950 . S
C3823 C3822 1.327 . S
C3823 C3827 1.429 . S
C3824 C3807 1.574 . S
C3824 H3818 0.949 . S
C3824 C3828 1.368 . S
C3825 C3806 1.429 . S
C3825 C3819 1.429 . S
C3825 C3826 1.523 . S
C3826 C3807 1.368 . S
C3826 C3820 1.368 . S
C3826 C3825 1.523 . S
C3827 C3811 1.429 . S
C3827 C3823 1.429 . S
C3827 C3828 1.523 . S
C3828 C3812 1.368 . S
C3828 C3824 1.368 . S
C3828 C3827 1.523 . S
H3829 C3804 0.950 . S
H3830 C3806 0.950 . S
H3831 C3807 0.949 . S
H3832 C3809 0.950 . S
H3833 C3811 0.950 . S
C3834 C3835 1.349 . S
C3834 C3836 1.327 . S
C3834 H3859 0.950 . S
C3835 C3834 1.349 . S
C3835 C3851 1.349 . S
C3836 C3834 1.327 . S
C3836 C3855 1.429 . S
C3836 H3860 0.950 . S
C3837 C3854 1.574 . S
C3837 C3856 1.368 . S
C3837 H3861 0.949 . S
H3838 C3842 0.949 . S
C3839 C3840 1.349 . S
C3839 C3841 1.327 . S
C3839 H3862 0.950 . S
C3840 C3839 1.349 . S
C3840 C3852 1.349 . S
C3841 C3839 1.327 . S
C3841 C3857 1.429 . S
C3841 H3863 0.950 . S
C3842 H3838 0.949 . S
C3842 C3850 1.574 . S
C3842 C3858 1.368 . S
H3843 C3851 0.950 . S
H3844 C3849 0.950 . S
H3845 C3850 0.949 . S
H3846 C3852 0.950 . S
H3847 C3853 0.950 . S
H3848 C3854 0.949 . S
C3849 H3844 0.950 . S
C3849 C3851 1.327 . S
C3849 C3855 1.429 . S
C3850 C3842 1.574 . S
C3850 H3845 0.949 . S
C3850 C3856 1.368 . S
C3851 C3835 1.349 . S
C3851 H3843 0.950 . S
C3851 C3849 1.327 . S
C3852 C3840 1.349 . S
C3852 H3846 0.950 . S
C3852 C3853 1.327 . S
C3853 H3847 0.950 . S
C3853 C3852 1.327 . S
C3853 C3857 1.429 . S
C3854 C3837 1.574 . S
C3854 H3848 0.949 . S
C3854 C3858 1.368 . S
C3855 C3836 1.429 . S
C3855 C3849 1.429 . S
C3855 C3856 1.523 . S
C3856 C3837 1.368 . S
C3856 C3850 1.368 . S
C3856 C3855 1.523 . S
C3857 C3841 1.429 . S
C3857 C3853 1.429 . S
C3857 C3858 1.523 . S
C3858 C3842 1.368 . S
C3858 C3854 1.368 . S
C3858 C3857 1.523 . S
H3859 C3834 0.950 . S
H3860 C3836 0.950 . S
H3861 C3837 0.949 . S
H3862 C3839 0.950 . S
H3863 C3841 0.950 . S
C3864 C3865 1.349 . S
C3864 C3866 1.327 . S
C3864 H3889 0.950 . S
C3865 C3864 1.349 . S
C3865 C3881 1.349 . S
C3866 C3864 1.327 . S
C3866 C3885 1.429 . S
C3866 H3890 0.950 . S
C3867 C3884 1.574 . S
C3867 C3886 1.368 . S
C3867 H3891 0.949 . S
H3868 C3872 0.949 . S
C3869 C3870 1.349 . S
C3869 C3871 1.327 . S
C3869 H3892 0.950 . S
C3870 C3869 1.349 . S
C3870 C3882 1.349 . S
C3871 C3869 1.327 . S
C3871 C3887 1.429 . S
C3871 H3893 0.950 . S
C3872 H3868 0.949 . S
C3872 C3880 1.574 . S
C3872 C3888 1.368 . S
H3873 C3881 0.950 . S
H3874 C3879 0.950 . S
H3875 C3880 0.949 . S
H3876 C3882 0.950 . S
H3877 C3883 0.950 . S
H3878 C3884 0.949 . S
C3879 H3874 0.950 . S
C3879 C3881 1.327 . S
C3879 C3885 1.429 . S
C3880 C3872 1.574 . S
C3880 H3875 0.949 . S
C3880 C3886 1.368 . S
C3881 C3865 1.349 . S
C3881 H3873 0.950 . S
C3881 C3879 1.327 . S
C3882 C3870 1.349 . S
C3882 H3876 0.950 . S
C3882 C3883 1.327 . S
C3883 H3877 0.950 . S
C3883 C3882 1.327 . S
C3883 C3887 1.429 . S
C3884 C3867 1.574 . S
C3884 H3878 0.949 . S
C3884 C3888 1.368 . S
C3885 C3866 1.429 . S
C3885 C3879 1.429 . S
C3885 C3886 1.523 . S
C3886 C3867 1.368 . S
C3886 C3880 1.368 . S
C3886 C3885 1.523 . S
C3887 C3871 1.429 . S
C3887 C3883 1.429 . S
C3887 C3888 1.523 . S
C3888 C3872 1.368 . S
C3888 C3884 1.368 . S
C3888 C3887 1.523 . S
H3889 C3864 0.950 . S
H3890 C3866 0.950 . S
H3891 C3867 0.949 . S
H3892 C3869 0.950 . S
H3893 C3871 0.950 . S
C3894 C3895 1.349 . S
C3894 C3896 1.327 . S
C3894 H3919 0.950 . S
C3895 C3894 1.349 . S
C3895 C3911 1.349 . S
C3896 C3894 1.327 . S
C3896 C3915 1.429 . S
C3896 H3920 0.950 . S
C3897 C3914 1.574 . S
C3897 C3916 1.368 . S
C3897 H3921 0.949 . S
H3898 C3902 0.949 . S
C3899 C3900 1.349 . S
C3899 C3901 1.327 . S
C3899 H3922 0.950 . S
C3900 C3899 1.349 . S
C3900 C3912 1.349 . S
C3901 C3899 1.327 . S
C3901 C3917 1.429 . S
C3901 H3923 0.950 . S
C3902 H3898 0.949 . S
C3902 C3910 1.574 . S
C3902 C3918 1.368 . S
H3903 C3911 0.950 . S
H3904 C3909 0.950 . S
H3905 C3910 0.949 . S
H3906 C3912 0.950 . S
H3907 C3913 0.950 . S
H3908 C3914 0.949 . S
C3909 H3904 0.950 . S
C3909 C3911 1.327 . S
C3909 C3915 1.429 . S
C3910 C3902 1.574 . S
C3910 H3905 0.949 . S
C3910 C3916 1.368 . S
C3911 C3895 1.349 . S
C3911 H3903 0.950 . S
C3911 C3909 1.327 . S
C3912 C3900 1.349 . S
C3912 H3906 0.950 . S
C3912 C3913 1.327 . S
C3913 H3907 0.950 . S
C3913 C3912 1.327 . S
C3913 C3917 1.429 . S
C3914 C3897 1.574 . S
C3914 H3908 0.949 . S
C3914 C3918 1.368 . S
C3915 C3896 1.429 . S
C3915 C3909 1.429 . S
C3915 C3916 1.523 . S
C3916 C3897 1.368 . S
C3916 C3910 1.368 . S
C3916 C3915 1.523 . S
C3917 C3901 1.429 . S
C3917 C3913 1.429 . S
C3917 C3918 1.523 . S
C3918 C3902 1.368 . S
C3918 C3914 1.368 . S
C3918 C3917 1.523 . S
H3919 C3894 0.950 . S
H3920 C3896 0.950 . S
H3921 C3897 0.949 . S
H3922 C3899 0.950 . S
H3923 C3901 0.950 . S
C3924 C3925 1.349 . S
C3924 C3926 1.327 . S
C3924 H3949 0.950 . S
C3925 C3924 1.349 . S
C3925 C3941 1.349 . S
C3926 C3924 1.327 . S
C3926 C3945 1.429 . S
C3926 H3950 0.950 . S
C3927 C3944 1.574 . S
C3927 C3946 1.368 . S
C3927 H3951 0.949 . S
H3928 C3932 0.949 . S
C3929 C3930 1.349 . S
C3929 C3931 1.327 . S
C3929 H3952 0.950 . S
C3930 C3929 1.349 . S
C3930 C3942 1.349 . S
C3931 C3929 1.327 . S
C3931 C3947 1.429 . S
C3931 H3953 0.950 . S
C3932 H3928 0.949 . S
C3932 C3940 1.574 . S
C3932 C3948 1.368 . S
H3933 C3941 0.950 . S
H3934 C3939 0.950 . S
H3935 C3940 0.949 . S
H3936 C3942 0.950 . S
H3937 C3943 0.950 . S
H3938 C3944 0.949 . S
C3939 H3934 0.950 . S
C3939 C3941 1.327 . S
C3939 C3945 1.429 . S
C3940 C3932 1.574 . S
C3940 H3935 0.949 . S
C3940 C3946 1.368 . S
C3941 C3925 1.349 . S
C3941 H3933 0.950 . S
C3941 C3939 1.327 . S
C3942 C3930 1.349 . S
C3942 H3936 0.950 . S
C3942 C3943 1.327 . S
C3943 H3937 0.950 . S
C3943 C3942 1.327 . S
C3943 C3947 1.429 . S
C3944 C3927 1.574 . S
C3944 H3938 0.949 . S
C3944 C3948 1.368 . S
C3945 C3926 1.429 . S
C3945 C3939 1.429 . S
C3945 C3946 1.523 . S
C3946 C3927 1.368 . S
C3946 C3940 1.368 . S
C3946 C3945 1.523 . S
C3947 C3931 1.429 . S
C3947 C3943 1.429 . S
C3947 C3948 1.523 . S
C3948 C3932 1.368 . S
C3948 C3944 1.368 . S
C3948 C3947 1.523 . S
H3949 C3924 0.950 . S
H3950 C3926 0.950 . S
H3951 C3927 0.949 . S
H3952 C3929 0.950 . S
H3953 C3931 0.950 . S
C3954 C3955 1.349 . S
C3954 C3956 1.327 . S
C3954 H3979 0.950 . S
C3955 C3954 1.349 . S
C3955 C3971 1.349 . S
C3956 C3954 1.327 . S
C3956 C3975 1.429 . S
C3956 H3980 0.950 . S
C3957 C3974 1.574 . S
C3957 C3976 1.368 . S
C3957 H3981 0.949 . S
H3958 C3962 0.949 . S
C3959 C3960 1.349 . S
C3959 C3961 1.327 . S
C3959 H3982 0.950 . S
C3960 C3959 1.349 . S
C3960 C3972 1.349 . S
C3961 C3959 1.327 . S
C3961 C3977 1.429 . S
C3961 H3983 0.950 . S
C3962 H3958 0.949 . S
C3962 C3970 1.574 . S
C3962 C3978 1.368 . S
H3963 C3971 0.950 . S
H3964 C3969 0.950 . S
H3965 C3970 0.949 . S
H3966 C3972 0.950 . S
H3967 C3973 0.950 . S
H3968 C3974 0.949 . S
C3969 H3964 0.950 . S
C3969 C3971 1.327 . S
C3969 C3975 1.429 . S
C3970 C3962 1.574 . S
C3970 H3965 0.949 . S
C3970 C3976 1.368 . S
C3971 C3955 1.349 . S
C3971 H3963 0.950 . S
C3971 C3969 1.327 . S
C3972 C3960 1.349 . S
C3972 H3966 0.950 . S
C3972 C3973 1.327 . S
C3973 H3967 0.950 . S
C3973 C3972 1.327 . S
C3973 C3977 1.429 . S
C3974 C3957 1.574 . S
C3974 H3968 0.949 . S
C3974 C3978 1.368 . S
C3975 C3956 1.429 . S
C3975 C3969 1.429 . S
C3975 C3976 1.523 . S
C3976 C3957 1.368 . S
C3976 C3970 1.368 . S
C3976 C3975 1.523 . S
C3977 C3961 1.429 . S
C3977 C3973 1.429 . S
C3977 C3978 1.523 . S
C3978 C3962 1.368 . S
C3978 C3974 1.368 . S
C3978 C3977 1.523 . S
H3979 C3954 0.950 . S
H3980 C3956 0.950 . S
H3981 C3957 0.949 . S
H3982 C3959 0.950 . S
H3983 C3961 0.950 . S
C3984 C3985 1.349 . S
C3984 C3986 1.327 . S
C3984 H4009 0.950 . S
C3985 C3984 1.349 . S
C3985 C4001 1.349 . S
C3986 C3984 1.327 . S
C3986 C4005 1.429 . S
C3986 H4010 0.950 . S
C3987 C4004 1.574 . S
C3987 C4006 1.368 . S
C3987 H4011 0.949 . S
H3988 C3992 0.949 . S
C3989 C3990 1.349 . S
C3989 C3991 1.327 . S
C3989 H4012 0.950 . S
C3990 C3989 1.349 . S
C3990 C4002 1.349 . S
C3991 C3989 1.327 . S
C3991 C4007 1.429 . S
C3991 H4013 0.950 . S
C3992 H3988 0.949 . S
C3992 C4000 1.574 . S
C3992 C4008 1.368 . S
H3993 C4001 0.950 . S
H3994 C3999 0.950 . S
H3995 C4000 0.949 . S
H3996 C4002 0.950 . S
H3997 C4003 0.950 . S
H3998 C4004 0.949 . S
C3999 H3994 0.950 . S
C3999 C4001 1.327 . S
C3999 C4005 1.429 . S
C4000 C3992 1.574 . S
C4000 H3995 0.949 . S
C4000 C4006 1.368 . S
C4001 C3985 1.349 . S
C4001 H3993 0.950 . S
C4001 C3999 1.327 . S
C4002 C3990 1.349 . S
C4002 H3996 0.950 . S
C4002 C4003 1.327 . S
C4003 H3997 0.950 . S
C4003 C4002 1.327 . S
C4003 C4007 1.429 . S
C4004 C3987 1.574 . S
C4004 H3998 0.949 . S
C4004 C4008 1.368 . S
C4005 C3986 1.429 . S
C4005 C3999 1.429 . S
C4005 C4006 1.523 . S
C4006 C3987 1.368 . S
C4006 C4000 1.368 . S
C4006 C4005 1.523 . S
C4007 C3991 1.429 . S
C4007 C4003 1.429 . S
C4007 C4008 1.523 . S
C4008 C3992 1.368 . S
C4008 C4004 1.368 . S
C4008 C4007 1.523 . S
H4009 C3984 0.950 . S
H4010 C3986 0.950 . S
H4011 C3987 0.949 . S
H4012 C3989 0.950 . S
H4013 C3991 0.950 . S
C4014 C4015 1.349 . S
C4014 C4016 1.327 . S
C4014 H4039 0.950 . S
C4015 C4014 1.349 . S
C4015 C4031 1.349 . S
C4016 C4014 1.327 . S
C4016 C4035 1.429 . S
C4016 H4040 0.950 . S
C4017 C4034 1.574 . S
C4017 C4036 1.368 . S
C4017 H4041 0.949 . S
H4018 C4022 0.949 . S
C4019 C4020 1.349 . S
C4019 C4021 1.327 . S
C4019 H4042 0.950 . S
C4020 C4019 1.349 . S
C4020 C4032 1.349 . S
C4021 C4019 1.327 . S
C4021 C4037 1.429 . S
C4021 H4043 0.950 . S
C4022 H4018 0.949 . S
C4022 C4030 1.574 . S
C4022 C4038 1.368 . S
H4023 C4031 0.950 . S
H4024 C4029 0.950 . S
H4025 C4030 0.949 . S
H4026 C4032 0.950 . S
H4027 C4033 0.950 . S
H4028 C4034 0.949 . S
C4029 H4024 0.950 . S
C4029 C4031 1.327 . S
C4029 C4035 1.429 . S
C4030 C4022 1.574 . S
C4030 H4025 0.949 . S
C4030 C4036 1.368 . S
C4031 C4015 1.349 . S
C4031 H4023 0.950 . S
C4031 C4029 1.327 . S
C4032 C4020 1.349 . S
C4032 H4026 0.950 . S
C4032 C4033 1.327 . S
C4033 H4027 0.950 . S
C4033 C4032 1.327 . S
C4033 C4037 1.429 . S
C4034 C4017 1.574 . S
C4034 H4028 0.949 . S
C4034 C4038 1.368 . S
C4035 C4016 1.429 . S
C4035 C4029 1.429 . S
C4035 C4036 1.523 . S
C4036 C4017 1.368 . S
C4036 C4030 1.368 . S
C4036 C4035 1.523 . S
C4037 C4021 1.429 . S
C4037 C4033 1.429 . S
C4037 C4038 1.523 . S
C4038 C4022 1.368 . S
C4038 C4034 1.368 . S
C4038 C4037 1.523 . S
H4039 C4014 0.950 . S
H4040 C4016 0.950 . S
H4041 C4017 0.949 . S
H4042 C4019 0.950 . S
H4043 C4021 0.950 . S
C4044 C4045 1.349 . S
C4044 C4046 1.327 . S
C4044 H4069 0.950 . S
C4045 C4044 1.349 . S
C4045 C4061 1.349 . S
C4046 C4044 1.327 . S
C4046 C4065 1.429 . S
C4046 H4070 0.950 . S
C4047 C4064 1.574 . S
C4047 C4066 1.368 . S
C4047 H4071 0.949 . S
H4048 C4052 0.949 . S
C4049 C4050 1.349 . S
C4049 C4051 1.327 . S
C4049 H4072 0.950 . S
C4050 C4049 1.349 . S
C4050 C4062 1.349 . S
C4051 C4049 1.327 . S
C4051 C4067 1.429 . S
C4051 H4073 0.950 . S
C4052 H4048 0.949 . S
C4052 C4060 1.574 . S
C4052 C4068 1.368 . S
H4053 C4061 0.950 . S
H4054 C4059 0.950 . S
H4055 C4060 0.949 . S
H4056 C4062 0.950 . S
H4057 C4063 0.950 . S
H4058 C4064 0.949 . S
C4059 H4054 0.950 . S
C4059 C4061 1.327 . S
C4059 C4065 1.429 . S
C4060 C4052 1.574 . S
C4060 H4055 0.949 . S
C4060 C4066 1.368 . S
C4061 C4045 1.349 . S
C4061 H4053 0.950 . S
C4061 C4059 1.327 . S
C4062 C4050 1.349 . S
C4062 H4056 0.950 . S
C4062 C4063 1.327 . S
C4063 H4057 0.950 . S
C4063 C4062 1.327 . S
C4063 C4067 1.429 . S
C4064 C4047 1.574 . S
C4064 H4058 0.949 . S
C4064 C4068 1.368 . S
C4065 C4046 1.429 . S
C4065 C4059 1.429 . S
C4065 C4066 1.523 . S
C4066 C4047 1.368 . S
C4066 C4060 1.368 . S
C4066 C4065 1.523 . S
C4067 C4051 1.429 . S
C4067 C4063 1.429 . S
C4067 C4068 1.523 . S
C4068 C4052 1.368 . S
C4068 C4064 1.368 . S
C4068 C4067 1.523 . S
H4069 C4044 0.950 . S
H4070 C4046 0.950 . S
H4071 C4047 0.949 . S
H4072 C4049 0.950 . S
H4073 C4051 0.950 . S
C4074 C4075 1.349 . S
C4074 C4076 1.327 . S
C4074 H4099 0.950 . S
C4075 C4074 1.349 . S
C4075 C4091 1.349 . S
C4076 C4074 1.327 . S
C4076 C4095 1.429 . S
C4076 H4100 0.950 . S
C4077 C4094 1.574 . S
C4077 C4096 1.368 . S
C4077 H4101 0.949 . S
H4078 C4082 0.949 . S
C4079 C4080 1.349 . S
C4079 C4081 1.327 . S
C4079 H4102 0.950 . S
C4080 C4079 1.349 . S
C4080 C4092 1.349 . S
C4081 C4079 1.327 . S
C4081 C4097 1.429 . S
C4081 H4103 0.950 . S
C4082 H4078 0.949 . S
C4082 C4090 1.574 . S
C4082 C4098 1.368 . S
H4083 C4091 0.950 . S
H4084 C4089 0.950 . S
H4085 C4090 0.949 . S
H4086 C4092 0.950 . S
H4087 C4093 0.950 . S
H4088 C4094 0.949 . S
C4089 H4084 0.950 . S
C4089 C4091 1.327 . S
C4089 C4095 1.429 . S
C4090 C4082 1.574 . S
C4090 H4085 0.949 . S
C4090 C4096 1.368 . S
C4091 C4075 1.349 . S
C4091 H4083 0.950 . S
C4091 C4089 1.327 . S
C4092 C4080 1.349 . S
C4092 H4086 0.950 . S
C4092 C4093 1.327 . S
C4093 H4087 0.950 . S
C4093 C4092 1.327 . S
C4093 C4097 1.429 . S
C4094 C4077 1.574 . S
C4094 H4088 0.949 . S
C4094 C4098 1.368 . S
C4095 C4076 1.429 . S
C4095 C4089 1.429 . S
C4095 C4096 1.523 . S
C4096 C4077 1.368 . S
C4096 C4090 1.368 . S
C4096 C4095 1.523 . S
C4097 C4081 1.429 . S
C4097 C4093 1.429 . S
C4097 C4098 1.523 . S
C4098 C4082 1.368 . S
C4098 C4094 1.368 . S
C4098 C4097 1.523 . S
H4099 C4074 0.950 . S
H4100 C4076 0.950 . S
H4101 C4077 0.949 . S
H4102 C4079 0.950 . S
H4103 C4081 0.950 . S
C4104 C4105 1.349 . S
C4104 C4106 1.327 . S
C4104 H4129 0.950 . S
C4105 C4104 1.349 . S
C4105 C4121 1.349 . S
C4106 C4104 1.327 . S
C4106 C4125 1.429 . S
C4106 H4130 0.950 . S
C4107 C4124 1.574 . S
C4107 C4126 1.368 . S
C4107 H4131 0.949 . S
H4108 C4112 0.949 . S
C4109 C4110 1.349 . S
C4109 C4111 1.327 . S
C4109 H4132 0.950 . S
C4110 C4109 1.349 . S
C4110 C4122 1.349 . S
C4111 C4109 1.327 . S
C4111 C4127 1.429 . S
C4111 H4133 0.950 . S
C4112 H4108 0.949 . S
C4112 C4120 1.574 . S
C4112 C4128 1.368 . S
H4113 C4121 0.950 . S
H4114 C4119 0.950 . S
H4115 C4120 0.949 . S
H4116 C4122 0.950 . S
H4117 C4123 0.950 . S
H4118 C4124 0.949 . S
C4119 H4114 0.950 . S
C4119 C4121 1.327 . S
C4119 C4125 1.429 . S
C4120 C4112 1.574 . S
C4120 H4115 0.949 . S
C4120 C4126 1.368 . S
C4121 C4105 1.349 . S
C4121 H4113 0.950 . S
C4121 C4119 1.327 . S
C4122 C4110 1.349 . S
C4122 H4116 0.950 . S
C4122 C4123 1.327 . S
C4123 H4117 0.950 . S
C4123 C4122 1.327 . S
C4123 C4127 1.429 . S
C4124 C4107 1.574 . S
C4124 H4118 0.949 . S
C4124 C4128 1.368 . S
C4125 C4106 1.429 . S
C4125 C4119 1.429 . S
C4125 C4126 1.523 . S
C4126 C4107 1.368 . S
C4126 C4120 1.368 . S
C4126 C4125 1.523 . S
C4127 C4111 1.429 . S
C4127 C4123 1.429 . S
C4127 C4128 1.523 . S
C4128 C4112 1.368 . S
C4128 C4124 1.368 . S
C4128 C4127 1.523 . S
H4129 C4104 0.950 . S
H4130 C4106 0.950 . S
H4131 C4107 0.949 . S
H4132 C4109 0.950 . S
H4133 C4111 0.950 . S
C4134 C4135 1.349 . S
C4134 C4136 1.327 . S
C4134 H4159 0.950 . S
C4135 C4134 1.349 . S
C4135 C4151 1.349 . S
C4136 C4134 1.327 . S
C4136 C4155 1.429 . S
C4136 H4160 0.950 . S
C4137 C4154 1.574 . S
C4137 C4156 1.368 . S
C4137 H4161 0.949 . S
H4138 C4142 0.949 . S
C4139 C4140 1.349 . S
C4139 C4141 1.327 . S
C4139 H4162 0.950 . S
C4140 C4139 1.349 . S
C4140 C4152 1.349 . S
C4141 C4139 1.327 . S
C4141 C4157 1.429 . S
C4141 H4163 0.950 . S
C4142 H4138 0.949 . S
C4142 C4150 1.574 . S
C4142 C4158 1.368 . S
H4143 C4151 0.950 . S
H4144 C4149 0.950 . S
H4145 C4150 0.949 . S
H4146 C4152 0.950 . S
H4147 C4153 0.950 . S
H4148 C4154 0.949 . S
C4149 H4144 0.950 . S
C4149 C4151 1.327 . S
C4149 C4155 1.429 . S
C4150 C4142 1.574 . S
C4150 H4145 0.949 . S
C4150 C4156 1.368 . S
C4151 C4135 1.349 . S
C4151 H4143 0.950 . S
C4151 C4149 1.327 . S
C4152 C4140 1.349 . S
C4152 H4146 0.950 . S
C4152 C4153 1.327 . S
C4153 H4147 0.950 . S
C4153 C4152 1.327 . S
C4153 C4157 1.429 . S
C4154 C4137 1.574 . S
C4154 H4148 0.949 . S
C4154 C4158 1.368 . S
C4155 C4136 1.429 . S
C4155 C4149 1.429 . S
C4155 C4156 1.523 . S
C4156 C4137 1.368 . S
C4156 C4150 1.368 . S
C4156 C4155 1.523 . S
C4157 C4141 1.429 . S
C4157 C4153 1.429 . S
C4157 C4158 1.523 . S
C4158 C4142 1.368 . S
C4158 C4154 1.368 . S
C4158 C4157 1.523 . S
H4159 C4134 0.950 . S
H4160 C4136 0.950 . S
H4161 C4137 0.949 . S
H4162 C4139 0.950 . S
H4163 C4141 0.950 . S
C4164 C4165 1.349 . S
C4164 C4166 1.327 . S
C4164 H4189 0.950 . S
C4165 C4164 1.349 . S
C4165 C4181 1.349 . S
C4166 C4164 1.327 . S
C4166 C4185 1.429 . S
C4166 H4190 0.950 . S
C4167 C4184 1.574 . S
C4167 C4186 1.368 . S
C4167 H4191 0.949 . S
H4168 C4172 0.949 . S
C4169 C4170 1.349 . S
C4169 C4171 1.327 . S
C4169 H4192 0.950 . S
C4170 C4169 1.349 . S
C4170 C4182 1.349 . S
C4171 C4169 1.327 . S
C4171 C4187 1.429 . S
C4171 H4193 0.950 . S
C4172 H4168 0.949 . S
C4172 C4180 1.574 . S
C4172 C4188 1.368 . S
H4173 C4181 0.950 . S
H4174 C4179 0.950 . S
H4175 C4180 0.949 . S
H4176 C4182 0.950 . S
H4177 C4183 0.950 . S
H4178 C4184 0.949 . S
C4179 H4174 0.950 . S
C4179 C4181 1.327 . S
C4179 C4185 1.429 . S
C4180 C4172 1.574 . S
C4180 H4175 0.949 . S
C4180 C4186 1.368 . S
C4181 C4165 1.349 . S
C4181 H4173 0.950 . S
C4181 C4179 1.327 . S
C4182 C4170 1.349 . S
C4182 H4176 0.950 . S
C4182 C4183 1.327 . S
C4183 H4177 0.950 . S
C4183 C4182 1.327 . S
C4183 C4187 1.429 . S
C4184 C4167 1.574 . S
C4184 H4178 0.949 . S
C4184 C4188 1.368 . S
C4185 C4166 1.429 . S
C4185 C4179 1.429 . S
C4185 C4186 1.523 . S
C4186 C4167 1.368 . S
C4186 C4180 1.368 . S
C4186 C4185 1.523 . S
C4187 C4171 1.429 . S
C4187 C4183 1.429 . S
C4187 C4188 1.523 . S
C4188 C4172 1.368 . S
C4188 C4184 1.368 . S
C4188 C4187 1.523 . S
H4189 C4164 0.950 . S
H4190 C4166 0.950 . S
H4191 C4167 0.949 . S
H4192 C4169 0.950 . S
H4193 C4171 0.950 . S
C4194 C4195 1.349 . S
C4194 C4196 1.327 . S
C4194 H4219 0.950 . S
C4195 C4194 1.349 . S
C4195 C4211 1.349 . S
C4196 C4194 1.327 . S
C4196 C4215 1.429 . S
C4196 H4220 0.950 . S
C4197 C4214 1.574 . S
C4197 C4216 1.368 . S
C4197 H4221 0.949 . S
H4198 C4202 0.949 . S
C4199 C4200 1.349 . S
C4199 C4201 1.327 . S
C4199 H4222 0.950 . S
C4200 C4199 1.349 . S
C4200 C4212 1.349 . S
C4201 C4199 1.327 . S
C4201 C4217 1.429 . S
C4201 H4223 0.950 . S
C4202 H4198 0.949 . S
C4202 C4210 1.574 . S
C4202 C4218 1.368 . S
H4203 C4211 0.950 . S
H4204 C4209 0.950 . S
H4205 C4210 0.949 . S
H4206 C4212 0.950 . S
H4207 C4213 0.950 . S
H4208 C4214 0.949 . S
C4209 H4204 0.950 . S
C4209 C4211 1.327 . S
C4209 C4215 1.429 . S
C4210 C4202 1.574 . S
C4210 H4205 0.949 . S
C4210 C4216 1.368 . S
C4211 C4195 1.349 . S
C4211 H4203 0.950 . S
C4211 C4209 1.327 . S
C4212 C4200 1.349 . S
C4212 H4206 0.950 . S
C4212 C4213 1.327 . S
C4213 H4207 0.950 . S
C4213 C4212 1.327 . S
C4213 C4217 1.429 . S
C4214 C4197 1.574 . S
C4214 H4208 0.949 . S
C4214 C4218 1.368 . S
C4215 C4196 1.429 . S
C4215 C4209 1.429 . S
C4215 C4216 1.523 . S
C4216 C4197 1.368 . S
C4216 C4210 1.368 . S
C4216 C4215 1.523 . S
C4217 C4201 1.429 . S
C4217 C4213 1.429 . S
C4217 C4218 1.523 . S
C4218 C4202 1.368 . S
C4218 C4214 1.368 . S
C4218 C4217 1.523 . S
H4219 C4194 0.950 . S
H4220 C4196 0.950 . S
H4221 C4197 0.949 . S
H4222 C4199 0.950 . S
H4223 C4201 0.950 . S
C4224 C4225 1.349 . S
C4224 C4226 1.327 . S
C4224 H4249 0.950 . S
C4225 C4224 1.349 . S
C4225 C4241 1.349 . S
C4226 C4224 1.327 . S
C4226 C4245 1.429 . S
C4226 H4250 0.950 . S
C4227 C4244 1.574 . S
C4227 C4246 1.368 . S
C4227 H4251 0.949 . S
H4228 C4232 0.949 . S
C4229 C4230 1.349 . S
C4229 C4231 1.327 . S
C4229 H4252 0.950 . S
C4230 C4229 1.349 . S
C4230 C4242 1.349 . S
C4231 C4229 1.327 . S
C4231 C4247 1.429 . S
C4231 H4253 0.950 . S
C4232 H4228 0.949 . S
C4232 C4240 1.574 . S
C4232 C4248 1.368 . S
H4233 C4241 0.950 . S
H4234 C4239 0.950 . S
H4235 C4240 0.949 . S
H4236 C4242 0.950 . S
H4237 C4243 0.950 . S
H4238 C4244 0.949 . S
C4239 H4234 0.950 . S
C4239 C4241 1.327 . S
C4239 C4245 1.429 . S
C4240 C4232 1.574 . S
C4240 H4235 0.949 . S
C4240 C4246 1.368 . S
C4241 C4225 1.349 . S
C4241 H4233 0.950 . S
C4241 C4239 1.327 . S
C4242 C4230 1.349 . S
C4242 H4236 0.950 . S
C4242 C4243 1.327 . S
C4243 H4237 0.950 . S
C4243 C4242 1.327 . S
C4243 C4247 1.429 . S
C4244 C4227 1.574 . S
C4244 H4238 0.949 . S
C4244 C4248 1.368 . S
C4245 C4226 1.429 . S
C4245 C4239 1.429 . S
C4245 C4246 1.523 . S
C4246 C4227 1.368 . S
C4246 C4240 1.368 . S
C4246 C4245 1.523 . S
C4247 C4231 1.429 . S
C4247 C4243 1.429 . S
C4247 C4248 1.523 . S
C4248 C4232 1.368 . S
C4248 C4244 1.368 . S
C4248 C4247 1.523 . S
H4249 C4224 0.950 . S
H4250 C4226 0.950 . S
H4251 C4227 0.949 . S
H4252 C4229 0.950 . S
H4253 C4231 0.950 . S
C4254 C4255 1.349 . S
C4254 C4256 1.327 . S
C4254 H4279 0.950 . S
C4255 C4254 1.349 . S
C4255 C4271 1.349 . S
C4256 C4254 1.327 . S
C4256 C4275 1.429 . S
C4256 H4280 0.950 . S
C4257 C4274 1.574 . S
C4257 C4276 1.368 . S
C4257 H4281 0.949 . S
H4258 C4262 0.949 . S
C4259 C4260 1.349 . S
C4259 C4261 1.327 . S
C4259 H4282 0.950 . S
C4260 C4259 1.349 . S
C4260 C4272 1.349 . S
C4261 C4259 1.327 . S
C4261 C4277 1.429 . S
C4261 H4283 0.950 . S
C4262 H4258 0.949 . S
C4262 C4270 1.574 . S
C4262 C4278 1.368 . S
H4263 C4271 0.950 . S
H4264 C4269 0.950 . S
H4265 C4270 0.949 . S
H4266 C4272 0.950 . S
H4267 C4273 0.950 . S
H4268 C4274 0.949 . S
C4269 H4264 0.950 . S
C4269 C4271 1.327 . S
C4269 C4275 1.429 . S
C4270 C4262 1.574 . S
C4270 H4265 0.949 . S
C4270 C4276 1.368 . S
C4271 C4255 1.349 . S
C4271 H4263 0.950 . S
C4271 C4269 1.327 . S
C4272 C4260 1.349 . S
C4272 H4266 0.950 . S
C4272 C4273 1.327 . S
C4273 H4267 0.950 . S
C4273 C4272 1.327 . S
C4273 C4277 1.429 . S
C4274 C4257 1.574 . S
C4274 H4268 0.949 . S
C4274 C4278 1.368 . S
C4275 C4256 1.429 . S
C4275 C4269 1.429 . S
C4275 C4276 1.523 . S
C4276 C4257 1.368 . S
C4276 C4270 1.368 . S
C4276 C4275 1.523 . S
C4277 C4261 1.429 . S
C4277 C4273 1.429 . S
C4277 C4278 1.523 . S
C4278 C4262 1.368 . S
C4278 C4274 1.368 . S
C4278 C4277 1.523 . S
H4279 C4254 0.950 . S
H4280 C4256 0.950 . S
H4281 C4257 0.949 . S
H4282 C4259 0.950 . S
H4283 C4261 0.950 . S
C4284 C4285 1.349 . S
C4284 C4286 1.327 . S
C4284 H4309 0.950 . S
C4285 C4284 1.349 . S
C4285 C4301 1.349 . S
C4286 C4284 1.327 . S
C4286 C4305 1.429 . S
C4286 H4310 0.950 . S
C4287 C4304 1.574 . S
C4287 C4306 1.368 . S
C4287 H4311 0.949 . S
H4288 C4292 0.949 . S
C4289 C4290 1.349 . S
C4289 C4291 1.327 . S
C4289 H4312 0.950 . S
C4290 C4289 1.349 . S
C4290 C4302 1.349 . S
C4291 C4289 1.327 . S
C4291 C4307 1.429 . S
C4291 H4313 0.950 . S
C4292 H4288 0.949 . S
C4292 C4300 1.574 . S
C4292 C4308 1.368 . S
H4293 C4301 0.950 . S
H4294 C4299 0.950 . S
H4295 C4300 0.949 . S
H4296 C4302 0.950 . S
H4297 C4303 0.950 . S
H4298 C4304 0.949 . S
C4299 H4294 0.950 . S
C4299 C4301 1.327 . S
C4299 C4305 1.429 . S
C4300 C4292 1.574 . S
C4300 H4295 0.949 . S
C4300 C4306 1.368 . S
C4301 C4285 1.349 . S
C4301 H4293 0.950 . S
C4301 C4299 1.327 . S
C4302 C4290 1.349 . S
C4302 H4296 0.950 . S
C4302 C4303 1.327 . S
C4303 H4297 0.950 . S
C4303 C4302 1.327 . S
C4303 C4307 1.429 . S
C4304 C4287 1.574 . S
C4304 H4298 0.949 . S
C4304 C4308 1.368 . S
C4305 C4286 1.429 . S
C4305 C4299 1.429 . S
C4305 C4306 1.523 . S
C4306 C4287 1.368 . S
C4306 C4300 1.368 . S
C4306 C4305 1.523 . S
C4307 C4291 1.429 . S
C4307 C4303 1.429 . S
C4307 C4308 1.523 . S
C4308 C4292 1.368 . S
C4308 C4304 1.368 . S
C4308 C4307 1.523 . S
H4309 C4284 0.950 . S
H4310 C4286 0.950 . S
H4311 C4287 0.949 . S
H4312 C4289 0.950 . S
H4313 C4291 0.950 . S
C4314 C4315 1.349 . S
C4314 C4316 1.327 . S
C4314 H4339 0.950 . S
C4315 C4314 1.349 . S
C4315 C4331 1.349 . S
C4316 C4314 1.327 . S
C4316 C4335 1.429 . S
C4316 H4340 0.950 . S
C4317 C4334 1.574 . S
C4317 C4336 1.368 . S
C4317 H4341 0.949 . S
H4318 C4322 0.949 . S
C4319 C4320 1.349 . S
C4319 C4321 1.327 . S
C4319 H4342 0.950 . S
C4320 C4319 1.349 . S
C4320 C4332 1.349 . S
C4321 C4319 1.327 . S
C4321 C4337 1.429 . S
C4321 H4343 0.950 . S
C4322 H4318 0.949 . S
C4322 C4330 1.574 . S
C4322 C4338 1.368 . S
H4323 C4331 0.950 . S
H4324 C4329 0.950 . S
H4325 C4330 0.949 . S
H4326 C4332 0.950 . S
H4327 C4333 0.950 . S
H4328 C4334 0.949 . S
C4329 H4324 0.950 . S
C4329 C4331 1.327 . S
C4329 C4335 1.429 . S
C4330 C4322 1.574 . S
C4330 H4325 0.949 . S
C4330 C4336 1.368 . S
C4331 C4315 1.349 . S
C4331 H4323 0.950 . S
C4331 C4329 1.327 . S
C4332 C4320 1.349 . S
C4332 H4326 0.950 . S
C4332 C4333 1.327 . S
C4333 H4327 0.950 . S
C4333 C4332 1.327 . S
C4333 C4337 1.429 . S
C4334 C4317 1.574 . S
C4334 H4328 0.949 . S
C4334 C4338 1.368 . S
C4335 C4316 1.429 . S
C4335 C4329 1.429 . S
C4335 C4336 1.523 . S
C4336 C4317 1.368 . S
C4336 C4330 1.368 . S
C4336 C4335 1.523 . S
C4337 C4321 1.429 . S
C4337 C4333 1.429 . S
C4337 C4338 1.523 . S
C4338 C4322 1.368 . S
C4338 C4334 1.368 . S
C4338 C4337 1.523 . S
H4339 C4314 0.950 . S
H4340 C4316 0.950 . S
H4341 C4317 0.949 . S
H4342 C4319 0.950 . S
H4343 C4321 0.950 . S
C4344 C4345 1.349 . S
C4344 C4346 1.327 . S
C4344 H4369 0.950 . S
C4345 C4344 1.349 . S
C4345 C4361 1.349 . S
C4346 C4344 1.327 . S
C4346 C4365 1.429 . S
C4346 H4370 0.950 . S
C4347 C4364 1.574 . S
C4347 C4366 1.368 . S
C4347 H4371 0.949 . S
H4348 C4352 0.949 . S
C4349 C4350 1.349 . S
C4349 C4351 1.327 . S
C4349 H4372 0.950 . S
C4350 C4349 1.349 . S
C4350 C4362 1.349 . S
C4351 C4349 1.327 . S
C4351 C4367 1.429 . S
C4351 H4373 0.950 . S
C4352 H4348 0.949 . S
C4352 C4360 1.574 . S
C4352 C4368 1.368 . S
H4353 C4361 0.950 . S
H4354 C4359 0.950 . S
H4355 C4360 0.949 . S
H4356 C4362 0.950 1_556 S
H4357 C4363 0.950 . S
H4358 C4364 0.949 . S
C4359 H4354 0.950 . S
C4359 C4361 1.327 . S
C4359 C4365 1.429 . S
C4360 C4352 1.574 . S
C4360 H4355 0.949 . S
C4360 C4366 1.368 . S
C4361 C4345 1.349 . S
C4361 H4353 0.950 . S
C4361 C4359 1.327 . S
C4362 C4350 1.349 . S
C4362 H4356 0.950 1_554 S
C4362 C4363 1.327 . S
C4363 H4357 0.950 . S
C4363 C4362 1.327 . S
C4363 C4367 1.429 . S
C4364 C4347 1.574 . S
C4364 H4358 0.949 . S
C4364 C4368 1.368 . S
C4365 C4346 1.429 . S
C4365 C4359 1.429 . S
C4365 C4366 1.523 . S
C4366 C4347 1.368 . S
C4366 C4360 1.368 . S
C4366 C4365 1.523 . S
C4367 C4351 1.429 . S
C4367 C4363 1.429 . S
C4367 C4368 1.523 . S
C4368 C4352 1.368 . S
C4368 C4364 1.368 . S
C4368 C4367 1.523 . S
H4369 C4344 0.950 . S
H4370 C4346 0.950 . S
H4371 C4347 0.949 . S
H4372 C4349 0.950 . S
H4373 C4351 0.950 . S
C4374 C4375 1.349 . S
C4374 C4376 1.327 . S
C4374 H4399 0.950 . S
C4375 C4374 1.349 . S
C4375 C4391 1.349 . S
C4376 C4374 1.327 . S
C4376 C4395 1.429 . S
C4376 H4400 0.950 . S
C4377 C4394 1.574 . S
C4377 C4396 1.368 . S
C4377 H4401 0.949 . S
H4378 C4382 0.949 . S
C4379 C4380 1.349 . S
C4379 C4381 1.327 . S
C4379 H4402 0.950 . S
C4380 C4379 1.349 . S
C4380 C4392 1.349 . S
C4381 C4379 1.327 . S
C4381 C4397 1.429 . S
C4381 H4403 0.950 . S
C4382 H4378 0.949 . S
C4382 C4390 1.574 . S
C4382 C4398 1.368 . S
H4383 C4391 0.950 . S
H4384 C4389 0.950 . S
H4385 C4390 0.949 . S
H4386 C4392 0.950 . S
H4387 C4393 0.950 . S
H4388 C4394 0.949 . S
C4389 H4384 0.950 . S
C4389 C4391 1.327 . S
C4389 C4395 1.429 . S
C4390 C4382 1.574 . S
C4390 H4385 0.949 . S
C4390 C4396 1.368 . S
C4391 C4375 1.349 . S
C4391 H4383 0.950 . S
C4391 C4389 1.327 . S
C4392 C4380 1.349 . S
C4392 H4386 0.950 . S
C4392 C4393 1.327 . S
C4393 H4387 0.950 . S
C4393 C4392 1.327 . S
C4393 C4397 1.429 . S
C4394 C4377 1.574 . S
C4394 H4388 0.949 . S
C4394 C4398 1.368 . S
C4395 C4376 1.429 . S
C4395 C4389 1.429 . S
C4395 C4396 1.523 . S
C4396 C4377 1.368 . S
C4396 C4390 1.368 . S
C4396 C4395 1.523 . S
C4397 C4381 1.429 . S
C4397 C4393 1.429 . S
C4397 C4398 1.523 . S
C4398 C4382 1.368 . S
C4398 C4394 1.368 . S
C4398 C4397 1.523 . S
H4399 C4374 0.950 . S
H4400 C4376 0.950 . S
H4401 C4377 0.949 . S
H4402 C4379 0.950 . S
H4403 C4381 0.950 . S
C4404 C4405 1.349 . S
C4404 C4406 1.327 . S
C4404 H4429 0.950 . S
C4405 C4404 1.349 . S
C4405 C4421 1.349 . S
C4406 C4404 1.327 . S
C4406 C4425 1.429 . S
C4406 H4430 0.950 . S
C4407 C4424 1.574 . S
C4407 C4426 1.368 . S
C4407 H4431 0.949 . S
H4408 C4412 0.949 . S
C4409 C4410 1.349 . S
C4409 C4411 1.327 . S
C4409 H4432 0.950 . S
C4410 C4409 1.349 . S
C4410 C4422 1.349 . S
C4411 C4409 1.327 . S
C4411 C4427 1.429 . S
C4411 H4433 0.950 . S
C4412 H4408 0.949 . S
C4412 C4420 1.574 . S
C4412 C4428 1.368 . S
H4413 C4421 0.950 . S
H4414 C4419 0.950 . S
H4415 C4420 0.949 . S
H4416 C4422 0.950 . S
H4417 C4423 0.950 . S
H4418 C4424 0.949 . S
C4419 H4414 0.950 . S
C4419 C4421 1.327 . S
C4419 C4425 1.429 . S
C4420 C4412 1.574 . S
C4420 H4415 0.949 . S
C4420 C4426 1.368 . S
C4421 C4405 1.349 . S
C4421 H4413 0.950 . S
C4421 C4419 1.327 . S
C4422 C4410 1.349 . S
C4422 H4416 0.950 . S
C4422 C4423 1.327 . S
C4423 H4417 0.950 . S
C4423 C4422 1.327 . S
C4423 C4427 1.429 . S
C4424 C4407 1.574 . S
C4424 H4418 0.949 . S
C4424 C4428 1.368 . S
C4425 C4406 1.429 . S
C4425 C4419 1.429 . S
C4425 C4426 1.523 . S
C4426 C4407 1.368 . S
C4426 C4420 1.368 . S
C4426 C4425 1.523 . S
C4427 C4411 1.429 . S
C4427 C4423 1.429 . S
C4427 C4428 1.523 . S
C4428 C4412 1.368 . S
C4428 C4424 1.368 . S
C4428 C4427 1.523 . S
H4429 C4404 0.950 . S
H4430 C4406 0.950 . S
H4431 C4407 0.949 . S
H4432 C4409 0.950 . S
H4433 C4411 0.950 . S
C4434 C4435 1.349 . S
C4434 C4436 1.327 . S
C4434 H4459 0.950 . S
C4435 C4434 1.349 . S
C4435 C4451 1.349 . S
C4436 C4434 1.327 . S
C4436 C4455 1.429 . S
C4436 H4460 0.950 . S
C4437 C4454 1.574 . S
C4437 C4456 1.368 . S
C4437 H4461 0.949 . S
H4438 C4442 0.949 . S
C4439 C4440 1.349 . S
C4439 C4441 1.327 . S
C4439 H4462 0.950 . S
C4440 C4439 1.349 . S
C4440 C4452 1.349 . S
C4441 C4439 1.327 . S
C4441 C4457 1.429 . S
C4441 H4463 0.950 . S
C4442 H4438 0.949 . S
C4442 C4450 1.574 . S
C4442 C4458 1.368 . S
H4443 C4451 0.950 . S
H4444 C4449 0.950 . S
H4445 C4450 0.949 . S
H4446 C4452 0.950 . S
H4447 C4453 0.950 . S
H4448 C4454 0.949 . S
C4449 H4444 0.950 . S
C4449 C4451 1.327 . S
C4449 C4455 1.429 . S
C4450 C4442 1.574 . S
C4450 H4445 0.949 . S
C4450 C4456 1.368 . S
C4451 C4435 1.349 . S
C4451 H4443 0.950 . S
C4451 C4449 1.327 . S
C4452 C4440 1.349 . S
C4452 H4446 0.950 . S
C4452 C4453 1.327 . S
C4453 H4447 0.950 . S
C4453 C4452 1.327 . S
C4453 C4457 1.429 . S
C4454 C4437 1.574 . S
C4454 H4448 0.949 . S
C4454 C4458 1.368 . S
C4455 C4436 1.429 . S
C4455 C4449 1.429 . S
C4455 C4456 1.523 . S
C4456 C4437 1.368 . S
C4456 C4450 1.368 . S
C4456 C4455 1.523 . S
C4457 C4441 1.429 . S
C4457 C4453 1.429 . S
C4457 C4458 1.523 . S
C4458 C4442 1.368 . S
C4458 C4454 1.368 . S
C4458 C4457 1.523 . S
H4459 C4434 0.950 . S
H4460 C4436 0.950 . S
H4461 C4437 0.949 . S
H4462 C4439 0.950 . S
H4463 C4441 0.950 . S
C4464 C4465 1.349 . S
C4464 C4466 1.327 . S
C4464 H4489 0.950 . S
C4465 C4464 1.349 . S
C4465 C4481 1.349 . S
C4466 C4464 1.327 . S
C4466 C4485 1.429 . S
C4466 H4490 0.950 . S
C4467 C4484 1.574 . S
C4467 C4486 1.368 . S
C4467 H4491 0.949 . S
H4468 C4472 0.949 . S
C4469 C4470 1.349 . S
C4469 C4471 1.327 . S
C4469 H4492 0.950 . S
C4470 C4469 1.349 . S
C4470 C4482 1.349 . S
C4471 C4469 1.327 . S
C4471 C4487 1.429 . S
C4471 H4493 0.950 . S
C4472 H4468 0.949 . S
C4472 C4480 1.574 . S
C4472 C4488 1.368 . S
H4473 C4481 0.950 . S
H4474 C4479 0.950 . S
H4475 C4480 0.949 . S
H4476 C4482 0.950 . S
H4477 C4483 0.950 . S
H4478 C4484 0.949 . S
C4479 H4474 0.950 . S
C4479 C4481 1.327 . S
C4479 C4485 1.429 . S
C4480 C4472 1.574 . S
C4480 H4475 0.949 . S
C4480 C4486 1.368 . S
C4481 C4465 1.349 . S
C4481 H4473 0.950 . S
C4481 C4479 1.327 . S
C4482 C4470 1.349 . S
C4482 H4476 0.950 . S
C4482 C4483 1.327 . S
C4483 H4477 0.950 . S
C4483 C4482 1.327 . S
C4483 C4487 1.429 . S
C4484 C4467 1.574 . S
C4484 H4478 0.949 . S
C4484 C4488 1.368 . S
C4485 C4466 1.429 . S
C4485 C4479 1.429 . S
C4485 C4486 1.523 . S
C4486 C4467 1.368 . S
C4486 C4480 1.368 . S
C4486 C4485 1.523 . S
C4487 C4471 1.429 . S
C4487 C4483 1.429 . S
C4487 C4488 1.523 . S
C4488 C4472 1.368 . S
C4488 C4484 1.368 . S
C4488 C4487 1.523 . S
H4489 C4464 0.950 . S
H4490 C4466 0.950 . S
H4491 C4467 0.949 . S
H4492 C4469 0.950 . S
H4493 C4471 0.950 . S
C4494 C4495 1.349 . S
C4494 C4496 1.327 . S
C4494 H4519 0.950 . S
C4495 C4494 1.349 . S
C4495 C4511 1.349 . S
C4496 C4494 1.327 . S
C4496 C4515 1.429 . S
C4496 H4520 0.950 . S
C4497 C4514 1.574 . S
C4497 C4516 1.368 . S
C4497 H4521 0.949 . S
H4498 C4502 0.949 . S
C4499 C4500 1.349 . S
C4499 C4501 1.327 . S
C4499 H4522 0.950 . S
C4500 C4499 1.349 . S
C4500 C4512 1.349 . S
C4501 C4499 1.327 . S
C4501 C4517 1.429 . S
C4501 H4523 0.950 . S
C4502 H4498 0.949 . S
C4502 C4510 1.574 . S
C4502 C4518 1.368 . S
H4503 C4511 0.950 . S
H4504 C4509 0.950 . S
H4505 C4510 0.949 . S
H4506 C4512 0.950 . S
H4507 C4513 0.950 . S
H4508 C4514 0.949 . S
C4509 H4504 0.950 . S
C4509 C4511 1.327 . S
C4509 C4515 1.429 . S
C4510 C4502 1.574 . S
C4510 H4505 0.949 . S
C4510 C4516 1.368 . S
C4511 C4495 1.349 . S
C4511 H4503 0.950 . S
C4511 C4509 1.327 . S
C4512 C4500 1.349 . S
C4512 H4506 0.950 . S
C4512 C4513 1.327 . S
C4513 H4507 0.950 . S
C4513 C4512 1.327 . S
C4513 C4517 1.429 . S
C4514 C4497 1.574 . S
C4514 H4508 0.949 . S
C4514 C4518 1.368 . S
C4515 C4496 1.429 . S
C4515 C4509 1.429 . S
C4515 C4516 1.523 . S
C4516 C4497 1.368 . S
C4516 C4510 1.368 . S
C4516 C4515 1.523 . S
C4517 C4501 1.429 . S
C4517 C4513 1.429 . S
C4517 C4518 1.523 . S
C4518 C4502 1.368 . S
C4518 C4514 1.368 . S
C4518 C4517 1.523 . S
H4519 C4494 0.950 . S
H4520 C4496 0.950 . S
H4521 C4497 0.949 . S
H4522 C4499 0.950 . S
H4523 C4501 0.950 . S
C4524 C4525 1.349 . S
C4524 C4526 1.327 . S
C4524 H4549 0.950 . S
C4525 C4524 1.349 . S
C4525 C4541 1.349 . S
C4526 C4524 1.327 . S
C4526 C4545 1.429 . S
C4526 H4550 0.950 . S
C4527 C4544 1.574 . S
C4527 C4546 1.368 . S
C4527 H4551 0.949 . S
H4528 C4532 0.949 . S
C4529 C4530 1.349 . S
C4529 C4531 1.327 . S
C4529 H4552 0.950 . S
C4530 C4529 1.349 . S
C4530 C4542 1.349 . S
C4531 C4529 1.327 . S
C4531 C4547 1.429 . S
C4531 H4553 0.950 . S
C4532 H4528 0.949 . S
C4532 C4540 1.574 . S
C4532 C4548 1.368 . S
H4533 C4541 0.950 . S
H4534 C4539 0.950 . S
H4535 C4540 0.949 . S
H4536 C4542 0.950 . S
H4537 C4543 0.950 . S
H4538 C4544 0.949 . S
C4539 H4534 0.950 . S
C4539 C4541 1.327 . S
C4539 C4545 1.429 . S
C4540 C4532 1.574 . S
C4540 H4535 0.949 . S
C4540 C4546 1.368 . S
C4541 C4525 1.349 . S
C4541 H4533 0.950 . S
C4541 C4539 1.327 . S
C4542 C4530 1.349 . S
C4542 H4536 0.950 . S
C4542 C4543 1.327 . S
C4543 H4537 0.950 . S
C4543 C4542 1.327 . S
C4543 C4547 1.429 . S
C4544 C4527 1.574 . S
C4544 H4538 0.949 . S
C4544 C4548 1.368 . S
C4545 C4526 1.429 . S
C4545 C4539 1.429 . S
C4545 C4546 1.523 . S
C4546 C4527 1.368 . S
C4546 C4540 1.368 . S
C4546 C4545 1.523 . S
C4547 C4531 1.429 . S
C4547 C4543 1.429 . S
C4547 C4548 1.523 . S
C4548 C4532 1.368 . S
C4548 C4544 1.368 . S
C4548 C4547 1.523 . S
H4549 C4524 0.950 . S
H4550 C4526 0.950 . S
H4551 C4527 0.949 . S
H4552 C4529 0.950 . S
H4553 C4531 0.950 . S
C4554 C4555 1.349 . S
C4554 C4556 1.327 . S
C4554 H4579 0.950 . S
C4555 C4554 1.349 . S
C4555 C4571 1.349 . S
C4556 C4554 1.327 . S
C4556 C4575 1.429 . S
C4556 H4580 0.950 . S
C4557 C4574 1.574 . S
C4557 C4576 1.368 . S
C4557 H4581 0.949 . S
H4558 C4562 0.949 . S
C4559 C4560 1.349 . S
C4559 C4561 1.327 . S
C4559 H4582 0.950 . S
C4560 C4559 1.349 . S
C4560 C4572 1.349 . S
C4561 C4559 1.327 . S
C4561 C4577 1.429 . S
C4561 H4583 0.950 . S
C4562 H4558 0.949 . S
C4562 C4570 1.574 . S
C4562 C4578 1.368 . S
H4563 C4571 0.950 . S
H4564 C4569 0.950 . S
H4565 C4570 0.949 . S
H4566 C4572 0.950 . S
H4567 C4573 0.950 . S
H4568 C4574 0.949 . S
C4569 H4564 0.950 . S
C4569 C4571 1.327 . S
C4569 C4575 1.429 . S
C4570 C4562 1.574 . S
C4570 H4565 0.949 . S
C4570 C4576 1.368 . S
C4571 C4555 1.349 . S
C4571 H4563 0.950 . S
C4571 C4569 1.327 . S
C4572 C4560 1.349 . S
C4572 H4566 0.950 . S
C4572 C4573 1.327 . S
C4573 H4567 0.950 . S
C4573 C4572 1.327 . S
C4573 C4577 1.429 . S
C4574 C4557 1.574 . S
C4574 H4568 0.949 . S
C4574 C4578 1.368 . S
C4575 C4556 1.429 . S
C4575 C4569 1.429 . S
C4575 C4576 1.523 . S
C4576 C4557 1.368 . S
C4576 C4570 1.368 . S
C4576 C4575 1.523 . S
C4577 C4561 1.429 . S
C4577 C4573 1.429 . S
C4577 C4578 1.523 . S
C4578 C4562 1.368 . S
C4578 C4574 1.368 . S
C4578 C4577 1.523 . S
H4579 C4554 0.950 . S
H4580 C4556 0.950 . S
H4581 C4557 0.949 . S
H4582 C4559 0.950 . S
H4583 C4561 0.950 . S
C4584 C4585 1.349 . S
C4584 C4586 1.327 . S
C4584 H4609 0.950 . S
C4585 C4584 1.349 . S
C4585 C4601 1.349 . S
C4586 C4584 1.327 . S
C4586 C4605 1.429 . S
C4586 H4610 0.950 . S
C4587 C4604 1.574 . S
C4587 C4606 1.368 . S
C4587 H4611 0.949 . S
H4588 C4592 0.949 . S
C4589 C4590 1.349 . S
C4589 C4591 1.327 . S
C4589 H4612 0.950 . S
C4590 C4589 1.349 . S
C4590 C4602 1.349 . S
C4591 C4589 1.327 . S
C4591 C4607 1.429 . S
C4591 H4613 0.950 . S
C4592 H4588 0.949 . S
C4592 C4600 1.574 . S
C4592 C4608 1.368 . S
H4593 C4601 0.950 . S
H4594 C4599 0.950 . S
H4595 C4600 0.949 . S
H4596 C4602 0.950 . S
H4597 C4603 0.950 . S
H4598 C4604 0.949 . S
C4599 H4594 0.950 . S
C4599 C4601 1.327 . S
C4599 C4605 1.429 . S
C4600 C4592 1.574 . S
C4600 H4595 0.949 . S
C4600 C4606 1.368 . S
C4601 C4585 1.349 . S
C4601 H4593 0.950 . S
C4601 C4599 1.327 . S
C4602 C4590 1.349 . S
C4602 H4596 0.950 . S
C4602 C4603 1.327 . S
C4603 H4597 0.950 . S
C4603 C4602 1.327 . S
C4603 C4607 1.429 . S
C4604 C4587 1.574 . S
C4604 H4598 0.949 . S
C4604 C4608 1.368 . S
C4605 C4586 1.429 . S
C4605 C4599 1.429 . S
C4605 C4606 1.523 . S
C4606 C4587 1.368 . S
C4606 C4600 1.368 . S
C4606 C4605 1.523 . S
C4607 C4591 1.429 . S
C4607 C4603 1.429 . S
C4607 C4608 1.523 . S
C4608 C4592 1.368 . S
C4608 C4604 1.368 . S
C4608 C4607 1.523 . S
H4609 C4584 0.950 . S
H4610 C4586 0.950 . S
H4611 C4587 0.949 . S
H4612 C4589 0.950 . S
H4613 C4591 0.950 . S
C4614 C4615 1.349 . S
C4614 C4616 1.327 . S
C4614 H4639 0.950 . S
C4615 C4614 1.349 . S
C4615 C4631 1.349 . S
C4616 C4614 1.327 . S
C4616 C4635 1.429 . S
C4616 H4640 0.950 . S
C4617 C4634 1.574 . S
C4617 C4636 1.368 . S
C4617 H4641 0.949 . S
H4618 C4622 0.949 . S
C4619 C4620 1.349 . S
C4619 C4621 1.327 . S
C4619 H4642 0.950 . S
C4620 C4619 1.349 . S
C4620 C4632 1.349 . S
C4621 C4619 1.327 . S
C4621 C4637 1.429 . S
C4621 H4643 0.950 . S
C4622 H4618 0.949 . S
C4622 C4630 1.574 . S
C4622 C4638 1.368 . S
H4623 C4631 0.950 . S
H4624 C4629 0.950 . S
H4625 C4630 0.949 . S
H4626 C4632 0.950 . S
H4627 C4633 0.950 . S
H4628 C4634 0.949 . S
C4629 H4624 0.950 . S
C4629 C4631 1.327 . S
C4629 C4635 1.429 . S
C4630 C4622 1.574 . S
C4630 H4625 0.949 . S
C4630 C4636 1.368 . S
C4631 C4615 1.349 . S
C4631 H4623 0.950 . S
C4631 C4629 1.327 . S
C4632 C4620 1.349 . S
C4632 H4626 0.950 . S
C4632 C4633 1.327 . S
C4633 H4627 0.950 . S
C4633 C4632 1.327 . S
C4633 C4637 1.429 . S
C4634 C4617 1.574 . S
C4634 H4628 0.949 . S
C4634 C4638 1.368 . S
C4635 C4616 1.429 . S
C4635 C4629 1.429 . S
C4635 C4636 1.523 . S
C4636 C4617 1.368 . S
C4636 C4630 1.368 . S
C4636 C4635 1.523 . S
C4637 C4621 1.429 . S
C4637 C4633 1.429 . S
C4637 C4638 1.523 . S
C4638 C4622 1.368 . S
C4638 C4634 1.368 . S
C4638 C4637 1.523 . S
H4639 C4614 0.950 . S
H4640 C4616 0.950 . S
H4641 C4617 0.949 . S
H4642 C4619 0.950 . S
H4643 C4621 0.950 . S
C4644 C4645 1.349 . S
C4644 C4646 1.327 . S
C4644 H4669 0.950 . S
C4645 C4644 1.349 . S
C4645 C4661 1.349 . S
C4646 C4644 1.327 . S
C4646 C4665 1.429 . S
C4646 H4670 0.950 . S
C4647 C4664 1.574 . S
C4647 C4666 1.368 . S
C4647 H4671 0.949 . S
H4648 C4652 0.949 . S
C4649 C4650 1.349 . S
C4649 C4651 1.327 . S
C4649 H4672 0.950 . S
C4650 C4649 1.349 . S
C4650 C4662 1.349 . S
C4651 C4649 1.327 . S
C4651 C4667 1.429 . S
C4651 H4673 0.950 . S
C4652 H4648 0.949 . S
C4652 C4660 1.574 . S
C4652 C4668 1.368 . S
H4653 C4661 0.950 . S
H4654 C4659 0.950 . S
H4655 C4660 0.949 . S
H4656 C4662 0.950 . S
H4657 C4663 0.950 . S
H4658 C4664 0.949 . S
C4659 H4654 0.950 . S
C4659 C4661 1.327 . S
C4659 C4665 1.429 . S
C4660 C4652 1.574 . S
C4660 H4655 0.949 . S
C4660 C4666 1.368 . S
C4661 C4645 1.349 . S
C4661 H4653 0.950 . S
C4661 C4659 1.327 . S
C4662 C4650 1.349 . S
C4662 H4656 0.950 . S
C4662 C4663 1.327 . S
C4663 H4657 0.950 . S
C4663 C4662 1.327 . S
C4663 C4667 1.429 . S
C4664 C4647 1.574 . S
C4664 H4658 0.949 . S
C4664 C4668 1.368 . S
C4665 C4646 1.429 . S
C4665 C4659 1.429 . S
C4665 C4666 1.523 . S
C4666 C4647 1.368 . S
C4666 C4660 1.368 . S
C4666 C4665 1.523 . S
C4667 C4651 1.429 . S
C4667 C4663 1.429 . S
C4667 C4668 1.523 . S
C4668 C4652 1.368 . S
C4668 C4664 1.368 . S
C4668 C4667 1.523 . S
H4669 C4644 0.950 . S
H4670 C4646 0.950 . S
H4671 C4647 0.949 . S
H4672 C4649 0.950 . S
H4673 C4651 0.950 . S
C4674 C4675 1.349 . S
C4674 C4676 1.327 . S
C4674 H4699 0.950 . S
C4675 C4674 1.349 . S
C4675 C4691 1.349 . S
C4676 C4674 1.327 . S
C4676 C4695 1.429 . S
C4676 H4700 0.950 . S
C4677 C4694 1.574 . S
C4677 C4696 1.368 . S
C4677 H4701 0.949 . S
H4678 C4682 0.949 . S
C4679 C4680 1.349 . S
C4679 C4681 1.327 . S
C4679 H4702 0.950 . S
C4680 C4679 1.349 . S
C4680 C4692 1.349 . S
C4681 C4679 1.327 . S
C4681 C4697 1.429 . S
C4681 H4703 0.950 . S
C4682 H4678 0.949 . S
C4682 C4690 1.574 . S
C4682 C4698 1.368 . S
H4683 C4691 0.950 . S
H4684 C4689 0.950 . S
H4685 C4690 0.949 . S
H4686 C4692 0.950 . S
H4687 C4693 0.950 . S
H4688 C4694 0.949 . S
C4689 H4684 0.950 . S
C4689 C4691 1.327 . S
C4689 C4695 1.429 . S
C4690 C4682 1.574 . S
C4690 H4685 0.949 . S
C4690 C4696 1.368 . S
C4691 C4675 1.349 . S
C4691 H4683 0.950 . S
C4691 C4689 1.327 . S
C4692 C4680 1.349 . S
C4692 H4686 0.950 . S
C4692 C4693 1.327 . S
C4693 H4687 0.950 . S
C4693 C4692 1.327 . S
C4693 C4697 1.429 . S
C4694 C4677 1.574 . S
C4694 H4688 0.949 . S
C4694 C4698 1.368 . S
C4695 C4676 1.429 . S
C4695 C4689 1.429 . S
C4695 C4696 1.523 . S
C4696 C4677 1.368 . S
C4696 C4690 1.368 . S
C4696 C4695 1.523 . S
C4697 C4681 1.429 . S
C4697 C4693 1.429 . S
C4697 C4698 1.523 . S
C4698 C4682 1.368 . S
C4698 C4694 1.368 . S
C4698 C4697 1.523 . S
H4699 C4674 0.950 . S
H4700 C4676 0.950 . S
H4701 C4677 0.949 . S
H4702 C4679 0.950 . S
H4703 C4681 0.950 . S
C4704 C4705 1.349 . S
C4704 C4706 1.327 . S
C4704 H4729 0.950 . S
C4705 C4704 1.349 . S
C4705 C4721 1.349 . S
C4706 C4704 1.327 . S
C4706 C4725 1.429 . S
C4706 H4730 0.950 . S
C4707 C4724 1.574 . S
C4707 C4726 1.368 . S
C4707 H4731 0.949 . S
H4708 C4712 0.949 . S
C4709 C4710 1.349 . S
C4709 C4711 1.327 . S
C4709 H4732 0.950 . S
C4710 C4709 1.349 . S
C4710 C4722 1.349 . S
C4711 C4709 1.327 . S
C4711 C4727 1.429 . S
C4711 H4733 0.950 . S
C4712 H4708 0.949 . S
C4712 C4720 1.574 . S
C4712 C4728 1.368 . S
H4713 C4721 0.950 . S
H4714 C4719 0.950 . S
H4715 C4720 0.949 . S
H4716 C4722 0.950 . S
H4717 C4723 0.950 . S
H4718 C4724 0.949 . S
C4719 H4714 0.950 . S
C4719 C4721 1.327 . S
C4719 C4725 1.429 . S
C4720 C4712 1.574 . S
C4720 H4715 0.949 . S
C4720 C4726 1.368 . S
C4721 C4705 1.349 . S
C4721 H4713 0.950 . S
C4721 C4719 1.327 . S
C4722 C4710 1.349 . S
C4722 H4716 0.950 . S
C4722 C4723 1.327 . S
C4723 H4717 0.950 . S
C4723 C4722 1.327 . S
C4723 C4727 1.429 . S
C4724 C4707 1.574 . S
C4724 H4718 0.949 . S
C4724 C4728 1.368 . S
C4725 C4706 1.429 . S
C4725 C4719 1.429 . S
C4725 C4726 1.523 . S
C4726 C4707 1.368 . S
C4726 C4720 1.368 . S
C4726 C4725 1.523 . S
C4727 C4711 1.429 . S
C4727 C4723 1.429 . S
C4727 C4728 1.523 . S
C4728 C4712 1.368 . S
C4728 C4724 1.368 . S
C4728 C4727 1.523 . S
H4729 C4704 0.950 . S
H4730 C4706 0.950 . S
H4731 C4707 0.949 . S
H4732 C4709 0.950 . S
H4733 C4711 0.950 . S
C4734 C4735 1.349 . S
C4734 C4736 1.327 . S
C4734 H4759 0.950 . S
C4735 C4734 1.349 . S
C4735 C4751 1.349 . S
C4736 C4734 1.327 . S
C4736 C4755 1.429 . S
C4736 H4760 0.950 . S
C4737 C4754 1.574 . S
C4737 C4756 1.368 . S
C4737 H4761 0.949 . S
H4738 C4742 0.949 . S
C4739 C4740 1.349 . S
C4739 C4741 1.327 . S
C4739 H4762 0.950 . S
C4740 C4739 1.349 . S
C4740 C4752 1.349 . S
C4741 C4739 1.327 . S
C4741 C4757 1.429 . S
C4741 H4763 0.950 . S
C4742 H4738 0.949 . S
C4742 C4750 1.574 . S
C4742 C4758 1.368 . S
H4743 C4751 0.950 . S
H4744 C4749 0.950 . S
H4745 C4750 0.949 . S
H4746 C4752 0.950 . S
H4747 C4753 0.950 . S
H4748 C4754 0.949 . S
C4749 H4744 0.950 . S
C4749 C4751 1.327 . S
C4749 C4755 1.429 . S
C4750 C4742 1.574 . S
C4750 H4745 0.949 . S
C4750 C4756 1.368 . S
C4751 C4735 1.349 . S
C4751 H4743 0.950 . S
C4751 C4749 1.327 . S
C4752 C4740 1.349 . S
C4752 H4746 0.950 . S
C4752 C4753 1.327 . S
C4753 H4747 0.950 . S
C4753 C4752 1.327 . S
C4753 C4757 1.429 . S
C4754 C4737 1.574 . S
C4754 H4748 0.949 . S
C4754 C4758 1.368 . S
C4755 C4736 1.429 . S
C4755 C4749 1.429 . S
C4755 C4756 1.523 . S
C4756 C4737 1.368 . S
C4756 C4750 1.368 . S
C4756 C4755 1.523 . S
C4757 C4741 1.429 . S
C4757 C4753 1.429 . S
C4757 C4758 1.523 . S
C4758 C4742 1.368 . S
C4758 C4754 1.368 . S
C4758 C4757 1.523 . S
H4759 C4734 0.950 . S
H4760 C4736 0.950 . S
H4761 C4737 0.949 . S
H4762 C4739 0.950 . S
H4763 C4741 0.950 . S
C4764 C4765 1.349 . S
C4764 C4766 1.327 . S
C4764 H4789 0.950 . S
C4765 C4764 1.349 . S
C4765 C4781 1.349 . S
C4766 C4764 1.327 . S
C4766 C4785 1.429 . S
C4766 H4790 0.950 . S
C4767 C4784 1.574 . S
C4767 C4786 1.368 . S
C4767 H4791 0.949 . S
H4768 C4772 0.949 . S
C4769 C4770 1.349 . S
C4769 C4771 1.327 . S
C4769 H4792 0.950 . S
C4770 C4769 1.349 . S
C4770 C4782 1.349 . S
C4771 C4769 1.327 . S
C4771 C4787 1.429 . S
C4771 H4793 0.950 . S
C4772 H4768 0.949 . S
C4772 C4780 1.574 . S
C4772 C4788 1.368 . S
H4773 C4781 0.950 . S
H4774 C4779 0.950 . S
H4775 C4780 0.949 . S
H4776 C4782 0.950 . S
H4777 C4783 0.950 . S
H4778 C4784 0.949 . S
C4779 H4774 0.950 . S
C4779 C4781 1.327 . S
C4779 C4785 1.429 . S
C4780 C4772 1.574 . S
C4780 H4775 0.949 . S
C4780 C4786 1.368 . S
C4781 C4765 1.349 . S
C4781 H4773 0.950 . S
C4781 C4779 1.327 . S
C4782 C4770 1.349 . S
C4782 H4776 0.950 . S
C4782 C4783 1.327 . S
C4783 H4777 0.950 . S
C4783 C4782 1.327 . S
C4783 C4787 1.429 . S
C4784 C4767 1.574 . S
C4784 H4778 0.949 . S
C4784 C4788 1.368 . S
C4785 C4766 1.429 . S
C4785 C4779 1.429 . S
C4785 C4786 1.523 . S
C4786 C4767 1.368 . S
C4786 C4780 1.368 . S
C4786 C4785 1.523 . S
C4787 C4771 1.429 . S
C4787 C4783 1.429 . S
C4787 C4788 1.523 . S
C4788 C4772 1.368 . S
C4788 C4784 1.368 . S
C4788 C4787 1.523 . S
H4789 C4764 0.950 . S
H4790 C4766 0.950 . S
H4791 C4767 0.949 . S
H4792 C4769 0.950 . S
H4793 C4771 0.950 . S
C4794 C4795 1.349 . S
C4794 C4796 1.327 . S
C4794 H4819 0.950 . S
C4795 C4794 1.349 . S
C4795 C4811 1.349 . S
C4796 C4794 1.327 . S
C4796 C4815 1.429 . S
C4796 H4820 0.950 . S
C4797 C4814 1.574 . S
C4797 C4816 1.368 . S
C4797 H4821 0.949 . S
H4798 C4802 0.949 . S
C4799 C4800 1.349 . S
C4799 C4801 1.327 . S
C4799 H4822 0.950 . S
C4800 C4799 1.349 . S
C4800 C4812 1.349 . S
C4801 C4799 1.327 . S
C4801 C4817 1.429 . S
C4801 H4823 0.950 . S
C4802 H4798 0.949 . S
C4802 C4810 1.574 . S
C4802 C4818 1.368 . S
H4803 C4811 0.950 . S
H4804 C4809 0.950 . S
H4805 C4810 0.949 . S
H4806 C4812 0.950 . S
H4807 C4813 0.950 . S
H4808 C4814 0.949 . S
C4809 H4804 0.950 . S
C4809 C4811 1.327 . S
C4809 C4815 1.429 . S
C4810 C4802 1.574 . S
C4810 H4805 0.949 . S
C4810 C4816 1.368 . S
C4811 C4795 1.349 . S
C4811 H4803 0.950 . S
C4811 C4809 1.327 . S
C4812 C4800 1.349 . S
C4812 H4806 0.950 . S
C4812 C4813 1.327 . S
C4813 H4807 0.950 . S
C4813 C4812 1.327 . S
C4813 C4817 1.429 . S
C4814 C4797 1.574 . S
C4814 H4808 0.949 . S
C4814 C4818 1.368 . S
C4815 C4796 1.429 . S
C4815 C4809 1.429 . S
C4815 C4816 1.523 . S
C4816 C4797 1.368 . S
C4816 C4810 1.368 . S
C4816 C4815 1.523 . S
C4817 C4801 1.429 . S
C4817 C4813 1.429 . S
C4817 C4818 1.523 . S
C4818 C4802 1.368 . S
C4818 C4814 1.368 . S
C4818 C4817 1.523 . S
H4819 C4794 0.950 . S
H4820 C4796 0.950 . S
H4821 C4797 0.949 . S
H4822 C4799 0.950 . S
H4823 C4801 0.950 . S
C4824 C4825 1.349 . S
C4824 C4826 1.327 . S
C4824 H4849 0.950 . S
C4825 C4824 1.349 . S
C4825 C4841 1.349 . S
C4826 C4824 1.327 . S
C4826 C4845 1.429 . S
C4826 H4850 0.950 . S
C4827 C4844 1.574 . S
C4827 C4846 1.368 . S
C4827 H4851 0.949 . S
H4828 C4832 0.949 . S
C4829 C4830 1.349 . S
C4829 C4831 1.327 . S
C4829 H4852 0.950 . S
C4830 C4829 1.349 . S
C4830 C4842 1.349 . S
C4831 C4829 1.327 . S
C4831 C4847 1.429 . S
C4831 H4853 0.950 . S
C4832 H4828 0.949 . S
C4832 C4840 1.574 . S
C4832 C4848 1.368 . S
H4833 C4841 0.950 . S
H4834 C4839 0.950 . S
H4835 C4840 0.949 . S
H4836 C4842 0.950 . S
H4837 C4843 0.950 . S
H4838 C4844 0.949 . S
C4839 H4834 0.950 . S
C4839 C4841 1.327 . S
C4839 C4845 1.429 . S
C4840 C4832 1.574 . S
C4840 H4835 0.949 . S
C4840 C4846 1.368 . S
C4841 C4825 1.349 . S
C4841 H4833 0.950 . S
C4841 C4839 1.327 . S
C4842 C4830 1.349 . S
C4842 H4836 0.950 . S
C4842 C4843 1.327 . S
C4843 H4837 0.950 . S
C4843 C4842 1.327 . S
C4843 C4847 1.429 . S
C4844 C4827 1.574 . S
C4844 H4838 0.949 . S
C4844 C4848 1.368 . S
C4845 C4826 1.429 . S
C4845 C4839 1.429 . S
C4845 C4846 1.523 . S
C4846 C4827 1.368 . S
C4846 C4840 1.368 . S
C4846 C4845 1.523 . S
C4847 C4831 1.429 . S
C4847 C4843 1.429 . S
C4847 C4848 1.523 . S
C4848 C4832 1.368 . S
C4848 C4844 1.368 . S
C4848 C4847 1.523 . S
H4849 C4824 0.950 . S
H4850 C4826 0.950 . S
H4851 C4827 0.949 . S
H4852 C4829 0.950 . S
H4853 C4831 0.950 . S
C4854 C4855 1.349 . S
C4854 C4856 1.327 . S
C4854 H4879 0.950 . S
C4855 C4854 1.349 . S
C4855 C4871 1.349 . S
C4856 C4854 1.327 . S
C4856 C4875 1.429 . S
C4856 H4880 0.950 . S
C4857 C4874 1.574 . S
C4857 C4876 1.368 . S
C4857 H4881 0.949 . S
H4858 C4862 0.949 . S
C4859 C4860 1.349 . S
C4859 C4861 1.327 . S
C4859 H4882 0.950 . S
C4860 C4859 1.349 . S
C4860 C4872 1.349 . S
C4861 C4859 1.327 . S
C4861 C4877 1.429 . S
C4861 H4883 0.950 . S
C4862 H4858 0.949 . S
C4862 C4870 1.574 . S
C4862 C4878 1.368 . S
H4863 C4871 0.950 . S
H4864 C4869 0.950 . S
H4865 C4870 0.949 . S
H4866 C4872 0.950 . S
H4867 C4873 0.950 . S
H4868 C4874 0.949 . S
C4869 H4864 0.950 . S
C4869 C4871 1.327 . S
C4869 C4875 1.429 . S
C4870 C4862 1.574 . S
C4870 H4865 0.949 . S
C4870 C4876 1.368 . S
C4871 C4855 1.349 . S
C4871 H4863 0.950 . S
C4871 C4869 1.327 . S
C4872 C4860 1.349 . S
C4872 H4866 0.950 . S
C4872 C4873 1.327 . S
C4873 H4867 0.950 . S
C4873 C4872 1.327 . S
C4873 C4877 1.429 . S
C4874 C4857 1.574 . S
C4874 H4868 0.949 . S
C4874 C4878 1.368 . S
C4875 C4856 1.429 . S
C4875 C4869 1.429 . S
C4875 C4876 1.523 . S
C4876 C4857 1.368 . S
C4876 C4870 1.368 . S
C4876 C4875 1.523 . S
C4877 C4861 1.429 . S
C4877 C4873 1.429 . S
C4877 C4878 1.523 . S
C4878 C4862 1.368 . S
C4878 C4874 1.368 . S
C4878 C4877 1.523 . S
H4879 C4854 0.950 . S
H4880 C4856 0.950 . S
H4881 C4857 0.949 . S
H4882 C4859 0.950 . S
H4883 C4861 0.950 . S
C4884 C4885 1.349 . S
C4884 C4886 1.327 . S
C4884 H4909 0.950 . S
C4885 C4884 1.349 . S
C4885 C4901 1.349 . S
C4886 C4884 1.327 . S
C4886 C4905 1.429 . S
C4886 H4910 0.950 . S
C4887 C4904 1.574 . S
C4887 C4906 1.368 . S
C4887 H4911 0.949 . S
H4888 C4892 0.949 . S
C4889 C4890 1.349 . S
C4889 C4891 1.327 . S
C4889 H4912 0.950 . S
C4890 C4889 1.349 . S
C4890 C4902 1.349 . S
C4891 C4889 1.327 . S
C4891 C4907 1.429 . S
C4891 H4913 0.950 . S
C4892 H4888 0.949 . S
C4892 C4900 1.574 . S
C4892 C4908 1.368 . S
H4893 C4901 0.950 . S
H4894 C4899 0.950 . S
H4895 C4900 0.949 . S
H4896 C4902 0.950 . S
H4897 C4903 0.950 . S
H4898 C4904 0.949 . S
C4899 H4894 0.950 . S
C4899 C4901 1.327 . S
C4899 C4905 1.429 . S
C4900 C4892 1.574 . S
C4900 H4895 0.949 . S
C4900 C4906 1.368 . S
C4901 C4885 1.349 . S
C4901 H4893 0.950 . S
C4901 C4899 1.327 . S
C4902 C4890 1.349 . S
C4902 H4896 0.950 . S
C4902 C4903 1.327 . S
C4903 H4897 0.950 . S
C4903 C4902 1.327 . S
C4903 C4907 1.429 . S
C4904 C4887 1.574 . S
C4904 H4898 0.949 . S
C4904 C4908 1.368 . S
C4905 C4886 1.429 . S
C4905 C4899 1.429 . S
C4905 C4906 1.523 . S
C4906 C4887 1.368 . S
C4906 C4900 1.368 . S
C4906 C4905 1.523 . S
C4907 C4891 1.429 . S
C4907 C4903 1.429 . S
C4907 C4908 1.523 . S
C4908 C4892 1.368 . S
C4908 C4904 1.368 . S
C4908 C4907 1.523 . S
H4909 C4884 0.950 . S
H4910 C4886 0.950 . S
H4911 C4887 0.949 . S
H4912 C4889 0.950 . S
H4913 C4891 0.950 . S
C4914 C4915 1.349 . S
C4914 C4916 1.327 . S
C4914 H4939 0.950 . S
C4915 C4914 1.349 . S
C4915 C4931 1.349 . S
C4916 C4914 1.327 . S
C4916 C4935 1.429 . S
C4916 H4940 0.950 . S
C4917 C4934 1.574 . S
C4917 C4936 1.368 . S
C4917 H4941 0.949 . S
H4918 C4922 0.949 . S
C4919 C4920 1.349 . S
C4919 C4921 1.327 . S
C4919 H4942 0.950 . S
C4920 C4919 1.349 . S
C4920 C4932 1.349 . S
C4921 C4919 1.327 . S
C4921 C4937 1.429 . S
C4921 H4943 0.950 . S
C4922 H4918 0.949 . S
C4922 C4930 1.574 . S
C4922 C4938 1.368 . S
H4923 C4931 0.950 . S
H4924 C4929 0.950 . S
H4925 C4930 0.949 . S
H4926 C4932 0.950 . S
H4927 C4933 0.950 . S
H4928 C4934 0.949 . S
C4929 H4924 0.950 . S
C4929 C4931 1.327 . S
C4929 C4935 1.429 . S
C4930 C4922 1.574 . S
C4930 H4925 0.949 . S
C4930 C4936 1.368 . S
C4931 C4915 1.349 . S
C4931 H4923 0.950 . S
C4931 C4929 1.327 . S
C4932 C4920 1.349 . S
C4932 H4926 0.950 . S
C4932 C4933 1.327 . S
C4933 H4927 0.950 . S
C4933 C4932 1.327 . S
C4933 C4937 1.429 . S
C4934 C4917 1.574 . S
C4934 H4928 0.949 . S
C4934 C4938 1.368 . S
C4935 C4916 1.429 . S
C4935 C4929 1.429 . S
C4935 C4936 1.523 . S
C4936 C4917 1.368 . S
C4936 C4930 1.368 . S
C4936 C4935 1.523 . S
C4937 C4921 1.429 . S
C4937 C4933 1.429 . S
C4937 C4938 1.523 . S
C4938 C4922 1.368 . S
C4938 C4934 1.368 . S
C4938 C4937 1.523 . S
H4939 C4914 0.950 . S
H4940 C4916 0.950 . S
H4941 C4917 0.949 . S
H4942 C4919 0.950 . S
H4943 C4921 0.950 . S
C4944 C4945 1.349 . S
C4944 C4946 1.327 . S
C4944 H4969 0.950 . S
C4945 C4944 1.349 . S
C4945 C4961 1.349 . S
C4946 C4944 1.327 . S
C4946 C4965 1.429 . S
C4946 H4970 0.950 . S
C4947 C4964 1.574 . S
C4947 C4966 1.368 . S
C4947 H4971 0.949 . S
H4948 C4952 0.949 . S
C4949 C4950 1.349 . S
C4949 C4951 1.327 . S
C4949 H4972 0.950 . S
C4950 C4949 1.349 . S
C4950 C4962 1.349 . S
C4951 C4949 1.327 . S
C4951 C4967 1.429 . S
C4951 H4973 0.950 . S
C4952 H4948 0.949 . S
C4952 C4960 1.574 . S
C4952 C4968 1.368 . S
H4953 C4961 0.950 . S
H4954 C4959 0.950 . S
H4955 C4960 0.949 . S
H4956 C4962 0.950 . S
H4957 C4963 0.950 . S
H4958 C4964 0.949 . S
C4959 H4954 0.950 . S
C4959 C4961 1.327 . S
C4959 C4965 1.429 . S
C4960 C4952 1.574 . S
C4960 H4955 0.949 . S
C4960 C4966 1.368 . S
C4961 C4945 1.349 . S
C4961 H4953 0.950 . S
C4961 C4959 1.327 . S
C4962 C4950 1.349 . S
C4962 H4956 0.950 . S
C4962 C4963 1.327 . S
C4963 H4957 0.950 . S
C4963 C4962 1.327 . S
C4963 C4967 1.429 . S
C4964 C4947 1.574 . S
C4964 H4958 0.949 . S
C4964 C4968 1.368 . S
C4965 C4946 1.429 . S
C4965 C4959 1.429 . S
C4965 C4966 1.523 . S
C4966 C4947 1.368 . S
C4966 C4960 1.368 . S
C4966 C4965 1.523 . S
C4967 C4951 1.429 . S
C4967 C4963 1.429 . S
C4967 C4968 1.523 . S
C4968 C4952 1.368 . S
C4968 C4964 1.368 . S
C4968 C4967 1.523 . S
H4969 C4944 0.950 . S
H4970 C4946 0.950 . S
H4971 C4947 0.949 . S
H4972 C4949 0.950 . S
H4973 C4951 0.950 . S
C4974 C4975 1.349 . S
C4974 C4976 1.327 . S
C4974 H4999 0.950 . S
C4975 C4974 1.349 . S
C4975 C4991 1.349 . S
C4976 C4974 1.327 . S
C4976 C4995 1.429 . S
C4976 H5000 0.950 . S
C4977 C4994 1.574 . S
C4977 C4996 1.368 . S
C4977 H5001 0.949 . S
H4978 C4982 0.949 . S
C4979 C4980 1.349 . S
C4979 C4981 1.327 . S
C4979 H5002 0.950 . S
C4980 C4979 1.349 . S
C4980 C4992 1.349 . S
C4981 C4979 1.327 . S
C4981 C4997 1.429 . S
C4981 H5003 0.950 . S
C4982 H4978 0.949 . S
C4982 C4990 1.574 . S
C4982 C4998 1.368 . S
H4983 C4991 0.950 . S
H4984 C4989 0.950 . S
H4985 C4990 0.949 . S
H4986 C4992 0.950 . S
H4987 C4993 0.950 . S
H4988 C4994 0.949 . S
C4989 H4984 0.950 . S
C4989 C4991 1.327 . S
C4989 C4995 1.429 . S
C4990 C4982 1.574 . S
C4990 H4985 0.949 . S
C4990 C4996 1.368 . S
C4991 C4975 1.349 . S
C4991 H4983 0.950 . S
C4991 C4989 1.327 . S
C4992 C4980 1.349 . S
C4992 H4986 0.950 . S
C4992 C4993 1.327 . S
C4993 H4987 0.950 . S
C4993 C4992 1.327 . S
C4993 C4997 1.429 . S
C4994 C4977 1.574 . S
C4994 H4988 0.949 . S
C4994 C4998 1.368 . S
C4995 C4976 1.429 . S
C4995 C4989 1.429 . S
C4995 C4996 1.523 . S
C4996 C4977 1.368 . S
C4996 C4990 1.368 . S
C4996 C4995 1.523 . S
C4997 C4981 1.429 . S
C4997 C4993 1.429 . S
C4997 C4998 1.523 . S
C4998 C4982 1.368 . S
C4998 C4994 1.368 . S
C4998 C4997 1.523 . S
H4999 C4974 0.950 . S
H5000 C4976 0.950 . S
H5001 C4977 0.949 . S
H5002 C4979 0.950 . S
H5003 C4981 0.950 . S
C5004 C5005 1.349 . S
C5004 C5006 1.327 . S
C5004 H5029 0.950 . S
C5005 C5004 1.349 . S
C5005 C5021 1.349 . S
C5006 C5004 1.327 . S
C5006 C5025 1.429 . S
C5006 H5030 0.950 . S
C5007 C5024 1.574 . S
C5007 C5026 1.368 . S
C5007 H5031 0.949 . S
H5008 C5012 0.949 . S
C5009 C5010 1.349 . S
C5009 C5011 1.327 . S
C5009 H5032 0.950 . S
C5010 C5009 1.349 . S
C5010 C5022 1.349 . S
C5011 C5009 1.327 . S
C5011 C5027 1.429 . S
C5011 H5033 0.950 . S
C5012 H5008 0.949 . S
C5012 C5020 1.574 . S
C5012 C5028 1.368 . S
H5013 C5021 0.950 . S
H5014 C5019 0.950 . S
H5015 C5020 0.949 . S
H5016 C5022 0.950 . S
H5017 C5023 0.950 . S
H5018 C5024 0.949 . S
C5019 H5014 0.950 . S
C5019 C5021 1.327 . S
C5019 C5025 1.429 . S
C5020 C5012 1.574 . S
C5020 H5015 0.949 . S
C5020 C5026 1.368 . S
C5021 C5005 1.349 . S
C5021 H5013 0.950 . S
C5021 C5019 1.327 . S
C5022 C5010 1.349 . S
C5022 H5016 0.950 . S
C5022 C5023 1.327 . S
C5023 H5017 0.950 . S
C5023 C5022 1.327 . S
C5023 C5027 1.429 . S
C5024 C5007 1.574 . S
C5024 H5018 0.949 . S
C5024 C5028 1.368 . S
C5025 C5006 1.429 . S
C5025 C5019 1.429 . S
C5025 C5026 1.523 . S
C5026 C5007 1.368 . S
C5026 C5020 1.368 . S
C5026 C5025 1.523 . S
C5027 C5011 1.429 . S
C5027 C5023 1.429 . S
C5027 C5028 1.523 . S
C5028 C5012 1.368 . S
C5028 C5024 1.368 . S
C5028 C5027 1.523 . S
H5029 C5004 0.950 . S
H5030 C5006 0.950 . S
H5031 C5007 0.949 . S
H5032 C5009 0.950 . S
H5033 C5011 0.950 . S
C5034 C5035 1.349 . S
C5034 C5036 1.327 . S
C5034 H5059 0.950 . S
C5035 C5034 1.349 . S
C5035 C5051 1.349 . S
C5036 C5034 1.327 . S
C5036 C5055 1.429 . S
C5036 H5060 0.950 . S
C5037 C5054 1.574 . S
C5037 C5056 1.368 . S
C5037 H5061 0.949 . S
H5038 C5042 0.949 . S
C5039 C5040 1.349 . S
C5039 C5041 1.327 . S
C5039 H5062 0.950 . S
C5040 C5039 1.349 . S
C5040 C5052 1.349 . S
C5041 C5039 1.327 . S
C5041 C5057 1.429 . S
C5041 H5063 0.950 . S
C5042 H5038 0.949 . S
C5042 C5050 1.574 . S
C5042 C5058 1.368 . S
H5043 C5051 0.950 . S
H5044 C5049 0.950 . S
H5045 C5050 0.949 . S
H5046 C5052 0.950 . S
H5047 C5053 0.950 . S
H5048 C5054 0.949 . S
C5049 H5044 0.950 . S
C5049 C5051 1.327 . S
C5049 C5055 1.429 . S
C5050 C5042 1.574 . S
C5050 H5045 0.949 . S
C5050 C5056 1.368 . S
C5051 C5035 1.349 . S
C5051 H5043 0.950 . S
C5051 C5049 1.327 . S
C5052 C5040 1.349 . S
C5052 H5046 0.950 . S
C5052 C5053 1.327 . S
C5053 H5047 0.950 . S
C5053 C5052 1.327 . S
C5053 C5057 1.429 . S
C5054 C5037 1.574 . S
C5054 H5048 0.949 . S
C5054 C5058 1.368 . S
C5055 C5036 1.429 . S
C5055 C5049 1.429 . S
C5055 C5056 1.523 . S
C5056 C5037 1.368 . S
C5056 C5050 1.368 . S
C5056 C5055 1.523 . S
C5057 C5041 1.429 . S
C5057 C5053 1.429 . S
C5057 C5058 1.523 . S
C5058 C5042 1.368 . S
C5058 C5054 1.368 . S
C5058 C5057 1.523 . S
H5059 C5034 0.950 . S
H5060 C5036 0.950 . S
H5061 C5037 0.949 . S
H5062 C5039 0.950 . S
H5063 C5041 0.950 . S
C5064 C5065 1.349 . S
C5064 C5066 1.327 . S
C5064 H5089 0.950 . S
C5065 C5064 1.349 . S
C5065 C5081 1.349 . S
C5066 C5064 1.327 . S
C5066 C5085 1.429 . S
C5066 H5090 0.950 . S
C5067 C5084 1.574 . S
C5067 C5086 1.368 . S
C5067 H5091 0.949 . S
H5068 C5072 0.949 . S
C5069 C5070 1.349 . S
C5069 C5071 1.327 . S
C5069 H5092 0.950 . S
C5070 C5069 1.349 . S
C5070 C5082 1.349 . S
C5071 C5069 1.327 . S
C5071 C5087 1.429 . S
C5071 H5093 0.950 . S
C5072 H5068 0.949 . S
C5072 C5080 1.574 . S
C5072 C5088 1.368 . S
H5073 C5081 0.950 . S
H5074 C5079 0.950 . S
H5075 C5080 0.949 . S
H5076 C5082 0.950 . S
H5077 C5083 0.950 . S
H5078 C5084 0.949 . S
C5079 H5074 0.950 . S
C5079 C5081 1.327 . S
C5079 C5085 1.429 . S
C5080 C5072 1.574 . S
C5080 H5075 0.949 . S
C5080 C5086 1.368 . S
C5081 C5065 1.349 . S
C5081 H5073 0.950 . S
C5081 C5079 1.327 . S
C5082 C5070 1.349 . S
C5082 H5076 0.950 . S
C5082 C5083 1.327 . S
C5083 H5077 0.950 . S
C5083 C5082 1.327 . S
C5083 C5087 1.429 . S
C5084 C5067 1.574 . S
C5084 H5078 0.949 . S
C5084 C5088 1.368 . S
C5085 C5066 1.429 . S
C5085 C5079 1.429 . S
C5085 C5086 1.523 . S
C5086 C5067 1.368 . S
C5086 C5080 1.368 . S
C5086 C5085 1.523 . S
C5087 C5071 1.429 . S
C5087 C5083 1.429 . S
C5087 C5088 1.523 . S
C5088 C5072 1.368 . S
C5088 C5084 1.368 . S
C5088 C5087 1.523 . S
H5089 C5064 0.950 . S
H5090 C5066 0.950 . S
H5091 C5067 0.949 . S
H5092 C5069 0.950 . S
H5093 C5071 0.950 . S
C5094 C5095 1.349 . S
C5094 C5096 1.327 . S
C5094 H5119 0.950 . S
C5095 C5094 1.349 . S
C5095 C5111 1.349 . S
C5096 C5094 1.327 . S
C5096 C5115 1.429 . S
C5096 H5120 0.950 . S
C5097 C5114 1.574 . S
C5097 C5116 1.368 . S
C5097 H5121 0.949 . S
H5098 C5102 0.949 . S
C5099 C5100 1.349 . S
C5099 C5101 1.327 . S
C5099 H5122 0.950 . S
C5100 C5099 1.349 . S
C5100 C5112 1.349 . S
C5101 C5099 1.327 . S
C5101 C5117 1.429 . S
C5101 H5123 0.950 . S
C5102 H5098 0.949 . S
C5102 C5110 1.574 . S
C5102 C5118 1.368 . S
H5103 C5111 0.950 . S
H5104 C5109 0.950 . S
H5105 C5110 0.949 . S
H5106 C5112 0.950 . S
H5107 C5113 0.950 . S
H5108 C5114 0.949 . S
C5109 H5104 0.950 . S
C5109 C5111 1.327 . S
C5109 C5115 1.429 . S
C5110 C5102 1.574 . S
C5110 H5105 0.949 . S
C5110 C5116 1.368 . S
C5111 C5095 1.349 . S
C5111 H5103 0.950 . S
C5111 C5109 1.327 . S
C5112 C5100 1.349 . S
C5112 H5106 0.950 . S
C5112 C5113 1.327 . S
C5113 H5107 0.950 . S
C5113 C5112 1.327 . S
C5113 C5117 1.429 . S
C5114 C5097 1.574 . S
C5114 H5108 0.949 . S
C5114 C5118 1.368 . S
C5115 C5096 1.429 . S
C5115 C5109 1.429 . S
C5115 C5116 1.523 . S
C5116 C5097 1.368 . S
C5116 C5110 1.368 . S
C5116 C5115 1.523 . S
C5117 C5101 1.429 . S
C5117 C5113 1.429 . S
C5117 C5118 1.523 . S
C5118 C5102 1.368 . S
C5118 C5114 1.368 . S
C5118 C5117 1.523 . S
H5119 C5094 0.950 . S
H5120 C5096 0.950 . S
H5121 C5097 0.949 . S
H5122 C5099 0.950 . S
H5123 C5101 0.950 . S
C5124 C5125 1.349 . S
C5124 C5126 1.327 . S
C5124 H5149 0.950 . S
C5125 C5124 1.349 . S
C5125 C5141 1.349 . S
C5126 C5124 1.327 . S
C5126 C5145 1.429 . S
C5126 H5150 0.950 . S
C5127 C5144 1.574 . S
C5127 C5146 1.368 . S
C5127 H5151 0.949 . S
H5128 C5132 0.949 . S
C5129 C5130 1.349 . S
C5129 C5131 1.327 . S
C5129 H5152 0.950 . S
C5130 C5129 1.349 . S
C5130 C5142 1.349 . S
C5131 C5129 1.327 . S
C5131 C5147 1.429 . S
C5131 H5153 0.950 . S
C5132 H5128 0.949 . S
C5132 C5140 1.574 . S
C5132 C5148 1.368 . S
H5133 C5141 0.950 . S
H5134 C5139 0.950 . S
H5135 C5140 0.949 . S
H5136 C5142 0.950 . S
H5137 C5143 0.950 . S
H5138 C5144 0.949 . S
C5139 H5134 0.950 . S
C5139 C5141 1.327 . S
C5139 C5145 1.429 . S
C5140 C5132 1.574 . S
C5140 H5135 0.949 . S
C5140 C5146 1.368 . S
C5141 C5125 1.349 . S
C5141 H5133 0.950 . S
C5141 C5139 1.327 . S
C5142 C5130 1.349 . S
C5142 H5136 0.950 . S
C5142 C5143 1.327 . S
C5143 H5137 0.950 . S
C5143 C5142 1.327 . S
C5143 C5147 1.429 . S
C5144 C5127 1.574 . S
C5144 H5138 0.949 . S
C5144 C5148 1.368 . S
C5145 C5126 1.429 . S
C5145 C5139 1.429 . S
C5145 C5146 1.523 . S
C5146 C5127 1.368 . S
C5146 C5140 1.368 . S
C5146 C5145 1.523 . S
C5147 C5131 1.429 . S
C5147 C5143 1.429 . S
C5147 C5148 1.523 . S
C5148 C5132 1.368 . S
C5148 C5144 1.368 . S
C5148 C5147 1.523 . S
H5149 C5124 0.950 . S
H5150 C5126 0.950 . S
H5151 C5127 0.949 . S
H5152 C5129 0.950 . S
H5153 C5131 0.950 . S
C5154 C5155 1.349 . S
C5154 C5156 1.327 . S
C5154 H5179 0.950 . S
C5155 C5154 1.349 . S
C5155 C5171 1.349 . S
C5156 C5154 1.327 . S
C5156 C5175 1.429 . S
C5156 H5180 0.950 . S
C5157 C5174 1.574 . S
C5157 C5176 1.368 . S
C5157 H5181 0.949 . S
H5158 C5162 0.949 . S
C5159 C5160 1.349 . S
C5159 C5161 1.327 . S
C5159 H5182 0.950 . S
C5160 C5159 1.349 . S
C5160 C5172 1.349 . S
C5161 C5159 1.327 . S
C5161 C5177 1.429 . S
C5161 H5183 0.950 . S
C5162 H5158 0.949 . S
C5162 C5170 1.574 . S
C5162 C5178 1.368 . S
H5163 C5171 0.950 . S
H5164 C5169 0.950 . S
H5165 C5170 0.949 . S
H5166 C5172 0.950 . S
H5167 C5173 0.950 . S
H5168 C5174 0.949 . S
C5169 H5164 0.950 . S
C5169 C5171 1.327 . S
C5169 C5175 1.429 . S
C5170 C5162 1.574 . S
C5170 H5165 0.949 . S
C5170 C5176 1.368 . S
C5171 C5155 1.349 . S
C5171 H5163 0.950 . S
C5171 C5169 1.327 . S
C5172 C5160 1.349 . S
C5172 H5166 0.950 . S
C5172 C5173 1.327 . S
C5173 H5167 0.950 . S
C5173 C5172 1.327 . S
C5173 C5177 1.429 . S
C5174 C5157 1.574 . S
C5174 H5168 0.949 . S
C5174 C5178 1.368 . S
C5175 C5156 1.429 . S
C5175 C5169 1.429 . S
C5175 C5176 1.523 . S
C5176 C5157 1.368 . S
C5176 C5170 1.368 . S
C5176 C5175 1.523 . S
C5177 C5161 1.429 . S
C5177 C5173 1.429 . S
C5177 C5178 1.523 . S
C5178 C5162 1.368 . S
C5178 C5174 1.368 . S
C5178 C5177 1.523 . S
H5179 C5154 0.950 . S
H5180 C5156 0.950 . S
H5181 C5157 0.949 . S
H5182 C5159 0.950 . S
H5183 C5161 0.950 . S
C5184 C5185 1.349 . S
C5184 C5186 1.327 . S
C5184 H5209 0.950 . S
C5185 C5184 1.349 . S
C5185 C5201 1.349 . S
C5186 C5184 1.327 . S
C5186 C5205 1.429 . S
C5186 H5210 0.950 . S
C5187 C5204 1.574 . S
C5187 C5206 1.368 . S
C5187 H5211 0.949 . S
H5188 C5192 0.949 . S
C5189 C5190 1.349 . S
C5189 C5191 1.327 . S
C5189 H5212 0.950 . S
C5190 C5189 1.349 . S
C5190 C5202 1.349 . S
C5191 C5189 1.327 . S
C5191 C5207 1.429 . S
C5191 H5213 0.950 . S
C5192 H5188 0.949 . S
C5192 C5200 1.574 . S
C5192 C5208 1.368 . S
H5193 C5201 0.950 . S
H5194 C5199 0.950 . S
H5195 C5200 0.949 . S
H5196 C5202 0.950 . S
H5197 C5203 0.950 . S
H5198 C5204 0.949 . S
C5199 H5194 0.950 . S
C5199 C5201 1.327 . S
C5199 C5205 1.429 . S
C5200 C5192 1.574 . S
C5200 H5195 0.949 . S
C5200 C5206 1.368 . S
C5201 C5185 1.349 . S
C5201 H5193 0.950 . S
C5201 C5199 1.327 . S
C5202 C5190 1.349 . S
C5202 H5196 0.950 . S
C5202 C5203 1.327 . S
C5203 H5197 0.950 . S
C5203 C5202 1.327 . S
C5203 C5207 1.429 . S
C5204 C5187 1.574 . S
C5204 H5198 0.949 . S
C5204 C5208 1.368 . S
C5205 C5186 1.429 . S
C5205 C5199 1.429 . S
C5205 C5206 1.523 . S
C5206 C5187 1.368 . S
C5206 C5200 1.368 . S
C5206 C5205 1.523 . S
C5207 C5191 1.429 . S
C5207 C5203 1.429 . S
C5207 C5208 1.523 . S
C5208 C5192 1.368 . S
C5208 C5204 1.368 . S
C5208 C5207 1.523 . S
H5209 C5184 0.950 . S
H5210 C5186 0.950 . S
H5211 C5187 0.949 . S
H5212 C5189 0.950 . S
H5213 C5191 0.950 . S
C5214 C5215 1.349 . S
C5214 C5216 1.327 . S
C5214 H5239 0.950 . S
C5215 C5214 1.349 . S
C5215 C5231 1.349 . S
C5216 C5214 1.327 . S
C5216 C5235 1.429 . S
C5216 H5240 0.950 . S
C5217 C5234 1.574 . S
C5217 C5236 1.368 . S
C5217 H5241 0.949 . S
H5218 C5222 0.949 . S
C5219 C5220 1.349 . S
C5219 C5221 1.327 . S
C5219 H5242 0.950 . S
C5220 C5219 1.349 . S
C5220 C5232 1.349 . S
C5221 C5219 1.327 . S
C5221 C5237 1.429 . S
C5221 H5243 0.950 . S
C5222 H5218 0.949 . S
C5222 C5230 1.574 . S
C5222 C5238 1.368 . S
H5223 C5231 0.950 . S
H5224 C5229 0.950 . S
H5225 C5230 0.949 . S
H5226 C5232 0.950 . S
H5227 C5233 0.950 . S
H5228 C5234 0.949 . S
C5229 H5224 0.950 . S
C5229 C5231 1.327 . S
C5229 C5235 1.429 . S
C5230 C5222 1.574 . S
C5230 H5225 0.949 . S
C5230 C5236 1.368 . S
C5231 C5215 1.349 . S
C5231 H5223 0.950 . S
C5231 C5229 1.327 . S
C5232 C5220 1.349 . S
C5232 H5226 0.950 . S
C5232 C5233 1.327 . S
C5233 H5227 0.950 . S
C5233 C5232 1.327 . S
C5233 C5237 1.429 . S
C5234 C5217 1.574 . S
C5234 H5228 0.949 . S
C5234 C5238 1.368 . S
C5235 C5216 1.429 . S
C5235 C5229 1.429 . S
C5235 C5236 1.523 . S
C5236 C5217 1.368 . S
C5236 C5230 1.368 . S
C5236 C5235 1.523 . S
C5237 C5221 1.429 . S
C5237 C5233 1.429 . S
C5237 C5238 1.523 . S
C5238 C5222 1.368 . S
C5238 C5234 1.368 . S
C5238 C5237 1.523 . S
H5239 C5214 0.950 . S
H5240 C5216 0.950 . S
H5241 C5217 0.949 . S
H5242 C5219 0.950 . S
H5243 C5221 0.950 . S
C5244 C5245 1.349 . S
C5244 C5246 1.327 . S
C5244 H5269 0.950 . S
C5245 C5244 1.349 . S
C5245 C5261 1.349 . S
C5246 C5244 1.327 . S
C5246 C5265 1.429 . S
C5246 H5270 0.950 . S
C5247 C5264 1.574 . S
C5247 C5266 1.368 . S
C5247 H5271 0.949 . S
H5248 C5252 0.949 . S
C5249 C5250 1.349 . S
C5249 C5251 1.327 . S
C5249 H5272 0.950 . S
C5250 C5249 1.349 . S
C5250 C5262 1.349 . S
C5251 C5249 1.327 . S
C5251 C5267 1.429 . S
C5251 H5273 0.950 . S
C5252 H5248 0.949 . S
C5252 C5260 1.574 . S
C5252 C5268 1.368 . S
H5253 C5261 0.950 . S
H5254 C5259 0.950 . S
H5255 C5260 0.949 . S
H5256 C5262 0.950 . S
H5257 C5263 0.950 . S
H5258 C5264 0.949 . S
C5259 H5254 0.950 . S
C5259 C5261 1.327 . S
C5259 C5265 1.429 . S
C5260 C5252 1.574 . S
C5260 H5255 0.949 . S
C5260 C5266 1.368 . S
C5261 C5245 1.349 . S
C5261 H5253 0.950 . S
C5261 C5259 1.327 . S
C5262 C5250 1.349 . S
C5262 H5256 0.950 . S
C5262 C5263 1.327 . S
C5263 H5257 0.950 . S
C5263 C5262 1.327 . S
C5263 C5267 1.429 . S
C5264 C5247 1.574 . S
C5264 H5258 0.949 . S
C5264 C5268 1.368 . S
C5265 C5246 1.429 . S
C5265 C5259 1.429 . S
C5265 C5266 1.523 . S
C5266 C5247 1.368 . S
C5266 C5260 1.368 . S
C5266 C5265 1.523 . S
C5267 C5251 1.429 . S
C5267 C5263 1.429 . S
C5267 C5268 1.523 . S
C5268 C5252 1.368 . S
C5268 C5264 1.368 . S
C5268 C5267 1.523 . S
H5269 C5244 0.950 . S
H5270 C5246 0.950 . S
H5271 C5247 0.949 . S
H5272 C5249 0.950 . S
H5273 C5251 0.950 . S
C5274 C5275 1.349 . S
C5274 C5276 1.327 . S
C5274 H5299 0.950 . S
C5275 C5274 1.349 . S
C5275 C5291 1.349 . S
C5276 C5274 1.327 . S
C5276 C5295 1.429 . S
C5276 H5300 0.950 . S
C5277 C5294 1.574 . S
C5277 C5296 1.368 . S
C5277 H5301 0.949 . S
H5278 C5282 0.949 . S
C5279 C5280 1.349 . S
C5279 C5281 1.327 . S
C5279 H5302 0.950 . S
C5280 C5279 1.349 . S
C5280 C5292 1.349 . S
C5281 C5279 1.327 . S
C5281 C5297 1.429 . S
C5281 H5303 0.950 . S
C5282 H5278 0.949 . S
C5282 C5290 1.574 . S
C5282 C5298 1.368 . S
H5283 C5291 0.950 . S
H5284 C5289 0.950 . S
H5285 C5290 0.949 . S
H5286 C5292 0.950 . S
H5287 C5293 0.950 . S
H5288 C5294 0.949 . S
C5289 H5284 0.950 . S
C5289 C5291 1.327 . S
C5289 C5295 1.429 . S
C5290 C5282 1.574 . S
C5290 H5285 0.949 . S
C5290 C5296 1.368 . S
C5291 C5275 1.349 . S
C5291 H5283 0.950 . S
C5291 C5289 1.327 . S
C5292 C5280 1.349 . S
C5292 H5286 0.950 . S
C5292 C5293 1.327 . S
C5293 H5287 0.950 . S
C5293 C5292 1.327 . S
C5293 C5297 1.429 . S
C5294 C5277 1.574 . S
C5294 H5288 0.949 . S
C5294 C5298 1.368 . S
C5295 C5276 1.429 . S
C5295 C5289 1.429 . S
C5295 C5296 1.523 . S
C5296 C5277 1.368 . S
C5296 C5290 1.368 . S
C5296 C5295 1.523 . S
C5297 C5281 1.429 . S
C5297 C5293 1.429 . S
C5297 C5298 1.523 . S
C5298 C5282 1.368 . S
C5298 C5294 1.368 . S
C5298 C5297 1.523 . S
H5299 C5274 0.950 . S
H5300 C5276 0.950 . S
H5301 C5277 0.949 . S
H5302 C5279 0.950 . S
H5303 C5281 0.950 . S
C5304 C5305 1.349 . S
C5304 C5306 1.327 . S
C5304 H5329 0.950 . S
C5305 C5304 1.349 . S
C5305 C5321 1.349 . S
C5306 C5304 1.327 . S
C5306 C5325 1.429 . S
C5306 H5330 0.950 . S
C5307 C5324 1.574 . S
C5307 C5326 1.368 . S
C5307 H5331 0.949 . S
H5308 C5312 0.949 . S
C5309 C5310 1.349 . S
C5309 C5311 1.327 . S
C5309 H5332 0.950 . S
C5310 C5309 1.349 . S
C5310 C5322 1.349 . S
C5311 C5309 1.327 . S
C5311 C5327 1.429 . S
C5311 H5333 0.950 . S
C5312 H5308 0.949 . S
C5312 C5320 1.574 . S
C5312 C5328 1.368 . S
H5313 C5321 0.950 . S
H5314 C5319 0.950 . S
H5315 C5320 0.949 . S
H5316 C5322 0.950 . S
H5317 C5323 0.950 . S
H5318 C5324 0.949 . S
C5319 H5314 0.950 . S
C5319 C5321 1.327 . S
C5319 C5325 1.429 . S
C5320 C5312 1.574 . S
C5320 H5315 0.949 . S
C5320 C5326 1.368 . S
C5321 C5305 1.349 . S
C5321 H5313 0.950 . S
C5321 C5319 1.327 . S
C5322 C5310 1.349 . S
C5322 H5316 0.950 . S
C5322 C5323 1.327 . S
C5323 H5317 0.950 . S
C5323 C5322 1.327 . S
C5323 C5327 1.429 . S
C5324 C5307 1.574 . S
C5324 H5318 0.949 . S
C5324 C5328 1.368 . S
C5325 C5306 1.429 . S
C5325 C5319 1.429 . S
C5325 C5326 1.523 . S
C5326 C5307 1.368 . S
C5326 C5320 1.368 . S
C5326 C5325 1.523 . S
C5327 C5311 1.429 . S
C5327 C5323 1.429 . S
C5327 C5328 1.523 . S
C5328 C5312 1.368 . S
C5328 C5324 1.368 . S
C5328 C5327 1.523 . S
H5329 C5304 0.950 . S
H5330 C5306 0.950 . S
H5331 C5307 0.949 . S
H5332 C5309 0.950 . S
H5333 C5311 0.950 . S
C5334 C5335 1.349 . S
C5334 C5336 1.327 . S
C5334 H5359 0.950 . S
C5335 C5334 1.349 . S
C5335 C5351 1.349 . S
C5336 C5334 1.327 . S
C5336 C5355 1.429 . S
C5336 H5360 0.950 . S
C5337 C5354 1.574 . S
C5337 C5356 1.368 . S
C5337 H5361 0.949 . S
H5338 C5342 0.949 . S
C5339 C5340 1.349 . S
C5339 C5341 1.327 . S
C5339 H5362 0.950 . S
C5340 C5339 1.349 . S
C5340 C5352 1.349 . S
C5341 C5339 1.327 . S
C5341 C5357 1.429 . S
C5341 H5363 0.950 . S
C5342 H5338 0.949 . S
C5342 C5350 1.574 . S
C5342 C5358 1.368 . S
H5343 C5351 0.950 . S
H5344 C5349 0.950 . S
H5345 C5350 0.949 . S
H5346 C5352 0.950 . S
H5347 C5353 0.950 . S
H5348 C5354 0.949 . S
C5349 H5344 0.950 . S
C5349 C5351 1.327 . S
C5349 C5355 1.429 . S
C5350 C5342 1.574 . S
C5350 H5345 0.949 . S
C5350 C5356 1.368 . S
C5351 C5335 1.349 . S
C5351 H5343 0.950 . S
C5351 C5349 1.327 . S
C5352 C5340 1.349 . S
C5352 H5346 0.950 . S
C5352 C5353 1.327 . S
C5353 H5347 0.950 . S
C5353 C5352 1.327 . S
C5353 C5357 1.429 . S
C5354 C5337 1.574 . S
C5354 H5348 0.949 . S
C5354 C5358 1.368 . S
C5355 C5336 1.429 . S
C5355 C5349 1.429 . S
C5355 C5356 1.523 . S
C5356 C5337 1.368 . S
C5356 C5350 1.368 . S
C5356 C5355 1.523 . S
C5357 C5341 1.429 . S
C5357 C5353 1.429 . S
C5357 C5358 1.523 . S
C5358 C5342 1.368 . S
C5358 C5354 1.368 . S
C5358 C5357 1.523 . S
H5359 C5334 0.950 . S
H5360 C5336 0.950 . S
H5361 C5337 0.949 . S
H5362 C5339 0.950 . S
H5363 C5341 0.950 . S
C5364 C5365 1.349 . S
C5364 C5366 1.327 . S
C5364 H5389 0.950 . S
C5365 C5364 1.349 . S
C5365 C5381 1.349 . S
C5366 C5364 1.327 . S
C5366 C5385 1.429 . S
C5366 H5390 0.950 . S
C5367 C5384 1.574 . S
C5367 C5386 1.368 . S
C5367 H5391 0.949 . S
H5368 C5372 0.949 . S
C5369 C5370 1.349 . S
C5369 C5371 1.327 . S
C5369 H5392 0.950 . S
C5370 C5369 1.349 . S
C5370 C5382 1.349 . S
C5371 C5369 1.327 . S
C5371 C5387 1.429 . S
C5371 H5393 0.950 . S
C5372 H5368 0.949 . S
C5372 C5380 1.574 . S
C5372 C5388 1.368 . S
H5373 C5381 0.950 . S
H5374 C5379 0.950 . S
H5375 C5380 0.949 . S
H5376 C5382 0.950 . S
H5377 C5383 0.950 . S
H5378 C5384 0.949 . S
C5379 H5374 0.950 . S
C5379 C5381 1.327 . S
C5379 C5385 1.429 . S
C5380 C5372 1.574 . S
C5380 H5375 0.949 . S
C5380 C5386 1.368 . S
C5381 C5365 1.349 . S
C5381 H5373 0.950 . S
C5381 C5379 1.327 . S
C5382 C5370 1.349 . S
C5382 H5376 0.950 . S
C5382 C5383 1.327 . S
C5383 H5377 0.950 . S
C5383 C5382 1.327 . S
C5383 C5387 1.429 . S
C5384 C5367 1.574 . S
C5384 H5378 0.949 . S
C5384 C5388 1.368 . S
C5385 C5366 1.429 . S
C5385 C5379 1.429 . S
C5385 C5386 1.523 . S
C5386 C5367 1.368 . S
C5386 C5380 1.368 . S
C5386 C5385 1.523 . S
C5387 C5371 1.429 . S
C5387 C5383 1.429 . S
C5387 C5388 1.523 . S
C5388 C5372 1.368 . S
C5388 C5384 1.368 . S
C5388 C5387 1.523 . S
H5389 C5364 0.950 . S
H5390 C5366 0.950 . S
H5391 C5367 0.949 . S
H5392 C5369 0.950 . S
H5393 C5371 0.950 . S
C5394 C5395 1.349 . S
C5394 C5396 1.327 . S
C5394 H5419 0.950 . S
C5395 C5394 1.349 . S
C5395 C5411 1.349 . S
C5396 C5394 1.327 . S
C5396 C5415 1.429 . S
C5396 H5420 0.950 . S
C5397 C5414 1.574 . S
C5397 C5416 1.368 . S
C5397 H5421 0.949 . S
H5398 C5402 0.949 . S
C5399 C5400 1.349 . S
C5399 C5401 1.327 . S
C5399 H5422 0.950 . S
C5400 C5399 1.349 . S
C5400 C5412 1.349 . S
C5401 C5399 1.327 . S
C5401 C5417 1.429 . S
C5401 H5423 0.950 . S
C5402 H5398 0.949 . S
C5402 C5410 1.574 . S
C5402 C5418 1.368 . S
H5403 C5411 0.950 . S
H5404 C5409 0.950 . S
H5405 C5410 0.949 . S
H5406 C5412 0.950 . S
H5407 C5413 0.950 . S
H5408 C5414 0.949 . S
C5409 H5404 0.950 . S
C5409 C5411 1.327 . S
C5409 C5415 1.429 . S
C5410 C5402 1.574 . S
C5410 H5405 0.949 . S
C5410 C5416 1.368 . S
C5411 C5395 1.349 . S
C5411 H5403 0.950 . S
C5411 C5409 1.327 . S
C5412 C5400 1.349 . S
C5412 H5406 0.950 . S
C5412 C5413 1.327 . S
C5413 H5407 0.950 . S
C5413 C5412 1.327 . S
C5413 C5417 1.429 . S
C5414 C5397 1.574 . S
C5414 H5408 0.949 . S
C5414 C5418 1.368 . S
C5415 C5396 1.429 . S
C5415 C5409 1.429 . S
C5415 C5416 1.523 . S
C5416 C5397 1.368 . S
C5416 C5410 1.368 . S
C5416 C5415 1.523 . S
C5417 C5401 1.429 . S
C5417 C5413 1.429 . S
C5417 C5418 1.523 . S
C5418 C5402 1.368 . S
C5418 C5414 1.368 . S
C5418 C5417 1.523 . S
H5419 C5394 0.950 . S
H5420 C5396 0.950 . S
H5421 C5397 0.949 . S
H5422 C5399 0.950 . S
H5423 C5401 0.950 . S
C5424 C5425 1.349 . S
C5424 C5426 1.327 . S
C5424 H5449 0.950 . S
C5425 C5424 1.349 . S
C5425 C5441 1.349 . S
C5426 C5424 1.327 . S
C5426 C5445 1.429 . S
C5426 H5450 0.950 . S
C5427 C5444 1.574 . S
C5427 C5446 1.368 . S
C5427 H5451 0.949 . S
H5428 C5432 0.949 . S
C5429 C5430 1.349 . S
C5429 C5431 1.327 . S
C5429 H5452 0.950 . S
C5430 C5429 1.349 . S
C5430 C5442 1.349 . S
C5431 C5429 1.327 . S
C5431 C5447 1.429 . S
C5431 H5453 0.950 . S
C5432 H5428 0.949 . S
C5432 C5440 1.574 . S
C5432 C5448 1.368 . S
H5433 C5441 0.950 . S
H5434 C5439 0.950 . S
H5435 C5440 0.949 . S
H5436 C5442 0.950 . S
H5437 C5443 0.950 . S
H5438 C5444 0.949 . S
C5439 H5434 0.950 . S
C5439 C5441 1.327 . S
C5439 C5445 1.429 . S
C5440 C5432 1.574 . S
C5440 H5435 0.949 . S
C5440 C5446 1.368 . S
C5441 C5425 1.349 . S
C5441 H5433 0.950 . S
C5441 C5439 1.327 . S
C5442 C5430 1.349 . S
C5442 H5436 0.950 . S
C5442 C5443 1.327 . S
C5443 H5437 0.950 . S
C5443 C5442 1.327 . S
C5443 C5447 1.429 . S
C5444 C5427 1.574 . S
C5444 H5438 0.949 . S
C5444 C5448 1.368 . S
C5445 C5426 1.429 . S
C5445 C5439 1.429 . S
C5445 C5446 1.523 . S
C5446 C5427 1.368 . S
C5446 C5440 1.368 . S
C5446 C5445 1.523 . S
C5447 C5431 1.429 . S
C5447 C5443 1.429 . S
C5447 C5448 1.523 . S
C5448 C5432 1.368 . S
C5448 C5444 1.368 . S
C5448 C5447 1.523 . S
H5449 C5424 0.950 . S
H5450 C5426 0.950 . S
H5451 C5427 0.949 . S
H5452 C5429 0.950 . S
H5453 C5431 0.950 . S
C5454 C5455 1.349 . S
C5454 C5456 1.327 . S
C5454 H5479 0.950 . S
C5455 C5454 1.349 . S
C5455 C5471 1.349 . S
C5456 C5454 1.327 . S
C5456 C5475 1.429 . S
C5456 H5480 0.950 . S
C5457 C5474 1.574 . S
C5457 C5476 1.368 . S
C5457 H5481 0.949 . S
H5458 C5462 0.949 . S
C5459 C5460 1.349 . S
C5459 C5461 1.327 . S
C5459 H5482 0.950 . S
C5460 C5459 1.349 . S
C5460 C5472 1.349 . S
C5461 C5459 1.327 . S
C5461 C5477 1.429 . S
C5461 H5483 0.950 . S
C5462 H5458 0.949 . S
C5462 C5470 1.574 . S
C5462 C5478 1.368 . S
H5463 C5471 0.950 . S
H5464 C5469 0.950 . S
H5465 C5470 0.949 . S
H5466 C5472 0.950 . S
H5467 C5473 0.950 . S
H5468 C5474 0.949 . S
C5469 H5464 0.950 . S
C5469 C5471 1.327 . S
C5469 C5475 1.429 . S
C5470 C5462 1.574 . S
C5470 H5465 0.949 . S
C5470 C5476 1.368 . S
C5471 C5455 1.349 . S
C5471 H5463 0.950 . S
C5471 C5469 1.327 . S
C5472 C5460 1.349 . S
C5472 H5466 0.950 . S
C5472 C5473 1.327 . S
C5473 H5467 0.950 . S
C5473 C5472 1.327 . S
C5473 C5477 1.429 . S
C5474 C5457 1.574 . S
C5474 H5468 0.949 . S
C5474 C5478 1.368 . S
C5475 C5456 1.429 . S
C5475 C5469 1.429 . S
C5475 C5476 1.523 . S
C5476 C5457 1.368 . S
C5476 C5470 1.368 . S
C5476 C5475 1.523 . S
C5477 C5461 1.429 . S
C5477 C5473 1.429 . S
C5477 C5478 1.523 . S
C5478 C5462 1.368 . S
C5478 C5474 1.368 . S
C5478 C5477 1.523 . S
H5479 C5454 0.950 . S
H5480 C5456 0.950 . S
H5481 C5457 0.949 . S
H5482 C5459 0.950 . S
H5483 C5461 0.950 . S
C5484 C5485 1.349 . S
C5484 C5486 1.327 . S
C5484 H5509 0.950 . S
C5485 C5484 1.349 . S
C5485 C5501 1.349 . S
C5486 C5484 1.327 . S
C5486 C5505 1.429 . S
C5486 H5510 0.950 . S
C5487 C5504 1.574 . S
C5487 C5506 1.368 . S
C5487 H5511 0.949 . S
H5488 C5492 0.949 . S
C5489 C5490 1.349 . S
C5489 C5491 1.327 . S
C5489 H5512 0.950 . S
C5490 C5489 1.349 . S
C5490 C5502 1.349 . S
C5491 C5489 1.327 . S
C5491 C5507 1.429 . S
C5491 H5513 0.950 . S
C5492 H5488 0.949 . S
C5492 C5500 1.574 . S
C5492 C5508 1.368 . S
H5493 C5501 0.950 . S
H5494 C5499 0.950 . S
H5495 C5500 0.949 . S
H5496 C5502 0.950 . S
H5497 C5503 0.950 . S
H5498 C5504 0.949 . S
C5499 H5494 0.950 . S
C5499 C5501 1.327 . S
C5499 C5505 1.429 . S
C5500 C5492 1.574 . S
C5500 H5495 0.949 . S
C5500 C5506 1.368 . S
C5501 C5485 1.349 . S
C5501 H5493 0.950 . S
C5501 C5499 1.327 . S
C5502 C5490 1.349 . S
C5502 H5496 0.950 . S
C5502 C5503 1.327 . S
C5503 H5497 0.950 . S
C5503 C5502 1.327 . S
C5503 C5507 1.429 . S
C5504 C5487 1.574 . S
C5504 H5498 0.949 . S
C5504 C5508 1.368 . S
C5505 C5486 1.429 . S
C5505 C5499 1.429 . S
C5505 C5506 1.523 . S
C5506 C5487 1.368 . S
C5506 C5500 1.368 . S
C5506 C5505 1.523 . S
C5507 C5491 1.429 . S
C5507 C5503 1.429 . S
C5507 C5508 1.523 . S
C5508 C5492 1.368 . S
C5508 C5504 1.368 . S
C5508 C5507 1.523 . S
H5509 C5484 0.950 . S
H5510 C5486 0.950 . S
H5511 C5487 0.949 . S
H5512 C5489 0.950 . S
H5513 C5491 0.950 . S
C5514 C5515 1.349 . S
C5514 C5516 1.327 . S
C5514 H5539 0.950 . S
C5515 C5514 1.349 . S
C5515 C5531 1.349 . S
C5516 C5514 1.327 . S
C5516 C5535 1.429 . S
C5516 H5540 0.950 . S
C5517 C5534 1.574 . S
C5517 C5536 1.368 . S
C5517 H5541 0.949 . S
H5518 C5522 0.949 . S
C5519 C5520 1.349 . S
C5519 C5521 1.327 . S
C5519 H5542 0.950 . S
C5520 C5519 1.349 . S
C5520 C5532 1.349 . S
C5521 C5519 1.327 . S
C5521 C5537 1.429 . S
C5521 H5543 0.950 . S
C5522 H5518 0.949 . S
C5522 C5530 1.574 . S
C5522 C5538 1.368 . S
H5523 C5531 0.950 . S
H5524 C5529 0.950 . S
H5525 C5530 0.949 . S
H5526 C5532 0.950 . S
H5527 C5533 0.950 . S
H5528 C5534 0.949 . S
C5529 H5524 0.950 . S
C5529 C5531 1.327 . S
C5529 C5535 1.429 . S
C5530 C5522 1.574 . S
C5530 H5525 0.949 . S
C5530 C5536 1.368 . S
C5531 C5515 1.349 . S
C5531 H5523 0.950 . S
C5531 C5529 1.327 . S
C5532 C5520 1.349 . S
C5532 H5526 0.950 . S
C5532 C5533 1.327 . S
C5533 H5527 0.950 . S
C5533 C5532 1.327 . S
C5533 C5537 1.429 . S
C5534 C5517 1.574 . S
C5534 H5528 0.949 . S
C5534 C5538 1.368 . S
C5535 C5516 1.429 . S
C5535 C5529 1.429 . S
C5535 C5536 1.523 . S
C5536 C5517 1.368 . S
C5536 C5530 1.368 . S
C5536 C5535 1.523 . S
C5537 C5521 1.429 . S
C5537 C5533 1.429 . S
C5537 C5538 1.523 . S
C5538 C5522 1.368 . S
C5538 C5534 1.368 . S
C5538 C5537 1.523 . S
H5539 C5514 0.950 . S
H5540 C5516 0.950 . S
H5541 C5517 0.949 . S
H5542 C5519 0.950 . S
H5543 C5521 0.950 . S
C5544 C5545 1.349 . S
C5544 C5546 1.327 . S
C5544 H5569 0.950 . S
C5545 C5544 1.349 . S
C5545 C5561 1.349 . S
C5546 C5544 1.327 . S
C5546 C5565 1.429 . S
C5546 H5570 0.950 . S
C5547 C5564 1.574 . S
C5547 C5566 1.368 . S
C5547 H5571 0.949 . S
H5548 C5552 0.949 . S
C5549 C5550 1.349 . S
C5549 C5551 1.327 . S
C5549 H5572 0.950 . S
C5550 C5549 1.349 . S
C5550 C5562 1.349 . S
C5551 C5549 1.327 . S
C5551 C5567 1.429 . S
C5551 H5573 0.950 . S
C5552 H5548 0.949 . S
C5552 C5560 1.574 . S
C5552 C5568 1.368 . S
H5553 C5561 0.950 . S
H5554 C5559 0.950 . S
H5555 C5560 0.949 . S
H5556 C5562 0.950 . S
H5557 C5563 0.950 . S
H5558 C5564 0.949 . S
C5559 H5554 0.950 . S
C5559 C5561 1.327 . S
C5559 C5565 1.429 . S
C5560 C5552 1.574 . S
C5560 H5555 0.949 . S
C5560 C5566 1.368 . S
C5561 C5545 1.349 . S
C5561 H5553 0.950 . S
C5561 C5559 1.327 . S
C5562 C5550 1.349 . S
C5562 H5556 0.950 . S
C5562 C5563 1.327 . S
C5563 H5557 0.950 . S
C5563 C5562 1.327 . S
C5563 C5567 1.429 . S
C5564 C5547 1.574 . S
C5564 H5558 0.949 . S
C5564 C5568 1.368 . S
C5565 C5546 1.429 . S
C5565 C5559 1.429 . S
C5565 C5566 1.523 . S
C5566 C5547 1.368 . S
C5566 C5560 1.368 . S
C5566 C5565 1.523 . S
C5567 C5551 1.429 . S
C5567 C5563 1.429 . S
C5567 C5568 1.523 . S
C5568 C5552 1.368 . S
C5568 C5564 1.368 . S
C5568 C5567 1.523 . S
H5569 C5544 0.950 . S
H5570 C5546 0.950 . S
H5571 C5547 0.949 . S
H5572 C5549 0.950 . S
H5573 C5551 0.950 . S
C5574 C5575 1.349 . S
C5574 C5576 1.327 . S
C5574 H5599 0.950 . S
C5575 C5574 1.349 . S
C5575 C5591 1.349 . S
C5576 C5574 1.327 . S
C5576 C5595 1.429 . S
C5576 H5600 0.950 . S
C5577 C5594 1.574 . S
C5577 C5596 1.368 . S
C5577 H5601 0.949 . S
H5578 C5582 0.949 . S
C5579 C5580 1.349 . S
C5579 C5581 1.327 . S
C5579 H5602 0.950 . S
C5580 C5579 1.349 . S
C5580 C5592 1.349 . S
C5581 C5579 1.327 . S
C5581 C5597 1.429 . S
C5581 H5603 0.950 . S
C5582 H5578 0.949 . S
C5582 C5590 1.574 . S
C5582 C5598 1.368 . S
H5583 C5591 0.950 . S
H5584 C5589 0.950 . S
H5585 C5590 0.949 . S
H5586 C5592 0.950 . S
H5587 C5593 0.950 . S
H5588 C5594 0.949 . S
C5589 H5584 0.950 . S
C5589 C5591 1.327 . S
C5589 C5595 1.429 . S
C5590 C5582 1.574 . S
C5590 H5585 0.949 . S
C5590 C5596 1.368 . S
C5591 C5575 1.349 . S
C5591 H5583 0.950 . S
C5591 C5589 1.327 . S
C5592 C5580 1.349 . S
C5592 H5586 0.950 . S
C5592 C5593 1.327 . S
C5593 H5587 0.950 . S
C5593 C5592 1.327 . S
C5593 C5597 1.429 . S
C5594 C5577 1.574 . S
C5594 H5588 0.949 . S
C5594 C5598 1.368 . S
C5595 C5576 1.429 . S
C5595 C5589 1.429 . S
C5595 C5596 1.523 . S
C5596 C5577 1.368 . S
C5596 C5590 1.368 . S
C5596 C5595 1.523 . S
C5597 C5581 1.429 . S
C5597 C5593 1.429 . S
C5597 C5598 1.523 . S
C5598 C5582 1.368 . S
C5598 C5594 1.368 . S
C5598 C5597 1.523 . S
H5599 C5574 0.950 . S
H5600 C5576 0.950 . S
H5601 C5577 0.949 . S
H5602 C5579 0.950 . S
H5603 C5581 0.950 . S
C5604 C5605 1.349 . S
C5604 C5606 1.327 . S
C5604 H5629 0.950 . S
C5605 C5604 1.349 . S
C5605 C5621 1.349 . S
C5606 C5604 1.327 . S
C5606 C5625 1.429 . S
C5606 H5630 0.950 . S
C5607 C5624 1.574 . S
C5607 C5626 1.368 . S
C5607 H5631 0.949 . S
H5608 C5612 0.949 . S
C5609 C5610 1.349 . S
C5609 C5611 1.327 . S
C5609 H5632 0.950 . S
C5610 C5609 1.349 . S
C5610 C5622 1.349 . S
C5611 C5609 1.327 . S
C5611 C5627 1.429 . S
C5611 H5633 0.950 . S
C5612 H5608 0.949 . S
C5612 C5620 1.574 . S
C5612 C5628 1.368 . S
H5613 C5621 0.950 . S
H5614 C5619 0.950 . S
H5615 C5620 0.949 . S
H5616 C5622 0.950 . S
H5617 C5623 0.950 . S
H5618 C5624 0.949 . S
C5619 H5614 0.950 . S
C5619 C5621 1.327 . S
C5619 C5625 1.429 . S
C5620 C5612 1.574 . S
C5620 H5615 0.949 . S
C5620 C5626 1.368 . S
C5621 C5605 1.349 . S
C5621 H5613 0.950 . S
C5621 C5619 1.327 . S
C5622 C5610 1.349 . S
C5622 H5616 0.950 . S
C5622 C5623 1.327 . S
C5623 H5617 0.950 . S
C5623 C5622 1.327 . S
C5623 C5627 1.429 . S
C5624 C5607 1.574 . S
C5624 H5618 0.949 . S
C5624 C5628 1.368 . S
C5625 C5606 1.429 . S
C5625 C5619 1.429 . S
C5625 C5626 1.523 . S
C5626 C5607 1.368 . S
C5626 C5620 1.368 . S
C5626 C5625 1.523 . S
C5627 C5611 1.429 . S
C5627 C5623 1.429 . S
C5627 C5628 1.523 . S
C5628 C5612 1.368 . S
C5628 C5624 1.368 . S
C5628 C5627 1.523 . S
H5629 C5604 0.950 . S
H5630 C5606 0.950 . S
H5631 C5607 0.949 . S
H5632 C5609 0.950 . S
H5633 C5611 0.950 . S
C5634 C5635 1.349 . S
C5634 C5636 1.327 . S
C5634 H5659 0.950 . S
C5635 C5634 1.349 . S
C5635 C5651 1.349 . S
C5636 C5634 1.327 . S
C5636 C5655 1.429 . S
C5636 H5660 0.950 . S
C5637 C5654 1.574 . S
C5637 C5656 1.368 . S
C5637 H5661 0.949 . S
H5638 C5642 0.949 . S
C5639 C5640 1.349 . S
C5639 C5641 1.327 . S
C5639 H5662 0.950 . S
C5640 C5639 1.349 . S
C5640 C5652 1.349 . S
C5641 C5639 1.327 . S
C5641 C5657 1.429 . S
C5641 H5663 0.950 . S
C5642 H5638 0.949 . S
C5642 C5650 1.574 . S
C5642 C5658 1.368 . S
H5643 C5651 0.950 . S
H5644 C5649 0.950 . S
H5645 C5650 0.949 . S
H5646 C5652 0.950 . S
H5647 C5653 0.950 . S
H5648 C5654 0.949 . S
C5649 H5644 0.950 . S
C5649 C5651 1.327 . S
C5649 C5655 1.429 . S
C5650 C5642 1.574 . S
C5650 H5645 0.949 . S
C5650 C5656 1.368 . S
C5651 C5635 1.349 . S
C5651 H5643 0.950 . S
C5651 C5649 1.327 . S
C5652 C5640 1.349 . S
C5652 H5646 0.950 . S
C5652 C5653 1.327 . S
C5653 H5647 0.950 . S
C5653 C5652 1.327 . S
C5653 C5657 1.429 . S
C5654 C5637 1.574 . S
C5654 H5648 0.949 . S
C5654 C5658 1.368 . S
C5655 C5636 1.429 . S
C5655 C5649 1.429 . S
C5655 C5656 1.523 . S
C5656 C5637 1.368 . S
C5656 C5650 1.368 . S
C5656 C5655 1.523 . S
C5657 C5641 1.429 . S
C5657 C5653 1.429 . S
C5657 C5658 1.523 . S
C5658 C5642 1.368 . S
C5658 C5654 1.368 . S
C5658 C5657 1.523 . S
H5659 C5634 0.950 . S
H5660 C5636 0.950 . S
H5661 C5637 0.949 . S
H5662 C5639 0.950 . S
H5663 C5641 0.950 . S
C5664 C5665 1.349 . S
C5664 C5666 1.327 . S
C5664 H5689 0.950 . S
C5665 C5664 1.349 . S
C5665 C5681 1.349 . S
C5666 C5664 1.327 . S
C5666 C5685 1.429 . S
C5666 H5690 0.950 . S
C5667 C5684 1.574 . S
C5667 C5686 1.368 . S
C5667 H5691 0.949 . S
H5668 C5672 0.949 . S
C5669 C5670 1.349 . S
C5669 C5671 1.327 . S
C5669 H5692 0.950 . S
C5670 C5669 1.349 . S
C5670 C5682 1.349 . S
C5671 C5669 1.327 . S
C5671 C5687 1.429 . S
C5671 H5693 0.950 . S
C5672 H5668 0.949 . S
C5672 C5680 1.574 . S
C5672 C5688 1.368 . S
H5673 C5681 0.950 . S
H5674 C5679 0.950 . S
H5675 C5680 0.949 . S
H5676 C5682 0.950 . S
H5677 C5683 0.950 . S
H5678 C5684 0.949 . S
C5679 H5674 0.950 . S
C5679 C5681 1.327 . S
C5679 C5685 1.429 . S
C5680 C5672 1.574 . S
C5680 H5675 0.949 . S
C5680 C5686 1.368 . S
C5681 C5665 1.349 . S
C5681 H5673 0.950 . S
C5681 C5679 1.327 . S
C5682 C5670 1.349 . S
C5682 H5676 0.950 . S
C5682 C5683 1.327 . S
C5683 H5677 0.950 . S
C5683 C5682 1.327 . S
C5683 C5687 1.429 . S
C5684 C5667 1.574 . S
C5684 H5678 0.949 . S
C5684 C5688 1.368 . S
C5685 C5666 1.429 . S
C5685 C5679 1.429 . S
C5685 C5686 1.523 . S
C5686 C5667 1.368 . S
C5686 C5680 1.368 . S
C5686 C5685 1.523 . S
C5687 C5671 1.429 . S
C5687 C5683 1.429 . S
C5687 C5688 1.523 . S
C5688 C5672 1.368 . S
C5688 C5684 1.368 . S
C5688 C5687 1.523 . S
H5689 C5664 0.950 . S
H5690 C5666 0.950 . S
H5691 C5667 0.949 . S
H5692 C5669 0.950 . S
H5693 C5671 0.950 . S
C5694 C5695 1.349 . S
C5694 C5696 1.327 . S
C5694 H5719 0.950 . S
C5695 C5694 1.349 . S
C5695 C5711 1.349 . S
C5696 C5694 1.327 . S
C5696 C5715 1.429 . S
C5696 H5720 0.950 . S
C5697 C5714 1.574 . S
C5697 C5716 1.368 . S
C5697 H5721 0.949 . S
H5698 C5702 0.949 . S
C5699 C5700 1.349 . S
C5699 C5701 1.327 . S
C5699 H5722 0.950 . S
C5700 C5699 1.349 . S
C5700 C5712 1.349 . S
C5701 C5699 1.327 . S
C5701 C5717 1.429 . S
C5701 H5723 0.950 . S
C5702 H5698 0.949 . S
C5702 C5710 1.574 . S
C5702 C5718 1.368 . S
H5703 C5711 0.950 . S
H5704 C5709 0.950 . S
H5705 C5710 0.949 . S
H5706 C5712 0.950 . S
H5707 C5713 0.950 . S
H5708 C5714 0.949 . S
C5709 H5704 0.950 . S
C5709 C5711 1.327 . S
C5709 C5715 1.429 . S
C5710 C5702 1.574 . S
C5710 H5705 0.949 . S
C5710 C5716 1.368 . S
C5711 C5695 1.349 . S
C5711 H5703 0.950 . S
C5711 C5709 1.327 . S
C5712 C5700 1.349 . S
C5712 H5706 0.950 . S
C5712 C5713 1.327 . S
C5713 H5707 0.950 . S
C5713 C5712 1.327 . S
C5713 C5717 1.429 . S
C5714 C5697 1.574 . S
C5714 H5708 0.949 . S
C5714 C5718 1.368 . S
C5715 C5696 1.429 . S
C5715 C5709 1.429 . S
C5715 C5716 1.523 . S
C5716 C5697 1.368 . S
C5716 C5710 1.368 . S
C5716 C5715 1.523 . S
C5717 C5701 1.429 . S
C5717 C5713 1.429 . S
C5717 C5718 1.523 . S
C5718 C5702 1.368 . S
C5718 C5714 1.368 . S
C5718 C5717 1.523 . S
H5719 C5694 0.950 . S
H5720 C5696 0.950 . S
H5721 C5697 0.949 . S
H5722 C5699 0.950 . S
H5723 C5701 0.950 . S
C5724 C5725 1.349 . S
C5724 C5726 1.327 . S
C5724 H5749 0.950 . S
C5725 C5724 1.349 . S
C5725 C5741 1.349 . S
C5726 C5724 1.327 . S
C5726 C5745 1.429 . S
C5726 H5750 0.950 . S
C5727 C5744 1.574 . S
C5727 C5746 1.368 . S
C5727 H5751 0.949 . S
H5728 C5732 0.949 . S
C5729 C5730 1.349 . S
C5729 C5731 1.327 . S
C5729 H5752 0.950 . S
C5730 C5729 1.349 . S
C5730 C5742 1.349 . S
C5731 C5729 1.327 . S
C5731 C5747 1.429 . S
C5731 H5753 0.950 . S
C5732 H5728 0.949 . S
C5732 C5740 1.574 . S
C5732 C5748 1.368 . S
H5733 C5741 0.950 . S
H5734 C5739 0.950 . S
H5735 C5740 0.949 . S
H5736 C5742 0.950 . S
H5737 C5743 0.950 . S
H5738 C5744 0.949 . S
C5739 H5734 0.950 . S
C5739 C5741 1.327 . S
C5739 C5745 1.429 . S
C5740 C5732 1.574 . S
C5740 H5735 0.949 . S
C5740 C5746 1.368 . S
C5741 C5725 1.349 . S
C5741 H5733 0.950 . S
C5741 C5739 1.327 . S
C5742 C5730 1.349 . S
C5742 H5736 0.950 . S
C5742 C5743 1.327 . S
C5743 H5737 0.950 . S
C5743 C5742 1.327 . S
C5743 C5747 1.429 . S
C5744 C5727 1.574 . S
C5744 H5738 0.949 . S
C5744 C5748 1.368 . S
C5745 C5726 1.429 . S
C5745 C5739 1.429 . S
C5745 C5746 1.523 . S
C5746 C5727 1.368 . S
C5746 C5740 1.368 . S
C5746 C5745 1.523 . S
C5747 C5731 1.429 . S
C5747 C5743 1.429 . S
C5747 C5748 1.523 . S
C5748 C5732 1.368 . S
C5748 C5744 1.368 . S
C5748 C5747 1.523 . S
H5749 C5724 0.950 . S
H5750 C5726 0.950 . S
H5751 C5727 0.949 . S
H5752 C5729 0.950 . S
H5753 C5731 0.950 . S
C5754 C5755 1.349 . S
C5754 C5756 1.327 . S
C5754 H5779 0.950 . S
C5755 C5754 1.349 . S
C5755 C5771 1.349 . S
C5756 C5754 1.327 . S
C5756 C5775 1.429 . S
C5756 H5780 0.950 . S
C5757 C5774 1.574 . S
C5757 C5776 1.368 . S
C5757 H5781 0.949 . S
H5758 C5762 0.949 . S
C5759 C5760 1.349 . S
C5759 C5761 1.327 . S
C5759 H5782 0.950 . S
C5760 C5759 1.349 . S
C5760 C5772 1.349 . S
C5761 C5759 1.327 . S
C5761 C5777 1.429 . S
C5761 H5783 0.950 . S
C5762 H5758 0.949 . S
C5762 C5770 1.574 . S
C5762 C5778 1.368 . S
H5763 C5771 0.950 . S
H5764 C5769 0.950 . S
H5765 C5770 0.949 . S
H5766 C5772 0.950 . S
H5767 C5773 0.950 . S
H5768 C5774 0.949 . S
C5769 H5764 0.950 . S
C5769 C5771 1.327 . S
C5769 C5775 1.429 . S
C5770 C5762 1.574 . S
C5770 H5765 0.949 . S
C5770 C5776 1.368 . S
C5771 C5755 1.349 . S
C5771 H5763 0.950 . S
C5771 C5769 1.327 . S
C5772 C5760 1.349 . S
C5772 H5766 0.950 . S
C5772 C5773 1.327 . S
C5773 H5767 0.950 . S
C5773 C5772 1.327 . S
C5773 C5777 1.429 . S
C5774 C5757 1.574 . S
C5774 H5768 0.949 . S
C5774 C5778 1.368 . S
C5775 C5756 1.429 . S
C5775 C5769 1.429 . S
C5775 C5776 1.523 . S
C5776 C5757 1.368 . S
C5776 C5770 1.368 . S
C5776 C5775 1.523 . S
C5777 C5761 1.429 . S
C5777 C5773 1.429 . S
C5777 C5778 1.523 . S
C5778 C5762 1.368 . S
C5778 C5774 1.368 . S
C5778 C5777 1.523 . S
H5779 C5754 0.950 . S
H5780 C5756 0.950 . S
H5781 C5757 0.949 . S
H5782 C5759 0.950 . S
H5783 C5761 0.950 . S
C5784 C5785 1.349 . S
C5784 C5786 1.327 . S
C5784 H5809 0.950 . S
C5785 C5784 1.349 . S
C5785 C5801 1.349 . S
C5786 C5784 1.327 . S
C5786 C5805 1.429 . S
C5786 H5810 0.950 . S
C5787 C5804 1.574 . S
C5787 C5806 1.368 . S
C5787 H5811 0.949 . S
H5788 C5792 0.949 . S
C5789 C5790 1.349 . S
C5789 C5791 1.327 . S
C5789 H5812 0.950 . S
C5790 C5789 1.349 . S
C5790 C5802 1.349 . S
C5791 C5789 1.327 . S
C5791 C5807 1.429 . S
C5791 H5813 0.950 . S
C5792 H5788 0.949 . S
C5792 C5800 1.574 . S
C5792 C5808 1.368 . S
H5793 C5801 0.950 . S
H5794 C5799 0.950 . S
H5795 C5800 0.949 . S
H5796 C5802 0.950 . S
H5797 C5803 0.950 . S
H5798 C5804 0.949 . S
C5799 H5794 0.950 . S
C5799 C5801 1.327 . S
C5799 C5805 1.429 . S
C5800 C5792 1.574 . S
C5800 H5795 0.949 . S
C5800 C5806 1.368 . S
C5801 C5785 1.349 . S
C5801 H5793 0.950 . S
C5801 C5799 1.327 . S
C5802 C5790 1.349 . S
C5802 H5796 0.950 . S
C5802 C5803 1.327 . S
C5803 H5797 0.950 . S
C5803 C5802 1.327 . S
C5803 C5807 1.429 . S
C5804 C5787 1.574 . S
C5804 H5798 0.949 . S
C5804 C5808 1.368 . S
C5805 C5786 1.429 . S
C5805 C5799 1.429 . S
C5805 C5806 1.523 . S
C5806 C5787 1.368 . S
C5806 C5800 1.368 . S
C5806 C5805 1.523 . S
C5807 C5791 1.429 . S
C5807 C5803 1.429 . S
C5807 C5808 1.523 . S
C5808 C5792 1.368 . S
C5808 C5804 1.368 . S
C5808 C5807 1.523 . S
H5809 C5784 0.950 . S
H5810 C5786 0.950 . S
H5811 C5787 0.949 . S
H5812 C5789 0.950 . S
H5813 C5791 0.950 . S
C5814 C5815 1.349 . S
C5814 C5816 1.327 . S
C5814 H5839 0.950 . S
C5815 C5814 1.349 . S
C5815 C5831 1.349 . S
C5816 C5814 1.327 . S
C5816 C5835 1.429 . S
C5816 H5840 0.950 . S
C5817 C5834 1.574 . S
C5817 C5836 1.368 . S
C5817 H5841 0.949 . S
H5818 C5822 0.949 . S
C5819 C5820 1.349 . S
C5819 C5821 1.327 . S
C5819 H5842 0.950 . S
C5820 C5819 1.349 . S
C5820 C5832 1.349 . S
C5821 C5819 1.327 . S
C5821 C5837 1.429 . S
C5821 H5843 0.950 . S
C5822 H5818 0.949 . S
C5822 C5830 1.574 . S
C5822 C5838 1.368 . S
H5823 C5831 0.950 . S
H5824 C5829 0.950 . S
H5825 C5830 0.949 . S
H5826 C5832 0.950 . S
H5827 C5833 0.950 . S
H5828 C5834 0.949 . S
C5829 H5824 0.950 . S
C5829 C5831 1.327 . S
C5829 C5835 1.429 . S
C5830 C5822 1.574 . S
C5830 H5825 0.949 . S
C5830 C5836 1.368 . S
C5831 C5815 1.349 . S
C5831 H5823 0.950 . S
C5831 C5829 1.327 . S
C5832 C5820 1.349 . S
C5832 H5826 0.950 . S
C5832 C5833 1.327 . S
C5833 H5827 0.950 . S
C5833 C5832 1.327 . S
C5833 C5837 1.429 . S
C5834 C5817 1.574 . S
C5834 H5828 0.949 . S
C5834 C5838 1.368 . S
C5835 C5816 1.429 . S
C5835 C5829 1.429 . S
C5835 C5836 1.523 . S
C5836 C5817 1.368 . S
C5836 C5830 1.368 . S
C5836 C5835 1.523 . S
C5837 C5821 1.429 . S
C5837 C5833 1.429 . S
C5837 C5838 1.523 . S
C5838 C5822 1.368 . S
C5838 C5834 1.368 . S
C5838 C5837 1.523 . S
H5839 C5814 0.950 . S
H5840 C5816 0.950 . S
H5841 C5817 0.949 . S
H5842 C5819 0.950 . S
H5843 C5821 0.950 . S
C5844 C5845 1.349 . S
C5844 C5846 1.327 . S
C5844 H5869 0.950 . S
C5845 C5844 1.349 . S
C5845 C5861 1.349 . S
C5846 C5844 1.327 . S
C5846 C5865 1.429 . S
C5846 H5870 0.950 . S
C5847 C5864 1.574 . S
C5847 C5866 1.368 . S
C5847 H5871 0.949 . S
H5848 C5852 0.949 . S
C5849 C5850 1.349 . S
C5849 C5851 1.327 . S
C5849 H5872 0.950 . S
C5850 C5849 1.349 . S
C5850 C5862 1.349 . S
C5851 C5849 1.327 . S
C5851 C5867 1.429 . S
C5851 H5873 0.950 . S
C5852 H5848 0.949 . S
C5852 C5860 1.574 . S
C5852 C5868 1.368 . S
H5853 C5861 0.950 . S
H5854 C5859 0.950 . S
H5855 C5860 0.949 . S
H5856 C5862 0.950 . S
H5857 C5863 0.950 . S
H5858 C5864 0.949 . S
C5859 H5854 0.950 . S
C5859 C5861 1.327 . S
C5859 C5865 1.429 . S
C5860 C5852 1.574 . S
C5860 H5855 0.949 . S
C5860 C5866 1.368 . S
C5861 C5845 1.349 . S
C5861 H5853 0.950 . S
C5861 C5859 1.327 . S
C5862 C5850 1.349 . S
C5862 H5856 0.950 . S
C5862 C5863 1.327 . S
C5863 H5857 0.950 . S
C5863 C5862 1.327 . S
C5863 C5867 1.429 . S
C5864 C5847 1.574 . S
C5864 H5858 0.949 . S
C5864 C5868 1.368 . S
C5865 C5846 1.429 . S
C5865 C5859 1.429 . S
C5865 C5866 1.523 . S
C5866 C5847 1.368 . S
C5866 C5860 1.368 . S
C5866 C5865 1.523 . S
C5867 C5851 1.429 . S
C5867 C5863 1.429 . S
C5867 C5868 1.523 . S
C5868 C5852 1.368 . S
C5868 C5864 1.368 . S
C5868 C5867 1.523 . S
H5869 C5844 0.950 . S
H5870 C5846 0.950 . S
H5871 C5847 0.949 . S
H5872 C5849 0.950 . S
H5873 C5851 0.950 . S
C5874 C5875 1.349 . S
C5874 C5876 1.327 . S
C5874 H5899 0.950 . S
C5875 C5874 1.349 . S
C5875 C5891 1.349 . S
C5876 C5874 1.327 . S
C5876 C5895 1.429 . S
C5876 H5900 0.950 . S
C5877 C5894 1.574 . S
C5877 C5896 1.368 . S
C5877 H5901 0.949 . S
H5878 C5882 0.949 . S
C5879 C5880 1.349 . S
C5879 C5881 1.327 . S
C5879 H5902 0.950 . S
C5880 C5879 1.349 . S
C5880 C5892 1.349 . S
C5881 C5879 1.327 . S
C5881 C5897 1.429 . S
C5881 H5903 0.950 . S
C5882 H5878 0.949 . S
C5882 C5890 1.574 . S
C5882 C5898 1.368 . S
H5883 C5891 0.950 . S
H5884 C5889 0.950 . S
H5885 C5890 0.949 . S
H5886 C5892 0.950 . S
H5887 C5893 0.950 . S
H5888 C5894 0.949 . S
C5889 H5884 0.950 . S
C5889 C5891 1.327 . S
C5889 C5895 1.429 . S
C5890 C5882 1.574 . S
C5890 H5885 0.949 . S
C5890 C5896 1.368 . S
C5891 C5875 1.349 . S
C5891 H5883 0.950 . S
C5891 C5889 1.327 . S
C5892 C5880 1.349 . S
C5892 H5886 0.950 . S
C5892 C5893 1.327 . S
C5893 H5887 0.950 . S
C5893 C5892 1.327 . S
C5893 C5897 1.429 . S
C5894 C5877 1.574 . S
C5894 H5888 0.949 . S
C5894 C5898 1.368 . S
C5895 C5876 1.429 . S
C5895 C5889 1.429 . S
C5895 C5896 1.523 . S
C5896 C5877 1.368 . S
C5896 C5890 1.368 . S
C5896 C5895 1.523 . S
C5897 C5881 1.429 . S
C5897 C5893 1.429 . S
C5897 C5898 1.523 . S
C5898 C5882 1.368 . S
C5898 C5894 1.368 . S
C5898 C5897 1.523 . S
H5899 C5874 0.950 . S
H5900 C5876 0.950 . S
H5901 C5877 0.949 . S
H5902 C5879 0.950 . S
H5903 C5881 0.950 . S
C5904 C5905 1.349 . S
C5904 C5906 1.327 . S
C5904 H5929 0.950 . S
C5905 C5904 1.349 . S
C5905 C5921 1.349 . S
C5906 C5904 1.327 . S
C5906 C5925 1.429 . S
C5906 H5930 0.950 . S
C5907 C5924 1.574 . S
C5907 C5926 1.368 . S
C5907 H5931 0.949 . S
H5908 C5912 0.949 . S
C5909 C5910 1.349 . S
C5909 C5911 1.327 . S
C5909 H5932 0.950 . S
C5910 C5909 1.349 . S
C5910 C5922 1.349 . S
C5911 C5909 1.327 . S
C5911 C5927 1.429 . S
C5911 H5933 0.950 . S
C5912 H5908 0.949 . S
C5912 C5920 1.574 . S
C5912 C5928 1.368 . S
H5913 C5921 0.950 . S
H5914 C5919 0.950 . S
H5915 C5920 0.949 . S
H5916 C5922 0.950 . S
H5917 C5923 0.950 . S
H5918 C5924 0.949 . S
C5919 H5914 0.950 . S
C5919 C5921 1.327 . S
C5919 C5925 1.429 . S
C5920 C5912 1.574 . S
C5920 H5915 0.949 . S
C5920 C5926 1.368 . S
C5921 C5905 1.349 . S
C5921 H5913 0.950 . S
C5921 C5919 1.327 . S
C5922 C5910 1.349 . S
C5922 H5916 0.950 . S
C5922 C5923 1.327 . S
C5923 H5917 0.950 . S
C5923 C5922 1.327 . S
C5923 C5927 1.429 . S
C5924 C5907 1.574 . S
C5924 H5918 0.949 . S
C5924 C5928 1.368 . S
C5925 C5906 1.429 . S
C5925 C5919 1.429 . S
C5925 C5926 1.523 . S
C5926 C5907 1.368 . S
C5926 C5920 1.368 . S
C5926 C5925 1.523 . S
C5927 C5911 1.429 . S
C5927 C5923 1.429 . S
C5927 C5928 1.523 . S
C5928 C5912 1.368 . S
C5928 C5924 1.368 . S
C5928 C5927 1.523 . S
H5929 C5904 0.950 . S
H5930 C5906 0.950 . S
H5931 C5907 0.949 . S
H5932 C5909 0.950 . S
H5933 C5911 0.950 . S
C5934 C5935 1.349 . S
C5934 C5936 1.327 . S
C5934 H5959 0.950 . S
C5935 C5934 1.349 . S
C5935 C5951 1.349 . S
C5936 C5934 1.327 . S
C5936 C5955 1.429 . S
C5936 H5960 0.950 . S
C5937 C5954 1.574 . S
C5937 C5956 1.368 . S
C5937 H5961 0.949 . S
H5938 C5942 0.949 . S
C5939 C5940 1.349 . S
C5939 C5941 1.327 . S
C5939 H5962 0.950 . S
C5940 C5939 1.349 . S
C5940 C5952 1.349 . S
C5941 C5939 1.327 . S
C5941 C5957 1.429 . S
C5941 H5963 0.950 . S
C5942 H5938 0.949 . S
C5942 C5950 1.574 . S
C5942 C5958 1.368 . S
H5943 C5951 0.950 . S
H5944 C5949 0.950 . S
H5945 C5950 0.949 . S
H5946 C5952 0.950 . S
H5947 C5953 0.950 . S
H5948 C5954 0.949 . S
C5949 H5944 0.950 . S
C5949 C5951 1.327 . S
C5949 C5955 1.429 . S
C5950 C5942 1.574 . S
C5950 H5945 0.949 . S
C5950 C5956 1.368 . S
C5951 C5935 1.349 . S
C5951 H5943 0.950 . S
C5951 C5949 1.327 . S
C5952 C5940 1.349 . S
C5952 H5946 0.950 . S
C5952 C5953 1.327 . S
C5953 H5947 0.950 . S
C5953 C5952 1.327 . S
C5953 C5957 1.429 . S
C5954 C5937 1.574 . S
C5954 H5948 0.949 . S
C5954 C5958 1.368 . S
C5955 C5936 1.429 . S
C5955 C5949 1.429 . S
C5955 C5956 1.523 . S
C5956 C5937 1.368 . S
C5956 C5950 1.368 . S
C5956 C5955 1.523 . S
C5957 C5941 1.429 . S
C5957 C5953 1.429 . S
C5957 C5958 1.523 . S
C5958 C5942 1.368 . S
C5958 C5954 1.368 . S
C5958 C5957 1.523 . S
H5959 C5934 0.950 . S
H5960 C5936 0.950 . S
H5961 C5937 0.949 . S
H5962 C5939 0.950 . S
H5963 C5941 0.950 . S
C5964 C5965 1.349 . S
C5964 C5966 1.327 . S
C5964 H5989 0.950 . S
C5965 C5964 1.349 . S
C5965 C5981 1.349 . S
C5966 C5964 1.327 . S
C5966 C5985 1.429 . S
C5966 H5990 0.950 . S
C5967 C5984 1.574 . S
C5967 C5986 1.368 . S
C5967 H5991 0.949 . S
H5968 C5972 0.949 . S
C5969 C5970 1.349 . S
C5969 C5971 1.327 . S
C5969 H5992 0.950 . S
C5970 C5969 1.349 . S
C5970 C5982 1.349 . S
C5971 C5969 1.327 . S
C5971 C5987 1.429 . S
C5971 H5993 0.950 . S
C5972 H5968 0.949 . S
C5972 C5980 1.574 . S
C5972 C5988 1.368 . S
H5973 C5981 0.950 . S
H5974 C5979 0.950 . S
H5975 C5980 0.949 . S
H5976 C5982 0.950 . S
H5977 C5983 0.950 . S
H5978 C5984 0.949 . S
C5979 H5974 0.950 . S
C5979 C5981 1.327 . S
C5979 C5985 1.429 . S
C5980 C5972 1.574 . S
C5980 H5975 0.949 . S
C5980 C5986 1.368 . S
C5981 C5965 1.349 . S
C5981 H5973 0.950 . S
C5981 C5979 1.327 . S
C5982 C5970 1.349 . S
C5982 H5976 0.950 . S
C5982 C5983 1.327 . S
C5983 H5977 0.950 . S
C5983 C5982 1.327 . S
C5983 C5987 1.429 . S
C5984 C5967 1.574 . S
C5984 H5978 0.949 . S
C5984 C5988 1.368 . S
C5985 C5966 1.429 . S
C5985 C5979 1.429 . S
C5985 C5986 1.523 . S
C5986 C5967 1.368 . S
C5986 C5980 1.368 . S
C5986 C5985 1.523 . S
C5987 C5971 1.429 . S
C5987 C5983 1.429 . S
C5987 C5988 1.523 . S
C5988 C5972 1.368 . S
C5988 C5984 1.368 . S
C5988 C5987 1.523 . S
H5989 C5964 0.950 . S
H5990 C5966 0.950 . S
H5991 C5967 0.949 . S
H5992 C5969 0.950 . S
H5993 C5971 0.950 . S
C5994 C5995 1.349 . S
C5994 C5996 1.327 . S
C5994 H6019 0.950 . S
C5995 C5994 1.349 . S
C5995 C6011 1.349 . S
C5996 C5994 1.327 . S
C5996 C6015 1.429 . S
C5996 H6020 0.950 . S
C5997 C6014 1.574 . S
C5997 C6016 1.368 . S
C5997 H6021 0.949 . S
H5998 C6002 0.949 . S
C5999 C6000 1.349 . S
C5999 C6001 1.327 . S
C5999 H6022 0.950 . S
C6000 C5999 1.349 . S
C6000 C6012 1.349 . S
C6001 C5999 1.327 . S
C6001 C6017 1.429 . S
C6001 H6023 0.950 . S
C6002 H5998 0.949 . S
C6002 C6010 1.574 . S
C6002 C6018 1.368 . S
H6003 C6011 0.950 . S
H6004 C6009 0.950 . S
H6005 C6010 0.949 . S
H6006 C6012 0.950 . S
H6007 C6013 0.950 . S
H6008 C6014 0.949 . S
C6009 H6004 0.950 . S
C6009 C6011 1.327 . S
C6009 C6015 1.429 . S
C6010 C6002 1.574 . S
C6010 H6005 0.949 . S
C6010 C6016 1.368 . S
C6011 C5995 1.349 . S
C6011 H6003 0.950 . S
C6011 C6009 1.327 . S
C6012 C6000 1.349 . S
C6012 H6006 0.950 . S
C6012 C6013 1.327 . S
C6013 H6007 0.950 . S
C6013 C6012 1.327 . S
C6013 C6017 1.429 . S
C6014 C5997 1.574 . S
C6014 H6008 0.949 . S
C6014 C6018 1.368 . S
C6015 C5996 1.429 . S
C6015 C6009 1.429 . S
C6015 C6016 1.523 . S
C6016 C5997 1.368 . S
C6016 C6010 1.368 . S
C6016 C6015 1.523 . S
C6017 C6001 1.429 . S
C6017 C6013 1.429 . S
C6017 C6018 1.523 . S
C6018 C6002 1.368 . S
C6018 C6014 1.368 . S
C6018 C6017 1.523 . S
H6019 C5994 0.950 . S
H6020 C5996 0.950 . S
H6021 C5997 0.949 . S
H6022 C5999 0.950 . S
H6023 C6001 0.950 . S
C6024 C6025 1.349 . S
C6024 C6026 1.327 . S
C6024 H6049 0.950 . S
C6025 C6024 1.349 . S
C6025 C6041 1.349 . S
C6026 C6024 1.327 . S
C6026 C6045 1.429 . S
C6026 H6050 0.950 . S
C6027 C6044 1.574 . S
C6027 C6046 1.368 . S
C6027 H6051 0.949 . S
H6028 C6032 0.949 . S
C6029 C6030 1.349 . S
C6029 C6031 1.327 . S
C6029 H6052 0.950 . S
C6030 C6029 1.349 . S
C6030 C6042 1.349 . S
C6031 C6029 1.327 . S
C6031 C6047 1.429 . S
C6031 H6053 0.950 . S
C6032 H6028 0.949 . S
C6032 C6040 1.574 . S
C6032 C6048 1.368 . S
H6033 C6041 0.950 . S
H6034 C6039 0.950 . S
H6035 C6040 0.949 . S
H6036 C6042 0.950 . S
H6037 C6043 0.950 . S
H6038 C6044 0.949 . S
C6039 H6034 0.950 . S
C6039 C6041 1.327 . S
C6039 C6045 1.429 . S
C6040 C6032 1.574 . S
C6040 H6035 0.949 . S
C6040 C6046 1.368 . S
C6041 C6025 1.349 . S
C6041 H6033 0.950 . S
C6041 C6039 1.327 . S
C6042 C6030 1.349 . S
C6042 H6036 0.950 . S
C6042 C6043 1.327 . S
C6043 H6037 0.950 . S
C6043 C6042 1.327 . S
C6043 C6047 1.429 . S
C6044 C6027 1.574 . S
C6044 H6038 0.949 . S
C6044 C6048 1.368 . S
C6045 C6026 1.429 . S
C6045 C6039 1.429 . S
C6045 C6046 1.523 . S
C6046 C6027 1.368 . S
C6046 C6040 1.368 . S
C6046 C6045 1.523 . S
C6047 C6031 1.429 . S
C6047 C6043 1.429 . S
C6047 C6048 1.523 . S
C6048 C6032 1.368 . S
C6048 C6044 1.368 . S
C6048 C6047 1.523 . S
H6049 C6024 0.950 . S
H6050 C6026 0.950 . S
H6051 C6027 0.949 . S
H6052 C6029 0.950 . S
H6053 C6031 0.950 . S
C6054 C6055 1.349 . S
C6054 C6056 1.327 . S
C6054 H6079 0.950 . S
C6055 C6054 1.349 . S
C6055 C6071 1.349 . S
C6056 C6054 1.327 . S
C6056 C6075 1.429 . S
C6056 H6080 0.950 . S
C6057 C6074 1.574 . S
C6057 C6076 1.368 . S
C6057 H6081 0.949 . S
H6058 C6062 0.949 . S
C6059 C6060 1.349 . S
C6059 C6061 1.327 . S
C6059 H6082 0.950 . S
C6060 C6059 1.349 . S
C6060 C6072 1.349 . S
C6061 C6059 1.327 . S
C6061 C6077 1.429 . S
C6061 H6083 0.950 . S
C6062 H6058 0.949 . S
C6062 C6070 1.574 . S
C6062 C6078 1.368 . S
H6063 C6071 0.950 . S
H6064 C6069 0.950 . S
H6065 C6070 0.949 . S
H6066 C6072 0.950 . S
H6067 C6073 0.950 . S
H6068 C6074 0.949 . S
C6069 H6064 0.950 . S
C6069 C6071 1.327 . S
C6069 C6075 1.429 . S
C6070 C6062 1.574 . S
C6070 H6065 0.949 . S
C6070 C6076 1.368 . S
C6071 C6055 1.349 . S
C6071 H6063 0.950 . S
C6071 C6069 1.327 . S
C6072 C6060 1.349 . S
C6072 H6066 0.950 . S
C6072 C6073 1.327 . S
C6073 H6067 0.950 . S
C6073 C6072 1.327 . S
C6073 C6077 1.429 . S
C6074 C6057 1.574 . S
C6074 H6068 0.949 . S
C6074 C6078 1.368 . S
C6075 C6056 1.429 . S
C6075 C6069 1.429 . S
C6075 C6076 1.523 . S
C6076 C6057 1.368 . S
C6076 C6070 1.368 . S
C6076 C6075 1.523 . S
C6077 C6061 1.429 . S
C6077 C6073 1.429 . S
C6077 C6078 1.523 . S
C6078 C6062 1.368 . S
C6078 C6074 1.368 . S
C6078 C6077 1.523 . S
H6079 C6054 0.950 . S
H6080 C6056 0.950 . S
H6081 C6057 0.949 . S
H6082 C6059 0.950 . S
H6083 C6061 0.950 . S
C6084 C6085 1.349 . S
C6084 C6086 1.327 . S
C6084 H6109 0.950 . S
C6085 C6084 1.349 . S
C6085 C6101 1.349 . S
C6086 C6084 1.327 . S
C6086 C6105 1.429 . S
C6086 H6110 0.950 . S
C6087 C6104 1.574 . S
C6087 C6106 1.368 . S
C6087 H6111 0.949 . S
H6088 C6092 0.949 . S
C6089 C6090 1.349 . S
C6089 C6091 1.327 . S
C6089 H6112 0.950 . S
C6090 C6089 1.349 . S
C6090 C6102 1.349 . S
C6091 C6089 1.327 . S
C6091 C6107 1.429 . S
C6091 H6113 0.950 . S
C6092 H6088 0.949 . S
C6092 C6100 1.574 . S
C6092 C6108 1.368 . S
H6093 C6101 0.950 . S
H6094 C6099 0.950 . S
H6095 C6100 0.949 . S
H6096 C6102 0.950 . S
H6097 C6103 0.950 . S
H6098 C6104 0.949 . S
C6099 H6094 0.950 . S
C6099 C6101 1.327 . S
C6099 C6105 1.429 . S
C6100 C6092 1.574 . S
C6100 H6095 0.949 . S
C6100 C6106 1.368 . S
C6101 C6085 1.349 . S
C6101 H6093 0.950 . S
C6101 C6099 1.327 . S
C6102 C6090 1.349 . S
C6102 H6096 0.950 . S
C6102 C6103 1.327 . S
C6103 H6097 0.950 . S
C6103 C6102 1.327 . S
C6103 C6107 1.429 . S
C6104 C6087 1.574 . S
C6104 H6098 0.949 . S
C6104 C6108 1.368 . S
C6105 C6086 1.429 . S
C6105 C6099 1.429 . S
C6105 C6106 1.523 . S
C6106 C6087 1.368 . S
C6106 C6100 1.368 . S
C6106 C6105 1.523 . S
C6107 C6091 1.429 . S
C6107 C6103 1.429 . S
C6107 C6108 1.523 . S
C6108 C6092 1.368 . S
C6108 C6104 1.368 . S
C6108 C6107 1.523 . S
H6109 C6084 0.950 . S
H6110 C6086 0.950 . S
H6111 C6087 0.949 . S
H6112 C6089 0.950 . S
H6113 C6091 0.950 . S
C6114 C6115 1.349 . S
C6114 C6116 1.327 . S
C6114 H6139 0.950 . S
C6115 C6114 1.349 . S
C6115 C6131 1.349 . S
C6116 C6114 1.327 . S
C6116 C6135 1.429 . S
C6116 H6140 0.950 . S
C6117 C6134 1.574 . S
C6117 C6136 1.368 . S
C6117 H6141 0.949 . S
H6118 C6122 0.949 . S
C6119 C6120 1.349 . S
C6119 C6121 1.327 . S
C6119 H6142 0.950 . S
C6120 C6119 1.349 . S
C6120 C6132 1.349 . S
C6121 C6119 1.327 . S
C6121 C6137 1.429 . S
C6121 H6143 0.950 . S
C6122 H6118 0.949 . S
C6122 C6130 1.574 . S
C6122 C6138 1.368 . S
H6123 C6131 0.950 . S
H6124 C6129 0.950 . S
H6125 C6130 0.949 . S
H6126 C6132 0.950 . S
H6127 C6133 0.950 . S
H6128 C6134 0.949 . S
C6129 H6124 0.950 . S
C6129 C6131 1.327 . S
C6129 C6135 1.429 . S
C6130 C6122 1.574 . S
C6130 H6125 0.949 . S
C6130 C6136 1.368 . S
C6131 C6115 1.349 . S
C6131 H6123 0.950 . S
C6131 C6129 1.327 . S
C6132 C6120 1.349 . S
C6132 H6126 0.950 . S
C6132 C6133 1.327 . S
C6133 H6127 0.950 . S
C6133 C6132 1.327 . S
C6133 C6137 1.429 . S
C6134 C6117 1.574 . S
C6134 H6128 0.949 . S
C6134 C6138 1.368 . S
C6135 C6116 1.429 . S
C6135 C6129 1.429 . S
C6135 C6136 1.523 . S
C6136 C6117 1.368 . S
C6136 C6130 1.368 . S
C6136 C6135 1.523 . S
C6137 C6121 1.429 . S
C6137 C6133 1.429 . S
C6137 C6138 1.523 . S
C6138 C6122 1.368 . S
C6138 C6134 1.368 . S
C6138 C6137 1.523 . S
H6139 C6114 0.950 . S
H6140 C6116 0.950 . S
H6141 C6117 0.949 . S
H6142 C6119 0.950 . S
H6143 C6121 0.950 . S
C6144 C6145 1.349 . S
C6144 C6146 1.327 . S
C6144 H6169 0.950 . S
C6145 C6144 1.349 . S
C6145 C6161 1.349 . S
C6146 C6144 1.327 . S
C6146 C6165 1.429 . S
C6146 H6170 0.950 . S
C6147 C6164 1.574 . S
C6147 C6166 1.368 . S
C6147 H6171 0.949 . S
H6148 C6152 0.949 . S
C6149 C6150 1.349 . S
C6149 C6151 1.327 . S
C6149 H6172 0.950 . S
C6150 C6149 1.349 . S
C6150 C6162 1.349 . S
C6151 C6149 1.327 . S
C6151 C6167 1.429 . S
C6151 H6173 0.950 . S
C6152 H6148 0.949 . S
C6152 C6160 1.574 . S
C6152 C6168 1.368 . S
H6153 C6161 0.950 . S
H6154 C6159 0.950 . S
H6155 C6160 0.949 . S
H6156 C6162 0.950 . S
H6157 C6163 0.950 . S
H6158 C6164 0.949 . S
C6159 H6154 0.950 . S
C6159 C6161 1.327 . S
C6159 C6165 1.429 . S
C6160 C6152 1.574 . S
C6160 H6155 0.949 . S
C6160 C6166 1.368 . S
C6161 C6145 1.349 . S
C6161 H6153 0.950 . S
C6161 C6159 1.327 . S
C6162 C6150 1.349 . S
C6162 H6156 0.950 . S
C6162 C6163 1.327 . S
C6163 H6157 0.950 . S
C6163 C6162 1.327 . S
C6163 C6167 1.429 . S
C6164 C6147 1.574 . S
C6164 H6158 0.949 . S
C6164 C6168 1.368 . S
C6165 C6146 1.429 . S
C6165 C6159 1.429 . S
C6165 C6166 1.523 . S
C6166 C6147 1.368 . S
C6166 C6160 1.368 . S
C6166 C6165 1.523 . S
C6167 C6151 1.429 . S
C6167 C6163 1.429 . S
C6167 C6168 1.523 . S
C6168 C6152 1.368 . S
C6168 C6164 1.368 . S
C6168 C6167 1.523 . S
H6169 C6144 0.950 . S
H6170 C6146 0.950 . S
H6171 C6147 0.949 . S
H6172 C6149 0.950 . S
H6173 C6151 0.950 . S
C6174 C6175 1.349 . S
C6174 C6176 1.327 . S
C6174 H6199 0.950 . S
C6175 C6174 1.349 . S
C6175 C6191 1.349 . S
C6176 C6174 1.327 . S
C6176 C6195 1.429 . S
C6176 H6200 0.950 . S
C6177 C6194 1.574 . S
C6177 C6196 1.368 . S
C6177 H6201 0.949 . S
H6178 C6182 0.949 . S
C6179 C6180 1.349 . S
C6179 C6181 1.327 . S
C6179 H6202 0.950 . S
C6180 C6179 1.349 . S
C6180 C6192 1.349 . S
C6181 C6179 1.327 . S
C6181 C6197 1.429 . S
C6181 H6203 0.950 . S
C6182 H6178 0.949 . S
C6182 C6190 1.574 . S
C6182 C6198 1.368 . S
H6183 C6191 0.950 . S
H6184 C6189 0.950 . S
H6185 C6190 0.949 . S
H6186 C6192 0.950 . S
H6187 C6193 0.950 . S
H6188 C6194 0.949 . S
C6189 H6184 0.950 . S
C6189 C6191 1.327 . S
C6189 C6195 1.429 . S
C6190 C6182 1.574 . S
C6190 H6185 0.949 . S
C6190 C6196 1.368 . S
C6191 C6175 1.349 . S
C6191 H6183 0.950 . S
C6191 C6189 1.327 . S
C6192 C6180 1.349 . S
C6192 H6186 0.950 . S
C6192 C6193 1.327 . S
C6193 H6187 0.950 . S
C6193 C6192 1.327 . S
C6193 C6197 1.429 . S
C6194 C6177 1.574 . S
C6194 H6188 0.949 . S
C6194 C6198 1.368 . S
C6195 C6176 1.429 . S
C6195 C6189 1.429 . S
C6195 C6196 1.523 . S
C6196 C6177 1.368 . S
C6196 C6190 1.368 . S
C6196 C6195 1.523 . S
C6197 C6181 1.429 . S
C6197 C6193 1.429 . S
C6197 C6198 1.523 . S
C6198 C6182 1.368 . S
C6198 C6194 1.368 . S
C6198 C6197 1.523 . S
H6199 C6174 0.950 . S
H6200 C6176 0.950 . S
H6201 C6177 0.949 . S
H6202 C6179 0.950 . S
H6203 C6181 0.950 . S
C6204 C6205 1.349 . S
C6204 C6206 1.327 . S
C6204 H6229 0.950 . S
C6205 C6204 1.349 . S
C6205 C6221 1.349 . S
C6206 C6204 1.327 . S
C6206 C6225 1.429 . S
C6206 H6230 0.950 . S
C6207 C6224 1.574 . S
C6207 C6226 1.368 . S
C6207 H6231 0.949 . S
H6208 C6212 0.949 . S
C6209 C6210 1.349 . S
C6209 C6211 1.327 . S
C6209 H6232 0.950 . S
C6210 C6209 1.349 . S
C6210 C6222 1.349 . S
C6211 C6209 1.327 . S
C6211 C6227 1.429 . S
C6211 H6233 0.950 . S
C6212 H6208 0.949 . S
C6212 C6220 1.574 . S
C6212 C6228 1.368 . S
H6213 C6221 0.950 . S
H6214 C6219 0.950 . S
H6215 C6220 0.949 . S
H6216 C6222 0.950 . S
H6217 C6223 0.950 . S
H6218 C6224 0.949 . S
C6219 H6214 0.950 . S
C6219 C6221 1.327 . S
C6219 C6225 1.429 . S
C6220 C6212 1.574 . S
C6220 H6215 0.949 . S
C6220 C6226 1.368 . S
C6221 C6205 1.349 . S
C6221 H6213 0.950 . S
C6221 C6219 1.327 . S
C6222 C6210 1.349 . S
C6222 H6216 0.950 . S
C6222 C6223 1.327 . S
C6223 H6217 0.950 . S
C6223 C6222 1.327 . S
C6223 C6227 1.429 . S
C6224 C6207 1.574 . S
C6224 H6218 0.949 . S
C6224 C6228 1.368 . S
C6225 C6206 1.429 . S
C6225 C6219 1.429 . S
C6225 C6226 1.523 . S
C6226 C6207 1.368 . S
C6226 C6220 1.368 . S
C6226 C6225 1.523 . S
C6227 C6211 1.429 . S
C6227 C6223 1.429 . S
C6227 C6228 1.523 . S
C6228 C6212 1.368 . S
C6228 C6224 1.368 . S
C6228 C6227 1.523 . S
H6229 C6204 0.950 . S
H6230 C6206 0.950 . S
H6231 C6207 0.949 . S
H6232 C6209 0.950 . S
H6233 C6211 0.950 . S
C6234 C6235 1.349 . S
C6234 C6236 1.327 . S
C6234 H6259 0.950 . S
C6235 C6234 1.349 . S
C6235 C6251 1.349 . S
C6236 C6234 1.327 . S
C6236 C6255 1.429 . S
C6236 H6260 0.950 . S
C6237 C6254 1.574 . S
C6237 C6256 1.368 . S
C6237 H6261 0.949 . S
H6238 C6242 0.949 . S
C6239 C6240 1.349 . S
C6239 C6241 1.327 . S
C6239 H6262 0.950 . S
C6240 C6239 1.349 . S
C6240 C6252 1.349 . S
C6241 C6239 1.327 . S
C6241 C6257 1.429 . S
C6241 H6263 0.950 . S
C6242 H6238 0.949 . S
C6242 C6250 1.574 . S
C6242 C6258 1.368 . S
H6243 C6251 0.950 . S
H6244 C6249 0.950 . S
H6245 C6250 0.949 . S
H6246 C6252 0.950 . S
H6247 C6253 0.950 . S
H6248 C6254 0.949 . S
C6249 H6244 0.950 . S
C6249 C6251 1.327 . S
C6249 C6255 1.429 . S
C6250 C6242 1.574 . S
C6250 H6245 0.949 . S
C6250 C6256 1.368 . S
C6251 C6235 1.349 . S
C6251 H6243 0.950 . S
C6251 C6249 1.327 . S
C6252 C6240 1.349 . S
C6252 H6246 0.950 . S
C6252 C6253 1.327 . S
C6253 H6247 0.950 . S
C6253 C6252 1.327 . S
C6253 C6257 1.429 . S
C6254 C6237 1.574 . S
C6254 H6248 0.949 . S
C6254 C6258 1.368 . S
C6255 C6236 1.429 . S
C6255 C6249 1.429 . S
C6255 C6256 1.523 . S
C6256 C6237 1.368 . S
C6256 C6250 1.368 . S
C6256 C6255 1.523 . S
C6257 C6241 1.429 . S
C6257 C6253 1.429 . S
C6257 C6258 1.523 . S
C6258 C6242 1.368 . S
C6258 C6254 1.368 . S
C6258 C6257 1.523 . S
H6259 C6234 0.950 . S
H6260 C6236 0.950 . S
H6261 C6237 0.949 . S
H6262 C6239 0.950 . S
H6263 C6241 0.950 . S
C6264 C6265 1.349 . S
C6264 C6266 1.327 . S
C6264 H6289 0.950 . S
C6265 C6264 1.349 . S
C6265 C6281 1.349 . S
C6266 C6264 1.327 . S
C6266 C6285 1.429 . S
C6266 H6290 0.950 . S
C6267 C6284 1.574 . S
C6267 C6286 1.368 . S
C6267 H6291 0.949 . S
H6268 C6272 0.949 . S
C6269 C6270 1.349 . S
C6269 C6271 1.327 . S
C6269 H6292 0.950 . S
C6270 C6269 1.349 . S
C6270 C6282 1.349 . S
C6271 C6269 1.327 . S
C6271 C6287 1.429 . S
C6271 H6293 0.950 . S
C6272 H6268 0.949 . S
C6272 C6280 1.574 . S
C6272 C6288 1.368 . S
H6273 C6281 0.950 . S
H6274 C6279 0.950 . S
H6275 C6280 0.949 . S
H6276 C6282 0.950 . S
H6277 C6283 0.950 . S
H6278 C6284 0.949 . S
C6279 H6274 0.950 . S
C6279 C6281 1.327 . S
C6279 C6285 1.429 . S
C6280 C6272 1.574 . S
C6280 H6275 0.949 . S
C6280 C6286 1.368 . S
C6281 C6265 1.349 . S
C6281 H6273 0.950 . S
C6281 C6279 1.327 . S
C6282 C6270 1.349 . S
C6282 H6276 0.950 . S
C6282 C6283 1.327 . S
C6283 H6277 0.950 . S
C6283 C6282 1.327 . S
C6283 C6287 1.429 . S
C6284 C6267 1.574 . S
C6284 H6278 0.949 . S
C6284 C6288 1.368 . S
C6285 C6266 1.429 . S
C6285 C6279 1.429 . S
C6285 C6286 1.523 . S
C6286 C6267 1.368 . S
C6286 C6280 1.368 . S
C6286 C6285 1.523 . S
C6287 C6271 1.429 . S
C6287 C6283 1.429 . S
C6287 C6288 1.523 . S
C6288 C6272 1.368 . S
C6288 C6284 1.368 . S
C6288 C6287 1.523 . S
H6289 C6264 0.950 . S
H6290 C6266 0.950 . S
H6291 C6267 0.949 . S
H6292 C6269 0.950 . S
H6293 C6271 0.950 . S
C6294 C6295 1.349 . S
C6294 C6296 1.327 . S
C6294 H6319 0.950 . S
C6295 C6294 1.349 . S
C6295 C6311 1.349 . S
C6296 C6294 1.327 . S
C6296 C6315 1.429 . S
C6296 H6320 0.950 . S
C6297 C6314 1.574 . S
C6297 C6316 1.368 . S
C6297 H6321 0.949 . S
H6298 C6302 0.949 . S
C6299 C6300 1.349 . S
C6299 C6301 1.327 . S
C6299 H6322 0.950 . S
C6300 C6299 1.349 . S
C6300 C6312 1.349 . S
C6301 C6299 1.327 . S
C6301 C6317 1.429 . S
C6301 H6323 0.950 . S
C6302 H6298 0.949 . S
C6302 C6310 1.574 . S
C6302 C6318 1.368 . S
H6303 C6311 0.950 . S
H6304 C6309 0.950 . S
H6305 C6310 0.949 . S
H6306 C6312 0.950 . S
H6307 C6313 0.950 . S
H6308 C6314 0.949 . S
C6309 H6304 0.950 . S
C6309 C6311 1.327 . S
C6309 C6315 1.429 . S
C6310 C6302 1.574 . S
C6310 H6305 0.949 . S
C6310 C6316 1.368 . S
C6311 C6295 1.349 . S
C6311 H6303 0.950 . S
C6311 C6309 1.327 . S
C6312 C6300 1.349 . S
C6312 H6306 0.950 . S
C6312 C6313 1.327 . S
C6313 H6307 0.950 . S
C6313 C6312 1.327 . S
C6313 C6317 1.429 . S
C6314 C6297 1.574 . S
C6314 H6308 0.949 . S
C6314 C6318 1.368 . S
C6315 C6296 1.429 . S
C6315 C6309 1.429 . S
C6315 C6316 1.523 . S
C6316 C6297 1.368 . S
C6316 C6310 1.368 . S
C6316 C6315 1.523 . S
C6317 C6301 1.429 . S
C6317 C6313 1.429 . S
C6317 C6318 1.523 . S
C6318 C6302 1.368 . S
C6318 C6314 1.368 . S
C6318 C6317 1.523 . S
H6319 C6294 0.950 . S
H6320 C6296 0.950 . S
H6321 C6297 0.949 . S
H6322 C6299 0.950 . S
H6323 C6301 0.950 . S
C6324 C6325 1.349 . S
C6324 C6326 1.327 . S
C6324 H6349 0.950 . S
C6325 C6324 1.349 . S
C6325 C6341 1.349 . S
C6326 C6324 1.327 . S
C6326 C6345 1.429 . S
C6326 H6350 0.950 . S
C6327 C6344 1.574 . S
C6327 C6346 1.368 . S
C6327 H6351 0.949 . S
H6328 C6332 0.949 . S
C6329 C6330 1.349 . S
C6329 C6331 1.327 . S
C6329 H6352 0.950 . S
C6330 C6329 1.349 . S
C6330 C6342 1.349 . S
C6331 C6329 1.327 . S
C6331 C6347 1.429 . S
C6331 H6353 0.950 . S
C6332 H6328 0.949 . S
C6332 C6340 1.574 . S
C6332 C6348 1.368 . S
H6333 C6341 0.950 . S
H6334 C6339 0.950 . S
H6335 C6340 0.949 . S
H6336 C6342 0.950 . S
H6337 C6343 0.950 . S
H6338 C6344 0.949 . S
C6339 H6334 0.950 . S
C6339 C6341 1.327 . S
C6339 C6345 1.429 . S
C6340 C6332 1.574 . S
C6340 H6335 0.949 . S
C6340 C6346 1.368 . S
C6341 C6325 1.349 . S
C6341 H6333 0.950 . S
C6341 C6339 1.327 . S
C6342 C6330 1.349 . S
C6342 H6336 0.950 . S
C6342 C6343 1.327 . S
C6343 H6337 0.950 . S
C6343 C6342 1.327 . S
C6343 C6347 1.429 . S
C6344 C6327 1.574 . S
C6344 H6338 0.949 . S
C6344 C6348 1.368 . S
C6345 C6326 1.429 . S
C6345 C6339 1.429 . S
C6345 C6346 1.523 . S
C6346 C6327 1.368 . S
C6346 C6340 1.368 . S
C6346 C6345 1.523 . S
C6347 C6331 1.429 . S
C6347 C6343 1.429 . S
C6347 C6348 1.523 . S
C6348 C6332 1.368 . S
C6348 C6344 1.368 . S
C6348 C6347 1.523 . S
H6349 C6324 0.950 . S
H6350 C6326 0.950 . S
H6351 C6327 0.949 . S
H6352 C6329 0.950 . S
H6353 C6331 0.950 . S
C6354 C6355 1.349 . S
C6354 C6356 1.327 . S
C6354 H6379 0.950 . S
C6355 C6354 1.349 . S
C6355 C6371 1.349 . S
C6356 C6354 1.327 . S
C6356 C6375 1.429 . S
C6356 H6380 0.950 . S
C6357 C6374 1.574 . S
C6357 C6376 1.368 . S
C6357 H6381 0.949 . S
H6358 C6362 0.949 . S
C6359 C6360 1.349 . S
C6359 C6361 1.327 . S
C6359 H6382 0.950 . S
C6360 C6359 1.349 . S
C6360 C6372 1.349 . S
C6361 C6359 1.327 . S
C6361 C6377 1.429 . S
C6361 H6383 0.950 . S
C6362 H6358 0.949 . S
C6362 C6370 1.574 . S
C6362 C6378 1.368 . S
H6363 C6371 0.950 . S
H6364 C6369 0.950 . S
H6365 C6370 0.949 . S
H6366 C6372 0.950 . S
H6367 C6373 0.950 . S
H6368 C6374 0.949 . S
C6369 H6364 0.950 . S
C6369 C6371 1.327 . S
C6369 C6375 1.429 . S
C6370 C6362 1.574 . S
C6370 H6365 0.949 . S
C6370 C6376 1.368 . S
C6371 C6355 1.349 . S
C6371 H6363 0.950 . S
C6371 C6369 1.327 . S
C6372 C6360 1.349 . S
C6372 H6366 0.950 . S
C6372 C6373 1.327 . S
C6373 H6367 0.950 . S
C6373 C6372 1.327 . S
C6373 C6377 1.429 . S
C6374 C6357 1.574 . S
C6374 H6368 0.949 . S
C6374 C6378 1.368 . S
C6375 C6356 1.429 . S
C6375 C6369 1.429 . S
C6375 C6376 1.523 . S
C6376 C6357 1.368 . S
C6376 C6370 1.368 . S
C6376 C6375 1.523 . S
C6377 C6361 1.429 . S
C6377 C6373 1.429 . S
C6377 C6378 1.523 . S
C6378 C6362 1.368 . S
C6378 C6374 1.368 . S
C6378 C6377 1.523 . S
H6379 C6354 0.950 . S
H6380 C6356 0.950 . S
H6381 C6357 0.949 . S
H6382 C6359 0.950 . S
H6383 C6361 0.950 . S
C6384 C6385 1.349 . S
C6384 C6386 1.327 . S
C6384 H6409 0.950 . S
C6385 C6384 1.349 . S
C6385 C6401 1.349 . S
C6386 C6384 1.327 . S
C6386 C6405 1.429 . S
C6386 H6410 0.950 . S
C6387 C6404 1.574 . S
C6387 C6406 1.368 . S
C6387 H6411 0.949 . S
H6388 C6392 0.949 . S
C6389 C6390 1.349 . S
C6389 C6391 1.327 . S
C6389 H6412 0.950 . S
C6390 C6389 1.349 . S
C6390 C6402 1.349 . S
C6391 C6389 1.327 . S
C6391 C6407 1.429 . S
C6391 H6413 0.950 . S
C6392 H6388 0.949 . S
C6392 C6400 1.574 . S
C6392 C6408 1.368 . S
H6393 C6401 0.950 . S
H6394 C6399 0.950 . S
H6395 C6400 0.949 . S
H6396 C6402 0.950 . S
H6397 C6403 0.950 . S
H6398 C6404 0.949 . S
C6399 H6394 0.950 . S
C6399 C6401 1.327 . S
C6399 C6405 1.429 . S
C6400 C6392 1.574 . S
C6400 H6395 0.949 . S
C6400 C6406 1.368 . S
C6401 C6385 1.349 . S
C6401 H6393 0.950 . S
C6401 C6399 1.327 . S
C6402 C6390 1.349 . S
C6402 H6396 0.950 . S
C6402 C6403 1.327 . S
C6403 H6397 0.950 . S
C6403 C6402 1.327 . S
C6403 C6407 1.429 . S
C6404 C6387 1.574 . S
C6404 H6398 0.949 . S
C6404 C6408 1.368 . S
C6405 C6386 1.429 . S
C6405 C6399 1.429 . S
C6405 C6406 1.523 . S
C6406 C6387 1.368 . S
C6406 C6400 1.368 . S
C6406 C6405 1.523 . S
C6407 C6391 1.429 . S
C6407 C6403 1.429 . S
C6407 C6408 1.523 . S
C6408 C6392 1.368 . S
C6408 C6404 1.368 . S
C6408 C6407 1.523 . S
H6409 C6384 0.950 . S
H6410 C6386 0.950 . S
H6411 C6387 0.949 . S
H6412 C6389 0.950 . S
H6413 C6391 0.950 . S
C6414 C6415 1.349 . S
C6414 C6416 1.327 . S
C6414 H6439 0.950 . S
C6415 C6414 1.349 . S
C6415 C6431 1.349 . S
C6416 C6414 1.327 . S
C6416 C6435 1.429 . S
C6416 H6440 0.950 . S
C6417 C6434 1.574 . S
C6417 C6436 1.368 . S
C6417 H6441 0.949 . S
H6418 C6422 0.949 . S
C6419 C6420 1.349 . S
C6419 C6421 1.327 . S
C6419 H6442 0.950 . S
C6420 C6419 1.349 . S
C6420 C6432 1.349 . S
C6421 C6419 1.327 . S
C6421 C6437 1.429 . S
C6421 H6443 0.950 . S
C6422 H6418 0.949 . S
C6422 C6430 1.574 . S
C6422 C6438 1.368 . S
H6423 C6431 0.950 . S
H6424 C6429 0.950 . S
H6425 C6430 0.949 . S
H6426 C6432 0.950 . S
H6427 C6433 0.950 . S
H6428 C6434 0.949 . S
C6429 H6424 0.950 . S
C6429 C6431 1.327 . S
C6429 C6435 1.429 . S
C6430 C6422 1.574 . S
C6430 H6425 0.949 . S
C6430 C6436 1.368 . S
C6431 C6415 1.349 . S
C6431 H6423 0.950 . S
C6431 C6429 1.327 . S
C6432 C6420 1.349 . S
C6432 H6426 0.950 . S
C6432 C6433 1.327 . S
C6433 H6427 0.950 . S
C6433 C6432 1.327 . S
C6433 C6437 1.429 . S
C6434 C6417 1.574 . S
C6434 H6428 0.949 . S
C6434 C6438 1.368 . S
C6435 C6416 1.429 . S
C6435 C6429 1.429 . S
C6435 C6436 1.523 . S
C6436 C6417 1.368 . S
C6436 C6430 1.368 . S
C6436 C6435 1.523 . S
C6437 C6421 1.429 . S
C6437 C6433 1.429 . S
C6437 C6438 1.523 . S
C6438 C6422 1.368 . S
C6438 C6434 1.368 . S
C6438 C6437 1.523 . S
H6439 C6414 0.950 . S
H6440 C6416 0.950 . S
H6441 C6417 0.949 . S
H6442 C6419 0.950 . S
H6443 C6421 0.950 . S
C6444 C6445 1.349 . S
C6444 C6446 1.327 . S
C6444 H6469 0.950 . S
C6445 C6444 1.349 . S
C6445 C6461 1.349 . S
C6446 C6444 1.327 . S
C6446 C6465 1.429 . S
C6446 H6470 0.950 . S
C6447 C6464 1.574 . S
C6447 C6466 1.368 . S
C6447 H6471 0.949 . S
H6448 C6452 0.949 . S
C6449 C6450 1.349 . S
C6449 C6451 1.327 . S
C6449 H6472 0.950 . S
C6450 C6449 1.349 . S
C6450 C6462 1.349 . S
C6451 C6449 1.327 . S
C6451 C6467 1.429 . S
C6451 H6473 0.950 . S
C6452 H6448 0.949 . S
C6452 C6460 1.574 . S
C6452 C6468 1.368 . S
H6453 C6461 0.950 . S
H6454 C6459 0.950 . S
H6455 C6460 0.949 . S
H6456 C6462 0.950 . S
H6457 C6463 0.950 . S
H6458 C6464 0.949 . S
C6459 H6454 0.950 . S
C6459 C6461 1.327 . S
C6459 C6465 1.429 . S
C6460 C6452 1.574 . S
C6460 H6455 0.949 . S
C6460 C6466 1.368 . S
C6461 C6445 1.349 . S
C6461 H6453 0.950 . S
C6461 C6459 1.327 . S
C6462 C6450 1.349 . S
C6462 H6456 0.950 . S
C6462 C6463 1.327 . S
C6463 H6457 0.950 . S
C6463 C6462 1.327 . S
C6463 C6467 1.429 . S
C6464 C6447 1.574 . S
C6464 H6458 0.949 . S
C6464 C6468 1.368 . S
C6465 C6446 1.429 . S
C6465 C6459 1.429 . S
C6465 C6466 1.523 . S
C6466 C6447 1.368 . S
C6466 C6460 1.368 . S
C6466 C6465 1.523 . S
C6467 C6451 1.429 . S
C6467 C6463 1.429 . S
C6467 C6468 1.523 . S
C6468 C6452 1.368 . S
C6468 C6464 1.368 . S
C6468 C6467 1.523 . S
H6469 C6444 0.950 . S
H6470 C6446 0.950 . S
H6471 C6447 0.949 . S
H6472 C6449 0.950 . S
H6473 C6451 0.950 . S
C6474 C6475 1.349 . S
C6474 C6476 1.327 . S
C6474 H6499 0.950 . S
C6475 C6474 1.349 . S
C6475 C6491 1.349 . S
C6476 C6474 1.327 . S
C6476 C6495 1.429 . S
C6476 H6500 0.950 . S
C6477 C6494 1.574 . S
C6477 C6496 1.368 . S
C6477 H6501 0.949 . S
H6478 C6482 0.949 . S
C6479 C6480 1.349 . S
C6479 C6481 1.327 . S
C6479 H6502 0.950 . S
C6480 C6479 1.349 . S
C6480 C6492 1.349 . S
C6481 C6479 1.327 . S
C6481 C6497 1.429 . S
C6481 H6503 0.950 . S
C6482 H6478 0.949 . S
C6482 C6490 1.574 . S
C6482 C6498 1.368 . S
H6483 C6491 0.950 . S
H6484 C6489 0.950 . S
H6485 C6490 0.949 . S
H6486 C6492 0.950 . S
H6487 C6493 0.950 . S
H6488 C6494 0.949 . S
C6489 H6484 0.950 . S
C6489 C6491 1.327 . S
C6489 C6495 1.429 . S
C6490 C6482 1.574 . S
C6490 H6485 0.949 . S
C6490 C6496 1.368 . S
C6491 C6475 1.349 . S
C6491 H6483 0.950 . S
C6491 C6489 1.327 . S
C6492 C6480 1.349 . S
C6492 H6486 0.950 . S
C6492 C6493 1.327 . S
C6493 H6487 0.950 . S
C6493 C6492 1.327 . S
C6493 C6497 1.429 . S
C6494 C6477 1.574 . S
C6494 H6488 0.949 . S
C6494 C6498 1.368 . S
C6495 C6476 1.429 . S
C6495 C6489 1.429 . S
C6495 C6496 1.523 . S
C6496 C6477 1.368 . S
C6496 C6490 1.368 . S
C6496 C6495 1.523 . S
C6497 C6481 1.429 . S
C6497 C6493 1.429 . S
C6497 C6498 1.523 . S
C6498 C6482 1.368 . S
C6498 C6494 1.368 . S
C6498 C6497 1.523 . S
H6499 C6474 0.950 . S
H6500 C6476 0.950 . S
H6501 C6477 0.949 . S
H6502 C6479 0.950 . S
H6503 C6481 0.950 . S
C6504 C6505 1.349 . S
C6504 C6506 1.327 . S
C6504 H6529 0.950 . S
C6505 C6504 1.349 . S
C6505 C6521 1.349 . S
C6506 C6504 1.327 . S
C6506 C6525 1.429 . S
C6506 H6530 0.950 . S
C6507 C6524 1.574 . S
C6507 C6526 1.368 . S
C6507 H6531 0.949 . S
H6508 C6512 0.949 . S
C6509 C6510 1.349 . S
C6509 C6511 1.327 . S
C6509 H6532 0.950 . S
C6510 C6509 1.349 . S
C6510 C6522 1.349 . S
C6511 C6509 1.327 . S
C6511 C6527 1.429 . S
C6511 H6533 0.950 . S
C6512 H6508 0.949 . S
C6512 C6520 1.574 . S
C6512 C6528 1.368 . S
H6513 C6521 0.950 . S
H6514 C6519 0.950 . S
H6515 C6520 0.949 . S
H6516 C6522 0.950 . S
H6517 C6523 0.950 . S
H6518 C6524 0.949 . S
C6519 H6514 0.950 . S
C6519 C6521 1.327 . S
C6519 C6525 1.429 . S
C6520 C6512 1.574 . S
C6520 H6515 0.949 . S
C6520 C6526 1.368 . S
C6521 C6505 1.349 . S
C6521 H6513 0.950 . S
C6521 C6519 1.327 . S
C6522 C6510 1.349 . S
C6522 H6516 0.950 . S
C6522 C6523 1.327 . S
C6523 H6517 0.950 . S
C6523 C6522 1.327 . S
C6523 C6527 1.429 . S
C6524 C6507 1.574 . S
C6524 H6518 0.949 . S
C6524 C6528 1.368 . S
C6525 C6506 1.429 . S
C6525 C6519 1.429 . S
C6525 C6526 1.523 . S
C6526 C6507 1.368 . S
C6526 C6520 1.368 . S
C6526 C6525 1.523 . S
C6527 C6511 1.429 . S
C6527 C6523 1.429 . S
C6527 C6528 1.523 . S
C6528 C6512 1.368 . S
C6528 C6524 1.368 . S
C6528 C6527 1.523 . S
H6529 C6504 0.950 . S
H6530 C6506 0.950 . S
H6531 C6507 0.949 . S
H6532 C6509 0.950 . S
H6533 C6511 0.950 . S
C6534 C6535 1.349 . S
C6534 C6536 1.327 . S
C6534 H6559 0.950 . S
C6535 C6534 1.349 . S
C6535 C6551 1.349 . S
C6536 C6534 1.327 . S
C6536 C6555 1.429 . S
C6536 H6560 0.950 . S
C6537 C6554 1.574 . S
C6537 C6556 1.368 . S
C6537 H6561 0.949 . S
H6538 C6542 0.949 . S
C6539 C6540 1.349 . S
C6539 C6541 1.327 . S
C6539 H6562 0.950 . S
C6540 C6539 1.349 . S
C6540 C6552 1.349 . S
C6541 C6539 1.327 . S
C6541 C6557 1.429 . S
C6541 H6563 0.950 . S
C6542 H6538 0.949 . S
C6542 C6550 1.574 . S
C6542 C6558 1.368 . S
H6543 C6551 0.950 . S
H6544 C6549 0.950 . S
H6545 C6550 0.949 . S
H6546 C6552 0.950 . S
H6547 C6553 0.950 . S
H6548 C6554 0.949 . S
C6549 H6544 0.950 . S
C6549 C6551 1.327 . S
C6549 C6555 1.429 . S
C6550 C6542 1.574 . S
C6550 H6545 0.949 . S
C6550 C6556 1.368 . S
C6551 C6535 1.349 . S
C6551 H6543 0.950 . S
C6551 C6549 1.327 . S
C6552 C6540 1.349 . S
C6552 H6546 0.950 . S
C6552 C6553 1.327 . S
C6553 H6547 0.950 . S
C6553 C6552 1.327 . S
C6553 C6557 1.429 . S
C6554 C6537 1.574 . S
C6554 H6548 0.949 . S
C6554 C6558 1.368 . S
C6555 C6536 1.429 . S
C6555 C6549 1.429 . S
C6555 C6556 1.523 . S
C6556 C6537 1.368 . S
C6556 C6550 1.368 . S
C6556 C6555 1.523 . S
C6557 C6541 1.429 . S
C6557 C6553 1.429 . S
C6557 C6558 1.523 . S
C6558 C6542 1.368 . S
C6558 C6554 1.368 . S
C6558 C6557 1.523 . S
H6559 C6534 0.950 . S
H6560 C6536 0.950 . S
H6561 C6537 0.949 . S
H6562 C6539 0.950 . S
H6563 C6541 0.950 . S
C6564 C6565 1.349 . S
C6564 C6566 1.327 . S
C6564 H6589 0.950 . S
C6565 C6564 1.349 . S
C6565 C6581 1.349 . S
C6566 C6564 1.327 . S
C6566 C6585 1.429 . S
C6566 H6590 0.950 . S
C6567 C6584 1.574 . S
C6567 C6586 1.368 . S
C6567 H6591 0.949 . S
H6568 C6572 0.949 . S
C6569 C6570 1.349 . S
C6569 C6571 1.327 . S
C6569 H6592 0.950 . S
C6570 C6569 1.349 . S
C6570 C6582 1.349 . S
C6571 C6569 1.327 . S
C6571 C6587 1.429 . S
C6571 H6593 0.950 . S
C6572 H6568 0.949 . S
C6572 C6580 1.574 . S
C6572 C6588 1.368 . S
H6573 C6581 0.950 . S
H6574 C6579 0.950 . S
H6575 C6580 0.949 . S
H6576 C6582 0.950 . S
H6577 C6583 0.950 . S
H6578 C6584 0.949 . S
C6579 H6574 0.950 . S
C6579 C6581 1.327 . S
C6579 C6585 1.429 . S
C6580 C6572 1.574 . S
C6580 H6575 0.949 . S
C6580 C6586 1.368 . S
C6581 C6565 1.349 . S
C6581 H6573 0.950 . S
C6581 C6579 1.327 . S
C6582 C6570 1.349 . S
C6582 H6576 0.950 . S
C6582 C6583 1.327 . S
C6583 H6577 0.950 . S
C6583 C6582 1.327 . S
C6583 C6587 1.429 . S
C6584 C6567 1.574 . S
C6584 H6578 0.949 . S
C6584 C6588 1.368 . S
C6585 C6566 1.429 . S
C6585 C6579 1.429 . S
C6585 C6586 1.523 . S
C6586 C6567 1.368 . S
C6586 C6580 1.368 . S
C6586 C6585 1.523 . S
C6587 C6571 1.429 . S
C6587 C6583 1.429 . S
C6587 C6588 1.523 . S
C6588 C6572 1.368 . S
C6588 C6584 1.368 . S
C6588 C6587 1.523 . S
H6589 C6564 0.950 . S
H6590 C6566 0.950 . S
H6591 C6567 0.949 . S
H6592 C6569 0.950 . S
H6593 C6571 0.950 . S
C6594 C6595 1.349 . S
C6594 C6596 1.327 . S
C6594 H6619 0.950 . S
C6595 C6594 1.349 . S
C6595 C6611 1.349 . S
C6596 C6594 1.327 . S
C6596 C6615 1.429 . S
C6596 H6620 0.950 . S
C6597 C6614 1.574 . S
C6597 C6616 1.368 . S
C6597 H6621 0.949 . S
H6598 C6602 0.949 . S
C6599 C6600 1.349 . S
C6599 C6601 1.327 . S
C6599 H6622 0.950 . S
C6600 C6599 1.349 . S
C6600 C6612 1.349 . S
C6601 C6599 1.327 . S
C6601 C6617 1.429 . S
C6601 H6623 0.950 . S
C6602 H6598 0.949 . S
C6602 C6610 1.574 . S
C6602 C6618 1.368 . S
H6603 C6611 0.950 . S
H6604 C6609 0.950 . S
H6605 C6610 0.949 . S
H6606 C6612 0.950 . S
H6607 C6613 0.950 . S
H6608 C6614 0.949 . S
C6609 H6604 0.950 . S
C6609 C6611 1.327 . S
C6609 C6615 1.429 . S
C6610 C6602 1.574 . S
C6610 H6605 0.949 . S
C6610 C6616 1.368 . S
C6611 C6595 1.349 . S
C6611 H6603 0.950 . S
C6611 C6609 1.327 . S
C6612 C6600 1.349 . S
C6612 H6606 0.950 . S
C6612 C6613 1.327 . S
C6613 H6607 0.950 . S
C6613 C6612 1.327 . S
C6613 C6617 1.429 . S
C6614 C6597 1.574 . S
C6614 H6608 0.949 . S
C6614 C6618 1.368 . S
C6615 C6596 1.429 . S
C6615 C6609 1.429 . S
C6615 C6616 1.523 . S
C6616 C6597 1.368 . S
C6616 C6610 1.368 . S
C6616 C6615 1.523 . S
C6617 C6601 1.429 . S
C6617 C6613 1.429 . S
C6617 C6618 1.523 . S
C6618 C6602 1.368 . S
C6618 C6614 1.368 . S
C6618 C6617 1.523 . S
H6619 C6594 0.950 . S
H6620 C6596 0.950 . S
H6621 C6597 0.949 . S
H6622 C6599 0.950 . S
H6623 C6601 0.950 . S
C6624 C6625 1.349 . S
C6624 C6626 1.327 . S
C6624 H6649 0.950 . S
C6625 C6624 1.349 . S
C6625 C6641 1.349 . S
C6626 C6624 1.327 . S
C6626 C6645 1.429 . S
C6626 H6650 0.950 . S
C6627 C6644 1.574 . S
C6627 C6646 1.368 . S
C6627 H6651 0.949 . S
H6628 C6632 0.949 . S
C6629 C6630 1.349 . S
C6629 C6631 1.327 . S
C6629 H6652 0.950 . S
C6630 C6629 1.349 . S
C6630 C6642 1.349 . S
C6631 C6629 1.327 . S
C6631 C6647 1.429 . S
C6631 H6653 0.950 . S
C6632 H6628 0.949 . S
C6632 C6640 1.574 . S
C6632 C6648 1.368 . S
H6633 C6641 0.950 . S
H6634 C6639 0.950 . S
H6635 C6640 0.949 . S
H6636 C6642 0.950 . S
H6637 C6643 0.950 . S
H6638 C6644 0.949 . S
C6639 H6634 0.950 . S
C6639 C6641 1.327 . S
C6639 C6645 1.429 . S
C6640 C6632 1.574 . S
C6640 H6635 0.949 . S
C6640 C6646 1.368 . S
C6641 C6625 1.349 . S
C6641 H6633 0.950 . S
C6641 C6639 1.327 . S
C6642 C6630 1.349 . S
C6642 H6636 0.950 . S
C6642 C6643 1.327 . S
C6643 H6637 0.950 . S
C6643 C6642 1.327 . S
C6643 C6647 1.429 . S
C6644 C6627 1.574 . S
C6644 H6638 0.949 . S
C6644 C6648 1.368 . S
C6645 C6626 1.429 . S
C6645 C6639 1.429 . S
C6645 C6646 1.523 . S
C6646 C6627 1.368 . S
C6646 C6640 1.368 . S
C6646 C6645 1.523 . S
C6647 C6631 1.429 . S
C6647 C6643 1.429 . S
C6647 C6648 1.523 . S
C6648 C6632 1.368 . S
C6648 C6644 1.368 . S
C6648 C6647 1.523 . S
H6649 C6624 0.950 . S
H6650 C6626 0.950 . S
H6651 C6627 0.949 . S
H6652 C6629 0.950 . S
H6653 C6631 0.950 . S
C6654 C6655 1.349 . S
C6654 C6656 1.327 . S
C6654 H6679 0.950 . S
C6655 C6654 1.349 . S
C6655 C6671 1.349 . S
C6656 C6654 1.327 . S
C6656 C6675 1.429 . S
C6656 H6680 0.950 . S
C6657 C6674 1.574 . S
C6657 C6676 1.368 . S
C6657 H6681 0.949 . S
H6658 C6662 0.949 . S
C6659 C6660 1.349 . S
C6659 C6661 1.327 . S
C6659 H6682 0.950 . S
C6660 C6659 1.349 . S
C6660 C6672 1.349 . S
C6661 C6659 1.327 . S
C6661 C6677 1.429 . S
C6661 H6683 0.950 . S
C6662 H6658 0.949 . S
C6662 C6670 1.574 . S
C6662 C6678 1.368 . S
H6663 C6671 0.950 . S
H6664 C6669 0.950 . S
H6665 C6670 0.949 . S
H6666 C6672 0.950 . S
H6667 C6673 0.950 . S
H6668 C6674 0.949 . S
C6669 H6664 0.950 . S
C6669 C6671 1.327 . S
C6669 C6675 1.429 . S
C6670 C6662 1.574 . S
C6670 H6665 0.949 . S
C6670 C6676 1.368 . S
C6671 C6655 1.349 . S
C6671 H6663 0.950 . S
C6671 C6669 1.327 . S
C6672 C6660 1.349 . S
C6672 H6666 0.950 . S
C6672 C6673 1.327 . S
C6673 H6667 0.950 . S
C6673 C6672 1.327 . S
C6673 C6677 1.429 . S
C6674 C6657 1.574 . S
C6674 H6668 0.949 . S
C6674 C6678 1.368 . S
C6675 C6656 1.429 . S
C6675 C6669 1.429 . S
C6675 C6676 1.523 . S
C6676 C6657 1.368 . S
C6676 C6670 1.368 . S
C6676 C6675 1.523 . S
C6677 C6661 1.429 . S
C6677 C6673 1.429 . S
C6677 C6678 1.523 . S
C6678 C6662 1.368 . S
C6678 C6674 1.368 . S
C6678 C6677 1.523 . S
H6679 C6654 0.950 . S
H6680 C6656 0.950 . S
H6681 C6657 0.949 . S
H6682 C6659 0.950 . S
H6683 C6661 0.950 . S
C6684 C6685 1.349 . S
C6684 C6686 1.327 . S
C6684 H6709 0.950 . S
C6685 C6684 1.349 . S
C6685 C6701 1.349 . S
C6686 C6684 1.327 . S
C6686 C6705 1.429 . S
C6686 H6710 0.950 . S
C6687 C6704 1.574 . S
C6687 C6706 1.368 . S
C6687 H6711 0.949 . S
H6688 C6692 0.949 . S
C6689 C6690 1.349 . S
C6689 C6691 1.327 . S
C6689 H6712 0.950 . S
C6690 C6689 1.349 . S
C6690 C6702 1.349 . S
C6691 C6689 1.327 . S
C6691 C6707 1.429 . S
C6691 H6713 0.950 . S
C6692 H6688 0.949 . S
C6692 C6700 1.574 . S
C6692 C6708 1.368 . S
H6693 C6701 0.950 . S
H6694 C6699 0.950 . S
H6695 C6700 0.949 . S
H6696 C6702 0.950 . S
H6697 C6703 0.950 . S
H6698 C6704 0.949 . S
C6699 H6694 0.950 . S
C6699 C6701 1.327 . S
C6699 C6705 1.429 . S
C6700 C6692 1.574 . S
C6700 H6695 0.949 . S
C6700 C6706 1.368 . S
C6701 C6685 1.349 . S
C6701 H6693 0.950 . S
C6701 C6699 1.327 . S
C6702 C6690 1.349 . S
C6702 H6696 0.950 . S
C6702 C6703 1.327 . S
C6703 H6697 0.950 . S
C6703 C6702 1.327 . S
C6703 C6707 1.429 . S
C6704 C6687 1.574 . S
C6704 H6698 0.949 . S
C6704 C6708 1.368 . S
C6705 C6686 1.429 . S
C6705 C6699 1.429 . S
C6705 C6706 1.523 . S
C6706 C6687 1.368 . S
C6706 C6700 1.368 . S
C6706 C6705 1.523 . S
C6707 C6691 1.429 . S
C6707 C6703 1.429 . S
C6707 C6708 1.523 . S
C6708 C6692 1.368 . S
C6708 C6704 1.368 . S
C6708 C6707 1.523 . S
H6709 C6684 0.950 . S
H6710 C6686 0.950 . S
H6711 C6687 0.949 . S
H6712 C6689 0.950 . S
H6713 C6691 0.950 . S
C6714 C6715 1.349 . S
C6714 C6716 1.327 . S
C6714 H6739 0.950 . S
C6715 C6714 1.349 . S
C6715 C6731 1.349 . S
C6716 C6714 1.327 . S
C6716 C6735 1.429 . S
C6716 H6740 0.950 . S
C6717 C6734 1.574 . S
C6717 C6736 1.368 . S
C6717 H6741 0.949 . S
H6718 C6722 0.949 . S
C6719 C6720 1.349 . S
C6719 C6721 1.327 . S
C6719 H6742 0.950 . S
C6720 C6719 1.349 . S
C6720 C6732 1.349 . S
C6721 C6719 1.327 . S
C6721 C6737 1.429 . S
C6721 H6743 0.950 . S
C6722 H6718 0.949 . S
C6722 C6730 1.574 . S
C6722 C6738 1.368 . S
H6723 C6731 0.950 . S
H6724 C6729 0.950 . S
H6725 C6730 0.949 . S
H6726 C6732 0.950 . S
H6727 C6733 0.950 . S
H6728 C6734 0.949 . S
C6729 H6724 0.950 . S
C6729 C6731 1.327 . S
C6729 C6735 1.429 . S
C6730 C6722 1.574 . S
C6730 H6725 0.949 . S
C6730 C6736 1.368 . S
C6731 C6715 1.349 . S
C6731 H6723 0.950 . S
C6731 C6729 1.327 . S
C6732 C6720 1.349 . S
C6732 H6726 0.950 . S
C6732 C6733 1.327 . S
C6733 H6727 0.950 . S
C6733 C6732 1.327 . S
C6733 C6737 1.429 . S
C6734 C6717 1.574 . S
C6734 H6728 0.949 . S
C6734 C6738 1.368 . S
C6735 C6716 1.429 . S
C6735 C6729 1.429 . S
C6735 C6736 1.523 . S
C6736 C6717 1.368 . S
C6736 C6730 1.368 . S
C6736 C6735 1.523 . S
C6737 C6721 1.429 . S
C6737 C6733 1.429 . S
C6737 C6738 1.523 . S
C6738 C6722 1.368 . S
C6738 C6734 1.368 . S
C6738 C6737 1.523 . S
H6739 C6714 0.950 . S
H6740 C6716 0.950 . S
H6741 C6717 0.949 . S
H6742 C6719 0.950 . S
H6743 C6721 0.950 . S
C6744 C6745 1.349 . S
C6744 C6746 1.327 . S
C6744 H6769 0.950 . S
C6745 C6744 1.349 . S
C6745 C6761 1.349 . S
C6746 C6744 1.327 . S
C6746 C6765 1.429 . S
C6746 H6770 0.950 . S
C6747 C6764 1.574 . S
C6747 C6766 1.368 . S
C6747 H6771 0.949 . S
H6748 C6752 0.949 . S
C6749 C6750 1.349 . S
C6749 C6751 1.327 . S
C6749 H6772 0.950 . S
C6750 C6749 1.349 . S
C6750 C6762 1.349 . S
C6751 C6749 1.327 . S
C6751 C6767 1.429 . S
C6751 H6773 0.950 . S
C6752 H6748 0.949 . S
C6752 C6760 1.574 . S
C6752 C6768 1.368 . S
H6753 C6761 0.950 . S
H6754 C6759 0.950 . S
H6755 C6760 0.949 . S
H6756 C6762 0.950 . S
H6757 C6763 0.950 . S
H6758 C6764 0.949 . S
C6759 H6754 0.950 . S
C6759 C6761 1.327 . S
C6759 C6765 1.429 . S
C6760 C6752 1.574 . S
C6760 H6755 0.949 . S
C6760 C6766 1.368 . S
C6761 C6745 1.349 . S
C6761 H6753 0.950 . S
C6761 C6759 1.327 . S
C6762 C6750 1.349 . S
C6762 H6756 0.950 . S
C6762 C6763 1.327 . S
C6763 H6757 0.950 . S
C6763 C6762 1.327 . S
C6763 C6767 1.429 . S
C6764 C6747 1.574 . S
C6764 H6758 0.949 . S
C6764 C6768 1.368 . S
C6765 C6746 1.429 . S
C6765 C6759 1.429 . S
C6765 C6766 1.523 . S
C6766 C6747 1.368 . S
C6766 C6760 1.368 . S
C6766 C6765 1.523 . S
C6767 C6751 1.429 . S
C6767 C6763 1.429 . S
C6767 C6768 1.523 . S
C6768 C6752 1.368 . S
C6768 C6764 1.368 . S
C6768 C6767 1.523 . S
H6769 C6744 0.950 . S
H6770 C6746 0.950 . S
H6771 C6747 0.949 . S
H6772 C6749 0.950 . S
H6773 C6751 0.950 . S
C6774 C6775 1.349 . S
C6774 C6776 1.327 . S
C6774 H6799 0.950 . S
C6775 C6774 1.349 . S
C6775 C6791 1.349 . S
C6776 C6774 1.327 . S
C6776 C6795 1.429 . S
C6776 H6800 0.950 . S
C6777 C6794 1.574 . S
C6777 C6796 1.368 . S
C6777 H6801 0.949 . S
H6778 C6782 0.949 . S
C6779 C6780 1.349 . S
C6779 C6781 1.327 . S
C6779 H6802 0.950 . S
C6780 C6779 1.349 . S
C6780 C6792 1.349 . S
C6781 C6779 1.327 . S
C6781 C6797 1.429 . S
C6781 H6803 0.950 . S
C6782 H6778 0.949 . S
C6782 C6790 1.574 . S
C6782 C6798 1.368 . S
H6783 C6791 0.950 . S
H6784 C6789 0.950 . S
H6785 C6790 0.949 . S
H6786 C6792 0.950 . S
H6787 C6793 0.950 . S
H6788 C6794 0.949 . S
C6789 H6784 0.950 . S
C6789 C6791 1.327 . S
C6789 C6795 1.429 . S
C6790 C6782 1.574 . S
C6790 H6785 0.949 . S
C6790 C6796 1.368 . S
C6791 C6775 1.349 . S
C6791 H6783 0.950 . S
C6791 C6789 1.327 . S
C6792 C6780 1.349 . S
C6792 H6786 0.950 . S
C6792 C6793 1.327 . S
C6793 H6787 0.950 . S
C6793 C6792 1.327 . S
C6793 C6797 1.429 . S
C6794 C6777 1.574 . S
C6794 H6788 0.949 . S
C6794 C6798 1.368 . S
C6795 C6776 1.429 . S
C6795 C6789 1.429 . S
C6795 C6796 1.523 . S
C6796 C6777 1.368 . S
C6796 C6790 1.368 . S
C6796 C6795 1.523 . S
C6797 C6781 1.429 . S
C6797 C6793 1.429 . S
C6797 C6798 1.523 . S
C6798 C6782 1.368 . S
C6798 C6794 1.368 . S
C6798 C6797 1.523 . S
H6799 C6774 0.950 . S
H6800 C6776 0.950 . S
H6801 C6777 0.949 . S
H6802 C6779 0.950 . S
H6803 C6781 0.950 . S
C6804 C6805 1.349 . S
C6804 C6806 1.327 . S
C6804 H6829 0.950 . S
C6805 C6804 1.349 . S
C6805 C6821 1.349 . S
C6806 C6804 1.327 . S
C6806 C6825 1.429 . S
C6806 H6830 0.950 . S
C6807 C6824 1.574 . S
C6807 C6826 1.368 . S
C6807 H6831 0.949 . S
H6808 C6812 0.949 . S
C6809 C6810 1.349 . S
C6809 C6811 1.327 . S
C6809 H6832 0.950 . S
C6810 C6809 1.349 . S
C6810 C6822 1.349 . S
C6811 C6809 1.327 . S
C6811 C6827 1.429 . S
C6811 H6833 0.950 . S
C6812 H6808 0.949 . S
C6812 C6820 1.574 . S
C6812 C6828 1.368 . S
H6813 C6821 0.950 . S
H6814 C6819 0.950 . S
H6815 C6820 0.949 . S
H6816 C6822 0.950 . S
H6817 C6823 0.950 . S
H6818 C6824 0.949 . S
C6819 H6814 0.950 . S
C6819 C6821 1.327 . S
C6819 C6825 1.429 . S
C6820 C6812 1.574 . S
C6820 H6815 0.949 . S
C6820 C6826 1.368 . S
C6821 C6805 1.349 . S
C6821 H6813 0.950 . S
C6821 C6819 1.327 . S
C6822 C6810 1.349 . S
C6822 H6816 0.950 . S
C6822 C6823 1.327 . S
C6823 H6817 0.950 . S
C6823 C6822 1.327 . S
C6823 C6827 1.429 . S
C6824 C6807 1.574 . S
C6824 H6818 0.949 . S
C6824 C6828 1.368 . S
C6825 C6806 1.429 . S
C6825 C6819 1.429 . S
C6825 C6826 1.523 . S
C6826 C6807 1.368 . S
C6826 C6820 1.368 . S
C6826 C6825 1.523 . S
C6827 C6811 1.429 . S
C6827 C6823 1.429 . S
C6827 C6828 1.523 . S
C6828 C6812 1.368 . S
C6828 C6824 1.368 . S
C6828 C6827 1.523 . S
H6829 C6804 0.950 . S
H6830 C6806 0.950 . S
H6831 C6807 0.949 . S
H6832 C6809 0.950 . S
H6833 C6811 0.950 . S
C6834 C6835 1.349 . S
C6834 C6836 1.327 . S
C6834 H6859 0.950 . S
C6835 C6834 1.349 . S
C6835 C6851 1.349 . S
C6836 C6834 1.327 . S
C6836 C6855 1.429 . S
C6836 H6860 0.950 . S
C6837 C6854 1.574 . S
C6837 C6856 1.368 . S
C6837 H6861 0.949 . S
H6838 C6842 0.949 . S
C6839 C6840 1.349 . S
C6839 C6841 1.327 . S
C6839 H6862 0.950 . S
C6840 C6839 1.349 . S
C6840 C6852 1.349 . S
C6841 C6839 1.327 . S
C6841 C6857 1.429 . S
C6841 H6863 0.950 . S
C6842 H6838 0.949 . S
C6842 C6850 1.574 . S
C6842 C6858 1.368 . S
H6843 C6851 0.950 . S
H6844 C6849 0.950 . S
H6845 C6850 0.949 . S
H6846 C6852 0.950 . S
H6847 C6853 0.950 . S
H6848 C6854 0.949 . S
C6849 H6844 0.950 . S
C6849 C6851 1.327 . S
C6849 C6855 1.429 . S
C6850 C6842 1.574 . S
C6850 H6845 0.949 . S
C6850 C6856 1.368 . S
C6851 C6835 1.349 . S
C6851 H6843 0.950 . S
C6851 C6849 1.327 . S
C6852 C6840 1.349 . S
C6852 H6846 0.950 . S
C6852 C6853 1.327 . S
C6853 H6847 0.950 . S
C6853 C6852 1.327 . S
C6853 C6857 1.429 . S
C6854 C6837 1.574 . S
C6854 H6848 0.949 . S
C6854 C6858 1.368 . S
C6855 C6836 1.429 . S
C6855 C6849 1.429 . S
C6855 C6856 1.523 . S
C6856 C6837 1.368 . S
C6856 C6850 1.368 . S
C6856 C6855 1.523 . S
C6857 C6841 1.429 . S
C6857 C6853 1.429 . S
C6857 C6858 1.523 . S
C6858 C6842 1.368 . S
C6858 C6854 1.368 . S
C6858 C6857 1.523 . S
H6859 C6834 0.950 . S
H6860 C6836 0.950 . S
H6861 C6837 0.949 . S
H6862 C6839 0.950 . S
H6863 C6841 0.950 . S
C6864 C6865 1.349 . S
C6864 C6866 1.327 . S
C6864 H6889 0.950 . S
C6865 C6864 1.349 . S
C6865 C6881 1.349 . S
C6866 C6864 1.327 . S
C6866 C6885 1.429 . S
C6866 H6890 0.950 . S
C6867 C6884 1.574 . S
C6867 C6886 1.368 . S
C6867 H6891 0.949 . S
H6868 C6872 0.949 . S
C6869 C6870 1.349 . S
C6869 C6871 1.327 . S
C6869 H6892 0.950 . S
C6870 C6869 1.349 . S
C6870 C6882 1.349 . S
C6871 C6869 1.327 . S
C6871 C6887 1.429 . S
C6871 H6893 0.950 . S
C6872 H6868 0.949 . S
C6872 C6880 1.574 . S
C6872 C6888 1.368 . S
H6873 C6881 0.950 . S
H6874 C6879 0.950 . S
H6875 C6880 0.949 . S
H6876 C6882 0.950 . S
H6877 C6883 0.950 . S
H6878 C6884 0.949 . S
C6879 H6874 0.950 . S
C6879 C6881 1.327 . S
C6879 C6885 1.429 . S
C6880 C6872 1.574 . S
C6880 H6875 0.949 . S
C6880 C6886 1.368 . S
C6881 C6865 1.349 . S
C6881 H6873 0.950 . S
C6881 C6879 1.327 . S
C6882 C6870 1.349 . S
C6882 H6876 0.950 . S
C6882 C6883 1.327 . S
C6883 H6877 0.950 . S
C6883 C6882 1.327 . S
C6883 C6887 1.429 . S
C6884 C6867 1.574 . S
C6884 H6878 0.949 . S
C6884 C6888 1.368 . S
C6885 C6866 1.429 . S
C6885 C6879 1.429 . S
C6885 C6886 1.523 . S
C6886 C6867 1.368 . S
C6886 C6880 1.368 . S
C6886 C6885 1.523 . S
C6887 C6871 1.429 . S
C6887 C6883 1.429 . S
C6887 C6888 1.523 . S
C6888 C6872 1.368 . S
C6888 C6884 1.368 . S
C6888 C6887 1.523 . S
H6889 C6864 0.950 . S
H6890 C6866 0.950 . S
H6891 C6867 0.949 . S
H6892 C6869 0.950 . S
H6893 C6871 0.950 . S
C6894 C6895 1.349 . S
C6894 C6896 1.327 . S
C6894 H6919 0.950 . S
C6895 C6894 1.349 . S
C6895 C6911 1.349 . S
C6896 C6894 1.327 . S
C6896 C6915 1.429 . S
C6896 H6920 0.950 . S
C6897 C6914 1.574 . S
C6897 C6916 1.368 . S
C6897 H6921 0.949 . S
H6898 C6902 0.949 . S
C6899 C6900 1.349 . S
C6899 C6901 1.327 . S
C6899 H6922 0.950 . S
C6900 C6899 1.349 . S
C6900 C6912 1.349 . S
C6901 C6899 1.327 . S
C6901 C6917 1.429 . S
C6901 H6923 0.950 . S
C6902 H6898 0.949 . S
C6902 C6910 1.574 . S
C6902 C6918 1.368 . S
H6903 C6911 0.950 . S
H6904 C6909 0.950 . S
H6905 C6910 0.949 . S
H6906 C6912 0.950 . S
H6907 C6913 0.950 . S
H6908 C6914 0.949 . S
C6909 H6904 0.950 . S
C6909 C6911 1.327 . S
C6909 C6915 1.429 . S
C6910 C6902 1.574 . S
C6910 H6905 0.949 . S
C6910 C6916 1.368 . S
C6911 C6895 1.349 . S
C6911 H6903 0.950 . S
C6911 C6909 1.327 . S
C6912 C6900 1.349 . S
C6912 H6906 0.950 . S
C6912 C6913 1.327 . S
C6913 H6907 0.950 . S
C6913 C6912 1.327 . S
C6913 C6917 1.429 . S
C6914 C6897 1.574 . S
C6914 H6908 0.949 . S
C6914 C6918 1.368 . S
C6915 C6896 1.429 . S
C6915 C6909 1.429 . S
C6915 C6916 1.523 . S
C6916 C6897 1.368 . S
C6916 C6910 1.368 . S
C6916 C6915 1.523 . S
C6917 C6901 1.429 . S
C6917 C6913 1.429 . S
C6917 C6918 1.523 . S
C6918 C6902 1.368 . S
C6918 C6914 1.368 . S
C6918 C6917 1.523 . S
H6919 C6894 0.950 . S
H6920 C6896 0.950 . S
H6921 C6897 0.949 . S
H6922 C6899 0.950 . S
H6923 C6901 0.950 . S
C6924 C6925 1.349 . S
C6924 C6926 1.327 . S
C6924 H6949 0.950 . S
C6925 C6924 1.349 . S
C6925 C6941 1.349 . S
C6926 C6924 1.327 . S
C6926 C6945 1.429 . S
C6926 H6950 0.950 . S
C6927 C6944 1.574 . S
C6927 C6946 1.368 . S
C6927 H6951 0.949 . S
H6928 C6932 0.949 . S
C6929 C6930 1.349 . S
C6929 C6931 1.327 . S
C6929 H6952 0.950 . S
C6930 C6929 1.349 . S
C6930 C6942 1.349 . S
C6931 C6929 1.327 . S
C6931 C6947 1.429 . S
C6931 H6953 0.950 . S
C6932 H6928 0.949 . S
C6932 C6940 1.574 . S
C6932 C6948 1.368 . S
H6933 C6941 0.950 . S
H6934 C6939 0.950 . S
H6935 C6940 0.949 . S
H6936 C6942 0.950 . S
H6937 C6943 0.950 . S
H6938 C6944 0.949 . S
C6939 H6934 0.950 . S
C6939 C6941 1.327 . S
C6939 C6945 1.429 . S
C6940 C6932 1.574 . S
C6940 H6935 0.949 . S
C6940 C6946 1.368 . S
C6941 C6925 1.349 . S
C6941 H6933 0.950 . S
C6941 C6939 1.327 . S
C6942 C6930 1.349 . S
C6942 H6936 0.950 . S
C6942 C6943 1.327 . S
C6943 H6937 0.950 . S
C6943 C6942 1.327 . S
C6943 C6947 1.429 . S
C6944 C6927 1.574 . S
C6944 H6938 0.949 . S
C6944 C6948 1.368 . S
C6945 C6926 1.429 . S
C6945 C6939 1.429 . S
C6945 C6946 1.523 . S
C6946 C6927 1.368 . S
C6946 C6940 1.368 . S
C6946 C6945 1.523 . S
C6947 C6931 1.429 . S
C6947 C6943 1.429 . S
C6947 C6948 1.523 . S
C6948 C6932 1.368 . S
C6948 C6944 1.368 . S
C6948 C6947 1.523 . S
H6949 C6924 0.950 . S
H6950 C6926 0.950 . S
H6951 C6927 0.949 . S
H6952 C6929 0.950 . S
H6953 C6931 0.950 . S
C6954 C6955 1.349 . S
C6954 C6956 1.327 . S
C6954 H6979 0.950 . S
C6955 C6954 1.349 . S
C6955 C6971 1.349 . S
C6956 C6954 1.327 . S
C6956 C6975 1.429 . S
C6956 H6980 0.950 . S
C6957 C6974 1.574 . S
C6957 C6976 1.368 . S
C6957 H6981 0.949 . S
H6958 C6962 0.949 . S
C6959 C6960 1.349 . S
C6959 C6961 1.327 . S
C6959 H6982 0.950 . S
C6960 C6959 1.349 . S
C6960 C6972 1.349 . S
C6961 C6959 1.327 . S
C6961 C6977 1.429 . S
C6961 H6983 0.950 . S
C6962 H6958 0.949 . S
C6962 C6970 1.574 . S
C6962 C6978 1.368 . S
H6963 C6971 0.950 . S
H6964 C6969 0.950 . S
H6965 C6970 0.949 . S
H6966 C6972 0.950 . S
H6967 C6973 0.950 . S
H6968 C6974 0.949 . S
C6969 H6964 0.950 . S
C6969 C6971 1.327 . S
C6969 C6975 1.429 . S
C6970 C6962 1.574 . S
C6970 H6965 0.949 . S
C6970 C6976 1.368 . S
C6971 C6955 1.349 . S
C6971 H6963 0.950 . S
C6971 C6969 1.327 . S
C6972 C6960 1.349 . S
C6972 H6966 0.950 . S
C6972 C6973 1.327 . S
C6973 H6967 0.950 . S
C6973 C6972 1.327 . S
C6973 C6977 1.429 . S
C6974 C6957 1.574 . S
C6974 H6968 0.949 . S
C6974 C6978 1.368 . S
C6975 C6956 1.429 . S
C6975 C6969 1.429 . S
C6975 C6976 1.523 . S
C6976 C6957 1.368 . S
C6976 C6970 1.368 . S
C6976 C6975 1.523 . S
C6977 C6961 1.429 . S
C6977 C6973 1.429 . S
C6977 C6978 1.523 . S
C6978 C6962 1.368 . S
C6978 C6974 1.368 . S
C6978 C6977 1.523 . S
H6979 C6954 0.950 . S
H6980 C6956 0.950 . S
H6981 C6957 0.949 . S
H6982 C6959 0.950 . S
H6983 C6961 0.950 . S
C6984 C6985 1.349 . S
C6984 C6986 1.327 . S
C6984 H7009 0.950 . S
C6985 C6984 1.349 . S
C6985 C7001 1.349 . S
C6986 C6984 1.327 . S
C6986 C7005 1.429 . S
C6986 H7010 0.950 . S
C6987 C7004 1.574 . S
C6987 C7006 1.368 . S
C6987 H7011 0.949 . S
H6988 C6992 0.949 . S
C6989 C6990 1.349 . S
C6989 C6991 1.327 . S
C6989 H7012 0.950 . S
C6990 C6989 1.349 . S
C6990 C7002 1.349 . S
C6991 C6989 1.327 . S
C6991 C7007 1.429 . S
C6991 H7013 0.950 . S
C6992 H6988 0.949 . S
C6992 C7000 1.574 . S
C6992 C7008 1.368 . S
H6993 C7001 0.950 . S
H6994 C6999 0.950 . S
H6995 C7000 0.949 . S
H6996 C7002 0.950 . S
H6997 C7003 0.950 . S
H6998 C7004 0.949 . S
C6999 H6994 0.950 . S
C6999 C7001 1.327 . S
C6999 C7005 1.429 . S
C7000 C6992 1.574 . S
C7000 H6995 0.949 . S
C7000 C7006 1.368 . S
C7001 C6985 1.349 . S
C7001 H6993 0.950 . S
C7001 C6999 1.327 . S
C7002 C6990 1.349 . S
C7002 H6996 0.950 . S
C7002 C7003 1.327 . S
C7003 H6997 0.950 . S
C7003 C7002 1.327 . S
C7003 C7007 1.429 . S
C7004 C6987 1.574 . S
C7004 H6998 0.949 . S
C7004 C7008 1.368 . S
C7005 C6986 1.429 . S
C7005 C6999 1.429 . S
C7005 C7006 1.523 . S
C7006 C6987 1.368 . S
C7006 C7000 1.368 . S
C7006 C7005 1.523 . S
C7007 C6991 1.429 . S
C7007 C7003 1.429 . S
C7007 C7008 1.523 . S
C7008 C6992 1.368 . S
C7008 C7004 1.368 . S
C7008 C7007 1.523 . S
H7009 C6984 0.950 . S
H7010 C6986 0.950 . S
H7011 C6987 0.949 . S
H7012 C6989 0.950 . S
H7013 C6991 0.950 . S
C7014 C7015 1.349 . S
C7014 C7016 1.327 . S
C7014 H7039 0.950 . S
C7015 C7014 1.349 . S
C7015 C7031 1.349 . S
C7016 C7014 1.327 . S
C7016 C7035 1.429 . S
C7016 H7040 0.950 . S
C7017 C7034 1.574 . S
C7017 C7036 1.368 . S
C7017 H7041 0.949 . S
H7018 C7022 0.949 . S
C7019 C7020 1.349 . S
C7019 C7021 1.327 . S
C7019 H7042 0.950 . S
C7020 C7019 1.349 . S
C7020 C7032 1.349 . S
C7021 C7019 1.327 . S
C7021 C7037 1.429 . S
C7021 H7043 0.950 . S
C7022 H7018 0.949 . S
C7022 C7030 1.574 . S
C7022 C7038 1.368 . S
H7023 C7031 0.950 . S
H7024 C7029 0.950 . S
H7025 C7030 0.949 . S
H7026 C7032 0.950 . S
H7027 C7033 0.950 . S
H7028 C7034 0.949 . S
C7029 H7024 0.950 . S
C7029 C7031 1.327 . S
C7029 C7035 1.429 . S
C7030 C7022 1.574 . S
C7030 H7025 0.949 . S
C7030 C7036 1.368 . S
C7031 C7015 1.349 . S
C7031 H7023 0.950 . S
C7031 C7029 1.327 . S
C7032 C7020 1.349 . S
C7032 H7026 0.950 . S
C7032 C7033 1.327 . S
C7033 H7027 0.950 . S
C7033 C7032 1.327 . S
C7033 C7037 1.429 . S
C7034 C7017 1.574 . S
C7034 H7028 0.949 . S
C7034 C7038 1.368 . S
C7035 C7016 1.429 . S
C7035 C7029 1.429 . S
C7035 C7036 1.523 . S
C7036 C7017 1.368 . S
C7036 C7030 1.368 . S
C7036 C7035 1.523 . S
C7037 C7021 1.429 . S
C7037 C7033 1.429 . S
C7037 C7038 1.523 . S
C7038 C7022 1.368 . S
C7038 C7034 1.368 . S
C7038 C7037 1.523 . S
H7039 C7014 0.950 . S
H7040 C7016 0.950 . S
H7041 C7017 0.949 . S
H7042 C7019 0.950 . S
H7043 C7021 0.950 . S
C7044 C7045 1.349 . S
C7044 C7046 1.327 . S
C7044 H7069 0.950 . S
C7045 C7044 1.349 . S
C7045 C7061 1.349 . S
C7046 C7044 1.327 . S
C7046 C7065 1.429 . S
C7046 H7070 0.950 . S
C7047 C7064 1.574 . S
C7047 C7066 1.368 . S
C7047 H7071 0.949 . S
H7048 C7052 0.949 . S
C7049 C7050 1.349 . S
C7049 C7051 1.327 . S
C7049 H7072 0.950 . S
C7050 C7049 1.349 . S
C7050 C7062 1.349 . S
C7051 C7049 1.327 . S
C7051 C7067 1.429 . S
C7051 H7073 0.950 . S
C7052 H7048 0.949 . S
C7052 C7060 1.574 . S
C7052 C7068 1.368 . S
H7053 C7061 0.950 . S
H7054 C7059 0.950 . S
H7055 C7060 0.949 . S
H7056 C7062 0.950 . S
H7057 C7063 0.950 . S
H7058 C7064 0.949 . S
C7059 H7054 0.950 . S
C7059 C7061 1.327 . S
C7059 C7065 1.429 . S
C7060 C7052 1.574 . S
C7060 H7055 0.949 . S
C7060 C7066 1.368 . S
C7061 C7045 1.349 . S
C7061 H7053 0.950 . S
C7061 C7059 1.327 . S
C7062 C7050 1.349 . S
C7062 H7056 0.950 . S
C7062 C7063 1.327 . S
C7063 H7057 0.950 . S
C7063 C7062 1.327 . S
C7063 C7067 1.429 . S
C7064 C7047 1.574 . S
C7064 H7058 0.949 . S
C7064 C7068 1.368 . S
C7065 C7046 1.429 . S
C7065 C7059 1.429 . S
C7065 C7066 1.523 . S
C7066 C7047 1.368 . S
C7066 C7060 1.368 . S
C7066 C7065 1.523 . S
C7067 C7051 1.429 . S
C7067 C7063 1.429 . S
C7067 C7068 1.523 . S
C7068 C7052 1.368 . S
C7068 C7064 1.368 . S
C7068 C7067 1.523 . S
H7069 C7044 0.950 . S
H7070 C7046 0.950 . S
H7071 C7047 0.949 . S
H7072 C7049 0.950 . S
H7073 C7051 0.950 . S
C7074 C7075 1.349 . S
C7074 C7076 1.327 . S
C7074 H7099 0.950 . S
C7075 C7074 1.349 . S
C7075 C7091 1.349 . S
C7076 C7074 1.327 . S
C7076 C7095 1.429 . S
C7076 H7100 0.950 . S
C7077 C7094 1.574 . S
C7077 C7096 1.368 . S
C7077 H7101 0.949 . S
H7078 C7082 0.949 . S
C7079 C7080 1.349 . S
C7079 C7081 1.327 . S
C7079 H7102 0.950 . S
C7080 C7079 1.349 . S
C7080 C7092 1.349 . S
C7081 C7079 1.327 . S
C7081 C7097 1.429 . S
C7081 H7103 0.950 . S
C7082 H7078 0.949 . S
C7082 C7090 1.574 . S
C7082 C7098 1.368 . S
H7083 C7091 0.950 . S
H7084 C7089 0.950 . S
H7085 C7090 0.949 . S
H7086 C7092 0.950 . S
H7087 C7093 0.950 . S
H7088 C7094 0.949 . S
C7089 H7084 0.950 . S
C7089 C7091 1.327 . S
C7089 C7095 1.429 . S
C7090 C7082 1.574 . S
C7090 H7085 0.949 . S
C7090 C7096 1.368 . S
C7091 C7075 1.349 . S
C7091 H7083 0.950 . S
C7091 C7089 1.327 . S
C7092 C7080 1.349 . S
C7092 H7086 0.950 . S
C7092 C7093 1.327 . S
C7093 H7087 0.950 . S
C7093 C7092 1.327 . S
C7093 C7097 1.429 . S
C7094 C7077 1.574 . S
C7094 H7088 0.949 . S
C7094 C7098 1.368 . S
C7095 C7076 1.429 . S
C7095 C7089 1.429 . S
C7095 C7096 1.523 . S
C7096 C7077 1.368 . S
C7096 C7090 1.368 . S
C7096 C7095 1.523 . S
C7097 C7081 1.429 . S
C7097 C7093 1.429 . S
C7097 C7098 1.523 . S
C7098 C7082 1.368 . S
C7098 C7094 1.368 . S
C7098 C7097 1.523 . S
H7099 C7074 0.950 . S
H7100 C7076 0.950 . S
H7101 C7077 0.949 . S
H7102 C7079 0.950 . S
H7103 C7081 0.950 . S
C1345 C9 1.219 . S
C1350 C1057 1.209 . S
C1375 C343 1.178 . S
C1380 C23 1.188 . S
C1405 C1029 1.209 . S
C1410 C37 1.220 . S
C1435 C371 1.178 . S
C1440 C51 1.188 . S
C1465 C65 1.220 . S
C1470 C1085 1.209 . S
C1495 C79 1.188 . S
C1500 C427 1.178 . S
C1525 C1113 1.209 . S
C1530 C93 1.220 . S
C1555 C107 1.188 . S
C1560 C399 1.178 . S
C1585 C119 1.190 . S
C1590 C1267 1.180 . S
C1615 C609 1.215 . S
C1620 C135 1.226 . S
C1645 C147 1.190 . S
C1650 C623 1.180 . S
C1675 C163 1.227 . S
C1680 C581 1.216 . S
C1705 C175 1.190 . S
C1710 C1323 1.180 . S
C1735 C191 1.226 . S
C1740 C1239 1.215 . S
C1765 C203 1.190 . S
C1770 C1337 1.180 . S
C1795 C219 1.226 . S
C1800 C1309 1.215 . S
C1825 C1141 1.178 . S
C1830 C233 1.187 . S
C1855 C247 1.191 . S
C1860 C553 1.181 . S
C1885 C259 1.186 . S
C1890 C1183 1.175 . S
C1915 C525 1.181 . S
C1920 C275 1.191 . S
C1945 C287 1.219 . S
C1950 C539 1.219 . S
C1975 C1169 1.177 . S
C1980 C303 1.187 . S
C2005 C315 1.187 . S
C2010 C1127 1.176 . S
C2035 C1155 1.176 . S
C2040 C329 1.186 . S
C2065 C721 1.122 . S
C2070 C345 1.135 . S
C2095 C7 1.153 . S
C2100 C359 1.165 . S
C2125 C373 1.134 . S
C2130 C693 1.121 . S
C2155 C387 1.165 . S
C2160 C35 1.153 . S
C2185 C401 1.135 . S
C2190 C749 1.122 . S
C2215 C91 1.153 . S
C2220 C415 1.165 . S
C2245 C429 1.134 . S
C2250 C777 1.121 . S
C2275 C443 1.165 . S
C2280 C63 1.153 . S
C2305 C457 1.148 . S
C2310 C933 1.102 . S
C2335 C273 1.112 . S
C2340 C471 1.126 . S
C2365 C485 1.146 . S
C2370 C289 1.101 . S
C2395 C245 1.112 . S
C2400 C499 1.126 . S
C2425 C513 1.146 . S
C2430 C989 1.101 . S
C2455 C527 1.126 . S
C2460 C903 1.112 . S
C2485 C541 1.148 . S
C2490 C1003 1.102 . S
C2515 C973 1.112 . S
C2520 C555 1.126 . S
C2545 C805 1.153 . S
C2550 C569 1.164 . S
C2575 C217 1.151 . S
C2580 C583 1.162 . S
C2605 C849 1.144 . S
C2610 C597 1.187 . S
C2635 C611 1.162 . S
C2640 C189 1.151 . S
C2665 C625 1.183 . S
C2670 C205 1.141 . S
C2695 C639 1.164 . S
C2700 C833 1.153 . S
C2725 C793 1.145 . S
C2730 C653 1.187 . S
C2755 C667 1.187 . S
C2760 C821 1.145 . S
C2785 C385 1.214 . S
C2790 C681 1.226 . S
C2815 C1015 1.175 . S
C2820 C695 1.185 . S
C2845 C709 1.226 . S
C2850 C357 1.214 . S
C2875 C1043 1.175 . S
C2880 C723 1.185 . S
C2905 C737 1.225 . S
C2910 C413 1.214 . S
C2935 C1099 1.176 . S
C2940 C751 1.185 . S
C2965 C765 1.226 . S
C2970 C441 1.214 . S
C2995 C1071 1.175 . S
C3000 C779 1.185 . S
C3025 C595 1.178 . S
C3030 C791 1.189 . S
C3055 C807 1.232 . S
C3060 C1281 1.221 . S
C3085 C1295 1.179 . S
C3090 C819 1.189 . S
C3115 C835 1.232 . S
C3120 C1253 1.221 . S
C3145 C651 1.179 . S
C3150 C847 1.189 . S
C3175 C863 1.232 . S
C3180 C567 1.221 . S
C3205 C665 1.178 . S
C3210 C875 1.189 . S
C3235 C637 1.221 . S
C3240 C891 1.231 . S
C3265 C469 1.180 . S
C3270 C905 1.190 . S
C3295 C1225 1.177 . S
C3300 C919 1.187 . S
C3325 C931 1.219 . S
C3330 C511 1.219 . S
C3355 C947 1.186 . S
C3360 C1197 1.177 . S
C3385 C1211 1.176 . S
C3390 C959 1.186 . S
C3415 C497 1.180 . S
C3420 C975 1.190 . S
C3445 C455 1.210 . S
C3450 C987 1.225 . S
C3475 C483 1.210 . S
C3480 C1001 1.226 . S
C3505 C1017 1.135 . S
C3510 C49 1.121 . S
C3535 C1031 1.157 . S
C3540 C679 1.147 . S
C3565 C1045 1.134 . S
C3570 C21 1.121 . S
C3595 C1059 1.157 . S
C3600 C707 1.146 . S
C3625 C77 1.121 . S
C3630 C1073 1.135 . S
C3655 C763 1.146 . S
C3660 C1087 1.157 . S
C3685 C105 1.120 . S
C3690 C1101 1.134 . S
C3715 C735 1.147 . S
C3720 C1115 1.157 . S
C3745 C1129 1.182 . S
C3750 C261 1.139 . S
C3775 C945 1.116 . S
C3780 C1143 1.129 . S
C3805 C1157 1.182 . S
C3810 C961 1.139 . S
C3835 C1171 1.128 . S
C3840 C917 1.115 . S
C3865 C317 1.139 . S
C3870 C1185 1.182 . S
C3895 C231 1.116 . S
C3900 C1199 1.129 . S
C3925 C1213 1.182 . S
C3930 C331 1.139 . S
C3955 C301 1.116 . S
C3960 C1227 1.129 . S
C3985 C1241 1.162 . S
C3990 C133 1.151 . S
C4015 C1255 1.164 . S
C4020 C889 1.152 . S
C4045 C177 1.141 . S
C4050 C1269 1.183 . S
C4075 C1283 1.164 . S
C4080 C861 1.153 . S
C4105 C877 1.145 . S
C4110 C1297 1.187 . S
C4135 C1311 1.162 . S
C4140 C161 1.151 . S
C4165 C1325 1.183 . S
C4170 C121 1.141 . S
C4195 C1339 1.183 . S
C4200 C149 1.141 . S
C4225 C3 1.214 . S
C4230 C610 1.249 . S
C4255 C624 1.247 . S
C4260 C17 1.210 . S
C4285 C582 1.249 . S
C4290 C31 1.214 . S
C4315 C45 1.210 . S
C4320 C1268 1.247 . S
C4345 C59 1.214 . S
C4350 C1310 1.248 . S
C4375 C73 1.210 . S
C4380 C1324 1.247 . S
C4405 C1240 1.249 . S
C4410 C87 1.214 . S
C4435 C1338 1.248 . S
C4440 C101 1.211 . S
C4465 C372 1.204 . S
C4470 C120 1.192 . S
C4495 C129 1.209 . S
C4500 C1058 1.242 . S
C4525 C344 1.204 . S
C4530 C148 1.192 . S
C4555 C1030 1.243 . S
C4560 C157 1.209 . S
C4585 C428 1.204 . S
C4590 C176 1.192 . S
C4615 C185 1.209 . S
C4620 C1114 1.243 . S
C4645 C204 1.191 . S
C4650 C400 1.203 . S
C4675 C213 1.209 . S
C4680 C1086 1.243 . S
C4705 C227 1.206 . S
C4710 C1184 1.243 . S
C4735 C456 1.253 . S
C4740 C241 1.224 . S
C4765 C260 1.191 . S
C4770 C1142 1.203 . S
C4795 C269 1.217 . S
C4800 C484 1.259 . S
C4825 C288 1.176 . S
C4830 C498 1.187 . S
C4855 C297 1.205 . S
C4860 C1212 1.242 . S
C4885 C1226 1.204 . S
C4890 C316 1.192 . S
C4915 C1198 1.203 . S
C4920 C330 1.191 . S
C4945 C274 1.225 . S
C4950 C339 1.190 . S
C4975 C353 1.255 . S
C4980 C283 1.286 . S
C5005 C367 1.190 . S
C5010 C246 1.225 . S
C5035 C381 1.256 . S
C5040 C927 1.287 . S
C5065 C974 1.225 . S
C5070 C395 1.191 . S
C5095 C983 1.286 . S
C5100 C409 1.255 . S
C5125 C423 1.190 . S
C5130 C904 1.225 . S
C5155 C997 1.287 . S
C5160 C437 1.256 . S
C5185 C451 1.198 . S
C5190 C36 1.227 . S
C5215 C722 1.225 . S
C5220 C465 1.191 . S
C5245 C479 1.197 . S
C5250 C8 1.225 . S
C5275 C694 1.225 . S
C5280 C493 1.191 . S
C5305 C507 1.196 . S
C5310 C92 1.225 . S
C5335 C778 1.225 . S
C5340 C521 1.191 . S
C5365 C64 1.236 . S
C5370 C535 1.191 . S
C5395 C750 1.224 . S
C5400 C549 1.190 . S
C5425 C563 1.251 . S
C5430 C843 1.282 . S
C5455 C577 1.252 . S
C5460 C115 1.284 . S
C5485 C806 1.265 . S
C5490 C591 1.225 . S
C5515 C605 1.252 . S
C5520 C143 1.283 . S
C5545 C162 1.266 . S
C5550 C619 1.225 . S
C5575 C871 1.283 . S
C5580 C633 1.251 . S
C5605 C890 1.265 . S
C5610 C647 1.225 . S
C5635 C862 1.265 . S
C5640 C661 1.224 . S
C5665 C675 1.215 . S
C5670 C1282 1.249 . S
C5695 C689 1.217 . S
C5700 C1296 1.254 . S
C5725 C703 1.216 . S
C5730 C1254 1.249 . S
C5755 C596 1.253 . S
C5760 C717 1.216 . S
C5785 C731 1.215 . S
C5790 C638 1.248 . S
C5815 C652 1.253 . S
C5820 C745 1.216 . S
C5845 C568 1.249 . S
C5850 C759 1.215 . S
C5875 C666 1.253 . S
C5880 C773 1.216 . S
C5905 C792 1.198 . S
C5910 C1044 1.210 . S
C5935 C386 1.255 . S
C5940 C801 1.220 . S
C5965 C820 1.198 . S
C5970 C1016 1.210 . S
C5995 C829 1.219 . S
C6000 C358 1.254 . S
C6025 C848 1.199 . S
C6030 C1100 1.211 . S
C6055 C857 1.220 . S
C6060 C442 1.255 . S
C6085 C1072 1.210 . S
C6090 C876 1.198 . S
C6115 C414 1.254 . S
C6120 C885 1.220 . S
C6145 C899 1.216 . S
C6150 C512 1.259 . S
C6175 C913 1.206 . S
C6180 C1128 1.243 . S
C6205 C932 1.175 . S
C6210 C470 1.186 . S
C6235 C1156 1.243 . S
C6240 C941 1.206 . S
C6265 C960 1.192 . S
C6270 C1170 1.204 . S
C6295 C969 1.216 . S
C6300 C540 1.259 . S
C6325 C554 1.186 . S
C6330 C988 1.175 . S
C6355 C1002 1.176 . S
C6360 C526 1.187 . S
C6385 C1011 1.188 . S
C6390 C946 1.222 . S
C6415 C955 1.274 . S
C6420 C1025 1.243 . S
C6445 C918 1.222 . S
C6450 C1039 1.187 . S
C6475 C1053 1.243 . S
C6480 C255 1.275 . S
C6505 C1067 1.188 . S
C6510 C302 1.222 . S
C6535 C1081 1.243 . S
C6540 C311 1.274 . S
C6565 C232 1.221 . S
C6570 C1095 1.186 . S
C6595 C1109 1.243 . S
C6600 C325 1.274 . S
C6625 C1123 1.220 . S
C6630 C708 1.260 . S
C6655 C1137 1.189 . S
C6660 C50 1.223 . S
C6685 C1151 1.221 . S
C6690 C680 1.261 . S
C6715 C1165 1.189 . S
C6720 C22 1.223 . S
C6745 C1179 1.221 . S
C6750 C764 1.261 . S
C6775 C1193 1.189 . S
C6780 C106 1.223 . S
C6805 C1207 1.220 . S
C6810 C736 1.261 . S
C6835 C1221 1.189 . S
C6840 C78 1.223 . S
C6865 C1235 1.252 . S
C6870 C171 1.283 . S
C6895 C1249 1.251 . S
C6900 C787 1.282 . S
C6925 C1263 1.225 . S
C6930 C134 1.266 . S
C6955 C1277 1.252 . S
C6960 C815 1.283 . S
C6985 C1291 1.224 . S
C6990 C834 1.265 . S
C7015 C199 1.284 . S
C7020 C1305 1.253 . S
C7045 C1319 1.226 . S
C7050 C218 1.266 . S
C7075 C1333 1.225 . S
C7080 C190 1.266 . S
