# Generated by pormake.
# Topology wjd, (6)-cn, num edge types: 1
# Building blocks:
#     Node 0, Type 0, BuildingBlock: MIDCAF_clean_sbu_0, # of connection points: 6
#     Node 1, Type 0, BuildingBlock: MIDCAF_clean_sbu_0, # of connection points: 6
#     Node 2, Type 0, BuildingBlock: MIDCAF_clean_sbu_0, # of connection points: 6
#     Node 3, Type 0, BuildingBlock: MIDCAF_clean_sbu_0, # of connection points: 6
#     Node 4, Type 0, BuildingBlock: MIDCAF_clean_sbu_0, # of connection points: 6
#     Node 5, Type 0, BuildingBlock: MIDCAF_clean_sbu_0, # of connection points: 6
#     Node 6, Type 0, BuildingBlock: MIDCAF_clean_sbu_0, # of connection points: 6
#     Node 7, Type 0, BuildingBlock: MIDCAF_clean_sbu_0, # of connection points: 6
#     Node 8, Type 0, BuildingBlock: MIDCAF_clean_sbu_0, # of connection points: 6
#     Node 9, Type 0, BuildingBlock: MIDCAF_clean_sbu_0, # of connection points: 6
#     Node 10, Type 0, BuildingBlock: MIDCAF_clean_sbu_0, # of connection points: 6
#     Node 11, Type 0, BuildingBlock: MIDCAF_clean_sbu_0, # of connection points: 6
#     Edge 12, Type (0, 0), BuildingBlock: MIFKUJ_clean_linker_0, # of connection points: 2
#     Edge 13, Type (0, 0), BuildingBlock: MIFKUJ_clean_linker_0, # of connection points: 2
#     Edge 14, Type (0, 0), BuildingBlock: MIFKUJ_clean_linker_0, # of connection points: 2
#     Edge 15, Type (0, 0), BuildingBlock: MIFKUJ_clean_linker_0, # of connection points: 2
#     Edge 16, Type (0, 0), BuildingBlock: MIFKUJ_clean_linker_0, # of connection points: 2
#     Edge 17, Type (0, 0), BuildingBlock: MIFKUJ_clean_linker_0, # of connection points: 2
#     Edge 18, Type (0, 0), BuildingBlock: MIFKUJ_clean_linker_0, # of connection points: 2
#     Edge 19, Type (0, 0), BuildingBlock: MIFKUJ_clean_linker_0, # of connection points: 2
#     Edge 20, Type (0, 0), BuildingBlock: MIFKUJ_clean_linker_0, # of connection points: 2
#     Edge 21, Type (0, 0), BuildingBlock: MIFKUJ_clean_linker_0, # of connection points: 2
#     Edge 22, Type (0, 0), BuildingBlock: MIFKUJ_clean_linker_0, # of connection points: 2
#     Edge 23, Type (0, 0), BuildingBlock: MIFKUJ_clean_linker_0, # of connection points: 2
#     Edge 24, Type (0, 0), BuildingBlock: MIFKUJ_clean_linker_0, # of connection points: 2
#     Edge 25, Type (0, 0), BuildingBlock: MIFKUJ_clean_linker_0, # of connection points: 2
#     Edge 26, Type (0, 0), BuildingBlock: MIFKUJ_clean_linker_0, # of connection points: 2
#     Edge 27, Type (0, 0), BuildingBlock: MIFKUJ_clean_linker_0, # of connection points: 2
#     Edge 28, Type (0, 0), BuildingBlock: MIFKUJ_clean_linker_0, # of connection points: 2
#     Edge 29, Type (0, 0), BuildingBlock: MIFKUJ_clean_linker_0, # of connection points: 2
#     Edge 30, Type (0, 0), BuildingBlock: MIFKUJ_clean_linker_0, # of connection points: 2
#     Edge 31, Type (0, 0), BuildingBlock: MIFKUJ_clean_linker_0, # of connection points: 2
#     Edge 32, Type (0, 0), BuildingBlock: MIFKUJ_clean_linker_0, # of connection points: 2
#     Edge 33, Type (0, 0), BuildingBlock: MIFKUJ_clean_linker_0, # of connection points: 2
#     Edge 34, Type (0, 0), BuildingBlock: MIFKUJ_clean_linker_0, # of connection points: 2
#     Edge 35, Type (0, 0), BuildingBlock: MIFKUJ_clean_linker_0, # of connection points: 2
#     Edge 36, Type (0, 0), BuildingBlock: MIFKUJ_clean_linker_0, # of connection points: 2
#     Edge 37, Type (0, 0), BuildingBlock: MIFKUJ_clean_linker_0, # of connection points: 2
#     Edge 38, Type (0, 0), BuildingBlock: MIFKUJ_clean_linker_0, # of connection points: 2
#     Edge 39, Type (0, 0), BuildingBlock: MIFKUJ_clean_linker_0, # of connection points: 2
#     Edge 40, Type (0, 0), BuildingBlock: MIFKUJ_clean_linker_0, # of connection points: 2
#     Edge 41, Type (0, 0), BuildingBlock: MIFKUJ_clean_linker_0, # of connection points: 2
#     Edge 42, Type (0, 0), BuildingBlock: MIFKUJ_clean_linker_0, # of connection points: 2
#     Edge 43, Type (0, 0), BuildingBlock: MIFKUJ_clean_linker_0, # of connection points: 2
#     Edge 44, Type (0, 0), BuildingBlock: MIFKUJ_clean_linker_0, # of connection points: 2
#     Edge 45, Type (0, 0), BuildingBlock: MIFKUJ_clean_linker_0, # of connection points: 2
#     Edge 46, Type (0, 0), BuildingBlock: MIFKUJ_clean_linker_0, # of connection points: 2
#     Edge 47, Type (0, 0), BuildingBlock: MIFKUJ_clean_linker_0, # of connection points: 2
# Relax obj value: 0.343
# Max RMSD: 0.250
# Mean RMSD: 0.250
data_MOF--net-wjd--node1-MIDCAF_clean_sbu_0--edge1-MIFKUJ_clean_linker_0
_symmetry_space_group_name_H-M    P1
_symmetry_Int_Tables_number       1
_symmetry_cell_setting            triclinic
loop_
_symmetry_equiv_pos_as_xyz
'x, y, z'
_cell_length_a     36.188968
_cell_length_b     36.18256
_cell_length_c     77.617359
_cell_angle_alpha  90.148036
_cell_angle_beta   89.981955
_cell_angle_gamma 119.99001
loop_
_atom_site_label
_atom_site_type_symbol
_atom_site_fract_x
_atom_site_fract_y
_atom_site_fract_z
_atom_type_partial_charge
Zn0 Zn 0.26281 0.05828 0.1461 0.0
Zn1 Zn 0.40185 0.1274 0.09578 0.0
Zn2 Zn 0.31732 0.07568 0.12498 0.0
C3 C 0.40056 0.17316 0.12758 0.0
C4 C 0.37147 0.04843 0.11868 0.0
O5 O 0.29058 0.00653 0.1288 0.0
O6 O 0.22934 -0.0011 0.13774 0.0
C7 C 0.25583 0.10723 0.11978 0.0
O8 O 0.36903 0.13885 0.13404 0.0
O9 O 0.4151 0.1747 0.11252 0.0
O10 O 0.37115 0.07554 0.10883 0.0
O11 O 0.33656 0.02641 0.12675 0.0
O12 O 0.25346 0.10415 0.13601 0.0
O13 O 0.27314 0.08934 0.11128 0.0
O14 O 0.34812 0.11472 0.14846 0.0
O15 O 0.29989 0.06916 0.16645 0.0
C16 C 0.33677 0.10026 0.16387 0.0
O17 O 0.30037 0.08293 0.0977 0.0
O18 O 0.35483 0.1158 0.07901 0.0
C19 C 0.25059 0.9826 0.13194 0.0
C20 C 0.31499 0.09584 0.08228 0.0
Zn21 Zn 0.73322 0.61275 0.40255 0.0
Zn22 Zn 0.78132 0.74437 0.33629 0.0
Zn23 Zn 0.75989 0.6652 0.37922 0.0
C24 C 0.77438 0.65878 0.34187 0.0
C25 C 0.84071 0.75377 0.36164 0.0
O26 O 0.78853 0.70215 0.40258 0.0
O27 O 0.74042 0.65564 0.4203 0.0
C28 C 0.66526 0.58818 0.38031 0.0
O29 O 0.78412 0.64861 0.35637 0.0
O30 O 0.75272 0.67788 0.34195 0.0
O31 O 0.84021 0.77472 0.34856 0.0
O32 O 0.80537 0.72228 0.36653 0.0
O33 O 0.67698 0.57299 0.39233 0.0
O34 O 0.69 0.62656 0.37523 0.0
O35 O 0.78076 0.62073 0.37193 0.0
O36 O 0.77672 0.59533 0.3981 0.0
C37 C 0.78808 0.59802 0.38251 0.0
O38 O 0.70459 0.67278 0.37536 0.0
O39 O 0.73111 0.69826 0.35051 0.0
C40 C 0.77062 0.69292 0.41738 0.0
C41 C 0.71436 0.70239 0.36428 0.0
Zn42 Zn 0.92238 0.19981 0.1465 0.0
Zn43 Zn 0.86492 0.25965 0.10642 0.0
Zn44 Zn 0.89993 0.2348 0.12589 0.0
C45 C 0.80358 0.21301 0.13011 0.0
C46 C 0.9337 0.33105 0.12251 0.0
O47 O 0.9693 0.28047 0.128 0.0
O48 O 0.98197 0.23173 0.13906 0.0
C49 C 0.87867 0.14176 0.12034 0.0
O50 O 0.8375 0.21818 0.13777 0.0
O51 O 0.8057 0.22539 0.11478 0.0
O52 O 0.89853 0.31868 0.11496 0.0
O53 O 0.94567 0.30399 0.12632 0.0
O54 O 0.88594 0.14225 0.13628 0.0
O55 O 0.88796 0.1766 0.11247 0.0
O56 O 0.86448 0.224 0.15121 0.0
O57 O 0.90772 0.21547 0.16871 0.0
C58 C 0.87704 0.22213 0.16662 0.0
O59 O 0.89699 0.20657 0.09935 0.0
O60 O 0.88039 0.24718 0.08384 0.0
C61 C 0.99559 0.26757 0.13199 0.0
C62 C 0.89307 0.22049 0.0845 0.0
Zn63 Zn 0.37481 0.12134 0.39823 0.0
Zn64 Zn 0.26508 0.05327 0.35762 0.0
Zn65 Zn 0.31969 0.07791 0.37781 0.0
C66 C 0.33214 0.08923 0.33755 0.0
C67 C 0.25869 0.10918 0.37979 0.0
O68 O 0.29068 0.08059 0.40325 0.0
O69 O 0.34602 0.1001 0.42049 0.0
C70 C 0.38794 0.05663 0.38277 0.0
O71 O 0.34317 0.1096 0.35201 0.0
O72 O 0.29786 0.05396 0.33679 0.0
O73 O 0.25835 0.10383 0.36367 0.0
O74 O 0.27328 0.09099 0.38967 0.0
O75 O 0.40695 0.09449 0.3885 0.0
O76 O 0.34758 0.03738 0.37994 0.0
O77 O 0.3601 0.1388 0.36457 0.0
O78 O 0.38081 0.17559 0.3888 0.0
C79 C 0.37612 0.17463 0.37267 0.0
O80 O 0.29897 0.00952 0.37683 0.0
O81 O 0.23517 0.00024 0.37121 0.0
C82 C 0.30651 0.08517 0.41856 0.0
C83 C 0.2581 0.98543 0.37657 0.0
Zn84 Zn 0.7292 0.60546 0.10602 0.0
Zn85 Zn 0.79368 0.7531 0.15207 0.0
Zn86 Zn 0.75137 0.66436 0.12588 0.0
C87 C 0.79747 0.67861 0.1649 0.0
C88 C 0.83319 0.75529 0.11692 0.0
O89 O 0.77544 0.69099 0.09966 0.0
O90 O 0.73285 0.63435 0.08411 0.0
C91 C 0.6576 0.59049 0.1245 0.0
O92 O 0.77794 0.6574 0.15113 0.0
O93 O 0.80861 0.71774 0.1669 0.0
O94 O 0.83233 0.77255 0.13108 0.0
O95 O 0.80348 0.71752 0.11263 0.0
O96 O 0.67277 0.57007 0.11697 0.0
O97 O 0.68105 0.6308 0.12699 0.0
O98 O 0.7766 0.62602 0.13779 0.0
O99 O 0.77754 0.59758 0.11279 0.0
C100 C 0.78966 0.60564 0.12829 0.0
O101 O 0.6985 0.67622 0.12831 0.0
O102 O 0.73222 0.70927 0.15079 0.0
C103 C 0.75919 0.67381 0.08497 0.0
C104 C 0.7114 0.70908 0.13784 0.0
Zn105 Zn 0.87156 0.308 0.40375 0.0
Zn106 Zn 0.92306 0.19541 0.35618 0.0
Zn107 Zn 0.90384 0.23248 0.37898 0.0
C108 C 0.86812 0.21913 0.34104 0.0
C109 C 0.88356 0.14002 0.38493 0.0
O110 O 0.89362 0.20657 0.4052 0.0
O111 O 0.88255 0.25911 0.4118 0.0
C112 C 0.94773 0.32006 0.38807 0.0
O113 O 0.86313 0.2261 0.35688 0.0
O114 O 0.89469 0.20764 0.33705 0.0
O115 O 0.8926 0.14074 0.36915 0.0
O116 O 0.88909 0.17398 0.39254 0.0
O117 O 0.92198 0.30089 0.40011 0.0
O118 O 0.95711 0.29696 0.37877 0.0
O119 O 0.84344 0.23335 0.37308 0.0
O120 O 0.82383 0.27636 0.3865 0.0
C121 C 0.81648 0.24654 0.3758 0.0
O122 O 0.97366 0.27141 0.37453 0.0
O123 O 0.98604 0.2284 0.35846 0.0
C124 C 0.88923 0.22946 0.41678 0.0
C125 C -2e-05 0.26169 0.36755 0.0
Zn126 Zn 0.14624 0.35873 0.60431 0.0
Zn127 Zn 0.01304 0.2372 0.65435 0.0
Zn128 Zn 0.09604 0.32979 0.6249 0.0
C129 C 0.0903 0.3353 0.66012 0.0
C130 C 0.07404 0.22848 0.63147 0.0
O131 O 0.06341 0.3269 0.59964 0.0
O132 O 0.11005 0.31578 0.58588 0.0
C133 C 0.09951 0.40329 0.61106 0.0
O134 O 0.11534 0.36339 0.64945 0.0
O135 O 0.06144 0.30069 0.65345 0.0
O136 O 0.0423 0.20851 0.64168 0.0
O137 O 0.08799 0.26749 0.62732 0.0
O138 O 0.1373 0.41051 0.60887 0.0
O139 O 0.06926 0.36413 0.61215 0.0
O140 O 0.15586 0.3785 0.63673 0.0
O141 O 0.18903 0.35541 0.62002 0.0
C142 C 0.18936 0.37628 0.63321 0.0
O143 O 0.03443 0.31814 0.61587 0.0
O144 O 0.02182 0.28988 0.64116 0.0
C145 C 0.07434 0.31433 0.586 0.0
C146 C 0.00809 0.28898 0.62606 0.0
Zn147 Zn 0.28528 0.88026 0.90821 0.0
Zn148 Zn 0.20793 0.93405 0.85642 0.0
Zn149 Zn 0.24319 0.92036 0.87837 0.0
C150 C 0.24287 0.89465 0.83999 0.0
C151 C 0.15111 0.8806 0.88185 0.0
O152 O 0.21861 0.9139 0.90563 0.0
O153 O 0.24888 0.89049 0.92483 0.0
C154 C 0.32622 0.95566 0.88379 0.0
O155 O 0.23687 0.87967 0.85545 0.0
O156 O 0.23964 0.92715 0.83703 0.0
O157 O 0.1553 0.8834 0.86565 0.0
O158 O 0.18376 0.90318 0.89144 0.0
O159 O 0.30169 0.93127 0.89513 0.0
O160 O 0.30986 0.97359 0.87509 0.0
O161 O 0.23348 0.8573 0.87024 0.0
O162 O 0.24721 0.82957 0.8937 0.0
C163 C 0.23047 0.82534 0.8789 0.0
O164 O 0.28076 0.99028 0.87368 0.0
O165 O 0.22396 0.99172 0.86459 0.0
C166 C 0.22389 0.90471 0.92127 0.0
C167 C 0.26135 0.01115 0.87059 0.0
Zn168 Zn 0.60673 0.71137 0.60316 0.0
Zn169 Zn 0.69358 0.81962 0.64016 0.0
Zn170 Zn 0.66259 0.76266 0.6214 0.0
C171 C 0.64083 0.75793 0.66092 0.0
C172 C 0.71948 0.85335 0.60984 0.0
O173 O 0.69904 0.77278 0.59755 0.0
O174 O 0.64352 0.72648 0.58239 0.0
C175 C 0.61156 0.6663 0.63208 0.0
O176 O 0.65213 0.73957 0.6494 0.0
O177 O 0.64733 0.79505 0.65794 0.0
O178 O 0.69748 0.85851 0.62124 0.0
O179 O 0.71838 0.81723 0.60897 0.0
O180 O 0.59489 0.6605 0.61729 0.0
O181 O 0.64174 0.70389 0.63644 0.0
O182 O 0.62069 0.78475 0.62255 0.0
O183 O 0.56882 0.73761 0.60622 0.0
C184 C 0.58468 0.77094 0.61545 0.0
O185 O 0.68991 0.73821 0.63942 0.0
O186 O 0.7417 0.80449 0.64107 0.0
C187 C 0.68274 0.75412 0.58317 0.0
C188 C 0.72986 0.7651 0.64145 0.0
Zn189 Zn 0.01057 0.22952 0.84551 0.0
Zn190 Zn 0.12698 0.387 0.90212 0.0
Zn191 Zn 0.08523 0.32771 0.8805 0.0
C192 C 0.18412 0.39085 0.87615 0.0
C193 C 0.06699 0.40346 0.88485 0.0
O194 O 0.02221 0.32102 0.87695 0.0
O195 O 0.01626 0.28722 0.85326 0.0
C196 C 0.06016 0.22844 0.87271 0.0
O197 O 0.1492 0.3632 0.86885 0.0
O198 O 0.18354 0.40429 0.89114 0.0
O199 O 0.09772 0.41959 0.89541 0.0
O200 O 0.05445 0.36636 0.87841 0.0
O201 O 0.03441 0.20088 0.86206 0.0
O202 O 0.06062 0.26371 0.87355 0.0
O203 O 0.11825 0.33255 0.8561 0.0
O204 O 0.05474 0.29673 0.84389 0.0
C205 C 0.09529 0.31393 0.84271 0.0
O206 O 0.0785 0.29497 0.90497 0.0
O207 O 0.10702 0.34949 0.92292 0.0
C208 C -0.00166 0.29002 0.86689 0.0
C209 C 0.08665 0.30966 0.92039 0.0
Zn210 Zn 0.23782 0.86403 0.60501 0.0
Zn211 Zn 0.20274 0.96867 0.64907 0.0
Zn212 Zn 0.23498 0.91093 0.6247 0.0
C213 C 0.2225 0.90265 0.66514 0.0
C214 C 0.14846 0.90573 0.62004 0.0
O215 O 0.20765 0.9138 0.59901 0.0
O216 O 0.24264 0.89162 0.58268 0.0
C217 C 0.31449 0.91276 0.62302 0.0
O218 O 0.21802 0.88299 0.65074 0.0
O219 O 0.2233 0.93831 0.66583 0.0
O220 O 0.15254 0.9253 0.63416 0.0
O221 O 0.18012 0.90602 0.61243 0.0
O222 O 0.28952 0.87498 0.61806 0.0
O223 O 0.30265 0.94054 0.62204 0.0
O224 O 0.20939 0.84934 0.63796 0.0
O225 O 0.18137 0.81815 0.61324 0.0
C226 C 0.1828 0.81592 0.62944 0.0
O227 O 0.29239 0.9733 0.62543 0.0
O228 O 0.26332 0.97926 0.64819 0.0
C229 C 0.22104 0.91005 0.58403 0.0
C230 C 0.286 -0.00221 0.63522 0.0
Zn231 Zn 0.60575 0.72912 0.89855 0.0
Zn232 Zn 0.71982 0.79735 0.86307 0.0
Zn233 Zn 0.66212 0.75924 0.87986 0.0
C234 C 0.65397 0.7594 0.84104 0.0
C235 C 0.72061 0.85468 0.88466 0.0
O236 O 0.68846 0.78849 0.90572 0.0
O237 O 0.63878 0.73248 0.91943 0.0
C238 C 0.60182 0.66349 0.87911 0.0
O239 O 0.63745 0.76675 0.85444 0.0
O240 O 0.69098 0.76453 0.8422 0.0
O241 O 0.72253 0.85275 0.86847 0.0
O242 O 0.70541 0.81995 0.89345 0.0
O243 O 0.57729 0.67484 0.88581 0.0
O244 O 0.64216 0.69039 0.87818 0.0
O245 O 0.61549 0.77435 0.86799 0.0
O246 O 0.58776 0.77151 0.89353 0.0
C247 C 0.59176 0.78247 0.87788 0.0
O248 O 0.68899 0.71654 0.87839 0.0
O249 O 0.75074 0.77642 0.87754 0.0
C250 C 0.67495 0.76577 0.91953 0.0
C251 C 0.72975 0.73688 0.88062 0.0
H252 H 0.06674 0.2978 0.1514 0.0
H253 H 0.12497 0.28554 0.14337 0.0
H254 H 0.0807 0.26322 0.09081 0.0
H255 H 0.02216 0.27538 0.09888 0.0
H256 H 0.09095 0.19905 0.13045 0.0
H257 H 0.16011 0.28063 0.06823 0.0
H258 H 0.18743 0.35049 0.05394 0.0
H259 H 0.23694 0.41451 0.10227 0.0
H260 H 0.20941 0.34495 0.1168 0.0
H261 H 0.18422 0.08193 0.10033 0.0
H262 H 0.14875 0.12402 0.09567 0.0
H263 H 0.25723 0.23447 0.11771 0.0
H264 H 0.29194 0.19231 0.12265 0.0
H265 H 0.21578 0.2561 0.09124 0.0
H266 H 0.18461 0.17339 0.14401 0.0
H267 H 0.16138 0.10664 0.16009 0.0
H268 H 0.04005 0.04902 0.13437 0.0
H269 H 0.06288 0.11533 0.11794 0.0
C270 C 0.07121 0.2934 0.1379 0.0
C271 C 0.03994 0.28777 0.12577 0.0
C272 C 0.10414 0.28561 0.13337 0.0
C273 C 0.10679 0.27273 0.11656 0.0
C274 C 0.0794 0.27326 0.10385 0.0
C275 C 0.04628 0.28097 0.10842 0.0
C276 C 0.13135 0.25042 0.11337 0.0
C277 C 0.11807 0.21146 0.12179 0.0
C278 C 0.16665 0.26635 0.10213 0.0
C279 C 0.18278 0.30788 0.09353 0.0
C280 C 0.17686 0.30969 0.07575 0.0
C281 C 0.19224 0.34916 0.06764 0.0
C282 C 0.2139 0.38692 0.07719 0.0
C283 C 0.22006 0.38526 0.09489 0.0
C284 C 0.20443 0.34586 0.10308 0.0
C285 C 0.20117 0.11568 0.10338 0.0
C286 C 0.24106 0.13419 0.11156 0.0
C287 C 0.18086 0.13966 0.10083 0.0
C288 C 0.20027 0.18242 0.10642 0.0
C289 C 0.24179 0.20179 0.11314 0.0
C290 C 0.26173 0.17772 0.11589 0.0
C291 C 0.17508 0.20452 0.10822 0.0
C292 C 0.18819 0.24333 0.09965 0.0
C293 C 0.13968 0.18863 0.11951 0.0
C294 C 0.12559 0.1491 0.12963 0.0
C295 C 0.15307 0.14639 0.14172 0.0
C296 C 0.13999 0.10866 0.1509 0.0
C297 C 0.0993 0.07356 0.14822 0.0
C298 C 0.07158 0.0762 0.13641 0.0
C299 C 0.08456 0.11385 0.12716 0.0
H300 H 0.08923 0.04436 0.15533 0.0
H301 H 0.22593 0.41744 0.07088 0.0
H302 H 0.21918 0.95755 0.40704 0.0
H303 H 0.14813 0.89571 0.40885 0.0
H304 H 0.16702 0.8519 0.3597 0.0
H305 H 0.2384 0.91445 0.35793 0.0
H306 H 0.10891 0.87592 0.358 0.0
H307 H 0.13498 0.78877 0.39625 0.0
H308 H 0.15951 0.76841 0.42225 0.0
H309 H 0.07522 0.79154 0.45346 0.0
H310 H 0.05145 0.81391 0.42779 0.0
H311 H 0.89536 0.7423 0.34211 0.0
H312 H 0.96886 0.76222 0.34892 0.0
H313 H 0.9537 0.79985 0.40008 0.0
H314 H 0.87814 0.77544 0.39365 0.0
H315 H 0.0098 0.77371 0.4012 0.0
H316 H 0.99457 0.87318 0.36526 0.0
H317 H 0.9689 0.89561 0.34013 0.0
H318 H 0.03356 0.85287 0.30609 0.0
H319 H 0.05922 0.82976 0.33101 0.0
C320 C 0.20976 0.93297 0.39735 0.0
C321 C 0.2347 0.94085 0.38243 0.0
C322 C 0.1685 0.89767 0.39824 0.0
C323 C 0.15167 0.86935 0.38427 0.0
C324 C 0.17913 0.87345 0.37063 0.0
C325 C 0.2204 0.90892 0.36974 0.0
C326 C 0.10446 0.84359 0.38185 0.0
C327 C 0.08746 0.85272 0.36729 0.0
C328 C 0.07608 0.81511 0.39441 0.0
C329 C 0.0917 0.80346 0.41003 0.0
C330 C 0.12223 0.79036 0.40868 0.0
C331 C 0.13601 0.77843 0.42338 0.0
C332 C 0.11915 0.77898 0.43951 0.0
C333 C 0.08853 0.79153 0.44098 0.0
C334 C 0.07496 0.80393 0.42635 0.0
C335 C 0.90752 0.75393 0.35494 0.0
C336 C 0.88189 0.75887 0.36722 0.0
C337 C 0.94961 0.7656 0.3588 0.0
C338 C 0.96763 0.78447 0.37475 0.0
C339 C 0.9409 0.78617 0.38756 0.0
C340 C 0.89798 0.77277 0.38387 0.0
C341 C 0.01482 0.80572 0.37726 0.0
C342 C 0.03161 0.7964 0.39187 0.0
C343 C 0.04342 0.83496 0.36497 0.0
C344 C 0.02851 0.84943 0.34999 0.0
C345 C 0.00315 0.86841 0.35241 0.0
C346 C 0.98862 0.88125 0.33821 0.0
C347 C -0.00049 0.87558 0.32153 0.0
C348 C 0.02511 0.8572 0.31902 0.0
C349 C 0.0397 0.84428 0.33317 0.0
H350 H 0.98819 0.88549 0.31055 0.0
H351 H 0.12965 0.76947 0.45086 0.0
H352 H 0.80053 0.09868 0.10491 0.0
H353 H 0.7611 0.0214 0.09895 0.0
H354 H 0.87377 0.01464 0.11163 0.0
H355 H 0.91252 0.09099 0.11749 0.0
H356 H 0.8324 0.96041 0.08725 0.0
H357 H 0.80076 0.00507 0.14057 0.0
H358 H 0.77326 0.03985 0.15987 0.0
H359 H 0.64639 0.95769 0.141 0.0
H360 H 0.67353 0.92432 0.12063 0.0
H361 H 0.7418 0.78395 0.15481 0.0
H362 H 0.76311 0.85414 0.14329 0.0
H363 H 0.72559 0.80046 0.0923 0.0
H364 H 0.70481 0.7293 0.10385 0.0
H365 H 0.71392 0.88018 0.12823 0.0
H366 H 0.77674 0.85218 0.06955 0.0
H367 H 0.82896 0.83821 0.0545 0.0
H368 H 0.91951 0.90082 0.09507 0.0
H369 H 0.86792 0.91439 0.11051 0.0
C370 C 0.81713 0.08076 0.10561 0.0
C371 C 0.85954 0.10046 0.11145 0.0
C372 C 0.79455 0.03666 0.10241 0.0
C373 C 0.81432 0.01209 0.10503 0.0
C374 C 0.85779 0.03279 0.10943 0.0
C375 C 0.88005 0.07646 0.11274 0.0
C376 C 0.78974 0.96466 0.10535 0.0
C377 C 0.80573 0.94265 0.09592 0.0
C378 C 0.75558 0.94163 0.11698 0.0
C379 C 0.73943 0.96299 0.12867 0.0
C380 C 0.76717 0.99519 0.14014 0.0
C381 C 0.75164 0.01474 0.15126 0.0
C382 C 0.70819 0.00149 0.15143 0.0
C383 C 0.68017 0.96857 0.14054 0.0
C384 C 0.69566 0.94956 0.1291 0.0
C385 C 0.73824 0.7869 0.1411 0.0
C386 C 0.72189 0.75095 0.13026 0.0
C387 C 0.75046 0.82718 0.13452 0.0
C388 C 0.74647 0.83289 0.11688 0.0
C389 C 0.72977 0.79709 0.1059 0.0
C390 C 0.71747 0.75636 0.11255 0.0
C391 C 0.75797 0.87627 0.11066 0.0
C392 C 0.73918 0.89749 0.11894 0.0
C393 C 0.7915 0.89935 0.09886 0.0
C394 C 0.81785 0.88264 0.0915 0.0
C395 C 0.80707 0.86122 0.0756 0.0
C396 C 0.83655 0.85345 0.067 0.0
C397 C 0.87676 0.86709 0.07414 0.0
C398 C 0.88785 0.889 0.08981 0.0
C399 C 0.85842 0.89633 0.09858 0.0
H400 H 0.89964 0.86147 0.06736 0.0
H401 H 0.69614 0.01642 0.16015 0.0
H402 H 0.20945 0.09887 0.40821 0.0
H403 H 0.17619 0.14207 0.41545 0.0
H404 H 0.24561 0.22862 0.3741 0.0
H405 H 0.27622 0.18432 0.36616 0.0
H406 H 0.23131 0.26732 0.40714 0.0
H407 H 0.16404 0.16199 0.36038 0.0
H408 H 0.13295 0.08915 0.34851 0.0
H409 H 0.04151 0.0411 0.38966 0.0
H410 H 0.07273 0.11373 0.40194 0.0
H411 H 0.07226 0.28346 0.34937 0.0
H412 H 0.13227 0.27843 0.36104 0.0
H413 H 0.08261 0.26843 0.41235 0.0
H414 H 0.02428 0.27638 0.40086 0.0
H415 H 0.08552 0.19177 0.38217 0.0
H416 H 0.1501 0.30297 0.42704 0.0
H417 H 0.18344 0.37749 0.43718 0.0
H418 H 0.2801 0.41573 0.39828 0.0
H419 H 0.2468 0.34137 0.38776 0.0
C420 C 0.21822 0.1277 0.401 0.0
C421 C 0.24495 0.13829 0.38657 0.0
C422 C 0.19957 0.15243 0.4052 0.0
C423 C 0.20884 0.18864 0.39536 0.0
C424 C 0.23857 0.20116 0.38197 0.0
C425 C 0.25575 0.17569 0.37738 0.0
C426 C 0.18168 0.20828 0.39635 0.0
C427 C 0.19915 0.2507 0.40197 0.0
C428 C 0.13993 0.1866 0.38952 0.0
C429 C 0.12112 0.14301 0.38222 0.0
C430 C 0.13765 0.13578 0.367 0.0
C431 C 0.11996 0.09459 0.36018 0.0
C432 C 0.0854 0.06047 0.36838 0.0
C433 C 0.0684 0.06753 0.38338 0.0
C434 C 0.08611 0.10868 0.39028 0.0
C435 C 0.07599 0.28348 0.36322 0.0
C436 C 0.04373 0.28024 0.37421 0.0
C437 C 0.11016 0.28039 0.3699 0.0
C438 C 0.11189 0.27306 0.38757 0.0
C439 C 0.08257 0.27511 0.39876 0.0
C440 C 0.04913 0.27966 0.39213 0.0
C441 C 0.13498 0.25096 0.39293 0.0
C442 C 0.1169 0.20797 0.38811 0.0
C443 C 0.17595 0.27222 0.40047 0.0
C444 C 0.1955 0.31692 0.40641 0.0
C445 C 0.17799 0.32742 0.42046 0.0
C446 C 0.19701 0.36956 0.42634 0.0
C447 C 0.23373 0.40138 0.41832 0.0
C448 C 0.25156 0.39108 0.40443 0.0
C449 C 0.23263 0.34896 0.39851 0.0
H450 H 0.24848 0.43398 0.42291 0.0
H451 H 0.07168 0.0286 0.36306 0.0
H452 H 0.21049 0.91071 0.15109 0.0
H453 H 0.14017 0.85215 0.14309 0.0
H454 H 0.1593 0.90096 0.0912 0.0
H455 H 0.23045 0.95758 0.09903 0.0
H456 H 0.08726 0.87605 0.13757 0.0
H457 H 0.081 0.83666 0.06411 0.0
H458 H 0.11972 0.81659 0.04341 0.0
H459 H 0.1623 0.7683 0.08474 0.0
H460 H 0.12344 0.78759 0.10566 0.0
H461 H 0.89278 0.83898 0.1146 0.0
H462 H 0.96871 0.86788 0.10938 0.0
H463 H 0.94541 0.74098 0.09849 0.0
H464 H 0.86879 0.71319 0.10119 0.0
H465 H 0.01732 0.79378 0.08458 0.0
H466 H 0.95939 0.78309 0.14141 0.0
H467 H 0.91841 0.79633 0.16357 0.0
H468 H 0.00327 0.93142 0.15904 0.0
H469 H 0.04441 0.91897 0.13671 0.0
C470 C 0.20096 0.90683 0.13767 0.0
C471 C 0.22577 0.93856 0.12566 0.0
C472 C 0.16036 0.87378 0.13314 0.0
C473 C 0.1437 0.87262 0.11664 0.0
C474 C 0.17112 0.90068 0.10398 0.0
C475 C 0.21218 0.93307 0.10844 0.0
C476 C 0.09656 0.85007 0.11397 0.0
C477 C 0.07213 0.85757 0.12605 0.0
C478 C 0.07628 0.82582 0.09901 0.0
C479 C 0.09952 0.81389 0.08647 0.0
C480 C 0.09845 0.82158 0.06878 0.0
C481 C 0.12048 0.81038 0.05701 0.0
C482 C 0.14353 0.79127 0.06277 0.0
C483 C 0.14456 0.78325 0.08031 0.0
C484 C 0.12261 0.7944 0.09213 0.0
C485 C 0.90353 0.81794 0.10972 0.0
C486 C 0.87474 0.77413 0.10802 0.0
C487 C 0.94714 0.83416 0.10722 0.0
C488 C 0.96308 0.80629 0.10443 0.0
C489 C 0.9341 0.76316 0.10088 0.0
C490 C 0.89012 0.74729 0.10238 0.0
C491 C 0.00883 0.82074 0.108 0.0
C492 C 0.03274 0.81181 0.09614 0.0
C493 C 0.02866 0.84262 0.12347 0.0
C494 C 0.00483 0.85009 0.13734 0.0
C495 C 0.96929 0.8156 0.14516 0.0
C496 C 0.946 0.82297 0.15772 0.0
C497 C 0.95821 0.86469 0.1627 0.0
C498 C 0.99385 0.89912 0.15517 0.0
C499 C 0.0172 0.89193 0.14258 0.0
H500 H 0.94009 0.87034 0.17239 0.0
H501 H 0.16056 0.78262 0.05363 0.0
H502 H 0.73734 0.77261 0.34441 0.0
H503 H 0.76053 0.84515 0.35391 0.0
H504 H 0.7339 0.80212 0.40666 0.0
H505 H 0.71281 0.72964 0.39721 0.0
H506 H 0.72682 0.88339 0.36759 0.0
H507 H 0.79251 0.87157 0.43331 0.0
H508 H 0.83377 0.84216 0.44707 0.0
H509 H 0.89178 0.84486 0.39847 0.0
H510 H 0.84997 0.87299 0.3844 0.0
H511 H 0.80321 0.09289 0.39781 0.0
H512 H 0.7654 0.01485 0.4011 0.0
H513 H 0.88351 0.01537 0.39263 0.0
H514 H 0.92089 0.09269 0.38943 0.0
H515 H 0.83579 0.95301 0.41343 0.0
H516 H 0.82056 0.00986 0.36051 0.0
H517 H 0.80043 0.04945 0.34045 0.0
H518 H 0.6683 0.96697 0.35263 0.0
H519 H 0.68778 0.9283 0.37358 0.0
C520 C 0.7369 0.77861 0.35806 0.0
C521 C 0.72418 0.74548 0.37007 0.0
C522 C 0.74975 0.82014 0.36349 0.0
C523 C 0.74965 0.82954 0.38106 0.0
C524 C 0.7353 0.7961 0.39306 0.0
C525 C 0.72283 0.75452 0.38763 0.0
C526 C 0.7649 0.87439 0.38663 0.0
C527 C 0.75022 0.89843 0.37778 0.0
C528 C 0.796 0.89453 0.39969 0.0
C529 C 0.81768 0.87363 0.4078 0.0
C530 C 0.8135 0.86506 0.42555 0.0
C531 C 0.83681 0.8484 0.43337 0.0
C532 C 0.86469 0.84065 0.42359 0.0
C533 C 0.86928 0.84956 0.40596 0.0
C534 C 0.84563 0.86566 0.39803 0.0
C535 C 0.82129 0.0764 0.39761 0.0
C536 C 0.86496 0.09856 0.3936 0.0
C537 C 0.79962 0.03184 0.39924 0.0
C538 C 0.82147 0.00918 0.39682 0.0
C539 C 0.86591 0.03202 0.39458 0.0
C540 C 0.88737 0.07627 0.39286 0.0
C541 C 0.79826 0.96216 0.3942 0.0
C542 C 0.81126 0.93763 0.40365 0.0
C543 C 0.76748 0.94229 0.38094 0.0
C544 C 0.75576 0.96683 0.36899 0.0
C545 C 0.78728 0.0008 0.35928 0.0
C546 C 0.77598 0.0231 0.34774 0.0
C547 C 0.73313 0.01107 0.34544 0.0
C548 C 0.70152 0.97666 0.35466 0.0
C549 C 0.71269 0.95473 0.36646 0.0
H550 H 0.7244 0.02815 0.33641 0.0
H551 H 0.88311 0.82824 0.4297 0.0
H552 H 0.21899 0.98191 0.61555 0.0
H553 H 0.19208 0.02882 0.60941 0.0
H554 H 0.3107 0.13548 0.62757 0.0
H555 H 0.33398 0.08523 0.6365 0.0
H556 H 0.26007 0.14889 0.63988 0.0
H557 H 0.25579 0.12765 0.57781 0.0
H558 H 0.24227 0.09317 0.54922 0.0
H559 H 0.11504 0.00072 0.56469 0.0
H560 H 0.12719 0.03611 0.59303 0.0
H561 H 0.15612 0.26869 0.6201 0.0
H562 H 0.20158 0.23756 0.61554 0.0
H563 H 0.09554 0.11267 0.62681 0.0
H564 H 0.04968 0.14364 0.6316 0.0
H565 H 0.14943 0.12192 0.59618 0.0
H566 H 0.16033 0.15934 0.65773 0.0
H567 H 0.1762 0.21244 0.68074 0.0
H568 H 0.30258 0.29045 0.6606 0.0
H569 H 0.28727 0.23795 0.63738 0.0
C570 C 0.23933 0.01516 0.61802 0.0
C571 C 0.27781 0.02945 0.62676 0.0
C572 C 0.22448 0.04284 0.61402 0.0
C573 C 0.24929 0.08668 0.61756 0.0
C574 C 0.29025 0.10187 0.6248 0.0
C575 C 0.30396 0.07331 0.62974 0.0
C576 C 0.22947 0.11436 0.61643 0.0
C577 C 0.23698 0.14358 0.6299 0.0
C578 C 0.19859 0.10814 0.60371 0.0
C579 C 0.19268 0.08401 0.58757 0.0
C580 C 0.22515 0.09967 0.57515 0.0
C581 C 0.21746 0.08043 0.55891 0.0
C582 C 0.17785 0.04472 0.55516 0.0
C583 C 0.14569 0.02838 0.5676 0.0
C584 C 0.15278 0.0483 0.58366 0.0
C585 C 0.14218 0.23449 0.62137 0.0
C586 C 0.09931 0.20856 0.62634 0.0
C587 C 0.16833 0.2169 0.61886 0.0
C588 C 0.1519 0.17307 0.62107 0.0
C589 C 0.10868 0.1467 0.62517 0.0
C590 C 0.08258 0.16437 0.62792 0.0
C591 C 0.18 0.15468 0.61954 0.0
C592 C 0.17361 0.12743 0.60572 0.0
C593 C 0.21304 0.16421 0.63144 0.0
C594 C 0.22257 0.19489 0.64577 0.0
C595 C 0.19144 0.18788 0.65819 0.0
C596 C 0.20034 0.21786 0.67127 0.0
C597 C 0.24035 0.25483 0.67211 0.0
C598 C 0.27161 0.2618 0.65994 0.0
C599 C 0.26287 0.23191 0.64684 0.0
H600 H 0.24713 0.27805 0.68222 0.0
H601 H 0.17214 0.02965 0.54262 0.0
H602 H 0.10617 0.89217 0.908 0.0
H603 H 0.02842 0.84864 0.91237 0.0
H604 H 0.02205 0.75859 0.8743 0.0
H605 H 0.09891 0.80152 0.86996 0.0
H606 H 0.97094 0.79683 0.86704 0.0
H607 H 0.98636 0.71179 0.91447 0.0
H608 H 0.02274 0.71156 0.94139 0.0
H609 H 0.99141 0.80066 0.9642 0.0
H610 H 0.95654 0.80264 0.93723 0.0
H611 H 0.75167 0.68415 0.86377 0.0
H612 H 0.82016 0.6872 0.86856 0.0
H613 H 0.83733 0.75816 0.91545 0.0
H614 H 0.76825 0.75249 0.91129 0.0
H615 H 0.88345 0.72168 0.91815 0.0
H616 H 0.86459 0.80651 0.87464 0.0
H617 H 0.83337 0.81803 0.84836 0.0
H618 H 0.87888 0.7488 0.81852 0.0
H619 H 0.90981 0.73632 0.84469 0.0
C620 C 0.08828 0.86225 0.90111 0.0
C621 C 0.10832 0.85029 0.88858 0.0
C622 C 0.04391 0.83751 0.90351 0.0
C623 C 0.01943 0.80056 0.8935 0.0
C624 C 0.04019 0.78705 0.88205 0.0
C625 C 0.08413 0.81156 0.87965 0.0
C626 C 0.97206 0.77869 0.89332 0.0
C627 C 0.95171 0.77997 0.87815 0.0
C628 C 0.94719 0.75779 0.90789 0.0
C629 C 0.96764 0.75623 0.92412 0.0
C630 C 0.98705 0.73106 0.92531 0.0
C631 C 0.00773 0.73093 0.94051 0.0
C632 C 0.00912 0.75585 0.95456 0.0
C633 C 0.99011 0.78118 0.95338 0.0
C634 C 0.96974 0.78168 0.93817 0.0
C635 C 0.76864 0.69748 0.87574 0.0
C636 C 0.75446 0.71773 0.88725 0.0
C637 C 0.80833 0.70011 0.87831 0.0
C638 C 0.83484 0.72425 0.89212 0.0
C639 C 0.81786 0.73932 0.90475 0.0
C640 C 0.77795 0.73578 0.9024 0.0
C641 C 0.88188 0.74058 0.89193 0.0
C642 C 0.90243 0.73839 0.907 0.0
C643 C 0.90728 0.76231 0.87739 0.0
C644 C 0.88899 0.77001 0.86163 0.0
C645 C 0.86771 0.79354 0.86248 0.0
C646 C 0.85007 0.80024 0.84761 0.0
C647 C 0.85402 0.78404 0.83179 0.0
C648 C 0.87573 0.76122 0.83079 0.0
C649 C 0.89329 0.75429 0.84564 0.0
H650 H 0.84036 0.78927 0.82029 0.0
H651 H 0.02512 0.75573 0.96632 0.0
H652 H 0.70561 0.91195 0.59452 0.0
H653 H 0.75838 0.9873 0.59148 0.0
H654 H 0.85853 0.96018 0.60368 0.0
H655 H 0.80523 0.88415 0.60713 0.0
H656 H 0.85884 0.01755 0.62578 0.0
H657 H 0.86136 0.00799 0.56393 0.0
H658 H 0.83052 0.98701 0.53479 0.0
H659 H 0.76128 0.05356 0.54232 0.0
H660 H 0.7926 0.07582 0.57137 0.0
H661 H 0.01923 0.24149 0.60143 0.0
H662 H 0.96994 0.16765 0.59339 0.0
H663 H 0.87632 0.16518 0.62843 0.0
H664 H 0.92597 0.23979 0.63648 0.0
H665 H 0.87719 0.12357 0.58121 0.0
H666 H 0.85738 0.10225 0.64862 0.0
H667 H 0.89408 0.12656 0.67668 0.0
H668 H 0.00099 0.11911 0.65691 0.0
H669 H 0.96525 0.09584 0.62857 0.0
C670 C 0.73911 0.9217 0.5957 0.0
C671 C 0.75139 0.89221 0.60093 0.0
C672 C 0.76932 0.96493 0.59406 0.0
C673 C 0.81251 0.97955 0.59754 0.0
C674 C 0.82533 0.9495 0.60111 0.0
C675 C 0.79499 0.90602 0.60274 0.0
C676 C 0.84261 0.0261 0.59988 0.0
C677 C 0.863 0.04051 0.61591 0.0
C678 C 0.84795 0.05648 0.58722 0.0
C679 C 0.82907 0.04329 0.56982 0.0
C680 C 0.83944 0.01801 0.55937 0.0
C681 C 0.82199 0.00601 0.54287 0.0
C682 C 0.79363 0.01859 0.53676 0.0
C683 C 0.78316 0.04374 0.54708 0.0
C684 C 0.80101 0.05634 0.56351 0.0
C685 C 0.98752 0.22611 0.6068 0.0
C686 C 0.97585 0.24705 0.61908 0.0
C687 C 0.95956 0.18354 0.6024 0.0
C688 C 0.91957 0.16091 0.61035 0.0
C689 C 0.90721 0.18204 0.62224 0.0
C690 C 0.93534 0.22467 0.6267 0.0
C691 C 0.89232 0.11449 0.6071 0.0
C692 C 0.87276 0.10031 0.59097 0.0
C693 C 0.88762 0.08422 0.61963 0.0
C694 C 0.90886 0.09761 0.63657 0.0
C695 C 0.88878 0.10598 0.65028 0.0
C696 C 0.90946 0.11971 0.66618 0.0
C697 C 0.94993 0.12454 0.66854 0.0
C698 C 0.96977 0.11559 0.65501 0.0
C699 C 0.94942 0.10232 0.63902 0.0
H700 H 0.96588 0.13511 0.68086 0.0
H701 H 0.7799 0.00897 0.52402 0.0
H702 H 0.14525 0.28306 0.86963 0.0
H703 H 0.20197 0.2658 0.87411 0.0
H704 H 0.11021 0.14413 0.89549 0.0
H705 H 0.0532 0.16096 0.89062 0.0
H706 H 0.20592 0.1995 0.91149 0.0
H707 H 0.11711 0.12711 0.85947 0.0
H708 H 0.08447 0.12931 0.83186 0.0
H709 H 0.20612 0.22788 0.81366 0.0
H710 H 0.23953 0.22607 0.84117 0.0
H711 H 0.24151 0.02926 0.90122 0.0
H712 H 0.23 0.08857 0.90646 0.0
H713 H 0.30013 0.14985 0.86016 0.0
H714 H 0.30789 0.08755 0.85418 0.0
H715 H 0.23131 0.14456 0.8568 0.0
H716 H 0.32358 0.19753 0.90494 0.0
H717 H 0.35812 0.19624 0.93213 0.0
H718 H 0.23773 0.14217 0.95831 0.0
H719 H 0.20232 0.1426 0.93127 0.0
C720 C 0.13749 0.25337 0.87589 0.0
C721 C 0.09496 0.22325 0.87982 0.0
C722 C 0.16987 0.24349 0.87836 0.0
C723 C 0.16019 0.20376 0.88514 0.0
C724 C 0.11828 0.17508 0.89036 0.0
C725 C 0.08578 0.18458 0.88752 0.0
C726 C 0.19191 0.18938 0.88445 0.0
C727 C 0.21185 0.18749 0.89961 0.0
C728 C 0.20074 0.17548 0.8688 0.0
C729 C 0.18064 0.17687 0.8524 0.0
C730 C 0.13677 0.14951 0.84963 0.0
C731 C 0.11816 0.15063 0.83401 0.0
C732 C 0.1431 0.17897 0.82108 0.0
C733 C 0.1868 0.20607 0.82371 0.0
C734 C 0.20561 0.20495 0.83929 0.0
C735 C 0.2567 0.05656 0.89272 0.0
C736 C 0.27604 0.05411 0.87744 0.0
C737 C 0.25007 0.09084 0.89571 0.0
C738 C 0.26406 0.12431 0.88374 0.0
C739 C 0.28855 0.12442 0.86957 0.0
C740 C 0.2938 0.08919 0.86627 0.0
C741 C 0.24547 0.15314 0.8841 0.0
C742 C 0.22733 0.15769 0.86877 0.0
C743 C 0.23907 0.17009 0.89964 0.0
C744 C 0.26027 0.17004 0.91602 0.0
C745 C 0.30441 0.18517 0.91647 0.0
C746 C 0.32416 0.18462 0.93187 0.0
C747 C 0.30014 0.16911 0.94694 0.0
C748 C 0.25632 0.15423 0.94664 0.0
C749 C 0.23641 0.15474 0.93128 0.0
H750 H 0.31548 0.16866 0.95884 0.0
H751 H 0.1286 0.17977 0.80899 0.0
H752 H 0.10097 0.82451 0.62975 0.0
H753 H 0.02342 0.78164 0.62796 0.0
H754 H 0.02134 0.87801 0.59587 0.0
H755 H 0.09923 0.92179 0.59837 0.0
H756 H 0.97868 0.86827 0.62328 0.0
H757 H 0.98123 0.77172 0.58267 0.0
H758 H 0.0025 0.72269 0.56995 0.0
H759 H 0.94862 0.6384 0.61307 0.0
H760 H 0.92794 0.68738 0.62632 0.0
H761 H 0.75948 0.76523 0.6101 0.0
H762 H 0.82721 0.7699 0.60315 0.0
H763 H 0.842 0.74479 0.65622 0.0
H764 H 0.77419 0.74192 0.6634 0.0
H765 H 0.87549 0.71342 0.61741 0.0
H766 H 0.88607 0.82478 0.65908 0.0
H767 H 0.86496 0.87656 0.66873 0.0
H768 H 0.89793 0.93692 0.61918 0.0
H769 H 0.91645 0.88377 0.6089 0.0
C770 C 0.08389 0.83556 0.62175 0.0
C771 C 0.10534 0.87609 0.6142 0.0
C772 C 0.03964 0.81099 0.62066 0.0
C773 C 0.01649 0.82665 0.61184 0.0
C774 C 0.03863 0.86544 0.6028 0.0
C775 C 0.08294 0.89034 0.60414 0.0
C776 C 0.97018 0.80747 0.61505 0.0
C777 C 0.95624 0.83443 0.62175 0.0
C778 C 0.94091 0.76316 0.61347 0.0
C779 C 0.95334 0.73352 0.60558 0.0
C780 C 0.97431 0.74297 0.58956 0.0
C781 C 0.98626 0.71515 0.58225 0.0
C782 C 0.9771 0.67754 0.59075 0.0
C783 C 0.95588 0.66764 0.60656 0.0
C784 C 0.94401 0.69541 0.61397 0.0
C785 C 0.77618 0.75884 0.62014 0.0
C786 C 0.76181 0.75305 0.63723 0.0
C787 C 0.81484 0.76145 0.61615 0.0
C788 C 0.83947 0.7579 0.6292 0.0
C789 C 0.8231 0.74748 0.64601 0.0
C790 C 0.78453 0.74576 0.65011 0.0
C791 C 0.88505 0.77432 0.62579 0.0
C792 C 0.89852 0.74706 0.61898 0.0
C793 C 0.91416 0.81855 0.62701 0.0
C794 C 0.90136 0.84944 0.63307 0.0
C795 C 0.88745 0.84821 0.65007 0.0
C796 C 0.87598 0.87787 0.65566 0.0
C797 C 0.87939 0.90964 0.64448 0.0
C798 C 0.89434 0.9118 0.62771 0.0
C799 C 0.90507 0.88174 0.62197 0.0
H800 H 0.8709 0.93285 0.64886 0.0
H801 H 0.98631 0.65599 0.58506 0.0
H802 H 0.99438 0.25489 0.89857 0.0
H803 H 0.94401 0.18145 0.90763 0.0
H804 H 0.87414 0.16015 0.86022 0.0
H805 H 0.92565 0.23273 0.8508 0.0
H806 H 0.83346 0.13106 0.90306 0.0
H807 H 0.89699 0.11114 0.84966 0.0
H808 H 0.95532 0.12223 0.83012 0.0
H809 H 0.01663 0.09423 0.87129 0.0
H810 H 0.95926 0.08457 0.89128 0.0
H811 H 0.69791 0.91394 0.87884 0.0
H812 H 0.74255 0.9907 0.88357 0.0
H813 H 0.83349 0.96933 0.91129 0.0
H814 H 0.78816 0.89198 0.90671 0.0
H815 H 0.86769 0.02135 0.88289 0.0
H816 H 0.78446 0.01537 0.93182 0.0
H817 H 0.71693 0.99297 0.9472 0.0
H818 H 0.68466 0.0622 0.91115 0.0
H819 H 0.75177 0.0846 0.8954 0.0
C820 C 0.96773 0.23483 0.8903 0.0
C821 C 0.9637 0.24956 0.87406 0.0
C822 C 0.93918 0.19281 0.89541 0.0
C823 C 0.90573 0.16521 0.88447 0.0
C824 C 0.90011 0.18075 0.86873 0.0
C825 C 0.92925 0.22229 0.86344 0.0
C826 C 0.87801 0.11955 0.88897 0.0
C827 C 0.84087 0.107 0.8987 0.0
C828 C 0.88788 0.08823 0.88343 0.0
C829 C 0.92457 0.09845 0.87206 0.0
C830 C 0.92359 0.10872 0.85469 0.0
C831 C 0.95626 0.11436 0.8435 0.0
C832 C 0.98969 0.10903 0.84948 0.0
C833 C 0.99077 0.09852 0.86672 0.0
C834 C 0.95837 0.09328 0.87801 0.0
C835 C 0.72646 0.92556 0.88664 0.0
C836 C 0.7395 0.89725 0.89259 0.0
C837 C 0.75205 0.96944 0.8893 0.0
C838 C 0.79145 0.98588 0.89778 0.0
C839 C 0.80312 0.95733 0.90479 0.0
C840 C 0.77708 0.91319 0.90234 0.0
C841 C 0.82268 0.03241 0.89687 0.0
C842 C 0.86063 0.04532 0.88773 0.0
C843 C 0.81283 0.06369 0.9026 0.0
C844 C 0.77318 0.05162 0.91241 0.0
C845 C 0.76294 0.02576 0.92714 0.0
C846 C 0.72473 0.01306 0.93593 0.0
C847 C 0.69656 0.0262 0.93017 0.0
C848 C 0.70659 0.05216 0.91563 0.0
C849 C 0.74477 0.06496 0.90679 0.0
H850 H 0.66694 0.01625 0.93696 0.0
H851 H 0.01469 0.11302 0.84076 0.0
H852 H 0.35325 0.04773 0.31415 0.0
H853 H 0.379 0.07048 0.2848 0.0
H854 H 0.38812 0.19211 0.29475 0.0
H855 H 0.36317 0.16957 0.32446 0.0
H856 H 0.33393 0.14347 0.26636 0.0
H857 H 0.47658 0.19462 0.28593 0.0
H858 H 0.53368 0.19066 0.30164 0.0
H859 H 0.51328 0.08353 0.27074 0.0
H860 H 0.45581 0.08657 0.25488 0.0
H861 H 0.37139 0.18044 0.17773 0.0
H862 H 0.39525 0.1988 0.20783 0.0
H863 H 0.38641 0.0763 0.21432 0.0
H864 H 0.36229 0.05794 0.18452 0.0
H865 H 0.4527 0.14236 0.2348 0.0
H866 H 0.30277 0.07633 0.22234 0.0
H867 H 0.24019 0.06937 0.2068 0.0
H868 H 0.26816 0.19268 0.22529 0.0
H869 H 0.3315 0.20066 0.24069 0.0
C870 C 0.36209 0.07983 0.31023 0.0
C871 C 0.35645 0.10701 0.32151 0.0
C872 C 0.37686 0.09283 0.29348 0.0
C873 C 0.38556 0.13301 0.28758 0.0
C874 C 0.38185 0.16108 0.29909 0.0
C875 C 0.3679 0.14834 0.31606 0.0
C876 C 0.3928 0.14268 0.26888 0.0
C877 C 0.36075 0.14483 0.25953 0.0
C878 C 0.42677 0.14245 0.25991 0.0
C879 C 0.46169 0.14073 0.26926 0.0
C880 C 0.48406 0.17003 0.28254 0.0
C881 C 0.51652 0.16796 0.29148 0.0
C882 C 0.52699 0.13677 0.28725 0.0
C883 C 0.50513 0.10768 0.27401 0.0
C884 C 0.47268 0.10964 0.265 0.0
C885 C 0.3766 0.15844 0.18538 0.0
C886 C 0.36521 0.1179 0.1789 0.0
C887 C 0.38996 0.16878 0.20258 0.0
C888 C 0.39234 0.13876 0.21335 0.0
C889 C 0.38505 0.10002 0.20627 0.0
C890 C 0.3713 0.08957 0.18923 0.0
C891 C 0.39407 0.14361 0.23241 0.0
C892 C 0.42706 0.14309 0.24175 0.0
C893 C 0.36039 0.14416 0.24146 0.0
C894 C 0.32218 0.1394 0.23242 0.0
C895 C 0.2958 0.10214 0.22294 0.0
C896 C 0.26018 0.09798 0.21418 0.0
C897 C 0.2503 0.13065 0.215 0.0
C898 C 0.27595 0.16748 0.22462 0.0
C899 C 0.31174 0.17186 0.23336 0.0
H900 H 0.22268 0.12737 0.20821 0.0
H901 H 0.55211 0.13523 0.2942 0.0
H902 H 0.74876 0.58163 0.32711 0.0
H903 H 0.75077 0.56859 0.29614 0.0
H904 H 0.82924 0.70418 0.28781 0.0
H905 H 0.82565 0.71701 0.31854 0.0
H906 H 0.76194 0.67258 0.26778 0.0
H907 H 0.86488 0.62752 0.28322 0.0
H908 H 0.88619 0.58188 0.29891 0.0
H909 H 0.78195 0.47015 0.27606 0.0
H910 H 0.75976 0.51513 0.26039 0.0
H911 H 0.86018 0.71104 0.18885 0.0
H912 H 0.85239 0.68911 0.21892 0.0
H913 H 0.73268 0.57638 0.2071 0.0
H914 H 0.73988 0.59875 0.17678 0.0
H915 H 0.80565 0.58083 0.23651 0.0
H916 H 0.70191 0.62193 0.22099 0.0
H917 H 0.67573 0.66448 0.20606 0.0
H918 H 0.77391 0.77854 0.23008 0.0
H919 H 0.80124 0.73671 0.24487 0.0
C920 C 0.76789 0.60836 0.3187 0.0
C921 C 0.78771 0.65026 0.32515 0.0
C922 C 0.76878 0.60096 0.30098 0.0
C923 C 0.79009 0.63541 0.28955 0.0
C924 C 0.81238 0.67706 0.2963 0.0
C925 C 0.81085 0.68442 0.31388 0.0
C926 C 0.78613 0.6292 0.27048 0.0
C927 C 0.7717 0.65258 0.26101 0.0
C928 C 0.79659 0.60141 0.26156 0.0
C929 C 0.8105 0.57464 0.27075 0.0
C930 C 0.84641 0.59321 0.28161 0.0
C931 C 0.85865 0.56746 0.29049 0.0
C932 C 0.8354 0.52314 0.28851 0.0
C933 C 0.79993 0.50448 0.27759 0.0
C934 C 0.78754 0.53007 0.26869 0.0
C935 C 0.83304 0.68064 0.19246 0.0
C936 C 0.80058 0.65673 0.18045 0.0
C937 C 0.82853 0.66826 0.20968 0.0
C938 C 0.79173 0.6315 0.21525 0.0
C939 C 0.76134 0.60491 0.20302 0.0
C940 C 0.76571 0.61751 0.18567 0.0
C941 C 0.78315 0.62549 0.23402 0.0
C942 C 0.79523 0.60012 0.2434 0.0
C943 C 0.76968 0.65077 0.24298 0.0
C944 C 0.75409 0.67627 0.23378 0.0
C945 C 0.71839 0.65618 0.22285 0.0
C946 C 0.70322 0.68014 0.21447 0.0
C947 C 0.72327 0.72422 0.21705 0.0
C948 C 0.75851 0.74442 0.22803 0.0
C949 C 0.77388 0.7206 0.2364 0.0
H950 H 0.7114 0.7427 0.2106 0.0
H951 H 0.8449 0.50326 0.29541 0.0
H952 H 0.91151 0.29623 0.18407 0.0
H953 H 0.89807 0.30551 0.21424 0.0
H954 H 0.79266 0.17626 0.21526 0.0
H955 H 0.80616 0.16708 0.1849 0.0
H956 H 0.77915 0.2331 0.23659 0.0
H957 H 0.8863 0.19314 0.22661 0.0
H958 H 0.9521 0.20005 0.2141 0.0
H959 H 0.02571 0.32362 0.23749 0.0
H960 H 0.96019 0.31773 0.24991 0.0
H961 H 0.79907 0.16485 0.32196 0.0
H962 H 0.78789 0.17711 0.29181 0.0
H963 H 0.8874 0.30854 0.29648 0.0
H964 H 0.89766 0.29652 0.32673 0.0
H965 H 0.90326 0.25817 0.27236 0.0
H966 H 0.79848 0.29559 0.28511 0.0
H967 H 0.73356 0.28897 0.29834 0.0
H968 H 0.65669 0.17179 0.27084 0.0
H969 H 0.7213 0.17734 0.25762 0.0
C970 C 0.88427 0.27048 0.19052 0.0
C971 C 0.85938 0.23119 0.18213 0.0
C972 C 0.87686 0.27565 0.20781 0.0
C973 C 0.84472 0.2414 0.21712 0.0
C974 C 0.81756 0.20316 0.20835 0.0
C975 C 0.82506 0.19797 0.19099 0.0
C976 C 0.84325 0.24374 0.23629 0.0
C977 C 0.80614 0.23827 0.24443 0.0
C978 C 0.87885 0.25151 0.24656 0.0
C979 C 0.91825 0.25524 0.23898 0.0
C980 C 0.91645 0.22198 0.22893 0.0
C981 C 0.95371 0.22568 0.22188 0.0
C982 C 0.99304 0.26231 0.22495 0.0
C983 C 0.9952 0.29531 0.23509 0.0
C984 C 0.95802 0.29182 0.24213 0.0
C985 C 0.81664 0.19691 0.31682 0.0
C986 C 0.84864 0.22991 0.32671 0.0
C987 C 0.81057 0.20385 0.29954 0.0
C988 C 0.83706 0.24367 0.29184 0.0
C989 C 0.86654 0.27761 0.30215 0.0
C990 C 0.87201 0.27085 0.3195 0.0
C991 C 0.83916 0.24745 0.27271 0.0
C992 C 0.87643 0.25366 0.26455 0.0
C993 C 0.80381 0.24042 0.26253 0.0
C994 C 0.76481 0.23665 0.2705 0.0
C995 C 0.76779 0.26814 0.28201 0.0
C996 C 0.73103 0.26465 0.28948 0.0
C997 C 0.69103 0.22991 0.28547 0.0
C998 C 0.68772 0.19865 0.27395 0.0
C999 C 0.7244 0.20198 0.26645 0.0
H1000 H 0.66258 0.22727 0.29125 0.0
H1001 H 0.02186 0.26508 0.21951 0.0
H1002 H 0.14056 0.40824 0.67888 0.0
H1003 H 0.14988 0.41445 0.71032 0.0
H1004 H 0.06548 0.27856 0.71512 0.0
H1005 H 0.05464 0.27268 0.68409 0.0
H1006 H 0.04622 0.31644 0.73839 0.0
H1007 H 0.18204 0.33384 0.71768 0.0
H1008 H 0.24798 0.37123 0.70044 0.0
H1009 H 0.28391 0.48754 0.72794 0.0
H1010 H 0.21791 0.45094 0.74518 0.0
H1011 H 0.07592 0.25492 0.81797 0.0
H1012 H 0.08581 0.26781 0.787 0.0
H1013 H 0.16041 0.40329 0.7964 0.0
H1014 H 0.15156 0.39015 0.82766 0.0
H1015 H 0.18777 0.37899 0.76683 0.0
H1016 H 0.05728 0.36162 0.78927 0.0
H1017 H 0.99054 0.32715 0.80606 0.0
H1018 H 0.94355 0.21439 0.77481 0.0
H1019 H 0.01031 0.24792 0.75801 0.0
C1020 C 0.12399 0.37981 0.68671 0.0
C1021 C 0.0968 0.34 0.67902 0.0
C1022 C 0.12954 0.38331 0.70467 0.0
C1023 C 0.10881 0.34687 0.71519 0.0
C1024 C 0.08177 0.30722 0.7074 0.0
C1025 C 0.07564 0.30387 0.68959 0.0
C1026 C 0.11417 0.34914 0.73432 0.0
C1027 C 0.07723 0.32977 0.74453 0.0
C1028 C 0.15461 0.36828 0.74255 0.0
C1029 C 0.19493 0.38975 0.73262 0.0
C1030 C 0.20399 0.3674 0.72002 0.0
C1031 C 0.24134 0.38846 0.71024 0.0
C1032 C 0.27007 0.43176 0.71307 0.0
C1033 C 0.26162 0.45402 0.72575 0.0
C1034 C 0.22428 0.43313 0.73554 0.0
C1035 C 0.09596 0.28731 0.81345 0.0
C1036 C 0.11324 0.32149 0.82516 0.0
C1037 C 0.10123 0.29473 0.79574 0.0
C1038 C 0.12293 0.3366 0.78933 0.0
C1039 C 0.1434 0.37074 0.80103 0.0
C1040 C 0.13862 0.36321 0.81888 0.0
C1041 C 0.11972 0.34413 0.77064 0.0
C1042 C 0.15686 0.36575 0.76062 0.0
C1043 C 0.07942 0.32733 0.7625 0.0
C1044 C 0.03897 0.30719 0.77246 0.0
C1045 C 0.03283 0.32937 0.78605 0.0
C1046 C 0.99499 0.31001 0.79557 0.0
C1047 C 0.96286 0.26858 0.79153 0.0
C1048 C 0.96848 0.24647 0.77793 0.0
C1049 C 0.0063 0.26565 0.7684 0.0
H1050 H 0.93359 0.25365 0.79891 0.0
H1051 H 0.29889 0.44804 0.70544 0.0
H1052 H 0.31373 0.92826 0.82059 0.0
H1053 H 0.31536 0.9128 0.79006 0.0
H1054 H 0.18964 0.80262 0.79423 0.0
H1055 H 0.18783 0.81841 0.82493 0.0
H1056 H 0.25273 0.80155 0.76616 0.0
H1057 H 0.18303 0.87969 0.78681 0.0
H1058 H 0.18123 0.93499 0.80485 0.0
H1059 H 0.29599 0.03134 0.7808 0.0
H1060 H 0.29888 0.9764 0.76286 0.0
H1061 H 0.17964 0.82296 0.68028 0.0
H1062 H 0.18882 0.80629 0.71026 0.0
H1063 H 0.29719 0.93302 0.71601 0.0
H1064 H 0.28748 0.94976 0.68658 0.0
H1065 H 0.23892 0.91858 0.73948 0.0
H1066 H 0.30851 0.84545 0.71752 0.0
H1067 H 0.31591 0.79284 0.69984 0.0
H1068 H 0.20831 0.6906 0.72547 0.0
H1069 H 0.19978 0.74267 0.74312 0.0
C1070 C 0.28748 0.89934 0.81523 0.0
C1071 C 0.25081 0.87431 0.8251 0.0
C1072 C 0.28835 0.89061 0.79775 0.0
C1073 C 0.25249 0.85677 0.78983 0.0
C1074 C 0.21781 0.82864 0.80012 0.0
C1075 C 0.21687 0.83752 0.81769 0.0
C1076 C 0.24761 0.85748 0.77084 0.0
C1077 C 0.2491 0.82668 0.76026 0.0
C1078 C 0.24368 0.89076 0.76315 0.0
C1079 C 0.24139 0.92391 0.77363 0.0
C1080 C 0.20804 0.91262 0.78547 0.0
C1081 C 0.20681 0.9439 0.79567 0.0
C1082 C 0.23853 0.98664 0.794 0.0
C1083 C 0.27147 -0.00179 0.78209 0.0
C1084 C 0.27292 0.96702 0.77191 0.0
C1085 C 0.20602 0.84665 0.68787 0.0
C1086 C 0.23252 0.88779 0.68127 0.0
C1087 C 0.21129 0.83718 0.70497 0.0
C1088 C 0.24343 0.86863 0.7155 0.0
C1089 C 0.27188 0.90841 0.70828 0.0
C1090 C 0.26634 0.91792 0.69143 0.0
C1091 C 0.24463 0.86299 0.73448 0.0
C1092 C 0.24225 0.89306 0.7452 0.0
C1093 C 0.24816 0.82932 0.74211 0.0
C1094 C 0.25314 0.79798 0.73149 0.0
C1095 C 0.28612 0.81177 0.71927 0.0
C1096 C 0.29061 0.78204 0.70928 0.0
C1097 C 0.26254 0.73841 0.7115 0.0
C1098 C 0.22998 0.72441 0.72374 0.0
C1099 C 0.22531 0.75402 0.73375 0.0
H1100 H 0.26608 0.71544 0.70376 0.0
H1101 H 0.23754 0.01081 0.80191 0.0
H1102 H 0.58715 0.77077 0.68093 0.0
H1103 H 0.57427 0.75693 0.71168 0.0
H1104 H 0.64635 0.69149 0.71137 0.0
H1105 H 0.6591 0.70503 0.68021 0.0
H1106 H 0.57615 0.65657 0.73548 0.0
H1107 H 0.69857 0.78918 0.72159 0.0
H1108 H 0.74028 0.85814 0.70677 0.0
H1109 H 0.65974 0.90193 0.72846 0.0
H1110 H 0.61707 0.83287 0.7432 0.0
H1111 H 0.65713 0.70156 0.82049 0.0
H1112 H 0.63984 0.68934 0.79011 0.0
H1113 H 0.58505 0.7713 0.79242 0.0
H1114 H 0.60431 0.78513 0.82322 0.0
H1115 H 0.64126 0.79443 0.7671 0.0
H1116 H 0.52464 0.6577 0.78469 0.0
H1117 H 0.4946 0.59056 0.80114 0.0
H1118 H 0.57502 0.55499 0.77358 0.0
H1119 H 0.6061 0.62217 0.75717 0.0
C1120 C 0.5994 0.75246 0.68728 0.0
C1121 C 0.62474 0.73958 0.67822 0.0
C1122 C 0.59201 0.7446 0.70489 0.0
C1123 C 0.61013 0.72405 0.71393 0.0
C1124 C 0.63222 0.70761 0.70466 0.0
C1125 C 0.63945 0.71529 0.68687 0.0
C1126 C 0.61028 0.72493 0.73313 0.0
C1127 C 0.59045 0.68663 0.74243 0.0
C1128 C 0.62894 0.76417 0.74223 0.0
C1129 C 0.65427 0.80566 0.73331 0.0
C1130 C 0.68945 0.81334 0.72305 0.0
C1131 C 0.71333 0.85247 0.71469 0.0
C1132 C 0.70258 0.88435 0.71662 0.0
C1133 C 0.66796 0.87716 0.72694 0.0
C1134 C 0.64392 0.83803 0.7353 0.0
C1135 C 0.64037 0.7162 0.81467 0.0
C1136 C 0.63216 0.74442 0.82422 0.0
C1137 C 0.63018 0.70888 0.79723 0.0
C1138 C 0.61063 0.72891 0.78885 0.0
C1139 C 0.59996 0.75525 0.79861 0.0
C1140 C 0.6105 0.76285 0.81623 0.0
C1141 C 0.60624 0.72604 0.76966 0.0
C1142 C 0.62586 0.7642 0.76025 0.0
C1143 C 0.58832 0.68662 0.76058 0.0
C1144 C 0.56783 0.64511 0.76974 0.0
C1145 C 0.53592 0.63557 0.78213 0.0
C1146 C 0.51877 0.59754 0.79147 0.0
C1147 C 0.53301 0.56866 0.78842 0.0
C1148 C 0.56407 0.57745 0.77592 0.0
C1149 C 0.58139 0.61545 0.76657 0.0
H1150 H 0.52011 0.53955 0.79579 0.0
H1151 H 0.72114 0.91465 0.71016 0.0
H1152 H 0.19167 0.86282 0.95152 0.0
H1153 H 0.1904 0.89568 0.97899 0.0
H1154 H 0.22591 0.01368 0.95279 0.0
H1155 H 0.226 0.98046 0.9252 0.0
H1156 H 0.28467 0.01493 0.97965 0.0
H1157 H 0.13494 0.96842 0.97112 0.0
H1158 H 0.0594 0.91512 0.96589 0.0
H1159 H 0.05815 0.84667 0.0112 0.0
H1160 H 0.13386 0.89916 0.01656 0.0
H1161 H 0.32063 0.13781 0.05245 0.0
H1162 H 0.28844 0.10491 0.02483 0.0
H1163 H 0.21549 0.98294 0.04987 0.0
H1164 H 0.24598 0.01646 0.07769 0.0
H1165 H 0.17234 0.98301 0.02323 0.0
H1166 H 0.3141 0.01398 0.03149 0.0
H1167 H 0.39057 0.0568 0.03864 0.0
H1168 H 0.40981 0.1398 0.99596 0.0
H1169 H 0.33323 0.09778 0.98869 0.0
C1170 C 0.19718 0.89514 0.95151 0.0
C1171 C 0.20848 0.91893 0.93617 0.0
C1172 C 0.19673 0.91399 0.96725 0.0
C1173 C 0.20829 0.95721 0.96798 0.0
C1174 C 0.21672 0.98022 0.95252 0.0
C1175 C 0.21625 0.96106 0.93672 0.0
C1176 C 0.21733 0.9796 0.98491 0.0
C1177 C 0.25998 0.00875 0.98902 0.0
C1178 C 0.18549 0.96947 0.99755 0.0
C1179 C 0.14014 0.93764 0.99419 0.0
C1180 C 0.11869 0.94178 0.97987 0.0
C1181 C 0.07581 0.91175 0.97691 0.0
C1182 C 0.054 0.8776 0.98823 0.0
C1183 C 0.07508 0.8732 0.00247 0.0
C1184 C 0.11795 0.9031 0.00548 0.0
C1185 C 0.29639 0.10436 0.05216 0.0
C1186 C 0.28591 0.07973 0.06723 0.0
C1187 C 0.27838 0.08537 0.03631 0.0
C1188 C 0.25065 0.04103 0.03507 0.0
C1189 C 0.23706 0.0171 0.05037 0.0
C1190 C 0.25433 0.03637 0.06633 0.0
C1191 C 0.23968 0.01945 0.01783 0.0
C1192 C 0.19697 0.98992 0.01376 0.0
C1193 C 0.2717 0.02766 0.00543 0.0
C1194 C 0.31784 0.05303 0.00966 0.0
C1195 C 0.33458 0.04156 0.0237 0.0
C1196 C 0.37794 0.06565 0.02777 0.0
C1197 C 0.40501 0.10107 0.01779 0.0
C1198 C 0.38878 0.11239 0.00369 0.0
C1199 C 0.34539 0.08844 0.99958 0.0
H1200 H 0.43859 0.11969 0.02095 0.0
H1201 H 0.02069 0.8547 0.98605 0.0
H1202 H 0.84153 0.7278 0.43785 0.0
H1203 H 0.84684 0.7597 0.46641 0.0
H1204 H 0.7276 0.75648 0.45734 0.0
H1205 H 0.7228 0.72537 0.42894 0.0
H1206 H 0.77505 0.82188 0.4771 0.0
H1207 H 0.72956 0.67329 0.47658 0.0
H1208 H 0.73404 0.60886 0.47018 0.0
H1209 H 0.848 0.65773 0.5007 0.0
H1210 H 0.84447 0.72281 0.50709 0.0
H1211 H 0.65114 0.75087 0.55153 0.0
H1212 H 0.68602 0.76077 0.52389 0.0
H1213 H 0.80404 0.79253 0.54952 0.0
H1214 H 0.76866 0.78248 0.57776 0.0
H1215 H 0.77624 0.72737 0.52306 0.0
H1216 H 0.7947 0.86739 0.52994 0.0
H1217 H 0.76734 0.9155 0.53732 0.0
H1218 H 0.68209 0.86906 0.49406 0.0
H1219 H 0.707 0.81874 0.48697 0.0
C1220 C 0.81763 0.73583 0.44171 0.0
C1221 C 0.78204 0.7247 0.4312 0.0
C1222 C 0.82032 0.75351 0.4581 0.0
C1223 C 0.78715 0.75971 0.46421 0.0
C1224 C 0.7536 0.75207 0.453 0.0
C1225 C 0.75096 0.73448 0.43671 0.0
C1226 C 0.78405 0.76868 0.48277 0.0
C1227 C 0.77572 0.80151 0.48718 0.0
C1228 C 0.78465 0.74197 0.49597 0.0
C1229 C 0.78718 0.70318 0.49207 0.0
C1230 C 0.75581 0.67047 0.48178 0.0
C1231 C 0.75812 0.63382 0.47818 0.0
C1232 C 0.7914 0.62929 0.48496 0.0
C1233 C 0.82235 0.66137 0.4954 0.0
C1234 C 0.82023 0.69816 0.49901 0.0
C1235 C 0.68469 0.76038 0.5514 0.0
C1236 C 0.70711 0.7656 0.56685 0.0
C1237 C 0.70465 0.76628 0.53553 0.0
C1238 C 0.7477 0.77772 0.5346 0.0
C1239 C 0.77077 0.78392 0.54998 0.0
C1240 C 0.75069 0.77839 0.56607 0.0
C1241 C 0.76677 0.7802 0.51738 0.0
C1242 C 0.77756 0.74909 0.51314 0.0
C1243 C 0.76619 0.80711 0.50425 0.0
C1244 C 0.75288 0.83919 0.5079 0.0
C1245 C 0.77004 0.86728 0.522 0.0
C1246 C 0.75489 0.89495 0.52616 0.0
C1247 C 0.72337 0.89574 0.51606 0.0
C1248 C 0.70668 0.86859 0.50183 0.0
C1249 C 0.7212 0.84034 0.49777 0.0
H1250 H 0.71177 0.91726 0.5193 0.0
H1251 H 0.79312 0.60086 0.48218 0.0
H1252 H 0.00321 0.27381 0.92829 0.0
H1253 H 0.97073 0.24851 0.95661 0.0
H1254 H 0.08912 0.26315 0.97573 0.0
H1255 H 0.12215 0.28973 0.94734 0.0
H1256 H 0.00809 0.18565 0.9882 0.0
H1257 H 0.07823 0.33779 0.98413 0.0
H1258 H 0.09649 0.4074 0.97162 0.0
H1259 H 0.96591 0.37665 0.97602 0.0
H1260 H 0.94662 0.30634 0.98818 0.0
H1261 H 0.9597 0.20538 0.07866 0.0
H1262 H 0.99327 0.20959 0.05054 0.0
H1263 H 0.89284 0.21997 0.02519 0.0
H1264 H 0.85951 0.21564 0.05294 0.0
H1265 H 0.97146 0.28584 0.01686 0.0
H1266 H 0.90096 0.13275 0.02011 0.0
H1267 H 0.88311 0.06385 0.03326 0.0
H1268 H 0.01491 0.09763 0.03134 0.0
H1269 H 0.03367 0.1671 0.01842 0.0
C1270 C 0.02174 0.2697 0.93826 0.0
C1271 C 0.06483 0.28239 0.93544 0.0
C1272 C 0.00331 0.25582 0.95455 0.0
C1273 C 0.02748 0.25398 0.96833 0.0
C1274 C 0.06978 0.26402 0.96526 0.0
C1275 C 0.08854 0.27886 0.94903 0.0
C1276 C 0.0097 0.24575 0.98616 0.0
C1277 C 0.0006 0.20779 0.99459 0.0
C1278 C -0.00045 0.27446 0.99445 0.0
C1279 C 0.01085 0.31642 0.98681 0.0
C1280 C 0.05325 0.34553 0.98217 0.0
C1281 C 0.06382 0.3852 0.97519 0.0
C1282 C 0.03235 0.39637 0.97295 0.0
C1283 C 0.99023 0.36789 0.9777 0.0
C1284 C 0.97945 0.32809 0.98462 0.0
C1285 C 0.944 0.20686 0.06702 0.0
C1286 C 0.90688 0.21009 0.06804 0.0
C1287 C 0.96341 0.2097 0.05095 0.0
C1288 C 0.94588 0.21567 0.0357 0.0
C1289 C 0.90729 0.21586 0.03672 0.0
C1290 C 0.88804 0.213 0.05262 0.0
C1291 C 0.96878 0.22518 0.01883 0.0
C1292 C 0.97904 0.26366 0.01055 0.0
C1293 C 0.97999 0.19701 0.01076 0.0
C1294 C 0.96879 0.15532 0.0185 0.0
C1295 C 0.92621 0.12567 0.02265 0.0
C1296 C 0.91591 0.08648 0.03003 0.0
C1297 C 0.94787 0.07643 0.03319 0.0
C1298 C 0.9902 0.10551 0.02892 0.0
C1299 C 0.00068 0.14479 0.02156 0.0
H1300 H 0.93983 0.04605 0.03889 0.0
H1301 H 0.04063 0.42715 0.9676 0.0
H1302 H 0.26096 0.00333 0.42816 0.0
H1303 H 0.23383 0.97664 0.45696 0.0
H1304 H 0.26989 0.10436 0.47339 0.0
H1305 H 0.29751 0.13092 0.44438 0.0
H1306 H 0.30227 0.0692 0.49413 0.0
H1307 H 0.16288 0.02193 0.46995 0.0
H1308 H 0.106 0.98469 0.44834 0.0
H1309 H 0.09913 0.86601 0.46095 0.0
H1310 H 0.15663 0.90255 0.48229 0.0
H1311 H 0.23879 0.99177 0.57932 0.0
H1312 H 0.2453 0.02629 0.55154 0.0
H1313 H 0.19599 0.905 0.52572 0.0
H1314 H 0.19154 0.87091 0.55336 0.0
H1315 H 0.164 0.944 0.51068 0.0
H1316 H 0.30689 0.98584 0.52872 0.0
H1317 H 0.37014 0.01781 0.54766 0.0
H1318 H 0.37611 0.13916 0.54454 0.0
H1319 H 0.31252 0.10773 0.52576 0.0
C1320 C 0.26067 0.02513 0.43763 0.0
C1321 C 0.27944 0.06871 0.43391 0.0
C1322 C 0.24571 0.01004 0.4542 0.0
C1323 C 0.24918 0.03836 0.46736 0.0
C1324 C 0.2665 0.08184 0.46343 0.0
C1325 C 0.28176 0.09694 0.44685 0.0
C1326 C 0.2391 0.02321 0.48549 0.0
C1327 C 0.27165 0.04245 0.49787 0.0
C1328 C 0.19975 0.98728 0.49021 0.0
C1329 C 0.16425 0.96508 0.4777 0.0
C1330 C 0.1494 0.98791 0.46805 0.0
C1331 C 0.11708 0.96691 0.45582 0.0
C1332 C 0.09906 0.923 0.45322 0.0
C1333 C 0.1132 0.89999 0.46291 0.0
C1334 C 0.14563 0.92083 0.4751 0.0
C1335 C 0.22795 0.97238 0.56775 0.0
C1336 C 0.21399 0.92863 0.56843 0.0
C1337 C 0.23183 0.99217 0.55185 0.0
C1338 C 0.22069 0.96843 0.53644 0.0
C1339 C 0.20446 0.92418 0.53735 0.0
C1340 C 0.20167 0.90461 0.55315 0.0
C1341 C 0.2275 0.98937 0.51927 0.0
C1342 C 0.19435 0.97129 0.50707 0.0
C1343 C 0.2668 0.02552 0.51452 0.0
C1344 C 0.30464 0.04431 0.52602 0.0
C1345 C 0.32146 0.01924 0.53221 0.0
C1346 C 0.35741 0.03728 0.54289 0.0
C1347 C 0.37704 0.08045 0.54735 0.0
C1348 C 0.3608 0.10569 0.54112 0.0
C1349 C 0.32481 0.08779 0.53045 0.0
H1350 H 0.40491 0.09438 0.5556 0.0
H1351 H 0.07409 0.90678 0.44373 0.0
H1352 H 0.76214 0.75045 0.08064 0.0
H1353 H 0.75773 0.7812 0.05305 0.0
H1354 H 0.7692 0.68325 0.02587 0.0
H1355 H 0.77184 0.65185 0.05322 0.0
H1356 H 0.81355 0.75128 0.00978 0.0
H1357 H 0.67128 0.6838 0.03282 0.0
H1358 H 0.61521 0.67049 0.05402 0.0
H1359 H 0.64425 0.80059 0.04966 0.0
H1360 H 0.70089 0.81479 0.02857 0.0
H1361 H 0.69869 0.71252 0.93249 0.0
H1362 H 0.72712 0.71421 0.96111 0.0
H1363 H 0.73691 0.83622 0.97091 0.0
H1364 H 0.70803 0.83441 0.94186 0.0
H1365 H 0.69271 0.77476 0.9968 0.0
H1366 H 0.82716 0.82926 0.96677 0.0
H1367 H 0.87354 0.82822 0.94368 0.0
H1368 H 0.84731 0.70402 0.95979 0.0
H1369 H 0.80024 0.70389 0.98278 0.0
C1370 C 0.76486 0.73632 0.06875 0.0
C1371 C 0.76772 0.69902 0.06903 0.0
C1372 C 0.76206 0.75371 0.05297 0.0
C1373 C 0.76339 0.73487 0.03726 0.0
C1374 C 0.76848 0.69884 0.0377 0.0
C1375 C 0.77022 0.68096 0.05336 0.0
C1376 C 0.75844 0.75127 0.02025 0.0
C1377 C 0.78702 0.75633 0.00701 0.0
C1378 C 0.72438 0.75881 0.01653 0.0
C1379 C 0.69069 0.75051 0.02932 0.0
C1380 C 0.66596 0.70966 0.03651 0.0
C1381 C 0.63404 0.70194 0.04848 0.0
C1382 C 0.62629 0.73472 0.05324 0.0
C1383 C 0.65039 0.77527 0.046 0.0
C1384 C 0.6824 0.78318 0.03404 0.0
C1385 C 0.7082 0.74038 0.94054 0.0
C1386 C 0.70184 0.77364 0.93492 0.0
C1387 C 0.72437 0.74129 0.95693 0.0
C1388 C 0.73447 0.77545 0.96819 0.0
C1389 C 0.72954 0.80963 0.96241 0.0
C1390 C 0.71357 0.80888 0.94579 0.0
C1391 C 0.74691 0.77306 0.9863 0.0
C1392 C 0.71981 0.77076 0.99974 0.0
C1393 C 0.78121 0.7661 0.99009 0.0
C1394 C 0.81018 0.76661 0.97648 0.0
C1395 C 0.8312 0.80169 0.96536 0.0
C1396 C 0.8576 0.80131 0.95231 0.0
C1397 C 0.86335 0.76614 0.95036 0.0
C1398 C 0.84286 0.73127 0.9614 0.0
C1399 C 0.81638 0.73144 0.97445 0.0
H1400 H 0.88342 0.76581 0.9402 0.0
H1401 H 0.60152 0.72867 0.06249 0.0
H1402 H 0.06584 0.25246 0.56388 0.0
H1403 H 0.02651 0.23082 0.53676 0.0
H1404 H 0.98263 0.32046 0.54543 0.0
H1405 H 0.02024 0.34037 0.57326 0.0
H1406 H 0.92276 0.25533 0.52988 0.0
H1407 H 0.07057 0.34262 0.51844 0.0
H1408 H 0.14737 0.36683 0.52033 0.0
H1409 H 0.12522 0.24914 0.4976 0.0
H1410 H 0.04814 0.22395 0.4958 0.0
H1411 H 0.88312 0.27698 0.44245 0.0
H1412 H 0.90892 0.28543 0.47171 0.0
H1413 H 0.94192 0.18754 0.46333 0.0
H1414 H 0.91784 0.18038 0.4332 0.0
H1415 H 0.00542 0.25525 0.47887 0.0
H1416 H 0.85249 0.17343 0.48926 0.0
H1417 H 0.77918 0.1604 0.48565 0.0
H1418 H 0.81581 0.28199 0.50868 0.0
H1419 H 0.88943 0.29596 0.51225 0.0
C1420 C 0.04744 0.26725 0.56008 0.0
C1421 C 0.04662 0.29857 0.57054 0.0
C1422 C 0.02513 0.25505 0.5445 0.0
C1423 C 0.00266 0.27498 0.53863 0.0
C1424 C 1e-05 0.30481 0.54951 0.0
C1425 C 0.02153 0.31626 0.5654 0.0
C1426 C 0.98359 0.26573 0.52094 0.0
C1427 C 0.941 0.25562 0.51874 0.0
C1428 C 0.00713 0.26607 0.50624 0.0
C1429 C 0.05352 0.28123 0.50714 0.0
C1430 C 0.08203 0.32179 0.51394 0.0
C1431 C 0.12562 0.3357 0.51499 0.0
C1432 C 0.14114 0.30949 0.50913 0.0
C1433 C 0.11313 0.26937 0.50216 0.0
C1434 C 0.06949 0.25527 0.50111 0.0
C1435 C 0.89516 0.25653 0.44677 0.0
C1436 C 0.89812 0.22771 0.43538 0.0
C1437 C 0.90977 0.26133 0.46369 0.0
C1438 C 0.92666 0.23659 0.46999 0.0
C1439 C 0.92871 0.20684 0.45883 0.0
C1440 C 0.91459 0.20244 0.44166 0.0
C1441 C 0.94439 0.24393 0.48787 0.0
C1442 C 0.98698 0.25421 0.49006 0.0
C1443 C 0.92123 0.24506 0.50243 0.0
C1444 C 0.87648 0.23574 0.50099 0.0
C1445 C 0.84489 0.19736 0.49356 0.0
C1446 C 0.8033 0.18985 0.4915 0.0
C1447 C 0.79285 0.22035 0.49692 0.0
C1448 C 0.82392 0.25836 0.5045 0.0
C1449 C 0.86555 0.26604 0.50659 0.0
H1450 H 0.76068 0.21454 0.49525 0.0
H1451 H 0.1749 0.32031 0.50996 0.0
H1452 H 0.76314 0.13641 0.14711 0.0
H1453 H 0.68618 0.09517 0.15359 0.0
H1454 H 0.67295 0.20216 0.13756 0.0
H1455 H 0.74882 0.24263 0.13105 0.0
H1456 H 0.62101 0.16328 0.16333 0.0
H1457 H 0.66423 0.12574 0.11089 0.0
H1458 H 0.69899 0.09715 0.09215 0.0
H1459 H 0.62197 0.97277 0.11403 0.0
H1460 H 0.5888 0.00123 0.13384 0.0
H1461 H 0.4494 0.10183 0.10529 0.0
H1462 H 0.51867 0.11698 0.11589 0.0
H1463 H 0.45816 0.01968 0.1546 0.0
H1464 H 0.38741 0.00484 0.14429 0.0
H1465 H 0.54138 0.03738 0.12528 0.0
H1466 H 0.4962 0.08478 0.17729 0.0
H1467 H 0.46302 0.12179 0.19158 0.0
H1468 H 0.54193 0.23493 0.16233 0.0
H1469 H 0.57625 0.19873 0.14809 0.0
C1470 C 0.74386 0.15142 0.14562 0.0
C1471 C 0.7616 0.19257 0.13859 0.0
C1472 C 0.69994 0.12779 0.14917 0.0
C1473 C 0.67362 0.14537 0.14585 0.0
C1474 C 0.69242 0.18783 0.14025 0.0
C1475 C 0.73582 0.21101 0.13652 0.0
C1476 C 0.62623 0.11922 0.14616 0.0
C1477 C 0.60363 0.13516 0.15529 0.0
C1478 C 0.60329 0.08262 0.13555 0.0
C1479 C 0.62489 0.06597 0.12425 0.0
C1480 C 0.65557 0.09257 0.11212 0.0
C1481 C 0.67507 0.07638 0.10131 0.0
C1482 C 0.66323 0.03331 0.10213 0.0
C1483 C 0.63178 0.00633 0.11371 0.0
C1484 C 0.6129 0.02256 0.12484 0.0
C1485 C 0.45039 0.08319 0.11597 0.0
C1486 C 0.41264 0.05208 0.12394 0.0
C1487 C 0.49021 0.09205 0.12203 0.0
C1488 C 0.49351 0.06971 0.13607 0.0
C1489 C 0.45613 0.03741 0.14378 0.0
C1490 C 0.41584 0.0288 0.13781 0.0
C1491 C 0.53673 0.08165 0.14238 0.0
C1492 C 0.55867 0.06379 0.13415 0.0
C1493 C 0.55944 0.11738 0.15327 0.0
C1494 C 0.53841 0.13893 0.16154 0.0
C1495 C 0.50616 0.11741 0.17381 0.0
C1496 C 0.48722 0.13829 0.18193 0.0
C1497 C 0.4999 0.18053 0.17774 0.0
C1498 C 0.53198 0.20216 0.16554 0.0
C1499 C 0.55135 0.18156 0.1575 0.0
H1500 H 0.48502 0.19653 0.18402 0.0
H1501 H 0.67808 0.02072 0.09365 0.0
H1502 H 0.66752 0.53146 0.3592 0.0
H1503 H 0.60677 0.46594 0.34871 0.0
H1504 H 0.52178 0.50883 0.36708 0.0
H1505 H 0.58339 0.57415 0.37846 0.0
H1506 H 0.5049 0.43745 0.38133 0.0
H1507 H 0.5318 0.48409 0.32174 0.0
H1508 H 0.57809 0.5143 0.29627 0.0
H1509 H 0.60664 0.41254 0.29719 0.0
H1510 H 0.56103 0.38201 0.32276 0.0
H1511 H 0.34764 0.22969 0.37818 0.0
H1512 H 0.38207 0.30403 0.36917 0.0
H1513 H 0.47568 0.28709 0.34102 0.0
H1514 H 0.43525 0.21037 0.34725 0.0
H1515 H 0.48023 0.3503 0.32866 0.0
H1516 H 0.48104 0.3166 0.38849 0.0
H1517 H 0.45071 0.28617 0.41693 0.0
H1518 H 0.38991 0.36204 0.41916 0.0
H1519 H 0.41956 0.39259 0.39065 0.0
C1520 C 0.63592 0.52762 0.36035 0.0
C1521 C 0.62983 0.55761 0.36953 0.0
C1522 C 0.60112 0.49021 0.35421 0.0
C1523 C 0.55946 0.48237 0.35688 0.0
C1524 C 0.55365 0.51428 0.36476 0.0
C1525 C 0.58869 0.55165 0.37117 0.0
C1526 C 0.52294 0.43818 0.35485 0.0
C1527 C 0.49863 0.4188 0.36961 0.0
C1528 C 0.51652 0.41298 0.33992 0.0
C1529 C 0.54291 0.43076 0.32419 0.0
C1530 C 0.54799 0.46819 0.31653 0.0
C1531 C 0.57415 0.48539 0.30207 0.0
C1532 C 0.59529 0.46536 0.29512 0.0
C1533 C 0.59019 0.42799 0.30256 0.0
C1534 C 0.56409 0.41067 0.317 0.0
C1535 C 0.37414 0.24146 0.36928 0.0
C1536 C 0.38976 0.21501 0.3637 0.0
C1537 C 0.39457 0.28426 0.36447 0.0
C1538 C 0.43343 0.30225 0.35546 0.0
C1539 C 0.44648 0.27464 0.34839 0.0
C1540 C 0.4239 0.23095 0.35213 0.0
C1541 C 0.46261 0.34951 0.35525 0.0
C1542 C 0.48563 0.36929 0.34021 0.0
C1543 C 0.47 0.37487 0.37026 0.0
C1544 C 0.45203 0.35642 0.38737 0.0
C1545 C 0.46101 0.32659 0.39502 0.0
C1546 C 0.44396 0.30935 0.41114 0.0
C1547 C 0.41829 0.32206 0.41982 0.0
C1548 C 0.4097 0.35214 0.4124 0.0
C1549 C 0.42661 0.36943 0.39627 0.0
H1550 H 0.40513 0.30869 0.4323 0.0
H1551 H 0.61562 0.4788 0.28396 0.0
H1552 H 0.96786 0.40332 0.10376 0.0
H1553 H 0.96163 0.46491 0.11211 0.0
H1554 H 0.93312 0.4179 0.16423 0.0
H1555 H 0.93928 0.35593 0.15574 0.0
H1556 H 0.86811 0.42342 0.14953 0.0
H1557 H 0.02039 0.51932 0.15444 0.0
H1558 H 0.09484 0.55317 0.14427 0.0
H1559 H 0.06208 0.60108 0.09975 0.0
H1560 H 0.9874 0.56714 0.10953 0.0
H1561 H 0.79377 0.57168 0.15977 0.0
H1562 H 0.83616 0.53699 0.16607 0.0
H1563 H 0.89427 0.57325 0.11578 0.0
H1564 H 0.85334 0.60814 0.10978 0.0
H1565 H 0.95096 0.57794 0.13641 0.0
H1566 H 0.80601 0.47421 0.1239 0.0
H1567 H 0.72783 0.4349 0.12742 0.0
H1568 H 0.74151 0.39577 0.17808 0.0
H1569 H 0.81991 0.43541 0.17493 0.0
C1570 C 0.9633 0.40768 0.11726 0.0
C1571 C 0.95465 0.37509 0.12914 0.0
C1572 C 0.95918 0.44277 0.12202 0.0
C1573 C 0.94653 0.44608 0.13881 0.0
C1574 C 0.94289 0.41613 0.1512 0.0
C1575 C 0.94729 0.38108 0.14643 0.0
C1576 C 0.92974 0.47559 0.14237 0.0
C1577 C 0.88668 0.4575 0.14721 0.0
C1578 C 0.95316 0.51967 0.13848 0.0
C1579 C -0.00174 0.5406 0.13273 0.0
C1580 C 0.02903 0.53693 0.14245 0.0
C1581 C 0.07129 0.55616 0.13675 0.0
C1582 C 0.08318 0.57925 0.12137 0.0
C1583 C 0.05286 0.58325 0.11167 0.0
C1584 C 0.01059 0.5641 0.11731 0.0
C1585 C 0.81657 0.57319 0.15036 0.0
C1586 C 0.82006 0.59228 0.13425 0.0
C1587 C 0.84046 0.55302 0.15385 0.0
C1588 C 0.8681 0.55186 0.14129 0.0
C1589 C 0.8734 0.57355 0.12573 0.0
C1590 C 0.84973 0.59339 0.12227 0.0
C1591 C 0.88922 0.52564 0.14336 0.0
C1592 C 0.93285 0.54417 0.1394 0.0
C1593 C 0.86583 0.48151 0.14721 0.0
C1594 C 0.81881 0.4584 0.14931 0.0
C1595 C 0.79236 0.45765 0.13587 0.0
C1596 C 0.74802 0.43522 0.13778 0.0
C1597 C 0.72972 0.41302 0.153 0.0
C1598 C 0.75575 0.41314 0.16633 0.0
C1599 C 0.80013 0.43561 0.1645 0.0
H1600 H 0.69538 0.39559 0.15444 0.0
H1601 H 0.11589 0.59406 0.11698 0.0
H1602 H 0.43234 0.03258 0.40329 0.0
H1603 H 0.50421 0.04783 0.39606 0.0
H1604 H 0.48211 0.0653 0.34288 0.0
H1605 H 0.41002 0.04988 0.35019 0.0
H1606 H 0.55648 0.03465 0.37684 0.0
H1607 H 0.56237 0.16902 0.33176 0.0
H1608 H 0.53487 0.21923 0.33086 0.0
H1609 H 0.49311 0.18931 0.38331 0.0
H1610 H 0.52135 0.14004 0.38473 0.0
H1611 H 0.77937 0.16962 0.35809 0.0
H1612 H 0.70299 0.12115 0.35351 0.0
H1613 H 0.67622 0.21428 0.37625 0.0
H1614 H 0.7516 0.26339 0.37971 0.0
H1615 H 0.62535 0.18123 0.35313 0.0
H1616 H 0.67571 0.12708 0.39708 0.0
H1617 H 0.71467 0.09629 0.41152 0.0
H1618 H 0.6483 0.98298 0.38075 0.0
H1619 H 0.61115 0.01424 0.36517 0.0
C1620 C 0.44176 0.03664 0.38986 0.0
C1621 C 0.41557 0.03982 0.37729 0.0
C1622 C 0.48315 0.04588 0.38574 0.0
C1623 C 0.49905 0.05889 0.369 0.0
C1624 C 0.47073 0.05586 0.35593 0.0
C1625 C 0.42917 0.04628 0.36006 0.0
C1626 C 0.54607 0.08345 0.36613 0.0
C1627 C 0.57171 0.06648 0.3714 0.0
C1628 C 0.56611 0.12586 0.35992 0.0
C1629 C 0.54325 0.15014 0.35821 0.0
C1630 C 0.54662 0.17259 0.34299 0.0
C1631 C 0.53124 0.20114 0.34244 0.0
C1632 C 0.51248 0.20749 0.35703 0.0
C1633 C 0.50769 0.18432 0.37202 0.0
C1634 C 0.52327 0.15597 0.37269 0.0
C1635 C 0.75732 0.18039 0.36154 0.0
C1636 C 0.77199 0.22068 0.36928 0.0
C1637 C 0.71347 0.15222 0.35917 0.0
C1638 C 0.68346 0.16349 0.3648 0.0
C1639 C 0.69836 0.20451 0.3717 0.0
C1640 C 0.74185 0.23281 0.3737 0.0
C1641 C 0.63647 0.13311 0.36411 0.0
C1642 C 0.6105 0.14888 0.35804 0.0
C1643 C 0.6167 0.09122 0.37109 0.0
C1644 C 0.64136 0.07358 0.37961 0.0
C1645 C 0.67034 0.09615 0.39297 0.0
C1646 C 0.69221 0.07862 0.40135 0.0
C1647 C 0.68452 0.03799 0.39683 0.0
C1648 C 0.65502 0.01487 0.38391 0.0
C1649 C 0.63378 0.03261 0.37522 0.0
H1650 H 0.70099 0.0242 0.40349 0.0
H1651 H 0.50254 0.23108 0.35684 0.0
H1652 H 0.36765 0.2225 0.12049 0.0
H1653 H 0.39919 0.29844 0.12692 0.0
H1654 H 0.49564 0.29371 0.15793 0.0
H1655 H 0.46362 0.21693 0.15137 0.0
H1656 H 0.46108 0.35427 0.16925 0.0
H1657 H 0.52638 0.31796 0.12257 0.0
H1658 H 0.52593 0.28068 0.09587 0.0
H1659 H 0.46243 0.33703 0.06918 0.0
H1660 H 0.4617 0.37396 0.09586 0.0
H1661 H 0.64345 0.55821 0.15633 0.0
H1662 H 0.58269 0.48922 0.16363 0.0
H1663 H 0.5171 0.49394 0.11795 0.0
H1664 H 0.57956 0.56199 0.11012 0.0
H1665 H 0.52988 0.43184 0.11542 0.0
H1666 H 0.47343 0.47655 0.16153 0.0
H1667 H 0.47409 0.51352 0.18837 0.0
H1668 H 0.52177 0.44372 0.21628 0.0
H1669 H 0.5219 0.40671 0.18959 0.0
C1670 C 0.39433 0.23729 0.12935 0.0
C1671 C 0.41304 0.21425 0.13569 0.0
C1672 C 0.41243 0.2806 0.13293 0.0
C1673 C 0.44969 0.30153 0.14284 0.0
C1674 C 0.4666 0.27785 0.15038 0.0
C1675 C 0.44847 0.23424 0.14667 0.0
C1676 C 0.47432 0.34861 0.14269 0.0
C1677 C 0.47658 0.37157 0.15759 0.0
C1678 C 0.49335 0.3707 0.1273 0.0
C1679 C 0.49337 0.34817 0.11129 0.0
C1680 C 0.51176 0.32191 0.11108 0.0
C1681 C 0.51184 0.30095 0.09594 0.0
C1682 C 0.49401 0.30634 0.08086 0.0
C1683 C 0.4761 0.33276 0.08089 0.0
C1684 C 0.47582 0.35369 0.09602 0.0
C1685 C 0.61497 0.54571 0.14843 0.0
C1686 C 0.61592 0.56526 0.13272 0.0
C1687 C 0.58008 0.50602 0.15259 0.0
C1688 C 0.54526 0.48585 0.14125 0.0
C1689 C 0.54374 0.50863 0.12684 0.0
C1690 C 0.57916 0.54784 0.12245 0.0
C1691 C 0.51678 0.43871 0.14204 0.0
C1692 C 0.51397 0.41524 0.12714 0.0
C1693 C 0.49753 0.41649 0.15748 0.0
C1694 C 0.49794 0.43906 0.17352 0.0
C1695 C 0.48442 0.46936 0.17336 0.0
C1696 C 0.48456 0.49025 0.18856 0.0
C1697 C 0.49803 0.48103 0.20401 0.0
C1698 C 0.51135 0.45084 0.20431 0.0
C1699 C 0.51124 0.42984 0.18915 0.0
H1700 H 0.49809 0.49722 0.21576 0.0
H1701 H 0.4942 0.29017 0.06913 0.0
H1702 H 0.76053 0.51662 0.39114 0.0
H1703 H 0.79555 0.47511 0.3858 0.0
H1704 H 0.89318 0.57921 0.35637 0.0
H1705 H 0.85666 0.62055 0.36113 0.0
H1706 H 0.87331 0.49802 0.34356 0.0
H1707 H 0.91081 0.57266 0.39823 0.0
H1708 H 0.89407 0.59403 0.42605 0.0
H1709 H 0.82312 0.46275 0.44155 0.0
H1710 H 0.83895 0.44056 0.41374 0.0
H1711 H 0.99364 0.40264 0.39804 0.0
H1712 H 0.97894 0.45972 0.39047 0.0
H1713 H 0.88036 0.37398 0.35536 0.0
H1714 H 0.89795 0.31861 0.36185 0.0
H1715 H 0.91156 0.4571 0.39887 0.0
H1716 H 0.84491 0.42221 0.32953 0.0
H1717 H 0.85854 0.39758 0.30185 0.0
H1718 H 0.99042 0.45008 0.3155 0.0
H1719 H 0.97765 0.4753 0.34322 0.0
C1720 C 0.78904 0.53036 0.38326 0.0
C1721 C 0.80648 0.57193 0.37679 0.0
C1722 C 0.80899 0.50665 0.38021 0.0
C1723 C 0.84756 0.52455 0.3711 0.0
C1724 C 0.86358 0.56501 0.36355 0.0
C1725 C 0.84288 0.58857 0.36629 0.0
C1726 C 0.87272 0.50245 0.3712 0.0
C1727 C 0.88222 0.48938 0.3556 0.0
C1728 C 0.88455 0.49154 0.38694 0.0
C1729 C 0.87599 0.50497 0.40388 0.0
C1730 C 0.89156 0.54836 0.40756 0.0
C1731 C 0.8822 0.56061 0.42332 0.0
C1732 C 0.85753 0.52977 0.43556 0.0
C1733 C 0.84226 0.48661 0.43207 0.0
C1734 C 0.85148 0.47419 0.41632 0.0
C1735 C 0.97037 0.39695 0.38809 0.0
C1736 C 0.94717 0.35671 0.38037 0.0
C1737 C 0.96162 0.42931 0.38387 0.0
C1738 C 0.92848 0.42144 0.37231 0.0
C1739 C 0.90681 0.38161 0.36395 0.0
C1740 C 0.91662 0.34975 0.36775 0.0
C1741 C 0.91241 0.45208 0.37117 0.0
C1742 C 0.904 0.46649 0.3867 0.0
C1743 C 0.90184 0.46417 0.35536 0.0
C1744 C 0.91027 0.45049 0.33849 0.0
C1745 C 0.8769 0.42881 0.32657 0.0
C1746 C 0.88444 0.41462 0.3109 0.0
C1747 C 0.9253 0.42219 0.30693 0.0
C1748 C 0.95876 0.44413 0.31861 0.0
C1749 C 0.95138 0.45832 0.33432 0.0
H1750 H 0.93105 0.41108 0.29481 0.0
H1751 H 0.85026 0.53932 0.44774 0.0
H1752 H 0.10598 0.75197 0.61955 0.0
H1753 H 0.08118 0.67655 0.6229 0.0
H1754 H 0.18253 0.70626 0.65934 0.0
H1755 H 0.20872 0.78271 0.65532 0.0
H1756 H 0.18675 0.66094 0.63457 0.0
H1757 H 0.07243 0.6462 0.66925 0.0
H1758 H 0.01192 0.65553 0.67761 0.0
H1759 H 0.94107 0.58267 0.63355 0.0
H1760 H 0.00176 0.57434 0.62449 0.0
H1761 H 0.13425 0.44886 0.63952 0.0
H1762 H 0.13616 0.51434 0.64862 0.0
H1763 H 0.05604 0.50396 0.60558 0.0
H1764 H 0.05318 0.43695 0.59662 0.0
H1765 H 0.03955 0.53706 0.63687 0.0
H1766 H 0.15859 0.56277 0.60042 0.0
H1767 H 0.21865 0.55249 0.59212 0.0
H1768 H 0.27928 0.60358 0.64083 0.0
H1769 H 0.21926 0.61367 0.64951 0.0
C1770 C 0.12195 0.74238 0.62883 0.0
C1771 C 0.15944 0.77306 0.63707 0.0
C1772 C 0.10765 0.69908 0.63078 0.0
C1773 C 0.12998 0.68545 0.64134 0.0
C1774 C 0.16487 0.71601 0.65105 0.0
C1775 C 0.1795 0.75966 0.64896 0.0
C1776 C 0.12082 0.6406 0.64001 0.0
C1777 C 0.15463 0.63389 0.63553 0.0
C1778 C 0.07872 0.60518 0.64066 0.0
C1779 C 0.04189 0.60985 0.64613 0.0
C1780 C 0.04415 0.63254 0.66122 0.0
C1781 C 0.00983 0.63776 0.66606 0.0
C1782 C 0.97277 0.61994 0.65606 0.0
C1783 C 0.96992 0.59674 0.64121 0.0
C1784 C 0.00431 0.5918 0.63621 0.0
C1785 C 0.11626 0.46008 0.63221 0.0
C1786 C 0.09383 0.43839 0.61733 0.0
C1787 C 0.11739 0.49742 0.63742 0.0
C1788 C 0.09685 0.51433 0.62762 0.0
C1789 C 0.07213 0.49133 0.61329 0.0
C1790 C 0.07054 0.4533 0.60816 0.0
C1791 C 0.10535 0.55806 0.63143 0.0
C1792 C 0.07156 0.56436 0.63622 0.0
C1793 C 0.14743 0.59326 0.63111 0.0
C1794 C 0.18428 0.58866 0.62566 0.0
C1795 C 0.18466 0.57168 0.60938 0.0
C1796 C 0.21869 0.56588 0.60461 0.0
C1797 C 0.25271 0.57728 0.61596 0.0
C1798 C 0.25289 0.59474 0.63206 0.0
C1799 C 0.21891 0.60057 0.6369 0.0
H1800 H 0.27896 0.57265 0.61226 0.0
H1801 H 0.9462 0.62396 0.65984 0.0
H1802 H 0.40898 0.01497 0.87504 0.0
H1803 H 0.46623 -0.00011 0.86683 0.0
H1804 H 0.37592 0.86492 0.86845 0.0
H1805 H 0.31993 0.87976 0.87691 0.0
H1806 H 0.48916 0.94746 0.88844 0.0
H1807 H 0.39405 0.8186 0.8388 0.0
H1808 H 0.34513 0.80494 0.81436 0.0
H1809 H 0.4076 0.93919 0.80367 0.0
H1810 H 0.45662 0.95362 0.82815 0.0
H1811 H 0.52061 0.7756 0.89204 0.0
H1812 H 0.48744 0.81832 0.88636 0.0
H1813 H 0.57599 0.88203 0.84491 0.0
H1814 H 0.61024 0.83881 0.85068 0.0
H1815 H 0.4821 0.85599 0.83929 0.0
H1816 H 0.59982 0.93763 0.87811 0.0
H1817 H 0.64444 0.94582 0.90346 0.0
H1818 H 0.53571 0.90439 0.93654 0.0
H1819 H 0.49036 0.89548 0.91139 0.0
C1820 C 0.40148 0.98222 0.87334 0.0
C1821 C 0.36011 0.94848 0.87671 0.0
C1822 C 0.43407 0.97363 0.86869 0.0
C1823 C 0.42524 0.93124 0.86688 0.0
C1824 C 0.38346 0.89784 0.86953 0.0
C1825 C 0.35144 0.90636 0.87448 0.0
C1826 C 0.45951 0.92058 0.86405 0.0
C1827 C 0.48851 0.92849 0.87747 0.0
C1828 C 0.45847 0.89555 0.84982 0.0
C1829 C 0.42904 0.88711 0.8352 0.0
C1830 C 0.39742 0.84514 0.83117 0.0
C1831 C 0.36959 0.83729 0.81737 0.0
C1832 C 0.37343 0.87115 0.80742 0.0
C1833 C 0.40472 0.913 0.81138 0.0
C1834 C 0.43239 0.92105 0.82526 0.0
C1835 C 0.533 0.79834 0.88156 0.0
C1836 C 0.56847 0.80415 0.87193 0.0
C1837 C 0.5139 0.82278 0.87835 0.0
C1838 C 0.52968 0.85385 0.86545 0.0
C1839 C 0.56352 0.8583 0.85502 0.0
C1840 C 0.58292 0.83356 0.85827 0.0
C1841 C 0.51128 0.88235 0.86382 0.0
C1842 C 0.48449 0.87685 0.84982 0.0
C1843 C 0.51421 0.90948 0.87761 0.0
C1844 C 0.54169 0.91591 0.89284 0.0
C1845 C 0.58541 0.93017 0.89079 0.0
C1846 C 0.61083 0.93493 0.90512 0.0
C1847 C 0.59291 0.92562 0.9216 0.0
C1848 C 0.54957 0.91167 0.92378 0.0
C1849 C 0.52402 0.90687 0.90948 0.0
H1850 H 0.61261 0.92922 0.93268 0.0
H1851 H 0.35221 0.86491 0.79661 0.0
H1852 H 0.56184 0.68382 0.65126 0.0
H1853 H 0.49053 0.63184 0.65953 0.0
H1854 H 0.51914 0.53089 0.65051 0.0
H1855 H 0.58997 0.58388 0.63998 0.0
H1856 H 0.45691 0.51522 0.63292 0.0
H1857 H 0.48356 0.56266 0.69311 0.0
H1858 H 0.51041 0.61972 0.71509 0.0
H1859 H 0.42223 0.65817 0.6975 0.0
H1860 H 0.39527 0.60182 0.6753 0.0
H1861 H 0.24813 0.35345 0.64098 0.0
H1862 H 0.32208 0.40074 0.6497 0.0
H1863 H 0.29793 0.50589 0.65324 0.0
H1864 H 0.22303 0.45782 0.64533 0.0
H1865 H 0.35689 0.51753 0.67598 0.0
H1866 H 0.33758 0.4867 0.61597 0.0
H1867 H 0.31414 0.44324 0.58944 0.0
H1868 H 0.39018 0.38674 0.60266 0.0
H1869 H 0.41366 0.42951 0.62939 0.0
C1870 C 0.55406 0.65082 0.65211 0.0
C1871 C 0.58193 0.63804 0.6453 0.0
C1872 C 0.51261 0.62064 0.65685 0.0
C1873 C 0.49872 0.57684 0.65591 0.0
C1874 C 0.52869 0.56439 0.65129 0.0
C1875 C 0.56961 0.59467 0.64561 0.0
C1876 C 0.45202 0.54464 0.65638 0.0
C1877 C 0.43552 0.51497 0.64278 0.0
C1878 C 0.42301 0.54596 0.6684 0.0
C1879 C 0.43739 0.57793 0.68254 0.0
C1880 C 0.46979 0.58317 0.69398 0.0
C1881 C 0.48513 0.6155 0.70644 0.0
C1882 C 0.46806 0.64255 0.70769 0.0
C1883 C 0.43538 0.63715 0.69655 0.0
C1884 C 0.41998 0.60494 0.68406 0.0
C1885 C 0.25832 0.38637 0.64416 0.0
C1886 C 0.23008 0.40212 0.64241 0.0
C1887 C 0.30066 0.41348 0.64901 0.0
C1888 C 0.31603 0.45723 0.65163 0.0
C1889 C 0.28697 0.47235 0.65121 0.0
C1890 C 0.24416 0.44487 0.64673 0.0
C1891 C 0.36282 0.48744 0.65302 0.0
C1892 C 0.37892 0.51703 0.66663 0.0
C1893 C 0.39163 0.48726 0.64071 0.0
C1894 C 0.37692 0.46088 0.6248 0.0
C1895 C 0.34895 0.46468 0.61331 0.0
C1896 C 0.33573 0.44025 0.59822 0.0
C1897 C 0.35054 0.41214 0.5944 0.0
C1898 C 0.37864 0.40844 0.60566 0.0
C1899 C 0.39192 0.43277 0.62078 0.0
H1900 H 0.34034 0.39331 0.58269 0.0
H1901 H 0.48018 0.66771 0.71727 0.0
H1902 H 0.22209 0.78707 0.84706 0.0
H1903 H 0.17757 0.70981 0.84083 0.0
H1904 H 0.1281 0.68891 0.89265 0.0
H1905 H 0.17151 0.76469 0.89877 0.0
H1906 H 0.17358 0.64482 0.88231 0.0
H1907 H 0.06244 0.6751 0.86518 0.0
H1908 H 0.03552 0.71255 0.84714 0.0
H1909 H 0.05363 0.65539 0.80173 0.0
H1910 H 0.08134 0.61808 0.81953 0.0
H1911 H 0.0355 0.44589 0.90279 0.0
H1912 H 0.0432 0.51404 0.89386 0.0
H1913 H 0.07932 0.49627 0.84293 0.0
H1914 H 0.06958 0.42692 0.85163 0.0
H1915 H 0.04267 0.55923 0.84739 0.0
H1916 H 0.1595 0.53353 0.8653 0.0
H1917 H 0.18737 0.49817 0.88417 0.0
H1918 H 0.15802 0.54909 0.92881 0.0
H1919 H 0.13001 0.58472 0.91015 0.0
C1920 C 0.20084 0.76588 0.85687 0.0
C1921 C 0.20061 0.78135 0.87345 0.0
C1922 C 0.17558 0.72201 0.85335 0.0
C1923 C 0.14997 0.69388 0.86638 0.0
C1924 C 0.14787 0.71009 0.8825 0.0
C1925 C 0.17285 0.75331 0.88598 0.0
C1926 C 0.1292 0.64711 0.86446 0.0
C1927 C 0.14516 0.62622 0.87456 0.0
C1928 C 0.09237 0.623 0.85427 0.0
C1929 C 0.07432 0.64412 0.84365 0.0
C1930 C 0.06093 0.67071 0.85134 0.0
C1931 C 0.04549 0.69189 0.84116 0.0
C1932 C 0.04296 0.68643 0.82329 0.0
C1933 C 0.05565 0.65961 0.81557 0.0
C1934 C 0.07118 0.6384 0.8257 0.0
C1935 C 0.04215 0.45516 0.88938 0.0
C1936 C 0.05208 0.43144 0.8779 0.0
C1937 C 0.04658 0.49411 0.88426 0.0
C1938 C 0.06255 0.51045 0.86782 0.0
C1939 C 0.06671 0.4841 0.85562 0.0
C1940 C 0.06116 0.44447 0.86063 0.0
C1941 C 0.08672 0.55733 0.86558 0.0
C1942 C 0.07161 0.57804 0.85478 0.0
C1943 C 0.12458 0.58182 0.87518 0.0
C1944 C 0.14267 0.56164 0.88637 0.0
C1945 C 0.15908 0.53717 0.87914 0.0
C1946 C 0.17493 0.51716 0.88979 0.0
C1947 C 0.17448 0.5214 0.90768 0.0
C1948 C 0.15842 0.54589 0.91495 0.0
C1949 C 0.14272 0.56614 0.90435 0.0
H1950 H 0.18655 0.50569 0.9159 0.0
H1951 H 0.03108 0.70291 0.81542 0.0
H1952 H 0.32026 0.8592 0.64471 0.0
H1953 H 0.38382 0.85797 0.65178 0.0
H1954 H 0.4604 0.98514 0.63099 0.0
H1955 H 0.39465 0.98427 0.62223 0.0
H1956 H 0.47641 0.93797 0.61409 0.0
H1957 H 0.47546 0.94765 0.6752 0.0
H1958 H 0.44513 0.93546 0.70448 0.0
H1959 H 0.396 0.80078 0.69885 0.0
H1960 H 0.42545 0.81193 0.66953 0.0
H1961 H 0.62209 0.85633 0.61597 0.0
H1962 H 0.58861 0.89891 0.62246 0.0
H1963 H 0.46617 0.78383 0.62649 0.0
H1964 H 0.49965 0.74077 0.61968 0.0
H1965 H 0.49628 0.84622 0.656 0.0
H1966 H 0.47679 0.83519 0.59376 0.0
H1967 H 0.5027 0.84316 0.56385 0.0
H1968 H 0.58643 0.97729 0.5722 0.0
H1969 H 0.56137 0.96996 0.60226 0.0
C1970 C 0.3507 0.88747 0.64205 0.0
C1971 C 0.353 0.92097 0.63224 0.0
C1972 C 0.38749 0.88732 0.64658 0.0
C1973 C 0.42752 0.92146 0.64193 0.0
C1974 C 0.42984 0.95818 0.63455 0.0
C1975 C 0.39248 0.95779 0.62954 0.0
C1976 C 0.46321 0.91279 0.64008 0.0
C1977 C 0.48192 0.9194 0.62363 0.0
C1978 C 0.47009 0.8876 0.65225 0.0
C1979 C 0.45303 0.88081 0.67013 0.0
C1980 C 0.45819 0.91544 0.68019 0.0
C1981 C 0.44108 0.90867 0.69681 0.0
C1982 C 0.4187 0.86739 0.70353 0.0
C1983 C 0.4135 0.83277 0.69367 0.0
C1984 C 0.43057 0.83934 0.67707 0.0
C1985 C 0.58798 0.84019 0.61813 0.0
C1986 C 0.56322 0.79552 0.61754 0.0
C1987 C 0.56906 0.86447 0.62178 0.0
C1988 C 0.52532 0.84422 0.62506 0.0
C1989 C 0.50017 0.79961 0.62405 0.0
C1990 C 0.51906 0.77524 0.62007 0.0
C1991 C 0.50607 0.86973 0.63007 0.0
C1992 C 0.49153 0.86635 0.64698 0.0
C1993 C 0.50269 0.89756 0.61839 0.0
C1994 C 0.51767 0.90194 0.60031 0.0
C1995 C 0.50106 0.8663 0.58927 0.0
C1996 C 0.5155 0.87071 0.57228 0.0
C1997 C 0.54632 0.91068 0.56615 0.0
C1998 C 0.56264 0.94634 0.57698 0.0
C1999 C 0.54831 0.94208 0.59399 0.0
H2000 H 0.55745 0.91405 0.55299 0.0
H2001 H 0.40532 0.86222 0.71636 0.0
H2002 H 0.5753 0.59053 0.89681 0.0
H2003 H 0.50625 0.52751 0.89082 0.0
H2004 H 0.50571 0.57617 0.84027 0.0
H2005 H 0.5749 0.63944 0.84633 0.0
H2006 H 0.44467 0.55192 0.88593 0.0
H2007 H 0.41981 0.47777 0.81702 0.0
H2008 H 0.45719 0.45678 0.79609 0.0
H2009 H 0.53447 0.45047 0.83664 0.0
H2010 H 0.49636 0.46958 0.85795 0.0
H2011 H 0.23329 0.47013 0.86344 0.0
H2012 H 0.31008 0.50538 0.85786 0.0
H2013 H 0.30767 0.38648 0.86647 0.0
H2014 H 0.23027 0.35088 0.87155 0.0
H2015 H 0.37019 0.43873 0.84193 0.0
H2016 H 0.32657 0.45083 0.89975 0.0
H2017 H 0.28553 0.46774 0.92055 0.0
H2018 H 0.34741 0.59711 0.90251 0.0
H2019 H 0.38839 0.58079 0.88144 0.0
C2020 C 0.56205 0.58632 0.88395 0.0
C2021 C 0.58074 0.61985 0.87202 0.0
C2022 C 0.52208 0.55053 0.88063 0.0
C2023 C 0.50033 0.54736 0.86521 0.0
C2024 C 0.52181 0.57772 0.85225 0.0
C2025 C 0.56184 0.61369 0.85563 0.0
C2026 C 0.45304 0.51899 0.86444 0.0
C2027 C 0.42861 0.5271 0.8763 0.0
C2028 C 0.4318 0.4867 0.85183 0.0
C2029 C 0.45557 0.47585 0.8391 0.0
C2030 C 0.44465 0.47175 0.82152 0.0
C2031 C 0.4658 0.4599 0.80959 0.0
C2032 C 0.49837 0.45256 0.81501 0.0
C2033 C 0.50947 0.45652 0.83243 0.0
C2034 C 0.48802 0.4678 0.84446 0.0
C2035 C 0.24887 0.45119 0.86336 0.0
C2036 C 0.22595 0.40778 0.86768 0.0
C2037 C 0.2928 0.47138 0.86032 0.0
C2038 C 0.31488 0.44879 0.86204 0.0
C2039 C 0.2914 0.40457 0.86503 0.0
C2040 C 0.24718 0.3842 0.86786 0.0
C2041 C 0.36243 0.47245 0.86319 0.0
C2042 C 0.38667 0.46364 0.85147 0.0
C2043 C 0.38388 0.50432 0.8759 0.0
C2044 C 0.36033 0.51452 0.88896 0.0
C2045 C 0.33133 0.48285 0.9002 0.0
C2046 C 0.30806 0.49232 0.91202 0.0
C2047 C 0.3138 0.53345 0.91283 0.0
C2048 C 0.34298 0.56526 0.90186 0.0
C2049 C 0.36628 0.55593 0.89 0.0
H2050 H 0.29567 0.5407 0.92195 0.0
H2051 H 0.5149 0.44368 0.80573 0.0
loop_
_geom_bond_atom_site_label_1
_geom_bond_atom_site_label_2
_geom_bond_distance
_geom_bond_site_symmetry_2
_ccdc_geom_bond_type
Zn0 O6 1.920 . S
Zn0 O12 1.898 . S
Zn0 O15 1.905 . S
Zn1 O9 1.905 . S
Zn1 O10 1.898 . S
Zn1 O18 1.920 . S
Zn2 O5 2.080 . S
Zn2 O8 2.114 . S
Zn2 O11 2.120 . S
Zn2 O13 2.120 . S
Zn2 O14 2.114 . S
Zn2 O17 2.080 . S
C3 O8 1.166 . S
C3 O9 1.182 . S
C4 O10 1.167 . S
C4 O11 1.299 . S
O5 Zn2 2.080 . S
O5 C19 1.305 . S
O6 Zn0 1.920 . S
O6 C19 1.234 . S
C7 O12 1.167 . S
C7 O13 1.299 . S
O8 Zn2 2.114 . S
O8 C3 1.166 . S
O9 Zn1 1.905 . S
O9 C3 1.182 . S
O10 Zn1 1.898 . S
O10 C4 1.167 . S
O11 Zn2 2.120 . S
O11 C4 1.299 . S
O12 Zn0 1.898 . S
O12 C7 1.167 . S
O13 Zn2 2.120 . S
O13 C7 1.299 . S
O14 Zn2 2.114 . S
O14 C16 1.166 . S
O15 Zn0 1.905 . S
O15 C16 1.182 . S
C16 O14 1.166 . S
C16 O15 1.182 . S
O17 Zn2 2.080 . S
O17 C20 1.305 . S
O18 Zn1 1.920 . S
O18 C20 1.234 . S
C19 O5 1.305 . S
C19 O6 1.234 . S
C20 O17 1.305 . S
C20 O18 1.234 . S
Zn21 O27 1.920 . S
Zn21 O33 1.898 . S
Zn21 O36 1.905 . S
Zn22 O30 1.905 . S
Zn22 O31 1.898 . S
Zn22 O39 1.920 . S
Zn23 O26 2.080 . S
Zn23 O29 2.114 . S
Zn23 O32 2.120 . S
Zn23 O34 2.120 . S
Zn23 O35 2.114 . S
Zn23 O38 2.080 . S
C24 O29 1.166 . S
C24 O30 1.182 . S
C25 O31 1.167 . S
C25 O32 1.299 . S
O26 Zn23 2.080 . S
O26 C40 1.305 . S
O27 Zn21 1.920 . S
O27 C40 1.234 . S
C28 O33 1.167 . S
C28 O34 1.299 . S
O29 Zn23 2.114 . S
O29 C24 1.166 . S
O30 Zn22 1.905 . S
O30 C24 1.182 . S
O31 Zn22 1.898 . S
O31 C25 1.167 . S
O32 Zn23 2.120 . S
O32 C25 1.299 . S
O33 Zn21 1.898 . S
O33 C28 1.167 . S
O34 Zn23 2.120 . S
O34 C28 1.299 . S
O35 Zn23 2.114 . S
O35 C37 1.166 . S
O36 Zn21 1.905 . S
O36 C37 1.182 . S
C37 O35 1.166 . S
C37 O36 1.182 . S
O38 Zn23 2.080 . S
O38 C41 1.305 . S
O39 Zn22 1.920 . S
O39 C41 1.234 . S
C40 O26 1.305 . S
C40 O27 1.234 . S
C41 O38 1.305 . S
C41 O39 1.234 . S
Zn42 O48 1.920 . S
Zn42 O54 1.898 . S
Zn42 O57 1.905 . S
Zn43 O51 1.905 . S
Zn43 O52 1.898 . S
Zn43 O60 1.920 . S
Zn44 O47 2.080 . S
Zn44 O50 2.114 . S
Zn44 O53 2.120 . S
Zn44 O55 2.120 . S
Zn44 O56 2.114 . S
Zn44 O59 2.080 . S
C45 O50 1.166 . S
C45 O51 1.182 . S
C46 O52 1.167 . S
C46 O53 1.299 . S
O47 Zn44 2.080 . S
O47 C61 1.305 . S
O48 Zn42 1.920 . S
O48 C61 1.234 . S
C49 O54 1.167 . S
C49 O55 1.299 . S
O50 Zn44 2.114 . S
O50 C45 1.166 . S
O51 Zn43 1.905 . S
O51 C45 1.182 . S
O52 Zn43 1.898 . S
O52 C46 1.167 . S
O53 Zn44 2.120 . S
O53 C46 1.299 . S
O54 Zn42 1.898 . S
O54 C49 1.167 . S
O55 Zn44 2.120 . S
O55 C49 1.299 . S
O56 Zn44 2.114 . S
O56 C58 1.166 . S
O57 Zn42 1.905 . S
O57 C58 1.182 . S
C58 O56 1.166 . S
C58 O57 1.182 . S
O59 Zn44 2.080 . S
O59 C62 1.305 . S
O60 Zn43 1.920 . S
O60 C62 1.234 . S
C61 O47 1.305 . S
C61 O48 1.234 . S
C62 O59 1.305 . S
C62 O60 1.234 . S
Zn63 O69 1.920 . S
Zn63 O75 1.898 . S
Zn63 O78 1.905 . S
Zn64 O72 1.905 . S
Zn64 O73 1.898 . S
Zn64 O81 1.920 . S
Zn65 O68 2.080 . S
Zn65 O71 2.114 . S
Zn65 O74 2.120 . S
Zn65 O76 2.120 . S
Zn65 O77 2.114 . S
Zn65 O80 2.080 . S
C66 O71 1.166 . S
C66 O72 1.182 . S
C67 O73 1.167 . S
C67 O74 1.299 . S
O68 Zn65 2.080 . S
O68 C82 1.305 . S
O69 Zn63 1.920 . S
O69 C82 1.234 . S
C70 O75 1.167 . S
C70 O76 1.299 . S
O71 Zn65 2.114 . S
O71 C66 1.166 . S
O72 Zn64 1.905 . S
O72 C66 1.182 . S
O73 Zn64 1.898 . S
O73 C67 1.167 . S
O74 Zn65 2.120 . S
O74 C67 1.299 . S
O75 Zn63 1.898 . S
O75 C70 1.167 . S
O76 Zn65 2.120 . S
O76 C70 1.299 . S
O77 Zn65 2.114 . S
O77 C79 1.166 . S
O78 Zn63 1.905 . S
O78 C79 1.182 . S
C79 O77 1.166 . S
C79 O78 1.182 . S
O80 Zn65 2.080 . S
O80 C83 1.305 . S
O81 Zn64 1.920 . S
O81 C83 1.234 . S
C82 O68 1.305 . S
C82 O69 1.234 . S
C83 O80 1.305 . S
C83 O81 1.234 . S
Zn84 O90 1.920 . S
Zn84 O96 1.898 . S
Zn84 O99 1.905 . S
Zn85 O93 1.905 . S
Zn85 O94 1.898 . S
Zn85 O102 1.920 . S
Zn86 O89 2.080 . S
Zn86 O92 2.114 . S
Zn86 O95 2.120 . S
Zn86 O97 2.120 . S
Zn86 O98 2.114 . S
Zn86 O101 2.080 . S
C87 O92 1.166 . S
C87 O93 1.182 . S
C88 O94 1.167 . S
C88 O95 1.299 . S
O89 Zn86 2.080 . S
O89 C103 1.305 . S
O90 Zn84 1.920 . S
O90 C103 1.234 . S
C91 O96 1.167 . S
C91 O97 1.299 . S
O92 Zn86 2.114 . S
O92 C87 1.166 . S
O93 Zn85 1.905 . S
O93 C87 1.182 . S
O94 Zn85 1.898 . S
O94 C88 1.167 . S
O95 Zn86 2.120 . S
O95 C88 1.299 . S
O96 Zn84 1.898 . S
O96 C91 1.167 . S
O97 Zn86 2.120 . S
O97 C91 1.299 . S
O98 Zn86 2.114 . S
O98 C100 1.166 . S
O99 Zn84 1.905 . S
O99 C100 1.182 . S
C100 O98 1.166 . S
C100 O99 1.182 . S
O101 Zn86 2.080 . S
O101 C104 1.305 . S
O102 Zn85 1.920 . S
O102 C104 1.234 . S
C103 O89 1.305 . S
C103 O90 1.234 . S
C104 O101 1.305 . S
C104 O102 1.234 . S
Zn105 O111 1.920 . S
Zn105 O117 1.898 . S
Zn105 O120 1.905 . S
Zn106 O114 1.905 . S
Zn106 O115 1.898 . S
Zn106 O123 1.920 . S
Zn107 O110 2.080 . S
Zn107 O113 2.114 . S
Zn107 O116 2.120 . S
Zn107 O118 2.120 . S
Zn107 O119 2.114 . S
Zn107 O122 2.080 . S
C108 O113 1.166 . S
C108 O114 1.182 . S
C109 O115 1.167 . S
C109 O116 1.299 . S
O110 Zn107 2.080 . S
O110 C124 1.305 . S
O111 Zn105 1.920 . S
O111 C124 1.234 . S
C112 O117 1.167 . S
C112 O118 1.299 . S
O113 Zn107 2.114 . S
O113 C108 1.166 . S
O114 Zn106 1.905 . S
O114 C108 1.182 . S
O115 Zn106 1.898 . S
O115 C109 1.167 . S
O116 Zn107 2.120 . S
O116 C109 1.299 . S
O117 Zn105 1.898 . S
O117 C112 1.167 . S
O118 Zn107 2.120 . S
O118 C112 1.299 . S
O119 Zn107 2.114 . S
O119 C121 1.166 . S
O120 Zn105 1.905 . S
O120 C121 1.182 . S
C121 O119 1.166 . S
C121 O120 1.182 . S
O122 Zn107 2.080 . S
O122 C125 1.305 . S
O123 Zn106 1.920 . S
O123 C125 1.234 . S
C124 O110 1.305 . S
C124 O111 1.234 . S
C125 O122 1.305 . S
C125 O123 1.234 . S
Zn126 O132 1.920 . S
Zn126 O138 1.898 . S
Zn126 O141 1.905 . S
Zn127 O135 1.905 . S
Zn127 O136 1.898 . S
Zn127 O144 1.920 . S
Zn128 O131 2.080 . S
Zn128 O134 2.114 . S
Zn128 O137 2.120 . S
Zn128 O139 2.120 . S
Zn128 O140 2.114 . S
Zn128 O143 2.080 . S
C129 O134 1.166 . S
C129 O135 1.182 . S
C130 O136 1.167 . S
C130 O137 1.299 . S
O131 Zn128 2.080 . S
O131 C145 1.305 . S
O132 Zn126 1.920 . S
O132 C145 1.234 . S
C133 O138 1.167 . S
C133 O139 1.299 . S
O134 Zn128 2.114 . S
O134 C129 1.166 . S
O135 Zn127 1.905 . S
O135 C129 1.182 . S
O136 Zn127 1.898 . S
O136 C130 1.167 . S
O137 Zn128 2.120 . S
O137 C130 1.299 . S
O138 Zn126 1.898 . S
O138 C133 1.167 . S
O139 Zn128 2.120 . S
O139 C133 1.299 . S
O140 Zn128 2.114 . S
O140 C142 1.166 . S
O141 Zn126 1.905 . S
O141 C142 1.182 . S
C142 O140 1.166 . S
C142 O141 1.182 . S
O143 Zn128 2.080 . S
O143 C146 1.305 . S
O144 Zn127 1.920 . S
O144 C146 1.234 . S
C145 O131 1.305 . S
C145 O132 1.234 . S
C146 O143 1.305 . S
C146 O144 1.234 . S
Zn147 O153 1.920 . S
Zn147 O159 1.898 . S
Zn147 O162 1.905 . S
Zn148 O156 1.905 . S
Zn148 O157 1.898 . S
Zn148 O165 1.920 . S
Zn149 O152 2.080 . S
Zn149 O155 2.114 . S
Zn149 O158 2.120 . S
Zn149 O160 2.120 . S
Zn149 O161 2.114 . S
Zn149 O164 2.080 . S
C150 O155 1.166 . S
C150 O156 1.182 . S
C151 O157 1.167 . S
C151 O158 1.299 . S
O152 Zn149 2.080 . S
O152 C166 1.305 . S
O153 Zn147 1.920 . S
O153 C166 1.234 . S
C154 O159 1.167 . S
C154 O160 1.299 . S
O155 Zn149 2.114 . S
O155 C150 1.166 . S
O156 Zn148 1.905 . S
O156 C150 1.182 . S
O157 Zn148 1.898 . S
O157 C151 1.167 . S
O158 Zn149 2.120 . S
O158 C151 1.299 . S
O159 Zn147 1.898 . S
O159 C154 1.167 . S
O160 Zn149 2.120 . S
O160 C154 1.299 . S
O161 Zn149 2.114 . S
O161 C163 1.166 . S
O162 Zn147 1.905 . S
O162 C163 1.182 . S
C163 O161 1.166 . S
C163 O162 1.182 . S
O164 Zn149 2.080 . S
O164 C167 1.305 . S
O165 Zn148 1.920 . S
O165 C167 1.234 . S
C166 O152 1.305 . S
C166 O153 1.234 . S
C167 O164 1.305 . S
C167 O165 1.234 . S
Zn168 O174 1.920 . S
Zn168 O180 1.898 . S
Zn168 O183 1.905 . S
Zn169 O177 1.905 . S
Zn169 O178 1.898 . S
Zn169 O186 1.920 . S
Zn170 O173 2.080 . S
Zn170 O176 2.114 . S
Zn170 O179 2.120 . S
Zn170 O181 2.120 . S
Zn170 O182 2.114 . S
Zn170 O185 2.080 . S
C171 O176 1.166 . S
C171 O177 1.182 . S
C172 O178 1.167 . S
C172 O179 1.299 . S
O173 Zn170 2.080 . S
O173 C187 1.305 . S
O174 Zn168 1.920 . S
O174 C187 1.234 . S
C175 O180 1.167 . S
C175 O181 1.299 . S
O176 Zn170 2.114 . S
O176 C171 1.166 . S
O177 Zn169 1.905 . S
O177 C171 1.182 . S
O178 Zn169 1.898 . S
O178 C172 1.167 . S
O179 Zn170 2.120 . S
O179 C172 1.299 . S
O180 Zn168 1.898 . S
O180 C175 1.167 . S
O181 Zn170 2.120 . S
O181 C175 1.299 . S
O182 Zn170 2.114 . S
O182 C184 1.166 . S
O183 Zn168 1.905 . S
O183 C184 1.182 . S
C184 O182 1.166 . S
C184 O183 1.182 . S
O185 Zn170 2.080 . S
O185 C188 1.305 . S
O186 Zn169 1.920 . S
O186 C188 1.234 . S
C187 O173 1.305 . S
C187 O174 1.234 . S
C188 O185 1.305 . S
C188 O186 1.234 . S
Zn189 O195 1.920 . S
Zn189 O201 1.898 . S
Zn189 O204 1.905 . S
Zn190 O198 1.905 . S
Zn190 O199 1.898 . S
Zn190 O207 1.920 . S
Zn191 O194 2.080 . S
Zn191 O197 2.114 . S
Zn191 O200 2.120 . S
Zn191 O202 2.120 . S
Zn191 O203 2.114 . S
Zn191 O206 2.080 . S
C192 O197 1.166 . S
C192 O198 1.182 . S
C193 O199 1.167 . S
C193 O200 1.299 . S
O194 Zn191 2.080 . S
O194 C208 1.305 . S
O195 Zn189 1.920 . S
O195 C208 1.234 . S
C196 O201 1.167 . S
C196 O202 1.299 . S
O197 Zn191 2.114 . S
O197 C192 1.166 . S
O198 Zn190 1.905 . S
O198 C192 1.182 . S
O199 Zn190 1.898 . S
O199 C193 1.167 . S
O200 Zn191 2.120 . S
O200 C193 1.299 . S
O201 Zn189 1.898 . S
O201 C196 1.167 . S
O202 Zn191 2.120 . S
O202 C196 1.299 . S
O203 Zn191 2.114 . S
O203 C205 1.166 . S
O204 Zn189 1.905 . S
O204 C205 1.182 . S
C205 O203 1.166 . S
C205 O204 1.182 . S
O206 Zn191 2.080 . S
O206 C209 1.305 . S
O207 Zn190 1.920 . S
O207 C209 1.234 . S
C208 O194 1.305 . S
C208 O195 1.234 . S
C209 O206 1.305 . S
C209 O207 1.234 . S
Zn210 O216 1.920 . S
Zn210 O222 1.898 . S
Zn210 O225 1.905 . S
Zn211 O219 1.905 . S
Zn211 O220 1.898 . S
Zn211 O228 1.920 . S
Zn212 O215 2.080 . S
Zn212 O218 2.114 . S
Zn212 O221 2.120 . S
Zn212 O223 2.120 . S
Zn212 O224 2.114 . S
Zn212 O227 2.080 . S
C213 O218 1.166 . S
C213 O219 1.182 . S
C214 O220 1.167 . S
C214 O221 1.299 . S
O215 Zn212 2.080 . S
O215 C229 1.305 . S
O216 Zn210 1.920 . S
O216 C229 1.234 . S
C217 O222 1.167 . S
C217 O223 1.299 . S
O218 Zn212 2.114 . S
O218 C213 1.166 . S
O219 Zn211 1.905 . S
O219 C213 1.182 . S
O220 Zn211 1.898 . S
O220 C214 1.167 . S
O221 Zn212 2.120 . S
O221 C214 1.299 . S
O222 Zn210 1.898 . S
O222 C217 1.167 . S
O223 Zn212 2.120 . S
O223 C217 1.299 . S
O224 Zn212 2.114 . S
O224 C226 1.166 . S
O225 Zn210 1.905 . S
O225 C226 1.182 . S
C226 O224 1.166 . S
C226 O225 1.182 . S
O227 Zn212 2.080 . S
O227 C230 1.305 . S
O228 Zn211 1.920 . S
O228 C230 1.234 . S
C229 O215 1.305 . S
C229 O216 1.234 . S
C230 O227 1.305 . S
C230 O228 1.234 . S
Zn231 O237 1.920 . S
Zn231 O243 1.898 . S
Zn231 O246 1.905 . S
Zn232 O240 1.905 . S
Zn232 O241 1.898 . S
Zn232 O249 1.920 . S
Zn233 O236 2.080 . S
Zn233 O239 2.114 . S
Zn233 O242 2.120 . S
Zn233 O244 2.120 . S
Zn233 O245 2.114 . S
Zn233 O248 2.080 . S
C234 O239 1.166 . S
C234 O240 1.182 . S
C235 O241 1.167 . S
C235 O242 1.299 . S
O236 Zn233 2.080 . S
O236 C250 1.305 . S
O237 Zn231 1.920 . S
O237 C250 1.234 . S
C238 O243 1.167 . S
C238 O244 1.299 . S
O239 Zn233 2.114 . S
O239 C234 1.166 . S
O240 Zn232 1.905 . S
O240 C234 1.182 . S
O241 Zn232 1.898 . S
O241 C235 1.167 . S
O242 Zn233 2.120 . S
O242 C235 1.299 . S
O243 Zn231 1.898 . S
O243 C238 1.167 . S
O244 Zn233 2.120 . S
O244 C238 1.299 . S
O245 Zn233 2.114 . S
O245 C247 1.166 . S
O246 Zn231 1.905 . S
O246 C247 1.182 . S
C247 O245 1.166 . S
C247 O246 1.182 . S
O248 Zn233 2.080 . S
O248 C251 1.305 . S
O249 Zn232 1.920 . S
O249 C251 1.234 . S
C250 O236 1.305 . S
C250 O237 1.234 . S
C251 O248 1.305 . S
C251 O249 1.234 . S
H252 C270 0.951 . S
H253 C272 0.951 . S
H254 C274 0.950 . S
H255 C275 0.950 1_655 S
H256 C277 0.950 . S
H257 C280 0.950 . S
H258 C281 0.950 . S
H259 C283 0.950 . S
H260 C284 0.950 . S
H261 C285 0.951 . S
H262 C287 0.951 . S
H263 C289 0.950 . S
H264 C290 0.950 . S
H265 C292 0.950 . S
H266 C295 0.950 . S
H267 C296 0.950 . S
H268 C298 0.950 . S
H269 C299 0.950 . S
C270 H252 0.951 . S
C270 C271 1.366 . S
C270 C272 1.388 . S
C271 C270 1.366 . S
C271 C275 1.385 . S
C272 H253 0.951 . S
C272 C270 1.388 . S
C272 C273 1.366 . S
C273 C272 1.366 . S
C273 C274 1.414 . S
C273 C276 1.499 . S
C274 H254 0.950 . S
C274 C273 1.414 . S
C274 C275 1.374 . S
C275 H255 0.950 1_455 S
C275 C271 1.385 . S
C275 C274 1.374 . S
C276 C273 1.499 . S
C276 C277 1.373 . S
C276 C278 1.389 . S
C277 H256 0.950 . S
C277 C276 1.373 . S
C277 C293 1.377 . S
C278 C276 1.389 . S
C278 C279 1.524 . S
C278 C292 1.377 . S
C279 C278 1.524 . S
C279 C280 1.397 . S
C279 C284 1.363 . S
C280 H257 0.950 . S
C280 C279 1.397 . S
C280 C281 1.334 . S
C281 H258 0.950 . S
C281 C280 1.334 . S
C281 C282 1.287 . S
C282 C281 1.287 . S
C282 C283 1.524 . S
C282 H301 0.913 . S
C283 H259 0.950 . S
C283 C282 1.524 . S
C283 C284 1.415 . S
C284 H260 0.950 . S
C284 C279 1.363 . S
C284 C283 1.415 . S
C285 H261 0.951 . S
C285 C286 1.366 . S
C285 C287 1.388 . S
C286 C285 1.366 . S
C286 C290 1.385 . S
C287 H262 0.951 . S
C287 C285 1.388 . S
C287 C288 1.366 . S
C288 C287 1.366 . S
C288 C289 1.414 . S
C288 C291 1.499 . S
C289 H263 0.950 . S
C289 C288 1.414 . S
C289 C290 1.374 . S
C290 H264 0.950 . S
C290 C286 1.385 . S
C290 C289 1.374 . S
C291 C288 1.499 . S
C291 C292 1.373 . S
C291 C293 1.389 . S
C292 H265 0.950 . S
C292 C278 1.377 . S
C292 C291 1.373 . S
C293 C277 1.377 . S
C293 C291 1.389 . S
C293 C294 1.524 . S
C294 C293 1.524 . S
C294 C295 1.397 . S
C294 C299 1.363 . S
C295 H266 0.950 . S
C295 C294 1.397 . S
C295 C296 1.334 . S
C296 H267 0.950 . S
C296 C295 1.334 . S
C296 C297 1.287 . S
C297 C296 1.287 . S
C297 C298 1.524 . S
C297 H300 0.999 . S
C298 H268 0.950 . S
C298 C297 1.524 . S
C298 C299 1.415 . S
C299 H269 0.950 . S
C299 C294 1.363 . S
C299 C298 1.415 . S
H300 C297 0.999 . S
H301 C282 0.913 . S
H302 C320 0.951 1_545 S
H303 C322 0.951 . S
H304 C324 0.950 . S
H305 C325 0.950 . S
H306 C327 0.950 . S
H307 C330 0.950 . S
H308 C331 0.950 . S
H309 C333 0.950 . S
H310 C334 0.950 . S
H311 C335 0.951 . S
H312 C337 0.951 . S
H313 C339 0.950 . S
H314 C340 0.950 . S
H315 C342 0.950 . S
H316 C345 0.950 . S
H317 C346 0.950 . S
H318 C348 0.950 . S
H319 C349 0.950 . S
C320 H302 0.951 1_565 S
C320 C321 1.366 . S
C320 C322 1.388 . S
C321 C320 1.366 . S
C321 C325 1.385 . S
C322 H303 0.951 . S
C322 C320 1.388 . S
C322 C323 1.366 . S
C323 C322 1.366 . S
C323 C324 1.414 . S
C323 C326 1.499 . S
C324 H304 0.950 . S
C324 C323 1.414 . S
C324 C325 1.374 . S
C325 H305 0.950 . S
C325 C321 1.385 . S
C325 C324 1.374 . S
C326 C323 1.499 . S
C326 C327 1.373 . S
C326 C328 1.389 . S
C327 H306 0.950 . S
C327 C326 1.373 . S
C327 C343 1.377 . S
C328 C326 1.389 . S
C328 C329 1.524 . S
C328 C342 1.377 . S
C329 C328 1.524 . S
C329 C330 1.397 . S
C329 C334 1.363 . S
C330 H307 0.950 . S
C330 C329 1.397 . S
C330 C331 1.334 . S
C331 H308 0.950 . S
C331 C330 1.334 . S
C331 C332 1.287 . S
C332 C331 1.287 . S
C332 C333 1.524 . S
C332 H351 0.913 . S
C333 H309 0.950 . S
C333 C332 1.524 . S
C333 C334 1.415 . S
C334 H310 0.950 . S
C334 C329 1.363 . S
C334 C333 1.415 . S
C335 H311 0.951 . S
C335 C336 1.366 . S
C335 C337 1.388 . S
C336 C335 1.366 . S
C336 C340 1.385 . S
C337 H312 0.951 . S
C337 C335 1.388 . S
C337 C338 1.366 . S
C338 C337 1.366 . S
C338 C339 1.414 . S
C338 C341 1.499 1_655 S
C339 H313 0.950 . S
C339 C338 1.414 . S
C339 C340 1.374 . S
C340 H314 0.950 . S
C340 C336 1.385 . S
C340 C339 1.374 . S
C341 C338 1.499 1_455 S
C341 C342 1.373 . S
C341 C343 1.389 . S
C342 H315 0.950 . S
C342 C328 1.377 . S
C342 C341 1.373 . S
C343 C327 1.377 . S
C343 C341 1.389 . S
C343 C344 1.524 . S
C344 C343 1.524 . S
C344 C345 1.397 1_455 S
C344 C349 1.363 . S
C345 H316 0.950 . S
C345 C344 1.397 1_655 S
C345 C346 1.334 . S
C346 H317 0.950 . S
C346 C345 1.334 . S
C346 C347 1.287 . S
C347 C346 1.287 . S
C347 C348 1.524 1_655 S
C347 H350 0.999 . S
C348 H318 0.950 . S
C348 C347 1.524 1_455 S
C348 C349 1.415 . S
C349 H319 0.950 . S
C349 C344 1.363 . S
C349 C348 1.415 . S
H350 C347 0.999 . S
H351 C332 0.913 . S
H352 C370 0.951 . S
H353 C372 0.951 . S
H354 C374 0.950 . S
H355 C375 0.950 . S
H356 C377 0.950 . S
H357 C380 0.949 . S
H358 C381 0.950 1_545 S
H359 C383 0.950 . S
H360 C384 0.950 . S
H361 C385 0.951 . S
H362 C387 0.951 . S
H363 C389 0.950 . S
H364 C390 0.950 . S
H365 C392 0.950 . S
H366 C395 0.950 . S
H367 C396 0.950 . S
H368 C398 0.950 . S
H369 C399 0.950 . S
C370 H352 0.951 . S
C370 C371 1.366 . S
C370 C372 1.388 . S
C371 C370 1.366 . S
C371 C375 1.385 . S
C372 H353 0.951 . S
C372 C370 1.388 . S
C372 C373 1.366 . S
C373 C372 1.366 . S
C373 C374 1.414 . S
C373 C376 1.499 1_545 S
C374 H354 0.950 . S
C374 C373 1.414 . S
C374 C375 1.374 . S
C375 H355 0.950 . S
C375 C371 1.385 . S
C375 C374 1.374 . S
C376 C373 1.499 1_565 S
C376 C377 1.373 . S
C376 C378 1.389 . S
C377 H356 0.950 . S
C377 C376 1.373 . S
C377 C393 1.377 . S
C378 C376 1.389 . S
C378 C379 1.524 . S
C378 C392 1.377 . S
C379 C378 1.524 . S
C379 C380 1.397 . S
C379 C384 1.363 . S
C380 H357 0.949 . S
C380 C379 1.397 . S
C380 C381 1.334 . S
C381 H358 0.950 1_565 S
C381 C380 1.334 . S
C381 C382 1.287 . S
C382 C381 1.287 . S
C382 C383 1.524 . S
C382 H401 0.913 . S
C383 H359 0.950 . S
C383 C382 1.524 . S
C383 C384 1.415 . S
C384 H360 0.950 . S
C384 C379 1.363 . S
C384 C383 1.415 . S
C385 H361 0.951 . S
C385 C386 1.366 . S
C385 C387 1.388 . S
C386 C385 1.366 . S
C386 C390 1.385 . S
C387 H362 0.951 . S
C387 C385 1.388 . S
C387 C388 1.366 . S
C388 C387 1.366 . S
C388 C389 1.414 . S
C388 C391 1.499 . S
C389 H363 0.950 . S
C389 C388 1.414 . S
C389 C390 1.374 . S
C390 H364 0.950 . S
C390 C386 1.385 . S
C390 C389 1.374 . S
C391 C388 1.499 . S
C391 C392 1.373 . S
C391 C393 1.389 . S
C392 H365 0.950 . S
C392 C378 1.377 . S
C392 C391 1.373 . S
C393 C377 1.377 . S
C393 C391 1.389 . S
C393 C394 1.524 . S
C394 C393 1.524 . S
C394 C395 1.397 . S
C394 C399 1.363 . S
C395 H366 0.950 . S
C395 C394 1.397 . S
C395 C396 1.334 . S
C396 H367 0.950 . S
C396 C395 1.334 . S
C396 C397 1.287 . S
C397 C396 1.287 . S
C397 C398 1.524 . S
C397 H400 0.999 . S
C398 H368 0.950 . S
C398 C397 1.524 . S
C398 C399 1.415 . S
C399 H369 0.950 . S
C399 C394 1.363 . S
C399 C398 1.415 . S
H400 C397 0.999 . S
H401 C382 0.913 . S
H402 C420 0.951 . S
H403 C422 0.951 . S
H404 C424 0.950 . S
H405 C425 0.950 . S
H406 C427 0.950 . S
H407 C430 0.950 . S
H408 C431 0.950 . S
H409 C433 0.950 . S
H410 C434 0.950 . S
H411 C435 0.951 . S
H412 C437 0.951 . S
H413 C439 0.950 . S
H414 C440 0.950 1_655 S
H415 C442 0.950 . S
H416 C445 0.950 . S
H417 C446 0.950 . S
H418 C448 0.950 . S
H419 C449 0.950 . S
C420 H402 0.951 . S
C420 C421 1.366 . S
C420 C422 1.388 . S
C421 C420 1.366 . S
C421 C425 1.385 . S
C422 H403 0.951 . S
C422 C420 1.388 . S
C422 C423 1.366 . S
C423 C422 1.366 . S
C423 C424 1.414 . S
C423 C426 1.499 . S
C424 H404 0.950 . S
C424 C423 1.414 . S
C424 C425 1.374 . S
C425 H405 0.950 . S
C425 C421 1.385 . S
C425 C424 1.374 . S
C426 C423 1.499 . S
C426 C427 1.373 . S
C426 C428 1.389 . S
C427 H406 0.950 . S
C427 C426 1.373 . S
C427 C443 1.377 . S
C428 C426 1.389 . S
C428 C429 1.524 . S
C428 C442 1.377 . S
C429 C428 1.524 . S
C429 C430 1.397 . S
C429 C434 1.363 . S
C430 H407 0.950 . S
C430 C429 1.397 . S
C430 C431 1.334 . S
C431 H408 0.950 . S
C431 C430 1.334 . S
C431 C432 1.287 . S
C432 C431 1.287 . S
C432 C433 1.524 . S
C432 H451 0.913 . S
C433 H409 0.950 . S
C433 C432 1.524 . S
C433 C434 1.415 . S
C434 H410 0.950 . S
C434 C429 1.363 . S
C434 C433 1.415 . S
C435 H411 0.951 . S
C435 C436 1.366 . S
C435 C437 1.388 . S
C436 C435 1.366 . S
C436 C440 1.385 . S
C437 H412 0.951 . S
C437 C435 1.388 . S
C437 C438 1.366 . S
C438 C437 1.366 . S
C438 C439 1.414 . S
C438 C441 1.499 . S
C439 H413 0.950 . S
C439 C438 1.414 . S
C439 C440 1.374 . S
C440 H414 0.950 1_455 S
C440 C436 1.385 . S
C440 C439 1.374 . S
C441 C438 1.499 . S
C441 C442 1.373 . S
C441 C443 1.389 . S
C442 H415 0.950 . S
C442 C428 1.377 . S
C442 C441 1.373 . S
C443 C427 1.377 . S
C443 C441 1.389 . S
C443 C444 1.524 . S
C444 C443 1.524 . S
C444 C445 1.397 . S
C444 C449 1.363 . S
C445 H416 0.950 . S
C445 C444 1.397 . S
C445 C446 1.334 . S
C446 H417 0.950 . S
C446 C445 1.334 . S
C446 C447 1.287 . S
C447 C446 1.287 . S
C447 C448 1.524 . S
C447 H450 0.999 . S
C448 H418 0.950 . S
C448 C447 1.524 . S
C448 C449 1.415 . S
C449 H419 0.950 . S
C449 C444 1.363 . S
C449 C448 1.415 . S
H450 C447 0.999 . S
H451 C432 0.913 . S
H452 C470 0.951 . S
H453 C472 0.951 . S
H454 C474 0.950 . S
H455 C475 0.950 1_545 S
H456 C477 0.950 . S
H457 C480 0.950 . S
H458 C481 0.950 . S
H459 C483 0.950 . S
H460 C484 0.950 . S
H461 C485 0.951 . S
H462 C487 0.951 . S
H463 C489 0.950 . S
H464 C490 0.950 . S
H465 C492 0.950 . S
H466 C495 0.950 . S
H467 C496 0.950 . S
H468 C498 0.950 . S
H469 C499 0.950 . S
C470 H452 0.951 . S
C470 C471 1.366 . S
C470 C472 1.388 . S
C471 C470 1.366 . S
C471 C475 1.385 . S
C472 H453 0.951 . S
C472 C470 1.388 . S
C472 C473 1.366 . S
C473 C472 1.366 . S
C473 C474 1.414 . S
C473 C476 1.499 . S
C474 H454 0.950 . S
C474 C473 1.414 . S
C474 C475 1.374 . S
C475 H455 0.950 1_565 S
C475 C471 1.385 . S
C475 C474 1.374 . S
C476 C473 1.499 . S
C476 C477 1.373 . S
C476 C478 1.389 . S
C477 H456 0.950 . S
C477 C476 1.373 . S
C477 C493 1.377 . S
C478 C476 1.389 . S
C478 C479 1.524 . S
C478 C492 1.377 . S
C479 C478 1.524 . S
C479 C480 1.397 . S
C479 C484 1.363 . S
C480 H457 0.950 . S
C480 C479 1.397 . S
C480 C481 1.334 . S
C481 H458 0.950 . S
C481 C480 1.334 . S
C481 C482 1.287 . S
C482 C481 1.287 . S
C482 C483 1.524 . S
C482 H501 0.913 . S
C483 H459 0.950 . S
C483 C482 1.524 . S
C483 C484 1.415 . S
C484 H460 0.950 . S
C484 C479 1.363 . S
C484 C483 1.415 . S
C485 H461 0.951 . S
C485 C486 1.366 . S
C485 C487 1.388 . S
C486 C485 1.366 . S
C486 C490 1.385 . S
C487 H462 0.951 . S
C487 C485 1.388 . S
C487 C488 1.366 . S
C488 C487 1.366 . S
C488 C489 1.414 . S
C488 C491 1.499 1_655 S
C489 H463 0.950 . S
C489 C488 1.414 . S
C489 C490 1.374 . S
C490 H464 0.950 . S
C490 C486 1.385 . S
C490 C489 1.374 . S
C491 C488 1.499 1_455 S
C491 C492 1.373 . S
C491 C493 1.389 . S
C492 H465 0.950 . S
C492 C478 1.377 . S
C492 C491 1.373 . S
C493 C477 1.377 . S
C493 C491 1.389 . S
C493 C494 1.524 . S
C494 C493 1.524 . S
C494 C495 1.397 1_455 S
C494 C499 1.363 . S
C495 H466 0.950 . S
C495 C494 1.397 1_655 S
C495 C496 1.334 . S
C496 H467 0.950 . S
C496 C495 1.334 . S
C496 C497 1.287 . S
C497 C496 1.287 . S
C497 C498 1.524 . S
C497 H500 0.999 . S
C498 H468 0.950 . S
C498 C497 1.524 . S
C498 C499 1.415 1_655 S
C499 H469 0.950 . S
C499 C494 1.363 . S
C499 C498 1.415 1_455 S
H500 C497 0.999 . S
H501 C482 0.913 . S
H502 C520 0.951 . S
H503 C522 0.951 . S
H504 C524 0.950 . S
H505 C525 0.950 . S
H506 C527 0.950 . S
H507 C530 0.950 . S
H508 C531 0.950 . S
H509 C533 0.950 . S
H510 C534 0.950 . S
H511 C535 0.951 . S
H512 C537 0.951 . S
H513 C539 0.950 . S
H514 C540 0.950 . S
H515 C542 0.950 . S
H516 C545 0.950 . S
H517 C546 0.950 1_545 S
H518 C548 0.950 . S
H519 C549 0.950 . S
C520 H502 0.951 . S
C520 C521 1.366 . S
C520 C522 1.388 . S
C521 C520 1.366 . S
C521 C525 1.385 . S
C522 H503 0.951 . S
C522 C520 1.388 . S
C522 C523 1.366 . S
C523 C522 1.366 . S
C523 C524 1.414 . S
C523 C526 1.499 . S
C524 H504 0.950 . S
C524 C523 1.414 . S
C524 C525 1.374 . S
C525 H505 0.950 . S
C525 C521 1.385 . S
C525 C524 1.374 . S
C526 C523 1.499 . S
C526 C527 1.373 . S
C526 C528 1.389 . S
C527 H506 0.950 . S
C527 C526 1.373 . S
C527 C543 1.377 . S
C528 C526 1.389 . S
C528 C529 1.524 . S
C528 C542 1.377 . S
C529 C528 1.524 . S
C529 C530 1.397 . S
C529 C534 1.363 . S
C530 H507 0.950 . S
C530 C529 1.397 . S
C530 C531 1.334 . S
C531 H508 0.950 . S
C531 C530 1.334 . S
C531 C532 1.287 . S
C532 C531 1.287 . S
C532 C533 1.524 . S
C532 H551 0.913 . S
C533 H509 0.950 . S
C533 C532 1.524 . S
C533 C534 1.415 . S
C534 H510 0.950 . S
C534 C529 1.363 . S
C534 C533 1.415 . S
C535 H511 0.951 . S
C535 C536 1.366 . S
C535 C537 1.388 . S
C536 C535 1.366 . S
C536 C540 1.385 . S
C537 H512 0.951 . S
C537 C535 1.388 . S
C537 C538 1.366 . S
C538 C537 1.366 . S
C538 C539 1.414 . S
C538 C541 1.499 1_545 S
C539 H513 0.950 . S
C539 C538 1.414 . S
C539 C540 1.374 . S
C540 H514 0.950 . S
C540 C536 1.385 . S
C540 C539 1.374 . S
C541 C538 1.499 1_565 S
C541 C542 1.373 . S
C541 C543 1.389 . S
C542 H515 0.950 . S
C542 C528 1.377 . S
C542 C541 1.373 . S
C543 C527 1.377 . S
C543 C541 1.389 . S
C543 C544 1.524 . S
C544 C543 1.524 . S
C544 C545 1.397 . S
C544 C549 1.363 . S
C545 H516 0.950 . S
C545 C544 1.397 . S
C545 C546 1.334 . S
C546 H517 0.950 1_565 S
C546 C545 1.334 . S
C546 C547 1.287 . S
C547 C546 1.287 . S
C547 C548 1.524 . S
C547 H550 0.999 . S
C548 H518 0.950 . S
C548 C547 1.524 . S
C548 C549 1.415 . S
C549 H519 0.950 . S
C549 C544 1.363 . S
C549 C548 1.415 . S
H550 C547 0.999 . S
H551 C532 0.913 . S
H552 C570 0.951 1_565 S
H553 C572 0.951 . S
H554 C574 0.950 . S
H555 C575 0.950 . S
H556 C577 0.950 . S
H557 C580 0.950 . S
H558 C581 0.950 . S
H559 C583 0.950 . S
H560 C584 0.950 . S
H561 C585 0.951 . S
H562 C587 0.951 . S
H563 C589 0.950 . S
H564 C590 0.950 . S
H565 C592 0.950 . S
H566 C595 0.950 . S
H567 C596 0.950 . S
H568 C598 0.950 . S
H569 C599 0.950 . S
C570 H552 0.951 1_545 S
C570 C571 1.366 . S
C570 C572 1.388 . S
C571 C570 1.366 . S
C571 C575 1.385 . S
C572 H553 0.951 . S
C572 C570 1.388 . S
C572 C573 1.366 . S
C573 C572 1.366 . S
C573 C574 1.414 . S
C573 C576 1.499 . S
C574 H554 0.950 . S
C574 C573 1.414 . S
C574 C575 1.374 . S
C575 H555 0.950 . S
C575 C571 1.385 . S
C575 C574 1.374 . S
C576 C573 1.499 . S
C576 C577 1.373 . S
C576 C578 1.389 . S
C577 H556 0.950 . S
C577 C576 1.373 . S
C577 C593 1.377 . S
C578 C576 1.389 . S
C578 C579 1.524 . S
C578 C592 1.377 . S
C579 C578 1.524 . S
C579 C580 1.397 . S
C579 C584 1.363 . S
C580 H557 0.950 . S
C580 C579 1.397 . S
C580 C581 1.334 . S
C581 H558 0.950 . S
C581 C580 1.334 . S
C581 C582 1.287 . S
C582 C581 1.287 . S
C582 C583 1.524 . S
C582 H601 0.913 . S
C583 H559 0.950 . S
C583 C582 1.524 . S
C583 C584 1.415 . S
C584 H560 0.950 . S
C584 C579 1.363 . S
C584 C583 1.415 . S
C585 H561 0.951 . S
C585 C586 1.366 . S
C585 C587 1.388 . S
C586 C585 1.366 . S
C586 C590 1.385 . S
C587 H562 0.951 . S
C587 C585 1.388 . S
C587 C588 1.366 . S
C588 C587 1.366 . S
C588 C589 1.414 . S
C588 C591 1.499 . S
C589 H563 0.950 . S
C589 C588 1.414 . S
C589 C590 1.374 . S
C590 H564 0.950 . S
C590 C586 1.385 . S
C590 C589 1.374 . S
C591 C588 1.499 . S
C591 C592 1.373 . S
C591 C593 1.389 . S
C592 H565 0.950 . S
C592 C578 1.377 . S
C592 C591 1.373 . S
C593 C577 1.377 . S
C593 C591 1.389 . S
C593 C594 1.524 . S
C594 C593 1.524 . S
C594 C595 1.397 . S
C594 C599 1.363 . S
C595 H566 0.950 . S
C595 C594 1.397 . S
C595 C596 1.334 . S
C596 H567 0.950 . S
C596 C595 1.334 . S
C596 C597 1.287 . S
C597 C596 1.287 . S
C597 C598 1.524 . S
C597 H600 0.999 . S
C598 H568 0.950 . S
C598 C597 1.524 . S
C598 C599 1.415 . S
C599 H569 0.950 . S
C599 C594 1.363 . S
C599 C598 1.415 . S
H600 C597 0.999 . S
H601 C582 0.913 . S
H602 C620 0.951 . S
H603 C622 0.951 . S
H604 C624 0.950 . S
H605 C625 0.950 . S
H606 C627 0.950 . S
H607 C630 0.945 . S
H608 C631 0.950 . S
H609 C633 0.950 . S
H610 C634 0.950 . S
H611 C635 0.951 . S
H612 C637 0.951 . S
H613 C639 0.950 . S
H614 C640 0.950 . S
H615 C642 0.950 . S
H616 C645 0.950 . S
H617 C646 0.950 . S
H618 C648 0.950 . S
H619 C649 0.950 . S
C620 H602 0.951 . S
C620 C621 1.366 . S
C620 C622 1.388 . S
C621 C620 1.366 . S
C621 C625 1.385 . S
C622 H603 0.951 . S
C622 C620 1.388 . S
C622 C623 1.366 . S
C623 C622 1.366 . S
C623 C624 1.414 . S
C623 C626 1.499 1_455 S
C624 H604 0.950 . S
C624 C623 1.414 . S
C624 C625 1.374 . S
C625 H605 0.950 . S
C625 C621 1.385 . S
C625 C624 1.374 . S
C626 C623 1.499 1_655 S
C626 C627 1.373 . S
C626 C628 1.389 . S
C627 H606 0.950 . S
C627 C626 1.373 . S
C627 C643 1.377 . S
C628 C626 1.389 . S
C628 C629 1.524 . S
C628 C642 1.377 . S
C629 C628 1.524 . S
C629 C630 1.408 . S
C629 C634 1.363 . S
C630 H607 0.945 . S
C630 C629 1.408 . S
C630 C631 1.327 1_655 S
C631 H608 0.950 . S
C631 C630 1.327 1_455 S
C631 C632 1.287 . S
C632 C631 1.287 . S
C632 C633 1.524 1_455 S
C632 H651 0.913 . S
C633 H609 0.950 . S
C633 C632 1.524 1_655 S
C633 C634 1.415 . S
C634 H610 0.950 . S
C634 C629 1.363 . S
C634 C633 1.415 . S
C635 H611 0.951 . S
C635 C636 1.366 . S
C635 C637 1.388 . S
C636 C635 1.366 . S
C636 C640 1.385 . S
C637 H612 0.951 . S
C637 C635 1.388 . S
C637 C638 1.366 . S
C638 C637 1.366 . S
C638 C639 1.414 . S
C638 C641 1.499 . S
C639 H613 0.950 . S
C639 C638 1.414 . S
C639 C640 1.374 . S
C640 H614 0.950 . S
C640 C636 1.385 . S
C640 C639 1.374 . S
C641 C638 1.499 . S
C641 C642 1.373 . S
C641 C643 1.389 . S
C642 H615 0.950 . S
C642 C628 1.377 . S
C642 C641 1.373 . S
C643 C627 1.377 . S
C643 C641 1.389 . S
C643 C644 1.524 . S
C644 C643 1.524 . S
C644 C645 1.397 . S
C644 C649 1.363 . S
C645 H616 0.950 . S
C645 C644 1.397 . S
C645 C646 1.334 . S
C646 H617 0.950 . S
C646 C645 1.334 . S
C646 C647 1.287 . S
C647 C646 1.287 . S
C647 C648 1.524 . S
C647 H650 0.999 . S
C648 H618 0.950 . S
C648 C647 1.524 . S
C648 C649 1.415 . S
C649 H619 0.950 . S
C649 C644 1.363 . S
C649 C648 1.415 . S
H650 C647 0.999 . S
H651 C632 0.913 . S
H652 C670 0.951 . S
H653 C672 0.951 . S
H654 C674 0.950 . S
H655 C675 0.950 . S
H656 C677 0.950 . S
H657 C680 0.950 . S
H658 C681 0.950 . S
H659 C683 0.950 . S
H660 C684 0.950 . S
H661 C685 0.951 1_455 S
H662 C687 0.951 . S
H663 C689 0.950 . S
H664 C690 0.950 . S
H665 C692 0.950 . S
H666 C695 0.950 . S
H667 C696 0.950 . S
H668 C698 0.950 . S
H669 C699 0.950 . S
C670 H652 0.951 . S
C670 C671 1.366 . S
C670 C672 1.388 . S
C671 C670 1.366 . S
C671 C675 1.385 . S
C672 H653 0.951 . S
C672 C670 1.388 . S
C672 C673 1.366 . S
C673 C672 1.366 . S
C673 C674 1.414 . S
C673 C676 1.499 1_565 S
C674 H654 0.950 . S
C674 C673 1.414 . S
C674 C675 1.374 . S
C675 H655 0.950 . S
C675 C671 1.385 . S
C675 C674 1.374 . S
C676 C673 1.499 1_545 S
C676 C677 1.373 . S
C676 C678 1.389 . S
C677 H656 0.950 . S
C677 C676 1.373 . S
C677 C693 1.377 . S
C678 C676 1.389 . S
C678 C679 1.524 . S
C678 C692 1.377 . S
C679 C678 1.524 . S
C679 C680 1.397 1_545 S
C679 C684 1.363 . S
C680 H657 0.950 . S
C680 C679 1.397 1_565 S
C680 C681 1.334 . S
C681 H658 0.950 . S
C681 C680 1.334 . S
C681 C682 1.287 . S
C682 C681 1.287 . S
C682 C683 1.524 1_565 S
C682 H701 0.913 . S
C683 H659 0.950 . S
C683 C682 1.524 1_545 S
C683 C684 1.415 . S
C684 H660 0.950 . S
C684 C679 1.363 . S
C684 C683 1.415 . S
C685 H661 0.951 1_655 S
C685 C686 1.366 . S
C685 C687 1.388 . S
C686 C685 1.366 . S
C686 C690 1.385 . S
C687 H662 0.951 . S
C687 C685 1.388 . S
C687 C688 1.366 . S
C688 C687 1.366 . S
C688 C689 1.414 . S
C688 C691 1.499 . S
C689 H663 0.950 . S
C689 C688 1.414 . S
C689 C690 1.374 . S
C690 H664 0.950 . S
C690 C686 1.385 . S
C690 C689 1.374 . S
C691 C688 1.499 . S
C691 C692 1.373 . S
C691 C693 1.389 . S
C692 H665 0.950 . S
C692 C678 1.377 . S
C692 C691 1.373 . S
C693 C677 1.377 . S
C693 C691 1.389 . S
C693 C694 1.524 . S
C694 C693 1.524 . S
C694 C695 1.397 . S
C694 C699 1.363 . S
C695 H666 0.950 . S
C695 C694 1.397 . S
C695 C696 1.334 . S
C696 H667 0.950 . S
C696 C695 1.334 . S
C696 C697 1.287 . S
C697 C696 1.287 . S
C697 C698 1.524 . S
C697 H700 0.999 . S
C698 H668 0.950 . S
C698 C697 1.524 . S
C698 C699 1.415 . S
C699 H669 0.950 . S
C699 C694 1.363 . S
C699 C698 1.415 . S
H700 C697 0.999 . S
H701 C682 0.913 . S
H702 C720 0.951 . S
H703 C722 0.951 . S
H704 C724 0.950 . S
H705 C725 0.950 . S
H706 C727 0.950 . S
H707 C730 0.950 . S
H708 C731 0.950 . S
H709 C733 0.950 . S
H710 C734 0.950 . S
H711 C735 0.951 1_565 S
H712 C737 0.951 . S
H713 C739 0.950 . S
H714 C740 0.950 . S
H715 C742 0.950 . S
H716 C745 0.950 . S
H717 C746 0.950 . S
H718 C748 0.950 . S
H719 C749 0.950 . S
C720 H702 0.951 . S
C720 C721 1.366 . S
C720 C722 1.388 . S
C721 C720 1.366 . S
C721 C725 1.385 . S
C722 H703 0.951 . S
C722 C720 1.388 . S
C722 C723 1.366 . S
C723 C722 1.366 . S
C723 C724 1.414 . S
C723 C726 1.499 . S
C724 H704 0.950 . S
C724 C723 1.414 . S
C724 C725 1.374 . S
C725 H705 0.950 . S
C725 C721 1.385 . S
C725 C724 1.374 . S
C726 C723 1.499 . S
C726 C727 1.373 . S
C726 C728 1.389 . S
C727 H706 0.950 . S
C727 C726 1.373 . S
C727 C743 1.377 . S
C728 C726 1.389 . S
C728 C729 1.524 . S
C728 C742 1.377 . S
C729 C728 1.524 . S
C729 C730 1.397 . S
C729 C734 1.363 . S
C730 H707 0.950 . S
C730 C729 1.397 . S
C730 C731 1.334 . S
C731 H708 0.950 . S
C731 C730 1.334 . S
C731 C732 1.287 . S
C732 C731 1.287 . S
C732 C733 1.524 . S
C732 H751 0.913 . S
C733 H709 0.950 . S
C733 C732 1.524 . S
C733 C734 1.415 . S
C734 H710 0.950 . S
C734 C729 1.363 . S
C734 C733 1.415 . S
C735 H711 0.951 1_545 S
C735 C736 1.366 . S
C735 C737 1.388 . S
C736 C735 1.366 . S
C736 C740 1.385 . S
C737 H712 0.951 . S
C737 C735 1.388 . S
C737 C738 1.366 . S
C738 C737 1.366 . S
C738 C739 1.414 . S
C738 C741 1.499 . S
C739 H713 0.950 . S
C739 C738 1.414 . S
C739 C740 1.374 . S
C740 H714 0.950 . S
C740 C736 1.385 . S
C740 C739 1.374 . S
C741 C738 1.499 . S
C741 C742 1.373 . S
C741 C743 1.389 . S
C742 H715 0.950 . S
C742 C728 1.377 . S
C742 C741 1.373 . S
C743 C727 1.377 . S
C743 C741 1.389 . S
C743 C744 1.524 . S
C744 C743 1.524 . S
C744 C745 1.397 . S
C744 C749 1.363 . S
C745 H716 0.950 . S
C745 C744 1.397 . S
C745 C746 1.334 . S
C746 H717 0.950 . S
C746 C745 1.334 . S
C746 C747 1.287 . S
C747 C746 1.287 . S
C747 C748 1.524 . S
C747 H750 0.999 . S
C748 H718 0.950 . S
C748 C747 1.524 . S
C748 C749 1.415 . S
C749 H719 0.950 . S
C749 C744 1.363 . S
C749 C748 1.415 . S
H750 C747 0.999 . S
H751 C732 0.913 . S
H752 C770 0.951 . S
H753 C772 0.951 . S
H754 C774 0.950 . S
H755 C775 0.950 . S
H756 C777 0.950 . S
H757 C780 0.950 1_455 S
H758 C781 0.948 1_455 S
H759 C783 0.950 . S
H760 C784 0.950 . S
H761 C785 0.951 . S
H762 C787 0.951 . S
H763 C789 0.950 . S
H764 C790 0.950 . S
H765 C792 0.950 . S
H766 C795 0.950 . S
H767 C796 0.950 . S
H768 C798 0.950 . S
H769 C799 0.950 . S
C770 H752 0.951 . S
C770 C771 1.366 . S
C770 C772 1.388 . S
C771 C770 1.366 . S
C771 C775 1.385 . S
C772 H753 0.951 . S
C772 C770 1.388 . S
C772 C773 1.366 . S
C773 C772 1.366 . S
C773 C774 1.414 . S
C773 C776 1.499 1_455 S
C774 H754 0.950 . S
C774 C773 1.414 . S
C774 C775 1.374 . S
C775 H755 0.950 . S
C775 C771 1.385 . S
C775 C774 1.374 . S
C776 C773 1.499 1_655 S
C776 C777 1.373 . S
C776 C778 1.389 . S
C777 H756 0.950 . S
C777 C776 1.373 . S
C777 C793 1.377 . S
C778 C776 1.389 . S
C778 C779 1.524 . S
C778 C792 1.377 . S
C779 C778 1.524 . S
C779 C780 1.397 . S
C779 C784 1.363 . S
C780 H757 0.950 1_655 S
C780 C779 1.397 . S
C780 C781 1.337 . S
C781 H758 0.948 1_655 S
C781 C780 1.337 . S
C781 C782 1.287 . S
C782 C781 1.287 . S
C782 C783 1.524 . S
C782 H801 0.913 . S
C783 H759 0.950 . S
C783 C782 1.524 . S
C783 C784 1.415 . S
C784 H760 0.950 . S
C784 C779 1.363 . S
C784 C783 1.415 . S
C785 H761 0.951 . S
C785 C786 1.366 . S
C785 C787 1.388 . S
C786 C785 1.366 . S
C786 C790 1.385 . S
C787 H762 0.951 . S
C787 C785 1.388 . S
C787 C788 1.366 . S
C788 C787 1.366 . S
C788 C789 1.414 . S
C788 C791 1.499 . S
C789 H763 0.950 . S
C789 C788 1.414 . S
C789 C790 1.374 . S
C790 H764 0.950 . S
C790 C786 1.385 . S
C790 C789 1.374 . S
C791 C788 1.499 . S
C791 C792 1.373 . S
C791 C793 1.389 . S
C792 H765 0.950 . S
C792 C778 1.377 . S
C792 C791 1.373 . S
C793 C777 1.377 . S
C793 C791 1.389 . S
C793 C794 1.524 . S
C794 C793 1.524 . S
C794 C795 1.397 . S
C794 C799 1.363 . S
C795 H766 0.950 . S
C795 C794 1.397 . S
C795 C796 1.334 . S
C796 H767 0.950 . S
C796 C795 1.334 . S
C796 C797 1.287 . S
C797 C796 1.287 . S
C797 C798 1.524 . S
C797 H800 0.999 . S
C798 H768 0.950 . S
C798 C797 1.524 . S
C798 C799 1.415 . S
C799 H769 0.950 . S
C799 C794 1.363 . S
C799 C798 1.415 . S
H800 C797 0.999 . S
H801 C782 0.913 . S
H802 C820 0.951 1_455 S
H803 C822 0.951 . S
H804 C824 0.950 . S
H805 C825 0.950 . S
H806 C827 0.950 . S
H807 C830 0.950 . S
H808 C831 0.950 . S
H809 C833 0.950 1_455 S
H810 C834 0.950 . S
H811 C835 0.951 . S
H812 C837 0.951 . S
H813 C839 0.950 . S
H814 C840 0.950 . S
H815 C842 0.950 . S
H816 C845 0.950 1_565 S
H817 C846 0.950 . S
H818 C848 0.950 . S
H819 C849 0.950 . S
C820 H802 0.951 1_655 S
C820 C821 1.366 . S
C820 C822 1.388 . S
C821 C820 1.366 . S
C821 C825 1.385 . S
C822 H803 0.951 . S
C822 C820 1.388 . S
C822 C823 1.366 . S
C823 C822 1.366 . S
C823 C824 1.414 . S
C823 C826 1.499 . S
C824 H804 0.950 . S
C824 C823 1.414 . S
C824 C825 1.374 . S
C825 H805 0.950 . S
C825 C821 1.385 . S
C825 C824 1.374 . S
C826 C823 1.499 . S
C826 C827 1.373 . S
C826 C828 1.389 . S
C827 H806 0.950 . S
C827 C826 1.373 . S
C827 C843 1.377 . S
C828 C826 1.389 . S
C828 C829 1.524 . S
C828 C842 1.377 . S
C829 C828 1.524 . S
C829 C830 1.397 . S
C829 C834 1.363 . S
C830 H807 0.950 . S
C830 C829 1.397 . S
C830 C831 1.334 . S
C831 H808 0.950 . S
C831 C830 1.334 . S
C831 C832 1.287 1_655 S
C832 C831 1.287 1_455 S
C832 C833 1.524 1_455 S
C832 H851 0.913 . S
C833 H809 0.950 1_655 S
C833 C832 1.524 1_655 S
C833 C834 1.415 . S
C834 H810 0.950 . S
C834 C829 1.363 . S
C834 C833 1.415 . S
C835 H811 0.951 . S
C835 C836 1.366 . S
C835 C837 1.388 . S
C836 C835 1.366 . S
C836 C840 1.385 . S
C837 H812 0.951 . S
C837 C835 1.388 . S
C837 C838 1.366 . S
C838 C837 1.366 . S
C838 C839 1.414 . S
C838 C841 1.499 1_565 S
C839 H813 0.950 . S
C839 C838 1.414 . S
C839 C840 1.374 . S
C840 H814 0.950 . S
C840 C836 1.385 . S
C840 C839 1.374 . S
C841 C838 1.499 1_545 S
C841 C842 1.373 . S
C841 C843 1.389 . S
C842 H815 0.950 . S
C842 C828 1.377 . S
C842 C841 1.373 . S
C843 C827 1.377 . S
C843 C841 1.389 . S
C843 C844 1.524 . S
C844 C843 1.524 . S
C844 C845 1.397 . S
C844 C849 1.363 . S
C845 H816 0.950 1_545 S
C845 C844 1.397 . S
C845 C846 1.334 1_545 S
C846 H817 0.950 . S
C846 C845 1.334 1_565 S
C846 C847 1.287 1_565 S
C847 C846 1.287 1_545 S
C847 C848 1.524 . S
C847 H850 0.999 . S
C848 H818 0.950 . S
C848 C847 1.524 . S
C848 C849 1.415 . S
C849 H819 0.950 . S
C849 C844 1.363 . S
C849 C848 1.415 . S
H850 C847 0.999 . S
H851 C832 0.913 . S
H852 C870 0.951 . S
H853 C872 0.951 . S
H854 C874 0.950 . S
H855 C875 0.950 . S
H856 C877 0.950 . S
H857 C880 0.950 . S
H858 C881 0.950 . S
H859 C883 0.950 . S
H860 C884 0.950 . S
H861 C885 0.951 . S
H862 C887 0.951 . S
H863 C889 0.950 . S
H864 C890 0.950 . S
H865 C892 0.950 . S
H866 C895 0.950 . S
H867 C896 0.950 . S
H868 C898 0.950 . S
H869 C899 0.950 . S
C870 H852 0.951 . S
C870 C871 1.366 . S
C870 C872 1.388 . S
C871 C870 1.366 . S
C871 C875 1.385 . S
C872 H853 0.951 . S
C872 C870 1.388 . S
C872 C873 1.366 . S
C873 C872 1.366 . S
C873 C874 1.414 . S
C873 C876 1.499 . S
C874 H854 0.950 . S
C874 C873 1.414 . S
C874 C875 1.374 . S
C875 H855 0.950 . S
C875 C871 1.385 . S
C875 C874 1.374 . S
C876 C873 1.499 . S
C876 C877 1.373 . S
C876 C878 1.389 . S
C877 H856 0.950 . S
C877 C876 1.373 . S
C877 C893 1.377 . S
C878 C876 1.389 . S
C878 C879 1.524 . S
C878 C892 1.377 . S
C879 C878 1.524 . S
C879 C880 1.397 . S
C879 C884 1.363 . S
C880 H857 0.950 . S
C880 C879 1.397 . S
C880 C881 1.334 . S
C881 H858 0.950 . S
C881 C880 1.334 . S
C881 C882 1.287 . S
C882 C881 1.287 . S
C882 C883 1.524 . S
C882 H901 0.913 . S
C883 H859 0.950 . S
C883 C882 1.524 . S
C883 C884 1.415 . S
C884 H860 0.950 . S
C884 C879 1.363 . S
C884 C883 1.415 . S
C885 H861 0.951 . S
C885 C886 1.366 . S
C885 C887 1.388 . S
C886 C885 1.366 . S
C886 C890 1.385 . S
C887 H862 0.951 . S
C887 C885 1.388 . S
C887 C888 1.366 . S
C888 C887 1.366 . S
C888 C889 1.414 . S
C888 C891 1.499 . S
C889 H863 0.950 . S
C889 C888 1.414 . S
C889 C890 1.374 . S
C890 H864 0.950 . S
C890 C886 1.385 . S
C890 C889 1.374 . S
C891 C888 1.499 . S
C891 C892 1.373 . S
C891 C893 1.389 . S
C892 H865 0.950 . S
C892 C878 1.377 . S
C892 C891 1.373 . S
C893 C877 1.377 . S
C893 C891 1.389 . S
C893 C894 1.524 . S
C894 C893 1.524 . S
C894 C895 1.397 . S
C894 C899 1.363 . S
C895 H866 0.950 . S
C895 C894 1.397 . S
C895 C896 1.334 . S
C896 H867 0.950 . S
C896 C895 1.334 . S
C896 C897 1.287 . S
C897 C896 1.287 . S
C897 C898 1.524 . S
C897 H900 0.999 . S
C898 H868 0.950 . S
C898 C897 1.524 . S
C898 C899 1.415 . S
C899 H869 0.950 . S
C899 C894 1.363 . S
C899 C898 1.415 . S
H900 C897 0.999 . S
H901 C882 0.913 . S
H902 C920 0.951 . S
H903 C922 0.951 . S
H904 C924 0.950 . S
H905 C925 0.950 . S
H906 C927 0.950 . S
H907 C930 0.950 . S
H908 C931 0.950 . S
H909 C933 0.950 . S
H910 C934 0.950 . S
H911 C935 0.951 . S
H912 C937 0.951 . S
H913 C939 0.950 . S
H914 C940 0.950 . S
H915 C942 0.950 . S
H916 C945 0.950 . S
H917 C946 0.950 . S
H918 C948 0.950 . S
H919 C949 0.950 . S
C920 H902 0.951 . S
C920 C921 1.366 . S
C920 C922 1.388 . S
C921 C920 1.366 . S
C921 C925 1.385 . S
C922 H903 0.951 . S
C922 C920 1.388 . S
C922 C923 1.366 . S
C923 C922 1.366 . S
C923 C924 1.414 . S
C923 C926 1.499 . S
C924 H904 0.950 . S
C924 C923 1.414 . S
C924 C925 1.374 . S
C925 H905 0.950 . S
C925 C921 1.385 . S
C925 C924 1.374 . S
C926 C923 1.499 . S
C926 C927 1.373 . S
C926 C928 1.389 . S
C927 H906 0.950 . S
C927 C926 1.373 . S
C927 C943 1.377 . S
C928 C926 1.389 . S
C928 C929 1.524 . S
C928 C942 1.377 . S
C929 C928 1.524 . S
C929 C930 1.397 . S
C929 C934 1.363 . S
C930 H907 0.950 . S
C930 C929 1.397 . S
C930 C931 1.334 . S
C931 H908 0.950 . S
C931 C930 1.334 . S
C931 C932 1.287 . S
C932 C931 1.287 . S
C932 C933 1.524 . S
C932 H951 0.913 . S
C933 H909 0.950 . S
C933 C932 1.524 . S
C933 C934 1.415 . S
C934 H910 0.950 . S
C934 C929 1.363 . S
C934 C933 1.415 . S
C935 H911 0.951 . S
C935 C936 1.366 . S
C935 C937 1.388 . S
C936 C935 1.366 . S
C936 C940 1.385 . S
C937 H912 0.951 . S
C937 C935 1.388 . S
C937 C938 1.366 . S
C938 C937 1.366 . S
C938 C939 1.414 . S
C938 C941 1.499 . S
C939 H913 0.950 . S
C939 C938 1.414 . S
C939 C940 1.374 . S
C940 H914 0.950 . S
C940 C936 1.385 . S
C940 C939 1.374 . S
C941 C938 1.499 . S
C941 C942 1.373 . S
C941 C943 1.389 . S
C942 H915 0.950 . S
C942 C928 1.377 . S
C942 C941 1.373 . S
C943 C927 1.377 . S
C943 C941 1.389 . S
C943 C944 1.524 . S
C944 C943 1.524 . S
C944 C945 1.397 . S
C944 C949 1.363 . S
C945 H916 0.950 . S
C945 C944 1.397 . S
C945 C946 1.334 . S
C946 H917 0.950 . S
C946 C945 1.334 . S
C946 C947 1.287 . S
C947 C946 1.287 . S
C947 C948 1.524 . S
C947 H950 0.999 . S
C948 H918 0.950 . S
C948 C947 1.524 . S
C948 C949 1.415 . S
C949 H919 0.950 . S
C949 C944 1.363 . S
C949 C948 1.415 . S
H950 C947 0.999 . S
H951 C932 0.913 . S
H952 C970 0.951 . S
H953 C972 0.951 . S
H954 C974 0.950 . S
H955 C975 0.950 . S
H956 C977 0.950 . S
H957 C980 0.950 . S
H958 C981 0.950 . S
H959 C983 0.950 . S
H960 C984 0.950 . S
H961 C985 0.951 . S
H962 C987 0.951 . S
H963 C989 0.950 . S
H964 C990 0.950 . S
H965 C992 0.950 . S
H966 C995 0.950 . S
H967 C996 0.950 . S
H968 C998 0.950 . S
H969 C999 0.950 . S
C970 H952 0.951 . S
C970 C971 1.366 . S
C970 C972 1.388 . S
C971 C970 1.366 . S
C971 C975 1.385 . S
C972 H953 0.951 . S
C972 C970 1.388 . S
C972 C973 1.366 . S
C973 C972 1.366 . S
C973 C974 1.414 . S
C973 C976 1.499 . S
C974 H954 0.950 . S
C974 C973 1.414 . S
C974 C975 1.374 . S
C975 H955 0.950 . S
C975 C971 1.385 . S
C975 C974 1.374 . S
C976 C973 1.499 . S
C976 C977 1.373 . S
C976 C978 1.389 . S
C977 H956 0.950 . S
C977 C976 1.373 . S
C977 C993 1.377 . S
C978 C976 1.389 . S
C978 C979 1.524 . S
C978 C992 1.377 . S
C979 C978 1.524 . S
C979 C980 1.397 . S
C979 C984 1.363 1_655 S
C980 H957 0.950 . S
C980 C979 1.397 . S
C980 C981 1.334 1_655 S
C981 H958 0.950 . S
C981 C980 1.334 1_455 S
C981 C982 1.287 . S
C982 C981 1.287 . S
C982 C983 1.524 . S
C982 H1001 0.913 . S
C983 H959 0.950 . S
C983 C982 1.524 . S
C983 C984 1.415 . S
C984 H960 0.950 . S
C984 C979 1.363 1_455 S
C984 C983 1.415 . S
C985 H961 0.951 . S
C985 C986 1.366 . S
C985 C987 1.388 . S
C986 C985 1.366 . S
C986 C990 1.385 . S
C987 H962 0.951 . S
C987 C985 1.388 . S
C987 C988 1.366 . S
C988 C987 1.366 . S
C988 C989 1.414 . S
C988 C991 1.499 . S
C989 H963 0.950 . S
C989 C988 1.414 . S
C989 C990 1.374 . S
C990 H964 0.950 . S
C990 C986 1.385 . S
C990 C989 1.374 . S
C991 C988 1.499 . S
C991 C992 1.373 . S
C991 C993 1.389 . S
C992 H965 0.950 . S
C992 C978 1.377 . S
C992 C991 1.373 . S
C993 C977 1.377 . S
C993 C991 1.389 . S
C993 C994 1.524 . S
C994 C993 1.524 . S
C994 C995 1.397 . S
C994 C999 1.363 . S
C995 H966 0.950 . S
C995 C994 1.397 . S
C995 C996 1.334 . S
C996 H967 0.950 . S
C996 C995 1.334 . S
C996 C997 1.287 . S
C997 C996 1.287 . S
C997 C998 1.524 . S
C997 H1000 0.999 . S
C998 H968 0.950 . S
C998 C997 1.524 . S
C998 C999 1.415 . S
C999 H969 0.950 . S
C999 C994 1.363 . S
C999 C998 1.415 . S
H1000 C997 0.999 . S
H1001 C982 0.913 . S
H1002 C1020 0.951 . S
H1003 C1022 0.951 . S
H1004 C1024 0.950 . S
H1005 C1025 0.950 . S
H1006 C1027 0.950 . S
H1007 C1030 0.950 . S
H1008 C1031 0.950 . S
H1009 C1033 0.950 . S
H1010 C1034 0.950 . S
H1011 C1035 0.951 . S
H1012 C1037 0.951 . S
H1013 C1039 0.950 . S
H1014 C1040 0.950 . S
H1015 C1042 0.950 . S
H1016 C1045 0.950 1_455 S
H1017 C1046 0.950 . S
H1018 C1048 0.950 . S
H1019 C1049 0.950 . S
C1020 H1002 0.951 . S
C1020 C1021 1.366 . S
C1020 C1022 1.388 . S
C1021 C1020 1.366 . S
C1021 C1025 1.385 . S
C1022 H1003 0.951 . S
C1022 C1020 1.388 . S
C1022 C1023 1.366 . S
C1023 C1022 1.366 . S
C1023 C1024 1.414 . S
C1023 C1026 1.499 . S
C1024 H1004 0.950 . S
C1024 C1023 1.414 . S
C1024 C1025 1.374 . S
C1025 H1005 0.950 . S
C1025 C1021 1.385 . S
C1025 C1024 1.374 . S
C1026 C1023 1.499 . S
C1026 C1027 1.373 . S
C1026 C1028 1.389 . S
C1027 H1006 0.950 . S
C1027 C1026 1.373 . S
C1027 C1043 1.377 . S
C1028 C1026 1.389 . S
C1028 C1029 1.524 . S
C1028 C1042 1.377 . S
C1029 C1028 1.524 . S
C1029 C1030 1.397 . S
C1029 C1034 1.363 . S
C1030 H1007 0.950 . S
C1030 C1029 1.397 . S
C1030 C1031 1.334 . S
C1031 H1008 0.950 . S
C1031 C1030 1.334 . S
C1031 C1032 1.287 . S
C1032 C1031 1.287 . S
C1032 C1033 1.524 . S
C1032 H1051 0.913 . S
C1033 H1009 0.950 . S
C1033 C1032 1.524 . S
C1033 C1034 1.415 . S
C1034 H1010 0.950 . S
C1034 C1029 1.363 . S
C1034 C1033 1.415 . S
C1035 H1011 0.951 . S
C1035 C1036 1.366 . S
C1035 C1037 1.388 . S
C1036 C1035 1.366 . S
C1036 C1040 1.385 . S
C1037 H1012 0.951 . S
C1037 C1035 1.388 . S
C1037 C1038 1.366 . S
C1038 C1037 1.366 . S
C1038 C1039 1.414 . S
C1038 C1041 1.499 . S
C1039 H1013 0.950 . S
C1039 C1038 1.414 . S
C1039 C1040 1.374 . S
C1040 H1014 0.950 . S
C1040 C1036 1.385 . S
C1040 C1039 1.374 . S
C1041 C1038 1.499 . S
C1041 C1042 1.373 . S
C1041 C1043 1.389 . S
C1042 H1015 0.950 . S
C1042 C1028 1.377 . S
C1042 C1041 1.373 . S
C1043 C1027 1.377 . S
C1043 C1041 1.389 . S
C1043 C1044 1.524 . S
C1044 C1043 1.524 . S
C1044 C1045 1.397 1_455 S
C1044 C1049 1.363 1_455 S
C1045 H1016 0.950 1_655 S
C1045 C1044 1.397 1_655 S
C1045 C1046 1.334 . S
C1046 H1017 0.950 . S
C1046 C1045 1.334 . S
C1046 C1047 1.287 . S
C1047 C1046 1.287 . S
C1047 C1048 1.524 . S
C1047 H1050 0.999 . S
C1048 H1018 0.950 . S
C1048 C1047 1.524 . S
C1048 C1049 1.415 . S
C1049 H1019 0.950 . S
C1049 C1044 1.363 1_655 S
C1049 C1048 1.415 . S
H1050 C1047 0.999 . S
H1051 C1032 0.913 . S
H1052 C1070 0.951 . S
H1053 C1072 0.951 . S
H1054 C1074 0.950 . S
H1055 C1075 0.950 . S
H1056 C1077 0.950 . S
H1057 C1080 0.950 . S
H1058 C1081 0.950 . S
H1059 C1083 0.950 . S
H1060 C1084 0.950 . S
H1061 C1085 0.951 . S
H1062 C1087 0.951 . S
H1063 C1089 0.950 . S
H1064 C1090 0.950 . S
H1065 C1092 0.950 . S
H1066 C1095 0.950 . S
H1067 C1096 0.950 . S
H1068 C1098 0.950 . S
H1069 C1099 0.950 . S
C1070 H1052 0.951 . S
C1070 C1071 1.366 . S
C1070 C1072 1.388 . S
C1071 C1070 1.366 . S
C1071 C1075 1.385 . S
C1072 H1053 0.951 . S
C1072 C1070 1.388 . S
C1072 C1073 1.366 . S
C1073 C1072 1.366 . S
C1073 C1074 1.414 . S
C1073 C1076 1.499 . S
C1074 H1054 0.950 . S
C1074 C1073 1.414 . S
C1074 C1075 1.374 . S
C1075 H1055 0.950 . S
C1075 C1071 1.385 . S
C1075 C1074 1.374 . S
C1076 C1073 1.499 . S
C1076 C1077 1.373 . S
C1076 C1078 1.389 . S
C1077 H1056 0.950 . S
C1077 C1076 1.373 . S
C1077 C1093 1.377 . S
C1078 C1076 1.389 . S
C1078 C1079 1.524 . S
C1078 C1092 1.377 . S
C1079 C1078 1.524 . S
C1079 C1080 1.397 . S
C1079 C1084 1.363 1_565 S
C1080 H1057 0.950 . S
C1080 C1079 1.397 . S
C1080 C1081 1.334 . S
C1081 H1058 0.950 . S
C1081 C1080 1.334 . S
C1081 C1082 1.287 1_565 S
C1082 C1081 1.287 1_545 S
C1082 C1083 1.524 . S
C1082 H1101 0.913 . S
C1083 H1059 0.950 . S
C1083 C1082 1.524 . S
C1083 C1084 1.415 . S
C1084 H1060 0.950 . S
C1084 C1079 1.363 1_545 S
C1084 C1083 1.415 . S
C1085 H1061 0.951 . S
C1085 C1086 1.366 . S
C1085 C1087 1.388 . S
C1086 C1085 1.366 . S
C1086 C1090 1.385 . S
C1087 H1062 0.951 . S
C1087 C1085 1.388 . S
C1087 C1088 1.366 . S
C1088 C1087 1.366 . S
C1088 C1089 1.414 . S
C1088 C1091 1.499 . S
C1089 H1063 0.950 . S
C1089 C1088 1.414 . S
C1089 C1090 1.374 . S
C1090 H1064 0.950 . S
C1090 C1086 1.385 . S
C1090 C1089 1.374 . S
C1091 C1088 1.499 . S
C1091 C1092 1.373 . S
C1091 C1093 1.389 . S
C1092 H1065 0.950 . S
C1092 C1078 1.377 . S
C1092 C1091 1.373 . S
C1093 C1077 1.377 . S
C1093 C1091 1.389 . S
C1093 C1094 1.524 . S
C1094 C1093 1.524 . S
C1094 C1095 1.397 . S
C1094 C1099 1.363 . S
C1095 H1066 0.950 . S
C1095 C1094 1.397 . S
C1095 C1096 1.334 . S
C1096 H1067 0.950 . S
C1096 C1095 1.334 . S
C1096 C1097 1.287 . S
C1097 C1096 1.287 . S
C1097 C1098 1.524 . S
C1097 H1100 0.999 . S
C1098 H1068 0.950 . S
C1098 C1097 1.524 . S
C1098 C1099 1.415 . S
C1099 H1069 0.950 . S
C1099 C1094 1.363 . S
C1099 C1098 1.415 . S
H1100 C1097 0.999 . S
H1101 C1082 0.913 . S
H1102 C1120 0.951 . S
H1103 C1122 0.951 . S
H1104 C1124 0.950 . S
H1105 C1125 0.950 . S
H1106 C1127 0.950 . S
H1107 C1130 0.950 . S
H1108 C1131 0.950 . S
H1109 C1133 0.950 . S
H1110 C1134 0.950 . S
H1111 C1135 0.951 . S
H1112 C1137 0.951 . S
H1113 C1139 0.950 . S
H1114 C1140 0.950 . S
H1115 C1142 0.950 . S
H1116 C1145 0.950 . S
H1117 C1146 0.950 . S
H1118 C1148 0.950 . S
H1119 C1149 0.950 . S
C1120 H1102 0.951 . S
C1120 C1121 1.366 . S
C1120 C1122 1.388 . S
C1121 C1120 1.366 . S
C1121 C1125 1.385 . S
C1122 H1103 0.951 . S
C1122 C1120 1.388 . S
C1122 C1123 1.366 . S
C1123 C1122 1.366 . S
C1123 C1124 1.414 . S
C1123 C1126 1.499 . S
C1124 H1104 0.950 . S
C1124 C1123 1.414 . S
C1124 C1125 1.374 . S
C1125 H1105 0.950 . S
C1125 C1121 1.385 . S
C1125 C1124 1.374 . S
C1126 C1123 1.499 . S
C1126 C1127 1.373 . S
C1126 C1128 1.389 . S
C1127 H1106 0.950 . S
C1127 C1126 1.373 . S
C1127 C1143 1.377 . S
C1128 C1126 1.389 . S
C1128 C1129 1.524 . S
C1128 C1142 1.377 . S
C1129 C1128 1.524 . S
C1129 C1130 1.397 . S
C1129 C1134 1.363 . S
C1130 H1107 0.950 . S
C1130 C1129 1.397 . S
C1130 C1131 1.334 . S
C1131 H1108 0.950 . S
C1131 C1130 1.334 . S
C1131 C1132 1.287 . S
C1132 C1131 1.287 . S
C1132 C1133 1.524 . S
C1132 H1151 0.913 . S
C1133 H1109 0.950 . S
C1133 C1132 1.524 . S
C1133 C1134 1.415 . S
C1134 H1110 0.950 . S
C1134 C1129 1.363 . S
C1134 C1133 1.415 . S
C1135 H1111 0.951 . S
C1135 C1136 1.366 . S
C1135 C1137 1.388 . S
C1136 C1135 1.366 . S
C1136 C1140 1.385 . S
C1137 H1112 0.951 . S
C1137 C1135 1.388 . S
C1137 C1138 1.366 . S
C1138 C1137 1.366 . S
C1138 C1139 1.414 . S
C1138 C1141 1.499 . S
C1139 H1113 0.950 . S
C1139 C1138 1.414 . S
C1139 C1140 1.374 . S
C1140 H1114 0.950 . S
C1140 C1136 1.385 . S
C1140 C1139 1.374 . S
C1141 C1138 1.499 . S
C1141 C1142 1.373 . S
C1141 C1143 1.389 . S
C1142 H1115 0.950 . S
C1142 C1128 1.377 . S
C1142 C1141 1.373 . S
C1143 C1127 1.377 . S
C1143 C1141 1.389 . S
C1143 C1144 1.524 . S
C1144 C1143 1.524 . S
C1144 C1145 1.397 . S
C1144 C1149 1.363 . S
C1145 H1116 0.950 . S
C1145 C1144 1.397 . S
C1145 C1146 1.334 . S
C1146 H1117 0.950 . S
C1146 C1145 1.334 . S
C1146 C1147 1.287 . S
C1147 C1146 1.287 . S
C1147 C1148 1.524 . S
C1147 H1150 0.999 . S
C1148 H1118 0.950 . S
C1148 C1147 1.524 . S
C1148 C1149 1.415 . S
C1149 H1119 0.950 . S
C1149 C1144 1.363 . S
C1149 C1148 1.415 . S
H1150 C1147 0.999 . S
H1151 C1132 0.913 . S
H1152 C1170 0.951 . S
H1153 C1172 0.951 . S
H1154 C1174 0.948 . S
H1155 C1175 0.950 1_545 S
H1156 C1177 0.950 . S
H1157 C1180 0.950 . S
H1158 C1181 0.950 . S
H1159 C1183 0.950 1_554 S
H1160 C1184 0.951 . S
H1161 C1185 0.951 . S
H1162 C1187 0.951 . S
H1163 C1189 0.948 . S
H1164 C1190 0.950 1_565 S
H1165 C1192 0.950 . S
H1166 C1195 0.950 . S
H1167 C1196 0.950 . S
H1168 C1198 0.950 1_556 S
H1169 C1199 0.951 . S
C1170 H1152 0.951 . S
C1170 C1171 1.366 . S
C1170 C1172 1.388 . S
C1171 C1170 1.366 . S
C1171 C1175 1.385 . S
C1172 H1153 0.951 . S
C1172 C1170 1.388 . S
C1172 C1173 1.366 . S
C1173 C1172 1.366 . S
C1173 C1174 1.416 1_565 S
C1173 C1176 1.499 . S
C1174 H1154 0.948 . S
C1174 C1173 1.416 1_545 S
C1174 C1175 1.375 1_545 S
C1175 H1155 0.950 1_565 S
C1175 C1171 1.385 . S
C1175 C1174 1.375 1_565 S
C1176 C1173 1.499 . S
C1176 C1177 1.373 1_565 S
C1176 C1178 1.389 . S
C1177 H1156 0.950 . S
C1177 C1176 1.373 1_545 S
C1177 C1193 1.377 1_556 S
C1178 C1176 1.389 . S
C1178 C1179 1.524 . S
C1178 C1192 1.377 1_556 S
C1179 C1178 1.524 . S
C1179 C1180 1.397 . S
C1179 C1184 1.362 1_556 S
C1180 H1157 0.950 . S
C1180 C1179 1.397 . S
C1180 C1181 1.334 . S
C1181 H1158 0.950 . S
C1181 C1180 1.334 . S
C1181 C1182 1.287 . S
C1182 C1181 1.287 . S
C1182 C1183 1.524 . S
C1182 H1201 0.913 . S
C1183 H1159 0.950 1_556 S
C1183 C1182 1.524 . S
C1183 C1184 1.415 1_556 S
C1184 H1160 0.951 . S
C1184 C1179 1.362 1_554 S
C1184 C1183 1.415 1_554 S
C1185 H1161 0.951 . S
C1185 C1186 1.366 . S
C1185 C1187 1.388 . S
C1186 C1185 1.366 . S
C1186 C1190 1.385 . S
C1187 H1162 0.951 . S
C1187 C1185 1.388 . S
C1187 C1188 1.366 . S
C1188 C1187 1.366 . S
C1188 C1189 1.416 1_545 S
C1188 C1191 1.499 . S
C1189 H1163 0.948 . S
C1189 C1188 1.416 1_565 S
C1189 C1190 1.375 1_565 S
C1190 H1164 0.950 1_545 S
C1190 C1186 1.385 . S
C1190 C1189 1.375 1_545 S
C1191 C1188 1.499 . S
C1191 C1192 1.373 1_545 S
C1191 C1193 1.389 . S
C1192 H1165 0.950 . S
C1192 C1178 1.377 1_554 S
C1192 C1191 1.373 1_565 S
C1193 C1177 1.377 1_554 S
C1193 C1191 1.389 . S
C1193 C1194 1.524 . S
C1194 C1193 1.524 . S
C1194 C1195 1.397 . S
C1194 C1199 1.362 1_554 S
C1195 H1166 0.950 . S
C1195 C1194 1.397 . S
C1195 C1196 1.334 . S
C1196 H1167 0.950 . S
C1196 C1195 1.334 . S
C1196 C1197 1.287 . S
C1197 C1196 1.287 . S
C1197 C1198 1.524 . S
C1197 H1200 0.999 . S
C1198 H1168 0.950 1_554 S
C1198 C1197 1.524 . S
C1198 C1199 1.415 1_554 S
C1199 H1169 0.951 . S
C1199 C1194 1.362 1_556 S
C1199 C1198 1.415 1_556 S
H1200 C1197 0.999 . S
H1201 C1182 0.913 . S
H1202 C1220 0.951 . S
H1203 C1222 0.951 . S
H1204 C1224 0.950 . S
H1205 C1225 0.950 . S
H1206 C1227 0.950 . S
H1207 C1230 0.950 . S
H1208 C1231 0.950 . S
H1209 C1233 0.950 . S
H1210 C1234 0.950 . S
H1211 C1235 0.951 . S
H1212 C1237 0.951 . S
H1213 C1239 0.950 . S
H1214 C1240 0.950 . S
H1215 C1242 0.950 . S
H1216 C1245 0.950 . S
H1217 C1246 0.950 . S
H1218 C1248 0.950 . S
H1219 C1249 0.950 . S
C1220 H1202 0.951 . S
C1220 C1221 1.366 . S
C1220 C1222 1.388 . S
C1221 C1220 1.366 . S
C1221 C1225 1.385 . S
C1222 H1203 0.951 . S
C1222 C1220 1.388 . S
C1222 C1223 1.366 . S
C1223 C1222 1.366 . S
C1223 C1224 1.414 . S
C1223 C1226 1.499 . S
C1224 H1204 0.950 . S
C1224 C1223 1.414 . S
C1224 C1225 1.374 . S
C1225 H1205 0.950 . S
C1225 C1221 1.385 . S
C1225 C1224 1.374 . S
C1226 C1223 1.499 . S
C1226 C1227 1.373 . S
C1226 C1228 1.389 . S
C1227 H1206 0.950 . S
C1227 C1226 1.373 . S
C1227 C1243 1.377 . S
C1228 C1226 1.389 . S
C1228 C1229 1.524 . S
C1228 C1242 1.377 . S
C1229 C1228 1.524 . S
C1229 C1230 1.397 . S
C1229 C1234 1.363 . S
C1230 H1207 0.950 . S
C1230 C1229 1.397 . S
C1230 C1231 1.334 . S
C1231 H1208 0.950 . S
C1231 C1230 1.334 . S
C1231 C1232 1.287 . S
C1232 C1231 1.287 . S
C1232 C1233 1.524 . S
C1232 H1251 0.913 . S
C1233 H1209 0.950 . S
C1233 C1232 1.524 . S
C1233 C1234 1.415 . S
C1234 H1210 0.950 . S
C1234 C1229 1.363 . S
C1234 C1233 1.415 . S
C1235 H1211 0.951 . S
C1235 C1236 1.366 . S
C1235 C1237 1.388 . S
C1236 C1235 1.366 . S
C1236 C1240 1.385 . S
C1237 H1212 0.951 . S
C1237 C1235 1.388 . S
C1237 C1238 1.366 . S
C1238 C1237 1.366 . S
C1238 C1239 1.414 . S
C1238 C1241 1.499 . S
C1239 H1213 0.950 . S
C1239 C1238 1.414 . S
C1239 C1240 1.374 . S
C1240 H1214 0.950 . S
C1240 C1236 1.385 . S
C1240 C1239 1.374 . S
C1241 C1238 1.499 . S
C1241 C1242 1.373 . S
C1241 C1243 1.389 . S
C1242 H1215 0.950 . S
C1242 C1228 1.377 . S
C1242 C1241 1.373 . S
C1243 C1227 1.377 . S
C1243 C1241 1.389 . S
C1243 C1244 1.524 . S
C1244 C1243 1.524 . S
C1244 C1245 1.397 . S
C1244 C1249 1.363 . S
C1245 H1216 0.950 . S
C1245 C1244 1.397 . S
C1245 C1246 1.334 . S
C1246 H1217 0.950 . S
C1246 C1245 1.334 . S
C1246 C1247 1.287 . S
C1247 C1246 1.287 . S
C1247 C1248 1.524 . S
C1247 H1250 0.999 . S
C1248 H1218 0.950 . S
C1248 C1247 1.524 . S
C1248 C1249 1.415 . S
C1249 H1219 0.950 . S
C1249 C1244 1.363 . S
C1249 C1248 1.415 . S
H1250 C1247 0.999 . S
H1251 C1232 0.913 . S
H1252 C1270 0.951 . S
H1253 C1272 0.951 1_655 S
H1254 C1274 0.950 . S
H1255 C1275 0.950 . S
H1256 C1277 0.950 . S
H1257 C1280 0.950 . S
H1258 C1281 0.950 . S
H1259 C1283 0.950 . S
H1260 C1284 0.950 . S
H1261 C1285 0.951 . S
H1262 C1287 0.951 1_455 S
H1263 C1289 0.950 . S
H1264 C1290 0.950 . S
H1265 C1292 0.950 . S
H1266 C1295 0.950 . S
H1267 C1296 0.950 . S
H1268 C1298 0.950 . S
H1269 C1299 0.950 . S
C1270 H1252 0.951 . S
C1270 C1271 1.366 . S
C1270 C1272 1.388 . S
C1271 C1270 1.366 . S
C1271 C1275 1.385 . S
C1272 H1253 0.951 1_455 S
C1272 C1270 1.388 . S
C1272 C1273 1.366 . S
C1273 C1272 1.366 . S
C1273 C1274 1.414 . S
C1273 C1276 1.499 . S
C1274 H1254 0.950 . S
C1274 C1273 1.414 . S
C1274 C1275 1.374 . S
C1275 H1255 0.950 . S
C1275 C1271 1.385 . S
C1275 C1274 1.374 . S
C1276 C1273 1.499 . S
C1276 C1277 1.373 . S
C1276 C1278 1.389 . S
C1277 H1256 0.950 . S
C1277 C1276 1.373 . S
C1277 C1293 1.377 1_456 S
C1278 C1276 1.389 . S
C1278 C1279 1.524 . S
C1278 C1292 1.377 1_456 S
C1279 C1278 1.524 . S
C1279 C1280 1.397 . S
C1279 C1284 1.363 1_455 S
C1280 H1257 0.950 . S
C1280 C1279 1.397 . S
C1280 C1281 1.334 . S
C1281 H1258 0.950 . S
C1281 C1280 1.334 . S
C1281 C1282 1.287 . S
C1282 C1281 1.287 . S
C1282 C1283 1.524 1_455 S
C1282 H1301 0.913 . S
C1283 H1259 0.950 . S
C1283 C1282 1.524 1_655 S
C1283 C1284 1.415 . S
C1284 H1260 0.950 . S
C1284 C1279 1.363 1_655 S
C1284 C1283 1.415 . S
C1285 H1261 0.951 . S
C1285 C1286 1.366 . S
C1285 C1287 1.388 . S
C1286 C1285 1.366 . S
C1286 C1290 1.385 . S
C1287 H1262 0.951 1_655 S
C1287 C1285 1.388 . S
C1287 C1288 1.366 . S
C1288 C1287 1.366 . S
C1288 C1289 1.414 . S
C1288 C1291 1.499 . S
C1289 H1263 0.950 . S
C1289 C1288 1.414 . S
C1289 C1290 1.374 . S
C1290 H1264 0.950 . S
C1290 C1286 1.385 . S
C1290 C1289 1.374 . S
C1291 C1288 1.499 . S
C1291 C1292 1.373 . S
C1291 C1293 1.389 . S
C1292 H1265 0.950 . S
C1292 C1278 1.377 1_654 S
C1292 C1291 1.373 . S
C1293 C1277 1.377 1_654 S
C1293 C1291 1.389 . S
C1293 C1294 1.524 . S
C1294 C1293 1.524 . S
C1294 C1295 1.397 . S
C1294 C1299 1.363 1_655 S
C1295 H1266 0.950 . S
C1295 C1294 1.397 . S
C1295 C1296 1.334 . S
C1296 H1267 0.950 . S
C1296 C1295 1.334 . S
C1296 C1297 1.287 . S
C1297 C1296 1.287 . S
C1297 C1298 1.524 1_655 S
C1297 H1300 0.999 . S
C1298 H1268 0.950 . S
C1298 C1297 1.524 1_455 S
C1298 C1299 1.415 . S
C1299 H1269 0.950 . S
C1299 C1294 1.363 1_455 S
C1299 C1298 1.415 . S
H1300 C1297 0.999 . S
H1301 C1282 0.913 . S
H1302 C1320 0.951 1_565 S
H1303 C1322 0.951 1_565 S
H1304 C1324 0.950 . S
H1305 C1325 0.950 . S
H1306 C1327 0.950 . S
H1307 C1330 0.950 . S
H1308 C1331 0.950 . S
H1309 C1333 0.950 . S
H1310 C1334 0.950 . S
H1311 C1335 0.951 1_545 S
H1312 C1337 0.951 1_545 S
H1313 C1339 0.950 . S
H1314 C1340 0.950 . S
H1315 C1342 0.950 . S
H1316 C1345 0.950 . S
H1317 C1346 0.950 . S
H1318 C1348 0.950 . S
H1319 C1349 0.950 . S
C1320 H1302 0.951 1_545 S
C1320 C1321 1.366 . S
C1320 C1322 1.388 . S
C1321 C1320 1.366 . S
C1321 C1325 1.385 . S
C1322 H1303 0.951 1_545 S
C1322 C1320 1.388 . S
C1322 C1323 1.366 . S
C1323 C1322 1.366 . S
C1323 C1324 1.414 . S
C1323 C1326 1.499 . S
C1324 H1304 0.950 . S
C1324 C1323 1.414 . S
C1324 C1325 1.374 . S
C1325 H1305 0.950 . S
C1325 C1321 1.385 . S
C1325 C1324 1.374 . S
C1326 C1323 1.499 . S
C1326 C1327 1.373 . S
C1326 C1328 1.389 1_545 S
C1327 H1306 0.950 . S
C1327 C1326 1.373 . S
C1327 C1343 1.377 . S
C1328 C1326 1.389 1_565 S
C1328 C1329 1.524 . S
C1328 C1342 1.377 . S
C1329 C1328 1.524 . S
C1329 C1330 1.397 . S
C1329 C1334 1.363 . S
C1330 H1307 0.950 . S
C1330 C1329 1.397 . S
C1330 C1331 1.334 . S
C1331 H1308 0.950 . S
C1331 C1330 1.334 . S
C1331 C1332 1.287 . S
C1332 C1331 1.287 . S
C1332 C1333 1.524 . S
C1332 H1351 0.913 . S
C1333 H1309 0.950 . S
C1333 C1332 1.524 . S
C1333 C1334 1.415 . S
C1334 H1310 0.950 . S
C1334 C1329 1.363 . S
C1334 C1333 1.415 . S
C1335 H1311 0.951 1_565 S
C1335 C1336 1.366 . S
C1335 C1337 1.388 . S
C1336 C1335 1.366 . S
C1336 C1340 1.385 . S
C1337 H1312 0.951 1_565 S
C1337 C1335 1.388 . S
C1337 C1338 1.366 . S
C1338 C1337 1.366 . S
C1338 C1339 1.414 . S
C1338 C1341 1.499 . S
C1339 H1313 0.950 . S
C1339 C1338 1.414 . S
C1339 C1340 1.374 . S
C1340 H1314 0.950 . S
C1340 C1336 1.385 . S
C1340 C1339 1.374 . S
C1341 C1338 1.499 . S
C1341 C1342 1.373 . S
C1341 C1343 1.389 1_565 S
C1342 H1315 0.950 . S
C1342 C1328 1.377 . S
C1342 C1341 1.373 . S
C1343 C1327 1.377 . S
C1343 C1341 1.389 1_545 S
C1343 C1344 1.524 . S
C1344 C1343 1.524 . S
C1344 C1345 1.397 . S
C1344 C1349 1.363 . S
C1345 H1316 0.950 . S
C1345 C1344 1.397 . S
C1345 C1346 1.334 . S
C1346 H1317 0.950 . S
C1346 C1345 1.334 . S
C1346 C1347 1.287 . S
C1347 C1346 1.287 . S
C1347 C1348 1.524 . S
C1347 H1350 0.999 . S
C1348 H1318 0.950 . S
C1348 C1347 1.524 . S
C1348 C1349 1.415 . S
C1349 H1319 0.950 . S
C1349 C1344 1.363 . S
C1349 C1348 1.415 . S
H1350 C1347 0.999 . S
H1351 C1332 0.913 . S
H1352 C1370 0.951 . S
H1353 C1372 0.951 . S
H1354 C1374 0.950 . S
H1355 C1375 0.950 . S
H1356 C1377 0.950 . S
H1357 C1380 0.950 . S
H1358 C1381 0.950 . S
H1359 C1383 0.950 . S
H1360 C1384 0.950 . S
H1361 C1385 0.951 . S
H1362 C1387 0.951 . S
H1363 C1389 0.950 . S
H1364 C1390 0.950 . S
H1365 C1392 0.950 . S
H1366 C1395 0.950 . S
H1367 C1396 0.950 . S
H1368 C1398 0.950 . S
H1369 C1399 0.950 . S
C1370 H1352 0.951 . S
C1370 C1371 1.366 . S
C1370 C1372 1.388 . S
C1371 C1370 1.366 . S
C1371 C1375 1.385 . S
C1372 H1353 0.951 . S
C1372 C1370 1.388 . S
C1372 C1373 1.366 . S
C1373 C1372 1.366 . S
C1373 C1374 1.414 . S
C1373 C1376 1.499 . S
C1374 H1354 0.950 . S
C1374 C1373 1.414 . S
C1374 C1375 1.374 . S
C1375 H1355 0.950 . S
C1375 C1371 1.385 . S
C1375 C1374 1.374 . S
C1376 C1373 1.499 . S
C1376 C1377 1.373 . S
C1376 C1378 1.389 . S
C1377 H1356 0.950 . S
C1377 C1376 1.373 . S
C1377 C1393 1.377 1_554 S
C1378 C1376 1.389 . S
C1378 C1379 1.524 . S
C1378 C1392 1.377 1_554 S
C1379 C1378 1.524 . S
C1379 C1380 1.397 . S
C1379 C1384 1.363 . S
C1380 H1357 0.950 . S
C1380 C1379 1.397 . S
C1380 C1381 1.334 . S
C1381 H1358 0.950 . S
C1381 C1380 1.334 . S
C1381 C1382 1.287 . S
C1382 C1381 1.287 . S
C1382 C1383 1.524 . S
C1382 H1401 0.913 . S
C1383 H1359 0.950 . S
C1383 C1382 1.524 . S
C1383 C1384 1.415 . S
C1384 H1360 0.950 . S
C1384 C1379 1.363 . S
C1384 C1383 1.415 . S
C1385 H1361 0.951 . S
C1385 C1386 1.366 . S
C1385 C1387 1.388 . S
C1386 C1385 1.366 . S
C1386 C1390 1.385 . S
C1387 H1362 0.951 . S
C1387 C1385 1.388 . S
C1387 C1388 1.366 . S
C1388 C1387 1.366 . S
C1388 C1389 1.414 . S
C1388 C1391 1.499 . S
C1389 H1363 0.950 . S
C1389 C1388 1.414 . S
C1389 C1390 1.374 . S
C1390 H1364 0.950 . S
C1390 C1386 1.385 . S
C1390 C1389 1.374 . S
C1391 C1388 1.499 . S
C1391 C1392 1.373 . S
C1391 C1393 1.389 . S
C1392 H1365 0.950 . S
C1392 C1378 1.377 1_556 S
C1392 C1391 1.373 . S
C1393 C1377 1.377 1_556 S
C1393 C1391 1.389 . S
C1393 C1394 1.524 . S
C1394 C1393 1.524 . S
C1394 C1395 1.397 . S
C1394 C1399 1.363 . S
C1395 H1366 0.950 . S
C1395 C1394 1.397 . S
C1395 C1396 1.334 . S
C1396 H1367 0.950 . S
C1396 C1395 1.334 . S
C1396 C1397 1.287 . S
C1397 C1396 1.287 . S
C1397 C1398 1.524 . S
C1397 H1400 0.999 . S
C1398 H1368 0.950 . S
C1398 C1397 1.524 . S
C1398 C1399 1.415 . S
C1399 H1369 0.950 . S
C1399 C1394 1.363 . S
C1399 C1398 1.415 . S
H1400 C1397 0.999 . S
H1401 C1382 0.913 . S
H1402 C1420 0.951 . S
H1403 C1422 0.951 . S
H1404 C1424 0.950 . S
H1405 C1425 0.950 . S
H1406 C1427 0.950 . S
H1407 C1430 0.950 . S
H1408 C1431 0.950 . S
H1409 C1433 0.950 . S
H1410 C1434 0.950 . S
H1411 C1435 0.951 . S
H1412 C1437 0.951 . S
H1413 C1439 0.950 . S
H1414 C1440 0.950 . S
H1415 C1442 0.950 . S
H1416 C1445 0.950 . S
H1417 C1446 0.950 . S
H1418 C1448 0.950 . S
H1419 C1449 0.950 . S
C1420 H1402 0.951 . S
C1420 C1421 1.366 . S
C1420 C1422 1.388 . S
C1421 C1420 1.366 . S
C1421 C1425 1.385 . S
C1422 H1403 0.951 . S
C1422 C1420 1.388 . S
C1422 C1423 1.366 . S
C1423 C1422 1.366 . S
C1423 C1424 1.414 . S
C1423 C1426 1.499 . S
C1424 H1404 0.950 . S
C1424 C1423 1.414 . S
C1424 C1425 1.374 . S
C1425 H1405 0.950 . S
C1425 C1421 1.385 . S
C1425 C1424 1.374 . S
C1426 C1423 1.499 . S
C1426 C1427 1.373 1_455 S
C1426 C1428 1.389 . S
C1427 H1406 0.950 . S
C1427 C1426 1.373 1_655 S
C1427 C1443 1.377 . S
C1428 C1426 1.389 . S
C1428 C1429 1.524 . S
C1428 C1442 1.377 . S
C1429 C1428 1.524 . S
C1429 C1430 1.397 . S
C1429 C1434 1.363 . S
C1430 H1407 0.950 . S
C1430 C1429 1.397 . S
C1430 C1431 1.334 . S
C1431 H1408 0.950 . S
C1431 C1430 1.334 . S
C1431 C1432 1.287 . S
C1432 C1431 1.287 . S
C1432 C1433 1.524 . S
C1432 H1451 0.913 . S
C1433 H1409 0.950 . S
C1433 C1432 1.524 . S
C1433 C1434 1.415 . S
C1434 H1410 0.950 . S
C1434 C1429 1.363 . S
C1434 C1433 1.415 . S
C1435 H1411 0.951 . S
C1435 C1436 1.366 . S
C1435 C1437 1.388 . S
C1436 C1435 1.366 . S
C1436 C1440 1.385 . S
C1437 H1412 0.951 . S
C1437 C1435 1.388 . S
C1437 C1438 1.366 . S
C1438 C1437 1.366 . S
C1438 C1439 1.414 . S
C1438 C1441 1.499 . S
C1439 H1413 0.950 . S
C1439 C1438 1.414 . S
C1439 C1440 1.374 . S
C1440 H1414 0.950 . S
C1440 C1436 1.385 . S
C1440 C1439 1.374 . S
C1441 C1438 1.499 . S
C1441 C1442 1.373 1_655 S
C1441 C1443 1.389 . S
C1442 H1415 0.950 . S
C1442 C1428 1.377 . S
C1442 C1441 1.373 1_455 S
C1443 C1427 1.377 . S
C1443 C1441 1.389 . S
C1443 C1444 1.524 . S
C1444 C1443 1.524 . S
C1444 C1445 1.397 . S
C1444 C1449 1.363 . S
C1445 H1416 0.950 . S
C1445 C1444 1.397 . S
C1445 C1446 1.334 . S
C1446 H1417 0.950 . S
C1446 C1445 1.334 . S
C1446 C1447 1.287 . S
C1447 C1446 1.287 . S
C1447 C1448 1.524 . S
C1447 H1450 0.999 . S
C1448 H1418 0.950 . S
C1448 C1447 1.524 . S
C1448 C1449 1.415 . S
C1449 H1419 0.950 . S
C1449 C1444 1.363 . S
C1449 C1448 1.415 . S
H1450 C1447 0.999 . S
H1451 C1432 0.913 . S
H1452 C1470 0.951 . S
H1453 C1472 0.951 . S
H1454 C1474 0.950 . S
H1455 C1475 0.950 . S
H1456 C1477 0.950 . S
H1457 C1480 0.950 . S
H1458 C1481 0.950 . S
H1459 C1483 0.950 1_565 S
H1460 C1484 0.950 . S
H1461 C1485 0.951 . S
H1462 C1487 0.951 . S
H1463 C1489 0.950 . S
H1464 C1490 0.950 . S
H1465 C1492 0.950 . S
H1466 C1495 0.950 . S
H1467 C1496 0.950 . S
H1468 C1498 0.950 . S
H1469 C1499 0.950 . S
C1470 H1452 0.951 . S
C1470 C1471 1.366 . S
C1470 C1472 1.388 . S
C1471 C1470 1.366 . S
C1471 C1475 1.385 . S
C1472 H1453 0.951 . S
C1472 C1470 1.388 . S
C1472 C1473 1.366 . S
C1473 C1472 1.366 . S
C1473 C1474 1.414 . S
C1473 C1476 1.499 . S
C1474 H1454 0.950 . S
C1474 C1473 1.414 . S
C1474 C1475 1.374 . S
C1475 H1455 0.950 . S
C1475 C1471 1.385 . S
C1475 C1474 1.374 . S
C1476 C1473 1.499 . S
C1476 C1477 1.373 . S
C1476 C1478 1.389 . S
C1477 H1456 0.950 . S
C1477 C1476 1.373 . S
C1477 C1493 1.377 . S
C1478 C1476 1.389 . S
C1478 C1479 1.524 . S
C1478 C1492 1.377 . S
C1479 C1478 1.524 . S
C1479 C1480 1.397 . S
C1479 C1484 1.363 . S
C1480 H1457 0.950 . S
C1480 C1479 1.397 . S
C1480 C1481 1.334 . S
C1481 H1458 0.950 . S
C1481 C1480 1.334 . S
C1481 C1482 1.287 . S
C1482 C1481 1.287 . S
C1482 C1483 1.524 . S
C1482 H1501 0.913 . S
C1483 H1459 0.950 1_545 S
C1483 C1482 1.524 . S
C1483 C1484 1.415 . S
C1484 H1460 0.950 . S
C1484 C1479 1.363 . S
C1484 C1483 1.415 . S
C1485 H1461 0.951 . S
C1485 C1486 1.366 . S
C1485 C1487 1.388 . S
C1486 C1485 1.366 . S
C1486 C1490 1.385 . S
C1487 H1462 0.951 . S
C1487 C1485 1.388 . S
C1487 C1488 1.366 . S
C1488 C1487 1.366 . S
C1488 C1489 1.414 . S
C1488 C1491 1.499 . S
C1489 H1463 0.950 . S
C1489 C1488 1.414 . S
C1489 C1490 1.374 . S
C1490 H1464 0.950 . S
C1490 C1486 1.385 . S
C1490 C1489 1.374 . S
C1491 C1488 1.499 . S
C1491 C1492 1.373 . S
C1491 C1493 1.389 . S
C1492 H1465 0.950 . S
C1492 C1478 1.377 . S
C1492 C1491 1.373 . S
C1493 C1477 1.377 . S
C1493 C1491 1.389 . S
C1493 C1494 1.524 . S
C1494 C1493 1.524 . S
C1494 C1495 1.397 . S
C1494 C1499 1.363 . S
C1495 H1466 0.950 . S
C1495 C1494 1.397 . S
C1495 C1496 1.334 . S
C1496 H1467 0.950 . S
C1496 C1495 1.334 . S
C1496 C1497 1.287 . S
C1497 C1496 1.287 . S
C1497 C1498 1.524 . S
C1497 H1500 0.999 . S
C1498 H1468 0.950 . S
C1498 C1497 1.524 . S
C1498 C1499 1.415 . S
C1499 H1469 0.950 . S
C1499 C1494 1.363 . S
C1499 C1498 1.415 . S
H1500 C1497 0.999 . S
H1501 C1482 0.913 . S
H1502 C1520 0.951 . S
H1503 C1522 0.951 . S
H1504 C1524 0.950 . S
H1505 C1525 0.950 . S
H1506 C1527 0.950 . S
H1507 C1530 0.950 . S
H1508 C1531 0.950 . S
H1509 C1533 0.950 . S
H1510 C1534 0.950 . S
H1511 C1535 0.951 . S
H1512 C1537 0.951 . S
H1513 C1539 0.950 . S
H1514 C1540 0.950 . S
H1515 C1542 0.950 . S
H1516 C1545 0.950 . S
H1517 C1546 0.950 . S
H1518 C1548 0.950 . S
H1519 C1549 0.950 . S
C1520 H1502 0.951 . S
C1520 C1521 1.366 . S
C1520 C1522 1.388 . S
C1521 C1520 1.366 . S
C1521 C1525 1.385 . S
C1522 H1503 0.951 . S
C1522 C1520 1.388 . S
C1522 C1523 1.366 . S
C1523 C1522 1.366 . S
C1523 C1524 1.414 . S
C1523 C1526 1.499 . S
C1524 H1504 0.950 . S
C1524 C1523 1.414 . S
C1524 C1525 1.374 . S
C1525 H1505 0.950 . S
C1525 C1521 1.385 . S
C1525 C1524 1.374 . S
C1526 C1523 1.499 . S
C1526 C1527 1.373 . S
C1526 C1528 1.389 . S
C1527 H1506 0.950 . S
C1527 C1526 1.373 . S
C1527 C1543 1.377 . S
C1528 C1526 1.389 . S
C1528 C1529 1.524 . S
C1528 C1542 1.377 . S
C1529 C1528 1.524 . S
C1529 C1530 1.397 . S
C1529 C1534 1.363 . S
C1530 H1507 0.950 . S
C1530 C1529 1.397 . S
C1530 C1531 1.334 . S
C1531 H1508 0.950 . S
C1531 C1530 1.334 . S
C1531 C1532 1.287 . S
C1532 C1531 1.287 . S
C1532 C1533 1.524 . S
C1532 H1551 0.913 . S
C1533 H1509 0.950 . S
C1533 C1532 1.524 . S
C1533 C1534 1.415 . S
C1534 H1510 0.950 . S
C1534 C1529 1.363 . S
C1534 C1533 1.415 . S
C1535 H1511 0.951 . S
C1535 C1536 1.366 . S
C1535 C1537 1.388 . S
C1536 C1535 1.366 . S
C1536 C1540 1.385 . S
C1537 H1512 0.951 . S
C1537 C1535 1.388 . S
C1537 C1538 1.366 . S
C1538 C1537 1.366 . S
C1538 C1539 1.414 . S
C1538 C1541 1.499 . S
C1539 H1513 0.950 . S
C1539 C1538 1.414 . S
C1539 C1540 1.374 . S
C1540 H1514 0.950 . S
C1540 C1536 1.385 . S
C1540 C1539 1.374 . S
C1541 C1538 1.499 . S
C1541 C1542 1.373 . S
C1541 C1543 1.389 . S
C1542 H1515 0.950 . S
C1542 C1528 1.377 . S
C1542 C1541 1.373 . S
C1543 C1527 1.377 . S
C1543 C1541 1.389 . S
C1543 C1544 1.524 . S
C1544 C1543 1.524 . S
C1544 C1545 1.397 . S
C1544 C1549 1.363 . S
C1545 H1516 0.950 . S
C1545 C1544 1.397 . S
C1545 C1546 1.334 . S
C1546 H1517 0.950 . S
C1546 C1545 1.334 . S
C1546 C1547 1.287 . S
C1547 C1546 1.287 . S
C1547 C1548 1.524 . S
C1547 H1550 0.999 . S
C1548 H1518 0.950 . S
C1548 C1547 1.524 . S
C1548 C1549 1.415 . S
C1549 H1519 0.950 . S
C1549 C1544 1.363 . S
C1549 C1548 1.415 . S
H1550 C1547 0.999 . S
H1551 C1532 0.913 . S
H1552 C1570 0.951 . S
H1553 C1572 0.951 . S
H1554 C1574 0.950 . S
H1555 C1575 0.950 . S
H1556 C1577 0.950 . S
H1557 C1580 0.950 . S
H1558 C1581 0.950 . S
H1559 C1583 0.950 . S
H1560 C1584 0.950 . S
H1561 C1585 0.951 . S
H1562 C1587 0.951 . S
H1563 C1589 0.950 . S
H1564 C1590 0.950 . S
H1565 C1592 0.950 . S
H1566 C1595 0.950 . S
H1567 C1596 0.950 . S
H1568 C1598 0.950 . S
H1569 C1599 0.950 . S
C1570 H1552 0.951 . S
C1570 C1571 1.366 . S
C1570 C1572 1.388 . S
C1571 C1570 1.366 . S
C1571 C1575 1.385 . S
C1572 H1553 0.951 . S
C1572 C1570 1.388 . S
C1572 C1573 1.366 . S
C1573 C1572 1.366 . S
C1573 C1574 1.414 . S
C1573 C1576 1.499 . S
C1574 H1554 0.950 . S
C1574 C1573 1.414 . S
C1574 C1575 1.374 . S
C1575 H1555 0.950 . S
C1575 C1571 1.385 . S
C1575 C1574 1.374 . S
C1576 C1573 1.499 . S
C1576 C1577 1.373 . S
C1576 C1578 1.389 . S
C1577 H1556 0.950 . S
C1577 C1576 1.373 . S
C1577 C1593 1.377 . S
C1578 C1576 1.389 . S
C1578 C1579 1.524 . S
C1578 C1592 1.377 . S
C1579 C1578 1.524 . S
C1579 C1580 1.397 . S
C1579 C1584 1.363 . S
C1580 H1557 0.950 . S
C1580 C1579 1.397 . S
C1580 C1581 1.334 1_655 S
C1581 H1558 0.950 . S
C1581 C1580 1.334 1_455 S
C1581 C1582 1.287 . S
C1582 C1581 1.287 . S
C1582 C1583 1.524 . S
C1582 H1601 0.913 . S
C1583 H1559 0.950 . S
C1583 C1582 1.524 . S
C1583 C1584 1.415 1_455 S
C1584 H1560 0.950 . S
C1584 C1579 1.363 . S
C1584 C1583 1.415 1_655 S
C1585 H1561 0.951 . S
C1585 C1586 1.366 . S
C1585 C1587 1.388 . S
C1586 C1585 1.366 . S
C1586 C1590 1.385 . S
C1587 H1562 0.951 . S
C1587 C1585 1.388 . S
C1587 C1588 1.366 . S
C1588 C1587 1.366 . S
C1588 C1589 1.414 . S
C1588 C1591 1.499 . S
C1589 H1563 0.950 . S
C1589 C1588 1.414 . S
C1589 C1590 1.374 . S
C1590 H1564 0.950 . S
C1590 C1586 1.385 . S
C1590 C1589 1.374 . S
C1591 C1588 1.499 . S
C1591 C1592 1.373 . S
C1591 C1593 1.389 . S
C1592 H1565 0.950 . S
C1592 C1578 1.377 . S
C1592 C1591 1.373 . S
C1593 C1577 1.377 . S
C1593 C1591 1.389 . S
C1593 C1594 1.524 . S
C1594 C1593 1.524 . S
C1594 C1595 1.397 . S
C1594 C1599 1.363 . S
C1595 H1566 0.950 . S
C1595 C1594 1.397 . S
C1595 C1596 1.334 . S
C1596 H1567 0.950 . S
C1596 C1595 1.334 . S
C1596 C1597 1.287 . S
C1597 C1596 1.287 . S
C1597 C1598 1.524 . S
C1597 H1600 0.999 . S
C1598 H1568 0.950 . S
C1598 C1597 1.524 . S
C1598 C1599 1.415 . S
C1599 H1569 0.950 . S
C1599 C1594 1.363 . S
C1599 C1598 1.415 . S
H1600 C1597 0.999 . S
H1601 C1582 0.913 . S
H1602 C1620 0.951 . S
H1603 C1622 0.951 . S
H1604 C1624 0.950 . S
H1605 C1625 0.950 . S
H1606 C1627 0.950 . S
H1607 C1630 0.950 . S
H1608 C1631 0.950 . S
H1609 C1633 0.950 . S
H1610 C1634 0.950 . S
H1611 C1635 0.951 . S
H1612 C1637 0.951 . S
H1613 C1639 0.950 . S
H1614 C1640 0.950 . S
H1615 C1642 0.950 . S
H1616 C1645 0.950 . S
H1617 C1646 0.950 . S
H1618 C1648 0.950 1_565 S
H1619 C1649 0.950 . S
C1620 H1602 0.951 . S
C1620 C1621 1.366 . S
C1620 C1622 1.388 . S
C1621 C1620 1.366 . S
C1621 C1625 1.385 . S
C1622 H1603 0.951 . S
C1622 C1620 1.388 . S
C1622 C1623 1.366 . S
C1623 C1622 1.366 . S
C1623 C1624 1.414 . S
C1623 C1626 1.499 . S
C1624 H1604 0.950 . S
C1624 C1623 1.414 . S
C1624 C1625 1.374 . S
C1625 H1605 0.950 . S
C1625 C1621 1.385 . S
C1625 C1624 1.374 . S
C1626 C1623 1.499 . S
C1626 C1627 1.373 . S
C1626 C1628 1.389 . S
C1627 H1606 0.950 . S
C1627 C1626 1.373 . S
C1627 C1643 1.377 . S
C1628 C1626 1.389 . S
C1628 C1629 1.524 . S
C1628 C1642 1.377 . S
C1629 C1628 1.524 . S
C1629 C1630 1.397 . S
C1629 C1634 1.363 . S
C1630 H1607 0.950 . S
C1630 C1629 1.397 . S
C1630 C1631 1.334 . S
C1631 H1608 0.950 . S
C1631 C1630 1.334 . S
C1631 C1632 1.287 . S
C1632 C1631 1.287 . S
C1632 C1633 1.524 . S
C1632 H1651 0.913 . S
C1633 H1609 0.950 . S
C1633 C1632 1.524 . S
C1633 C1634 1.415 . S
C1634 H1610 0.950 . S
C1634 C1629 1.363 . S
C1634 C1633 1.415 . S
C1635 H1611 0.951 . S
C1635 C1636 1.366 . S
C1635 C1637 1.388 . S
C1636 C1635 1.366 . S
C1636 C1640 1.385 . S
C1637 H1612 0.951 . S
C1637 C1635 1.388 . S
C1637 C1638 1.366 . S
C1638 C1637 1.366 . S
C1638 C1639 1.414 . S
C1638 C1641 1.499 . S
C1639 H1613 0.950 . S
C1639 C1638 1.414 . S
C1639 C1640 1.374 . S
C1640 H1614 0.950 . S
C1640 C1636 1.385 . S
C1640 C1639 1.374 . S
C1641 C1638 1.499 . S
C1641 C1642 1.373 . S
C1641 C1643 1.389 . S
C1642 H1615 0.950 . S
C1642 C1628 1.377 . S
C1642 C1641 1.373 . S
C1643 C1627 1.377 . S
C1643 C1641 1.389 . S
C1643 C1644 1.524 . S
C1644 C1643 1.524 . S
C1644 C1645 1.397 . S
C1644 C1649 1.363 . S
C1645 H1616 0.950 . S
C1645 C1644 1.397 . S
C1645 C1646 1.334 . S
C1646 H1617 0.950 . S
C1646 C1645 1.334 . S
C1646 C1647 1.287 . S
C1647 C1646 1.287 . S
C1647 C1648 1.524 . S
C1647 H1650 0.999 1_545 S
C1648 H1618 0.950 1_545 S
C1648 C1647 1.524 . S
C1648 C1649 1.415 . S
C1649 H1619 0.950 . S
C1649 C1644 1.363 . S
C1649 C1648 1.415 . S
H1650 C1647 0.999 1_565 S
H1651 C1632 0.913 . S
H1652 C1670 0.951 . S
H1653 C1672 0.951 . S
H1654 C1674 0.950 . S
H1655 C1675 0.950 . S
H1656 C1677 0.950 . S
H1657 C1680 0.950 . S
H1658 C1681 0.950 . S
H1659 C1683 0.950 . S
H1660 C1684 0.950 . S
H1661 C1685 0.951 . S
H1662 C1687 0.951 . S
H1663 C1689 0.950 . S
H1664 C1690 0.950 . S
H1665 C1692 0.950 . S
H1666 C1695 0.950 . S
H1667 C1696 0.950 . S
H1668 C1698 0.950 . S
H1669 C1699 0.950 . S
C1670 H1652 0.951 . S
C1670 C1671 1.366 . S
C1670 C1672 1.388 . S
C1671 C1670 1.366 . S
C1671 C1675 1.385 . S
C1672 H1653 0.951 . S
C1672 C1670 1.388 . S
C1672 C1673 1.366 . S
C1673 C1672 1.366 . S
C1673 C1674 1.414 . S
C1673 C1676 1.499 . S
C1674 H1654 0.950 . S
C1674 C1673 1.414 . S
C1674 C1675 1.374 . S
C1675 H1655 0.950 . S
C1675 C1671 1.385 . S
C1675 C1674 1.374 . S
C1676 C1673 1.499 . S
C1676 C1677 1.373 . S
C1676 C1678 1.389 . S
C1677 H1656 0.950 . S
C1677 C1676 1.373 . S
C1677 C1693 1.377 . S
C1678 C1676 1.389 . S
C1678 C1679 1.524 . S
C1678 C1692 1.377 . S
C1679 C1678 1.524 . S
C1679 C1680 1.397 . S
C1679 C1684 1.363 . S
C1680 H1657 0.950 . S
C1680 C1679 1.397 . S
C1680 C1681 1.334 . S
C1681 H1658 0.950 . S
C1681 C1680 1.334 . S
C1681 C1682 1.287 . S
C1682 C1681 1.287 . S
C1682 C1683 1.524 . S
C1682 H1701 0.913 . S
C1683 H1659 0.950 . S
C1683 C1682 1.524 . S
C1683 C1684 1.415 . S
C1684 H1660 0.950 . S
C1684 C1679 1.363 . S
C1684 C1683 1.415 . S
C1685 H1661 0.951 . S
C1685 C1686 1.366 . S
C1685 C1687 1.388 . S
C1686 C1685 1.366 . S
C1686 C1690 1.385 . S
C1687 H1662 0.951 . S
C1687 C1685 1.388 . S
C1687 C1688 1.366 . S
C1688 C1687 1.366 . S
C1688 C1689 1.414 . S
C1688 C1691 1.499 . S
C1689 H1663 0.950 . S
C1689 C1688 1.414 . S
C1689 C1690 1.374 . S
C1690 H1664 0.950 . S
C1690 C1686 1.385 . S
C1690 C1689 1.374 . S
C1691 C1688 1.499 . S
C1691 C1692 1.373 . S
C1691 C1693 1.389 . S
C1692 H1665 0.950 . S
C1692 C1678 1.377 . S
C1692 C1691 1.373 . S
C1693 C1677 1.377 . S
C1693 C1691 1.389 . S
C1693 C1694 1.524 . S
C1694 C1693 1.524 . S
C1694 C1695 1.397 . S
C1694 C1699 1.363 . S
C1695 H1666 0.950 . S
C1695 C1694 1.397 . S
C1695 C1696 1.334 . S
C1696 H1667 0.950 . S
C1696 C1695 1.334 . S
C1696 C1697 1.287 . S
C1697 C1696 1.287 . S
C1697 C1698 1.524 . S
C1697 H1700 0.999 . S
C1698 H1668 0.950 . S
C1698 C1697 1.524 . S
C1698 C1699 1.415 . S
C1699 H1669 0.950 . S
C1699 C1694 1.363 . S
C1699 C1698 1.415 . S
H1700 C1697 0.999 . S
H1701 C1682 0.913 . S
H1702 C1720 0.951 . S
H1703 C1722 0.951 . S
H1704 C1724 0.950 . S
H1705 C1725 0.950 . S
H1706 C1727 0.950 . S
H1707 C1730 0.950 . S
H1708 C1731 0.950 . S
H1709 C1733 0.950 . S
H1710 C1734 0.950 . S
H1711 C1735 0.951 . S
H1712 C1737 0.951 . S
H1713 C1739 0.950 . S
H1714 C1740 0.950 . S
H1715 C1742 0.950 . S
H1716 C1745 0.950 . S
H1717 C1746 0.950 . S
H1718 C1748 0.950 . S
H1719 C1749 0.950 . S
C1720 H1702 0.951 . S
C1720 C1721 1.366 . S
C1720 C1722 1.388 . S
C1721 C1720 1.366 . S
C1721 C1725 1.385 . S
C1722 H1703 0.951 . S
C1722 C1720 1.388 . S
C1722 C1723 1.366 . S
C1723 C1722 1.366 . S
C1723 C1724 1.414 . S
C1723 C1726 1.499 . S
C1724 H1704 0.950 . S
C1724 C1723 1.414 . S
C1724 C1725 1.374 . S
C1725 H1705 0.950 . S
C1725 C1721 1.385 . S
C1725 C1724 1.374 . S
C1726 C1723 1.499 . S
C1726 C1727 1.373 . S
C1726 C1728 1.389 . S
C1727 H1706 0.950 . S
C1727 C1726 1.373 . S
C1727 C1743 1.377 . S
C1728 C1726 1.389 . S
C1728 C1729 1.524 . S
C1728 C1742 1.377 . S
C1729 C1728 1.524 . S
C1729 C1730 1.397 . S
C1729 C1734 1.363 . S
C1730 H1707 0.950 . S
C1730 C1729 1.397 . S
C1730 C1731 1.334 . S
C1731 H1708 0.950 . S
C1731 C1730 1.334 . S
C1731 C1732 1.287 . S
C1732 C1731 1.287 . S
C1732 C1733 1.524 . S
C1732 H1751 0.913 . S
C1733 H1709 0.950 . S
C1733 C1732 1.524 . S
C1733 C1734 1.415 . S
C1734 H1710 0.950 . S
C1734 C1729 1.363 . S
C1734 C1733 1.415 . S
C1735 H1711 0.951 . S
C1735 C1736 1.366 . S
C1735 C1737 1.388 . S
C1736 C1735 1.366 . S
C1736 C1740 1.385 . S
C1737 H1712 0.951 . S
C1737 C1735 1.388 . S
C1737 C1738 1.366 . S
C1738 C1737 1.366 . S
C1738 C1739 1.414 . S
C1738 C1741 1.499 . S
C1739 H1713 0.950 . S
C1739 C1738 1.414 . S
C1739 C1740 1.374 . S
C1740 H1714 0.950 . S
C1740 C1736 1.385 . S
C1740 C1739 1.374 . S
C1741 C1738 1.499 . S
C1741 C1742 1.373 . S
C1741 C1743 1.389 . S
C1742 H1715 0.950 . S
C1742 C1728 1.377 . S
C1742 C1741 1.373 . S
C1743 C1727 1.377 . S
C1743 C1741 1.389 . S
C1743 C1744 1.524 . S
C1744 C1743 1.524 . S
C1744 C1745 1.397 . S
C1744 C1749 1.363 . S
C1745 H1716 0.950 . S
C1745 C1744 1.397 . S
C1745 C1746 1.334 . S
C1746 H1717 0.950 . S
C1746 C1745 1.334 . S
C1746 C1747 1.287 . S
C1747 C1746 1.287 . S
C1747 C1748 1.524 . S
C1747 H1750 0.999 . S
C1748 H1718 0.950 . S
C1748 C1747 1.524 . S
C1748 C1749 1.415 . S
C1749 H1719 0.950 . S
C1749 C1744 1.363 . S
C1749 C1748 1.415 . S
H1750 C1747 0.999 . S
H1751 C1732 0.913 . S
H1752 C1770 0.951 . S
H1753 C1772 0.951 . S
H1754 C1774 0.950 . S
H1755 C1775 0.950 . S
H1756 C1777 0.950 . S
H1757 C1780 0.950 . S
H1758 C1781 0.950 . S
H1759 C1783 0.950 1_655 S
H1760 C1784 0.950 . S
H1761 C1785 0.951 . S
H1762 C1787 0.951 . S
H1763 C1789 0.950 . S
H1764 C1790 0.950 . S
H1765 C1792 0.950 . S
H1766 C1795 0.950 . S
H1767 C1796 0.950 . S
H1768 C1798 0.950 . S
H1769 C1799 0.950 . S
C1770 H1752 0.951 . S
C1770 C1771 1.366 . S
C1770 C1772 1.388 . S
C1771 C1770 1.366 . S
C1771 C1775 1.385 . S
C1772 H1753 0.951 . S
C1772 C1770 1.388 . S
C1772 C1773 1.366 . S
C1773 C1772 1.366 . S
C1773 C1774 1.414 . S
C1773 C1776 1.499 . S
C1774 H1754 0.950 . S
C1774 C1773 1.414 . S
C1774 C1775 1.374 . S
C1775 H1755 0.950 . S
C1775 C1771 1.385 . S
C1775 C1774 1.374 . S
C1776 C1773 1.499 . S
C1776 C1777 1.373 . S
C1776 C1778 1.389 . S
C1777 H1756 0.950 . S
C1777 C1776 1.373 . S
C1777 C1793 1.377 . S
C1778 C1776 1.389 . S
C1778 C1779 1.524 . S
C1778 C1792 1.377 . S
C1779 C1778 1.524 . S
C1779 C1780 1.397 . S
C1779 C1784 1.363 . S
C1780 H1757 0.950 . S
C1780 C1779 1.397 . S
C1780 C1781 1.334 . S
C1781 H1758 0.950 . S
C1781 C1780 1.334 . S
C1781 C1782 1.287 . S
C1782 C1781 1.287 . S
C1782 C1783 1.524 . S
C1782 H1801 0.913 1_455 S
C1783 H1759 0.950 1_455 S
C1783 C1782 1.524 . S
C1783 C1784 1.415 . S
C1784 H1760 0.950 . S
C1784 C1779 1.363 . S
C1784 C1783 1.415 . S
C1785 H1761 0.951 . S
C1785 C1786 1.366 . S
C1785 C1787 1.388 . S
C1786 C1785 1.366 . S
C1786 C1790 1.385 . S
C1787 H1762 0.951 . S
C1787 C1785 1.388 . S
C1787 C1788 1.366 . S
C1788 C1787 1.366 . S
C1788 C1789 1.414 . S
C1788 C1791 1.499 . S
C1789 H1763 0.950 . S
C1789 C1788 1.414 . S
C1789 C1790 1.374 . S
C1790 H1764 0.950 . S
C1790 C1786 1.385 . S
C1790 C1789 1.374 . S
C1791 C1788 1.499 . S
C1791 C1792 1.373 . S
C1791 C1793 1.389 . S
C1792 H1765 0.950 . S
C1792 C1778 1.377 . S
C1792 C1791 1.373 . S
C1793 C1777 1.377 . S
C1793 C1791 1.389 . S
C1793 C1794 1.524 . S
C1794 C1793 1.524 . S
C1794 C1795 1.397 . S
C1794 C1799 1.363 . S
C1795 H1766 0.950 . S
C1795 C1794 1.397 . S
C1795 C1796 1.334 . S
C1796 H1767 0.950 . S
C1796 C1795 1.334 . S
C1796 C1797 1.287 . S
C1797 C1796 1.287 . S
C1797 C1798 1.524 . S
C1797 H1800 0.999 . S
C1798 H1768 0.950 . S
C1798 C1797 1.524 . S
C1798 C1799 1.415 . S
C1799 H1769 0.950 . S
C1799 C1794 1.363 . S
C1799 C1798 1.415 . S
H1800 C1797 0.999 . S
H1801 C1782 0.913 1_655 S
H1802 C1820 0.951 . S
H1803 C1822 0.951 . S
H1804 C1824 0.950 . S
H1805 C1825 0.950 . S
H1806 C1827 0.950 . S
H1807 C1830 0.950 . S
H1808 C1831 0.950 . S
H1809 C1833 0.950 . S
H1810 C1834 0.950 . S
H1811 C1835 0.951 . S
H1812 C1837 0.951 . S
H1813 C1839 0.950 . S
H1814 C1840 0.950 . S
H1815 C1842 0.950 . S
H1816 C1845 0.950 . S
H1817 C1846 0.950 . S
H1818 C1848 0.950 . S
H1819 C1849 0.950 . S
C1820 H1802 0.951 . S
C1820 C1821 1.366 . S
C1820 C1822 1.388 . S
C1821 C1820 1.366 . S
C1821 C1825 1.385 . S
C1822 H1803 0.951 . S
C1822 C1820 1.388 . S
C1822 C1823 1.366 . S
C1823 C1822 1.366 . S
C1823 C1824 1.414 . S
C1823 C1826 1.499 . S
C1824 H1804 0.950 . S
C1824 C1823 1.414 . S
C1824 C1825 1.374 . S
C1825 H1805 0.950 . S
C1825 C1821 1.385 . S
C1825 C1824 1.374 . S
C1826 C1823 1.499 . S
C1826 C1827 1.373 . S
C1826 C1828 1.389 . S
C1827 H1806 0.950 . S
C1827 C1826 1.373 . S
C1827 C1843 1.377 . S
C1828 C1826 1.389 . S
C1828 C1829 1.524 . S
C1828 C1842 1.377 . S
C1829 C1828 1.524 . S
C1829 C1830 1.397 . S
C1829 C1834 1.363 . S
C1830 H1807 0.950 . S
C1830 C1829 1.397 . S
C1830 C1831 1.334 . S
C1831 H1808 0.950 . S
C1831 C1830 1.334 . S
C1831 C1832 1.287 . S
C1832 C1831 1.287 . S
C1832 C1833 1.524 . S
C1832 H1851 0.913 . S
C1833 H1809 0.950 . S
C1833 C1832 1.524 . S
C1833 C1834 1.415 . S
C1834 H1810 0.950 . S
C1834 C1829 1.363 . S
C1834 C1833 1.415 . S
C1835 H1811 0.951 . S
C1835 C1836 1.366 . S
C1835 C1837 1.388 . S
C1836 C1835 1.366 . S
C1836 C1840 1.385 . S
C1837 H1812 0.951 . S
C1837 C1835 1.388 . S
C1837 C1838 1.366 . S
C1838 C1837 1.366 . S
C1838 C1839 1.414 . S
C1838 C1841 1.499 . S
C1839 H1813 0.950 . S
C1839 C1838 1.414 . S
C1839 C1840 1.374 . S
C1840 H1814 0.950 . S
C1840 C1836 1.385 . S
C1840 C1839 1.374 . S
C1841 C1838 1.499 . S
C1841 C1842 1.373 . S
C1841 C1843 1.389 . S
C1842 H1815 0.950 . S
C1842 C1828 1.377 . S
C1842 C1841 1.373 . S
C1843 C1827 1.377 . S
C1843 C1841 1.389 . S
C1843 C1844 1.524 . S
C1844 C1843 1.524 . S
C1844 C1845 1.397 . S
C1844 C1849 1.363 . S
C1845 H1816 0.950 . S
C1845 C1844 1.397 . S
C1845 C1846 1.334 . S
C1846 H1817 0.950 . S
C1846 C1845 1.334 . S
C1846 C1847 1.287 . S
C1847 C1846 1.287 . S
C1847 C1848 1.524 . S
C1847 H1850 0.999 . S
C1848 H1818 0.950 . S
C1848 C1847 1.524 . S
C1848 C1849 1.415 . S
C1849 H1819 0.950 . S
C1849 C1844 1.363 . S
C1849 C1848 1.415 . S
H1850 C1847 0.999 . S
H1851 C1832 0.913 . S
H1852 C1870 0.951 . S
H1853 C1872 0.951 . S
H1854 C1874 0.950 . S
H1855 C1875 0.950 . S
H1856 C1877 0.950 . S
H1857 C1880 0.950 . S
H1858 C1881 0.950 . S
H1859 C1883 0.950 . S
H1860 C1884 0.950 . S
H1861 C1885 0.951 . S
H1862 C1887 0.951 . S
H1863 C1889 0.950 . S
H1864 C1890 0.950 . S
H1865 C1892 0.950 . S
H1866 C1895 0.950 . S
H1867 C1896 0.950 . S
H1868 C1898 0.950 . S
H1869 C1899 0.950 . S
C1870 H1852 0.951 . S
C1870 C1871 1.366 . S
C1870 C1872 1.388 . S
C1871 C1870 1.366 . S
C1871 C1875 1.385 . S
C1872 H1853 0.951 . S
C1872 C1870 1.388 . S
C1872 C1873 1.366 . S
C1873 C1872 1.366 . S
C1873 C1874 1.414 . S
C1873 C1876 1.499 . S
C1874 H1854 0.950 . S
C1874 C1873 1.414 . S
C1874 C1875 1.374 . S
C1875 H1855 0.950 . S
C1875 C1871 1.385 . S
C1875 C1874 1.374 . S
C1876 C1873 1.499 . S
C1876 C1877 1.373 . S
C1876 C1878 1.389 . S
C1877 H1856 0.950 . S
C1877 C1876 1.373 . S
C1877 C1893 1.377 . S
C1878 C1876 1.389 . S
C1878 C1879 1.524 . S
C1878 C1892 1.377 . S
C1879 C1878 1.524 . S
C1879 C1880 1.397 . S
C1879 C1884 1.363 . S
C1880 H1857 0.950 . S
C1880 C1879 1.397 . S
C1880 C1881 1.334 . S
C1881 H1858 0.950 . S
C1881 C1880 1.334 . S
C1881 C1882 1.287 . S
C1882 C1881 1.287 . S
C1882 C1883 1.524 . S
C1882 H1901 0.913 . S
C1883 H1859 0.950 . S
C1883 C1882 1.524 . S
C1883 C1884 1.415 . S
C1884 H1860 0.950 . S
C1884 C1879 1.363 . S
C1884 C1883 1.415 . S
C1885 H1861 0.951 . S
C1885 C1886 1.366 . S
C1885 C1887 1.388 . S
C1886 C1885 1.366 . S
C1886 C1890 1.385 . S
C1887 H1862 0.951 . S
C1887 C1885 1.388 . S
C1887 C1888 1.366 . S
C1888 C1887 1.366 . S
C1888 C1889 1.414 . S
C1888 C1891 1.499 . S
C1889 H1863 0.950 . S
C1889 C1888 1.414 . S
C1889 C1890 1.374 . S
C1890 H1864 0.950 . S
C1890 C1886 1.385 . S
C1890 C1889 1.374 . S
C1891 C1888 1.499 . S
C1891 C1892 1.373 . S
C1891 C1893 1.389 . S
C1892 H1865 0.950 . S
C1892 C1878 1.377 . S
C1892 C1891 1.373 . S
C1893 C1877 1.377 . S
C1893 C1891 1.389 . S
C1893 C1894 1.524 . S
C1894 C1893 1.524 . S
C1894 C1895 1.397 . S
C1894 C1899 1.363 . S
C1895 H1866 0.950 . S
C1895 C1894 1.397 . S
C1895 C1896 1.334 . S
C1896 H1867 0.950 . S
C1896 C1895 1.334 . S
C1896 C1897 1.287 . S
C1897 C1896 1.287 . S
C1897 C1898 1.524 . S
C1897 H1900 0.999 . S
C1898 H1868 0.950 . S
C1898 C1897 1.524 . S
C1898 C1899 1.415 . S
C1899 H1869 0.950 . S
C1899 C1894 1.363 . S
C1899 C1898 1.415 . S
H1900 C1897 0.999 . S
H1901 C1882 0.913 . S
H1902 C1920 0.951 . S
H1903 C1922 0.951 . S
H1904 C1924 0.950 . S
H1905 C1925 0.950 . S
H1906 C1927 0.950 . S
H1907 C1930 0.950 . S
H1908 C1931 0.950 . S
H1909 C1933 0.950 . S
H1910 C1934 0.950 . S
H1911 C1935 0.951 . S
H1912 C1937 0.951 . S
H1913 C1939 0.950 . S
H1914 C1940 0.950 . S
H1915 C1942 0.950 . S
H1916 C1945 0.950 . S
H1917 C1946 0.950 . S
H1918 C1948 0.950 . S
H1919 C1949 0.950 . S
C1920 H1902 0.951 . S
C1920 C1921 1.366 . S
C1920 C1922 1.388 . S
C1921 C1920 1.366 . S
C1921 C1925 1.385 . S
C1922 H1903 0.951 . S
C1922 C1920 1.388 . S
C1922 C1923 1.366 . S
C1923 C1922 1.366 . S
C1923 C1924 1.414 . S
C1923 C1926 1.499 . S
C1924 H1904 0.950 . S
C1924 C1923 1.414 . S
C1924 C1925 1.374 . S
C1925 H1905 0.950 . S
C1925 C1921 1.385 . S
C1925 C1924 1.374 . S
C1926 C1923 1.499 . S
C1926 C1927 1.373 . S
C1926 C1928 1.389 . S
C1927 H1906 0.950 . S
C1927 C1926 1.373 . S
C1927 C1943 1.377 . S
C1928 C1926 1.389 . S
C1928 C1929 1.524 . S
C1928 C1942 1.377 . S
C1929 C1928 1.524 . S
C1929 C1930 1.397 . S
C1929 C1934 1.363 . S
C1930 H1907 0.950 . S
C1930 C1929 1.397 . S
C1930 C1931 1.334 . S
C1931 H1908 0.950 . S
C1931 C1930 1.334 . S
C1931 C1932 1.287 . S
C1932 C1931 1.287 . S
C1932 C1933 1.524 . S
C1932 H1951 0.913 . S
C1933 H1909 0.950 . S
C1933 C1932 1.524 . S
C1933 C1934 1.415 . S
C1934 H1910 0.950 . S
C1934 C1929 1.363 . S
C1934 C1933 1.415 . S
C1935 H1911 0.951 . S
C1935 C1936 1.366 . S
C1935 C1937 1.388 . S
C1936 C1935 1.366 . S
C1936 C1940 1.385 . S
C1937 H1912 0.951 . S
C1937 C1935 1.388 . S
C1937 C1938 1.366 . S
C1938 C1937 1.366 . S
C1938 C1939 1.414 . S
C1938 C1941 1.499 . S
C1939 H1913 0.950 . S
C1939 C1938 1.414 . S
C1939 C1940 1.374 . S
C1940 H1914 0.950 . S
C1940 C1936 1.385 . S
C1940 C1939 1.374 . S
C1941 C1938 1.499 . S
C1941 C1942 1.373 . S
C1941 C1943 1.389 . S
C1942 H1915 0.950 . S
C1942 C1928 1.377 . S
C1942 C1941 1.373 . S
C1943 C1927 1.377 . S
C1943 C1941 1.389 . S
C1943 C1944 1.524 . S
C1944 C1943 1.524 . S
C1944 C1945 1.397 . S
C1944 C1949 1.363 . S
C1945 H1916 0.950 . S
C1945 C1944 1.397 . S
C1945 C1946 1.334 . S
C1946 H1917 0.950 . S
C1946 C1945 1.334 . S
C1946 C1947 1.287 . S
C1947 C1946 1.287 . S
C1947 C1948 1.524 . S
C1947 H1950 0.999 . S
C1948 H1918 0.950 . S
C1948 C1947 1.524 . S
C1948 C1949 1.415 . S
C1949 H1919 0.950 . S
C1949 C1944 1.363 . S
C1949 C1948 1.415 . S
H1950 C1947 0.999 . S
H1951 C1932 0.913 . S
H1952 C1970 0.951 . S
H1953 C1972 0.951 . S
H1954 C1974 0.950 . S
H1955 C1975 0.950 . S
H1956 C1977 0.950 . S
H1957 C1980 0.950 . S
H1958 C1981 0.950 . S
H1959 C1983 0.950 . S
H1960 C1984 0.950 . S
H1961 C1985 0.951 . S
H1962 C1987 0.951 . S
H1963 C1989 0.950 . S
H1964 C1990 0.950 . S
H1965 C1992 0.950 . S
H1966 C1995 0.950 . S
H1967 C1996 0.950 . S
H1968 C1998 0.950 . S
H1969 C1999 0.950 . S
C1970 H1952 0.951 . S
C1970 C1971 1.366 . S
C1970 C1972 1.388 . S
C1971 C1970 1.366 . S
C1971 C1975 1.385 . S
C1972 H1953 0.951 . S
C1972 C1970 1.388 . S
C1972 C1973 1.366 . S
C1973 C1972 1.366 . S
C1973 C1974 1.414 . S
C1973 C1976 1.499 . S
C1974 H1954 0.950 . S
C1974 C1973 1.414 . S
C1974 C1975 1.374 . S
C1975 H1955 0.950 . S
C1975 C1971 1.385 . S
C1975 C1974 1.374 . S
C1976 C1973 1.499 . S
C1976 C1977 1.373 . S
C1976 C1978 1.389 . S
C1977 H1956 0.950 . S
C1977 C1976 1.373 . S
C1977 C1993 1.377 . S
C1978 C1976 1.389 . S
C1978 C1979 1.524 . S
C1978 C1992 1.377 . S
C1979 C1978 1.524 . S
C1979 C1980 1.397 . S
C1979 C1984 1.363 . S
C1980 H1957 0.950 . S
C1980 C1979 1.397 . S
C1980 C1981 1.334 . S
C1981 H1958 0.950 . S
C1981 C1980 1.334 . S
C1981 C1982 1.287 . S
C1982 C1981 1.287 . S
C1982 C1983 1.524 . S
C1982 H2001 0.913 . S
C1983 H1959 0.950 . S
C1983 C1982 1.524 . S
C1983 C1984 1.415 . S
C1984 H1960 0.950 . S
C1984 C1979 1.363 . S
C1984 C1983 1.415 . S
C1985 H1961 0.951 . S
C1985 C1986 1.366 . S
C1985 C1987 1.388 . S
C1986 C1985 1.366 . S
C1986 C1990 1.385 . S
C1987 H1962 0.951 . S
C1987 C1985 1.388 . S
C1987 C1988 1.366 . S
C1988 C1987 1.366 . S
C1988 C1989 1.414 . S
C1988 C1991 1.499 . S
C1989 H1963 0.950 . S
C1989 C1988 1.414 . S
C1989 C1990 1.374 . S
C1990 H1964 0.950 . S
C1990 C1986 1.385 . S
C1990 C1989 1.374 . S
C1991 C1988 1.499 . S
C1991 C1992 1.373 . S
C1991 C1993 1.389 . S
C1992 H1965 0.950 . S
C1992 C1978 1.377 . S
C1992 C1991 1.373 . S
C1993 C1977 1.377 . S
C1993 C1991 1.389 . S
C1993 C1994 1.524 . S
C1994 C1993 1.524 . S
C1994 C1995 1.397 . S
C1994 C1999 1.363 . S
C1995 H1966 0.950 . S
C1995 C1994 1.397 . S
C1995 C1996 1.334 . S
C1996 H1967 0.950 . S
C1996 C1995 1.334 . S
C1996 C1997 1.287 . S
C1997 C1996 1.287 . S
C1997 C1998 1.524 . S
C1997 H2000 0.999 . S
C1998 H1968 0.950 . S
C1998 C1997 1.524 . S
C1998 C1999 1.415 . S
C1999 H1969 0.950 . S
C1999 C1994 1.363 . S
C1999 C1998 1.415 . S
H2000 C1997 0.999 . S
H2001 C1982 0.913 . S
H2002 C2020 0.951 . S
H2003 C2022 0.951 . S
H2004 C2024 0.950 . S
H2005 C2025 0.950 . S
H2006 C2027 0.950 . S
H2007 C2030 0.950 . S
H2008 C2031 0.950 . S
H2009 C2033 0.950 . S
H2010 C2034 0.950 . S
H2011 C2035 0.951 . S
H2012 C2037 0.951 . S
H2013 C2039 0.950 . S
H2014 C2040 0.950 . S
H2015 C2042 0.950 . S
H2016 C2045 0.950 . S
H2017 C2046 0.950 . S
H2018 C2048 0.950 . S
H2019 C2049 0.950 . S
C2020 H2002 0.951 . S
C2020 C2021 1.366 . S
C2020 C2022 1.388 . S
C2021 C2020 1.366 . S
C2021 C2025 1.385 . S
C2022 H2003 0.951 . S
C2022 C2020 1.388 . S
C2022 C2023 1.366 . S
C2023 C2022 1.366 . S
C2023 C2024 1.414 . S
C2023 C2026 1.499 . S
C2024 H2004 0.950 . S
C2024 C2023 1.414 . S
C2024 C2025 1.374 . S
C2025 H2005 0.950 . S
C2025 C2021 1.385 . S
C2025 C2024 1.374 . S
C2026 C2023 1.499 . S
C2026 C2027 1.373 . S
C2026 C2028 1.389 . S
C2027 H2006 0.950 . S
C2027 C2026 1.373 . S
C2027 C2043 1.377 . S
C2028 C2026 1.389 . S
C2028 C2029 1.524 . S
C2028 C2042 1.377 . S
C2029 C2028 1.524 . S
C2029 C2030 1.397 . S
C2029 C2034 1.363 . S
C2030 H2007 0.950 . S
C2030 C2029 1.397 . S
C2030 C2031 1.334 . S
C2031 H2008 0.950 . S
C2031 C2030 1.334 . S
C2031 C2032 1.287 . S
C2032 C2031 1.287 . S
C2032 C2033 1.524 . S
C2032 H2051 0.913 . S
C2033 H2009 0.950 . S
C2033 C2032 1.524 . S
C2033 C2034 1.415 . S
C2034 H2010 0.950 . S
C2034 C2029 1.363 . S
C2034 C2033 1.415 . S
C2035 H2011 0.951 . S
C2035 C2036 1.366 . S
C2035 C2037 1.388 . S
C2036 C2035 1.366 . S
C2036 C2040 1.385 . S
C2037 H2012 0.951 . S
C2037 C2035 1.388 . S
C2037 C2038 1.366 . S
C2038 C2037 1.366 . S
C2038 C2039 1.414 . S
C2038 C2041 1.499 . S
C2039 H2013 0.950 . S
C2039 C2038 1.414 . S
C2039 C2040 1.374 . S
C2040 H2014 0.950 . S
C2040 C2036 1.385 . S
C2040 C2039 1.374 . S
C2041 C2038 1.499 . S
C2041 C2042 1.373 . S
C2041 C2043 1.389 . S
C2042 H2015 0.950 . S
C2042 C2028 1.377 . S
C2042 C2041 1.373 . S
C2043 C2027 1.377 . S
C2043 C2041 1.389 . S
C2043 C2044 1.524 . S
C2044 C2043 1.524 . S
C2044 C2045 1.397 . S
C2044 C2049 1.363 . S
C2045 H2016 0.950 . S
C2045 C2044 1.397 . S
C2045 C2046 1.334 . S
C2046 H2017 0.950 . S
C2046 C2045 1.334 . S
C2046 C2047 1.287 . S
C2047 C2046 1.287 . S
C2047 C2048 1.524 . S
C2047 H2050 0.999 . S
C2048 H2018 0.950 . S
C2048 C2047 1.524 . S
C2048 C2049 1.415 . S
C2049 H2019 0.950 . S
C2049 C2044 1.363 . S
C2049 C2048 1.415 . S
H2050 C2047 0.999 . S
H2051 C2032 0.913 . S
C271 C61 0.824 1_455 S
C286 C7 0.866 . S
C321 C83 0.824 1_565 S
C336 C25 0.866 . S
C371 C49 0.864 . S
C386 C104 0.825 . S
C421 C67 0.866 . S
C436 C125 0.824 1_455 S
C471 C19 0.824 1_565 S
C486 C88 0.865 . S
C521 C41 0.826 . S
C536 C109 0.864 . S
C571 C230 0.825 1_545 S
C586 C130 0.864 . S
C621 C151 0.863 . S
C636 C251 0.828 . S
C671 C172 0.864 . S
C686 C146 0.827 1_655 S
C721 C196 0.866 . S
C736 C167 0.824 1_545 S
C771 C214 0.863 . S
C786 C188 0.828 . S
C821 C208 0.828 1_655 S
C836 C235 0.863 . S
C871 C66 1.330 . S
C886 C16 1.332 . S
C921 C24 1.331 . S
C936 C87 1.332 . S
C971 C58 1.332 . S
C986 C108 1.331 . S
C1021 C129 1.332 . S
C1036 C205 1.332 . S
C1071 C150 1.332 . S
C1086 C213 1.331 . S
C1121 C171 1.332 . S
C1136 C234 1.331 . S
C1171 C166 1.364 . S
C1186 C20 1.365 . S
C1221 C40 1.365 . S
C1236 C187 1.364 . S
C1271 C209 1.365 . S
C1286 C62 1.364 . S
C1321 C82 1.363 . S
C1336 C229 1.364 . S
C1371 C103 1.364 . S
C1386 C250 1.364 . S
C1421 C145 1.365 . S
C1436 C124 1.365 . S
C1471 C45 0.920 . S
C1486 C4 0.835 . S
C1521 C28 0.834 . S
C1536 C79 0.920 . S
C1571 C46 0.835 . S
C1586 C100 0.922 . S
C1621 C70 0.836 . S
C1636 C121 0.919 . S
C1671 C3 0.921 . S
C1686 C91 0.834 . S
C1721 C37 0.920 . S
C1736 C112 0.834 . S
C1771 C226 0.919 . S
C1786 C133 0.838 . S
C1821 C154 0.835 . S
C1836 C247 0.920 . S
C1871 C175 0.835 . S
C1886 C142 0.920 . S
C1921 C163 0.919 . S
C1936 C193 0.838 . S
C1971 C217 0.835 . S
C1986 C184 0.920 . S
C2021 C238 0.834 . S
C2036 C192 0.921 . S
