# Generated by pormake.
# Topology sni, (6)-cn, num edge types: 1
# Building blocks:
#     Node 0, Type 0, BuildingBlock: OJICUG_clean_sbu_0, # of connection points: 6
#     Node 1, Type 0, BuildingBlock: OJICUG_clean_sbu_0, # of connection points: 6
#     Node 2, Type 0, BuildingBlock: OJICUG_clean_sbu_0, # of connection points: 6
#     Node 3, Type 0, BuildingBlock: OJICUG_clean_sbu_0, # of connection points: 6
#     Node 4, Type 0, BuildingBlock: OJICUG_clean_sbu_0, # of connection points: 6
#     Node 5, Type 0, BuildingBlock: OJICUG_clean_sbu_0, # of connection points: 6
#     Node 6, Type 0, BuildingBlock: OJICUG_clean_sbu_0, # of connection points: 6
#     Node 7, Type 0, BuildingBlock: OJICUG_clean_sbu_0, # of connection points: 6
#     Edge 8, Type (0, 0), BuildingBlock: MIFKUJ_clean_linker_0, # of connection points: 2
#     Edge 9, Type (0, 0), BuildingBlock: MIFKUJ_clean_linker_0, # of connection points: 2
#     Edge 10, Type (0, 0), BuildingBlock: MIFKUJ_clean_linker_0, # of connection points: 2
#     Edge 11, Type (0, 0), BuildingBlock: MIFKUJ_clean_linker_0, # of connection points: 2
#     Edge 12, Type (0, 0), BuildingBlock: MIFKUJ_clean_linker_0, # of connection points: 2
#     Edge 13, Type (0, 0), BuildingBlock: MIFKUJ_clean_linker_0, # of connection points: 2
#     Edge 14, Type (0, 0), BuildingBlock: MIFKUJ_clean_linker_0, # of connection points: 2
#     Edge 15, Type (0, 0), BuildingBlock: MIFKUJ_clean_linker_0, # of connection points: 2
#     Edge 16, Type (0, 0), BuildingBlock: MIFKUJ_clean_linker_0, # of connection points: 2
#     Edge 17, Type (0, 0), BuildingBlock: MIFKUJ_clean_linker_0, # of connection points: 2
#     Edge 18, Type (0, 0), BuildingBlock: MIFKUJ_clean_linker_0, # of connection points: 2
#     Edge 19, Type (0, 0), BuildingBlock: MIFKUJ_clean_linker_0, # of connection points: 2
#     Edge 20, Type (0, 0), BuildingBlock: MIFKUJ_clean_linker_0, # of connection points: 2
#     Edge 21, Type (0, 0), BuildingBlock: MIFKUJ_clean_linker_0, # of connection points: 2
#     Edge 22, Type (0, 0), BuildingBlock: MIFKUJ_clean_linker_0, # of connection points: 2
#     Edge 23, Type (0, 0), BuildingBlock: MIFKUJ_clean_linker_0, # of connection points: 2
#     Edge 24, Type (0, 0), BuildingBlock: MIFKUJ_clean_linker_0, # of connection points: 2
#     Edge 25, Type (0, 0), BuildingBlock: MIFKUJ_clean_linker_0, # of connection points: 2
#     Edge 26, Type (0, 0), BuildingBlock: MIFKUJ_clean_linker_0, # of connection points: 2
#     Edge 27, Type (0, 0), BuildingBlock: MIFKUJ_clean_linker_0, # of connection points: 2
#     Edge 28, Type (0, 0), BuildingBlock: MIFKUJ_clean_linker_0, # of connection points: 2
#     Edge 29, Type (0, 0), BuildingBlock: MIFKUJ_clean_linker_0, # of connection points: 2
#     Edge 30, Type (0, 0), BuildingBlock: MIFKUJ_clean_linker_0, # of connection points: 2
#     Edge 31, Type (0, 0), BuildingBlock: MIFKUJ_clean_linker_0, # of connection points: 2
# Relax obj value: 0.093
# Max RMSD: 0.105
# Mean RMSD: 0.105
data_MOF--net-sni--node1-OJICUG_clean_sbu_0--edge1-MIFKUJ_clean_linker_0
_symmetry_space_group_name_H-M    P1
_symmetry_Int_Tables_number       1
_symmetry_cell_setting            triclinic
loop_
_symmetry_equiv_pos_as_xyz
'x, y, z'
_cell_length_a     51.410404
_cell_length_b     51.331548
_cell_length_c     28.535471
_cell_angle_alpha  90.009068
_cell_angle_beta   90.087696
_cell_angle_gamma 89.736124
loop_
_atom_site_label
_atom_site_type_symbol
_atom_site_fract_x
_atom_site_fract_y
_atom_site_fract_z
_atom_type_partial_charge
Sc0 Sc 0.6118 0.11864 0.01394 0.0
Sc1 Sc 0.67777 0.13257 -0.00562 0.0
Sc2 Sc 0.63116 0.18326 -0.00461 0.0
O3 O 0.64028 0.14484 0.00132 0.0
C4 C 0.5838 0.15753 0.94236 0.0
C5 C 0.6464 0.08798 0.94055 0.0
C6 C 0.6735 0.17525 0.91464 0.0
C7 C 0.65861 0.09685 0.07735 0.0
C8 C 0.59485 0.16531 0.08009 0.0
C9 C 0.68425 0.18571 0.05142 0.0
O10 O 0.58499 0.13642 0.96552 0.0
O11 O 0.66729 0.09938 0.9524 0.0
O12 O 0.65587 0.18824 0.93547 0.0
O13 O 0.63505 0.09757 0.06385 0.0
O14 O 0.60513 0.1828 0.05468 0.0
O15 O 0.6929 0.16428 0.03531 0.0
O16 O 0.59669 0.14113 0.07108 0.0
O17 O 0.67653 0.10966 0.05737 0.0
O18 O 0.6617 0.19448 0.04207 0.0
O19 O 0.62434 0.09374 0.95776 0.0
O20 O 0.59994 0.17592 0.94754 0.0
O21 O 0.68276 0.15405 0.9306 0.0
Sc22 Sc 0.87523 0.60855 0.97444 0.0
Sc23 Sc 0.85967 0.67475 0.98901 0.0
Sc24 Sc 0.81064 0.62708 -0.00115 0.0
O25 O 0.84848 0.63681 0.98746 0.0
C26 C 0.82562 0.58765 0.91792 0.0
C27 C 0.89154 0.65225 0.90186 0.0
C28 C 0.805 0.67856 0.93719 0.0
C29 C 0.90785 0.64764 0.03849 0.0
C30 C 0.84157 0.58282 0.05489 0.0
C31 C 0.8194 0.67208 0.07381 0.0
O32 O 0.84968 0.58781 0.92807 0.0
O33 O 0.88285 0.67116 0.92614 0.0
O34 O 0.79608 0.65754 0.95415 0.0
O35 O 0.90464 0.62576 0.01854 0.0
O36 O 0.82099 0.5955 0.04489 0.0
O37 O 0.83803 0.68269 0.05184 0.0
O38 O 0.86303 0.58602 0.03367 0.0
O39 O 0.89257 0.66684 0.0327 0.0
O40 O 0.80791 0.65176 0.05928 0.0
O41 O 0.88948 0.62858 0.91416 0.0
O42 O 0.80892 0.60137 0.93954 0.0
O43 O 0.82773 0.68683 0.94592 0.0
Sc44 Sc 0.31131 0.85847 0.98485 0.0
Sc45 Sc 0.36 0.80947 0.98391 0.0
Sc46 Sc 0.3773 0.87557 0.9789 0.0
O47 O 0.3495 0.84779 0.98242 0.0
C48 C 0.33419 0.89789 0.90927 0.0
C49 C 0.30949 0.8084 0.91901 0.0
C50 C 0.40027 0.83201 0.91046 0.0
C51 C 0.31402 0.81182 0.05841 0.0
C52 C 0.33701 0.90144 0.05 0.0
C53 C 0.40289 0.83526 0.04994 0.0
O54 O 0.31524 0.88613 0.92839 0.0
O55 O 0.33074 0.7987 0.9338 0.0
O56 O 0.39887 0.85505 0.92644 0.0
O57 O 0.30342 0.83216 0.04148 0.0
O58 O 0.35935 0.8993 0.03154 0.0
O59 O 0.39043 0.81568 0.03467 0.0
O60 O 0.31768 0.88798 0.03691 0.0
O61 O 0.33439 0.80147 0.04131 0.0
O62 O 0.39977 0.8581 0.03377 0.0
O63 O 0.30032 0.82989 0.93384 0.0
O64 O 0.35752 0.89568 0.92349 0.0
O65 O 0.38689 0.81333 0.92666 0.0
Sc66 Sc 0.10763 0.37959 0.98238 0.0
Sc67 Sc 0.12696 0.31463 0.00071 0.0
Sc68 Sc 0.17418 0.36311 0.97962 0.0
O69 O 0.13629 0.35243 0.98752 0.0
C70 C 0.14563 0.39586 0.89939 0.0
C71 C 0.08205 0.33091 0.93029 0.0
C72 C 0.17311 0.30818 0.92724 0.0
C73 C 0.0878 0.34529 0.06789 0.0
C74 C 0.15149 0.41156 0.03623 0.0
C75 C 0.17722 0.32312 0.06469 0.0
O76 O 0.12353 0.39527 0.91918 0.0
O77 O 0.09632 0.31373 0.94953 0.0
O78 O 0.18295 0.33035 0.93562 0.0
O79 O 0.08883 0.36656 0.04524 0.0
O80 O 0.17016 0.39709 0.02295 0.0
O81 O 0.1564 0.31143 0.05348 0.0
O82 O 0.12803 0.40754 0.02444 0.0
O83 O 0.10013 0.32491 0.05552 0.0
O84 O 0.18632 0.34213 0.04142 0.0
O85 O 0.08391 0.35506 0.93922 0.0
O86 O 0.1659 0.38535 0.91696 0.0
O87 O 0.15276 0.29994 0.94752 0.0
Sc88 Sc 0.63272 0.81296 0.48561 0.0
Sc89 Sc 0.68007 0.86224 0.49936 0.0
Sc90 Sc 0.61402 0.87888 0.48612 0.0
O91 O 0.64231 0.85134 0.49023 0.0
C92 C 0.59492 0.83781 0.40954 0.0
C93 C 0.68568 0.81494 0.42775 0.0
C94 C 0.65955 0.90441 0.4262 0.0
C95 C 0.67554 0.81287 0.56637 0.0
C96 C 0.58661 0.83546 0.54807 0.0
C97 C 0.65056 0.90251 0.56569 0.0
O98 O 0.60784 0.81864 0.42568 0.0
O99 O 0.69402 0.83577 0.44645 0.0
O100 O 0.63571 0.90147 0.4366 0.0
O101 O 0.65614 0.80297 0.5454 0.0
O102 O 0.58965 0.85897 0.53539 0.0
O103 O 0.67074 0.88976 0.55389 0.0
O104 O 0.60031 0.81678 0.53237 0.0
O105 O 0.68627 0.83388 0.55331 0.0
O106 O 0.6291 0.90069 0.54397 0.0
O107 O 0.66405 0.80472 0.43847 0.0
O108 O 0.59531 0.8603 0.42802 0.0
O109 O 0.67783 0.89193 0.44628 0.0
Sc110 Sc 0.17266 0.63101 0.48352 0.0
Sc111 Sc 0.12645 0.68227 0.48457 0.0
Sc112 Sc 0.10661 0.61771 0.46369 0.0
O113 O 0.13524 0.64369 0.47747 0.0
C114 C 0.15251 0.59732 0.39783 0.0
C115 C 0.18047 0.68495 0.43048 0.0
C116 C 0.09223 0.66548 0.39716 0.0
C117 C 0.1678 0.67252 0.56618 0.0
C118 C 0.14149 0.58554 0.53519 0.0
C119 C 0.07772 0.65619 0.53438 0.0
O120 O 0.17085 0.60841 0.41996 0.0
O121 O 0.15876 0.69459 0.44276 0.0
O122 O 0.09171 0.64156 0.40831 0.0
O123 O 0.17824 0.65263 0.54723 0.0
O124 O 0.11949 0.59095 0.51714 0.0
O125 O 0.09298 0.67515 0.52756 0.0
O126 O 0.16207 0.59796 0.5253 0.0
O127 O 0.14907 0.68514 0.54767 0.0
O128 O 0.08034 0.63437 0.51394 0.0
O129 O 0.18792 0.66232 0.44248 0.0
O130 O 0.12897 0.59829 0.41097 0.0
O131 O 0.10328 0.68297 0.42149 0.0
Sc132 Sc 0.35979 0.18106 0.49732 0.0
Sc133 Sc 0.31257 0.1318 0.48364 0.0
Sc134 Sc 0.37926 0.1157 0.48434 0.0
O135 O 0.35052 0.14286 0.48835 0.0
C136 C 0.40372 0.16222 0.42573 0.0
C137 C 0.31358 0.18389 0.42264 0.0
C138 C 0.33901 0.09355 0.40965 0.0
C139 C 0.30967 0.17591 0.56216 0.0
C140 C 0.40108 0.15344 0.56372 0.0
C141 C 0.33694 0.0871 0.54772 0.0
O142 O 0.39025 0.17991 0.44547 0.0
O143 O 0.30377 0.16198 0.4335 0.0
O144 O 0.36174 0.09596 0.42638 0.0
O145 O 0.33073 0.18691 0.55034 0.0
O146 O 0.40062 0.13198 0.54168 0.0
O147 O 0.31776 0.10067 0.53336 0.0
O148 O 0.38691 0.17288 0.553 0.0
O149 O 0.30071 0.15614 0.541 0.0
O150 O 0.36007 0.09041 0.53322 0.0
O151 O 0.33358 0.19318 0.44274 0.0
O152 O 0.40137 0.13818 0.43535 0.0
O153 O 0.31934 0.10539 0.4263 0.0
Sc154 Sc 0.81062 0.35953 0.4928 0.0
Sc155 Sc 0.86046 0.31187 0.4955 0.0
Sc156 Sc 0.87481 0.37749 0.51959 0.0
O157 O 0.8486 0.3496 0.50276 0.0
C158 C 0.83991 0.40638 0.44305 0.0
C159 C 0.82068 0.31809 0.41117 0.0
C160 C 0.90782 0.34242 0.44937 0.0
C161 C 0.80557 0.30558 0.54634 0.0
C162 C 0.82554 0.39586 0.57902 0.0
C163 C 0.89242 0.33001 0.58498 0.0
O164 O 0.82019 0.39191 0.44869 0.0
O165 O 0.84051 0.30755 0.42994 0.0
O166 O 0.90274 0.36392 0.4694 0.0
O167 O 0.79712 0.32808 0.53551 0.0
O168 O 0.84982 0.39466 0.5712 0.0
O169 O 0.88179 0.31239 0.56034 0.0
O170 O 0.80888 0.38427 0.55368 0.0
O171 O 0.8277 0.29705 0.53364 0.0
O172 O 0.89166 0.35404 0.57413 0.0
O173 O 0.80779 0.3363 0.43055 0.0
O174 O 0.8608 0.40364 0.46641 0.0
O175 O 0.89462 0.32193 0.45612 0.0
H176 H 0.44295 0.13198 0.39145 0.0
H177 H 0.47743 0.1446 0.33798 0.0
H178 H 0.44528 0.22218 0.32887 0.0
H179 H 0.4104 0.20975 0.38305 0.0
H180 H 0.45903 0.19897 0.24078 0.0
H181 H 0.49781 0.21774 0.38736 0.0
H182 H 0.50962 0.21032 0.47005 0.0
H183 H 0.55425 0.14287 0.43092 0.0
H184 H 0.54238 0.14961 0.34805 0.0
H185 H 0.57292 0.21311 0.09784 0.0
H186 H 0.54311 0.22436 0.16184 0.0
H187 H 0.55156 0.14677 0.21808 0.0
H188 H 0.58117 0.13539 0.1547 0.0
H189 H 0.55115 0.18495 0.2871 0.0
H190 H 0.50232 0.16035 0.1465 0.0
H191 H 0.48943 0.1658 0.06376 0.0
H192 H 0.4633 0.24375 0.0926 0.0
H193 H 0.47639 0.23884 0.17545 0.0
C194 C 0.44304 0.15173 0.37811 0.0
C195 C 0.42392 0.16988 0.39165 0.0
C196 C 0.4629 0.15895 0.34777 0.0
C197 C 0.46405 0.1844 0.33017 0.0
C198 C 0.44475 0.2025 0.34253 0.0
C199 C 0.42491 0.19535 0.37343 0.0
C200 C 0.48536 0.19136 0.29798 0.0
C201 C 0.47924 0.19674 0.25109 0.0
C202 C 0.51165 0.18824 0.31161 0.0
C203 C 0.51911 0.18416 0.36142 0.0
C204 C 0.51001 0.20123 0.39639 0.0
C205 C 0.51673 0.19715 0.44331 0.0
C206 C 0.53266 0.17613 0.45574 0.0
C207 C 0.54194 0.15916 0.42124 0.0
C208 C 0.53525 0.16313 0.37425 0.0
C209 C 0.56872 0.19859 0.12429 0.0
C210 C 0.57915 0.17326 0.12098 0.0
C211 C 0.55169 0.20505 0.1607 0.0
C212 C 0.54507 0.18632 0.19438 0.0
C213 C 0.55649 0.1615 0.19242 0.0
C214 C 0.57326 0.15497 0.15597 0.0
C215 C 0.5247 0.1914 0.22968 0.0
C216 C 0.53102 0.18823 0.27714 0.0
C217 C 0.49861 0.19649 0.21657 0.0
C218 C 0.49065 0.19937 0.16692 0.0
C219 C 0.49403 0.17872 0.13507 0.0
C220 C 0.48666 0.1817 0.0882 0.0
C221 C 0.47564 0.20514 0.07289 0.0
C222 C 0.4719 0.22563 0.10448 0.0
C223 C 0.4793 0.22277 0.15138 0.0
H224 H 0.46994 0.20741 0.03659 0.0
H225 H 0.53783 0.173 0.49209 0.0
H226 H 0.88244 0.56212 0.10352 0.0
H227 H 0.88072 0.53194 0.16936 0.0
H228 H 0.79697 0.52995 0.15907 0.0
H229 H 0.79846 0.56082 0.094 0.0
H230 H 0.8108 0.53499 0.24652 0.0
H231 H 0.83543 0.47852 0.12134 0.0
H232 H 0.86099 0.46329 0.05354 0.0
H233 H 0.92958 0.45916 0.1393 0.0
H234 H 0.90451 0.47472 0.20751 0.0
H235 H 0.79755 0.42244 0.3924 0.0
H236 H 0.79684 0.45317 0.3271 0.0
H237 H 0.87913 0.46619 0.3442 0.0
H238 H 0.88018 0.43545 0.40941 0.0
H239 H 0.86448 0.45449 0.25258 0.0
H240 H 0.83779 0.512 0.37803 0.0
H241 H 0.81028 0.52548 0.44457 0.0
H242 H 0.74287 0.52504 0.35564 0.0
H243 H 0.76992 0.51128 0.28863 0.0
C244 C 0.86366 0.55514 0.11504 0.0
C245 C 0.84058 0.56381 0.09355 0.0
C246 C 0.86271 0.53781 0.15257 0.0
C247 C 0.83873 0.52844 0.16866 0.0
C248 C 0.81567 0.53696 0.14714 0.0
C249 C 0.81657 0.55456 0.10997 0.0
C250 C 0.83773 0.51038 0.20892 0.0
C251 C 0.82223 0.51718 0.24753 0.0
C252 C 0.85295 0.48735 0.21045 0.0
C253 C 0.86812 0.47803 0.16945 0.0
C254 C 0.85601 0.47457 0.12567 0.0
C255 C 0.8704 0.46584 0.08717 0.0
C256 C 0.8969 0.46032 0.09208 0.0
C257 C 0.90906 0.46347 0.13553 0.0
C258 C 0.89476 0.47222 0.17414 0.0
C259 C 0.81548 0.43198 0.38257 0.0
C260 C 0.83895 0.42644 0.40605 0.0
C261 C 0.81499 0.44958 0.34537 0.0
C262 C 0.83792 0.4619 0.33111 0.0
C263 C 0.86126 0.45679 0.35485 0.0
C264 C 0.86177 0.43931 0.3922 0.0
C265 C 0.83781 0.47931 0.29008 0.0
C266 C 0.85304 0.4723 0.25135 0.0
C267 C 0.82208 0.50192 0.28819 0.0
C268 C 0.80584 0.51036 0.32842 0.0
C269 C 0.81707 0.51458 0.37274 0.0
C270 C 0.80157 0.5223 0.41053 0.0
C271 C 0.77484 0.52601 0.40439 0.0
C272 C 0.76357 0.52211 0.36038 0.0
C273 C 0.77898 0.51439 0.32246 0.0
H274 H 0.76289 0.53198 0.43372 0.0
H275 H 0.90801 0.45355 0.06224 0.0
H276 H 0.57041 0.87486 0.35705 0.0
H277 H 0.53711 0.86828 0.2976 0.0
H278 H 0.54529 0.785 0.3121 0.0
H279 H 0.57905 0.79134 0.37167 0.0
H280 H 0.53969 0.8002 0.22027 0.0
H281 H 0.49624 0.81467 0.36519 0.0
H282 H 0.48591 0.83672 0.43965 0.0
H283 H 0.4623 0.90533 0.36446 0.0
H284 H 0.47297 0.88391 0.28957 0.0
H285 H 0.42063 0.78923 0.08758 0.0
H286 H 0.45255 0.78376 0.1507 0.0
H287 H 0.45982 0.86723 0.16177 0.0
H288 H 0.42802 0.87296 0.09943 0.0
H289 H 0.45464 0.84387 0.24682 0.0
H290 H 0.50474 0.83172 0.10404 0.0
H291 H 0.51526 0.81015 0.02914 0.0
H292 H 0.52563 0.73725 0.10072 0.0
H293 H 0.51482 0.75835 0.176 0.0
C294 C 0.56534 0.8551 0.34746 0.0
C295 C 0.57715 0.83361 0.36956 0.0
C296 C 0.54622 0.8514 0.31358 0.0
C297 C 0.53835 0.82618 0.30142 0.0
C298 C 0.55099 0.80462 0.32146 0.0
C299 C 0.57027 0.8083 0.35539 0.0
C300 C 0.51647 0.82268 0.2685 0.0
C301 C 0.52091 0.80928 0.22641 0.0
C302 C 0.49205 0.83469 0.27661 0.0
C303 C 0.48564 0.84771 0.32171 0.0
C304 C 0.48908 0.83454 0.36452 0.0
C305 C 0.48313 0.84693 0.40683 0.0
C306 C 0.47352 0.87243 0.4068 0.0
C307 C 0.46979 0.88559 0.36445 0.0
C308 C 0.47578 0.87333 0.32205 0.0
C309 C 0.42899 0.80642 0.10355 0.0
C310 C 0.42186 0.83154 0.08831 0.0
C311 C 0.44725 0.80323 0.13944 0.0
C312 C 0.45858 0.8251 0.16055 0.0
C313 C 0.45125 0.85012 0.14586 0.0
C314 C 0.43314 0.85333 0.11003 0.0
C315 C 0.47824 0.82233 0.19794 0.0
C316 C 0.47329 0.83442 0.24105 0.0
C317 C 0.50213 0.80917 0.19072 0.0
C318 C 0.50865 0.79653 0.14551 0.0
C319 C 0.50903 0.81104 0.10373 0.0
C320 C 0.5151 0.79892 0.06123 0.0
C321 C 0.52102 0.77233 0.06015 0.0
C322 C 0.52098 0.75783 0.1016 0.0
C323 C 0.51489 0.76986 0.14418 0.0
H324 H 0.52572 0.76298 0.02721 0.0
H325 H 0.4689 0.88197 0.4396 0.0
H326 H 0.11827 0.45036 0.06345 0.0
H327 H 0.12711 0.48607 0.11727 0.0
H328 H 0.2063 0.45934 0.13313 0.0
H329 H 0.19765 0.42327 0.07939 0.0
H330 H 0.1823 0.46817 0.21695 0.0
H331 H 0.19499 0.51434 0.07442 0.0
H332 H 0.18449 0.52871 -0.00584 0.0
H333 H 0.11501 0.56616 0.04405 0.0
H334 H 0.12483 0.55163 0.12454 0.0
H335 H 0.19926 0.57647 0.37027 0.0
H336 H 0.20739 0.54924 0.30108 0.0
H337 H 0.12725 0.55848 0.25884 0.0
H338 H 0.11897 0.58553 0.32739 0.0
H339 H 0.16159 0.5609 0.18379 0.0
H340 H 0.14346 0.50697 0.31926 0.0
H341 H 0.15085 0.49081 0.39962 0.0
H342 H 0.22825 0.46694 0.36221 0.0
H343 H 0.22141 0.48332 0.28174 0.0
C344 C 0.13764 0.4521 0.07806 0.0
C345 C 0.15723 0.43388 0.06721 0.0
C346 C 0.14271 0.47267 0.10854 0.0
C347 C 0.16744 0.47548 0.12864 0.0
C348 C 0.18714 0.45754 0.11766 0.0
C349 C 0.18213 0.43697 0.08696 0.0
C350 C 0.17193 0.49613 0.16371 0.0
C351 C 0.17851 0.48856 0.20944 0.0
C352 C 0.16644 0.52261 0.15389 0.0
C353 C 0.16061 0.53176 0.10558 0.0
C354 C 0.17738 0.5255 0.06828 0.0
C355 C 0.17155 0.53368 0.02271 0.0
C356 C 0.14908 0.5483 0.01399 0.0
C357 C 0.13242 0.55483 0.05085 0.0
C358 C 0.13813 0.54665 0.09648 0.0
C359 C 0.18349 0.57293 0.34589 0.0
C360 C 0.15839 0.58273 0.3546 0.0
C361 C 0.18817 0.55743 0.30648 0.0
C362 C 0.16785 0.55179 0.27521 0.0
C363 C 0.14316 0.56267 0.2826 0.0
C364 C 0.13842 0.57789 0.32205 0.0
C365 C 0.1714 0.53276 0.23699 0.0
C366 C 0.1662 0.54062 0.19083 0.0
C367 C 0.17791 0.50648 0.24639 0.0
C368 C 0.18208 0.49672 0.29474 0.0
C369 C 0.16215 0.49852 0.32832 0.0
C370 C 0.16621 0.48928 0.37384 0.0
C371 C 0.19004 0.47796 0.38606 0.0
C372 C 0.20983 0.47579 0.35273 0.0
C373 C 0.20588 0.48505 0.30717 0.0
H374 H 0.19314 0.47079 0.42131 0.0
H375 H 0.1446 0.5546 0.97868 0.0
H376 H 0.56448 0.8694 0.60968 0.0
H377 H 0.53326 0.85953 0.67142 0.0
H378 H 0.53258 0.77886 0.62927 0.0
H379 H 0.5642 0.78843 0.56739 0.0
H380 H 0.48114 0.80484 0.64633 0.0
H381 H 0.56308 0.78695 0.71947 0.0
H382 H 0.60882 0.7957 0.73996 0.0
H383 H 0.58578 0.86559 0.81178 0.0
H384 H 0.53993 0.85747 0.79109 0.0
H385 H 0.40694 0.78695 0.85966 0.0
H386 H 0.43912 0.77887 0.7979 0.0
H387 H 0.46793 0.85716 0.81403 0.0
H388 H 0.43622 0.86544 0.87526 0.0
H389 H 0.50713 0.82047 0.81153 0.0
H390 H 0.4285 0.84374 0.72661 0.0
H391 H 0.38254 0.83839 0.70403 0.0
H392 H 0.39906 0.76135 0.65312 0.0
H393 H 0.44512 0.76612 0.67617 0.0
C394 C 0.5576 0.84958 0.61325 0.0
C395 C 0.56683 0.82967 0.58382 0.0
C396 C 0.53988 0.84398 0.6486 0.0
C397 C 0.53092 0.81847 0.65482 0.0
C398 C 0.53945 0.79863 0.62484 0.0
C399 C 0.55752 0.80414 0.58977 0.0
C400 C 0.51288 0.81292 0.69342 0.0
C401 C 0.48685 0.80751 0.68263 0.0
C402 C 0.52051 0.81682 0.74045 0.0
C403 C 0.54806 0.82165 0.75349 0.0
C404 C 0.56778 0.80428 0.73935 0.0
C405 C 0.59373 0.80911 0.75105 0.0
C406 C 0.60021 0.8312 0.77711 0.0
C407 C 0.58073 0.84848 0.79161 0.0
C408 C 0.55475 0.84375 0.77996 0.0
C409 C 0.42014 0.80242 0.85 0.0
C410 C 0.419 0.82684 0.87238 0.0
C411 C 0.43845 0.79776 0.81479 0.0
C412 C 0.45586 0.81742 0.80173 0.0
C413 C 0.45475 0.8417 0.82398 0.0
C414 C 0.43647 0.84643 0.85879 0.0
C415 C 0.47518 0.81329 0.76437 0.0
C416 C 0.5015 0.81691 0.77544 0.0
C417 C 0.46776 0.80802 0.71761 0.0
C418 C 0.44014 0.80514 0.7037 0.0
C419 C 0.42228 0.82557 0.71101 0.0
C420 C 0.39622 0.82267 0.69803 0.0
C421 C 0.38786 0.79951 0.67726 0.0
C422 C 0.40556 0.77924 0.66932 0.0
C423 C 0.43163 0.78203 0.68234 0.0
H424 H 0.36768 0.79731 0.6672 0.0
H425 H 0.62031 0.83492 0.78612 0.0
H426 H 0.18989 0.41232 0.85482 0.0
H427 H 0.19242 0.44047 0.78569 0.0
H428 H 0.10874 0.44046 0.77461 0.0
H429 H 0.10597 0.41227 0.84302 0.0
H430 H 0.13238 0.43766 0.68834 0.0
H431 H 0.13803 0.48913 0.83065 0.0
H432 H 0.15696 0.5014 0.907 0.0
H433 H 0.23054 0.51572 0.84104 0.0
H434 H 0.21209 0.50326 0.76437 0.0
H435 H 0.10208 0.55572 0.57111 0.0
H436 H 0.10595 0.51974 0.62678 0.0
H437 H 0.18922 0.52957 0.6303 0.0
H438 H 0.18562 0.56572 0.57534 0.0
H439 H 0.16985 0.52521 0.71647 0.0
H440 H 0.16255 0.47884 0.57203 0.0
H441 H 0.14329 0.46712 0.49575 0.0
H442 H 0.07308 0.4432 0.56442 0.0
H443 H 0.09177 0.45517 0.64109 0.0
C444 C 0.17206 0.41799 0.83724 0.0
C445 C 0.14772 0.41038 0.85484 0.0
C446 C 0.17354 0.4341 0.79785 0.0
C447 C 0.15073 0.44276 0.77553 0.0
C448 C 0.12654 0.43401 0.79143 0.0
C449 C 0.12502 0.41805 0.83079 0.0
C450 C 0.15172 0.46255 0.73802 0.0
C451 C 0.14047 0.45685 0.6944 0.0
C452 C 0.16272 0.48737 0.74588 0.0
C453 C 0.17377 0.49498 0.79191 0.0
C454 C 0.15829 0.49471 0.83251 0.0
C455 C 0.16892 0.50173 0.87582 0.0
C456 C 0.19496 0.50925 0.87888 0.0
C457 C 0.21039 0.50984 0.83862 0.0
C458 C 0.19986 0.50282 0.79524 0.0
C459 C 0.12123 0.5502 0.58358 0.0
C460 C 0.14353 0.56364 0.56872 0.0
C461 C 0.12342 0.52953 0.61519 0.0
C462 C 0.14792 0.52182 0.63216 0.0
C463 C 0.17016 0.5352 0.6175 0.0
C464 C 0.16801 0.55587 0.58606 0.0
C465 C 0.15029 0.50047 0.66672 0.0
C466 C 0.16209 0.50592 0.70995 0.0
C467 C 0.13979 0.47545 0.65839 0.0
C468 C 0.1285 0.46812 0.61232 0.0
C469 C 0.14293 0.47128 0.57086 0.0
C470 C 0.13212 0.46456 0.52754 0.0
C471 C 0.10696 0.45447 0.52523 0.0
C472 C 0.09257 0.45104 0.56626 0.0
C473 C 0.10327 0.45777 0.60966 0.0
H474 H 0.09862 0.44927 0.49167 0.0
H475 H 0.20317 0.51467 0.91242 0.0
H476 H 0.39466 0.18039 0.64534 0.0
H477 H 0.42524 0.18278 0.71109 0.0
H478 H 0.4802 0.13559 0.63382 0.0
H479 H 0.4491 0.13189 0.5696 0.0
H480 H 0.48025 0.11937 0.71604 0.0
H481 H 0.48634 0.20425 0.64926 0.0
H482 H 0.47063 0.24658 0.61943 0.0
H483 H 0.4401 0.26546 0.75531 0.0
H484 H 0.45535 0.22307 0.78581 0.0
H485 H 0.58373 0.19 0.86674 0.0
H486 H 0.55202 0.19139 0.80301 0.0
H487 H 0.50589 0.13333 0.87349 0.0
H488 H 0.53797 0.13117 0.93658 0.0
H489 H 0.50305 0.20286 0.79315 0.0
H490 H 0.48061 0.0917 0.79507 0.0
H491 H 0.50269 0.05059 0.81651 0.0
H492 H 0.57705 0.08616 0.79387 0.0
H493 H 0.55542 0.12732 0.77152 0.0
C494 C 0.41331 0.17061 0.64259 0.0
C495 C 0.41959 0.15591 0.60269 0.0
C496 C 0.43082 0.17208 0.67996 0.0
C497 C 0.45519 0.15962 0.67721 0.0
C498 C 0.46149 0.14523 0.63695 0.0
C499 C 0.44376 0.14318 0.60024 0.0
C500 C 0.47398 0.16097 0.71656 0.0
C501 C 0.48521 0.13766 0.7328 0.0
C502 C 0.48096 0.18486 0.73787 0.0
C503 C 0.47176 0.21038 0.71968 0.0
C504 C 0.47611 0.21735 0.67269 0.0
C505 C 0.46732 0.24137 0.65567 0.0
C506 C 0.45432 0.25867 0.68542 0.0
C507 C 0.45014 0.25202 0.73229 0.0
C508 C 0.45888 0.22801 0.74947 0.0
C509 C 0.56671 0.1777 0.86886 0.0
C510 C 0.56345 0.16023 0.90631 0.0
C511 C 0.54859 0.17856 0.83249 0.0
C512 C 0.52686 0.16216 0.8332 0.0
C513 C 0.52285 0.14573 0.87181 0.0
C514 C 0.54115 0.14455 0.90782 0.0
C515 C 0.50906 0.1613 0.79253 0.0
C516 C 0.498 0.18463 0.77624 0.0
C517 C 0.50319 0.13758 0.76967 0.0
C518 C 0.51636 0.11269 0.78213 0.0
C519 C 0.50166 0.09071 0.79445 0.0
C520 C 0.51411 0.0674 0.80677 0.0
C521 C 0.54126 0.06579 0.80671 0.0
C522 C 0.55602 0.08745 0.79406 0.0
C523 C 0.54368 0.11078 0.78158 0.0
H524 H 0.55085 0.04775 0.81636 0.0
H525 H 0.44753 0.27726 0.67219 0.0
H526 H 0.77583 0.5722 0.8969 0.0
H527 H 0.76239 0.54202 0.83479 0.0
H528 H 0.84221 0.53474 0.79002 0.0
H529 H 0.85575 0.56468 0.8513 0.0
H530 H 0.80831 0.53971 0.71585 0.0
H531 H 0.81622 0.49059 0.86318 0.0
H532 H 0.80364 0.48111 0.94481 0.0
H533 H 0.72466 0.46887 0.9011 0.0
H534 H 0.73677 0.47859 0.81923 0.0
H535 H 0.85533 0.42317 0.64067 0.0
H536 H 0.84116 0.45704 0.69447 0.0
H537 H 0.76115 0.44278 0.65758 0.0
H538 H 0.77512 0.40865 0.60261 0.0
H539 H 0.77791 0.45205 0.76399 0.0
H540 H 0.77559 0.49034 0.6107 0.0
H541 H 0.79205 0.49743 0.53055 0.0
H542 H 0.86275 0.52915 0.58634 0.0
H543 H 0.8469 0.5219 0.66677 0.0
C544 C 0.79045 0.56433 0.8735 0.0
C545 C 0.8169 0.57063 0.87929 0.0
C546 C 0.78273 0.54712 0.83814 0.0
C547 C 0.80133 0.53617 0.808 0.0
C548 C 0.82755 0.5431 0.81283 0.0
C549 C 0.83528 0.56006 0.84817 0.0
C550 C 0.79437 0.5162 0.77297 0.0
C551 C 0.80122 0.52067 0.72613 0.0
C552 C 0.78448 0.4916 0.78628 0.0
C553 C 0.7773 0.48564 0.83532 0.0
C554 C 0.79614 0.48607 0.87108 0.0
C555 C 0.78911 0.48062 0.91735 0.0
C556 C 0.76335 0.47449 0.92816 0.0
C557 C 0.74459 0.4737 0.89269 0.0
C558 C 0.75152 0.47917 0.84637 0.0
C559 C 0.83467 0.42686 0.6442 0.0
C560 C 0.8164 0.41341 0.61675 0.0
C561 C 0.82663 0.44623 0.67504 0.0
C562 C 0.8002 0.45248 0.67932 0.0
C563 C 0.78165 0.43815 0.6544 0.0
C564 C 0.78971 0.41873 0.62309 0.0
C565 C 0.79293 0.47537 0.70757 0.0
C566 C 0.78361 0.47145 0.75311 0.0
C567 C 0.80066 0.5005 0.69317 0.0
C568 C 0.81006 0.50549 0.6448 0.0
C569 C 0.7947 0.49871 0.60587 0.0
C570 C 0.80392 0.50277 0.56038 0.0
C571 C 0.82845 0.5137 0.55338 0.0
C572 C 0.84375 0.5207 0.59183 0.0
C573 C 0.83463 0.51667 0.63738 0.0
H574 H 0.83562 0.51674 0.51819 0.0
H575 H 0.75794 0.47027 0.964 0.0
H576 H 0.92001 0.69546 0.87987 0.0
H577 H 0.94888 0.70073 0.81229 0.0
H578 H 0.92337 0.62666 0.75777 0.0
H579 H 0.89523 0.62097 0.82562 0.0
H580 H 0.97413 0.62791 0.76389 0.0
H581 H 0.90768 0.68589 0.7047 0.0
H582 H 0.87783 0.7236 0.7076 0.0
H583 H 0.94276 0.77522 0.72315 0.0
H584 H 0.97299 0.73777 0.72095 0.0
H585 H 0.03619 0.62405 0.54732 0.0
H586 H 0.0018 0.62817 0.60554 0.0
H587 H 0.0358 0.69956 0.65604 0.0
H588 H 0.07017 0.69591 0.59716 0.0
H589 H 0.98218 0.70207 0.65347 0.0
H590 H 0.04832 0.64444 0.71276 0.0
H591 H 0.07845 0.60697 0.70925 0.0
H592 H 0.01386 0.55485 0.69454 0.0
H593 H 0.98335 0.59207 0.69726 0.0
C594 C 0.92024 0.68059 0.85294 0.0
C595 C 0.9057 0.65766 0.85816 0.0
C596 C 0.93665 0.68365 0.81432 0.0
C597 C 0.93829 0.66404 0.78008 0.0
C598 C 0.92254 0.64191 0.78399 0.0
C599 C 0.9065 0.63868 0.82275 0.0
C600 C 0.9582 0.66505 0.74277 0.0
C601 C 0.97558 0.64397 0.73932 0.0
C602 C 0.96074 0.68646 0.71192 0.0
C603 C 0.94258 0.70899 0.71313 0.0
C604 C 0.91558 0.70526 0.70913 0.0
C605 C 0.8986 0.7266 0.71056 0.0
C606 C 0.90839 0.75178 0.71568 0.0
C607 C 0.9352 0.7557 0.71925 0.0
C608 C 0.95227 0.73443 0.71785 0.0
C609 C 0.03635 0.64072 0.57059 0.0
C610 C 0.05613 0.65947 0.568 0.0
C611 C 0.01664 0.64306 0.60378 0.0
C612 C 0.01654 0.66396 0.63545 0.0
C613 C 0.03562 0.68327 0.63188 0.0
C614 C 0.05528 0.68107 0.59838 0.0
C615 C -0.00256 0.66462 0.67402 0.0
C616 C 0.98053 0.68604 0.67803 0.0
C617 C -0.00474 0.64354 0.70563 0.0
C618 C 0.01356 0.62107 0.70483 0.0
C619 C 0.04055 0.62501 0.70851 0.0
C620 C 0.0577 0.60381 0.70668 0.0
C621 C 0.04808 0.57855 0.70156 0.0
C622 C 0.02129 0.57443 0.69845 0.0
C623 C 0.00405 0.59557 0.70018 0.0
H624 H 0.06139 0.56217 0.70009 0.0
H625 H 0.89521 0.76827 0.71679 0.0
H626 H 0.29142 0.07589 0.59345 0.0
H627 H 0.28398 0.04137 0.6509 0.0
H628 H 0.36401 0.01681 0.63802 0.0
H629 H 0.37164 0.05097 0.5805 0.0
H630 H 0.33063 0.97558 0.63759 0.0
H631 H 0.34546 0.05376 0.72842 0.0
H632 H 0.33678 0.09911 0.75253 0.0
H633 H 0.2591 0.07837 0.79252 0.0
H634 H 0.26722 0.03293 0.76801 0.0
H635 H 0.3693 0.91452 0.84483 0.0
H636 H 0.36183 0.94386 0.77912 0.0
H637 H 0.28056 0.94939 0.81529 0.0
H638 H 0.28783 0.91974 0.8816 0.0
H639 H 0.30525 -0.00204 0.8005 0.0
H640 H 0.29425 0.91725 0.72106 0.0
H641 H 0.30491 0.87203 0.6989 0.0
H642 H 0.37709 0.89738 0.63917 0.0
H643 H 0.36703 0.94275 0.66151 0.0
C644 C 0.30743 0.06312 0.60273 0.0
C645 C 0.33217 0.06629 0.58247 0.0
C646 C 0.30313 0.04343 0.63558 0.0
C647 C 0.32348 0.02665 0.64871 0.0
C648 C 0.34804 0.02953 0.62814 0.0
C649 C 0.35238 0.04919 0.59548 0.0
C650 C 0.31963 0.00644 0.68485 0.0
C651 C 0.32511 0.98043 0.67324 0.0
C652 C 0.3117 0.01278 0.73093 0.0
C653 C 0.30683 0.04005 0.74581 0.0
C654 C 0.32645 0.05892 0.74196 0.0
C655 C 0.32165 0.08463 0.75577 0.0
C656 C 0.29737 0.09164 0.77388 0.0
C657 C 0.27787 0.07293 0.77837 0.0
C658 C 0.28256 0.04719 0.76454 0.0
C659 C 0.34978 0.92186 0.83885 0.0
C660 C 0.32916 0.91489 0.86852 0.0
C661 C 0.34553 0.93848 0.80108 0.0
C662 C 0.32062 0.94854 0.79225 0.0
C663 C 0.29989 0.94165 0.82157 0.0
C664 C 0.30408 0.92471 0.85925 0.0
C665 C 0.31693 0.96723 0.7535 0.0
C666 C 0.3101 0.99297 0.76459 0.0
C667 C 0.3238 0.96068 0.70701 0.0
C668 C 0.32991 0.93343 0.69316 0.0
C669 C 0.31248 0.91318 0.70347 0.0
C670 C 0.3184 0.88752 0.69082 0.0
C671 C 0.34166 0.88184 0.66764 0.0
C672 C 0.35906 0.90182 0.65707 0.0
C673 C 0.35323 0.92753 0.66963 0.0
H674 H 0.34617 0.86197 0.65778 0.0
H675 H 0.29369 0.11155 0.78456 0.0
H676 H 0.92061 0.36159 0.6424 0.0
H677 H 0.95089 0.34843 0.70357 0.0
H678 H 0.92999 0.26798 0.68347 0.0
H679 H 0.89951 0.28084 0.6213 0.0
H680 H 0.93856 0.29347 0.78765 0.0
H681 H 0.97835 0.27203 0.63946 0.0
H682 H 0.988 0.28025 0.55615 0.0
H683 H 0.0264 0.35152 0.59282 0.0
H684 H 0.01657 0.34395 0.67632 0.0
H685 H 0.05975 0.2828 0.92 0.0
H686 H 0.02652 0.27018 0.8624 0.0
H687 H 0.02792 0.34773 0.80428 0.0
H688 H 0.06066 0.36053 0.86146 0.0
H689 H 0.02977 0.30731 0.73671 0.0
H690 H 0.98264 0.33383 0.87807 0.0
H691 H 0.97133 0.32963 0.96171 0.0
H692 H 0.9463 0.25099 0.93843 0.0
H693 H 0.95785 0.25462 0.85471 0.0
C694 C 0.92204 0.34108 0.65123 0.0
C695 C 0.90791 0.32221 0.62637 0.0
C696 C 0.93931 0.33367 0.68634 0.0
C697 C 0.94267 0.3073 0.69748 0.0
C698 C 0.92752 0.28843 0.67509 0.0
C699 C 0.91025 0.29583 0.63951 0.0
C700 C 0.96408 0.30003 0.72911 0.0
C701 C 0.95861 0.29551 0.77649 0.0
C702 C 0.99007 0.30309 0.7142 0.0
C703 C -0.00341 0.30747 0.66413 0.0
C704 C 0.9887 0.28954 0.62973 0.0
C705 C 0.99422 0.29407 0.58248 0.0
C706 C 0.00777 0.31641 0.56919 0.0
C707 C 0.01591 0.33422 0.60317 0.0
C708 C 0.0104 0.32979 0.65048 0.0
C709 C 0.05303 0.29707 0.89473 0.0
C710 C 0.06265 0.32269 0.89532 0.0
C711 C 0.0341 0.28983 0.86202 0.0
C712 C 0.02494 0.30805 0.82927 0.0
C713 C 0.03492 0.33341 0.82926 0.0
C714 C 0.05346 0.34073 0.86215 0.0
C715 C 0.00426 0.30154 0.79556 0.0
C716 C 0.0099 0.3038 0.74772 0.0
C717 C 0.97849 0.29646 0.81016 0.0
C718 C 0.97145 0.29436 0.86035 0.0
C719 C 0.97496 0.31556 0.8909 0.0
C720 C 0.96847 0.3133 0.93828 0.0
C721 C 0.9582 0.29002 0.95541 0.0
C722 C 0.95433 0.26898 0.92514 0.0
C723 C 0.96085 0.27112 0.87773 0.0
H724 H 0.95315 0.28833 -0.00792 0.0
H725 H 0.012 0.31991 0.53258 0.0
H726 H 0.60702 0.0691 0.88605 0.0
H727 H 0.6099 0.03542 0.82588 0.0
H728 H 0.69183 0.02586 0.8549 0.0
H729 H 0.68927 0.0601 0.91417 0.0
H730 H 0.68394 0.0272 0.76422 0.0
H731 H 0.64636 0.98054 0.89244 0.0
H732 H 0.61507 0.97263 0.95625 0.0
H733 H 0.55235 0.97113 0.85677 0.0
H734 H 0.58321 0.97936 0.7924 0.0
H735 H 0.69238 0.91235 0.62296 0.0
H736 H 0.69376 0.94158 0.69067 0.0
H737 H 0.61309 0.96164 0.66867 0.0
H738 H 0.61134 0.93241 0.60164 0.0
H739 H 0.62343 0.95221 0.76011 0.0
H740 H 0.66102 0.00214 0.63322 0.0
H741 H 0.69242 0.01016 0.56959 0.0
H742 H 0.7556 0.00505 0.66783 0.0
H743 H 0.72457 -0.00333 0.73195 0.0
C744 C 0.62562 0.05971 0.87984 0.0
C745 C 0.64791 0.06718 0.90494 0.0
C746 C 0.62722 0.0404 0.84556 0.0
C747 C 0.65101 0.02784 0.83646 0.0
C748 C 0.67328 0.03527 0.86145 0.0
C749 C 0.67177 0.05482 0.8953 0.0
C750 C 0.65278 0.00745 0.7999 0.0
C751 C 0.67102 0.01054 0.76379 0.0
C752 C 0.63568 0.98594 0.79902 0.0
C753 C 0.61709 0.98073 0.83763 0.0
C754 C 0.62588 0.97867 0.8842 0.0
C755 C 0.60822 0.97411 0.92046 0.0
C756 C 0.58174 0.97142 0.91058 0.0
C757 C 0.57287 0.97322 0.86438 0.0
C758 C 0.59044 0.97779 0.82798 0.0
C759 C 0.67493 0.92298 0.63252 0.0
C760 C 0.65179 0.92012 0.60667 0.0
C761 C 0.67578 0.93968 0.67116 0.0
C762 C 0.65357 0.95386 0.68437 0.0
C763 C 0.63042 0.95081 0.65904 0.0
C764 C 0.62953 0.93416 0.62055 0.0
C765 C 0.65428 0.97223 0.72422 0.0
C766 C 0.63652 0.96872 0.76094 0.0
C767 C 0.67187 0.9933 0.72575 0.0
C768 C 0.6905 -0.00151 0.68726 0.0
C769 C 0.68162 0.00253 0.64117 0.0
C770 C 0.69935 0.00718 0.60504 0.0
C771 C 0.72599 0.00804 0.61464 0.0
C772 C 0.73496 0.00433 0.66043 0.0
C773 C 0.71731 -0.00035 0.69668 0.0
H774 H 0.73968 0.01163 0.58663 0.0
H775 H 0.5681 0.9679 0.93871 0.0
H776 H 0.07539 0.30234 0.12002 0.0
H777 H 0.04752 0.30056 0.18917 0.0
H778 H 0.03541 0.38364 0.18138 0.0
H779 H 0.06331 0.38575 0.11233 0.0
H780 H 0.04542 0.36589 0.27213 0.0
H781 H 0.98996 0.34492 0.14066 0.0
H782 H 0.97746 0.32025 0.06998 0.0
H783 H 0.97582 0.2495 0.15016 0.0
H784 H 0.98868 0.2737 0.22119 0.0
H785 H 0.93226 0.38358 0.40826 0.0
H786 H 0.96581 0.3822 0.34812 0.0
H787 H 0.96611 0.29817 0.35347 0.0
H788 H 0.93192 0.29934 0.41286 0.0
H789 H 0.96426 0.31402 0.26641 0.0
H790 H 0.01662 0.33503 0.39946 0.0
H791 H 0.02945 0.35931 0.47031 0.0
H792 H 0.03774 0.42909 0.38882 0.0
H793 H 0.02455 0.40533 0.31756 0.0
C794 C 0.0669 0.32028 0.13304 0.0
C795 C 0.07145 0.34418 0.11041 0.0
C796 C 0.05096 0.31919 0.1725 0.0
C797 C 0.03932 0.34194 0.19 0.0
C798 C 0.04426 0.36588 0.16827 0.0
C799 C 0.06009 0.367 0.12868 0.0
C800 C 0.02138 0.34072 0.23026 0.0
C801 C 0.02754 0.35475 0.27091 0.0
C802 C -0.00151 0.32559 0.22877 0.0
C803 C 0.99056 0.31107 0.18613 0.0
C804 C 0.98714 0.32407 0.14314 0.0
C805 C 0.97995 0.31018 0.10303 0.0
C806 C 0.97592 0.28331 0.10556 0.0
C807 C 0.97899 0.2703 0.14824 0.0
C808 C 0.98621 0.28409 0.18843 0.0
C809 C 0.93964 0.36478 0.39707 0.0
C810 C 0.92942 0.34155 0.41533 0.0
C811 C 0.95892 0.36404 0.3628 0.0
C812 C 0.9687 0.34009 0.34675 0.0
C813 C 0.95884 0.31687 0.36543 0.0
C814 C 0.93933 0.31757 0.39937 0.0
C815 C 0.98814 0.33934 0.30856 0.0
C816 C 0.98225 0.32496 0.26809 0.0
C817 C 0.01134 0.35407 0.31037 0.0
C818 C 0.0194 0.36842 0.35318 0.0
C819 C 0.02099 0.3556 0.39668 0.0
C820 C 0.02835 0.36926 0.43692 0.0
C821 C 0.03437 0.39574 0.43408 0.0
C822 C 0.03306 0.40858 0.39097 0.0
C823 C 0.02567 0.39502 0.35063 0.0
H824 H 0.04008 0.40628 0.46527 0.0
H825 H 0.97038 0.27258 0.07449 0.0
H826 H 0.70752 0.92427 0.40435 0.0
H827 H 0.71764 0.95627 0.3433 0.0
H828 H 0.63672 0.95877 0.30325 0.0
H829 H 0.62642 0.92701 0.36361 0.0
H830 H 0.67028 0.95472 0.22745 0.0
H831 H 0.66084 0.0046 0.37267 0.0
H832 H 0.6732 0.01564 0.45383 0.0
H833 H 0.75082 0.03304 0.40857 0.0
H834 H 0.73898 0.02174 0.32719 0.0
H835 H 0.62547 0.06755 0.12952 0.0
H836 H 0.63655 0.03477 0.18764 0.0
H837 H 0.71794 0.05275 0.17265 0.0
H838 H 0.70712 0.08591 0.11364 0.0
H839 H 0.69806 0.04414 0.27029 0.0
H840 H 0.70354 0.00274 0.12112 0.0
H841 H 0.68943 0.9928 0.04049 0.0
H842 H 0.6188 0.95951 0.09309 0.0
H843 H 0.63228 0.96964 0.17403 0.0
C844 C 0.69192 0.93156 0.38236 0.0
C845 C 0.66614 0.9232 0.38896 0.0
C846 C 0.69775 0.94983 0.34764 0.0
C847 C 0.6779 0.95981 0.319 0.0
C848 C 0.6523 0.95117 0.325 0.0
C849 C 0.64644 0.93313 0.35973 0.0
C850 C 0.68315 0.97982 0.28324 0.0
C851 C 0.67655 0.97422 0.23667 0.0
C852 C 0.69215 0.00497 0.29525 0.0
C853 C 0.69914 0.012 0.34402 0.0
C854 C 0.6806 0.01058 0.38011 0.0
C855 C 0.68749 0.01692 0.42613 0.0
C856 C 0.71281 0.02494 0.43639 0.0
C857 C 0.73124 0.02675 0.4006 0.0
C858 C 0.72445 0.02039 0.35453 0.0
C859 C 0.64574 0.06483 0.13864 0.0
C860 C 0.66543 0.07914 0.11636 0.0
C861 C 0.65202 0.04607 0.17194 0.0
C862 C 0.67804 0.04121 0.18372 0.0
C863 C 0.69776 0.05627 0.16365 0.0
C864 C 0.69149 0.07511 0.12997 0.0
C865 C 0.68408 0.01921 0.21508 0.0
C866 C 0.69275 0.0244 0.26071 0.0
C867 C 0.67698 0.99361 0.2023 0.0
C868 C 0.66891 0.98705 0.15369 0.0
C869 C 0.68493 0.99344 0.1155 0.0
C870 C 0.67704 0.98776 0.06973 0.0
C871 C 0.65323 0.97555 0.06167 0.0
C872 C 0.63726 0.96895 0.09939 0.0
C873 C 0.64503 0.97462 0.14524 0.0
H874 H 0.64717 0.97116 0.02622 0.0
H875 H 0.71811 0.02982 0.47204 0.0
H876 H 0.91148 0.68027 0.11305 0.0
H877 H 0.94891 0.68703 0.16397 0.0
H878 H 0.9931 0.63092 0.08373 0.0
H879 H 0.95506 0.62313 0.03393 0.0
H880 H 0.0021 0.62318 0.17015 0.0
H881 H 0.0039 0.69895 0.07584 0.0
H882 H 0.98679 0.73791 0.03555 0.0
H883 H 0.96788 0.77264 0.16816 0.0
H884 H 0.98454 0.73373 0.20927 0.0
H885 H 0.10872 0.65039 0.31209 0.0
H886 H 0.08444 0.65353 0.23841 0.0
H887 H 0.02423 0.69741 0.30881 0.0
H888 H 0.04922 0.69524 0.38216 0.0
H889 H 0.02996 0.71211 0.21597 0.0
H890 H 0.0225 0.6304 0.3058 0.0
H891 H 0.04288 0.59209 0.34343 0.0
H892 H 0.07651 0.56938 0.21187 0.0
H893 H 0.05648 0.6077 0.17359 0.0
C894 C 0.9292 0.66941 0.10622 0.0
C895 C 0.93045 0.65125 0.0695 0.0
C896 C 0.95067 0.67346 0.13507 0.0
C897 C 0.97408 0.66002 0.12692 0.0
C898 C 0.9753 0.64166 0.09047 0.0
C899 C 0.95358 0.63717 0.06215 0.0
C900 C -0.00324 0.66436 0.15805 0.0
C901 C 0.00853 0.64264 0.17925 0.0
C902 C 0.00523 0.68973 0.17014 0.0
C903 C -0.00464 0.71332 0.14563 0.0
C904 C -0.00404 0.71482 0.09642 0.0
C905 C 0.98635 0.73691 0.07343 0.0
C906 C 0.97622 0.75772 0.09928 0.0
C907 C 0.97574 0.75651 0.14818 0.0
C908 C 0.9853 0.73445 0.17135 0.0
C909 C 0.09072 0.66146 0.31119 0.0
C910 C 0.08056 0.67249 0.35225 0.0
C911 C 0.07688 0.66318 0.26932 0.0
C912 C 0.0523 0.67516 0.26857 0.0
C913 C 0.04316 0.68803 0.30881 0.0
C914 C 0.05731 0.68677 0.35058 0.0
C915 C 0.03455 0.67104 0.22854 0.0
C916 C 0.02375 0.69274 0.20586 0.0
C917 C 0.02728 0.64565 0.21439 0.0
C918 C 0.03814 0.62195 0.23694 0.0
C919 C 0.03421 0.61719 0.28493 0.0
C920 C 0.04572 0.59552 0.30637 0.0
C921 C 0.06101 0.57834 0.28007 0.0
C922 C 0.06466 0.5827 0.23219 0.0
C923 C 0.0532 0.60436 0.21059 0.0
H924 H 0.07001 0.56164 0.29677 0.0
H925 H 0.96878 0.7748 0.08141 0.0
H926 H 0.37398 0.93269 0.08896 0.0
H927 H 0.36919 0.96206 0.15526 0.0
H928 H 0.28831 0.94116 0.16762 0.0
H929 H 0.29277 0.91168 0.10064 0.0
H930 H 0.29592 0.99375 0.17254 0.0
H931 H 0.33002 0.918 0.2463 0.0
H932 H 0.35951 0.88046 0.25693 0.0
H933 H 0.42426 0.93217 0.27368 0.0
H934 H 0.39525 0.97006 0.26229 0.0
H935 H 0.29379 0.06951 0.38404 0.0
H936 H 0.28883 0.03383 0.32796 0.0
H937 H 0.3705 0.03837 0.29436 0.0
H938 H 0.37577 0.0735 0.35105 0.0
H939 H 0.35615 0.98898 0.30836 0.0
H940 H 0.32271 0.0637 0.22329 0.0
H941 H 0.29348 0.10135 0.21398 0.0
H942 H 0.22714 0.0508 0.21834 0.0
H943 H 0.25614 0.0128 0.2291 0.0
C944 C 0.35512 0.93426 0.10561 0.0
C945 C 0.33375 0.91979 0.08945 0.0
C946 C 0.35248 0.95095 0.14374 0.0
C947 C 0.32852 0.95339 0.1667 0.0
C948 C 0.307 0.93934 0.15043 0.0
C949 C 0.30961 0.92256 0.11217 0.0
C950 C 0.32605 0.97142 0.2067 0.0
C951 C 0.30866 0.99243 0.20281 0.0
C952 C 0.34289 0.96969 0.24583 0.0
C953 C 0.36043 0.94692 0.25315 0.0
C954 C 0.35057 0.9214 0.25191 0.0
C955 C 0.36721 0.90004 0.25811 0.0
C956 C 0.39374 0.90392 0.26591 0.0
C957 C 0.40369 0.92919 0.26761 0.0
C958 C 0.38715 0.95062 0.26134 0.0
C959 C 0.31061 0.06313 0.36424 0.0
C960 C 0.33517 0.07433 0.37188 0.0
C961 C 0.30776 0.04268 0.33239 0.0
C962 C 0.32931 0.03347 0.30708 0.0
C963 C 0.35368 0.04505 0.31388 0.0
C964 C 0.35661 0.06524 0.34603 0.0
C965 C 0.32674 0.01182 0.27326 0.0
C966 C 0.3431 0.99005 0.27851 0.0
C967 C 0.30895 0.0128 0.23543 0.0
C968 C 0.29156 0.03548 0.22756 0.0
C969 C 0.30188 0.06063 0.22255 0.0
C970 C 0.28533 0.08205 0.217 0.0
C971 C 0.25839 0.07852 0.21556 0.0
C972 C 0.24799 0.05352 0.21954 0.0
C973 C 0.26449 0.03203 0.22545 0.0
H974 H 0.24556 0.09513 0.21136 0.0
H975 H 0.4066 0.88737 0.27068 0.0
H976 H 0.77659 0.33224 0.36412 0.0
H977 H 0.75806 0.31135 0.29524 0.0
H978 H 0.82451 0.26004 0.28646 0.0
H979 H 0.84343 0.28078 0.35574 0.0
H980 H 0.80311 0.27922 0.19612 0.0
H981 H 0.77856 0.23587 0.33873 0.0
H982 H 0.76247 0.23408 0.42001 0.0
H983 H 0.68987 0.26803 0.37647 0.0
H984 H 0.70573 0.27044 0.295 0.0
H985 H 0.73585 0.17777 0.07107 0.0
H986 H 0.76299 0.20256 0.12542 0.0
H987 H 0.698 0.25308 0.15659 0.0
H988 H 0.67069 0.22853 0.10267 0.0
H989 H 0.72154 0.23258 0.23503 0.0
H990 H 0.74585 0.2754 0.09189 0.0
H991 H 0.76219 0.27788 0.01085 0.0
H992 H 0.83514 0.24475 0.05457 0.0
H993 H 0.81907 0.24171 0.13583 0.0
C994 C 0.78755 0.3168 0.34727 0.0
C995 C 0.81126 0.30782 0.36599 0.0
C996 C 0.77694 0.30498 0.30782 0.0
C997 C 0.78987 0.28408 0.28641 0.0
C998 C 0.81435 0.27619 0.30279 0.0
C999 C 0.82497 0.28793 0.34252 0.0
C1000 C 0.77626 0.26869 0.25066 0.0
C1001 C 0.78548 0.26868 0.20449 0.0
C1002 C 0.75317 0.25529 0.26201 0.0
C1003 C 0.74344 0.25358 0.31087 0.0
C1004 C 0.75925 0.24316 0.34656 0.0
C1005 C 0.75017 0.242 0.39265 0.0
C1006 C 0.72519 0.251 0.40343 0.0
C1007 C 0.70923 0.2611 0.36809 0.0
C1008 C 0.71825 0.26236 0.32194 0.0
C1009 C 0.72735 0.19423 0.08932 0.0
C1010 C 0.70106 0.20109 0.08277 0.0
C1011 C 0.74293 0.20844 0.12005 0.0
C1012 C 0.73243 0.22963 0.14464 0.0
C1013 C 0.70637 0.23675 0.13774 0.0
C1014 C 0.69084 0.22269 0.10691 0.0
C1015 C 0.74802 0.24343 0.17999 0.0
C1016 C 0.73922 0.24301 0.2264 0.0
C1017 C 0.77147 0.25629 0.16871 0.0
C1018 C 0.78114 0.25803 0.11985 0.0
C1019 C 0.76528 0.26838 0.08415 0.0
C1020 C 0.77451 0.26995 0.03819 0.0
C1021 C 0.79966 0.2614 0.02754 0.0
C1022 C 0.81564 0.25132 0.06286 0.0
C1023 C 0.80649 0.24969 0.10888 0.0
H1024 H 0.80678 0.26265 -0.00806 0.0
H1025 H 0.71818 0.25009 0.43914 0.0
H1026 H 0.84251 0.71076 0.12503 0.0
H1027 H 0.82338 0.73528 0.19011 0.0
H1028 H 0.75485 0.68729 0.18359 0.0
H1029 H 0.77369 0.66258 0.11895 0.0
H1030 H 0.74558 0.74153 0.17621 0.0
H1031 H 0.79233 0.67998 0.27237 0.0
H1032 H 0.83111 0.65622 0.30045 0.0
H1033 H 0.86677 0.72846 0.33998 0.0
H1034 H 0.82832 0.7527 0.31146 0.0
H1035 H 0.67222 0.77351 0.37325 0.0
H1036 H 0.69893 0.7509 0.31579 0.0
H1037 H 0.76254 0.8031 0.34414 0.0
H1038 H 0.73594 0.82596 0.40242 0.0
H1039 H 0.77767 0.75062 0.33949 0.0
H1040 H 0.73011 0.81211 0.24756 0.0
H1041 H 0.69133 0.83599 0.21982 0.0
H1042 H 0.65769 0.76444 0.17141 0.0
H1043 H 0.69612 0.74006 0.19951 0.0
C1044 C 0.8235 0.7052 0.13785 0.0
C1045 C 0.80949 0.68491 0.1165 0.0
C1046 C 0.81271 0.71915 0.17511 0.0
C1047 C 0.78774 0.71305 0.19127 0.0
C1048 C 0.77415 0.69222 0.17133 0.0
C1049 C 0.78499 0.67812 0.13448 0.0
C1050 C 0.77476 0.72971 0.2262 0.0
C1051 C 0.75242 0.74335 0.21206 0.0
C1052 C 0.7844 0.7327 0.27226 0.0
C1053 C 0.80758 0.71818 0.2892 0.0
C1054 C 0.80856 0.69083 0.28655 0.0
C1055 C 0.83045 0.67726 0.30268 0.0
C1056 C 0.85143 0.69083 0.32184 0.0
C1057 C 0.85053 0.71798 0.32503 0.0
C1058 C 0.82868 0.73164 0.30892 0.0
C1059 C 0.69187 0.78028 0.36742 0.0
C1060 C 0.70191 0.80163 0.39234 0.0
C1061 C 0.70707 0.76735 0.33446 0.0
C1062 C 0.73255 0.77554 0.32557 0.0
C1063 C 0.74286 0.7966 0.35061 0.0
C1064 C 0.72759 0.80968 0.38363 0.0
C1065 C 0.74813 0.76194 0.28974 0.0
C1066 C 0.77099 0.749 0.30353 0.0
C1067 C 0.73907 0.75963 0.24315 0.0
C1068 C 0.71593 0.77423 0.22599 0.0
C1069 C 0.71436 0.80143 0.23134 0.0
C1070 C 0.69245 0.81507 0.21549 0.0
C1071 C 0.67204 0.80174 0.19395 0.0
C1072 C 0.67351 0.77474 0.18813 0.0
C1073 C 0.69537 0.76101 0.20396 0.0
H1074 H 0.65509 0.81233 0.1817 0.0
H1075 H 0.86836 0.68029 0.33433 0.0
H1076 H 0.27454 0.83111 0.11258 0.0
H1077 H 0.25492 0.8108 0.18121 0.0
H1078 H 0.30715 0.74523 0.16765 0.0
H1079 H 0.32684 0.7652 0.09877 0.0
H1080 H 0.25622 0.73084 0.1789 0.0
H1081 H 0.31745 0.78834 0.25173 0.0
H1082 H 0.33875 0.83055 0.26602 0.0
H1083 H 0.26636 0.86294 0.31383 0.0
H1084 H 0.24451 0.82102 0.29914 0.0
H1085 H 0.22653 0.66981 0.39108 0.0
H1086 H 0.25224 0.69355 0.33367 0.0
H1087 H 0.19873 0.75835 0.34152 0.0
H1088 H 0.17282 0.73487 0.39934 0.0
H1089 H 0.25155 0.77334 0.33502 0.0
H1090 H 0.18993 0.71744 0.25805 0.0
H1091 H 0.16786 0.67568 0.24323 0.0
H1092 H 0.24047 0.64099 0.20204 0.0
H1093 H 0.26306 0.68247 0.21738 0.0
C1094 C 0.28189 0.81237 0.12414 0.0
C1095 C 0.30222 0.79974 0.10012 0.0
C1096 C 0.27076 0.80091 0.16352 0.0
C1097 C 0.27981 0.77669 0.17953 0.0
C1098 C 0.30002 0.764 0.15573 0.0
C1099 C 0.31124 0.77547 0.11646 0.0
C1100 C 0.26746 0.76412 0.22014 0.0
C1101 C 0.25557 0.73991 0.21323 0.0
C1102 C 0.26612 0.77642 0.26444 0.0
C1103 C 0.27928 0.80158 0.27392 0.0
C1104 C 0.30602 0.80451 0.26496 0.0
C1105 C 0.3182 0.82838 0.27318 0.0
C1106 C 0.3039 0.84944 0.2907 0.0
C1107 C 0.2774 0.84662 0.3002 0.0
C1108 C 0.26512 0.8228 0.29198 0.0
C1109 C 0.22033 0.68923 0.38114 0.0
C1110 C 0.19739 0.70029 0.39928 0.0
C1111 C 0.23509 0.70275 0.34838 0.0
C1112 C 0.22712 0.72749 0.33318 0.0
C1113 C 0.20508 0.73922 0.35296 0.0
C1114 C 0.19024 0.72569 0.38571 0.0
C1115 C 0.24051 0.74005 0.29369 0.0
C1116 C 0.25243 0.76424 0.30073 0.0
C1117 C 0.24182 0.72784 0.24934 0.0
C1118 C 0.22823 0.70298 0.23934 0.0
C1119 C 0.20122 0.70085 0.24617 0.0
C1120 C 0.18862 0.67724 0.23763 0.0
C1121 C 0.20277 0.65567 0.22183 0.0
C1122 C 0.22954 0.65771 0.21436 0.0
C1123 C 0.24226 0.68126 0.22294 0.0
H1124 H 0.19298 0.6374 0.21528 0.0
H1125 H 0.31335 0.86791 0.297 0.0
H1126 H 0.26583 0.17638 0.38262 0.0
H1127 H 0.24493 0.20275 0.32216 0.0
H1128 H 0.31218 0.25266 0.31676 0.0
H1129 H 0.33302 0.22677 0.3781 0.0
H1130 H 0.26995 0.28122 0.31624 0.0
H1131 H 0.29959 0.20767 0.22894 0.0
H1132 H 0.30598 0.16229 0.20278 0.0
H1133 H 0.22336 0.15274 0.18989 0.0
H1134 H 0.21643 0.19793 0.21654 0.0
H1135 H 0.22627 0.33662 0.09435 0.0
H1136 H 0.25118 0.31668 0.15842 0.0
H1137 H 0.18561 0.26811 0.19229 0.0
H1138 H 0.16069 0.28764 0.12884 0.0
H1139 H 0.23092 0.24079 0.17501 0.0
H1140 H 0.2024 0.31584 0.26418 0.0
H1141 H 0.19797 0.36291 0.27966 0.0
H1142 H 0.2811 0.37056 0.28241 0.0
H1143 H 0.28602 0.32356 0.26628 0.0
C1144 C 0.27626 0.19288 0.36846 0.0
C1145 C 0.30111 0.19943 0.38517 0.0
C1146 C 0.26432 0.20789 0.33374 0.0
C1147 C 0.27716 0.22947 0.31452 0.0
C1148 C 0.30194 0.23608 0.33111 0.0
C1149 C 0.31382 0.22122 0.36613 0.0
C1150 C 0.26437 0.24542 0.27787 0.0
C1151 C 0.26174 0.27242 0.28501 0.0
C1152 C 0.25348 0.23396 0.23732 0.0
C1153 C 0.25751 0.20616 0.225 0.0
C1154 C 0.28277 0.19577 0.22127 0.0
C1155 C 0.28649 0.17011 0.20616 0.0
C1156 C 0.26509 0.15473 0.1945 0.0
C1157 C 0.23991 0.16473 0.19881 0.0
C1158 C 0.23608 0.19035 0.21391 0.0
C1159 C 0.21705 0.32195 0.11587 0.0
C1160 C 0.19164 0.31342 0.106 0.0
C1161 C 0.23127 0.3107 0.15252 0.0
C1162 C 0.22017 0.29093 0.1798 0.0
C1163 C 0.19448 0.28328 0.17137 0.0
C1164 C 0.18033 0.29443 0.13495 0.0
C1165 C 0.23586 0.27623 0.21415 0.0
C1166 C 0.23918 0.24951 0.20631 0.0
C1167 C 0.24755 0.28802 0.25357 0.0
C1168 C 0.24457 0.31623 0.26351 0.0
C1169 C 0.21973 0.32759 0.26766 0.0
C1170 C 0.21714 0.35426 0.27664 0.0
C1171 C 0.23924 0.36973 0.28187 0.0
C1172 C 0.26399 0.35856 0.27827 0.0
C1173 C 0.2667 0.33191 0.26926 0.0
H1174 H 0.23719 0.39037 0.28882 0.0
H1175 H 0.26798 0.13516 0.18158 0.0
H1176 H 0.14929 0.71207 0.62119 0.0
H1177 H 0.17137 0.73271 0.68704 0.0
H1178 H 0.23416 0.67703 0.67607 0.0
H1179 H 0.21213 0.65595 0.61053 0.0
H1180 H 0.22258 0.6892 0.76773 0.0
H1181 H 0.23981 0.73398 0.62279 0.0
H1182 H 0.22782 0.75631 0.5493 0.0
H1183 H 0.18667 0.81489 0.62742 0.0
H1184 H 0.1981 0.79267 0.70137 0.0
H1185 H 0.32278 0.7626 0.87582 0.0
H1186 H 0.29676 0.73764 0.82023 0.0
H1187 H 0.23568 0.79538 0.82837 0.0
H1188 H 0.26161 0.82072 0.88335 0.0
H1189 H 0.24559 0.78171 0.73961 0.0
H1190 H 0.2302 0.73762 0.88542 0.0
H1191 H 0.24262 0.71509 0.95846 0.0
H1192 H 0.28096 0.65524 0.87887 0.0
H1193 H 0.26908 0.67762 0.80533 0.0
C1194 C 0.16762 0.70394 0.63312 0.0
C1195 C 0.17919 0.68265 0.61003 0.0
C1196 C 0.18018 0.71577 0.67075 0.0
C1197 C 0.20457 0.70665 0.68562 0.0
C1198 C 0.21537 0.68438 0.66482 0.0
C1199 C 0.20278 0.67244 0.62727 0.0
C1200 C 0.21979 0.72162 0.72007 0.0
C1201 C 0.22784 0.70935 0.76154 0.0
C1202 C 0.22627 0.74798 0.71197 0.0
C1203 C 0.21958 0.76151 0.66756 0.0
C1204 C 0.22804 0.75151 0.62427 0.0
C1205 C 0.22137 0.76416 0.58254 0.0
C1206 C 0.20643 0.78697 0.58368 0.0
C1207 C 0.1982 0.7972 0.62658 0.0
C1208 C 0.20478 0.7846 0.66841 0.0
C1209 C 0.30384 0.77004 0.86578 0.0
C1210 C 0.29426 0.79363 0.88417 0.0
C1211 C 0.28894 0.75567 0.83423 0.0
C1212 C 0.26418 0.76452 0.82085 0.0
C1213 C 0.25473 0.78821 0.8385 0.0
C1214 C 0.26961 0.80264 0.86991 0.0
C1215 C 0.24829 0.74939 0.78759 0.0
C1216 C 0.24021 0.76161 0.7461 0.0
C1217 C 0.24189 0.72299 0.7957 0.0
C1218 C 0.24895 0.70943 0.83988 0.0
C1219 C 0.24145 0.71976 0.8835 0.0
C1220 C 0.24837 0.707 0.92499 0.0
C1221 C 0.26263 0.68378 0.92331 0.0
C1222 C 0.26995 0.67324 0.88012 0.0
C1223 C 0.2631 0.68595 0.83852 0.0
H1224 H 0.26796 0.67393 0.95547 0.0
H1225 H 0.20129 0.79674 0.55134 0.0
H1226 H 0.26225 0.16015 0.59503 0.0
H1227 H 0.23774 0.17835 0.66066 0.0
H1228 H 0.29896 0.23383 0.6858 0.0
H1229 H 0.32377 0.21571 0.62057 0.0
H1230 H 0.28125 0.21162 0.76692 0.0
H1231 H 0.24539 0.25228 0.62849 0.0
H1232 H 0.22509 0.25284 0.55015 0.0
H1233 H 0.15932 0.21109 0.60365 0.0
H1234 H 0.17943 0.20996 0.68223 0.0
H1235 H 0.22153 0.31417 0.88992 0.0
H1236 H 0.24301 0.28663 0.83207 0.0
H1237 H 0.17607 0.23634 0.82783 0.0
H1238 H 0.15423 0.26388 0.88595 0.0
H1239 H 0.19403 0.25065 0.73955 0.0
H1240 H 0.22823 0.21458 0.88069 0.0
H1241 H 0.24864 0.21513 0.95891 0.0
H1242 H 0.31761 0.24899 0.90063 0.0
H1243 H 0.29747 0.24902 0.82213 0.0
C1244 C 0.27057 0.17619 0.61453 0.0
C1245 C 0.29492 0.18659 0.6023 0.0
C1246 C 0.2565 0.18657 0.65197 0.0
C1247 C 0.26649 0.20753 0.67771 0.0
C1248 C 0.29096 0.21762 0.66627 0.0
C1249 C 0.30503 0.20732 0.62882 0.0
C1250 C 0.25125 0.21943 0.716 0.0
C1251 C 0.26225 0.22032 0.76096 0.0
C1252 C 0.22617 0.23006 0.70827 0.0
C1253 C 0.21405 0.23075 0.66108 0.0
C1254 C 0.22671 0.24301 0.62345 0.0
C1255 C 0.21521 0.24347 0.57903 0.0
C1256 C 0.19097 0.23193 0.57189 0.0
C1257 C 0.17813 0.21997 0.60921 0.0
C1258 C 0.18956 0.21942 0.6537 0.0
C1259 C 0.21132 0.29725 0.87684 0.0
C1260 C 0.18615 0.29123 0.89256 0.0
C1261 C 0.22371 0.28145 0.84399 0.0
C1262 C 0.21119 0.25935 0.82618 0.0
C1263 C 0.18604 0.25328 0.84146 0.0
C1264 C 0.17366 0.26899 0.87469 0.0
C1265 C 0.22424 0.24328 0.79028 0.0
C1266 C 0.21284 0.24161 0.74573 0.0
C1267 C 0.24899 0.232 0.79837 0.0
C1268 C 0.26124 0.23198 0.84554 0.0
C1269 C 0.24767 0.22234 0.88459 0.0
C1270 C 0.25921 0.22251 0.92898 0.0
C1271 C 0.28438 0.23213 0.93475 0.0
C1272 C 0.2981 0.24156 0.89611 0.0
C1273 C 0.28664 0.24146 0.85164 0.0
H1274 H 0.29329 0.23225 0.96915 0.0
H1275 H 0.18209 0.23232 0.53747 0.0
H1276 H 0.76008 0.31883 0.58968 0.0
H1277 H 0.7355 0.29286 0.64552 0.0
H1278 H 0.78928 0.22894 0.62755 0.0
H1279 H 0.81416 0.25472 0.57135 0.0
H1280 H 0.73541 0.21391 0.6349 0.0
H1281 H 0.79991 0.26448 0.71496 0.0
H1282 H 0.82398 0.30456 0.73393 0.0
H1283 H 0.75354 0.34054 0.78301 0.0
H1284 H 0.72895 0.30077 0.76358 0.0
H1285 H 0.70947 0.15261 0.85648 0.0
H1286 H 0.7293 0.17173 0.78681 0.0
H1287 H 0.68168 0.24051 0.80342 0.0
H1288 H 0.66181 0.22177 0.87307 0.0
H1289 H 0.73361 0.25128 0.79536 0.0
H1290 H 0.66927 0.1994 0.71664 0.0
H1291 H 0.6459 0.15893 0.69747 0.0
H1292 H 0.71678 0.12449 0.647 0.0
H1293 H 0.74068 0.16465 0.66652 0.0
C1294 C 0.76657 0.29915 0.59703 0.0
C1295 C 0.78932 0.28898 0.57657 0.0
C1296 C 0.75246 0.28435 0.62887 0.0
C1297 C 0.76082 0.25919 0.64076 0.0
C1298 C 0.78263 0.24838 0.61864 0.0
C1299 C 0.79688 0.26322 0.58686 0.0
C1300 C 0.7481 0.24527 0.67944 0.0
C1301 C 0.73521 0.22182 0.67016 0.0
C1302 C 0.74779 0.25589 0.72511 0.0
C1303 C 0.76255 0.27974 0.73736 0.0
C1304 C 0.78951 0.28101 0.72943 0.0
C1305 C 0.80326 0.30366 0.74032 0.0
C1306 C 0.79028 0.32511 0.75955 0.0
C1307 C 0.76355 0.32392 0.76805 0.0
C1308 C 0.74971 0.30132 0.75714 0.0
C1309 C 0.70304 0.17171 0.84513 0.0
C1310 C 0.68422 0.18577 0.87061 0.0
C1311 C 0.71429 0.18251 0.80518 0.0
C1312 C 0.70685 0.20745 0.79013 0.0
C1313 C 0.68764 0.22122 0.81468 0.0
C1314 C 0.67632 0.21045 0.85445 0.0
C1315 C 0.7204 0.22008 0.75085 0.0
C1316 C 0.73369 0.24329 0.76014 0.0
C1317 C 0.72116 0.20908 0.70542 0.0
C1318 C 0.70682 0.18494 0.69352 0.0
C1319 C 0.67993 0.18312 0.70185 0.0
C1320 C 0.66657 0.16025 0.69084 0.0
C1321 C 0.67986 0.13913 0.67115 0.0
C1322 C 0.70652 0.14086 0.66231 0.0
C1323 C 0.71998 0.16368 0.67331 0.0
H1324 H 0.66949 0.12144 0.66265 0.0
H1325 H 0.80095 0.34263 0.76795 0.0
H1326 H 0.71896 0.82569 0.61628 0.0
H1327 H 0.73757 0.80264 0.683 0.0
H1328 H 0.67544 0.74655 0.67732 0.0
H1329 H 0.65637 0.76959 0.61045 0.0
H1330 H 0.68763 0.76302 0.76864 0.0
H1331 H 0.73095 0.72983 0.6323 0.0
H1332 H 0.75506 0.73254 0.55784 0.0
H1333 H 0.81788 0.77139 0.62784 0.0
H1334 H 0.79396 0.7693 0.70261 0.0
H1335 H 0.75612 0.66678 0.90522 0.0
H1336 H 0.73068 0.69061 0.84672 0.0
H1337 H 0.79099 0.74854 0.83769 0.0
H1338 H 0.81665 0.72492 0.89562 0.0
H1339 H 0.77771 0.72897 0.75299 0.0
H1340 H 0.73438 0.76298 0.88904 0.0
H1341 H 0.71036 0.76074 0.96363 0.0
H1342 H 0.64794 0.7205 0.89505 0.0
H1343 H 0.67177 0.72216 0.82013 0.0
C1344 C 0.70912 0.80852 0.62918 0.0
C1345 C 0.68631 0.79932 0.60769 0.0
C1346 C 0.71982 0.79539 0.66729 0.0
C1347 C 0.70798 0.77281 0.68449 0.0
C1348 C 0.68481 0.76395 0.66425 0.0
C1349 C 0.67408 0.77705 0.62595 0.0
C1350 C 0.72047 0.75805 0.72263 0.0
C1351 C 0.70718 0.75519 0.76518 0.0
C1352 C 0.74609 0.74834 0.71795 0.0
C1353 C 0.76054 0.74963 0.67299 0.0
C1354 C 0.7498 0.73916 0.63175 0.0
C1355 C 0.76345 0.74055 0.58949 0.0
C1356 C 0.78795 0.75219 0.58809 0.0
C1357 C 0.79888 0.76242 0.62896 0.0
C1358 C 0.78529 0.76112 0.6713 0.0
C1359 C 0.76387 0.68473 0.89116 0.0
C1360 C 0.78854 0.6938 0.90475 0.0
C1361 C 0.74924 0.69836 0.85796 0.0
C1362 C 0.75902 0.72129 0.83812 0.0
C1363 C 0.78321 0.73082 0.85265 0.0
C1364 C 0.79783 0.71725 0.88574 0.0
C1365 C 0.74513 0.73432 0.79948 0.0
C1366 C 0.75813 0.73672 0.75659 0.0
C1367 C 0.71931 0.74358 0.804 0.0
C1368 C 0.70502 0.74241 0.84908 0.0
C1369 C 0.71566 0.75341 0.88995 0.0
C1370 C 0.70205 0.7523 0.93227 0.0
C1371 C 0.67768 0.74041 0.93411 0.0
C1372 C 0.66684 0.72966 0.89359 0.0
C1373 C 0.68039 0.73069 0.85118 0.0
H1374 H 0.66716 0.73959 0.9669 0.0
H1375 H 0.7985 0.75323 0.55534 0.0
loop_
_geom_bond_atom_site_label_1
_geom_bond_atom_site_label_2
_geom_bond_distance
_geom_bond_site_symmetry_2
_ccdc_geom_bond_type
Sc0 O3 2.025 . S
Sc0 O10 2.105 1_554 S
Sc0 O13 2.105 . S
Sc0 O16 2.105 . S
Sc0 O19 2.105 1_554 S
Sc1 O3 2.025 . S
Sc1 O11 2.105 1_554 S
Sc1 O15 2.105 . S
Sc1 O17 2.105 . S
Sc1 O21 2.105 1_554 S
Sc2 O3 2.025 . S
Sc2 O12 2.105 1_554 S
Sc2 O14 2.105 . S
Sc2 O18 2.105 . S
Sc2 O20 2.105 1_554 S
O3 Sc0 2.025 . S
O3 Sc1 2.025 . S
O3 Sc2 2.025 . S
C4 O10 1.268 . S
C4 O20 1.268 . S
C5 O11 1.268 . S
C5 O19 1.268 . S
C6 O12 1.268 . S
C6 O21 1.268 . S
C7 O13 1.268 . S
C7 O17 1.268 . S
C8 O14 1.268 . S
C8 O16 1.268 . S
C9 O15 1.268 . S
C9 O18 1.268 . S
O10 Sc0 2.105 1_556 S
O10 C4 1.268 . S
O11 Sc1 2.105 1_556 S
O11 C5 1.268 . S
O12 Sc2 2.105 1_556 S
O12 C6 1.268 . S
O13 Sc0 2.105 . S
O13 C7 1.268 . S
O14 Sc2 2.105 . S
O14 C8 1.268 . S
O15 Sc1 2.105 . S
O15 C9 1.268 . S
O16 Sc0 2.105 . S
O16 C8 1.268 . S
O17 Sc1 2.105 . S
O17 C7 1.268 . S
O18 Sc2 2.105 . S
O18 C9 1.268 . S
O19 Sc0 2.105 1_556 S
O19 C5 1.268 . S
O20 Sc2 2.105 1_556 S
O20 C4 1.268 . S
O21 Sc1 2.105 1_556 S
O21 C6 1.268 . S
Sc22 O25 2.025 . S
Sc22 O32 2.105 1_554 S
Sc22 O35 2.105 . S
Sc22 O38 2.105 . S
Sc22 O41 2.105 1_554 S
Sc23 O25 2.025 . S
Sc23 O33 2.105 1_554 S
Sc23 O37 2.105 . S
Sc23 O39 2.105 . S
Sc23 O43 2.105 1_554 S
Sc24 O25 2.025 . S
Sc24 O34 2.105 1_554 S
Sc24 O36 2.105 . S
Sc24 O40 2.105 . S
Sc24 O42 2.105 1_554 S
O25 Sc22 2.025 . S
O25 Sc23 2.025 . S
O25 Sc24 2.025 . S
C26 O32 1.268 . S
C26 O42 1.268 . S
C27 O33 1.268 . S
C27 O41 1.268 . S
C28 O34 1.268 . S
C28 O43 1.268 . S
C29 O35 1.268 . S
C29 O39 1.268 . S
C30 O36 1.268 . S
C30 O38 1.268 . S
C31 O37 1.268 . S
C31 O40 1.268 . S
O32 Sc22 2.105 1_556 S
O32 C26 1.268 . S
O33 Sc23 2.105 1_556 S
O33 C27 1.268 . S
O34 Sc24 2.105 1_556 S
O34 C28 1.268 . S
O35 Sc22 2.105 . S
O35 C29 1.268 . S
O36 Sc24 2.105 . S
O36 C30 1.268 . S
O37 Sc23 2.105 . S
O37 C31 1.268 . S
O38 Sc22 2.105 . S
O38 C30 1.268 . S
O39 Sc23 2.105 . S
O39 C29 1.268 . S
O40 Sc24 2.105 . S
O40 C31 1.268 . S
O41 Sc22 2.105 1_556 S
O41 C27 1.268 . S
O42 Sc24 2.105 1_556 S
O42 C26 1.268 . S
O43 Sc23 2.105 1_556 S
O43 C28 1.268 . S
Sc44 O47 2.025 . S
Sc44 O54 2.105 1_554 S
Sc44 O57 2.105 . S
Sc44 O60 2.105 . S
Sc44 O63 2.105 1_554 S
Sc45 O47 2.025 . S
Sc45 O55 2.105 1_554 S
Sc45 O59 2.105 . S
Sc45 O61 2.105 . S
Sc45 O65 2.105 1_554 S
Sc46 O47 2.025 . S
Sc46 O56 2.105 1_554 S
Sc46 O58 2.105 . S
Sc46 O62 2.105 . S
Sc46 O64 2.105 1_554 S
O47 Sc44 2.025 . S
O47 Sc45 2.025 . S
O47 Sc46 2.025 . S
C48 O54 1.268 . S
C48 O64 1.268 . S
C49 O55 1.268 . S
C49 O63 1.268 . S
C50 O56 1.268 . S
C50 O65 1.268 . S
C51 O57 1.268 . S
C51 O61 1.268 . S
C52 O58 1.268 . S
C52 O60 1.268 . S
C53 O59 1.268 . S
C53 O62 1.268 . S
O54 Sc44 2.105 1_556 S
O54 C48 1.268 . S
O55 Sc45 2.105 1_556 S
O55 C49 1.268 . S
O56 Sc46 2.105 1_556 S
O56 C50 1.268 . S
O57 Sc44 2.105 . S
O57 C51 1.268 . S
O58 Sc46 2.105 . S
O58 C52 1.268 . S
O59 Sc45 2.105 . S
O59 C53 1.268 . S
O60 Sc44 2.105 . S
O60 C52 1.268 . S
O61 Sc45 2.105 . S
O61 C51 1.268 . S
O62 Sc46 2.105 . S
O62 C53 1.268 . S
O63 Sc44 2.105 1_556 S
O63 C49 1.268 . S
O64 Sc46 2.105 1_556 S
O64 C48 1.268 . S
O65 Sc45 2.105 1_556 S
O65 C50 1.268 . S
Sc66 O69 2.025 . S
Sc66 O76 2.105 1_554 S
Sc66 O79 2.105 . S
Sc66 O82 2.105 . S
Sc66 O85 2.105 1_554 S
Sc67 O69 2.025 . S
Sc67 O77 2.105 1_554 S
Sc67 O81 2.105 . S
Sc67 O83 2.105 . S
Sc67 O87 2.105 1_554 S
Sc68 O69 2.025 . S
Sc68 O78 2.105 1_554 S
Sc68 O80 2.105 . S
Sc68 O84 2.105 . S
Sc68 O86 2.105 1_554 S
O69 Sc66 2.025 . S
O69 Sc67 2.025 . S
O69 Sc68 2.025 . S
C70 O76 1.268 . S
C70 O86 1.268 . S
C71 O77 1.268 . S
C71 O85 1.268 . S
C72 O78 1.268 . S
C72 O87 1.268 . S
C73 O79 1.268 . S
C73 O83 1.268 . S
C74 O80 1.268 . S
C74 O82 1.268 . S
C75 O81 1.268 . S
C75 O84 1.268 . S
O76 Sc66 2.105 1_556 S
O76 C70 1.268 . S
O77 Sc67 2.105 1_556 S
O77 C71 1.268 . S
O78 Sc68 2.105 1_556 S
O78 C72 1.268 . S
O79 Sc66 2.105 . S
O79 C73 1.268 . S
O80 Sc68 2.105 . S
O80 C74 1.268 . S
O81 Sc67 2.105 . S
O81 C75 1.268 . S
O82 Sc66 2.105 . S
O82 C74 1.268 . S
O83 Sc67 2.105 . S
O83 C73 1.268 . S
O84 Sc68 2.105 . S
O84 C75 1.268 . S
O85 Sc66 2.105 1_556 S
O85 C71 1.268 . S
O86 Sc68 2.105 1_556 S
O86 C70 1.268 . S
O87 Sc67 2.105 1_556 S
O87 C72 1.268 . S
Sc88 O91 2.025 . S
Sc88 O98 2.105 . S
Sc88 O101 2.105 . S
Sc88 O104 2.105 . S
Sc88 O107 2.105 . S
Sc89 O91 2.025 . S
Sc89 O99 2.105 . S
Sc89 O103 2.105 . S
Sc89 O105 2.105 . S
Sc89 O109 2.105 . S
Sc90 O91 2.025 . S
Sc90 O100 2.105 . S
Sc90 O102 2.105 . S
Sc90 O106 2.105 . S
Sc90 O108 2.105 . S
O91 Sc88 2.025 . S
O91 Sc89 2.025 . S
O91 Sc90 2.025 . S
C92 O98 1.268 . S
C92 O108 1.268 . S
C93 O99 1.268 . S
C93 O107 1.268 . S
C94 O100 1.268 . S
C94 O109 1.268 . S
C95 O101 1.268 . S
C95 O105 1.268 . S
C96 O102 1.268 . S
C96 O104 1.268 . S
C97 O103 1.268 . S
C97 O106 1.268 . S
O98 Sc88 2.105 . S
O98 C92 1.268 . S
O99 Sc89 2.105 . S
O99 C93 1.268 . S
O100 Sc90 2.105 . S
O100 C94 1.268 . S
O101 Sc88 2.105 . S
O101 C95 1.268 . S
O102 Sc90 2.105 . S
O102 C96 1.268 . S
O103 Sc89 2.105 . S
O103 C97 1.268 . S
O104 Sc88 2.105 . S
O104 C96 1.268 . S
O105 Sc89 2.105 . S
O105 C95 1.268 . S
O106 Sc90 2.105 . S
O106 C97 1.268 . S
O107 Sc88 2.105 . S
O107 C93 1.268 . S
O108 Sc90 2.105 . S
O108 C92 1.268 . S
O109 Sc89 2.105 . S
O109 C94 1.268 . S
Sc110 O113 2.025 . S
Sc110 O120 2.105 . S
Sc110 O123 2.105 . S
Sc110 O126 2.105 . S
Sc110 O129 2.105 . S
Sc111 O113 2.025 . S
Sc111 O121 2.105 . S
Sc111 O125 2.105 . S
Sc111 O127 2.105 . S
Sc111 O131 2.105 . S
Sc112 O113 2.025 . S
Sc112 O122 2.105 . S
Sc112 O124 2.105 . S
Sc112 O128 2.105 . S
Sc112 O130 2.105 . S
O113 Sc110 2.025 . S
O113 Sc111 2.025 . S
O113 Sc112 2.025 . S
C114 O120 1.268 . S
C114 O130 1.268 . S
C115 O121 1.268 . S
C115 O129 1.268 . S
C116 O122 1.268 . S
C116 O131 1.268 . S
C117 O123 1.268 . S
C117 O127 1.268 . S
C118 O124 1.268 . S
C118 O126 1.268 . S
C119 O125 1.268 . S
C119 O128 1.268 . S
O120 Sc110 2.105 . S
O120 C114 1.268 . S
O121 Sc111 2.105 . S
O121 C115 1.268 . S
O122 Sc112 2.105 . S
O122 C116 1.268 . S
O123 Sc110 2.105 . S
O123 C117 1.268 . S
O124 Sc112 2.105 . S
O124 C118 1.268 . S
O125 Sc111 2.105 . S
O125 C119 1.268 . S
O126 Sc110 2.105 . S
O126 C118 1.268 . S
O127 Sc111 2.105 . S
O127 C117 1.268 . S
O128 Sc112 2.105 . S
O128 C119 1.268 . S
O129 Sc110 2.105 . S
O129 C115 1.268 . S
O130 Sc112 2.105 . S
O130 C114 1.268 . S
O131 Sc111 2.105 . S
O131 C116 1.268 . S
Sc132 O135 2.025 . S
Sc132 O142 2.105 . S
Sc132 O145 2.105 . S
Sc132 O148 2.105 . S
Sc132 O151 2.105 . S
Sc133 O135 2.025 . S
Sc133 O143 2.105 . S
Sc133 O147 2.105 . S
Sc133 O149 2.105 . S
Sc133 O153 2.105 . S
Sc134 O135 2.025 . S
Sc134 O144 2.105 . S
Sc134 O146 2.105 . S
Sc134 O150 2.105 . S
Sc134 O152 2.105 . S
O135 Sc132 2.025 . S
O135 Sc133 2.025 . S
O135 Sc134 2.025 . S
C136 O142 1.268 . S
C136 O152 1.268 . S
C137 O143 1.268 . S
C137 O151 1.268 . S
C138 O144 1.268 . S
C138 O153 1.268 . S
C139 O145 1.268 . S
C139 O149 1.268 . S
C140 O146 1.268 . S
C140 O148 1.268 . S
C141 O147 1.268 . S
C141 O150 1.268 . S
O142 Sc132 2.105 . S
O142 C136 1.268 . S
O143 Sc133 2.105 . S
O143 C137 1.268 . S
O144 Sc134 2.105 . S
O144 C138 1.268 . S
O145 Sc132 2.105 . S
O145 C139 1.268 . S
O146 Sc134 2.105 . S
O146 C140 1.268 . S
O147 Sc133 2.105 . S
O147 C141 1.268 . S
O148 Sc132 2.105 . S
O148 C140 1.268 . S
O149 Sc133 2.105 . S
O149 C139 1.268 . S
O150 Sc134 2.105 . S
O150 C141 1.268 . S
O151 Sc132 2.105 . S
O151 C137 1.268 . S
O152 Sc134 2.105 . S
O152 C136 1.268 . S
O153 Sc133 2.105 . S
O153 C138 1.268 . S
Sc154 O157 2.025 . S
Sc154 O164 2.105 . S
Sc154 O167 2.105 . S
Sc154 O170 2.105 . S
Sc154 O173 2.105 . S
Sc155 O157 2.025 . S
Sc155 O165 2.105 . S
Sc155 O169 2.105 . S
Sc155 O171 2.105 . S
Sc155 O175 2.105 . S
Sc156 O157 2.025 . S
Sc156 O166 2.105 . S
Sc156 O168 2.105 . S
Sc156 O172 2.105 . S
Sc156 O174 2.105 . S
O157 Sc154 2.025 . S
O157 Sc155 2.025 . S
O157 Sc156 2.025 . S
C158 O164 1.268 . S
C158 O174 1.268 . S
C159 O165 1.268 . S
C159 O173 1.268 . S
C160 O166 1.268 . S
C160 O175 1.268 . S
C161 O167 1.268 . S
C161 O171 1.268 . S
C162 O168 1.268 . S
C162 O170 1.268 . S
C163 O169 1.268 . S
C163 O172 1.268 . S
O164 Sc154 2.105 . S
O164 C158 1.268 . S
O165 Sc155 2.105 . S
O165 C159 1.268 . S
O166 Sc156 2.105 . S
O166 C160 1.268 . S
O167 Sc154 2.105 . S
O167 C161 1.268 . S
O168 Sc156 2.105 . S
O168 C162 1.268 . S
O169 Sc155 2.105 . S
O169 C163 1.268 . S
O170 Sc154 2.105 . S
O170 C162 1.268 . S
O171 Sc155 2.105 . S
O171 C161 1.268 . S
O172 Sc156 2.105 . S
O172 C163 1.268 . S
O173 Sc154 2.105 . S
O173 C159 1.268 . S
O174 Sc156 2.105 . S
O174 C158 1.268 . S
O175 Sc155 2.105 . S
O175 C160 1.268 . S
H176 C194 0.951 . S
H177 C196 0.951 . S
H178 C198 0.950 . S
H179 C199 0.950 . S
H180 C201 0.950 . S
H181 C204 0.950 . S
H182 C205 0.950 . S
H183 C207 0.950 . S
H184 C208 0.950 . S
H185 C209 0.951 . S
H186 C211 0.951 . S
H187 C213 0.950 . S
H188 C214 0.950 . S
H189 C216 0.950 . S
H190 C219 0.950 . S
H191 C220 0.950 . S
H192 C222 0.950 . S
H193 C223 0.950 . S
C194 H176 0.951 . S
C194 C195 1.366 . S
C194 C196 1.388 . S
C195 C194 1.366 . S
C195 C199 1.385 . S
C196 H177 0.951 . S
C196 C194 1.388 . S
C196 C197 1.366 . S
C197 C196 1.366 . S
C197 C198 1.414 . S
C197 C200 1.499 . S
C198 H178 0.950 . S
C198 C197 1.414 . S
C198 C199 1.374 . S
C199 H179 0.950 . S
C199 C195 1.385 . S
C199 C198 1.374 . S
C200 C197 1.499 . S
C200 C201 1.373 . S
C200 C202 1.389 . S
C201 H180 0.950 . S
C201 C200 1.373 . S
C201 C217 1.377 . S
C202 C200 1.389 . S
C202 C203 1.524 . S
C202 C216 1.377 . S
C203 C202 1.524 . S
C203 C204 1.397 . S
C203 C208 1.363 . S
C204 H181 0.950 . S
C204 C203 1.397 . S
C204 C205 1.334 . S
C205 H182 0.950 . S
C205 C204 1.334 . S
C205 C206 1.287 . S
C206 C205 1.287 . S
C206 C207 1.524 . S
C206 H225 0.913 . S
C207 H183 0.950 . S
C207 C206 1.524 . S
C207 C208 1.415 . S
C208 H184 0.950 . S
C208 C203 1.363 . S
C208 C207 1.415 . S
C209 H185 0.951 . S
C209 C210 1.366 . S
C209 C211 1.388 . S
C210 C209 1.366 . S
C210 C214 1.385 . S
C211 H186 0.951 . S
C211 C209 1.388 . S
C211 C212 1.366 . S
C212 C211 1.366 . S
C212 C213 1.414 . S
C212 C215 1.499 . S
C213 H187 0.950 . S
C213 C212 1.414 . S
C213 C214 1.374 . S
C214 H188 0.950 . S
C214 C210 1.385 . S
C214 C213 1.374 . S
C215 C212 1.499 . S
C215 C216 1.373 . S
C215 C217 1.389 . S
C216 H189 0.950 . S
C216 C202 1.377 . S
C216 C215 1.373 . S
C217 C201 1.377 . S
C217 C215 1.389 . S
C217 C218 1.524 . S
C218 C217 1.524 . S
C218 C219 1.397 . S
C218 C223 1.363 . S
C219 H190 0.950 . S
C219 C218 1.397 . S
C219 C220 1.334 . S
C220 H191 0.950 . S
C220 C219 1.334 . S
C220 C221 1.287 . S
C221 C220 1.287 . S
C221 C222 1.524 . S
C221 H224 0.999 . S
C222 H192 0.950 . S
C222 C221 1.524 . S
C222 C223 1.415 . S
C223 H193 0.950 . S
C223 C218 1.363 . S
C223 C222 1.415 . S
H224 C221 0.999 . S
H225 C206 0.913 . S
H226 C244 0.951 . S
H227 C246 0.951 . S
H228 C248 0.950 . S
H229 C249 0.950 . S
H230 C251 0.950 . S
H231 C254 0.950 . S
H232 C255 0.950 . S
H233 C257 0.950 . S
H234 C258 0.950 . S
H235 C259 0.951 . S
H236 C261 0.951 . S
H237 C263 0.950 . S
H238 C264 0.950 . S
H239 C266 0.950 . S
H240 C269 0.950 . S
H241 C270 0.950 . S
H242 C272 0.950 . S
H243 C273 0.950 . S
C244 H226 0.951 . S
C244 C245 1.366 . S
C244 C246 1.388 . S
C245 C244 1.366 . S
C245 C249 1.385 . S
C246 H227 0.951 . S
C246 C244 1.388 . S
C246 C247 1.366 . S
C247 C246 1.366 . S
C247 C248 1.414 . S
C247 C250 1.499 . S
C248 H228 0.950 . S
C248 C247 1.414 . S
C248 C249 1.374 . S
C249 H229 0.950 . S
C249 C245 1.385 . S
C249 C248 1.374 . S
C250 C247 1.499 . S
C250 C251 1.373 . S
C250 C252 1.389 . S
C251 H230 0.950 . S
C251 C250 1.373 . S
C251 C267 1.377 . S
C252 C250 1.389 . S
C252 C253 1.524 . S
C252 C266 1.377 . S
C253 C252 1.524 . S
C253 C254 1.397 . S
C253 C258 1.363 . S
C254 H231 0.950 . S
C254 C253 1.397 . S
C254 C255 1.334 . S
C255 H232 0.950 . S
C255 C254 1.334 . S
C255 C256 1.287 . S
C256 C255 1.287 . S
C256 C257 1.524 . S
C256 H275 0.913 . S
C257 H233 0.950 . S
C257 C256 1.524 . S
C257 C258 1.415 . S
C258 H234 0.950 . S
C258 C253 1.363 . S
C258 C257 1.415 . S
C259 H235 0.951 . S
C259 C260 1.366 . S
C259 C261 1.388 . S
C260 C259 1.366 . S
C260 C264 1.385 . S
C261 H236 0.951 . S
C261 C259 1.388 . S
C261 C262 1.366 . S
C262 C261 1.366 . S
C262 C263 1.414 . S
C262 C265 1.499 . S
C263 H237 0.950 . S
C263 C262 1.414 . S
C263 C264 1.374 . S
C264 H238 0.950 . S
C264 C260 1.385 . S
C264 C263 1.374 . S
C265 C262 1.499 . S
C265 C266 1.373 . S
C265 C267 1.389 . S
C266 H239 0.950 . S
C266 C252 1.377 . S
C266 C265 1.373 . S
C267 C251 1.377 . S
C267 C265 1.389 . S
C267 C268 1.524 . S
C268 C267 1.524 . S
C268 C269 1.397 . S
C268 C273 1.363 . S
C269 H240 0.950 . S
C269 C268 1.397 . S
C269 C270 1.334 . S
C270 H241 0.950 . S
C270 C269 1.334 . S
C270 C271 1.287 . S
C271 C270 1.287 . S
C271 C272 1.524 . S
C271 H274 0.999 . S
C272 H242 0.950 . S
C272 C271 1.524 . S
C272 C273 1.415 . S
C273 H243 0.950 . S
C273 C268 1.363 . S
C273 C272 1.415 . S
H274 C271 0.999 . S
H275 C256 0.913 . S
H276 C294 0.951 . S
H277 C296 0.951 . S
H278 C298 0.950 . S
H279 C299 0.950 . S
H280 C301 0.950 . S
H281 C304 0.950 . S
H282 C305 0.950 . S
H283 C307 0.950 . S
H284 C308 0.950 . S
H285 C309 0.951 . S
H286 C311 0.951 . S
H287 C313 0.950 . S
H288 C314 0.950 . S
H289 C316 0.950 . S
H290 C319 0.950 . S
H291 C320 0.950 . S
H292 C322 0.950 . S
H293 C323 0.950 . S
C294 H276 0.951 . S
C294 C295 1.366 . S
C294 C296 1.388 . S
C295 C294 1.366 . S
C295 C299 1.385 . S
C296 H277 0.951 . S
C296 C294 1.388 . S
C296 C297 1.366 . S
C297 C296 1.366 . S
C297 C298 1.414 . S
C297 C300 1.499 . S
C298 H278 0.950 . S
C298 C297 1.414 . S
C298 C299 1.374 . S
C299 H279 0.950 . S
C299 C295 1.385 . S
C299 C298 1.374 . S
C300 C297 1.499 . S
C300 C301 1.373 . S
C300 C302 1.389 . S
C301 H280 0.950 . S
C301 C300 1.373 . S
C301 C317 1.377 . S
C302 C300 1.389 . S
C302 C303 1.524 . S
C302 C316 1.377 . S
C303 C302 1.524 . S
C303 C304 1.397 . S
C303 C308 1.363 . S
C304 H281 0.950 . S
C304 C303 1.397 . S
C304 C305 1.334 . S
C305 H282 0.950 . S
C305 C304 1.334 . S
C305 C306 1.287 . S
C306 C305 1.287 . S
C306 C307 1.524 . S
C306 H325 0.913 . S
C307 H283 0.950 . S
C307 C306 1.524 . S
C307 C308 1.415 . S
C308 H284 0.950 . S
C308 C303 1.363 . S
C308 C307 1.415 . S
C309 H285 0.951 . S
C309 C310 1.366 . S
C309 C311 1.388 . S
C310 C309 1.366 . S
C310 C314 1.385 . S
C311 H286 0.951 . S
C311 C309 1.388 . S
C311 C312 1.366 . S
C312 C311 1.366 . S
C312 C313 1.414 . S
C312 C315 1.499 . S
C313 H287 0.950 . S
C313 C312 1.414 . S
C313 C314 1.374 . S
C314 H288 0.950 . S
C314 C310 1.385 . S
C314 C313 1.374 . S
C315 C312 1.499 . S
C315 C316 1.373 . S
C315 C317 1.389 . S
C316 H289 0.950 . S
C316 C302 1.377 . S
C316 C315 1.373 . S
C317 C301 1.377 . S
C317 C315 1.389 . S
C317 C318 1.524 . S
C318 C317 1.524 . S
C318 C319 1.397 . S
C318 C323 1.363 . S
C319 H290 0.950 . S
C319 C318 1.397 . S
C319 C320 1.334 . S
C320 H291 0.950 . S
C320 C319 1.334 . S
C320 C321 1.287 . S
C321 C320 1.287 . S
C321 C322 1.524 . S
C321 H324 0.999 . S
C322 H292 0.950 . S
C322 C321 1.524 . S
C322 C323 1.415 . S
C323 H293 0.950 . S
C323 C318 1.363 . S
C323 C322 1.415 . S
H324 C321 0.999 . S
H325 C306 0.913 . S
H326 C344 0.951 . S
H327 C346 0.951 . S
H328 C348 0.950 . S
H329 C349 0.950 . S
H330 C351 0.950 . S
H331 C354 0.950 . S
H332 C355 0.950 . S
H333 C357 0.950 . S
H334 C358 0.950 . S
H335 C359 0.951 . S
H336 C361 0.951 . S
H337 C363 0.950 . S
H338 C364 0.950 . S
H339 C366 0.950 . S
H340 C369 0.950 . S
H341 C370 0.950 . S
H342 C372 0.950 . S
H343 C373 0.950 . S
C344 H326 0.951 . S
C344 C345 1.366 . S
C344 C346 1.388 . S
C345 C344 1.366 . S
C345 C349 1.385 . S
C346 H327 0.951 . S
C346 C344 1.388 . S
C346 C347 1.366 . S
C347 C346 1.366 . S
C347 C348 1.414 . S
C347 C350 1.499 . S
C348 H328 0.950 . S
C348 C347 1.414 . S
C348 C349 1.374 . S
C349 H329 0.950 . S
C349 C345 1.385 . S
C349 C348 1.374 . S
C350 C347 1.499 . S
C350 C351 1.373 . S
C350 C352 1.389 . S
C351 H330 0.950 . S
C351 C350 1.373 . S
C351 C367 1.377 . S
C352 C350 1.389 . S
C352 C353 1.524 . S
C352 C366 1.377 . S
C353 C352 1.524 . S
C353 C354 1.397 . S
C353 C358 1.363 . S
C354 H331 0.950 . S
C354 C353 1.397 . S
C354 C355 1.334 . S
C355 H332 0.950 . S
C355 C354 1.334 . S
C355 C356 1.287 . S
C356 C355 1.287 . S
C356 C357 1.524 . S
C356 H375 0.913 . S
C357 H333 0.950 . S
C357 C356 1.524 . S
C357 C358 1.415 . S
C358 H334 0.950 . S
C358 C353 1.363 . S
C358 C357 1.415 . S
C359 H335 0.951 . S
C359 C360 1.366 . S
C359 C361 1.388 . S
C360 C359 1.366 . S
C360 C364 1.385 . S
C361 H336 0.951 . S
C361 C359 1.388 . S
C361 C362 1.366 . S
C362 C361 1.366 . S
C362 C363 1.414 . S
C362 C365 1.499 . S
C363 H337 0.950 . S
C363 C362 1.414 . S
C363 C364 1.374 . S
C364 H338 0.950 . S
C364 C360 1.385 . S
C364 C363 1.374 . S
C365 C362 1.499 . S
C365 C366 1.373 . S
C365 C367 1.389 . S
C366 H339 0.950 . S
C366 C352 1.377 . S
C366 C365 1.373 . S
C367 C351 1.377 . S
C367 C365 1.389 . S
C367 C368 1.524 . S
C368 C367 1.524 . S
C368 C369 1.397 . S
C368 C373 1.363 . S
C369 H340 0.950 . S
C369 C368 1.397 . S
C369 C370 1.334 . S
C370 H341 0.950 . S
C370 C369 1.334 . S
C370 C371 1.287 . S
C371 C370 1.287 . S
C371 C372 1.524 . S
C371 H374 0.999 . S
C372 H342 0.950 . S
C372 C371 1.524 . S
C372 C373 1.415 . S
C373 H343 0.950 . S
C373 C368 1.363 . S
C373 C372 1.415 . S
H374 C371 0.999 . S
H375 C356 0.913 . S
H376 C394 0.951 . S
H377 C396 0.951 . S
H378 C398 0.950 . S
H379 C399 0.950 . S
H380 C401 0.950 . S
H381 C404 0.950 . S
H382 C405 0.950 . S
H383 C407 0.950 . S
H384 C408 0.950 . S
H385 C409 0.951 . S
H386 C411 0.951 . S
H387 C413 0.950 . S
H388 C414 0.950 . S
H389 C416 0.950 . S
H390 C419 0.950 . S
H391 C420 0.950 . S
H392 C422 0.950 . S
H393 C423 0.950 . S
C394 H376 0.951 . S
C394 C395 1.366 . S
C394 C396 1.388 . S
C395 C394 1.366 . S
C395 C399 1.385 . S
C396 H377 0.951 . S
C396 C394 1.388 . S
C396 C397 1.366 . S
C397 C396 1.366 . S
C397 C398 1.414 . S
C397 C400 1.499 . S
C398 H378 0.950 . S
C398 C397 1.414 . S
C398 C399 1.374 . S
C399 H379 0.950 . S
C399 C395 1.385 . S
C399 C398 1.374 . S
C400 C397 1.499 . S
C400 C401 1.373 . S
C400 C402 1.389 . S
C401 H380 0.950 . S
C401 C400 1.373 . S
C401 C417 1.377 . S
C402 C400 1.389 . S
C402 C403 1.524 . S
C402 C416 1.377 . S
C403 C402 1.524 . S
C403 C404 1.397 . S
C403 C408 1.363 . S
C404 H381 0.950 . S
C404 C403 1.397 . S
C404 C405 1.334 . S
C405 H382 0.950 . S
C405 C404 1.334 . S
C405 C406 1.287 . S
C406 C405 1.287 . S
C406 C407 1.524 . S
C406 H425 0.913 . S
C407 H383 0.950 . S
C407 C406 1.524 . S
C407 C408 1.415 . S
C408 H384 0.950 . S
C408 C403 1.363 . S
C408 C407 1.415 . S
C409 H385 0.951 . S
C409 C410 1.366 . S
C409 C411 1.388 . S
C410 C409 1.366 . S
C410 C414 1.385 . S
C411 H386 0.951 . S
C411 C409 1.388 . S
C411 C412 1.366 . S
C412 C411 1.366 . S
C412 C413 1.414 . S
C412 C415 1.499 . S
C413 H387 0.950 . S
C413 C412 1.414 . S
C413 C414 1.374 . S
C414 H388 0.950 . S
C414 C410 1.385 . S
C414 C413 1.374 . S
C415 C412 1.499 . S
C415 C416 1.373 . S
C415 C417 1.389 . S
C416 H389 0.950 . S
C416 C402 1.377 . S
C416 C415 1.373 . S
C417 C401 1.377 . S
C417 C415 1.389 . S
C417 C418 1.524 . S
C418 C417 1.524 . S
C418 C419 1.397 . S
C418 C423 1.363 . S
C419 H390 0.950 . S
C419 C418 1.397 . S
C419 C420 1.334 . S
C420 H391 0.950 . S
C420 C419 1.334 . S
C420 C421 1.287 . S
C421 C420 1.287 . S
C421 C422 1.524 . S
C421 H424 0.999 . S
C422 H392 0.950 . S
C422 C421 1.524 . S
C422 C423 1.415 . S
C423 H393 0.950 . S
C423 C418 1.363 . S
C423 C422 1.415 . S
H424 C421 0.999 . S
H425 C406 0.913 . S
H426 C444 0.951 . S
H427 C446 0.951 . S
H428 C448 0.950 . S
H429 C449 0.950 . S
H430 C451 0.950 . S
H431 C454 0.950 . S
H432 C455 0.950 . S
H433 C457 0.950 . S
H434 C458 0.950 . S
H435 C459 0.951 . S
H436 C461 0.951 . S
H437 C463 0.950 . S
H438 C464 0.950 . S
H439 C466 0.950 . S
H440 C469 0.950 . S
H441 C470 0.950 . S
H442 C472 0.950 . S
H443 C473 0.950 . S
C444 H426 0.951 . S
C444 C445 1.366 . S
C444 C446 1.388 . S
C445 C444 1.366 . S
C445 C449 1.385 . S
C446 H427 0.951 . S
C446 C444 1.388 . S
C446 C447 1.366 . S
C447 C446 1.366 . S
C447 C448 1.414 . S
C447 C450 1.499 . S
C448 H428 0.950 . S
C448 C447 1.414 . S
C448 C449 1.374 . S
C449 H429 0.950 . S
C449 C445 1.385 . S
C449 C448 1.374 . S
C450 C447 1.499 . S
C450 C451 1.373 . S
C450 C452 1.389 . S
C451 H430 0.950 . S
C451 C450 1.373 . S
C451 C467 1.377 . S
C452 C450 1.389 . S
C452 C453 1.524 . S
C452 C466 1.377 . S
C453 C452 1.524 . S
C453 C454 1.397 . S
C453 C458 1.363 . S
C454 H431 0.950 . S
C454 C453 1.397 . S
C454 C455 1.334 . S
C455 H432 0.950 . S
C455 C454 1.334 . S
C455 C456 1.287 . S
C456 C455 1.287 . S
C456 C457 1.524 . S
C456 H475 0.913 . S
C457 H433 0.950 . S
C457 C456 1.524 . S
C457 C458 1.415 . S
C458 H434 0.950 . S
C458 C453 1.363 . S
C458 C457 1.415 . S
C459 H435 0.951 . S
C459 C460 1.366 . S
C459 C461 1.388 . S
C460 C459 1.366 . S
C460 C464 1.385 . S
C461 H436 0.951 . S
C461 C459 1.388 . S
C461 C462 1.366 . S
C462 C461 1.366 . S
C462 C463 1.414 . S
C462 C465 1.499 . S
C463 H437 0.950 . S
C463 C462 1.414 . S
C463 C464 1.374 . S
C464 H438 0.950 . S
C464 C460 1.385 . S
C464 C463 1.374 . S
C465 C462 1.499 . S
C465 C466 1.373 . S
C465 C467 1.389 . S
C466 H439 0.950 . S
C466 C452 1.377 . S
C466 C465 1.373 . S
C467 C451 1.377 . S
C467 C465 1.389 . S
C467 C468 1.524 . S
C468 C467 1.524 . S
C468 C469 1.397 . S
C468 C473 1.363 . S
C469 H440 0.950 . S
C469 C468 1.397 . S
C469 C470 1.334 . S
C470 H441 0.950 . S
C470 C469 1.334 . S
C470 C471 1.287 . S
C471 C470 1.287 . S
C471 C472 1.524 . S
C471 H474 0.999 . S
C472 H442 0.950 . S
C472 C471 1.524 . S
C472 C473 1.415 . S
C473 H443 0.950 . S
C473 C468 1.363 . S
C473 C472 1.415 . S
H474 C471 0.999 . S
H475 C456 0.913 . S
H476 C494 0.951 . S
H477 C496 0.951 . S
H478 C498 0.950 . S
H479 C499 0.950 . S
H480 C501 0.950 . S
H481 C504 0.950 . S
H482 C505 0.950 . S
H483 C507 0.950 . S
H484 C508 0.950 . S
H485 C509 0.951 . S
H486 C511 0.951 . S
H487 C513 0.950 . S
H488 C514 0.950 . S
H489 C516 0.950 . S
H490 C519 0.950 . S
H491 C520 0.950 . S
H492 C522 0.950 . S
H493 C523 0.950 . S
C494 H476 0.951 . S
C494 C495 1.366 . S
C494 C496 1.388 . S
C495 C494 1.366 . S
C495 C499 1.385 . S
C496 H477 0.951 . S
C496 C494 1.388 . S
C496 C497 1.366 . S
C497 C496 1.366 . S
C497 C498 1.414 . S
C497 C500 1.499 . S
C498 H478 0.950 . S
C498 C497 1.414 . S
C498 C499 1.374 . S
C499 H479 0.950 . S
C499 C495 1.385 . S
C499 C498 1.374 . S
C500 C497 1.499 . S
C500 C501 1.373 . S
C500 C502 1.389 . S
C501 H480 0.950 . S
C501 C500 1.373 . S
C501 C517 1.377 . S
C502 C500 1.389 . S
C502 C503 1.524 . S
C502 C516 1.377 . S
C503 C502 1.524 . S
C503 C504 1.397 . S
C503 C508 1.363 . S
C504 H481 0.950 . S
C504 C503 1.397 . S
C504 C505 1.334 . S
C505 H482 0.950 . S
C505 C504 1.334 . S
C505 C506 1.287 . S
C506 C505 1.287 . S
C506 C507 1.524 . S
C506 H525 0.913 . S
C507 H483 0.950 . S
C507 C506 1.524 . S
C507 C508 1.415 . S
C508 H484 0.950 . S
C508 C503 1.363 . S
C508 C507 1.415 . S
C509 H485 0.951 . S
C509 C510 1.366 . S
C509 C511 1.388 . S
C510 C509 1.366 . S
C510 C514 1.385 . S
C511 H486 0.951 . S
C511 C509 1.388 . S
C511 C512 1.366 . S
C512 C511 1.366 . S
C512 C513 1.414 . S
C512 C515 1.499 . S
C513 H487 0.950 . S
C513 C512 1.414 . S
C513 C514 1.374 . S
C514 H488 0.950 . S
C514 C510 1.385 . S
C514 C513 1.374 . S
C515 C512 1.499 . S
C515 C516 1.373 . S
C515 C517 1.389 . S
C516 H489 0.950 . S
C516 C502 1.377 . S
C516 C515 1.373 . S
C517 C501 1.377 . S
C517 C515 1.389 . S
C517 C518 1.524 . S
C518 C517 1.524 . S
C518 C519 1.397 . S
C518 C523 1.363 . S
C519 H490 0.950 . S
C519 C518 1.397 . S
C519 C520 1.334 . S
C520 H491 0.950 . S
C520 C519 1.334 . S
C520 C521 1.287 . S
C521 C520 1.287 . S
C521 C522 1.524 . S
C521 H524 0.999 . S
C522 H492 0.950 . S
C522 C521 1.524 . S
C522 C523 1.415 . S
C523 H493 0.950 . S
C523 C518 1.363 . S
C523 C522 1.415 . S
H524 C521 0.999 . S
H525 C506 0.913 . S
H526 C544 0.951 . S
H527 C546 0.951 . S
H528 C548 0.950 . S
H529 C549 0.950 . S
H530 C551 0.950 . S
H531 C554 0.950 . S
H532 C555 0.950 . S
H533 C557 0.950 . S
H534 C558 0.950 . S
H535 C559 0.951 . S
H536 C561 0.951 . S
H537 C563 0.950 . S
H538 C564 0.950 . S
H539 C566 0.950 . S
H540 C569 0.950 . S
H541 C570 0.950 . S
H542 C572 0.950 . S
H543 C573 0.950 . S
C544 H526 0.951 . S
C544 C545 1.366 . S
C544 C546 1.388 . S
C545 C544 1.366 . S
C545 C549 1.385 . S
C546 H527 0.951 . S
C546 C544 1.388 . S
C546 C547 1.366 . S
C547 C546 1.366 . S
C547 C548 1.414 . S
C547 C550 1.499 . S
C548 H528 0.950 . S
C548 C547 1.414 . S
C548 C549 1.374 . S
C549 H529 0.950 . S
C549 C545 1.385 . S
C549 C548 1.374 . S
C550 C547 1.499 . S
C550 C551 1.373 . S
C550 C552 1.389 . S
C551 H530 0.950 . S
C551 C550 1.373 . S
C551 C567 1.377 . S
C552 C550 1.389 . S
C552 C553 1.524 . S
C552 C566 1.377 . S
C553 C552 1.524 . S
C553 C554 1.397 . S
C553 C558 1.363 . S
C554 H531 0.950 . S
C554 C553 1.397 . S
C554 C555 1.334 . S
C555 H532 0.950 . S
C555 C554 1.334 . S
C555 C556 1.287 . S
C556 C555 1.287 . S
C556 C557 1.524 . S
C556 H575 0.913 . S
C557 H533 0.950 . S
C557 C556 1.524 . S
C557 C558 1.415 . S
C558 H534 0.950 . S
C558 C553 1.363 . S
C558 C557 1.415 . S
C559 H535 0.951 . S
C559 C560 1.366 . S
C559 C561 1.388 . S
C560 C559 1.366 . S
C560 C564 1.385 . S
C561 H536 0.951 . S
C561 C559 1.388 . S
C561 C562 1.366 . S
C562 C561 1.366 . S
C562 C563 1.414 . S
C562 C565 1.499 . S
C563 H537 0.950 . S
C563 C562 1.414 . S
C563 C564 1.374 . S
C564 H538 0.950 . S
C564 C560 1.385 . S
C564 C563 1.374 . S
C565 C562 1.499 . S
C565 C566 1.373 . S
C565 C567 1.389 . S
C566 H539 0.950 . S
C566 C552 1.377 . S
C566 C565 1.373 . S
C567 C551 1.377 . S
C567 C565 1.389 . S
C567 C568 1.524 . S
C568 C567 1.524 . S
C568 C569 1.397 . S
C568 C573 1.363 . S
C569 H540 0.950 . S
C569 C568 1.397 . S
C569 C570 1.334 . S
C570 H541 0.950 . S
C570 C569 1.334 . S
C570 C571 1.287 . S
C571 C570 1.287 . S
C571 C572 1.524 . S
C571 H574 0.999 . S
C572 H542 0.950 . S
C572 C571 1.524 . S
C572 C573 1.415 . S
C573 H543 0.950 . S
C573 C568 1.363 . S
C573 C572 1.415 . S
H574 C571 0.999 . S
H575 C556 0.913 . S
H576 C594 0.951 . S
H577 C596 0.951 . S
H578 C598 0.950 . S
H579 C599 0.950 . S
H580 C601 0.950 . S
H581 C604 0.950 . S
H582 C605 0.950 . S
H583 C607 0.950 . S
H584 C608 0.950 . S
H585 C609 0.951 . S
H586 C611 0.951 . S
H587 C613 0.950 . S
H588 C614 0.950 . S
H589 C616 0.950 . S
H590 C619 0.950 . S
H591 C620 0.950 . S
H592 C622 0.950 . S
H593 C623 0.950 . S
C594 H576 0.951 . S
C594 C595 1.366 . S
C594 C596 1.388 . S
C595 C594 1.366 . S
C595 C599 1.385 . S
C596 H577 0.951 . S
C596 C594 1.388 . S
C596 C597 1.366 . S
C597 C596 1.366 . S
C597 C598 1.414 . S
C597 C600 1.499 . S
C598 H578 0.950 . S
C598 C597 1.414 . S
C598 C599 1.374 . S
C599 H579 0.950 . S
C599 C595 1.385 . S
C599 C598 1.374 . S
C600 C597 1.499 . S
C600 C601 1.373 . S
C600 C602 1.389 . S
C601 H580 0.950 . S
C601 C600 1.373 . S
C601 C617 1.377 1_655 S
C602 C600 1.389 . S
C602 C603 1.524 . S
C602 C616 1.377 1_655 S
C603 C602 1.524 . S
C603 C604 1.397 . S
C603 C608 1.363 1_655 S
C604 H581 0.950 . S
C604 C603 1.397 . S
C604 C605 1.334 . S
C605 H582 0.950 . S
C605 C604 1.334 . S
C605 C606 1.287 . S
C606 C605 1.287 . S
C606 C607 1.524 1_655 S
C606 H625 0.913 . S
C607 H583 0.950 . S
C607 C606 1.524 1_455 S
C607 C608 1.415 . S
C608 H584 0.950 . S
C608 C603 1.363 1_455 S
C608 C607 1.415 . S
C609 H585 0.951 . S
C609 C610 1.366 . S
C609 C611 1.388 . S
C610 C609 1.366 . S
C610 C614 1.385 . S
C611 H586 0.951 . S
C611 C609 1.388 . S
C611 C612 1.366 . S
C612 C611 1.366 . S
C612 C613 1.414 . S
C612 C615 1.499 . S
C613 H587 0.950 . S
C613 C612 1.414 . S
C613 C614 1.374 . S
C614 H588 0.950 . S
C614 C610 1.385 . S
C614 C613 1.374 . S
C615 C612 1.499 . S
C615 C616 1.373 . S
C615 C617 1.389 . S
C616 H589 0.950 . S
C616 C602 1.377 1_455 S
C616 C615 1.373 . S
C617 C601 1.377 1_455 S
C617 C615 1.389 . S
C617 C618 1.524 . S
C618 C617 1.524 . S
C618 C619 1.397 . S
C618 C623 1.363 1_455 S
C619 H590 0.950 . S
C619 C618 1.397 . S
C619 C620 1.334 . S
C620 H591 0.950 . S
C620 C619 1.334 . S
C620 C621 1.287 . S
C621 C620 1.287 . S
C621 C622 1.524 1_455 S
C621 H624 0.999 . S
C622 H592 0.950 . S
C622 C621 1.524 1_655 S
C622 C623 1.415 . S
C623 H593 0.950 . S
C623 C618 1.363 1_655 S
C623 C622 1.415 . S
H624 C621 0.999 . S
H625 C606 0.913 . S
H626 C644 0.951 . S
H627 C646 0.951 . S
H628 C648 0.950 . S
H629 C649 0.950 . S
H630 C651 0.950 . S
H631 C654 0.950 . S
H632 C655 0.950 . S
H633 C657 0.950 . S
H634 C658 0.950 . S
H635 C659 0.951 . S
H636 C661 0.951 . S
H637 C663 0.950 . S
H638 C664 0.950 . S
H639 C666 0.950 . S
H640 C669 0.950 . S
H641 C670 0.950 . S
H642 C672 0.950 . S
H643 C673 0.950 . S
C644 H626 0.951 . S
C644 C645 1.366 . S
C644 C646 1.388 . S
C645 C644 1.366 . S
C645 C649 1.385 . S
C646 H627 0.951 . S
C646 C644 1.388 . S
C646 C647 1.366 . S
C647 C646 1.366 . S
C647 C648 1.414 . S
C647 C650 1.499 . S
C648 H628 0.950 . S
C648 C647 1.414 . S
C648 C649 1.374 . S
C649 H629 0.950 . S
C649 C645 1.385 . S
C649 C648 1.374 . S
C650 C647 1.499 . S
C650 C651 1.373 1_545 S
C650 C652 1.389 . S
C651 H630 0.950 . S
C651 C650 1.373 1_565 S
C651 C667 1.377 . S
C652 C650 1.389 . S
C652 C653 1.524 . S
C652 C666 1.377 . S
C653 C652 1.524 . S
C653 C654 1.397 . S
C653 C658 1.363 . S
C654 H631 0.950 . S
C654 C653 1.397 . S
C654 C655 1.334 . S
C655 H632 0.950 . S
C655 C654 1.334 . S
C655 C656 1.287 . S
C656 C655 1.287 . S
C656 C657 1.524 . S
C656 H675 0.913 . S
C657 H633 0.950 . S
C657 C656 1.524 . S
C657 C658 1.415 . S
C658 H634 0.950 . S
C658 C653 1.363 . S
C658 C657 1.415 . S
C659 H635 0.951 . S
C659 C660 1.366 . S
C659 C661 1.388 . S
C660 C659 1.366 . S
C660 C664 1.385 . S
C661 H636 0.951 . S
C661 C659 1.388 . S
C661 C662 1.366 . S
C662 C661 1.366 . S
C662 C663 1.414 . S
C662 C665 1.499 . S
C663 H637 0.950 . S
C663 C662 1.414 . S
C663 C664 1.374 . S
C664 H638 0.950 . S
C664 C660 1.385 . S
C664 C663 1.374 . S
C665 C662 1.499 . S
C665 C666 1.373 1_565 S
C665 C667 1.389 . S
C666 H639 0.950 . S
C666 C652 1.377 . S
C666 C665 1.373 1_545 S
C667 C651 1.377 . S
C667 C665 1.389 . S
C667 C668 1.524 . S
C668 C667 1.524 . S
C668 C669 1.397 . S
C668 C673 1.363 . S
C669 H640 0.950 . S
C669 C668 1.397 . S
C669 C670 1.334 . S
C670 H641 0.950 . S
C670 C669 1.334 . S
C670 C671 1.287 . S
C671 C670 1.287 . S
C671 C672 1.524 . S
C671 H674 0.999 . S
C672 H642 0.950 . S
C672 C671 1.524 . S
C672 C673 1.415 . S
C673 H643 0.950 . S
C673 C668 1.363 . S
C673 C672 1.415 . S
H674 C671 0.999 . S
H675 C656 0.913 . S
H676 C694 0.951 . S
H677 C696 0.951 . S
H678 C698 0.950 . S
H679 C699 0.950 . S
H680 C701 0.950 . S
H681 C704 0.950 . S
H682 C705 0.950 . S
H683 C707 0.950 . S
H684 C708 0.950 . S
H685 C709 0.951 . S
H686 C711 0.951 . S
H687 C713 0.950 . S
H688 C714 0.950 . S
H689 C716 0.950 . S
H690 C719 0.950 . S
H691 C720 0.950 . S
H692 C722 0.950 . S
H693 C723 0.950 . S
C694 H676 0.951 . S
C694 C695 1.366 . S
C694 C696 1.388 . S
C695 C694 1.366 . S
C695 C699 1.385 . S
C696 H677 0.951 . S
C696 C694 1.388 . S
C696 C697 1.366 . S
C697 C696 1.366 . S
C697 C698 1.414 . S
C697 C700 1.499 . S
C698 H678 0.950 . S
C698 C697 1.414 . S
C698 C699 1.374 . S
C699 H679 0.950 . S
C699 C695 1.385 . S
C699 C698 1.374 . S
C700 C697 1.499 . S
C700 C701 1.373 . S
C700 C702 1.389 1_655 S
C701 H680 0.950 . S
C701 C700 1.373 . S
C701 C717 1.377 . S
C702 C700 1.389 1_455 S
C702 C703 1.524 . S
C702 C716 1.377 . S
C703 C702 1.524 . S
C703 C704 1.397 1_455 S
C703 C708 1.363 . S
C704 H681 0.950 . S
C704 C703 1.397 1_655 S
C704 C705 1.334 . S
C705 H682 0.950 . S
C705 C704 1.334 . S
C705 C706 1.287 1_655 S
C706 C705 1.287 1_455 S
C706 C707 1.524 . S
C706 H725 0.913 . S
C707 H683 0.950 . S
C707 C706 1.524 . S
C707 C708 1.415 . S
C708 H684 0.950 . S
C708 C703 1.363 . S
C708 C707 1.415 . S
C709 H685 0.951 . S
C709 C710 1.366 . S
C709 C711 1.388 . S
C710 C709 1.366 . S
C710 C714 1.385 . S
C711 H686 0.951 . S
C711 C709 1.388 . S
C711 C712 1.366 . S
C712 C711 1.366 . S
C712 C713 1.414 . S
C712 C715 1.499 . S
C713 H687 0.950 . S
C713 C712 1.414 . S
C713 C714 1.374 . S
C714 H688 0.950 . S
C714 C710 1.385 . S
C714 C713 1.374 . S
C715 C712 1.499 . S
C715 C716 1.373 . S
C715 C717 1.389 1_455 S
C716 H689 0.950 . S
C716 C702 1.377 . S
C716 C715 1.373 . S
C717 C701 1.377 . S
C717 C715 1.389 1_655 S
C717 C718 1.524 . S
C718 C717 1.524 . S
C718 C719 1.397 1_655 S
C718 C723 1.363 . S
C719 H690 0.950 . S
C719 C718 1.397 1_455 S
C719 C720 1.334 . S
C720 H691 0.950 . S
C720 C719 1.334 . S
C720 C721 1.287 1_455 S
C721 C720 1.287 1_655 S
C721 C722 1.524 . S
C721 H724 0.999 . S
C722 H692 0.950 . S
C722 C721 1.524 . S
C722 C723 1.415 . S
C723 H693 0.950 . S
C723 C718 1.363 . S
C723 C722 1.415 . S
H724 C721 0.999 . S
H725 C706 0.913 . S
H726 C744 0.951 . S
H727 C746 0.951 . S
H728 C748 0.950 . S
H729 C749 0.950 . S
H730 C751 0.950 . S
H731 C754 0.950 . S
H732 C755 0.950 . S
H733 C757 0.950 . S
H734 C758 0.950 . S
H735 C759 0.951 . S
H736 C761 0.951 . S
H737 C763 0.950 . S
H738 C764 0.950 . S
H739 C766 0.950 . S
H740 C769 0.950 . S
H741 C770 0.950 . S
H742 C772 0.950 . S
H743 C773 0.950 . S
C744 H726 0.951 . S
C744 C745 1.366 . S
C744 C746 1.388 . S
C745 C744 1.366 . S
C745 C749 1.385 . S
C746 H727 0.951 . S
C746 C744 1.388 . S
C746 C747 1.366 . S
C747 C746 1.366 . S
C747 C748 1.414 . S
C747 C750 1.499 . S
C748 H728 0.950 . S
C748 C747 1.414 . S
C748 C749 1.374 . S
C749 H729 0.950 . S
C749 C745 1.385 . S
C749 C748 1.374 . S
C750 C747 1.499 . S
C750 C751 1.373 . S
C750 C752 1.389 . S
C751 H730 0.950 . S
C751 C750 1.373 . S
C751 C767 1.377 1_545 S
C752 C750 1.389 . S
C752 C753 1.524 . S
C752 C766 1.377 1_545 S
C753 C752 1.524 . S
C753 C754 1.397 . S
C753 C758 1.363 . S
C754 H731 0.950 . S
C754 C753 1.397 . S
C754 C755 1.334 . S
C755 H732 0.950 . S
C755 C754 1.334 . S
C755 C756 1.287 . S
C756 C755 1.287 . S
C756 C757 1.524 . S
C756 H775 0.913 . S
C757 H733 0.950 . S
C757 C756 1.524 . S
C757 C758 1.415 . S
C758 H734 0.950 . S
C758 C753 1.363 . S
C758 C757 1.415 . S
C759 H735 0.951 . S
C759 C760 1.366 . S
C759 C761 1.388 . S
C760 C759 1.366 . S
C760 C764 1.385 . S
C761 H736 0.951 . S
C761 C759 1.388 . S
C761 C762 1.366 . S
C762 C761 1.366 . S
C762 C763 1.414 . S
C762 C765 1.499 . S
C763 H737 0.950 . S
C763 C762 1.414 . S
C763 C764 1.374 . S
C764 H738 0.950 . S
C764 C760 1.385 . S
C764 C763 1.374 . S
C765 C762 1.499 . S
C765 C766 1.373 . S
C765 C767 1.389 . S
C766 H739 0.950 . S
C766 C752 1.377 1_565 S
C766 C765 1.373 . S
C767 C751 1.377 1_565 S
C767 C765 1.389 . S
C767 C768 1.524 . S
C768 C767 1.524 . S
C768 C769 1.397 . S
C768 C773 1.363 . S
C769 H740 0.950 . S
C769 C768 1.397 . S
C769 C770 1.334 . S
C770 H741 0.950 . S
C770 C769 1.334 . S
C770 C771 1.287 . S
C771 C770 1.287 . S
C771 C772 1.524 . S
C771 H774 0.999 . S
C772 H742 0.950 . S
C772 C771 1.524 . S
C772 C773 1.415 . S
C773 H743 0.950 . S
C773 C768 1.363 . S
C773 C772 1.415 . S
H774 C771 0.999 . S
H775 C756 0.913 . S
H776 C794 0.951 . S
H777 C796 0.951 . S
H778 C798 0.950 . S
H779 C799 0.950 . S
H780 C801 0.950 . S
H781 C804 0.950 . S
H782 C805 0.950 . S
H783 C807 0.950 . S
H784 C808 0.950 . S
H785 C809 0.951 . S
H786 C811 0.951 . S
H787 C813 0.950 . S
H788 C814 0.950 . S
H789 C816 0.950 . S
H790 C819 0.950 . S
H791 C820 0.950 . S
H792 C822 0.950 . S
H793 C823 0.950 . S
C794 H776 0.951 . S
C794 C795 1.366 . S
C794 C796 1.388 . S
C795 C794 1.366 . S
C795 C799 1.385 . S
C796 H777 0.951 . S
C796 C794 1.388 . S
C796 C797 1.366 . S
C797 C796 1.366 . S
C797 C798 1.414 . S
C797 C800 1.499 . S
C798 H778 0.950 . S
C798 C797 1.414 . S
C798 C799 1.374 . S
C799 H779 0.950 . S
C799 C795 1.385 . S
C799 C798 1.374 . S
C800 C797 1.499 . S
C800 C801 1.373 . S
C800 C802 1.389 . S
C801 H780 0.950 . S
C801 C800 1.373 . S
C801 C817 1.377 1_455 S
C802 C800 1.389 . S
C802 C803 1.524 . S
C802 C816 1.377 1_455 S
C803 C802 1.524 . S
C803 C804 1.397 . S
C803 C808 1.363 . S
C804 H781 0.950 . S
C804 C803 1.397 . S
C804 C805 1.334 . S
C805 H782 0.950 . S
C805 C804 1.334 . S
C805 C806 1.287 . S
C806 C805 1.287 . S
C806 C807 1.524 . S
C806 H825 0.913 . S
C807 H783 0.950 . S
C807 C806 1.524 . S
C807 C808 1.415 . S
C808 H784 0.950 . S
C808 C803 1.363 . S
C808 C807 1.415 . S
C809 H785 0.951 . S
C809 C810 1.366 . S
C809 C811 1.388 . S
C810 C809 1.366 . S
C810 C814 1.385 . S
C811 H786 0.951 . S
C811 C809 1.388 . S
C811 C812 1.366 . S
C812 C811 1.366 . S
C812 C813 1.414 . S
C812 C815 1.499 . S
C813 H787 0.950 . S
C813 C812 1.414 . S
C813 C814 1.374 . S
C814 H788 0.950 . S
C814 C810 1.385 . S
C814 C813 1.374 . S
C815 C812 1.499 . S
C815 C816 1.373 . S
C815 C817 1.389 . S
C816 H789 0.950 . S
C816 C802 1.377 1_655 S
C816 C815 1.373 . S
C817 C801 1.377 1_655 S
C817 C815 1.389 . S
C817 C818 1.524 . S
C818 C817 1.524 . S
C818 C819 1.397 . S
C818 C823 1.363 . S
C819 H790 0.950 . S
C819 C818 1.397 . S
C819 C820 1.334 . S
C820 H791 0.950 . S
C820 C819 1.334 . S
C820 C821 1.287 . S
C821 C820 1.287 . S
C821 C822 1.524 . S
C821 H824 0.999 . S
C822 H792 0.950 . S
C822 C821 1.524 . S
C822 C823 1.415 . S
C823 H793 0.950 . S
C823 C818 1.363 . S
C823 C822 1.415 . S
H824 C821 0.999 . S
H825 C806 0.913 . S
H826 C844 0.951 . S
H827 C846 0.951 . S
H828 C848 0.950 . S
H829 C849 0.950 . S
H830 C851 0.950 . S
H831 C854 0.950 . S
H832 C855 0.950 . S
H833 C857 0.950 . S
H834 C858 0.950 . S
H835 C859 0.951 . S
H836 C861 0.951 . S
H837 C863 0.950 . S
H838 C864 0.950 . S
H839 C866 0.950 . S
H840 C869 0.950 . S
H841 C870 0.950 . S
H842 C872 0.950 . S
H843 C873 0.950 . S
C844 H826 0.951 . S
C844 C845 1.366 . S
C844 C846 1.388 . S
C845 C844 1.366 . S
C845 C849 1.385 . S
C846 H827 0.951 . S
C846 C844 1.388 . S
C846 C847 1.366 . S
C847 C846 1.366 . S
C847 C848 1.414 . S
C847 C850 1.499 . S
C848 H828 0.950 . S
C848 C847 1.414 . S
C848 C849 1.374 . S
C849 H829 0.950 . S
C849 C845 1.385 . S
C849 C848 1.374 . S
C850 C847 1.499 . S
C850 C851 1.373 . S
C850 C852 1.389 1_565 S
C851 H830 0.950 . S
C851 C850 1.373 . S
C851 C867 1.377 . S
C852 C850 1.389 1_545 S
C852 C853 1.524 . S
C852 C866 1.377 . S
C853 C852 1.524 . S
C853 C854 1.397 . S
C853 C858 1.363 . S
C854 H831 0.950 . S
C854 C853 1.397 . S
C854 C855 1.334 . S
C855 H832 0.950 . S
C855 C854 1.334 . S
C855 C856 1.287 . S
C856 C855 1.287 . S
C856 C857 1.524 . S
C856 H875 0.913 . S
C857 H833 0.950 . S
C857 C856 1.524 . S
C857 C858 1.415 . S
C858 H834 0.950 . S
C858 C853 1.363 . S
C858 C857 1.415 . S
C859 H835 0.951 . S
C859 C860 1.366 . S
C859 C861 1.388 . S
C860 C859 1.366 . S
C860 C864 1.385 . S
C861 H836 0.951 . S
C861 C859 1.388 . S
C861 C862 1.366 . S
C862 C861 1.366 . S
C862 C863 1.414 . S
C862 C865 1.499 . S
C863 H837 0.950 . S
C863 C862 1.414 . S
C863 C864 1.374 . S
C864 H838 0.950 . S
C864 C860 1.385 . S
C864 C863 1.374 . S
C865 C862 1.499 . S
C865 C866 1.373 . S
C865 C867 1.389 1_545 S
C866 H839 0.950 . S
C866 C852 1.377 . S
C866 C865 1.373 . S
C867 C851 1.377 . S
C867 C865 1.389 1_565 S
C867 C868 1.524 . S
C868 C867 1.524 . S
C868 C869 1.397 . S
C868 C873 1.363 . S
C869 H840 0.950 . S
C869 C868 1.397 . S
C869 C870 1.334 . S
C870 H841 0.950 . S
C870 C869 1.334 . S
C870 C871 1.287 . S
C871 C870 1.287 . S
C871 C872 1.524 . S
C871 H874 0.999 . S
C872 H842 0.950 . S
C872 C871 1.524 . S
C872 C873 1.415 . S
C873 H843 0.950 . S
C873 C868 1.363 . S
C873 C872 1.415 . S
H874 C871 0.999 . S
H875 C856 0.913 . S
H876 C894 0.951 . S
H877 C896 0.951 . S
H878 C898 0.950 . S
H879 C899 0.950 . S
H880 C901 0.950 . S
H881 C904 0.950 . S
H882 C905 0.950 . S
H883 C907 0.950 . S
H884 C908 0.950 . S
H885 C909 0.951 . S
H886 C911 0.951 . S
H887 C913 0.950 . S
H888 C914 0.950 . S
H889 C916 0.950 . S
H890 C919 0.950 . S
H891 C920 0.950 . S
H892 C922 0.950 . S
H893 C923 0.950 . S
C894 H876 0.951 . S
C894 C895 1.366 . S
C894 C896 1.388 . S
C895 C894 1.366 . S
C895 C899 1.385 . S
C896 H877 0.951 . S
C896 C894 1.388 . S
C896 C897 1.366 . S
C897 C896 1.366 . S
C897 C898 1.414 . S
C897 C900 1.499 . S
C898 H878 0.950 . S
C898 C897 1.414 . S
C898 C899 1.374 . S
C899 H879 0.950 . S
C899 C895 1.385 . S
C899 C898 1.374 . S
C900 C897 1.499 . S
C900 C901 1.373 . S
C900 C902 1.389 . S
C901 H880 0.950 . S
C901 C900 1.373 . S
C901 C917 1.377 1_655 S
C902 C900 1.389 . S
C902 C903 1.524 . S
C902 C916 1.377 1_655 S
C903 C902 1.524 . S
C903 C904 1.397 . S
C903 C908 1.363 . S
C904 H881 0.950 . S
C904 C903 1.397 . S
C904 C905 1.334 . S
C905 H882 0.950 . S
C905 C904 1.334 . S
C905 C906 1.287 . S
C906 C905 1.287 . S
C906 C907 1.524 . S
C906 H925 0.913 . S
C907 H883 0.950 . S
C907 C906 1.524 . S
C907 C908 1.415 . S
C908 H884 0.950 . S
C908 C903 1.363 . S
C908 C907 1.415 . S
C909 H885 0.951 . S
C909 C910 1.366 . S
C909 C911 1.388 . S
C910 C909 1.366 . S
C910 C914 1.385 . S
C911 H886 0.951 . S
C911 C909 1.388 . S
C911 C912 1.366 . S
C912 C911 1.366 . S
C912 C913 1.414 . S
C912 C915 1.499 . S
C913 H887 0.950 . S
C913 C912 1.414 . S
C913 C914 1.374 . S
C914 H888 0.950 . S
C914 C910 1.385 . S
C914 C913 1.374 . S
C915 C912 1.499 . S
C915 C916 1.373 . S
C915 C917 1.389 . S
C916 H889 0.950 . S
C916 C902 1.377 1_455 S
C916 C915 1.373 . S
C917 C901 1.377 1_455 S
C917 C915 1.389 . S
C917 C918 1.524 . S
C918 C917 1.524 . S
C918 C919 1.397 . S
C918 C923 1.363 . S
C919 H890 0.950 . S
C919 C918 1.397 . S
C919 C920 1.334 . S
C920 H891 0.950 . S
C920 C919 1.334 . S
C920 C921 1.287 . S
C921 C920 1.287 . S
C921 C922 1.524 . S
C921 H924 0.999 . S
C922 H892 0.950 . S
C922 C921 1.524 . S
C922 C923 1.415 . S
C923 H893 0.950 . S
C923 C918 1.363 . S
C923 C922 1.415 . S
H924 C921 0.999 . S
H925 C906 0.913 . S
H926 C944 0.951 . S
H927 C946 0.951 . S
H928 C948 0.950 . S
H929 C949 0.950 . S
H930 C951 0.950 . S
H931 C954 0.950 . S
H932 C955 0.950 . S
H933 C957 0.950 . S
H934 C958 0.950 . S
H935 C959 0.951 . S
H936 C961 0.951 . S
H937 C963 0.950 . S
H938 C964 0.950 . S
H939 C966 0.950 . S
H940 C969 0.950 . S
H941 C970 0.950 . S
H942 C972 0.950 . S
H943 C973 0.950 . S
C944 H926 0.951 . S
C944 C945 1.366 . S
C944 C946 1.388 . S
C945 C944 1.366 . S
C945 C949 1.385 . S
C946 H927 0.951 . S
C946 C944 1.388 . S
C946 C947 1.366 . S
C947 C946 1.366 . S
C947 C948 1.414 . S
C947 C950 1.499 . S
C948 H928 0.950 . S
C948 C947 1.414 . S
C948 C949 1.374 . S
C949 H929 0.950 . S
C949 C945 1.385 . S
C949 C948 1.374 . S
C950 C947 1.499 . S
C950 C951 1.373 . S
C950 C952 1.389 . S
C951 H930 0.950 . S
C951 C950 1.373 . S
C951 C967 1.377 1_565 S
C952 C950 1.389 . S
C952 C953 1.524 . S
C952 C966 1.377 1_565 S
C953 C952 1.524 . S
C953 C954 1.397 . S
C953 C958 1.363 . S
C954 H931 0.950 . S
C954 C953 1.397 . S
C954 C955 1.334 . S
C955 H932 0.950 . S
C955 C954 1.334 . S
C955 C956 1.287 . S
C956 C955 1.287 . S
C956 C957 1.524 . S
C956 H975 0.913 . S
C957 H933 0.950 . S
C957 C956 1.524 . S
C957 C958 1.415 . S
C958 H934 0.950 . S
C958 C953 1.363 . S
C958 C957 1.415 . S
C959 H935 0.951 . S
C959 C960 1.366 . S
C959 C961 1.388 . S
C960 C959 1.366 . S
C960 C964 1.385 . S
C961 H936 0.951 . S
C961 C959 1.388 . S
C961 C962 1.366 . S
C962 C961 1.366 . S
C962 C963 1.414 . S
C962 C965 1.499 . S
C963 H937 0.950 . S
C963 C962 1.414 . S
C963 C964 1.374 . S
C964 H938 0.950 . S
C964 C960 1.385 . S
C964 C963 1.374 . S
C965 C962 1.499 . S
C965 C966 1.373 . S
C965 C967 1.389 . S
C966 H939 0.950 . S
C966 C952 1.377 1_545 S
C966 C965 1.373 . S
C967 C951 1.377 1_545 S
C967 C965 1.389 . S
C967 C968 1.524 . S
C968 C967 1.524 . S
C968 C969 1.397 . S
C968 C973 1.363 . S
C969 H940 0.950 . S
C969 C968 1.397 . S
C969 C970 1.334 . S
C970 H941 0.950 . S
C970 C969 1.334 . S
C970 C971 1.287 . S
C971 C970 1.287 . S
C971 C972 1.524 . S
C971 H974 0.999 . S
C972 H942 0.950 . S
C972 C971 1.524 . S
C972 C973 1.415 . S
C973 H943 0.950 . S
C973 C968 1.363 . S
C973 C972 1.415 . S
H974 C971 0.999 . S
H975 C956 0.913 . S
H976 C994 0.951 . S
H977 C996 0.951 . S
H978 C998 0.950 . S
H979 C999 0.950 . S
H980 C1001 0.950 . S
H981 C1004 0.950 . S
H982 C1005 0.950 . S
H983 C1007 0.950 . S
H984 C1008 0.950 . S
H985 C1009 0.951 . S
H986 C1011 0.951 . S
H987 C1013 0.950 . S
H988 C1014 0.950 . S
H989 C1016 0.950 . S
H990 C1019 0.950 . S
H991 C1020 0.950 . S
H992 C1022 0.950 . S
H993 C1023 0.950 . S
C994 H976 0.951 . S
C994 C995 1.366 . S
C994 C996 1.388 . S
C995 C994 1.366 . S
C995 C999 1.385 . S
C996 H977 0.951 . S
C996 C994 1.388 . S
C996 C997 1.366 . S
C997 C996 1.366 . S
C997 C998 1.414 . S
C997 C1000 1.499 . S
C998 H978 0.950 . S
C998 C997 1.414 . S
C998 C999 1.374 . S
C999 H979 0.950 . S
C999 C995 1.385 . S
C999 C998 1.374 . S
C1000 C997 1.499 . S
C1000 C1001 1.373 . S
C1000 C1002 1.389 . S
C1001 H980 0.950 . S
C1001 C1000 1.373 . S
C1001 C1017 1.377 . S
C1002 C1000 1.389 . S
C1002 C1003 1.524 . S
C1002 C1016 1.377 . S
C1003 C1002 1.524 . S
C1003 C1004 1.397 . S
C1003 C1008 1.363 . S
C1004 H981 0.950 . S
C1004 C1003 1.397 . S
C1004 C1005 1.334 . S
C1005 H982 0.950 . S
C1005 C1004 1.334 . S
C1005 C1006 1.287 . S
C1006 C1005 1.287 . S
C1006 C1007 1.524 . S
C1006 H1025 0.913 . S
C1007 H983 0.950 . S
C1007 C1006 1.524 . S
C1007 C1008 1.415 . S
C1008 H984 0.950 . S
C1008 C1003 1.363 . S
C1008 C1007 1.415 . S
C1009 H985 0.951 . S
C1009 C1010 1.366 . S
C1009 C1011 1.388 . S
C1010 C1009 1.366 . S
C1010 C1014 1.385 . S
C1011 H986 0.951 . S
C1011 C1009 1.388 . S
C1011 C1012 1.366 . S
C1012 C1011 1.366 . S
C1012 C1013 1.414 . S
C1012 C1015 1.499 . S
C1013 H987 0.950 . S
C1013 C1012 1.414 . S
C1013 C1014 1.374 . S
C1014 H988 0.950 . S
C1014 C1010 1.385 . S
C1014 C1013 1.374 . S
C1015 C1012 1.499 . S
C1015 C1016 1.373 . S
C1015 C1017 1.389 . S
C1016 H989 0.950 . S
C1016 C1002 1.377 . S
C1016 C1015 1.373 . S
C1017 C1001 1.377 . S
C1017 C1015 1.389 . S
C1017 C1018 1.524 . S
C1018 C1017 1.524 . S
C1018 C1019 1.397 . S
C1018 C1023 1.363 . S
C1019 H990 0.950 . S
C1019 C1018 1.397 . S
C1019 C1020 1.334 . S
C1020 H991 0.950 . S
C1020 C1019 1.334 . S
C1020 C1021 1.287 . S
C1021 C1020 1.287 . S
C1021 C1022 1.524 . S
C1021 H1024 0.999 . S
C1022 H992 0.950 . S
C1022 C1021 1.524 . S
C1022 C1023 1.415 . S
C1023 H993 0.950 . S
C1023 C1018 1.363 . S
C1023 C1022 1.415 . S
H1024 C1021 0.999 . S
H1025 C1006 0.913 . S
H1026 C1044 0.951 . S
H1027 C1046 0.951 . S
H1028 C1048 0.950 . S
H1029 C1049 0.950 . S
H1030 C1051 0.950 . S
H1031 C1054 0.950 . S
H1032 C1055 0.950 . S
H1033 C1057 0.950 . S
H1034 C1058 0.950 . S
H1035 C1059 0.951 . S
H1036 C1061 0.951 . S
H1037 C1063 0.950 . S
H1038 C1064 0.950 . S
H1039 C1066 0.950 . S
H1040 C1069 0.950 . S
H1041 C1070 0.950 . S
H1042 C1072 0.950 . S
H1043 C1073 0.950 . S
C1044 H1026 0.951 . S
C1044 C1045 1.366 . S
C1044 C1046 1.388 . S
C1045 C1044 1.366 . S
C1045 C1049 1.385 . S
C1046 H1027 0.951 . S
C1046 C1044 1.388 . S
C1046 C1047 1.366 . S
C1047 C1046 1.366 . S
C1047 C1048 1.414 . S
C1047 C1050 1.499 . S
C1048 H1028 0.950 . S
C1048 C1047 1.414 . S
C1048 C1049 1.374 . S
C1049 H1029 0.950 . S
C1049 C1045 1.385 . S
C1049 C1048 1.374 . S
C1050 C1047 1.499 . S
C1050 C1051 1.373 . S
C1050 C1052 1.389 . S
C1051 H1030 0.950 . S
C1051 C1050 1.373 . S
C1051 C1067 1.377 . S
C1052 C1050 1.389 . S
C1052 C1053 1.524 . S
C1052 C1066 1.377 . S
C1053 C1052 1.524 . S
C1053 C1054 1.397 . S
C1053 C1058 1.363 . S
C1054 H1031 0.950 . S
C1054 C1053 1.397 . S
C1054 C1055 1.334 . S
C1055 H1032 0.950 . S
C1055 C1054 1.334 . S
C1055 C1056 1.287 . S
C1056 C1055 1.287 . S
C1056 C1057 1.524 . S
C1056 H1075 0.913 . S
C1057 H1033 0.950 . S
C1057 C1056 1.524 . S
C1057 C1058 1.415 . S
C1058 H1034 0.950 . S
C1058 C1053 1.363 . S
C1058 C1057 1.415 . S
C1059 H1035 0.951 . S
C1059 C1060 1.366 . S
C1059 C1061 1.388 . S
C1060 C1059 1.366 . S
C1060 C1064 1.385 . S
C1061 H1036 0.951 . S
C1061 C1059 1.388 . S
C1061 C1062 1.366 . S
C1062 C1061 1.366 . S
C1062 C1063 1.414 . S
C1062 C1065 1.499 . S
C1063 H1037 0.950 . S
C1063 C1062 1.414 . S
C1063 C1064 1.374 . S
C1064 H1038 0.950 . S
C1064 C1060 1.385 . S
C1064 C1063 1.374 . S
C1065 C1062 1.499 . S
C1065 C1066 1.373 . S
C1065 C1067 1.389 . S
C1066 H1039 0.950 . S
C1066 C1052 1.377 . S
C1066 C1065 1.373 . S
C1067 C1051 1.377 . S
C1067 C1065 1.389 . S
C1067 C1068 1.524 . S
C1068 C1067 1.524 . S
C1068 C1069 1.397 . S
C1068 C1073 1.363 . S
C1069 H1040 0.950 . S
C1069 C1068 1.397 . S
C1069 C1070 1.334 . S
C1070 H1041 0.950 . S
C1070 C1069 1.334 . S
C1070 C1071 1.287 . S
C1071 C1070 1.287 . S
C1071 C1072 1.524 . S
C1071 H1074 0.999 . S
C1072 H1042 0.950 . S
C1072 C1071 1.524 . S
C1072 C1073 1.415 . S
C1073 H1043 0.950 . S
C1073 C1068 1.363 . S
C1073 C1072 1.415 . S
H1074 C1071 0.999 . S
H1075 C1056 0.913 . S
H1076 C1094 0.951 . S
H1077 C1096 0.951 . S
H1078 C1098 0.950 . S
H1079 C1099 0.950 . S
H1080 C1101 0.950 . S
H1081 C1104 0.950 . S
H1082 C1105 0.950 . S
H1083 C1107 0.950 . S
H1084 C1108 0.950 . S
H1085 C1109 0.951 . S
H1086 C1111 0.951 . S
H1087 C1113 0.950 . S
H1088 C1114 0.950 . S
H1089 C1116 0.950 . S
H1090 C1119 0.950 . S
H1091 C1120 0.950 . S
H1092 C1122 0.950 . S
H1093 C1123 0.950 . S
C1094 H1076 0.951 . S
C1094 C1095 1.366 . S
C1094 C1096 1.388 . S
C1095 C1094 1.366 . S
C1095 C1099 1.385 . S
C1096 H1077 0.951 . S
C1096 C1094 1.388 . S
C1096 C1097 1.366 . S
C1097 C1096 1.366 . S
C1097 C1098 1.414 . S
C1097 C1100 1.499 . S
C1098 H1078 0.950 . S
C1098 C1097 1.414 . S
C1098 C1099 1.374 . S
C1099 H1079 0.950 . S
C1099 C1095 1.385 . S
C1099 C1098 1.374 . S
C1100 C1097 1.499 . S
C1100 C1101 1.373 . S
C1100 C1102 1.389 . S
C1101 H1080 0.950 . S
C1101 C1100 1.373 . S
C1101 C1117 1.377 . S
C1102 C1100 1.389 . S
C1102 C1103 1.524 . S
C1102 C1116 1.377 . S
C1103 C1102 1.524 . S
C1103 C1104 1.397 . S
C1103 C1108 1.363 . S
C1104 H1081 0.950 . S
C1104 C1103 1.397 . S
C1104 C1105 1.334 . S
C1105 H1082 0.950 . S
C1105 C1104 1.334 . S
C1105 C1106 1.287 . S
C1106 C1105 1.287 . S
C1106 C1107 1.524 . S
C1106 H1125 0.913 . S
C1107 H1083 0.950 . S
C1107 C1106 1.524 . S
C1107 C1108 1.415 . S
C1108 H1084 0.950 . S
C1108 C1103 1.363 . S
C1108 C1107 1.415 . S
C1109 H1085 0.951 . S
C1109 C1110 1.366 . S
C1109 C1111 1.388 . S
C1110 C1109 1.366 . S
C1110 C1114 1.385 . S
C1111 H1086 0.951 . S
C1111 C1109 1.388 . S
C1111 C1112 1.366 . S
C1112 C1111 1.366 . S
C1112 C1113 1.414 . S
C1112 C1115 1.499 . S
C1113 H1087 0.950 . S
C1113 C1112 1.414 . S
C1113 C1114 1.374 . S
C1114 H1088 0.950 . S
C1114 C1110 1.385 . S
C1114 C1113 1.374 . S
C1115 C1112 1.499 . S
C1115 C1116 1.373 . S
C1115 C1117 1.389 . S
C1116 H1089 0.950 . S
C1116 C1102 1.377 . S
C1116 C1115 1.373 . S
C1117 C1101 1.377 . S
C1117 C1115 1.389 . S
C1117 C1118 1.524 . S
C1118 C1117 1.524 . S
C1118 C1119 1.397 . S
C1118 C1123 1.363 . S
C1119 H1090 0.950 . S
C1119 C1118 1.397 . S
C1119 C1120 1.334 . S
C1120 H1091 0.950 . S
C1120 C1119 1.334 . S
C1120 C1121 1.287 . S
C1121 C1120 1.287 . S
C1121 C1122 1.524 . S
C1121 H1124 0.999 . S
C1122 H1092 0.950 . S
C1122 C1121 1.524 . S
C1122 C1123 1.415 . S
C1123 H1093 0.950 . S
C1123 C1118 1.363 . S
C1123 C1122 1.415 . S
H1124 C1121 0.999 . S
H1125 C1106 0.913 . S
H1126 C1144 0.951 . S
H1127 C1146 0.951 . S
H1128 C1148 0.950 . S
H1129 C1149 0.950 . S
H1130 C1151 0.950 . S
H1131 C1154 0.950 . S
H1132 C1155 0.950 . S
H1133 C1157 0.950 . S
H1134 C1158 0.950 . S
H1135 C1159 0.951 . S
H1136 C1161 0.951 . S
H1137 C1163 0.950 . S
H1138 C1164 0.950 . S
H1139 C1166 0.950 . S
H1140 C1169 0.950 . S
H1141 C1170 0.950 . S
H1142 C1172 0.950 . S
H1143 C1173 0.950 . S
C1144 H1126 0.951 . S
C1144 C1145 1.366 . S
C1144 C1146 1.388 . S
C1145 C1144 1.366 . S
C1145 C1149 1.385 . S
C1146 H1127 0.951 . S
C1146 C1144 1.388 . S
C1146 C1147 1.366 . S
C1147 C1146 1.366 . S
C1147 C1148 1.414 . S
C1147 C1150 1.499 . S
C1148 H1128 0.950 . S
C1148 C1147 1.414 . S
C1148 C1149 1.374 . S
C1149 H1129 0.950 . S
C1149 C1145 1.385 . S
C1149 C1148 1.374 . S
C1150 C1147 1.499 . S
C1150 C1151 1.373 . S
C1150 C1152 1.389 . S
C1151 H1130 0.950 . S
C1151 C1150 1.373 . S
C1151 C1167 1.377 . S
C1152 C1150 1.389 . S
C1152 C1153 1.524 . S
C1152 C1166 1.377 . S
C1153 C1152 1.524 . S
C1153 C1154 1.397 . S
C1153 C1158 1.363 . S
C1154 H1131 0.950 . S
C1154 C1153 1.397 . S
C1154 C1155 1.334 . S
C1155 H1132 0.950 . S
C1155 C1154 1.334 . S
C1155 C1156 1.287 . S
C1156 C1155 1.287 . S
C1156 C1157 1.524 . S
C1156 H1175 0.913 . S
C1157 H1133 0.950 . S
C1157 C1156 1.524 . S
C1157 C1158 1.415 . S
C1158 H1134 0.950 . S
C1158 C1153 1.363 . S
C1158 C1157 1.415 . S
C1159 H1135 0.951 . S
C1159 C1160 1.366 . S
C1159 C1161 1.388 . S
C1160 C1159 1.366 . S
C1160 C1164 1.385 . S
C1161 H1136 0.951 . S
C1161 C1159 1.388 . S
C1161 C1162 1.366 . S
C1162 C1161 1.366 . S
C1162 C1163 1.414 . S
C1162 C1165 1.499 . S
C1163 H1137 0.950 . S
C1163 C1162 1.414 . S
C1163 C1164 1.374 . S
C1164 H1138 0.950 . S
C1164 C1160 1.385 . S
C1164 C1163 1.374 . S
C1165 C1162 1.499 . S
C1165 C1166 1.373 . S
C1165 C1167 1.389 . S
C1166 H1139 0.950 . S
C1166 C1152 1.377 . S
C1166 C1165 1.373 . S
C1167 C1151 1.377 . S
C1167 C1165 1.389 . S
C1167 C1168 1.524 . S
C1168 C1167 1.524 . S
C1168 C1169 1.397 . S
C1168 C1173 1.363 . S
C1169 H1140 0.950 . S
C1169 C1168 1.397 . S
C1169 C1170 1.334 . S
C1170 H1141 0.950 . S
C1170 C1169 1.334 . S
C1170 C1171 1.287 . S
C1171 C1170 1.287 . S
C1171 C1172 1.524 . S
C1171 H1174 0.999 . S
C1172 H1142 0.950 . S
C1172 C1171 1.524 . S
C1172 C1173 1.415 . S
C1173 H1143 0.950 . S
C1173 C1168 1.363 . S
C1173 C1172 1.415 . S
H1174 C1171 0.999 . S
H1175 C1156 0.913 . S
H1176 C1194 0.951 . S
H1177 C1196 0.951 . S
H1178 C1198 0.950 . S
H1179 C1199 0.950 . S
H1180 C1201 0.950 . S
H1181 C1204 0.950 . S
H1182 C1205 0.950 . S
H1183 C1207 0.950 . S
H1184 C1208 0.950 . S
H1185 C1209 0.951 . S
H1186 C1211 0.951 . S
H1187 C1213 0.950 . S
H1188 C1214 0.950 . S
H1189 C1216 0.950 . S
H1190 C1219 0.950 . S
H1191 C1220 0.950 . S
H1192 C1222 0.950 . S
H1193 C1223 0.950 . S
C1194 H1176 0.951 . S
C1194 C1195 1.366 . S
C1194 C1196 1.388 . S
C1195 C1194 1.366 . S
C1195 C1199 1.385 . S
C1196 H1177 0.951 . S
C1196 C1194 1.388 . S
C1196 C1197 1.366 . S
C1197 C1196 1.366 . S
C1197 C1198 1.414 . S
C1197 C1200 1.499 . S
C1198 H1178 0.950 . S
C1198 C1197 1.414 . S
C1198 C1199 1.374 . S
C1199 H1179 0.950 . S
C1199 C1195 1.385 . S
C1199 C1198 1.374 . S
C1200 C1197 1.499 . S
C1200 C1201 1.373 . S
C1200 C1202 1.389 . S
C1201 H1180 0.950 . S
C1201 C1200 1.373 . S
C1201 C1217 1.377 . S
C1202 C1200 1.389 . S
C1202 C1203 1.524 . S
C1202 C1216 1.377 . S
C1203 C1202 1.524 . S
C1203 C1204 1.397 . S
C1203 C1208 1.363 . S
C1204 H1181 0.950 . S
C1204 C1203 1.397 . S
C1204 C1205 1.334 . S
C1205 H1182 0.950 . S
C1205 C1204 1.334 . S
C1205 C1206 1.287 . S
C1206 C1205 1.287 . S
C1206 C1207 1.524 . S
C1206 H1225 0.913 . S
C1207 H1183 0.950 . S
C1207 C1206 1.524 . S
C1207 C1208 1.415 . S
C1208 H1184 0.950 . S
C1208 C1203 1.363 . S
C1208 C1207 1.415 . S
C1209 H1185 0.951 . S
C1209 C1210 1.366 . S
C1209 C1211 1.388 . S
C1210 C1209 1.366 . S
C1210 C1214 1.385 . S
C1211 H1186 0.951 . S
C1211 C1209 1.388 . S
C1211 C1212 1.366 . S
C1212 C1211 1.366 . S
C1212 C1213 1.414 . S
C1212 C1215 1.499 . S
C1213 H1187 0.950 . S
C1213 C1212 1.414 . S
C1213 C1214 1.374 . S
C1214 H1188 0.950 . S
C1214 C1210 1.385 . S
C1214 C1213 1.374 . S
C1215 C1212 1.499 . S
C1215 C1216 1.373 . S
C1215 C1217 1.389 . S
C1216 H1189 0.950 . S
C1216 C1202 1.377 . S
C1216 C1215 1.373 . S
C1217 C1201 1.377 . S
C1217 C1215 1.389 . S
C1217 C1218 1.524 . S
C1218 C1217 1.524 . S
C1218 C1219 1.397 . S
C1218 C1223 1.363 . S
C1219 H1190 0.950 . S
C1219 C1218 1.397 . S
C1219 C1220 1.334 . S
C1220 H1191 0.950 . S
C1220 C1219 1.334 . S
C1220 C1221 1.287 . S
C1221 C1220 1.287 . S
C1221 C1222 1.524 . S
C1221 H1224 0.999 . S
C1222 H1192 0.950 . S
C1222 C1221 1.524 . S
C1222 C1223 1.415 . S
C1223 H1193 0.950 . S
C1223 C1218 1.363 . S
C1223 C1222 1.415 . S
H1224 C1221 0.999 . S
H1225 C1206 0.913 . S
H1226 C1244 0.951 . S
H1227 C1246 0.951 . S
H1228 C1248 0.950 . S
H1229 C1249 0.950 . S
H1230 C1251 0.950 . S
H1231 C1254 0.950 . S
H1232 C1255 0.950 . S
H1233 C1257 0.950 . S
H1234 C1258 0.950 . S
H1235 C1259 0.951 . S
H1236 C1261 0.951 . S
H1237 C1263 0.950 . S
H1238 C1264 0.950 . S
H1239 C1266 0.950 . S
H1240 C1269 0.950 . S
H1241 C1270 0.950 . S
H1242 C1272 0.950 . S
H1243 C1273 0.950 . S
C1244 H1226 0.951 . S
C1244 C1245 1.366 . S
C1244 C1246 1.388 . S
C1245 C1244 1.366 . S
C1245 C1249 1.385 . S
C1246 H1227 0.951 . S
C1246 C1244 1.388 . S
C1246 C1247 1.366 . S
C1247 C1246 1.366 . S
C1247 C1248 1.414 . S
C1247 C1250 1.499 . S
C1248 H1228 0.950 . S
C1248 C1247 1.414 . S
C1248 C1249 1.374 . S
C1249 H1229 0.950 . S
C1249 C1245 1.385 . S
C1249 C1248 1.374 . S
C1250 C1247 1.499 . S
C1250 C1251 1.373 . S
C1250 C1252 1.389 . S
C1251 H1230 0.950 . S
C1251 C1250 1.373 . S
C1251 C1267 1.377 . S
C1252 C1250 1.389 . S
C1252 C1253 1.524 . S
C1252 C1266 1.377 . S
C1253 C1252 1.524 . S
C1253 C1254 1.397 . S
C1253 C1258 1.363 . S
C1254 H1231 0.950 . S
C1254 C1253 1.397 . S
C1254 C1255 1.334 . S
C1255 H1232 0.950 . S
C1255 C1254 1.334 . S
C1255 C1256 1.287 . S
C1256 C1255 1.287 . S
C1256 C1257 1.524 . S
C1256 H1275 0.913 . S
C1257 H1233 0.950 . S
C1257 C1256 1.524 . S
C1257 C1258 1.415 . S
C1258 H1234 0.950 . S
C1258 C1253 1.363 . S
C1258 C1257 1.415 . S
C1259 H1235 0.951 . S
C1259 C1260 1.366 . S
C1259 C1261 1.388 . S
C1260 C1259 1.366 . S
C1260 C1264 1.385 . S
C1261 H1236 0.951 . S
C1261 C1259 1.388 . S
C1261 C1262 1.366 . S
C1262 C1261 1.366 . S
C1262 C1263 1.414 . S
C1262 C1265 1.499 . S
C1263 H1237 0.950 . S
C1263 C1262 1.414 . S
C1263 C1264 1.374 . S
C1264 H1238 0.950 . S
C1264 C1260 1.385 . S
C1264 C1263 1.374 . S
C1265 C1262 1.499 . S
C1265 C1266 1.373 . S
C1265 C1267 1.389 . S
C1266 H1239 0.950 . S
C1266 C1252 1.377 . S
C1266 C1265 1.373 . S
C1267 C1251 1.377 . S
C1267 C1265 1.389 . S
C1267 C1268 1.524 . S
C1268 C1267 1.524 . S
C1268 C1269 1.397 . S
C1268 C1273 1.363 . S
C1269 H1240 0.950 . S
C1269 C1268 1.397 . S
C1269 C1270 1.334 . S
C1270 H1241 0.950 . S
C1270 C1269 1.334 . S
C1270 C1271 1.287 . S
C1271 C1270 1.287 . S
C1271 C1272 1.524 . S
C1271 H1274 0.999 . S
C1272 H1242 0.950 . S
C1272 C1271 1.524 . S
C1272 C1273 1.415 . S
C1273 H1243 0.950 . S
C1273 C1268 1.363 . S
C1273 C1272 1.415 . S
H1274 C1271 0.999 . S
H1275 C1256 0.913 . S
H1276 C1294 0.951 . S
H1277 C1296 0.951 . S
H1278 C1298 0.950 . S
H1279 C1299 0.950 . S
H1280 C1301 0.950 . S
H1281 C1304 0.950 . S
H1282 C1305 0.950 . S
H1283 C1307 0.950 . S
H1284 C1308 0.950 . S
H1285 C1309 0.951 . S
H1286 C1311 0.951 . S
H1287 C1313 0.950 . S
H1288 C1314 0.950 . S
H1289 C1316 0.950 . S
H1290 C1319 0.950 . S
H1291 C1320 0.950 . S
H1292 C1322 0.950 . S
H1293 C1323 0.950 . S
C1294 H1276 0.951 . S
C1294 C1295 1.366 . S
C1294 C1296 1.388 . S
C1295 C1294 1.366 . S
C1295 C1299 1.385 . S
C1296 H1277 0.951 . S
C1296 C1294 1.388 . S
C1296 C1297 1.366 . S
C1297 C1296 1.366 . S
C1297 C1298 1.414 . S
C1297 C1300 1.499 . S
C1298 H1278 0.950 . S
C1298 C1297 1.414 . S
C1298 C1299 1.374 . S
C1299 H1279 0.950 . S
C1299 C1295 1.385 . S
C1299 C1298 1.374 . S
C1300 C1297 1.499 . S
C1300 C1301 1.373 . S
C1300 C1302 1.389 . S
C1301 H1280 0.950 . S
C1301 C1300 1.373 . S
C1301 C1317 1.377 . S
C1302 C1300 1.389 . S
C1302 C1303 1.524 . S
C1302 C1316 1.377 . S
C1303 C1302 1.524 . S
C1303 C1304 1.397 . S
C1303 C1308 1.363 . S
C1304 H1281 0.950 . S
C1304 C1303 1.397 . S
C1304 C1305 1.334 . S
C1305 H1282 0.950 . S
C1305 C1304 1.334 . S
C1305 C1306 1.287 . S
C1306 C1305 1.287 . S
C1306 C1307 1.524 . S
C1306 H1325 0.913 . S
C1307 H1283 0.950 . S
C1307 C1306 1.524 . S
C1307 C1308 1.415 . S
C1308 H1284 0.950 . S
C1308 C1303 1.363 . S
C1308 C1307 1.415 . S
C1309 H1285 0.951 . S
C1309 C1310 1.366 . S
C1309 C1311 1.388 . S
C1310 C1309 1.366 . S
C1310 C1314 1.385 . S
C1311 H1286 0.951 . S
C1311 C1309 1.388 . S
C1311 C1312 1.366 . S
C1312 C1311 1.366 . S
C1312 C1313 1.414 . S
C1312 C1315 1.499 . S
C1313 H1287 0.950 . S
C1313 C1312 1.414 . S
C1313 C1314 1.374 . S
C1314 H1288 0.950 . S
C1314 C1310 1.385 . S
C1314 C1313 1.374 . S
C1315 C1312 1.499 . S
C1315 C1316 1.373 . S
C1315 C1317 1.389 . S
C1316 H1289 0.950 . S
C1316 C1302 1.377 . S
C1316 C1315 1.373 . S
C1317 C1301 1.377 . S
C1317 C1315 1.389 . S
C1317 C1318 1.524 . S
C1318 C1317 1.524 . S
C1318 C1319 1.397 . S
C1318 C1323 1.363 . S
C1319 H1290 0.950 . S
C1319 C1318 1.397 . S
C1319 C1320 1.334 . S
C1320 H1291 0.950 . S
C1320 C1319 1.334 . S
C1320 C1321 1.287 . S
C1321 C1320 1.287 . S
C1321 C1322 1.524 . S
C1321 H1324 0.999 . S
C1322 H1292 0.950 . S
C1322 C1321 1.524 . S
C1322 C1323 1.415 . S
C1323 H1293 0.950 . S
C1323 C1318 1.363 . S
C1323 C1322 1.415 . S
H1324 C1321 0.999 . S
H1325 C1306 0.913 . S
H1326 C1344 0.951 . S
H1327 C1346 0.951 . S
H1328 C1348 0.950 . S
H1329 C1349 0.950 . S
H1330 C1351 0.950 . S
H1331 C1354 0.950 . S
H1332 C1355 0.950 . S
H1333 C1357 0.950 . S
H1334 C1358 0.950 . S
H1335 C1359 0.951 . S
H1336 C1361 0.951 . S
H1337 C1363 0.950 . S
H1338 C1364 0.950 . S
H1339 C1366 0.950 . S
H1340 C1369 0.950 . S
H1341 C1370 0.950 . S
H1342 C1372 0.950 . S
H1343 C1373 0.950 . S
C1344 H1326 0.951 . S
C1344 C1345 1.366 . S
C1344 C1346 1.388 . S
C1345 C1344 1.366 . S
C1345 C1349 1.385 . S
C1346 H1327 0.951 . S
C1346 C1344 1.388 . S
C1346 C1347 1.366 . S
C1347 C1346 1.366 . S
C1347 C1348 1.414 . S
C1347 C1350 1.499 . S
C1348 H1328 0.950 . S
C1348 C1347 1.414 . S
C1348 C1349 1.374 . S
C1349 H1329 0.950 . S
C1349 C1345 1.385 . S
C1349 C1348 1.374 . S
C1350 C1347 1.499 . S
C1350 C1351 1.373 . S
C1350 C1352 1.389 . S
C1351 H1330 0.950 . S
C1351 C1350 1.373 . S
C1351 C1367 1.377 . S
C1352 C1350 1.389 . S
C1352 C1353 1.524 . S
C1352 C1366 1.377 . S
C1353 C1352 1.524 . S
C1353 C1354 1.397 . S
C1353 C1358 1.363 . S
C1354 H1331 0.950 . S
C1354 C1353 1.397 . S
C1354 C1355 1.334 . S
C1355 H1332 0.950 . S
C1355 C1354 1.334 . S
C1355 C1356 1.287 . S
C1356 C1355 1.287 . S
C1356 C1357 1.524 . S
C1356 H1375 0.913 . S
C1357 H1333 0.950 . S
C1357 C1356 1.524 . S
C1357 C1358 1.415 . S
C1358 H1334 0.950 . S
C1358 C1353 1.363 . S
C1358 C1357 1.415 . S
C1359 H1335 0.951 . S
C1359 C1360 1.366 . S
C1359 C1361 1.388 . S
C1360 C1359 1.366 . S
C1360 C1364 1.385 . S
C1361 H1336 0.951 . S
C1361 C1359 1.388 . S
C1361 C1362 1.366 . S
C1362 C1361 1.366 . S
C1362 C1363 1.414 . S
C1362 C1365 1.499 . S
C1363 H1337 0.950 . S
C1363 C1362 1.414 . S
C1363 C1364 1.374 . S
C1364 H1338 0.950 . S
C1364 C1360 1.385 . S
C1364 C1363 1.374 . S
C1365 C1362 1.499 . S
C1365 C1366 1.373 . S
C1365 C1367 1.389 . S
C1366 H1339 0.950 . S
C1366 C1352 1.377 . S
C1366 C1365 1.373 . S
C1367 C1351 1.377 . S
C1367 C1365 1.389 . S
C1367 C1368 1.524 . S
C1368 C1367 1.524 . S
C1368 C1369 1.397 . S
C1368 C1373 1.363 . S
C1369 H1340 0.950 . S
C1369 C1368 1.397 . S
C1369 C1370 1.334 . S
C1370 H1341 0.950 . S
C1370 C1369 1.334 . S
C1370 C1371 1.287 . S
C1371 C1370 1.287 . S
C1371 C1372 1.524 . S
C1371 H1374 0.999 . S
C1372 H1342 0.950 . S
C1372 C1371 1.524 . S
C1372 C1373 1.415 . S
C1373 H1343 0.950 . S
C1373 C1368 1.363 . S
C1373 C1372 1.415 . S
H1374 C1371 0.999 . S
H1375 C1356 0.913 . S
C195 C136 1.400 . S
C210 C8 1.398 . S
C245 C30 1.400 . S
C260 C158 1.398 . S
C295 C92 1.400 . S
C310 C53 1.398 . S
C345 C74 1.400 . S
C360 C114 1.398 . S
C395 C96 1.399 . S
C410 C50 1.402 . S
C445 C70 1.400 . S
C460 C118 1.402 . S
C495 C140 1.400 . S
C510 C4 1.402 . S
C545 C26 1.400 . S
C560 C162 1.402 . S
C595 C27 1.400 . S
C610 C119 1.402 . S
C645 C141 1.400 . S
C660 C48 1.402 . S
C695 C163 1.400 . S
C710 C71 1.402 . S
C745 C5 1.400 . S
C760 C97 1.402 . S
C795 C73 1.400 . S
C810 C160 1.398 . S
C845 C94 1.400 . S
C860 C7 1.398 . S
C895 C29 1.400 . S
C910 C116 1.398 . S
C945 C52 1.400 . S
C960 C138 1.397 . S
C995 C159 1.127 . S
C1010 C9 1.125 . S
C1045 C31 1.126 . S
C1060 C93 1.124 . S
C1095 C51 1.126 . S
C1110 C115 1.124 . S
C1145 C137 1.126 . S
C1160 C75 1.124 . S
C1195 C117 1.127 . S
C1210 C49 1.129 . S
C1245 C139 1.127 . S
C1260 C72 1.129 . S
C1295 C161 1.126 . S
C1310 C6 1.128 . S
C1345 C95 1.127 . S
C1360 C28 1.129 . S
