# Generated by pormake.
# Topology npo, (4)-cn, num edge types: 1
# Building blocks:
#     Node 0, Type 0, BuildingBlock: CEKHIL_clean_sbu_0, # of connection points: 4
#     Node 1, Type 0, BuildingBlock: CEKHIL_clean_sbu_0, # of connection points: 4
#     Node 2, Type 0, BuildingBlock: CEKHIL_clean_sbu_0, # of connection points: 4
#     Node 3, Type 0, BuildingBlock: CEKHIL_clean_sbu_0, # of connection points: 4
#     Node 4, Type 0, BuildingBlock: CEKHIL_clean_sbu_0, # of connection points: 4
#     Node 5, Type 0, BuildingBlock: CEKHIL_clean_sbu_0, # of connection points: 4
#     Edge 6, Type (0, 0), BuildingBlock: ZUJKAS_clean_linker_0, # of connection points: 2
#     Edge 7, Type (0, 0), BuildingBlock: ZUJKAS_clean_linker_0, # of connection points: 2
#     Edge 8, Type (0, 0), BuildingBlock: ZUJKAS_clean_linker_0, # of connection points: 2
#     Edge 9, Type (0, 0), BuildingBlock: ZUJKAS_clean_linker_0, # of connection points: 2
#     Edge 10, Type (0, 0), BuildingBlock: ZUJKAS_clean_linker_0, # of connection points: 2
#     Edge 11, Type (0, 0), BuildingBlock: ZUJKAS_clean_linker_0, # of connection points: 2
#     Edge 12, Type (0, 0), BuildingBlock: ZUJKAS_clean_linker_0, # of connection points: 2
#     Edge 13, Type (0, 0), BuildingBlock: ZUJKAS_clean_linker_0, # of connection points: 2
#     Edge 14, Type (0, 0), BuildingBlock: ZUJKAS_clean_linker_0, # of connection points: 2
#     Edge 15, Type (0, 0), BuildingBlock: ZUJKAS_clean_linker_0, # of connection points: 2
#     Edge 16, Type (0, 0), BuildingBlock: ZUJKAS_clean_linker_0, # of connection points: 2
#     Edge 17, Type (0, 0), BuildingBlock: ZUJKAS_clean_linker_0, # of connection points: 2
# Relax obj value: 0.296
# Max RMSD: 0.248
# Mean RMSD: 0.243
data_MOF--net-npo--node1-CEKHIL_clean_sbu_0--edge1-ZUJKAS_clean_linker_0
_symmetry_space_group_name_H-M    P1
_symmetry_Int_Tables_number       1
_symmetry_cell_setting            triclinic
loop_
_symmetry_equiv_pos_as_xyz
'x, y, z'
_cell_length_a     57.525097
_cell_length_b     56.666561
_cell_length_c     30.771811
_cell_angle_alpha  91.287568
_cell_angle_beta   90.023011
_cell_angle_gamma 120.43471
loop_
_atom_site_label
_atom_site_type_symbol
_atom_site_fract_x
_atom_site_fract_y
_atom_site_fract_z
_atom_type_partial_charge
Co0 Co 0.53659 0.09762 0.26564 0.0
O1 O 0.51207 0.06429 0.29415 0.0
O2 O 0.5567 0.08539 0.29854 0.0
C3 C 0.51649 0.12168 0.28283 0.0
O4 O 0.56839 0.13257 0.24423 0.0
Co5 Co 0.51936 0.12093 0.18954 0.0
O6 O 0.55472 0.15469 0.20081 0.0
C7 C 0.52775 0.07414 0.17359 0.0
C8 C 0.53348 0.06547 0.31058 0.0
C9 C 0.57287 0.1538 0.22324 0.0
O10 O 0.53707 0.07646 0.21245 0.0
O11 O 0.5178 0.08838 0.15988 0.0
O12 O 0.53187 0.11924 0.31115 0.0
O13 O 0.51117 0.10682 0.24774 0.0
Co14 Co 0.44534 0.56074 0.72529 0.0
O15 O 0.47458 0.56321 0.69166 0.0
O16 O 0.43318 0.5272 0.69196 0.0
C17 C 0.45107 0.60168 0.70866 0.0
O18 O 0.40959 0.55161 0.75277 0.0
Co19 Co 0.45603 0.60154 0.80258 0.0
O20 O 0.41661 0.58676 0.79727 0.0
C21 C 0.46916 0.55803 0.81179 0.0
C22 C 0.45737 0.53899 0.67614 0.0
C23 C 0.40091 0.56456 0.77629 0.0
O24 O 0.45611 0.54619 0.77631 0.0
O25 O 0.47365 0.58153 0.82521 0.0
O26 O 0.43848 0.58098 0.68164 0.0
O27 O 0.46234 0.59771 0.74177 0.0
Co28 Co 0.87709 0.42576 0.25416 0.0
O29 O 0.90308 0.42053 0.2853 0.0
O30 O 0.89736 0.45617 0.29419 0.0
C31 C 0.8417 0.38343 0.26205 0.0
O32 O 0.85107 0.43714 0.23105 0.0
Co33 Co 0.84917 0.39225 0.16927 0.0
O34 O 0.82382 0.40562 0.18098 0.0
C35 C 0.90617 0.43572 0.16858 0.0
C36 C 0.9095 0.44324 0.30618 0.0
C37 C 0.82968 0.42586 0.20679 0.0
O38 O 0.9038 0.44481 0.2061 0.0
O39 O 0.88758 0.4135 0.15069 0.0
O40 O 0.84892 0.40152 0.29359 0.0
O41 O 0.8578 0.39057 0.22947 0.0
Co42 Co 0.4326 0.88678 0.73653 0.0
O43 O 0.44305 0.92177 0.7125 0.0
O44 O 0.46599 0.90009 0.70627 0.0
C45 C 0.3892 0.86482 0.71475 0.0
O46 O 0.42794 0.85037 0.75366 0.0
Co47 Co 0.38908 0.85991 0.80758 0.0
O48 O 0.38912 0.82607 0.7893 0.0
C49 C 0.44422 0.90436 0.83167 0.0
C50 C 0.46351 0.92089 0.69642 0.0
C51 C 0.4093 0.82784 0.76925 0.0
O52 O 0.45238 0.90465 0.79266 0.0
O53 O 0.41959 0.8895 0.84295 0.0
O54 O 0.40791 0.86813 0.68774 0.0
O55 O 0.39754 0.87749 0.75191 0.0
Co56 Co 0.53719 0.41692 0.22012 0.0
O57 O 0.50867 0.4151 0.1848 0.0
O58 O 0.55118 0.44903 0.18524 0.0
C59 C 0.52705 0.37365 0.20626 0.0
O60 O 0.57253 0.42537 0.24892 0.0
Co61 Co 0.52617 0.37962 0.29925 0.0
O62 O 0.56537 0.39286 0.29639 0.0
C63 C 0.51459 0.42471 0.30385 0.0
C64 C 0.52691 0.43821 0.16906 0.0
C65 C 0.58116 0.41368 0.27442 0.0
O66 O 0.52839 0.43528 0.26936 0.0
O67 O 0.50908 0.40135 0.31778 0.0
O68 O 0.54135 0.39256 0.17873 0.0
O69 O 0.51794 0.38105 0.23879 0.0
Co70 Co 0.11214 0.56747 0.75874 0.0
O71 O 0.08551 0.5709 0.79166 0.0
O72 O 0.09487 0.53772 0.79844 0.0
C73 C 0.14483 0.6115 0.76678 0.0
O74 O 0.13926 0.55802 0.73373 0.0
Co75 Co 0.13702 0.59968 0.67453 0.0
O76 O 0.16429 0.58856 0.6836 0.0
C77 C 0.08087 0.55361 0.67427 0.0
C78 C 0.08131 0.54915 0.81159 0.0
C79 C 0.15982 0.56914 0.7087 0.0
O80 O 0.08463 0.54575 0.71127 0.0
O81 O 0.09826 0.57592 0.6568 0.0
O82 O 0.14068 0.59445 0.79748 0.0
O83 O 0.12806 0.60198 0.73445 0.0
H84 H 0.54693 0.1701 0.32752 0.0
H85 H 0.54833 0.21319 0.31433 0.0
H86 H 0.48131 0.17131 0.22417 0.0
H87 H 0.48035 0.12834 0.23625 0.0
H88 H 0.52359 0.21582 0.18911 0.0
H89 H 0.50077 0.2432 0.35145 0.0
H90 H 0.5283 0.23681 0.35192 0.0
H91 H 0.49487 0.20943 0.33801 0.0
C92 C 0.53197 0.16994 0.30592 0.0
C93 C 0.51342 0.14591 0.28302 0.0
C94 C 0.53284 0.19459 0.29834 0.0
C95 C 0.51484 0.1954 0.26842 0.0
C96 C 0.49541 0.17111 0.2473 0.0
H97 H 0.48503 0.3271 0.23471 0.0
H98 H 0.48278 0.28347 0.24521 0.0
C99 C 0.49474 0.14657 0.25447 0.0
C100 C 0.51741 0.22176 0.25662 0.0
H101 H 0.51604 0.27728 0.29808 0.0
C102 C 0.52181 0.22925 0.21285 0.0
C103 C 0.51512 0.23916 0.28771 0.0
C104 C 0.50926 0.23168 0.33483 0.0
C105 C 0.52365 0.25358 0.1992 0.0
C106 C 0.52164 0.27112 0.23039 0.0
C107 C 0.51763 0.26379 0.27424 0.0
C108 C 0.52213 0.29649 0.21839 0.0
C109 C 0.52695 0.25985 0.15144 0.0
C110 C 0.54469 0.31804 0.19853 0.0
C111 C 0.54573 0.34291 0.19161 0.0
C112 C 0.52447 0.34654 0.20535 0.0
C113 C 0.50164 0.32469 0.22384 0.0
C114 C 0.5004 0.29985 0.23002 0.0
H115 H 0.52129 0.24129 0.13092 0.0
H116 H 0.51448 0.26868 0.14127 0.0
H117 H 0.54838 0.27505 0.14517 0.0
H118 H 0.56191 0.31607 0.1901 0.0
H119 H 0.56373 0.3597 0.17798 0.0
H120 H 0.37285 0.57652 0.83558 0.0
H121 H 0.32726 0.56869 0.82714 0.0
H122 H 0.31801 0.52529 0.70546 0.0
H123 H 0.36334 0.53235 0.71433 0.0
H124 H 0.31445 0.59049 0.76295 0.0
H125 H 0.24442 0.47832 0.75675 0.0
H126 H 0.27872 0.49366 0.77667 0.0
H127 H 0.27159 0.48913 0.71916 0.0
C128 C 0.36084 0.56464 0.80761 0.0
C129 C 0.37175 0.55514 0.77555 0.0
C130 C 0.33478 0.56019 0.80281 0.0
C131 C 0.31913 0.54631 0.76575 0.0
C132 C 0.32942 0.53553 0.73479 0.0
H133 H 0.20308 0.58329 0.65601 0.0
H134 H 0.24022 0.57485 0.66784 0.0
C135 C 0.35543 0.53969 0.73984 0.0
C136 C 0.29384 0.54648 0.75689 0.0
H137 H 0.22694 0.50599 0.7309 0.0
C138 C 0.29529 0.57196 0.7563 0.0
C139 C 0.2688 0.52232 0.74839 0.0
C140 C 0.26567 0.49429 0.75068 0.0
C141 C 0.27257 0.57402 0.74699 0.0
C142 C 0.24778 0.54999 0.73672 0.0
C143 C 0.24609 0.52441 0.73807 0.0
C144 C 0.2234 0.55131 0.72565 0.0
C145 C 0.27527 0.60197 0.74891 0.0
C146 C 0.20095 0.53957 0.75285 0.0
C147 C 0.17951 0.54412 0.74596 0.0
C148 C 0.18021 0.56057 0.71175 0.0
C149 C 0.202 0.57082 0.68297 0.0
C150 C 0.22331 0.5661 0.68974 0.0
H151 H 0.29336 0.61702 0.76805 0.0
H152 H 0.27734 0.60964 0.71544 0.0
H153 H 0.25719 0.60103 0.76357 0.0
H154 H 0.20058 0.52797 0.78061 0.0
H155 H 0.16303 0.53582 0.7687 0.0
H156 H 0.59479 0.19907 0.17228 0.0
H157 H 0.64069 0.23866 0.17705 0.0
H158 H 0.65789 0.20348 0.28657 0.0
H159 H 0.61261 0.16376 0.28147 0.0
H160 H 0.66742 0.27622 0.2431 0.0
H161 H 0.7187 0.21792 0.20529 0.0
H162 H 0.68291 0.20355 0.19726 0.0
H163 H 0.69641 0.20437 0.25044 0.0
C164 C 0.60841 0.19974 0.19723 0.0
C165 C 0.60022 0.17808 0.22603 0.0
C166 C 0.63456 0.22236 0.19995 0.0
C167 C 0.6528 0.22363 0.23154 0.0
C168 C 0.64436 0.20249 0.26116 0.0
H169 H 0.80158 0.36631 0.32192 0.0
H170 H 0.75536 0.32767 0.31412 0.0
C171 C 0.61842 0.17983 0.25823 0.0
C172 C 0.68067 0.24709 0.23398 0.0
H173 H 0.74637 0.26322 0.23465 0.0
C174 C 0.68473 0.27347 0.24093 0.0
C175 C 0.70315 0.24341 0.23045 0.0
C176 C 0.70012 0.21582 0.21999 0.0
C177 C 0.71079 0.2963 0.24553 0.0
C178 C 0.7332 0.29239 0.24424 0.0
C179 C 0.72911 0.26608 0.23629 0.0
C180 C 0.76118 0.31536 0.24981 0.0
C181 C 0.71405 0.32436 0.25095 0.0
C182 C 0.77996 0.32046 0.21705 0.0
C183 C 0.8064 0.34209 0.22177 0.0
C184 C 0.81449 0.3591 0.25928 0.0
C185 C 0.79585 0.35358 0.29258 0.0
C186 C 0.7694 0.33174 0.28797 0.0
H187 H 0.69595 0.32462 0.23899 0.0
H188 H 0.71686 0.33041 0.28595 0.0
H189 H 0.73193 0.3399 0.23328 0.0
H190 H 0.77405 0.3079 0.18751 0.0
H191 H 0.82033 0.34577 0.19561 0.0
H192 H 0.36993 0.77426 0.77926 0.0
H193 H 0.37355 0.73353 0.76491 0.0
H194 H 0.45688 0.78496 0.73012 0.0
H195 H 0.45344 0.82558 0.74367 0.0
H196 H 0.42752 0.74199 0.67091 0.0
H197 H 0.4133 0.70639 0.84112 0.0
H198 H 0.38711 0.71128 0.81923 0.0
H199 H 0.4204 0.74024 0.8278 0.0
C200 C 0.38909 0.77687 0.76896 0.0
C201 C 0.41145 0.80314 0.76286 0.0
C202 C 0.3911 0.75361 0.76078 0.0
C203 C 0.41554 0.75634 0.74684 0.0
C204 C 0.43784 0.78249 0.74081 0.0
H205 H 0.47808 0.64883 0.75671 0.0
H206 H 0.46818 0.68592 0.76212 0.0
C207 C 0.43583 0.80567 0.74871 0.0
C208 C 0.41823 0.73212 0.73823 0.0
H209 H 0.4191 0.67939 0.78784 0.0
C210 C 0.42553 0.72815 0.69634 0.0
C211 C 0.41577 0.71433 0.77166 0.0
C212 C 0.40893 0.71828 0.8176 0.0
C213 C 0.43104 0.70715 0.68717 0.0
C214 C 0.42873 0.68948 0.72067 0.0
C215 C 0.42081 0.69304 0.76228 0.0
C216 C 0.43585 0.66804 0.71417 0.0
C217 C 0.44026 0.70468 0.64226 0.0
C218 C 0.42121 0.64599 0.68484 0.0
C219 C 0.42703 0.6249 0.68133 0.0
C220 C 0.44732 0.62547 0.70757 0.0
C221 C 0.46235 0.64791 0.73609 0.0
C222 C 0.45666 0.66902 0.73934 0.0
H223 H 0.44664 0.7234 0.62327 0.0
H224 H 0.45733 0.70082 0.64409 0.0
H225 H 0.42339 0.68715 0.62434 0.0
H226 H 0.40478 0.64468 0.66568 0.0
H227 H 0.41493 0.60767 0.65945 0.0
H228 H 0.60905 0.40194 0.33393 0.0
H229 H 0.65593 0.41304 0.33007 0.0
H230 H 0.666 0.45741 0.21281 0.0
H231 H 0.61951 0.44719 0.2172 0.0
H232 H 0.6742 0.39508 0.26752 0.0
H233 H 0.73639 0.50804 0.27309 0.0
H234 H 0.70136 0.49004 0.28827 0.0
H235 H 0.71053 0.49608 0.23194 0.0
C236 C 0.62141 0.4146 0.30786 0.0
C237 C 0.61046 0.42357 0.27578 0.0
C238 C 0.64824 0.42096 0.30572 0.0
C239 C 0.66465 0.43629 0.27138 0.0
C240 C 0.65406 0.44617 0.24026 0.0
H241 H 0.78649 0.41308 0.15395 0.0
H242 H 0.74834 0.41914 0.17054 0.0
C243 C 0.62732 0.4401 0.24265 0.0
C244 C 0.6914 0.43879 0.26495 0.0
H245 H 0.75755 0.4839 0.24293 0.0
C246 C 0.69246 0.41458 0.26276 0.0
C247 C 0.71533 0.46422 0.25902 0.0
C248 C 0.71593 0.49107 0.26366 0.0
C249 C 0.71646 0.41497 0.25343 0.0
C250 C 0.73998 0.44018 0.24491 0.0
C251 C 0.73933 0.46456 0.24869 0.0
C252 C 0.76514 0.44112 0.23148 0.0
C253 C 0.71641 0.38829 0.25264 0.0
C254 C 0.78787 0.45288 0.25911 0.0
C255 C 0.80991 0.44962 0.24958 0.0
C256 C 0.80945 0.4345 0.2123 0.0
C257 C 0.78742 0.42457 0.18317 0.0
C258 C 0.76555 0.42795 0.19262 0.0
H259 H 0.69913 0.37223 0.27077 0.0
H260 H 0.71471 0.38084 0.21847 0.0
H261 H 0.73539 0.39102 0.26688 0.0
H262 H 0.78795 0.46324 0.28918 0.0
H263 H 0.82653 0.45754 0.27272 0.0
H264 H 0.37247 0.81721 0.66867 0.0
H265 H 0.32926 0.77484 0.67539 0.0
H266 H 0.30063 0.81706 0.75808 0.0
H267 H 0.34434 0.85921 0.75305 0.0
H268 H 0.29336 0.77248 0.79486 0.0
H269 H 0.25553 0.74584 0.62498 0.0
H270 H 0.28869 0.75072 0.63107 0.0
H271 H 0.28338 0.77909 0.64079 0.0
C272 C 0.35664 0.81764 0.6871 0.0
C273 C 0.36157 0.84145 0.71011 0.0
C274 C 0.33194 0.7934 0.69094 0.0
C275 C 0.31159 0.79283 0.71689 0.0
C276 C 0.31605 0.81705 0.7379 0.0
H277 H 0.1494 0.65502 0.72525 0.0
H278 H 0.18995 0.69958 0.71649 0.0
C279 C 0.3409 0.84112 0.73476 0.0
C280 C 0.2867 0.76659 0.72552 0.0
H281 H 0.23409 0.71033 0.67639 0.0
C282 C 0.28023 0.759 0.76896 0.0
C283 C 0.26958 0.74908 0.69175 0.0
C284 C 0.27449 0.75672 0.64458 0.0
C285 C 0.25709 0.73437 0.7796 0.0
C286 C 0.24048 0.71642 0.74577 0.0
C287 C 0.24695 0.72402 0.70233 0.0
C288 C 0.21573 0.69004 0.75439 0.0
C289 C 0.25043 0.72825 0.82695 0.0
C290 C 0.21663 0.66996 0.77918 0.0
C291 C 0.19324 0.64465 0.78511 0.0
C292 C 0.16888 0.63891 0.76534 0.0
C293 C 0.168 0.65903 0.74084 0.0
C294 C 0.19115 0.68442 0.73569 0.0
H295 H 0.26028 0.74721 0.84767 0.0
H296 H 0.22833 0.71771 0.83213 0.0
H297 H 0.25788 0.71472 0.83799 0.0
H298 H 0.23551 0.67356 0.79295 0.0
H299 H 0.19445 0.62923 0.80353 0.0
H300 H 0.43368 0.91792 0.91142 0.0
H301 H 0.46552 0.94494 0.96902 0.0
H302 H 0.53161 0.95575 0.88891 0.0
H303 H 0.49954 0.92891 0.82992 0.0
H304 H 0.50351 0.93682 0.01339 0.0
H305 H 0.55204 0.03429 0.92268 0.0
H306 H 0.52105 0.00505 0.90297 0.0
H307 H 0.55204 0.00472 0.90012 0.0
C308 C 0.45495 0.92596 0.9058 0.0
C309 C 0.46406 0.92137 0.86594 0.0
C310 C 0.47315 0.94127 0.93896 0.0
C311 C 0.5009 0.95228 0.93329 0.0
C312 C 0.51026 0.9476 0.89377 0.0
H313 H 0.55915 0.05025 0.17812 0.0
H314 H 0.56362 0.02132 0.12178 0.0
C315 C 0.49194 0.93235 0.86015 0.0
C316 C 0.51931 0.96994 0.96865 0.0
H317 H 0.55363 0.03753 -0.00155 0.0
C318 C 0.51541 0.95886 0.0102 0.0
C319 C 0.53517 -0.00141 0.9641 0.0
C320 C 0.54043 0.01156 0.92019 0.0
C321 C 0.52346 0.9758 0.04769 0.0
C322 C 0.53609 0.00439 0.04305 0.0
C323 C 0.54363 0.0155 0.00161 0.0
C324 C 0.53459 0.02193 0.07779 0.0
C325 C 0.51553 0.96298 0.09165 0.0
C326 C 0.5167 0.03155 0.07166 0.0
C327 C 0.51415 0.04791 0.10329 0.0
C328 C 0.52939 0.05501 0.14204 0.0
C329 C 0.54701 0.04496 0.14868 0.0
C330 C 0.54968 0.02856 0.11657 0.0
H331 H 0.50577 0.94032 0.08953 0.0
H332 H 0.53366 0.97114 0.11301 0.0
H333 H 0.50134 0.96835 0.1072 0.0
H334 H 0.5046 0.02632 0.04215 0.0
H335 H 0.50025 0.05509 0.09717 0.0
H336 H 0.54282 0.47943 0.32557 0.0
H337 H 0.53264 0.50163 0.38628 0.0
H338 H 0.45698 0.42711 0.40506 0.0
H339 H 0.46728 0.4048 0.34552 0.0
H340 H 0.48819 0.50925 0.41083 0.0
H341 H 0.49993 0.43863 0.51869 0.0
H342 H 0.51039 0.44322 0.46274 0.0
H343 H 0.47543 0.42155 0.47581 0.0
C344 C 0.5237 0.46814 0.3419 0.0
C345 C 0.50596 0.44036 0.33142 0.0
C346 C 0.51797 0.48074 0.37662 0.0
C347 C 0.49441 0.4657 0.40077 0.0
C348 C 0.47556 0.43882 0.38745 0.0
H349 H 0.42576 0.48897 0.63594 0.0
H350 H 0.43555 0.47177 0.56872 0.0
C351 C 0.48139 0.42617 0.35334 0.0
C352 C 0.49048 0.47691 0.44216 0.0
H353 H 0.48301 0.46525 0.55108 0.0
C354 C 0.48724 0.49981 0.44156 0.0
C355 C 0.48942 0.46455 0.48219 0.0
C356 C 0.49423 0.44079 0.48513 0.0
C357 C 0.48214 0.5102 0.47997 0.0
C358 C 0.48053 0.49745 0.51974 0.0
C359 C 0.4841 0.47479 0.52039 0.0
C360 C 0.47517 0.50736 0.56117 0.0
C361 C 0.47792 0.53434 0.47776 0.0
C362 C 0.49458 0.53261 0.57966 0.0
C363 C 0.48919 0.54234 0.61817 0.0
C364 C 0.46423 0.52698 0.63874 0.0
C365 C 0.44516 0.50125 0.62085 0.0
C366 C 0.45066 0.49146 0.58243 0.0
H367 H 0.47502 0.53871 0.4438 0.0
H368 H 0.46011 0.53063 0.49703 0.0
H369 H 0.49583 0.55277 0.49193 0.0
H370 H 0.51379 0.54491 0.564 0.0
H371 H 0.50431 0.56224 0.63112 0.0
H372 H 0.06355 0.50107 0.8535 0.0
H373 H 0.03678 0.48638 0.9197 0.0
H374 H 0.0341 0.56112 0.92371 0.0
H375 H 0.05997 0.57544 0.85682 0.0
H376 H 0.04873 0.50994 -0.00016 0.0
H377 H 0.95588 0.50541 0.9378 0.0
H378 H 0.98224 0.50873 0.90229 0.0
H379 H 0.98572 0.53818 0.93174 0.0
C380 C 0.05691 0.51417 0.86817 0.0
C381 C 0.06363 0.53927 0.84976 0.0
C382 C 0.04174 0.50583 0.90609 0.0
C383 C 0.03314 0.52249 0.92639 0.0
C384 C 0.03991 0.5476 0.90808 0.0
H385 H 0.9365 0.49151 0.16253 0.0
H386 H 0.97167 0.51687 0.10869 0.0
C387 C 0.05478 0.55579 0.86989 0.0
C388 C 0.01769 0.51382 0.96727 0.0
H389 H 0.95784 0.49894 0.01306 0.0
C390 C 0.0289 0.50763 0.00274 0.0
C391 C -0.00817 0.51091 0.97112 0.0
C392 C 0.97807 0.5159 0.93361 0.0
C393 C 0.01474 0.49815 0.04162 0.0
C394 C 0.98883 0.4949 0.04511 0.0
C395 C 0.97793 0.50187 0.0103 0.0
C396 C 0.97119 0.48095 0.08211 0.0
C397 C 0.02728 0.49117 0.07851 0.0
C398 C 0.95979 0.45259 0.0852 0.0
C399 C 0.93963 0.43816 0.11521 0.0
C400 C 0.93068 0.45188 0.14298 0.0
C401 C 0.94324 0.48053 0.14171 0.0
C402 C 0.96318 0.49497 0.11098 0.0
H403 H 0.04937 0.5003 0.07453 0.0
H404 H 0.02347 0.49838 0.11011 0.0
H405 H 0.01797 0.4686 0.07955 0.0
H406 H 0.96552 0.44142 0.06286 0.0
H407 H 0.93031 0.41608 0.11562 0.0
H408 H 0.48786 0.02491 0.34701 0.0
H409 H 0.48501 0.00028 0.41278 0.0
H410 H 0.57173 0.03978 0.41874 0.0
H411 H 0.57484 0.06484 0.35315 0.0
H412 H 0.50477 0.96554 0.43701 0.0
H413 H 0.55146 0.06345 0.53387 0.0
H414 H 0.53924 0.06072 0.4789 0.0
H415 H 0.57052 0.06178 0.48883 0.0
C416 C 0.50632 0.02802 0.36185 0.0
C417 C 0.53158 0.04707 0.34529 0.0
C418 C 0.50465 0.01393 0.3994 0.0
C419 C 0.52819 0.01868 0.42096 0.0
C420 C 0.55338 0.03628 0.40292 0.0
H421 H 0.5052 0.92162 0.65269 0.0
H422 H 0.52708 0.94767 0.58786 0.0
C423 C 0.55508 0.05043 0.36536 0.0
C424 C 0.52608 0.00661 0.46386 0.0
H425 H 0.53607 0.023 0.57235 0.0
C426 C 0.51197 0.97803 0.46663 0.0
C427 C 0.53532 0.02312 0.5023 0.0
C428 C 0.54982 0.05397 0.50116 0.0
C429 C 0.50597 0.96542 0.50702 0.0
C430 C 0.51473 0.98193 0.5455 0.0
C431 C 0.52967 0.0105 0.54269 0.0
C432 C 0.50567 0.96991 0.58867 0.0
C433 C 0.48902 0.9346 0.50823 0.0
C434 C 0.48766 0.97507 0.61186 0.0
C435 C 0.47529 0.96043 0.64899 0.0
C436 C 0.48076 0.94038 0.66344 0.0
C437 C 0.50042 0.93679 0.6421 0.0
C438 C 0.51283 0.95152 0.60496 0.0
H439 H 0.48014 0.92525 0.47587 0.0
H440 H 0.50176 0.92621 0.51893 0.0
H441 H 0.4724 0.9283 0.53179 0.0
H442 H 0.48202 0.98934 0.59986 0.0
H443 H 0.46035 0.96375 0.66487 0.0
H444 H 0.51213 0.58097 0.86721 0.0
H445 H 0.52306 0.55839 0.92346 0.0
H446 H 0.45658 0.48018 0.87994 0.0
H447 H 0.446 0.50272 0.82243 0.0
H448 H 0.48968 0.53181 0.98849 0.0
H449 H 0.51484 0.46145 0.89969 0.0
H450 H 0.51333 0.48879 0.87333 0.0
H451 H 0.48283 0.45731 0.88442 0.0
C452 C 0.50017 0.55888 0.869 0.0
C453 C 0.47813 0.54359 0.8406 0.0
C454 C 0.50643 0.54601 0.90119 0.0
C455 C 0.49069 0.51761 0.90592 0.0
C456 C 0.46933 0.50207 0.87641 0.0
H457 H 0.48036 0.41588 0.12097 0.0
H458 H 0.47115 0.43492 0.05696 0.0
C459 C 0.46325 0.51495 0.84365 0.0
C460 C 0.49518 0.505 0.94433 0.0
H461 H 0.50952 0.45636 0.97629 0.0
C462 C 0.49415 0.5154 0.98574 0.0
C463 C 0.50088 0.48351 0.94072 0.0
C464 C 0.5033 0.47224 0.89716 0.0
C465 C 0.49869 0.50494 0.02357 0.0
C466 C 0.50438 0.48353 0.01992 0.0
C467 C 0.50511 0.47282 0.97873 0.0
C468 C 0.50993 0.47227 0.05876 0.0
C469 C 0.49724 0.51666 0.06732 0.0
C470 C 0.53475 0.48716 0.08088 0.0
C471 C 0.54014 0.47635 0.11735 0.0
C472 C 0.52069 0.45054 0.13234 0.0
C473 C 0.49569 0.43588 0.11036 0.0
C474 C 0.49043 0.44662 0.0737 0.0
H475 H 0.48908 0.53065 0.06487 0.0
H476 H 0.48439 0.49992 0.08955 0.0
H477 H 0.51776 0.52829 0.08207 0.0
H478 H 0.55002 0.50701 0.06963 0.0
H479 H 0.55959 0.48808 0.13352 0.0
H480 H 0.05226 0.57017 0.62766 0.0
H481 H 0.01735 0.54352 0.57306 0.0
H482 H 0.01966 0.47116 0.60608 0.0
H483 H 0.05465 0.49792 0.66171 0.0
H484 H 0.03059 0.48844 0.5155 0.0
H485 H 0.93661 0.48177 0.5753 0.0
H486 H 0.9661 0.51513 0.5822 0.0
H487 H 0.96373 0.48684 0.61124 0.0
C488 C 0.04476 0.5484 0.62418 0.0
C489 C 0.05609 0.53604 0.64874 0.0
C490 C 0.02475 0.53319 0.59313 0.0
C491 C 0.01584 0.50538 0.58578 0.0
C492 C 0.02616 0.49258 0.61167 0.0
H493 H 0.93003 0.41536 0.34692 0.0
H494 H 0.95522 0.42772 0.41566 0.0
C495 C 0.04598 0.50779 0.64345 0.0
C496 C -0.00131 0.49122 0.54716 0.0
H497 H 0.93937 0.47626 0.49835 0.0
C498 C 0.0104 0.48517 0.51188 0.0
C499 C 0.97256 0.48737 0.54261 0.0
C500 C 0.95886 0.49289 0.57997 0.0
C501 C -0.00275 0.47683 0.47124 0.0
C502 C 0.97143 0.47385 0.46622 0.0
C503 C 0.95926 0.47877 0.50215 0.0
C504 C 0.95706 0.46667 0.42368 0.0
C505 C 0.01176 0.47276 0.43354 0.0
C506 C 0.94948 0.48434 0.40552 0.0
C507 C 0.93482 0.47721 0.36644 0.0
C508 C 0.92752 0.45227 0.34479 0.0
C509 C 0.93562 0.43487 0.36257 0.0
C510 C 0.95008 0.44192 0.40184 0.0
H511 H 0.03377 0.48258 0.44006 0.0
H512 H 0.00367 0.45052 0.42783 0.0
H513 H 0.00865 0.48124 0.40335 0.0
H514 H 0.95467 0.50356 0.42187 0.0
H515 H 0.92877 0.49098 0.35366 0.0
loop_
_geom_bond_atom_site_label_1
_geom_bond_atom_site_label_2
_geom_bond_distance
_geom_bond_site_symmetry_2
_ccdc_geom_bond_type
Co0 O1 2.216 . S
Co0 O2 2.091 . S
Co0 O4 2.004 . S
Co0 O10 2.021 . S
Co0 O12 2.137 . S
Co0 O13 2.244 . S
O1 Co0 2.216 . S
O1 C8 1.247 . S
O2 Co0 2.091 . S
O2 C8 1.261 . S
C3 O12 1.247 . S
C3 O13 1.272 . S
O4 Co0 2.004 . S
O4 C9 1.259 . S
Co5 O6 2.061 . S
Co5 O11 2.052 . S
Co5 O13 2.135 . S
O6 Co5 2.061 . S
O6 C9 1.235 . S
C7 O10 1.238 . S
C7 O11 1.241 . S
C8 O1 1.247 . S
C8 O2 1.261 . S
C9 O4 1.259 . S
C9 O6 1.235 . S
O10 Co0 2.021 . S
O10 C7 1.238 . S
O11 Co5 2.052 . S
O11 C7 1.241 . S
O12 Co0 2.137 . S
O12 C3 1.247 . S
O13 Co0 2.244 . S
O13 C3 1.272 . S
O13 Co5 2.135 . S
Co14 O15 2.216 . S
Co14 O16 2.091 . S
Co14 O18 2.004 . S
Co14 O24 2.021 . S
Co14 O26 2.137 . S
Co14 O27 2.244 . S
O15 Co14 2.216 . S
O15 C22 1.247 . S
O16 Co14 2.091 . S
O16 C22 1.261 . S
C17 O26 1.247 . S
C17 O27 1.272 . S
O18 Co14 2.004 . S
O18 C23 1.259 . S
Co19 O20 2.061 . S
Co19 O25 2.052 . S
Co19 O27 2.135 . S
O20 Co19 2.061 . S
O20 C23 1.235 . S
C21 O24 1.238 . S
C21 O25 1.241 . S
C22 O15 1.247 . S
C22 O16 1.261 . S
C23 O18 1.259 . S
C23 O20 1.235 . S
O24 Co14 2.021 . S
O24 C21 1.238 . S
O25 Co19 2.052 . S
O25 C21 1.241 . S
O26 Co14 2.137 . S
O26 C17 1.247 . S
O27 Co14 2.244 . S
O27 C17 1.272 . S
O27 Co19 2.135 . S
Co28 O29 2.216 . S
Co28 O30 2.091 . S
Co28 O32 2.004 . S
Co28 O38 2.021 . S
Co28 O40 2.137 . S
Co28 O41 2.244 . S
O29 Co28 2.216 . S
O29 C36 1.247 . S
O30 Co28 2.091 . S
O30 C36 1.261 . S
C31 O40 1.247 . S
C31 O41 1.272 . S
O32 Co28 2.004 . S
O32 C37 1.259 . S
Co33 O34 2.061 . S
Co33 O39 2.052 . S
Co33 O41 2.135 . S
O34 Co33 2.061 . S
O34 C37 1.235 . S
C35 O38 1.238 . S
C35 O39 1.241 . S
C36 O29 1.247 . S
C36 O30 1.261 . S
C37 O32 1.259 . S
C37 O34 1.235 . S
O38 Co28 2.021 . S
O38 C35 1.238 . S
O39 Co33 2.052 . S
O39 C35 1.241 . S
O40 Co28 2.137 . S
O40 C31 1.247 . S
O41 Co28 2.244 . S
O41 C31 1.272 . S
O41 Co33 2.135 . S
Co42 O43 2.216 . S
Co42 O44 2.091 . S
Co42 O46 2.004 . S
Co42 O52 2.021 . S
Co42 O54 2.137 . S
Co42 O55 2.244 . S
O43 Co42 2.216 . S
O43 C50 1.247 . S
O44 Co42 2.091 . S
O44 C50 1.261 . S
C45 O54 1.247 . S
C45 O55 1.272 . S
O46 Co42 2.004 . S
O46 C51 1.259 . S
Co47 O48 2.061 . S
Co47 O53 2.052 . S
Co47 O55 2.135 . S
O48 Co47 2.061 . S
O48 C51 1.235 . S
C49 O52 1.238 . S
C49 O53 1.241 . S
C50 O43 1.247 . S
C50 O44 1.261 . S
C51 O46 1.259 . S
C51 O48 1.235 . S
O52 Co42 2.021 . S
O52 C49 1.238 . S
O53 Co47 2.052 . S
O53 C49 1.241 . S
O54 Co42 2.137 . S
O54 C45 1.247 . S
O55 Co42 2.244 . S
O55 C45 1.272 . S
O55 Co47 2.135 . S
Co56 O57 2.216 . S
Co56 O58 2.091 . S
Co56 O60 2.004 . S
Co56 O66 2.021 . S
Co56 O68 2.137 . S
Co56 O69 2.244 . S
O57 Co56 2.216 . S
O57 C64 1.247 . S
O58 Co56 2.091 . S
O58 C64 1.261 . S
C59 O68 1.247 . S
C59 O69 1.272 . S
O60 Co56 2.004 . S
O60 C65 1.259 . S
Co61 O62 2.061 . S
Co61 O67 2.052 . S
Co61 O69 2.135 . S
O62 Co61 2.061 . S
O62 C65 1.235 . S
C63 O66 1.238 . S
C63 O67 1.241 . S
C64 O57 1.247 . S
C64 O58 1.261 . S
C65 O60 1.259 . S
C65 O62 1.235 . S
O66 Co56 2.021 . S
O66 C63 1.238 . S
O67 Co61 2.052 . S
O67 C63 1.241 . S
O68 Co56 2.137 . S
O68 C59 1.247 . S
O69 Co56 2.244 . S
O69 C59 1.272 . S
O69 Co61 2.135 . S
Co70 O71 2.216 . S
Co70 O72 2.091 . S
Co70 O74 2.004 . S
Co70 O80 2.021 . S
Co70 O82 2.137 . S
Co70 O83 2.244 . S
O71 Co70 2.216 . S
O71 C78 1.247 . S
O72 Co70 2.091 . S
O72 C78 1.261 . S
C73 O82 1.247 . S
C73 O83 1.272 . S
O74 Co70 2.004 . S
O74 C79 1.259 . S
Co75 O76 2.061 . S
Co75 O81 2.052 . S
Co75 O83 2.135 . S
O76 Co75 2.061 . S
O76 C79 1.235 . S
C77 O80 1.238 . S
C77 O81 1.241 . S
C78 O71 1.247 . S
C78 O72 1.261 . S
C79 O74 1.259 . S
C79 O76 1.235 . S
O80 Co70 2.021 . S
O80 C77 1.238 . S
O81 Co75 2.052 . S
O81 C77 1.241 . S
O82 Co70 2.137 . S
O82 C73 1.247 . S
O83 Co70 2.244 . S
O83 C73 1.272 . S
O83 Co75 2.135 . S
H84 C92 0.929 . S
H85 C94 0.930 . S
H86 C96 0.930 . S
H87 C99 0.929 . S
H88 C102 0.930 . S
H89 C104 0.960 . S
H90 C104 0.960 . S
H91 C104 0.960 . S
C92 H84 0.929 . S
C92 C93 1.377 . S
C92 C94 1.384 . S
C93 C92 1.377 . S
C93 C99 1.390 . S
C94 H85 0.930 . S
C94 C92 1.384 . S
C94 C95 1.372 . S
C95 C94 1.372 . S
C95 C96 1.400 . S
C95 C100 1.490 . S
C96 H86 0.930 . S
C96 C95 1.400 . S
C96 C99 1.386 . S
H97 C113 0.930 . S
H98 C114 0.931 . S
C99 H87 0.929 . S
C99 C93 1.390 . S
C99 C96 1.386 . S
C100 C95 1.490 . S
C100 C102 1.395 . S
C100 C103 1.403 . S
H101 C107 0.930 . S
C102 H88 0.930 . S
C102 C100 1.395 . S
C102 C105 1.403 . S
C103 C100 1.403 . S
C103 C104 1.524 . S
C103 C107 1.400 . S
C104 H89 0.960 . S
C104 H90 0.960 . S
C104 H91 0.960 . S
C104 C103 1.524 . S
C105 C102 1.403 . S
C105 C106 1.392 . S
C105 C109 1.495 . S
C106 C105 1.392 . S
C106 C107 1.385 . S
C106 C108 1.478 . S
C107 H101 0.930 . S
C107 C103 1.400 . S
C107 C106 1.385 . S
C108 C106 1.478 . S
C108 C110 1.381 . S
C108 C114 1.383 . S
C109 C105 1.495 . S
C109 H115 0.959 . S
C109 H116 0.961 . S
C109 H117 0.960 . S
C110 C108 1.381 . S
C110 C111 1.394 . S
C110 H118 0.930 . S
C111 C110 1.394 . S
C111 C112 1.383 . S
C111 H119 0.929 . S
C112 C111 1.383 . S
C112 C113 1.377 . S
C113 H97 0.930 . S
C113 C112 1.377 . S
C113 C114 1.379 . S
C114 H98 0.931 . S
C114 C108 1.383 . S
C114 C113 1.379 . S
H115 C109 0.959 . S
H116 C109 0.961 . S
H117 C109 0.960 . S
H118 C110 0.930 . S
H119 C111 0.929 . S
H120 C128 0.929 . S
H121 C130 0.930 . S
H122 C132 0.930 . S
H123 C135 0.929 . S
H124 C138 0.930 . S
H125 C140 0.960 . S
H126 C140 0.960 . S
H127 C140 0.960 . S
C128 H120 0.929 . S
C128 C129 1.377 . S
C128 C130 1.384 . S
C129 C128 1.377 . S
C129 C135 1.390 . S
C130 H121 0.930 . S
C130 C128 1.384 . S
C130 C131 1.372 . S
C131 C130 1.372 . S
C131 C132 1.400 . S
C131 C136 1.490 . S
C132 H122 0.930 . S
C132 C131 1.400 . S
C132 C135 1.386 . S
H133 C149 0.930 . S
H134 C150 0.931 . S
C135 H123 0.929 . S
C135 C129 1.390 . S
C135 C132 1.386 . S
C136 C131 1.490 . S
C136 C138 1.395 . S
C136 C139 1.403 . S
H137 C143 0.930 . S
C138 H124 0.930 . S
C138 C136 1.395 . S
C138 C141 1.403 . S
C139 C136 1.403 . S
C139 C140 1.524 . S
C139 C143 1.400 . S
C140 H125 0.960 . S
C140 H126 0.960 . S
C140 H127 0.960 . S
C140 C139 1.524 . S
C141 C138 1.403 . S
C141 C142 1.392 . S
C141 C145 1.495 . S
C142 C141 1.392 . S
C142 C143 1.385 . S
C142 C144 1.478 . S
C143 H137 0.930 . S
C143 C139 1.400 . S
C143 C142 1.385 . S
C144 C142 1.478 . S
C144 C146 1.381 . S
C144 C150 1.383 . S
C145 C141 1.495 . S
C145 H151 0.959 . S
C145 H152 0.961 . S
C145 H153 0.960 . S
C146 C144 1.381 . S
C146 C147 1.394 . S
C146 H154 0.930 . S
C147 C146 1.394 . S
C147 C148 1.383 . S
C147 H155 0.929 . S
C148 C147 1.383 . S
C148 C149 1.377 . S
C149 H133 0.930 . S
C149 C148 1.377 . S
C149 C150 1.379 . S
C150 H134 0.931 . S
C150 C144 1.383 . S
C150 C149 1.379 . S
H151 C145 0.959 . S
H152 C145 0.961 . S
H153 C145 0.960 . S
H154 C146 0.930 . S
H155 C147 0.929 . S
H156 C164 0.929 . S
H157 C166 0.930 . S
H158 C168 0.930 . S
H159 C171 0.929 . S
H160 C174 0.930 . S
H161 C176 0.960 . S
H162 C176 0.960 . S
H163 C176 0.960 . S
C164 H156 0.929 . S
C164 C165 1.377 . S
C164 C166 1.384 . S
C165 C164 1.377 . S
C165 C171 1.390 . S
C166 H157 0.930 . S
C166 C164 1.384 . S
C166 C167 1.372 . S
C167 C166 1.372 . S
C167 C168 1.400 . S
C167 C172 1.490 . S
C168 H158 0.930 . S
C168 C167 1.400 . S
C168 C171 1.386 . S
H169 C185 0.930 . S
H170 C186 0.931 . S
C171 H159 0.929 . S
C171 C165 1.390 . S
C171 C168 1.386 . S
C172 C167 1.490 . S
C172 C174 1.395 . S
C172 C175 1.403 . S
H173 C179 0.930 . S
C174 H160 0.930 . S
C174 C172 1.395 . S
C174 C177 1.403 . S
C175 C172 1.403 . S
C175 C176 1.524 . S
C175 C179 1.400 . S
C176 H161 0.960 . S
C176 H162 0.960 . S
C176 H163 0.960 . S
C176 C175 1.524 . S
C177 C174 1.403 . S
C177 C178 1.392 . S
C177 C181 1.495 . S
C178 C177 1.392 . S
C178 C179 1.385 . S
C178 C180 1.478 . S
C179 H173 0.930 . S
C179 C175 1.400 . S
C179 C178 1.385 . S
C180 C178 1.478 . S
C180 C182 1.381 . S
C180 C186 1.383 . S
C181 C177 1.495 . S
C181 H187 0.959 . S
C181 H188 0.961 . S
C181 H189 0.960 . S
C182 C180 1.381 . S
C182 C183 1.394 . S
C182 H190 0.930 . S
C183 C182 1.394 . S
C183 C184 1.383 . S
C183 H191 0.929 . S
C184 C183 1.383 . S
C184 C185 1.377 . S
C185 H169 0.930 . S
C185 C184 1.377 . S
C185 C186 1.379 . S
C186 H170 0.931 . S
C186 C180 1.383 . S
C186 C185 1.379 . S
H187 C181 0.959 . S
H188 C181 0.961 . S
H189 C181 0.960 . S
H190 C182 0.930 . S
H191 C183 0.929 . S
H192 C200 0.929 . S
H193 C202 0.930 . S
H194 C204 0.930 . S
H195 C207 0.929 . S
H196 C210 0.930 . S
H197 C212 0.960 . S
H198 C212 0.960 . S
H199 C212 0.960 . S
C200 H192 0.929 . S
C200 C201 1.377 . S
C200 C202 1.384 . S
C201 C200 1.377 . S
C201 C207 1.390 . S
C202 H193 0.930 . S
C202 C200 1.384 . S
C202 C203 1.372 . S
C203 C202 1.372 . S
C203 C204 1.400 . S
C203 C208 1.490 . S
C204 H194 0.930 . S
C204 C203 1.400 . S
C204 C207 1.386 . S
H205 C221 0.930 . S
H206 C222 0.931 . S
C207 H195 0.929 . S
C207 C201 1.390 . S
C207 C204 1.386 . S
C208 C203 1.490 . S
C208 C210 1.395 . S
C208 C211 1.403 . S
H209 C215 0.930 . S
C210 H196 0.930 . S
C210 C208 1.395 . S
C210 C213 1.403 . S
C211 C208 1.403 . S
C211 C212 1.524 . S
C211 C215 1.400 . S
C212 H197 0.960 . S
C212 H198 0.960 . S
C212 H199 0.960 . S
C212 C211 1.524 . S
C213 C210 1.403 . S
C213 C214 1.392 . S
C213 C217 1.495 . S
C214 C213 1.392 . S
C214 C215 1.385 . S
C214 C216 1.478 . S
C215 H209 0.930 . S
C215 C211 1.400 . S
C215 C214 1.385 . S
C216 C214 1.478 . S
C216 C218 1.381 . S
C216 C222 1.383 . S
C217 C213 1.495 . S
C217 H223 0.959 . S
C217 H224 0.961 . S
C217 H225 0.960 . S
C218 C216 1.381 . S
C218 C219 1.394 . S
C218 H226 0.930 . S
C219 C218 1.394 . S
C219 C220 1.383 . S
C219 H227 0.929 . S
C220 C219 1.383 . S
C220 C221 1.377 . S
C221 H205 0.930 . S
C221 C220 1.377 . S
C221 C222 1.379 . S
C222 H206 0.931 . S
C222 C216 1.383 . S
C222 C221 1.379 . S
H223 C217 0.959 . S
H224 C217 0.961 . S
H225 C217 0.960 . S
H226 C218 0.930 . S
H227 C219 0.929 . S
H228 C236 0.929 . S
H229 C238 0.930 . S
H230 C240 0.930 . S
H231 C243 0.929 . S
H232 C246 0.930 . S
H233 C248 0.960 . S
H234 C248 0.960 . S
H235 C248 0.960 . S
C236 H228 0.929 . S
C236 C237 1.377 . S
C236 C238 1.384 . S
C237 C236 1.377 . S
C237 C243 1.390 . S
C238 H229 0.930 . S
C238 C236 1.384 . S
C238 C239 1.372 . S
C239 C238 1.372 . S
C239 C240 1.400 . S
C239 C244 1.490 . S
C240 H230 0.930 . S
C240 C239 1.400 . S
C240 C243 1.386 . S
H241 C257 0.930 . S
H242 C258 0.931 . S
C243 H231 0.929 . S
C243 C237 1.390 . S
C243 C240 1.386 . S
C244 C239 1.490 . S
C244 C246 1.395 . S
C244 C247 1.403 . S
H245 C251 0.930 . S
C246 H232 0.930 . S
C246 C244 1.395 . S
C246 C249 1.403 . S
C247 C244 1.403 . S
C247 C248 1.524 . S
C247 C251 1.400 . S
C248 H233 0.960 . S
C248 H234 0.960 . S
C248 H235 0.960 . S
C248 C247 1.524 . S
C249 C246 1.403 . S
C249 C250 1.392 . S
C249 C253 1.495 . S
C250 C249 1.392 . S
C250 C251 1.385 . S
C250 C252 1.478 . S
C251 H245 0.930 . S
C251 C247 1.400 . S
C251 C250 1.385 . S
C252 C250 1.478 . S
C252 C254 1.381 . S
C252 C258 1.383 . S
C253 C249 1.495 . S
C253 H259 0.959 . S
C253 H260 0.961 . S
C253 H261 0.960 . S
C254 C252 1.381 . S
C254 C255 1.394 . S
C254 H262 0.930 . S
C255 C254 1.394 . S
C255 C256 1.383 . S
C255 H263 0.929 . S
C256 C255 1.383 . S
C256 C257 1.377 . S
C257 H241 0.930 . S
C257 C256 1.377 . S
C257 C258 1.379 . S
C258 H242 0.931 . S
C258 C252 1.383 . S
C258 C257 1.379 . S
H259 C253 0.959 . S
H260 C253 0.961 . S
H261 C253 0.960 . S
H262 C254 0.930 . S
H263 C255 0.929 . S
H264 C272 0.929 . S
H265 C274 0.930 . S
H266 C276 0.930 . S
H267 C279 0.929 . S
H268 C282 0.930 . S
H269 C284 0.960 . S
H270 C284 0.960 . S
H271 C284 0.960 . S
C272 H264 0.929 . S
C272 C273 1.377 . S
C272 C274 1.384 . S
C273 C272 1.377 . S
C273 C279 1.390 . S
C274 H265 0.930 . S
C274 C272 1.384 . S
C274 C275 1.372 . S
C275 C274 1.372 . S
C275 C276 1.400 . S
C275 C280 1.490 . S
C276 H266 0.930 . S
C276 C275 1.400 . S
C276 C279 1.386 . S
H277 C293 0.930 . S
H278 C294 0.931 . S
C279 H267 0.929 . S
C279 C273 1.390 . S
C279 C276 1.386 . S
C280 C275 1.490 . S
C280 C282 1.395 . S
C280 C283 1.403 . S
H281 C287 0.930 . S
C282 H268 0.930 . S
C282 C280 1.395 . S
C282 C285 1.403 . S
C283 C280 1.403 . S
C283 C284 1.524 . S
C283 C287 1.400 . S
C284 H269 0.960 . S
C284 H270 0.960 . S
C284 H271 0.960 . S
C284 C283 1.524 . S
C285 C282 1.403 . S
C285 C286 1.392 . S
C285 C289 1.495 . S
C286 C285 1.392 . S
C286 C287 1.385 . S
C286 C288 1.478 . S
C287 H281 0.930 . S
C287 C283 1.400 . S
C287 C286 1.385 . S
C288 C286 1.478 . S
C288 C290 1.381 . S
C288 C294 1.383 . S
C289 C285 1.495 . S
C289 H295 0.959 . S
C289 H296 0.961 . S
C289 H297 0.960 . S
C290 C288 1.381 . S
C290 C291 1.394 . S
C290 H298 0.930 . S
C291 C290 1.394 . S
C291 C292 1.383 . S
C291 H299 0.929 . S
C292 C291 1.383 . S
C292 C293 1.377 . S
C293 H277 0.930 . S
C293 C292 1.377 . S
C293 C294 1.379 . S
C294 H278 0.931 . S
C294 C288 1.383 . S
C294 C293 1.379 . S
H295 C289 0.959 . S
H296 C289 0.961 . S
H297 C289 0.960 . S
H298 C290 0.930 . S
H299 C291 0.929 . S
H300 C308 0.929 . S
H301 C310 0.930 . S
H302 C312 0.930 . S
H303 C315 0.929 . S
H304 C318 0.930 . S
H305 C320 0.960 . S
H306 C320 0.960 . S
H307 C320 0.960 . S
C308 H300 0.929 . S
C308 C309 1.377 . S
C308 C310 1.384 . S
C309 C308 1.377 . S
C309 C315 1.390 . S
C310 H301 0.930 . S
C310 C308 1.384 . S
C310 C311 1.372 . S
C311 C310 1.372 . S
C311 C312 1.400 . S
C311 C316 1.490 . S
C312 H302 0.930 . S
C312 C311 1.400 . S
C312 C315 1.386 . S
H313 C329 0.930 . S
H314 C330 0.931 . S
C315 H303 0.929 . S
C315 C309 1.390 . S
C315 C312 1.386 . S
C316 C311 1.490 . S
C316 C318 1.395 1_556 S
C316 C319 1.403 1_565 S
H317 C323 0.932 . S
C318 H304 0.930 . S
C318 C316 1.395 1_554 S
C318 C321 1.403 . S
C319 C316 1.403 1_545 S
C319 C320 1.524 . S
C319 C323 1.400 1_556 S
C320 H305 0.960 . S
C320 H306 0.960 . S
C320 H307 0.960 . S
C320 C319 1.524 . S
C321 C318 1.403 . S
C321 C322 1.392 1_565 S
C321 C325 1.495 . S
C322 C321 1.392 1_545 S
C322 C323 1.385 . S
C322 C324 1.478 . S
C323 H317 0.932 . S
C323 C319 1.400 1_554 S
C323 C322 1.385 . S
C324 C322 1.478 . S
C324 C326 1.381 . S
C324 C330 1.383 . S
C325 C321 1.495 . S
C325 H331 0.959 . S
C325 H332 0.961 . S
C325 H333 0.960 . S
C326 C324 1.381 . S
C326 C327 1.394 . S
C326 H334 0.930 . S
C327 C326 1.394 . S
C327 C328 1.383 . S
C327 H335 0.929 . S
C328 C327 1.383 . S
C328 C329 1.377 . S
C329 H313 0.930 . S
C329 C328 1.377 . S
C329 C330 1.379 . S
C330 H314 0.931 . S
C330 C324 1.383 . S
C330 C329 1.379 . S
H331 C325 0.959 . S
H332 C325 0.961 . S
H333 C325 0.960 . S
H334 C326 0.930 . S
H335 C327 0.929 . S
H336 C344 0.929 . S
H337 C346 0.930 . S
H338 C348 0.930 . S
H339 C351 0.929 . S
H340 C354 0.930 . S
H341 C356 0.960 . S
H342 C356 0.960 . S
H343 C356 0.960 . S
C344 H336 0.929 . S
C344 C345 1.377 . S
C344 C346 1.384 . S
C345 C344 1.377 . S
C345 C351 1.390 . S
C346 H337 0.930 . S
C346 C344 1.384 . S
C346 C347 1.372 . S
C347 C346 1.372 . S
C347 C348 1.400 . S
C347 C352 1.490 . S
C348 H338 0.930 . S
C348 C347 1.400 . S
C348 C351 1.386 . S
H349 C365 0.930 . S
H350 C366 0.931 . S
C351 H339 0.929 . S
C351 C345 1.390 . S
C351 C348 1.386 . S
C352 C347 1.490 . S
C352 C354 1.395 . S
C352 C355 1.403 . S
H353 C359 0.930 . S
C354 H340 0.930 . S
C354 C352 1.395 . S
C354 C357 1.403 . S
C355 C352 1.403 . S
C355 C356 1.524 . S
C355 C359 1.400 . S
C356 H341 0.960 . S
C356 H342 0.960 . S
C356 H343 0.960 . S
C356 C355 1.524 . S
C357 C354 1.403 . S
C357 C358 1.392 . S
C357 C361 1.495 . S
C358 C357 1.392 . S
C358 C359 1.385 . S
C358 C360 1.478 . S
C359 H353 0.930 . S
C359 C355 1.400 . S
C359 C358 1.385 . S
C360 C358 1.478 . S
C360 C362 1.381 . S
C360 C366 1.383 . S
C361 C357 1.495 . S
C361 H367 0.959 . S
C361 H368 0.961 . S
C361 H369 0.960 . S
C362 C360 1.381 . S
C362 C363 1.394 . S
C362 H370 0.930 . S
C363 C362 1.394 . S
C363 C364 1.383 . S
C363 H371 0.929 . S
C364 C363 1.383 . S
C364 C365 1.377 . S
C365 H349 0.930 . S
C365 C364 1.377 . S
C365 C366 1.379 . S
C366 H350 0.931 . S
C366 C360 1.383 . S
C366 C365 1.379 . S
H367 C361 0.959 . S
H368 C361 0.961 . S
H369 C361 0.960 . S
H370 C362 0.930 . S
H371 C363 0.929 . S
H372 C380 0.929 . S
H373 C382 0.930 . S
H374 C384 0.930 . S
H375 C387 0.929 . S
H376 C390 0.930 . S
H377 C392 0.960 . S
H378 C392 0.960 . S
H379 C392 0.960 1_455 S
C380 H372 0.929 . S
C380 C381 1.377 . S
C380 C382 1.384 . S
C381 C380 1.377 . S
C381 C387 1.390 . S
C382 H373 0.930 . S
C382 C380 1.384 . S
C382 C383 1.372 . S
C383 C382 1.372 . S
C383 C384 1.400 . S
C383 C388 1.490 . S
C384 H374 0.930 . S
C384 C383 1.400 . S
C384 C387 1.386 . S
H385 C401 0.930 . S
H386 C402 0.931 . S
C387 H375 0.929 . S
C387 C381 1.390 . S
C387 C384 1.386 . S
C388 C383 1.490 . S
C388 C390 1.395 1_556 S
C388 C391 1.403 1_455 S
H389 C395 0.930 . S
C390 H376 0.930 . S
C390 C388 1.395 1_554 S
C390 C393 1.403 . S
C391 C388 1.403 1_655 S
C391 C392 1.524 . S
C391 C395 1.400 1_556 S
C392 H377 0.960 . S
C392 H378 0.960 . S
C392 H379 0.960 1_655 S
C392 C391 1.524 . S
C393 C390 1.403 . S
C393 C394 1.392 1_455 S
C393 C397 1.495 . S
C394 C393 1.392 1_655 S
C394 C395 1.385 . S
C394 C396 1.478 . S
C395 H389 0.930 . S
C395 C391 1.400 1_554 S
C395 C394 1.385 . S
C396 C394 1.478 . S
C396 C398 1.381 . S
C396 C402 1.383 . S
C397 C393 1.495 . S
C397 H403 0.959 . S
C397 H404 0.961 . S
C397 H405 0.960 1_455 S
C398 C396 1.381 . S
C398 C399 1.394 . S
C398 H406 0.930 . S
C399 C398 1.394 . S
C399 C400 1.383 . S
C399 H407 0.929 . S
C400 C399 1.383 . S
C400 C401 1.377 . S
C401 H385 0.930 . S
C401 C400 1.377 . S
C401 C402 1.379 . S
C402 H386 0.931 . S
C402 C396 1.383 . S
C402 C401 1.379 . S
H403 C397 0.959 . S
H404 C397 0.961 . S
H405 C397 0.960 1_655 S
H406 C398 0.930 . S
H407 C399 0.929 . S
H408 C416 0.929 . S
H409 C418 0.930 . S
H410 C420 0.930 . S
H411 C423 0.929 . S
H412 C426 0.930 . S
H413 C428 0.960 . S
H414 C428 0.960 . S
H415 C428 0.960 . S
C416 H408 0.929 . S
C416 C417 1.377 . S
C416 C418 1.384 . S
C417 C416 1.377 . S
C417 C423 1.390 . S
C418 H409 0.930 . S
C418 C416 1.384 . S
C418 C419 1.372 . S
C419 C418 1.372 . S
C419 C420 1.400 . S
C419 C424 1.490 . S
C420 H410 0.930 . S
C420 C419 1.400 . S
C420 C423 1.386 . S
H421 C437 0.930 . S
H422 C438 0.931 . S
C423 H411 0.929 . S
C423 C417 1.390 . S
C423 C420 1.386 . S
C424 C419 1.490 . S
C424 C426 1.395 . S
C424 C427 1.403 . S
H425 C431 0.930 . S
C426 H412 0.930 . S
C426 C424 1.395 . S
C426 C429 1.403 1_545 S
C427 C424 1.403 . S
C427 C428 1.524 . S
C427 C431 1.400 1_545 S
C428 H413 0.960 . S
C428 H414 0.960 . S
C428 H415 0.960 . S
C428 C427 1.524 . S
C429 C426 1.403 1_565 S
C429 C430 1.392 . S
C429 C433 1.495 . S
C430 C429 1.392 . S
C430 C431 1.385 . S
C430 C432 1.478 . S
C431 H425 0.930 . S
C431 C427 1.400 1_565 S
C431 C430 1.385 . S
C432 C430 1.478 . S
C432 C434 1.381 . S
C432 C438 1.383 . S
C433 C429 1.495 . S
C433 H439 0.959 . S
C433 H440 0.961 . S
C433 H441 0.960 . S
C434 C432 1.381 . S
C434 C435 1.394 . S
C434 H442 0.930 . S
C435 C434 1.394 . S
C435 C436 1.383 . S
C435 H443 0.929 . S
C436 C435 1.383 . S
C436 C437 1.377 . S
C437 H421 0.930 . S
C437 C436 1.377 . S
C437 C438 1.379 . S
C438 H422 0.931 . S
C438 C432 1.383 . S
C438 C437 1.379 . S
H439 C433 0.959 . S
H440 C433 0.961 . S
H441 C433 0.960 . S
H442 C434 0.930 . S
H443 C435 0.929 . S
H444 C452 0.929 . S
H445 C454 0.930 . S
H446 C456 0.930 . S
H447 C459 0.929 . S
H448 C462 0.930 . S
H449 C464 0.960 . S
H450 C464 0.960 . S
H451 C464 0.960 . S
C452 H444 0.929 . S
C452 C453 1.377 . S
C452 C454 1.384 . S
C453 C452 1.377 . S
C453 C459 1.390 . S
C454 H445 0.930 . S
C454 C452 1.384 . S
C454 C455 1.372 . S
C455 C454 1.372 . S
C455 C456 1.400 . S
C455 C460 1.490 . S
C456 H446 0.930 . S
C456 C455 1.400 . S
C456 C459 1.386 . S
H457 C473 0.930 . S
H458 C474 0.931 . S
C459 H447 0.929 . S
C459 C453 1.390 . S
C459 C456 1.386 . S
C460 C455 1.490 . S
C460 C462 1.395 . S
C460 C463 1.403 . S
H461 C467 0.930 . S
C462 H448 0.930 . S
C462 C460 1.395 . S
C462 C465 1.403 1_556 S
C463 C460 1.403 . S
C463 C464 1.524 . S
C463 C467 1.400 . S
C464 H449 0.960 . S
C464 H450 0.960 . S
C464 H451 0.960 . S
C464 C463 1.524 . S
C465 C462 1.403 1_554 S
C465 C466 1.392 . S
C465 C469 1.495 . S
C466 C465 1.392 . S
C466 C467 1.385 1_554 S
C466 C468 1.478 . S
C467 H461 0.930 . S
C467 C463 1.400 . S
C467 C466 1.385 1_556 S
C468 C466 1.478 . S
C468 C470 1.381 . S
C468 C474 1.383 . S
C469 C465 1.495 . S
C469 H475 0.959 . S
C469 H476 0.961 . S
C469 H477 0.960 . S
C470 C468 1.381 . S
C470 C471 1.394 . S
C470 H478 0.930 . S
C471 C470 1.394 . S
C471 C472 1.383 . S
C471 H479 0.929 . S
C472 C471 1.383 . S
C472 C473 1.377 . S
C473 H457 0.930 . S
C473 C472 1.377 . S
C473 C474 1.379 . S
C474 H458 0.931 . S
C474 C468 1.383 . S
C474 C473 1.379 . S
H475 C469 0.959 . S
H476 C469 0.961 . S
H477 C469 0.960 . S
H478 C470 0.930 . S
H479 C471 0.929 . S
H480 C488 0.929 . S
H481 C490 0.930 . S
H482 C492 0.930 . S
H483 C495 0.929 . S
H484 C498 0.930 . S
H485 C500 0.960 . S
H486 C500 0.960 . S
H487 C500 0.960 . S
C488 H480 0.929 . S
C488 C489 1.377 . S
C488 C490 1.384 . S
C489 C488 1.377 . S
C489 C495 1.390 . S
C490 H481 0.930 . S
C490 C488 1.384 . S
C490 C491 1.372 . S
C491 C490 1.372 . S
C491 C492 1.400 . S
C491 C496 1.490 . S
C492 H482 0.930 . S
C492 C491 1.400 . S
C492 C495 1.386 . S
H493 C509 0.930 . S
H494 C510 0.931 . S
C495 H483 0.929 . S
C495 C489 1.390 . S
C495 C492 1.386 . S
C496 C491 1.490 . S
C496 C498 1.395 . S
C496 C499 1.403 1_455 S
H497 C503 0.930 . S
C498 H484 0.930 . S
C498 C496 1.395 . S
C498 C501 1.403 . S
C499 C496 1.403 1_655 S
C499 C500 1.524 . S
C499 C503 1.400 . S
C500 H485 0.960 . S
C500 H486 0.960 . S
C500 H487 0.960 . S
C500 C499 1.524 . S
C501 C498 1.403 . S
C501 C502 1.392 1_455 S
C501 C505 1.495 . S
C502 C501 1.392 1_655 S
C502 C503 1.385 . S
C502 C504 1.478 . S
C503 H497 0.930 . S
C503 C499 1.400 . S
C503 C502 1.385 . S
C504 C502 1.478 . S
C504 C506 1.381 . S
C504 C510 1.383 . S
C505 C501 1.495 . S
C505 H511 0.959 . S
C505 H512 0.961 . S
C505 H513 0.960 . S
C506 C504 1.381 . S
C506 C507 1.394 . S
C506 H514 0.930 . S
C507 C506 1.394 . S
C507 C508 1.383 . S
C507 H515 0.929 . S
C508 C507 1.383 . S
C508 C509 1.377 . S
C509 H493 0.930 . S
C509 C508 1.377 . S
C509 C510 1.379 . S
C510 H494 0.931 . S
C510 C504 1.383 . S
C510 C509 1.379 . S
H511 C505 0.959 . S
H512 C505 0.961 . S
H513 C505 0.960 . S
H514 C506 0.930 . S
H515 C507 0.929 . S
C93 C3 0.896 . S
C112 C59 0.881 . S
C129 C23 0.853 . S
C148 C79 0.806 . S
C165 C9 0.879 . S
C184 C31 0.868 . S
C201 C51 0.876 . S
C220 C17 0.874 . S
C237 C65 0.858 . S
C256 C37 0.805 . S
C273 C45 0.891 . S
C292 C73 0.905 . S
C309 C49 1.326 . S
C328 C7 1.349 . S
C345 C63 1.316 . S
C364 C22 1.349 . S
C381 C78 1.353 . S
C400 C35 1.330 . S
C417 C8 1.375 . S
C436 C50 1.380 . S
C453 C21 1.324 . S
C472 C64 1.355 . S
C489 C77 1.320 . S
C508 C36 1.362 . S
