# Generated by pormake.
# Topology umc, (4)-cn, num edge types: 1
# Building blocks:
#     Node 0, Type 0, BuildingBlock: ICAMEG_clean_sbu_1, # of connection points: 4
#     Node 1, Type 0, BuildingBlock: ICAMEG_clean_sbu_1, # of connection points: 4
#     Node 2, Type 0, BuildingBlock: ICAMEG_clean_sbu_1, # of connection points: 4
#     Node 3, Type 0, BuildingBlock: ICAMEG_clean_sbu_1, # of connection points: 4
#     Node 4, Type 0, BuildingBlock: ICAMEG_clean_sbu_1, # of connection points: 4
#     Node 5, Type 0, BuildingBlock: ICAMEG_clean_sbu_1, # of connection points: 4
#     Node 6, Type 0, BuildingBlock: ICAMEG_clean_sbu_1, # of connection points: 4
#     Node 7, Type 0, BuildingBlock: ICAMEG_clean_sbu_1, # of connection points: 4
#     Node 8, Type 0, BuildingBlock: ICAMEG_clean_sbu_1, # of connection points: 4
#     Node 9, Type 0, BuildingBlock: ICAMEG_clean_sbu_1, # of connection points: 4
#     Node 10, Type 0, BuildingBlock: ICAMEG_clean_sbu_1, # of connection points: 4
#     Node 11, Type 0, BuildingBlock: ICAMEG_clean_sbu_1, # of connection points: 4
#     Node 12, Type 0, BuildingBlock: ICAMEG_clean_sbu_1, # of connection points: 4
#     Node 13, Type 0, BuildingBlock: ICAMEG_clean_sbu_1, # of connection points: 4
#     Node 14, Type 0, BuildingBlock: ICAMEG_clean_sbu_1, # of connection points: 4
#     Node 15, Type 0, BuildingBlock: ICAMEG_clean_sbu_1, # of connection points: 4
#     Edge 16, Type (0, 0), None
#     Edge 17, Type (0, 0), None
#     Edge 18, Type (0, 0), None
#     Edge 19, Type (0, 0), None
#     Edge 20, Type (0, 0), None
#     Edge 21, Type (0, 0), None
#     Edge 22, Type (0, 0), None
#     Edge 23, Type (0, 0), None
#     Edge 24, Type (0, 0), None
#     Edge 25, Type (0, 0), None
#     Edge 26, Type (0, 0), None
#     Edge 27, Type (0, 0), None
#     Edge 28, Type (0, 0), None
#     Edge 29, Type (0, 0), None
#     Edge 30, Type (0, 0), None
#     Edge 31, Type (0, 0), None
#     Edge 32, Type (0, 0), None
#     Edge 33, Type (0, 0), None
#     Edge 34, Type (0, 0), None
#     Edge 35, Type (0, 0), None
#     Edge 36, Type (0, 0), None
#     Edge 37, Type (0, 0), None
#     Edge 38, Type (0, 0), None
#     Edge 39, Type (0, 0), None
#     Edge 40, Type (0, 0), None
#     Edge 41, Type (0, 0), None
#     Edge 42, Type (0, 0), None
#     Edge 43, Type (0, 0), None
#     Edge 44, Type (0, 0), None
#     Edge 45, Type (0, 0), None
#     Edge 46, Type (0, 0), None
#     Edge 47, Type (0, 0), None
# Relax obj value: 0.058
# Max RMSD: 0.121
# Mean RMSD: 0.121
data_MOF--net-umc--node1-ICAMEG_clean_sbu_1--edge1-none
_symmetry_space_group_name_H-M    P1
_symmetry_Int_Tables_number       1
_symmetry_cell_setting            triclinic
loop_
_symmetry_equiv_pos_as_xyz
'x, y, z'
_cell_length_a     24.22805
_cell_length_b     16.596014
_cell_length_c     28.93887
_cell_angle_alpha  90.051701
_cell_angle_beta   90.000677
_cell_angle_gamma 90.000588
loop_
_atom_site_label
_atom_site_type_symbol
_atom_site_fract_x
_atom_site_fract_y
_atom_site_fract_z
_atom_type_partial_charge
Co0 Co 0.3303 0.97375 0.38438 0.0
Co1 Co 0.36497 0.15776 0.33914 0.0
O2 O 0.328 0.08846 0.38111 0.0
C3 C 0.37109 0.02595 0.47726 0.0
O4 O 0.40496 0.07244 0.45405 0.0
C5 C 0.2455 0.21418 0.33166 0.0
O6 O 0.22681 0.14012 0.33376 0.0
O7 O 0.34105 0.09095 0.28465 0.0
O8 O 0.32899 0.96495 0.31301 0.0
H9 H 0.4496 0.25477 0.19086 0.0
H10 H 0.24641 0.05509 0.44379 0.0
O11 O 0.33553 0.98353 0.4552 0.0
H12 H 0.14164 0.91768 0.32063 0.0
H13 H 0.27336 0.72868 0.47117 0.0
H14 H 0.38187 0.83061 0.34006 0.0
H15 H 0.24195 0.89791 0.32788 0.0
H16 H 0.27083 0.87132 0.44968 0.0
O17 O 0.29703 0.22791 0.33283 0.0
H18 H 0.42316 0.1506 0.24762 0.0
H19 H 0.37099 0.33597 0.33929 0.0
H20 H 0.38442 0.68198 0.36144 0.0
H21 H 0.14562 0.06834 0.4408 0.0
H22 H 0.33231 0.63477 0.42821 0.0
H23 H 0.09262 0.00521 0.37695 0.0
O24 O 0.41379 0.97094 0.37997 0.0
H25 H 0.32176 0.34218 0.46821 0.0
H26 H 0.47206 0.21666 0.3798 0.0
H27 H 0.49196 0.33639 0.42911 0.0
H28 H 0.41504 0.40563 0.46802 0.0
H29 H 0.30388 0.22648 0.41796 0.0
H30 H 0.39398 0.43881 0.28262 0.0
H31 H 0.43213 0.39866 0.20671 0.0
O32 O 0.43651 0.08871 0.34464 0.0
C33 C 0.3321 0.01551 0.27885 0.0
C34 C 0.43021 0.27206 0.22276 0.0
C35 C 0.40109 0.37593 0.27478 0.0
N36 N 0.39779 0.23616 0.29785 0.0
C37 C 0.41668 0.21354 0.25559 0.0
C38 C 0.38953 0.31656 0.3073 0.0
C39 C 0.42148 0.35333 0.23205 0.0
C40 C 0.22358 0.02348 0.41732 0.0
N41 N 0.25034 0.97695 0.38556 0.0
C42 C 0.16647 0.03299 0.41512 0.0
C43 C 0.13685 0.997 0.37938 0.0
C44 C 0.16428 0.94786 0.34784 0.0
C45 C 0.22121 0.93721 0.35205 0.0
C46 C 0.29703 0.74993 0.44214 0.0
C47 C 0.35751 0.80664 0.36778 0.0
C48 C 0.29588 0.83067 0.42944 0.0
N49 N 0.32703 0.85849 0.39331 0.0
C50 C 0.35889 0.72445 0.3794 0.0
C51 C 0.32937 0.69682 0.41735 0.0
C52 C 0.44958 0.01853 0.36156 0.0
C53 C 0.35509 0.31633 0.44816 0.0
C54 C 0.43935 0.24563 0.39835 0.0
C55 C 0.45066 0.31283 0.4258 0.0
C56 C 0.40742 0.35123 0.44836 0.0
N57 N 0.38626 0.22078 0.39237 0.0
C58 C 0.34532 0.25021 0.42003 0.0
Co59 Co 0.62798 0.03158 0.38332 0.0
Co60 Co 0.59106 0.8489 0.34001 0.0
O61 O 0.63035 0.91673 0.38158 0.0
C62 C 0.60503 0.97755 0.4798 0.0
O63 O 0.56653 0.9329 0.46081 0.0
C64 C 0.70699 0.78345 0.32991 0.0
O65 O 0.72531 0.85592 0.32018 0.0
O66 O 0.6216 0.90923 0.28572 0.0
O67 O 0.62037 0.03766 0.3122 0.0
H68 H 0.50746 0.74744 0.19316 0.0
H69 H 0.72365 0.95434 0.43252 0.0
O70 O 0.63455 0.02319 0.45402 0.0
H71 H 0.80281 0.1045 0.30113 0.0
H72 H 0.68577 0.2842 0.46318 0.0
H73 H 0.56085 0.16563 0.34817 0.0
H74 H 0.70406 0.11439 0.31916 0.0
H75 H 0.69571 0.14242 0.43892 0.0
O76 O 0.65634 0.77253 0.33947 0.0
H77 H 0.5352 0.85444 0.24745 0.0
H78 H 0.5794 0.67227 0.34377 0.0
H79 H 0.55251 0.31311 0.37033 0.0
H80 H 0.82441 0.95463 0.41948 0.0
H81 H 0.61199 0.3673 0.43079 0.0
H82 H 0.86388 0.02216 0.35139 0.0
O83 O 0.54435 0.03097 0.38658 0.0
H84 H 0.60021 0.66396 0.47423 0.0
H85 H 0.47631 0.82431 0.37809 0.0
H86 H 0.43774 0.74587 0.44215 0.0
H87 H 0.49836 0.65758 0.48754 0.0
H88 H 0.63853 0.75699 0.41883 0.0
H89 H 0.56266 0.56737 0.2867 0.0
H90 H 0.52898 0.60481 0.20875 0.0
O91 O 0.52335 0.92612 0.33954 0.0
C92 C 0.62312 0.98548 0.27881 0.0
C93 C 0.52877 0.7318 0.22407 0.0
C94 C 0.55605 0.62998 0.27779 0.0
N95 N 0.55774 0.77066 0.29935 0.0
C96 C 0.54119 0.79175 0.25628 0.0
C97 C 0.56426 0.69054 0.3104 0.0
C98 C 0.53834 0.65103 0.23398 0.0
C99 C 0.74083 0.98801 0.404 0.0
N100 N 0.70756 0.03262 0.37595 0.0
C101 C 0.79762 0.98529 0.39596 0.0
C102 C 0.81996 0.02481 0.35793 0.0
C103 C 0.78587 0.07121 0.32996 0.0
C104 C 0.72975 0.076 0.34025 0.0
C105 C 0.65934 0.25929 0.43699 0.0
C106 C 0.58945 0.19368 0.37153 0.0
C107 C 0.6647 0.1795 0.42262 0.0
N108 N 0.62904 0.14721 0.39089 0.0
C109 C 0.58401 0.27482 0.38447 0.0
C110 C 0.61808 0.30658 0.41837 0.0
C111 C 0.50955 0.99115 0.36182 0.0
C112 C 0.57264 0.70133 0.45508 0.0
C113 C 0.50415 0.79183 0.4001 0.0
C114 C 0.48153 0.74576 0.43562 0.0
C115 C 0.51589 0.69751 0.46198 0.0
N116 N 0.56002 0.7937 0.39304 0.0
C117 C 0.59427 0.75302 0.42217 0.0
Co118 Co 0.33018 0.02655 0.12413 0.0
Co119 Co 0.36491 0.84247 0.16929 0.0
O120 O 0.32781 0.91182 0.12739 0.0
C121 C 0.37077 0.97456 0.03118 0.0
O122 O 0.40458 0.9279 0.05432 0.0
C123 C 0.24548 0.78593 0.17692 0.0
O124 O 0.22671 0.85994 0.17468 0.0
O125 O 0.34114 0.9093 0.22384 0.0
O126 O 0.32901 0.0353 0.19549 0.0
H127 H 0.44943 0.74527 0.3176 0.0
H128 H 0.24598 0.94515 0.06499 0.0
O129 O 0.33522 0.01692 0.0533 0.0
H130 H 0.14179 0.0836 0.18812 0.0
H131 H 0.27306 0.27171 0.03752 0.0
H132 H 0.38277 0.16937 0.16783 0.0
H133 H 0.24212 0.10284 0.18069 0.0
H134 H 0.2702 0.1292 0.05927 0.0
O135 O 0.29702 0.7723 0.17578 0.0
H136 H 0.42316 0.84951 0.2608 0.0
H137 H 0.37102 0.66424 0.16905 0.0
H138 H 0.38587 0.31784 0.14611 0.0
H139 H 0.14511 0.93228 0.06823 0.0
H140 H 0.33304 0.36526 0.07978 0.0
H141 H 0.09244 0.99601 0.13204 0.0
O142 O 0.41371 0.02924 0.12837 0.0
H143 H 0.32105 0.65786 0.04053 0.0
H144 H 0.47183 0.78336 0.1284 0.0
H145 H 0.49144 0.66353 0.07909 0.0
H146 H 0.41431 0.59441 0.04037 0.0
H147 H 0.3035 0.77382 0.09065 0.0
H148 H 0.3941 0.56133 0.22563 0.0
H149 H 0.43216 0.60139 0.30159 0.0
O150 O 0.43648 0.91144 0.16365 0.0
C151 C 0.33212 0.98473 0.22964 0.0
C152 C 0.43023 0.72802 0.28561 0.0
C153 C 0.4012 0.62421 0.23351 0.0
N154 N 0.39784 0.76402 0.21051 0.0
C155 C 0.41672 0.78658 0.25279 0.0
C156 C 0.3896 0.68362 0.20102 0.0
C157 C 0.42156 0.64675 0.27626 0.0
C158 C 0.22327 0.97694 0.09146 0.0
N159 N 0.2502 0.0235 0.12312 0.0
C160 C 0.16613 0.96767 0.09379 0.0
C161 C 0.13669 0.004 0.12952 0.0
C162 C 0.16429 0.05317 0.16093 0.0
C163 C 0.22123 0.06352 0.15661 0.0
C164 C 0.29693 0.25041 0.06644 0.0
C165 C 0.3581 0.19349 0.14035 0.0
C166 C 0.29556 0.16976 0.07929 0.0
N167 N 0.327 0.14183 0.11522 0.0
C168 C 0.35976 0.27559 0.12854 0.0
C169 C 0.32988 0.30332 0.09082 0.0
C170 C 0.44954 0.98161 0.14669 0.0
C171 C 0.35449 0.68374 0.06043 0.0
C172 C 0.43903 0.75446 0.10992 0.0
C173 C 0.45017 0.68717 0.08248 0.0
C174 C 0.40681 0.64881 0.06006 0.0
N175 N 0.386 0.77943 0.11601 0.0
C176 C 0.34492 0.75001 0.08849 0.0
Co177 Co 0.62797 0.96828 0.12493 0.0
Co178 Co 0.59118 0.15099 0.16829 0.0
O179 O 0.63054 0.0831 0.12681 0.0
C180 C 0.60526 0.02284 0.02851 0.0
O181 O 0.56674 0.06742 0.04754 0.0
C182 C 0.70709 0.21651 0.17868 0.0
O183 O 0.72545 0.14409 0.18852 0.0
O184 O 0.62153 0.09052 0.2226 0.0
O185 O 0.62032 0.96208 0.19606 0.0
H186 H 0.5075 0.25261 0.31505 0.0
H187 H 0.72385 0.04573 0.07611 0.0
O188 O 0.63465 0.97696 0.05424 0.0
H189 H 0.8025 0.89385 0.20707 0.0
H190 H 0.68534 0.71576 0.04474 0.0
H191 H 0.56068 0.83433 0.15996 0.0
H192 H 0.70375 0.88457 0.18888 0.0
H193 H 0.69544 0.85746 0.06913 0.0
O194 O 0.65648 0.22729 0.16897 0.0
H195 H 0.53522 0.14557 0.2608 0.0
H196 H 0.57953 0.32763 0.16444 0.0
H197 H 0.55218 0.68688 0.13774 0.0
H198 H 0.82459 0.04512 0.08939 0.0
H199 H 0.61156 0.63266 0.0772 0.0
H200 H 0.86379 0.97667 0.15726 0.0
O201 O 0.54432 0.96913 0.12161 0.0
H202 H 0.60129 0.33546 0.03398 0.0
H203 H 0.4766 0.17621 0.13005 0.0
H204 H 0.43843 0.25491 0.06587 0.0
H205 H 0.49941 0.34279 0.02064 0.0
H206 H 0.63911 0.24224 0.08949 0.0
H207 H 0.56271 0.43259 0.22146 0.0
H208 H 0.52899 0.39524 0.29941 0.0
O209 O 0.52338 0.07397 0.16865 0.0
C210 C 0.6231 0.01424 0.22947 0.0
C211 C 0.52879 0.26823 0.28413 0.0
C212 C 0.55609 0.36999 0.23039 0.0
N213 N 0.55782 0.22929 0.20889 0.0
C214 C 0.54122 0.20825 0.25195 0.0
C215 C 0.56435 0.3094 0.1978 0.0
C216 C 0.53836 0.34899 0.27419 0.0
C217 C 0.74093 0.01171 0.10454 0.0
N218 N 0.70752 0.9669 0.13237 0.0
C219 C 0.7977 0.0142 0.1127 0.0
C220 C 0.81989 0.97417 0.15062 0.0
C221 C 0.78567 0.92753 0.17834 0.0
C222 C 0.72957 0.92305 0.16796 0.0
C223 C 0.65896 0.74065 0.07098 0.0
C224 C 0.58922 0.80625 0.13656 0.0
C225 C 0.66441 0.8204 0.08542 0.0
N226 N 0.62884 0.85267 0.11721 0.0
C227 C 0.58369 0.72513 0.12357 0.0
C228 C 0.6177 0.69337 0.08963 0.0
C229 C 0.50953 0.00897 0.14637 0.0
C230 C 0.57351 0.29838 0.05311 0.0
C231 C 0.50457 0.2085 0.10806 0.0
C232 C 0.48219 0.25471 0.07249 0.0
C233 C 0.51678 0.30269 0.04618 0.0
N234 N 0.56041 0.20625 0.1152 0.0
C235 C 0.59487 0.24659 0.08609 0.0
Co236 Co 0.6519 0.02689 0.624 0.0
Co237 Co 0.61726 0.84288 0.66924 0.0
O238 O 0.65422 0.91218 0.62727 0.0
C239 C 0.61112 0.97467 0.53113 0.0
O240 O 0.57725 0.92819 0.55433 0.0
C241 C 0.73673 0.78647 0.67671 0.0
O242 O 0.75542 0.86054 0.67462 0.0
O243 O 0.64118 0.9097 0.72374 0.0
O244 O 0.65321 0.03569 0.69537 0.0
H245 H 0.53263 0.74586 0.81753 0.0
H246 H 0.7358 0.94555 0.56461 0.0
O247 O 0.64667 0.0171 0.55318 0.0
H248 H 0.84054 0.08303 0.68776 0.0
H249 H 0.70879 0.27197 0.53718 0.0
H250 H 0.60037 0.17004 0.66836 0.0
H251 H 0.74023 0.10278 0.68049 0.0
H252 H 0.71132 0.12933 0.55868 0.0
O253 O 0.6852 0.77274 0.67555 0.0
H254 H 0.55907 0.85004 0.76077 0.0
H255 H 0.61125 0.66467 0.6691 0.0
H256 H 0.59783 0.31867 0.64699 0.0
H257 H 0.83659 0.9323 0.56761 0.0
H258 H 0.64988 0.36588 0.58018 0.0
H259 H 0.88958 0.99548 0.63146 0.0
O260 O 0.56841 0.02968 0.6284 0.0
H261 H 0.66045 0.65849 0.54016 0.0
H262 H 0.51016 0.78396 0.6286 0.0
H263 H 0.49026 0.66423 0.57929 0.0
H264 H 0.56718 0.59502 0.54037 0.0
H265 H 0.67834 0.77418 0.59041 0.0
H266 H 0.58827 0.56183 0.72577 0.0
H267 H 0.55012 0.60198 0.80168 0.0
O268 O 0.54571 0.91191 0.66375 0.0
C269 C 0.65011 0.98514 0.72953 0.0
C270 C 0.55203 0.72858 0.78563 0.0
C271 C 0.58115 0.62471 0.73361 0.0
N272 N 0.58445 0.76448 0.71053 0.0
C273 C 0.56555 0.78709 0.7528 0.0
C274 C 0.59271 0.68408 0.70109 0.0
C275 C 0.56076 0.64731 0.77634 0.0
C276 C 0.75863 0.97718 0.59107 0.0
N277 N 0.73186 0.02372 0.62283 0.0
C278 C 0.81574 0.96767 0.59328 0.0
C279 C 0.84535 0.00368 0.62902 0.0
C280 C 0.81792 0.05283 0.66055 0.0
C281 C 0.76099 0.06348 0.65633 0.0
C282 C 0.68514 0.25071 0.56623 0.0
C283 C 0.6247 0.19401 0.64062 0.0
C284 C 0.68628 0.16998 0.57892 0.0
N285 N 0.65516 0.14215 0.61507 0.0
C286 C 0.62333 0.2762 0.62901 0.0
C287 C 0.65282 0.30383 0.59104 0.0
C288 C 0.53263 0.98209 0.64682 0.0
C289 C 0.62713 0.68433 0.56022 0.0
C290 C 0.54287 0.75501 0.61004 0.0
C291 C 0.53156 0.6878 0.58259 0.0
C292 C 0.5748 0.64942 0.56002 0.0
N293 N 0.59596 0.77986 0.61602 0.0
C294 C 0.6369 0.75045 0.58835 0.0
Co295 Co 0.35423 0.969 0.62506 0.0
Co296 Co 0.39114 0.15168 0.66837 0.0
O297 O 0.35185 0.08384 0.6268 0.0
C298 C 0.37718 0.02306 0.52858 0.0
O299 O 0.41568 0.0677 0.54757 0.0
C300 C 0.2752 0.21713 0.67846 0.0
O301 O 0.25688 0.14466 0.6882 0.0
O302 O 0.36059 0.09135 0.72267 0.0
O303 O 0.36184 0.96291 0.69618 0.0
H304 H 0.47473 0.25315 0.81523 0.0
H305 H 0.25856 0.04628 0.57588 0.0
O306 O 0.34767 0.97741 0.55436 0.0
H307 H 0.17942 0.89597 0.70723 0.0
H308 H 0.2965 0.71639 0.54516 0.0
H309 H 0.42135 0.83495 0.66023 0.0
H310 H 0.27817 0.88612 0.68919 0.0
H311 H 0.28655 0.85817 0.56943 0.0
O312 O 0.32585 0.22805 0.66891 0.0
H313 H 0.44699 0.14614 0.76094 0.0
H314 H 0.40278 0.32831 0.66462 0.0
H315 H 0.42971 0.68747 0.63807 0.0
H316 H 0.1578 0.04598 0.58895 0.0
H317 H 0.37027 0.63328 0.57759 0.0
H318 H 0.11834 0.97837 0.65701 0.0
O319 O 0.43786 0.96963 0.6218 0.0
H320 H 0.382 0.33658 0.53414 0.0
H321 H 0.5059 0.1763 0.63032 0.0
H322 H 0.54447 0.25473 0.56626 0.0
H323 H 0.48385 0.34299 0.52085 0.0
H324 H 0.34368 0.24356 0.58955 0.0
H325 H 0.4195 0.43321 0.72169 0.0
H326 H 0.45319 0.39577 0.79965 0.0
O327 O 0.45885 0.07447 0.66885 0.0
C328 C 0.35909 0.01509 0.72957 0.0
C329 C 0.45342 0.26878 0.78432 0.0
C330 C 0.42612 0.3706 0.73061 0.0
N331 N 0.42445 0.22992 0.70904 0.0
C332 C 0.441 0.20884 0.75211 0.0
C333 C 0.41792 0.31004 0.69799 0.0
C334 C 0.44384 0.34956 0.77441 0.0
C335 C 0.24138 0.01257 0.60439 0.0
N336 N 0.27466 0.96794 0.63242 0.0
C337 C 0.18459 0.01529 0.61244 0.0
C338 C 0.16226 0.97572 0.65046 0.0
C339 C 0.19636 0.9293 0.67841 0.0
C340 C 0.25247 0.92452 0.66812 0.0
C341 C 0.32292 0.7413 0.57136 0.0
C342 C 0.39277 0.80691 0.63686 0.0
C343 C 0.31755 0.82109 0.58574 0.0
N344 N 0.35319 0.85337 0.61748 0.0
C345 C 0.39821 0.72576 0.62392 0.0
C346 C 0.36417 0.69401 0.59001 0.0
C347 C 0.47266 0.00945 0.64656 0.0
C348 C 0.40957 0.29923 0.5533 0.0
C349 C 0.47805 0.20877 0.6083 0.0
C350 C 0.50068 0.25484 0.57278 0.0
C351 C 0.46632 0.30306 0.54641 0.0
N352 N 0.42218 0.20688 0.61535 0.0
C353 C 0.38793 0.24755 0.58621 0.0
Co354 Co 0.65204 0.97409 0.88425 0.0
Co355 Co 0.61728 0.15818 0.83909 0.0
O356 O 0.65439 0.08883 0.88099 0.0
C357 C 0.61144 0.02606 0.9772 0.0
O358 O 0.57763 0.07272 0.95406 0.0
C359 C 0.73671 0.21473 0.83145 0.0
O360 O 0.75548 0.14072 0.8337 0.0
O361 O 0.64105 0.09134 0.78454 0.0
O362 O 0.6532 0.96534 0.81289 0.0
H363 H 0.53276 0.25537 0.69079 0.0
H364 H 0.73622 0.05549 0.9434 0.0
O365 O 0.64699 0.98371 0.95508 0.0
H366 H 0.84044 0.91711 0.82026 0.0
H367 H 0.7092 0.72894 0.97084 0.0
H368 H 0.59942 0.83128 0.84058 0.0
H369 H 0.74011 0.89785 0.82768 0.0
H370 H 0.71206 0.87145 0.94909 0.0
O371 O 0.68517 0.22835 0.83259 0.0
H372 H 0.55903 0.15113 0.74758 0.0
H373 H 0.61116 0.33641 0.83934 0.0
H374 H 0.59632 0.68282 0.86231 0.0
H375 H 0.83709 0.06837 0.94018 0.0
H376 H 0.64919 0.63539 0.92861 0.0
H377 H 0.88977 0.00468 0.87636 0.0
O378 O 0.56851 0.97138 0.88001 0.0
H379 H 0.66115 0.34281 0.96784 0.0
H380 H 0.51036 0.21727 0.88 0.0
H381 H 0.49075 0.3371 0.92931 0.0
H382 H 0.56789 0.40624 0.96802 0.0
H383 H 0.6787 0.22684 0.91773 0.0
H384 H 0.58807 0.43931 0.78276 0.0
H385 H 0.55002 0.39925 0.7068 0.0
O386 O 0.54572 0.08918 0.84474 0.0
C387 C 0.65009 0.01592 0.77874 0.0
C388 C 0.55195 0.27262 0.72278 0.0
C389 C 0.58097 0.37643 0.77488 0.0
N390 N 0.58434 0.23662 0.79788 0.0
C391 C 0.56547 0.21406 0.75559 0.0
C392 C 0.59258 0.31702 0.80736 0.0
C393 C 0.56061 0.35389 0.73213 0.0
C394 C 0.75894 0.02372 0.91693 0.0
N395 N 0.73201 0.97716 0.88527 0.0
C396 C 0.81607 0.03299 0.91461 0.0
C397 C 0.84553 0.99669 0.87888 0.0
C398 C 0.81793 0.94753 0.84746 0.0
C399 C 0.76099 0.93716 0.85177 0.0
C400 C 0.68532 0.75024 0.94193 0.0
C401 C 0.62411 0.80716 0.86805 0.0
C402 C 0.68669 0.83089 0.92907 0.0
N403 N 0.65523 0.85882 0.89316 0.0
C404 C 0.62245 0.72506 0.87986 0.0
C405 C 0.65235 0.69733 0.91757 0.0
C406 C 0.53267 0.01901 0.86169 0.0
C407 C 0.62771 0.31692 0.94794 0.0
C408 C 0.54316 0.24617 0.89848 0.0
C409 C 0.53202 0.31346 0.92591 0.0
C410 C 0.57539 0.35184 0.94832 0.0
N411 N 0.5962 0.22121 0.89237 0.0
C412 C 0.63729 0.25065 0.91989 0.0
Co413 Co 0.35423 0.03231 0.88344 0.0
Co414 Co 0.39104 0.84959 0.8401 0.0
O415 O 0.35168 0.91748 0.88158 0.0
C416 C 0.37695 0.97776 0.97987 0.0
O417 O 0.41547 0.93319 0.96085 0.0
C418 C 0.27514 0.78407 0.82969 0.0
O419 O 0.25678 0.85649 0.81985 0.0
O420 O 0.36069 0.91005 0.78578 0.0
O421 O 0.36188 0.0385 0.81232 0.0
H422 H 0.47473 0.74798 0.69334 0.0
H423 H 0.25836 0.95488 0.9323 0.0
O424 O 0.34755 0.02364 0.95413 0.0
H425 H 0.17969 0.10664 0.80129 0.0
H426 H 0.29681 0.28483 0.96361 0.0
H427 H 0.42154 0.16626 0.84844 0.0
H428 H 0.27844 0.11595 0.81948 0.0
H429 H 0.28672 0.14313 0.93922 0.0
O430 O 0.32575 0.77328 0.83941 0.0
H431 H 0.447 0.85502 0.74759 0.0
H432 H 0.4027 0.67295 0.84395 0.0
H433 H 0.43002 0.3137 0.87067 0.0
H434 H 0.15761 0.95549 0.91903 0.0
H435 H 0.3706 0.36793 0.93117 0.0
H436 H 0.1184 0.02387 0.85114 0.0
O437 O 0.43789 0.03148 0.88677 0.0
H438 H 0.38093 0.66508 0.97439 0.0
H439 H 0.50562 0.8244 0.87835 0.0
H440 H 0.54378 0.74569 0.94254 0.0
H441 H 0.4828 0.65777 0.98775 0.0
H442 H 0.34311 0.75832 0.91889 0.0
H443 H 0.41954 0.56799 0.78694 0.0
H444 H 0.45325 0.60534 0.70899 0.0
O445 O 0.45884 0.92662 0.83974 0.0
C446 C 0.35912 0.98633 0.77891 0.0
C447 C 0.45344 0.73235 0.72426 0.0
C448 C 0.42615 0.63059 0.77801 0.0
N449 N 0.42442 0.7713 0.79951 0.0
C450 C 0.441 0.79233 0.75644 0.0
C451 C 0.41789 0.69119 0.81059 0.0
C452 C 0.44388 0.65159 0.7342 0.0
C453 C 0.24128 0.98888 0.90386 0.0
N454 N 0.27468 0.03366 0.87601 0.0
C455 C 0.18451 0.98637 0.8957 0.0
C456 C 0.16231 0.02637 0.85777 0.0
C457 C 0.19652 0.07298 0.83003 0.0
C458 C 0.25263 0.07747 0.84041 0.0
C459 C 0.3232 0.25994 0.93738 0.0
C460 C 0.39298 0.19433 0.87183 0.0
C461 C 0.31776 0.18019 0.92294 0.0
N462 N 0.35335 0.14791 0.89116 0.0
C463 C 0.3985 0.27545 0.88482 0.0
C464 C 0.36448 0.30721 0.91874 0.0
C465 C 0.47268 0.99164 0.86202 0.0
C466 C 0.4087 0.70218 0.95527 0.0
C467 C 0.47764 0.7921 0.90034 0.0
C468 C 0.50002 0.74588 0.93591 0.0
C469 C 0.46543 0.69788 0.96221 0.0
N470 N 0.4218 0.79434 0.89319 0.0
C471 C 0.38734 0.75398 0.92229 0.0
Co472 Co 0.83031 0.47373 0.38437 0.0
Co473 Co 0.86495 0.65774 0.33913 0.0
O474 O 0.82799 0.58843 0.3811 0.0
C475 C 0.87109 0.52595 0.47724 0.0
O476 O 0.90496 0.57243 0.45404 0.0
C477 C 0.74548 0.71415 0.33166 0.0
O478 O 0.72679 0.64008 0.33375 0.0
O479 O 0.84103 0.59092 0.28463 0.0
O480 O 0.829 0.46492 0.313 0.0
H481 H 0.94958 0.75475 0.19084 0.0
H482 H 0.74641 0.55507 0.44376 0.0
O483 O 0.83554 0.48351 0.45518 0.0
H484 H 0.64167 0.41758 0.32061 0.0
H485 H 0.77342 0.22865 0.47118 0.0
H486 H 0.88184 0.33057 0.34001 0.0
H487 H 0.74198 0.39784 0.32787 0.0
H488 H 0.77089 0.37129 0.44969 0.0
O489 O 0.79701 0.72788 0.33282 0.0
H490 H 0.92314 0.65058 0.2476 0.0
H491 H 0.87096 0.83594 0.33927 0.0
H492 H 0.88438 0.18194 0.36138 0.0
H493 H 0.64562 0.56831 0.44075 0.0
H494 H 0.83233 0.13474 0.42819 0.0
H495 H 0.59263 0.50514 0.37691 0.0
O496 O 0.9138 0.47093 0.37996 0.0
H497 H 0.82176 0.84212 0.46821 0.0
H498 H 0.97205 0.71665 0.37977 0.0
H499 H -0.00806 0.83639 0.42907 0.0
H500 H 0.91503 0.9056 0.468 0.0
H501 H 0.80387 0.72643 0.41795 0.0
H502 H 0.89394 0.93879 0.28259 0.0
H503 H 0.93209 0.89863 0.20669 0.0
O504 O 0.9365 0.5887 0.34461 0.0
C505 C 0.8321 0.51548 0.27884 0.0
C506 C 0.93018 0.77204 0.22274 0.0
C507 C 0.90106 0.8759 0.27475 0.0
N508 N 0.89776 0.73614 0.29783 0.0
C509 C 0.91665 0.71352 0.25557 0.0
C510 C 0.8895 0.81654 0.30728 0.0
C511 C 0.92145 0.85331 0.23203 0.0
C512 C 0.72358 0.52344 0.4173 0.0
N513 N 0.75035 0.4769 0.38554 0.0
C514 C 0.66647 0.53295 0.41509 0.0
C515 C 0.63686 0.49693 0.37935 0.0
C516 C 0.66429 0.44778 0.34782 0.0
C517 C 0.72122 0.43714 0.35204 0.0
C518 C 0.79707 0.2499 0.44214 0.0
C519 C 0.85751 0.30661 0.36775 0.0
C520 C 0.79593 0.33064 0.42944 0.0
N521 N 0.82705 0.35846 0.3933 0.0
C522 C 0.85888 0.22441 0.37936 0.0
C523 C 0.82939 0.19679 0.41733 0.0
C524 C 0.94958 0.51853 0.36154 0.0
C525 C 0.85508 0.81629 0.44815 0.0
C526 C 0.93934 0.74561 0.39833 0.0
C527 C 0.95065 0.81281 0.42578 0.0
C528 C 0.90741 0.85119 0.44835 0.0
N529 N 0.88625 0.72075 0.39235 0.0
C530 C 0.84531 0.75017 0.42002 0.0
Co531 Co 0.12798 0.53162 0.38331 0.0
Co532 Co 0.09107 0.34893 0.33999 0.0
O533 O 0.13036 0.41677 0.38156 0.0
C534 C 0.10503 0.47756 0.47979 0.0
O535 O 0.06653 0.43291 0.4608 0.0
C536 C 0.20701 0.28348 0.32991 0.0
O537 O 0.22533 0.35596 0.32017 0.0
O538 O 0.12162 0.40927 0.2857 0.0
O539 O 0.12037 0.5377 0.31219 0.0
H540 H 0.00748 0.24747 0.19314 0.0
H541 H 0.22365 0.45434 0.43249 0.0
O542 O 0.13454 0.5232 0.45401 0.0
H543 H 0.30279 0.60465 0.30114 0.0
H544 H 0.18571 0.78422 0.46321 0.0
H545 H 0.06086 0.66566 0.34813 0.0
H546 H 0.20404 0.6145 0.31918 0.0
H547 H 0.19566 0.64245 0.43894 0.0
O548 O 0.15636 0.27257 0.33946 0.0
H549 H 0.03522 0.35447 0.24743 0.0
H550 H 0.07943 0.1723 0.34375 0.0
H551 H 0.0525 0.81315 0.37029 0.0
H552 H 0.32441 0.45463 0.41942 0.0
H553 H 0.11194 0.86734 0.43078 0.0
H554 H 0.36387 0.52225 0.35136 0.0
O555 O 0.04434 0.53098 0.38657 0.0
H556 H 0.10021 0.16404 0.47423 0.0
H557 H 0.97631 0.32432 0.37805 0.0
H558 H 0.93774 0.24588 0.44211 0.0
H559 H -0.00164 0.15762 0.48752 0.0
H560 H 0.13854 0.25705 0.41882 0.0
H561 H 0.06271 0.06741 0.28667 0.0
H562 H 0.02902 0.10484 0.20872 0.0
O563 O 0.02336 0.42614 0.33952 0.0
C564 C 0.12312 0.48553 0.27879 0.0
C565 C 0.02879 0.23183 0.22405 0.0
C566 C 0.05609 0.13002 0.27776 0.0
N567 N 0.05776 0.27069 0.29932 0.0
C568 C 0.04121 0.29178 0.25625 0.0
C569 C 0.06429 0.19057 0.31038 0.0
C570 C 0.03837 0.15106 0.23396 0.0
C571 C 0.24083 0.48804 0.40397 0.0
N572 N 0.20755 0.53268 0.37594 0.0
C573 C 0.29762 0.48532 0.39593 0.0
C574 C 0.31995 0.52489 0.35791 0.0
C575 C 0.28585 0.57132 0.32996 0.0
C576 C 0.22973 0.5761 0.34025 0.0
C577 C 0.15929 0.75932 0.43701 0.0
C578 C 0.08944 0.69371 0.37151 0.0
C579 C 0.16466 0.67953 0.42263 0.0
N580 N 0.12902 0.64725 0.39089 0.0
C581 C 0.084 0.77486 0.38445 0.0
C582 C 0.11804 0.80661 0.41836 0.0
C583 C 0.00955 0.49117 0.36181 0.0
C584 C 0.07264 0.20139 0.45507 0.0
C585 C 0.00416 0.29185 0.40007 0.0
C586 C 0.98153 0.24578 0.43559 0.0
C587 C 0.01589 0.19755 0.46196 0.0
N588 N 0.06003 0.29374 0.39301 0.0
C589 C 0.09428 0.25307 0.42215 0.0
Co590 Co 0.83017 0.52653 0.12412 0.0
Co591 Co 0.86493 0.34244 0.16927 0.0
O592 O 0.82782 0.41179 0.12738 0.0
C593 C 0.87077 0.47455 0.03117 0.0
O594 O 0.90458 0.42789 0.0543 0.0
C595 C 0.7455 0.28589 0.17691 0.0
O596 O 0.72673 0.3599 0.17467 0.0
O597 O 0.84116 0.40928 0.22382 0.0
O598 O 0.82901 0.53527 0.19548 0.0
H599 H 0.94945 0.24525 0.31758 0.0
H600 H 0.74599 0.44512 0.06497 0.0
O601 O 0.83522 0.5169 0.05328 0.0
H602 H 0.64177 0.58351 0.1881 0.0
H603 H 0.77301 0.77167 0.03752 0.0
H604 H 0.88279 0.66933 0.16779 0.0
H605 H 0.7421 0.60276 0.18068 0.0
H606 H 0.77015 0.62917 0.05928 0.0
O607 O 0.79704 0.27227 0.17577 0.0
H608 H 0.92318 0.34949 0.26079 0.0
H609 H 0.87105 0.16421 0.16903 0.0
H610 H 0.88589 0.8178 0.14606 0.0
H611 H 0.64512 0.43225 0.06818 0.0
H612 H 0.83302 0.86522 0.07976 0.0
H613 H 0.59244 0.49593 0.132 0.0
O614 O 0.9137 0.52923 0.12836 0.0
H615 H 0.82105 0.1578 0.04053 0.0
H616 H 0.97185 0.28334 0.12837 0.0
H617 H -0.00855 0.16351 0.07906 0.0
H618 H 0.91431 0.09438 0.04035 0.0
H619 H 0.80351 0.27378 0.09064 0.0
H620 H 0.89414 0.06131 0.22561 0.0
H621 H 0.93219 0.10136 0.30157 0.0
O622 O 0.93649 0.41143 0.16362 0.0
C623 C 0.83212 0.48469 0.22963 0.0
C624 C 0.93025 0.22799 0.28559 0.0
C625 C 0.90124 0.12418 0.23349 0.0
N626 N 0.89786 0.264 0.21049 0.0
C627 C 0.91674 0.28655 0.25277 0.0
C628 C 0.88963 0.1836 0.201 0.0
C629 C 0.9216 0.14672 0.27623 0.0
C630 C 0.72327 0.4769 0.09144 0.0
N631 N 0.7502 0.52345 0.1231 0.0
C632 C 0.66613 0.46762 0.09375 0.0
C633 C 0.63668 0.50393 0.12949 0.0
C634 C 0.66428 0.55309 0.16091 0.0
C635 C 0.72122 0.56345 0.1566 0.0
C636 C 0.79688 0.75038 0.06644 0.0
C637 C 0.85809 0.69346 0.14032 0.0
C638 C 0.79552 0.66973 0.07929 0.0
N639 N 0.82698 0.6418 0.11521 0.0
C640 C 0.85976 0.77556 0.12851 0.0
C641 C 0.82985 0.80329 0.0908 0.0
C642 C 0.94954 0.4816 0.14668 0.0
C643 C 0.8545 0.1837 0.06043 0.0
C644 C 0.93904 0.25444 0.10989 0.0
C645 C 0.95018 0.18715 0.08246 0.0
C646 C 0.90682 0.14878 0.06004 0.0
N647 N 0.886 0.27941 0.11599 0.0
C648 C 0.84492 0.24997 0.08848 0.0
Co649 Co 0.12797 0.46831 0.12492 0.0
Co650 Co 0.09117 0.65103 0.16827 0.0
O651 O 0.13053 0.58313 0.12679 0.0
C652 C 0.10526 0.52285 0.0285 0.0
O653 O 0.06674 0.56743 0.04752 0.0
C654 C 0.20707 0.71654 0.17868 0.0
O655 O 0.22543 0.64413 0.18852 0.0
O656 O 0.12152 0.59056 0.22259 0.0
O657 O 0.12032 0.46212 0.19605 0.0
H658 H 0.00748 0.75264 0.31503 0.0
H659 H 0.22385 0.54574 0.07607 0.0
O660 O 0.13466 0.47698 0.05423 0.0
H661 H 0.30252 0.39398 0.20708 0.0
H662 H 0.1854 0.21579 0.04476 0.0
H663 H 0.06067 0.33436 0.15992 0.0
H664 H 0.20377 0.38467 0.18889 0.0
H665 H 0.19548 0.35749 0.06915 0.0
O666 O 0.15646 0.72733 0.16896 0.0
H667 H 0.03521 0.6456 0.26078 0.0
H668 H 0.0795 0.82767 0.16442 0.0
H669 H 0.05218 0.18691 0.1377 0.0
H670 H 0.32459 0.54512 0.08934 0.0
H671 H 0.1116 0.13269 0.07719 0.0
H672 H 0.3638 0.47675 0.15723 0.0
O673 O 0.04432 0.46914 0.1216 0.0
H674 H 0.10128 0.83554 0.03398 0.0
H675 H 0.97659 0.67621 0.13002 0.0
H676 H 0.93842 0.75493 0.06583 0.0
H677 H -0.0006 0.84285 0.02062 0.0
H678 H 0.1391 0.7423 0.08948 0.0
H679 H 0.06267 0.93263 0.22143 0.0
H680 H 0.02895 0.89527 0.29938 0.0
O681 O 0.02337 0.57399 0.16862 0.0
C682 C 0.12309 0.51428 0.22946 0.0
C683 C 0.02877 0.76826 0.28411 0.0
C684 C 0.05605 0.87002 0.23036 0.0
N685 N 0.05779 0.72932 0.20886 0.0
C686 C 0.0412 0.70828 0.25193 0.0
C687 C 0.06432 0.80943 0.19778 0.0
C688 C 0.03833 0.84903 0.27417 0.0
C689 C 0.24093 0.51174 0.10451 0.0
N690 N 0.20753 0.46695 0.13236 0.0
C691 C 0.2977 0.51424 0.11267 0.0
C692 C 0.3199 0.47425 0.1506 0.0
C693 C 0.28568 0.42763 0.17834 0.0
C694 C 0.22958 0.42314 0.16796 0.0
C695 C 0.15901 0.24068 0.07099 0.0
C696 C 0.08922 0.30629 0.13654 0.0
C697 C 0.16445 0.32043 0.08543 0.0
N698 N 0.12886 0.3527 0.11721 0.0
C699 C 0.0837 0.22517 0.12355 0.0
C700 C 0.11773 0.19341 0.08962 0.0
C701 C 0.00953 0.50898 0.14635 0.0
C702 C 0.0735 0.79844 0.0531 0.0
C703 C 0.00456 0.70852 0.10803 0.0
C704 C 0.98219 0.75473 0.07246 0.0
C705 C 0.01677 0.80273 0.04616 0.0
N706 N 0.06041 0.70628 0.11518 0.0
C707 C 0.09487 0.74664 0.08607 0.0
Co708 Co 0.15191 0.52686 0.62399 0.0
Co709 Co 0.11724 0.34286 0.66922 0.0
O710 O 0.15421 0.41215 0.62725 0.0
C711 C 0.11112 0.47466 0.53111 0.0
O712 O 0.07725 0.42818 0.55431 0.0
C713 C 0.23671 0.28643 0.67671 0.0
O714 O 0.2554 0.3605 0.67461 0.0
O715 O 0.14116 0.40967 0.72372 0.0
O716 O 0.15322 0.53566 0.69535 0.0
H717 H 0.03261 0.24584 0.81751 0.0
H718 H 0.2358 0.44552 0.56458 0.0
O719 O 0.14668 0.51709 0.55317 0.0
H720 H 0.34057 0.58294 0.68774 0.0
H721 H 0.20885 0.77194 0.53719 0.0
H722 H 0.10034 0.67001 0.66831 0.0
H723 H 0.24026 0.6027 0.68049 0.0
H724 H 0.21138 0.6293 0.55869 0.0
O725 O 0.18518 0.2727 0.67554 0.0
H726 H 0.05905 0.35001 0.76075 0.0
H727 H 0.11122 0.16465 0.66907 0.0
H728 H 0.09779 0.81863 0.64693 0.0
H729 H 0.33659 0.43227 0.56757 0.0
H730 H 0.1499 0.86584 0.58015 0.0
H731 H 0.38959 0.49541 0.63142 0.0
O732 O 0.06842 0.52967 0.62839 0.0
H733 H 0.16045 0.15844 0.54016 0.0
H734 H 0.01015 0.28396 0.62856 0.0
H735 H 0.99025 0.16422 0.57926 0.0
H736 H 0.06717 0.09499 0.54035 0.0
H737 H 0.17834 0.27414 0.59041 0.0
H738 H 0.08823 0.0618 0.72575 0.0
H739 H 0.05008 0.10196 0.80166 0.0
O740 O 0.0457 0.4119 0.66373 0.0
C741 C 0.15011 0.48511 0.72951 0.0
C742 C 0.052 0.22856 0.78561 0.0
C743 C 0.08112 0.12469 0.73359 0.0
N744 N 0.08442 0.26446 0.71051 0.0
C745 C 0.06553 0.28707 0.75278 0.0
C746 C 0.09268 0.18406 0.70106 0.0
C747 C 0.06073 0.14728 0.77632 0.0
C748 C 0.25863 0.47714 0.59105 0.0
N749 N 0.23187 0.52367 0.62281 0.0
C750 C 0.31574 0.46762 0.59324 0.0
C751 C 0.34535 0.50362 0.62899 0.0
C752 C 0.31793 0.55275 0.66053 0.0
C753 C 0.261 0.56341 0.65632 0.0
C754 C 0.18518 0.75068 0.56623 0.0
C755 C 0.1247 0.69398 0.64059 0.0
C756 C 0.18633 0.66995 0.57893 0.0
N757 N 0.15518 0.64213 0.61506 0.0
C758 C 0.12332 0.77617 0.62897 0.0
C759 C 0.15284 0.8038 0.59102 0.0
C760 C 0.03263 0.48208 0.64681 0.0
C761 C 0.12712 0.18428 0.56021 0.0
C762 C 0.04286 0.25499 0.61001 0.0
C763 C 0.03155 0.18779 0.58257 0.0
C764 C 0.07479 0.14939 0.56001 0.0
N765 N 0.09595 0.27984 0.616 0.0
C766 C 0.13689 0.25041 0.58833 0.0
Co767 Co 0.85423 0.46903 0.62505 0.0
Co768 Co 0.89115 0.65172 0.66836 0.0
O769 O 0.85186 0.58388 0.62679 0.0
C770 C 0.87718 0.52307 0.52856 0.0
O771 O 0.91568 0.56772 0.54756 0.0
C772 C 0.77522 0.71717 0.67846 0.0
O773 O 0.7569 0.64469 0.68819 0.0
O774 O 0.86061 0.59139 0.72265 0.0
O775 O 0.86184 0.46295 0.69617 0.0
H776 H 0.97475 0.75318 0.8152 0.0
H777 H 0.75856 0.54628 0.57584 0.0
O778 O 0.84766 0.47743 0.55435 0.0
H779 H 0.6794 0.39611 0.70723 0.0
H780 H 0.79644 0.21642 0.54519 0.0
H781 H 0.92136 0.33499 0.6602 0.0
H782 H 0.77815 0.38622 0.68921 0.0
H783 H 0.7865 0.3582 0.56945 0.0
O784 O 0.82587 0.72809 0.6689 0.0
H785 H 0.94701 0.64618 0.76092 0.0
H786 H 0.90281 0.82835 0.6646 0.0
H787 H 0.9297 0.1875 0.63804 0.0
H788 H 0.6578 0.54598 0.58889 0.0
H789 H 0.87022 0.13331 0.57758 0.0
H790 H 0.61833 0.47846 0.65698 0.0
O791 O 0.93786 0.46965 0.62178 0.0
H792 H 0.882 0.83665 0.53414 0.0
H793 H 0.0059 0.6763 0.63028 0.0
H794 H 0.04447 0.75474 0.56622 0.0
H795 H 0.98385 0.84304 0.52083 0.0
H796 H 0.84368 0.74362 0.58954 0.0
H797 H 0.91954 0.93324 0.72167 0.0
H798 H 0.95322 0.89581 0.79962 0.0
O799 O 0.95886 0.5745 0.66883 0.0
C800 C 0.85909 0.51513 0.72956 0.0
C801 C 0.95344 0.76882 0.7843 0.0
C802 C 0.92616 0.87063 0.73058 0.0
N803 N 0.92447 0.72995 0.70902 0.0
C804 C 0.94102 0.70887 0.75209 0.0
C805 C 0.91795 0.81008 0.69796 0.0
C806 C 0.94387 0.84959 0.77439 0.0
C807 C 0.74138 0.51261 0.60437 0.0
N808 N 0.77465 0.46799 0.63241 0.0
C809 C 0.68459 0.51533 0.6124 0.0
C810 C 0.66225 0.47581 0.65044 0.0
C811 C 0.69634 0.42941 0.6784 0.0
C812 C 0.75246 0.42461 0.66812 0.0
C813 C 0.82287 0.24133 0.57137 0.0
C814 C 0.89276 0.30694 0.63684 0.0
C815 C 0.81751 0.32112 0.58575 0.0
N816 N 0.85317 0.3534 0.61747 0.0
C817 C 0.8982 0.22579 0.62389 0.0
C818 C 0.86413 0.19404 0.59 0.0
C819 C 0.97266 0.50946 0.64654 0.0
C820 C 0.90957 0.79929 0.55328 0.0
C821 C 0.97806 0.70878 0.60826 0.0
C822 C 0.00068 0.75486 0.57274 0.0
C823 C 0.96632 0.80311 0.54639 0.0
N824 N 0.92219 0.70691 0.61533 0.0
C825 C 0.88794 0.7476 0.5862 0.0
Co826 Co 0.15203 0.47406 0.88424 0.0
Co827 Co 0.1173 0.65815 0.83908 0.0
O828 O 0.15439 0.5888 0.88097 0.0
C829 C 0.11144 0.52606 0.97719 0.0
O830 O 0.07763 0.57272 0.95405 0.0
C831 C 0.23673 0.71469 0.83145 0.0
O832 O 0.25549 0.64068 0.83369 0.0
O833 O 0.14107 0.59131 0.78453 0.0
O834 O 0.15319 0.46531 0.81287 0.0
H835 H 0.03278 0.75534 0.69077 0.0
H836 H 0.23623 0.55546 0.94337 0.0
O837 O 0.14699 0.4837 0.95507 0.0
H838 H 0.34041 0.41701 0.82024 0.0
H839 H 0.20915 0.22891 0.97085 0.0
H840 H 0.09943 0.33125 0.84054 0.0
H841 H 0.24009 0.39778 0.82768 0.0
H842 H 0.21201 0.37142 0.9491 0.0
O843 O 0.18519 0.72831 0.83259 0.0
H844 H 0.05905 0.65111 0.74756 0.0
H845 H 0.11119 0.83638 0.83932 0.0
H846 H 0.09634 0.18278 0.86226 0.0
H847 H 0.3371 0.56834 0.94014 0.0
H848 H 0.14916 0.13536 0.92859 0.0
H849 H 0.38976 0.50461 0.87632 0.0
O850 O 0.0685 0.47138 0.87999 0.0
H851 H 0.16115 0.84275 0.96784 0.0
H852 H 0.01037 0.71726 0.87997 0.0
H853 H 0.99076 0.83709 0.92928 0.0
H854 H 0.0679 0.9062 0.968 0.0
H855 H 0.1787 0.72679 0.91772 0.0
H856 H 0.08811 0.93928 0.78273 0.0
H857 H 0.05005 0.89923 0.70677 0.0
O858 O 0.04573 0.58917 0.84472 0.0
C859 C 0.15009 0.51589 0.77873 0.0
C860 C 0.05198 0.7726 0.72276 0.0
C861 C 0.08101 0.87641 0.77486 0.0
N862 N 0.08437 0.73659 0.79786 0.0
C863 C 0.06549 0.71404 0.75558 0.0
C864 C 0.09261 0.81699 0.80734 0.0
C865 C 0.06065 0.85387 0.73211 0.0
C866 C 0.25894 0.52368 0.9169 0.0
N867 N 0.232 0.47711 0.88525 0.0
C868 C 0.31608 0.53294 0.91458 0.0
C869 C 0.34552 0.49662 0.87885 0.0
C870 C 0.31792 0.44745 0.84744 0.0
C871 C 0.26098 0.43709 0.85176 0.0
C872 C 0.18528 0.2502 0.94193 0.0
C873 C 0.12411 0.30713 0.86802 0.0
C874 C 0.18665 0.33086 0.92907 0.0
N875 N 0.15521 0.35879 0.89315 0.0
C876 C 0.12245 0.22502 0.87982 0.0
C877 C 0.15233 0.1973 0.91755 0.0
C878 C 0.03267 0.51901 0.86167 0.0
C879 C 0.12771 0.81687 0.94793 0.0
C880 C 0.04317 0.74616 0.89845 0.0
C881 C 0.03203 0.81344 0.92588 0.0
C882 C 0.07539 0.85181 0.94831 0.0
N883 N 0.09621 0.72118 0.89235 0.0
C884 C 0.13729 0.75061 0.91988 0.0
Co885 Co 0.85424 0.53234 0.88343 0.0
Co886 Co 0.89103 0.34962 0.84008 0.0
O887 O 0.85167 0.41752 0.88156 0.0
C888 C 0.87696 0.47777 0.97986 0.0
O889 O 0.91547 0.4332 0.96083 0.0
C890 C 0.77512 0.28411 0.82968 0.0
O891 O 0.75676 0.35652 0.81984 0.0
O892 O 0.86068 0.4101 0.78576 0.0
O893 O 0.86189 0.53854 0.81231 0.0
H894 H 0.97471 0.248 0.69332 0.0
H895 H 0.75835 0.45488 0.93226 0.0
O896 O 0.84756 0.52366 0.95412 0.0
H897 H 0.67971 0.60676 0.8013 0.0
H898 H 0.79687 0.78485 0.96363 0.0
H899 H 0.92153 0.66629 0.84841 0.0
H900 H 0.77846 0.61605 0.81949 0.0
H901 H 0.78677 0.64316 0.93924 0.0
O902 O 0.82573 0.27332 0.8394 0.0
H903 H 0.94699 0.35505 0.74757 0.0
H904 H 0.90268 0.17298 0.84392 0.0
H905 H 0.93003 0.81374 0.87063 0.0
H906 H 0.65761 0.4555 0.91898 0.0
H907 H 0.87064 0.86796 0.93116 0.0
H908 H 0.61842 0.52395 0.85111 0.0
O909 O 0.93789 0.53149 0.88676 0.0
H910 H 0.88092 0.16516 0.97439 0.0
H911 H 0.00561 0.32441 0.87831 0.0
H912 H 0.04378 0.2457 0.9425 0.0
H913 H 0.9828 0.15782 0.98773 0.0
H914 H 0.8431 0.25838 0.91888 0.0
H915 H 0.9195 0.06802 0.78691 0.0
H916 H 0.95322 0.10538 0.70896 0.0
O917 O 0.95883 0.42664 0.83972 0.0
C918 C 0.85911 0.48638 0.7789 0.0
C919 C 0.95342 0.23239 0.72424 0.0
C920 C 0.92612 0.13062 0.77798 0.0
N921 N 0.92439 0.27133 0.79948 0.0
C922 C 0.94099 0.29237 0.75642 0.0
C923 C 0.91786 0.19122 0.81057 0.0
C924 C 0.94385 0.15162 0.73417 0.0
C925 C 0.74128 0.48891 0.90383 0.0
N926 N 0.77468 0.53372 0.876 0.0
C927 C 0.68451 0.48641 0.89567 0.0
C928 C 0.66232 0.52644 0.85775 0.0
C929 C 0.69654 0.57308 0.83003 0.0
C930 C 0.75264 0.57756 0.84041 0.0
C931 C 0.82325 0.75997 0.93739 0.0
C932 C 0.89299 0.69436 0.8718 0.0
C933 C 0.8178 0.68022 0.92295 0.0
N934 N 0.85337 0.64795 0.89116 0.0
C935 C 0.89852 0.77548 0.8848 0.0
C936 C 0.86451 0.80724 0.91874 0.0
C937 C 0.97268 0.49165 0.862 0.0
C938 C 0.9087 0.20224 0.95525 0.0
C939 C 0.97764 0.29212 0.90031 0.0
C940 C 1e-05 0.24591 0.93588 0.0
C941 C 0.96543 0.19793 0.96219 0.0
N942 N 0.92179 0.29437 0.89316 0.0
C943 C 0.88733 0.25403 0.92228 0.0
loop_
_geom_bond_atom_site_label_1
_geom_bond_atom_site_label_2
_geom_bond_distance
_geom_bond_site_symmetry_2
_ccdc_geom_bond_type
Co0 O2 2.143 1_565 S
Co0 O8 2.074 . S
Co0 O11 2.093 . S
Co0 O24 2.097 . S
Co0 N41 2.151 . S
Co0 N49 2.214 . S
Co1 O2 2.160 . S
Co1 O7 2.058 . S
Co1 O17 2.057 . S
Co1 O32 2.037 . S
Co1 N36 2.145 . S
Co1 N57 2.257 . S
O2 Co0 2.143 1_545 S
O2 Co1 2.160 . S
C3 O4 1.278 . S
C3 O11 1.224 1_545 S
O4 C3 1.278 . S
C5 O6 1.245 . S
C5 O17 1.232 . S
O6 C5 1.245 . S
O7 Co1 2.058 . S
O7 C33 1.269 1_545 S
O8 Co0 2.074 . S
O8 C33 1.257 . S
H9 C34 0.930 . S
H10 C40 0.930 . S
O11 Co0 2.093 . S
O11 C3 1.224 1_565 S
H12 C44 0.929 . S
H13 C46 0.930 . S
H14 C47 0.930 . S
H15 C45 0.929 . S
H16 C48 0.928 . S
O17 Co1 2.057 . S
O17 C5 1.232 . S
H18 C37 0.929 . S
H19 C38 0.929 . S
H20 C50 0.931 . S
H21 C42 0.929 . S
H22 C51 0.930 . S
H23 C43 0.931 . S
O24 Co0 2.097 . S
O24 C52 1.214 1_565 S
H25 C53 0.929 . S
H26 C54 0.929 . S
H27 C55 0.930 . S
H28 C56 0.929 . S
H29 C58 0.930 . S
H30 C35 0.930 . S
H31 C39 0.930 . S
O32 Co1 2.037 . S
O32 C52 1.234 . S
C33 O7 1.269 1_565 S
C33 O8 1.257 . S
C34 H9 0.930 . S
C34 C37 1.388 . S
C34 C39 1.418 . S
C35 H30 0.930 . S
C35 C38 1.404 . S
C35 C39 1.353 . S
N36 Co1 2.145 . S
N36 C37 1.397 . S
N36 C38 1.334 . S
C37 H18 0.929 . S
C37 C34 1.388 . S
C37 N36 1.397 . S
C38 H19 0.929 . S
C38 C35 1.404 . S
C38 N36 1.334 . S
C39 H31 0.930 . S
C39 C34 1.418 . S
C39 C35 1.353 . S
C40 H10 0.930 . S
C40 N41 1.330 . S
C40 C42 1.446 . S
N41 Co0 2.151 . S
N41 C40 1.330 . S
N41 C45 1.418 . S
C42 H21 0.929 . S
C42 C40 1.446 . S
C42 C43 1.332 . S
C43 H23 0.931 . S
C43 C42 1.332 . S
C43 C44 1.267 . S
C44 H12 0.929 . S
C44 C43 1.267 . S
C44 C45 1.251 . S
C45 H15 0.929 . S
C45 N41 1.418 . S
C45 C44 1.251 . S
C46 H13 0.930 . S
C46 C48 1.406 . S
C46 C51 1.261 . S
C47 H14 0.930 . S
C47 N49 1.325 . S
C47 C50 1.357 . S
C48 H16 0.928 . S
C48 C46 1.406 . S
C48 N49 1.261 . S
N49 Co0 2.214 . S
N49 C47 1.325 . S
N49 C48 1.261 . S
C50 H20 0.931 . S
C50 C47 1.357 . S
C50 C51 1.312 . S
C51 H22 0.930 . S
C51 C46 1.261 . S
C51 C50 1.312 . S
C52 O24 1.214 1_545 S
C52 O32 1.234 . S
C53 H25 0.929 . S
C53 C56 1.391 . S
C53 C58 1.391 . S
C54 H26 0.929 . S
C54 C55 1.390 . S
C54 N57 1.391 . S
C55 H27 0.930 . S
C55 C54 1.390 . S
C55 C56 1.392 . S
C56 H28 0.929 . S
C56 C53 1.391 . S
C56 C55 1.392 . S
N57 Co1 2.257 . S
N57 C54 1.391 . S
N57 C58 1.388 . S
C58 H29 0.930 . S
C58 C53 1.391 . S
C58 N57 1.388 . S
Co59 O61 2.143 1_545 S
Co59 O67 2.074 . S
Co59 O70 2.093 . S
Co59 O83 2.097 . S
Co59 N100 2.151 . S
Co59 N108 2.214 . S
Co60 O61 2.160 . S
Co60 O66 2.058 . S
Co60 O76 2.057 . S
Co60 O91 2.037 . S
Co60 N95 2.145 . S
Co60 N116 2.257 . S
O61 Co59 2.143 1_565 S
O61 Co60 2.160 . S
C62 O63 1.278 . S
C62 O70 1.224 1_565 S
O63 C62 1.278 . S
C64 O65 1.245 . S
C64 O76 1.232 . S
O65 C64 1.245 . S
O66 Co60 2.058 . S
O66 C92 1.269 1_565 S
O67 Co59 2.074 . S
O67 C92 1.257 . S
H68 C93 0.930 . S
H69 C99 0.930 . S
O70 Co59 2.093 . S
O70 C62 1.224 1_545 S
H71 C103 0.929 . S
H72 C105 0.930 . S
H73 C106 0.930 . S
H74 C104 0.929 . S
H75 C107 0.928 . S
O76 Co60 2.057 . S
O76 C64 1.232 . S
H77 C96 0.929 . S
H78 C97 0.929 . S
H79 C109 0.931 . S
H80 C101 0.929 . S
H81 C110 0.930 . S
H82 C102 0.931 . S
O83 Co59 2.097 . S
O83 C111 1.214 1_545 S
H84 C112 0.929 . S
H85 C113 0.929 . S
H86 C114 0.930 . S
H87 C115 0.929 . S
H88 C117 0.930 . S
H89 C94 0.930 . S
H90 C98 0.930 . S
O91 Co60 2.037 . S
O91 C111 1.234 . S
C92 O66 1.269 1_545 S
C92 O67 1.257 . S
C93 H68 0.930 . S
C93 C96 1.388 . S
C93 C98 1.418 . S
C94 H89 0.930 . S
C94 C97 1.404 . S
C94 C98 1.353 . S
N95 Co60 2.145 . S
N95 C96 1.397 . S
N95 C97 1.334 . S
C96 H77 0.929 . S
C96 C93 1.388 . S
C96 N95 1.397 . S
C97 H78 0.929 . S
C97 C94 1.404 . S
C97 N95 1.334 . S
C98 H90 0.930 . S
C98 C93 1.418 . S
C98 C94 1.353 . S
C99 H69 0.930 . S
C99 N100 1.330 . S
C99 C101 1.446 . S
N100 Co59 2.151 . S
N100 C99 1.330 . S
N100 C104 1.418 . S
C101 H80 0.929 . S
C101 C99 1.446 . S
C101 C102 1.332 . S
C102 H82 0.931 . S
C102 C101 1.332 . S
C102 C103 1.267 . S
C103 H71 0.929 . S
C103 C102 1.267 . S
C103 C104 1.251 . S
C104 H74 0.929 . S
C104 N100 1.418 . S
C104 C103 1.251 . S
C105 H72 0.930 . S
C105 C107 1.406 . S
C105 C110 1.261 . S
C106 H73 0.930 . S
C106 N108 1.325 . S
C106 C109 1.357 . S
C107 H75 0.928 . S
C107 C105 1.406 . S
C107 N108 1.261 . S
N108 Co59 2.214 . S
N108 C106 1.325 . S
N108 C107 1.261 . S
C109 H79 0.931 . S
C109 C106 1.357 . S
C109 C110 1.312 . S
C110 H81 0.930 . S
C110 C105 1.261 . S
C110 C109 1.312 . S
C111 O83 1.214 1_565 S
C111 O91 1.234 . S
C112 H84 0.929 . S
C112 C115 1.391 . S
C112 C117 1.391 . S
C113 H85 0.929 . S
C113 C114 1.390 . S
C113 N116 1.391 . S
C114 H86 0.930 . S
C114 C113 1.390 . S
C114 C115 1.392 . S
C115 H87 0.929 . S
C115 C112 1.391 . S
C115 C114 1.392 . S
N116 Co60 2.257 . S
N116 C113 1.391 . S
N116 C117 1.388 . S
C117 H88 0.930 . S
C117 C112 1.391 . S
C117 N116 1.388 . S
Co118 O120 2.143 1_545 S
Co118 O126 2.074 . S
Co118 O129 2.093 . S
Co118 O142 2.097 . S
Co118 N159 2.151 . S
Co118 N167 2.214 . S
Co119 O120 2.160 . S
Co119 O125 2.058 . S
Co119 O135 2.057 . S
Co119 O150 2.037 . S
Co119 N154 2.145 . S
Co119 N175 2.257 . S
O120 Co118 2.143 1_565 S
O120 Co119 2.160 . S
C121 O122 1.278 . S
C121 O129 1.224 1_565 S
O122 C121 1.278 . S
C123 O124 1.245 . S
C123 O135 1.232 . S
O124 C123 1.245 . S
O125 Co119 2.058 . S
O125 C151 1.269 1_565 S
O126 Co118 2.074 . S
O126 C151 1.257 . S
H127 C152 0.930 . S
H128 C158 0.930 . S
O129 Co118 2.093 . S
O129 C121 1.224 1_545 S
H130 C162 0.929 . S
H131 C164 0.930 . S
H132 C165 0.930 . S
H133 C163 0.929 . S
H134 C166 0.928 . S
O135 Co119 2.057 . S
O135 C123 1.232 . S
H136 C155 0.929 . S
H137 C156 0.929 . S
H138 C168 0.931 . S
H139 C160 0.929 . S
H140 C169 0.930 . S
H141 C161 0.931 . S
O142 Co118 2.097 . S
O142 C170 1.214 1_545 S
H143 C171 0.929 . S
H144 C172 0.929 . S
H145 C173 0.930 . S
H146 C174 0.929 . S
H147 C176 0.930 . S
H148 C153 0.930 . S
H149 C157 0.930 . S
O150 Co119 2.037 . S
O150 C170 1.234 . S
C151 O125 1.269 1_545 S
C151 O126 1.257 . S
C152 H127 0.930 . S
C152 C155 1.388 . S
C152 C157 1.418 . S
C153 H148 0.930 . S
C153 C156 1.404 . S
C153 C157 1.353 . S
N154 Co119 2.145 . S
N154 C155 1.397 . S
N154 C156 1.334 . S
C155 H136 0.929 . S
C155 C152 1.388 . S
C155 N154 1.397 . S
C156 H137 0.929 . S
C156 C153 1.404 . S
C156 N154 1.334 . S
C157 H149 0.930 . S
C157 C152 1.418 . S
C157 C153 1.353 . S
C158 H128 0.930 . S
C158 N159 1.330 . S
C158 C160 1.446 . S
N159 Co118 2.151 . S
N159 C158 1.330 . S
N159 C163 1.418 . S
C160 H139 0.929 . S
C160 C158 1.446 . S
C160 C161 1.332 . S
C161 H141 0.931 . S
C161 C160 1.332 . S
C161 C162 1.267 . S
C162 H130 0.929 . S
C162 C161 1.267 . S
C162 C163 1.251 . S
C163 H133 0.929 . S
C163 N159 1.418 . S
C163 C162 1.251 . S
C164 H131 0.930 . S
C164 C166 1.406 . S
C164 C169 1.261 . S
C165 H132 0.930 . S
C165 N167 1.325 . S
C165 C168 1.357 . S
C166 H134 0.928 . S
C166 C164 1.406 . S
C166 N167 1.261 . S
N167 Co118 2.214 . S
N167 C165 1.325 . S
N167 C166 1.261 . S
C168 H138 0.931 . S
C168 C165 1.357 . S
C168 C169 1.312 . S
C169 H140 0.930 . S
C169 C164 1.261 . S
C169 C168 1.312 . S
C170 O142 1.214 1_565 S
C170 O150 1.234 . S
C171 H143 0.929 . S
C171 C174 1.391 . S
C171 C176 1.391 . S
C172 H144 0.929 . S
C172 C173 1.390 . S
C172 N175 1.391 . S
C173 H145 0.930 . S
C173 C172 1.390 . S
C173 C174 1.392 . S
C174 H146 0.929 . S
C174 C171 1.391 . S
C174 C173 1.392 . S
N175 Co119 2.257 . S
N175 C172 1.391 . S
N175 C176 1.388 . S
C176 H147 0.930 . S
C176 C171 1.391 . S
C176 N175 1.388 . S
Co177 O179 2.143 1_565 S
Co177 O185 2.074 . S
Co177 O188 2.093 . S
Co177 O201 2.097 . S
Co177 N218 2.151 . S
Co177 N226 2.214 . S
Co178 O179 2.160 . S
Co178 O184 2.058 . S
Co178 O194 2.057 . S
Co178 O209 2.037 . S
Co178 N213 2.145 . S
Co178 N234 2.257 . S
O179 Co177 2.143 1_545 S
O179 Co178 2.160 . S
C180 O181 1.278 . S
C180 O188 1.224 1_545 S
O181 C180 1.278 . S
C182 O183 1.245 . S
C182 O194 1.232 . S
O183 C182 1.245 . S
O184 Co178 2.058 . S
O184 C210 1.269 1_545 S
O185 Co177 2.074 . S
O185 C210 1.257 . S
H186 C211 0.930 . S
H187 C217 0.930 . S
O188 Co177 2.093 . S
O188 C180 1.224 1_565 S
H189 C221 0.929 . S
H190 C223 0.930 . S
H191 C224 0.930 . S
H192 C222 0.929 . S
H193 C225 0.928 . S
O194 Co178 2.057 . S
O194 C182 1.232 . S
H195 C214 0.929 . S
H196 C215 0.929 . S
H197 C227 0.931 . S
H198 C219 0.929 . S
H199 C228 0.930 . S
H200 C220 0.931 . S
O201 Co177 2.097 . S
O201 C229 1.214 1_565 S
H202 C230 0.929 . S
H203 C231 0.929 . S
H204 C232 0.930 . S
H205 C233 0.929 . S
H206 C235 0.930 . S
H207 C212 0.930 . S
H208 C216 0.930 . S
O209 Co178 2.037 . S
O209 C229 1.234 . S
C210 O184 1.269 1_565 S
C210 O185 1.257 . S
C211 H186 0.930 . S
C211 C214 1.388 . S
C211 C216 1.418 . S
C212 H207 0.930 . S
C212 C215 1.404 . S
C212 C216 1.353 . S
N213 Co178 2.145 . S
N213 C214 1.397 . S
N213 C215 1.334 . S
C214 H195 0.929 . S
C214 C211 1.388 . S
C214 N213 1.397 . S
C215 H196 0.929 . S
C215 C212 1.404 . S
C215 N213 1.334 . S
C216 H208 0.930 . S
C216 C211 1.418 . S
C216 C212 1.353 . S
C217 H187 0.930 . S
C217 N218 1.330 . S
C217 C219 1.446 . S
N218 Co177 2.151 . S
N218 C217 1.330 . S
N218 C222 1.418 . S
C219 H198 0.929 . S
C219 C217 1.446 . S
C219 C220 1.332 . S
C220 H200 0.931 . S
C220 C219 1.332 . S
C220 C221 1.267 . S
C221 H189 0.929 . S
C221 C220 1.267 . S
C221 C222 1.251 . S
C222 H192 0.929 . S
C222 N218 1.418 . S
C222 C221 1.251 . S
C223 H190 0.930 . S
C223 C225 1.406 . S
C223 C228 1.261 . S
C224 H191 0.930 . S
C224 N226 1.325 . S
C224 C227 1.357 . S
C225 H193 0.928 . S
C225 C223 1.406 . S
C225 N226 1.261 . S
N226 Co177 2.214 . S
N226 C224 1.325 . S
N226 C225 1.261 . S
C227 H197 0.931 . S
C227 C224 1.357 . S
C227 C228 1.312 . S
C228 H199 0.930 . S
C228 C223 1.261 . S
C228 C227 1.312 . S
C229 O201 1.214 1_545 S
C229 O209 1.234 . S
C230 H202 0.929 . S
C230 C233 1.391 . S
C230 C235 1.391 . S
C231 H203 0.929 . S
C231 C232 1.390 . S
C231 N234 1.391 . S
C232 H204 0.930 . S
C232 C231 1.390 . S
C232 C233 1.392 . S
C233 H205 0.929 . S
C233 C230 1.391 . S
C233 C232 1.392 . S
N234 Co178 2.257 . S
N234 C231 1.391 . S
N234 C235 1.388 . S
C235 H206 0.930 . S
C235 C230 1.391 . S
C235 N234 1.388 . S
Co236 O238 2.143 1_545 S
Co236 O244 2.074 . S
Co236 O247 2.093 . S
Co236 O260 2.097 . S
Co236 N277 2.151 . S
Co236 N285 2.214 . S
Co237 O238 2.160 . S
Co237 O243 2.058 . S
Co237 O253 2.057 . S
Co237 O268 2.037 . S
Co237 N272 2.145 . S
Co237 N293 2.257 . S
O238 Co236 2.143 1_565 S
O238 Co237 2.160 . S
C239 O240 1.278 . S
C239 O247 1.224 1_565 S
O240 C239 1.278 . S
C241 O242 1.245 . S
C241 O253 1.232 . S
O242 C241 1.245 . S
O243 Co237 2.058 . S
O243 C269 1.269 1_565 S
O244 Co236 2.074 . S
O244 C269 1.257 . S
H245 C270 0.930 . S
H246 C276 0.930 . S
O247 Co236 2.093 . S
O247 C239 1.224 1_545 S
H248 C280 0.929 . S
H249 C282 0.930 . S
H250 C283 0.930 . S
H251 C281 0.929 . S
H252 C284 0.928 . S
O253 Co237 2.057 . S
O253 C241 1.232 . S
H254 C273 0.929 . S
H255 C274 0.929 . S
H256 C286 0.931 . S
H257 C278 0.929 . S
H258 C287 0.930 . S
H259 C279 0.931 . S
O260 Co236 2.097 . S
O260 C288 1.214 1_545 S
H261 C289 0.929 . S
H262 C290 0.929 . S
H263 C291 0.930 . S
H264 C292 0.929 . S
H265 C294 0.930 . S
H266 C271 0.930 . S
H267 C275 0.930 . S
O268 Co237 2.037 . S
O268 C288 1.234 . S
C269 O243 1.269 1_545 S
C269 O244 1.257 . S
C270 H245 0.930 . S
C270 C273 1.388 . S
C270 C275 1.418 . S
C271 H266 0.930 . S
C271 C274 1.404 . S
C271 C275 1.353 . S
N272 Co237 2.145 . S
N272 C273 1.397 . S
N272 C274 1.334 . S
C273 H254 0.929 . S
C273 C270 1.388 . S
C273 N272 1.397 . S
C274 H255 0.929 . S
C274 C271 1.404 . S
C274 N272 1.334 . S
C275 H267 0.930 . S
C275 C270 1.418 . S
C275 C271 1.353 . S
C276 H246 0.930 . S
C276 N277 1.330 . S
C276 C278 1.446 . S
N277 Co236 2.151 . S
N277 C276 1.330 . S
N277 C281 1.418 . S
C278 H257 0.929 . S
C278 C276 1.446 . S
C278 C279 1.332 . S
C279 H259 0.931 . S
C279 C278 1.332 . S
C279 C280 1.267 . S
C280 H248 0.929 . S
C280 C279 1.267 . S
C280 C281 1.251 . S
C281 H251 0.929 . S
C281 N277 1.418 . S
C281 C280 1.251 . S
C282 H249 0.930 . S
C282 C284 1.406 . S
C282 C287 1.261 . S
C283 H250 0.930 . S
C283 N285 1.325 . S
C283 C286 1.357 . S
C284 H252 0.928 . S
C284 C282 1.406 . S
C284 N285 1.261 . S
N285 Co236 2.214 . S
N285 C283 1.325 . S
N285 C284 1.261 . S
C286 H256 0.931 . S
C286 C283 1.357 . S
C286 C287 1.312 . S
C287 H258 0.930 . S
C287 C282 1.261 . S
C287 C286 1.312 . S
C288 O260 1.214 1_565 S
C288 O268 1.234 . S
C289 H261 0.929 . S
C289 C292 1.391 . S
C289 C294 1.391 . S
C290 H262 0.929 . S
C290 C291 1.390 . S
C290 N293 1.391 . S
C291 H263 0.930 . S
C291 C290 1.390 . S
C291 C292 1.392 . S
C292 H264 0.929 . S
C292 C289 1.391 . S
C292 C291 1.392 . S
N293 Co237 2.257 . S
N293 C290 1.391 . S
N293 C294 1.388 . S
C294 H265 0.930 . S
C294 C289 1.391 . S
C294 N293 1.388 . S
Co295 O297 2.143 1_565 S
Co295 O303 2.074 . S
Co295 O306 2.093 . S
Co295 O319 2.097 . S
Co295 N336 2.151 . S
Co295 N344 2.214 . S
Co296 O297 2.160 . S
Co296 O302 2.058 . S
Co296 O312 2.057 . S
Co296 O327 2.037 . S
Co296 N331 2.145 . S
Co296 N352 2.257 . S
O297 Co295 2.143 1_545 S
O297 Co296 2.160 . S
C298 O299 1.278 . S
C298 O306 1.224 1_545 S
O299 C298 1.278 . S
C300 O301 1.245 . S
C300 O312 1.232 . S
O301 C300 1.245 . S
O302 Co296 2.058 . S
O302 C328 1.269 1_545 S
O303 Co295 2.074 . S
O303 C328 1.257 . S
H304 C329 0.930 . S
H305 C335 0.930 . S
O306 Co295 2.093 . S
O306 C298 1.224 1_565 S
H307 C339 0.929 . S
H308 C341 0.930 . S
H309 C342 0.930 . S
H310 C340 0.929 . S
H311 C343 0.928 . S
O312 Co296 2.057 . S
O312 C300 1.232 . S
H313 C332 0.929 . S
H314 C333 0.929 . S
H315 C345 0.931 . S
H316 C337 0.929 . S
H317 C346 0.930 . S
H318 C338 0.931 . S
O319 Co295 2.097 . S
O319 C347 1.214 1_565 S
H320 C348 0.929 . S
H321 C349 0.929 . S
H322 C350 0.930 . S
H323 C351 0.929 . S
H324 C353 0.930 . S
H325 C330 0.930 . S
H326 C334 0.930 . S
O327 Co296 2.037 . S
O327 C347 1.234 . S
C328 O302 1.269 1_565 S
C328 O303 1.257 . S
C329 H304 0.930 . S
C329 C332 1.388 . S
C329 C334 1.418 . S
C330 H325 0.930 . S
C330 C333 1.404 . S
C330 C334 1.353 . S
N331 Co296 2.145 . S
N331 C332 1.397 . S
N331 C333 1.334 . S
C332 H313 0.929 . S
C332 C329 1.388 . S
C332 N331 1.397 . S
C333 H314 0.929 . S
C333 C330 1.404 . S
C333 N331 1.334 . S
C334 H326 0.930 . S
C334 C329 1.418 . S
C334 C330 1.353 . S
C335 H305 0.930 . S
C335 N336 1.330 . S
C335 C337 1.446 . S
N336 Co295 2.151 . S
N336 C335 1.330 . S
N336 C340 1.418 . S
C337 H316 0.929 . S
C337 C335 1.446 . S
C337 C338 1.332 . S
C338 H318 0.931 . S
C338 C337 1.332 . S
C338 C339 1.267 . S
C339 H307 0.929 . S
C339 C338 1.267 . S
C339 C340 1.251 . S
C340 H310 0.929 . S
C340 N336 1.418 . S
C340 C339 1.251 . S
C341 H308 0.930 . S
C341 C343 1.406 . S
C341 C346 1.261 . S
C342 H309 0.930 . S
C342 N344 1.325 . S
C342 C345 1.357 . S
C343 H311 0.928 . S
C343 C341 1.406 . S
C343 N344 1.261 . S
N344 Co295 2.214 . S
N344 C342 1.325 . S
N344 C343 1.261 . S
C345 H315 0.931 . S
C345 C342 1.357 . S
C345 C346 1.312 . S
C346 H317 0.930 . S
C346 C341 1.261 . S
C346 C345 1.312 . S
C347 O319 1.214 1_545 S
C347 O327 1.234 . S
C348 H320 0.929 . S
C348 C351 1.391 . S
C348 C353 1.391 . S
C349 H321 0.929 . S
C349 C350 1.390 . S
C349 N352 1.391 . S
C350 H322 0.930 . S
C350 C349 1.390 . S
C350 C351 1.392 . S
C351 H323 0.929 . S
C351 C348 1.391 . S
C351 C350 1.392 . S
N352 Co296 2.257 . S
N352 C349 1.391 . S
N352 C353 1.388 . S
C353 H324 0.930 . S
C353 C348 1.391 . S
C353 N352 1.388 . S
Co354 O356 2.143 1_565 S
Co354 O362 2.074 . S
Co354 O365 2.093 . S
Co354 O378 2.097 . S
Co354 N395 2.151 . S
Co354 N403 2.214 . S
Co355 O356 2.160 . S
Co355 O361 2.058 . S
Co355 O371 2.057 . S
Co355 O386 2.037 . S
Co355 N390 2.145 . S
Co355 N411 2.257 . S
O356 Co354 2.143 1_545 S
O356 Co355 2.160 . S
C357 O358 1.278 . S
C357 O365 1.224 1_545 S
O358 C357 1.278 . S
C359 O360 1.245 . S
C359 O371 1.232 . S
O360 C359 1.245 . S
O361 Co355 2.058 . S
O361 C387 1.269 1_545 S
O362 Co354 2.074 . S
O362 C387 1.257 . S
H363 C388 0.930 . S
H364 C394 0.930 . S
O365 Co354 2.093 . S
O365 C357 1.224 1_565 S
H366 C398 0.929 . S
H367 C400 0.930 . S
H368 C401 0.930 . S
H369 C399 0.929 . S
H370 C402 0.928 . S
O371 Co355 2.057 . S
O371 C359 1.232 . S
H372 C391 0.929 . S
H373 C392 0.929 . S
H374 C404 0.931 . S
H375 C396 0.929 . S
H376 C405 0.930 . S
H377 C397 0.931 . S
O378 Co354 2.097 . S
O378 C406 1.214 1_565 S
H379 C407 0.929 . S
H380 C408 0.929 . S
H381 C409 0.930 . S
H382 C410 0.929 . S
H383 C412 0.930 . S
H384 C389 0.930 . S
H385 C393 0.930 . S
O386 Co355 2.037 . S
O386 C406 1.234 . S
C387 O361 1.269 1_565 S
C387 O362 1.257 . S
C388 H363 0.930 . S
C388 C391 1.388 . S
C388 C393 1.418 . S
C389 H384 0.930 . S
C389 C392 1.404 . S
C389 C393 1.353 . S
N390 Co355 2.145 . S
N390 C391 1.397 . S
N390 C392 1.334 . S
C391 H372 0.929 . S
C391 C388 1.388 . S
C391 N390 1.397 . S
C392 H373 0.929 . S
C392 C389 1.404 . S
C392 N390 1.334 . S
C393 H385 0.930 . S
C393 C388 1.418 . S
C393 C389 1.353 . S
C394 H364 0.930 . S
C394 N395 1.330 . S
C394 C396 1.446 . S
N395 Co354 2.151 . S
N395 C394 1.330 . S
N395 C399 1.418 . S
C396 H375 0.929 . S
C396 C394 1.446 . S
C396 C397 1.332 . S
C397 H377 0.931 . S
C397 C396 1.332 . S
C397 C398 1.267 . S
C398 H366 0.929 . S
C398 C397 1.267 . S
C398 C399 1.251 . S
C399 H369 0.929 . S
C399 N395 1.418 . S
C399 C398 1.251 . S
C400 H367 0.930 . S
C400 C402 1.406 . S
C400 C405 1.261 . S
C401 H368 0.930 . S
C401 N403 1.325 . S
C401 C404 1.357 . S
C402 H370 0.928 . S
C402 C400 1.406 . S
C402 N403 1.261 . S
N403 Co354 2.214 . S
N403 C401 1.325 . S
N403 C402 1.261 . S
C404 H374 0.931 . S
C404 C401 1.357 . S
C404 C405 1.312 . S
C405 H376 0.930 . S
C405 C400 1.261 . S
C405 C404 1.312 . S
C406 O378 1.214 1_545 S
C406 O386 1.234 . S
C407 H379 0.929 . S
C407 C410 1.391 . S
C407 C412 1.391 . S
C408 H380 0.929 . S
C408 C409 1.390 . S
C408 N411 1.391 . S
C409 H381 0.930 . S
C409 C408 1.390 . S
C409 C410 1.392 . S
C410 H382 0.929 . S
C410 C407 1.391 . S
C410 C409 1.392 . S
N411 Co355 2.257 . S
N411 C408 1.391 . S
N411 C412 1.388 . S
C412 H383 0.930 . S
C412 C407 1.391 . S
C412 N411 1.388 . S
Co413 O415 2.143 1_545 S
Co413 O421 2.074 . S
Co413 O424 2.093 . S
Co413 O437 2.097 . S
Co413 N454 2.151 . S
Co413 N462 2.214 . S
Co414 O415 2.160 . S
Co414 O420 2.058 . S
Co414 O430 2.057 . S
Co414 O445 2.037 . S
Co414 N449 2.145 . S
Co414 N470 2.257 . S
O415 Co413 2.143 1_565 S
O415 Co414 2.160 . S
C416 O417 1.278 . S
C416 O424 1.224 1_565 S
O417 C416 1.278 . S
C418 O419 1.245 . S
C418 O430 1.232 . S
O419 C418 1.245 . S
O420 Co414 2.058 . S
O420 C446 1.269 1_565 S
O421 Co413 2.074 . S
O421 C446 1.257 . S
H422 C447 0.930 . S
H423 C453 0.930 . S
O424 Co413 2.093 . S
O424 C416 1.224 1_545 S
H425 C457 0.929 . S
H426 C459 0.930 . S
H427 C460 0.930 . S
H428 C458 0.929 . S
H429 C461 0.928 . S
O430 Co414 2.057 . S
O430 C418 1.232 . S
H431 C450 0.929 . S
H432 C451 0.929 . S
H433 C463 0.931 . S
H434 C455 0.929 . S
H435 C464 0.930 . S
H436 C456 0.931 . S
O437 Co413 2.097 . S
O437 C465 1.214 1_545 S
H438 C466 0.929 . S
H439 C467 0.929 . S
H440 C468 0.930 . S
H441 C469 0.929 . S
H442 C471 0.930 . S
H443 C448 0.930 . S
H444 C452 0.930 . S
O445 Co414 2.037 . S
O445 C465 1.234 . S
C446 O420 1.269 1_545 S
C446 O421 1.257 . S
C447 H422 0.930 . S
C447 C450 1.388 . S
C447 C452 1.418 . S
C448 H443 0.930 . S
C448 C451 1.404 . S
C448 C452 1.353 . S
N449 Co414 2.145 . S
N449 C450 1.397 . S
N449 C451 1.334 . S
C450 H431 0.929 . S
C450 C447 1.388 . S
C450 N449 1.397 . S
C451 H432 0.929 . S
C451 C448 1.404 . S
C451 N449 1.334 . S
C452 H444 0.930 . S
C452 C447 1.418 . S
C452 C448 1.353 . S
C453 H423 0.930 . S
C453 N454 1.330 . S
C453 C455 1.446 . S
N454 Co413 2.151 . S
N454 C453 1.330 . S
N454 C458 1.418 . S
C455 H434 0.929 . S
C455 C453 1.446 . S
C455 C456 1.332 . S
C456 H436 0.931 . S
C456 C455 1.332 . S
C456 C457 1.267 . S
C457 H425 0.929 . S
C457 C456 1.267 . S
C457 C458 1.251 . S
C458 H428 0.929 . S
C458 N454 1.418 . S
C458 C457 1.251 . S
C459 H426 0.930 . S
C459 C461 1.406 . S
C459 C464 1.261 . S
C460 H427 0.930 . S
C460 N462 1.325 . S
C460 C463 1.357 . S
C461 H429 0.928 . S
C461 C459 1.406 . S
C461 N462 1.261 . S
N462 Co413 2.214 . S
N462 C460 1.325 . S
N462 C461 1.261 . S
C463 H433 0.931 . S
C463 C460 1.357 . S
C463 C464 1.312 . S
C464 H435 0.930 . S
C464 C459 1.261 . S
C464 C463 1.312 . S
C465 O437 1.214 1_565 S
C465 O445 1.234 . S
C466 H438 0.929 . S
C466 C469 1.391 . S
C466 C471 1.391 . S
C467 H439 0.929 . S
C467 C468 1.390 . S
C467 N470 1.391 . S
C468 H440 0.930 . S
C468 C467 1.390 . S
C468 C469 1.392 . S
C469 H441 0.929 . S
C469 C466 1.391 . S
C469 C468 1.392 . S
N470 Co414 2.257 . S
N470 C467 1.391 . S
N470 C471 1.388 . S
C471 H442 0.930 . S
C471 C466 1.391 . S
C471 N470 1.388 . S
Co472 O474 2.143 . S
Co472 O480 2.074 . S
Co472 O483 2.093 . S
Co472 O496 2.097 . S
Co472 N513 2.151 . S
Co472 N521 2.214 . S
Co473 O474 2.160 . S
Co473 O479 2.058 . S
Co473 O489 2.057 . S
Co473 O504 2.037 . S
Co473 N508 2.145 . S
Co473 N529 2.257 . S
O474 Co472 2.143 . S
O474 Co473 2.160 . S
C475 O476 1.278 . S
C475 O483 1.224 . S
O476 C475 1.278 . S
C477 O478 1.245 . S
C477 O489 1.232 . S
O478 C477 1.245 . S
O479 Co473 2.058 . S
O479 C505 1.269 . S
O480 Co472 2.074 . S
O480 C505 1.257 . S
H481 C506 0.930 1_455 S
H482 C512 0.930 . S
O483 Co472 2.093 . S
O483 C475 1.224 . S
H484 C516 0.929 . S
H485 C518 0.930 . S
H486 C519 0.930 . S
H487 C517 0.929 . S
H488 C520 0.928 . S
O489 Co473 2.057 . S
O489 C477 1.232 . S
H490 C509 0.929 . S
H491 C510 0.929 . S
H492 C522 0.931 . S
H493 C514 0.929 . S
H494 C523 0.930 . S
H495 C515 0.931 . S
O496 Co472 2.097 . S
O496 C524 1.214 . S
H497 C525 0.929 . S
H498 C526 0.929 . S
H499 C527 0.930 . S
H500 C528 0.929 . S
H501 C530 0.930 . S
H502 C507 0.930 . S
H503 C511 0.930 . S
O504 Co473 2.037 . S
O504 C524 1.234 . S
C505 O479 1.269 . S
C505 O480 1.257 . S
C506 H481 0.930 1_655 S
C506 C509 1.388 . S
C506 C511 1.418 . S
C507 H502 0.930 . S
C507 C510 1.404 . S
C507 C511 1.353 . S
N508 Co473 2.145 . S
N508 C509 1.397 . S
N508 C510 1.334 . S
C509 H490 0.929 . S
C509 C506 1.388 . S
C509 N508 1.397 . S
C510 H491 0.929 . S
C510 C507 1.404 . S
C510 N508 1.334 . S
C511 H503 0.930 . S
C511 C506 1.418 . S
C511 C507 1.353 . S
C512 H482 0.930 . S
C512 N513 1.330 . S
C512 C514 1.446 . S
N513 Co472 2.151 . S
N513 C512 1.330 . S
N513 C517 1.418 . S
C514 H493 0.929 . S
C514 C512 1.446 . S
C514 C515 1.332 . S
C515 H495 0.931 . S
C515 C514 1.332 . S
C515 C516 1.267 . S
C516 H484 0.929 . S
C516 C515 1.267 . S
C516 C517 1.251 . S
C517 H487 0.929 . S
C517 N513 1.418 . S
C517 C516 1.251 . S
C518 H485 0.930 . S
C518 C520 1.406 . S
C518 C523 1.261 . S
C519 H486 0.930 . S
C519 N521 1.325 . S
C519 C522 1.357 . S
C520 H488 0.928 . S
C520 C518 1.406 . S
C520 N521 1.261 . S
N521 Co472 2.214 . S
N521 C519 1.325 . S
N521 C520 1.261 . S
C522 H492 0.931 . S
C522 C519 1.357 . S
C522 C523 1.312 . S
C523 H494 0.930 . S
C523 C518 1.261 . S
C523 C522 1.312 . S
C524 O496 1.214 . S
C524 O504 1.234 . S
C525 H497 0.929 . S
C525 C528 1.391 . S
C525 C530 1.391 . S
C526 H498 0.929 . S
C526 C527 1.390 1_655 S
C526 N529 1.391 . S
C527 H499 0.930 . S
C527 C526 1.390 1_455 S
C527 C528 1.392 1_455 S
C528 H500 0.929 . S
C528 C525 1.391 . S
C528 C527 1.392 1_655 S
N529 Co473 2.257 . S
N529 C526 1.391 . S
N529 C530 1.388 . S
C530 H501 0.930 . S
C530 C525 1.391 . S
C530 N529 1.388 . S
Co531 O533 2.143 . S
Co531 O539 2.074 . S
Co531 O542 2.093 . S
Co531 O555 2.097 . S
Co531 N572 2.151 . S
Co531 N580 2.214 . S
Co532 O533 2.160 . S
Co532 O538 2.058 . S
Co532 O548 2.057 . S
Co532 O563 2.037 . S
Co532 N567 2.145 . S
Co532 N588 2.257 . S
O533 Co531 2.143 . S
O533 Co532 2.160 . S
C534 O535 1.278 . S
C534 O542 1.224 . S
O535 C534 1.278 . S
C536 O537 1.245 . S
C536 O548 1.232 . S
O537 C536 1.245 . S
O538 Co532 2.058 . S
O538 C564 1.269 . S
O539 Co531 2.074 . S
O539 C564 1.257 . S
H540 C565 0.930 1_655 S
H541 C571 0.930 . S
O542 Co531 2.093 . S
O542 C534 1.224 . S
H543 C575 0.929 . S
H544 C577 0.930 . S
H545 C578 0.930 . S
H546 C576 0.929 . S
H547 C579 0.928 . S
O548 Co532 2.057 . S
O548 C536 1.232 . S
H549 C568 0.929 . S
H550 C569 0.929 . S
H551 C581 0.931 . S
H552 C573 0.929 . S
H553 C582 0.930 . S
H554 C574 0.931 . S
O555 Co531 2.097 . S
O555 C583 1.214 . S
H556 C584 0.929 . S
H557 C585 0.929 . S
H558 C586 0.930 . S
H559 C587 0.929 . S
H560 C589 0.930 . S
H561 C566 0.930 . S
H562 C570 0.930 . S
O563 Co532 2.037 . S
O563 C583 1.234 . S
C564 O538 1.269 . S
C564 O539 1.257 . S
C565 H540 0.930 1_455 S
C565 C568 1.388 . S
C565 C570 1.418 . S
C566 H561 0.930 . S
C566 C569 1.404 . S
C566 C570 1.353 . S
N567 Co532 2.145 . S
N567 C568 1.397 . S
N567 C569 1.334 . S
C568 H549 0.929 . S
C568 C565 1.388 . S
C568 N567 1.397 . S
C569 H550 0.929 . S
C569 C566 1.404 . S
C569 N567 1.334 . S
C570 H562 0.930 . S
C570 C565 1.418 . S
C570 C566 1.353 . S
C571 H541 0.930 . S
C571 N572 1.330 . S
C571 C573 1.446 . S
N572 Co531 2.151 . S
N572 C571 1.330 . S
N572 C576 1.418 . S
C573 H552 0.929 . S
C573 C571 1.446 . S
C573 C574 1.332 . S
C574 H554 0.931 . S
C574 C573 1.332 . S
C574 C575 1.267 . S
C575 H543 0.929 . S
C575 C574 1.267 . S
C575 C576 1.251 . S
C576 H546 0.929 . S
C576 N572 1.418 . S
C576 C575 1.251 . S
C577 H544 0.930 . S
C577 C579 1.406 . S
C577 C582 1.261 . S
C578 H545 0.930 . S
C578 N580 1.325 . S
C578 C581 1.357 . S
C579 H547 0.928 . S
C579 C577 1.406 . S
C579 N580 1.261 . S
N580 Co531 2.214 . S
N580 C578 1.325 . S
N580 C579 1.261 . S
C581 H551 0.931 . S
C581 C578 1.357 . S
C581 C582 1.312 . S
C582 H553 0.930 . S
C582 C577 1.261 . S
C582 C581 1.312 . S
C583 O555 1.214 . S
C583 O563 1.234 . S
C584 H556 0.929 . S
C584 C587 1.391 . S
C584 C589 1.391 . S
C585 H557 0.929 . S
C585 C586 1.390 1_455 S
C585 N588 1.391 . S
C586 H558 0.930 . S
C586 C585 1.390 1_655 S
C586 C587 1.392 1_655 S
C587 H559 0.929 . S
C587 C584 1.391 . S
C587 C586 1.392 1_455 S
N588 Co532 2.257 . S
N588 C585 1.391 . S
N588 C589 1.388 . S
C589 H560 0.930 . S
C589 C584 1.391 . S
C589 N588 1.388 . S
Co590 O592 2.143 . S
Co590 O598 2.074 . S
Co590 O601 2.093 . S
Co590 O614 2.097 . S
Co590 N631 2.151 . S
Co590 N639 2.214 . S
Co591 O592 2.160 . S
Co591 O597 2.058 . S
Co591 O607 2.057 . S
Co591 O622 2.037 . S
Co591 N626 2.145 . S
Co591 N647 2.257 . S
O592 Co590 2.143 . S
O592 Co591 2.160 . S
C593 O594 1.278 . S
C593 O601 1.224 . S
O594 C593 1.278 . S
C595 O596 1.245 . S
C595 O607 1.232 . S
O596 C595 1.245 . S
O597 Co591 2.058 . S
O597 C623 1.269 . S
O598 Co590 2.074 . S
O598 C623 1.257 . S
H599 C624 0.930 1_455 S
H600 C630 0.930 . S
O601 Co590 2.093 . S
O601 C593 1.224 . S
H602 C634 0.929 . S
H603 C636 0.930 . S
H604 C637 0.930 . S
H605 C635 0.929 . S
H606 C638 0.928 . S
O607 Co591 2.057 . S
O607 C595 1.232 . S
H608 C627 0.929 . S
H609 C628 0.929 . S
H610 C640 0.931 . S
H611 C632 0.929 . S
H612 C641 0.930 . S
H613 C633 0.931 . S
O614 Co590 2.097 . S
O614 C642 1.214 . S
H615 C643 0.929 . S
H616 C644 0.929 . S
H617 C645 0.930 . S
H618 C646 0.929 . S
H619 C648 0.930 . S
H620 C625 0.930 . S
H621 C629 0.930 . S
O622 Co591 2.037 . S
O622 C642 1.234 . S
C623 O597 1.269 . S
C623 O598 1.257 . S
C624 H599 0.930 1_655 S
C624 C627 1.388 . S
C624 C629 1.418 . S
C625 H620 0.930 . S
C625 C628 1.404 . S
C625 C629 1.353 . S
N626 Co591 2.145 . S
N626 C627 1.397 . S
N626 C628 1.334 . S
C627 H608 0.929 . S
C627 C624 1.388 . S
C627 N626 1.397 . S
C628 H609 0.929 . S
C628 C625 1.404 . S
C628 N626 1.334 . S
C629 H621 0.930 . S
C629 C624 1.418 . S
C629 C625 1.353 . S
C630 H600 0.930 . S
C630 N631 1.330 . S
C630 C632 1.446 . S
N631 Co590 2.151 . S
N631 C630 1.330 . S
N631 C635 1.418 . S
C632 H611 0.929 . S
C632 C630 1.446 . S
C632 C633 1.332 . S
C633 H613 0.931 . S
C633 C632 1.332 . S
C633 C634 1.267 . S
C634 H602 0.929 . S
C634 C633 1.267 . S
C634 C635 1.251 . S
C635 H605 0.929 . S
C635 N631 1.418 . S
C635 C634 1.251 . S
C636 H603 0.930 . S
C636 C638 1.406 . S
C636 C641 1.261 . S
C637 H604 0.930 . S
C637 N639 1.325 . S
C637 C640 1.357 . S
C638 H606 0.928 . S
C638 C636 1.406 . S
C638 N639 1.261 . S
N639 Co590 2.214 . S
N639 C637 1.325 . S
N639 C638 1.261 . S
C640 H610 0.931 . S
C640 C637 1.357 . S
C640 C641 1.312 . S
C641 H612 0.930 . S
C641 C636 1.261 . S
C641 C640 1.312 . S
C642 O614 1.214 . S
C642 O622 1.234 . S
C643 H615 0.929 . S
C643 C646 1.391 . S
C643 C648 1.391 . S
C644 H616 0.929 . S
C644 C645 1.390 1_655 S
C644 N647 1.391 . S
C645 H617 0.930 . S
C645 C644 1.390 1_455 S
C645 C646 1.392 1_455 S
C646 H618 0.929 . S
C646 C643 1.391 . S
C646 C645 1.392 1_655 S
N647 Co591 2.257 . S
N647 C644 1.391 . S
N647 C648 1.388 . S
C648 H619 0.930 . S
C648 C643 1.391 . S
C648 N647 1.388 . S
Co649 O651 2.143 . S
Co649 O657 2.074 . S
Co649 O660 2.093 . S
Co649 O673 2.097 . S
Co649 N690 2.151 . S
Co649 N698 2.214 . S
Co650 O651 2.160 . S
Co650 O656 2.058 . S
Co650 O666 2.057 . S
Co650 O681 2.037 . S
Co650 N685 2.145 . S
Co650 N706 2.257 . S
O651 Co649 2.143 . S
O651 Co650 2.160 . S
C652 O653 1.278 . S
C652 O660 1.224 . S
O653 C652 1.278 . S
C654 O655 1.245 . S
C654 O666 1.232 . S
O655 C654 1.245 . S
O656 Co650 2.058 . S
O656 C682 1.269 . S
O657 Co649 2.074 . S
O657 C682 1.257 . S
H658 C683 0.930 1_655 S
H659 C689 0.930 . S
O660 Co649 2.093 . S
O660 C652 1.224 . S
H661 C693 0.929 . S
H662 C695 0.930 . S
H663 C696 0.930 . S
H664 C694 0.929 . S
H665 C697 0.928 . S
O666 Co650 2.057 . S
O666 C654 1.232 . S
H667 C686 0.929 . S
H668 C687 0.929 . S
H669 C699 0.931 . S
H670 C691 0.929 . S
H671 C700 0.930 . S
H672 C692 0.931 . S
O673 Co649 2.097 . S
O673 C701 1.214 . S
H674 C702 0.929 . S
H675 C703 0.929 . S
H676 C704 0.930 . S
H677 C705 0.929 . S
H678 C707 0.930 . S
H679 C684 0.930 . S
H680 C688 0.930 . S
O681 Co650 2.037 . S
O681 C701 1.234 . S
C682 O656 1.269 . S
C682 O657 1.257 . S
C683 H658 0.930 1_455 S
C683 C686 1.388 . S
C683 C688 1.418 . S
C684 H679 0.930 . S
C684 C687 1.404 . S
C684 C688 1.353 . S
N685 Co650 2.145 . S
N685 C686 1.397 . S
N685 C687 1.334 . S
C686 H667 0.929 . S
C686 C683 1.388 . S
C686 N685 1.397 . S
C687 H668 0.929 . S
C687 C684 1.404 . S
C687 N685 1.334 . S
C688 H680 0.930 . S
C688 C683 1.418 . S
C688 C684 1.353 . S
C689 H659 0.930 . S
C689 N690 1.330 . S
C689 C691 1.446 . S
N690 Co649 2.151 . S
N690 C689 1.330 . S
N690 C694 1.418 . S
C691 H670 0.929 . S
C691 C689 1.446 . S
C691 C692 1.332 . S
C692 H672 0.931 . S
C692 C691 1.332 . S
C692 C693 1.267 . S
C693 H661 0.929 . S
C693 C692 1.267 . S
C693 C694 1.251 . S
C694 H664 0.929 . S
C694 N690 1.418 . S
C694 C693 1.251 . S
C695 H662 0.930 . S
C695 C697 1.406 . S
C695 C700 1.261 . S
C696 H663 0.930 . S
C696 N698 1.325 . S
C696 C699 1.357 . S
C697 H665 0.928 . S
C697 C695 1.406 . S
C697 N698 1.261 . S
N698 Co649 2.214 . S
N698 C696 1.325 . S
N698 C697 1.261 . S
C699 H669 0.931 . S
C699 C696 1.357 . S
C699 C700 1.312 . S
C700 H671 0.930 . S
C700 C695 1.261 . S
C700 C699 1.312 . S
C701 O673 1.214 . S
C701 O681 1.234 . S
C702 H674 0.929 . S
C702 C705 1.391 . S
C702 C707 1.391 . S
C703 H675 0.929 . S
C703 C704 1.390 1_455 S
C703 N706 1.391 . S
C704 H676 0.930 . S
C704 C703 1.390 1_655 S
C704 C705 1.392 1_655 S
C705 H677 0.929 . S
C705 C702 1.391 . S
C705 C704 1.392 1_455 S
N706 Co650 2.257 . S
N706 C703 1.391 . S
N706 C707 1.388 . S
C707 H678 0.930 . S
C707 C702 1.391 . S
C707 N706 1.388 . S
Co708 O710 2.143 . S
Co708 O716 2.074 . S
Co708 O719 2.093 . S
Co708 O732 2.097 . S
Co708 N749 2.151 . S
Co708 N757 2.214 . S
Co709 O710 2.160 . S
Co709 O715 2.058 . S
Co709 O725 2.057 . S
Co709 O740 2.037 . S
Co709 N744 2.145 . S
Co709 N765 2.257 . S
O710 Co708 2.143 . S
O710 Co709 2.160 . S
C711 O712 1.278 . S
C711 O719 1.224 . S
O712 C711 1.278 . S
C713 O714 1.245 . S
C713 O725 1.232 . S
O714 C713 1.245 . S
O715 Co709 2.058 . S
O715 C741 1.269 . S
O716 Co708 2.074 . S
O716 C741 1.257 . S
H717 C742 0.930 1_655 S
H718 C748 0.930 . S
O719 Co708 2.093 . S
O719 C711 1.224 . S
H720 C752 0.929 . S
H721 C754 0.930 . S
H722 C755 0.930 . S
H723 C753 0.929 . S
H724 C756 0.928 . S
O725 Co709 2.057 . S
O725 C713 1.232 . S
H726 C745 0.929 . S
H727 C746 0.929 . S
H728 C758 0.931 . S
H729 C750 0.929 . S
H730 C759 0.930 . S
H731 C751 0.931 . S
O732 Co708 2.097 . S
O732 C760 1.214 . S
H733 C761 0.929 . S
H734 C762 0.929 . S
H735 C763 0.930 . S
H736 C764 0.929 . S
H737 C766 0.930 . S
H738 C743 0.930 . S
H739 C747 0.930 . S
O740 Co709 2.037 . S
O740 C760 1.234 . S
C741 O715 1.269 . S
C741 O716 1.257 . S
C742 H717 0.930 1_455 S
C742 C745 1.388 . S
C742 C747 1.418 . S
C743 H738 0.930 . S
C743 C746 1.404 . S
C743 C747 1.353 . S
N744 Co709 2.145 . S
N744 C745 1.397 . S
N744 C746 1.334 . S
C745 H726 0.929 . S
C745 C742 1.388 . S
C745 N744 1.397 . S
C746 H727 0.929 . S
C746 C743 1.404 . S
C746 N744 1.334 . S
C747 H739 0.930 . S
C747 C742 1.418 . S
C747 C743 1.353 . S
C748 H718 0.930 . S
C748 N749 1.330 . S
C748 C750 1.446 . S
N749 Co708 2.151 . S
N749 C748 1.330 . S
N749 C753 1.418 . S
C750 H729 0.929 . S
C750 C748 1.446 . S
C750 C751 1.332 . S
C751 H731 0.931 . S
C751 C750 1.332 . S
C751 C752 1.267 . S
C752 H720 0.929 . S
C752 C751 1.267 . S
C752 C753 1.251 . S
C753 H723 0.929 . S
C753 N749 1.418 . S
C753 C752 1.251 . S
C754 H721 0.930 . S
C754 C756 1.406 . S
C754 C759 1.261 . S
C755 H722 0.930 . S
C755 N757 1.325 . S
C755 C758 1.357 . S
C756 H724 0.928 . S
C756 C754 1.406 . S
C756 N757 1.261 . S
N757 Co708 2.214 . S
N757 C755 1.325 . S
N757 C756 1.261 . S
C758 H728 0.931 . S
C758 C755 1.357 . S
C758 C759 1.312 . S
C759 H730 0.930 . S
C759 C754 1.261 . S
C759 C758 1.312 . S
C760 O732 1.214 . S
C760 O740 1.234 . S
C761 H733 0.929 . S
C761 C764 1.391 . S
C761 C766 1.391 . S
C762 H734 0.929 . S
C762 C763 1.390 1_455 S
C762 N765 1.391 . S
C763 H735 0.930 . S
C763 C762 1.390 1_655 S
C763 C764 1.392 1_655 S
C764 H736 0.929 . S
C764 C761 1.391 . S
C764 C763 1.392 1_455 S
N765 Co709 2.257 . S
N765 C762 1.391 . S
N765 C766 1.388 . S
C766 H737 0.930 . S
C766 C761 1.391 . S
C766 N765 1.388 . S
Co767 O769 2.143 . S
Co767 O775 2.074 . S
Co767 O778 2.093 . S
Co767 O791 2.097 . S
Co767 N808 2.151 . S
Co767 N816 2.214 . S
Co768 O769 2.160 . S
Co768 O774 2.058 . S
Co768 O784 2.057 . S
Co768 O799 2.037 . S
Co768 N803 2.145 . S
Co768 N824 2.257 . S
O769 Co767 2.143 . S
O769 Co768 2.160 . S
C770 O771 1.278 . S
C770 O778 1.224 . S
O771 C770 1.278 . S
C772 O773 1.245 . S
C772 O784 1.232 . S
O773 C772 1.245 . S
O774 Co768 2.058 . S
O774 C800 1.269 . S
O775 Co767 2.074 . S
O775 C800 1.257 . S
H776 C801 0.930 1_455 S
H777 C807 0.930 . S
O778 Co767 2.093 . S
O778 C770 1.224 . S
H779 C811 0.929 . S
H780 C813 0.930 . S
H781 C814 0.930 . S
H782 C812 0.929 . S
H783 C815 0.928 . S
O784 Co768 2.057 . S
O784 C772 1.232 . S
H785 C804 0.929 . S
H786 C805 0.929 . S
H787 C817 0.931 . S
H788 C809 0.929 . S
H789 C818 0.930 . S
H790 C810 0.931 . S
O791 Co767 2.097 . S
O791 C819 1.214 . S
H792 C820 0.929 . S
H793 C821 0.929 . S
H794 C822 0.930 . S
H795 C823 0.929 . S
H796 C825 0.930 . S
H797 C802 0.930 . S
H798 C806 0.930 . S
O799 Co768 2.037 . S
O799 C819 1.234 . S
C800 O774 1.269 . S
C800 O775 1.257 . S
C801 H776 0.930 1_655 S
C801 C804 1.388 . S
C801 C806 1.418 . S
C802 H797 0.930 . S
C802 C805 1.404 . S
C802 C806 1.353 . S
N803 Co768 2.145 . S
N803 C804 1.397 . S
N803 C805 1.334 . S
C804 H785 0.929 . S
C804 C801 1.388 . S
C804 N803 1.397 . S
C805 H786 0.929 . S
C805 C802 1.404 . S
C805 N803 1.334 . S
C806 H798 0.930 . S
C806 C801 1.418 . S
C806 C802 1.353 . S
C807 H777 0.930 . S
C807 N808 1.330 . S
C807 C809 1.446 . S
N808 Co767 2.151 . S
N808 C807 1.330 . S
N808 C812 1.418 . S
C809 H788 0.929 . S
C809 C807 1.446 . S
C809 C810 1.332 . S
C810 H790 0.931 . S
C810 C809 1.332 . S
C810 C811 1.267 . S
C811 H779 0.929 . S
C811 C810 1.267 . S
C811 C812 1.251 . S
C812 H782 0.929 . S
C812 N808 1.418 . S
C812 C811 1.251 . S
C813 H780 0.930 . S
C813 C815 1.406 . S
C813 C818 1.261 . S
C814 H781 0.930 . S
C814 N816 1.325 . S
C814 C817 1.357 . S
C815 H783 0.928 . S
C815 C813 1.406 . S
C815 N816 1.261 . S
N816 Co767 2.214 . S
N816 C814 1.325 . S
N816 C815 1.261 . S
C817 H787 0.931 . S
C817 C814 1.357 . S
C817 C818 1.312 . S
C818 H789 0.930 . S
C818 C813 1.261 . S
C818 C817 1.312 . S
C819 O791 1.214 . S
C819 O799 1.234 . S
C820 H792 0.929 . S
C820 C823 1.391 . S
C820 C825 1.391 . S
C821 H793 0.929 . S
C821 C822 1.390 1_655 S
C821 N824 1.391 . S
C822 H794 0.930 . S
C822 C821 1.390 1_455 S
C822 C823 1.392 1_455 S
C823 H795 0.929 . S
C823 C820 1.391 . S
C823 C822 1.392 1_655 S
N824 Co768 2.257 . S
N824 C821 1.391 . S
N824 C825 1.388 . S
C825 H796 0.930 . S
C825 C820 1.391 . S
C825 N824 1.388 . S
Co826 O828 2.143 . S
Co826 O834 2.074 . S
Co826 O837 2.093 . S
Co826 O850 2.097 . S
Co826 N867 2.151 . S
Co826 N875 2.214 . S
Co827 O828 2.160 . S
Co827 O833 2.058 . S
Co827 O843 2.057 . S
Co827 O858 2.037 . S
Co827 N862 2.145 . S
Co827 N883 2.257 . S
O828 Co826 2.143 . S
O828 Co827 2.160 . S
C829 O830 1.278 . S
C829 O837 1.224 . S
O830 C829 1.278 . S
C831 O832 1.245 . S
C831 O843 1.232 . S
O832 C831 1.245 . S
O833 Co827 2.058 . S
O833 C859 1.269 . S
O834 Co826 2.074 . S
O834 C859 1.257 . S
H835 C860 0.930 1_655 S
H836 C866 0.930 . S
O837 Co826 2.093 . S
O837 C829 1.224 . S
H838 C870 0.929 . S
H839 C872 0.930 . S
H840 C873 0.930 . S
H841 C871 0.929 . S
H842 C874 0.928 . S
O843 Co827 2.057 . S
O843 C831 1.232 . S
H844 C863 0.929 . S
H845 C864 0.929 . S
H846 C876 0.931 . S
H847 C868 0.929 . S
H848 C877 0.930 . S
H849 C869 0.931 . S
O850 Co826 2.097 . S
O850 C878 1.214 . S
H851 C879 0.929 . S
H852 C880 0.929 . S
H853 C881 0.930 . S
H854 C882 0.929 . S
H855 C884 0.930 . S
H856 C861 0.930 . S
H857 C865 0.930 . S
O858 Co827 2.037 . S
O858 C878 1.234 . S
C859 O833 1.269 . S
C859 O834 1.257 . S
C860 H835 0.930 1_455 S
C860 C863 1.388 . S
C860 C865 1.418 . S
C861 H856 0.930 . S
C861 C864 1.404 . S
C861 C865 1.353 . S
N862 Co827 2.145 . S
N862 C863 1.397 . S
N862 C864 1.334 . S
C863 H844 0.929 . S
C863 C860 1.388 . S
C863 N862 1.397 . S
C864 H845 0.929 . S
C864 C861 1.404 . S
C864 N862 1.334 . S
C865 H857 0.930 . S
C865 C860 1.418 . S
C865 C861 1.353 . S
C866 H836 0.930 . S
C866 N867 1.330 . S
C866 C868 1.446 . S
N867 Co826 2.151 . S
N867 C866 1.330 . S
N867 C871 1.418 . S
C868 H847 0.929 . S
C868 C866 1.446 . S
C868 C869 1.332 . S
C869 H849 0.931 . S
C869 C868 1.332 . S
C869 C870 1.267 . S
C870 H838 0.929 . S
C870 C869 1.267 . S
C870 C871 1.251 . S
C871 H841 0.929 . S
C871 N867 1.418 . S
C871 C870 1.251 . S
C872 H839 0.930 . S
C872 C874 1.406 . S
C872 C877 1.261 . S
C873 H840 0.930 . S
C873 N875 1.325 . S
C873 C876 1.357 . S
C874 H842 0.928 . S
C874 C872 1.406 . S
C874 N875 1.261 . S
N875 Co826 2.214 . S
N875 C873 1.325 . S
N875 C874 1.261 . S
C876 H846 0.931 . S
C876 C873 1.357 . S
C876 C877 1.312 . S
C877 H848 0.930 . S
C877 C872 1.261 . S
C877 C876 1.312 . S
C878 O850 1.214 . S
C878 O858 1.234 . S
C879 H851 0.929 . S
C879 C882 1.391 . S
C879 C884 1.391 . S
C880 H852 0.929 . S
C880 C881 1.390 1_455 S
C880 N883 1.391 . S
C881 H853 0.930 . S
C881 C880 1.390 1_655 S
C881 C882 1.392 1_655 S
C882 H854 0.929 . S
C882 C879 1.391 . S
C882 C881 1.392 1_455 S
N883 Co827 2.257 . S
N883 C880 1.391 . S
N883 C884 1.388 . S
C884 H855 0.930 . S
C884 C879 1.391 . S
C884 N883 1.388 . S
Co885 O887 2.143 . S
Co885 O893 2.074 . S
Co885 O896 2.093 . S
Co885 O909 2.097 . S
Co885 N926 2.151 . S
Co885 N934 2.214 . S
Co886 O887 2.160 . S
Co886 O892 2.058 . S
Co886 O902 2.057 . S
Co886 O917 2.037 . S
Co886 N921 2.145 . S
Co886 N942 2.257 . S
O887 Co885 2.143 . S
O887 Co886 2.160 . S
C888 O889 1.278 . S
C888 O896 1.224 . S
O889 C888 1.278 . S
C890 O891 1.245 . S
C890 O902 1.232 . S
O891 C890 1.245 . S
O892 Co886 2.058 . S
O892 C918 1.269 . S
O893 Co885 2.074 . S
O893 C918 1.257 . S
H894 C919 0.930 1_455 S
H895 C925 0.930 . S
O896 Co885 2.093 . S
O896 C888 1.224 . S
H897 C929 0.929 . S
H898 C931 0.930 . S
H899 C932 0.930 . S
H900 C930 0.929 . S
H901 C933 0.928 . S
O902 Co886 2.057 . S
O902 C890 1.232 . S
H903 C922 0.929 . S
H904 C923 0.929 . S
H905 C935 0.931 . S
H906 C927 0.929 . S
H907 C936 0.930 . S
H908 C928 0.931 . S
O909 Co885 2.097 . S
O909 C937 1.214 . S
H910 C938 0.929 . S
H911 C939 0.929 . S
H912 C940 0.930 . S
H913 C941 0.929 . S
H914 C943 0.930 . S
H915 C920 0.930 . S
H916 C924 0.930 . S
O917 Co886 2.037 . S
O917 C937 1.234 . S
C918 O892 1.269 . S
C918 O893 1.257 . S
C919 H894 0.930 1_655 S
C919 C922 1.388 . S
C919 C924 1.418 . S
C920 H915 0.930 . S
C920 C923 1.404 . S
C920 C924 1.353 . S
N921 Co886 2.145 . S
N921 C922 1.397 . S
N921 C923 1.334 . S
C922 H903 0.929 . S
C922 C919 1.388 . S
C922 N921 1.397 . S
C923 H904 0.929 . S
C923 C920 1.404 . S
C923 N921 1.334 . S
C924 H916 0.930 . S
C924 C919 1.418 . S
C924 C920 1.353 . S
C925 H895 0.930 . S
C925 N926 1.330 . S
C925 C927 1.446 . S
N926 Co885 2.151 . S
N926 C925 1.330 . S
N926 C930 1.418 . S
C927 H906 0.929 . S
C927 C925 1.446 . S
C927 C928 1.332 . S
C928 H908 0.931 . S
C928 C927 1.332 . S
C928 C929 1.267 . S
C929 H897 0.929 . S
C929 C928 1.267 . S
C929 C930 1.251 . S
C930 H900 0.929 . S
C930 N926 1.418 . S
C930 C929 1.251 . S
C931 H898 0.930 . S
C931 C933 1.406 . S
C931 C936 1.261 . S
C932 H899 0.930 . S
C932 N934 1.325 . S
C932 C935 1.357 . S
C933 H901 0.928 . S
C933 C931 1.406 . S
C933 N934 1.261 . S
N934 Co885 2.214 . S
N934 C932 1.325 . S
N934 C933 1.261 . S
C935 H905 0.931 . S
C935 C932 1.357 . S
C935 C936 1.312 . S
C936 H907 0.930 . S
C936 C931 1.261 . S
C936 C935 1.312 . S
C937 O909 1.214 . S
C937 O917 1.234 . S
C938 H910 0.929 . S
C938 C941 1.391 . S
C938 C943 1.391 . S
C939 H911 0.929 . S
C939 C940 1.390 1_655 S
C939 N942 1.391 . S
C940 H912 0.930 . S
C940 C939 1.390 1_455 S
C940 C941 1.392 1_455 S
C941 H913 0.929 . S
C941 C938 1.391 . S
C941 C940 1.392 1_655 S
N942 Co886 2.257 . S
N942 C939 1.391 . S
N942 C943 1.388 . S
C943 H914 0.930 . S
C943 C938 1.391 . S
C943 N942 1.388 . S
C3 C298 1.478 . S
C239 C62 1.478 . S
C121 C416 1.478 1_554 S
C357 C180 1.478 1_556 S
C770 C475 1.478 . S
C711 C534 1.478 . S
C888 C593 1.478 1_556 S
C652 C829 1.478 1_554 S
C111 C52 1.506 1_565 S
C170 C229 1.506 1_565 S
C288 C347 1.506 1_565 S
C406 C465 1.506 1_545 S
C524 C583 1.507 1_655 S
C701 C642 1.507 1_455 S
C819 C760 1.507 1_655 S
C878 C937 1.507 1_455 S
C536 C5 1.541 . S
C64 C477 1.541 . S
C654 C123 1.541 . S
C182 C595 1.541 . S
C241 C772 1.541 . S
C713 C300 1.541 . S
C359 C890 1.541 . S
C831 C418 1.541 . S
C33 C151 1.569 1_565 S
C210 C92 1.569 1_565 S
C387 C269 1.569 1_565 S
C446 C328 1.569 1_545 S
C623 C505 1.569 . S
C564 C682 1.569 . S
C859 C741 1.569 . S
C800 C918 1.569 . S
