# Generated by pormake.
# Topology wli, (5)-cn, num edge types: 1
# Building blocks:
#     Node 0, Type 0, BuildingBlock: XOMCOT_clean_sbu_0, # of connection points: 5
#     Node 1, Type 0, BuildingBlock: XOMCOT_clean_sbu_0, # of connection points: 5
#     Node 2, Type 0, BuildingBlock: XOMCOT_clean_sbu_0, # of connection points: 5
#     Node 3, Type 0, BuildingBlock: XOMCOT_clean_sbu_0, # of connection points: 5
#     Node 4, Type 0, BuildingBlock: XOMCOT_clean_sbu_0, # of connection points: 5
#     Node 5, Type 0, BuildingBlock: XOMCOT_clean_sbu_0, # of connection points: 5
#     Edge 6, Type (0, 0), BuildingBlock: KIFKEQ_clean_linker_1, # of connection points: 2
#     Edge 7, Type (0, 0), BuildingBlock: KIFKEQ_clean_linker_1, # of connection points: 2
#     Edge 8, Type (0, 0), BuildingBlock: KIFKEQ_clean_linker_1, # of connection points: 2
#     Edge 9, Type (0, 0), BuildingBlock: KIFKEQ_clean_linker_1, # of connection points: 2
#     Edge 10, Type (0, 0), BuildingBlock: KIFKEQ_clean_linker_1, # of connection points: 2
#     Edge 11, Type (0, 0), BuildingBlock: KIFKEQ_clean_linker_1, # of connection points: 2
#     Edge 12, Type (0, 0), BuildingBlock: KIFKEQ_clean_linker_1, # of connection points: 2
#     Edge 13, Type (0, 0), BuildingBlock: KIFKEQ_clean_linker_1, # of connection points: 2
#     Edge 14, Type (0, 0), BuildingBlock: KIFKEQ_clean_linker_1, # of connection points: 2
#     Edge 15, Type (0, 0), BuildingBlock: KIFKEQ_clean_linker_1, # of connection points: 2
#     Edge 16, Type (0, 0), BuildingBlock: KIFKEQ_clean_linker_1, # of connection points: 2
#     Edge 17, Type (0, 0), BuildingBlock: KIFKEQ_clean_linker_1, # of connection points: 2
#     Edge 18, Type (0, 0), BuildingBlock: KIFKEQ_clean_linker_1, # of connection points: 2
#     Edge 19, Type (0, 0), BuildingBlock: KIFKEQ_clean_linker_1, # of connection points: 2
#     Edge 20, Type (0, 0), BuildingBlock: KIFKEQ_clean_linker_1, # of connection points: 2
# Relax obj value: 0.131
# Max RMSD: 0.157
# Mean RMSD: 0.157
data_MOF--net-wli--node1-XOMCOT_clean_sbu_0--edge1-KIFKEQ_clean_linker_1
_symmetry_space_group_name_H-M    P1
_symmetry_Int_Tables_number       1
_symmetry_cell_setting            triclinic
loop_
_symmetry_equiv_pos_as_xyz
'x, y, z'
_cell_length_a     37.016236
_cell_length_b     37.04672
_cell_length_c     26.91095
_cell_angle_alpha  89.96569
_cell_angle_beta   90.202646
_cell_angle_gamma 119.85848
loop_
_atom_site_label
_atom_site_type_symbol
_atom_site_fract_x
_atom_site_fract_y
_atom_site_fract_z
_atom_type_partial_charge
Co0 Co 0.21667 0.43737 0.11417 0.0
C1 C 0.15089 0.38403 0.18723 0.0
C2 C 0.20476 0.37715 0.19389 0.0
C3 C 0.1764 0.35265 0.22943 0.0
N4 N 0.18807 0.39541 0.16566 0.0
N5 N 0.14274 0.35726 0.22514 0.0
H6 H 0.13087 0.39638 0.1775 0.0
H7 H 0.23602 0.38223 0.19016 0.0
C8 C 0.24036 0.37359 0.09036 0.0
O9 O 0.20056 0.34653 0.09601 0.0
N10 N 0.24511 0.48028 0.06492 0.0
C11 C 0.2265 0.49544 0.03517 0.0
C12 C 0.25647 0.52789 0.00817 0.0
C13 C 0.28633 0.50391 0.05601 0.0
N14 N 0.29413 0.53347 0.02139 0.0
C15 C 0.13575 0.39296 0.06668 0.0
C16 C 0.16419 0.37798 0.97856 0.0
C17 C 0.12206 0.36631 0.9824 0.0
C18 C 0.10783 0.37368 0.02737 0.0
C19 C 0.19097 0.39723 0.01858 0.0
N20 N 0.17663 0.40364 0.06264 0.0
H21 H 0.12481 0.40163 0.09889 0.0
H22 H 0.2238 0.40869 0.01314 0.0
H23 H 0.19333 0.48402 0.03381 0.0
H24 H 0.31 0.50042 0.07557 0.0
O25 O 0.18984 0.4673 0.13735 0.0
O26 O 0.25005 0.47637 0.166 0.0
O27 O 0.25345 0.41246 0.09721 0.0
C28 C 0.22136 0.48703 0.16727 0.0
H29 H 0.18086 0.33441 0.2577 0.0
H30 H 0.25084 0.54599 0.98084 0.0
H31 H 0.17674 0.37334 0.9444 0.0
H32 H 0.07589 0.3667 0.03135 0.0
Co33 Co 0.59919 0.78702 0.78709 0.0
C34 C 0.65339 0.774 0.85964 0.0
C35 C 0.65709 0.83309 0.86921 0.0
C36 C 0.68114 0.82882 0.90532 0.0
N37 N 0.6409 0.79945 0.83907 0.0
N38 N 0.67867 0.79158 0.89934 0.0
H39 H 0.64278 0.74249 0.84786 0.0
H40 H 0.6507 0.85849 0.86636 0.0
C41 C 0.66391 0.8744 0.76532 0.0
O42 O 0.69085 0.86153 0.77233 0.0
N43 N 0.55656 0.77357 0.73721 0.0
C44 C 0.54203 0.74082 0.70596 0.0
C45 C 0.513 0.7417 0.67485 0.0
C46 C 0.53547 0.79353 0.72555 0.0
N47 N 0.50884 0.77467 0.68723 0.0
C48 C 0.64176 0.74886 0.739 0.0
C49 C 0.65931 0.79467 0.65238 0.0
C50 C 0.66941 0.76303 0.65534 0.0
C51 C 0.66077 0.74019 0.69954 0.0
C52 C 0.64038 0.80225 0.69251 0.0
N53 N 0.63276 0.78033 0.73589 0.0
H54 H 0.63177 0.72828 0.7704 0.0
H55 H 0.62986 0.82444 0.68741 0.0
H56 H 0.55225 0.71809 0.70551 0.0
H57 H 0.54003 0.82149 0.74391 0.0
O58 O 0.56843 0.73036 0.81048 0.0
O59 O 0.5605 0.78235 0.83826 0.0
O60 O 0.62488 0.8487 0.77054 0.0
C61 C 0.54936 0.74299 0.84025 0.0
H62 H 0.69751 0.85055 0.93518 0.0
H63 H 0.49597 0.71966 0.64551 0.0
H64 H 0.66484 0.81272 0.61874 0.0
H65 H 0.66651 0.71432 0.70266 0.0
Co66 Co 0.25336 0.82047 0.44529 0.0
C67 C 0.26442 0.8864 0.51767 0.0
C68 C 0.20598 0.83052 0.5269 0.0
C69 C 0.20997 0.85819 0.5636 0.0
N70 N 0.23951 0.84864 0.49684 0.0
N71 N 0.24686 0.89337 0.55781 0.0
H72 H 0.29574 0.90755 0.50583 0.0
H73 H 0.18107 0.79861 0.52389 0.0
C74 C 0.16467 0.79392 0.42219 0.0
O75 O 0.17528 0.83319 0.42826 0.0
N76 N 0.26796 0.79219 0.39577 0.0
C77 C 0.30013 0.81082 0.36394 0.0
C78 C 0.30023 0.78099 0.33374 0.0
C79 C 0.24938 0.75111 0.38539 0.0
N80 N 0.26847 0.74358 0.34732 0.0
C81 C 0.28813 0.90073 0.39739 0.0
C82 C 0.24242 0.8718 0.3106 0.0
C83 C 0.27246 0.914 0.31423 0.0
C84 C 0.29529 0.92846 0.35848 0.0
C85 C 0.23626 0.84522 0.35034 0.0
N86 N 0.25801 0.85986 0.39388 0.0
H87 H 0.30892 0.91179 0.42868 0.0
H88 H 0.21526 0.81235 0.34494 0.0
H89 H 0.32179 0.84393 0.36254 0.0
H90 H 0.22219 0.72745 0.40455 0.0
O91 O 0.31037 0.84834 0.46809 0.0
O92 O 0.26049 0.78796 0.49701 0.0
O93 O 0.19191 0.78259 0.42912 0.0
C94 C 0.2995 0.81719 0.49821 0.0
H95 H 0.18838 0.85199 0.59374 0.0
H96 H 0.32214 0.78627 0.30425 0.0
H97 H 0.22459 0.85908 0.27677 0.0
H98 H 0.32016 0.96043 0.36202 0.0
Co99 Co 0.44749 0.21307 0.89982 0.0
C100 C 0.39389 0.14903 0.82471 0.0
C101 C 0.39295 0.20589 0.81561 0.0
C102 C 0.37018 0.17923 0.77757 0.0
N103 N 0.40681 0.18652 0.84631 0.0
N104 N 0.37094 0.14348 0.78328 0.0
H105 H 0.40283 0.12699 0.83698 0.0
H106 H 0.40035 0.23791 0.81937 0.0
C107 C 0.38262 0.23557 0.92213 0.0
O108 O 0.35579 0.19637 0.91227 0.0
N109 N 0.48917 0.23972 0.95115 0.0
C110 C 0.50329 0.22019 0.98094 0.0
C111 C 0.53532 0.24935 0.00949 0.0
C112 C 0.51305 0.28066 0.96156 0.0
N113 N 0.54174 0.28744 0.99718 0.0
C114 C 0.40558 0.1309 0.94262 0.0
C115 C 0.38255 0.15296 0.02997 0.0
C116 C 0.37354 0.11176 0.02379 0.0
C117 C 0.38511 0.10086 0.97919 0.0
C118 C 0.40284 0.18196 0.99227 0.0
N119 N 0.41289 0.17058 0.94831 0.0
H120 H 0.41797 0.12262 0.91146 0.0
H121 H 0.41245 0.21411 0.9998 0.0
H122 H 0.49158 0.18699 0.98121 0.0
H123 H 0.5104 0.30488 0.94227 0.0
O124 O 0.47839 0.1878 0.87475 0.0
O125 O 0.48731 0.24889 0.85046 0.0
O126 O 0.42175 0.24864 0.9186 0.0
C127 C 0.49809 0.22042 0.84669 0.0
H128 H 0.35606 0.18649 0.74672 0.0
H129 H 0.55259 0.24286 0.03716 0.0
H130 H 0.37596 0.16334 0.06463 0.0
H131 H 0.37965 0.06964 0.97306 0.0
Co132 Co 0.82304 0.23817 0.56372 0.0
C133 C 0.88569 0.24918 0.48708 0.0
C134 C 0.83414 0.18698 0.48659 0.0
C135 C 0.86142 0.19041 0.44967 0.0
N136 N 0.85026 0.22333 0.51183 0.0
N137 N 0.89361 0.22963 0.4501 0.0
H138 H 0.90453 0.28216 0.49392 0.0
H139 H 0.80394 0.16004 0.49324 0.0
C140 C 0.80267 0.15274 0.59332 0.0
O141 O 0.8424 0.16585 0.586 0.0
N142 N 0.79614 0.25434 0.61331 0.0
C143 C 0.81574 0.28911 0.64111 0.0
C144 C 0.78672 0.29293 0.66862 0.0
C145 C 0.75524 0.23755 0.62378 0.0
N146 N 0.74861 0.26074 0.65758 0.0
C147 C 0.90631 0.27798 0.60534 0.0
C148 C 0.88338 0.23909 0.69676 0.0
C149 C 0.92514 0.26906 0.68892 0.0
C150 C 0.93648 0.28851 0.64237 0.0
C151 C 0.85427 0.22953 0.65879 0.0
N152 N 0.86592 0.24794 0.61306 0.0
H153 H 0.91528 0.29578 0.57165 0.0
H154 H 0.82187 0.20848 0.66704 0.0
H155 H 0.84891 0.31069 0.6407 0.0
H156 H 0.73094 0.20994 0.6058 0.0
O157 O 0.84722 0.29339 0.53641 0.0
O158 O 0.7865 0.24009 0.51315 0.0
O159 O 0.78844 0.17751 0.58531 0.0
C160 C 0.81424 0.27938 0.50842 0.0
H161 H 0.8571 0.16661 0.42315 0.0
H162 H 0.79333 0.31768 0.69473 0.0
H163 H 0.87282 0.22445 0.7327 0.0
H164 H 0.96826 0.31243 0.6349 0.0
Co165 Co 0.79287 0.58818 0.2418 0.0
C166 C 0.78761 0.63614 0.15561 0.0
C167 C 0.8439 0.6713 0.19753 0.0
C168 C 0.84121 0.69707 0.16263 0.0
N169 N 0.81031 0.63293 0.19329 0.0
N170 N 0.80569 0.675 0.13646 0.0
H171 H 0.75693 0.61168 0.1448 0.0
H172 H 0.86728 0.68095 0.22631 0.0
C173 C 0.87291 0.60194 0.29452 0.0
O174 O 0.85135 0.57049 0.32423 0.0
N175 N 0.77288 0.54292 0.28984 0.0
C176 C 0.74581 0.53633 0.3269 0.0
C177 C 0.73825 0.50125 0.35251 0.0
C178 C 0.77877 0.50963 0.29121 0.0
N179 N 0.75944 0.4848 0.3306 0.0
C180 C 0.7571 0.63521 0.27966 0.0
C181 C 0.79744 0.65498 0.3706 0.0
C182 C 0.76708 0.66622 0.36136 0.0
C183 C 0.74735 0.65678 0.31476 0.0
C184 C 0.80627 0.63354 0.33453 0.0
N185 N 0.78568 0.6232 0.29002 0.0
H186 H 0.7408 0.62712 0.24447 0.0
H187 H 0.82782 0.62327 0.3441 0.0
H188 H 0.73242 0.55571 0.33523 0.0
H189 H 0.79938 0.50551 0.26635 0.0
O190 O 0.73741 0.55981 0.21388 0.0
O191 O 0.78928 0.55019 0.19 0.0
O192 O 0.85441 0.61246 0.26186 0.0
C193 C 0.75031 0.5402 0.18536 0.0
H194 H 0.86285 0.73002 0.15836 0.0
H195 H 0.7194 0.48928 0.3856 0.0
H196 H 0.81288 0.66082 0.40636 0.0
H197 H 0.72405 0.66531 0.30576 0.0
H198 H 0.24697 0.67061 0.3933 0.0
H199 H 0.26607 0.72851 0.24947 0.0
H200 H 0.23362 0.60526 0.35317 0.0
H201 H 0.25193 0.66347 0.20945 0.0
H202 H 0.1768 0.52685 0.15885 0.0
H203 H 0.1854 0.58696 0.20574 0.0
H204 H 0.28225 0.58552 0.29384 0.0
H205 H 0.27433 0.52544 0.24603 0.0
C206 C 0.24773 0.66907 0.35317 0.0
C207 C 0.25751 0.70438 0.32434 0.0
C208 C 0.24046 0.63199 0.33033 0.0
C209 C 0.24181 0.6295 0.2783 0.0
C210 C 0.25056 0.66457 0.2496 0.0
C211 C 0.25874 0.70171 0.27241 0.0
C212 C 0.19972 0.53902 0.18848 0.0
C213 C 0.22506 0.52153 0.19861 0.0
C214 C 0.20463 0.57347 0.21521 0.0
C215 C 0.23445 0.59077 0.25329 0.0
C216 C 0.25884 0.57249 0.2648 0.0
C217 C 0.25447 0.53835 0.23733 0.0
H218 H 0.50629 0.76043 0.90953 0.0
H219 H 0.51638 0.65886 0.84581 0.0
H220 H 0.44811 0.71112 0.96046 0.0
H221 H 0.45754 0.60947 0.89548 0.0
H222 H 0.36587 0.53046 0.01463 0.0
H223 H 0.43147 0.58287 0.97737 0.0
H224 H 0.37697 0.66012 0.94671 0.0
H225 H 0.31271 0.60902 0.9856 0.0
C226 C 0.49615 0.72759 0.9065 0.0
C227 C 0.51573 0.71353 0.87338 0.0
C228 C 0.46268 0.69926 0.93552 0.0
C229 C 0.44785 0.6562 0.93188 0.0
C230 C 0.46835 0.64236 0.89977 0.0
C231 C 0.50193 0.6707 0.87095 0.0
C232 C 0.36825 0.55897 1.00067 0.0
C233 C 0.33384 0.56527 1.00261 0.0
C234 C 0.40567 0.58884 0.97886 0.0
C235 C 0.40952 0.62571 0.95875 0.0
C236 C 0.37545 0.63242 0.96221 0.0
C237 C 0.33824 0.6027 0.98392 0.0
H238 H 0.286 0.76591 0.57813 0.0
H239 H 0.38377 0.86296 0.49066 0.0
H240 H 0.3387 0.76026 0.62797 0.0
H241 H 0.43596 0.85666 0.53967 0.0
H242 H 0.49949 0.77893 0.58894 0.0
H243 H 0.44911 0.79276 0.54641 0.0
H244 H 0.40487 0.80917 0.6881 0.0
H245 H 0.45641 0.79617 0.73071 0.0
C246 C 0.31865 0.78613 0.56975 0.0
C247 C 0.33074 0.81474 0.53037 0.0
C248 C 0.34874 0.78308 0.59842 0.0
C249 C 0.39133 0.80803 0.58755 0.0
C250 C 0.40334 0.83702 0.54872 0.0
C251 C 0.37342 0.84061 0.52075 0.0
C252 C 0.47931 0.786 0.61086 0.0
C253 C 0.48176 0.78665 0.66294 0.0
C254 C 0.45061 0.79397 0.58664 0.0
C255 C 0.42309 0.80191 0.61402 0.0
C256 C 0.4257 0.80298 0.66621 0.0
C257 C 0.45525 0.79593 0.6905 0.0
H258 H 0.53045 0.16884 0.83928 0.0
H259 H 0.54133 0.28163 0.77814 0.0
H260 H 0.58809 0.17739 0.78795 0.0
H261 H 0.59832 0.28956 0.72525 0.0
H262 H 0.73198 0.31921 0.69351 0.0
H263 H 0.66917 0.30794 0.73468 0.0
H264 H 0.61199 0.17593 0.70597 0.0
H265 H 0.67625 0.18715 0.66676 0.0
C266 C 0.54486 0.19525 0.81437 0.0
C267 C 0.53158 0.22479 0.81309 0.0
C268 C 0.57774 0.19996 0.78454 0.0
C269 C 0.59804 0.23421 0.75241 0.0
C270 C 0.58389 0.26315 0.75013 0.0
C271 C 0.55111 0.25856 0.78028 0.0
C272 C 0.70621 0.28769 0.69616 0.0
C273 C 0.70955 0.25399 0.67753 0.0
C274 C 0.66978 0.28128 0.71917 0.0
C275 C 0.6354 0.241 0.72392 0.0
C276 C 0.63808 0.20735 0.70364 0.0
C277 C 0.67476 0.21378 0.68068 0.0
H278 H 0.76679 0.4245 0.28194 0.0
H279 H 0.7699 0.47483 0.42744 0.0
H280 H 0.78073 0.37193 0.31993 0.0
H281 H 0.78415 0.42335 0.46484 0.0
H282 H 0.86206 0.36348 0.5034 0.0
H283 H 0.8492 0.41169 0.45534 0.0
H284 H 0.74003 0.30859 0.38994 0.0
H285 H 0.75247 0.25973 0.43889 0.0
C286 C 0.7704 0.42423 0.32186 0.0
C287 C 0.76692 0.45341 0.35182 0.0
C288 C 0.77815 0.39421 0.34352 0.0
C289 C 0.78359 0.3938 0.39523 0.0
C290 C 0.78025 0.42311 0.42489 0.0
C291 C 0.77176 0.45235 0.40351 0.0
C292 C 0.83551 0.35088 0.47845 0.0
C293 C 0.80804 0.30776 0.47529 0.0
C294 C 0.8282 0.37855 0.45096 0.0
C295 C 0.79358 0.3638 0.41916 0.0
C296 C 0.76706 0.32065 0.41406 0.0
C297 C 0.77407 0.2928 0.44223 0.0
H298 H 0.54066 0.36025 1.00271 0.0
H299 H 0.61559 0.304 0.03756 0.0
H300 H 0.59314 0.42513 0.0415 0.0
H301 H 0.66662 0.36756 0.07811 0.0
H302 H 0.7683 0.49562 0.11871 0.0
H303 H 0.7195 0.43792 0.06635 0.0
H304 H 0.61789 0.45144 0.12355 0.0
H305 H 0.66682 0.50982 0.17448 0.0
C306 C 0.56835 0.36174 0.01834 0.0
C307 C 0.57357 0.32666 0.01745 0.0
C308 C 0.59827 0.3988 0.04103 0.0
C309 C 0.63413 0.40164 0.06324 0.0
C310 C 0.63976 0.36686 0.06101 0.0
C311 C 0.61001 0.33001 0.03834 0.0
C312 C 0.7356 0.48652 0.11965 0.0
C313 C 0.72141 0.50711 0.15096 0.0
C314 C 0.70754 0.45328 0.08985 0.0
C315 C 0.6646 0.43969 0.09092 0.0
C316 C 0.65071 0.46125 0.1212 0.0
C317 C 0.67878 0.49459 0.15075 0.0
H318 H 0.98536 0.34797 0.71388 0.0
H319 H 0.93378 0.21951 0.75807 0.0
H320 H 0.0334 0.36972 0.78395 0.0
H321 H 0.98195 0.24138 0.8285 0.0
H322 H 0.04067 0.30338 0.97952 0.0
H323 H 0.99393 0.27888 0.90766 0.0
H324 H 0.09382 0.36673 0.81419 0.0
H325 H 0.13991 0.39222 0.88603 0.0
C326 C 0.98473 0.3243 0.73807 0.0
C327 C 0.95583 0.28198 0.73024 0.0
C328 C 1.01223 0.33678 0.77834 0.0
C329 C 1.01151 0.30727 0.81179 0.0
C330 C 0.98289 0.2649 0.80376 0.0
C331 C 0.95537 0.25239 0.7634 0.0
C332 C 0.05255 0.3175 0.94363 0.0
C333 C 0.09401 0.3497 0.93852 0.0
C334 C 0.02593 0.30318 0.90239 0.0
C335 C 0.04017 0.32092 0.85523 0.0
C336 C 0.08176 0.35272 0.85009 0.0
C337 C 0.10834 0.36696 0.8912 0.0
H338 H 0.81658 0.72558 0.42949 0.0
H339 H 0.68808 0.64821 0.38475 0.0
H340 H 0.79433 0.75119 0.49992 0.0
H341 H 0.666 0.67405 0.45471 0.0
H342 H 0.64342 0.75684 0.55913 0.0
H343 H 0.66893 0.73746 0.48642 0.0
H344 H 0.75631 0.72266 0.57889 0.0
H345 H 0.73156 0.74335 0.65172 0.0
C346 C 0.78363 0.71412 0.4346 0.0
C347 C 0.75411 0.68482 0.40149 0.0
C348 C 0.77091 0.72875 0.47496 0.0
C349 C 0.72843 0.71452 0.48295 0.0
C350 C 0.69901 0.68602 0.44919 0.0
C351 C 0.7117 0.67131 0.40896 0.0
C352 C 0.66852 0.75007 0.5639 0.0
C353 C 0.68566 0.75184 0.61116 0.0
C354 C 0.6828 0.73853 0.52229 0.0
C355 C 0.71457 0.72849 0.52693 0.0
C356 C 0.73206 0.73065 0.57408 0.0
C357 C 0.71764 0.74207 0.61582 0.0
H358 H 0.31209 0.10117 0.08893 0.0
H359 H 0.3948 0.05409 0.05303 0.0
H360 H 0.28458 0.05267 0.15874 0.0
H361 H 0.36688 1.00548 0.1219 0.0
H362 H 0.28047 0.89652 0.21782 0.0
H363 H 0.30116 0.94311 0.14662 0.0
H364 H 0.31016 0.04165 0.24079 0.0
H365 H 0.28832 0.99454 0.31214 0.0
C366 C 0.32438 0.08052 0.09587 0.0
C367 C 0.35544 0.08133 0.06512 0.0
C368 C 0.30861 0.05278 0.13579 0.0
C369 C 0.32342 0.02516 0.14556 0.0
C370 C 0.35428 0.02585 0.11472 0.0
C371 C 0.37019 0.05366 0.0751 0.0
C372 C 0.2861 0.92788 0.22323 0.0
C373 C 0.28269 0.94186 0.2706 0.0
C374 C 0.29839 0.95468 0.18254 0.0
C375 C 0.3075 0.99606 0.18821 0.0
C376 C 0.30306 1.00982 0.23526 0.0
C377 C 0.29094 0.98301 0.27613 0.0
H378 H 0.42587 0.31084 0.97169 0.0
H379 H 0.30295 0.22014 0.92002 0.0
H380 H 0.396 0.34857 0.0146 0.0
H381 H 0.27368 0.25753 0.96204 0.0
H382 H 0.22579 0.29441 0.09247 0.0
H383 H 0.26427 0.26588 0.05139 0.0
H384 H 0.35572 0.38879 1.00201 0.0
H385 H 0.31687 0.41788 0.04405 0.0
C386 C 0.3927 0.29933 0.96881 0.0
C387 C 0.36673 0.26215 0.94294 0.0
C388 C 0.37564 0.32092 0.99337 0.0
C389 C 0.33236 0.30557 0.99256 0.0
C390 C 0.30698 0.26966 0.96449 0.0
C391 C 0.32387 0.24828 0.94015 0.0
C392 C 0.25429 0.3156 0.0733 0.0
C393 C 0.26793 0.35838 0.07105 0.0
C394 C 0.27629 0.29915 0.04951 0.0
C395 C 0.31258 0.32491 0.02248 0.0
C396 C 0.32778 0.36813 0.02243 0.0
C397 C 0.30558 0.38477 0.04651 0.0
H398 H 0.82023 0.09 0.59651 0.0
H399 H 0.72589 0.12006 0.63922 0.0
H400 H 0.78292 0.02395 0.63939 0.0
H401 H 0.68824 0.05311 0.68321 0.0
H402 H 0.62027 0.90608 0.7156 0.0
H403 H 0.64979 0.97354 0.67279 0.0
H404 H 0.77196 1.00578 0.72774 0.0
H405 H 0.74298 0.93908 0.76946 0.0
C406 C 0.79134 0.08245 0.61494 0.0
C407 C 0.77636 0.11063 0.61488 0.0
C408 C 0.77 0.04454 0.63982 0.0
C409 C 0.73304 0.03357 0.6657 0.0
C410 C 0.71671 0.06072 0.66374 0.0
C411 C 0.73824 0.099 0.63856 0.0
C412 C 0.6533 0.92796 0.7191 0.0
C413 C 0.67937 0.91699 0.74543 0.0
C414 C 0.67019 0.96654 0.69458 0.0
C415 C 0.71337 0.99468 0.69597 0.0
C416 C 0.73876 0.98444 0.72475 0.0
C417 C 0.72206 0.94619 0.74894 0.0
H418 H 0.10101 0.80914 0.40309 0.0
H419 H 0.13341 0.71228 0.39384 0.0
H420 H 0.03318 0.76259 0.36675 0.0
H421 H 0.06536 0.66565 0.35663 0.0
H422 H 0.92153 0.58258 0.35195 0.0
H423 H 0.99259 0.62804 0.37974 0.0
H424 H 0.9988 0.72757 0.28984 0.0
H425 H 0.92695 0.68199 0.26251 0.0
C426 C 0.09373 0.77788 0.39326 0.0
C427 C 0.12272 0.76445 0.40173 0.0
C428 C 0.05485 0.75127 0.37187 0.0
C429 C 0.04375 0.71038 0.35834 0.0
C430 C 0.0727 0.69683 0.36692 0.0
C431 C 0.11173 0.72355 0.3883 0.0
C432 C 0.93805 0.61405 0.33761 0.0
C433 C 0.91816 0.62868 0.30531 0.0
C434 C 0.97906 0.6401 0.3534 0.0
C435 C 1.00147 0.68166 0.33746 0.0
C436 C 0.98223 0.69591 0.30353 0.0
C437 C 0.9411 0.66967 0.28749 0.0
H438 H 0.9217 0.30044 0.39753 0.0
H439 H 0.94403 0.19919 0.42806 0.0
H440 H 0.98061 0.33079 0.3406 0.0
H441 H 1.0052 0.2307 0.3748 0.0
H442 H 0.09421 0.27616 0.24595 0.0
H443 H 0.03214 0.2444 0.29776 0.0
H444 H 0.05029 0.36692 0.33022 0.0
H445 H 0.11012 0.39745 0.27463 0.0
C446 C 0.93979 0.28507 0.39229 0.0
C447 C 0.92847 0.24752 0.41675 0.0
C448 C 0.97391 0.30257 0.36003 0.0
C449 C 0.99841 0.28359 0.35263 0.0
C450 C 0.98695 0.24604 0.37799 0.0
C451 C 0.95204 0.22796 0.40899 0.0
C452 C 0.08446 0.29595 0.26416 0.0
C453 C 0.10657 0.33903 0.25643 0.0
C454 C 0.04908 0.27794 0.29437 0.0
C455 C 0.03568 0.30281 0.31902 0.0
C456 C 0.05851 0.34627 0.31135 0.0
C457 C 0.09313 0.36403 0.27982 0.0
H458 H 0.64571 0.71067 0.92662 0.0
H459 H 0.75408 0.83219 0.9435 0.0
H460 H 0.67626 0.6816 0.98335 0.0
H461 H 0.78569 0.80332 0.99835 0.0
H462 H 0.81323 0.75146 0.13613 0.0
H463 H 0.78219 0.77846 0.07808 0.0
H464 H 0.72687 0.66219 0.99701 0.0
H465 H 0.75695 0.63477 0.05692 0.0
C466 C 0.67638 0.73103 0.94192 0.0
C467 C 0.6974 0.77377 0.93087 0.0
C468 C 0.69407 0.71438 0.97439 0.0
C469 C 0.73353 0.74 0.99609 0.0
C470 C 0.75485 0.78262 0.98372 0.0
C471 C 0.73688 0.79927 0.95198 0.0
C472 C 0.79476 0.73179 0.10567 0.0
C473 C 0.78785 0.69106 0.10095 0.0
C474 C 0.77695 0.74732 0.07207 0.0
C475 C 0.75212 0.72282 0.03217 0.0
C476 C 0.74525 0.68195 0.02747 0.0
C477 C 0.76265 0.6662 0.06165 0.0
H478 H 0.39824 0.08839 0.76829 0.0
H479 H 0.30364 0.11752 0.72289 0.0
H480 H 0.36764 0.02771 0.71419 0.0
H481 H 0.27385 0.05751 0.66719 0.0
H482 H 0.20553 0.92127 0.61484 0.0
H483 H 0.23558 0.98182 0.66959 0.0
H484 H 0.3591 1.00934 0.62699 0.0
H485 H 0.32914 0.94805 0.5738 0.0
C486 C 0.37084 0.08187 0.74693 0.0
C487 C 0.35332 0.10789 0.75029 0.0
C488 C 0.35356 0.04725 0.71533 0.0
C489 C 0.31826 0.03764 0.68621 0.0
C490 C 0.30077 0.06369 0.68945 0.0
C491 C 0.31813 0.0984 0.721 0.0
C492 C 0.23909 0.94001 0.61745 0.0
C493 C 0.2648 0.92961 0.58978 0.0
C494 C 0.25635 0.97506 0.64845 0.0
C495 C 0.2998 1.00058 0.65272 0.0
C496 C 0.32552 0.9902 0.62502 0.0
C497 C 0.30827 0.95523 0.59396 0.0
loop_
_geom_bond_atom_site_label_1
_geom_bond_atom_site_label_2
_geom_bond_distance
_geom_bond_site_symmetry_2
_ccdc_geom_bond_type
Co0 N4 2.148 . S
Co0 N10 2.128 . S
Co0 N20 2.194 . S
Co0 O25 2.351 . S
Co0 O26 2.155 . S
Co0 O27 2.096 . S
C1 N4 1.301 . S
C1 N5 1.328 . S
C1 H6 0.930 . S
C2 C3 1.333 . S
C2 N4 1.317 . S
C2 H7 0.930 . S
C3 C2 1.333 . S
C3 N5 1.350 . S
C3 H29 0.931 . S
N4 Co0 2.148 . S
N4 C1 1.301 . S
N4 C2 1.317 . S
N5 C1 1.328 . S
N5 C3 1.350 . S
H6 C1 0.930 . S
H7 C2 0.930 . S
C8 O9 1.224 . S
C8 O27 1.247 . S
O9 C8 1.224 . S
N10 Co0 2.128 . S
N10 C11 1.355 1_554 S
N10 C13 1.311 1_554 S
C11 N10 1.355 1_556 S
C11 C12 1.363 . S
C11 H23 0.929 . S
C12 C11 1.363 . S
C12 N14 1.375 . S
C12 H30 0.931 . S
C13 N10 1.311 1_556 S
C13 N14 1.347 . S
C13 H24 0.929 1_556 S
N14 C12 1.375 . S
N14 C13 1.347 . S
C15 C18 1.365 1_554 S
C15 N20 1.328 . S
C15 H21 0.929 . S
C16 C17 1.362 . S
C16 C19 1.378 . S
C16 H31 0.929 . S
C17 C16 1.362 . S
C17 C18 1.366 . S
C18 C15 1.365 1_556 S
C18 C17 1.366 . S
C18 H32 0.930 . S
C19 C16 1.378 . S
C19 N20 1.315 1_556 S
C19 H22 0.930 . S
N20 Co0 2.194 . S
N20 C15 1.328 . S
N20 C19 1.315 1_554 S
H21 C15 0.929 . S
H22 C19 0.930 . S
H23 C11 0.929 . S
H24 C13 0.929 1_554 S
O25 Co0 2.351 . S
O25 C28 1.244 . S
O26 Co0 2.155 . S
O26 C28 1.240 . S
O27 Co0 2.096 . S
O27 C8 1.247 . S
C28 O25 1.244 . S
C28 O26 1.240 . S
H29 C3 0.931 . S
H30 C12 0.931 . S
H31 C16 0.929 . S
H32 C18 0.930 . S
Co33 N37 2.148 . S
Co33 N43 2.128 . S
Co33 N53 2.194 . S
Co33 O58 2.351 . S
Co33 O59 2.155 . S
Co33 O60 2.096 . S
C34 N37 1.301 . S
C34 N38 1.328 . S
C34 H39 0.930 . S
C35 C36 1.333 . S
C35 N37 1.317 . S
C35 H40 0.930 . S
C36 C35 1.333 . S
C36 N38 1.350 . S
C36 H62 0.931 . S
N37 Co33 2.148 . S
N37 C34 1.301 . S
N37 C35 1.317 . S
N38 C34 1.328 . S
N38 C36 1.350 . S
H39 C34 0.930 . S
H40 C35 0.930 . S
C41 O42 1.224 . S
C41 O60 1.247 . S
O42 C41 1.224 . S
N43 Co33 2.128 . S
N43 C44 1.355 . S
N43 C46 1.311 . S
C44 N43 1.355 . S
C44 C45 1.363 . S
C44 H56 0.929 . S
C45 C44 1.363 . S
C45 N47 1.375 . S
C45 H63 0.931 . S
C46 N43 1.311 . S
C46 N47 1.347 . S
C46 H57 0.929 . S
N47 C45 1.375 . S
N47 C46 1.347 . S
C48 C51 1.365 . S
C48 N53 1.328 . S
C48 H54 0.929 . S
C49 C50 1.362 . S
C49 C52 1.378 . S
C49 H64 0.929 . S
C50 C49 1.362 . S
C50 C51 1.366 . S
C51 C48 1.365 . S
C51 C50 1.366 . S
C51 H65 0.930 . S
C52 C49 1.378 . S
C52 N53 1.315 . S
C52 H55 0.930 . S
N53 Co33 2.194 . S
N53 C48 1.328 . S
N53 C52 1.315 . S
H54 C48 0.929 . S
H55 C52 0.930 . S
H56 C44 0.929 . S
H57 C46 0.929 . S
O58 Co33 2.351 . S
O58 C61 1.244 . S
O59 Co33 2.155 . S
O59 C61 1.240 . S
O60 Co33 2.096 . S
O60 C41 1.247 . S
C61 O58 1.244 . S
C61 O59 1.240 . S
H62 C36 0.931 . S
H63 C45 0.931 . S
H64 C49 0.929 . S
H65 C51 0.930 . S
Co66 N70 2.148 . S
Co66 N76 2.128 . S
Co66 N86 2.194 . S
Co66 O91 2.351 . S
Co66 O92 2.155 . S
Co66 O93 2.096 . S
C67 N70 1.301 . S
C67 N71 1.328 . S
C67 H72 0.930 . S
C68 C69 1.333 . S
C68 N70 1.317 . S
C68 H73 0.930 . S
C69 C68 1.333 . S
C69 N71 1.350 . S
C69 H95 0.931 . S
N70 Co66 2.148 . S
N70 C67 1.301 . S
N70 C68 1.317 . S
N71 C67 1.328 . S
N71 C69 1.350 . S
H72 C67 0.930 . S
H73 C68 0.930 . S
C74 O75 1.224 . S
C74 O93 1.247 . S
O75 C74 1.224 . S
N76 Co66 2.128 . S
N76 C77 1.355 . S
N76 C79 1.311 . S
C77 N76 1.355 . S
C77 C78 1.363 . S
C77 H89 0.929 . S
C78 C77 1.363 . S
C78 N80 1.375 . S
C78 H96 0.931 . S
C79 N76 1.311 . S
C79 N80 1.347 . S
C79 H90 0.929 . S
N80 C78 1.375 . S
N80 C79 1.347 . S
C81 C84 1.365 . S
C81 N86 1.328 . S
C81 H87 0.929 . S
C82 C83 1.362 . S
C82 C85 1.378 . S
C82 H97 0.929 . S
C83 C82 1.362 . S
C83 C84 1.366 . S
C84 C81 1.365 . S
C84 C83 1.366 . S
C84 H98 0.930 . S
C85 C82 1.378 . S
C85 N86 1.315 . S
C85 H88 0.930 . S
N86 Co66 2.194 . S
N86 C81 1.328 . S
N86 C85 1.315 . S
H87 C81 0.929 . S
H88 C85 0.930 . S
H89 C77 0.929 . S
H90 C79 0.929 . S
O91 Co66 2.351 . S
O91 C94 1.244 . S
O92 Co66 2.155 . S
O92 C94 1.240 . S
O93 Co66 2.096 . S
O93 C74 1.247 . S
C94 O91 1.244 . S
C94 O92 1.240 . S
H95 C69 0.931 . S
H96 C78 0.931 . S
H97 C82 0.929 . S
H98 C84 0.930 . S
Co99 N103 2.148 . S
Co99 N109 2.128 . S
Co99 N119 2.194 . S
Co99 O124 2.351 . S
Co99 O125 2.155 . S
Co99 O126 2.096 . S
C100 N103 1.301 . S
C100 N104 1.328 . S
C100 H105 0.930 . S
C101 C102 1.333 . S
C101 N103 1.317 . S
C101 H106 0.930 . S
C102 C101 1.333 . S
C102 N104 1.350 . S
C102 H128 0.931 . S
N103 Co99 2.148 . S
N103 C100 1.301 . S
N103 C101 1.317 . S
N104 C100 1.328 . S
N104 C102 1.350 . S
H105 C100 0.930 . S
H106 C101 0.930 . S
C107 O108 1.224 . S
C107 O126 1.247 . S
O108 C107 1.224 . S
N109 Co99 2.128 . S
N109 C110 1.355 1_556 S
N109 C112 1.311 1_556 S
C110 N109 1.355 1_554 S
C110 C111 1.363 . S
C110 H122 0.929 . S
C111 C110 1.363 . S
C111 N113 1.375 . S
C111 H129 0.931 . S
C112 N109 1.311 1_554 S
C112 N113 1.347 . S
C112 H123 0.929 1_554 S
N113 C111 1.375 . S
N113 C112 1.347 . S
C114 C117 1.365 1_556 S
C114 N119 1.328 . S
C114 H120 0.929 . S
C115 C116 1.362 . S
C115 C118 1.378 . S
C115 H130 0.929 . S
C116 C115 1.362 . S
C116 C117 1.366 . S
C117 C114 1.365 1_554 S
C117 C116 1.366 . S
C117 H131 0.930 . S
C118 C115 1.378 . S
C118 N119 1.315 1_554 S
C118 H121 0.930 . S
N119 Co99 2.194 . S
N119 C114 1.328 . S
N119 C118 1.315 1_556 S
H120 C114 0.929 . S
H121 C118 0.930 . S
H122 C110 0.929 . S
H123 C112 0.929 1_556 S
O124 Co99 2.351 . S
O124 C127 1.244 . S
O125 Co99 2.155 . S
O125 C127 1.240 . S
O126 Co99 2.096 . S
O126 C107 1.247 . S
C127 O124 1.244 . S
C127 O125 1.240 . S
H128 C102 0.931 . S
H129 C111 0.931 . S
H130 C115 0.929 . S
H131 C117 0.930 . S
Co132 N136 2.148 . S
Co132 N142 2.128 . S
Co132 N152 2.194 . S
Co132 O157 2.351 . S
Co132 O158 2.155 . S
Co132 O159 2.096 . S
C133 N136 1.301 . S
C133 N137 1.328 . S
C133 H138 0.930 . S
C134 C135 1.333 . S
C134 N136 1.317 . S
C134 H139 0.930 . S
C135 C134 1.333 . S
C135 N137 1.350 . S
C135 H161 0.931 . S
N136 Co132 2.148 . S
N136 C133 1.301 . S
N136 C134 1.317 . S
N137 C133 1.328 . S
N137 C135 1.350 . S
H138 C133 0.930 . S
H139 C134 0.930 . S
C140 O141 1.224 . S
C140 O159 1.247 . S
O141 C140 1.224 . S
N142 Co132 2.128 . S
N142 C143 1.355 . S
N142 C145 1.311 . S
C143 N142 1.355 . S
C143 C144 1.363 . S
C143 H155 0.929 . S
C144 C143 1.363 . S
C144 N146 1.375 . S
C144 H162 0.931 . S
C145 N142 1.311 . S
C145 N146 1.347 . S
C145 H156 0.929 . S
N146 C144 1.375 . S
N146 C145 1.347 . S
C147 C150 1.365 . S
C147 N152 1.328 . S
C147 H153 0.929 . S
C148 C149 1.362 . S
C148 C151 1.378 . S
C148 H163 0.929 . S
C149 C148 1.362 . S
C149 C150 1.366 . S
C150 C147 1.365 . S
C150 C149 1.366 . S
C150 H164 0.930 . S
C151 C148 1.378 . S
C151 N152 1.315 . S
C151 H154 0.930 . S
N152 Co132 2.194 . S
N152 C147 1.328 . S
N152 C151 1.315 . S
H153 C147 0.929 . S
H154 C151 0.930 . S
H155 C143 0.929 . S
H156 C145 0.929 . S
O157 Co132 2.351 . S
O157 C160 1.244 . S
O158 Co132 2.155 . S
O158 C160 1.240 . S
O159 Co132 2.096 . S
O159 C140 1.247 . S
C160 O157 1.244 . S
C160 O158 1.240 . S
H161 C135 0.931 . S
H162 C144 0.931 . S
H163 C148 0.929 . S
H164 C150 0.930 . S
Co165 N169 2.148 . S
Co165 N175 2.128 . S
Co165 N185 2.194 . S
Co165 O190 2.351 . S
Co165 O191 2.155 . S
Co165 O192 2.096 . S
C166 N169 1.301 . S
C166 N170 1.328 . S
C166 H171 0.930 . S
C167 C168 1.333 . S
C167 N169 1.317 . S
C167 H172 0.930 . S
C168 C167 1.333 . S
C168 N170 1.350 . S
C168 H194 0.931 . S
N169 Co165 2.148 . S
N169 C166 1.301 . S
N169 C167 1.317 . S
N170 C166 1.328 . S
N170 C168 1.350 . S
H171 C166 0.930 . S
H172 C167 0.930 . S
C173 O174 1.224 . S
C173 O192 1.247 . S
O174 C173 1.224 . S
N175 Co165 2.128 . S
N175 C176 1.355 . S
N175 C178 1.311 . S
C176 N175 1.355 . S
C176 C177 1.363 . S
C176 H188 0.929 . S
C177 C176 1.363 . S
C177 N179 1.375 . S
C177 H195 0.931 . S
C178 N175 1.311 . S
C178 N179 1.347 . S
C178 H189 0.929 . S
N179 C177 1.375 . S
N179 C178 1.347 . S
C180 C183 1.365 . S
C180 N185 1.328 . S
C180 H186 0.929 . S
C181 C182 1.362 . S
C181 C184 1.378 . S
C181 H196 0.929 . S
C182 C181 1.362 . S
C182 C183 1.366 . S
C183 C180 1.365 . S
C183 C182 1.366 . S
C183 H197 0.930 . S
C184 C181 1.378 . S
C184 N185 1.315 . S
C184 H187 0.930 . S
N185 Co165 2.194 . S
N185 C180 1.328 . S
N185 C184 1.315 . S
H186 C180 0.929 . S
H187 C184 0.930 . S
H188 C176 0.929 . S
H189 C178 0.929 . S
O190 Co165 2.351 . S
O190 C193 1.244 . S
O191 Co165 2.155 . S
O191 C193 1.240 . S
O192 Co165 2.096 . S
O192 C173 1.247 . S
C193 O190 1.244 . S
C193 O191 1.240 . S
H194 C168 0.931 . S
H195 C177 0.931 . S
H196 C181 0.929 . S
H197 C183 0.930 . S
H198 C206 0.950 . S
H199 C211 0.950 . S
H200 C208 0.950 . S
H201 C210 0.950 . S
H202 C212 0.950 . S
H203 C214 0.950 . S
H204 C216 0.950 . S
H205 C217 0.950 . S
C206 H198 0.950 . S
C206 C207 1.386 . S
C206 C208 1.391 . S
C207 C206 1.386 . S
C207 C211 1.393 . S
C208 H200 0.950 . S
C208 C206 1.391 . S
C208 C209 1.400 . S
C209 C208 1.400 . S
C209 C210 1.398 . S
C209 C215 1.491 . S
C210 H201 0.950 . S
C210 C209 1.398 . S
C210 C211 1.391 . S
C211 H199 0.950 . S
C211 C207 1.393 . S
C211 C210 1.391 . S
C212 H202 0.950 . S
C212 C213 1.386 . S
C212 C214 1.391 . S
C213 C212 1.386 . S
C213 C217 1.393 . S
C214 H203 0.950 . S
C214 C212 1.391 . S
C214 C215 1.400 . S
C215 C209 1.491 . S
C215 C214 1.400 . S
C215 C216 1.398 . S
C216 H204 0.950 . S
C216 C215 1.398 . S
C216 C217 1.391 . S
C217 H205 0.950 . S
C217 C213 1.393 . S
C217 C216 1.391 . S
H218 C226 0.950 . S
H219 C231 0.950 . S
H220 C228 0.950 . S
H221 C230 0.950 . S
H222 C232 0.950 . S
H223 C234 0.950 . S
H224 C236 0.950 . S
H225 C237 0.950 . S
C226 H218 0.950 . S
C226 C227 1.386 . S
C226 C228 1.391 . S
C227 C226 1.386 . S
C227 C231 1.393 . S
C228 H220 0.950 . S
C228 C226 1.391 . S
C228 C229 1.400 . S
C229 C228 1.400 . S
C229 C230 1.398 . S
C229 C235 1.491 . S
C230 H221 0.950 . S
C230 C229 1.398 . S
C230 C231 1.391 . S
C231 H219 0.950 . S
C231 C227 1.393 . S
C231 C230 1.391 . S
C232 H222 0.950 . S
C232 C233 1.386 . S
C232 C234 1.391 . S
C233 C232 1.386 . S
C233 C237 1.393 . S
C234 H223 0.950 . S
C234 C232 1.391 . S
C234 C235 1.400 . S
C235 C229 1.491 . S
C235 C234 1.400 . S
C235 C236 1.398 . S
C236 H224 0.950 . S
C236 C235 1.398 . S
C236 C237 1.391 . S
C237 H225 0.950 . S
C237 C233 1.393 . S
C237 C236 1.391 . S
H238 C246 0.950 . S
H239 C251 0.950 . S
H240 C248 0.950 . S
H241 C250 0.950 . S
H242 C252 0.950 . S
H243 C254 0.950 . S
H244 C256 0.950 . S
H245 C257 0.950 . S
C246 H238 0.950 . S
C246 C247 1.386 . S
C246 C248 1.391 . S
C247 C246 1.386 . S
C247 C251 1.393 . S
C248 H240 0.950 . S
C248 C246 1.391 . S
C248 C249 1.400 . S
C249 C248 1.400 . S
C249 C250 1.398 . S
C249 C255 1.491 . S
C250 H241 0.950 . S
C250 C249 1.398 . S
C250 C251 1.391 . S
C251 H239 0.950 . S
C251 C247 1.393 . S
C251 C250 1.391 . S
C252 H242 0.950 . S
C252 C253 1.386 . S
C252 C254 1.391 . S
C253 C252 1.386 . S
C253 C257 1.393 . S
C254 H243 0.950 . S
C254 C252 1.391 . S
C254 C255 1.400 . S
C255 C249 1.491 . S
C255 C254 1.400 . S
C255 C256 1.398 . S
C256 H244 0.950 . S
C256 C255 1.398 . S
C256 C257 1.391 . S
C257 H245 0.950 . S
C257 C253 1.393 . S
C257 C256 1.391 . S
H258 C266 0.950 . S
H259 C271 0.950 . S
H260 C268 0.950 . S
H261 C270 0.950 . S
H262 C272 0.950 . S
H263 C274 0.950 . S
H264 C276 0.950 . S
H265 C277 0.950 . S
C266 H258 0.950 . S
C266 C267 1.386 . S
C266 C268 1.391 . S
C267 C266 1.386 . S
C267 C271 1.393 . S
C268 H260 0.950 . S
C268 C266 1.391 . S
C268 C269 1.400 . S
C269 C268 1.400 . S
C269 C270 1.398 . S
C269 C275 1.491 . S
C270 H261 0.950 . S
C270 C269 1.398 . S
C270 C271 1.391 . S
C271 H259 0.950 . S
C271 C267 1.393 . S
C271 C270 1.391 . S
C272 H262 0.950 . S
C272 C273 1.386 . S
C272 C274 1.391 . S
C273 C272 1.386 . S
C273 C277 1.393 . S
C274 H263 0.950 . S
C274 C272 1.391 . S
C274 C275 1.400 . S
C275 C269 1.491 . S
C275 C274 1.400 . S
C275 C276 1.398 . S
C276 H264 0.950 . S
C276 C275 1.398 . S
C276 C277 1.391 . S
C277 H265 0.950 . S
C277 C273 1.393 . S
C277 C276 1.391 . S
H278 C286 0.950 . S
H279 C291 0.950 . S
H280 C288 0.950 . S
H281 C290 0.950 . S
H282 C292 0.950 . S
H283 C294 0.950 . S
H284 C296 0.950 . S
H285 C297 0.950 . S
C286 H278 0.950 . S
C286 C287 1.386 . S
C286 C288 1.391 . S
C287 C286 1.386 . S
C287 C291 1.393 . S
C288 H280 0.950 . S
C288 C286 1.391 . S
C288 C289 1.400 . S
C289 C288 1.400 . S
C289 C290 1.398 . S
C289 C295 1.491 . S
C290 H281 0.950 . S
C290 C289 1.398 . S
C290 C291 1.391 . S
C291 H279 0.950 . S
C291 C287 1.393 . S
C291 C290 1.391 . S
C292 H282 0.950 . S
C292 C293 1.386 . S
C292 C294 1.391 . S
C293 C292 1.386 . S
C293 C297 1.393 . S
C294 H283 0.950 . S
C294 C292 1.391 . S
C294 C295 1.400 . S
C295 C289 1.491 . S
C295 C294 1.400 . S
C295 C296 1.398 . S
C296 H284 0.950 . S
C296 C295 1.398 . S
C296 C297 1.391 . S
C297 H285 0.950 . S
C297 C293 1.393 . S
C297 C296 1.391 . S
H298 C306 0.950 . S
H299 C311 0.950 . S
H300 C308 0.950 . S
H301 C310 0.950 . S
H302 C312 0.950 . S
H303 C314 0.950 . S
H304 C316 0.950 . S
H305 C317 0.950 . S
C306 H298 0.950 . S
C306 C307 1.386 . S
C306 C308 1.391 . S
C307 C306 1.386 . S
C307 C311 1.393 . S
C308 H300 0.950 . S
C308 C306 1.391 . S
C308 C309 1.400 . S
C309 C308 1.400 . S
C309 C310 1.398 . S
C309 C315 1.491 . S
C310 H301 0.950 . S
C310 C309 1.398 . S
C310 C311 1.391 . S
C311 H299 0.950 . S
C311 C307 1.393 . S
C311 C310 1.391 . S
C312 H302 0.950 . S
C312 C313 1.386 . S
C312 C314 1.391 . S
C313 C312 1.386 . S
C313 C317 1.393 . S
C314 H303 0.950 . S
C314 C312 1.391 . S
C314 C315 1.400 . S
C315 C309 1.491 . S
C315 C314 1.400 . S
C315 C316 1.398 . S
C316 H304 0.950 . S
C316 C315 1.398 . S
C316 C317 1.391 . S
C317 H305 0.950 . S
C317 C313 1.393 . S
C317 C316 1.391 . S
H318 C326 0.950 . S
H319 C331 0.950 . S
H320 C328 0.950 . S
H321 C330 0.950 . S
H322 C332 0.950 . S
H323 C334 0.950 . S
H324 C336 0.950 . S
H325 C337 0.950 . S
C326 H318 0.950 . S
C326 C327 1.386 . S
C326 C328 1.391 . S
C327 C326 1.386 . S
C327 C331 1.393 . S
C328 H320 0.950 . S
C328 C326 1.391 . S
C328 C329 1.400 . S
C329 C328 1.400 . S
C329 C330 1.398 . S
C329 C335 1.491 1_655 S
C330 H321 0.950 . S
C330 C329 1.398 . S
C330 C331 1.391 . S
C331 H319 0.950 . S
C331 C327 1.393 . S
C331 C330 1.391 . S
C332 H322 0.950 . S
C332 C333 1.386 . S
C332 C334 1.391 . S
C333 C332 1.386 . S
C333 C337 1.393 . S
C334 H323 0.950 . S
C334 C332 1.391 . S
C334 C335 1.400 . S
C335 C329 1.491 1_455 S
C335 C334 1.400 . S
C335 C336 1.398 . S
C336 H324 0.950 . S
C336 C335 1.398 . S
C336 C337 1.391 . S
C337 H325 0.950 . S
C337 C333 1.393 . S
C337 C336 1.391 . S
H338 C346 0.950 . S
H339 C351 0.950 . S
H340 C348 0.950 . S
H341 C350 0.950 . S
H342 C352 0.950 . S
H343 C354 0.950 . S
H344 C356 0.950 . S
H345 C357 0.950 . S
C346 H338 0.950 . S
C346 C347 1.386 . S
C346 C348 1.391 . S
C347 C346 1.386 . S
C347 C351 1.393 . S
C348 H340 0.950 . S
C348 C346 1.391 . S
C348 C349 1.400 . S
C349 C348 1.400 . S
C349 C350 1.398 . S
C349 C355 1.491 . S
C350 H341 0.950 . S
C350 C349 1.398 . S
C350 C351 1.391 . S
C351 H339 0.950 . S
C351 C347 1.393 . S
C351 C350 1.391 . S
C352 H342 0.950 . S
C352 C353 1.386 . S
C352 C354 1.391 . S
C353 C352 1.386 . S
C353 C357 1.393 . S
C354 H343 0.950 . S
C354 C352 1.391 . S
C354 C355 1.400 . S
C355 C349 1.491 . S
C355 C354 1.400 . S
C355 C356 1.398 . S
C356 H344 0.950 . S
C356 C355 1.398 . S
C356 C357 1.391 . S
C357 H345 0.950 . S
C357 C353 1.393 . S
C357 C356 1.391 . S
H358 C366 0.950 . S
H359 C371 0.950 . S
H360 C368 0.950 . S
H361 C370 0.950 1_565 S
H362 C372 0.950 . S
H363 C374 0.950 . S
H364 C376 0.950 1_545 S
H365 C377 0.950 . S
C366 H358 0.950 . S
C366 C367 1.386 . S
C366 C368 1.391 . S
C367 C366 1.386 . S
C367 C371 1.393 . S
C368 H360 0.950 . S
C368 C366 1.391 . S
C368 C369 1.400 . S
C369 C368 1.400 . S
C369 C370 1.398 . S
C369 C375 1.491 1_545 S
C370 H361 0.950 1_545 S
C370 C369 1.398 . S
C370 C371 1.391 . S
C371 H359 0.950 . S
C371 C367 1.393 . S
C371 C370 1.391 . S
C372 H362 0.950 . S
C372 C373 1.386 . S
C372 C374 1.391 . S
C373 C372 1.386 . S
C373 C377 1.393 . S
C374 H363 0.950 . S
C374 C372 1.391 . S
C374 C375 1.400 . S
C375 C369 1.491 1_565 S
C375 C374 1.400 . S
C375 C376 1.398 . S
C376 H364 0.950 1_565 S
C376 C375 1.398 . S
C376 C377 1.391 . S
C377 H365 0.950 . S
C377 C373 1.393 . S
C377 C376 1.391 . S
H378 C386 0.950 1_554 S
H379 C391 0.950 . S
H380 C388 0.950 . S
H381 C390 0.950 . S
H382 C392 0.950 1_556 S
H383 C394 0.950 . S
H384 C396 0.950 . S
H385 C397 0.950 . S
C386 H378 0.950 1_556 S
C386 C387 1.386 . S
C386 C388 1.391 1_556 S
C387 C386 1.386 . S
C387 C391 1.393 . S
C388 H380 0.950 . S
C388 C386 1.391 1_554 S
C388 C389 1.400 1_554 S
C389 C388 1.400 1_556 S
C389 C390 1.398 . S
C389 C395 1.491 1_556 S
C390 H381 0.950 . S
C390 C389 1.398 . S
C390 C391 1.391 . S
C391 H379 0.950 . S
C391 C387 1.393 . S
C391 C390 1.391 . S
C392 H382 0.950 1_554 S
C392 C393 1.386 . S
C392 C394 1.391 1_554 S
C393 C392 1.386 . S
C393 C397 1.393 . S
C394 H383 0.950 . S
C394 C392 1.391 1_556 S
C394 C395 1.400 1_556 S
C395 C389 1.491 1_554 S
C395 C394 1.400 1_554 S
C395 C396 1.398 . S
C396 H384 0.950 . S
C396 C395 1.398 . S
C396 C397 1.391 . S
C397 H385 0.950 . S
C397 C393 1.393 . S
C397 C396 1.391 . S
H398 C406 0.950 . S
H399 C411 0.950 . S
H400 C408 0.950 . S
H401 C410 0.950 . S
H402 C412 0.950 . S
H403 C414 0.950 . S
H404 C416 0.950 . S
H405 C417 0.950 . S
C406 H398 0.950 . S
C406 C407 1.386 . S
C406 C408 1.391 . S
C407 C406 1.386 . S
C407 C411 1.393 . S
C408 H400 0.950 . S
C408 C406 1.391 . S
C408 C409 1.400 . S
C409 C408 1.400 . S
C409 C410 1.398 . S
C409 C415 1.491 1_545 S
C410 H401 0.950 . S
C410 C409 1.398 . S
C410 C411 1.391 . S
C411 H399 0.950 . S
C411 C407 1.393 . S
C411 C410 1.391 . S
C412 H402 0.950 . S
C412 C413 1.386 . S
C412 C414 1.391 . S
C413 C412 1.386 . S
C413 C417 1.393 . S
C414 H403 0.950 . S
C414 C412 1.391 . S
C414 C415 1.400 . S
C415 C409 1.491 1_565 S
C415 C414 1.400 . S
C415 C416 1.398 . S
C416 H404 0.950 . S
C416 C415 1.398 . S
C416 C417 1.391 . S
C417 H405 0.950 . S
C417 C413 1.393 . S
C417 C416 1.391 . S
H418 C426 0.950 . S
H419 C431 0.950 . S
H420 C428 0.950 . S
H421 C430 0.950 . S
H422 C432 0.950 . S
H423 C434 0.950 . S
H424 C436 0.950 . S
H425 C437 0.950 . S
C426 H418 0.950 . S
C426 C427 1.386 . S
C426 C428 1.391 . S
C427 C426 1.386 . S
C427 C431 1.393 . S
C428 H420 0.950 . S
C428 C426 1.391 . S
C428 C429 1.400 . S
C429 C428 1.400 . S
C429 C430 1.398 . S
C429 C435 1.491 1_455 S
C430 H421 0.950 . S
C430 C429 1.398 . S
C430 C431 1.391 . S
C431 H419 0.950 . S
C431 C427 1.393 . S
C431 C430 1.391 . S
C432 H422 0.950 . S
C432 C433 1.386 . S
C432 C434 1.391 . S
C433 C432 1.386 . S
C433 C437 1.393 . S
C434 H423 0.950 . S
C434 C432 1.391 . S
C434 C435 1.400 . S
C435 C429 1.491 1_655 S
C435 C434 1.400 . S
C435 C436 1.398 . S
C436 H424 0.950 . S
C436 C435 1.398 . S
C436 C437 1.391 . S
C437 H425 0.950 . S
C437 C433 1.393 . S
C437 C436 1.391 . S
H438 C446 0.950 . S
H439 C451 0.950 . S
H440 C448 0.950 . S
H441 C450 0.950 . S
H442 C452 0.950 . S
H443 C454 0.950 . S
H444 C456 0.950 . S
H445 C457 0.950 . S
C446 H438 0.950 . S
C446 C447 1.386 . S
C446 C448 1.391 . S
C447 C446 1.386 . S
C447 C451 1.393 . S
C448 H440 0.950 . S
C448 C446 1.391 . S
C448 C449 1.400 . S
C449 C448 1.400 . S
C449 C450 1.398 . S
C449 C455 1.491 1_655 S
C450 H441 0.950 . S
C450 C449 1.398 . S
C450 C451 1.391 . S
C451 H439 0.950 . S
C451 C447 1.393 . S
C451 C450 1.391 . S
C452 H442 0.950 . S
C452 C453 1.386 . S
C452 C454 1.391 . S
C453 C452 1.386 . S
C453 C457 1.393 . S
C454 H443 0.950 . S
C454 C452 1.391 . S
C454 C455 1.400 . S
C455 C449 1.491 1_455 S
C455 C454 1.400 . S
C455 C456 1.398 . S
C456 H444 0.950 . S
C456 C455 1.398 . S
C456 C457 1.391 . S
C457 H445 0.950 . S
C457 C453 1.393 . S
C457 C456 1.391 . S
H458 C466 0.950 . S
H459 C471 0.950 . S
H460 C468 0.950 . S
H461 C470 0.950 . S
H462 C472 0.950 . S
H463 C474 0.950 . S
H464 C476 0.950 . S
H465 C477 0.950 . S
C466 H458 0.950 . S
C466 C467 1.386 . S
C466 C468 1.391 . S
C467 C466 1.386 . S
C467 C471 1.393 . S
C468 H460 0.950 . S
C468 C466 1.391 . S
C468 C469 1.400 . S
C469 C468 1.400 . S
C469 C470 1.398 . S
C469 C475 1.491 1_556 S
C470 H461 0.950 . S
C470 C469 1.398 . S
C470 C471 1.391 . S
C471 H459 0.950 . S
C471 C467 1.393 . S
C471 C470 1.391 . S
C472 H462 0.950 . S
C472 C473 1.386 . S
C472 C474 1.391 . S
C473 C472 1.386 . S
C473 C477 1.393 . S
C474 H463 0.950 . S
C474 C472 1.391 . S
C474 C475 1.400 . S
C475 C469 1.491 1_554 S
C475 C474 1.400 . S
C475 C476 1.398 . S
C476 H464 0.950 . S
C476 C475 1.398 . S
C476 C477 1.391 . S
C477 H465 0.950 . S
C477 C473 1.393 . S
C477 C476 1.391 . S
H478 C486 0.950 . S
H479 C491 0.950 . S
H480 C488 0.950 1_565 S
H481 C490 0.950 . S
H482 C492 0.950 . S
H483 C494 0.950 1_545 S
H484 C496 0.950 . S
H485 C497 0.950 . S
C486 H478 0.950 . S
C486 C487 1.386 . S
C486 C488 1.391 . S
C487 C486 1.386 . S
C487 C491 1.393 . S
C488 H480 0.950 1_545 S
C488 C486 1.391 . S
C488 C489 1.400 . S
C489 C488 1.400 . S
C489 C490 1.398 . S
C489 C495 1.491 1_545 S
C490 H481 0.950 . S
C490 C489 1.398 . S
C490 C491 1.391 . S
C491 H479 0.950 . S
C491 C487 1.393 . S
C491 C490 1.391 . S
C492 H482 0.950 . S
C492 C493 1.386 . S
C492 C494 1.391 . S
C493 C492 1.386 . S
C493 C497 1.393 . S
C494 H483 0.950 1_565 S
C494 C492 1.391 . S
C494 C495 1.400 . S
C495 C489 1.491 1_565 S
C495 C494 1.400 . S
C495 C496 1.398 . S
C496 H484 0.950 . S
C496 C495 1.398 . S
C496 C497 1.391 . S
C497 H485 0.950 . S
C497 C493 1.393 . S
C497 C496 1.391 . S
C207 N80 1.161 . S
C213 C28 1.201 . S
C227 C61 1.189 . S
C233 N14 1.125 . S
C247 C94 1.198 . S
C253 N47 1.159 . S
C267 C127 1.202 . S
C273 N146 1.160 . S
C287 N179 1.150 . S
C293 C160 1.194 . S
C307 N113 1.159 . S
C313 C193 1.202 . S
C327 C149 0.686 . S
C333 C17 0.687 . S
C347 C182 0.683 . S
C353 C50 0.683 . S
C367 C116 0.682 . S
C373 C83 0.684 . S
C387 C107 1.805 . S
C393 C8 1.802 . S
C407 C140 1.790 . S
C413 C41 1.791 . S
C427 C74 1.789 . S
C433 C173 1.790 . S
C447 N137 2.028 . S
C453 N5 2.029 . S
C467 N38 2.028 . S
C473 N170 2.028 . S
C487 N104 2.024 . S
C493 N71 2.029 . S
