# Generated by pormake.
# Topology ukk, (4)-cn, num edge types: 1
# Building blocks:
#     Node 0, Type 0, BuildingBlock: ESEHIV_clean_sbu_0, # of connection points: 4
#     Node 1, Type 0, BuildingBlock: ESEHIV_clean_sbu_0, # of connection points: 4
#     Node 2, Type 0, BuildingBlock: ESEHIV_clean_sbu_0, # of connection points: 4
#     Node 3, Type 0, BuildingBlock: ESEHIV_clean_sbu_0, # of connection points: 4
#     Node 4, Type 0, BuildingBlock: ESEHIV_clean_sbu_0, # of connection points: 4
#     Node 5, Type 0, BuildingBlock: ESEHIV_clean_sbu_0, # of connection points: 4
#     Node 6, Type 0, BuildingBlock: ESEHIV_clean_sbu_0, # of connection points: 4
#     Node 7, Type 0, BuildingBlock: ESEHIV_clean_sbu_0, # of connection points: 4
#     Node 8, Type 0, BuildingBlock: ESEHIV_clean_sbu_0, # of connection points: 4
#     Node 9, Type 0, BuildingBlock: ESEHIV_clean_sbu_0, # of connection points: 4
#     Node 10, Type 0, BuildingBlock: ESEHIV_clean_sbu_0, # of connection points: 4
#     Node 11, Type 0, BuildingBlock: ESEHIV_clean_sbu_0, # of connection points: 4
#     Node 12, Type 0, BuildingBlock: ESEHIV_clean_sbu_0, # of connection points: 4
#     Node 13, Type 0, BuildingBlock: ESEHIV_clean_sbu_0, # of connection points: 4
#     Node 14, Type 0, BuildingBlock: ESEHIV_clean_sbu_0, # of connection points: 4
#     Node 15, Type 0, BuildingBlock: ESEHIV_clean_sbu_0, # of connection points: 4
#     Edge 16, Type (0, 0), BuildingBlock: XUDNAN_clean_linker_2, # of connection points: 2
#     Edge 17, Type (0, 0), BuildingBlock: XUDNAN_clean_linker_2, # of connection points: 2
#     Edge 18, Type (0, 0), BuildingBlock: XUDNAN_clean_linker_2, # of connection points: 2
#     Edge 19, Type (0, 0), BuildingBlock: XUDNAN_clean_linker_2, # of connection points: 2
#     Edge 20, Type (0, 0), BuildingBlock: XUDNAN_clean_linker_2, # of connection points: 2
#     Edge 21, Type (0, 0), BuildingBlock: XUDNAN_clean_linker_2, # of connection points: 2
#     Edge 22, Type (0, 0), BuildingBlock: XUDNAN_clean_linker_2, # of connection points: 2
#     Edge 23, Type (0, 0), BuildingBlock: XUDNAN_clean_linker_2, # of connection points: 2
#     Edge 24, Type (0, 0), BuildingBlock: XUDNAN_clean_linker_2, # of connection points: 2
#     Edge 25, Type (0, 0), BuildingBlock: XUDNAN_clean_linker_2, # of connection points: 2
#     Edge 26, Type (0, 0), BuildingBlock: XUDNAN_clean_linker_2, # of connection points: 2
#     Edge 27, Type (0, 0), BuildingBlock: XUDNAN_clean_linker_2, # of connection points: 2
#     Edge 28, Type (0, 0), BuildingBlock: XUDNAN_clean_linker_2, # of connection points: 2
#     Edge 29, Type (0, 0), BuildingBlock: XUDNAN_clean_linker_2, # of connection points: 2
#     Edge 30, Type (0, 0), BuildingBlock: XUDNAN_clean_linker_2, # of connection points: 2
#     Edge 31, Type (0, 0), BuildingBlock: XUDNAN_clean_linker_2, # of connection points: 2
#     Edge 32, Type (0, 0), BuildingBlock: XUDNAN_clean_linker_2, # of connection points: 2
#     Edge 33, Type (0, 0), BuildingBlock: XUDNAN_clean_linker_2, # of connection points: 2
#     Edge 34, Type (0, 0), BuildingBlock: XUDNAN_clean_linker_2, # of connection points: 2
#     Edge 35, Type (0, 0), BuildingBlock: XUDNAN_clean_linker_2, # of connection points: 2
#     Edge 36, Type (0, 0), BuildingBlock: XUDNAN_clean_linker_2, # of connection points: 2
#     Edge 37, Type (0, 0), BuildingBlock: XUDNAN_clean_linker_2, # of connection points: 2
#     Edge 38, Type (0, 0), BuildingBlock: XUDNAN_clean_linker_2, # of connection points: 2
#     Edge 39, Type (0, 0), BuildingBlock: XUDNAN_clean_linker_2, # of connection points: 2
#     Edge 40, Type (0, 0), BuildingBlock: XUDNAN_clean_linker_2, # of connection points: 2
#     Edge 41, Type (0, 0), BuildingBlock: XUDNAN_clean_linker_2, # of connection points: 2
#     Edge 42, Type (0, 0), BuildingBlock: XUDNAN_clean_linker_2, # of connection points: 2
#     Edge 43, Type (0, 0), BuildingBlock: XUDNAN_clean_linker_2, # of connection points: 2
#     Edge 44, Type (0, 0), BuildingBlock: XUDNAN_clean_linker_2, # of connection points: 2
#     Edge 45, Type (0, 0), BuildingBlock: XUDNAN_clean_linker_2, # of connection points: 2
#     Edge 46, Type (0, 0), BuildingBlock: XUDNAN_clean_linker_2, # of connection points: 2
#     Edge 47, Type (0, 0), BuildingBlock: XUDNAN_clean_linker_2, # of connection points: 2
# Relax obj value: 0.042
# Max RMSD: 0.118
# Mean RMSD: 0.118
data_MOF--net-ukk--node1-ESEHIV_clean_sbu_0--edge1-XUDNAN_clean_linker_2
_symmetry_space_group_name_H-M    P1
_symmetry_Int_Tables_number       1
_symmetry_cell_setting            triclinic
loop_
_symmetry_equiv_pos_as_xyz
'x, y, z'
_cell_length_a     57.997214
_cell_length_b     57.879737
_cell_length_c     23.105899
_cell_angle_alpha  90.647076
_cell_angle_beta   89.591711
_cell_angle_gamma 89.961488
loop_
_atom_site_label
_atom_site_type_symbol
_atom_site_fract_x
_atom_site_fract_y
_atom_site_fract_z
_atom_type_partial_charge
Cu0 Cu 0.38713 0.134 0.11964 0.0
N1 N 0.41948 0.13114 0.12078 0.0
N2 N 0.455 0.12949 0.15882 0.0
C3 C 0.43204 0.12849 0.16933 0.0
C4 C 0.45687 0.13283 0.10114 0.0
C5 C 0.43499 0.13388 0.07789 0.0
O6 O 0.37579 0.1064 0.16094 0.0
C7 C 0.36599 0.17931 0.15719 0.0
O8 O 0.34491 0.17174 0.14934 0.0
H9 H 0.42439 0.12693 0.21196 0.0
H10 H 0.43072 0.13713 0.03323 0.0
N11 N 0.37458 0.13299 0.044 0.0
N12 N 0.34857 0.13561 0.97264 0.0
C13 C 0.35441 0.14239 0.02676 0.0
C14 C 0.38172 0.11997 0.99854 0.0
C15 C 0.36568 0.12142 0.95476 0.0
C16 C 0.38421 0.08736 0.1412 0.0
O17 O 0.39872 0.08834 0.09743 0.0
H18 H 0.34351 0.15302 0.05407 0.0
H19 H 0.39714 0.10946 0.99781 0.0
O20 O 0.38304 0.16543 0.15204 0.0
H21 H 0.47289 0.13473 0.07738 0.0
H22 H 0.36636 0.11254 0.9133 0.0
Cu23 Cu 0.13412 0.65482 0.88596 0.0
N24 N 0.13623 0.64228 0.80979 0.0
N25 N 0.13714 0.6127 0.74538 0.0
C26 C 0.12941 0.62039 0.79749 0.0
C27 C 0.14928 0.63053 0.72355 0.0
C28 C 0.1486 0.64875 0.76308 0.0
O29 O 0.10492 0.6406 0.91121 0.0
C30 C 0.18036 0.65842 0.89696 0.0
O31 O 0.17455 0.67442 0.85997 0.0
H32 H 0.12043 0.6096 0.82824 0.0
H33 H 0.15762 0.665 0.75915 0.0
N34 N 0.1317 0.68748 0.89547 0.0
N35 N 0.13248 0.72261 0.93888 0.0
C36 C 0.13419 0.69945 0.94597 0.0
C37 C 0.12818 0.70364 0.85513 0.0
C38 C 0.12868 0.72518 0.88159 0.0
C39 C 0.08622 0.65235 0.90933 0.0
O40 O 0.08745 0.67494 0.91325 0.0
H41 H 0.13779 0.69131 0.98687 0.0
H42 H 0.12569 0.70002 0.80958 0.0
O43 O 0.16417 0.64651 0.91997 0.0
H44 H 0.15857 0.63017 0.68275 0.0
H45 H 0.12643 0.74152 0.86004 0.0
Cu46 Cu 0.65628 0.90404 0.12686 0.0
N47 N 0.62383 0.90496 0.12718 0.0
N48 N 0.58727 0.90558 0.15986 0.0
C49 C 0.60986 0.90567 0.17428 0.0
C50 C 0.58714 0.90489 0.10139 0.0
C51 C 0.60961 0.90456 0.08146 0.0
O52 O 0.66597 0.93253 0.16713 0.0
C53 C 0.65562 0.85579 0.13441 0.0
O54 O 0.63852 0.85928 0.0986 0.0
H55 H 0.61616 0.90565 0.21824 0.0
H56 H 0.61518 0.90376 0.03672 0.0
N57 N 0.6689 0.90677 0.05205 0.0
N58 N 0.69581 0.90641 0.98166 0.0
C59 C 0.68908 0.89761 0.03314 0.0
C60 C 0.66265 0.92182 0.01108 0.0
C61 C 0.67913 0.92159 0.96764 0.0
C62 C 0.66534 0.93733 0.22103 0.0
O63 O 0.66016 0.92105 0.25806 0.0
H64 H 0.69936 0.88589 0.05847 0.0
H65 H 0.64781 0.93311 0.01408 0.0
O66 O 0.6662 0.87343 0.15525 0.0
H67 H 0.57187 0.9047 0.07471 0.0
H68 H 0.67914 0.93228 0.92951 0.0
Cu69 Cu 0.90449 0.391 0.92687 0.0
N70 N 0.90572 0.42288 0.94257 0.0
N71 N 0.89884 0.46072 0.9317 0.0
C72 C 0.89439 0.43906 0.9123 0.0
C73 C 0.91353 0.45798 0.9762 0.0
C74 C 0.91769 0.43466 0.98288 0.0
O75 O 0.93045 0.3826 0.87386 0.0
C76 C 0.86215 0.38828 0.85539 0.0
O77 O 0.87461 0.39078 0.80822 0.0
H78 H 0.88361 0.43497 0.87558 0.0
H79 H 0.92881 0.42694 0.01463 0.0
N80 N 0.90981 0.37386 0.99466 0.0
N81 N 0.90933 0.3454 0.06032 0.0
C82 C 0.89815 0.35542 0.01563 0.0
C83 C 0.9289 0.37543 0.02717 0.0
C84 C 0.92861 0.35813 0.06759 0.0
C85 C 0.94447 0.39722 0.85156 0.0
O86 O 0.93924 0.41928 0.85373 0.0
H87 H 0.88246 0.34877 0.99661 0.0
H88 H 0.94266 0.3877 0.02023 0.0
O89 O 0.87209 0.38611 0.90418 0.0
H90 H 0.92073 0.4718 1.00232 0.0
H91 H 0.94187 0.35491 0.09922 0.0
Cu92 Cu 0.39198 0.39711 0.15034 0.0
N93 N 0.42426 0.40184 0.15792 0.0
N94 N 0.46154 0.40481 0.1299 0.0
C95 C 0.43918 0.40808 0.1154 0.0
C96 C 0.46063 0.39651 0.18431 0.0
C97 C 0.43777 0.39467 0.20127 0.0
O98 O 0.38273 0.4174 0.08672 0.0
C99 C 0.37133 0.35034 0.14106 0.0
O100 O 0.35074 0.35941 0.14838 0.0
H101 H 0.43386 0.41358 0.07317 0.0
H102 H 0.43143 0.38731 0.24115 0.0
N103 N 0.37477 0.40688 0.21679 0.0
N104 N 0.34866 0.4088 0.28974 0.0
C105 C 0.36174 0.39477 0.25505 0.0
C106 C 0.36984 0.42918 0.22848 0.0
C107 C 0.35389 0.43042 0.27298 0.0
C108 C 0.39004 0.41527 0.03482 0.0
O109 O 0.4005 0.39601 0.01917 0.0
H110 H 0.36104 0.3761 0.25577 0.0
H111 H 0.37669 0.4436 0.20447 0.0
O112 O 0.38891 0.36355 0.13765 0.0
H113 H 0.47536 0.39136 0.20957 0.0
H114 H 0.3465 0.4461 0.29116 0.0
Cu115 Cu 0.39519 0.63803 0.84355 0.0
N116 N 0.39173 0.60578 0.83281 0.0
N117 N 0.39086 0.56779 0.8511 0.0
C118 C 0.40176 0.5881 0.86127 0.0
C119 C 0.3735 0.57273 0.81494 0.0
C120 C 0.37412 0.59605 0.80364 0.0
O121 O 0.42377 0.64466 0.88638 0.0
C122 C 0.34861 0.65074 0.85324 0.0
O123 O 0.35075 0.65057 0.79663 0.0
H124 H 0.41588 0.5902 0.89121 0.0
H125 H 0.36177 0.6055 0.77826 0.0
N126 N 0.39742 0.65329 0.77104 0.0
N127 N 0.39809 0.68067 0.70197 0.0
C128 C 0.39628 0.67622 0.75957 0.0
C129 C 0.40018 0.64297 0.71901 0.0
C130 C 0.40059 0.65963 0.67672 0.0
C131 C 0.42916 0.63781 0.93687 0.0
O132 O 0.41408 0.62598 0.96712 0.0
H133 H 0.39379 0.68929 0.79287 0.0
H134 H 0.40179 0.62452 0.71223 0.0
O135 O 0.36651 0.64724 0.88384 0.0
H136 H 0.36093 0.56042 0.79909 0.0
H137 H 0.4029 0.65637 0.63086 0.0
Cu138 Cu 0.64741 0.64401 0.171 0.0
N139 N 0.61482 0.64277 0.17255 0.0
N140 N 0.57818 0.64325 0.14095 0.0
C141 C 0.6008 0.64513 0.12647 0.0
C142 C 0.57808 0.63961 0.19863 0.0
C143 C 0.6006 0.63939 0.21792 0.0
O144 O 0.6586 0.61826 0.12069 0.0
C145 C 0.67429 0.68574 0.14307 0.0
O146 O 0.69293 0.67285 0.14399 0.0
H147 H 0.60721 0.64785 0.08299 0.0
H148 H 0.60618 0.63697 0.26199 0.0
N149 N 0.66046 0.63838 0.24435 0.0
N150 N 0.68731 0.63656 0.31405 0.0
C151 C 0.67953 0.64818 0.26751 0.0
C152 C 0.65594 0.62008 0.27804 0.0
C153 C 0.67237 0.61892 0.32087 0.0
C154 C 0.64787 0.59891 0.12334 0.0
O155 O 0.62919 0.59768 0.15559 0.0
H156 H 0.68842 0.66268 0.24871 0.0
H157 H 0.6424 0.60763 0.27003 0.0
O158 O 0.6546 0.67618 0.14895 0.0
H159 H 0.56284 0.63762 0.22537 0.0
H160 H 0.67361 0.60567 0.35338 0.0
Cu161 Cu 0.65478 0.39363 0.87956 0.0
N162 N 0.66567 0.40594 0.94983 0.0
N163 N 0.67509 0.43742 1.00268 0.0
C164 C 0.65947 0.42748 0.96715 0.0
C165 C 0.69174 0.42128 0.00864 0.0
C166 C 0.68595 0.40197 0.97587 0.0
O167 O 0.62165 0.40218 0.88285 0.0
C168 C 0.69362 0.39623 0.80227 0.0
O169 O 0.68901 0.37515 0.7845 0.0
H170 H 0.64527 0.43678 0.94805 0.0
H171 H 0.69702 0.38734 0.96642 0.0
N172 N 0.6563 0.36112 0.86871 0.0
N173 N 0.653 0.32624 0.82537 0.0
C174 C 0.64952 0.34927 0.82076 0.0
C175 C 0.66412 0.34494 0.90502 0.0
C176 C 0.66199 0.32348 0.87863 0.0
C177 C 0.61133 0.39259 0.92564 0.0
O178 O 0.62329 0.3781 0.95692 0.0
H179 H 0.6422 0.35741 0.78315 0.0
H180 H 0.6709 0.3485 0.94769 0.0
O181 O 0.67769 0.40802 0.82762 0.0
H182 H 0.70779 0.42385 0.03142 0.0
H183 H 0.66696 0.30711 0.89699 0.0
Cu184 Cu 0.87848 0.63983 0.6586 0.0
N185 N 0.91068 0.63509 0.65058 0.0
N186 N 0.94756 0.62949 0.67667 0.0
C187 C 0.92722 0.6398 0.69014 0.0
C188 C 0.94384 0.61849 0.62577 0.0
C189 C 0.92124 0.62199 0.60986 0.0
O190 O 0.86766 0.61764 0.71608 0.0
C191 C 0.88217 0.68798 0.64846 0.0
O192 O 0.89919 0.68199 0.61362 0.0
H193 H 0.92407 0.64944 0.72977 0.0
H194 H 0.91283 0.61444 0.57263 0.0
N195 N 0.86217 0.63202 0.59079 0.0
N196 N 0.83315 0.63085 0.52672 0.0
C197 C 0.84399 0.64343 0.56826 0.0
C198 C 0.86277 0.61157 0.56256 0.0
C199 C 0.84508 0.61085 0.52298 0.0
C200 C 0.87742 0.61364 0.7642 0.0
O201 O 0.8934 0.6278 0.78309 0.0
H202 H 0.83794 0.65996 0.58466 0.0
H203 H 0.87441 0.59758 0.57239 0.0
O204 O 0.87137 0.67224 0.6758 0.0
H205 H 0.95633 0.60796 0.60253 0.0
H206 H 0.84094 0.59639 0.49481 0.0
Cu207 Cu 0.63927 0.15242 0.42608 0.0
N208 N 0.64994 0.13732 0.35784 0.0
N209 N 0.65988 0.10415 0.31174 0.0
C210 C 0.65696 0.11522 0.36306 0.0
C211 C 0.6544 0.12016 0.27186 0.0
C212 C 0.64823 0.1406 0.30039 0.0
O213 O 0.60691 0.14185 0.42779 0.0
C214 C 0.68232 0.15453 0.45927 0.0
O215 O 0.68004 0.16693 0.41234 0.0
H216 H 0.65818 0.10693 0.40465 0.0
H217 H 0.64172 0.15613 0.28066 0.0
N218 N 0.63829 0.18499 0.4393 0.0
N219 N 0.6378 0.21646 0.49824 0.0
C220 C 0.63596 0.19316 0.49401 0.0
C221 C 0.64182 0.20387 0.40689 0.0
C222 C 0.64149 0.22326 0.44306 0.0
C223 C 0.59622 0.15152 0.38611 0.0
O224 O 0.60724 0.16757 0.35724 0.0
H225 H 0.63394 0.18177 0.53044 0.0
H226 H 0.64509 0.20356 0.36074 0.0
O227 O 0.66446 0.14394 0.47863 0.0
H228 H 0.6541 0.11717 0.22556 0.0
H229 H 0.64406 0.24091 0.42956 0.0
Cu230 Cu 0.15738 0.40269 0.62371 0.0
N231 N 0.14141 0.39776 0.69436 0.0
N232 N 0.10992 0.3909 0.74938 0.0
C233 C 0.11813 0.39936 0.69891 0.0
C234 C 0.12886 0.38385 0.77801 0.0
C235 C 0.14818 0.38813 0.74423 0.0
O236 O 0.14673 0.43422 0.60272 0.0
C237 C 0.15872 0.35628 0.60194 0.0
O238 O 0.17131 0.35938 0.64837 0.0
H239 H 0.10728 0.40514 0.66399 0.0
H240 H 0.16568 0.38323 0.75408 0.0
N241 N 0.19028 0.40263 0.62319 0.0
N242 N 0.22631 0.39973 0.58632 0.0
C243 C 0.20364 0.40274 0.57469 0.0
C244 C 0.20516 0.39971 0.66701 0.0
C245 C 0.22724 0.39777 0.64443 0.0
C246 C 0.15864 0.45157 0.62062 0.0
O247 O 0.17883 0.44767 0.64385 0.0
H248 H 0.19673 0.40385 0.53141 0.0
H249 H 0.20027 0.39829 0.71203 0.0
O250 O 0.14965 0.37424 0.57899 0.0
H251 H 0.12872 0.37544 0.81962 0.0
H252 H 0.24279 0.39471 0.66885 0.0
Cu253 Cu 0.39255 0.87932 0.37501 0.0
N254 N 0.38574 0.89189 0.30207 0.0
N255 N 0.37859 0.92329 0.2483 0.0
C256 C 0.3773 0.91363 0.30103 0.0
C257 C 0.38826 0.90679 0.21403 0.0
C258 C 0.39267 0.88743 0.24729 0.0
O259 O 0.42423 0.89086 0.38618 0.0
C260 C 0.34755 0.88058 0.39648 0.0
O261 O 0.35114 0.86312 0.36075 0.0
H262 H 0.37233 0.92303 0.3399 0.0
H263 H 0.40179 0.87203 0.23329 0.0
N264 N 0.39302 0.84666 0.38669 0.0
N265 N 0.39413 0.81316 0.43622 0.0
C266 C 0.39438 0.83664 0.43924 0.0
C267 C 0.39177 0.82893 0.3487 0.0
C268 C 0.39249 0.8084 0.37888 0.0
C269 C 0.43788 0.88047 0.35067 0.0
O270 O 0.42974 0.86281 0.32116 0.0
H271 H 0.39526 0.84662 0.47897 0.0
H272 H 0.39042 0.83078 0.30232 0.0
O273 O 0.36521 0.89112 0.41682 0.0
H274 H 0.39285 0.90891 0.16892 0.0
H275 H 0.392 0.79131 0.35953 0.0
Cu276 Cu 0.87782 0.89866 0.60757 0.0
N277 N 0.90956 0.90576 0.6036 0.0
N278 N 0.9449 0.91056 0.56497 0.0
C279 C 0.9243 0.89974 0.5604 0.0
C280 C 0.94324 0.92342 0.61396 0.0
C281 C 0.9215 0.92048 0.63749 0.0
O282 O 0.86237 0.91849 0.55175 0.0
C283 C 0.8551 0.85471 0.5962 0.0
O284 O 0.83592 0.8668 0.59611 0.0
H285 H 0.91975 0.88811 0.52534 0.0
H286 H 0.9146 0.92927 0.67532 0.0
N287 N 0.86464 0.90746 0.67948 0.0
N288 N 0.83852 0.90997 0.7517 0.0
C289 C 0.84868 0.89609 0.71135 0.0
C290 C 0.86465 0.92916 0.70105 0.0
C291 C 0.84873 0.93074 0.74548 0.0
C292 C 0.87053 0.92419 0.50257 0.0
O293 O 0.88789 0.91249 0.48037 0.0
H294 H 0.84338 0.87851 0.70256 0.0
H295 H 0.87435 0.94332 0.6829 0.0
O296 O 0.87435 0.86527 0.59672 0.0
H297 H 0.95636 0.93505 0.63015 0.0
H298 H 0.84431 0.94627 0.76963 0.0
Cu299 Cu 0.89258 0.14872 0.39586 0.0
N300 N 0.88738 0.11945 0.36329 0.0
N301 N 0.87836 0.08183 0.36094 0.0
C302 C 0.87731 0.10184 0.39152 0.0
C303 C 0.8895 0.08711 0.31131 0.0
C304 C 0.89502 0.11035 0.31284 0.0
O305 O 0.9192 0.14447 0.44594 0.0
C306 C 0.84572 0.15919 0.4154 0.0
O307 O 0.84554 0.1611 0.35884 0.0
H308 H 0.87043 0.10346 0.43505 0.0
H309 H 0.90462 0.1197 0.28039 0.0
N310 N 0.90021 0.17049 0.3382 0.0
N311 N 0.903 0.20148 0.28051 0.0
C312 C 0.89045 0.19074 0.32222 0.0
C313 C 0.9194 0.16854 0.30549 0.0
C314 C 0.92115 0.18741 0.27012 0.0
C315 C 0.93263 0.16027 0.46443 0.0
O316 O 0.92804 0.18196 0.45285 0.0
H317 H 0.8749 0.19776 0.34173 0.0
H318 H 0.93153 0.15439 0.30789 0.0
O319 O 0.86475 0.15557 0.44085 0.0
H320 H 0.89375 0.07498 0.27686 0.0
H321 H 0.93475 0.19044 0.23881 0.0
Cu322 Cu 0.15339 0.14635 0.64024 0.0
N323 N 0.12221 0.14919 0.66159 0.0
N324 N 0.08384 0.15004 0.65126 0.0
C325 C 0.10385 0.14001 0.63408 0.0
C326 C 0.08981 0.16593 0.69158 0.0
C327 C 0.11344 0.16533 0.6979 0.0
O328 O 0.15706 0.11711 0.59595 0.0
C329 C 0.14699 0.18654 0.57086 0.0
O330 O 0.12841 0.17544 0.55415 0.0
H331 H 0.10524 0.1276 0.59888 0.0
H332 H 0.12369 0.17697 0.72413 0.0
N333 N 0.17158 0.14232 0.70661 0.0
N334 N 0.20179 0.1412 0.76674 0.0
C335 C 0.19211 0.15188 0.72095 0.0
C336 C 0.16827 0.12525 0.74486 0.0
C337 C 0.1868 0.12449 0.78176 0.0
C338 C 0.14901 0.11215 0.54618 0.0
O339 O 0.13895 0.12846 0.5164 0.0
H340 H 0.20035 0.16546 0.6965 0.0
H341 H 0.15382 0.11345 0.74415 0.0
O342 O 0.16134 0.17612 0.60339 0.0
H343 H 0.07805 0.17778 0.71318 0.0
H344 H 0.18931 0.11229 0.81633 0.0
Cu345 Cu 0.13713 0.89571 0.34936 0.0
N346 N 0.14014 0.90868 0.42484 0.0
N347 N 0.14417 0.94365 0.46859 0.0
C348 C 0.13186 0.93043 0.43138 0.0
C349 C 0.16042 0.92924 0.48902 0.0
C350 C 0.15804 0.90784 0.46177 0.0
O351 O 0.10623 0.90707 0.32972 0.0
C352 C 0.18289 0.89361 0.33284 0.0
O353 O 0.17754 0.87516 0.36255 0.0
H354 H 0.11899 0.93743 0.40289 0.0
H355 H 0.17051 0.89397 0.46312 0.0
N356 N 0.13572 0.86345 0.33052 0.0
N357 N 0.13617 0.83263 0.26929 0.0
C358 C 0.13678 0.85599 0.27486 0.0
C359 C 0.1342 0.84403 0.3619 0.0
C360 C 0.13443 0.82507 0.32435 0.0
C361 C 0.09179 0.89791 0.36489 0.0
O362 O 0.09939 0.8823 0.40091 0.0
H363 H 0.13797 0.86778 0.239 0.0
H364 H 0.1333 0.84362 0.40865 0.0
O365 O 0.16645 0.9066 0.31564 0.0
H366 H 0.17472 0.9345 0.51598 0.0
H367 H 0.13388 0.80713 0.33695 0.0
H368 H 0.39985 0.95049 0.16768 0.0
H369 H 0.34707 0.9512 0.30153 0.0
H370 H 0.34196 0.99321 0.28886 0.0
H371 H 0.42563 1.00376 0.20572 0.0
H372 H 0.43134 1.01244 0.13233 0.0
H373 H 0.42988 0.98223 0.14965 0.0
H374 H 0.39829 0.97607 0.07227 0.0
H375 H 0.3998 1.00624 0.05436 0.0
H376 H 0.37259 0.99361 0.07492 0.0
H377 H 0.34422 0.03646 0.26455 0.0
H378 H 0.35268 0.07575 0.22748 0.0
H379 H 0.4034 0.04601 0.10937 0.0
C380 C 0.38689 0.95934 0.1935 0.0
C381 C 0.37394 0.94738 0.23579 0.0
C382 C 0.35742 0.95991 0.2693 0.0
C383 C 0.35432 0.98383 0.26229 0.0
C384 C 0.36776 0.9952 0.22128 0.0
C385 C 0.38357 0.98328 0.18709 0.0
C386 C 0.39629 0.99958 0.14713 0.0
C387 C 0.42232 0.99949 0.15947 0.0
C388 C 0.39144 0.99351 0.08339 0.0
C389 C 0.38536 0.02249 0.16448 0.0
C390 C 0.36892 1.01973 0.20726 0.0
C391 C 0.35698 0.03874 0.2307 0.0
C392 C 0.36191 0.06103 0.20954 0.0
C393 C 0.37863 0.06415 0.16535 0.0
C394 C 0.3904 0.04444 0.14295 0.0
H395 H 0.04453 0.67377 0.89382 0.0
H396 H 0.0794 0.60814 0.86632 0.0
H397 H 0.04648 0.59441 0.8079 0.0
H398 H 0.98479 0.65056 0.89985 0.0
H399 H 0.97332 0.67508 0.86216 0.0
H400 H 0.99825 0.67848 0.9076 0.0
H401 H 0.02091 0.69563 0.82123 0.0
H402 H 0.99623 0.69198 0.77531 0.0
H403 H 0.02346 0.67917 0.75478 0.0
H404 H 1.01167 0.58963 0.74283 0.0
H405 H 0.97685 0.59297 0.6828 0.0
H406 H 0.96447 0.66175 0.75259 0.0
C407 C 0.04504 0.65624 0.87698 0.0
C408 C 0.06468 0.64203 0.88511 0.0
C409 C 0.06461 0.61934 0.86137 0.0
C410 C 0.04596 0.61141 0.82782 0.0
C411 C 0.02735 0.62626 0.81879 0.0
C412 C 0.0266 0.64808 0.84349 0.0
C413 C 1.00526 0.66117 0.82456 0.0
C414 C 0.98947 0.66664 0.87665 0.0
C415 C 1.01187 0.68329 0.79204 0.0
C416 C 0.99431 0.64353 0.78425 0.0
C417 C 1.00731 0.62349 0.78163 0.0
C418 C 1.00129 0.60517 0.74511 0.0
C419 C 0.98155 0.60733 0.71066 0.0
C420 C 0.96785 0.62766 0.71265 0.0
C421 C 0.97436 0.6459 0.75048 0.0
H422 H 0.6546 0.97776 0.16477 0.0
H423 H 0.6829 0.95184 0.32468 0.0
H424 H 0.68705 0.99192 0.36137 0.0
H425 H 0.68895 0.0308 0.15556 0.0
H426 H 0.66531 0.04798 0.12966 0.0
H427 H 0.66642 1.01745 0.11351 0.0
H428 H 0.62586 1.0123 0.15901 0.0
H429 H 0.6246 0.04279 0.17519 0.0
H430 H 0.62062 0.02215 0.23224 0.0
H431 H 0.68798 0.03464 0.38112 0.0
H432 H 0.68229 0.07661 0.38749 0.0
H433 H 0.6502 0.07566 0.21822 0.0
C434 C 0.66205 0.98058 0.20711 0.0
C435 C 0.6688 0.9616 0.24157 0.0
C436 C 0.67779 0.96602 0.29739 0.0
C437 C 0.68027 0.98877 0.3185 0.0
C438 C 0.67333 1.00704 0.28371 0.0
C439 C 0.66416 1.00324 0.22945 0.0
C440 C 0.65644 0.02593 0.20286 0.0
C441 C 0.6701 0.03083 0.14708 0.0
C442 C 0.63033 0.02577 0.19168 0.0
C443 C 0.66265 0.04306 0.25073 0.0
C444 C 0.67267 0.03173 0.29651 0.0
C445 C 0.67993 0.04363 0.34575 0.0
C446 C 0.67644 0.0676 0.34907 0.0
C447 C 0.66535 0.07974 0.30396 0.0
C448 C 0.65875 0.06716 0.25356 0.0
H449 H 0.07314 0.41953 0.73104 0.0
H450 H 0.09221 0.35385 0.80506 0.0
H451 H 0.05156 0.34699 0.83283 0.0
H452 H 0.03209 0.43492 0.84236 0.0
H453 H 1.01237 0.44884 0.79389 0.0
H454 H 0.04269 0.44786 0.77674 0.0
H455 H 0.03352 0.42855 0.67795 0.0
H456 H 1.00316 0.42932 0.69503 0.0
H457 H 1.01683 0.40229 0.67596 0.0
H458 H 1.00826 0.34721 0.85273 0.0
H459 H 0.96722 0.35634 0.87204 0.0
H460 H 0.97623 0.42275 0.78968 0.0
C461 C 0.06868 0.40364 0.75267 0.0
C462 C 0.08597 0.38718 0.76568 0.0
C463 C 0.07941 0.36678 0.79495 0.0
C464 C 0.05628 0.36266 0.81054 0.0
C465 C 0.03967 0.3792 0.79724 0.0
C466 C 0.04562 0.39943 0.76955 0.0
C467 C 0.02464 0.41499 0.76339 0.0
C468 C 0.02816 0.43801 0.79605 0.0
C469 C 1.01922 0.41902 0.69926 0.0
C470 C 1.00603 0.40043 0.79207 0.0
C471 C 1.01499 0.37968 0.81053 0.0
C472 C 1.00112 0.36343 0.83841 0.0
C473 C 0.97771 0.36871 0.84891 0.0
C474 C 0.96826 0.39023 0.83234 0.0
C475 C 0.98274 0.40609 0.80281 0.0
H476 H 0.36223 0.45424 0.03193 0.0
H477 H 0.42434 0.4242 0.95707 0.0
H478 H 0.43199 0.46043 0.90516 0.0
H479 H 0.34575 0.48529 0.90087 0.0
H480 H 0.33428 0.50972 0.94067 0.0
H481 H 0.33377 0.48142 0.97232 0.0
H482 H 0.35576 0.49741 0.06132 0.0
H483 H 0.35659 0.52568 0.02959 0.0
H484 H 0.383 0.51182 0.05085 0.0
H485 H 0.43457 0.50117 0.86671 0.0
H486 H 0.42843 0.54128 0.83271 0.0
H487 H 0.36316 0.54398 0.92423 0.0
C488 C 0.37727 0.45522 1.00403 0.0
C489 C 0.39263 0.43626 0.99851 0.0
C490 C 0.41214 0.4383 0.96156 0.0
C491 C 0.41677 0.45893 0.93221 0.0
C492 C 0.40151 0.47738 0.93916 0.0
C493 C 0.38186 0.47557 0.97307 0.0
C494 C 0.36784 0.49775 0.97125 0.0
C495 C 0.344 0.49328 0.94468 0.0
C496 C 0.36568 0.50881 0.03187 0.0
C497 C 0.3828 0.51235 0.93166 0.0
C498 C 0.40236 0.5004 0.91441 0.0
C499 C 0.41919 0.51058 0.87947 0.0
C500 C 0.41571 0.53335 0.86066 0.0
C501 C 0.39542 0.54554 0.87594 0.0
C502 C 0.37882 0.53491 0.91205 0.0
H503 H 0.44781 0.62304 0.04004 0.0
H504 H 0.4645 0.66189 0.8857 0.0
H505 H 0.50413 0.66767 0.92138 0.0
H506 H 0.48168 0.65768 0.14008 0.0
H507 H 0.49069 0.63325 0.18204 0.0
H508 H 0.46348 0.63253 0.14495 0.0
H509 H 0.4757 0.59469 0.09224 0.0
H510 H 0.50296 0.59532 0.12907 0.0
H511 H 0.50223 0.59398 0.05113 0.0
H512 H 0.5425 0.6686 0.97316 0.0
H513 H 0.57607 0.66529 0.03745 0.0
H514 H 0.53481 0.62555 0.15808 0.0
C515 C 0.45972 0.6329 0.01383 0.0
C516 C 0.45285 0.64205 0.9599 0.0
C517 C 0.46917 0.65472 0.92708 0.0
C518 C 0.4918 0.65809 0.94702 0.0
C519 C 0.49802 0.64872 1.00003 0.0
C520 C 0.48244 0.63643 0.0331 0.0
C521 C 0.49362 0.62796 0.08827 0.0
C522 C 0.48165 0.63849 0.14201 0.0
C523 C 0.49363 0.60141 0.09027 0.0
C524 C 0.51792 0.63736 0.08105 0.0
C525 C 0.5201 0.64926 0.02981 0.0
C526 C 0.54096 0.6593 0.01337 0.0
C527 C 0.56005 0.65719 0.05016 0.0
C528 C 0.55834 0.64513 0.10316 0.0
C529 C 0.53682 0.63512 0.11843 0.0
H530 H 0.63888 0.46557 0.03029 0.0
H531 H 0.71329 0.4646 0.01195 0.0
H532 H 0.7146 0.50642 0.03517 0.0
H533 H 0.62928 0.52184 0.96926 0.0
H534 H 0.6066 0.52946 0.0197 0.0
H535 H 0.61155 0.49959 1.00056 0.0
H536 H 0.61631 0.48955 0.10879 0.0
H537 H 0.61114 0.51932 0.12826 0.0
H538 H 0.63708 0.50517 0.15173 0.0
H539 H 0.70736 0.54948 0.05882 0.0
H540 H 0.69261 0.5879 0.09072 0.0
H541 H 0.62326 0.56005 0.09645 0.0
C542 C 0.65545 0.47417 0.03111 0.0
C543 C 0.67598 0.46167 0.01934 0.0
C544 C 0.69733 0.47361 0.02147 0.0
C545 C 0.69822 0.49748 0.03413 0.0
C546 C 0.67764 0.50931 0.04508 0.0
C547 C 0.65667 0.49793 0.04439 0.0
C548 C 0.63709 0.51432 0.05986 0.0
C549 C 0.62013 0.51642 0.00932 0.0
C550 C 0.62468 0.50663 0.11547 0.0
C551 C 0.65026 0.53669 0.06949 0.0
C552 C 0.6736 0.53362 0.06006 0.0
C553 C 0.68909 0.552 0.06638 0.0
C554 C 0.68056 0.57385 0.08411 0.0
C555 C 0.65679 0.57711 0.09608 0.0
C556 C 0.64155 0.55822 0.08772 0.0
H557 H 0.50249 0.38157 0.13761 0.0
H558 H 0.46672 0.4327 0.03587 0.0
H559 H 0.50061 0.43533 0.97053 0.0
H560 H 0.55911 0.4069 0.12736 0.0
H561 H 0.57349 0.37932 0.12264 0.0
H562 H 0.54645 0.38192 0.16092 0.0
H563 H 0.52924 0.34941 0.09644 0.0
H564 H 0.5562 0.34681 0.05776 0.0
H565 H 0.52996 0.35226 0.01883 0.0
H566 H 0.54006 0.43219 0.91539 0.0
H567 H 0.57957 0.42334 0.87853 0.0
H568 H 0.58802 0.37413 0.01704 0.0
C569 C 0.50176 0.39357 0.10214 0.0
C570 C 0.48174 0.40699 0.09249 0.0
C571 C 0.48165 0.42208 0.04438 0.0
C572 C 0.50093 0.42376 1.00697 0.0
C573 C 0.52033 0.41017 0.01771 0.0
C574 C 0.52076 0.39536 0.06428 0.0
C575 C 0.54339 0.38232 0.06643 0.0
C576 C 0.55638 0.38796 0.12267 0.0
C577 C 0.53945 0.35615 0.05943 0.0
C578 C 0.55575 0.39211 0.01411 0.0
C579 C 0.54233 0.40819 0.98627 0.0
C580 C 0.5506 0.41955 0.93703 0.0
C581 C 0.57308 0.4144 0.9162 0.0
C582 C 0.58708 0.39797 0.94443 0.0
C583 C 0.57797 0.38675 0.99388 0.0
H584 H 0.91896 0.50332 0.93837 0.0
H585 H 0.85929 0.46697 0.87099 0.0
H586 H 0.84568 0.503 0.8266 0.0
H587 H 0.88937 0.55805 0.97087 0.0
H588 H 0.91379 0.57527 0.94939 0.0
H589 H 0.91819 0.54687 0.97857 0.0
H590 H 0.94164 0.53507 0.88701 0.0
H591 H 0.93735 0.56341 0.85768 0.0
H592 H 0.92882 0.53819 0.81668 0.0
H593 H 0.83986 0.54258 0.78388 0.0
H594 H 0.84259 0.58231 0.74611 0.0
H595 H 0.90524 0.59314 0.8443 0.0
C596 C 0.90282 0.50296 0.91525 0.0
C597 C 0.89027 0.48215 0.90825 0.0
C598 C 0.86943 0.48251 0.87648 0.0
C599 C 0.86143 0.50299 0.85143 0.0
C600 C 0.87434 0.5231 0.85871 0.0
C601 C 0.89456 0.52326 0.89003 0.0
C602 C 0.90572 0.54694 0.88932 0.0
C603 C 0.90683 0.5574 0.9507 0.0
C604 C 0.9298 0.54583 0.86098 0.0
C605 C 0.88882 0.55998 0.85202 0.0
C606 C 0.87078 0.54596 0.83496 0.0
C607 C 0.85375 0.5538 0.7976 0.0
C608 C 0.85543 0.57642 0.7764 0.0
C609 C 0.87395 0.591 0.79271 0.0
C610 C 0.89059 0.58267 0.83186 0.0
H611 H 0.57764 0.16279 0.28301 0.0
H612 H 0.56263 0.12349 0.43752 0.0
H613 H 0.52438 0.11292 0.39629 0.0
H614 H 0.52169 0.18562 0.2609 0.0
H615 H 0.5238 0.18346 0.18316 0.0
H616 H 0.54943 0.18742 0.22554 0.0
H617 H 0.56733 0.15063 0.17851 0.0
H618 H 0.54173 0.14653 0.13598 0.0
H619 H 0.55183 0.12368 0.18175 0.0
H620 H 0.48655 0.10803 0.3357 0.0
H621 H 0.45509 0.10803 0.26356 0.0
H622 H 0.49699 0.15025 0.15031 0.0
C623 C 0.56642 0.152 0.30881 0.0
C624 C 0.57318 0.14416 0.36405 0.0
C625 C 0.55788 0.12979 0.3953 0.0
C626 C 0.53612 0.12374 0.37211 0.0
C627 C 0.53007 0.13201 0.31743 0.0
C628 C 0.54502 0.14573 0.2863 0.0
C629 C 0.53507 0.15241 0.22844 0.0
C630 C 0.53233 0.17879 0.22431 0.0
C631 C 0.54987 0.14273 0.17822 0.0
C632 C 0.51192 0.14052 0.23142 0.0
C633 C 0.50916 0.12886 0.28297 0.0
C634 C 0.48873 0.11707 0.29528 0.0
C635 C 0.47087 0.11725 0.25407 0.0
C636 C 0.47349 0.12903 0.20082 0.0
C637 C 0.49443 0.14072 0.18985 0.0
H638 H 0.17077 0.58629 0.69458 0.0
H639 H 0.09873 0.58608 0.7447 0.0
H640 H 0.09498 0.54584 0.70763 0.0
H641 H 0.1664 0.54983 0.56417 0.0
H642 H 0.19294 0.53474 0.57827 0.0
H643 H 0.18924 0.56416 0.60307 0.0
H644 H 0.19838 0.55187 0.70789 0.0
H645 H 0.20228 0.52251 0.68332 0.0
H646 H 0.1819 0.52898 0.74051 0.0
H647 H 0.09968 0.50447 0.66616 0.0
H648 H 0.1134 0.46537 0.63691 0.0
H649 H 0.18288 0.49208 0.62011 0.0
C650 C 0.15412 0.57788 0.69667 0.0
C651 C 0.13491 0.58948 0.72165 0.0
C652 C 0.1136 0.5776 0.72537 0.0
C653 C 0.11132 0.55476 0.70416 0.0
C654 C 0.13061 0.54375 0.67994 0.0
C655 C 0.15169 0.55488 0.67688 0.0
C656 C 0.17027 0.53862 0.65392 0.0
C657 C 0.1803 0.54736 0.59644 0.0
C658 C 0.18932 0.5353 0.69911 0.0
C659 C 0.15647 0.51657 0.64479 0.0
C660 C 0.13352 0.51992 0.65895 0.0
C661 C 0.11763 0.50177 0.65481 0.0
C662 C 0.12551 0.47961 0.63757 0.0
C663 C 0.14917 0.47558 0.62557 0.0
C664 C 0.16463 0.49455 0.62835 0.0
H665 H 0.45949 0.87314 0.24846 0.0
H666 H 0.46912 0.90707 0.41476 0.0
H667 H 0.50899 0.91801 0.38437 0.0
H668 H 0.51505 0.84928 0.23308 0.0
H669 H 0.51642 0.85372 0.15605 0.0
H670 H 0.48896 0.84964 0.19115 0.0
H671 H 0.47435 0.88838 0.14964 0.0
H672 H 0.50175 0.89255 0.11414 0.0
H673 H 0.49055 0.91446 0.16278 0.0
H674 H 0.54944 0.92293 0.3341 0.0
H675 H 0.58382 0.92357 0.26952 0.0
H676 H 0.54545 0.88653 0.13773 0.0
C677 C 0.46986 0.88289 0.2789 0.0
C678 C 0.46123 0.88903 0.33439 0.0
C679 C 0.47536 0.90216 0.37209 0.0
C680 C 0.49803 0.90835 0.35514 0.0
C681 C 0.50608 0.90153 0.30015 0.0
C682 C 0.49213 0.88929 0.2626 0.0
C683 C 0.50425 0.88383 0.20591 0.0
C684 C 0.50629 0.85757 0.19601 0.0
C685 C 0.492 0.89551 0.15513 0.0
C686 C 0.52751 0.89463 0.21707 0.0
C687 C 0.52845 0.90474 0.27157 0.0
C688 C 0.54868 0.91517 0.29133 0.0
C689 C 0.5682 0.91534 0.25445 0.0
C690 C 0.56738 0.90526 0.19819 0.0
C691 C 0.54665 0.89479 0.17984 0.0
H692 H 0.89246 0.94743 0.41509 0.0
H693 H 0.83494 0.95287 0.5357 0.0
H694 H 0.82854 0.99318 0.50564 0.0
H695 H 0.91496 1.00165 0.44307 0.0
H696 H 0.92393 1.00749 0.36983 0.0
H697 H 0.92192 0.97815 0.39413 0.0
H698 H 0.89411 0.96828 0.31022 0.0
H699 H 0.89619 0.9976 0.28522 0.0
H700 H 0.86835 0.98526 0.30105 0.0
H701 H 0.83139 0.03427 0.47117 0.0
H702 H 0.84235 0.07236 0.43227 0.0
H703 H 0.89813 0.04025 0.33469 0.0
C704 C 0.87805 0.95681 0.43395 0.0
C705 C 0.86406 0.94682 0.47747 0.0
C706 C 0.84577 0.96001 0.50198 0.0
C707 C 0.84202 0.98296 0.4852 0.0
C708 C 0.85662 0.99251 0.44364 0.0
C709 C 0.87413 0.97977 0.4179 0.0
C710 C 0.88853 0.99459 0.37773 0.0
C711 C 0.91383 0.99552 0.3974 0.0
C712 C 0.88667 0.98591 0.31482 0.0
C713 C 0.87674 1.01779 0.3859 0.0
C714 C 0.85827 1.0162 0.4238 0.0
C715 C 0.84562 0.03563 0.44084 0.0
C716 C 0.85206 0.05723 0.41883 0.0
C717 C 0.871 0.05932 0.38017 0.0
C718 C 0.88327 0.0392 0.36313 0.0
H719 H 0.96352 0.18923 0.51947 0.0
H720 H 0.9509 0.11701 0.47786 0.0
H721 H 0.98778 0.10649 0.52314 0.0
H722 H 0.02407 0.18865 0.49258 0.0
H723 H 0.03099 0.20784 0.55191 0.0
H724 H 1.00327 0.20972 0.51767 0.0
H725 H 0.98303 0.2041 0.61682 0.0
H726 H 1.01071 0.20226 0.6514 0.0
H727 H 0.99005 0.17926 0.65966 0.0
H728 H 0.02738 0.10401 0.56753 0.0
H729 H 0.06546 0.10969 0.61348 0.0
H730 H 0.05166 0.18307 0.63 0.0
C731 C 0.96841 0.17118 0.52024 0.0
C732 C 0.95422 0.15397 0.49496 0.0
C733 C 0.96135 0.13054 0.49701 0.0
C734 C 0.98234 0.12437 0.52257 0.0
C735 C 0.996 0.14176 0.54653 0.0
C736 C 0.98923 0.16466 0.54614 0.0
C737 C 1.00716 0.17999 0.57475 0.0
C738 C 1.01695 0.19758 0.53165 0.0
C739 C 0.99713 0.19211 0.62888 0.0
C740 C 0.02514 0.16216 0.59076 0.0
C741 C 1.01844 0.14022 0.57379 0.0
C742 C 0.03268 0.12108 0.58158 0.0
C743 C 0.05429 0.12445 0.60748 0.0
C744 C 0.06139 0.14672 0.62592 0.0
C745 C 0.0465 0.16576 0.61751 0.0
H746 H 0.15629 0.97243 0.55944 0.0
H747 H 0.13318 0.97258 0.38108 0.0
H748 H 0.13296 1.01486 0.38221 0.0
H749 H 0.12268 0.02203 0.60711 0.0
H750 H 0.1447 0.03366 0.65373 0.0
H751 H 0.14335 1.003 0.63983 0.0
H752 H 0.18575 1.00342 0.60415 0.0
H753 H 0.1872 0.0341 0.61779 0.0
H754 H 0.19409 0.02266 0.54688 0.0
H755 H 0.13458 0.05715 0.40106 0.0
H756 H 0.13742 0.09713 0.43781 0.0
H757 H 0.16006 0.07161 0.60407 0.0
C758 C 0.15122 0.9814 0.52071 0.0
C759 C 0.1443 0.96882 0.47055 0.0
C760 C 0.13788 0.98141 0.42074 0.0
C761 C 0.13794 1.00562 0.42063 0.0
C762 C 0.14456 1.01742 0.47056 0.0
C763 C 0.1511 1.00585 0.51982 0.0
C764 C 0.15716 0.02312 0.56771 0.0
C765 C 0.14101 1.02028 0.6202 0.0
C766 C 0.18256 1.02067 0.58516 0.0
C767 C 0.15289 0.04603 0.53754 0.0
C768 C 0.14571 0.0422 0.48142 0.0
C769 C 0.14027 0.06039 0.44491 0.0
C770 C 0.14195 0.08313 0.46627 0.0
C771 C 0.14906 0.08775 0.5238 0.0
C772 C 0.15479 0.0688 0.55969 0.0
H773 H 0.99035 0.91815 0.58694 0.0
H774 H 0.94251 0.90275 0.44846 0.0
H775 H 0.97476 0.90291 0.3779 0.0
H776 H 0.02846 0.95621 0.50459 0.0
H777 H 0.0541 0.94552 0.53892 0.0
H778 H 0.02702 0.9457 0.57768 0.0
H779 H 0.03083 0.90177 0.59618 0.0
H780 H 0.05804 0.90159 0.5584 0.0
H781 H 0.03536 0.88231 0.53568 0.0
H782 H 1.01345 0.90268 0.32256 0.0
H783 H 0.05444 0.89856 0.29157 0.0
H784 H 0.07608 0.91488 0.46613 0.0
C785 C 0.98656 0.91514 0.5417 0.0
C786 C 0.96379 0.91045 0.52351 0.0
C787 C 0.95977 0.90612 0.46383 0.0
C788 C 0.978 0.90644 0.42321 0.0
C789 C 1.00024 0.91119 0.44267 0.0
C790 C 1.00453 0.91533 0.5007 0.0
C791 C 0.03006 0.91847 0.51145 0.0
C792 C 0.0352 0.94294 0.53452 0.0
C793 C 0.0391 0.89993 0.55284 0.0
C794 C 0.03956 0.91505 0.45069 0.0
C795 C 0.02217 0.91117 0.41121 0.0
C796 C 0.02715 0.90608 0.35303 0.0
C797 C 0.05045 0.90404 0.33549 0.0
C798 C 0.06834 0.90699 0.37613 0.0
C799 C 0.0627 0.91318 0.43385 0.0
H800 H 0.33817 0.31565 0.14093 0.0
H801 H 0.41217 0.3268 0.14666 0.0
H802 H 0.41831 0.28493 0.15629 0.0
H803 H 0.3359 0.26921 0.24378 0.0
H804 H 0.31427 0.25295 0.20527 0.0
H805 H 0.31531 0.28394 0.1992 0.0
H806 H 0.3184 0.28013 0.08765 0.0
H807 H 0.31715 0.24914 0.09336 0.0
H808 H 0.34092 0.26251 0.05592 0.0
H809 H 0.41675 0.24197 0.16747 0.0
H810 H 0.40788 0.20043 0.17035 0.0
H811 H 0.33491 0.21593 0.15461 0.0
C812 C 0.35567 0.30928 0.14397 0.0
C813 C 0.37468 0.32473 0.14306 0.0
C814 C 0.39728 0.31552 0.14704 0.0
C815 C 0.40097 0.29168 0.15284 0.0
C816 C 0.38193 0.27703 0.15427 0.0
C817 C 0.35972 0.28538 0.14928 0.0
C818 C 0.34238 0.26564 0.1505 0.0
C819 C 0.326 0.26809 0.2028 0.0
C820 C 0.32892 0.26428 0.09346 0.0
C821 C 0.35834 0.24495 0.15694 0.0
C822 C 0.38106 0.25202 0.15956 0.0
C823 C 0.39902 0.23624 0.1653 0.0
C824 C 0.39375 0.21258 0.1671 0.0
C825 C 0.37066 0.20467 0.1628 0.0
C826 C 0.35273 0.22126 0.15843 0.0
H827 H 0.21499 0.67371 0.82892 0.0
H828 H 0.20288 0.63391 0.98407 0.0
H829 H 0.24542 0.62952 0.99558 0.0
H830 H 0.26148 0.6404 0.7743 0.0
H831 H 0.27612 0.66508 0.74456 0.0
H832 H 0.24522 0.66524 0.75171 0.0
H833 H 0.24748 0.70326 0.81189 0.0
H834 H 0.27844 0.70308 0.80549 0.0
H835 H 0.26499 0.7043 0.87603 0.0
H836 H 0.29096 0.6302 0.98733 0.0
H837 H 0.33204 0.63257 0.95605 0.0
H838 H 0.31154 0.67153 0.80594 0.0
C839 C 0.22105 0.66415 0.86585 0.0
C840 C 0.20547 0.65434 0.90598 0.0
C841 C 0.21444 0.64163 0.95281 0.0
C842 C 0.23858 0.63918 0.95972 0.0
C843 C 0.25342 0.64944 0.91927 0.0
C844 C 0.24473 0.66149 0.873 0.0
C845 C 0.2636 0.67023 0.83357 0.0
C846 C 0.26148 0.65959 0.77245 0.0
C847 C 0.26362 0.69679 0.83167 0.0
C848 C 0.28457 0.66124 0.86434 0.0
C849 C 0.27864 0.64946 0.91406 0.0
C850 C 0.29561 0.63944 0.94851 0.0
C851 C 0.31894 0.64103 0.93072 0.0
C852 C 0.32502 0.65232 0.87864 0.0
C853 C 0.30751 0.66283 0.84603 0.0
H854 H 0.62952 0.81672 0.12235 0.0
H855 H 0.69811 0.83954 0.16962 0.0
H856 H 0.71058 0.79859 0.17594 0.0
H857 H 0.62778 0.76674 0.21741 0.0
H858 H 0.61171 0.74945 0.16641 0.0
H859 H 0.6084 0.7804 0.16759 0.0
H860 H 0.61905 0.78156 0.05862 0.0
H861 H 0.62266 0.75065 0.05725 0.0
H862 H 0.64592 0.76907 0.03402 0.0
H863 H 0.71595 0.75449 0.16994 0.0
H864 H 0.71291 0.71197 0.16299 0.0
H865 H 0.64015 0.71818 0.12365 0.0
C866 C 0.64714 0.81317 0.13467 0.0
C867 C 0.66286 0.83146 0.1455 0.0
C868 C 0.68571 0.82593 0.1616 0.0
C869 C 0.69295 0.80268 0.16489 0.0
C870 C 0.67709 0.7851 0.15269 0.0
C871 C 0.65453 0.79014 0.13885 0.0
C872 C 0.64072 0.76823 0.12809 0.0
C873 C 0.62099 0.76608 0.17253 0.0
C874 C 0.63155 0.76734 0.0658 0.0
C875 C 0.65904 0.74993 0.13729 0.0
C876 C 0.67996 0.75999 0.15099 0.0
C877 C 0.69958 0.74653 0.15974 0.0
C878 C 0.69769 0.72231 0.15532 0.0
C879 C 0.67629 0.71154 0.14278 0.0
C880 C 0.65677 0.72573 0.13347 0.0
H881 H 0.73139 0.37901 0.743 0.0
H882 H 0.71226 0.42647 0.88191 0.0
H883 H 0.75323 0.42989 0.90931 0.0
H884 H 0.77437 0.34904 0.81516 0.0
H885 H 0.79393 0.3463 0.75449 0.0
H886 H 0.76342 0.34891 0.74233 0.0
H887 H 0.77032 0.38445 0.67748 0.0
H888 H 0.80093 0.38172 0.68855 0.0
H889 H 0.78657 0.40864 0.70526 0.0
H890 H 0.79571 0.42376 0.92999 0.0
H891 H 0.83716 0.41389 0.93266 0.0
H892 H 0.82986 0.37316 0.77525 0.0
C893 C 0.73586 0.39063 0.77821 0.0
C894 C 0.71843 0.40247 0.81026 0.0
C895 C 0.72513 0.41733 0.85633 0.0
C896 C 0.74843 0.41926 0.87249 0.0
C897 C 0.76503 0.40666 0.84139 0.0
C898 C 0.75912 0.39314 0.79415 0.0
C899 C 0.7803 0.38126 0.76826 0.0
C900 C 0.77785 0.35481 0.7702 0.0
C901 C 0.78479 0.38951 0.7062 0.0
C902 C 0.79898 0.3897 0.80919 0.0
C903 C 0.78971 0.40414 0.85145 0.0
C904 C 0.80318 0.41282 0.89648 0.0
C905 C 0.82669 0.40694 0.89792 0.0
C906 C 0.83681 0.39279 0.85416 0.0
C907 C 0.82269 0.38418 0.80902 0.0
H908 H 0.90632 0.72643 0.61563 0.0
H909 H 0.83981 0.70472 0.68269 0.0
H910 H 0.82539 0.74482 0.67467 0.0
H911 H 0.90704 0.78246 0.68954 0.0
H912 H 0.92124 0.79665 0.63009 0.0
H913 H 0.92623 0.76638 0.64237 0.0
H914 H 0.91375 0.75712 0.53721 0.0
H915 H 0.90845 0.78732 0.52482 0.0
H916 H 0.88584 0.76649 0.51278 0.0
H917 H 0.81759 0.78702 0.6532 0.0
H918 H 0.81821 0.82864 0.6308 0.0
H919 H 0.8904 0.82315 0.58176 0.0
C920 C 0.88877 0.73013 0.62918 0.0
C921 C 0.87418 0.71239 0.64981 0.0
C922 C 0.85136 0.71801 0.66719 0.0
C923 C 0.84298 0.74073 0.66242 0.0
C924 C 0.85771 0.7577 0.64085 0.0
C925 C 0.88025 0.75274 0.62543 0.0
C926 C 0.89266 0.77415 0.60426 0.0
C927 C 0.91299 0.78027 0.64394 0.0
C928 C 0.90064 0.77108 0.54102 0.0
C929 C 0.87353 0.79194 0.60955 0.0
C930 C 0.85344 0.78206 0.63024 0.0
C931 C 0.83329 0.79494 0.63742 0.0
C932 C 0.83378 0.81858 0.62418 0.0
C933 C 0.85435 0.82925 0.60451 0.0
C934 C 0.87441 0.81558 0.59683 0.0
H935 H 0.81008 0.18961 0.41486 0.0
H936 H 0.83102 0.12354 0.48267 0.0
H937 H 0.79112 0.1167 0.5181 0.0
H938 H 0.76735 0.20366 0.53464 0.0
H939 H 0.74835 0.21756 0.48437 0.0
H940 H 0.7791 0.21824 0.47251 0.0
H941 H 0.77357 0.20046 0.37001 0.0
H942 H 0.74295 0.19977 0.38153 0.0
H943 H 0.75813 0.17358 0.36224 0.0
H944 H 0.74662 0.11429 0.52758 0.0
H945 H 0.70416 0.1181 0.51504 0.0
H946 H 0.71424 0.18771 0.45287 0.0
C947 C 0.80638 0.17411 0.43906 0.0
C948 C 0.82354 0.15724 0.44679 0.0
C949 C 0.81811 0.13688 0.47745 0.0
C950 C 0.79548 0.13283 0.49751 0.0
C951 C 0.77867 0.14964 0.48802 0.0
C952 C 0.78413 0.17017 0.46079 0.0
C953 C 0.76298 0.18493 0.45237 0.0
C954 C 0.76455 0.20743 0.48812 0.0
C955 C 0.75919 0.18995 0.38774 0.0
C956 C 0.74456 0.16911 0.47621 0.0
C957 C 0.7537 0.14879 0.49683 0.0
C958 C 0.73935 0.13045 0.5133 0.0
C959 C 0.71522 0.13276 0.50655 0.0
C960 C 0.70587 0.15327 0.48366 0.0
C961 C 0.72081 0.17189 0.47124 0.0
H962 H 0.1799 0.31768 0.64224 0.0
H963 H 0.12985 0.33932 0.51506 0.0
H964 H 0.12361 0.2981 0.48763 0.0
H965 H 0.20447 0.2695 0.56015 0.0
H966 H 0.20789 0.25204 0.62362 0.0
H967 H 0.20932 0.28307 0.62961 0.0
H968 H 0.17691 0.28268 0.7073 0.0
H969 H 0.1754 0.25169 0.70166 0.0
H970 H 0.14985 0.26884 0.69095 0.0
H971 H 0.12141 0.25362 0.47947 0.0
H972 H 0.12274 0.21131 0.49144 0.0
H973 H 0.17451 0.21944 0.62465 0.0
C974 C 0.16773 0.31397 0.60807 0.0
C975 C 0.15537 0.33197 0.58072 0.0
C976 C 0.13962 0.326 0.53648 0.0
C977 C 0.13599 0.30258 0.52072 0.0
C978 C 0.14833 0.28534 0.54935 0.0
C979 C 0.16395 0.29088 0.59202 0.0
C980 C 0.17442 0.26937 0.61831 0.0
C981 C 0.20058 0.26845 0.60724 0.0
C982 C 0.1688 0.26808 0.68339 0.0
C983 C 0.16206 0.25059 0.58448 0.0
C984 C 0.14717 0.26011 0.54463 0.0
C985 C 0.13317 0.24612 0.5102 0.0
C986 C 0.13409 0.22201 0.51735 0.0
C987 C 0.14889 0.21183 0.55867 0.0
C988 C 0.16332 0.22648 0.59193 0.0
H989 H 0.21715 0.86301 0.32333 0.0
H990 H 0.20468 0.93651 0.34062 0.0
H991 H 0.24626 0.94251 0.36339 0.0
H992 H 0.25137 0.85894 0.4443 0.0
H993 H 0.26994 0.83675 0.41458 0.0
H994 H 0.24068 0.83912 0.39007 0.0
H995 H 0.25458 0.84301 0.28362 0.0
H996 H 0.28384 0.8397 0.30751 0.0
H997 H 0.27583 0.86456 0.26585 0.0
H998 H 0.2909 0.93863 0.39013 0.0
H999 H 0.33113 0.92576 0.40983 0.0
H1000 H 0.30962 0.8546 0.38737 0.0
C1001 C 0.22324 0.88053 0.33006 0.0
C1002 C 0.20778 0.89933 0.32914 0.0
C1003 C 0.21637 0.92191 0.33943 0.0
C1004 C 0.2399 0.92537 0.35333 0.0
C1005 C 0.25439 0.90605 0.3573 0.0
C1006 C 0.24614 0.88411 0.34535 0.0
C1007 C 0.26395 0.86572 0.35628 0.0
C1008 C 0.256 0.84918 0.40415 0.0
C1009 C 0.26991 0.85248 0.29997 0.0
C1010 C 0.28378 0.88051 0.37627 0.0
C1011 C 0.27838 0.90378 0.37631 0.0
C1012 C 0.29504 0.9204 0.39067 0.0
C1013 C 0.31779 0.91297 0.40277 0.0
C1014 C 0.32345 0.88914 0.40107 0.0
C1015 C 0.30586 0.87294 0.38975 0.0
H1016 H 0.23344 0.10912 0.79728 0.0
H1017 H 0.2203 0.18273 0.79553 0.0
H1018 H 0.25698 0.18967 0.84791 0.0
H1019 H 0.2586 0.10591 0.93651 0.0
H1020 H 0.28011 0.08482 0.91594 0.0
H1021 H 0.25315 0.08587 0.8779 0.0
H1022 H 0.27509 0.09051 0.7807 0.0
H1023 H 0.30214 0.08935 0.8184 0.0
H1024 H 0.2957 0.1136 0.77296 0.0
H1025 H 0.29369 0.18783 0.90886 0.0
H1026 H 0.32945 0.17794 0.96166 0.0
H1027 H 0.32025 0.10587 0.91561 0.0
C1028 C 0.2384 0.12669 0.80771 0.0
C1029 C 0.22401 0.14543 0.79275 0.0
C1030 C 0.23115 0.16821 0.80643 0.0
C1031 C 0.25188 0.17225 0.8364 0.0
C1032 C 0.26553 0.15334 0.85128 0.0
C1033 C 0.25926 0.13103 0.83631 0.0
C1034 C 0.27716 0.11372 0.85604 0.0
C1035 C 0.26662 0.09657 0.89916 0.0
C1036 C 0.28817 0.10105 0.80391 0.0
C1037 C 0.29433 0.12966 0.88544 0.0
C1038 C 0.2872 0.15244 0.8829 0.0
C1039 C 0.29958 0.1701 0.91017 0.0
C1040 C 0.31979 0.16436 0.94024 0.0
C1041 C 0.32772 0.14124 0.94196 0.0
C1042 C 0.31479 0.12374 0.91396 0.0
H1043 H 0.12359 0.78702 0.24989 0.0
H1044 H 0.15323 0.84687 0.16535 0.0
H1045 H 0.15548 0.82504 0.07396 0.0
H1046 H 0.15876 0.74415 0.1723 0.0
H1047 H 0.13587 0.72322 0.16678 0.0
H1048 H 0.13636 0.7434 0.22673 0.0
H1049 H 0.09523 0.75708 0.20115 0.0
H1050 H 0.09462 0.73695 0.14112 0.0
H1051 H 0.08948 0.76724 0.1292 0.0
H1052 H 0.15404 0.7974 0.99011 0.0
H1053 H 0.14973 0.76538 0.92002 0.0
H1054 H 0.12205 0.722 0.05571 0.0
C1055 C 0.13071 0.79554 0.21238 0.0
C1056 C 0.13795 0.81906 0.21569 0.0
C1057 C 0.14704 0.82926 0.16476 0.0
C1058 C 0.14858 0.81687 0.11225 0.0
C1059 C 0.14113 0.79399 0.11043 0.0
C1060 C 0.13247 0.7833 0.15909 0.0
C1061 C 0.12567 0.75842 0.14457 0.0
C1062 C 0.14002 0.74128 0.17969 0.0
C1063 C 0.09971 0.75471 0.15461 0.0
C1064 C 0.13179 0.75692 0.08026 0.0
C1065 C 0.14064 0.77774 0.06173 0.0
C1066 C 0.14715 0.78101 1.00421 0.0
C1067 C 0.14449 0.76268 0.96446 0.0
C1068 C 0.13546 0.74103 0.98173 0.0
C1069 C 0.1292 0.73817 0.04091 0.0
H1070 H 0.72036 0.93713 0.91739 0.0
H1071 H 0.7203 0.86638 0.97677 0.0
H1072 H 0.75705 0.85924 0.92411 0.0
H1073 H 0.74369 0.92607 0.77499 0.0
H1074 H 0.76092 0.95197 0.7744 0.0
H1075 H 0.73457 0.95116 0.81606 0.0
H1076 H 0.75703 0.96311 0.90819 0.0
H1077 H 0.78345 0.96389 0.86684 0.0
H1078 H 0.78145 0.94613 0.93025 0.0
H1079 H 0.79373 0.85981 0.86148 0.0
H1080 H 0.82772 0.86867 0.79995 0.0
H1081 H 0.80403 0.93938 0.78489 0.0
C1082 C 0.72794 0.92007 0.91893 0.0
C1083 C 0.7173 0.90224 0.95095 0.0
C1084 C 0.72814 0.8803 0.95276 0.0
C1085 C 0.74898 0.87609 0.92276 0.0
C1086 C 0.75897 0.89406 0.89155 0.0
C1087 C 0.74886 0.91567 0.88988 0.0
C1088 C 0.7633 0.93225 0.8545 0.0
C1089 C 0.74981 0.94086 0.80187 0.0
C1090 C 0.77181 0.95254 0.89221 0.0
C1091 C 0.78308 0.91661 0.83611 0.0
C1092 C 0.78025 0.89459 0.85751 0.0
C1093 C 0.79612 0.87705 0.84486 0.0
C1094 C 0.81535 0.8822 0.8097 0.0
C1095 C 0.81875 0.90476 0.78797 0.0
C1096 C 0.80227 0.92209 0.80162 0.0
H1097 H 0.935 0.2314 0.23855 0.0
H1098 H 0.86133 0.2213 0.25775 0.0
H1099 H 0.85439 0.25728 0.20291 0.0
H1100 H 0.93454 0.29358 0.25388 0.0
H1101 H 0.95732 0.29752 0.20146 0.0
H1102 H 0.95604 0.27141 0.24301 0.0
H1103 H 0.956 0.24709 0.14817 0.0
H1104 H 0.95718 0.27312 0.10632 0.0
H1105 H 0.93436 0.25252 0.09434 0.0
H1106 H 0.85609 0.29413 0.14002 0.0
H1107 H 0.86617 0.32898 0.08355 0.0
H1108 H 0.93872 0.31431 0.10794 0.0
C1109 C 0.91737 0.23667 0.23124 0.0
C1110 C 0.89869 0.22333 0.25228 0.0
C1111 C 0.87592 0.23123 0.24248 0.0
C1112 C 0.87184 0.25159 0.21102 0.0
C1113 C 0.89072 0.26407 0.19002 0.0
C1114 C 0.91304 0.25694 0.20043 0.0
C1115 C 0.93046 0.27328 0.17385 0.0
C1116 C 0.94547 0.28462 0.22086 0.0
C1117 C 0.94537 0.26075 0.12795 0.0
C1118 C 0.91456 0.29074 0.1464 0.0
C1119 C 0.89167 0.28516 0.15572 0.0
C1120 C 0.87398 0.29865 0.13296 0.0
C1121 C 0.87985 0.31837 0.1006 0.0
C1122 C 0.90323 0.32463 0.09157 0.0
C1123 C 0.92068 0.31038 0.11477 0.0
H1124 H 0.23591 0.42533 0.49011 0.0
H1125 H 0.26009 0.36758 0.59061 0.0
H1126 H 0.29307 0.3624 0.52309 0.0
H1127 H 0.25296 0.40337 0.34744 0.0
H1128 H 0.26226 0.43114 0.32163 0.0
H1129 H 0.2398 0.42941 0.37568 0.0
H1130 H 0.26318 0.45633 0.44353 0.0
H1131 H 0.2857 0.45815 0.38968 0.0
H1132 H 0.29237 0.4487 0.46172 0.0
H1133 H 0.32361 0.36324 0.44287 0.0
H1134 H 0.35076 0.37239 0.36294 0.0
H1135 H 0.30843 0.43114 0.31785 0.0
C1136 C 0.24805 0.41147 0.49739 0.0
C1137 C 0.24529 0.39672 0.54555 0.0
C1138 C 0.26184 0.37908 0.55422 0.0
C1139 C 0.28059 0.37596 0.51586 0.0
C1140 C 0.28294 0.39083 0.46905 0.0
C1141 C 0.26725 0.40843 0.46005 0.0
C1142 C 0.27453 0.42285 0.40836 0.0
C1143 C 0.2563 0.42161 0.36044 0.0
C1144 C 0.27922 0.44799 0.42695 0.0
C1145 C 0.29668 0.41063 0.38973 0.0
C1146 C 0.30106 0.39199 0.42479 0.0
C1147 C 0.32034 0.37788 0.41538 0.0
C1148 C 0.33566 0.38311 0.36964 0.0
C1149 C 0.33195 0.40254 0.33414 0.0
C1150 C 0.31201 0.41632 0.34449 0.0
H1151 H 0.38686 0.76597 0.43272 0.0
H1152 H 0.40452 0.8224 0.54991 0.0
H1153 H 0.40654 0.79501 0.63018 0.0
H1154 H 0.35175 0.73399 0.53301 0.0
H1155 H 0.36171 0.70616 0.50747 0.0
H1156 H 0.36119 0.73029 0.45896 0.0
H1157 H 0.40462 0.72438 0.43658 0.0
H1158 H 0.40527 0.70022 0.48499 0.0
H1159 H 0.4249 0.72401 0.49533 0.0
H1160 H 0.40698 0.76086 0.69944 0.0
H1161 H 0.40655 0.72335 0.74931 0.0
H1162 H 0.38895 0.68911 0.58743 0.0
C1163 C 0.39125 0.77277 0.47495 0.0
C1164 C 0.3954 0.79679 0.48389 0.0
C1165 C 0.40094 0.80441 0.54085 0.0
C1166 C 0.40225 0.78886 0.58719 0.0
C1167 C 0.39805 0.76546 0.57666 0.0
C1168 C 0.39272 0.75745 0.52184 0.0
C1169 C 0.38925 0.73139 0.52192 0.0
C1170 C 0.3645 0.72509 0.5043 0.0
C1171 C 0.40707 0.71929 0.48236 0.0
C1172 C 0.39351 0.726 0.58526 0.0
C1173 C 0.39849 0.74589 0.6162 0.0
C1174 C 0.40305 0.7452 0.67545 0.0
C1175 C 0.40264 0.72371 0.70364 0.0
C1176 C 0.39777 0.70293 0.67289 0.0
C1177 C 0.39304 0.70438 0.61269 0.0
H1178 H 0.71494 0.6043 0.36397 0.0
H1179 H 0.70818 0.67785 0.33491 0.0
H1180 H 0.74469 0.68469 0.38736 0.0
H1181 H 0.73903 0.6081 0.50764 0.0
H1182 H 0.75838 0.58407 0.49613 0.0
H1183 H 0.73151 0.58522 0.45765 0.0
H1184 H 0.75363 0.58137 0.36021 0.0
H1185 H 0.78056 0.58027 0.39838 0.0
H1186 H 0.77621 0.60166 0.34345 0.0
H1187 H 0.78218 0.68331 0.44511 0.0
H1188 H 0.81788 0.67366 0.49795 0.0
H1189 H 0.80034 0.60095 0.48674 0.0
C1190 C 0.72096 0.62189 0.36919 0.0
C1191 C 0.7085 0.64058 0.34557 0.0
C1192 C 0.71739 0.66325 0.35235 0.0
C1193 C 0.73809 0.6673 0.38232 0.0
C1194 C 0.74993 0.64847 0.40497 0.0
C1195 C 0.74171 0.62619 0.39839 0.0
C1196 C 0.758 0.60886 0.42522 0.0
C1197 C 0.74601 0.5958 0.4746 0.0
C1198 C 0.76767 0.59205 0.37906 0.0
C1199 C 0.77664 0.62482 0.44816 0.0
C1200 C 0.77164 0.64763 0.43645 0.0
C1201 C 0.78625 0.66548 0.45429 0.0
C1202 C 0.80646 0.65986 0.48454 0.0
C1203 C 0.81212 0.63655 0.49635 0.0
C1204 C 0.79683 0.61891 0.47776 0.0
H1205 H 0.65175 0.26187 0.51499 0.0
H1206 H 0.62147 0.20335 0.60407 0.0
H1207 H 0.62196 0.2253 0.69512 0.0
H1208 H 0.68878 0.28074 0.62957 0.0
H1209 H 0.68427 0.31117 0.61829 0.0
H1210 H 0.68161 0.29107 0.55861 0.0
H1211 H 0.64034 0.30598 0.53924 0.0
H1212 H 0.64289 0.32617 0.59881 0.0
H1213 H 0.61927 0.30596 0.59698 0.0
H1214 H 0.62741 0.25242 0.77885 0.0
H1215 H 0.63524 0.28422 0.84817 0.0
H1216 H 0.65955 0.32691 0.7075 0.0
C1217 C 0.64502 0.25366 0.55335 0.0
C1218 C 0.63695 0.23041 0.55135 0.0
C1219 C 0.62834 0.22069 0.60344 0.0
C1220 C 0.62836 0.23316 0.65589 0.0
C1221 C 0.63672 0.25569 0.65642 0.0
C1222 C 0.64465 0.26604 0.60652 0.0
C1223 C 0.65255 0.29068 0.6197 0.0
C1224 C 0.67834 0.29358 0.6057 0.0
C1225 C 0.63788 0.30824 0.58671 0.0
C1226 C 0.64801 0.29237 0.68473 0.0
C1227 C 0.639 0.27186 0.70484 0.0
C1228 C 0.63426 0.26864 0.76347 0.0
C1229 C 0.63884 0.28677 0.80266 0.0
C1230 C 0.64784 0.30812 0.78348 0.0
C1231 C 0.65232 0.31094 0.72341 0.0
loop_
_geom_bond_atom_site_label_1
_geom_bond_atom_site_label_2
_geom_bond_distance
_geom_bond_site_symmetry_2
_ccdc_geom_bond_type
Cu0 N1 1.999 . S
Cu0 O6 1.974 . S
Cu0 N11 1.985 . S
Cu0 O20 1.959 . S
N1 Cu0 1.999 . S
N1 C3 1.263 . S
N1 C5 1.389 . S
N2 C3 1.358 . S
N2 C4 1.400 . S
C3 N1 1.263 . S
C3 N2 1.358 . S
C3 H9 0.930 . S
C4 N2 1.400 . S
C4 C5 1.351 . S
C4 H21 0.930 . S
C5 N1 1.389 . S
C5 C4 1.351 . S
C5 H10 0.930 . S
O6 Cu0 1.974 . S
O6 C16 1.282 . S
C7 O8 1.261 . S
C7 O20 1.251 . S
O8 C7 1.261 . S
H9 C3 0.930 . S
H10 C5 0.930 . S
N11 Cu0 1.985 . S
N11 C13 1.335 . S
N11 C14 1.390 . S
N12 C13 1.345 . S
N12 C15 1.336 . S
C13 N11 1.335 . S
C13 N12 1.345 . S
C13 H18 0.930 . S
C14 N11 1.390 . S
C14 C15 1.346 . S
C14 H19 0.930 . S
C15 N12 1.336 . S
C15 C14 1.346 . S
C15 H22 0.929 . S
C16 O6 1.282 . S
C16 O17 1.216 . S
O17 C16 1.216 . S
H18 C13 0.930 . S
H19 C14 0.930 . S
O20 Cu0 1.959 . S
O20 C7 1.251 . S
H21 C4 0.930 . S
H22 C15 0.929 . S
Cu23 N24 1.999 . S
Cu23 O29 1.974 . S
Cu23 N34 1.985 . S
Cu23 O43 1.959 . S
N24 Cu23 1.999 . S
N24 C26 1.263 . S
N24 C28 1.389 . S
N25 C26 1.358 . S
N25 C27 1.400 . S
C26 N24 1.263 . S
C26 N25 1.358 . S
C26 H32 0.930 . S
C27 N25 1.400 . S
C27 C28 1.351 . S
C27 H44 0.930 . S
C28 N24 1.389 . S
C28 C27 1.351 . S
C28 H33 0.930 . S
O29 Cu23 1.974 . S
O29 C39 1.282 . S
C30 O31 1.261 . S
C30 O43 1.251 . S
O31 C30 1.261 . S
H32 C26 0.930 . S
H33 C28 0.930 . S
N34 Cu23 1.985 . S
N34 C36 1.335 . S
N34 C37 1.390 . S
N35 C36 1.345 . S
N35 C38 1.336 . S
C36 N34 1.335 . S
C36 N35 1.345 . S
C36 H41 0.930 . S
C37 N34 1.390 . S
C37 C38 1.346 . S
C37 H42 0.930 . S
C38 N35 1.336 . S
C38 C37 1.346 . S
C38 H45 0.929 . S
C39 O29 1.282 . S
C39 O40 1.216 . S
O40 C39 1.216 . S
H41 C36 0.930 . S
H42 C37 0.930 . S
O43 Cu23 1.959 . S
O43 C30 1.251 . S
H44 C27 0.930 . S
H45 C38 0.929 . S
Cu46 N47 1.999 . S
Cu46 O52 1.974 . S
Cu46 N57 1.985 . S
Cu46 O66 1.959 . S
N47 Cu46 1.999 . S
N47 C49 1.263 . S
N47 C51 1.389 . S
N48 C49 1.358 . S
N48 C50 1.400 . S
C49 N47 1.263 . S
C49 N48 1.358 . S
C49 H55 0.930 . S
C50 N48 1.400 . S
C50 C51 1.351 . S
C50 H67 0.930 . S
C51 N47 1.389 . S
C51 C50 1.351 . S
C51 H56 0.930 . S
O52 Cu46 1.974 . S
O52 C62 1.282 . S
C53 O54 1.261 . S
C53 O66 1.251 . S
O54 C53 1.261 . S
H55 C49 0.930 . S
H56 C51 0.930 . S
N57 Cu46 1.985 . S
N57 C59 1.335 . S
N57 C60 1.390 . S
N58 C59 1.345 . S
N58 C61 1.336 . S
C59 N57 1.335 . S
C59 N58 1.345 . S
C59 H64 0.930 . S
C60 N57 1.390 . S
C60 C61 1.346 . S
C60 H65 0.930 . S
C61 N58 1.336 . S
C61 C60 1.346 . S
C61 H68 0.929 . S
C62 O52 1.282 . S
C62 O63 1.216 . S
O63 C62 1.216 . S
H64 C59 0.930 . S
H65 C60 0.930 . S
O66 Cu46 1.959 . S
O66 C53 1.251 . S
H67 C50 0.930 . S
H68 C61 0.929 . S
Cu69 N70 1.999 . S
Cu69 O75 1.974 . S
Cu69 N80 1.985 . S
Cu69 O89 1.959 . S
N70 Cu69 1.999 . S
N70 C72 1.263 . S
N70 C74 1.389 . S
N71 C72 1.358 . S
N71 C73 1.400 . S
C72 N70 1.263 . S
C72 N71 1.358 . S
C72 H78 0.930 . S
C73 N71 1.400 . S
C73 C74 1.351 . S
C73 H90 0.930 . S
C74 N70 1.389 . S
C74 C73 1.351 . S
C74 H79 0.930 . S
O75 Cu69 1.974 . S
O75 C85 1.282 . S
C76 O77 1.261 . S
C76 O89 1.251 . S
O77 C76 1.261 . S
H78 C72 0.930 . S
H79 C74 0.930 . S
N80 Cu69 1.985 . S
N80 C82 1.335 . S
N80 C83 1.390 . S
N81 C82 1.345 . S
N81 C84 1.336 . S
C82 N80 1.335 . S
C82 N81 1.345 . S
C82 H87 0.930 . S
C83 N80 1.390 . S
C83 C84 1.346 . S
C83 H88 0.930 . S
C84 N81 1.336 . S
C84 C83 1.346 . S
C84 H91 0.929 . S
C85 O75 1.282 . S
C85 O86 1.216 . S
O86 C85 1.216 . S
H87 C82 0.930 . S
H88 C83 0.930 . S
O89 Cu69 1.959 . S
O89 C76 1.251 . S
H90 C73 0.930 . S
H91 C84 0.929 . S
Cu92 N93 1.999 . S
Cu92 O98 1.974 . S
Cu92 N103 1.985 . S
Cu92 O112 1.959 . S
N93 Cu92 1.999 . S
N93 C95 1.263 . S
N93 C97 1.389 . S
N94 C95 1.358 . S
N94 C96 1.400 . S
C95 N93 1.263 . S
C95 N94 1.358 . S
C95 H101 0.930 . S
C96 N94 1.400 . S
C96 C97 1.351 . S
C96 H113 0.930 . S
C97 N93 1.389 . S
C97 C96 1.351 . S
C97 H102 0.930 . S
O98 Cu92 1.974 . S
O98 C108 1.282 . S
C99 O100 1.261 . S
C99 O112 1.251 . S
O100 C99 1.261 . S
H101 C95 0.930 . S
H102 C97 0.930 . S
N103 Cu92 1.985 . S
N103 C105 1.335 . S
N103 C106 1.390 . S
N104 C105 1.345 . S
N104 C107 1.336 . S
C105 N103 1.335 . S
C105 N104 1.345 . S
C105 H110 0.930 . S
C106 N103 1.390 . S
C106 C107 1.346 . S
C106 H111 0.930 . S
C107 N104 1.336 . S
C107 C106 1.346 . S
C107 H114 0.929 . S
C108 O98 1.282 . S
C108 O109 1.216 . S
O109 C108 1.216 . S
H110 C105 0.930 . S
H111 C106 0.930 . S
O112 Cu92 1.959 . S
O112 C99 1.251 . S
H113 C96 0.930 . S
H114 C107 0.929 . S
Cu115 N116 1.999 . S
Cu115 O121 1.974 . S
Cu115 N126 1.985 . S
Cu115 O135 1.959 . S
N116 Cu115 1.999 . S
N116 C118 1.263 . S
N116 C120 1.389 . S
N117 C118 1.358 . S
N117 C119 1.400 . S
C118 N116 1.263 . S
C118 N117 1.358 . S
C118 H124 0.930 . S
C119 N117 1.400 . S
C119 C120 1.351 . S
C119 H136 0.930 . S
C120 N116 1.389 . S
C120 C119 1.351 . S
C120 H125 0.930 . S
O121 Cu115 1.974 . S
O121 C131 1.282 . S
C122 O123 1.261 . S
C122 O135 1.251 . S
O123 C122 1.261 . S
H124 C118 0.930 . S
H125 C120 0.930 . S
N126 Cu115 1.985 . S
N126 C128 1.335 . S
N126 C129 1.390 . S
N127 C128 1.345 . S
N127 C130 1.336 . S
C128 N126 1.335 . S
C128 N127 1.345 . S
C128 H133 0.930 . S
C129 N126 1.390 . S
C129 C130 1.346 . S
C129 H134 0.930 . S
C130 N127 1.336 . S
C130 C129 1.346 . S
C130 H137 0.929 . S
C131 O121 1.282 . S
C131 O132 1.216 . S
O132 C131 1.216 . S
H133 C128 0.930 . S
H134 C129 0.930 . S
O135 Cu115 1.959 . S
O135 C122 1.251 . S
H136 C119 0.930 . S
H137 C130 0.929 . S
Cu138 N139 1.999 . S
Cu138 O144 1.974 . S
Cu138 N149 1.985 . S
Cu138 O158 1.959 . S
N139 Cu138 1.999 . S
N139 C141 1.263 . S
N139 C143 1.389 . S
N140 C141 1.358 . S
N140 C142 1.400 . S
C141 N139 1.263 . S
C141 N140 1.358 . S
C141 H147 0.930 . S
C142 N140 1.400 . S
C142 C143 1.351 . S
C142 H159 0.930 . S
C143 N139 1.389 . S
C143 C142 1.351 . S
C143 H148 0.930 . S
O144 Cu138 1.974 . S
O144 C154 1.282 . S
C145 O146 1.261 . S
C145 O158 1.251 . S
O146 C145 1.261 . S
H147 C141 0.930 . S
H148 C143 0.930 . S
N149 Cu138 1.985 . S
N149 C151 1.335 . S
N149 C152 1.390 . S
N150 C151 1.345 . S
N150 C153 1.336 . S
C151 N149 1.335 . S
C151 N150 1.345 . S
C151 H156 0.930 . S
C152 N149 1.390 . S
C152 C153 1.346 . S
C152 H157 0.930 . S
C153 N150 1.336 . S
C153 C152 1.346 . S
C153 H160 0.929 . S
C154 O144 1.282 . S
C154 O155 1.216 . S
O155 C154 1.216 . S
H156 C151 0.930 . S
H157 C152 0.930 . S
O158 Cu138 1.959 . S
O158 C145 1.251 . S
H159 C142 0.930 . S
H160 C153 0.929 . S
Cu161 N162 1.999 . S
Cu161 O167 1.974 . S
Cu161 N172 1.985 . S
Cu161 O181 1.959 . S
N162 Cu161 1.999 . S
N162 C164 1.263 . S
N162 C166 1.389 . S
N163 C164 1.358 . S
N163 C165 1.400 . S
C164 N162 1.263 . S
C164 N163 1.358 . S
C164 H170 0.930 . S
C165 N163 1.400 . S
C165 C166 1.351 . S
C165 H182 0.930 . S
C166 N162 1.389 . S
C166 C165 1.351 . S
C166 H171 0.930 . S
O167 Cu161 1.974 . S
O167 C177 1.282 . S
C168 O169 1.261 . S
C168 O181 1.251 . S
O169 C168 1.261 . S
H170 C164 0.930 . S
H171 C166 0.930 . S
N172 Cu161 1.985 . S
N172 C174 1.335 . S
N172 C175 1.390 . S
N173 C174 1.345 . S
N173 C176 1.336 . S
C174 N172 1.335 . S
C174 N173 1.345 . S
C174 H179 0.930 . S
C175 N172 1.390 . S
C175 C176 1.346 . S
C175 H180 0.930 . S
C176 N173 1.336 . S
C176 C175 1.346 . S
C176 H183 0.929 . S
C177 O167 1.282 . S
C177 O178 1.216 . S
O178 C177 1.216 . S
H179 C174 0.930 . S
H180 C175 0.930 . S
O181 Cu161 1.959 . S
O181 C168 1.251 . S
H182 C165 0.930 . S
H183 C176 0.929 . S
Cu184 N185 1.999 . S
Cu184 O190 1.974 . S
Cu184 N195 1.985 . S
Cu184 O204 1.959 . S
N185 Cu184 1.999 . S
N185 C187 1.263 . S
N185 C189 1.389 . S
N186 C187 1.358 . S
N186 C188 1.400 . S
C187 N185 1.263 . S
C187 N186 1.358 . S
C187 H193 0.930 . S
C188 N186 1.400 . S
C188 C189 1.351 . S
C188 H205 0.930 . S
C189 N185 1.389 . S
C189 C188 1.351 . S
C189 H194 0.930 . S
O190 Cu184 1.974 . S
O190 C200 1.282 . S
C191 O192 1.261 . S
C191 O204 1.251 . S
O192 C191 1.261 . S
H193 C187 0.930 . S
H194 C189 0.930 . S
N195 Cu184 1.985 . S
N195 C197 1.335 . S
N195 C198 1.390 . S
N196 C197 1.345 . S
N196 C199 1.336 . S
C197 N195 1.335 . S
C197 N196 1.345 . S
C197 H202 0.930 . S
C198 N195 1.390 . S
C198 C199 1.346 . S
C198 H203 0.930 . S
C199 N196 1.336 . S
C199 C198 1.346 . S
C199 H206 0.929 . S
C200 O190 1.282 . S
C200 O201 1.216 . S
O201 C200 1.216 . S
H202 C197 0.930 . S
H203 C198 0.930 . S
O204 Cu184 1.959 . S
O204 C191 1.251 . S
H205 C188 0.930 . S
H206 C199 0.929 . S
Cu207 N208 1.999 . S
Cu207 O213 1.974 . S
Cu207 N218 1.985 . S
Cu207 O227 1.959 . S
N208 Cu207 1.999 . S
N208 C210 1.263 . S
N208 C212 1.389 . S
N209 C210 1.358 . S
N209 C211 1.400 . S
C210 N208 1.263 . S
C210 N209 1.358 . S
C210 H216 0.930 . S
C211 N209 1.400 . S
C211 C212 1.351 . S
C211 H228 0.930 . S
C212 N208 1.389 . S
C212 C211 1.351 . S
C212 H217 0.930 . S
O213 Cu207 1.974 . S
O213 C223 1.282 . S
C214 O215 1.261 . S
C214 O227 1.251 . S
O215 C214 1.261 . S
H216 C210 0.930 . S
H217 C212 0.930 . S
N218 Cu207 1.985 . S
N218 C220 1.335 . S
N218 C221 1.390 . S
N219 C220 1.345 . S
N219 C222 1.336 . S
C220 N218 1.335 . S
C220 N219 1.345 . S
C220 H225 0.930 . S
C221 N218 1.390 . S
C221 C222 1.346 . S
C221 H226 0.930 . S
C222 N219 1.336 . S
C222 C221 1.346 . S
C222 H229 0.929 . S
C223 O213 1.282 . S
C223 O224 1.216 . S
O224 C223 1.216 . S
H225 C220 0.930 . S
H226 C221 0.930 . S
O227 Cu207 1.959 . S
O227 C214 1.251 . S
H228 C211 0.930 . S
H229 C222 0.929 . S
Cu230 N231 1.999 . S
Cu230 O236 1.974 . S
Cu230 N241 1.985 . S
Cu230 O250 1.959 . S
N231 Cu230 1.999 . S
N231 C233 1.263 . S
N231 C235 1.389 . S
N232 C233 1.358 . S
N232 C234 1.400 . S
C233 N231 1.263 . S
C233 N232 1.358 . S
C233 H239 0.930 . S
C234 N232 1.400 . S
C234 C235 1.351 . S
C234 H251 0.930 . S
C235 N231 1.389 . S
C235 C234 1.351 . S
C235 H240 0.930 . S
O236 Cu230 1.974 . S
O236 C246 1.282 . S
C237 O238 1.261 . S
C237 O250 1.251 . S
O238 C237 1.261 . S
H239 C233 0.930 . S
H240 C235 0.930 . S
N241 Cu230 1.985 . S
N241 C243 1.335 . S
N241 C244 1.390 . S
N242 C243 1.345 . S
N242 C245 1.336 . S
C243 N241 1.335 . S
C243 N242 1.345 . S
C243 H248 0.930 . S
C244 N241 1.390 . S
C244 C245 1.346 . S
C244 H249 0.930 . S
C245 N242 1.336 . S
C245 C244 1.346 . S
C245 H252 0.929 . S
C246 O236 1.282 . S
C246 O247 1.216 . S
O247 C246 1.216 . S
H248 C243 0.930 . S
H249 C244 0.930 . S
O250 Cu230 1.959 . S
O250 C237 1.251 . S
H251 C234 0.930 . S
H252 C245 0.929 . S
Cu253 N254 1.999 . S
Cu253 O259 1.974 . S
Cu253 N264 1.985 . S
Cu253 O273 1.959 . S
N254 Cu253 1.999 . S
N254 C256 1.263 . S
N254 C258 1.389 . S
N255 C256 1.358 . S
N255 C257 1.400 . S
C256 N254 1.263 . S
C256 N255 1.358 . S
C256 H262 0.930 . S
C257 N255 1.400 . S
C257 C258 1.351 . S
C257 H274 0.930 . S
C258 N254 1.389 . S
C258 C257 1.351 . S
C258 H263 0.930 . S
O259 Cu253 1.974 . S
O259 C269 1.282 . S
C260 O261 1.261 . S
C260 O273 1.251 . S
O261 C260 1.261 . S
H262 C256 0.930 . S
H263 C258 0.930 . S
N264 Cu253 1.985 . S
N264 C266 1.335 . S
N264 C267 1.390 . S
N265 C266 1.345 . S
N265 C268 1.336 . S
C266 N264 1.335 . S
C266 N265 1.345 . S
C266 H271 0.930 . S
C267 N264 1.390 . S
C267 C268 1.346 . S
C267 H272 0.930 . S
C268 N265 1.336 . S
C268 C267 1.346 . S
C268 H275 0.929 . S
C269 O259 1.282 . S
C269 O270 1.216 . S
O270 C269 1.216 . S
H271 C266 0.930 . S
H272 C267 0.930 . S
O273 Cu253 1.959 . S
O273 C260 1.251 . S
H274 C257 0.930 . S
H275 C268 0.929 . S
Cu276 N277 1.999 . S
Cu276 O282 1.974 . S
Cu276 N287 1.985 . S
Cu276 O296 1.959 . S
N277 Cu276 1.999 . S
N277 C279 1.263 . S
N277 C281 1.389 . S
N278 C279 1.358 . S
N278 C280 1.400 . S
C279 N277 1.263 . S
C279 N278 1.358 . S
C279 H285 0.930 . S
C280 N278 1.400 . S
C280 C281 1.351 . S
C280 H297 0.930 . S
C281 N277 1.389 . S
C281 C280 1.351 . S
C281 H286 0.930 . S
O282 Cu276 1.974 . S
O282 C292 1.282 . S
C283 O284 1.261 . S
C283 O296 1.251 . S
O284 C283 1.261 . S
H285 C279 0.930 . S
H286 C281 0.930 . S
N287 Cu276 1.985 . S
N287 C289 1.335 . S
N287 C290 1.390 . S
N288 C289 1.345 . S
N288 C291 1.336 . S
C289 N287 1.335 . S
C289 N288 1.345 . S
C289 H294 0.930 . S
C290 N287 1.390 . S
C290 C291 1.346 . S
C290 H295 0.930 . S
C291 N288 1.336 . S
C291 C290 1.346 . S
C291 H298 0.929 . S
C292 O282 1.282 . S
C292 O293 1.216 . S
O293 C292 1.216 . S
H294 C289 0.930 . S
H295 C290 0.930 . S
O296 Cu276 1.959 . S
O296 C283 1.251 . S
H297 C280 0.930 . S
H298 C291 0.929 . S
Cu299 N300 1.999 . S
Cu299 O305 1.974 . S
Cu299 N310 1.985 . S
Cu299 O319 1.959 . S
N300 Cu299 1.999 . S
N300 C302 1.263 . S
N300 C304 1.389 . S
N301 C302 1.358 . S
N301 C303 1.400 . S
C302 N300 1.263 . S
C302 N301 1.358 . S
C302 H308 0.930 . S
C303 N301 1.400 . S
C303 C304 1.351 . S
C303 H320 0.930 . S
C304 N300 1.389 . S
C304 C303 1.351 . S
C304 H309 0.930 . S
O305 Cu299 1.974 . S
O305 C315 1.282 . S
C306 O307 1.261 . S
C306 O319 1.251 . S
O307 C306 1.261 . S
H308 C302 0.930 . S
H309 C304 0.930 . S
N310 Cu299 1.985 . S
N310 C312 1.335 . S
N310 C313 1.390 . S
N311 C312 1.345 . S
N311 C314 1.336 . S
C312 N310 1.335 . S
C312 N311 1.345 . S
C312 H317 0.930 . S
C313 N310 1.390 . S
C313 C314 1.346 . S
C313 H318 0.930 . S
C314 N311 1.336 . S
C314 C313 1.346 . S
C314 H321 0.929 . S
C315 O305 1.282 . S
C315 O316 1.216 . S
O316 C315 1.216 . S
H317 C312 0.930 . S
H318 C313 0.930 . S
O319 Cu299 1.959 . S
O319 C306 1.251 . S
H320 C303 0.930 . S
H321 C314 0.929 . S
Cu322 N323 1.999 . S
Cu322 O328 1.974 . S
Cu322 N333 1.985 . S
Cu322 O342 1.959 . S
N323 Cu322 1.999 . S
N323 C325 1.263 . S
N323 C327 1.389 . S
N324 C325 1.358 . S
N324 C326 1.400 . S
C325 N323 1.263 . S
C325 N324 1.358 . S
C325 H331 0.930 . S
C326 N324 1.400 . S
C326 C327 1.351 . S
C326 H343 0.930 . S
C327 N323 1.389 . S
C327 C326 1.351 . S
C327 H332 0.930 . S
O328 Cu322 1.974 . S
O328 C338 1.282 . S
C329 O330 1.261 . S
C329 O342 1.251 . S
O330 C329 1.261 . S
H331 C325 0.930 . S
H332 C327 0.930 . S
N333 Cu322 1.985 . S
N333 C335 1.335 . S
N333 C336 1.390 . S
N334 C335 1.345 . S
N334 C337 1.336 . S
C335 N333 1.335 . S
C335 N334 1.345 . S
C335 H340 0.930 . S
C336 N333 1.390 . S
C336 C337 1.346 . S
C336 H341 0.930 . S
C337 N334 1.336 . S
C337 C336 1.346 . S
C337 H344 0.929 . S
C338 O328 1.282 . S
C338 O339 1.216 . S
O339 C338 1.216 . S
H340 C335 0.930 . S
H341 C336 0.930 . S
O342 Cu322 1.959 . S
O342 C329 1.251 . S
H343 C326 0.930 . S
H344 C337 0.929 . S
Cu345 N346 1.999 . S
Cu345 O351 1.974 . S
Cu345 N356 1.985 . S
Cu345 O365 1.959 . S
N346 Cu345 1.999 . S
N346 C348 1.263 . S
N346 C350 1.389 . S
N347 C348 1.358 . S
N347 C349 1.400 . S
C348 N346 1.263 . S
C348 N347 1.358 . S
C348 H354 0.930 . S
C349 N347 1.400 . S
C349 C350 1.351 . S
C349 H366 0.930 . S
C350 N346 1.389 . S
C350 C349 1.351 . S
C350 H355 0.930 . S
O351 Cu345 1.974 . S
O351 C361 1.282 . S
C352 O353 1.261 . S
C352 O365 1.251 . S
O353 C352 1.261 . S
H354 C348 0.930 . S
H355 C350 0.930 . S
N356 Cu345 1.985 . S
N356 C358 1.335 . S
N356 C359 1.390 . S
N357 C358 1.345 . S
N357 C360 1.336 . S
C358 N356 1.335 . S
C358 N357 1.345 . S
C358 H363 0.930 . S
C359 N356 1.390 . S
C359 C360 1.346 . S
C359 H364 0.930 . S
C360 N357 1.336 . S
C360 C359 1.346 . S
C360 H367 0.929 . S
C361 O351 1.282 . S
C361 O362 1.216 . S
O362 C361 1.216 . S
H363 C358 0.930 . S
H364 C359 0.930 . S
O365 Cu345 1.959 . S
O365 C352 1.251 . S
H366 C349 0.930 . S
H367 C360 0.929 . S
H368 C380 0.930 . S
H369 C382 0.930 . S
H370 C383 0.930 . S
H371 C387 0.959 1_545 S
H372 C387 0.959 1_545 S
H373 C387 0.961 . S
H374 C388 0.960 . S
H375 C388 0.961 1_545 S
H376 C388 0.959 . S
H377 C391 0.929 . S
H378 C392 0.931 . S
H379 C394 0.930 . S
C380 H368 0.930 . S
C380 C381 1.399 . S
C380 C385 1.399 . S
C381 C380 1.399 . S
C381 C382 1.376 . S
C382 H369 0.930 . S
C382 C381 1.376 . S
C382 C383 1.388 . S
C383 H370 0.930 . S
C383 C382 1.388 . S
C383 C384 1.390 . S
C384 C383 1.390 . S
C384 C385 1.394 . S
C384 C390 1.465 1_565 S
C385 C380 1.399 . S
C385 C384 1.394 . S
C385 C386 1.516 . S
C386 C385 1.516 . S
C386 C387 1.502 . S
C386 C388 1.561 . S
C386 C389 1.526 1_565 S
C387 H371 0.959 1_565 S
C387 H372 0.959 1_565 S
C387 H373 0.961 . S
C387 C386 1.502 . S
C388 H374 0.960 . S
C388 H375 0.961 1_565 S
C388 H376 0.959 . S
C388 C386 1.561 . S
C389 C386 1.526 1_545 S
C389 C390 1.396 . S
C389 C394 1.390 . S
C390 C384 1.465 1_545 S
C390 C389 1.396 . S
C390 C391 1.399 . S
C391 H377 0.929 . S
C391 C390 1.399 . S
C391 C392 1.385 . S
C392 H378 0.931 . S
C392 C391 1.385 . S
C392 C393 1.389 . S
C393 C392 1.389 . S
C393 C394 1.387 . S
C394 H379 0.930 . S
C394 C389 1.390 . S
C394 C393 1.387 . S
H395 C407 0.930 . S
H396 C409 0.930 . S
H397 C410 0.930 . S
H398 C414 0.959 . S
H399 C414 0.959 1_655 S
H400 C414 0.961 . S
H401 C415 0.960 1_455 S
H402 C415 0.961 . S
H403 C415 0.959 . S
H404 C418 0.929 . S
H405 C419 0.931 . S
H406 C421 0.930 . S
C407 H395 0.930 . S
C407 C408 1.399 . S
C407 C412 1.399 . S
C408 C407 1.399 . S
C408 C409 1.376 . S
C409 H396 0.930 . S
C409 C408 1.376 . S
C409 C410 1.388 . S
C410 H397 0.930 . S
C410 C409 1.388 . S
C410 C411 1.390 . S
C411 C410 1.390 . S
C411 C412 1.394 . S
C411 C417 1.465 1_455 S
C412 C407 1.399 . S
C412 C411 1.394 . S
C412 C413 1.554 . S
C413 C412 1.554 . S
C413 C414 1.504 . S
C413 C415 1.551 1_455 S
C413 C416 1.496 1_455 S
C414 H398 0.959 . S
C414 H399 0.959 1_455 S
C414 H400 0.961 . S
C414 C413 1.504 . S
C415 H401 0.960 1_655 S
C415 H402 0.961 . S
C415 H403 0.959 . S
C415 C413 1.551 1_655 S
C416 C413 1.496 1_655 S
C416 C417 1.396 . S
C416 C421 1.390 . S
C417 C411 1.465 1_655 S
C417 C416 1.396 . S
C417 C418 1.399 . S
C418 H404 0.929 . S
C418 C417 1.399 . S
C418 C419 1.385 . S
C419 H405 0.931 . S
C419 C418 1.385 . S
C419 C420 1.389 . S
C420 C419 1.389 . S
C420 C421 1.387 . S
C421 H406 0.930 . S
C421 C416 1.390 . S
C421 C420 1.387 . S
H422 C434 0.930 . S
H423 C436 0.930 . S
H424 C437 0.930 . S
H425 C441 0.959 . S
H426 C441 0.959 . S
H427 C441 0.961 1_565 S
H428 C442 0.960 1_565 S
H429 C442 0.961 . S
H430 C442 0.959 . S
H431 C445 0.929 . S
H432 C446 0.931 . S
H433 C448 0.930 . S
C434 H422 0.930 . S
C434 C435 1.399 . S
C434 C439 1.399 . S
C435 C434 1.399 . S
C435 C436 1.376 . S
C436 H423 0.930 . S
C436 C435 1.376 . S
C436 C437 1.388 . S
C437 H424 0.930 . S
C437 C436 1.388 . S
C437 C438 1.390 . S
C438 C437 1.390 . S
C438 C439 1.394 . S
C438 C444 1.465 1_565 S
C439 C434 1.399 . S
C439 C438 1.394 . S
C439 C440 1.516 1_565 S
C440 C439 1.516 1_545 S
C440 C441 1.502 . S
C440 C442 1.561 . S
C440 C443 1.526 . S
C441 H425 0.959 . S
C441 H426 0.959 . S
C441 H427 0.961 1_545 S
C441 C440 1.502 . S
C442 H428 0.960 1_545 S
C442 H429 0.961 . S
C442 H430 0.959 . S
C442 C440 1.561 . S
C443 C440 1.526 . S
C443 C444 1.396 . S
C443 C448 1.390 . S
C444 C438 1.465 1_545 S
C444 C443 1.396 . S
C444 C445 1.399 . S
C445 H431 0.929 . S
C445 C444 1.399 . S
C445 C446 1.385 . S
C446 H432 0.931 . S
C446 C445 1.385 . S
C446 C447 1.389 . S
C447 C446 1.389 . S
C447 C448 1.387 . S
C448 H433 0.930 . S
C448 C443 1.390 . S
C448 C447 1.387 . S
H449 C461 0.930 . S
H450 C463 0.930 . S
H451 C464 0.930 . S
H452 C468 0.959 . S
H453 C468 0.959 . S
H454 C468 0.961 . S
H455 C469 0.960 1_455 S
H456 C469 0.961 . S
H457 C469 0.959 . S
H458 C472 0.929 . S
H459 C473 0.931 . S
H460 C475 0.930 . S
C461 H449 0.930 . S
C461 C462 1.399 . S
C461 C466 1.399 . S
C462 C461 1.399 . S
C462 C463 1.376 . S
C463 H450 0.930 . S
C463 C462 1.376 . S
C463 C464 1.388 . S
C464 H451 0.930 . S
C464 C463 1.388 . S
C464 C465 1.390 . S
C465 C464 1.390 . S
C465 C466 1.394 . S
C465 C471 1.465 1_455 S
C466 C461 1.399 . S
C466 C465 1.394 . S
C466 C467 1.516 1_455 S
C467 C466 1.516 1_655 S
C467 C468 1.502 . S
C467 C469 1.561 . S
C467 C470 1.526 . S
C468 H452 0.959 . S
C468 H453 0.959 . S
C468 H454 0.961 . S
C468 C467 1.502 . S
C469 H455 0.960 1_655 S
C469 H456 0.961 . S
C469 H457 0.959 . S
C469 C467 1.561 . S
C470 C467 1.526 . S
C470 C471 1.396 . S
C470 C475 1.390 . S
C471 C465 1.465 1_655 S
C471 C470 1.396 . S
C471 C472 1.399 . S
C472 H458 0.929 . S
C472 C471 1.399 . S
C472 C473 1.385 . S
C473 H459 0.931 . S
C473 C472 1.385 . S
C473 C474 1.389 . S
C474 C473 1.389 . S
C474 C475 1.387 . S
C475 H460 0.930 . S
C475 C470 1.390 . S
C475 C474 1.387 . S
H476 C488 0.930 . S
H477 C490 0.930 1_556 S
H478 C491 0.930 . S
H479 C495 0.959 . S
H480 C495 0.959 . S
H481 C495 0.961 . S
H482 C496 0.960 . S
H483 C496 0.961 . S
H484 C496 0.959 . S
H485 C499 0.929 . S
H486 C500 0.931 . S
H487 C502 0.930 . S
C488 H476 0.930 . S
C488 C489 1.399 . S
C488 C493 1.399 . S
C489 C488 1.399 . S
C489 C490 1.376 . S
C490 H477 0.930 1_554 S
C490 C489 1.376 . S
C490 C491 1.388 1_554 S
C491 H478 0.930 . S
C491 C490 1.388 1_556 S
C491 C492 1.390 1_556 S
C492 C491 1.390 1_554 S
C492 C493 1.394 . S
C492 C498 1.465 1_554 S
C493 C488 1.399 . S
C493 C492 1.394 . S
C493 C494 1.516 . S
C494 C493 1.516 . S
C494 C495 1.502 . S
C494 C496 1.561 . S
C494 C497 1.526 . S
C495 H479 0.959 . S
C495 H480 0.959 . S
C495 H481 0.961 . S
C495 C494 1.502 . S
C496 H482 0.960 . S
C496 H483 0.961 . S
C496 H484 0.959 . S
C496 C494 1.561 . S
C497 C494 1.526 . S
C497 C498 1.396 1_554 S
C497 C502 1.390 . S
C498 C492 1.465 1_556 S
C498 C497 1.396 1_556 S
C498 C499 1.399 . S
C499 H485 0.929 . S
C499 C498 1.399 . S
C499 C500 1.385 . S
C500 H486 0.931 . S
C500 C499 1.385 . S
C500 C501 1.389 . S
C501 C500 1.389 . S
C501 C502 1.387 1_556 S
C502 H487 0.930 . S
C502 C497 1.390 . S
C502 C501 1.387 1_554 S
H503 C515 0.930 . S
H504 C517 0.930 . S
H505 C518 0.930 . S
H506 C522 0.959 . S
H507 C522 0.959 . S
H508 C522 0.961 . S
H509 C523 0.960 . S
H510 C523 0.961 . S
H511 C523 0.959 . S
H512 C526 0.929 . S
H513 C527 0.931 . S
H514 C529 0.930 . S
C515 H503 0.930 . S
C515 C516 1.399 . S
C515 C520 1.399 . S
C516 C515 1.399 . S
C516 C517 1.376 . S
C517 H504 0.930 . S
C517 C516 1.376 . S
C517 C518 1.388 . S
C518 H505 0.930 . S
C518 C517 1.388 . S
C518 C519 1.390 . S
C519 C518 1.390 . S
C519 C520 1.394 . S
C519 C525 1.465 . S
C520 C515 1.399 . S
C520 C519 1.394 . S
C520 C521 1.516 . S
C521 C520 1.516 . S
C521 C522 1.502 1_556 S
C521 C523 1.561 . S
C521 C524 1.526 . S
C522 H506 0.959 . S
C522 H507 0.959 . S
C522 H508 0.961 . S
C522 C521 1.502 1_554 S
C523 H509 0.960 . S
C523 H510 0.961 . S
C523 H511 0.959 . S
C523 C521 1.561 . S
C524 C521 1.526 . S
C524 C525 1.396 . S
C524 C529 1.390 1_556 S
C525 C519 1.465 . S
C525 C524 1.396 . S
C525 C526 1.399 . S
C526 H512 0.929 . S
C526 C525 1.399 . S
C526 C527 1.385 . S
C527 H513 0.931 . S
C527 C526 1.385 . S
C527 C528 1.389 1_556 S
C528 C527 1.389 1_554 S
C528 C529 1.387 . S
C529 H514 0.930 . S
C529 C524 1.390 1_554 S
C529 C528 1.387 . S
H530 C542 0.930 . S
H531 C544 0.930 . S
H532 C545 0.930 . S
H533 C549 0.959 . S
H534 C549 0.959 . S
H535 C549 0.961 . S
H536 C550 0.960 . S
H537 C550 0.961 . S
H538 C550 0.959 . S
H539 C553 0.929 . S
H540 C554 0.931 . S
H541 C556 0.930 1_556 S
C542 H530 0.930 . S
C542 C543 1.399 . S
C542 C547 1.399 . S
C543 C542 1.399 . S
C543 C544 1.376 1_556 S
C544 H531 0.930 . S
C544 C543 1.376 1_554 S
C544 C545 1.388 . S
C545 H532 0.930 . S
C545 C544 1.388 . S
C545 C546 1.390 . S
C546 C545 1.390 . S
C546 C547 1.394 1_554 S
C546 C552 1.465 . S
C547 C542 1.399 . S
C547 C546 1.394 1_556 S
C547 C548 1.516 . S
C548 C547 1.516 . S
C548 C549 1.502 . S
C548 C550 1.561 . S
C548 C551 1.526 1_556 S
C549 H533 0.959 . S
C549 H534 0.959 . S
C549 H535 0.961 . S
C549 C548 1.502 . S
C550 H536 0.960 . S
C550 H537 0.961 . S
C550 H538 0.959 . S
C550 C548 1.561 . S
C551 C548 1.526 1_554 S
C551 C552 1.396 . S
C551 C556 1.390 . S
C552 C546 1.465 . S
C552 C551 1.396 . S
C552 C553 1.399 . S
C553 H539 0.929 . S
C553 C552 1.399 . S
C553 C554 1.385 . S
C554 H540 0.931 . S
C554 C553 1.385 . S
C554 C555 1.389 . S
C555 C554 1.389 . S
C555 C556 1.387 . S
C556 H541 0.930 1_554 S
C556 C551 1.390 . S
C556 C555 1.387 . S
H557 C569 0.930 . S
H558 C571 0.930 . S
H559 C572 0.930 . S
H560 C576 0.959 . S
H561 C576 0.959 . S
H562 C576 0.961 . S
H563 C577 0.960 . S
H564 C577 0.961 . S
H565 C577 0.959 . S
H566 C580 0.929 . S
H567 C581 0.931 . S
H568 C583 0.930 . S
C569 H557 0.930 . S
C569 C570 1.399 . S
C569 C574 1.399 1_554 S
C570 C569 1.399 . S
C570 C571 1.376 1_554 S
C571 H558 0.930 . S
C571 C570 1.376 1_556 S
C571 C572 1.388 . S
C572 H559 0.930 . S
C572 C571 1.388 . S
C572 C573 1.390 . S
C573 C572 1.390 . S
C573 C574 1.394 . S
C573 C579 1.465 . S
C574 C569 1.399 1_556 S
C574 C573 1.394 . S
C574 C575 1.517 . S
C575 C574 1.517 . S
C575 C576 1.494 1_556 S
C575 C577 1.567 . S
C575 C578 1.529 . S
C576 H560 0.959 . S
C576 H561 0.959 . S
C576 H562 0.961 . S
C576 C575 1.494 1_554 S
C577 H563 0.960 . S
C577 H564 0.961 . S
C577 H565 0.959 . S
C577 C575 1.567 . S
C578 C575 1.529 . S
C578 C579 1.396 . S
C578 C583 1.390 . S
C579 C573 1.465 . S
C579 C578 1.396 . S
C579 C580 1.399 . S
C580 H566 0.929 . S
C580 C579 1.399 . S
C580 C581 1.385 . S
C581 H567 0.931 . S
C581 C580 1.385 . S
C581 C582 1.389 . S
C582 C581 1.389 . S
C582 C583 1.387 . S
C583 H568 0.930 . S
C583 C578 1.390 . S
C583 C582 1.387 . S
H584 C596 0.930 . S
H585 C598 0.930 . S
H586 C599 0.930 . S
H587 C603 0.959 . S
H588 C603 0.959 . S
H589 C603 0.961 . S
H590 C604 0.960 . S
H591 C604 0.961 . S
H592 C604 0.959 . S
H593 C607 0.929 . S
H594 C608 0.931 . S
H595 C610 0.930 . S
C596 H584 0.930 . S
C596 C597 1.399 . S
C596 C601 1.399 . S
C597 C596 1.399 . S
C597 C598 1.376 . S
C598 H585 0.930 . S
C598 C597 1.376 . S
C598 C599 1.388 . S
C599 H586 0.930 . S
C599 C598 1.388 . S
C599 C600 1.390 . S
C600 C599 1.390 . S
C600 C601 1.394 . S
C600 C606 1.465 . S
C601 C596 1.399 . S
C601 C600 1.394 . S
C601 C602 1.516 . S
C602 C601 1.516 . S
C602 C603 1.502 . S
C602 C604 1.561 . S
C602 C605 1.526 . S
C603 H587 0.959 . S
C603 H588 0.959 . S
C603 H589 0.961 . S
C603 C602 1.502 . S
C604 H590 0.960 . S
C604 H591 0.961 . S
C604 H592 0.959 . S
C604 C602 1.561 . S
C605 C602 1.526 . S
C605 C606 1.396 . S
C605 C610 1.390 . S
C606 C600 1.465 . S
C606 C605 1.396 . S
C606 C607 1.399 . S
C607 H593 0.929 . S
C607 C606 1.399 . S
C607 C608 1.385 . S
C608 H594 0.931 . S
C608 C607 1.385 . S
C608 C609 1.389 . S
C609 C608 1.389 . S
C609 C610 1.387 . S
C610 H595 0.930 . S
C610 C605 1.390 . S
C610 C609 1.387 . S
H611 C623 0.930 . S
H612 C625 0.930 . S
H613 C626 0.930 . S
H614 C630 0.959 . S
H615 C630 0.959 . S
H616 C630 0.961 . S
H617 C631 0.960 . S
H618 C631 0.961 . S
H619 C631 0.959 . S
H620 C634 0.929 . S
H621 C635 0.931 . S
H622 C637 0.930 . S
C623 H611 0.930 . S
C623 C624 1.399 . S
C623 C628 1.399 . S
C624 C623 1.399 . S
C624 C625 1.376 . S
C625 H612 0.930 . S
C625 C624 1.376 . S
C625 C626 1.388 . S
C626 H613 0.930 . S
C626 C625 1.388 . S
C626 C627 1.390 . S
C627 C626 1.390 . S
C627 C628 1.394 . S
C627 C633 1.465 . S
C628 C623 1.399 . S
C628 C627 1.394 . S
C628 C629 1.516 . S
C629 C628 1.516 . S
C629 C630 1.502 . S
C629 C631 1.561 . S
C629 C632 1.526 . S
C630 H614 0.959 . S
C630 H615 0.959 . S
C630 H616 0.961 . S
C630 C629 1.502 . S
C631 H617 0.960 . S
C631 H618 0.961 . S
C631 H619 0.959 . S
C631 C629 1.561 . S
C632 C629 1.526 . S
C632 C633 1.396 . S
C632 C637 1.390 . S
C633 C627 1.465 . S
C633 C632 1.396 . S
C633 C634 1.399 . S
C634 H620 0.929 . S
C634 C633 1.399 . S
C634 C635 1.385 . S
C635 H621 0.931 . S
C635 C634 1.385 . S
C635 C636 1.389 . S
C636 C635 1.389 . S
C636 C637 1.387 . S
C637 H622 0.930 . S
C637 C632 1.390 . S
C637 C636 1.387 . S
H638 C650 0.930 . S
H639 C652 0.930 . S
H640 C653 0.930 . S
H641 C657 0.959 . S
H642 C657 0.959 . S
H643 C657 0.961 . S
H644 C658 0.960 . S
H645 C658 0.961 . S
H646 C658 0.959 . S
H647 C661 0.929 . S
H648 C662 0.931 . S
H649 C664 0.930 . S
C650 H638 0.930 . S
C650 C651 1.399 . S
C650 C655 1.399 . S
C651 C650 1.399 . S
C651 C652 1.376 . S
C652 H639 0.930 . S
C652 C651 1.376 . S
C652 C653 1.388 . S
C653 H640 0.930 . S
C653 C652 1.388 . S
C653 C654 1.390 . S
C654 C653 1.390 . S
C654 C655 1.394 . S
C654 C660 1.465 . S
C655 C650 1.399 . S
C655 C654 1.394 . S
C655 C656 1.516 . S
C656 C655 1.516 . S
C656 C657 1.502 . S
C656 C658 1.561 . S
C656 C659 1.526 . S
C657 H641 0.959 . S
C657 H642 0.959 . S
C657 H643 0.961 . S
C657 C656 1.502 . S
C658 H644 0.960 . S
C658 H645 0.961 . S
C658 H646 0.959 . S
C658 C656 1.561 . S
C659 C656 1.526 . S
C659 C660 1.396 . S
C659 C664 1.390 . S
C660 C654 1.465 . S
C660 C659 1.396 . S
C660 C661 1.399 . S
C661 H647 0.929 . S
C661 C660 1.399 . S
C661 C662 1.385 . S
C662 H648 0.931 . S
C662 C661 1.385 . S
C662 C663 1.389 . S
C663 C662 1.389 . S
C663 C664 1.387 . S
C664 H649 0.930 . S
C664 C659 1.390 . S
C664 C663 1.387 . S
H665 C677 0.930 . S
H666 C679 0.930 . S
H667 C680 0.930 . S
H668 C684 0.959 . S
H669 C684 0.959 . S
H670 C684 0.961 . S
H671 C685 0.960 . S
H672 C685 0.961 . S
H673 C685 0.959 . S
H674 C688 0.929 . S
H675 C689 0.931 . S
H676 C691 0.930 . S
C677 H665 0.930 . S
C677 C678 1.399 . S
C677 C682 1.399 . S
C678 C677 1.399 . S
C678 C679 1.376 . S
C679 H666 0.930 . S
C679 C678 1.376 . S
C679 C680 1.388 . S
C680 H667 0.930 . S
C680 C679 1.388 . S
C680 C681 1.390 . S
C681 C680 1.390 . S
C681 C682 1.394 . S
C681 C687 1.465 . S
C682 C677 1.399 . S
C682 C681 1.394 . S
C682 C683 1.516 . S
C683 C682 1.516 . S
C683 C684 1.502 . S
C683 C685 1.561 . S
C683 C686 1.526 . S
C684 H668 0.959 . S
C684 H669 0.959 . S
C684 H670 0.961 . S
C684 C683 1.502 . S
C685 H671 0.960 . S
C685 H672 0.961 . S
C685 H673 0.959 . S
C685 C683 1.561 . S
C686 C683 1.526 . S
C686 C687 1.396 . S
C686 C691 1.390 . S
C687 C681 1.465 . S
C687 C686 1.396 . S
C687 C688 1.399 . S
C688 H674 0.929 . S
C688 C687 1.399 . S
C688 C689 1.385 . S
C689 H675 0.931 . S
C689 C688 1.385 . S
C689 C690 1.389 . S
C690 C689 1.389 . S
C690 C691 1.387 . S
C691 H676 0.930 . S
C691 C686 1.390 . S
C691 C690 1.387 . S
H692 C704 0.930 . S
H693 C706 0.930 . S
H694 C707 0.930 . S
H695 C711 0.959 . S
H696 C711 0.959 . S
H697 C711 0.961 . S
H698 C712 0.960 . S
H699 C712 0.961 . S
H700 C712 0.959 . S
H701 C715 0.929 . S
H702 C716 0.931 . S
H703 C718 0.930 . S
C704 H692 0.930 . S
C704 C705 1.399 . S
C704 C709 1.399 . S
C705 C704 1.399 . S
C705 C706 1.376 . S
C706 H693 0.930 . S
C706 C705 1.376 . S
C706 C707 1.388 . S
C707 H694 0.930 . S
C707 C706 1.388 . S
C707 C708 1.390 . S
C708 C707 1.390 . S
C708 C709 1.394 . S
C708 C714 1.465 1_565 S
C709 C704 1.399 . S
C709 C708 1.394 . S
C709 C710 1.516 . S
C710 C709 1.516 . S
C710 C711 1.502 . S
C710 C712 1.561 . S
C710 C713 1.526 1_565 S
C711 H695 0.959 . S
C711 H696 0.959 . S
C711 H697 0.961 . S
C711 C710 1.502 . S
C712 H698 0.960 . S
C712 H699 0.961 . S
C712 H700 0.959 . S
C712 C710 1.561 . S
C713 C710 1.526 1_545 S
C713 C714 1.396 . S
C713 C718 1.390 . S
C714 C708 1.465 1_545 S
C714 C713 1.396 . S
C714 C715 1.399 . S
C715 H701 0.929 . S
C715 C714 1.399 . S
C715 C716 1.385 . S
C716 H702 0.931 . S
C716 C715 1.385 . S
C716 C717 1.389 . S
C717 C716 1.389 . S
C717 C718 1.387 . S
C718 H703 0.930 . S
C718 C713 1.390 . S
C718 C717 1.387 . S
H719 C731 0.930 . S
H720 C733 0.930 . S
H721 C734 0.930 . S
H722 C738 0.959 . S
H723 C738 0.959 . S
H724 C738 0.961 1_655 S
H725 C739 0.960 . S
H726 C739 0.961 1_455 S
H727 C739 0.959 . S
H728 C742 0.929 . S
H729 C743 0.931 . S
H730 C745 0.930 . S
C731 H719 0.930 . S
C731 C732 1.399 . S
C731 C736 1.399 . S
C732 C731 1.399 . S
C732 C733 1.376 . S
C733 H720 0.930 . S
C733 C732 1.376 . S
C733 C734 1.388 . S
C734 H721 0.930 . S
C734 C733 1.388 . S
C734 C735 1.390 . S
C735 C734 1.390 . S
C735 C736 1.394 . S
C735 C741 1.465 1_655 S
C736 C731 1.399 . S
C736 C735 1.394 . S
C736 C737 1.516 . S
C737 C736 1.516 . S
C737 C738 1.502 1_655 S
C737 C739 1.561 . S
C737 C740 1.526 1_655 S
C738 H722 0.959 . S
C738 H723 0.959 . S
C738 H724 0.961 1_455 S
C738 C737 1.502 1_455 S
C739 H725 0.960 . S
C739 H726 0.961 1_655 S
C739 H727 0.959 . S
C739 C737 1.561 . S
C740 C737 1.526 1_455 S
C740 C741 1.396 . S
C740 C745 1.390 . S
C741 C735 1.465 1_455 S
C741 C740 1.396 . S
C741 C742 1.399 . S
C742 H728 0.929 . S
C742 C741 1.399 . S
C742 C743 1.385 . S
C743 H729 0.931 . S
C743 C742 1.385 . S
C743 C744 1.389 . S
C744 C743 1.389 . S
C744 C745 1.387 . S
C745 H730 0.930 . S
C745 C740 1.390 . S
C745 C744 1.387 . S
H746 C758 0.930 . S
H747 C760 0.930 . S
H748 C761 0.930 . S
H749 C765 0.959 . S
H750 C765 0.959 . S
H751 C765 0.961 1_565 S
H752 C766 0.960 . S
H753 C766 0.961 1_545 S
H754 C766 0.959 . S
H755 C769 0.929 . S
H756 C770 0.931 . S
H757 C772 0.930 . S
C758 H746 0.930 . S
C758 C759 1.399 . S
C758 C763 1.399 . S
C759 C758 1.399 . S
C759 C760 1.376 . S
C760 H747 0.930 . S
C760 C759 1.376 . S
C760 C761 1.388 . S
C761 H748 0.930 . S
C761 C760 1.388 . S
C761 C762 1.390 . S
C762 C761 1.390 . S
C762 C763 1.394 . S
C762 C768 1.465 1_565 S
C763 C758 1.399 . S
C763 C762 1.394 . S
C763 C764 1.499 1_565 S
C764 C763 1.499 1_545 S
C764 C765 1.504 . S
C764 C766 1.555 1_545 S
C764 C767 1.549 . S
C765 H749 0.959 . S
C765 H750 0.959 . S
C765 H751 0.961 1_545 S
C765 C764 1.504 . S
C766 H752 0.960 . S
C766 H753 0.961 1_565 S
C766 H754 0.959 . S
C766 C764 1.555 1_565 S
C767 C764 1.549 . S
C767 C768 1.396 . S
C767 C772 1.390 . S
C768 C762 1.465 1_545 S
C768 C767 1.396 . S
C768 C769 1.399 . S
C769 H755 0.929 . S
C769 C768 1.399 . S
C769 C770 1.385 . S
C770 H756 0.931 . S
C770 C769 1.385 . S
C770 C771 1.389 . S
C771 C770 1.389 . S
C771 C772 1.387 . S
C772 H757 0.930 . S
C772 C767 1.390 . S
C772 C771 1.387 . S
H773 C785 0.930 . S
H774 C787 0.930 . S
H775 C788 0.930 . S
H776 C792 0.959 . S
H777 C792 0.959 1_455 S
H778 C792 0.961 . S
H779 C793 0.960 1_655 S
H780 C793 0.961 . S
H781 C793 0.959 . S
H782 C796 0.929 . S
H783 C797 0.931 . S
H784 C799 0.930 . S
C785 H773 0.930 . S
C785 C786 1.399 . S
C785 C790 1.399 . S
C786 C785 1.399 . S
C786 C787 1.376 . S
C787 H774 0.930 . S
C787 C786 1.376 . S
C787 C788 1.388 . S
C788 H775 0.930 . S
C788 C787 1.388 . S
C788 C789 1.390 . S
C789 C788 1.390 . S
C789 C790 1.394 . S
C789 C795 1.465 1_655 S
C790 C785 1.399 . S
C790 C789 1.394 . S
C790 C791 1.516 1_655 S
C791 C790 1.516 1_455 S
C791 C792 1.502 1_455 S
C791 C793 1.561 . S
C791 C794 1.526 . S
C792 H776 0.959 . S
C792 H777 0.959 1_655 S
C792 H778 0.961 . S
C792 C791 1.502 1_655 S
C793 H779 0.960 1_455 S
C793 H780 0.961 . S
C793 H781 0.959 . S
C793 C791 1.561 . S
C794 C791 1.526 . S
C794 C795 1.396 . S
C794 C799 1.390 . S
C795 C789 1.465 1_455 S
C795 C794 1.396 . S
C795 C796 1.399 . S
C796 H782 0.929 . S
C796 C795 1.399 . S
C796 C797 1.385 . S
C797 H783 0.931 . S
C797 C796 1.385 . S
C797 C798 1.389 . S
C798 C797 1.389 . S
C798 C799 1.387 . S
C799 H784 0.930 . S
C799 C794 1.390 . S
C799 C798 1.387 . S
H800 C812 0.930 . S
H801 C814 0.930 . S
H802 C815 0.930 . S
H803 C819 0.959 . S
H804 C819 0.959 . S
H805 C819 0.961 . S
H806 C820 0.960 . S
H807 C820 0.961 . S
H808 C820 0.959 . S
H809 C823 0.929 . S
H810 C824 0.931 . S
H811 C826 0.930 . S
C812 H800 0.930 . S
C812 C813 1.399 . S
C812 C817 1.399 . S
C813 C812 1.399 . S
C813 C814 1.376 . S
C814 H801 0.930 . S
C814 C813 1.376 . S
C814 C815 1.388 . S
C815 H802 0.930 . S
C815 C814 1.388 . S
C815 C816 1.390 . S
C816 C815 1.390 . S
C816 C817 1.394 . S
C816 C822 1.465 . S
C817 C812 1.399 . S
C817 C816 1.394 . S
C817 C818 1.516 . S
C818 C817 1.516 . S
C818 C819 1.502 . S
C818 C820 1.561 . S
C818 C821 1.526 . S
C819 H803 0.959 . S
C819 H804 0.959 . S
C819 H805 0.961 . S
C819 C818 1.502 . S
C820 H806 0.960 . S
C820 H807 0.961 . S
C820 H808 0.959 . S
C820 C818 1.561 . S
C821 C818 1.526 . S
C821 C822 1.396 . S
C821 C826 1.390 . S
C822 C816 1.465 . S
C822 C821 1.396 . S
C822 C823 1.399 . S
C823 H809 0.929 . S
C823 C822 1.399 . S
C823 C824 1.385 . S
C824 H810 0.931 . S
C824 C823 1.385 . S
C824 C825 1.389 . S
C825 C824 1.389 . S
C825 C826 1.387 . S
C826 H811 0.930 . S
C826 C821 1.390 . S
C826 C825 1.387 . S
H827 C839 0.930 . S
H828 C841 0.930 . S
H829 C842 0.930 . S
H830 C846 0.959 . S
H831 C846 0.959 . S
H832 C846 0.961 . S
H833 C847 0.960 . S
H834 C847 0.961 . S
H835 C847 0.959 . S
H836 C850 0.929 . S
H837 C851 0.931 . S
H838 C853 0.930 . S
C839 H827 0.930 . S
C839 C840 1.399 . S
C839 C844 1.399 . S
C840 C839 1.399 . S
C840 C841 1.376 . S
C841 H828 0.930 . S
C841 C840 1.376 . S
C841 C842 1.388 . S
C842 H829 0.930 . S
C842 C841 1.388 . S
C842 C843 1.390 . S
C843 C842 1.390 . S
C843 C844 1.394 . S
C843 C849 1.465 . S
C844 C839 1.399 . S
C844 C843 1.394 . S
C844 C845 1.516 . S
C845 C844 1.516 . S
C845 C846 1.502 . S
C845 C847 1.561 . S
C845 C848 1.526 . S
C846 H830 0.959 . S
C846 H831 0.959 . S
C846 H832 0.961 . S
C846 C845 1.502 . S
C847 H833 0.960 . S
C847 H834 0.961 . S
C847 H835 0.959 . S
C847 C845 1.561 . S
C848 C845 1.526 . S
C848 C849 1.396 . S
C848 C853 1.390 . S
C849 C843 1.465 . S
C849 C848 1.396 . S
C849 C850 1.399 . S
C850 H836 0.929 . S
C850 C849 1.399 . S
C850 C851 1.385 . S
C851 H837 0.931 . S
C851 C850 1.385 . S
C851 C852 1.389 . S
C852 C851 1.389 . S
C852 C853 1.387 . S
C853 H838 0.930 . S
C853 C848 1.390 . S
C853 C852 1.387 . S
H854 C866 0.930 . S
H855 C868 0.930 . S
H856 C869 0.930 . S
H857 C873 0.959 . S
H858 C873 0.959 . S
H859 C873 0.961 . S
H860 C874 0.960 . S
H861 C874 0.961 . S
H862 C874 0.959 . S
H863 C877 0.929 . S
H864 C878 0.931 . S
H865 C880 0.930 . S
C866 H854 0.930 . S
C866 C867 1.399 . S
C866 C871 1.399 . S
C867 C866 1.399 . S
C867 C868 1.376 . S
C868 H855 0.930 . S
C868 C867 1.376 . S
C868 C869 1.388 . S
C869 H856 0.930 . S
C869 C868 1.388 . S
C869 C870 1.390 . S
C870 C869 1.390 . S
C870 C871 1.394 . S
C870 C876 1.465 . S
C871 C866 1.399 . S
C871 C870 1.394 . S
C871 C872 1.516 . S
C872 C871 1.516 . S
C872 C873 1.502 . S
C872 C874 1.561 . S
C872 C875 1.526 . S
C873 H857 0.959 . S
C873 H858 0.959 . S
C873 H859 0.961 . S
C873 C872 1.502 . S
C874 H860 0.960 . S
C874 H861 0.961 . S
C874 H862 0.959 . S
C874 C872 1.561 . S
C875 C872 1.526 . S
C875 C876 1.396 . S
C875 C880 1.390 . S
C876 C870 1.465 . S
C876 C875 1.396 . S
C876 C877 1.399 . S
C877 H863 0.929 . S
C877 C876 1.399 . S
C877 C878 1.385 . S
C878 H864 0.931 . S
C878 C877 1.385 . S
C878 C879 1.389 . S
C879 C878 1.389 . S
C879 C880 1.387 . S
C880 H865 0.930 . S
C880 C875 1.390 . S
C880 C879 1.387 . S
H881 C893 0.930 . S
H882 C895 0.930 . S
H883 C896 0.930 . S
H884 C900 0.959 . S
H885 C900 0.959 . S
H886 C900 0.961 . S
H887 C901 0.960 . S
H888 C901 0.961 . S
H889 C901 0.959 . S
H890 C904 0.929 . S
H891 C905 0.931 . S
H892 C907 0.930 . S
C893 H881 0.930 . S
C893 C894 1.399 . S
C893 C898 1.399 . S
C894 C893 1.399 . S
C894 C895 1.376 . S
C895 H882 0.930 . S
C895 C894 1.376 . S
C895 C896 1.388 . S
C896 H883 0.930 . S
C896 C895 1.388 . S
C896 C897 1.390 . S
C897 C896 1.390 . S
C897 C898 1.394 . S
C897 C903 1.465 . S
C898 C893 1.399 . S
C898 C897 1.394 . S
C898 C899 1.516 . S
C899 C898 1.516 . S
C899 C900 1.502 . S
C899 C901 1.561 . S
C899 C902 1.526 . S
C900 H884 0.959 . S
C900 H885 0.959 . S
C900 H886 0.961 . S
C900 C899 1.502 . S
C901 H887 0.960 . S
C901 H888 0.961 . S
C901 H889 0.959 . S
C901 C899 1.561 . S
C902 C899 1.526 . S
C902 C903 1.396 . S
C902 C907 1.390 . S
C903 C897 1.465 . S
C903 C902 1.396 . S
C903 C904 1.399 . S
C904 H890 0.929 . S
C904 C903 1.399 . S
C904 C905 1.385 . S
C905 H891 0.931 . S
C905 C904 1.385 . S
C905 C906 1.389 . S
C906 C905 1.389 . S
C906 C907 1.387 . S
C907 H892 0.930 . S
C907 C902 1.390 . S
C907 C906 1.387 . S
H908 C920 0.930 . S
H909 C922 0.930 . S
H910 C923 0.930 . S
H911 C927 0.959 . S
H912 C927 0.959 . S
H913 C927 0.961 . S
H914 C928 0.960 . S
H915 C928 0.961 . S
H916 C928 0.959 . S
H917 C931 0.929 . S
H918 C932 0.931 . S
H919 C934 0.930 . S
C920 H908 0.930 . S
C920 C921 1.399 . S
C920 C925 1.399 . S
C921 C920 1.399 . S
C921 C922 1.376 . S
C922 H909 0.930 . S
C922 C921 1.376 . S
C922 C923 1.388 . S
C923 H910 0.930 . S
C923 C922 1.388 . S
C923 C924 1.390 . S
C924 C923 1.390 . S
C924 C925 1.394 . S
C924 C930 1.465 . S
C925 C920 1.399 . S
C925 C924 1.394 . S
C925 C926 1.516 . S
C926 C925 1.516 . S
C926 C927 1.502 . S
C926 C928 1.561 . S
C926 C929 1.526 . S
C927 H911 0.959 . S
C927 H912 0.959 . S
C927 H913 0.961 . S
C927 C926 1.502 . S
C928 H914 0.960 . S
C928 H915 0.961 . S
C928 H916 0.959 . S
C928 C926 1.561 . S
C929 C926 1.526 . S
C929 C930 1.396 . S
C929 C934 1.390 . S
C930 C924 1.465 . S
C930 C929 1.396 . S
C930 C931 1.399 . S
C931 H917 0.929 . S
C931 C930 1.399 . S
C931 C932 1.385 . S
C932 H918 0.931 . S
C932 C931 1.385 . S
C932 C933 1.389 . S
C933 C932 1.389 . S
C933 C934 1.387 . S
C934 H919 0.930 . S
C934 C929 1.390 . S
C934 C933 1.387 . S
H935 C947 0.930 . S
H936 C949 0.930 . S
H937 C950 0.930 . S
H938 C954 0.959 . S
H939 C954 0.959 . S
H940 C954 0.961 . S
H941 C955 0.960 . S
H942 C955 0.961 . S
H943 C955 0.959 . S
H944 C958 0.929 . S
H945 C959 0.931 . S
H946 C961 0.930 . S
C947 H935 0.930 . S
C947 C948 1.399 . S
C947 C952 1.399 . S
C948 C947 1.399 . S
C948 C949 1.376 . S
C949 H936 0.930 . S
C949 C948 1.376 . S
C949 C950 1.388 . S
C950 H937 0.930 . S
C950 C949 1.388 . S
C950 C951 1.390 . S
C951 C950 1.390 . S
C951 C952 1.394 . S
C951 C957 1.465 . S
C952 C947 1.399 . S
C952 C951 1.394 . S
C952 C953 1.516 . S
C953 C952 1.516 . S
C953 C954 1.502 . S
C953 C955 1.561 . S
C953 C956 1.526 . S
C954 H938 0.959 . S
C954 H939 0.959 . S
C954 H940 0.961 . S
C954 C953 1.502 . S
C955 H941 0.960 . S
C955 H942 0.961 . S
C955 H943 0.959 . S
C955 C953 1.561 . S
C956 C953 1.526 . S
C956 C957 1.396 . S
C956 C961 1.390 . S
C957 C951 1.465 . S
C957 C956 1.396 . S
C957 C958 1.399 . S
C958 H944 0.929 . S
C958 C957 1.399 . S
C958 C959 1.385 . S
C959 H945 0.931 . S
C959 C958 1.385 . S
C959 C960 1.389 . S
C960 C959 1.389 . S
C960 C961 1.387 . S
C961 H946 0.930 . S
C961 C956 1.390 . S
C961 C960 1.387 . S
H962 C974 0.930 . S
H963 C976 0.930 . S
H964 C977 0.930 . S
H965 C981 0.959 . S
H966 C981 0.959 . S
H967 C981 0.961 . S
H968 C982 0.960 . S
H969 C982 0.961 . S
H970 C982 0.959 . S
H971 C985 0.929 . S
H972 C986 0.931 . S
H973 C988 0.930 . S
C974 H962 0.930 . S
C974 C975 1.399 . S
C974 C979 1.399 . S
C975 C974 1.399 . S
C975 C976 1.376 . S
C976 H963 0.930 . S
C976 C975 1.376 . S
C976 C977 1.388 . S
C977 H964 0.930 . S
C977 C976 1.388 . S
C977 C978 1.390 . S
C978 C977 1.390 . S
C978 C979 1.394 . S
C978 C984 1.465 . S
C979 C974 1.399 . S
C979 C978 1.394 . S
C979 C980 1.516 . S
C980 C979 1.516 . S
C980 C981 1.502 . S
C980 C982 1.561 . S
C980 C983 1.526 . S
C981 H965 0.959 . S
C981 H966 0.959 . S
C981 H967 0.961 . S
C981 C980 1.502 . S
C982 H968 0.960 . S
C982 H969 0.961 . S
C982 H970 0.959 . S
C982 C980 1.561 . S
C983 C980 1.526 . S
C983 C984 1.396 . S
C983 C988 1.390 . S
C984 C978 1.465 . S
C984 C983 1.396 . S
C984 C985 1.399 . S
C985 H971 0.929 . S
C985 C984 1.399 . S
C985 C986 1.385 . S
C986 H972 0.931 . S
C986 C985 1.385 . S
C986 C987 1.389 . S
C987 C986 1.389 . S
C987 C988 1.387 . S
C988 H973 0.930 . S
C988 C983 1.390 . S
C988 C987 1.387 . S
H989 C1001 0.930 . S
H990 C1003 0.930 . S
H991 C1004 0.930 . S
H992 C1008 0.959 . S
H993 C1008 0.959 . S
H994 C1008 0.961 . S
H995 C1009 0.960 . S
H996 C1009 0.961 . S
H997 C1009 0.959 . S
H998 C1012 0.929 . S
H999 C1013 0.931 . S
H1000 C1015 0.930 . S
C1001 H989 0.930 . S
C1001 C1002 1.399 . S
C1001 C1006 1.399 . S
C1002 C1001 1.399 . S
C1002 C1003 1.376 . S
C1003 H990 0.930 . S
C1003 C1002 1.376 . S
C1003 C1004 1.388 . S
C1004 H991 0.930 . S
C1004 C1003 1.388 . S
C1004 C1005 1.390 . S
C1005 C1004 1.390 . S
C1005 C1006 1.394 . S
C1005 C1011 1.465 . S
C1006 C1001 1.399 . S
C1006 C1005 1.394 . S
C1006 C1007 1.516 . S
C1007 C1006 1.516 . S
C1007 C1008 1.502 . S
C1007 C1009 1.561 . S
C1007 C1010 1.526 . S
C1008 H992 0.959 . S
C1008 H993 0.959 . S
C1008 H994 0.961 . S
C1008 C1007 1.502 . S
C1009 H995 0.960 . S
C1009 H996 0.961 . S
C1009 H997 0.959 . S
C1009 C1007 1.561 . S
C1010 C1007 1.526 . S
C1010 C1011 1.396 . S
C1010 C1015 1.390 . S
C1011 C1005 1.465 . S
C1011 C1010 1.396 . S
C1011 C1012 1.399 . S
C1012 H998 0.929 . S
C1012 C1011 1.399 . S
C1012 C1013 1.385 . S
C1013 H999 0.931 . S
C1013 C1012 1.385 . S
C1013 C1014 1.389 . S
C1014 C1013 1.389 . S
C1014 C1015 1.387 . S
C1015 H1000 0.930 . S
C1015 C1010 1.390 . S
C1015 C1014 1.387 . S
H1016 C1028 0.930 . S
H1017 C1030 0.930 . S
H1018 C1031 0.930 . S
H1019 C1035 0.959 . S
H1020 C1035 0.959 . S
H1021 C1035 0.961 . S
H1022 C1036 0.960 . S
H1023 C1036 0.961 . S
H1024 C1036 0.959 . S
H1025 C1039 0.929 . S
H1026 C1040 0.931 . S
H1027 C1042 0.930 . S
C1028 H1016 0.930 . S
C1028 C1029 1.399 . S
C1028 C1033 1.399 . S
C1029 C1028 1.399 . S
C1029 C1030 1.376 . S
C1030 H1017 0.930 . S
C1030 C1029 1.376 . S
C1030 C1031 1.388 . S
C1031 H1018 0.930 . S
C1031 C1030 1.388 . S
C1031 C1032 1.390 . S
C1032 C1031 1.390 . S
C1032 C1033 1.394 . S
C1032 C1038 1.465 . S
C1033 C1028 1.399 . S
C1033 C1032 1.394 . S
C1033 C1034 1.516 . S
C1034 C1033 1.516 . S
C1034 C1035 1.502 . S
C1034 C1036 1.561 . S
C1034 C1037 1.526 . S
C1035 H1019 0.959 . S
C1035 H1020 0.959 . S
C1035 H1021 0.961 . S
C1035 C1034 1.502 . S
C1036 H1022 0.960 . S
C1036 H1023 0.961 . S
C1036 H1024 0.959 . S
C1036 C1034 1.561 . S
C1037 C1034 1.526 . S
C1037 C1038 1.396 . S
C1037 C1042 1.390 . S
C1038 C1032 1.465 . S
C1038 C1037 1.396 . S
C1038 C1039 1.399 . S
C1039 H1025 0.929 . S
C1039 C1038 1.399 . S
C1039 C1040 1.385 . S
C1040 H1026 0.931 . S
C1040 C1039 1.385 . S
C1040 C1041 1.389 . S
C1041 C1040 1.389 . S
C1041 C1042 1.387 . S
C1042 H1027 0.930 . S
C1042 C1037 1.390 . S
C1042 C1041 1.387 . S
H1043 C1055 0.930 . S
H1044 C1057 0.930 . S
H1045 C1058 0.930 . S
H1046 C1062 0.959 . S
H1047 C1062 0.959 . S
H1048 C1062 0.961 . S
H1049 C1063 0.960 . S
H1050 C1063 0.961 . S
H1051 C1063 0.959 . S
H1052 C1066 0.929 . S
H1053 C1067 0.931 . S
H1054 C1069 0.930 . S
C1055 H1043 0.930 . S
C1055 C1056 1.399 . S
C1055 C1060 1.399 . S
C1056 C1055 1.399 . S
C1056 C1057 1.376 . S
C1057 H1044 0.930 . S
C1057 C1056 1.376 . S
C1057 C1058 1.388 . S
C1058 H1045 0.930 . S
C1058 C1057 1.388 . S
C1058 C1059 1.390 . S
C1059 C1058 1.390 . S
C1059 C1060 1.394 . S
C1059 C1065 1.465 . S
C1060 C1055 1.399 . S
C1060 C1059 1.394 . S
C1060 C1061 1.516 . S
C1061 C1060 1.516 . S
C1061 C1062 1.502 . S
C1061 C1063 1.561 . S
C1061 C1064 1.526 . S
C1062 H1046 0.959 . S
C1062 H1047 0.959 . S
C1062 H1048 0.961 . S
C1062 C1061 1.502 . S
C1063 H1049 0.960 . S
C1063 H1050 0.961 . S
C1063 H1051 0.959 . S
C1063 C1061 1.561 . S
C1064 C1061 1.526 . S
C1064 C1065 1.396 . S
C1064 C1069 1.390 . S
C1065 C1059 1.465 . S
C1065 C1064 1.396 . S
C1065 C1066 1.399 . S
C1066 H1052 0.929 . S
C1066 C1065 1.399 . S
C1066 C1067 1.385 1_554 S
C1067 H1053 0.931 . S
C1067 C1066 1.385 1_556 S
C1067 C1068 1.389 1_556 S
C1068 C1067 1.389 1_554 S
C1068 C1069 1.387 . S
C1069 H1054 0.930 . S
C1069 C1064 1.390 . S
C1069 C1068 1.387 . S
H1070 C1082 0.930 . S
H1071 C1084 0.930 1_554 S
H1072 C1085 0.930 . S
H1073 C1089 0.959 . S
H1074 C1089 0.959 . S
H1075 C1089 0.961 . S
H1076 C1090 0.960 . S
H1077 C1090 0.961 . S
H1078 C1090 0.959 . S
H1079 C1093 0.929 . S
H1080 C1094 0.931 . S
H1081 C1096 0.930 . S
C1082 H1070 0.930 . S
C1082 C1083 1.399 . S
C1082 C1087 1.399 . S
C1083 C1082 1.399 . S
C1083 C1084 1.376 . S
C1084 H1071 0.930 1_556 S
C1084 C1083 1.376 . S
C1084 C1085 1.388 . S
C1085 H1072 0.930 . S
C1085 C1084 1.388 . S
C1085 C1086 1.390 . S
C1086 C1085 1.390 . S
C1086 C1087 1.394 . S
C1086 C1092 1.465 . S
C1087 C1082 1.399 . S
C1087 C1086 1.394 . S
C1087 C1088 1.516 . S
C1088 C1087 1.516 . S
C1088 C1089 1.502 . S
C1088 C1090 1.561 . S
C1088 C1091 1.526 . S
C1089 H1073 0.959 . S
C1089 H1074 0.959 . S
C1089 H1075 0.961 . S
C1089 C1088 1.502 . S
C1090 H1076 0.960 . S
C1090 H1077 0.961 . S
C1090 H1078 0.959 . S
C1090 C1088 1.561 . S
C1091 C1088 1.526 . S
C1091 C1092 1.396 . S
C1091 C1096 1.390 . S
C1092 C1086 1.465 . S
C1092 C1091 1.396 . S
C1092 C1093 1.399 . S
C1093 H1079 0.929 . S
C1093 C1092 1.399 . S
C1093 C1094 1.385 . S
C1094 H1080 0.931 . S
C1094 C1093 1.385 . S
C1094 C1095 1.389 . S
C1095 C1094 1.389 . S
C1095 C1096 1.387 . S
C1096 H1081 0.930 . S
C1096 C1091 1.390 . S
C1096 C1095 1.387 . S
H1097 C1109 0.930 . S
H1098 C1111 0.930 . S
H1099 C1112 0.930 . S
H1100 C1116 0.959 . S
H1101 C1116 0.959 . S
H1102 C1116 0.961 . S
H1103 C1117 0.960 . S
H1104 C1117 0.961 . S
H1105 C1117 0.959 . S
H1106 C1120 0.929 . S
H1107 C1121 0.931 . S
H1108 C1123 0.930 1_556 S
C1109 H1097 0.930 . S
C1109 C1110 1.399 . S
C1109 C1114 1.399 . S
C1110 C1109 1.399 . S
C1110 C1111 1.376 . S
C1111 H1098 0.930 . S
C1111 C1110 1.376 . S
C1111 C1112 1.388 . S
C1112 H1099 0.930 . S
C1112 C1111 1.388 . S
C1112 C1113 1.390 . S
C1113 C1112 1.390 . S
C1113 C1114 1.394 . S
C1113 C1119 1.465 . S
C1114 C1109 1.399 . S
C1114 C1113 1.394 . S
C1114 C1115 1.516 . S
C1115 C1114 1.516 . S
C1115 C1116 1.502 . S
C1115 C1117 1.561 . S
C1115 C1118 1.526 . S
C1116 H1100 0.959 . S
C1116 H1101 0.959 . S
C1116 H1102 0.961 . S
C1116 C1115 1.502 . S
C1117 H1103 0.960 . S
C1117 H1104 0.961 . S
C1117 H1105 0.959 . S
C1117 C1115 1.561 . S
C1118 C1115 1.526 . S
C1118 C1119 1.396 . S
C1118 C1123 1.390 . S
C1119 C1113 1.465 . S
C1119 C1118 1.396 . S
C1119 C1120 1.399 . S
C1120 H1106 0.929 . S
C1120 C1119 1.399 . S
C1120 C1121 1.385 . S
C1121 H1107 0.931 . S
C1121 C1120 1.385 . S
C1121 C1122 1.389 . S
C1122 C1121 1.389 . S
C1122 C1123 1.387 . S
C1123 H1108 0.930 1_554 S
C1123 C1118 1.390 . S
C1123 C1122 1.387 . S
H1124 C1136 0.930 . S
H1125 C1138 0.930 . S
H1126 C1139 0.930 . S
H1127 C1143 0.959 . S
H1128 C1143 0.959 . S
H1129 C1143 0.961 . S
H1130 C1144 0.960 . S
H1131 C1144 0.961 . S
H1132 C1144 0.959 . S
H1133 C1147 0.929 . S
H1134 C1148 0.931 . S
H1135 C1150 0.930 . S
C1136 H1124 0.930 . S
C1136 C1137 1.399 . S
C1136 C1141 1.399 . S
C1137 C1136 1.399 . S
C1137 C1138 1.376 . S
C1138 H1125 0.930 . S
C1138 C1137 1.376 . S
C1138 C1139 1.388 . S
C1139 H1126 0.930 . S
C1139 C1138 1.388 . S
C1139 C1140 1.390 . S
C1140 C1139 1.390 . S
C1140 C1141 1.394 . S
C1140 C1146 1.465 . S
C1141 C1136 1.399 . S
C1141 C1140 1.394 . S
C1141 C1142 1.516 . S
C1142 C1141 1.516 . S
C1142 C1143 1.502 . S
C1142 C1144 1.561 . S
C1142 C1145 1.526 . S
C1143 H1127 0.959 . S
C1143 H1128 0.959 . S
C1143 H1129 0.961 . S
C1143 C1142 1.502 . S
C1144 H1130 0.960 . S
C1144 H1131 0.961 . S
C1144 H1132 0.959 . S
C1144 C1142 1.561 . S
C1145 C1142 1.526 . S
C1145 C1146 1.396 . S
C1145 C1150 1.390 . S
C1146 C1140 1.465 . S
C1146 C1145 1.396 . S
C1146 C1147 1.399 . S
C1147 H1133 0.929 . S
C1147 C1146 1.399 . S
C1147 C1148 1.385 . S
C1148 H1134 0.931 . S
C1148 C1147 1.385 . S
C1148 C1149 1.389 . S
C1149 C1148 1.389 . S
C1149 C1150 1.387 . S
C1150 H1135 0.930 . S
C1150 C1145 1.390 . S
C1150 C1149 1.387 . S
H1151 C1163 0.930 . S
H1152 C1165 0.930 . S
H1153 C1166 0.930 . S
H1154 C1170 0.959 . S
H1155 C1170 0.959 . S
H1156 C1170 0.961 . S
H1157 C1171 0.960 . S
H1158 C1171 0.961 . S
H1159 C1171 0.959 . S
H1160 C1174 0.929 . S
H1161 C1175 0.931 . S
H1162 C1177 0.930 . S
C1163 H1151 0.930 . S
C1163 C1164 1.399 . S
C1163 C1168 1.399 . S
C1164 C1163 1.399 . S
C1164 C1165 1.376 . S
C1165 H1152 0.930 . S
C1165 C1164 1.376 . S
C1165 C1166 1.388 . S
C1166 H1153 0.930 . S
C1166 C1165 1.388 . S
C1166 C1167 1.390 . S
C1167 C1166 1.390 . S
C1167 C1168 1.394 . S
C1167 C1173 1.465 . S
C1168 C1163 1.399 . S
C1168 C1167 1.394 . S
C1168 C1169 1.516 . S
C1169 C1168 1.516 . S
C1169 C1170 1.502 . S
C1169 C1171 1.561 . S
C1169 C1172 1.526 . S
C1170 H1154 0.959 . S
C1170 H1155 0.959 . S
C1170 H1156 0.961 . S
C1170 C1169 1.502 . S
C1171 H1157 0.960 . S
C1171 H1158 0.961 . S
C1171 H1159 0.959 . S
C1171 C1169 1.561 . S
C1172 C1169 1.526 . S
C1172 C1173 1.396 . S
C1172 C1177 1.390 . S
C1173 C1167 1.465 . S
C1173 C1172 1.396 . S
C1173 C1174 1.399 . S
C1174 H1160 0.929 . S
C1174 C1173 1.399 . S
C1174 C1175 1.385 . S
C1175 H1161 0.931 . S
C1175 C1174 1.385 . S
C1175 C1176 1.389 . S
C1176 C1175 1.389 . S
C1176 C1177 1.387 . S
C1177 H1162 0.930 . S
C1177 C1172 1.390 . S
C1177 C1176 1.387 . S
H1178 C1190 0.930 . S
H1179 C1192 0.930 . S
H1180 C1193 0.930 . S
H1181 C1197 0.959 . S
H1182 C1197 0.959 . S
H1183 C1197 0.961 . S
H1184 C1198 0.960 . S
H1185 C1198 0.961 . S
H1186 C1198 0.959 . S
H1187 C1201 0.929 . S
H1188 C1202 0.931 . S
H1189 C1204 0.930 . S
C1190 H1178 0.930 . S
C1190 C1191 1.399 . S
C1190 C1195 1.399 . S
C1191 C1190 1.399 . S
C1191 C1192 1.376 . S
C1192 H1179 0.930 . S
C1192 C1191 1.376 . S
C1192 C1193 1.388 . S
C1193 H1180 0.930 . S
C1193 C1192 1.388 . S
C1193 C1194 1.390 . S
C1194 C1193 1.390 . S
C1194 C1195 1.394 . S
C1194 C1200 1.465 . S
C1195 C1190 1.399 . S
C1195 C1194 1.394 . S
C1195 C1196 1.516 . S
C1196 C1195 1.516 . S
C1196 C1197 1.502 . S
C1196 C1198 1.561 . S
C1196 C1199 1.526 . S
C1197 H1181 0.959 . S
C1197 H1182 0.959 . S
C1197 H1183 0.961 . S
C1197 C1196 1.502 . S
C1198 H1184 0.960 . S
C1198 H1185 0.961 . S
C1198 H1186 0.959 . S
C1198 C1196 1.561 . S
C1199 C1196 1.526 . S
C1199 C1200 1.396 . S
C1199 C1204 1.390 . S
C1200 C1194 1.465 . S
C1200 C1199 1.396 . S
C1200 C1201 1.399 . S
C1201 H1187 0.929 . S
C1201 C1200 1.399 . S
C1201 C1202 1.385 . S
C1202 H1188 0.931 . S
C1202 C1201 1.385 . S
C1202 C1203 1.389 . S
C1203 C1202 1.389 . S
C1203 C1204 1.387 . S
C1204 H1189 0.930 . S
C1204 C1199 1.390 . S
C1204 C1203 1.387 . S
H1205 C1217 0.930 . S
H1206 C1219 0.930 . S
H1207 C1220 0.930 . S
H1208 C1224 0.959 . S
H1209 C1224 0.959 . S
H1210 C1224 0.961 . S
H1211 C1225 0.960 . S
H1212 C1225 0.961 . S
H1213 C1225 0.959 . S
H1214 C1228 0.929 . S
H1215 C1229 0.931 . S
H1216 C1231 0.930 . S
C1217 H1205 0.930 . S
C1217 C1218 1.399 . S
C1217 C1222 1.399 . S
C1218 C1217 1.399 . S
C1218 C1219 1.376 . S
C1219 H1206 0.930 . S
C1219 C1218 1.376 . S
C1219 C1220 1.388 . S
C1220 H1207 0.930 . S
C1220 C1219 1.388 . S
C1220 C1221 1.390 . S
C1221 C1220 1.390 . S
C1221 C1222 1.394 . S
C1221 C1227 1.465 . S
C1222 C1217 1.399 . S
C1222 C1221 1.394 . S
C1222 C1223 1.516 . S
C1223 C1222 1.516 . S
C1223 C1224 1.502 . S
C1223 C1225 1.561 . S
C1223 C1226 1.526 . S
C1224 H1208 0.959 . S
C1224 H1209 0.959 . S
C1224 H1210 0.961 . S
C1224 C1223 1.502 . S
C1225 H1211 0.960 . S
C1225 H1212 0.961 . S
C1225 H1213 0.959 . S
C1225 C1223 1.561 . S
C1226 C1223 1.526 . S
C1226 C1227 1.396 . S
C1226 C1231 1.390 . S
C1227 C1221 1.465 . S
C1227 C1226 1.396 . S
C1227 C1228 1.399 . S
C1228 H1214 0.929 . S
C1228 C1227 1.399 . S
C1228 C1229 1.385 . S
C1229 H1215 0.931 . S
C1229 C1228 1.385 . S
C1229 C1230 1.389 . S
C1230 C1229 1.389 . S
C1230 C1231 1.387 . S
C1231 H1216 0.930 . S
C1231 C1226 1.390 . S
C1231 C1230 1.387 . S
C381 N255 1.439 . S
C393 C16 1.592 . S
C408 C39 1.587 . S
C420 N186 1.442 . S
C435 C62 1.607 . S
C447 N209 1.465 . S
C462 N232 1.534 . S
C474 C85 1.613 . S
C489 C108 1.611 . S
C501 N117 1.480 . S
C516 C131 1.596 . S
C528 N140 1.480 . S
C543 N163 1.539 . S
C555 C154 1.616 . S
C570 N94 1.542 . S
C582 C177 1.618 . S
C597 N71 1.542 . S
C609 C200 1.614 . S
C624 C223 1.597 . S
C636 N2 1.486 . S
C651 N25 1.441 . S
C663 C246 1.589 . S
C678 C269 1.610 . S
C690 N48 1.507 . S
C705 C292 1.599 . S
C717 N301 1.521 . S
C732 C315 1.608 . S
C744 N324 1.499 . S
C759 N347 1.446 . S
C771 C338 1.588 . S
C786 N278 1.439 . S
C798 C361 1.588 . S
C813 C99 1.332 . S
C825 C7 1.329 . S
C840 C30 1.346 . S
C852 C122 1.329 . S
C867 C53 1.368 . S
C879 C145 1.335 . S
C894 C168 1.323 . S
C906 C76 1.356 . S
C921 C191 1.352 . S
C933 C283 1.323 . S
C948 C306 1.366 . S
C960 C214 1.324 . S
C975 C237 1.355 . S
C987 C329 1.324 . S
C1002 C352 1.348 . S
C1014 C260 1.328 . S
C1029 N334 1.853 . S
C1041 N12 1.850 1_556 S
C1056 N357 1.821 . S
C1068 N35 1.843 1_554 S
C1083 N58 1.852 1_556 S
C1095 N288 1.849 . S
C1110 N311 1.853 . S
C1122 N81 1.839 1_554 S
C1137 N242 1.800 . S
C1149 N104 1.803 . S
C1164 N265 1.803 . S
C1176 N127 1.822 . S
C1191 N150 1.851 . S
C1203 N196 1.848 . S
C1218 N219 1.799 . S
C1230 N173 1.807 . S
