# Generated by pormake.
# Topology usf, (4)-cn, num edge types: 1
# Building blocks:
#     Node 0, Type 0, BuildingBlock: MUDLON_clean_sbu_0, # of connection points: 4
#     Node 1, Type 0, BuildingBlock: MUDLON_clean_sbu_0, # of connection points: 4
#     Node 2, Type 0, BuildingBlock: MUDLON_clean_sbu_0, # of connection points: 4
#     Node 3, Type 0, BuildingBlock: MUDLON_clean_sbu_0, # of connection points: 4
#     Node 4, Type 0, BuildingBlock: MUDLON_clean_sbu_0, # of connection points: 4
#     Node 5, Type 0, BuildingBlock: MUDLON_clean_sbu_0, # of connection points: 4
#     Node 6, Type 0, BuildingBlock: MUDLON_clean_sbu_0, # of connection points: 4
#     Node 7, Type 0, BuildingBlock: MUDLON_clean_sbu_0, # of connection points: 4
#     Node 8, Type 0, BuildingBlock: MUDLON_clean_sbu_0, # of connection points: 4
#     Node 9, Type 0, BuildingBlock: MUDLON_clean_sbu_0, # of connection points: 4
#     Node 10, Type 0, BuildingBlock: MUDLON_clean_sbu_0, # of connection points: 4
#     Node 11, Type 0, BuildingBlock: MUDLON_clean_sbu_0, # of connection points: 4
#     Node 12, Type 0, BuildingBlock: MUDLON_clean_sbu_0, # of connection points: 4
#     Node 13, Type 0, BuildingBlock: MUDLON_clean_sbu_0, # of connection points: 4
#     Node 14, Type 0, BuildingBlock: MUDLON_clean_sbu_0, # of connection points: 4
#     Node 15, Type 0, BuildingBlock: MUDLON_clean_sbu_0, # of connection points: 4
#     Node 16, Type 0, BuildingBlock: MUDLON_clean_sbu_0, # of connection points: 4
#     Node 17, Type 0, BuildingBlock: MUDLON_clean_sbu_0, # of connection points: 4
#     Edge 18, Type (0, 0), BuildingBlock: ZUJKAS_clean_linker_0, # of connection points: 2
#     Edge 19, Type (0, 0), BuildingBlock: ZUJKAS_clean_linker_0, # of connection points: 2
#     Edge 20, Type (0, 0), BuildingBlock: ZUJKAS_clean_linker_0, # of connection points: 2
#     Edge 21, Type (0, 0), BuildingBlock: ZUJKAS_clean_linker_0, # of connection points: 2
#     Edge 22, Type (0, 0), BuildingBlock: ZUJKAS_clean_linker_0, # of connection points: 2
#     Edge 23, Type (0, 0), BuildingBlock: ZUJKAS_clean_linker_0, # of connection points: 2
#     Edge 24, Type (0, 0), BuildingBlock: ZUJKAS_clean_linker_0, # of connection points: 2
#     Edge 25, Type (0, 0), BuildingBlock: ZUJKAS_clean_linker_0, # of connection points: 2
#     Edge 26, Type (0, 0), BuildingBlock: ZUJKAS_clean_linker_0, # of connection points: 2
#     Edge 27, Type (0, 0), BuildingBlock: ZUJKAS_clean_linker_0, # of connection points: 2
#     Edge 28, Type (0, 0), BuildingBlock: ZUJKAS_clean_linker_0, # of connection points: 2
#     Edge 29, Type (0, 0), BuildingBlock: ZUJKAS_clean_linker_0, # of connection points: 2
#     Edge 30, Type (0, 0), BuildingBlock: ZUJKAS_clean_linker_0, # of connection points: 2
#     Edge 31, Type (0, 0), BuildingBlock: ZUJKAS_clean_linker_0, # of connection points: 2
#     Edge 32, Type (0, 0), BuildingBlock: ZUJKAS_clean_linker_0, # of connection points: 2
#     Edge 33, Type (0, 0), BuildingBlock: ZUJKAS_clean_linker_0, # of connection points: 2
#     Edge 34, Type (0, 0), BuildingBlock: ZUJKAS_clean_linker_0, # of connection points: 2
#     Edge 35, Type (0, 0), BuildingBlock: ZUJKAS_clean_linker_0, # of connection points: 2
#     Edge 36, Type (0, 0), BuildingBlock: ZUJKAS_clean_linker_0, # of connection points: 2
#     Edge 37, Type (0, 0), BuildingBlock: ZUJKAS_clean_linker_0, # of connection points: 2
#     Edge 38, Type (0, 0), BuildingBlock: ZUJKAS_clean_linker_0, # of connection points: 2
#     Edge 39, Type (0, 0), BuildingBlock: ZUJKAS_clean_linker_0, # of connection points: 2
#     Edge 40, Type (0, 0), BuildingBlock: ZUJKAS_clean_linker_0, # of connection points: 2
#     Edge 41, Type (0, 0), BuildingBlock: ZUJKAS_clean_linker_0, # of connection points: 2
#     Edge 42, Type (0, 0), BuildingBlock: ZUJKAS_clean_linker_0, # of connection points: 2
#     Edge 43, Type (0, 0), BuildingBlock: ZUJKAS_clean_linker_0, # of connection points: 2
#     Edge 44, Type (0, 0), BuildingBlock: ZUJKAS_clean_linker_0, # of connection points: 2
#     Edge 45, Type (0, 0), BuildingBlock: ZUJKAS_clean_linker_0, # of connection points: 2
#     Edge 46, Type (0, 0), BuildingBlock: ZUJKAS_clean_linker_0, # of connection points: 2
#     Edge 47, Type (0, 0), BuildingBlock: ZUJKAS_clean_linker_0, # of connection points: 2
#     Edge 48, Type (0, 0), BuildingBlock: ZUJKAS_clean_linker_0, # of connection points: 2
#     Edge 49, Type (0, 0), BuildingBlock: ZUJKAS_clean_linker_0, # of connection points: 2
#     Edge 50, Type (0, 0), BuildingBlock: ZUJKAS_clean_linker_0, # of connection points: 2
#     Edge 51, Type (0, 0), BuildingBlock: ZUJKAS_clean_linker_0, # of connection points: 2
#     Edge 52, Type (0, 0), BuildingBlock: ZUJKAS_clean_linker_0, # of connection points: 2
#     Edge 53, Type (0, 0), BuildingBlock: ZUJKAS_clean_linker_0, # of connection points: 2
# Relax obj value: 0.161
# Max RMSD: 0.154
# Mean RMSD: 0.149
data_MOF--net-usf--node1-MUDLON_clean_sbu_0--edge1-ZUJKAS_clean_linker_0
_symmetry_space_group_name_H-M    P1
_symmetry_Int_Tables_number       1
_symmetry_cell_setting            triclinic
loop_
_symmetry_equiv_pos_as_xyz
'x, y, z'
_cell_length_a     64.34029
_cell_length_b     64.318931
_cell_length_c     37.794858
_cell_angle_alpha  90.188579
_cell_angle_beta   89.909034
_cell_angle_gamma 119.833164
loop_
_atom_site_label
_atom_site_type_symbol
_atom_site_fract_x
_atom_site_fract_y
_atom_site_fract_z
_atom_type_partial_charge
Mg0 Mg 0.98698 0.50492 0.03588 0.0
C1 C 0.98994 0.46248 0.00094 0.0
O2 O 0.97414 0.46217 0.97865 0.0
C3 C 0.95437 0.51808 0.06799 0.0
O4 O 0.97504 0.53778 0.0638 0.0
C5 C 0.97153 0.51713 0.96936 0.0
O6 O 0.95112 0.5012 0.98358 0.0
O7 O 0.99091 0.523 0.98586 0.0
O8 O 0.99644 0.47674 0.02733 0.0
O9 O 1.01044 0.52822 0.0772 0.0
C10 C 1.01318 0.51784 0.10386 0.0
O11 O 1.00696 0.49511 0.10102 0.0
O12 O 0.9523 0.49825 0.0574 0.0
Mg13 Mg 0.51487 0.52463 0.02052 0.0
C14 C 0.54127 0.57619 0.00023 0.0
O15 O 0.55626 0.56847 0.99297 0.0
C16 C 0.47203 0.47551 0.0251 0.0
O17 O 0.48497 0.47316 1.00018 0.0
C18 C 0.54102 0.51476 0.95889 0.0
O19 O 0.5593 0.5229 0.98073 0.0
O20 O 0.52166 0.5137 0.96903 0.0
O21 O 0.52094 0.56137 0.01345 0.0
O22 O 0.53843 0.52504 0.06242 0.0
C23 C 0.53593 0.50526 0.07359 0.0
O24 O 0.52112 0.4854 0.05687 0.0
O25 O 0.47909 0.49638 0.0378 0.0
Mg26 Mg 0.58084 1.01447 0.01837 0.0
C27 C 0.59759 0.02865 0.94489 0.0
O28 O 0.60284 1.01171 0.95132 0.0
C29 C 0.57249 0.02015 0.09298 0.0
O30 O 0.57224 0.99961 0.09132 0.0
C31 C 0.52867 0.98455 0.00947 0.0
O32 O 0.53217 1.00564 0.01947 0.0
O33 O 0.54679 0.98155 0.00758 0.0
O34 O 0.58839 0.03495 0.96959 0.0
O35 O 0.6129 1.0123 0.03186 0.0
C36 C 0.63176 0.03282 0.03138 0.0
O37 O 0.62977 0.05135 0.02166 0.0
O38 O 0.57557 0.03179 0.06446 0.0
Mg39 Mg 0.53729 0.04822 0.52208 0.0
C40 C 0.5345 0.99911 0.53346 0.0
O41 O 0.53856 1.00593 0.56673 0.0
C42 C 0.50182 0.05575 0.56513 0.0
O43 O 0.51267 0.05076 0.59036 0.0
C44 C 0.54154 0.06966 0.45 0.0
O45 O 0.52008 0.06546 0.45912 0.0
O46 O 0.55407 0.06616 0.47269 0.0
O47 O 0.53068 1.01178 0.5114 0.0
O48 O 0.56011 0.06269 0.56858 0.0
C49 C 0.57755 0.05974 0.57725 0.0
O50 O 0.58484 0.04887 0.55516 0.0
O51 O 0.50693 0.05401 0.53305 0.0
Mg52 Mg 0.98829 0.54301 0.53221 0.0
C53 C 1.02129 0.59386 0.52437 0.0
O54 O 1.00091 0.59159 0.5355 0.0
C55 C 0.96255 0.49338 0.55494 0.0
O56 O 0.94723 0.50128 0.55487 0.0
C57 C 0.96528 0.52363 0.46209 0.0
O58 O 0.96765 0.50563 0.47336 0.0
O59 O 0.96949 0.5406 0.48343 0.0
O60 O 1.02293 0.57499 0.52074 0.0
O61 O 0.97568 0.55148 0.58053 0.0
C62 C 0.99196 0.56011 0.60408 0.0
O63 O 1.01345 0.56401 0.59578 0.0
O64 O 0.98399 0.5077 0.54493 0.0
Mg65 Mg 0.57758 0.51754 0.51198 0.0
C66 C 0.52604 0.50421 0.51506 0.0
O67 O 0.52713 0.48986 0.53869 0.0
C68 C 0.63009 0.54532 0.51701 0.0
O69 O 0.62524 0.52402 0.50573 0.0
C70 C 0.58823 0.5179 0.43846 0.0
O71 O 0.5945 0.53992 0.44803 0.0
O72 O 0.58048 0.50177 0.46227 0.0
O73 O 0.54548 0.52023 0.50104 0.0
O74 O 0.57187 0.49968 0.56323 0.0
C75 C 0.57652 0.51522 0.58747 0.0
O76 O 0.58303 0.53726 0.578 0.0
O77 O 0.61283 0.54957 0.52033 0.0
Mg78 Mg 0.68271 0.8529 0.39516 0.0
C79 C 0.65822 0.87754 0.42391 0.0
O80 O 0.68094 0.89112 0.43223 0.0
C81 C 0.67725 0.8144 0.34338 0.0
O82 O 0.67711 0.83004 0.32126 0.0
C83 C 0.6969 0.84261 0.4648 0.0
O84 O 0.68057 0.82116 0.4541 0.0
O85 O 0.70262 0.86035 0.44443 0.0
O86 O 0.65207 0.85814 0.40697 0.0
O87 O 0.70383 0.87721 0.35296 0.0
C88 C 0.69455 0.8865 0.33345 0.0
O89 O 0.6735 0.88363 0.34209 0.0
O90 O 0.67677 0.81797 0.37648 0.0
Mg91 Mg 0.18787 0.88613 0.37791 0.0
C92 C 0.19299 0.86523 0.30965 0.0
O93 O 0.17239 0.84776 0.32107 0.0
C94 C 0.20762 0.90959 0.44743 0.0
O95 O 0.18979 0.9138 0.44305 0.0
C96 C 0.17557 0.91881 0.33628 0.0
O97 O 0.17664 0.90573 0.31034 0.0
O98 O 0.17744 0.91328 0.36798 0.0
O99 O 0.20465 0.88362 0.32916 0.0
O100 O 0.15991 0.84975 0.39269 0.0
C101 C 0.16712 0.83843 0.41215 0.0
O102 O 0.18963 0.8494 0.42224 0.0
O103 O 0.21237 0.8991 0.42274 0.0
Mg104 Mg 0.2367 0.3834 0.3551 0.0
C105 C 0.25787 0.41343 0.28888 0.0
O106 O 0.27775 0.4155 0.3018 0.0
C107 C 0.21868 0.3817 0.42724 0.0
O108 O 0.21819 0.36111 0.42401 0.0
C109 C 0.18748 0.34563 0.34254 0.0
O110 O 0.1866 0.3652 0.34963 0.0
O111 O 0.20783 0.34676 0.34371 0.0
O112 O 0.23867 0.40254 0.30685 0.0
O113 O 0.2728 0.39025 0.36886 0.0
C114 C 0.28493 0.40958 0.38646 0.0
O115 O 0.27488 0.42251 0.39413 0.0
O116 O 0.22517 0.39571 0.40079 0.0
Mg117 Mg 0.18735 0.37648 0.85317 0.0
C118 C 0.14029 0.36628 0.89146 0.0
O119 O 0.14718 0.35639 0.91568 0.0
C120 C 0.19423 0.34076 0.80914 0.0
O121 O 0.19211 0.35371 0.78413 0.0
C122 C 0.2072 0.3789 0.92484 0.0
O123 O 0.19475 0.35568 0.9191 0.0
O124 O 0.20827 0.39301 0.90053 0.0
O125 O 0.15228 0.37373 0.86288 0.0
O126 O 0.20265 0.39918 0.80695 0.0
C127 C 0.19117 0.40721 0.78979 0.0
O128 O 0.17104 0.40446 0.80293 0.0
O129 O 0.19069 0.34458 0.84116 0.0
Mg130 Mg 0.6829 0.87334 0.89256 0.0
C131 C 0.69781 0.85157 0.83349 0.0
O132 O 0.67823 0.83221 0.84364 0.0
C133 C 0.69459 0.8948 0.96463 0.0
O134 O 0.67845 0.9002 0.95382 0.0
C135 C 0.69992 0.92388 0.87727 0.0
O136 O 0.71782 0.92304 0.89255 0.0
O137 O 0.6801 0.90431 0.87371 0.0
O138 O 0.7051 0.87078 0.85127 0.0
O139 O 0.65105 0.83725 0.89869 0.0
C140 C 0.64347 0.82852 0.92938 0.0
O141 O 0.65269 0.84253 0.95709 0.0
O142 O 0.70089 0.88338 0.94373 0.0
Mg143 Mg 0.24405 0.84927 0.86627 0.0
C144 C 0.25964 0.87103 0.79619 0.0
O145 O 0.26544 0.85412 0.7967 0.0
C146 C 0.22351 0.84412 0.93862 0.0
O147 O 0.21321 0.82175 0.92775 0.0
C148 C 0.19302 0.82207 0.84991 0.0
O149 O 0.1971 0.8427 0.86309 0.0
O150 O 0.21049 0.818 0.84827 0.0
O151 O 0.25085 0.87474 0.82408 0.0
O152 O 0.27724 0.84762 0.87257 0.0
C153 C 0.28474 0.84696 0.90352 0.0
O154 O 0.27061 0.84357 0.93061 0.0
O155 O 0.23731 0.8606 0.91745 0.0
Mg156 Mg 0.33004 0.17659 0.68629 0.0
C157 C 0.30423 0.20457 0.68913 0.0
O158 O 0.29004 0.1859 0.66959 0.0
C159 C 0.37409 0.17124 0.69303 0.0
O160 O 0.36296 0.16072 0.72241 0.0
C161 C 0.29868 0.15019 0.74937 0.0
O162 O 0.285 0.15795 0.73584 0.0
O163 O 0.31712 0.15352 0.73237 0.0
O164 O 0.32428 0.20693 0.69887 0.0
O165 O 0.31218 0.16036 0.63679 0.0
C166 C 0.31815 0.14651 0.62133 0.0
O167 O 0.33094 0.13921 0.63888 0.0
O168 O 0.36615 0.1825 0.67493 0.0
Mg169 Mg 0.84856 0.20127 0.69916 0.0
C170 C 0.84316 0.18905 0.6239 0.0
O171 O 0.82324 0.18885 0.63239 0.0
C172 C 0.875 0.22087 0.7662 0.0
O173 O 0.86398 0.23325 0.76189 0.0
C174 C 0.87452 0.2512 0.67876 0.0
O175 O 0.88964 0.24306 0.67808 0.0
O176 O 0.85301 0.23687 0.68844 0.0
O177 O 0.85836 0.19291 0.64815 0.0
O178 O 0.81417 0.17044 0.71625 0.0
C179 C 0.80991 0.14997 0.70491 0.0
O180 O 0.82478 0.14911 0.6819 0.0
O181 O 0.87292 0.20598 0.74228 0.0
Mg182 Mg 0.91331 0.71257 0.69361 0.0
C183 C 0.90725 0.73971 0.63321 0.0
O184 O 0.88659 0.73217 0.64917 0.0
C185 C 0.90062 0.7098 0.76758 0.0
O186 O 0.89782 0.68874 0.75897 0.0
C187 C 0.86006 0.68235 0.68662 0.0
O188 O 0.86248 0.69958 0.70795 0.0
O189 O 0.87882 0.68169 0.67743 0.0
O190 O 0.92306 0.73641 0.64817 0.0
O191 O 0.94348 0.70684 0.70579 0.0
C192 C 0.96251 0.7166 0.68718 0.0
O193 O 0.96254 0.72721 0.65752 0.0
O194 O 0.9074 0.72576 0.74366 0.0
Mg195 Mg 0.8361 0.68336 0.20284 0.0
C196 C 0.79576 0.69479 0.20047 0.0
O197 O 0.80717 0.7052 0.17118 0.0
C198 C 0.82952 0.63721 0.168 0.0
O199 O 0.82076 0.64421 0.14222 0.0
C200 C 0.85414 0.69023 0.27548 0.0
O201 O 0.83556 0.66842 0.27517 0.0
O202 O 0.86005 0.70207 0.24678 0.0
O203 O 0.80269 0.68247 0.21804 0.0
O204 O 0.84911 0.70236 0.15295 0.0
C205 C 0.86629 0.70203 0.13679 0.0
O206 O 0.87699 0.69149 0.15187 0.0
O207 O 0.83555 0.64911 0.19682 0.0
Mg208 Mg 0.31392 0.19631 0.19191 0.0
C209 C 0.3014 0.18064 0.11785 0.0
O210 O 0.2836 0.18358 0.12861 0.0
C211 C 0.33913 0.20402 0.26006 0.0
O212 O 0.33506 0.22211 0.25939 0.0
C213 C 0.31523 0.24416 0.17207 0.0
O214 O 0.29343 0.23025 0.16004 0.0
O215 O 0.32605 0.23474 0.18767 0.0
O216 O 0.31815 0.18481 0.13952 0.0
O217 O 0.27803 0.17006 0.21062 0.0
C218 C 0.27303 0.14881 0.20242 0.0
O219 O 0.28801 0.14601 0.18203 0.0
O220 O 0.33459 0.19109 0.2325 0.0
Mg221 Mg 0.91065 0.16872 0.19143 0.0
C222 C 0.93022 0.19459 0.12269 0.0
O223 O 0.94559 0.18723 0.12906 0.0
C224 C 0.88232 0.17221 0.2535 0.0
O225 O 0.86435 0.15472 0.23635 0.0
C226 C 0.8721 0.12805 0.1481 0.0
O227 O 0.8865 0.14124 0.12262 0.0
O228 O 0.87892 0.13376 0.18006 0.0
O229 O 0.91422 0.19068 0.14566 0.0
O230 O 0.9457 0.17171 0.20123 0.0
C231 C 0.95296 0.17353 0.23305 0.0
O232 O 0.93774 0.16961 0.25885 0.0
O233 O 0.90306 0.18229 0.2396 0.0
H234 H 0.98018 0.56585 0.42689 0.0
H235 H 0.98841 0.57269 0.36343 0.0
H236 H 0.95849 0.49676 0.34678 0.0
H237 H 0.95045 0.48975 0.41016 0.0
H238 H 1.01966 0.55645 0.33005 0.0
H239 H 0.9311 0.52044 0.26447 0.0
H240 H 0.93625 0.53056 0.30998 0.0
H241 H 0.93256 0.50178 0.29861 0.0
C242 C 0.97464 0.55051 0.40959 0.0
C243 C 0.96472 0.52722 0.42354 0.0
C244 C 0.97949 0.5545 0.37338 0.0
C245 C 0.97403 0.53523 0.35052 0.0
C246 C 0.96262 0.51184 0.36399 0.0
H247 H 0.02473 0.50373 0.16508 0.0
H248 H 1.01874 0.51383 0.22524 0.0
C249 C 0.95806 0.50786 0.40021 0.0
C250 C 0.98274 0.53956 0.31356 0.0
H251 H 0.96379 0.52576 0.22808 0.0
C252 C 1.00751 0.55016 0.30765 0.0
C253 C 0.96685 0.53141 0.28451 0.0
C254 C 0.9402 0.52057 0.28951 0.0
C255 C 1.01669 0.55163 0.27346 0.0
C256 C 1.00067 0.54227 0.24463 0.0
C257 C 0.97603 0.53288 0.25032 0.0
C258 C 1.00871 0.53986 0.20892 0.0
C259 C 0.04336 0.56259 0.26846 0.0
C260 C 1.00576 0.55169 0.17994 0.0
C261 C 1.00948 0.54619 0.14552 0.0
C262 C 1.01567 0.52832 0.13957 0.0
C263 C 1.02001 0.51758 0.16881 0.0
C264 C 1.01661 0.52335 0.2032 0.0
H265 H 0.05351 0.57419 0.29119 0.0
H266 H 0.04784 0.54806 0.26616 0.0
H267 H 0.0493 0.57336 0.24381 0.0
H268 H 0.99955 0.56441 0.18388 0.0
H269 H 1.00585 0.5547 0.1236 0.0
H270 H 0.60746 0.54979 0.38475 0.0
H271 H 0.60168 0.54203 0.32157 0.0
H272 H 0.56236 0.46595 0.34132 0.0
H273 H 0.56752 0.47368 0.40538 0.0
H274 H 0.61306 0.51783 0.27377 0.0
H275 H 0.51402 0.47581 0.28605 0.0
H276 H 0.53396 0.49125 0.32242 0.0
H277 H 0.52735 0.46151 0.31045 0.0
C278 C 0.59772 0.53134 0.37582 0.0
C279 C 0.58764 0.51235 0.40022 0.0
C280 C 0.59451 0.52694 0.33954 0.0
C281 C 0.58117 0.50345 0.32662 0.0
C282 C 0.57225 0.48428 0.35072 0.0
H283 H 0.52882 0.46517 0.10877 0.0
H284 H 0.54181 0.46275 0.16859 0.0
C285 C 0.5754 0.48869 0.3873 0.0
C286 C 0.5757 0.49965 0.28812 0.0
H287 H 0.52978 0.48099 0.22873 0.0
C288 C 0.59483 0.50952 0.26392 0.0
C289 C 0.55191 0.48891 0.2752 0.0
C290 C 0.53059 0.47892 0.29978 0.0
C291 C 0.59084 0.50947 0.22735 0.0
C292 C 0.56712 0.49943 0.21464 0.0
C293 C 0.54797 0.48868 0.2386 0.0
C294 C 0.56169 0.50109 0.17692 0.0
C295 C 0.61205 0.5204 0.20263 0.0
C296 C 0.56877 0.52349 0.16155 0.0
C297 C 0.56129 0.52498 0.12734 0.0
C298 C 0.54653 0.50405 0.10787 0.0
C299 C 0.54021 0.48167 0.12292 0.0
C300 C 0.54758 0.48021 0.15717 0.0
H301 H 0.62818 0.52139 0.21496 0.0
H302 H 0.60799 0.50996 0.17764 0.0
H303 H 0.61633 0.5389 0.19593 0.0
H304 H 0.57933 0.53983 0.17653 0.0
H305 H 0.56642 0.54249 0.11664 0.0
H306 H 0.57426 0.063 0.10791 0.0
H307 H 0.57024 0.07772 0.16618 0.0
H308 H 0.56102 1.01303 0.2145 0.0
H309 H 0.56473 0.99817 0.15688 0.0
H310 H 0.52696 0.02549 0.23569 0.0
H311 H 0.6199 0.10229 0.24777 0.0
H312 H 0.60368 0.10115 0.20839 0.0
H313 H 0.61176 0.07854 0.2158 0.0
C314 C 0.57138 0.05194 0.13098 0.0
C315 C 0.56984 0.02941 0.12771 0.0
C316 C 0.56924 0.06044 0.16426 0.0
C317 C 0.56559 0.04657 0.19473 0.0
C318 C 0.56387 0.02405 0.19138 0.0
H319 H 0.57887 0.06754 0.41846 0.0
H320 H 0.58533 0.0657 0.35499 0.0
C321 C 0.56601 0.01559 0.15833 0.0
C322 C 0.56296 0.0549 0.23027 0.0
H323 H 0.59376 0.09557 0.29564 0.0
C324 C 0.54146 0.04097 0.24869 0.0
C325 C 0.58202 0.07495 0.24724 0.0
C326 C 0.60575 0.09008 0.22903 0.0
C327 C 0.53865 0.04617 0.28387 0.0
C328 C 0.55773 0.06617 0.30097 0.0
C329 C 0.5791 0.0804 0.28236 0.0
C330 C 0.55625 0.07134 0.33894 0.0
C331 C 0.51563 0.02952 0.30289 0.0
C332 C 0.53847 0.07623 0.35097 0.0
C333 C 0.53463 0.07715 0.38723 0.0
C334 C 0.54866 0.07342 0.41218 0.0
C335 C 0.56768 0.07041 0.40001 0.0
C336 C 0.5714 0.06934 0.3637 0.0
H337 H 0.50507 1.01227 0.28858 0.0
H338 H 0.51933 0.02565 0.33005 0.0
H339 H 0.50446 0.03817 0.30507 0.0
H340 H 0.52691 0.07835 0.3323 0.0
H341 H 0.52 0.07977 0.39568 0.0
H342 H 0.94797 0.54236 0.63584 0.0
H343 H 0.94008 0.54106 0.69956 0.0
H344 H 1.01609 0.58171 0.71976 0.0
H345 H 0.02404 0.58343 0.6566 0.0
H346 H 0.95541 0.51866 0.74463 0.0
H347 H 0.9915 0.61232 0.78911 0.0
H348 H 0.9851 0.60357 0.74319 0.0
H349 H 1.01281 0.60886 0.76282 0.0
C350 C 0.96293 0.55162 0.65383 0.0
C351 C 0.98662 0.56283 0.64127 0.0
C352 C 0.95841 0.55084 0.6902 0.0
C353 C 0.97749 0.56151 0.71439 0.0
C354 C 1.00106 0.57383 0.70163 0.0
H355 H 1.01034 0.54559 0.92766 0.0
H356 H 1.00978 0.55781 0.86646 0.0
C357 C 1.00558 0.57457 0.66545 0.0
C358 C 0.97325 0.55685 0.75282 0.0
H359 H 0.98853 0.58408 0.83383 0.0
C360 C 0.96217 0.53295 0.76416 0.0
C361 C 0.98232 0.57553 0.77823 0.0
C362 C 0.99338 0.60149 0.76769 0.0
C363 C 0.96096 0.52722 0.80012 0.0
C364 C 0.97076 0.54592 0.82545 0.0
C365 C 0.98115 0.56981 0.81428 0.0
C366 C 0.97115 0.54083 0.86349 0.0
C367 C 0.95022 0.50125 0.81061 0.0
C368 C 0.94966 0.52784 0.88222 0.0
C369 C 0.94991 0.52074 0.917 0.0
C370 C 0.97168 0.52665 0.93374 0.0
C371 C 0.99328 0.54067 0.91544 0.0
C372 C 0.993 0.54771 0.88055 0.0
H373 H 0.94799 0.48954 0.78757 0.0
H374 H 0.96158 0.49905 0.83066 0.0
H375 H 0.9323 0.49498 0.82249 0.0
H376 H 0.93265 0.52269 0.86964 0.0
H377 H 0.93296 0.51019 0.93047 0.0
H378 H 0.59804 0.54632 0.64126 0.0
H379 H 0.5905 0.53927 0.70434 0.0
H380 H 0.54145 0.4644 0.68416 0.0
H381 H 0.54917 0.47136 0.62013 0.0
H382 H 0.54389 0.52176 0.73229 0.0
H383 H 0.58351 0.46519 0.76971 0.0
H384 H 0.59239 0.48331 0.73015 0.0
H385 H 0.564 0.45617 0.73174 0.0
C386 C 0.58587 0.52823 0.65012 0.0
C387 C 0.57402 0.50942 0.62567 0.0
C388 C 0.58163 0.52425 0.68626 0.0
C389 C 0.56542 0.50136 0.69898 0.0
C390 C 0.55424 0.48218 0.6749 0.0
H391 H 0.50525 0.49173 0.91028 0.0
H392 H 0.50927 0.48467 0.84771 0.0
C393 C 0.55863 0.48616 0.63839 0.0
C394 C 0.55896 0.49862 0.73708 0.0
H395 H 0.5657 0.47616 0.81534 0.0
C396 C 0.54841 0.51158 0.75043 0.0
C397 C 0.56512 0.48552 0.76062 0.0
C398 C 0.57702 0.47181 0.7476 0.0
C399 C 0.54442 0.51235 0.78676 0.0
C400 C 0.55065 0.49935 0.81048 0.0
C401 C 0.5608 0.48598 0.7971 0.0
C402 C 0.54783 0.50059 0.84932 0.0
C403 C 0.5345 0.52797 0.79953 0.0
C404 C 0.56805 0.51087 0.87143 0.0
C405 C 0.56581 0.51475 0.90738 0.0
C406 C 0.54327 0.50847 0.92182 0.0
C407 C 0.52292 0.49711 0.89992 0.0
C408 C 0.52517 0.49308 0.86411 0.0
H409 H 0.53604 0.54104 0.77908 0.0
H410 H 0.51523 0.5165 0.806 0.0
H411 H 0.54395 0.53802 0.82376 0.0
H412 H 0.58571 0.51675 0.86058 0.0
H413 H 0.58182 0.52343 0.92352 0.0
H414 H 0.584 0.06015 0.91957 0.0
H415 H 0.58532 0.07274 0.85803 0.0
H416 H 0.61835 0.0314 0.82661 0.0
H417 H 0.61745 0.01905 0.88782 0.0
H418 H 0.63844 0.07646 0.7933 0.0
H419 H 0.53898 0.02611 0.78365 0.0
H420 H 0.55111 0.04797 0.81857 0.0
H421 H 0.55486 0.02211 0.8199 0.0
C422 C 0.59178 0.05395 0.89962 0.0
C423 C 0.60038 0.03838 0.90858 0.0
C424 C 0.59241 0.06107 0.86444 0.0
C425 C 0.60156 0.05266 0.83766 0.0
C426 C 0.61112 0.03802 0.84682 0.0
H427 H 0.60641 0.04578 0.6106 0.0
H428 H 0.61481 0.04775 0.67396 0.0
C429 C 0.61051 0.03091 0.88187 0.0
C430 C 0.60012 0.05796 0.79983 0.0
H431 H 0.56027 0.0469 0.73301 0.0
C432 C 0.62137 0.07016 0.78011 0.0
C433 C 0.57782 0.04964 0.78267 0.0
C434 C 0.55435 0.03555 0.8021 0.0
C435 C 0.62091 0.07421 0.74365 0.0
C436 C 0.59858 0.06547 0.72638 0.0
C437 C 0.57738 0.05369 0.74628 0.0
C438 C 0.59648 0.06724 0.68747 0.0
C439 C 0.64432 0.08792 0.72404 0.0
C440 C 0.58347 0.0776 0.67386 0.0
C441 C 0.57844 0.07631 0.63769 0.0
C442 C 0.58627 0.06452 0.61433 0.0
C443 C 0.60026 0.05513 0.62777 0.0
C444 C 0.60518 0.05634 0.66403 0.0
H445 H 0.65921 0.09955 0.74222 0.0
H446 H 0.64884 0.07504 0.71154 0.0
H447 H 0.64311 0.09924 0.70292 0.0
H448 H 0.57651 0.08604 0.69143 0.0
H449 H 0.56766 0.08378 0.62827 0.0
H450 H 0.73389 0.89043 0.79946 0.0
H451 H 0.74475 0.89301 0.73688 0.0
H452 H 0.69529 0.81743 0.72429 0.0
H453 H 0.68451 0.81455 0.78678 0.0
H454 H 0.7395 0.83531 0.68465 0.0
H455 H 0.69419 0.88909 0.6653 0.0
H456 H 0.71806 0.90026 0.69719 0.0
H457 H 0.69089 0.87261 0.70543 0.0
C458 C 0.72571 0.87423 0.7836 0.0
C459 C 0.70803 0.85234 0.79802 0.0
C460 C 0.73187 0.87578 0.7478 0.0
C461 C 0.72045 0.85551 0.72587 0.0
C462 C 0.70421 0.83331 0.74077 0.0
H463 H 0.68714 0.80824 0.51433 0.0
H464 H 0.69825 0.81397 0.57661 0.0
C465 C 0.69804 0.83172 0.77651 0.0
C466 C 0.72337 0.85766 0.68692 0.0
H467 H 0.7077 0.87848 0.61464 0.0
C468 C 0.73286 0.845 0.66929 0.0
C469 C 0.71473 0.87037 0.66698 0.0
C470 C 0.70373 0.88375 0.68451 0.0
C471 C 0.73339 0.84423 0.63214 0.0
C472 C 0.72368 0.856 0.61222 0.0
C473 C 0.71518 0.86951 0.62991 0.0
C474 C 0.7198 0.85261 0.57343 0.0
C475 C 0.74411 0.83063 0.61465 0.0
C476 C 0.72803 0.87244 0.55077 0.0
C477 C 0.72143 0.86923 0.51502 0.0
C478 C 0.70634 0.84612 0.50138 0.0
C479 C 0.69882 0.82629 0.52389 0.0
C480 C 0.70537 0.82951 0.55954 0.0
H481 H 0.75798 0.8303 0.63174 0.0
H482 H 0.72983 0.81181 0.6102 0.0
H483 H 0.75231 0.83861 0.58873 0.0
H484 H 0.73901 0.89045 0.56099 0.0
H485 H 0.72751 0.88489 0.49841 0.0
H486 H 0.24371 0.90275 0.78274 0.0
H487 H 0.24008 0.9177 0.7248 0.0
H488 H 0.27263 0.88045 0.67518 0.0
H489 H 0.27677 0.86589 0.73274 0.0
H490 H 0.28796 0.92568 0.64601 0.0
H491 H 0.18858 0.8722 0.65553 0.0
H492 H 0.2032 0.89344 0.69063 0.0
H493 H 0.20799 0.86833 0.68587 0.0
C494 C 0.25043 0.89806 0.75956 0.0
C495 C 0.26025 0.88287 0.76233 0.0
C496 C 0.24822 0.9065 0.72646 0.0
C497 C 0.25565 0.89977 0.69562 0.0
C498 C 0.26667 0.88576 0.6986 0.0
H499 H 0.23903 0.89532 0.4702 0.0
H500 H 0.2533 0.897 0.53066 0.0
C501 C 0.26895 0.87739 0.73158 0.0
C502 C 0.25058 0.90582 0.65999 0.0
H503 H 0.20469 0.89427 0.60351 0.0
C504 C 0.26977 0.919 0.63676 0.0
C505 C 0.22682 0.89697 0.64793 0.0
C506 C 0.20541 0.88178 0.6711 0.0
C507 C 0.26581 0.92343 0.60171 0.0
C508 C 0.24205 0.91412 0.58949 0.0
C509 C 0.22291 0.90146 0.61298 0.0
C510 C 0.23632 0.9161 0.55206 0.0
C511 C 0.28709 0.938 0.57809 0.0
C512 C 0.2221 0.92635 0.54393 0.0
C513 C 0.21378 0.92527 0.50947 0.0
C514 C 0.21939 0.91377 0.48245 0.0
C515 C 0.23449 0.90441 0.49033 0.0
C516 C 0.24277 0.90547 0.52488 0.0
H517 H 0.30348 0.94958 0.59375 0.0
H518 H 0.29064 0.9257 0.56185 0.0
H519 H 0.28362 0.94948 0.55992 0.0
H520 H 0.21683 0.93456 0.56452 0.0
H521 H 0.20225 0.93272 0.50432 0.0
H522 H 0.20127 0.3542 0.48623 0.0
H523 H 0.19613 0.36661 0.54502 0.0
H524 H 0.21988 0.43801 0.50653 0.0
H525 H 0.22535 0.42575 0.44722 0.0
H526 H 0.2429 0.43704 0.56874 0.0
H527 H 0.1447 0.38047 0.58241 0.0
H528 H 0.15839 0.36335 0.56871 0.0
H529 H 0.15969 0.38631 0.54013 0.0
C530 C 0.20516 0.37249 0.49004 0.0
C531 C 0.21368 0.38898 0.462 0.0
C532 C 0.20206 0.37951 0.52368 0.0
C533 C 0.20728 0.40313 0.53004 0.0
C534 C 0.21558 0.41964 0.50208 0.0
H535 H 0.17001 0.42437 0.74467 0.0
H536 H 0.17582 0.42972 0.68068 0.0
C537 C 0.21862 0.41259 0.46823 0.0
C538 C 0.20538 0.41059 0.5665 0.0
H539 H 0.16718 0.39397 0.63677 0.0
C540 C 0.22625 0.42798 0.58349 0.0
C541 C 0.1836 0.39911 0.58554 0.0
C542 C 0.16028 0.38145 0.56813 0.0
C543 C 0.22622 0.43301 0.6197 0.0
C544 C 0.20485 0.42 0.63943 0.0
C545 C 0.18366 0.40379 0.62182 0.0
C546 C 0.20433 0.42113 0.67866 0.0
C547 C 0.24918 0.45191 0.63652 0.0
C548 C 0.21882 0.41511 0.69896 0.0
C549 C 0.21566 0.4122 0.73555 0.0
C550 C 0.19766 0.41488 0.75254 0.0
C551 C 0.18399 0.42211 0.73243 0.0
C552 C 0.18726 0.42515 0.69582 0.0
H553 H 0.26072 0.46571 0.61692 0.0
H554 H 0.24561 0.46089 0.65895 0.0
H555 H 0.25932 0.44338 0.64662 0.0
H556 H 0.2317 0.41134 0.68632 0.0
H557 H 0.22643 0.40651 0.75016 0.0
H558 H 0.67956 0.90812 0.28594 0.0
H559 H 0.69056 0.91596 0.22355 0.0
H560 H 0.74293 0.89347 0.23764 0.0
H561 H 0.73189 0.88533 0.30018 0.0
H562 H 0.73528 0.94398 0.18501 0.0
H563 H 0.69399 0.84534 0.16513 0.0
H564 H 0.68938 0.85801 0.20501 0.0
H565 H 0.71742 0.859 0.19762 0.0
C566 C 0.69375 0.90526 0.276 0.0
C567 C 0.70461 0.89578 0.29794 0.0
C568 C 0.70005 0.90982 0.24033 0.0
C569 C 0.71725 0.9049 0.22591 0.0
C570 C 0.72936 0.89706 0.24822 0.0
H571 H 0.72556 0.88345 0.99793 0.0
H572 H 0.73688 0.8892 0.06062 0.0
C573 C 0.72311 0.89254 0.28399 0.0
C574 C 0.72054 0.90575 0.18705 0.0
H575 H 0.70628 0.86938 0.11458 0.0
C576 C 0.72928 0.92774 0.16955 0.0
C577 C 0.71278 0.88452 0.16701 0.0
C578 C 0.70271 0.86031 0.18446 0.0
C579 C 0.72981 0.92899 0.13243 0.0
C580 C 0.72082 0.90759 0.11239 0.0
C581 C 0.71318 0.88577 0.12995 0.0
C582 C 0.71672 0.90691 0.07365 0.0
C583 C 0.73973 0.95319 0.1151 0.0
C584 C 0.70174 0.91503 0.06011 0.0
C585 C 0.69531 0.91182 0.02443 0.0
C586 C 0.70347 0.90014 0.00153 0.0
C587 C 0.71897 0.89252 0.01487 0.0
C588 C 0.72547 0.89581 0.05067 0.0
H589 H 0.7534 0.96759 0.13216 0.0
H590 H 0.74793 0.95366 0.08903 0.0
H591 H 0.72499 0.95718 0.11103 0.0
H592 H 0.69419 0.92301 0.07743 0.0
H593 H 0.68329 0.91786 0.01511 0.0
H594 H 0.19345 0.81311 0.98828 0.0
H595 H 0.19198 0.8205 0.05133 0.0
H596 H 0.24725 0.89413 0.03758 0.0
H597 H 0.24865 0.88696 0.97408 0.0
H598 H 0.23012 0.83529 0.09852 0.0
H599 H 0.19649 0.89996 0.0959 0.0
H600 H 0.19433 0.88173 0.05811 0.0
H601 H 0.22244 0.90767 0.06915 0.0
C602 C 0.20511 0.83098 0.99849 0.0
C603 C 0.22117 0.84945 0.97611 0.0
C604 C 0.20427 0.83515 0.03459 0.0
C605 C 0.2194 0.85788 0.04914 0.0
C606 C 0.23514 0.87654 0.02682 0.0
H607 H 0.2289 0.90189 0.27173 0.0
H608 H 0.2385 0.90147 0.20897 0.0
C609 C 0.23596 0.8724 0.99055 0.0
C610 C 0.21932 0.86144 0.08793 0.0
H611 H 0.20594 0.89064 0.1518 0.0
C612 C 0.22493 0.84747 0.11017 0.0
C613 C 0.21276 0.87749 0.10306 0.0
C614 C 0.20597 0.89248 0.08043 0.0
C615 C 0.22374 0.84879 0.14712 0.0
C616 C 0.21641 0.86425 0.16224 0.0
C617 C 0.21157 0.87882 0.14009 0.0
C618 C 0.21194 0.86423 0.20074 0.0
C619 C 0.23023 0.83355 0.16967 0.0
C620 C 0.19391 0.84342 0.21688 0.0
C621 C 0.18838 0.84359 0.25257 0.0
C622 C 0.20073 0.86462 0.2729 0.0
C623 C 0.21917 0.88535 0.25688 0.0
C624 C 0.22461 0.88518 0.22101 0.0
H625 H 0.24197 0.82832 0.15516 0.0
H626 H 0.23946 0.8431 0.19432 0.0
H627 H 0.21362 0.81689 0.17714 0.0
H628 H 0.18362 0.82716 0.20158 0.0
H629 H 0.17404 0.82734 0.26402 0.0
H630 H 0.23271 0.42573 0.94729 0.0
H631 H 0.2484 0.44025 0.00689 0.0
H632 H 0.221 0.36739 0.04158 0.0
H633 H 0.20579 0.35283 0.98236 0.0
H634 H 0.22363 0.43128 0.06861 0.0
H635 H 0.2886 0.39924 0.07929 0.0
H636 H 0.2758 0.40067 0.03751 0.0
H637 H 0.25967 0.37537 0.06643 0.0
C638 C 0.23034 0.41284 0.96752 0.0
C639 C 0.21809 0.38812 0.96002 0.0
C640 C 0.23927 0.42117 0.00155 0.0
C641 C 0.23624 0.40494 0.02854 0.0
C642 C 0.22412 0.3803 0.02099 0.0
H643 H 0.21807 0.40242 0.24954 0.0
H644 H 0.21594 0.40605 0.18572 0.0
C645 C 0.21528 0.37199 0.98709 0.0
C646 C 0.2443 0.41333 0.06523 0.0
H647 H 0.27388 0.40598 0.13455 0.0
C648 C 0.23499 0.42616 0.0829 0.0
C649 C 0.25956 0.40715 0.0837 0.0
C650 C 0.27169 0.39508 0.0656 0.0
C651 C 0.23924 0.43154 0.11914 0.0
C652 C 0.25268 0.42338 0.13832 0.0
C653 C 0.26329 0.41198 0.12007 0.0
C654 C 0.25434 0.42455 0.17756 0.0
C655 C 0.229 0.44563 0.13651 0.0
C656 C 0.27664 0.4337 0.19446 0.0
C657 C 0.2779 0.43129 0.23105 0.0
C658 C 0.25687 0.41965 0.25144 0.0
C659 C 0.23464 0.41161 0.23471 0.0
C660 C 0.23339 0.41384 0.19813 0.0
H661 H 0.22751 0.45786 0.11729 0.0
H662 H 0.21069 0.43305 0.14629 0.0
H663 H 0.24016 0.4564 0.15919 0.0
H664 H 0.29305 0.44196 0.17915 0.0
H665 H 0.29531 0.43772 0.24311 0.0
H666 H 0.334 0.17033 0.08714 0.0
H667 H 0.33396 0.15737 0.026 0.0
H668 H 0.26926 0.15965 0.00499 0.0
H669 H 0.26889 0.17212 0.06583 0.0
H670 H 0.26823 0.1188 0.97756 0.0
H671 H 0.35214 0.20202 0.94069 0.0
H672 H 0.3543 0.18573 0.97769 0.0
H673 H 0.33612 0.19965 0.98107 0.0
C674 C 0.31976 0.16803 0.06948 0.0
C675 C 0.30155 0.17244 0.08127 0.0
C676 C 0.3198 0.16069 0.03456 0.0
C677 C 0.30176 0.15783 0.01088 0.0
C678 C 0.28335 0.16175 0.02283 0.0
H679 H 0.2635 0.14472 0.79542 0.0
H680 H 0.26384 0.14132 0.85966 0.0
C681 C 0.28324 0.16898 0.05763 0.0
C682 C 0.30215 0.15147 0.97326 0.0
H683 H 0.33259 0.17355 0.89591 0.0
C684 C 0.28243 0.13062 0.95973 0.0
C685 C 0.32072 0.16689 0.95011 0.0
C686 C 0.34196 0.18993 0.96291 0.0
C687 C 0.28047 0.12513 0.92347 0.0
C688 C 0.29856 0.14107 0.90017 0.0
C689 C 0.31877 0.16134 0.9139 0.0
C690 C 0.29599 0.13851 0.8612 0.0
C691 C 0.25892 0.10253 0.91035 0.0
C692 C 0.31371 0.13765 0.84065 0.0
C693 C 0.3136 0.13965 0.80384 0.0
C694 C 0.29591 0.14287 0.78699 0.0
C695 C 0.27738 0.14226 0.80751 0.0
C696 C 0.27747 0.14019 0.84429 0.0
H697 H 0.25097 0.0889 0.93165 0.0
H698 H 0.24506 0.10681 0.90143 0.0
H699 H 0.26366 0.09467 0.88766 0.0
H700 H 0.32821 0.13647 0.85322 0.0
H701 H 0.32814 0.14001 0.78886 0.0
H702 H 0.89147 0.19148 0.79042 0.0
H703 H 0.90567 0.19059 0.85027 0.0
H704 H 0.89886 0.25181 0.87929 0.0
H705 H 0.88486 0.25298 0.8197 0.0
H706 H 0.9412 0.2526 0.9063 0.0
H707 H 0.85691 0.16741 0.93364 0.0
H708 H 0.87338 0.16723 0.89528 0.0
H709 H 0.86017 0.18611 0.89615 0.0
C710 C 0.89337 0.20499 0.80937 0.0
C711 C 0.88677 0.22213 0.80042 0.0
C712 C 0.90137 0.20438 0.84357 0.0
C713 C 0.90293 0.22091 0.86929 0.0
C714 C 0.89767 0.23884 0.85985 0.0
H715 H 0.89624 0.20429 0.09669 0.0
H716 H 0.89142 0.21328 0.03541 0.0
C717 C 0.88961 0.23942 0.82578 0.0
C718 C 0.90843 0.21864 0.90665 0.0
H719 H 0.88589 0.18251 0.97898 0.0
C720 C 0.92919 0.23726 0.92223 0.0
C721 C 0.89248 0.1988 0.92744 0.0
C722 C 0.86937 0.1788 0.9125 0.0
C723 C 0.93456 0.23641 0.95806 0.0
C724 C 0.91879 0.21635 0.97865 0.0
C725 C 0.89796 0.19785 0.96309 0.0
C726 C 0.92347 0.21394 0.01638 0.0
C727 C 0.95676 0.25714 0.97379 0.0
C728 C 0.9433 0.21171 0.02609 0.0
C729 C 0.94612 0.20658 0.06109 0.0
C730 C 0.92908 0.20345 0.087 0.0
C731 C 0.90973 0.20663 0.07744 0.0
C732 C 0.9069 0.21171 0.04241 0.0
H733 H 0.9637 0.27348 0.95718 0.0
H734 H 0.95314 0.26141 0.00081 0.0
H735 H 0.97098 0.25221 0.97582 0.0
H736 H 0.95609 0.21298 0.00632 0.0
H737 H 0.96121 0.2042 0.06752 0.0
H738 H 0.89911 0.70007 0.09305 0.0
H739 H 0.9057 0.71013 0.03039 0.0
H740 H 0.85376 0.7339 0.03387 0.0
H741 H 0.84666 0.72339 0.09666 0.0
H742 H 0.84477 0.70308 0.9807 0.0
H743 H 0.94054 0.77193 0.97599 0.0
H744 H 0.93626 0.74579 0.99911 0.0
H745 H 0.92372 0.76322 0.01681 0.0
C746 C 0.88936 0.70783 0.08072 0.0
C747 C 0.87231 0.71087 0.09991 0.0
C748 C 0.89331 0.71377 0.04486 0.0
C749 C 0.88052 0.72315 0.02746 0.0
C750 C 0.86397 0.72685 0.04678 0.0
H751 H 0.90992 0.75252 0.79843 0.0
H752 H 0.9037 0.75924 0.86077 0.0
C753 C 0.85995 0.72084 0.08268 0.0
C754 C 0.88265 0.72658 0.98848 0.0
H755 H 0.92359 0.74985 0.92146 0.0
C756 C 0.86195 0.71372 0.96779 0.0
C757 C 0.90497 0.74077 0.97147 0.0
C758 C 0.92757 0.75641 0.99205 0.0
C759 C 0.86322 0.71333 0.93075 0.0
C760 C 0.88582 0.7258 0.91395 0.0
C761 C 0.9063 0.74003 0.9344 0.0
C762 C 0.8888 0.7221 0.87593 0.0
C763 C 0.84039 0.69902 0.90996 0.0
C764 C 0.88272 0.69911 0.86397 0.0
C765 C 0.88629 0.69526 0.82873 0.0
C766 C 0.89615 0.71434 0.80452 0.0
C767 C 0.90218 0.73743 0.81641 0.0
C768 C 0.89868 0.7413 0.85196 0.0
H769 H 0.82466 0.69735 0.92466 0.0
H770 H 0.8414 0.70733 0.88385 0.0
H771 H 0.8374 0.68067 0.90543 0.0
H772 H 0.87555 0.68412 0.88214 0.0
H773 H 0.88149 0.67726 0.82059 0.0
H774 H 0.35426 0.22929 0.32165 0.0
H775 H 0.35255 0.21332 0.38077 0.0
H776 H 0.32984 0.14347 0.33614 0.0
H777 H 0.33151 0.15932 0.27671 0.0
H778 H 0.29895 0.14445 0.38903 0.0
H779 H 0.39337 0.19055 0.43432 0.0
H780 H 0.3844 0.21049 0.41553 0.0
H781 H 0.38519 0.18798 0.38813 0.0
C782 C 0.34952 0.21067 0.32429 0.0
C783 C 0.343 0.19558 0.29449 0.0
C784 C 0.34861 0.20159 0.35811 0.0
C785 C 0.34118 0.17724 0.36281 0.0
C786 C 0.33573 0.16234 0.33302 0.0
H787 H 0.33779 0.12656 0.5784 0.0
H788 H 0.3413 0.1293 0.51398 0.0
C789 C 0.33684 0.17147 0.29908 0.0
C790 C 0.33671 0.16708 0.39896 0.0
H791 H 0.36324 0.17397 0.47953 0.0
C792 C 0.31305 0.15058 0.40872 0.0
C793 C 0.35515 0.17494 0.42448 0.0
C794 C 0.381 0.1918 0.41507 0.0
C795 C 0.30717 0.1427 0.44382 0.0
C796 C 0.3254 0.15171 0.46977 0.0
C797 C 0.34924 0.16722 0.45962 0.0
C798 C 0.32008 0.14662 0.50794 0.0
C799 C 0.28146 0.12513 0.45298 0.0
C800 C 0.30649 0.15496 0.52582 0.0
C801 C 0.30446 0.15348 0.56269 0.0
C802 C 0.31608 0.14371 0.58234 0.0
C803 C 0.32856 0.13415 0.56413 0.0
C804 C 0.33068 0.13576 0.52729 0.0
H805 H 0.27115 0.11494 0.42932 0.0
H806 H 0.28036 0.11225 0.47343 0.0
H807 H 0.27284 0.13507 0.46371 0.0
H808 H 0.29846 0.16373 0.51144 0.0
H809 H 0.29479 0.16107 0.57586 0.0
H810 H 0.91725 0.2004 0.30098 0.0
H811 H 0.91233 0.20534 0.36414 0.0
H812 H 0.83578 0.16107 0.35354 0.0
H813 H 0.84044 0.15587 0.29034 0.0
H814 H 0.85608 0.20809 0.39588 0.0
H815 H 0.88898 0.1461 0.43537 0.0
H816 H 0.90629 0.16908 0.40352 0.0
H817 H 0.87704 0.14526 0.39182 0.0
C818 C 0.89932 0.19195 0.31192 0.0
C819 C 0.87922 0.17763 0.29063 0.0
C820 C 0.89659 0.1947 0.34805 0.0
C821 C 0.87374 0.18333 0.36343 0.0
C822 C 0.85357 0.16988 0.34207 0.0
H823 H 0.81147 0.17293 0.56923 0.0
H824 H 0.81991 0.17199 0.50649 0.0
C825 C 0.85628 0.16695 0.30599 0.0
C826 C 0.87087 0.1848 0.40204 0.0
H827 H 0.8781 0.16371 0.48116 0.0
C828 C 0.86092 0.19846 0.4146 0.0
C829 C 0.87742 0.17236 0.42624 0.0
C830 C 0.88793 0.15723 0.41378 0.0
C831 C 0.85731 0.2 0.45094 0.0
C832 C 0.86317 0.18694 0.47519 0.0
C833 C 0.87353 0.17362 0.46257 0.0
C834 C 0.85802 0.18633 0.5136 0.0
C835 C 0.84759 0.21591 0.46299 0.0
C836 C 0.87643 0.19352 0.53872 0.0
C837 C 0.87158 0.19369 0.57483 0.0
C838 C 0.84822 0.1867 0.58634 0.0
C839 C 0.82971 0.17871 0.5612 0.0
C840 C 0.83453 0.17834 0.52526 0.0
H841 H 0.85121 0.23008 0.44325 0.0
H842 H 0.82787 0.20491 0.46623 0.0
H843 H 0.85548 0.22462 0.48873 0.0
H844 H 0.89465 0.19952 0.53032 0.0
H845 H 0.88621 0.19994 0.59358 0.0
H846 H 0.94633 0.75356 0.59008 0.0
H847 H 0.94717 0.7562 0.52546 0.0
H848 H 0.87412 0.74177 0.52575 0.0
H849 H 0.87341 0.7399 0.58999 0.0
H850 H 0.92096 0.71976 0.48458 0.0
H851 H 0.90061 0.79074 0.4495 0.0
H852 H 0.90972 0.78797 0.4936 0.0
H853 H 0.87875 0.77059 0.48033 0.0
C854 C 0.93071 0.75172 0.57643 0.0
C855 C 0.90975 0.74637 0.59525 0.0
C856 C 0.9312 0.75318 0.53945 0.0
C857 C 0.91078 0.74938 0.52058 0.0
C858 C 0.89033 0.7454 0.53953 0.0
H859 H 0.84582 0.6683 0.33947 0.0
H860 H 0.86431 0.68581 0.39603 0.0
C861 C 0.88989 0.74413 0.57644 0.0
C862 C 0.90944 0.74599 0.48151 0.0
H863 H 0.88796 0.75811 0.40642 0.0
C864 C 0.91429 0.72861 0.46738 0.0
C865 C 0.90115 0.75773 0.45869 0.0
C866 C 0.89754 0.77798 0.47132 0.0
C867 C 0.90936 0.7214 0.43187 0.0
C868 C 0.89876 0.73141 0.41005 0.0
C869 C 0.89566 0.7501 0.42332 0.0
C870 C 0.88854 0.72098 0.37491 0.0
C871 C 0.91496 0.70263 0.41836 0.0
C872 C 0.89563 0.73506 0.34415 0.0
C873 C 0.8849 0.72506 0.3115 0.0
C874 C 0.86674 0.70089 0.30923 0.0
C875 C 0.85981 0.68692 0.34013 0.0
C876 C 0.87051 0.69688 0.37255 0.0
H877 H 0.9301 0.70315 0.43321 0.0
H878 H 0.89906 0.68461 0.42216 0.0
H879 H 0.91954 0.70507 0.38977 0.0
H880 H 0.90937 0.75377 0.34544 0.0
H881 H 0.89054 0.73633 0.28821 0.0
H882 H 0.97434 0.42259 0.95903 0.0
H883 H 0.99625 0.40199 0.94215 0.0
H884 H 0.05663 0.45237 0.00461 0.0
H885 H 0.03427 0.47198 0.02317 0.0
H886 H 0.03343 0.4149 0.90532 0.0
H887 H 0.05541 0.39386 0.03646 0.0
H888 H 0.03477 0.40489 0.03121 0.0
H889 H 0.06664 0.42543 0.03297 0.0
C890 C 0.99211 0.42895 0.96972 0.0
C891 C 1.00241 0.44876 0.9928 0.0
C892 C 1.00471 0.41722 0.95992 0.0
C893 C 0.02808 0.42521 0.97251 0.0
C894 C 0.03839 0.44513 0.99543 0.0
H895 H 0.13386 0.40175 0.8631 0.0
H896 H 0.10562 0.4145 0.88191 0.0
C897 C 0.02559 0.4565 0.00589 0.0
C898 C 0.04213 0.41367 0.96005 0.0
H899 H 0.07941 0.39338 0.98798 0.0
C900 C 0.04322 0.40993 0.92355 0.0
C901 C 0.05464 0.40659 0.98355 0.0
C902 C 0.05257 0.40765 0.02321 0.0
C903 C 0.05684 0.40006 0.90994 0.0
C904 C 0.07079 0.39469 0.93324 0.0
C905 C 0.06914 0.39777 0.96982 0.0
C906 C 0.08741 0.38621 0.92046 0.0
C907 C 0.05559 0.39505 0.87073 0.0
C908 C 0.08737 0.36642 0.93638 0.0
C909 C 0.10408 0.35952 0.92633 0.0
C910 C 0.12104 0.372 0.8997 0.0
C911 C 0.12075 0.39143 0.88321 0.0
C912 C 0.10443 0.39867 0.89385 0.0
H913 H 0.0382 0.39156 0.85947 0.0
H914 H 0.06995 0.411 0.85707 0.0
H915 H 0.05787 0.37938 0.86487 0.0
H916 H 0.07457 0.35644 0.95701 0.0
H917 H 0.10387 0.34455 0.93968 0.0
H918 H 0.62159 0.80549 0.99059 0.0
H919 H 0.6002 0.76245 0.00207 0.0
H920 H 0.60801 0.74861 0.89262 0.0
H921 H 0.62927 0.79185 0.88069 0.0
H922 H 0.56247 0.71536 0.92186 0.0
H923 H 0.63711 0.72584 0.00753 0.0
H924 H 0.62446 0.7441 0.02035 0.0
H925 H 0.63979 0.74935 0.9787 0.0
C926 C 0.61853 0.79335 0.96875 0.0
C927 C 0.6274 0.80225 0.93474 0.0
C928 C 0.60636 0.76867 0.97545 0.0
C929 C 0.60291 0.75223 0.94843 0.0
C930 C 0.61056 0.76092 0.91399 0.0
H931 H 0.58326 0.61036 0.97138 0.0
H932 H 0.59607 0.65211 0.95886 0.0
C933 C 0.6227 0.78569 0.90719 0.0
C934 C 0.59261 0.72621 0.95664 0.0
H935 H 0.60271 0.6874 0.00541 0.0
C936 C 0.57123 0.70922 0.94017 0.0
C937 C 0.60415 0.71812 0.98026 0.0
C938 C 0.62775 0.73524 0.99752 0.0
C939 C 0.56106 0.68446 0.94684 0.0
C940 C 0.57243 0.67644 0.9709 0.0
C941 C 0.59382 0.69347 0.98726 0.0
C942 C 0.56356 0.65047 0.97778 0.0
C943 C 0.53861 0.66703 0.92732 0.0
C944 C 0.5409 0.63538 0.99282 0.0
C945 C 0.5334 0.61119 1.00011 0.0
C946 C 0.54848 0.60168 0.99265 0.0
C947 C 0.5711 0.61692 0.97759 0.0
C948 C 0.57852 0.64092 0.97036 0.0
H949 H 0.53506 0.67552 0.90431 0.0
H950 H 0.5399 0.65135 0.91782 0.0
H951 H 0.52309 0.66039 0.94556 0.0
H952 H 0.52916 0.64237 0.99943 0.0
H953 H 0.51592 0.60004 0.01179 0.0
H954 H 0.32144 0.86156 0.8551 0.0
H955 H 0.3643 0.87887 0.86769 0.0
H956 H 0.34877 0.86723 0.97923 0.0
H957 H 0.30617 0.84944 0.96689 0.0
H958 H 0.39114 0.91869 0.90369 0.0
H959 H 0.39736 0.846 0.97093 0.0
H960 H 0.37106 0.84066 0.94648 0.0
H961 H 0.37521 0.8511 0.99163 0.0
C962 C 0.32711 0.86212 0.88222 0.0
C963 C 0.31027 0.85407 0.90995 0.0
C964 C 0.35165 0.87211 0.88942 0.0
C965 C 0.35989 0.87414 0.92443 0.0
C966 C 0.34299 0.86535 0.95195 0.0
H967 H 0.48695 0.98498 0.01848 0.0
H968 H 0.4474 0.95684 0.99546 0.0
C969 C 0.31853 0.85531 0.9448 0.0
C970 C 0.38606 0.88773 0.93273 0.0
H971 H 0.42952 0.88638 0.98319 0.0
C972 C 0.39958 0.91142 0.92058 0.0
C973 C 0.39737 0.87831 0.95438 0.0
C974 C 0.38453 0.85253 0.96626 0.0
C975 C 0.42353 0.92625 0.93096 0.0
C976 C 0.43424 0.9174 0.95482 0.0
C977 C 0.42123 0.89332 0.96539 0.0
C978 C 0.45827 0.93342 0.97063 0.0
C979 C 0.43706 0.95142 0.91657 0.0
C980 C 0.47748 0.92909 0.96581 0.0
C981 C 0.50034 0.9452 0.97932 0.0
C982 C 0.50429 0.96585 0.99798 0.0
C983 C 0.48472 0.96947 0.00391 0.0
C984 C 0.46203 0.95343 0.99056 0.0
H985 H 0.42943 0.95291 0.89097 0.0
H986 H 0.43572 0.96386 0.93562 0.0
H987 H 0.45631 0.95728 0.91264 0.0
H988 H 0.47495 0.91363 0.95081 0.0
H989 H 0.51499 0.94185 0.97432 0.0
H990 H 0.4869 0.06035 0.63087 0.0
H991 H 0.46619 0.08201 0.64761 0.0
H992 H 0.46258 0.09832 0.53802 0.0
H993 H 0.48313 0.07633 0.52089 0.0
H994 H 0.48247 0.13013 0.63652 0.0
H995 H 0.39409 0.07475 0.57159 0.0
H996 H 0.41502 0.06411 0.578 0.0
H997 H 0.41962 0.08479 0.54297 0.0
C998 C 0.48141 0.06821 0.61017 0.0
C999 C 0.48668 0.06651 0.57447 0.0
C1000 C 0.46961 0.08069 0.61985 0.0
C1001 C 0.46267 0.09173 0.59414 0.0
C1002 C 0.46738 0.08964 0.55835 0.0
H1003 H 0.38895 0.17504 0.62383 0.0
H1004 H 0.41261 0.15847 0.59776 0.0
C1005 C 0.47918 0.07707 0.54858 0.0
C1006 C 0.45165 0.10638 0.60532 0.0
H1007 H 0.40062 0.11027 0.59999 0.0
C1008 C 0.46459 0.12579 0.62843 0.0
C1009 C 0.4284 0.10092 0.59458 0.0
C1010 C 0.41333 0.07991 0.57065 0.0
C1011 C 0.45486 0.13966 0.64138 0.0
C1012 C 0.43136 0.13379 0.63147 0.0
C1013 C 0.41865 0.11481 0.60757 0.0
C1014 C 0.41903 0.14601 0.64745 0.0
C1015 C 0.46992 0.16055 0.66553 0.0
C1016 C 0.41498 0.14482 0.68409 0.0
C1017 C 0.40155 0.1543 0.69904 0.0
C1018 C 0.39176 0.16518 0.67772 0.0
C1019 C 0.39649 0.1671 0.64113 0.0
C1020 C 0.40985 0.15745 0.62612 0.0
H1021 H 0.48935 0.16719 0.66175 0.0
H1022 H 0.46643 0.1756 0.66099 0.0
H1023 H 0.46542 0.1547 0.69344 0.0
H1024 H 0.42145 0.13572 0.70107 0.0
H1025 H 0.39813 0.15233 0.72725 0.0
H1026 H 0.84873 0.27498 0.67254 0.0
H1027 H 0.86357 0.31613 0.65114 0.0
H1028 H 0.93413 0.32511 0.63808 0.0
H1029 H 0.91965 0.28446 0.65891 0.0
H1030 H 0.90146 0.36045 0.67769 0.0
H1031 H 0.92085 0.34378 0.54079 0.0
H1032 H 0.90223 0.31981 0.5707 0.0
H1033 H 0.93433 0.33461 0.57431 0.0
C1034 C 0.86739 0.28575 0.66509 0.0
C1035 C 0.8829 0.27627 0.66724 0.0
C1036 C 0.87585 0.30925 0.65285 0.0
C1037 C 0.89988 0.32357 0.6423 0.0
C1038 C 0.91542 0.31428 0.64521 0.0
H1039 H 0.98855 0.46983 0.56129 0.0
H1040 H 0.97401 0.42886 0.58327 0.0
C1041 C 0.90705 0.29097 0.65739 0.0
C1042 C 0.90909 0.34838 0.62878 0.0
H1043 H 0.9363 0.38454 0.55746 0.0
C1044 C 0.9089 0.36568 0.65132 0.0
C1045 C 0.91905 0.35529 0.59446 0.0
C1046 C 0.91898 0.33737 0.56851 0.0
C1047 C 0.91874 0.38972 0.64071 0.0
C1048 C 0.92866 0.39662 0.60636 0.0
C1049 C 0.92887 0.37933 0.58384 0.0
C1050 C 0.93774 0.4214 0.59275 0.0
C1051 C 0.91885 0.40763 0.6667 0.0
C1052 C 0.92215 0.43063 0.59006 0.0
C1053 C 0.93035 0.45384 0.57757 0.0
C1054 C 0.95439 0.46849 0.56716 0.0
C1055 C 0.96998 0.4591 0.56918 0.0
C1056 C 0.96168 0.4357 0.58174 0.0
H1057 H 0.91718 0.40129 0.69442 0.0
H1058 H 0.93552 0.42525 0.66432 0.0
H1059 H 0.90339 0.41026 0.66114 0.0
H1060 H 0.9035 0.41981 0.59754 0.0
H1061 H 0.9177 0.46029 0.57619 0.0
H1062 H 0.84843 0.64827 0.63424 0.0
H1063 H 0.8098 0.62552 0.60352 0.0
H1064 H 0.77961 0.65815 0.67039 0.0
H1065 H 0.81779 0.68077 0.70109 0.0
H1066 H 0.76215 0.59317 0.63239 0.0
H1067 H 0.76739 0.67315 0.56805 0.0
H1068 H 0.79327 0.67323 0.58665 0.0
H1069 H 0.77217 0.67565 0.61508 0.0
C1070 C 0.8335 0.65042 0.64262 0.0
C1071 C 0.83632 0.66647 0.67004 0.0
C1072 C 0.81146 0.63747 0.62496 0.0
C1073 C 0.79197 0.64052 0.6342 0.0
C1074 C 0.79453 0.65589 0.66231 0.0
H1075 H 0.64467 0.58398 0.56189 0.0
H1076 H 0.6843 0.60761 0.58952 0.0
C1077 C 0.8164 0.6687 0.68 0.0
C1078 C 0.76886 0.62771 0.61469 0.0
H1079 H 0.73039 0.63678 0.56324 0.0
C1080 C 0.75527 0.60266 0.61704 0.0
C1081 C 0.75981 0.64016 0.59495 0.0
C1082 C 0.77395 0.66702 0.59068 0.0
C1083 C 0.73267 0.58976 0.6008 0.0
C1084 C 0.72364 0.60218 0.58086 0.0
C1085 C 0.73727 0.62725 0.57848 0.0
C1086 C 0.7002 0.58936 0.56204 0.0
C1087 C 0.71838 0.56297 0.60603 0.0
C1088 C 0.69623 0.57195 0.53639 0.0
C1089 C 0.67369 0.55846 0.52072 0.0
C1090 C 0.65464 0.56225 0.52994 0.0
C1091 C 0.65898 0.58065 0.55413 0.0
C1092 C 0.68158 0.59409 0.57005 0.0
H1093 H 0.72449 0.55728 0.62969 0.0
H1094 H 0.69899 0.55677 0.609 0.0
H1095 H 0.72073 0.5539 0.5826 0.0
H1096 H 0.71046 0.56843 0.52897 0.0
H1097 H 0.67107 0.54461 0.50191 0.0
H1098 H 0.81499 0.60518 0.11299 0.0
H1099 H 0.82829 0.57647 0.09896 0.0
H1100 H 0.87208 0.59797 0.19299 0.0
H1101 H 0.8582 0.62602 0.20779 0.0
H1102 H 0.87141 0.58575 0.08297 0.0
H1103 H 0.84394 0.52738 0.20059 0.0
H1104 H 0.83307 0.54793 0.19229 0.0
H1105 H 0.8618 0.55825 0.21303 0.0
C1106 C 0.82707 0.60344 0.13109 0.0
C1107 C 0.83543 0.61787 0.16162 0.0
C1108 C 0.83471 0.58702 0.12299 0.0
C1109 C 0.85097 0.58466 0.14511 0.0
C1110 C 0.859 0.59879 0.17595 0.0
H1111 H 0.95743 0.54551 0.12389 0.0
H1112 H 0.92819 0.55694 0.14294 0.0
C1113 C 0.85115 0.61501 0.1843 0.0
C1114 C 0.86119 0.5692 0.1343 0.0
H1115 H 0.87535 0.5277 0.16483 0.0
C1116 C 0.87177 0.57269 0.10065 0.0
C1117 C 0.86172 0.55203 0.15719 0.0
C1118 C 0.84928 0.54599 0.19262 0.0
C1119 C 0.88382 0.5605 0.09005 0.0
C1120 C 0.88534 0.54427 0.1136 0.0
C1121 C 0.87413 0.54012 0.14676 0.0
C1122 C 0.90092 0.53383 0.10567 0.0
C1123 C 0.89592 0.56592 0.05435 0.0
C1124 C 0.89493 0.51626 0.07927 0.0
C1125 C 0.9116 0.50936 0.06863 0.0
C1126 C 0.93452 0.52025 0.08398 0.0
C1127 C 0.93987 0.53681 0.11166 0.0
C1128 C 0.92318 0.54338 0.12257 0.0
H1129 H 0.8948 0.58049 0.04037 0.0
H1130 H 0.91509 0.57119 0.05741 0.0
H1131 H 0.88733 0.54957 0.03758 0.0
H1132 H 0.87779 0.50865 0.06593 0.0
H1133 H 0.90718 0.49681 0.04694 0.0
H1134 H 0.29716 0.27151 0.14499 0.0
H1135 H 0.31961 0.31307 0.12459 0.0
H1136 H 0.38567 0.31684 0.15684 0.0
H1137 H 0.36332 0.27572 0.17851 0.0
H1138 H 0.38719 0.35802 0.17102 0.0
H1139 H 0.35542 0.33153 0.03302 0.0
H1140 H 0.33174 0.32409 0.06423 0.0
H1141 H 0.34967 0.30982 0.06713 0.0
C1142 C 0.31645 0.28127 0.14809 0.0
C1143 C 0.32842 0.27014 0.16312 0.0
C1144 C 0.32931 0.30502 0.13612 0.0
C1145 C 0.35446 0.318 0.13823 0.0
C1146 C 0.36632 0.30725 0.15466 0.0
H1147 H 0.45693 0.42919 0.00702 0.0
H1148 H 0.42703 0.39288 0.03598 0.0
C1149 C 0.35347 0.28365 0.16705 0.0
C1150 C 0.36865 0.34237 0.12226 0.0
H1151 H 0.38047 0.37272 0.04399 0.0
C1152 C 0.38563 0.36128 0.14327 0.0
C1153 C 0.36684 0.34664 0.08592 0.0
C1154 C 0.35012 0.32693 0.06114 0.0
C1155 C 0.40118 0.38404 0.12889 0.0
C1156 C 0.39928 0.38831 0.09258 0.0
C1157 C 0.38184 0.36958 0.07185 0.0
C1158 C 0.41676 0.41105 0.07458 0.0
C1159 C 0.42023 0.40287 0.15238 0.0
C1160 C 0.42083 0.43363 0.086 0.0
C1161 C 0.43833 0.45473 0.06955 0.0
C1162 C 0.45183 0.45359 0.04102 0.0
C1163 C 0.44698 0.43089 0.0289 0.0
C1164 C 0.42978 0.40998 0.04548 0.0
H1165 H 0.42287 0.39502 0.17694 0.0
H1166 H 0.43764 0.41254 0.13827 0.0
H1167 H 0.41477 0.4161 0.16019 0.0
H1168 H 0.41063 0.43499 0.10779 0.0
H1169 H 0.44152 0.47188 0.07947 0.0
H1170 H 0.85197 0.11335 0.08268 0.0
H1171 H 0.80947 0.08999 0.06809 0.0
H1172 H 0.79195 0.07863 0.17907 0.0
H1173 H 0.8346 0.10253 0.19404 0.0
H1174 H 0.77182 0.04398 0.08183 0.0
H1175 H 0.75693 0.11337 0.14636 0.0
H1176 H 0.78652 0.11791 0.13816 0.0
H1177 H 0.769 0.09948 0.17443 0.0
C1178 C 0.83917 0.10561 0.10408 0.0
C1179 C 0.84677 0.11014 0.13959 0.0
C1180 C 0.8148 0.09217 0.09564 0.0
C1181 C 0.79742 0.08293 0.12244 0.0
C1182 C 0.80499 0.086 0.15791 0.0
H1183 H 0.64247 1.00162 0.06653 0.0
H1184 H 0.68161 1.01064 0.0907 0.0
C1185 C 0.82942 0.09953 0.16643 0.0
C1186 C 0.77157 0.07195 0.11296 0.0
H1187 H 0.72395 0.08152 0.11838 0.0
C1188 C 0.76122 0.05199 0.09014 0.0
C1189 C 0.7578 0.08255 0.12351 0.0
C1190 C 0.76809 0.10462 0.14672 0.0
C1191 C 0.73776 0.04277 0.07693 0.0
C1192 C 0.72421 0.05367 0.08706 0.0
C1193 C 0.73431 0.07312 0.11072 0.0
C1194 C 0.70057 0.04699 0.07089 0.0
C1195 C 0.72807 0.02217 0.05102 0.0
C1196 C 0.69816 0.06432 0.05174 0.0
C1197 C 0.67597 0.05928 0.0382 0.0
C1198 C 0.65546 0.03674 0.04342 0.0
C1199 C 0.6579 0.01908 0.06185 0.0
C1200 C 0.68027 0.02421 0.07561 0.0
H1201 H 0.74225 0.01856 0.04116 0.0
H1202 H 0.71412 1.00576 0.06422 0.0
H1203 H 0.71966 0.02587 0.02805 0.0
H1204 H 0.71352 0.08198 0.04762 0.0
H1205 H 0.67487 0.07331 0.02402 0.0
H1206 H 0.531 0.9823 0.46551 0.0
H1207 H 0.54487 0.95554 0.44319 0.0
H1208 H 0.56389 0.94674 0.54921 0.0
H1209 H 0.54964 0.97302 0.57178 0.0
H1210 H 0.58989 0.96444 0.44576 0.0
H1211 H 0.53298 0.87864 0.51426 0.0
H1212 H 0.52553 0.90223 0.51271 0.0
H1213 H 0.54664 0.90321 0.54484 0.0
C1214 C 0.53758 0.97422 0.48423 0.0
C1215 C 0.53917 0.97989 0.52051 0.0
C1216 C 0.54558 0.95893 0.47138 0.0
C1217 C 0.55525 0.94884 0.49447 0.0
C1218 C 0.55601 0.95376 0.53085 0.0
H1219 H 0.66763 0.91789 0.46016 0.0
H1220 H 0.64058 0.93293 0.47418 0.0
C1221 C 0.54795 0.96897 0.54374 0.0
C1222 C 0.56686 0.93539 0.48026 0.0
H1223 H 0.57051 0.88445 0.49095 0.0
C1224 C 0.58534 0.94679 0.4553 0.0
C1225 C 0.56086 0.91219 0.49222 0.0
C1226 C 0.54024 0.89825 0.5172 0.0
C1227 C 0.59867 0.93623 0.44337 0.0
C1228 C 0.59373 0.91378 0.45712 0.0
C1229 C 0.57449 0.90178 0.4807 0.0
C1230 C 0.60959 0.90358 0.4493 0.0
C1231 C 0.61821 0.94942 0.41644 0.0
C1232 C 0.60104 0.88158 0.43147 0.0
C1233 C 0.61661 0.87277 0.42334 0.0
C1234 C 0.64093 0.88575 0.4332 0.0
C1235 C 0.64911 0.90743 0.45184 0.0
C1236 C 0.63366 0.91617 0.45982 0.0
H1237 H 0.61513 0.96232 0.40103 0.0
H1238 H 0.63564 0.9597 0.43032 0.0
H1239 H 0.61952 0.93675 0.39777 0.0
H1240 H 0.58247 0.87146 0.42331 0.0
H1241 H 0.60969 0.85598 0.40908 0.0
H1242 H 0.05254 0.60662 0.46826 0.0
H1243 H 0.07842 0.64744 0.44578 0.0
H1244 H 0.05904 0.67617 0.53518 0.0
H1245 H 0.0326 0.63563 0.55664 0.0
H1246 H 0.05352 0.69438 0.47661 0.0
H1247 H 0.14301 0.70147 0.4729 0.0
H1248 H 0.12061 0.67664 0.44797 0.0
H1249 H 0.1178 0.67734 0.49527 0.0
C1250 C 0.05437 0.62174 0.48349 0.0
C1251 C 0.04067 0.61801 0.51425 0.0
C1252 C 0.06915 0.64508 0.47064 0.0
C1253 C 0.07084 0.66503 0.48882 0.0
C1254 C 0.058 0.66118 0.52049 0.0
H1255 H 0.17367 0.81478 0.46648 0.0
H1256 H 0.14942 0.77266 0.4824 0.0
C1257 C 0.043 0.63799 0.53289 0.0
C1258 C 0.08447 0.68981 0.47415 0.0
H1259 H 0.13996 0.73345 0.44747 0.0
C1260 C 0.07245 0.70291 0.47026 0.0
C1261 C 0.10918 0.70105 0.46591 0.0
C1262 C 0.12349 0.68851 0.47101 0.0
C1263 C 0.08445 0.72697 0.45928 0.0
C1264 C 0.10911 0.73815 0.45069 0.0
C1265 C 0.12103 0.7249 0.45384 0.0
C1266 C 0.1233 0.76399 0.44075 0.0
C1267 C 0.07075 0.74038 0.4585 0.0
C1268 C 0.11672 0.77342 0.41206 0.0
C1269 C 0.13042 0.79779 0.40325 0.0
C1270 C 0.15123 0.81306 0.4225 0.0
C1271 C 0.15777 0.80353 0.45105 0.0
C1272 C 0.14394 0.77937 0.46012 0.0
H1273 H 0.05423 0.73141 0.47485 0.0
H1274 H 0.08194 0.75904 0.46825 0.0
H1275 H 0.0653 0.74105 0.43089 0.0
H1276 H 0.10122 0.76188 0.39611 0.0
H1277 H 0.12511 0.80452 0.38081 0.0
H1278 H 0.31017 0.44362 0.43589 0.0
H1279 H 0.35189 0.46011 0.453 0.0
H1280 H 0.35905 0.4127 0.37935 0.0
H1281 H 0.31666 0.39547 0.36263 0.0
H1282 H 0.38088 0.41494 0.44077 0.0
H1283 H 0.40961 0.50747 0.39864 0.0
H1284 H 0.38516 0.49685 0.42927 0.0
H1285 H 0.38081 0.48245 0.38679 0.0
C1286 C 0.32055 0.43665 0.42319 0.0
C1287 C 0.31009 0.41834 0.39761 0.0
C1288 C 0.34454 0.44629 0.43284 0.0
C1289 C 0.35892 0.43824 0.41673 0.0
C1290 C 0.34841 0.41945 0.39185 0.0
H1291 H 0.51529 0.51604 0.45036 0.0
H1292 H 0.47531 0.50017 0.42409 0.0
C1293 C 0.32418 0.40956 0.38237 0.0
C1294 C 0.38466 0.44909 0.42691 0.0
H1295 H 0.43592 0.50292 0.43912 0.0
C1296 C 0.39298 0.43415 0.44001 0.0
C1297 C 0.40072 0.47415 0.4253 0.0
C1298 C 0.39369 0.49111 0.40886 0.0
C1299 C 0.41646 0.44362 0.45299 0.0
C1300 C 0.43193 0.46881 0.45385 0.0
C1301 C 0.42399 0.48367 0.4392 0.0
C1302 C 0.45616 0.48001 0.47045 0.0
C1303 C 0.42446 0.42644 0.46544 0.0
C1304 C 0.45873 0.4749 0.50574 0.0
C1305 C 0.48147 0.48384 0.52069 0.0
C1306 C 0.50224 0.49849 0.50094 0.0
C1307 C 0.49966 0.50489 0.46634 0.0
C1308 C 0.47681 0.4957 0.45122 0.0
H1309 H 0.41394 0.40861 0.45258 0.0
H1310 H 0.44375 0.43341 0.45985 0.0
H1311 H 0.42158 0.42384 0.49441 0.0
H1312 H 0.44311 0.46356 0.52159 0.0
H1313 H 0.4828 0.47874 0.54752 0.0
H1314 H 0.77665 0.68652 0.26762 0.0
H1315 H 0.75191 0.70183 0.29351 0.0
H1316 H 0.7497 0.73181 0.19266 0.0
H1317 H 0.77467 0.71699 0.16684 0.0
H1318 H 0.76424 0.7647 0.24563 0.0
H1319 H 0.68143 0.68239 0.28688 0.0
H1320 H 0.70868 0.68466 0.30325 0.0
H1321 H 0.70278 0.68171 0.2565 0.0
C1322 C 0.77047 0.69592 0.25077 0.0
C1323 C 0.77774 0.70057 0.21514 0.0
C1324 C 0.75622 0.70461 0.2656 0.0
C1325 C 0.74874 0.71786 0.24501 0.0
C1326 C 0.7552 0.72164 0.20912 0.0
H1327 H 0.68001 0.80298 0.27451 0.0
H1328 H 0.69558 0.77779 0.25195 0.0
C1329 C 0.76949 0.71311 0.19436 0.0
C1330 C 0.73614 0.72973 0.26123 0.0
H1331 H 0.68562 0.71958 0.30596 0.0
C1332 C 0.747 0.75477 0.25866 0.0
C1333 C 0.71373 0.71685 0.2786 0.0
C1334 C 0.70082 0.6899 0.28129 0.0
C1335 C 0.73617 0.76726 0.27285 0.0
C1336 C 0.71361 0.7544 0.28971 0.0
C1337 C 0.70286 0.7294 0.2929 0.0
C1338 C 0.70102 0.76687 0.30356 0.0
C1339 C 0.74912 0.79424 0.27001 0.0
C1340 C 0.69782 0.76824 0.34009 0.0
C1341 C 0.68878 0.78263 0.35319 0.0
C1342 C 0.68272 0.79586 0.32992 0.0
C1343 C 0.68461 0.79322 0.29326 0.0
C1344 C 0.69362 0.77887 0.28026 0.0
H1345 H 0.76847 0.80174 0.26411 0.0
H1346 H 0.7411 0.79947 0.24825 0.0
H1347 H 0.74736 0.80248 0.29488 0.0
H1348 H 0.70331 0.75904 0.35855 0.0
H1349 H 0.68757 0.78422 0.38156 0.0
H1350 H 0.25348 0.14448 0.26872 0.0
H1351 H 0.22791 0.10671 0.30027 0.0
H1352 H 0.22379 0.06683 0.20607 0.0
H1353 H 0.24905 0.10418 0.17469 0.0
H1354 H 0.17968 0.0474 0.24578 0.0
H1355 H 0.25868 0.06551 0.32845 0.0
H1356 H 0.24941 0.08768 0.32819 0.0
H1357 H 0.26168 0.08234 0.28881 0.0
C1358 C 0.24646 0.12766 0.25453 0.0
C1359 C 0.25331 0.12725 0.21929 0.0
C1360 C 0.23208 0.1061 0.27265 0.0
C1361 C 0.22427 0.08394 0.25566 0.0
C1362 C 0.22965 0.08368 0.21976 0.0
H1363 H 0.17372 0.93622 0.27132 0.0
H1364 H 0.1815 0.9763 0.25683 0.0
C1365 C 0.2441 0.10507 0.20184 0.0
C1366 C 0.21248 0.06089 0.27533 0.0
H1367 H 0.22514 0.02718 0.33155 0.0
C1368 C 0.18942 0.04308 0.26506 0.0
C1369 C 0.22516 0.05527 0.30057 0.0
C1370 C 0.25015 0.07357 0.31218 0.0
C1371 C 0.1791 0.01959 0.27825 0.0
C1372 C 0.19247 1.01357 0.30167 0.0
C1373 C 0.21492 0.03172 0.31352 0.0
C1374 C 0.18476 0.98826 0.31119 0.0
C1375 C 0.15419 1.00141 0.26646 0.0
C1376 C 0.18412 0.98145 0.34667 0.0
C1377 C 0.17987 0.95843 0.35511 0.0
C1378 C 0.17639 0.94182 0.32818 0.0
C1379 C 0.1762 0.94845 0.2928 0.0
C1380 C 0.18048 0.9714 0.28442 0.0
H1381 H 0.14346 1.01016 0.26031 0.0
H1382 H 0.15531 0.9925 0.24192 0.0
H1383 H 0.14464 0.98751 0.28694 0.0
H1384 H 0.18754 0.99418 0.36782 0.0
H1385 H 0.18025 0.954 0.38262 0.0
H1386 H 0.18223 0.3037 0.31345 0.0
H1387 H 0.1451 0.26957 0.29018 0.0
H1388 H 0.10545 0.30404 0.32319 0.0
H1389 H 0.14201 0.33788 0.34599 0.0
H1390 H 0.09967 0.23794 0.32261 0.0
H1391 H 0.09052 0.29216 0.21695 0.0
H1392 H 0.11809 0.30207 0.24108 0.0
H1393 H 0.0943 0.30561 0.25986 0.0
C1394 C 0.16555 0.30387 0.31595 0.0
C1395 C 0.16519 0.32368 0.33124 0.0
C1396 C 0.14436 0.28439 0.3026 0.0
C1397 C 0.12257 0.2845 0.30423 0.0
C1398 C 0.12211 0.30379 0.32083 0.0
H1399 H 0.97402 0.18268 0.29822 0.0
H1400 H 1.01649 0.20638 0.31218 0.0
C1401 C 0.1431 0.32313 0.33402 0.0
C1402 C 0.10014 0.26486 0.2884 0.0
H1403 H 0.05499 0.25538 0.23161 0.0
C1404 C 0.09005 0.24162 0.3023 0.0
C1405 C 0.08777 0.26947 0.26137 0.0
C1406 C 0.09833 0.29362 0.24366 0.0
C1407 C 0.06727 0.22328 0.2914 0.0
C1408 C 0.05407 0.22846 0.2664 0.0
C1409 C 0.06486 0.25134 0.25102 0.0
C1410 C 0.02847 0.21124 0.25772 0.0
C1411 C 0.05756 0.19863 0.30704 0.0
C1412 C 1.02075 0.206 0.22235 0.0
C1413 C 0.99625 0.19259 0.21418 0.0
C1414 C 0.97893 0.18425 0.24125 0.0
C1415 C 0.98679 0.18868 0.27664 0.0
C1416 C 1.0112 0.20213 0.28474 0.0
H1417 H 0.07231 0.19528 0.31467 0.0
H1418 H 0.04728 0.19727 0.33136 0.0
H1419 H 0.04552 0.18443 0.28823 0.0
H1420 H 0.03366 0.21291 0.20097 0.0
H1421 H 0.99088 0.18962 0.18665 0.0
H1422 H 0.26224 0.20287 0.67233 0.0
H1423 H 0.24551 0.22645 0.69695 0.0
H1424 H 0.30844 0.26579 0.76166 0.0
H1425 H 0.32552 0.24213 0.7369 0.0
H1426 H 0.23504 0.22979 0.76851 0.0
H1427 H 0.30027 0.31887 0.71323 0.0
H1428 H 0.29757 0.29131 0.6965 0.0
H1429 H 0.31275 0.30368 0.73759 0.0
C1430 C 0.27273 0.21666 0.69156 0.0
C1431 C 0.29534 0.2206 0.70249 0.0
C1432 C 0.26304 0.2301 0.70575 0.0
C1433 C 0.27568 0.24799 0.73109 0.0
C1434 C 0.29843 0.25228 0.74182 0.0
H1435 H 0.20744 0.31551 0.85409 0.0
H1436 H 0.22741 0.29267 0.83816 0.0
C1437 C 0.30818 0.23873 0.72764 0.0
C1438 C 0.26457 0.2616 0.74641 0.0
H1439 H 0.26953 0.31705 0.74933 0.0
C1440 C 0.24268 0.24892 0.76459 0.0
C1441 C 0.27442 0.28652 0.74106 0.0
C1442 C 0.29745 0.30098 0.72083 0.0
C1443 C 0.23026 0.26036 0.77707 0.0
C1444 C 0.24002 0.28525 0.77151 0.0
C1445 C 0.26208 0.298 0.75377 0.0
C1446 C 0.22697 0.29814 0.78175 0.0
C1447 C 0.20633 0.24556 0.79496 0.0
C1448 C 0.22001 0.30881 0.75548 0.0
C1449 C 0.20858 0.32177 0.76446 0.0
C1450 C 0.20393 0.32461 0.80007 0.0
C1451 C 0.21053 0.31354 0.82641 0.0
C1452 C 0.22196 0.30047 0.81733 0.0
H1453 H 0.19914 0.22603 0.79101 0.0
H1454 H 0.2084 0.24929 0.82381 0.0
H1455 H 0.19306 0.25033 0.78481 0.0
H1456 H 0.2236 0.30725 0.72786 0.0
H1457 H 0.20386 0.33002 0.74339 0.0
H1458 H 0.78961 0.10571 0.67503 0.0
H1459 H 0.76387 0.06716 0.7031 0.0
H1460 H 0.76217 0.10338 0.79835 0.0
H1461 H 0.78762 0.14227 0.76986 0.0
H1462 H 0.77766 0.05194 0.75861 0.0
H1463 H 0.69288 0.04997 0.79263 0.0
H1464 H 0.71426 0.07121 0.76168 0.0
H1465 H 0.71914 0.07622 0.80852 0.0
C1466 C 0.78331 0.10554 0.70168 0.0
C1467 C 0.79076 0.12712 0.72022 0.0
C1468 C 0.76857 0.08342 0.71775 0.0
C1469 C 0.76092 0.08219 0.75289 0.0
C1470 C 0.76737 0.10373 0.77101 0.0
H1471 H 0.73498 0.96834 0.89613 0.0
H1472 H 0.747 1.00623 0.86645 0.0
C1473 C 0.78201 0.12601 0.75472 0.0
C1474 C 0.74879 0.05852 0.77137 0.0
H1475 H 0.69937 0.01999 0.8196 0.0
C1476 C 0.76044 0.04495 0.77165 0.0
C1477 C 0.72621 0.04916 0.78828 0.0
C1478 C 0.71225 0.06226 0.78755 0.0
C1479 C 0.7505 0.02269 0.78875 0.0
C1480 C 0.72844 1.01375 0.80681 0.0
C1481 C 0.71637 0.02693 0.80597 0.0
C1482 C 0.71847 0.99121 0.82779 0.0
C1483 C 0.76383 1.0089 0.78737 0.0
C1484 C 0.6977 0.9702 0.81698 0.0
C1485 C 0.6906 0.94828 0.83419 0.0
C1486 C 0.70426 0.9471 0.86236 0.0
C1487 C 0.72418 0.96849 0.87427 0.0
C1488 C 0.73112 0.99024 0.85732 0.0
H1489 H 0.77707 0.01509 0.76546 0.0
H1490 H 0.77365 1.01153 0.8126 0.0
H1491 H 0.75122 0.98941 0.78396 0.0
H1492 H 0.68763 0.97054 0.79427 0.0
H1493 H 0.6752 0.93214 0.82434 0.0
H1494 H 0.15172 0.82225 0.8634 0.0
H1495 H 0.11286 0.79864 0.83511 0.0
H1496 H 0.14027 0.76067 0.7743 0.0
H1497 H 0.17954 0.78426 0.8032 0.0
H1498 H 0.10536 0.79951 0.76414 0.0
H1499 H 0.07481 0.70631 0.80813 0.0
H1500 H 0.09868 0.73216 0.83005 0.0
H1501 H 0.1042 0.72194 0.78871 0.0
C1502 C 0.1495 0.80866 0.84439 0.0
C1503 C 0.16884 0.80524 0.83547 0.0
C1504 C 0.12719 0.79514 0.8282 0.0
C1505 C 0.12351 0.7778 0.80259 0.0
C1506 C 0.14252 0.77368 0.79437 0.0
H1507 H 1.00526 0.73361 0.65257 0.0
H1508 H 0.04448 0.74569 0.67839 0.0
C1509 C 0.16498 0.78721 0.81083 0.0
C1510 C 0.10035 0.76576 0.7829 0.0
H1511 H 0.0501 0.71165 0.76705 0.0
C1512 C 0.09335 0.78027 0.76465 0.0
C1513 C 0.08455 0.74068 0.78378 0.0
C1514 C 0.09074 0.72429 0.80392 0.0
C1515 C 0.07101 0.77056 0.74775 0.0
C1516 C 0.05525 0.74546 0.7483 0.0
C1517 C 0.06225 0.73084 0.76634 0.0
C1518 C 0.0311 0.73448 0.73152 0.0
C1519 C 0.06416 0.78745 0.73049 0.0
C1520 C 1.01029 0.72286 0.75232 0.0
C1521 C 0.98771 0.71566 0.73752 0.0
C1522 C 0.98553 0.72 0.70159 0.0
C1523 C 1.00627 0.73021 0.68039 0.0
C1524 C 0.02876 0.73724 0.69515 0.0
H1525 H 0.07557 0.80621 0.73977 0.0
H1526 H 0.06644 0.78715 0.70142 0.0
H1527 H 0.04514 0.78191 0.73595 0.0
H1528 H 1.01161 0.72041 0.78041 0.0
H1529 H 0.97215 0.70783 0.75464 0.0
loop_
_geom_bond_atom_site_label_1
_geom_bond_atom_site_label_2
_geom_bond_distance
_geom_bond_site_symmetry_2
_ccdc_geom_bond_type
Mg0 O7 2.141 1_554 S
Mg0 O8 2.048 . S
Mg0 O9 2.048 . S
Mg0 O12 2.141 . S
C1 O2 1.313 . S
C1 O8 1.195 . S
O2 C1 1.313 . S
C3 O4 1.245 . S
C3 O12 1.289 1_655 S
O4 C3 1.245 . S
C5 O6 1.245 1_455 S
C5 O7 1.289 . S
O6 C5 1.245 1_655 S
O7 Mg0 2.141 1_556 S
O7 C5 1.289 . S
O8 Mg0 2.048 . S
O8 C1 1.195 . S
O9 Mg0 2.048 . S
O9 C10 1.195 . S
C10 O9 1.195 . S
C10 O11 1.313 . S
O11 C10 1.313 . S
O12 Mg0 2.141 . S
O12 C3 1.289 1_455 S
Mg13 O20 2.141 1_554 S
Mg13 O21 2.048 . S
Mg13 O22 2.048 . S
Mg13 O25 2.141 . S
C14 O15 1.313 . S
C14 O21 1.195 . S
O15 C14 1.313 . S
C16 O17 1.245 . S
C16 O25 1.289 . S
O17 C16 1.245 . S
C18 O19 1.245 . S
C18 O20 1.289 . S
O19 C18 1.245 . S
O20 Mg13 2.141 1_556 S
O20 C18 1.289 . S
O21 Mg13 2.048 . S
O21 C14 1.195 . S
O22 Mg13 2.048 . S
O22 C23 1.195 . S
C23 O22 1.195 . S
C23 O24 1.313 . S
O24 C23 1.313 . S
O25 Mg13 2.141 . S
O25 C16 1.289 . S
Mg26 O33 2.141 1_545 S
Mg26 O34 2.048 1_554 S
Mg26 O35 2.048 . S
Mg26 O38 2.141 . S
C27 O28 1.313 1_545 S
C27 O34 1.195 . S
O28 C27 1.313 1_565 S
C29 O30 1.245 . S
C29 O38 1.289 1_565 S
O30 C29 1.245 . S
C31 O32 1.245 . S
C31 O33 1.289 . S
O32 C31 1.245 . S
O33 Mg26 2.141 1_565 S
O33 C31 1.289 . S
O34 Mg26 2.048 1_556 S
O34 C27 1.195 . S
O35 Mg26 2.048 . S
O35 C36 1.195 . S
C36 O35 1.195 . S
C36 O37 1.313 . S
O37 C36 1.313 . S
O38 Mg26 2.141 . S
O38 C29 1.289 1_545 S
Mg39 O46 2.141 . S
Mg39 O47 2.048 . S
Mg39 O48 2.048 . S
Mg39 O51 2.141 . S
C40 O41 1.313 . S
C40 O47 1.195 1_565 S
O41 C40 1.313 . S
C42 O43 1.245 . S
C42 O51 1.289 . S
O43 C42 1.245 . S
C44 O45 1.245 1_545 S
C44 O46 1.289 . S
O45 C44 1.245 1_565 S
O46 Mg39 2.141 . S
O46 C44 1.289 . S
O47 Mg39 2.048 . S
O47 C40 1.195 1_545 S
O48 Mg39 2.048 . S
O48 C49 1.195 . S
C49 O48 1.195 . S
C49 O50 1.313 1_545 S
O50 C49 1.313 1_565 S
O51 Mg39 2.141 . S
O51 C42 1.289 . S
Mg52 O59 2.141 . S
Mg52 O60 2.048 . S
Mg52 O61 2.048 . S
Mg52 O64 2.141 1_455 S
C53 O54 1.313 . S
C53 O60 1.195 . S
O54 C53 1.313 . S
C55 O56 1.245 1_655 S
C55 O64 1.289 . S
O56 C55 1.245 1_455 S
C57 O58 1.245 . S
C57 O59 1.289 . S
O58 C57 1.245 . S
O59 Mg52 2.141 . S
O59 C57 1.289 . S
O60 Mg52 2.048 . S
O60 C53 1.195 . S
O61 Mg52 2.048 . S
O61 C62 1.195 . S
C62 O61 1.195 . S
C62 O63 1.313 . S
O63 C62 1.313 . S
O64 Mg52 2.141 1_655 S
O64 C55 1.289 . S
Mg65 O72 2.141 . S
Mg65 O73 2.048 . S
Mg65 O74 2.048 . S
Mg65 O77 2.141 . S
C66 O67 1.313 . S
C66 O73 1.195 . S
O67 C66 1.313 . S
C68 O69 1.245 . S
C68 O77 1.289 . S
O69 C68 1.245 . S
C70 O71 1.245 . S
C70 O72 1.289 . S
O71 C70 1.245 . S
O72 Mg65 2.141 . S
O72 C70 1.289 . S
O73 Mg65 2.048 . S
O73 C66 1.195 . S
O74 Mg65 2.048 . S
O74 C75 1.195 . S
C75 O74 1.195 . S
C75 O76 1.313 . S
O76 C75 1.313 . S
O77 Mg65 2.141 . S
O77 C68 1.289 . S
Mg78 O85 2.141 . S
Mg78 O86 2.048 . S
Mg78 O87 2.048 . S
Mg78 O90 2.141 . S
C79 O80 1.313 . S
C79 O86 1.195 . S
O80 C79 1.313 . S
C81 O82 1.245 . S
C81 O90 1.289 . S
O82 C81 1.245 . S
C83 O84 1.245 . S
C83 O85 1.289 . S
O84 C83 1.245 . S
O85 Mg78 2.141 . S
O85 C83 1.289 . S
O86 Mg78 2.048 . S
O86 C79 1.195 . S
O87 Mg78 2.048 . S
O87 C88 1.195 . S
C88 O87 1.195 . S
C88 O89 1.313 . S
O89 C88 1.313 . S
O90 Mg78 2.141 . S
O90 C81 1.289 . S
Mg91 O98 2.141 . S
Mg91 O99 2.048 . S
Mg91 O100 2.048 . S
Mg91 O103 2.141 . S
C92 O93 1.313 . S
C92 O99 1.195 . S
O93 C92 1.313 . S
C94 O95 1.245 . S
C94 O103 1.289 . S
O95 C94 1.245 . S
C96 O97 1.245 . S
C96 O98 1.289 . S
O97 C96 1.245 . S
O98 Mg91 2.141 . S
O98 C96 1.289 . S
O99 Mg91 2.048 . S
O99 C92 1.195 . S
O100 Mg91 2.048 . S
O100 C101 1.195 . S
C101 O100 1.195 . S
C101 O102 1.313 . S
O102 C101 1.313 . S
O103 Mg91 2.141 . S
O103 C94 1.289 . S
Mg104 O111 2.141 . S
Mg104 O112 2.048 . S
Mg104 O113 2.048 . S
Mg104 O116 2.141 . S
C105 O106 1.313 . S
C105 O112 1.195 . S
O106 C105 1.313 . S
C107 O108 1.245 . S
C107 O116 1.289 . S
O108 C107 1.245 . S
C109 O110 1.245 . S
C109 O111 1.289 . S
O110 C109 1.245 . S
O111 Mg104 2.141 . S
O111 C109 1.289 . S
O112 Mg104 2.048 . S
O112 C105 1.195 . S
O113 Mg104 2.048 . S
O113 C114 1.195 . S
C114 O113 1.195 . S
C114 O115 1.313 . S
O115 C114 1.313 . S
O116 Mg104 2.141 . S
O116 C107 1.289 . S
Mg117 O124 2.141 . S
Mg117 O125 2.048 . S
Mg117 O126 2.048 . S
Mg117 O129 2.141 . S
C118 O119 1.313 . S
C118 O125 1.195 . S
O119 C118 1.313 . S
C120 O121 1.245 . S
C120 O129 1.289 . S
O121 C120 1.245 . S
C122 O123 1.245 . S
C122 O124 1.289 . S
O123 C122 1.245 . S
O124 Mg117 2.141 . S
O124 C122 1.289 . S
O125 Mg117 2.048 . S
O125 C118 1.195 . S
O126 Mg117 2.048 . S
O126 C127 1.195 . S
C127 O126 1.195 . S
C127 O128 1.313 . S
O128 C127 1.313 . S
O129 Mg117 2.141 . S
O129 C120 1.289 . S
Mg130 O137 2.141 . S
Mg130 O138 2.048 . S
Mg130 O139 2.048 . S
Mg130 O142 2.141 . S
C131 O132 1.313 . S
C131 O138 1.195 . S
O132 C131 1.313 . S
C133 O134 1.245 . S
C133 O142 1.289 . S
O134 C133 1.245 . S
C135 O136 1.245 . S
C135 O137 1.289 . S
O136 C135 1.245 . S
O137 Mg130 2.141 . S
O137 C135 1.289 . S
O138 Mg130 2.048 . S
O138 C131 1.195 . S
O139 Mg130 2.048 . S
O139 C140 1.195 . S
C140 O139 1.195 . S
C140 O141 1.313 . S
O141 C140 1.313 . S
O142 Mg130 2.141 . S
O142 C133 1.289 . S
Mg143 O150 2.141 . S
Mg143 O151 2.048 . S
Mg143 O152 2.048 . S
Mg143 O155 2.141 . S
C144 O145 1.313 . S
C144 O151 1.195 . S
O145 C144 1.313 . S
C146 O147 1.245 . S
C146 O155 1.289 . S
O147 C146 1.245 . S
C148 O149 1.245 . S
C148 O150 1.289 . S
O149 C148 1.245 . S
O150 Mg143 2.141 . S
O150 C148 1.289 . S
O151 Mg143 2.048 . S
O151 C144 1.195 . S
O152 Mg143 2.048 . S
O152 C153 1.195 . S
C153 O152 1.195 . S
C153 O154 1.313 . S
O154 C153 1.313 . S
O155 Mg143 2.141 . S
O155 C146 1.289 . S
Mg156 O163 2.141 . S
Mg156 O164 2.048 . S
Mg156 O165 2.048 . S
Mg156 O168 2.141 . S
C157 O158 1.313 . S
C157 O164 1.195 . S
O158 C157 1.313 . S
C159 O160 1.245 . S
C159 O168 1.289 . S
O160 C159 1.245 . S
C161 O162 1.245 . S
C161 O163 1.289 . S
O162 C161 1.245 . S
O163 Mg156 2.141 . S
O163 C161 1.289 . S
O164 Mg156 2.048 . S
O164 C157 1.195 . S
O165 Mg156 2.048 . S
O165 C166 1.195 . S
C166 O165 1.195 . S
C166 O167 1.313 . S
O167 C166 1.313 . S
O168 Mg156 2.141 . S
O168 C159 1.289 . S
Mg169 O176 2.141 . S
Mg169 O177 2.048 . S
Mg169 O178 2.048 . S
Mg169 O181 2.141 . S
C170 O171 1.313 . S
C170 O177 1.195 . S
O171 C170 1.313 . S
C172 O173 1.245 . S
C172 O181 1.289 . S
O173 C172 1.245 . S
C174 O175 1.245 . S
C174 O176 1.289 . S
O175 C174 1.245 . S
O176 Mg169 2.141 . S
O176 C174 1.289 . S
O177 Mg169 2.048 . S
O177 C170 1.195 . S
O178 Mg169 2.048 . S
O178 C179 1.195 . S
C179 O178 1.195 . S
C179 O180 1.313 . S
O180 C179 1.313 . S
O181 Mg169 2.141 . S
O181 C172 1.289 . S
Mg182 O189 2.141 . S
Mg182 O190 2.048 . S
Mg182 O191 2.048 . S
Mg182 O194 2.141 . S
C183 O184 1.313 . S
C183 O190 1.195 . S
O184 C183 1.313 . S
C185 O186 1.245 . S
C185 O194 1.289 . S
O186 C185 1.245 . S
C187 O188 1.245 . S
C187 O189 1.289 . S
O188 C187 1.245 . S
O189 Mg182 2.141 . S
O189 C187 1.289 . S
O190 Mg182 2.048 . S
O190 C183 1.195 . S
O191 Mg182 2.048 . S
O191 C192 1.195 . S
C192 O191 1.195 . S
C192 O193 1.313 . S
O193 C192 1.313 . S
O194 Mg182 2.141 . S
O194 C185 1.289 . S
Mg195 O202 2.141 . S
Mg195 O203 2.048 . S
Mg195 O204 2.048 . S
Mg195 O207 2.141 . S
C196 O197 1.313 . S
C196 O203 1.195 . S
O197 C196 1.313 . S
C198 O199 1.245 . S
C198 O207 1.289 . S
O199 C198 1.245 . S
C200 O201 1.245 . S
C200 O202 1.289 . S
O201 C200 1.245 . S
O202 Mg195 2.141 . S
O202 C200 1.289 . S
O203 Mg195 2.048 . S
O203 C196 1.195 . S
O204 Mg195 2.048 . S
O204 C205 1.195 . S
C205 O204 1.195 . S
C205 O206 1.313 . S
O206 C205 1.313 . S
O207 Mg195 2.141 . S
O207 C198 1.289 . S
Mg208 O215 2.141 . S
Mg208 O216 2.048 . S
Mg208 O217 2.048 . S
Mg208 O220 2.141 . S
C209 O210 1.313 . S
C209 O216 1.195 . S
O210 C209 1.313 . S
C211 O212 1.245 . S
C211 O220 1.289 . S
O212 C211 1.245 . S
C213 O214 1.245 . S
C213 O215 1.289 . S
O214 C213 1.245 . S
O215 Mg208 2.141 . S
O215 C213 1.289 . S
O216 Mg208 2.048 . S
O216 C209 1.195 . S
O217 Mg208 2.048 . S
O217 C218 1.195 . S
C218 O217 1.195 . S
C218 O219 1.313 . S
O219 C218 1.313 . S
O220 Mg208 2.141 . S
O220 C211 1.289 . S
Mg221 O228 2.141 . S
Mg221 O229 2.048 . S
Mg221 O230 2.048 . S
Mg221 O233 2.141 . S
C222 O223 1.313 . S
C222 O229 1.195 . S
O223 C222 1.313 . S
C224 O225 1.245 . S
C224 O233 1.289 . S
O225 C224 1.245 . S
C226 O227 1.245 . S
C226 O228 1.289 . S
O227 C226 1.245 . S
O228 Mg221 2.141 . S
O228 C226 1.289 . S
O229 Mg221 2.048 . S
O229 C222 1.195 . S
O230 Mg221 2.048 . S
O230 C231 1.195 . S
C231 O230 1.195 . S
C231 O232 1.313 . S
O232 C231 1.313 . S
O233 Mg221 2.141 . S
O233 C224 1.289 . S
H234 C242 0.929 1_655 S
H235 C244 0.930 1_655 S
H236 C246 0.930 . S
H237 C249 0.929 . S
H238 C252 0.930 . S
H239 C254 0.960 . S
H240 C254 0.960 . S
H241 C254 0.960 1_455 S
C242 H234 0.929 1_455 S
C242 C243 1.377 . S
C242 C244 1.384 . S
C243 C242 1.377 . S
C243 C249 1.390 . S
C244 H235 0.930 1_455 S
C244 C242 1.384 . S
C244 C245 1.372 . S
C245 C244 1.372 . S
C245 C246 1.400 . S
C245 C250 1.490 . S
C246 H236 0.930 . S
C246 C245 1.400 . S
C246 C249 1.386 . S
H247 C263 0.930 . S
H248 C264 0.931 . S
C249 H237 0.929 . S
C249 C243 1.390 . S
C249 C246 1.386 . S
C250 C245 1.490 . S
C250 C252 1.395 . S
C250 C253 1.403 . S
H251 C257 0.930 . S
C252 H238 0.930 . S
C252 C250 1.395 . S
C252 C255 1.403 . S
C253 C250 1.403 . S
C253 C254 1.524 1_455 S
C253 C257 1.400 . S
C254 H239 0.960 . S
C254 H240 0.960 . S
C254 H241 0.960 1_655 S
C254 C253 1.524 1_655 S
C255 C252 1.403 . S
C255 C256 1.392 . S
C255 C259 1.495 . S
C256 C255 1.392 . S
C256 C257 1.385 . S
C256 C258 1.478 . S
C257 H251 0.930 . S
C257 C253 1.400 . S
C257 C256 1.385 . S
C258 C256 1.478 . S
C258 C260 1.381 . S
C258 C264 1.383 . S
C259 C255 1.495 . S
C259 H265 0.959 . S
C259 H266 0.961 . S
C259 H267 0.960 . S
C260 C258 1.381 . S
C260 C261 1.394 . S
C260 H268 0.930 . S
C261 C260 1.394 . S
C261 C262 1.383 . S
C261 H269 0.929 . S
C262 C261 1.383 . S
C262 C263 1.377 . S
C263 H247 0.930 . S
C263 C262 1.377 . S
C263 C264 1.379 . S
C264 H248 0.931 . S
C264 C258 1.383 . S
C264 C263 1.379 . S
H265 C259 0.959 . S
H266 C259 0.961 . S
H267 C259 0.960 . S
H268 C260 0.930 . S
H269 C261 0.929 . S
H270 C278 0.929 . S
H271 C280 0.930 . S
H272 C282 0.930 . S
H273 C285 0.929 . S
H274 C288 0.930 . S
H275 C290 0.960 . S
H276 C290 0.960 . S
H277 C290 0.960 . S
C278 H270 0.929 . S
C278 C279 1.377 . S
C278 C280 1.384 . S
C279 C278 1.377 . S
C279 C285 1.390 . S
C280 H271 0.930 . S
C280 C278 1.384 . S
C280 C281 1.372 . S
C281 C280 1.372 . S
C281 C282 1.400 . S
C281 C286 1.490 . S
C282 H272 0.930 . S
C282 C281 1.400 . S
C282 C285 1.386 . S
H283 C299 0.930 . S
H284 C300 0.931 . S
C285 H273 0.929 . S
C285 C279 1.390 . S
C285 C282 1.386 . S
C286 C281 1.490 . S
C286 C288 1.395 . S
C286 C289 1.403 . S
H287 C293 0.930 . S
C288 H274 0.930 . S
C288 C286 1.395 . S
C288 C291 1.403 . S
C289 C286 1.403 . S
C289 C290 1.524 . S
C289 C293 1.400 . S
C290 H275 0.960 . S
C290 H276 0.960 . S
C290 H277 0.960 . S
C290 C289 1.524 . S
C291 C288 1.403 . S
C291 C292 1.392 . S
C291 C295 1.495 . S
C292 C291 1.392 . S
C292 C293 1.385 . S
C292 C294 1.478 . S
C293 H287 0.930 . S
C293 C289 1.400 . S
C293 C292 1.385 . S
C294 C292 1.478 . S
C294 C296 1.381 . S
C294 C300 1.383 . S
C295 C291 1.495 . S
C295 H301 0.959 . S
C295 H302 0.961 . S
C295 H303 0.960 . S
C296 C294 1.381 . S
C296 C297 1.394 . S
C296 H304 0.930 . S
C297 C296 1.394 . S
C297 C298 1.383 . S
C297 H305 0.929 . S
C298 C297 1.383 . S
C298 C299 1.377 . S
C299 H283 0.930 . S
C299 C298 1.377 . S
C299 C300 1.379 . S
C300 H284 0.931 . S
C300 C294 1.383 . S
C300 C299 1.379 . S
H301 C295 0.959 . S
H302 C295 0.961 . S
H303 C295 0.960 . S
H304 C296 0.930 . S
H305 C297 0.929 . S
H306 C314 0.929 . S
H307 C316 0.930 . S
H308 C318 0.930 . S
H309 C321 0.929 . S
H310 C324 0.930 . S
H311 C326 0.960 . S
H312 C326 0.960 . S
H313 C326 0.960 . S
C314 H306 0.929 . S
C314 C315 1.377 . S
C314 C316 1.384 . S
C315 C314 1.377 . S
C315 C321 1.390 1_565 S
C316 H307 0.930 . S
C316 C314 1.384 . S
C316 C317 1.372 1_565 S
C317 C316 1.372 1_545 S
C317 C318 1.400 . S
C317 C322 1.490 . S
C318 H308 0.930 . S
C318 C317 1.400 . S
C318 C321 1.386 . S
H319 C335 0.930 . S
H320 C336 0.931 . S
C321 H309 0.929 . S
C321 C315 1.390 1_545 S
C321 C318 1.386 . S
C322 C317 1.490 . S
C322 C324 1.395 1_545 S
C322 C325 1.403 . S
H323 C329 0.930 . S
C324 H310 0.930 . S
C324 C322 1.395 1_565 S
C324 C327 1.403 . S
C325 C322 1.403 . S
C325 C326 1.524 . S
C325 C329 1.400 . S
C326 H311 0.960 . S
C326 H312 0.960 . S
C326 H313 0.960 . S
C326 C325 1.524 . S
C327 C324 1.403 . S
C327 C328 1.392 1_565 S
C327 C331 1.495 . S
C328 C327 1.392 1_545 S
C328 C329 1.385 . S
C328 C330 1.478 . S
C329 H323 0.930 . S
C329 C325 1.400 . S
C329 C328 1.385 . S
C330 C328 1.478 . S
C330 C332 1.381 . S
C330 C336 1.383 . S
C331 C327 1.495 . S
C331 H337 0.959 . S
C331 H338 0.961 . S
C331 H339 0.960 . S
C332 C330 1.381 . S
C332 C333 1.394 . S
C332 H340 0.930 . S
C333 C332 1.394 . S
C333 C334 1.383 . S
C333 H341 0.929 . S
C334 C333 1.383 . S
C334 C335 1.377 . S
C335 H319 0.930 . S
C335 C334 1.377 . S
C335 C336 1.379 . S
C336 H320 0.931 . S
C336 C330 1.383 . S
C336 C335 1.379 . S
H337 C331 0.959 . S
H338 C331 0.961 . S
H339 C331 0.960 . S
H340 C332 0.930 . S
H341 C333 0.929 . S
H342 C350 0.929 1_655 S
H343 C352 0.915 1_655 S
H344 C354 0.930 . S
H345 C357 0.929 . S
H346 C360 0.930 . S
H347 C362 0.960 . S
H348 C362 0.960 . S
H349 C362 0.960 . S
C350 H342 0.929 1_455 S
C350 C351 1.377 . S
C350 C352 1.385 . S
C351 C350 1.377 . S
C351 C357 1.390 . S
C352 H343 0.915 1_455 S
C352 C350 1.385 . S
C352 C353 1.386 . S
C353 C352 1.386 . S
C353 C354 1.400 . S
C353 C358 1.490 . S
C354 H344 0.930 . S
C354 C353 1.400 . S
C354 C357 1.386 . S
H355 C371 0.930 . S
H356 C372 0.931 . S
C357 H345 0.929 . S
C357 C351 1.390 . S
C357 C354 1.386 . S
C358 C353 1.490 . S
C358 C360 1.395 . S
C358 C361 1.403 . S
H359 C365 0.930 . S
C360 H346 0.930 . S
C360 C358 1.395 . S
C360 C363 1.403 . S
C361 C358 1.403 . S
C361 C362 1.524 . S
C361 C365 1.400 . S
C362 H347 0.960 . S
C362 H348 0.960 . S
C362 H349 0.960 . S
C362 C361 1.524 . S
C363 C360 1.403 . S
C363 C364 1.392 . S
C363 C367 1.495 1_455 S
C364 C363 1.392 . S
C364 C365 1.385 . S
C364 C366 1.478 . S
C365 H359 0.930 . S
C365 C361 1.400 . S
C365 C364 1.385 . S
C366 C364 1.478 . S
C366 C368 1.381 1_455 S
C366 C372 1.383 . S
C367 C363 1.495 1_655 S
C367 H373 0.959 . S
C367 H374 0.961 1_655 S
C367 H375 0.960 . S
C368 C366 1.381 1_655 S
C368 C369 1.394 . S
C368 H376 0.930 . S
C369 C368 1.394 . S
C369 C370 1.383 1_655 S
C369 H377 0.929 . S
C370 C369 1.383 1_455 S
C370 C371 1.377 . S
C371 H355 0.930 . S
C371 C370 1.377 . S
C371 C372 1.379 . S
C372 H356 0.931 . S
C372 C366 1.383 . S
C372 C371 1.379 . S
H373 C367 0.959 . S
H374 C367 0.961 1_455 S
H375 C367 0.960 . S
H376 C368 0.930 . S
H377 C369 0.929 . S
H378 C386 0.929 . S
H379 C388 0.930 . S
H380 C390 0.930 . S
H381 C393 0.929 . S
H382 C396 0.930 . S
H383 C398 0.960 . S
H384 C398 0.960 . S
H385 C398 0.960 . S
C386 H378 0.929 . S
C386 C387 1.377 . S
C386 C388 1.384 . S
C387 C386 1.377 . S
C387 C393 1.390 . S
C388 H379 0.930 . S
C388 C386 1.384 . S
C388 C389 1.372 . S
C389 C388 1.372 . S
C389 C390 1.400 . S
C389 C394 1.490 . S
C390 H380 0.930 . S
C390 C389 1.400 . S
C390 C393 1.386 . S
H391 C407 0.930 . S
H392 C408 0.931 . S
C393 H381 0.929 . S
C393 C387 1.390 . S
C393 C390 1.386 . S
C394 C389 1.490 . S
C394 C396 1.395 . S
C394 C397 1.403 . S
H395 C401 0.930 . S
C396 H382 0.930 . S
C396 C394 1.395 . S
C396 C399 1.403 . S
C397 C394 1.403 . S
C397 C398 1.524 . S
C397 C401 1.400 . S
C398 H383 0.960 . S
C398 H384 0.960 . S
C398 H385 0.960 . S
C398 C397 1.524 . S
C399 C396 1.403 . S
C399 C400 1.392 . S
C399 C403 1.495 . S
C400 C399 1.392 . S
C400 C401 1.385 . S
C400 C402 1.478 . S
C401 H395 0.930 . S
C401 C397 1.400 . S
C401 C400 1.385 . S
C402 C400 1.478 . S
C402 C404 1.381 . S
C402 C408 1.383 . S
C403 C399 1.495 . S
C403 H409 0.959 . S
C403 H410 0.961 . S
C403 H411 0.960 . S
C404 C402 1.381 . S
C404 C405 1.394 . S
C404 H412 0.930 . S
C405 C404 1.394 . S
C405 C406 1.383 . S
C405 H413 0.929 . S
C406 C405 1.383 . S
C406 C407 1.377 . S
C407 H391 0.930 . S
C407 C406 1.377 . S
C407 C408 1.379 . S
C408 H392 0.931 . S
C408 C402 1.383 . S
C408 C407 1.379 . S
H409 C403 0.959 . S
H410 C403 0.961 . S
H411 C403 0.960 . S
H412 C404 0.930 . S
H413 C405 0.929 . S
H414 C422 0.929 . S
H415 C424 0.930 . S
H416 C426 0.930 . S
H417 C429 0.929 . S
H418 C432 0.930 . S
H419 C434 0.960 . S
H420 C434 0.960 . S
H421 C434 0.960 . S
C422 H414 0.929 . S
C422 C423 1.377 . S
C422 C424 1.384 . S
C423 C422 1.377 . S
C423 C429 1.390 1_545 S
C424 H415 0.930 . S
C424 C422 1.384 . S
C424 C425 1.372 . S
C425 C424 1.372 . S
C425 C426 1.400 1_545 S
C425 C430 1.490 . S
C426 H416 0.930 . S
C426 C425 1.400 1_565 S
C426 C429 1.386 . S
H427 C443 0.930 . S
H428 C444 0.931 . S
C429 H417 0.929 . S
C429 C423 1.390 1_565 S
C429 C426 1.386 . S
C430 C425 1.490 . S
C430 C432 1.395 . S
C430 C433 1.403 1_545 S
H431 C437 0.932 . S
C432 H418 0.930 . S
C432 C430 1.395 . S
C432 C435 1.403 . S
C433 C430 1.403 1_565 S
C433 C434 1.524 . S
C433 C437 1.400 . S
C434 H419 0.960 . S
C434 H420 0.960 . S
C434 H421 0.960 . S
C434 C433 1.524 . S
C435 C432 1.403 . S
C435 C436 1.392 . S
C435 C439 1.495 . S
C436 C435 1.392 . S
C436 C437 1.383 1_545 S
C436 C438 1.478 . S
C437 H431 0.932 . S
C437 C433 1.400 . S
C437 C436 1.383 1_565 S
C438 C436 1.478 . S
C438 C440 1.381 . S
C438 C444 1.383 1_545 S
C439 C435 1.495 . S
C439 H445 0.959 . S
C439 H446 0.961 . S
C439 H447 0.960 . S
C440 C438 1.381 . S
C440 C441 1.394 . S
C440 H448 0.930 . S
C441 C440 1.394 . S
C441 C442 1.383 . S
C441 H449 0.929 . S
C442 C441 1.383 . S
C442 C443 1.377 1_545 S
C443 H427 0.930 . S
C443 C442 1.377 1_565 S
C443 C444 1.379 . S
C444 H428 0.931 . S
C444 C438 1.383 1_565 S
C444 C443 1.379 . S
H445 C439 0.959 . S
H446 C439 0.961 . S
H447 C439 0.960 . S
H448 C440 0.930 . S
H449 C441 0.929 . S
H450 C458 0.929 . S
H451 C460 0.930 . S
H452 C462 0.930 . S
H453 C465 0.929 . S
H454 C468 0.930 . S
H455 C470 0.960 . S
H456 C470 0.960 . S
H457 C470 0.960 . S
C458 H450 0.929 . S
C458 C459 1.377 . S
C458 C460 1.384 . S
C459 C458 1.377 . S
C459 C465 1.390 . S
C460 H451 0.930 . S
C460 C458 1.384 . S
C460 C461 1.372 . S
C461 C460 1.372 . S
C461 C462 1.400 . S
C461 C466 1.490 . S
C462 H452 0.930 . S
C462 C461 1.400 . S
C462 C465 1.386 . S
H463 C479 0.930 . S
H464 C480 0.931 . S
C465 H453 0.929 . S
C465 C459 1.390 . S
C465 C462 1.386 . S
C466 C461 1.490 . S
C466 C468 1.395 . S
C466 C469 1.403 . S
H467 C473 0.930 . S
C468 H454 0.930 . S
C468 C466 1.395 . S
C468 C471 1.403 . S
C469 C466 1.403 . S
C469 C470 1.524 . S
C469 C473 1.400 . S
C470 H455 0.960 . S
C470 H456 0.960 . S
C470 H457 0.960 . S
C470 C469 1.524 . S
C471 C468 1.403 . S
C471 C472 1.392 . S
C471 C475 1.495 . S
C472 C471 1.392 . S
C472 C473 1.385 . S
C472 C474 1.478 . S
C473 H467 0.930 . S
C473 C469 1.400 . S
C473 C472 1.385 . S
C474 C472 1.478 . S
C474 C476 1.381 . S
C474 C480 1.383 . S
C475 C471 1.495 . S
C475 H481 0.959 . S
C475 H482 0.961 . S
C475 H483 0.960 . S
C476 C474 1.381 . S
C476 C477 1.394 . S
C476 H484 0.930 . S
C477 C476 1.394 . S
C477 C478 1.383 . S
C477 H485 0.929 . S
C478 C477 1.383 . S
C478 C479 1.377 . S
C479 H463 0.930 . S
C479 C478 1.377 . S
C479 C480 1.379 . S
C480 H464 0.931 . S
C480 C474 1.383 . S
C480 C479 1.379 . S
H481 C475 0.959 . S
H482 C475 0.961 . S
H483 C475 0.960 . S
H484 C476 0.930 . S
H485 C477 0.929 . S
H486 C494 0.929 . S
H487 C496 0.930 . S
H488 C498 0.930 . S
H489 C501 0.929 . S
H490 C504 0.930 . S
H491 C506 0.960 . S
H492 C506 0.960 . S
H493 C506 0.960 . S
C494 H486 0.929 . S
C494 C495 1.377 . S
C494 C496 1.384 . S
C495 C494 1.377 . S
C495 C501 1.390 . S
C496 H487 0.930 . S
C496 C494 1.384 . S
C496 C497 1.372 . S
C497 C496 1.372 . S
C497 C498 1.400 . S
C497 C502 1.490 . S
C498 H488 0.930 . S
C498 C497 1.400 . S
C498 C501 1.386 . S
H499 C515 0.930 . S
H500 C516 0.931 . S
C501 H489 0.929 . S
C501 C495 1.390 . S
C501 C498 1.386 . S
C502 C497 1.490 . S
C502 C504 1.395 . S
C502 C505 1.403 . S
H503 C509 0.930 . S
C504 H490 0.930 . S
C504 C502 1.395 . S
C504 C507 1.403 . S
C505 C502 1.403 . S
C505 C506 1.524 . S
C505 C509 1.400 . S
C506 H491 0.960 . S
C506 H492 0.960 . S
C506 H493 0.960 . S
C506 C505 1.524 . S
C507 C504 1.403 . S
C507 C508 1.392 . S
C507 C511 1.495 . S
C508 C507 1.392 . S
C508 C509 1.385 . S
C508 C510 1.478 . S
C509 H503 0.930 . S
C509 C505 1.400 . S
C509 C508 1.385 . S
C510 C508 1.478 . S
C510 C512 1.381 . S
C510 C516 1.383 . S
C511 C507 1.495 . S
C511 H517 0.959 . S
C511 H518 0.961 . S
C511 H519 0.960 . S
C512 C510 1.381 . S
C512 C513 1.394 . S
C512 H520 0.930 . S
C513 C512 1.394 . S
C513 C514 1.383 . S
C513 H521 0.929 . S
C514 C513 1.383 . S
C514 C515 1.377 . S
C515 H499 0.930 . S
C515 C514 1.377 . S
C515 C516 1.379 . S
C516 H500 0.931 . S
C516 C510 1.383 . S
C516 C515 1.379 . S
H517 C511 0.959 . S
H518 C511 0.961 . S
H519 C511 0.960 . S
H520 C512 0.930 . S
H521 C513 0.929 . S
H522 C530 0.929 . S
H523 C532 0.930 . S
H524 C534 0.930 . S
H525 C537 0.929 . S
H526 C540 0.930 . S
H527 C542 0.960 . S
H528 C542 0.960 . S
H529 C542 0.960 . S
C530 H522 0.929 . S
C530 C531 1.377 . S
C530 C532 1.384 . S
C531 C530 1.377 . S
C531 C537 1.390 . S
C532 H523 0.930 . S
C532 C530 1.384 . S
C532 C533 1.372 . S
C533 C532 1.372 . S
C533 C534 1.400 . S
C533 C538 1.490 . S
C534 H524 0.930 . S
C534 C533 1.400 . S
C534 C537 1.386 . S
H535 C551 0.930 . S
H536 C552 0.931 . S
C537 H525 0.929 . S
C537 C531 1.390 . S
C537 C534 1.386 . S
C538 C533 1.490 . S
C538 C540 1.395 . S
C538 C541 1.403 . S
H539 C545 0.930 . S
C540 H526 0.930 . S
C540 C538 1.395 . S
C540 C543 1.403 . S
C541 C538 1.403 . S
C541 C542 1.524 . S
C541 C545 1.400 . S
C542 H527 0.960 . S
C542 H528 0.960 . S
C542 H529 0.960 . S
C542 C541 1.524 . S
C543 C540 1.403 . S
C543 C544 1.392 . S
C543 C547 1.495 . S
C544 C543 1.392 . S
C544 C545 1.385 . S
C544 C546 1.478 . S
C545 H539 0.930 . S
C545 C541 1.400 . S
C545 C544 1.385 . S
C546 C544 1.478 . S
C546 C548 1.381 . S
C546 C552 1.383 . S
C547 C543 1.495 . S
C547 H553 0.959 . S
C547 H554 0.961 . S
C547 H555 0.960 . S
C548 C546 1.381 . S
C548 C549 1.394 . S
C548 H556 0.930 . S
C549 C548 1.394 . S
C549 C550 1.383 . S
C549 H557 0.929 . S
C550 C549 1.383 . S
C550 C551 1.377 . S
C551 H535 0.930 . S
C551 C550 1.377 . S
C551 C552 1.379 . S
C552 H536 0.931 . S
C552 C546 1.383 . S
C552 C551 1.379 . S
H553 C547 0.959 . S
H554 C547 0.961 . S
H555 C547 0.960 . S
H556 C548 0.930 . S
H557 C549 0.929 . S
H558 C566 0.929 . S
H559 C568 0.930 . S
H560 C570 0.930 . S
H561 C573 0.929 . S
H562 C576 0.930 . S
H563 C578 0.960 . S
H564 C578 0.960 . S
H565 C578 0.960 . S
C566 H558 0.929 . S
C566 C567 1.377 . S
C566 C568 1.384 . S
C567 C566 1.377 . S
C567 C573 1.390 . S
C568 H559 0.930 . S
C568 C566 1.384 . S
C568 C569 1.372 . S
C569 C568 1.372 . S
C569 C570 1.400 . S
C569 C574 1.490 . S
C570 H560 0.930 . S
C570 C569 1.400 . S
C570 C573 1.386 . S
H571 C587 0.930 . S
H572 C588 0.931 . S
C573 H561 0.929 . S
C573 C567 1.390 . S
C573 C570 1.386 . S
C574 C569 1.490 . S
C574 C576 1.395 . S
C574 C577 1.403 . S
H575 C581 0.930 . S
C576 H562 0.930 . S
C576 C574 1.395 . S
C576 C579 1.403 . S
C577 C574 1.403 . S
C577 C578 1.524 . S
C577 C581 1.400 . S
C578 H563 0.960 . S
C578 H564 0.960 . S
C578 H565 0.960 . S
C578 C577 1.524 . S
C579 C576 1.403 . S
C579 C580 1.392 . S
C579 C583 1.495 . S
C580 C579 1.392 . S
C580 C581 1.385 . S
C580 C582 1.478 . S
C581 H575 0.930 . S
C581 C577 1.400 . S
C581 C580 1.385 . S
C582 C580 1.478 . S
C582 C584 1.381 . S
C582 C588 1.383 . S
C583 C579 1.495 . S
C583 H589 0.959 . S
C583 H590 0.961 . S
C583 H591 0.960 . S
C584 C582 1.381 . S
C584 C585 1.394 1_554 S
C584 H592 0.930 . S
C585 C584 1.394 1_556 S
C585 C586 1.383 . S
C585 H593 0.929 . S
C586 C585 1.383 . S
C586 C587 1.377 . S
C587 H571 0.930 . S
C587 C586 1.377 . S
C587 C588 1.379 1_556 S
C588 H572 0.931 . S
C588 C582 1.383 . S
C588 C587 1.379 1_554 S
H589 C583 0.959 . S
H590 C583 0.961 . S
H591 C583 0.960 . S
H592 C584 0.930 . S
H593 C585 0.929 . S
H594 C602 0.929 . S
H595 C604 0.930 . S
H596 C606 0.930 . S
H597 C609 0.929 . S
H598 C612 0.930 . S
H599 C614 0.960 . S
H600 C614 0.960 . S
H601 C614 0.960 . S
C602 H594 0.929 . S
C602 C603 1.377 . S
C602 C604 1.384 1_556 S
C603 C602 1.377 . S
C603 C609 1.390 . S
C604 H595 0.930 . S
C604 C602 1.384 1_554 S
C604 C605 1.372 . S
C605 C604 1.372 . S
C605 C606 1.400 . S
C605 C610 1.490 . S
C606 H596 0.930 . S
C606 C605 1.400 . S
C606 C609 1.386 1_554 S
H607 C623 0.930 . S
H608 C624 0.931 . S
C609 H597 0.929 . S
C609 C603 1.390 . S
C609 C606 1.386 1_556 S
C610 C605 1.490 . S
C610 C612 1.395 . S
C610 C613 1.403 . S
H611 C617 0.930 . S
C612 H598 0.930 . S
C612 C610 1.395 . S
C612 C615 1.403 . S
C613 C610 1.403 . S
C613 C614 1.524 . S
C613 C617 1.400 . S
C614 H599 0.960 . S
C614 H600 0.960 . S
C614 H601 0.960 . S
C614 C613 1.524 . S
C615 C612 1.403 . S
C615 C616 1.392 . S
C615 C619 1.495 . S
C616 C615 1.392 . S
C616 C617 1.385 . S
C616 C618 1.478 . S
C617 H611 0.930 . S
C617 C613 1.400 . S
C617 C616 1.385 . S
C618 C616 1.478 . S
C618 C620 1.381 . S
C618 C624 1.383 . S
C619 C615 1.495 . S
C619 H625 0.959 . S
C619 H626 0.961 . S
C619 H627 0.960 . S
C620 C618 1.381 . S
C620 C621 1.394 . S
C620 H628 0.930 . S
C621 C620 1.394 . S
C621 C622 1.383 . S
C621 H629 0.929 . S
C622 C621 1.383 . S
C622 C623 1.377 . S
C623 H607 0.930 . S
C623 C622 1.377 . S
C623 C624 1.379 . S
C624 H608 0.931 . S
C624 C618 1.383 . S
C624 C623 1.379 . S
H625 C619 0.959 . S
H626 C619 0.961 . S
H627 C619 0.960 . S
H628 C620 0.930 . S
H629 C621 0.929 . S
H630 C638 0.929 . S
H631 C640 0.930 . S
H632 C642 0.930 . S
H633 C645 0.929 . S
H634 C648 0.930 . S
H635 C650 0.960 . S
H636 C650 0.960 . S
H637 C650 0.960 . S
C638 H630 0.929 . S
C638 C639 1.377 . S
C638 C640 1.384 1_556 S
C639 C638 1.377 . S
C639 C645 1.390 . S
C640 H631 0.930 . S
C640 C638 1.384 1_554 S
C640 C641 1.372 . S
C641 C640 1.372 . S
C641 C642 1.400 . S
C641 C646 1.490 . S
C642 H632 0.930 . S
C642 C641 1.400 . S
C642 C645 1.386 1_554 S
H643 C659 0.930 . S
H644 C660 0.931 . S
C645 H633 0.929 . S
C645 C639 1.390 . S
C645 C642 1.386 1_556 S
C646 C641 1.490 . S
C646 C648 1.395 . S
C646 C649 1.403 . S
H647 C653 0.930 . S
C648 H634 0.930 . S
C648 C646 1.395 . S
C648 C651 1.403 . S
C649 C646 1.403 . S
C649 C650 1.524 . S
C649 C653 1.400 . S
C650 H635 0.960 . S
C650 H636 0.960 . S
C650 H637 0.960 . S
C650 C649 1.524 . S
C651 C648 1.403 . S
C651 C652 1.392 . S
C651 C655 1.495 . S
C652 C651 1.392 . S
C652 C653 1.385 . S
C652 C654 1.478 . S
C653 H647 0.930 . S
C653 C649 1.400 . S
C653 C652 1.385 . S
C654 C652 1.478 . S
C654 C656 1.381 . S
C654 C660 1.383 . S
C655 C651 1.495 . S
C655 H661 0.959 . S
C655 H662 0.961 . S
C655 H663 0.960 . S
C656 C654 1.381 . S
C656 C657 1.394 . S
C656 H664 0.930 . S
C657 C656 1.394 . S
C657 C658 1.383 . S
C657 H665 0.929 . S
C658 C657 1.383 . S
C658 C659 1.377 . S
C659 H643 0.930 . S
C659 C658 1.377 . S
C659 C660 1.379 . S
C660 H644 0.931 . S
C660 C654 1.383 . S
C660 C659 1.379 . S
H661 C655 0.959 . S
H662 C655 0.961 . S
H663 C655 0.960 . S
H664 C656 0.930 . S
H665 C657 0.929 . S
H666 C674 0.929 . S
H667 C676 0.930 . S
H668 C678 0.930 . S
H669 C681 0.929 . S
H670 C684 0.930 . S
H671 C686 0.960 . S
H672 C686 0.978 . S
H673 C686 0.960 . S
C674 H666 0.929 . S
C674 C675 1.377 . S
C674 C676 1.384 . S
C675 C674 1.377 . S
C675 C681 1.390 . S
C676 H667 0.930 . S
C676 C674 1.384 . S
C676 C677 1.372 . S
C677 C676 1.372 . S
C677 C678 1.400 . S
C677 C682 1.490 1_554 S
C678 H668 0.930 . S
C678 C677 1.400 . S
C678 C681 1.386 . S
H679 C695 0.930 . S
H680 C696 0.931 . S
C681 H669 0.929 . S
C681 C675 1.390 . S
C681 C678 1.386 . S
C682 C677 1.490 1_556 S
C682 C684 1.395 . S
C682 C685 1.403 . S
H683 C689 0.930 . S
C684 H670 0.930 . S
C684 C682 1.395 . S
C684 C687 1.403 . S
C685 C682 1.403 . S
C685 C686 1.524 . S
C685 C689 1.400 . S
C686 H671 0.960 . S
C686 H672 0.978 . S
C686 H673 0.960 . S
C686 C685 1.524 . S
C687 C684 1.403 . S
C687 C688 1.392 . S
C687 C691 1.495 . S
C688 C687 1.392 . S
C688 C689 1.385 . S
C688 C690 1.478 . S
C689 H683 0.930 . S
C689 C685 1.400 . S
C689 C688 1.385 . S
C690 C688 1.478 . S
C690 C692 1.381 . S
C690 C696 1.383 . S
C691 C687 1.495 . S
C691 H697 0.959 . S
C691 H698 0.961 . S
C691 H699 0.960 . S
C692 C690 1.381 . S
C692 C693 1.394 . S
C692 H700 0.930 . S
C693 C692 1.394 . S
C693 C694 1.383 . S
C693 H701 0.929 . S
C694 C693 1.383 . S
C694 C695 1.377 . S
C695 H679 0.930 . S
C695 C694 1.377 . S
C695 C696 1.379 . S
C696 H680 0.931 . S
C696 C690 1.383 . S
C696 C695 1.379 . S
H697 C691 0.959 . S
H698 C691 0.961 . S
H699 C691 0.960 . S
H700 C692 0.930 . S
H701 C693 0.929 . S
H702 C710 0.929 . S
H703 C712 0.930 . S
H704 C714 0.930 . S
H705 C717 0.929 . S
H706 C720 0.930 . S
H707 C722 0.960 . S
H708 C722 0.960 . S
H709 C722 0.960 . S
C710 H702 0.929 . S
C710 C711 1.377 . S
C710 C712 1.384 . S
C711 C710 1.377 . S
C711 C717 1.390 . S
C712 H703 0.930 . S
C712 C710 1.384 . S
C712 C713 1.372 . S
C713 C712 1.372 . S
C713 C714 1.400 . S
C713 C718 1.490 . S
C714 H704 0.930 . S
C714 C713 1.400 . S
C714 C717 1.386 . S
H715 C731 0.930 . S
H716 C732 0.931 . S
C717 H705 0.929 . S
C717 C711 1.390 . S
C717 C714 1.386 . S
C718 C713 1.490 . S
C718 C720 1.395 . S
C718 C721 1.403 . S
H719 C725 0.930 . S
C720 H706 0.930 . S
C720 C718 1.395 . S
C720 C723 1.403 . S
C721 C718 1.403 . S
C721 C722 1.524 . S
C721 C725 1.400 . S
C722 H707 0.960 . S
C722 H708 0.960 . S
C722 H709 0.960 . S
C722 C721 1.524 . S
C723 C720 1.403 . S
C723 C724 1.392 . S
C723 C727 1.495 . S
C724 C723 1.392 . S
C724 C725 1.385 . S
C724 C726 1.478 1_556 S
C725 H719 0.930 . S
C725 C721 1.400 . S
C725 C724 1.385 . S
C726 C724 1.478 1_554 S
C726 C728 1.381 . S
C726 C732 1.383 . S
C727 C723 1.495 . S
C727 H733 0.959 . S
C727 H734 0.961 1_556 S
C727 H735 0.960 1_556 S
C728 C726 1.381 . S
C728 C729 1.394 . S
C728 H736 0.930 . S
C729 C728 1.394 . S
C729 C730 1.383 . S
C729 H737 0.929 . S
C730 C729 1.383 . S
C730 C731 1.377 . S
C731 H715 0.930 . S
C731 C730 1.377 . S
C731 C732 1.379 . S
C732 H716 0.931 . S
C732 C726 1.383 . S
C732 C731 1.379 . S
H733 C727 0.959 . S
H734 C727 0.961 1_554 S
H735 C727 0.960 1_554 S
H736 C728 0.930 . S
H737 C729 0.929 . S
H738 C746 0.929 . S
H739 C748 0.930 . S
H740 C750 0.930 . S
H741 C753 0.929 . S
H742 C756 0.930 . S
H743 C758 0.960 . S
H744 C758 0.960 . S
H745 C758 0.960 . S
C746 H738 0.929 . S
C746 C747 1.377 . S
C746 C748 1.384 . S
C747 C746 1.377 . S
C747 C753 1.390 . S
C748 H739 0.930 . S
C748 C746 1.384 . S
C748 C749 1.372 . S
C749 C748 1.372 . S
C749 C750 1.400 . S
C749 C754 1.490 1_554 S
C750 H740 0.930 . S
C750 C749 1.400 . S
C750 C753 1.386 . S
H751 C767 0.930 . S
H752 C768 0.931 . S
C753 H741 0.929 . S
C753 C747 1.390 . S
C753 C750 1.386 . S
C754 C749 1.490 1_556 S
C754 C756 1.395 . S
C754 C757 1.403 . S
H755 C761 0.930 . S
C756 H742 0.930 . S
C756 C754 1.395 . S
C756 C759 1.403 . S
C757 C754 1.403 . S
C757 C758 1.524 . S
C757 C761 1.400 . S
C758 H743 0.960 . S
C758 H744 0.960 . S
C758 H745 0.960 . S
C758 C757 1.524 . S
C759 C756 1.403 . S
C759 C760 1.392 . S
C759 C763 1.495 . S
C760 C759 1.392 . S
C760 C761 1.385 . S
C760 C762 1.478 . S
C761 H755 0.930 . S
C761 C757 1.400 . S
C761 C760 1.385 . S
C762 C760 1.478 . S
C762 C764 1.381 . S
C762 C768 1.383 . S
C763 C759 1.495 . S
C763 H769 0.959 . S
C763 H770 0.961 . S
C763 H771 0.960 . S
C764 C762 1.381 . S
C764 C765 1.394 . S
C764 H772 0.930 . S
C765 C764 1.394 . S
C765 C766 1.383 . S
C765 H773 0.929 . S
C766 C765 1.383 . S
C766 C767 1.377 . S
C767 H751 0.930 . S
C767 C766 1.377 . S
C767 C768 1.379 . S
C768 H752 0.931 . S
C768 C762 1.383 . S
C768 C767 1.379 . S
H769 C763 0.959 . S
H770 C763 0.961 . S
H771 C763 0.960 . S
H772 C764 0.930 . S
H773 C765 0.929 . S
H774 C782 0.929 . S
H775 C784 0.930 . S
H776 C786 0.930 . S
H777 C789 0.929 . S
H778 C792 0.930 . S
H779 C794 0.960 . S
H780 C794 0.960 . S
H781 C794 0.960 . S
C782 H774 0.929 . S
C782 C783 1.377 . S
C782 C784 1.384 . S
C783 C782 1.377 . S
C783 C789 1.390 . S
C784 H775 0.930 . S
C784 C782 1.384 . S
C784 C785 1.372 . S
C785 C784 1.372 . S
C785 C786 1.400 . S
C785 C790 1.490 . S
C786 H776 0.930 . S
C786 C785 1.400 . S
C786 C789 1.386 . S
H787 C803 0.930 . S
H788 C804 0.931 . S
C789 H777 0.929 . S
C789 C783 1.390 . S
C789 C786 1.386 . S
C790 C785 1.490 . S
C790 C792 1.395 . S
C790 C793 1.403 . S
H791 C797 0.930 . S
C792 H778 0.930 . S
C792 C790 1.395 . S
C792 C795 1.403 . S
C793 C790 1.403 . S
C793 C794 1.524 . S
C793 C797 1.400 . S
C794 H779 0.960 . S
C794 H780 0.960 . S
C794 H781 0.960 . S
C794 C793 1.524 . S
C795 C792 1.403 . S
C795 C796 1.392 . S
C795 C799 1.495 . S
C796 C795 1.392 . S
C796 C797 1.385 . S
C796 C798 1.478 . S
C797 H791 0.930 . S
C797 C793 1.400 . S
C797 C796 1.385 . S
C798 C796 1.478 . S
C798 C800 1.381 . S
C798 C804 1.383 . S
C799 C795 1.495 . S
C799 H805 0.959 . S
C799 H806 0.961 . S
C799 H807 0.960 . S
C800 C798 1.381 . S
C800 C801 1.394 . S
C800 H808 0.930 . S
C801 C800 1.394 . S
C801 C802 1.383 . S
C801 H809 0.929 . S
C802 C801 1.383 . S
C802 C803 1.377 . S
C803 H787 0.930 . S
C803 C802 1.377 . S
C803 C804 1.379 . S
C804 H788 0.931 . S
C804 C798 1.383 . S
C804 C803 1.379 . S
H805 C799 0.959 . S
H806 C799 0.961 . S
H807 C799 0.960 . S
H808 C800 0.930 . S
H809 C801 0.929 . S
H810 C818 0.929 . S
H811 C820 0.930 . S
H812 C822 0.930 . S
H813 C825 0.929 . S
H814 C828 0.930 . S
H815 C830 0.960 . S
H816 C830 0.960 . S
H817 C830 0.960 . S
C818 H810 0.929 . S
C818 C819 1.377 . S
C818 C820 1.384 . S
C819 C818 1.377 . S
C819 C825 1.390 . S
C820 H811 0.930 . S
C820 C818 1.384 . S
C820 C821 1.372 . S
C821 C820 1.372 . S
C821 C822 1.400 . S
C821 C826 1.490 . S
C822 H812 0.930 . S
C822 C821 1.400 . S
C822 C825 1.386 . S
H823 C839 0.930 . S
H824 C840 0.931 . S
C825 H813 0.929 . S
C825 C819 1.390 . S
C825 C822 1.386 . S
C826 C821 1.490 . S
C826 C828 1.395 . S
C826 C829 1.403 . S
H827 C833 0.930 . S
C828 H814 0.930 . S
C828 C826 1.395 . S
C828 C831 1.403 . S
C829 C826 1.403 . S
C829 C830 1.524 . S
C829 C833 1.400 . S
C830 H815 0.960 . S
C830 H816 0.960 . S
C830 H817 0.960 . S
C830 C829 1.524 . S
C831 C828 1.403 . S
C831 C832 1.392 . S
C831 C835 1.495 . S
C832 C831 1.392 . S
C832 C833 1.385 . S
C832 C834 1.478 . S
C833 H827 0.930 . S
C833 C829 1.400 . S
C833 C832 1.385 . S
C834 C832 1.478 . S
C834 C836 1.381 . S
C834 C840 1.383 . S
C835 C831 1.495 . S
C835 H841 0.959 . S
C835 H842 0.961 . S
C835 H843 0.960 . S
C836 C834 1.381 . S
C836 C837 1.394 . S
C836 H844 0.930 . S
C837 C836 1.394 . S
C837 C838 1.383 . S
C837 H845 0.929 . S
C838 C837 1.383 . S
C838 C839 1.377 . S
C839 H823 0.930 . S
C839 C838 1.377 . S
C839 C840 1.379 . S
C840 H824 0.931 . S
C840 C834 1.383 . S
C840 C839 1.379 . S
H841 C835 0.959 . S
H842 C835 0.961 . S
H843 C835 0.960 . S
H844 C836 0.930 . S
H845 C837 0.929 . S
H846 C854 0.929 . S
H847 C856 0.930 . S
H848 C858 0.930 . S
H849 C861 0.929 . S
H850 C864 0.930 . S
H851 C866 0.960 . S
H852 C866 0.960 . S
H853 C866 0.960 . S
C854 H846 0.929 . S
C854 C855 1.377 . S
C854 C856 1.384 . S
C855 C854 1.377 . S
C855 C861 1.390 . S
C856 H847 0.930 . S
C856 C854 1.384 . S
C856 C857 1.372 . S
C857 C856 1.372 . S
C857 C858 1.400 . S
C857 C862 1.490 . S
C858 H848 0.930 . S
C858 C857 1.400 . S
C858 C861 1.386 . S
H859 C875 0.930 . S
H860 C876 0.931 . S
C861 H849 0.929 . S
C861 C855 1.390 . S
C861 C858 1.386 . S
C862 C857 1.490 . S
C862 C864 1.395 . S
C862 C865 1.403 . S
H863 C869 0.930 . S
C864 H850 0.930 . S
C864 C862 1.395 . S
C864 C867 1.403 . S
C865 C862 1.403 . S
C865 C866 1.524 . S
C865 C869 1.400 . S
C866 H851 0.960 . S
C866 H852 0.960 . S
C866 H853 0.960 . S
C866 C865 1.524 . S
C867 C864 1.403 . S
C867 C868 1.392 . S
C867 C871 1.495 . S
C868 C867 1.392 . S
C868 C869 1.385 . S
C868 C870 1.478 . S
C869 H863 0.930 . S
C869 C865 1.400 . S
C869 C868 1.385 . S
C870 C868 1.478 . S
C870 C872 1.381 . S
C870 C876 1.383 . S
C871 C867 1.495 . S
C871 H877 0.959 . S
C871 H878 0.961 . S
C871 H879 0.960 . S
C872 C870 1.381 . S
C872 C873 1.394 . S
C872 H880 0.930 . S
C873 C872 1.394 . S
C873 C874 1.383 . S
C873 H881 0.929 . S
C874 C873 1.383 . S
C874 C875 1.377 . S
C875 H859 0.930 . S
C875 C874 1.377 . S
C875 C876 1.379 . S
C876 H860 0.931 . S
C876 C870 1.383 . S
C876 C875 1.379 . S
H877 C871 0.959 . S
H878 C871 0.961 . S
H879 C871 0.960 . S
H880 C872 0.930 . S
H881 C873 0.929 . S
H882 C890 0.935 . S
H883 C892 0.930 . S
H884 C894 0.930 . S
H885 C897 0.929 . S
H886 C900 0.930 . S
H887 C902 0.960 . S
H888 C902 0.960 . S
H889 C902 0.960 1_556 S
C890 H882 0.935 . S
C890 C891 1.377 . S
C890 C892 1.379 1_554 S
C891 C890 1.377 . S
C891 C897 1.383 1_554 S
C892 H883 0.930 . S
C892 C890 1.379 1_556 S
C892 C893 1.372 . S
C893 C892 1.372 . S
C893 C894 1.400 . S
C893 C898 1.490 . S
C894 H884 0.930 . S
C894 C893 1.400 . S
C894 C897 1.386 . S
H895 C911 0.930 . S
H896 C912 0.931 . S
C897 H885 0.929 . S
C897 C891 1.383 1_556 S
C897 C894 1.386 . S
C898 C893 1.490 . S
C898 C900 1.395 . S
C898 C901 1.403 . S
H899 C905 0.930 . S
C900 H886 0.930 . S
C900 C898 1.395 . S
C900 C903 1.403 . S
C901 C898 1.403 . S
C901 C902 1.524 1_556 S
C901 C905 1.400 . S
C902 H887 0.960 . S
C902 H888 0.960 . S
C902 H889 0.960 1_554 S
C902 C901 1.524 1_554 S
C903 C900 1.403 . S
C903 C904 1.392 . S
C903 C907 1.495 . S
C904 C903 1.392 . S
C904 C905 1.385 . S
C904 C906 1.478 . S
C905 H899 0.930 . S
C905 C901 1.400 . S
C905 C904 1.385 . S
C906 C904 1.478 . S
C906 C908 1.381 . S
C906 C912 1.383 . S
C907 C903 1.495 . S
C907 H913 0.959 . S
C907 H914 0.961 . S
C907 H915 0.960 . S
C908 C906 1.381 . S
C908 C909 1.394 . S
C908 H916 0.930 . S
C909 C908 1.394 . S
C909 C910 1.383 . S
C909 H917 0.929 . S
C910 C909 1.383 . S
C910 C911 1.377 . S
C911 H895 0.930 . S
C911 C910 1.377 . S
C911 C912 1.379 . S
C912 H896 0.931 . S
C912 C906 1.383 . S
C912 C911 1.379 . S
H913 C907 0.959 . S
H914 C907 0.961 . S
H915 C907 0.960 . S
H916 C908 0.930 . S
H917 C909 0.929 . S
H918 C926 0.929 . S
H919 C928 0.930 . S
H920 C930 0.930 . S
H921 C933 0.929 . S
H922 C936 0.930 . S
H923 C938 0.960 . S
H924 C938 0.960 . S
H925 C938 0.960 . S
C926 H918 0.929 . S
C926 C927 1.377 . S
C926 C928 1.384 . S
C927 C926 1.377 . S
C927 C933 1.390 . S
C928 H919 0.930 . S
C928 C926 1.384 . S
C928 C929 1.372 . S
C929 C928 1.372 . S
C929 C930 1.400 . S
C929 C934 1.490 . S
C930 H920 0.930 . S
C930 C929 1.400 . S
C930 C933 1.386 . S
H931 C947 0.930 . S
H932 C948 0.931 . S
C933 H921 0.929 . S
C933 C927 1.390 . S
C933 C930 1.386 . S
C934 C929 1.490 . S
C934 C936 1.395 . S
C934 C937 1.403 . S
H935 C941 0.930 . S
C936 H922 0.930 . S
C936 C934 1.395 . S
C936 C939 1.403 . S
C937 C934 1.403 . S
C937 C938 1.524 . S
C937 C941 1.400 . S
C938 H923 0.960 . S
C938 H924 0.960 . S
C938 H925 0.960 . S
C938 C937 1.524 . S
C939 C936 1.403 . S
C939 C940 1.392 . S
C939 C943 1.495 . S
C940 C939 1.392 . S
C940 C941 1.385 . S
C940 C942 1.478 . S
C941 H935 0.930 . S
C941 C937 1.400 . S
C941 C940 1.385 . S
C942 C940 1.478 . S
C942 C944 1.381 . S
C942 C948 1.383 . S
C943 C939 1.495 . S
C943 H949 0.959 . S
C943 H950 0.961 . S
C943 H951 0.960 . S
C944 C942 1.381 . S
C944 C945 1.394 1_556 S
C944 H952 0.930 1_556 S
C945 C944 1.394 1_554 S
C945 C946 1.382 1_554 S
C945 H953 0.929 . S
C946 C945 1.382 1_556 S
C946 C947 1.379 . S
C947 H931 0.930 . S
C947 C946 1.379 . S
C947 C948 1.379 . S
C948 H932 0.931 . S
C948 C942 1.383 . S
C948 C947 1.379 . S
H949 C943 0.959 . S
H950 C943 0.961 . S
H951 C943 0.960 . S
H952 C944 0.930 1_554 S
H953 C945 0.929 . S
H954 C962 0.929 . S
H955 C964 0.930 . S
H956 C966 0.930 . S
H957 C969 0.929 . S
H958 C972 0.930 . S
H959 C974 0.960 . S
H960 C974 0.960 . S
H961 C974 0.960 . S
C962 H954 0.929 . S
C962 C963 1.377 . S
C962 C964 1.384 . S
C963 C962 1.377 . S
C963 C969 1.390 . S
C964 H955 0.930 . S
C964 C962 1.384 . S
C964 C965 1.372 . S
C965 C964 1.372 . S
C965 C966 1.400 . S
C965 C970 1.490 . S
C966 H956 0.930 . S
C966 C965 1.400 . S
C966 C969 1.386 . S
H967 C983 0.930 . S
H968 C984 0.931 . S
C969 H957 0.929 . S
C969 C963 1.390 . S
C969 C966 1.386 . S
C970 C965 1.490 . S
C970 C972 1.395 . S
C970 C973 1.403 . S
H971 C977 0.930 . S
C972 H958 0.930 . S
C972 C970 1.395 . S
C972 C975 1.403 . S
C973 C970 1.403 . S
C973 C974 1.524 . S
C973 C977 1.400 . S
C974 H959 0.960 . S
C974 H960 0.960 . S
C974 H961 0.960 . S
C974 C973 1.524 . S
C975 C972 1.403 . S
C975 C976 1.392 . S
C975 C979 1.495 . S
C976 C975 1.392 . S
C976 C977 1.385 . S
C976 C978 1.478 . S
C977 H971 0.930 . S
C977 C973 1.400 . S
C977 C976 1.385 . S
C978 C976 1.478 . S
C978 C980 1.381 . S
C978 C984 1.383 1_556 S
C979 C975 1.495 . S
C979 H985 0.959 . S
C979 H986 0.961 . S
C979 H987 0.960 . S
C980 C978 1.381 . S
C980 C981 1.394 . S
C980 H988 0.930 . S
C981 C980 1.394 . S
C981 C982 1.383 1_556 S
C981 H989 0.929 . S
C982 C981 1.383 1_554 S
C982 C983 1.377 . S
C983 H967 0.930 . S
C983 C982 1.377 . S
C983 C984 1.379 . S
C984 H968 0.931 . S
C984 C978 1.383 1_554 S
C984 C983 1.379 . S
H985 C979 0.959 . S
H986 C979 0.961 . S
H987 C979 0.960 . S
H988 C980 0.930 . S
H989 C981 0.929 . S
H990 C998 0.929 . S
H991 C1000 0.930 . S
H992 C1002 0.930 . S
H993 C1005 0.929 . S
H994 C1008 0.930 . S
H995 C1010 0.960 . S
H996 C1010 0.960 . S
H997 C1010 0.960 . S
C998 H990 0.929 . S
C998 C999 1.377 . S
C998 C1000 1.384 . S
C999 C998 1.377 . S
C999 C1005 1.390 . S
C1000 H991 0.930 . S
C1000 C998 1.384 . S
C1000 C1001 1.372 . S
C1001 C1000 1.372 . S
C1001 C1002 1.400 . S
C1001 C1006 1.490 . S
C1002 H992 0.930 . S
C1002 C1001 1.400 . S
C1002 C1005 1.386 . S
H1003 C1019 0.930 . S
H1004 C1020 0.931 . S
C1005 H993 0.929 . S
C1005 C999 1.390 . S
C1005 C1002 1.386 . S
C1006 C1001 1.490 . S
C1006 C1008 1.395 . S
C1006 C1009 1.403 . S
H1007 C1013 0.930 . S
C1008 H994 0.930 . S
C1008 C1006 1.395 . S
C1008 C1011 1.403 . S
C1009 C1006 1.403 . S
C1009 C1010 1.524 . S
C1009 C1013 1.400 . S
C1010 H995 0.960 . S
C1010 H996 0.960 . S
C1010 H997 0.960 . S
C1010 C1009 1.524 . S
C1011 C1008 1.403 . S
C1011 C1012 1.392 . S
C1011 C1015 1.495 . S
C1012 C1011 1.392 . S
C1012 C1013 1.385 . S
C1012 C1014 1.478 . S
C1013 H1007 0.930 . S
C1013 C1009 1.400 . S
C1013 C1012 1.385 . S
C1014 C1012 1.478 . S
C1014 C1016 1.381 . S
C1014 C1020 1.383 . S
C1015 C1011 1.495 . S
C1015 H1021 0.959 . S
C1015 H1022 0.961 . S
C1015 H1023 0.960 . S
C1016 C1014 1.381 . S
C1016 C1017 1.394 . S
C1016 H1024 0.930 . S
C1017 C1016 1.394 . S
C1017 C1018 1.383 . S
C1017 H1025 0.929 . S
C1018 C1017 1.383 . S
C1018 C1019 1.377 . S
C1019 H1003 0.930 . S
C1019 C1018 1.377 . S
C1019 C1020 1.379 . S
C1020 H1004 0.931 . S
C1020 C1014 1.383 . S
C1020 C1019 1.379 . S
H1021 C1015 0.959 . S
H1022 C1015 0.961 . S
H1023 C1015 0.960 . S
H1024 C1016 0.930 . S
H1025 C1017 0.929 . S
H1026 C1034 0.929 . S
H1027 C1036 0.930 . S
H1028 C1038 0.930 . S
H1029 C1041 0.929 . S
H1030 C1044 0.930 . S
H1031 C1046 0.960 . S
H1032 C1046 0.960 . S
H1033 C1046 0.960 . S
C1034 H1026 0.929 . S
C1034 C1035 1.377 . S
C1034 C1036 1.384 . S
C1035 C1034 1.377 . S
C1035 C1041 1.390 . S
C1036 H1027 0.930 . S
C1036 C1034 1.384 . S
C1036 C1037 1.372 . S
C1037 C1036 1.372 . S
C1037 C1038 1.400 . S
C1037 C1042 1.490 . S
C1038 H1028 0.930 . S
C1038 C1037 1.400 . S
C1038 C1041 1.386 . S
H1039 C1055 0.930 . S
H1040 C1056 0.931 . S
C1041 H1029 0.929 . S
C1041 C1035 1.390 . S
C1041 C1038 1.386 . S
C1042 C1037 1.490 . S
C1042 C1044 1.395 . S
C1042 C1045 1.403 . S
H1043 C1049 0.930 . S
C1044 H1030 0.930 . S
C1044 C1042 1.395 . S
C1044 C1047 1.403 . S
C1045 C1042 1.403 . S
C1045 C1046 1.524 . S
C1045 C1049 1.400 . S
C1046 H1031 0.960 . S
C1046 H1032 0.960 . S
C1046 H1033 0.960 . S
C1046 C1045 1.524 . S
C1047 C1044 1.403 . S
C1047 C1048 1.392 . S
C1047 C1051 1.495 . S
C1048 C1047 1.392 . S
C1048 C1049 1.385 . S
C1048 C1050 1.478 . S
C1049 H1043 0.930 . S
C1049 C1045 1.400 . S
C1049 C1048 1.385 . S
C1050 C1048 1.478 . S
C1050 C1052 1.381 . S
C1050 C1056 1.383 . S
C1051 C1047 1.495 . S
C1051 H1057 0.959 . S
C1051 H1058 0.961 . S
C1051 H1059 0.960 . S
C1052 C1050 1.381 . S
C1052 C1053 1.394 . S
C1052 H1060 0.930 . S
C1053 C1052 1.394 . S
C1053 C1054 1.383 . S
C1053 H1061 0.929 . S
C1054 C1053 1.383 . S
C1054 C1055 1.377 . S
C1055 H1039 0.930 . S
C1055 C1054 1.377 . S
C1055 C1056 1.379 . S
C1056 H1040 0.931 . S
C1056 C1050 1.383 . S
C1056 C1055 1.379 . S
H1057 C1051 0.959 . S
H1058 C1051 0.961 . S
H1059 C1051 0.960 . S
H1060 C1052 0.930 . S
H1061 C1053 0.929 . S
H1062 C1070 0.929 . S
H1063 C1072 0.930 . S
H1064 C1074 0.930 . S
H1065 C1077 0.929 . S
H1066 C1080 0.930 . S
H1067 C1082 0.960 . S
H1068 C1082 0.960 . S
H1069 C1082 0.960 . S
C1070 H1062 0.929 . S
C1070 C1071 1.377 . S
C1070 C1072 1.384 . S
C1071 C1070 1.377 . S
C1071 C1077 1.390 . S
C1072 H1063 0.930 . S
C1072 C1070 1.384 . S
C1072 C1073 1.372 . S
C1073 C1072 1.372 . S
C1073 C1074 1.400 . S
C1073 C1078 1.490 . S
C1074 H1064 0.930 . S
C1074 C1073 1.400 . S
C1074 C1077 1.386 . S
H1075 C1091 0.930 . S
H1076 C1092 0.931 . S
C1077 H1065 0.929 . S
C1077 C1071 1.390 . S
C1077 C1074 1.386 . S
C1078 C1073 1.490 . S
C1078 C1080 1.395 . S
C1078 C1081 1.403 . S
H1079 C1085 0.930 . S
C1080 H1066 0.930 . S
C1080 C1078 1.395 . S
C1080 C1083 1.403 . S
C1081 C1078 1.403 . S
C1081 C1082 1.524 . S
C1081 C1085 1.400 . S
C1082 H1067 0.960 . S
C1082 H1068 0.960 . S
C1082 H1069 0.960 . S
C1082 C1081 1.524 . S
C1083 C1080 1.403 . S
C1083 C1084 1.392 . S
C1083 C1087 1.495 . S
C1084 C1083 1.392 . S
C1084 C1085 1.385 . S
C1084 C1086 1.478 . S
C1085 H1079 0.930 . S
C1085 C1081 1.400 . S
C1085 C1084 1.385 . S
C1086 C1084 1.478 . S
C1086 C1088 1.381 . S
C1086 C1092 1.383 . S
C1087 C1083 1.495 . S
C1087 H1093 0.959 . S
C1087 H1094 0.961 . S
C1087 H1095 0.960 . S
C1088 C1086 1.381 . S
C1088 C1089 1.394 . S
C1088 H1096 0.930 . S
C1089 C1088 1.394 . S
C1089 C1090 1.383 . S
C1089 H1097 0.929 . S
C1090 C1089 1.383 . S
C1090 C1091 1.377 . S
C1091 H1075 0.930 . S
C1091 C1090 1.377 . S
C1091 C1092 1.379 . S
C1092 H1076 0.931 . S
C1092 C1086 1.383 . S
C1092 C1091 1.379 . S
H1093 C1087 0.959 . S
H1094 C1087 0.961 . S
H1095 C1087 0.960 . S
H1096 C1088 0.930 . S
H1097 C1089 0.929 . S
H1098 C1106 0.929 . S
H1099 C1108 0.930 . S
H1100 C1110 0.930 . S
H1101 C1113 0.929 . S
H1102 C1116 0.930 . S
H1103 C1118 0.960 . S
H1104 C1118 0.960 . S
H1105 C1118 0.960 . S
C1106 H1098 0.929 . S
C1106 C1107 1.377 . S
C1106 C1108 1.384 . S
C1107 C1106 1.377 . S
C1107 C1113 1.390 . S
C1108 H1099 0.930 . S
C1108 C1106 1.384 . S
C1108 C1109 1.372 . S
C1109 C1108 1.372 . S
C1109 C1110 1.400 . S
C1109 C1114 1.490 . S
C1110 H1100 0.930 . S
C1110 C1109 1.400 . S
C1110 C1113 1.386 . S
H1111 C1127 0.930 1_455 S
H1112 C1128 0.931 . S
C1113 H1101 0.929 . S
C1113 C1107 1.390 . S
C1113 C1110 1.386 . S
C1114 C1109 1.490 . S
C1114 C1116 1.395 . S
C1114 C1117 1.403 . S
H1115 C1121 0.930 . S
C1116 H1102 0.930 . S
C1116 C1114 1.395 . S
C1116 C1119 1.403 . S
C1117 C1114 1.403 . S
C1117 C1118 1.524 . S
C1117 C1121 1.400 . S
C1118 H1103 0.960 . S
C1118 H1104 0.960 . S
C1118 H1105 0.960 . S
C1118 C1117 1.524 . S
C1119 C1116 1.403 . S
C1119 C1120 1.392 . S
C1119 C1123 1.495 . S
C1120 C1119 1.392 . S
C1120 C1121 1.385 . S
C1120 C1122 1.478 . S
C1121 H1115 0.930 . S
C1121 C1117 1.400 . S
C1121 C1120 1.385 . S
C1122 C1120 1.478 . S
C1122 C1124 1.381 . S
C1122 C1128 1.383 . S
C1123 C1119 1.495 . S
C1123 H1129 0.959 . S
C1123 H1130 0.961 . S
C1123 H1131 0.960 . S
C1124 C1122 1.381 . S
C1124 C1125 1.394 . S
C1124 H1132 0.930 . S
C1125 C1124 1.394 . S
C1125 C1126 1.383 . S
C1125 H1133 0.929 . S
C1126 C1125 1.383 . S
C1126 C1127 1.377 . S
C1127 H1111 0.930 1_655 S
C1127 C1126 1.377 . S
C1127 C1128 1.379 . S
C1128 H1112 0.931 . S
C1128 C1122 1.383 . S
C1128 C1127 1.379 . S
H1129 C1123 0.959 . S
H1130 C1123 0.961 . S
H1131 C1123 0.960 . S
H1132 C1124 0.930 . S
H1133 C1125 0.929 . S
H1134 C1142 0.929 . S
H1135 C1144 0.930 . S
H1136 C1146 0.930 . S
H1137 C1149 0.929 . S
H1138 C1152 0.930 . S
H1139 C1154 0.960 . S
H1140 C1154 0.960 . S
H1141 C1154 0.960 . S
C1142 H1134 0.929 . S
C1142 C1143 1.377 . S
C1142 C1144 1.384 . S
C1143 C1142 1.377 . S
C1143 C1149 1.390 . S
C1144 H1135 0.930 . S
C1144 C1142 1.384 . S
C1144 C1145 1.372 . S
C1145 C1144 1.372 . S
C1145 C1146 1.400 . S
C1145 C1150 1.490 . S
C1146 H1136 0.930 . S
C1146 C1145 1.400 . S
C1146 C1149 1.386 . S
H1147 C1163 0.930 . S
H1148 C1164 0.931 . S
C1149 H1137 0.929 . S
C1149 C1143 1.390 . S
C1149 C1146 1.386 . S
C1150 C1145 1.490 . S
C1150 C1152 1.395 . S
C1150 C1153 1.403 . S
H1151 C1157 0.930 . S
C1152 H1138 0.930 . S
C1152 C1150 1.395 . S
C1152 C1155 1.403 . S
C1153 C1150 1.403 . S
C1153 C1154 1.524 . S
C1153 C1157 1.400 . S
C1154 H1139 0.960 . S
C1154 H1140 0.960 . S
C1154 H1141 0.960 . S
C1154 C1153 1.524 . S
C1155 C1152 1.403 . S
C1155 C1156 1.392 . S
C1155 C1159 1.495 . S
C1156 C1155 1.392 . S
C1156 C1157 1.385 . S
C1156 C1158 1.478 . S
C1157 H1151 0.930 . S
C1157 C1153 1.400 . S
C1157 C1156 1.385 . S
C1158 C1156 1.478 . S
C1158 C1160 1.381 . S
C1158 C1164 1.383 . S
C1159 C1155 1.495 . S
C1159 H1165 0.959 . S
C1159 H1166 0.961 . S
C1159 H1167 0.960 . S
C1160 C1158 1.381 . S
C1160 C1161 1.394 . S
C1160 H1168 0.930 . S
C1161 C1160 1.394 . S
C1161 C1162 1.383 . S
C1161 H1169 0.929 . S
C1162 C1161 1.383 . S
C1162 C1163 1.377 . S
C1163 H1147 0.930 . S
C1163 C1162 1.377 . S
C1163 C1164 1.379 . S
C1164 H1148 0.931 . S
C1164 C1158 1.383 . S
C1164 C1163 1.379 . S
H1165 C1159 0.959 . S
H1166 C1159 0.961 . S
H1167 C1159 0.960 . S
H1168 C1160 0.930 . S
H1169 C1161 0.929 . S
H1170 C1178 0.929 . S
H1171 C1180 0.930 . S
H1172 C1182 0.930 . S
H1173 C1185 0.929 . S
H1174 C1188 0.930 . S
H1175 C1190 0.960 . S
H1176 C1190 0.960 . S
H1177 C1190 0.960 . S
C1178 H1170 0.929 . S
C1178 C1179 1.377 . S
C1178 C1180 1.384 . S
C1179 C1178 1.377 . S
C1179 C1185 1.390 . S
C1180 H1171 0.930 . S
C1180 C1178 1.384 . S
C1180 C1181 1.372 . S
C1181 C1180 1.372 . S
C1181 C1182 1.400 . S
C1181 C1186 1.490 . S
C1182 H1172 0.930 . S
C1182 C1181 1.400 . S
C1182 C1185 1.386 . S
H1183 C1199 0.930 . S
H1184 C1200 0.931 . S
C1185 H1173 0.929 . S
C1185 C1179 1.390 . S
C1185 C1182 1.386 . S
C1186 C1181 1.490 . S
C1186 C1188 1.395 . S
C1186 C1189 1.403 . S
H1187 C1193 0.930 . S
C1188 H1174 0.930 . S
C1188 C1186 1.395 . S
C1188 C1191 1.403 . S
C1189 C1186 1.403 . S
C1189 C1190 1.524 . S
C1189 C1193 1.400 . S
C1190 H1175 0.960 . S
C1190 H1176 0.960 . S
C1190 H1177 0.960 . S
C1190 C1189 1.524 . S
C1191 C1188 1.403 . S
C1191 C1192 1.392 . S
C1191 C1195 1.495 . S
C1192 C1191 1.392 . S
C1192 C1193 1.385 . S
C1192 C1194 1.478 . S
C1193 H1187 0.930 . S
C1193 C1189 1.400 . S
C1193 C1192 1.385 . S
C1194 C1192 1.478 . S
C1194 C1196 1.381 . S
C1194 C1200 1.383 . S
C1195 C1191 1.495 . S
C1195 H1201 0.959 . S
C1195 H1202 0.961 . S
C1195 H1203 0.960 . S
C1196 C1194 1.381 . S
C1196 C1197 1.394 . S
C1196 H1204 0.930 . S
C1197 C1196 1.394 . S
C1197 C1198 1.383 . S
C1197 H1205 0.929 . S
C1198 C1197 1.383 . S
C1198 C1199 1.377 . S
C1199 H1183 0.930 . S
C1199 C1198 1.377 . S
C1199 C1200 1.379 . S
C1200 H1184 0.931 . S
C1200 C1194 1.383 . S
C1200 C1199 1.379 . S
H1201 C1195 0.959 . S
H1202 C1195 0.961 . S
H1203 C1195 0.960 . S
H1204 C1196 0.930 . S
H1205 C1197 0.929 . S
H1206 C1214 0.929 1_545 S
H1207 C1216 0.930 . S
H1208 C1218 0.930 . S
H1209 C1221 0.929 . S
H1210 C1224 0.930 . S
H1211 C1226 0.960 . S
H1212 C1226 0.960 . S
H1213 C1226 0.960 . S
C1214 H1206 0.929 1_565 S
C1214 C1215 1.377 . S
C1214 C1216 1.384 . S
C1215 C1214 1.377 . S
C1215 C1221 1.390 . S
C1216 H1207 0.930 . S
C1216 C1214 1.384 . S
C1216 C1217 1.372 . S
C1217 C1216 1.372 . S
C1217 C1218 1.400 . S
C1217 C1222 1.490 . S
C1218 H1208 0.930 . S
C1218 C1217 1.400 . S
C1218 C1221 1.386 . S
H1219 C1235 0.930 . S
H1220 C1236 0.931 . S
C1221 H1209 0.929 . S
C1221 C1215 1.390 . S
C1221 C1218 1.386 . S
C1222 C1217 1.490 . S
C1222 C1224 1.395 . S
C1222 C1225 1.403 . S
H1223 C1229 0.930 . S
C1224 H1210 0.930 . S
C1224 C1222 1.395 . S
C1224 C1227 1.403 . S
C1225 C1222 1.403 . S
C1225 C1226 1.524 . S
C1225 C1229 1.400 . S
C1226 H1211 0.960 . S
C1226 H1212 0.960 . S
C1226 H1213 0.960 . S
C1226 C1225 1.524 . S
C1227 C1224 1.403 . S
C1227 C1228 1.392 . S
C1227 C1231 1.495 . S
C1228 C1227 1.392 . S
C1228 C1229 1.385 . S
C1228 C1230 1.478 . S
C1229 H1223 0.930 . S
C1229 C1225 1.400 . S
C1229 C1228 1.385 . S
C1230 C1228 1.478 . S
C1230 C1232 1.381 . S
C1230 C1236 1.383 . S
C1231 C1227 1.495 . S
C1231 H1237 0.959 . S
C1231 H1238 0.961 . S
C1231 H1239 0.960 . S
C1232 C1230 1.381 . S
C1232 C1233 1.394 . S
C1232 H1240 0.930 . S
C1233 C1232 1.394 . S
C1233 C1234 1.383 . S
C1233 H1241 0.929 . S
C1234 C1233 1.383 . S
C1234 C1235 1.377 . S
C1235 H1219 0.930 . S
C1235 C1234 1.377 . S
C1235 C1236 1.379 . S
C1236 H1220 0.931 . S
C1236 C1230 1.383 . S
C1236 C1235 1.379 . S
H1237 C1231 0.959 . S
H1238 C1231 0.961 . S
H1239 C1231 0.960 . S
H1240 C1232 0.930 . S
H1241 C1233 0.929 . S
H1242 C1250 0.929 . S
H1243 C1252 0.930 . S
H1244 C1254 0.930 . S
H1245 C1257 0.929 . S
H1246 C1260 0.930 . S
H1247 C1262 0.960 . S
H1248 C1262 0.960 . S
H1249 C1262 0.960 . S
C1250 H1242 0.929 . S
C1250 C1251 1.377 . S
C1250 C1252 1.384 . S
C1251 C1250 1.377 . S
C1251 C1257 1.390 . S
C1252 H1243 0.930 . S
C1252 C1250 1.384 . S
C1252 C1253 1.372 . S
C1253 C1252 1.372 . S
C1253 C1254 1.400 . S
C1253 C1258 1.490 . S
C1254 H1244 0.930 . S
C1254 C1253 1.400 . S
C1254 C1257 1.386 . S
H1255 C1271 0.930 . S
H1256 C1272 0.931 . S
C1257 H1245 0.929 . S
C1257 C1251 1.390 . S
C1257 C1254 1.386 . S
C1258 C1253 1.490 . S
C1258 C1260 1.395 . S
C1258 C1261 1.403 . S
H1259 C1265 0.930 . S
C1260 H1246 0.930 . S
C1260 C1258 1.395 . S
C1260 C1263 1.403 . S
C1261 C1258 1.403 . S
C1261 C1262 1.524 . S
C1261 C1265 1.400 . S
C1262 H1247 0.960 . S
C1262 H1248 0.960 . S
C1262 H1249 0.960 . S
C1262 C1261 1.524 . S
C1263 C1260 1.403 . S
C1263 C1264 1.392 . S
C1263 C1267 1.495 . S
C1264 C1263 1.392 . S
C1264 C1265 1.385 . S
C1264 C1266 1.478 . S
C1265 H1259 0.930 . S
C1265 C1261 1.400 . S
C1265 C1264 1.385 . S
C1266 C1264 1.478 . S
C1266 C1268 1.381 . S
C1266 C1272 1.383 . S
C1267 C1263 1.495 . S
C1267 H1273 0.959 . S
C1267 H1274 0.961 . S
C1267 H1275 0.960 . S
C1268 C1266 1.381 . S
C1268 C1269 1.394 . S
C1268 H1276 0.930 . S
C1269 C1268 1.394 . S
C1269 C1270 1.383 . S
C1269 H1277 0.929 . S
C1270 C1269 1.383 . S
C1270 C1271 1.377 . S
C1271 H1255 0.930 . S
C1271 C1270 1.377 . S
C1271 C1272 1.379 . S
C1272 H1256 0.931 . S
C1272 C1266 1.383 . S
C1272 C1271 1.379 . S
H1273 C1267 0.959 . S
H1274 C1267 0.961 . S
H1275 C1267 0.960 . S
H1276 C1268 0.930 . S
H1277 C1269 0.929 . S
H1278 C1286 0.929 . S
H1279 C1288 0.930 . S
H1280 C1290 0.930 . S
H1281 C1293 0.929 . S
H1282 C1296 0.930 . S
H1283 C1298 0.960 . S
H1284 C1298 0.960 . S
H1285 C1298 0.960 . S
C1286 H1278 0.929 . S
C1286 C1287 1.377 . S
C1286 C1288 1.384 . S
C1287 C1286 1.377 . S
C1287 C1293 1.390 . S
C1288 H1279 0.930 . S
C1288 C1286 1.384 . S
C1288 C1289 1.372 . S
C1289 C1288 1.372 . S
C1289 C1290 1.400 . S
C1289 C1294 1.490 . S
C1290 H1280 0.930 . S
C1290 C1289 1.400 . S
C1290 C1293 1.386 . S
H1291 C1307 0.930 . S
H1292 C1308 0.931 . S
C1293 H1281 0.929 . S
C1293 C1287 1.390 . S
C1293 C1290 1.386 . S
C1294 C1289 1.490 . S
C1294 C1296 1.395 . S
C1294 C1297 1.403 . S
H1295 C1301 0.930 . S
C1296 H1282 0.930 . S
C1296 C1294 1.395 . S
C1296 C1299 1.403 . S
C1297 C1294 1.403 . S
C1297 C1298 1.524 . S
C1297 C1301 1.400 . S
C1298 H1283 0.960 . S
C1298 H1284 0.960 . S
C1298 H1285 0.960 . S
C1298 C1297 1.524 . S
C1299 C1296 1.403 . S
C1299 C1300 1.392 . S
C1299 C1303 1.495 . S
C1300 C1299 1.392 . S
C1300 C1301 1.385 . S
C1300 C1302 1.478 . S
C1301 H1295 0.930 . S
C1301 C1297 1.400 . S
C1301 C1300 1.385 . S
C1302 C1300 1.478 . S
C1302 C1304 1.381 . S
C1302 C1308 1.383 . S
C1303 C1299 1.495 . S
C1303 H1309 0.959 . S
C1303 H1310 0.961 . S
C1303 H1311 0.960 . S
C1304 C1302 1.381 . S
C1304 C1305 1.394 . S
C1304 H1312 0.930 . S
C1305 C1304 1.394 . S
C1305 C1306 1.383 . S
C1305 H1313 0.929 . S
C1306 C1305 1.383 . S
C1306 C1307 1.377 . S
C1307 H1291 0.930 . S
C1307 C1306 1.377 . S
C1307 C1308 1.379 . S
C1308 H1292 0.931 . S
C1308 C1302 1.383 . S
C1308 C1307 1.379 . S
H1309 C1303 0.959 . S
H1310 C1303 0.961 . S
H1311 C1303 0.960 . S
H1312 C1304 0.930 . S
H1313 C1305 0.929 . S
H1314 C1322 0.929 . S
H1315 C1324 0.930 . S
H1316 C1326 0.930 . S
H1317 C1329 0.929 . S
H1318 C1332 0.930 . S
H1319 C1334 0.960 . S
H1320 C1334 0.960 . S
H1321 C1334 0.960 . S
C1322 H1314 0.929 . S
C1322 C1323 1.377 . S
C1322 C1324 1.384 . S
C1323 C1322 1.377 . S
C1323 C1329 1.390 . S
C1324 H1315 0.930 . S
C1324 C1322 1.384 . S
C1324 C1325 1.372 . S
C1325 C1324 1.372 . S
C1325 C1326 1.400 . S
C1325 C1330 1.490 . S
C1326 H1316 0.930 . S
C1326 C1325 1.400 . S
C1326 C1329 1.386 . S
H1327 C1343 0.930 . S
H1328 C1344 0.931 . S
C1329 H1317 0.929 . S
C1329 C1323 1.390 . S
C1329 C1326 1.386 . S
C1330 C1325 1.490 . S
C1330 C1332 1.395 . S
C1330 C1333 1.403 . S
H1331 C1337 0.930 . S
C1332 H1318 0.930 . S
C1332 C1330 1.395 . S
C1332 C1335 1.403 . S
C1333 C1330 1.403 . S
C1333 C1334 1.524 . S
C1333 C1337 1.400 . S
C1334 H1319 0.960 . S
C1334 H1320 0.960 . S
C1334 H1321 0.960 . S
C1334 C1333 1.524 . S
C1335 C1332 1.403 . S
C1335 C1336 1.392 . S
C1335 C1339 1.495 . S
C1336 C1335 1.392 . S
C1336 C1337 1.385 . S
C1336 C1338 1.478 . S
C1337 H1331 0.930 . S
C1337 C1333 1.400 . S
C1337 C1336 1.385 . S
C1338 C1336 1.478 . S
C1338 C1340 1.381 . S
C1338 C1344 1.383 . S
C1339 C1335 1.495 . S
C1339 H1345 0.959 . S
C1339 H1346 0.961 . S
C1339 H1347 0.960 . S
C1340 C1338 1.381 . S
C1340 C1341 1.394 . S
C1340 H1348 0.930 . S
C1341 C1340 1.394 . S
C1341 C1342 1.383 . S
C1341 H1349 0.929 . S
C1342 C1341 1.383 . S
C1342 C1343 1.377 . S
C1343 H1327 0.930 . S
C1343 C1342 1.377 . S
C1343 C1344 1.379 . S
C1344 H1328 0.931 . S
C1344 C1338 1.383 . S
C1344 C1343 1.379 . S
H1345 C1339 0.959 . S
H1346 C1339 0.961 . S
H1347 C1339 0.960 . S
H1348 C1340 0.930 . S
H1349 C1341 0.929 . S
H1350 C1358 0.929 . S
H1351 C1360 0.930 . S
H1352 C1362 0.930 . S
H1353 C1365 0.929 . S
H1354 C1368 0.930 . S
H1355 C1370 0.960 . S
H1356 C1370 0.960 . S
H1357 C1370 0.960 . S
C1358 H1350 0.929 . S
C1358 C1359 1.377 . S
C1358 C1360 1.384 . S
C1359 C1358 1.377 . S
C1359 C1365 1.390 . S
C1360 H1351 0.930 . S
C1360 C1358 1.384 . S
C1360 C1361 1.372 . S
C1361 C1360 1.372 . S
C1361 C1362 1.400 . S
C1361 C1366 1.490 . S
C1362 H1352 0.930 . S
C1362 C1361 1.400 . S
C1362 C1365 1.386 . S
H1363 C1379 0.930 . S
H1364 C1380 0.931 . S
C1365 H1353 0.929 . S
C1365 C1359 1.390 . S
C1365 C1362 1.386 . S
C1366 C1361 1.490 . S
C1366 C1368 1.395 . S
C1366 C1369 1.403 . S
H1367 C1373 0.985 . S
C1368 H1354 0.930 . S
C1368 C1366 1.395 . S
C1368 C1371 1.403 . S
C1369 C1366 1.403 . S
C1369 C1370 1.524 . S
C1369 C1373 1.356 1_545 S
C1370 H1355 0.960 . S
C1370 H1356 0.960 . S
C1370 H1357 0.960 . S
C1370 C1369 1.524 . S
C1371 C1368 1.403 . S
C1371 C1372 1.392 1_545 S
C1371 C1375 1.495 . S
C1372 C1371 1.392 1_565 S
C1372 C1373 1.379 . S
C1372 C1374 1.478 . S
C1373 H1367 0.985 . S
C1373 C1369 1.356 1_565 S
C1373 C1372 1.379 . S
C1374 C1372 1.478 . S
C1374 C1376 1.381 . S
C1374 C1380 1.383 . S
C1375 C1371 1.495 . S
C1375 H1381 0.959 . S
C1375 H1382 0.961 1_545 S
C1375 H1383 0.960 . S
C1376 C1374 1.381 . S
C1376 C1377 1.394 . S
C1376 H1384 0.930 . S
C1377 C1376 1.394 . S
C1377 C1378 1.383 . S
C1377 H1385 0.929 . S
C1378 C1377 1.383 . S
C1378 C1379 1.377 . S
C1379 H1363 0.930 . S
C1379 C1378 1.377 . S
C1379 C1380 1.379 . S
C1380 H1364 0.931 . S
C1380 C1374 1.383 . S
C1380 C1379 1.379 . S
H1381 C1375 0.959 . S
H1382 C1375 0.961 1_565 S
H1383 C1375 0.960 . S
H1384 C1376 0.930 . S
H1385 C1377 0.929 . S
H1386 C1394 0.929 . S
H1387 C1396 0.930 . S
H1388 C1398 0.930 . S
H1389 C1401 0.929 . S
H1390 C1404 0.930 . S
H1391 C1406 0.960 1_655 S
H1392 C1406 0.960 . S
H1393 C1406 0.960 . S
C1394 H1386 0.929 . S
C1394 C1395 1.377 . S
C1394 C1396 1.384 . S
C1395 C1394 1.377 . S
C1395 C1401 1.390 . S
C1396 H1387 0.930 . S
C1396 C1394 1.384 . S
C1396 C1397 1.372 . S
C1397 C1396 1.372 . S
C1397 C1398 1.400 . S
C1397 C1402 1.490 . S
C1398 H1388 0.930 . S
C1398 C1397 1.400 . S
C1398 C1401 1.386 . S
H1399 C1415 0.930 . S
H1400 C1416 0.931 . S
C1401 H1389 0.929 . S
C1401 C1395 1.390 . S
C1401 C1398 1.386 . S
C1402 C1397 1.490 . S
C1402 C1404 1.395 . S
C1402 C1405 1.403 . S
H1403 C1409 0.930 . S
C1404 H1390 0.930 . S
C1404 C1402 1.395 . S
C1404 C1407 1.403 . S
C1405 C1402 1.403 . S
C1405 C1406 1.524 . S
C1405 C1409 1.400 1_455 S
C1406 H1391 0.960 1_455 S
C1406 H1392 0.960 . S
C1406 H1393 0.960 . S
C1406 C1405 1.524 . S
C1407 C1404 1.403 . S
C1407 C1408 1.392 1_455 S
C1407 C1411 1.486 . S
C1408 C1407 1.392 1_655 S
C1408 C1409 1.385 . S
C1408 C1410 1.478 . S
C1409 H1403 0.930 . S
C1409 C1405 1.400 1_655 S
C1409 C1408 1.385 . S
C1410 C1408 1.478 . S
C1410 C1412 1.381 . S
C1410 C1416 1.383 . S
C1411 C1407 1.486 . S
C1411 H1417 1.009 . S
C1411 H1418 0.955 1_455 S
C1411 H1419 0.929 1_455 S
C1412 C1410 1.381 . S
C1412 C1413 1.394 . S
C1412 H1420 0.930 . S
C1413 C1412 1.394 . S
C1413 C1414 1.383 . S
C1413 H1421 0.929 . S
C1414 C1413 1.383 . S
C1414 C1415 1.377 . S
C1415 H1399 0.930 . S
C1415 C1414 1.377 . S
C1415 C1416 1.379 . S
C1416 H1400 0.931 . S
C1416 C1410 1.383 . S
C1416 C1415 1.379 . S
H1417 C1411 1.009 . S
H1418 C1411 0.955 1_655 S
H1419 C1411 0.929 1_655 S
H1420 C1412 0.930 . S
H1421 C1413 0.929 . S
H1422 C1430 0.929 . S
H1423 C1432 0.930 . S
H1424 C1434 0.930 . S
H1425 C1437 0.929 . S
H1426 C1440 0.930 . S
H1427 C1442 0.960 . S
H1428 C1442 0.960 . S
H1429 C1442 0.960 . S
C1430 H1422 0.929 . S
C1430 C1431 1.377 . S
C1430 C1432 1.384 . S
C1431 C1430 1.377 . S
C1431 C1437 1.390 . S
C1432 H1423 0.930 . S
C1432 C1430 1.384 . S
C1432 C1433 1.372 . S
C1433 C1432 1.372 . S
C1433 C1434 1.400 . S
C1433 C1438 1.490 . S
C1434 H1424 0.930 . S
C1434 C1433 1.400 . S
C1434 C1437 1.386 . S
H1435 C1451 0.930 . S
H1436 C1452 0.931 . S
C1437 H1425 0.929 . S
C1437 C1431 1.390 . S
C1437 C1434 1.386 . S
C1438 C1433 1.490 . S
C1438 C1440 1.395 . S
C1438 C1441 1.403 . S
H1439 C1445 0.930 . S
C1440 H1426 0.930 . S
C1440 C1438 1.395 . S
C1440 C1443 1.403 . S
C1441 C1438 1.403 . S
C1441 C1442 1.524 . S
C1441 C1445 1.400 . S
C1442 H1427 0.960 . S
C1442 H1428 0.960 . S
C1442 H1429 0.960 . S
C1442 C1441 1.524 . S
C1443 C1440 1.403 . S
C1443 C1444 1.392 . S
C1443 C1447 1.495 . S
C1444 C1443 1.392 . S
C1444 C1445 1.385 . S
C1444 C1446 1.478 . S
C1445 H1439 0.930 . S
C1445 C1441 1.400 . S
C1445 C1444 1.385 . S
C1446 C1444 1.478 . S
C1446 C1448 1.381 . S
C1446 C1452 1.383 . S
C1447 C1443 1.495 . S
C1447 H1453 0.959 . S
C1447 H1454 0.961 . S
C1447 H1455 0.960 . S
C1448 C1446 1.381 . S
C1448 C1449 1.394 . S
C1448 H1456 0.930 . S
C1449 C1448 1.394 . S
C1449 C1450 1.383 . S
C1449 H1457 0.929 . S
C1450 C1449 1.383 . S
C1450 C1451 1.377 . S
C1451 H1435 0.930 . S
C1451 C1450 1.377 . S
C1451 C1452 1.379 . S
C1452 H1436 0.931 . S
C1452 C1446 1.383 . S
C1452 C1451 1.379 . S
H1453 C1447 0.959 . S
H1454 C1447 0.961 . S
H1455 C1447 0.960 . S
H1456 C1448 0.930 . S
H1457 C1449 0.929 . S
H1458 C1466 0.929 . S
H1459 C1468 0.930 . S
H1460 C1470 0.930 . S
H1461 C1473 0.929 . S
H1462 C1476 0.930 . S
H1463 C1478 0.960 . S
H1464 C1478 0.960 . S
H1465 C1478 0.960 . S
C1466 H1458 0.929 . S
C1466 C1467 1.377 . S
C1466 C1468 1.384 . S
C1467 C1466 1.377 . S
C1467 C1473 1.390 . S
C1468 H1459 0.930 . S
C1468 C1466 1.384 . S
C1468 C1469 1.372 . S
C1469 C1468 1.372 . S
C1469 C1470 1.400 . S
C1469 C1474 1.490 . S
C1470 H1460 0.930 . S
C1470 C1469 1.400 . S
C1470 C1473 1.386 . S
H1471 C1487 0.930 . S
H1472 C1488 0.931 . S
C1473 H1461 0.929 . S
C1473 C1467 1.390 . S
C1473 C1470 1.386 . S
C1474 C1469 1.490 . S
C1474 C1476 1.395 . S
C1474 C1477 1.403 . S
H1475 C1481 0.934 1_565 S
C1476 H1462 0.930 . S
C1476 C1474 1.395 . S
C1476 C1479 1.403 . S
C1477 C1474 1.403 . S
C1477 C1478 1.524 . S
C1477 C1481 1.400 . S
C1478 H1463 0.960 . S
C1478 H1464 0.960 . S
C1478 H1465 0.960 . S
C1478 C1477 1.524 . S
C1479 C1476 1.403 . S
C1479 C1480 1.392 1_545 S
C1479 C1483 1.495 1_545 S
C1480 C1479 1.392 1_565 S
C1480 C1481 1.385 1_565 S
C1480 C1482 1.478 . S
C1481 H1475 0.934 1_545 S
C1481 C1477 1.400 . S
C1481 C1480 1.385 1_545 S
C1482 C1480 1.478 . S
C1482 C1484 1.381 . S
C1482 C1488 1.383 . S
C1483 C1479 1.495 1_565 S
C1483 H1489 0.959 . S
C1483 H1490 0.961 . S
C1483 H1491 0.960 . S
C1484 C1482 1.381 . S
C1484 C1485 1.394 . S
C1484 H1492 0.930 . S
C1485 C1484 1.394 . S
C1485 C1486 1.383 . S
C1485 H1493 0.929 . S
C1486 C1485 1.383 . S
C1486 C1487 1.377 . S
C1487 H1471 0.930 . S
C1487 C1486 1.377 . S
C1487 C1488 1.379 . S
C1488 H1472 0.931 . S
C1488 C1482 1.383 . S
C1488 C1487 1.379 . S
H1489 C1483 0.959 . S
H1490 C1483 0.961 . S
H1491 C1483 0.960 . S
H1492 C1484 0.930 . S
H1493 C1485 0.929 . S
H1494 C1502 0.929 . S
H1495 C1504 0.930 . S
H1496 C1506 0.930 . S
H1497 C1509 0.929 . S
H1498 C1512 0.930 . S
H1499 C1514 0.960 . S
H1500 C1514 0.960 . S
H1501 C1514 0.960 . S
C1502 H1494 0.929 . S
C1502 C1503 1.377 . S
C1502 C1504 1.384 . S
C1503 C1502 1.377 . S
C1503 C1509 1.390 . S
C1504 H1495 0.930 . S
C1504 C1502 1.384 . S
C1504 C1505 1.372 . S
C1505 C1504 1.372 . S
C1505 C1506 1.400 . S
C1505 C1510 1.490 . S
C1506 H1496 0.930 . S
C1506 C1505 1.400 . S
C1506 C1509 1.386 . S
H1507 C1523 0.930 . S
H1508 C1524 0.931 . S
C1509 H1497 0.929 . S
C1509 C1503 1.390 . S
C1509 C1506 1.386 . S
C1510 C1505 1.490 . S
C1510 C1512 1.395 . S
C1510 C1513 1.403 . S
H1511 C1517 0.930 . S
C1512 H1498 0.930 . S
C1512 C1510 1.395 . S
C1512 C1515 1.403 1_455 S
C1513 C1510 1.403 . S
C1513 C1514 1.524 . S
C1513 C1517 1.400 1_455 S
C1514 H1499 0.960 . S
C1514 H1500 0.960 . S
C1514 H1501 0.960 . S
C1514 C1513 1.524 . S
C1515 C1512 1.403 1_655 S
C1515 C1516 1.392 . S
C1515 C1519 1.495 . S
C1516 C1515 1.392 . S
C1516 C1517 1.385 . S
C1516 C1518 1.478 . S
C1517 H1511 0.930 . S
C1517 C1513 1.400 1_655 S
C1517 C1516 1.385 . S
C1518 C1516 1.478 . S
C1518 C1520 1.381 . S
C1518 C1524 1.383 . S
C1519 C1515 1.495 . S
C1519 H1525 0.959 . S
C1519 H1526 0.961 . S
C1519 H1527 0.960 . S
C1520 C1518 1.381 . S
C1520 C1521 1.394 . S
C1520 H1528 0.930 . S
C1521 C1520 1.394 . S
C1521 C1522 1.383 . S
C1521 H1529 0.929 . S
C1522 C1521 1.383 . S
C1522 C1523 1.377 . S
C1523 H1507 0.930 . S
C1523 C1522 1.377 . S
C1523 C1524 1.379 . S
C1524 H1508 0.931 . S
C1524 C1518 1.383 . S
C1524 C1523 1.379 . S
H1525 C1519 0.959 . S
H1526 C1519 0.961 . S
H1527 C1519 0.960 . S
H1528 C1520 0.930 . S
H1529 C1521 0.929 . S
C243 C57 0.913 . S
C262 C10 0.923 . S
C279 C70 0.903 . S
C298 C23 0.902 . S
C315 C29 0.903 . S
C334 C44 0.861 . S
C351 C62 0.924 . S
C370 C5 0.895 . S
C387 C75 0.921 . S
C406 C18 0.915 . S
C423 C27 0.962 . S
C442 C49 0.974 . S
C459 C131 0.903 . S
C478 C83 0.908 . S
C495 C144 0.905 . S
C514 C94 0.921 . S
C531 C107 0.916 . S
C550 C127 0.926 . S
C567 C88 0.926 . S
C586 C133 0.935 . S
C603 C146 0.927 . S
C622 C92 0.923 . S
C639 C122 0.909 . S
C658 C105 0.926 . S
C675 C209 0.908 . S
C694 C161 0.889 . S
C711 C172 0.906 . S
C730 C222 0.918 . S
C747 C205 0.922 . S
C766 C185 0.917 . S
C783 C211 0.926 . S
C802 C166 0.920 . S
C819 C224 0.925 . S
C838 C170 0.907 . S
C855 C183 0.915 . S
C874 C200 0.923 . S
C891 C1 1.557 . S
C910 C118 1.551 . S
C927 C140 1.550 . S
C946 C14 1.551 1_556 S
C963 C153 1.548 . S
C982 C31 1.553 . S
C999 C42 1.536 . S
C1018 C159 1.557 . S
C1035 C174 1.545 . S
C1054 C55 1.556 . S
C1071 C187 1.547 . S
C1090 C68 1.557 . S
C1107 C198 1.545 . S
C1126 C3 1.552 . S
C1143 C213 1.543 . S
C1162 C16 1.537 . S
C1179 C226 1.549 . S
C1198 C36 1.545 . S
C1215 C40 1.557 . S
C1234 C79 1.559 . S
C1251 C53 1.554 . S
C1270 C101 1.539 . S
C1287 C114 1.554 . S
C1306 C66 1.562 . S
C1323 C196 1.551 . S
C1342 C81 1.550 . S
C1359 C218 1.549 . S
C1378 C96 1.536 . S
C1395 C109 1.548 . S
C1414 C231 1.551 . S
C1431 C157 1.555 . S
C1450 C120 1.537 . S
C1467 C179 1.552 . S
C1486 C135 1.552 . S
C1503 C148 1.541 . S
C1522 C192 1.548 . S
