# Generated by pormake.
# Topology uoq, (4)-cn, num edge types: 1
# Building blocks:
#     Node 0, Type 0, BuildingBlock: NAHDIM_clean_sbu_0, # of connection points: 4
#     Node 1, Type 0, BuildingBlock: NAHDIM_clean_sbu_0, # of connection points: 4
#     Node 2, Type 0, BuildingBlock: NAHDIM_clean_sbu_0, # of connection points: 4
#     Node 3, Type 0, BuildingBlock: NAHDIM_clean_sbu_0, # of connection points: 4
#     Node 4, Type 0, BuildingBlock: NAHDIM_clean_sbu_0, # of connection points: 4
#     Node 5, Type 0, BuildingBlock: NAHDIM_clean_sbu_0, # of connection points: 4
#     Node 6, Type 0, BuildingBlock: NAHDIM_clean_sbu_0, # of connection points: 4
#     Node 7, Type 0, BuildingBlock: NAHDIM_clean_sbu_0, # of connection points: 4
#     Node 8, Type 0, BuildingBlock: NAHDIM_clean_sbu_0, # of connection points: 4
#     Node 9, Type 0, BuildingBlock: NAHDIM_clean_sbu_0, # of connection points: 4
#     Node 10, Type 0, BuildingBlock: NAHDIM_clean_sbu_0, # of connection points: 4
#     Node 11, Type 0, BuildingBlock: NAHDIM_clean_sbu_0, # of connection points: 4
#     Edge 12, Type (0, 0), BuildingBlock: UVAHIK_clean_linker_0, # of connection points: 2
#     Edge 13, Type (0, 0), BuildingBlock: UVAHIK_clean_linker_0, # of connection points: 2
#     Edge 14, Type (0, 0), BuildingBlock: UVAHIK_clean_linker_0, # of connection points: 2
#     Edge 15, Type (0, 0), BuildingBlock: UVAHIK_clean_linker_0, # of connection points: 2
#     Edge 16, Type (0, 0), BuildingBlock: UVAHIK_clean_linker_0, # of connection points: 2
#     Edge 17, Type (0, 0), BuildingBlock: UVAHIK_clean_linker_0, # of connection points: 2
#     Edge 18, Type (0, 0), BuildingBlock: UVAHIK_clean_linker_0, # of connection points: 2
#     Edge 19, Type (0, 0), BuildingBlock: UVAHIK_clean_linker_0, # of connection points: 2
#     Edge 20, Type (0, 0), BuildingBlock: UVAHIK_clean_linker_0, # of connection points: 2
#     Edge 21, Type (0, 0), BuildingBlock: UVAHIK_clean_linker_0, # of connection points: 2
#     Edge 22, Type (0, 0), BuildingBlock: UVAHIK_clean_linker_0, # of connection points: 2
#     Edge 23, Type (0, 0), BuildingBlock: UVAHIK_clean_linker_0, # of connection points: 2
#     Edge 24, Type (0, 0), BuildingBlock: UVAHIK_clean_linker_0, # of connection points: 2
#     Edge 25, Type (0, 0), BuildingBlock: UVAHIK_clean_linker_0, # of connection points: 2
#     Edge 26, Type (0, 0), BuildingBlock: UVAHIK_clean_linker_0, # of connection points: 2
#     Edge 27, Type (0, 0), BuildingBlock: UVAHIK_clean_linker_0, # of connection points: 2
#     Edge 28, Type (0, 0), BuildingBlock: UVAHIK_clean_linker_0, # of connection points: 2
#     Edge 29, Type (0, 0), BuildingBlock: UVAHIK_clean_linker_0, # of connection points: 2
#     Edge 30, Type (0, 0), BuildingBlock: UVAHIK_clean_linker_0, # of connection points: 2
#     Edge 31, Type (0, 0), BuildingBlock: UVAHIK_clean_linker_0, # of connection points: 2
#     Edge 32, Type (0, 0), BuildingBlock: UVAHIK_clean_linker_0, # of connection points: 2
#     Edge 33, Type (0, 0), BuildingBlock: UVAHIK_clean_linker_0, # of connection points: 2
#     Edge 34, Type (0, 0), BuildingBlock: UVAHIK_clean_linker_0, # of connection points: 2
#     Edge 35, Type (0, 0), BuildingBlock: UVAHIK_clean_linker_0, # of connection points: 2
# Relax obj value: 0.074
# Max RMSD: 0.072
# Mean RMSD: 0.072
data_MOF--net-uoq--node1-NAHDIM_clean_sbu_0--edge1-UVAHIK_clean_linker_0
_symmetry_space_group_name_H-M    P1
_symmetry_Int_Tables_number       1
_symmetry_cell_setting            triclinic
loop_
_symmetry_equiv_pos_as_xyz
'x, y, z'
_cell_length_a     75.693315
_cell_length_b     75.618657
_cell_length_c     30.771923
_cell_angle_alpha  90.015103
_cell_angle_beta   90.043384
_cell_angle_gamma 120.02172
loop_
_atom_site_label
_atom_site_type_symbol
_atom_site_fract_x
_atom_site_fract_y
_atom_site_fract_z
_atom_type_partial_charge
C0 C 0.27575 0.45657 0.18901 0.0
O1 O 0.27709 0.46917 0.21995 0.0
O2 O 0.3242 0.47906 0.254 0.0
Zn3 Zn 0.30045 0.4504 0.24909 0.0
O4 O 0.28137 0.44544 0.29867 0.0
C5 C 0.3119 0.42343 0.28932 0.0
O6 O 0.30583 0.42887 0.32423 0.0
O7 O 0.28514 0.44669 0.19353 0.0
C8 C 0.26476 0.42868 0.30327 0.0
O9 O 0.25954 0.41419 0.27415 0.0
C10 C 0.33135 0.48568 0.29169 0.0
O11 O 0.32293 0.47369 0.32538 0.0
O12 O 0.31089 0.43061 0.25262 0.0
C13 C 0.83011 0.26188 0.52138 0.0
O14 O 0.83377 0.25175 0.55134 0.0
O15 O 0.85065 0.32117 0.58737 0.0
Zn16 Zn 0.85211 0.2955 0.58032 0.0
O17 O 0.83942 0.27744 0.63225 0.0
C18 C 0.88867 0.29355 0.59693 0.0
O19 O 0.87603 0.27677 0.61783 0.0
O20 O 0.83692 0.28088 0.5265 0.0
C21 C 0.84249 0.28497 0.67026 0.0
O22 O 0.85385 0.30482 0.67545 0.0
C23 C 0.83504 0.32112 0.60268 0.0
O24 O 0.81895 0.30367 0.61342 0.0
O25 O 0.88169 0.30349 0.57706 0.0
C26 C 0.5378 0.81655 0.86808 0.0
O27 O 0.52573 0.80759 0.90141 0.0
O28 O 0.51743 0.84562 0.92434 0.0
Zn29 Zn 0.54603 0.85025 0.91999 0.0
O30 O 0.55226 0.83872 0.97259 0.0
C31 C 0.56787 0.88955 0.95501 0.0
O32 O 0.55749 0.87877 0.98884 0.0
O33 O 0.54856 0.83592 0.86761 0.0
C34 C 0.57018 0.84237 0.98135 0.0
O35 O 0.58516 0.85359 0.95454 0.0
C36 C 0.50768 0.84031 0.96004 0.0
O37 O 0.51625 0.83735 0.99426 0.0
O38 O 0.56566 0.8805 0.91889 0.0
C39 C 0.7186 0.5624 0.16976 0.0
O40 O 0.72951 0.57647 0.19868 0.0
O41 O 0.66565 0.51863 0.24845 0.0
Zn42 Zn 0.68882 0.54728 0.23855 0.0
O43 O 0.71051 0.55382 0.28368 0.0
C44 C 0.67178 0.56858 0.28093 0.0
O45 O 0.67244 0.55774 0.31358 0.0
O46 O 0.70053 0.54868 0.17928 0.0
C47 C 0.72118 0.57131 0.30101 0.0
O48 O 0.71867 0.58652 0.28851 0.0
C49 C 0.66232 0.51023 0.28564 0.0
O50 O 0.67434 0.52037 0.31829 0.0
O51 O 0.67815 0.56679 0.24389 0.0
C52 C 0.16937 0.71808 0.52508 0.0
O53 O 0.18034 0.71833 0.55844 0.0
O54 O 0.14302 0.6676 0.58581 0.0
Zn55 Zn 0.13829 0.69153 0.58223 0.0
O56 O 0.15165 0.71001 0.63316 0.0
C57 C 0.1005 0.67253 0.62325 0.0
O58 O 0.11235 0.6712 0.65275 0.0
O59 O 0.15005 0.7072 0.52713 0.0
C60 C 0.14632 0.72252 0.64663 0.0
O61 O 0.13196 0.72403 0.62584 0.0
C62 C 0.15689 0.66807 0.60994 0.0
O63 O 0.16894 0.68482 0.63165 0.0
O64 O 0.10824 0.68093 0.58707 0.0
C65 C 0.44424 0.17564 0.86641 0.0
O66 O 0.45608 0.18624 0.89893 0.0
O67 O 0.46966 0.15266 0.92672 0.0
Zn68 Zn 0.43974 0.14363 0.92082 0.0
O69 O 0.42981 0.1524 0.97253 0.0
C70 C 0.4301 0.10263 0.93704 0.0
O71 O 0.448 0.11226 0.95619 0.0
O72 O 0.43531 0.15626 0.86778 0.0
C73 C 0.43129 0.14721 0.01102 0.0
O74 O 0.43986 0.13604 0.01765 0.0
C75 C 0.48166 0.16593 0.95389 0.0
O76 O 0.47489 0.17535 0.97882 0.0
O77 O 0.42339 0.11295 0.91774 0.0
C78 C 0.54567 0.7028 0.50278 0.0
O79 O 0.5323 0.68335 0.49719 0.0
O80 O 0.52491 0.67854 0.40122 0.0
Zn81 Zn 0.5536 0.70169 0.4109 0.0
O82 O 0.55944 0.72412 0.36866 0.0
C83 C 0.57674 0.68844 0.36202 0.0
O84 O 0.56851 0.69327 0.3299 0.0
O85 O 0.5566 0.71317 0.47092 0.0
C86 C 0.57736 0.73792 0.35838 0.0
O87 O 0.59313 0.73791 0.3762 0.0
C88 C 0.51665 0.67543 0.3639 0.0
O89 O 0.52685 0.68783 0.33184 0.0
O90 O 0.57285 0.69105 0.40091 0.0
C91 C 0.81502 0.53894 0.78913 0.0
O92 O 0.8042 0.52604 0.7582 0.0
O93 O 0.84293 0.51886 0.72388 0.0
Zn94 Zn 0.84667 0.54705 0.72937 0.0
O95 O 0.83235 0.55128 0.67915 0.0
C96 C 0.88506 0.57829 0.6937 0.0
O97 O 0.87368 0.57616 0.65968 0.0
O98 O 0.83423 0.54974 0.7846 0.0
C99 C 0.82954 0.56646 0.6769 0.0
O100 O 0.836 0.57985 0.70871 0.0
C101 C 0.85262 0.51597 0.6936 0.0
O102 O 0.86455 0.53133 0.66824 0.0
O103 O 0.87678 0.56772 0.72756 0.0
C104 C 0.2735 0.82282 0.13522 0.0
O105 O 0.27487 0.81164 0.10415 0.0
O106 O 0.31678 0.84647 0.06171 0.0
Zn107 Zn 0.29348 0.85167 0.0701 0.0
O108 O 0.27224 0.83525 0.02552 0.0
C109 C 0.3018 0.88904 0.02691 0.0
O110 O 0.29055 0.8765 -0.00408 0.0
O111 O 0.28107 0.84186 0.12893 0.0
C112 C 0.25519 0.83459 0.02247 0.0
O113 O 0.25092 0.84548 0.04922 0.0
C114 C 0.32398 0.84848 0.02358 0.0
O115 O 0.31584 0.85366 0.99187 0.0
O116 O 0.30447 0.88181 0.06202 0.0
C117 C 0.42225 0.27113 0.48409 0.0
O118 O 0.40827 0.25998 0.45521 0.0
O119 O 0.4683 0.32026 0.40039 0.0
Zn120 Zn 0.4393 0.29812 0.41142 0.0
O121 O 0.43218 0.27438 0.37149 0.0
C122 C 0.42081 0.31636 0.36232 0.0
O123 O 0.43249 0.31525 0.33217 0.0
O124 O 0.43685 0.28853 0.47305 0.0
C125 C 0.41516 0.26443 0.35199 0.0
O126 O 0.40099 0.26936 0.35805 0.0
C127 C 0.47707 0.32174 0.36426 0.0
O128 O 0.46721 0.30819 0.33367 0.0
O129 O 0.42089 0.30968 0.40019 0.0
C130 C 0.15296 0.42613 0.8092 0.0
O131 O 0.15088 0.41255 0.77997 0.0
O132 O 0.14036 0.46766 0.72986 0.0
Zn133 Zn 0.13717 0.43989 0.74014 0.0
O134 O 0.15359 0.43502 0.69529 0.0
C135 C 0.09959 0.42001 0.69713 0.0
O136 O 0.11069 0.43486 0.66989 0.0
O137 O 0.14749 0.43905 0.79979 0.0
C138 C 0.1475 0.41791 0.67671 0.0
O139 O 0.12985 0.40217 0.6877 0.0
C140 C 0.1555 0.48141 0.70898 0.0
O141 O 0.16968 0.47763 0.695 0.0
O142 O 0.10765 0.41876 0.73238 0.0
C143 C 0.70656 0.16857 0.14349 0.0
O144 O 0.70522 0.18097 0.11551 0.0
O145 O 0.66541 0.14892 0.06525 0.0
Zn146 Zn 0.68803 0.14246 0.07271 0.0
O147 O 0.71062 0.15984 0.03137 0.0
C148 C 0.67518 0.10599 0.02198 0.0
O149 O 0.68033 0.11896 0.98961 0.0
O150 O 0.69949 0.14998 0.13295 0.0
C151 C 0.72383 0.15536 0.01844 0.0
O152 O 0.72293 0.13847 0.03208 0.0
C153 C 0.66089 0.15208 0.02734 0.0
O154 O 0.6711 0.15108 0.99387 0.0
O155 O 0.67726 0.11256 0.06078 0.0
C156 C 0.3209 0.40139 0.33368 0.0
C157 C 0.32062 0.40985 0.29321 0.0
C158 C 0.33 0.38937 0.33813 0.0
C159 C 0.36907 0.38083 0.28868 0.0
H160 H 0.34543 0.33253 0.36156 0.0
C161 C 0.40711 0.33172 0.30969 0.0
C162 C 0.40778 0.32522 0.35214 0.0
C163 C 0.39519 0.34054 0.30011 0.0
C164 C 0.3523 0.34607 0.34138 0.0
H165 H 0.32926 0.41193 0.22538 0.0
H166 H 0.34517 0.39086 0.2332 0.0
H167 H 0.3266 0.35043 0.34856 0.0
H168 H 0.39626 0.32266 0.41774 0.0
H169 H 0.37569 0.33834 0.40116 0.0
H170 H 0.39493 0.37676 0.28214 0.0
C171 C 0.33848 0.39371 0.26154 0.0
C172 C 0.3415 0.35629 0.33388 0.0
C173 C 0.32929 0.40569 0.25704 0.0
C174 C 0.39606 0.32749 0.3847 0.0
C175 C 0.38416 0.33636 0.37513 0.0
C176 C 0.37989 0.37065 0.29625 0.0
C177 C 0.33908 0.38558 0.30223 0.0
C178 C 0.34987 0.3739 0.30781 0.0
C179 C 0.38369 0.34309 0.33277 0.0
C180 C 0.37171 0.35327 0.32304 0.0
H181 H 0.31433 0.40428 0.36219 0.0
H182 H 0.33043 0.38352 0.37 0.0
H183 H 0.37605 0.39453 0.26896 0.0
H184 H 0.41586 0.33007 0.28379 0.0
H185 H 0.39493 0.34531 0.26704 0.0
C186 C 0.92446 0.31959 0.57706 0.0
C187 C 0.91096 0.30231 0.60133 0.0
C188 C 0.94542 0.32939 0.58492 0.0
C189 C 0.98108 0.33841 0.67296 0.0
H190 H 0.02192 0.36146 0.58213 0.0
C191 C 0.06717 0.38719 0.71167 0.0
C192 C 0.07834 0.40468 0.68592 0.0
C193 C 0.04718 0.37262 0.70036 0.0
C194 C 0.01069 0.35525 0.60788 0.0
H195 H 0.90894 0.28122 0.65154 0.0
H196 H 0.94561 0.29847 0.66536 0.0
H197 H 0.98616 0.33912 0.56278 0.0
H198 H 0.0773 0.42065 0.62828 0.0
H199 H 0.04241 0.39557 0.6092 0.0
H200 H 0.00539 0.35505 0.71802 0.0
C201 C 0.9399 0.30445 0.64046 0.0
C202 C 0.99024 0.3424 0.59677 0.0
C203 C 0.91893 0.29453 0.63234 0.0
C204 C 0.06914 0.40731 0.64872 0.0
C205 C 0.04916 0.39282 0.63756 0.0
C206 C 0.0015 0.35136 0.68408 0.0
C207 C 0.9533 0.32221 0.6174 0.0
C208 C 0.9752 0.3341 0.62917 0.0
C209 C 0.03794 0.37528 0.66318 0.0
C210 C 0.0165 0.3602 0.65162 0.0
H211 H 0.91879 0.32592 0.55284 0.0
H212 H 0.95537 0.34314 0.56686 0.0
H213 H 0.96977 0.33245 0.69861 0.0
H214 H 0.07389 0.38467 0.74039 0.0
H215 H 0.03903 0.35918 0.72055 0.0
C216 C 0.59077 0.92412 0.9226 0.0
C217 C 0.5816 0.91183 0.95927 0.0
C218 C 0.60312 0.94529 0.92702 0.0
C219 C 0.63296 0.98571 0.00743 0.0
H220 H 0.62289 0.02037 0.93065 0.0
C221 C 0.65987 0.06981 0.04744 0.0
C222 C 0.66679 0.084 0.01322 0.0
C223 C 0.65136 0.04897 0.03894 0.0
C224 C 0.62615 0.01095 0.95193 0.0
H225 H 0.57854 0.91203 0.02938 0.0
H226 H 0.59997 0.94882 0.03697 0.0
H227 H 0.60495 0.98356 0.91866 0.0
H228 H 0.67062 0.08748 0.94328 0.0
H229 H 0.656 0.05114 0.92853 0.0
H230 H 0.65398 0.01304 0.04103 0.0
C231 C 0.59775 0.94214 0.00487 0.0
C232 C 0.61586 0.98986 0.94504 0.0
C233 C 0.58534 0.92106 0.00045 0.0
C234 C 0.66532 0.07693 0.97038 0.0
C235 C 0.65685 0.0561 0.96188 0.0
C236 C 0.6433 0.00679 0.01425 0.0
C237 C 0.60666 0.95451 0.96821 0.0
C238 C 0.61892 0.977 0.97314 0.0
C239 C 0.64964 0.04186 -0.00396 0.0
C240 C 0.63977 0.01963 0.98699 0.0
H241 H 0.5882 0.91744 0.89044 0.0
H242 H 0.60992 0.95444 0.89823 0.0
H243 H 0.63586 0.97619 0.02921 0.0
H244 H 0.66075 0.07475 0.08081 0.0
H245 H 0.64569 0.03839 0.06596 0.0
C246 C 0.6617 0.59335 0.25245 0.0
C247 C 0.66411 0.58291 0.28767 0.0
C248 C 0.65414 0.60663 0.25907 0.0
C249 C 0.64675 0.63697 0.34346 0.0
H250 H 0.60362 0.63221 0.2677 0.0
C251 C 0.59584 0.67112 0.38666 0.0
C252 C 0.58947 0.67913 0.35284 0.0
C253 C 0.60675 0.66116 0.37753 0.0
C254 C 0.61589 0.634 0.28873 0.0
H255 H 0.66073 0.57841 0.35749 0.0
H256 H 0.6475 0.60151 0.36893 0.0
H257 H 0.61948 0.6116 0.25347 0.0
H258 H 0.5902 0.68365 0.28309 0.0
H259 H 0.60953 0.6666 0.26728 0.0
H260 H 0.64309 0.65927 0.3789 0.0
C261 C 0.6516 0.59955 0.33628 0.0
C262 C 0.62495 0.62216 0.28059 0.0
C263 C 0.65904 0.5862 0.32965 0.0
C264 C 0.59474 0.67749 0.30986 0.0
C265 C 0.60572 0.66762 0.30076 0.0
C266 C 0.63775 0.64888 0.35151 0.0
C267 C 0.64897 0.60982 0.30106 0.0
C268 C 0.6403 0.62335 0.30815 0.0
C269 C 0.61161 0.65909 0.33442 0.0
C270 C 0.62206 0.64737 0.32452 0.0
H271 H 0.66553 0.59117 0.21972 0.0
H272 H 0.65242 0.61448 0.23137 0.0
H273 H 0.65876 0.6384 0.36489 0.0
H274 H 0.59198 0.67211 0.42012 0.0
H275 H 0.61083 0.65455 0.4042 0.0
C276 C 0.91662 0.60209 0.65258 0.0
C277 C 0.90748 0.59126 0.69091 0.0
C278 C 0.93781 0.61287 0.64827 0.0
C279 C 0.98322 0.61301 0.69 0.0
H280 H 0.01247 0.66501 0.63027 0.0
C281 C 0.07062 0.65602 0.67337 0.0
C282 C 0.07868 0.66462 0.63259 0.0
C283 C 0.05 0.64839 0.68245 0.0
C284 C 0.00447 0.65041 0.6467 0.0
H285 H 0.91344 0.58397 0.75552 0.0
H286 H 0.95049 0.60296 0.7481 0.0
H287 H 0.97594 0.64988 0.64383 0.0
H288 H 0.07147 0.67214 0.56944 0.0
H289 H 0.03534 0.65853 0.58514 0.0
H290 H 0.01161 0.61334 0.69237 0.0
C291 C 0.94122 0.60284 0.72114 0.0
C292 C 0.98358 0.64177 0.65453 0.0
C293 C 0.92001 0.59206 0.72547 0.0
C294 C 0.06571 0.6656 0.60117 0.0
C295 C 0.04505 0.65794 0.61026 0.0
C296 C 0.00408 0.62163 0.68216 0.0
C297 C 0.95033 0.61306 0.68221 0.0
C298 C 0.97271 0.62291 0.67603 0.0
C299 C 0.03696 0.64915 0.65094 0.0
C300 C 0.01491 0.64036 0.66021 0.0
H301 H 0.9074 0.60182 0.62536 0.0
H302 H 0.94436 0.62043 0.61773 0.0
H303 H 0.97522 0.59828 0.70592 0.0
H304 H 0.08022 0.65516 0.69842 0.0
H305 H 0.0443 0.64198 0.7143 0.0
C306 C 0.32969 0.92423 0.04564 0.0
C307 C 0.31314 0.91127 0.01894 0.0
C308 C 0.34177 0.9449 0.03547 0.0
C309 C 0.34298 0.98734 0.97639 0.0
H310 H 0.40141 0.00863 0.97247 0.0
C311 C 0.39881 0.06944 0.9184 0.0
C312 C 0.41716 0.08028 0.9417 0.0
C313 C 0.38603 0.0485 0.92517 0.0
C314 C 0.38517 0.00303 0.97392 0.0
H315 H 0.29573 0.90994 0.96176 0.0
H316 H 0.3167 0.94624 0.94449 0.0
H317 H 0.37868 0.97303 0.99191 0.0
H318 H 0.43659 0.07765 0.99007 0.0
H319 H 0.41416 0.04143 0.00272 0.0
H320 H 0.34941 0.01743 0.95964 0.0
C321 C 0.32036 0.94031 0.97303 0.0
C322 C 0.37217 0.98263 0.98497 0.0
C323 C 0.30842 0.91955 0.98286 0.0
C324 C 0.42263 0.06972 0.97135 0.0
C325 C 0.40978 0.04888 0.97844 0.0
C326 C 0.35601 0.00785 0.96586 0.0
C327 C 0.33737 0.95305 -0.00124 0.0
C328 C 0.35099 0.97464 0.98656 0.0
C329 C 0.39126 0.03801 0.95567 0.0
C330 C 0.37728 0.01598 0.96476 0.0
H331 H 0.33373 0.91831 0.07365 0.0
H332 H 0.35468 0.9545 0.05609 0.0
H333 H 0.32669 0.98152 0.97761 0.0
H334 H 0.39424 0.07716 0.89516 0.0
H335 H 0.37205 0.04055 0.90653 0.0
C336 C 0.1716 0.415 0.8594 0.0
C337 C 0.16319 0.42754 0.85108 0.0
C338 C 0.18267 0.41745 0.89746 0.0
C339 C 0.21209 0.45593 0.98126 0.0
H340 H 0.20882 0.40977 0.04337 0.0
C341 C 0.25289 0.46468 0.14501 0.0
C342 C 0.26283 0.45334 0.15041 0.0
C343 C 0.24027 0.4613 0.10915 0.0
C344 C 0.21002 0.42281 0.02611 0.0
H345 H 0.15915 0.45199 0.87696 0.0
H346 H 0.17819 0.45603 0.94364 0.0
H347 H 0.18686 0.40384 0.98047 0.0
H348 H 0.26737 0.42959 0.12229 0.0
H349 H 0.24541 0.42378 0.05954 0.0
H350 H 0.23525 0.4749 0.02685 0.0
C351 C 0.17658 0.44458 0.92034 0.0
C352 C 0.19745 0.41942 0.99011 0.0
C353 C 0.16555 0.44216 0.88224 0.0
C354 C 0.25993 0.43858 0.11909 0.0
C355 C 0.24724 0.43515 0.0833 0.0
C356 C 0.22461 0.45932 0.01729 0.0
C357 C 0.18553 0.43246 0.92809 0.0
C358 C 0.19839 0.43595 0.96718 0.0
C359 C 0.23725 0.44645 0.07799 0.0
C360 C 0.22376 0.4428 0.04001 0.0
H361 H 0.17008 0.40361 0.83603 0.0
H362 H 0.18953 0.408 0.90222 0.0
H363 H 0.21347 0.46902 0.96386 0.0
H364 H 0.25476 0.47612 0.16861 0.0
H365 H 0.23261 0.4701 0.10617 0.0
C366 C 0.80911 0.23004 0.47775 0.0
C367 C 0.81723 0.25117 0.4833 0.0
C368 C 0.79622 0.21986 0.44267 0.0
C369 C 0.76207 0.2247 0.36421 0.0
H370 H 0.76862 0.1851 0.29654 0.0
C371 C 0.72509 0.19713 0.19634 0.0
C372 C 0.71719 0.17648 0.18542 0.0
C373 C 0.73602 0.20499 0.23482 0.0
C374 C 0.76639 0.19589 0.31552 0.0
H375 H 0.81848 0.27824 0.45597 0.0
H376 H 0.79619 0.26053 0.3948 0.0
H377 H 0.79055 0.20127 0.35945 0.0
H378 H 0.71424 0.14778 0.20674 0.0
H379 H 0.73325 0.16153 0.27427 0.0
H380 H 0.73806 0.2195 0.32018 0.0
C381 C 0.79952 0.25177 0.41785 0.0
C382 C 0.77897 0.20517 0.3515 0.0
C383 C 0.81243 0.26194 0.45277 0.0
C384 C 0.72017 0.16377 0.21419 0.0
C385 C 0.73116 0.17166 0.25273 0.0
C386 C 0.74949 0.21542 0.32834 0.0
C387 C 0.79115 0.23061 0.41259 0.0
C388 C 0.77712 0.21988 0.37584 0.0
C389 C 0.7393 0.1924 0.26331 0.0
C390 C 0.75169 0.20112 0.30323 0.0
H391 H 0.8125 0.2213 0.50073 0.0
H392 H 0.78989 0.20352 0.43959 0.0
H393 H 0.76 0.23568 0.38287 0.0
H394 H 0.7231 0.20735 0.17486 0.0
H395 H 0.74233 0.22109 0.24171 0.0
C396 C 0.55287 0.81351 0.79791 0.0
C397 C 0.53912 0.80417 0.83239 0.0
C398 C 0.55426 0.8017 0.76461 0.0
C399 C 0.52535 0.75158 0.71141 0.0
H400 H 0.57826 0.76452 0.66593 0.0
C401 C 0.53354 0.70227 0.57883 0.0
C402 C 0.54676 0.71308 0.54441 0.0
C403 C 0.53346 0.71246 0.6167 0.0
C404 C 0.56336 0.7608 0.6781 0.0
H405 H 0.51607 0.7751 0.859 0.0
H406 H 0.51856 0.75454 0.80095 0.0
H407 H 0.57623 0.78437 0.72628 0.0
H408 H 0.57074 0.74293 0.52335 0.0
H409 H 0.57043 0.76065 0.58899 0.0
H410 H 0.51244 0.72825 0.66284 0.0
C411 C 0.52814 0.771 0.79949 0.0
C412 C 0.56221 0.77218 0.71261 0.0
C413 C 0.52678 0.78279 0.83283 0.0
C414 C 0.56035 0.73414 0.54923 0.0
C415 C 0.56026 0.74429 0.58701 0.0
C416 C 0.5265 0.74023 0.67684 0.0
C417 C 0.5419 0.78032 0.76504 0.0
C418 C 0.54318 0.7678 0.72939 0.0
C419 C 0.54662 0.73364 0.62093 0.0
C420 C 0.54551 0.74482 0.65954 0.0
H421 H 0.56258 0.82996 0.79661 0.0
H422 H 0.56483 0.80935 0.73819 0.0
H423 H 0.51045 0.748 0.72327 0.0
H424 H 0.52295 0.68602 0.57623 0.0
H425 H 0.52297 0.70377 0.64253 0.0
C426 C 0.71605 0.54656 0.0969 0.0
C427 C 0.72777 0.5615 0.128 0.0
C428 C 0.72504 0.54475 0.05882 0.0
C429 C 0.77073 0.57202 0.98893 0.0
H430 H 0.75595 0.51729 0.95182 0.0
C431 C 0.81624 0.55636 0.85922 0.0
C432 C 0.80489 0.54141 0.82783 0.0
C433 C 0.80657 0.55904 0.89517 0.0
C434 C 0.76007 0.53266 0.96149 0.0
H435 H 0.75802 0.58659 0.14304 0.0
H436 H 0.77376 0.58325 0.07688 0.0
H437 H 0.73937 0.52193 0.01511 0.0
H438 H 0.77451 0.51747 0.80968 0.0
H439 H 0.75766 0.52218 0.87245 0.0
H440 H 0.79162 0.58272 0.9355 0.0
C441 C 0.75756 0.57308 0.08166 0.0
C442 C 0.75055 0.53533 -0.0023 0.0
C443 C 0.74855 0.57494 0.11969 0.0
C444 C 0.7837 0.5291 0.83332 0.0
C445 C 0.77405 0.53173 0.86937 0.0
C446 C 0.7803 0.56935 0.95278 0.0
C447 C 0.74596 0.55779 0.05105 0.0
C448 C 0.75578 0.55504 0.01188 0.0
C449 C 0.78537 0.54678 0.90059 0.0
C450 C 0.7751 0.54964 0.93874 0.0
H451 H 0.69995 0.53605 0.10217 0.0
H452 H 0.7156 0.53304 0.03554 0.0
H453 H 0.7749 0.5874 -0.00134 0.0
H454 H 0.8326 0.56609 0.85595 0.0
H455 H 0.81573 0.57059 0.91898 0.0
C456 C 0.16783 0.73023 0.45014 0.0
C457 C 0.17943 0.73014 0.48573 0.0
C458 C 0.17745 0.74137 0.41273 0.0
C459 C 0.22676 0.78321 0.37188 0.0
H460 H 0.20597 0.75746 0.26004 0.0
C461 C 0.2602 0.8247 0.20872 0.0
C462 C 0.26273 0.81315 0.17606 0.0
C463 C 0.24956 0.8153 0.24679 0.0
C464 C 0.21202 0.76482 0.29103 0.0
H465 H 0.21021 0.74182 0.51014 0.0
H466 H 0.22694 0.76097 0.44474 0.0
H467 H 0.18837 0.73979 0.32622 0.0
H468 H 0.25628 0.78275 0.15796 0.0
H469 H 0.23801 0.76647 0.22441 0.0
H470 H 0.25077 0.80797 0.33666 0.0
C471 C 0.21043 0.75269 0.44593 0.0
C472 C 0.20179 0.75481 0.32893 0.0
C473 C 0.20082 0.74158 0.48332 0.0
C474 C 0.25454 0.79208 0.18238 0.0
C475 C 0.24393 0.7827 0.22037 0.0
C476 C 0.23699 0.79323 0.33394 0.0
C477 C 0.19886 0.75263 0.41013 0.0
C478 C 0.20915 0.7638 0.36981 0.0
C479 C 0.24123 0.79417 0.25292 0.0
C480 C 0.22986 0.78404 0.29313 0.0
H481 H 0.15131 0.72165 0.45108 0.0
H482 H 0.16811 0.74122 0.3859 0.0
H483 H 0.23267 0.79064 0.40287 0.0
H484 H 0.26628 0.84096 0.20476 0.0
H485 H 0.24759 0.82451 0.27113 0.0
C486 C 0.42681 0.17492 0.79667 0.0
C487 C 0.44113 0.18614 0.82921 0.0
C488 C 0.4238 0.18492 0.76173 0.0
C489 C 0.44941 0.23244 0.69925 0.0
H490 H 0.39487 0.2162 0.65853 0.0
C491 C 0.43653 0.27492 0.55909 0.0
C492 C 0.4222 0.2627 0.52743 0.0
C493 C 0.43773 0.26646 0.59854 0.0
C494 C 0.4102 0.2208 0.66929 0.0
H495 H 0.4635 0.21663 0.85067 0.0
H496 H 0.4583 0.23403 0.78953 0.0
H497 H 0.39932 0.19944 0.72198 0.0
H498 H 0.39744 0.23219 0.5129 0.0
H499 H 0.39981 0.21736 0.58128 0.0
H500 H 0.46037 0.25342 0.64615 0.0
C501 C 0.44947 0.21752 0.79101 0.0
C502 C 0.41274 0.21121 0.70562 0.0
C503 C 0.45238 0.20754 0.82609 0.0
C504 C 0.40863 0.24202 0.53664 0.0
C505 C 0.40993 0.23354 0.57599 0.0
C506 C 0.44689 0.24193 0.66281 0.0
C507 C 0.43516 0.20631 0.75848 0.0
C508 C 0.43237 0.21687 0.7208 0.0
C509 C 0.42472 0.24558 0.6071 0.0
C510 C 0.42726 0.23616 0.64723 0.0
H511 H 0.41789 0.15841 0.79817 0.0
H512 H 0.41283 0.17588 0.73686 0.0
H513 H 0.46474 0.23692 0.70988 0.0
H514 H 0.44708 0.29095 0.55313 0.0
H515 H 0.44903 0.27626 0.62216 0.0
C516 C 0.15213 0.39815 0.61678 0.0
C517 C 0.1598 0.41612 0.64158 0.0
C518 C 0.16336 0.397 0.58195 0.0
C519 C 0.21531 0.42147 0.53565 0.0
H520 H 0.18738 0.4013 0.42548 0.0
C521 C 0.2584 0.44069 0.374 0.0
C522 C 0.25212 0.42531 0.34233 0.0
C523 C 0.24689 0.4375 0.41154 0.0
C524 C 0.19534 0.40667 0.45616 0.0
H525 H 0.18548 0.44679 0.65 0.0
H526 H 0.20497 0.44479 0.58934 0.0
H527 H 0.16781 0.39907 0.49033 0.0
H528 H 0.22876 0.39451 0.32512 0.0
H529 H 0.20862 0.38892 0.39103 0.0
H530 H 0.24287 0.4294 0.50144 0.0
C531 C 0.19037 0.43153 0.59694 0.0
C532 C 0.18414 0.40538 0.49328 0.0
C533 C 0.17912 0.43272 0.63154 0.0
C534 C 0.23398 0.40668 0.34889 0.0
C535 C 0.22242 0.40349 0.38654 0.0
C536 C 0.22649 0.42273 0.49861 0.0
C537 C 0.18253 0.41374 0.57151 0.0
C538 C 0.19407 0.41315 0.53321 0.0
C539 C 0.22883 0.41884 0.41834 0.0
C540 C 0.21668 0.41573 0.45829 0.0
H541 H 0.1373 0.38508 0.62375 0.0
H542 H 0.15704 0.38303 0.56312 0.0
H543 H 0.22332 0.42723 0.56615 0.0
H544 H 0.27227 0.45525 0.36992 0.0
H545 H 0.25204 0.44977 0.43504 0.0
C546 C 0.8266 0.25061 0.70526 0.0
C547 C 0.8331 0.27152 0.70807 0.0
C548 C 0.81731 0.23777 0.74075 0.0
C549 C 0.80791 0.23835 0.85976 0.0
H550 H 0.76276 0.18397 0.8362 0.0
C551 C 0.7444 0.18911 0.98213 0.0
C552 C 0.73935 0.16862 0.98657 0.0
C553 C 0.75823 0.20147 0.95041 0.0
C554 C 0.77551 0.19903 0.84319 0.0
H555 H 0.83505 0.29545 0.75003 0.0
H556 H 0.81803 0.27296 0.81131 0.0
H557 H 0.78208 0.20603 0.77592 0.0
H558 H 0.74496 0.14502 0.96183 0.0
H559 H 0.76881 0.16661 0.90529 0.0
H560 H 0.80041 0.23151 0.92715 0.0
C561 C 0.82066 0.26649 0.78233 0.0
C562 C 0.78667 0.21168 0.80871 0.0
C563 C 0.83029 0.2794 0.74708 0.0
C564 C 0.74863 0.16079 0.95916 0.0
C565 C 0.76219 0.17306 0.92681 0.0
C566 C 0.79651 0.2258 0.89419 0.0
C567 C 0.81396 0.24548 0.77959 0.0
C568 C 0.8029 0.2316 0.81649 0.0
C569 C 0.76698 0.19346 0.92206 0.0
C570 C 0.78012 0.20612 0.88612 0.0
H571 H 0.8288 0.24418 0.67568 0.0
H572 H 0.81277 0.22179 0.73766 0.0
H573 H 0.82056 0.25339 0.86712 0.0
H574 H 0.73753 0.19556 0.00297 0.0
H575 H 0.76158 0.21711 0.94709 0.0
C576 C 0.59368 0.83825 0.03259 0.0
C577 C 0.57407 0.83473 0.02233 0.0
C578 C 0.5972 0.83116 0.0718 0.0
C579 C 0.57527 0.81378 0.18126 0.0
H580 H 0.60446 0.7838 0.18007 0.0
C581 C 0.56337 0.7544 0.30994 0.0
C582 C 0.5802 0.75304 0.32474 0.0
C583 C 0.56558 0.76773 0.27641 0.0
C584 C 0.59662 0.79248 0.18112 0.0
H585 H 0.5428 0.82099 0.0451 0.0
H586 H 0.54891 0.80854 0.11293 0.0
H587 H 0.6029 0.80091 0.11408 0.0
H588 H 0.61269 0.76491 0.31662 0.0
H589 H 0.61652 0.78823 0.2575 0.0
H590 H 0.56842 0.80481 0.24782 0.0
C591 C 0.56163 0.81701 0.0911 0.0
C592 C 0.59571 0.80225 0.14334 0.0
C593 C 0.5581 0.82401 0.05199 0.0
C594 C 0.59943 0.76563 0.30589 0.0
C595 C 0.60162 0.77889 0.27198 0.0
C596 C 0.57615 0.80401 0.21892 0.0
C597 C 0.58121 0.82054 0.1015 0.0
C598 C 0.58453 0.81251 0.14274 0.0
C599 C 0.58466 0.77994 0.25674 0.0
C600 C 0.58635 0.79278 0.21889 0.0
H601 H 0.60631 0.8465 0.01041 0.0
H602 H 0.61246 0.83415 0.07906 0.0
H603 H 0.56691 0.82196 0.182 0.0
H604 H 0.54835 0.74493 0.32381 0.0
H605 H 0.55217 0.76798 0.26496 0.0
C606 C 0.74432 0.59194 0.36197 0.0
C607 C 0.73548 0.5741 0.33651 0.0
C608 C 0.75683 0.5939 0.39725 0.0
C609 C 0.78777 0.57331 0.44352 0.0
H610 H 0.77567 0.58908 0.55463 0.0
C611 C 0.81305 0.55484 0.60423 0.0
C612 C 0.82003 0.56942 0.63772 0.0
C613 C 0.8045 0.5577 0.56664 0.0
C614 C 0.77949 0.58499 0.52373 0.0
H615 H 0.73325 0.54459 0.32732 0.0
H616 H 0.75507 0.54807 0.38863 0.0
H617 H 0.75809 0.59047 0.48927 0.0
H618 H 0.82346 0.59845 0.6581 0.0
H619 H 0.80859 0.60351 0.59205 0.0
H620 H 0.80893 0.56756 0.47786 0.0
C621 C 0.75242 0.56056 0.38128 0.0
C622 C 0.76942 0.58579 0.48633 0.0
C623 C 0.73981 0.55852 0.34632 0.0
C624 C 0.81817 0.58691 0.63291 0.0
C625 C 0.80961 0.58978 0.59516 0.0
C626 C 0.79787 0.57259 0.4808 0.0
C627 C 0.76088 0.57816 0.40737 0.0
C628 C 0.77316 0.57953 0.44604 0.0
C629 C 0.80277 0.57523 0.56154 0.0
C630 C 0.79351 0.57797 0.52148 0.0
H631 H 0.74125 0.60421 0.35522 0.0
H632 H 0.76328 0.60769 0.41669 0.0
H633 H 0.79119 0.56874 0.41274 0.0
H634 H 0.81416 0.54115 0.60696 0.0
H635 H 0.799 0.54599 0.54175 0.0
C636 C 0.1487 0.74708 0.70434 0.0
C637 C 0.15543 0.73429 0.68682 0.0
C638 C 0.15686 0.75747 0.74341 0.0
C639 C 0.18426 0.75582 0.84126 0.0
H640 H 0.20136 0.81326 0.85274 0.0
C641 C 0.2439 0.80788 0.96504 0.0
C642 C 0.24072 0.82209 0.98805 0.0
C643 C 0.23076 0.79639 0.93157 0.0
C644 C 0.19633 0.79714 0.85025 0.0
H645 H 0.17624 0.7227 0.69608 0.0
H646 H 0.19056 0.74095 0.76358 0.0
H647 H 0.18356 0.79478 0.7869 0.0
H648 H 0.22119 0.83533 0.99423 0.0
H649 H 0.1982 0.81524 0.93496 0.0
H650 H 0.19756 0.75829 0.9039 0.0
C651 C 0.17873 0.74267 0.7477 0.0
C652 C 0.18616 0.78657 0.81261 0.0
C653 C 0.17063 0.73233 0.70878 0.0
C654 C 0.22398 0.82446 0.97709 0.0
C655 C 0.2109 0.81306 0.94314 0.0
C656 C 0.19444 0.76637 0.8787 0.0
C657 C 0.17183 0.7552 0.76567 0.0
C658 C 0.18051 0.76593 0.8073 0.0
C659 C 0.21421 0.79893 0.9201 0.0
C660 C 0.20103 0.78724 0.88309 0.0
H661 H 0.13698 0.74888 0.68819 0.0
H662 H 0.1512 0.76698 0.75658 0.0
H663 H 0.17964 0.73979 0.83854 0.0
H664 H 0.25663 0.80567 0.97272 0.0
H665 H 0.23384 0.78582 0.91396 0.0
C666 C 0.41149 0.16263 0.04156 0.0
C667 C 0.42475 0.15493 0.04805 0.0
C668 C 0.40625 0.17106 0.07613 0.0
C669 C 0.40909 0.17665 0.19698 0.0
H670 H 0.40781 0.22618 0.17108 0.0
C671 C 0.42467 0.2397 0.32171 0.0
C672 C 0.41187 0.24818 0.32098 0.0
C673 C 0.42254 0.22536 0.29053 0.0
C674 C 0.4078 0.21219 0.1787 0.0
H675 H 0.44263 0.14963 0.09587 0.0
H676 H 0.43421 0.16505 0.1558 0.0
H677 H 0.41111 0.20666 0.11206 0.0
H678 H 0.38645 0.24795 0.28782 0.0
H679 H 0.38305 0.22315 0.23258 0.0
H680 H 0.40693 0.18304 0.26404 0.0
C681 C 0.42733 0.1641 0.12439 0.0
C682 C 0.40963 0.20092 0.14488 0.0
C683 C 0.4323 0.15537 0.08994 0.0
C684 C 0.39653 0.24166 0.28917 0.0
C685 C 0.39461 0.22754 0.25754 0.0
C686 C 0.40757 0.18811 0.23086 0.0
C687 C 0.41444 0.17229 0.11781 0.0
C688 C 0.4106 0.18316 0.15361 0.0
C689 C 0.40775 0.21946 0.25771 0.0
C690 C 0.40718 0.20612 0.222 0.0
H691 H 0.40524 0.16226 0.00966 0.0
H692 H 0.39593 0.1768 0.07001 0.0
H693 H 0.40937 0.16284 0.20488 0.0
H694 H 0.43656 0.24436 0.34599 0.0
H695 H 0.43297 0.21948 0.2911 0.0
C696 C 0.35832 0.51943 0.26216 0.0
C697 C 0.34916 0.50636 0.29777 0.0
C698 C 0.37545 0.53877 0.26814 0.0
C699 C 0.40424 0.57778 0.35251 0.0
H700 H 0.44933 0.59577 0.27181 0.0
C701 C 0.48528 0.64405 0.39004 0.0
C702 C 0.49626 0.65748 0.356 0.0
C703 C 0.46646 0.62658 0.38205 0.0
C704 C 0.43676 0.5911 0.2943 0.0
H705 H 0.35069 0.5034 0.36764 0.0
H706 H 0.38064 0.53692 0.37792 0.0
H707 H 0.41801 0.56349 0.25914 0.0
H708 H 0.49584 0.66331 0.28705 0.0
H709 H 0.46295 0.63286 0.27324 0.0
H710 H 0.42317 0.60525 0.38805 0.0
C711 C 0.37445 0.5324 0.34546 0.0
C712 C 0.4188 0.57261 0.28702 0.0
C713 C 0.35734 0.51311 0.3395 0.0
C714 C 0.48782 0.65324 0.31398 0.0
C715 C 0.46903 0.63574 0.30599 0.0
C716 C 0.42222 0.59625 0.35984 0.0
C717 C 0.38377 0.54543 0.30985 0.0
C718 C 0.4024 0.56563 0.31627 0.0
C719 C 0.45822 0.62213 0.33986 0.0
C720 C 0.43874 0.60302 0.33102 0.0
H721 H 0.35233 0.51471 0.22961 0.0
H722 H 0.38214 0.54854 0.24011 0.0
H723 H 0.39176 0.573 0.37527 0.0
H724 H 0.49136 0.64687 0.42278 0.0
H725 H 0.4586 0.61628 0.40875 0.0
C726 C 0.83516 0.47826 0.70777 0.0
C727 C 0.8504 0.49563 0.68633 0.0
C728 C 0.83292 0.45902 0.69987 0.0
C729 C 0.86104 0.43421 0.66113 0.0
H730 H 0.80758 0.38787 0.63637 0.0
C731 C 0.8518 0.35905 0.59501 0.0
C732 C 0.8356 0.34066 0.61096 0.0
C733 C 0.85298 0.37765 0.60456 0.0
C734 C 0.82258 0.40058 0.6438 0.0
H735 H 0.87533 0.50647 0.64015 0.0
H736 H 0.8715 0.47299 0.62672 0.0
H737 H 0.81094 0.42092 0.65402 0.0
H738 H 0.80778 0.32734 0.64903 0.0
H739 H 0.81004 0.35988 0.66646 0.0
H740 H 0.87274 0.414 0.65148 0.0
C741 C 0.86133 0.47424 0.64965 0.0
C742 C 0.82449 0.4195 0.65385 0.0
C743 C 0.86344 0.4934 0.65719 0.0
C744 C 0.82042 0.34124 0.63611 0.0
C745 C 0.82167 0.3599 0.64595 0.0
C746 C 0.85913 0.4153 0.65143 0.0
C747 C 0.84602 0.45685 0.6708 0.0
C748 C 0.84377 0.43654 0.66218 0.0
C749 C 0.83808 0.37835 0.63062 0.0
C750 C 0.83991 0.3983 0.64218 0.0
H751 H 0.82486 0.47949 0.73035 0.0
H752 H 0.82108 0.44587 0.71683 0.0
H753 H 0.87606 0.44702 0.66809 0.0
H754 H 0.86367 0.35911 0.57523 0.0
H755 H 0.86559 0.39151 0.5914 0.0
C756 C 0.47711 0.83361 0.00382 0.0
C757 C 0.48737 0.83853 0.96374 0.0
C758 C 0.45843 0.83294 0.00807 0.0
C759 C 0.42795 0.8531 0.95812 0.0
H760 H 0.3845 0.81228 0.02963 0.0
C761 C 0.34982 0.84841 0.97303 0.0
C762 C 0.34157 0.84555 0.01506 0.0
C763 C 0.36679 0.84623 0.96507 0.0
C764 C 0.39656 0.82387 0.00983 0.0
H765 H 0.48579 0.84609 0.89637 0.0
H766 H 0.45305 0.84473 0.90373 0.0
H767 H 0.4155 0.81055 0.01821 0.0
H768 H 0.3445 0.83786 0.0816 0.0
H769 H 0.37424 0.83423 0.06774 0.0
H770 H 0.40913 0.86655 0.95006 0.0
C771 C 0.45962 0.84168 0.93202 0.0
C772 C 0.41431 0.82287 0.00327 0.0
C773 C 0.47832 0.84235 0.92776 0.0
C774 C 0.35048 0.84017 0.04884 0.0
C775 C 0.36745 0.83796 0.04086 0.0
C776 C 0.41021 0.85409 0.96464 0.0
C777 C 0.44956 0.83717 0.97234 0.0
C778 C 0.43027 0.83757 0.9776 0.0
C779 C 0.37587 0.84111 -0.00106 0.0
C780 C 0.39438 0.83957 0.99081 0.0
H781 H 0.48366 0.83059 0.03221 0.0
H782 H 0.4512 0.82966 0.0397 0.0
H783 H 0.44009 0.86486 0.93876 0.0
H784 H 0.34326 0.85248 0.94623 0.0
H785 H 0.37277 0.8485 0.93232 0.0
C786 C 0.63359 0.47737 0.25694 0.0
C787 C 0.64468 0.48954 0.29248 0.0
C788 C 0.61657 0.45805 0.26355 0.0
C789 C 0.59038 0.41764 0.34734 0.0
H790 H 0.54314 0.4015 0.27363 0.0
C791 C 0.50918 0.35257 0.38955 0.0
C792 C 0.49763 0.33928 0.35574 0.0
C793 C 0.52811 0.36978 0.38099 0.0
C794 C 0.5563 0.40569 0.29413 0.0
H795 H 0.64672 0.49096 0.36283 0.0
H796 H 0.61675 0.45758 0.37442 0.0
H797 H 0.57427 0.43377 0.26021 0.0
H798 H 0.49709 0.33339 0.28658 0.0
H799 H 0.5301 0.36358 0.27167 0.0
H800 H 0.572 0.38974 0.38206 0.0
C801 C 0.62142 0.46269 0.34137 0.0
C802 C 0.57418 0.42417 0.2864 0.0
C803 C 0.63854 0.48192 0.33474 0.0
C804 C 0.5056 0.34334 0.31334 0.0
C805 C 0.52444 0.36066 0.30473 0.0
C806 C 0.5724 0.39925 0.35531 0.0
C807 C 0.61014 0.45055 0.30587 0.0
C808 C 0.59142 0.43045 0.31305 0.0
C809 C 0.53579 0.37414 0.3384 0.0
C810 C 0.55517 0.39316 0.32891 0.0
H811 H 0.63804 0.48275 0.22394 0.0
H812 H 0.60848 0.44898 0.23543 0.0
H813 H 0.60346 0.4218 0.36804 0.0
H814 H 0.50348 0.34983 0.42258 0.0
H815 H 0.53648 0.38001 0.40751 0.0
C816 C 0.14578 0.63159 0.59261 0.0
C817 C 0.15846 0.6495 0.61606 0.0
C818 C 0.14636 0.61369 0.60047 0.0
C819 C 0.17757 0.59396 0.65118 0.0
H820 H 0.12583 0.54326 0.65635 0.0
C821 C 0.17223 0.51543 0.67185 0.0
C822 C 0.15668 0.50109 0.69883 0.0
C823 C 0.17292 0.53371 0.66095 0.0
C824 C 0.1404 0.55731 0.65538 0.0
H825 H 0.18202 0.66279 0.66552 0.0
H826 H 0.1828 0.63152 0.67969 0.0
H827 H 0.12642 0.57488 0.63836 0.0
H828 H 0.12987 0.49485 0.73616 0.0
H829 H 0.13129 0.52687 0.7178 0.0
H830 H 0.19148 0.57644 0.66955 0.0
C831 C 0.1726 0.63135 0.65479 0.0
C832 C 0.14076 0.5754 0.64444 0.0
C833 C 0.17207 0.64926 0.64681 0.0
C834 C 0.142 0.50553 0.71513 0.0
C835 C 0.14273 0.52383 0.70435 0.0
C836 C 0.1772 0.57585 0.66224 0.0
C837 C 0.15959 0.61329 0.63206 0.0
C838 C 0.15934 0.59396 0.64233 0.0
C839 C 0.15812 0.53808 0.67689 0.0
C840 C 0.1586 0.55732 0.66466 0.0
H841 H 0.1352 0.63129 0.56849 0.0
H842 H 0.13638 0.60014 0.58186 0.0
H843 H 0.19216 0.60795 0.64942 0.0
H844 H 0.18374 0.51245 0.6586 0.0
H845 H 0.18484 0.54423 0.63931 0.0
C846 C 0.63607 0.15518 0.97898 0.0
C847 C 0.64415 0.1565 0.02072 0.0
C848 C 0.61994 0.15888 0.97257 0.0
C849 C 0.57843 0.16096 0.03199 0.0
H850 H 0.57393 0.18505 0.92424 0.0
C851 C 0.51314 0.17782 -0.00106 0.0
C852 C 0.50239 0.16911 0.96025 0.0
C853 C 0.53187 0.17894 0.0068 0.0
C854 C 0.57503 0.17832 0.95448 0.0
H855 H 0.64202 0.16322 0.08837 0.0
H856 H 0.61428 0.17031 0.07705 0.0
H857 H 0.60421 0.18229 0.93794 0.0
H858 H 0.50319 0.15556 0.89868 0.0
H859 H 0.53609 0.15788 0.91212 0.0
H860 H 0.54926 0.15721 0.04849 0.0
C861 C 0.62001 0.16588 0.04937 0.0
C862 C 0.5923 0.17661 0.96228 0.0
C863 C 0.63599 0.16191 0.05586 0.0
C864 C 0.5111 0.1623 0.92885 0.0
C865 C 0.52996 0.16371 0.93642 0.0
C866 C 0.56131 0.16294 0.02441 0.0
C867 C 0.61168 0.16427 0.00766 0.0
C868 C 0.59406 0.16756 0.0008 0.0
C869 C 0.54032 0.17169 0.97579 0.0
C870 C 0.55931 0.17133 0.9853 0.0
H871 H 0.64194 0.1509 0.95127 0.0
H872 H 0.61369 0.15707 0.94015 0.0
H873 H 0.57905 0.15363 0.0617 0.0
H874 H 0.50679 0.18316 0.02381 0.0
H875 H 0.53964 0.18526 0.03731 0.0
loop_
_geom_bond_atom_site_label_1
_geom_bond_atom_site_label_2
_geom_bond_distance
_geom_bond_site_symmetry_2
_ccdc_geom_bond_type
C0 O1 1.160 . S
C0 O7 1.185 . S
O1 C0 1.160 . S
O2 Zn3 1.899 . S
O2 C10 1.284 . S
Zn3 O2 1.899 . S
Zn3 O4 2.032 . S
Zn3 O7 2.086 . S
Zn3 O12 1.977 . S
O4 Zn3 2.032 . S
O4 C8 1.278 . S
C5 O6 1.203 . S
C5 O12 1.267 . S
O6 C5 1.203 . S
O7 C0 1.185 . S
O7 Zn3 2.086 . S
C8 O4 1.278 . S
C8 O9 1.211 . S
O9 C8 1.211 . S
C10 O2 1.284 . S
C10 O11 1.273 . S
O11 C10 1.273 . S
O12 Zn3 1.977 . S
O12 C5 1.267 . S
C13 O14 1.160 . S
C13 O20 1.185 . S
O14 C13 1.160 . S
O15 Zn16 1.899 . S
O15 C23 1.284 . S
Zn16 O15 1.899 . S
Zn16 O17 2.032 . S
Zn16 O20 2.086 . S
Zn16 O25 1.977 . S
O17 Zn16 2.032 . S
O17 C21 1.278 . S
C18 O19 1.203 . S
C18 O25 1.267 . S
O19 C18 1.203 . S
O20 C13 1.185 . S
O20 Zn16 2.086 . S
C21 O17 1.278 . S
C21 O22 1.211 . S
O22 C21 1.211 . S
C23 O15 1.284 . S
C23 O24 1.273 . S
O24 C23 1.273 . S
O25 Zn16 1.977 . S
O25 C18 1.267 . S
C26 O27 1.160 . S
C26 O33 1.185 . S
O27 C26 1.160 . S
O28 Zn29 1.899 . S
O28 C36 1.284 . S
Zn29 O28 1.899 . S
Zn29 O30 2.032 . S
Zn29 O33 2.086 . S
Zn29 O38 1.977 . S
O30 Zn29 2.032 . S
O30 C34 1.278 1_556 S
C31 O32 1.203 . S
C31 O38 1.267 . S
O32 C31 1.203 . S
O33 C26 1.185 . S
O33 Zn29 2.086 . S
C34 O30 1.278 1_554 S
C34 O35 1.211 . S
O35 C34 1.211 . S
C36 O28 1.284 . S
C36 O37 1.273 . S
O37 C36 1.273 . S
O38 Zn29 1.977 . S
O38 C31 1.267 . S
C39 O40 1.160 . S
C39 O46 1.185 . S
O40 C39 1.160 . S
O41 Zn42 1.899 . S
O41 C49 1.284 . S
Zn42 O41 1.899 . S
Zn42 O43 2.032 . S
Zn42 O46 2.086 . S
Zn42 O51 1.977 . S
O43 Zn42 2.032 . S
O43 C47 1.278 . S
C44 O45 1.203 . S
C44 O51 1.267 . S
O45 C44 1.203 . S
O46 C39 1.185 . S
O46 Zn42 2.086 . S
C47 O43 1.278 . S
C47 O48 1.211 . S
O48 C47 1.211 . S
C49 O41 1.284 . S
C49 O50 1.273 . S
O50 C49 1.273 . S
O51 Zn42 1.977 . S
O51 C44 1.267 . S
C52 O53 1.160 . S
C52 O59 1.185 . S
O53 C52 1.160 . S
O54 Zn55 1.899 . S
O54 C62 1.284 . S
Zn55 O54 1.899 . S
Zn55 O56 2.032 . S
Zn55 O59 2.086 . S
Zn55 O64 1.977 . S
O56 Zn55 2.032 . S
O56 C60 1.278 . S
C57 O58 1.203 . S
C57 O64 1.267 . S
O58 C57 1.203 . S
O59 C52 1.185 . S
O59 Zn55 2.086 . S
C60 O56 1.278 . S
C60 O61 1.211 . S
O61 C60 1.211 . S
C62 O54 1.284 . S
C62 O63 1.273 . S
O63 C62 1.273 . S
O64 Zn55 1.977 . S
O64 C57 1.267 . S
C65 O66 1.160 . S
C65 O72 1.185 . S
O66 C65 1.160 . S
O67 Zn68 1.899 . S
O67 C75 1.284 . S
Zn68 O67 1.899 . S
Zn68 O69 2.032 . S
Zn68 O72 2.086 . S
Zn68 O77 1.977 . S
O69 Zn68 2.032 . S
O69 C73 1.278 1_556 S
C70 O71 1.203 . S
C70 O77 1.267 . S
O71 C70 1.203 . S
O72 C65 1.185 . S
O72 Zn68 2.086 . S
C73 O69 1.278 1_554 S
C73 O74 1.211 . S
O74 C73 1.211 . S
C75 O67 1.284 . S
C75 O76 1.273 . S
O76 C75 1.273 . S
O77 Zn68 1.977 . S
O77 C70 1.267 . S
C78 O79 1.160 . S
C78 O85 1.185 . S
O79 C78 1.160 . S
O80 Zn81 1.899 . S
O80 C88 1.284 . S
Zn81 O80 1.899 . S
Zn81 O82 2.032 . S
Zn81 O85 2.086 . S
Zn81 O90 1.977 . S
O82 Zn81 2.032 . S
O82 C86 1.278 . S
C83 O84 1.203 . S
C83 O90 1.267 . S
O84 C83 1.203 . S
O85 C78 1.185 . S
O85 Zn81 2.086 . S
C86 O82 1.278 . S
C86 O87 1.211 . S
O87 C86 1.211 . S
C88 O80 1.284 . S
C88 O89 1.273 . S
O89 C88 1.273 . S
O90 Zn81 1.977 . S
O90 C83 1.267 . S
C91 O92 1.160 . S
C91 O98 1.185 . S
O92 C91 1.160 . S
O93 Zn94 1.899 . S
O93 C101 1.284 . S
Zn94 O93 1.899 . S
Zn94 O95 2.032 . S
Zn94 O98 2.086 . S
Zn94 O103 1.977 . S
O95 Zn94 2.032 . S
O95 C99 1.278 . S
C96 O97 1.203 . S
C96 O103 1.267 . S
O97 C96 1.203 . S
O98 C91 1.185 . S
O98 Zn94 2.086 . S
C99 O95 1.278 . S
C99 O100 1.211 . S
O100 C99 1.211 . S
C101 O93 1.284 . S
C101 O102 1.273 . S
O102 C101 1.273 . S
O103 Zn94 1.977 . S
O103 C96 1.267 . S
C104 O105 1.160 . S
C104 O111 1.185 . S
O105 C104 1.160 . S
O106 Zn107 1.899 . S
O106 C114 1.284 . S
Zn107 O106 1.899 . S
Zn107 O108 2.032 . S
Zn107 O111 2.086 . S
Zn107 O116 1.977 . S
O108 Zn107 2.032 . S
O108 C112 1.278 1_554 S
C109 O110 1.203 . S
C109 O116 1.267 . S
O110 C109 1.203 . S
O111 C104 1.185 . S
O111 Zn107 2.086 . S
C112 O108 1.278 1_556 S
C112 O113 1.211 . S
O113 C112 1.211 . S
C114 O106 1.284 . S
C114 O115 1.273 . S
O115 C114 1.273 . S
O116 Zn107 1.977 . S
O116 C109 1.267 . S
C117 O118 1.160 . S
C117 O124 1.185 . S
O118 C117 1.160 . S
O119 Zn120 1.899 . S
O119 C127 1.284 . S
Zn120 O119 1.899 . S
Zn120 O121 2.032 . S
Zn120 O124 2.086 . S
Zn120 O129 1.977 . S
O121 Zn120 2.032 . S
O121 C125 1.278 . S
C122 O123 1.203 . S
C122 O129 1.267 . S
O123 C122 1.203 . S
O124 C117 1.185 . S
O124 Zn120 2.086 . S
C125 O121 1.278 . S
C125 O126 1.211 . S
O126 C125 1.211 . S
C127 O119 1.284 . S
C127 O128 1.273 . S
O128 C127 1.273 . S
O129 Zn120 1.977 . S
O129 C122 1.267 . S
C130 O131 1.160 . S
C130 O137 1.185 . S
O131 C130 1.160 . S
O132 Zn133 1.899 . S
O132 C140 1.284 . S
Zn133 O132 1.899 . S
Zn133 O134 2.032 . S
Zn133 O137 2.086 . S
Zn133 O142 1.977 . S
O134 Zn133 2.032 . S
O134 C138 1.278 . S
C135 O136 1.203 . S
C135 O142 1.267 . S
O136 C135 1.203 . S
O137 C130 1.185 . S
O137 Zn133 2.086 . S
C138 O134 1.278 . S
C138 O139 1.211 . S
O139 C138 1.211 . S
C140 O132 1.284 . S
C140 O141 1.273 . S
O141 C140 1.273 . S
O142 Zn133 1.977 . S
O142 C135 1.267 . S
C143 O144 1.160 . S
C143 O150 1.185 . S
O144 C143 1.160 . S
O145 Zn146 1.899 . S
O145 C153 1.284 . S
Zn146 O145 1.899 . S
Zn146 O147 2.032 . S
Zn146 O150 2.086 . S
Zn146 O155 1.977 . S
O147 Zn146 2.032 . S
O147 C151 1.278 1_554 S
C148 O149 1.203 . S
C148 O155 1.267 . S
O149 C148 1.203 . S
O150 C143 1.185 . S
O150 Zn146 2.086 . S
C151 O147 1.278 1_556 S
C151 O152 1.211 . S
O152 C151 1.211 . S
C153 O145 1.284 . S
C153 O154 1.273 . S
O154 C153 1.273 . S
O155 Zn146 1.977 . S
O155 C148 1.267 . S
C156 C157 1.349 . S
C156 C158 1.327 . S
C156 H181 0.950 . S
C157 C156 1.349 . S
C157 C173 1.349 . S
C158 C156 1.327 . S
C158 C177 1.429 . S
C158 H182 0.950 . S
C159 C176 1.574 . S
C159 C178 1.368 . S
C159 H183 0.949 . S
H160 C164 0.949 . S
C161 C162 1.349 . S
C161 C163 1.327 . S
C161 H184 0.950 . S
C162 C161 1.349 . S
C162 C174 1.349 . S
C163 C161 1.327 . S
C163 C179 1.429 . S
C163 H185 0.950 . S
C164 H160 0.949 . S
C164 C172 1.574 . S
C164 C180 1.368 . S
H165 C173 0.950 . S
H166 C171 0.950 . S
H167 C172 0.949 . S
H168 C174 0.950 . S
H169 C175 0.950 . S
H170 C176 0.949 . S
C171 H166 0.950 . S
C171 C173 1.327 . S
C171 C177 1.429 . S
C172 C164 1.574 . S
C172 H167 0.949 . S
C172 C178 1.368 . S
C173 C157 1.349 . S
C173 H165 0.950 . S
C173 C171 1.327 . S
C174 C162 1.349 . S
C174 H168 0.950 . S
C174 C175 1.327 . S
C175 H169 0.950 . S
C175 C174 1.327 . S
C175 C179 1.429 . S
C176 C159 1.574 . S
C176 H170 0.949 . S
C176 C180 1.368 . S
C177 C158 1.429 . S
C177 C171 1.429 . S
C177 C178 1.523 . S
C178 C159 1.368 . S
C178 C172 1.368 . S
C178 C177 1.523 . S
C179 C163 1.429 . S
C179 C175 1.429 . S
C179 C180 1.523 . S
C180 C164 1.368 . S
C180 C176 1.368 . S
C180 C179 1.523 . S
H181 C156 0.950 . S
H182 C158 0.950 . S
H183 C159 0.949 . S
H184 C161 0.950 . S
H185 C163 0.950 . S
C186 C187 1.349 . S
C186 C188 1.327 . S
C186 H211 0.950 . S
C187 C186 1.349 . S
C187 C203 1.349 . S
C188 C186 1.327 . S
C188 C207 1.429 . S
C188 H212 0.950 . S
C189 C206 1.574 1_655 S
C189 C208 1.368 . S
C189 H213 0.949 . S
H190 C194 0.949 . S
C191 C192 1.349 . S
C191 C193 1.327 . S
C191 H214 0.950 . S
C192 C191 1.349 . S
C192 C204 1.349 . S
C193 C191 1.327 . S
C193 C209 1.429 . S
C193 H215 0.950 . S
C194 H190 0.949 . S
C194 C202 1.574 1_455 S
C194 C210 1.368 . S
H195 C203 0.950 . S
H196 C201 0.950 . S
H197 C202 0.949 . S
H198 C204 0.950 . S
H199 C205 0.950 . S
H200 C206 0.949 . S
C201 H196 0.950 . S
C201 C203 1.327 . S
C201 C207 1.429 . S
C202 C194 1.574 1_655 S
C202 H197 0.949 . S
C202 C208 1.368 . S
C203 C187 1.349 . S
C203 H195 0.950 . S
C203 C201 1.327 . S
C204 C192 1.349 . S
C204 H198 0.950 . S
C204 C205 1.327 . S
C205 H199 0.950 . S
C205 C204 1.327 . S
C205 C209 1.429 . S
C206 C189 1.574 1_455 S
C206 H200 0.949 . S
C206 C210 1.368 . S
C207 C188 1.429 . S
C207 C201 1.429 . S
C207 C208 1.523 . S
C208 C189 1.368 . S
C208 C202 1.368 . S
C208 C207 1.523 . S
C209 C193 1.429 . S
C209 C205 1.429 . S
C209 C210 1.523 . S
C210 C194 1.368 . S
C210 C206 1.368 . S
C210 C209 1.523 . S
H211 C186 0.950 . S
H212 C188 0.950 . S
H213 C189 0.949 . S
H214 C191 0.950 . S
H215 C193 0.950 . S
C216 C217 1.349 . S
C216 C218 1.327 . S
C216 H241 0.950 . S
C217 C216 1.349 . S
C217 C233 1.349 1_556 S
C218 C216 1.327 . S
C218 C237 1.429 . S
C218 H242 0.950 . S
C219 C236 1.574 1_565 S
C219 C238 1.368 1_554 S
C219 H243 0.949 . S
H220 C224 0.949 . S
C221 C222 1.349 . S
C221 C223 1.327 . S
C221 H244 0.950 . S
C222 C221 1.349 . S
C222 C234 1.349 1_554 S
C223 C221 1.327 . S
C223 C239 1.429 . S
C223 H245 0.950 . S
C224 H220 0.949 . S
C224 C232 1.574 1_545 S
C224 C240 1.368 1_556 S
H225 C233 0.950 . S
H226 C231 0.950 . S
H227 C232 0.949 . S
H228 C234 0.950 . S
H229 C235 0.950 . S
H230 C236 0.949 . S
C231 H226 0.950 . S
C231 C233 1.327 . S
C231 C237 1.429 1_554 S
C232 C224 1.574 1_565 S
C232 H227 0.949 . S
C232 C238 1.368 . S
C233 C217 1.349 1_554 S
C233 H225 0.950 . S
C233 C231 1.327 . S
C234 C222 1.349 1_556 S
C234 H228 0.950 . S
C234 C235 1.327 . S
C235 H229 0.950 . S
C235 C234 1.327 . S
C235 C239 1.429 1_556 S
C236 C219 1.574 1_545 S
C236 H230 0.949 . S
C236 C240 1.368 . S
C237 C218 1.429 . S
C237 C231 1.429 1_556 S
C237 C238 1.523 . S
C238 C219 1.368 1_556 S
C238 C232 1.368 . S
C238 C237 1.523 . S
C239 C223 1.429 . S
C239 C235 1.429 1_554 S
C239 C240 1.523 . S
C240 C224 1.368 1_554 S
C240 C236 1.368 . S
C240 C239 1.523 . S
H241 C216 0.950 . S
H242 C218 0.950 . S
H243 C219 0.949 . S
H244 C221 0.950 . S
H245 C223 0.950 . S
C246 C247 1.349 . S
C246 C248 1.327 . S
C246 H271 0.950 . S
C247 C246 1.349 . S
C247 C263 1.349 . S
C248 C246 1.327 . S
C248 C267 1.429 . S
C248 H272 0.950 . S
C249 C266 1.574 . S
C249 C268 1.368 . S
C249 H273 0.949 . S
H250 C254 0.949 . S
C251 C252 1.349 . S
C251 C253 1.327 . S
C251 H274 0.950 . S
C252 C251 1.349 . S
C252 C264 1.349 . S
C253 C251 1.327 . S
C253 C269 1.429 . S
C253 H275 0.950 . S
C254 H250 0.949 . S
C254 C262 1.574 . S
C254 C270 1.368 . S
H255 C263 0.950 . S
H256 C261 0.950 . S
H257 C262 0.949 . S
H258 C264 0.950 . S
H259 C265 0.950 . S
H260 C266 0.949 . S
C261 H256 0.950 . S
C261 C263 1.327 . S
C261 C267 1.429 . S
C262 C254 1.574 . S
C262 H257 0.949 . S
C262 C268 1.368 . S
C263 C247 1.349 . S
C263 H255 0.950 . S
C263 C261 1.327 . S
C264 C252 1.349 . S
C264 H258 0.950 . S
C264 C265 1.327 . S
C265 H259 0.950 . S
C265 C264 1.327 . S
C265 C269 1.429 . S
C266 C249 1.574 . S
C266 H260 0.949 . S
C266 C270 1.368 . S
C267 C248 1.429 . S
C267 C261 1.429 . S
C267 C268 1.523 . S
C268 C249 1.368 . S
C268 C262 1.368 . S
C268 C267 1.523 . S
C269 C253 1.429 . S
C269 C265 1.429 . S
C269 C270 1.523 . S
C270 C254 1.368 . S
C270 C266 1.368 . S
C270 C269 1.523 . S
H271 C246 0.950 . S
H272 C248 0.950 . S
H273 C249 0.949 . S
H274 C251 0.950 . S
H275 C253 0.950 . S
C276 C277 1.349 . S
C276 C278 1.327 . S
C276 H301 0.950 . S
C277 C276 1.349 . S
C277 C293 1.349 . S
C278 C276 1.327 . S
C278 C297 1.429 . S
C278 H302 0.950 . S
C279 C296 1.574 1_655 S
C279 C298 1.368 . S
C279 H303 0.949 . S
H280 C284 0.949 . S
C281 C282 1.349 . S
C281 C283 1.327 . S
C281 H304 0.950 . S
C282 C281 1.349 . S
C282 C294 1.349 . S
C283 C281 1.327 . S
C283 C299 1.429 . S
C283 H305 0.950 . S
C284 H280 0.949 . S
C284 C292 1.574 1_455 S
C284 C300 1.368 . S
H285 C293 0.950 . S
H286 C291 0.950 . S
H287 C292 0.949 . S
H288 C294 0.950 . S
H289 C295 0.950 . S
H290 C296 0.949 . S
C291 H286 0.950 . S
C291 C293 1.327 . S
C291 C297 1.429 . S
C292 C284 1.574 1_655 S
C292 H287 0.949 . S
C292 C298 1.368 . S
C293 C277 1.349 . S
C293 H285 0.950 . S
C293 C291 1.327 . S
C294 C282 1.349 . S
C294 H288 0.950 . S
C294 C295 1.327 . S
C295 H289 0.950 . S
C295 C294 1.327 . S
C295 C299 1.429 . S
C296 C279 1.574 1_455 S
C296 H290 0.949 . S
C296 C300 1.368 . S
C297 C278 1.429 . S
C297 C291 1.429 . S
C297 C298 1.523 . S
C298 C279 1.368 . S
C298 C292 1.368 . S
C298 C297 1.523 . S
C299 C283 1.429 . S
C299 C295 1.429 . S
C299 C300 1.523 . S
C300 C284 1.368 . S
C300 C296 1.368 . S
C300 C299 1.523 . S
H301 C276 0.950 . S
H302 C278 0.950 . S
H303 C279 0.949 . S
H304 C281 0.950 . S
H305 C283 0.950 . S
C306 C307 1.349 . S
C306 C308 1.327 . S
C306 H331 0.950 . S
C307 C306 1.349 . S
C307 C323 1.349 1_554 S
C308 C306 1.327 . S
C308 C327 1.429 . S
C308 H332 0.950 . S
C309 C326 1.574 1_565 S
C309 C328 1.368 1_556 S
C309 H333 0.949 . S
H310 C314 0.949 . S
C311 C312 1.349 . S
C311 C313 1.327 . S
C311 H334 0.950 . S
C312 C311 1.349 . S
C312 C324 1.349 1_556 S
C313 C311 1.327 . S
C313 C329 1.429 . S
C313 H335 0.950 . S
C314 H310 0.949 . S
C314 C322 1.574 1_545 S
C314 C330 1.368 1_554 S
H315 C323 0.950 . S
H316 C321 0.950 . S
H317 C322 0.949 . S
H318 C324 0.950 . S
H319 C325 0.950 . S
H320 C326 0.949 . S
C321 H316 0.950 . S
C321 C323 1.327 . S
C321 C327 1.429 1_556 S
C322 C314 1.574 1_565 S
C322 H317 0.949 . S
C322 C328 1.368 . S
C323 C307 1.349 1_556 S
C323 H315 0.950 . S
C323 C321 1.327 . S
C324 C312 1.349 1_554 S
C324 H318 0.950 . S
C324 C325 1.327 . S
C325 H319 0.950 . S
C325 C324 1.327 . S
C325 C329 1.429 1_554 S
C326 C309 1.574 1_545 S
C326 H320 0.949 . S
C326 C330 1.368 . S
C327 C308 1.429 . S
C327 C321 1.429 1_554 S
C327 C328 1.523 . S
C328 C309 1.368 1_554 S
C328 C322 1.368 . S
C328 C327 1.523 . S
C329 C313 1.429 . S
C329 C325 1.429 1_556 S
C329 C330 1.523 . S
C330 C314 1.368 1_556 S
C330 C326 1.368 . S
C330 C329 1.523 . S
H331 C306 0.950 . S
H332 C308 0.950 . S
H333 C309 0.949 . S
H334 C311 0.950 . S
H335 C313 0.950 . S
C336 C337 1.349 . S
C336 C338 1.327 . S
C336 H361 0.950 . S
C337 C336 1.349 . S
C337 C353 1.349 . S
C338 C336 1.327 . S
C338 C357 1.429 . S
C338 H362 0.950 . S
C339 C356 1.574 1_556 S
C339 C358 1.368 . S
C339 H363 0.949 . S
H340 C344 0.949 . S
C341 C342 1.349 . S
C341 C343 1.327 . S
C341 H364 0.950 . S
C342 C341 1.349 . S
C342 C354 1.349 . S
C343 C341 1.327 . S
C343 C359 1.429 . S
C343 H365 0.950 . S
C344 H340 0.949 . S
C344 C352 1.574 1_554 S
C344 C360 1.368 . S
H345 C353 0.950 . S
H346 C351 0.950 . S
H347 C352 0.949 . S
H348 C354 0.950 . S
H349 C355 0.950 . S
H350 C356 0.949 . S
C351 H346 0.950 . S
C351 C353 1.327 . S
C351 C357 1.429 . S
C352 C344 1.574 1_556 S
C352 H347 0.949 . S
C352 C358 1.368 . S
C353 C337 1.349 . S
C353 H345 0.950 . S
C353 C351 1.327 . S
C354 C342 1.349 . S
C354 H348 0.950 . S
C354 C355 1.327 . S
C355 H349 0.950 . S
C355 C354 1.327 . S
C355 C359 1.429 . S
C356 C339 1.574 1_554 S
C356 H350 0.949 . S
C356 C360 1.368 . S
C357 C338 1.429 . S
C357 C351 1.429 . S
C357 C358 1.523 . S
C358 C339 1.368 . S
C358 C352 1.368 . S
C358 C357 1.523 . S
C359 C343 1.429 . S
C359 C355 1.429 . S
C359 C360 1.523 . S
C360 C344 1.368 . S
C360 C356 1.368 . S
C360 C359 1.523 . S
H361 C336 0.950 . S
H362 C338 0.950 . S
H363 C339 0.949 . S
H364 C341 0.950 . S
H365 C343 0.950 . S
C366 C367 1.349 . S
C366 C368 1.327 . S
C366 H391 0.950 . S
C367 C366 1.349 . S
C367 C383 1.349 . S
C368 C366 1.327 . S
C368 C387 1.429 . S
C368 H392 0.950 . S
C369 C386 1.574 . S
C369 C388 1.368 . S
C369 H393 0.949 . S
H370 C374 0.949 . S
C371 C372 1.349 . S
C371 C373 1.327 . S
C371 H394 0.950 . S
C372 C371 1.349 . S
C372 C384 1.349 . S
C373 C371 1.327 . S
C373 C389 1.429 . S
C373 H395 0.950 . S
C374 H370 0.949 . S
C374 C382 1.574 . S
C374 C390 1.368 . S
H375 C383 0.950 . S
H376 C381 0.950 . S
H377 C382 0.949 . S
H378 C384 0.950 . S
H379 C385 0.950 . S
H380 C386 0.949 . S
C381 H376 0.950 . S
C381 C383 1.327 . S
C381 C387 1.429 . S
C382 C374 1.574 . S
C382 H377 0.949 . S
C382 C388 1.368 . S
C383 C367 1.349 . S
C383 H375 0.950 . S
C383 C381 1.327 . S
C384 C372 1.349 . S
C384 H378 0.950 . S
C384 C385 1.327 . S
C385 H379 0.950 . S
C385 C384 1.327 . S
C385 C389 1.429 . S
C386 C369 1.574 . S
C386 H380 0.949 . S
C386 C390 1.368 . S
C387 C368 1.429 . S
C387 C381 1.429 . S
C387 C388 1.523 . S
C388 C369 1.368 . S
C388 C382 1.368 . S
C388 C387 1.523 . S
C389 C373 1.429 . S
C389 C385 1.429 . S
C389 C390 1.523 . S
C390 C374 1.368 . S
C390 C386 1.368 . S
C390 C389 1.523 . S
H391 C366 0.950 . S
H392 C368 0.950 . S
H393 C369 0.949 . S
H394 C371 0.950 . S
H395 C373 0.950 . S
C396 C397 1.349 . S
C396 C398 1.327 . S
C396 H421 0.950 . S
C397 C396 1.349 . S
C397 C413 1.349 . S
C398 C396 1.327 . S
C398 C417 1.429 . S
C398 H422 0.950 . S
C399 C416 1.574 . S
C399 C418 1.368 . S
C399 H423 0.949 . S
H400 C404 0.949 . S
C401 C402 1.349 . S
C401 C403 1.327 . S
C401 H424 0.950 . S
C402 C401 1.349 . S
C402 C414 1.349 . S
C403 C401 1.327 . S
C403 C419 1.429 . S
C403 H425 0.950 . S
C404 H400 0.949 . S
C404 C412 1.574 . S
C404 C420 1.368 . S
H405 C413 0.950 . S
H406 C411 0.950 . S
H407 C412 0.949 . S
H408 C414 0.950 . S
H409 C415 0.950 . S
H410 C416 0.949 . S
C411 H406 0.950 . S
C411 C413 1.327 . S
C411 C417 1.429 . S
C412 C404 1.574 . S
C412 H407 0.949 . S
C412 C418 1.368 . S
C413 C397 1.349 . S
C413 H405 0.950 . S
C413 C411 1.327 . S
C414 C402 1.349 . S
C414 H408 0.950 . S
C414 C415 1.327 . S
C415 H409 0.950 . S
C415 C414 1.327 . S
C415 C419 1.429 . S
C416 C399 1.574 . S
C416 H410 0.949 . S
C416 C420 1.368 . S
C417 C398 1.429 . S
C417 C411 1.429 . S
C417 C418 1.523 . S
C418 C399 1.368 . S
C418 C412 1.368 . S
C418 C417 1.523 . S
C419 C403 1.429 . S
C419 C415 1.429 . S
C419 C420 1.523 . S
C420 C404 1.368 . S
C420 C416 1.368 . S
C420 C419 1.523 . S
H421 C396 0.950 . S
H422 C398 0.950 . S
H423 C399 0.949 . S
H424 C401 0.950 . S
H425 C403 0.950 . S
C426 C427 1.349 . S
C426 C428 1.327 . S
C426 H451 0.950 . S
C427 C426 1.349 . S
C427 C443 1.349 . S
C428 C426 1.327 . S
C428 C447 1.429 . S
C428 H452 0.950 . S
C429 C446 1.574 1_554 S
C429 C448 1.368 . S
C429 H453 0.949 . S
H430 C434 0.949 . S
C431 C432 1.349 . S
C431 C433 1.327 . S
C431 H454 0.950 . S
C432 C431 1.349 . S
C432 C444 1.349 . S
C433 C431 1.327 . S
C433 C449 1.429 . S
C433 H455 0.950 . S
C434 H430 0.949 . S
C434 C442 1.574 1_556 S
C434 C450 1.368 . S
H435 C443 0.950 . S
H436 C441 0.950 . S
H437 C442 0.949 . S
H438 C444 0.950 . S
H439 C445 0.950 . S
H440 C446 0.949 . S
C441 H436 0.950 . S
C441 C443 1.327 . S
C441 C447 1.429 . S
C442 C434 1.574 1_554 S
C442 H437 0.949 . S
C442 C448 1.368 . S
C443 C427 1.349 . S
C443 H435 0.950 . S
C443 C441 1.327 . S
C444 C432 1.349 . S
C444 H438 0.950 . S
C444 C445 1.327 . S
C445 H439 0.950 . S
C445 C444 1.327 . S
C445 C449 1.429 . S
C446 C429 1.574 1_556 S
C446 H440 0.949 . S
C446 C450 1.368 . S
C447 C428 1.429 . S
C447 C441 1.429 . S
C447 C448 1.523 . S
C448 C429 1.368 . S
C448 C442 1.368 . S
C448 C447 1.523 . S
C449 C433 1.429 . S
C449 C445 1.429 . S
C449 C450 1.523 . S
C450 C434 1.368 . S
C450 C446 1.368 . S
C450 C449 1.523 . S
H451 C426 0.950 . S
H452 C428 0.950 . S
H453 C429 0.949 . S
H454 C431 0.950 . S
H455 C433 0.950 . S
C456 C457 1.349 . S
C456 C458 1.327 . S
C456 H481 0.950 . S
C457 C456 1.349 . S
C457 C473 1.349 . S
C458 C456 1.327 . S
C458 C477 1.429 . S
C458 H482 0.950 . S
C459 C476 1.574 . S
C459 C478 1.368 . S
C459 H483 0.949 . S
H460 C464 0.949 . S
C461 C462 1.349 . S
C461 C463 1.327 . S
C461 H484 0.950 . S
C462 C461 1.349 . S
C462 C474 1.349 . S
C463 C461 1.327 . S
C463 C479 1.429 . S
C463 H485 0.950 . S
C464 H460 0.949 . S
C464 C472 1.574 . S
C464 C480 1.368 . S
H465 C473 0.950 . S
H466 C471 0.950 . S
H467 C472 0.949 . S
H468 C474 0.950 . S
H469 C475 0.950 . S
H470 C476 0.949 . S
C471 H466 0.950 . S
C471 C473 1.327 . S
C471 C477 1.429 . S
C472 C464 1.574 . S
C472 H467 0.949 . S
C472 C478 1.368 . S
C473 C457 1.349 . S
C473 H465 0.950 . S
C473 C471 1.327 . S
C474 C462 1.349 . S
C474 H468 0.950 . S
C474 C475 1.327 . S
C475 H469 0.950 . S
C475 C474 1.327 . S
C475 C479 1.429 . S
C476 C459 1.574 . S
C476 H470 0.949 . S
C476 C480 1.368 . S
C477 C458 1.429 . S
C477 C471 1.429 . S
C477 C478 1.523 . S
C478 C459 1.368 . S
C478 C472 1.368 . S
C478 C477 1.523 . S
C479 C463 1.429 . S
C479 C475 1.429 . S
C479 C480 1.523 . S
C480 C464 1.368 . S
C480 C476 1.368 . S
C480 C479 1.523 . S
H481 C456 0.950 . S
H482 C458 0.950 . S
H483 C459 0.949 . S
H484 C461 0.950 . S
H485 C463 0.950 . S
C486 C487 1.349 . S
C486 C488 1.327 . S
C486 H511 0.950 . S
C487 C486 1.349 . S
C487 C503 1.349 . S
C488 C486 1.327 . S
C488 C507 1.429 . S
C488 H512 0.950 . S
C489 C506 1.574 . S
C489 C508 1.368 . S
C489 H513 0.949 . S
H490 C494 0.949 . S
C491 C492 1.349 . S
C491 C493 1.327 . S
C491 H514 0.950 . S
C492 C491 1.349 . S
C492 C504 1.349 . S
C493 C491 1.327 . S
C493 C509 1.429 . S
C493 H515 0.950 . S
C494 H490 0.949 . S
C494 C502 1.574 . S
C494 C510 1.368 . S
H495 C503 0.950 . S
H496 C501 0.950 . S
H497 C502 0.949 . S
H498 C504 0.950 . S
H499 C505 0.950 . S
H500 C506 0.949 . S
C501 H496 0.950 . S
C501 C503 1.327 . S
C501 C507 1.429 . S
C502 C494 1.574 . S
C502 H497 0.949 . S
C502 C508 1.368 . S
C503 C487 1.349 . S
C503 H495 0.950 . S
C503 C501 1.327 . S
C504 C492 1.349 . S
C504 H498 0.950 . S
C504 C505 1.327 . S
C505 H499 0.950 . S
C505 C504 1.327 . S
C505 C509 1.429 . S
C506 C489 1.574 . S
C506 H500 0.949 . S
C506 C510 1.368 . S
C507 C488 1.429 . S
C507 C501 1.429 . S
C507 C508 1.523 . S
C508 C489 1.368 . S
C508 C502 1.368 . S
C508 C507 1.523 . S
C509 C493 1.429 . S
C509 C505 1.429 . S
C509 C510 1.523 . S
C510 C494 1.368 . S
C510 C506 1.368 . S
C510 C509 1.523 . S
H511 C486 0.950 . S
H512 C488 0.950 . S
H513 C489 0.949 . S
H514 C491 0.950 . S
H515 C493 0.950 . S
C516 C517 1.349 . S
C516 C518 1.327 . S
C516 H541 0.950 . S
C517 C516 1.349 . S
C517 C533 1.349 . S
C518 C516 1.327 . S
C518 C537 1.429 . S
C518 H542 0.950 . S
C519 C536 1.574 . S
C519 C538 1.368 . S
C519 H543 0.949 . S
H520 C524 0.949 . S
C521 C522 1.349 . S
C521 C523 1.327 . S
C521 H544 0.950 . S
C522 C521 1.349 . S
C522 C534 1.349 . S
C523 C521 1.327 . S
C523 C539 1.429 . S
C523 H545 0.950 . S
C524 H520 0.949 . S
C524 C532 1.574 . S
C524 C540 1.368 . S
H525 C533 0.950 . S
H526 C531 0.950 . S
H527 C532 0.949 . S
H528 C534 0.950 . S
H529 C535 0.950 . S
H530 C536 0.949 . S
C531 H526 0.950 . S
C531 C533 1.327 . S
C531 C537 1.429 . S
C532 C524 1.574 . S
C532 H527 0.949 . S
C532 C538 1.368 . S
C533 C517 1.349 . S
C533 H525 0.950 . S
C533 C531 1.327 . S
C534 C522 1.349 . S
C534 H528 0.950 . S
C534 C535 1.327 . S
C535 H529 0.950 . S
C535 C534 1.327 . S
C535 C539 1.429 . S
C536 C519 1.574 . S
C536 H530 0.949 . S
C536 C540 1.368 . S
C537 C518 1.429 . S
C537 C531 1.429 . S
C537 C538 1.523 . S
C538 C519 1.368 . S
C538 C532 1.368 . S
C538 C537 1.523 . S
C539 C523 1.429 . S
C539 C535 1.429 . S
C539 C540 1.523 . S
C540 C524 1.368 . S
C540 C536 1.368 . S
C540 C539 1.523 . S
H541 C516 0.950 . S
H542 C518 0.950 . S
H543 C519 0.949 . S
H544 C521 0.950 . S
H545 C523 0.950 . S
C546 C547 1.349 . S
C546 C548 1.327 . S
C546 H571 0.950 . S
C547 C546 1.349 . S
C547 C563 1.349 . S
C548 C546 1.327 . S
C548 C567 1.429 . S
C548 H572 0.950 . S
C549 C566 1.574 . S
C549 C568 1.368 . S
C549 H573 0.949 . S
H550 C554 0.949 . S
C551 C552 1.349 . S
C551 C553 1.327 . S
C551 H574 0.950 1_556 S
C552 C551 1.349 . S
C552 C564 1.349 . S
C553 C551 1.327 . S
C553 C569 1.429 . S
C553 H575 0.950 . S
C554 H550 0.949 . S
C554 C562 1.574 . S
C554 C570 1.368 . S
H555 C563 0.950 . S
H556 C561 0.950 . S
H557 C562 0.949 . S
H558 C564 0.950 . S
H559 C565 0.950 . S
H560 C566 0.949 . S
C561 H556 0.950 . S
C561 C563 1.327 . S
C561 C567 1.429 . S
C562 C554 1.574 . S
C562 H557 0.949 . S
C562 C568 1.368 . S
C563 C547 1.349 . S
C563 H555 0.950 . S
C563 C561 1.327 . S
C564 C552 1.349 . S
C564 H558 0.950 . S
C564 C565 1.327 . S
C565 H559 0.950 . S
C565 C564 1.327 . S
C565 C569 1.429 . S
C566 C549 1.574 . S
C566 H560 0.949 . S
C566 C570 1.368 . S
C567 C548 1.429 . S
C567 C561 1.429 . S
C567 C568 1.523 . S
C568 C549 1.368 . S
C568 C562 1.368 . S
C568 C567 1.523 . S
C569 C553 1.429 . S
C569 C565 1.429 . S
C569 C570 1.523 . S
C570 C554 1.368 . S
C570 C566 1.368 . S
C570 C569 1.523 . S
H571 C546 0.950 . S
H572 C548 0.950 . S
H573 C549 0.949 . S
H574 C551 0.950 1_554 S
H575 C553 0.950 . S
C576 C577 1.349 . S
C576 C578 1.327 . S
C576 H601 0.950 1_554 S
C577 C576 1.349 . S
C577 C593 1.349 . S
C578 C576 1.327 . S
C578 C597 1.429 . S
C578 H602 0.950 . S
C579 C596 1.574 . S
C579 C598 1.368 . S
C579 H603 0.949 . S
H580 C584 0.949 . S
C581 C582 1.349 . S
C581 C583 1.327 . S
C581 H604 0.950 . S
C582 C581 1.349 . S
C582 C594 1.349 . S
C583 C581 1.327 . S
C583 C599 1.429 . S
C583 H605 0.950 . S
C584 H580 0.949 . S
C584 C592 1.574 . S
C584 C600 1.368 . S
H585 C593 0.950 . S
H586 C591 0.950 . S
H587 C592 0.949 . S
H588 C594 0.950 . S
H589 C595 0.950 . S
H590 C596 0.949 . S
C591 H586 0.950 . S
C591 C593 1.327 . S
C591 C597 1.429 . S
C592 C584 1.574 . S
C592 H587 0.949 . S
C592 C598 1.368 . S
C593 C577 1.349 . S
C593 H585 0.950 . S
C593 C591 1.327 . S
C594 C582 1.349 . S
C594 H588 0.950 . S
C594 C595 1.327 . S
C595 H589 0.950 . S
C595 C594 1.327 . S
C595 C599 1.429 . S
C596 C579 1.574 . S
C596 H590 0.949 . S
C596 C600 1.368 . S
C597 C578 1.429 . S
C597 C591 1.429 . S
C597 C598 1.523 . S
C598 C579 1.368 . S
C598 C592 1.368 . S
C598 C597 1.523 . S
C599 C583 1.429 . S
C599 C595 1.429 . S
C599 C600 1.523 . S
C600 C584 1.368 . S
C600 C596 1.368 . S
C600 C599 1.523 . S
H601 C576 0.950 1_556 S
H602 C578 0.950 . S
H603 C579 0.949 . S
H604 C581 0.950 . S
H605 C583 0.950 . S
C606 C607 1.349 . S
C606 C608 1.327 . S
C606 H631 0.950 . S
C607 C606 1.349 . S
C607 C623 1.349 . S
C608 C606 1.327 . S
C608 C627 1.429 . S
C608 H632 0.950 . S
C609 C626 1.574 . S
C609 C628 1.368 . S
C609 H633 0.949 . S
H610 C614 0.949 . S
C611 C612 1.349 . S
C611 C613 1.327 . S
C611 H634 0.950 . S
C612 C611 1.349 . S
C612 C624 1.349 . S
C613 C611 1.327 . S
C613 C629 1.429 . S
C613 H635 0.950 . S
C614 H610 0.949 . S
C614 C622 1.574 . S
C614 C630 1.368 . S
H615 C623 0.950 . S
H616 C621 0.950 . S
H617 C622 0.949 . S
H618 C624 0.950 . S
H619 C625 0.950 . S
H620 C626 0.949 . S
C621 H616 0.950 . S
C621 C623 1.327 . S
C621 C627 1.429 . S
C622 C614 1.574 . S
C622 H617 0.949 . S
C622 C628 1.368 . S
C623 C607 1.349 . S
C623 H615 0.950 . S
C623 C621 1.327 . S
C624 C612 1.349 . S
C624 H618 0.950 . S
C624 C625 1.327 . S
C625 H619 0.950 . S
C625 C624 1.327 . S
C625 C629 1.429 . S
C626 C609 1.574 . S
C626 H620 0.949 . S
C626 C630 1.368 . S
C627 C608 1.429 . S
C627 C621 1.429 . S
C627 C628 1.523 . S
C628 C609 1.368 . S
C628 C622 1.368 . S
C628 C627 1.523 . S
C629 C613 1.429 . S
C629 C625 1.429 . S
C629 C630 1.523 . S
C630 C614 1.368 . S
C630 C626 1.368 . S
C630 C629 1.523 . S
H631 C606 0.950 . S
H632 C608 0.950 . S
H633 C609 0.949 . S
H634 C611 0.950 . S
H635 C613 0.950 . S
C636 C637 1.349 . S
C636 C638 1.327 . S
C636 H661 0.950 . S
C637 C636 1.349 . S
C637 C653 1.349 . S
C638 C636 1.327 . S
C638 C657 1.429 . S
C638 H662 0.950 . S
C639 C656 1.574 . S
C639 C658 1.368 . S
C639 H663 0.949 . S
H640 C644 0.949 . S
C641 C642 1.349 . S
C641 C643 1.327 . S
C641 H664 0.950 . S
C642 C641 1.349 . S
C642 C654 1.349 . S
C643 C641 1.327 . S
C643 C659 1.429 . S
C643 H665 0.950 . S
C644 H640 0.949 . S
C644 C652 1.574 . S
C644 C660 1.368 . S
H645 C653 0.950 . S
H646 C651 0.950 . S
H647 C652 0.949 . S
H648 C654 0.950 . S
H649 C655 0.950 . S
H650 C656 0.949 . S
C651 H646 0.950 . S
C651 C653 1.327 . S
C651 C657 1.429 . S
C652 C644 1.574 . S
C652 H647 0.949 . S
C652 C658 1.368 . S
C653 C637 1.349 . S
C653 H645 0.950 . S
C653 C651 1.327 . S
C654 C642 1.349 . S
C654 H648 0.950 . S
C654 C655 1.327 . S
C655 H649 0.950 . S
C655 C654 1.327 . S
C655 C659 1.429 . S
C656 C639 1.574 . S
C656 H650 0.949 . S
C656 C660 1.368 . S
C657 C638 1.429 . S
C657 C651 1.429 . S
C657 C658 1.523 . S
C658 C639 1.368 . S
C658 C652 1.368 . S
C658 C657 1.523 . S
C659 C643 1.429 . S
C659 C655 1.429 . S
C659 C660 1.523 . S
C660 C644 1.368 . S
C660 C656 1.368 . S
C660 C659 1.523 . S
H661 C636 0.950 . S
H662 C638 0.950 . S
H663 C639 0.949 . S
H664 C641 0.950 . S
H665 C643 0.950 . S
C666 C667 1.349 . S
C666 C668 1.327 . S
C666 H691 0.969 . S
C667 C666 1.349 . S
C667 C683 1.349 . S
C668 C666 1.327 . S
C668 C687 1.429 . S
C668 H692 0.950 . S
C669 C686 1.574 . S
C669 C688 1.368 . S
C669 H693 0.949 . S
H670 C674 0.949 . S
C671 C672 1.349 . S
C671 C673 1.327 . S
C671 H694 0.950 . S
C672 C671 1.349 . S
C672 C684 1.349 . S
C673 C671 1.327 . S
C673 C689 1.429 . S
C673 H695 0.950 . S
C674 H670 0.949 . S
C674 C682 1.574 . S
C674 C690 1.368 . S
H675 C683 0.950 . S
H676 C681 0.950 . S
H677 C682 0.949 . S
H678 C684 0.950 . S
H679 C685 0.950 . S
H680 C686 0.949 . S
C681 H676 0.950 . S
C681 C683 1.327 . S
C681 C687 1.429 . S
C682 C674 1.574 . S
C682 H677 0.949 . S
C682 C688 1.368 . S
C683 C667 1.349 . S
C683 H675 0.950 . S
C683 C681 1.327 . S
C684 C672 1.349 . S
C684 H678 0.950 . S
C684 C685 1.327 . S
C685 H679 0.950 . S
C685 C684 1.327 . S
C685 C689 1.429 . S
C686 C669 1.574 . S
C686 H680 0.949 . S
C686 C690 1.368 . S
C687 C668 1.429 . S
C687 C681 1.429 . S
C687 C688 1.523 . S
C688 C669 1.368 . S
C688 C682 1.368 . S
C688 C687 1.523 . S
C689 C673 1.429 . S
C689 C685 1.429 . S
C689 C690 1.523 . S
C690 C674 1.368 . S
C690 C686 1.368 . S
C690 C689 1.523 . S
H691 C666 0.969 . S
H692 C668 0.950 . S
H693 C669 0.949 . S
H694 C671 0.950 . S
H695 C673 0.950 . S
C696 C697 1.349 . S
C696 C698 1.327 . S
C696 H721 0.950 . S
C697 C696 1.349 . S
C697 C713 1.349 . S
C698 C696 1.327 . S
C698 C717 1.429 . S
C698 H722 0.950 . S
C699 C716 1.574 . S
C699 C718 1.368 . S
C699 H723 0.949 . S
H700 C704 0.949 . S
C701 C702 1.349 . S
C701 C703 1.327 . S
C701 H724 0.950 . S
C702 C701 1.349 . S
C702 C714 1.349 . S
C703 C701 1.327 . S
C703 C719 1.429 . S
C703 H725 0.950 . S
C704 H700 0.949 . S
C704 C712 1.574 . S
C704 C720 1.368 . S
H705 C713 0.950 . S
H706 C711 0.950 . S
H707 C712 0.949 . S
H708 C714 0.950 . S
H709 C715 0.950 . S
H710 C716 0.949 . S
C711 H706 0.950 . S
C711 C713 1.327 . S
C711 C717 1.429 . S
C712 C704 1.574 . S
C712 H707 0.949 . S
C712 C718 1.368 . S
C713 C697 1.349 . S
C713 H705 0.950 . S
C713 C711 1.327 . S
C714 C702 1.349 . S
C714 H708 0.950 . S
C714 C715 1.327 . S
C715 H709 0.950 . S
C715 C714 1.327 . S
C715 C719 1.429 . S
C716 C699 1.574 . S
C716 H710 0.949 . S
C716 C720 1.368 . S
C717 C698 1.429 . S
C717 C711 1.429 . S
C717 C718 1.523 . S
C718 C699 1.368 . S
C718 C712 1.368 . S
C718 C717 1.523 . S
C719 C703 1.429 . S
C719 C715 1.429 . S
C719 C720 1.523 . S
C720 C704 1.368 . S
C720 C716 1.368 . S
C720 C719 1.523 . S
H721 C696 0.950 . S
H722 C698 0.950 . S
H723 C699 0.949 . S
H724 C701 0.950 . S
H725 C703 0.950 . S
C726 C727 1.349 . S
C726 C728 1.327 . S
C726 H751 0.950 . S
C727 C726 1.349 . S
C727 C743 1.349 . S
C728 C726 1.327 . S
C728 C747 1.429 . S
C728 H752 0.950 . S
C729 C746 1.574 . S
C729 C748 1.368 . S
C729 H753 0.949 . S
H730 C734 0.949 . S
C731 C732 1.349 . S
C731 C733 1.327 . S
C731 H754 0.950 . S
C732 C731 1.349 . S
C732 C744 1.349 . S
C733 C731 1.327 . S
C733 C749 1.429 . S
C733 H755 0.950 . S
C734 H730 0.949 . S
C734 C742 1.574 . S
C734 C750 1.368 . S
H735 C743 0.950 . S
H736 C741 0.950 . S
H737 C742 0.949 . S
H738 C744 0.950 . S
H739 C745 0.950 . S
H740 C746 0.949 . S
C741 H736 0.950 . S
C741 C743 1.327 . S
C741 C747 1.429 . S
C742 C734 1.574 . S
C742 H737 0.949 . S
C742 C748 1.368 . S
C743 C727 1.349 . S
C743 H735 0.950 . S
C743 C741 1.327 . S
C744 C732 1.349 . S
C744 H738 0.950 . S
C744 C745 1.327 . S
C745 H739 0.950 . S
C745 C744 1.327 . S
C745 C749 1.429 . S
C746 C729 1.574 . S
C746 H740 0.949 . S
C746 C750 1.368 . S
C747 C728 1.429 . S
C747 C741 1.429 . S
C747 C748 1.523 . S
C748 C729 1.368 . S
C748 C742 1.368 . S
C748 C747 1.523 . S
C749 C733 1.429 . S
C749 C745 1.429 . S
C749 C750 1.523 . S
C750 C734 1.368 . S
C750 C746 1.368 . S
C750 C749 1.523 . S
H751 C726 0.950 . S
H752 C728 0.950 . S
H753 C729 0.949 . S
H754 C731 0.950 . S
H755 C733 0.950 . S
C756 C757 1.349 . S
C756 C758 1.327 . S
C756 H781 0.942 1_556 S
C757 C756 1.349 . S
C757 C773 1.349 . S
C758 C756 1.327 . S
C758 C777 1.429 . S
C758 H782 0.950 1_556 S
C759 C776 1.574 . S
C759 C778 1.368 . S
C759 H783 0.949 . S
H760 C764 0.949 . S
C761 C762 1.349 . S
C761 C763 1.327 . S
C761 H784 0.942 1_554 S
C762 C761 1.349 . S
C762 C774 1.349 . S
C763 C761 1.327 . S
C763 C779 1.429 . S
C763 H785 0.950 1_554 S
C764 H760 0.949 . S
C764 C772 1.574 . S
C764 C780 1.368 . S
H765 C773 0.950 . S
H766 C771 0.950 . S
H767 C772 0.949 . S
H768 C774 0.950 . S
H769 C775 0.950 . S
H770 C776 0.949 . S
C771 H766 0.950 . S
C771 C773 1.327 . S
C771 C777 1.429 . S
C772 C764 1.574 . S
C772 H767 0.949 . S
C772 C778 1.368 1_554 S
C773 C757 1.349 . S
C773 H765 0.950 . S
C773 C771 1.327 . S
C774 C762 1.349 . S
C774 H768 0.950 . S
C774 C775 1.327 . S
C775 H769 0.950 . S
C775 C774 1.327 . S
C775 C779 1.429 . S
C776 C759 1.574 . S
C776 H770 0.949 . S
C776 C780 1.368 1_556 S
C777 C758 1.429 . S
C777 C771 1.429 . S
C777 C778 1.523 . S
C778 C759 1.368 . S
C778 C772 1.368 1_556 S
C778 C777 1.523 . S
C779 C763 1.429 . S
C779 C775 1.429 . S
C779 C780 1.523 . S
C780 C764 1.368 . S
C780 C776 1.368 1_554 S
C780 C779 1.523 . S
H781 C756 0.942 1_554 S
H782 C758 0.950 1_554 S
H783 C759 0.949 . S
H784 C761 0.942 1_556 S
H785 C763 0.950 1_556 S
C786 C787 1.349 . S
C786 C788 1.327 . S
C786 H811 0.950 . S
C787 C786 1.349 . S
C787 C803 1.349 . S
C788 C786 1.327 . S
C788 C807 1.429 . S
C788 H812 0.950 . S
C789 C806 1.574 . S
C789 C808 1.368 . S
C789 H813 0.949 . S
H790 C794 0.949 . S
C791 C792 1.349 . S
C791 C793 1.327 . S
C791 H814 0.950 . S
C792 C791 1.349 . S
C792 C804 1.349 . S
C793 C791 1.327 . S
C793 C809 1.429 . S
C793 H815 0.950 . S
C794 H790 0.949 . S
C794 C802 1.574 . S
C794 C810 1.368 . S
H795 C803 0.950 . S
H796 C801 0.950 . S
H797 C802 0.949 . S
H798 C804 0.950 . S
H799 C805 0.950 . S
H800 C806 0.949 . S
C801 H796 0.950 . S
C801 C803 1.327 . S
C801 C807 1.429 . S
C802 C794 1.574 . S
C802 H797 0.949 . S
C802 C808 1.368 . S
C803 C787 1.349 . S
C803 H795 0.950 . S
C803 C801 1.327 . S
C804 C792 1.349 . S
C804 H798 0.950 . S
C804 C805 1.327 . S
C805 H799 0.950 . S
C805 C804 1.327 . S
C805 C809 1.429 . S
C806 C789 1.574 . S
C806 H800 0.949 . S
C806 C810 1.368 . S
C807 C788 1.429 . S
C807 C801 1.429 . S
C807 C808 1.523 . S
C808 C789 1.368 . S
C808 C802 1.368 . S
C808 C807 1.523 . S
C809 C793 1.429 . S
C809 C805 1.429 . S
C809 C810 1.523 . S
C810 C794 1.368 . S
C810 C806 1.368 . S
C810 C809 1.523 . S
H811 C786 0.950 . S
H812 C788 0.950 . S
H813 C789 0.949 . S
H814 C791 0.950 . S
H815 C793 0.950 . S
C816 C817 1.349 . S
C816 C818 1.327 . S
C816 H841 0.950 . S
C817 C816 1.349 . S
C817 C833 1.349 . S
C818 C816 1.327 . S
C818 C837 1.429 . S
C818 H842 0.950 . S
C819 C836 1.574 . S
C819 C838 1.368 . S
C819 H843 0.949 . S
H820 C824 0.949 . S
C821 C822 1.349 . S
C821 C823 1.327 . S
C821 H844 0.950 . S
C822 C821 1.349 . S
C822 C834 1.349 . S
C823 C821 1.327 . S
C823 C839 1.429 . S
C823 H845 0.950 . S
C824 H820 0.949 . S
C824 C832 1.574 . S
C824 C840 1.368 . S
H825 C833 0.950 . S
H826 C831 0.950 . S
H827 C832 0.949 . S
H828 C834 0.950 . S
H829 C835 0.950 . S
H830 C836 0.949 . S
C831 H826 0.950 . S
C831 C833 1.327 . S
C831 C837 1.429 . S
C832 C824 1.574 . S
C832 H827 0.949 . S
C832 C838 1.368 . S
C833 C817 1.349 . S
C833 H825 0.950 . S
C833 C831 1.327 . S
C834 C822 1.349 . S
C834 H828 0.950 . S
C834 C835 1.327 . S
C835 H829 0.950 . S
C835 C834 1.327 . S
C835 C839 1.429 . S
C836 C819 1.574 . S
C836 H830 0.949 . S
C836 C840 1.368 . S
C837 C818 1.429 . S
C837 C831 1.429 . S
C837 C838 1.523 . S
C838 C819 1.368 . S
C838 C832 1.368 . S
C838 C837 1.523 . S
C839 C823 1.429 . S
C839 C835 1.429 . S
C839 C840 1.523 . S
C840 C824 1.368 . S
C840 C836 1.368 . S
C840 C839 1.523 . S
H841 C816 0.950 . S
H842 C818 0.950 . S
H843 C819 0.949 . S
H844 C821 0.950 . S
H845 C823 0.950 . S
C846 C847 1.349 . S
C846 C848 1.327 . S
C846 H871 0.942 1_554 S
C847 C846 1.349 . S
C847 C863 1.349 . S
C848 C846 1.327 . S
C848 C867 1.429 . S
C848 H872 0.950 1_554 S
C849 C866 1.574 . S
C849 C868 1.368 . S
C849 H873 0.949 . S
H850 C854 0.949 . S
C851 C852 1.349 . S
C851 C853 1.327 . S
C851 H874 0.942 1_556 S
C852 C851 1.349 . S
C852 C864 1.349 . S
C853 C851 1.327 . S
C853 C869 1.429 . S
C853 H875 0.950 1_556 S
C854 H850 0.949 . S
C854 C862 1.574 . S
C854 C870 1.368 . S
H855 C863 0.950 . S
H856 C861 0.950 . S
H857 C862 0.949 . S
H858 C864 0.950 . S
H859 C865 0.950 . S
H860 C866 0.949 . S
C861 H856 0.950 . S
C861 C863 1.327 . S
C861 C867 1.429 . S
C862 C854 1.574 . S
C862 H857 0.949 . S
C862 C868 1.368 1_556 S
C863 C847 1.349 . S
C863 H855 0.950 . S
C863 C861 1.327 . S
C864 C852 1.349 . S
C864 H858 0.950 . S
C864 C865 1.327 . S
C865 H859 0.950 . S
C865 C864 1.327 . S
C865 C869 1.429 . S
C866 C849 1.574 . S
C866 H860 0.949 . S
C866 C870 1.368 1_554 S
C867 C848 1.429 . S
C867 C861 1.429 . S
C867 C868 1.523 . S
C868 C849 1.368 . S
C868 C862 1.368 1_554 S
C868 C867 1.523 . S
C869 C853 1.429 . S
C869 C865 1.429 . S
C869 C870 1.523 . S
C870 C854 1.368 . S
C870 C866 1.368 1_556 S
C870 C869 1.523 . S
H871 C846 0.942 1_556 S
H872 C848 0.950 1_556 S
H873 C849 0.949 . S
H874 C851 0.942 1_554 S
H875 C853 0.950 1_554 S
C157 C5 1.248 . S
C162 C122 1.248 . S
C187 C18 1.248 . S
C192 C135 1.248 . S
C217 C31 1.248 . S
C222 C148 1.248 . S
C247 C44 1.248 . S
C252 C83 1.248 . S
C277 C96 1.248 . S
C282 C57 1.248 . S
C307 C109 1.248 . S
C312 C70 1.248 . S
C337 C130 1.673 . S
C342 C0 1.673 . S
C367 C13 1.673 . S
C372 C143 1.673 . S
C397 C26 1.673 . S
C402 C78 1.673 . S
C427 C39 1.673 . S
C432 C91 1.673 . S
C457 C52 1.673 . S
C462 C104 1.673 . S
C487 C65 1.673 . S
C492 C117 1.673 . S
C517 C138 0.727 . S
C522 C8 0.727 . S
C547 C21 0.727 . S
C552 C151 0.727 . S
C577 C34 0.727 . S
C582 C86 0.727 . S
C607 C47 0.727 . S
C612 C99 0.727 . S
C637 C60 0.727 . S
C642 C112 0.727 . S
C667 C73 0.727 . S
C672 C125 0.727 . S
C697 C10 1.576 . S
C702 C88 1.576 . S
C727 C101 1.576 . S
C732 C23 1.576 . S
C757 C36 1.575 . S
C762 C114 1.575 . S
C787 C49 1.576 . S
C792 C127 1.576 . S
C817 C62 1.575 . S
C822 C140 1.575 . S
C847 C153 1.576 . S
C852 C75 1.576 . S
