# Generated by pormake.
# Topology snk, (6)-cn, num edge types: 1
# Building blocks:
#     Node 0, Type 0, BuildingBlock: KUMBUR_clean_sbu_1, # of connection points: 6
#     Node 1, Type 0, BuildingBlock: KUMBUR_clean_sbu_1, # of connection points: 6
#     Node 2, Type 0, BuildingBlock: KUMBUR_clean_sbu_1, # of connection points: 6
#     Node 3, Type 0, BuildingBlock: KUMBUR_clean_sbu_1, # of connection points: 6
#     Node 4, Type 0, BuildingBlock: KUMBUR_clean_sbu_1, # of connection points: 6
#     Node 5, Type 0, BuildingBlock: KUMBUR_clean_sbu_1, # of connection points: 6
#     Node 6, Type 0, BuildingBlock: KUMBUR_clean_sbu_1, # of connection points: 6
#     Node 7, Type 0, BuildingBlock: KUMBUR_clean_sbu_1, # of connection points: 6
#     Edge 8, Type (0, 0), BuildingBlock: OJICUG_clean_linker_0, # of connection points: 2
#     Edge 9, Type (0, 0), BuildingBlock: OJICUG_clean_linker_0, # of connection points: 2
#     Edge 10, Type (0, 0), BuildingBlock: OJICUG_clean_linker_0, # of connection points: 2
#     Edge 11, Type (0, 0), BuildingBlock: OJICUG_clean_linker_0, # of connection points: 2
#     Edge 12, Type (0, 0), BuildingBlock: OJICUG_clean_linker_0, # of connection points: 2
#     Edge 13, Type (0, 0), BuildingBlock: OJICUG_clean_linker_0, # of connection points: 2
#     Edge 14, Type (0, 0), BuildingBlock: OJICUG_clean_linker_0, # of connection points: 2
#     Edge 15, Type (0, 0), BuildingBlock: OJICUG_clean_linker_0, # of connection points: 2
#     Edge 16, Type (0, 0), BuildingBlock: OJICUG_clean_linker_0, # of connection points: 2
#     Edge 17, Type (0, 0), BuildingBlock: OJICUG_clean_linker_0, # of connection points: 2
#     Edge 18, Type (0, 0), BuildingBlock: OJICUG_clean_linker_0, # of connection points: 2
#     Edge 19, Type (0, 0), BuildingBlock: OJICUG_clean_linker_0, # of connection points: 2
#     Edge 20, Type (0, 0), BuildingBlock: OJICUG_clean_linker_0, # of connection points: 2
#     Edge 21, Type (0, 0), BuildingBlock: OJICUG_clean_linker_0, # of connection points: 2
#     Edge 22, Type (0, 0), BuildingBlock: OJICUG_clean_linker_0, # of connection points: 2
#     Edge 23, Type (0, 0), BuildingBlock: OJICUG_clean_linker_0, # of connection points: 2
#     Edge 24, Type (0, 0), BuildingBlock: OJICUG_clean_linker_0, # of connection points: 2
#     Edge 25, Type (0, 0), BuildingBlock: OJICUG_clean_linker_0, # of connection points: 2
#     Edge 26, Type (0, 0), BuildingBlock: OJICUG_clean_linker_0, # of connection points: 2
#     Edge 27, Type (0, 0), BuildingBlock: OJICUG_clean_linker_0, # of connection points: 2
#     Edge 28, Type (0, 0), BuildingBlock: OJICUG_clean_linker_0, # of connection points: 2
#     Edge 29, Type (0, 0), BuildingBlock: OJICUG_clean_linker_0, # of connection points: 2
#     Edge 30, Type (0, 0), BuildingBlock: OJICUG_clean_linker_0, # of connection points: 2
#     Edge 31, Type (0, 0), BuildingBlock: OJICUG_clean_linker_0, # of connection points: 2
# Relax obj value: 0.014
# Max RMSD: 0.091
# Mean RMSD: 0.088
data_MOF--net-snk--node1-KUMBUR_clean_sbu_1--edge1-OJICUG_clean_linker_0
_symmetry_space_group_name_H-M    P1
_symmetry_Int_Tables_number       1
_symmetry_cell_setting            triclinic
loop_
_symmetry_equiv_pos_as_xyz
'x, y, z'
_cell_length_a     26.920783
_cell_length_b     26.856496
_cell_length_c     20.258062
_cell_angle_alpha  90.046629
_cell_angle_beta   90.115183
_cell_angle_gamma 90.066712
loop_
_atom_site_label
_atom_site_type_symbol
_atom_site_fract_x
_atom_site_fract_y
_atom_site_fract_z
_atom_type_partial_charge
Tb0 Tb 0.99738 0.04706 0.60593 0.0
C1 C 0.99999 0.85797 0.40895 0.0
N2 N 0.03754 0.88748 0.43094 0.0
C3 C 0.09622 0.82206 0.41123 0.0
C4 C 0.00923 0.80922 0.38635 0.0
C5 C 0.08501 0.86963 0.435 0.0
C6 C 0.05827 0.79194 0.38602 0.0
C7 C 0.91198 0.84713 0.38749 0.0
C8 C 0.95223 0.87719 0.40773 0.0
C9 C 0.92086 0.79824 0.3658 0.0
C10 C 0.96947 0.77961 0.36426 0.0
Tb11 Tb 0.01703 0.96902 0.44515 0.0
N12 N 0.94531 0.92528 0.42666 0.0
C13 C 0.86412 0.86734 0.38886 0.0
C14 C 0.89879 0.94554 0.42625 0.0
C15 C 0.85753 0.91671 0.40857 0.0
H16 H 0.11492 0.8933 0.4519 0.0
H17 H 0.82071 0.93286 0.40922 0.0
H18 H 0.89863 0.12164 0.60169 0.0
H19 H 0.19363 0.08531 0.6388 0.0
H20 H 0.8929 0.98364 0.43974 0.0
H21 H 0.83215 0.84535 0.37423 0.0
H22 H 0.12162 0.03376 0.60978 0.0
H23 H 0.13416 0.80878 0.41185 0.0
H24 H 0.89046 0.77471 0.34956 0.0
H25 H 0.97584 0.74199 0.34688 0.0
H26 H 0.87891 0.20609 0.64175 0.0
H27 H 0.06708 0.75506 0.36774 0.0
H28 H 0.18168 0.17278 0.67366 0.0
N29 N 0.97613 0.12832 0.62128 0.0
C30 C 0.0136 0.15829 0.64238 0.0
C31 C 0.91699 0.19319 0.64177 0.0
C32 C 1.00409 0.20699 0.66495 0.0
C33 C 0.92844 0.14566 0.61804 0.0
C34 C 0.95488 0.22375 0.6662 0.0
N35 N 0.06878 0.09157 0.62366 0.0
C36 C 0.11551 0.0718 0.62328 0.0
C37 C 0.10172 0.17012 0.66202 0.0
C38 C 0.06157 0.1396 0.64269 0.0
C39 C 0.14978 0.15042 0.65976 0.0
C40 C 0.15666 0.10108 0.6401 0.0
H41 H 0.94588 0.26058 0.68446 0.0
H42 H 0.03722 0.27469 0.70346 0.0
H43 H 0.1229 0.24287 0.69918 0.0
O44 O 0.01621 0.02136 0.70099 0.0
O45 O 0.03481 0.08887 0.52429 0.0
O46 O 0.07356 0.02325 0.4762 0.0
O47 O 0.94664 0.05864 0.68251 0.0
O48 O 0.04086 0.9772 0.61382 0.0
O49 O 0.07948 0.96557 0.51376 0.0
O50 O 0.99934 0.99444 0.34965 0.0
O51 O 0.97869 0.92799 0.52691 0.0
O52 O 0.93983 0.99376 0.57509 0.0
O53 O 0.06833 0.95643 0.36956 0.0
O54 O 0.97378 0.03865 0.43618 0.0
O55 O 0.93544 0.05155 0.53629 0.0
C56 C 0.06643 0.07147 0.48012 0.0
C57 C 0.98183 0.06863 0.78841 0.0
C58 C 0.99522 0.06544 0.90711 0.0
C59 C 0.98041 0.11568 0.91173 0.0
C60 C 0.96645 0.11837 0.79414 0.0
C61 C 0.96698 0.14209 0.85528 0.0
C62 C 0.99776 0.04309 0.84449 0.0
C63 C 0.07503 0.95588 0.57688 0.0
C64 C 0.97618 0.04034 0.72685 0.0
C65 C 0.04379 0.23709 0.68613 0.0
C66 C 0.09257 0.21897 0.68368 0.0
C67 C 0.94622 0.94547 0.57005 0.0
C68 C 0.03383 0.9462 0.26344 0.0
C69 C 0.02051 0.94909 0.14496 0.0
C70 C 0.03555 0.89894 0.14033 0.0
C71 C 0.04958 0.89654 0.25791 0.0
C72 C 0.01772 0.9715 0.20736 0.0
C73 C 0.04917 0.87268 0.19684 0.0
C74 C 0.94038 0.06108 0.4731 0.0
C75 C 0.03935 0.9748 0.32464 0.0
H76 H 0.97701 0.13421 0.95895 0.0
H77 H 0.95237 0.13849 0.75228 0.0
H78 H 0.95476 0.18036 0.85935 0.0
H79 H 0.01011 1.00493 0.83915 0.0
H80 H 0.03894 0.88045 0.09306 0.0
H81 H 0.06382 0.87663 0.29987 0.0
H82 H 1.00515 0.00963 0.21237 0.0
H83 H 0.06163 0.83448 0.19287 0.0
Tb84 Tb 0.20786 0.7584 0.85497 0.0
C85 C 0.39628 0.6849 0.72777 0.0
N86 N 0.38394 0.73391 0.72934 0.0
C87 C 0.46517 0.75423 0.77048 0.0
C88 C 0.44326 0.66835 0.74941 0.0
C89 C 0.41808 0.76874 0.74834 0.0
C90 C 0.47773 0.70375 0.77156 0.0
C91 C 0.37225 0.60026 0.70254 0.0
C92 C 0.36075 0.65137 0.70639 0.0
C93 C 0.41812 0.58315 0.72666 0.0
C94 C 0.45372 0.61713 0.7497 0.0
Tb95 Tb 0.3037 0.75333 0.70173 0.0
N96 N 0.31599 0.6692 0.68597 0.0
C97 C 0.33816 0.56828 0.67216 0.0
C98 C 0.2858 0.63917 0.6488 0.0
C99 C 0.29556 0.58817 0.64307 0.0
H100 H 0.40868 0.80758 0.74712 0.0
H101 H 0.27047 0.56438 0.61555 0.0
H102 H 0.12696 0.66521 0.83455 0.0
H103 H 0.18089 0.95745 0.87658 0.0
H104 H 0.25437 0.65416 0.62235 0.0
H105 H 0.34572 0.5288 0.66763 0.0
H106 H 0.22805 0.87937 0.88398 0.0
H107 H 0.49177 0.78197 0.78661 0.0
H108 H 0.42682 0.54382 0.7261 0.0
H109 H 0.48931 0.6035 0.767 0.0
H110 H 0.04099 0.65639 0.7935 0.0
H111 H 0.51417 0.69259 0.78885 0.0
H112 H 0.09283 0.95612 0.8414 0.0
N113 N 0.12541 0.74449 0.83387 0.0
C114 C 0.09675 0.78583 0.82723 0.0
C115 C 0.05642 0.69307 0.80216 0.0
C116 C 0.04768 0.78261 0.80329 0.0
C117 C 0.10518 0.69824 0.82519 0.0
C118 C 0.02807 0.7355 0.78916 0.0
N119 N 0.16753 0.83355 0.85424 0.0
C120 C 0.18977 0.87785 0.8691 0.0
C121 C 0.09014 0.87583 0.83234 0.0
C122 C 0.11809 0.83187 0.83992 0.0
C123 C 0.11308 0.92146 0.84601 0.0
C124 C 0.16292 0.92237 0.86535 0.0
H125 H 0.99065 0.73143 0.77007 0.0
H126 H 0.98264 0.8248 0.77403 0.0
H127 H 0.01922 0.90631 0.80161 0.0
O128 O 0.22985 0.77525 0.95453 0.0
O129 O 0.18601 0.79274 0.76016 0.0
O130 O 0.25583 0.81951 0.70449 0.0
O131 O 0.16741 0.72662 0.93204 0.0
O132 O 0.2761 0.8041 0.86384 0.0
O133 O 0.3121 0.82187 0.76106 0.0
O134 O 0.28998 0.74719 0.59885 0.0
O135 O 0.32792 0.73044 0.80205 0.0
O136 O 0.25865 0.69529 0.84772 0.0
O137 O 0.35353 0.78847 0.63575 0.0
O138 O 0.22828 0.72088 0.69316 0.0
O139 O 0.21107 0.68961 0.79632 0.0
C140 C 0.20774 0.8209 0.71551 0.0
C141 C 0.1814 0.74097 0.04854 0.0
C142 C 0.20207 0.7428 0.16702 0.0
C143 C 0.15346 0.72666 0.18095 0.0
C144 C 0.13334 0.72462 0.06476 0.0
C145 C 0.11958 0.71771 0.1303 0.0
C146 C 0.21578 0.7505 0.10011 0.0
C147 C 0.30668 0.82986 0.82542 0.0
C148 C 0.19383 0.74794 0.97763 0.0
C149 C 0.02028 0.82646 0.79295 0.0
C150 C 0.04109 0.87289 0.8088 0.0
C151 C 0.30705 0.69954 0.84414 0.0
C152 C 0.34412 0.78491 0.51542 0.0
C153 C 0.32842 0.78499 0.39541 0.0
C154 C 0.37555 0.80665 0.38621 0.0
C155 C 0.3906 0.80695 0.50406 0.0
C156 C 0.31303 0.77393 0.46076 0.0
C157 C 0.40611 0.81759 0.44 0.0
C158 C 0.20501 0.68907 0.73184 0.0
C159 C 0.32908 0.77319 0.58427 0.0
H160 H 0.14122 0.72162 0.23141 0.0
H161 H 0.10597 0.71749 0.0266 0.0
H162 H 0.08228 0.70549 0.14196 0.0
H163 H 0.25299 0.76292 0.08823 0.0
H164 H 0.38935 0.81457 0.33715 0.0
H165 H 0.41529 0.81564 0.54475 0.0
H166 H 0.27681 0.75753 0.46922 0.0
H167 H 0.44226 0.8342 0.43195 0.0
Tb168 Tb 0.50581 0.96404 0.10062 0.0
C169 C 0.58205 0.15148 0.9733 0.0
N170 N 0.53316 0.13953 0.97747 0.0
C171 C 0.51547 0.21919 0.02535 0.0
C172 C 0.60002 0.1974 0.99719 0.0
C173 C 0.49946 0.17349 0.99973 0.0
C174 C 0.56612 0.2309 0.02509 0.0
C175 C 0.66522 0.12711 0.94226 0.0
C176 C 0.61412 0.11637 0.94757 0.0
C177 C 0.68368 0.17242 0.96704 0.0
C178 C 0.65116 0.20753 0.99444 0.0
Tb179 Tb 0.5114 0.06103 0.94519 0.0
N180 N 0.59492 0.07238 0.92595 0.0
C181 C 0.69596 0.09242 0.91105 0.0
C182 C 0.62401 0.04087 0.8897 0.0
C183 C 0.67503 0.04963 0.88333 0.0
H184 H 0.46051 0.16469 0.99932 0.0
H185 H 0.69803 0.02374 0.85615 0.0
H186 H 0.60995 0.89537 0.09769 0.0
H187 H 0.32422 0.88817 0.15048 0.0
H188 H 0.60812 0.00945 0.86407 0.0
H189 H 0.73543 0.09925 0.9058 0.0
H190 H 0.39225 0.95049 0.15793 0.0
H191 H 0.4888 0.2454 0.04504 0.0
H192 H 0.72299 0.18073 0.96492 0.0
H193 H 0.66589 0.24232 1.01331 0.0
H194 H 0.63561 0.81486 0.04852 0.0
H195 H 0.5785 0.26617 0.04533 0.0
H196 H 0.33618 0.81099 0.08469 0.0
N197 N 0.53364 0.88565 0.0733 0.0
C198 C 0.49847 0.85301 0.05315 0.0
C199 C 0.59684 0.8255 0.0485 0.0
C200 C 0.51081 0.80668 0.02523 0.0
C201 C 0.58218 0.87093 0.07653 0.0
C202 C 0.56111 0.79405 1.02031 0.0
N203 N 0.44183 0.90791 0.09923 0.0
C204 C 0.3979 0.91615 0.13104 0.0
C205 C 0.41247 0.8285 0.05995 0.0
C206 C 0.45034 0.86394 0.06882 0.0
C207 C 0.36621 0.83766 0.08915 0.0
C208 C 0.3594 0.88106 0.12659 0.0
H209 H 0.57242 0.75872 0.99939 0.0
H210 H 0.48093 0.73803 0.98481 0.0
H211 H 0.39428 0.75712 1.01578 0.0
O212 O 0.48312 0.99232 0.19242 0.0
O213 O 0.44293 0.96475 0.02881 0.0
O214 O 0.47796 0.98728 0.92935 0.0
O215 O 0.53367 0.93169 0.18892 0.0
O216 O 0.46449 0.0342 0.10868 0.0
O217 O 0.44386 0.06926 1.00632 0.0
O218 O 0.52507 0.08063 0.84576 0.0
O219 O 0.5349 0.08207 0.04675 0.0
O220 O 0.57114 0.01231 0.0901 0.0
O221 O 0.45365 0.09255 0.88867 0.0
O222 O 0.53913 0.98517 0.93209 0.0
O223 O 0.57106 0.96637 0.03417 0.0
C224 C 0.44314 0.96453 0.96349 0.0
C225 C 0.53854 0.98744 0.28121 0.0
C226 C 0.54151 0.01971 0.39514 0.0
C227 C 0.58702 0.04291 0.38013 0.0
C228 C 0.58428 0.01027 0.26849 0.0
C229 C 0.60815 0.03806 0.31748 0.0
C230 C 0.51732 0.99208 0.34476 0.0
C231 C 0.43667 0.06298 0.07066 0.0
C232 C 0.51051 0.96279 0.2272 0.0
C233 C 0.47248 0.77352 1.00758 0.0
C234 C 0.42314 0.78435 0.02534 0.0
C235 C 0.56926 0.06095 0.08374 0.0
C236 C 0.45568 0.06406 0.77676 0.0
C237 C 0.4579 0.03448 0.66124 0.0
C238 C 0.41225 0.01023 0.67201 0.0
C239 C 0.41021 0.03903 0.78511 0.0
C240 C 0.47932 0.06187 0.71418 0.0
C241 C 0.38883 0.01252 0.73319 0.0
C242 C 0.56903 0.95912 0.9699 0.0
C243 C 0.47884 0.09074 0.83385 0.0
H244 H 0.60693 0.06406 0.41726 0.0
H245 H 0.60118 1.00688 0.22041 0.0
H246 H 0.64331 0.05592 0.30688 0.0
H247 H 0.48153 0.97508 0.35441 0.0
H248 H 0.39407 0.98978 0.63269 0.0
H249 H 0.39112 0.0394 0.83211 0.0
H250 H 0.51463 0.08053 0.70725 0.0
H251 H 0.35383 0.99343 0.7405 0.0
Tb252 Tb 0.21854 0.27775 0.20075 0.0
C253 C 0.41107 0.25842 0.39789 0.0
N254 N 0.38032 0.22223 0.37506 0.0
C255 C 0.44553 0.16185 0.38574 0.0
C256 C 0.46013 0.24741 0.41741 0.0
C257 C 0.39707 0.17456 0.36734 0.0
C258 C 0.47691 0.19825 0.41206 0.0
C259 C 0.4241 0.3454 0.4247 0.0
C260 C 0.39292 0.30653 0.40291 0.0
C261 C 0.47305 0.33464 0.44398 0.0
C262 C 0.49078 0.28567 0.44143 0.0
Tb263 Tb 0.29939 0.24524 0.36238 0.0
N264 N 0.3449 0.31522 0.38544 0.0
C265 C 0.40511 0.39384 0.42668 0.0
C266 C 0.32591 0.36233 0.38852 0.0
C267 C 0.35584 0.40232 0.40822 0.0
H268 H 0.37199 0.14562 0.35166 0.0
H269 H 0.34072 0.43963 0.40975 0.0
H270 H 0.14838 0.37997 0.2073 0.0
H271 H 0.17776 0.08671 0.14112 0.0
H272 H 0.28808 0.36966 0.37493 0.0
H273 H 0.42803 0.42482 0.4426 0.0
H274 H 0.22745 0.15395 0.18924 0.0
H275 H 0.45822 0.12377 0.38119 0.0
H276 H 0.49769 0.36394 0.46013 0.0
H277 H 0.52868 0.27802 0.45645 0.0
H278 H 0.06426 0.404 0.17037 0.0
H279 H 0.51421 0.18823 0.42719 0.0
H280 H 0.0958 0.10503 0.09483 0.0
N281 N 0.13938 0.30365 0.18121 0.0
C282 C 0.10915 0.26856 0.15466 0.0
C283 C 0.07646 0.36583 0.16552 0.0
C284 C 0.06184 0.28117 0.12992 0.0
C285 C 0.12372 0.35185 0.18749 0.0
C286 C 0.04571 0.33053 0.13548 0.0
N287 N 0.17265 0.20974 0.17372 0.0
C288 C 0.19112 0.16249 0.17093 0.0
C289 C 0.09681 0.18281 0.12166 0.0
C290 C 0.12645 0.22011 0.15039 0.0
C291 C 0.11602 0.13451 0.11813 0.0
C292 C 0.1629 0.1241 0.14371 0.0
H293 H 0.00952 0.34165 0.11722 0.0
H294 H 0.99579 0.25312 0.08116 0.0
H295 H 0.02568 0.16733 0.07522 0.0
O296 O 0.2489 0.26469 0.10642 0.0
O297 O 0.17715 0.23479 0.27773 0.0
O298 O 0.24329 0.19427 0.32199 0.0
O299 O 0.21214 0.33367 0.12861 0.0
O300 O 0.28558 0.23159 0.18843 0.0
O301 O 0.30264 0.18814 0.28475 0.0
O302 O 0.27064 0.25709 0.45784 0.0
O303 O 0.33943 0.28679 0.28361 0.0
O304 O 0.27242 0.32831 0.24529 0.0
O305 O 0.31176 0.19075 0.43501 0.0
O306 O 0.2332 0.29233 0.37723 0.0
O307 O 0.20963 0.33222 0.27983 0.0
C308 C 0.19529 0.20275 0.32111 0.0
C309 C 0.20522 0.30336 1.01866 0.0
C310 C 0.20721 0.28609 0.90009 0.0
C311 C 0.15668 0.299 0.89589 0.0
C312 C 0.15549 0.31839 1.01226 0.0
C313 C 0.13113 0.31512 0.95167 0.0
C314 C 0.23088 0.28718 0.96227 0.0
C315 C 0.30811 0.19543 0.22059 0.0
C316 C 0.2317 0.30631 0.08262 0.0
C317 C 0.03235 0.24428 0.10031 0.0
C318 C 0.04965 0.19521 0.09657 0.0
C319 C 0.32024 0.32024 0.2434 0.0
C320 C 0.31874 0.22226 0.54415 0.0
C321 C 0.31746 0.23962 0.66254 0.0
C322 C 0.36886 0.2307 0.66542 0.0
C323 C 0.36984 0.21214 0.54863 0.0
C324 C 0.29277 0.23588 0.60138 0.0
C325 C 0.39479 0.21705 0.60869 0.0
C326 C 0.20596 0.32464 0.34406 0.0
C327 C 0.29126 0.21698 0.48135 0.0
H328 H 0.13694 0.29717 0.8493 0.0
H329 H 0.13541 0.33342 0.05351 0.0
H330 H 0.09254 0.32601 0.9477 0.0
H331 H 0.26974 0.27718 0.96667 0.0
H332 H 0.38899 0.23418 0.71155 0.0
H333 H 0.39052 0.19968 0.50629 0.0
H334 H 0.25303 0.24218 0.59852 0.0
H335 H 0.43425 0.20962 0.61143 0.0
Tb336 Tb 0.71147 0.25748 0.34533 0.0
C337 C 0.91769 0.2273 0.21574 0.0
N338 N 0.89052 0.26994 0.21642 0.0
C339 C 0.96194 0.316 0.25265 0.0
C340 C 0.96779 0.22707 0.23605 0.0
C341 C 0.91245 0.3144 0.23159 0.0
C342 C 0.98944 0.27201 0.25617 0.0
C343 C 0.92047 0.13792 0.19888 0.0
C344 C 0.8939 0.1831 0.19936 0.0
C345 C 0.97072 0.13759 0.21786 0.0
C346 C 0.99407 0.18191 0.23748 0.0
Tb347 Tb 0.80786 0.26115 0.1932 0.0
N348 N 0.84419 0.1843 0.18669 0.0
C349 C 0.89548 0.0944 0.18024 0.0
C350 C 0.82039 0.14252 0.16498 0.0
C351 C 0.84541 0.09689 0.16224 0.0
H352 H 0.89172 0.3487 0.2282 0.0
H353 H 0.82611 0.06373 0.14581 0.0
H354 H 0.62513 0.17187 0.31539 0.0
H355 H 0.6996 0.4568 0.38291 0.0
H356 H 0.78266 0.14422 0.14785 0.0
H357 H 0.91461 0.05894 0.17871 0.0
H358 H 0.73953 0.3747 0.38885 0.0
H359 H 0.9788 0.35115 0.26629 0.0
H360 H 0.99167 0.10319 0.2184 0.0
H361 H 0.03257 0.18094 0.25318 0.0
H362 H 0.53743 0.17087 0.27952 0.0
H363 H 0.02762 0.27331 0.27316 0.0
H364 H 0.61226 0.46377 0.34596 0.0
N365 N 0.62835 0.25077 0.32429 0.0
C366 C 0.60254 0.29423 0.3228 0.0
C367 C 0.55539 0.20587 0.29123 0.0
C368 C 0.55239 0.29542 0.30284 0.0
C369 C 0.6051 0.2066 0.3114 0.0
C370 C 0.52917 0.25056 0.28574 0.0
N371 N 0.67738 0.33556 0.34989 0.0
C372 C 0.70233 0.37714 0.36997 0.0
C373 C 0.60298 0.38419 0.33341 0.0
C374 C 0.62782 0.33809 0.33652 0.0
C375 C 0.62969 0.42748 0.34843 0.0
C376 C 0.67923 0.42377 0.36841 0.0
H377 H 0.49082 0.24991 0.26939 0.0
H378 H 0.48907 0.34306 0.28335 0.0
H379 H 0.5331 0.42068 0.31125 0.0
O380 O 0.7279 0.27293 0.44663 0.0
O381 O 0.68692 0.28865 0.24915 0.0
O382 O 0.75588 0.32352 0.20082 0.0
O383 O 0.67148 0.21902 0.41794 0.0
O384 O 0.78284 0.29726 0.35798 0.0
O385 O 0.80396 0.32833 0.25515 0.0
O386 O 0.7915 0.24631 0.09164 0.0
O387 O 0.83203 0.22758 0.28815 0.0
O388 O 0.76256 0.19445 0.33757 0.0
O389 O 0.84854 0.29936 0.12113 0.0
O390 O 0.73739 0.21958 0.18016 0.0
O391 O 0.7137 0.19021 0.28332 0.0
C392 C 0.70747 0.3198 0.20696 0.0
C393 C 0.68157 0.23089 0.53606 0.0
C394 C 0.70016 0.23281 0.65509 0.0
C395 C 0.65416 0.20953 0.66691 0.0
C396 C 0.63617 0.20735 0.55003 0.0
C397 C 0.62263 0.19694 0.61487 0.0
C398 C 0.71352 0.2439 0.58895 0.0
C399 C 0.8075 0.32863 0.32009 0.0
C400 C 0.6942 0.2414 0.46609 0.0
C401 C 0.52763 0.34136 0.29866 0.0
C402 C 0.55273 0.38558 0.31449 0.0
C403 C 0.81099 0.19718 0.33092 0.0
C404 C 0.83933 0.28769 1.00289 0.0
C405 C 0.82244 0.28483 0.88345 0.0
C406 C 0.86894 0.30722 0.87232 0.0
C407 C 0.88534 0.31025 0.98961 0.0
C408 C 0.80791 0.27478 0.94942 0.0
C409 C 0.89994 0.3198 0.92492 0.0
C410 C 0.71166 0.18906 0.21819 0.0
C411 C 0.82594 0.27721 0.07265 0.0
H412 H 0.64203 0.20158 0.71674 0.0
H413 H 0.61071 0.19725 0.51071 0.0
H414 H 0.58734 0.17913 0.62488 0.0
H415 H 0.74883 0.26164 0.57861 0.0
H416 H 0.88183 0.31442 0.82261 0.0
H417 H 0.91051 0.32011 0.02936 0.0
H418 H 0.77216 0.25783 0.95915 0.0
H419 H 0.93569 0.33684 0.91546 0.0
Tb420 Tb 0.70676 0.76841 0.68695 0.0
C421 C 0.89965 0.76538 0.88838 0.0
N422 N 0.87078 0.72637 0.86998 0.0
C423 C 0.93707 0.66955 0.89504 0.0
C424 C 0.94822 0.75784 0.91252 0.0
C425 C 0.88883 0.67881 0.87249 0.0
C426 C 0.96662 0.7092 0.91626 0.0
C427 C 0.90864 0.85439 0.90333 0.0
C428 C 0.87973 0.81289 0.88542 0.0
C429 C 0.9575 0.84708 0.92565 0.0
C430 C 0.97672 0.79895 0.93222 0.0
Tb431 Tb 0.78995 0.74575 0.84855 0.0
N432 N 0.83214 0.81842 0.86426 0.0
C433 C 0.88729 0.90178 0.89855 0.0
C434 C 0.81149 0.86471 0.85931 0.0
C435 C 0.83878 0.90697 0.8759 0.0
H436 H 0.86471 0.64763 0.86181 0.0
H437 H 0.8222 0.94355 0.87179 0.0
H438 H 0.6312 0.86655 0.68956 0.0
H439 H 0.67114 0.57106 0.65397 0.0
H440 H 0.77451 0.86982 0.8413 0.0
H441 H 0.90705 0.93475 0.91289 0.0
H442 H 0.72241 0.64405 0.67872 0.0
H443 H 0.95079 0.63175 0.89811 0.0
H444 H 0.9815 0.87817 0.93582 0.0
H445 H 0.01439 0.79409 0.95008 0.0
H446 H 0.54303 0.88346 0.6649 0.0
H447 H 1.00363 0.70192 0.93502 0.0
H448 H 0.58196 0.58117 0.62799 0.0
N449 N 0.62484 0.78829 0.67426 0.0
C450 C 0.59446 0.74988 0.65761 0.0
C451 C 0.55699 0.84571 0.66277 0.0
C452 C 0.54412 0.7581 0.64156 0.0
C453 C 0.60681 0.83585 0.67739 0.0
C454 C 0.52559 0.80673 0.64422 0.0
N455 N 0.66319 0.6961 0.66963 0.0
C456 C 0.6838 0.64962 0.66824 0.0
C457 C 0.58357 0.66134 0.63932 0.0
C458 C 0.61419 0.70228 0.65524 0.0
C459 C 0.60432 0.61363 0.63946 0.0
C460 C 0.65464 0.60779 0.65408 0.0
H461 H 0.48712 0.81453 0.63235 0.0
H462 H 0.47521 0.72323 0.61084 0.0
H463 H 0.50917 0.63843 0.61201 0.0
O464 O 0.73228 0.75297 0.59097 0.0
O465 O 0.66872 0.72953 0.76934 0.0
O466 O 0.73682 0.69132 0.81057 0.0
O467 O 0.69299 0.8208 0.61205 0.0
O468 O 0.7743 0.72237 0.67511 0.0
O469 O 0.79855 0.68672 0.77501 0.0
O470 O 0.76002 0.76247 0.94205 0.0
O471 O 0.82966 0.78364 0.76593 0.0
O472 O 0.76309 0.82258 0.71988 0.0
O473 O 0.79931 0.69398 0.92536 0.0
O474 O 0.72273 0.79134 0.86019 0.0
O475 O 0.69802 0.8272 0.76092 0.0
C476 C 0.68882 0.69839 0.81177 0.0
C477 C 0.68325 0.78633 0.50509 0.0
C478 C 0.68378 0.77042 0.38681 0.0
C479 C 0.63179 0.77473 0.38541 0.0
C480 C 0.6314 0.79195 0.50256 0.0
C481 C 0.60581 0.78541 0.44321 0.0
C482 C 0.70913 0.77572 0.44704 0.0
C483 C 0.8013 0.69078 0.71001 0.0
C484 C 0.71192 0.79283 0.56641 0.0
C485 C 0.51397 0.71767 0.62335 0.0
C486 C 0.53341 0.66934 0.62353 0.0
C487 C 0.81129 0.81445 0.72122 0.0
C488 C 0.8047 0.72924 0.03245 0.0
C489 C 0.79989 0.74448 0.15077 0.0
C490 C 0.85179 0.73992 0.1554 0.0
C491 C 0.85625 0.72281 0.03871 0.0
C492 C 0.77672 0.74017 0.08877 0.0
C493 C 0.87974 0.72914 0.09948 0.0
C494 C 0.69528 0.82247 0.8257 0.0
C495 C 0.77869 0.72261 0.96896 0.0
H496 H 0.61135 0.77012 0.33968 0.0
H497 H 0.61059 0.80219 0.54567 0.0
H498 H 0.5658 0.78935 0.44185 0.0
H499 H 0.74934 0.7731 0.44857 0.0
H500 H 0.87066 0.7441 0.20237 0.0
H501 H 0.87851 0.71194 0.99749 0.0
H502 H 0.7367 0.74349 0.08453 0.0
H503 H 0.9196 0.72468 0.10342 0.0
Tb504 Tb 0.5022 0.55009 0.10717 0.0
C505 C 0.48519 0.35503 0.92736 0.0
N506 N 0.52513 0.38532 0.93603 0.0
C507 C 0.58012 0.31776 0.91105 0.0
C508 C 0.4912 0.30498 0.90819 0.0
C509 C 0.57234 0.36691 0.93124 0.0
C510 C 0.53935 0.28704 0.8979 0.0
C511 C 0.39557 0.34551 0.92193 0.0
C512 C 0.43795 0.37536 0.93259 0.0
C513 C 0.4014 0.29501 0.90566 0.0
C514 C 0.44908 0.27496 0.89794 0.0
Tb515 Tb 0.50719 0.4678 0.9476 0.0
N516 N 0.43378 0.42506 0.94435 0.0
C517 C 0.3487 0.36782 0.92519 0.0
C518 C 0.3882 0.44723 0.94501 0.0
C519 C 0.34503 0.41889 0.9369 0.0
H520 H 0.60404 0.39106 0.93837 0.0
H521 H 0.30898 0.43668 0.93809 0.0
H522 H 0.40284 0.62388 0.11472 0.0
H523 H 0.69924 0.58712 0.12034 0.0
H524 H 0.38477 0.48664 0.95129 0.0
H525 H 0.31527 0.34635 0.91671 0.0
H526 H 0.62515 0.53491 0.104 0.0
H527 H 0.6175 0.30378 0.90466 0.0
H528 H 0.36929 0.27151 0.89714 0.0
H529 H 0.45298 0.2363 0.8835 0.0
H530 H 0.38632 0.71103 0.14652 0.0
H531 H 0.54549 0.24919 0.88126 0.0
H532 H 0.68989 0.67684 0.1446 0.0
N533 N 0.48152 0.63187 0.11933 0.0
C534 C 0.52043 0.6632 0.12957 0.0
C535 C 0.42419 0.69801 0.14187 0.0
C536 C 0.51263 0.71287 0.14941 0.0
C537 C 0.43372 0.64893 0.12267 0.0
C538 C 0.4638 0.72983 0.15656 0.0
N539 N 0.5742 0.59497 0.11203 0.0
C540 C 0.62045 0.57416 0.11163 0.0
C541 C 0.60964 0.67518 0.13794 0.0
C542 C 0.56835 0.64433 0.12502 0.0
C543 C 0.65723 0.65443 0.13484 0.0
C544 C 0.66263 0.60372 0.12146 0.0
H545 H 0.45629 0.76757 0.1726 0.0
H546 H 0.54837 0.78174 0.17889 0.0
H547 H 0.63317 0.7492 0.16681 0.0
O548 O 0.52517 0.51541 0.1948 0.0
O549 O 0.537 0.58565 1.01955 0.0
O550 O 0.56963 0.51845 0.96564 0.0
O551 O 0.46785 0.57154 0.19568 0.0
O552 O 0.54491 0.47984 0.11098 0.0
O553 O 0.57507 0.46353 1.00675 0.0
O554 O 0.48211 0.49825 0.85814 0.0
O555 O 0.4742 0.43225 0.03665 0.0
O556 O 0.4399 0.49958 0.08793 0.0
O557 O 0.54393 0.44718 0.86053 0.0
O558 O 0.46676 0.53941 0.94316 0.0
O559 O 0.43505 0.55348 0.04676 0.0
C560 C 0.56558 0.56683 0.973 0.0
C561 C 0.51799 0.56417 0.29038 0.0
C562 C 0.53204 0.55694 0.40768 0.0
C563 C 0.55639 0.60318 0.40808 0.0
C564 C 0.54234 0.61039 0.29083 0.0
C565 C 0.5618 0.62967 0.34941 0.0
C566 C 0.51331 0.53748 0.34877 0.0
C567 C 0.57543 0.45643 0.0709 0.0
C568 C 0.49594 0.5427 0.23094 0.0
C569 C 0.55364 0.74351 0.16328 0.0
C570 C 0.60199 0.72496 0.15647 0.0
C571 C 0.44488 0.45116 0.08232 0.0
C572 C 0.49566 0.44903 0.76385 0.0
C573 C 0.48858 0.45179 0.64509 0.0
C574 C 0.46375 0.40581 0.64527 0.0
C575 C 0.47014 0.40345 0.76417 0.0
C576 C 0.50471 0.47294 0.70433 0.0
C577 C 0.45438 0.38183 0.70501 0.0
C578 C 0.43623 0.56275 0.98321 0.0
C579 C 0.51418 0.473 0.82367 0.0
H580 H 0.57082 0.61875 0.45362 0.0
H581 H 0.54585 0.63199 0.24688 0.0
H582 H 0.58042 0.66542 0.34944 0.0
H583 H 0.4935 0.50223 0.34881 0.0
H584 H 0.4512 0.38895 0.59956 0.0
H585 H 0.46244 0.38443 0.80928 0.0
H586 H 0.52475 0.50807 0.70403 0.0
H587 H 0.43488 0.34655 0.70553 0.0
Tb588 Tb 1.00423 0.45852 0.60128 0.0
C589 C 0.04046 0.6676 0.48405 0.0
N590 N 0.99802 0.64122 0.47403 0.0
C591 C 0.94932 0.71264 0.5029 0.0
C592 C 0.03898 0.71682 0.50798 0.0
C593 C 0.95277 0.66351 0.48035 0.0
C594 C 0.9926 0.73908 0.51812 0.0
C595 C 0.13057 0.66915 0.48645 0.0
C596 C 0.0856 0.64363 0.47515 0.0
C597 C 0.12939 0.71834 0.51009 0.0
C598 C 0.08371 0.74161 0.52251 0.0
Tb599 Tb 0.00802 0.55837 0.45313 0.0
N600 N 0.0851 0.59418 0.46013 0.0
C601 C 0.17524 0.64371 0.47624 0.0
C602 C 0.12847 0.56981 0.44728 0.0
C603 C 0.17413 0.59408 0.45551 0.0
H604 H 0.91935 0.64335 0.46805 0.0
H605 H 0.20847 0.57437 0.44624 0.0
H606 H 0.09617 0.37691 0.58408 0.0
H607 H 0.80482 0.4352 0.6107 0.0
H608 H 0.12833 0.53198 0.42989 0.0
H609 H 0.21067 0.66201 0.48412 0.0
H610 H 0.88364 0.48052 0.6259 0.0
H611 H 0.91332 0.72998 0.50881 0.0
H612 H 0.16355 0.73828 0.52047 0.0
H613 H 0.08335 0.77907 0.54242 0.0
H614 H 0.10489 0.29079 0.54242 0.0
H615 H 0.98985 0.77692 0.53632 0.0
H616 H 0.80547 0.34789 0.57133 0.0
N617 N 0.01731 0.37624 0.57915 0.0
C618 C 0.97576 0.34841 0.56914 0.0
C619 C 0.06834 0.30679 0.54896 0.0
C620 C 0.97884 0.29954 0.5443 0.0
C621 C 0.06331 0.3556 0.57222 0.0
C622 C 0.02593 0.27899 0.5336 0.0
N623 N 0.92865 0.41982 0.59505 0.0
C624 C 0.88459 0.44263 0.60862 0.0
C625 C 0.88573 0.34359 0.56795 0.0
C626 C 0.92983 0.37053 0.57928 0.0
C627 C 0.84027 0.36732 0.57925 0.0
C628 C 0.83976 0.41679 0.60079 0.0
H629 H 0.02992 0.24144 0.51484 0.0
H630 H 0.93649 0.23611 0.50913 0.0
H631 H 0.85501 0.27382 0.53258 0.0
O632 O 0.97986 0.47587 0.69742 0.0
O633 O 0.97409 0.43789 0.50278 0.0
O634 O 0.94343 0.50822 0.45187 0.0
O635 O 0.03382 0.41839 0.6815 0.0
O636 O 0.96348 0.52895 0.61047 0.0
O637 O 0.93765 0.55631 0.50738 0.0
O638 O 0.03351 0.54213 0.35719 0.0
O639 O 0.0358 0.5796 0.55281 0.0
O640 O 0.0681 0.50952 0.60219 0.0
O641 O 0.97774 0.59788 0.37276 0.0
O642 O 0.04612 0.48651 0.44304 0.0
O643 O 0.07394 0.46294 0.54633 0.0
C644 C 0.94396 0.45965 0.46033 0.0
C645 C 0.04071 0.46563 0.78022 0.0
C646 C 0.04804 0.49313 0.89555 0.0
C647 C 0.09761 0.50691 0.88307 0.0
C648 C 0.0905 0.47879 0.76992 0.0
C649 C 0.11855 0.49969 0.82084 0.0
C650 C 0.01956 0.47287 0.8432 0.0
C651 C 0.93377 0.55539 0.57228 0.0
C652 C 0.01059 0.445 0.72539 0.0
C653 C 0.93493 0.27336 0.52963 0.0
C654 C 0.8885 0.29483 0.54301 0.0
C655 C 0.06625 0.55819 0.59525 0.0
C656 C 0.97247 0.55002 0.27432 0.0
C657 C 0.96606 0.52172 0.15926 0.0
C658 C 0.91705 0.50616 0.17188 0.0
C659 C 0.92327 0.53484 0.28487 0.0
C660 C 0.99385 0.54322 0.21139 0.0
C661 C 0.89596 0.51271 0.23415 0.0
C662 C 0.07591 0.46058 0.48151 0.0
C663 C 1.00186 0.57192 0.32902 0.0
H664 H 0.12026 0.52366 0.92136 0.0
H665 H 0.10769 0.47274 0.72241 0.0
H666 H 0.15678 0.51028 0.81205 0.0
H667 H 0.9813 0.462 0.8515 0.0
H668 H 0.89502 0.4885 0.13365 0.0
H669 H 0.90594 0.54023 0.33242 0.0
H670 H 0.03171 0.55536 0.20289 0.0
H671 H 0.85818 0.50066 0.24309 0.0
C672 C 0.08395 0.15457 0.42275 0.0
C673 C 0.09927 0.10614 0.44068 0.0
H674 H 0.1009 0.22223 0.36962 0.0
C675 C 0.14604 0.09007 0.4179 0.0
H676 H 0.04822 0.16836 0.43889 0.0
C677 C 0.17669 0.12129 0.37957 0.0
C678 C 0.16121 0.16936 0.36062 0.0
H679 H 0.15941 0.05321 0.43033 0.0
H680 H 0.21258 0.10739 0.36409 0.0
C681 C 0.1141 0.1854 0.38252 0.0
C682 C 0.16182 0.92683 0.60443 0.0
C683 C 0.11 0.92048 0.60837 0.0
H684 H 0.23374 0.90124 0.63659 0.0
C685 C 0.09123 0.87964 0.64321 0.0
H686 H 0.17724 0.95776 0.57694 0.0
C687 C 0.12339 0.84629 0.67447 0.0
C688 C 0.1751 0.85426 0.67525 0.0
H689 H 0.05156 0.8731 0.64557 0.0
H690 H 0.10747 0.8141 0.69821 0.0
C691 C 0.19412 0.8944 0.63836 0.0
C692 C 0.37901 0.89108 0.82526 0.0
C693 C 0.3391 0.86821 0.85848 0.0
H694 H 0.44417 0.93689 0.83239 0.0
C695 C 0.33155 0.88114 0.9252 0.0
H696 H 0.38499 0.88453 0.77325 0.0
C697 C 0.36348 0.91452 0.95773 0.0
C698 C 0.40593 0.9335 0.92648 0.0
H699 H 0.30084 0.86557 0.95276 0.0
H700 H 0.35495 0.92531 1.00765 0.0
C701 C 0.41265 0.9221 0.85914 0.0
C702 C 0.37597 0.13513 0.07565 0.0
C703 C 0.39909 0.09412 0.10584 0.0
H704 H 0.3308 0.19999 0.08819 0.0
C705 C 0.38811 0.08438 0.17265 0.0
H706 H 0.38151 0.14283 1.0238 0.0
C707 C 0.35736 0.11606 0.20905 0.0
C708 C 0.33761 0.15932 0.18052 0.0
H709 H 0.40356 0.05228 0.19752 0.0
H710 H 0.34927 0.10644 0.25962 0.0
C711 C 0.34635 0.16777 0.11274 0.0
C712 C 0.86344 0.92659 0.62505 0.0
C713 C 0.91148 0.9108 0.60672 0.0
H714 H 0.7945 0.90911 0.6735 0.0
C715 C 0.92618 0.86265 0.62656 0.0
H716 H 0.85051 0.96326 0.61099 0.0
C717 C 0.89431 0.8319 0.66448 0.0
C718 C 0.84605 0.84762 0.68215 0.0
H719 H 0.96283 0.8491 0.61404 0.0
H720 H 0.90731 0.79542 0.67932 0.0
C721 C 0.83112 0.89536 0.66111 0.0
C722 C 0.85472 0.09366 0.44715 0.0
C723 C 0.90659 0.09719 0.44085 0.0
H724 H 0.78358 0.12144 0.41597 0.0
C725 C 0.92655 0.13529 0.40182 0.0
H726 H 0.83842 0.06476 0.47748 0.0
C727 C 0.89543 0.16895 0.36925 0.0
C728 C 0.84347 0.16372 0.37125 0.0
H729 H 0.9664 0.13947 0.39713 0.0
H730 H 0.91231 0.1992 0.34261 0.0
C731 C 0.82341 0.12614 0.41188 0.0
C732 C 0.62934 0.17408 0.16458 0.0
C733 C 0.67521 0.15532 0.18597 0.0
H734 H 0.55794 0.15757 0.12308 0.0
C735 C 0.68567 0.10467 0.17561 0.0
H736 H 0.62035 0.21303 0.17165 0.0
C737 C 0.65159 0.07398 0.14201 0.0
C738 C 0.60531 0.09271 0.12104 0.0
H739 H 0.72053 0.089 0.1923 0.0
H740 H 0.66151 0.03558 0.13241 0.0
C741 C 0.59403 0.14261 0.1353 0.0
C742 C 0.61383 0.86489 0.84476 0.0
C743 C 0.66324 0.85703 0.86381 0.0
H744 H 0.54544 0.90275 0.86372 0.0
C745 C 0.68083 0.88049 0.92158 0.0
H746 H 0.59808 0.8448 0.80375 0.0
C747 C 0.6503 0.91322 0.95726 0.0
C748 C 0.6013 0.92215 0.93656 0.0
H749 H 0.71841 0.87411 0.93871 0.0
H750 H 0.66514 0.93198 1.00035 0.0
C751 C 0.58337 0.89732 0.88023 0.0
C752 C 0.64003 0.58289 0.90017 0.0
C753 C 0.5973 0.60087 0.93229 0.0
H754 H 0.70256 0.59952 0.83811 0.0
C755 C 0.5847 0.65141 0.92368 0.0
H756 H 0.65099 0.54431 0.90549 0.0
C757 C 0.61355 0.68275 0.88321 0.0
C758 C 0.65665 0.66479 0.85206 0.0
H759 H 0.55213 0.66666 0.94756 0.0
H760 H 0.60273 0.72135 0.87739 0.0
C761 C 0.66967 0.61457 0.86149 0.0
C762 C 0.62283 0.34513 0.16605 0.0
C763 C 0.67449 0.35311 0.16724 0.0
H764 H 0.55127 0.37247 0.13677 0.0
C765 C 0.69372 0.39353 0.13094 0.0
H766 H 0.6068 0.31299 0.1898 0.0
C767 C 0.66178 0.42619 0.097 0.0
C768 C 0.61005 0.41971 0.10007 0.0
H769 H 0.73333 0.40049 0.12964 0.0
H770 H 0.67739 0.45748 0.07042 0.0
C771 C 0.59098 0.37869 0.13447 0.0
C772 C 0.91963 0.37601 0.41435 0.0
C773 C 0.90984 0.42728 0.42066 0.0
H774 H 0.89377 0.30462 0.3809 0.0
C775 C 0.86674 0.44629 0.3903 0.0
H776 H 0.95333 0.36024 0.4344 0.0
C777 C 0.83435 0.41473 0.35511 0.0
C778 C 0.8431 0.36318 0.35242 0.0
H779 H 0.85745 0.48532 0.39475 0.0
H780 H 0.80161 0.43037 0.33196 0.0
C781 C 0.8859 0.34417 0.38275 0.0
C782 C 0.82672 0.64522 0.6058 0.0
C783 C 0.83375 0.65535 0.67347 0.0
H784 H 0.85146 0.60415 0.52082 0.0
C785 C 0.87297 0.63164 0.70622 0.0
H786 H 0.79664 0.66256 0.57875 0.0
C787 C 0.90463 0.59923 0.67328 0.0
C788 C 0.89808 0.58907 0.60587 0.0
H789 H 0.88031 0.63874 0.75718 0.0
H790 H 0.93489 0.58276 0.701 0.0
C791 C 0.85828 0.61194 0.57248 0.0
C792 C 0.33752 0.40238 0.1874 0.0
C793 C 0.3529 0.35369 0.20319 0.0
H794 H 0.35446 0.47124 0.1384 0.0
C795 C 0.39877 0.33712 0.17817 0.0
H796 H 0.30242 0.41644 0.20558 0.0
C797 C 0.42801 0.36817 0.13769 0.0
C798 C 0.41298 0.41722 0.123 0.0
H799 H 0.41161 0.29976 0.18881 0.0
H800 H 0.46274 0.35394 0.1186 0.0
C801 C 0.36743 0.43389 0.1488 0.0
C802 C 0.42139 0.64328 0.92544 0.0
C803 C 0.40208 0.60005 0.95451 0.0
H804 H 0.4058 0.71066 0.87304 0.0
C805 C 0.3506 0.59173 0.95223 0.0
H806 H 0.46088 0.6509 0.92747 0.0
C807 C 0.31943 0.62448 0.91747 0.0
C808 C 0.33904 0.66686 0.88585 0.0
H809 H 0.33469 0.55896 0.97506 0.0
H810 H 0.28019 0.61592 0.91408 0.0
C811 C 0.39 0.67698 0.89319 0.0
C812 C 0.12586 0.67411 0.67007 0.0
C813 C 0.16795 0.6548 0.70179 0.0
H814 H 0.05817 0.65829 0.61876 0.0
C815 C 0.17507 0.60299 0.70205 0.0
H816 H 0.119 0.71387 0.67009 0.0
C817 C 0.14254 0.57146 0.66711 0.0
C818 C 0.10029 0.59073 0.63497 0.0
H819 H 0.20702 0.58709 0.72676 0.0
H820 H 0.15119 0.53224 0.66411 0.0
C821 C 0.09147 0.64228 0.63957 0.0
C822 C 0.18692 0.37805 0.44314 0.0
C823 C 0.1725 0.35753 0.3821 0.0
H824 H 0.1677 0.42757 0.52268 0.0
C825 C 0.12519 0.36851 0.35724 0.0
H826 H 0.22282 0.36929 0.46435 0.0
C827 C 0.09415 0.4019 0.38981 0.0
C828 C 0.10916 0.42417 0.44931 0.0
H829 H 0.11155 0.35035 0.3134 0.0
H830 H 0.05796 0.40977 0.36872 0.0
C831 C 0.15548 0.41128 0.47648 0.0
C832 C 0.02132 0.05731 0.02531 0.0
C833 C 1.00349 0.03522 0.96749 0.0
H834 H 0.0408 0.04798 0.12659 0.0
C835 C 0.99099 0.98451 0.96891 0.0
H836 H 0.03283 0.0956 0.02486 0.0
C837 C 0.99371 0.9574 0.02738 0.0
C838 C 0.01229 0.97935 0.08486 0.0
H839 H 0.97869 0.96584 0.92497 0.0
H840 H 0.98106 0.91931 0.0282 0.0
C841 C 0.02583 0.02984 0.08332 0.0
C842 C 0.29583 0.80587 0.28118 0.0
C843 C 0.2963 0.77385 0.33649 0.0
H844 H 0.26625 0.82116 0.18474 0.0
C845 C 0.26696 0.73053 0.33392 0.0
H846 H 0.31724 0.84002 0.28134 0.0
C847 C 0.23786 0.71981 0.27821 0.0
C848 C 0.23698 0.75213 0.22335 0.0
H849 H 0.26689 0.70442 0.37463 0.0
H850 H 0.21587 0.68601 0.27816 0.0
C851 C 0.26675 0.79505 0.22539 0.0
C852 C 0.47973 0.98559 0.55853 0.0
C853 C 0.4819 0.0306 0.59447 0.0
H854 H 0.49621 0.94694 0.46858 0.0
C855 C 0.5044 0.07202 0.56424 0.0
H856 H 0.46365 0.9525 0.58035 0.0
C857 C 0.52328 0.0687 0.49968 0.0
C858 C 0.52024 0.02385 0.46344 0.0
H859 H 0.50627 0.10743 0.58976 0.0
H860 H 0.53958 0.10162 0.47775 0.0
C861 C 0.49831 0.98236 0.49406 0.0
C862 C 0.22645 0.30001 0.78034 0.0
C863 C 0.23544 0.27372 0.83925 0.0
H864 H 0.24548 0.3102 0.67874 0.0
C865 C 0.27191 0.23631 0.83954 0.0
H866 H 0.19941 0.3298 0.77861 0.0
C867 C 0.2987 0.22548 0.78231 0.0
C868 C 0.28945 0.25163 0.72347 0.0
H869 H 0.27939 0.21494 0.88375 0.0
H870 H 0.32612 0.19602 0.78388 0.0
C871 C 0.25298 0.28895 0.72308 0.0
C872 C 0.78661 0.3042 0.77097 0.0
C873 C 0.79027 0.2718 0.82557 0.0
H874 H 0.75574 0.31756 0.6749 0.0
C875 C 0.7651 0.22602 0.82265 0.0
H876 H 0.80512 0.34002 0.77157 0.0
C877 C 0.73696 0.21306 0.76692 0.0
C878 C 0.73299 0.24559 0.71247 0.0
H879 H 0.7681 0.19962 0.86278 0.0
H880 H 0.71858 0.17717 0.76635 0.0
C881 C 0.75849 0.29123 0.71519 0.0
C882 C 0.70084 0.7898 0.26839 0.0
C883 C 0.71213 0.76238 0.32546 0.0
H884 H 0.72042 0.80634 0.16848 0.0
C885 C 0.75219 0.72897 0.32457 0.0
H886 H 0.67055 0.81632 0.26808 0.0
C887 C 0.78072 0.72338 0.26784 0.0
C888 C 0.7698 0.75116 0.21094 0.0
H889 H 0.76135 0.70697 0.3677 0.0
H890 H 0.81099 0.69685 0.26831 0.0
C891 C 0.72947 0.78426 0.21158 0.0
C892 C 0.52289 0.45369 0.53188 0.0
C893 C 0.49865 0.47811 0.58353 0.0
H894 H 0.55227 0.45992 0.43446 0.0
C895 C 0.48655 0.5287 0.57776 0.0
H896 H 0.53393 0.41513 0.53679 0.0
C897 C 0.49845 0.5546 0.52073 0.0
C898 C 0.52257 0.53018 0.46902 0.0
H899 H 0.46783 0.54813 0.6172 0.0
H900 H 0.48779 0.59332 0.51619 0.0
C901 C 0.53425 0.47946 0.4744 0.0
C902 C 0.97786 0.51725 0.97172 0.0
C903 C 0.02673 0.50006 0.9631 0.0
H904 H 0.92091 0.53853 0.03979 0.0
C905 C 0.05569 0.49059 1.01978 0.0
H906 H 0.95474 0.52582 0.92942 0.0
C907 C 0.03644 0.49835 0.08318 0.0
C908 C 0.9875 0.51524 0.09177 0.0
H909 H 0.09324 0.47658 1.01525 0.0
H910 H 0.05966 0.49021 0.12551 0.0
C911 C 0.95852 0.52471 0.03514 0.0
loop_
_geom_bond_atom_site_label_1
_geom_bond_atom_site_label_2
_geom_bond_distance
_geom_bond_site_symmetry_2
_ccdc_geom_bond_type
Tb0 N29 2.617 . S
Tb0 N35 2.572 1_655 S
Tb0 O44 2.465 1_655 S
Tb0 O45 2.387 1_655 S
Tb0 O47 2.428 . S
Tb0 O48 2.308 1_645 S
Tb0 O52 2.349 1_545 S
Tb0 O55 2.393 . S
Tb0 C64 2.802 . S
C1 N2 1.379 1_655 S
C1 C4 1.416 . S
C1 C8 1.424 . S
N2 C1 1.379 1_455 S
N2 C5 1.334 . S
N2 Tb11 2.617 . S
C3 C5 1.390 . S
C3 C6 1.339 . S
C3 H23 0.930 . S
C4 C1 1.416 . S
C4 C6 1.416 1_655 S
C4 C10 1.448 . S
C5 N2 1.334 . S
C5 C3 1.390 . S
C5 H16 0.930 . S
C6 C3 1.339 . S
C6 C4 1.416 1_455 S
C6 H27 0.930 . S
C7 C8 1.413 . S
C7 C9 1.427 . S
C7 C13 1.416 . S
C8 C1 1.424 . S
C8 C7 1.413 . S
C8 N12 1.361 . S
C9 C7 1.427 . S
C9 C10 1.328 . S
C9 H24 0.929 . S
C10 C4 1.448 . S
C10 C9 1.328 . S
C10 H25 0.930 . S
Tb11 N2 2.617 . S
Tb11 N12 2.572 1_455 S
Tb11 O46 2.349 1_565 S
Tb11 O49 2.393 . S
Tb11 O50 2.465 1_455 S
Tb11 O51 2.387 1_455 S
Tb11 O53 2.428 . S
Tb11 O54 2.308 1_465 S
Tb11 C75 2.802 . S
N12 C8 1.361 . S
N12 Tb11 2.572 1_655 S
N12 C14 1.340 . S
C13 C7 1.416 . S
C13 C15 1.332 . S
C13 H21 0.931 . S
C14 N12 1.340 . S
C14 C15 1.407 . S
C14 H20 0.930 . S
C15 C13 1.332 . S
C15 C14 1.407 . S
C15 H17 0.929 . S
H16 C5 0.930 . S
H17 C15 0.929 . S
H18 C33 0.930 . S
H19 C40 0.929 . S
H20 C14 0.930 . S
H21 C13 0.931 . S
H22 C36 0.930 . S
H23 C3 0.930 . S
H24 C9 0.929 . S
H25 C10 0.930 . S
H26 C31 0.930 . S
H27 C6 0.930 . S
H28 C39 0.931 . S
N29 Tb0 2.617 . S
N29 C30 1.379 1_655 S
N29 C33 1.334 . S
C30 N29 1.379 1_455 S
C30 C32 1.416 . S
C30 C38 1.424 . S
C31 H26 0.930 . S
C31 C33 1.390 . S
C31 C34 1.339 . S
C32 C30 1.416 . S
C32 C34 1.416 1_455 S
C32 C65 1.448 . S
C33 H18 0.930 . S
C33 N29 1.334 . S
C33 C31 1.390 . S
C34 C31 1.339 . S
C34 C32 1.416 1_655 S
C34 H41 0.930 . S
N35 Tb0 2.572 1_455 S
N35 C36 1.340 . S
N35 C38 1.361 . S
C36 H22 0.930 . S
C36 N35 1.340 . S
C36 C40 1.407 . S
C37 C38 1.413 . S
C37 C39 1.416 . S
C37 C66 1.427 . S
C38 C30 1.424 . S
C38 N35 1.361 . S
C38 C37 1.413 . S
C39 H28 0.931 . S
C39 C37 1.416 . S
C39 C40 1.332 . S
C40 H19 0.929 . S
C40 C36 1.407 . S
C40 C39 1.332 . S
H41 C34 0.930 . S
H42 C65 0.930 . S
H43 C66 0.929 . S
O44 Tb0 2.465 1_455 S
O44 C64 1.264 1_455 S
O45 Tb0 2.387 1_455 S
O45 C56 1.264 . S
O46 Tb11 2.349 1_545 S
O46 C56 1.243 . S
O47 Tb0 2.428 . S
O47 C64 1.256 . S
O48 Tb0 2.308 1_465 S
O48 C63 1.266 . S
O49 Tb11 2.393 . S
O49 C63 1.248 . S
O50 Tb11 2.465 1_655 S
O50 C75 1.264 1_655 S
O51 Tb11 2.387 1_655 S
O51 C67 1.264 . S
O52 Tb0 2.349 1_565 S
O52 C67 1.243 . S
O53 Tb11 2.428 . S
O53 C75 1.256 . S
O54 Tb11 2.308 1_645 S
O54 C74 1.266 . S
O55 Tb0 2.393 . S
O55 C74 1.248 . S
C56 O45 1.264 . S
C56 O46 1.243 . S
C57 C60 1.399 . S
C57 C62 1.383 . S
C57 C64 1.496 . S
C58 C59 1.399 . S
C58 C62 1.389 . S
C59 C58 1.399 . S
C59 C61 1.380 . S
C59 H76 0.929 . S
C60 C57 1.399 . S
C60 C61 1.392 . S
C60 H77 0.929 . S
C61 C59 1.380 . S
C61 C60 1.392 . S
C61 H78 0.929 . S
C62 C57 1.383 . S
C62 C58 1.389 . S
C62 H79 0.931 1_645 S
C63 O48 1.266 . S
C63 O49 1.248 . S
C64 Tb0 2.802 . S
C64 O44 1.264 1_655 S
C64 O47 1.256 . S
C64 C57 1.496 . S
C65 C32 1.448 . S
C65 H42 0.930 . S
C65 C66 1.328 . S
C66 C37 1.427 . S
C66 H43 0.929 . S
C66 C65 1.328 . S
C67 O51 1.264 . S
C67 O52 1.243 . S
C68 C71 1.399 . S
C68 C72 1.383 . S
C68 C75 1.496 . S
C69 C70 1.399 . S
C69 C72 1.389 . S
C70 C69 1.399 . S
C70 C73 1.380 . S
C70 H80 0.929 . S
C71 C68 1.399 . S
C71 C73 1.392 . S
C71 H81 0.929 . S
C72 C68 1.383 . S
C72 C69 1.389 . S
C72 H82 0.931 1_465 S
C73 C70 1.380 . S
C73 C71 1.392 . S
C73 H83 0.929 . S
C74 O54 1.266 . S
C74 O55 1.248 . S
C75 Tb11 2.802 . S
C75 O50 1.264 1_455 S
C75 O53 1.256 . S
C75 C68 1.496 . S
H76 C59 0.929 . S
H77 C60 0.929 . S
H78 C61 0.929 . S
H79 C62 0.931 1_465 S
H80 C70 0.929 . S
H81 C71 0.929 . S
H82 C72 0.931 1_645 S
H83 C73 0.929 . S
Tb84 N113 2.617 . S
Tb84 N119 2.572 . S
Tb84 O128 2.465 . S
Tb84 O129 2.387 . S
Tb84 O131 2.428 . S
Tb84 O132 2.308 . S
Tb84 O136 2.349 . S
Tb84 O139 2.393 . S
Tb84 C148 2.802 . S
C85 N86 1.379 . S
C85 C88 1.416 . S
C85 C92 1.424 . S
N86 C85 1.379 . S
N86 C89 1.334 . S
N86 Tb95 2.617 . S
C87 C89 1.390 . S
C87 C90 1.339 . S
C87 H107 0.930 . S
C88 C85 1.416 . S
C88 C90 1.416 . S
C88 C94 1.448 . S
C89 N86 1.334 . S
C89 C87 1.390 . S
C89 H100 0.930 . S
C90 C87 1.339 . S
C90 C88 1.416 . S
C90 H111 0.930 . S
C91 C92 1.413 . S
C91 C93 1.427 . S
C91 C97 1.416 . S
C92 C85 1.424 . S
C92 C91 1.413 . S
C92 N96 1.361 . S
C93 C91 1.427 . S
C93 C94 1.328 . S
C93 H108 0.929 . S
C94 C88 1.448 . S
C94 C93 1.328 . S
C94 H109 0.930 . S
Tb95 N86 2.617 . S
Tb95 N96 2.572 . S
Tb95 O130 2.349 . S
Tb95 O133 2.393 . S
Tb95 O134 2.465 . S
Tb95 O135 2.387 . S
Tb95 O137 2.428 . S
Tb95 O138 2.308 . S
Tb95 C159 2.802 . S
N96 C92 1.361 . S
N96 Tb95 2.572 . S
N96 C98 1.340 . S
C97 C91 1.416 . S
C97 C99 1.332 . S
C97 H105 0.931 . S
C98 N96 1.340 . S
C98 C99 1.407 . S
C98 H104 0.930 . S
C99 C97 1.332 . S
C99 C98 1.407 . S
C99 H101 0.929 . S
H100 C89 0.930 . S
H101 C99 0.929 . S
H102 C117 0.930 . S
H103 C124 0.929 . S
H104 C98 0.930 . S
H105 C97 0.931 . S
H106 C120 0.930 . S
H107 C87 0.930 . S
H108 C93 0.929 . S
H109 C94 0.930 . S
H110 C115 0.930 . S
H111 C90 0.930 . S
H112 C123 0.931 . S
N113 Tb84 2.617 . S
N113 C114 1.379 . S
N113 C117 1.334 . S
C114 N113 1.379 . S
C114 C116 1.416 . S
C114 C122 1.424 . S
C115 H110 0.930 . S
C115 C117 1.390 . S
C115 C118 1.339 . S
C116 C114 1.416 . S
C116 C118 1.416 . S
C116 C149 1.448 . S
C117 H102 0.930 . S
C117 N113 1.334 . S
C117 C115 1.390 . S
C118 C115 1.339 . S
C118 C116 1.416 . S
C118 H125 0.930 1_455 S
N119 Tb84 2.572 . S
N119 C120 1.340 . S
N119 C122 1.361 . S
C120 H106 0.930 . S
C120 N119 1.340 . S
C120 C124 1.407 . S
C121 C122 1.413 . S
C121 C123 1.416 . S
C121 C150 1.427 . S
C122 C114 1.424 . S
C122 N119 1.361 . S
C122 C121 1.413 . S
C123 H112 0.931 . S
C123 C121 1.416 . S
C123 C124 1.332 . S
C124 H103 0.929 . S
C124 C120 1.407 . S
C124 C123 1.332 . S
H125 C118 0.930 1_655 S
H126 C149 0.930 1_655 S
H127 C150 0.929 . S
O128 Tb84 2.465 . S
O128 C148 1.264 . S
O129 Tb84 2.387 . S
O129 C140 1.264 . S
O130 Tb95 2.349 . S
O130 C140 1.243 . S
O131 Tb84 2.428 . S
O131 C148 1.256 . S
O132 Tb84 2.308 . S
O132 C147 1.266 . S
O133 Tb95 2.393 . S
O133 C147 1.248 . S
O134 Tb95 2.465 . S
O134 C159 1.264 . S
O135 Tb95 2.387 . S
O135 C151 1.264 . S
O136 Tb84 2.349 . S
O136 C151 1.243 . S
O137 Tb95 2.428 . S
O137 C159 1.256 . S
O138 Tb95 2.308 . S
O138 C158 1.266 . S
O139 Tb84 2.393 . S
O139 C158 1.248 . S
C140 O129 1.264 . S
C140 O130 1.243 . S
C141 C144 1.399 . S
C141 C146 1.383 . S
C141 C148 1.496 1_554 S
C142 C143 1.399 . S
C142 C146 1.389 . S
C143 C142 1.399 . S
C143 C145 1.380 . S
C143 H160 0.929 . S
C144 C141 1.399 . S
C144 C145 1.392 . S
C144 H161 0.929 . S
C145 C143 1.380 . S
C145 C144 1.392 . S
C145 H162 0.929 . S
C146 C141 1.383 . S
C146 C142 1.389 . S
C146 H163 0.931 . S
C147 O132 1.266 . S
C147 O133 1.248 . S
C148 Tb84 2.802 . S
C148 O128 1.264 . S
C148 O131 1.256 . S
C148 C141 1.496 1_556 S
C149 C116 1.448 . S
C149 H126 0.930 1_455 S
C149 C150 1.328 . S
C150 C121 1.427 . S
C150 H127 0.929 . S
C150 C149 1.328 . S
C151 O135 1.264 . S
C151 O136 1.243 . S
C152 C155 1.399 . S
C152 C156 1.383 . S
C152 C159 1.496 . S
C153 C154 1.399 . S
C153 C156 1.389 . S
C154 C153 1.399 . S
C154 C157 1.380 . S
C154 H164 0.929 . S
C155 C152 1.399 . S
C155 C157 1.392 . S
C155 H165 0.929 . S
C156 C152 1.383 . S
C156 C153 1.389 . S
C156 H166 0.931 . S
C157 C154 1.380 . S
C157 C155 1.392 . S
C157 H167 0.929 . S
C158 O138 1.266 . S
C158 O139 1.248 . S
C159 Tb95 2.802 . S
C159 O134 1.264 . S
C159 O137 1.256 . S
C159 C152 1.496 . S
H160 C143 0.929 . S
H161 C144 0.929 . S
H162 C145 0.929 . S
H163 C146 0.931 . S
H164 C154 0.929 . S
H165 C155 0.929 . S
H166 C156 0.931 . S
H167 C157 0.929 . S
Tb168 N197 2.617 . S
Tb168 N203 2.572 . S
Tb168 O212 2.465 . S
Tb168 O213 2.387 1_554 S
Tb168 O215 2.428 . S
Tb168 O216 2.308 1_565 S
Tb168 O220 2.349 1_565 S
Tb168 O223 2.393 . S
Tb168 C232 2.802 . S
C169 N170 1.379 . S
C169 C172 1.416 . S
C169 C176 1.424 . S
N170 C169 1.379 . S
N170 C173 1.334 . S
N170 Tb179 2.617 . S
C171 C173 1.390 . S
C171 C174 1.339 . S
C171 H191 0.930 . S
C172 C169 1.416 . S
C172 C174 1.416 . S
C172 C178 1.448 . S
C173 N170 1.334 . S
C173 C171 1.390 . S
C173 H184 0.930 . S
C174 C171 1.339 . S
C174 C172 1.416 . S
C174 H195 0.930 . S
C175 C176 1.413 . S
C175 C177 1.427 . S
C175 C181 1.416 . S
C176 C169 1.424 . S
C176 C175 1.413 . S
C176 N180 1.361 . S
C177 C175 1.427 . S
C177 C178 1.328 . S
C177 H192 0.929 . S
C178 C172 1.448 . S
C178 C177 1.328 . S
C178 H193 0.930 . S
Tb179 N170 2.617 . S
Tb179 N180 2.572 . S
Tb179 O214 2.349 1_545 S
Tb179 O217 2.393 . S
Tb179 O218 2.465 . S
Tb179 O219 2.387 1_556 S
Tb179 O221 2.428 . S
Tb179 O222 2.308 1_545 S
Tb179 C243 2.802 . S
N180 C176 1.361 . S
N180 Tb179 2.572 . S
N180 C182 1.340 . S
C181 C175 1.416 . S
C181 C183 1.332 . S
C181 H189 0.931 . S
C182 N180 1.340 . S
C182 C183 1.407 . S
C182 H188 0.930 . S
C183 C181 1.332 . S
C183 C182 1.407 . S
C183 H185 0.929 . S
H184 C173 0.930 . S
H185 C183 0.929 . S
H186 C201 0.930 . S
H187 C208 0.929 . S
H188 C182 0.930 . S
H189 C181 0.931 . S
H190 C204 0.930 . S
H191 C171 0.930 . S
H192 C177 0.929 . S
H193 C178 0.930 . S
H194 C199 0.930 . S
H195 C174 0.930 . S
H196 C207 0.931 . S
N197 Tb168 2.617 . S
N197 C198 1.379 . S
N197 C201 1.334 . S
C198 N197 1.379 . S
C198 C200 1.416 . S
C198 C206 1.424 . S
C199 H194 0.930 . S
C199 C201 1.390 . S
C199 C202 1.339 . S
C200 C198 1.416 . S
C200 C202 1.416 . S
C200 C233 1.448 . S
C201 H186 0.930 . S
C201 N197 1.334 . S
C201 C199 1.390 . S
C202 C199 1.339 . S
C202 C200 1.416 . S
C202 H209 0.930 . S
N203 Tb168 2.572 . S
N203 C204 1.340 . S
N203 C206 1.361 . S
C204 H190 0.930 . S
C204 N203 1.340 . S
C204 C208 1.407 . S
C205 C206 1.413 . S
C205 C207 1.416 . S
C205 C234 1.427 . S
C206 C198 1.424 . S
C206 N203 1.361 . S
C206 C205 1.413 . S
C207 H196 0.931 . S
C207 C205 1.416 . S
C207 C208 1.332 . S
C208 H187 0.929 . S
C208 C204 1.407 . S
C208 C207 1.332 . S
H209 C202 0.930 . S
H210 C233 0.930 . S
H211 C234 0.929 . S
O212 Tb168 2.465 . S
O212 C232 1.264 . S
O213 Tb168 2.387 1_556 S
O213 C224 1.264 . S
O214 Tb179 2.349 1_565 S
O214 C224 1.243 . S
O215 Tb168 2.428 . S
O215 C232 1.256 . S
O216 Tb168 2.308 1_545 S
O216 C231 1.266 . S
O217 Tb179 2.393 . S
O217 C231 1.248 1_556 S
O218 Tb179 2.465 . S
O218 C243 1.264 . S
O219 Tb179 2.387 1_554 S
O219 C235 1.264 . S
O220 Tb168 2.349 1_545 S
O220 C235 1.243 . S
O221 Tb179 2.428 . S
O221 C243 1.256 . S
O222 Tb179 2.308 1_565 S
O222 C242 1.266 . S
O223 Tb168 2.393 . S
O223 C242 1.248 1_554 S
C224 O213 1.264 . S
C224 O214 1.243 . S
C225 C228 1.399 . S
C225 C230 1.383 . S
C225 C232 1.496 . S
C226 C227 1.399 . S
C226 C230 1.389 . S
C227 C226 1.399 . S
C227 C229 1.380 . S
C227 H244 0.929 . S
C228 C225 1.399 . S
C228 C229 1.392 . S
C228 H245 0.929 . S
C229 C227 1.380 . S
C229 C228 1.392 . S
C229 H246 0.929 . S
C230 C225 1.383 . S
C230 C226 1.389 . S
C230 H247 0.931 1_565 S
C231 O216 1.266 . S
C231 O217 1.248 1_554 S
C232 Tb168 2.802 . S
C232 O212 1.264 . S
C232 O215 1.256 . S
C232 C225 1.496 . S
C233 C200 1.448 . S
C233 H210 0.930 . S
C233 C234 1.328 . S
C234 C205 1.427 . S
C234 H211 0.929 . S
C234 C233 1.328 . S
C235 O219 1.264 . S
C235 O220 1.243 . S
C236 C239 1.399 . S
C236 C240 1.383 . S
C236 C243 1.496 . S
C237 C238 1.399 . S
C237 C240 1.389 . S
C238 C237 1.399 . S
C238 C241 1.380 . S
C238 H248 0.929 . S
C239 C236 1.399 . S
C239 C241 1.392 . S
C239 H249 0.929 . S
C240 C236 1.383 . S
C240 C237 1.389 . S
C240 H250 0.931 1_545 S
C241 C238 1.380 . S
C241 C239 1.392 . S
C241 H251 0.929 . S
C242 O222 1.266 . S
C242 O223 1.248 1_556 S
C243 Tb179 2.802 . S
C243 O218 1.264 . S
C243 O221 1.256 . S
C243 C236 1.496 . S
H244 C227 0.929 . S
H245 C228 0.929 . S
H246 C229 0.929 . S
H247 C230 0.931 1_545 S
H248 C238 0.929 . S
H249 C239 0.929 . S
H250 C240 0.931 1_565 S
H251 C241 0.929 . S
Tb252 N281 2.617 . S
Tb252 N287 2.572 . S
Tb252 O296 2.465 . S
Tb252 O297 2.387 . S
Tb252 O299 2.428 . S
Tb252 O300 2.308 . S
Tb252 O304 2.349 . S
Tb252 O307 2.393 . S
Tb252 C316 2.802 . S
C253 N254 1.379 . S
C253 C256 1.416 . S
C253 C260 1.424 . S
N254 C253 1.379 . S
N254 C257 1.334 . S
N254 Tb263 2.617 . S
C255 C257 1.390 . S
C255 C258 1.339 . S
C255 H275 0.930 . S
C256 C253 1.416 . S
C256 C258 1.416 . S
C256 C262 1.448 . S
C257 N254 1.334 . S
C257 C255 1.390 . S
C257 H268 0.930 . S
C258 C255 1.339 . S
C258 C256 1.416 . S
C258 H279 0.930 . S
C259 C260 1.413 . S
C259 C261 1.427 . S
C259 C265 1.416 . S
C260 C253 1.424 . S
C260 C259 1.413 . S
C260 N264 1.361 . S
C261 C259 1.427 . S
C261 C262 1.328 . S
C261 H276 0.929 . S
C262 C256 1.448 . S
C262 C261 1.328 . S
C262 H277 0.930 . S
Tb263 N254 2.617 . S
Tb263 N264 2.572 . S
Tb263 O298 2.349 . S
Tb263 O301 2.393 . S
Tb263 O302 2.465 . S
Tb263 O303 2.387 . S
Tb263 O305 2.428 . S
Tb263 O306 2.308 . S
Tb263 C327 2.802 . S
N264 C260 1.361 . S
N264 Tb263 2.572 . S
N264 C266 1.340 . S
C265 C259 1.416 . S
C265 C267 1.332 . S
C265 H273 0.931 . S
C266 N264 1.340 . S
C266 C267 1.407 . S
C266 H272 0.930 . S
C267 C265 1.332 . S
C267 C266 1.407 . S
C267 H269 0.929 . S
H268 C257 0.930 . S
H269 C267 0.929 . S
H270 C285 0.930 . S
H271 C292 0.929 . S
H272 C266 0.930 . S
H273 C265 0.931 . S
H274 C288 0.930 . S
H275 C255 0.930 . S
H276 C261 0.929 . S
H277 C262 0.930 . S
H278 C283 0.930 . S
H279 C258 0.930 . S
H280 C291 0.931 . S
N281 Tb252 2.617 . S
N281 C282 1.379 . S
N281 C285 1.334 . S
C282 N281 1.379 . S
C282 C284 1.416 . S
C282 C290 1.424 . S
C283 H278 0.930 . S
C283 C285 1.390 . S
C283 C286 1.339 . S
C284 C282 1.416 . S
C284 C286 1.416 . S
C284 C317 1.448 . S
C285 H270 0.930 . S
C285 N281 1.334 . S
C285 C283 1.390 . S
C286 C283 1.339 . S
C286 C284 1.416 . S
C286 H293 0.930 1_455 S
N287 Tb252 2.572 . S
N287 C288 1.340 . S
N287 C290 1.361 . S
C288 H274 0.930 . S
C288 N287 1.340 . S
C288 C292 1.407 . S
C289 C290 1.413 . S
C289 C291 1.416 . S
C289 C318 1.427 . S
C290 C282 1.424 . S
C290 N287 1.361 . S
C290 C289 1.413 . S
C291 H280 0.931 . S
C291 C289 1.416 . S
C291 C292 1.332 . S
C292 H271 0.929 . S
C292 C288 1.407 . S
C292 C291 1.332 . S
H293 C286 0.930 1_655 S
H294 C317 0.930 1_655 S
H295 C318 0.929 . S
O296 Tb252 2.465 . S
O296 C316 1.264 . S
O297 Tb252 2.387 . S
O297 C308 1.264 . S
O298 Tb263 2.349 . S
O298 C308 1.243 . S
O299 Tb252 2.428 . S
O299 C316 1.256 . S
O300 Tb252 2.308 . S
O300 C315 1.266 . S
O301 Tb263 2.393 . S
O301 C315 1.248 . S
O302 Tb263 2.465 . S
O302 C327 1.264 . S
O303 Tb263 2.387 . S
O303 C319 1.264 . S
O304 Tb252 2.349 . S
O304 C319 1.243 . S
O305 Tb263 2.428 . S
O305 C327 1.256 . S
O306 Tb263 2.308 . S
O306 C326 1.266 . S
O307 Tb252 2.393 . S
O307 C326 1.248 . S
C308 O297 1.264 . S
C308 O298 1.243 . S
C309 C312 1.399 . S
C309 C314 1.383 . S
C309 C316 1.496 1_556 S
C310 C311 1.399 . S
C310 C314 1.389 . S
C311 C310 1.399 . S
C311 C313 1.380 . S
C311 H328 0.929 . S
C312 C309 1.399 . S
C312 C313 1.392 . S
C312 H329 0.929 . S
C313 C311 1.380 . S
C313 C312 1.392 . S
C313 H330 0.929 . S
C314 C309 1.383 . S
C314 C310 1.389 . S
C314 H331 0.931 . S
C315 O300 1.266 . S
C315 O301 1.248 . S
C316 Tb252 2.802 . S
C316 O296 1.264 . S
C316 O299 1.256 . S
C316 C309 1.496 1_554 S
C317 C284 1.448 . S
C317 H294 0.930 1_455 S
C317 C318 1.328 . S
C318 C289 1.427 . S
C318 H295 0.929 . S
C318 C317 1.328 . S
C319 O303 1.264 . S
C319 O304 1.243 . S
C320 C323 1.399 . S
C320 C324 1.383 . S
C320 C327 1.496 . S
C321 C322 1.399 . S
C321 C324 1.389 . S
C322 C321 1.399 . S
C322 C325 1.380 . S
C322 H332 0.929 . S
C323 C320 1.399 . S
C323 C325 1.392 . S
C323 H333 0.929 . S
C324 C320 1.383 . S
C324 C321 1.389 . S
C324 H334 0.931 . S
C325 C322 1.380 . S
C325 C323 1.392 . S
C325 H335 0.929 . S
C326 O306 1.266 . S
C326 O307 1.248 . S
C327 Tb263 2.802 . S
C327 O302 1.264 . S
C327 O305 1.256 . S
C327 C320 1.496 . S
H328 C311 0.929 . S
H329 C312 0.929 . S
H330 C313 0.929 . S
H331 C314 0.931 . S
H332 C322 0.929 . S
H333 C323 0.929 . S
H334 C324 0.931 . S
H335 C325 0.929 . S
Tb336 N365 2.617 . S
Tb336 N371 2.572 . S
Tb336 O380 2.465 . S
Tb336 O381 2.387 . S
Tb336 O383 2.428 . S
Tb336 O384 2.308 . S
Tb336 O388 2.349 . S
Tb336 O391 2.393 . S
Tb336 C400 2.802 . S
C337 N338 1.379 . S
C337 C340 1.416 . S
C337 C344 1.424 . S
N338 C337 1.379 . S
N338 C341 1.334 . S
N338 Tb347 2.617 . S
C339 C341 1.390 . S
C339 C342 1.339 . S
C339 H359 0.930 . S
C340 C337 1.416 . S
C340 C342 1.416 . S
C340 C346 1.448 . S
C341 N338 1.334 . S
C341 C339 1.390 . S
C341 H352 0.930 . S
C342 C339 1.339 . S
C342 C340 1.416 . S
C342 H363 0.930 1_655 S
C343 C344 1.413 . S
C343 C345 1.427 . S
C343 C349 1.416 . S
C344 C337 1.424 . S
C344 C343 1.413 . S
C344 N348 1.361 . S
C345 C343 1.427 . S
C345 C346 1.328 . S
C345 H360 0.929 . S
C346 C340 1.448 . S
C346 C345 1.328 . S
C346 H361 0.930 1_655 S
Tb347 N338 2.617 . S
Tb347 N348 2.572 . S
Tb347 O382 2.349 . S
Tb347 O385 2.393 . S
Tb347 O386 2.465 . S
Tb347 O387 2.387 . S
Tb347 O389 2.428 . S
Tb347 O390 2.308 . S
Tb347 C411 2.802 . S
N348 C344 1.361 . S
N348 Tb347 2.572 . S
N348 C350 1.340 . S
C349 C343 1.416 . S
C349 C351 1.332 . S
C349 H357 0.931 . S
C350 N348 1.340 . S
C350 C351 1.407 . S
C350 H356 0.930 . S
C351 C349 1.332 . S
C351 C350 1.407 . S
C351 H353 0.929 . S
H352 C341 0.930 . S
H353 C351 0.929 . S
H354 C369 0.930 . S
H355 C376 0.929 . S
H356 C350 0.930 . S
H357 C349 0.931 . S
H358 C372 0.930 . S
H359 C339 0.930 . S
H360 C345 0.929 . S
H361 C346 0.930 1_455 S
H362 C367 0.930 . S
H363 C342 0.930 1_455 S
H364 C375 0.931 . S
N365 Tb336 2.617 . S
N365 C366 1.379 . S
N365 C369 1.334 . S
C366 N365 1.379 . S
C366 C368 1.416 . S
C366 C374 1.424 . S
C367 H362 0.930 . S
C367 C369 1.390 . S
C367 C370 1.339 . S
C368 C366 1.416 . S
C368 C370 1.416 . S
C368 C401 1.448 . S
C369 H354 0.930 . S
C369 N365 1.334 . S
C369 C367 1.390 . S
C370 C367 1.339 . S
C370 C368 1.416 . S
C370 H377 0.930 . S
N371 Tb336 2.572 . S
N371 C372 1.340 . S
N371 C374 1.361 . S
C372 H358 0.930 . S
C372 N371 1.340 . S
C372 C376 1.407 . S
C373 C374 1.413 . S
C373 C375 1.416 . S
C373 C402 1.427 . S
C374 C366 1.424 . S
C374 N371 1.361 . S
C374 C373 1.413 . S
C375 H364 0.931 . S
C375 C373 1.416 . S
C375 C376 1.332 . S
C376 H355 0.929 . S
C376 C372 1.407 . S
C376 C375 1.332 . S
H377 C370 0.930 . S
H378 C401 0.930 . S
H379 C402 0.929 . S
O380 Tb336 2.465 . S
O380 C400 1.264 . S
O381 Tb336 2.387 . S
O381 C392 1.264 . S
O382 Tb347 2.349 . S
O382 C392 1.243 . S
O383 Tb336 2.428 . S
O383 C400 1.256 . S
O384 Tb336 2.308 . S
O384 C399 1.266 . S
O385 Tb347 2.393 . S
O385 C399 1.248 . S
O386 Tb347 2.465 . S
O386 C411 1.264 . S
O387 Tb347 2.387 . S
O387 C403 1.264 . S
O388 Tb336 2.349 . S
O388 C403 1.243 . S
O389 Tb347 2.428 . S
O389 C411 1.256 . S
O390 Tb347 2.308 . S
O390 C410 1.266 . S
O391 Tb336 2.393 . S
O391 C410 1.248 . S
C392 O381 1.264 . S
C392 O382 1.243 . S
C393 C396 1.399 . S
C393 C398 1.383 . S
C393 C400 1.496 . S
C394 C395 1.399 . S
C394 C398 1.389 . S
C395 C394 1.399 . S
C395 C397 1.380 . S
C395 H412 0.929 . S
C396 C393 1.399 . S
C396 C397 1.392 . S
C396 H413 0.929 . S
C397 C395 1.380 . S
C397 C396 1.392 . S
C397 H414 0.929 . S
C398 C393 1.383 . S
C398 C394 1.389 . S
C398 H415 0.931 . S
C399 O384 1.266 . S
C399 O385 1.248 . S
C400 Tb336 2.802 . S
C400 O380 1.264 . S
C400 O383 1.256 . S
C400 C393 1.496 . S
C401 C368 1.448 . S
C401 H378 0.930 . S
C401 C402 1.328 . S
C402 C373 1.427 . S
C402 H379 0.929 . S
C402 C401 1.328 . S
C403 O387 1.264 . S
C403 O388 1.243 . S
C404 C407 1.399 . S
C404 C408 1.383 . S
C404 C411 1.496 1_556 S
C405 C406 1.399 . S
C405 C408 1.389 . S
C406 C405 1.399 . S
C406 C409 1.380 . S
C406 H416 0.929 . S
C407 C404 1.399 . S
C407 C409 1.392 . S
C407 H417 0.929 . S
C408 C404 1.383 . S
C408 C405 1.389 . S
C408 H418 0.931 . S
C409 C406 1.380 . S
C409 C407 1.392 . S
C409 H419 0.929 . S
C410 O390 1.266 . S
C410 O391 1.248 . S
C411 Tb347 2.802 . S
C411 O386 1.264 . S
C411 O389 1.256 . S
C411 C404 1.496 1_554 S
H412 C395 0.929 . S
H413 C396 0.929 . S
H414 C397 0.929 . S
H415 C398 0.931 . S
H416 C406 0.929 . S
H417 C407 0.929 . S
H418 C408 0.931 . S
H419 C409 0.929 . S
Tb420 N449 2.617 . S
Tb420 N455 2.572 . S
Tb420 O464 2.465 . S
Tb420 O465 2.387 . S
Tb420 O467 2.428 . S
Tb420 O468 2.308 . S
Tb420 O472 2.349 . S
Tb420 O475 2.393 . S
Tb420 C484 2.802 . S
C421 N422 1.379 . S
C421 C424 1.416 . S
C421 C428 1.424 . S
N422 C421 1.379 . S
N422 C425 1.334 . S
N422 Tb431 2.617 . S
C423 C425 1.390 . S
C423 C426 1.339 . S
C423 H443 0.930 . S
C424 C421 1.416 . S
C424 C426 1.416 . S
C424 C430 1.448 . S
C425 N422 1.334 . S
C425 C423 1.390 . S
C425 H436 0.930 . S
C426 C423 1.339 . S
C426 C424 1.416 . S
C426 H447 0.930 1_655 S
C427 C428 1.413 . S
C427 C429 1.427 . S
C427 C433 1.416 . S
C428 C421 1.424 . S
C428 C427 1.413 . S
C428 N432 1.361 . S
C429 C427 1.427 . S
C429 C430 1.328 . S
C429 H444 0.929 . S
C430 C424 1.448 . S
C430 C429 1.328 . S
C430 H445 0.930 1_655 S
Tb431 N422 2.617 . S
Tb431 N432 2.572 . S
Tb431 O466 2.349 . S
Tb431 O469 2.393 . S
Tb431 O470 2.465 . S
Tb431 O471 2.387 . S
Tb431 O473 2.428 . S
Tb431 O474 2.308 . S
Tb431 C495 2.802 . S
N432 C428 1.361 . S
N432 Tb431 2.572 . S
N432 C434 1.340 . S
C433 C427 1.416 . S
C433 C435 1.332 . S
C433 H441 0.931 . S
C434 N432 1.340 . S
C434 C435 1.407 . S
C434 H440 0.930 . S
C435 C433 1.332 . S
C435 C434 1.407 . S
C435 H437 0.929 . S
H436 C425 0.930 . S
H437 C435 0.929 . S
H438 C453 0.930 . S
H439 C460 0.929 . S
H440 C434 0.930 . S
H441 C433 0.931 . S
H442 C456 0.930 . S
H443 C423 0.930 . S
H444 C429 0.929 . S
H445 C430 0.930 1_455 S
H446 C451 0.930 . S
H447 C426 0.930 1_455 S
H448 C459 0.931 . S
N449 Tb420 2.617 . S
N449 C450 1.379 . S
N449 C453 1.334 . S
C450 N449 1.379 . S
C450 C452 1.416 . S
C450 C458 1.424 . S
C451 H446 0.930 . S
C451 C453 1.390 . S
C451 C454 1.339 . S
C452 C450 1.416 . S
C452 C454 1.416 . S
C452 C485 1.448 . S
C453 H438 0.930 . S
C453 N449 1.334 . S
C453 C451 1.390 . S
C454 C451 1.339 . S
C454 C452 1.416 . S
C454 H461 0.930 . S
N455 Tb420 2.572 . S
N455 C456 1.340 . S
N455 C458 1.361 . S
C456 H442 0.930 . S
C456 N455 1.340 . S
C456 C460 1.407 . S
C457 C458 1.413 . S
C457 C459 1.416 . S
C457 C486 1.427 . S
C458 C450 1.424 . S
C458 N455 1.361 . S
C458 C457 1.413 . S
C459 H448 0.931 . S
C459 C457 1.416 . S
C459 C460 1.332 . S
C460 H439 0.929 . S
C460 C456 1.407 . S
C460 C459 1.332 . S
H461 C454 0.930 . S
H462 C485 0.930 . S
H463 C486 0.929 . S
O464 Tb420 2.465 . S
O464 C484 1.264 . S
O465 Tb420 2.387 . S
O465 C476 1.264 . S
O466 Tb431 2.349 . S
O466 C476 1.243 . S
O467 Tb420 2.428 . S
O467 C484 1.256 . S
O468 Tb420 2.308 . S
O468 C483 1.266 . S
O469 Tb431 2.393 . S
O469 C483 1.248 . S
O470 Tb431 2.465 . S
O470 C495 1.264 . S
O471 Tb431 2.387 . S
O471 C487 1.264 . S
O472 Tb420 2.349 . S
O472 C487 1.243 . S
O473 Tb431 2.428 . S
O473 C495 1.256 . S
O474 Tb431 2.308 . S
O474 C494 1.266 . S
O475 Tb420 2.393 . S
O475 C494 1.248 . S
C476 O465 1.264 . S
C476 O466 1.243 . S
C477 C480 1.399 . S
C477 C482 1.383 . S
C477 C484 1.496 . S
C478 C479 1.399 . S
C478 C482 1.389 . S
C479 C478 1.399 . S
C479 C481 1.380 . S
C479 H496 0.929 . S
C480 C477 1.399 . S
C480 C481 1.392 . S
C480 H497 0.929 . S
C481 C479 1.380 . S
C481 C480 1.392 . S
C481 H498 0.929 . S
C482 C477 1.383 . S
C482 C478 1.389 . S
C482 H499 0.931 . S
C483 O468 1.266 . S
C483 O469 1.248 . S
C484 Tb420 2.802 . S
C484 O464 1.264 . S
C484 O467 1.256 . S
C484 C477 1.496 . S
C485 C452 1.448 . S
C485 H462 0.930 . S
C485 C486 1.328 . S
C486 C457 1.427 . S
C486 H463 0.929 . S
C486 C485 1.328 . S
C487 O471 1.264 . S
C487 O472 1.243 . S
C488 C491 1.399 . S
C488 C492 1.383 . S
C488 C495 1.496 1_554 S
C489 C490 1.399 . S
C489 C492 1.389 . S
C490 C489 1.399 . S
C490 C493 1.380 . S
C490 H500 0.929 . S
C491 C488 1.399 . S
C491 C493 1.392 . S
C491 H501 0.929 . S
C492 C488 1.383 . S
C492 C489 1.389 . S
C492 H502 0.931 . S
C493 C490 1.380 . S
C493 C491 1.392 . S
C493 H503 0.929 . S
C494 O474 1.266 . S
C494 O475 1.248 . S
C495 Tb431 2.802 . S
C495 O470 1.264 . S
C495 O473 1.256 . S
C495 C488 1.496 1_556 S
H496 C479 0.929 . S
H497 C480 0.929 . S
H498 C481 0.929 . S
H499 C482 0.931 . S
H500 C490 0.929 . S
H501 C491 0.929 . S
H502 C492 0.931 . S
H503 C493 0.929 . S
Tb504 N533 2.617 . S
Tb504 N539 2.572 . S
Tb504 O548 2.465 . S
Tb504 O549 2.387 1_554 S
Tb504 O551 2.428 . S
Tb504 O552 2.308 . S
Tb504 O556 2.349 . S
Tb504 O559 2.393 . S
Tb504 C568 2.802 . S
C505 N506 1.379 . S
C505 C508 1.416 . S
C505 C512 1.424 . S
N506 C505 1.379 . S
N506 C509 1.334 . S
N506 Tb515 2.617 . S
C507 C509 1.390 . S
C507 C510 1.339 . S
C507 H527 0.930 . S
C508 C505 1.416 . S
C508 C510 1.416 . S
C508 C514 1.448 . S
C509 N506 1.334 . S
C509 C507 1.390 . S
C509 H520 0.930 . S
C510 C507 1.339 . S
C510 C508 1.416 . S
C510 H531 0.930 . S
C511 C512 1.413 . S
C511 C513 1.427 . S
C511 C517 1.416 . S
C512 C505 1.424 . S
C512 C511 1.413 . S
C512 N516 1.361 . S
C513 C511 1.427 . S
C513 C514 1.328 . S
C513 H528 0.929 . S
C514 C508 1.448 . S
C514 C513 1.328 . S
C514 H529 0.930 . S
Tb515 N506 2.617 . S
Tb515 N516 2.572 . S
Tb515 O550 2.349 . S
Tb515 O553 2.393 . S
Tb515 O554 2.465 . S
Tb515 O555 2.387 1_556 S
Tb515 O557 2.428 . S
Tb515 O558 2.308 . S
Tb515 C579 2.802 . S
N516 C512 1.361 . S
N516 Tb515 2.572 . S
N516 C518 1.340 . S
C517 C511 1.416 . S
C517 C519 1.332 . S
C517 H525 0.931 . S
C518 N516 1.340 . S
C518 C519 1.407 . S
C518 H524 0.930 . S
C519 C517 1.332 . S
C519 C518 1.407 . S
C519 H521 0.929 . S
H520 C509 0.930 . S
H521 C519 0.929 . S
H522 C537 0.930 . S
H523 C544 0.929 . S
H524 C518 0.930 . S
H525 C517 0.931 . S
H526 C540 0.930 . S
H527 C507 0.930 . S
H528 C513 0.929 . S
H529 C514 0.930 . S
H530 C535 0.930 . S
H531 C510 0.930 . S
H532 C543 0.931 . S
N533 Tb504 2.617 . S
N533 C534 1.379 . S
N533 C537 1.334 . S
C534 N533 1.379 . S
C534 C536 1.416 . S
C534 C542 1.424 . S
C535 H530 0.930 . S
C535 C537 1.390 . S
C535 C538 1.339 . S
C536 C534 1.416 . S
C536 C538 1.416 . S
C536 C569 1.448 . S
C537 H522 0.930 . S
C537 N533 1.334 . S
C537 C535 1.390 . S
C538 C535 1.339 . S
C538 C536 1.416 . S
C538 H545 0.930 . S
N539 Tb504 2.572 . S
N539 C540 1.340 . S
N539 C542 1.361 . S
C540 H526 0.930 . S
C540 N539 1.340 . S
C540 C544 1.407 . S
C541 C542 1.413 . S
C541 C543 1.416 . S
C541 C570 1.427 . S
C542 C534 1.424 . S
C542 N539 1.361 . S
C542 C541 1.413 . S
C543 H532 0.931 . S
C543 C541 1.416 . S
C543 C544 1.332 . S
C544 H523 0.929 . S
C544 C540 1.407 . S
C544 C543 1.332 . S
H545 C538 0.930 . S
H546 C569 0.930 . S
H547 C570 0.929 . S
O548 Tb504 2.465 . S
O548 C568 1.264 . S
O549 Tb504 2.387 1_556 S
O549 C560 1.264 . S
O550 Tb515 2.349 . S
O550 C560 1.243 . S
O551 Tb504 2.428 . S
O551 C568 1.256 . S
O552 Tb504 2.308 . S
O552 C567 1.266 . S
O553 Tb515 2.393 . S
O553 C567 1.248 1_556 S
O554 Tb515 2.465 . S
O554 C579 1.264 . S
O555 Tb515 2.387 1_554 S
O555 C571 1.264 . S
O556 Tb504 2.349 . S
O556 C571 1.243 . S
O557 Tb515 2.428 . S
O557 C579 1.256 . S
O558 Tb515 2.308 . S
O558 C578 1.266 . S
O559 Tb504 2.393 . S
O559 C578 1.248 1_554 S
C560 O549 1.264 . S
C560 O550 1.243 . S
C561 C564 1.399 . S
C561 C566 1.383 . S
C561 C568 1.496 . S
C562 C563 1.399 . S
C562 C566 1.389 . S
C563 C562 1.399 . S
C563 C565 1.380 . S
C563 H580 0.929 . S
C564 C561 1.399 . S
C564 C565 1.392 . S
C564 H581 0.929 . S
C565 C563 1.380 . S
C565 C564 1.392 . S
C565 H582 0.929 . S
C566 C561 1.383 . S
C566 C562 1.389 . S
C566 H583 0.931 . S
C567 O552 1.266 . S
C567 O553 1.248 1_554 S
C568 Tb504 2.802 . S
C568 O548 1.264 . S
C568 O551 1.256 . S
C568 C561 1.496 . S
C569 C536 1.448 . S
C569 H546 0.930 . S
C569 C570 1.328 . S
C570 C541 1.427 . S
C570 H547 0.929 . S
C570 C569 1.328 . S
C571 O555 1.264 . S
C571 O556 1.243 . S
C572 C575 1.399 . S
C572 C576 1.383 . S
C572 C579 1.496 . S
C573 C574 1.399 . S
C573 C576 1.389 . S
C574 C573 1.399 . S
C574 C577 1.380 . S
C574 H584 0.929 . S
C575 C572 1.399 . S
C575 C577 1.392 . S
C575 H585 0.929 . S
C576 C572 1.383 . S
C576 C573 1.389 . S
C576 H586 0.931 . S
C577 C574 1.380 . S
C577 C575 1.392 . S
C577 H587 0.929 . S
C578 O558 1.266 . S
C578 O559 1.248 1_556 S
C579 Tb515 2.802 . S
C579 O554 1.264 . S
C579 O557 1.256 . S
C579 C572 1.496 . S
H580 C563 0.929 . S
H581 C564 0.929 . S
H582 C565 0.929 . S
H583 C566 0.931 . S
H584 C574 0.929 . S
H585 C575 0.929 . S
H586 C576 0.931 . S
H587 C577 0.929 . S
Tb588 N617 2.617 . S
Tb588 N623 2.572 1_455 S
Tb588 O632 2.465 1_455 S
Tb588 O633 2.387 1_455 S
Tb588 O635 2.428 . S
Tb588 O636 2.308 1_455 S
Tb588 O640 2.349 . S
Tb588 O643 2.393 . S
Tb588 C652 2.802 . S
C589 N590 1.379 1_455 S
C589 C592 1.416 . S
C589 C596 1.424 . S
N590 C589 1.379 1_655 S
N590 C593 1.334 . S
N590 Tb599 2.617 . S
C591 C593 1.390 . S
C591 C594 1.339 . S
C591 H611 0.930 . S
C592 C589 1.416 . S
C592 C594 1.416 1_455 S
C592 C598 1.448 . S
C593 N590 1.334 . S
C593 C591 1.390 . S
C593 H604 0.930 . S
C594 C591 1.339 . S
C594 C592 1.416 1_655 S
C594 H615 0.930 . S
C595 C596 1.413 . S
C595 C597 1.427 . S
C595 C601 1.416 . S
C596 C589 1.424 . S
C596 C595 1.413 . S
C596 N600 1.361 . S
C597 C595 1.427 . S
C597 C598 1.328 . S
C597 H612 0.929 . S
C598 C592 1.448 . S
C598 C597 1.328 . S
C598 H613 0.930 . S
Tb599 N590 2.617 . S
Tb599 N600 2.572 1_655 S
Tb599 O634 2.349 . S
Tb599 O637 2.393 . S
Tb599 O638 2.465 1_655 S
Tb599 O639 2.387 1_655 S
Tb599 O641 2.428 . S
Tb599 O642 2.308 1_655 S
Tb599 C663 2.802 . S
N600 C596 1.361 . S
N600 Tb599 2.572 1_455 S
N600 C602 1.340 . S
C601 C595 1.416 . S
C601 C603 1.332 . S
C601 H609 0.931 . S
C602 N600 1.340 . S
C602 C603 1.407 . S
C602 H608 0.930 . S
C603 C601 1.332 . S
C603 C602 1.407 . S
C603 H605 0.929 . S
H604 C593 0.930 . S
H605 C603 0.929 . S
H606 C621 0.930 . S
H607 C628 0.929 . S
H608 C602 0.930 . S
H609 C601 0.931 . S
H610 C624 0.930 . S
H611 C591 0.930 . S
H612 C597 0.929 . S
H613 C598 0.930 . S
H614 C619 0.930 . S
H615 C594 0.930 . S
H616 C627 0.931 . S
N617 Tb588 2.617 . S
N617 C618 1.379 1_455 S
N617 C621 1.334 . S
C618 N617 1.379 1_655 S
C618 C620 1.416 . S
C618 C626 1.424 . S
C619 H614 0.930 . S
C619 C621 1.390 . S
C619 C622 1.339 . S
C620 C618 1.416 . S
C620 C622 1.416 1_655 S
C620 C653 1.448 . S
C621 H606 0.930 . S
C621 N617 1.334 . S
C621 C619 1.390 . S
C622 C619 1.339 . S
C622 C620 1.416 1_455 S
C622 H629 0.930 . S
N623 Tb588 2.572 1_655 S
N623 C624 1.340 . S
N623 C626 1.361 . S
C624 H610 0.930 . S
C624 N623 1.340 . S
C624 C628 1.407 . S
C625 C626 1.413 . S
C625 C627 1.416 . S
C625 C654 1.427 . S
C626 C618 1.424 . S
C626 N623 1.361 . S
C626 C625 1.413 . S
C627 H616 0.931 . S
C627 C625 1.416 . S
C627 C628 1.332 . S
C628 H607 0.929 . S
C628 C624 1.407 . S
C628 C627 1.332 . S
H629 C622 0.930 . S
H630 C653 0.930 . S
H631 C654 0.929 . S
O632 Tb588 2.465 1_655 S
O632 C652 1.264 1_655 S
O633 Tb588 2.387 1_655 S
O633 C644 1.264 . S
O634 Tb599 2.349 . S
O634 C644 1.243 . S
O635 Tb588 2.428 . S
O635 C652 1.256 . S
O636 Tb588 2.308 1_655 S
O636 C651 1.266 . S
O637 Tb599 2.393 . S
O637 C651 1.248 . S
O638 Tb599 2.465 1_455 S
O638 C663 1.264 1_455 S
O639 Tb599 2.387 1_455 S
O639 C655 1.264 . S
O640 Tb588 2.349 . S
O640 C655 1.243 . S
O641 Tb599 2.428 . S
O641 C663 1.256 . S
O642 Tb599 2.308 1_455 S
O642 C662 1.266 . S
O643 Tb588 2.393 . S
O643 C662 1.248 . S
C644 O633 1.264 . S
C644 O634 1.243 . S
C645 C648 1.399 . S
C645 C650 1.383 . S
C645 C652 1.496 . S
C646 C647 1.399 . S
C646 C650 1.389 . S
C647 C646 1.399 . S
C647 C649 1.380 . S
C647 H664 0.929 . S
C648 C645 1.399 . S
C648 C649 1.392 . S
C648 H665 0.929 . S
C649 C647 1.380 . S
C649 C648 1.392 . S
C649 H666 0.929 . S
C650 C645 1.383 . S
C650 C646 1.389 . S
C650 H667 0.931 1_455 S
C651 O636 1.266 . S
C651 O637 1.248 . S
C652 Tb588 2.802 . S
C652 O632 1.264 1_455 S
C652 O635 1.256 . S
C652 C645 1.496 . S
C653 C620 1.448 . S
C653 H630 0.930 . S
C653 C654 1.328 . S
C654 C625 1.427 . S
C654 H631 0.929 . S
C654 C653 1.328 . S
C655 O639 1.264 . S
C655 O640 1.243 . S
C656 C659 1.399 . S
C656 C660 1.383 . S
C656 C663 1.496 . S
C657 C658 1.399 . S
C657 C660 1.389 . S
C658 C657 1.399 . S
C658 C661 1.380 . S
C658 H668 0.929 . S
C659 C656 1.399 . S
C659 C661 1.392 . S
C659 H669 0.929 . S
C660 C656 1.383 . S
C660 C657 1.389 . S
C660 H670 0.931 1_655 S
C661 C658 1.380 . S
C661 C659 1.392 . S
C661 H671 0.929 . S
C662 O642 1.266 . S
C662 O643 1.248 . S
C663 Tb599 2.802 . S
C663 O638 1.264 1_655 S
C663 O641 1.256 . S
C663 C656 1.496 . S
H664 C647 0.929 . S
H665 C648 0.929 . S
H666 C649 0.929 . S
H667 C650 0.931 1_655 S
H668 C658 0.929 . S
H669 C659 0.929 . S
H670 C660 0.931 1_455 S
H671 C661 0.929 . S
C672 C673 1.387 . S
C672 H676 0.950 . S
C672 C681 1.390 . S
C673 C672 1.387 . S
C673 C675 1.387 . S
H674 C681 0.950 . S
C675 C673 1.387 . S
C675 C677 1.390 . S
C675 H679 0.950 . S
H676 C672 0.950 . S
C677 C675 1.390 . S
C677 C678 1.387 . S
C677 H680 0.950 . S
C678 C677 1.387 . S
C678 C681 1.387 . S
H679 C675 0.950 . S
H680 C677 0.950 . S
C681 C672 1.390 . S
C681 H674 0.950 . S
C681 C678 1.387 . S
C682 C683 1.387 . S
C682 H686 0.950 . S
C682 C691 1.390 . S
C683 C682 1.387 . S
C683 C685 1.387 . S
H684 C691 0.950 . S
C685 C683 1.387 . S
C685 C687 1.390 . S
C685 H689 0.950 . S
H686 C682 0.950 . S
C687 C685 1.390 . S
C687 C688 1.387 . S
C687 H690 0.950 . S
C688 C687 1.387 . S
C688 C691 1.387 . S
H689 C685 0.950 . S
H690 C687 0.950 . S
C691 C682 1.390 . S
C691 H684 0.950 . S
C691 C688 1.387 . S
C692 C693 1.387 . S
C692 H696 0.950 . S
C692 C701 1.390 . S
C693 C692 1.387 . S
C693 C695 1.387 . S
H694 C701 0.950 . S
C695 C693 1.387 . S
C695 C697 1.390 . S
C695 H699 0.950 . S
H696 C692 0.950 . S
C697 C695 1.390 . S
C697 C698 1.387 . S
C697 H700 0.950 . S
C698 C697 1.387 . S
C698 C701 1.387 . S
H699 C695 0.950 . S
H700 C697 0.950 . S
C701 C692 1.390 . S
C701 H694 0.950 . S
C701 C698 1.387 . S
C702 C703 1.387 . S
C702 H706 0.950 . S
C702 C711 1.390 . S
C703 C702 1.387 . S
C703 C705 1.387 . S
H704 C711 0.950 . S
C705 C703 1.387 . S
C705 C707 1.390 . S
C705 H709 0.950 . S
H706 C702 0.950 . S
C707 C705 1.390 . S
C707 C708 1.387 . S
C707 H710 0.950 . S
C708 C707 1.387 . S
C708 C711 1.387 . S
H709 C705 0.950 . S
H710 C707 0.950 . S
C711 C702 1.390 . S
C711 H704 0.950 . S
C711 C708 1.387 . S
C712 C713 1.387 . S
C712 H716 0.950 . S
C712 C721 1.390 . S
C713 C712 1.387 . S
C713 C715 1.387 . S
H714 C721 0.950 . S
C715 C713 1.387 . S
C715 C717 1.390 . S
C715 H719 0.950 . S
H716 C712 0.950 . S
C717 C715 1.390 . S
C717 C718 1.387 . S
C717 H720 0.950 . S
C718 C717 1.387 . S
C718 C721 1.387 . S
H719 C715 0.950 . S
H720 C717 0.950 . S
C721 C712 1.390 . S
C721 H714 0.950 . S
C721 C718 1.387 . S
C722 C723 1.387 . S
C722 H726 0.950 . S
C722 C731 1.390 . S
C723 C722 1.387 . S
C723 C725 1.387 . S
H724 C731 0.950 . S
C725 C723 1.387 . S
C725 C727 1.390 . S
C725 H729 0.950 . S
H726 C722 0.950 . S
C727 C725 1.390 . S
C727 C728 1.387 . S
C727 H730 0.950 . S
C728 C727 1.387 . S
C728 C731 1.387 . S
H729 C725 0.950 . S
H730 C727 0.950 . S
C731 C722 1.390 . S
C731 H724 0.950 . S
C731 C728 1.387 . S
C732 C733 1.387 . S
C732 H736 0.950 . S
C732 C741 1.390 . S
C733 C732 1.387 . S
C733 C735 1.387 . S
H734 C741 0.950 . S
C735 C733 1.387 . S
C735 C737 1.390 . S
C735 H739 0.950 . S
H736 C732 0.950 . S
C737 C735 1.390 . S
C737 C738 1.387 . S
C737 H740 0.950 . S
C738 C737 1.387 . S
C738 C741 1.387 . S
H739 C735 0.950 . S
H740 C737 0.950 . S
C741 C732 1.390 . S
C741 H734 0.950 . S
C741 C738 1.387 . S
C742 C743 1.387 . S
C742 H746 0.950 . S
C742 C751 1.390 . S
C743 C742 1.387 . S
C743 C745 1.387 . S
H744 C751 0.950 . S
C745 C743 1.387 . S
C745 C747 1.390 . S
C745 H749 0.950 . S
H746 C742 0.950 . S
C747 C745 1.390 . S
C747 C748 1.387 . S
C747 H750 0.950 . S
C748 C747 1.387 . S
C748 C751 1.387 . S
H749 C745 0.950 . S
H750 C747 0.950 . S
C751 C742 1.390 . S
C751 H744 0.950 . S
C751 C748 1.387 . S
C752 C753 1.387 . S
C752 H756 0.950 . S
C752 C761 1.390 . S
C753 C752 1.387 . S
C753 C755 1.387 . S
H754 C761 0.950 . S
C755 C753 1.387 . S
C755 C757 1.390 . S
C755 H759 0.950 . S
H756 C752 0.950 . S
C757 C755 1.390 . S
C757 C758 1.387 . S
C757 H760 0.950 . S
C758 C757 1.387 . S
C758 C761 1.387 . S
H759 C755 0.950 . S
H760 C757 0.950 . S
C761 C752 1.390 . S
C761 H754 0.950 . S
C761 C758 1.387 . S
C762 C763 1.387 . S
C762 H766 0.950 . S
C762 C771 1.390 . S
C763 C762 1.387 . S
C763 C765 1.387 . S
H764 C771 0.950 . S
C765 C763 1.387 . S
C765 C767 1.390 . S
C765 H769 0.950 . S
H766 C762 0.950 . S
C767 C765 1.390 . S
C767 C768 1.387 . S
C767 H770 0.950 . S
C768 C767 1.387 . S
C768 C771 1.387 . S
H769 C765 0.950 . S
H770 C767 0.950 . S
C771 C762 1.390 . S
C771 H764 0.950 . S
C771 C768 1.387 . S
C772 C773 1.387 . S
C772 H776 0.950 . S
C772 C781 1.390 . S
C773 C772 1.387 . S
C773 C775 1.387 . S
H774 C781 0.950 . S
C775 C773 1.387 . S
C775 C777 1.390 . S
C775 H779 0.950 . S
H776 C772 0.950 . S
C777 C775 1.390 . S
C777 C778 1.387 . S
C777 H780 0.950 . S
C778 C777 1.387 . S
C778 C781 1.387 . S
H779 C775 0.950 . S
H780 C777 0.950 . S
C781 C772 1.390 . S
C781 H774 0.950 . S
C781 C778 1.387 . S
C782 C783 1.387 . S
C782 H786 0.950 . S
C782 C791 1.390 . S
C783 C782 1.387 . S
C783 C785 1.387 . S
H784 C791 0.950 . S
C785 C783 1.387 . S
C785 C787 1.390 . S
C785 H789 0.950 . S
H786 C782 0.950 . S
C787 C785 1.390 . S
C787 C788 1.387 . S
C787 H790 0.950 . S
C788 C787 1.387 . S
C788 C791 1.387 . S
H789 C785 0.950 . S
H790 C787 0.950 . S
C791 C782 1.390 . S
C791 H784 0.950 . S
C791 C788 1.387 . S
C792 C793 1.387 . S
C792 H796 0.950 . S
C792 C801 1.390 . S
C793 C792 1.387 . S
C793 C795 1.387 . S
H794 C801 0.950 . S
C795 C793 1.387 . S
C795 C797 1.390 . S
C795 H799 0.950 . S
H796 C792 0.950 . S
C797 C795 1.390 . S
C797 C798 1.387 . S
C797 H800 0.950 . S
C798 C797 1.387 . S
C798 C801 1.387 . S
H799 C795 0.950 . S
H800 C797 0.950 . S
C801 C792 1.390 . S
C801 H794 0.950 . S
C801 C798 1.387 . S
C802 C803 1.387 . S
C802 H806 0.950 . S
C802 C811 1.390 . S
C803 C802 1.387 . S
C803 C805 1.387 . S
H804 C811 0.950 . S
C805 C803 1.387 . S
C805 C807 1.390 . S
C805 H809 0.950 . S
H806 C802 0.950 . S
C807 C805 1.390 . S
C807 C808 1.387 . S
C807 H810 0.950 . S
C808 C807 1.387 . S
C808 C811 1.387 . S
H809 C805 0.950 . S
H810 C807 0.950 . S
C811 C802 1.390 . S
C811 H804 0.950 . S
C811 C808 1.387 . S
C812 C813 1.387 . S
C812 H816 0.950 . S
C812 C821 1.390 . S
C813 C812 1.387 . S
C813 C815 1.387 . S
H814 C821 0.950 . S
C815 C813 1.387 . S
C815 C817 1.390 . S
C815 H819 0.950 . S
H816 C812 0.950 . S
C817 C815 1.390 . S
C817 C818 1.387 . S
C817 H820 0.950 . S
C818 C817 1.387 . S
C818 C821 1.387 . S
H819 C815 0.950 . S
H820 C817 0.950 . S
C821 C812 1.390 . S
C821 H814 0.950 . S
C821 C818 1.387 . S
C822 C823 1.387 . S
C822 H826 0.950 . S
C822 C831 1.390 . S
C823 C822 1.387 . S
C823 C825 1.387 . S
H824 C831 0.950 . S
C825 C823 1.387 . S
C825 C827 1.390 . S
C825 H829 0.950 . S
H826 C822 0.950 . S
C827 C825 1.390 . S
C827 C828 1.387 . S
C827 H830 0.950 . S
C828 C827 1.387 . S
C828 C831 1.387 . S
H829 C825 0.950 . S
H830 C827 0.950 . S
C831 C822 1.390 . S
C831 H824 0.950 . S
C831 C828 1.387 . S
C832 C833 1.387 . S
C832 H836 0.950 . S
C832 C841 1.390 1_556 S
C833 C832 1.387 . S
C833 C835 1.387 1_645 S
H834 C841 0.950 . S
C835 C833 1.387 1_465 S
C835 C837 1.390 1_556 S
C835 H839 0.950 . S
H836 C832 0.950 . S
C837 C835 1.390 1_554 S
C837 C838 1.387 . S
C837 H840 0.950 . S
C838 C837 1.387 . S
C838 C841 1.387 1_465 S
H839 C835 0.950 . S
H840 C837 0.950 . S
C841 C832 1.390 1_554 S
C841 H834 0.950 . S
C841 C838 1.387 1_645 S
C842 C843 1.387 . S
C842 H846 0.950 . S
C842 C851 1.390 . S
C843 C842 1.387 . S
C843 C845 1.387 . S
H844 C851 0.950 . S
C845 C843 1.387 . S
C845 C847 1.390 . S
C845 H849 0.950 . S
H846 C842 0.950 . S
C847 C845 1.390 . S
C847 C848 1.387 . S
C847 H850 0.950 . S
C848 C847 1.387 . S
C848 C851 1.387 . S
H849 C845 0.950 . S
H850 C847 0.950 . S
C851 C842 1.390 . S
C851 H844 0.950 . S
C851 C848 1.387 . S
C852 C853 1.378 1_565 S
C852 H856 0.950 . S
C852 C861 1.390 . S
C853 C852 1.378 1_545 S
C853 C855 1.397 . S
H854 C861 0.950 . S
C855 C853 1.397 . S
C855 C857 1.390 . S
C855 H859 0.950 . S
H856 C852 0.950 . S
C857 C855 1.390 . S
C857 C858 1.382 1_545 S
C857 H860 0.950 . S
C858 C857 1.382 1_565 S
C858 C861 1.393 . S
H859 C855 0.950 . S
H860 C857 0.950 . S
C861 C852 1.390 . S
C861 H854 0.950 . S
C861 C858 1.393 . S
C862 C863 1.387 . S
C862 H866 0.950 . S
C862 C871 1.390 . S
C863 C862 1.387 . S
C863 C865 1.387 . S
H864 C871 0.950 . S
C865 C863 1.387 . S
C865 C867 1.390 . S
C865 H869 0.950 . S
H866 C862 0.950 . S
C867 C865 1.390 . S
C867 C868 1.387 . S
C867 H870 0.950 . S
C868 C867 1.387 . S
C868 C871 1.387 . S
H869 C865 0.950 . S
H870 C867 0.950 . S
C871 C862 1.390 . S
C871 H864 0.950 . S
C871 C868 1.387 . S
C872 C873 1.387 . S
C872 H876 0.950 . S
C872 C881 1.390 . S
C873 C872 1.387 . S
C873 C875 1.387 . S
H874 C881 0.950 . S
C875 C873 1.387 . S
C875 C877 1.390 . S
C875 H879 0.950 . S
H876 C872 0.950 . S
C877 C875 1.390 . S
C877 C878 1.387 . S
C877 H880 0.950 . S
C878 C877 1.387 . S
C878 C881 1.387 . S
H879 C875 0.950 . S
H880 C877 0.950 . S
C881 C872 1.390 . S
C881 H874 0.950 . S
C881 C878 1.387 . S
C882 C883 1.387 . S
C882 H886 0.950 . S
C882 C891 1.390 . S
C883 C882 1.387 . S
C883 C885 1.387 . S
H884 C891 0.950 . S
C885 C883 1.387 . S
C885 C887 1.390 . S
C885 H889 0.950 . S
H886 C882 0.950 . S
C887 C885 1.390 . S
C887 C888 1.387 . S
C887 H890 0.950 . S
C888 C887 1.387 . S
C888 C891 1.387 . S
H889 C885 0.950 . S
H890 C887 0.950 . S
C891 C882 1.390 . S
C891 H884 0.950 . S
C891 C888 1.387 . S
C892 C893 1.387 . S
C892 H896 0.950 . S
C892 C901 1.390 . S
C893 C892 1.387 . S
C893 C895 1.387 . S
H894 C901 0.950 . S
C895 C893 1.387 . S
C895 C897 1.390 . S
C895 H899 0.950 . S
H896 C892 0.950 . S
C897 C895 1.390 . S
C897 C898 1.387 . S
C897 H900 0.950 . S
C898 C897 1.387 . S
C898 C901 1.387 . S
H899 C895 0.950 . S
H900 C897 0.950 . S
C901 C892 1.390 . S
C901 H894 0.950 . S
C901 C898 1.387 . S
C902 C903 1.387 . S
C902 H906 0.950 . S
C902 C911 1.390 1_456 S
C903 C902 1.387 . S
C903 C905 1.387 . S
H904 C911 0.950 . S
C905 C903 1.387 . S
C905 C907 1.389 1_456 S
C905 H909 0.950 . S
H906 C902 0.950 . S
C907 C905 1.389 1_654 S
C907 C908 1.388 . S
C907 H910 0.951 . S
C908 C907 1.388 . S
C908 C911 1.387 . S
H909 C905 0.950 . S
H910 C907 0.951 . S
C911 C902 1.390 1_654 S
C911 H904 0.950 . S
C911 C908 1.387 . S
C673 C56 1.505 . S
C678 C308 1.504 . S
C683 C63 1.522 . S
C688 C140 1.509 . S
C693 C147 1.518 . S
C698 C224 1.510 . S
C703 C231 1.523 . S
C708 C315 1.521 . S
C713 C67 1.507 . S
C718 C487 1.508 . S
C723 C74 1.522 . S
C728 C403 1.508 . S
C733 C410 1.518 . S
C738 C235 1.507 . S
C743 C494 1.522 . S
C748 C242 1.524 . S
C753 C560 1.507 . S
C758 C476 1.506 . S
C763 C392 1.507 . S
C768 C567 1.521 . S
C773 C644 1.508 . S
C778 C399 1.519 . S
C783 C483 1.523 . S
C788 C651 1.524 . S
C793 C319 1.506 . S
C798 C571 1.505 . S
C803 C578 1.522 . S
C808 C151 1.509 . S
C813 C158 1.518 . S
C818 C655 1.507 . S
C823 C326 1.523 . S
C828 C662 1.522 . S
C833 C58 1.290 . S
C838 C69 1.290 . S
C843 C153 1.273 . S
C848 C142 1.273 . S
C853 C237 1.283 . S
C858 C226 1.281 . S
C863 C310 1.274 . S
C868 C321 1.274 . S
C873 C405 1.274 . S
C878 C394 1.274 . S
C883 C478 1.273 . S
C888 C489 1.273 . S
C893 C573 1.291 . S
C898 C562 1.291 . S
C903 C646 1.276 . S
C908 C657 1.276 . S
