# Generated by pormake.
# Topology rob, (6)-cn, num edge types: 1
# Building blocks:
#     Node 0, Type 0, BuildingBlock: CUWYAW_clean_sbu_0, # of connection points: 6
#     Node 1, Type 0, BuildingBlock: CUWYAW_clean_sbu_0, # of connection points: 6
#     Node 2, Type 0, BuildingBlock: CUWYAW_clean_sbu_0, # of connection points: 6
#     Node 3, Type 0, BuildingBlock: CUWYAW_clean_sbu_0, # of connection points: 6
#     Edge 4, Type (0, 0), BuildingBlock: ZUJKAS_clean_linker_0, # of connection points: 2
#     Edge 5, Type (0, 0), BuildingBlock: ZUJKAS_clean_linker_0, # of connection points: 2
#     Edge 6, Type (0, 0), BuildingBlock: ZUJKAS_clean_linker_0, # of connection points: 2
#     Edge 7, Type (0, 0), BuildingBlock: ZUJKAS_clean_linker_0, # of connection points: 2
#     Edge 8, Type (0, 0), BuildingBlock: ZUJKAS_clean_linker_0, # of connection points: 2
#     Edge 9, Type (0, 0), BuildingBlock: ZUJKAS_clean_linker_0, # of connection points: 2
#     Edge 10, Type (0, 0), BuildingBlock: ZUJKAS_clean_linker_0, # of connection points: 2
#     Edge 11, Type (0, 0), BuildingBlock: ZUJKAS_clean_linker_0, # of connection points: 2
#     Edge 12, Type (0, 0), BuildingBlock: ZUJKAS_clean_linker_0, # of connection points: 2
#     Edge 13, Type (0, 0), BuildingBlock: ZUJKAS_clean_linker_0, # of connection points: 2
#     Edge 14, Type (0, 0), BuildingBlock: ZUJKAS_clean_linker_0, # of connection points: 2
#     Edge 15, Type (0, 0), BuildingBlock: ZUJKAS_clean_linker_0, # of connection points: 2
# Relax obj value: 0.035
# Max RMSD: 0.131
# Mean RMSD: 0.131
data_MOF--net-rob--node1-CUWYAW_clean_sbu_0--edge1-ZUJKAS_clean_linker_0
_symmetry_space_group_name_H-M    P1
_symmetry_Int_Tables_number       1
_symmetry_cell_setting            triclinic
loop_
_symmetry_equiv_pos_as_xyz
'x, y, z'
_cell_length_a     19.750641
_cell_length_b     31.990223
_cell_length_c     44.9493
_cell_angle_alpha  94.886154
_cell_angle_beta   89.865595
_cell_angle_gamma 89.879034
loop_
_atom_site_label
_atom_site_type_symbol
_atom_site_fract_x
_atom_site_fract_y
_atom_site_fract_z
_atom_type_partial_charge
C0 C 0.42585 0.25454 0.9717 0.0
Eu1 Eu 0.31475 0.25861 1.00321 0.0
C2 C 0.44284 0.2554 0.93975 0.0
C3 C 0.49002 0.22667 0.92658 0.0
C4 C 0.50557 0.22633 0.89618 0.0
C5 C 0.47404 0.2547 0.8783 0.0
C6 C 0.42668 0.28347 0.89161 0.0
C7 C 0.41139 0.2839 0.92203 0.0
C8 C 0.23019 0.1942 0.01142 0.0
C9 C 0.18903 0.28353 0.96005 0.0
C10 C 0.06674 0.28666 0.06169 0.0
Eu11 Eu 0.17788 0.28396 0.03022 0.0
C12 C 0.05065 0.28963 0.09378 0.0
C13 C 0.09764 0.30609 0.11503 0.0
C14 C 0.08245 0.30761 0.14553 0.0
C15 C 0.02007 0.29249 0.15537 0.0
C16 C 0.97343 0.2758 0.13388 0.0
C17 C 0.98862 0.27444 0.10341 0.0
C18 C 0.26291 0.34843 0.02243 0.0
C19 C 0.30408 0.26004 0.07364 0.0
O20 O 0.40238 0.28936 0.9854 0.0
O21 O 0.39334 0.22136 0.97906 0.0
O22 O 0.29515 0.19248 0.01555 0.0
O23 O 0.21355 0.2287 1.00193 0.0
O24 O 0.25531 0.28145 0.96421 0.0
O25 O 0.14589 0.27961 0.98213 0.0
O26 O 0.09559 0.25165 0.05108 0.0
O27 O 0.0943 0.31977 0.05147 0.0
O28 O 0.19783 0.3506 0.01874 0.0
O29 O 0.27899 0.3137 0.03163 0.0
O30 O 0.23788 0.26331 0.06973 0.0
O31 O 0.34713 0.26218 0.05128 0.0
H32 H 0.51461 0.20429 0.9398 0.0
H33 H 0.54165 0.20343 0.88658 0.0
H34 H 0.40209 0.30609 0.8786 0.0
H35 H 0.37498 0.30654 0.93167 0.0
H36 H 0.14614 0.31769 0.10803 0.0
H37 H 0.11935 0.32101 0.16135 0.0
H38 H 0.92551 0.26312 0.14058 0.0
H39 H 0.9521 0.26115 0.08734 0.0
C40 C 0.924 0.7472 0.97404 0.0
Eu41 Eu 0.81369 0.75631 1.00591 0.0
C42 C 0.9415 0.74904 0.94226 0.0
C43 C 0.98676 0.71958 0.92851 0.0
C44 C 0.00245 0.72006 0.89817 0.0
C45 C 0.97282 0.74995 0.88096 0.0
C46 C 0.92737 0.77944 0.89484 0.0
C47 C 0.91211 0.77911 0.92522 0.0
C48 C 0.72395 0.69527 0.01592 0.0
C49 C 0.69044 0.78518 0.9629 0.0
C50 C 0.57004 0.79568 0.06538 0.0
Eu51 Eu 0.67975 0.78722 0.0331 0.0
C52 C 0.55403 0.79476 0.09743 0.0
C53 C 0.51032 0.82505 0.11135 0.0
C54 C 0.49562 0.82519 0.14184 0.0
C55 C 0.52421 0.79488 0.15899 0.0
C56 C 0.56809 0.76456 0.14496 0.0
C57 C 0.583 0.76456 0.11452 0.0
C58 C 0.76923 0.84826 0.02284 0.0
C59 C 0.80382 0.75909 0.07615 0.0
O60 O 0.90625 0.78254 0.98887 0.0
O61 O 0.88585 0.71576 0.98031 0.0
O62 O 0.78877 0.69167 0.0198 0.0
O63 O 0.71003 0.72979 1.00578 0.0
O64 O 0.75633 0.78044 0.96693 0.0
O65 O 0.64689 0.78382 0.98513 0.0
O66 O 0.5889 0.76018 0.05107 0.0
O67 O 0.60614 0.8275 0.0581 0.0
O68 O 0.70433 0.85184 0.01909 0.0
O69 O 0.7832 0.81384 0.03314 0.0
O70 O 0.73802 0.7647 0.07244 0.0
O71 O 0.84691 0.75915 0.05367 0.0
H72 H 0.00971 0.69599 0.94121 0.0
H73 H 0.03706 0.69663 0.88809 0.0
H74 H 0.90431 0.80317 0.88232 0.0
H75 H 0.87732 0.80235 0.93539 0.0
H76 H 0.48755 0.84867 0.09862 0.0
H77 H 0.4611 0.84869 0.1519 0.0
H78 H 0.59162 0.74114 0.15762 0.0
H79 H 0.61745 0.74104 0.10442 0.0
C80 C 0.43428 0.76426 0.56298 0.0
Eu81 Eu 0.32174 0.76849 0.53374 0.0
C82 C 0.45207 0.77112 0.59497 0.0
C83 C 0.50522 0.79816 0.60422 0.0
C84 C 0.52195 0.80483 0.63452 0.0
C85 C 0.48575 0.78455 0.65616 0.0
C86 C 0.43245 0.75756 0.64675 0.0
C87 C 0.4158 0.75095 0.61657 0.0
C88 C 0.23265 0.83376 0.53249 0.0
C89 C 0.18935 0.74892 0.57513 0.0
C90 C 0.07403 0.72382 0.47104 0.0
Eu91 Eu 0.18113 0.73752 0.50405 0.0
C92 C 0.0549 0.72921 0.43999 0.0
C93 C 0.01228 0.69958 0.42493 0.0
C94 C 0.99674 0.70232 0.39487 0.0
C95 C 0.02348 0.73487 0.3793 0.0
C96 C 0.06566 0.76488 0.39456 0.0
C97 C 0.08153 0.76196 0.42465 0.0
C98 C 0.27062 0.67808 0.51799 0.0
C99 C 0.3066 0.76967 0.46273 0.0
O100 O 0.396 0.73162 0.55551 0.0
O101 O 0.41674 0.79751 0.54957 0.0
O102 O 0.29352 0.83794 0.54324 0.0
O103 O 0.2244 0.79591 0.52343 0.0
O104 O 0.25621 0.75076 0.57236 0.0
O105 O 0.14787 0.74835 0.55197 0.0
O106 O 0.08255 0.75791 0.48893 0.0
O107 O 0.12053 0.69544 0.47433 0.0
O108 O 0.20555 0.67456 0.52122 0.0
O109 O 0.28469 0.71196 0.507 0.0
O110 O 0.24125 0.76105 0.46563 0.0
O111 O 0.34972 0.77113 0.48536 0.0
H112 H 0.53375 0.81416 0.588 0.0
H113 H 0.56287 0.82614 0.64102 0.0
H114 H 0.40423 0.74083 0.66266 0.0
H115 H 0.3747 0.72974 0.61019 0.0
H116 H 0.99158 0.67398 0.43637 0.0
H117 H 0.96346 0.67905 0.38382 0.0
H118 H 0.08749 0.79007 0.38307 0.0
H119 H 0.11526 0.7849 0.43578 0.0
C120 C 0.93858 0.2621 0.56016 0.0
Eu121 Eu 0.8259 0.26814 0.53122 0.0
C122 C 0.95837 0.27281 0.59138 0.0
C123 C 0.91329 0.29438 0.61143 0.0
C124 C 0.92935 0.30088 0.64176 0.0
C125 C 0.99072 0.28574 0.65263 0.0
C126 C 0.03617 0.26474 0.63224 0.0
C127 C 0.02003 0.2583 0.60191 0.0
C128 C 0.73952 0.33485 0.52983 0.0
C129 C 0.69251 0.2508 0.57248 0.0
C130 C 0.57524 0.22874 0.46859 0.0
Eu131 Eu 0.68357 0.23998 0.50125 0.0
C132 C 0.55304 0.23748 0.43852 0.0
C133 C 0.50154 0.21306 0.42457 0.0
C134 C 0.48272 0.21868 0.39523 0.0
C135 C 0.51533 0.24878 0.37919 0.0
C136 C 0.56661 0.27357 0.39342 0.0
C137 C 0.58516 0.26803 0.42288 0.0
C138 C 0.76989 0.17881 0.51537 0.0
C139 C 0.8111 0.26958 0.46028 0.0
O140 O 0.89453 0.23152 0.55634 0.0
O141 O 0.92486 0.29363 0.54423 0.0
O142 O 0.80016 0.33812 0.54097 0.0
O143 O 0.73033 0.29721 0.52062 0.0
O144 O 0.75939 0.25163 0.56972 0.0
O145 O 0.65102 0.25086 0.54935 0.0
O146 O 0.58365 0.26103 0.4882 0.0
O147 O 0.62345 0.20077 0.46945 0.0
O148 O 0.70456 0.17628 0.51815 0.0
O149 O 0.78576 0.21246 0.50453 0.0
O150 O 0.74481 0.26425 0.46337 0.0
O151 O 0.85428 0.2681 0.48271 0.0
H152 H 0.86506 0.30546 0.6037 0.0
H153 H 0.89352 0.31758 0.65671 0.0
H154 H 0.08334 0.25208 0.63984 0.0
H155 H 0.05496 0.24107 0.58679 0.0
H156 H 0.47662 0.18907 0.43623 0.0
H157 H 0.44376 0.19865 0.38485 0.0
H158 H 0.59226 0.29729 0.38181 0.0
H159 H 0.62499 0.28725 0.43335 0.0
H160 H 0.74803 0.61735 0.03389 0.0
H161 H 0.66795 0.55904 0.03484 0.0
H162 H 0.50926 0.63722 1.00382 0.0
H163 H 0.58936 0.69537 1.00232 0.0
H164 H 0.54652 0.55351 0.06614 0.0
H165 H 0.50301 0.53387 0.94375 0.0
H166 H 0.572 0.5646 0.96023 0.0
H167 H 0.48774 0.586 0.96055 0.0
C168 C 0.69605 0.62207 0.02728 0.0
C169 C 0.67496 0.66077 0.01786 0.0
C170 C 0.65038 0.58878 0.02785 0.0
C171 C 0.58294 0.59355 0.0189 0.0
C172 C 0.5614 0.63255 0.0102 0.0
H173 H 0.23478 0.42654 1.00558 0.0
H174 H 0.31226 0.48633 1.00517 0.0
C175 C 0.60707 0.66583 0.00957 0.0
C176 C 0.53517 0.55777 0.01888 0.0
H177 H 0.4339 0.49361 0.97362 0.0
C178 C 0.52204 0.54031 0.04591 0.0
C179 C 0.50324 0.54064 0.99245 0.0
C180 C 0.51753 0.55692 0.96253 0.0
C181 C 0.4771 0.50655 0.04731 0.0
C182 C 0.44534 0.48934 0.02087 0.0
C183 C 0.45825 0.5069 0.99386 0.0
C184 C 0.39887 0.45292 0.02074 0.0
C185 C 0.46299 0.49014 0.0772 0.0
C186 C 0.42219 0.41412 0.02909 0.0
C187 C 0.37807 0.38003 0.02937 0.0
C188 C 0.30995 0.38406 0.02111 0.0
C189 C 0.28698 0.42263 0.01216 0.0
C190 C 0.33115 0.45675 0.0119 0.0
H191 H 0.4769 0.51333 0.096 0.0
H192 H 0.40869 0.48198 0.07941 0.0
H193 H 0.49343 0.46133 0.07923 0.0
H194 H 0.47457 0.4102 0.03538 0.0
H195 H 0.39722 0.35062 0.03628 0.0
H196 H 0.40466 0.67583 0.50289 0.0
H197 H 0.48413 0.61749 0.50608 0.0
H198 H 0.32651 0.54449 0.54323 0.0
H199 H 0.24714 0.60308 0.54063 0.0
H200 H 0.44957 0.53912 0.5726 0.0
H201 H 0.4828 0.50988 0.44997 0.0
H202 H 0.50072 0.5628 0.4643 0.0
H203 H 0.41605 0.54277 0.46658 0.0
C204 C 0.38713 0.64746 0.51196 0.0
C205 C 0.31971 0.64392 0.52147 0.0
C206 C 0.43241 0.61403 0.51353 0.0
C207 C 0.41092 0.57634 0.52437 0.0
C208 C 0.34406 0.57319 0.53462 0.0
H209 H 0.61936 0.33543 0.49982 0.0
H210 H 0.53771 0.39323 0.4995 0.0
C211 C 0.29878 0.60664 0.5331 0.0
C212 C 0.45796 0.54012 0.52491 0.0
H213 H 0.55558 0.47234 0.48023 0.0
C214 C 0.47267 0.52444 0.55241 0.0
C215 C 0.4872 0.52059 0.49848 0.0
C216 C 0.47051 0.53454 0.46811 0.0
C217 C 0.51684 0.49027 0.55427 0.0
C218 C 0.54792 0.47168 0.52796 0.0
C219 C 0.53221 0.48686 0.5004 0.0
C220 C 0.59687 0.43644 0.52853 0.0
C221 C 0.52898 0.47395 0.58433 0.0
C222 C 0.65759 0.44164 0.54458 0.0
C223 C 0.70386 0.40852 0.5449 0.0
C224 C 0.69037 0.36963 0.52911 0.0
C225 C 0.63021 0.36467 0.51267 0.0
C226 C 0.58387 0.3978 0.51232 0.0
H227 H 0.48817 0.4838 0.60051 0.0
H228 H 0.53241 0.43917 0.58238 0.0
H229 H 0.57752 0.48668 0.59354 0.0
H230 H 0.66949 0.47144 0.55668 0.0
H231 H 0.75017 0.41335 0.55758 0.0
H232 H 0.25953 0.11687 0.02931 0.0
H233 H 0.18263 0.05712 0.03133 0.0
H234 H 0.01914 0.13109 0.99975 0.0
H235 H 0.09562 0.19103 0.99794 0.0
H236 H 0.98367 0.08633 0.04835 0.0
H237 H 0.11067 0.98299 0.95947 0.0
H238 H 0.16536 1.00297 0.9892 0.0
H239 H 0.12742 0.03855 0.9652 0.0
C240 C 0.20719 0.12033 0.02278 0.0
C241 C 0.18357 0.15848 0.01335 0.0
C242 C 0.16344 0.08613 0.02377 0.0
C243 C 0.09546 0.08944 0.01519 0.0
C244 C 0.07152 0.12779 1.00628 0.0
H245 H 0.74474 0.9254 1.00378 0.0
H246 H 0.82442 0.98368 1.00189 0.0
C247 C 0.11522 0.16198 1.00528 0.0
C248 C 0.04891 0.05317 0.01591 0.0
H249 H 0.02239 0.95265 0.98618 0.0
C250 C 0.99197 0.05714 0.03469 0.0
C251 C 0.05998 1.01509 0.99811 0.0
C252 C 0.11881 1.00958 0.97664 0.0
C253 C 0.94623 0.02388 0.03644 0.0
C254 C 0.9571 0.98589 0.01854 0.0
C255 C 0.01422 0.98181 0.99987 0.0
C256 C 0.90944 0.95013 0.01875 0.0
C257 C 0.88734 0.02942 0.05788 0.0
C258 C 0.93135 0.9115 0.02796 0.0
C259 C 0.88598 0.8781 0.02895 0.0
C260 C 0.81806 0.88273 0.02053 0.0
C261 C 0.79667 0.92107 0.0106 0.0
C262 C 0.84202 0.95444 0.00966 0.0
H263 H 0.89577 0.05575 0.07523 0.0
H264 H 0.84097 0.03648 0.04533 0.0
H265 H 0.87821 1.00033 0.0691 0.0
H266 H 0.98329 0.90745 0.03489 0.0
H267 H 0.90384 0.84888 0.03667 0.0
H268 H 0.74308 0.10446 0.53847 0.0
H269 H 0.82112 0.0456 0.54287 0.0
H270 H 0.98233 0.11629 0.50627 0.0
H271 H 0.90442 0.17507 0.50156 0.0
H272 H 0.96823 0.03385 0.47899 0.0
H273 H 0.97764 0.03607 0.60262 0.0
H274 H 0.89391 0.03503 0.587 0.0
H275 H 0.94697 0.07994 0.5837 0.0
C276 C 0.79533 0.10755 0.53163 0.0
C277 C 0.81779 0.14435 0.51978 0.0
C278 C 0.8399 0.074 0.53427 0.0
C279 C 0.9077 0.07673 0.52517 0.0
C280 C 0.93029 0.1136 0.51351 0.0
H281 H 0.24538 0.91364 0.55729 0.0
H282 H 0.16539 0.97184 0.55512 0.0
C283 C 0.88581 0.14717 0.51093 0.0
C284 C 0.95445 0.04058 0.52668 0.0
H285 H 0.03031 0.97835 0.57503 0.0
C286 C 0.98188 0.0217 0.49998 0.0
C287 C 0.97258 0.02506 0.55411 0.0
C288 C 0.94681 0.04521 0.58355 0.0
C289 C 0.02653 0.98744 0.49993 0.0
C290 C 0.04355 0.97134 0.5273 0.0
C291 C 0.01664 0.99049 0.55404 0.0
C292 C 0.09116 0.93559 0.52876 0.0
C293 C 0.05622 0.96933 0.47065 0.0
C294 C 0.07572 0.89573 0.51491 0.0
C295 C 0.12148 0.86241 0.51613 0.0
C296 C 0.18319 0.86833 0.5313 0.0
C297 C 0.19819 0.90814 0.54537 0.0
C298 C 0.1525 0.94139 0.54422 0.0
H299 H 0.05057 0.9911 0.45282 0.0
H300 H 0.1108 0.96199 0.47311 0.0
H301 H 0.02959 0.93974 0.46333 0.0
H302 H 0.02825 0.89037 0.50321 0.0
H303 H 0.10888 0.83225 0.505 0.0
H304 H 0.5999 0.25913 0.33189 0.0
H305 H 0.56874 0.26379 0.27952 0.0
H306 H 0.35796 0.25193 0.30245 0.0
H307 H 0.3884 0.24836 0.35484 0.0
H308 H 0.4985 0.20337 0.24226 0.0
H309 H 0.35927 0.35461 0.25386 0.0
H310 H 0.41504 0.33826 0.28248 0.0
H311 H 0.33058 0.31756 0.27893 0.0
C312 C 0.54683 0.25825 0.32587 0.0
C313 C 0.49661 0.25347 0.34758 0.0
C314 C 0.52917 0.26062 0.29591 0.0
C315 C 0.461 0.25869 0.28715 0.0
C316 C 0.41079 0.25418 0.30877 0.0
H317 H 0.23035 0.25282 0.12452 0.0
H318 H 0.27209 0.2516 0.17547 0.0
C319 C 0.42836 0.25171 0.33867 0.0
C320 C 0.44225 0.25971 0.25526 0.0
H321 H 0.34642 0.3129 0.20776 0.0
C322 C 0.46578 0.22751 0.23461 0.0
C323 C 0.39951 0.29122 0.24538 0.0
C324 C 0.37508 0.32761 0.26624 0.0
C325 C 0.44585 0.22518 0.20451 0.0
C326 C 0.40219 0.25634 0.19474 0.0
C327 C 0.37964 0.28893 0.21531 0.0
C328 C 0.37791 0.25537 0.16344 0.0
C329 C 0.46984 0.18863 0.18369 0.0
C330 C 0.42354 0.25791 0.13965 0.0
C331 C 0.39983 0.25848 0.11035 0.0
C332 C 0.32995 0.25688 0.10434 0.0
C333 C 0.28449 0.25409 0.12825 0.0
C334 C 0.30824 0.25345 0.15746 0.0
H335 H 0.48867 0.16236 0.19609 0.0
H336 H 0.42855 0.17677 0.16853 0.0
H337 H 0.51206 0.19905 0.16979 0.0
H338 H 0.47744 0.26027 0.1438 0.0
H339 H 0.43622 0.26098 0.09254 0.0
H340 H 0.51698 0.86199 0.20104 0.0
H341 H 0.48781 0.86156 0.254 0.0
H342 H 0.46374 0.72717 0.24276 0.0
H343 H 0.49358 0.72734 0.18996 0.0
H344 H 0.37293 0.83784 0.27946 0.0
H345 H 0.58372 0.73981 0.31536 0.0
H346 H 0.58342 0.76179 0.2797 0.0
H347 H 0.53754 0.7143 0.28468 0.0
C348 C 0.50555 0.83234 0.20988 0.0
C349 C 0.50784 0.79467 0.19131 0.0
C350 C 0.48915 0.83212 0.24017 0.0
C351 C 0.47472 0.79425 0.25254 0.0
C352 C 0.47654 0.75664 0.23399 0.0
H353 H 0.23845 0.75864 0.40972 0.0
H354 H 0.28126 0.76741 0.35979 0.0
C355 C 0.4934 0.7568 0.20376 0.0
C356 C 0.45461 0.79427 0.28445 0.0
H357 H 0.48954 0.7493 0.34897 0.0
C358 C 0.39884 0.81876 0.29473 0.0
C359 C 0.48909 0.77001 0.30458 0.0
C360 C 0.5522 0.74535 0.29563 0.0
C361 C 0.37523 0.81856 0.32422 0.0
C362 C 0.4072 0.79234 0.34382 0.0
C363 C 0.46443 0.76898 0.33386 0.0
C364 C 0.38108 0.78783 0.37444 0.0
C365 C 0.31657 0.84676 0.33409 0.0
C366 C 0.42344 0.79522 0.3994 0.0
C367 C 0.3993 0.78971 0.42813 0.0
C368 C 0.33228 0.77662 0.43246 0.0
C369 C 0.2901 0.7692 0.40737 0.0
C370 C 0.31439 0.77445 0.37871 0.0
H371 H 0.31265 0.8739 0.32032 0.0
H372 H 0.26873 0.82872 0.3314 0.0
H373 H 0.32145 0.85881 0.35789 0.0
H374 H 0.47523 0.80531 0.39664 0.0
H375 H 0.43325 0.79564 0.44689 0.0
H376 H 0.5588 0.78748 0.94323 0.0
H377 H 0.51992 0.79061 0.89165 0.0
H378 H 0.72701 0.79739 0.86192 0.0
H379 H 0.76615 0.79385 0.91293 0.0
H380 H 0.54398 0.85145 0.84965 0.0
H381 H 0.65092 0.69564 0.81097 0.0
H382 H 0.64044 0.71281 0.85001 0.0
H383 H 0.71111 0.73092 0.82937 0.0
C384 C 0.59604 0.78984 0.92573 0.0
C385 C 0.6657 0.79001 0.93224 0.0
C386 C 0.57372 0.79163 0.89629 0.0
C387 C 0.62067 0.79345 0.87293 0.0
C388 C 0.68997 0.7951 0.87953 0.0
H389 H 0.61279 0.78948 0.68059 0.0
H390 H 0.64304 0.795 0.73348 0.0
C391 C 0.71225 0.79324 0.90881 0.0
C392 C 0.59779 0.79301 0.84153 0.0
H393 H 0.61182 0.73763 0.77344 0.0
C394 C 0.55831 0.82647 0.83297 0.0
C395 C 0.61667 0.76035 0.81987 0.0
C396 C 0.65659 0.72268 0.82799 0.0
C397 C 0.53888 0.82877 0.80308 0.0
C398 C 0.55853 0.79633 0.78136 0.0
C399 C 0.59723 0.76262 0.79007 0.0
C400 C 0.53954 0.7964 0.74944 0.0
C401 C 0.4992 0.86646 0.7949 0.0
C402 C 0.47129 0.79555 0.74083 0.0
C403 C 0.45382 0.79282 0.7106 0.0
C404 C 0.50429 0.79043 0.68833 0.0
C405 C 0.57263 0.79185 0.69709 0.0
C406 C 0.59002 0.7947 0.72733 0.0
H407 H 0.50414 0.89334 0.8121 0.0
H408 H 0.51614 0.87659 0.77306 0.0
H409 H 0.44478 0.85811 0.79307 0.0
H410 H 0.43147 0.79603 0.75746 0.0
H411 H 0.40069 0.79223 0.70468 0.0
H412 H 0.55881 0.25544 0.58996 0.0
H413 H 0.51401 0.25813 0.64104 0.0
H414 H 0.71674 0.24768 0.67505 0.0
H415 H 0.76196 0.24561 0.62454 0.0
H416 H 0.52525 0.20077 0.68435 0.0
H417 H 0.64522 0.35183 0.72345 0.0
H418 H 0.63926 0.33372 0.6844 0.0
H419 H 0.70479 0.31401 0.70724 0.0
C420 C 0.59385 0.2537 0.60831 0.0
C421 C 0.66405 0.2506 0.60307 0.0
C422 C 0.56815 0.25526 0.63748 0.0
C423 C 0.61215 0.25396 0.66188 0.0
C424 C 0.68195 0.24979 0.65663 0.0
H425 H 0.59903 0.24632 0.85207 0.0
H426 H 0.62713 0.24596 0.79905 0.0
C427 C 0.70767 0.24834 0.62762 0.0
C428 C 0.58565 0.2564 0.69292 0.0
H429 H 0.60186 0.31089 0.76124 0.0
C430 C 0.54127 0.2251 0.70111 0.0
C431 C 0.60648 0.28829 0.71473 0.0
C432 C 0.65102 0.3241 0.70699 0.0
C433 C 0.51949 0.22382 0.73083 0.0
C434 C 0.54208 0.25498 0.75278 0.0
C435 C 0.585 0.28687 0.74441 0.0
C436 C 0.52384 0.25435 0.78477 0.0
C437 C 0.47452 0.18832 0.73873 0.0
C438 C 0.45643 0.25948 0.79436 0.0
C439 C 0.44012 0.25953 0.8247 0.0
C440 C 0.49101 0.25452 0.846 0.0
C441 C 0.5585 0.2496 0.83624 0.0
C442 C 0.57472 0.24966 0.80597 0.0
H443 H 0.47325 0.16235 0.72069 0.0
H444 H 0.49188 0.17562 0.75966 0.0
H445 H 0.4221 0.20023 0.74242 0.0
H446 H 0.4165 0.2638 0.77843 0.0
H447 H 0.3876 0.26312 0.83143 0.0
H448 H 0.73406 0.77128 0.12872 0.0
H449 H 0.77686 0.76671 0.17915 0.0
H450 H 0.97377 0.73149 0.14348 0.0
H451 H 0.93168 0.73698 0.09278 0.0
H452 H 0.82854 0.70167 0.2056 0.0
H453 H 0.02125 0.82743 0.20415 0.0
H454 H 0.9574 0.8191 0.17564 0.0
H455 H 0.03161 0.78632 0.17474 0.0
C456 C 0.78649 0.76251 0.1315 0.0
C457 C 0.82953 0.75467 0.10666 0.0
C458 C 0.81091 0.75997 0.16041 0.0
C459 C 0.87883 0.74948 0.16516 0.0
C460 C 0.92163 0.7407 0.14041 0.0
H461 H 0.02419 0.67101 0.33492 0.0
H462 H 0.99211 0.67408 0.28262 0.0
C463 C 0.89735 0.74356 0.11142 0.0
C464 C 0.90403 0.74715 0.19607 0.0
H465 H 0.02123 0.78757 0.24634 0.0
C466 C 0.87068 0.72046 0.21451 0.0
C467 C 0.95843 0.77213 0.2078 0.0
C468 C 0.99389 0.80317 0.18968 0.0
C469 C 0.89021 0.71794 0.2443 0.0
C470 C 0.94584 0.74199 0.25577 0.0
C471 C 0.97906 0.76884 0.2374 0.0
C472 C 0.96908 0.74051 0.28704 0.0
C473 C 0.84982 0.69038 0.2634 0.0
C474 C 0.96949 0.77715 0.30661 0.0
C475 C 0.98845 0.77555 0.33645 0.0
C476 C 0.00718 0.73723 0.34726 0.0
C477 C 0.00864 0.70083 0.32738 0.0
C478 C 0.99022 0.70252 0.29751 0.0
H479 H 0.79873 0.68346 0.25394 0.0
H480 H 0.87675 0.66009 0.26456 0.0
H481 H 0.84379 0.70532 0.28647 0.0
H482 H 0.95368 0.80685 0.29894 0.0
H483 H 0.98662 0.80407 0.35127 0.0
H484 H 0.73889 0.28088 0.40961 0.0
H485 H 0.78248 0.2884 0.35951 0.0
H486 H 0.98691 0.28049 0.39193 0.0
H487 H 0.9439 0.27287 0.44233 0.0
H488 H 0.87821 0.35119 0.3403 0.0
H489 H 0.97168 0.18676 0.32114 0.0
H490 H 0.91052 0.20266 0.34986 0.0
H491 H 0.9981 0.21611 0.35504 0.0
C492 C 0.79315 0.28084 0.40625 0.0
C493 C 0.83781 0.27606 0.4301 0.0
C494 C 0.81795 0.28522 0.37754 0.0
C495 C 0.88783 0.28455 0.37198 0.0
C496 C 0.93273 0.28056 0.39573 0.0
H497 H 0.10486 0.27767 0.20177 0.0
H498 H 0.07694 0.27936 0.25491 0.0
C499 C 0.90798 0.27639 0.42454 0.0
C500 C 0.91332 0.2876 0.3412 0.0
H501 H 0.98908 0.23079 0.28249 0.0
C502 C 0.90269 0.32497 0.32765 0.0
C503 C 0.94558 0.2534 0.32488 0.0
C504 C 0.95695 0.21228 0.33826 0.0
C505 C 0.92337 0.32905 0.29811 0.0
C506 C 0.95381 0.2944 0.28142 0.0
C507 C 0.96564 0.2573 0.29524 0.0
C508 C 0.97148 0.29535 0.24932 0.0
C509 C 0.91308 0.37064 0.28523 0.0
C510 C 0.92147 0.30351 0.22843 0.0
C511 C 0.93742 0.30311 0.1981 0.0
C512 C 0.00364 0.29392 0.18785 0.0
C513 C 0.05362 0.28554 0.20885 0.0
C514 C 0.03764 0.28618 0.23924 0.0
H515 H 0.91022 0.39686 0.30308 0.0
H516 H 0.95462 0.3772 0.26962 0.0
H517 H 0.86458 0.36995 0.2728 0.0
H518 H 0.86971 0.3097 0.23553 0.0
H519 H 0.89775 0.31014 0.18269 0.0
H520 H 0.90402 0.27784 0.6996 0.0
H521 H 0.93066 0.28342 0.75289 0.0
H522 H 0.13976 0.30758 0.73267 0.0
H523 H 0.11313 0.30379 0.67947 0.0
H524 H 0.01729 0.23454 0.78204 0.0
H525 H 0.09998 0.40027 0.79748 0.0
H526 H 0.05493 0.37919 0.76469 0.0
H527 H 0.14461 0.37063 0.76792 0.0
C528 C 0.95543 0.28523 0.70649 0.0
C529 C 0.00638 0.29055 0.68517 0.0
C530 C 0.97065 0.2881 0.73698 0.0
C531 C 0.03699 0.29654 0.74684 0.0
C532 C 0.08791 0.30194 0.72567 0.0
H533 H 0.2627 0.29408 0.90964 0.0
H534 H 0.22118 0.29845 0.85895 0.0
C535 C 0.07275 0.29919 0.69519 0.0
C536 C 0.05375 0.29745 0.77911 0.0
H537 H 0.1277 0.3572 0.83671 0.0
C538 C 0.04069 0.26154 0.7941 0.0
C539 C 0.08422 0.33272 0.79484 0.0
C540 C 0.09616 0.37304 0.7805 0.0
C541 C 0.05946 0.25938 0.82406 0.0
C542 C 0.09141 0.29427 0.83954 0.0
C543 C 0.10335 0.33046 0.82475 0.0
C544 C 0.11549 0.29309 0.87069 0.0
C545 C 0.04715 0.21928 0.83862 0.0
C546 C 0.06974 0.2893 0.89425 0.0
C547 C 0.09337 0.28684 0.92341 0.0
C548 C 0.16324 0.28819 0.92951 0.0
C549 C 0.20867 0.29284 0.90586 0.0
C550 C 0.18502 0.29541 0.8768 0.0
H551 H 0.03459 0.19271 0.82202 0.0
H552 H 0.09232 0.21064 0.85145 0.0
H553 H 0.00407 0.22393 0.85445 0.0
H554 H 0.01577 0.28809 0.89007 0.0
H555 H 0.05691 0.28341 0.94106 0.0
H556 H 0.25828 0.74383 0.62735 0.0
H557 H 0.21245 0.74439 0.67768 0.0
H558 H 0.01002 0.75401 0.64314 0.0
H559 H 0.0555 0.75267 0.59231 0.0
H560 H 0.13803 0.80646 0.70838 0.0
H561 H 0.99183 0.65769 0.69638 0.0
H562 H 0.05398 0.67089 0.66923 0.0
H563 H 0.97139 0.69462 0.66981 0.0
C564 C 0.20395 0.74571 0.63026 0.0
C565 C 0.16064 0.748 0.60563 0.0
C566 C 0.17781 0.7461 0.65916 0.0
C567 C 0.10777 0.74873 0.66419 0.0
C568 C 0.06417 0.75107 0.63974 0.0
H569 H 0.88674 0.76059 0.83437 0.0
H570 H 0.91589 0.76236 0.78139 0.0
C571 C 0.09033 0.75051 0.61069 0.0
C572 C 0.08136 0.75049 0.69524 0.0
H573 H 0.98351 0.69827 0.74274 0.0
C574 C 0.10413 0.78283 0.71586 0.0
C575 C 0.03682 0.71977 0.70494 0.0
C576 C 0.01238 0.68355 0.68406 0.0
C577 C 0.08424 0.78507 0.74594 0.0
C578 C 0.04106 0.75384 0.75578 0.0
C579 C 0.01672 0.72211 0.73508 0.0
C580 C 0.02312 0.75265 0.78775 0.0
C581 C 0.10955 0.82089 0.76697 0.0
C582 C 0.07364 0.7461 0.80876 0.0
C583 C 0.05725 0.74511 0.83895 0.0
C584 C 0.98989 0.75061 0.84875 0.0
C585 C 0.93922 0.7568 0.82758 0.0
C586 C 0.95567 0.75757 0.79731 0.0
H587 H 0.1271 0.84763 0.75474 0.0
H588 H 0.0694 0.83222 0.78305 0.0
H589 H 0.15296 0.8099 0.77988 0.0
H590 H 0.12588 0.74165 0.80177 0.0
H591 H 0.09752 0.7406 0.85468 0.0
loop_
_geom_bond_atom_site_label_1
_geom_bond_atom_site_label_2
_geom_bond_distance
_geom_bond_site_symmetry_2
_ccdc_geom_bond_type
C0 Eu1 2.835 . S
C0 C2 1.500 . S
C0 O20 1.257 . S
C0 O21 1.260 . S
Eu1 C0 2.835 . S
Eu1 O20 2.473 . S
Eu1 O21 2.480 . S
Eu1 O22 2.430 . S
Eu1 O23 2.670 1_556 S
Eu1 O24 2.394 . S
Eu1 O29 2.352 1_556 S
Eu1 O31 2.374 1_556 S
C2 C0 1.500 . S
C2 C3 1.377 . S
C2 C7 1.377 . S
C3 C2 1.377 . S
C3 C4 1.395 . S
C3 H32 0.931 . S
C4 C3 1.395 . S
C4 C5 1.383 . S
C4 H33 0.931 . S
C5 C4 1.383 . S
C5 C6 1.394 . S
C6 C5 1.394 . S
C6 C7 1.378 . S
C6 H34 0.931 . S
C7 C2 1.377 . S
C7 C6 1.378 . S
C7 H35 0.931 . S
C8 O22 1.259 1_554 S
C8 O23 1.270 . S
C9 O24 1.251 . S
C9 O25 1.251 . S
C10 Eu11 2.835 . S
C10 C12 1.500 . S
C10 O26 1.257 . S
C10 O27 1.260 . S
Eu11 C10 2.835 . S
Eu11 O23 2.355 . S
Eu11 O25 2.374 1_554 S
Eu11 O26 2.473 . S
Eu11 O27 2.480 . S
Eu11 O28 2.430 . S
Eu11 O29 2.679 . S
Eu11 O30 2.394 . S
C12 C10 1.500 . S
C12 C13 1.377 . S
C12 C17 1.377 . S
C13 C12 1.377 . S
C13 C14 1.395 . S
C13 H36 0.931 . S
C14 C13 1.395 . S
C14 C15 1.383 . S
C14 H37 0.931 . S
C15 C14 1.383 . S
C15 C16 1.394 . S
C16 C15 1.394 . S
C16 C17 1.378 . S
C16 H38 0.931 . S
C17 C12 1.377 . S
C17 C16 1.378 . S
C17 H39 0.931 . S
C18 O28 1.259 . S
C18 O29 1.276 . S
C19 O30 1.251 . S
C19 O31 1.251 . S
O20 C0 1.257 . S
O20 Eu1 2.473 . S
O21 C0 1.260 . S
O21 Eu1 2.480 . S
O22 Eu1 2.430 . S
O22 C8 1.259 1_556 S
O23 Eu1 2.670 1_554 S
O23 C8 1.270 . S
O23 Eu11 2.355 . S
O24 Eu1 2.394 . S
O24 C9 1.251 . S
O25 C9 1.251 . S
O25 Eu11 2.374 1_556 S
O26 C10 1.257 . S
O26 Eu11 2.473 . S
O27 C10 1.260 . S
O27 Eu11 2.480 . S
O28 Eu11 2.430 . S
O28 C18 1.259 . S
O29 Eu1 2.352 1_554 S
O29 Eu11 2.679 . S
O29 C18 1.276 . S
O30 Eu11 2.394 . S
O30 C19 1.251 . S
O31 Eu1 2.374 1_554 S
O31 C19 1.251 . S
H32 C3 0.931 . S
H33 C4 0.931 . S
H34 C6 0.931 . S
H35 C7 0.931 . S
H36 C13 0.931 . S
H37 C14 0.931 . S
H38 C16 0.931 . S
H39 C17 0.931 . S
C40 Eu41 2.835 . S
C40 C42 1.500 . S
C40 O60 1.257 . S
C40 O61 1.260 . S
Eu41 C40 2.835 . S
Eu41 O60 2.473 . S
Eu41 O61 2.480 . S
Eu41 O62 2.430 . S
Eu41 O63 2.670 1_556 S
Eu41 O64 2.394 . S
Eu41 O69 2.352 1_556 S
Eu41 O71 2.374 1_556 S
C42 C40 1.500 . S
C42 C43 1.377 . S
C42 C47 1.377 . S
C43 C42 1.377 . S
C43 C44 1.395 . S
C43 H72 0.931 . S
C44 C43 1.395 . S
C44 C45 1.383 . S
C44 H73 0.931 . S
C45 C44 1.383 . S
C45 C46 1.394 . S
C46 C45 1.394 . S
C46 C47 1.378 . S
C46 H74 0.931 . S
C47 C42 1.377 . S
C47 C46 1.378 . S
C47 H75 0.931 . S
C48 O62 1.259 1_554 S
C48 O63 1.270 . S
C49 O64 1.251 . S
C49 O65 1.251 . S
C50 Eu51 2.835 . S
C50 C52 1.500 . S
C50 O66 1.257 . S
C50 O67 1.260 . S
Eu51 C50 2.835 . S
Eu51 O63 2.355 . S
Eu51 O65 2.374 1_554 S
Eu51 O66 2.473 . S
Eu51 O67 2.480 . S
Eu51 O68 2.430 . S
Eu51 O69 2.679 . S
Eu51 O70 2.394 . S
C52 C50 1.500 . S
C52 C53 1.377 . S
C52 C57 1.377 . S
C53 C52 1.377 . S
C53 C54 1.395 . S
C53 H76 0.931 . S
C54 C53 1.395 . S
C54 C55 1.383 . S
C54 H77 0.931 . S
C55 C54 1.383 . S
C55 C56 1.394 . S
C56 C55 1.394 . S
C56 C57 1.378 . S
C56 H78 0.931 . S
C57 C52 1.377 . S
C57 C56 1.378 . S
C57 H79 0.931 . S
C58 O68 1.259 . S
C58 O69 1.276 . S
C59 O70 1.251 . S
C59 O71 1.251 . S
O60 C40 1.257 . S
O60 Eu41 2.473 . S
O61 C40 1.260 . S
O61 Eu41 2.480 . S
O62 Eu41 2.430 . S
O62 C48 1.259 1_556 S
O63 Eu41 2.670 1_554 S
O63 C48 1.270 . S
O63 Eu51 2.355 . S
O64 Eu41 2.394 . S
O64 C49 1.251 . S
O65 C49 1.251 . S
O65 Eu51 2.374 1_556 S
O66 C50 1.257 . S
O66 Eu51 2.473 . S
O67 C50 1.260 . S
O67 Eu51 2.480 . S
O68 Eu51 2.430 . S
O68 C58 1.259 . S
O69 Eu41 2.352 1_554 S
O69 Eu51 2.679 . S
O69 C58 1.276 . S
O70 Eu51 2.394 . S
O70 C59 1.251 . S
O71 Eu41 2.374 1_554 S
O71 C59 1.251 . S
H72 C43 0.931 . S
H73 C44 0.931 . S
H74 C46 0.931 . S
H75 C47 0.931 . S
H76 C53 0.931 . S
H77 C54 0.931 . S
H78 C56 0.931 . S
H79 C57 0.931 . S
C80 Eu81 2.835 . S
C80 C82 1.500 . S
C80 O100 1.257 . S
C80 O101 1.260 . S
Eu81 C80 2.835 . S
Eu81 O100 2.473 . S
Eu81 O101 2.480 . S
Eu81 O102 2.430 . S
Eu81 O103 2.670 . S
Eu81 O104 2.394 . S
Eu81 O109 2.355 . S
Eu81 O111 2.374 . S
C82 C80 1.500 . S
C82 C83 1.377 . S
C82 C87 1.377 . S
C83 C82 1.377 . S
C83 C84 1.395 . S
C83 H112 0.931 . S
C84 C83 1.395 . S
C84 C85 1.383 . S
C84 H113 0.931 . S
C85 C84 1.383 . S
C85 C86 1.394 . S
C86 C85 1.394 . S
C86 C87 1.378 . S
C86 H114 0.931 . S
C87 C82 1.377 . S
C87 C86 1.378 . S
C87 H115 0.931 . S
C88 O102 1.259 . S
C88 O103 1.270 . S
C89 O104 1.251 . S
C89 O105 1.251 . S
C90 Eu91 2.835 . S
C90 C92 1.500 . S
C90 O106 1.257 . S
C90 O107 1.260 . S
Eu91 C90 2.835 . S
Eu91 O103 2.355 . S
Eu91 O105 2.374 . S
Eu91 O106 2.473 . S
Eu91 O107 2.480 . S
Eu91 O108 2.430 . S
Eu91 O109 2.670 . S
Eu91 O110 2.394 . S
C92 C90 1.500 . S
C92 C93 1.377 . S
C92 C97 1.377 . S
C93 C92 1.377 . S
C93 C94 1.395 . S
C93 H116 0.931 . S
C94 C93 1.395 . S
C94 C95 1.383 . S
C94 H117 0.931 . S
C95 C94 1.383 . S
C95 C96 1.394 . S
C96 C95 1.394 . S
C96 C97 1.378 . S
C96 H118 0.931 . S
C97 C92 1.377 . S
C97 C96 1.378 . S
C97 H119 0.931 . S
C98 O108 1.259 . S
C98 O109 1.270 . S
C99 O110 1.251 . S
C99 O111 1.251 . S
O100 C80 1.257 . S
O100 Eu81 2.473 . S
O101 C80 1.260 . S
O101 Eu81 2.480 . S
O102 Eu81 2.430 . S
O102 C88 1.259 . S
O103 Eu81 2.670 . S
O103 C88 1.270 . S
O103 Eu91 2.355 . S
O104 Eu81 2.394 . S
O104 C89 1.251 . S
O105 C89 1.251 . S
O105 Eu91 2.374 . S
O106 C90 1.257 . S
O106 Eu91 2.473 . S
O107 C90 1.260 . S
O107 Eu91 2.480 . S
O108 Eu91 2.430 . S
O108 C98 1.259 . S
O109 Eu81 2.355 . S
O109 Eu91 2.670 . S
O109 C98 1.270 . S
O110 Eu91 2.394 . S
O110 C99 1.251 . S
O111 Eu81 2.374 . S
O111 C99 1.251 . S
H112 C83 0.931 . S
H113 C84 0.931 . S
H114 C86 0.931 . S
H115 C87 0.931 . S
H116 C93 0.931 . S
H117 C94 0.931 . S
H118 C96 0.931 . S
H119 C97 0.931 . S
C120 Eu121 2.835 . S
C120 C122 1.500 . S
C120 O140 1.257 . S
C120 O141 1.260 . S
Eu121 C120 2.835 . S
Eu121 O140 2.473 . S
Eu121 O141 2.480 . S
Eu121 O142 2.430 . S
Eu121 O143 2.670 . S
Eu121 O144 2.394 . S
Eu121 O149 2.355 . S
Eu121 O151 2.374 . S
C122 C120 1.500 . S
C122 C123 1.377 . S
C122 C127 1.377 . S
C123 C122 1.377 . S
C123 C124 1.395 . S
C123 H152 0.931 . S
C124 C123 1.395 . S
C124 C125 1.383 . S
C124 H153 0.931 . S
C125 C124 1.383 . S
C125 C126 1.394 . S
C126 C125 1.394 . S
C126 C127 1.378 . S
C126 H154 0.931 . S
C127 C122 1.377 . S
C127 C126 1.378 . S
C127 H155 0.931 . S
C128 O142 1.259 . S
C128 O143 1.270 . S
C129 O144 1.251 . S
C129 O145 1.251 . S
C130 Eu131 2.835 . S
C130 C132 1.500 . S
C130 O146 1.257 . S
C130 O147 1.260 . S
Eu131 C130 2.835 . S
Eu131 O143 2.355 . S
Eu131 O145 2.374 . S
Eu131 O146 2.473 . S
Eu131 O147 2.480 . S
Eu131 O148 2.430 . S
Eu131 O149 2.670 . S
Eu131 O150 2.394 . S
C132 C130 1.500 . S
C132 C133 1.377 . S
C132 C137 1.377 . S
C133 C132 1.377 . S
C133 C134 1.395 . S
C133 H156 0.931 . S
C134 C133 1.395 . S
C134 C135 1.383 . S
C134 H157 0.931 . S
C135 C134 1.383 . S
C135 C136 1.394 . S
C136 C135 1.394 . S
C136 C137 1.378 . S
C136 H158 0.931 . S
C137 C132 1.377 . S
C137 C136 1.378 . S
C137 H159 0.931 . S
C138 O148 1.259 . S
C138 O149 1.270 . S
C139 O150 1.251 . S
C139 O151 1.251 . S
O140 C120 1.257 . S
O140 Eu121 2.473 . S
O141 C120 1.260 . S
O141 Eu121 2.480 . S
O142 Eu121 2.430 . S
O142 C128 1.259 . S
O143 Eu121 2.670 . S
O143 C128 1.270 . S
O143 Eu131 2.355 . S
O144 Eu121 2.394 . S
O144 C129 1.251 . S
O145 C129 1.251 . S
O145 Eu131 2.374 . S
O146 C130 1.257 . S
O146 Eu131 2.473 . S
O147 C130 1.260 . S
O147 Eu131 2.480 . S
O148 Eu131 2.430 . S
O148 C138 1.259 . S
O149 Eu121 2.355 . S
O149 Eu131 2.670 . S
O149 C138 1.270 . S
O150 Eu131 2.394 . S
O150 C139 1.251 . S
O151 Eu121 2.374 . S
O151 C139 1.251 . S
H152 C123 0.931 . S
H153 C124 0.931 . S
H154 C126 0.931 . S
H155 C127 0.931 . S
H156 C133 0.931 . S
H157 C134 0.931 . S
H158 C136 0.931 . S
H159 C137 0.931 . S
H160 C168 0.929 1_556 S
H161 C170 0.930 1_556 S
H162 C172 0.930 . S
H163 C175 0.929 . S
H164 C178 0.930 . S
H165 C180 0.960 . S
H166 C180 0.960 . S
H167 C180 0.960 . S
C168 H160 0.929 1_554 S
C168 C169 1.377 . S
C168 C170 1.384 . S
C169 C168 1.377 . S
C169 C175 1.390 . S
C170 H161 0.930 1_554 S
C170 C168 1.384 . S
C170 C171 1.372 . S
C171 C170 1.372 . S
C171 C172 1.400 . S
C171 C176 1.490 . S
C172 H162 0.930 . S
C172 C171 1.400 . S
C172 C175 1.386 . S
H173 C189 0.930 . S
H174 C190 0.931 . S
C175 H163 0.929 . S
C175 C169 1.390 . S
C175 C172 1.386 . S
C176 C171 1.490 . S
C176 C178 1.395 . S
C176 C179 1.403 1_554 S
H177 C183 0.930 . S
C178 H164 0.930 . S
C178 C176 1.395 . S
C178 C181 1.403 . S
C179 C176 1.403 1_556 S
C179 C180 1.524 . S
C179 C183 1.400 . S
C180 H165 0.960 . S
C180 H166 0.960 . S
C180 H167 0.960 . S
C180 C179 1.524 . S
C181 C178 1.403 . S
C181 C182 1.392 . S
C181 C185 1.495 . S
C182 C181 1.392 . S
C182 C183 1.385 1_554 S
C182 C184 1.478 . S
C183 H177 0.930 . S
C183 C179 1.400 . S
C183 C182 1.385 1_556 S
C184 C182 1.478 . S
C184 C186 1.381 . S
C184 C190 1.383 . S
C185 C181 1.495 . S
C185 H191 0.959 . S
C185 H192 0.961 . S
C185 H193 0.960 . S
C186 C184 1.381 . S
C186 C187 1.394 . S
C186 H194 0.930 1_554 S
C187 C186 1.394 . S
C187 C188 1.383 . S
C187 H195 0.929 1_554 S
C188 C187 1.383 . S
C188 C189 1.377 . S
C189 H173 0.930 . S
C189 C188 1.377 . S
C189 C190 1.379 . S
C190 H174 0.931 . S
C190 C184 1.383 . S
C190 C189 1.379 . S
H191 C185 0.959 . S
H192 C185 0.961 . S
H193 C185 0.960 . S
H194 C186 0.930 1_556 S
H195 C187 0.929 1_556 S
H196 C204 0.929 . S
H197 C206 0.930 . S
H198 C208 0.930 . S
H199 C211 0.929 . S
H200 C214 0.930 . S
H201 C216 0.960 . S
H202 C216 0.960 . S
H203 C216 0.960 . S
C204 H196 0.929 . S
C204 C205 1.377 . S
C204 C206 1.384 . S
C205 C204 1.377 . S
C205 C211 1.390 . S
C206 H197 0.930 . S
C206 C204 1.384 . S
C206 C207 1.372 . S
C207 C206 1.372 . S
C207 C208 1.400 . S
C207 C212 1.490 . S
C208 H198 0.930 . S
C208 C207 1.400 . S
C208 C211 1.386 . S
H209 C225 0.930 . S
H210 C226 0.931 . S
C211 H199 0.929 . S
C211 C205 1.390 . S
C211 C208 1.386 . S
C212 C207 1.490 . S
C212 C214 1.395 . S
C212 C215 1.403 . S
H213 C219 0.930 . S
C214 H200 0.930 . S
C214 C212 1.395 . S
C214 C217 1.403 . S
C215 C212 1.403 . S
C215 C216 1.524 . S
C215 C219 1.400 . S
C216 H201 0.960 . S
C216 H202 0.960 . S
C216 H203 0.960 . S
C216 C215 1.524 . S
C217 C214 1.403 . S
C217 C218 1.392 . S
C217 C221 1.495 . S
C218 C217 1.392 . S
C218 C219 1.385 . S
C218 C220 1.478 . S
C219 H213 0.930 . S
C219 C215 1.400 . S
C219 C218 1.385 . S
C220 C218 1.478 . S
C220 C222 1.381 . S
C220 C226 1.383 . S
C221 C217 1.495 . S
C221 H227 0.959 . S
C221 H228 0.961 . S
C221 H229 0.960 . S
C222 C220 1.381 . S
C222 C223 1.394 . S
C222 H230 0.930 . S
C223 C222 1.394 . S
C223 C224 1.383 . S
C223 H231 0.929 . S
C224 C223 1.383 . S
C224 C225 1.377 . S
C225 H209 0.930 . S
C225 C224 1.377 . S
C225 C226 1.379 . S
C226 H210 0.931 . S
C226 C220 1.383 . S
C226 C225 1.379 . S
H227 C221 0.959 . S
H228 C221 0.961 . S
H229 C221 0.960 . S
H230 C222 0.930 . S
H231 C223 0.929 . S
H232 C240 0.929 . S
H233 C242 0.930 . S
H234 C244 0.930 . S
H235 C247 0.929 . S
H236 C250 0.930 . S
H237 C252 0.960 . S
H238 C252 0.960 1_554 S
H239 C252 0.960 1_545 S
C240 H232 0.929 . S
C240 C241 1.377 . S
C240 C242 1.384 . S
C241 C240 1.377 . S
C241 C247 1.390 1_554 S
C242 H233 0.930 . S
C242 C240 1.384 . S
C242 C243 1.372 . S
C243 C242 1.372 . S
C243 C244 1.400 1_554 S
C243 C248 1.490 . S
C244 H234 0.930 . S
C244 C243 1.400 1_556 S
C244 C247 1.386 . S
H245 C261 0.930 . S
H246 C262 0.931 . S
C247 H235 0.929 . S
C247 C241 1.390 1_556 S
C247 C244 1.386 . S
C248 C243 1.490 . S
C248 C250 1.395 1_455 S
C248 C251 1.414 1_545 S
H249 C255 0.930 1_556 S
C250 H236 0.930 . S
C250 C248 1.395 1_655 S
C250 C253 1.403 . S
C251 C248 1.414 1_565 S
C251 C252 1.512 1_554 S
C251 C255 1.403 . S
C252 H237 0.960 . S
C252 H238 0.960 1_556 S
C252 H239 0.960 1_565 S
C252 C251 1.512 1_556 S
C253 C250 1.403 . S
C253 C254 1.392 1_545 S
C253 C257 1.495 . S
C254 C253 1.392 1_565 S
C254 C255 1.385 1_655 S
C254 C256 1.478 . S
C255 H249 0.930 1_554 S
C255 C251 1.403 . S
C255 C254 1.385 1_455 S
C256 C254 1.478 . S
C256 C258 1.381 . S
C256 C262 1.383 1_554 S
C257 C253 1.495 . S
C257 H263 0.959 . S
C257 H264 0.961 . S
C257 H265 0.960 1_545 S
C258 C256 1.381 . S
C258 C259 1.394 . S
C258 H266 0.930 . S
C259 C258 1.394 . S
C259 C260 1.383 . S
C259 H267 0.929 . S
C260 C259 1.383 . S
C260 C261 1.377 1_554 S
C261 H245 0.930 . S
C261 C260 1.377 1_556 S
C261 C262 1.379 . S
C262 H246 0.931 . S
C262 C256 1.383 1_556 S
C262 C261 1.379 . S
H263 C257 0.959 . S
H264 C257 0.961 . S
H265 C257 0.960 1_565 S
H266 C258 0.930 . S
H267 C259 0.929 . S
H268 C276 0.929 . S
H269 C278 0.930 . S
H270 C280 0.930 . S
H271 C283 0.929 . S
H272 C286 0.930 . S
H273 C288 0.960 1_565 S
H274 C288 0.960 . S
H275 C288 0.960 . S
C276 H268 0.929 . S
C276 C277 1.377 . S
C276 C278 1.384 . S
C277 C276 1.377 . S
C277 C283 1.390 . S
C278 H269 0.930 . S
C278 C276 1.384 . S
C278 C279 1.372 . S
C279 C278 1.372 . S
C279 C280 1.400 . S
C279 C284 1.490 . S
C280 H270 0.930 . S
C280 C279 1.400 . S
C280 C283 1.386 . S
H281 C297 0.930 . S
H282 C298 0.931 . S
C283 H271 0.929 . S
C283 C277 1.390 . S
C283 C280 1.386 . S
C284 C279 1.490 . S
C284 C286 1.400 . S
C284 C287 1.403 . S
H285 C291 0.930 . S
C286 H272 0.930 . S
C286 C284 1.400 . S
C286 C289 1.398 1_645 S
C287 C284 1.403 . S
C287 C288 1.524 . S
C287 C291 1.400 1_645 S
C288 H273 0.960 1_545 S
C288 H274 0.960 . S
C288 H275 0.960 . S
C288 C287 1.524 . S
C289 C286 1.398 1_465 S
C289 C290 1.392 . S
C289 C293 1.495 . S
C290 C289 1.392 . S
C290 C291 1.385 . S
C290 C292 1.478 . S
C291 H285 0.930 . S
C291 C287 1.400 1_465 S
C291 C290 1.385 . S
C292 C290 1.478 . S
C292 C294 1.381 . S
C292 C298 1.383 . S
C293 C289 1.495 . S
C293 H299 0.959 1_565 S
C293 H300 0.961 . S
C293 H301 0.960 . S
C294 C292 1.381 . S
C294 C295 1.394 . S
C294 H302 0.930 . S
C295 C294 1.394 . S
C295 C296 1.383 . S
C295 H303 0.929 . S
C296 C295 1.383 . S
C296 C297 1.377 . S
C297 H281 0.930 . S
C297 C296 1.377 . S
C297 C298 1.379 . S
C298 H282 0.931 . S
C298 C292 1.383 . S
C298 C297 1.379 . S
H299 C293 0.959 1_545 S
H300 C293 0.961 . S
H301 C293 0.960 . S
H302 C294 0.930 . S
H303 C295 0.929 . S
H304 C312 0.929 . S
H305 C314 0.930 . S
H306 C316 0.930 . S
H307 C319 0.929 . S
H308 C322 0.930 . S
H309 C324 0.960 . S
H310 C324 0.960 . S
H311 C324 0.960 . S
C312 H304 0.929 . S
C312 C313 1.377 . S
C312 C314 1.384 . S
C313 C312 1.377 . S
C313 C319 1.390 . S
C314 H305 0.930 . S
C314 C312 1.384 . S
C314 C315 1.372 . S
C315 C314 1.372 . S
C315 C316 1.400 . S
C315 C320 1.490 . S
C316 H306 0.930 . S
C316 C315 1.400 . S
C316 C319 1.386 . S
H317 C333 0.930 . S
H318 C334 0.931 . S
C319 H307 0.929 . S
C319 C313 1.390 . S
C319 C316 1.386 . S
C320 C315 1.490 . S
C320 C322 1.395 . S
C320 C323 1.403 . S
H321 C327 0.930 . S
C322 H308 0.930 . S
C322 C320 1.395 . S
C322 C325 1.403 . S
C323 C320 1.403 . S
C323 C324 1.524 . S
C323 C327 1.400 . S
C324 H309 0.960 . S
C324 H310 0.960 . S
C324 H311 0.960 . S
C324 C323 1.524 . S
C325 C322 1.403 . S
C325 C326 1.392 . S
C325 C329 1.495 . S
C326 C325 1.392 . S
C326 C327 1.385 . S
C326 C328 1.478 . S
C327 H321 0.930 . S
C327 C323 1.400 . S
C327 C326 1.385 . S
C328 C326 1.478 . S
C328 C330 1.381 . S
C328 C334 1.383 . S
C329 C325 1.495 . S
C329 H335 0.959 . S
C329 H336 0.961 . S
C329 H337 0.960 . S
C330 C328 1.381 . S
C330 C331 1.394 . S
C330 H338 0.930 . S
C331 C330 1.394 . S
C331 C332 1.383 . S
C331 H339 0.929 . S
C332 C331 1.383 . S
C332 C333 1.377 . S
C333 H317 0.930 . S
C333 C332 1.377 . S
C333 C334 1.379 . S
C334 H318 0.931 . S
C334 C328 1.383 . S
C334 C333 1.379 . S
H335 C329 0.959 . S
H336 C329 0.961 . S
H337 C329 0.960 . S
H338 C330 0.930 . S
H339 C331 0.929 . S
H340 C348 0.929 . S
H341 C350 0.930 . S
H342 C352 0.930 . S
H343 C355 0.929 . S
H344 C358 0.930 . S
H345 C360 0.960 . S
H346 C360 0.960 . S
H347 C360 0.960 . S
C348 H340 0.929 . S
C348 C349 1.377 . S
C348 C350 1.384 . S
C349 C348 1.377 . S
C349 C355 1.390 . S
C350 H341 0.930 . S
C350 C348 1.384 . S
C350 C351 1.372 . S
C351 C350 1.372 . S
C351 C352 1.400 . S
C351 C356 1.490 . S
C352 H342 0.930 . S
C352 C351 1.400 . S
C352 C355 1.386 . S
H353 C369 0.930 . S
H354 C370 0.931 . S
C355 H343 0.929 . S
C355 C349 1.390 . S
C355 C352 1.386 . S
C356 C351 1.490 . S
C356 C358 1.395 . S
C356 C359 1.403 . S
H357 C363 0.930 . S
C358 H344 0.930 . S
C358 C356 1.395 . S
C358 C361 1.403 . S
C359 C356 1.403 . S
C359 C360 1.524 . S
C359 C363 1.400 . S
C360 H345 0.960 . S
C360 H346 0.960 . S
C360 H347 0.960 . S
C360 C359 1.524 . S
C361 C358 1.403 . S
C361 C362 1.392 . S
C361 C365 1.495 . S
C362 C361 1.392 . S
C362 C363 1.385 . S
C362 C364 1.478 . S
C363 H357 0.930 . S
C363 C359 1.400 . S
C363 C362 1.385 . S
C364 C362 1.478 . S
C364 C366 1.381 . S
C364 C370 1.383 . S
C365 C361 1.495 . S
C365 H371 0.959 . S
C365 H372 0.961 . S
C365 H373 0.960 . S
C366 C364 1.381 . S
C366 C367 1.394 . S
C366 H374 0.930 . S
C367 C366 1.394 . S
C367 C368 1.383 . S
C367 H375 0.929 . S
C368 C367 1.383 . S
C368 C369 1.377 . S
C369 H353 0.930 . S
C369 C368 1.377 . S
C369 C370 1.379 . S
C370 H354 0.931 . S
C370 C364 1.383 . S
C370 C369 1.379 . S
H371 C365 0.959 . S
H372 C365 0.961 . S
H373 C365 0.960 . S
H374 C366 0.930 . S
H375 C367 0.929 . S
H376 C384 0.929 . S
H377 C386 0.930 . S
H378 C388 0.930 . S
H379 C391 0.929 . S
H380 C394 0.930 . S
H381 C396 0.960 . S
H382 C396 0.960 . S
H383 C396 0.960 . S
C384 H376 0.929 . S
C384 C385 1.377 . S
C384 C386 1.384 . S
C385 C384 1.377 . S
C385 C391 1.390 . S
C386 H377 0.930 . S
C386 C384 1.384 . S
C386 C387 1.372 . S
C387 C386 1.372 . S
C387 C388 1.400 . S
C387 C392 1.490 . S
C388 H378 0.930 . S
C388 C387 1.400 . S
C388 C391 1.386 . S
H389 C405 0.930 . S
H390 C406 0.931 . S
C391 H379 0.929 . S
C391 C385 1.390 . S
C391 C388 1.386 . S
C392 C387 1.490 . S
C392 C394 1.395 . S
C392 C395 1.403 . S
H393 C399 0.930 . S
C394 H380 0.930 . S
C394 C392 1.395 . S
C394 C397 1.403 . S
C395 C392 1.403 . S
C395 C396 1.524 . S
C395 C399 1.400 . S
C396 H381 0.960 . S
C396 H382 0.960 . S
C396 H383 0.960 . S
C396 C395 1.524 . S
C397 C394 1.403 . S
C397 C398 1.392 . S
C397 C401 1.495 . S
C398 C397 1.392 . S
C398 C399 1.385 . S
C398 C400 1.478 . S
C399 H393 0.930 . S
C399 C395 1.400 . S
C399 C398 1.385 . S
C400 C398 1.478 . S
C400 C402 1.381 . S
C400 C406 1.383 . S
C401 C397 1.495 . S
C401 H407 0.959 . S
C401 H408 0.961 . S
C401 H409 0.960 . S
C402 C400 1.381 . S
C402 C403 1.394 . S
C402 H410 0.930 . S
C403 C402 1.394 . S
C403 C404 1.383 . S
C403 H411 0.929 . S
C404 C403 1.383 . S
C404 C405 1.377 . S
C405 H389 0.930 . S
C405 C404 1.377 . S
C405 C406 1.379 . S
C406 H390 0.931 . S
C406 C400 1.383 . S
C406 C405 1.379 . S
H407 C401 0.959 . S
H408 C401 0.961 . S
H409 C401 0.960 . S
H410 C402 0.930 . S
H411 C403 0.929 . S
H412 C420 0.929 . S
H413 C422 0.930 . S
H414 C424 0.930 . S
H415 C427 0.929 . S
H416 C430 0.930 . S
H417 C432 0.960 . S
H418 C432 0.960 . S
H419 C432 0.960 . S
C420 H412 0.929 . S
C420 C421 1.377 . S
C420 C422 1.384 . S
C421 C420 1.377 . S
C421 C427 1.390 . S
C422 H413 0.930 . S
C422 C420 1.384 . S
C422 C423 1.372 . S
C423 C422 1.372 . S
C423 C424 1.400 . S
C423 C428 1.490 . S
C424 H414 0.930 . S
C424 C423 1.400 . S
C424 C427 1.386 . S
H425 C441 0.930 . S
H426 C442 0.931 . S
C427 H415 0.929 . S
C427 C421 1.390 . S
C427 C424 1.386 . S
C428 C423 1.490 . S
C428 C430 1.395 . S
C428 C431 1.403 . S
H429 C435 0.930 . S
C430 H416 0.930 . S
C430 C428 1.395 . S
C430 C433 1.403 . S
C431 C428 1.403 . S
C431 C432 1.524 . S
C431 C435 1.400 . S
C432 H417 0.960 . S
C432 H418 0.960 . S
C432 H419 0.960 . S
C432 C431 1.524 . S
C433 C430 1.403 . S
C433 C434 1.392 . S
C433 C437 1.495 . S
C434 C433 1.392 . S
C434 C435 1.385 . S
C434 C436 1.478 . S
C435 H429 0.930 . S
C435 C431 1.400 . S
C435 C434 1.385 . S
C436 C434 1.478 . S
C436 C438 1.381 . S
C436 C442 1.383 . S
C437 C433 1.495 . S
C437 H443 0.959 . S
C437 H444 0.961 . S
C437 H445 0.960 . S
C438 C436 1.381 . S
C438 C439 1.394 . S
C438 H446 0.930 . S
C439 C438 1.394 . S
C439 C440 1.383 . S
C439 H447 0.929 . S
C440 C439 1.383 . S
C440 C441 1.377 . S
C441 H425 0.930 . S
C441 C440 1.377 . S
C441 C442 1.379 . S
C442 H426 0.931 . S
C442 C436 1.383 . S
C442 C441 1.379 . S
H443 C437 0.959 . S
H444 C437 0.961 . S
H445 C437 0.960 . S
H446 C438 0.930 . S
H447 C439 0.929 . S
H448 C456 0.929 . S
H449 C458 0.930 . S
H450 C460 0.930 . S
H451 C463 0.929 . S
H452 C466 0.930 . S
H453 C468 0.960 . S
H454 C468 0.960 . S
H455 C468 0.960 . S
C456 H448 0.929 . S
C456 C457 1.377 . S
C456 C458 1.384 . S
C457 C456 1.377 . S
C457 C463 1.390 . S
C458 H449 0.930 . S
C458 C456 1.384 . S
C458 C459 1.372 . S
C459 C458 1.372 . S
C459 C460 1.400 . S
C459 C464 1.490 . S
C460 H450 0.930 . S
C460 C459 1.400 . S
C460 C463 1.386 . S
H461 C477 0.930 . S
H462 C478 0.931 . S
C463 H451 0.929 . S
C463 C457 1.390 . S
C463 C460 1.386 . S
C464 C459 1.490 . S
C464 C466 1.395 . S
C464 C467 1.403 . S
H465 C471 0.930 1_455 S
C466 H452 0.930 . S
C466 C464 1.395 . S
C466 C469 1.403 . S
C467 C464 1.403 . S
C467 C468 1.524 1_655 S
C467 C471 1.400 . S
C468 H453 0.960 . S
C468 H454 0.960 . S
C468 H455 0.960 . S
C468 C467 1.524 1_455 S
C469 C466 1.403 . S
C469 C470 1.392 . S
C469 C473 1.495 . S
C470 C469 1.392 . S
C470 C471 1.385 . S
C470 C472 1.478 . S
C471 H465 0.930 1_655 S
C471 C467 1.400 . S
C471 C470 1.385 . S
C472 C470 1.478 . S
C472 C474 1.381 . S
C472 C478 1.383 . S
C473 C469 1.495 . S
C473 H479 0.959 . S
C473 H480 0.961 . S
C473 H481 0.960 . S
C474 C472 1.381 . S
C474 C475 1.394 1_655 S
C474 H482 0.930 . S
C475 C474 1.394 1_455 S
C475 C476 1.383 . S
C475 H483 0.929 . S
C476 C475 1.383 . S
C476 C477 1.377 . S
C477 H461 0.930 . S
C477 C476 1.377 . S
C477 C478 1.379 1_455 S
C478 H462 0.931 . S
C478 C472 1.383 . S
C478 C477 1.379 1_655 S
H479 C473 0.959 . S
H480 C473 0.961 . S
H481 C473 0.960 . S
H482 C474 0.930 . S
H483 C475 0.929 . S
H484 C492 0.929 . S
H485 C494 0.930 . S
H486 C496 0.930 . S
H487 C499 0.929 . S
H488 C502 0.930 . S
H489 C504 0.960 . S
H490 C504 0.960 1_655 S
H491 C504 0.960 . S
C492 H484 0.929 . S
C492 C493 1.377 . S
C492 C494 1.384 . S
C493 C492 1.377 . S
C493 C499 1.390 . S
C494 H485 0.930 . S
C494 C492 1.384 . S
C494 C495 1.372 . S
C495 C494 1.372 . S
C495 C496 1.400 . S
C495 C500 1.490 . S
C496 H486 0.930 . S
C496 C495 1.400 . S
C496 C499 1.386 . S
H497 C513 0.930 . S
H498 C514 0.931 . S
C499 H487 0.929 . S
C499 C493 1.390 . S
C499 C496 1.386 . S
C500 C495 1.490 . S
C500 C502 1.395 . S
C500 C503 1.403 . S
H501 C507 0.930 1_455 S
C502 H488 0.930 . S
C502 C500 1.395 . S
C502 C505 1.403 . S
C503 C500 1.403 . S
C503 C504 1.524 1_655 S
C503 C507 1.400 . S
C504 H489 0.960 . S
C504 H490 0.960 1_455 S
C504 H491 0.960 . S
C504 C503 1.524 1_455 S
C505 C502 1.403 . S
C505 C506 1.392 . S
C505 C509 1.495 . S
C506 C505 1.392 . S
C506 C507 1.385 . S
C506 C508 1.478 . S
C507 H501 0.930 1_655 S
C507 C503 1.400 . S
C507 C506 1.385 . S
C508 C506 1.478 . S
C508 C510 1.381 . S
C508 C514 1.383 1_655 S
C509 C505 1.495 . S
C509 H515 0.959 . S
C509 H516 0.961 . S
C509 H517 0.960 . S
C510 C508 1.381 . S
C510 C511 1.394 . S
C510 H518 0.930 . S
C511 C510 1.394 . S
C511 C512 1.383 1_655 S
C511 H519 0.929 . S
C512 C511 1.383 1_455 S
C512 C513 1.377 . S
C513 H497 0.930 . S
C513 C512 1.377 . S
C513 C514 1.379 . S
C514 H498 0.931 . S
C514 C508 1.383 1_455 S
C514 C513 1.379 . S
H515 C509 0.959 . S
H516 C509 0.961 . S
H517 C509 0.960 . S
H518 C510 0.930 . S
H519 C511 0.929 . S
H520 C528 0.929 . S
H521 C530 0.930 . S
H522 C532 0.930 . S
H523 C535 0.929 . S
H524 C538 0.915 1_655 S
H525 C540 0.960 . S
H526 C540 0.960 . S
H527 C540 0.960 . S
C528 H520 0.929 . S
C528 C529 1.377 . S
C528 C530 1.384 . S
C529 C528 1.377 . S
C529 C535 1.390 1_655 S
C530 H521 0.930 . S
C530 C528 1.384 . S
C530 C531 1.372 1_655 S
C531 C530 1.372 1_455 S
C531 C532 1.400 . S
C531 C536 1.490 . S
C532 H522 0.930 . S
C532 C531 1.400 . S
C532 C535 1.386 . S
H533 C549 0.930 . S
H534 C550 0.931 . S
C535 H523 0.929 . S
C535 C529 1.390 1_455 S
C535 C532 1.386 . S
C536 C531 1.490 . S
C536 C538 1.404 . S
C536 C539 1.403 . S
H537 C543 0.930 . S
C538 H524 0.915 1_455 S
C538 C536 1.404 . S
C538 C541 1.408 . S
C539 C536 1.403 . S
C539 C540 1.524 . S
C539 C543 1.400 . S
C540 H525 0.960 . S
C540 H526 0.960 . S
C540 H527 0.960 . S
C540 C539 1.524 . S
C541 C538 1.408 . S
C541 C542 1.392 . S
C541 C545 1.495 1_455 S
C542 C541 1.392 . S
C542 C543 1.385 . S
C542 C544 1.478 . S
C543 H537 0.930 . S
C543 C539 1.400 . S
C543 C542 1.385 . S
C544 C542 1.478 . S
C544 C546 1.381 . S
C544 C550 1.383 . S
C545 C541 1.495 1_655 S
C545 H551 0.959 . S
C545 H552 0.969 . S
C545 H553 0.960 . S
C546 C544 1.381 . S
C546 C547 1.394 . S
C546 H554 0.930 . S
C547 C546 1.394 . S
C547 C548 1.383 . S
C547 H555 0.929 . S
C548 C547 1.383 . S
C548 C549 1.377 . S
C549 H533 0.930 . S
C549 C548 1.377 . S
C549 C550 1.379 . S
C550 H534 0.931 . S
C550 C544 1.383 . S
C550 C549 1.379 . S
H551 C545 0.959 . S
H552 C545 0.969 . S
H553 C545 0.960 . S
H554 C546 0.930 . S
H555 C547 0.929 . S
H556 C564 0.929 . S
H557 C566 0.930 . S
H558 C568 0.930 . S
H559 C571 0.929 . S
H560 C574 0.930 . S
H561 C576 0.960 . S
H562 C576 0.960 . S
H563 C576 0.960 . S
C564 H556 0.929 . S
C564 C565 1.377 . S
C564 C566 1.384 . S
C565 C564 1.377 . S
C565 C571 1.390 . S
C566 H557 0.930 . S
C566 C564 1.384 . S
C566 C567 1.372 . S
C567 C566 1.372 . S
C567 C568 1.400 . S
C567 C572 1.490 . S
C568 H558 0.930 . S
C568 C567 1.400 . S
C568 C571 1.386 . S
H569 C585 0.930 . S
H570 C586 0.931 . S
C571 H559 0.929 . S
C571 C565 1.390 . S
C571 C568 1.386 . S
C572 C567 1.490 . S
C572 C574 1.395 . S
C572 C575 1.403 . S
H573 C579 0.930 . S
C574 H560 0.930 . S
C574 C572 1.395 . S
C574 C577 1.403 . S
C575 C572 1.403 . S
C575 C576 1.524 . S
C575 C579 1.400 . S
C576 H561 0.960 . S
C576 H562 0.960 . S
C576 H563 0.960 . S
C576 C575 1.524 . S
C577 C574 1.403 . S
C577 C578 1.392 . S
C577 C581 1.495 . S
C578 C577 1.392 . S
C578 C579 1.385 . S
C578 C580 1.478 . S
C579 H573 0.930 . S
C579 C575 1.400 . S
C579 C578 1.385 . S
C580 C578 1.478 . S
C580 C582 1.381 . S
C580 C586 1.383 1_455 S
C581 C577 1.495 . S
C581 H587 0.959 . S
C581 H588 0.961 . S
C581 H589 0.960 . S
C582 C580 1.381 . S
C582 C583 1.394 . S
C582 H590 0.930 . S
C583 C582 1.394 . S
C583 C584 1.383 1_455 S
C583 H591 0.929 . S
C584 C583 1.383 1_655 S
C584 C585 1.377 . S
C585 H569 0.930 . S
C585 C584 1.377 . S
C585 C586 1.379 . S
C586 H570 0.931 . S
C586 C580 1.383 1_655 S
C586 C585 1.379 . S
H587 C581 0.959 . S
H588 C581 0.961 . S
H589 C581 0.960 . S
H590 C582 0.930 . S
H591 C583 0.929 . S
C169 C48 1.496 . S
C188 C18 1.500 . S
C205 C98 1.502 . S
C224 C128 1.490 . S
C241 C8 1.498 . S
C260 C58 1.478 . S
C277 C138 1.496 . S
C296 C88 1.495 . S
C313 C135 1.200 . S
C332 C19 1.195 . S
C349 C55 1.200 . S
C368 C99 1.210 . S
C385 C49 1.195 . S
C404 C85 1.202 . S
C421 C129 1.196 . S
C440 C5 1.189 . S
C457 C59 1.196 . S
C476 C95 1.206 . S
C493 C139 1.195 . S
C512 C15 1.211 . S
C529 C125 1.203 . S
C548 C9 1.185 . S
C565 C89 1.201 . S
C584 C45 1.196 . S
