# Generated by pormake.
# Topology umq, (4)-cn, num edge types: 1
# Building blocks:
#     Node 0, Type 0, BuildingBlock: QUQFOY_clean_sbu_3, # of connection points: 4
#     Node 1, Type 0, BuildingBlock: QUQFOY_clean_sbu_3, # of connection points: 4
#     Node 2, Type 0, BuildingBlock: QUQFOY_clean_sbu_3, # of connection points: 4
#     Node 3, Type 0, BuildingBlock: QUQFOY_clean_sbu_3, # of connection points: 4
#     Node 4, Type 0, BuildingBlock: QUQFOY_clean_sbu_3, # of connection points: 4
#     Node 5, Type 0, BuildingBlock: QUQFOY_clean_sbu_3, # of connection points: 4
#     Node 6, Type 0, BuildingBlock: QUQFOY_clean_sbu_3, # of connection points: 4
#     Node 7, Type 0, BuildingBlock: QUQFOY_clean_sbu_3, # of connection points: 4
#     Node 8, Type 0, BuildingBlock: QUQFOY_clean_sbu_3, # of connection points: 4
#     Node 9, Type 0, BuildingBlock: QUQFOY_clean_sbu_3, # of connection points: 4
#     Node 10, Type 0, BuildingBlock: QUQFOY_clean_sbu_3, # of connection points: 4
#     Node 11, Type 0, BuildingBlock: QUQFOY_clean_sbu_3, # of connection points: 4
#     Node 12, Type 0, BuildingBlock: QUQFOY_clean_sbu_3, # of connection points: 4
#     Node 13, Type 0, BuildingBlock: QUQFOY_clean_sbu_3, # of connection points: 4
#     Node 14, Type 0, BuildingBlock: QUQFOY_clean_sbu_3, # of connection points: 4
#     Node 15, Type 0, BuildingBlock: QUQFOY_clean_sbu_3, # of connection points: 4
#     Node 16, Type 0, BuildingBlock: QUQFOY_clean_sbu_3, # of connection points: 4
#     Node 17, Type 0, BuildingBlock: QUQFOY_clean_sbu_3, # of connection points: 4
#     Node 18, Type 0, BuildingBlock: QUQFOY_clean_sbu_3, # of connection points: 4
#     Node 19, Type 0, BuildingBlock: QUQFOY_clean_sbu_3, # of connection points: 4
#     Node 20, Type 0, BuildingBlock: QUQFOY_clean_sbu_3, # of connection points: 4
#     Node 21, Type 0, BuildingBlock: QUQFOY_clean_sbu_3, # of connection points: 4
#     Node 22, Type 0, BuildingBlock: QUQFOY_clean_sbu_3, # of connection points: 4
#     Node 23, Type 0, BuildingBlock: QUQFOY_clean_sbu_3, # of connection points: 4
#     Node 24, Type 0, BuildingBlock: QUQFOY_clean_sbu_3, # of connection points: 4
#     Node 25, Type 0, BuildingBlock: QUQFOY_clean_sbu_3, # of connection points: 4
#     Node 26, Type 0, BuildingBlock: QUQFOY_clean_sbu_3, # of connection points: 4
#     Node 27, Type 0, BuildingBlock: QUQFOY_clean_sbu_3, # of connection points: 4
#     Node 28, Type 0, BuildingBlock: QUQFOY_clean_sbu_3, # of connection points: 4
#     Node 29, Type 0, BuildingBlock: QUQFOY_clean_sbu_3, # of connection points: 4
#     Node 30, Type 0, BuildingBlock: QUQFOY_clean_sbu_3, # of connection points: 4
#     Node 31, Type 0, BuildingBlock: QUQFOY_clean_sbu_3, # of connection points: 4
#     Edge 32, Type (0, 0), BuildingBlock: AJUNOK_clean_linker_0, # of connection points: 2
#     Edge 33, Type (0, 0), BuildingBlock: AJUNOK_clean_linker_0, # of connection points: 2
#     Edge 34, Type (0, 0), BuildingBlock: AJUNOK_clean_linker_0, # of connection points: 2
#     Edge 35, Type (0, 0), BuildingBlock: AJUNOK_clean_linker_0, # of connection points: 2
#     Edge 36, Type (0, 0), BuildingBlock: AJUNOK_clean_linker_0, # of connection points: 2
#     Edge 37, Type (0, 0), BuildingBlock: AJUNOK_clean_linker_0, # of connection points: 2
#     Edge 38, Type (0, 0), BuildingBlock: AJUNOK_clean_linker_0, # of connection points: 2
#     Edge 39, Type (0, 0), BuildingBlock: AJUNOK_clean_linker_0, # of connection points: 2
#     Edge 40, Type (0, 0), BuildingBlock: AJUNOK_clean_linker_0, # of connection points: 2
#     Edge 41, Type (0, 0), BuildingBlock: AJUNOK_clean_linker_0, # of connection points: 2
#     Edge 42, Type (0, 0), BuildingBlock: AJUNOK_clean_linker_0, # of connection points: 2
#     Edge 43, Type (0, 0), BuildingBlock: AJUNOK_clean_linker_0, # of connection points: 2
#     Edge 44, Type (0, 0), BuildingBlock: AJUNOK_clean_linker_0, # of connection points: 2
#     Edge 45, Type (0, 0), BuildingBlock: AJUNOK_clean_linker_0, # of connection points: 2
#     Edge 46, Type (0, 0), BuildingBlock: AJUNOK_clean_linker_0, # of connection points: 2
#     Edge 47, Type (0, 0), BuildingBlock: AJUNOK_clean_linker_0, # of connection points: 2
#     Edge 48, Type (0, 0), BuildingBlock: AJUNOK_clean_linker_0, # of connection points: 2
#     Edge 49, Type (0, 0), BuildingBlock: AJUNOK_clean_linker_0, # of connection points: 2
#     Edge 50, Type (0, 0), BuildingBlock: AJUNOK_clean_linker_0, # of connection points: 2
#     Edge 51, Type (0, 0), BuildingBlock: AJUNOK_clean_linker_0, # of connection points: 2
#     Edge 52, Type (0, 0), BuildingBlock: AJUNOK_clean_linker_0, # of connection points: 2
#     Edge 53, Type (0, 0), BuildingBlock: AJUNOK_clean_linker_0, # of connection points: 2
#     Edge 54, Type (0, 0), BuildingBlock: AJUNOK_clean_linker_0, # of connection points: 2
#     Edge 55, Type (0, 0), BuildingBlock: AJUNOK_clean_linker_0, # of connection points: 2
#     Edge 56, Type (0, 0), BuildingBlock: AJUNOK_clean_linker_0, # of connection points: 2
#     Edge 57, Type (0, 0), BuildingBlock: AJUNOK_clean_linker_0, # of connection points: 2
#     Edge 58, Type (0, 0), BuildingBlock: AJUNOK_clean_linker_0, # of connection points: 2
#     Edge 59, Type (0, 0), BuildingBlock: AJUNOK_clean_linker_0, # of connection points: 2
#     Edge 60, Type (0, 0), BuildingBlock: AJUNOK_clean_linker_0, # of connection points: 2
#     Edge 61, Type (0, 0), BuildingBlock: AJUNOK_clean_linker_0, # of connection points: 2
#     Edge 62, Type (0, 0), BuildingBlock: AJUNOK_clean_linker_0, # of connection points: 2
#     Edge 63, Type (0, 0), BuildingBlock: AJUNOK_clean_linker_0, # of connection points: 2
#     Edge 64, Type (0, 0), BuildingBlock: AJUNOK_clean_linker_0, # of connection points: 2
#     Edge 65, Type (0, 0), BuildingBlock: AJUNOK_clean_linker_0, # of connection points: 2
#     Edge 66, Type (0, 0), BuildingBlock: AJUNOK_clean_linker_0, # of connection points: 2
#     Edge 67, Type (0, 0), BuildingBlock: AJUNOK_clean_linker_0, # of connection points: 2
#     Edge 68, Type (0, 0), BuildingBlock: AJUNOK_clean_linker_0, # of connection points: 2
#     Edge 69, Type (0, 0), BuildingBlock: AJUNOK_clean_linker_0, # of connection points: 2
#     Edge 70, Type (0, 0), BuildingBlock: AJUNOK_clean_linker_0, # of connection points: 2
#     Edge 71, Type (0, 0), BuildingBlock: AJUNOK_clean_linker_0, # of connection points: 2
#     Edge 72, Type (0, 0), BuildingBlock: AJUNOK_clean_linker_0, # of connection points: 2
#     Edge 73, Type (0, 0), BuildingBlock: AJUNOK_clean_linker_0, # of connection points: 2
#     Edge 74, Type (0, 0), BuildingBlock: AJUNOK_clean_linker_0, # of connection points: 2
#     Edge 75, Type (0, 0), BuildingBlock: AJUNOK_clean_linker_0, # of connection points: 2
#     Edge 76, Type (0, 0), BuildingBlock: AJUNOK_clean_linker_0, # of connection points: 2
#     Edge 77, Type (0, 0), BuildingBlock: AJUNOK_clean_linker_0, # of connection points: 2
#     Edge 78, Type (0, 0), BuildingBlock: AJUNOK_clean_linker_0, # of connection points: 2
#     Edge 79, Type (0, 0), BuildingBlock: AJUNOK_clean_linker_0, # of connection points: 2
#     Edge 80, Type (0, 0), BuildingBlock: AJUNOK_clean_linker_0, # of connection points: 2
#     Edge 81, Type (0, 0), BuildingBlock: AJUNOK_clean_linker_0, # of connection points: 2
#     Edge 82, Type (0, 0), BuildingBlock: AJUNOK_clean_linker_0, # of connection points: 2
#     Edge 83, Type (0, 0), BuildingBlock: AJUNOK_clean_linker_0, # of connection points: 2
#     Edge 84, Type (0, 0), BuildingBlock: AJUNOK_clean_linker_0, # of connection points: 2
#     Edge 85, Type (0, 0), BuildingBlock: AJUNOK_clean_linker_0, # of connection points: 2
#     Edge 86, Type (0, 0), BuildingBlock: AJUNOK_clean_linker_0, # of connection points: 2
#     Edge 87, Type (0, 0), BuildingBlock: AJUNOK_clean_linker_0, # of connection points: 2
#     Edge 88, Type (0, 0), BuildingBlock: AJUNOK_clean_linker_0, # of connection points: 2
#     Edge 89, Type (0, 0), BuildingBlock: AJUNOK_clean_linker_0, # of connection points: 2
#     Edge 90, Type (0, 0), BuildingBlock: AJUNOK_clean_linker_0, # of connection points: 2
#     Edge 91, Type (0, 0), BuildingBlock: AJUNOK_clean_linker_0, # of connection points: 2
#     Edge 92, Type (0, 0), BuildingBlock: AJUNOK_clean_linker_0, # of connection points: 2
#     Edge 93, Type (0, 0), BuildingBlock: AJUNOK_clean_linker_0, # of connection points: 2
#     Edge 94, Type (0, 0), BuildingBlock: AJUNOK_clean_linker_0, # of connection points: 2
#     Edge 95, Type (0, 0), BuildingBlock: AJUNOK_clean_linker_0, # of connection points: 2
# Relax obj value: 0.063
# Max RMSD: 0.052
# Mean RMSD: 0.052
data_MOF--net-umq--node1-QUQFOY_clean_sbu_3--edge1-AJUNOK_clean_linker_0
_symmetry_space_group_name_H-M    P1
_symmetry_Int_Tables_number       1
_symmetry_cell_setting            triclinic
loop_
_symmetry_equiv_pos_as_xyz
'x, y, z'
_cell_length_a     51.465086
_cell_length_b     51.288908
_cell_length_c     35.138008
_cell_angle_alpha  89.994006
_cell_angle_beta   89.960834
_cell_angle_gamma 89.905318
loop_
_atom_site_label
_atom_site_type_symbol
_atom_site_fract_x
_atom_site_fract_y
_atom_site_fract_z
_atom_type_partial_charge
C0 C 0.206 0.08521 0.06016 0.0
O1 O 0.19042 0.10405 0.06543 0.0
Cd2 Cd 0.18984 0.13243 0.11806 0.0
O3 O 0.22162 0.07788 0.08623 0.0
Cd4 Cd 0.22689 0.0888 0.15541 0.0
C5 C 0.25645 0.14398 0.12919 0.0
O6 O 0.18393 0.1048 0.17023 0.0
O7 O 0.21395 0.1184 0.20772 0.0
O8 O 0.21418 0.04602 0.17482 0.0
C9 C 0.18995 0.11755 0.19965 0.0
O10 O 0.23341 0.15118 0.12093 0.0
C11 C 0.23445 0.04037 0.19352 0.0
O12 O 0.2609 0.12104 0.14174 0.0
O13 O 0.25285 0.05693 0.19319 0.0
C14 C 0.88384 0.20118 0.0595 0.0
O15 O 0.86576 0.1852 0.06703 0.0
Cd16 Cd 0.84089 0.18433 0.12333 0.0
O17 O 0.89243 0.21685 0.08468 0.0
Cd18 Cd 0.88634 0.2225 0.15495 0.0
C19 C 0.83006 0.25152 0.13375 0.0
O20 O 0.87217 0.17905 0.17104 0.0
O21 O 0.86161 0.20834 0.21175 0.0
O22 O 0.93168 0.21327 0.16122 0.0
C23 C 0.86159 0.18444 0.20246 0.0
O24 O 0.82254 0.22827 0.12718 0.0
C25 C 0.93754 0.23245 0.18225 0.0
O26 O 0.85346 0.25617 0.1436 0.0
O27 O 0.91927 0.24832 0.19018 0.0
C28 C 0.76385 0.88848 0.05737 0.0
O29 O 0.78001 0.8703 0.06371 0.0
Cd30 Cd 0.78519 0.84681 0.12094 0.0
O31 O 0.74952 0.8976 0.08387 0.0
Cd32 Cd 0.74753 0.89094 0.1549 0.0
C33 C 0.72021 0.83276 0.14095 0.0
O34 O 0.79281 0.87906 0.16701 0.0
O35 O 0.76563 0.8667 0.20943 0.0
O36 O 0.74859 0.93827 0.16188 0.0
C37 C 0.78908 0.86802 0.19866 0.0
O38 O 0.74334 0.82575 0.13279 0.0
C39 C 0.73203 0.93923 0.18862 0.0
O40 O 0.71499 0.85659 0.14787 0.0
O41 O 0.72182 0.91782 0.19881 0.0
C42 C 0.08348 0.76981 0.05069 0.0
O43 O 0.10315 0.7843 0.05547 0.0
Cd44 Cd 0.12964 0.78749 0.1101 0.0
O45 O 0.07453 0.75588 0.07773 0.0
Cd46 Cd 0.08519 0.75262 0.14741 0.0
C47 C 0.14155 0.72208 0.1305 0.0
O48 O 0.10111 0.79641 0.1605 0.0
O49 O 0.11412 0.76674 0.19926 0.0
O50 O 0.04316 0.76505 0.17111 0.0
C51 C 0.11332 0.79073 0.19056 0.0
O52 O 0.14917 0.74476 0.12074 0.0
C53 C 0.03789 0.74375 0.18763 0.0
O54 O 0.1179 0.71811 0.13967 0.0
O55 O 0.0542 0.72526 0.18418 0.0
C56 C 0.20439 0.88229 0.39595 0.0
O57 O 0.18875 0.86423 0.38691 0.0
Cd58 Cd 0.18632 0.84241 0.32788 0.0
O59 O 0.21935 0.89265 0.37126 0.0
Cd60 Cd 0.22377 0.88955 0.30003 0.0
C61 C 0.2527 0.83183 0.3106 0.0
O62 O 0.18028 0.87555 0.28314 0.0
O63 O 0.20967 0.86667 0.24182 0.0
O64 O 0.2136 0.93503 0.29452 0.0
C65 C 0.18586 0.86604 0.251 0.0
O66 O 0.22959 0.82427 0.31764 0.0
C67 C 0.23274 0.94149 0.27388 0.0
O68 O 0.25758 0.85591 0.30491 0.0
O69 O 0.24928 0.9237 0.26656 0.0
C70 C 0.07962 0.20364 0.39625 0.0
O71 O 0.09893 0.1887 0.39082 0.0
Cd72 Cd 0.12726 0.18858 0.33804 0.0
O73 O 0.07185 0.21924 0.3704 0.0
Cd74 Cd 0.08322 0.22543 0.30176 0.0
C75 C 0.13837 0.25533 0.32649 0.0
O76 O 0.10014 0.18287 0.28538 0.0
O77 O 0.11349 0.21423 0.24982 0.0
O78 O 0.04152 0.2127 0.27847 0.0
C79 C 0.1131 0.18995 0.25665 0.0
O80 O 0.146 0.23228 0.33437 0.0
C81 C 0.03568 0.23408 0.26255 0.0
O82 O 0.11511 0.25952 0.31549 0.0
O83 O 0.05164 0.25284 0.26607 0.0
C84 C 0.7668 0.08499 0.39716 0.0
O85 O 0.78328 0.10281 0.39057 0.0
Cd86 Cd 0.78551 0.12885 0.33553 0.0
O87 O 0.75097 0.07745 0.37149 0.0
Cd88 Cd 0.74583 0.08582 0.3013 0.0
C89 C 0.7193 0.14317 0.32461 0.0
O90 O 0.79021 0.09826 0.28651 0.0
O91 O 0.76167 0.11132 0.24646 0.0
O92 O 0.74748 0.03867 0.29506 0.0
C93 C 0.78539 0.11023 0.25592 0.0
O94 O 0.74273 0.14968 0.33153 0.0
C95 C 0.73074 0.03715 0.26868 0.0
O96 O 0.71376 0.11999 0.31427 0.0
O97 O 0.72022 0.05831 0.25784 0.0
C98 C 0.885 0.77419 0.3972 0.0
O99 O 0.86611 0.78921 0.38948 0.0
Cd100 Cd 0.84323 0.79193 0.33135 0.0
O101 O 0.89528 0.75976 0.37172 0.0
Cd102 Cd 0.89036 0.75583 0.30071 0.0
C103 C 0.83341 0.72561 0.31328 0.0
O104 O 0.87566 0.79974 0.28593 0.0
O105 O 0.86692 0.77111 0.24346 0.0
O106 O 0.93602 0.7647 0.29384 0.0
C107 C 0.86604 0.79479 0.25371 0.0
O108 O 0.82517 0.74853 0.32068 0.0
C109 C 0.94149 0.74553 0.27251 0.0
O110 O 0.85748 0.7215 0.30697 0.0
O111 O 0.92299 0.72995 0.26495 0.0
C112 C 0.76213 0.88568 0.89822 0.0
O113 O 0.77564 0.86518 0.8936 0.0
Cd114 Cd 0.78602 0.84254 0.83687 0.0
O115 O 0.75176 0.89759 0.87015 0.0
Cd116 Cd 0.7519 0.89133 0.79907 0.0
C117 C 0.7239 0.83139 0.80265 0.0
O118 O 0.79716 0.87772 0.79753 0.0
O119 O 0.77807 0.87644 0.74365 0.0
O120 O 0.75112 0.93899 0.79657 0.0
C121 C 0.79863 0.87244 0.76255 0.0
O122 O 0.74587 0.82329 0.81441 0.0
C123 C 0.73652 0.9404 0.76752 0.0
O124 O 0.71959 0.85566 0.79769 0.0
O125 O 0.72833 0.91903 0.75387 0.0
C126 C 0.08147 0.77047 0.892 0.0
O127 O 0.0992 0.787 0.88531 0.0
Cd128 Cd 0.12434 0.79033 0.82952 0.0
O129 O 0.07381 0.75461 0.86636 0.0
Cd130 Cd 0.08185 0.7497 0.79582 0.0
C131 C 0.14018 0.72441 0.81627 0.0
O132 O 0.09278 0.79479 0.78192 0.0
O133 O 0.10594 0.76712 0.74062 0.0
O134 O 0.03477 0.74977 0.79035 0.0
C135 C 0.10424 0.79076 0.75072 0.0
O136 O 0.14609 0.74803 0.8235 0.0
C137 C 0.03361 0.73334 0.76345 0.0
O138 O 0.11703 0.71829 0.80687 0.0
O139 O 0.05495 0.72364 0.75199 0.0
C140 C 0.20658 0.08581 0.90239 0.0
O141 O 0.19232 0.10581 0.89797 0.0
Cd142 Cd 0.19045 0.1346 0.84564 0.0
O143 O 0.22099 0.07721 0.8756 0.0
Cd144 Cd 0.22654 0.08744 0.80623 0.0
C145 C 0.25721 0.14314 0.83133 0.0
O146 O 0.184 0.10548 0.7958 0.0
O147 O 0.21074 0.11117 0.74946 0.0
O148 O 0.21375 0.04402 0.78999 0.0
C149 C 0.18803 0.11422 0.76275 0.0
O150 O 0.23461 0.15091 0.84096 0.0
C151 C 0.23346 0.03838 0.76996 0.0
O152 O 0.2608 0.12028 0.81784 0.0
O153 O 0.25173 0.05505 0.7687 0.0
C154 C 0.88479 0.20263 0.89963 0.0
O155 O 0.86467 0.18917 0.89275 0.0
Cd156 Cd 0.84143 0.18409 0.83563 0.0
O157 O 0.89639 0.21543 0.8735 0.0
Cd158 Cd 0.89113 0.21915 0.80258 0.0
C159 C 0.83316 0.24951 0.81117 0.0
O160 O 0.8757 0.17528 0.79419 0.0
O161 O 0.87225 0.1988 0.74424 0.0
O162 O 0.93676 0.21032 0.79437 0.0
C163 C 0.86885 0.17677 0.75985 0.0
O164 O 0.82471 0.22708 0.82051 0.0
C165 C 0.94171 0.22982 0.77338 0.0
O166 O 0.85733 0.25338 0.80532 0.0
O167 O 0.92316 0.24567 0.76724 0.0
C168 C 0.76586 0.08739 0.55578 0.0
O169 O 0.78013 0.10735 0.56018 0.0
Cd170 Cd 0.78488 0.13402 0.6143 0.0
O171 O 0.75242 0.07802 0.58313 0.0
Cd172 Cd 0.74818 0.08715 0.6534 0.0
C173 C 0.71894 0.14481 0.63249 0.0
O174 O 0.7928 0.10117 0.65888 0.0
O175 O 0.77071 0.10528 0.71018 0.0
O176 O 0.74881 0.03971 0.65867 0.0
C177 C 0.79231 0.10787 0.69337 0.0
O178 O 0.74153 0.15221 0.62235 0.0
C179 C 0.73382 0.03865 0.68733 0.0
O180 O 0.71511 0.12171 0.64473 0.0
O181 O 0.72425 0.06005 0.69899 0.0
C182 C 0.88363 0.77246 0.55727 0.0
O183 O 0.86416 0.78696 0.56415 0.0
Cd184 Cd 0.84056 0.79205 0.62113 0.0
O185 O 0.89402 0.75836 0.58315 0.0
Cd186 Cd 0.8875 0.7529 0.65412 0.0
C187 C 0.82791 0.72634 0.63872 0.0
O188 O 0.87576 0.79808 0.6623 0.0
O189 O 0.87222 0.77557 0.71314 0.0
O190 O 0.93494 0.75082 0.65713 0.0
C191 C 0.87004 0.79758 0.69715 0.0
O192 O 0.82077 0.74944 0.63037 0.0
C193 C 0.93572 0.73469 0.68452 0.0
O194 O 0.85144 0.72146 0.64768 0.0
O195 O 0.91413 0.72589 0.69635 0.0
C196 C 0.20311 0.88282 0.55743 0.0
O197 O 0.1883 0.86388 0.56563 0.0
Cd198 Cd 0.18331 0.84272 0.62481 0.0
O199 O 0.21646 0.89435 0.58297 0.0
Cd200 Cd 0.21878 0.89101 0.65443 0.0
C201 C 0.2486 0.83312 0.64827 0.0
O202 O 0.17466 0.87688 0.66706 0.0
O203 O 0.20184 0.86853 0.71153 0.0
O204 O 0.20973 0.93681 0.662 0.0
C205 C 0.17856 0.86766 0.69985 0.0
O206 O 0.22594 0.82474 0.64021 0.0
C207 C 0.22876 0.94203 0.68358 0.0
O208 O 0.25277 0.85746 0.65253 0.0
O209 O 0.24459 0.92352 0.69024 0.0
C210 C 0.08236 0.20355 0.55328 0.0
O211 O 0.10291 0.18999 0.55631 0.0
Cd212 Cd 0.13258 0.18874 0.60731 0.0
O213 O 0.074 0.21747 0.58078 0.0
Cd214 Cd 0.08613 0.22291 0.64942 0.0
C215 C 0.14036 0.25537 0.62285 0.0
O216 O 0.10498 0.18035 0.65865 0.0
O217 O 0.11176 0.20718 0.7045 0.0
O218 O 0.04334 0.21036 0.66916 0.0
C219 C 0.11485 0.18446 0.69096 0.0
O220 O 0.14866 0.23308 0.61241 0.0
C221 C 0.03795 0.23097 0.68748 0.0
O222 O 0.11765 0.25805 0.63696 0.0
O223 O 0.05476 0.24912 0.68701 0.0
C224 C 0.70822 0.58566 0.55585 0.0
O225 O 0.69253 0.60454 0.56038 0.0
Cd226 Cd 0.68465 0.62967 0.61544 0.0
O227 O 0.72167 0.57662 0.58341 0.0
Cd228 Cd 0.72368 0.58456 0.6542 0.0
C229 C 0.74915 0.64456 0.63739 0.0
O230 O 0.67819 0.59602 0.65925 0.0
O231 O 0.69965 0.60102 0.71081 0.0
O232 O 0.72546 0.5371 0.65878 0.0
C233 C 0.67805 0.60272 0.69377 0.0
O234 O 0.72626 0.65069 0.62688 0.0
C235 C 0.74062 0.53657 0.68726 0.0
O236 O 0.75442 0.62136 0.6481 0.0
O237 O 0.74912 0.55834 0.69912 0.0
C238 C 0.38203 0.71405 0.55758 0.0
O239 O 0.36185 0.70012 0.56172 0.0
Cd240 Cd 0.33908 0.68953 0.61828 0.0
O241 O 0.39364 0.72437 0.58589 0.0
Cd242 Cd 0.38788 0.72407 0.65676 0.0
C243 C 0.32846 0.75287 0.64963 0.0
O244 O 0.37404 0.67899 0.65811 0.0
O245 O 0.37356 0.69787 0.71238 0.0
O246 O 0.43522 0.72467 0.65742 0.0
C247 C 0.36929 0.67741 0.69325 0.0
O248 O 0.32032 0.7308 0.6381 0.0
C249 C 0.43716 0.73899 0.68676 0.0
O250 O 0.3525 0.75662 0.65653 0.0
O251 O 0.41615 0.74717 0.70152 0.0
C252 C 0.26763 0.39525 0.5576 0.0
O253 O 0.2841 0.37738 0.56404 0.0
Cd254 Cd 0.284 0.35051 0.61824 0.0
O255 O 0.25123 0.40211 0.58296 0.0
Cd256 Cd 0.24556 0.39282 0.65289 0.0
C257 C 0.21732 0.33776 0.62637 0.0
O258 O 0.28978 0.37986 0.66897 0.0
O259 O 0.26027 0.36522 0.70631 0.0
O260 O 0.24737 0.43981 0.6603 0.0
C261 C 0.28426 0.36736 0.69885 0.0
O262 O 0.24061 0.33076 0.61929 0.0
C263 C 0.23056 0.44118 0.68662 0.0
O264 O 0.21232 0.36064 0.63843 0.0
O265 O 0.22007 0.41998 0.69718 0.0
C266 C 0.58573 0.2764 0.55522 0.0
O267 O 0.60473 0.29141 0.56209 0.0
Cd268 Cd 0.62998 0.29213 0.61802 0.0
O269 O 0.57659 0.26127 0.58073 0.0
Cd270 Cd 0.58311 0.25596 0.65122 0.0
C271 C 0.63887 0.22489 0.63148 0.0
O272 O 0.59882 0.29939 0.6654 0.0
O273 O 0.60683 0.27084 0.70835 0.0
O274 O 0.53804 0.26664 0.65858 0.0
C275 C 0.60842 0.29439 0.69762 0.0
O276 O 0.64688 0.24775 0.62346 0.0
C277 C 0.53198 0.24795 0.68041 0.0
O278 O 0.61546 0.22103 0.64204 0.0
O279 O 0.5498 0.23146 0.68771 0.0
C280 C 0.70859 0.38659 0.8963 0.0
O281 O 0.6936 0.36756 0.88951 0.0
Cd282 Cd 0.68981 0.34429 0.83218 0.0
O283 O 0.72286 0.39637 0.87023 0.0
Cd284 Cd 0.7267 0.38921 0.79929 0.0
C285 C 0.75508 0.3314 0.81163 0.0
O286 O 0.68146 0.37726 0.7874 0.0
O287 O 0.70818 0.36558 0.74407 0.0
O288 O 0.72535 0.43664 0.79454 0.0
C289 C 0.68481 0.36707 0.7551 0.0
O290 O 0.73204 0.3242 0.81966 0.0
C291 C 0.74126 0.43835 0.76707 0.0
O292 O 0.76029 0.35537 0.80596 0.0
O293 O 0.75114 0.41721 0.75502 0.0
C294 C 0.59171 0.70996 0.89166 0.0
O295 O 0.61197 0.69637 0.88582 0.0
Cd296 Cd 0.63426 0.68758 0.82857 0.0
O297 O 0.57977 0.7214 0.8645 0.0
Cd298 Cd 0.58558 0.7228 0.79324 0.0
C299 C 0.64511 0.75106 0.79846 0.0
O300 O 0.59837 0.67748 0.79045 0.0
O301 O 0.60067 0.69701 0.737 0.0
O302 O 0.53814 0.72367 0.79096 0.0
C303 C 0.6038 0.67608 0.75557 0.0
O304 O 0.65327 0.72872 0.80885 0.0
C305 C 0.53676 0.73841 0.762 0.0
O306 O 0.62093 0.75536 0.79354 0.0
O307 O 0.55804 0.74697 0.74873 0.0
C308 C 0.26763 0.58846 0.89506 0.0
O309 O 0.28254 0.6078 0.88954 0.0
Cd310 Cd 0.28816 0.63272 0.83387 0.0
O311 O 0.25379 0.57897 0.86828 0.0
Cd312 Cd 0.2496 0.58706 0.79782 0.0
C313 C 0.22297 0.64644 0.81587 0.0
O314 O 0.29476 0.59836 0.79094 0.0
O315 O 0.27266 0.60408 0.74028 0.0
O316 O 0.24766 0.53966 0.79367 0.0
C317 C 0.29455 0.60539 0.7566 0.0
O318 O 0.2459 0.65338 0.8249 0.0
C319 C 0.23184 0.53915 0.76598 0.0
O320 O 0.21828 0.62303 0.80578 0.0
O321 O 0.22323 0.56093 0.75426 0.0
C322 C 0.3901 0.27821 0.90115 0.0
O323 O 0.37054 0.29281 0.89569 0.0
Cd324 Cd 0.34312 0.29196 0.84215 0.0
O325 O 0.39851 0.26317 0.87493 0.0
Cd326 Cd 0.38788 0.25763 0.80539 0.0
C327 C 0.33494 0.22471 0.83068 0.0
O328 O 0.37084 0.30061 0.79055 0.0
O329 O 0.35754 0.26989 0.75384 0.0
O330 O 0.43011 0.27027 0.78296 0.0
C331 C 0.35862 0.29412 0.76088 0.0
O332 O 0.32644 0.2473 0.83938 0.0
C333 C 0.43547 0.24925 0.76571 0.0
O334 O 0.35789 0.22169 0.81779 0.0
O335 O 0.4191 0.2308 0.76823 0.0
C336 C 0.26762 0.39318 0.39937 0.0
O337 O 0.28293 0.37407 0.39453 0.0
Cd338 Cd 0.28512 0.34732 0.34015 0.0
O339 O 0.25279 0.40111 0.37267 0.0
Cd340 Cd 0.24858 0.39063 0.30295 0.0
C341 C 0.21903 0.33507 0.32634 0.0
O342 O 0.29341 0.37739 0.29091 0.0
O343 O 0.26547 0.36356 0.25048 0.0
O344 O 0.24971 0.43758 0.29375 0.0
C345 C 0.2891 0.36545 0.26013 0.0
O346 O 0.24196 0.32735 0.33431 0.0
C347 C 0.23353 0.43805 0.26656 0.0
O348 O 0.21495 0.3585 0.31593 0.0
O349 O 0.22376 0.41643 0.25643 0.0
C350 C 0.58541 0.2763 0.39589 0.0
O351 O 0.60402 0.29173 0.38877 0.0
Cd352 Cd 0.62925 0.2923 0.33293 0.0
O353 O 0.57696 0.26049 0.37074 0.0
Cd354 Cd 0.58488 0.25395 0.30066 0.0
C355 C 0.64121 0.22542 0.32352 0.0
O356 O 0.59785 0.29826 0.28514 0.0
O357 O 0.6099 0.26933 0.24497 0.0
O358 O 0.53778 0.25545 0.29502 0.0
C359 C 0.60897 0.29322 0.254 0.0
O360 O 0.64874 0.2487 0.32977 0.0
C361 C 0.53626 0.23855 0.26877 0.0
O362 O 0.61784 0.22077 0.31368 0.0
O363 O 0.55735 0.22812 0.25774 0.0
C364 C 0.71132 0.58693 0.39766 0.0
O365 O 0.69701 0.60684 0.39293 0.0
Cd366 Cd 0.69001 0.63155 0.33715 0.0
O367 O 0.72398 0.57674 0.37016 0.0
Cd368 Cd 0.72657 0.58501 0.29962 0.0
C369 C 0.75433 0.64422 0.31341 0.0
O370 O 0.68137 0.59797 0.2937 0.0
O371 O 0.70376 0.60281 0.24294 0.0
O372 O 0.72691 0.53756 0.29416 0.0
C373 C 0.68194 0.60498 0.25931 0.0
O374 O 0.73169 0.65168 0.32337 0.0
C375 C 0.74233 0.53686 0.26598 0.0
O376 O 0.75873 0.6204 0.30515 0.0
O377 O 0.75156 0.55846 0.25466 0.0
C378 C 0.38424 0.70944 0.3995 0.0
O379 O 0.36491 0.6943 0.39615 0.0
Cd380 Cd 0.34077 0.68527 0.34053 0.0
O381 O 0.39454 0.72054 0.37072 0.0
Cd382 Cd 0.38841 0.71827 0.29995 0.0
C383 C 0.33104 0.74944 0.31084 0.0
O384 O 0.37282 0.67374 0.29636 0.0
O385 O 0.368 0.69602 0.24515 0.0
O386 O 0.43372 0.70823 0.2912 0.0
C387 C 0.36529 0.67439 0.26217 0.0
O388 O 0.32314 0.72756 0.32348 0.0
C389 C 0.43849 0.72611 0.26725 0.0
O390 O 0.35472 0.75257 0.30111 0.0
O391 O 0.42018 0.74203 0.26001 0.0
C392 C 0.26752 0.58609 0.05424 0.0
O393 O 0.28205 0.60557 0.06074 0.0
Cd394 Cd 0.28745 0.6297 0.11732 0.0
O395 O 0.25382 0.57571 0.08049 0.0
Cd396 Cd 0.24954 0.58257 0.15111 0.0
C397 C 0.2221 0.6419 0.13595 0.0
O398 O 0.29433 0.59531 0.15991 0.0
O399 O 0.27085 0.59933 0.20978 0.0
O400 O 0.24916 0.53514 0.15604 0.0
C401 C 0.29302 0.60161 0.19453 0.0
O402 O 0.24498 0.6495 0.12766 0.0
C403 C 0.23262 0.5344 0.18285 0.0
O404 O 0.21769 0.61808 0.14405 0.0
O405 O 0.22279 0.55596 0.19331 0.0
C406 C 0.39114 0.27712 0.06032 0.0
O407 O 0.3726 0.29265 0.06758 0.0
Cd408 Cd 0.34689 0.292 0.12294 0.0
O409 O 0.39931 0.26103 0.08534 0.0
Cd410 Cd 0.39057 0.25408 0.1553 0.0
C411 C 0.33537 0.22491 0.13046 0.0
O412 O 0.37722 0.29822 0.1722 0.0
O413 O 0.36349 0.26821 0.20951 0.0
O414 O 0.43746 0.25627 0.16352 0.0
C415 C 0.36531 0.29235 0.20243 0.0
O416 O 0.32765 0.24819 0.12446 0.0
C417 C 0.43867 0.23894 0.18921 0.0
O418 O 0.35864 0.22037 0.14091 0.0
O419 O 0.41756 0.22782 0.19845 0.0
C420 C 0.70498 0.38946 0.05629 0.0
O421 O 0.68832 0.37194 0.0635 0.0
Cd422 Cd 0.6854 0.3473 0.1199 0.0
O423 O 0.72049 0.39765 0.08197 0.0
Cd424 Cd 0.72474 0.39082 0.15279 0.0
C425 C 0.75145 0.33318 0.13209 0.0
O426 O 0.68017 0.37865 0.16787 0.0
O427 O 0.70871 0.36641 0.20846 0.0
O428 O 0.72361 0.43806 0.15884 0.0
C429 C 0.68498 0.36729 0.19898 0.0
O430 O 0.72808 0.32647 0.12519 0.0
C431 C 0.74069 0.43938 0.18479 0.0
O432 O 0.75687 0.35653 0.14165 0.0
O433 O 0.7511 0.41811 0.19533 0.0
C434 C 0.59056 0.70617 0.05097 0.0
O435 O 0.61047 0.69198 0.05633 0.0
Cd436 Cd 0.63455 0.68493 0.11278 0.0
O437 O 0.57937 0.71802 0.0784 0.0
Cd438 Cd 0.58524 0.71861 0.14937 0.0
C439 C 0.64293 0.74976 0.13954 0.0
O440 O 0.60176 0.67468 0.15619 0.0
O441 O 0.60477 0.69818 0.20653 0.0
O442 O 0.54036 0.70761 0.15932 0.0
C443 C 0.60828 0.67623 0.19075 0.0
O444 O 0.65155 0.72769 0.12863 0.0
C445 C 0.53496 0.72649 0.18127 0.0
O446 O 0.61891 0.75288 0.14748 0.0
O447 O 0.55261 0.74344 0.18653 0.0
C448 C 0.32 0.17983 0.14698 0.0
C449 C 0.31657 0.20318 0.12648 0.0
C450 C 0.30095 0.16023 0.14663 0.0
C451 C 0.27783 0.16326 0.12568 0.0
H452 H 0.33705 0.17706 0.16459 0.0
H453 H 0.30397 0.14305 0.16401 0.0
S454 S 0.26141 0.21896 0.06239 0.0
N455 N 0.28962 0.22691 0.08136 0.0
N456 N 0.25403 0.19023 0.08048 0.0
C457 C 0.27491 0.18589 0.10334 0.0
C458 C 0.29421 0.2058 0.10381 0.0
C459 C 0.81492 0.29687 0.1495 0.0
C460 C 0.81093 0.27307 0.13043 0.0
C461 C 0.79593 0.31658 0.1491 0.0
C462 C 0.77227 0.31319 0.12963 0.0
H463 H 0.8325 0.30004 0.16579 0.0
H464 H 0.79953 0.33426 0.16511 0.0
S465 S 0.75381 0.25592 0.0709 0.0
N466 N 0.78254 0.24832 0.08849 0.0
N467 N 0.74704 0.28516 0.08778 0.0
C468 C 0.76858 0.28995 0.10904 0.0
C469 C 0.78785 0.26996 0.10944 0.0
C470 C 0.6884 0.76625 0.14013 0.0
C471 C 0.66163 0.77174 0.14213 0.0
C472 C 0.7069 0.78611 0.14024 0.0
C473 C 0.69961 0.81251 0.14233 0.0
H474 H 0.69533 0.74634 0.13821 0.0
H475 H 0.72717 0.78053 0.13847 0.0
S476 S 0.63202 0.83762 0.14918 0.0
N477 N 0.62866 0.80564 0.14719 0.0
N478 N 0.6636 0.84318 0.14741 0.0
C479 C 0.67291 0.81842 0.14516 0.0
C480 C 0.65392 0.79802 0.14507 0.0
C481 C 0.20682 0.68783 0.12942 0.0
C482 C 0.20069 0.66142 0.13539 0.0
C483 C 0.18755 0.70696 0.12783 0.0
C484 C 0.16109 0.70072 0.13214 0.0
H485 H 0.2268 0.69401 0.12592 0.0
H486 H 0.19365 0.72693 0.12332 0.0
S487 S 0.13431 0.63443 0.14824 0.0
N488 N 0.16604 0.6299 0.14557 0.0
N489 N 0.12964 0.66606 0.14263 0.0
C490 C 0.15451 0.6744 0.13829 0.0
C491 C 0.1743 0.65474 0.13989 0.0
C492 C 0.26734 0.78597 0.3193 0.0
C493 C 0.27361 0.81181 0.30955 0.0
C494 C 0.286 0.76626 0.31905 0.0
C495 C 0.312 0.77126 0.309 0.0
H496 H 0.24775 0.7807 0.32753 0.0
H497 H 0.27978 0.74686 0.3271 0.0
S498 S 0.33869 0.83543 0.27968 0.0
N499 N 0.30771 0.84134 0.28849 0.0
N500 N 0.34304 0.80403 0.28807 0.0
C501 C 0.31866 0.79694 0.29863 0.0
C502 C 0.29946 0.81723 0.29894 0.0
C503 C 0.20241 0.29043 0.34062 0.0
C504 C 0.19729 0.31604 0.32834 0.0
C505 C 0.18306 0.27138 0.34077 0.0
C506 C 0.15758 0.27692 0.32864 0.0
H507 H 0.22172 0.28477 0.34973 0.0
H508 H 0.18843 0.25194 0.34995 0.0
S509 S 0.13334 0.34138 0.29589 0.0
N510 N 0.16436 0.34634 0.30532 0.0
N511 N 0.12789 0.31038 0.30559 0.0
C512 C 0.15185 0.30265 0.31734 0.0
C513 C 0.17169 0.3222 0.31719 0.0
C514 C 0.67475 0.16 0.30852 0.0
C515 C 0.6986 0.16329 0.32752 0.0
C516 C 0.65593 0.17987 0.30821 0.0
C517 C 0.66026 0.20377 0.32686 0.0
H518 H 0.67087 0.14228 0.29277 0.0
H519 H 0.6382 0.17674 0.29226 0.0
S520 S 0.71801 0.22081 0.38512 0.0
N521 N 0.72439 0.19139 0.36856 0.0
N522 N 0.6892 0.22856 0.36791 0.0
C523 C 0.68354 0.20681 0.34741 0.0
C524 C 0.70264 0.18664 0.34776 0.0
C525 C 0.76867 0.69058 0.31412 0.0
C526 C 0.77537 0.66401 0.31185 0.0
C527 C 0.78759 0.71003 0.31419 0.0
C528 C 0.81423 0.70398 0.31205 0.0
H529 H 0.74852 0.69659 0.31595 0.0
H530 H 0.78107 0.73009 0.31604 0.0
S531 S 0.84237 0.63741 0.30509 0.0
N532 N 0.81068 0.63256 0.30687 0.0
N533 N 0.84643 0.66931 0.30705 0.0
C534 C 0.82135 0.6775 0.30922 0.0
C535 C 0.80192 0.65752 0.3091 0.0
C536 C 0.67694 0.81788 0.803 0.0
C537 C 0.70322 0.81189 0.79596 0.0
C538 C 0.65779 0.79834 0.80196 0.0
C539 C 0.66436 0.77226 0.79382 0.0
H540 H 0.67133 0.83747 0.81115 0.0
H541 H 0.63799 0.80347 0.80935 0.0
S542 S 0.72957 0.74763 0.76616 0.0
N543 N 0.73413 0.77882 0.77549 0.0
N544 N 0.69835 0.74232 0.7735 0.0
C545 C 0.69026 0.76652 0.7841 0.0
C546 C 0.70963 0.78627 0.78518 0.0
C547 C 0.15753 0.67982 0.80032 0.0
C548 C 0.16085 0.70416 0.8182 0.0
C549 C 0.17752 0.66112 0.80002 0.0
C550 C 0.20162 0.66602 0.8176 0.0
H551 H 0.13955 0.67534 0.78573 0.0
H552 H 0.17418 0.64287 0.78531 0.0
S553 S 0.21929 0.72574 0.87166 0.0
N554 N 0.18955 0.73139 0.85623 0.0
N555 N 0.2269 0.69647 0.8557 0.0
C556 C 0.20487 0.69001 0.83657 0.0
C557 C 0.18457 0.70898 0.83687 0.0
C558 C 0.31938 0.18047 0.8101 0.0
C559 C 0.31726 0.2021 0.8346 0.0
C560 C 0.30056 0.16061 0.81029 0.0
C561 C 0.27907 0.16176 0.83504 0.0
H562 H 0.33499 0.17946 0.78945 0.0
H563 H 0.30222 0.14494 0.78975 0.0
S564 S 0.26731 0.21182 0.90954 0.0
N565 N 0.29387 0.22169 0.88755 0.0
N566 N 0.25875 0.18454 0.88809 0.0
C567 C 0.2778 0.18239 0.86142 0.0
C568 C 0.29682 0.20251 0.86115 0.0
C569 C 0.82077 0.29697 0.81591 0.0
C570 C 0.81409 0.271 0.80739 0.0
C571 C 0.80178 0.31678 0.81628 0.0
C572 C 0.77557 0.31117 0.80822 0.0
H573 H 0.84054 0.30183 0.82366 0.0
H574 H 0.8075 0.33636 0.82415 0.0
S575 S 0.74909 0.24712 0.77792 0.0
N576 N 0.78012 0.24147 0.78624 0.0
N577 N 0.74471 0.27835 0.78713 0.0
C578 C 0.76907 0.28554 0.79766 0.0
C579 C 0.78826 0.26556 0.79718 0.0
C580 C 0.65566 0.18109 0.65277 0.0
C581 C 0.65759 0.20295 0.62869 0.0
C582 C 0.67513 0.16176 0.65316 0.0
C583 C 0.69714 0.1637 0.62946 0.0
H584 H 0.63955 0.17939 0.67247 0.0
H585 H 0.67338 0.14574 0.67307 0.0
S586 S 0.70907 0.21489 0.55671 0.0
N587 N 0.68169 0.22374 0.57749 0.0
N588 N 0.71801 0.18769 0.57809 0.0
C589 C 0.69844 0.18472 0.60376 0.0
C590 C 0.67875 0.20427 0.60341 0.0
C591 C 0.79297 0.66195 0.657 0.0
C592 C 0.7697 0.66492 0.63632 0.0
C593 C 0.81197 0.68166 0.6573 0.0
C594 C 0.80837 0.70507 0.637 0.0
H595 H 0.79635 0.64449 0.67363 0.0
H596 H 0.82934 0.67872 0.67416 0.0
S597 S 0.75224 0.72128 0.57477 0.0
N598 N 0.74522 0.69238 0.59253 0.0
N599 N 0.78063 0.72912 0.5932 0.0
C600 C 0.78556 0.70788 0.61525 0.0
C601 C 0.76633 0.68791 0.61489 0.0
C602 C 0.26356 0.78723 0.65537 0.0
C603 C 0.26994 0.8138 0.65214 0.0
C604 C 0.28273 0.76797 0.65594 0.0
C605 C 0.30925 0.77431 0.6534 0.0
H606 H 0.24347 0.78104 0.65688 0.0
H607 H 0.27657 0.74782 0.65773 0.0
S608 S 0.33665 0.84107 0.64705 0.0
N609 N 0.30488 0.84564 0.64839 0.0
N610 N 0.34111 0.80922 0.64951 0.0
C611 C 0.31612 0.80085 0.65183 0.0
C612 C 0.29644 0.82063 0.65118 0.0
C613 C 0.155 0.29988 0.64359 0.0
C614 C 0.15818 0.27798 0.61987 0.0
C615 C 0.17368 0.31982 0.64446 0.0
C616 C 0.19618 0.31849 0.62172 0.0
H617 H 0.13856 0.30113 0.66276 0.0
H618 H 0.17101 0.3358 0.66424 0.0
S619 S 0.21145 0.26758 0.55001 0.0
N620 N 0.18398 0.25789 0.56964 0.0
N621 N 0.21897 0.29514 0.57154 0.0
C622 C 0.19875 0.29752 0.59624 0.0
C623 C 0.17978 0.27734 0.59524 0.0
C624 C 0.18414 0.07215 0.00082 0.0
C625 C 0.20739 0.07437 0.02147 0.0
C626 C 0.18428 0.0723 0.9611 0.0
C627 C 0.20767 0.0746 0.94082 0.0
H628 H 0.16558 0.07292 0.01539 0.0
H629 H 0.16583 0.07323 0.94628 0.0
S630 S 0.27399 0.0758 -0.01847 0.0
N631 N 0.25458 0.07477 0.01899 0.0
N632 N 0.25482 0.07501 0.94384 0.0
C633 C 0.2312 0.07335 0.96095 0.0
C634 C 0.23106 0.07323 0.0016 0.0
C635 C 0.89419 0.17944 0.95924 0.0
C636 C 0.89387 0.20311 0.9392 0.0
C637 C 0.89381 0.17905 -0.00109 0.0
C638 C 0.89304 0.20235 0.01988 0.0
H639 H 0.89258 0.16109 0.94413 0.0
H640 H 0.89202 0.1604 0.01317 0.0
S641 S 0.89615 0.26938 -0.01922 0.0
N642 N 0.89616 0.25033 0.94283 0.0
N643 N 0.89547 0.24968 0.018 0.0
C644 C 0.89563 0.22613 0.00034 0.0
C645 C 0.89602 0.2265 0.95967 0.0
C646 C 0.73722 0.89284 0.95817 0.0
C647 C 0.76024 0.89597 0.93709 0.0
C648 C 0.73769 0.89365 -0.0018 0.0
C649 C 0.76122 0.8974 0.0178 0.0
H650 H 0.71939 0.88734 0.94393 0.0
H651 H 0.72019 0.88873 0.01375 0.0
S652 S 0.82558 0.91102 0.9751 0.0
N653 N 0.80616 0.9065 0.93829 0.0
N654 N 0.80709 0.90786 0.01326 0.0
C655 C 0.78366 0.90317 -0.00321 0.0
C656 C 0.78316 0.90246 0.95638 0.0
C657 C 0.0734 0.74516 0.95145 0.0
C658 C 0.07182 0.76884 0.93136 0.0
C659 C 0.07383 0.74499 -0.00851 0.0
C660 C 0.07262 0.76848 0.01208 0.0
H661 H 0.07708 0.72711 0.93635 0.0
H662 H 0.07785 0.72682 0.0061 0.0
S663 S 0.06229 0.83462 0.97265 0.0
N664 N 0.06439 0.81554 0.9349 0.0
N665 N 0.06528 0.81519 0.00988 0.0
C666 C 0.06783 0.79171 -0.00772 0.0
C667 C 0.06739 0.7919 0.95186 0.0
C668 C 0.18169 0.89114 0.45648 0.0
C669 C 0.20522 0.8901 0.43627 0.0
C670 C 0.18139 0.89135 0.49619 0.0
C671 C 0.20459 0.89054 0.51715 0.0
H672 H 0.16332 0.89009 0.44152 0.0
H673 H 0.16279 0.8904 0.51061 0.0
S674 S 0.27138 0.89034 0.47781 0.0
N675 N 0.25238 0.89058 0.43988 0.0
N676 N 0.25177 0.89096 0.51509 0.0
C677 C 0.22831 0.89176 0.49744 0.0
C678 C 0.22864 0.89155 0.45673 0.0
C679 C 0.06809 0.18106 0.49517 0.0
C680 C 0.07015 0.2045 0.51556 0.0
C681 C 0.06741 0.18109 0.45547 0.0
C682 C 0.06885 0.20456 0.43499 0.0
H683 H 0.06974 0.16252 0.50979 0.0
H684 H 0.06853 0.16256 0.44072 0.0
S685 S 0.06897 0.27124 0.47544 0.0
N686 N 0.06921 0.25181 0.51297 0.0
N687 N 0.06797 0.2519 0.43785 0.0
C688 C 0.06728 0.22819 0.45507 0.0
C689 C 0.06795 0.22815 0.4957 0.0
C690 C 0.78795 0.07349 0.49711 0.0
C691 C 0.76456 0.07638 0.51725 0.0
C692 C 0.7882 0.07294 0.45741 0.0
C693 C 0.76505 0.07536 0.43654 0.0
H694 H 0.80637 0.07409 0.51203 0.0
H695 H 0.80681 0.07306 0.44296 0.0
S696 S 0.69839 0.07867 0.47613 0.0
N697 N 0.71745 0.07787 0.51395 0.0
N698 N 0.71786 0.07687 0.43879 0.0
C699 C 0.7413 0.07505 0.45633 0.0
C700 C 0.74107 0.07558 0.49699 0.0
C701 C 0.89367 0.74873 0.49691 0.0
C702 C 0.89322 0.77211 0.51783 0.0
C703 C 0.89391 0.7492 0.45685 0.0
C704 C 0.89365 0.77306 0.43707 0.0
H705 H 0.89134 0.73021 0.51134 0.0
H706 H 0.89182 0.73102 0.44148 0.0
S707 S 0.89805 0.83912 0.47913 0.0
N708 N 0.89682 0.81928 0.51612 0.0
N709 N 0.89718 0.82017 0.44116 0.0
C710 C 0.89609 0.79627 0.45784 0.0
C711 C 0.8959 0.79579 0.49825 0.0
C712 C 0.73494 0.57862 0.49768 0.0
C713 C 0.71118 0.57556 0.51697 0.0
C714 C 0.73573 0.57898 0.45766 0.0
C715 C 0.7128 0.57623 0.43633 0.0
H716 H 0.75238 0.5835 0.51338 0.0
H717 H 0.75376 0.58412 0.44361 0.0
S718 S 0.64695 0.5625 0.47367 0.0
N719 N 0.66521 0.5657 0.51201 0.0
N720 N 0.66672 0.56636 0.43705 0.0
C721 C 0.68965 0.57016 0.45539 0.0
C722 C 0.68884 0.56981 0.49579 0.0
C723 C 0.40257 0.69426 0.46028 0.0
C724 C 0.39316 0.71503 0.43821 0.0
C725 C 0.40196 0.69544 0.50004 0.0
C726 C 0.39184 0.7174 0.51878 0.0
H727 H 0.40821 0.67611 0.44678 0.0
H728 H 0.40718 0.67818 0.51613 0.0
S729 S 0.36689 0.77767 0.47381 0.0
N730 N 0.37545 0.75892 0.43765 0.0
N731 N 0.37415 0.76108 0.51272 0.0
C732 C 0.38448 0.73915 0.49713 0.0
C733 C 0.3852 0.73798 0.45658 0.0
C734 C 0.24261 0.40319 0.45823 0.0
C735 C 0.26611 0.4043 0.43784 0.0
C736 C 0.24262 0.40373 0.49824 0.0
C737 C 0.26614 0.40535 0.5185 0.0
H738 H 0.22459 0.39905 0.44352 0.0
H739 H 0.22459 0.39999 0.5132 0.0
S740 S 0.33177 0.41517 0.47772 0.0
N741 N 0.31259 0.41198 0.44035 0.0
N742 N 0.31262 0.41304 0.51533 0.0
C743 C 0.28917 0.40988 0.49819 0.0
C744 C 0.28915 0.40933 0.45777 0.0
C745 C 0.57566 0.25205 0.49564 0.0
C746 C 0.576 0.27569 0.51592 0.0
C747 C 0.57551 0.25202 0.45562 0.0
C748 C 0.5757 0.27564 0.43524 0.0
H749 H 0.57815 0.23372 0.51052 0.0
H750 H 0.57793 0.23366 0.44078 0.0
S751 S 0.57029 0.34215 0.47555 0.0
N752 N 0.57176 0.3228 0.51305 0.0
N753 N 0.57144 0.32275 0.43807 0.0
C754 C 0.57281 0.29908 0.45537 0.0
C755 C 0.57298 0.2991 0.49579 0.0
C756 C 0.68534 0.39879 0.95495 0.0
C757 C 0.70912 0.39647 0.93561 0.0
C758 C 0.68442 0.3996 -0.00538 0.0
C759 C 0.70725 0.39803 0.01638 0.0
H760 H 0.66718 0.39789 0.9394 0.0
H761 H 0.66557 0.39929 0.00839 0.0
S762 S 0.77461 0.3959 -0.02085 0.0
N763 N 0.75618 0.39601 0.94064 0.0
N764 N 0.75449 0.39746 0.01577 0.0
C765 C 0.73131 0.39858 -0.00261 0.0
C766 C 0.73224 0.39779 0.95672 0.0
C767 C 0.57873 0.68611 -0.01015 0.0
C768 C 0.58139 0.70889 0.0116 0.0
C769 C 0.57899 0.68711 0.95017 0.0
C770 C 0.58199 0.71091 0.93092 0.0
H771 H 0.57863 0.66719 0.00359 0.0
H772 H 0.57908 0.66891 0.93447 0.0
S773 S 0.58629 0.77636 0.97478 0.0
N774 N 0.5842 0.75617 0.01134 0.0
N775 N 0.58481 0.75802 0.93615 0.0
C776 C 0.58206 0.73408 0.95215 0.0
C777 C 0.58173 0.73307 -0.00719 0.0
C778 C 0.28962 0.57535 -0.00584 0.0
C779 C 0.26626 0.57682 0.01471 0.0
C780 C 0.28964 0.576 0.95448 0.0
C781 C 0.2663 0.57815 0.93403 0.0
H782 H 0.30811 0.57601 0.00889 0.0
H783 H 0.30815 0.5771 0.93983 0.0
S784 S 0.19982 0.57827 0.97438 0.0
N785 N 0.2191 0.57697 0.01196 0.0
N786 N 0.21914 0.57819 0.93677 0.0
C787 C 0.24271 0.57661 0.95399 0.0
C788 C 0.24268 0.57595 -0.00534 0.0
C789 C 0.40143 0.30059 0.96095 0.0
C790 C 0.40066 0.27726 0.94007 0.0
C791 C 0.40158 0.3003 0.00068 0.0
C792 C 0.40093 0.27667 0.02089 0.0
H793 H 0.39952 0.3192 0.94657 0.0
H794 H 0.39985 0.31871 0.01563 0.0
S795 S 0.40367 0.21032 -0.02059 0.0
N796 N 0.40317 0.22997 0.94214 0.0
N797 N 0.40345 0.22941 0.01729 0.0
C798 C 0.4034 0.25325 0.00044 0.0
C799 C 0.40326 0.25355 0.95975 0.0
C800 C 0.25738 0.00052 0.21851 0.0
C801 C 0.23513 0.0164 0.21673 0.0
C802 C 0.2568 0.97645 0.2378 0.0
C803 C 0.23414 0.96788 0.25661 0.0
H804 H 0.27495 0.00624 0.20376 0.0
H805 H 0.27405 0.96432 0.23745 0.0
S806 S 0.1716 0.00403 0.26317 0.0
N807 N 0.19051 0.02289 0.23715 0.0
N808 N 0.18944 0.97833 0.27392 0.0
C809 C 0.21221 0.98436 0.25635 0.0
C810 C 0.2127 0.00845 0.23626 0.0
C811 C 0.97041 0.25561 0.22316 0.0
C812 C 0.96394 0.23466 0.19896 0.0
C813 C -0.00565 0.25623 0.24251 0.0
C814 C 0.01225 0.2357 0.23868 0.0
H815 H 0.95664 0.27126 0.22804 0.0
H816 H -0.00167 0.27219 0.26182 0.0
S817 S 0.0063 0.17797 0.17592 0.0
N818 N 0.97889 0.19414 0.16981 0.0
N819 N 0.02319 0.19518 0.20685 0.0
C820 C 0.00657 0.21535 0.21342 0.0
C821 C 0.98259 0.21486 0.19334 0.0
C822 C 0.72628 0.0115 0.20891 0.0
C823 C 0.72618 0.01224 0.2489 0.0
C824 C 0.72714 0.98766 0.18936 0.0
C825 C 0.72704 0.96383 0.20917 0.0
H826 H 0.72734 0.02943 0.19268 0.0
H827 H 0.72862 0.98787 0.15861 0.0
S828 S 0.72436 0.95539 0.31392 0.0
N829 N 0.72463 0.98731 0.30759 0.0
N830 N 0.72501 0.94246 0.27087 0.0
C831 C 0.72524 0.96435 0.24908 0.0
C832 C 0.72516 -0.0114 0.26897 0.0
C833 C -0.00355 0.72215 0.20815 0.0
C834 C 0.01495 0.74202 0.21253 0.0
C835 C 0.973 0.72276 0.22877 0.0
C836 C 0.96759 0.74303 0.25477 0.0
H837 H -0.00041 0.70678 0.1875 0.0
H838 H 0.95872 0.70772 0.22339 0.0
S839 S 0.01201 0.79748 0.27991 0.0
N840 N 0.02771 0.78098 0.24677 0.0
N841 N 0.9843 0.78193 0.28624 0.0
C842 C -0.01311 0.76204 0.26092 0.0
C843 C 0.0104 0.76159 0.23956 0.0
C844 C 0.7305 0.96631 0.70812 0.0
C845 C 0.73171 0.96551 0.74811 0.0
C846 C 0.73014 -0.00986 0.68855 0.0
C847 C 0.73014 0.01397 0.70831 0.0
H848 H 0.73127 0.94843 0.69174 0.0
H849 H 0.73053 -0.01008 0.65772 0.0
S850 S 0.73085 0.02241 0.81316 0.0
N851 N 0.73154 -0.00949 0.80684 0.0
N852 N 0.72984 0.03531 0.77011 0.0
C853 C 0.7298 0.01341 0.74832 0.0
C854 C 0.73088 -0.01083 0.76822 0.0
C855 C 0.98403 0.72961 0.6845 0.0
C856 C 0.96036 0.72914 0.70454 0.0
C857 C 0.0079 0.7288 0.70379 0.0
C858 C 0.00882 0.72833 0.74377 0.0
H859 H 0.98411 0.73149 0.65379 0.0
H860 H 0.02568 0.73028 0.6874 0.0
S861 S 0.95253 0.72505 0.80936 0.0
N862 N 0.93943 0.72609 0.76648 0.0
N863 N 0.98428 0.72573 0.80265 0.0
C864 C 0.98538 0.72673 0.76403 0.0
C865 C 0.96112 0.7268 0.74442 0.0
C866 C 0.25376 0.97509 0.72185 0.0
C867 C 0.23082 0.96775 0.70269 0.0
C868 C 0.25504 -0.00154 0.74277 0.0
C869 C 0.23321 0.0148 0.74595 0.0
H870 H 0.27071 0.96256 0.72107 0.0
H871 H 0.27286 0.00332 0.75753 0.0
S872 S 0.1692 0.00562 0.69947 0.0
N873 N 0.18633 0.97984 0.6867 0.0
N874 N 0.18868 0.02309 0.7266 0.0
C875 C 0.21048 0.00805 0.72624 0.0
C876 C 0.2093 0.9847 0.70444 0.0
C877 C 0.98146 0.20889 0.74771 0.0
C878 C 0.96702 0.23182 0.75366 0.0
C879 C 0.00429 0.20908 0.72628 0.0
C880 C 0.01401 0.23229 0.71056 0.0
H881 H 0.97471 0.19037 0.75871 0.0
H882 H 0.01446 0.19078 0.72205 0.0
S883 S 0.98444 0.29795 0.71941 0.0
N884 N 0.96438 0.27861 0.74289 0.0
N885 N 0.0081 0.27906 0.70345 0.0
C886 C 0.00034 0.25558 0.71723 0.0
C887 C 0.97661 0.25531 0.73849 0.0
C888 C 0.74631 0.4882 0.68816 0.0
C889 C 0.7455 0.512 0.70802 0.0
C890 C 0.74683 0.46432 0.70766 0.0
C891 C 0.74571 0.46347 0.74763 0.0
H892 H 0.74578 0.48802 0.65734 0.0
H893 H 0.74654 0.44643 0.69127 0.0
S894 S 0.74489 0.52022 0.81291 0.0
N895 N 0.74535 0.53323 0.7699 0.0
N896 N 0.74524 0.48833 0.80644 0.0
C897 C 0.74585 0.48709 0.76782 0.0
C898 C 0.74606 0.51139 0.74802 0.0
C899 C 0.48843 0.74264 0.76352 0.0
C900 C 0.51171 0.74302 0.74257 0.0
C901 C 0.46424 0.74317 0.74518 0.0
C902 C 0.46254 0.74332 0.70524 0.0
H903 H 0.4889 0.7412 0.79428 0.0
H904 H 0.4468 0.74193 0.76237 0.0
S905 S 0.51764 0.7462 0.63741 0.0
N906 N 0.53151 0.74549 0.67977 0.0
N907 N 0.48602 0.74549 0.64535 0.0
C908 C 0.48561 0.74472 0.68401 0.0
C909 C 0.51023 0.74486 0.70268 0.0
C910 C 0.22586 0.46687 0.74633 0.0
C911 C 0.22568 0.46604 0.70636 0.0
C912 C 0.22659 0.49077 0.76572 0.0
C913 C 0.22635 0.51454 0.74575 0.0
H914 H 0.22714 0.44898 0.76265 0.0
H915 H 0.22825 0.49063 0.79646 0.0
S916 S 0.223 0.52263 0.64095 0.0
N917 N 0.22356 0.49074 0.64753 0.0
N918 N 0.2238 0.5357 0.68389 0.0
C919 C 0.22431 0.51389 0.70586 0.0
C920 C 0.2243 0.48959 0.68615 0.0
C921 C 0.47522 0.22574 0.74217 0.0
C922 C 0.45878 0.24763 0.74145 0.0
C923 C 0.49867 0.22556 0.72153 0.0
C924 C 0.50604 0.24703 0.6989 0.0
H925 H 0.47043 0.20913 0.75988 0.0
H926 H 0.51129 0.20872 0.7239 0.0
S927 S 0.46767 0.30775 0.6844 0.0
N928 N 0.45025 0.29035 0.71451 0.0
N929 N 0.49361 0.28993 0.67503 0.0
C930 C 0.48889 0.26843 0.6966 0.0
C931 C 0.46544 0.26875 0.71808 0.0
C932 C 0.22923 0.48586 0.18512 0.0
C933 C 0.22782 0.51001 0.20398 0.0
C934 C 0.2291 0.46237 0.20558 0.0
C935 C 0.22842 0.46237 0.24557 0.0
H936 H 0.23128 0.48515 0.15444 0.0
H937 H 0.23119 0.4442 0.19012 0.0
S938 S 0.22293 0.52017 0.30828 0.0
N939 N 0.22378 0.53234 0.26478 0.0
N940 N 0.2247 0.4882 0.30319 0.0
C941 C 0.22597 0.48626 0.26465 0.0
C942 C 0.22534 0.51012 0.24384 0.0
C943 C 0.51067 0.23385 0.20918 0.0
C944 C 0.51145 0.23375 0.24916 0.0
C945 C 0.48688 0.23443 0.18974 0.0
C946 C 0.46319 0.23401 0.20965 0.0
H947 H 0.5285 0.23514 0.19288 0.0
H948 H 0.48703 0.23597 0.15898 0.0
S949 S 0.45491 0.2311 0.31437 0.0
N950 N 0.48671 0.23181 0.30795 0.0
N951 N 0.44196 0.23162 0.27137 0.0
C952 C 0.46376 0.23216 0.24953 0.0
C953 C 0.48794 0.23239 0.26933 0.0
C954 C 0.74728 0.48844 0.26432 0.0
C955 C 0.74671 0.51238 0.24483 0.0
C956 C 0.74731 0.46472 0.24445 0.0
C957 C 0.74588 0.4642 0.20449 0.0
H958 H 0.74693 0.48805 0.29515 0.0
H959 H 0.74681 0.4467 0.26053 0.0
S960 S 0.74549 0.52142 0.1401 0.0
N961 N 0.74649 0.53409 0.18329 0.0
N962 N 0.74536 0.48947 0.14607 0.0
C963 C 0.74626 0.48795 0.18466 0.0
C964 C 0.74701 0.51208 0.20482 0.0
C965 C 0.47389 0.74997 0.23218 0.0
C966 C 0.46341 0.72651 0.24623 0.0
C967 C 0.4973 0.7501 0.21142 0.0
C968 C 0.51038 0.72669 0.20299 0.0
H969 H 0.46409 0.7683 0.23757 0.0
H970 H 0.50497 0.76852 0.20138 0.0
S971 S 0.49093 0.66015 0.23302 0.0
N972 N 0.46811 0.67939 0.25044 0.0
N973 N 0.51139 0.6796 0.2107 0.0
C974 C 0.49997 0.70318 0.2167 0.0
C975 C 0.47666 0.7031 0.23851 0.0
C976 C 0.14487 0.12881 0.21894 0.0
C977 C 0.17113 0.13604 0.21605 0.0
C978 C 0.12609 0.14654 0.23179 0.0
C979 C 0.13284 0.17231 0.24082 0.0
H980 H 0.13882 0.10926 0.21138 0.0
H981 H 0.10611 0.14012 0.23438 0.0
S982 S 0.19888 0.20103 0.23792 0.0
N983 N 0.20301 0.17063 0.2236 0.0
N984 N 0.1675 0.2042 0.24669 0.0
C985 C 0.15898 0.17988 0.23783 0.0
C986 C 0.17822 0.16164 0.22572 0.0
C987 C 0.84942 0.14059 0.2269 0.0
C988 C 0.84228 0.16635 0.21824 0.0
C989 C 0.8308 0.12239 0.23884 0.0
C990 C 0.80434 0.12914 0.24094 0.0
H991 H 0.86954 0.13453 0.22457 0.0
H992 H 0.83707 0.10284 0.2461 0.0
S993 S 0.77571 0.19402 0.21988 0.0
N994 N 0.80714 0.19775 0.21213 0.0
N995 N 0.77197 0.1634 0.23334 0.0
C996 C 0.79695 0.1548 0.23177 0.0
C997 C 0.81599 0.17346 0.22069 0.0
C998 C 0.85286 0.83943 0.23295 0.0
C999 C 0.84682 0.81286 0.23724 0.0
C1000 C 0.83406 0.85732 0.22031 0.0
C1001 C 0.80842 0.84933 0.21318 0.0
H1002 H 0.87224 0.84638 0.23933 0.0
H1003 H 0.83947 0.87758 0.21668 0.0
S1004 S 0.78268 0.78201 0.22067 0.0
N1005 N 0.81351 0.77941 0.23314 0.0
N1006 N 0.77801 0.81314 0.21075 0.0
C1007 C 0.80213 0.82285 0.2176 0.0
C1008 C 0.82139 0.80457 0.22934 0.0
C1009 C 0.14203 0.85387 0.22693 0.0
C1010 C 0.1681 0.84709 0.2335 0.0
C1011 C 0.12431 0.83543 0.21301 0.0
C1012 C 0.13191 0.80945 0.20676 0.0
H1013 H 0.13535 0.87355 0.23245 0.0
H1014 H 0.10446 0.84144 0.20757 0.0
S1015 S 0.19784 0.78177 0.22064 0.0
N1016 N 0.20069 0.81271 0.23289 0.0
N1017 N 0.16719 0.77786 0.20802 0.0
C1018 C 0.15786 0.80237 0.21369 0.0
C1019 C 0.17603 0.82128 0.22676 0.0
C1020 C 0.83962 0.83529 0.69138 0.0
C1021 C 0.85481 0.81891 0.7146 0.0
C1022 C 0.82224 0.8533 0.70721 0.0
C1023 C 0.81988 0.85614 0.74684 0.0
H1024 H 0.84023 0.83344 0.6607 0.0
H1025 H 0.81007 0.86461 0.68821 0.0
S1026 S 0.85846 0.82073 0.81986 0.0
N1027 N 0.86826 0.80828 0.77895 0.0
N1028 N 0.83658 0.84308 0.80891 0.0
C1029 C 0.83644 0.84126 0.77034 0.0
C1030 C 0.85364 0.82238 0.75416 0.0
C1031 C 0.13341 0.85427 0.71644 0.0
C1032 C 0.16012 0.84849 0.71538 0.0
C1033 C 0.11525 0.83542 0.72783 0.0
C1034 C 0.1232 0.80996 0.7369 0.0
H1035 H 0.12655 0.8735 0.70848 0.0
H1036 H 0.09486 0.84065 0.72907 0.0
S1037 S 0.19082 0.78487 0.73807 0.0
N1038 N 0.19362 0.81559 0.7246 0.0
N1039 N 0.15943 0.77998 0.74468 0.0
C1040 C 0.14982 0.80391 0.73571 0.0
C1041 C 0.16832 0.82324 0.72524 0.0
C1042 C 0.13709 0.16642 0.74817 0.0
C1043 C 0.13272 0.16549 0.70873 0.0
C1044 C 0.1546 0.14926 0.7656 0.0
C1045 C 0.16892 0.13118 0.74399 0.0
H1046 H 0.12684 0.18044 0.76573 0.0
H1047 H 0.1574 0.15062 0.79607 0.0
S1048 S 0.16428 0.12029 0.6401 0.0
N1049 N 0.14343 0.14405 0.64881 0.0
N1050 N 0.17732 0.11278 0.68161 0.0
C1051 C 0.16475 0.12994 0.70467 0.0
C1052 C 0.14635 0.14684 0.68701 0.0
C1053 C 0.84577 0.15795 0.70369 0.0
C1054 C 0.85155 0.15691 0.74275 0.0
C1055 C 0.82734 0.14118 0.68757 0.0
C1056 C 0.81354 0.12328 0.71015 0.0
H1057 H 0.85521 0.17214 0.68551 0.0
H1058 H 0.8232 0.143 0.65749 0.0
S1059 S 0.82302 0.1108 0.81297 0.0
N1060 N 0.84363 0.13446 0.80289 0.0
N1061 N 0.80801 0.10406 0.77266 0.0
C1062 C 0.81966 0.12137 0.74887 0.0
C1063 C 0.83896 0.13787 0.76515 0.0
C1064 C 0.6417 0.63454 0.68574 0.0
C1065 C 0.65655 0.61837 0.70972 0.0
C1066 C 0.6239 0.6525 0.70074 0.0
C1067 C 0.61975 0.65442 0.74019 0.0
H1068 H 0.6447 0.63428 0.65525 0.0
H1069 H 0.61383 0.66545 0.68134 0.0
S1070 S 0.65076 0.6132 0.8145 0.0
N1071 N 0.66426 0.60351 0.77427 0.0
N1072 N 0.62979 0.63618 0.8026 0.0
C1073 C 0.63302 0.63684 0.76423 0.0
C1074 C 0.6517 0.61911 0.74896 0.0
C1075 C 0.31626 0.62665 0.70106 0.0
C1076 C 0.31622 0.62068 0.74012 0.0
C1077 C 0.33458 0.64385 0.68561 0.0
C1078 C 0.3531 0.65622 0.70885 0.0
H1079 H 0.30159 0.61852 0.68243 0.0
H1080 H 0.33337 0.64838 0.65559 0.0
S1081 S 0.36351 0.64486 0.81181 0.0
N1082 N 0.33843 0.6263 0.80086 0.0
N1083 N 0.37198 0.65955 0.77189 0.0
C1084 C 0.35415 0.64947 0.74747 0.0
C1085 C 0.33596 0.63144 0.76309 0.0
C1086 C 0.31433 0.30549 0.73774 0.0
C1087 C 0.34038 0.31266 0.74331 0.0
C1088 C 0.29605 0.32363 0.72454 0.0
C1089 C 0.30339 0.34933 0.71563 0.0
H1090 H 0.30789 0.28593 0.74452 0.0
H1091 H 0.27615 0.31733 0.72057 0.0
S1092 S 0.36937 0.37746 0.72446 0.0
N1093 N 0.37265 0.34704 0.7392 0.0
N1094 N 0.33848 0.38087 0.71264 0.0
C1095 C 0.32946 0.35658 0.72049 0.0
C1096 C 0.34792 0.3383 0.73486 0.0
C1097 C 0.62382 0.33976 0.71011 0.0
C1098 C 0.62709 0.31269 0.71499 0.0
C1099 C 0.64256 0.35747 0.72329 0.0
C1100 C 0.66547 0.34855 0.74057 0.0
H1101 H 0.6067 0.34729 0.69592 0.0
H1102 H 0.63931 0.37818 0.71944 0.0
S1103 S 0.68334 0.27987 0.76032 0.0
N1104 N 0.65478 0.27801 0.73922 0.0
N1105 N 0.69034 0.31124 0.76255 0.0
C1106 C 0.66895 0.32164 0.7457 0.0
C1107 C 0.64965 0.30369 0.73327 0.0
C1108 C 0.32051 0.30377 0.2231 0.0
C1109 C 0.3467 0.31099 0.219 0.0
C1110 C 0.30182 0.32183 0.23521 0.0
C1111 C 0.30881 0.34755 0.24449 0.0
H1112 H 0.31429 0.2842 0.21597 0.0
H1113 H 0.28185 0.31546 0.23804 0.0
S1114 S 0.37486 0.37595 0.23913 0.0
N1115 N 0.37868 0.34552 0.22465 0.0
N1116 N 0.34368 0.37924 0.24933 0.0
C1117 C 0.33498 0.35489 0.24107 0.0
C1118 C 0.3539 0.33668 0.22774 0.0
C1119 C 0.62084 0.33681 0.22779 0.0
C1120 C 0.6283 0.3116 0.23893 0.0
C1121 C 0.63939 0.35493 0.21526 0.0
C1122 C 0.66603 0.34869 0.21494 0.0
H1123 H 0.60054 0.34243 0.2284 0.0
H1124 H 0.63289 0.37399 0.20593 0.0
S1125 S 0.69543 0.28544 0.24322 0.0
N1126 N 0.66391 0.28134 0.24965 0.0
N1127 N 0.69887 0.31554 0.22733 0.0
C1128 C 0.67371 0.32365 0.22687 0.0
C1129 C 0.65479 0.30505 0.23858 0.0
C1130 C 0.66026 0.62464 0.20267 0.0
C1131 C 0.6608 0.62072 0.24226 0.0
C1132 C 0.64232 0.64175 0.18603 0.0
C1133 C 0.62475 0.65608 0.2085 0.0
H1134 H 0.67413 0.6148 0.18442 0.0
H1135 H 0.643 0.64455 0.1555 0.0
S1136 S 0.61646 0.65126 0.31297 0.0
N1137 N 0.64046 0.63093 0.30316 0.0
N1138 N 0.60763 0.66401 0.27181 0.0
C1139 C 0.62442 0.65172 0.24789 0.0
C1140 C 0.6422 0.63377 0.26479 0.0
C1141 C 0.32921 0.63372 0.18963 0.0
C1142 C 0.31353 0.61753 0.21238 0.0
C1143 C 0.34642 0.65159 0.20604 0.0
C1144 C 0.34915 0.65339 0.24573 0.0
H1145 H 0.32743 0.63343 0.15894 0.0
H1146 H 0.35734 0.66441 0.18748 0.0
S1147 S 0.31487 0.61288 0.31757 0.0
N1148 N 0.30308 0.60302 0.27632 0.0
N1149 N 0.33636 0.63569 0.30731 0.0
C1150 C 0.33478 0.6361 0.26872 0.0
C1151 C 0.31671 0.61842 0.252 0.0
loop_
_geom_bond_atom_site_label_1
_geom_bond_atom_site_label_2
_geom_bond_distance
_geom_bond_site_symmetry_2
_ccdc_geom_bond_type
C0 O1 1.306 . S
C0 O3 1.160 . S
O1 C0 1.306 . S
O1 Cd2 2.228 . S
Cd2 O1 2.228 . S
Cd2 O6 2.273 . S
Cd2 O10 2.277 . S
O3 C0 1.160 . S
O3 Cd4 2.203 . S
Cd4 O3 2.203 . S
Cd4 O6 2.411 . S
Cd4 O7 2.333 . S
Cd4 O8 2.352 . S
Cd4 O12 2.277 . S
Cd4 O13 2.356 . S
C5 O10 1.209 . S
C5 O12 1.226 . S
O6 Cd2 2.273 . S
O6 Cd4 2.411 . S
O6 C9 1.320 . S
O7 Cd4 2.333 . S
O7 C9 1.214 . S
O8 Cd4 2.352 . S
O8 C11 1.258 . S
C9 O6 1.320 . S
C9 O7 1.214 . S
O10 Cd2 2.277 . S
O10 C5 1.209 . S
C11 O8 1.258 . S
C11 O13 1.282 . S
O12 Cd4 2.277 . S
O12 C5 1.226 . S
O13 Cd4 2.356 . S
O13 C11 1.282 . S
C14 O15 1.306 . S
C14 O17 1.160 . S
O15 C14 1.306 . S
O15 Cd16 2.228 . S
Cd16 O15 2.228 . S
Cd16 O20 2.273 . S
Cd16 O24 2.277 . S
O17 C14 1.160 . S
O17 Cd18 2.203 . S
Cd18 O17 2.203 . S
Cd18 O20 2.411 . S
Cd18 O21 2.333 . S
Cd18 O22 2.352 . S
Cd18 O26 2.277 . S
Cd18 O27 2.356 . S
C19 O24 1.209 . S
C19 O26 1.226 . S
O20 Cd16 2.273 . S
O20 Cd18 2.411 . S
O20 C23 1.320 . S
O21 Cd18 2.333 . S
O21 C23 1.214 . S
O22 Cd18 2.352 . S
O22 C25 1.258 . S
C23 O20 1.320 . S
C23 O21 1.214 . S
O24 Cd16 2.277 . S
O24 C19 1.209 . S
C25 O22 1.258 . S
C25 O27 1.282 . S
O26 Cd18 2.277 . S
O26 C19 1.226 . S
O27 Cd18 2.356 . S
O27 C25 1.282 . S
C28 O29 1.306 . S
C28 O31 1.160 . S
O29 C28 1.306 . S
O29 Cd30 2.228 . S
Cd30 O29 2.228 . S
Cd30 O34 2.273 . S
Cd30 O38 2.277 . S
O31 C28 1.160 . S
O31 Cd32 2.203 . S
Cd32 O31 2.203 . S
Cd32 O34 2.411 . S
Cd32 O35 2.333 . S
Cd32 O36 2.352 . S
Cd32 O40 2.277 . S
Cd32 O41 2.356 . S
C33 O38 1.209 . S
C33 O40 1.226 . S
O34 Cd30 2.273 . S
O34 Cd32 2.411 . S
O34 C37 1.320 . S
O35 Cd32 2.333 . S
O35 C37 1.214 . S
O36 Cd32 2.352 . S
O36 C39 1.258 . S
C37 O34 1.320 . S
C37 O35 1.214 . S
O38 Cd30 2.277 . S
O38 C33 1.209 . S
C39 O36 1.258 . S
C39 O41 1.282 . S
O40 Cd32 2.277 . S
O40 C33 1.226 . S
O41 Cd32 2.356 . S
O41 C39 1.282 . S
C42 O43 1.306 . S
C42 O45 1.160 . S
O43 C42 1.306 . S
O43 Cd44 2.228 . S
Cd44 O43 2.228 . S
Cd44 O48 2.273 . S
Cd44 O52 2.277 . S
O45 C42 1.160 . S
O45 Cd46 2.203 . S
Cd46 O45 2.203 . S
Cd46 O48 2.411 . S
Cd46 O49 2.333 . S
Cd46 O50 2.352 . S
Cd46 O54 2.277 . S
Cd46 O55 2.356 . S
C47 O52 1.209 . S
C47 O54 1.226 . S
O48 Cd44 2.273 . S
O48 Cd46 2.411 . S
O48 C51 1.320 . S
O49 Cd46 2.333 . S
O49 C51 1.214 . S
O50 Cd46 2.352 . S
O50 C53 1.258 . S
C51 O48 1.320 . S
C51 O49 1.214 . S
O52 Cd44 2.277 . S
O52 C47 1.209 . S
C53 O50 1.258 . S
C53 O55 1.282 . S
O54 Cd46 2.277 . S
O54 C47 1.226 . S
O55 Cd46 2.356 . S
O55 C53 1.282 . S
C56 O57 1.306 . S
C56 O59 1.160 . S
O57 C56 1.306 . S
O57 Cd58 2.228 . S
Cd58 O57 2.228 . S
Cd58 O62 2.273 . S
Cd58 O66 2.277 . S
O59 C56 1.160 . S
O59 Cd60 2.203 . S
Cd60 O59 2.203 . S
Cd60 O62 2.411 . S
Cd60 O63 2.333 . S
Cd60 O64 2.352 . S
Cd60 O68 2.277 . S
Cd60 O69 2.356 . S
C61 O66 1.209 . S
C61 O68 1.226 . S
O62 Cd58 2.273 . S
O62 Cd60 2.411 . S
O62 C65 1.320 . S
O63 Cd60 2.333 . S
O63 C65 1.214 . S
O64 Cd60 2.352 . S
O64 C67 1.258 . S
C65 O62 1.320 . S
C65 O63 1.214 . S
O66 Cd58 2.277 . S
O66 C61 1.209 . S
C67 O64 1.258 . S
C67 O69 1.282 . S
O68 Cd60 2.277 . S
O68 C61 1.226 . S
O69 Cd60 2.356 . S
O69 C67 1.282 . S
C70 O71 1.306 . S
C70 O73 1.160 . S
O71 C70 1.306 . S
O71 Cd72 2.228 . S
Cd72 O71 2.228 . S
Cd72 O76 2.273 . S
Cd72 O80 2.277 . S
O73 C70 1.160 . S
O73 Cd74 2.203 . S
Cd74 O73 2.203 . S
Cd74 O76 2.411 . S
Cd74 O77 2.333 . S
Cd74 O78 2.352 . S
Cd74 O82 2.277 . S
Cd74 O83 2.356 . S
C75 O80 1.209 . S
C75 O82 1.226 . S
O76 Cd72 2.273 . S
O76 Cd74 2.411 . S
O76 C79 1.320 . S
O77 Cd74 2.333 . S
O77 C79 1.214 . S
O78 Cd74 2.352 . S
O78 C81 1.258 . S
C79 O76 1.320 . S
C79 O77 1.214 . S
O80 Cd72 2.277 . S
O80 C75 1.209 . S
C81 O78 1.258 . S
C81 O83 1.282 . S
O82 Cd74 2.277 . S
O82 C75 1.226 . S
O83 Cd74 2.356 . S
O83 C81 1.282 . S
C84 O85 1.306 . S
C84 O87 1.160 . S
O85 C84 1.306 . S
O85 Cd86 2.228 . S
Cd86 O85 2.228 . S
Cd86 O90 2.273 . S
Cd86 O94 2.277 . S
O87 C84 1.160 . S
O87 Cd88 2.203 . S
Cd88 O87 2.203 . S
Cd88 O90 2.411 . S
Cd88 O91 2.333 . S
Cd88 O92 2.352 . S
Cd88 O96 2.277 . S
Cd88 O97 2.356 . S
C89 O94 1.209 . S
C89 O96 1.226 . S
O90 Cd86 2.273 . S
O90 Cd88 2.411 . S
O90 C93 1.320 . S
O91 Cd88 2.333 . S
O91 C93 1.214 . S
O92 Cd88 2.352 . S
O92 C95 1.258 . S
C93 O90 1.320 . S
C93 O91 1.214 . S
O94 Cd86 2.277 . S
O94 C89 1.209 . S
C95 O92 1.258 . S
C95 O97 1.282 . S
O96 Cd88 2.277 . S
O96 C89 1.226 . S
O97 Cd88 2.356 . S
O97 C95 1.282 . S
C98 O99 1.306 . S
C98 O101 1.160 . S
O99 C98 1.306 . S
O99 Cd100 2.228 . S
Cd100 O99 2.228 . S
Cd100 O104 2.273 . S
Cd100 O108 2.277 . S
O101 C98 1.160 . S
O101 Cd102 2.203 . S
Cd102 O101 2.203 . S
Cd102 O104 2.411 . S
Cd102 O105 2.333 . S
Cd102 O106 2.352 . S
Cd102 O110 2.277 . S
Cd102 O111 2.356 . S
C103 O108 1.209 . S
C103 O110 1.226 . S
O104 Cd100 2.273 . S
O104 Cd102 2.411 . S
O104 C107 1.320 . S
O105 Cd102 2.333 . S
O105 C107 1.214 . S
O106 Cd102 2.352 . S
O106 C109 1.258 . S
C107 O104 1.320 . S
C107 O105 1.214 . S
O108 Cd100 2.277 . S
O108 C103 1.209 . S
C109 O106 1.258 . S
C109 O111 1.282 . S
O110 Cd102 2.277 . S
O110 C103 1.226 . S
O111 Cd102 2.356 . S
O111 C109 1.282 . S
C112 O113 1.306 . S
C112 O115 1.160 . S
O113 C112 1.306 . S
O113 Cd114 2.228 . S
Cd114 O113 2.228 . S
Cd114 O118 2.273 . S
Cd114 O122 2.277 . S
O115 C112 1.160 . S
O115 Cd116 2.203 . S
Cd116 O115 2.203 . S
Cd116 O118 2.411 . S
Cd116 O119 2.333 . S
Cd116 O120 2.352 . S
Cd116 O124 2.277 . S
Cd116 O125 2.356 . S
C117 O122 1.209 . S
C117 O124 1.226 . S
O118 Cd114 2.273 . S
O118 Cd116 2.411 . S
O118 C121 1.320 . S
O119 Cd116 2.333 . S
O119 C121 1.214 . S
O120 Cd116 2.352 . S
O120 C123 1.258 . S
C121 O118 1.320 . S
C121 O119 1.214 . S
O122 Cd114 2.277 . S
O122 C117 1.209 . S
C123 O120 1.258 . S
C123 O125 1.282 . S
O124 Cd116 2.277 . S
O124 C117 1.226 . S
O125 Cd116 2.356 . S
O125 C123 1.282 . S
C126 O127 1.306 . S
C126 O129 1.160 . S
O127 C126 1.306 . S
O127 Cd128 2.228 . S
Cd128 O127 2.228 . S
Cd128 O132 2.273 . S
Cd128 O136 2.277 . S
O129 C126 1.160 . S
O129 Cd130 2.203 . S
Cd130 O129 2.203 . S
Cd130 O132 2.411 . S
Cd130 O133 2.333 . S
Cd130 O134 2.352 . S
Cd130 O138 2.277 . S
Cd130 O139 2.356 . S
C131 O136 1.209 . S
C131 O138 1.226 . S
O132 Cd128 2.273 . S
O132 Cd130 2.411 . S
O132 C135 1.320 . S
O133 Cd130 2.333 . S
O133 C135 1.214 . S
O134 Cd130 2.352 . S
O134 C137 1.258 . S
C135 O132 1.320 . S
C135 O133 1.214 . S
O136 Cd128 2.277 . S
O136 C131 1.209 . S
C137 O134 1.258 . S
C137 O139 1.282 . S
O138 Cd130 2.277 . S
O138 C131 1.226 . S
O139 Cd130 2.356 . S
O139 C137 1.282 . S
C140 O141 1.306 . S
C140 O143 1.160 . S
O141 C140 1.306 . S
O141 Cd142 2.228 . S
Cd142 O141 2.228 . S
Cd142 O146 2.273 . S
Cd142 O150 2.277 . S
O143 C140 1.160 . S
O143 Cd144 2.203 . S
Cd144 O143 2.203 . S
Cd144 O146 2.411 . S
Cd144 O147 2.333 . S
Cd144 O148 2.352 . S
Cd144 O152 2.277 . S
Cd144 O153 2.356 . S
C145 O150 1.209 . S
C145 O152 1.226 . S
O146 Cd142 2.273 . S
O146 Cd144 2.411 . S
O146 C149 1.320 . S
O147 Cd144 2.333 . S
O147 C149 1.214 . S
O148 Cd144 2.352 . S
O148 C151 1.258 . S
C149 O146 1.320 . S
C149 O147 1.214 . S
O150 Cd142 2.277 . S
O150 C145 1.209 . S
C151 O148 1.258 . S
C151 O153 1.282 . S
O152 Cd144 2.277 . S
O152 C145 1.226 . S
O153 Cd144 2.356 . S
O153 C151 1.282 . S
C154 O155 1.306 . S
C154 O157 1.160 . S
O155 C154 1.306 . S
O155 Cd156 2.228 . S
Cd156 O155 2.228 . S
Cd156 O160 2.273 . S
Cd156 O164 2.277 . S
O157 C154 1.160 . S
O157 Cd158 2.203 . S
Cd158 O157 2.203 . S
Cd158 O160 2.411 . S
Cd158 O161 2.333 . S
Cd158 O162 2.352 . S
Cd158 O166 2.277 . S
Cd158 O167 2.356 . S
C159 O164 1.209 . S
C159 O166 1.226 . S
O160 Cd156 2.273 . S
O160 Cd158 2.411 . S
O160 C163 1.320 . S
O161 Cd158 2.333 . S
O161 C163 1.214 . S
O162 Cd158 2.352 . S
O162 C165 1.258 . S
C163 O160 1.320 . S
C163 O161 1.214 . S
O164 Cd156 2.277 . S
O164 C159 1.209 . S
C165 O162 1.258 . S
C165 O167 1.282 . S
O166 Cd158 2.277 . S
O166 C159 1.226 . S
O167 Cd158 2.356 . S
O167 C165 1.282 . S
C168 O169 1.306 . S
C168 O171 1.160 . S
O169 C168 1.306 . S
O169 Cd170 2.228 . S
Cd170 O169 2.228 . S
Cd170 O174 2.273 . S
Cd170 O178 2.277 . S
O171 C168 1.160 . S
O171 Cd172 2.203 . S
Cd172 O171 2.203 . S
Cd172 O174 2.411 . S
Cd172 O175 2.333 . S
Cd172 O176 2.352 . S
Cd172 O180 2.277 . S
Cd172 O181 2.356 . S
C173 O178 1.209 . S
C173 O180 1.226 . S
O174 Cd170 2.273 . S
O174 Cd172 2.411 . S
O174 C177 1.320 . S
O175 Cd172 2.333 . S
O175 C177 1.214 . S
O176 Cd172 2.352 . S
O176 C179 1.258 . S
C177 O174 1.320 . S
C177 O175 1.214 . S
O178 Cd170 2.277 . S
O178 C173 1.209 . S
C179 O176 1.258 . S
C179 O181 1.282 . S
O180 Cd172 2.277 . S
O180 C173 1.226 . S
O181 Cd172 2.356 . S
O181 C179 1.282 . S
C182 O183 1.306 . S
C182 O185 1.160 . S
O183 C182 1.306 . S
O183 Cd184 2.228 . S
Cd184 O183 2.228 . S
Cd184 O188 2.273 . S
Cd184 O192 2.277 . S
O185 C182 1.160 . S
O185 Cd186 2.203 . S
Cd186 O185 2.203 . S
Cd186 O188 2.411 . S
Cd186 O189 2.333 . S
Cd186 O190 2.352 . S
Cd186 O194 2.277 . S
Cd186 O195 2.356 . S
C187 O192 1.209 . S
C187 O194 1.226 . S
O188 Cd184 2.273 . S
O188 Cd186 2.411 . S
O188 C191 1.320 . S
O189 Cd186 2.333 . S
O189 C191 1.214 . S
O190 Cd186 2.352 . S
O190 C193 1.258 . S
C191 O188 1.320 . S
C191 O189 1.214 . S
O192 Cd184 2.277 . S
O192 C187 1.209 . S
C193 O190 1.258 . S
C193 O195 1.282 . S
O194 Cd186 2.277 . S
O194 C187 1.226 . S
O195 Cd186 2.356 . S
O195 C193 1.282 . S
C196 O197 1.306 . S
C196 O199 1.160 . S
O197 C196 1.306 . S
O197 Cd198 2.228 . S
Cd198 O197 2.228 . S
Cd198 O202 2.273 . S
Cd198 O206 2.277 . S
O199 C196 1.160 . S
O199 Cd200 2.203 . S
Cd200 O199 2.203 . S
Cd200 O202 2.411 . S
Cd200 O203 2.333 . S
Cd200 O204 2.352 . S
Cd200 O208 2.277 . S
Cd200 O209 2.356 . S
C201 O206 1.209 . S
C201 O208 1.226 . S
O202 Cd198 2.273 . S
O202 Cd200 2.411 . S
O202 C205 1.320 . S
O203 Cd200 2.333 . S
O203 C205 1.214 . S
O204 Cd200 2.352 . S
O204 C207 1.258 . S
C205 O202 1.320 . S
C205 O203 1.214 . S
O206 Cd198 2.277 . S
O206 C201 1.209 . S
C207 O204 1.258 . S
C207 O209 1.282 . S
O208 Cd200 2.277 . S
O208 C201 1.226 . S
O209 Cd200 2.356 . S
O209 C207 1.282 . S
C210 O211 1.306 . S
C210 O213 1.160 . S
O211 C210 1.306 . S
O211 Cd212 2.228 . S
Cd212 O211 2.228 . S
Cd212 O216 2.273 . S
Cd212 O220 2.277 . S
O213 C210 1.160 . S
O213 Cd214 2.203 . S
Cd214 O213 2.203 . S
Cd214 O216 2.411 . S
Cd214 O217 2.333 . S
Cd214 O218 2.352 . S
Cd214 O222 2.277 . S
Cd214 O223 2.356 . S
C215 O220 1.209 . S
C215 O222 1.226 . S
O216 Cd212 2.273 . S
O216 Cd214 2.411 . S
O216 C219 1.320 . S
O217 Cd214 2.333 . S
O217 C219 1.214 . S
O218 Cd214 2.352 . S
O218 C221 1.258 . S
C219 O216 1.320 . S
C219 O217 1.214 . S
O220 Cd212 2.277 . S
O220 C215 1.209 . S
C221 O218 1.258 . S
C221 O223 1.282 . S
O222 Cd214 2.277 . S
O222 C215 1.226 . S
O223 Cd214 2.356 . S
O223 C221 1.282 . S
C224 O225 1.306 . S
C224 O227 1.160 . S
O225 C224 1.306 . S
O225 Cd226 2.228 . S
Cd226 O225 2.228 . S
Cd226 O230 2.273 . S
Cd226 O234 2.277 . S
O227 C224 1.160 . S
O227 Cd228 2.203 . S
Cd228 O227 2.203 . S
Cd228 O230 2.411 . S
Cd228 O231 2.333 . S
Cd228 O232 2.352 . S
Cd228 O236 2.277 . S
Cd228 O237 2.356 . S
C229 O234 1.209 . S
C229 O236 1.226 . S
O230 Cd226 2.273 . S
O230 Cd228 2.411 . S
O230 C233 1.320 . S
O231 Cd228 2.333 . S
O231 C233 1.214 . S
O232 Cd228 2.352 . S
O232 C235 1.258 . S
C233 O230 1.320 . S
C233 O231 1.214 . S
O234 Cd226 2.277 . S
O234 C229 1.209 . S
C235 O232 1.258 . S
C235 O237 1.282 . S
O236 Cd228 2.277 . S
O236 C229 1.226 . S
O237 Cd228 2.356 . S
O237 C235 1.282 . S
C238 O239 1.306 . S
C238 O241 1.160 . S
O239 C238 1.306 . S
O239 Cd240 2.228 . S
Cd240 O239 2.228 . S
Cd240 O244 2.273 . S
Cd240 O248 2.277 . S
O241 C238 1.160 . S
O241 Cd242 2.203 . S
Cd242 O241 2.203 . S
Cd242 O244 2.411 . S
Cd242 O245 2.333 . S
Cd242 O246 2.352 . S
Cd242 O250 2.277 . S
Cd242 O251 2.356 . S
C243 O248 1.209 . S
C243 O250 1.226 . S
O244 Cd240 2.273 . S
O244 Cd242 2.411 . S
O244 C247 1.320 . S
O245 Cd242 2.333 . S
O245 C247 1.214 . S
O246 Cd242 2.352 . S
O246 C249 1.258 . S
C247 O244 1.320 . S
C247 O245 1.214 . S
O248 Cd240 2.277 . S
O248 C243 1.209 . S
C249 O246 1.258 . S
C249 O251 1.282 . S
O250 Cd242 2.277 . S
O250 C243 1.226 . S
O251 Cd242 2.356 . S
O251 C249 1.282 . S
C252 O253 1.306 . S
C252 O255 1.160 . S
O253 C252 1.306 . S
O253 Cd254 2.228 . S
Cd254 O253 2.228 . S
Cd254 O258 2.273 . S
Cd254 O262 2.277 . S
O255 C252 1.160 . S
O255 Cd256 2.203 . S
Cd256 O255 2.203 . S
Cd256 O258 2.411 . S
Cd256 O259 2.333 . S
Cd256 O260 2.352 . S
Cd256 O264 2.277 . S
Cd256 O265 2.356 . S
C257 O262 1.209 . S
C257 O264 1.226 . S
O258 Cd254 2.273 . S
O258 Cd256 2.411 . S
O258 C261 1.320 . S
O259 Cd256 2.333 . S
O259 C261 1.214 . S
O260 Cd256 2.352 . S
O260 C263 1.258 . S
C261 O258 1.320 . S
C261 O259 1.214 . S
O262 Cd254 2.277 . S
O262 C257 1.209 . S
C263 O260 1.258 . S
C263 O265 1.282 . S
O264 Cd256 2.277 . S
O264 C257 1.226 . S
O265 Cd256 2.356 . S
O265 C263 1.282 . S
C266 O267 1.306 . S
C266 O269 1.160 . S
O267 C266 1.306 . S
O267 Cd268 2.228 . S
Cd268 O267 2.228 . S
Cd268 O272 2.273 . S
Cd268 O276 2.277 . S
O269 C266 1.160 . S
O269 Cd270 2.203 . S
Cd270 O269 2.203 . S
Cd270 O272 2.411 . S
Cd270 O273 2.333 . S
Cd270 O274 2.352 . S
Cd270 O278 2.277 . S
Cd270 O279 2.356 . S
C271 O276 1.209 . S
C271 O278 1.226 . S
O272 Cd268 2.273 . S
O272 Cd270 2.411 . S
O272 C275 1.320 . S
O273 Cd270 2.333 . S
O273 C275 1.214 . S
O274 Cd270 2.352 . S
O274 C277 1.258 . S
C275 O272 1.320 . S
C275 O273 1.214 . S
O276 Cd268 2.277 . S
O276 C271 1.209 . S
C277 O274 1.258 . S
C277 O279 1.282 . S
O278 Cd270 2.277 . S
O278 C271 1.226 . S
O279 Cd270 2.356 . S
O279 C277 1.282 . S
C280 O281 1.306 . S
C280 O283 1.160 . S
O281 C280 1.306 . S
O281 Cd282 2.228 . S
Cd282 O281 2.228 . S
Cd282 O286 2.273 . S
Cd282 O290 2.277 . S
O283 C280 1.160 . S
O283 Cd284 2.203 . S
Cd284 O283 2.203 . S
Cd284 O286 2.411 . S
Cd284 O287 2.333 . S
Cd284 O288 2.352 . S
Cd284 O292 2.277 . S
Cd284 O293 2.356 . S
C285 O290 1.209 . S
C285 O292 1.226 . S
O286 Cd282 2.273 . S
O286 Cd284 2.411 . S
O286 C289 1.320 . S
O287 Cd284 2.333 . S
O287 C289 1.214 . S
O288 Cd284 2.352 . S
O288 C291 1.258 . S
C289 O286 1.320 . S
C289 O287 1.214 . S
O290 Cd282 2.277 . S
O290 C285 1.209 . S
C291 O288 1.258 . S
C291 O293 1.282 . S
O292 Cd284 2.277 . S
O292 C285 1.226 . S
O293 Cd284 2.356 . S
O293 C291 1.282 . S
C294 O295 1.306 . S
C294 O297 1.160 . S
O295 C294 1.306 . S
O295 Cd296 2.228 . S
Cd296 O295 2.228 . S
Cd296 O300 2.273 . S
Cd296 O304 2.277 . S
O297 C294 1.160 . S
O297 Cd298 2.203 . S
Cd298 O297 2.203 . S
Cd298 O300 2.411 . S
Cd298 O301 2.333 . S
Cd298 O302 2.352 . S
Cd298 O306 2.277 . S
Cd298 O307 2.356 . S
C299 O304 1.209 . S
C299 O306 1.226 . S
O300 Cd296 2.273 . S
O300 Cd298 2.411 . S
O300 C303 1.320 . S
O301 Cd298 2.333 . S
O301 C303 1.214 . S
O302 Cd298 2.352 . S
O302 C305 1.258 . S
C303 O300 1.320 . S
C303 O301 1.214 . S
O304 Cd296 2.277 . S
O304 C299 1.209 . S
C305 O302 1.258 . S
C305 O307 1.282 . S
O306 Cd298 2.277 . S
O306 C299 1.226 . S
O307 Cd298 2.356 . S
O307 C305 1.282 . S
C308 O309 1.306 . S
C308 O311 1.160 . S
O309 C308 1.306 . S
O309 Cd310 2.228 . S
Cd310 O309 2.228 . S
Cd310 O314 2.273 . S
Cd310 O318 2.277 . S
O311 C308 1.160 . S
O311 Cd312 2.203 . S
Cd312 O311 2.203 . S
Cd312 O314 2.411 . S
Cd312 O315 2.333 . S
Cd312 O316 2.352 . S
Cd312 O320 2.277 . S
Cd312 O321 2.356 . S
C313 O318 1.209 . S
C313 O320 1.226 . S
O314 Cd310 2.273 . S
O314 Cd312 2.411 . S
O314 C317 1.320 . S
O315 Cd312 2.333 . S
O315 C317 1.214 . S
O316 Cd312 2.352 . S
O316 C319 1.258 . S
C317 O314 1.320 . S
C317 O315 1.214 . S
O318 Cd310 2.277 . S
O318 C313 1.209 . S
C319 O316 1.258 . S
C319 O321 1.282 . S
O320 Cd312 2.277 . S
O320 C313 1.226 . S
O321 Cd312 2.356 . S
O321 C319 1.282 . S
C322 O323 1.306 . S
C322 O325 1.160 . S
O323 C322 1.306 . S
O323 Cd324 2.228 . S
Cd324 O323 2.228 . S
Cd324 O328 2.273 . S
Cd324 O332 2.277 . S
O325 C322 1.160 . S
O325 Cd326 2.203 . S
Cd326 O325 2.203 . S
Cd326 O328 2.411 . S
Cd326 O329 2.333 . S
Cd326 O330 2.352 . S
Cd326 O334 2.277 . S
Cd326 O335 2.356 . S
C327 O332 1.209 . S
C327 O334 1.226 . S
O328 Cd324 2.273 . S
O328 Cd326 2.411 . S
O328 C331 1.320 . S
O329 Cd326 2.333 . S
O329 C331 1.214 . S
O330 Cd326 2.352 . S
O330 C333 1.258 . S
C331 O328 1.320 . S
C331 O329 1.214 . S
O332 Cd324 2.277 . S
O332 C327 1.209 . S
C333 O330 1.258 . S
C333 O335 1.282 . S
O334 Cd326 2.277 . S
O334 C327 1.226 . S
O335 Cd326 2.356 . S
O335 C333 1.282 . S
C336 O337 1.306 . S
C336 O339 1.160 . S
O337 C336 1.306 . S
O337 Cd338 2.228 . S
Cd338 O337 2.228 . S
Cd338 O342 2.273 . S
Cd338 O346 2.277 . S
O339 C336 1.160 . S
O339 Cd340 2.203 . S
Cd340 O339 2.203 . S
Cd340 O342 2.411 . S
Cd340 O343 2.333 . S
Cd340 O344 2.352 . S
Cd340 O348 2.277 . S
Cd340 O349 2.356 . S
C341 O346 1.209 . S
C341 O348 1.226 . S
O342 Cd338 2.273 . S
O342 Cd340 2.411 . S
O342 C345 1.320 . S
O343 Cd340 2.333 . S
O343 C345 1.214 . S
O344 Cd340 2.352 . S
O344 C347 1.258 . S
C345 O342 1.320 . S
C345 O343 1.214 . S
O346 Cd338 2.277 . S
O346 C341 1.209 . S
C347 O344 1.258 . S
C347 O349 1.282 . S
O348 Cd340 2.277 . S
O348 C341 1.226 . S
O349 Cd340 2.356 . S
O349 C347 1.282 . S
C350 O351 1.306 . S
C350 O353 1.160 . S
O351 C350 1.306 . S
O351 Cd352 2.228 . S
Cd352 O351 2.228 . S
Cd352 O356 2.273 . S
Cd352 O360 2.277 . S
O353 C350 1.160 . S
O353 Cd354 2.203 . S
Cd354 O353 2.203 . S
Cd354 O356 2.411 . S
Cd354 O357 2.333 . S
Cd354 O358 2.352 . S
Cd354 O362 2.277 . S
Cd354 O363 2.356 . S
C355 O360 1.209 . S
C355 O362 1.226 . S
O356 Cd352 2.273 . S
O356 Cd354 2.411 . S
O356 C359 1.320 . S
O357 Cd354 2.333 . S
O357 C359 1.214 . S
O358 Cd354 2.352 . S
O358 C361 1.258 . S
C359 O356 1.320 . S
C359 O357 1.214 . S
O360 Cd352 2.277 . S
O360 C355 1.209 . S
C361 O358 1.258 . S
C361 O363 1.282 . S
O362 Cd354 2.277 . S
O362 C355 1.226 . S
O363 Cd354 2.356 . S
O363 C361 1.282 . S
C364 O365 1.306 . S
C364 O367 1.160 . S
O365 C364 1.306 . S
O365 Cd366 2.228 . S
Cd366 O365 2.228 . S
Cd366 O370 2.273 . S
Cd366 O374 2.277 . S
O367 C364 1.160 . S
O367 Cd368 2.203 . S
Cd368 O367 2.203 . S
Cd368 O370 2.411 . S
Cd368 O371 2.333 . S
Cd368 O372 2.352 . S
Cd368 O376 2.277 . S
Cd368 O377 2.356 . S
C369 O374 1.209 . S
C369 O376 1.226 . S
O370 Cd366 2.273 . S
O370 Cd368 2.411 . S
O370 C373 1.320 . S
O371 Cd368 2.333 . S
O371 C373 1.214 . S
O372 Cd368 2.352 . S
O372 C375 1.258 . S
C373 O370 1.320 . S
C373 O371 1.214 . S
O374 Cd366 2.277 . S
O374 C369 1.209 . S
C375 O372 1.258 . S
C375 O377 1.282 . S
O376 Cd368 2.277 . S
O376 C369 1.226 . S
O377 Cd368 2.356 . S
O377 C375 1.282 . S
C378 O379 1.306 . S
C378 O381 1.160 . S
O379 C378 1.306 . S
O379 Cd380 2.228 . S
Cd380 O379 2.228 . S
Cd380 O384 2.273 . S
Cd380 O388 2.277 . S
O381 C378 1.160 . S
O381 Cd382 2.203 . S
Cd382 O381 2.203 . S
Cd382 O384 2.411 . S
Cd382 O385 2.333 . S
Cd382 O386 2.352 . S
Cd382 O390 2.277 . S
Cd382 O391 2.356 . S
C383 O388 1.209 . S
C383 O390 1.226 . S
O384 Cd380 2.273 . S
O384 Cd382 2.411 . S
O384 C387 1.320 . S
O385 Cd382 2.333 . S
O385 C387 1.214 . S
O386 Cd382 2.352 . S
O386 C389 1.258 . S
C387 O384 1.320 . S
C387 O385 1.214 . S
O388 Cd380 2.277 . S
O388 C383 1.209 . S
C389 O386 1.258 . S
C389 O391 1.282 . S
O390 Cd382 2.277 . S
O390 C383 1.226 . S
O391 Cd382 2.356 . S
O391 C389 1.282 . S
C392 O393 1.306 . S
C392 O395 1.160 . S
O393 C392 1.306 . S
O393 Cd394 2.228 . S
Cd394 O393 2.228 . S
Cd394 O398 2.273 . S
Cd394 O402 2.277 . S
O395 C392 1.160 . S
O395 Cd396 2.203 . S
Cd396 O395 2.203 . S
Cd396 O398 2.411 . S
Cd396 O399 2.333 . S
Cd396 O400 2.352 . S
Cd396 O404 2.277 . S
Cd396 O405 2.356 . S
C397 O402 1.209 . S
C397 O404 1.226 . S
O398 Cd394 2.273 . S
O398 Cd396 2.411 . S
O398 C401 1.320 . S
O399 Cd396 2.333 . S
O399 C401 1.214 . S
O400 Cd396 2.352 . S
O400 C403 1.258 . S
C401 O398 1.320 . S
C401 O399 1.214 . S
O402 Cd394 2.277 . S
O402 C397 1.209 . S
C403 O400 1.258 . S
C403 O405 1.282 . S
O404 Cd396 2.277 . S
O404 C397 1.226 . S
O405 Cd396 2.356 . S
O405 C403 1.282 . S
C406 O407 1.306 . S
C406 O409 1.160 . S
O407 C406 1.306 . S
O407 Cd408 2.228 . S
Cd408 O407 2.228 . S
Cd408 O412 2.273 . S
Cd408 O416 2.277 . S
O409 C406 1.160 . S
O409 Cd410 2.203 . S
Cd410 O409 2.203 . S
Cd410 O412 2.411 . S
Cd410 O413 2.333 . S
Cd410 O414 2.352 . S
Cd410 O418 2.277 . S
Cd410 O419 2.356 . S
C411 O416 1.209 . S
C411 O418 1.226 . S
O412 Cd408 2.273 . S
O412 Cd410 2.411 . S
O412 C415 1.320 . S
O413 Cd410 2.333 . S
O413 C415 1.214 . S
O414 Cd410 2.352 . S
O414 C417 1.258 . S
C415 O412 1.320 . S
C415 O413 1.214 . S
O416 Cd408 2.277 . S
O416 C411 1.209 . S
C417 O414 1.258 . S
C417 O419 1.282 . S
O418 Cd410 2.277 . S
O418 C411 1.226 . S
O419 Cd410 2.356 . S
O419 C417 1.282 . S
C420 O421 1.306 . S
C420 O423 1.160 . S
O421 C420 1.306 . S
O421 Cd422 2.228 . S
Cd422 O421 2.228 . S
Cd422 O426 2.273 . S
Cd422 O430 2.277 . S
O423 C420 1.160 . S
O423 Cd424 2.203 . S
Cd424 O423 2.203 . S
Cd424 O426 2.411 . S
Cd424 O427 2.333 . S
Cd424 O428 2.352 . S
Cd424 O432 2.277 . S
Cd424 O433 2.356 . S
C425 O430 1.209 . S
C425 O432 1.226 . S
O426 Cd422 2.273 . S
O426 Cd424 2.411 . S
O426 C429 1.320 . S
O427 Cd424 2.333 . S
O427 C429 1.214 . S
O428 Cd424 2.352 . S
O428 C431 1.258 . S
C429 O426 1.320 . S
C429 O427 1.214 . S
O430 Cd422 2.277 . S
O430 C425 1.209 . S
C431 O428 1.258 . S
C431 O433 1.282 . S
O432 Cd424 2.277 . S
O432 C425 1.226 . S
O433 Cd424 2.356 . S
O433 C431 1.282 . S
C434 O435 1.306 . S
C434 O437 1.160 . S
O435 C434 1.306 . S
O435 Cd436 2.228 . S
Cd436 O435 2.228 . S
Cd436 O440 2.273 . S
Cd436 O444 2.277 . S
O437 C434 1.160 . S
O437 Cd438 2.203 . S
Cd438 O437 2.203 . S
Cd438 O440 2.411 . S
Cd438 O441 2.333 . S
Cd438 O442 2.352 . S
Cd438 O446 2.277 . S
Cd438 O447 2.356 . S
C439 O444 1.209 . S
C439 O446 1.226 . S
O440 Cd436 2.273 . S
O440 Cd438 2.411 . S
O440 C443 1.320 . S
O441 Cd438 2.333 . S
O441 C443 1.214 . S
O442 Cd438 2.352 . S
O442 C445 1.258 . S
C443 O440 1.320 . S
C443 O441 1.214 . S
O444 Cd436 2.277 . S
O444 C439 1.209 . S
C445 O442 1.258 . S
C445 O447 1.282 . S
O446 Cd438 2.277 . S
O446 C439 1.226 . S
O447 Cd438 2.356 . S
O447 C445 1.282 . S
C448 C449 1.369 . S
C448 C450 1.419 . S
C448 H452 0.930 . S
C449 C448 1.369 . S
C449 C458 1.429 . S
C450 C448 1.419 . S
C450 C451 1.363 . S
C450 H453 0.929 . S
C451 C450 1.363 . S
C451 C457 1.428 . S
H452 C448 0.930 . S
H453 C450 0.929 . S
S454 N455 1.613 . S
S454 N456 1.610 . S
N455 S454 1.613 . S
N455 C458 1.350 . S
N456 S454 1.610 . S
N456 C457 1.351 . S
C457 C451 1.428 . S
C457 N456 1.351 . S
C457 C458 1.434 . S
C458 C449 1.429 . S
C458 N455 1.350 . S
C458 C457 1.434 . S
C459 C460 1.369 . S
C459 C461 1.419 . S
C459 H463 0.930 . S
C460 C459 1.369 . S
C460 C469 1.429 . S
C461 C459 1.419 . S
C461 C462 1.363 . S
C461 H464 0.929 . S
C462 C461 1.363 . S
C462 C468 1.428 . S
H463 C459 0.930 . S
H464 C461 0.929 . S
S465 N466 1.613 . S
S465 N467 1.610 . S
N466 S465 1.613 . S
N466 C469 1.350 . S
N467 S465 1.610 . S
N467 C468 1.351 . S
C468 C462 1.428 . S
C468 N467 1.351 . S
C468 C469 1.434 . S
C469 C460 1.429 . S
C469 N466 1.350 . S
C469 C468 1.434 . S
C470 C471 1.369 . S
C470 C472 1.419 . S
C470 H474 0.930 . S
C471 C470 1.369 . S
C471 C480 1.429 . S
C472 C470 1.419 . S
C472 C473 1.363 . S
C472 H475 0.929 . S
C473 C472 1.363 . S
C473 C479 1.428 . S
H474 C470 0.930 . S
H475 C472 0.929 . S
S476 N477 1.613 . S
S476 N478 1.610 . S
N477 S476 1.613 . S
N477 C480 1.350 . S
N478 S476 1.610 . S
N478 C479 1.351 . S
C479 C473 1.428 . S
C479 N478 1.351 . S
C479 C480 1.434 . S
C480 C471 1.429 . S
C480 N477 1.350 . S
C480 C479 1.434 . S
C481 C482 1.369 . S
C481 C483 1.419 . S
C481 H485 0.930 . S
C482 C481 1.369 . S
C482 C491 1.429 . S
C483 C481 1.419 . S
C483 C484 1.363 . S
C483 H486 0.929 . S
C484 C483 1.363 . S
C484 C490 1.428 . S
H485 C481 0.930 . S
H486 C483 0.929 . S
S487 N488 1.613 . S
S487 N489 1.610 . S
N488 S487 1.613 . S
N488 C491 1.350 . S
N489 S487 1.610 . S
N489 C490 1.351 . S
C490 C484 1.428 . S
C490 N489 1.351 . S
C490 C491 1.434 . S
C491 C482 1.429 . S
C491 N488 1.350 . S
C491 C490 1.434 . S
C492 C493 1.369 . S
C492 C494 1.419 . S
C492 H496 0.930 . S
C493 C492 1.369 . S
C493 C502 1.429 . S
C494 C492 1.419 . S
C494 C495 1.363 . S
C494 H497 0.929 . S
C495 C494 1.363 . S
C495 C501 1.428 . S
H496 C492 0.930 . S
H497 C494 0.929 . S
S498 N499 1.613 . S
S498 N500 1.610 . S
N499 S498 1.613 . S
N499 C502 1.350 . S
N500 S498 1.610 . S
N500 C501 1.351 . S
C501 C495 1.428 . S
C501 N500 1.351 . S
C501 C502 1.434 . S
C502 C493 1.429 . S
C502 N499 1.350 . S
C502 C501 1.434 . S
C503 C504 1.369 . S
C503 C505 1.419 . S
C503 H507 0.930 . S
C504 C503 1.369 . S
C504 C513 1.429 . S
C505 C503 1.419 . S
C505 C506 1.363 . S
C505 H508 0.929 . S
C506 C505 1.363 . S
C506 C512 1.428 . S
H507 C503 0.930 . S
H508 C505 0.929 . S
S509 N510 1.613 . S
S509 N511 1.610 . S
N510 S509 1.613 . S
N510 C513 1.350 . S
N511 S509 1.610 . S
N511 C512 1.351 . S
C512 C506 1.428 . S
C512 N511 1.351 . S
C512 C513 1.434 . S
C513 C504 1.429 . S
C513 N510 1.350 . S
C513 C512 1.434 . S
C514 C515 1.369 . S
C514 C516 1.419 . S
C514 H518 0.930 . S
C515 C514 1.369 . S
C515 C524 1.429 . S
C516 C514 1.419 . S
C516 C517 1.363 . S
C516 H519 0.929 . S
C517 C516 1.363 . S
C517 C523 1.428 . S
H518 C514 0.930 . S
H519 C516 0.929 . S
S520 N521 1.613 . S
S520 N522 1.610 . S
N521 S520 1.613 . S
N521 C524 1.350 . S
N522 S520 1.610 . S
N522 C523 1.351 . S
C523 C517 1.428 . S
C523 N522 1.351 . S
C523 C524 1.434 . S
C524 C515 1.429 . S
C524 N521 1.350 . S
C524 C523 1.434 . S
C525 C526 1.369 . S
C525 C527 1.419 . S
C525 H529 0.930 . S
C526 C525 1.369 . S
C526 C535 1.429 . S
C527 C525 1.419 . S
C527 C528 1.363 . S
C527 H530 0.929 . S
C528 C527 1.363 . S
C528 C534 1.428 . S
H529 C525 0.930 . S
H530 C527 0.929 . S
S531 N532 1.613 . S
S531 N533 1.610 . S
N532 S531 1.613 . S
N532 C535 1.350 . S
N533 S531 1.610 . S
N533 C534 1.351 . S
C534 C528 1.428 . S
C534 N533 1.351 . S
C534 C535 1.434 . S
C535 C526 1.429 . S
C535 N532 1.350 . S
C535 C534 1.434 . S
C536 C537 1.369 . S
C536 C538 1.419 . S
C536 H540 0.930 . S
C537 C536 1.369 . S
C537 C546 1.429 . S
C538 C536 1.419 . S
C538 C539 1.363 . S
C538 H541 0.929 . S
C539 C538 1.363 . S
C539 C545 1.428 . S
H540 C536 0.930 . S
H541 C538 0.929 . S
S542 N543 1.613 . S
S542 N544 1.610 . S
N543 S542 1.613 . S
N543 C546 1.350 . S
N544 S542 1.610 . S
N544 C545 1.351 . S
C545 C539 1.428 . S
C545 N544 1.351 . S
C545 C546 1.434 . S
C546 C537 1.429 . S
C546 N543 1.350 . S
C546 C545 1.434 . S
C547 C548 1.369 . S
C547 C549 1.419 . S
C547 H551 0.930 . S
C548 C547 1.369 . S
C548 C557 1.429 . S
C549 C547 1.419 . S
C549 C550 1.363 . S
C549 H552 0.929 . S
C550 C549 1.363 . S
C550 C556 1.428 . S
H551 C547 0.930 . S
H552 C549 0.929 . S
S553 N554 1.613 . S
S553 N555 1.610 . S
N554 S553 1.613 . S
N554 C557 1.350 . S
N555 S553 1.610 . S
N555 C556 1.351 . S
C556 C550 1.428 . S
C556 N555 1.351 . S
C556 C557 1.434 . S
C557 C548 1.429 . S
C557 N554 1.350 . S
C557 C556 1.434 . S
C558 C559 1.369 . S
C558 C560 1.419 . S
C558 H562 0.930 . S
C559 C558 1.369 . S
C559 C568 1.429 . S
C560 C558 1.419 . S
C560 C561 1.363 . S
C560 H563 0.929 . S
C561 C560 1.363 . S
C561 C567 1.428 . S
H562 C558 0.930 . S
H563 C560 0.929 . S
S564 N565 1.613 . S
S564 N566 1.610 . S
N565 S564 1.613 . S
N565 C568 1.350 . S
N566 S564 1.610 . S
N566 C567 1.351 . S
C567 C561 1.428 . S
C567 N566 1.351 . S
C567 C568 1.434 . S
C568 C559 1.429 . S
C568 N565 1.350 . S
C568 C567 1.434 . S
C569 C570 1.369 . S
C569 C571 1.419 . S
C569 H573 0.930 . S
C570 C569 1.369 . S
C570 C579 1.429 . S
C571 C569 1.419 . S
C571 C572 1.363 . S
C571 H574 0.929 . S
C572 C571 1.363 . S
C572 C578 1.428 . S
H573 C569 0.930 . S
H574 C571 0.929 . S
S575 N576 1.613 . S
S575 N577 1.610 . S
N576 S575 1.613 . S
N576 C579 1.350 . S
N577 S575 1.610 . S
N577 C578 1.351 . S
C578 C572 1.428 . S
C578 N577 1.351 . S
C578 C579 1.434 . S
C579 C570 1.429 . S
C579 N576 1.350 . S
C579 C578 1.434 . S
C580 C581 1.369 . S
C580 C582 1.419 . S
C580 H584 0.930 . S
C581 C580 1.369 . S
C581 C590 1.429 . S
C582 C580 1.419 . S
C582 C583 1.363 . S
C582 H585 0.929 . S
C583 C582 1.363 . S
C583 C589 1.428 . S
H584 C580 0.930 . S
H585 C582 0.929 . S
S586 N587 1.613 . S
S586 N588 1.610 . S
N587 S586 1.613 . S
N587 C590 1.350 . S
N588 S586 1.610 . S
N588 C589 1.351 . S
C589 C583 1.428 . S
C589 N588 1.351 . S
C589 C590 1.434 . S
C590 C581 1.429 . S
C590 N587 1.350 . S
C590 C589 1.434 . S
C591 C592 1.369 . S
C591 C593 1.419 . S
C591 H595 0.930 . S
C592 C591 1.369 . S
C592 C601 1.429 . S
C593 C591 1.419 . S
C593 C594 1.363 . S
C593 H596 0.929 . S
C594 C593 1.363 . S
C594 C600 1.428 . S
H595 C591 0.930 . S
H596 C593 0.929 . S
S597 N598 1.613 . S
S597 N599 1.610 . S
N598 S597 1.613 . S
N598 C601 1.350 . S
N599 S597 1.610 . S
N599 C600 1.351 . S
C600 C594 1.428 . S
C600 N599 1.351 . S
C600 C601 1.434 . S
C601 C592 1.429 . S
C601 N598 1.350 . S
C601 C600 1.434 . S
C602 C603 1.369 . S
C602 C604 1.419 . S
C602 H606 0.930 . S
C603 C602 1.369 . S
C603 C612 1.429 . S
C604 C602 1.419 . S
C604 C605 1.363 . S
C604 H607 0.929 . S
C605 C604 1.363 . S
C605 C611 1.428 . S
H606 C602 0.930 . S
H607 C604 0.929 . S
S608 N609 1.613 . S
S608 N610 1.610 . S
N609 S608 1.613 . S
N609 C612 1.350 . S
N610 S608 1.610 . S
N610 C611 1.351 . S
C611 C605 1.428 . S
C611 N610 1.351 . S
C611 C612 1.434 . S
C612 C603 1.429 . S
C612 N609 1.350 . S
C612 C611 1.434 . S
C613 C614 1.369 . S
C613 C615 1.419 . S
C613 H617 0.930 . S
C614 C613 1.369 . S
C614 C623 1.429 . S
C615 C613 1.419 . S
C615 C616 1.363 . S
C615 H618 0.929 . S
C616 C615 1.363 . S
C616 C622 1.428 . S
H617 C613 0.930 . S
H618 C615 0.929 . S
S619 N620 1.613 . S
S619 N621 1.610 . S
N620 S619 1.613 . S
N620 C623 1.350 . S
N621 S619 1.610 . S
N621 C622 1.351 . S
C622 C616 1.428 . S
C622 N621 1.351 . S
C622 C623 1.434 . S
C623 C614 1.429 . S
C623 N620 1.350 . S
C623 C622 1.434 . S
C624 C625 1.369 . S
C624 C626 1.419 1_554 S
C624 H628 0.930 . S
C625 C624 1.369 . S
C625 C634 1.429 . S
C626 C624 1.419 1_556 S
C626 C627 1.363 . S
C626 H629 0.929 . S
C627 C626 1.363 . S
C627 C633 1.428 . S
H628 C624 0.930 . S
H629 C626 0.929 . S
S630 N631 1.615 1_556 S
S630 N632 1.608 . S
N631 S630 1.615 1_554 S
N631 C634 1.350 . S
N632 S630 1.608 . S
N632 C633 1.351 . S
C633 C627 1.428 . S
C633 N632 1.351 . S
C633 C634 1.434 1_556 S
C634 C625 1.429 . S
C634 N631 1.350 . S
C634 C633 1.434 1_554 S
C635 C636 1.369 . S
C635 C637 1.419 1_556 S
C635 H639 0.930 . S
C636 C635 1.369 . S
C636 C645 1.429 . S
C637 C635 1.419 1_554 S
C637 C638 1.363 . S
C637 H640 0.929 . S
C638 C637 1.363 . S
C638 C644 1.428 . S
H639 C635 0.930 . S
H640 C637 0.929 . S
S641 N642 1.615 1_554 S
S641 N643 1.608 . S
N642 S641 1.615 1_556 S
N642 C645 1.350 . S
N643 S641 1.608 . S
N643 C644 1.351 . S
C644 C638 1.428 . S
C644 N643 1.351 . S
C644 C645 1.434 1_554 S
C645 C636 1.429 . S
C645 N642 1.350 . S
C645 C644 1.434 1_556 S
C646 C647 1.369 . S
C646 C648 1.419 1_556 S
C646 H650 0.930 . S
C647 C646 1.369 . S
C647 C656 1.429 . S
C648 C646 1.419 1_554 S
C648 C649 1.363 . S
C648 H651 0.929 . S
C649 C648 1.363 . S
C649 C655 1.428 . S
H650 C646 0.930 . S
H651 C648 0.929 . S
S652 N653 1.615 1_554 S
S652 N654 1.608 . S
N653 S652 1.615 1_556 S
N653 C656 1.350 . S
N654 S652 1.608 . S
N654 C655 1.351 . S
C655 C649 1.428 . S
C655 N654 1.351 . S
C655 C656 1.434 1_554 S
C656 C647 1.429 . S
C656 N653 1.350 . S
C656 C655 1.434 1_556 S
C657 C658 1.369 . S
C657 C659 1.419 1_556 S
C657 H661 0.930 . S
C658 C657 1.369 . S
C658 C667 1.429 . S
C659 C657 1.419 1_554 S
C659 C660 1.363 . S
C659 H662 0.929 . S
C660 C659 1.363 . S
C660 C666 1.428 . S
H661 C657 0.930 . S
H662 C659 0.929 . S
S663 N664 1.615 1_554 S
S663 N665 1.608 . S
N664 S663 1.615 1_556 S
N664 C667 1.350 . S
N665 S663 1.608 . S
N665 C666 1.351 . S
C666 C660 1.428 . S
C666 N665 1.351 . S
C666 C667 1.434 1_554 S
C667 C658 1.429 . S
C667 N664 1.350 . S
C667 C666 1.434 1_556 S
C668 C669 1.369 . S
C668 C670 1.419 . S
C668 H672 0.930 . S
C669 C668 1.369 . S
C669 C678 1.429 . S
C670 C668 1.419 . S
C670 C671 1.363 . S
C670 H673 0.929 . S
C671 C670 1.363 . S
C671 C677 1.428 . S
H672 C668 0.930 . S
H673 C670 0.929 . S
S674 N675 1.613 . S
S674 N676 1.610 . S
N675 S674 1.613 . S
N675 C678 1.350 . S
N676 S674 1.610 . S
N676 C677 1.351 . S
C677 C671 1.428 . S
C677 N676 1.351 . S
C677 C678 1.434 . S
C678 C669 1.429 . S
C678 N675 1.350 . S
C678 C677 1.434 . S
C679 C680 1.369 . S
C679 C681 1.419 . S
C679 H683 0.930 . S
C680 C679 1.369 . S
C680 C689 1.429 . S
C681 C679 1.419 . S
C681 C682 1.363 . S
C681 H684 0.929 . S
C682 C681 1.363 . S
C682 C688 1.428 . S
H683 C679 0.930 . S
H684 C681 0.929 . S
S685 N686 1.613 . S
S685 N687 1.610 . S
N686 S685 1.613 . S
N686 C689 1.350 . S
N687 S685 1.610 . S
N687 C688 1.351 . S
C688 C682 1.428 . S
C688 N687 1.351 . S
C688 C689 1.434 . S
C689 C680 1.429 . S
C689 N686 1.350 . S
C689 C688 1.434 . S
C690 C691 1.369 . S
C690 C692 1.419 . S
C690 H694 0.930 . S
C691 C690 1.369 . S
C691 C700 1.429 . S
C692 C690 1.419 . S
C692 C693 1.363 . S
C692 H695 0.929 . S
C693 C692 1.363 . S
C693 C699 1.428 . S
H694 C690 0.930 . S
H695 C692 0.929 . S
S696 N697 1.613 . S
S696 N698 1.610 . S
N697 S696 1.613 . S
N697 C700 1.350 . S
N698 S696 1.610 . S
N698 C699 1.351 . S
C699 C693 1.428 . S
C699 N698 1.351 . S
C699 C700 1.434 . S
C700 C691 1.429 . S
C700 N697 1.350 . S
C700 C699 1.434 . S
C701 C702 1.369 . S
C701 C703 1.419 . S
C701 H705 0.930 . S
C702 C701 1.369 . S
C702 C711 1.429 . S
C703 C701 1.419 . S
C703 C704 1.363 . S
C703 H706 0.929 . S
C704 C703 1.363 . S
C704 C710 1.428 . S
H705 C701 0.930 . S
H706 C703 0.929 . S
S707 N708 1.613 . S
S707 N709 1.610 . S
N708 S707 1.613 . S
N708 C711 1.350 . S
N709 S707 1.610 . S
N709 C710 1.351 . S
C710 C704 1.428 . S
C710 N709 1.351 . S
C710 C711 1.434 . S
C711 C702 1.429 . S
C711 N708 1.350 . S
C711 C710 1.434 . S
C712 C713 1.369 . S
C712 C714 1.419 . S
C712 H716 0.930 . S
C713 C712 1.369 . S
C713 C722 1.429 . S
C714 C712 1.419 . S
C714 C715 1.363 . S
C714 H717 0.929 . S
C715 C714 1.363 . S
C715 C721 1.428 . S
H716 C712 0.930 . S
H717 C714 0.929 . S
S718 N719 1.613 . S
S718 N720 1.610 . S
N719 S718 1.613 . S
N719 C722 1.350 . S
N720 S718 1.610 . S
N720 C721 1.351 . S
C721 C715 1.428 . S
C721 N720 1.351 . S
C721 C722 1.434 . S
C722 C713 1.429 . S
C722 N719 1.350 . S
C722 C721 1.434 . S
C723 C724 1.369 . S
C723 C725 1.419 . S
C723 H727 0.930 . S
C724 C723 1.369 . S
C724 C733 1.429 . S
C725 C723 1.419 . S
C725 C726 1.363 . S
C725 H728 0.929 . S
C726 C725 1.363 . S
C726 C732 1.428 . S
H727 C723 0.930 . S
H728 C725 0.929 . S
S729 N730 1.613 . S
S729 N731 1.610 . S
N730 S729 1.613 . S
N730 C733 1.350 . S
N731 S729 1.610 . S
N731 C732 1.351 . S
C732 C726 1.428 . S
C732 N731 1.351 . S
C732 C733 1.434 . S
C733 C724 1.429 . S
C733 N730 1.350 . S
C733 C732 1.434 . S
C734 C735 1.369 . S
C734 C736 1.419 . S
C734 H738 0.930 . S
C735 C734 1.369 . S
C735 C744 1.429 . S
C736 C734 1.419 . S
C736 C737 1.363 . S
C736 H739 0.929 . S
C737 C736 1.363 . S
C737 C743 1.428 . S
H738 C734 0.930 . S
H739 C736 0.929 . S
S740 N741 1.613 . S
S740 N742 1.610 . S
N741 S740 1.613 . S
N741 C744 1.350 . S
N742 S740 1.610 . S
N742 C743 1.351 . S
C743 C737 1.428 . S
C743 N742 1.351 . S
C743 C744 1.434 . S
C744 C735 1.429 . S
C744 N741 1.350 . S
C744 C743 1.434 . S
C745 C746 1.369 . S
C745 C747 1.419 . S
C745 H749 0.930 . S
C746 C745 1.369 . S
C746 C755 1.429 . S
C747 C745 1.419 . S
C747 C748 1.363 . S
C747 H750 0.929 . S
C748 C747 1.363 . S
C748 C754 1.428 . S
H749 C745 0.930 . S
H750 C747 0.929 . S
S751 N752 1.613 . S
S751 N753 1.610 . S
N752 S751 1.613 . S
N752 C755 1.350 . S
N753 S751 1.610 . S
N753 C754 1.351 . S
C754 C748 1.428 . S
C754 N753 1.351 . S
C754 C755 1.434 . S
C755 C746 1.429 . S
C755 N752 1.350 . S
C755 C754 1.434 . S
C756 C757 1.369 . S
C756 C758 1.419 1_556 S
C756 H760 0.930 . S
C757 C756 1.369 . S
C757 C766 1.429 . S
C758 C756 1.419 1_554 S
C758 C759 1.363 . S
C758 H761 0.929 . S
C759 C758 1.363 . S
C759 C765 1.428 . S
H760 C756 0.930 . S
H761 C758 0.929 . S
S762 N763 1.615 1_554 S
S762 N764 1.608 . S
N763 S762 1.615 1_556 S
N763 C766 1.350 . S
N764 S762 1.608 . S
N764 C765 1.351 . S
C765 C759 1.428 . S
C765 N764 1.351 . S
C765 C766 1.434 1_554 S
C766 C757 1.429 . S
C766 N763 1.350 . S
C766 C765 1.434 1_556 S
C767 C768 1.369 . S
C767 C769 1.419 1_554 S
C767 H771 0.930 . S
C768 C767 1.369 . S
C768 C777 1.429 . S
C769 C767 1.419 1_556 S
C769 C770 1.363 . S
C769 H772 0.929 . S
C770 C769 1.363 . S
C770 C776 1.428 . S
H771 C767 0.930 . S
H772 C769 0.929 . S
S773 N774 1.615 1_556 S
S773 N775 1.608 . S
N774 S773 1.615 1_554 S
N774 C777 1.350 . S
N775 S773 1.608 . S
N775 C776 1.351 . S
C776 C770 1.428 . S
C776 N775 1.351 . S
C776 C777 1.434 1_556 S
C777 C768 1.429 . S
C777 N774 1.350 . S
C777 C776 1.434 1_554 S
C778 C779 1.369 . S
C778 C780 1.419 1_554 S
C778 H782 0.930 . S
C779 C778 1.369 . S
C779 C788 1.429 . S
C780 C778 1.419 1_556 S
C780 C781 1.363 . S
C780 H783 0.929 . S
C781 C780 1.363 . S
C781 C787 1.428 . S
H782 C778 0.930 . S
H783 C780 0.929 . S
S784 N785 1.615 1_556 S
S784 N786 1.608 . S
N785 S784 1.615 1_554 S
N785 C788 1.350 . S
N786 S784 1.608 . S
N786 C787 1.351 . S
C787 C781 1.428 . S
C787 N786 1.351 . S
C787 C788 1.434 1_556 S
C788 C779 1.429 . S
C788 N785 1.350 . S
C788 C787 1.434 1_554 S
C789 C790 1.369 . S
C789 C791 1.419 1_556 S
C789 H793 0.930 . S
C790 C789 1.369 . S
C790 C799 1.429 . S
C791 C789 1.419 1_554 S
C791 C792 1.363 . S
C791 H794 0.929 . S
C792 C791 1.363 . S
C792 C798 1.428 . S
H793 C789 0.930 . S
H794 C791 0.929 . S
S795 N796 1.615 1_554 S
S795 N797 1.608 . S
N796 S795 1.615 1_556 S
N796 C799 1.350 . S
N797 S795 1.608 . S
N797 C798 1.351 . S
C798 C792 1.428 . S
C798 N797 1.351 . S
C798 C799 1.434 1_554 S
C799 C790 1.429 . S
C799 N796 1.350 . S
C799 C798 1.434 1_556 S
C800 C801 1.369 . S
C800 C802 1.419 1_545 S
C800 H804 0.930 . S
C801 C800 1.369 . S
C801 C810 1.429 . S
C802 C800 1.419 1_565 S
C802 C803 1.363 . S
C802 H805 0.929 . S
C803 C802 1.363 . S
C803 C809 1.428 . S
H804 C800 0.930 . S
H805 C802 0.929 . S
S806 N807 1.613 . S
S806 N808 1.610 1_545 S
N807 S806 1.613 . S
N807 C810 1.350 . S
N808 S806 1.610 1_565 S
N808 C809 1.351 . S
C809 C803 1.428 . S
C809 N808 1.351 . S
C809 C810 1.434 1_565 S
C810 C801 1.429 . S
C810 N807 1.350 . S
C810 C809 1.434 1_545 S
C811 C812 1.369 . S
C811 C813 1.419 1_655 S
C811 H815 0.930 . S
C812 C811 1.369 . S
C812 C821 1.429 . S
C813 C811 1.419 1_455 S
C813 C814 1.363 . S
C813 H816 0.929 . S
C814 C813 1.363 . S
C814 C820 1.428 . S
H815 C811 0.930 . S
H816 C813 0.929 . S
S817 N818 1.613 1_455 S
S817 N819 1.610 . S
N818 S817 1.613 1_655 S
N818 C821 1.350 . S
N819 S817 1.610 . S
N819 C820 1.351 . S
C820 C814 1.428 . S
C820 N819 1.351 . S
C820 C821 1.434 1_455 S
C821 C812 1.429 . S
C821 N818 1.350 . S
C821 C820 1.434 1_655 S
C822 C823 1.369 . S
C822 C824 1.412 1_545 S
C822 H826 0.930 . S
C823 C822 1.369 . S
C823 C832 1.391 1_545 S
C824 C822 1.412 1_565 S
C824 C825 1.370 . S
C824 H827 0.928 1_565 S
C825 C824 1.370 . S
C825 C831 1.428 . S
H826 C822 0.930 . S
H827 C824 0.928 1_545 S
S828 N829 1.613 . S
S828 N830 1.610 . S
N829 S828 1.613 . S
N829 C832 1.358 . S
N830 S828 1.610 . S
N830 C831 1.351 . S
C831 C825 1.428 . S
C831 N830 1.351 . S
C831 C832 1.470 . S
C832 C823 1.391 1_565 S
C832 N829 1.358 . S
C832 C831 1.470 . S
C833 C834 1.349 1_655 S
C833 C835 1.437 . S
C833 H837 0.932 . S
C834 C833 1.349 1_455 S
C834 C843 1.429 . S
C835 C833 1.437 . S
C835 C836 1.363 . S
C835 H838 0.929 . S
C836 C835 1.363 . S
C836 C842 1.428 1_655 S
H837 C833 0.932 . S
H838 C835 0.929 . S
S839 N840 1.613 . S
S839 N841 1.610 . S
N840 S839 1.613 . S
N840 C843 1.350 . S
N841 S839 1.610 . S
N841 C842 1.351 . S
C842 C836 1.428 1_455 S
C842 N841 1.351 . S
C842 C843 1.434 . S
C843 C834 1.429 . S
C843 N840 1.350 . S
C843 C842 1.434 . S
C844 C845 1.369 . S
C844 C846 1.441 . S
C844 H848 0.930 . S
C845 C844 1.369 . S
C845 C854 1.429 1_565 S
C846 C844 1.441 . S
C846 C847 1.339 1_565 S
C846 H849 0.932 . S
C847 C846 1.339 1_545 S
C847 C853 1.428 . S
H848 C844 0.930 . S
H849 C846 0.932 . S
S850 N851 1.613 . S
S850 N852 1.610 . S
N851 S850 1.613 . S
N851 C854 1.350 . S
N852 S850 1.610 . S
N852 C853 1.351 . S
C853 C847 1.428 . S
C853 N852 1.351 . S
C853 C854 1.434 . S
C854 C845 1.429 1_545 S
C854 N851 1.350 . S
C854 C853 1.434 . S
C855 C856 1.369 1_455 S
C855 C857 1.419 . S
C855 H859 0.930 . S
C856 C855 1.369 1_655 S
C856 C865 1.429 . S
C857 C855 1.419 . S
C857 C858 1.363 . S
C857 H860 0.929 . S
C858 C857 1.363 . S
C858 C864 1.428 1_455 S
H859 C855 0.930 . S
H860 C857 0.929 . S
S861 N862 1.613 . S
S861 N863 1.610 . S
N862 S861 1.613 . S
N862 C865 1.350 . S
N863 S861 1.610 . S
N863 C864 1.351 . S
C864 C858 1.428 1_655 S
C864 N863 1.351 . S
C864 C865 1.434 . S
C865 C856 1.429 . S
C865 N862 1.350 . S
C865 C864 1.434 . S
C866 C867 1.369 . S
C866 C868 1.419 1_565 S
C866 H870 0.930 . S
C867 C866 1.369 . S
C867 C876 1.429 . S
C868 C866 1.419 1_545 S
C868 C869 1.363 . S
C868 H871 0.929 . S
C869 C868 1.363 . S
C869 C875 1.428 . S
H870 C866 0.930 . S
H871 C868 0.929 . S
S872 N873 1.613 1_545 S
S872 N874 1.610 . S
N873 S872 1.613 1_565 S
N873 C876 1.350 . S
N874 S872 1.610 . S
N874 C875 1.351 . S
C875 C869 1.428 . S
C875 N874 1.351 . S
C875 C876 1.434 1_545 S
C876 C867 1.429 . S
C876 N873 1.350 . S
C876 C875 1.434 1_565 S
C877 C878 1.369 . S
C877 C879 1.419 1_655 S
C877 H881 0.930 . S
C878 C877 1.369 . S
C878 C887 1.429 . S
C879 C877 1.419 1_455 S
C879 C880 1.363 . S
C879 H882 0.929 . S
C880 C879 1.363 . S
C880 C886 1.428 . S
H881 C877 0.930 . S
H882 C879 0.929 . S
S883 N884 1.613 1_455 S
S883 N885 1.610 . S
N884 S883 1.613 1_655 S
N884 C887 1.350 . S
N885 S883 1.610 . S
N885 C886 1.351 . S
C886 C880 1.428 . S
C886 N885 1.351 . S
C886 C887 1.434 1_455 S
C887 C878 1.429 . S
C887 N884 1.350 . S
C887 C886 1.434 1_655 S
C888 C889 1.369 . S
C888 C890 1.419 . S
C888 H892 0.930 . S
C889 C888 1.369 . S
C889 C898 1.429 . S
C890 C888 1.419 . S
C890 C891 1.363 . S
C890 H893 0.929 . S
C891 C890 1.363 . S
C891 C897 1.428 . S
H892 C888 0.930 . S
H893 C890 0.929 . S
S894 N895 1.613 . S
S894 N896 1.610 . S
N895 S894 1.613 . S
N895 C898 1.350 . S
N896 S894 1.610 . S
N896 C897 1.351 . S
C897 C891 1.428 . S
C897 N896 1.351 . S
C897 C898 1.434 . S
C898 C889 1.429 . S
C898 N895 1.350 . S
C898 C897 1.434 . S
C899 C900 1.369 . S
C899 C901 1.419 . S
C899 H903 0.930 . S
C900 C899 1.369 . S
C900 C909 1.429 . S
C901 C899 1.419 . S
C901 C902 1.363 . S
C901 H904 0.929 . S
C902 C901 1.363 . S
C902 C908 1.428 . S
H903 C899 0.930 . S
H904 C901 0.929 . S
S905 N906 1.613 . S
S905 N907 1.610 . S
N906 S905 1.613 . S
N906 C909 1.350 . S
N907 S905 1.610 . S
N907 C908 1.351 . S
C908 C902 1.428 . S
C908 N907 1.351 . S
C908 C909 1.434 . S
C909 C900 1.429 . S
C909 N906 1.350 . S
C909 C908 1.434 . S
C910 C911 1.369 . S
C910 C912 1.419 . S
C910 H914 0.930 . S
C911 C910 1.369 . S
C911 C920 1.429 . S
C912 C910 1.419 . S
C912 C913 1.363 . S
C912 H915 0.929 . S
C913 C912 1.363 . S
C913 C919 1.428 . S
H914 C910 0.930 . S
H915 C912 0.929 . S
S916 N917 1.613 . S
S916 N918 1.610 . S
N917 S916 1.613 . S
N917 C920 1.350 . S
N918 S916 1.610 . S
N918 C919 1.351 . S
C919 C913 1.428 . S
C919 N918 1.351 . S
C919 C920 1.434 . S
C920 C911 1.429 . S
C920 N917 1.350 . S
C920 C919 1.434 . S
C921 C922 1.369 . S
C921 C923 1.419 . S
C921 H925 0.930 . S
C922 C921 1.369 . S
C922 C931 1.429 . S
C923 C921 1.419 . S
C923 C924 1.363 . S
C923 H926 0.929 . S
C924 C923 1.363 . S
C924 C930 1.428 . S
H925 C921 0.930 . S
H926 C923 0.929 . S
S927 N928 1.613 . S
S927 N929 1.610 . S
N928 S927 1.613 . S
N928 C931 1.350 . S
N929 S927 1.610 . S
N929 C930 1.351 . S
C930 C924 1.428 . S
C930 N929 1.351 . S
C930 C931 1.434 . S
C931 C922 1.429 . S
C931 N928 1.350 . S
C931 C930 1.434 . S
C932 C933 1.369 . S
C932 C934 1.419 . S
C932 H936 0.930 . S
C933 C932 1.369 . S
C933 C942 1.429 . S
C934 C932 1.419 . S
C934 C935 1.363 . S
C934 H937 0.929 . S
C935 C934 1.363 . S
C935 C941 1.428 . S
H936 C932 0.930 . S
H937 C934 0.929 . S
S938 N939 1.613 . S
S938 N940 1.610 . S
N939 S938 1.613 . S
N939 C942 1.350 . S
N940 S938 1.610 . S
N940 C941 1.351 . S
C941 C935 1.428 . S
C941 N940 1.351 . S
C941 C942 1.434 . S
C942 C933 1.429 . S
C942 N939 1.350 . S
C942 C941 1.434 . S
C943 C944 1.369 . S
C943 C945 1.419 . S
C943 H947 0.930 . S
C944 C943 1.369 . S
C944 C953 1.429 . S
C945 C943 1.419 . S
C945 C946 1.363 . S
C945 H948 0.929 . S
C946 C945 1.363 . S
C946 C952 1.428 . S
H947 C943 0.930 . S
H948 C945 0.929 . S
S949 N950 1.613 . S
S949 N951 1.610 . S
N950 S949 1.613 . S
N950 C953 1.350 . S
N951 S949 1.610 . S
N951 C952 1.351 . S
C952 C946 1.428 . S
C952 N951 1.351 . S
C952 C953 1.434 . S
C953 C944 1.429 . S
C953 N950 1.350 . S
C953 C952 1.434 . S
C954 C955 1.369 . S
C954 C956 1.419 . S
C954 H958 0.930 . S
C955 C954 1.369 . S
C955 C964 1.429 . S
C956 C954 1.419 . S
C956 C957 1.363 . S
C956 H959 0.929 . S
C957 C956 1.363 . S
C957 C963 1.428 . S
H958 C954 0.930 . S
H959 C956 0.929 . S
S960 N961 1.613 . S
S960 N962 1.610 . S
N961 S960 1.613 . S
N961 C964 1.350 . S
N962 S960 1.610 . S
N962 C963 1.351 . S
C963 C957 1.428 . S
C963 N962 1.351 . S
C963 C964 1.434 . S
C964 C955 1.429 . S
C964 N961 1.350 . S
C964 C963 1.434 . S
C965 C966 1.369 . S
C965 C967 1.419 . S
C965 H969 0.930 . S
C966 C965 1.369 . S
C966 C975 1.429 . S
C967 C965 1.419 . S
C967 C968 1.363 . S
C967 H970 0.929 . S
C968 C967 1.363 . S
C968 C974 1.428 . S
H969 C965 0.930 . S
H970 C967 0.929 . S
S971 N972 1.613 . S
S971 N973 1.610 . S
N972 S971 1.613 . S
N972 C975 1.350 . S
N973 S971 1.610 . S
N973 C974 1.351 . S
C974 C968 1.428 . S
C974 N973 1.351 . S
C974 C975 1.434 . S
C975 C966 1.429 . S
C975 N972 1.350 . S
C975 C974 1.434 . S
C976 C977 1.369 . S
C976 C978 1.419 . S
C976 H980 0.930 . S
C977 C976 1.369 . S
C977 C986 1.429 . S
C978 C976 1.419 . S
C978 C979 1.363 . S
C978 H981 0.929 . S
C979 C978 1.363 . S
C979 C985 1.428 . S
H980 C976 0.930 . S
H981 C978 0.929 . S
S982 N983 1.613 . S
S982 N984 1.610 . S
N983 S982 1.613 . S
N983 C986 1.350 . S
N984 S982 1.610 . S
N984 C985 1.351 . S
C985 C979 1.428 . S
C985 N984 1.351 . S
C985 C986 1.434 . S
C986 C977 1.429 . S
C986 N983 1.350 . S
C986 C985 1.434 . S
C987 C988 1.369 . S
C987 C989 1.419 . S
C987 H991 0.930 . S
C988 C987 1.369 . S
C988 C997 1.429 . S
C989 C987 1.419 . S
C989 C990 1.363 . S
C989 H992 0.929 . S
C990 C989 1.363 . S
C990 C996 1.428 . S
H991 C987 0.930 . S
H992 C989 0.929 . S
S993 N994 1.613 . S
S993 N995 1.610 . S
N994 S993 1.613 . S
N994 C997 1.350 . S
N995 S993 1.610 . S
N995 C996 1.351 . S
C996 C990 1.428 . S
C996 N995 1.351 . S
C996 C997 1.434 . S
C997 C988 1.429 . S
C997 N994 1.350 . S
C997 C996 1.434 . S
C998 C999 1.369 . S
C998 C1000 1.419 . S
C998 H1002 0.930 . S
C999 C998 1.369 . S
C999 C1008 1.429 . S
C1000 C998 1.419 . S
C1000 C1001 1.363 . S
C1000 H1003 0.929 . S
C1001 C1000 1.363 . S
C1001 C1007 1.428 . S
H1002 C998 0.930 . S
H1003 C1000 0.929 . S
S1004 N1005 1.613 . S
S1004 N1006 1.610 . S
N1005 S1004 1.613 . S
N1005 C1008 1.350 . S
N1006 S1004 1.610 . S
N1006 C1007 1.351 . S
C1007 C1001 1.428 . S
C1007 N1006 1.351 . S
C1007 C1008 1.434 . S
C1008 C999 1.429 . S
C1008 N1005 1.350 . S
C1008 C1007 1.434 . S
C1009 C1010 1.369 . S
C1009 C1011 1.419 . S
C1009 H1013 0.930 . S
C1010 C1009 1.369 . S
C1010 C1019 1.429 . S
C1011 C1009 1.419 . S
C1011 C1012 1.363 . S
C1011 H1014 0.929 . S
C1012 C1011 1.363 . S
C1012 C1018 1.428 . S
H1013 C1009 0.930 . S
H1014 C1011 0.929 . S
S1015 N1016 1.613 . S
S1015 N1017 1.610 . S
N1016 S1015 1.613 . S
N1016 C1019 1.350 . S
N1017 S1015 1.610 . S
N1017 C1018 1.351 . S
C1018 C1012 1.428 . S
C1018 N1017 1.351 . S
C1018 C1019 1.434 . S
C1019 C1010 1.429 . S
C1019 N1016 1.350 . S
C1019 C1018 1.434 . S
C1020 C1021 1.369 . S
C1020 C1022 1.419 . S
C1020 H1024 0.930 . S
C1021 C1020 1.369 . S
C1021 C1030 1.429 . S
C1022 C1020 1.419 . S
C1022 C1023 1.363 . S
C1022 H1025 0.929 . S
C1023 C1022 1.363 . S
C1023 C1029 1.428 . S
H1024 C1020 0.930 . S
H1025 C1022 0.929 . S
S1026 N1027 1.613 . S
S1026 N1028 1.610 . S
N1027 S1026 1.613 . S
N1027 C1030 1.350 . S
N1028 S1026 1.610 . S
N1028 C1029 1.351 . S
C1029 C1023 1.428 . S
C1029 N1028 1.351 . S
C1029 C1030 1.434 . S
C1030 C1021 1.429 . S
C1030 N1027 1.350 . S
C1030 C1029 1.434 . S
C1031 C1032 1.369 . S
C1031 C1033 1.419 . S
C1031 H1035 0.930 . S
C1032 C1031 1.369 . S
C1032 C1041 1.429 . S
C1033 C1031 1.419 . S
C1033 C1034 1.363 . S
C1033 H1036 0.929 . S
C1034 C1033 1.363 . S
C1034 C1040 1.428 . S
H1035 C1031 0.930 . S
H1036 C1033 0.929 . S
S1037 N1038 1.613 . S
S1037 N1039 1.610 . S
N1038 S1037 1.613 . S
N1038 C1041 1.350 . S
N1039 S1037 1.610 . S
N1039 C1040 1.351 . S
C1040 C1034 1.428 . S
C1040 N1039 1.351 . S
C1040 C1041 1.434 . S
C1041 C1032 1.429 . S
C1041 N1038 1.350 . S
C1041 C1040 1.434 . S
C1042 C1043 1.369 . S
C1042 C1044 1.419 . S
C1042 H1046 0.930 . S
C1043 C1042 1.369 . S
C1043 C1052 1.429 . S
C1044 C1042 1.419 . S
C1044 C1045 1.363 . S
C1044 H1047 0.929 . S
C1045 C1044 1.363 . S
C1045 C1051 1.428 . S
H1046 C1042 0.930 . S
H1047 C1044 0.929 . S
S1048 N1049 1.613 . S
S1048 N1050 1.610 . S
N1049 S1048 1.613 . S
N1049 C1052 1.350 . S
N1050 S1048 1.610 . S
N1050 C1051 1.351 . S
C1051 C1045 1.428 . S
C1051 N1050 1.351 . S
C1051 C1052 1.434 . S
C1052 C1043 1.429 . S
C1052 N1049 1.350 . S
C1052 C1051 1.434 . S
C1053 C1054 1.369 . S
C1053 C1055 1.419 . S
C1053 H1057 0.930 . S
C1054 C1053 1.369 . S
C1054 C1063 1.429 . S
C1055 C1053 1.419 . S
C1055 C1056 1.363 . S
C1055 H1058 0.929 . S
C1056 C1055 1.363 . S
C1056 C1062 1.428 . S
H1057 C1053 0.930 . S
H1058 C1055 0.929 . S
S1059 N1060 1.613 . S
S1059 N1061 1.610 . S
N1060 S1059 1.613 . S
N1060 C1063 1.350 . S
N1061 S1059 1.610 . S
N1061 C1062 1.351 . S
C1062 C1056 1.428 . S
C1062 N1061 1.351 . S
C1062 C1063 1.434 . S
C1063 C1054 1.429 . S
C1063 N1060 1.350 . S
C1063 C1062 1.434 . S
C1064 C1065 1.369 . S
C1064 C1066 1.419 . S
C1064 H1068 0.930 . S
C1065 C1064 1.369 . S
C1065 C1074 1.429 . S
C1066 C1064 1.419 . S
C1066 C1067 1.363 . S
C1066 H1069 0.929 . S
C1067 C1066 1.363 . S
C1067 C1073 1.428 . S
H1068 C1064 0.930 . S
H1069 C1066 0.929 . S
S1070 N1071 1.613 . S
S1070 N1072 1.610 . S
N1071 S1070 1.613 . S
N1071 C1074 1.350 . S
N1072 S1070 1.610 . S
N1072 C1073 1.351 . S
C1073 C1067 1.428 . S
C1073 N1072 1.351 . S
C1073 C1074 1.434 . S
C1074 C1065 1.429 . S
C1074 N1071 1.350 . S
C1074 C1073 1.434 . S
C1075 C1076 1.369 . S
C1075 C1077 1.419 . S
C1075 H1079 0.930 . S
C1076 C1075 1.369 . S
C1076 C1085 1.429 . S
C1077 C1075 1.419 . S
C1077 C1078 1.363 . S
C1077 H1080 0.929 . S
C1078 C1077 1.363 . S
C1078 C1084 1.428 . S
H1079 C1075 0.930 . S
H1080 C1077 0.929 . S
S1081 N1082 1.613 . S
S1081 N1083 1.610 . S
N1082 S1081 1.613 . S
N1082 C1085 1.350 . S
N1083 S1081 1.610 . S
N1083 C1084 1.351 . S
C1084 C1078 1.428 . S
C1084 N1083 1.351 . S
C1084 C1085 1.434 . S
C1085 C1076 1.429 . S
C1085 N1082 1.350 . S
C1085 C1084 1.434 . S
C1086 C1087 1.369 . S
C1086 C1088 1.419 . S
C1086 H1090 0.930 . S
C1087 C1086 1.369 . S
C1087 C1096 1.429 . S
C1088 C1086 1.419 . S
C1088 C1089 1.363 . S
C1088 H1091 0.929 . S
C1089 C1088 1.363 . S
C1089 C1095 1.428 . S
H1090 C1086 0.930 . S
H1091 C1088 0.929 . S
S1092 N1093 1.613 . S
S1092 N1094 1.610 . S
N1093 S1092 1.613 . S
N1093 C1096 1.350 . S
N1094 S1092 1.610 . S
N1094 C1095 1.351 . S
C1095 C1089 1.428 . S
C1095 N1094 1.351 . S
C1095 C1096 1.434 . S
C1096 C1087 1.429 . S
C1096 N1093 1.350 . S
C1096 C1095 1.434 . S
C1097 C1098 1.369 . S
C1097 C1099 1.419 . S
C1097 H1101 0.930 . S
C1098 C1097 1.369 . S
C1098 C1107 1.429 . S
C1099 C1097 1.419 . S
C1099 C1100 1.363 . S
C1099 H1102 0.929 . S
C1100 C1099 1.363 . S
C1100 C1106 1.428 . S
H1101 C1097 0.930 . S
H1102 C1099 0.929 . S
S1103 N1104 1.613 . S
S1103 N1105 1.610 . S
N1104 S1103 1.613 . S
N1104 C1107 1.350 . S
N1105 S1103 1.610 . S
N1105 C1106 1.351 . S
C1106 C1100 1.428 . S
C1106 N1105 1.351 . S
C1106 C1107 1.434 . S
C1107 C1098 1.429 . S
C1107 N1104 1.350 . S
C1107 C1106 1.434 . S
C1108 C1109 1.369 . S
C1108 C1110 1.419 . S
C1108 H1112 0.930 . S
C1109 C1108 1.369 . S
C1109 C1118 1.429 . S
C1110 C1108 1.419 . S
C1110 C1111 1.363 . S
C1110 H1113 0.929 . S
C1111 C1110 1.363 . S
C1111 C1117 1.428 . S
H1112 C1108 0.930 . S
H1113 C1110 0.929 . S
S1114 N1115 1.613 . S
S1114 N1116 1.610 . S
N1115 S1114 1.613 . S
N1115 C1118 1.350 . S
N1116 S1114 1.610 . S
N1116 C1117 1.351 . S
C1117 C1111 1.428 . S
C1117 N1116 1.351 . S
C1117 C1118 1.434 . S
C1118 C1109 1.429 . S
C1118 N1115 1.350 . S
C1118 C1117 1.434 . S
C1119 C1120 1.369 . S
C1119 C1121 1.419 . S
C1119 H1123 0.930 . S
C1120 C1119 1.369 . S
C1120 C1129 1.429 . S
C1121 C1119 1.419 . S
C1121 C1122 1.363 . S
C1121 H1124 0.929 . S
C1122 C1121 1.363 . S
C1122 C1128 1.428 . S
H1123 C1119 0.930 . S
H1124 C1121 0.929 . S
S1125 N1126 1.613 . S
S1125 N1127 1.610 . S
N1126 S1125 1.613 . S
N1126 C1129 1.350 . S
N1127 S1125 1.610 . S
N1127 C1128 1.351 . S
C1128 C1122 1.428 . S
C1128 N1127 1.351 . S
C1128 C1129 1.434 . S
C1129 C1120 1.429 . S
C1129 N1126 1.350 . S
C1129 C1128 1.434 . S
C1130 C1131 1.369 . S
C1130 C1132 1.419 . S
C1130 H1134 0.930 . S
C1131 C1130 1.369 . S
C1131 C1140 1.429 . S
C1132 C1130 1.419 . S
C1132 C1133 1.363 . S
C1132 H1135 0.929 . S
C1133 C1132 1.363 . S
C1133 C1139 1.428 . S
H1134 C1130 0.930 . S
H1135 C1132 0.929 . S
S1136 N1137 1.613 . S
S1136 N1138 1.610 . S
N1137 S1136 1.613 . S
N1137 C1140 1.350 . S
N1138 S1136 1.610 . S
N1138 C1139 1.351 . S
C1139 C1133 1.428 . S
C1139 N1138 1.351 . S
C1139 C1140 1.434 . S
C1140 C1131 1.429 . S
C1140 N1137 1.350 . S
C1140 C1139 1.434 . S
C1141 C1142 1.369 . S
C1141 C1143 1.419 . S
C1141 H1145 0.930 . S
C1142 C1141 1.369 . S
C1142 C1151 1.429 . S
C1143 C1141 1.419 . S
C1143 C1144 1.363 . S
C1143 H1146 0.929 . S
C1144 C1143 1.363 . S
C1144 C1150 1.428 . S
H1145 C1141 0.930 . S
H1146 C1143 0.929 . S
S1147 N1148 1.613 . S
S1147 N1149 1.610 . S
N1148 S1147 1.613 . S
N1148 C1151 1.350 . S
N1149 S1147 1.610 . S
N1149 C1150 1.351 . S
C1150 C1144 1.428 . S
C1150 N1149 1.351 . S
C1150 C1151 1.434 . S
C1151 C1142 1.429 . S
C1151 N1148 1.350 . S
C1151 C1150 1.434 . S
C449 C411 1.546 . S
C451 C5 1.546 . S
C460 C19 1.546 . S
C462 C425 1.546 . S
C471 C439 1.547 . S
C473 C33 1.547 . S
C482 C397 1.546 . S
C484 C47 1.546 . S
C493 C61 1.546 . S
C495 C383 1.546 . S
C504 C341 1.547 . S
C506 C75 1.547 . S
C515 C89 1.546 . S
C517 C355 1.546 . S
C526 C369 1.546 . S
C528 C103 1.547 . S
C537 C117 1.546 . S
C539 C299 1.546 . S
C548 C131 1.546 . S
C550 C313 1.546 . S
C559 C327 1.546 . S
C561 C145 1.546 . S
C570 C159 1.546 . S
C572 C285 1.546 . S
C581 C271 1.546 . S
C583 C173 1.546 . S
C592 C229 1.546 . S
C594 C187 1.546 . S
C603 C201 1.547 . S
C605 C243 1.547 . S
C614 C215 1.546 . S
C616 C257 1.546 . S
C625 C0 1.425 . S
C627 C140 1.426 . S
C636 C154 1.429 . S
C638 C14 1.428 . S
C647 C112 1.427 . S
C649 C28 1.428 . S
C658 C126 1.429 . S
C660 C42 1.429 . S
C669 C56 1.426 . S
C671 C196 1.426 . S
C680 C210 1.430 . S
C682 C70 1.429 . S
C691 C168 1.432 . S
C693 C84 1.431 . S
C702 C182 1.425 . S
C704 C98 1.426 . S
C713 C224 1.427 . S
C715 C364 1.427 . S
C724 C378 1.425 . S
C726 C238 1.426 . S
C735 C336 1.431 . S
C737 C252 1.431 . S
C746 C266 1.428 . S
C748 C350 1.428 . S
C757 C280 1.425 . S
C759 C420 1.426 . S
C768 C434 1.426 . S
C770 C294 1.427 . S
C779 C392 1.432 . S
C781 C308 1.431 . S
C790 C322 1.430 . S
C792 C406 1.430 . S
C801 C11 1.501 . S
C803 C67 1.504 . S
C812 C25 1.504 . S
C814 C81 1.502 . S
C823 C95 1.504 . S
C825 C39 1.500 . S
C834 C53 1.499 . S
C836 C109 1.504 . S
C845 C123 1.505 . S
C847 C179 1.500 . S
C856 C193 1.500 . S
C858 C137 1.504 . S
C867 C207 1.505 . S
C869 C151 1.501 . S
C878 C165 1.501 . S
C880 C221 1.501 . S
C889 C235 1.499 . S
C891 C291 1.503 . S
C900 C305 1.499 . S
C902 C249 1.504 . S
C911 C263 1.504 . S
C913 C319 1.500 . S
C922 C333 1.500 . S
C924 C277 1.504 . S
C933 C403 1.499 . S
C935 C347 1.504 . S
C944 C361 1.505 . S
C946 C417 1.500 . S
C955 C375 1.499 . S
C957 C431 1.504 . S
C966 C389 1.505 . S
C968 C445 1.502 . S
C977 C9 1.432 . S
C979 C79 1.432 . S
C988 C23 1.431 . S
C990 C93 1.432 . S
C999 C107 1.431 . S
C1001 C37 1.432 . S
C1010 C65 1.431 . S
C1012 C51 1.432 . S
C1021 C191 1.432 . S
C1023 C121 1.432 . S
C1032 C205 1.431 . S
C1034 C135 1.432 . S
C1043 C219 1.432 . S
C1045 C149 1.432 . S
C1054 C163 1.433 . S
C1056 C177 1.433 . S
C1065 C233 1.433 . S
C1067 C303 1.433 . S
C1076 C317 1.432 . S
C1078 C247 1.432 . S
C1087 C331 1.433 . S
C1089 C261 1.433 . S
C1098 C275 1.431 . S
C1100 C289 1.432 . S
C1109 C415 1.433 . S
C1111 C345 1.433 . S
C1120 C359 1.432 . S
C1122 C429 1.432 . S
C1131 C373 1.432 . S
C1133 C443 1.432 . S
C1142 C401 1.432 . S
C1144 C387 1.432 . S
