# Generated by pormake.
# Topology wlb, (5)-cn, num edge types: 1
# Building blocks:
#     Node 0, Type 0, BuildingBlock: BEQFEK_clean_sbu_0, # of connection points: 5
#     Node 1, Type 0, BuildingBlock: BEQFEK_clean_sbu_0, # of connection points: 5
#     Node 2, Type 0, BuildingBlock: BEQFEK_clean_sbu_0, # of connection points: 5
#     Node 3, Type 0, BuildingBlock: BEQFEK_clean_sbu_0, # of connection points: 5
#     Node 4, Type 0, BuildingBlock: BEQFEK_clean_sbu_0, # of connection points: 5
#     Node 5, Type 0, BuildingBlock: BEQFEK_clean_sbu_0, # of connection points: 5
#     Node 6, Type 0, BuildingBlock: BEQFEK_clean_sbu_0, # of connection points: 5
#     Node 7, Type 0, BuildingBlock: BEQFEK_clean_sbu_0, # of connection points: 5
#     Node 8, Type 0, BuildingBlock: BEQFEK_clean_sbu_0, # of connection points: 5
#     Node 9, Type 0, BuildingBlock: BEQFEK_clean_sbu_0, # of connection points: 5
#     Node 10, Type 0, BuildingBlock: BEQFEK_clean_sbu_0, # of connection points: 5
#     Node 11, Type 0, BuildingBlock: BEQFEK_clean_sbu_0, # of connection points: 5
#     Node 12, Type 0, BuildingBlock: BEQFEK_clean_sbu_0, # of connection points: 5
#     Node 13, Type 0, BuildingBlock: BEQFEK_clean_sbu_0, # of connection points: 5
#     Node 14, Type 0, BuildingBlock: BEQFEK_clean_sbu_0, # of connection points: 5
#     Node 15, Type 0, BuildingBlock: BEQFEK_clean_sbu_0, # of connection points: 5
#     Node 16, Type 0, BuildingBlock: BEQFEK_clean_sbu_0, # of connection points: 5
#     Node 17, Type 0, BuildingBlock: BEQFEK_clean_sbu_0, # of connection points: 5
#     Edge 18, Type (0, 0), None
#     Edge 19, Type (0, 0), None
#     Edge 20, Type (0, 0), None
#     Edge 21, Type (0, 0), None
#     Edge 22, Type (0, 0), None
#     Edge 23, Type (0, 0), None
#     Edge 24, Type (0, 0), None
#     Edge 25, Type (0, 0), None
#     Edge 26, Type (0, 0), None
#     Edge 27, Type (0, 0), None
#     Edge 28, Type (0, 0), None
#     Edge 29, Type (0, 0), None
#     Edge 30, Type (0, 0), None
#     Edge 31, Type (0, 0), None
#     Edge 32, Type (0, 0), None
#     Edge 33, Type (0, 0), None
#     Edge 34, Type (0, 0), None
#     Edge 35, Type (0, 0), None
#     Edge 36, Type (0, 0), None
#     Edge 37, Type (0, 0), None
#     Edge 38, Type (0, 0), None
#     Edge 39, Type (0, 0), None
#     Edge 40, Type (0, 0), None
#     Edge 41, Type (0, 0), None
#     Edge 42, Type (0, 0), None
#     Edge 43, Type (0, 0), None
#     Edge 44, Type (0, 0), None
#     Edge 45, Type (0, 0), None
#     Edge 46, Type (0, 0), None
#     Edge 47, Type (0, 0), None
#     Edge 48, Type (0, 0), None
#     Edge 49, Type (0, 0), None
#     Edge 50, Type (0, 0), None
#     Edge 51, Type (0, 0), None
#     Edge 52, Type (0, 0), None
#     Edge 53, Type (0, 0), None
#     Edge 54, Type (0, 0), None
#     Edge 55, Type (0, 0), None
#     Edge 56, Type (0, 0), None
#     Edge 57, Type (0, 0), None
#     Edge 58, Type (0, 0), None
#     Edge 59, Type (0, 0), None
#     Edge 60, Type (0, 0), None
#     Edge 61, Type (0, 0), None
#     Edge 62, Type (0, 0), None
# Relax obj value: 0.523
# Max RMSD: 0.244
# Mean RMSD: 0.244
data_MOF--net-wlb--node1-BEQFEK_clean_sbu_0--edge1-none
_symmetry_space_group_name_H-M    P1
_symmetry_Int_Tables_number       1
_symmetry_cell_setting            triclinic
loop_
_symmetry_equiv_pos_as_xyz
'x, y, z'
_cell_length_a     29.066235
_cell_length_b     29.066592
_cell_length_c     13.801275
_cell_angle_alpha  89.987957
_cell_angle_beta   90.020475
_cell_angle_gamma 120.00259
loop_
_atom_site_label
_atom_site_type_symbol
_atom_site_fract_x
_atom_site_fract_y
_atom_site_fract_z
_atom_type_partial_charge
Co0 Co 0.05499 0.1367 0.31605 0.0
Co1 Co 0.96571 0.14841 0.33159 0.0
C2 C 0.99696 0.12066 0.13962 0.0
O3 O 0.04442 0.1381 0.1705 0.0
O4 O 0.96109 0.11542 0.19863 0.0
C5 C 0.092 0.07761 0.41866 0.0
O6 O 0.05611 0.07333 0.4812 0.0
C7 C 0.88217 0.15489 0.2543 0.0
C8 C 0.82431 0.12754 0.37451 0.0
C9 C 0.83013 0.13885 0.27629 0.0
N10 N 0.90612 0.15333 0.33506 0.0
N11 N 0.87128 0.13546 0.40668 0.0
C12 C 0.91064 0.17878 0.16056 0.0
H13 H 0.95375 0.1935 0.16633 0.0
H14 H 0.90573 0.21291 0.13973 0.0
H15 H 0.89318 0.14874 0.10191 0.0
C16 C 0.11161 0.25468 0.40337 0.0
N17 N 0.07049 0.20738 0.37119 0.0
N18 N 0.02979 0.21401 0.35609 0.0
C19 C 0.04415 0.26562 0.36848 0.0
C20 C 0.09682 0.29478 0.40365 0.0
C21 C 0.1626 0.2598 0.43808 0.0
H22 H 0.15668 0.22011 0.45745 0.0
H23 H 0.19255 0.27624 0.37934 0.0
H24 H 0.17731 0.28618 0.50234 0.0
O25 O 0.98601 0.06861 0.34884 0.0
O26 O 0.94664 0.09882 0.43933 0.0
H27 H 0.97773 0.27823 0.38147 0.0
H28 H 0.03459 0.33066 0.31645 0.0
C29 C 0.01065 0.2874 0.33036 0.0
H30 H 0.99221 0.26782 0.26106 0.0
H31 H 0.87909 0.12775 0.47677 0.0
O32 O 0.10522 0.1109 0.34894 0.0
C33 C 0.94919 0.05996 0.40759 0.0
Co34 Co 0.84487 0.90992 0.31604 0.0
Co35 Co 0.83314 0.80891 0.3316 0.0
C36 C 0.86091 0.86797 0.13963 0.0
O37 O 0.84347 0.89798 0.17048 0.0
O38 O 0.86615 0.83733 0.19866 0.0
C39 C 0.90398 0.00599 0.41868 0.0
O40 O 0.90829 0.97439 0.48123 0.0
C41 C 0.82663 0.71893 0.25419 0.0
C42 C 0.85405 0.68839 0.37429 0.0
C43 C 0.84269 0.68293 0.27609 0.0
N44 N 0.82822 0.74441 0.335 0.0
N45 N 0.84614 0.72742 0.40655 0.0
C46 C 0.80269 0.72354 0.16051 0.0
H47 H 0.78799 0.75195 0.16634 0.0
H48 H 0.76854 0.68451 0.13971 0.0
H49 H 0.83269 0.73613 0.10181 0.0
C50 C 0.7269 0.84855 0.40334 0.0
N51 N 0.77418 0.85472 0.37117 0.0
N52 N 0.76755 0.8074 0.35609 0.0
C53 C 0.71593 0.77014 0.3685 0.0
C54 C 0.68679 0.79366 0.40365 0.0
C55 C 0.72179 0.89442 0.43803 0.0
H56 H 0.76148 0.92818 0.45741 0.0
H57 H 0.70536 0.90795 0.37928 0.0
H58 H 0.69542 0.88275 0.50228 0.0
O59 O 0.91295 0.90901 0.34887 0.0
O60 O 0.88275 0.8394 0.43934 0.0
H61 H 0.70331 0.69112 0.3816 0.0
H62 H 0.65088 0.69554 0.31652 0.0
C63 C 0.69414 0.71486 0.33044 0.0
H64 H 0.71371 0.71599 0.26116 0.0
H65 H 0.85388 0.74291 0.47665 0.0
O66 O 0.8707 0.98595 0.34893 0.0
C67 C 0.92161 0.88083 0.40762 0.0
Co68 Co 0.07163 0.92659 0.31603 0.0
Co69 Co 0.17265 0.01588 0.33155 0.0
C70 C 0.11357 0.9846 0.1396 0.0
O71 O 0.08356 0.93714 0.17047 0.0
O72 O 0.1442 0.02048 0.19863 0.0
C73 C 0.97558 0.88958 0.4187 0.0
O74 O 0.00719 0.92548 0.48124 0.0
C75 C 0.26261 0.09936 0.25407 0.0
C76 C 0.29318 0.15733 0.37411 0.0
C77 C 0.29862 0.15142 0.27592 0.0
N78 N 0.23715 0.07548 0.3349 0.0
N79 N 0.25416 0.11039 0.40641 0.0
C80 C 0.25798 0.0708 0.16041 0.0
H81 H 0.22956 0.02769 0.16628 0.0
H82 H 0.297 0.07566 0.13963 0.0
H83 H 0.24539 0.08822 0.10169 0.0
C84 C 0.13301 0.86999 0.40333 0.0
N85 N 0.12684 0.91111 0.37115 0.0
N86 N 0.17416 0.95181 0.35606 0.0
C87 C 0.21142 0.93744 0.36847 0.0
C88 C 0.1879 0.88477 0.40362 0.0
C89 C 0.08715 0.81901 0.43803 0.0
H90 H 0.0534 0.82493 0.45743 0.0
H91 H 0.0736 0.78905 0.37928 0.0
H92 H 0.09884 0.80429 0.50227 0.0
O93 O 0.07254 0.99557 0.34886 0.0
O94 O 0.14219 0.03499 0.4393 0.0
H95 H 0.29045 0.00385 0.38155 0.0
H96 H 0.28601 0.947 0.31649 0.0
C97 C 0.2667 0.97095 0.3304 0.0
H98 H 0.26555 0.98939 0.26111 0.0
H99 H 0.23868 0.10265 0.47652 0.0
O100 O 0.99561 0.87636 0.34893 0.0
C101 C 0.10075 0.03241 0.40758 0.0
Co102 Co 0.13612 0.05546 0.85735 0.0
Co103 Co 0.14774 0.9661 0.84194 0.0
C104 C 0.12002 0.99747 1.03381 0.0
O105 O 0.13752 0.04494 1.00293 0.0
O106 O 0.11473 0.96158 0.97482 0.0
C107 C 0.07706 0.09252 0.75475 0.0
O108 O 0.07267 0.05657 0.69226 0.0
C109 C 0.15421 0.88267 0.91972 0.0
C110 C 0.12668 0.82457 0.79989 0.0
C111 C 0.13813 0.83058 0.89806 0.0
N112 N 0.15258 0.90647 0.83881 0.0
N113 N 0.13458 0.87147 0.76743 0.0
C114 C 0.17823 0.91132 1.01329 0.0
H115 H 0.19293 0.95443 1.00727 0.0
H116 H 0.21239 0.90647 1.03409 0.0
H117 H 0.14827 0.89397 1.07206 0.0
C118 C 0.2541 0.11198 0.77013 0.0
N119 N 0.20679 0.07088 0.80228 0.0
N120 N 0.21338 0.03015 0.81736 0.0
C121 C 0.26499 0.04448 0.80494 0.0
C122 C 0.29418 0.09716 0.76983 0.0
C123 C 0.25925 0.16298 0.73543 0.0
H124 H 0.21958 0.15706 0.71593 0.0
H125 H 0.27564 0.19291 0.79421 0.0
H126 H 0.28568 0.17771 0.67125 0.0
O127 O 0.06801 0.9865 0.8245 0.0
O128 O 0.09813 0.94696 0.7342 0.0
H129 H 0.27759 0.97808 0.79164 0.0
H130 H 0.32999 0.03485 0.85694 0.0
C131 C 0.28673 0.01092 0.84292 0.0
H132 H 0.2671 0.99239 0.91211 0.0
H133 H 0.1268 0.87915 0.6973 0.0
O134 O 0.11039 0.10574 0.82442 0.0
C135 C 0.0593 0.94962 0.76584 0.0
Co136 Co 0.92609 0.07234 0.85736 0.0
Co137 Co 0.01545 0.17332 0.84194 0.0
C138 C 0.98408 0.11422 1.03383 0.0
O139 O 0.93661 0.08425 1.00294 0.0
O140 O 0.01997 0.14482 0.97483 0.0
C141 C 0.889 0.97622 0.75476 0.0
O142 O 0.92494 0.0078 0.69227 0.0
C143 C 0.09889 0.26321 0.91975 0.0
C144 C 0.15699 0.29382 0.79995 0.0
C145 C 0.15098 0.29922 0.89812 0.0
N146 N 0.07509 0.2378 0.83883 0.0
N147 N 0.11008 0.25482 0.76746 0.0
C148 C 0.07023 0.25856 1.0133 0.0
H149 H 0.02713 0.23015 1.00725 0.0
H150 H 0.0751 0.29757 1.0341 0.0
H151 H 0.08758 0.24593 1.07209 0.0
C152 C 0.86957 0.1338 0.77011 0.0
N153 N 0.91067 0.12759 0.80226 0.0
N154 N 0.95141 0.17491 0.81732 0.0
C155 C 0.93708 0.21219 0.80488 0.0
C156 C 0.88439 0.1887 0.76979 0.0
C157 C 0.81856 0.08796 0.73544 0.0
H158 H 0.82446 0.0542 0.71593 0.0
H159 H 0.78864 0.07439 0.79424 0.0
H160 H 0.8038 0.09965 0.67127 0.0
O161 O 0.99503 0.07318 0.82451 0.0
O162 O 0.03459 0.14287 0.73422 0.0
H163 H 0.00348 0.29119 0.79149 0.0
H164 H 0.94674 0.28683 0.85682 0.0
C165 C 0.97066 0.2675 0.8428 0.0
H166 H 0.98921 0.2664 0.91199 0.0
H167 H 0.10241 0.23938 0.69732 0.0
O168 O 0.8758 0.99632 0.82444 0.0
C169 C 0.03192 0.10138 0.76587 0.0
Co170 Co 0.90921 0.84543 0.85741 0.0
Co171 Co 0.80822 0.83379 0.84195 0.0
C172 C 0.86734 0.86153 1.03385 0.0
O173 O 0.89732 0.84405 1.00299 0.0
O174 O 0.83673 0.86681 0.97484 0.0
C175 C 0.0053 0.90446 0.75475 0.0
O176 O 0.97372 0.90885 0.69224 0.0
C177 C 0.71833 0.8273 0.91976 0.0
C178 C 0.6877 0.85481 0.79996 0.0
C179 C 0.68232 0.84338 0.89813 0.0
N180 N 0.74373 0.82892 0.83883 0.0
N181 N 0.7267 0.84691 0.76747 0.0
C182 C 0.723 0.80328 1.0133 0.0
H183 H 0.75141 0.78859 1.00727 0.0
H184 H 0.68399 0.76911 1.0341 0.0
H185 H 0.73562 0.83323 1.0721 0.0
C186 C 0.84775 0.72745 0.77018 0.0
N187 N 0.85395 0.77476 0.80232 0.0
N188 N 0.80664 0.76816 0.81737 0.0
C189 C 0.76936 0.71655 0.80494 0.0
C190 C 0.79286 0.68737 0.76986 0.0
C191 C 0.8936 0.72231 0.73551 0.0
H192 H 0.92735 0.76198 0.71602 0.0
H193 H 0.90717 0.70594 0.79432 0.0
H194 H 0.8819 0.69587 0.67134 0.0
O195 O 0.90836 0.91353 0.82452 0.0
O196 O 0.83864 0.88339 0.73423 0.0
H197 H 0.69035 0.70392 0.79156 0.0
H198 H 0.69474 0.65154 0.85689 0.0
C199 C 0.71406 0.6948 0.84286 0.0
H200 H 0.71516 0.71443 0.91205 0.0
H201 H 0.74213 0.8547 0.69733 0.0
O202 O 0.98523 0.87118 0.82448 0.0
C203 C 0.88014 0.92222 0.76588 0.0
Co204 Co 0.72156 0.47014 0.64965 0.0
Co205 Co 0.63222 0.48173 0.66543 0.0
C206 C 0.66358 0.45419 0.47328 0.0
O207 O 0.71105 0.47166 0.5041 0.0
O208 O 0.6277 0.44886 0.53237 0.0
C209 C 0.75857 0.41099 0.75214 0.0
O210 O 0.72265 0.40663 0.81466 0.0
C211 C 0.54866 0.48809 0.58798 0.0
C212 C 0.49073 0.46069 0.70806 0.0
C213 C 0.49659 0.47199 0.60984 0.0
N214 N 0.57258 0.48657 0.66881 0.0
N215 N 0.5377 0.46865 0.74035 0.0
C216 C 0.57719 0.51206 0.4943 0.0
H217 H 0.62033 0.52694 0.50025 0.0
H218 H 0.57215 0.54608 0.47334 0.0
H219 H 0.55989 0.482 0.43566 0.0
C220 C 0.7781 0.58809 0.73712 0.0
N221 N 0.73699 0.54078 0.70497 0.0
N222 N 0.69624 0.54734 0.69011 0.0
C223 C 0.71053 0.59893 0.70268 0.0
C224 C 0.76324 0.62813 0.73766 0.0
C225 C 0.82915 0.59327 0.7716 0.0
H226 H 0.82328 0.55361 0.79103 0.0
H227 H 0.85902 0.60966 0.71272 0.0
H228 H 0.84395 0.61971 0.83578 0.0
O229 O 0.65258 0.40199 0.68229 0.0
O230 O 0.61312 0.43203 0.77299 0.0
H231 H 0.64413 0.61149 0.7165 0.0
H232 H 0.70076 0.66388 0.65094 0.0
C233 C 0.67688 0.62063 0.66501 0.0
H234 H 0.65821 0.60096 0.5959 0.0
H235 H 0.54548 0.46095 0.81047 0.0
O236 O 0.7718 0.44433 0.68249 0.0
C237 C 0.61572 0.39323 0.74104 0.0
Co238 Co 0.51141 0.24306 0.64958 0.0
Co239 Co 0.4998 0.14212 0.66549 0.0
C240 C 0.52733 0.201 0.47328 0.0
O241 O 0.50988 0.23102 0.50403 0.0
O242 O 0.53266 0.17047 0.53243 0.0
C243 C 0.57057 0.33921 0.75209 0.0
O244 O 0.57494 0.30765 0.81466 0.0
C245 C 0.49342 0.05221 0.58815 0.0
C246 C 0.52083 0.02168 0.70828 0.0
C247 C 0.50954 0.01625 0.61005 0.0
N248 N 0.49493 0.07764 0.66896 0.0
N249 N 0.51285 0.06067 0.74053 0.0
C250 C 0.46945 0.05677 0.49445 0.0
H251 H 0.45456 0.08502 0.50036 0.0
H252 H 0.43543 0.0177 0.47348 0.0
H253 H 0.49951 0.06954 0.43582 0.0
C254 C 0.39347 0.18168 0.73705 0.0
N255 N 0.44077 0.18787 0.70493 0.0
N256 N 0.43419 0.14055 0.69012 0.0
C257 C 0.3826 0.10325 0.7027 0.0
C258 C 0.35341 0.12677 0.73764 0.0
C259 C 0.3883 0.22755 0.77148 0.0
H260 H 0.42797 0.26134 0.79089 0.0
H261 H 0.3719 0.24103 0.71258 0.0
H262 H 0.36188 0.21592 0.83567 0.0
O263 O 0.57956 0.24222 0.68228 0.0
O264 O 0.54951 0.17272 0.77306 0.0
H265 H 0.37003 0.02428 0.7166 0.0
H266 H 0.31763 0.02852 0.65101 0.0
C267 C 0.36089 0.0479 0.66508 0.0
H268 H 0.38054 0.04889 0.59598 0.0
H269 H 0.52055 0.07615 0.81065 0.0
O270 O 0.53727 0.31913 0.68237 0.0
C271 C 0.58831 0.21412 0.74107 0.0
Co272 Co 0.73846 0.26001 0.64962 0.0
Co273 Co 0.83942 0.34936 0.66538 0.0
C274 C 0.78047 0.31799 0.47325 0.0
O275 O 0.75046 0.27052 0.50406 0.0
O276 O 0.81101 0.35387 0.53236 0.0
C277 C 0.64233 0.22299 0.75215 0.0
O278 O 0.67389 0.25891 0.81471 0.0
C279 C 0.9293 0.43285 0.58781 0.0
C280 C 0.95988 0.49087 0.70779 0.0
C281 C 0.96528 0.48494 0.60958 0.0
N282 N 0.9039 0.40898 0.66869 0.0
N283 N 0.92091 0.44392 0.74016 0.0
C284 C 0.9247 0.40427 0.49419 0.0
H285 H 0.89641 0.36113 0.50018 0.0
H286 H 0.96375 0.40927 0.47328 0.0
H287 H 0.91195 0.42155 0.43549 0.0
C288 C 0.79987 0.20347 0.73707 0.0
N289 N 0.79367 0.24458 0.70493 0.0
N290 N 0.841 0.28533 0.69005 0.0
C291 C 0.87829 0.27102 0.70261 0.0
C292 C 0.85478 0.21832 0.73759 0.0
C293 C 0.75401 0.15243 0.77157 0.0
H294 H 0.72023 0.15832 0.79101 0.0
H295 H 0.74049 0.12255 0.71269 0.0
H296 H 0.76567 0.13764 0.83574 0.0
O297 O 0.73931 0.32899 0.68234 0.0
O298 O 0.80889 0.36849 0.77296 0.0
H299 H 0.95727 0.33742 0.7164 0.0
H300 H 0.95299 0.28077 0.65087 0.0
C301 C 0.93363 0.30466 0.66492 0.0
H302 H 0.93261 0.3233 0.5958 0.0
H303 H 0.90546 0.43618 0.81029 0.0
O304 O 0.66241 0.20979 0.68243 0.0
C305 C 0.76745 0.36586 0.74106 0.0
Co306 Co 0.80278 0.38902 0.19129 0.0
Co307 Co 0.8146 0.29988 0.17513 0.0
C308 C 0.78695 0.33093 0.36749 0.0
O309 O 0.8043 0.3784 0.33676 0.0
O310 O 0.78175 0.29511 0.30836 0.0
C311 C 0.74353 0.42583 0.08878 0.0
O312 O 0.73944 0.39008 1.02609 0.0
C313 C 0.82111 0.21611 0.25124 0.0
C314 C 0.79405 0.15872 0.13015 0.0
C315 C 0.8052 0.16421 0.2284 0.0
N316 N 0.8196 0.24034 0.17083 0.0
N317 N 0.80193 0.2058 0.0987 0.0
C318 C 0.84481 0.24422 0.34536 0.0
H319 H 0.85963 0.28738 0.34009 0.0
H320 H 0.87882 0.23916 0.36628 0.0
H321 H 0.81461 0.22663 0.4037 0.0
C322 C 0.92074 0.4458 0.1037 0.0
N323 N 0.87347 0.40466 0.13589 0.0
N324 N 0.88013 0.36396 0.15077 0.0
C325 C 0.93173 0.37834 0.13829 0.0
C326 C 0.96085 0.43102 0.10321 0.0
C327 C 0.92584 0.49681 1.06921 0.0
H328 H 0.88613 0.49091 1.05005 0.0
H329 H 0.94237 0.52674 0.12799 0.0
H330 H 0.95213 0.51154 1.00486 0.0
O331 O 0.73469 0.31997 0.15879 0.0
O332 O 0.76494 0.28096 1.06749 0.0
H333 H 0.9443 0.3119 0.12524 0.0
H334 H 0.99682 0.36878 0.19011 0.0
C335 C 0.95354 0.34484 0.17632 0.0
H336 H 0.93402 0.32646 0.24568 0.0
H337 H 0.79434 0.21389 1.02873 0.0
O338 O 0.77678 0.4391 0.15858 0.0
C339 C 0.72605 0.28327 0.09974 0.0
Co340 Co 0.59249 0.40538 0.19135 0.0
Co341 Co 0.68162 0.50637 0.1751 0.0
C342 C 0.65062 0.44769 0.36752 0.0
O343 O 0.60314 0.41755 0.33681 0.0
O344 O 0.68642 0.4783 0.30836 0.0
C345 C 0.55566 0.30933 0.08885 0.0
O346 O 0.59136 0.34101 1.02612 0.0
C347 C 0.7654 0.59665 0.2511 0.0
C348 C 0.82272 0.62701 0.12992 0.0
C349 C 0.81729 0.63266 0.22818 0.0
N350 N 0.74113 0.57092 0.17072 0.0
N351 N 0.77563 0.58781 0.09853 0.0
C352 C 0.73734 0.59224 0.34525 0.0
H353 H 0.69418 0.56391 0.34003 0.0
H354 H 0.74243 0.63132 0.36617 0.0
H355 H 0.75496 0.57962 0.40357 0.0
C356 C 0.53567 0.46653 0.10373 0.0
N357 N 0.57683 0.46041 0.13589 0.0
N358 N 0.61752 0.50777 0.15074 0.0
C359 C 0.60314 0.54499 0.13825 0.0
C360 C 0.55045 0.52142 0.1032 0.0
C361 C 0.48464 0.42062 1.0693 0.0
H362 H 0.49052 0.3868 1.05018 0.0
H363 H 0.45473 0.40722 0.1281 0.0
H364 H 0.46989 0.43217 1.00494 0.0
O365 O 0.66152 0.40635 0.15882 0.0
O366 O 0.70053 0.47563 1.06749 0.0
H367 H 0.66958 0.624 0.12518 0.0
H368 H 0.61271 0.61964 0.19001 0.0
C369 C 0.63664 0.6003 0.17626 0.0
H370 H 0.65503 0.59917 0.24564 0.0
H371 H 0.76751 0.57213 1.02857 0.0
O372 O 0.54242 0.32929 0.15869 0.0
C373 C 0.69821 0.43442 0.09976 0.0
Co374 Co 0.57613 0.17872 0.19142 0.0
Co375 Co 0.47515 0.16687 0.17505 0.0
C376 C 0.53382 0.19452 0.36754 0.0
O377 O 0.56397 0.1772 0.33688 0.0
O378 O 0.50321 0.19971 0.30833 0.0
C379 C 0.67214 0.23793 0.08883 0.0
O380 O 0.64045 0.24198 1.02612 0.0
C381 C 0.38488 0.16038 0.25096 0.0
C382 C 0.35453 0.18736 0.12974 0.0
C383 C 0.34889 0.17628 0.22802 0.0
N384 N 0.4106 0.16183 0.1706 0.0
N385 N 0.39372 0.17946 0.09839 0.0
C386 C 0.38929 0.13671 0.34514 0.0
H387 H 0.41759 0.12185 0.33993 0.0
H388 H 0.35019 0.10273 0.36607 0.0
H389 H 0.40193 0.16695 0.40343 0.0
C390 C 0.51497 0.06075 0.10382 0.0
N391 N 0.52109 0.10802 0.13596 0.0
N392 N 0.47373 0.10136 0.15073 0.0
C393 C 0.4365 0.04976 0.13821 0.0
C394 C 0.46007 0.02064 0.10323 0.0
C395 C 0.56089 0.05564 1.06948 0.0
H396 H 0.59472 0.09535 1.05038 0.0
H397 H 0.57427 0.03911 0.12832 0.0
H398 H 0.54935 0.02934 1.00512 0.0
O399 O 0.57515 0.24679 0.1589 0.0
O400 O 0.5059 0.21653 1.06744 0.0
H401 H 0.3575 0.0372 0.12493 0.0
H402 H 0.36183 0.98468 0.18989 0.0
C403 C 0.38118 0.02796 0.1761 0.0
H404 H 0.38229 0.04748 0.24544 0.0
H405 H 0.4094 0.18702 1.02844 0.0
O406 O 0.6522 0.20475 0.15873 0.0
C407 C 0.5471 0.25542 0.0998 0.0
Co408 Co 0.38846 0.80342 0.98239 0.0
Co409 Co 0.29934 0.81525 0.99878 0.0
C410 C 0.33037 0.78772 0.80624 0.0
O411 O 0.37784 0.80504 0.83693 0.0
O412 O 0.29457 0.78249 0.86544 0.0
C413 C 0.42524 0.74411 1.08481 0.0
O414 O 0.38952 0.74005 0.14753 0.0
C415 C 0.21549 0.82169 0.92297 0.0
C416 C 0.15826 0.79477 1.0443 0.0
C417 C 0.16361 0.80579 0.94601 0.0
N418 N 0.23983 0.82028 1.0033 0.0
N419 N 0.20538 0.8027 1.07558 0.0
C420 C 0.24348 0.84533 0.82874 0.0
H421 H 0.28666 0.86027 0.83392 0.0
H422 H 0.23828 0.87925 0.80771 0.0
H423 H 0.22589 0.81504 0.77052 0.0
C424 C 0.44528 0.92135 1.07019 0.0
N425 N 0.40412 0.87408 1.03799 0.0
N426 N 0.36342 0.88073 1.02322 0.0
C427 C 0.37778 0.93233 1.03579 0.0
C428 C 0.43048 0.96145 1.07083 0.0
C429 C 0.49631 0.92646 0.10457 0.0
H430 H 0.49043 0.88676 0.12367 0.0
H431 H 0.52621 0.94299 1.04576 0.0
H432 H 0.51107 0.95275 0.16894 0.0
O433 O 0.3194 0.73531 1.01475 0.0
O434 O 0.28043 0.76551 0.10628 0.0
H435 H 0.31134 0.94488 1.04905 0.0
H436 H 0.36817 0.9974 0.98409 0.0
C437 C 0.34425 0.95412 0.99788 0.0
H438 H 0.32581 0.93459 0.92855 0.0
H439 H 0.21357 0.79518 0.14553 0.0
O440 O 0.4385 0.77735 1.01501 0.0
C441 C 0.28272 0.72663 1.07385 0.0
Co442 Co 0.17807 0.57664 0.9823 0.0
Co443 Co 0.16625 0.4757 0.99885 0.0
C444 C 0.19376 0.53425 0.80622 0.0
O445 O 0.17644 0.56441 0.83685 0.0
O446 O 0.19899 0.50369 0.86548 0.0
C447 C 0.23739 0.67271 1.08478 0.0
O448 O 0.24148 0.64105 0.1475 0.0
C449 C 0.15982 0.38544 0.92305 0.0
C450 C 0.1868 0.35514 1.04435 0.0
C451 C 0.17576 0.34949 0.94606 0.0
N452 N 0.16123 0.41117 1.00339 0.0
N453 N 0.17886 0.39431 1.07565 0.0
C454 C 0.13615 0.3898 0.82884 0.0
H455 H 0.12117 0.41801 0.83404 0.0
H456 H 0.10224 0.35067 0.80781 0.0
H457 H 0.16642 0.40254 0.7706 0.0
C458 C 0.06013 0.51551 1.07008 0.0
N459 N 0.1074 0.52163 1.03791 0.0
N460 N 0.10075 0.47427 1.02325 0.0
C461 C 0.04916 0.43703 1.03587 0.0
C462 C 0.02004 0.46061 1.07081 0.0
C463 C 0.05502 0.56144 0.10435 0.0
H464 H 0.09472 0.59528 0.12343 0.0
H465 H 0.03848 0.57479 1.04548 0.0
H466 H 0.02873 0.54993 0.1687 0.0
O467 O 0.24618 0.57567 1.01468 0.0
O468 O 0.21599 0.50654 0.10636 0.0
H469 H 0.03662 0.35805 1.04943 0.0
H470 H 0.9841 0.3623 0.98431 0.0
C471 C 0.02738 0.38168 0.99814 0.0
H472 H 0.04691 0.38272 0.92886 0.0
H473 H 0.18639 0.41 0.1456 0.0
O474 O 0.20416 0.65275 1.01493 0.0
C475 C 0.25487 0.54769 1.07384 0.0
Co476 Co 0.40484 0.59305 0.9823 0.0
Co477 Co 0.50581 0.68217 0.99883 0.0
C478 C 0.44726 0.65118 0.80622 0.0
O479 O 0.41709 0.60369 0.83685 0.0
O480 O 0.47782 0.68696 0.86547 0.0
C481 C 0.30878 0.55627 1.08475 0.0
O482 O 0.34046 0.59197 0.14752 0.0
C483 C 0.59609 0.766 0.92305 0.0
C484 C 0.62642 0.82325 1.04437 0.0
C485 C 0.63206 0.81789 0.94608 0.0
N486 N 0.57037 0.74167 1.00339 0.0
N487 N 0.58724 0.77613 1.07566 0.0
C488 C 0.59172 0.738 0.82883 0.0
H489 H 0.56348 0.69482 0.83401 0.0
H490 H 0.63083 0.7432 0.80783 0.0
H491 H 0.579 0.75557 0.7706 0.0
C492 C 0.46596 0.53622 1.0701 0.0
N493 N 0.45985 0.57738 1.03793 0.0
N494 N 0.50721 0.61809 1.02323 0.0
C495 C 0.54444 0.60372 1.03582 0.0
C496 C 0.52086 0.55102 1.0708 0.0
C497 C 0.42003 0.48518 0.10439 0.0
H498 H 0.3862 0.49104 0.12346 0.0
H499 H 0.40666 0.45529 1.04554 0.0
H500 H 0.43155 0.4704 0.16876 0.0
O501 O 0.40582 0.66211 1.01473 0.0
O502 O 0.47501 0.70107 0.10633 0.0
H503 H 0.62343 0.67016 1.04922 0.0
H504 H 0.61914 0.61336 0.98423 0.0
C505 C 0.59977 0.63727 0.998 0.0
H506 H 0.5987 0.65572 0.92868 0.0
H507 H 0.57156 0.76795 0.14561 0.0
O508 O 0.32873 0.54303 1.01488 0.0
C509 C 0.43384 0.69879 1.07385 0.0
Co510 Co 0.46958 0.72224 0.52431 0.0
Co511 Co 0.48125 0.633 0.50801 0.0
C512 C 0.4538 0.66419 0.70048 0.0
O513 O 0.47119 0.71167 0.6698 0.0
O514 O 0.4485 0.62836 0.64128 0.0
C515 C 0.41032 0.75913 0.4219 0.0
O516 O 0.40611 0.72331 0.35925 0.0
C517 C 0.48764 0.54926 0.58444 0.0
C518 C 0.46047 0.49172 0.46359 0.0
C519 C 0.47166 0.49732 0.56183 0.0
N520 N 0.48615 0.57341 0.50392 0.0
N521 N 0.4684 0.53878 0.43193 0.0
C522 C 0.51144 0.57748 0.67844 0.0
H523 H 0.5264 0.62065 0.67293 0.0
H524 H 0.54538 0.57231 0.69947 0.0
H525 H 0.48125 0.56005 0.73683 0.0
C526 C 0.58752 0.77891 0.43664 0.0
N527 N 0.54023 0.73778 0.46878 0.0
N528 N 0.54681 0.69703 0.48346 0.0
C529 C 0.59839 0.71133 0.47082 0.0
C530 C 0.62757 0.76405 0.43593 0.0
C531 C 0.59269 0.82998 0.40235 0.0
H532 H 0.55301 0.82413 0.3831 0.0
H533 H 0.60915 0.85983 0.46127 0.0
H534 H 0.61906 0.84479 0.3381 0.0
O535 O 0.40143 0.65322 0.49187 0.0
O536 O 0.43149 0.61403 0.40052 0.0
H537 H 0.61091 0.6449 0.45695 0.0
H538 H 0.66338 0.70155 0.52239 0.0
C539 C 0.62011 0.67768 0.50842 0.0
H540 H 0.6005 0.65906 0.57758 0.0
H541 H 0.46078 0.54679 0.36193 0.0
O542 O 0.44362 0.77237 0.49163 0.0
C543 C 0.39266 0.61646 0.43288 0.0
Co544 Co 0.25933 0.73898 0.52428 0.0
Co545 Co 0.34858 0.83991 0.50804 0.0
C546 C 0.31737 0.78124 0.70049 0.0
O547 O 0.26989 0.75114 0.66977 0.0
O548 O 0.35321 0.81176 0.64131 0.0
C549 C 0.22242 0.64285 0.42188 0.0
O550 O 0.25822 0.67446 0.35922 0.0
C551 C 0.43229 0.93003 0.58458 0.0
C552 C 0.48987 0.96045 0.4638 0.0
C553 C 0.48424 0.96601 0.56203 0.0
N554 N 0.40816 0.90441 0.50402 0.0
N555 N 0.44282 0.92133 0.43208 0.0
C556 C 0.40405 0.92557 0.67854 0.0
H557 H 0.36088 0.89734 0.67299 0.0
H558 H 0.4092 0.96467 0.69954 0.0
H559 H 0.42148 0.91282 0.73697 0.0
C560 C 0.20266 0.80026 0.4366 0.0
N561 N 0.24379 0.79409 0.46874 0.0
N562 N 0.28454 0.84143 0.48344 0.0
C563 C 0.27024 0.87871 0.47081 0.0
C564 C 0.21752 0.85517 0.4359 0.0
C565 C 0.15159 0.75436 0.40229 0.0
H566 H 0.15744 0.72054 0.38302 0.0
H567 H 0.12174 0.74095 0.46121 0.0
H568 H 0.13676 0.76593 0.33805 0.0
O569 O 0.32834 0.73986 0.49183 0.0
O570 O 0.36756 0.80916 0.40056 0.0
H571 H 0.33666 0.95767 0.45696 0.0
H572 H 0.28001 0.95346 0.52238 0.0
C573 C 0.30388 0.93407 0.50842 0.0
H574 H 0.32251 0.93307 0.57759 0.0
H575 H 0.43482 0.90572 0.36207 0.0
O576 O 0.20919 0.66289 0.49162 0.0
C577 C 0.36511 0.76789 0.43288 0.0
Co578 Co 0.24257 0.512 0.52437 0.0
Co579 Co 0.14164 0.50029 0.50795 0.0
C580 C 0.20026 0.52775 0.70049 0.0
O581 O 0.23038 0.51039 0.66985 0.0
O582 O 0.16973 0.53304 0.64125 0.0
C583 C 0.33869 0.57123 0.42193 0.0
O584 O 0.30707 0.57542 0.35924 0.0
C585 C 0.05149 0.49387 0.58425 0.0
C586 C 0.02108 0.52097 0.46331 0.0
C587 C 0.01551 0.50983 0.56157 0.0
N588 N 0.07712 0.49533 0.50376 0.0
N589 N 0.06021 0.51303 0.43172 0.0
C590 C 0.05592 0.4701 0.67829 0.0
H591 H 0.08414 0.45514 0.67284 0.0
H592 H 0.01682 0.43617 0.69931 0.0
H593 H 0.06869 0.50031 0.73665 0.0
C594 C 0.18133 0.39406 0.43668 0.0
N595 N 0.18748 0.44135 0.46879 0.0
N596 N 0.14014 0.43475 0.48342 0.0
C597 C 0.10287 0.38316 0.47079 0.0
C598 C 0.12642 0.35399 0.43593 0.0
C599 C 0.22724 0.3889 0.40244 0.0
H600 H 0.26106 0.42858 0.38322 0.0
H601 H 0.24063 0.37245 0.46138 0.0
H602 H 0.21569 0.36253 0.33818 0.0
O603 O 0.24169 0.58013 0.49188 0.0
O604 O 0.17241 0.55005 0.4005 0.0
H605 H 0.0239 0.37061 0.45688 0.0
H606 H 0.02811 0.31816 0.52233 0.0
C607 C 0.0475 0.36143 0.50836 0.0
H608 H 0.0485 0.38104 0.57753 0.0
H609 H 0.07583 0.52062 0.36172 0.0
O610 O 0.31867 0.53799 0.49174 0.0
C611 C 0.21366 0.58887 0.43287 0.0
loop_
_geom_bond_atom_site_label_1
_geom_bond_atom_site_label_2
_geom_bond_distance
_geom_bond_site_symmetry_2
_ccdc_geom_bond_type
Co0 O3 1.970 . S
Co0 N17 1.989 . S
Co0 O25 1.967 . S
Co0 O32 1.920 . S
Co1 O4 1.966 . S
Co1 N10 2.022 1_455 S
Co1 N18 1.993 . S
Co1 O26 1.941 1_455 S
C2 O3 1.258 . S
C2 O4 1.263 . S
O3 Co0 1.970 . S
O3 C2 1.258 . S
O4 Co1 1.966 . S
O4 C2 1.263 . S
C5 O6 1.235 . S
C5 O32 1.289 . S
O6 C5 1.235 . S
C7 C9 1.400 . S
C7 N10 1.351 . S
C7 C12 1.501 . S
C8 C9 1.387 . S
C8 N11 1.341 . S
C9 C7 1.400 . S
C9 C8 1.387 . S
N10 Co1 2.022 1_655 S
N10 C7 1.351 . S
N10 N11 1.365 . S
N11 C8 1.341 . S
N11 N10 1.365 . S
N11 H31 0.862 . S
C12 C7 1.501 . S
C12 H13 0.961 1_655 S
C12 H14 0.961 1_655 S
C12 H15 0.960 . S
H13 C12 0.961 1_455 S
H14 C12 0.961 1_455 S
H15 C12 0.960 . S
C16 N17 1.342 . S
C16 C20 1.401 . S
C16 C21 1.499 . S
N17 Co0 1.989 . S
N17 C16 1.342 . S
N17 N18 1.388 . S
N18 Co1 1.993 . S
N18 N17 1.388 . S
N18 C19 1.346 . S
C19 N18 1.346 . S
C19 C20 1.396 . S
C19 C29 1.510 . S
C20 C16 1.401 . S
C20 C19 1.396 . S
C21 C16 1.499 . S
C21 H22 0.959 . S
C21 H23 0.960 . S
C21 H24 0.961 . S
H22 C21 0.959 . S
H23 C21 0.960 . S
H24 C21 0.961 . S
O25 Co0 1.967 . S
O25 C33 1.258 1_455 S
O26 Co1 1.941 1_655 S
O26 C33 1.266 . S
H27 C29 0.959 . S
H28 C29 0.961 . S
C29 C19 1.510 . S
C29 H27 0.959 . S
C29 H28 0.961 . S
C29 H30 0.960 . S
H30 C29 0.960 . S
H31 N11 0.862 . S
O32 Co0 1.920 . S
O32 C5 1.289 . S
C33 O25 1.258 1_655 S
C33 O26 1.266 . S
Co34 O37 1.970 . S
Co34 N51 1.989 . S
Co34 O59 1.967 . S
Co34 O66 1.920 1_565 S
Co35 O38 1.966 . S
Co35 N44 2.022 . S
Co35 N52 1.993 . S
Co35 O60 1.941 . S
C36 O37 1.258 . S
C36 O38 1.263 . S
O37 Co34 1.970 . S
O37 C36 1.258 . S
O38 Co35 1.966 . S
O38 C36 1.263 . S
C39 O40 1.235 . S
C39 O66 1.289 . S
O40 C39 1.235 . S
C41 C43 1.400 . S
C41 N44 1.351 . S
C41 C46 1.501 . S
C42 C43 1.387 . S
C42 N45 1.341 . S
C43 C41 1.400 . S
C43 C42 1.387 . S
N44 Co35 2.022 . S
N44 C41 1.351 . S
N44 N45 1.365 . S
N45 C42 1.341 . S
N45 N44 1.365 . S
N45 H65 0.862 . S
C46 C41 1.501 . S
C46 H47 0.961 . S
C46 H48 0.961 . S
C46 H49 0.960 . S
H47 C46 0.961 . S
H48 C46 0.961 . S
H49 C46 0.960 . S
C50 N51 1.342 . S
C50 C54 1.401 . S
C50 C55 1.499 . S
N51 Co34 1.989 . S
N51 C50 1.342 . S
N51 N52 1.388 . S
N52 Co35 1.993 . S
N52 N51 1.388 . S
N52 C53 1.346 . S
C53 N52 1.346 . S
C53 C54 1.396 . S
C53 C63 1.510 . S
C54 C50 1.401 . S
C54 C53 1.396 . S
C55 C50 1.499 . S
C55 H56 0.959 . S
C55 H57 0.960 . S
C55 H58 0.961 . S
H56 C55 0.959 . S
H57 C55 0.960 . S
H58 C55 0.961 . S
O59 Co34 1.967 . S
O59 C67 1.258 . S
O60 Co35 1.941 . S
O60 C67 1.266 . S
H61 C63 0.959 . S
H62 C63 0.961 . S
C63 C53 1.510 . S
C63 H61 0.959 . S
C63 H62 0.961 . S
C63 H64 0.960 . S
H64 C63 0.960 . S
H65 N45 0.862 . S
O66 Co34 1.920 1_545 S
O66 C39 1.289 . S
C67 O59 1.258 . S
C67 O60 1.266 . S
Co68 O71 1.970 . S
Co68 N85 1.989 . S
Co68 O93 1.967 . S
Co68 O100 1.920 1_455 S
Co69 O72 1.966 . S
Co69 N78 2.022 1_565 S
Co69 N86 1.993 . S
Co69 O94 1.941 1_565 S
C70 O71 1.258 . S
C70 O72 1.263 . S
O71 Co68 1.970 . S
O71 C70 1.258 . S
O72 Co69 1.966 . S
O72 C70 1.263 . S
C73 O74 1.235 . S
C73 O100 1.289 . S
O74 C73 1.235 . S
C75 C77 1.400 . S
C75 N78 1.351 . S
C75 C80 1.501 1_545 S
C76 C77 1.387 . S
C76 N79 1.341 . S
C77 C75 1.400 . S
C77 C76 1.387 . S
N78 Co69 2.022 1_545 S
N78 C75 1.351 . S
N78 N79 1.365 . S
N79 C76 1.341 . S
N79 N78 1.365 . S
N79 H99 0.862 . S
C80 C75 1.501 1_565 S
C80 H81 0.961 . S
C80 H82 0.961 . S
C80 H83 0.960 1_565 S
H81 C80 0.961 . S
H82 C80 0.961 . S
H83 C80 0.960 1_545 S
C84 N85 1.342 . S
C84 C88 1.401 . S
C84 C89 1.499 . S
N85 Co68 1.989 . S
N85 C84 1.342 . S
N85 N86 1.388 . S
N86 Co69 1.993 . S
N86 N85 1.388 . S
N86 C87 1.346 . S
C87 N86 1.346 . S
C87 C88 1.396 . S
C87 C97 1.510 . S
C88 C84 1.401 . S
C88 C87 1.396 . S
C89 C84 1.499 . S
C89 H90 0.959 1_455 S
C89 H91 0.955 . S
C89 H92 0.961 . S
H90 C89 0.959 1_655 S
H91 C89 0.955 . S
H92 C89 0.961 . S
O93 Co68 1.967 . S
O93 C101 1.258 1_565 S
O94 Co69 1.941 1_545 S
O94 C101 1.266 . S
H95 C97 0.959 . S
H96 C97 0.961 . S
C97 C87 1.510 . S
C97 H95 0.959 . S
C97 H96 0.961 . S
C97 H98 0.960 . S
H98 C97 0.960 . S
H99 N79 0.862 . S
O100 Co68 1.920 1_655 S
O100 C73 1.289 . S
C101 O93 1.258 1_545 S
C101 O94 1.266 . S
Co102 O105 1.970 . S
Co102 N119 1.989 . S
Co102 O127 1.967 . S
Co102 O134 1.920 . S
Co103 O106 1.966 . S
Co103 N112 2.022 1_545 S
Co103 N120 1.993 . S
Co103 O128 1.941 1_545 S
C104 O105 1.258 . S
C104 O106 1.263 . S
O105 Co102 1.970 . S
O105 C104 1.258 . S
O106 Co103 1.966 . S
O106 C104 1.263 . S
C107 O108 1.235 . S
C107 O134 1.289 . S
O108 C107 1.235 . S
C109 C111 1.400 . S
C109 N112 1.351 . S
C109 C114 1.501 . S
C110 C111 1.387 . S
C110 N113 1.341 . S
C111 C109 1.400 . S
C111 C110 1.387 . S
N112 Co103 2.022 1_565 S
N112 C109 1.351 . S
N112 N113 1.365 . S
N113 C110 1.341 . S
N113 N112 1.365 . S
N113 H133 0.862 . S
C114 C109 1.501 . S
C114 H115 0.961 1_565 S
C114 H116 0.961 1_565 S
C114 H117 0.960 . S
H115 C114 0.961 1_545 S
H116 C114 0.961 1_545 S
H117 C114 0.960 . S
C118 N119 1.342 . S
C118 C122 1.401 . S
C118 C123 1.499 . S
N119 Co102 1.989 . S
N119 C118 1.342 . S
N119 N120 1.388 . S
N120 Co103 1.993 . S
N120 N119 1.388 . S
N120 C121 1.346 . S
C121 N120 1.346 . S
C121 C122 1.396 . S
C121 C131 1.510 . S
C122 C118 1.401 . S
C122 C121 1.396 . S
C123 C118 1.499 . S
C123 H124 0.959 . S
C123 H125 0.960 . S
C123 H126 0.961 . S
H124 C123 0.959 . S
H125 C123 0.960 . S
H126 C123 0.961 . S
O127 Co102 1.967 . S
O127 C135 1.258 1_545 S
O128 Co103 1.941 1_565 S
O128 C135 1.266 . S
H129 C131 0.959 . S
H130 C131 0.961 . S
C131 C121 1.510 . S
C131 H129 0.959 . S
C131 H130 0.961 . S
C131 H132 0.960 . S
H132 C131 0.960 . S
H133 N113 0.862 . S
O134 Co102 1.920 . S
O134 C107 1.289 . S
C135 O127 1.258 1_565 S
C135 O128 1.266 . S
Co136 O139 1.970 . S
Co136 N153 1.989 . S
Co136 O161 1.967 . S
Co136 O168 1.920 1_545 S
Co137 O140 1.966 . S
Co137 N146 2.022 1_655 S
Co137 N154 1.993 . S
Co137 O162 1.941 1_655 S
C138 O139 1.258 . S
C138 O140 1.263 . S
O139 Co136 1.970 . S
O139 C138 1.258 . S
O140 Co137 1.966 . S
O140 C138 1.263 . S
C141 O142 1.235 . S
C141 O168 1.289 . S
O142 C141 1.235 . S
C143 C145 1.400 . S
C143 N146 1.351 . S
C143 C148 1.501 1_455 S
C144 C145 1.387 . S
C144 N147 1.341 . S
C145 C143 1.400 . S
C145 C144 1.387 . S
N146 Co137 2.022 1_455 S
N146 C143 1.351 . S
N146 N147 1.365 . S
N147 C144 1.341 . S
N147 N146 1.365 . S
N147 H167 0.862 . S
C148 C143 1.501 1_655 S
C148 H149 0.961 . S
C148 H150 0.961 . S
C148 H151 0.960 1_655 S
H149 C148 0.961 . S
H150 C148 0.961 . S
H151 C148 0.960 1_455 S
C152 N153 1.342 . S
C152 C156 1.401 . S
C152 C157 1.499 . S
N153 Co136 1.989 . S
N153 C152 1.342 . S
N153 N154 1.388 . S
N154 Co137 1.993 . S
N154 N153 1.388 . S
N154 C155 1.346 . S
C155 N154 1.346 . S
C155 C156 1.396 . S
C155 C165 1.510 . S
C156 C152 1.401 . S
C156 C155 1.396 . S
C157 C152 1.499 . S
C157 H158 0.959 1_545 S
C157 H159 0.955 . S
C157 H160 0.961 . S
H158 C157 0.959 1_565 S
H159 C157 0.955 . S
H160 C157 0.961 . S
O161 Co136 1.967 . S
O161 C169 1.258 1_655 S
O162 Co137 1.941 1_455 S
O162 C169 1.266 . S
H163 C165 0.959 . S
H164 C165 0.961 . S
C165 C155 1.510 . S
C165 H163 0.959 . S
C165 H164 0.961 . S
C165 H166 0.960 . S
H166 C165 0.960 . S
H167 N147 0.862 . S
O168 Co136 1.920 1_565 S
O168 C141 1.289 . S
C169 O161 1.258 1_455 S
C169 O162 1.266 . S
Co170 O173 1.970 . S
Co170 N187 1.989 . S
Co170 O195 1.967 . S
Co170 O202 1.920 1_655 S
Co171 O174 1.966 . S
Co171 N180 2.022 . S
Co171 N188 1.993 . S
Co171 O196 1.941 . S
C172 O173 1.258 . S
C172 O174 1.263 . S
O173 Co170 1.970 . S
O173 C172 1.258 . S
O174 Co171 1.966 . S
O174 C172 1.263 . S
C175 O176 1.235 . S
C175 O202 1.289 . S
O176 C175 1.235 . S
C177 C179 1.400 . S
C177 N180 1.351 . S
C177 C182 1.501 . S
C178 C179 1.387 . S
C178 N181 1.341 . S
C179 C177 1.400 . S
C179 C178 1.387 . S
N180 Co171 2.022 . S
N180 C177 1.351 . S
N180 N181 1.365 . S
N181 C178 1.341 . S
N181 N180 1.365 . S
N181 H201 0.862 . S
C182 C177 1.501 . S
C182 H183 0.961 . S
C182 H184 0.961 . S
C182 H185 0.960 . S
H183 C182 0.961 . S
H184 C182 0.961 . S
H185 C182 0.960 . S
C186 N187 1.342 . S
C186 C190 1.401 . S
C186 C191 1.499 . S
N187 Co170 1.989 . S
N187 C186 1.342 . S
N187 N188 1.388 . S
N188 Co171 1.993 . S
N188 N187 1.388 . S
N188 C189 1.346 . S
C189 N188 1.346 . S
C189 C190 1.396 . S
C189 C199 1.510 . S
C190 C186 1.401 . S
C190 C189 1.396 . S
C191 C186 1.499 . S
C191 H192 0.959 . S
C191 H193 0.960 . S
C191 H194 0.961 . S
H192 C191 0.959 . S
H193 C191 0.960 . S
H194 C191 0.961 . S
O195 Co170 1.967 . S
O195 C203 1.258 . S
O196 Co171 1.941 . S
O196 C203 1.266 . S
H197 C199 0.959 . S
H198 C199 0.961 . S
C199 C189 1.510 . S
C199 H197 0.959 . S
C199 H198 0.961 . S
C199 H200 0.960 . S
H200 C199 0.960 . S
H201 N181 0.862 . S
O202 Co170 1.920 1_455 S
O202 C175 1.289 . S
C203 O195 1.258 . S
C203 O196 1.266 . S
Co204 O207 1.970 . S
Co204 N221 1.989 . S
Co204 O229 1.967 . S
Co204 O236 1.920 . S
Co205 O208 1.966 . S
Co205 N214 2.022 . S
Co205 N222 1.993 . S
Co205 O230 1.941 . S
C206 O207 1.258 . S
C206 O208 1.263 . S
O207 Co204 1.970 . S
O207 C206 1.258 . S
O208 Co205 1.966 . S
O208 C206 1.263 . S
C209 O210 1.235 . S
C209 O236 1.289 . S
O210 C209 1.235 . S
C211 C213 1.400 . S
C211 N214 1.351 . S
C211 C216 1.501 . S
C212 C213 1.387 . S
C212 N215 1.341 . S
C213 C211 1.400 . S
C213 C212 1.387 . S
N214 Co205 2.022 . S
N214 C211 1.351 . S
N214 N215 1.365 . S
N215 C212 1.341 . S
N215 N214 1.365 . S
N215 H235 0.862 . S
C216 C211 1.501 . S
C216 H217 0.961 . S
C216 H218 0.961 . S
C216 H219 0.960 . S
H217 C216 0.961 . S
H218 C216 0.961 . S
H219 C216 0.960 . S
C220 N221 1.342 . S
C220 C224 1.401 . S
C220 C225 1.499 . S
N221 Co204 1.989 . S
N221 C220 1.342 . S
N221 N222 1.388 . S
N222 Co205 1.993 . S
N222 N221 1.388 . S
N222 C223 1.346 . S
C223 N222 1.346 . S
C223 C224 1.396 . S
C223 C233 1.510 . S
C224 C220 1.401 . S
C224 C223 1.396 . S
C225 C220 1.499 . S
C225 H226 0.959 . S
C225 H227 0.960 . S
C225 H228 0.961 . S
H226 C225 0.959 . S
H227 C225 0.960 . S
H228 C225 0.961 . S
O229 Co204 1.967 . S
O229 C237 1.258 . S
O230 Co205 1.941 . S
O230 C237 1.266 . S
H231 C233 0.959 . S
H232 C233 0.961 . S
C233 C223 1.510 . S
C233 H231 0.959 . S
C233 H232 0.961 . S
C233 H234 0.960 . S
H234 C233 0.960 . S
H235 N215 0.862 . S
O236 Co204 1.920 . S
O236 C209 1.289 . S
C237 O229 1.258 . S
C237 O230 1.266 . S
Co238 O241 1.970 . S
Co238 N255 1.989 . S
Co238 O263 1.967 . S
Co238 O270 1.920 . S
Co239 O242 1.966 . S
Co239 N248 2.022 . S
Co239 N256 1.993 . S
Co239 O264 1.941 . S
C240 O241 1.258 . S
C240 O242 1.263 . S
O241 Co238 1.970 . S
O241 C240 1.258 . S
O242 Co239 1.966 . S
O242 C240 1.263 . S
C243 O244 1.235 . S
C243 O270 1.289 . S
O244 C243 1.235 . S
C245 C247 1.400 1_545 S
C245 N248 1.351 . S
C245 C250 1.501 . S
C246 C247 1.387 . S
C246 N249 1.341 1_565 S
C247 C245 1.400 1_565 S
C247 C246 1.387 . S
N248 Co239 2.022 . S
N248 C245 1.351 . S
N248 N249 1.365 . S
N249 C246 1.341 1_545 S
N249 N248 1.365 . S
N249 H269 0.862 . S
C250 C245 1.501 . S
C250 H251 0.961 . S
C250 H252 0.961 . S
C250 H253 0.960 . S
H251 C250 0.961 . S
H252 C250 0.961 . S
H253 C250 0.960 . S
C254 N255 1.342 . S
C254 C258 1.401 . S
C254 C259 1.499 . S
N255 Co238 1.989 . S
N255 C254 1.342 . S
N255 N256 1.388 . S
N256 Co239 1.993 . S
N256 N255 1.388 . S
N256 C257 1.346 . S
C257 N256 1.346 . S
C257 C258 1.396 . S
C257 C267 1.510 . S
C258 C254 1.401 . S
C258 C257 1.396 . S
C259 C254 1.499 . S
C259 H260 0.959 . S
C259 H261 0.960 . S
C259 H262 0.961 . S
H260 C259 0.959 . S
H261 C259 0.960 . S
H262 C259 0.961 . S
O263 Co238 1.967 . S
O263 C271 1.258 . S
O264 Co239 1.941 . S
O264 C271 1.266 . S
H265 C267 0.959 . S
H266 C267 0.961 . S
C267 C257 1.510 . S
C267 H265 0.959 . S
C267 H266 0.961 . S
C267 H268 0.960 . S
H268 C267 0.960 . S
H269 N249 0.862 . S
O270 Co238 1.920 . S
O270 C243 1.289 . S
C271 O263 1.258 . S
C271 O264 1.266 . S
Co272 O275 1.970 . S
Co272 N289 1.989 . S
Co272 O297 1.967 . S
Co272 O304 1.920 . S
Co273 O276 1.966 . S
Co273 N282 2.022 . S
Co273 N290 1.993 . S
Co273 O298 1.941 . S
C274 O275 1.258 . S
C274 O276 1.263 . S
O275 Co272 1.970 . S
O275 C274 1.258 . S
O276 Co273 1.966 . S
O276 C274 1.263 . S
C277 O278 1.235 . S
C277 O304 1.289 . S
O278 C277 1.235 . S
C279 C281 1.400 . S
C279 N282 1.351 . S
C279 C284 1.501 . S
C280 C281 1.387 . S
C280 N283 1.341 . S
C281 C279 1.400 . S
C281 C280 1.387 . S
N282 Co273 2.022 . S
N282 C279 1.351 . S
N282 N283 1.365 . S
N283 C280 1.341 . S
N283 N282 1.365 . S
N283 H303 0.862 . S
C284 C279 1.501 . S
C284 H285 0.961 . S
C284 H286 0.961 . S
C284 H287 0.960 . S
H285 C284 0.961 . S
H286 C284 0.961 . S
H287 C284 0.960 . S
C288 N289 1.342 . S
C288 C292 1.401 . S
C288 C293 1.499 . S
N289 Co272 1.989 . S
N289 C288 1.342 . S
N289 N290 1.388 . S
N290 Co273 1.993 . S
N290 N289 1.388 . S
N290 C291 1.346 . S
C291 N290 1.346 . S
C291 C292 1.396 . S
C291 C301 1.510 . S
C292 C288 1.401 . S
C292 C291 1.396 . S
C293 C288 1.499 . S
C293 H294 0.959 . S
C293 H295 0.960 . S
C293 H296 0.961 . S
H294 C293 0.959 . S
H295 C293 0.960 . S
H296 C293 0.961 . S
O297 Co272 1.967 . S
O297 C305 1.258 . S
O298 Co273 1.941 . S
O298 C305 1.266 . S
H299 C301 0.959 . S
H300 C301 0.961 . S
C301 C291 1.510 . S
C301 H299 0.959 . S
C301 H300 0.961 . S
C301 H302 0.960 . S
H302 C301 0.960 . S
H303 N283 0.862 . S
O304 Co272 1.920 . S
O304 C277 1.289 . S
C305 O297 1.258 . S
C305 O298 1.266 . S
Co306 O309 1.970 . S
Co306 N323 1.989 . S
Co306 O331 1.967 . S
Co306 O338 1.920 . S
Co307 O310 1.966 . S
Co307 N316 2.022 . S
Co307 N324 1.993 . S
Co307 O332 1.941 . S
C308 O309 1.258 . S
C308 O310 1.263 . S
O309 Co306 1.970 . S
O309 C308 1.258 . S
O310 Co307 1.966 . S
O310 C308 1.263 . S
C311 O312 1.235 . S
C311 O338 1.289 . S
O312 C311 1.235 . S
C313 C315 1.400 . S
C313 N316 1.351 . S
C313 C318 1.501 . S
C314 C315 1.387 . S
C314 N317 1.341 . S
C315 C313 1.400 . S
C315 C314 1.387 . S
N316 Co307 2.022 . S
N316 C313 1.351 . S
N316 N317 1.365 . S
N317 C314 1.341 . S
N317 N316 1.365 . S
N317 H337 0.862 . S
C318 C313 1.501 . S
C318 H319 0.961 . S
C318 H320 0.961 . S
C318 H321 0.960 . S
H319 C318 0.961 . S
H320 C318 0.961 . S
H321 C318 0.960 . S
C322 N323 1.342 . S
C322 C326 1.401 1_554 S
C322 C327 1.499 . S
N323 Co306 1.989 . S
N323 C322 1.342 . S
N323 N324 1.388 . S
N324 Co307 1.993 . S
N324 N323 1.388 . S
N324 C325 1.346 . S
C325 N324 1.346 . S
C325 C326 1.396 1_554 S
C325 C335 1.510 . S
C326 C322 1.401 1_556 S
C326 C325 1.396 1_556 S
C327 C322 1.499 . S
C327 H328 0.959 . S
C327 H329 0.960 . S
C327 H330 0.961 1_554 S
H328 C327 0.959 . S
H329 C327 0.960 . S
H330 C327 0.961 1_556 S
O331 Co306 1.967 . S
O331 C339 1.258 . S
O332 Co307 1.941 . S
O332 C339 1.266 . S
H333 C335 0.959 1_556 S
H334 C335 0.961 1_455 S
C335 C325 1.510 . S
C335 H333 0.959 1_554 S
C335 H334 0.961 1_655 S
C335 H336 0.960 . S
H336 C335 0.960 . S
H337 N317 0.862 . S
O338 Co306 1.920 . S
O338 C311 1.289 . S
C339 O331 1.258 . S
C339 O332 1.266 . S
Co340 O343 1.970 . S
Co340 N357 1.989 . S
Co340 O365 1.967 . S
Co340 O372 1.920 . S
Co341 O344 1.966 . S
Co341 N350 2.022 . S
Co341 N358 1.993 . S
Co341 O366 1.941 . S
C342 O343 1.258 . S
C342 O344 1.263 . S
O343 Co340 1.970 . S
O343 C342 1.258 . S
O344 Co341 1.966 . S
O344 C342 1.263 . S
C345 O346 1.235 . S
C345 O372 1.289 . S
O346 C345 1.235 . S
C347 C349 1.400 . S
C347 N350 1.351 . S
C347 C352 1.501 . S
C348 C349 1.387 . S
C348 N351 1.341 . S
C349 C347 1.400 . S
C349 C348 1.387 . S
N350 Co341 2.022 . S
N350 C347 1.351 . S
N350 N351 1.365 . S
N351 C348 1.341 . S
N351 N350 1.365 . S
N351 H371 0.862 . S
C352 C347 1.501 . S
C352 H353 0.961 . S
C352 H354 0.961 . S
C352 H355 0.960 . S
H353 C352 0.961 . S
H354 C352 0.961 . S
H355 C352 0.960 . S
C356 N357 1.342 . S
C356 C360 1.401 1_554 S
C356 C361 1.499 . S
N357 Co340 1.989 . S
N357 C356 1.342 . S
N357 N358 1.388 . S
N358 Co341 1.993 . S
N358 N357 1.388 . S
N358 C359 1.346 . S
C359 N358 1.346 . S
C359 C360 1.396 1_554 S
C359 C369 1.510 . S
C360 C356 1.401 1_556 S
C360 C359 1.396 1_556 S
C361 C356 1.499 . S
C361 H362 0.959 . S
C361 H363 0.960 . S
C361 H364 0.961 1_554 S
H362 C361 0.959 . S
H363 C361 0.960 . S
H364 C361 0.961 1_556 S
O365 Co340 1.967 . S
O365 C373 1.258 . S
O366 Co341 1.941 . S
O366 C373 1.266 . S
H367 C369 0.959 1_556 S
H368 C369 0.961 . S
C369 C359 1.510 . S
C369 H367 0.959 1_554 S
C369 H368 0.961 . S
C369 H370 0.960 . S
H370 C369 0.960 . S
H371 N351 0.862 . S
O372 Co340 1.920 . S
O372 C345 1.289 . S
C373 O365 1.258 . S
C373 O366 1.266 . S
Co374 O377 1.970 . S
Co374 N391 1.989 . S
Co374 O399 1.967 . S
Co374 O406 1.920 . S
Co375 O378 1.966 . S
Co375 N384 2.022 . S
Co375 N392 1.993 . S
Co375 O400 1.941 . S
C376 O377 1.258 . S
C376 O378 1.263 . S
O377 Co374 1.970 . S
O377 C376 1.258 . S
O378 Co375 1.966 . S
O378 C376 1.263 . S
C379 O380 1.235 . S
C379 O406 1.289 . S
O380 C379 1.235 . S
C381 C383 1.400 . S
C381 N384 1.351 . S
C381 C386 1.501 . S
C382 C383 1.387 . S
C382 N385 1.341 . S
C383 C381 1.400 . S
C383 C382 1.387 . S
N384 Co375 2.022 . S
N384 C381 1.351 . S
N384 N385 1.365 . S
N385 C382 1.341 . S
N385 N384 1.365 . S
N385 H405 0.862 . S
C386 C381 1.501 . S
C386 H387 0.961 . S
C386 H388 0.961 . S
C386 H389 0.960 . S
H387 C386 0.961 . S
H388 C386 0.961 . S
H389 C386 0.960 . S
C390 N391 1.342 . S
C390 C394 1.401 1_554 S
C390 C395 1.499 . S
N391 Co374 1.989 . S
N391 C390 1.342 . S
N391 N392 1.388 . S
N392 Co375 1.993 . S
N392 N391 1.388 . S
N392 C393 1.346 . S
C393 N392 1.346 . S
C393 C394 1.396 1_554 S
C393 C403 1.510 . S
C394 C390 1.401 1_556 S
C394 C393 1.396 1_556 S
C395 C390 1.499 . S
C395 H396 0.959 . S
C395 H397 0.960 . S
C395 H398 0.961 1_554 S
H396 C395 0.959 . S
H397 C395 0.960 . S
H398 C395 0.961 1_556 S
O399 Co374 1.967 . S
O399 C407 1.258 . S
O400 Co375 1.941 . S
O400 C407 1.266 . S
H401 C403 0.959 1_556 S
H402 C403 0.961 1_565 S
C403 C393 1.510 . S
C403 H401 0.959 1_554 S
C403 H402 0.961 1_545 S
C403 H404 0.960 . S
H404 C403 0.960 . S
H405 N385 0.862 . S
O406 Co374 1.920 . S
O406 C379 1.289 . S
C407 O399 1.258 . S
C407 O400 1.266 . S
Co408 O411 1.970 . S
Co408 N425 1.989 . S
Co408 O433 1.967 . S
Co408 O440 1.920 . S
Co409 O412 1.966 . S
Co409 N418 2.022 . S
Co409 N426 1.993 . S
Co409 O434 1.941 . S
C410 O411 1.258 . S
C410 O412 1.263 . S
O411 Co408 1.970 . S
O411 C410 1.258 . S
O412 Co409 1.966 . S
O412 C410 1.263 . S
C413 O414 1.235 . S
C413 O440 1.289 . S
O414 C413 1.235 . S
C415 C417 1.400 . S
C415 N418 1.351 . S
C415 C420 1.501 . S
C416 C417 1.387 . S
C416 N419 1.341 . S
C417 C415 1.400 . S
C417 C416 1.387 . S
N418 Co409 2.022 . S
N418 C415 1.351 . S
N418 N419 1.365 . S
N419 C416 1.341 . S
N419 N418 1.365 . S
N419 H439 0.862 . S
C420 C415 1.501 . S
C420 H421 0.961 . S
C420 H422 0.961 . S
C420 H423 0.960 . S
H421 C420 0.961 . S
H422 C420 0.961 . S
H423 C420 0.960 . S
C424 N425 1.342 . S
C424 C428 1.401 1_556 S
C424 C429 1.499 . S
N425 Co408 1.989 . S
N425 C424 1.342 . S
N425 N426 1.388 . S
N426 Co409 1.993 . S
N426 N425 1.388 . S
N426 C427 1.346 . S
C427 N426 1.346 . S
C427 C428 1.396 1_556 S
C427 C437 1.510 . S
C428 C424 1.401 1_554 S
C428 C427 1.396 1_554 S
C429 C424 1.499 . S
C429 H430 0.959 . S
C429 H431 0.960 . S
C429 H432 0.961 1_556 S
H430 C429 0.959 . S
H431 C429 0.960 . S
H432 C429 0.961 1_554 S
O433 Co408 1.967 . S
O433 C441 1.258 . S
O434 Co409 1.941 . S
O434 C441 1.266 . S
H435 C437 0.959 1_554 S
H436 C437 0.961 1_545 S
C437 C427 1.510 . S
C437 H435 0.959 1_556 S
C437 H436 0.961 1_565 S
C437 H438 0.960 . S
H438 C437 0.960 . S
H439 N419 0.862 . S
O440 Co408 1.920 . S
O440 C413 1.289 . S
C441 O433 1.258 . S
C441 O434 1.266 . S
Co442 O445 1.970 . S
Co442 N459 1.989 . S
Co442 O467 1.967 . S
Co442 O474 1.920 . S
Co443 O446 1.966 . S
Co443 N452 2.022 . S
Co443 N460 1.993 . S
Co443 O468 1.941 . S
C444 O445 1.258 . S
C444 O446 1.263 . S
O445 Co442 1.970 . S
O445 C444 1.258 . S
O446 Co443 1.966 . S
O446 C444 1.263 . S
C447 O448 1.235 . S
C447 O474 1.289 . S
O448 C447 1.235 . S
C449 C451 1.400 . S
C449 N452 1.351 . S
C449 C454 1.501 . S
C450 C451 1.387 . S
C450 N453 1.341 . S
C451 C449 1.400 . S
C451 C450 1.387 . S
N452 Co443 2.022 . S
N452 C449 1.351 . S
N452 N453 1.365 . S
N453 C450 1.341 . S
N453 N452 1.365 . S
N453 H473 0.862 . S
C454 C449 1.501 . S
C454 H455 0.961 . S
C454 H456 0.961 . S
C454 H457 0.960 . S
H455 C454 0.961 . S
H456 C454 0.961 . S
H457 C454 0.960 . S
C458 N459 1.342 . S
C458 C462 1.401 1_556 S
C458 C463 1.499 . S
N459 Co442 1.989 . S
N459 C458 1.342 . S
N459 N460 1.388 . S
N460 Co443 1.993 . S
N460 N459 1.388 . S
N460 C461 1.346 . S
C461 N460 1.346 . S
C461 C462 1.396 1_556 S
C461 C471 1.510 . S
C462 C458 1.401 1_554 S
C462 C461 1.396 1_554 S
C463 C458 1.499 . S
C463 H464 0.959 . S
C463 H465 0.960 . S
C463 H466 0.961 1_556 S
H464 C463 0.959 . S
H465 C463 0.960 . S
H466 C463 0.961 1_554 S
O467 Co442 1.967 . S
O467 C475 1.258 . S
O468 Co443 1.941 . S
O468 C475 1.266 . S
H469 C471 0.959 1_554 S
H470 C471 0.961 1_655 S
C471 C461 1.510 . S
C471 H469 0.959 1_556 S
C471 H470 0.961 1_455 S
C471 H472 0.960 . S
H472 C471 0.960 . S
H473 N453 0.862 . S
O474 Co442 1.920 . S
O474 C447 1.289 . S
C475 O467 1.258 . S
C475 O468 1.266 . S
Co476 O479 1.970 . S
Co476 N493 1.989 . S
Co476 O501 1.967 . S
Co476 O508 1.920 . S
Co477 O480 1.966 . S
Co477 N486 2.022 . S
Co477 N494 1.993 . S
Co477 O502 1.941 . S
C478 O479 1.258 . S
C478 O480 1.263 . S
O479 Co476 1.970 . S
O479 C478 1.258 . S
O480 Co477 1.966 . S
O480 C478 1.263 . S
C481 O482 1.235 . S
C481 O508 1.289 . S
O482 C481 1.235 . S
C483 C485 1.400 . S
C483 N486 1.351 . S
C483 C488 1.501 . S
C484 C485 1.387 . S
C484 N487 1.341 . S
C485 C483 1.400 . S
C485 C484 1.387 . S
N486 Co477 2.022 . S
N486 C483 1.351 . S
N486 N487 1.365 . S
N487 C484 1.341 . S
N487 N486 1.365 . S
N487 H507 0.862 . S
C488 C483 1.501 . S
C488 H489 0.961 . S
C488 H490 0.961 . S
C488 H491 0.960 . S
H489 C488 0.961 . S
H490 C488 0.961 . S
H491 C488 0.960 . S
C492 N493 1.342 . S
C492 C496 1.401 1_556 S
C492 C497 1.499 . S
N493 Co476 1.989 . S
N493 C492 1.342 . S
N493 N494 1.388 . S
N494 Co477 1.993 . S
N494 N493 1.388 . S
N494 C495 1.346 . S
C495 N494 1.346 . S
C495 C496 1.396 1_556 S
C495 C505 1.510 . S
C496 C492 1.401 1_554 S
C496 C495 1.396 1_554 S
C497 C492 1.499 . S
C497 H498 0.959 . S
C497 H499 0.960 . S
C497 H500 0.961 1_556 S
H498 C497 0.959 . S
H499 C497 0.960 . S
H500 C497 0.961 1_554 S
O501 Co476 1.967 . S
O501 C509 1.258 . S
O502 Co477 1.941 . S
O502 C509 1.266 . S
H503 C505 0.959 1_554 S
H504 C505 0.961 . S
C505 C495 1.510 . S
C505 H503 0.959 1_556 S
C505 H504 0.961 . S
C505 H506 0.960 . S
H506 C505 0.960 . S
H507 N487 0.862 . S
O508 Co476 1.920 . S
O508 C481 1.289 . S
C509 O501 1.258 . S
C509 O502 1.266 . S
Co510 O513 1.970 . S
Co510 N527 1.989 . S
Co510 O535 1.967 . S
Co510 O542 1.920 . S
Co511 O514 1.966 . S
Co511 N520 2.022 . S
Co511 N528 1.993 . S
Co511 O536 1.941 . S
C512 O513 1.258 . S
C512 O514 1.263 . S
O513 Co510 1.970 . S
O513 C512 1.258 . S
O514 Co511 1.966 . S
O514 C512 1.263 . S
C515 O516 1.235 . S
C515 O542 1.289 . S
O516 C515 1.235 . S
C517 C519 1.400 . S
C517 N520 1.351 . S
C517 C522 1.501 . S
C518 C519 1.387 . S
C518 N521 1.341 . S
C519 C517 1.400 . S
C519 C518 1.387 . S
N520 Co511 2.022 . S
N520 C517 1.351 . S
N520 N521 1.365 . S
N521 C518 1.341 . S
N521 N520 1.365 . S
N521 H541 0.862 . S
C522 C517 1.501 . S
C522 H523 0.961 . S
C522 H524 0.961 . S
C522 H525 0.960 . S
H523 C522 0.961 . S
H524 C522 0.961 . S
H525 C522 0.960 . S
C526 N527 1.342 . S
C526 C530 1.401 . S
C526 C531 1.499 . S
N527 Co510 1.989 . S
N527 C526 1.342 . S
N527 N528 1.388 . S
N528 Co511 1.993 . S
N528 N527 1.388 . S
N528 C529 1.346 . S
C529 N528 1.346 . S
C529 C530 1.396 . S
C529 C539 1.510 . S
C530 C526 1.401 . S
C530 C529 1.396 . S
C531 C526 1.499 . S
C531 H532 0.959 . S
C531 H533 0.960 . S
C531 H534 0.961 . S
H532 C531 0.959 . S
H533 C531 0.960 . S
H534 C531 0.961 . S
O535 Co510 1.967 . S
O535 C543 1.258 . S
O536 Co511 1.941 . S
O536 C543 1.266 . S
H537 C539 0.959 . S
H538 C539 0.961 . S
C539 C529 1.510 . S
C539 H537 0.959 . S
C539 H538 0.961 . S
C539 H540 0.960 . S
H540 C539 0.960 . S
H541 N521 0.862 . S
O542 Co510 1.920 . S
O542 C515 1.289 . S
C543 O535 1.258 . S
C543 O536 1.266 . S
Co544 O547 1.970 . S
Co544 N561 1.989 . S
Co544 O569 1.967 . S
Co544 O576 1.920 . S
Co545 O548 1.966 . S
Co545 N554 2.022 . S
Co545 N562 1.993 . S
Co545 O570 1.941 . S
C546 O547 1.258 . S
C546 O548 1.263 . S
O547 Co544 1.970 . S
O547 C546 1.258 . S
O548 Co545 1.966 . S
O548 C546 1.263 . S
C549 O550 1.235 . S
C549 O576 1.289 . S
O550 C549 1.235 . S
C551 C553 1.400 . S
C551 N554 1.351 . S
C551 C556 1.501 . S
C552 C553 1.387 . S
C552 N555 1.341 . S
C553 C551 1.400 . S
C553 C552 1.387 . S
N554 Co545 2.022 . S
N554 C551 1.351 . S
N554 N555 1.365 . S
N555 C552 1.341 . S
N555 N554 1.365 . S
N555 H575 0.862 . S
C556 C551 1.501 . S
C556 H557 0.961 . S
C556 H558 0.961 . S
C556 H559 0.960 . S
H557 C556 0.961 . S
H558 C556 0.961 . S
H559 C556 0.960 . S
C560 N561 1.342 . S
C560 C564 1.401 . S
C560 C565 1.499 . S
N561 Co544 1.989 . S
N561 C560 1.342 . S
N561 N562 1.388 . S
N562 Co545 1.993 . S
N562 N561 1.388 . S
N562 C563 1.346 . S
C563 N562 1.346 . S
C563 C564 1.396 . S
C563 C573 1.510 . S
C564 C560 1.401 . S
C564 C563 1.396 . S
C565 C560 1.499 . S
C565 H566 0.959 . S
C565 H567 0.960 . S
C565 H568 0.961 . S
H566 C565 0.959 . S
H567 C565 0.960 . S
H568 C565 0.961 . S
O569 Co544 1.967 . S
O569 C577 1.258 . S
O570 Co545 1.941 . S
O570 C577 1.266 . S
H571 C573 0.959 . S
H572 C573 0.961 . S
C573 C563 1.510 . S
C573 H571 0.959 . S
C573 H572 0.961 . S
C573 H574 0.960 . S
H574 C573 0.960 . S
H575 N555 0.862 . S
O576 Co544 1.920 . S
O576 C549 1.289 . S
C577 O569 1.258 . S
C577 O570 1.266 . S
Co578 O581 1.970 . S
Co578 N595 1.989 . S
Co578 O603 1.967 . S
Co578 O610 1.920 . S
Co579 O582 1.966 . S
Co579 N588 2.022 . S
Co579 N596 1.993 . S
Co579 O604 1.941 . S
C580 O581 1.258 . S
C580 O582 1.263 . S
O581 Co578 1.970 . S
O581 C580 1.258 . S
O582 Co579 1.966 . S
O582 C580 1.263 . S
C583 O584 1.235 . S
C583 O610 1.289 . S
O584 C583 1.235 . S
C585 C587 1.400 1_455 S
C585 N588 1.351 . S
C585 C590 1.501 . S
C586 C587 1.387 . S
C586 N589 1.341 1_655 S
C587 C585 1.400 1_655 S
C587 C586 1.387 . S
N588 Co579 2.022 . S
N588 C585 1.351 . S
N588 N589 1.365 . S
N589 C586 1.341 1_455 S
N589 N588 1.365 . S
N589 H609 0.862 . S
C590 C585 1.501 . S
C590 H591 0.961 . S
C590 H592 0.961 . S
C590 H593 0.960 . S
H591 C590 0.961 . S
H592 C590 0.961 . S
H593 C590 0.960 . S
C594 N595 1.342 . S
C594 C598 1.401 . S
C594 C599 1.499 . S
N595 Co578 1.989 . S
N595 C594 1.342 . S
N595 N596 1.388 . S
N596 Co579 1.993 . S
N596 N595 1.388 . S
N596 C597 1.346 . S
C597 N596 1.346 . S
C597 C598 1.396 . S
C597 C607 1.510 . S
C598 C594 1.401 . S
C598 C597 1.396 . S
C599 C594 1.499 . S
C599 H600 0.959 . S
C599 H601 0.960 . S
C599 H602 0.961 . S
H600 C599 0.959 . S
H601 C599 0.960 . S
H602 C599 0.961 . S
O603 Co578 1.967 . S
O603 C611 1.258 . S
O604 Co579 1.941 . S
O604 C611 1.266 . S
H605 C607 0.959 . S
H606 C607 0.961 . S
C607 C597 1.510 . S
C607 H605 0.959 . S
C607 H606 0.961 . S
C607 H608 0.960 . S
H608 C607 0.960 . S
H609 N589 0.862 . S
O610 Co578 1.920 . S
O610 C583 1.289 . S
C611 O603 1.258 . S
C611 O604 1.266 . S
C315 C9 0.448 . S
C349 C43 0.448 . S
C383 C77 0.448 . S
C111 C417 0.448 . S
C451 C145 0.448 . S
C485 C179 0.448 . S
C213 C519 0.448 . S
C553 C247 0.447 . S
C587 C281 0.447 . S
C598 C20 2.950 . S
C530 C54 2.950 . S
C88 C564 2.950 . S
C258 C122 2.950 . S
C292 C156 2.950 . S
C190 C224 2.950 . S
C326 C462 2.950 1_656 S
C496 C360 2.950 1_554 S
C394 C428 2.950 1_546 S
C2 C138 2.801 1_454 S
C172 C36 2.801 1_556 S
C104 C70 2.801 1_546 S
C342 C206 2.801 . S
C240 C376 2.801 . S
C308 C274 2.801 . S
C410 C546 2.801 . S
C580 C444 2.801 . S
C478 C512 2.801 . S
C101 C5 2.961 . S
C33 C39 2.961 . S
C67 C73 2.961 . S
C169 C107 2.961 . S
C141 C203 2.961 . S
C135 C175 2.961 . S
C305 C209 2.961 . S
C237 C243 2.961 . S
C277 C271 2.962 . S
C311 C373 2.960 . S
C407 C345 2.961 . S
C339 C379 2.962 . S
C413 C509 2.960 . S
C441 C447 2.962 . S
C475 C481 2.961 . S
C577 C515 2.961 . S
C611 C549 2.962 . S
C543 C583 2.961 . S
