# Generated by pormake.
# Topology zfy, (5)-cn, num edge types: 1
# Building blocks:
#     Node 0, Type 0, BuildingBlock: BEQFEK_clean_sbu_0, # of connection points: 5
#     Node 1, Type 0, BuildingBlock: BEQFEK_clean_sbu_0, # of connection points: 5
#     Node 2, Type 0, BuildingBlock: BEQFEK_clean_sbu_0, # of connection points: 5
#     Node 3, Type 0, BuildingBlock: BEQFEK_clean_sbu_0, # of connection points: 5
#     Node 4, Type 0, BuildingBlock: BEQFEK_clean_sbu_0, # of connection points: 5
#     Node 5, Type 0, BuildingBlock: BEQFEK_clean_sbu_0, # of connection points: 5
#     Node 6, Type 0, BuildingBlock: BEQFEK_clean_sbu_0, # of connection points: 5
#     Node 7, Type 0, BuildingBlock: BEQFEK_clean_sbu_0, # of connection points: 5
#     Node 8, Type 0, BuildingBlock: BEQFEK_clean_sbu_0, # of connection points: 5
#     Node 9, Type 0, BuildingBlock: BEQFEK_clean_sbu_0, # of connection points: 5
#     Node 10, Type 0, BuildingBlock: BEQFEK_clean_sbu_0, # of connection points: 5
#     Node 11, Type 0, BuildingBlock: BEQFEK_clean_sbu_0, # of connection points: 5
#     Node 12, Type 0, BuildingBlock: BEQFEK_clean_sbu_0, # of connection points: 5
#     Node 13, Type 0, BuildingBlock: BEQFEK_clean_sbu_0, # of connection points: 5
#     Node 14, Type 0, BuildingBlock: BEQFEK_clean_sbu_0, # of connection points: 5
#     Node 15, Type 0, BuildingBlock: BEQFEK_clean_sbu_0, # of connection points: 5
#     Edge 16, Type (0, 0), None
#     Edge 17, Type (0, 0), None
#     Edge 18, Type (0, 0), None
#     Edge 19, Type (0, 0), None
#     Edge 20, Type (0, 0), None
#     Edge 21, Type (0, 0), None
#     Edge 22, Type (0, 0), None
#     Edge 23, Type (0, 0), None
#     Edge 24, Type (0, 0), None
#     Edge 25, Type (0, 0), None
#     Edge 26, Type (0, 0), None
#     Edge 27, Type (0, 0), None
#     Edge 28, Type (0, 0), None
#     Edge 29, Type (0, 0), None
#     Edge 30, Type (0, 0), None
#     Edge 31, Type (0, 0), None
#     Edge 32, Type (0, 0), None
#     Edge 33, Type (0, 0), None
#     Edge 34, Type (0, 0), None
#     Edge 35, Type (0, 0), None
#     Edge 36, Type (0, 0), None
#     Edge 37, Type (0, 0), None
#     Edge 38, Type (0, 0), None
#     Edge 39, Type (0, 0), None
#     Edge 40, Type (0, 0), None
#     Edge 41, Type (0, 0), None
#     Edge 42, Type (0, 0), None
#     Edge 43, Type (0, 0), None
#     Edge 44, Type (0, 0), None
#     Edge 45, Type (0, 0), None
#     Edge 46, Type (0, 0), None
#     Edge 47, Type (0, 0), None
#     Edge 48, Type (0, 0), None
#     Edge 49, Type (0, 0), None
#     Edge 50, Type (0, 0), None
#     Edge 51, Type (0, 0), None
#     Edge 52, Type (0, 0), None
#     Edge 53, Type (0, 0), None
#     Edge 54, Type (0, 0), None
#     Edge 55, Type (0, 0), None
# Relax obj value: 0.275
# Max RMSD: 0.149
# Mean RMSD: 0.149
data_MOF--net-zfy--node1-BEQFEK_clean_sbu_0--edge1-none
_symmetry_space_group_name_H-M    P1
_symmetry_Int_Tables_number       1
_symmetry_cell_setting            triclinic
loop_
_symmetry_equiv_pos_as_xyz
'x, y, z'
_cell_length_a     27.307248
_cell_length_b     27.307315
_cell_length_c     14.828644
_cell_angle_alpha  90.00202
_cell_angle_beta   89.99944
_cell_angle_gamma 90.000057
loop_
_atom_site_label
_atom_site_type_symbol
_atom_site_fract_x
_atom_site_fract_y
_atom_site_fract_z
_atom_type_partial_charge
Co0 Co 0.33497 0.17232 0.12954 0.0
Co1 Co 0.33359 0.25817 -0.00921 0.0
C2 C 0.30367 0.27547 0.18074 0.0
O3 O 0.31229 0.23077 0.19858 0.0
O4 O 0.3159 0.29393 0.1048 0.0
C5 C 0.40542 0.12099 0.22493 0.0
O6 O 0.43427 0.15501 0.19195 0.0
C7 C 0.37182 0.34322 0.88433 0.0
C8 C 0.34999 0.3204 0.74753 0.0
C9 C 0.37716 0.35512 0.79342 0.0
N10 N 0.34357 0.30264 0.89093 0.0
N11 N 0.33052 0.28966 0.80865 0.0
C12 C 0.39408 0.36894 0.96333 0.0
H13 H 0.42764 0.34923 -0.01529 0.0
H14 H 0.40386 0.40723 0.9458 0.0
H15 H 0.36813 0.3686 0.0209 0.0
C16 C 0.40851 0.13784 0.00178 0.0
N17 N 0.38197 0.17492 0.0369 0.0
N18 N 0.38869 0.21447 -0.01132 0.0
C19 C 0.42309 0.2043 0.92493 0.0
C20 C 0.43666 0.15518 0.93156 0.0
C21 C 0.40032 0.08474 0.02244 0.0
H22 H 0.36609 0.07928 0.06131 0.0
H23 H 0.43197 0.07027 0.06063 0.0
H24 H 0.39805 0.06346 0.95876 0.0
O25 O 0.27712 0.15194 0.07081 0.0
O26 O 0.27284 0.21541 -0.02561 0.0
H27 H 0.41936 0.24265 0.79976 0.0
H28 H 0.48055 0.23005 0.83779 0.0
C29 C 0.44333 0.2407 0.85992 0.0
H30 H 0.44521 0.27702 0.89239 0.0
H31 H 0.31092 0.2579 0.794 0.0
O32 O 0.35933 0.12341 0.21371 0.0
C33 C 0.25525 0.1761 0.00977 0.0
Co34 Co 0.65907 0.58488 0.37949 0.0
Co35 Co 0.57324 0.58346 0.24071 0.0
C36 C 0.55592 0.55355 0.43064 0.0
O37 O 0.60062 0.56219 0.44849 0.0
O38 O 0.53746 0.56577 0.3547 0.0
C39 C 0.71035 0.65536 0.47489 0.0
O40 O 0.67632 0.68419 0.44189 0.0
C41 C 0.48817 0.62163 0.13426 0.0
C42 C 0.51108 0.59998 -0.00258 0.0
C43 C 0.47631 0.62705 0.04335 0.0
N44 N 0.52879 0.59344 0.14082 0.0
N45 N 0.54183 0.58049 0.05851 0.0
C46 C 0.4624 0.64379 0.21329 0.0
H47 H 0.4821 0.67732 0.23488 0.0
H48 H 0.42412 0.6536 0.19572 0.0
H49 H 0.46269 0.61777 0.27075 0.0
C50 C 0.69354 0.65843 0.25173 0.0
N51 N 0.65647 0.63188 0.28684 0.0
N52 N 0.61692 0.63858 0.23864 0.0
C53 C 0.62707 0.67299 0.17489 0.0
C54 C 0.6762 0.68657 0.18152 0.0
C55 C 0.74664 0.65026 0.27241 0.0
H56 H 0.75211 0.61603 0.3113 0.0
H57 H 0.7611 0.68192 0.3106 0.0
H58 H 0.76793 0.64799 0.20873 0.0
O59 O 0.67949 0.52704 0.32079 0.0
O60 O 0.61604 0.52273 0.22435 0.0
H61 H 0.58876 0.66936 0.04966 0.0
H62 H 0.60126 0.73052 0.08798 0.0
C63 C 0.59066 0.69326 0.10994 0.0
H64 H 0.55433 0.69504 0.14238 0.0
H65 H 0.57363 0.56097 0.04384 0.0
O66 O 0.70795 0.60927 0.46368 0.0
C67 C 0.65535 0.50516 0.25975 0.0
Co68 Co 0.24646 0.909 0.62962 0.0
Co69 Co 0.24785 0.82317 0.4908 0.0
C70 C 0.27779 0.80585 0.68074 0.0
O71 O 0.26916 0.85055 0.69862 0.0
O72 O 0.26557 0.7874 0.60479 0.0
C73 C 0.17601 0.96032 0.72506 0.0
O74 O 0.14717 0.92629 0.69212 0.0
C75 C 0.20968 0.73809 0.38431 0.0
C76 C 0.23137 0.76099 0.24749 0.0
C77 C 0.20429 0.72622 0.29339 0.0
N78 N 0.23787 0.77872 0.39089 0.0
N79 N 0.25084 0.79175 0.30859 0.0
C80 C 0.18751 0.71232 0.46332 0.0
H81 H 0.15397 0.73201 0.48488 0.0
H82 H 0.17771 0.67404 0.44575 0.0
H83 H 0.21351 0.71263 0.5208 0.0
C84 C 0.17287 0.94346 0.50192 0.0
N85 N 0.19943 0.9064 0.53701 0.0
N86 N 0.19273 0.86685 0.48879 0.0
C87 C 0.15832 0.877 0.42505 0.0
C88 C 0.14472 0.92612 0.4317 0.0
C89 C 0.18104 0.99656 0.52258 0.0
H90 H 0.21528 1.00204 0.56146 0.0
H91 H 0.14938 1.01103 0.56076 0.0
H92 H 0.18331 1.01784 0.4589 0.0
O93 O 0.30429 0.92942 0.57085 0.0
O94 O 0.30857 0.86597 0.47439 0.0
H95 H 0.16198 0.83871 0.29981 0.0
H96 H 0.10082 0.8512 0.33807 0.0
C97 C 0.13807 0.8406 0.36006 0.0
H98 H 0.13628 0.80426 0.39247 0.0
H99 H 0.27038 0.82354 0.29394 0.0
O100 O 0.2221 0.9579 0.71382 0.0
C101 C 0.32615 0.90528 0.50978 0.0
Co102 Co 0.92235 0.49646 0.87948 0.0
Co103 Co 1.00818 0.49783 0.7407 0.0
C104 C 1.02551 0.52776 0.93063 0.0
O105 O 0.98081 0.51914 0.94848 0.0
O106 O 0.04396 0.51553 0.85468 0.0
C107 C 0.87106 0.42601 -0.02511 0.0
O108 O 0.9051 0.39718 0.94191 0.0
C109 C 0.09324 0.45963 0.63424 0.0
C110 C 0.07033 0.48129 0.4974 0.0
C111 C 0.1051 0.45421 0.54333 0.0
N112 N 0.05262 0.48783 0.6408 0.0
N113 N 1.03958 0.50078 0.55849 0.0
C114 C 0.119 0.43748 0.71327 0.0
H115 H 0.09931 0.40394 0.73484 0.0
H116 H 0.15728 0.42767 0.69571 0.0
H117 H 0.1187 0.46349 0.77074 0.0
C118 C 0.88786 0.42291 0.75174 0.0
N119 N 0.92493 0.44945 0.78684 0.0
N120 N 0.96449 0.44272 0.73865 0.0
C121 C 0.95433 0.40831 0.67492 0.0
C122 C 0.9052 0.39473 0.68154 0.0
C123 C 0.83476 0.43109 0.7724 0.0
H124 H 0.8293 0.46533 0.81127 0.0
H125 H 0.82029 0.39944 0.8106 0.0
H126 H 0.81347 0.43335 0.70872 0.0
O127 O 0.90195 0.5543 0.82075 0.0
O128 O 0.9654 0.55857 0.72429 0.0
H129 H 0.99266 0.41188 0.54971 0.0
H130 H 0.98013 0.35074 0.58808 0.0
C131 C 0.99074 0.388 0.61001 0.0
H132 H 1.02707 0.38622 0.64247 0.0
H133 H 1.00779 0.52031 0.54382 0.0
O134 O 0.87346 0.4721 0.96367 0.0
C135 C 0.92609 0.57616 0.75968 0.0
Co136 Co 0.74648 0.909 0.80005 0.0
Co137 Co 0.74788 0.82315 0.9388 0.0
C138 C 0.77779 0.80585 0.74884 0.0
O139 O 0.76916 0.85056 0.73101 0.0
O140 O 0.76558 0.78739 0.82479 0.0
C141 C 0.67603 0.9603 0.70463 0.0
O142 O 0.6472 0.92626 0.73759 0.0
C143 C 0.70972 0.73805 0.04517 0.0
C144 C 0.73136 0.76092 0.18204 0.0
C145 C 0.7043 0.72615 0.13606 0.0
N146 N 0.7379 0.77868 0.03866 0.0
N147 N 0.75084 0.79169 0.12098 0.0
C148 C 0.68757 0.7123 -0.03389 0.0
H149 H 0.65407 0.73203 0.94448 0.0
H150 H 0.67771 0.67403 -0.01634 0.0
H151 H 0.71361 0.71257 0.90869 0.0
C152 C 0.67291 0.94345 0.92778 0.0
N153 N 0.69947 0.90639 0.89268 0.0
N154 N 0.69277 0.86683 0.94088 0.0
C155 C 0.65835 0.87697 0.00462 0.0
C156 C 0.64475 0.92609 -0.00201 0.0
C157 C 0.68107 0.99655 0.90713 0.0
H158 H 0.7153 1.00203 0.86827 0.0
H159 H 0.64941 1.01101 0.86894 0.0
H160 H 0.68332 1.01783 -0.02918 0.0
O161 O 0.80433 0.9294 0.85878 0.0
O162 O 0.80862 0.86593 0.9552 0.0
H163 H 0.662 0.83867 0.12984 0.0
H164 H 0.60084 0.85116 0.09155 0.0
C165 C 0.6381 0.84056 0.06958 0.0
H166 H 0.63632 0.80423 0.03715 0.0
H167 H 0.77036 0.82349 0.13569 0.0
O168 O 0.72212 0.9579 0.71588 0.0
C169 C 0.8262 0.90525 0.91982 0.0
Co170 Co 0.42239 0.49642 0.55005 0.0
Co171 Co 0.50823 0.4978 0.68882 0.0
C172 C 0.52555 0.52774 0.4989 0.0
O173 O 0.48084 0.51912 0.48105 0.0
O174 O 0.54401 0.51552 0.57484 0.0
C175 C 0.37108 0.42596 0.45465 0.0
O176 O 0.40511 0.39712 0.4876 0.0
C177 C 0.59328 0.45962 0.79532 0.0
C178 C 0.57032 0.48123 0.93216 0.0
C179 C 0.60511 0.45418 0.88624 0.0
N180 N 0.55266 0.4878 0.78873 0.0
N181 N 0.53959 0.50072 0.87104 0.0
C182 C 0.61909 0.43748 0.71632 0.0
H183 H 0.59948 0.40389 0.69482 0.0
H184 H 0.6574 0.42777 0.73389 0.0
H185 H 0.61873 0.46346 0.65881 0.0
C186 C 0.38793 0.42284 0.67774 0.0
N187 N 0.425 0.44941 0.64265 0.0
N188 N 0.46456 0.44267 0.69083 0.0
C189 C 0.45442 0.40824 0.75452 0.0
C190 C 0.40531 0.39462 0.74784 0.0
C191 C 0.33483 0.43104 0.65715 0.0
H192 H 0.32936 0.46528 0.61829 0.0
H193 H 0.32033 0.3994 0.61898 0.0
H194 H 0.31358 0.43332 0.72087 0.0
O195 O 0.40198 0.55425 0.60878 0.0
O196 O 0.46543 0.55853 0.70523 0.0
H197 H 0.49277 0.41176 0.87972 0.0
H198 H 0.48027 0.35064 0.84121 0.0
C199 C 0.49085 0.38792 0.81937 0.0
H200 H 0.52717 0.38617 0.78689 0.0
H201 H 0.50778 0.52024 0.88569 0.0
O202 O 0.3735 0.47206 0.46587 0.0
C203 C 0.42612 0.57612 0.66984 0.0
Co204 Co 0.83496 0.1723 0.30002 0.0
Co205 Co 0.83354 0.25813 0.43882 0.0
C206 C 0.80366 0.27545 0.24884 0.0
O207 O 0.81229 0.23075 0.23098 0.0
O208 O 0.81586 0.2939 0.3248 0.0
C209 C 0.90542 0.121 0.20461 0.0
O210 O 0.93426 0.15502 0.23758 0.0
C211 C 0.87169 0.34324 0.5452 0.0
C212 C 0.85001 0.3204 0.68207 0.0
C213 C 0.87709 0.35515 0.63609 0.0
N214 N 0.84351 0.30261 0.53869 0.0
N215 N 0.83055 0.28962 0.62101 0.0
C216 C 0.89387 0.36897 0.46614 0.0
H217 H 0.92737 0.34923 0.44457 0.0
H218 H 0.90372 0.40724 0.48368 0.0
H219 H 0.86784 0.36868 0.4087 0.0
C220 C 0.90852 0.13783 0.42777 0.0
N221 N 0.88196 0.1749 0.39267 0.0
N222 N 0.88865 0.21445 0.44091 0.0
C223 C 0.92305 0.2043 0.50466 0.0
C224 C 0.93666 0.15518 0.498 0.0
C225 C 0.90037 0.08474 0.40708 0.0
H226 H 0.86613 0.07926 0.3682 0.0
H227 H 0.93203 0.07028 0.3689 0.0
H228 H 0.8981 0.06344 0.47076 0.0
O229 O 0.77711 0.1519 0.35873 0.0
O230 O 0.7728 0.21535 0.45518 0.0
H231 H 0.91934 0.24258 0.62991 0.0
H232 H 0.98052 0.2301 0.59171 0.0
C233 C 0.94328 0.24069 0.56969 0.0
H234 H 0.94507 0.27704 0.53729 0.0
H235 H 0.81102 0.25783 0.63572 0.0
O236 O 0.85933 0.1234 0.21584 0.0
C237 C 0.75523 0.17604 0.41978 0.0
Co238 Co 0.15906 0.58487 0.05005 0.0
Co239 Co 0.07324 0.58349 0.18882 0.0
C240 C 0.05591 0.55355 -0.00111 0.0
O241 O 0.10061 0.56218 -0.01897 0.0
O242 O 1.03746 0.56578 0.07484 0.0
C243 C 0.21036 0.65531 0.9546 0.0
O244 O 0.17632 0.68415 -0.01247 0.0
C245 C 0.98816 0.62167 0.29525 0.0
C246 C 1.01108 0.60004 0.43211 0.0
C247 C 0.9763 0.6271 0.38616 0.0
N248 N 1.02879 0.59348 0.28871 0.0
N249 N 0.04183 0.58055 0.37102 0.0
C250 C 0.96239 0.6438 0.21621 0.0
H251 H 0.9821 0.6773 0.19456 0.0
H252 H 0.92412 0.65364 0.23379 0.0
H253 H 0.96265 0.61775 0.15879 0.0
C254 C 0.19352 0.65849 0.17771 0.0
N255 N 0.15647 0.6319 0.14265 0.0
N256 N 0.11691 0.63861 0.19086 0.0
C257 C 0.12705 0.67306 0.25455 0.0
C258 C 0.17615 0.6867 0.24783 0.0
C259 C 0.24662 0.65031 0.1571 0.0
H260 H 0.25211 0.61607 0.11824 0.0
H261 H 0.2611 0.68196 0.11891 0.0
H262 H 0.26789 0.64805 0.2208 0.0
O263 O 0.17948 0.52704 0.10879 0.0
O264 O 0.11603 0.52276 0.20524 0.0
H265 H 0.08876 0.66944 0.3798 0.0
H266 H 0.10123 0.73059 0.34144 0.0
C267 C 0.09064 0.69332 0.31951 0.0
H268 H 0.0543 0.69508 0.28709 0.0
H269 H 0.07363 0.56104 0.3857 0.0
O270 O 0.20797 0.60922 -0.03415 0.0
C271 C 0.15534 0.50518 0.16986 0.0
Co272 Co 0.83496 0.67234 0.62945 0.0
Co273 Co 0.83355 0.75814 0.49066 0.0
C274 C 0.8036 0.77547 0.68058 0.0
O275 O 0.81224 0.73078 0.69844 0.0
O276 O 0.81582 0.79393 0.60464 0.0
C277 C 0.90544 0.62108 0.72493 0.0
O278 O 0.93429 0.6551 0.69194 0.0
C279 C 0.87172 0.8432 0.38423 0.0
C280 C 0.8501 0.82027 0.24737 0.0
C281 C 0.87716 0.85505 0.29332 0.0
N282 N 0.84353 0.80258 0.39078 0.0
N283 N 0.8306 0.78953 0.30846 0.0
C284 C 0.89385 0.86898 0.46327 0.0
H285 H 0.92735 0.84926 0.48493 0.0
H286 H 0.9037 0.90725 0.44568 0.0
H287 H 0.8678 0.86872 0.52068 0.0
C288 C 0.90857 0.63788 0.50182 0.0
N289 N 0.88198 0.67494 0.53686 0.0
N290 N 0.88868 0.71448 0.48863 0.0
C291 C 0.92312 0.70434 0.42493 0.0
C292 C 0.93677 0.65523 0.43168 0.0
C293 C 0.90039 0.58478 0.52246 0.0
H294 H 0.86615 0.5793 0.56132 0.0
H295 H 0.93204 0.57031 0.56064 0.0
H296 H 0.89813 0.5635 0.45877 0.0
O297 O 0.77713 0.65189 0.57071 0.0
O298 O 0.77284 0.71534 0.47425 0.0
H299 H 0.91946 0.74259 0.29966 0.0
H300 H 0.98062 0.73014 0.33796 0.0
C301 C 0.94336 0.74073 0.35992 0.0
H302 H 0.94513 0.77707 0.3923 0.0
H303 H 0.81108 0.75773 0.29379 0.0
O304 O 0.85935 0.62348 0.71367 0.0
C305 C 0.75526 0.67603 0.50965 0.0
Co306 Co 0.15904 0.08497 0.87958 0.0
Co307 Co 0.07322 0.08352 0.74077 0.0
C308 C 0.05591 0.05359 0.9307 0.0
O309 O 0.1006 0.06224 0.94857 0.0
O310 O 1.03745 0.0658 0.85476 0.0
C311 C 0.21032 0.15546 -0.02497 0.0
O312 O 0.17632 0.18432 0.94202 0.0
C313 C 0.98812 0.12165 0.63436 0.0
C314 C 1.01101 0.10003 0.49749 0.0
C315 C 0.97624 0.12708 0.54346 0.0
N316 N 1.02876 0.09348 0.64088 0.0
N317 N 0.04179 0.08055 0.55856 0.0
C318 C 0.96236 0.14378 0.71342 0.0
H319 H 0.98209 0.17726 0.7351 0.0
H320 H 0.92409 0.15364 0.69585 0.0
H321 H 0.96261 0.11772 0.77082 0.0
C322 C 0.19348 0.15855 0.75188 0.0
N323 N 0.15642 0.13198 0.78697 0.0
N324 N 0.11687 0.13866 0.73872 0.0
C325 C 0.12702 0.17307 0.67497 0.0
C326 C 0.17613 0.18669 0.68165 0.0
C327 C 0.24658 0.15041 0.77257 0.0
H328 H 0.25206 0.11618 0.81145 0.0
H329 H 0.26102 0.18208 0.81075 0.0
H330 H 0.26787 0.14814 0.7089 0.0
O331 O 0.17949 1.02714 0.82083 0.0
O332 O 0.11604 1.02282 0.72439 0.0
H333 H 0.08878 0.16936 0.54968 0.0
H334 H 0.10121 0.23054 0.58793 0.0
C335 C 0.09063 0.19328 0.60992 0.0
H336 H 0.05428 0.19505 0.64228 0.0
H337 H 0.07359 0.06105 0.54386 0.0
O338 O 0.2079 0.10937 0.96379 0.0
C339 C 0.15536 1.00525 0.75979 0.0
Co340 Co 0.74648 0.40898 0.12952 0.0
Co341 Co 0.7479 0.32318 -0.00933 0.0
C342 C 0.77786 0.30583 0.18058 0.0
O343 O 0.76921 0.35053 0.19846 0.0
O344 O 0.76565 0.28739 0.10462 0.0
C345 C 0.676 0.46022 0.22503 0.0
O346 O 0.64715 0.4262 0.19206 0.0
C347 C 0.70979 0.23809 0.8842 0.0
C348 C 0.73124 0.26113 0.74731 0.0
C349 C 0.70428 0.22628 0.79329 0.0
N350 N 0.73792 0.27876 0.89073 0.0
N351 N 0.75074 0.29187 0.80839 0.0
C352 C 0.68777 0.21225 0.96326 0.0
H353 H 0.65431 0.23196 -0.01484 0.0
H354 H 0.67789 0.174 0.94561 0.0
H355 H 0.71391 0.21245 0.02054 0.0
C356 C 0.67284 0.44342 0.00192 0.0
N357 N 0.69944 0.40636 0.03695 0.0
N358 N 0.69274 0.36682 -0.01129 0.0
C359 C 0.65829 0.37695 0.92504 0.0
C360 C 0.64464 0.42605 0.9318 0.0
C361 C 0.681 0.49652 0.02256 0.0
H362 H 0.71524 0.50201 0.06143 0.0
H363 H 0.64934 0.51098 0.06073 0.0
H364 H 0.68326 0.51779 0.95887 0.0
O365 O 0.80429 0.42945 0.07075 0.0
O366 O 0.80859 0.36602 -0.02575 0.0
H367 H 0.66186 0.33875 0.79969 0.0
H368 H 0.60072 0.35109 0.83829 0.0
C369 C 0.63803 0.34055 0.86007 0.0
H370 H 0.63636 0.30419 0.89241 0.0
H371 H 0.77019 0.32372 0.79371 0.0
O372 O 0.72209 0.45783 0.21376 0.0
C373 C 0.82615 0.40533 0.00965 0.0
Co374 Co 0.42237 0.99639 0.37955 0.0
Co375 Co 0.50819 0.99778 0.24074 0.0
C376 C 0.52552 1.02774 0.43067 0.0
O377 O 0.48082 1.0191 0.44855 0.0
O378 O 0.54397 1.01552 0.35472 0.0
C379 C 0.37108 0.92593 0.47503 0.0
O380 O 0.4051 0.89707 0.44205 0.0
C381 C 0.59328 0.95962 0.13433 0.0
C382 C 0.57039 0.98123 -0.00254 0.0
C383 C 0.60517 0.95418 0.04344 0.0
N384 N 0.55264 0.98779 0.14085 0.0
N385 N 0.53962 1.00071 0.05852 0.0
C386 C 0.61904 0.93749 0.21339 0.0
H387 H 0.59932 0.90399 0.23504 0.0
H388 H 0.65731 0.92764 0.19583 0.0
H389 H 0.61877 0.96354 0.2708 0.0
C390 C 0.38791 0.92278 0.25188 0.0
N391 N 0.42498 0.94935 0.28696 0.0
N392 N 0.46453 0.94265 0.23873 0.0
C393 C 0.45438 0.90823 0.17501 0.0
C394 C 0.40526 0.89462 0.18168 0.0
C395 C 0.33482 0.93095 0.27255 0.0
H396 H 0.32934 0.96519 0.31141 0.0
H397 H 0.32036 0.89929 0.31075 0.0
H398 H 0.31353 0.9332 0.20887 0.0
O399 O 0.40194 0.05421 0.32077 0.0
O400 O 0.46539 0.05849 0.2243 0.0
H401 H 0.49264 0.91189 0.04974 0.0
H402 H 0.48018 0.85072 0.08804 0.0
C403 C 0.49077 0.88798 0.11 0.0
H404 H 0.52712 0.88621 0.14239 0.0
H405 H 0.50782 1.02023 0.04382 0.0
O406 O 0.37348 0.97202 0.46376 0.0
C407 C 0.42608 0.07607 0.25969 0.0
Co408 Co 0.24647 0.409 0.30008 0.0
Co409 Co 0.24787 0.32319 0.43888 0.0
C410 C 0.27785 0.30585 0.24899 0.0
O411 O 0.26921 0.35055 0.23112 0.0
O412 O 0.26562 0.2874 0.32492 0.0
C413 C 0.17599 0.46025 0.20461 0.0
O414 O 0.14714 0.42624 0.23758 0.0
C415 C 0.20971 0.23811 0.5453 0.0
C416 C 0.23124 0.26107 0.68218 0.0
C417 C 0.20423 0.22627 0.6362 0.0
N418 N 0.23787 0.27876 0.53878 0.0
N419 N 0.25075 0.29182 0.62112 0.0
C420 C 0.18762 0.21232 0.46623 0.0
H421 H 0.15412 0.23203 0.4445 0.0
H422 H 0.17777 0.17405 0.48382 0.0
H423 H 0.2137 0.21257 0.40887 0.0
C424 C 0.17285 0.44344 0.4277 0.0
N425 N 0.19944 0.40639 0.39266 0.0
N426 N 0.19273 0.36684 0.44087 0.0
C427 C 0.15827 0.37697 0.50454 0.0
C428 C 0.14463 0.42608 0.49781 0.0
C429 C 0.18102 0.49655 0.40708 0.0
H430 H 0.21526 0.50203 0.36823 0.0
H431 H 0.14937 0.51102 0.3689 0.0
H432 H 0.18328 0.51782 0.47078 0.0
O433 O 0.30429 0.42945 0.35885 0.0
O434 O 0.30857 0.366 0.4553 0.0
H435 H 0.16186 0.33871 0.62982 0.0
H436 H 0.10072 0.35115 0.59137 0.0
C437 C 0.138 0.34057 0.5695 0.0
H438 H 0.13627 0.30423 0.5371 0.0
H439 H 0.27024 0.32364 0.63581 0.0
O440 O 0.22208 0.45786 0.21586 0.0
C441 C 0.32615 0.40531 0.41991 0.0
Co442 Co 0.9224 0.99638 0.05003 0.0
Co443 Co 1.00821 0.9978 0.18887 0.0
C444 C 1.02554 1.02776 -0.00105 0.0
O445 O 0.98084 1.0191 -0.01893 0.0
O446 O 0.04399 1.01554 0.07489 0.0
C447 C 0.87114 0.92589 0.95455 0.0
O448 O 0.90515 0.89704 -0.01248 0.0
C449 C 0.09329 0.95965 0.29532 0.0
C450 C 0.07037 0.98128 0.43218 0.0
C451 C 0.10515 0.95422 0.38623 0.0
N452 N 0.05265 0.98783 0.28878 0.0
N453 N 1.03961 1.00076 0.3711 0.0
C454 C 0.11906 0.93752 0.21628 0.0
H455 H 0.09935 0.90401 0.19463 0.0
H456 H 0.15733 0.92768 0.23386 0.0
H457 H 0.1188 0.96357 0.15886 0.0
C458 C 0.88795 0.92276 0.17764 0.0
N459 N 0.92502 0.94935 0.14261 0.0
N460 N 0.96455 0.94266 0.19088 0.0
C461 C 0.95441 0.90823 0.25457 0.0
C462 C 0.90531 0.89457 0.24779 0.0
C463 C 0.83486 0.93093 0.157 0.0
H464 H 0.82938 0.96517 0.11812 0.0
H465 H 0.82038 0.89927 0.11883 0.0
H466 H 0.81358 0.93321 0.22069 0.0
O467 O 0.90195 0.0542 0.1088 0.0
O468 O 0.96539 0.0585 0.20527 0.0
H469 H 0.99263 0.91194 0.37988 0.0
H470 H 0.9802 0.85076 0.34161 0.0
C471 C 0.99079 0.88802 0.31963 0.0
H472 H 1.02714 0.88625 0.28728 0.0
H473 H 1.00781 1.02027 0.38578 0.0
O474 O 0.87354 0.97198 -0.0342 0.0
C475 C 0.92608 0.07607 0.16987 0.0
Co476 Co 0.33498 0.67231 0.80005 0.0
Co477 Co 0.33356 0.7581 0.9389 0.0
C478 C 0.30361 0.77546 0.74898 0.0
O479 O 0.31226 0.73076 0.73109 0.0
O480 O 0.31583 0.7939 0.82494 0.0
C481 C 0.40548 0.62105 0.70458 0.0
O482 O 0.43432 0.65506 0.73758 0.0
C483 C 0.3717 0.84318 0.04534 0.0
C484 C 0.35014 0.82025 0.18221 0.0
C485 C 0.37716 0.85504 0.13624 0.0
N486 N 0.34354 0.80253 0.03882 0.0
N487 N 0.33065 0.78948 0.12115 0.0
C488 C 0.39381 0.86896 -0.03372 0.0
H489 H 0.42731 0.84925 0.94458 0.0
H490 H 0.40365 0.90723 -0.01614 0.0
H491 H 0.36774 0.8687 0.90889 0.0
C492 C 0.40859 0.63784 0.92768 0.0
N493 N 0.38201 0.67491 0.89264 0.0
N494 N 0.3887 0.71445 0.94089 0.0
C495 C 0.42314 0.7043 0.00458 0.0
C496 C 0.43679 0.6552 -0.00218 0.0
C497 C 0.40042 0.58475 0.90702 0.0
H498 H 0.36618 0.57927 0.86814 0.0
H499 H 0.43207 0.57027 0.86885 0.0
H500 H 0.39814 0.56347 -0.02929 0.0
O501 O 0.27716 0.65184 0.85879 0.0
O502 O 0.27286 0.71528 0.95528 0.0
H503 H 0.4195 0.74253 0.12989 0.0
H504 H 0.48066 0.73012 0.0915 0.0
C505 C 0.44339 0.74069 0.0696 0.0
H506 H 0.44512 0.77704 0.03723 0.0
H507 H 0.31116 0.75767 0.13584 0.0
O508 O 0.35938 0.62345 0.71581 0.0
C509 C 0.25529 0.67597 0.91986 0.0
Co510 Co 0.65905 0.08491 0.55003 0.0
Co511 Co 0.57325 0.08348 0.68887 0.0
C512 C 0.55591 0.05355 0.49892 0.0
O513 O 0.6006 0.06219 0.48104 0.0
O514 O 0.53747 0.06576 0.57488 0.0
C515 C 0.7103 0.15538 0.4545 0.0
O516 O 0.67627 0.18422 0.48745 0.0
C517 C 0.48815 0.12164 0.79523 0.0
C518 C 0.51099 0.09999 0.93211 0.0
C519 C 0.47624 0.12706 0.88612 0.0
N520 N 0.52878 0.09346 0.78873 0.0
N521 N 0.54177 0.08051 0.87106 0.0
C522 C 0.46243 0.1438 0.71615 0.0
H523 H 0.48224 0.17723 0.69441 0.0
H524 H 0.42418 0.15375 0.73372 0.0
H525 H 0.46262 0.11771 0.65879 0.0
C526 C 0.6935 0.15856 0.67761 0.0
N527 N 0.65644 0.13195 0.64261 0.0
N528 N 0.61691 0.13862 0.69092 0.0
C529 C 0.62707 0.17305 0.75462 0.0
C530 C 0.67615 0.18674 0.74778 0.0
C531 C 0.7466 0.15041 0.65693 0.0
H532 H 0.75209 0.11617 0.61806 0.0
H533 H 0.76105 0.18207 0.61877 0.0
H534 H 0.76789 0.14814 0.72061 0.0
O535 O 0.67949 1.02709 0.60881 0.0
O536 O 0.61605 1.02278 0.70528 0.0
H537 H 0.5889 0.16922 0.87996 0.0
H538 H 0.60131 0.23044 0.8419 0.0
C539 C 0.59071 0.1932 0.8198 0.0
H540 H 0.55434 0.195 0.78751 0.0
H541 H 0.57356 0.06098 0.88578 0.0
O542 O 0.70792 0.10929 0.46579 0.0
C543 C 0.65536 1.00521 0.66988 0.0
loop_
_geom_bond_atom_site_label_1
_geom_bond_atom_site_label_2
_geom_bond_distance
_geom_bond_site_symmetry_2
_ccdc_geom_bond_type
Co0 O3 1.970 . S
Co0 N17 1.989 . S
Co0 O25 1.967 . S
Co0 O32 1.920 . S
Co1 O4 1.966 . S
Co1 N10 2.022 1_554 S
Co1 N18 1.993 . S
Co1 O26 1.941 1_554 S
C2 O3 1.258 . S
C2 O4 1.263 . S
O3 Co0 1.970 . S
O3 C2 1.258 . S
O4 Co1 1.966 . S
O4 C2 1.263 . S
C5 O6 1.235 . S
C5 O32 1.289 . S
O6 C5 1.235 . S
C7 C9 1.400 . S
C7 N10 1.351 . S
C7 C12 1.501 1_556 S
C8 C9 1.387 . S
C8 N11 1.341 . S
C9 C7 1.400 . S
C9 C8 1.387 . S
N10 Co1 2.022 1_556 S
N10 C7 1.351 . S
N10 N11 1.365 . S
N11 C8 1.341 . S
N11 N10 1.365 . S
N11 H31 0.862 . S
C12 C7 1.501 1_554 S
C12 H13 0.961 . S
C12 H14 0.961 . S
C12 H15 0.960 . S
H13 C12 0.961 . S
H14 C12 0.961 . S
H15 C12 0.960 . S
C16 N17 1.342 . S
C16 C20 1.401 1_554 S
C16 C21 1.499 . S
N17 Co0 1.989 . S
N17 C16 1.342 . S
N17 N18 1.388 . S
N18 Co1 1.993 . S
N18 N17 1.388 . S
N18 C19 1.346 1_554 S
C19 N18 1.346 1_556 S
C19 C20 1.396 . S
C19 C29 1.510 . S
C20 C16 1.401 1_556 S
C20 C19 1.396 . S
C21 C16 1.499 . S
C21 H22 0.959 . S
C21 H23 0.960 . S
C21 H24 0.961 . S
H22 C21 0.959 . S
H23 C21 0.960 . S
H24 C21 0.961 . S
O25 Co0 1.967 . S
O25 C33 1.258 . S
O26 Co1 1.941 1_556 S
O26 C33 1.266 1_556 S
H27 C29 0.959 . S
H28 C29 0.961 . S
C29 C19 1.510 . S
C29 H27 0.959 . S
C29 H28 0.961 . S
C29 H30 0.960 . S
H30 C29 0.960 . S
H31 N11 0.862 . S
O32 Co0 1.920 . S
O32 C5 1.289 . S
C33 O25 1.258 . S
C33 O26 1.266 1_554 S
Co34 O37 1.970 . S
Co34 N51 1.989 . S
Co34 O59 1.967 . S
Co34 O66 1.920 . S
Co35 O38 1.966 . S
Co35 N44 2.022 . S
Co35 N52 1.993 . S
Co35 O60 1.941 . S
C36 O37 1.258 . S
C36 O38 1.263 . S
O37 Co34 1.970 . S
O37 C36 1.258 . S
O38 Co35 1.966 . S
O38 C36 1.263 . S
C39 O40 1.235 . S
C39 O66 1.289 . S
O40 C39 1.235 . S
C41 C43 1.400 . S
C41 N44 1.351 . S
C41 C46 1.501 . S
C42 C43 1.387 . S
C42 N45 1.341 . S
C43 C41 1.400 . S
C43 C42 1.387 . S
N44 Co35 2.022 . S
N44 C41 1.351 . S
N44 N45 1.365 . S
N45 C42 1.341 . S
N45 N44 1.365 . S
N45 H65 0.862 . S
C46 C41 1.501 . S
C46 H47 0.961 . S
C46 H48 0.961 . S
C46 H49 0.960 . S
H47 C46 0.961 . S
H48 C46 0.961 . S
H49 C46 0.960 . S
C50 N51 1.342 . S
C50 C54 1.401 . S
C50 C55 1.499 . S
N51 Co34 1.989 . S
N51 C50 1.342 . S
N51 N52 1.388 . S
N52 Co35 1.993 . S
N52 N51 1.388 . S
N52 C53 1.346 . S
C53 N52 1.346 . S
C53 C54 1.396 . S
C53 C63 1.510 . S
C54 C50 1.401 . S
C54 C53 1.396 . S
C55 C50 1.499 . S
C55 H56 0.959 . S
C55 H57 0.960 . S
C55 H58 0.961 . S
H56 C55 0.959 . S
H57 C55 0.960 . S
H58 C55 0.961 . S
O59 Co34 1.967 . S
O59 C67 1.258 . S
O60 Co35 1.941 . S
O60 C67 1.266 . S
H61 C63 0.959 . S
H62 C63 0.961 . S
C63 C53 1.510 . S
C63 H61 0.959 . S
C63 H62 0.961 . S
C63 H64 0.960 . S
H64 C63 0.960 . S
H65 N45 0.862 . S
O66 Co34 1.920 . S
O66 C39 1.289 . S
C67 O59 1.258 . S
C67 O60 1.266 . S
Co68 O71 1.970 . S
Co68 N85 1.989 . S
Co68 O93 1.967 . S
Co68 O100 1.920 . S
Co69 O72 1.966 . S
Co69 N78 2.022 . S
Co69 N86 1.993 . S
Co69 O94 1.941 . S
C70 O71 1.258 . S
C70 O72 1.263 . S
O71 Co68 1.970 . S
O71 C70 1.258 . S
O72 Co69 1.966 . S
O72 C70 1.263 . S
C73 O74 1.235 . S
C73 O100 1.289 . S
O74 C73 1.235 . S
C75 C77 1.400 . S
C75 N78 1.351 . S
C75 C80 1.501 . S
C76 C77 1.387 . S
C76 N79 1.341 . S
C77 C75 1.400 . S
C77 C76 1.387 . S
N78 Co69 2.022 . S
N78 C75 1.351 . S
N78 N79 1.365 . S
N79 C76 1.341 . S
N79 N78 1.365 . S
N79 H99 0.862 . S
C80 C75 1.501 . S
C80 H81 0.961 . S
C80 H82 0.961 . S
C80 H83 0.960 . S
H81 C80 0.961 . S
H82 C80 0.961 . S
H83 C80 0.960 . S
C84 N85 1.342 . S
C84 C88 1.401 . S
C84 C89 1.499 . S
N85 Co68 1.989 . S
N85 C84 1.342 . S
N85 N86 1.388 . S
N86 Co69 1.993 . S
N86 N85 1.388 . S
N86 C87 1.346 . S
C87 N86 1.346 . S
C87 C88 1.396 . S
C87 C97 1.510 . S
C88 C84 1.401 . S
C88 C87 1.396 . S
C89 C84 1.499 . S
C89 H90 0.959 . S
C89 H91 0.960 . S
C89 H92 0.961 . S
H90 C89 0.959 . S
H91 C89 0.960 . S
H92 C89 0.961 . S
O93 Co68 1.967 . S
O93 C101 1.258 . S
O94 Co69 1.941 . S
O94 C101 1.266 . S
H95 C97 0.959 . S
H96 C97 0.961 . S
C97 C87 1.510 . S
C97 H95 0.959 . S
C97 H96 0.961 . S
C97 H98 0.960 . S
H98 C97 0.960 . S
H99 N79 0.862 . S
O100 Co68 1.920 . S
O100 C73 1.289 . S
C101 O93 1.258 . S
C101 O94 1.266 . S
Co102 O105 1.970 . S
Co102 N119 1.989 . S
Co102 O127 1.967 . S
Co102 O134 1.920 . S
Co103 O106 1.966 . S
Co103 N112 2.022 1_655 S
Co103 N120 1.993 . S
Co103 O128 1.941 . S
C104 O105 1.258 . S
C104 O106 1.263 . S
O105 Co102 1.970 . S
O105 C104 1.258 . S
O106 Co103 1.966 . S
O106 C104 1.263 . S
C107 O108 1.235 . S
C107 O134 1.289 1_554 S
O108 C107 1.235 . S
C109 C111 1.400 . S
C109 N112 1.351 . S
C109 C114 1.501 . S
C110 C111 1.387 . S
C110 N113 1.341 . S
C111 C109 1.400 . S
C111 C110 1.387 . S
N112 Co103 2.022 1_455 S
N112 C109 1.351 . S
N112 N113 1.365 . S
N113 C110 1.341 . S
N113 N112 1.365 . S
N113 H133 0.862 1_455 S
C114 C109 1.501 . S
C114 H115 0.961 . S
C114 H116 0.961 . S
C114 H117 0.960 . S
H115 C114 0.961 . S
H116 C114 0.961 . S
H117 C114 0.960 . S
C118 N119 1.342 . S
C118 C122 1.401 . S
C118 C123 1.499 . S
N119 Co102 1.989 . S
N119 C118 1.342 . S
N119 N120 1.388 . S
N120 Co103 1.993 . S
N120 N119 1.388 . S
N120 C121 1.346 . S
C121 N120 1.346 . S
C121 C122 1.396 . S
C121 C131 1.510 . S
C122 C118 1.401 . S
C122 C121 1.396 . S
C123 C118 1.499 . S
C123 H124 0.959 . S
C123 H125 0.960 . S
C123 H126 0.961 . S
H124 C123 0.959 . S
H125 C123 0.960 . S
H126 C123 0.961 . S
O127 Co102 1.967 . S
O127 C135 1.258 . S
O128 Co103 1.941 . S
O128 C135 1.266 . S
H129 C131 0.959 . S
H130 C131 0.961 . S
C131 C121 1.510 . S
C131 H129 0.959 . S
C131 H130 0.961 . S
C131 H132 0.960 . S
H132 C131 0.960 . S
H133 N113 0.862 1_655 S
O134 Co102 1.920 . S
O134 C107 1.289 1_556 S
C135 O127 1.258 . S
C135 O128 1.266 . S
Co136 O139 1.970 . S
Co136 N153 1.989 . S
Co136 O161 1.967 . S
Co136 O168 1.920 . S
Co137 O140 1.966 . S
Co137 N146 2.022 1_556 S
Co137 N154 1.993 . S
Co137 O162 1.941 1_556 S
C138 O139 1.258 . S
C138 O140 1.263 . S
O139 Co136 1.970 . S
O139 C138 1.258 . S
O140 Co137 1.966 . S
O140 C138 1.263 . S
C141 O142 1.235 . S
C141 O168 1.289 . S
O142 C141 1.235 . S
C143 C145 1.400 . S
C143 N146 1.351 . S
C143 C148 1.501 1_554 S
C144 C145 1.387 . S
C144 N147 1.341 . S
C145 C143 1.400 . S
C145 C144 1.387 . S
N146 Co137 2.022 1_554 S
N146 C143 1.351 . S
N146 N147 1.365 . S
N147 C144 1.341 . S
N147 N146 1.365 . S
N147 H167 0.862 . S
C148 C143 1.501 1_556 S
C148 H149 0.961 . S
C148 H150 0.961 . S
C148 H151 0.960 . S
H149 C148 0.961 . S
H150 C148 0.961 . S
H151 C148 0.960 . S
C152 N153 1.342 . S
C152 C156 1.401 1_556 S
C152 C157 1.499 . S
N153 Co136 1.989 . S
N153 C152 1.342 . S
N153 N154 1.388 . S
N154 Co137 1.993 . S
N154 N153 1.388 . S
N154 C155 1.346 1_556 S
C155 N154 1.346 1_554 S
C155 C156 1.396 . S
C155 C165 1.510 . S
C156 C152 1.401 1_554 S
C156 C155 1.396 . S
C157 C152 1.499 . S
C157 H158 0.959 . S
C157 H159 0.960 . S
C157 H160 0.961 . S
H158 C157 0.959 . S
H159 C157 0.960 . S
H160 C157 0.961 . S
O161 Co136 1.967 . S
O161 C169 1.258 . S
O162 Co137 1.941 1_554 S
O162 C169 1.266 1_554 S
H163 C165 0.959 . S
H164 C165 0.961 . S
C165 C155 1.510 . S
C165 H163 0.959 . S
C165 H164 0.961 . S
C165 H166 0.960 . S
H166 C165 0.960 . S
H167 N147 0.862 . S
O168 Co136 1.920 . S
O168 C141 1.289 . S
C169 O161 1.258 . S
C169 O162 1.266 1_556 S
Co170 O173 1.970 . S
Co170 N187 1.989 . S
Co170 O195 1.967 . S
Co170 O202 1.920 . S
Co171 O174 1.966 . S
Co171 N180 2.022 . S
Co171 N188 1.993 . S
Co171 O196 1.941 . S
C172 O173 1.258 . S
C172 O174 1.263 . S
O173 Co170 1.970 . S
O173 C172 1.258 . S
O174 Co171 1.966 . S
O174 C172 1.263 . S
C175 O176 1.235 . S
C175 O202 1.289 . S
O176 C175 1.235 . S
C177 C179 1.400 . S
C177 N180 1.351 . S
C177 C182 1.501 . S
C178 C179 1.387 . S
C178 N181 1.341 . S
C179 C177 1.400 . S
C179 C178 1.387 . S
N180 Co171 2.022 . S
N180 C177 1.351 . S
N180 N181 1.365 . S
N181 C178 1.341 . S
N181 N180 1.365 . S
N181 H201 0.862 . S
C182 C177 1.501 . S
C182 H183 0.961 . S
C182 H184 0.961 . S
C182 H185 0.960 . S
H183 C182 0.961 . S
H184 C182 0.961 . S
H185 C182 0.960 . S
C186 N187 1.342 . S
C186 C190 1.401 . S
C186 C191 1.499 . S
N187 Co170 1.989 . S
N187 C186 1.342 . S
N187 N188 1.388 . S
N188 Co171 1.993 . S
N188 N187 1.388 . S
N188 C189 1.346 . S
C189 N188 1.346 . S
C189 C190 1.396 . S
C189 C199 1.510 . S
C190 C186 1.401 . S
C190 C189 1.396 . S
C191 C186 1.499 . S
C191 H192 0.959 . S
C191 H193 0.960 . S
C191 H194 0.961 . S
H192 C191 0.959 . S
H193 C191 0.960 . S
H194 C191 0.961 . S
O195 Co170 1.967 . S
O195 C203 1.258 . S
O196 Co171 1.941 . S
O196 C203 1.266 . S
H197 C199 0.959 . S
H198 C199 0.961 . S
C199 C189 1.510 . S
C199 H197 0.959 . S
C199 H198 0.961 . S
C199 H200 0.960 . S
H200 C199 0.960 . S
H201 N181 0.862 . S
O202 Co170 1.920 . S
O202 C175 1.289 . S
C203 O195 1.258 . S
C203 O196 1.266 . S
Co204 O207 1.970 . S
Co204 N221 1.989 . S
Co204 O229 1.967 . S
Co204 O236 1.920 . S
Co205 O208 1.966 . S
Co205 N214 2.022 . S
Co205 N222 1.993 . S
Co205 O230 1.941 . S
C206 O207 1.258 . S
C206 O208 1.263 . S
O207 Co204 1.970 . S
O207 C206 1.258 . S
O208 Co205 1.966 . S
O208 C206 1.263 . S
C209 O210 1.235 . S
C209 O236 1.289 . S
O210 C209 1.235 . S
C211 C213 1.400 . S
C211 N214 1.351 . S
C211 C216 1.501 . S
C212 C213 1.387 . S
C212 N215 1.341 . S
C213 C211 1.400 . S
C213 C212 1.387 . S
N214 Co205 2.022 . S
N214 C211 1.351 . S
N214 N215 1.365 . S
N215 C212 1.341 . S
N215 N214 1.365 . S
N215 H235 0.862 . S
C216 C211 1.501 . S
C216 H217 0.961 . S
C216 H218 0.961 . S
C216 H219 0.960 . S
H217 C216 0.961 . S
H218 C216 0.961 . S
H219 C216 0.960 . S
C220 N221 1.342 . S
C220 C224 1.401 . S
C220 C225 1.499 . S
N221 Co204 1.989 . S
N221 C220 1.342 . S
N221 N222 1.388 . S
N222 Co205 1.993 . S
N222 N221 1.388 . S
N222 C223 1.346 . S
C223 N222 1.346 . S
C223 C224 1.396 . S
C223 C233 1.510 . S
C224 C220 1.401 . S
C224 C223 1.396 . S
C225 C220 1.499 . S
C225 H226 0.959 . S
C225 H227 0.960 . S
C225 H228 0.961 . S
H226 C225 0.959 . S
H227 C225 0.960 . S
H228 C225 0.961 . S
O229 Co204 1.967 . S
O229 C237 1.258 . S
O230 Co205 1.941 . S
O230 C237 1.266 . S
H231 C233 0.959 . S
H232 C233 0.961 . S
C233 C223 1.510 . S
C233 H231 0.959 . S
C233 H232 0.961 . S
C233 H234 0.960 . S
H234 C233 0.960 . S
H235 N215 0.862 . S
O236 Co204 1.920 . S
O236 C209 1.289 . S
C237 O229 1.258 . S
C237 O230 1.266 . S
Co238 O241 1.970 . S
Co238 N255 1.989 . S
Co238 O263 1.967 . S
Co238 O270 1.920 . S
Co239 O242 1.966 . S
Co239 N248 2.022 1_455 S
Co239 N256 1.993 . S
Co239 O264 1.941 . S
C240 O241 1.258 . S
C240 O242 1.263 . S
O241 Co238 1.970 . S
O241 C240 1.258 . S
O242 Co239 1.966 . S
O242 C240 1.263 . S
C243 O244 1.235 . S
C243 O270 1.289 1_556 S
O244 C243 1.235 . S
C245 C247 1.400 . S
C245 N248 1.351 . S
C245 C250 1.501 . S
C246 C247 1.387 . S
C246 N249 1.341 . S
C247 C245 1.400 . S
C247 C246 1.387 . S
N248 Co239 2.022 1_655 S
N248 C245 1.351 . S
N248 N249 1.365 . S
N249 C246 1.341 . S
N249 N248 1.365 . S
N249 H269 0.862 1_655 S
C250 C245 1.501 . S
C250 H251 0.961 . S
C250 H252 0.961 . S
C250 H253 0.960 . S
H251 C250 0.961 . S
H252 C250 0.961 . S
H253 C250 0.960 . S
C254 N255 1.342 . S
C254 C258 1.401 . S
C254 C259 1.499 . S
N255 Co238 1.989 . S
N255 C254 1.342 . S
N255 N256 1.388 . S
N256 Co239 1.993 . S
N256 N255 1.388 . S
N256 C257 1.346 . S
C257 N256 1.346 . S
C257 C258 1.396 . S
C257 C267 1.510 . S
C258 C254 1.401 . S
C258 C257 1.396 . S
C259 C254 1.499 . S
C259 H260 0.959 . S
C259 H261 0.960 . S
C259 H262 0.961 . S
H260 C259 0.959 . S
H261 C259 0.960 . S
H262 C259 0.961 . S
O263 Co238 1.967 . S
O263 C271 1.258 . S
O264 Co239 1.941 . S
O264 C271 1.266 . S
H265 C267 0.959 . S
H266 C267 0.961 . S
C267 C257 1.510 . S
C267 H265 0.959 . S
C267 H266 0.961 . S
C267 H268 0.960 . S
H268 C267 0.960 . S
H269 N249 0.862 1_455 S
O270 Co238 1.920 . S
O270 C243 1.289 1_554 S
C271 O263 1.258 . S
C271 O264 1.266 . S
Co272 O275 1.970 . S
Co272 N289 1.989 . S
Co272 O297 1.967 . S
Co272 O304 1.920 . S
Co273 O276 1.966 . S
Co273 N282 2.022 . S
Co273 N290 1.993 . S
Co273 O298 1.941 . S
C274 O275 1.258 . S
C274 O276 1.263 . S
O275 Co272 1.970 . S
O275 C274 1.258 . S
O276 Co273 1.966 . S
O276 C274 1.263 . S
C277 O278 1.235 . S
C277 O304 1.289 . S
O278 C277 1.235 . S
C279 C281 1.400 . S
C279 N282 1.351 . S
C279 C284 1.501 . S
C280 C281 1.387 . S
C280 N283 1.341 . S
C281 C279 1.400 . S
C281 C280 1.387 . S
N282 Co273 2.022 . S
N282 C279 1.351 . S
N282 N283 1.365 . S
N283 C280 1.341 . S
N283 N282 1.365 . S
N283 H303 0.862 . S
C284 C279 1.501 . S
C284 H285 0.961 . S
C284 H286 0.961 . S
C284 H287 0.960 . S
H285 C284 0.961 . S
H286 C284 0.961 . S
H287 C284 0.960 . S
C288 N289 1.342 . S
C288 C292 1.401 . S
C288 C293 1.499 . S
N289 Co272 1.989 . S
N289 C288 1.342 . S
N289 N290 1.388 . S
N290 Co273 1.993 . S
N290 N289 1.388 . S
N290 C291 1.346 . S
C291 N290 1.346 . S
C291 C292 1.396 . S
C291 C301 1.510 . S
C292 C288 1.401 . S
C292 C291 1.396 . S
C293 C288 1.499 . S
C293 H294 0.959 . S
C293 H295 0.960 . S
C293 H296 0.961 . S
H294 C293 0.959 . S
H295 C293 0.960 . S
H296 C293 0.961 . S
O297 Co272 1.967 . S
O297 C305 1.258 . S
O298 Co273 1.941 . S
O298 C305 1.266 . S
H299 C301 0.959 . S
H300 C301 0.961 . S
C301 C291 1.510 . S
C301 H299 0.959 . S
C301 H300 0.961 . S
C301 H302 0.960 . S
H302 C301 0.960 . S
H303 N283 0.862 . S
O304 Co272 1.920 . S
O304 C277 1.289 . S
C305 O297 1.258 . S
C305 O298 1.266 . S
Co306 O309 1.970 . S
Co306 N323 1.989 . S
Co306 O331 1.967 1_545 S
Co306 O338 1.920 . S
Co307 O310 1.966 . S
Co307 N316 2.022 1_455 S
Co307 N324 1.993 . S
Co307 O332 1.941 1_545 S
C308 O309 1.258 . S
C308 O310 1.263 . S
O309 Co306 1.970 . S
O309 C308 1.258 . S
O310 Co307 1.966 . S
O310 C308 1.263 . S
C311 O312 1.235 . S
C311 O338 1.289 1_554 S
O312 C311 1.235 . S
C313 C315 1.400 . S
C313 N316 1.351 . S
C313 C318 1.501 . S
C314 C315 1.387 . S
C314 N317 1.341 . S
C315 C313 1.400 . S
C315 C314 1.387 . S
N316 Co307 2.022 1_655 S
N316 C313 1.351 . S
N316 N317 1.365 . S
N317 C314 1.341 . S
N317 N316 1.365 . S
N317 H337 0.862 1_655 S
C318 C313 1.501 . S
C318 H319 0.961 . S
C318 H320 0.961 . S
C318 H321 0.960 . S
H319 C318 0.961 . S
H320 C318 0.961 . S
H321 C318 0.960 . S
C322 N323 1.342 . S
C322 C326 1.401 . S
C322 C327 1.499 . S
N323 Co306 1.989 . S
N323 C322 1.342 . S
N323 N324 1.388 . S
N324 Co307 1.993 . S
N324 N323 1.388 . S
N324 C325 1.346 . S
C325 N324 1.346 . S
C325 C326 1.396 . S
C325 C335 1.510 . S
C326 C322 1.401 . S
C326 C325 1.396 . S
C327 C322 1.499 . S
C327 H328 0.959 . S
C327 H329 0.960 . S
C327 H330 0.961 . S
H328 C327 0.959 . S
H329 C327 0.960 . S
H330 C327 0.961 . S
O331 Co306 1.967 1_565 S
O331 C339 1.258 . S
O332 Co307 1.941 1_565 S
O332 C339 1.266 . S
H333 C335 0.959 . S
H334 C335 0.961 . S
C335 C325 1.510 . S
C335 H333 0.959 . S
C335 H334 0.961 . S
C335 H336 0.960 . S
H336 C335 0.960 . S
H337 N317 0.862 1_455 S
O338 Co306 1.920 . S
O338 C311 1.289 1_556 S
C339 O331 1.258 . S
C339 O332 1.266 . S
Co340 O343 1.970 . S
Co340 N357 1.989 . S
Co340 O365 1.967 . S
Co340 O372 1.920 . S
Co341 O344 1.966 . S
Co341 N350 2.022 1_554 S
Co341 N358 1.993 . S
Co341 O366 1.941 1_554 S
C342 O343 1.258 . S
C342 O344 1.263 . S
O343 Co340 1.970 . S
O343 C342 1.258 . S
O344 Co341 1.966 . S
O344 C342 1.263 . S
C345 O346 1.235 . S
C345 O372 1.289 . S
O346 C345 1.235 . S
C347 C349 1.400 . S
C347 N350 1.351 . S
C347 C352 1.501 1_556 S
C348 C349 1.387 . S
C348 N351 1.341 . S
C349 C347 1.400 . S
C349 C348 1.387 . S
N350 Co341 2.022 1_556 S
N350 C347 1.351 . S
N350 N351 1.365 . S
N351 C348 1.341 . S
N351 N350 1.365 . S
N351 H371 0.862 . S
C352 C347 1.501 1_554 S
C352 H353 0.961 . S
C352 H354 0.961 . S
C352 H355 0.960 . S
H353 C352 0.961 . S
H354 C352 0.961 . S
H355 C352 0.960 . S
C356 N357 1.342 . S
C356 C360 1.401 1_554 S
C356 C361 1.499 . S
N357 Co340 1.989 . S
N357 C356 1.342 . S
N357 N358 1.388 . S
N358 Co341 1.993 . S
N358 N357 1.388 . S
N358 C359 1.346 1_554 S
C359 N358 1.346 1_556 S
C359 C360 1.396 . S
C359 C369 1.510 . S
C360 C356 1.401 1_556 S
C360 C359 1.396 . S
C361 C356 1.499 . S
C361 H362 0.959 . S
C361 H363 0.960 . S
C361 H364 0.961 . S
H362 C361 0.959 . S
H363 C361 0.960 . S
H364 C361 0.961 . S
O365 Co340 1.967 . S
O365 C373 1.258 . S
O366 Co341 1.941 1_556 S
O366 C373 1.266 1_556 S
H367 C369 0.959 . S
H368 C369 0.961 . S
C369 C359 1.510 . S
C369 H367 0.959 . S
C369 H368 0.961 . S
C369 H370 0.960 . S
H370 C369 0.960 . S
H371 N351 0.862 . S
O372 Co340 1.920 . S
O372 C345 1.289 . S
C373 O365 1.258 . S
C373 O366 1.266 1_554 S
Co374 O377 1.970 . S
Co374 N391 1.989 . S
Co374 O399 1.967 1_565 S
Co374 O406 1.920 . S
Co375 O378 1.966 . S
Co375 N384 2.022 . S
Co375 N392 1.993 . S
Co375 O400 1.941 1_565 S
C376 O377 1.258 . S
C376 O378 1.263 . S
O377 Co374 1.970 . S
O377 C376 1.258 . S
O378 Co375 1.966 . S
O378 C376 1.263 . S
C379 O380 1.235 . S
C379 O406 1.289 . S
O380 C379 1.235 . S
C381 C383 1.400 . S
C381 N384 1.351 . S
C381 C386 1.501 . S
C382 C383 1.387 . S
C382 N385 1.341 . S
C383 C381 1.400 . S
C383 C382 1.387 . S
N384 Co375 2.022 . S
N384 C381 1.351 . S
N384 N385 1.365 . S
N385 C382 1.341 . S
N385 N384 1.365 . S
N385 H405 0.862 . S
C386 C381 1.501 . S
C386 H387 0.961 . S
C386 H388 0.961 . S
C386 H389 0.960 . S
H387 C386 0.961 . S
H388 C386 0.961 . S
H389 C386 0.960 . S
C390 N391 1.342 . S
C390 C394 1.401 . S
C390 C395 1.499 . S
N391 Co374 1.989 . S
N391 C390 1.342 . S
N391 N392 1.388 . S
N392 Co375 1.993 . S
N392 N391 1.388 . S
N392 C393 1.346 . S
C393 N392 1.346 . S
C393 C394 1.396 . S
C393 C403 1.510 . S
C394 C390 1.401 . S
C394 C393 1.396 . S
C395 C390 1.499 . S
C395 H396 0.959 . S
C395 H397 0.960 . S
C395 H398 0.961 . S
H396 C395 0.959 . S
H397 C395 0.960 . S
H398 C395 0.961 . S
O399 Co374 1.967 1_545 S
O399 C407 1.258 . S
O400 Co375 1.941 1_545 S
O400 C407 1.266 . S
H401 C403 0.959 . S
H402 C403 0.961 . S
C403 C393 1.510 . S
C403 H401 0.959 . S
C403 H402 0.961 . S
C403 H404 0.960 . S
H404 C403 0.960 . S
H405 N385 0.862 . S
O406 Co374 1.920 . S
O406 C379 1.289 . S
C407 O399 1.258 . S
C407 O400 1.266 . S
Co408 O411 1.970 . S
Co408 N425 1.989 . S
Co408 O433 1.967 . S
Co408 O440 1.920 . S
Co409 O412 1.966 . S
Co409 N418 2.022 . S
Co409 N426 1.993 . S
Co409 O434 1.941 . S
C410 O411 1.258 . S
C410 O412 1.263 . S
O411 Co408 1.970 . S
O411 C410 1.258 . S
O412 Co409 1.966 . S
O412 C410 1.263 . S
C413 O414 1.235 . S
C413 O440 1.289 . S
O414 C413 1.235 . S
C415 C417 1.400 . S
C415 N418 1.351 . S
C415 C420 1.501 . S
C416 C417 1.387 . S
C416 N419 1.341 . S
C417 C415 1.400 . S
C417 C416 1.387 . S
N418 Co409 2.022 . S
N418 C415 1.351 . S
N418 N419 1.365 . S
N419 C416 1.341 . S
N419 N418 1.365 . S
N419 H439 0.862 . S
C420 C415 1.501 . S
C420 H421 0.961 . S
C420 H422 0.961 . S
C420 H423 0.960 . S
H421 C420 0.961 . S
H422 C420 0.961 . S
H423 C420 0.960 . S
C424 N425 1.342 . S
C424 C428 1.401 . S
C424 C429 1.499 . S
N425 Co408 1.989 . S
N425 C424 1.342 . S
N425 N426 1.388 . S
N426 Co409 1.993 . S
N426 N425 1.388 . S
N426 C427 1.346 . S
C427 N426 1.346 . S
C427 C428 1.396 . S
C427 C437 1.510 . S
C428 C424 1.401 . S
C428 C427 1.396 . S
C429 C424 1.499 . S
C429 H430 0.959 . S
C429 H431 0.960 . S
C429 H432 0.961 . S
H430 C429 0.959 . S
H431 C429 0.960 . S
H432 C429 0.961 . S
O433 Co408 1.967 . S
O433 C441 1.258 . S
O434 Co409 1.941 . S
O434 C441 1.266 . S
H435 C437 0.959 . S
H436 C437 0.961 . S
C437 C427 1.510 . S
C437 H435 0.959 . S
C437 H436 0.961 . S
C437 H438 0.960 . S
H438 C437 0.960 . S
H439 N419 0.862 . S
O440 Co408 1.920 . S
O440 C413 1.289 . S
C441 O433 1.258 . S
C441 O434 1.266 . S
Co442 O445 1.970 . S
Co442 N459 1.989 . S
Co442 O467 1.967 1_565 S
Co442 O474 1.920 . S
Co443 O446 1.966 . S
Co443 N452 2.022 1_655 S
Co443 N460 1.993 . S
Co443 O468 1.941 1_565 S
C444 O445 1.258 . S
C444 O446 1.263 . S
O445 Co442 1.970 . S
O445 C444 1.258 . S
O446 Co443 1.966 . S
O446 C444 1.263 . S
C447 O448 1.235 . S
C447 O474 1.289 1_556 S
O448 C447 1.235 . S
C449 C451 1.400 . S
C449 N452 1.351 . S
C449 C454 1.501 . S
C450 C451 1.387 . S
C450 N453 1.341 . S
C451 C449 1.400 . S
C451 C450 1.387 . S
N452 Co443 2.022 1_455 S
N452 C449 1.351 . S
N452 N453 1.365 . S
N453 C450 1.341 . S
N453 N452 1.365 . S
N453 H473 0.862 1_455 S
C454 C449 1.501 . S
C454 H455 0.961 . S
C454 H456 0.961 . S
C454 H457 0.960 . S
H455 C454 0.961 . S
H456 C454 0.961 . S
H457 C454 0.960 . S
C458 N459 1.342 . S
C458 C462 1.401 . S
C458 C463 1.499 . S
N459 Co442 1.989 . S
N459 C458 1.342 . S
N459 N460 1.388 . S
N460 Co443 1.993 . S
N460 N459 1.388 . S
N460 C461 1.346 . S
C461 N460 1.346 . S
C461 C462 1.396 . S
C461 C471 1.510 . S
C462 C458 1.401 . S
C462 C461 1.396 . S
C463 C458 1.499 . S
C463 H464 0.959 . S
C463 H465 0.960 . S
C463 H466 0.961 . S
H464 C463 0.959 . S
H465 C463 0.960 . S
H466 C463 0.961 . S
O467 Co442 1.967 1_545 S
O467 C475 1.258 . S
O468 Co443 1.941 1_545 S
O468 C475 1.266 . S
H469 C471 0.959 . S
H470 C471 0.961 . S
C471 C461 1.510 . S
C471 H469 0.959 . S
C471 H470 0.961 . S
C471 H472 0.960 . S
H472 C471 0.960 . S
H473 N453 0.862 1_655 S
O474 Co442 1.920 . S
O474 C447 1.289 1_554 S
C475 O467 1.258 . S
C475 O468 1.266 . S
Co476 O479 1.970 . S
Co476 N493 1.989 . S
Co476 O501 1.967 . S
Co476 O508 1.920 . S
Co477 O480 1.966 . S
Co477 N486 2.022 1_556 S
Co477 N494 1.993 . S
Co477 O502 1.941 1_556 S
C478 O479 1.258 . S
C478 O480 1.263 . S
O479 Co476 1.970 . S
O479 C478 1.258 . S
O480 Co477 1.966 . S
O480 C478 1.263 . S
C481 O482 1.235 . S
C481 O508 1.289 . S
O482 C481 1.235 . S
C483 C485 1.400 . S
C483 N486 1.351 . S
C483 C488 1.501 1_554 S
C484 C485 1.387 . S
C484 N487 1.341 . S
C485 C483 1.400 . S
C485 C484 1.387 . S
N486 Co477 2.022 1_554 S
N486 C483 1.351 . S
N486 N487 1.365 . S
N487 C484 1.341 . S
N487 N486 1.365 . S
N487 H507 0.862 . S
C488 C483 1.501 1_556 S
C488 H489 0.961 . S
C488 H490 0.961 . S
C488 H491 0.960 . S
H489 C488 0.961 . S
H490 C488 0.961 . S
H491 C488 0.960 . S
C492 N493 1.342 . S
C492 C496 1.401 1_556 S
C492 C497 1.499 . S
N493 Co476 1.989 . S
N493 C492 1.342 . S
N493 N494 1.388 . S
N494 Co477 1.993 . S
N494 N493 1.388 . S
N494 C495 1.346 1_556 S
C495 N494 1.346 1_554 S
C495 C496 1.396 . S
C495 C505 1.510 . S
C496 C492 1.401 1_554 S
C496 C495 1.396 . S
C497 C492 1.499 . S
C497 H498 0.959 . S
C497 H499 0.960 . S
C497 H500 0.961 . S
H498 C497 0.959 . S
H499 C497 0.960 . S
H500 C497 0.961 . S
O501 Co476 1.967 . S
O501 C509 1.258 . S
O502 Co477 1.941 1_554 S
O502 C509 1.266 1_554 S
H503 C505 0.959 . S
H504 C505 0.961 . S
C505 C495 1.510 . S
C505 H503 0.959 . S
C505 H504 0.961 . S
C505 H506 0.960 . S
H506 C505 0.960 . S
H507 N487 0.862 . S
O508 Co476 1.920 . S
O508 C481 1.289 . S
C509 O501 1.258 . S
C509 O502 1.266 1_556 S
Co510 O513 1.970 . S
Co510 N527 1.989 . S
Co510 O535 1.967 1_545 S
Co510 O542 1.920 . S
Co511 O514 1.966 . S
Co511 N520 2.022 . S
Co511 N528 1.993 . S
Co511 O536 1.941 1_545 S
C512 O513 1.258 . S
C512 O514 1.263 . S
O513 Co510 1.970 . S
O513 C512 1.258 . S
O514 Co511 1.966 . S
O514 C512 1.263 . S
C515 O516 1.235 . S
C515 O542 1.289 . S
O516 C515 1.235 . S
C517 C519 1.400 . S
C517 N520 1.351 . S
C517 C522 1.501 . S
C518 C519 1.387 . S
C518 N521 1.341 . S
C519 C517 1.400 . S
C519 C518 1.387 . S
N520 Co511 2.022 . S
N520 C517 1.351 . S
N520 N521 1.365 . S
N521 C518 1.341 . S
N521 N520 1.365 . S
N521 H541 0.862 . S
C522 C517 1.501 . S
C522 H523 0.961 . S
C522 H524 0.961 . S
C522 H525 0.960 . S
H523 C522 0.961 . S
H524 C522 0.961 . S
H525 C522 0.960 . S
C526 N527 1.342 . S
C526 C530 1.401 . S
C526 C531 1.499 . S
N527 Co510 1.989 . S
N527 C526 1.342 . S
N527 N528 1.388 . S
N528 Co511 1.993 . S
N528 N527 1.388 . S
N528 C529 1.346 . S
C529 N528 1.346 . S
C529 C530 1.396 . S
C529 C539 1.510 . S
C530 C526 1.401 . S
C530 C529 1.396 . S
C531 C526 1.499 . S
C531 H532 0.959 . S
C531 H533 0.960 . S
C531 H534 0.961 . S
H532 C531 0.959 . S
H533 C531 0.960 . S
H534 C531 0.961 . S
O535 Co510 1.967 1_565 S
O535 C543 1.258 . S
O536 Co511 1.941 1_565 S
O536 C543 1.266 . S
H537 C539 0.959 . S
H538 C539 0.961 . S
C539 C529 1.510 . S
C539 H537 0.959 . S
C539 H538 0.961 . S
C539 H540 0.960 . S
H540 C539 0.960 . S
H541 N521 0.862 . S
O542 Co510 1.920 . S
O542 C515 1.289 . S
C543 O535 1.258 . S
C543 O536 1.266 . S
C519 C20 1.956 . S
C54 C145 1.956 . S
C88 C451 1.956 . S
C122 C213 1.956 . S
C156 C383 1.956 . S
C9 C190 1.956 . S
C315 C224 1.956 . S
C258 C77 1.956 . S
C292 C247 1.956 . S
C326 C417 1.956 . S
C179 C360 1.956 . S
C394 C485 1.956 . S
C428 C111 1.956 . S
C462 C281 1.956 . S
C43 C496 1.956 . S
C530 C349 1.956 . S
C2 C410 2.943 . S
C172 C36 2.943 . S
C70 C478 2.943 . S
C104 C240 2.943 1_656 S
C274 C138 2.943 . S
C342 C206 2.943 . S
C444 C308 2.943 1_664 S
C376 C512 2.943 1_565 S
C311 C33 1.982 . S
C67 C345 1.982 . S
C101 C379 1.982 . S
C277 C135 1.982 . S
C169 C447 1.982 . S
C203 C481 1.982 . S
C237 C515 1.982 . S
C271 C413 1.982 . S
C39 C305 1.981 . S
C339 C73 1.982 . S
C373 C107 1.981 . S
C407 C5 1.982 . S
C441 C175 1.981 . S
C209 C475 1.982 . S
C243 C509 1.981 . S
C543 C141 1.982 . S
