# Generated by pormake.
# Topology umw, (4)-cn, num edge types: 1
# Building blocks:
#     Node 0, Type 0, BuildingBlock: KUFVIS_clean_sbu_0, # of connection points: 4
#     Node 1, Type 0, BuildingBlock: KUFVIS_clean_sbu_0, # of connection points: 4
#     Node 2, Type 0, BuildingBlock: KUFVIS_clean_sbu_0, # of connection points: 4
#     Node 3, Type 0, BuildingBlock: KUFVIS_clean_sbu_0, # of connection points: 4
#     Node 4, Type 0, BuildingBlock: KUFVIS_clean_sbu_0, # of connection points: 4
#     Node 5, Type 0, BuildingBlock: KUFVIS_clean_sbu_0, # of connection points: 4
#     Node 6, Type 0, BuildingBlock: KUFVIS_clean_sbu_0, # of connection points: 4
#     Node 7, Type 0, BuildingBlock: KUFVIS_clean_sbu_0, # of connection points: 4
#     Edge 8, Type (0, 0), BuildingBlock: XUDNAN_clean_linker_2, # of connection points: 2
#     Edge 9, Type (0, 0), BuildingBlock: XUDNAN_clean_linker_2, # of connection points: 2
#     Edge 10, Type (0, 0), BuildingBlock: XUDNAN_clean_linker_2, # of connection points: 2
#     Edge 11, Type (0, 0), BuildingBlock: XUDNAN_clean_linker_2, # of connection points: 2
#     Edge 12, Type (0, 0), BuildingBlock: XUDNAN_clean_linker_2, # of connection points: 2
#     Edge 13, Type (0, 0), BuildingBlock: XUDNAN_clean_linker_2, # of connection points: 2
#     Edge 14, Type (0, 0), BuildingBlock: XUDNAN_clean_linker_2, # of connection points: 2
#     Edge 15, Type (0, 0), BuildingBlock: XUDNAN_clean_linker_2, # of connection points: 2
#     Edge 16, Type (0, 0), BuildingBlock: XUDNAN_clean_linker_2, # of connection points: 2
#     Edge 17, Type (0, 0), BuildingBlock: XUDNAN_clean_linker_2, # of connection points: 2
#     Edge 18, Type (0, 0), BuildingBlock: XUDNAN_clean_linker_2, # of connection points: 2
#     Edge 19, Type (0, 0), BuildingBlock: XUDNAN_clean_linker_2, # of connection points: 2
#     Edge 20, Type (0, 0), BuildingBlock: XUDNAN_clean_linker_2, # of connection points: 2
#     Edge 21, Type (0, 0), BuildingBlock: XUDNAN_clean_linker_2, # of connection points: 2
#     Edge 22, Type (0, 0), BuildingBlock: XUDNAN_clean_linker_2, # of connection points: 2
#     Edge 23, Type (0, 0), BuildingBlock: XUDNAN_clean_linker_2, # of connection points: 2
# Relax obj value: 0.132
# Max RMSD: 0.105
# Mean RMSD: 0.105
data_MOF--net-umw--node1-KUFVIS_clean_sbu_0--edge1-XUDNAN_clean_linker_2
_symmetry_space_group_name_H-M    P1
_symmetry_Int_Tables_number       1
_symmetry_cell_setting            triclinic
loop_
_symmetry_equiv_pos_as_xyz
'x, y, z'
_cell_length_a     41.478191
_cell_length_b     41.492536
_cell_length_c     25.139287
_cell_angle_alpha  90.081927
_cell_angle_beta   90.192765
_cell_angle_gamma 90.040947
loop_
_atom_site_label
_atom_site_type_symbol
_atom_site_fract_x
_atom_site_fract_y
_atom_site_fract_z
_atom_type_partial_charge
Mn0 Mn 0.44582 0.181 0.30167 0.0
Mn1 Mn 0.51828 0.14381 0.2953 0.0
C2 C 0.47014 0.16069 0.3777 0.0
C3 C 0.41673 0.22898 0.31738 0.0
C4 C 0.45522 0.11049 0.26639 0.0
O5 O 0.46253 0.19492 0.22765 0.0
O6 O 0.51083 0.17039 0.23165 0.0
C7 C 0.55834 0.20275 0.30348 0.0
N8 N 0.5502 0.17299 0.32192 0.0
C9 C 0.59017 0.17617 0.39131 0.0
C10 C 0.59911 0.20677 0.37286 0.0
C11 C 0.583 0.22018 0.32893 0.0
C12 C 0.56506 0.16018 0.36488 0.0
H13 H 0.54608 0.21313 0.26965 0.0
C14 C 0.49033 0.18841 0.20811 0.0
O15 O 0.40313 0.20435 0.29438 0.0
O16 O 0.44721 0.22641 0.32718 0.0
N17 N 0.52961 0.11709 0.35451 0.0
C18 C 0.51967 0.08642 0.36499 0.0
C19 C 0.53421 0.06908 0.40657 0.0
C20 C 0.55927 0.08316 0.43627 0.0
C21 C 0.56985 0.11431 0.42364 0.0
C22 C 0.55459 0.13034 0.3815 0.0
H23 H 0.50081 0.0752 0.34184 0.0
O24 O 0.43951 0.16652 0.37695 0.0
O25 O 0.48562 0.16749 0.33457 0.0
O26 O 0.4363 0.13438 0.27551 0.0
O27 O 0.48596 0.11241 0.27006 0.0
C28 C 0.59516 0.12995 0.45087 0.0
C29 C 0.6052 0.16093 0.43488 0.0
H30 H 0.61824 0.22021 0.39221 0.0
H31 H 0.58966 0.24384 0.3146 0.0
H32 H 0.52617 0.04488 0.41558 0.0
H33 H 0.57035 0.06977 0.46845 0.0
H34 H 0.60711 0.11835 0.48408 0.0
H35 H 0.62464 0.17275 0.4562 0.0
Mn36 Mn 0.85622 0.43966 0.57 0.0
Mn37 Mn 0.90168 0.50641 0.58494 0.0
C38 C 0.86633 0.45967 0.65503 0.0
C39 C 0.80689 0.41139 0.57275 0.0
C40 C 0.92963 0.44095 0.5596 0.0
O41 O 0.8495 0.46115 0.49699 0.0
O42 O 0.88328 0.50262 0.51249 0.0
C43 C 0.85303 0.558 0.56911 0.0
N44 N 0.87791 0.54505 0.59727 0.0
C45 C 0.88557 0.59424 0.64664 0.0
C46 C 0.86026 0.6083 0.61768 0.0
C47 C 0.84366 0.58996 0.57925 0.0
C48 C 0.89357 0.56227 0.6351 0.0
H49 H 0.84076 0.54418 0.53877 0.0
C50 C 0.86329 0.48742 0.48272 0.0
O51 O 0.83255 0.39851 0.55232 0.0
O52 O 0.80903 0.4415 0.58571 0.0
N53 N 0.92084 0.51461 0.65272 0.0
C54 C 0.93968 0.49538 0.6836 0.0
C55 C 0.95631 0.50891 0.727 0.0
C56 C 0.95335 0.54204 0.73795 0.0
C57 C 0.93286 0.56109 0.7065 0.0
C58 C 0.91666 0.54612 0.66433 0.0
H59 H 0.94171 0.46997 0.6752 0.0
O60 O 0.86399 0.42908 0.64555 0.0
O61 O 0.86727 0.47815 0.61304 0.0
O62 O 0.90316 0.42605 0.55183 0.0
O63 O 0.93074 0.4703 0.57339 0.0
C64 C 0.92652 0.59389 0.71694 0.0
C65 C 0.90272 0.61039 0.68725 0.0
H66 H 0.85302 0.63296 0.62525 0.0
H67 H 0.82397 0.60058 0.55703 0.0
H68 H 0.9715 0.49391 0.75177 0.0
H69 H 0.96616 0.55238 0.7715 0.0
H70 H 0.93881 0.60625 0.74913 0.0
H71 H 0.89725 0.63524 0.69685 0.0
Mn72 Mn 0.58022 0.84569 0.81236 0.0
Mn73 Mn 0.51371 0.88874 0.78566 0.0
C74 C 0.54546 0.85992 0.88131 0.0
C75 C 0.60802 0.79786 0.83523 0.0
C76 C 0.57965 0.91876 0.79357 0.0
O77 O 0.57287 0.83398 0.73409 0.0
O78 O 0.53354 0.87039 0.72059 0.0
C79 C 0.47338 0.83429 0.74656 0.0
N80 N 0.47732 0.86056 0.77853 0.0
C81 C 0.42155 0.85892 0.80459 0.0
C82 C 0.41689 0.83202 0.77163 0.0
C83 C 0.44301 0.81946 0.74291 0.0
C84 C 0.45258 0.87212 0.80769 0.0
H85 H 0.49312 0.82474 0.72376 0.0
C86 C 0.5526 0.84837 0.70391 0.0
O87 O 0.62332 0.82316 0.8184 0.0
O88 O 0.57688 0.79945 0.83368 0.0
N89 N 0.49009 0.9082 0.84244 0.0
C90 C 0.49883 0.9332 0.87453 0.0
C91 C 0.47556 0.94844 0.90623 0.0
C92 C 0.44331 0.93819 0.90391 0.0
C93 C 0.43481 0.91231 0.87083 0.0
C94 C 0.45918 0.89781 0.84068 0.0
H95 H 0.52337 0.94111 0.87634 0.0
O96 O 0.57641 0.8582 0.88804 0.0
O97 O 0.53571 0.85729 0.83212 0.0
O98 O 0.59506 0.89216 0.79393 0.0
O99 O 0.54898 0.9202 0.79361 0.0
C100 C 0.4031 0.90033 0.86656 0.0
C101 C 0.39656 0.87336 0.83402 0.0
H102 H 0.39337 0.82083 0.76808 0.0
H103 H 0.43965 0.79866 0.71746 0.0
H104 H 0.48241 0.9682 0.93204 0.0
H105 H 0.42537 0.95013 0.92815 0.0
H106 H 0.38374 0.91117 0.88917 0.0
H107 H 0.37224 0.86392 0.83194 0.0
Mn108 Mn 0.16397 0.59502 0.0469 0.0
Mn109 Mn 0.13522 0.51966 0.02826 0.0
C110 C 0.15157 0.5629 0.12067 0.0
C111 C 0.20358 0.63403 0.06875 0.0
C112 C 0.09423 0.57925 0.01391 0.0
O113 O 0.18067 0.58499 0.97116 0.0
O114 O 0.15771 0.53601 0.9652 0.0
C115 C 0.19689 0.48447 0.01596 0.0
N116 N 0.16757 0.48769 0.03957 0.0
C117 C 0.17077 0.43437 0.07658 0.0
C118 C 0.2011 0.43048 0.05292 0.0
C119 C 0.21438 0.45581 0.02301 0.0
C120 C 0.15512 0.46396 0.06997 0.0
H121 H 0.20659 0.50342 0.99131 0.0
C122 C 0.17446 0.55888 0.9457 0.0
O123 O 0.17684 0.6415 0.04494 0.0
O124 O 0.20898 0.60346 0.07478 0.0
N125 N 0.11254 0.49928 0.08484 0.0
C126 C 0.08354 0.5074 0.10637 0.0
C127 C 0.06731 0.48508 0.13861 0.0
C128 C 0.08048 0.45427 0.14676 0.0
C129 C 0.11011 0.44628 0.1235 0.0
C130 C 0.12567 0.46988 0.09322 0.0
H131 H 0.07268 0.53056 0.09842 0.0
O132 O 0.14858 0.59399 0.12142 0.0
O133 O 0.15869 0.55066 0.0744 0.0
O134 O 0.11668 0.59977 0.02132 0.0
O135 O 0.09918 0.5491 0.01594 0.0
C136 C 0.1247 0.41575 0.12873 0.0
C137 C 0.15515 0.40987 0.1056 0.0
H138 H 0.21431 0.40812 0.0572 0.0
H139 H 0.23769 0.45293 0.00439 0.0
H140 H 0.04434 0.49133 0.1561 0.0
H141 H 0.06761 0.43692 0.17088 0.0
H142 H 0.11308 0.39688 0.15141 0.0
H143 H 0.16643 0.38655 0.11074 0.0
Mn144 Mn 0.39884 0.80708 0.27602 0.0
Mn145 Mn 0.47918 0.82238 0.2714 0.0
C146 C 0.42566 0.80738 0.19599 0.0
C147 C 0.3541 0.77195 0.27404 0.0
C148 C 0.42926 0.87533 0.27905 0.0
O149 O 0.41214 0.80011 0.35435 0.0
O150 O 0.46434 0.81413 0.34451 0.0
C151 C 0.49936 0.7565 0.30222 0.0
N152 N 0.50113 0.78193 0.26815 0.0
C153 C 0.54084 0.75484 0.21478 0.0
C154 C 0.53959 0.72845 0.24948 0.0
C155 C 0.51864 0.72923 0.29326 0.0
C156 C 0.52079 0.78119 0.22544 0.0
H157 H 0.48336 0.757 0.33596 0.0
C158 C 0.44042 0.80565 0.37301 0.0
O159 O 0.35147 0.80177 0.28939 0.0
O160 O 0.38321 0.76157 0.26678 0.0
N161 N 0.49857 0.83104 0.20388 0.0
C162 C 0.49787 0.85895 0.17536 0.0
C163 C 0.51864 0.8627 0.13178 0.0
C164 C 0.53968 0.83771 0.11753 0.0
C165 C 0.54057 0.80954 0.14814 0.0
C166 C 0.52002 0.80753 0.19214 0.0
H167 H 0.48204 0.87846 0.18636 0.0
O168 O 0.39493 0.81236 0.19793 0.0
O169 O 0.44041 0.80222 0.24091 0.0
O170 O 0.40477 0.85669 0.28419 0.0
O171 O 0.458 0.86485 0.27304 0.0
C172 C 0.56121 0.78346 0.13694 0.0
C173 C 0.56115 0.75601 0.16999 0.0
H174 H 0.55454 0.70744 0.24284 0.0
H175 H 0.51745 0.70892 0.32013 0.0
H176 H 0.51893 0.88506 0.10979 0.0
H177 H 0.55536 0.84059 0.0835 0.0
H178 H 0.57713 0.78422 0.10289 0.0
H179 H 0.57696 0.73602 0.16078 0.0
Mn180 Mn 0.23112 0.41745 0.51515 0.0
Mn181 Mn 0.19587 0.49092 0.52824 0.0
C182 C 0.21909 0.44821 0.44102 0.0
C183 C 0.27689 0.38466 0.50412 0.0
C184 C 0.15954 0.42761 0.53897 0.0
O185 O 0.23838 0.42827 0.59491 0.0
O186 O 0.21764 0.47872 0.59459 0.0
C187 C 0.25477 0.53073 0.5395 0.0
N188 N 0.22639 0.52431 0.51423 0.0
C189 C 0.2327 0.57032 0.45703 0.0
C190 C 0.26194 0.57752 0.48258 0.0
C191 C 0.27307 0.55756 0.52386 0.0
C192 C 0.2156 0.54318 0.47419 0.0
H193 H 0.26333 0.51548 0.57133 0.0
C194 C 0.23192 0.45531 0.61754 0.0
O195 O 0.24957 0.37273 0.51979 0.0
O196 O 0.27838 0.4158 0.50038 0.0
N197 N 0.17346 0.50637 0.46681 0.0
C198 C 0.1447 0.49615 0.44657 0.0
C199 C 0.12987 0.51382 0.40577 0.0
C200 C 0.1448 0.54168 0.38585 0.0
C201 C 0.17406 0.5521 0.40802 0.0
C202 C 0.18731 0.53394 0.44958 0.0
H203 H 0.13292 0.47492 0.46189 0.0
O204 O 0.22307 0.41737 0.43674 0.0
O205 O 0.22245 0.4604 0.48822 0.0
O206 O 0.18288 0.40867 0.52821 0.0
O207 O 0.1624 0.45821 0.54212 0.0
C208 C 0.19062 0.57979 0.39056 0.0
C209 C 0.22001 0.58879 0.41486 0.0
H210 H 0.27612 0.5982 0.47066 0.0
H211 H 0.29566 0.56291 0.54367 0.0
H212 H 0.10687 0.50602 0.3899 0.0
H213 H 0.13348 0.55499 0.35381 0.0
H214 H 0.18109 0.59417 0.3582 0.0
H215 H 0.23269 0.60992 0.40071 0.0
Mn216 Mn 0.62558 0.21572 0.76903 0.0
Mn217 Mn 0.55088 0.18393 0.78592 0.0
C218 C 0.59764 0.19532 0.69682 0.0
C219 C 0.65703 0.26185 0.75103 0.0
C220 C 0.61284 0.14719 0.80915 0.0
O221 O 0.61359 0.22963 0.84547 0.0
O222 O 0.56204 0.21249 0.8456 0.0
C223 C 0.51481 0.24501 0.77375 0.0
N224 N 0.52006 0.21392 0.75866 0.0
C225 C 0.47682 0.21616 0.69483 0.0
C226 C 0.47081 0.24815 0.70986 0.0
C227 C 0.49005 0.2627 0.74924 0.0
C228 C 0.50243 0.20005 0.71956 0.0
H229 H 0.52942 0.2562 0.80423 0.0
C230 C 0.58568 0.22736 0.86682 0.0
O231 O 0.66977 0.23629 0.77233 0.0
O232 O 0.62612 0.26128 0.74409 0.0
N233 N 0.53515 0.15512 0.73225 0.0
C234 C 0.54089 0.12282 0.72806 0.0
C235 C 0.52267 0.10418 0.69227 0.0
C236 C 0.49791 0.11862 0.6625 0.0
C237 C 0.49103 0.15138 0.66994 0.0
C238 C 0.51003 0.16874 0.70622 0.0
H239 H 0.55924 0.11129 0.75186 0.0
O240 O 0.62824 0.2009 0.69353 0.0
O241 O 0.58377 0.20362 0.74094 0.0
O242 O 0.63295 0.16874 0.79371 0.0
O243 O 0.58229 0.15169 0.81187 0.0
C244 C 0.46518 0.16711 0.64446 0.0
C245 C 0.45808 0.19948 0.65691 0.0
H246 H 0.45142 0.26172 0.69159 0.0
H247 H 0.48562 0.2874 0.76099 0.0
H248 H 0.52757 0.0787 0.68792 0.0
H249 H 0.48384 0.10416 0.63502 0.0
H250 H 0.45028 0.15439 0.61585 0.0
H251 H 0.43801 0.21127 0.63733 0.0
Mn252 Mn 0.78642 0.60576 0.03558 0.0
Mn253 Mn 0.81314 0.52843 0.04501 0.0
C254 C 0.78533 0.57253 0.96156 0.0
C255 C 0.74426 0.64374 0.03378 0.0
C256 C 0.85809 0.58623 0.03638 0.0
O257 O 0.78732 0.59847 0.11658 0.0
O258 O 0.8024 0.54628 0.11533 0.0
C259 C 0.75231 0.49847 0.0815 0.0
N260 N 0.77783 0.49897 0.04762 0.0
C261 C 0.76159 0.4488 0.00767 0.0
C262 C 0.7352 0.44758 0.04237 0.0
C263 C 0.73043 0.47264 0.07921 0.0
C264 C 0.78236 0.47529 0.0115 0.0
H265 H 0.74879 0.51758 0.1101 0.0
C266 C 0.79372 0.57175 0.13991 0.0
O267 O 0.77404 0.65264 0.0405 0.0
O268 O 0.73886 0.61298 0.03449 0.0
N269 N 0.82508 0.50654 0.98102 0.0
C270 C 0.85064 0.51228 0.94843 0.0
C271 C 0.85891 0.48943 0.90954 0.0
C272 C 0.84094 0.46088 0.90464 0.0
C273 C 0.81471 0.45549 0.93852 0.0
C274 C 0.80791 0.4789 0.97706 0.0
H275 H 0.86472 0.53404 0.95227 0.0
O276 O 0.78509 0.60357 0.95704 0.0
O277 O 0.78609 0.56108 0.00974 0.0
O278 O 0.8365 0.60827 0.0342 0.0
O279 O 0.85136 0.55637 0.04143 0.0
C280 C 0.79464 0.42816 0.93487 0.0
C281 C 0.76795 0.42493 0.96915 0.0
H282 H 0.71835 0.42764 0.04088 0.0
H283 H 0.71007 0.47194 0.10599 0.0
H284 H 0.87924 0.49366 0.88361 0.0
H285 H 0.8473 0.44342 0.87437 0.0
H286 H 0.79919 0.40975 0.90524 0.0
H287 H 0.75239 0.40407 0.96539 0.0
H288 H 0.49737 0.21034 0.42916 0.0
H289 H 0.47672 0.10847 0.44308 0.0
H290 H 0.51133 0.10568 0.52402 0.0
H291 H 0.57796 0.21579 0.48558 0.0
H292 H 0.5679 0.2517 0.52179 0.0
H293 H 0.54718 0.24245 0.4605 0.0
H294 H 0.49471 0.24927 0.51445 0.0
H295 H 0.51507 0.25332 0.57756 0.0
H296 H 0.48582 0.22176 0.56736 0.0
H297 H 0.56104 0.11364 0.58571 0.0
H298 H 0.59472 0.13382 0.66069 0.0
H299 H 0.56586 0.23157 0.62476 0.0
C300 C 0.50058 0.18742 0.44911 0.0
C301 C 0.48688 0.15899 0.42852 0.0
C302 C 0.48897 0.1299 0.45719 0.0
C303 C 0.50845 0.12817 0.50277 0.0
C304 C 0.52387 0.15621 0.51985 0.0
C305 C 0.51825 0.18568 0.49613 0.0
C306 C 0.53217 0.21309 0.52858 0.0
C307 C 0.55779 0.23184 0.49714 0.0
C308 C 0.50538 0.2357 0.54826 0.0
C309 C 0.54733 0.19419 0.57346 0.0
C310 C 0.54421 0.16137 0.56545 0.0
C311 C 0.56182 0.13911 0.595 0.0
C312 C 0.58077 0.15066 0.6371 0.0
C313 C 0.58008 0.18366 0.65055 0.0
C314 C 0.56438 0.2059 0.61725 0.0
H315 H 0.86292 0.52109 0.69337 0.0
H316 H 0.82962 0.42443 0.72544 0.0
H317 H 0.79504 0.44554 0.79712 0.0
H318 H 0.87332 0.54197 0.83021 0.0
H319 H 0.8639 0.58354 0.81624 0.0
H320 H 0.8807 0.5583 0.76562 0.0
H321 H 0.83092 0.57475 0.7052 0.0
H322 H 0.81461 0.59759 0.75983 0.0
H323 H 0.79107 0.56608 0.72906 0.0
H324 H 0.76212 0.47942 0.86451 0.0
H325 H 0.75187 0.51643 0.94073 0.0
H326 H 0.81615 0.58675 0.87156 0.0
C327 C 0.84934 0.50422 0.71586 0.0
C328 C 0.84983 0.47129 0.70365 0.0
C329 C 0.8302 0.45001 0.73395 0.0
C330 C 0.80989 0.46181 0.77415 0.0
C331 C 0.80995 0.49481 0.7843 0.0
C332 C 0.83026 0.51538 0.75727 0.0
C333 C 0.83011 0.54878 0.78073 0.0
C334 C 0.86399 0.55876 0.79948 0.0
C335 C 0.81583 0.57327 0.74139 0.0
C336 C 0.80793 0.54348 0.82688 0.0
C337 C 0.79477 0.5129 0.82664 0.0
C338 C 0.77325 0.50299 0.86589 0.0
C339 C 0.76798 0.52376 0.90923 0.0
C340 C 0.78549 0.55286 0.91337 0.0
C341 C 0.80368 0.56381 0.87011 0.0
H342 H 0.41779 0.84738 0.11268 0.0
H343 H 0.46631 0.76018 0.16266 0.0
H344 H 0.49747 0.7597 0.07872 0.0
H345 H 0.41864 0.81947 0.96619 0.0
H346 H 0.42215 0.85987 0.94193 0.0
H347 H 0.39878 0.85197 0.00075 0.0
H348 H 0.43194 0.89208 0.0567 0.0
H349 H 0.45365 0.90259 -0.00228 0.0
H350 H 0.47525 0.88982 0.05574 0.0
H351 H 0.53203 0.77715 0.00352 0.0
H352 H 0.56125 0.80475 0.93223 0.0
H353 H 0.48852 0.87949 0.92999 0.0
C354 C 0.43468 0.82801 0.10524 0.0
C355 C 0.44137 0.80484 0.14446 0.0
C356 C 0.46233 0.77893 0.13344 0.0
C357 C 0.47964 0.77823 0.08577 0.0
C358 C 0.47453 0.80302 0.0494 0.0
C359 C 0.4517 0.82674 0.05765 0.0
C360 C 0.45113 0.85064 0.01249 0.0
C361 C 0.42083 0.84516 0.9784 0.0
C362 C 0.45315 0.88579 0.03194 0.0
C363 C 0.48095 0.8401 0.98279 0.0
C364 C 0.49311 0.81167 0.00324 0.0
C365 C 0.522 0.79865 0.98564 0.0
C366 C 0.53858 0.81481 0.94542 0.0
C367 C 0.52653 0.84395 0.92347 0.0
C368 C 0.49742 0.85664 0.94285 0.0
H369 H 0.17658 0.43953 0.36024 0.0
H370 H 0.25601 0.49937 0.4132 0.0
H371 H 0.24854 0.53483 0.33481 0.0
H372 H 0.20226 0.4474 0.22372 0.0
H373 H 0.16324 0.44739 0.19365 0.0
H374 H 0.17003 0.42432 0.2533 0.0
H375 H 0.12669 0.45469 0.31126 0.0
H376 H 0.11466 0.46922 0.24685 0.0
H377 H 0.12213 0.49741 0.29936 0.0
H378 H 0.22759 0.56687 0.25697 0.0
H379 H 0.20072 0.58873 0.17734 0.0
H380 H 0.13561 0.50715 0.17595 0.0
C381 C 0.19211 0.46031 0.35531 0.0
C382 C 0.21569 0.46805 0.39348 0.0
C383 C 0.23691 0.49418 0.38497 0.0
C384 C 0.23295 0.51422 0.34065 0.0
C385 C 0.20814 0.5071 0.30506 0.0
C386 C 0.1885 0.48047 0.31138 0.0
C387 C 0.1658 0.47652 0.26487 0.0
C388 C 0.17594 0.44704 0.23211 0.0
C389 C 0.13028 0.4743 0.28183 0.0
C390 C 0.17272 0.50727 0.23494 0.0
C391 C 0.19793 0.52408 0.25789 0.0
C392 C 0.2082 0.55358 0.23809 0.0
C393 C 0.19254 0.56589 0.19312 0.0
C394 C 0.16656 0.54901 0.16884 0.0
C395 C 0.15636 0.51961 0.19081 0.0
H396 H 0.35294 0.23243 0.35011 0.0
H397 H 0.44043 0.28898 0.33525 0.0
H398 H 0.41475 0.3338 0.38362 0.0
H399 H 0.29576 0.30026 0.33736 0.0
H400 H 0.26844 0.28404 0.3861 0.0
H401 H 0.29287 0.25728 0.34669 0.0
H402 H 0.31544 0.23175 0.43303 0.0
H403 H 0.29156 0.25886 0.4727 0.0
H404 H 0.33462 0.25713 0.48208 0.0
H405 H 0.3808 0.37187 0.43665 0.0
H406 H 0.33924 0.40222 0.4857 0.0
H407 H 0.2736 0.32127 0.47005 0.0
C408 C 0.36632 0.25459 0.3558 0.0
C409 C 0.39864 0.25731 0.33814 0.0
C410 C 0.41562 0.28639 0.34788 0.0
C411 C 0.40127 0.31197 0.37561 0.0
C412 C 0.36984 0.30822 0.39395 0.0
C413 C 0.35238 0.28043 0.38412 0.0
C414 C 0.31927 0.2825 0.40987 0.0
C415 C 0.2925 0.28094 0.36748 0.0
C416 C 0.31498 0.25598 0.45191 0.0
C417 C 0.32096 0.3157 0.43562 0.0
C418 C 0.35041 0.33004 0.42585 0.0
C419 C 0.35765 0.36086 0.44457 0.0
C420 C 0.33392 0.37789 0.47273 0.0
C421 C 0.30324 0.36411 0.48243 0.0
C422 C 0.29699 0.3323 0.46428 0.0
H423 H 0.80552 0.34711 0.6009 0.0
H424 H 0.74562 0.43247 0.5899 0.0
H425 H 0.70158 0.4037 0.63566 0.0
H426 H 0.74038 0.28699 0.58443 0.0
H427 H 0.75786 0.25972 0.63222 0.0
H428 H 0.78346 0.28603 0.59409 0.0
H429 H 0.80792 0.3084 0.68156 0.0
H430 H 0.78195 0.28264 0.72 0.0
H431 H 0.78166 0.32557 0.73107 0.0
H432 H 0.6648 0.36674 0.68593 0.0
H433 H 0.63655 0.32312 0.73339 0.0
H434 H 0.72055 0.26177 0.71669 0.0
C435 C 0.78277 0.35938 0.60665 0.0
C436 C 0.77881 0.39193 0.59076 0.0
C437 C 0.74906 0.40747 0.60088 0.0
C438 C 0.72395 0.39135 0.62719 0.0
C439 C 0.72895 0.35969 0.6438 0.0
C440 C 0.7575 0.34372 0.63366 0.0
C441 C 0.75702 0.31014 0.65804 0.0
C442 C 0.75984 0.28418 0.6146 0.0
C443 C 0.78373 0.30649 0.70016 0.0
C444 C 0.72379 0.30979 0.68351 0.0
C445 C 0.70806 0.33865 0.67458 0.0
C446 C 0.67691 0.34407 0.69317 0.0
C447 C 0.6611 0.31916 0.72037 0.0
C448 C 0.67638 0.28912 0.72945 0.0
C449 C 0.70842 0.28464 0.71138 0.0
H450 H 0.75124 0.70417 0.98835 0.0
H451 H 0.67942 0.63324 0.03314 0.0
H452 H 0.63759 0.66462 0.98637 0.0
H453 H 0.6976 0.7757 -0.00207 0.0
H454 H 0.71558 0.79497 0.94107 0.0
H455 H 0.73935 0.76848 0.98221 0.0
H456 H 0.75375 0.73466 0.89903 0.0
H457 H 0.72951 0.76063 0.8578 0.0
H458 H 0.72184 0.71787 0.85873 0.0
H459 H 0.60423 0.70097 0.92909 0.0
H460 H 0.5801 0.74296 0.87253 0.0
H461 H 0.67273 0.79139 0.86322 0.0
C462 C 0.72653 0.69578 0.98972 0.0
C463 C 0.71862 0.6663 0.01514 0.0
C464 C 0.6861 0.65579 0.01454 0.0
C465 C 0.66216 0.6734 0.98775 0.0
C466 C 0.67093 0.70163 0.96147 0.0
C467 C 0.7022 0.7131 0.9628 0.0
C468 C 0.70517 0.74367 0.92967 0.0
C469 C 0.715 0.77241 0.96482 0.0
C470 C 0.72899 0.73891 0.88358 0.0
C471 C 0.67079 0.74734 0.90914 0.0
C472 C 0.65155 0.7227 0.92801 0.0
C473 C 0.61904 0.72047 0.91437 0.0
C474 C 0.60558 0.74442 0.88179 0.0
C475 C 0.62442 0.77052 0.8629 0.0
C476 C 0.65766 0.77165 0.8764 0.0
H477 H 0.26467 0.62851 0.1146 0.0
H478 H 0.18687 0.69648 0.0873 0.0
H479 H 0.21488 0.73666 0.14284 0.0
H480 H 0.28234 0.65059 0.24986 0.0
H481 H 0.32549 0.64741 0.24341 0.0
H482 H 0.29947 0.6232 0.20195 0.0
H483 H 0.32672 0.646 0.11744 0.0
H484 H 0.35319 0.66981 0.15868 0.0
H485 H 0.32897 0.68903 0.10823 0.0
H486 H 0.24946 0.76879 0.20566 0.0
H487 H 0.29302 0.79446 0.25749 0.0
H488 H 0.35131 0.70829 0.23988 0.0
C489 C 0.25375 0.65199 0.11979 0.0
C490 C 0.22342 0.65918 0.09629 0.0
C491 C 0.21006 0.69026 0.10432 0.0
C492 C 0.22569 0.71327 0.13634 0.0
C493 C 0.25508 0.70524 0.15979 0.0
C494 C 0.26945 0.67568 0.15092 0.0
C495 C 0.30204 0.67405 0.17894 0.0
C496 C 0.30234 0.64722 0.22104 0.0
C497 C 0.32934 0.66946 0.1384 0.0
C498 C 0.30362 0.70725 0.20486 0.0
C499 C 0.27591 0.72452 0.19408 0.0
C500 C 0.27137 0.75557 0.21401 0.0
C501 C 0.29624 0.76989 0.24394 0.0
C502 C 0.32572 0.75354 0.25316 0.0
C503 C 0.32905 0.72146 0.23404 0.0
H504 H 0.47493 0.92112 0.2575 0.0
H505 H 0.37341 0.91092 0.29544 0.0
H506 H 0.36705 0.97028 0.28914 0.0
H507 H 0.48928 0.9929 0.33038 0.0
H508 H 0.51689 1.00892 0.28196 0.0
H509 H 0.51247 0.96601 0.28909 0.0
H510 H 0.49871 0.96132 0.18857 0.0
H511 H 0.50276 1.00432 0.18133 0.0
H512 H 0.46588 0.98461 0.16147 0.0
H513 H 0.37343 0.03261 0.28217 0.0
H514 H 0.3921 0.08937 0.27825 0.0
H515 H 0.48835 0.05595 0.23957 0.0
C516 C 0.4512 0.93109 0.26449 0.0
C517 C 0.42467 0.91104 0.27711 0.0
C518 C 0.39418 0.92559 0.28581 0.0
C519 C 0.39032 0.95933 0.28212 0.0
C520 C 0.41708 0.97824 0.26912 0.0
C521 C 0.44689 0.9644 0.26043 0.0
C522 C 0.47217 0.9895 0.2478 0.0
C523 C 0.49928 0.98931 0.28981 0.0
C524 C 0.48566 0.98464 0.19144 0.0
C525 C 0.45217 0.01987 0.25131 0.0
C526 C 0.42042 0.01316 0.26362 0.0
C527 C 0.39818 0.03796 0.27195 0.0
C528 C 0.40895 0.07023 0.26925 0.0
C529 C 0.44171 0.07744 0.25829 0.0
C530 C 0.46308 0.05164 0.24764 0.0
H531 H 0.98103 0.45238 0.62215 0.0
H532 H 0.95076 0.3939 0.48827 0.0
H533 H 1.00764 0.37586 0.47654 0.0
H534 H 0.04785 0.48262 0.5683 0.0
H535 H 0.07149 0.48315 0.6286 0.0
H536 H 0.02838 0.48543 0.63218 0.0
H537 H 0.02722 0.43539 0.69369 0.0
H538 H 0.07058 0.43304 0.69067 0.0
H539 H 0.04641 0.39857 0.6726 0.0
H540 H 0.07031 0.37165 0.47288 0.0
H541 H 0.12915 0.38284 0.47571 0.0
H542 H 0.11519 0.44516 0.61182 0.0
C543 C 0.98585 0.43491 0.59141 0.0
C544 C 0.96131 0.42441 0.55642 0.0
C545 C 0.96909 0.40193 0.51606 0.0
C546 C 1.00135 0.39165 0.50919 0.0
C547 C 0.02517 0.40365 0.54367 0.0
C548 C 0.0174 0.42453 0.58447 0.0
C549 C 0.04691 0.43717 0.61302 0.0
C550 C 0.04874 0.47426 0.61028 0.0
C551 C 0.04783 0.42532 0.67092 0.0
C552 C 0.07301 0.42155 0.58043 0.0
C553 C 0.06032 0.40163 0.54131 0.0
C554 C 0.08032 0.38666 0.50408 0.0
C555 C 0.11373 0.39298 0.50611 0.0
C556 C 0.12657 0.41456 0.54443 0.0
C557 C 0.10598 0.4282 0.58267 0.0
H558 H 0.56573 0.96846 0.85924 0.0
H559 H 0.63331 0.9397 0.73754 0.0
H560 H 0.65694 0.99496 0.73929 0.0
H561 H 0.54732 0.04248 0.80789 0.0
H562 H 0.5428 0.06195 0.87156 0.0
H563 H 0.53586 0.01939 0.86555 0.0
H564 H 0.57821 1.00896 0.93982 0.0
H565 H 0.58554 0.05166 0.94549 0.0
H566 H 0.61855 0.02453 0.93264 0.0
H567 H 0.66719 0.0566 0.74694 0.0
H568 H 0.66136 0.11578 0.75596 0.0
H569 H 0.58643 0.10169 0.87319 0.0
C570 C 0.58558 0.97343 0.83316 0.0
C571 C 0.59733 0.94982 0.79785 0.0
C572 C 0.62399 0.95742 0.76516 0.0
C573 C 0.63751 0.98873 0.766 0.0
C574 C 0.62442 0.0118 0.80051 0.0
C575 C 0.59915 1.00414 0.8338 0.0
C576 C 0.587 0.03322 0.86392 0.0
C577 C 0.55115 0.03963 0.85143 0.0
C578 C 0.59268 0.02935 0.92403 0.0
C579 C 0.60846 0.05907 0.84104 0.0
C580 C 0.63036 0.04642 0.8052 0.0
C581 C 0.65059 0.06652 0.77575 0.0
C582 C 0.64734 0.10018 0.7815 0.0
C583 C 0.62372 0.11337 0.81587 0.0
C584 C 0.6051 0.09236 0.84738 0.0
H585 H 0.90727 0.5444 0.01689 0.0
H586 H 0.88845 0.64616 0.04194 0.0
H587 H 0.94712 0.65732 0.03263 0.0
H588 H 0.97968 0.53914 0.08801 0.0
H589 H 0.99773 0.51093 0.04241 0.0
H590 H 0.95463 0.51213 0.0497 0.0
H591 H 0.94822 0.52132 0.94812 0.0
H592 H 0.99138 0.52023 0.94051 0.0
H593 H 0.96886 0.55456 0.91709 0.0
H594 H 1.01031 0.65544 0.02589 0.0
H595 H 0.06838 0.64097 0.02205 0.0
H596 H 0.04186 0.541 -0.00418 0.0
C597 C 0.91511 0.56921 0.02018 0.0
C598 C 0.89297 0.59439 0.03036 0.0
C599 C 0.90481 0.6264 0.03419 0.0
C600 C 0.93813 0.63293 0.02885 0.0
C601 C 0.95918 0.60729 0.01882 0.0
C602 C 0.94779 0.57611 0.01413 0.0
C603 C 0.97465 0.55238 0.00384 0.0
C604 C 0.97679 0.52718 0.04866 0.0
C605 C 0.97053 0.53618 0.94914 0.0
C606 C 1.00333 0.57478 0.00458 0.0
C607 C 0.99429 0.60641 0.01318 0.0
C608 C 0.01744 0.63076 0.01846 0.0
C609 C 0.05043 0.62235 0.01601 0.0
C610 C 0.05997 0.58985 0.00829 0.0
C611 C 0.03577 0.56616 0.0013 0.0
H612 H 0.60584 0.19888 0.95729 0.0
H613 H 0.54666 0.27645 0.89711 0.0
H614 H 0.5169 0.27822 0.98215 0.0
H615 H 0.54556 0.15718 0.01138 0.0
H616 H 0.56649 0.14254 0.06944 0.0
H617 H 0.5888 0.15272 0.01068 0.0
H618 H 0.62418 0.19296 0.06391 0.0
H619 H 0.60279 0.18206 0.12353 0.0
H620 H 0.60519 0.22371 0.10367 0.0
H621 H 0.48671 0.26388 0.06799 0.0
H622 H 0.46408 0.23922 0.14991 0.0
H623 H 0.54247 0.16993 0.14998 0.0
C624 C 0.5882 0.21774 0.96357 0.0
C625 C 0.57944 0.23842 0.92153 0.0
C626 C 0.55459 0.26129 0.92968 0.0
C627 C 0.53724 0.26213 0.97765 0.0
C628 C 0.545 0.23986 0.01716 0.0
C629 C 0.57046 0.21856 0.01099 0.0
C630 C 0.57162 0.19453 0.05617 0.0
C631 C 0.56789 0.15971 0.03566 0.0
C632 C 0.60279 0.19857 0.08876 0.0
C633 C 0.5424 0.20493 0.08774 0.0
C634 C 0.52733 0.2312 0.06518 0.0
C635 C 0.49874 0.24364 0.08648 0.0
C636 C 0.48582 0.22929 0.1327 0.0
C637 C 0.5014 0.20268 0.15686 0.0
C638 C 0.52991 0.19045 0.13329 0.0
H639 H 0.77807 0.51987 0.20071 0.0
H640 H 0.81618 0.61705 0.21003 0.0
H641 H 0.83538 0.6061 0.30152 0.0
H642 H 0.75504 0.5128 0.34651 0.0
H643 H 0.76639 0.47088 0.34769 0.0
H644 H 0.75048 0.48843 0.28753 0.0
H645 H 0.80118 0.46916 0.23702 0.0
H646 H 0.81781 0.45245 0.29712 0.0
H647 H 0.8405 0.48172 0.2598 0.0
H648 H 0.86007 0.58131 0.38144 0.0
H649 H 0.88 0.54865 0.45494 0.0
H650 H 0.82366 0.46689 0.39846 0.0
C651 C 0.78918 0.53932 0.22295 0.0
C652 C 0.79541 0.56949 0.19854 0.0
C653 C 0.81059 0.59411 0.22832 0.0
C654 C 0.82187 0.58791 0.28007 0.0
C655 C 0.81715 0.55722 0.30157 0.0
C656 C 0.80027 0.5336 0.27472 0.0
C657 C 0.80035 0.50202 0.30547 0.0
C658 C 0.76602 0.49301 0.32284 0.0
C659 C 0.81589 0.47475 0.27289 0.0
C660 C 0.82117 0.51115 0.35288 0.0
C661 C 0.83058 0.54309 0.3494 0.0
C662 C 0.85207 0.55659 0.38542 0.0
C663 C 0.8635 0.53745 0.42701 0.0
C664 C 0.85318 0.50493 0.4335 0.0
C665 C 0.8318 0.49161 0.39533 0.0
H666 H 0.52707 0.88176 0.62084 0.0
H667 H 0.55649 0.78571 0.66798 0.0
H668 H 0.52601 0.76293 0.59162 0.0
H669 H 0.44808 0.86227 0.58863 0.0
H670 H 0.44482 0.88921 0.53266 0.0
H671 H 0.47222 0.89839 0.58629 0.0
H672 H 0.52036 0.90154 0.52097 0.0
H673 H 0.49287 0.89395 0.46683 0.0
H674 H 0.52765 0.86851 0.47594 0.0
H675 H 0.48791 0.75084 0.5124 0.0
H676 H 0.45443 0.75164 0.43038 0.0
H677 H 0.44854 0.85553 0.44009 0.0
C678 C 0.5281 0.85598 0.61412 0.0
C679 C 0.54455 0.83557 0.65018 0.0
C680 C 0.54476 0.80193 0.64032 0.0
C681 C 0.52697 0.78875 0.59755 0.0
C682 C 0.50921 0.80954 0.56499 0.0
C683 C 0.51036 0.84253 0.57222 0.0
C684 C 0.4887 0.85989 0.53306 0.0
C685 C 0.46188 0.87853 0.56191 0.0
C686 C 0.50858 0.88228 0.49705 0.0
C687 C 0.47504 0.8316 0.50235 0.0
C688 C 0.48687 0.80266 0.52141 0.0
C689 C 0.47836 0.77339 0.49761 0.0
C690 C 0.45879 0.77395 0.45164 0.0
C691 C 0.44782 0.80353 0.43025 0.0
C692 C 0.45538 0.8325 0.457 0.0
H693 H 0.14828 0.52148 0.86901 0.0
H694 H 0.23459 0.57608 0.90623 0.0
H695 H 0.26259 0.54959 0.83038 0.0
H696 H 0.18732 0.44843 0.84246 0.0
H697 H 0.16012 0.43646 0.78993 0.0
H698 H 0.14614 0.46229 0.84264 0.0
H699 H 0.12805 0.50564 0.7745 0.0
H700 H 0.1405 0.47923 0.72166 0.0
H701 H 0.15631 0.51965 0.72535 0.0
H702 H 0.28061 0.51507 0.74893 0.0
H703 H 0.28416 0.48229 0.66655 0.0
H704 H 0.18763 0.4467 0.69295 0.0
C705 C 0.1729 0.52854 0.86063 0.0
C706 C 0.18915 0.55115 0.89334 0.0
C707 C 0.22141 0.55939 0.88111 0.0
C708 C 0.23762 0.544 0.83866 0.0
C709 C 0.22126 0.52028 0.80938 0.0
C710 C 0.1894 0.51305 0.81969 0.0
C711 C 0.17694 0.48635 0.78412 0.0
C712 C 0.16706 0.45663 0.81676 0.0
C713 C 0.14881 0.49844 0.74933 0.0
C714 C 0.20666 0.47956 0.75138 0.0
C715 C 0.2321 0.49928 0.76623 0.0
C716 C 0.26103 0.49912 0.73793 0.0
C717 C 0.26317 0.47987 0.69177 0.0
C718 C 0.23677 0.46071 0.67486 0.0
C719 C 0.20882 0.45963 0.70659 0.0
loop_
_geom_bond_atom_site_label_1
_geom_bond_atom_site_label_2
_geom_bond_distance
_geom_bond_site_symmetry_2
_ccdc_geom_bond_type
Mn0 O5 2.095 . S
Mn0 O15 2.162 . S
Mn0 O16 2.297 . S
Mn0 O24 2.385 . S
Mn0 O25 2.209 . S
Mn0 O26 2.094 . S
Mn1 O6 2.121 . S
Mn1 N8 2.257 . S
Mn1 N17 2.282 . S
Mn1 O25 2.215 . S
Mn1 O27 2.117 . S
C2 O24 1.234 . S
C2 O25 1.283 . S
C3 O15 1.281 . S
C3 O16 1.236 . S
C4 O26 1.240 . S
C4 O27 1.264 . S
O5 Mn0 2.095 . S
O5 C14 1.250 . S
O6 Mn1 2.121 . S
O6 C14 1.258 . S
C7 N8 1.326 . S
C7 C11 1.460 . S
C7 H13 0.929 . S
N8 Mn1 2.257 . S
N8 C7 1.326 . S
N8 C12 1.362 . S
C9 C10 1.258 . S
C9 C12 1.431 . S
C9 C29 1.449 . S
C10 C9 1.258 . S
C10 C11 1.477 . S
C10 H30 0.931 . S
C11 C7 1.460 . S
C11 C10 1.477 . S
C11 H31 0.930 . S
C12 N8 1.362 . S
C12 C9 1.431 . S
C12 C22 1.476 . S
H13 C7 0.929 . S
C14 O5 1.250 . S
C14 O6 1.258 . S
O15 Mn0 2.162 . S
O15 C3 1.281 . S
O16 Mn0 2.297 . S
O16 C3 1.236 . S
N17 Mn1 2.282 . S
N17 C18 1.328 . S
N17 C22 1.318 . S
C18 N17 1.328 . S
C18 C19 1.457 . S
C18 H23 0.929 . S
C19 C18 1.457 . S
C19 C20 1.291 . S
C19 H32 0.931 . S
C20 C19 1.291 . S
C20 C21 1.373 . S
C20 H33 0.929 . S
C21 C20 1.373 . S
C21 C22 1.396 . S
C21 C28 1.403 . S
C22 C12 1.476 . S
C22 N17 1.318 . S
C22 C21 1.396 . S
H23 C18 0.929 . S
O24 Mn0 2.385 . S
O24 C2 1.234 . S
O25 Mn0 2.209 . S
O25 Mn1 2.215 . S
O25 C2 1.283 . S
O26 Mn0 2.094 . S
O26 C4 1.240 . S
O27 Mn1 2.117 . S
O27 C4 1.264 . S
C28 C21 1.403 . S
C28 C29 1.399 . S
C28 H34 0.929 . S
C29 C9 1.449 . S
C29 C28 1.399 . S
C29 H35 0.930 . S
H30 C10 0.931 . S
H31 C11 0.930 . S
H32 C19 0.931 . S
H33 C20 0.929 . S
H34 C28 0.929 . S
H35 C29 0.930 . S
Mn36 O41 2.095 . S
Mn36 O51 2.162 . S
Mn36 O52 2.297 . S
Mn36 O60 2.385 . S
Mn36 O61 2.209 . S
Mn36 O62 2.094 . S
Mn37 O42 2.121 . S
Mn37 N44 2.257 . S
Mn37 N53 2.282 . S
Mn37 O61 2.215 . S
Mn37 O63 2.117 . S
C38 O60 1.234 . S
C38 O61 1.283 . S
C39 O51 1.281 . S
C39 O52 1.236 . S
C40 O62 1.240 . S
C40 O63 1.264 . S
O41 Mn36 2.095 . S
O41 C50 1.250 . S
O42 Mn37 2.121 . S
O42 C50 1.258 . S
C43 N44 1.326 . S
C43 C47 1.460 . S
C43 H49 0.929 . S
N44 Mn37 2.257 . S
N44 C43 1.326 . S
N44 C48 1.362 . S
C45 C46 1.258 . S
C45 C48 1.431 . S
C45 C65 1.449 . S
C46 C45 1.258 . S
C46 C47 1.477 . S
C46 H66 0.931 . S
C47 C43 1.460 . S
C47 C46 1.477 . S
C47 H67 0.930 . S
C48 N44 1.362 . S
C48 C45 1.431 . S
C48 C58 1.476 . S
H49 C43 0.929 . S
C50 O41 1.250 . S
C50 O42 1.258 . S
O51 Mn36 2.162 . S
O51 C39 1.281 . S
O52 Mn36 2.297 . S
O52 C39 1.236 . S
N53 Mn37 2.282 . S
N53 C54 1.328 . S
N53 C58 1.318 . S
C54 N53 1.328 . S
C54 C55 1.457 . S
C54 H59 0.929 . S
C55 C54 1.457 . S
C55 C56 1.291 . S
C55 H68 0.931 . S
C56 C55 1.291 . S
C56 C57 1.373 . S
C56 H69 0.929 . S
C57 C56 1.373 . S
C57 C58 1.396 . S
C57 C64 1.403 . S
C58 C48 1.476 . S
C58 N53 1.318 . S
C58 C57 1.396 . S
H59 C54 0.929 . S
O60 Mn36 2.385 . S
O60 C38 1.234 . S
O61 Mn36 2.209 . S
O61 Mn37 2.215 . S
O61 C38 1.283 . S
O62 Mn36 2.094 . S
O62 C40 1.240 . S
O63 Mn37 2.117 . S
O63 C40 1.264 . S
C64 C57 1.403 . S
C64 C65 1.399 . S
C64 H70 0.929 . S
C65 C45 1.449 . S
C65 C64 1.399 . S
C65 H71 0.930 . S
H66 C46 0.931 . S
H67 C47 0.930 . S
H68 C55 0.931 . S
H69 C56 0.929 . S
H70 C64 0.929 . S
H71 C65 0.930 . S
Mn72 O77 2.095 . S
Mn72 O87 2.162 . S
Mn72 O88 2.297 . S
Mn72 O96 2.385 . S
Mn72 O97 2.209 . S
Mn72 O98 2.094 . S
Mn73 O78 2.121 . S
Mn73 N80 2.257 . S
Mn73 N89 2.282 . S
Mn73 O97 2.215 . S
Mn73 O99 2.117 . S
C74 O96 1.234 . S
C74 O97 1.283 . S
C75 O87 1.281 . S
C75 O88 1.236 . S
C76 O98 1.240 . S
C76 O99 1.264 . S
O77 Mn72 2.095 . S
O77 C86 1.250 . S
O78 Mn73 2.121 . S
O78 C86 1.258 . S
C79 N80 1.326 . S
C79 C83 1.460 . S
C79 H85 0.929 . S
N80 Mn73 2.257 . S
N80 C79 1.326 . S
N80 C84 1.362 . S
C81 C82 1.258 . S
C81 C84 1.431 . S
C81 C101 1.449 . S
C82 C81 1.258 . S
C82 C83 1.477 . S
C82 H102 0.931 . S
C83 C79 1.460 . S
C83 C82 1.477 . S
C83 H103 0.930 . S
C84 N80 1.362 . S
C84 C81 1.431 . S
C84 C94 1.476 . S
H85 C79 0.929 . S
C86 O77 1.250 . S
C86 O78 1.258 . S
O87 Mn72 2.162 . S
O87 C75 1.281 . S
O88 Mn72 2.297 . S
O88 C75 1.236 . S
N89 Mn73 2.282 . S
N89 C90 1.328 . S
N89 C94 1.318 . S
C90 N89 1.328 . S
C90 C91 1.457 . S
C90 H95 0.929 . S
C91 C90 1.457 . S
C91 C92 1.291 . S
C91 H104 0.931 . S
C92 C91 1.291 . S
C92 C93 1.373 . S
C92 H105 0.929 1_556 S
C93 C92 1.373 . S
C93 C94 1.396 . S
C93 C100 1.403 . S
C94 C84 1.476 . S
C94 N89 1.318 . S
C94 C93 1.396 . S
H95 C90 0.929 . S
O96 Mn72 2.385 . S
O96 C74 1.234 . S
O97 Mn72 2.209 . S
O97 Mn73 2.215 . S
O97 C74 1.283 . S
O98 Mn72 2.094 . S
O98 C76 1.240 . S
O99 Mn73 2.117 . S
O99 C76 1.264 . S
C100 C93 1.403 . S
C100 C101 1.399 . S
C100 H106 0.929 . S
C101 C81 1.449 . S
C101 C100 1.399 . S
C101 H107 0.930 . S
H102 C82 0.931 . S
H103 C83 0.930 . S
H104 C91 0.931 . S
H105 C92 0.929 1_554 S
H106 C100 0.929 . S
H107 C101 0.930 . S
Mn108 O113 2.095 1_554 S
Mn108 O123 2.162 . S
Mn108 O124 2.297 . S
Mn108 O132 2.385 . S
Mn108 O133 2.209 . S
Mn108 O134 2.094 . S
Mn109 O114 2.121 1_554 S
Mn109 N116 2.257 . S
Mn109 N125 2.282 . S
Mn109 O133 2.215 . S
Mn109 O135 2.117 . S
C110 O132 1.234 . S
C110 O133 1.283 . S
C111 O123 1.281 . S
C111 O124 1.236 . S
C112 O134 1.240 . S
C112 O135 1.264 . S
O113 Mn108 2.095 1_556 S
O113 C122 1.250 . S
O114 Mn109 2.121 1_556 S
O114 C122 1.258 . S
C115 N116 1.326 . S
C115 C119 1.460 . S
C115 H121 0.929 . S
N116 Mn109 2.257 . S
N116 C115 1.326 . S
N116 C120 1.362 . S
C117 C118 1.258 . S
C117 C120 1.431 . S
C117 C137 1.449 . S
C118 C117 1.258 . S
C118 C119 1.477 . S
C118 H138 0.931 . S
C119 C115 1.460 . S
C119 C118 1.477 . S
C119 H139 0.930 . S
C120 N116 1.362 . S
C120 C117 1.431 . S
C120 C130 1.476 . S
H121 C115 0.929 . S
C122 O113 1.250 . S
C122 O114 1.258 . S
O123 Mn108 2.162 . S
O123 C111 1.281 . S
O124 Mn108 2.297 . S
O124 C111 1.236 . S
N125 Mn109 2.282 . S
N125 C126 1.328 . S
N125 C130 1.318 . S
C126 N125 1.328 . S
C126 C127 1.457 . S
C126 H131 0.929 . S
C127 C126 1.457 . S
C127 C128 1.291 . S
C127 H140 0.931 . S
C128 C127 1.291 . S
C128 C129 1.373 . S
C128 H141 0.929 . S
C129 C128 1.373 . S
C129 C130 1.396 . S
C129 C136 1.403 . S
C130 C120 1.476 . S
C130 N125 1.318 . S
C130 C129 1.396 . S
H131 C126 0.929 . S
O132 Mn108 2.385 . S
O132 C110 1.234 . S
O133 Mn108 2.209 . S
O133 Mn109 2.215 . S
O133 C110 1.283 . S
O134 Mn108 2.094 . S
O134 C112 1.240 . S
O135 Mn109 2.117 . S
O135 C112 1.264 . S
C136 C129 1.403 . S
C136 C137 1.399 . S
C136 H142 0.929 . S
C137 C117 1.449 . S
C137 C136 1.399 . S
C137 H143 0.930 . S
H138 C118 0.931 . S
H139 C119 0.930 . S
H140 C127 0.931 . S
H141 C128 0.929 . S
H142 C136 0.929 . S
H143 C137 0.930 . S
Mn144 O149 2.095 . S
Mn144 O159 2.162 . S
Mn144 O160 2.297 . S
Mn144 O168 2.385 . S
Mn144 O169 2.209 . S
Mn144 O170 2.094 . S
Mn145 O150 2.121 . S
Mn145 N152 2.257 . S
Mn145 N161 2.282 . S
Mn145 O169 2.215 . S
Mn145 O171 2.117 . S
C146 O168 1.234 . S
C146 O169 1.283 . S
C147 O159 1.281 . S
C147 O160 1.236 . S
C148 O170 1.240 . S
C148 O171 1.264 . S
O149 Mn144 2.095 . S
O149 C158 1.250 . S
O150 Mn145 2.121 . S
O150 C158 1.258 . S
C151 N152 1.326 . S
C151 C155 1.460 . S
C151 H157 0.929 . S
N152 Mn145 2.257 . S
N152 C151 1.326 . S
N152 C156 1.362 . S
C153 C154 1.258 . S
C153 C156 1.431 . S
C153 C173 1.449 . S
C154 C153 1.258 . S
C154 C155 1.477 . S
C154 H174 0.931 . S
C155 C151 1.460 . S
C155 C154 1.477 . S
C155 H175 0.930 . S
C156 N152 1.362 . S
C156 C153 1.431 . S
C156 C166 1.476 . S
H157 C151 0.929 . S
C158 O149 1.250 . S
C158 O150 1.258 . S
O159 Mn144 2.162 . S
O159 C147 1.281 . S
O160 Mn144 2.297 . S
O160 C147 1.236 . S
N161 Mn145 2.282 . S
N161 C162 1.328 . S
N161 C166 1.318 . S
C162 N161 1.328 . S
C162 C163 1.457 . S
C162 H167 0.929 . S
C163 C162 1.457 . S
C163 C164 1.291 . S
C163 H176 0.931 . S
C164 C163 1.291 . S
C164 C165 1.373 . S
C164 H177 0.929 . S
C165 C164 1.373 . S
C165 C166 1.396 . S
C165 C172 1.403 . S
C166 C156 1.476 . S
C166 N161 1.318 . S
C166 C165 1.396 . S
H167 C162 0.929 . S
O168 Mn144 2.385 . S
O168 C146 1.234 . S
O169 Mn144 2.209 . S
O169 Mn145 2.215 . S
O169 C146 1.283 . S
O170 Mn144 2.094 . S
O170 C148 1.240 . S
O171 Mn145 2.117 . S
O171 C148 1.264 . S
C172 C165 1.403 . S
C172 C173 1.399 . S
C172 H178 0.929 . S
C173 C153 1.449 . S
C173 C172 1.399 . S
C173 H179 0.930 . S
H174 C154 0.931 . S
H175 C155 0.930 . S
H176 C163 0.931 . S
H177 C164 0.929 . S
H178 C172 0.929 . S
H179 C173 0.930 . S
Mn180 O185 2.095 . S
Mn180 O195 2.162 . S
Mn180 O196 2.297 . S
Mn180 O204 2.385 . S
Mn180 O205 2.209 . S
Mn180 O206 2.094 . S
Mn181 O186 2.121 . S
Mn181 N188 2.257 . S
Mn181 N197 2.282 . S
Mn181 O205 2.215 . S
Mn181 O207 2.117 . S
C182 O204 1.234 . S
C182 O205 1.283 . S
C183 O195 1.281 . S
C183 O196 1.236 . S
C184 O206 1.240 . S
C184 O207 1.264 . S
O185 Mn180 2.095 . S
O185 C194 1.250 . S
O186 Mn181 2.121 . S
O186 C194 1.258 . S
C187 N188 1.326 . S
C187 C191 1.460 . S
C187 H193 0.929 . S
N188 Mn181 2.257 . S
N188 C187 1.326 . S
N188 C192 1.362 . S
C189 C190 1.258 . S
C189 C192 1.431 . S
C189 C209 1.449 . S
C190 C189 1.258 . S
C190 C191 1.477 . S
C190 H210 0.931 . S
C191 C187 1.460 . S
C191 C190 1.477 . S
C191 H211 0.930 . S
C192 N188 1.362 . S
C192 C189 1.431 . S
C192 C202 1.476 . S
H193 C187 0.929 . S
C194 O185 1.250 . S
C194 O186 1.258 . S
O195 Mn180 2.162 . S
O195 C183 1.281 . S
O196 Mn180 2.297 . S
O196 C183 1.236 . S
N197 Mn181 2.282 . S
N197 C198 1.328 . S
N197 C202 1.318 . S
C198 N197 1.328 . S
C198 C199 1.457 . S
C198 H203 0.929 . S
C199 C198 1.457 . S
C199 C200 1.291 . S
C199 H212 0.931 . S
C200 C199 1.291 . S
C200 C201 1.373 . S
C200 H213 0.929 . S
C201 C200 1.373 . S
C201 C202 1.396 . S
C201 C208 1.403 . S
C202 C192 1.476 . S
C202 N197 1.318 . S
C202 C201 1.396 . S
H203 C198 0.929 . S
O204 Mn180 2.385 . S
O204 C182 1.234 . S
O205 Mn180 2.209 . S
O205 Mn181 2.215 . S
O205 C182 1.283 . S
O206 Mn180 2.094 . S
O206 C184 1.240 . S
O207 Mn181 2.117 . S
O207 C184 1.264 . S
C208 C201 1.403 . S
C208 C209 1.399 . S
C208 H214 0.929 . S
C209 C189 1.449 . S
C209 C208 1.399 . S
C209 H215 0.930 . S
H210 C190 0.931 . S
H211 C191 0.930 . S
H212 C199 0.931 . S
H213 C200 0.929 . S
H214 C208 0.929 . S
H215 C209 0.930 . S
Mn216 O221 2.095 . S
Mn216 O231 2.162 . S
Mn216 O232 2.297 . S
Mn216 O240 2.385 . S
Mn216 O241 2.209 . S
Mn216 O242 2.094 . S
Mn217 O222 2.121 . S
Mn217 N224 2.257 . S
Mn217 N233 2.282 . S
Mn217 O241 2.215 . S
Mn217 O243 2.117 . S
C218 O240 1.234 . S
C218 O241 1.283 . S
C219 O231 1.281 . S
C219 O232 1.236 . S
C220 O242 1.240 . S
C220 O243 1.264 . S
O221 Mn216 2.095 . S
O221 C230 1.250 . S
O222 Mn217 2.121 . S
O222 C230 1.258 . S
C223 N224 1.326 . S
C223 C227 1.460 . S
C223 H229 0.929 . S
N224 Mn217 2.257 . S
N224 C223 1.326 . S
N224 C228 1.362 . S
C225 C226 1.258 . S
C225 C228 1.431 . S
C225 C245 1.449 . S
C226 C225 1.258 . S
C226 C227 1.477 . S
C226 H246 0.931 . S
C227 C223 1.460 . S
C227 C226 1.477 . S
C227 H247 0.930 . S
C228 N224 1.362 . S
C228 C225 1.431 . S
C228 C238 1.476 . S
H229 C223 0.929 . S
C230 O221 1.250 . S
C230 O222 1.258 . S
O231 Mn216 2.162 . S
O231 C219 1.281 . S
O232 Mn216 2.297 . S
O232 C219 1.236 . S
N233 Mn217 2.282 . S
N233 C234 1.328 . S
N233 C238 1.318 . S
C234 N233 1.328 . S
C234 C235 1.457 . S
C234 H239 0.929 . S
C235 C234 1.457 . S
C235 C236 1.291 . S
C235 H248 0.931 . S
C236 C235 1.291 . S
C236 C237 1.373 . S
C236 H249 0.929 . S
C237 C236 1.373 . S
C237 C238 1.396 . S
C237 C244 1.403 . S
C238 C228 1.476 . S
C238 N233 1.318 . S
C238 C237 1.396 . S
H239 C234 0.929 . S
O240 Mn216 2.385 . S
O240 C218 1.234 . S
O241 Mn216 2.209 . S
O241 Mn217 2.215 . S
O241 C218 1.283 . S
O242 Mn216 2.094 . S
O242 C220 1.240 . S
O243 Mn217 2.117 . S
O243 C220 1.264 . S
C244 C237 1.403 . S
C244 C245 1.399 . S
C244 H250 0.929 . S
C245 C225 1.449 . S
C245 C244 1.399 . S
C245 H251 0.930 . S
H246 C226 0.931 . S
H247 C227 0.930 . S
H248 C235 0.931 . S
H249 C236 0.929 . S
H250 C244 0.929 . S
H251 C245 0.930 . S
Mn252 O257 2.095 . S
Mn252 O267 2.162 . S
Mn252 O268 2.297 . S
Mn252 O276 2.385 1_554 S
Mn252 O277 2.209 1_554 S
Mn252 O278 2.094 . S
Mn253 O258 2.121 . S
Mn253 N260 2.257 . S
Mn253 N269 2.282 1_554 S
Mn253 O277 2.215 1_554 S
Mn253 O279 2.117 . S
C254 O276 1.234 . S
C254 O277 1.283 . S
C255 O267 1.281 . S
C255 O268 1.236 . S
C256 O278 1.240 . S
C256 O279 1.264 . S
O257 Mn252 2.095 . S
O257 C266 1.250 . S
O258 Mn253 2.121 . S
O258 C266 1.258 . S
C259 N260 1.326 . S
C259 C263 1.460 . S
C259 H265 0.929 . S
N260 Mn253 2.257 . S
N260 C259 1.326 . S
N260 C264 1.362 1_554 S
C261 C262 1.258 . S
C261 C264 1.431 . S
C261 C281 1.449 . S
C262 C261 1.258 . S
C262 C263 1.477 1_556 S
C262 H282 0.931 . S
C263 C259 1.460 . S
C263 C262 1.477 1_554 S
C263 H283 0.930 . S
C264 N260 1.362 1_556 S
C264 C261 1.431 . S
C264 C274 1.476 . S
H265 C259 0.929 . S
C266 O257 1.250 . S
C266 O258 1.258 . S
O267 Mn252 2.162 . S
O267 C255 1.281 . S
O268 Mn252 2.297 . S
O268 C255 1.236 . S
N269 Mn253 2.282 1_556 S
N269 C270 1.328 . S
N269 C274 1.318 . S
C270 N269 1.328 . S
C270 C271 1.457 . S
C270 H275 0.929 . S
C271 C270 1.457 . S
C271 C272 1.291 . S
C271 H284 0.931 . S
C272 C271 1.291 . S
C272 C273 1.373 . S
C272 H285 0.929 . S
C273 C272 1.373 . S
C273 C274 1.396 . S
C273 C280 1.403 . S
C274 C264 1.476 . S
C274 N269 1.318 . S
C274 C273 1.396 . S
H275 C270 0.929 . S
O276 Mn252 2.385 1_556 S
O276 C254 1.234 . S
O277 Mn252 2.209 1_556 S
O277 Mn253 2.215 1_556 S
O277 C254 1.283 . S
O278 Mn252 2.094 . S
O278 C256 1.240 . S
O279 Mn253 2.117 . S
O279 C256 1.264 . S
C280 C273 1.403 . S
C280 C281 1.399 . S
C280 H286 0.929 . S
C281 C261 1.449 . S
C281 C280 1.399 . S
C281 H287 0.930 . S
H282 C262 0.931 . S
H283 C263 0.930 . S
H284 C271 0.931 . S
H285 C272 0.929 . S
H286 C280 0.929 . S
H287 C281 0.930 . S
H288 C300 0.930 . S
H289 C302 0.930 . S
H290 C303 0.930 . S
H291 C307 0.959 . S
H292 C307 0.959 . S
H293 C307 0.961 . S
H294 C308 0.960 . S
H295 C308 0.961 . S
H296 C308 0.959 . S
H297 C311 0.929 . S
H298 C312 0.931 . S
H299 C314 0.930 . S
C300 H288 0.930 . S
C300 C301 1.399 . S
C300 C305 1.399 . S
C301 C300 1.399 . S
C301 C302 1.376 . S
C302 H289 0.930 . S
C302 C301 1.376 . S
C302 C303 1.388 . S
C303 H290 0.930 . S
C303 C302 1.388 . S
C303 C304 1.390 . S
C304 C303 1.390 . S
C304 C305 1.394 . S
C304 C310 1.465 . S
C305 C300 1.399 . S
C305 C304 1.394 . S
C305 C306 1.516 . S
C306 C305 1.516 . S
C306 C307 1.502 . S
C306 C308 1.561 . S
C306 C309 1.526 . S
C307 H291 0.959 . S
C307 H292 0.959 . S
C307 H293 0.961 . S
C307 C306 1.502 . S
C308 H294 0.960 . S
C308 H295 0.961 . S
C308 H296 0.959 . S
C308 C306 1.561 . S
C309 C306 1.526 . S
C309 C310 1.396 . S
C309 C314 1.390 . S
C310 C304 1.465 . S
C310 C309 1.396 . S
C310 C311 1.399 . S
C311 H297 0.929 . S
C311 C310 1.399 . S
C311 C312 1.385 . S
C312 H298 0.931 . S
C312 C311 1.385 . S
C312 C313 1.389 . S
C313 C312 1.389 . S
C313 C314 1.387 . S
C314 H299 0.930 . S
C314 C309 1.390 . S
C314 C313 1.387 . S
H315 C327 0.930 . S
H316 C329 0.930 . S
H317 C330 0.930 . S
H318 C334 0.959 . S
H319 C334 0.959 . S
H320 C334 0.961 . S
H321 C335 0.960 . S
H322 C335 0.961 . S
H323 C335 0.959 . S
H324 C338 0.929 . S
H325 C339 0.931 . S
H326 C341 0.930 . S
C327 H315 0.930 . S
C327 C328 1.399 . S
C327 C332 1.399 . S
C328 C327 1.399 . S
C328 C329 1.376 . S
C329 H316 0.930 . S
C329 C328 1.376 . S
C329 C330 1.388 . S
C330 H317 0.930 . S
C330 C329 1.388 . S
C330 C331 1.390 . S
C331 C330 1.390 . S
C331 C332 1.394 . S
C331 C337 1.465 . S
C332 C327 1.399 . S
C332 C331 1.394 . S
C332 C333 1.516 . S
C333 C332 1.516 . S
C333 C334 1.502 . S
C333 C335 1.561 . S
C333 C336 1.526 . S
C334 H318 0.959 . S
C334 H319 0.959 . S
C334 H320 0.961 . S
C334 C333 1.502 . S
C335 H321 0.960 . S
C335 H322 0.961 . S
C335 H323 0.959 . S
C335 C333 1.561 . S
C336 C333 1.526 . S
C336 C337 1.396 . S
C336 C341 1.390 . S
C337 C331 1.465 . S
C337 C336 1.396 . S
C337 C338 1.399 . S
C338 H324 0.929 . S
C338 C337 1.399 . S
C338 C339 1.385 . S
C339 H325 0.931 . S
C339 C338 1.385 . S
C339 C340 1.389 . S
C340 C339 1.389 . S
C340 C341 1.387 . S
C341 H326 0.930 . S
C341 C336 1.390 . S
C341 C340 1.387 . S
H342 C354 0.930 . S
H343 C356 0.930 . S
H344 C357 0.930 . S
H345 C361 0.959 1_556 S
H346 C361 0.959 1_556 S
H347 C361 0.961 . S
H348 C362 0.960 . S
H349 C362 0.961 . S
H350 C362 0.959 . S
H351 C365 0.929 1_554 S
H352 C366 0.931 . S
H353 C368 0.930 . S
C354 H342 0.930 . S
C354 C355 1.399 . S
C354 C359 1.399 . S
C355 C354 1.399 . S
C355 C356 1.376 . S
C356 H343 0.930 . S
C356 C355 1.376 . S
C356 C357 1.388 . S
C357 H344 0.930 . S
C357 C356 1.388 . S
C357 C358 1.390 . S
C358 C357 1.390 . S
C358 C359 1.394 . S
C358 C364 1.465 . S
C359 C354 1.399 . S
C359 C358 1.394 . S
C359 C360 1.516 . S
C360 C359 1.516 . S
C360 C361 1.502 . S
C360 C362 1.561 . S
C360 C363 1.527 1_554 S
C361 H345 0.959 1_554 S
C361 H346 0.959 1_554 S
C361 H347 0.961 . S
C361 C360 1.502 . S
C362 H348 0.960 . S
C362 H349 0.961 . S
C362 H350 0.959 . S
C362 C360 1.561 . S
C363 C360 1.527 1_556 S
C363 C364 1.397 1_556 S
C363 C368 1.388 . S
C364 C358 1.465 . S
C364 C363 1.397 1_554 S
C364 C365 1.399 1_554 S
C365 H351 0.929 1_556 S
C365 C364 1.399 1_556 S
C365 C366 1.385 . S
C366 H352 0.931 . S
C366 C365 1.385 . S
C366 C367 1.389 . S
C367 C366 1.389 . S
C367 C368 1.387 . S
C368 H353 0.930 . S
C368 C363 1.388 . S
C368 C367 1.387 . S
H369 C381 0.930 . S
H370 C383 0.930 . S
H371 C384 0.930 . S
H372 C388 0.959 . S
H373 C388 0.959 . S
H374 C388 0.961 . S
H375 C389 0.960 . S
H376 C389 0.961 . S
H377 C389 0.959 . S
H378 C392 0.929 . S
H379 C393 0.931 . S
H380 C395 0.930 . S
C381 H369 0.930 . S
C381 C382 1.399 . S
C381 C386 1.399 . S
C382 C381 1.399 . S
C382 C383 1.376 . S
C383 H370 0.930 . S
C383 C382 1.376 . S
C383 C384 1.388 . S
C384 H371 0.930 . S
C384 C383 1.388 . S
C384 C385 1.390 . S
C385 C384 1.390 . S
C385 C386 1.394 . S
C385 C391 1.465 . S
C386 C381 1.399 . S
C386 C385 1.394 . S
C386 C387 1.516 . S
C387 C386 1.516 . S
C387 C388 1.502 . S
C387 C389 1.561 . S
C387 C390 1.526 . S
C388 H372 0.959 . S
C388 H373 0.959 . S
C388 H374 0.961 . S
C388 C387 1.502 . S
C389 H375 0.960 . S
C389 H376 0.961 . S
C389 H377 0.959 . S
C389 C387 1.561 . S
C390 C387 1.526 . S
C390 C391 1.396 . S
C390 C395 1.390 . S
C391 C385 1.465 . S
C391 C390 1.396 . S
C391 C392 1.399 . S
C392 H378 0.929 . S
C392 C391 1.399 . S
C392 C393 1.385 . S
C393 H379 0.931 . S
C393 C392 1.385 . S
C393 C394 1.389 . S
C394 C393 1.389 . S
C394 C395 1.387 . S
C395 H380 0.930 . S
C395 C390 1.390 . S
C395 C394 1.387 . S
H396 C408 0.930 . S
H397 C410 0.930 . S
H398 C411 0.930 . S
H399 C415 0.959 . S
H400 C415 0.959 . S
H401 C415 0.961 . S
H402 C416 0.960 . S
H403 C416 0.961 . S
H404 C416 0.959 . S
H405 C419 0.929 . S
H406 C420 0.931 . S
H407 C422 0.930 . S
C408 H396 0.930 . S
C408 C409 1.399 . S
C408 C413 1.399 . S
C409 C408 1.399 . S
C409 C410 1.376 . S
C410 H397 0.930 . S
C410 C409 1.376 . S
C410 C411 1.388 . S
C411 H398 0.930 . S
C411 C410 1.388 . S
C411 C412 1.390 . S
C412 C411 1.390 . S
C412 C413 1.394 . S
C412 C418 1.465 . S
C413 C408 1.399 . S
C413 C412 1.394 . S
C413 C414 1.516 . S
C414 C413 1.516 . S
C414 C415 1.502 . S
C414 C416 1.561 . S
C414 C417 1.526 . S
C415 H399 0.959 . S
C415 H400 0.959 . S
C415 H401 0.961 . S
C415 C414 1.502 . S
C416 H402 0.960 . S
C416 H403 0.961 . S
C416 H404 0.959 . S
C416 C414 1.561 . S
C417 C414 1.526 . S
C417 C418 1.396 . S
C417 C422 1.390 . S
C418 C412 1.465 . S
C418 C417 1.396 . S
C418 C419 1.399 . S
C419 H405 0.929 . S
C419 C418 1.399 . S
C419 C420 1.385 . S
C420 H406 0.931 . S
C420 C419 1.385 . S
C420 C421 1.389 . S
C421 C420 1.389 . S
C421 C422 1.387 . S
C422 H407 0.930 . S
C422 C417 1.390 . S
C422 C421 1.387 . S
H423 C435 0.930 . S
H424 C437 0.930 . S
H425 C438 0.930 . S
H426 C442 0.959 . S
H427 C442 0.959 . S
H428 C442 0.961 . S
H429 C443 0.960 . S
H430 C443 0.961 . S
H431 C443 0.959 . S
H432 C446 0.929 . S
H433 C447 0.931 . S
H434 C449 0.930 . S
C435 H423 0.930 . S
C435 C436 1.399 . S
C435 C440 1.399 . S
C436 C435 1.399 . S
C436 C437 1.376 . S
C437 H424 0.930 . S
C437 C436 1.376 . S
C437 C438 1.388 . S
C438 H425 0.930 . S
C438 C437 1.388 . S
C438 C439 1.390 . S
C439 C438 1.390 . S
C439 C440 1.394 . S
C439 C445 1.465 . S
C440 C435 1.399 . S
C440 C439 1.394 . S
C440 C441 1.516 . S
C441 C440 1.516 . S
C441 C442 1.502 . S
C441 C443 1.561 . S
C441 C444 1.526 . S
C442 H426 0.959 . S
C442 H427 0.959 . S
C442 H428 0.961 . S
C442 C441 1.502 . S
C443 H429 0.960 . S
C443 H430 0.961 . S
C443 H431 0.959 . S
C443 C441 1.561 . S
C444 C441 1.526 . S
C444 C445 1.396 . S
C444 C449 1.390 . S
C445 C439 1.465 . S
C445 C444 1.396 . S
C445 C446 1.399 . S
C446 H432 0.929 . S
C446 C445 1.399 . S
C446 C447 1.385 . S
C447 H433 0.931 . S
C447 C446 1.385 . S
C447 C448 1.389 . S
C448 C447 1.389 . S
C448 C449 1.387 . S
C449 H434 0.930 . S
C449 C444 1.390 . S
C449 C448 1.387 . S
H450 C462 0.930 . S
H451 C464 0.930 . S
H452 C465 0.930 . S
H453 C469 0.959 . S
H454 C469 0.959 . S
H455 C469 0.961 . S
H456 C470 0.960 1_554 S
H457 C470 0.961 . S
H458 C470 0.959 . S
H459 C473 0.929 . S
H460 C474 0.931 . S
H461 C476 0.930 . S
C462 H450 0.930 . S
C462 C463 1.399 1_554 S
C462 C467 1.399 1_554 S
C463 C462 1.399 1_556 S
C463 C464 1.376 . S
C464 H451 0.930 . S
C464 C463 1.376 . S
C464 C465 1.388 . S
C465 H452 0.930 . S
C465 C464 1.388 . S
C465 C466 1.390 . S
C466 C465 1.390 . S
C466 C467 1.394 . S
C466 C472 1.465 . S
C467 C462 1.399 1_556 S
C467 C466 1.394 . S
C467 C468 1.516 . S
C468 C467 1.516 . S
C468 C469 1.502 1_556 S
C468 C470 1.561 . S
C468 C471 1.526 . S
C469 H453 0.959 . S
C469 H454 0.959 . S
C469 H455 0.961 . S
C469 C468 1.502 1_554 S
C470 H456 0.960 1_556 S
C470 H457 0.961 . S
C470 H458 0.959 . S
C470 C468 1.561 . S
C471 C468 1.526 . S
C471 C472 1.396 . S
C471 C476 1.390 . S
C472 C466 1.465 . S
C472 C471 1.396 . S
C472 C473 1.399 . S
C473 H459 0.929 . S
C473 C472 1.399 . S
C473 C474 1.385 . S
C474 H460 0.931 . S
C474 C473 1.385 . S
C474 C475 1.389 . S
C475 C474 1.389 . S
C475 C476 1.387 . S
C476 H461 0.930 . S
C476 C471 1.390 . S
C476 C475 1.387 . S
H477 C489 0.930 . S
H478 C491 0.930 . S
H479 C492 0.930 . S
H480 C496 0.959 . S
H481 C496 0.959 . S
H482 C496 0.961 . S
H483 C497 0.960 . S
H484 C497 0.961 . S
H485 C497 0.959 . S
H486 C500 0.929 . S
H487 C501 0.931 . S
H488 C503 0.930 . S
C489 H477 0.930 . S
C489 C490 1.399 . S
C489 C494 1.399 . S
C490 C489 1.399 . S
C490 C491 1.376 . S
C491 H478 0.930 . S
C491 C490 1.376 . S
C491 C492 1.388 . S
C492 H479 0.930 . S
C492 C491 1.388 . S
C492 C493 1.390 . S
C493 C492 1.390 . S
C493 C494 1.394 . S
C493 C499 1.465 . S
C494 C489 1.399 . S
C494 C493 1.394 . S
C494 C495 1.516 . S
C495 C494 1.516 . S
C495 C496 1.502 . S
C495 C497 1.561 . S
C495 C498 1.526 . S
C496 H480 0.959 . S
C496 H481 0.959 . S
C496 H482 0.961 . S
C496 C495 1.502 . S
C497 H483 0.960 . S
C497 H484 0.961 . S
C497 H485 0.959 . S
C497 C495 1.561 . S
C498 C495 1.526 . S
C498 C499 1.396 . S
C498 C503 1.390 . S
C499 C493 1.465 . S
C499 C498 1.396 . S
C499 C500 1.399 . S
C500 H486 0.929 . S
C500 C499 1.399 . S
C500 C501 1.385 . S
C501 H487 0.931 . S
C501 C500 1.385 . S
C501 C502 1.389 . S
C502 C501 1.389 . S
C502 C503 1.387 . S
C503 H488 0.930 . S
C503 C498 1.390 . S
C503 C502 1.387 . S
H504 C516 0.930 . S
H505 C518 0.930 . S
H506 C519 0.930 . S
H507 C523 0.959 1_545 S
H508 C523 0.959 1_545 S
H509 C523 0.961 . S
H510 C524 0.960 . S
H511 C524 0.961 1_545 S
H512 C524 0.958 . S
H513 C527 0.929 . S
H514 C528 0.931 . S
H515 C530 0.930 . S
C516 H504 0.930 . S
C516 C517 1.399 . S
C516 C521 1.399 . S
C517 C516 1.399 . S
C517 C518 1.376 . S
C518 H505 0.930 . S
C518 C517 1.376 . S
C518 C519 1.388 . S
C519 H506 0.930 . S
C519 C518 1.388 . S
C519 C520 1.390 . S
C520 C519 1.390 . S
C520 C521 1.394 . S
C520 C526 1.465 1_565 S
C521 C516 1.399 . S
C521 C520 1.394 . S
C521 C522 1.516 . S
C522 C521 1.516 . S
C522 C523 1.502 . S
C522 C524 1.561 . S
C522 C525 1.526 1_565 S
C523 H507 0.959 1_565 S
C523 H508 0.959 1_565 S
C523 H509 0.961 . S
C523 C522 1.502 . S
C524 H510 0.960 . S
C524 H511 0.961 1_565 S
C524 H512 0.958 . S
C524 C522 1.561 . S
C525 C522 1.526 1_545 S
C525 C526 1.396 . S
C525 C530 1.390 . S
C526 C520 1.465 1_545 S
C526 C525 1.396 . S
C526 C527 1.399 . S
C527 H513 0.929 . S
C527 C526 1.399 . S
C527 C528 1.385 . S
C528 H514 0.931 . S
C528 C527 1.385 . S
C528 C529 1.389 . S
C529 C528 1.389 . S
C529 C530 1.387 . S
C530 H515 0.930 . S
C530 C525 1.390 . S
C530 C529 1.387 . S
H531 C543 0.930 . S
H532 C545 0.930 . S
H533 C546 0.930 . S
H534 C550 0.959 . S
H535 C550 0.959 . S
H536 C550 0.961 1_655 S
H537 C551 0.983 . S
H538 C551 0.940 1_455 S
H539 C551 0.958 1_455 S
H540 C554 0.929 . S
H541 C555 0.931 . S
H542 C557 0.930 . S
C543 H531 0.930 . S
C543 C544 1.399 . S
C543 C548 1.399 . S
C544 C543 1.399 . S
C544 C545 1.376 . S
C545 H532 0.930 . S
C545 C544 1.376 . S
C545 C546 1.388 . S
C546 H533 0.930 . S
C546 C545 1.388 . S
C546 C547 1.390 . S
C547 C546 1.390 . S
C547 C548 1.394 . S
C547 C553 1.465 1_655 S
C548 C543 1.399 . S
C548 C547 1.394 . S
C548 C549 1.511 1_655 S
C549 C548 1.511 1_455 S
C549 C550 1.502 . S
C549 C551 1.561 1_455 S
C549 C552 1.531 . S
C550 H534 0.959 . S
C550 H535 0.959 . S
C550 H536 0.961 1_455 S
C550 C549 1.502 . S
C551 H537 0.983 . S
C551 H538 0.940 1_655 S
C551 H539 0.958 1_655 S
C551 C549 1.561 1_655 S
C552 C549 1.531 . S
C552 C553 1.396 . S
C552 C557 1.390 . S
C553 C547 1.465 1_455 S
C553 C552 1.396 . S
C553 C554 1.399 . S
C554 H540 0.929 . S
C554 C553 1.399 . S
C554 C555 1.385 . S
C555 H541 0.931 . S
C555 C554 1.385 . S
C555 C556 1.389 . S
C556 C555 1.389 . S
C556 C557 1.387 . S
C557 H542 0.930 . S
C557 C552 1.390 . S
C557 C556 1.387 . S
H558 C570 0.930 . S
H559 C572 0.930 . S
H560 C573 0.930 . S
H561 C577 0.959 . S
H562 C577 0.959 . S
H563 C577 0.961 1_565 S
H564 C578 0.960 1_565 S
H565 C578 0.961 . S
H566 C578 0.959 . S
H567 C581 0.929 . S
H568 C582 0.931 . S
H569 C584 0.930 . S
C570 H558 0.930 . S
C570 C571 1.399 . S
C570 C575 1.399 . S
C571 C570 1.399 . S
C571 C572 1.376 . S
C572 H559 0.930 . S
C572 C571 1.376 . S
C572 C573 1.388 . S
C573 H560 0.930 . S
C573 C572 1.388 . S
C573 C574 1.390 . S
C574 C573 1.390 . S
C574 C575 1.394 . S
C574 C580 1.465 1_565 S
C575 C570 1.399 . S
C575 C574 1.394 . S
C575 C576 1.516 1_565 S
C576 C575 1.516 1_545 S
C576 C577 1.502 . S
C576 C578 1.561 . S
C576 C579 1.526 . S
C577 H561 0.959 . S
C577 H562 0.959 . S
C577 H563 0.961 1_545 S
C577 C576 1.502 . S
C578 H564 0.960 1_545 S
C578 H565 0.961 . S
C578 H566 0.959 . S
C578 C576 1.561 . S
C579 C576 1.526 . S
C579 C580 1.396 . S
C579 C584 1.390 . S
C580 C574 1.465 1_545 S
C580 C579 1.396 . S
C580 C581 1.399 . S
C581 H567 0.929 . S
C581 C580 1.399 . S
C581 C582 1.385 . S
C582 H568 0.931 . S
C582 C581 1.385 . S
C582 C583 1.389 . S
C583 C582 1.389 . S
C583 C584 1.387 . S
C584 H569 0.930 . S
C584 C579 1.390 . S
C584 C583 1.387 . S
H585 C597 0.930 . S
H586 C599 0.930 . S
H587 C600 0.930 . S
H588 C604 0.958 1_455 S
H589 C604 0.940 1_455 S
H590 C604 0.982 . S
H591 C605 0.929 1_655 S
H592 C605 0.990 . S
H593 C605 0.964 1_556 S
H594 C608 0.929 . S
H595 C609 0.931 . S
H596 C611 0.930 . S
C597 H585 0.930 . S
C597 C598 1.399 . S
C597 C602 1.399 . S
C598 C597 1.399 . S
C598 C599 1.376 . S
C599 H586 0.930 . S
C599 C598 1.376 . S
C599 C600 1.388 . S
C600 H587 0.930 . S
C600 C599 1.388 . S
C600 C601 1.390 . S
C601 C600 1.390 . S
C601 C602 1.394 . S
C601 C607 1.465 1_655 S
C602 C597 1.399 . S
C602 C601 1.394 . S
C602 C603 1.517 . S
C603 C602 1.517 . S
C603 C604 1.502 . S
C603 C605 1.561 1_655 S
C603 C606 1.525 1_655 S
C604 H588 0.958 1_655 S
C604 H589 0.940 1_655 S
C604 H590 0.982 . S
C604 C603 1.502 . S
C605 H591 0.929 1_455 S
C605 H592 0.990 . S
C605 H593 0.964 1_554 S
C605 C603 1.561 1_455 S
C606 C603 1.525 1_455 S
C606 C607 1.396 . S
C606 C611 1.390 . S
C607 C601 1.465 1_455 S
C607 C606 1.396 . S
C607 C608 1.399 . S
C608 H594 0.929 . S
C608 C607 1.399 . S
C608 C609 1.385 . S
C609 H595 0.931 . S
C609 C608 1.385 . S
C609 C610 1.389 . S
C610 C609 1.389 . S
C610 C611 1.387 . S
C611 H596 0.930 . S
C611 C606 1.390 . S
C611 C610 1.387 . S
H612 C624 0.930 . S
H613 C626 0.930 . S
H614 C627 0.930 . S
H615 C631 0.959 1_556 S
H616 C631 0.959 . S
H617 C631 0.961 1_556 S
H618 C632 0.960 . S
H619 C632 0.961 . S
H620 C632 0.959 . S
H621 C635 0.929 . S
H622 C636 0.931 . S
H623 C638 0.930 . S
C624 H612 0.930 . S
C624 C625 1.399 . S
C624 C629 1.405 . S
C625 C624 1.399 . S
C625 C626 1.376 . S
C626 H613 0.930 . S
C626 C625 1.376 . S
C626 C627 1.388 1_556 S
C627 H614 0.930 . S
C627 C626 1.388 1_554 S
C627 C628 1.390 . S
C628 C627 1.390 . S
C628 C629 1.391 1_554 S
C628 C634 1.465 . S
C629 C624 1.405 . S
C629 C628 1.391 1_556 S
C629 C630 1.513 1_556 S
C630 C629 1.513 1_554 S
C630 C631 1.502 . S
C630 C632 1.561 . S
C630 C633 1.526 . S
C631 H615 0.959 1_554 S
C631 H616 0.959 . S
C631 H617 0.961 1_554 S
C631 C630 1.502 . S
C632 H618 0.960 . S
C632 H619 0.961 . S
C632 H620 0.959 . S
C632 C630 1.561 . S
C633 C630 1.526 . S
C633 C634 1.396 . S
C633 C638 1.390 . S
C634 C628 1.465 . S
C634 C633 1.396 . S
C634 C635 1.399 . S
C635 H621 0.929 . S
C635 C634 1.399 . S
C635 C636 1.385 . S
C636 H622 0.931 . S
C636 C635 1.385 . S
C636 C637 1.389 . S
C637 C636 1.389 . S
C637 C638 1.387 . S
C638 H623 0.930 . S
C638 C633 1.390 . S
C638 C637 1.387 . S
H639 C651 0.930 . S
H640 C653 0.930 . S
H641 C654 0.930 . S
H642 C658 0.959 . S
H643 C658 0.959 . S
H644 C658 0.961 . S
H645 C659 0.960 . S
H646 C659 0.961 . S
H647 C659 0.959 . S
H648 C662 0.929 . S
H649 C663 0.931 . S
H650 C665 0.930 . S
C651 H639 0.930 . S
C651 C652 1.399 . S
C651 C656 1.399 . S
C652 C651 1.399 . S
C652 C653 1.376 . S
C653 H640 0.930 . S
C653 C652 1.376 . S
C653 C654 1.388 . S
C654 H641 0.930 . S
C654 C653 1.388 . S
C654 C655 1.390 . S
C655 C654 1.390 . S
C655 C656 1.394 . S
C655 C661 1.465 . S
C656 C651 1.399 . S
C656 C655 1.394 . S
C656 C657 1.516 . S
C657 C656 1.516 . S
C657 C658 1.502 . S
C657 C659 1.561 . S
C657 C660 1.526 . S
C658 H642 0.959 . S
C658 H643 0.959 . S
C658 H644 0.961 . S
C658 C657 1.502 . S
C659 H645 0.960 . S
C659 H646 0.961 . S
C659 H647 0.959 . S
C659 C657 1.561 . S
C660 C657 1.526 . S
C660 C661 1.396 . S
C660 C665 1.390 . S
C661 C655 1.465 . S
C661 C660 1.396 . S
C661 C662 1.399 . S
C662 H648 0.929 . S
C662 C661 1.399 . S
C662 C663 1.385 . S
C663 H649 0.931 . S
C663 C662 1.385 . S
C663 C664 1.389 . S
C664 C663 1.389 . S
C664 C665 1.387 . S
C665 H650 0.930 . S
C665 C660 1.390 . S
C665 C664 1.387 . S
H666 C678 0.930 . S
H667 C680 0.930 . S
H668 C681 0.930 . S
H669 C685 0.959 . S
H670 C685 0.959 . S
H671 C685 0.961 . S
H672 C686 0.960 . S
H673 C686 0.961 . S
H674 C686 0.959 . S
H675 C689 0.929 . S
H676 C690 0.931 . S
H677 C692 0.930 . S
C678 H666 0.930 . S
C678 C679 1.399 . S
C678 C683 1.399 . S
C679 C678 1.399 . S
C679 C680 1.376 . S
C680 H667 0.930 . S
C680 C679 1.376 . S
C680 C681 1.388 . S
C681 H668 0.930 . S
C681 C680 1.388 . S
C681 C682 1.390 . S
C682 C681 1.390 . S
C682 C683 1.394 . S
C682 C688 1.465 . S
C683 C678 1.399 . S
C683 C682 1.394 . S
C683 C684 1.516 . S
C684 C683 1.516 . S
C684 C685 1.502 . S
C684 C686 1.561 . S
C684 C687 1.526 . S
C685 H669 0.959 . S
C685 H670 0.959 . S
C685 H671 0.961 . S
C685 C684 1.502 . S
C686 H672 0.960 . S
C686 H673 0.961 . S
C686 H674 0.959 . S
C686 C684 1.561 . S
C687 C684 1.526 . S
C687 C688 1.396 . S
C687 C692 1.390 . S
C688 C682 1.465 . S
C688 C687 1.396 . S
C688 C689 1.399 . S
C689 H675 0.929 . S
C689 C688 1.399 . S
C689 C690 1.385 . S
C690 H676 0.931 . S
C690 C689 1.385 . S
C690 C691 1.389 . S
C691 C690 1.389 . S
C691 C692 1.387 . S
C692 H677 0.930 . S
C692 C687 1.390 . S
C692 C691 1.387 . S
H693 C705 0.930 . S
H694 C707 0.930 . S
H695 C708 0.930 . S
H696 C712 0.959 . S
H697 C712 0.959 . S
H698 C712 0.961 . S
H699 C713 0.960 . S
H700 C713 0.961 . S
H701 C713 0.959 . S
H702 C716 0.929 . S
H703 C717 0.931 . S
H704 C719 0.930 . S
C705 H693 0.930 . S
C705 C706 1.399 . S
C705 C710 1.399 . S
C706 C705 1.399 . S
C706 C707 1.376 . S
C707 H694 0.930 . S
C707 C706 1.376 . S
C707 C708 1.388 . S
C708 H695 0.930 . S
C708 C707 1.388 . S
C708 C709 1.390 . S
C709 C708 1.390 . S
C709 C710 1.394 . S
C709 C715 1.465 . S
C710 C705 1.399 . S
C710 C709 1.394 . S
C710 C711 1.516 . S
C711 C710 1.516 . S
C711 C712 1.502 . S
C711 C713 1.561 . S
C711 C714 1.526 . S
C712 H696 0.959 . S
C712 H697 0.959 . S
C712 H698 0.961 . S
C712 C711 1.502 . S
C713 H699 0.960 . S
C713 H700 0.961 . S
C713 H701 0.959 . S
C713 C711 1.561 . S
C714 C711 1.526 . S
C714 C715 1.396 . S
C714 C719 1.390 . S
C715 C709 1.465 . S
C715 C714 1.396 . S
C715 C716 1.399 . S
C716 H702 0.929 . S
C716 C715 1.399 . S
C716 C717 1.385 . S
C717 H703 0.931 . S
C717 C716 1.385 . S
C717 C718 1.389 . S
C718 C717 1.389 . S
C718 C719 1.387 . S
C719 H704 0.930 . S
C719 C714 1.390 . S
C719 C718 1.387 . S
C301 C2 0.780 . S
C313 C218 0.821 . S
C328 C38 0.819 . S
C340 C254 0.871 . S
C355 C146 0.870 . S
C367 C74 0.829 . S
C382 C182 0.844 . S
C394 C110 0.780 . S
C409 C3 1.461 . S
C421 C183 1.448 . S
C436 C39 1.444 . S
C448 C219 1.464 . S
C463 C255 1.429 1_556 S
C475 C75 1.478 . S
C490 C111 1.478 . S
C502 C147 1.430 . S
C517 C148 1.448 . S
C529 C4 1.462 . S
C544 C40 1.453 . S
C556 C184 1.445 . S
C571 C76 1.487 . S
C583 C220 1.474 . S
C598 C256 1.481 . S
C610 C112 1.489 . S
C625 C230 1.413 . S
C637 C14 1.377 . S
C652 C266 1.351 . S
C664 C50 1.309 . S
C679 C86 1.415 . S
C691 C158 1.391 . S
C706 C122 1.415 . S
C718 C194 1.393 . S
