# Generated by pormake.
# Topology vbm, (6)-cn, num edge types: 1
# Building blocks:
#     Node 0, Type 0, BuildingBlock: BETFAJ_clean_sbu_0, # of connection points: 6
#     Node 1, Type 0, BuildingBlock: BETFAJ_clean_sbu_0, # of connection points: 6
#     Node 2, Type 0, BuildingBlock: BETFAJ_clean_sbu_0, # of connection points: 6
#     Node 3, Type 0, BuildingBlock: BETFAJ_clean_sbu_0, # of connection points: 6
#     Node 4, Type 0, BuildingBlock: BETFAJ_clean_sbu_0, # of connection points: 6
#     Node 5, Type 0, BuildingBlock: BETFAJ_clean_sbu_0, # of connection points: 6
#     Node 6, Type 0, BuildingBlock: BETFAJ_clean_sbu_0, # of connection points: 6
#     Node 7, Type 0, BuildingBlock: BETFAJ_clean_sbu_0, # of connection points: 6
#     Node 8, Type 0, BuildingBlock: BETFAJ_clean_sbu_0, # of connection points: 6
#     Node 9, Type 0, BuildingBlock: BETFAJ_clean_sbu_0, # of connection points: 6
#     Node 10, Type 0, BuildingBlock: BETFAJ_clean_sbu_0, # of connection points: 6
#     Node 11, Type 0, BuildingBlock: BETFAJ_clean_sbu_0, # of connection points: 6
#     Node 12, Type 0, BuildingBlock: BETFAJ_clean_sbu_0, # of connection points: 6
#     Node 13, Type 0, BuildingBlock: BETFAJ_clean_sbu_0, # of connection points: 6
#     Node 14, Type 0, BuildingBlock: BETFAJ_clean_sbu_0, # of connection points: 6
#     Node 15, Type 0, BuildingBlock: BETFAJ_clean_sbu_0, # of connection points: 6
#     Edge 16, Type (0, 0), BuildingBlock: UVAHIK_clean_linker_0, # of connection points: 2
#     Edge 17, Type (0, 0), BuildingBlock: UVAHIK_clean_linker_0, # of connection points: 2
#     Edge 18, Type (0, 0), BuildingBlock: UVAHIK_clean_linker_0, # of connection points: 2
#     Edge 19, Type (0, 0), BuildingBlock: UVAHIK_clean_linker_0, # of connection points: 2
#     Edge 20, Type (0, 0), BuildingBlock: UVAHIK_clean_linker_0, # of connection points: 2
#     Edge 21, Type (0, 0), BuildingBlock: UVAHIK_clean_linker_0, # of connection points: 2
#     Edge 22, Type (0, 0), BuildingBlock: UVAHIK_clean_linker_0, # of connection points: 2
#     Edge 23, Type (0, 0), BuildingBlock: UVAHIK_clean_linker_0, # of connection points: 2
#     Edge 24, Type (0, 0), BuildingBlock: UVAHIK_clean_linker_0, # of connection points: 2
#     Edge 25, Type (0, 0), BuildingBlock: UVAHIK_clean_linker_0, # of connection points: 2
#     Edge 26, Type (0, 0), BuildingBlock: UVAHIK_clean_linker_0, # of connection points: 2
#     Edge 27, Type (0, 0), BuildingBlock: UVAHIK_clean_linker_0, # of connection points: 2
#     Edge 28, Type (0, 0), BuildingBlock: UVAHIK_clean_linker_0, # of connection points: 2
#     Edge 29, Type (0, 0), BuildingBlock: UVAHIK_clean_linker_0, # of connection points: 2
#     Edge 30, Type (0, 0), BuildingBlock: UVAHIK_clean_linker_0, # of connection points: 2
#     Edge 31, Type (0, 0), BuildingBlock: UVAHIK_clean_linker_0, # of connection points: 2
#     Edge 32, Type (0, 0), BuildingBlock: UVAHIK_clean_linker_0, # of connection points: 2
#     Edge 33, Type (0, 0), BuildingBlock: UVAHIK_clean_linker_0, # of connection points: 2
#     Edge 34, Type (0, 0), BuildingBlock: UVAHIK_clean_linker_0, # of connection points: 2
#     Edge 35, Type (0, 0), BuildingBlock: UVAHIK_clean_linker_0, # of connection points: 2
#     Edge 36, Type (0, 0), BuildingBlock: UVAHIK_clean_linker_0, # of connection points: 2
#     Edge 37, Type (0, 0), BuildingBlock: UVAHIK_clean_linker_0, # of connection points: 2
#     Edge 38, Type (0, 0), BuildingBlock: UVAHIK_clean_linker_0, # of connection points: 2
#     Edge 39, Type (0, 0), BuildingBlock: UVAHIK_clean_linker_0, # of connection points: 2
#     Edge 40, Type (0, 0), BuildingBlock: UVAHIK_clean_linker_0, # of connection points: 2
#     Edge 41, Type (0, 0), BuildingBlock: UVAHIK_clean_linker_0, # of connection points: 2
#     Edge 42, Type (0, 0), BuildingBlock: UVAHIK_clean_linker_0, # of connection points: 2
#     Edge 43, Type (0, 0), BuildingBlock: UVAHIK_clean_linker_0, # of connection points: 2
#     Edge 44, Type (0, 0), BuildingBlock: UVAHIK_clean_linker_0, # of connection points: 2
#     Edge 45, Type (0, 0), BuildingBlock: UVAHIK_clean_linker_0, # of connection points: 2
#     Edge 46, Type (0, 0), BuildingBlock: UVAHIK_clean_linker_0, # of connection points: 2
#     Edge 47, Type (0, 0), BuildingBlock: UVAHIK_clean_linker_0, # of connection points: 2
#     Edge 48, Type (0, 0), BuildingBlock: UVAHIK_clean_linker_0, # of connection points: 2
#     Edge 49, Type (0, 0), BuildingBlock: UVAHIK_clean_linker_0, # of connection points: 2
#     Edge 50, Type (0, 0), BuildingBlock: UVAHIK_clean_linker_0, # of connection points: 2
#     Edge 51, Type (0, 0), BuildingBlock: UVAHIK_clean_linker_0, # of connection points: 2
#     Edge 52, Type (0, 0), BuildingBlock: UVAHIK_clean_linker_0, # of connection points: 2
#     Edge 53, Type (0, 0), BuildingBlock: UVAHIK_clean_linker_0, # of connection points: 2
#     Edge 54, Type (0, 0), BuildingBlock: UVAHIK_clean_linker_0, # of connection points: 2
#     Edge 55, Type (0, 0), BuildingBlock: UVAHIK_clean_linker_0, # of connection points: 2
#     Edge 56, Type (0, 0), BuildingBlock: UVAHIK_clean_linker_0, # of connection points: 2
#     Edge 57, Type (0, 0), BuildingBlock: UVAHIK_clean_linker_0, # of connection points: 2
#     Edge 58, Type (0, 0), BuildingBlock: UVAHIK_clean_linker_0, # of connection points: 2
#     Edge 59, Type (0, 0), BuildingBlock: UVAHIK_clean_linker_0, # of connection points: 2
#     Edge 60, Type (0, 0), BuildingBlock: UVAHIK_clean_linker_0, # of connection points: 2
#     Edge 61, Type (0, 0), BuildingBlock: UVAHIK_clean_linker_0, # of connection points: 2
#     Edge 62, Type (0, 0), BuildingBlock: UVAHIK_clean_linker_0, # of connection points: 2
#     Edge 63, Type (0, 0), BuildingBlock: UVAHIK_clean_linker_0, # of connection points: 2
# Relax obj value: 0.072
# Max RMSD: 0.141
# Mean RMSD: 0.141
data_MOF--net-vbm--node1-BETFAJ_clean_sbu_0--edge1-UVAHIK_clean_linker_0
_symmetry_space_group_name_H-M    P1
_symmetry_Int_Tables_number       1
_symmetry_cell_setting            triclinic
loop_
_symmetry_equiv_pos_as_xyz
'x, y, z'
_cell_length_a     72.84204
_cell_length_b     30.667391
_cell_length_c     74.186901
_cell_angle_alpha  89.973395
_cell_angle_beta   90.061034
_cell_angle_gamma 90.022821
loop_
_atom_site_label
_atom_site_type_symbol
_atom_site_fract_x
_atom_site_fract_y
_atom_site_fract_z
_atom_type_partial_charge
Sm0 Sm 0.13139 0.06652 0.14182 0.0
Sm1 Sm 0.11438 0.1629 0.13688 0.0
C2 C 0.14017 0.99046 0.15647 0.0
C3 C 0.13764 0.94301 0.15396 0.0
C4 C 0.13834 0.91551 0.16905 0.0
C5 C 0.13635 0.87034 0.16712 0.0
C6 C 0.1336 0.85153 0.15001 0.0
C7 C 0.1328 0.87934 0.13489 0.0
C8 C 0.13475 0.92464 0.13685 0.0
C9 C 0.12763 0.0849 0.10537 0.0
C10 C 0.08762 0.08191 0.13216 0.0
C11 C 0.10578 0.24408 0.1276 0.0
C12 C 0.11085 0.29049 0.13011 0.0
C13 C 0.11097 0.31827 0.11509 0.0
C14 C 0.11436 0.36295 0.11709 0.0
C15 C 0.11768 0.38105 0.13422 0.0
C16 C 0.1179 0.35292 0.14926 0.0
C17 C 0.11455 0.30811 0.14723 0.0
C18 C 0.11339 0.12632 0.17098 0.0
C19 C 0.15887 0.15177 0.14404 0.0
O20 O 0.12566 1.01296 0.16126 0.0
O21 O 0.15063 1.01091 0.1448 0.0
O22 O 0.12357 0.10942 0.11842 0.0
O23 O 0.13428 0.04862 0.11162 0.0
O24 O 0.09973 0.05782 0.1411 0.0
O25 O 0.09168 0.1207 0.12563 0.0
O26 O 0.11696 0.21958 0.1182 0.0
O27 O 0.09835 0.22351 0.14123 0.0
O28 O 0.12638 0.12399 0.15988 0.0
O29 O 0.10033 0.1508 0.16462 0.0
O30 O 0.14492 0.17726 0.13978 0.0
O31 O 0.15716 0.10911 0.14658 0.0
H32 H 0.14058 0.92899 0.18237 0.0
H33 H 0.1373 0.85008 0.17904 0.0
H34 H 0.13047 0.86615 0.12154 0.0
H35 H 0.13405 0.94528 0.12501 0.0
H36 H 0.10804 0.30551 0.10177 0.0
H37 H 0.11383 0.38351 0.10523 0.0
H38 H 0.12065 0.36554 0.16262 0.0
H39 H 0.11462 0.28741 0.15906 0.0
Sm40 Sm 0.85461 0.97459 0.14323 0.0
Sm41 Sm 0.87136 0.87835 0.13854 0.0
C42 C 0.84619 0.05087 0.15782 0.0
C43 C 0.84866 0.09828 0.15522 0.0
C44 C 0.84842 0.12572 0.17033 0.0
C45 C 0.85039 0.17087 0.16835 0.0
C46 C 0.85264 0.18969 0.15118 0.0
C47 C 0.85296 0.16195 0.13603 0.0
C48 C 0.85103 0.11666 0.13804 0.0
C49 C 0.85726 0.95529 0.10676 0.0
C50 C 0.89805 0.95909 0.13256 0.0
C51 C 0.87971 0.79707 0.12929 0.0
C52 C 0.8747 0.75067 0.13186 0.0
C53 C 0.87412 0.72311 0.11678 0.0
C54 C 0.87077 0.67843 0.11878 0.0
C55 C 0.86795 0.6601 0.13595 0.0
C56 C 0.86819 0.68799 0.15105 0.0
C57 C 0.87151 0.73282 0.14903 0.0
C58 C 0.87346 0.91609 0.17239 0.0
C59 C 0.82716 0.88965 0.14708 0.0
O60 O 0.8608 0.02843 0.16238 0.0
O61 O 0.83548 0.03035 0.14638 0.0
O62 O 0.86171 0.93098 0.11979 0.0
O63 O 0.85081 0.99171 0.11306 0.0
O64 O 0.8862 0.98349 0.14163 0.0
O65 O 0.89383 0.91999 0.12649 0.0
O66 O 0.86838 0.82155 0.12003 0.0
O67 O 0.88738 0.81765 0.14281 0.0
O68 O 0.8601 0.91796 0.16164 0.0
O69 O 0.88636 0.89157 0.16576 0.0
O70 O 0.84098 0.86373 0.14288 0.0
O71 O 0.82891 0.93251 0.14876 0.0
H72 H 0.84657 0.11221 0.1837 0.0
H73 H 0.8498 0.1911 0.1803 0.0
H74 H 0.85489 0.17518 0.12263 0.0
H75 H 0.85137 0.09604 0.12619 0.0
H76 H 0.87666 0.73606 0.10342 0.0
H77 H 0.87094 0.65804 0.10686 0.0
H78 H 0.86584 0.67517 0.16445 0.0
H79 H 0.8718 0.75334 0.1609 0.0
Sm80 Sm 0.13252 0.96516 0.37706 0.0
Sm81 Sm 0.1148 0.876 0.37955 0.0
C82 C 0.1418 0.04674 0.36883 0.0
C83 C 0.13692 0.09344 0.3711 0.0
C84 C 0.13329 0.11884 0.35574 0.0
C85 C 0.1304 0.16384 0.3572 0.0
C86 C 0.13117 0.18475 0.37407 0.0
C87 C 0.13445 0.1591 0.38951 0.0
C88 C 0.1373 0.11399 0.38804 0.0
C89 C 0.13351 0.92992 0.41131 0.0
C90 C 0.088 0.95568 0.38546 0.0
C91 C 0.10509 0.79419 0.38678 0.0
C92 C 0.11025 0.74764 0.38452 0.0
C93 C 0.11388 0.72223 0.39987 0.0
C94 C 0.11704 0.67734 0.39839 0.0
C95 C 0.11654 0.65654 0.38149 0.0
C96 C 0.11326 0.68219 0.36606 0.0
C97 C 0.11015 0.72719 0.36755 0.0
C98 C 0.11377 0.9143 0.34576 0.0
C99 C 0.15883 0.88205 0.37125 0.0
O100 O 0.13116 0.02266 0.35869 0.0
O101 O 0.14836 0.02558 0.38273 0.0
O102 O 0.11993 0.92809 0.4007 0.0
O103 O 0.14683 0.95195 0.40412 0.0
O104 O 0.10117 0.98027 0.37849 0.0
O105 O 0.09109 0.91518 0.39034 0.0
O106 O 0.1151 0.818 0.39764 0.0
O107 O 0.09928 0.81581 0.37267 0.0
O108 O 0.12736 0.91362 0.35626 0.0
O109 O 0.10011 0.89283 0.35264 0.0
O110 O 0.14532 0.85927 0.37832 0.0
O111 O 0.15688 0.92373 0.36717 0.0
H112 H 0.13313 0.104 0.34249 0.0
H113 H 0.12816 0.18246 0.34499 0.0
H114 H 0.1349 0.17392 0.40274 0.0
H115 H 0.1401 0.09542 0.40016 0.0
H116 H 0.11382 0.73696 0.41315 0.0
H117 H 0.11926 0.65871 0.4106 0.0
H118 H 0.11301 0.66744 0.3528 0.0
H119 H 0.10735 0.74574 0.35543 0.0
Sm120 Sm 0.85533 0.06393 0.37739 0.0
Sm121 Sm 0.87186 0.16028 0.38228 0.0
C122 C 0.84693 0.98772 0.36272 0.0
C123 C 0.84923 0.94029 0.36538 0.0
C124 C 0.84983 0.91297 0.35025 0.0
C125 C 0.85144 0.86777 0.35227 0.0
C126 C 0.85248 0.84875 0.36952 0.0
C127 C 0.85212 0.8764 0.3847 0.0
C128 C 0.85052 0.92174 0.38265 0.0
C129 C 0.85806 0.08279 0.41391 0.0
C130 C 0.89876 0.08006 0.38796 0.0
C131 C 0.88016 0.24142 0.39177 0.0
C132 C 0.8753 0.28796 0.38936 0.0
C133 C 0.87356 0.31446 0.40466 0.0
C134 C 0.87055 0.35933 0.40295 0.0
C135 C 0.86927 0.37892 0.38583 0.0
C136 C 0.87052 0.35206 0.37047 0.0
C137 C 0.87352 0.30705 0.37221 0.0
C138 C 0.87393 0.12307 0.34833 0.0
C139 C 0.8277 0.14856 0.37367 0.0
O140 O 0.86166 1.00997 0.35836 0.0
O141 O 0.83612 1.00842 0.37398 0.0
O142 O 0.86239 0.1073 0.40092 0.0
O143 O 0.85169 0.04633 0.40755 0.0
O144 O 0.88698 0.05577 0.37871 0.0
O145 O 0.89434 0.11872 0.39433 0.0
O146 O 0.86874 0.21686 0.40086 0.0
O147 O 0.88794 0.22101 0.37828 0.0
O148 O 0.86061 0.12085 0.35908 0.0
O149 O 0.8868 0.14767 0.35501 0.0
O150 O 0.84145 0.17463 0.37799 0.0
O151 O 0.82956 0.10576 0.37186 0.0
H152 H 0.84895 0.92664 0.3368 0.0
H153 H 0.85202 0.84774 0.34027 0.0
H154 H 0.85273 0.86299 0.39819 0.0
H155 H 0.85013 0.94222 0.39453 0.0
H156 H 0.87487 0.30053 0.41803 0.0
H157 H 0.86933 0.37872 0.41508 0.0
H158 H 0.86973 0.36598 0.35707 0.0
H159 H 0.87482 0.28741 0.36014 0.0
Sm160 Sm 0.87165 0.8778 0.88212 0.0
Sm161 Sm 0.85463 0.9737 0.87733 0.0
C162 C 0.88021 0.79665 0.89145 0.0
C163 C 0.87528 0.75007 0.88916 0.0
C164 C 0.87387 0.72353 0.90451 0.0
C165 C 0.87081 0.67865 0.90287 0.0
C166 C 0.86913 0.65905 0.88579 0.0
C167 C 0.87005 0.68594 0.8704 0.0
C168 C 0.87311 0.73097 0.87206 0.0
C169 C 0.87352 0.91518 0.8482 0.0
C170 C 0.8274 0.8883 0.87364 0.0
C171 C 0.84598 0.04995 0.86278 0.0
C172 C 0.84823 0.09742 0.86546 0.0
C173 C 0.84853 0.12489 0.85036 0.0
C174 C 0.85016 0.1701 0.8524 0.0
C175 C 0.85152 0.18899 0.86965 0.0
C176 C 0.85145 0.16117 0.8848 0.0
C177 C 0.84982 0.11584 0.88272 0.0
C178 C 0.85746 0.95471 0.91383 0.0
C179 C 0.89821 0.95877 0.88775 0.0
O180 O 0.86903 0.82121 0.90081 0.0
O181 O 0.88765 0.8171 0.87778 0.0
O182 O 0.86018 0.91712 0.85894 0.0
O183 O 0.88651 0.89096 0.85488 0.0
O184 O 0.84129 0.86271 0.87797 0.0
O185 O 0.82904 0.93115 0.87178 0.0
O186 O 0.8607 0.02788 0.8583 0.0
O187 O 0.83529 0.02902 0.87409 0.0
O188 O 0.86194 0.93038 0.90083 0.0
O189 O 0.8509 0.99097 0.90748 0.0
O190 O 0.88624 0.98283 0.87865 0.0
O191 O 0.89407 0.91982 0.89404 0.0
H192 H 0.87549 0.73745 0.91784 0.0
H193 H 0.86984 0.65926 0.91503 0.0
H194 H 0.86896 0.67205 0.85703 0.0
H195 H 0.87414 0.75061 0.85997 0.0
H196 H 0.84742 0.11134 0.83691 0.0
H197 H 0.85051 0.19022 0.84041 0.0
H198 H 0.85231 0.17447 0.89829 0.0
H199 H 0.84967 0.09524 0.89459 0.0
Sm200 Sm 0.11504 0.16055 0.88124 0.0
Sm201 Sm 0.13208 0.06426 0.87689 0.0
C202 C 0.10624 0.24176 0.89026 0.0
C203 C 0.1114 0.28816 0.8879 0.0
C204 C 0.11169 0.31558 0.90304 0.0
C205 C 0.11511 0.36029 0.90118 0.0
C206 C 0.11828 0.37878 0.88409 0.0
C207 C 0.11834 0.35103 0.86895 0.0
C208 C 0.11496 0.30619 0.87083 0.0
C209 C 0.11505 0.12431 0.84709 0.0
C210 C 0.1597 0.14931 0.87561 0.0
C211 C 0.14126 0.98814 0.86259 0.0
C212 C 0.13862 0.94072 0.8651 0.0
C213 C 0.13912 0.91327 0.85001 0.0
C214 C 0.13706 0.86812 0.85193 0.0
C215 C 0.13443 0.84928 0.86905 0.0
C216 C 0.13382 0.87703 0.88419 0.0
C217 C 0.13585 0.92231 0.88223 0.0
C218 C 0.12743 0.08268 0.91321 0.0
C219 C 0.08806 0.07977 0.8852 0.0
O220 O 0.11711 0.21719 0.89998 0.0
O221 O 0.09917 0.22122 0.87642 0.0
O222 O 0.12772 0.12166 0.85857 0.0
O223 O 0.10183 0.14876 0.85311 0.0
O224 O 0.14564 0.17482 0.87942 0.0
O225 O 0.15804 0.1067 0.87294 0.0
O226 O 0.12691 1.01066 0.85733 0.0
O227 O 0.1514 1.00865 0.87452 0.0
O228 O 0.12368 0.10718 0.90006 0.0
O229 O 0.13419 0.04635 0.90715 0.0
O230 O 0.10041 0.05552 0.87671 0.0
O231 O 0.09194 0.11858 0.89178 0.0
H232 H 0.10887 0.30252 0.91632 0.0
H233 H 0.11472 0.38056 0.91312 0.0
H234 H 0.12097 0.36396 0.85562 0.0
H235 H 0.11488 0.28581 0.85891 0.0
H236 H 0.14128 0.92678 0.83667 0.0
H237 H 0.13786 0.84789 0.84 0.0
H238 H 0.1316 0.86381 0.89755 0.0
H239 H 0.1353 0.9429 0.89408 0.0
Sm240 Sm 0.87218 0.16137 0.63859 0.0
Sm241 Sm 0.85556 0.06521 0.64339 0.0
C242 C 0.88061 0.24249 0.62914 0.0
C243 C 0.87568 0.28904 0.63142 0.0
C244 C 0.874 0.31541 0.61604 0.0
C245 C 0.87095 0.36028 0.61765 0.0
C246 C 0.86956 0.38004 0.63472 0.0
C247 C 0.87076 0.35331 0.65014 0.0
C248 C 0.87381 0.3083 0.64851 0.0
C249 C 0.87394 0.12447 0.67262 0.0
C250 C 0.82796 0.15003 0.64669 0.0
C251 C 0.84697 0.98891 0.65791 0.0
C252 C 0.84923 0.94148 0.65519 0.0
C253 C 0.84979 0.91398 0.67027 0.0
C254 C 0.85139 0.86879 0.66819 0.0
C255 C 0.85245 0.84995 0.65091 0.0
C256 C 0.85213 0.87779 0.63578 0.0
C257 C 0.85054 0.92311 0.63789 0.0
C258 C 0.85859 0.08374 0.60687 0.0
C259 C 0.89915 0.08128 0.63351 0.0
O260 O 0.86935 0.21785 0.61988 0.0
O261 O 0.88818 0.22215 0.64278 0.0
O262 O 0.86069 0.12207 0.66176 0.0
O263 O 0.88687 0.14895 0.66601 0.0
O264 O 0.84178 0.1759 0.64244 0.0
O265 O 0.82976 0.10723 0.64863 0.0
O266 O 0.8617 1.01103 0.66241 0.0
O267 O 0.83624 1.00983 0.64662 0.0
O268 O 0.86287 0.10839 0.61984 0.0
O269 O 0.85216 0.04739 0.61325 0.0
O270 O 0.88724 0.05698 0.64257 0.0
O271 O 0.89479 0.11977 0.62693 0.0
H272 H 0.8754 0.30137 0.60271 0.0
H273 H 0.86976 0.37955 0.60547 0.0
H274 H 0.8699 0.36735 0.6635 0.0
H275 H 0.87506 0.28879 0.66062 0.0
H276 H 0.84891 0.92749 0.68374 0.0
H277 H 0.85195 0.84862 0.68016 0.0
H278 H 0.85275 0.86452 0.62227 0.0
H279 H 0.85018 0.94372 0.62604 0.0
Sm280 Sm 0.11676 0.88256 0.63683 0.0
Sm281 Sm 0.13378 0.97149 0.63965 0.0
C282 C 0.10726 0.80042 0.62988 0.0
C283 C 0.11273 0.75401 0.63216 0.0
C284 C 0.12008 0.73082 0.61751 0.0
C285 C 0.12332 0.68591 0.61874 0.0
C286 C 0.11918 0.66286 0.63464 0.0
C287 C 0.11226 0.6863 0.64946 0.0
C288 C 0.10902 0.73126 0.64823 0.0
C289 C 0.11702 0.9179 0.67119 0.0
C290 C 0.16107 0.88985 0.64209 0.0
C291 C 0.14301 0.05284 0.64832 0.0
C292 C 0.13824 0.09967 0.64609 0.0
C293 C 0.13168 0.12345 0.66093 0.0
C294 C 0.12902 0.16859 0.65975 0.0
C295 C 0.13298 0.19128 0.64372 0.0
C296 C 0.13915 0.16726 0.62872 0.0
C297 C 0.14179 0.12206 0.6299 0.0
C298 C 0.13369 0.93876 0.60496 0.0
C299 C 0.08908 0.96069 0.63262 0.0
O300 O 0.11683 0.82456 0.61879 0.0
O301 O 0.10167 0.82197 0.64406 0.0
O302 O 0.13021 0.91865 0.66023 0.0
O303 O 0.10315 0.89711 0.66439 0.0
O304 O 0.14735 0.86793 0.63498 0.0
O305 O 0.1588 0.93008 0.64803 0.0
O306 O 0.1322 0.02856 0.6582 0.0
O307 O 0.14979 0.0319 0.63449 0.0
O308 O 0.12047 0.93592 0.61593 0.0
O309 O 0.14712 0.96082 0.61196 0.0
O310 O 0.10224 0.98535 0.63956 0.0
O311 O 0.09244 0.92095 0.62696 0.0
H312 H 0.12293 0.74723 0.60488 0.0
H313 H 0.1289 0.66915 0.60713 0.0
H314 H 0.10871 0.66965 0.66185 0.0
H315 H 0.10314 0.74789 0.65972 0.0
H316 H 0.12897 0.10725 0.67363 0.0
H317 H 0.12398 0.18578 0.67149 0.0
H318 H 0.14256 0.18357 0.61622 0.0
H319 H 0.14706 0.10492 0.61824 0.0
Sm320 Sm 0.6311 0.57545 0.14035 0.0
Sm321 Sm 0.61328 0.66413 0.13873 0.0
C322 C 0.64071 0.49361 0.14775 0.0
C323 C 0.6357 0.44691 0.14535 0.0
C324 C 0.62531 0.42499 0.15851 0.0
C325 C 0.62238 0.37991 0.15738 0.0
C326 C 0.62986 0.35545 0.14311 0.0
C327 C 0.63992 0.37758 0.12974 0.0
C328 C 0.64286 0.42265 0.13088 0.0
C329 C 0.63173 0.6122 0.10638 0.0
C330 C 0.58648 0.58464 0.13248 0.0
C331 C 0.60324 0.7462 0.13253 0.0
C332 C 0.60851 0.79269 0.13502 0.0
C333 C 0.6195 0.81421 0.1222 0.0
C334 C 0.62266 0.85918 0.12342 0.0
C335 C 0.61486 0.8839 0.13744 0.0
C336 C 0.60425 0.86216 0.1505 0.0
C337 C 0.60105 0.8172 0.14926 0.0
C338 C 0.61273 0.62445 0.17227 0.0
C339 C 0.65744 0.65841 0.14624 0.0
O340 O 0.63054 0.51751 0.15841 0.0
O341 O 0.64675 0.51523 0.13376 0.0
O342 O 0.61821 0.61328 0.11705 0.0
O343 O 0.64521 0.59031 0.11337 0.0
O344 O 0.59976 0.55991 0.13916 0.0
O345 O 0.58947 0.62536 0.12787 0.0
O346 O 0.6127 0.72273 0.1211 0.0
O347 O 0.598 0.72399 0.14668 0.0
O348 O 0.62622 0.62583 0.16168 0.0
O349 O 0.5989 0.6457 0.16557 0.0
O350 O 0.6438 0.68122 0.13943 0.0
O351 O 0.65556 0.61665 0.1502 0.0
H352 H 0.61976 0.44248 0.16996 0.0
H353 H 0.61436 0.36416 0.1678 0.0
H354 H 0.64611 0.35984 0.11869 0.0
H355 H 0.65119 0.43826 0.12066 0.0
H356 H 0.62533 0.79653 0.11095 0.0
H357 H 0.63109 0.87467 0.11325 0.0
H358 H 0.59782 0.88015 0.16135 0.0
H359 H 0.59228 0.80188 0.1592 0.0
Sm360 Sm 0.3543 0.47204 0.14436 0.0
Sm361 Sm 0.37151 0.37628 0.13959 0.0
C362 C 0.34614 0.54852 0.15892 0.0
C363 C 0.34862 0.59595 0.15624 0.0
C364 C 0.35056 0.62292 0.17138 0.0
C365 C 0.35253 0.66807 0.1694 0.0
C366 C 0.35259 0.68741 0.15219 0.0
C367 C 0.35074 0.66017 0.13699 0.0
C368 C 0.34882 0.61488 0.13899 0.0
C369 C 0.35621 0.45222 0.10791 0.0
C370 C 0.39756 0.45744 0.13257 0.0
C371 C 0.37971 0.29496 0.1303 0.0
C372 C 0.37484 0.24854 0.13321 0.0
C373 C 0.37212 0.22156 0.11817 0.0
C374 C 0.36884 0.17688 0.1203 0.0
C375 C 0.36825 0.15795 0.13758 0.0
C376 C 0.37066 0.18523 0.15269 0.0
C377 C 0.3739 0.23005 0.15053 0.0
C378 C 0.37421 0.41473 0.17325 0.0
C379 C 0.32751 0.38636 0.1494 0.0
O380 O 0.36079 0.52603 0.16334 0.0
O381 O 0.33523 0.52785 0.14771 0.0
O382 O 0.3611 0.42825 0.1209 0.0
O383 O 0.34968 0.48851 0.11424 0.0
O384 O 0.38584 0.48159 0.14194 0.0
O385 O 0.39332 0.41822 0.12667 0.0
O386 O 0.368 0.31914 0.12137 0.0
O387 O 0.38791 0.31595 0.14342 0.0
O388 O 0.36059 0.41596 0.16281 0.0
O389 O 0.3871 0.3905 0.1664 0.0
O390 O 0.34145 0.36082 0.14519 0.0
O391 O 0.32885 0.42943 0.15047 0.0
H392 H 0.3504 0.60904 0.18482 0.0
H393 H 0.35366 0.68792 0.18142 0.0
H394 H 0.35095 0.6738 0.12352 0.0
H395 H 0.34746 0.5947 0.12708 0.0
H396 H 0.37292 0.23494 0.10467 0.0
H397 H 0.3673 0.15695 0.10835 0.0
H398 H 0.37006 0.17194 0.1662 0.0
H399 H 0.37589 0.25005 0.1624 0.0
Sm400 Sm 0.63156 0.46115 0.37887 0.0
Sm401 Sm 0.61368 0.37242 0.38052 0.0
C402 C 0.64119 0.54298 0.37146 0.0
C403 C 0.63622 0.58968 0.3739 0.0
C404 C 0.62601 0.61178 0.36063 0.0
C405 C 0.62312 0.65685 0.36181 0.0
C406 C 0.63044 0.68113 0.37622 0.0
C407 C 0.64031 0.65882 0.3897 0.0
C408 C 0.64322 0.61374 0.38852 0.0
C409 C 0.63228 0.42438 0.41284 0.0
C410 C 0.58696 0.45206 0.38675 0.0
C411 C 0.60365 0.29037 0.38681 0.0
C412 C 0.60894 0.24387 0.3844 0.0
C413 C 0.61972 0.22237 0.39741 0.0
C414 C 0.6229 0.1774 0.39624 0.0
C415 C 0.61533 0.15266 0.38209 0.0
C416 C 0.60492 0.17439 0.36885 0.0
C417 C 0.60171 0.21934 0.37004 0.0
C418 C 0.61301 0.41211 0.347 0.0
C419 C 0.65782 0.37816 0.37292 0.0
O420 O 0.63095 0.51912 0.36083 0.0
O421 O 0.64729 0.52132 0.38542 0.0
O422 O 0.61872 0.42331 0.40218 0.0
O423 O 0.64574 0.44628 0.40584 0.0
O424 O 0.60025 0.47678 0.38013 0.0
O425 O 0.58988 0.41128 0.39131 0.0
O426 O 0.61309 0.31397 0.39824 0.0
O427 O 0.59843 0.31245 0.37261 0.0
O428 O 0.62654 0.41076 0.35756 0.0
O429 O 0.59921 0.39078 0.3537 0.0
O430 O 0.64419 0.35532 0.37973 0.0
O431 O 0.65595 0.41993 0.36898 0.0
H432 H 0.62059 0.59443 0.34908 0.0
H433 H 0.61524 0.67275 0.3513 0.0
H434 H 0.64638 0.67641 0.40087 0.0
H435 H 0.6514 0.59799 0.39883 0.0
H436 H 0.62538 0.24006 0.40876 0.0
H437 H 0.63118 0.16193 0.40655 0.0
H438 H 0.59867 0.15639 0.35789 0.0
H439 H 0.59309 0.23465 0.35995 0.0
Sm440 Sm 0.35466 0.5629 0.37795 0.0
Sm441 Sm 0.37142 0.65901 0.3831 0.0
C442 C 0.34642 0.48671 0.36315 0.0
C443 C 0.34869 0.43925 0.3658 0.0
C444 C 0.34966 0.41204 0.35066 0.0
C445 C 0.3513 0.36682 0.35266 0.0
C446 C 0.35199 0.34767 0.3699 0.0
C447 C 0.35125 0.37522 0.3851 0.0
C448 C 0.34963 0.42057 0.38307 0.0
C449 C 0.35689 0.58166 0.41451 0.0
C450 C 0.39798 0.57838 0.38918 0.0
C451 C 0.37971 0.74014 0.39264 0.0
C452 C 0.37491 0.78671 0.39012 0.0
C453 C 0.37285 0.81326 0.40538 0.0
C454 C 0.36988 0.85813 0.40358 0.0
C455 C 0.36895 0.8777 0.38644 0.0
C456 C 0.37053 0.8508 0.37112 0.0
C457 C 0.3735 0.80579 0.37293 0.0
C458 C 0.37383 0.62175 0.34917 0.0
C459 C 0.32734 0.648 0.37381 0.0
O460 O 0.3612 0.50898 0.35897 0.0
O461 O 0.33547 0.50741 0.37429 0.0
O462 O 0.3615 0.60614 0.4016 0.0
O463 O 0.35048 0.54537 0.40803 0.0
O464 O 0.38626 0.55433 0.37975 0.0
O465 O 0.39361 0.61713 0.39549 0.0
O466 O 0.36815 0.71568 0.40162 0.0
O467 O 0.38764 0.71961 0.37927 0.0
O468 O 0.36038 0.61977 0.35976 0.0
O469 O 0.38669 0.64613 0.35601 0.0
O470 O 0.3411 0.67376 0.3784 0.0
O471 O 0.3291 0.60517 0.37198 0.0
H472 H 0.34907 0.4258 0.33721 0.0
H473 H 0.35217 0.34689 0.34065 0.0
H474 H 0.35158 0.36172 0.39858 0.0
H475 H 0.34895 0.44096 0.39497 0.0
H476 H 0.37388 0.79935 0.41877 0.0
H477 H 0.36839 0.87754 0.41569 0.0
H478 H 0.37003 0.86469 0.35771 0.0
H479 H 0.37505 0.78613 0.3609 0.0
Sm480 Sm 0.37194 0.37568 0.88328 0.0
Sm481 Sm 0.35479 0.47127 0.87835 0.0
C482 C 0.38002 0.29437 0.89271 0.0
C483 C 0.37519 0.24788 0.88981 0.0
C484 C 0.36961 0.22256 0.9046 0.0
C485 C 0.36652 0.17775 0.90272 0.0
C486 C 0.36904 0.15695 0.886 0.0
C487 C 0.37419 0.18258 0.87106 0.0
C488 C 0.37726 0.22752 0.87295 0.0
C489 C 0.37477 0.41372 0.84958 0.0
C490 C 0.32802 0.38564 0.87314 0.0
C491 C 0.34669 0.5477 0.8637 0.0
C492 C 0.34899 0.59521 0.86641 0.0
C493 C 0.35329 0.62157 0.85155 0.0
C494 C 0.35492 0.66681 0.85346 0.0
C495 C 0.35224 0.68689 0.87032 0.0
C496 C 0.34816 0.66023 0.88528 0.0
C497 C 0.34657 0.61487 0.88335 0.0
C498 C 0.35651 0.45166 0.91483 0.0
C499 C 0.39798 0.45671 0.89044 0.0
O500 O 0.36822 0.31862 0.90147 0.0
O501 O 0.38843 0.31538 0.87974 0.0
O502 O 0.36111 0.41522 0.85992 0.0
O503 O 0.38764 0.38958 0.85655 0.0
O504 O 0.34193 0.3601 0.87745 0.0
O505 O 0.32936 0.4287 0.87209 0.0
O506 O 0.36144 0.52542 0.85948 0.0
O507 O 0.33562 0.52677 0.87466 0.0
O508 O 0.36146 0.42762 0.90191 0.0
O509 O 0.35001 0.48792 0.9084 0.0
O510 O 0.38634 0.48082 0.88092 0.0
O511 O 0.39366 0.41759 0.89637 0.0
H512 H 0.36795 0.23735 0.91776 0.0
H513 H 0.36226 0.15934 0.91445 0.0
H514 H 0.37642 0.1677 0.85801 0.0
H515 H 0.38163 0.24605 0.86128 0.0
H516 H 0.35529 0.60713 0.83837 0.0
H517 H 0.35841 0.68602 0.8417 0.0
H518 H 0.34583 0.67447 0.89843 0.0
H519 H 0.34327 0.59527 0.89506 0.0
Sm520 Sm 0.61402 0.66277 0.88038 0.0
Sm521 Sm 0.63125 0.57317 0.87892 0.0
C522 C 0.6046 0.74478 0.88734 0.0
C523 C 0.60996 0.79116 0.88486 0.0
C524 C 0.62097 0.81239 0.89774 0.0
C525 C 0.62421 0.8573 0.8966 0.0
C526 C 0.61646 0.8822 0.88259 0.0
C527 C 0.60584 0.86075 0.86945 0.0
C528 C 0.60256 0.81584 0.87062 0.0
C529 C 0.61371 0.62433 0.84662 0.0
C530 C 0.6581 0.65549 0.87302 0.0
C531 C 0.64055 0.49121 0.87157 0.0
C532 C 0.63573 0.4446 0.87434 0.0
C533 C 0.62527 0.42219 0.86137 0.0
C534 C 0.62251 0.37714 0.86273 0.0
C535 C 0.63026 0.35322 0.87704 0.0
C536 C 0.64035 0.37583 0.89025 0.0
C537 C 0.64311 0.42092 0.88889 0.0
C538 C 0.63177 0.61 0.91287 0.0
C539 C 0.58661 0.58388 0.88625 0.0
O540 O 0.61448 0.72081 0.89827 0.0
O541 O 0.59866 0.72312 0.8733 0.0
O542 O 0.6269 0.62379 0.85761 0.0
O543 O 0.60031 0.64777 0.85284 0.0
O544 O 0.6446 0.67883 0.87977 0.0
O545 O 0.65596 0.61377 0.86909 0.0
O546 O 0.6298 0.51471 0.8613 0.0
O547 O 0.64724 0.51321 0.88518 0.0
O548 O 0.61836 0.61139 0.90204 0.0
O549 O 0.64515 0.58748 0.90609 0.0
O550 O 0.59986 0.55836 0.88008 0.0
O551 O 0.58969 0.62477 0.89052 0.0
H552 H 0.62674 0.79454 0.909 0.0
H553 H 0.63265 0.87262 0.90682 0.0
H554 H 0.59946 0.87893 0.85861 0.0
H555 H 0.59378 0.80071 0.86062 0.0
H556 H 0.61955 0.43926 0.84988 0.0
H557 H 0.61446 0.36095 0.85244 0.0
H558 H 0.64671 0.35846 0.90133 0.0
H559 H 0.65149 0.43697 0.89897 0.0
Sm560 Sm 0.37093 0.65638 0.63947 0.0
Sm561 Sm 0.35474 0.55978 0.64404 0.0
C562 C 0.3786 0.73775 0.62987 0.0
C563 C 0.37363 0.78402 0.63274 0.0
C564 C 0.37185 0.81144 0.61771 0.0
C565 C 0.36846 0.85602 0.61988 0.0
C566 C 0.36681 0.87434 0.63719 0.0
C567 C 0.36826 0.84658 0.65227 0.0
C568 C 0.37161 0.80185 0.65008 0.0
C569 C 0.37375 0.61842 0.67318 0.0
C570 C 0.32703 0.64388 0.64882 0.0
C571 C 0.34666 0.4833 0.65866 0.0
C572 C 0.34909 0.43592 0.65603 0.0
C573 C 0.34996 0.40872 0.6712 0.0
C574 C 0.35177 0.36356 0.66923 0.0
C575 C 0.35277 0.3445 0.652 0.0
C576 C 0.35203 0.37199 0.63678 0.0
C577 C 0.35025 0.41729 0.63878 0.0
C578 C 0.35689 0.57949 0.60759 0.0
C579 C 0.39794 0.57678 0.6329 0.0
O580 O 0.36678 0.71324 0.62123 0.0
O581 O 0.38709 0.71718 0.64292 0.0
O582 O 0.36024 0.61603 0.66263 0.0
O583 O 0.3864 0.64358 0.66644 0.0
O584 O 0.34078 0.67048 0.64517 0.0
O585 O 0.32874 0.60087 0.64951 0.0
O586 O 0.36133 0.5058 0.663 0.0
O587 O 0.33575 0.50382 0.64741 0.0
O588 O 0.36135 0.60387 0.6206 0.0
O589 O 0.35076 0.54275 0.61391 0.0
O590 O 0.38638 0.55178 0.64209 0.0
O591 O 0.39329 0.61562 0.62688 0.0
H592 H 0.37347 0.79848 0.60421 0.0
H593 H 0.36767 0.87635 0.60796 0.0
H594 H 0.36682 0.85944 0.66579 0.0
H595 H 0.37285 0.7814 0.66192 0.0
H596 H 0.34904 0.42243 0.68463 0.0
H597 H 0.35204 0.3435 0.68125 0.0
H598 H 0.35298 0.35854 0.62332 0.0
H599 H 0.34972 0.43771 0.62687 0.0
Sm600 Sm 0.61443 0.3746 0.63864 0.0
Sm601 Sm 0.63172 0.46419 0.64036 0.0
C602 C 0.60501 0.29264 0.63153 0.0
C603 C 0.61024 0.24623 0.63416 0.0
C604 C 0.62106 0.22461 0.62127 0.0
C605 C 0.6242 0.17968 0.62253 0.0
C606 C 0.61653 0.15513 0.63667 0.0
C607 C 0.6061 0.17696 0.64982 0.0
C608 C 0.60293 0.22191 0.64854 0.0
C609 C 0.61403 0.41272 0.67247 0.0
C610 C 0.65849 0.38178 0.64624 0.0
C611 C 0.64098 0.54612 0.6479 0.0
C612 C 0.63612 0.59274 0.6452 0.0
C613 C 0.62581 0.61506 0.65829 0.0
C614 C 0.62301 0.6601 0.65698 0.0
C615 C 0.63056 0.68411 0.64262 0.0
C616 C 0.64051 0.6616 0.6293 0.0
C617 C 0.64332 0.61652 0.63061 0.0
C618 C 0.63234 0.42766 0.60635 0.0
C619 C 0.58715 0.45357 0.63261 0.0
O620 O 0.61516 0.31647 0.62082 0.0
O621 O 0.5988 0.31443 0.64541 0.0
O622 O 0.62726 0.41333 0.66155 0.0
O623 O 0.60063 0.38941 0.66613 0.0
O624 O 0.64501 0.35856 0.63937 0.0
O625 O 0.65636 0.42346 0.65025 0.0
O626 O 0.63024 0.52246 0.6581 0.0
O627 O 0.64768 0.5243 0.63426 0.0
O628 O 0.6189 0.4262 0.61712 0.0
O629 O 0.6457 0.45016 0.61323 0.0
O630 O 0.60031 0.47882 0.63917 0.0
O631 O 0.59033 0.41288 0.6281 0.0
H632 H 0.62676 0.24218 0.6099 0.0
H633 H 0.6325 0.16408 0.61229 0.0
H634 H 0.59979 0.15906 0.66077 0.0
H635 H 0.59429 0.23733 0.65856 0.0
H636 H 0.62025 0.5979 0.66983 0.0
H637 H 0.61507 0.6762 0.66736 0.0
H638 H 0.64673 0.67904 0.61817 0.0
H639 H 0.65158 0.60055 0.62043 0.0
C640 C 0.19224 0.15038 0.15302 0.0
C641 C 0.17676 0.17345 0.14693 0.0
C642 C 0.20882 0.17229 0.15614 0.0
C643 C 0.22766 0.28273 0.16417 0.0
H644 H 0.27256 0.23511 0.14435 0.0
C645 C 0.29309 0.38521 0.15108 0.0
C646 C 0.31004 0.3644 0.1536 0.0
C647 C 0.27674 0.36166 0.15309 0.0
C648 C 0.2602 0.24858 0.15024 0.0
H649 H 0.1667 0.23762 0.13916 0.0
H650 H 0.19537 0.27504 0.14439 0.0
H651 H 0.24438 0.19261 0.14281 0.0
H652 H 0.32324 0.30386 0.16159 0.0
H653 H 0.2949 0.26345 0.16539 0.0
H654 H 0.24344 0.33912 0.17127 0.0
C655 C 0.19468 0.24036 0.1471 0.0
C656 C 0.24408 0.22415 0.14937 0.0
C657 C 0.17825 0.21864 0.14395 0.0
C658 C 0.31037 0.32059 0.15917 0.0
C659 C 0.29413 0.29732 0.16131 0.0
C660 C 0.2438 0.30718 0.16506 0.0
C661 C 0.21012 0.21757 0.15329 0.0
C662 C 0.22759 0.24128 0.15605 0.0
C663 C 0.27717 0.31716 0.15778 0.0
C664 C 0.26019 0.29057 0.1579 0.0
H665 H 0.19153 0.11562 0.15549 0.0
H666 H 0.22055 0.15395 0.16094 0.0
H667 H 0.21516 0.29649 0.16965 0.0
H668 H 0.29248 0.41894 0.1468 0.0
H669 H 0.26384 0.37778 0.1502 0.0
C670 C 0.8083 0.82292 0.15195 0.0
C671 C 0.80927 0.86863 0.1506 0.0
C672 C 0.79153 0.80211 0.15451 0.0
C673 C 0.74287 0.81653 0.14563 0.0
H674 H 0.73763 0.71453 0.17621 0.0
C675 C 0.67431 0.72765 0.15122 0.0
C676 C 0.67465 0.68189 0.15015 0.0
C677 C 0.69042 0.75113 0.15377 0.0
C678 C 0.73895 0.74276 0.16753 0.0
H679 H 0.79341 0.92842 0.15141 0.0
H680 H 0.76388 0.89175 0.15583 0.0
H681 H 0.76624 0.7562 0.17673 0.0
H682 H 0.69202 0.62468 0.1516 0.0
H683 H 0.72053 0.6661 0.15569 0.0
H684 H 0.71587 0.80269 0.13605 0.0
C685 C 0.77622 0.87221 0.1548 0.0
C686 C 0.75526 0.7667 0.16788 0.0
C687 C 0.7931 0.89318 0.15232 0.0
C688 C 0.6914 0.65993 0.15233 0.0
C689 C 0.70766 0.68362 0.15475 0.0
C690 C 0.72662 0.7926 0.14525 0.0
C691 C 0.77529 0.82643 0.15574 0.0
C692 C 0.75744 0.80356 0.15679 0.0
C693 C 0.70733 0.72954 0.15515 0.0
C694 C 0.72451 0.75529 0.15609 0.0
H695 H 0.82048 0.80287 0.15082 0.0
H696 H 0.79124 0.76681 0.15493 0.0
H697 H 0.74428 0.84426 0.13669 0.0
H698 H 0.66156 0.74559 0.14996 0.0
H699 H 0.68964 0.78636 0.15448 0.0
C700 C 0.29349 0.64483 0.36721 0.0
C701 C 0.30959 0.66923 0.36986 0.0
C702 C 0.27675 0.66598 0.36414 0.0
C703 C 0.25657 0.77232 0.35094 0.0
H704 H 0.21571 0.73535 0.38066 0.0
C705 C 0.19283 0.87999 0.36555 0.0
C706 C 0.17591 0.85845 0.36706 0.0
C707 C 0.20899 0.8559 0.36318 0.0
C708 C 0.22688 0.74572 0.37202 0.0
H709 H 0.32082 0.73497 0.37073 0.0
H710 H 0.29183 0.77131 0.36559 0.0
H711 H 0.24396 0.69324 0.38085 0.0
H712 H 0.16238 0.79533 0.36593 0.0
H713 H 0.19028 0.7539 0.36145 0.0
H714 H 0.23952 0.82537 0.3424 0.0
C715 C 0.29208 0.73599 0.36573 0.0
C716 C 0.24305 0.72148 0.37212 0.0
C717 C 0.30869 0.71501 0.36888 0.0
C718 C 0.17528 0.81286 0.36522 0.0
C719 C 0.19128 0.78902 0.36269 0.0
C720 C 0.24035 0.79658 0.35082 0.0
C721 C 0.2759 0.7118 0.36351 0.0
C722 C 0.25814 0.73484 0.36178 0.0
C723 C 0.20836 0.81006 0.36212 0.0
C724 C 0.2254 0.78374 0.3615 0.0
H725 H 0.29375 0.60955 0.36781 0.0
H726 H 0.26446 0.64655 0.36236 0.0
H727 H 0.26797 0.78311 0.3427 0.0
H728 H 0.19366 0.91511 0.36688 0.0
H729 H 0.22199 0.87301 0.36286 0.0
C730 C 0.80868 0.21505 0.36889 0.0
C731 C 0.80978 0.16933 0.37005 0.0
C732 C 0.79189 0.23557 0.3661 0.0
C733 C 0.74314 0.22016 0.37393 0.0
H734 H 0.73823 0.32258 0.34353 0.0
C735 C 0.67464 0.309 0.36773 0.0
C736 C 0.675 0.35472 0.36899 0.0
C737 C 0.69075 0.28553 0.36523 0.0
C738 C 0.73945 0.29422 0.35215 0.0
H739 H 0.79413 0.10924 0.3687 0.0
H740 H 0.76456 0.14544 0.3639 0.0
H741 H 0.76692 0.28123 0.34341 0.0
H742 H 0.69242 0.41192 0.36791 0.0
H743 H 0.72093 0.37054 0.36395 0.0
H744 H 0.71597 0.23358 0.38307 0.0
C745 C 0.77681 0.16518 0.36525 0.0
C746 C 0.75581 0.27047 0.35203 0.0
C747 C 0.79371 0.1445 0.36795 0.0
C748 C 0.69178 0.3767 0.36703 0.0
C749 C 0.70804 0.35302 0.36468 0.0
C750 C 0.72684 0.24391 0.37408 0.0
C751 C 0.77576 0.21096 0.36445 0.0
C752 C 0.75787 0.2335 0.36308 0.0
C753 C 0.70768 0.30712 0.36411 0.0
C754 C 0.72486 0.28139 0.36331 0.0
H755 H 0.82077 0.23531 0.37033 0.0
H756 H 0.79149 0.27088 0.36581 0.0
H757 H 0.74445 0.19231 0.38282 0.0
H758 H 0.66186 0.29107 0.36882 0.0
H759 H 0.68995 0.25032 0.36439 0.0
C760 C 0.69218 0.65653 0.86764 0.0
C761 C 0.67535 0.67855 0.86897 0.0
C762 C 0.70848 0.68015 0.86532 0.0
C763 C 0.72689 0.79009 0.87382 0.0
H764 H 0.76768 0.75173 0.84435 0.0
C765 C 0.79342 0.89101 0.86763 0.0
C766 C 0.80959 0.86682 0.87011 0.0
C767 C 0.77665 0.86963 0.86497 0.0
C768 C 0.75638 0.76278 0.85264 0.0
H769 H 0.66218 0.74205 0.86761 0.0
H770 H 0.69031 0.78263 0.86323 0.0
H771 H 0.73917 0.70966 0.84445 0.0
H772 H 0.8209 0.80118 0.87117 0.0
H773 H 0.79187 0.76448 0.86677 0.0
H774 H 0.74412 0.84269 0.88227 0.0
C775 C 0.69112 0.74751 0.86457 0.0
C776 C 0.74012 0.73862 0.85275 0.0
C777 C 0.67498 0.72413 0.86704 0.0
C778 C 0.80872 0.821 0.86942 0.0
C779 C 0.79208 0.7998 0.86669 0.0
C780 C 0.7431 0.81422 0.87369 0.0
C781 C 0.70809 0.72599 0.86415 0.0
C782 C 0.72525 0.75188 0.86346 0.0
C783 C 0.77584 0.82378 0.86462 0.0
C784 C 0.75808 0.80057 0.86326 0.0
H785 H 0.6928 0.6214 0.86904 0.0
H786 H 0.7214 0.66269 0.86511 0.0
H787 H 0.7158 0.80077 0.88247 0.0
H788 H 0.79365 0.92631 0.86802 0.0
H789 H 0.76431 0.88891 0.86329 0.0
C790 C 0.31104 0.32016 0.86283 0.0
C791 C 0.31061 0.36367 0.86874 0.0
C792 C 0.29486 0.29676 0.8605 0.0
C793 C 0.24449 0.30618 0.8569 0.0
H794 H 0.24541 0.19031 0.87801 0.0
C795 C 0.1792 0.21582 0.87714 0.0
C796 C 0.17768 0.17098 0.87338 0.0
C797 C 0.19565 0.23775 0.87439 0.0
C798 C 0.24502 0.22224 0.87177 0.0
H799 H 0.29293 0.41763 0.87598 0.0
H800 H 0.26439 0.37623 0.87226 0.0
H801 H 0.2735 0.23326 0.87683 0.0
H802 H 0.19243 0.11391 0.86402 0.0
H803 H 0.2215 0.15265 0.85929 0.0
H804 H 0.21585 0.29542 0.85229 0.0
C805 C 0.27732 0.36044 0.86924 0.0
C806 C 0.26109 0.24692 0.8711 0.0
C807 C 0.29361 0.38412 0.87142 0.0
C808 C 0.19317 0.1484 0.86706 0.0
C809 C 0.20977 0.17053 0.86435 0.0
C810 C 0.22841 0.2815 0.85759 0.0
C811 C 0.27785 0.31617 0.86419 0.0
C812 C 0.26094 0.28936 0.86386 0.0
C813 C 0.21106 0.21553 0.86785 0.0
C814 C 0.22847 0.23958 0.86531 0.0
H815 H 0.32395 0.30375 0.86029 0.0
H816 H 0.29571 0.26311 0.85615 0.0
H817 H 0.24402 0.33847 0.85099 0.0
H818 H 0.16765 0.23437 0.88219 0.0
H819 H 0.19635 0.27216 0.87762 0.0
C820 C 0.67534 0.31299 0.65202 0.0
C821 C 0.67572 0.35864 0.65032 0.0
C822 C 0.69145 0.28959 0.65456 0.0
C823 C 0.74027 0.29827 0.66709 0.0
H824 H 0.7447 0.19502 0.63715 0.0
C825 C 0.80911 0.21694 0.65094 0.0
C826 C 0.81007 0.17116 0.65008 0.0
C827 C 0.7924 0.23789 0.65354 0.0
C828 C 0.74355 0.22325 0.64585 0.0
H829 H 0.69317 0.41582 0.65072 0.0
H830 H 0.72172 0.37447 0.65479 0.0
H831 H 0.71636 0.23686 0.63673 0.0
H832 H 0.79422 0.11143 0.65173 0.0
H833 H 0.76476 0.14838 0.65623 0.0
H834 H 0.76773 0.28502 0.67584 0.0
C835 C 0.70881 0.357 0.65433 0.0
C836 C 0.72734 0.24734 0.64559 0.0
C837 C 0.69253 0.38065 0.65194 0.0
C838 C 0.79392 0.14671 0.65226 0.0
C839 C 0.77708 0.16784 0.65478 0.0
C840 C 0.75654 0.27416 0.66733 0.0
C841 C 0.70841 0.31112 0.65529 0.0
C842 C 0.72556 0.28527 0.6561 0.0
C843 C 0.77619 0.21367 0.65531 0.0
C844 C 0.75839 0.23668 0.65655 0.0
H845 H 0.66254 0.29507 0.65122 0.0
H846 H 0.69063 0.25442 0.65571 0.0
H847 H 0.73921 0.32699 0.67551 0.0
H848 H 0.82127 0.23696 0.64943 0.0
H849 H 0.79213 0.27321 0.6536 0.0
C850 C 0.19387 0.88515 0.6529 0.0
C851 C 0.1788 0.86687 0.6438 0.0
C852 C 0.21019 0.86132 0.65477 0.0
C853 C 0.23472 0.76712 0.63487 0.0
H854 H 0.26074 0.76332 0.68046 0.0
C855 C 0.29273 0.64451 0.64718 0.0
C856 C 0.30919 0.66437 0.65253 0.0
C857 C 0.27624 0.66776 0.64811 0.0
C858 C 0.25354 0.76414 0.66768 0.0
H859 H 0.16913 0.80935 0.62944 0.0
H860 H 0.19705 0.76838 0.63297 0.0
H861 H 0.23375 0.81036 0.67724 0.0
H862 H 0.32129 0.72237 0.66438 0.0
H863 H 0.29254 0.76251 0.66622 0.0
H864 H 0.25432 0.72072 0.62535 0.0
C865 C 0.19655 0.80113 0.63842 0.0
C866 C 0.23825 0.79131 0.66577 0.0
C867 C 0.18042 0.8247 0.63653 0.0
C868 C 0.30877 0.70649 0.65998 0.0
C869 C 0.29232 0.72937 0.66117 0.0
C870 C 0.24983 0.73975 0.63683 0.0
C871 C 0.21165 0.81904 0.6475 0.0
C872 C 0.22862 0.79283 0.64937 0.0
C873 C 0.27602 0.71078 0.65471 0.0
C874 C 0.25934 0.73787 0.65325 0.0
H875 H 0.193 0.91751 0.65868 0.0
H876 H 0.22169 0.87604 0.66177 0.0
H877 H 0.22782 0.76823 0.62193 0.0
H878 H 0.29274 0.6121 0.64138 0.0
H879 H 0.26376 0.65267 0.64318 0.0
C880 C 0.13001 0.9503 0.31988 0.0
C881 C 0.1136 0.93599 0.32786 0.0
C882 C 0.12988 0.97051 0.30292 0.0
C883 C 0.09984 0.98882 0.26229 0.0
H884 H 0.1366 0.07608 0.25103 0.0
C885 C 0.09685 0.1008 0.19879 0.0
C886 C 0.11316 0.10411 0.18877 0.0
C887 C 0.09673 0.0798 0.2156 0.0
C888 C 0.12631 0.05158 0.25394 0.0
H889 H 0.08413 0.93251 0.32449 0.0
H890 H 0.0837 0.96928 0.29535 0.0
H891 H 0.13652 0.04181 0.28066 0.0
H892 H 0.14212 0.08801 0.18852 0.0
H893 H 0.14199 0.05232 0.21805 0.0
H894 H 0.08934 1.00005 0.23563 0.0
C895 C 0.09683 0.96369 0.30177 0.0
C896 C 0.12629 0.0316 0.27095 0.0
C897 C 0.09702 0.94282 0.31861 0.0
C898 C 0.12934 0.08607 0.19594 0.0
C899 C 0.12929 0.06577 0.21288 0.0
C900 C 0.09968 1.00939 0.2454 0.0
C901 C 0.11328 0.97773 0.29357 0.0
C902 C 0.11312 0.99964 0.27541 0.0
C903 C 0.11298 0.06233 0.22291 0.0
C904 C 0.11297 0.04084 0.24098 0.0
H905 H 0.14303 0.94536 0.32666 0.0
H906 H 0.1429 0.97987 0.29707 0.0
H907 H 0.08967 0.96387 0.2649 0.0
H908 H 0.08416 0.11427 0.19359 0.0
H909 H 0.08396 0.07786 0.22304 0.0
C910 C 0.85828 0.08463 0.32269 0.0
C911 C 0.87444 0.1015 0.33039 0.0
C912 C 0.85856 0.0652 0.30559 0.0
C913 C 0.88805 1.00825 0.27328 0.0
H914 H 0.85284 0.04626 0.23738 0.0
C915 C 0.89057 0.94206 0.19985 0.0
C916 C 0.87404 0.93808 0.19024 0.0
C917 C 0.891 0.96281 0.21672 0.0
C918 C 0.86259 0.03445 0.24725 0.0
H919 H 0.90364 0.11031 0.32634 0.0
H920 H 0.90423 0.0752 0.2966 0.0
H921 H 0.85265 0.07916 0.26724 0.0
H922 H 0.84495 0.95241 0.19084 0.0
H923 H 0.84543 0.98655 0.22043 0.0
H924 H 0.8976 0.96234 0.25372 0.0
C925 C 0.89131 0.07751 0.30375 0.0
C926 C 0.86253 0.05369 0.2644 0.0
C927 C 0.89096 0.09776 0.32073 0.0
C928 C 0.85794 0.95515 0.19788 0.0
C929 C 0.85829 0.97518 0.21486 0.0
C930 C 0.8879 0.98834 0.25623 0.0
C931 C 0.87507 0.06136 0.2959 0.0
C932 C 0.87527 0.04089 0.27762 0.0
C933 C 0.87484 0.97953 0.22461 0.0
C934 C 0.87516 1.00109 0.24287 0.0
H935 H 0.84534 0.0869 0.32982 0.0
H936 H 0.84586 0.05275 0.29999 0.0
H937 H 0.89793 0.99737 0.28323 0.0
H938 H 0.90324 0.92953 0.19425 0.0
H939 H 0.90412 0.9661 0.22344 0.0
C940 C 0.85825 0.08566 0.69812 0.0
C941 C 0.87442 0.1027 0.69053 0.0
C942 C 0.85851 0.06594 0.71518 0.0
C943 C 0.888 1.00854 0.74745 0.0
H944 H 0.8527 0.04571 0.78332 0.0
C945 C 0.89059 0.94144 0.82077 0.0
C946 C 0.87407 0.93723 0.83035 0.0
C947 C 0.89099 0.96235 0.80392 0.0
C948 C 0.86248 0.03413 0.77346 0.0
H949 H 0.90361 0.1115 0.69471 0.0
H950 H 0.90415 0.0759 0.72436 0.0
H951 H 0.8525 0.07909 0.75354 0.0
H952 H 0.84496 0.95131 0.8297 0.0
H953 H 0.84538 0.98572 0.80015 0.0
H954 H 0.89759 0.96241 0.76694 0.0
C955 C 0.89124 0.07831 0.71717 0.0
C956 C 0.86241 0.05364 0.75635 0.0
C957 C 0.89092 0.09884 0.70024 0.0
C958 C 0.85794 0.95422 0.82269 0.0
C959 C 0.85826 0.97441 0.80573 0.0
C960 C 0.88786 0.98837 0.76445 0.0
C961 C 0.87501 0.06197 0.72492 0.0
C962 C 0.87518 0.04116 0.74314 0.0
C963 C 0.8748 0.97902 0.79602 0.0
C964 C 0.87509 1.00081 0.7778 0.0
H965 H 0.84532 0.08802 0.69095 0.0
H966 H 0.8458 0.05337 0.7207 0.0
H967 H 0.89792 0.99789 0.73751 0.0
H968 H 0.90328 0.92899 0.82639 0.0
H969 H 0.90411 0.96583 0.79724 0.0
C970 C 0.09924 0.09915 0.81881 0.0
C971 C 0.1153 0.10246 0.82923 0.0
C972 C 0.09953 0.07846 0.80195 0.0
C973 C 0.12977 0.05134 0.76409 0.0
H974 H 0.09356 0.96313 0.75246 0.0
C975 C 0.13356 0.95315 0.69718 0.0
C976 C 0.11711 0.93882 0.68925 0.0
C977 C 0.13354 0.97255 0.71432 0.0
C978 C 0.10362 0.98823 0.75524 0.0
H979 H 0.14429 0.08677 0.83011 0.0
H980 H 0.1449 0.05169 0.80044 0.0
H981 H 0.09288 0.9985 0.78185 0.0
H982 H 0.08769 0.9346 0.69287 0.0
H983 H 0.08744 0.96996 0.72223 0.0
H984 H 0.14018 0.04257 0.73739 0.0
C985 C 0.13206 0.06486 0.80537 0.0
C986 C 0.10326 1.00833 0.77221 0.0
C987 C 0.13169 0.0848 0.82238 0.0
C988 C 0.10062 0.94487 0.69871 0.0
C989 C 0.10054 0.96493 0.71569 0.0
C990 C 0.12994 0.03184 0.74698 0.0
C991 C 0.11598 0.06134 0.79496 0.0
C992 C 0.11636 0.04004 0.77687 0.0
C993 C 0.117 0.97888 0.72389 0.0
C994 C 0.11688 0.99984 0.74224 0.0
H995 H 0.0864 0.11233 0.82375 0.0
H996 H 0.08693 0.07646 0.79422 0.0
H997 H 0.13995 0.07599 0.7672 0.0
H998 H 0.1465 0.94883 0.69023 0.0
H999 H 0.14658 0.98197 0.72013 0.0
C1000 C 0.62949 0.44924 0.32151 0.0
C1001 C 0.61304 0.43404 0.32914 0.0
C1002 C 0.62952 0.46956 0.30457 0.0
C1003 C 0.60033 0.4855 0.26327 0.0
H1004 H 0.63579 0.57639 0.25292 0.0
C1005 C 0.59639 0.59623 0.19968 0.0
C1006 C 0.61283 0.60249 0.19012 0.0
C1007 C 0.59645 0.57527 0.2165 0.0
C1008 C 0.62588 0.55083 0.25556 0.0
H1009 H 0.58368 0.42908 0.32517 0.0
H1010 H 0.58354 0.46581 0.29602 0.0
H1011 H 0.63562 0.54185 0.28252 0.0
H1012 H 0.64221 0.59171 0.19067 0.0
H1013 H 0.64236 0.55592 0.22021 0.0
H1014 H 0.59031 0.49569 0.23638 0.0
C1015 C 0.59658 0.46093 0.30273 0.0
C1016 C 0.62581 0.53076 0.27255 0.0
C1017 C 0.5966 0.44008 0.31956 0.0
C1018 C 0.62933 0.58747 0.19775 0.0
C1019 C 0.62942 0.56713 0.21469 0.0
C1020 C 0.60024 0.50606 0.24638 0.0
C1021 C 0.61306 0.47583 0.29487 0.0
C1022 C 0.61307 0.49762 0.2767 0.0
C1023 C 0.61297 0.56066 0.22426 0.0
C1024 C 0.61305 0.53888 0.24228 0.0
H1025 H 0.6424 0.44496 0.32855 0.0
H1026 H 0.64257 0.4797 0.29898 0.0
H1027 H 0.59053 0.4596 0.26565 0.0
H1028 H 0.58345 0.60733 0.19413 0.0
H1029 H 0.58356 0.57107 0.22356 0.0
C1030 C 0.3911 0.59618 0.32175 0.0
C1031 C 0.37454 0.59985 0.33131 0.0
C1032 C 0.39163 0.57542 0.30488 0.0
C1033 C 0.3635 0.50296 0.27438 0.0
H1034 H 0.3985 0.54097 0.2383 0.0
C1035 C 0.35874 0.45269 0.19905 0.0
C1036 C 0.37489 0.43641 0.19116 0.0
C1037 C 0.35914 0.47212 0.21615 0.0
C1038 C 0.38872 0.52982 0.24828 0.0
H1039 H 0.3455 0.58499 0.33058 0.0
H1040 H 0.34614 0.5508 0.30102 0.0
H1041 H 0.39817 0.57595 0.26783 0.0
H1042 H 0.40419 0.42868 0.19487 0.0
H1043 H 0.40498 0.46377 0.22462 0.0
H1044 H 0.35365 0.45799 0.25442 0.0
C1045 C 0.35895 0.56243 0.30662 0.0
C1046 C 0.38857 0.54971 0.26533 0.0
C1047 C 0.35851 0.58249 0.32359 0.0
C1048 C 0.39152 0.44077 0.20063 0.0
C1049 C 0.39198 0.461 0.21761 0.0
C1050 C 0.36344 0.48371 0.25723 0.0
C1051 C 0.37553 0.55834 0.29695 0.0
C1052 C 0.37593 0.53668 0.27871 0.0
C1053 C 0.37575 0.47653 0.22566 0.0
C1054 C 0.37603 0.49687 0.24397 0.0
H1055 H 0.40372 0.60895 0.32741 0.0
H1056 H 0.40476 0.57238 0.2982 0.0
H1057 H 0.35384 0.49091 0.28427 0.0
H1058 H 0.34571 0.44994 0.19208 0.0
H1059 H 0.34643 0.48409 0.22189 0.0
C1060 C 0.39213 0.43932 0.82217 0.0
C1061 C 0.37548 0.43498 0.83157 0.0
C1062 C 0.39258 0.45922 0.80511 0.0
C1063 C 0.36415 0.48062 0.76527 0.0
H1064 H 0.39834 0.57395 0.75462 0.0
C1065 C 0.35869 0.57863 0.69874 0.0
C1066 C 0.37461 0.59658 0.69106 0.0
C1067 C 0.35926 0.55868 0.71573 0.0
C1068 C 0.38889 0.54739 0.75713 0.0
H1069 H 0.34628 0.4482 0.83047 0.0
H1070 H 0.34701 0.48172 0.80054 0.0
H1071 H 0.39879 0.53932 0.78424 0.0
H1072 H 0.40372 0.60683 0.69502 0.0
H1073 H 0.40499 0.57043 0.72428 0.0
H1074 H 0.35459 0.48715 0.73817 0.0
C1075 C 0.35972 0.47001 0.80638 0.0
C1076 C 0.38912 0.52771 0.77423 0.0
C1077 C 0.35932 0.45094 0.82356 0.0
C1078 C 0.39119 0.59359 0.70066 0.0
C1079 C 0.39184 0.57293 0.71755 0.0
C1080 C 0.36415 0.49965 0.74808 0.0
C1081 C 0.37635 0.4744 0.79693 0.0
C1082 C 0.37662 0.4944 0.77856 0.0
C1083 C 0.37585 0.55528 0.72546 0.0
C1084 C 0.37637 0.53377 0.74373 0.0
H1085 H 0.40481 0.42748 0.82802 0.0
H1086 H 0.40559 0.46201 0.79814 0.0
H1087 H 0.35451 0.45461 0.7681 0.0
H1088 H 0.34567 0.5806 0.69172 0.0
H1089 H 0.34652 0.54659 0.72131 0.0
C1090 C 0.6279 0.57348 0.824 0.0
C1091 C 0.61394 0.60311 0.82861 0.0
C1092 C 0.6278 0.55245 0.80722 0.0
C1093 C 0.61399 0.56402 0.76056 0.0
H1094 H 0.61384 0.43763 0.75803 0.0
C1095 C 0.62818 0.46339 0.69522 0.0
C1096 C 0.61419 0.43389 0.69049 0.0
C1097 C 0.62802 0.4844 0.71201 0.0
C1098 C 0.6139 0.47293 0.75855 0.0
H1099 H 0.58921 0.63478 0.81899 0.0
H1100 H 0.58951 0.59937 0.78933 0.0
H1101 H 0.61409 0.47405 0.78752 0.0
H1102 H 0.58934 0.40243 0.69991 0.0
H1103 H 0.58953 0.43779 0.72958 0.0
H1104 H 0.61435 0.56291 0.73159 0.0
C1105 C 0.6003 0.59184 0.7989 0.0
C1106 C 0.61411 0.49373 0.77539 0.0
C1107 C 0.60012 0.61202 0.81587 0.0
C1108 C 0.60028 0.42509 0.70311 0.0
C1109 C 0.60039 0.44524 0.72009 0.0
C1110 C 0.61426 0.54323 0.74372 0.0
C1111 C 0.61404 0.56155 0.79446 0.0
C1112 C 0.61404 0.53949 0.77657 0.0
C1113 C 0.61417 0.47541 0.72465 0.0
C1114 C 0.6141 0.49747 0.74254 0.0
H1115 H 0.63885 0.56629 0.83342 0.0
H1116 H 0.63864 0.52949 0.80409 0.0
H1117 H 0.614 0.59932 0.76108 0.0
H1118 H 0.6392 0.4705 0.68588 0.0
H1119 H 0.63888 0.50726 0.71522 0.0
C1120 C 0.12712 0.05715 0.94497 0.0
C1121 C 0.12445 0.09142 0.93268 0.0
C1122 C 0.1246 0.06344 0.96341 0.0
C1123 C 0.12512 0.14417 0.99964 0.0
H1124 H 0.10101 0.05089 0.02584 0.0
C1125 C 0.11938 0.13417 0.07904 0.0
C1126 C 0.1248 0.09333 0.08585 0.0
C1127 C 0.117 0.14027 0.06033 0.0
C1128 C 0.10774 0.07733 0.01876 0.0
H1129 H 0.11715 0.15959 0.93018 0.0
H1130 H 0.11292 0.17098 0.96286 0.0
H1131 H 0.10086 0.05047 0.99303 0.0
H1132 H 0.13196 0.02709 0.07843 0.0
H1133 H 0.12767 0.03748 0.04631 0.0
H1134 H 0.13248 0.17013 0.02563 0.0
C1135 C 0.11692 0.13907 0.95801 0.0
C1136 C 0.10767 0.07708 0.99993 0.0
C1137 C 0.11927 0.13256 0.93934 0.0
C1138 C 0.12772 0.05896 0.07368 0.0
C1139 C 0.12516 0.06483 0.05522 0.0
C1140 C 0.12519 0.14444 0.01862 0.0
C1141 C 0.11941 0.10434 0.97024 0.0
C1142 C 0.1169 0.10958 0.99011 0.0
C1143 C 0.1197 0.1054 0.04824 0.0
C1144 C 0.11704 0.11011 0.02837 0.0
H1145 H 0.13118 0.02507 0.94033 0.0
H1146 H 0.12696 0.03617 0.9724 0.0
H1147 H 0.13237 0.16966 0.99247 0.0
H1148 H 0.11705 0.16126 0.0881 0.0
H1149 H 0.1128 0.17194 0.05536 0.0
C1150 C 0.85552 0.97985 0.94559 0.0
C1151 C 0.85971 0.94616 0.93345 0.0
C1152 C 0.85769 0.97413 0.96413 0.0
C1153 C 0.85948 0.89431 1.00084 0.0
H1154 H 0.88046 0.99224 0.02673 0.0
C1155 C 0.86572 0.90646 0.08031 0.0
C1156 C 0.85949 0.9466 0.08716 0.0
C1157 C 0.86778 0.90041 0.06156 0.0
C1158 C 0.87457 0.96454 0.01975 0.0
H1159 H 0.86924 0.87949 0.93135 0.0
H1160 H 0.87286 0.86911 0.96419 0.0
H1161 H 0.88053 0.99215 0.99394 0.0
H1162 H 0.8504 1.01149 0.0797 0.0
H1163 H 0.85407 1.00117 0.04753 0.0
H1164 H 0.85307 0.86745 0.02692 0.0
C1165 C 0.86794 0.90013 0.95915 0.0
C1166 C 0.87461 0.96448 1.00092 0.0
C1167 C 0.86593 0.90607 0.94038 0.0
C1168 C 0.85531 0.9802 0.07495 0.0
C1169 C 0.85752 0.97437 0.05643 0.0
C1170 C 0.85944 0.89436 0.01983 0.0
C1171 C 0.86405 0.93443 0.97122 0.0
C1172 C 0.86652 0.93015 0.99117 0.0
C1173 C 0.86391 0.93464 0.04942 0.0
C1174 C 0.86645 0.93026 0.02949 0.0
H1175 H 0.85062 1.01111 0.94078 0.0
H1176 H 0.85423 1.00099 0.97297 0.0
H1177 H 0.85314 0.86736 0.99374 0.0
H1178 H 0.86903 0.87995 0.08939 0.0
H1179 H 0.87272 0.86938 0.05658 0.0
C1180 C 0.1482 0.92748 0.44175 0.0
C1181 C 0.13256 0.92106 0.43097 0.0
C1182 C 0.1473 0.92269 0.46048 0.0
C1183 C 0.11469 0.92575 0.49867 0.0
H1184 H 0.15616 0.87881 0.5251 0.0
C1185 C 0.11607 0.91548 0.57725 0.0
C1186 C 0.13257 0.92898 0.58539 0.0
C1187 C 0.1151 0.90916 0.55851 0.0
C1188 C 0.14449 0.89226 0.51796 0.0
H1189 H 0.10376 0.90351 0.4314 0.0
H1190 H 0.10217 0.89486 0.46424 0.0
H1191 H 0.15619 0.87691 0.49228 0.0
H1192 H 0.16103 0.94545 0.58032 0.0
H1193 H 0.15937 0.93457 0.54789 0.0
H1194 H 0.10315 0.94171 0.52443 0.0
C1195 C 0.11512 0.90407 0.45817 0.0
C1196 C 0.14451 0.89118 0.49909 0.0
C1197 C 0.11605 0.90871 0.43935 0.0
C1198 C 0.14811 0.93502 0.57448 0.0
C1199 C 0.14718 0.92849 0.55585 0.0
C1200 C 0.11467 0.9268 0.51759 0.0
C1201 C 0.13072 0.91135 0.46902 0.0
C1202 C 0.12979 0.90869 0.48915 0.0
C1203 C 0.13065 0.91578 0.54754 0.0
C1204 C 0.12974 0.91085 0.52749 0.0
H1205 H 0.16113 0.93708 0.43574 0.0
H1206 H 0.15955 0.92918 0.46833 0.0
H1207 H 0.10319 0.9399 0.4915 0.0
H1208 H 0.10386 0.91053 0.58532 0.0
H1209 H 0.10219 0.899 0.5526 0.0
C1210 C 0.86679 0.13243 0.58026 0.0
C1211 C 0.86088 0.09212 0.58725 0.0
C1212 C 0.86878 0.13827 0.56149 0.0
C1213 C 0.87581 0.07385 0.51977 0.0
H1214 H 0.85366 0.17008 0.49374 0.0
C1215 C 0.85643 0.05753 0.4457 0.0
C1216 C 0.86034 0.09136 0.43351 0.0
C1217 C 0.85868 0.06334 0.46422 0.0
C1218 C 0.86019 0.1434 0.50084 0.0
H1219 H 0.85236 0.02666 0.58 0.0
H1220 H 0.85591 0.03662 0.54781 0.0
H1221 H 0.85381 0.17025 0.52691 0.0
H1222 H 0.86947 0.15836 0.43134 0.0
H1223 H 0.87321 0.1689 0.46414 0.0
H1224 H 0.88175 0.04623 0.49397 0.0
C1225 C 0.85915 0.06372 0.55661 0.0
C1226 C 0.86028 0.1435 0.51983 0.0
C1227 C 0.85701 0.0581 0.57515 0.0
C1228 C 0.86636 0.13168 0.4404 0.0
C1229 C 0.86845 0.1377 0.45915 0.0
C1230 C 0.87572 0.07374 0.50094 0.0
C1231 C 0.86518 0.10367 0.54947 0.0
C1232 C 0.86756 0.10794 0.52951 0.0
C1233 C 0.86483 0.10328 0.47126 0.0
C1234 C 0.86738 0.10773 0.49119 0.0
H1235 H 0.86985 0.15926 0.58926 0.0
H1236 H 0.87344 0.16947 0.55641 0.0
H1237 H 0.88192 0.04642 0.52676 0.0
H1238 H 0.8517 0.0261 0.44092 0.0
H1239 H 0.85543 0.03637 0.4731 0.0
C1240 C 0.61407 0.63402 0.07851 0.0
C1241 C 0.63069 0.62203 0.08679 0.0
C1242 C 0.61309 0.6396 0.05972 0.0
C1243 C 0.64232 0.65611 0.01897 0.0
H1244 H 0.60147 0.60436 0.99314 0.0
C1245 C 0.64634 0.61533 0.94329 0.0
C1246 C 0.63068 0.62029 0.93241 0.0
C1247 C 0.64539 0.62153 0.96194 0.0
C1248 C 0.61284 0.61964 1.00012 0.0
H1249 H 0.65938 0.60767 0.08194 0.0
H1250 H 0.65772 0.61724 0.04942 0.0
H1251 H 0.60149 0.60468 0.02607 0.0
H1252 H 0.60176 0.63668 0.93255 0.0
H1253 H 0.60005 0.64771 0.96528 0.0
H1254 H 0.65384 0.67037 0.99309 0.0
C1255 C 0.64543 0.6227 0.0573 0.0
C1256 C 0.61285 0.61982 0.01905 0.0
C1257 C 0.64637 0.61695 0.07599 0.0
C1258 C 0.61407 0.63261 0.94058 0.0
C1259 C 0.61308 0.63862 0.95935 0.0
C1260 C 0.64231 0.65592 1.00009 0.0
C1261 C 0.62875 0.63367 0.04885 0.0
C1262 C 0.62778 0.63729 0.02874 0.0
C1263 C 0.62872 0.63283 0.97029 0.0
C1264 C 0.62775 0.63691 0.99038 0.0
H1265 H 0.60175 0.63819 0.08648 0.0
H1266 H 0.60006 0.64847 0.05372 0.0
H1267 H 0.65386 0.6707 0.02593 0.0
H1268 H 0.65934 0.60582 0.93742 0.0
H1269 H 0.65766 0.61616 0.96987 0.0
C1270 C 0.35319 0.47595 0.9466 0.0
C1271 C 0.35837 0.443 0.93448 0.0
C1272 C 0.35522 0.47038 0.96515 0.0
C1273 C 0.35875 0.39097 1.00192 0.0
H1274 H 0.37746 0.49151 0.02778 0.0
C1275 C 0.36517 0.40408 0.08139 0.0
C1276 C 0.35815 0.44344 0.08828 0.0
C1277 C 0.36713 0.39817 0.06262 0.0
C1278 C 0.3722 0.46308 0.02081 0.0
H1279 H 0.36946 0.37769 0.93245 0.0
H1280 H 0.37287 0.36757 0.96532 0.0
H1281 H 0.37749 0.49142 0.995 0.0
H1282 H 0.34748 0.50699 0.08087 0.0
H1283 H 0.35096 0.49692 0.04867 0.0
H1284 H 0.35301 0.36331 0.02802 0.0
C1285 C 0.36727 0.39789 0.96025 0.0
C1286 C 0.37222 0.46303 1.00198 0.0
C1287 C 0.36536 0.40368 0.94146 0.0
C1288 C 0.35303 0.47633 0.07609 0.0
C1289 C 0.35512 0.47066 0.05755 0.0
C1290 C 0.35872 0.39103 0.02092 0.0
C1291 C 0.36245 0.43157 0.97229 0.0
C1292 C 0.36495 0.42767 0.99225 0.0
C1293 C 0.36235 0.4318 0.0505 0.0
C1294 C 0.3649 0.42778 0.03056 0.0
H1295 H 0.34766 0.50658 0.94175 0.0
H1296 H 0.35103 0.49669 0.97398 0.0
H1297 H 0.35305 0.36322 0.99483 0.0
H1298 H 0.36922 0.37813 0.09046 0.0
H1299 H 0.37273 0.36781 0.05761 0.0
C1300 C 0.64697 0.41983 0.44324 0.0
C1301 C 0.63127 0.41461 0.43243 0.0
C1302 C 0.64605 0.41419 0.46193 0.0
C1303 C 0.6135 0.41716 0.50014 0.0
H1304 H 0.65457 0.36724 0.52624 0.0
C1305 C 0.61471 0.40481 0.5786 0.0
C1306 C 0.63129 0.41737 0.58682 0.0
C1307 C 0.61375 0.39872 0.55984 0.0
C1308 C 0.64301 0.38152 0.51919 0.0
H1309 H 0.60234 0.3983 0.43274 0.0
H1310 H 0.60071 0.38821 0.46551 0.0
H1311 H 0.65457 0.36661 0.4934 0.0
H1312 H 0.65993 0.43219 0.58188 0.0
H1313 H 0.6583 0.42169 0.54942 0.0
H1314 H 0.60211 0.43273 0.52601 0.0
C1315 C 0.61372 0.39711 0.4595 0.0
C1316 C 0.64301 0.38116 0.50032 0.0
C1317 C 0.61467 0.40258 0.44072 0.0
C1318 C 0.64695 0.4225 0.57598 0.0
C1319 C 0.64602 0.4162 0.55733 0.0
C1320 C 0.6135 0.4175 0.51907 0.0
C1321 C 0.62939 0.4032 0.47039 0.0
C1322 C 0.62844 0.39975 0.4905 0.0
C1323 C 0.62939 0.40466 0.54894 0.0
C1324 C 0.62843 0.40045 0.52885 0.0
H1325 H 0.65996 0.42914 0.43729 0.0
H1326 H 0.65835 0.41978 0.46981 0.0
H1327 H 0.60212 0.43214 0.49308 0.0
H1328 H 0.60241 0.40059 0.5866 0.0
H1329 H 0.60075 0.38942 0.55388 0.0
C1330 C 0.36515 0.62846 0.58109 0.0
C1331 C 0.35891 0.58833 0.58798 0.0
C1332 C 0.3671 0.63457 0.56233 0.0
C1333 C 0.37349 0.57043 0.52047 0.0
H1334 H 0.35248 0.66835 0.49459 0.0
C1335 C 0.35452 0.55633 0.44624 0.0
C1336 C 0.35894 0.59002 0.43416 0.0
C1337 C 0.3566 0.56181 0.46479 0.0
C1338 C 0.3587 0.64117 0.50165 0.0
H1339 H 0.34965 0.52356 0.58054 0.0
H1340 H 0.3531 0.534 0.54836 0.0
H1341 H 0.35247 0.66799 0.52777 0.0
H1342 H 0.36879 0.65648 0.43221 0.0
H1343 H 0.37226 0.66645 0.46508 0.0
H1344 H 0.37928 0.54289 0.49462 0.0
C1345 C 0.35666 0.56073 0.55725 0.0
C1346 C 0.35869 0.64097 0.52065 0.0
C1347 C 0.35458 0.55484 0.57577 0.0
C1348 C 0.36529 0.62991 0.44118 0.0
C1349 C 0.36722 0.63561 0.45997 0.0
C1350 C 0.3735 0.57063 0.50163 0.0
C1351 C 0.36309 0.60043 0.55021 0.0
C1352 C 0.36556 0.60484 0.53026 0.0
C1353 C 0.36311 0.60128 0.47197 0.0
C1354 C 0.36557 0.60526 0.49194 0.0
H1355 H 0.36858 0.6549 0.59016 0.0
H1356 H 0.37207 0.66558 0.55733 0.0
H1357 H 0.37928 0.54254 0.5274 0.0
H1358 H 0.34951 0.52523 0.44135 0.0
H1359 H 0.35297 0.53494 0.47358 0.0
C1360 C 0.93082 0.94292 0.1262 0.0
C1361 C 0.91719 0.97368 0.13039 0.0
C1362 C 0.94918 0.9551 0.12541 0.0
C1363 C 0.98093 0.04119 0.14088 0.0
H1364 H 0.01436 0.98421 0.10767 0.0
C1365 C 0.05462 0.09867 0.12762 0.0
C1366 C 0.06842 0.06746 0.13067 0.0
C1367 C 0.03625 0.08645 0.1272 0.0
C1368 C 0.00514 1.0 0.11708 0.0
H1369 H 0.91201 0.04167 0.13647 0.0
H1370 H 0.9442 0.06357 0.13437 0.0
H1371 H 0.98164 0.96723 0.10648 0.0
H1372 H 0.07387 0.99886 0.13529 0.0
H1373 H 0.04139 0.97716 0.134 0.0
H1374 H 0.00452 0.07513 0.15093 0.0
C1375 C 0.94069 0.02965 0.13222 0.0
C1376 C 0.98644 0.99034 0.11646 0.0
C1377 C 0.92225 1.01725 0.1333 0.0
C1378 C 0.06349 0.02351 0.13293 0.0
C1379 C 0.04502 1.01113 0.13215 0.0
C1380 C -0.00043 0.05139 0.14126 0.0
C1381 C 0.95439 0.99853 0.12849 0.0
C1382 C 0.97412 1.01059 0.12845 0.0
C1383 C 0.03132 0.04272 0.12952 0.0
C1384 C 0.01178 0.0307 0.12943 0.0
H1385 H 0.92742 0.90891 0.12409 0.0
H1386 H 0.95932 0.93003 0.1229 0.0
H1387 H 0.97195 0.05674 0.15056 0.0
H1388 H 0.05793 0.13288 0.12596 0.0
H1389 H 0.02587 0.11121 0.12504 0.0
C1390 C 0.92351 0.0236 0.38555 0.0
C1391 C 0.91803 0.06619 0.38981 0.0
C1392 C 0.94209 1.01226 0.38603 0.0
C1393 C 0.98771 0.05096 0.40235 0.0
H1394 H 0.00571 0.97347 0.36507 0.0
C1395 C 0.06492 1.01661 0.38575 0.0
C1396 C 0.06906 0.97196 0.38692 0.0
C1397 C 0.04663 0.03058 0.38648 0.0
C1398 C 0.0008 0.9953 0.37549 0.0
H1399 H 0.92768 0.13023 0.39811 0.0
H1400 H 0.95981 0.11098 0.39832 0.0
H1401 H 0.97313 0.9914 0.36616 0.0
H1402 H 0.05737 0.90701 0.38968 0.0
H1403 H 0.02574 0.93145 0.39056 0.0
H1404 H 0.01567 0.05534 0.41132 0.0
C1405 C 0.94989 0.08584 0.39511 0.0
C1406 C 0.98216 1.00515 0.37627 0.0
C1407 C 0.93139 0.09693 0.39489 0.0
C1408 C 0.05469 0.94169 0.38885 0.0
C1409 C 0.03656 0.95552 0.38925 0.0
C1410 C 0.00644 0.04162 0.40136 0.0
C1411 C 0.95551 0.04352 0.39052 0.0
C1412 C 0.97535 0.03276 0.38982 0.0
C1413 C 0.03238 0.99992 0.38797 0.0
C1414 C 0.01303 1.01338 0.38804 0.0
H1415 H 0.9135 0.99918 0.38168 0.0
H1416 H 0.94593 0.97909 0.38276 0.0
H1417 H 0.98292 0.07185 0.41312 0.0
H1418 H 0.07574 0.04057 0.38425 0.0
H1419 H 0.04358 0.06506 0.38548 0.0
C1420 C 0.05494 0.0969 0.88809 0.0
C1421 C 0.06882 0.0654 0.8862 0.0
C1422 C 0.03658 0.08461 0.88846 0.0
C1423 C 0.00571 0.99955 0.90087 0.0
H1424 H 0.97206 0.05201 0.86656 0.0
C1425 C 0.93099 0.9429 0.89432 0.0
C1426 C 0.9174 0.97334 0.88957 0.0
C1427 C 0.94942 0.95474 0.89457 0.0
C1428 C 0.98118 0.03768 0.87646 0.0
H1429 H 0.07445 0.99633 0.88341 0.0
H1430 H 0.04196 0.97456 0.88463 0.0
H1431 H 0.00466 0.06981 0.86526 0.0
H1432 H 0.91239 0.04054 0.88199 0.0
H1433 H 0.94469 0.06192 0.88312 0.0
H1434 H 0.98233 0.96872 0.9126 0.0
C1435 C 0.04551 1.00878 0.88561 0.0
C1436 C -0.00016 0.0475 0.87555 0.0
C1437 C 0.06399 0.02118 0.88488 0.0
C1438 C 0.92258 1.01635 0.88562 0.0
C1439 C 0.94109 0.02844 0.88613 0.0
C1440 C 0.987 0.99028 0.902 0.0
C1441 C 0.03173 0.04057 0.88723 0.0
C1442 C 0.01222 0.02838 0.8877 0.0
C1443 C 0.95474 0.99753 0.89035 0.0
C1444 C 0.97451 1.00907 0.88974 0.0
H1445 H 0.0582 0.1313 0.88897 0.0
H1446 H 0.02614 0.10956 0.88983 0.0
H1447 H 0.01505 0.98504 0.91054 0.0
H1448 H 0.92753 0.9093 0.89728 0.0
H1449 H 0.95951 0.92981 0.89752 0.0
C1450 C 0.9239 0.02454 0.63541 0.0
C1451 C 0.91849 0.06774 0.6321 0.0
C1452 C 0.94249 1.01322 0.63484 0.0
C1453 C 0.98792 0.05802 0.64178 0.0
H1454 H 0.0053 0.96544 0.61065 0.0
C1455 C 0.06531 0.02013 0.63316 0.0
C1456 C 0.06992 0.97583 0.63189 0.0
C1457 C 0.04686 0.03296 0.63255 0.0
C1458 C 0.00067 0.99101 0.61961 0.0
H1459 H 0.92827 0.13297 0.62568 0.0
H1460 H 0.96052 0.11316 0.62503 0.0
H1461 H 0.97263 0.98231 0.61163 0.0
H1462 H 0.05892 0.91016 0.62961 0.0
H1463 H 0.02718 0.93218 0.6292 0.0
H1464 H 0.01578 0.06599 0.65026 0.0
C1465 C 0.95043 0.08815 0.62793 0.0
C1466 C 0.98198 1.0006 0.62012 0.0
C1467 C 0.93194 0.09928 0.62818 0.0
C1468 C 0.05587 0.94469 0.63027 0.0
C1469 C 0.03759 0.95734 0.62993 0.0
C1470 C 0.0066 0.04796 0.64152 0.0
C1471 C 0.95585 0.04517 0.63132 0.0
C1472 C 0.9755 0.03412 0.63121 0.0
C1473 C 0.03282 1.00158 0.63089 0.0
C1474 C 0.01317 1.01418 0.63049 0.0
H1475 H 0.91382 0.99965 0.63849 0.0
H1476 H 0.94648 0.9798 0.63751 0.0
H1477 H 0.98312 0.08402 0.65046 0.0
H1478 H 0.0759 0.04474 0.63445 0.0
H1479 H 0.04363 0.06738 0.6332 0.0
C1480 C 0.42205 0.51479 0.13442 0.0
C1481 C 0.41665 0.47218 0.13004 0.0
C1482 C 0.44055 0.52674 0.13348 0.0
C1483 C 0.48595 0.48988 0.11588 0.0
H1484 H 0.50454 0.56543 0.1536 0.0
C1485 C 0.56341 0.52361 0.132 0.0
C1486 C 0.56753 0.56831 0.13108 0.0
C1487 C 0.54511 0.50961 0.13132 0.0
C1488 C 0.49947 0.54415 0.14305 0.0
H1489 H 0.42635 0.40891 0.12087 0.0
H1490 H 0.45834 0.42918 0.11986 0.0
H1491 H 0.47197 0.54733 0.15284 0.0
H1492 H 0.55579 0.63332 0.1288 0.0
H1493 H 0.52416 0.60881 0.12802 0.0
H1494 H 0.51375 0.48615 0.10647 0.0
C1495 C 0.44841 0.45387 0.12356 0.0
C1496 C 0.48081 0.53422 0.14245 0.0
C1497 C 0.42999 0.44217 0.12426 0.0
C1498 C 0.55313 0.59859 0.12943 0.0
C1499 C 0.535 0.58473 0.12909 0.0
C1500 C 0.50468 0.49928 0.11668 0.0
C1501 C 0.45398 0.4961 0.12837 0.0
C1502 C 0.47379 0.50726 0.12877 0.0
C1503 C 0.53084 0.54028 0.13013 0.0
C1504 C 0.51149 0.52679 0.13017 0.0
H1505 H 0.41207 0.53868 0.13881 0.0
H1506 H 0.44433 0.55985 0.13692 0.0
H1507 H 0.48098 0.46951 0.105 0.0
H1508 H 0.57425 0.49964 0.13327 0.0
H1509 H 0.54207 0.47509 0.13213 0.0
C1510 C 0.43053 0.59438 0.39689 0.0
C1511 C 0.41719 0.56414 0.39128 0.0
C1512 C 0.44902 0.58311 0.39719 0.0
C1513 C 0.48129 0.50375 0.37748 0.0
H1514 H 0.51472 0.5509 0.41331 0.0
C1515 C 0.55357 0.43841 0.38964 0.0
C1516 C 0.56804 0.46856 0.3882 0.0
C1517 C 0.53548 0.4525 0.39008 0.0
C1518 C 0.50551 0.53806 0.40314 0.0
H1519 H 0.41267 0.49772 0.38234 0.0
H1520 H 0.44505 0.4773 0.38354 0.0
H1521 H 0.48198 0.56756 0.4152 0.0
H1522 H 0.57495 0.53721 0.38643 0.0
H1523 H 0.54284 0.56215 0.38774 0.0
H1524 H 0.50485 0.47276 0.36596 0.0
C1525 C 0.44122 0.51026 0.38716 0.0
C1526 C 0.4868 0.54746 0.40418 0.0
C1527 C 0.42266 0.52177 0.38662 0.0
C1528 C 0.56404 0.51335 0.38755 0.0
C1529 C 0.54579 0.52756 0.38832 0.0
C1530 C 0.49993 0.49382 0.37664 0.0
C1531 C 0.45463 0.54111 0.39213 0.0
C1532 C 0.47446 0.53032 0.39137 0.0
C1533 C 0.53144 0.49704 0.38934 0.0
C1534 C 0.51212 0.5108 0.38948 0.0
H1535 H 0.42683 0.62747 0.40046 0.0
H1536 H 0.45894 0.60793 0.4008 0.0
H1537 H 0.4723 0.49086 0.36715 0.0
H1538 H 0.55614 0.40363 0.39006 0.0
H1539 H 0.52458 0.42852 0.39102 0.0
C1540 C 0.42264 0.51373 0.88853 0.0
C1541 C 0.41708 0.4713 0.89311 0.0
C1542 C 0.44117 0.52542 0.88965 0.0
C1543 C 0.48639 0.47878 0.88547 0.0
H1544 H 0.50381 0.58067 0.91119 0.0
C1545 C 0.5636 0.52324 0.88938 0.0
C1546 C 0.56767 0.56784 0.88808 0.0
C1547 C 0.54537 0.50954 0.89143 0.0
C1548 C 0.49915 0.55236 0.90376 0.0
H1549 H 0.42652 0.40822 0.90289 0.0
H1550 H 0.45866 0.42863 0.90448 0.0
H1551 H 0.47121 0.56256 0.91173 0.0
H1552 H 0.55594 0.63294 0.8872 0.0
H1553 H 0.52451 0.60922 0.89008 0.0
H1554 H 0.51409 0.46935 0.87684 0.0
C1555 C 0.44872 0.4527 0.90009 0.0
C1556 C 0.48052 0.54206 0.90414 0.0
C1557 C 0.43028 0.44123 0.89924 0.0
C1558 C 0.55329 0.59831 0.88851 0.0
C1559 C 0.53521 0.58472 0.89029 0.0
C1560 C 0.505 0.48948 0.88482 0.0
C1561 C 0.45434 0.49461 0.89509 0.0
C1562 C 0.47402 0.50537 0.89492 0.0
C1563 C 0.531 0.54028 0.89197 0.0
C1564 C 0.51156 0.52667 0.8938 0.0
H1565 H 0.41279 0.53756 0.88378 0.0
H1566 H 0.4453 0.55799 0.88571 0.0
H1567 H 0.48158 0.45036 0.87819 0.0
H1568 H 0.57445 0.49913 0.88908 0.0
H1569 H 0.54257 0.47502 0.89279 0.0
C1570 C 0.42284 0.52023 0.6334 0.0
C1571 C 0.41721 0.56349 0.63059 0.0
C1572 C 0.44142 0.50921 0.63209 0.0
C1573 C 0.48666 0.5544 0.63856 0.0
H1574 H 0.50405 0.46286 0.60691 0.0
C1575 C 0.56391 0.51415 0.6317 0.0
C1576 C 0.5682 0.46961 0.63069 0.0
C1577 C 0.54563 0.52789 0.63022 0.0
C1578 C 0.49941 0.4882 0.61598 0.0
H1579 H 0.4266 0.62905 0.62416 0.0
H1580 H 0.45885 0.60974 0.62226 0.0
H1581 H 0.47136 0.47996 0.60789 0.0
H1582 H 0.55674 0.40453 0.62767 0.0
H1583 H 0.52528 0.42813 0.62576 0.0
H1584 H 0.51447 0.5617 0.64727 0.0
C1585 C 0.44892 0.58448 0.62532 0.0
C1586 C 0.48073 0.49791 0.61648 0.0
C1587 C 0.43043 0.59532 0.62631 0.0
C1588 C 0.55398 0.43921 0.62824 0.0
C1589 C 0.53585 0.45278 0.62701 0.0
C1590 C 0.50532 0.5442 0.63831 0.0
C1591 C 0.45456 0.54149 0.62831 0.0
C1592 C 0.47424 0.53091 0.62783 0.0
C1593 C 0.53141 0.49722 0.62792 0.0
C1594 C 0.51188 0.51069 0.62714 0.0
H1595 H 0.41295 0.4951 0.63671 0.0
H1596 H 0.4456 0.4758 0.63447 0.0
H1597 H 0.48186 0.57999 0.64745 0.0
H1598 H 0.57461 0.53825 0.63356 0.0
H1599 H 0.54267 0.56245 0.63083 0.0
C1600 C 0.14008 0.78101 0.13358 0.0
C1601 C 0.13176 0.80315 0.14805 0.0
C1602 C 0.1388 0.73552 0.13208 0.0
C1603 C 0.12901 0.63579 0.15904 0.0
H1604 H 0.12246 0.58185 0.11223 0.0
C1605 C 0.11235 0.45174 0.15088 0.0
C1606 C 0.12035 0.42917 0.13636 0.0
C1607 C 0.11414 0.4971 0.15243 0.0
C1608 C 0.12452 0.59626 0.1254 0.0
H1609 H 0.11509 0.7944 0.17199 0.0
H1610 H 0.11282 0.7154 0.16934 0.0
H1611 H 0.12458 0.66098 0.1145 0.0
H1612 H 0.13703 0.43698 0.11237 0.0
H1613 H 0.1402 0.51585 0.11509 0.0
H1614 H 0.12892 0.57108 0.16994 0.0
C1615 C 0.12067 0.73308 0.15933 0.0
C1616 C 0.12573 0.64178 0.1267 0.0
C1617 C 0.12196 0.77851 0.16084 0.0
C1618 C 0.13041 0.45324 0.12358 0.0
C1619 C 0.13221 0.49858 0.12513 0.0
C1620 C 0.1278 0.59028 0.15773 0.0
C1621 C 0.12914 0.71086 0.14498 0.0
C1622 C 0.12796 0.66223 0.14355 0.0
C1623 C 0.124 0.52125 0.13951 0.0
C1624 C 0.12551 0.56983 0.1409 0.0
H1625 H 0.14796 0.79872 0.12361 0.0
H1626 H 0.14572 0.7196 0.12097 0.0
H1627 H 0.13104 0.6502 0.17221 0.0
H1628 H 0.10426 0.4345 0.16084 0.0
H1629 H 0.10739 0.51337 0.16355 0.0
C1630 C 0.86471 0.26251 0.16169 0.0
C1631 C 0.85445 0.23804 0.14918 0.0
C1632 C 0.86595 0.30794 0.16021 0.0
C1633 C 0.85975 0.39964 0.12798 0.0
H1634 H 0.85783 0.46959 0.17146 0.0
C1635 C 0.85485 0.58816 0.1255 0.0
C1636 C 0.86534 0.61198 0.13805 0.0
C1637 C 0.85311 0.5428 0.12698 0.0
C1638 C 0.85859 0.4506 0.15918 0.0
H1639 H 0.83742 0.24269 0.12527 0.0
H1640 H 0.83958 0.32185 0.12268 0.0
H1641 H 0.85583 0.39043 0.17359 0.0
H1642 H 0.88224 0.60625 0.16201 0.0
H1643 H 0.87921 0.52733 0.1646 0.0
H1644 H 0.86255 0.45982 0.11357 0.0
C1645 C 0.84688 0.3058 0.13354 0.0
C1646 C 0.85745 0.40508 0.16041 0.0
C1647 C 0.84565 0.26031 0.13501 0.0
C1648 C 0.87382 0.58918 0.15226 0.0
C1649 C 0.87209 0.5438 0.15373 0.0
C1650 C 0.8609 0.44517 0.12676 0.0
C1651 C 0.85697 0.3303 0.14618 0.0
C1652 C 0.85806 0.37892 0.14483 0.0
C1653 C 0.86181 0.5199 0.14104 0.0
C1654 C 0.86036 0.47132 0.14234 0.0
H1655 H 0.87195 0.24649 0.1726 0.0
H1656 H 0.87414 0.32551 0.17 0.0
H1657 H 0.86054 0.38064 0.11571 0.0
H1658 H 0.84787 0.60462 0.11455 0.0
H1659 H 0.84481 0.5257 0.11715 0.0
C1660 C 0.11641 0.25569 0.36457 0.0
C1661 C 0.12915 0.23321 0.37541 0.0
C1662 C 0.11506 0.30124 0.3653 0.0
C1663 C 0.12683 0.39729 0.39372 0.0
H1664 H 0.11983 0.46151 0.34921 0.0
C1665 C 0.13153 0.5859 0.39102 0.0
C1666 C 0.11877 0.60815 0.38013 0.0
C1667 C 0.13305 0.54037 0.39029 0.0
C1668 C 0.12158 0.44414 0.36181 0.0
H1669 H 0.15053 0.24158 0.39549 0.0
H1670 H 0.14816 0.3208 0.39677 0.0
H1671 H 0.12167 0.38219 0.34849 0.0
H1672 H 0.09751 0.59941 0.35995 0.0
H1673 H 0.10014 0.52026 0.35868 0.0
H1674 H 0.12671 0.45925 0.40704 0.0
C1675 C 0.139 0.30316 0.38787 0.0
C1676 C 0.12263 0.39852 0.3614 0.0
C1677 C 0.14035 0.25759 0.38715 0.0
C1678 C 0.10771 0.58358 0.36833 0.0
C1679 C 0.10921 0.53805 0.36761 0.0
C1680 C 0.12577 0.44292 0.39413 0.0
C1681 C 0.12641 0.32568 0.37687 0.0
C1682 C 0.12525 0.3744 0.37734 0.0
C1683 C 0.12182 0.51573 0.37865 0.0
C1684 C 0.12312 0.46703 0.37818 0.0
H1685 H 0.10735 0.23805 0.35558 0.0
H1686 H 0.10497 0.31729 0.35687 0.0
H1687 H 0.12858 0.37991 0.40631 0.0
H1688 H 0.14048 0.60371 0.40006 0.0
H1689 H 0.14315 0.52451 0.39876 0.0
C1690 C 0.85576 0.44571 0.37085 0.0
C1691 C 0.86722 0.42726 0.3841 0.0
C1692 C 0.85397 0.49109 0.36931 0.0
C1693 C 0.87724 0.59492 0.38148 0.0
H1694 H 0.82962 0.64629 0.37182 0.0
C1695 C 0.8652 0.78157 0.38481 0.0
C1696 C 0.85382 0.80034 0.37158 0.0
C1697 C 0.86666 0.73617 0.38646 0.0
C1698 C 0.84307 0.63252 0.37432 0.0
H1699 H 0.88599 0.44257 0.40593 0.0
H1700 H 0.88259 0.52128 0.40348 0.0
H1701 H 0.83253 0.56727 0.37419 0.0
H1702 H 0.8347 0.78553 0.34998 0.0
H1703 H 0.83753 0.70668 0.35261 0.0
H1704 H 0.8878 0.6601 0.38157 0.0
C1705 C 0.87509 0.50075 0.39415 0.0
C1706 C 0.84474 0.58711 0.37568 0.0
C1707 C 0.87685 0.45546 0.39571 0.0
C1708 C 0.8438 0.77238 0.36017 0.0
C1709 C 0.84524 0.72702 0.36183 0.0
C1710 C 0.87558 0.64031 0.38011 0.0
C1711 C 0.86363 0.51925 0.38093 0.0
C1712 C 0.86184 0.56766 0.3793 0.0
C1713 C 0.85674 0.70824 0.37496 0.0
C1714 C 0.85847 0.65978 0.37653 0.0
H1715 H 0.84802 0.42508 0.36176 0.0
H1716 H 0.84516 0.50412 0.35885 0.0
H1717 H 0.89069 0.58116 0.38398 0.0
H1718 H 0.87325 0.80197 0.39374 0.0
H1719 H 0.87548 0.72296 0.39688 0.0
C1720 C 0.86454 0.25609 0.88481 0.0
C1721 C 0.85293 0.23742 0.87174 0.0
C1722 C 0.86606 0.30149 0.88647 0.0
C1723 C 0.84243 0.40541 0.87468 0.0
H1724 H 0.89023 0.45648 0.88378 0.0
C1725 C 0.85528 0.59226 0.87107 0.0
C1726 C 0.86698 0.61068 0.88412 0.0
C1727 C 0.8534 0.54687 0.86957 0.0
C1728 C 0.87673 0.44281 0.88144 0.0
H1729 H 0.83349 0.25246 0.85044 0.0
H1730 H 0.83644 0.33129 0.85308 0.0
H1731 H 0.8872 0.37757 0.88141 0.0
H1732 H 0.88611 0.59522 0.90563 0.0
H1733 H 0.88257 0.51653 0.90326 0.0
H1734 H 0.83197 0.47072 0.87468 0.0
C1735 C 0.84428 0.31086 0.86217 0.0
C1736 C 0.87498 0.39743 0.88009 0.0
C1737 C 0.84276 0.26551 0.8605 0.0
C1738 C 0.87678 0.5824 0.89557 0.0
C1739 C 0.87493 0.5371 0.89406 0.0
C1740 C 0.84417 0.45082 0.87602 0.0
C1741 C 0.856 0.32956 0.87513 0.0
C1742 C 0.85781 0.37803 0.8767 0.0
C1743 C 0.86322 0.51864 0.88103 0.0
C1744 C 0.86135 0.47019 0.87944 0.0
H1745 H 0.8727 0.23561 0.8936 0.0
H1746 H 0.87506 0.31459 0.89676 0.0
H1747 H 0.82893 0.39173 0.87233 0.0
H1748 H 0.8474 0.61293 0.8621 0.0
H1749 H 0.84439 0.53391 0.85926 0.0
C1750 C 0.11277 0.4498 0.86773 0.0
C1751 C 0.12093 0.42693 0.88211 0.0
C1752 C 0.11457 0.49518 0.8663 0.0
C1753 C 0.12537 0.59384 0.89345 0.0
H1754 H 0.13142 0.64836 0.84668 0.0
C1755 C 0.141 0.77863 0.88538 0.0
C1756 C 0.13254 0.80092 0.87102 0.0
C1757 C 0.13968 0.73314 0.88686 0.0
C1758 C 0.12952 0.63378 0.85985 0.0
H1759 H 0.13788 0.43421 0.90597 0.0
H1760 H 0.14108 0.51312 0.90344 0.0
H1761 H 0.12926 0.56923 0.84883 0.0
H1762 H 0.11555 0.79249 0.84724 0.0
H1763 H 0.11321 0.71349 0.84983 0.0
H1764 H 0.12561 0.65842 0.90446 0.0
C1765 C 0.13297 0.49608 0.89344 0.0
C1766 C 0.12829 0.58827 0.86108 0.0
C1767 C 0.13115 0.45071 0.89487 0.0
C1768 C 0.12254 0.77646 0.8583 0.0
C1769 C 0.12121 0.73103 0.85978 0.0
C1770 C 0.12661 0.63936 0.89222 0.0
C1771 C 0.12461 0.51903 0.87919 0.0
C1772 C 0.12616 0.56761 0.87789 0.0
C1773 C 0.12984 0.70865 0.87402 0.0
C1774 C 0.12865 0.66002 0.87539 0.0
H1775 H 0.10455 0.43279 0.8578 0.0
H1776 H 0.10771 0.51168 0.85529 0.0
H1777 H 0.12345 0.57926 0.90661 0.0
H1778 H 0.14903 0.79622 0.89529 0.0
H1779 H 0.14672 0.71708 0.89788 0.0
C1780 C 0.86517 0.78289 0.63555 0.0
C1781 C 0.85379 0.80154 0.64879 0.0
C1782 C 0.86664 0.7375 0.63385 0.0
C1783 C 0.84311 0.63365 0.64589 0.0
H1784 H 0.89075 0.58249 0.63627 0.0
C1785 C 0.85594 0.44688 0.64953 0.0
C1786 C 0.86743 0.4284 0.63635 0.0
C1787 C 0.8541 0.49227 0.65099 0.0
C1788 C 0.87729 0.59619 0.63876 0.0
H1789 H 0.83468 0.78649 0.67033 0.0
H1790 H 0.83753 0.70768 0.66761 0.0
H1791 H 0.88781 0.6614 0.63866 0.0
H1792 H 0.88623 0.44368 0.61456 0.0
H1793 H 0.88274 0.52239 0.61688 0.0
H1794 H 0.83261 0.56836 0.64603 0.0
C1795 C 0.84523 0.72811 0.65843 0.0
C1796 C 0.8756 0.64157 0.64011 0.0
C1797 C 0.84378 0.77345 0.66014 0.0
C1798 C 0.87706 0.45659 0.62472 0.0
C1799 C 0.87524 0.50188 0.62621 0.0
C1800 C 0.84481 0.58824 0.64454 0.0
C1801 C 0.85673 0.70944 0.6453 0.0
C1802 C 0.85849 0.66098 0.6437 0.0
C1803 C 0.86375 0.52042 0.63937 0.0
C1804 C 0.86192 0.56885 0.64094 0.0
H1805 H 0.87321 0.80337 0.62666 0.0
H1806 H 0.87546 0.7244 0.62344 0.0
H1807 H 0.82966 0.64735 0.64839 0.0
H1808 H 0.8482 0.42627 0.65862 0.0
H1809 H 0.84526 0.50531 0.66141 0.0
C1810 C 0.13657 0.26595 0.65757 0.0
C1811 C 0.13128 0.23986 0.64284 0.0
C1812 C 0.13535 0.31148 0.65669 0.0
C1813 C 0.11275 0.40152 0.63149 0.0
H1814 H 0.15132 0.47207 0.65269 0.0
C1815 C 0.11645 0.58823 0.62064 0.0
C1816 C 0.12131 0.6144 0.63548 0.0
C1817 C 0.11787 0.54275 0.62152 0.0
C1818 C 0.14032 0.45292 0.64687 0.0
H1819 H 0.12035 0.24175 0.61564 0.0
H1820 H 0.11856 0.32106 0.61398 0.0
H1821 H 0.15327 0.39278 0.65422 0.0
H1822 H 0.13182 0.6128 0.66283 0.0
H1823 H 0.13406 0.53347 0.66447 0.0
H1824 H 0.09982 0.46165 0.62412 0.0
C1825 C 0.12348 0.30625 0.62632 0.0
C1826 C 0.14143 0.40735 0.64775 0.0
C1827 C 0.1247 0.26068 0.62721 0.0
C1828 C 0.12779 0.59375 0.65119 0.0
C1829 C 0.12926 0.54821 0.65206 0.0
C1830 C 0.11165 0.44708 0.6306 0.0
C1831 C 0.12883 0.33232 0.64104 0.0
C1832 C 0.12766 0.38097 0.64008 0.0
C1833 C 0.12422 0.52206 0.63726 0.0
C1834 C 0.12542 0.47344 0.63826 0.0
H1835 H 0.14194 0.25124 0.66976 0.0
H1836 H 0.13941 0.33034 0.66837 0.0
H1837 H 0.10173 0.38241 0.62569 0.0
H1838 H 0.11119 0.60283 0.60838 0.0
H1839 H 0.11407 0.5238 0.60978 0.0
C1840 C 0.61614 0.95724 0.12211 0.0
C1841 C 0.61713 0.93233 0.13803 0.0
C1842 C 0.61762 1.00275 0.12266 0.0
C1843 C 0.63402 0.09427 0.15121 0.0
H1844 H 0.60192 0.16371 0.12095 0.0
C1845 C 0.62913 0.28198 0.15841 0.0
C1846 C 0.62779 0.30695 0.14254 0.0
C1847 C 0.62774 0.23644 0.15786 0.0
C1848 C 0.61115 0.14487 0.12934 0.0
H1849 H 0.62079 0.93613 0.16699 0.0
H1850 H 0.62315 1.01549 0.16798 0.0
H1851 H 0.59994 0.0844 0.11998 0.0
H1852 H 0.62365 0.30313 0.11363 0.0
H1853 H 0.62155 0.22379 0.11263 0.0
H1854 H 0.64526 0.15473 0.16056 0.0
C1855 C 0.62135 0.99976 0.15503 0.0
C1856 C 0.61001 0.09929 0.12879 0.0
C1857 C 0.61981 0.95422 0.15449 0.0
C1858 C 0.62491 0.28504 0.12611 0.0
C1859 C 0.62351 0.23948 0.12556 0.0
C1860 C 0.63517 0.13986 0.15176 0.0
C1861 C 0.62017 0.02469 0.13913 0.0
C1862 C 0.62143 0.07333 0.13971 0.0
C1863 C 0.62498 0.2145 0.14143 0.0
C1864 C 0.62375 0.16583 0.14084 0.0
H1865 H 0.61387 0.94163 0.10921 0.0
H1866 H 0.61686 0.02075 0.11012 0.0
H1867 H 0.64323 0.0754 0.15962 0.0
H1868 H 0.63157 0.29755 0.17129 0.0
H1869 H 0.62873 0.21844 0.17039 0.0
C1870 C 0.36636 0.75956 0.16141 0.0
C1871 C 0.35439 0.73578 0.15022 0.0
C1872 C 0.36764 0.80501 0.16001 0.0
C1873 C 0.35762 0.89797 0.12934 0.0
H1874 H 0.36204 0.96648 0.17304 0.0
C1875 C 0.35349 0.08672 0.12852 0.0
C1876 C 0.3657 0.10981 0.13971 0.0
C1877 C 0.35171 0.04135 0.12996 0.0
C1878 C 0.36101 0.94789 0.16067 0.0
H1879 H 0.33432 0.74168 0.12874 0.0
H1880 H 0.33654 0.82086 0.1263 0.0
H1881 H 0.35992 0.88732 0.17501 0.0
H1882 H 0.38567 0.10278 0.16122 0.0
H1883 H 0.38259 0.02386 0.16374 0.0
H1884 H 0.35874 0.95857 0.115 0.0
C1885 C 0.34515 0.80426 0.13603 0.0
C1886 C 0.3598 0.90237 0.1618 0.0
C1887 C 0.34388 0.75875 0.13742 0.0
C1888 C 0.37591 0.08628 0.15256 0.0
C1889 C 0.37415 0.0409 0.15399 0.0
C1890 C 0.35883 0.94351 0.12821 0.0
C1891 C 0.35697 0.82808 0.14738 0.0
C1892 C 0.35813 0.87672 0.14615 0.0
C1893 C 0.36211 1.01772 0.14263 0.0
C1894 C 0.36058 0.96914 0.14386 0.0
H1895 H 0.37492 0.74299 0.1712 0.0
H1896 H 0.37717 0.82203 0.16874 0.0
H1897 H 0.35662 0.87937 0.11697 0.0
H1898 H 0.34518 0.10376 0.11866 0.0
H1899 H 0.34206 0.02483 0.1212 0.0
C1900 C 0.62055 0.08238 0.3651 0.0
C1901 C 0.61763 0.10424 0.38153 0.0
C1902 C 0.62212 0.03685 0.36458 0.0
C1903 C 0.61051 0.9372 0.39062 0.0
H1904 H 0.64615 0.88203 0.35929 0.0
C1905 C 0.62535 0.75141 0.39328 0.0
C1906 C 0.62841 0.72965 0.37685 0.0
C1907 C 0.62396 0.79697 0.39387 0.0
C1908 C 0.63596 0.89682 0.36797 0.0
H1909 H 0.61399 0.09487 0.41029 0.0
H1910 H 0.61704 1.01577 0.40941 0.0
H1911 H 0.64409 0.96134 0.36027 0.0
H1912 H 0.63255 0.7393 0.34817 0.0
H1913 H 0.62973 0.81839 0.34915 0.0
H1914 H 0.60234 0.87271 0.3983 0.0
C1915 C 0.61796 0.03379 0.39688 0.0
C1916 C 0.63479 0.9424 0.36853 0.0
C1917 C 0.61645 0.0793 0.39742 0.0
C1918 C 0.62995 0.75475 0.36104 0.0
C1919 C 0.62859 0.80029 0.36164 0.0
C1920 C 0.61167 0.89161 0.39005 0.0
C1921 C 0.62075 1.01189 0.38045 0.0
C1922 C 0.62205 0.96325 0.37987 0.0
C1923 C 0.62564 0.82209 0.37807 0.0
C1924 C 0.6244 0.87075 0.37871 0.0
H1925 H 0.62169 0.10049 0.35262 0.0
H1926 H 0.6241 0.02115 0.35165 0.0
H1927 H 0.60032 0.95201 0.3993 0.0
H1928 H 0.62393 0.73321 0.40571 0.0
H1929 H 0.62186 0.81255 0.4068 0.0
C1930 C 0.37624 0.95433 0.39648 0.0
C1931 C 0.3669 0.92606 0.38465 0.0
C1932 C 0.37447 0.99961 0.39487 0.0
C1933 C 0.34449 0.08584 0.37564 0.0
H1934 H 0.38729 0.15912 0.38268 0.0
C1935 C 0.34368 0.27124 0.36026 0.0
C1936 C 0.35337 0.29923 0.37193 0.0
C1937 C 0.34516 0.22588 0.36191 0.0
C1938 C 0.37513 0.13925 0.3809 0.0
H1939 H 0.34825 0.92379 0.36187 0.0
H1940 H 0.3454 1.00281 0.35888 0.0
H1941 H 0.39022 0.0802 0.38513 0.0
H1942 H 0.37225 0.30088 0.39455 0.0
H1943 H 0.37453 0.22189 0.39766 0.0
H1944 H 0.32941 0.14493 0.37141 0.0
C1945 C 0.35397 0.98984 0.36955 0.0
C1946 C 0.37682 0.09387 0.38229 0.0
C1947 C 0.35576 0.94446 0.37114 0.0
C1948 C 0.36446 0.28048 0.38541 0.0
C1949 C 0.36594 0.23507 0.38705 0.0
C1950 C 0.34281 0.13125 0.37426 0.0
C1951 C 0.36332 1.01807 0.38138 0.0
C1952 C 0.36152 0.06649 0.37971 0.0
C1953 C 0.35635 0.2071 0.37529 0.0
C1954 C 0.3581 0.15863 0.37688 0.0
H1955 H 0.38514 0.94149 0.4069 0.0
H1956 H 0.38173 0.02018 0.40436 0.0
H1957 H 0.33235 0.06593 0.37384 0.0
H1958 H 0.33481 0.28436 0.34987 0.0
H1959 H 0.3377 0.20552 0.35249 0.0
C1960 C 0.34674 0.76304 0.85858 0.0
C1961 C 0.35356 0.73537 0.87218 0.0
C1962 C 0.34816 0.80843 0.86014 0.0
C1963 C 0.37404 0.89514 0.8842 0.0
H1964 H 0.33421 0.96925 0.86792 0.0
C1965 C 0.37317 0.08077 0.89812 0.0
C1966 C 0.36687 0.10861 0.88435 0.0
C1967 C 0.37137 0.03547 0.89661 0.0
C1968 C 0.34556 0.94909 0.87235 0.0
H1969 H 0.36726 0.73434 0.89814 0.0
H1970 H 0.36937 0.81339 0.90105 0.0
H1971 H 0.33131 0.89023 0.86556 0.0
H1972 H 0.35357 0.11014 0.85819 0.0
H1973 H 0.3507 0.03109 0.85542 0.0
H1974 H 0.38829 0.95398 0.891 0.0
C1975 C 0.36313 0.79992 0.88903 0.0
C1976 C 0.3439 0.90368 0.87099 0.0
C1977 C 0.36171 0.75449 0.88746 0.0
C1978 C 0.35871 0.08979 0.86901 0.0
C1979 C 0.35688 0.04441 0.86751 0.0
C1980 C 0.3757 0.94053 0.88556 0.0
C1981 C 0.35641 0.82755 0.87536 0.0
C1982 C 0.35812 0.87603 0.8769 0.0
C1983 C 0.36324 1.0166 0.88127 0.0
C1984 C 0.36148 0.96817 0.87967 0.0
H1985 H 0.34015 0.74966 0.84672 0.0
H1986 H 0.34299 0.82851 0.84925 0.0
H1987 H 0.38542 0.87505 0.88859 0.0
H1988 H 0.37975 0.09392 0.91003 0.0
H1989 H 0.37624 1.01523 0.90758 0.0
C1990 C 0.62569 0.28299 0.89422 0.0
C1991 C 0.62847 0.30475 0.87775 0.0
C1992 C 0.62449 0.23742 0.89486 0.0
C1993 C 0.63672 0.13806 0.86895 0.0
H1994 H 0.60118 0.08201 0.90018 0.0
C1995 C 0.62156 0.95263 0.86573 0.0
C1996 C 0.61876 0.93055 0.88213 0.0
C1997 C 0.62308 0.99815 0.8653 0.0
C1998 C 0.61134 0.09709 0.89154 0.0
H1999 H 0.63233 0.29522 0.84902 0.0
H2000 H 0.62987 0.21607 0.85008 0.0
H2001 H 0.60299 0.16137 0.89927 0.0
H2002 H 0.61527 0.93939 0.91093 0.0
H2003 H 0.61824 0.01852 0.91021 0.0
H2004 H 0.64503 0.07377 0.86119 0.0
C2005 C 0.62879 0.23418 0.86256 0.0
C2006 C 0.61237 0.14267 0.89101 0.0
C2007 C 0.62995 0.2797 0.86193 0.0
C2008 C 0.61764 0.95519 0.89808 0.0
C2009 C 0.61911 1.00068 0.89764 0.0
C2010 C 0.63567 0.09249 0.86946 0.0
C2011 C 0.6261 0.21239 0.87904 0.0
C2012 C 0.62506 0.16379 0.8797 0.0
C2013 C 0.62176 0.02281 0.88124 0.0
C2014 C 0.62296 0.07138 0.88075 0.0
H2015 H 0.62434 0.3012 0.90665 0.0
H2016 H 0.62259 0.22178 0.90781 0.0
H2017 H 0.64687 0.15313 0.8603 0.0
H2018 H 0.62263 0.9347 0.8532 0.0
H2019 H 0.62495 1.01408 0.8524 0.0
C2020 C 0.37371 0.94544 0.65288 0.0
C2021 C 0.36419 0.92237 0.6394 0.0
C2022 C 0.37201 0.9908 0.65435 0.0
C2023 C 0.35876 0.08873 0.62794 0.0
H2024 H 0.35721 0.14436 0.67482 0.0
C2025 C 0.34444 0.27376 0.63664 0.0
C2026 C 0.35437 0.29616 0.65003 0.0
C2027 C 0.34547 0.22824 0.63524 0.0
C2028 C 0.35784 0.12944 0.66161 0.0
H2029 H 0.34491 0.92912 0.61728 0.0
H2030 H 0.34189 1.00805 0.61989 0.0
H2031 H 0.35896 0.06515 0.67284 0.0
H2032 H 0.37362 0.28799 0.6721 0.0
H2033 H 0.37545 0.2089 0.66963 0.0
H2034 H 0.35768 0.15305 0.61671 0.0
C2035 C 0.35097 0.99118 0.62911 0.0
C2036 C 0.35883 0.08392 0.66048 0.0
C2037 C 0.35269 0.94584 0.62763 0.0
C2038 C 0.36553 0.27184 0.66182 0.0
C2039 C 0.36656 0.22639 0.66042 0.0
C2040 C 0.35777 0.13427 0.62908 0.0
C2041 C 0.36072 1.01436 0.6424 0.0
C2042 C 0.35935 0.06291 0.64363 0.0
C2043 C 0.35647 0.20389 0.64718 0.0
C2044 C 0.35735 0.15529 0.64593 0.0
H2045 H 0.38291 0.92861 0.662 0.0
H2046 H 0.37993 1.00752 0.6646 0.0
H2047 H 0.35943 0.07382 0.61473 0.0
H2048 H 0.33552 0.29129 0.62748 0.0
H2049 H 0.33732 0.21206 0.62502 0.0
C2050 C 0.63031 0.75763 0.65775 0.0
C2051 C 0.6287 0.73258 0.64194 0.0
C2052 C 0.62907 0.80314 0.65714 0.0
C2053 C 0.61222 0.8945 0.6288 0.0
H2054 H 0.64508 0.96379 0.65835 0.0
C2055 C 0.61742 0.08189 0.62137 0.0
C2056 C 0.61872 0.10676 0.63726 0.0
C2057 C 0.61884 0.0364 0.62191 0.0
C2058 C 0.63566 0.94496 0.65016 0.0
H2059 H 0.62426 0.73612 0.61307 0.0
H2060 H 0.62237 0.81552 0.61194 0.0
H2061 H 0.64701 0.88445 0.65929 0.0
H2062 H 0.62285 0.103 0.66616 0.0
H2063 H 0.6251 0.02362 0.66714 0.0
H2064 H 0.60089 0.95503 0.61966 0.0
C2065 C 0.62444 0.79989 0.62488 0.0
C2066 C 0.63676 0.89939 0.6507 0.0
C2067 C 0.62571 0.75433 0.62549 0.0
C2068 C 0.62163 0.0849 0.65369 0.0
C2069 C 0.62311 0.03937 0.65422 0.0
C2070 C 0.61114 0.94006 0.62825 0.0
C2071 C 0.62617 0.82493 0.64069 0.0
C2072 C 0.62504 0.87353 0.64004 0.0
C2073 C 0.62163 1.01449 0.63835 0.0
C2074 C 0.62284 0.96592 0.63892 0.0
H2075 H 0.63286 0.74212 0.67063 0.0
H2076 H 0.63026 0.82124 0.66961 0.0
H2077 H 0.60278 0.87569 0.62063 0.0
H2078 H 0.61495 0.09751 0.6085 0.0
H2079 H 0.61785 0.0184 0.60939 0.0
loop_
_geom_bond_atom_site_label_1
_geom_bond_atom_site_label_2
_geom_bond_distance
_geom_bond_site_symmetry_2
_ccdc_geom_bond_type
Sm0 C2 2.846 1_545 S
Sm0 O20 2.543 1_545 S
Sm0 O21 2.450 1_545 S
Sm0 O22 2.681 . S
Sm0 O23 2.464 . S
Sm0 O24 2.396 . S
Sm0 O28 2.386 . S
Sm0 O31 2.408 . S
Sm1 C11 2.846 . S
Sm1 O22 2.386 . S
Sm1 O25 2.408 . S
Sm1 O26 2.543 . S
Sm1 O27 2.450 . S
Sm1 O28 2.681 . S
Sm1 O29 2.464 . S
Sm1 O30 2.396 . S
C2 Sm0 2.846 1_565 S
C2 C3 1.506 . S
C2 O20 1.261 . S
C2 O21 1.242 . S
C3 C2 1.506 . S
C3 C4 1.358 . S
C3 C8 1.382 . S
C4 C3 1.358 . S
C4 C5 1.385 . S
C4 H32 0.930 . S
C5 C4 1.385 . S
C5 C6 1.395 . S
C5 H33 0.929 . S
C6 C5 1.395 . S
C6 C7 1.335 . S
C7 C6 1.335 . S
C7 C8 1.398 . S
C7 H34 0.930 . S
C8 C3 1.382 . S
C8 C7 1.398 . S
C8 H35 0.929 . S
C9 O22 1.271 . S
C9 O23 1.251 . S
C10 O24 1.252 . S
C10 O25 1.272 . S
C11 Sm1 2.846 . S
C11 C12 1.506 . S
C11 O26 1.261 . S
C11 O27 1.242 . S
C12 C11 1.506 . S
C12 C13 1.358 . S
C12 C17 1.382 . S
C13 C12 1.358 . S
C13 C14 1.385 . S
C13 H36 0.930 . S
C14 C13 1.385 . S
C14 C15 1.395 . S
C14 H37 0.929 . S
C15 C14 1.395 . S
C15 C16 1.335 . S
C16 C15 1.335 . S
C16 C17 1.398 . S
C16 H38 0.930 . S
C17 C12 1.382 . S
C17 C16 1.398 . S
C17 H39 0.929 . S
C18 O28 1.271 . S
C18 O29 1.251 . S
C19 O30 1.252 . S
C19 O31 1.272 . S
O20 Sm0 2.543 1_565 S
O20 C2 1.261 . S
O21 Sm0 2.450 1_565 S
O21 C2 1.242 . S
O22 Sm0 2.681 . S
O22 Sm1 2.386 . S
O22 C9 1.271 . S
O23 Sm0 2.464 . S
O23 C9 1.251 . S
O24 Sm0 2.396 . S
O24 C10 1.252 . S
O25 Sm1 2.408 . S
O25 C10 1.272 . S
O26 Sm1 2.543 . S
O26 C11 1.261 . S
O27 Sm1 2.450 . S
O27 C11 1.242 . S
O28 Sm0 2.386 . S
O28 Sm1 2.681 . S
O28 C18 1.271 . S
O29 Sm1 2.464 . S
O29 C18 1.251 . S
O30 Sm1 2.396 . S
O30 C19 1.252 . S
O31 Sm0 2.408 . S
O31 C19 1.272 . S
H32 C4 0.930 . S
H33 C5 0.929 . S
H34 C7 0.930 . S
H35 C8 0.929 . S
H36 C13 0.930 . S
H37 C14 0.929 . S
H38 C16 0.930 . S
H39 C17 0.929 . S
Sm40 C42 2.846 1_565 S
Sm40 O60 2.543 1_565 S
Sm40 O61 2.450 1_565 S
Sm40 O62 2.681 . S
Sm40 O63 2.464 . S
Sm40 O64 2.396 . S
Sm40 O68 2.386 . S
Sm40 O71 2.408 . S
Sm41 C51 2.846 . S
Sm41 O62 2.386 . S
Sm41 O65 2.408 . S
Sm41 O66 2.543 . S
Sm41 O67 2.450 . S
Sm41 O68 2.681 . S
Sm41 O69 2.464 . S
Sm41 O70 2.396 . S
C42 Sm40 2.846 1_545 S
C42 C43 1.506 . S
C42 O60 1.261 . S
C42 O61 1.242 . S
C43 C42 1.506 . S
C43 C44 1.358 . S
C43 C48 1.382 . S
C44 C43 1.358 . S
C44 C45 1.385 . S
C44 H72 0.930 . S
C45 C44 1.385 . S
C45 C46 1.395 . S
C45 H73 0.929 . S
C46 C45 1.395 . S
C46 C47 1.335 . S
C47 C46 1.335 . S
C47 C48 1.398 . S
C47 H74 0.930 . S
C48 C43 1.382 . S
C48 C47 1.398 . S
C48 H75 0.929 . S
C49 O62 1.271 . S
C49 O63 1.251 . S
C50 O64 1.252 . S
C50 O65 1.272 . S
C51 Sm41 2.846 . S
C51 C52 1.506 . S
C51 O66 1.261 . S
C51 O67 1.242 . S
C52 C51 1.506 . S
C52 C53 1.358 . S
C52 C57 1.382 . S
C53 C52 1.358 . S
C53 C54 1.385 . S
C53 H76 0.930 . S
C54 C53 1.385 . S
C54 C55 1.395 . S
C54 H77 0.929 . S
C55 C54 1.395 . S
C55 C56 1.335 . S
C56 C55 1.335 . S
C56 C57 1.398 . S
C56 H78 0.930 . S
C57 C52 1.382 . S
C57 C56 1.398 . S
C57 H79 0.929 . S
C58 O68 1.271 . S
C58 O69 1.251 . S
C59 O70 1.252 . S
C59 O71 1.272 . S
O60 Sm40 2.543 1_545 S
O60 C42 1.261 . S
O61 Sm40 2.450 1_545 S
O61 C42 1.242 . S
O62 Sm40 2.681 . S
O62 Sm41 2.386 . S
O62 C49 1.271 . S
O63 Sm40 2.464 . S
O63 C49 1.251 . S
O64 Sm40 2.396 . S
O64 C50 1.252 . S
O65 Sm41 2.408 . S
O65 C50 1.272 . S
O66 Sm41 2.543 . S
O66 C51 1.261 . S
O67 Sm41 2.450 . S
O67 C51 1.242 . S
O68 Sm40 2.386 . S
O68 Sm41 2.681 . S
O68 C58 1.271 . S
O69 Sm41 2.464 . S
O69 C58 1.251 . S
O70 Sm41 2.396 . S
O70 C59 1.252 . S
O71 Sm40 2.408 . S
O71 C59 1.272 . S
H72 C44 0.930 . S
H73 C45 0.929 . S
H74 C47 0.930 . S
H75 C48 0.929 . S
H76 C53 0.930 . S
H77 C54 0.929 . S
H78 C56 0.930 . S
H79 C57 0.929 . S
Sm80 C82 2.846 1_565 S
Sm80 O100 2.543 1_565 S
Sm80 O101 2.450 1_565 S
Sm80 O102 2.681 . S
Sm80 O103 2.464 . S
Sm80 O104 2.396 . S
Sm80 O108 2.386 . S
Sm80 O111 2.408 . S
Sm81 C91 2.846 . S
Sm81 O102 2.386 . S
Sm81 O105 2.408 . S
Sm81 O106 2.543 . S
Sm81 O107 2.450 . S
Sm81 O108 2.681 . S
Sm81 O109 2.464 . S
Sm81 O110 2.396 . S
C82 Sm80 2.846 1_545 S
C82 C83 1.506 . S
C82 O100 1.261 . S
C82 O101 1.242 . S
C83 C82 1.506 . S
C83 C84 1.358 . S
C83 C88 1.382 . S
C84 C83 1.358 . S
C84 C85 1.385 . S
C84 H112 0.930 . S
C85 C84 1.385 . S
C85 C86 1.395 . S
C85 H113 0.929 . S
C86 C85 1.395 . S
C86 C87 1.335 . S
C87 C86 1.335 . S
C87 C88 1.398 . S
C87 H114 0.930 . S
C88 C83 1.382 . S
C88 C87 1.398 . S
C88 H115 0.929 . S
C89 O102 1.271 . S
C89 O103 1.251 . S
C90 O104 1.252 . S
C90 O105 1.272 . S
C91 Sm81 2.846 . S
C91 C92 1.506 . S
C91 O106 1.261 . S
C91 O107 1.242 . S
C92 C91 1.506 . S
C92 C93 1.358 . S
C92 C97 1.382 . S
C93 C92 1.358 . S
C93 C94 1.385 . S
C93 H116 0.930 . S
C94 C93 1.385 . S
C94 C95 1.395 . S
C94 H117 0.929 . S
C95 C94 1.395 . S
C95 C96 1.335 . S
C96 C95 1.335 . S
C96 C97 1.398 . S
C96 H118 0.930 . S
C97 C92 1.382 . S
C97 C96 1.398 . S
C97 H119 0.929 . S
C98 O108 1.271 . S
C98 O109 1.251 . S
C99 O110 1.252 . S
C99 O111 1.272 . S
O100 Sm80 2.543 1_545 S
O100 C82 1.261 . S
O101 Sm80 2.450 1_545 S
O101 C82 1.242 . S
O102 Sm80 2.681 . S
O102 Sm81 2.386 . S
O102 C89 1.271 . S
O103 Sm80 2.464 . S
O103 C89 1.251 . S
O104 Sm80 2.396 . S
O104 C90 1.252 . S
O105 Sm81 2.408 . S
O105 C90 1.272 . S
O106 Sm81 2.543 . S
O106 C91 1.261 . S
O107 Sm81 2.450 . S
O107 C91 1.242 . S
O108 Sm80 2.386 . S
O108 Sm81 2.681 . S
O108 C98 1.271 . S
O109 Sm81 2.464 . S
O109 C98 1.251 . S
O110 Sm81 2.396 . S
O110 C99 1.252 . S
O111 Sm80 2.408 . S
O111 C99 1.272 . S
H112 C84 0.930 . S
H113 C85 0.929 . S
H114 C87 0.930 . S
H115 C88 0.929 . S
H116 C93 0.930 . S
H117 C94 0.929 . S
H118 C96 0.930 . S
H119 C97 0.929 . S
Sm120 C122 2.846 1_545 S
Sm120 O140 2.543 1_545 S
Sm120 O141 2.450 1_545 S
Sm120 O142 2.681 . S
Sm120 O143 2.464 . S
Sm120 O144 2.396 . S
Sm120 O148 2.386 . S
Sm120 O151 2.408 . S
Sm121 C131 2.846 . S
Sm121 O142 2.386 . S
Sm121 O145 2.408 . S
Sm121 O146 2.543 . S
Sm121 O147 2.450 . S
Sm121 O148 2.681 . S
Sm121 O149 2.464 . S
Sm121 O150 2.396 . S
C122 Sm120 2.846 1_565 S
C122 C123 1.506 . S
C122 O140 1.261 . S
C122 O141 1.242 . S
C123 C122 1.506 . S
C123 C124 1.358 . S
C123 C128 1.382 . S
C124 C123 1.358 . S
C124 C125 1.385 . S
C124 H152 0.930 . S
C125 C124 1.385 . S
C125 C126 1.395 . S
C125 H153 0.929 . S
C126 C125 1.395 . S
C126 C127 1.335 . S
C127 C126 1.335 . S
C127 C128 1.398 . S
C127 H154 0.930 . S
C128 C123 1.382 . S
C128 C127 1.398 . S
C128 H155 0.929 . S
C129 O142 1.271 . S
C129 O143 1.251 . S
C130 O144 1.252 . S
C130 O145 1.272 . S
C131 Sm121 2.846 . S
C131 C132 1.506 . S
C131 O146 1.261 . S
C131 O147 1.242 . S
C132 C131 1.506 . S
C132 C133 1.358 . S
C132 C137 1.382 . S
C133 C132 1.358 . S
C133 C134 1.385 . S
C133 H156 0.930 . S
C134 C133 1.385 . S
C134 C135 1.395 . S
C134 H157 0.929 . S
C135 C134 1.395 . S
C135 C136 1.335 . S
C136 C135 1.335 . S
C136 C137 1.398 . S
C136 H158 0.930 . S
C137 C132 1.382 . S
C137 C136 1.398 . S
C137 H159 0.929 . S
C138 O148 1.271 . S
C138 O149 1.251 . S
C139 O150 1.252 . S
C139 O151 1.272 . S
O140 Sm120 2.543 1_565 S
O140 C122 1.261 . S
O141 Sm120 2.450 1_565 S
O141 C122 1.242 . S
O142 Sm120 2.681 . S
O142 Sm121 2.386 . S
O142 C129 1.271 . S
O143 Sm120 2.464 . S
O143 C129 1.251 . S
O144 Sm120 2.396 . S
O144 C130 1.252 . S
O145 Sm121 2.408 . S
O145 C130 1.272 . S
O146 Sm121 2.543 . S
O146 C131 1.261 . S
O147 Sm121 2.450 . S
O147 C131 1.242 . S
O148 Sm120 2.386 . S
O148 Sm121 2.681 . S
O148 C138 1.271 . S
O149 Sm121 2.464 . S
O149 C138 1.251 . S
O150 Sm121 2.396 . S
O150 C139 1.252 . S
O151 Sm120 2.408 . S
O151 C139 1.272 . S
H152 C124 0.930 . S
H153 C125 0.929 . S
H154 C127 0.930 . S
H155 C128 0.929 . S
H156 C133 0.930 . S
H157 C134 0.929 . S
H158 C136 0.930 . S
H159 C137 0.929 . S
Sm160 C162 2.846 . S
Sm160 O180 2.543 . S
Sm160 O181 2.450 . S
Sm160 O182 2.681 . S
Sm160 O183 2.464 . S
Sm160 O184 2.396 . S
Sm160 O188 2.386 . S
Sm160 O191 2.408 . S
Sm161 C171 2.846 1_565 S
Sm161 O182 2.386 . S
Sm161 O185 2.408 . S
Sm161 O186 2.543 1_565 S
Sm161 O187 2.450 1_565 S
Sm161 O188 2.681 . S
Sm161 O189 2.464 . S
Sm161 O190 2.396 . S
C162 Sm160 2.846 . S
C162 C163 1.506 . S
C162 O180 1.261 . S
C162 O181 1.242 . S
C163 C162 1.506 . S
C163 C164 1.358 . S
C163 C168 1.382 . S
C164 C163 1.358 . S
C164 C165 1.385 . S
C164 H192 0.930 . S
C165 C164 1.385 . S
C165 C166 1.395 . S
C165 H193 0.929 . S
C166 C165 1.395 . S
C166 C167 1.335 . S
C167 C166 1.335 . S
C167 C168 1.398 . S
C167 H194 0.930 . S
C168 C163 1.382 . S
C168 C167 1.398 . S
C168 H195 0.929 . S
C169 O182 1.271 . S
C169 O183 1.251 . S
C170 O184 1.252 . S
C170 O185 1.272 . S
C171 Sm161 2.846 1_545 S
C171 C172 1.506 . S
C171 O186 1.261 . S
C171 O187 1.242 . S
C172 C171 1.506 . S
C172 C173 1.358 . S
C172 C177 1.382 . S
C173 C172 1.358 . S
C173 C174 1.385 . S
C173 H196 0.930 . S
C174 C173 1.385 . S
C174 C175 1.395 . S
C174 H197 0.929 . S
C175 C174 1.395 . S
C175 C176 1.335 . S
C176 C175 1.335 . S
C176 C177 1.398 . S
C176 H198 0.930 . S
C177 C172 1.382 . S
C177 C176 1.398 . S
C177 H199 0.929 . S
C178 O188 1.271 . S
C178 O189 1.251 . S
C179 O190 1.252 . S
C179 O191 1.272 . S
O180 Sm160 2.543 . S
O180 C162 1.261 . S
O181 Sm160 2.450 . S
O181 C162 1.242 . S
O182 Sm160 2.681 . S
O182 Sm161 2.386 . S
O182 C169 1.271 . S
O183 Sm160 2.464 . S
O183 C169 1.251 . S
O184 Sm160 2.396 . S
O184 C170 1.252 . S
O185 Sm161 2.408 . S
O185 C170 1.272 . S
O186 Sm161 2.543 1_545 S
O186 C171 1.261 . S
O187 Sm161 2.450 1_545 S
O187 C171 1.242 . S
O188 Sm160 2.386 . S
O188 Sm161 2.681 . S
O188 C178 1.271 . S
O189 Sm161 2.464 . S
O189 C178 1.251 . S
O190 Sm161 2.396 . S
O190 C179 1.252 . S
O191 Sm160 2.408 . S
O191 C179 1.272 . S
H192 C164 0.930 . S
H193 C165 0.929 . S
H194 C167 0.930 . S
H195 C168 0.929 . S
H196 C173 0.930 . S
H197 C174 0.929 . S
H198 C176 0.930 . S
H199 C177 0.929 . S
Sm200 C202 2.846 . S
Sm200 O220 2.543 . S
Sm200 O221 2.450 . S
Sm200 O222 2.681 . S
Sm200 O223 2.464 . S
Sm200 O224 2.396 . S
Sm200 O228 2.386 . S
Sm200 O231 2.408 . S
Sm201 C211 2.846 1_545 S
Sm201 O222 2.386 . S
Sm201 O225 2.408 . S
Sm201 O226 2.543 1_545 S
Sm201 O227 2.450 1_545 S
Sm201 O228 2.681 . S
Sm201 O229 2.464 . S
Sm201 O230 2.396 . S
C202 Sm200 2.846 . S
C202 C203 1.506 . S
C202 O220 1.261 . S
C202 O221 1.242 . S
C203 C202 1.506 . S
C203 C204 1.358 . S
C203 C208 1.382 . S
C204 C203 1.358 . S
C204 C205 1.385 . S
C204 H232 0.930 . S
C205 C204 1.385 . S
C205 C206 1.395 . S
C205 H233 0.929 . S
C206 C205 1.395 . S
C206 C207 1.335 . S
C207 C206 1.335 . S
C207 C208 1.398 . S
C207 H234 0.930 . S
C208 C203 1.382 . S
C208 C207 1.398 . S
C208 H235 0.929 . S
C209 O222 1.271 . S
C209 O223 1.251 . S
C210 O224 1.252 . S
C210 O225 1.272 . S
C211 Sm201 2.846 1_565 S
C211 C212 1.506 . S
C211 O226 1.261 . S
C211 O227 1.242 . S
C212 C211 1.506 . S
C212 C213 1.358 . S
C212 C217 1.382 . S
C213 C212 1.358 . S
C213 C214 1.385 . S
C213 H236 0.930 . S
C214 C213 1.385 . S
C214 C215 1.395 . S
C214 H237 0.929 . S
C215 C214 1.395 . S
C215 C216 1.335 . S
C216 C215 1.335 . S
C216 C217 1.398 . S
C216 H238 0.930 . S
C217 C212 1.382 . S
C217 C216 1.398 . S
C217 H239 0.929 . S
C218 O228 1.271 . S
C218 O229 1.251 . S
C219 O230 1.252 . S
C219 O231 1.272 . S
O220 Sm200 2.543 . S
O220 C202 1.261 . S
O221 Sm200 2.450 . S
O221 C202 1.242 . S
O222 Sm200 2.681 . S
O222 Sm201 2.386 . S
O222 C209 1.271 . S
O223 Sm200 2.464 . S
O223 C209 1.251 . S
O224 Sm200 2.396 . S
O224 C210 1.252 . S
O225 Sm201 2.408 . S
O225 C210 1.272 . S
O226 Sm201 2.543 1_565 S
O226 C211 1.261 . S
O227 Sm201 2.450 1_565 S
O227 C211 1.242 . S
O228 Sm200 2.386 . S
O228 Sm201 2.681 . S
O228 C218 1.271 . S
O229 Sm201 2.464 . S
O229 C218 1.251 . S
O230 Sm201 2.396 . S
O230 C219 1.252 . S
O231 Sm200 2.408 . S
O231 C219 1.272 . S
H232 C204 0.930 . S
H233 C205 0.929 . S
H234 C207 0.930 . S
H235 C208 0.929 . S
H236 C213 0.930 . S
H237 C214 0.929 . S
H238 C216 0.930 . S
H239 C217 0.929 . S
Sm240 C242 2.846 . S
Sm240 O260 2.543 . S
Sm240 O261 2.450 . S
Sm240 O262 2.681 . S
Sm240 O263 2.464 . S
Sm240 O264 2.396 . S
Sm240 O268 2.386 . S
Sm240 O271 2.408 . S
Sm241 C251 2.846 1_545 S
Sm241 O262 2.386 . S
Sm241 O265 2.408 . S
Sm241 O266 2.543 1_545 S
Sm241 O267 2.450 1_545 S
Sm241 O268 2.681 . S
Sm241 O269 2.464 . S
Sm241 O270 2.396 . S
C242 Sm240 2.846 . S
C242 C243 1.506 . S
C242 O260 1.261 . S
C242 O261 1.242 . S
C243 C242 1.506 . S
C243 C244 1.358 . S
C243 C248 1.382 . S
C244 C243 1.358 . S
C244 C245 1.385 . S
C244 H272 0.930 . S
C245 C244 1.385 . S
C245 C246 1.395 . S
C245 H273 0.929 . S
C246 C245 1.395 . S
C246 C247 1.335 . S
C247 C246 1.335 . S
C247 C248 1.398 . S
C247 H274 0.930 . S
C248 C243 1.382 . S
C248 C247 1.398 . S
C248 H275 0.929 . S
C249 O262 1.271 . S
C249 O263 1.251 . S
C250 O264 1.252 . S
C250 O265 1.272 . S
C251 Sm241 2.846 1_565 S
C251 C252 1.506 . S
C251 O266 1.261 . S
C251 O267 1.242 . S
C252 C251 1.506 . S
C252 C253 1.358 . S
C252 C257 1.382 . S
C253 C252 1.358 . S
C253 C254 1.385 . S
C253 H276 0.930 . S
C254 C253 1.385 . S
C254 C255 1.395 . S
C254 H277 0.929 . S
C255 C254 1.395 . S
C255 C256 1.335 . S
C256 C255 1.335 . S
C256 C257 1.398 . S
C256 H278 0.930 . S
C257 C252 1.382 . S
C257 C256 1.398 . S
C257 H279 0.929 . S
C258 O268 1.271 . S
C258 O269 1.251 . S
C259 O270 1.252 . S
C259 O271 1.272 . S
O260 Sm240 2.543 . S
O260 C242 1.261 . S
O261 Sm240 2.450 . S
O261 C242 1.242 . S
O262 Sm240 2.681 . S
O262 Sm241 2.386 . S
O262 C249 1.271 . S
O263 Sm240 2.464 . S
O263 C249 1.251 . S
O264 Sm240 2.396 . S
O264 C250 1.252 . S
O265 Sm241 2.408 . S
O265 C250 1.272 . S
O266 Sm241 2.543 1_565 S
O266 C251 1.261 . S
O267 Sm241 2.450 1_565 S
O267 C251 1.242 . S
O268 Sm240 2.386 . S
O268 Sm241 2.681 . S
O268 C258 1.271 . S
O269 Sm241 2.464 . S
O269 C258 1.251 . S
O270 Sm241 2.396 . S
O270 C259 1.252 . S
O271 Sm240 2.408 . S
O271 C259 1.272 . S
H272 C244 0.930 . S
H273 C245 0.929 . S
H274 C247 0.930 . S
H275 C248 0.929 . S
H276 C253 0.930 . S
H277 C254 0.929 . S
H278 C256 0.930 . S
H279 C257 0.929 . S
Sm280 C282 2.846 . S
Sm280 O300 2.543 . S
Sm280 O301 2.450 . S
Sm280 O302 2.681 . S
Sm280 O303 2.464 . S
Sm280 O304 2.396 . S
Sm280 O308 2.386 . S
Sm280 O311 2.408 . S
Sm281 C291 2.846 1_565 S
Sm281 O302 2.386 . S
Sm281 O305 2.408 . S
Sm281 O306 2.543 1_565 S
Sm281 O307 2.450 1_565 S
Sm281 O308 2.681 . S
Sm281 O309 2.464 . S
Sm281 O310 2.396 . S
C282 Sm280 2.846 . S
C282 C283 1.506 . S
C282 O300 1.261 . S
C282 O301 1.242 . S
C283 C282 1.506 . S
C283 C284 1.358 . S
C283 C288 1.382 . S
C284 C283 1.358 . S
C284 C285 1.385 . S
C284 H312 0.930 . S
C285 C284 1.385 . S
C285 C286 1.395 . S
C285 H313 0.929 . S
C286 C285 1.395 . S
C286 C287 1.335 . S
C287 C286 1.335 . S
C287 C288 1.398 . S
C287 H314 0.930 . S
C288 C283 1.382 . S
C288 C287 1.398 . S
C288 H315 0.929 . S
C289 O302 1.271 . S
C289 O303 1.251 . S
C290 O304 1.252 . S
C290 O305 1.272 . S
C291 Sm281 2.846 1_545 S
C291 C292 1.506 . S
C291 O306 1.261 . S
C291 O307 1.242 . S
C292 C291 1.506 . S
C292 C293 1.358 . S
C292 C297 1.382 . S
C293 C292 1.358 . S
C293 C294 1.385 . S
C293 H316 0.930 . S
C294 C293 1.385 . S
C294 C295 1.395 . S
C294 H317 0.929 . S
C295 C294 1.395 . S
C295 C296 1.335 . S
C296 C295 1.335 . S
C296 C297 1.398 . S
C296 H318 0.930 . S
C297 C292 1.382 . S
C297 C296 1.398 . S
C297 H319 0.929 . S
C298 O308 1.271 . S
C298 O309 1.251 . S
C299 O310 1.252 . S
C299 O311 1.272 . S
O300 Sm280 2.543 . S
O300 C282 1.261 . S
O301 Sm280 2.450 . S
O301 C282 1.242 . S
O302 Sm280 2.681 . S
O302 Sm281 2.386 . S
O302 C289 1.271 . S
O303 Sm280 2.464 . S
O303 C289 1.251 . S
O304 Sm280 2.396 . S
O304 C290 1.252 . S
O305 Sm281 2.408 . S
O305 C290 1.272 . S
O306 Sm281 2.543 1_545 S
O306 C291 1.261 . S
O307 Sm281 2.450 1_545 S
O307 C291 1.242 . S
O308 Sm280 2.386 . S
O308 Sm281 2.681 . S
O308 C298 1.271 . S
O309 Sm281 2.464 . S
O309 C298 1.251 . S
O310 Sm281 2.396 . S
O310 C299 1.252 . S
O311 Sm280 2.408 . S
O311 C299 1.272 . S
H312 C284 0.930 . S
H313 C285 0.929 . S
H314 C287 0.930 . S
H315 C288 0.929 . S
H316 C293 0.930 . S
H317 C294 0.929 . S
H318 C296 0.930 . S
H319 C297 0.929 . S
Sm320 C322 2.846 . S
Sm320 O340 2.543 . S
Sm320 O341 2.450 . S
Sm320 O342 2.681 . S
Sm320 O343 2.464 . S
Sm320 O344 2.396 . S
Sm320 O348 2.386 . S
Sm320 O351 2.408 . S
Sm321 C331 2.846 . S
Sm321 O342 2.386 . S
Sm321 O345 2.408 . S
Sm321 O346 2.543 . S
Sm321 O347 2.450 . S
Sm321 O348 2.681 . S
Sm321 O349 2.464 . S
Sm321 O350 2.396 . S
C322 Sm320 2.846 . S
C322 C323 1.506 . S
C322 O340 1.261 . S
C322 O341 1.242 . S
C323 C322 1.506 . S
C323 C324 1.358 . S
C323 C328 1.382 . S
C324 C323 1.358 . S
C324 C325 1.385 . S
C324 H352 0.930 . S
C325 C324 1.385 . S
C325 C326 1.395 . S
C325 H353 0.929 . S
C326 C325 1.395 . S
C326 C327 1.335 . S
C327 C326 1.335 . S
C327 C328 1.398 . S
C327 H354 0.930 . S
C328 C323 1.382 . S
C328 C327 1.398 . S
C328 H355 0.929 . S
C329 O342 1.271 . S
C329 O343 1.251 . S
C330 O344 1.252 . S
C330 O345 1.272 . S
C331 Sm321 2.846 . S
C331 C332 1.506 . S
C331 O346 1.261 . S
C331 O347 1.242 . S
C332 C331 1.506 . S
C332 C333 1.358 . S
C332 C337 1.382 . S
C333 C332 1.358 . S
C333 C334 1.385 . S
C333 H356 0.930 . S
C334 C333 1.385 . S
C334 C335 1.395 . S
C334 H357 0.929 . S
C335 C334 1.395 . S
C335 C336 1.335 . S
C336 C335 1.335 . S
C336 C337 1.398 . S
C336 H358 0.930 . S
C337 C332 1.382 . S
C337 C336 1.398 . S
C337 H359 0.929 . S
C338 O348 1.271 . S
C338 O349 1.251 . S
C339 O350 1.252 . S
C339 O351 1.272 . S
O340 Sm320 2.543 . S
O340 C322 1.261 . S
O341 Sm320 2.450 . S
O341 C322 1.242 . S
O342 Sm320 2.681 . S
O342 Sm321 2.386 . S
O342 C329 1.271 . S
O343 Sm320 2.464 . S
O343 C329 1.251 . S
O344 Sm320 2.396 . S
O344 C330 1.252 . S
O345 Sm321 2.408 . S
O345 C330 1.272 . S
O346 Sm321 2.543 . S
O346 C331 1.261 . S
O347 Sm321 2.450 . S
O347 C331 1.242 . S
O348 Sm320 2.386 . S
O348 Sm321 2.681 . S
O348 C338 1.271 . S
O349 Sm321 2.464 . S
O349 C338 1.251 . S
O350 Sm321 2.396 . S
O350 C339 1.252 . S
O351 Sm320 2.408 . S
O351 C339 1.272 . S
H352 C324 0.930 . S
H353 C325 0.929 . S
H354 C327 0.930 . S
H355 C328 0.929 . S
H356 C333 0.930 . S
H357 C334 0.929 . S
H358 C336 0.930 . S
H359 C337 0.929 . S
Sm360 C362 2.846 . S
Sm360 O380 2.543 . S
Sm360 O381 2.450 . S
Sm360 O382 2.681 . S
Sm360 O383 2.464 . S
Sm360 O384 2.396 . S
Sm360 O388 2.386 . S
Sm360 O391 2.408 . S
Sm361 C371 2.846 . S
Sm361 O382 2.386 . S
Sm361 O385 2.408 . S
Sm361 O386 2.543 . S
Sm361 O387 2.450 . S
Sm361 O388 2.681 . S
Sm361 O389 2.464 . S
Sm361 O390 2.396 . S
C362 Sm360 2.846 . S
C362 C363 1.506 . S
C362 O380 1.261 . S
C362 O381 1.242 . S
C363 C362 1.506 . S
C363 C364 1.358 . S
C363 C368 1.382 . S
C364 C363 1.358 . S
C364 C365 1.385 . S
C364 H392 0.930 . S
C365 C364 1.385 . S
C365 C366 1.395 . S
C365 H393 0.929 . S
C366 C365 1.395 . S
C366 C367 1.335 . S
C367 C366 1.335 . S
C367 C368 1.398 . S
C367 H394 0.930 . S
C368 C363 1.382 . S
C368 C367 1.398 . S
C368 H395 0.929 . S
C369 O382 1.271 . S
C369 O383 1.251 . S
C370 O384 1.252 . S
C370 O385 1.272 . S
C371 Sm361 2.846 . S
C371 C372 1.506 . S
C371 O386 1.261 . S
C371 O387 1.242 . S
C372 C371 1.506 . S
C372 C373 1.358 . S
C372 C377 1.382 . S
C373 C372 1.358 . S
C373 C374 1.385 . S
C373 H396 0.930 . S
C374 C373 1.385 . S
C374 C375 1.395 . S
C374 H397 0.929 . S
C375 C374 1.395 . S
C375 C376 1.335 . S
C376 C375 1.335 . S
C376 C377 1.398 . S
C376 H398 0.930 . S
C377 C372 1.382 . S
C377 C376 1.398 . S
C377 H399 0.929 . S
C378 O388 1.271 . S
C378 O389 1.251 . S
C379 O390 1.252 . S
C379 O391 1.272 . S
O380 Sm360 2.543 . S
O380 C362 1.261 . S
O381 Sm360 2.450 . S
O381 C362 1.242 . S
O382 Sm360 2.681 . S
O382 Sm361 2.386 . S
O382 C369 1.271 . S
O383 Sm360 2.464 . S
O383 C369 1.251 . S
O384 Sm360 2.396 . S
O384 C370 1.252 . S
O385 Sm361 2.408 . S
O385 C370 1.272 . S
O386 Sm361 2.543 . S
O386 C371 1.261 . S
O387 Sm361 2.450 . S
O387 C371 1.242 . S
O388 Sm360 2.386 . S
O388 Sm361 2.681 . S
O388 C378 1.271 . S
O389 Sm361 2.464 . S
O389 C378 1.251 . S
O390 Sm361 2.396 . S
O390 C379 1.252 . S
O391 Sm360 2.408 . S
O391 C379 1.272 . S
H392 C364 0.930 . S
H393 C365 0.929 . S
H394 C367 0.930 . S
H395 C368 0.929 . S
H396 C373 0.930 . S
H397 C374 0.929 . S
H398 C376 0.930 . S
H399 C377 0.929 . S
Sm400 C402 2.846 . S
Sm400 O420 2.543 . S
Sm400 O421 2.450 . S
Sm400 O422 2.681 . S
Sm400 O423 2.464 . S
Sm400 O424 2.396 . S
Sm400 O428 2.386 . S
Sm400 O431 2.408 . S
Sm401 C411 2.846 . S
Sm401 O422 2.386 . S
Sm401 O425 2.408 . S
Sm401 O426 2.543 . S
Sm401 O427 2.450 . S
Sm401 O428 2.681 . S
Sm401 O429 2.464 . S
Sm401 O430 2.396 . S
C402 Sm400 2.846 . S
C402 C403 1.506 . S
C402 O420 1.261 . S
C402 O421 1.242 . S
C403 C402 1.506 . S
C403 C404 1.358 . S
C403 C408 1.382 . S
C404 C403 1.358 . S
C404 C405 1.385 . S
C404 H432 0.930 . S
C405 C404 1.385 . S
C405 C406 1.395 . S
C405 H433 0.929 . S
C406 C405 1.395 . S
C406 C407 1.335 . S
C407 C406 1.335 . S
C407 C408 1.398 . S
C407 H434 0.930 . S
C408 C403 1.382 . S
C408 C407 1.398 . S
C408 H435 0.929 . S
C409 O422 1.271 . S
C409 O423 1.251 . S
C410 O424 1.252 . S
C410 O425 1.272 . S
C411 Sm401 2.846 . S
C411 C412 1.506 . S
C411 O426 1.261 . S
C411 O427 1.242 . S
C412 C411 1.506 . S
C412 C413 1.358 . S
C412 C417 1.382 . S
C413 C412 1.358 . S
C413 C414 1.385 . S
C413 H436 0.930 . S
C414 C413 1.385 . S
C414 C415 1.395 . S
C414 H437 0.929 . S
C415 C414 1.395 . S
C415 C416 1.335 . S
C416 C415 1.335 . S
C416 C417 1.398 . S
C416 H438 0.930 . S
C417 C412 1.382 . S
C417 C416 1.398 . S
C417 H439 0.929 . S
C418 O428 1.271 . S
C418 O429 1.251 . S
C419 O430 1.252 . S
C419 O431 1.272 . S
O420 Sm400 2.543 . S
O420 C402 1.261 . S
O421 Sm400 2.450 . S
O421 C402 1.242 . S
O422 Sm400 2.681 . S
O422 Sm401 2.386 . S
O422 C409 1.271 . S
O423 Sm400 2.464 . S
O423 C409 1.251 . S
O424 Sm400 2.396 . S
O424 C410 1.252 . S
O425 Sm401 2.408 . S
O425 C410 1.272 . S
O426 Sm401 2.543 . S
O426 C411 1.261 . S
O427 Sm401 2.450 . S
O427 C411 1.242 . S
O428 Sm400 2.386 . S
O428 Sm401 2.681 . S
O428 C418 1.271 . S
O429 Sm401 2.464 . S
O429 C418 1.251 . S
O430 Sm401 2.396 . S
O430 C419 1.252 . S
O431 Sm400 2.408 . S
O431 C419 1.272 . S
H432 C404 0.930 . S
H433 C405 0.929 . S
H434 C407 0.930 . S
H435 C408 0.929 . S
H436 C413 0.930 . S
H437 C414 0.929 . S
H438 C416 0.930 . S
H439 C417 0.929 . S
Sm440 C442 2.846 . S
Sm440 O460 2.543 . S
Sm440 O461 2.450 . S
Sm440 O462 2.681 . S
Sm440 O463 2.464 . S
Sm440 O464 2.396 . S
Sm440 O468 2.386 . S
Sm440 O471 2.408 . S
Sm441 C451 2.846 . S
Sm441 O462 2.386 . S
Sm441 O465 2.408 . S
Sm441 O466 2.543 . S
Sm441 O467 2.450 . S
Sm441 O468 2.681 . S
Sm441 O469 2.464 . S
Sm441 O470 2.396 . S
C442 Sm440 2.846 . S
C442 C443 1.506 . S
C442 O460 1.261 . S
C442 O461 1.242 . S
C443 C442 1.506 . S
C443 C444 1.358 . S
C443 C448 1.382 . S
C444 C443 1.358 . S
C444 C445 1.385 . S
C444 H472 0.930 . S
C445 C444 1.385 . S
C445 C446 1.395 . S
C445 H473 0.929 . S
C446 C445 1.395 . S
C446 C447 1.335 . S
C447 C446 1.335 . S
C447 C448 1.398 . S
C447 H474 0.930 . S
C448 C443 1.382 . S
C448 C447 1.398 . S
C448 H475 0.929 . S
C449 O462 1.271 . S
C449 O463 1.251 . S
C450 O464 1.252 . S
C450 O465 1.272 . S
C451 Sm441 2.846 . S
C451 C452 1.506 . S
C451 O466 1.261 . S
C451 O467 1.242 . S
C452 C451 1.506 . S
C452 C453 1.358 . S
C452 C457 1.382 . S
C453 C452 1.358 . S
C453 C454 1.385 . S
C453 H476 0.930 . S
C454 C453 1.385 . S
C454 C455 1.395 . S
C454 H477 0.929 . S
C455 C454 1.395 . S
C455 C456 1.335 . S
C456 C455 1.335 . S
C456 C457 1.398 . S
C456 H478 0.930 . S
C457 C452 1.382 . S
C457 C456 1.398 . S
C457 H479 0.929 . S
C458 O468 1.271 . S
C458 O469 1.251 . S
C459 O470 1.252 . S
C459 O471 1.272 . S
O460 Sm440 2.543 . S
O460 C442 1.261 . S
O461 Sm440 2.450 . S
O461 C442 1.242 . S
O462 Sm440 2.681 . S
O462 Sm441 2.386 . S
O462 C449 1.271 . S
O463 Sm440 2.464 . S
O463 C449 1.251 . S
O464 Sm440 2.396 . S
O464 C450 1.252 . S
O465 Sm441 2.408 . S
O465 C450 1.272 . S
O466 Sm441 2.543 . S
O466 C451 1.261 . S
O467 Sm441 2.450 . S
O467 C451 1.242 . S
O468 Sm440 2.386 . S
O468 Sm441 2.681 . S
O468 C458 1.271 . S
O469 Sm441 2.464 . S
O469 C458 1.251 . S
O470 Sm441 2.396 . S
O470 C459 1.252 . S
O471 Sm440 2.408 . S
O471 C459 1.272 . S
H472 C444 0.930 . S
H473 C445 0.929 . S
H474 C447 0.930 . S
H475 C448 0.929 . S
H476 C453 0.930 . S
H477 C454 0.929 . S
H478 C456 0.930 . S
H479 C457 0.929 . S
Sm480 C482 2.846 . S
Sm480 O500 2.543 . S
Sm480 O501 2.450 . S
Sm480 O502 2.681 . S
Sm480 O503 2.464 . S
Sm480 O504 2.396 . S
Sm480 O508 2.386 . S
Sm480 O511 2.408 . S
Sm481 C491 2.846 . S
Sm481 O502 2.386 . S
Sm481 O505 2.408 . S
Sm481 O506 2.543 . S
Sm481 O507 2.450 . S
Sm481 O508 2.681 . S
Sm481 O509 2.464 . S
Sm481 O510 2.396 . S
C482 Sm480 2.846 . S
C482 C483 1.506 . S
C482 O500 1.261 . S
C482 O501 1.242 . S
C483 C482 1.506 . S
C483 C484 1.358 . S
C483 C488 1.382 . S
C484 C483 1.358 . S
C484 C485 1.385 . S
C484 H512 0.930 . S
C485 C484 1.385 . S
C485 C486 1.395 . S
C485 H513 0.929 . S
C486 C485 1.395 . S
C486 C487 1.335 . S
C487 C486 1.335 . S
C487 C488 1.398 . S
C487 H514 0.930 . S
C488 C483 1.382 . S
C488 C487 1.398 . S
C488 H515 0.929 . S
C489 O502 1.271 . S
C489 O503 1.251 . S
C490 O504 1.252 . S
C490 O505 1.272 . S
C491 Sm481 2.846 . S
C491 C492 1.506 . S
C491 O506 1.261 . S
C491 O507 1.242 . S
C492 C491 1.506 . S
C492 C493 1.358 . S
C492 C497 1.382 . S
C493 C492 1.358 . S
C493 C494 1.385 . S
C493 H516 0.930 . S
C494 C493 1.385 . S
C494 C495 1.395 . S
C494 H517 0.929 . S
C495 C494 1.395 . S
C495 C496 1.335 . S
C496 C495 1.335 . S
C496 C497 1.398 . S
C496 H518 0.930 . S
C497 C492 1.382 . S
C497 C496 1.398 . S
C497 H519 0.929 . S
C498 O508 1.271 . S
C498 O509 1.251 . S
C499 O510 1.252 . S
C499 O511 1.272 . S
O500 Sm480 2.543 . S
O500 C482 1.261 . S
O501 Sm480 2.450 . S
O501 C482 1.242 . S
O502 Sm480 2.681 . S
O502 Sm481 2.386 . S
O502 C489 1.271 . S
O503 Sm480 2.464 . S
O503 C489 1.251 . S
O504 Sm480 2.396 . S
O504 C490 1.252 . S
O505 Sm481 2.408 . S
O505 C490 1.272 . S
O506 Sm481 2.543 . S
O506 C491 1.261 . S
O507 Sm481 2.450 . S
O507 C491 1.242 . S
O508 Sm480 2.386 . S
O508 Sm481 2.681 . S
O508 C498 1.271 . S
O509 Sm481 2.464 . S
O509 C498 1.251 . S
O510 Sm481 2.396 . S
O510 C499 1.252 . S
O511 Sm480 2.408 . S
O511 C499 1.272 . S
H512 C484 0.930 . S
H513 C485 0.929 . S
H514 C487 0.930 . S
H515 C488 0.929 . S
H516 C493 0.930 . S
H517 C494 0.929 . S
H518 C496 0.930 . S
H519 C497 0.929 . S
Sm520 C522 2.846 . S
Sm520 O540 2.543 . S
Sm520 O541 2.450 . S
Sm520 O542 2.681 . S
Sm520 O543 2.464 . S
Sm520 O544 2.396 . S
Sm520 O548 2.386 . S
Sm520 O551 2.408 . S
Sm521 C531 2.846 . S
Sm521 O542 2.386 . S
Sm521 O545 2.408 . S
Sm521 O546 2.543 . S
Sm521 O547 2.450 . S
Sm521 O548 2.681 . S
Sm521 O549 2.464 . S
Sm521 O550 2.396 . S
C522 Sm520 2.846 . S
C522 C523 1.506 . S
C522 O540 1.261 . S
C522 O541 1.242 . S
C523 C522 1.506 . S
C523 C524 1.358 . S
C523 C528 1.382 . S
C524 C523 1.358 . S
C524 C525 1.385 . S
C524 H552 0.930 . S
C525 C524 1.385 . S
C525 C526 1.395 . S
C525 H553 0.929 . S
C526 C525 1.395 . S
C526 C527 1.335 . S
C527 C526 1.335 . S
C527 C528 1.398 . S
C527 H554 0.930 . S
C528 C523 1.382 . S
C528 C527 1.398 . S
C528 H555 0.929 . S
C529 O542 1.271 . S
C529 O543 1.251 . S
C530 O544 1.252 . S
C530 O545 1.272 . S
C531 Sm521 2.846 . S
C531 C532 1.506 . S
C531 O546 1.261 . S
C531 O547 1.242 . S
C532 C531 1.506 . S
C532 C533 1.358 . S
C532 C537 1.382 . S
C533 C532 1.358 . S
C533 C534 1.385 . S
C533 H556 0.930 . S
C534 C533 1.385 . S
C534 C535 1.395 . S
C534 H557 0.929 . S
C535 C534 1.395 . S
C535 C536 1.335 . S
C536 C535 1.335 . S
C536 C537 1.398 . S
C536 H558 0.930 . S
C537 C532 1.382 . S
C537 C536 1.398 . S
C537 H559 0.929 . S
C538 O548 1.271 . S
C538 O549 1.251 . S
C539 O550 1.252 . S
C539 O551 1.272 . S
O540 Sm520 2.543 . S
O540 C522 1.261 . S
O541 Sm520 2.450 . S
O541 C522 1.242 . S
O542 Sm520 2.681 . S
O542 Sm521 2.386 . S
O542 C529 1.271 . S
O543 Sm520 2.464 . S
O543 C529 1.251 . S
O544 Sm520 2.396 . S
O544 C530 1.252 . S
O545 Sm521 2.408 . S
O545 C530 1.272 . S
O546 Sm521 2.543 . S
O546 C531 1.261 . S
O547 Sm521 2.450 . S
O547 C531 1.242 . S
O548 Sm520 2.386 . S
O548 Sm521 2.681 . S
O548 C538 1.271 . S
O549 Sm521 2.464 . S
O549 C538 1.251 . S
O550 Sm521 2.396 . S
O550 C539 1.252 . S
O551 Sm520 2.408 . S
O551 C539 1.272 . S
H552 C524 0.930 . S
H553 C525 0.929 . S
H554 C527 0.930 . S
H555 C528 0.929 . S
H556 C533 0.930 . S
H557 C534 0.929 . S
H558 C536 0.930 . S
H559 C537 0.929 . S
Sm560 C562 2.846 . S
Sm560 O580 2.543 . S
Sm560 O581 2.450 . S
Sm560 O582 2.681 . S
Sm560 O583 2.464 . S
Sm560 O584 2.396 . S
Sm560 O588 2.386 . S
Sm560 O591 2.408 . S
Sm561 C571 2.846 . S
Sm561 O582 2.386 . S
Sm561 O585 2.408 . S
Sm561 O586 2.543 . S
Sm561 O587 2.450 . S
Sm561 O588 2.681 . S
Sm561 O589 2.464 . S
Sm561 O590 2.396 . S
C562 Sm560 2.846 . S
C562 C563 1.506 . S
C562 O580 1.261 . S
C562 O581 1.242 . S
C563 C562 1.506 . S
C563 C564 1.358 . S
C563 C568 1.382 . S
C564 C563 1.358 . S
C564 C565 1.385 . S
C564 H592 0.930 . S
C565 C564 1.385 . S
C565 C566 1.395 . S
C565 H593 0.929 . S
C566 C565 1.395 . S
C566 C567 1.335 . S
C567 C566 1.335 . S
C567 C568 1.398 . S
C567 H594 0.930 . S
C568 C563 1.382 . S
C568 C567 1.398 . S
C568 H595 0.929 . S
C569 O582 1.271 . S
C569 O583 1.251 . S
C570 O584 1.252 . S
C570 O585 1.272 . S
C571 Sm561 2.846 . S
C571 C572 1.506 . S
C571 O586 1.261 . S
C571 O587 1.242 . S
C572 C571 1.506 . S
C572 C573 1.358 . S
C572 C577 1.382 . S
C573 C572 1.358 . S
C573 C574 1.385 . S
C573 H596 0.930 . S
C574 C573 1.385 . S
C574 C575 1.395 . S
C574 H597 0.929 . S
C575 C574 1.395 . S
C575 C576 1.335 . S
C576 C575 1.335 . S
C576 C577 1.398 . S
C576 H598 0.930 . S
C577 C572 1.382 . S
C577 C576 1.398 . S
C577 H599 0.929 . S
C578 O588 1.271 . S
C578 O589 1.251 . S
C579 O590 1.252 . S
C579 O591 1.272 . S
O580 Sm560 2.543 . S
O580 C562 1.261 . S
O581 Sm560 2.450 . S
O581 C562 1.242 . S
O582 Sm560 2.681 . S
O582 Sm561 2.386 . S
O582 C569 1.271 . S
O583 Sm560 2.464 . S
O583 C569 1.251 . S
O584 Sm560 2.396 . S
O584 C570 1.252 . S
O585 Sm561 2.408 . S
O585 C570 1.272 . S
O586 Sm561 2.543 . S
O586 C571 1.261 . S
O587 Sm561 2.450 . S
O587 C571 1.242 . S
O588 Sm560 2.386 . S
O588 Sm561 2.681 . S
O588 C578 1.271 . S
O589 Sm561 2.464 . S
O589 C578 1.251 . S
O590 Sm561 2.396 . S
O590 C579 1.252 . S
O591 Sm560 2.408 . S
O591 C579 1.272 . S
H592 C564 0.930 . S
H593 C565 0.929 . S
H594 C567 0.930 . S
H595 C568 0.929 . S
H596 C573 0.930 . S
H597 C574 0.929 . S
H598 C576 0.930 . S
H599 C577 0.929 . S
Sm600 C602 2.846 . S
Sm600 O620 2.543 . S
Sm600 O621 2.450 . S
Sm600 O622 2.681 . S
Sm600 O623 2.464 . S
Sm600 O624 2.396 . S
Sm600 O628 2.386 . S
Sm600 O631 2.408 . S
Sm601 C611 2.846 . S
Sm601 O622 2.386 . S
Sm601 O625 2.408 . S
Sm601 O626 2.543 . S
Sm601 O627 2.450 . S
Sm601 O628 2.681 . S
Sm601 O629 2.464 . S
Sm601 O630 2.396 . S
C602 Sm600 2.846 . S
C602 C603 1.506 . S
C602 O620 1.261 . S
C602 O621 1.242 . S
C603 C602 1.506 . S
C603 C604 1.358 . S
C603 C608 1.382 . S
C604 C603 1.358 . S
C604 C605 1.385 . S
C604 H632 0.930 . S
C605 C604 1.385 . S
C605 C606 1.395 . S
C605 H633 0.929 . S
C606 C605 1.395 . S
C606 C607 1.335 . S
C607 C606 1.335 . S
C607 C608 1.398 . S
C607 H634 0.930 . S
C608 C603 1.382 . S
C608 C607 1.398 . S
C608 H635 0.929 . S
C609 O622 1.271 . S
C609 O623 1.251 . S
C610 O624 1.252 . S
C610 O625 1.272 . S
C611 Sm601 2.846 . S
C611 C612 1.506 . S
C611 O626 1.261 . S
C611 O627 1.242 . S
C612 C611 1.506 . S
C612 C613 1.358 . S
C612 C617 1.382 . S
C613 C612 1.358 . S
C613 C614 1.385 . S
C613 H636 0.930 . S
C614 C613 1.385 . S
C614 C615 1.395 . S
C614 H637 0.929 . S
C615 C614 1.395 . S
C615 C616 1.335 . S
C616 C615 1.335 . S
C616 C617 1.398 . S
C616 H638 0.930 . S
C617 C612 1.382 . S
C617 C616 1.398 . S
C617 H639 0.929 . S
C618 O628 1.271 . S
C618 O629 1.251 . S
C619 O630 1.252 . S
C619 O631 1.272 . S
O620 Sm600 2.543 . S
O620 C602 1.261 . S
O621 Sm600 2.450 . S
O621 C602 1.242 . S
O622 Sm600 2.681 . S
O622 Sm601 2.386 . S
O622 C609 1.271 . S
O623 Sm600 2.464 . S
O623 C609 1.251 . S
O624 Sm600 2.396 . S
O624 C610 1.252 . S
O625 Sm601 2.408 . S
O625 C610 1.272 . S
O626 Sm601 2.543 . S
O626 C611 1.261 . S
O627 Sm601 2.450 . S
O627 C611 1.242 . S
O628 Sm600 2.386 . S
O628 Sm601 2.681 . S
O628 C618 1.271 . S
O629 Sm601 2.464 . S
O629 C618 1.251 . S
O630 Sm601 2.396 . S
O630 C619 1.252 . S
O631 Sm600 2.408 . S
O631 C619 1.272 . S
H632 C604 0.930 . S
H633 C605 0.929 . S
H634 C607 0.930 . S
H635 C608 0.929 . S
H636 C613 0.930 . S
H637 C614 0.929 . S
H638 C616 0.930 . S
H639 C617 0.929 . S
C640 C641 1.349 . S
C640 C642 1.327 . S
C640 H665 0.950 . S
C641 C640 1.349 . S
C641 C657 1.349 . S
C642 C640 1.327 . S
C642 C661 1.429 . S
C642 H666 0.950 . S
C643 C660 1.574 . S
C643 C662 1.368 . S
C643 H667 0.949 . S
H644 C648 0.949 . S
C645 C646 1.349 . S
C645 C647 1.327 . S
C645 H668 0.950 . S
C646 C645 1.349 . S
C646 C658 1.349 . S
C647 C645 1.327 . S
C647 C663 1.429 . S
C647 H669 0.950 . S
C648 H644 0.949 . S
C648 C656 1.574 . S
C648 C664 1.368 . S
H649 C657 0.950 . S
H650 C655 0.950 . S
H651 C656 0.949 . S
H652 C658 0.950 . S
H653 C659 0.950 . S
H654 C660 0.949 . S
C655 H650 0.950 . S
C655 C657 1.327 . S
C655 C661 1.429 . S
C656 C648 1.574 . S
C656 H651 0.949 . S
C656 C662 1.368 . S
C657 C641 1.349 . S
C657 H649 0.950 . S
C657 C655 1.327 . S
C658 C646 1.349 . S
C658 H652 0.950 . S
C658 C659 1.327 . S
C659 H653 0.950 . S
C659 C658 1.327 . S
C659 C663 1.429 . S
C660 C643 1.574 . S
C660 H654 0.949 . S
C660 C664 1.368 . S
C661 C642 1.429 . S
C661 C655 1.429 . S
C661 C662 1.523 . S
C662 C643 1.368 . S
C662 C656 1.368 . S
C662 C661 1.523 . S
C663 C647 1.429 . S
C663 C659 1.429 . S
C663 C664 1.523 . S
C664 C648 1.368 . S
C664 C660 1.368 . S
C664 C663 1.523 . S
H665 C640 0.950 . S
H666 C642 0.950 . S
H667 C643 0.949 . S
H668 C645 0.950 . S
H669 C647 0.950 . S
C670 C671 1.349 . S
C670 C672 1.327 . S
C670 H695 0.950 . S
C671 C670 1.349 . S
C671 C687 1.349 . S
C672 C670 1.327 . S
C672 C691 1.429 . S
C672 H696 0.950 . S
C673 C690 1.574 . S
C673 C692 1.368 . S
C673 H697 0.949 . S
H674 C678 0.949 . S
C675 C676 1.349 . S
C675 C677 1.327 . S
C675 H698 0.950 . S
C676 C675 1.349 . S
C676 C688 1.349 . S
C677 C675 1.327 . S
C677 C693 1.429 . S
C677 H699 0.950 . S
C678 H674 0.949 . S
C678 C686 1.574 . S
C678 C694 1.368 . S
H679 C687 0.950 . S
H680 C685 0.950 . S
H681 C686 0.949 . S
H682 C688 0.950 . S
H683 C689 0.950 . S
H684 C690 0.949 . S
C685 H680 0.950 . S
C685 C687 1.327 . S
C685 C691 1.429 . S
C686 C678 1.574 . S
C686 H681 0.949 . S
C686 C692 1.368 . S
C687 C671 1.349 . S
C687 H679 0.950 . S
C687 C685 1.327 . S
C688 C676 1.349 . S
C688 H682 0.950 . S
C688 C689 1.327 . S
C689 H683 0.950 . S
C689 C688 1.327 . S
C689 C693 1.429 . S
C690 C673 1.574 . S
C690 H684 0.949 . S
C690 C694 1.368 . S
C691 C672 1.429 . S
C691 C685 1.429 . S
C691 C692 1.523 . S
C692 C673 1.368 . S
C692 C686 1.368 . S
C692 C691 1.523 . S
C693 C677 1.429 . S
C693 C689 1.429 . S
C693 C694 1.523 . S
C694 C678 1.368 . S
C694 C690 1.368 . S
C694 C693 1.523 . S
H695 C670 0.950 . S
H696 C672 0.950 . S
H697 C673 0.949 . S
H698 C675 0.950 . S
H699 C677 0.950 . S
C700 C701 1.349 . S
C700 C702 1.327 . S
C700 H725 0.950 . S
C701 C700 1.349 . S
C701 C717 1.349 . S
C702 C700 1.327 . S
C702 C721 1.429 . S
C702 H726 0.950 . S
C703 C720 1.574 . S
C703 C722 1.368 . S
C703 H727 0.949 . S
H704 C708 0.949 . S
C705 C706 1.349 . S
C705 C707 1.327 . S
C705 H728 0.950 . S
C706 C705 1.349 . S
C706 C718 1.349 . S
C707 C705 1.327 . S
C707 C723 1.429 . S
C707 H729 0.950 . S
C708 H704 0.949 . S
C708 C716 1.574 . S
C708 C724 1.368 . S
H709 C717 0.950 . S
H710 C715 0.950 . S
H711 C716 0.949 . S
H712 C718 0.950 . S
H713 C719 0.950 . S
H714 C720 0.949 . S
C715 H710 0.950 . S
C715 C717 1.327 . S
C715 C721 1.429 . S
C716 C708 1.574 . S
C716 H711 0.949 . S
C716 C722 1.368 . S
C717 C701 1.349 . S
C717 H709 0.950 . S
C717 C715 1.327 . S
C718 C706 1.349 . S
C718 H712 0.950 . S
C718 C719 1.327 . S
C719 H713 0.950 . S
C719 C718 1.327 . S
C719 C723 1.429 . S
C720 C703 1.574 . S
C720 H714 0.949 . S
C720 C724 1.368 . S
C721 C702 1.429 . S
C721 C715 1.429 . S
C721 C722 1.523 . S
C722 C703 1.368 . S
C722 C716 1.368 . S
C722 C721 1.523 . S
C723 C707 1.429 . S
C723 C719 1.429 . S
C723 C724 1.523 . S
C724 C708 1.368 . S
C724 C720 1.368 . S
C724 C723 1.523 . S
H725 C700 0.950 . S
H726 C702 0.950 . S
H727 C703 0.949 . S
H728 C705 0.950 . S
H729 C707 0.950 . S
C730 C731 1.349 . S
C730 C732 1.327 . S
C730 H755 0.950 . S
C731 C730 1.349 . S
C731 C747 1.349 . S
C732 C730 1.327 . S
C732 C751 1.429 . S
C732 H756 0.950 . S
C733 C750 1.574 . S
C733 C752 1.368 . S
C733 H757 0.949 . S
H734 C738 0.949 . S
C735 C736 1.349 . S
C735 C737 1.327 . S
C735 H758 0.950 . S
C736 C735 1.349 . S
C736 C748 1.349 . S
C737 C735 1.327 . S
C737 C753 1.429 . S
C737 H759 0.950 . S
C738 H734 0.949 . S
C738 C746 1.574 . S
C738 C754 1.368 . S
H739 C747 0.950 . S
H740 C745 0.950 . S
H741 C746 0.949 . S
H742 C748 0.950 . S
H743 C749 0.950 . S
H744 C750 0.949 . S
C745 H740 0.950 . S
C745 C747 1.327 . S
C745 C751 1.429 . S
C746 C738 1.574 . S
C746 H741 0.949 . S
C746 C752 1.368 . S
C747 C731 1.349 . S
C747 H739 0.950 . S
C747 C745 1.327 . S
C748 C736 1.349 . S
C748 H742 0.950 . S
C748 C749 1.327 . S
C749 H743 0.950 . S
C749 C748 1.327 . S
C749 C753 1.429 . S
C750 C733 1.574 . S
C750 H744 0.949 . S
C750 C754 1.368 . S
C751 C732 1.429 . S
C751 C745 1.429 . S
C751 C752 1.523 . S
C752 C733 1.368 . S
C752 C746 1.368 . S
C752 C751 1.523 . S
C753 C737 1.429 . S
C753 C749 1.429 . S
C753 C754 1.523 . S
C754 C738 1.368 . S
C754 C750 1.368 . S
C754 C753 1.523 . S
H755 C730 0.950 . S
H756 C732 0.950 . S
H757 C733 0.949 . S
H758 C735 0.950 . S
H759 C737 0.950 . S
C760 C761 1.349 . S
C760 C762 1.327 . S
C760 H785 0.950 . S
C761 C760 1.349 . S
C761 C777 1.349 . S
C762 C760 1.327 . S
C762 C781 1.429 . S
C762 H786 0.950 . S
C763 C780 1.574 . S
C763 C782 1.368 . S
C763 H787 0.949 . S
H764 C768 0.949 . S
C765 C766 1.349 . S
C765 C767 1.327 . S
C765 H788 0.950 . S
C766 C765 1.349 . S
C766 C778 1.349 . S
C767 C765 1.327 . S
C767 C783 1.429 . S
C767 H789 0.950 . S
C768 H764 0.949 . S
C768 C776 1.574 . S
C768 C784 1.368 . S
H769 C777 0.950 . S
H770 C775 0.950 . S
H771 C776 0.949 . S
H772 C778 0.950 . S
H773 C779 0.950 . S
H774 C780 0.949 . S
C775 H770 0.950 . S
C775 C777 1.327 . S
C775 C781 1.429 . S
C776 C768 1.574 . S
C776 H771 0.949 . S
C776 C782 1.368 . S
C777 C761 1.349 . S
C777 H769 0.950 . S
C777 C775 1.327 . S
C778 C766 1.349 . S
C778 H772 0.950 . S
C778 C779 1.327 . S
C779 H773 0.950 . S
C779 C778 1.327 . S
C779 C783 1.429 . S
C780 C763 1.574 . S
C780 H774 0.949 . S
C780 C784 1.368 . S
C781 C762 1.429 . S
C781 C775 1.429 . S
C781 C782 1.523 . S
C782 C763 1.368 . S
C782 C776 1.368 . S
C782 C781 1.523 . S
C783 C767 1.429 . S
C783 C779 1.429 . S
C783 C784 1.523 . S
C784 C768 1.368 . S
C784 C780 1.368 . S
C784 C783 1.523 . S
H785 C760 0.950 . S
H786 C762 0.950 . S
H787 C763 0.949 . S
H788 C765 0.950 . S
H789 C767 0.950 . S
C790 C791 1.349 . S
C790 C792 1.327 . S
C790 H815 0.950 . S
C791 C790 1.349 . S
C791 C807 1.349 . S
C792 C790 1.327 . S
C792 C811 1.429 . S
C792 H816 0.950 . S
C793 C810 1.574 . S
C793 C812 1.368 . S
C793 H817 0.949 . S
H794 C798 0.949 . S
C795 C796 1.349 . S
C795 C797 1.327 . S
C795 H818 0.950 . S
C796 C795 1.349 . S
C796 C808 1.349 . S
C797 C795 1.327 . S
C797 C813 1.429 . S
C797 H819 0.950 . S
C798 H794 0.949 . S
C798 C806 1.574 . S
C798 C814 1.368 . S
H799 C807 0.950 . S
H800 C805 0.950 . S
H801 C806 0.949 . S
H802 C808 0.950 . S
H803 C809 0.950 . S
H804 C810 0.949 . S
C805 H800 0.950 . S
C805 C807 1.327 . S
C805 C811 1.429 . S
C806 C798 1.574 . S
C806 H801 0.949 . S
C806 C812 1.368 . S
C807 C791 1.349 . S
C807 H799 0.950 . S
C807 C805 1.327 . S
C808 C796 1.349 . S
C808 H802 0.950 . S
C808 C809 1.327 . S
C809 H803 0.950 . S
C809 C808 1.327 . S
C809 C813 1.429 . S
C810 C793 1.574 . S
C810 H804 0.949 . S
C810 C814 1.368 . S
C811 C792 1.429 . S
C811 C805 1.429 . S
C811 C812 1.523 . S
C812 C793 1.368 . S
C812 C806 1.368 . S
C812 C811 1.523 . S
C813 C797 1.429 . S
C813 C809 1.429 . S
C813 C814 1.523 . S
C814 C798 1.368 . S
C814 C810 1.368 . S
C814 C813 1.523 . S
H815 C790 0.950 . S
H816 C792 0.950 . S
H817 C793 0.949 . S
H818 C795 0.950 . S
H819 C797 0.950 . S
C820 C821 1.349 . S
C820 C822 1.327 . S
C820 H845 0.950 . S
C821 C820 1.349 . S
C821 C837 1.349 . S
C822 C820 1.327 . S
C822 C841 1.429 . S
C822 H846 0.950 . S
C823 C840 1.574 . S
C823 C842 1.368 . S
C823 H847 0.949 . S
H824 C828 0.949 . S
C825 C826 1.349 . S
C825 C827 1.327 . S
C825 H848 0.950 . S
C826 C825 1.349 . S
C826 C838 1.349 . S
C827 C825 1.327 . S
C827 C843 1.429 . S
C827 H849 0.950 . S
C828 H824 0.949 . S
C828 C836 1.574 . S
C828 C844 1.368 . S
H829 C837 0.950 . S
H830 C835 0.950 . S
H831 C836 0.949 . S
H832 C838 0.950 . S
H833 C839 0.950 . S
H834 C840 0.949 . S
C835 H830 0.950 . S
C835 C837 1.327 . S
C835 C841 1.429 . S
C836 C828 1.574 . S
C836 H831 0.949 . S
C836 C842 1.368 . S
C837 C821 1.349 . S
C837 H829 0.950 . S
C837 C835 1.327 . S
C838 C826 1.349 . S
C838 H832 0.950 . S
C838 C839 1.327 . S
C839 H833 0.950 . S
C839 C838 1.327 . S
C839 C843 1.429 . S
C840 C823 1.574 . S
C840 H834 0.949 . S
C840 C844 1.368 . S
C841 C822 1.429 . S
C841 C835 1.429 . S
C841 C842 1.523 . S
C842 C823 1.368 . S
C842 C836 1.368 . S
C842 C841 1.523 . S
C843 C827 1.429 . S
C843 C839 1.429 . S
C843 C844 1.523 . S
C844 C828 1.368 . S
C844 C840 1.368 . S
C844 C843 1.523 . S
H845 C820 0.950 . S
H846 C822 0.950 . S
H847 C823 0.949 . S
H848 C825 0.950 . S
H849 C827 0.950 . S
C850 C851 1.349 . S
C850 C852 1.327 . S
C850 H875 0.950 . S
C851 C850 1.349 . S
C851 C867 1.349 . S
C852 C850 1.327 . S
C852 C871 1.429 . S
C852 H876 0.950 . S
C853 C870 1.574 . S
C853 C872 1.368 . S
C853 H877 0.949 . S
H854 C858 0.949 . S
C855 C856 1.349 . S
C855 C857 1.327 . S
C855 H878 0.950 . S
C856 C855 1.349 . S
C856 C868 1.349 . S
C857 C855 1.327 . S
C857 C873 1.429 . S
C857 H879 0.950 . S
C858 H854 0.949 . S
C858 C866 1.574 . S
C858 C874 1.368 . S
H859 C867 0.950 . S
H860 C865 0.950 . S
H861 C866 0.949 . S
H862 C868 0.950 . S
H863 C869 0.950 . S
H864 C870 0.949 . S
C865 H860 0.950 . S
C865 C867 1.327 . S
C865 C871 1.429 . S
C866 C858 1.574 . S
C866 H861 0.949 . S
C866 C872 1.368 . S
C867 C851 1.349 . S
C867 H859 0.950 . S
C867 C865 1.327 . S
C868 C856 1.349 . S
C868 H862 0.950 . S
C868 C869 1.327 . S
C869 H863 0.950 . S
C869 C868 1.327 . S
C869 C873 1.429 . S
C870 C853 1.574 . S
C870 H864 0.949 . S
C870 C874 1.368 . S
C871 C852 1.429 . S
C871 C865 1.429 . S
C871 C872 1.523 . S
C872 C853 1.368 . S
C872 C866 1.368 . S
C872 C871 1.523 . S
C873 C857 1.429 . S
C873 C869 1.429 . S
C873 C874 1.523 . S
C874 C858 1.368 . S
C874 C870 1.368 . S
C874 C873 1.523 . S
H875 C850 0.950 . S
H876 C852 0.950 . S
H877 C853 0.949 . S
H878 C855 0.950 . S
H879 C857 0.950 . S
C880 C881 1.349 . S
C880 C882 1.327 . S
C880 H905 0.950 . S
C881 C880 1.349 . S
C881 C897 1.349 . S
C882 C880 1.327 . S
C882 C901 1.429 . S
C882 H906 0.950 1_565 S
C883 C900 1.574 . S
C883 C902 1.368 . S
C883 H907 0.949 . S
H884 C888 0.949 . S
C885 C886 1.349 . S
C885 C887 1.327 . S
C885 H908 0.950 . S
C886 C885 1.349 . S
C886 C898 1.349 . S
C887 C885 1.327 . S
C887 C903 1.429 . S
C887 H909 0.950 1_545 S
C888 H884 0.949 . S
C888 C896 1.574 . S
C888 C904 1.368 . S
H889 C897 0.950 . S
H890 C895 0.950 . S
H891 C896 0.949 . S
H892 C898 0.950 . S
H893 C899 0.950 . S
H894 C900 0.949 . S
C895 H890 0.950 . S
C895 C897 1.327 . S
C895 C901 1.429 . S
C896 C888 1.574 . S
C896 H891 0.949 . S
C896 C902 1.368 1_545 S
C897 C881 1.349 . S
C897 H889 0.950 . S
C897 C895 1.327 . S
C898 C886 1.349 . S
C898 H892 0.950 . S
C898 C899 1.327 . S
C899 H893 0.950 . S
C899 C898 1.327 . S
C899 C903 1.429 . S
C900 C883 1.574 . S
C900 H894 0.949 . S
C900 C904 1.368 1_565 S
C901 C882 1.429 . S
C901 C895 1.429 . S
C901 C902 1.523 . S
C902 C883 1.368 . S
C902 C896 1.368 1_565 S
C902 C901 1.523 . S
C903 C887 1.429 . S
C903 C899 1.429 . S
C903 C904 1.523 . S
C904 C888 1.368 . S
C904 C900 1.368 1_545 S
C904 C903 1.523 . S
H905 C880 0.950 . S
H906 C882 0.950 1_545 S
H907 C883 0.949 . S
H908 C885 0.950 . S
H909 C887 0.950 1_565 S
C910 C911 1.349 . S
C910 C912 1.327 . S
C910 H935 0.950 . S
C911 C910 1.349 . S
C911 C927 1.349 . S
C912 C910 1.327 . S
C912 C931 1.429 . S
C912 H936 0.950 . S
C913 C930 1.574 . S
C913 C932 1.368 1_565 S
C913 H937 0.949 . S
H914 C918 0.949 . S
C915 C916 1.349 . S
C915 C917 1.327 . S
C915 H938 0.950 . S
C916 C915 1.349 . S
C916 C928 1.349 . S
C917 C915 1.327 . S
C917 C933 1.429 . S
C917 H939 0.950 . S
C918 H914 0.949 . S
C918 C926 1.574 . S
C918 C934 1.368 1_545 S
H919 C927 0.950 . S
H920 C925 0.950 . S
H921 C926 0.949 . S
H922 C928 0.950 . S
H923 C929 0.950 . S
H924 C930 0.949 . S
C925 H920 0.950 . S
C925 C927 1.327 . S
C925 C931 1.429 . S
C926 C918 1.574 . S
C926 H921 0.949 . S
C926 C932 1.368 . S
C927 C911 1.349 . S
C927 H919 0.950 . S
C927 C925 1.327 . S
C928 C916 1.349 . S
C928 H922 0.950 . S
C928 C929 1.327 . S
C929 H923 0.950 . S
C929 C928 1.327 . S
C929 C933 1.429 . S
C930 C913 1.574 . S
C930 H924 0.949 . S
C930 C934 1.368 . S
C931 C912 1.429 . S
C931 C925 1.429 . S
C931 C932 1.523 . S
C932 C913 1.368 1_545 S
C932 C926 1.368 . S
C932 C931 1.523 . S
C933 C917 1.429 . S
C933 C929 1.429 . S
C933 C934 1.523 . S
C934 C918 1.368 1_565 S
C934 C930 1.368 . S
C934 C933 1.523 . S
H935 C910 0.950 . S
H936 C912 0.950 . S
H937 C913 0.949 . S
H938 C915 0.950 . S
H939 C917 0.950 . S
C940 C941 1.349 . S
C940 C942 1.327 . S
C940 H965 0.950 . S
C941 C940 1.349 . S
C941 C957 1.349 . S
C942 C940 1.327 . S
C942 C961 1.429 . S
C942 H966 0.950 . S
C943 C960 1.574 . S
C943 C962 1.368 1_565 S
C943 H967 0.949 . S
H944 C948 0.949 . S
C945 C946 1.349 . S
C945 C947 1.327 . S
C945 H968 0.950 . S
C946 C945 1.349 . S
C946 C958 1.349 . S
C947 C945 1.327 . S
C947 C963 1.429 . S
C947 H969 0.950 . S
C948 H944 0.949 . S
C948 C956 1.574 . S
C948 C964 1.368 1_545 S
H949 C957 0.950 . S
H950 C955 0.950 1_565 S
H951 C956 0.949 . S
H952 C958 0.950 . S
H953 C959 0.950 1_545 S
H954 C960 0.949 . S
C955 H950 0.950 1_545 S
C955 C957 1.327 . S
C955 C961 1.429 . S
C956 C948 1.574 . S
C956 H951 0.949 . S
C956 C962 1.368 . S
C957 C941 1.349 . S
C957 H949 0.950 . S
C957 C955 1.327 . S
C958 C946 1.349 . S
C958 H952 0.950 . S
C958 C959 1.327 . S
C959 H953 0.950 1_565 S
C959 C958 1.327 . S
C959 C963 1.429 . S
C960 C943 1.574 . S
C960 H954 0.949 . S
C960 C964 1.368 . S
C961 C942 1.429 . S
C961 C955 1.429 . S
C961 C962 1.523 . S
C962 C943 1.368 1_545 S
C962 C956 1.368 . S
C962 C961 1.523 . S
C963 C947 1.429 . S
C963 C959 1.429 . S
C963 C964 1.523 . S
C964 C948 1.368 1_565 S
C964 C960 1.368 . S
C964 C963 1.523 . S
H965 C940 0.950 . S
H966 C942 0.950 . S
H967 C943 0.949 . S
H968 C945 0.950 . S
H969 C947 0.950 . S
C970 C971 1.349 . S
C970 C972 1.327 . S
C970 H995 0.950 . S
C971 C970 1.349 . S
C971 C987 1.349 . S
C972 C970 1.327 . S
C972 C991 1.429 . S
C972 H996 0.950 1_545 S
C973 C990 1.574 . S
C973 C992 1.368 . S
C973 H997 0.949 . S
H974 C978 0.949 . S
C975 C976 1.349 . S
C975 C977 1.327 . S
C975 H998 0.950 . S
C976 C975 1.349 . S
C976 C988 1.349 . S
C977 C975 1.327 . S
C977 C993 1.429 . S
C977 H999 0.950 1_565 S
C978 H974 0.949 . S
C978 C986 1.574 . S
C978 C994 1.368 . S
H979 C987 0.950 . S
H980 C985 0.950 . S
H981 C986 0.949 . S
H982 C988 0.950 . S
H983 C989 0.950 . S
H984 C990 0.949 . S
C985 H980 0.950 . S
C985 C987 1.327 . S
C985 C991 1.429 . S
C986 C978 1.574 . S
C986 H981 0.949 . S
C986 C992 1.368 1_565 S
C987 C971 1.349 . S
C987 H979 0.950 . S
C987 C985 1.327 . S
C988 C976 1.349 . S
C988 H982 0.950 . S
C988 C989 1.327 . S
C989 H983 0.950 . S
C989 C988 1.327 . S
C989 C993 1.429 . S
C990 C973 1.574 . S
C990 H984 0.949 . S
C990 C994 1.368 1_545 S
C991 C972 1.429 . S
C991 C985 1.429 . S
C991 C992 1.523 . S
C992 C973 1.368 . S
C992 C986 1.368 1_545 S
C992 C991 1.523 . S
C993 C977 1.429 . S
C993 C989 1.429 . S
C993 C994 1.523 . S
C994 C978 1.368 . S
C994 C990 1.368 1_565 S
C994 C993 1.523 . S
H995 C970 0.950 . S
H996 C972 0.950 1_565 S
H997 C973 0.949 . S
H998 C975 0.950 . S
H999 C977 0.950 1_545 S
C1000 C1001 1.349 . S
C1000 C1002 1.327 . S
C1000 H1025 0.950 . S
C1001 C1000 1.349 . S
C1001 C1017 1.349 . S
C1002 C1000 1.327 . S
C1002 C1021 1.429 . S
C1002 H1026 0.950 . S
C1003 C1020 1.574 . S
C1003 C1022 1.368 . S
C1003 H1027 0.949 . S
H1004 C1008 0.949 . S
C1005 C1006 1.349 . S
C1005 C1007 1.327 . S
C1005 H1028 0.950 . S
C1006 C1005 1.349 . S
C1006 C1018 1.349 . S
C1007 C1005 1.327 . S
C1007 C1023 1.429 . S
C1007 H1029 0.950 . S
C1008 H1004 0.949 . S
C1008 C1016 1.574 . S
C1008 C1024 1.368 . S
H1009 C1017 0.950 . S
H1010 C1015 0.950 . S
H1011 C1016 0.949 . S
H1012 C1018 0.950 . S
H1013 C1019 0.950 . S
H1014 C1020 0.949 . S
C1015 H1010 0.950 . S
C1015 C1017 1.327 . S
C1015 C1021 1.429 . S
C1016 C1008 1.574 . S
C1016 H1011 0.949 . S
C1016 C1022 1.368 . S
C1017 C1001 1.349 . S
C1017 H1009 0.950 . S
C1017 C1015 1.327 . S
C1018 C1006 1.349 . S
C1018 H1012 0.950 . S
C1018 C1019 1.327 . S
C1019 H1013 0.950 . S
C1019 C1018 1.327 . S
C1019 C1023 1.429 . S
C1020 C1003 1.574 . S
C1020 H1014 0.949 . S
C1020 C1024 1.368 . S
C1021 C1002 1.429 . S
C1021 C1015 1.429 . S
C1021 C1022 1.523 . S
C1022 C1003 1.368 . S
C1022 C1016 1.368 . S
C1022 C1021 1.523 . S
C1023 C1007 1.429 . S
C1023 C1019 1.429 . S
C1023 C1024 1.523 . S
C1024 C1008 1.368 . S
C1024 C1020 1.368 . S
C1024 C1023 1.523 . S
H1025 C1000 0.950 . S
H1026 C1002 0.950 . S
H1027 C1003 0.949 . S
H1028 C1005 0.950 . S
H1029 C1007 0.950 . S
C1030 C1031 1.349 . S
C1030 C1032 1.327 . S
C1030 H1055 0.950 . S
C1031 C1030 1.349 . S
C1031 C1047 1.349 . S
C1032 C1030 1.327 . S
C1032 C1051 1.429 . S
C1032 H1056 0.950 . S
C1033 C1050 1.574 . S
C1033 C1052 1.368 . S
C1033 H1057 0.949 . S
H1034 C1038 0.949 . S
C1035 C1036 1.349 . S
C1035 C1037 1.327 . S
C1035 H1058 0.950 . S
C1036 C1035 1.349 . S
C1036 C1048 1.349 . S
C1037 C1035 1.327 . S
C1037 C1053 1.429 . S
C1037 H1059 0.950 . S
C1038 H1034 0.949 . S
C1038 C1046 1.574 . S
C1038 C1054 1.368 . S
H1039 C1047 0.950 . S
H1040 C1045 0.950 . S
H1041 C1046 0.949 . S
H1042 C1048 0.950 . S
H1043 C1049 0.950 . S
H1044 C1050 0.949 . S
C1045 H1040 0.950 . S
C1045 C1047 1.327 . S
C1045 C1051 1.429 . S
C1046 C1038 1.574 . S
C1046 H1041 0.949 . S
C1046 C1052 1.368 . S
C1047 C1031 1.349 . S
C1047 H1039 0.950 . S
C1047 C1045 1.327 . S
C1048 C1036 1.349 . S
C1048 H1042 0.950 . S
C1048 C1049 1.327 . S
C1049 H1043 0.950 . S
C1049 C1048 1.327 . S
C1049 C1053 1.429 . S
C1050 C1033 1.574 . S
C1050 H1044 0.949 . S
C1050 C1054 1.368 . S
C1051 C1032 1.429 . S
C1051 C1045 1.429 . S
C1051 C1052 1.523 . S
C1052 C1033 1.368 . S
C1052 C1046 1.368 . S
C1052 C1051 1.523 . S
C1053 C1037 1.429 . S
C1053 C1049 1.429 . S
C1053 C1054 1.523 . S
C1054 C1038 1.368 . S
C1054 C1050 1.368 . S
C1054 C1053 1.523 . S
H1055 C1030 0.950 . S
H1056 C1032 0.950 . S
H1057 C1033 0.949 . S
H1058 C1035 0.950 . S
H1059 C1037 0.950 . S
C1060 C1061 1.349 . S
C1060 C1062 1.327 . S
C1060 H1085 0.950 . S
C1061 C1060 1.349 . S
C1061 C1077 1.349 . S
C1062 C1060 1.327 . S
C1062 C1081 1.429 . S
C1062 H1086 0.950 . S
C1063 C1080 1.574 . S
C1063 C1082 1.368 . S
C1063 H1087 0.949 . S
H1064 C1068 0.949 . S
C1065 C1066 1.349 . S
C1065 C1067 1.327 . S
C1065 H1088 0.950 . S
C1066 C1065 1.349 . S
C1066 C1078 1.349 . S
C1067 C1065 1.327 . S
C1067 C1083 1.429 . S
C1067 H1089 0.950 . S
C1068 H1064 0.949 . S
C1068 C1076 1.574 . S
C1068 C1084 1.368 . S
H1069 C1077 0.950 . S
H1070 C1075 0.950 . S
H1071 C1076 0.949 . S
H1072 C1078 0.950 . S
H1073 C1079 0.950 . S
H1074 C1080 0.949 . S
C1075 H1070 0.950 . S
C1075 C1077 1.327 . S
C1075 C1081 1.429 . S
C1076 C1068 1.574 . S
C1076 H1071 0.949 . S
C1076 C1082 1.368 . S
C1077 C1061 1.349 . S
C1077 H1069 0.950 . S
C1077 C1075 1.327 . S
C1078 C1066 1.349 . S
C1078 H1072 0.950 . S
C1078 C1079 1.327 . S
C1079 H1073 0.950 . S
C1079 C1078 1.327 . S
C1079 C1083 1.429 . S
C1080 C1063 1.574 . S
C1080 H1074 0.949 . S
C1080 C1084 1.368 . S
C1081 C1062 1.429 . S
C1081 C1075 1.429 . S
C1081 C1082 1.523 . S
C1082 C1063 1.368 . S
C1082 C1076 1.368 . S
C1082 C1081 1.523 . S
C1083 C1067 1.429 . S
C1083 C1079 1.429 . S
C1083 C1084 1.523 . S
C1084 C1068 1.368 . S
C1084 C1080 1.368 . S
C1084 C1083 1.523 . S
H1085 C1060 0.950 . S
H1086 C1062 0.950 . S
H1087 C1063 0.949 . S
H1088 C1065 0.950 . S
H1089 C1067 0.950 . S
C1090 C1091 1.349 . S
C1090 C1092 1.327 . S
C1090 H1115 0.950 . S
C1091 C1090 1.349 . S
C1091 C1107 1.349 . S
C1092 C1090 1.327 . S
C1092 C1111 1.429 . S
C1092 H1116 0.950 . S
C1093 C1110 1.574 . S
C1093 C1112 1.368 . S
C1093 H1117 0.949 . S
H1094 C1098 0.949 . S
C1095 C1096 1.349 . S
C1095 C1097 1.327 . S
C1095 H1118 0.950 . S
C1096 C1095 1.349 . S
C1096 C1108 1.349 . S
C1097 C1095 1.327 . S
C1097 C1113 1.429 . S
C1097 H1119 0.950 . S
C1098 H1094 0.949 . S
C1098 C1106 1.574 . S
C1098 C1114 1.368 . S
H1099 C1107 0.950 . S
H1100 C1105 0.950 . S
H1101 C1106 0.949 . S
H1102 C1108 0.950 . S
H1103 C1109 0.950 . S
H1104 C1110 0.949 . S
C1105 H1100 0.950 . S
C1105 C1107 1.327 . S
C1105 C1111 1.429 . S
C1106 C1098 1.574 . S
C1106 H1101 0.949 . S
C1106 C1112 1.368 . S
C1107 C1091 1.349 . S
C1107 H1099 0.950 . S
C1107 C1105 1.327 . S
C1108 C1096 1.349 . S
C1108 H1102 0.950 . S
C1108 C1109 1.327 . S
C1109 H1103 0.950 . S
C1109 C1108 1.327 . S
C1109 C1113 1.429 . S
C1110 C1093 1.574 . S
C1110 H1104 0.949 . S
C1110 C1114 1.368 . S
C1111 C1092 1.429 . S
C1111 C1105 1.429 . S
C1111 C1112 1.523 . S
C1112 C1093 1.368 . S
C1112 C1106 1.368 . S
C1112 C1111 1.523 . S
C1113 C1097 1.429 . S
C1113 C1109 1.429 . S
C1113 C1114 1.523 . S
C1114 C1098 1.368 . S
C1114 C1110 1.368 . S
C1114 C1113 1.523 . S
H1115 C1090 0.950 . S
H1116 C1092 0.950 . S
H1117 C1093 0.949 . S
H1118 C1095 0.950 . S
H1119 C1097 0.950 . S
C1120 C1121 1.349 . S
C1120 C1122 1.327 . S
C1120 H1145 0.950 . S
C1121 C1120 1.349 . S
C1121 C1137 1.349 . S
C1122 C1120 1.327 . S
C1122 C1141 1.429 . S
C1122 H1146 0.950 . S
C1123 C1140 1.574 1_556 S
C1123 C1142 1.368 . S
C1123 H1147 0.949 . S
H1124 C1128 0.949 . S
C1125 C1126 1.349 . S
C1125 C1127 1.327 . S
C1125 H1148 0.950 . S
C1126 C1125 1.349 . S
C1126 C1138 1.349 . S
C1127 C1125 1.327 . S
C1127 C1143 1.429 . S
C1127 H1149 0.950 . S
C1128 H1124 0.949 . S
C1128 C1136 1.574 1_554 S
C1128 C1144 1.368 . S
H1129 C1137 0.950 . S
H1130 C1135 0.950 . S
H1131 C1136 0.949 . S
H1132 C1138 0.950 . S
H1133 C1139 0.950 . S
H1134 C1140 0.949 . S
C1135 H1130 0.950 . S
C1135 C1137 1.327 . S
C1135 C1141 1.429 . S
C1136 C1128 1.574 1_556 S
C1136 H1131 0.949 . S
C1136 C1142 1.368 . S
C1137 C1121 1.349 . S
C1137 H1129 0.950 . S
C1137 C1135 1.327 . S
C1138 C1126 1.349 . S
C1138 H1132 0.950 . S
C1138 C1139 1.327 . S
C1139 H1133 0.950 . S
C1139 C1138 1.327 . S
C1139 C1143 1.429 . S
C1140 C1123 1.574 1_554 S
C1140 H1134 0.949 . S
C1140 C1144 1.368 . S
C1141 C1122 1.429 . S
C1141 C1135 1.429 . S
C1141 C1142 1.523 . S
C1142 C1123 1.368 . S
C1142 C1136 1.368 . S
C1142 C1141 1.523 . S
C1143 C1127 1.429 . S
C1143 C1139 1.429 . S
C1143 C1144 1.523 . S
C1144 C1128 1.368 . S
C1144 C1140 1.368 . S
C1144 C1143 1.523 . S
H1145 C1120 0.950 . S
H1146 C1122 0.950 . S
H1147 C1123 0.949 . S
H1148 C1125 0.950 . S
H1149 C1127 0.950 . S
C1150 C1151 1.349 . S
C1150 C1152 1.327 . S
C1150 H1175 0.950 . S
C1151 C1150 1.349 . S
C1151 C1167 1.349 . S
C1152 C1150 1.327 . S
C1152 C1171 1.429 . S
C1152 H1176 0.950 . S
C1153 C1170 1.574 1_556 S
C1153 C1172 1.368 . S
C1153 H1177 0.949 . S
H1154 C1158 0.949 . S
C1155 C1156 1.349 . S
C1155 C1157 1.327 . S
C1155 H1178 0.950 . S
C1156 C1155 1.349 . S
C1156 C1168 1.349 . S
C1157 C1155 1.327 . S
C1157 C1173 1.429 . S
C1157 H1179 0.950 . S
C1158 H1154 0.949 . S
C1158 C1166 1.574 1_554 S
C1158 C1174 1.368 . S
H1159 C1167 0.950 . S
H1160 C1165 0.950 . S
H1161 C1166 0.949 . S
H1162 C1168 0.950 . S
H1163 C1169 0.950 . S
H1164 C1170 0.949 . S
C1165 H1160 0.950 . S
C1165 C1167 1.327 . S
C1165 C1171 1.429 . S
C1166 C1158 1.574 1_556 S
C1166 H1161 0.949 . S
C1166 C1172 1.368 . S
C1167 C1151 1.349 . S
C1167 H1159 0.950 . S
C1167 C1165 1.327 . S
C1168 C1156 1.349 . S
C1168 H1162 0.950 . S
C1168 C1169 1.327 . S
C1169 H1163 0.950 . S
C1169 C1168 1.327 . S
C1169 C1173 1.429 . S
C1170 C1153 1.574 1_554 S
C1170 H1164 0.949 . S
C1170 C1174 1.368 . S
C1171 C1152 1.429 . S
C1171 C1165 1.429 . S
C1171 C1172 1.523 . S
C1172 C1153 1.368 . S
C1172 C1166 1.368 . S
C1172 C1171 1.523 . S
C1173 C1157 1.429 . S
C1173 C1169 1.429 . S
C1173 C1174 1.523 . S
C1174 C1158 1.368 . S
C1174 C1170 1.368 . S
C1174 C1173 1.523 . S
H1175 C1150 0.950 . S
H1176 C1152 0.950 . S
H1177 C1153 0.949 . S
H1178 C1155 0.950 . S
H1179 C1157 0.950 . S
C1180 C1181 1.349 . S
C1180 C1182 1.327 . S
C1180 H1205 0.950 . S
C1181 C1180 1.349 . S
C1181 C1197 1.349 . S
C1182 C1180 1.327 . S
C1182 C1201 1.429 . S
C1182 H1206 0.950 . S
C1183 C1200 1.574 . S
C1183 C1202 1.368 . S
C1183 H1207 0.949 . S
H1184 C1188 0.949 . S
C1185 C1186 1.349 . S
C1185 C1187 1.327 . S
C1185 H1208 0.950 . S
C1186 C1185 1.349 . S
C1186 C1198 1.349 . S
C1187 C1185 1.327 . S
C1187 C1203 1.429 . S
C1187 H1209 0.950 . S
C1188 H1184 0.949 . S
C1188 C1196 1.574 . S
C1188 C1204 1.368 . S
H1189 C1197 0.950 . S
H1190 C1195 0.950 . S
H1191 C1196 0.949 . S
H1192 C1198 0.950 . S
H1193 C1199 0.950 . S
H1194 C1200 0.949 . S
C1195 H1190 0.950 . S
C1195 C1197 1.327 . S
C1195 C1201 1.429 . S
C1196 C1188 1.574 . S
C1196 H1191 0.949 . S
C1196 C1202 1.368 . S
C1197 C1181 1.349 . S
C1197 H1189 0.950 . S
C1197 C1195 1.327 . S
C1198 C1186 1.349 . S
C1198 H1192 0.950 . S
C1198 C1199 1.327 . S
C1199 H1193 0.950 . S
C1199 C1198 1.327 . S
C1199 C1203 1.429 . S
C1200 C1183 1.574 . S
C1200 H1194 0.949 . S
C1200 C1204 1.368 . S
C1201 C1182 1.429 . S
C1201 C1195 1.429 . S
C1201 C1202 1.523 . S
C1202 C1183 1.368 . S
C1202 C1196 1.368 . S
C1202 C1201 1.523 . S
C1203 C1187 1.429 . S
C1203 C1199 1.429 . S
C1203 C1204 1.523 . S
C1204 C1188 1.368 . S
C1204 C1200 1.368 . S
C1204 C1203 1.523 . S
H1205 C1180 0.950 . S
H1206 C1182 0.950 . S
H1207 C1183 0.949 . S
H1208 C1185 0.950 . S
H1209 C1187 0.950 . S
C1210 C1211 1.349 . S
C1210 C1212 1.327 . S
C1210 H1235 0.950 . S
C1211 C1210 1.349 . S
C1211 C1227 1.349 . S
C1212 C1210 1.327 . S
C1212 C1231 1.429 . S
C1212 H1236 0.950 . S
C1213 C1230 1.574 . S
C1213 C1232 1.368 . S
C1213 H1237 0.949 . S
H1214 C1218 0.949 . S
C1215 C1216 1.349 . S
C1215 C1217 1.327 . S
C1215 H1238 0.950 . S
C1216 C1215 1.349 . S
C1216 C1228 1.349 . S
C1217 C1215 1.327 . S
C1217 C1233 1.429 . S
C1217 H1239 0.950 . S
C1218 H1214 0.949 . S
C1218 C1226 1.574 . S
C1218 C1234 1.368 . S
H1219 C1227 0.950 . S
H1220 C1225 0.950 . S
H1221 C1226 0.949 . S
H1222 C1228 0.950 . S
H1223 C1229 0.950 . S
H1224 C1230 0.949 . S
C1225 H1220 0.950 . S
C1225 C1227 1.327 . S
C1225 C1231 1.429 . S
C1226 C1218 1.574 . S
C1226 H1221 0.949 . S
C1226 C1232 1.368 . S
C1227 C1211 1.349 . S
C1227 H1219 0.950 . S
C1227 C1225 1.327 . S
C1228 C1216 1.349 . S
C1228 H1222 0.950 . S
C1228 C1229 1.327 . S
C1229 H1223 0.950 . S
C1229 C1228 1.327 . S
C1229 C1233 1.429 . S
C1230 C1213 1.574 . S
C1230 H1224 0.949 . S
C1230 C1234 1.368 . S
C1231 C1212 1.429 . S
C1231 C1225 1.429 . S
C1231 C1232 1.523 . S
C1232 C1213 1.368 . S
C1232 C1226 1.368 . S
C1232 C1231 1.523 . S
C1233 C1217 1.429 . S
C1233 C1229 1.429 . S
C1233 C1234 1.523 . S
C1234 C1218 1.368 . S
C1234 C1230 1.368 . S
C1234 C1233 1.523 . S
H1235 C1210 0.950 . S
H1236 C1212 0.950 . S
H1237 C1213 0.949 . S
H1238 C1215 0.950 . S
H1239 C1217 0.950 . S
C1240 C1241 1.349 . S
C1240 C1242 1.327 . S
C1240 H1265 0.950 . S
C1241 C1240 1.349 . S
C1241 C1257 1.349 . S
C1242 C1240 1.327 . S
C1242 C1261 1.429 . S
C1242 H1266 0.950 . S
C1243 C1260 1.574 1_554 S
C1243 C1262 1.368 . S
C1243 H1267 0.949 . S
H1244 C1248 0.949 . S
C1245 C1246 1.349 . S
C1245 C1247 1.327 . S
C1245 H1268 0.950 . S
C1246 C1245 1.349 . S
C1246 C1258 1.349 . S
C1247 C1245 1.327 . S
C1247 C1263 1.429 . S
C1247 H1269 0.950 . S
C1248 H1244 0.949 . S
C1248 C1256 1.574 1_556 S
C1248 C1264 1.368 . S
H1249 C1257 0.950 . S
H1250 C1255 0.950 . S
H1251 C1256 0.949 . S
H1252 C1258 0.950 . S
H1253 C1259 0.950 . S
H1254 C1260 0.949 . S
C1255 H1250 0.950 . S
C1255 C1257 1.327 . S
C1255 C1261 1.429 . S
C1256 C1248 1.574 1_554 S
C1256 H1251 0.949 . S
C1256 C1262 1.368 . S
C1257 C1241 1.349 . S
C1257 H1249 0.950 . S
C1257 C1255 1.327 . S
C1258 C1246 1.349 . S
C1258 H1252 0.950 . S
C1258 C1259 1.327 . S
C1259 H1253 0.950 . S
C1259 C1258 1.327 . S
C1259 C1263 1.429 . S
C1260 C1243 1.574 1_556 S
C1260 H1254 0.949 . S
C1260 C1264 1.368 . S
C1261 C1242 1.429 . S
C1261 C1255 1.429 . S
C1261 C1262 1.523 . S
C1262 C1243 1.368 . S
C1262 C1256 1.368 . S
C1262 C1261 1.523 . S
C1263 C1247 1.429 . S
C1263 C1259 1.429 . S
C1263 C1264 1.523 . S
C1264 C1248 1.368 . S
C1264 C1260 1.368 . S
C1264 C1263 1.523 . S
H1265 C1240 0.950 . S
H1266 C1242 0.950 . S
H1267 C1243 0.949 . S
H1268 C1245 0.950 . S
H1269 C1247 0.950 . S
C1270 C1271 1.349 . S
C1270 C1272 1.327 . S
C1270 H1295 0.950 . S
C1271 C1270 1.349 . S
C1271 C1287 1.349 . S
C1272 C1270 1.327 . S
C1272 C1291 1.429 . S
C1272 H1296 0.950 . S
C1273 C1290 1.574 1_556 S
C1273 C1292 1.368 . S
C1273 H1297 0.949 . S
H1274 C1278 0.949 . S
C1275 C1276 1.349 . S
C1275 C1277 1.327 . S
C1275 H1298 0.950 . S
C1276 C1275 1.349 . S
C1276 C1288 1.349 . S
C1277 C1275 1.327 . S
C1277 C1293 1.429 . S
C1277 H1299 0.950 . S
C1278 H1274 0.949 . S
C1278 C1286 1.574 1_554 S
C1278 C1294 1.368 . S
H1279 C1287 0.950 . S
H1280 C1285 0.950 . S
H1281 C1286 0.949 . S
H1282 C1288 0.950 . S
H1283 C1289 0.950 . S
H1284 C1290 0.949 . S
C1285 H1280 0.950 . S
C1285 C1287 1.327 . S
C1285 C1291 1.429 . S
C1286 C1278 1.574 1_556 S
C1286 H1281 0.949 . S
C1286 C1292 1.368 . S
C1287 C1271 1.349 . S
C1287 H1279 0.950 . S
C1287 C1285 1.327 . S
C1288 C1276 1.349 . S
C1288 H1282 0.950 . S
C1288 C1289 1.327 . S
C1289 H1283 0.950 . S
C1289 C1288 1.327 . S
C1289 C1293 1.429 . S
C1290 C1273 1.574 1_554 S
C1290 H1284 0.949 . S
C1290 C1294 1.368 . S
C1291 C1272 1.429 . S
C1291 C1285 1.429 . S
C1291 C1292 1.523 . S
C1292 C1273 1.368 . S
C1292 C1286 1.368 . S
C1292 C1291 1.523 . S
C1293 C1277 1.429 . S
C1293 C1289 1.429 . S
C1293 C1294 1.523 . S
C1294 C1278 1.368 . S
C1294 C1290 1.368 . S
C1294 C1293 1.523 . S
H1295 C1270 0.950 . S
H1296 C1272 0.950 . S
H1297 C1273 0.949 . S
H1298 C1275 0.950 . S
H1299 C1277 0.950 . S
C1300 C1301 1.349 . S
C1300 C1302 1.327 . S
C1300 H1325 0.950 . S
C1301 C1300 1.349 . S
C1301 C1317 1.349 . S
C1302 C1300 1.327 . S
C1302 C1321 1.429 . S
C1302 H1326 0.950 . S
C1303 C1320 1.574 . S
C1303 C1322 1.368 . S
C1303 H1327 0.949 . S
H1304 C1308 0.949 . S
C1305 C1306 1.349 . S
C1305 C1307 1.327 . S
C1305 H1328 0.950 . S
C1306 C1305 1.349 . S
C1306 C1318 1.349 . S
C1307 C1305 1.327 . S
C1307 C1323 1.429 . S
C1307 H1329 0.950 . S
C1308 H1304 0.949 . S
C1308 C1316 1.574 . S
C1308 C1324 1.368 . S
H1309 C1317 0.950 . S
H1310 C1315 0.950 . S
H1311 C1316 0.949 . S
H1312 C1318 0.950 . S
H1313 C1319 0.950 . S
H1314 C1320 0.949 . S
C1315 H1310 0.950 . S
C1315 C1317 1.327 . S
C1315 C1321 1.429 . S
C1316 C1308 1.574 . S
C1316 H1311 0.949 . S
C1316 C1322 1.368 . S
C1317 C1301 1.349 . S
C1317 H1309 0.950 . S
C1317 C1315 1.327 . S
C1318 C1306 1.349 . S
C1318 H1312 0.950 . S
C1318 C1319 1.327 . S
C1319 H1313 0.950 . S
C1319 C1318 1.327 . S
C1319 C1323 1.429 . S
C1320 C1303 1.574 . S
C1320 H1314 0.949 . S
C1320 C1324 1.368 . S
C1321 C1302 1.429 . S
C1321 C1315 1.429 . S
C1321 C1322 1.523 . S
C1322 C1303 1.368 . S
C1322 C1316 1.368 . S
C1322 C1321 1.523 . S
C1323 C1307 1.429 . S
C1323 C1319 1.429 . S
C1323 C1324 1.523 . S
C1324 C1308 1.368 . S
C1324 C1320 1.368 . S
C1324 C1323 1.523 . S
H1325 C1300 0.950 . S
H1326 C1302 0.950 . S
H1327 C1303 0.949 . S
H1328 C1305 0.950 . S
H1329 C1307 0.950 . S
C1330 C1331 1.349 . S
C1330 C1332 1.327 . S
C1330 H1355 0.950 . S
C1331 C1330 1.349 . S
C1331 C1347 1.349 . S
C1332 C1330 1.327 . S
C1332 C1351 1.429 . S
C1332 H1356 0.950 . S
C1333 C1350 1.574 . S
C1333 C1352 1.368 . S
C1333 H1357 0.949 . S
H1334 C1338 0.949 . S
C1335 C1336 1.349 . S
C1335 C1337 1.327 . S
C1335 H1358 0.950 . S
C1336 C1335 1.349 . S
C1336 C1348 1.349 . S
C1337 C1335 1.327 . S
C1337 C1353 1.429 . S
C1337 H1359 0.950 . S
C1338 H1334 0.949 . S
C1338 C1346 1.574 . S
C1338 C1354 1.368 . S
H1339 C1347 0.950 . S
H1340 C1345 0.950 . S
H1341 C1346 0.949 . S
H1342 C1348 0.950 . S
H1343 C1349 0.950 . S
H1344 C1350 0.949 . S
C1345 H1340 0.950 . S
C1345 C1347 1.327 . S
C1345 C1351 1.429 . S
C1346 C1338 1.574 . S
C1346 H1341 0.949 . S
C1346 C1352 1.368 . S
C1347 C1331 1.349 . S
C1347 H1339 0.950 . S
C1347 C1345 1.327 . S
C1348 C1336 1.349 . S
C1348 H1342 0.950 . S
C1348 C1349 1.327 . S
C1349 H1343 0.950 . S
C1349 C1348 1.327 . S
C1349 C1353 1.429 . S
C1350 C1333 1.574 . S
C1350 H1344 0.949 . S
C1350 C1354 1.368 . S
C1351 C1332 1.429 . S
C1351 C1345 1.429 . S
C1351 C1352 1.523 . S
C1352 C1333 1.368 . S
C1352 C1346 1.368 . S
C1352 C1351 1.523 . S
C1353 C1337 1.429 . S
C1353 C1349 1.429 . S
C1353 C1354 1.523 . S
C1354 C1338 1.368 . S
C1354 C1350 1.368 . S
C1354 C1353 1.523 . S
H1355 C1330 0.950 . S
H1356 C1332 0.950 . S
H1357 C1333 0.949 . S
H1358 C1335 0.950 . S
H1359 C1337 0.950 . S
C1360 C1361 1.349 . S
C1360 C1362 1.327 . S
C1360 H1385 0.950 . S
C1361 C1360 1.349 . S
C1361 C1377 1.349 . S
C1362 C1360 1.327 . S
C1362 C1381 1.429 . S
C1362 H1386 0.950 . S
C1363 C1380 1.574 1_655 S
C1363 C1382 1.368 1_545 S
C1363 H1387 0.949 . S
H1364 C1368 0.949 . S
C1365 C1366 1.349 . S
C1365 C1367 1.327 . S
C1365 H1388 0.950 . S
C1366 C1365 1.349 . S
C1366 C1378 1.349 . S
C1367 C1365 1.327 . S
C1367 C1383 1.429 . S
C1367 H1389 0.950 . S
C1368 H1364 0.949 . S
C1368 C1376 1.574 1_455 S
C1368 C1384 1.368 1_565 S
H1369 C1377 0.950 1_545 S
H1370 C1375 0.963 . S
H1371 C1376 0.949 . S
H1372 C1378 0.950 1_565 S
H1373 C1379 0.963 . S
H1374 C1380 0.949 . S
C1375 H1370 0.963 . S
C1375 C1377 1.323 1_545 S
C1375 C1381 1.420 1_545 S
C1376 C1368 1.574 1_655 S
C1376 H1371 0.949 . S
C1376 C1382 1.368 . S
C1377 C1361 1.349 . S
C1377 H1369 0.950 1_565 S
C1377 C1375 1.323 1_565 S
C1378 C1366 1.349 . S
C1378 H1372 0.950 1_545 S
C1378 C1379 1.323 1_545 S
C1379 H1373 0.963 . S
C1379 C1378 1.323 1_565 S
C1379 C1383 1.420 1_565 S
C1380 C1363 1.574 1_455 S
C1380 H1374 0.949 . S
C1380 C1384 1.368 . S
C1381 C1362 1.429 . S
C1381 C1375 1.420 1_565 S
C1381 C1382 1.523 . S
C1382 C1363 1.368 1_565 S
C1382 C1376 1.368 . S
C1382 C1381 1.523 . S
C1383 C1367 1.429 . S
C1383 C1379 1.420 1_545 S
C1383 C1384 1.523 . S
C1384 C1368 1.368 1_545 S
C1384 C1380 1.368 . S
C1384 C1383 1.523 . S
H1385 C1360 0.950 . S
H1386 C1362 0.950 . S
H1387 C1363 0.949 . S
H1388 C1365 0.950 . S
H1389 C1367 0.950 . S
C1390 C1391 1.349 . S
C1390 C1392 1.323 1_545 S
C1390 H1415 0.950 1_545 S
C1391 C1390 1.349 . S
C1391 C1407 1.349 . S
C1392 C1390 1.323 1_565 S
C1392 C1411 1.420 1_565 S
C1392 H1416 0.963 . S
C1393 C1410 1.574 1_655 S
C1393 C1412 1.368 . S
C1393 H1417 0.949 . S
H1394 C1398 0.949 . S
C1395 C1396 1.349 . S
C1395 C1397 1.323 1_565 S
C1395 H1418 0.950 1_565 S
C1396 C1395 1.349 . S
C1396 C1408 1.349 . S
C1397 C1395 1.323 1_545 S
C1397 C1413 1.420 1_545 S
C1397 H1419 0.963 . S
C1398 H1394 0.949 . S
C1398 C1406 1.574 1_455 S
C1398 C1414 1.368 . S
H1399 C1407 0.950 . S
H1400 C1405 0.950 . S
H1401 C1406 0.949 . S
H1402 C1408 0.950 . S
H1403 C1409 0.950 . S
H1404 C1410 0.949 . S
C1405 H1400 0.950 . S
C1405 C1407 1.327 . S
C1405 C1411 1.429 . S
C1406 C1398 1.574 1_655 S
C1406 H1401 0.949 . S
C1406 C1412 1.368 1_565 S
C1407 C1391 1.349 . S
C1407 H1399 0.950 . S
C1407 C1405 1.327 . S
C1408 C1396 1.349 . S
C1408 H1402 0.950 . S
C1408 C1409 1.327 . S
C1409 H1403 0.950 . S
C1409 C1408 1.327 . S
C1409 C1413 1.429 . S
C1410 C1393 1.574 1_455 S
C1410 H1404 0.949 . S
C1410 C1414 1.368 1_545 S
C1411 C1392 1.420 1_545 S
C1411 C1405 1.429 . S
C1411 C1412 1.523 . S
C1412 C1393 1.368 . S
C1412 C1406 1.368 1_545 S
C1412 C1411 1.523 . S
C1413 C1397 1.420 1_565 S
C1413 C1409 1.429 . S
C1413 C1414 1.523 . S
C1414 C1398 1.368 . S
C1414 C1410 1.368 1_565 S
C1414 C1413 1.523 . S
H1415 C1390 0.950 1_565 S
H1416 C1392 0.963 . S
H1417 C1393 0.949 . S
H1418 C1395 0.950 1_545 S
H1419 C1397 0.963 . S
C1420 C1421 1.349 . S
C1420 C1422 1.327 . S
C1420 H1445 0.950 . S
C1421 C1420 1.349 . S
C1421 C1437 1.349 . S
C1422 C1420 1.327 . S
C1422 C1441 1.429 . S
C1422 H1446 0.950 . S
C1423 C1440 1.574 1_455 S
C1423 C1442 1.368 1_565 S
C1423 H1447 0.949 . S
H1424 C1428 0.949 . S
C1425 C1426 1.349 . S
C1425 C1427 1.327 . S
C1425 H1448 0.950 . S
C1426 C1425 1.349 . S
C1426 C1438 1.349 . S
C1427 C1425 1.327 . S
C1427 C1443 1.429 . S
C1427 H1449 0.950 . S
C1428 H1424 0.949 . S
C1428 C1436 1.574 1_655 S
C1428 C1444 1.368 1_545 S
H1429 C1437 0.950 1_565 S
H1430 C1435 0.963 . S
H1431 C1436 0.949 . S
H1432 C1438 0.950 1_545 S
H1433 C1439 0.963 . S
H1434 C1440 0.949 . S
C1435 H1430 0.963 . S
C1435 C1437 1.323 1_565 S
C1435 C1441 1.420 1_565 S
C1436 C1428 1.574 1_455 S
C1436 H1431 0.949 . S
C1436 C1442 1.368 . S
C1437 C1421 1.349 . S
C1437 H1429 0.950 1_545 S
C1437 C1435 1.323 1_545 S
C1438 C1426 1.349 . S
C1438 H1432 0.950 1_565 S
C1438 C1439 1.323 1_565 S
C1439 H1433 0.963 . S
C1439 C1438 1.323 1_545 S
C1439 C1443 1.420 1_545 S
C1440 C1423 1.574 1_655 S
C1440 H1434 0.949 . S
C1440 C1444 1.368 . S
C1441 C1422 1.429 . S
C1441 C1435 1.420 1_545 S
C1441 C1442 1.523 . S
C1442 C1423 1.368 1_545 S
C1442 C1436 1.368 . S
C1442 C1441 1.523 . S
C1443 C1427 1.429 . S
C1443 C1439 1.420 1_565 S
C1443 C1444 1.523 . S
C1444 C1428 1.368 1_565 S
C1444 C1440 1.368 . S
C1444 C1443 1.523 . S
H1445 C1420 0.950 . S
H1446 C1422 0.950 . S
H1447 C1423 0.949 . S
H1448 C1425 0.950 . S
H1449 C1427 0.950 . S
C1450 C1451 1.349 . S
C1450 C1452 1.323 1_545 S
C1450 H1475 0.950 1_545 S
C1451 C1450 1.349 . S
C1451 C1467 1.349 . S
C1452 C1450 1.323 1_565 S
C1452 C1471 1.420 1_565 S
C1452 H1476 0.963 . S
C1453 C1470 1.574 1_655 S
C1453 C1472 1.368 . S
C1453 H1477 0.949 . S
H1454 C1458 0.949 . S
C1455 C1456 1.349 . S
C1455 C1457 1.323 1_565 S
C1455 H1478 0.950 1_565 S
C1456 C1455 1.349 . S
C1456 C1468 1.349 . S
C1457 C1455 1.323 1_545 S
C1457 C1473 1.420 1_545 S
C1457 H1479 0.963 . S
C1458 H1454 0.949 . S
C1458 C1466 1.574 1_455 S
C1458 C1474 1.368 . S
H1459 C1467 0.950 . S
H1460 C1465 0.950 . S
H1461 C1466 0.949 . S
H1462 C1468 0.950 . S
H1463 C1469 0.950 . S
H1464 C1470 0.949 . S
C1465 H1460 0.950 . S
C1465 C1467 1.327 . S
C1465 C1471 1.429 . S
C1466 C1458 1.574 1_655 S
C1466 H1461 0.949 . S
C1466 C1472 1.368 1_565 S
C1467 C1451 1.349 . S
C1467 H1459 0.950 . S
C1467 C1465 1.327 . S
C1468 C1456 1.349 . S
C1468 H1462 0.950 . S
C1468 C1469 1.327 . S
C1469 H1463 0.950 . S
C1469 C1468 1.327 . S
C1469 C1473 1.429 . S
C1470 C1453 1.574 1_455 S
C1470 H1464 0.949 . S
C1470 C1474 1.368 1_545 S
C1471 C1452 1.420 1_545 S
C1471 C1465 1.429 . S
C1471 C1472 1.523 . S
C1472 C1453 1.368 . S
C1472 C1466 1.368 1_545 S
C1472 C1471 1.523 . S
C1473 C1457 1.420 1_565 S
C1473 C1469 1.429 . S
C1473 C1474 1.523 . S
C1474 C1458 1.368 . S
C1474 C1470 1.368 1_565 S
C1474 C1473 1.523 . S
H1475 C1450 0.950 1_565 S
H1476 C1452 0.963 . S
H1477 C1453 0.949 . S
H1478 C1455 0.950 1_545 S
H1479 C1457 0.963 . S
C1480 C1481 1.349 . S
C1480 C1482 1.327 . S
C1480 H1505 0.950 . S
C1481 C1480 1.349 . S
C1481 C1497 1.349 . S
C1482 C1480 1.327 . S
C1482 C1501 1.429 . S
C1482 H1506 0.950 . S
C1483 C1500 1.574 . S
C1483 C1502 1.368 . S
C1483 H1507 0.949 . S
H1484 C1488 0.949 . S
C1485 C1486 1.349 . S
C1485 C1487 1.327 . S
C1485 H1508 0.950 . S
C1486 C1485 1.349 . S
C1486 C1498 1.349 . S
C1487 C1485 1.327 . S
C1487 C1503 1.429 . S
C1487 H1509 0.950 . S
C1488 H1484 0.949 . S
C1488 C1496 1.574 . S
C1488 C1504 1.368 . S
H1489 C1497 0.950 . S
H1490 C1495 0.950 . S
H1491 C1496 0.949 . S
H1492 C1498 0.950 . S
H1493 C1499 0.950 . S
H1494 C1500 0.949 . S
C1495 H1490 0.950 . S
C1495 C1497 1.327 . S
C1495 C1501 1.429 . S
C1496 C1488 1.574 . S
C1496 H1491 0.949 . S
C1496 C1502 1.368 . S
C1497 C1481 1.349 . S
C1497 H1489 0.950 . S
C1497 C1495 1.327 . S
C1498 C1486 1.349 . S
C1498 H1492 0.950 . S
C1498 C1499 1.327 . S
C1499 H1493 0.950 . S
C1499 C1498 1.327 . S
C1499 C1503 1.429 . S
C1500 C1483 1.574 . S
C1500 H1494 0.949 . S
C1500 C1504 1.368 . S
C1501 C1482 1.429 . S
C1501 C1495 1.429 . S
C1501 C1502 1.523 . S
C1502 C1483 1.368 . S
C1502 C1496 1.368 . S
C1502 C1501 1.523 . S
C1503 C1487 1.429 . S
C1503 C1499 1.429 . S
C1503 C1504 1.523 . S
C1504 C1488 1.368 . S
C1504 C1500 1.368 . S
C1504 C1503 1.523 . S
H1505 C1480 0.950 . S
H1506 C1482 0.950 . S
H1507 C1483 0.949 . S
H1508 C1485 0.950 . S
H1509 C1487 0.950 . S
C1510 C1511 1.349 . S
C1510 C1512 1.327 . S
C1510 H1535 0.950 . S
C1511 C1510 1.349 . S
C1511 C1527 1.349 . S
C1512 C1510 1.327 . S
C1512 C1531 1.429 . S
C1512 H1536 0.950 . S
C1513 C1530 1.574 . S
C1513 C1532 1.368 . S
C1513 H1537 0.949 . S
H1514 C1518 0.949 . S
C1515 C1516 1.349 . S
C1515 C1517 1.327 . S
C1515 H1538 0.950 . S
C1516 C1515 1.349 . S
C1516 C1528 1.349 . S
C1517 C1515 1.327 . S
C1517 C1533 1.429 . S
C1517 H1539 0.950 . S
C1518 H1514 0.949 . S
C1518 C1526 1.574 . S
C1518 C1534 1.368 . S
H1519 C1527 0.950 . S
H1520 C1525 0.950 . S
H1521 C1526 0.949 . S
H1522 C1528 0.950 . S
H1523 C1529 0.950 . S
H1524 C1530 0.949 . S
C1525 H1520 0.950 . S
C1525 C1527 1.327 . S
C1525 C1531 1.429 . S
C1526 C1518 1.574 . S
C1526 H1521 0.949 . S
C1526 C1532 1.368 . S
C1527 C1511 1.349 . S
C1527 H1519 0.950 . S
C1527 C1525 1.327 . S
C1528 C1516 1.349 . S
C1528 H1522 0.950 . S
C1528 C1529 1.327 . S
C1529 H1523 0.950 . S
C1529 C1528 1.327 . S
C1529 C1533 1.429 . S
C1530 C1513 1.574 . S
C1530 H1524 0.949 . S
C1530 C1534 1.368 . S
C1531 C1512 1.429 . S
C1531 C1525 1.429 . S
C1531 C1532 1.523 . S
C1532 C1513 1.368 . S
C1532 C1526 1.368 . S
C1532 C1531 1.523 . S
C1533 C1517 1.429 . S
C1533 C1529 1.429 . S
C1533 C1534 1.523 . S
C1534 C1518 1.368 . S
C1534 C1530 1.368 . S
C1534 C1533 1.523 . S
H1535 C1510 0.950 . S
H1536 C1512 0.950 . S
H1537 C1513 0.949 . S
H1538 C1515 0.950 . S
H1539 C1517 0.950 . S
C1540 C1541 1.349 . S
C1540 C1542 1.327 . S
C1540 H1565 0.950 . S
C1541 C1540 1.349 . S
C1541 C1557 1.349 . S
C1542 C1540 1.327 . S
C1542 C1561 1.429 . S
C1542 H1566 0.950 . S
C1543 C1560 1.574 . S
C1543 C1562 1.368 . S
C1543 H1567 0.949 . S
H1544 C1548 0.949 . S
C1545 C1546 1.349 . S
C1545 C1547 1.327 . S
C1545 H1568 0.950 . S
C1546 C1545 1.349 . S
C1546 C1558 1.349 . S
C1547 C1545 1.327 . S
C1547 C1563 1.429 . S
C1547 H1569 0.950 . S
C1548 H1544 0.949 . S
C1548 C1556 1.574 . S
C1548 C1564 1.368 . S
H1549 C1557 0.950 . S
H1550 C1555 0.950 . S
H1551 C1556 0.949 . S
H1552 C1558 0.950 . S
H1553 C1559 0.950 . S
H1554 C1560 0.949 . S
C1555 H1550 0.950 . S
C1555 C1557 1.327 . S
C1555 C1561 1.429 . S
C1556 C1548 1.574 . S
C1556 H1551 0.949 . S
C1556 C1562 1.368 . S
C1557 C1541 1.349 . S
C1557 H1549 0.950 . S
C1557 C1555 1.327 . S
C1558 C1546 1.349 . S
C1558 H1552 0.950 . S
C1558 C1559 1.327 . S
C1559 H1553 0.950 . S
C1559 C1558 1.327 . S
C1559 C1563 1.429 . S
C1560 C1543 1.574 . S
C1560 H1554 0.949 . S
C1560 C1564 1.368 . S
C1561 C1542 1.429 . S
C1561 C1555 1.429 . S
C1561 C1562 1.523 . S
C1562 C1543 1.368 . S
C1562 C1556 1.368 . S
C1562 C1561 1.523 . S
C1563 C1547 1.429 . S
C1563 C1559 1.429 . S
C1563 C1564 1.523 . S
C1564 C1548 1.368 . S
C1564 C1560 1.368 . S
C1564 C1563 1.523 . S
H1565 C1540 0.950 . S
H1566 C1542 0.950 . S
H1567 C1543 0.949 . S
H1568 C1545 0.950 . S
H1569 C1547 0.950 . S
C1570 C1571 1.349 . S
C1570 C1572 1.327 . S
C1570 H1595 0.950 . S
C1571 C1570 1.349 . S
C1571 C1587 1.349 . S
C1572 C1570 1.327 . S
C1572 C1591 1.429 . S
C1572 H1596 0.950 . S
C1573 C1590 1.574 . S
C1573 C1592 1.368 . S
C1573 H1597 0.949 . S
H1574 C1578 0.949 . S
C1575 C1576 1.349 . S
C1575 C1577 1.327 . S
C1575 H1598 0.950 . S
C1576 C1575 1.349 . S
C1576 C1588 1.349 . S
C1577 C1575 1.327 . S
C1577 C1593 1.429 . S
C1577 H1599 0.950 . S
C1578 H1574 0.949 . S
C1578 C1586 1.574 . S
C1578 C1594 1.368 . S
H1579 C1587 0.950 . S
H1580 C1585 0.950 . S
H1581 C1586 0.949 . S
H1582 C1588 0.950 . S
H1583 C1589 0.950 . S
H1584 C1590 0.949 . S
C1585 H1580 0.950 . S
C1585 C1587 1.327 . S
C1585 C1591 1.429 . S
C1586 C1578 1.574 . S
C1586 H1581 0.949 . S
C1586 C1592 1.368 . S
C1587 C1571 1.349 . S
C1587 H1579 0.950 . S
C1587 C1585 1.327 . S
C1588 C1576 1.349 . S
C1588 H1582 0.950 . S
C1588 C1589 1.327 . S
C1589 H1583 0.950 . S
C1589 C1588 1.327 . S
C1589 C1593 1.429 . S
C1590 C1573 1.574 . S
C1590 H1584 0.949 . S
C1590 C1594 1.368 . S
C1591 C1572 1.429 . S
C1591 C1585 1.429 . S
C1591 C1592 1.523 . S
C1592 C1573 1.368 . S
C1592 C1586 1.368 . S
C1592 C1591 1.523 . S
C1593 C1577 1.429 . S
C1593 C1589 1.429 . S
C1593 C1594 1.523 . S
C1594 C1578 1.368 . S
C1594 C1590 1.368 . S
C1594 C1593 1.523 . S
H1595 C1570 0.950 . S
H1596 C1572 0.950 . S
H1597 C1573 0.949 . S
H1598 C1575 0.950 . S
H1599 C1577 0.950 . S
C1600 C1601 1.349 . S
C1600 C1602 1.327 . S
C1600 H1625 0.950 . S
C1601 C1600 1.349 . S
C1601 C1617 1.349 . S
C1602 C1600 1.327 . S
C1602 C1621 1.429 . S
C1602 H1626 0.950 . S
C1603 C1620 1.574 . S
C1603 C1622 1.368 . S
C1603 H1627 0.949 . S
H1604 C1608 0.949 . S
C1605 C1606 1.349 . S
C1605 C1607 1.327 . S
C1605 H1628 0.950 . S
C1606 C1605 1.349 . S
C1606 C1618 1.349 . S
C1607 C1605 1.327 . S
C1607 C1623 1.429 . S
C1607 H1629 0.950 . S
C1608 H1604 0.949 . S
C1608 C1616 1.574 . S
C1608 C1624 1.368 . S
H1609 C1617 0.950 . S
H1610 C1615 0.950 . S
H1611 C1616 0.949 . S
H1612 C1618 0.950 . S
H1613 C1619 0.950 . S
H1614 C1620 0.949 . S
C1615 H1610 0.950 . S
C1615 C1617 1.327 . S
C1615 C1621 1.429 . S
C1616 C1608 1.574 . S
C1616 H1611 0.949 . S
C1616 C1622 1.368 . S
C1617 C1601 1.349 . S
C1617 H1609 0.950 . S
C1617 C1615 1.327 . S
C1618 C1606 1.349 . S
C1618 H1612 0.950 . S
C1618 C1619 1.327 . S
C1619 H1613 0.950 . S
C1619 C1618 1.327 . S
C1619 C1623 1.429 . S
C1620 C1603 1.574 . S
C1620 H1614 0.949 . S
C1620 C1624 1.368 . S
C1621 C1602 1.429 . S
C1621 C1615 1.429 . S
C1621 C1622 1.523 . S
C1622 C1603 1.368 . S
C1622 C1616 1.368 . S
C1622 C1621 1.523 . S
C1623 C1607 1.429 . S
C1623 C1619 1.429 . S
C1623 C1624 1.523 . S
C1624 C1608 1.368 . S
C1624 C1620 1.368 . S
C1624 C1623 1.523 . S
H1625 C1600 0.950 . S
H1626 C1602 0.950 . S
H1627 C1603 0.949 . S
H1628 C1605 0.950 . S
H1629 C1607 0.950 . S
C1630 C1631 1.349 . S
C1630 C1632 1.327 . S
C1630 H1655 0.950 . S
C1631 C1630 1.349 . S
C1631 C1647 1.349 . S
C1632 C1630 1.327 . S
C1632 C1651 1.429 . S
C1632 H1656 0.950 . S
C1633 C1650 1.574 . S
C1633 C1652 1.368 . S
C1633 H1657 0.949 . S
H1634 C1638 0.949 . S
C1635 C1636 1.349 . S
C1635 C1637 1.327 . S
C1635 H1658 0.950 . S
C1636 C1635 1.349 . S
C1636 C1648 1.349 . S
C1637 C1635 1.327 . S
C1637 C1653 1.429 . S
C1637 H1659 0.950 . S
C1638 H1634 0.949 . S
C1638 C1646 1.574 . S
C1638 C1654 1.368 . S
H1639 C1647 0.950 . S
H1640 C1645 0.950 . S
H1641 C1646 0.949 . S
H1642 C1648 0.950 . S
H1643 C1649 0.950 . S
H1644 C1650 0.949 . S
C1645 H1640 0.950 . S
C1645 C1647 1.327 . S
C1645 C1651 1.429 . S
C1646 C1638 1.574 . S
C1646 H1641 0.949 . S
C1646 C1652 1.368 . S
C1647 C1631 1.349 . S
C1647 H1639 0.950 . S
C1647 C1645 1.327 . S
C1648 C1636 1.349 . S
C1648 H1642 0.950 . S
C1648 C1649 1.327 . S
C1649 H1643 0.950 . S
C1649 C1648 1.327 . S
C1649 C1653 1.429 . S
C1650 C1633 1.574 . S
C1650 H1644 0.949 . S
C1650 C1654 1.368 . S
C1651 C1632 1.429 . S
C1651 C1645 1.429 . S
C1651 C1652 1.523 . S
C1652 C1633 1.368 . S
C1652 C1646 1.368 . S
C1652 C1651 1.523 . S
C1653 C1637 1.429 . S
C1653 C1649 1.429 . S
C1653 C1654 1.523 . S
C1654 C1638 1.368 . S
C1654 C1650 1.368 . S
C1654 C1653 1.523 . S
H1655 C1630 0.950 . S
H1656 C1632 0.950 . S
H1657 C1633 0.949 . S
H1658 C1635 0.950 . S
H1659 C1637 0.950 . S
C1660 C1661 1.349 . S
C1660 C1662 1.327 . S
C1660 H1685 0.950 . S
C1661 C1660 1.349 . S
C1661 C1677 1.349 . S
C1662 C1660 1.327 . S
C1662 C1681 1.429 . S
C1662 H1686 0.950 . S
C1663 C1680 1.574 . S
C1663 C1682 1.368 . S
C1663 H1687 0.949 . S
H1664 C1668 0.949 . S
C1665 C1666 1.349 . S
C1665 C1667 1.327 . S
C1665 H1688 0.950 . S
C1666 C1665 1.349 . S
C1666 C1678 1.349 . S
C1667 C1665 1.327 . S
C1667 C1683 1.429 . S
C1667 H1689 0.950 . S
C1668 H1664 0.949 . S
C1668 C1676 1.574 . S
C1668 C1684 1.368 . S
H1669 C1677 0.950 . S
H1670 C1675 0.950 . S
H1671 C1676 0.949 . S
H1672 C1678 0.950 . S
H1673 C1679 0.950 . S
H1674 C1680 0.949 . S
C1675 H1670 0.950 . S
C1675 C1677 1.327 . S
C1675 C1681 1.429 . S
C1676 C1668 1.574 . S
C1676 H1671 0.949 . S
C1676 C1682 1.368 . S
C1677 C1661 1.349 . S
C1677 H1669 0.950 . S
C1677 C1675 1.327 . S
C1678 C1666 1.349 . S
C1678 H1672 0.950 . S
C1678 C1679 1.327 . S
C1679 H1673 0.950 . S
C1679 C1678 1.327 . S
C1679 C1683 1.429 . S
C1680 C1663 1.574 . S
C1680 H1674 0.949 . S
C1680 C1684 1.368 . S
C1681 C1662 1.429 . S
C1681 C1675 1.429 . S
C1681 C1682 1.523 . S
C1682 C1663 1.368 . S
C1682 C1676 1.368 . S
C1682 C1681 1.523 . S
C1683 C1667 1.429 . S
C1683 C1679 1.429 . S
C1683 C1684 1.523 . S
C1684 C1668 1.368 . S
C1684 C1680 1.368 . S
C1684 C1683 1.523 . S
H1685 C1660 0.950 . S
H1686 C1662 0.950 . S
H1687 C1663 0.949 . S
H1688 C1665 0.950 . S
H1689 C1667 0.950 . S
C1690 C1691 1.349 . S
C1690 C1692 1.327 . S
C1690 H1715 0.950 . S
C1691 C1690 1.349 . S
C1691 C1707 1.349 . S
C1692 C1690 1.327 . S
C1692 C1711 1.429 . S
C1692 H1716 0.950 . S
C1693 C1710 1.574 . S
C1693 C1712 1.368 . S
C1693 H1717 0.949 . S
H1694 C1698 0.949 . S
C1695 C1696 1.349 . S
C1695 C1697 1.327 . S
C1695 H1718 0.950 . S
C1696 C1695 1.349 . S
C1696 C1708 1.349 . S
C1697 C1695 1.327 . S
C1697 C1713 1.429 . S
C1697 H1719 0.950 . S
C1698 H1694 0.949 . S
C1698 C1706 1.574 . S
C1698 C1714 1.368 . S
H1699 C1707 0.950 . S
H1700 C1705 0.950 . S
H1701 C1706 0.949 . S
H1702 C1708 0.950 . S
H1703 C1709 0.950 . S
H1704 C1710 0.949 . S
C1705 H1700 0.950 . S
C1705 C1707 1.327 . S
C1705 C1711 1.429 . S
C1706 C1698 1.574 . S
C1706 H1701 0.949 . S
C1706 C1712 1.368 . S
C1707 C1691 1.349 . S
C1707 H1699 0.950 . S
C1707 C1705 1.327 . S
C1708 C1696 1.349 . S
C1708 H1702 0.950 . S
C1708 C1709 1.327 . S
C1709 H1703 0.950 . S
C1709 C1708 1.327 . S
C1709 C1713 1.429 . S
C1710 C1693 1.574 . S
C1710 H1704 0.949 . S
C1710 C1714 1.368 . S
C1711 C1692 1.429 . S
C1711 C1705 1.429 . S
C1711 C1712 1.523 . S
C1712 C1693 1.368 . S
C1712 C1706 1.368 . S
C1712 C1711 1.523 . S
C1713 C1697 1.429 . S
C1713 C1709 1.429 . S
C1713 C1714 1.523 . S
C1714 C1698 1.368 . S
C1714 C1710 1.368 . S
C1714 C1713 1.523 . S
H1715 C1690 0.950 . S
H1716 C1692 0.950 . S
H1717 C1693 0.949 . S
H1718 C1695 0.950 . S
H1719 C1697 0.950 . S
C1720 C1721 1.349 . S
C1720 C1722 1.327 . S
C1720 H1745 0.950 . S
C1721 C1720 1.349 . S
C1721 C1737 1.349 . S
C1722 C1720 1.327 . S
C1722 C1741 1.429 . S
C1722 H1746 0.950 . S
C1723 C1740 1.574 . S
C1723 C1742 1.368 . S
C1723 H1747 0.949 . S
H1724 C1728 0.949 . S
C1725 C1726 1.349 . S
C1725 C1727 1.327 . S
C1725 H1748 0.950 . S
C1726 C1725 1.349 . S
C1726 C1738 1.349 . S
C1727 C1725 1.327 . S
C1727 C1743 1.429 . S
C1727 H1749 0.950 . S
C1728 H1724 0.949 . S
C1728 C1736 1.574 . S
C1728 C1744 1.368 . S
H1729 C1737 0.950 . S
H1730 C1735 0.950 . S
H1731 C1736 0.949 . S
H1732 C1738 0.950 . S
H1733 C1739 0.950 . S
H1734 C1740 0.949 . S
C1735 H1730 0.950 . S
C1735 C1737 1.327 . S
C1735 C1741 1.429 . S
C1736 C1728 1.574 . S
C1736 H1731 0.949 . S
C1736 C1742 1.368 . S
C1737 C1721 1.349 . S
C1737 H1729 0.950 . S
C1737 C1735 1.327 . S
C1738 C1726 1.349 . S
C1738 H1732 0.950 . S
C1738 C1739 1.327 . S
C1739 H1733 0.950 . S
C1739 C1738 1.327 . S
C1739 C1743 1.429 . S
C1740 C1723 1.574 . S
C1740 H1734 0.949 . S
C1740 C1744 1.368 . S
C1741 C1722 1.429 . S
C1741 C1735 1.429 . S
C1741 C1742 1.523 . S
C1742 C1723 1.368 . S
C1742 C1736 1.368 . S
C1742 C1741 1.523 . S
C1743 C1727 1.429 . S
C1743 C1739 1.429 . S
C1743 C1744 1.523 . S
C1744 C1728 1.368 . S
C1744 C1740 1.368 . S
C1744 C1743 1.523 . S
H1745 C1720 0.950 . S
H1746 C1722 0.950 . S
H1747 C1723 0.949 . S
H1748 C1725 0.950 . S
H1749 C1727 0.950 . S
C1750 C1751 1.349 . S
C1750 C1752 1.327 . S
C1750 H1775 0.950 . S
C1751 C1750 1.349 . S
C1751 C1767 1.349 . S
C1752 C1750 1.327 . S
C1752 C1771 1.429 . S
C1752 H1776 0.950 . S
C1753 C1770 1.574 . S
C1753 C1772 1.368 . S
C1753 H1777 0.949 . S
H1754 C1758 0.949 . S
C1755 C1756 1.349 . S
C1755 C1757 1.327 . S
C1755 H1778 0.950 . S
C1756 C1755 1.349 . S
C1756 C1768 1.349 . S
C1757 C1755 1.327 . S
C1757 C1773 1.429 . S
C1757 H1779 0.950 . S
C1758 H1754 0.949 . S
C1758 C1766 1.574 . S
C1758 C1774 1.368 . S
H1759 C1767 0.950 . S
H1760 C1765 0.950 . S
H1761 C1766 0.949 . S
H1762 C1768 0.950 . S
H1763 C1769 0.950 . S
H1764 C1770 0.949 . S
C1765 H1760 0.950 . S
C1765 C1767 1.327 . S
C1765 C1771 1.429 . S
C1766 C1758 1.574 . S
C1766 H1761 0.949 . S
C1766 C1772 1.368 . S
C1767 C1751 1.349 . S
C1767 H1759 0.950 . S
C1767 C1765 1.327 . S
C1768 C1756 1.349 . S
C1768 H1762 0.950 . S
C1768 C1769 1.327 . S
C1769 H1763 0.950 . S
C1769 C1768 1.327 . S
C1769 C1773 1.429 . S
C1770 C1753 1.574 . S
C1770 H1764 0.949 . S
C1770 C1774 1.368 . S
C1771 C1752 1.429 . S
C1771 C1765 1.429 . S
C1771 C1772 1.523 . S
C1772 C1753 1.368 . S
C1772 C1766 1.368 . S
C1772 C1771 1.523 . S
C1773 C1757 1.429 . S
C1773 C1769 1.429 . S
C1773 C1774 1.523 . S
C1774 C1758 1.368 . S
C1774 C1770 1.368 . S
C1774 C1773 1.523 . S
H1775 C1750 0.950 . S
H1776 C1752 0.950 . S
H1777 C1753 0.949 . S
H1778 C1755 0.950 . S
H1779 C1757 0.950 . S
C1780 C1781 1.349 . S
C1780 C1782 1.327 . S
C1780 H1805 0.950 . S
C1781 C1780 1.349 . S
C1781 C1797 1.349 . S
C1782 C1780 1.327 . S
C1782 C1801 1.429 . S
C1782 H1806 0.950 . S
C1783 C1800 1.574 . S
C1783 C1802 1.368 . S
C1783 H1807 0.949 . S
H1784 C1788 0.949 . S
C1785 C1786 1.349 . S
C1785 C1787 1.327 . S
C1785 H1808 0.950 . S
C1786 C1785 1.349 . S
C1786 C1798 1.349 . S
C1787 C1785 1.327 . S
C1787 C1803 1.429 . S
C1787 H1809 0.950 . S
C1788 H1784 0.949 . S
C1788 C1796 1.574 . S
C1788 C1804 1.368 . S
H1789 C1797 0.950 . S
H1790 C1795 0.950 . S
H1791 C1796 0.949 . S
H1792 C1798 0.950 . S
H1793 C1799 0.950 . S
H1794 C1800 0.949 . S
C1795 H1790 0.950 . S
C1795 C1797 1.327 . S
C1795 C1801 1.429 . S
C1796 C1788 1.574 . S
C1796 H1791 0.949 . S
C1796 C1802 1.368 . S
C1797 C1781 1.349 . S
C1797 H1789 0.950 . S
C1797 C1795 1.327 . S
C1798 C1786 1.349 . S
C1798 H1792 0.950 . S
C1798 C1799 1.327 . S
C1799 H1793 0.950 . S
C1799 C1798 1.327 . S
C1799 C1803 1.429 . S
C1800 C1783 1.574 . S
C1800 H1794 0.949 . S
C1800 C1804 1.368 . S
C1801 C1782 1.429 . S
C1801 C1795 1.429 . S
C1801 C1802 1.523 . S
C1802 C1783 1.368 . S
C1802 C1796 1.368 . S
C1802 C1801 1.523 . S
C1803 C1787 1.429 . S
C1803 C1799 1.429 . S
C1803 C1804 1.523 . S
C1804 C1788 1.368 . S
C1804 C1800 1.368 . S
C1804 C1803 1.523 . S
H1805 C1780 0.950 . S
H1806 C1782 0.950 . S
H1807 C1783 0.949 . S
H1808 C1785 0.950 . S
H1809 C1787 0.950 . S
C1810 C1811 1.349 . S
C1810 C1812 1.327 . S
C1810 H1835 0.950 . S
C1811 C1810 1.349 . S
C1811 C1827 1.349 . S
C1812 C1810 1.327 . S
C1812 C1831 1.429 . S
C1812 H1836 0.950 . S
C1813 C1830 1.574 . S
C1813 C1832 1.368 . S
C1813 H1837 0.949 . S
H1814 C1818 0.949 . S
C1815 C1816 1.349 . S
C1815 C1817 1.327 . S
C1815 H1838 0.950 . S
C1816 C1815 1.349 . S
C1816 C1828 1.349 . S
C1817 C1815 1.327 . S
C1817 C1833 1.429 . S
C1817 H1839 0.950 . S
C1818 H1814 0.949 . S
C1818 C1826 1.574 . S
C1818 C1834 1.368 . S
H1819 C1827 0.950 . S
H1820 C1825 0.950 . S
H1821 C1826 0.949 . S
H1822 C1828 0.950 . S
H1823 C1829 0.950 . S
H1824 C1830 0.949 . S
C1825 H1820 0.950 . S
C1825 C1827 1.327 . S
C1825 C1831 1.429 . S
C1826 C1818 1.574 . S
C1826 H1821 0.949 . S
C1826 C1832 1.368 . S
C1827 C1811 1.349 . S
C1827 H1819 0.950 . S
C1827 C1825 1.327 . S
C1828 C1816 1.349 . S
C1828 H1822 0.950 . S
C1828 C1829 1.327 . S
C1829 H1823 0.950 . S
C1829 C1828 1.327 . S
C1829 C1833 1.429 . S
C1830 C1813 1.574 . S
C1830 H1824 0.949 . S
C1830 C1834 1.368 . S
C1831 C1812 1.429 . S
C1831 C1825 1.429 . S
C1831 C1832 1.523 . S
C1832 C1813 1.368 . S
C1832 C1826 1.368 . S
C1832 C1831 1.523 . S
C1833 C1817 1.429 . S
C1833 C1829 1.429 . S
C1833 C1834 1.523 . S
C1834 C1818 1.368 . S
C1834 C1830 1.368 . S
C1834 C1833 1.523 . S
H1835 C1810 0.950 . S
H1836 C1812 0.950 . S
H1837 C1813 0.949 . S
H1838 C1815 0.950 . S
H1839 C1817 0.950 . S
C1840 C1841 1.349 . S
C1840 C1842 1.327 . S
C1840 H1865 0.950 . S
C1841 C1840 1.349 . S
C1841 C1857 1.349 . S
C1842 C1840 1.327 . S
C1842 C1861 1.429 1_565 S
C1842 H1866 0.950 . S
C1843 C1860 1.574 . S
C1843 C1862 1.368 . S
C1843 H1867 0.949 . S
H1844 C1848 0.949 . S
C1845 C1846 1.349 . S
C1845 C1847 1.327 . S
C1845 H1868 0.950 . S
C1846 C1845 1.349 . S
C1846 C1858 1.349 . S
C1847 C1845 1.327 . S
C1847 C1863 1.429 . S
C1847 H1869 0.950 . S
C1848 H1844 0.949 . S
C1848 C1856 1.574 . S
C1848 C1864 1.368 . S
H1849 C1857 0.950 . S
H1850 C1855 0.950 1_545 S
H1851 C1856 0.949 . S
H1852 C1858 0.950 . S
H1853 C1859 0.950 . S
H1854 C1860 0.949 . S
C1855 H1850 0.950 1_565 S
C1855 C1857 1.327 . S
C1855 C1861 1.429 1_565 S
C1856 C1848 1.574 . S
C1856 H1851 0.949 . S
C1856 C1862 1.368 . S
C1857 C1841 1.349 . S
C1857 H1849 0.950 . S
C1857 C1855 1.327 . S
C1858 C1846 1.349 . S
C1858 H1852 0.950 . S
C1858 C1859 1.327 . S
C1859 H1853 0.950 . S
C1859 C1858 1.327 . S
C1859 C1863 1.429 . S
C1860 C1843 1.574 . S
C1860 H1854 0.949 . S
C1860 C1864 1.368 . S
C1861 C1842 1.429 1_545 S
C1861 C1855 1.429 1_545 S
C1861 C1862 1.523 . S
C1862 C1843 1.368 . S
C1862 C1856 1.368 . S
C1862 C1861 1.523 . S
C1863 C1847 1.429 . S
C1863 C1859 1.429 . S
C1863 C1864 1.523 . S
C1864 C1848 1.368 . S
C1864 C1860 1.368 . S
C1864 C1863 1.523 . S
H1865 C1840 0.950 . S
H1866 C1842 0.950 . S
H1867 C1843 0.949 . S
H1868 C1845 0.950 . S
H1869 C1847 0.950 . S
C1870 C1871 1.349 . S
C1870 C1872 1.327 . S
C1870 H1895 0.950 . S
C1871 C1870 1.349 . S
C1871 C1887 1.349 . S
C1872 C1870 1.327 . S
C1872 C1891 1.429 . S
C1872 H1896 0.950 . S
C1873 C1890 1.574 . S
C1873 C1892 1.368 . S
C1873 H1897 0.949 . S
H1874 C1878 0.949 . S
C1875 C1876 1.349 . S
C1875 C1877 1.327 . S
C1875 H1898 0.950 . S
C1876 C1875 1.349 . S
C1876 C1888 1.349 . S
C1877 C1875 1.327 . S
C1877 C1893 1.429 1_545 S
C1877 H1899 0.950 . S
C1878 H1874 0.949 . S
C1878 C1886 1.574 . S
C1878 C1894 1.368 . S
H1879 C1887 0.950 . S
H1880 C1885 0.950 . S
H1881 C1886 0.949 . S
H1882 C1888 0.950 . S
H1883 C1889 0.950 . S
H1884 C1890 0.949 . S
C1885 H1880 0.950 . S
C1885 C1887 1.327 . S
C1885 C1891 1.429 . S
C1886 C1878 1.574 . S
C1886 H1881 0.949 . S
C1886 C1892 1.368 . S
C1887 C1871 1.349 . S
C1887 H1879 0.950 . S
C1887 C1885 1.327 . S
C1888 C1876 1.349 . S
C1888 H1882 0.950 . S
C1888 C1889 1.327 . S
C1889 H1883 0.950 . S
C1889 C1888 1.327 . S
C1889 C1893 1.429 1_545 S
C1890 C1873 1.574 . S
C1890 H1884 0.949 . S
C1890 C1894 1.368 . S
C1891 C1872 1.429 . S
C1891 C1885 1.429 . S
C1891 C1892 1.523 . S
C1892 C1873 1.368 . S
C1892 C1886 1.368 . S
C1892 C1891 1.523 . S
C1893 C1877 1.429 1_565 S
C1893 C1889 1.429 1_565 S
C1893 C1894 1.523 . S
C1894 C1878 1.368 . S
C1894 C1890 1.368 . S
C1894 C1893 1.523 . S
H1895 C1870 0.950 . S
H1896 C1872 0.950 . S
H1897 C1873 0.949 . S
H1898 C1875 0.950 . S
H1899 C1877 0.950 . S
C1900 C1901 1.349 . S
C1900 C1902 1.327 . S
C1900 H1925 0.950 . S
C1901 C1900 1.349 . S
C1901 C1917 1.349 . S
C1902 C1900 1.327 . S
C1902 C1921 1.429 1_545 S
C1902 H1926 0.950 1_545 S
C1903 C1920 1.574 . S
C1903 C1922 1.368 . S
C1903 H1927 0.949 . S
H1904 C1908 0.949 . S
C1905 C1906 1.349 . S
C1905 C1907 1.327 . S
C1905 H1928 0.950 . S
C1906 C1905 1.349 . S
C1906 C1918 1.349 . S
C1907 C1905 1.327 . S
C1907 C1923 1.429 . S
C1907 H1929 0.950 . S
C1908 H1904 0.949 . S
C1908 C1916 1.574 . S
C1908 C1924 1.368 . S
H1909 C1917 0.950 . S
H1910 C1915 0.950 . S
H1911 C1916 0.949 . S
H1912 C1918 0.950 . S
H1913 C1919 0.950 . S
H1914 C1920 0.949 . S
C1915 H1910 0.950 . S
C1915 C1917 1.327 . S
C1915 C1921 1.429 1_545 S
C1916 C1908 1.574 . S
C1916 H1911 0.949 . S
C1916 C1922 1.368 . S
C1917 C1901 1.349 . S
C1917 H1909 0.950 . S
C1917 C1915 1.327 . S
C1918 C1906 1.349 . S
C1918 H1912 0.950 . S
C1918 C1919 1.327 . S
C1919 H1913 0.950 . S
C1919 C1918 1.327 . S
C1919 C1923 1.429 . S
C1920 C1903 1.574 . S
C1920 H1914 0.949 . S
C1920 C1924 1.368 . S
C1921 C1902 1.429 1_565 S
C1921 C1915 1.429 1_565 S
C1921 C1922 1.523 . S
C1922 C1903 1.368 . S
C1922 C1916 1.368 . S
C1922 C1921 1.523 . S
C1923 C1907 1.429 . S
C1923 C1919 1.429 . S
C1923 C1924 1.523 . S
C1924 C1908 1.368 . S
C1924 C1920 1.368 . S
C1924 C1923 1.523 . S
H1925 C1900 0.950 . S
H1926 C1902 0.950 1_565 S
H1927 C1903 0.949 . S
H1928 C1905 0.950 . S
H1929 C1907 0.950 . S
C1930 C1931 1.349 . S
C1930 C1932 1.327 . S
C1930 H1955 0.950 . S
C1931 C1930 1.349 . S
C1931 C1947 1.349 . S
C1932 C1930 1.327 . S
C1932 C1951 1.429 1_565 S
C1932 H1956 0.950 . S
C1933 C1950 1.574 . S
C1933 C1952 1.368 . S
C1933 H1957 0.949 . S
H1934 C1938 0.949 . S
C1935 C1936 1.349 . S
C1935 C1937 1.327 . S
C1935 H1958 0.950 . S
C1936 C1935 1.349 . S
C1936 C1948 1.349 . S
C1937 C1935 1.327 . S
C1937 C1953 1.429 . S
C1937 H1959 0.950 . S
C1938 H1934 0.949 . S
C1938 C1946 1.574 . S
C1938 C1954 1.368 . S
H1939 C1947 0.950 . S
H1940 C1945 0.940 1_545 S
H1941 C1946 0.949 . S
H1942 C1948 0.950 . S
H1943 C1949 0.950 . S
H1944 C1950 0.949 . S
C1945 H1940 0.940 1_565 S
C1945 C1947 1.327 . S
C1945 C1951 1.429 1_565 S
C1946 C1938 1.574 . S
C1946 H1941 0.949 . S
C1946 C1952 1.368 . S
C1947 C1931 1.349 . S
C1947 H1939 0.950 . S
C1947 C1945 1.327 . S
C1948 C1936 1.349 . S
C1948 H1942 0.950 . S
C1948 C1949 1.327 . S
C1949 H1943 0.950 . S
C1949 C1948 1.327 . S
C1949 C1953 1.429 . S
C1950 C1933 1.574 . S
C1950 H1944 0.949 . S
C1950 C1954 1.368 . S
C1951 C1932 1.429 1_545 S
C1951 C1945 1.429 1_545 S
C1951 C1952 1.523 . S
C1952 C1933 1.368 . S
C1952 C1946 1.368 . S
C1952 C1951 1.523 . S
C1953 C1937 1.429 . S
C1953 C1949 1.429 . S
C1953 C1954 1.523 . S
C1954 C1938 1.368 . S
C1954 C1950 1.368 . S
C1954 C1953 1.523 . S
H1955 C1930 0.950 . S
H1956 C1932 0.950 . S
H1957 C1933 0.949 . S
H1958 C1935 0.950 . S
H1959 C1937 0.950 . S
C1960 C1961 1.349 . S
C1960 C1962 1.327 . S
C1960 H1985 0.950 . S
C1961 C1960 1.349 . S
C1961 C1977 1.349 . S
C1962 C1960 1.327 . S
C1962 C1981 1.429 . S
C1962 H1986 0.950 . S
C1963 C1980 1.574 . S
C1963 C1982 1.368 . S
C1963 H1987 0.949 . S
H1964 C1968 0.949 . S
C1965 C1966 1.349 . S
C1965 C1967 1.327 . S
C1965 H1988 0.950 . S
C1966 C1965 1.349 . S
C1966 C1978 1.349 . S
C1967 C1965 1.327 . S
C1967 C1983 1.429 1_545 S
C1967 H1989 0.950 . S
C1968 H1964 0.949 . S
C1968 C1976 1.574 . S
C1968 C1984 1.368 . S
H1969 C1977 0.950 . S
H1970 C1975 0.950 . S
H1971 C1976 0.949 . S
H1972 C1978 0.950 . S
H1973 C1979 0.950 1_565 S
H1974 C1980 0.949 . S
C1975 H1970 0.950 . S
C1975 C1977 1.327 . S
C1975 C1981 1.429 . S
C1976 C1968 1.574 . S
C1976 H1971 0.949 . S
C1976 C1982 1.368 . S
C1977 C1961 1.349 . S
C1977 H1969 0.950 . S
C1977 C1975 1.327 . S
C1978 C1966 1.349 . S
C1978 H1972 0.950 . S
C1978 C1979 1.327 . S
C1979 H1973 0.950 1_545 S
C1979 C1978 1.327 . S
C1979 C1983 1.429 1_545 S
C1980 C1963 1.574 . S
C1980 H1974 0.949 . S
C1980 C1984 1.368 . S
C1981 C1962 1.429 . S
C1981 C1975 1.429 . S
C1981 C1982 1.523 . S
C1982 C1963 1.368 . S
C1982 C1976 1.368 . S
C1982 C1981 1.523 . S
C1983 C1967 1.429 1_565 S
C1983 C1979 1.429 1_565 S
C1983 C1984 1.523 . S
C1984 C1968 1.368 . S
C1984 C1980 1.368 . S
C1984 C1983 1.523 . S
H1985 C1960 0.950 . S
H1986 C1962 0.950 . S
H1987 C1963 0.949 . S
H1988 C1965 0.950 . S
H1989 C1967 0.950 . S
C1990 C1991 1.349 . S
C1990 C1992 1.327 . S
C1990 H2015 0.950 . S
C1991 C1990 1.349 . S
C1991 C2007 1.349 . S
C1992 C1990 1.327 . S
C1992 C2011 1.429 . S
C1992 H2016 0.950 . S
C1993 C2010 1.574 . S
C1993 C2012 1.368 . S
C1993 H2017 0.949 . S
H1994 C1998 0.949 . S
C1995 C1996 1.349 . S
C1995 C1997 1.327 . S
C1995 H2018 0.950 . S
C1996 C1995 1.349 . S
C1996 C2008 1.349 . S
C1997 C1995 1.327 . S
C1997 C2013 1.429 1_565 S
C1997 H2019 0.950 1_565 S
C1998 H1994 0.949 . S
C1998 C2006 1.574 . S
C1998 C2014 1.368 . S
H1999 C2007 0.950 . S
H2000 C2005 0.950 . S
H2001 C2006 0.949 . S
H2002 C2008 0.950 . S
H2003 C2009 0.950 . S
H2004 C2010 0.949 . S
C2005 H2000 0.950 . S
C2005 C2007 1.327 . S
C2005 C2011 1.429 . S
C2006 C1998 1.574 . S
C2006 H2001 0.949 . S
C2006 C2012 1.368 . S
C2007 C1991 1.349 . S
C2007 H1999 0.950 . S
C2007 C2005 1.327 . S
C2008 C1996 1.349 . S
C2008 H2002 0.950 . S
C2008 C2009 1.327 . S
C2009 H2003 0.950 . S
C2009 C2008 1.327 . S
C2009 C2013 1.429 1_565 S
C2010 C1993 1.574 . S
C2010 H2004 0.949 . S
C2010 C2014 1.368 . S
C2011 C1992 1.429 . S
C2011 C2005 1.429 . S
C2011 C2012 1.523 . S
C2012 C1993 1.368 . S
C2012 C2006 1.368 . S
C2012 C2011 1.523 . S
C2013 C1997 1.429 1_545 S
C2013 C2009 1.429 1_545 S
C2013 C2014 1.523 . S
C2014 C1998 1.368 . S
C2014 C2010 1.368 . S
C2014 C2013 1.523 . S
H2015 C1990 0.950 . S
H2016 C1992 0.950 . S
H2017 C1993 0.949 . S
H2018 C1995 0.950 . S
H2019 C1997 0.950 1_545 S
C2020 C2021 1.349 . S
C2020 C2022 1.327 . S
C2020 H2045 0.950 . S
C2021 C2020 1.349 . S
C2021 C2037 1.349 . S
C2022 C2020 1.327 . S
C2022 C2041 1.429 1_565 S
C2022 H2046 0.950 . S
C2023 C2040 1.574 . S
C2023 C2042 1.368 . S
C2023 H2047 0.949 . S
H2024 C2028 0.949 . S
C2025 C2026 1.349 . S
C2025 C2027 1.327 . S
C2025 H2048 0.950 . S
C2026 C2025 1.349 . S
C2026 C2038 1.349 . S
C2027 C2025 1.327 . S
C2027 C2043 1.429 . S
C2027 H2049 0.950 . S
C2028 H2024 0.949 . S
C2028 C2036 1.574 . S
C2028 C2044 1.368 . S
H2029 C2037 0.950 . S
H2030 C2035 0.950 . S
H2031 C2036 0.949 . S
H2032 C2038 0.950 . S
H2033 C2039 0.950 . S
H2034 C2040 0.949 . S
C2035 H2030 0.950 . S
C2035 C2037 1.327 . S
C2035 C2041 1.429 1_565 S
C2036 C2028 1.574 . S
C2036 H2031 0.949 . S
C2036 C2042 1.368 . S
C2037 C2021 1.349 . S
C2037 H2029 0.950 . S
C2037 C2035 1.327 . S
C2038 C2026 1.349 . S
C2038 H2032 0.950 . S
C2038 C2039 1.327 . S
C2039 H2033 0.950 . S
C2039 C2038 1.327 . S
C2039 C2043 1.429 . S
C2040 C2023 1.574 . S
C2040 H2034 0.949 . S
C2040 C2044 1.368 . S
C2041 C2022 1.429 1_545 S
C2041 C2035 1.429 1_545 S
C2041 C2042 1.523 . S
C2042 C2023 1.368 . S
C2042 C2036 1.368 . S
C2042 C2041 1.523 . S
C2043 C2027 1.429 . S
C2043 C2039 1.429 . S
C2043 C2044 1.523 . S
C2044 C2028 1.368 . S
C2044 C2040 1.368 . S
C2044 C2043 1.523 . S
H2045 C2020 0.950 . S
H2046 C2022 0.950 . S
H2047 C2023 0.949 . S
H2048 C2025 0.950 . S
H2049 C2027 0.950 . S
C2050 C2051 1.349 . S
C2050 C2052 1.327 . S
C2050 H2075 0.950 . S
C2051 C2050 1.349 . S
C2051 C2067 1.349 . S
C2052 C2050 1.327 . S
C2052 C2071 1.429 . S
C2052 H2076 0.950 . S
C2053 C2070 1.574 . S
C2053 C2072 1.368 . S
C2053 H2077 0.949 . S
H2054 C2058 0.949 . S
C2055 C2056 1.349 . S
C2055 C2057 1.327 . S
C2055 H2078 0.950 . S
C2056 C2055 1.349 . S
C2056 C2068 1.349 . S
C2057 C2055 1.327 . S
C2057 C2073 1.429 1_545 S
C2057 H2079 0.950 . S
C2058 H2054 0.949 . S
C2058 C2066 1.574 . S
C2058 C2074 1.368 . S
H2059 C2067 0.950 . S
H2060 C2065 0.950 . S
H2061 C2066 0.949 . S
H2062 C2068 0.950 . S
H2063 C2069 0.950 1_565 S
H2064 C2070 0.949 . S
C2065 H2060 0.950 . S
C2065 C2067 1.327 . S
C2065 C2071 1.429 . S
C2066 C2058 1.574 . S
C2066 H2061 0.949 . S
C2066 C2072 1.368 . S
C2067 C2051 1.349 . S
C2067 H2059 0.950 . S
C2067 C2065 1.327 . S
C2068 C2056 1.349 . S
C2068 H2062 0.950 . S
C2068 C2069 1.327 . S
C2069 H2063 0.950 1_545 S
C2069 C2068 1.327 . S
C2069 C2073 1.429 1_545 S
C2070 C2053 1.574 . S
C2070 H2064 0.949 . S
C2070 C2074 1.368 . S
C2071 C2052 1.429 . S
C2071 C2065 1.429 . S
C2071 C2072 1.523 . S
C2072 C2053 1.368 . S
C2072 C2066 1.368 . S
C2072 C2071 1.523 . S
C2073 C2057 1.429 1_565 S
C2073 C2069 1.429 1_565 S
C2073 C2074 1.523 . S
C2074 C2058 1.368 . S
C2074 C2070 1.368 . S
C2074 C2073 1.523 . S
H2075 C2050 0.950 . S
H2076 C2052 0.950 . S
H2077 C2053 0.949 . S
H2078 C2055 0.950 . S
H2079 C2057 0.950 . S
C641 C19 1.539 . S
C646 C379 1.539 . S
C671 C59 1.539 . S
C676 C339 1.539 . S
C701 C459 1.539 . S
C706 C99 1.539 . S
C731 C139 1.539 . S
C736 C419 1.539 . S
C761 C530 1.539 . S
C766 C170 1.539 . S
C791 C490 1.539 . S
C796 C210 1.539 . S
C821 C610 1.539 . S
C826 C250 1.539 . S
C851 C290 1.539 . S
C856 C570 1.539 . S
C881 C98 1.643 . S
C886 C18 1.643 . S
C911 C138 1.644 . S
C916 C58 1.644 . S
C941 C249 1.643 . S
C946 C169 1.643 . S
C971 C209 1.644 . S
C976 C289 1.644 . S
C1001 C418 1.643 . S
C1006 C338 1.643 . S
C1031 C458 1.644 . S
C1036 C378 1.644 . S
C1061 C489 1.643 . S
C1066 C569 1.643 . S
C1091 C529 1.644 . S
C1096 C609 1.644 . S
C1121 C218 1.523 . S
C1126 C9 1.523 . S
C1151 C178 1.523 . S
C1156 C49 1.523 . S
C1181 C89 1.523 . S
C1186 C298 1.523 . S
C1211 C258 1.523 . S
C1216 C129 1.523 . S
C1241 C329 1.523 . S
C1246 C538 1.523 . S
C1271 C498 1.523 . S
C1276 C369 1.523 . S
C1301 C409 1.523 . S
C1306 C618 1.523 . S
C1331 C578 1.523 . S
C1336 C449 1.523 . S
C1361 C50 1.622 . S
C1366 C10 1.622 . S
C1391 C130 1.622 . S
C1396 C90 1.622 . S
C1421 C219 1.622 . S
C1426 C179 1.622 . S
C1451 C259 1.622 . S
C1456 C299 1.622 . S
C1481 C370 1.622 . S
C1486 C330 1.622 . S
C1511 C450 1.622 . S
C1516 C410 1.622 . S
C1541 C499 1.622 . S
C1546 C539 1.622 . S
C1571 C579 1.622 . S
C1576 C619 1.622 . S
C1601 C6 1.740 . S
C1606 C15 1.740 . S
C1631 C46 1.740 . S
C1636 C55 1.740 . S
C1661 C86 1.740 . S
C1666 C95 1.740 . S
C1691 C135 1.740 . S
C1696 C126 1.740 . S
C1721 C175 1.740 . S
C1726 C166 1.740 . S
C1751 C206 1.740 . S
C1756 C215 1.740 . S
C1781 C255 1.740 . S
C1786 C246 1.740 . S
C1811 C295 1.740 . S
C1816 C286 1.740 . S
C1841 C335 1.740 . S
C1846 C326 1.740 . S
C1871 C366 1.740 . S
C1876 C375 1.740 . S
C1901 C415 1.740 . S
C1906 C406 1.740 . S
C1931 C455 1.740 . S
C1936 C446 1.740 . S
C1961 C495 1.740 . S
C1966 C486 1.740 . S
C1991 C535 1.740 . S
C1996 C526 1.740 . S
C2021 C566 1.740 . S
C2026 C575 1.740 . S
C2051 C615 1.740 . S
C2056 C606 1.740 . S
