# Generated by pormake.
# Topology ulg, (4)-cn, num edge types: 1
# Building blocks:
#     Node 0, Type 0, BuildingBlock: KUFVIS_clean_sbu_0, # of connection points: 4
#     Node 1, Type 0, BuildingBlock: KUFVIS_clean_sbu_0, # of connection points: 4
#     Node 2, Type 0, BuildingBlock: KUFVIS_clean_sbu_0, # of connection points: 4
#     Node 3, Type 0, BuildingBlock: KUFVIS_clean_sbu_0, # of connection points: 4
#     Node 4, Type 0, BuildingBlock: KUFVIS_clean_sbu_0, # of connection points: 4
#     Node 5, Type 0, BuildingBlock: KUFVIS_clean_sbu_0, # of connection points: 4
#     Node 6, Type 0, BuildingBlock: KUFVIS_clean_sbu_0, # of connection points: 4
#     Node 7, Type 0, BuildingBlock: KUFVIS_clean_sbu_0, # of connection points: 4
#     Node 8, Type 0, BuildingBlock: KUFVIS_clean_sbu_0, # of connection points: 4
#     Node 9, Type 0, BuildingBlock: KUFVIS_clean_sbu_0, # of connection points: 4
#     Node 10, Type 0, BuildingBlock: KUFVIS_clean_sbu_0, # of connection points: 4
#     Node 11, Type 0, BuildingBlock: KUFVIS_clean_sbu_0, # of connection points: 4
#     Node 12, Type 0, BuildingBlock: KUFVIS_clean_sbu_0, # of connection points: 4
#     Node 13, Type 0, BuildingBlock: KUFVIS_clean_sbu_0, # of connection points: 4
#     Node 14, Type 0, BuildingBlock: KUFVIS_clean_sbu_0, # of connection points: 4
#     Node 15, Type 0, BuildingBlock: KUFVIS_clean_sbu_0, # of connection points: 4
#     Node 16, Type 0, BuildingBlock: KUFVIS_clean_sbu_0, # of connection points: 4
#     Node 17, Type 0, BuildingBlock: KUFVIS_clean_sbu_0, # of connection points: 4
#     Node 18, Type 0, BuildingBlock: KUFVIS_clean_sbu_0, # of connection points: 4
#     Node 19, Type 0, BuildingBlock: KUFVIS_clean_sbu_0, # of connection points: 4
#     Node 20, Type 0, BuildingBlock: KUFVIS_clean_sbu_0, # of connection points: 4
#     Node 21, Type 0, BuildingBlock: KUFVIS_clean_sbu_0, # of connection points: 4
#     Node 22, Type 0, BuildingBlock: KUFVIS_clean_sbu_0, # of connection points: 4
#     Node 23, Type 0, BuildingBlock: KUFVIS_clean_sbu_0, # of connection points: 4
#     Node 24, Type 0, BuildingBlock: KUFVIS_clean_sbu_0, # of connection points: 4
#     Node 25, Type 0, BuildingBlock: KUFVIS_clean_sbu_0, # of connection points: 4
#     Node 26, Type 0, BuildingBlock: KUFVIS_clean_sbu_0, # of connection points: 4
#     Node 27, Type 0, BuildingBlock: KUFVIS_clean_sbu_0, # of connection points: 4
#     Node 28, Type 0, BuildingBlock: KUFVIS_clean_sbu_0, # of connection points: 4
#     Node 29, Type 0, BuildingBlock: KUFVIS_clean_sbu_0, # of connection points: 4
#     Node 30, Type 0, BuildingBlock: KUFVIS_clean_sbu_0, # of connection points: 4
#     Node 31, Type 0, BuildingBlock: KUFVIS_clean_sbu_0, # of connection points: 4
#     Node 32, Type 0, BuildingBlock: KUFVIS_clean_sbu_0, # of connection points: 4
#     Node 33, Type 0, BuildingBlock: KUFVIS_clean_sbu_0, # of connection points: 4
#     Node 34, Type 0, BuildingBlock: KUFVIS_clean_sbu_0, # of connection points: 4
#     Node 35, Type 0, BuildingBlock: KUFVIS_clean_sbu_0, # of connection points: 4
#     Node 36, Type 0, BuildingBlock: KUFVIS_clean_sbu_0, # of connection points: 4
#     Node 37, Type 0, BuildingBlock: KUFVIS_clean_sbu_0, # of connection points: 4
#     Node 38, Type 0, BuildingBlock: KUFVIS_clean_sbu_0, # of connection points: 4
#     Node 39, Type 0, BuildingBlock: KUFVIS_clean_sbu_0, # of connection points: 4
#     Node 40, Type 0, BuildingBlock: KUFVIS_clean_sbu_0, # of connection points: 4
#     Node 41, Type 0, BuildingBlock: KUFVIS_clean_sbu_0, # of connection points: 4
#     Node 42, Type 0, BuildingBlock: KUFVIS_clean_sbu_0, # of connection points: 4
#     Node 43, Type 0, BuildingBlock: KUFVIS_clean_sbu_0, # of connection points: 4
#     Node 44, Type 0, BuildingBlock: KUFVIS_clean_sbu_0, # of connection points: 4
#     Node 45, Type 0, BuildingBlock: KUFVIS_clean_sbu_0, # of connection points: 4
#     Node 46, Type 0, BuildingBlock: KUFVIS_clean_sbu_0, # of connection points: 4
#     Node 47, Type 0, BuildingBlock: KUFVIS_clean_sbu_0, # of connection points: 4
#     Node 48, Type 0, BuildingBlock: KUFVIS_clean_sbu_0, # of connection points: 4
#     Node 49, Type 0, BuildingBlock: KUFVIS_clean_sbu_0, # of connection points: 4
#     Node 50, Type 0, BuildingBlock: KUFVIS_clean_sbu_0, # of connection points: 4
#     Node 51, Type 0, BuildingBlock: KUFVIS_clean_sbu_0, # of connection points: 4
#     Node 52, Type 0, BuildingBlock: KUFVIS_clean_sbu_0, # of connection points: 4
#     Node 53, Type 0, BuildingBlock: KUFVIS_clean_sbu_0, # of connection points: 4
#     Node 54, Type 0, BuildingBlock: KUFVIS_clean_sbu_0, # of connection points: 4
#     Node 55, Type 0, BuildingBlock: KUFVIS_clean_sbu_0, # of connection points: 4
#     Node 56, Type 0, BuildingBlock: KUFVIS_clean_sbu_0, # of connection points: 4
#     Node 57, Type 0, BuildingBlock: KUFVIS_clean_sbu_0, # of connection points: 4
#     Node 58, Type 0, BuildingBlock: KUFVIS_clean_sbu_0, # of connection points: 4
#     Node 59, Type 0, BuildingBlock: KUFVIS_clean_sbu_0, # of connection points: 4
#     Node 60, Type 0, BuildingBlock: KUFVIS_clean_sbu_0, # of connection points: 4
#     Node 61, Type 0, BuildingBlock: KUFVIS_clean_sbu_0, # of connection points: 4
#     Node 62, Type 0, BuildingBlock: KUFVIS_clean_sbu_0, # of connection points: 4
#     Node 63, Type 0, BuildingBlock: KUFVIS_clean_sbu_0, # of connection points: 4
#     Node 64, Type 0, BuildingBlock: KUFVIS_clean_sbu_0, # of connection points: 4
#     Node 65, Type 0, BuildingBlock: KUFVIS_clean_sbu_0, # of connection points: 4
#     Node 66, Type 0, BuildingBlock: KUFVIS_clean_sbu_0, # of connection points: 4
#     Node 67, Type 0, BuildingBlock: KUFVIS_clean_sbu_0, # of connection points: 4
#     Node 68, Type 0, BuildingBlock: KUFVIS_clean_sbu_0, # of connection points: 4
#     Node 69, Type 0, BuildingBlock: KUFVIS_clean_sbu_0, # of connection points: 4
#     Node 70, Type 0, BuildingBlock: KUFVIS_clean_sbu_0, # of connection points: 4
#     Node 71, Type 0, BuildingBlock: KUFVIS_clean_sbu_0, # of connection points: 4
#     Node 72, Type 0, BuildingBlock: KUFVIS_clean_sbu_0, # of connection points: 4
#     Node 73, Type 0, BuildingBlock: KUFVIS_clean_sbu_0, # of connection points: 4
#     Node 74, Type 0, BuildingBlock: KUFVIS_clean_sbu_0, # of connection points: 4
#     Node 75, Type 0, BuildingBlock: KUFVIS_clean_sbu_0, # of connection points: 4
#     Node 76, Type 0, BuildingBlock: KUFVIS_clean_sbu_0, # of connection points: 4
#     Node 77, Type 0, BuildingBlock: KUFVIS_clean_sbu_0, # of connection points: 4
#     Node 78, Type 0, BuildingBlock: KUFVIS_clean_sbu_0, # of connection points: 4
#     Node 79, Type 0, BuildingBlock: KUFVIS_clean_sbu_0, # of connection points: 4
#     Node 80, Type 0, BuildingBlock: KUFVIS_clean_sbu_0, # of connection points: 4
#     Node 81, Type 0, BuildingBlock: KUFVIS_clean_sbu_0, # of connection points: 4
#     Node 82, Type 0, BuildingBlock: KUFVIS_clean_sbu_0, # of connection points: 4
#     Node 83, Type 0, BuildingBlock: KUFVIS_clean_sbu_0, # of connection points: 4
#     Node 84, Type 0, BuildingBlock: KUFVIS_clean_sbu_0, # of connection points: 4
#     Node 85, Type 0, BuildingBlock: KUFVIS_clean_sbu_0, # of connection points: 4
#     Node 86, Type 0, BuildingBlock: KUFVIS_clean_sbu_0, # of connection points: 4
#     Node 87, Type 0, BuildingBlock: KUFVIS_clean_sbu_0, # of connection points: 4
#     Node 88, Type 0, BuildingBlock: KUFVIS_clean_sbu_0, # of connection points: 4
#     Node 89, Type 0, BuildingBlock: KUFVIS_clean_sbu_0, # of connection points: 4
#     Node 90, Type 0, BuildingBlock: KUFVIS_clean_sbu_0, # of connection points: 4
#     Node 91, Type 0, BuildingBlock: KUFVIS_clean_sbu_0, # of connection points: 4
#     Node 92, Type 0, BuildingBlock: KUFVIS_clean_sbu_0, # of connection points: 4
#     Node 93, Type 0, BuildingBlock: KUFVIS_clean_sbu_0, # of connection points: 4
#     Node 94, Type 0, BuildingBlock: KUFVIS_clean_sbu_0, # of connection points: 4
#     Node 95, Type 0, BuildingBlock: KUFVIS_clean_sbu_0, # of connection points: 4
#     Edge 96, Type (0, 0), BuildingBlock: OJICUG_clean_linker_0, # of connection points: 2
#     Edge 97, Type (0, 0), BuildingBlock: OJICUG_clean_linker_0, # of connection points: 2
#     Edge 98, Type (0, 0), BuildingBlock: OJICUG_clean_linker_0, # of connection points: 2
#     Edge 99, Type (0, 0), BuildingBlock: OJICUG_clean_linker_0, # of connection points: 2
#     Edge 100, Type (0, 0), BuildingBlock: OJICUG_clean_linker_0, # of connection points: 2
#     Edge 101, Type (0, 0), BuildingBlock: OJICUG_clean_linker_0, # of connection points: 2
#     Edge 102, Type (0, 0), BuildingBlock: OJICUG_clean_linker_0, # of connection points: 2
#     Edge 103, Type (0, 0), BuildingBlock: OJICUG_clean_linker_0, # of connection points: 2
#     Edge 104, Type (0, 0), BuildingBlock: OJICUG_clean_linker_0, # of connection points: 2
#     Edge 105, Type (0, 0), BuildingBlock: OJICUG_clean_linker_0, # of connection points: 2
#     Edge 106, Type (0, 0), BuildingBlock: OJICUG_clean_linker_0, # of connection points: 2
#     Edge 107, Type (0, 0), BuildingBlock: OJICUG_clean_linker_0, # of connection points: 2
#     Edge 108, Type (0, 0), BuildingBlock: OJICUG_clean_linker_0, # of connection points: 2
#     Edge 109, Type (0, 0), BuildingBlock: OJICUG_clean_linker_0, # of connection points: 2
#     Edge 110, Type (0, 0), BuildingBlock: OJICUG_clean_linker_0, # of connection points: 2
#     Edge 111, Type (0, 0), BuildingBlock: OJICUG_clean_linker_0, # of connection points: 2
#     Edge 112, Type (0, 0), BuildingBlock: OJICUG_clean_linker_0, # of connection points: 2
#     Edge 113, Type (0, 0), BuildingBlock: OJICUG_clean_linker_0, # of connection points: 2
#     Edge 114, Type (0, 0), BuildingBlock: OJICUG_clean_linker_0, # of connection points: 2
#     Edge 115, Type (0, 0), BuildingBlock: OJICUG_clean_linker_0, # of connection points: 2
#     Edge 116, Type (0, 0), BuildingBlock: OJICUG_clean_linker_0, # of connection points: 2
#     Edge 117, Type (0, 0), BuildingBlock: OJICUG_clean_linker_0, # of connection points: 2
#     Edge 118, Type (0, 0), BuildingBlock: OJICUG_clean_linker_0, # of connection points: 2
#     Edge 119, Type (0, 0), BuildingBlock: OJICUG_clean_linker_0, # of connection points: 2
#     Edge 120, Type (0, 0), BuildingBlock: OJICUG_clean_linker_0, # of connection points: 2
#     Edge 121, Type (0, 0), BuildingBlock: OJICUG_clean_linker_0, # of connection points: 2
#     Edge 122, Type (0, 0), BuildingBlock: OJICUG_clean_linker_0, # of connection points: 2
#     Edge 123, Type (0, 0), BuildingBlock: OJICUG_clean_linker_0, # of connection points: 2
#     Edge 124, Type (0, 0), BuildingBlock: OJICUG_clean_linker_0, # of connection points: 2
#     Edge 125, Type (0, 0), BuildingBlock: OJICUG_clean_linker_0, # of connection points: 2
#     Edge 126, Type (0, 0), BuildingBlock: OJICUG_clean_linker_0, # of connection points: 2
#     Edge 127, Type (0, 0), BuildingBlock: OJICUG_clean_linker_0, # of connection points: 2
#     Edge 128, Type (0, 0), BuildingBlock: OJICUG_clean_linker_0, # of connection points: 2
#     Edge 129, Type (0, 0), BuildingBlock: OJICUG_clean_linker_0, # of connection points: 2
#     Edge 130, Type (0, 0), BuildingBlock: OJICUG_clean_linker_0, # of connection points: 2
#     Edge 131, Type (0, 0), BuildingBlock: OJICUG_clean_linker_0, # of connection points: 2
#     Edge 132, Type (0, 0), BuildingBlock: OJICUG_clean_linker_0, # of connection points: 2
#     Edge 133, Type (0, 0), BuildingBlock: OJICUG_clean_linker_0, # of connection points: 2
#     Edge 134, Type (0, 0), BuildingBlock: OJICUG_clean_linker_0, # of connection points: 2
#     Edge 135, Type (0, 0), BuildingBlock: OJICUG_clean_linker_0, # of connection points: 2
#     Edge 136, Type (0, 0), BuildingBlock: OJICUG_clean_linker_0, # of connection points: 2
#     Edge 137, Type (0, 0), BuildingBlock: OJICUG_clean_linker_0, # of connection points: 2
#     Edge 138, Type (0, 0), BuildingBlock: OJICUG_clean_linker_0, # of connection points: 2
#     Edge 139, Type (0, 0), BuildingBlock: OJICUG_clean_linker_0, # of connection points: 2
#     Edge 140, Type (0, 0), BuildingBlock: OJICUG_clean_linker_0, # of connection points: 2
#     Edge 141, Type (0, 0), BuildingBlock: OJICUG_clean_linker_0, # of connection points: 2
#     Edge 142, Type (0, 0), BuildingBlock: OJICUG_clean_linker_0, # of connection points: 2
#     Edge 143, Type (0, 0), BuildingBlock: OJICUG_clean_linker_0, # of connection points: 2
#     Edge 144, Type (0, 0), BuildingBlock: OJICUG_clean_linker_0, # of connection points: 2
#     Edge 145, Type (0, 0), BuildingBlock: OJICUG_clean_linker_0, # of connection points: 2
#     Edge 146, Type (0, 0), BuildingBlock: OJICUG_clean_linker_0, # of connection points: 2
#     Edge 147, Type (0, 0), BuildingBlock: OJICUG_clean_linker_0, # of connection points: 2
#     Edge 148, Type (0, 0), BuildingBlock: OJICUG_clean_linker_0, # of connection points: 2
#     Edge 149, Type (0, 0), BuildingBlock: OJICUG_clean_linker_0, # of connection points: 2
#     Edge 150, Type (0, 0), BuildingBlock: OJICUG_clean_linker_0, # of connection points: 2
#     Edge 151, Type (0, 0), BuildingBlock: OJICUG_clean_linker_0, # of connection points: 2
#     Edge 152, Type (0, 0), BuildingBlock: OJICUG_clean_linker_0, # of connection points: 2
#     Edge 153, Type (0, 0), BuildingBlock: OJICUG_clean_linker_0, # of connection points: 2
#     Edge 154, Type (0, 0), BuildingBlock: OJICUG_clean_linker_0, # of connection points: 2
#     Edge 155, Type (0, 0), BuildingBlock: OJICUG_clean_linker_0, # of connection points: 2
#     Edge 156, Type (0, 0), BuildingBlock: OJICUG_clean_linker_0, # of connection points: 2
#     Edge 157, Type (0, 0), BuildingBlock: OJICUG_clean_linker_0, # of connection points: 2
#     Edge 158, Type (0, 0), BuildingBlock: OJICUG_clean_linker_0, # of connection points: 2
#     Edge 159, Type (0, 0), BuildingBlock: OJICUG_clean_linker_0, # of connection points: 2
#     Edge 160, Type (0, 0), BuildingBlock: OJICUG_clean_linker_0, # of connection points: 2
#     Edge 161, Type (0, 0), BuildingBlock: OJICUG_clean_linker_0, # of connection points: 2
#     Edge 162, Type (0, 0), BuildingBlock: OJICUG_clean_linker_0, # of connection points: 2
#     Edge 163, Type (0, 0), BuildingBlock: OJICUG_clean_linker_0, # of connection points: 2
#     Edge 164, Type (0, 0), BuildingBlock: OJICUG_clean_linker_0, # of connection points: 2
#     Edge 165, Type (0, 0), BuildingBlock: OJICUG_clean_linker_0, # of connection points: 2
#     Edge 166, Type (0, 0), BuildingBlock: OJICUG_clean_linker_0, # of connection points: 2
#     Edge 167, Type (0, 0), BuildingBlock: OJICUG_clean_linker_0, # of connection points: 2
#     Edge 168, Type (0, 0), BuildingBlock: OJICUG_clean_linker_0, # of connection points: 2
#     Edge 169, Type (0, 0), BuildingBlock: OJICUG_clean_linker_0, # of connection points: 2
#     Edge 170, Type (0, 0), BuildingBlock: OJICUG_clean_linker_0, # of connection points: 2
#     Edge 171, Type (0, 0), BuildingBlock: OJICUG_clean_linker_0, # of connection points: 2
#     Edge 172, Type (0, 0), BuildingBlock: OJICUG_clean_linker_0, # of connection points: 2
#     Edge 173, Type (0, 0), BuildingBlock: OJICUG_clean_linker_0, # of connection points: 2
#     Edge 174, Type (0, 0), BuildingBlock: OJICUG_clean_linker_0, # of connection points: 2
#     Edge 175, Type (0, 0), BuildingBlock: OJICUG_clean_linker_0, # of connection points: 2
#     Edge 176, Type (0, 0), BuildingBlock: OJICUG_clean_linker_0, # of connection points: 2
#     Edge 177, Type (0, 0), BuildingBlock: OJICUG_clean_linker_0, # of connection points: 2
#     Edge 178, Type (0, 0), BuildingBlock: OJICUG_clean_linker_0, # of connection points: 2
#     Edge 179, Type (0, 0), BuildingBlock: OJICUG_clean_linker_0, # of connection points: 2
#     Edge 180, Type (0, 0), BuildingBlock: OJICUG_clean_linker_0, # of connection points: 2
#     Edge 181, Type (0, 0), BuildingBlock: OJICUG_clean_linker_0, # of connection points: 2
#     Edge 182, Type (0, 0), BuildingBlock: OJICUG_clean_linker_0, # of connection points: 2
#     Edge 183, Type (0, 0), BuildingBlock: OJICUG_clean_linker_0, # of connection points: 2
#     Edge 184, Type (0, 0), BuildingBlock: OJICUG_clean_linker_0, # of connection points: 2
#     Edge 185, Type (0, 0), BuildingBlock: OJICUG_clean_linker_0, # of connection points: 2
#     Edge 186, Type (0, 0), BuildingBlock: OJICUG_clean_linker_0, # of connection points: 2
#     Edge 187, Type (0, 0), BuildingBlock: OJICUG_clean_linker_0, # of connection points: 2
#     Edge 188, Type (0, 0), BuildingBlock: OJICUG_clean_linker_0, # of connection points: 2
#     Edge 189, Type (0, 0), BuildingBlock: OJICUG_clean_linker_0, # of connection points: 2
#     Edge 190, Type (0, 0), BuildingBlock: OJICUG_clean_linker_0, # of connection points: 2
#     Edge 191, Type (0, 0), BuildingBlock: OJICUG_clean_linker_0, # of connection points: 2
#     Edge 192, Type (0, 0), BuildingBlock: OJICUG_clean_linker_0, # of connection points: 2
#     Edge 193, Type (0, 0), BuildingBlock: OJICUG_clean_linker_0, # of connection points: 2
#     Edge 194, Type (0, 0), BuildingBlock: OJICUG_clean_linker_0, # of connection points: 2
#     Edge 195, Type (0, 0), BuildingBlock: OJICUG_clean_linker_0, # of connection points: 2
#     Edge 196, Type (0, 0), BuildingBlock: OJICUG_clean_linker_0, # of connection points: 2
#     Edge 197, Type (0, 0), BuildingBlock: OJICUG_clean_linker_0, # of connection points: 2
#     Edge 198, Type (0, 0), BuildingBlock: OJICUG_clean_linker_0, # of connection points: 2
#     Edge 199, Type (0, 0), BuildingBlock: OJICUG_clean_linker_0, # of connection points: 2
#     Edge 200, Type (0, 0), BuildingBlock: OJICUG_clean_linker_0, # of connection points: 2
#     Edge 201, Type (0, 0), BuildingBlock: OJICUG_clean_linker_0, # of connection points: 2
#     Edge 202, Type (0, 0), BuildingBlock: OJICUG_clean_linker_0, # of connection points: 2
#     Edge 203, Type (0, 0), BuildingBlock: OJICUG_clean_linker_0, # of connection points: 2
#     Edge 204, Type (0, 0), BuildingBlock: OJICUG_clean_linker_0, # of connection points: 2
#     Edge 205, Type (0, 0), BuildingBlock: OJICUG_clean_linker_0, # of connection points: 2
#     Edge 206, Type (0, 0), BuildingBlock: OJICUG_clean_linker_0, # of connection points: 2
#     Edge 207, Type (0, 0), BuildingBlock: OJICUG_clean_linker_0, # of connection points: 2
#     Edge 208, Type (0, 0), BuildingBlock: OJICUG_clean_linker_0, # of connection points: 2
#     Edge 209, Type (0, 0), BuildingBlock: OJICUG_clean_linker_0, # of connection points: 2
#     Edge 210, Type (0, 0), BuildingBlock: OJICUG_clean_linker_0, # of connection points: 2
#     Edge 211, Type (0, 0), BuildingBlock: OJICUG_clean_linker_0, # of connection points: 2
#     Edge 212, Type (0, 0), BuildingBlock: OJICUG_clean_linker_0, # of connection points: 2
#     Edge 213, Type (0, 0), BuildingBlock: OJICUG_clean_linker_0, # of connection points: 2
#     Edge 214, Type (0, 0), BuildingBlock: OJICUG_clean_linker_0, # of connection points: 2
#     Edge 215, Type (0, 0), BuildingBlock: OJICUG_clean_linker_0, # of connection points: 2
#     Edge 216, Type (0, 0), BuildingBlock: OJICUG_clean_linker_0, # of connection points: 2
#     Edge 217, Type (0, 0), BuildingBlock: OJICUG_clean_linker_0, # of connection points: 2
#     Edge 218, Type (0, 0), BuildingBlock: OJICUG_clean_linker_0, # of connection points: 2
#     Edge 219, Type (0, 0), BuildingBlock: OJICUG_clean_linker_0, # of connection points: 2
#     Edge 220, Type (0, 0), BuildingBlock: OJICUG_clean_linker_0, # of connection points: 2
#     Edge 221, Type (0, 0), BuildingBlock: OJICUG_clean_linker_0, # of connection points: 2
#     Edge 222, Type (0, 0), BuildingBlock: OJICUG_clean_linker_0, # of connection points: 2
#     Edge 223, Type (0, 0), BuildingBlock: OJICUG_clean_linker_0, # of connection points: 2
#     Edge 224, Type (0, 0), BuildingBlock: OJICUG_clean_linker_0, # of connection points: 2
#     Edge 225, Type (0, 0), BuildingBlock: OJICUG_clean_linker_0, # of connection points: 2
#     Edge 226, Type (0, 0), BuildingBlock: OJICUG_clean_linker_0, # of connection points: 2
#     Edge 227, Type (0, 0), BuildingBlock: OJICUG_clean_linker_0, # of connection points: 2
#     Edge 228, Type (0, 0), BuildingBlock: OJICUG_clean_linker_0, # of connection points: 2
#     Edge 229, Type (0, 0), BuildingBlock: OJICUG_clean_linker_0, # of connection points: 2
#     Edge 230, Type (0, 0), BuildingBlock: OJICUG_clean_linker_0, # of connection points: 2
#     Edge 231, Type (0, 0), BuildingBlock: OJICUG_clean_linker_0, # of connection points: 2
#     Edge 232, Type (0, 0), BuildingBlock: OJICUG_clean_linker_0, # of connection points: 2
#     Edge 233, Type (0, 0), BuildingBlock: OJICUG_clean_linker_0, # of connection points: 2
#     Edge 234, Type (0, 0), BuildingBlock: OJICUG_clean_linker_0, # of connection points: 2
#     Edge 235, Type (0, 0), BuildingBlock: OJICUG_clean_linker_0, # of connection points: 2
#     Edge 236, Type (0, 0), BuildingBlock: OJICUG_clean_linker_0, # of connection points: 2
#     Edge 237, Type (0, 0), BuildingBlock: OJICUG_clean_linker_0, # of connection points: 2
#     Edge 238, Type (0, 0), BuildingBlock: OJICUG_clean_linker_0, # of connection points: 2
#     Edge 239, Type (0, 0), BuildingBlock: OJICUG_clean_linker_0, # of connection points: 2
#     Edge 240, Type (0, 0), BuildingBlock: OJICUG_clean_linker_0, # of connection points: 2
#     Edge 241, Type (0, 0), BuildingBlock: OJICUG_clean_linker_0, # of connection points: 2
#     Edge 242, Type (0, 0), BuildingBlock: OJICUG_clean_linker_0, # of connection points: 2
#     Edge 243, Type (0, 0), BuildingBlock: OJICUG_clean_linker_0, # of connection points: 2
#     Edge 244, Type (0, 0), BuildingBlock: OJICUG_clean_linker_0, # of connection points: 2
#     Edge 245, Type (0, 0), BuildingBlock: OJICUG_clean_linker_0, # of connection points: 2
#     Edge 246, Type (0, 0), BuildingBlock: OJICUG_clean_linker_0, # of connection points: 2
#     Edge 247, Type (0, 0), BuildingBlock: OJICUG_clean_linker_0, # of connection points: 2
#     Edge 248, Type (0, 0), BuildingBlock: OJICUG_clean_linker_0, # of connection points: 2
#     Edge 249, Type (0, 0), BuildingBlock: OJICUG_clean_linker_0, # of connection points: 2
#     Edge 250, Type (0, 0), BuildingBlock: OJICUG_clean_linker_0, # of connection points: 2
#     Edge 251, Type (0, 0), BuildingBlock: OJICUG_clean_linker_0, # of connection points: 2
#     Edge 252, Type (0, 0), BuildingBlock: OJICUG_clean_linker_0, # of connection points: 2
#     Edge 253, Type (0, 0), BuildingBlock: OJICUG_clean_linker_0, # of connection points: 2
#     Edge 254, Type (0, 0), BuildingBlock: OJICUG_clean_linker_0, # of connection points: 2
#     Edge 255, Type (0, 0), BuildingBlock: OJICUG_clean_linker_0, # of connection points: 2
#     Edge 256, Type (0, 0), BuildingBlock: OJICUG_clean_linker_0, # of connection points: 2
#     Edge 257, Type (0, 0), BuildingBlock: OJICUG_clean_linker_0, # of connection points: 2
#     Edge 258, Type (0, 0), BuildingBlock: OJICUG_clean_linker_0, # of connection points: 2
#     Edge 259, Type (0, 0), BuildingBlock: OJICUG_clean_linker_0, # of connection points: 2
#     Edge 260, Type (0, 0), BuildingBlock: OJICUG_clean_linker_0, # of connection points: 2
#     Edge 261, Type (0, 0), BuildingBlock: OJICUG_clean_linker_0, # of connection points: 2
#     Edge 262, Type (0, 0), BuildingBlock: OJICUG_clean_linker_0, # of connection points: 2
#     Edge 263, Type (0, 0), BuildingBlock: OJICUG_clean_linker_0, # of connection points: 2
#     Edge 264, Type (0, 0), BuildingBlock: OJICUG_clean_linker_0, # of connection points: 2
#     Edge 265, Type (0, 0), BuildingBlock: OJICUG_clean_linker_0, # of connection points: 2
#     Edge 266, Type (0, 0), BuildingBlock: OJICUG_clean_linker_0, # of connection points: 2
#     Edge 267, Type (0, 0), BuildingBlock: OJICUG_clean_linker_0, # of connection points: 2
#     Edge 268, Type (0, 0), BuildingBlock: OJICUG_clean_linker_0, # of connection points: 2
#     Edge 269, Type (0, 0), BuildingBlock: OJICUG_clean_linker_0, # of connection points: 2
#     Edge 270, Type (0, 0), BuildingBlock: OJICUG_clean_linker_0, # of connection points: 2
#     Edge 271, Type (0, 0), BuildingBlock: OJICUG_clean_linker_0, # of connection points: 2
#     Edge 272, Type (0, 0), BuildingBlock: OJICUG_clean_linker_0, # of connection points: 2
#     Edge 273, Type (0, 0), BuildingBlock: OJICUG_clean_linker_0, # of connection points: 2
#     Edge 274, Type (0, 0), BuildingBlock: OJICUG_clean_linker_0, # of connection points: 2
#     Edge 275, Type (0, 0), BuildingBlock: OJICUG_clean_linker_0, # of connection points: 2
#     Edge 276, Type (0, 0), BuildingBlock: OJICUG_clean_linker_0, # of connection points: 2
#     Edge 277, Type (0, 0), BuildingBlock: OJICUG_clean_linker_0, # of connection points: 2
#     Edge 278, Type (0, 0), BuildingBlock: OJICUG_clean_linker_0, # of connection points: 2
#     Edge 279, Type (0, 0), BuildingBlock: OJICUG_clean_linker_0, # of connection points: 2
#     Edge 280, Type (0, 0), BuildingBlock: OJICUG_clean_linker_0, # of connection points: 2
#     Edge 281, Type (0, 0), BuildingBlock: OJICUG_clean_linker_0, # of connection points: 2
#     Edge 282, Type (0, 0), BuildingBlock: OJICUG_clean_linker_0, # of connection points: 2
#     Edge 283, Type (0, 0), BuildingBlock: OJICUG_clean_linker_0, # of connection points: 2
#     Edge 284, Type (0, 0), BuildingBlock: OJICUG_clean_linker_0, # of connection points: 2
#     Edge 285, Type (0, 0), BuildingBlock: OJICUG_clean_linker_0, # of connection points: 2
#     Edge 286, Type (0, 0), BuildingBlock: OJICUG_clean_linker_0, # of connection points: 2
#     Edge 287, Type (0, 0), BuildingBlock: OJICUG_clean_linker_0, # of connection points: 2
# Relax obj value: 0.530
# Max RMSD: 0.157
# Mean RMSD: 0.157
data_MOF--net-ulg--node1-KUFVIS_clean_sbu_0--edge1-OJICUG_clean_linker_0
_symmetry_space_group_name_H-M    P1
_symmetry_Int_Tables_number       1
_symmetry_cell_setting            triclinic
loop_
_symmetry_equiv_pos_as_xyz
'x, y, z'
_cell_length_a     68.5092
_cell_length_b     68.535036
_cell_length_c     68.501695
_cell_angle_alpha  89.992154
_cell_angle_beta   90.031358
_cell_angle_gamma 90.060461
loop_
_atom_site_label
_atom_site_type_symbol
_atom_site_fract_x
_atom_site_fract_y
_atom_site_fract_z
_atom_type_partial_charge
Mn0 Mn 0.04409 0.52774 0.14366 0.0
Mn1 Mn 0.06553 0.56656 0.15196 0.0
C2 C 0.02703 0.55757 0.13173 0.0
C3 C 0.02894 0.50679 0.16469 0.0
C4 C 0.07664 0.53548 0.11786 0.0
O5 O 0.07092 0.52073 0.15901 0.0
O6 O 0.06761 0.54768 0.1738 0.0
C7 C 0.05056 0.57996 0.19289 0.0
N8 N 0.05174 0.58458 0.17002 0.0
C9 C 0.05361 0.62623 0.16896 0.0
C10 C 0.05345 0.62078 0.20751 0.0
C11 C 0.05177 0.59621 0.21185 0.0
C12 C 0.05289 0.60418 0.15832 0.0
H13 H 0.04994 0.56492 0.19747 0.0
C14 C 0.07687 0.53195 0.17265 0.0
O15 O 0.03617 0.50024 0.14834 0.0
O16 O 0.02915 0.52535 0.16767 0.0
N17 N 0.0629 0.58549 0.13308 0.0
C18 C 0.06152 0.58261 0.11387 0.0
C19 C 0.06432 0.59841 0.10191 0.0
C20 C 0.06952 0.61641 0.11027 0.0
C21 C 0.06462 0.61969 0.12939 0.0
C22 C 0.0603 0.60328 0.14036 0.0
H23 H 0.05883 0.56826 0.10802 0.0
O24 O 0.02016 0.54029 0.12823 0.0
O25 O 0.04201 0.55589 0.14308 0.0
O26 O 0.0601 0.52695 0.11849 0.0
O27 O 0.08106 0.54845 0.13146 0.0
C28 C 0.06227 0.63859 0.1365 0.0
C29 C 0.05647 0.64207 0.15551 0.0
H30 H 0.05505 0.6308 0.21983 0.0
H31 H 0.05162 0.59091 0.22672 0.0
H32 H 0.06158 0.59586 0.08685 0.0
H33 H 0.07493 0.62859 0.10235 0.0
H34 H 0.06478 0.65099 0.12701 0.0
H35 H 0.05578 0.65717 0.15927 0.0
Mn36 Mn 0.70898 0.29459 0.40283 0.0
Mn37 Mn 0.67026 0.3186 0.40737 0.0
C38 C 0.67884 0.27891 0.38984 0.0
C39 C 0.72799 0.27289 0.41977 0.0
C40 C 0.70402 0.32678 0.37535 0.0
O41 O 0.71667 0.3212 0.41879 0.0
O42 O 0.68764 0.32141 0.43029 0.0
C43 C 0.6529 0.30746 0.448 0.0
N44 N 0.65022 0.3069 0.42479 0.0
C45 C 0.60893 0.31048 0.42003 0.0
C46 C 0.6112 0.31341 0.45875 0.0
C47 C 0.63524 0.31102 0.46533 0.0
C48 C 0.6317 0.30789 0.41139 0.0
H49 H 0.66749 0.30665 0.45386 0.0
C50 C 0.70408 0.32954 0.42996 0.0
O51 O 0.73524 0.28317 0.40556 0.0
O52 O 0.71087 0.2777 0.42604 0.0
N53 N 0.65279 0.31542 0.38711 0.0
C54 C 0.65719 0.31282 0.36828 0.0
C55 C 0.64244 0.31482 0.35486 0.0
C56 C 0.62395 0.32086 0.36127 0.0
C57 C 0.61905 0.31769 0.38039 0.0
C58 C 0.63437 0.31383 0.39302 0.0
H59 H 0.67187 0.30949 0.36377 0.0
O60 O 0.69594 0.27175 0.3867 0.0
O61 O 0.68045 0.29373 0.40158 0.0
O62 O 0.7117 0.31009 0.37755 0.0
O63 O 0.69028 0.33237 0.38756 0.0
C64 C 0.59957 0.31657 0.38604 0.0
C65 C 0.59435 0.3127 0.40511 0.0
H66 H 0.6003 0.31647 0.47 0.0
H67 H 0.6393 0.31191 0.48056 0.0
H68 H 0.64604 0.31093 0.34026 0.0
H69 H 0.61257 0.32574 0.35197 0.0
H70 H 0.58806 0.31863 0.37538 0.0
H71 H 0.57899 0.31295 0.40763 0.0
Mn72 Mn 0.94943 0.95778 0.65076 0.0
Mn73 Mn 0.91683 0.92436 0.65196 0.0
C74 C 0.959 0.92559 0.63654 0.0
C75 C 0.97349 0.9706 0.67041 0.0
C76 C 0.91417 0.96394 0.62568 0.0
O77 O 0.92752 0.96872 0.67016 0.0
O78 O 0.91247 0.94061 0.67459 0.0
C79 C 0.92286 0.90603 0.69254 0.0
N80 N 0.9223 0.90298 0.66948 0.0
C81 C 0.91801 0.86204 0.66545 0.0
C82 C 0.91834 0.86495 0.70415 0.0
C83 C 0.92082 0.88881 0.71014 0.0
C84 C 0.9198 0.88465 0.65644 0.0
H85 H 0.92517 0.92046 0.69825 0.0
C86 C 0.91493 0.95814 0.67919 0.0
O87 O 0.96583 0.98095 0.65646 0.0
O88 O 0.9671 0.95313 0.67299 0.0
N89 N 0.91871 0.90558 0.63105 0.0
C90 C 0.92637 0.90674 0.61297 0.0
C91 C 0.92244 0.8923 0.59971 0.0
C92 C 0.91248 0.87556 0.60591 0.0
C93 C 0.91154 0.87186 0.62543 0.0
C94 C 0.91549 0.88749 0.63779 0.0
H95 H 0.93491 0.91906 0.60824 0.0
O96 O 0.96846 0.94155 0.63293 0.0
O97 O 0.94425 0.9296 0.64819 0.0
O98 O 0.93242 0.96795 0.62665 0.0
O99 O 0.90848 0.94881 0.63541 0.0
C100 C 0.91028 0.85258 0.63186 0.0
C101 C 0.9143 0.84748 0.65092 0.0
H102 H 0.91874 0.85423 0.71582 0.0
H103 H 0.92171 0.893 0.72534 0.0
H104 H 0.92895 0.89391 0.58559 0.0
H105 H 0.90856 0.86383 0.59655 0.0
H106 H 0.90743 0.8409 0.62153 0.0
H107 H 0.91321 0.83228 0.65363 0.0
Mn108 Mn 0.27443 0.18887 0.89373 0.0
Mn109 Mn 0.31564 0.17066 0.89909 0.0
C110 C 0.30129 0.20567 0.87589 0.0
C111 C 0.25467 0.20818 0.91203 0.0
C112 C 0.28064 0.15374 0.87146 0.0
O113 O 0.27115 0.16449 0.91352 0.0
O114 O 0.29999 0.17078 0.9234 0.0
C115 C 0.33446 0.19074 0.93561 0.0
N116 N 0.33557 0.18715 0.91256 0.0
C117 C 0.37675 0.18695 0.90521 0.0
C118 C 0.37719 0.19139 0.94387 0.0
C119 C 0.35347 0.19248 0.9518 0.0
C120 C 0.35324 0.18548 0.89813 0.0
H121 H 0.32028 0.19108 0.94242 0.0
C122 C 0.2848 0.16076 0.92571 0.0
O123 O 0.24727 0.19697 0.89858 0.0
O124 O 0.27318 0.20721 0.91531 0.0
N125 N 0.33151 0.17172 0.87741 0.0
C126 C 0.32567 0.17061 0.85887 0.0
C127 C 0.33959 0.16704 0.84498 0.0
C128 C 0.35893 0.16368 0.85093 0.0
C129 C 0.36483 0.17111 0.86858 0.0
C130 C 0.35003 0.176 0.88145 0.0
H131 H 0.31046 0.1719 0.85509 0.0
O132 O 0.28325 0.21076 0.87371 0.0
O133 O 0.30233 0.1926 0.88953 0.0
O134 O 0.27153 0.16986 0.87116 0.0
O135 O 0.29566 0.15176 0.88345 0.0
C136 C 0.38445 0.17507 0.87233 0.0
C137 C 0.39051 0.18313 0.88985 0.0
H138 H 0.38903 0.19168 0.95457 0.0
H139 H 0.35048 0.1941 0.96722 0.0
H140 H 0.33458 0.16777 0.83032 0.0
H141 H 0.36999 0.15773 0.84184 0.0
H142 H 0.39537 0.17195 0.86134 0.0
H143 H 0.40601 0.18474 0.89117 0.0
Mn144 Mn 0.05138 0.46329 0.83823 0.0
Mn145 Mn 0.07327 0.42365 0.83462 0.0
C146 C 0.03417 0.43446 0.85217 0.0
C147 C 0.03145 0.48247 0.81979 0.0
C148 C 0.08339 0.45832 0.86513 0.0
O149 O 0.07819 0.46899 0.82229 0.0
O150 O 0.07651 0.4397 0.81143 0.0
C151 C 0.06084 0.406 0.79464 0.0
N152 N 0.06078 0.40377 0.8179 0.0
C153 C 0.06304 0.36261 0.82344 0.0
C154 C 0.0649 0.36398 0.78464 0.0
C155 C 0.06323 0.3879 0.77762 0.0
C156 C 0.0615 0.38557 0.83164 0.0
H157 H 0.06024 0.42045 0.78847 0.0
C158 C 0.08543 0.45553 0.81147 0.0
O159 O 0.04161 0.48995 0.83401 0.0
O160 O 0.03542 0.46482 0.81457 0.0
N161 N 0.06953 0.407 0.8553 0.0
C162 C 0.06746 0.41192 0.87401 0.0
C163 C 0.07006 0.39755 0.88769 0.0
C164 C 0.07579 0.37886 0.88147 0.0
C165 C 0.07171 0.37346 0.86265 0.0
C166 C 0.06769 0.38851 0.84982 0.0
H167 H 0.06453 0.42681 0.87814 0.0
O168 O 0.02771 0.45198 0.85461 0.0
O169 O 0.04905 0.43504 0.84046 0.0
O170 O 0.06679 0.46629 0.86341 0.0
O171 O 0.08809 0.44401 0.85324 0.0
C172 C 0.06997 0.35389 0.85747 0.0
C173 C 0.06526 0.34834 0.83864 0.0
H174 H 0.06721 0.35274 0.77355 0.0
H175 H 0.06381 0.3916 0.76228 0.0
H176 H 0.06692 0.40171 0.90232 0.0
H177 H 0.08113 0.36768 0.89075 0.0
H178 H 0.07209 0.3426 0.86834 0.0
H179 H 0.06489 0.33294 0.8365 0.0
Mn180 Mn 0.77088 0.31832 0.08951 0.0
Mn181 Mn 0.81205 0.33774 0.08674 0.0
C182 C 0.79712 0.29648 0.10217 0.0
C183 C 0.74945 0.30105 0.07065 0.0
C184 C 0.77823 0.34983 0.11709 0.0
O185 O 0.768 0.3456 0.07398 0.0
O186 O 0.79672 0.34041 0.06299 0.0
C187 C 0.82894 0.31998 0.04833 0.0
N188 N 0.83189 0.32363 0.07129 0.0
C189 C 0.87328 0.32038 0.07606 0.0
C190 C 0.87082 0.31542 0.03739 0.0
C191 C 0.84662 0.3164 0.03097 0.0
C192 C 0.85051 0.32423 0.08467 0.0
H193 H 0.81435 0.32018 0.04244 0.0
C194 C 0.78178 0.35075 0.06251 0.0
O195 O 0.74328 0.31228 0.08464 0.0
O196 O 0.76758 0.30271 0.06557 0.0
N197 N 0.82789 0.33582 0.10805 0.0
C198 C 0.81968 0.33702 0.12796 0.0
C199 C 0.84442 0.3353 0.15164 0.0
C200 C 0.8665 0.33321 0.1399 0.0
C201 C 0.86691 0.33222 0.11704 0.0
C202 C 0.84856 0.33249 0.10271 0.0
H203 H 0.80499 0.3318 0.12984 0.0
O204 O 0.77877 0.29264 0.10409 0.0
O205 O 0.79913 0.31339 0.09335 0.0
O206 O 0.76934 0.33365 0.11499 0.0
O207 O 0.79235 0.35431 0.10474 0.0
C208 C 0.88465 0.3257 0.10996 0.0
C209 C 0.88826 0.32097 0.09071 0.0
H210 H 0.88184 0.31349 0.02602 0.0
H211 H 0.84247 0.31465 0.01584 0.0
H212 H 0.82412 0.31849 0.18086 0.0
H213 H 0.85445 0.3338 0.1485 0.0
H214 H 0.89617 0.32267 0.12027 0.0
H215 H 0.90319 0.31706 0.08829 0.0
Mn216 Mn 0.96045 0.0444 0.33584 0.0
Mn217 Mn 0.93394 0.08069 0.33352 0.0
C218 C 0.97321 0.07394 0.35274 0.0
C219 C 0.98071 0.02949 0.31397 0.0
C220 C 0.92707 0.04329 0.36172 0.0
O221 O 0.93485 0.03626 0.31869 0.0
O222 O 0.93361 0.06581 0.3093 0.0
C223 C 0.94672 0.10138 0.2952 0.0
N224 N 0.94502 0.10258 0.31847 0.0
C225 C 0.93739 0.14282 0.32535 0.0
C226 C 0.93809 0.14296 0.28648 0.0
C227 C 0.94314 0.11978 0.27872 0.0
C228 C 0.94125 0.1199 0.3328 0.0
H229 H 0.9496 0.08742 0.28856 0.0
C230 C 0.92653 0.04918 0.30807 0.0
O231 O 0.9729 0.01965 0.32826 0.0
O232 O 0.97671 0.04777 0.31245 0.0
N233 N 0.93452 0.09661 0.35501 0.0
C234 C 0.93597 0.0911 0.37359 0.0
C235 C 0.93057 0.10435 0.38756 0.0
C236 C 0.92287 0.12243 0.38161 0.0
C237 C 0.92757 0.12921 0.36339 0.0
C238 C 0.93436 0.11541 0.35037 0.0
H239 H 0.94056 0.07653 0.37733 0.0
O240 O 0.98217 0.05736 0.35393 0.0
O241 O 0.9588 0.07211 0.34064 0.0
O242 O 0.94458 0.03729 0.36014 0.0
O243 O 0.9211 0.05764 0.3504 0.0
C244 C 0.92715 0.14907 0.35909 0.0
C245 C 0.93243 0.15602 0.34088 0.0
H246 H 0.93508 0.15431 0.27567 0.0
H247 H 0.94399 0.11672 0.26326 0.0
H248 H 0.93321 0.09988 0.4022 0.0
H249 H 0.91541 0.13238 0.39081 0.0
H250 H 0.92283 0.15949 0.37017 0.0
H251 H 0.93103 0.17144 0.33933 0.0
Mn252 Mn 0.20307 0.19521 0.56851 0.0
Mn253 Mn 0.16818 0.16361 0.57694 0.0
C254 C 0.17478 0.20614 0.5881 0.0
C255 C 0.21574 0.21969 0.54909 0.0
C256 C 0.20956 0.16251 0.59838 0.0
O257 O 0.20806 0.17373 0.54647 0.0
O258 O 0.18391 0.15407 0.55522 0.0
C259 C 0.14558 0.15226 0.54105 0.0
N260 N 0.1454 0.16502 0.56028 0.0
C261 C 0.10476 0.1699 0.56731 0.0
C262 C 0.1039 0.14891 0.5349 0.0
C263 C 0.12672 0.14401 0.52802 0.0
C264 C 0.12848 0.17279 0.57324 0.0
H265 H 0.15882 0.14626 0.536 0.0
C266 C 0.19795 0.15809 0.54402 0.0
O267 O 0.22672 0.20939 0.56053 0.0
O268 O 0.19741 0.21521 0.54816 0.0
N269 N 0.15115 0.17109 0.59729 0.0
C270 C 0.15607 0.17464 0.61566 0.0
C271 C 0.14278 0.17114 0.63004 0.0
C272 C 0.12363 0.16593 0.62485 0.0
C273 C 0.11758 0.16966 0.60608 0.0
C274 C 0.13231 0.1721 0.59226 0.0
H275 H 0.16971 0.18156 0.61884 0.0
O276 O 0.19188 0.21418 0.58923 0.0
O277 O 0.17487 0.19147 0.57542 0.0
O278 O 0.21688 0.17778 0.59067 0.0
O279 O 0.19208 0.15836 0.59372 0.0
C280 C 0.09783 0.17259 0.60162 0.0
C281 C 0.0917 0.17507 0.58249 0.0
H282 H 0.09225 0.14403 0.52609 0.0
H283 H 0.12938 0.13521 0.51521 0.0
H284 H 0.14765 0.17506 0.64425 0.0
H285 H 0.11273 0.16131 0.63491 0.0
H286 H 0.08705 0.17321 0.61318 0.0
H287 H 0.07669 0.17798 0.58012 0.0
Mn288 Mn 0.14496 0.05418 0.51954 0.0
Mn289 Mn 0.14224 0.0871 0.55137 0.0
C290 C 0.13172 0.04227 0.55116 0.0
C291 C 0.16828 0.03509 0.5051 0.0
C292 C 0.11285 0.08394 0.51727 0.0
O293 O 0.16084 0.07906 0.50811 0.0
O294 O 0.16444 0.09402 0.53609 0.0
C295 C 0.184 0.08103 0.56866 0.0
N296 N 0.16086 0.08004 0.57213 0.0
C297 C 0.15827 0.07111 0.61278 0.0
C298 C 0.19712 0.07324 0.60906 0.0
C299 C 0.20228 0.07839 0.58532 0.0
C300 C 0.1482 0.07574 0.59028 0.0
H301 H 0.18957 0.08321 0.55428 0.0
C302 C 0.16912 0.09224 0.51863 0.0
O303 O 0.15262 0.04012 0.49556 0.0
O304 O 0.17 0.04072 0.52299 0.0
N305 N 0.1207 0.08393 0.56693 0.0
C306 C 0.09933 0.09175 0.56097 0.0
C307 C 0.07916 0.09335 0.59382 0.0
C308 C 0.09269 0.08493 0.6114 0.0
C309 C 0.11582 0.07912 0.60861 0.0
C310 C 0.12824 0.07832 0.5879 0.0
H311 H 0.0958 0.09796 0.54716 0.0
O312 O 0.13075 0.03196 0.53538 0.0
O313 O 0.14073 0.05894 0.54703 0.0
O314 O 0.11803 0.06662 0.51255 0.0
O315 O 0.12362 0.09422 0.52896 0.0
C316 C 0.12542 0.07336 0.6257 0.0
C317 C 0.14479 0.06916 0.62807 0.0
H318 H 0.20914 0.07113 0.61932 0.0
H319 H 0.21732 0.07958 0.58069 0.0
H320 H 0.06412 0.0969 0.5973 0.0
H321 H 0.08424 0.07514 0.62009 0.0
H322 H 0.11795 0.07216 0.63898 0.0
H323 H 0.14871 0.06508 0.6427 0.0
Mn324 Mn 0.19817 0.4058 0.78256 0.0
Mn325 Mn 0.17639 0.40845 0.82174 0.0
C326 C 0.2156 0.39112 0.81098 0.0
C327 C 0.2137 0.4287 0.76401 0.0
C328 C 0.16682 0.37824 0.78658 0.0
O329 O 0.1708 0.42077 0.77711 0.0
O330 O 0.17314 0.43194 0.80599 0.0
C331 C 0.1896 0.44817 0.83941 0.0
N332 N 0.18909 0.42493 0.84167 0.0
C333 C 0.18615 0.41948 0.88279 0.0
C334 C 0.18511 0.4583 0.88136 0.0
C335 C 0.18729 0.46525 0.85746 0.0
C336 C 0.18787 0.41123 0.85986 0.0
H337 H 0.19059 0.45429 0.82494 0.0
C338 C 0.16399 0.43198 0.79033 0.0
O339 O 0.20628 0.41311 0.75598 0.0
O340 O 0.21243 0.43052 0.78271 0.0
N341 N 0.17993 0.38772 0.83829 0.0
C342 C 0.1818 0.36903 0.83337 0.0
C343 C 0.17862 0.35541 0.84767 0.0
C344 C 0.17257 0.36174 0.86625 0.0
C345 C 0.17697 0.38044 0.87178 0.0
C346 C 0.18151 0.39316 0.85682 0.0
H347 H 0.18492 0.36488 0.81851 0.0
O348 O 0.2226 0.38985 0.79345 0.0
O349 O 0.20035 0.40222 0.81047 0.0
O350 O 0.18343 0.38029 0.77858 0.0
O351 O 0.1619 0.38994 0.80102 0.0
C352 C 0.17844 0.38558 0.8914 0.0
C353 C 0.1834 0.40432 0.89704 0.0
H354 H 0.18287 0.46944 0.89256 0.0
H355 H 0.1871 0.48058 0.85373 0.0
H356 H 0.18158 0.34075 0.84351 0.0
H357 H 0.16672 0.35262 0.87731 0.0
H358 H 0.17589 0.37476 0.90264 0.0
H359 H 0.18355 0.40648 0.91246 0.0
Mn360 Mn 0.84546 0.45668 0.04263 0.0
Mn361 Mn 0.84942 0.42413 0.0746 0.0
C362 C 0.86064 0.46789 0.07375 0.0
C363 C 0.8236 0.47742 0.02829 0.0
C364 C 0.87391 0.42331 0.03644 0.0
O365 O 0.82595 0.43341 0.03406 0.0
O366 O 0.82549 0.41714 0.06192 0.0
C367 C 0.81238 0.42342 0.09954 0.0
N368 N 0.83511 0.42704 0.09819 0.0
C369 C 0.84723 0.42589 0.13765 0.0
C370 C 0.80933 0.42026 0.14186 0.0
C371 C 0.79888 0.42019 0.11965 0.0
C372 C 0.85151 0.42784 0.11347 0.0
H373 H 0.80382 0.42383 0.08646 0.0
C374 C 0.81835 0.42043 0.04542 0.0
O375 O 0.83824 0.4704 0.01848 0.0
O376 O 0.82225 0.47331 0.04664 0.0
N377 N 0.87196 0.43088 0.08741 0.0
C378 C 0.88852 0.43769 0.07907 0.0
C379 C 0.90449 0.44004 0.0906 0.0
C380 C 0.90238 0.43563 0.1101 0.0
C381 C 0.88516 0.42833 0.11876 0.0
C382 C 0.86974 0.4285 0.10661 0.0
H383 H 0.88951 0.44144 0.06394 0.0
O384 O 0.86295 0.47722 0.05742 0.0
O385 O 0.84919 0.45246 0.07059 0.0
O386 O 0.87082 0.44129 0.03235 0.0
O387 O 0.86429 0.41606 0.05042 0.0
C388 C 0.88212 0.42317 0.13869 0.0
C389 C 0.86451 0.42515 0.14863 0.0
H390 H 0.80032 0.42079 0.15465 0.0
H391 H 0.78318 0.41985 0.11831 0.0
H392 H 0.91802 0.44582 0.08476 0.0
H393 H 0.91431 0.44068 0.11771 0.0
H394 H 0.89319 0.41751 0.14767 0.0
H395 H 0.86494 0.42384 0.16434 0.0
Mn396 Mn 0.81036 0.08638 0.27247 0.0
Mn397 Mn 0.83052 0.08282 0.3134 0.0
C398 C 0.79052 0.09724 0.30094 0.0
C399 C 0.79224 0.06989 0.25031 0.0
C400 C 0.8396 0.11562 0.28081 0.0
O401 O 0.83883 0.07288 0.26782 0.0
O402 O 0.8371 0.06086 0.29667 0.0
C403 C 0.82166 0.04106 0.32866 0.0
N404 N 0.81889 0.06403 0.33183 0.0
C405 C 0.81876 0.06786 0.37324 0.0
C406 C 0.82504 0.02963 0.37037 0.0
C407 C 0.82518 0.0236 0.34613 0.0
C408 C 0.81728 0.07691 0.3506 0.0
H409 H 0.82234 0.03553 0.31394 0.0
C410 C 0.84672 0.06253 0.28136 0.0
O411 O 0.80362 0.08404 0.2448 0.0
O412 O 0.7954 0.06238 0.2674 0.0
N413 N 0.82376 0.10226 0.33061 0.0
C414 C 0.82007 0.12087 0.3263 0.0
C415 C 0.82026 0.13409 0.34134 0.0
C416 C 0.82542 0.12771 0.36014 0.0
C417 C 0.82325 0.1083 0.3645 0.0
C418 C 0.82151 0.0958 0.34874 0.0
H419 H 0.81761 0.12534 0.31141 0.0
O420 O 0.78502 0.10033 0.28316 0.0
O421 O 0.80622 0.08653 0.30078 0.0
O422 O 0.82371 0.11272 0.27194 0.0
O423 O 0.84466 0.10365 0.29489 0.0
C424 C 0.8212 0.10203 0.38371 0.0
C425 C 0.81859 0.08254 0.38821 0.0
H426 H 0.8281 0.01836 0.38125 0.0
H427 H 0.82763 0.00862 0.34183 0.0
H428 H 0.81588 0.14849 0.33756 0.0
H429 H 0.82897 0.13708 0.37197 0.0
H430 H 0.82149 0.11252 0.39555 0.0
H431 H 0.81782 0.07965 0.40343 0.0
Mn432 Mn 0.15916 0.94507 0.46286 0.0
Mn433 Mn 0.15358 0.91598 0.42758 0.0
C434 C 0.13792 0.95512 0.43581 0.0
C435 C 0.1812 0.967 0.47517 0.0
C436 C 0.13081 0.91264 0.4665 0.0
O437 O 0.17882 0.92124 0.46892 0.0
O438 O 0.17878 0.91044 0.43881 0.0
C439 C 0.19024 0.93456 0.40626 0.0
N440 N 0.16811 0.92713 0.40556 0.0
C441 C 0.16022 0.92339 0.36529 0.0
C442 C 0.19754 0.93513 0.36313 0.0
C443 C 0.20565 0.93859 0.38676 0.0
C444 C 0.1541 0.92195 0.38897 0.0
H445 H 0.19674 0.93675 0.42047 0.0
C446 C 0.18566 0.90981 0.4557 0.0
O447 O 0.16858 0.95841 0.48648 0.0
O448 O 0.18117 0.96249 0.45683 0.0
N449 N 0.1295 0.91816 0.41445 0.0
C450 C 0.10999 0.91073 0.42401 0.0
C451 C 0.09603 0.88233 0.40158 0.0
C452 C 0.11168 0.87957 0.38255 0.0
C453 C 0.1305 0.89467 0.37944 0.0
C454 C 0.13816 0.91197 0.39461 0.0
H455 H 0.10537 0.9165 0.43784 0.0
O456 O 0.13859 0.96532 0.45172 0.0
O457 O 0.15088 0.94143 0.4365 0.0
O458 O 0.13628 0.92913 0.47302 0.0
O459 O 0.13877 0.90485 0.4512 0.0
C460 C 0.13481 0.89855 0.35996 0.0
C461 C 0.14629 0.91398 0.35288 0.0
H462 H 0.20776 0.93644 0.35094 0.0
H463 H 0.22057 0.94303 0.38936 0.0
H464 H 0.08474 0.87164 0.40423 0.0
H465 H 0.10969 0.8683 0.37174 0.0
H466 H 0.12621 0.89107 0.34982 0.0
H467 H 0.14607 0.91585 0.33722 0.0
Mn468 Mn 0.29629 0.39761 0.71298 0.0
Mn469 Mn 0.32475 0.40123 0.67772 0.0
C470 C 0.28334 0.38306 0.68157 0.0
C471 C 0.27606 0.42027 0.7267 0.0
C472 C 0.33125 0.37399 0.71708 0.0
O473 O 0.32052 0.41497 0.72319 0.0
O474 O 0.32136 0.42481 0.694 0.0
C475 C 0.31806 0.44065 0.657 0.0
N476 N 0.31771 0.41741 0.65529 0.0
C477 C 0.32047 0.41138 0.61417 0.0
C478 C 0.32114 0.45008 0.61535 0.0
C479 C 0.31979 0.45725 0.63888 0.0
C480 C 0.31942 0.40346 0.63741 0.0
H481 H 0.3174 0.44756 0.67105 0.0
C482 C 0.32777 0.42688 0.711 0.0
O483 O 0.28245 0.40565 0.73705 0.0
O484 O 0.28069 0.4211 0.70857 0.0
N485 N 0.32502 0.37959 0.65955 0.0
C486 C 0.31697 0.36173 0.66186 0.0
C487 C 0.31989 0.34765 0.64788 0.0
C488 C 0.32861 0.35302 0.63026 0.0
C489 C 0.32888 0.37236 0.62554 0.0
C490 C 0.32576 0.38546 0.64087 0.0
H491 H 0.30933 0.35764 0.67498 0.0
O492 O 0.27473 0.38071 0.69821 0.0
O493 O 0.29896 0.3935 0.68447 0.0
O494 O 0.31305 0.37337 0.72154 0.0
O495 O 0.33599 0.3851 0.70222 0.0
C496 C 0.32811 0.37764 0.60589 0.0
C497 C 0.32322 0.39625 0.6001 0.0
H498 H 0.32021 0.46126 0.60413 0.0
H499 H 0.31957 0.47264 0.64233 0.0
H500 H 0.31356 0.3336 0.65051 0.0
H501 H 0.33155 0.34307 0.61873 0.0
H502 H 0.3301 0.36671 0.5946 0.0
H503 H 0.32285 0.39816 0.58472 0.0
Mn504 Mn 0.83447 0.54801 0.95901 0.0
Mn505 Mn 0.83247 0.56815 0.91821 0.0
C506 C 0.84761 0.52859 0.9313 0.0
C507 C 0.81323 0.53427 0.98086 0.0
C508 C 0.86329 0.57797 0.95268 0.0
O509 O 0.8205 0.57628 0.96271 0.0
O510 O 0.80929 0.57351 0.93373 0.0
C511 C 0.79205 0.55733 0.90057 0.0
N512 N 0.81527 0.5559 0.89858 0.0
C513 C 0.82122 0.55668 0.85738 0.0
C514 C 0.78258 0.5607 0.85837 0.0
C515 C 0.77533 0.56012 0.88226 0.0
C516 C 0.82917 0.55532 0.8805 0.0
H517 H 0.78575 0.55747 0.91499 0.0
C518 C 0.80988 0.58329 0.94899 0.0
O519 O 0.82932 0.54254 0.98661 0.0
O520 O 0.80956 0.53389 0.9623 0.0
N521 N 0.85305 0.56255 0.90199 0.0
C522 C 0.87161 0.55991 0.9072 0.0
C523 C 0.8855 0.56151 0.8929 0.0
C524 C 0.87971 0.56692 0.87396 0.0
C525 C 0.86079 0.56345 0.86845 0.0
C526 C 0.84766 0.56046 0.88347 0.0
H527 H 0.87548 0.55735 0.92223 0.0
O528 O 0.84924 0.52266 0.94922 0.0
O529 O 0.83669 0.54406 0.9309 0.0
O530 O 0.86066 0.56176 0.96112 0.0
O531 O 0.85171 0.58281 0.93815 0.0
C532 C 0.85567 0.56151 0.84885 0.0
C533 C 0.83664 0.55773 0.8432 0.0
H534 H 0.77171 0.56331 0.84696 0.0
H535 H 0.76003 0.56165 0.8858 0.0
H536 H 0.89994 0.558 0.89738 0.0
H537 H 0.88932 0.57161 0.86276 0.0
H538 H 0.86673 0.56283 0.83763 0.0
H539 H 0.83457 0.5572 0.82777 0.0
Mn540 Mn 0.69272 0.10102 0.21556 0.0
Mn541 Mn 0.67303 0.09423 0.17513 0.0
C542 C 0.70948 0.11647 0.18717 0.0
C543 C 0.71266 0.08316 0.23561 0.0
C544 C 0.65832 0.12461 0.20847 0.0
O545 O 0.66744 0.08259 0.22077 0.0
O546 O 0.67207 0.071 0.19227 0.0
C547 C 0.69084 0.05563 0.15866 0.0
N548 N 0.68848 0.07872 0.15605 0.0
C549 C 0.68801 0.0834 0.11454 0.0
C550 C 0.69028 0.04463 0.11659 0.0
C551 C 0.69134 0.03819 0.14076 0.0
C552 C 0.68732 0.09204 0.13749 0.0
H553 H 0.6911 0.04975 0.17326 0.0
C554 C 0.66232 0.07016 0.20777 0.0
O555 O 0.70218 0.09735 0.24265 0.0
O556 O 0.71044 0.07878 0.21745 0.0
N557 N 0.6749 0.11482 0.15789 0.0
C558 C 0.67477 0.13375 0.16249 0.0
C559 C 0.67187 0.14689 0.14768 0.0
C560 C 0.66812 0.13991 0.12877 0.0
C561 C 0.67441 0.12151 0.12407 0.0
C562 C 0.67875 0.10937 0.13966 0.0
H563 H 0.67642 0.13845 0.17741 0.0
O564 O 0.71517 0.11952 0.2049 0.0
O565 O 0.69573 0.10345 0.18738 0.0
O566 O 0.67456 0.12453 0.21749 0.0
O567 O 0.65544 0.11194 0.19424 0.0
C568 C 0.67795 0.11629 0.10473 0.0
C569 C 0.68494 0.09802 0.09983 0.0
H570 H 0.68979 0.03319 0.10547 0.0
H571 H 0.69218 0.02294 0.14474 0.0
H572 H 0.6734 0.16181 0.15166 0.0
H573 H 0.66273 0.14858 0.11711 0.0
H574 H 0.67536 0.1267 0.09311 0.0
H575 H 0.68635 0.09566 0.08447 0.0
Mn576 Mn 0.52894 0.149 0.04804 0.0
Mn577 Mn 0.56883 0.15585 0.06871 0.0
C578 C 0.558 0.13501 0.03124 0.0
C579 C 0.50793 0.16579 0.02836 0.0
C580 C 0.53595 0.1246 0.08164 0.0
O581 O 0.52321 0.16659 0.074 0.0
O582 O 0.55189 0.17855 0.07085 0.0
C583 C 0.58413 0.19552 0.05273 0.0
N584 N 0.58754 0.17248 0.05446 0.0
C585 C 0.62894 0.16921 0.0564 0.0
C586 C 0.62565 0.20791 0.05532 0.0
C587 C 0.60138 0.21356 0.05351 0.0
C588 C 0.60641 0.15977 0.05589 0.0
H589 H 0.56936 0.20087 0.05189 0.0
C590 C 0.53633 0.17849 0.08018 0.0
O591 O 0.50174 0.15143 0.03913 0.0
O592 O 0.52581 0.17141 0.03051 0.0
N593 N 0.58632 0.13574 0.06609 0.0
C594 C 0.58225 0.11672 0.0657 0.0
C595 C 0.59735 0.104 0.06881 0.0
C596 C 0.61589 0.11149 0.07348 0.0
C597 C 0.62024 0.13022 0.068 0.0
C598 C 0.60449 0.14196 0.06343 0.0
H599 H 0.56752 0.11162 0.06354 0.0
O600 O 0.54044 0.13148 0.02525 0.0
O601 O 0.5572 0.14776 0.04524 0.0
O602 O 0.5275 0.12487 0.06519 0.0
O603 O 0.54977 0.13743 0.08527 0.0
C604 C 0.63949 0.13624 0.06551 0.0
C605 C 0.64399 0.15494 0.05944 0.0
H606 H 0.63636 0.21969 0.05658 0.0
H607 H 0.59692 0.22868 0.05297 0.0
H608 H 0.5938 0.08901 0.06684 0.0
H609 H 0.62767 0.10317 0.0791 0.0
H610 H 0.65136 0.12614 0.06816 0.0
H611 H 0.65924 0.15782 0.05861 0.0
Mn612 Mn 0.03222 0.85544 0.45356 0.0
Mn613 Mn 0.07344 0.86119 0.43107 0.0
C614 C 0.05738 0.87508 0.46828 0.0
C615 C 0.01787 0.83186 0.47261 0.0
C616 C 0.0342 0.88315 0.42014 0.0
O617 O 0.02969 0.83625 0.42956 0.0
O618 O 0.06123 0.83574 0.42369 0.0
C619 C 0.09086 0.82669 0.45462 0.0
N620 N 0.09405 0.84799 0.44605 0.0
C621 C 0.13477 0.84994 0.43854 0.0
C622 C 0.13186 0.81263 0.45093 0.0
C623 C 0.10791 0.80856 0.45702 0.0
C624 C 0.11242 0.85975 0.43979 0.0
H625 H 0.07597 0.8223 0.45751 0.0
C626 C 0.04432 0.82868 0.42084 0.0
O627 O 0.00715 0.84468 0.46351 0.0
O628 O 0.03654 0.83325 0.471 0.0
N629 N 0.08806 0.8852 0.43448 0.0
C630 C 0.07635 0.90161 0.42428 0.0
C631 C 0.08184 0.91385 0.40406 0.0
C632 C 0.10367 0.91155 0.39339 0.0
C633 C 0.12472 0.88506 0.414 0.0
C634 C 0.10941 0.87753 0.43247 0.0
H635 H 0.06306 0.90535 0.43143 0.0
O636 O 0.04009 0.87493 0.47587 0.0
O637 O 0.05878 0.86348 0.45377 0.0
O638 O 0.02463 0.8783 0.43546 0.0
O639 O 0.05115 0.8755 0.41612 0.0
C640 C 0.14362 0.87682 0.4149 0.0
C641 C 0.14883 0.86193 0.42819 0.0
H642 H 0.14228 0.80056 0.45137 0.0
H643 H 0.10344 0.79427 0.46201 0.0
H644 H 0.07108 0.92323 0.3977 0.0
H645 H 0.10653 0.91933 0.3799 0.0
H646 H 0.15501 0.88242 0.40606 0.0
H647 H 0.16409 0.85873 0.42807 0.0
Mn648 Mn 0.4019 0.27749 0.69338 0.0
Mn649 Mn 0.39632 0.31344 0.66532 0.0
C650 C 0.38609 0.30599 0.70902 0.0
C651 C 0.42525 0.26291 0.71231 0.0
C652 C 0.3715 0.2756 0.6605 0.0
O653 O 0.4208 0.272 0.66935 0.0
O654 O 0.41942 0.30103 0.65537 0.0
C655 C 0.43463 0.33699 0.66779 0.0
N656 N 0.41192 0.3357 0.67163 0.0
C657 C 0.40181 0.3746 0.68118 0.0
C658 C 0.43986 0.37849 0.67576 0.0
C659 C 0.44912 0.35667 0.66949 0.0
C660 C 0.39637 0.35097 0.67691 0.0
H661 H 0.44237 0.32402 0.66414 0.0
C662 C 0.42739 0.28467 0.65724 0.0
O663 O 0.41103 0.25273 0.70478 0.0
O664 O 0.42544 0.28144 0.70931 0.0
N665 N 0.37486 0.32579 0.67482 0.0
C666 C 0.35805 0.31698 0.68022 0.0
C667 C 0.34265 0.32846 0.68489 0.0
C668 C 0.34562 0.34826 0.68408 0.0
C669 C 0.36311 0.35744 0.67921 0.0
C670 C 0.37795 0.34494 0.67648 0.0
H671 H 0.35647 0.30145 0.68118 0.0
O672 O 0.38469 0.28855 0.71615 0.0
O673 O 0.39689 0.30533 0.6928 0.0
O674 O 0.3765 0.26844 0.67715 0.0
O675 O 0.37976 0.29127 0.65488 0.0
C676 C 0.36658 0.3778 0.67933 0.0
C677 C 0.38494 0.38619 0.68291 0.0
H678 H 0.4499 0.39018 0.67951 0.0
H679 H 0.46468 0.35512 0.66734 0.0
H680 H 0.32882 0.32224 0.68942 0.0
H681 H 0.33412 0.35547 0.68974 0.0
H682 H 0.35506 0.38761 0.67603 0.0
H683 H 0.38567 0.40161 0.68477 0.0
Mn684 Mn 0.96613 0.6367 0.93921 0.0
Mn685 Mn 0.92686 0.64429 0.91792 0.0
C686 C 0.93632 0.62438 0.95626 0.0
C687 C 0.98648 0.65507 0.95876 0.0
C688 C 0.95851 0.61109 0.90649 0.0
O689 O 0.97304 0.65278 0.91257 0.0
O690 O 0.94496 0.666 0.91512 0.0
C691 C 0.91378 0.68527 0.93234 0.0
N692 N 0.90906 0.66241 0.93138 0.0
C693 C 0.86754 0.66135 0.92967 0.0
C694 C 0.87305 0.69983 0.92957 0.0
C695 C 0.8976 0.70419 0.93108 0.0
C696 C 0.8895 0.65071 0.9304 0.0
H697 H 0.92882 0.68986 0.93304 0.0
C698 C 0.96046 0.66489 0.90579 0.0
O699 O 0.99305 0.63971 0.94972 0.0
O700 O 0.96874 0.6602 0.95533 0.0
N701 N 0.90821 0.6253 0.9212 0.0
C702 C 0.9112 0.60614 0.92241 0.0
C703 C 0.89546 0.59413 0.91951 0.0
C704 C 0.87738 0.60244 0.91444 0.0
C705 C 0.87405 0.62155 0.91931 0.0
C706 C 0.89041 0.63258 0.92353 0.0
H707 H 0.92564 0.60042 0.92496 0.0
O708 O 0.95364 0.62063 0.96268 0.0
O709 O 0.93784 0.63627 0.94162 0.0
O710 O 0.96716 0.61172 0.92293 0.0
O711 O 0.94518 0.6243 0.90242 0.0
C712 C 0.85516 0.62871 0.92155 0.0
C713 C 0.85171 0.64784 0.92702 0.0
H714 H 0.86304 0.71215 0.92798 0.0
H715 H 0.90292 0.71905 0.93115 0.0
H716 H 0.89816 0.57904 0.92198 0.0
H717 H 0.86522 0.59451 0.90899 0.0
H718 H 0.84275 0.61917 0.91922 0.0
H719 H 0.83666 0.65158 0.9277 0.0
Mn720 Mn 0.08999 0.70491 0.20519 0.0
Mn721 Mn 0.08454 0.66831 0.17974 0.0
C722 C 0.10489 0.67439 0.21864 0.0
C723 C 0.06976 0.72107 0.22649 0.0
C724 C 0.11545 0.70315 0.17149 0.0
O725 O 0.07304 0.71362 0.17942 0.0
O726 O 0.06155 0.68481 0.17906 0.0
C727 C 0.04452 0.65075 0.1926 0.0
N728 N 0.06773 0.64806 0.1915 0.0
C729 C 0.07209 0.60715 0.18621 0.0
C730 C 0.03337 0.60931 0.18609 0.0
C731 C 0.02696 0.6332 0.1897 0.0
C732 C 0.08094 0.62976 0.1889 0.0
H733 H 0.03869 0.66522 0.19457 0.0
C734 C 0.06157 0.70118 0.17137 0.0
O735 O 0.08424 0.73022 0.21822 0.0
O736 O 0.06677 0.70318 0.22175 0.0
N737 N 0.10488 0.65113 0.18089 0.0
C738 C 0.1239 0.65529 0.18207 0.0
C739 C 0.13686 0.64071 0.17752 0.0
C740 C 0.12954 0.62287 0.17062 0.0
C741 C 0.11059 0.61806 0.17505 0.0
C742 C 0.09883 0.63282 0.18171 0.0
H743 H 0.12878 0.66972 0.18602 0.0
O744 O 0.10747 0.69112 0.22699 0.0
O745 O 0.09271 0.67683 0.20433 0.0
O746 O 0.11449 0.7099 0.18879 0.0
O747 O 0.10304 0.68951 0.16607 0.0
C748 C 0.10442 0.59896 0.17456 0.0
C749 C 0.08664 0.59301 0.18182 0.0
H750 H 0.02195 0.59848 0.18337 0.0
H751 H 0.01171 0.63723 0.19002 0.0
H752 H 0.15187 0.64392 0.18009 0.0
H753 H 0.1382 0.61169 0.16428 0.0
H754 H 0.11374 0.58864 0.16809 0.0
H755 H 0.08409 0.57767 0.18171 0.0
Mn756 Mn 0.46176 0.82864 0.04911 0.0
Mn757 Mn 0.4207 0.82798 0.06955 0.0
C758 C 0.43501 0.84598 0.03174 0.0
C759 C 0.48131 0.81122 0.02843 0.0
C760 C 0.4577 0.85446 0.08238 0.0
O761 O 0.46449 0.81058 0.07534 0.0
O762 O 0.43414 0.8032 0.07265 0.0
C763 C 0.39957 0.79044 0.0551 0.0
N764 N 0.3997 0.81378 0.05579 0.0
C765 C 0.3592 0.82332 0.05694 0.0
C766 C 0.35663 0.78456 0.05746 0.0
C767 C 0.37978 0.77524 0.05631 0.0
C768 C 0.38294 0.82923 0.05641 0.0
H769 H 0.41336 0.78288 0.05477 0.0
C770 C 0.44956 0.80128 0.08205 0.0
O771 O 0.48874 0.82351 0.04084 0.0
O772 O 0.46318 0.80642 0.03083 0.0
N773 N 0.40636 0.85035 0.06595 0.0
C774 C 0.41318 0.86855 0.06503 0.0
C775 C 0.40013 0.88345 0.06782 0.0
C776 C 0.38071 0.87887 0.07263 0.0
C777 C 0.37362 0.86089 0.06746 0.0
C778 C 0.38747 0.84681 0.06333 0.0
H779 H 0.42852 0.87131 0.06286 0.0
O780 O 0.453 0.84736 0.02627 0.0
O781 O 0.43373 0.83325 0.04578 0.0
O782 O 0.46612 0.85256 0.06608 0.0
O783 O 0.44208 0.8439 0.08599 0.0
C784 C 0.35369 0.85777 0.06491 0.0
C785 C 0.34645 0.83978 0.05929 0.0
H786 H 0.34426 0.77458 0.05904 0.0
H787 H 0.38191 0.75961 0.05648 0.0
H788 H 0.40585 0.89772 0.06563 0.0
H789 H 0.37034 0.88899 0.07809 0.0
H790 H 0.34347 0.86961 0.06716 0.0
H791 H 0.33092 0.83919 0.05837 0.0
Mn792 Mn 0.39228 0.20315 0.78719 0.0
Mn793 Mn 0.3977 0.16526 0.81038 0.0
C794 C 0.37694 0.17372 0.77216 0.0
C795 C 0.41437 0.2213 0.7705 0.0
C796 C 0.3673 0.19996 0.82053 0.0
O797 O 0.40899 0.21018 0.8133 0.0
O798 O 0.42096 0.18175 0.81112 0.0
C799 C 0.43679 0.14824 0.79485 0.0
N800 N 0.41373 0.14531 0.79723 0.0
C801 C 0.40985 0.10429 0.80258 0.0
C802 C 0.4486 0.10692 0.80065 0.0
C803 C 0.45459 0.13087 0.79678 0.0
C804 C 0.40074 0.12682 0.80035 0.0
H805 H 0.44235 0.1628 0.79265 0.0
C806 C 0.42123 0.19769 0.8197 0.0
O807 O 0.39892 0.22956 0.77793 0.0
O808 O 0.41597 0.20259 0.77152 0.0
N809 N 0.37726 0.14803 0.80926 0.0
C810 C 0.35834 0.15241 0.80865 0.0
C811 C 0.34537 0.13788 0.81311 0.0
C812 C 0.35255 0.11965 0.81922 0.0
C813 C 0.37112 0.11451 0.81386 0.0
C814 C 0.38309 0.12961 0.80792 0.0
H815 H 0.35355 0.16701 0.80529 0.0
O816 O 0.37488 0.19086 0.7644 0.0
O817 O 0.38906 0.17519 0.78656 0.0
O818 O 0.36787 0.20726 0.80348 0.0
O819 O 0.37974 0.18608 0.82527 0.0
C820 C 0.37679 0.09503 0.81289 0.0
C821 C 0.39539 0.08976 0.80705 0.0
H822 H 0.46024 0.09619 0.80261 0.0
H823 H 0.46977 0.13506 0.79563 0.0
H824 H 0.33045 0.14157 0.81092 0.0
H825 H 0.34405 0.10855 0.82593 0.0
H826 H 0.36652 0.08358 0.81659 0.0
H827 H 0.39804 0.07446 0.80751 0.0
Mn828 Mn 0.58207 0.2732 0.30756 0.0
Mn829 Mn 0.58032 0.31532 0.3241 0.0
C830 C 0.59819 0.29884 0.28714 0.0
C831 C 0.5632 0.25232 0.28974 0.0
C832 C 0.6087 0.28092 0.33921 0.0
O833 O 0.56531 0.27202 0.33467 0.0
O834 O 0.55616 0.30128 0.32889 0.0
C835 C 0.54143 0.33366 0.30909 0.0
N836 N 0.5648 0.33425 0.30882 0.0
C837 C 0.57309 0.37482 0.30539 0.0
C838 C 0.5344 0.37648 0.30727 0.0
C839 C 0.52569 0.35307 0.30889 0.0
C840 C 0.57973 0.35135 0.30712 0.0
H841 H 0.53425 0.31972 0.31048 0.0
C842 C 0.55521 0.28691 0.33992 0.0
O843 O 0.57665 0.24566 0.30139 0.0
O844 O 0.55873 0.27057 0.29122 0.0
N845 N 0.60208 0.32986 0.31868 0.0
C846 C 0.6206 0.32373 0.31797 0.0
C847 C 0.63503 0.33764 0.31863 0.0
C848 C 0.62973 0.35716 0.3217 0.0
C849 C 0.61105 0.36274 0.31711 0.0
C850 C 0.59767 0.34811 0.31413 0.0
H851 H 0.62406 0.30841 0.31731 0.0
O852 O 0.59965 0.2805 0.28305 0.0
O853 O 0.58598 0.30077 0.30154 0.0
O854 O 0.60673 0.27097 0.32376 0.0
O855 O 0.59756 0.29629 0.34187 0.0
C856 C 0.60659 0.38207 0.31404 0.0
C857 C 0.58905 0.38811 0.30632 0.0
H858 H 0.52417 0.38869 0.30811 0.0
H859 H 0.51015 0.35056 0.30995 0.0
H860 H 0.64953 0.33253 0.31631 0.0
H861 H 0.63969 0.36855 0.3251 0.0
H862 H 0.61702 0.39259 0.31822 0.0
H863 H 0.58785 0.40336 0.3035 0.0
Mn864 Mn 0.06093 0.02535 0.65655 0.0
Mn865 Mn 0.07889 0.06773 0.66384 0.0
C866 C 0.04215 0.05115 0.64148 0.0
C867 C 0.04389 0.00476 0.67692 0.0
C868 C 0.09175 0.03498 0.62954 0.0
O869 O 0.08738 0.02122 0.67213 0.0
O870 O 0.07848 0.04776 0.68411 0.0
C871 C 0.06173 0.08369 0.70281 0.0
N872 N 0.06038 0.08456 0.67949 0.0
C873 C 0.05541 0.12538 0.67199 0.0
C874 C 0.0615 0.12689 0.71027 0.0
C875 C 0.06347 0.1032 0.71875 0.0
C876 C 0.05613 0.10194 0.66476 0.0
H877 H 0.06447 0.06965 0.70943 0.0
C878 C 0.09131 0.03469 0.68407 0.0
O879 O 0.05385 -0.00211 0.66228 0.0
O880 O 0.04493 0.02328 0.68022 0.0
N881 N 0.08174 0.09055 0.64805 0.0
C882 C 0.09973 0.10062 0.64659 0.0
C883 C 0.09986 0.1175 0.63507 0.0
C884 C 0.08273 0.12441 0.62671 0.0
C885 C 0.06485 0.11794 0.63419 0.0
C886 C 0.06472 0.10131 0.64665 0.0
H887 H 0.0923 0.08747 0.64898 0.0
O888 O 0.03696 0.03306 0.64058 0.0
O889 O 0.05741 0.05401 0.6522 0.0
O890 O 0.07697 0.02397 0.63192 0.0
O891 O 0.09505 0.04959 0.64226 0.0
C892 C 0.05163 0.13275 0.6373 0.0
C893 C 0.04933 0.13837 0.65648 0.0
H894 H 0.06257 0.13901 0.7206 0.0
H895 H 0.0658 0.10056 0.73414 0.0
H896 H 0.11341 0.12525 0.6328 0.0
H897 H 0.08358 0.13752 0.61793 0.0
H898 H 0.04926 0.14366 0.6261 0.0
H899 H 0.0438 0.15289 0.65827 0.0
Mn900 Mn 0.71197 0.79554 0.90241 0.0
Mn901 Mn 0.67221 0.81687 0.9039 0.0
C902 C 0.68489 0.77918 0.8844 0.0
C903 C 0.72934 0.77745 0.92444 0.0
C904 C 0.70938 0.829 0.87702 0.0
O905 O 0.71598 0.82164 0.92005 0.0
O906 O 0.68625 0.81858 0.92857 0.0
C907 C 0.652 0.80106 0.94139 0.0
N908 N 0.65131 0.80302 0.91813 0.0
C909 C 0.61057 0.80579 0.91008 0.0
C910 C 0.60942 0.80427 0.94893 0.0
C911 C 0.63283 0.80199 0.95733 0.0
C912 C 0.63406 0.8049 0.90332 0.0
H913 H 0.66603 0.79984 0.94844 0.0
C914 C 0.70176 0.82776 0.93047 0.0
O915 O 0.73817 0.78675 0.9104 0.0
O916 O 0.7106 0.77885 0.9256 0.0
N917 N 0.65709 0.81462 0.88191 0.0
C918 C 0.66334 0.81417 0.86353 0.0
C919 C 0.65 0.81808 0.84917 0.0
C920 C 0.63088 0.82333 0.85451 0.0
C921 C 0.62412 0.81755 0.87246 0.0
C922 C 0.63824 0.81239 0.88591 0.0
H923 H 0.67852 0.81156 0.86028 0.0
O924 O 0.70258 0.77257 0.88373 0.0
O925 O 0.68428 0.79341 0.89685 0.0
O926 O 0.71749 0.8124 0.87851 0.0
O927 O 0.694 0.83284 0.88791 0.0
C928 C 0.60421 0.81555 0.87617 0.0
C929 C 0.59735 0.80944 0.8942 0.0
H930 H 0.59747 0.80565 0.95942 0.0
H931 H 0.63552 0.80123 0.97286 0.0
H932 H 0.65532 0.81629 0.83471 0.0
H933 H 0.62045 0.82965 0.84494 0.0
H934 H 0.5937 0.81869 0.86478 0.0
H935 H 0.58181 0.80915 0.89534 0.0
Mn936 Mn 0.9489 0.45466 0.16908 0.0
Mn937 Mn 0.91851 0.41912 0.16295 0.0
C938 C 0.96043 0.42658 0.14951 0.0
C939 C 0.97249 0.46604 0.19004 0.0
C940 C 0.91379 0.46251 0.14368 0.0
O941 O 0.92696 0.46002 0.19015 0.0
O942 O 0.91202 0.43142 0.18755 0.0
C943 C 0.92204 0.39359 0.19989 0.0
N944 N 0.92407 0.39492 0.17688 0.0
C945 C 0.92175 0.35515 0.16509 0.0
C946 C 0.91812 0.35101 0.20343 0.0
C947 C 0.91902 0.37344 0.21377 0.0
C948 C 0.92374 0.3792 0.16062 0.0
H949 H 0.9229 0.40682 0.20824 0.0
C950 C 0.91449 0.44744 0.19621 0.0
O951 O 0.96327 0.4777 0.17825 0.0
O952 O 0.9675 0.44789 0.19011 0.0
N953 N 0.92289 0.40448 0.1396 0.0
C954 C 0.92898 0.41001 0.12187 0.0
C955 C 0.92454 0.39847 0.10611 0.0
C956 C 0.91585 0.38026 0.10957 0.0
C957 C 0.91761 0.37233 0.12764 0.0
C958 C 0.92076 0.38533 0.14268 0.0
H959 H 0.93684 0.42338 0.11967 0.0
O960 O 0.96861 0.4436 0.14868 0.0
O961 O 0.94568 0.42689 0.16186 0.0
O962 O 0.93127 0.46813 0.14703 0.0
O963 O 0.90949 0.44519 0.14968 0.0
C964 C 0.91942 0.35218 0.12987 0.0
C965 C 0.92214 0.34359 0.14789 0.0
H966 H 0.91932 0.33865 0.2131 0.0
H967 H 0.91849 0.3748 0.22949 0.0
H968 H 0.92951 0.40358 0.09222 0.0
H969 H 0.91043 0.37053 0.0989 0.0
H970 H 0.92026 0.343 0.11707 0.0
H971 H 0.92451 0.32832 0.14756 0.0
Mn972 Mn 0.27734 0.69211 0.39931 0.0
Mn973 Mn 0.31579 0.66948 0.40488 0.0
C974 C 0.30732 0.70929 0.3876 0.0
C975 C 0.25811 0.70888 0.42102 0.0
C976 C 0.28338 0.66121 0.37135 0.0
O977 O 0.26996 0.66449 0.41325 0.0
O978 O 0.29791 0.66584 0.42667 0.0
C979 C 0.32957 0.6813 0.44651 0.0
N980 N 0.33409 0.68141 0.42359 0.0
C981 C 0.37548 0.67841 0.42211 0.0
C982 C 0.37028 0.67638 0.4606 0.0
C983 C 0.34584 0.67848 0.46523 0.0
C984 C 0.3535 0.68044 0.41171 0.0
H985 H 0.31459 0.68228 0.45124 0.0
C986 C 0.28222 0.65691 0.42512 0.0
O987 O 0.2506 0.70188 0.40499 0.0
O988 O 0.27638 0.70596 0.42416 0.0
N989 N 0.3343 0.67338 0.38594 0.0
C990 C 0.3312 0.67591 0.36691 0.0
C991 C 0.34673 0.67321 0.35462 0.0
C992 C 0.36468 0.66704 0.36248 0.0
C993 C 0.36833 0.67062 0.38182 0.0
C994 C 0.35221 0.67468 0.39321 0.0
H995 H 0.31681 0.67926 0.36148 0.0
O996 O 0.29013 0.71659 0.38487 0.0
O997 O 0.30551 0.69373 0.39813 0.0
O998 O 0.27516 0.67779 0.37322 0.0
O999 O 0.29675 0.65587 0.38411 0.0
C1000 C 0.38733 0.67183 0.38894 0.0
C1001 C 0.39109 0.67604 0.40833 0.0
H1002 H 0.38034 0.67381 0.47273 0.0
H1003 H 0.34063 0.67793 0.48012 0.0
H1004 H 0.34396 0.67665 0.33972 0.0
H1005 H 0.37661 0.66167 0.35421 0.0
H1006 H 0.39958 0.6697 0.37918 0.0
H1007 H 0.40616 0.67606 0.41196 0.0
Mn1008 Mn 0.05198 0.96265 0.34184 0.0
Mn1009 Mn 0.06314 0.91749 0.33878 0.0
C1010 C 0.03048 0.94016 0.35903 0.0
C1011 C 0.03993 0.98446 0.31958 0.0
C1012 C 0.0811 0.94936 0.36951 0.0
O1013 O 0.0787 0.96246 0.32616 0.0
O1014 O 0.06954 0.93457 0.31634 0.0
C1015 C 0.0529 0.90294 0.29808 0.0
N1016 N 0.04597 0.90243 0.32032 0.0
C1017 C 0.04186 0.86146 0.3275 0.0
C1018 C 0.05718 0.86022 0.29195 0.0
C1019 C 0.05977 0.88367 0.28378 0.0
C1020 C 0.03914 0.88537 0.33384 0.0
H1021 H 0.05461 0.91698 0.29117 0.0
C1022 C 0.08225 0.94759 0.31588 0.0
O1023 O 0.04977 0.99058 0.33469 0.0
O1024 O 0.03681 0.96596 0.318 0.0
N1025 N 0.05631 0.89903 0.3583 0.0
C1026 C 0.07179 0.88902 0.36527 0.0
C1027 C 0.06909 0.87012 0.37276 0.0
C1028 C 0.05059 0.86377 0.37685 0.0
C1029 C 0.03581 0.87129 0.36533 0.0
C1030 C 0.04071 0.8878 0.35354 0.0
H1031 H 0.08604 0.89434 0.36148 0.0
O1032 O 0.02746 0.95879 0.35913 0.0
O1033 O 0.04352 0.93551 0.34622 0.0
O1034 O 0.06842 0.96251 0.36625 0.0
O1035 O 0.08149 0.93305 0.359 0.0
C1036 C 0.02413 0.85667 0.35771 0.0
C1037 C 0.0309 0.84887 0.34038 0.0
H1038 H 0.05968 0.84837 0.28163 0.0
H1039 H 0.06491 0.88629 0.26909 0.0
H1040 H 0.0806 0.8597 0.37483 0.0
H1041 H 0.04909 0.84972 0.38393 0.0
H1042 H 0.01598 0.84727 0.36736 0.0
H1043 H 0.02648 0.83404 0.33755 0.0
Mn1044 Mn 0.77146 0.81294 0.59692 0.0
Mn1045 Mn 0.81399 0.82698 0.58565 0.0
C1046 C 0.79763 0.79233 0.6107 0.0
C1047 C 0.74755 0.79458 0.58291 0.0
C1048 C 0.78567 0.84566 0.6201 0.0
O1049 O 0.76773 0.83827 0.57889 0.0
O1050 O 0.7947 0.8305 0.5651 0.0
C1051 C 0.82486 0.81235 0.54356 0.0
N1052 N 0.82875 0.80983 0.56653 0.0
C1053 C 0.86998 0.80376 0.56787 0.0
C1054 C 0.8664 0.81037 0.53001 0.0
C1055 C 0.8419 0.81363 0.52506 0.0
C1056 C 0.84786 0.80552 0.57817 0.0
H1057 H 0.81006 0.81446 0.53875 0.0
C1058 C 0.78045 0.84174 0.56576 0.0
O1059 O 0.74324 0.80719 0.59645 0.0
O1060 O 0.76487 0.79529 0.57554 0.0
N1061 N 0.83359 0.8224 0.60321 0.0
C1062 C 0.83095 0.82314 0.62236 0.0
C1063 C 0.84559 0.8157 0.63351 0.0
C1064 C 0.86436 0.81393 0.62648 0.0
C1065 C 0.86608 0.81074 0.60726 0.0
C1066 C 0.84916 0.8129 0.59606 0.0
H1067 H 0.81664 0.82513 0.62837 0.0
O1068 O 0.77943 0.78966 0.61457 0.0
O1069 O 0.79948 0.80574 0.59713 0.0
O1070 O 0.77419 0.83109 0.62019 0.0
O1071 O 0.79963 0.8467 0.60651 0.0
C1072 C 0.88313 0.80271 0.6004 0.0
C1073 C 0.88496 0.79811 0.58123 0.0
H1074 H 0.877 0.8112 0.51813 0.0
H1075 H 0.83719 0.81624 0.51022 0.0
H1076 H 0.84125 0.80807 0.64542 0.0
H1077 H 0.87712 0.81288 0.63554 0.0
H1078 H 0.8951 0.79991 0.6102 0.0
H1079 H 0.89774 0.78992 0.57764 0.0
Mn1080 Mn 0.93345 0.51661 0.83802 0.0
Mn1081 Mn 0.91764 0.55878 0.83343 0.0
C1082 C 0.95389 0.54283 0.85319 0.0
C1083 C 0.95099 0.49499 0.81978 0.0
C1084 C 0.90143 0.52592 0.8635 0.0
O1085 O 0.90674 0.51464 0.82083 0.0
O1086 O 0.9133 0.54318 0.81008 0.0
C1087 C 0.93464 0.57387 0.79405 0.0
N1088 N 0.93361 0.57651 0.81724 0.0
C1089 C 0.93661 0.61769 0.82219 0.0
C1090 C 0.93691 0.61585 0.78335 0.0
C1091 C 0.93574 0.5918 0.77672 0.0
C1092 C 0.93457 0.59487 0.83072 0.0
H1093 H 0.93368 0.55935 0.78809 0.0
C1094 C 0.90211 0.52889 0.80959 0.0
O1095 O 0.93962 0.48885 0.83372 0.0
O1096 O 0.94985 0.51316 0.81495 0.0
N1097 N 0.92263 0.57504 0.85412 0.0
C1098 C 0.92303 0.57011 0.87293 0.0
C1099 C 0.92189 0.58485 0.88636 0.0
C1100 C 0.91924 0.60411 0.87977 0.0
C1101 C 0.92485 0.60865 0.86112 0.0
C1102 C 0.92728 0.59304 0.84861 0.0
H1103 H 0.92362 0.55499 0.87726 0.0
O1104 O 0.9578 0.52454 0.85561 0.0
O1105 O 0.93967 0.54428 0.84073 0.0
O1106 O 0.91676 0.51565 0.86248 0.0
O1107 O 0.89934 0.54075 0.85143 0.0
C1108 C 0.92938 0.62775 0.85581 0.0
C1109 C 0.93549 0.63237 0.83712 0.0
H1110 H 0.93681 0.62709 0.77202 0.0
H1111 H 0.93559 0.58792 0.76142 0.0
H1112 H 0.92364 0.58038 0.90114 0.0
H1113 H 0.9151 0.61602 0.88872 0.0
H1114 H 0.92833 0.63938 0.86647 0.0
H1115 H 0.93794 0.64754 0.83482 0.0
Mn1116 Mn 0.21046 0.69199 0.10005 0.0
Mn1117 Mn 0.16962 0.6739 0.09379 0.0
C1118 C 0.18322 0.70879 0.11749 0.0
C1119 C 0.23051 0.71159 0.08244 0.0
C1120 C 0.20376 0.65704 0.12173 0.0
O1121 O 0.21411 0.66741 0.08032 0.0
O1122 O 0.18531 0.67342 0.07007 0.0
C1123 C 0.15296 0.69402 0.05663 0.0
N1124 N 0.15072 0.69041 0.07961 0.0
C1125 C 0.10949 0.68984 0.08509 0.0
C1126 C 0.11075 0.69416 0.04647 0.0
C1127 C 0.13475 0.69549 0.0396 0.0
C1128 C 0.13251 0.68865 0.09324 0.0
H1129 H 0.16744 0.69476 0.05051 0.0
C1130 C 0.20028 0.66331 0.06841 0.0
O1131 O 0.23767 0.70021 0.09587 0.0
O1132 O 0.21213 0.71038 0.07854 0.0
N1133 N 0.15333 0.67523 0.11498 0.0
C1134 C 0.15854 0.67382 0.13368 0.0
C1135 C 0.1441 0.67055 0.14707 0.0
C1136 C 0.12489 0.66757 0.14046 0.0
C1137 C 0.11976 0.67478 0.12251 0.0
C1138 C 0.13503 0.67948 0.1102 0.0
H1139 H 0.17364 0.67486 0.13797 0.0
O1140 O 0.20123 0.71387 0.12003 0.0
O1141 O 0.18258 0.69584 0.10369 0.0
O1142 O 0.21285 0.67313 0.12253 0.0
O1143 O 0.18902 0.65509 0.10954 0.0
C1144 C 0.10035 0.67863 0.11786 0.0
C1145 C 0.09512 0.68626 0.09992 0.0
H1146 H 0.09939 0.69437 0.03526 0.0
H1147 H 0.13842 0.69717 0.02434 0.0
H1148 H 0.1487 0.67113 0.16189 0.0
H1149 H 0.11335 0.66187 0.14907 0.0
H1150 H 0.08895 0.67575 0.12844 0.0
H1151 H 0.07979 0.68793 0.098 0.0
Mn1152 Mn 0.14303 0.56073 0.02153 0.0
Mn1153 Mn 0.14954 0.57569 0.06346 0.0
C1154 C 0.12839 0.53998 0.04786 0.0
C1155 C 0.16074 0.54431 -0.00115 0.0
C1156 C 0.11871 0.59292 0.03193 0.0
O1157 O 0.16045 0.58727 0.0196 0.0
O1158 O 0.17251 0.57963 0.04731 0.0
C1159 C 0.18919 0.55825 0.07782 0.0
N1160 N 0.16599 0.55922 0.0806 0.0
C1161 C 0.16139 0.55504 0.12172 0.0
C1162 C 0.20011 0.55473 0.11975 0.0
C1163 C 0.20665 0.55659 0.09566 0.0
C1164 C 0.15269 0.55782 0.099 0.0
H1165 H 0.19508 0.5597 0.0633 0.0
C1166 C 0.17258 0.59117 0.03333 0.0
O1167 O 0.14642 0.55558 0.99348 0.0
O1168 O 0.16582 0.54447 0.017 0.0
N1169 N 0.12907 0.57089 0.07988 0.0
C1170 C 0.11008 0.57103 0.07545 0.0
C1171 C 0.09705 0.57219 0.09062 0.0
C1172 C 0.10428 0.57474 0.10962 0.0
C1173 C 0.12315 0.56911 0.11341 0.0
C1174 C 0.13492 0.56574 0.09756 0.0
H1175 H 0.10525 0.57072 0.06048 0.0
O1176 O 0.12538 0.53639 0.02956 0.0
O1177 O 0.14118 0.55394 0.04909 0.0
O1178 O 0.11885 0.57756 0.02168 0.0
O1179 O 0.13142 0.59469 0.04626 0.0
C1180 C 0.12933 0.56555 0.1322 0.0
C1181 C 0.14685 0.55662 0.13646 0.0
H1182 H 0.21149 0.55466 0.13096 0.0
H1183 H 0.22192 0.55688 0.09171 0.0
H1184 H 0.08208 0.57063 0.08676 0.0
H1185 H 0.09556 0.57853 0.12187 0.0
H1186 H 0.12037 0.5704 0.14369 0.0
H1187 H 0.14937 0.55343 0.15147 0.0
Mn1188 Mn 0.18747 0.89081 0.27867 0.0
Mn1189 Mn 0.16841 0.89865 0.31989 0.0
C1190 C 0.20537 0.8769 0.30658 0.0
C1191 C 0.206 0.90775 0.25649 0.0
C1192 C 0.15396 0.8668 0.28802 0.0
O1193 O 0.16173 0.90815 0.27379 0.0
O1194 O 0.1649 0.92066 0.30252 0.0
C1195 C 0.17486 0.93895 0.33708 0.0
N1196 N 0.1813 0.91668 0.33854 0.0
C1197 C 0.18554 0.9115 0.37991 0.0
C1198 C 0.17381 0.94834 0.37893 0.0
C1199 C 0.17054 0.95493 0.35538 0.0
C1200 C 0.18631 0.90342 0.35642 0.0
H1201 H 0.17267 0.94536 0.32298 0.0
C1202 C 0.1558 0.92019 0.28679 0.0
O1203 O 0.19531 0.89304 0.25094 0.0
O1204 O 0.20477 0.91321 0.27446 0.0
N1205 N 0.17355 0.87905 0.33721 0.0
C1206 C 0.1716 0.86011 0.33316 0.0
C1207 C 0.16964 0.84774 0.34848 0.0
C1208 C 0.16894 0.85589 0.36722 0.0
C1209 C 0.17902 0.87277 0.37051 0.0
C1210 C 0.18095 0.88473 0.35447 0.0
H1211 H 0.17129 0.85479 0.31844 0.0
O1212 O 0.21036 0.87338 0.28873 0.0
O1213 O 0.19184 0.89042 0.30702 0.0
O1214 O 0.16986 0.86667 0.2785 0.0
O1215 O 0.15154 0.8798 0.30181 0.0
C1216 C 0.18622 0.87767 0.38898 0.0
C1217 C 0.18991 0.89684 0.39392 0.0
H1218 H 0.17278 0.95959 0.39011 0.0
H1219 H 0.16626 0.96972 0.35196 0.0
H1220 H 0.169 0.83272 0.34471 0.0
H1221 H 0.16264 0.84942 0.37969 0.0
H1222 H 0.18663 0.86693 0.40049 0.0
H1223 H 0.19338 0.89944 0.40893 0.0
Mn1224 Mn 0.84334 0.94136 0.52916 0.0
Mn1225 Mn 0.84803 0.91373 0.56583 0.0
C1226 C 0.86006 0.95671 0.55729 0.0
C1227 C 0.82205 0.96209 0.51388 0.0
C1228 C 0.87196 0.90699 0.52797 0.0
O1229 O 0.82281 0.91835 0.52454 0.0
O1230 O 0.82444 0.90447 0.55369 0.0
C1231 C 0.81022 0.91835 0.58946 0.0
N1232 N 0.83307 0.92088 0.58813 0.0
C1233 C 0.84379 0.93062 0.62685 0.0
C1234 C 0.80542 0.92757 0.63065 0.0
C1235 C 0.79586 0.92137 0.60898 0.0
C1236 C 0.84894 0.92559 0.60328 0.0
H1237 H 0.80226 0.91498 0.57654 0.0
C1238 C 0.81611 0.90653 0.53749 0.0
O1239 O 0.8354 0.95285 0.50402 0.0
O1240 O 0.82109 0.95911 0.53243 0.0
N1241 N 0.87007 0.92254 0.57792 0.0
C1242 C 0.88689 0.92729 0.5688 0.0
C1243 C 0.90262 0.93152 0.57999 0.0
C1244 C 0.89993 0.93134 0.59988 0.0
C1245 C 0.88231 0.92695 0.60951 0.0
C1246 C 0.86728 0.92452 0.59711 0.0
H1247 H 0.88829 0.92779 0.55322 0.0
O1248 O 0.86199 0.9632 0.53965 0.0
O1249 O 0.84832 0.94112 0.55713 0.0
O1250 O 0.86766 0.92358 0.52037 0.0
O1251 O 0.86376 0.90222 0.54386 0.0
C1252 C 0.8787 0.92692 0.63004 0.0
C1253 C 0.86073 0.93163 0.63852 0.0
H1254 H 0.79574 0.93195 0.64241 0.0
H1255 H 0.7802 0.92013 0.60741 0.0
H1256 H 0.91652 0.93536 0.57345 0.0
H1257 H 0.91221 0.93664 0.60642 0.0
H1258 H 0.88958 0.92313 0.64039 0.0
H1259 H 0.86053 0.93383 0.65412 0.0
Mn1260 Mn 0.79889 0.59325 0.77321 0.0
Mn1261 Mn 0.81848 0.58725 0.81364 0.0
C1262 C 0.78268 0.61012 0.80117 0.0
C1263 C 0.7781 0.57526 0.75404 0.0
C1264 C 0.8339 0.61589 0.77913 0.0
O1265 O 0.82374 0.57391 0.76866 0.0
O1266 O 0.81918 0.56373 0.79778 0.0
C1267 C 0.79968 0.5494 0.83039 0.0
N1268 N 0.80296 0.5724 0.83285 0.0
C1269 C 0.8041 0.57738 0.87415 0.0
C1270 C 0.80022 0.53874 0.87245 0.0
C1271 C 0.79866 0.53215 0.8484 0.0
C1272 C 0.80484 0.58581 0.85119 0.0
H1273 H 0.79878 0.54343 0.81586 0.0
C1274 C 0.82883 0.56234 0.78249 0.0
O1275 O 0.78887 0.5889 0.74637 0.0
O1276 O 0.7805 0.57144 0.77228 0.0
N1277 N 0.81695 0.60817 0.83028 0.0
C1278 C 0.81781 0.62696 0.82536 0.0
C1279 C 0.82167 0.64012 0.83989 0.0
C1280 C 0.82551 0.6332 0.85885 0.0
C1281 C 0.81857 0.61513 0.86395 0.0
C1282 C 0.81353 0.60299 0.84865 0.0
H1283 H 0.81616 0.63142 0.81036 0.0
O1284 O 0.77705 0.61279 0.78337 0.0
O1285 O 0.79594 0.59662 0.80129 0.0
O1286 O 0.81761 0.61618 0.77024 0.0
O1287 O 0.83633 0.6037 0.79381 0.0
C1288 C 0.81533 0.61014 0.88341 0.0
C1289 C 0.80793 0.59206 0.88862 0.0
H1290 H 0.80034 0.52739 0.88366 0.0
H1291 H 0.79713 0.51692 0.84456 0.0
H1292 H 0.82089 0.655 0.83556 0.0
H1293 H 0.83163 0.64168 0.87028 0.0
H1294 H 0.81845 0.62059 0.89487 0.0
H1295 H 0.80671 0.58989 0.90397 0.0
Mn1296 Mn 0.14713 0.44465 0.96473 0.0
Mn1297 Mn 0.15406 0.42461 0.92489 0.0
C1298 C 0.13317 0.46196 0.93582 0.0
C1299 C 0.16395 0.46495 0.98482 0.0
C1300 C 0.12272 0.41131 0.95773 0.0
O1301 O 0.16453 0.41877 0.97048 0.0
O1302 O 0.17667 0.42247 0.94196 0.0
C1303 C 0.19384 0.44066 0.90993 0.0
N1304 N 0.17079 0.43906 0.90643 0.0
C1305 C 0.16755 0.43796 0.865 0.0
C1306 C 0.20627 0.43892 0.8684 0.0
C1307 C 0.21191 0.44021 0.89271 0.0
C1308 C 0.15809 0.43803 0.8875 0.0
H1309 H 0.19921 0.44122 0.92471 0.0
C1310 C 0.1766 0.41297 0.95742 0.0
O1311 O 0.14996 0.45407 0.9917 0.0
O1312 O 0.16984 0.46163 0.96726 0.0
N1313 N 0.13404 0.42744 0.90731 0.0
C1314 C 0.11502 0.42803 0.91133 0.0
C1315 C 0.10228 0.42515 0.89618 0.0
C1316 C 0.1098 0.42066 0.87761 0.0
C1317 C 0.12855 0.42616 0.87338 0.0
C1318 C 0.14029 0.43043 0.88923 0.0
H1319 H 0.10997 0.43011 0.92609 0.0
O1320 O 0.12969 0.46768 0.95343 0.0
O1321 O 0.14575 0.44784 0.93654 0.0
O1322 O 0.12291 0.42769 0.96631 0.0
O1323 O 0.13556 0.40791 0.94385 0.0
C1324 C 0.13458 0.42902 0.85419 0.0
C1325 C 0.15329 0.43523 0.84987 0.0
H1326 H 0.21806 0.43786 0.85769 0.0
H1327 H 0.22703 0.44062 0.89722 0.0
H1328 H 0.08729 0.42714 0.8997 0.0
H1329 H 0.10148 0.4152 0.86575 0.0
H1330 H 0.12448 0.4266 0.84225 0.0
H1331 H 0.15615 0.43642 0.83467 0.0
Mn1332 Mn 0.30356 0.90471 0.21319 0.0
Mn1333 Mn 0.32451 0.90761 0.17246 0.0
C1334 C 0.28507 0.89173 0.18481 0.0
C1335 C 0.28408 0.92107 0.23449 0.0
C1336 C 0.33463 0.87678 0.20674 0.0
O1337 O 0.33114 0.92014 0.21773 0.0
O1338 O 0.32951 0.93066 0.18824 0.0
C1339 C 0.31379 0.94802 0.1548 0.0
N1340 N 0.31232 0.92481 0.15279 0.0
C1341 C 0.31317 0.91886 0.1116 0.0
C1342 C 0.3173 0.95747 0.11258 0.0
C1343 C 0.31667 0.96475 0.13648 0.0
C1344 C 0.31177 0.91092 0.13469 0.0
H1345 H 0.31395 0.95432 0.16922 0.0
C1346 C 0.33881 0.93023 0.20384 0.0
O1347 O 0.29588 0.90755 0.24059 0.0
O1348 O 0.28698 0.9279 0.21708 0.0
N1349 N 0.31919 0.88703 0.1561 0.0
C1350 C 0.31648 0.86845 0.16121 0.0
C1351 C 0.31801 0.85459 0.14685 0.0
C1352 C 0.32347 0.86043 0.12796 0.0
C1353 C 0.32009 0.87937 0.12254 0.0
C1354 C 0.3171 0.89247 0.1376 0.0
H1355 H 0.31387 0.86453 0.17623 0.0
O1356 O 0.27935 0.88894 0.20256 0.0
O1357 O 0.30016 0.9033 0.18483 0.0
O1358 O 0.3184 0.87918 0.2151 0.0
O1359 O 0.33936 0.88845 0.19227 0.0
C1360 C 0.31806 0.88449 0.10297 0.0
C1361 C 0.31415 0.90347 0.09739 0.0
H1362 H 0.31995 0.96833 0.10118 0.0
H1363 H 0.31824 0.98004 0.14003 0.0
H1364 H 0.31436 0.84014 0.1512 0.0
H1365 H 0.32807 0.85082 0.11671 0.0
H1366 H 0.31935 0.87346 0.09171 0.0
H1367 H 0.31347 0.90553 0.08197 0.0
Mn1368 Mn 0.8548 0.04454 0.45651 0.0
Mn1369 Mn 0.84868 0.0651 0.41708 0.0
C1370 C 0.87334 0.03008 0.42864 0.0
C1371 C 0.83417 0.02562 0.47447 0.0
C1372 C 0.87583 0.08049 0.4528 0.0
O1373 O 0.83478 0.06878 0.46128 0.0
O1374 O 0.82472 0.06388 0.4324 0.0
C1375 C 0.8124 0.04458 0.39898 0.0
N1376 N 0.83519 0.04935 0.39706 0.0
C1377 C 0.84065 0.05284 0.35598 0.0
C1378 C 0.80227 0.04668 0.35685 0.0
C1379 C 0.79546 0.04351 0.38067 0.0
C1380 C 0.84873 0.05289 0.37905 0.0
H1381 H 0.80632 0.04257 0.41336 0.0
C1382 C 0.82269 0.0732 0.44779 0.0
O1383 O 0.84804 0.03543 0.48307 0.0
O1384 O 0.83325 0.02605 0.45568 0.0
N1385 N 0.86993 0.06551 0.40086 0.0
C1386 C 0.88853 0.06725 0.40621 0.0
C1387 C 0.90169 0.07246 0.39213 0.0
C1388 C 0.89486 0.07676 0.37323 0.0
C1389 C 0.87734 0.06897 0.36745 0.0
C1390 C 0.8653 0.06251 0.38228 0.0
H1391 H 0.89283 0.06516 0.4212 0.0
O1392 O 0.87538 0.02352 0.44628 0.0
O1393 O 0.8595 0.04293 0.4287 0.0
O1394 O 0.87686 0.06385 0.46096 0.0
O1395 O 0.86376 0.08297 0.438 0.0
C1396 C 0.87286 0.06632 0.34778 0.0
C1397 C 0.8553 0.05815 0.34193 0.0
H1398 H 0.79107 0.04671 0.34546 0.0
H1399 H 0.7803 0.04089 0.38418 0.0
H1400 H 0.91651 0.07226 0.39673 0.0
H1401 H 0.90313 0.08394 0.36226 0.0
H1402 H 0.88328 0.07055 0.33667 0.0
H1403 H 0.85343 0.05748 0.32649 0.0
Mn1404 Mn 0.68012 0.57966 0.71487 0.0
Mn1405 Mn 0.66341 0.57905 0.67212 0.0
C1406 C 0.69958 0.59761 0.69001 0.0
C1407 C 0.69925 0.56189 0.7354 0.0
C1408 C 0.64717 0.60548 0.70801 0.0
O1409 O 0.65406 0.56147 0.71551 0.0
O1410 O 0.66002 0.55389 0.68583 0.0
C1411 C 0.68006 0.542 0.65149 0.0
N1412 N 0.67932 0.56533 0.65204 0.0
C1413 C 0.68214 0.57564 0.61162 0.0
C1414 C 0.68197 0.53689 0.60836 0.0
C1415 C 0.68086 0.52717 0.63139 0.0
C1416 C 0.6803 0.58111 0.6355 0.0
H1417 H 0.67887 0.53417 0.66509 0.0
C1418 C 0.64914 0.55153 0.70039 0.0
O1419 O 0.68631 0.57395 0.74228 0.0
O1420 O 0.69806 0.55742 0.71708 0.0
N1421 N 0.66766 0.60164 0.65809 0.0
C1422 C 0.66796 0.61975 0.66529 0.0
C1423 C 0.66689 0.63494 0.65231 0.0
C1424 C 0.66436 0.63085 0.63239 0.0
C1425 C 0.6701 0.61293 0.62559 0.0
C1426 C 0.67262 0.59853 0.63956 0.0
H1427 H 0.66857 0.62227 0.6808 0.0
O1428 O 0.70355 0.59862 0.70842 0.0
O1429 O 0.68574 0.58488 0.68729 0.0
O1430 O 0.66258 0.6034 0.718 0.0
O1431 O 0.64499 0.59502 0.69201 0.0
C1432 C 0.6747 0.61017 0.60596 0.0
C1433 C 0.68093 0.59231 0.59895 0.0
H1434 H 0.68162 0.52712 0.59573 0.0
H1435 H 0.68048 0.51151 0.63323 0.0
H1436 H 0.6687 0.64906 0.65848 0.0
H1437 H 0.66028 0.64133 0.62173 0.0
H1438 H 0.67349 0.62221 0.59577 0.0
H1439 H 0.68318 0.59194 0.58352 0.0
Mn1440 Mn 0.53308 0.66028 0.54395 0.0
Mn1441 Mn 0.57124 0.66099 0.56807 0.0
C1442 C 0.56221 0.64629 0.52725 0.0
C1443 C 0.51493 0.68289 0.52743 0.0
C1444 C 0.53556 0.6307 0.57388 0.0
O1445 O 0.52629 0.67392 0.57186 0.0
O1446 O 0.55557 0.68434 0.57233 0.0
C1447 C 0.58974 0.7014 0.55913 0.0
N1448 N 0.59181 0.67818 0.55768 0.0
C1449 C 0.63263 0.67205 0.56229 0.0
C1450 C 0.63142 0.71065 0.56674 0.0
C1451 C 0.60773 0.71802 0.56393 0.0
C1452 C 0.6098 0.66422 0.55862 0.0
H1453 H 0.57541 0.70777 0.55785 0.0
C1454 C 0.53941 0.68402 0.58053 0.0
O1455 O 0.50693 0.66725 0.53471 0.0
O1456 O 0.5334 0.68551 0.53013 0.0
N1457 N 0.58772 0.64033 0.56378 0.0
C1458 C 0.58262 0.62186 0.56039 0.0
C1459 C 0.5967 0.60784 0.56261 0.0
C1460 C 0.61525 0.61337 0.56943 0.0
C1461 C 0.62102 0.63237 0.56706 0.0
C1462 C 0.60635 0.64565 0.56321 0.0
H1463 H 0.56782 0.61813 0.55654 0.0
O1464 O 0.54501 0.64544 0.51944 0.0
O1465 O 0.56116 0.65679 0.54298 0.0
O1466 O 0.52838 0.63404 0.55712 0.0
O1467 O 0.54985 0.64179 0.58031 0.0
C1468 C 0.64069 0.63747 0.56696 0.0
C1469 C 0.64661 0.65658 0.56429 0.0
H1470 H 0.64256 0.72143 0.57057 0.0
H1471 H 0.60411 0.73331 0.56528 0.0
H1472 H 0.59242 0.5935 0.55842 0.0
H1473 H 0.62607 0.60357 0.57459 0.0
H1474 H 0.65177 0.62637 0.56895 0.0
H1475 H 0.66198 0.65859 0.56519 0.0
Mn1476 Mn 0.02921 0.34087 0.93752 0.0
Mn1477 Mn 0.07084 0.33729 0.91966 0.0
C1478 C 0.05595 0.35637 0.9567 0.0
C1479 C 0.00781 0.32312 0.95552 0.0
C1480 C 0.03654 0.36628 0.90502 0.0
O1481 O 0.02658 0.32358 0.91105 0.0
O1482 O 0.05574 0.31348 0.91607 0.0
C1483 C 0.08835 0.29851 0.93552 0.0
N1484 N 0.08997 0.32179 0.93466 0.0
C1485 C 0.13107 0.32843 0.93551 0.0
C1486 C 0.13082 0.28959 0.93536 0.0
C1487 C 0.10702 0.28195 0.9354 0.0
C1488 C 0.10783 0.33601 0.9348 0.0
H1489 H 0.07404 0.29195 0.93521 0.0
C1490 C 0.04083 0.31267 0.90573 0.0
O1491 O 0.00163 0.33672 0.9438 0.0
O1492 O 0.02595 0.31806 0.95437 0.0
N1493 N 0.08654 0.3586 0.92387 0.0
C1494 C 0.08097 0.37722 0.92452 0.0
C1495 C 0.09516 0.39117 0.92248 0.0
C1496 C 0.11444 0.38526 0.91868 0.0
C1497 C 0.11996 0.36686 0.92418 0.0
C1498 C 0.10495 0.3538 0.92756 0.0
H1499 H 0.06578 0.38104 0.9259 0.0
O1500 O 0.0378 0.35861 0.96135 0.0
O1501 O 0.0571 0.34383 0.94252 0.0
O1502 O 0.02732 0.3652 0.92095 0.0
O1503 O 0.05147 0.35457 0.90213 0.0
C1504 C 0.13945 0.36237 0.92778 0.0
C1505 C 0.14509 0.34394 0.93376 0.0
H1506 H 0.14249 0.27875 0.93449 0.0
H1507 H 0.10375 0.26651 0.93524 0.0
H1508 H 0.09034 0.40578 0.92447 0.0
H1509 H 0.12578 0.39459 0.91377 0.0
H1510 H 0.1506 0.37346 0.92607 0.0
H1511 H 0.16046 0.34227 0.93549 0.0
Mn1512 Mn 0.39251 0.77356 0.19274 0.0
Mn1513 Mn 0.40048 0.81286 0.17178 0.0
C1514 C 0.38042 0.80336 0.20997 0.0
C1515 C 0.41004 0.75283 0.21242 0.0
C1516 C 0.36712 0.78149 0.15999 0.0
O1517 O 0.40876 0.76676 0.16612 0.0
O1518 O 0.42217 0.79477 0.16887 0.0
C1519 C 0.44144 0.82578 0.18659 0.0
N1520 N 0.41858 0.8305 0.18554 0.0
C1521 C 0.41758 0.872 0.18414 0.0
C1522 C 0.45607 0.86654 0.18412 0.0
C1523 C 0.4604 0.84199 0.1855 0.0
C1524 C 0.40691 0.85005 0.18466 0.0
H1525 H 0.44599 0.81074 0.18717 0.0
C1526 C 0.421 0.77932 0.15945 0.0
O1527 O 0.39483 0.74657 0.20288 0.0
O1528 O 0.41577 0.77043 0.20912 0.0
N1529 N 0.38151 0.83145 0.17509 0.0
C1530 C 0.36232 0.82848 0.17621 0.0
C1531 C 0.35037 0.84427 0.17346 0.0
C1532 C 0.35876 0.86235 0.16853 0.0
C1533 C 0.37787 0.86561 0.17345 0.0
C1534 C 0.38883 0.84921 0.1776 0.0
H1535 H 0.35652 0.81405 0.17864 0.0
O1536 O 0.3764 0.78603 0.2162 0.0
O1537 O 0.3924 0.80181 0.1954 0.0
O1538 O 0.36761 0.77285 0.17641 0.0
O1539 O 0.38047 0.79473 0.156 0.0
C1540 C 0.38503 0.88446 0.17592 0.0
C1541 C 0.4041 0.88783 0.18162 0.0
H1542 H 0.4684 0.87658 0.18265 0.0
H1543 H 0.47526 0.83669 0.18558 0.0
H1544 H 0.33526 0.84159 0.17594 0.0
H1545 H 0.35095 0.87459 0.16319 0.0
H1546 H 0.37554 0.8969 0.17365 0.0
H1547 H 0.40782 0.90287 0.18259 0.0
Mn1548 Mn 0.96064 0.16333 0.44225 0.0
Mn1549 Mn 0.91998 0.16238 0.4214 0.0
C1550 C 0.93479 0.14349 0.45855 0.0
C1551 C 0.97865 0.18112 0.4637 0.0
C1552 C 0.95865 0.13873 0.40809 0.0
O1553 O 0.96274 0.18244 0.4169 0.0
O1554 O 0.93207 0.18804 0.41962 0.0
C1555 C 0.89682 0.19795 0.43747 0.0
N1556 N 0.89811 0.17473 0.43552 0.0
C1557 C 0.85817 0.16319 0.43311 0.0
C1558 C 0.85368 0.20176 0.43463 0.0
C1559 C 0.87632 0.21216 0.43672 0.0
C1560 C 0.88216 0.15848 0.43378 0.0
H1561 H 0.91021 0.20617 0.43849 0.0
C1562 C 0.94747 0.19131 0.41057 0.0
O1563 O 0.98712 0.1702 0.4507 0.0
O1564 O 0.96033 0.18498 0.46109 0.0
N1565 N 0.90679 0.13913 0.42375 0.0
C1566 C 0.91457 0.12132 0.42405 0.0
C1567 C 0.9024 0.10585 0.4204 0.0
C1568 C 0.88283 0.10952 0.41544 0.0
C1569 C 0.8747 0.12687 0.42123 0.0
C1570 C 0.88771 0.14149 0.42619 0.0
H1571 H 0.93001 0.11935 0.42636 0.0
O1572 O 0.95274 0.14312 0.46426 0.0
O1573 O 0.93294 0.15669 0.44503 0.0
O1574 O 0.96673 0.14044 0.42457 0.0
O1575 O 0.94247 0.14845 0.40466 0.0
C1576 C 0.85458 0.12887 0.42346 0.0
C1577 C 0.8463 0.14623 0.42963 0.0
H1578 H 0.84086 0.21117 0.43336 0.0
H1579 H 0.87767 0.22786 0.43744 0.0
H1580 H 0.90889 0.09187 0.4221 0.0
H1581 H 0.87316 0.09904 0.40934 0.0
H1582 H 0.84503 0.11661 0.42048 0.0
H1583 H 0.83073 0.14602 0.4301 0.0
Mn1584 Mn 0.09299 0.21181 0.68499 0.0
Mn1585 Mn 0.08451 0.17054 0.66911 0.0
C1586 C 0.11126 0.18543 0.70238 0.0
C1587 C 0.0775 0.23414 0.70364 0.0
C1588 C 0.11217 0.20418 0.64879 0.0
O1589 O 0.07212 0.21406 0.66122 0.0
O1590 O 0.06067 0.18596 0.66875 0.0
C1591 C 0.04773 0.15309 0.69229 0.0
N1592 N 0.07062 0.15199 0.68724 0.0
C1593 C 0.07853 0.11146 0.68889 0.0
C1594 C 0.04031 0.10962 0.69449 0.0
C1595 C 0.03167 0.13356 0.69527 0.0
C1596 C 0.08505 0.13463 0.68623 0.0
H1597 H 0.04086 0.16726 0.69209 0.0
C1598 C 0.05953 0.20059 0.65797 0.0
O1599 O 0.08996 0.23961 0.6904 0.0
O1600 O 0.07291 0.21584 0.70472 0.0
N1601 N 0.10598 0.15482 0.67032 0.0
C1602 C 0.12434 0.16084 0.66799 0.0
C1603 C 0.13869 0.14709 0.66655 0.0
C1604 C 0.13404 0.12758 0.6688 0.0
C1605 C 0.1166 0.12306 0.67761 0.0
C1606 C 0.10244 0.13739 0.67784 0.0
H1607 H 0.12774 0.17611 0.66757 0.0
O1608 O 0.11412 0.20374 0.7061 0.0
O1609 O 0.0963 0.18404 0.69047 0.0
O1610 O 0.11439 0.21299 0.66483 0.0
O1611 O 0.09958 0.18944 0.64816 0.0
C1612 C 0.11368 0.10532 0.68661 0.0
C1613 C 0.09522 0.09871 0.69091 0.0
H1614 H 0.03021 0.09744 0.69658 0.0
H1615 H 0.01631 0.13628 0.69764 0.0
H1616 H 0.15282 0.15246 0.66531 0.0
H1617 H 0.14357 0.11611 0.66476 0.0
H1618 H 0.12598 0.0967 0.69054 0.0
H1619 H 0.0951 0.08395 0.69629 0.0
Mn1620 Mn 0.46696 0.34262 0.56137 0.0
Mn1621 Mn 0.42527 0.33277 0.57826 0.0
C1622 C 0.43993 0.3556 0.54138 0.0
C1623 C 0.49071 0.32815 0.54372 0.0
C1624 C 0.45487 0.3671 0.59371 0.0
O1625 O 0.47154 0.32541 0.58702 0.0
O1626 O 0.44396 0.31168 0.5812 0.0
C1627 C 0.4128 0.29099 0.56361 0.0
N1628 N 0.40882 0.31403 0.56268 0.0
C1629 C 0.36738 0.31582 0.55895 0.0
C1630 C 0.37124 0.27754 0.56246 0.0
C1631 C 0.39582 0.27244 0.56424 0.0
C1632 C 0.38955 0.32594 0.56039 0.0
H1633 H 0.42766 0.28607 0.56492 0.0
C1634 C 0.45913 0.31222 0.59121 0.0
O1635 O 0.49499 0.34195 0.55605 0.0
O1636 O 0.47333 0.32077 0.5443 0.0
N1637 N 0.40613 0.35088 0.57476 0.0
C1638 C 0.4097 0.36982 0.57313 0.0
C1639 C 0.39466 0.38082 0.56639 0.0
C1640 C 0.3755 0.37478 0.56902 0.0
C1641 C 0.37252 0.35538 0.56735 0.0
C1642 C 0.38922 0.34372 0.56803 0.0
H1643 H 0.42435 0.37539 0.57298 0.0
O1644 O 0.45803 0.35932 0.53767 0.0
O1645 O 0.43869 0.34273 0.55553 0.0
O1646 O 0.4652 0.36659 0.57841 0.0
O1647 O 0.44117 0.35359 0.59638 0.0
C1648 C 0.35453 0.34875 0.56119 0.0
C1649 C 0.35208 0.32965 0.55603 0.0
H1650 H 0.36064 0.26562 0.56315 0.0
H1651 H 0.40061 0.25748 0.56567 0.0
H1652 H 0.39855 0.39229 0.55781 0.0
H1653 H 0.36318 0.38445 0.56967 0.0
H1654 H 0.34245 0.35878 0.55938 0.0
H1655 H 0.33865 0.32655 0.54902 0.0
Mn1656 Mn 0.40795 0.71362 0.30984 0.0
Mn1657 Mn 0.40944 0.67158 0.32811 0.0
C1658 C 0.3936 0.68705 0.28968 0.0
C1659 C 0.42508 0.73526 0.29153 0.0
C1660 C 0.37995 0.70627 0.34061 0.0
O1661 O 0.42363 0.71585 0.33752 0.0
O1662 O 0.43306 0.68624 0.3338 0.0
C1663 C 0.4492 0.6533 0.31612 0.0
N1664 N 0.42592 0.65212 0.31469 0.0
C1665 C 0.41864 0.61115 0.31314 0.0
C1666 C 0.45731 0.61072 0.31703 0.0
C1667 C 0.46534 0.63436 0.31779 0.0
C1668 C 0.41144 0.63453 0.31315 0.0
H1669 H 0.45598 0.66747 0.31708 0.0
C1670 C 0.43328 0.70116 0.34413 0.0
O1671 O 0.41204 0.7413 0.30391 0.0
O1672 O 0.43128 0.7175 0.29349 0.0
N1673 N 0.3883 0.65622 0.32195 0.0
C1674 C 0.3699 0.66212 0.31973 0.0
C1675 C 0.35554 0.64819 0.32042 0.0
C1676 C 0.36072 0.62878 0.32454 0.0
C1677 C 0.37948 0.62295 0.32074 0.0
C1678 C 0.39309 0.63773 0.31865 0.0
H1679 H 0.36652 0.67739 0.31812 0.0
O1680 O 0.39161 0.70523 0.2851 0.0
O1681 O 0.40529 0.6856 0.30462 0.0
O1682 O 0.38259 0.71561 0.32495 0.0
O1683 O 0.39106 0.69108 0.34427 0.0
C1684 C 0.38396 0.60339 0.31757 0.0
C1685 C 0.40279 0.59742 0.31342 0.0
H1686 H 0.46781 0.59886 0.31893 0.0
H1687 H 0.48075 0.63733 0.31946 0.0
H1688 H 0.34123 0.65329 0.31726 0.0
H1689 H 0.35072 0.61761 0.32848 0.0
H1690 H 0.37255 0.59244 0.31822 0.0
H1691 H 0.40435 0.58202 0.31195 0.0
Mn1692 Mn 0.59684 0.78277 0.79225 0.0
Mn1693 Mn 0.59327 0.82224 0.81342 0.0
C1694 C 0.61443 0.81041 0.77629 0.0
C1695 C 0.57437 0.76514 0.77517 0.0
C1696 C 0.62113 0.78608 0.82624 0.0
O1697 O 0.57894 0.7782 0.81815 0.0
O1698 O 0.56904 0.8073 0.81436 0.0
C1699 C 0.55559 0.84092 0.79623 0.0
N1700 N 0.57872 0.84255 0.79906 0.0
C1701 C 0.58502 0.88352 0.80232 0.0
C1702 C 0.54624 0.88313 0.79941 0.0
C1703 C 0.53887 0.85942 0.79669 0.0
C1704 C 0.59275 0.86036 0.80155 0.0
H1705 H 0.54917 0.82663 0.79467 0.0
C1706 C 0.56755 0.79186 0.82371 0.0
O1707 O 0.5889 0.75635 0.78376 0.0
O1708 O 0.57375 0.78393 0.77564 0.0
N1709 N 0.61471 0.83819 0.81191 0.0
C1710 C 0.63331 0.83264 0.812 0.0
C1711 C 0.64704 0.84651 0.81631 0.0
C1712 C 0.64083 0.86542 0.82137 0.0
C1713 C 0.6228 0.87147 0.81512 0.0
C1714 C 0.61007 0.85685 0.80957 0.0
H1715 H 0.63721 0.81762 0.80945 0.0
O1716 O 0.61564 0.79279 0.76953 0.0
O1717 O 0.60177 0.81052 0.7903 0.0
O1718 O 0.6205 0.77794 0.80957 0.0
O1719 O 0.60956 0.80103 0.82979 0.0
C1720 C 0.61837 0.89121 0.81307 0.0
C1721 C 0.60025 0.89734 0.80651 0.0
H1722 H 0.53524 0.89464 0.80046 0.0
H1723 H 0.5235 0.85611 0.79535 0.0
H1724 H 0.66174 0.84175 0.81492 0.0
H1725 H 0.64981 0.87622 0.82795 0.0
H1726 H 0.62926 0.90215 0.81651 0.0
H1727 H 0.59852 0.9128 0.80622 0.0
Mn1728 Mn 0.54259 0.52774 0.63371 0.0
Mn1729 Mn 0.56323 0.56636 0.6434 0.0
C1730 C 0.52721 0.55731 0.61899 0.0
C1731 C 0.52407 0.50943 0.65493 0.0
C1732 C 0.57768 0.53458 0.61116 0.0
O1733 O 0.56764 0.5205 0.65173 0.0
O1734 O 0.56289 0.54766 0.66548 0.0
C1735 C 0.54373 0.57969 0.68237 0.0
N1736 N 0.54746 0.58434 0.65977 0.0
C1737 C 0.54929 0.62598 0.65897 0.0
C1738 C 0.54483 0.62047 0.69725 0.0
C1739 C 0.54276 0.5959 0.70135 0.0
C1740 C 0.54983 0.60394 0.64829 0.0
H1741 H 0.54256 0.56465 0.68685 0.0
C1742 C 0.57223 0.53196 0.66565 0.0
O1743 O 0.53226 0.50096 0.63996 0.0
O1744 O 0.52564 0.52799 0.65627 0.0
N1745 N 0.56268 0.58527 0.62433 0.0
C1746 C 0.56336 0.58232 0.6051 0.0
C1747 C 0.56741 0.59808 0.59346 0.0
C1748 C 0.5715 0.61616 0.60226 0.0
C1749 C 0.56447 0.61947 0.62072 0.0
C1750 C 0.55912 0.60306 0.63121 0.0
H1751 H 0.56141 0.56792 0.59908 0.0
O1752 O 0.52045 0.54002 0.61549 0.0
O1753 O 0.54111 0.55577 0.63162 0.0
O1754 O 0.56126 0.52565 0.61043 0.0
O1755 O 0.58062 0.54799 0.62476 0.0
C1756 C 0.56129 0.63836 0.62755 0.0
C1757 C 0.55358 0.64183 0.64591 0.0
H1758 H 0.54499 0.63048 0.70969 0.0
H1759 H 0.54094 0.59057 0.7161 0.0
H1760 H 0.56647 0.5954 0.5782 0.0
H1761 H 0.57775 0.6283 0.59491 0.0
H1762 H 0.56471 0.65077 0.61836 0.0
H1763 H 0.55252 0.65692 0.64961 0.0
Mn1764 Mn 0.21773 0.30551 0.90501 0.0
Mn1765 Mn 0.17628 0.32387 0.90772 0.0
C1766 C 0.19096 0.28656 0.88914 0.0
C1767 C 0.23837 0.28687 0.92285 0.0
C1768 C 0.21135 0.3379 0.87912 0.0
O1769 O 0.22042 0.33198 0.92227 0.0
O1770 O 0.19097 0.32743 0.9318 0.0
C1771 C 0.15793 0.3083 0.94632 0.0
N1772 N 0.15666 0.30922 0.92301 0.0
C1773 C 0.11566 0.30897 0.91578 0.0
C1774 C 0.11533 0.30906 0.95465 0.0
C1775 C 0.13902 0.30866 0.96263 0.0
C1776 C 0.13902 0.30935 0.90854 0.0
H1777 H 0.17215 0.30841 0.95308 0.0
C1778 C 0.20605 0.33752 0.9329 0.0
O1779 O 0.24512 0.29885 0.90975 0.0
O1780 O 0.22028 0.2887 0.92794 0.0
N1781 N 0.16085 0.31971 0.8862 0.0
C1782 C 0.16667 0.31888 0.86767 0.0
C1783 C 0.15273 0.32125 0.85351 0.0
C1784 C 0.13346 0.3255 0.85916 0.0
C1785 C 0.12755 0.32011 0.87749 0.0
C1786 C 0.14229 0.31645 0.89077 0.0
H1787 H 0.1819 0.3172 0.86409 0.0
O1788 O 0.20908 0.2817 0.88721 0.0
O1789 O 0.18981 0.30082 0.90157 0.0
O1790 O 0.22038 0.32191 0.88055 0.0
O1791 O 0.19624 0.34102 0.89058 0.0
C1792 C 0.10792 0.31688 0.88171 0.0
C1793 C 0.1019 0.31097 0.90006 0.0
H1794 H 0.10351 0.31009 0.96532 0.0
H1795 H 0.14205 0.30876 0.97812 0.0
H1796 H 0.15774 0.31916 0.83897 0.0
H1797 H 0.12238 0.33066 0.84965 0.0
H1798 H 0.09697 0.3188 0.87045 0.0
H1799 H 0.08647 0.30951 0.90151 0.0
Mn1800 Mn 0.45243 0.95217 0.15026 0.0
Mn1801 Mn 0.42801 0.91445 0.15405 0.0
C1802 C 0.46718 0.92259 0.13508 0.0
C1803 C 0.47138 0.96954 0.17152 0.0
C1804 C 0.41956 0.94993 0.12398 0.0
O1805 O 0.42608 0.95954 0.1666 0.0
O1806 O 0.42641 0.93047 0.17749 0.0
C1807 C 0.44126 0.89642 0.19354 0.0
N1808 N 0.44003 0.894 0.17033 0.0
C1809 C 0.4347 0.85311 0.16533 0.0
C1810 C 0.43474 0.85489 0.20418 0.0
C1811 C 0.4384 0.87868 0.21085 0.0
C1812 C 0.43744 0.87582 0.15682 0.0
H1813 H 0.44325 0.91084 0.19951 0.0
C1814 C 0.41834 0.94668 0.17775 0.0
O1815 O 0.46324 0.97811 0.15662 0.0
O1816 O 0.46837 0.95114 0.17399 0.0
N1817 N 0.42985 0.89757 0.13336 0.0
C1818 C 0.43141 0.90228 0.11457 0.0
C1819 C 0.42727 0.88805 0.10113 0.0
C1820 C 0.42058 0.86979 0.10773 0.0
C1821 C 0.42509 0.86423 0.12641 0.0
C1822 C 0.43068 0.87904 0.1389 0.0
H1823 H 0.43522 0.91692 0.11022 0.0
O1824 O 0.47516 0.93961 0.1332 0.0
O1825 O 0.4525 0.92414 0.1469 0.0
O1826 O 0.43667 0.95699 0.12545 0.0
O1827 O 0.41419 0.93583 0.13588 0.0
C1828 C 0.42568 0.84462 0.13171 0.0
C1829 C 0.43079 0.83891 0.15039 0.0
H1830 H 0.43218 0.84392 0.21548 0.0
H1831 H 0.43882 0.88253 0.22615 0.0
H1832 H 0.43008 0.89196 0.08636 0.0
H1833 H 0.4141 0.85893 0.09878 0.0
H1834 H 0.4223 0.83343 0.12106 0.0
H1835 H 0.43019 0.82356 0.15268 0.0
Mn1836 Mn 0.77154 0.17796 0.39766 0.0
Mn1837 Mn 0.81457 0.16381 0.40252 0.0
C1838 C 0.79703 0.19997 0.38388 0.0
C1839 C 0.74836 0.19382 0.41583 0.0
C1840 C 0.78316 0.14718 0.37129 0.0
O1841 O 0.7706 0.15058 0.41385 0.0
O1842 O 0.79874 0.15786 0.42529 0.0
C1843 C 0.82842 0.17943 0.44285 0.0
N1844 N 0.83128 0.17988 0.41967 0.0
C1845 C 0.87233 0.18533 0.41539 0.0
C1846 C 0.87014 0.1833 0.45414 0.0
C1847 C 0.84613 0.18048 0.46042 0.0
C1848 C 0.8497 0.18256 0.40648 0.0
H1849 H 0.81392 0.17737 0.44861 0.0
C1850 C 0.78501 0.146 0.42495 0.0
O1851 O 0.74333 0.18261 0.40133 0.0
O1852 O 0.76648 0.19371 0.42104 0.0
N1853 N 0.83088 0.17038 0.3823 0.0
C1854 C 0.8262 0.17116 0.36343 0.0
C1855 C 0.84118 0.1714 0.3502 0.0
C1856 C 0.86046 0.16961 0.35702 0.0
C1857 C 0.86442 0.17479 0.37592 0.0
C1858 C 0.84851 0.17589 0.38827 0.0
H1859 H 0.81115 0.17108 0.35883 0.0
O1860 O 0.77863 0.20312 0.38112 0.0
O1861 O 0.79899 0.18543 0.3959 0.0
O1862 O 0.77208 0.16193 0.37269 0.0
O1863 O 0.79786 0.14536 0.38352 0.0
C1864 C 0.88317 0.18021 0.38166 0.0
C1865 C 0.88721 0.18582 0.40063 0.0
H1866 H 0.88127 0.18314 0.46559 0.0
H1867 H 0.84214 0.17924 0.47564 0.0
H1868 H 0.83687 0.17349 0.33543 0.0
H1869 H 0.87274 0.16649 0.34815 0.0
H1870 H 0.89498 0.18022 0.37114 0.0
H1871 H 0.9022 0.18906 0.40324 0.0
Mn1872 Mn 0.55532 0.46435 0.33265 0.0
Mn1873 Mn 0.57229 0.42194 0.33052 0.0
C1874 C 0.53689 0.43896 0.35092 0.0
C1875 C 0.5358 0.48488 0.31535 0.0
C1876 C 0.58931 0.4573 0.35694 0.0
O1877 O 0.58052 0.46566 0.31345 0.0
O1878 O 0.57438 0.43613 0.30544 0.0
C1879 C 0.55375 0.40204 0.29395 0.0
N1880 N 0.55573 0.4021 0.31723 0.0
C1881 C 0.55394 0.36149 0.32681 0.0
C1882 C 0.55218 0.35901 0.28802 0.0
C1883 C 0.55248 0.38224 0.27874 0.0
C1884 C 0.55577 0.38524 0.3327 0.0
H1885 H 0.55434 0.41582 0.28637 0.0
C1886 C 0.58491 0.45091 0.30279 0.0
O1887 O 0.54869 0.49174 0.3275 0.0
O1888 O 0.53677 0.46655 0.31098 0.0
N1889 N 0.56931 0.40749 0.35307 0.0
C1890 C 0.56996 0.41426 0.37135 0.0
C1891 C 0.57196 0.40094 0.38615 0.0
C1892 C 0.5745 0.38117 0.38146 0.0
C1893 C 0.56787 0.37472 0.3637 0.0
C1894 C 0.56439 0.38899 0.34978 0.0
H1895 H 0.5694 0.42968 0.37433 0.0
O1896 O 0.53269 0.45728 0.35238 0.0
O1897 O 0.55023 0.43671 0.33765 0.0
O1898 O 0.57374 0.46717 0.35572 0.0
O1899 O 0.59127 0.44161 0.346 0.0
C1900 C 0.56327 0.35514 0.36077 0.0
C1901 C 0.55609 0.34849 0.34313 0.0
H1902 H 0.55221 0.3466 0.27799 0.0
H1903 H 0.55202 0.3844 0.26311 0.0
H1904 H 0.57074 0.4067 0.40051 0.0
H1905 H 0.57921 0.37031 0.39148 0.0
H1906 H 0.56522 0.3447 0.3725 0.0
H1907 H 0.55386 0.33307 0.34257 0.0
Mn1908 Mn 0.28018 0.29676 0.58766 0.0
Mn1909 Mn 0.32294 0.31266 0.5856 0.0
C1910 C 0.30519 0.27694 0.60507 0.0
C1911 C 0.25872 0.28195 0.56628 0.0
C1912 C 0.28813 0.3301 0.61253 0.0
O1913 O 0.2801 0.32316 0.57009 0.0
O1914 O 0.3095 0.31753 0.56058 0.0
C1915 C 0.34285 0.2924 0.54902 0.0
N1916 N 0.34289 0.29589 0.5721 0.0
C1917 C 0.38348 0.29975 0.58107 0.0
C1918 C 0.38602 0.29681 0.54237 0.0
C1919 C 0.36264 0.29328 0.53339 0.0
C1920 C 0.35983 0.29835 0.58722 0.0
H1921 H 0.3288 0.29148 0.54189 0.0
C1922 C 0.29477 0.32841 0.55964 0.0
O1923 O 0.2523 0.29236 0.58081 0.0
O1924 O 0.27741 0.27998 0.56458 0.0
N1925 N 0.33634 0.30815 0.60798 0.0
C1926 C 0.32932 0.30889 0.62612 0.0
C1927 C 0.34236 0.31258 0.6406 0.0
C1928 C 0.36123 0.31854 0.63518 0.0
C1929 C 0.36879 0.31137 0.61812 0.0
C1930 C 0.35518 0.30541 0.60463 0.0
H1931 H 0.31392 0.30799 0.62913 0.0
O1932 O 0.28674 0.27288 0.60632 0.0
O1933 O 0.30754 0.2907 0.59215 0.0
O1934 O 0.27818 0.31447 0.61148 0.0
O1935 O 0.30374 0.33194 0.60141 0.0
C1936 C 0.38879 0.31006 0.61493 0.0
C1937 C 0.39629 0.30382 0.59728 0.0
H1938 H 0.39827 0.29818 0.53223 0.0
H1939 H 0.36037 0.2919 0.51783 0.0
H1940 H 0.33596 0.31285 0.65445 0.0
H1941 H 0.37017 0.32827 0.64308 0.0
H1942 H 0.39885 0.31386 0.62642 0.0
H1943 H 0.41198 0.3038 0.59667 0.0
Mn1944 Mn 0.4402 0.02517 0.84377 0.0
Mn1945 Mn 0.41852 0.06424 0.83619 0.0
C1946 C 0.45751 0.05519 0.85497 0.0
C1947 C 0.45966 0.00398 0.82707 0.0
C1948 C 0.4082 0.03305 0.86996 0.0
O1949 O 0.41327 0.01801 0.82832 0.0
O1950 O 0.41522 0.04601 0.81467 0.0
C1951 C 0.4313 0.07746 0.7947 0.0
N1952 N 0.43129 0.0821 0.81761 0.0
C1953 C 0.42909 0.12354 0.81885 0.0
C1954 C 0.42727 0.11819 0.78039 0.0
C1955 C 0.42893 0.09369 0.77588 0.0
C1956 C 0.43058 0.1016 0.82939 0.0
H1957 H 0.43196 0.06245 0.79006 0.0
C1958 C 0.40613 0.03037 0.81618 0.0
O1959 O 0.44971 -0.00187 0.84216 0.0
O1960 O 0.45622 0.02126 0.82043 0.0
N1961 N 0.42225 0.08282 0.85513 0.0
C1962 C 0.42415 0.0798 0.87428 0.0
C1963 C 0.42201 0.09556 0.8864 0.0
C1964 C 0.41672 0.11365 0.87832 0.0
C1965 C 0.42059 0.11695 0.85901 0.0
C1966 C 0.42434 0.10062 0.84778 0.0
H1967 H 0.42684 0.06538 0.87997 0.0
O1968 O 0.46395 0.03795 0.85906 0.0
O1969 O 0.44266 0.05347 0.84332 0.0
O1970 O 0.42471 0.02478 0.86905 0.0
O1971 O 0.40353 0.04607 0.85667 0.0
C1972 C 0.42247 0.13583 0.85181 0.0
C1973 C 0.42705 0.13929 0.8325 0.0
H1974 H 0.42501 0.12824 0.76819 0.0
H1975 H 0.42839 0.08842 0.76101 0.0
H1976 H 0.42521 0.09289 0.90138 0.0
H1977 H 0.41184 0.12589 0.88643 0.0
H1978 H 0.42057 0.14823 0.86144 0.0
H1979 H 0.42761 0.1543 0.8288 0.0
Mn1980 Mn 0.71107 0.20028 0.09118 0.0
Mn1981 Mn 0.67161 0.17794 0.08667 0.0
C1982 C 0.68183 0.21664 0.10545 0.0
C1983 C 0.73047 0.22099 0.07329 0.0
C1984 C 0.70583 0.16758 0.11741 0.0
O1985 O 0.71726 0.17379 0.07449 0.0
O1986 O 0.68799 0.17512 0.06363 0.0
C1987 C 0.65476 0.1912 0.04668 0.0
N1988 N 0.65205 0.19075 0.06988 0.0
C1989 C 0.61083 0.18787 0.0745 0.0
C1990 C 0.61302 0.18672 0.0357 0.0
C1991 C 0.63705 0.18886 0.02922 0.0
C1992 C 0.63359 0.18957 0.08322 0.0
H1993 H 0.66934 0.19216 0.04083 0.0
C1994 C 0.70386 0.16633 0.06364 0.0
O1995 O 0.73771 0.21076 0.08755 0.0
O1996 O 0.71277 0.21719 0.06804 0.0
N1997 N 0.6546 0.18109 0.10715 0.0
C1998 C 0.65921 0.18253 0.12602 0.0
C1999 C 0.64455 0.17986 0.13935 0.0
C2000 C 0.6259 0.17447 0.13268 0.0
C2001 C 0.62091 0.17881 0.11382 0.0
C2002 C 0.6362 0.18307 0.10136 0.0
H2003 H 0.67404 0.18527 0.13054 0.0
O2004 O 0.69927 0.22327 0.10821 0.0
O2005 O 0.68272 0.20216 0.09324 0.0
O2006 O 0.71392 0.18416 0.11594 0.0
O2007 O 0.69165 0.16296 0.10532 0.0
C2008 C 0.60144 0.18047 0.10825 0.0
C2009 C 0.59627 0.18529 0.08935 0.0
H2010 H 0.60203 0.18448 0.02433 0.0
H2011 H 0.64108 0.18863 0.01397 0.0
H2012 H 0.64848 0.18267 0.15412 0.0
H2013 H 0.61449 0.16908 0.14164 0.0
H2014 H 0.58992 0.17811 0.11883 0.0
H2015 H 0.58093 0.18553 0.08688 0.0
Mn2016 Mn 0.65524 0.05317 0.03082 0.0
Mn2017 Mn 0.65931 0.07481 0.07039 0.0
C2018 C 0.64093 0.03591 0.0597 0.0
C2019 C 0.67257 0.03318 0.01068 0.0
C2020 C 0.62882 0.08545 0.03589 0.0
O2021 O 0.67171 0.0801 0.02546 0.0
O2022 O 0.68262 0.07816 0.05465 0.0
C2023 C 0.69937 0.06264 0.08839 0.0
N2024 N 0.67606 0.06215 0.09022 0.0
C2025 C 0.66993 0.06349 0.1313 0.0
C2026 C 0.70863 0.06602 0.13072 0.0
C2027 C 0.71608 0.06495 0.10686 0.0
C2028 C 0.66207 0.06233 0.10816 0.0
H2029 H 0.70579 0.06245 0.07403 0.0
C2030 C 0.68255 0.08734 0.03901 0.0
O2031 O 0.65872 0.0442 0.00384 0.0
O2032 O 0.67834 0.03637 0.02838 0.0
N2033 N 0.63848 0.07093 0.08663 0.0
C2034 C 0.6197 0.06915 0.08161 0.0
C2035 C 0.60598 0.07144 0.09604 0.0
C2036 C 0.61221 0.07705 0.11472 0.0
C2037 C 0.63123 0.07335 0.11986 0.0
C2038 C 0.64389 0.06871 0.10504 0.0
H2039 H 0.61555 0.06642 0.06669 0.0
O2040 O 0.63831 0.02975 0.04207 0.0
O2041 O 0.65319 0.05046 0.05915 0.0
O2042 O 0.63032 0.06884 0.02805 0.0
O2043 O 0.64082 0.09004 0.05017 0.0
C2044 C 0.63676 0.07272 0.13917 0.0
C2045 C 0.65467 0.06586 0.14519 0.0
H2046 H 0.71946 0.06844 0.1422 0.0
H2047 H 0.73146 0.06589 0.10343 0.0
H2048 H 0.59128 0.06835 0.092 0.0
H2049 H 0.60275 0.08183 0.12604 0.0
H2050 H 0.62689 0.07817 0.1496 0.0
H2051 H 0.65671 0.06489 0.16059 0.0
Mn2052 Mn 0.6903 0.38602 0.27192 0.0
Mn2053 Mn 0.67182 0.39681 0.31153 0.0
C2054 C 0.70756 0.37262 0.30127 0.0
C2055 C 0.70964 0.40198 0.25004 0.0
C2056 C 0.6557 0.364 0.28123 0.0
O2057 O 0.66518 0.40446 0.26579 0.0
O2058 O 0.6712 0.41865 0.29272 0.0
C2059 C 0.69044 0.43645 0.32494 0.0
N2060 N 0.68798 0.41357 0.32903 0.0
C2061 C 0.68912 0.41147 0.37067 0.0
C2062 C 0.6917 0.44995 0.36631 0.0
C2063 C 0.69185 0.45496 0.34175 0.0
C2064 C 0.68734 0.40145 0.34834 0.0
H2065 H 0.69012 0.44146 0.31002 0.0
C2066 C 0.66096 0.41837 0.27755 0.0
O2067 O 0.6989 0.38734 0.24439 0.0
O2068 O 0.70805 0.40777 0.26787 0.0
N2069 N 0.67358 0.37749 0.33002 0.0
C2070 C 0.67292 0.35821 0.32695 0.0
C2071 C 0.67013 0.34633 0.34286 0.0
C2072 C 0.66672 0.35493 0.3611 0.0
C2073 C 0.67312 0.37373 0.36396 0.0
C2074 C 0.67808 0.38424 0.34758 0.0
H2075 H 0.67419 0.35224 0.31246 0.0
O2076 O 0.71275 0.36801 0.28372 0.0
O2077 O 0.69411 0.38589 0.30009 0.0
O2078 O 0.67187 0.36275 0.27225 0.0
O2079 O 0.65334 0.37802 0.29424 0.0
C2080 C 0.67621 0.38077 0.38254 0.0
C2081 C 0.68585 0.39804 0.3862 0.0
H2082 H 0.69163 0.46202 0.37676 0.0
H2083 H 0.69263 0.46993 0.33685 0.0
H2084 H 0.67136 0.33106 0.34027 0.0
H2085 H 0.66185 0.34718 0.37363 0.0
H2086 H 0.67062 0.37261 0.39434 0.0
H2087 H 0.68838 0.40134 0.40121 0.0
Mn2088 Mn 0.34885 0.4429 0.53041 0.0
Mn2089 Mn 0.35007 0.41946 0.56871 0.0
C2090 C 0.36437 0.45943 0.55992 0.0
C2091 C 0.32519 0.4604 0.51416 0.0
C2092 C 0.37547 0.41014 0.53053 0.0
O2093 O 0.3324 0.41573 0.52512 0.0
O2094 O 0.3255 0.4139 0.55568 0.0
C2095 C 0.3114 0.43235 0.58719 0.0
N2096 N 0.33459 0.4312 0.58974 0.0
C2097 C 0.33965 0.43001 0.63103 0.0
C2098 C 0.30043 0.43064 0.62882 0.0
C2099 C 0.29404 0.43169 0.60489 0.0
C2100 C 0.34819 0.43028 0.60794 0.0
H2101 H 0.30535 0.43385 0.57274 0.0
C2102 C 0.32344 0.40683 0.5391 0.0
O2103 O 0.33991 0.45301 0.5047 0.0
O2104 O 0.32459 0.45792 0.53278 0.0
N2105 N 0.37321 0.42454 0.58217 0.0
C2106 C 0.39379 0.4216 0.57102 0.0
C2107 C 0.41602 0.41353 0.58124 0.0
C2108 C 0.41819 0.40937 0.60637 0.0
C2109 C 0.3823 0.41829 0.62354 0.0
C2110 C 0.36663 0.425 0.60448 0.0
H2111 H 0.39481 0.4259 0.55606 0.0
O2112 O 0.36571 0.46693 0.5426 0.0
O2113 O 0.35357 0.444 0.55821 0.0
O2114 O 0.3739 0.42731 0.52346 0.0
O2115 O 0.36568 0.40598 0.54613 0.0
C2116 C 0.37321 0.41868 0.64211 0.0
C2117 C 0.35415 0.42563 0.64566 0.0
H2118 H 0.28893 0.42947 0.63984 0.0
H2119 H 0.27878 0.43211 0.60089 0.0
H2120 H 0.42862 0.41164 0.57193 0.0
H2121 H 0.43031 0.40315 0.6127 0.0
H2122 H 0.3806 0.41318 0.65458 0.0
H2123 H 0.35034 0.42541 0.66065 0.0
Mn2124 Mn 0.29358 0.07761 0.78051 0.0
Mn2125 Mn 0.31521 0.07709 0.82016 0.0
C2126 C 0.27622 0.09426 0.8079 0.0
C2127 C 0.27764 0.05563 0.76108 0.0
C2128 C 0.3256 0.10466 0.78314 0.0
O2129 O 0.32079 0.0614 0.77683 0.0
O2130 O 0.31836 0.05242 0.80655 0.0
C2131 C 0.30281 0.03883 0.8417 0.0
N2132 N 0.30269 0.0622 0.84154 0.0
C2133 C 0.30488 0.07177 0.88195 0.0
C2134 C 0.30679 0.03315 0.88461 0.0
C2135 C 0.30518 0.02372 0.86148 0.0
C2136 C 0.30341 0.07765 0.85823 0.0
H2137 H 0.30228 0.03123 0.82793 0.0
C2138 C 0.32757 0.0512 0.791 0.0
O2139 O 0.28661 0.07065 0.75371 0.0
O2140 O 0.27778 0.05351 0.77988 0.0
N2141 N 0.31158 0.09925 0.83458 0.0
C2142 C 0.31014 0.11757 0.82807 0.0
C2143 C 0.31333 0.13235 0.84124 0.0
C2144 C 0.31941 0.12749 0.86019 0.0
C2145 C 0.31527 0.10912 0.86702 0.0
C2146 C 0.30988 0.09541 0.85343 0.0
H2147 H 0.30715 0.12055 0.81291 0.0
O2148 O 0.26967 0.09491 0.79013 0.0
O2149 O 0.29088 0.08223 0.80843 0.0
O2150 O 0.30884 0.10259 0.77567 0.0
O2151 O 0.33032 0.09374 0.79823 0.0
C2152 C 0.31505 0.10525 0.88674 0.0
C2153 C 0.30787 0.08811 0.89442 0.0
H2154 H 0.30926 0.0233 0.89692 0.0
H2155 H 0.30583 0.0081 0.85935 0.0
H2156 H 0.3106 0.14675 0.83607 0.0
H2157 H 0.32489 0.13766 0.87055 0.0
H2158 H 0.32105 0.11581 0.89616 0.0
H2159 H 0.30725 0.0874 0.90996 0.0
Mn2160 Mn 0.64933 0.93739 0.96604 0.0
Mn2161 Mn 0.65627 0.91856 0.92525 0.0
C2162 C 0.63735 0.95662 0.93764 0.0
C2163 C 0.66629 0.95461 0.98889 0.0
C2164 C 0.62337 0.90571 0.95662 0.0
O2165 O 0.66511 0.91024 0.97073 0.0
O2166 O 0.67826 0.91435 0.9427 0.0
C2167 C 0.69726 0.93267 0.91171 0.0
N2168 N 0.67427 0.93255 0.90764 0.0
C2169 C 0.67202 0.933 0.8661 0.0
C2170 C 0.71062 0.93165 0.87045 0.0
C2171 C 0.7157 0.93178 0.89491 0.0
C2172 C 0.66201 0.93287 0.8884 0.0
H2173 H 0.70227 0.93239 0.92663 0.0
C2174 C 0.67713 0.90421 0.95771 0.0
O2175 O 0.65126 0.94409 0.99382 0.0
O2176 O 0.67253 0.95335 0.97112 0.0
N2177 N 0.63686 0.9233 0.90736 0.0
C2178 C 0.61781 0.92479 0.91097 0.0
C2179 C 0.60531 0.92305 0.89544 0.0
C2180 C 0.613 0.91877 0.8769 0.0
C2181 C 0.63213 0.92335 0.87327 0.0
C2182 C 0.64372 0.92642 0.8895 0.0
H2183 H 0.61251 0.92659 0.92567 0.0
O2184 O 0.6336 0.96179 0.95542 0.0
O2185 O 0.64927 0.94189 0.93794 0.0
O2186 O 0.6242 0.92173 0.96575 0.0
O2187 O 0.63639 0.90211 0.94299 0.0
C2188 C 0.63882 0.9264 0.85431 0.0
C2189 C 0.658 0.93151 0.85057 0.0
H2190 H 0.72261 0.93027 0.86 0.0
H2191 H 0.7307 0.93118 0.89979 0.0
H2192 H 0.59037 0.92569 0.89872 0.0
H2193 H 0.60464 0.91414 0.8647 0.0
H2194 H 0.62887 0.92497 0.84209 0.0
H2195 H 0.66134 0.93283 0.83546 0.0
Mn2196 Mn 0.81143 0.39509 0.22468 0.0
Mn2197 Mn 0.83933 0.3941 0.1885 0.0
C2198 C 0.79594 0.38372 0.19461 0.0
C2199 C 0.78949 0.41201 0.2427 0.0
C2200 C 0.84317 0.36522 0.22288 0.0
O2201 O 0.83648 0.41222 0.23219 0.0
O2202 O 0.8467 0.41774 0.2019 0.0
C2203 C 0.82944 0.43282 0.16747 0.0
N2204 N 0.8322 0.40985 0.16514 0.0
C2205 C 0.82935 0.40395 0.1238 0.0
C2206 C 0.82371 0.44314 0.12595 0.0
C2207 C 0.82533 0.44973 0.1498 0.0
C2208 C 0.833 0.39613 0.14674 0.0
H2209 H 0.8294 0.43893 0.18195 0.0
C2210 C 0.84717 0.42167 0.21988 0.0
O2211 O 0.79987 0.39826 0.25067 0.0
O2212 O 0.79503 0.41848 0.22586 0.0
N2213 N 0.83316 0.37173 0.17623 0.0
C2214 C 0.83441 0.3453 0.18423 0.0
C2215 C 0.82955 0.30877 0.15536 0.0
C2216 C 0.83982 0.31346 0.13081 0.0
C2217 C 0.84374 0.358 0.12964 0.0
C2218 C 0.83781 0.37764 0.15022 0.0
H2219 H 0.82885 0.343 0.19856 0.0
O2220 O 0.78871 0.3799 0.21157 0.0
O2221 O 0.8119 0.39451 0.19628 0.0
O2222 O 0.82594 0.36863 0.22881 0.0
O2223 O 0.85071 0.377 0.2104 0.0
C2224 C 0.84426 0.37082 0.11238 0.0
C2225 C 0.83498 0.38952 0.10926 0.0
H2226 H 0.82142 0.45435 0.11483 0.0
H2227 H 0.82365 0.4649 0.15378 0.0
H2228 H 0.82495 0.29502 0.16116 0.0
H2229 H 0.843 0.30378 0.11987 0.0
H2230 H 0.85058 0.36599 0.09892 0.0
H2231 H 0.83444 0.39332 0.09401 0.0
Mn2232 Mn 0.32709 0.54273 0.45821 0.0
Mn2233 Mn 0.32757 0.56565 0.41878 0.0
C2234 C 0.34388 0.52619 0.43059 0.0
C2235 C 0.30573 0.52411 0.47611 0.0
C2236 C 0.35472 0.57471 0.45649 0.0
O2237 O 0.31085 0.56972 0.4627 0.0
O2238 O 0.30294 0.56885 0.43251 0.0
C2239 C 0.2893 0.55397 0.39724 0.0
N2240 N 0.31265 0.55388 0.39711 0.0
C2241 C 0.32183 0.55734 0.35666 0.0
C2242 C 0.28306 0.55928 0.35463 0.0
C2243 C 0.27395 0.55695 0.37777 0.0
C2244 C 0.32796 0.55507 0.38024 0.0
H2245 H 0.28185 0.55294 0.41106 0.0
C2246 C 0.30151 0.57745 0.44841 0.0
O2247 O 0.31987 0.53364 0.48448 0.0
O2248 O 0.3033 0.52651 0.45754 0.0
N2249 N 0.34965 0.5621 0.40401 0.0
C2250 C 0.36783 0.56001 0.41057 0.0
C2251 C 0.38274 0.56312 0.39759 0.0
C2252 C 0.37822 0.56933 0.37855 0.0
C2253 C 0.35998 0.56536 0.37132 0.0
C2254 C 0.34586 0.5609 0.38502 0.0
H2255 H 0.37059 0.55671 0.42571 0.0
O2256 O 0.34441 0.5192 0.44816 0.0
O2257 O 0.33212 0.54105 0.43024 0.0
O2258 O 0.35199 0.55801 0.46395 0.0
O2259 O 0.34431 0.57981 0.44117 0.0
C2260 C 0.35655 0.56435 0.3513 0.0
C2261 C 0.33826 0.56001 0.3439 0.0
H2262 H 0.27301 0.56197 0.34252 0.0
H2263 H 0.25836 0.55748 0.38011 0.0
H2264 H 0.39695 0.56006 0.40305 0.0
H2265 H 0.38847 0.57507 0.36845 0.0
H2266 H 0.36839 0.56685 0.34111 0.0
H2267 H 0.33747 0.56029 0.32836 0.0
Mn2268 Mn 0.20359 0.0936 0.69813 0.0
Mn2269 Mn 0.17445 0.0916 0.66397 0.0
C2270 C 0.21602 0.10973 0.66767 0.0
C2271 C 0.22275 0.07172 0.71421 0.0
C2272 C 0.16858 0.1182 0.70201 0.0
O2273 O 0.17914 0.07507 0.70579 0.0
O2274 O 0.1768 0.06588 0.67598 0.0
C2275 C 0.18161 0.05627 0.63515 0.0
N2276 N 0.18059 0.07924 0.63872 0.0
C2277 C 0.17552 0.09428 0.60025 0.0
C2278 C 0.17671 0.05646 0.592 0.0
C2279 C 0.17969 0.04405 0.61349 0.0
C2280 C 0.17757 0.09666 0.62476 0.0
H2281 H 0.183 0.04685 0.64768 0.0
C2282 C 0.17139 0.06352 0.69324 0.0
O2283 O 0.21524 0.08656 0.7234 0.0
O2284 O 0.22039 0.07051 0.69554 0.0
N2285 N 0.17505 0.11555 0.65233 0.0
C2286 C 0.18097 0.13213 0.66152 0.0
C2287 C 0.18383 0.14864 0.65114 0.0
C2288 C 0.18039 0.14757 0.63165 0.0
C2289 C 0.17431 0.13053 0.62195 0.0
C2290 C 0.17444 0.11425 0.63298 0.0
H2291 H 0.18615 0.13261 0.67597 0.0
O2292 O 0.22469 0.11175 0.68442 0.0
O2293 O 0.20144 0.0974 0.66984 0.0
O2294 O 0.18677 0.118 0.7062 0.0
O2295 O 0.16271 0.10542 0.68924 0.0
C2296 C 0.17084 0.12898 0.60193 0.0
C2297 C 0.17311 0.11226 0.59075 0.0
H2298 H 0.17596 0.04836 0.57825 0.0
H2299 H 0.18043 0.0283 0.61334 0.0
H2300 H 0.18947 0.16177 0.65797 0.0
H2301 H 0.18636 0.15967 0.62508 0.0
H2302 H 0.16531 0.14092 0.59458 0.0
H2303 H 0.17179 0.11387 0.57513 0.0
Mn2304 Mn 0.01633 0.13799 0.55545 0.0
Mn2305 Mn 0.0589 0.13614 0.57164 0.0
C2306 C 0.04014 0.12147 0.53428 0.0
C2307 C -0.00421 0.15944 0.54019 0.0
C2308 C 0.02538 0.1113 0.58682 0.0
O2309 O 0.01676 0.15557 0.58151 0.0
O2310 O 0.04769 0.16186 0.57769 0.0
C2311 C 0.07709 0.16874 0.54522 0.0
N2312 N 0.07856 0.14918 0.55751 0.0
C2313 C 0.11882 0.14222 0.56183 0.0
C2314 C 0.11968 0.17547 0.54027 0.0
C2315 C 0.09599 0.18233 0.53629 0.0
C2316 C 0.09548 0.13692 0.56602 0.0
H2317 H 0.06263 0.17438 0.54241 0.0
C2318 C 0.03196 0.16537 0.58649 0.0
O2319 O 0.98875 0.1451 0.55048 0.0
O2320 O 0.01449 0.16161 0.53977 0.0
N2321 N 0.07175 0.11224 0.56682 0.0
C2322 C 0.0636 0.09119 0.56285 0.0
C2323 C 0.07379 0.06971 0.56916 0.0
C2324 C 0.09495 0.06909 0.58177 0.0
C2325 C 0.10698 0.10664 0.58744 0.0
C2326 C 0.09022 0.12078 0.57607 0.0
H2327 H 0.04857 0.09019 0.5584 0.0
O2328 O 0.02165 0.12063 0.53059 0.0
O2329 O 0.04337 0.133 0.549 0.0
O2330 O 0.01436 0.11325 0.57202 0.0
O2331 O 0.04027 0.12223 0.58937 0.0
C2332 C 0.12544 0.11676 0.58816 0.0
C2333 C 0.13165 0.13033 0.57336 0.0
H2334 H 0.13159 0.18485 0.53525 0.0
H2335 H 0.09296 0.19558 0.52828 0.0
H2336 H 0.06606 0.05625 0.56626 0.0
H2337 H 0.10084 0.05664 0.58685 0.0
H2338 H 0.1362 0.11193 0.59846 0.0
H2339 H 0.14683 0.13257 0.57193 0.0
Mn2340 Mn 0.5259 0.84177 0.93271 0.0
Mn2341 Mn 0.56747 0.8368 0.91472 0.0
C2342 C 0.55338 0.85504 0.95251 0.0
C2343 C 0.50392 0.82335 0.9501 0.0
C2344 C 0.53505 0.86837 0.90118 0.0
O2345 O 0.52244 0.82584 0.90535 0.0
O2346 O 0.55102 0.81418 0.91001 0.0
C2347 C 0.58225 0.7963 0.92886 0.0
N2348 N 0.58538 0.81944 0.92908 0.0
C2349 C 0.62676 0.82336 0.93092 0.0
C2350 C 0.62401 0.78464 0.9291 0.0
C2351 C 0.59979 0.77858 0.92837 0.0
C2352 C 0.60409 0.83246 0.93012 0.0
H2353 H 0.56757 0.79067 0.92809 0.0
C2354 C 0.53628 0.81468 0.89945 0.0
O2355 O 0.49815 0.83823 0.9398 0.0
O2356 O 0.52198 0.81821 0.94861 0.0
N2357 N 0.58446 0.85687 0.92001 0.0
C2358 C 0.58009 0.87576 0.92139 0.0
C2359 C 0.59518 0.88886 0.92017 0.0
C2360 C 0.61412 0.88189 0.91648 0.0
C2361 C 0.61834 0.86292 0.92116 0.0
C2362 C 0.60247 0.85071 0.92369 0.0
H2363 H 0.56515 0.88048 0.92275 0.0
O2364 O 0.53537 0.85795 0.95733 0.0
O2365 O 0.5539 0.84322 0.93771 0.0
O2366 O 0.5253 0.86694 0.91686 0.0
O2367 O 0.54937 0.85602 0.89797 0.0
C2368 C 0.63744 0.85699 0.92481 0.0
C2369 C 0.64176 0.83799 0.93004 0.0
H2370 H 0.63496 0.77311 0.92797 0.0
H2371 H 0.59554 0.76341 0.92749 0.0
H2372 H 0.59128 0.90366 0.92273 0.0
H2373 H 0.62615 0.89069 0.91227 0.0
H2374 H 0.64931 0.8674 0.92376 0.0
H2375 H 0.65694 0.83526 0.93189 0.0
Mn2376 Mn 0.89227 0.26671 0.18111 0.0
Mn2377 Mn 0.88842 0.31132 0.16633 0.0
C2378 C 0.87797 0.29111 0.20308 0.0
C2379 C 0.91153 0.24663 0.19966 0.0
C2380 C 0.86229 0.27573 0.14987 0.0
O2381 O 0.91081 0.26696 0.1564 0.0
O2382 O 0.91047 0.29915 0.15298 0.0
C2383 C 0.92839 0.32515 0.1825 0.0
N2384 N 0.90557 0.32881 0.1802 0.0
C2385 C 0.90131 0.3695 0.1843 0.0
C2386 C 0.94037 0.36659 0.18769 0.0
C2387 C 0.94624 0.34235 0.18581 0.0
C2388 C 0.89225 0.34731 0.18098 0.0
H2389 H 0.93354 0.31037 0.18065 0.0
C2390 C 0.91739 0.28267 0.14854 0.0
O2391 O 0.89843 0.23927 0.18799 0.0
O2392 O 0.91531 0.26493 0.1978 0.0
N2393 N 0.86836 0.32573 0.17816 0.0
C2394 C 0.85053 0.31813 0.17831 0.0
C2395 C 0.8137 0.33534 0.16312 0.0
C2396 C 0.81889 0.35301 0.15734 0.0
C2397 C 0.85934 0.35922 0.16689 0.0
C2398 C 0.87258 0.34473 0.17683 0.0
H2399 H 0.85024 0.30277 0.1825 0.0
O2400 O 0.87485 0.27276 0.20577 0.0
O2401 O 0.88876 0.29393 0.18776 0.0
O2402 O 0.86774 0.26367 0.16305 0.0
O2403 O 0.86945 0.29342 0.14996 0.0
C2404 C 0.86975 0.37851 0.16978 0.0
C2405 C 0.88713 0.38359 0.17978 0.0
H2406 H 0.95201 0.37749 0.1886 0.0
H2407 H 0.96137 0.33792 0.18635 0.0
H2408 H 0.79954 0.32827 0.16278 0.0
H2409 H 0.80829 0.36269 0.15122 0.0
H2410 H 0.86339 0.39209 0.16649 0.0
H2411 H 0.88995 0.39905 0.18145 0.0
Mn2412 Mn 0.45442 0.63995 0.45387 0.0
Mn2413 Mn 0.41675 0.64618 0.4304 0.0
C2414 C 0.42463 0.62474 0.4684 0.0
C2415 C 0.47222 0.66185 0.47151 0.0
C2416 C 0.45119 0.61543 0.42 0.0
O2417 O 0.46192 0.65692 0.42797 0.0
O2418 O 0.43359 0.66913 0.42999 0.0
C2419 C 0.40043 0.68546 0.44607 0.0
N2420 N 0.39706 0.66248 0.44355 0.0
C2421 C 0.35596 0.65941 0.43832 0.0
C2422 C 0.35934 0.69808 0.44056 0.0
C2423 C 0.3834 0.70358 0.44436 0.0
C2424 C 0.37833 0.64988 0.44038 0.0
H2425 H 0.41509 0.69076 0.44832 0.0
C2426 C 0.44955 0.66925 0.42146 0.0
O2427 O 0.48073 0.6466 0.46393 0.0
O2428 O 0.45356 0.66337 0.46996 0.0
N2429 N 0.3991 0.62609 0.43126 0.0
C2430 C 0.4031 0.6071 0.43168 0.0
C2431 C 0.38837 0.59447 0.42686 0.0
C2432 C 0.3703 0.60212 0.42079 0.0
C2433 C 0.36547 0.62067 0.42649 0.0
C2434 C 0.38079 0.63225 0.43264 0.0
H2435 H 0.41761 0.60203 0.43508 0.0
O2436 O 0.44167 0.62236 0.47627 0.0
O2437 O 0.42639 0.63697 0.45414 0.0
O2438 O 0.45854 0.61574 0.43708 0.0
O2439 O 0.4374 0.62804 0.41546 0.0
C2440 C 0.34609 0.62668 0.42755 0.0
C2441 C 0.34117 0.64527 0.43369 0.0
H2442 H 0.34882 0.70994 0.43875 0.0
H2443 H 0.38788 0.71866 0.44563 0.0
H2444 H 0.3918 0.57945 0.42869 0.0
H2445 H 0.35909 0.59398 0.41384 0.0
H2446 H 0.33446 0.61668 0.42367 0.0
H2447 H 0.32593 0.6482 0.43331 0.0
Mn2448 Mn 0.58142 0.70493 0.69855 0.0
Mn2449 Mn 0.57858 0.66811 0.6731 0.0
C2450 C 0.59455 0.67463 0.71398 0.0
C2451 C 0.55943 0.72293 0.71598 0.0
C2452 C 0.61017 0.70276 0.66785 0.0
O2453 O 0.5676 0.71322 0.67103 0.0
O2454 O 0.55575 0.68458 0.67 0.0
C2455 C 0.5375 0.65043 0.68147 0.0
N2456 N 0.56069 0.64782 0.68299 0.0
C2457 C 0.56579 0.60695 0.67817 0.0
C2458 C 0.52731 0.60898 0.6737 0.0
C2459 C 0.52046 0.63282 0.67659 0.0
C2460 C 0.5742 0.62958 0.68187 0.0
H2461 H 0.53142 0.66487 0.68281 0.0
C2462 C 0.55669 0.70086 0.6622 0.0
O2463 O 0.57525 0.73087 0.70901 0.0
O2464 O 0.55639 0.70467 0.71262 0.0
N2465 N 0.59879 0.65105 0.67655 0.0
C2466 C 0.61758 0.65532 0.67971 0.0
C2467 C 0.63104 0.64081 0.67655 0.0
C2468 C 0.62457 0.62292 0.66897 0.0
C2469 C 0.60527 0.61802 0.67138 0.0
C2470 C 0.59278 0.63272 0.67675 0.0
H2471 H 0.62197 0.66979 0.68407 0.0
O2472 O 0.59624 0.69147 0.72238 0.0
O2473 O 0.58385 0.67681 0.69848 0.0
O2474 O 0.60761 0.70928 0.68502 0.0
O2475 O 0.5983 0.68923 0.66118 0.0
C2476 C 0.59924 0.59892 0.67014 0.0
C2477 C 0.5808 0.59288 0.67541 0.0
H2478 H 0.51632 0.59811 0.66969 0.0
H2479 H 0.50525 0.6368 0.67522 0.0
H2480 H 0.6457 0.64412 0.68055 0.0
H2481 H 0.63394 0.61181 0.66355 0.0
H2482 H 0.60922 0.58868 0.6646 0.0
H2483 H 0.57832 0.57756 0.675 0.0
Mn2484 Mn 0.95833 0.82997 0.5515 0.0
Mn2485 Mn 0.91536 0.8301 0.56678 0.0
C2486 C 0.93463 0.84836 0.53128 0.0
C2487 C 0.97868 0.80914 0.53494 0.0
C2488 C 0.9515 0.8554 0.5848 0.0
O2489 O 0.95744 0.81245 0.57771 0.0
O2490 O 0.92731 0.80451 0.57259 0.0
C2491 C 0.89426 0.79485 0.54388 0.0
N2492 N 0.89508 0.81756 0.5493 0.0
C2493 C 0.85494 0.82778 0.55356 0.0
C2494 C 0.8506 0.78957 0.5477 0.0
C2495 C 0.87373 0.77991 0.54346 0.0
C2496 C 0.87874 0.83302 0.55269 0.0
H2497 H 0.90806 0.78732 0.5426 0.0
C2498 C 0.94221 0.80303 0.58333 0.0
O2499 O 0.98568 0.8224 0.54662 0.0
O2500 O 0.95993 0.80712 0.53427 0.0
N2501 N 0.90302 0.85297 0.56191 0.0
C2502 C 0.91071 0.87079 0.56231 0.0
C2503 C 0.89827 0.88581 0.56596 0.0
C2504 C 0.87912 0.88136 0.57189 0.0
C2505 C 0.87098 0.86436 0.56524 0.0
C2506 C 0.88404 0.85024 0.55963 0.0
H2507 H 0.92626 0.87305 0.56138 0.0
O2508 O 0.95316 0.84888 0.5276 0.0
O2509 O 0.93141 0.8357 0.5451 0.0
O2510 O 0.96155 0.85365 0.56931 0.0
O2511 O 0.93518 0.84518 0.58637 0.0
C2512 C 0.85091 0.86186 0.56385 0.0
C2513 C 0.84279 0.84439 0.55793 0.0
H2514 H 0.83788 0.77995 0.54812 0.0
H2515 H 0.87536 0.76444 0.54085 0.0
H2516 H 0.90532 0.89925 0.56631 0.0
H2517 H 0.87003 0.89034 0.58049 0.0
H2518 H 0.84124 0.87381 0.56705 0.0
H2519 H 0.82711 0.84447 0.55779 0.0
Mn2520 Mn 0.89136 0.22092 0.3007 0.0
Mn2521 Mn 0.90107 0.1814 0.32011 0.0
C2522 C 0.88127 0.19123 0.28196 0.0
C2523 C 0.90777 0.24199 0.28063 0.0
C2524 C 0.86587 0.21043 0.33244 0.0
O2525 O 0.90673 0.22779 0.32771 0.0
O2526 O 0.92161 0.20062 0.32412 0.0
C2527 C 0.94292 0.17149 0.30558 0.0
N2528 N 0.92035 0.16545 0.30597 0.0
C2529 C 0.9216 0.12395 0.30535 0.0
C2530 C 0.95973 0.13155 0.30633 0.0
C2531 C 0.96273 0.15634 0.30622 0.0
C2532 C 0.90976 0.14526 0.3057 0.0
H2533 H 0.94666 0.18678 0.3058 0.0
C2534 C 0.91949 0.21563 0.33407 0.0
O2535 O 0.89256 0.24792 0.29035 0.0
O2536 O 0.91487 0.22526 0.2852 0.0
N2537 N 0.88323 0.16192 0.31564 0.0
C2538 C 0.86393 0.16386 0.31416 0.0
C2539 C 0.85282 0.14732 0.31598 0.0
C2540 C 0.86211 0.12954 0.3203 0.0
C2541 C 0.88144 0.12757 0.31561 0.0
C2542 C 0.89156 0.14474 0.31246 0.0
H2543 H 0.8574 0.17804 0.31224 0.0
O2544 O 0.87632 0.20851 0.27648 0.0
O2545 O 0.89279 0.19286 0.29685 0.0
O2546 O 0.86618 0.21982 0.31644 0.0
O2547 O 0.87981 0.19773 0.33614 0.0
C2548 C 0.88966 0.10929 0.31237 0.0
C2549 C 0.90897 0.10727 0.30686 0.0
H2550 H 0.97257 0.12215 0.30753 0.0
H2551 H 0.97727 0.16246 0.30667 0.0
H2552 H 0.83764 0.14929 0.31334 0.0
H2553 H 0.85488 0.11665 0.32493 0.0
H2554 H 0.88083 0.09625 0.31385 0.0
H2555 H 0.91352 0.09253 0.30522 0.0
Mn2556 Mn 0.1012 0.27991 0.7995 0.0
Mn2557 Mn 0.09455 0.31999 0.81907 0.0
C2558 C 0.11603 0.30833 0.78218 0.0
C2559 C 0.08339 0.25969 0.7802 0.0
C2560 C 0.12513 0.28661 0.83312 0.0
O2561 O 0.08339 0.27477 0.82525 0.0
O2562 O 0.07159 0.3033 0.8209 0.0
C2563 C 0.05537 0.33557 0.80212 0.0
N2564 N 0.07843 0.33871 0.80418 0.0
C2565 C 0.08228 0.38012 0.80532 0.0
C2566 C 0.04355 0.37727 0.80359 0.0
C2567 C 0.03756 0.35305 0.8022 0.0
C2568 C 0.0914 0.35745 0.80544 0.0
H2569 H 0.04979 0.32086 0.8015 0.0
C2570 C 0.0713 0.28797 0.83062 0.0
O2571 O 0.09771 0.25284 0.79064 0.0
O2572 O 0.07858 0.27772 0.78246 0.0
N2573 N 0.11486 0.33725 0.81654 0.0
C2574 C 0.13379 0.33291 0.81634 0.0
C2575 C 0.14671 0.34782 0.81952 0.0
C2576 C 0.13942 0.36649 0.82394 0.0
C2577 C 0.1209 0.37108 0.81791 0.0
C2578 C 0.109 0.35544 0.81337 0.0
H2579 H 0.13861 0.31807 0.81436 0.0
O2580 O 0.11916 0.29062 0.77658 0.0
O2581 O 0.10321 0.30801 0.79611 0.0
O2582 O 0.12513 0.278 0.81675 0.0
O2583 O 0.11246 0.30074 0.83621 0.0
C2584 C 0.11524 0.39038 0.81497 0.0
C2585 C 0.09671 0.39506 0.80841 0.0
H2586 H 0.0319 0.38814 0.80441 0.0
H2587 H 0.02239 0.34877 0.80148 0.0
H2588 H 0.16165 0.34399 0.8178 0.0
H2589 H 0.14783 0.37814 0.82974 0.0
H2590 H 0.12548 0.40214 0.81766 0.0
H2591 H 0.09404 0.41036 0.8073 0.0
Mn2592 Mn 0.55349 0.03107 0.15333 0.0
Mn2593 Mn 0.57211 0.0723 0.15693 0.0
C2594 C 0.53543 0.05776 0.13657 0.0
C2595 C 0.53611 0.01152 0.17413 0.0
C2596 C 0.58695 0.03765 0.12815 0.0
O2597 O 0.57956 0.02791 0.17107 0.0
O2598 O 0.57431 0.05674 0.1812 0.0
C2599 C 0.55475 0.09036 0.195 0.0
N2600 N 0.55646 0.09174 0.17174 0.0
C2601 C 0.55572 0.13289 0.16476 0.0
C2602 C 0.55448 0.13294 0.20366 0.0
C2603 C 0.55422 0.10917 0.21144 0.0
C2604 C 0.55679 0.10952 0.15738 0.0
H2605 H 0.55496 0.07612 0.20169 0.0
C2606 C 0.58452 0.04163 0.18271 0.0
O2607 O 0.54614 0.00394 0.15988 0.0
O2608 O 0.53654 0.03021 0.17627 0.0
N2609 N 0.56913 0.08819 0.13543 0.0
C2610 C 0.56893 0.08253 0.11679 0.0
C2611 C 0.57115 0.09665 0.10278 0.0
C2612 C 0.57463 0.11599 0.10862 0.0
C2613 C 0.56863 0.12157 0.12688 0.0
C2614 C 0.56496 0.1066 0.13996 0.0
H2615 H 0.56759 0.06734 0.11297 0.0
O2616 O 0.53007 0.03972 0.13495 0.0
O2617 O 0.54962 0.05881 0.14904 0.0
O2618 O 0.57103 0.02813 0.12939 0.0
O2619 O 0.58978 0.05272 0.13984 0.0
C2620 C 0.56476 0.14107 0.13111 0.0
C2621 C 0.55808 0.14683 0.14927 0.0
H2622 H 0.55497 0.14469 0.21445 0.0
H2623 H 0.55385 0.10603 0.22691 0.0
H2624 H 0.56934 0.09182 0.08813 0.0
H2625 H 0.57957 0.12728 0.09922 0.0
H2626 H 0.56686 0.15215 0.12002 0.0
H2627 H 0.55638 0.16226 0.15083 0.0
Mn2628 Mn 0.20988 0.79893 0.41122 0.0
Mn2629 Mn 0.1737 0.82819 0.40761 0.0
C2630 C 0.17899 0.78545 0.39793 0.0
C2631 C 0.22476 0.77743 0.43213 0.0
C2632 C 0.20805 0.82783 0.37729 0.0
O2633 O 0.21941 0.82327 0.4286 0.0
O2634 O 0.19227 0.83997 0.42534 0.0
C2635 C 0.16161 0.83054 0.45082 0.0
N2636 N 0.15599 0.82434 0.42923 0.0
C2637 C 0.11503 0.82725 0.42882 0.0
C2638 C 0.12188 0.83882 0.46506 0.0
C2639 C 0.1464 0.83808 0.46885 0.0
C2640 C 0.13629 0.82246 0.4184 0.0
H2641 H 0.17665 0.82968 0.4549 0.0
C2642 C 0.20887 0.83822 0.43271 0.0
O2643 O 0.23426 0.78494 0.4175 0.0
O2644 O 0.20712 0.78318 0.43507 0.0
N2645 N 0.15421 0.8196 0.39111 0.0
C2646 C 0.15636 0.81502 0.3723 0.0
C2647 C 0.14035 0.81634 0.36041 0.0
C2648 C 0.12256 0.82297 0.36823 0.0
C2649 C 0.12006 0.82349 0.38797 0.0
C2650 C 0.13671 0.8217 0.39912 0.0
H2651 H 0.17049 0.81085 0.36666 0.0
O2652 O 0.19561 0.77696 0.39535 0.0
O2653 O 0.18149 0.8013 0.40858 0.0
O2654 O 0.21743 0.81352 0.38485 0.0
O2655 O 0.19225 0.83355 0.38529 0.0
C2656 C 0.10147 0.82324 0.39626 0.0
C2657 C 0.09925 0.82283 0.41631 0.0
H2658 H 0.11254 0.84217 0.47732 0.0
H2659 H 0.15227 0.8418 0.48302 0.0
H2660 H 0.14257 0.81134 0.34582 0.0
H2661 H 0.1099 0.82612 0.36011 0.0
H2662 H 0.08868 0.82151 0.3871 0.0
H2663 H 0.08633 0.81657 0.42171 0.0
Mn2664 Mn 0.43692 0.46661 0.66508 0.0
Mn2665 Mn 0.41055 0.43051 0.66302 0.0
C2666 C 0.45083 0.43831 0.64578 0.0
C2667 C 0.4601 0.47933 0.68569 0.0
C2668 C 0.40193 0.47112 0.64003 0.0
O2669 O 0.41219 0.47154 0.68448 0.0
O2670 O 0.41301 0.44098 0.68975 0.0
C2671 C 0.42127 0.40064 0.69525 0.0
N2672 N 0.41822 0.40463 0.67254 0.0
C2673 C 0.4186 0.36623 0.65593 0.0
C2674 C 0.42505 0.35777 0.69405 0.0
C2675 C 0.42477 0.379 0.70673 0.0
C2676 C 0.41589 0.39072 0.65445 0.0
H2677 H 0.42137 0.41275 0.70521 0.0
C2678 C 0.40517 0.45695 0.69394 0.0
O2679 O 0.45039 0.49053 0.67382 0.0
O2680 O 0.45462 0.46143 0.68712 0.0
N2681 N 0.41259 0.42104 0.63828 0.0
C2682 C 0.41164 0.43766 0.62365 0.0
C2683 C 0.40034 0.43579 0.60344 0.0
C2684 C 0.38925 0.40001 0.599 0.0
C2685 C 0.39713 0.38632 0.62051 0.0
C2686 C 0.40835 0.39916 0.63818 0.0
H2687 H 0.42279 0.44857 0.62383 0.0
O2688 O 0.45836 0.4556 0.64504 0.0
O2689 O 0.43652 0.43875 0.65832 0.0
O2690 O 0.41966 0.47674 0.64189 0.0
O2691 O 0.39656 0.4566 0.65145 0.0
C2692 C 0.40064 0.3647 0.62344 0.0
C2693 C 0.41198 0.35604 0.63863 0.0
H2694 H 0.42646 0.34398 0.70199 0.0
H2695 H 0.42661 0.37871 0.72241 0.0
H2696 H 0.39642 0.42803 0.59989 0.0
H2697 H 0.39103 0.38947 0.60813 0.0
H2698 H 0.39532 0.35503 0.61216 0.0
H2699 H 0.41384 0.34052 0.63717 0.0
Mn2700 Mn 0.78747 0.69608 0.89533 0.0
Mn2701 Mn 0.82517 0.67181 0.89933 0.0
C2702 C 0.81702 0.71092 0.88015 0.0
C2703 C 0.77011 0.71411 0.91732 0.0
C2704 C 0.78968 0.66325 0.86917 0.0
O2705 O 0.7801 0.66972 0.91146 0.0
O2706 O 0.80902 0.67049 0.92268 0.0
C2707 C 0.84309 0.68503 0.93887 0.0
N2708 N 0.84562 0.68378 0.91568 0.0
C2709 C 0.88657 0.67843 0.91093 0.0
C2710 C 0.88455 0.67858 0.94977 0.0
C2711 C 0.86074 0.68223 0.95629 0.0
C2712 C 0.86388 0.68116 0.90228 0.0
H2713 H 0.82866 0.68707 0.94478 0.0
C2714 C 0.79286 0.66231 0.92288 0.0
O2715 O 0.76147 0.70649 0.90217 0.0
O2716 O 0.78864 0.71159 0.91927 0.0
N2717 N 0.84217 0.67354 0.87874 0.0
C2718 C 0.83753 0.67504 0.85993 0.0
C2719 C 0.85176 0.67078 0.84657 0.0
C2720 C 0.87001 0.66414 0.85326 0.0
C2721 C 0.87555 0.66878 0.87193 0.0
C2722 C 0.86071 0.67442 0.88435 0.0
H2723 H 0.8229 0.67883 0.85553 0.0
O2724 O 0.8 0.71895 0.87839 0.0
O2725 O 0.8155 0.69621 0.89191 0.0
O2726 O 0.78264 0.68037 0.87051 0.0
O2727 O 0.80378 0.65796 0.88113 0.0
C2728 C 0.89515 0.66936 0.87734 0.0
C2729 C 0.90081 0.67444 0.89607 0.0
H2730 H 0.89545 0.67604 0.96115 0.0
H2731 H 0.85681 0.68269 0.97156 0.0
H2732 H 0.84784 0.67347 0.83179 0.0
H2733 H 0.88083 0.65755 0.84435 0.0
H2734 H 0.90637 0.66593 0.86675 0.0
H2735 H 0.91617 0.67373 0.89848 0.0
Mn2736 Mn 0.5585 0.96695 0.83837 0.0
Mn2737 Mn 0.57782 0.92606 0.83338 0.0
C2738 C 0.5391 0.93874 0.85078 0.0
C2739 C 0.5401 0.98877 0.82148 0.0
C2740 C 0.5895 0.95856 0.8656 0.0
O2741 O 0.58607 0.97143 0.82307 0.0
O2742 O 0.58274 0.94281 0.81101 0.0
C2743 C 0.56548 0.91113 0.79233 0.0
N2744 N 0.56459 0.90783 0.81544 0.0
C2745 C 0.56424 0.86642 0.81905 0.0
C2746 C 0.56732 0.86948 0.78042 0.0
C2747 C 0.56729 0.89374 0.77452 0.0
C2748 C 0.5638 0.88902 0.82831 0.0
H2749 H 0.56588 0.92586 0.78683 0.0
C2750 C 0.59277 0.95791 0.81194 0.0
O2751 O 0.55126 0.99452 0.83575 0.0
O2752 O 0.54267 0.97128 0.81489 0.0
N2753 N 0.57242 0.9088 0.85318 0.0
C2754 C 0.5702 0.91305 0.87204 0.0
C2755 C 0.57122 0.89796 0.88513 0.0
C2756 C 0.57566 0.87916 0.87827 0.0
C2757 C 0.57198 0.87491 0.85907 0.0
C2758 C 0.56949 0.89074 0.84682 0.0
H2759 H 0.56822 0.92793 0.87675 0.0
O2760 O 0.53386 0.95657 0.85394 0.0
O2761 O 0.55412 0.93877 0.83916 0.0
O2762 O 0.57354 0.96764 0.86387 0.0
O2763 O 0.59353 0.94448 0.85322 0.0
C2764 C 0.56925 0.85575 0.85289 0.0
C2765 C 0.56508 0.85139 0.83362 0.0
H2766 H 0.56927 0.85865 0.76886 0.0
H2767 H 0.56854 0.89811 0.75941 0.0
H2768 H 0.56796 0.90173 0.89985 0.0
H2769 H 0.57979 0.86723 0.88723 0.0
H2770 H 0.57021 0.84386 0.86327 0.0
H2771 H 0.56392 0.8362 0.83073 0.0
Mn2772 Mn 0.27282 0.80682 0.09178 0.0
Mn2773 Mn 0.31522 0.82223 0.08683 0.0
C2774 C 0.29881 0.78626 0.10683 0.0
C2775 C 0.25017 0.78989 0.07472 0.0
C2776 C 0.28264 0.83889 0.11672 0.0
O2777 O 0.27117 0.83329 0.07445 0.0
O2778 O 0.29958 0.82644 0.06346 0.0
C2779 C 0.33044 0.80507 0.04764 0.0
N2780 N 0.33293 0.80604 0.07085 0.0
C2781 C 0.37412 0.80293 0.07607 0.0
C2782 C 0.37251 0.80276 0.03723 0.0
C2783 C 0.34849 0.80399 0.03043 0.0
C2784 C 0.35123 0.805 0.08446 0.0
H2785 H 0.31596 0.80611 0.04157 0.0
C2786 C 0.28532 0.83765 0.06302 0.0
O2787 O 0.24485 0.80209 0.08826 0.0
O2788 O 0.2682 0.79022 0.06911 0.0
N2789 N 0.33139 0.81735 0.10764 0.0
C2790 C 0.32637 0.81712 0.12642 0.0
C2791 C 0.34107 0.81826 0.13993 0.0
C2792 C 0.36037 0.8208 0.13343 0.0
C2793 C 0.36497 0.81499 0.11485 0.0
C2794 C 0.34938 0.8125 0.10228 0.0
H2795 H 0.31124 0.81665 0.13071 0.0
O2796 O 0.28048 0.78259 0.10947 0.0
O2797 O 0.30044 0.80027 0.09415 0.0
O2798 O 0.27248 0.82352 0.11601 0.0
O2799 O 0.29741 0.84089 0.1046 0.0
C2800 C 0.38407 0.8103 0.1097 0.0
C2801 C 0.38875 0.80402 0.09108 0.0
H2802 H 0.38382 0.80288 0.02597 0.0
H2803 H 0.34471 0.8042 0.0151 0.0
H2804 H 0.33654 0.81653 0.15467 0.0
H2805 H 0.37226 0.82498 0.14245 0.0
H2806 H 0.39566 0.8114 0.12042 0.0
H2807 H 0.40395 0.8015 0.08887 0.0
Mn2808 Mn 0.43778 0.52424 0.34477 0.0
Mn2809 Mn 0.41994 0.56571 0.34109 0.0
C2810 C 0.45529 0.55047 0.36301 0.0
C2811 C 0.45727 0.50483 0.32595 0.0
C2812 C 0.40327 0.53027 0.36781 0.0
O2813 O 0.41265 0.52188 0.32539 0.0
O2814 O 0.41851 0.55125 0.31667 0.0
C2815 C 0.43926 0.58398 0.30421 0.0
N2816 N 0.43616 0.5852 0.32733 0.0
C2817 C 0.43639 0.62617 0.3347 0.0
C2818 C 0.44004 0.62657 0.29599 0.0
C2819 C 0.44079 0.60291 0.28802 0.0
C2820 C 0.43495 0.60279 0.3418 0.0
H2821 H 0.43962 0.5698 0.29742 0.0
C2822 C 0.40819 0.53647 0.31454 0.0
O2823 O 0.44599 0.49717 0.33919 0.0
O2824 O 0.45594 0.52333 0.32285 0.0
N2825 N 0.4222 0.58101 0.36295 0.0
C2826 C 0.42124 0.57503 0.38141 0.0
C2827 C 0.41794 0.58886 0.39543 0.0
C2828 C 0.4147 0.60829 0.38965 0.0
C2829 C 0.42179 0.61425 0.37189 0.0
C2830 C 0.42627 0.59953 0.35885 0.0
H2831 H 0.42236 0.55975 0.38497 0.0
O2832 O 0.46016 0.53233 0.36467 0.0
O2833 O 0.44204 0.55194 0.34956 0.0
O2834 O 0.41923 0.5209 0.36762 0.0
O2835 O 0.40134 0.54566 0.35644 0.0
C2836 C 0.42568 0.63384 0.36803 0.0
C2837 C 0.43312 0.63989 0.35022 0.0
H2838 H 0.44024 0.63842 0.28529 0.0
H2839 H 0.44213 0.59992 0.27258 0.0
H2840 H 0.41865 0.58361 0.41001 0.0
H2841 H 0.40895 0.61937 0.39883 0.0
H2842 H 0.42302 0.64475 0.37916 0.0
H2843 H 0.43481 0.65532 0.34891 0.0
Mn2844 Mn 0.71238 0.69296 0.60683 0.0
Mn2845 Mn 0.67286 0.67378 0.59683 0.0
C2846 C 0.68308 0.70908 0.62144 0.0
C2847 C 0.73218 0.71484 0.59122 0.0
C2848 C 0.70425 0.65778 0.62822 0.0
O2849 O 0.71884 0.66834 0.58755 0.0
O2850 O 0.69088 0.67324 0.57486 0.0
C2851 C 0.66027 0.69357 0.55799 0.0
N2852 N 0.65552 0.68993 0.58059 0.0
C2853 C 0.61402 0.68901 0.58152 0.0
C2854 C 0.61948 0.69335 0.54326 0.0
C2855 C 0.64405 0.69489 0.53907 0.0
C2856 C 0.63597 0.68801 0.59213 0.0
H2857 H 0.67532 0.69452 0.55351 0.0
C2858 C 0.70608 0.66338 0.57473 0.0
O2859 O 0.73917 0.70389 0.60509 0.0
O2860 O 0.71464 0.71156 0.58544 0.0
N2861 N 0.65439 0.67507 0.61617 0.0
C2862 C 0.65753 0.67389 0.63535 0.0
C2863 C 0.64172 0.67053 0.64711 0.0
C2864 C 0.62339 0.66729 0.63844 0.0
C2865 C 0.62022 0.67424 0.61995 0.0
C2866 C 0.63669 0.679 0.60935 0.0
H2867 H 0.67206 0.67516 0.64126 0.0
O2868 O 0.70056 0.71455 0.6258 0.0
O2869 O 0.68422 0.69597 0.60786 0.0
O2870 O 0.7133 0.67393 0.62955 0.0
O2871 O 0.69076 0.65556 0.61472 0.0
C2872 C 0.60142 0.67786 0.61316 0.0
C2873 C 0.59816 0.68536 0.59471 0.0
H2874 H 0.60941 0.69348 0.53087 0.0
H2875 H 0.64936 0.69664 0.52431 0.0
H2876 H 0.64462 0.67122 0.66236 0.0
H2877 H 0.611 0.6616 0.64577 0.0
H2878 H 0.58894 0.67498 0.62245 0.0
H2879 H 0.58316 0.68694 0.59115 0.0
Mn2880 Mn 0.65521 0.55858 0.52258 0.0
Mn2881 Mn 0.65621 0.57477 0.56472 0.0
C2882 C 0.63706 0.53868 0.5474 0.0
C2883 C 0.67693 0.54094 0.50375 0.0
C2884 C 0.62935 0.59123 0.52927 0.0
O2885 O 0.6728 0.58534 0.52215 0.0
O2886 O 0.68089 0.57879 0.55144 0.0
C2887 C 0.69416 0.5579 0.58361 0.0
N2888 N 0.6708 0.55872 0.58381 0.0
C2889 C 0.66174 0.55494 0.6242 0.0
C2890 C 0.70045 0.55487 0.6265 0.0
C2891 C 0.70957 0.55654 0.60326 0.0
C2892 C 0.65556 0.55742 0.60063 0.0
H2893 H 0.70163 0.55916 0.56982 0.0
C2894 C 0.68264 0.59009 0.5374 0.0
O2895 O 0.66342 0.55149 0.49553 0.0
O2896 O 0.67831 0.54179 0.52247 0.0
N2897 N 0.63407 0.56998 0.57881 0.0
C2898 C 0.61568 0.57006 0.57232 0.0
C2899 C 0.60106 0.57136 0.58593 0.0
C2900 C 0.60617 0.57405 0.6056 0.0
C2901 C 0.62452 0.56855 0.6115 0.0
C2902 C 0.63797 0.56508 0.5971 0.0
H2903 H 0.61257 0.5696 0.55689 0.0
O2904 O 0.63647 0.53453 0.52899 0.0
O2905 O 0.6495 0.5528 0.54982 0.0
O2906 O 0.63123 0.57592 0.51893 0.0
O2907 O 0.64004 0.59315 0.54516 0.0
C2908 C 0.62865 0.56534 0.63092 0.0
C2909 C 0.64566 0.55661 0.63722 0.0
H2910 H 0.71053 0.555 0.63888 0.0
H2911 H 0.72518 0.55689 0.601 0.0
H2912 H 0.58659 0.56989 0.58043 0.0
H2913 H 0.59619 0.57796 0.6168 0.0
H2914 H 0.6185 0.57036 0.64128 0.0
H2915 H 0.64655 0.55368 0.65246 0.0
Mn2916 Mn 0.7034 0.90199 0.78296 0.0
Mn2917 Mn 0.68051 0.90457 0.82186 0.0
C2918 C 0.71879 0.88493 0.81132 0.0
C2919 C 0.72117 0.92465 0.76573 0.0
C2920 C 0.67006 0.87639 0.78514 0.0
O2921 O 0.67714 0.91913 0.77752 0.0
O2922 O 0.67917 0.92875 0.80697 0.0
C2923 C 0.69525 0.94284 0.84143 0.0
N2924 N 0.69344 0.9196 0.84281 0.0
C2925 C 0.68909 0.91289 0.88365 0.0
C2926 C 0.69026 0.95174 0.88359 0.0
C2927 C 0.69343 0.95938 0.86002 0.0
C2928 C 0.69097 0.90536 0.86045 0.0
H2929 H 0.69699 0.94943 0.82724 0.0
C2930 C 0.67044 0.93 0.79114 0.0
O2931 O 0.71304 0.90996 0.75677 0.0
O2932 O 0.7195 0.92553 0.78445 0.0
N2933 N 0.68229 0.88313 0.83779 0.0
C2934 C 0.683 0.86455 0.83219 0.0
C2935 C 0.67858 0.85065 0.84586 0.0
C2936 C 0.67259 0.85663 0.86457 0.0
C2937 C 0.67805 0.87481 0.87092 0.0
C2938 C 0.68373 0.88778 0.85656 0.0
H2939 H 0.68623 0.86079 0.81725 0.0
O2940 O 0.72621 0.88388 0.79395 0.0
O2941 O 0.70444 0.8972 0.8109 0.0
O2942 O 0.68694 0.87775 0.77753 0.0
O2943 O 0.66557 0.88775 0.80001 0.0
C2944 C 0.67925 0.87918 0.89075 0.0
C2945 C 0.68504 0.89743 0.89724 0.0
H2946 H 0.68833 0.9626 0.89512 0.0
H2947 H 0.69418 0.97482 0.85684 0.0
H2948 H 0.68059 0.83601 0.84113 0.0
H2949 H 0.66589 0.84744 0.87508 0.0
H2950 H 0.67575 0.86813 0.90152 0.0
H2951 H 0.68478 0.89906 0.91272 0.0
Mn2952 Mn 0.3504 0.94009 0.02767 0.0
Mn2953 Mn 0.34371 0.92116 0.06806 0.0
C2954 C 0.36698 0.95672 0.05551 0.0
C2955 C 0.3331 0.96002 0.00779 0.0
C2956 C 0.37249 0.90532 0.03394 0.0
O2957 O 0.33112 0.91531 0.02321 0.0
O2958 O 0.32027 0.92059 0.05196 0.0
C2959 C 0.30602 0.94038 0.08457 0.0
N2960 N 0.329 0.93704 0.08711 0.0
C2961 C 0.33388 0.93598 0.12844 0.0
C2962 C 0.29525 0.93986 0.12661 0.0
C2963 C 0.28871 0.94142 0.10254 0.0
C2964 C 0.34237 0.93518 0.10551 0.0
H2965 H 0.30009 0.94122 0.07001 0.0
C2966 C 0.31904 0.91077 0.03674 0.0
O2967 O 0.34665 0.94882 0.00059 0.0
O2968 O 0.32868 0.95816 0.02599 0.0
N2969 N 0.36459 0.92258 0.08477 0.0
C2970 C 0.38337 0.92165 0.0799 0.0
C2971 C 0.3965 0.91787 0.09447 0.0
C2972 C 0.38952 0.9141 0.11342 0.0
C2973 C 0.3715 0.9212 0.11846 0.0
C2974 C 0.35943 0.92625 0.10309 0.0
H2975 H 0.38788 0.92323 0.06491 0.0
O2976 O 0.36984 0.96213 0.03766 0.0
O2977 O 0.35342 0.9435 0.05567 0.0
O2978 O 0.37325 0.92163 0.02527 0.0
O2979 O 0.36007 0.90297 0.04845 0.0
C2980 C 0.36653 0.92462 0.13789 0.0
C2981 C 0.34851 0.9322 0.143 0.0
H2982 H 0.28387 0.93977 0.1378 0.0
H2983 H 0.27349 0.94296 0.09865 0.0
H2984 H 0.41138 0.91869 0.09017 0.0
H2985 H 0.39795 0.90797 0.12488 0.0
H2986 H 0.37693 0.92149 0.14939 0.0
H2987 H 0.34632 0.93356 0.15837 0.0
Mn2988 Mn 0.30489 0.59744 0.2729 0.0
Mn2989 Mn 0.32107 0.59006 0.31458 0.0
C2990 C 0.28534 0.61186 0.30008 0.0
C2991 C 0.28775 0.57949 0.25049 0.0
C2992 C 0.33783 0.6213 0.28322 0.0
O2993 O 0.33114 0.57977 0.26976 0.0
O2994 O 0.32439 0.56754 0.29761 0.0
C2995 C 0.30296 0.5505 0.32762 0.0
N2996 N 0.30473 0.57344 0.33155 0.0
C2997 C 0.30226 0.57611 0.37301 0.0
C2998 C 0.30073 0.5375 0.36894 0.0
C2999 C 0.30148 0.53222 0.34455 0.0
C3000 C 0.30436 0.58587 0.35067 0.0
H3001 H 0.30358 0.54533 0.31277 0.0
C3002 C 0.33549 0.56757 0.28327 0.0
O3003 O 0.29835 0.59424 0.24492 0.0
O3004 O 0.28805 0.5748 0.26872 0.0
N3005 N 0.31702 0.60993 0.33207 0.0
C3006 C 0.31733 0.62898 0.32822 0.0
C3007 C 0.31914 0.64148 0.3437 0.0
C3008 C 0.32171 0.63369 0.36253 0.0
C3009 C 0.31536 0.61505 0.36607 0.0
C3010 C 0.31228 0.60358 0.34978 0.0
H3011 H 0.31677 0.6342 0.31339 0.0
O3012 O 0.28112 0.61519 0.28198 0.0
O3013 O 0.29922 0.599 0.30073 0.0
O3014 O 0.32235 0.62138 0.27304 0.0
O3015 O 0.3397 0.60841 0.29736 0.0
C3016 C 0.31081 0.60882 0.3849 0.0
C3017 C 0.30405 0.59012 0.38852 0.0
H3018 H 0.30058 0.52554 0.37952 0.0
H3019 H 0.30112 0.51718 0.3398 0.0
H3020 H 0.31791 0.65652 0.3401 0.0
H3021 H 0.32637 0.64177 0.37489 0.0
H3022 H 0.31241 0.61874 0.39711 0.0
H3023 H 0.30172 0.58701 0.40359 0.0
Mn3024 Mn 0.66012 0.44816 0.45348 0.0
Mn3025 Mn 0.66225 0.42299 0.41577 0.0
C3026 C 0.6446 0.46285 0.42395 0.0
C3027 C 0.6807 0.46918 0.46978 0.0
C3028 C 0.63248 0.41569 0.45192 0.0
O3029 O 0.67638 0.4216 0.46087 0.0
O3030 O 0.68632 0.42106 0.43148 0.0
C3031 C 0.70173 0.43354 0.39519 0.0
N3032 N 0.67837 0.43417 0.3943 0.0
C3033 C 0.67056 0.43052 0.3535 0.0
C3034 C 0.70926 0.42761 0.35273 0.0
C3035 C 0.71767 0.42999 0.37622 0.0
C3036 C 0.66366 0.43306 0.37691 0.0
H3037 H 0.70872 0.43433 0.40927 0.0
C3038 C 0.687 0.41313 0.44794 0.0
O3039 O 0.66655 0.46043 0.47895 0.0
O3040 O 0.68373 0.46444 0.45184 0.0
N3041 N 0.64087 0.42548 0.39977 0.0
C3042 C 0.62226 0.42792 0.40522 0.0
C3043 C 0.60801 0.42497 0.39137 0.0
C3044 C 0.61353 0.41814 0.37291 0.0
C3045 C 0.63239 0.42134 0.36694 0.0
C3046 C 0.64563 0.4267 0.38107 0.0
H3047 H 0.61858 0.43173 0.42002 0.0
O3048 O 0.64306 0.47082 0.44098 0.0
O3049 O 0.65629 0.44799 0.42533 0.0
O3050 O 0.63506 0.43269 0.459 0.0
O3051 O 0.64388 0.4098 0.43759 0.0
C3052 C 0.63709 0.42105 0.3474 0.0
C3053 C 0.65476 0.42749 0.34034 0.0
H3054 H 0.7196 0.4244 0.34101 0.0
H3055 H 0.73316 0.42905 0.37911 0.0
H3056 H 0.59349 0.42865 0.3955 0.0
H3057 H 0.60359 0.41292 0.36218 0.0
H3058 H 0.62669 0.41531 0.33761 0.0
H3059 H 0.65621 0.42761 0.32483 0.0
Mn3060 Mn 0.80692 0.92049 0.71722 0.0
Mn3061 Mn 0.83419 0.91294 0.68202 0.0
C3062 C 0.79173 0.90244 0.68891 0.0
C3063 C 0.78624 0.94325 0.73075 0.0
C3064 C 0.83988 0.89164 0.72303 0.0
O3065 O 0.8325 0.93864 0.72106 0.0
O3066 O 0.84124 0.93891 0.69002 0.0
C3067 C 0.82519 0.94617 0.65262 0.0
N3068 N 0.82694 0.92341 0.65676 0.0
C3069 C 0.82552 0.90624 0.61896 0.0
C3070 C 0.82139 0.94451 0.60968 0.0
C3071 C 0.82241 0.95753 0.63076 0.0
C3072 C 0.82779 0.90513 0.64337 0.0
H3073 H 0.82542 0.95604 0.66488 0.0
C3074 C 0.84324 0.94538 0.70705 0.0
O3075 O 0.79509 0.93038 0.74151 0.0
O3076 O 0.79044 0.94364 0.71239 0.0
N3077 N 0.82697 0.88863 0.67391 0.0
C3078 C 0.82647 0.87406 0.69111 0.0
C3079 C 0.83953 0.85275 0.68894 0.0
C3080 C 0.85219 0.85061 0.65217 0.0
C3081 C 0.84466 0.87144 0.64011 0.0
C3082 C 0.83279 0.88851 0.6523 0.0
H3083 H 0.81359 0.87853 0.70226 0.0
O3084 O 0.78412 0.90216 0.70624 0.0
O3085 O 0.80736 0.91369 0.68963 0.0
O3086 O 0.82252 0.89609 0.7284 0.0
O3087 O 0.84657 0.90096 0.70791 0.0
C3088 C 0.84295 0.87307 0.61955 0.0
C3089 C 0.83222 0.88832 0.60965 0.0
H3090 H 0.82047 0.95221 0.59572 0.0
H3091 H 0.82145 0.97327 0.63022 0.0
H3092 H 0.83179 0.86261 0.6942 0.0
H3093 H 0.86434 0.84285 0.64603 0.0
H3094 H 0.84874 0.86131 0.61077 0.0
H3095 H 0.8311 0.8866 0.59412 0.0
Mn3096 Mn 0.344 0.05633 0.96739 0.0
Mn3097 Mn 0.33636 0.07195 0.9254 0.0
C3098 C 0.35831 0.03652 0.94049 0.0
C3099 C 0.32807 0.03881 0.99037 0.0
C3100 C 0.3677 0.08931 0.95656 0.0
O3101 O 0.32599 0.08207 0.97041 0.0
O3102 O 0.31348 0.07469 0.94285 0.0
C3103 C 0.29717 0.05341 0.91111 0.0
N3104 N 0.32025 0.05515 0.90796 0.0
C3105 C 0.3242 0.05205 0.86647 0.0
C3106 C 0.28543 0.05054 0.86932 0.0
C3107 C 0.2794 0.05164 0.89359 0.0
C3108 C 0.33327 0.05454 0.88916 0.0
H3109 H 0.29155 0.05451 0.92576 0.0
C3110 C 0.3131 0.08582 0.9574 0.0
O3111 O 0.34184 0.0509 0.99539 0.0
O3112 O 0.32196 0.03917 0.97252 0.0
N3113 N 0.35662 0.06824 0.9081 0.0
C3114 C 0.37563 0.0684 0.91241 0.0
C3115 C 0.38857 0.06973 0.89721 0.0
C3116 C 0.38135 0.07201 0.87816 0.0
C3117 C 0.36275 0.06572 0.87427 0.0
C3118 C 0.35079 0.06295 0.89034 0.0
H3119 H 0.38056 0.068 0.92733 0.0
O3120 O 0.36191 0.03272 0.95863 0.0
O3121 O 0.34532 0.05025 0.93958 0.0
O3122 O 0.36775 0.0739 0.96675 0.0
O3123 O 0.3547 0.09111 0.94245 0.0
C3124 C 0.35713 0.06067 0.85538 0.0
C3125 C 0.33863 0.05366 0.85134 0.0
H3126 H 0.2738 0.05026 0.85838 0.0
H3127 H 0.26421 0.0514 0.89786 0.0
H3128 H 0.40352 0.06822 0.90111 0.0
H3129 H 0.38993 0.07621 0.86596 0.0
H3130 H 0.3674 0.06205 0.84344 0.0
H3131 H 0.33598 0.05102 0.83621 0.0
Mn3132 Mn 0.18953 0.57914 0.21022 0.0
Mn3133 Mn 0.16833 0.57862 0.16936 0.0
C3134 C 0.20619 0.59694 0.1834 0.0
C3135 C 0.21071 0.56213 0.22926 0.0
C3136 C 0.15596 0.60491 0.20681 0.0
O3137 O 0.16377 0.56081 0.21347 0.0
O3138 O 0.16637 0.55339 0.18322 0.0
C3139 C 0.1825 0.54172 0.14671 0.0
N3140 N 0.18197 0.56504 0.14756 0.0
C3141 C 0.18043 0.57576 0.10716 0.0
C3142 C 0.17965 0.53705 0.10356 0.0
C3143 C 0.181 0.52709 0.12648 0.0
C3144 C 0.18123 0.58099 0.13116 0.0
H3145 H 0.18272 0.53377 0.16028 0.0
C3146 C 0.15717 0.55099 0.1989 0.0
O3147 O 0.19803 0.57388 0.23703 0.0
O3148 O 0.20804 0.5572 0.21119 0.0
N3149 N 0.17111 0.60134 0.15513 0.0
C3150 C 0.17215 0.61942 0.16234 0.0
C3151 C 0.16945 0.63467 0.14964 0.0
C3152 C 0.16462 0.63065 0.13015 0.0
C3153 C 0.16977 0.61282 0.12263 0.0
C3154 C 0.17396 0.59835 0.13615 0.0
H3155 H 0.17447 0.62188 0.1777 0.0
O3156 O 0.21197 0.59817 0.20129 0.0
O3157 O 0.19224 0.58413 0.18213 0.0
O3158 O 0.17236 0.60282 0.21502 0.0
O3159 O 0.15208 0.59447 0.19114 0.0
C3160 C 0.1723 0.61027 0.10261 0.0
C3161 C 0.17792 0.59253 0.09484 0.0
H3162 H 0.17784 0.52742 0.09095 0.0
H3163 H 0.18071 0.51141 0.1282 0.0
H3164 H 0.17188 0.64879 0.15558 0.0
H3165 H 0.15926 0.64117 0.1201 0.0
H3166 H 0.16993 0.62238 0.09272 0.0
H3167 H 0.1786 0.59233 0.07925 0.0
Mn3168 Mn 0.02372 0.6601 0.05645 0.0
Mn3169 Mn 0.06512 0.66211 0.07635 0.0
C3170 C 0.0514 0.64676 0.03716 0.0
C3171 C 0.00212 0.67597 0.0371 0.0
C3172 C 0.03077 0.63166 0.08703 0.0
O3173 O 0.02018 0.67552 0.08424 0.0
O3174 O 0.04988 0.68535 0.08217 0.0
C3175 C 0.08298 0.70243 0.06551 0.0
N3176 N 0.08466 0.67921 0.06381 0.0
C3177 C 0.12576 0.67275 0.06394 0.0
C3178 C 0.12537 0.71133 0.06849 0.0
C3179 C 0.10156 0.7189 0.0683 0.0
C3180 C 0.10256 0.66511 0.06281 0.0
H3181 H 0.06864 0.70888 0.06596 0.0
C3182 C 0.03448 0.68515 0.0918 0.0
O3183 O -0.00391 0.6632 0.04976 0.0
O3184 O 0.01945 0.68318 0.03973 0.0
N3185 N 0.081 0.64136 0.07035 0.0
C3186 C 0.07553 0.62286 0.06766 0.0
C3187 C 0.08975 0.60881 0.0684 0.0
C3188 C 0.1089 0.6143 0.07331 0.0
C3189 C 0.11446 0.63325 0.07024 0.0
C3190 C 0.09951 0.64659 0.06787 0.0
H3191 H 0.06039 0.61913 0.06552 0.0
O3192 O 0.03345 0.6442 0.03196 0.0
O3193 O 0.052 0.65832 0.05225 0.0
O3194 O 0.02186 0.63455 0.07119 0.0
O3195 O 0.04557 0.643 0.09151 0.0
C3196 C 0.13404 0.63818 0.06794 0.0
C3197 C 0.13977 0.65718 0.06442 0.0
H3198 H 0.13696 0.72201 0.07108 0.0
H3199 H 0.09824 0.73422 0.07006 0.0
H3200 H 0.0851 0.59448 0.06464 0.0
H3201 H 0.12018 0.60449 0.07731 0.0
H3202 H 0.14519 0.627 0.06878 0.0
H3203 H 0.15518 0.65906 0.06355 0.0
Mn3204 Mn 0.52951 0.35406 0.44469 0.0
Mn3205 Mn 0.56793 0.34398 0.42414 0.0
C3206 C 0.55948 0.36822 0.46028 0.0
C3207 C 0.50914 0.33809 0.46525 0.0
C3208 C 0.53614 0.37576 0.40973 0.0
O3209 O 0.52237 0.33533 0.41984 0.0
O3210 O 0.55007 0.3219 0.42406 0.0
C3211 C 0.58208 0.30459 0.44213 0.0
N3212 N 0.58611 0.32746 0.43929 0.0
C3213 C 0.62753 0.32951 0.43726 0.0
C3214 C 0.62332 0.29107 0.44015 0.0
C3215 C 0.59888 0.28607 0.44221 0.0
C3216 C 0.60527 0.33956 0.43723 0.0
H3217 H 0.56719 0.29962 0.44322 0.0
C3218 C 0.53456 0.3221 0.41469 0.0
O3219 O 0.50262 0.35244 0.45464 0.0
O3220 O 0.52689 0.3324 0.46275 0.0
N3221 N 0.58602 0.36355 0.42506 0.0
C3222 C 0.58268 0.38275 0.4243 0.0
C3223 C 0.59829 0.39475 0.42066 0.0
C3224 C 0.61641 0.38629 0.41633 0.0
C3225 C 0.61977 0.3675 0.42241 0.0
C3226 C 0.60384 0.35689 0.42835 0.0
H3227 H 0.56821 0.38854 0.42629 0.0
O3228 O 0.54216 0.37252 0.46639 0.0
O3229 O 0.55774 0.35473 0.44706 0.0
O3230 O 0.52827 0.37716 0.4264 0.0
O3231 O 0.54926 0.36206 0.40668 0.0
C3232 C 0.63849 0.36045 0.42409 0.0
C3233 C 0.6428 0.34299 0.43305 0.0
H3234 H 0.63372 0.27901 0.43933 0.0
H3235 H 0.59402 0.27111 0.44343 0.0
H3236 H 0.59552 0.41 0.4219 0.0
H3237 H 0.62862 0.39404 0.41075 0.0
H3238 H 0.64984 0.36872 0.41785 0.0
H3239 H 0.65794 0.33975 0.43444 0.0
Mn3240 Mn 0.88763 0.78029 0.69893 0.0
Mn3241 Mn 0.88788 0.81826 0.67476 0.0
C3242 C 0.87292 0.81038 0.71479 0.0
C3243 C 0.91123 0.76398 0.71625 0.0
C3244 C 0.86112 0.78051 0.66632 0.0
O3245 O 0.90355 0.77377 0.6718 0.0
O3246 O 0.91204 0.80382 0.6703 0.0
C3247 C 0.92674 0.83577 0.68743 0.0
N3248 N 0.90367 0.83902 0.68655 0.0
C3249 C 0.9 0.88042 0.68378 0.0
C3250 C 0.93907 0.87673 0.68366 0.0
C3251 C 0.94462 0.85276 0.68563 0.0
C3252 C 0.89062 0.85767 0.68523 0.0
H3253 H 0.93234 0.82124 0.68958 0.0
C3254 C 0.91318 0.78725 0.66293 0.0
O3255 O 0.89617 0.75464 0.70935 0.0
O3256 O 0.9121 0.78256 0.71362 0.0
N3257 N 0.86539 0.83315 0.67856 0.0
C3258 C 0.84558 0.82283 0.67414 0.0
C3259 C 0.8249 0.83266 0.66549 0.0
C3260 C 0.82324 0.85656 0.66227 0.0
C3261 C 0.85724 0.87336 0.67314 0.0
C3262 C 0.87212 0.85473 0.67984 0.0
H3263 H 0.84369 0.80824 0.6792 0.0
O3264 O 0.87139 0.79333 0.72285 0.0
O3265 O 0.88333 0.80813 0.69925 0.0
O3266 O 0.8624 0.77376 0.68364 0.0
O3267 O 0.87149 0.79575 0.66179 0.0
C3268 C 0.86659 0.8921 0.6737 0.0
C3269 C 0.88589 0.89555 0.67982 0.0
H3270 H 0.95095 0.88728 0.68208 0.0
H3271 H 0.95974 0.84828 0.68602 0.0
H3272 H 0.81223 0.82355 0.66306 0.0
H3273 H 0.81139 0.86266 0.65526 0.0
H3274 H 0.85947 0.90511 0.66915 0.0
H3275 H 0.88975 0.91081 0.67943 0.0
Mn3276 Mn 0.46323 0.15633 0.9318 0.0
Mn3277 Mn 0.42197 0.15939 0.91263 0.0
C3278 C 0.4357 0.14313 0.95156 0.0
C3279 C 0.48537 0.17351 0.94959 0.0
C3280 C 0.45575 0.12857 0.901 0.0
O3281 O 0.46649 0.17161 0.90401 0.0
O3282 O 0.43737 0.18254 0.90739 0.0
C3283 C 0.40402 0.19982 0.92357 0.0
N3284 N 0.40263 0.17657 0.92551 0.0
C3285 C 0.36159 0.16982 0.92713 0.0
C3286 C 0.3614 0.20828 0.92246 0.0
C3287 C 0.38517 0.21611 0.92156 0.0
C3288 C 0.38491 0.16235 0.92722 0.0
H3289 H 0.41825 0.20644 0.92241 0.0
C3290 C 0.45242 0.18207 0.89728 0.0
O3291 O 0.49094 0.15956 0.93802 0.0
O3292 O 0.46764 0.17982 0.94773 0.0
N3293 N 0.40622 0.13861 0.91851 0.0
C3294 C 0.41154 0.11998 0.92083 0.0
C3295 C 0.39714 0.10603 0.91994 0.0
C3296 C 0.37812 0.11183 0.91511 0.0
C3297 C 0.37298 0.13091 0.91835 0.0
C3298 C 0.3879 0.14393 0.92154 0.0
H3299 H 0.42664 0.11607 0.9228 0.0
O3300 O 0.45372 0.14057 0.95658 0.0
O3301 O 0.43509 0.15478 0.93652 0.0
O3302 O 0.46458 0.13076 0.91703 0.0
O3303 O 0.44122 0.14036 0.89684 0.0
C3304 C 0.35367 0.13617 0.92001 0.0
C3305 C 0.34782 0.15428 0.92644 0.0
H3306 H 0.34962 0.2188 0.9202 0.0
H3307 H 0.38828 0.23145 0.91954 0.0
H3308 H 0.40148 0.09151 0.9234 0.0
H3309 H 0.36663 0.10209 0.91137 0.0
H3310 H 0.34305 0.12589 0.91578 0.0
H3311 H 0.33249 0.15616 0.92832 0.0
Mn3312 Mn 0.58645 0.21868 0.18989 0.0
Mn3313 Mn 0.58349 0.17818 0.17028 0.0
C3314 C 0.60222 0.19123 0.20824 0.0
C3315 C 0.56724 0.23789 0.20931 0.0
C3316 C 0.61265 0.21312 0.15748 0.0
O3317 O 0.56957 0.22239 0.16302 0.0
O3318 O 0.55967 0.19308 0.1668 0.0
C3319 C 0.54421 0.15983 0.18436 0.0
N3320 N 0.56756 0.15862 0.18432 0.0
C3321 C 0.57473 0.11774 0.18507 0.0
C3322 C 0.53598 0.1172 0.18356 0.0
C3323 C 0.52793 0.14087 0.18352 0.0
C3324 C 0.58201 0.14108 0.18474 0.0
H3325 H 0.5374 0.174 0.18398 0.0
C3326 C 0.55899 0.20818 0.15681 0.0
O3327 O 0.58115 0.24555 0.19886 0.0
O3328 O 0.56305 0.2198 0.20626 0.0
N3329 N 0.60483 0.1627 0.17443 0.0
C3330 C 0.62351 0.16828 0.17549 0.0
C3331 C 0.63754 0.15412 0.17355 0.0
C3332 C 0.63166 0.13501 0.16913 0.0
C3333 C 0.61288 0.12959 0.1736 0.0
C3334 C 0.59995 0.14431 0.17775 0.0
H3335 H 0.62733 0.18342 0.17735 0.0
O3336 O 0.60404 0.20917 0.2137 0.0
O3337 O 0.58997 0.19072 0.19375 0.0
O3338 O 0.61109 0.22195 0.17367 0.0
O3339 O 0.60108 0.1982 0.15387 0.0
C3340 C 0.60789 0.11023 0.17547 0.0
C3341 C 0.5903 0.10414 0.18307 0.0
H3342 H 0.52539 0.10534 0.18207 0.0
H3343 H 0.51245 0.14385 0.18281 0.0
H3344 H 0.65221 0.1587 0.17599 0.0
H3345 H 0.64129 0.12368 0.16473 0.0
H3346 H 0.61795 0.09977 0.17045 0.0
H3347 H 0.58871 0.0888 0.18497 0.0
Mn3348 Mn 0.96207 0.34542 0.05152 0.0
Mn3349 Mn 0.91971 0.34157 0.0689 0.0
C3350 C 0.93677 0.36424 0.03383 0.0
C3351 C 0.98298 0.32779 0.03284 0.0
C3352 C 0.95568 0.36675 0.08728 0.0
O3353 O 0.96377 0.32512 0.07532 0.0
O3354 O 0.93348 0.31679 0.07142 0.0
C3355 C 0.89788 0.30453 0.05605 0.0
N3356 N 0.89883 0.32774 0.05409 0.0
C3357 C 0.85836 0.33844 0.05473 0.0
C3358 C 0.85498 0.30038 0.0601 0.0
C3359 C 0.87774 0.2903 0.05964 0.0
C3360 C 0.88245 0.34364 0.053 0.0
H3361 H 0.91134 0.29643 0.05599 0.0
C3362 C 0.94937 0.31418 0.08002 0.0
O3363 O 0.98958 0.34059 0.04522 0.0
O3364 O 0.96441 0.32446 0.03243 0.0
N3365 N 0.90575 0.36394 0.06505 0.0
C3366 C 0.91288 0.38195 0.06676 0.0
C3367 C 0.89989 0.39638 0.07068 0.0
C3368 C 0.88033 0.39128 0.07358 0.0
C3369 C 0.87337 0.37511 0.06428 0.0
C3370 C 0.8872 0.36118 0.05981 0.0
H3371 H 0.92837 0.38465 0.06683 0.0
O3372 O 0.95517 0.36602 0.02999 0.0
O3373 O 0.93418 0.34979 0.04624 0.0
O3374 O 0.96499 0.36747 0.07133 0.0
O3375 O 0.93981 0.35603 0.08809 0.0
C3376 C 0.85356 0.37297 0.06012 0.0
C3377 C 0.84588 0.35519 0.05487 0.0
H3378 H 0.84243 0.29078 0.06127 0.0
H3379 H 0.87938 0.27469 0.0612 0.0
H3380 H 0.90635 0.41002 0.07225 0.0
H3381 H 0.86984 0.39945 0.08124 0.0
H3382 H 0.8436 0.38495 0.06233 0.0
H3383 H 0.83022 0.35488 0.05377 0.0
Mn3384 Mn 0.91173 0.70474 0.79501 0.0
Mn3385 Mn 0.9115 0.66404 0.81534 0.0
C3386 C 0.89401 0.67839 0.77722 0.0
C3387 C 0.93294 0.72354 0.77718 0.0
C3388 C 0.88509 0.70128 0.82752 0.0
O3389 O 0.92877 0.7074 0.82182 0.0
O3390 O 0.9364 0.67734 0.81872 0.0
C3391 C 0.94913 0.64306 0.80109 0.0
N3392 N 0.92578 0.64309 0.80171 0.0
C3393 C 0.9163 0.6026 0.80308 0.0
C3394 C 0.95509 0.60019 0.80375 0.0
C3395 C 0.96436 0.62335 0.80248 0.0
C3396 C 0.91035 0.62629 0.80235 0.0
H3397 H 0.95667 0.65687 0.80063 0.0
C3398 C 0.93825 0.69262 0.82832 0.0
O3399 O 0.9191 0.73143 0.78749 0.0
O3400 O 0.93511 0.70482 0.77827 0.0
N3401 N 0.88915 0.64971 0.81155 0.0
C3402 C 0.87097 0.65653 0.81047 0.0
C3403 C 0.85603 0.64349 0.81316 0.0
C3404 C 0.86054 0.62407 0.81799 0.0
C3405 C 0.87856 0.61699 0.81302 0.0
C3406 C 0.89268 0.63083 0.809 0.0
H3407 H 0.86828 0.67186 0.80823 0.0
O3408 O 0.89358 0.69635 0.77134 0.0
O3409 O 0.90623 0.67701 0.79168 0.0
O3410 O 0.88737 0.70973 0.81123 0.0
O3411 O 0.89547 0.6856 0.83137 0.0
C3412 C 0.88174 0.59706 0.81069 0.0
C3413 C 0.89983 0.58982 0.80543 0.0
H3414 H 0.9651 0.58787 0.80543 0.0
H3415 H 0.97999 0.62555 0.80267 0.0
H3416 H 0.84178 0.64924 0.81089 0.0
H3417 H 0.85039 0.6137 0.8234 0.0
H3418 H 0.86988 0.58682 0.81289 0.0
H3419 H 0.90047 0.5743 0.80473 0.0
Mn3420 Mn 0.08157 0.77555 0.31518 0.0
Mn3421 Mn 0.0775 0.817 0.33236 0.0
C3422 C 0.09719 0.80146 0.29515 0.0
C3423 C 0.06119 0.75546 0.29765 0.0
C3424 C 0.10718 0.78311 0.34797 0.0
O3425 O 0.06512 0.77384 0.34215 0.0
O3426 O 0.05358 0.80212 0.33596 0.0
C3427 C 0.04129 0.83302 0.30658 0.0
N3428 N 0.06221 0.83589 0.31654 0.0
C3429 C 0.06755 0.87664 0.31671 0.0
C3430 C 0.03162 0.87584 0.30163 0.0
C3431 C 0.02513 0.85129 0.29928 0.0
C3432 C 0.07479 0.85407 0.32099 0.0
H3433 H 0.03588 0.81825 0.30527 0.0
C3434 C 0.054 0.78793 0.3474 0.0
O3435 O 0.07523 0.74814 0.30818 0.0
O3436 O 0.05812 0.77395 0.29895 0.0
N3437 N 0.09866 0.83265 0.32867 0.0
C3438 C 0.11708 0.8268 0.3259 0.0
C3439 C 0.13152 0.8406 0.32565 0.0
C3440 C 0.12657 0.86009 0.32844 0.0
C3441 C 0.10722 0.86577 0.32686 0.0
C3442 C 0.09337 0.85114 0.32685 0.0
H3443 H 0.12043 0.81153 0.32434 0.0
O3444 O 0.09888 0.7832 0.29073 0.0
O3445 O 0.08526 0.80308 0.30985 0.0
O3446 O 0.10614 0.77344 0.3321 0.0
O3447 O 0.09506 0.79792 0.3505 0.0
C3448 C 0.1022 0.88496 0.32298 0.0
C3449 C 0.08321 0.89042 0.31922 0.0
H3450 H 0.02154 0.88729 0.29699 0.0
H3451 H 0.01104 0.84741 0.29331 0.0
H3452 H 0.14593 0.83566 0.32251 0.0
H3453 H 0.13751 0.87088 0.32986 0.0
H3454 H 0.11341 0.89606 0.32156 0.0
H3455 H 0.08239 0.90534 0.31627 0.0
C3456 C 0.11027 0.52722 0.1008 0.0
C3457 C 0.08995 0.53111 0.09978 0.0
H3458 H 0.13798 0.52472 0.08547 0.0
C3459 C 0.08224 0.53148 0.08045 0.0
H3460 H 0.11703 0.52533 0.11496 0.0
C3461 C 0.09452 0.53201 0.06347 0.0
C3462 C 0.11523 0.5318 0.06481 0.0
H3463 H 0.06669 0.53345 0.07844 0.0
H3464 H 0.08776 0.53474 0.04944 0.0
C3465 C 0.12248 0.52702 0.08367 0.0
C3466 C 0.71212 0.33993 0.3202 0.0
C3467 C 0.71344 0.36062 0.31989 0.0
H3468 H 0.70808 0.31361 0.33721 0.0
C3469 C 0.71727 0.36921 0.33838 0.0
H3470 H 0.71007 0.33216 0.30659 0.0
C3471 C 0.71512 0.35855 0.35638 0.0
C3472 C 0.7101 0.33846 0.35669 0.0
H3473 H 0.7205 0.38463 0.33905 0.0
H3474 H 0.71648 0.36635 0.37006 0.0
C3475 C 0.71072 0.32916 0.33809 0.0
C3476 C 0.89261 0.97191 0.57265 0.0
C3477 C 0.87269 0.96581 0.57492 0.0
H3478 H 0.92129 0.97595 0.58593 0.0
C3479 C 0.8661 0.96781 0.59449 0.0
H3480 H 0.89874 0.97223 0.55809 0.0
C3481 C 0.87918 0.97049 0.61086 0.0
C3482 C 0.89991 0.97163 0.60884 0.0
H3483 H 0.85082 0.96607 0.59742 0.0
H3484 H 0.87306 0.96964 0.62539 0.0
C3485 C 0.90588 0.97439 0.58904 0.0
C3486 C 0.27127 0.11798 0.85991 0.0
C3487 C 0.27411 0.13814 0.85601 0.0
H3488 H 0.2676 0.08862 0.84833 0.0
C3489 C 0.27079 0.14353 0.83617 0.0
H3490 H 0.27203 0.11287 0.87485 0.0
C3491 C 0.26901 0.1294 0.82079 0.0
C3492 C 0.27009 0.109 0.8244 0.0
H3493 H 0.27161 0.15878 0.83216 0.0
H3494 H 0.26903 0.13457 0.80586 0.0
C3495 C 0.26881 0.10387 0.84449 0.0
C3496 C 0.08807 0.46694 0.90167 0.0
C3497 C 0.09626 0.465 0.88268 0.0
H3498 H 0.09287 0.46732 0.93291 0.0
C3499 C 0.11659 0.46881 0.88158 0.0
H3500 H 0.07247 0.46523 0.90352 0.0
C3501 C 0.12841 0.47083 0.89881 0.0
C3502 C 0.12063 0.46825 0.91784 0.0
H3503 H 0.12362 0.4691 0.86744 0.0
H3504 H 0.14397 0.47279 0.89715 0.0
C3505 C 0.09993 0.46838 0.91881 0.0
C3506 C 0.77188 0.34989 0.15469 0.0
C3507 C 0.77554 0.36042 0.13711 0.0
H3508 H 0.77686 0.34801 0.18608 0.0
C3509 C 0.77795 0.38063 0.14006 0.0
H3510 H 0.76757 0.33471 0.15382 0.0
C3511 C 0.78122 0.38855 0.15925 0.0
C3512 C 0.78527 0.37664 0.17558 0.0
H3513 H 0.77658 0.39002 0.12762 0.0
H3514 H 0.77841 0.40365 0.16195 0.0
C3515 C 0.7772 0.35764 0.17355 0.0
C3516 C 0.92121 0.0327 0.39779 0.0
C3517 C 0.91419 0.0342 0.37826 0.0
H3518 H 0.91434 0.03045 0.42861 0.0
C3519 C 0.89464 0.02788 0.37563 0.0
H3520 H 0.93626 0.03645 0.40083 0.0
C3521 C 0.88204 0.02361 0.39188 0.0
C3522 C 0.88805 0.02626 0.41156 0.0
H3523 H 0.88864 0.02731 0.36103 0.0
H3524 H 0.867 0.01982 0.38898 0.0
C3525 C 0.90848 0.02899 0.41401 0.0
C3526 C 0.21837 0.12851 0.61298 0.0
C3527 C 0.21971 0.1492 0.61434 0.0
H3528 H 0.21747 0.10051 0.6276 0.0
C3529 C 0.22524 0.15589 0.63331 0.0
H3530 H 0.21491 0.12204 0.59899 0.0
C3531 C 0.22614 0.14299 0.65011 0.0
C3532 C 0.22096 0.12277 0.64907 0.0
H3533 H 0.2267 0.17143 0.63575 0.0
H3534 H 0.22866 0.14943 0.66431 0.0
C3535 C 0.21923 0.11586 0.62971 0.0
C3536 C 0.07049 0.12022 0.51232 0.0
C3537 C 0.05579 0.11031 0.52248 0.0
H3538 H 0.10049 0.11995 0.50226 0.0
C3539 C 0.0572 0.08967 0.5217 0.0
H3540 H 0.06827 0.13548 0.50892 0.0
C3541 C 0.07539 0.08036 0.51756 0.0
C3542 C 0.09218 0.09137 0.51249 0.0
H3543 H 0.04516 0.0808 0.52681 0.0
H3544 H 0.07678 0.06489 0.52046 0.0
C3545 C 0.0887 0.11114 0.50796 0.0
C3546 C 0.14975 0.32471 0.7764 0.0
C3547 C 0.12907 0.32601 0.77604 0.0
H3548 H 0.17739 0.33959 0.78011 0.0
C3549 C 0.12166 0.34514 0.77324 0.0
H3550 H 0.15654 0.31051 0.77771 0.0
C3551 C 0.13372 0.36217 0.77542 0.0
C3552 C 0.15394 0.36079 0.77963 0.0
H3553 H 0.10616 0.34704 0.771 0.0
H3554 H 0.12691 0.37641 0.77495 0.0
C3555 C 0.16187 0.34167 0.77801 0.0
C3556 C 0.887 0.39055 0.02275 0.0
C3557 C 0.89063 0.41032 0.028 0.0
H3558 H 0.89801 0.36105 0.01918 0.0
C3559 C 0.91069 0.41515 0.03004 0.0
H3560 H 0.87205 0.38582 0.02071 0.0
C3561 C 0.92579 0.40057 0.02945 0.0
C3562 C 0.92163 0.38025 0.02734 0.0
H3563 H 0.91466 0.42989 0.03413 0.0
H3564 H 0.94053 0.40501 0.03302 0.0
C3565 C 0.90208 0.37603 0.02207 0.0
C3566 C 0.87125 0.13589 0.27259 0.0
C3567 C 0.8508 0.13464 0.27547 0.0
H3568 H 0.89685 0.15452 0.2704 0.0
C3569 C 0.84062 0.15263 0.27361 0.0
H3570 H 0.87981 0.12263 0.27219 0.0
C3571 C 0.85051 0.171 0.27326 0.0
C3572 C 0.87114 0.17228 0.27445 0.0
H3573 H 0.82484 0.15269 0.27456 0.0
H3574 H 0.84189 0.18418 0.27436 0.0
C3575 C 0.88113 0.15436 0.27166 0.0
C3576 C 0.09134 0.8763 0.48127 0.0
C3577 C 0.0745 0.88646 0.4757 0.0
H3578 H 0.12291 0.87622 0.48217 0.0
C3579 C 0.07606 0.90671 0.47298 0.0
H3580 H 0.08985 0.86117 0.48523 0.0
C3581 C 0.09459 0.91577 0.47289 0.0
C3582 C 0.11186 0.9045 0.47413 0.0
H3583 H 0.0633 0.91517 0.46906 0.0
H3584 H 0.09545 0.9311 0.46914 0.0
C3585 C 0.10998 0.88497 0.47985 0.0
C3586 C 0.34078 0.33776 0.72762 0.0
C3587 C 0.34638 0.35757 0.72415 0.0
H3588 H 0.3481 0.30688 0.7259 0.0
C3589 C 0.36706 0.35981 0.72235 0.0
H3590 H 0.32549 0.3345 0.72989 0.0
C3591 C 0.38023 0.3435 0.71955 0.0
C3592 C 0.37373 0.32379 0.71816 0.0
H3593 H 0.37298 0.3744 0.7211 0.0
H3594 H 0.39543 0.34657 0.71715 0.0
C3595 C 0.35409 0.32147 0.72502 0.0
C3596 C 0.8999 0.58111 0.96184 0.0
C3597 C 0.88138 0.59015 0.95927 0.0
H3598 H 0.93134 0.58439 0.96274 0.0
C3599 C 0.88123 0.61059 0.96248 0.0
H3600 H 0.90101 0.5654 0.96062 0.0
C3601 C 0.89898 0.62161 0.9645 0.0
C3602 C 0.91766 0.61285 0.96257 0.0
H3603 H 0.86746 0.61831 0.96228 0.0
H3604 H 0.89806 0.63729 0.96593 0.0
C3605 C 0.9176 0.59215 0.96331 0.0
C3606 C 0.60996 0.15478 0.21808 0.0
C3607 C 0.61612 0.1744 0.21529 0.0
H3608 H 0.61743 0.12389 0.21719 0.0
C3609 C 0.63668 0.17708 0.21613 0.0
H3610 H 0.59455 0.15181 0.21962 0.0
C3611 C 0.65002 0.16097 0.2156 0.0
C3612 C 0.64362 0.14126 0.21385 0.0
H3613 H 0.64258 0.1917 0.215 0.0
H3614 H 0.66547 0.16414 0.2145 0.0
C3615 C 0.62328 0.13856 0.21683 0.0
C3616 C 0.52899 0.07179 0.10199 0.0
C3617 C 0.52863 0.07432 0.12254 0.0
H3618 H 0.53172 0.08516 0.07351 0.0
C3619 C 0.525 0.09369 0.12886 0.0
H3620 H 0.53092 0.05729 0.09603 0.0
C3621 C 0.52629 0.11006 0.11584 0.0
C3622 C 0.53041 0.10766 0.09571 0.0
H3623 H 0.52271 0.09637 0.14423 0.0
H3624 H 0.52511 0.12464 0.12179 0.0
C3625 C 0.52968 0.08805 0.08891 0.0
C3626 C 0.01457 0.89691 0.39122 0.0
C3627 C 0.0268 0.89987 0.4075 0.0
H3628 H 0.00587 0.9074 0.36264 0.0
C3629 C 0.0336 0.9191 0.41027 0.0
H3630 H 0.00703 0.88312 0.38951 0.0
C3631 C 0.03347 0.9327 0.39485 0.0
C3632 C 0.02553 0.92782 0.37662 0.0
H3633 H 0.03993 0.92362 0.42395 0.0
H3634 H 0.04079 0.94657 0.39685 0.0
C3635 C 0.01388 0.91085 0.37583 0.0
C3636 C 0.31825 0.26938 0.64036 0.0
C3637 C 0.32109 0.26913 0.61971 0.0
H3638 H 0.33127 0.27174 0.66923 0.0
C3639 C 0.34049 0.26496 0.61386 0.0
H3640 H 0.30376 0.27212 0.64601 0.0
C3641 C 0.35653 0.26505 0.62734 0.0
C3642 C 0.35409 0.26826 0.6477 0.0
H3643 H 0.3436 0.26344 0.59847 0.0
H3644 H 0.37117 0.26406 0.62148 0.0
C3645 C 0.33432 0.26917 0.65395 0.0
C3646 C 0.96308 0.57401 0.89996 0.0
C3647 C 0.96315 0.59349 0.89277 0.0
H3648 H 0.96001 0.54318 0.89361 0.0
C3649 C 0.96661 0.59518 0.87241 0.0
H3650 H 0.96139 0.57156 0.91548 0.0
C3651 C 0.96656 0.57848 0.85971 0.0
C3652 C 0.96217 0.55942 0.86658 0.0
H3653 H 0.96822 0.60955 0.86604 0.0
H3654 H 0.96833 0.58075 0.8442 0.0
C3655 C 0.96247 0.55742 0.88722 0.0
C3656 C 0.14695 0.71817 0.12565 0.0
C3657 C 0.16633 0.71427 0.13186 0.0
H3658 H 0.11591 0.71722 0.13233 0.0
C3659 C 0.16859 0.71234 0.15239 0.0
H3660 H 0.14436 0.72153 0.11045 0.0
C3661 C 0.15217 0.71056 0.16523 0.0
C3662 C 0.1326 0.71028 0.15824 0.0
H3663 H 0.18305 0.71006 0.15836 0.0
H3664 H 0.15493 0.70732 0.18046 0.0
C3665 C 0.13044 0.7158 0.13839 0.0
C3666 C 0.47276 0.90629 0.10124 0.0
C3667 C 0.47202 0.90461 0.12188 0.0
H3668 H 0.46874 0.89239 0.07315 0.0
C3669 C 0.47235 0.88513 0.12896 0.0
H3670 H 0.47334 0.92066 0.0947 0.0
C3671 C 0.46883 0.86863 0.11646 0.0
C3672 C 0.46566 0.87083 0.09612 0.0
H3673 H 0.47367 0.88271 0.14449 0.0
H3674 H 0.46747 0.85431 0.12297 0.0
C3675 C 0.46983 0.88981 0.08871 0.0
C3676 C 0.31492 0.20931 0.84081 0.0
C3677 C 0.31776 0.21118 0.86124 0.0
H3678 H 0.32785 0.20421 0.81246 0.0
C3679 C 0.33726 0.215 0.86705 0.0
H3680 H 0.3003 0.20713 0.8352 0.0
C3681 C 0.35341 0.21252 0.85396 0.0
C3682 C 0.35065 0.20695 0.83423 0.0
H3683 H 0.34019 0.21838 0.88218 0.0
H3684 H 0.3681 0.2139 0.85963 0.0
C3685 C 0.33098 0.2074 0.82763 0.0
C3686 C 0.64142 0.27191 0.38561 0.0
C3687 C 0.66056 0.27281 0.37778 0.0
H3688 H 0.61021 0.27456 0.38033 0.0
C3689 C 0.66169 0.27057 0.35723 0.0
H3690 H 0.6396 0.27147 0.40127 0.0
C3691 C 0.64474 0.27157 0.34512 0.0
C3692 C 0.62585 0.2752 0.3529 0.0
H3693 H 0.67587 0.27018 0.35026 0.0
H3694 H 0.64675 0.27154 0.32944 0.0
C3695 C 0.6244 0.27354 0.37347 0.0
C3696 C 0.12427 0.03292 0.60816 0.0
C3697 C 0.10389 0.03053 0.61028 0.0
H3698 H 0.14889 0.03487 0.58868 0.0
C3699 C 0.09489 0.02342 0.59255 0.0
H3700 H 0.13318 0.03371 0.62114 0.0
C3701 C 0.10429 0.02528 0.57349 0.0
C3702 C 0.12313 0.03426 0.57134 0.0
H3703 H 0.07971 0.01906 0.59288 0.0
H3704 H 0.09574 0.02222 0.56056 0.0
C3705 C 0.13349 0.03426 0.58928 0.0
C3706 C 0.72478 0.87655 0.84826 0.0
C3707 C 0.72372 0.87057 0.82843 0.0
H3708 H 0.72056 0.86909 0.87885 0.0
C3709 C 0.72364 0.85001 0.82567 0.0
H3710 H 0.72658 0.89189 0.85146 0.0
C3711 C 0.72074 0.8367 0.84157 0.0
C3712 C 0.71748 0.84319 0.86106 0.0
H3713 H 0.72357 0.84424 0.81095 0.0
H3714 H 0.71899 0.82136 0.83822 0.0
C3715 C 0.72135 0.86329 0.86418 0.0
C3716 C 0.89255 0.48059 0.09272 0.0
C3717 C 0.87279 0.47361 0.09315 0.0
H3718 H 0.92085 0.48271 0.10728 0.0
C3719 C 0.86592 0.47108 0.11257 0.0
H3720 H 0.89891 0.48422 0.07873 0.0
C3721 C 0.87867 0.47032 0.12942 0.0
C3722 C 0.89936 0.47268 0.12825 0.0
H3723 H 0.85066 0.46837 0.11469 0.0
H3724 H 0.87235 0.46607 0.14326 0.0
C3725 C 0.90547 0.47992 0.10961 0.0
C3726 C 0.27388 0.62852 0.35354 0.0
C3727 C 0.27811 0.64878 0.35299 0.0
H3728 H 0.27096 0.60129 0.33753 0.0
C3729 C 0.27837 0.65709 0.33395 0.0
H3730 H 0.27213 0.6214 0.36754 0.0
C3731 C 0.27835 0.64532 0.31664 0.0
C3732 C 0.27779 0.62461 0.31745 0.0
H3733 H 0.28068 0.67264 0.33239 0.0
H3734 H 0.28097 0.65241 0.30276 0.0
C3735 C 0.2733 0.61683 0.33613 0.0
C3736 C 0.08903 0.95676 0.40601 0.0
C3737 C 0.09546 0.95393 0.38641 0.0
H3738 H 0.0967 0.95798 0.43679 0.0
C3739 C 0.11566 0.95638 0.38343 0.0
H3740 H 0.07356 0.95645 0.40919 0.0
C3741 C 0.1287 0.959 0.3994 0.0
C3742 C 0.12284 0.95801 0.4191 0.0
H3743 H 0.12149 0.95593 0.36874 0.0
H3744 H 0.14362 0.96151 0.39643 0.0
C3745 C 0.1024 0.95798 0.42206 0.0
C3746 C 0.78338 0.89415 0.65186 0.0
C3747 C 0.7852 0.88805 0.67152 0.0
H3748 H 0.78377 0.88705 0.62069 0.0
C3749 C 0.78013 0.86789 0.67371 0.0
H3750 H 0.7796 0.90896 0.64963 0.0
C3751 C 0.77787 0.85478 0.65705 0.0
C3752 C 0.78241 0.86071 0.63732 0.0
H3753 H 0.77918 0.86182 0.68826 0.0
H3754 H 0.77529 0.83948 0.65998 0.0
C3755 C 0.78361 0.88115 0.63527 0.0
C3756 C 0.89376 0.51827 0.8998 0.0
C3757 C 0.88692 0.52103 0.88036 0.0
H3758 H 0.88722 0.51855 0.93074 0.0
C3759 C 0.86639 0.51959 0.87813 0.0
H3760 H 0.90933 0.51819 0.90253 0.0
C3761 C 0.85347 0.51904 0.89466 0.0
C3762 C 0.86041 0.52072 0.91413 0.0
H3763 H 0.86016 0.52006 0.86361 0.0
H3764 H 0.8379 0.51901 0.8921 0.0
C3765 C 0.88088 0.51825 0.91626 0.0
C3766 C 0.21311 0.63209 0.17187 0.0
C3767 C 0.21244 0.61188 0.16755 0.0
H3768 H 0.21065 0.66164 0.16118 0.0
C3769 C 0.21478 0.60706 0.14757 0.0
H3770 H 0.21232 0.63684 0.18692 0.0
C3771 C 0.21303 0.62146 0.13248 0.0
C3772 C 0.20974 0.64138 0.1369 0.0
H3773 H 0.21636 0.59191 0.1435 0.0
H3774 H 0.21315 0.61679 0.11738 0.0
C3775 C 0.21192 0.64649 0.15688 0.0
C3776 C 0.06613 0.61387 0.0259 0.0
C3777 C 0.06846 0.63423 0.02882 0.0
H3778 H 0.07963 0.58541 0.02488 0.0
C3779 C 0.08787 0.64117 0.02669 0.0
H3780 H 0.05163 0.60758 0.02639 0.0
C3781 C 0.10434 0.62819 0.0266 0.0
C3782 C 0.10197 0.60767 0.02774 0.0
H3783 H 0.09047 0.65673 0.02678 0.0
H3784 H 0.1189 0.63432 0.0268 0.0
C3785 C 0.08247 0.60095 0.02524 0.0
C3786 C 0.14495 0.8303 0.2832 0.0
C3787 C 0.139 0.85015 0.28432 0.0
H3788 H 0.13697 0.79978 0.28571 0.0
C3789 C 0.11857 0.8532 0.28352 0.0
H3790 H 0.16038 0.8269 0.28319 0.0
C3791 C 0.10502 0.83732 0.28452 0.0
C3792 C 0.11095 0.81766 0.2868 0.0
H3793 H 0.11298 0.86797 0.28342 0.0
H3794 H 0.08981 0.84053 0.28517 0.0
C3795 C 0.13131 0.81448 0.28453 0.0
C3796 C 0.92379 0.88395 0.52272 0.0
C3797 C 0.9197 0.86354 0.52295 0.0
H3798 H 0.91248 0.91352 0.52425 0.0
C3799 C 0.90006 0.85862 0.51877 0.0
H3800 H 0.93857 0.88883 0.52551 0.0
C3801 C 0.88487 0.87296 0.51829 0.0
C3802 C 0.88853 0.89319 0.52091 0.0
H3803 H 0.89609 0.8434 0.51767 0.0
H3804 H 0.86991 0.86792 0.51735 0.0
C3805 C 0.90858 0.89838 0.52198 0.0
C3806 C 0.85868 0.66657 0.76975 0.0
C3807 C 0.879 0.66252 0.77052 0.0
H3808 H 0.82912 0.65559 0.77203 0.0
C3809 C 0.88386 0.6425 0.76826 0.0
H3810 H 0.85381 0.68157 0.77059 0.0
C3811 C 0.8695 0.62726 0.76985 0.0
C3812 C 0.84944 0.63139 0.77293 0.0
H3813 H 0.89905 0.63849 0.76695 0.0
H3814 H 0.87433 0.61223 0.76984 0.0
C3815 C 0.8443 0.6514 0.7708 0.0
C3816 C 0.08626 0.40376 0.96429 0.0
C3817 C 0.10587 0.39704 0.9632 0.0
H3818 H 0.05549 0.39664 0.96296 0.0
C3819 C 0.10831 0.3768 0.9667 0.0
H3820 H 0.08333 0.4192 0.96275 0.0
C3821 C 0.09196 0.36369 0.9676 0.0
C3822 C 0.07255 0.37008 0.96417 0.0
H3823 H 0.12292 0.37084 0.96759 0.0
H3824 H 0.09468 0.34825 0.96931 0.0
C3825 C 0.07001 0.39063 0.96463 0.0
C3826 C 0.34837 0.82234 0.21707 0.0
C3827 C 0.36908 0.8221 0.21638 0.0
H3828 H 0.32179 0.83914 0.21442 0.0
C3829 C 0.378 0.8407 0.21851 0.0
H3830 H 0.34046 0.80867 0.2164 0.0
C3831 C 0.36717 0.85856 0.21653 0.0
C3832 C 0.34674 0.8586 0.21319 0.0
H3833 H 0.39368 0.84148 0.22008 0.0
H3834 H 0.37503 0.87227 0.2165 0.0
C3835 C 0.33751 0.84013 0.21568 0.0
C3836 C 0.92482 0.1074 0.46421 0.0
C3837 C 0.91963 0.12745 0.46429 0.0
H3838 H 0.91554 0.07745 0.46036 0.0
C3839 C 0.89937 0.13113 0.46656 0.0
H3840 H 0.94008 0.1034 0.46338 0.0
C3841 C 0.88498 0.11607 0.46404 0.0
C3842 C 0.89029 0.09648 0.46004 0.0
H3843 H 0.89453 0.146 0.46859 0.0
H3844 H 0.8697 0.12005 0.46407 0.0
C3845 C 0.91051 0.09231 0.46224 0.0
C3846 C 0.64014 0.64086 0.71986 0.0
C3847 C 0.6329 0.62204 0.71471 0.0
H3848 H 0.63433 0.67175 0.72344 0.0
C3849 C 0.6123 0.62016 0.71602 0.0
H3850 H 0.65576 0.64323 0.72025 0.0
C3851 C 0.59977 0.6368 0.71885 0.0
C3852 C 0.60708 0.65622 0.71947 0.0
H3853 H 0.60572 0.60597 0.71383 0.0
H3854 H 0.58415 0.63456 0.7189 0.0
C3855 C 0.62763 0.65751 0.72199 0.0
C3856 C 0.52408 0.57614 0.58621 0.0
C3857 C 0.52226 0.57592 0.60685 0.0
H3858 H 0.52971 0.593 0.56008 0.0
C3859 C 0.51936 0.5945 0.61551 0.0
H3860 H 0.52567 0.56246 0.57847 0.0
C3861 C 0.52253 0.61233 0.60497 0.0
C3862 C 0.52794 0.61239 0.585 0.0
H3863 H 0.51616 0.59528 0.63093 0.0
H3864 H 0.5218 0.62603 0.6128 0.0
C3865 C 0.52666 0.59394 0.57556 0.0
C3866 C 0.02796 0.38084 0.87047 0.0
C3867 C 0.03036 0.38296 0.89091 0.0
H3868 H 0.02539 0.39511 0.84224 0.0
C3869 C 0.02713 0.40215 0.89815 0.0
H3870 H 0.02862 0.36642 0.86407 0.0
C3871 C 0.02591 0.4187 0.88551 0.0
C3872 C 0.02757 0.41685 0.86496 0.0
H3873 H 0.02765 0.40471 0.91374 0.0
H3874 H 0.02596 0.4331 0.892 0.0
C3875 C 0.02617 0.39746 0.85782 0.0
C3876 C 0.31339 0.77783 0.14086 0.0
C3877 C 0.31535 0.77798 0.12021 0.0
H3878 H 0.32761 0.77901 0.16907 0.0
C3879 C 0.33434 0.7734 0.11332 0.0
H3880 H 0.29918 0.78043 0.14725 0.0
C3881 C 0.35109 0.77334 0.12598 0.0
C3882 C 0.34947 0.77697 0.1463 0.0
H3883 H 0.33654 0.77148 0.09782 0.0
H3884 H 0.36543 0.77157 0.1196 0.0
C3885 C 0.33001 0.7772 0.15355 0.0
C3886 C 0.97721 0.08888 0.38738 0.0
C3887 C 0.97681 0.0915 0.36683 0.0
H3888 H 0.9717 0.10119 0.41593 0.0
C3889 C 0.97617 0.11126 0.36063 0.0
H3890 H 0.9785 0.07428 0.39327 0.0
C3891 C 0.97139 0.1269 0.37375 0.0
C3892 C 0.96785 0.12354 0.39385 0.0
H3893 H 0.9777 0.11446 0.34525 0.0
H3894 H 0.96935 0.14141 0.36786 0.0
C3895 C 0.97299 0.10455 0.40054 0.0
C3896 C 0.14643 0.2154 0.63667 0.0
C3897 C 0.12672 0.21049 0.63207 0.0
H3898 H 0.17633 0.21855 0.627 0.0
C3899 C 0.12232 0.212 0.61182 0.0
H3900 H 0.15083 0.21617 0.65183 0.0
C3901 C 0.13747 0.21317 0.59714 0.0
C3902 C 0.15769 0.21296 0.60206 0.0
H3903 H 0.10728 0.21091 0.60715 0.0
H3904 H 0.1333 0.2124 0.58192 0.0
C3905 C 0.16138 0.21702 0.62211 0.0
C3906 C 0.46156 0.42161 0.61206 0.0
C3907 C 0.45713 0.42052 0.6324 0.0
H3908 H 0.46489 0.40616 0.58441 0.0
C3909 C 0.45876 0.40142 0.63985 0.0
H3910 H 0.46228 0.43578 0.60511 0.0
C3911 C 0.45848 0.38409 0.628 0.0
C3912 C 0.45891 0.38498 0.60744 0.0
H3913 H 0.46138 0.4004 0.65497 0.0
H3914 H 0.45815 0.36993 0.63482 0.0
C3915 C 0.46302 0.40423 0.59998 0.0
C3916 C 0.32609 0.71778 0.35572 0.0
C3917 C 0.32607 0.71584 0.37635 0.0
H3918 H 0.34247 0.71614 0.32878 0.0
C3919 C 0.34486 0.71659 0.38512 0.0
H3920 H 0.3123 0.71813 0.348 0.0
C3921 C 0.3625 0.71461 0.37393 0.0
C3922 C 0.36216 0.71261 0.35333 0.0
H3923 H 0.34589 0.71703 0.40086 0.0
H3924 H 0.37629 0.71349 0.38157 0.0
C3925 C 0.34369 0.71637 0.34454 0.0
C3926 C 0.6486 0.77175 0.87475 0.0
C3927 C 0.66855 0.77363 0.86946 0.0
H3928 H 0.61817 0.77477 0.86615 0.0
C3929 C 0.6721 0.77385 0.84904 0.0
H3930 H 0.64492 0.7698 0.88996 0.0
C3931 C 0.65662 0.77613 0.83515 0.0
C3932 C 0.63682 0.77857 0.84095 0.0
H3933 H 0.687 0.77452 0.84383 0.0
H3934 H 0.66046 0.77805 0.81994 0.0
C3935 C 0.63308 0.77457 0.86091 0.0
C3936 C 0.62708 0.52617 0.58242 0.0
C3937 C 0.62201 0.53072 0.56282 0.0
H3938 H 0.61812 0.52471 0.61289 0.0
C3939 C 0.60158 0.53086 0.55912 0.0
H3940 H 0.64229 0.52402 0.58601 0.0
C3941 C 0.58744 0.53041 0.5746 0.0
C3942 C 0.59289 0.53012 0.59467 0.0
H3943 H 0.59646 0.53347 0.5444 0.0
H3944 H 0.57221 0.53232 0.57082 0.0
C3945 C 0.613 0.52641 0.59803 0.0
C3946 C 0.22315 0.38495 0.848 0.0
C3947 C 0.22198 0.37797 0.82851 0.0
H3948 H 0.22005 0.3787 0.879 0.0
C3949 C 0.22319 0.35737 0.82666 0.0
H3950 H 0.22413 0.4005 0.85043 0.0
C3951 C 0.22145 0.34469 0.84321 0.0
C3952 C 0.21807 0.35191 0.86243 0.0
H3953 H 0.22318 0.35092 0.81223 0.0
H3954 H 0.22064 0.32913 0.8406 0.0
C3955 C 0.22084 0.37229 0.86458 0.0
C3956 C 0.40148 0.96056 0.07084 0.0
C3957 C 0.3809 0.96215 0.07276 0.0
H3958 H 0.42929 0.95539 0.08493 0.0
C3959 C 0.37425 0.96549 0.09209 0.0
H3960 H 0.40774 0.95875 0.05645 0.0
C3961 C 0.38667 0.96276 0.10878 0.0
C3962 C 0.40658 0.95742 0.10684 0.0
H3963 H 0.35898 0.96862 0.09444 0.0
H3964 H 0.38034 0.96373 0.12322 0.0
C3965 C 0.41399 0.95839 0.08746 0.0
C3966 C 0.77674 0.14085 0.33456 0.0
C3967 C 0.77952 0.13323 0.35369 0.0
H3968 H 0.77811 0.13592 0.30339 0.0
C3969 C 0.77939 0.11257 0.35489 0.0
H3970 H 0.77569 0.15649 0.33259 0.0
C3971 C 0.78002 0.10049 0.33774 0.0
C3972 C 0.78173 0.10852 0.31871 0.0
H3973 H 0.77994 0.10567 0.3691 0.0
H3974 H 0.78084 0.08484 0.33951 0.0
C3975 C 0.77794 0.12885 0.31752 0.0
C3976 C 0.61058 0.46982 0.40855 0.0
C3977 C 0.6311 0.46813 0.40626 0.0
H3978 H 0.58193 0.46763 0.3954 0.0
C3979 C 0.6376 0.46848 0.38658 0.0
H3980 H 0.60449 0.47056 0.42311 0.0
C3981 C 0.62446 0.46576 0.3704 0.0
C3982 C 0.60405 0.46366 0.37313 0.0
H3983 H 0.65308 0.46934 0.38372 0.0
H3984 H 0.63047 0.46437 0.35586 0.0
C3985 C 0.59744 0.46786 0.39239 0.0
C3986 C 0.27497 0.3385 0.64708 0.0
C3987 C 0.28188 0.34511 0.6286 0.0
H3988 H 0.26995 0.3447 0.67766 0.0
C3989 C 0.28309 0.36573 0.6268 0.0
H3990 H 0.27283 0.32302 0.6494 0.0
C3991 C 0.28073 0.3785 0.64334 0.0
C3992 C 0.27771 0.37136 0.66261 0.0
H3993 H 0.28679 0.37201 0.61279 0.0
H3994 H 0.28253 0.39398 0.64124 0.0
C3995 C 0.27304 0.35119 0.66359 0.0
C3996 C 0.40359 0.02892 0.9072 0.0
C3997 C 0.3954 0.02847 0.88813 0.0
H3998 H 0.39872 0.03202 0.93827 0.0
C3999 C 0.37515 0.02426 0.8874 0.0
H4000 H 0.41916 0.03111 0.90886 0.0
C4001 C 0.36334 0.02399 0.90471 0.0
C4002 C 0.37105 0.02878 0.92333 0.0
H4003 H 0.36817 0.02223 0.87337 0.0
H4004 H 0.34782 0.02154 0.90327 0.0
C4005 C 0.39173 0.02924 0.92436 0.0
C4006 C 0.71667 0.13447 0.13351 0.0
C4007 C 0.71213 0.15459 0.13493 0.0
H4008 H 0.72132 0.10697 0.14861 0.0
C4009 C 0.71316 0.16246 0.15412 0.0
H4010 H 0.71764 0.12777 0.11923 0.0
C4011 C 0.71458 0.15031 0.17104 0.0
C4012 C 0.71537 0.12968 0.16961 0.0
H4013 H 0.71083 0.17794 0.15623 0.0
H4014 H 0.71289 0.15701 0.18525 0.0
C4015 C 0.71868 0.12239 0.15052 0.0
C4016 C 0.59514 0.13033 0.0229 0.0
C4017 C 0.57609 0.12248 0.02529 0.0
H4018 H 0.62651 0.1257 0.02501 0.0
C4019 C 0.57519 0.1018 0.02525 0.0
H4020 H 0.59677 0.14588 0.02088 0.0
C4021 C 0.59235 0.09004 0.02696 0.0
C4022 C 0.6113 0.09832 0.02912 0.0
H4023 H 0.5611 0.09467 0.02615 0.0
H4024 H 0.59052 0.07444 0.02869 0.0
C4025 C 0.61239 0.11861 0.02519 0.0
C4026 C 0.64649 0.32745 0.27702 0.0
C4027 C 0.64052 0.34736 0.27739 0.0
H4028 H 0.63841 0.29702 0.28001 0.0
C4029 C 0.62022 0.35026 0.27445 0.0
H4030 H 0.66188 0.32405 0.27816 0.0
C4031 C 0.60655 0.33428 0.27457 0.0
C4032 C 0.61233 0.31481 0.27874 0.0
H4033 H 0.6147 0.36499 0.27307 0.0
H4034 H 0.59118 0.33744 0.273 0.0
C4035 C 0.63281 0.31163 0.27787 0.0
C4036 C 0.41168 0.40217 0.5249 0.0
C4037 C 0.39192 0.39605 0.52405 0.0
H4038 H 0.4415 0.39472 0.53184 0.0
C4039 C 0.38903 0.37545 0.52371 0.0
H4040 H 0.41499 0.41762 0.52502 0.0
C4041 C 0.40463 0.36202 0.52753 0.0
C4042 C 0.42365 0.36859 0.53238 0.0
H4043 H 0.37431 0.36976 0.52272 0.0
H4044 H 0.4014 0.3466 0.52815 0.0
C4045 C 0.42706 0.38881 0.52925 0.0
C4046 C 0.37099 0.13628 0.76678 0.0
C4047 C 0.36369 0.15566 0.76762 0.0
H4048 H 0.36567 0.10533 0.77155 0.0
C4049 C 0.34301 0.15703 0.76792 0.0
H4050 H 0.38649 0.13411 0.76478 0.0
C4051 C 0.33084 0.14031 0.77118 0.0
C4052 C 0.33868 0.12138 0.77472 0.0
H4053 H 0.33626 0.17131 0.76785 0.0
H4054 H 0.31532 0.14264 0.77303 0.0
C4055 C 0.35889 0.11956 0.77064 0.0
C4056 C 0.60678 0.87177 0.96385 0.0
C4057 C 0.60562 0.89225 0.96119 0.0
H4058 H 0.59139 0.84403 0.96507 0.0
C4059 C 0.58643 0.90011 0.96236 0.0
H4060 H 0.62097 0.86489 0.96466 0.0
C4061 C 0.56941 0.88801 0.96197 0.0
C4062 C 0.57071 0.86739 0.96067 0.0
H4063 H 0.58447 0.91576 0.96147 0.0
H4064 H 0.55531 0.89496 0.96042 0.0
C4065 C 0.58964 0.85967 0.96401 0.0
C4066 C 0.84988 0.30907 0.22193 0.0
C4067 C 0.86962 0.30757 0.21602 0.0
H4068 H 0.82624 0.32823 0.23031 0.0
C4069 C 0.88119 0.32381 0.22014 0.0
H4070 H 0.84023 0.29668 0.22015 0.0
C4071 C 0.87315 0.34249 0.22424 0.0
C4072 C 0.85287 0.34507 0.22637 0.0
H4073 H 0.89646 0.32163 0.21883 0.0
H4074 H 0.88265 0.35507 0.22464 0.0
C4075 C 0.84182 0.32744 0.22775 0.0
C4076 C 0.38705 0.61932 0.47358 0.0
C4077 C 0.40632 0.61172 0.47272 0.0
H4078 H 0.35602 0.61455 0.46864 0.0
C4079 C 0.40735 0.59103 0.47214 0.0
H4080 H 0.38512 0.63482 0.47575 0.0
C4081 C 0.39044 0.57918 0.46864 0.0
C4082 C 0.37164 0.58735 0.46519 0.0
H4083 H 0.42152 0.58406 0.47216 0.0
H4084 H 0.39253 0.56365 0.46657 0.0
C4085 C 0.37014 0.60754 0.46952 0.0
C4086 C 0.16082 0.15579 0.70444 0.0
C4087 C 0.15517 0.13608 0.70796 0.0
H4088 H 0.15225 0.18597 0.69998 0.0
C4089 C 0.13571 0.13418 0.71506 0.0
H4090 H 0.17562 0.15877 0.69979 0.0
C4091 C 0.12188 0.15012 0.71496 0.0
C4092 C 0.12673 0.16911 0.70804 0.0
H4093 H 0.13066 0.11992 0.71958 0.0
H4094 H 0.10697 0.14716 0.71924 0.0
C4095 C 0.14711 0.17175 0.70458 0.0
C4096 C 0.02123 0.09816 0.62068 0.0
C4097 C 0.02303 0.09473 0.60053 0.0
H4098 H 0.02431 0.08635 0.64966 0.0
C4099 C 0.02774 0.07582 0.59423 0.0
H4100 H 0.0171 0.11247 0.62595 0.0
C4101 C 0.03341 0.06155 0.60774 0.0
C4102 C 0.03373 0.06569 0.62783 0.0
H4103 H 0.02869 0.0725 0.57883 0.0
H4104 H 0.03853 0.04758 0.60239 0.0
C4105 C 0.02594 0.08349 0.63423 0.0
C4106 C 0.52887 0.92224 0.88336 0.0
C4107 C 0.53103 0.92106 0.86277 0.0
H4108 H 0.52864 0.90715 0.91111 0.0
C4109 C 0.52856 0.90205 0.85491 0.0
H4110 H 0.52974 0.93636 0.8904 0.0
C4111 C 0.52868 0.88489 0.867 0.0
C4112 C 0.5304 0.88605 0.88761 0.0
H4113 H 0.52817 0.90029 0.83923 0.0
H4114 H 0.52859 0.87071 0.86006 0.0
C4115 C 0.52843 0.90518 0.89542 0.0
C4116 C 0.82612 0.26704 0.1416 0.0
C4117 C 0.84559 0.26983 0.13522 0.0
H4118 H 0.79609 0.2763 0.13768 0.0
C4119 C 0.84722 0.27096 0.11448 0.0
H4120 H 0.82348 0.26281 0.15661 0.0
C4121 C 0.8307 0.27707 0.10282 0.0
C4122 C 0.81291 0.28303 0.11175 0.0
H4123 H 0.86152 0.27077 0.10777 0.0
H4124 H 0.8327 0.27977 0.08765 0.0
C4125 C 0.81015 0.27493 0.13061 0.0
C4126 C 0.46319 0.60208 0.38608 0.0
C4127 C 0.45803 0.59896 0.40589 0.0
H4128 H 0.46821 0.58948 0.35741 0.0
C4129 C 0.45844 0.57913 0.412 0.0
H4130 H 0.46451 0.61687 0.38069 0.0
C4131 C 0.45995 0.56334 0.3984 0.0
C4132 C 0.46139 0.56658 0.37797 0.0
H4133 H 0.4555 0.57569 0.42715 0.0
H4134 H 0.45776 0.54863 0.40374 0.0
C4135 C 0.46524 0.5862 0.37255 0.0
C4136 C 0.64604 0.71804 0.62553 0.0
C4137 C 0.66469 0.71443 0.63382 0.0
H4138 H 0.61449 0.71665 0.62888 0.0
C4139 C 0.6648 0.71274 0.65448 0.0
H4140 H 0.64505 0.72128 0.61012 0.0
C4141 C 0.64714 0.71078 0.6655 0.0
C4142 C 0.62846 0.71008 0.65643 0.0
H4143 H 0.67857 0.71076 0.66198 0.0
H4144 H 0.64831 0.70771 0.68097 0.0
C4145 C 0.62831 0.71548 0.63644 0.0
C4146 C 0.95979 0.88674 0.63313 0.0
C4147 C 0.96406 0.90571 0.62574 0.0
H4148 H 0.95204 0.85644 0.62705 0.0
C4149 C 0.96994 0.90568 0.60579 0.0
H4150 H 0.95737 0.88508 0.64854 0.0
C4151 C 0.96731 0.88902 0.59333 0.0
C4152 C 0.95875 0.8712 0.59993 0.0
H4153 H 0.97433 0.9193 0.5991 0.0
H4154 H 0.97025 0.89084 0.57791 0.0
C4155 C 0.95684 0.87001 0.62058 0.0
C4156 C 0.82855 0.21252 0.33829 0.0
C4157 C 0.84783 0.2134 0.34595 0.0
H4158 H 0.79782 0.20751 0.3438 0.0
C4159 C 0.84895 0.21619 0.36644 0.0
H4160 H 0.82652 0.21131 0.32266 0.0
C4161 C 0.83203 0.21472 0.37873 0.0
C4162 C 0.81341 0.20953 0.37124 0.0
H4163 H 0.86308 0.21838 0.37317 0.0
H4164 H 0.83387 0.21603 0.39435 0.0
C4165 C 0.81178 0.21051 0.35059 0.0
C4166 C 0.13874 0.27739 0.86793 0.0
C4167 C 0.1416 0.28081 0.84771 0.0
H4168 H 0.15186 0.2746 0.89671 0.0
C4169 C 0.16129 0.27926 0.84132 0.0
H4170 H 0.12403 0.27681 0.87366 0.0
C4171 C 0.17732 0.2786 0.85471 0.0
C4172 C 0.17445 0.27923 0.87522 0.0
H4173 H 0.16452 0.28066 0.82591 0.0
H4174 H 0.19196 0.27994 0.84892 0.0
C4175 C 0.15487 0.27619 0.88131 0.0
C4176 C 0.60716 0.02786 0.07541 0.0
C4177 C 0.62777 0.02937 0.07736 0.0
H4178 H 0.57875 0.02938 0.08919 0.0
C4179 C 0.6346 0.02773 0.09689 0.0
H4180 H 0.60077 0.02808 0.06095 0.0
C4181 C 0.62175 0.02946 0.11347 0.0
C4182 C 0.60126 0.03178 0.1113 0.0
H4183 H 0.65013 0.02672 0.09944 0.0
H4184 H 0.62806 0.03 0.12795 0.0
C4185 C 0.59431 0.02885 0.09192 0.0
C4186 C 0.2101 0.84285 0.32259 0.0
C4187 C 0.21221 0.86348 0.32365 0.0
H4188 H 0.20671 0.81554 0.33825 0.0
C4189 C 0.21905 0.87065 0.34178 0.0
H4190 H 0.20558 0.83628 0.30893 0.0
C4191 C 0.21997 0.85851 0.35877 0.0
C4192 C 0.2145 0.83852 0.35842 0.0
H4193 H 0.22209 0.88608 0.3433 0.0
H4194 H 0.22342 0.86528 0.37264 0.0
C4195 C 0.21085 0.83072 0.33962 0.0
C4196 C 0.39367 0.4735 0.58231 0.0
C4197 C 0.37382 0.46773 0.57964 0.0
H4198 H 0.41749 0.48035 0.6023 0.0
C4199 C 0.36283 0.46952 0.59699 0.0
H4200 H 0.40325 0.47376 0.56975 0.0
C4201 C 0.37111 0.47159 0.61628 0.0
C4202 C 0.39134 0.47463 0.61945 0.0
H4203 H 0.34751 0.46866 0.59531 0.0
H4204 H 0.36156 0.47034 0.62879 0.0
C4205 C 0.40197 0.47747 0.60151 0.0
C4206 C 0.78099 0.65734 0.83276 0.0
C4207 C 0.78213 0.65009 0.85219 0.0
H4208 H 0.78044 0.65086 0.80181 0.0
C4209 C 0.77694 0.63016 0.85434 0.0
H4210 H 0.78388 0.67264 0.83008 0.0
C4211 C 0.77419 0.61759 0.83777 0.0
C4212 C 0.77733 0.62411 0.81836 0.0
H4213 H 0.77613 0.62393 0.86884 0.0
H4214 H 0.77121 0.6023 0.84028 0.0
C4215 C 0.77878 0.64468 0.81626 0.0
C4216 C 0.59364 0.96545 0.90253 0.0
C4217 C 0.60226 0.9637 0.88372 0.0
H4218 H 0.59753 0.96446 0.93388 0.0
C4219 C 0.62279 0.96636 0.8833 0.0
H4220 H 0.57792 0.96459 0.9039 0.0
C4221 C 0.6342 0.96706 0.9009 0.0
C4222 C 0.62572 0.96429 0.91961 0.0
H4223 H 0.63023 0.96673 0.86937 0.0
H4224 H 0.64989 0.96809 0.89973 0.0
C4225 C 0.60505 0.9656 0.92003 0.0
C4226 C 0.27564 0.88657 0.14803 0.0
C4227 C 0.27733 0.87936 0.16738 0.0
H4228 H 0.27677 0.88018 0.11692 0.0
C4229 C 0.27466 0.85894 0.16934 0.0
H4230 H 0.27555 0.90216 0.14568 0.0
C4231 C 0.27474 0.84626 0.1528 0.0
C4232 C 0.27775 0.85332 0.13351 0.0
H4233 H 0.2748 0.85246 0.18375 0.0
H4234 H 0.27455 0.83067 0.15538 0.0
C4235 C 0.27627 0.87384 0.13139 0.0
C4236 C 0.35326 0.51924 0.39411 0.0
C4237 C 0.35843 0.52005 0.41417 0.0
H4238 H 0.36252 0.52249 0.36389 0.0
C4239 C 0.37873 0.51837 0.41796 0.0
H4240 H 0.33799 0.51865 0.39019 0.0
C4241 C 0.39296 0.52 0.40275 0.0
C4242 C 0.38766 0.52363 0.38298 0.0
H4243 H 0.38379 0.51807 0.43294 0.0
H4244 H 0.40822 0.52047 0.40684 0.0
C4245 C 0.3675 0.5214 0.37885 0.0
C4246 C 0.70769 0.63286 0.67924 0.0
C4247 C 0.70747 0.61262 0.67492 0.0
H4248 H 0.70663 0.66244 0.66831 0.0
C4249 C 0.71195 0.60781 0.65529 0.0
H4250 H 0.70521 0.63762 0.6941 0.0
C4251 C 0.71202 0.62222 0.6401 0.0
C4252 C 0.70851 0.64221 0.64409 0.0
H4253 H 0.71385 0.59265 0.6514 0.0
H4254 H 0.71375 0.61752 0.62512 0.0
C4255 C 0.70833 0.64728 0.6642 0.0
C4256 C 0.59379 0.59963 0.51888 0.0
C4257 C 0.61309 0.60605 0.52323 0.0
H4258 H 0.56302 0.60673 0.51687 0.0
C4259 C 0.61571 0.62658 0.5225 0.0
H4260 H 0.59081 0.58412 0.51829 0.0
C4261 C 0.59949 0.6398 0.52089 0.0
C4262 C 0.57982 0.63322 0.52081 0.0
H4263 H 0.63023 0.63256 0.52431 0.0
H4264 H 0.60232 0.65531 0.52134 0.0
C4265 C 0.57758 0.61282 0.51784 0.0
C4266 C 0.64953 0.82454 0.77213 0.0
C4267 C 0.62899 0.82729 0.77122 0.0
H4268 H 0.67803 0.83727 0.77728 0.0
C4269 C 0.62305 0.84705 0.76925 0.0
H4270 H 0.65526 0.80985 0.77297 0.0
C4271 C 0.63621 0.86308 0.77253 0.0
C4272 C 0.65618 0.86012 0.77713 0.0
H4273 H 0.60778 0.85017 0.76685 0.0
H4274 H 0.63041 0.87776 0.77261 0.0
C4275 C 0.66276 0.84054 0.77487 0.0
C4276 C 0.42301 0.881 0.02434 0.0
C4277 C 0.419 0.8607 0.0251 0.0
H4278 H 0.41193 0.91041 0.02679 0.0
C4279 C 0.39906 0.85564 0.02269 0.0
H4280 H 0.43799 0.88597 0.02517 0.0
C4281 C 0.38376 0.86985 0.0244 0.0
C4282 C 0.38787 0.88986 0.02771 0.0
H4283 H 0.39516 0.84043 0.02119 0.0
H4284 H 0.36873 0.86495 0.02428 0.0
C4285 C 0.40781 0.8952 0.02551 0.0
C4286 C 0.34661 0.65762 0.27768 0.0
C4287 C 0.35285 0.63789 0.27923 0.0
H4288 H 0.35414 0.68821 0.27982 0.0
C4289 C 0.37329 0.63507 0.27761 0.0
H4290 H 0.33114 0.66082 0.2778 0.0
C4291 C 0.38673 0.65118 0.27805 0.0
C4292 C 0.38038 0.67066 0.28098 0.0
H4293 H 0.37903 0.62037 0.27719 0.0
H4294 H 0.40222 0.64817 0.27778 0.0
C4295 C 0.36001 0.6736 0.27864 0.0
C4296 C 0.57808 0.40142 0.46366 0.0
C4297 C 0.57822 0.38071 0.46503 0.0
H4298 H 0.59427 0.42812 0.45855 0.0
C4299 C 0.59713 0.37257 0.4677 0.0
H4300 H 0.56422 0.40889 0.46241 0.0
C4301 C 0.61475 0.38364 0.46446 0.0
C4302 C 0.61441 0.40376 0.45948 0.0
H4303 H 0.59835 0.35716 0.4708 0.0
H4304 H 0.62862 0.37611 0.46491 0.0
C4305 C 0.59565 0.41261 0.46119 0.0
C4306 C 0.84459 0.83408 0.728 0.0
C4307 C 0.86441 0.83041 0.72279 0.0
H4308 H 0.82165 0.85541 0.73357 0.0
C4309 C 0.87636 0.84708 0.72462 0.0
H4310 H 0.83438 0.82202 0.72815 0.0
C4311 C 0.86901 0.8667 0.72608 0.0
C4312 C 0.84888 0.87088 0.72826 0.0
H4313 H 0.89165 0.84465 0.72401 0.0
H4314 H 0.87921 0.8787 0.72477 0.0
C4315 C 0.83719 0.8537 0.73132 0.0
C4316 C 0.38258 0.12451 0.96217 0.0
C4317 C 0.3847 0.10399 0.96055 0.0
H4318 H 0.39674 0.15296 0.96276 0.0
C4319 C 0.4042 0.09714 0.96274 0.0
H4320 H 0.36808 0.13077 0.96225 0.0
C4321 C 0.42069 0.10997 0.96223 0.0
C4322 C 0.41857 0.13044 0.95985 0.0
H4323 H 0.40691 0.08158 0.96279 0.0
H4324 H 0.43512 0.10359 0.96146 0.0
C4325 C 0.3992 0.1374 0.96235 0.0
C4326 C 0.15053 0.64025 0.21951 0.0
C4327 C 0.14261 0.62152 0.21507 0.0
H4328 H 0.14541 0.67117 0.22379 0.0
C4329 C 0.12227 0.61978 0.21861 0.0
H4330 H 0.16612 0.64249 0.21824 0.0
C4331 C 0.11027 0.63651 0.22284 0.0
C4332 C 0.11776 0.65587 0.22271 0.0
H4333 H 0.11537 0.60565 0.21712 0.0
H4334 H 0.09473 0.63441 0.22462 0.0
C4335 C 0.13847 0.65699 0.22302 0.0
C4336 C 0.02036 0.57701 0.09986 0.0
C4337 C 0.02087 0.57644 0.12055 0.0
H4338 H 0.0232 0.59426 0.07357 0.0
C4339 C 0.019 0.5949 0.12978 0.0
H4340 H 0.02095 0.56347 0.09175 0.0
C4341 C 0.02118 0.61291 0.11926 0.0
C4342 C 0.02452 0.61325 0.09885 0.0
H4343 H 0.01739 0.59542 0.14546 0.0
H4344 H 0.0213 0.62649 0.12733 0.0
C4345 C 0.02193 0.59497 0.08931 0.0
C4346 C 0.53074 0.42724 0.38626 0.0
C4347 C 0.52991 0.42344 0.36593 0.0
H4348 H 0.53355 0.4156 0.41544 0.0
C4349 C 0.52534 0.4039 0.36086 0.0
H4350 H 0.5333 0.44201 0.39127 0.0
C4351 C 0.52629 0.38834 0.37485 0.0
C4352 C 0.53096 0.39187 0.39469 0.0
H4353 H 0.52258 0.40038 0.34573 0.0
H4354 H 0.52441 0.37346 0.36986 0.0
C4355 C 0.5311 0.41184 0.40028 0.0
C4356 C 0.82464 0.77771 0.65854 0.0
C4357 C 0.84418 0.77444 0.65262 0.0
H4358 H 0.7956 0.78675 0.6504 0.0
C4359 C 0.84693 0.77203 0.63215 0.0
H4360 H 0.8214 0.77939 0.67392 0.0
C4361 C 0.83172 0.77622 0.61834 0.0
C4362 C 0.81332 0.78346 0.62442 0.0
H4363 H 0.86144 0.76906 0.62665 0.0
H4364 H 0.83489 0.77515 0.60292 0.0
C4365 C 0.80971 0.78237 0.64481 0.0
C4366 C 0.46474 0.09201 0.89761 0.0
C4367 C 0.46172 0.11047 0.88854 0.0
H4368 H 0.46554 0.06058 0.89458 0.0
C4369 C 0.4641 0.11048 0.86797 0.0
H4370 H 0.46422 0.091 0.91338 0.0
C4371 C 0.46571 0.09264 0.85703 0.0
C4372 C 0.46413 0.07403 0.86602 0.0
H4373 H 0.46361 0.1242 0.86015 0.0
H4374 H 0.46657 0.09344 0.8413 0.0
C4375 C 0.46574 0.07426 0.88667 0.0
C4376 C 0.64465 0.22428 0.11094 0.0
C4377 C 0.66398 0.2227 0.11826 0.0
H4378 H 0.61351 0.2218 0.11672 0.0
C4379 C 0.66554 0.22385 0.1389 0.0
H4380 H 0.64248 0.22541 0.09535 0.0
C4381 C 0.6488 0.22247 0.15131 0.0
C4382 C 0.62965 0.21957 0.14379 0.0
H4383 H 0.67986 0.22361 0.14558 0.0
H4384 H 0.65116 0.2216 0.16692 0.0
C4385 C 0.62785 0.22231 0.12334 0.0
C4386 C 0.97219 0.41355 0.11581 0.0
C4387 C 0.96684 0.40956 0.13549 0.0
H4388 H 0.97199 0.40402 0.08569 0.0
C4389 C 0.96428 0.38941 0.13968 0.0
H4390 H 0.97539 0.42844 0.11158 0.0
C4391 C 0.96222 0.37505 0.12446 0.0
C4392 C 0.96289 0.38015 0.10436 0.0
H4393 H 0.96221 0.38496 0.15465 0.0
H4394 H 0.95891 0.36016 0.12849 0.0
C4395 C 0.96996 0.39932 0.10064 0.0
C4396 C 0.85444 0.71604 0.87396 0.0
C4397 C 0.83496 0.71573 0.86689 0.0
H4398 H 0.88525 0.71116 0.86798 0.0
C4399 C 0.83324 0.71634 0.84624 0.0
H4400 H 0.85688 0.71735 0.8895 0.0
C4401 C 0.84971 0.71338 0.83371 0.0
C4402 C 0.8687 0.70933 0.84113 0.0
H4403 H 0.81885 0.71687 0.83972 0.0
H4404 H 0.84711 0.7122 0.81816 0.0
C4405 C 0.87091 0.71252 0.86146 0.0
C4406 C 0.16018 0.77224 0.36738 0.0
C4407 C 0.15981 0.77799 0.38736 0.0
H4408 H 0.14479 0.76965 0.33988 0.0
C4409 C 0.14062 0.77919 0.39535 0.0
H4410 H 0.17414 0.77008 0.36033 0.0
C4411 C 0.12331 0.77932 0.38324 0.0
C4412 C 0.12422 0.77768 0.36254 0.0
H4413 H 0.139 0.78196 0.41081 0.0
H4414 H 0.10936 0.78211 0.39006 0.0
C4415 C 0.14296 0.77212 0.35538 0.0
C4416 C 0.12598 0.52798 0.20293 0.0
C4417 C 0.13573 0.54505 0.19605 0.0
H4418 H 0.09957 0.5099 0.20152 0.0
C4419 C 0.12607 0.55522 0.18141 0.0
H4420 H 0.13292 0.51896 0.21388 0.0
C4421 C 0.10824 0.54923 0.1734 0.0
C4422 C 0.09803 0.53303 0.17988 0.0
H4423 H 0.13338 0.56762 0.17531 0.0
H4424 H 0.10131 0.55796 0.16243 0.0
C4425 C 0.10704 0.52236 0.19531 0.0
C4426 C 0.71347 0.36147 0.45073 0.0
C4427 C 0.70363 0.35149 0.43526 0.0
H4428 H 0.71666 0.38869 0.46736 0.0
C4429 C 0.68844 0.36189 0.42676 0.0
H4430 H 0.72503 0.3541 0.45856 0.0
C4431 C 0.68275 0.38066 0.43274 0.0
C4432 C 0.69212 0.39115 0.44738 0.0
H4433 H 0.68016 0.3545 0.41574 0.0
H4434 H 0.67125 0.38796 0.42504 0.0
C4435 C 0.70816 0.38125 0.45631 0.0
C4436 C 0.89685 0.95369 0.71064 0.0
C4437 C 0.89984 0.96512 0.69363 0.0
H4438 H 0.87623 0.9387 0.72906 0.0
C4439 C 0.88354 0.97541 0.68658 0.0
H4440 H 0.90887 0.94529 0.71651 0.0
C4441 C 0.86466 0.97199 0.69427 0.0
C4442 C 0.86129 0.95785 0.70903 0.0
H4443 H 0.88482 0.9839 0.67329 0.0
H4444 H 0.85233 0.97818 0.68654 0.0
C4445 C 0.87793 0.94996 0.71809 0.0
C4446 C 0.30417 0.13079 0.92712 0.0
C4447 C 0.28834 0.14073 0.93483 0.0
H4448 H 0.3244 0.10715 0.92906 0.0
C4449 C 0.28063 0.13309 0.95257 0.0
H4450 H 0.31077 0.13678 0.91427 0.0
C4451 C 0.28867 0.11564 0.9613 0.0
C4452 C 0.30526 0.10623 0.95305 0.0
H4453 H 0.26868 0.14053 0.95971 0.0
H4454 H 0.28186 0.10955 0.97418 0.0
C4455 C 0.31254 0.11451 0.93608 0.0
C4456 C 0.14107 0.45771 0.80427 0.0
C4457 C 0.14431 0.44245 0.79055 0.0
H4458 H 0.12048 0.47396 0.82183 0.0
C4459 C 0.12772 0.4351 0.78099 0.0
H4460 H 0.15336 0.46402 0.81197 0.0
C4461 C 0.10873 0.44149 0.78623 0.0
C4462 C 0.1054 0.45512 0.80157 0.0
H4463 H 0.12923 0.42331 0.77058 0.0
H4464 H 0.09641 0.43439 0.7793 0.0
C4465 C 0.12205 0.46374 0.80988 0.0
C4466 C 0.77733 0.38784 0.05963 0.0
C4467 C 0.78393 0.37006 0.05182 0.0
H4468 H 0.78174 0.41885 0.06158 0.0
C4469 C 0.79753 0.37126 0.03624 0.0
H4470 H 0.76703 0.3878 0.07161 0.0
C4471 C 0.80659 0.38904 0.03099 0.0
C4472 C 0.80197 0.40652 0.04066 0.0
H4473 H 0.80294 0.35799 0.02958 0.0
H4474 H 0.819 0.38859 0.0212 0.0
C4475 C 0.78594 0.40577 0.0538 0.0
C4476 C 0.90308 0.06157 0.28183 0.0
C4477 C 0.90728 0.04762 0.29669 0.0
H4478 H 0.88137 0.07742 0.26522 0.0
C4479 C 0.89147 0.03611 0.30294 0.0
H4480 H 0.91469 0.07083 0.27639 0.0
C4481 C 0.87225 0.03955 0.29585 0.0
C4482 C 0.86775 0.05493 0.28255 0.0
H4483 H 0.89361 0.02547 0.31443 0.0
H4484 H 0.86049 0.03105 0.30213 0.0
C4485 C 0.8838 0.06532 0.27509 0.0
C4486 C 0.1864 0.14325 0.51235 0.0
C4487 C 0.20041 0.1434 0.52759 0.0
H4488 H 0.16461 0.12631 0.49709 0.0
C4489 C 0.209 0.12523 0.53193 0.0
H4490 H 0.17925 0.15678 0.50842 0.0
C4491 C 0.20167 0.10763 0.52386 0.0
C4492 C 0.18429 0.10722 0.51261 0.0
H4493 H 0.2198 0.12431 0.54345 0.0
H4494 H 0.20771 0.09405 0.52918 0.0
C4495 C 0.17793 0.1255 0.50556 0.0
C4496 C 0.19653 0.87684 0.46903 0.0
C4497 C 0.20076 0.89371 0.45805 0.0
H4498 H 0.19885 0.84563 0.47147 0.0
C4499 C 0.21455 0.89133 0.44279 0.0
H4500 H 0.18591 0.8776 0.48071 0.0
C4501 C 0.22072 0.87265 0.43641 0.0
C4502 C 0.21424 0.85544 0.44563 0.0
H4503 H 0.21831 0.90378 0.4338 0.0
H4504 H 0.22845 0.87164 0.42265 0.0
C4505 C 0.20369 0.85821 0.46328 0.0
C4506 C 0.35512 0.45224 0.72166 0.0
C4507 C 0.34827 0.43515 0.71191 0.0
H4508 H 0.37963 0.47268 0.72498 0.0
C4509 C 0.35984 0.42833 0.69695 0.0
H4510 H 0.34653 0.45861 0.73327 0.0
C4511 C 0.37516 0.43893 0.68949 0.0
C4512 C 0.38377 0.45438 0.69935 0.0
H4513 H 0.35563 0.41534 0.68948 0.0
H4514 H 0.3819 0.43358 0.67664 0.0
C4515 C 0.37359 0.46098 0.71624 0.0
C4516 C 0.81 0.62025 0.95593 0.0
C4517 C 0.80113 0.60377 0.94754 0.0
H4518 H 0.81345 0.65142 0.95553 0.0
C4519 C 0.78618 0.60746 0.93355 0.0
H4520 H 0.82166 0.6184 0.96645 0.0
C4521 C 0.78186 0.62652 0.92663 0.0
C4522 C 0.79196 0.64286 0.93381 0.0
H4523 H 0.77879 0.5953 0.92665 0.0
H4524 H 0.77172 0.6282 0.91462 0.0
C4525 C 0.80531 0.63935 0.94937 0.0
C4526 C 0.61464 0.06105 0.18154 0.0
C4527 C 0.60536 0.04521 0.19006 0.0
H4528 H 0.6384 0.08137 0.18142 0.0
C4529 C 0.61461 0.03751 0.20705 0.0
H4530 H 0.60751 0.06765 0.16928 0.0
C4531 C 0.63283 0.04557 0.21421 0.0
C4532 C 0.64155 0.06217 0.20518 0.0
H4533 H 0.60784 0.02555 0.21483 0.0
H4534 H 0.64002 0.03875 0.22651 0.0
C4535 C 0.63174 0.06942 0.189 0.0
C4536 C 0.53371 0.19147 0.13506 0.0
C4537 C 0.54857 0.20595 0.13708 0.0
H4538 H 0.51813 0.17133 0.1163 0.0
C4539 C 0.55591 0.21375 0.11958 0.0
H4540 H 0.52749 0.1849 0.14802 0.0
C4541 C 0.54985 0.20628 0.10115 0.0
C4542 C 0.53661 0.19029 0.09925 0.0
H4543 H 0.56746 0.22453 0.12006 0.0
H4544 H 0.55686 0.21212 0.08824 0.0
C4545 C 0.52805 0.18363 0.11667 0.0
C4546 C 0.02892 0.81485 0.3897 0.0
C4547 C 0.04244 0.81293 0.40501 0.0
H4548 H 0.02164 0.80818 0.35983 0.0
C4549 C 0.05664 0.79803 0.40268 0.0
H4550 H 0.0171 0.82518 0.39116 0.0
C4551 C 0.05944 0.78816 0.38462 0.0
C4552 C 0.04761 0.79231 0.36832 0.0
H4553 H 0.06612 0.79429 0.41467 0.0
H4554 H 0.07171 0.77834 0.38311 0.0
C4555 C 0.03158 0.80496 0.37167 0.0
C4556 C 0.45953 0.29509 0.64394 0.0
C4557 C 0.44383 0.28159 0.64323 0.0
H4558 H 0.4764 0.31653 0.62808 0.0
C4559 C 0.43919 0.27379 0.62491 0.0
H4560 H 0.4642 0.30083 0.65789 0.0
C4561 C 0.44727 0.28182 0.60783 0.0
C4562 C 0.45953 0.29849 0.60844 0.0
H4563 H 0.42728 0.26346 0.62352 0.0
H4564 H 0.44183 0.27649 0.59401 0.0
C4565 C 0.46679 0.30404 0.62678 0.0
C4566 C 0.94247 0.6995 0.8652 0.0
C4567 C 0.94885 0.6904 0.84795 0.0
H4568 H 0.94207 0.69935 0.89659 0.0
C4569 C 0.96272 0.67508 0.85035 0.0
H4570 H 0.93167 0.711 0.86442 0.0
C4571 C 0.9683 0.66779 0.869 0.0
C4572 C 0.96064 0.67583 0.88624 0.0
H4573 H 0.96819 0.66753 0.83759 0.0
H4574 H 0.97738 0.65489 0.86977 0.0
C4575 C 0.94843 0.69252 0.88384 0.0
C4576 C 0.05781 0.7125 0.1354 0.0
C4577 C 0.0505 0.70258 0.15183 0.0
H4578 H 0.05767 0.71571 0.10414 0.0
C4579 C 0.03463 0.68956 0.14819 0.0
H4580 H 0.0701 0.72231 0.13704 0.0
C4581 C 0.0278 0.68512 0.12904 0.0
C4582 C 0.03618 0.69388 0.11246 0.0
H4583 H 0.02837 0.68145 0.16023 0.0
H4584 H 0.01703 0.6737 0.12721 0.0
C4585 C 0.05064 0.70842 0.11628 0.0
C4586 C 0.45611 0.79723 0.11906 0.0
C4587 C 0.44731 0.79067 0.10171 0.0
H4588 H 0.45553 0.79788 0.15046 0.0
C4589 C 0.43193 0.77678 0.10404 0.0
H4590 H 0.46758 0.80809 0.11838 0.0
C4591 C 0.42438 0.77133 0.12264 0.0
C4592 C 0.43216 0.77915 0.13996 0.0
H4593 H 0.42452 0.77121 0.09123 0.0
H4594 H 0.41147 0.76222 0.12329 0.0
C4595 C 0.44887 0.7914 0.13767 0.0
C4596 C 0.42756 0.20927 0.855 0.0
C4597 C 0.43339 0.19867 0.83846 0.0
H4598 H 0.42989 0.21319 0.88603 0.0
C4599 C 0.44914 0.18537 0.8412 0.0
H4600 H 0.41554 0.21948 0.85391 0.0
C4601 C 0.45707 0.18113 0.85992 0.0
C4602 C 0.45002 0.19052 0.87673 0.0
H4603 H 0.45445 0.17699 0.8289 0.0
H4604 H 0.46759 0.16943 0.86132 0.0
C4605 C 0.43588 0.20546 0.87361 0.0
C4606 C 0.53082 0.30583 0.36075 0.0
C4607 C 0.54513 0.29076 0.35954 0.0
H4608 H 0.51623 0.32767 0.37832 0.0
C4609 C 0.55239 0.28382 0.37742 0.0
H4610 H 0.52464 0.31174 0.34745 0.0
C4611 C 0.54683 0.29264 0.39538 0.0
C4612 C 0.53425 0.3092 0.39636 0.0
H4613 H 0.56352 0.27261 0.37752 0.0
H4614 H 0.55374 0.28736 0.40858 0.0
C4615 C 0.52571 0.31504 0.37864 0.0
C4616 C 0.14435 0.03912 0.70446 0.0
C4617 C 0.15074 0.0561 0.69454 0.0
H4618 H 0.12058 0.01839 0.70874 0.0
C4619 C 0.13779 0.06431 0.6811 0.0
H4620 H 0.1542 0.03156 0.71423 0.0
C4621 C 0.11898 0.05739 0.67851 0.0
C4622 C 0.11223 0.04062 0.68778 0.0
H4623 H 0.14224 0.07669 0.67238 0.0
H4624 H 0.10958 0.0657 0.6693 0.0
C4625 C 0.12521 0.03137 0.70101 0.0
C4626 C 0.71003 0.86393 0.9367 0.0
C4627 C 0.70043 0.84668 0.94224 0.0
H4628 H 0.71095 0.89524 0.93817 0.0
C4629 C 0.68554 0.84865 0.95663 0.0
H4630 H 0.72128 0.86344 0.92561 0.0
C4631 C 0.679 0.8671 0.96346 0.0
C4632 C 0.68747 0.88447 0.95658 0.0
H4633 H 0.6777 0.83582 0.96153 0.0
H4634 H 0.66632 0.86773 0.97286 0.0
C4635 C 0.70384 0.88235 0.94392 0.0
C4636 C 0.8804 0.42898 0.23307 0.0
C4637 C 0.86292 0.43598 0.22494 0.0
H4638 H 0.91168 0.42901 0.23155 0.0
C4639 C 0.86417 0.45297 0.21326 0.0
H4640 H 0.88025 0.41583 0.24185 0.0
C4641 C 0.88233 0.46015 0.20673 0.0
C4642 C 0.89978 0.45077 0.212 0.0
H4643 H 0.85108 0.45874 0.20651 0.0
H4644 H 0.88242 0.47091 0.19513 0.0
C4645 C 0.89859 0.43654 0.22692 0.0
C4646 C 0.27291 0.62041 0.42618 0.0
C4647 C 0.28147 0.63685 0.43498 0.0
H4648 H 0.27161 0.58913 0.42433 0.0
C4649 C 0.2937 0.63313 0.45142 0.0
H4650 H 0.26373 0.62224 0.41345 0.0
C4651 C 0.29889 0.61394 0.45738 0.0
C4652 C 0.29164 0.59749 0.44749 0.0
H4653 H 0.30064 0.64524 0.45884 0.0
H4654 H 0.30977 0.61212 0.46871 0.0
C4655 C 0.27771 0.60123 0.43247 0.0
C4656 C 0.1012 0.92881 0.28987 0.0
C4657 C 0.10036 0.94444 0.30348 0.0
H4658 H 0.11918 0.90867 0.27367 0.0
C4659 C 0.11772 0.9548 0.30676 0.0
H4660 H 0.08817 0.92079 0.28616 0.0
C4661 C 0.13548 0.94844 0.29846 0.0
C4662 C 0.13671 0.93118 0.28706 0.0
H4663 H 0.11788 0.96701 0.3168 0.0
H4664 H 0.14865 0.95621 0.30239 0.0
C4665 C 0.11907 0.92204 0.2821 0.0
C4666 C 0.79357 0.8579 0.53548 0.0
C4667 C 0.7814 0.85917 0.55219 0.0
H4668 H 0.81429 0.87242 0.51694 0.0
C4669 C 0.77535 0.87792 0.55776 0.0
H4670 H 0.79806 0.84384 0.53003 0.0
C4671 C 0.78353 0.89465 0.54872 0.0
C4672 C 0.79899 0.8931 0.53502 0.0
H4673 H 0.76586 0.87977 0.57026 0.0
H4674 H 0.7796 0.90884 0.55439 0.0
C4675 C 0.80259 0.87449 0.52737 0.0
C4676 C 0.86513 0.55464 0.77591 0.0
C4677 C 0.84698 0.54935 0.78388 0.0
H4678 H 0.89634 0.55147 0.77689 0.0
C4679 C 0.84725 0.53379 0.79772 0.0
H4680 H 0.86598 0.56657 0.76558 0.0
C4681 C 0.86487 0.52549 0.8049 0.0
C4682 C 0.88312 0.532 0.79817 0.0
H4683 H 0.8337 0.52906 0.80434 0.0
H4684 H 0.86416 0.51514 0.81682 0.0
C4685 C 0.88272 0.54595 0.78272 0.0
C4686 C 0.18431 0.6458 0.0397 0.0
C4687 C 0.19844 0.64557 0.05497 0.0
H4688 H 0.16484 0.62944 0.02092 0.0
C4689 C 0.20666 0.62734 0.05943 0.0
H4690 H 0.1776 0.65947 0.03551 0.0
C4691 C 0.19977 0.61005 0.05029 0.0
C4692 C 0.18397 0.61007 0.03673 0.0
H4693 H 0.21732 0.62617 0.07106 0.0
H4694 H 0.20581 0.59629 0.05517 0.0
C4695 C 0.177 0.62845 0.03098 0.0
C4696 C 0.21196 0.37435 0.93742 0.0
C4697 C 0.20382 0.35673 0.94402 0.0
H4698 H 0.21054 0.40566 0.93741 0.0
C4699 C 0.18922 0.35826 0.95875 0.0
H4700 H 0.22289 0.37416 0.92601 0.0
C4701 C 0.18148 0.37647 0.9649 0.0
C4702 C 0.18841 0.39406 0.95697 0.0
H4703 H 0.18247 0.34513 0.96442 0.0
H4704 H 0.16902 0.37661 0.97463 0.0
C4705 C 0.20457 0.39257 0.94396 0.0
C4706 C 0.38254 0.95801 0.18175 0.0
C4707 C 0.39881 0.94765 0.18873 0.0
H4708 H 0.35133 0.96145 0.18189 0.0
C4709 C 0.39508 0.93418 0.20416 0.0
H4710 H 0.38431 0.96822 0.16982 0.0
C4711 C 0.3759 0.92971 0.21081 0.0
C4712 C 0.35946 0.93891 0.20267 0.0
H4713 H 0.40705 0.92581 0.2102 0.0
H4714 H 0.37393 0.91796 0.22118 0.0
C4715 C 0.3634 0.95388 0.18873 0.0
C4716 C 0.78406 0.10838 0.42677 0.0
C4717 C 0.78913 0.12647 0.43502 0.0
H4718 H 0.78972 0.07756 0.42518 0.0
C4719 C 0.80285 0.12588 0.45068 0.0
H4720 H 0.77396 0.10786 0.41462 0.0
C4721 C 0.81264 0.10849 0.45632 0.0
C4722 C 0.80879 0.09069 0.44689 0.0
H4723 H 0.8073 0.13937 0.45762 0.0
H4724 H 0.82425 0.10936 0.46702 0.0
C4725 C 0.79347 0.0909 0.4328 0.0
C4726 C 0.59984 0.52259 0.69149 0.0
C4727 C 0.5925 0.53314 0.6751 0.0
H4728 H 0.62356 0.51941 0.71277 0.0
C4729 C 0.60333 0.54932 0.66965 0.0
H4730 H 0.59179 0.51013 0.69693 0.0
C4731 C 0.62013 0.55547 0.67956 0.0
C4732 C 0.62816 0.54545 0.69524 0.0
H4733 H 0.59762 0.5579 0.65789 0.0
H4734 H 0.628 0.5679 0.67426 0.0
C4735 C 0.61781 0.52835 0.70109 0.0
C4736 C 0.5283 0.68437 0.61655 0.0
C4737 C 0.53879 0.69285 0.60109 0.0
H4738 H 0.52495 0.68117 0.64758 0.0
C4739 C 0.55263 0.70748 0.60637 0.0
H4740 H 0.51776 0.67297 0.61354 0.0
C4741 C 0.55738 0.71181 0.62612 0.0
C4742 C 0.54806 0.70207 0.64159 0.0
H4743 H 0.56105 0.71464 0.59507 0.0
H4744 H 0.56939 0.72164 0.62916 0.0
C4745 C 0.53268 0.68908 0.63628 0.0
C4746 C 0.05754 0.28667 0.88513 0.0
C4747 C 0.04322 0.30169 0.88647 0.0
H4748 H 0.07776 0.2705 0.86708 0.0
C4749 C 0.03564 0.30861 0.86871 0.0
H4750 H 0.06387 0.28076 0.89835 0.0
C4751 C 0.04329 0.30207 0.8506 0.0
C4752 C 0.0592 0.28873 0.84935 0.0
H4753 H 0.02495 0.32024 0.86876 0.0
H4754 H 0.03773 0.3088 0.83742 0.0
C4755 C 0.06555 0.28051 0.86703 0.0
C4756 C 0.92158 0.22199 0.37117 0.0
C4757 C 0.93025 0.21562 0.35371 0.0
H4758 H 0.92094 0.22032 0.40251 0.0
C4759 C 0.9476 0.20432 0.35575 0.0
H4760 H 0.90816 0.23031 0.37064 0.0
C4761 C 0.9547 0.19788 0.37417 0.0
C4762 C 0.94503 0.20288 0.39156 0.0
H4763 H 0.95492 0.19897 0.3428 0.0
H4764 H 0.96678 0.18772 0.3746 0.0
C4765 C 0.92897 0.21596 0.38962 0.0
C4766 C 0.03148 0.18495 0.63914 0.0
C4767 C 0.04784 0.19773 0.63918 0.0
H4768 H 0.01355 0.16457 0.62298 0.0
C4769 C 0.0551 0.20324 0.62078 0.0
H4770 H 0.02499 0.18065 0.65289 0.0
C4771 C 0.04773 0.19462 0.60341 0.0
C4772 C 0.03345 0.17956 0.60368 0.0
H4773 H 0.06748 0.21302 0.61983 0.0
H4774 H 0.05422 0.19894 0.5897 0.0
C4775 C 0.02459 0.17582 0.62182 0.0
C4776 C 0.4566 0.68368 0.36733 0.0
C4777 C 0.44208 0.69833 0.36453 0.0
H4778 H 0.47043 0.66291 0.38673 0.0
C4779 C 0.4333 0.70563 0.38157 0.0
H4780 H 0.46384 0.67746 0.35474 0.0
C4781 C 0.43768 0.69753 0.4002 0.0
C4782 C 0.4506 0.68142 0.40268 0.0
H4783 H 0.4219 0.7165 0.38044 0.0
H4784 H 0.42967 0.70303 0.41266 0.0
C4785 C 0.46061 0.67525 0.38588 0.0
C4786 C 0.56023 0.78317 0.85965 0.0
C4787 C 0.5551 0.79277 0.84227 0.0
H4788 H 0.55741 0.78175 0.89087 0.0
C4789 C 0.54006 0.80706 0.8438 0.0
H4790 H 0.57172 0.77234 0.85951 0.0
C4791 C 0.53218 0.81308 0.86203 0.0
C4792 C 0.53857 0.80464 0.87961 0.0
H4793 H 0.53538 0.81482 0.83085 0.0
H4794 H 0.52227 0.82537 0.8624 0.0
C4795 C 0.55195 0.78882 0.87782 0.0
C4796 C 0.61447 0.4307 0.30447 0.0
C4797 C 0.60546 0.44628 0.2952 0.0
H4798 H 0.63756 0.4097 0.30535 0.0
C4799 C 0.61442 0.45253 0.27748 0.0
H4800 H 0.60753 0.4251 0.3173 0.0
C4801 C 0.63211 0.44339 0.27036 0.0
C4802 C 0.64051 0.42708 0.28017 0.0
H4803 H 0.60782 0.46418 0.26912 0.0
H4804 H 0.63915 0.44916 0.25745 0.0
C4805 C 0.63102 0.42127 0.2971 0.0
C4806 C 0.29032 0.36583 0.55901 0.0
C4807 C 0.29747 0.34873 0.55016 0.0
H4808 H 0.29199 0.39702 0.5618 0.0
C4809 C 0.31056 0.3517 0.53424 0.0
H4810 H 0.28052 0.36467 0.57135 0.0
C4811 C 0.31761 0.37063 0.52877 0.0
C4812 C 0.31162 0.38762 0.53876 0.0
H4813 H 0.3164 0.33915 0.52666 0.0
H4814 H 0.32895 0.37168 0.51781 0.0
C4815 C 0.29712 0.38465 0.5534 0.0
C4816 C 0.38319 0.04215 0.78927 0.0
C4817 C 0.3863 0.02988 0.80581 0.0
H4818 H 0.36293 0.05872 0.77155 0.0
C4819 C 0.36947 0.02177 0.81429 0.0
H4820 H 0.39561 0.04878 0.78208 0.0
C4821 C 0.35054 0.02702 0.80759 0.0
C4822 C 0.34744 0.04103 0.79251 0.0
H4823 H 0.3708 0.01258 0.82708 0.0
H4824 H 0.33812 0.02118 0.81544 0.0
C4825 C 0.36426 0.04784 0.78293 0.0
C4826 C 0.69013 0.14333 0.03754 0.0
C4827 C 0.70379 0.14656 0.05296 0.0
H4828 H 0.67255 0.12291 0.02094 0.0
C4829 C 0.71298 0.12978 0.06038 0.0
H4830 H 0.68258 0.15567 0.03119 0.0
C4831 C 0.7076 0.1108 0.0538 0.0
C4832 C 0.69242 0.1075 0.03989 0.0
H4833 H 0.72323 0.13114 0.07234 0.0
H4834 H 0.71437 0.09843 0.06094 0.0
C4835 C 0.68438 0.12433 0.03133 0.0
C4836 C 0.93524 0.2845 0.09654 0.0
C4837 C 0.94842 0.30046 0.09729 0.0
H4838 H 0.91536 0.26577 0.11216 0.0
C4839 C 0.95504 0.3062 0.11585 0.0
H4840 H 0.92959 0.27967 0.08259 0.0
C4841 C 0.94707 0.29776 0.13295 0.0
C4842 C 0.93205 0.28351 0.13214 0.0
H4843 H 0.9647 0.31865 0.11726 0.0
H4844 H 0.95112 0.304 0.14691 0.0
C4845 C 0.92712 0.27624 0.11362 0.0
C4846 C 0.9389 0.80101 0.63969 0.0
C4847 C 0.92476 0.78624 0.64356 0.0
H4848 H 0.95545 0.81769 0.61866 0.0
C4849 C 0.9195 0.77459 0.62735 0.0
H4850 H 0.9437 0.81044 0.65143 0.0
C4851 C 0.92669 0.77878 0.60811 0.0
C4852 C 0.93934 0.79483 0.60415 0.0
H4853 H 0.90858 0.7633 0.62913 0.0
H4854 H 0.92114 0.77022 0.59604 0.0
C4855 C 0.94592 0.80522 0.62062 0.0
C4856 C 0.63003 0.96357 0.81136 0.0
C4857 C 0.61297 0.95644 0.80244 0.0
H4858 H 0.66126 0.96173 0.81396 0.0
C4859 C 0.61578 0.94321 0.78662 0.0
H4860 H 0.6289 0.9734 0.82368 0.0
C4861 C 0.63445 0.93579 0.78141 0.0
C4862 C 0.65134 0.94167 0.79148 0.0
H4863 H 0.60317 0.93721 0.77918 0.0
H4864 H 0.63538 0.92435 0.77055 0.0
C4865 C 0.64875 0.95654 0.8058 0.0
C4866 C 0.30245 0.85709 0.03638 0.0
C4867 C 0.28849 0.85664 0.05178 0.0
H4868 H 0.32316 0.87392 0.01948 0.0
C4869 C 0.28201 0.8748 0.0587 0.0
H4870 H 0.3079 0.84351 0.03043 0.0
C4871 C 0.29041 0.89243 0.05175 0.0
C4872 C 0.30601 0.89272 0.03801 0.0
H4873 H 0.27161 0.87541 0.07059 0.0
H4874 H 0.28571 0.90594 0.05847 0.0
C4875 C 0.31122 0.87468 0.02981 0.0
C4876 C 0.35421 0.5393 0.29866 0.0
C4877 C 0.35418 0.55553 0.28563 0.0
H4878 H 0.37057 0.52051 0.31809 0.0
C4879 C 0.37258 0.56214 0.2794 0.0
H4880 H 0.34045 0.53354 0.30391 0.0
C4881 C 0.39003 0.554 0.28715 0.0
C4882 C 0.38997 0.53927 0.30185 0.0
H4883 H 0.37357 0.57461 0.26975 0.0
H4884 H 0.40374 0.56048 0.28269 0.0
C4885 C 0.37163 0.53152 0.3068 0.0
C4886 C 0.71338 0.62711 0.56689 0.0
C4887 C 0.70572 0.64532 0.56136 0.0
H4888 H 0.7131 0.59597 0.56294 0.0
C4889 C 0.69323 0.64517 0.54467 0.0
H4890 H 0.7227 0.6261 0.57962 0.0
C4891 C 0.68699 0.62764 0.53537 0.0
C4892 C 0.69341 0.60929 0.54194 0.0
H4893 H 0.68692 0.65875 0.53962 0.0
H4894 H 0.67599 0.62845 0.52404 0.0
C4895 C 0.70757 0.60962 0.55724 0.0
C4896 C 0.99364 0.49127 0.20263 0.0
C4897 C 0.99162 0.47179 0.19701 0.0
H4898 H 0.00738 0.51825 0.19582 0.0
C4899 C 0.00711 0.46247 0.18739 0.0
H4900 H 0.98216 0.49848 0.21077 0.0
C4901 C 0.02083 0.47386 0.17762 0.0
C4902 C 0.01977 0.49418 0.17919 0.0
H4903 H 0.0062 0.44712 0.18371 0.0
H4904 H 0.03075 0.46698 0.16743 0.0
C4905 C 0.00775 0.50261 0.19353 0.0
C4906 C 0.7288 0.2416 0.40327 0.0
C4907 C 0.73254 0.25219 0.42035 0.0
H4908 H 0.72871 0.21405 0.38923 0.0
C4909 C 0.73739 0.24235 0.43759 0.0
H4910 H 0.72463 0.24887 0.38988 0.0
C4911 C 0.74049 0.22215 0.43705 0.0
C4912 C 0.7376 0.21175 0.41955 0.0
H4913 H 0.73957 0.25031 0.45108 0.0
H4914 H 0.74621 0.21486 0.44987 0.0
C4915 C 0.73064 0.22153 0.40304 0.0
C4916 C 0.00776 0.96523 0.67915 0.0
C4917 C 0.99106 0.97698 0.68037 0.0
H4918 H 0.03893 0.96523 0.67749 0.0
C4919 C 0.99244 -0.00398 0.68742 0.0
H4920 H 0.00677 0.9503 0.67402 0.0
C4921 C 0.01076 0.00421 0.69044 0.0
C4922 C 0.02757 0.9937 0.68508 0.0
H4923 H 0.97955 0.00506 0.68884 0.0
H4924 H 0.0115 0.01961 0.69396 0.0
C4925 C 0.02612 0.97368 0.68128 0.0
C4926 C 0.24442 0.25447 0.93789 0.0
C4927 C 0.24491 0.2669 0.92164 0.0
H4928 H 0.24713 0.22474 0.9476 0.0
C4929 C 0.24566 0.25909 0.90275 0.0
H4930 H 0.24306 0.26032 0.95251 0.0
C4931 C 0.24534 0.23923 0.89999 0.0
C4932 C 0.24598 0.22677 0.91605 0.0
H4933 H 0.24546 0.26835 0.88992 0.0
H4934 H 0.24635 0.23367 0.88519 0.0
C4935 C 0.24577 0.23433 0.93509 0.0
C4936 C 0.00051 0.48597 0.83596 0.0
C4937 C 0.01101 0.48748 0.81852 0.0
H4938 H 0.97281 0.48431 0.84954 0.0
C4939 C 0.00111 0.48787 0.8006 0.0
H4940 H 0.00787 0.48492 0.84993 0.0
C4941 C 0.9807 0.48824 0.80041 0.0
C4942 C 0.97032 0.48674 0.81804 0.0
H4943 H 0.00911 0.48811 0.78697 0.0
H4944 H 0.97306 0.49041 0.78673 0.0
C4945 C 0.98043 0.48482 0.83567 0.0
C4946 C 0.73476 0.27294 0.08637 0.0
C4947 C 0.74085 0.28166 0.0689 0.0
H4948 H 0.72895 0.24663 0.1016 0.0
C4949 C 0.74402 0.26998 0.05231 0.0
H4950 H 0.73272 0.28139 0.09959 0.0
C4951 C 0.74113 0.24975 0.05338 0.0
C4952 C 0.73643 0.2412 0.07137 0.0
H4953 H 0.7492 0.27642 0.03883 0.0
H4954 H 0.74294 0.24083 0.04046 0.0
C4955 C 0.73315 0.25293 0.08771 0.0
C4956 C 0.01537 0.03 0.30717 0.0
C4957 C -0.00288 0.02154 0.30339 0.0
H4958 H 0.04471 0.02388 0.31579 0.0
C4959 C -0.00408 0.00242 0.29651 0.0
H4960 H 0.01648 0.04502 0.31204 0.0
C4961 C 0.01228 0.99058 0.29774 0.0
C4962 C 0.02912 -0.0022 0.30702 0.0
H4963 H 0.98191 -0.00408 0.29307 0.0
H4964 H 0.01044 0.97514 0.29486 0.0
C4965 C 0.03151 0.01794 0.30939 0.0
C4966 C 0.24223 0.23993 0.53636 0.0
C4967 C 0.22288 0.23868 0.54275 0.0
H4968 H 0.26904 0.25551 0.53861 0.0
C4969 C 0.21389 0.25512 0.55099 0.0
H4970 H 0.2493 0.22742 0.52977 0.0
C4971 C 0.22534 0.27091 0.55688 0.0
C4972 C 0.24558 0.2704 0.55387 0.0
H4973 H 0.19886 0.25444 0.55588 0.0
H4974 H 0.21875 0.28226 0.56568 0.0
C4975 C 0.25355 0.2559 0.54175 0.0
C4976 C 0.18878 0.00609 0.50953 0.0
C4977 C 0.18188 0.02089 0.49717 0.0
H4978 H 0.19483 0.9756 0.51151 0.0
C4979 C 0.18397 0.01907 0.47695 0.0
H4980 H 0.18783 0.0075 0.52526 0.0
C4981 C 0.18905 0.00107 0.46912 0.0
C4982 C 0.19063 0.98491 0.48163 0.0
H4983 H 0.17935 0.03067 0.46725 0.0
H4984 H 0.18785 -0.00083 0.45346 0.0
C4985 C 0.19301 0.98788 0.5017 0.0
C4986 C 0.26247 0.43979 0.75353 0.0
C4987 C 0.26159 0.43363 0.73413 0.0
H4988 H 0.24573 0.44638 0.77872 0.0
C4989 C 0.24447 0.43624 0.7232 0.0
H4990 H 0.27588 0.43862 0.76184 0.0
C4991 C 0.22712 0.4398 0.733 0.0
C4992 C 0.2275 0.44077 0.75338 0.0
H4993 H 0.24384 0.43221 0.70792 0.0
H4994 H 0.21346 0.43787 0.72524 0.0
C4995 C 0.24522 0.44445 0.76302 0.0
C4996 C 0.80836 0.5097 0.0269 0.0
C4997 C 0.81014 0.49091 0.01912 0.0
H4998 H 0.80678 0.53995 0.01964 0.0
C4999 C 0.80363 0.48701 0.00015 0.0
H5000 H 0.81294 0.51279 0.04173 0.0
C5001 C 0.79926 0.50246 0.98778 0.0
C5002 C 0.80277 0.52154 0.99427 0.0
H5003 H 0.80442 0.47238 0.9942 0.0
H5004 H 0.79715 0.49936 0.9724 0.0
C5005 C 0.80466 0.5252 0.01433 0.0
C5006 C 0.75879 0.05609 0.24524 0.0
C5007 C 0.77172 0.07198 0.24511 0.0
H5008 H 0.7288 0.04718 0.24231 0.0
C5009 C 0.76429 0.09107 0.2448 0.0
H5010 H 0.76424 0.04128 0.24615 0.0
C5011 C 0.74444 0.09434 0.24487 0.0
C5012 C 0.73152 0.07864 0.24386 0.0
H5013 H 0.77381 0.1037 0.24527 0.0
H5014 H 0.73926 0.10927 0.24406 0.0
C5015 C 0.73868 0.05943 0.24387 0.0
C5016 C 0.49646 0.15257 -0.00209 0.0
C5017 C 0.49912 0.16914 0.00945 0.0
H5018 H 0.49195 0.14122 0.96956 0.0
C5019 C 0.49852 0.1878 0.00097 0.0
H5020 H 0.49759 0.13802 0.00403 0.0
C5021 C 0.49467 0.18972 0.98098 0.0
C5022 C 0.49288 0.17294 0.96941 0.0
H5023 H 0.50122 0.20069 0.00971 0.0
H5024 H 0.49326 0.2041 0.97457 0.0
C5025 C 0.49389 0.15443 0.97805 0.0
C5026 C 0.01056 0.80527 0.51916 0.0
C5027 C 0.99031 0.80273 0.51827 0.0
H5028 H 0.03546 0.81696 0.50462 0.0
C5029 C 0.98095 0.80292 0.49998 0.0
H5030 H 0.01818 0.80459 0.53302 0.0
C5031 C 0.99045 0.81117 0.48404 0.0
C5032 C 0.00967 0.81766 0.48616 0.0
H5033 H 0.96541 0.80022 0.49873 0.0
H5034 H 0.9823 0.81411 0.47081 0.0
C5035 C 0.02031 0.8127 0.50298 0.0
C5036 C 0.43005 0.25244 0.76168 0.0
C5037 C 0.42847 0.23226 0.75917 0.0
H5038 H 0.43352 0.27948 0.74691 0.0
C5039 C 0.43674 0.2233 0.74271 0.0
H5040 H 0.42462 0.25947 0.77476 0.0
C5041 C 0.44117 0.23474 0.72661 0.0
C5042 C 0.43734 0.25472 0.72758 0.0
H5043 H 0.4365 0.20759 0.74093 0.0
H5044 H 0.44359 0.22767 0.71267 0.0
C5045 C 0.43546 0.26382 0.74582 0.0
C5046 C 0.99483 0.65227 0.01141 0.0
C5047 C -0.0032 0.67198 0.01677 0.0
H5048 H 0.99226 0.63156 0.98845 0.0
C5049 C -0.00207 0.68629 0.00215 0.0
H5050 H 0.99445 0.64074 0.02223 0.0
C5051 C -0.00396 0.68087 0.98249 0.0
C5052 C 0.99448 0.66105 0.97742 0.0
H5053 H 2e-05 0.70149 0.00594 0.0
H5054 H 0.99542 0.69206 0.97134 0.0
C5055 C 0.99428 0.64685 0.992 0.0
C5056 C 0.05655 0.72513 0.27872 0.0
C5057 C 0.05426 0.74533 0.28023 0.0
H5058 H 0.06278 0.70139 0.2596 0.0
C5059 C 0.05148 0.75655 0.26319 0.0
H5060 H 0.05849 0.71622 0.29164 0.0
C5061 C 0.0551 0.74837 0.24499 0.0
C5062 C 0.06015 0.72872 0.24377 0.0
H5063 H 0.04933 0.77219 0.26394 0.0
H5064 H 0.05543 0.75763 0.23217 0.0
C5065 C 0.05916 0.71676 0.26042 0.0
C5066 C 0.48979 0.79674 -0.00417 0.0
C5067 C 0.48784 0.81287 0.00827 0.0
H5068 H 0.49685 0.7874 0.96664 0.0
C5069 C 0.48855 0.8318 0.00056 0.0
H5070 H 0.48872 0.78203 0.00151 0.0
C5071 C 0.49113 0.83474 0.98081 0.0
C5072 C 0.49428 0.81887 0.96844 0.0
H5073 H 0.48677 0.8445 0.0098 0.0
H5074 H 0.4922 0.84961 0.9755 0.0
C5075 C 0.49377 0.79978 0.97597 0.0
C5076 C 0.58189 0.24318 0.24071 0.0
C5077 C 0.56497 0.24414 0.22933 0.0
H5078 H 0.5941 0.24234 0.26908 0.0
C5079 C 0.54661 0.24495 0.23834 0.0
H5080 H 0.59617 0.24179 0.23406 0.0
C5081 C 0.54542 0.24605 0.25872 0.0
C5082 C 0.5625 0.24474 0.27 0.0
H5083 H 0.53337 0.2448 0.22968 0.0
H5084 H 0.53138 0.24829 0.26563 0.0
C5085 C 0.58062 0.24274 0.26078 0.0
C5086 C 0.72953 0.74381 0.93566 0.0
C5087 C 0.73923 0.76186 0.93482 0.0
H5088 H 0.73237 0.71335 0.92954 0.0
C5089 C 0.75954 0.7626 0.9365 0.0
H5090 H 0.71375 0.74297 0.93503 0.0
C5091 C 0.77017 0.74552 0.93424 0.0
C5092 C 0.76026 0.72816 0.92968 0.0
H5093 H 0.76718 0.77645 0.93644 0.0
H5094 H 0.78588 0.74659 0.93278 0.0
C5095 C 0.7401 0.72685 0.93239 0.0
C5096 C 0.21904 0.74276 0.43601 0.0
C5097 C 0.23096 0.75892 0.44015 0.0
H5098 H 0.21881 0.71328 0.42572 0.0
C5099 C 0.2506 0.75626 0.44474 0.0
H5100 H 0.20369 0.74465 0.43265 0.0
C5101 C 0.25903 0.73812 0.44166 0.0
C5102 C 0.24792 0.72315 0.433 0.0
H5103 H 0.25987 0.76862 0.44817 0.0
H5104 H 0.27472 0.7369 0.44318 0.0
C5105 C 0.22763 0.72487 0.43188 0.0
C5106 C 0.73759 0.76687 0.60251 0.0
C5107 C 0.73924 0.77512 0.58385 0.0
H5108 H 0.73643 0.74079 0.61939 0.0
C5109 C 0.74013 0.76294 0.5674 0.0
H5110 H 0.73752 0.77591 0.6155 0.0
C5111 C 0.73946 0.74272 0.56969 0.0
C5112 C 0.73892 0.73462 0.58848 0.0
H5113 H 0.74205 0.76906 0.55294 0.0
H5114 H 0.73919 0.73343 0.5569 0.0
C5115 C 0.73793 0.74681 0.60482 0.0
C5116 C 0.23912 0.74244 0.0958 0.0
C5117 C 0.23892 0.73048 0.07932 0.0
H5118 H 0.24012 0.7712 0.10682 0.0
C5119 C 0.23982 0.7386 0.06056 0.0
H5120 H 0.23751 0.73642 0.11036 0.0
C5121 C 0.24189 0.75875 0.05847 0.0
C5122 C 0.24158 0.77069 0.0751 0.0
H5123 H 0.23872 0.72944 0.04772 0.0
H5124 H 0.24406 0.76497 0.04409 0.0
C5125 C 0.23971 0.76238 0.09369 0.0
C5126 C 0.18184 0.49573 0.99079 0.0
C5127 C 0.16428 0.48528 0.99009 0.0
H5128 H 0.19471 0.52417 0.99361 0.0
C5129 C 0.14654 0.49514 0.98787 0.0
H5130 H 0.19572 0.4882 0.99141 0.0
C5131 C 0.14621 0.51519 0.98655 0.0
C5132 C 0.16342 0.52583 0.98921 0.0
H5133 H 0.13287 0.4873 0.98642 0.0
H5134 H 0.13212 0.52234 0.98566 0.0
C5135 C 0.18136 0.51609 0.991 0.0
C5136 C 0.25602 0.90002 0.23999 0.0
C5137 C 0.26373 0.919 0.24032 0.0
H5138 H 0.23098 0.88197 0.2428 0.0
C5139 C 0.25123 0.93498 0.24276 0.0
H5140 H 0.26527 0.88741 0.23771 0.0
C5141 C 0.23137 0.9317 0.24645 0.0
C5142 C 0.22391 0.91255 0.2463 0.0
H5143 H 0.25687 0.94974 0.2424 0.0
H5144 H 0.22202 0.9439 0.25007 0.0
C5145 C 0.23626 0.89689 0.24233 0.0
C5146 C 0.82025 0.01338 0.50543 0.0
C5147 C 0.8214 0.01241 0.48508 0.0
H5148 H 0.81717 -0.00321 0.53149 0.0
C5149 C 0.81355 -0.00373 0.47514 0.0
H5150 H 0.82543 0.02608 0.5133 0.0
C5151 C 0.8094 0.97938 0.48547 0.0
C5152 C 0.8127 0.9791 0.50557 0.0
H5153 H 0.81348 -0.00443 0.45933 0.0
H5154 H 0.80682 0.96595 0.47751 0.0
C5155 C 0.81524 -0.00331 0.51578 0.0
C5156 C 0.73254 0.5482 0.74079 0.0
C5157 C 0.71902 0.56344 0.743 0.0
H5158 H 0.76283 0.53999 0.74268 0.0
C5159 C 0.72568 0.58237 0.74705 0.0
H5160 H 0.72768 0.53363 0.73704 0.0
C5161 C 0.74541 0.58624 0.74816 0.0
C5162 C 0.75891 0.57112 0.74635 0.0
H5163 H 0.71567 0.59456 0.74821 0.0
H5164 H 0.75011 0.601 0.75145 0.0
C5165 C 0.75249 0.55193 0.7432 0.0
C5166 C 0.5026 0.67996 0.47902 0.0
C5167 C 0.48281 0.6765 0.48258 0.0
H5168 H 0.52942 0.6893 0.49157 0.0
C5169 C 0.47353 0.68565 0.49839 0.0
H5170 H 0.50977 0.67391 0.46629 0.0
C5171 C 0.48483 0.69411 0.51295 0.0
C5172 C 0.50514 0.69282 0.51152 0.0
H5173 H 0.458 0.68394 0.50088 0.0
H5174 H 0.47799 0.69772 0.52674 0.0
C5175 C 0.51368 0.68929 0.49325 0.0
C5176 C -0.00224 0.34164 0.00456 0.0
C5177 C 0.99329 0.32466 0.01486 0.0
H5178 H 0.00329 0.35437 0.97701 0.0
C5179 C 0.99261 0.30656 0.00528 0.0
H5180 H -0.00237 0.35584 0.01157 0.0
C5181 C -0.0033 0.3056 0.98532 0.0
C5182 C -0.00014 0.32293 0.97496 0.0
H5183 H 0.98848 0.29345 0.01309 0.0
H5184 H -0.0029 0.29161 0.97799 0.0
C5185 C 0.00032 0.34087 0.98469 0.0
C5186 C 0.43399 0.74278 0.23783 0.0
C5187 C 0.4146 0.74508 0.23154 0.0
H5188 H 0.45283 0.7376 0.26248 0.0
C5189 C 0.39952 0.74593 0.24519 0.0
H5190 H 0.44587 0.74293 0.22741 0.0
C5191 C 0.40362 0.74495 0.26489 0.0
C5192 C 0.42282 0.74195 0.27142 0.0
H5193 H 0.38457 0.74856 0.24068 0.0
H5194 H 0.39145 0.74556 0.27496 0.0
C5195 C 0.43802 0.74049 0.25776 0.0
C5196 C 0.98249 0.19138 0.49857 0.0
C5197 C 0.98397 0.17725 0.48384 0.0
H5198 H 0.98534 0.19671 0.52944 0.0
C5199 C 0.9859 0.15751 0.48884 0.0
H5200 H 0.98039 0.20661 0.49493 0.0
C5201 C 0.98576 0.15179 0.50808 0.0
C5202 C 0.98588 0.1658 0.52282 0.0
H5203 H 0.9869 0.14621 0.47783 0.0
H5204 H 0.98771 0.13642 0.51135 0.0
C5205 C 0.98439 0.1857 0.51813 0.0
C5206 C 0.09316 0.25367 0.72814 0.0
C5207 C 0.07579 0.24541 0.72133 0.0
H5208 H 0.10967 0.26209 0.75289 0.0
C5209 C 0.06017 0.24203 0.7342 0.0
H5210 H 0.10555 0.2561 0.7186 0.0
C5211 C 0.06243 0.2461 0.75403 0.0
C5212 C 0.08064 0.25235 0.76084 0.0
H5213 H 0.04676 0.23537 0.72909 0.0
H5214 H 0.05035 0.24394 0.76399 0.0
C5215 C 0.09578 0.25645 0.74783 0.0
C5216 C 0.5009 0.34812 0.51666 0.0
C5217 C 0.49916 0.32929 0.52447 0.0
H5218 H 0.50288 0.3655 0.4911 0.0
C5219 C 0.49881 0.31302 0.51206 0.0
H5220 H 0.50053 0.36099 0.52585 0.0
C5221 C 0.50048 0.31569 0.49196 0.0
C5222 C 0.50126 0.33466 0.48433 0.0
H5223 H 0.49679 0.29846 0.51788 0.0
H5224 H 0.50139 0.30311 0.48243 0.0
C5225 C 0.50131 0.35079 0.49674 0.0
C5226 C 0.55767 0.73457 0.76574 0.0
C5227 C 0.56037 0.75463 0.76319 0.0
H5228 H 0.55207 0.70771 0.75124 0.0
C5229 C 0.55274 0.76395 0.7466 0.0
H5230 H 0.56271 0.72729 0.77885 0.0
C5231 C 0.54721 0.75273 0.73066 0.0
C5232 C 0.5492 0.73248 0.73178 0.0
H5233 H 0.55395 0.7796 0.7447 0.0
H5234 H 0.54502 0.75984 0.7167 0.0
C5235 C 0.55122 0.72346 0.75005 0.0
C5236 C 0.48567 0.50305 0.6926 0.0
C5237 C 0.48056 0.48372 0.68898 0.0
H5238 H 0.50426 0.52641 0.68456 0.0
C5239 C 0.49392 0.47126 0.67954 0.0
H5240 H 0.47572 0.51272 0.70018 0.0
C5241 C 0.50952 0.47926 0.66925 0.0
C5242 C 0.51231 0.49943 0.66966 0.0
H5243 H 0.4904 0.45605 0.67703 0.0
H5244 H 0.51804 0.47006 0.65964 0.0
C5245 C 0.50174 0.51087 0.68313 0.0
C5246 C 0.50486 0.96923 0.18367 0.0
C5247 C 0.48693 0.97903 0.18226 0.0
H5248 H 0.53583 0.97258 0.182 0.0
C5249 C 0.48588 -0.00098 0.18592 0.0
H5250 H 0.50579 0.95363 0.18123 0.0
C5251 C 0.50305 0.00969 0.18739 0.0
C5252 C 0.52099 0.00036 0.18399 0.0
H5253 H 0.47204 0.00664 0.18529 0.0
H5254 H 0.50199 0.02546 0.18785 0.0
C5255 C 0.52204 0.97999 0.18414 0.0
C5256 C 0.48878 0.49617 0.33815 0.0
C5257 C 0.47615 0.49645 0.32216 0.0
H5258 H 0.51802 0.49461 0.34803 0.0
C5259 C 0.48354 0.49495 0.30312 0.0
H5260 H 0.48337 0.49814 0.3529 0.0
C5261 C 0.50358 0.49227 0.30029 0.0
C5262 C 0.5162 0.49268 0.31642 0.0
H5263 H 0.47391 0.49601 0.29062 0.0
H5264 H 0.5092 0.48983 0.28571 0.0
C5265 C 0.50864 0.49492 0.33528 0.0
C5266 C 0.50855 0.99506 0.80453 0.0
C5267 C 0.52 0.99545 0.82152 0.0
H5268 H 0.47947 -0.00251 0.79287 0.0
C5269 C 0.511 -0.00346 0.83984 0.0
H5270 H 0.51528 0.99349 0.79031 0.0
C5271 C 0.49094 -0.00328 0.84132 0.0
C5272 C 0.47941 -0.00302 0.82449 0.0
H5273 H 0.51942 -0.00385 0.85324 0.0
H5274 H 0.4845 -0.00213 0.85573 0.0
C5275 C 0.48823 -0.00348 0.806 0.0
C5276 C 0.65343 0.98332 0.0045 0.0
C5277 C 0.67 0.97277 -0.00094 0.0
H5278 H 0.64122 0.01112 0.00991 0.0
C5279 C 0.68816 0.98225 -0.00247 0.0
H5280 H 0.63915 0.97652 0.00526 0.0
C5281 C 0.68949 0.00233 0.00107 0.0
C5282 C 0.67242 0.01292 0.00476 0.0
H5283 H 0.70101 0.97431 0.99289 0.0
H5284 H 0.70351 0.0096 0.00033 0.0
C5285 C 0.65452 0.00325 0.00663 0.0
C5286 C 0.74064 0.38944 0.24083 0.0
C5287 C 0.72834 0.40564 0.24118 0.0
H5288 H 0.76946 0.37893 0.24425 0.0
C5289 C 0.73629 0.42455 0.24196 0.0
H5290 H 0.73481 0.37472 0.24083 0.0
C5291 C 0.75648 0.42706 0.24321 0.0
C5292 C 0.76852 0.41064 0.24498 0.0
H5293 H 0.72684 0.43719 0.24283 0.0
H5294 H 0.76264 0.44162 0.24332 0.0
C5295 C 0.76043 0.39188 0.24362 0.0
C5296 C 0.30804 0.47268 0.48475 0.0
C5297 C 0.31129 0.47358 0.50488 0.0
H5298 H 0.30092 0.48895 0.45926 0.0
C5299 C 0.30407 0.48945 0.51566 0.0
H5300 H 0.31289 0.46023 0.47631 0.0
C5301 C 0.29774 0.50608 0.5059 0.0
C5302 C 0.29836 0.50652 0.4855 0.0
H5303 H 0.30591 0.49017 0.53135 0.0
H5304 H 0.29545 0.51937 0.51417 0.0
C5305 C 0.30086 0.48904 0.47509 0.0
C5306 C 0.25223 0.05138 0.71646 0.0
C5307 C 0.23443 0.05738 0.7245 0.0
H5308 H 0.28169 0.04397 0.72327 0.0
C5309 C 0.22977 0.05256 0.7438 0.0
H5310 H 0.25574 0.05436 0.70133 0.0
C5311 C 0.24434 0.04556 0.75605 0.0
C5312 C 0.26358 0.04519 0.7491 0.0
H5313 H 0.21569 0.05632 0.74992 0.0
H5314 H 0.24131 0.04479 0.77156 0.0
C5315 C 0.26695 0.04504 0.72892 0.0
C5316 C 0.89271 0.24229 0.24883 0.0
C5317 C 0.90935 0.24631 0.26 0.0
H5318 H 0.88107 0.23573 0.22087 0.0
C5319 C 0.92774 0.24665 0.251 0.0
H5320 H 0.87844 0.2411 0.25556 0.0
C5321 C 0.92921 0.24409 0.23082 0.0
C5322 C 0.91243 0.24003 0.21974 0.0
H5323 H 0.94087 0.24869 0.25959 0.0
H5324 H 0.94321 0.24615 0.22375 0.0
C5325 C 0.89435 0.23829 0.2291 0.0
C5326 C 0.69276 0.50865 0.5047 0.0
C5327 C 0.6864 0.52472 0.49354 0.0
H5328 H 0.6953 0.4775 0.5058 0.0
C5329 C 0.68434 0.52272 0.47332 0.0
H5330 H 0.69493 0.50986 0.52032 0.0
C5331 C 0.68558 0.50426 0.46493 0.0
C5332 C 0.68818 0.48776 0.47687 0.0
H5333 H 0.67973 0.53493 0.46439 0.0
H5334 H 0.68187 0.50268 0.44963 0.0
C5335 C 0.69305 0.49009 0.49649 0.0
C5336 C 0.73458 0.93917 0.73532 0.0
C5337 C 0.73404 0.93843 0.75572 0.0
H5338 H 0.75257 0.94404 0.71047 0.0
C5339 C 0.74844 0.94822 0.76662 0.0
H5340 H 0.72322 0.93241 0.72664 0.0
C5341 C 0.76542 0.95443 0.75743 0.0
C5342 C 0.76767 0.95109 0.73743 0.0
H5343 H 0.74794 0.94856 0.78242 0.0
H5344 H 0.7778 0.95872 0.76631 0.0
C5345 C 0.75128 0.94617 0.7261 0.0
C5346 C 0.31221 0.98817 7e-05 0.0
C5347 C 0.33065 0.97934 0.00021 0.0
H5348 H 0.29667 0.01521 -0.00285 0.0
C5349 C 0.34757 0.99072 0.0002 0.0
H5350 H 0.29905 0.97944 0.00107 0.0
C5351 C 0.3462 0.01074 0.0004 0.0
C5352 C 0.32791 0.01974 -0.00086 0.0
H5353 H 0.36192 0.98413 0.00127 0.0
H5354 H 0.35963 0.01913 -8e-05 0.0
C5355 C 0.31084 0.00843 -0.00114 0.0
C5356 C 0.23716 0.58465 0.23612 0.0
C5357 C 0.23093 0.56518 0.23492 0.0
H5358 H 0.2609 0.60427 0.23952 0.0
C5359 C 0.24468 0.55007 0.23538 0.0
H5360 H 0.22689 0.59665 0.23549 0.0
C5361 C 0.26437 0.55454 0.23864 0.0
C5362 C 0.27033 0.57414 0.23989 0.0
H5363 H 0.24014 0.535 0.23384 0.0
H5364 H 0.27475 0.54285 0.24092 0.0
C5365 C 0.25671 0.58909 0.23783 0.0
C5366 C 0.93769 0.72444 0.74215 0.0
C5367 C 0.94019 0.73398 0.76015 0.0
H5368 H 0.92472 0.72672 0.71379 0.0
C5369 C 0.94018 0.75439 0.76077 0.0
H5370 H 0.93826 0.70867 0.74118 0.0
C5371 C 0.93293 0.76474 0.7449 0.0
C5372 C 0.92561 0.75453 0.7287 0.0
H5373 H 0.94256 0.76201 0.77444 0.0
H5374 H 0.93053 0.78029 0.74649 0.0
C5375 C 0.9296 0.73465 0.72658 0.0
loop_
_geom_bond_atom_site_label_1
_geom_bond_atom_site_label_2
_geom_bond_distance
_geom_bond_site_symmetry_2
_ccdc_geom_bond_type
Mn0 O5 2.095 . S
Mn0 O15 2.162 . S
Mn0 O16 2.297 . S
Mn0 O24 2.385 . S
Mn0 O25 2.209 . S
Mn0 O26 2.094 . S
Mn1 O6 2.121 . S
Mn1 N8 2.257 . S
Mn1 N17 2.282 . S
Mn1 O25 2.215 . S
Mn1 O27 2.117 . S
C2 O24 1.234 . S
C2 O25 1.283 . S
C3 O15 1.281 . S
C3 O16 1.236 . S
C4 O26 1.240 . S
C4 O27 1.264 . S
O5 Mn0 2.095 . S
O5 C14 1.250 . S
O6 Mn1 2.121 . S
O6 C14 1.258 . S
C7 N8 1.326 . S
C7 C11 1.460 . S
C7 H13 0.929 . S
N8 Mn1 2.257 . S
N8 C7 1.326 . S
N8 C12 1.362 . S
C9 C10 1.258 . S
C9 C12 1.431 . S
C9 C29 1.449 . S
C10 C9 1.258 . S
C10 C11 1.477 . S
C10 H30 0.931 . S
C11 C7 1.460 . S
C11 C10 1.477 . S
C11 H31 0.930 . S
C12 N8 1.362 . S
C12 C9 1.431 . S
C12 C22 1.476 . S
H13 C7 0.929 . S
C14 O5 1.250 . S
C14 O6 1.258 . S
O15 Mn0 2.162 . S
O15 C3 1.281 . S
O16 Mn0 2.297 . S
O16 C3 1.236 . S
N17 Mn1 2.282 . S
N17 C18 1.328 . S
N17 C22 1.318 . S
C18 N17 1.328 . S
C18 C19 1.457 . S
C18 H23 0.929 . S
C19 C18 1.457 . S
C19 C20 1.291 . S
C19 H32 0.931 . S
C20 C19 1.291 . S
C20 C21 1.373 . S
C20 H33 0.929 . S
C21 C20 1.373 . S
C21 C22 1.396 . S
C21 C28 1.403 . S
C22 C12 1.476 . S
C22 N17 1.318 . S
C22 C21 1.396 . S
H23 C18 0.929 . S
O24 Mn0 2.385 . S
O24 C2 1.234 . S
O25 Mn0 2.209 . S
O25 Mn1 2.215 . S
O25 C2 1.283 . S
O26 Mn0 2.094 . S
O26 C4 1.240 . S
O27 Mn1 2.117 . S
O27 C4 1.264 . S
C28 C21 1.403 . S
C28 C29 1.399 . S
C28 H34 0.929 . S
C29 C9 1.449 . S
C29 C28 1.399 . S
C29 H35 0.930 . S
H30 C10 0.931 . S
H31 C11 0.930 . S
H32 C19 0.931 . S
H33 C20 0.929 . S
H34 C28 0.929 . S
H35 C29 0.930 . S
Mn36 O41 2.095 . S
Mn36 O51 2.162 . S
Mn36 O52 2.297 . S
Mn36 O60 2.385 . S
Mn36 O61 2.209 . S
Mn36 O62 2.094 . S
Mn37 O42 2.121 . S
Mn37 N44 2.257 . S
Mn37 N53 2.282 . S
Mn37 O61 2.215 . S
Mn37 O63 2.117 . S
C38 O60 1.234 . S
C38 O61 1.283 . S
C39 O51 1.281 . S
C39 O52 1.236 . S
C40 O62 1.240 . S
C40 O63 1.264 . S
O41 Mn36 2.095 . S
O41 C50 1.250 . S
O42 Mn37 2.121 . S
O42 C50 1.258 . S
C43 N44 1.326 . S
C43 C47 1.460 . S
C43 H49 0.929 . S
N44 Mn37 2.257 . S
N44 C43 1.326 . S
N44 C48 1.362 . S
C45 C46 1.258 . S
C45 C48 1.431 . S
C45 C65 1.449 . S
C46 C45 1.258 . S
C46 C47 1.477 . S
C46 H66 0.931 . S
C47 C43 1.460 . S
C47 C46 1.477 . S
C47 H67 0.930 . S
C48 N44 1.362 . S
C48 C45 1.431 . S
C48 C58 1.476 . S
H49 C43 0.929 . S
C50 O41 1.250 . S
C50 O42 1.258 . S
O51 Mn36 2.162 . S
O51 C39 1.281 . S
O52 Mn36 2.297 . S
O52 C39 1.236 . S
N53 Mn37 2.282 . S
N53 C54 1.328 . S
N53 C58 1.318 . S
C54 N53 1.328 . S
C54 C55 1.457 . S
C54 H59 0.929 . S
C55 C54 1.457 . S
C55 C56 1.291 . S
C55 H68 0.931 . S
C56 C55 1.291 . S
C56 C57 1.373 . S
C56 H69 0.929 . S
C57 C56 1.373 . S
C57 C58 1.396 . S
C57 C64 1.403 . S
C58 C48 1.476 . S
C58 N53 1.318 . S
C58 C57 1.396 . S
H59 C54 0.929 . S
O60 Mn36 2.385 . S
O60 C38 1.234 . S
O61 Mn36 2.209 . S
O61 Mn37 2.215 . S
O61 C38 1.283 . S
O62 Mn36 2.094 . S
O62 C40 1.240 . S
O63 Mn37 2.117 . S
O63 C40 1.264 . S
C64 C57 1.403 . S
C64 C65 1.399 . S
C64 H70 0.929 . S
C65 C45 1.449 . S
C65 C64 1.399 . S
C65 H71 0.930 . S
H66 C46 0.931 . S
H67 C47 0.930 . S
H68 C55 0.931 . S
H69 C56 0.929 . S
H70 C64 0.929 . S
H71 C65 0.930 . S
Mn72 O77 2.095 . S
Mn72 O87 2.162 1_565 S
Mn72 O88 2.297 . S
Mn72 O96 2.385 . S
Mn72 O97 2.209 . S
Mn72 O98 2.094 . S
Mn73 O78 2.121 . S
Mn73 N80 2.257 . S
Mn73 N89 2.282 . S
Mn73 O97 2.215 . S
Mn73 O99 2.117 . S
C74 O96 1.234 . S
C74 O97 1.283 . S
C75 O87 1.279 1_565 S
C75 O88 1.239 . S
C76 O98 1.240 . S
C76 O99 1.264 . S
O77 Mn72 2.095 . S
O77 C86 1.250 . S
O78 Mn73 2.121 . S
O78 C86 1.258 . S
C79 N80 1.326 . S
C79 C83 1.460 . S
C79 H85 0.929 . S
N80 Mn73 2.257 . S
N80 C79 1.326 . S
N80 C84 1.362 . S
C81 C82 1.258 . S
C81 C84 1.431 . S
C81 C101 1.449 . S
C82 C81 1.258 . S
C82 C83 1.477 . S
C82 H102 0.931 . S
C83 C79 1.460 . S
C83 C82 1.477 . S
C83 H103 0.930 . S
C84 N80 1.362 . S
C84 C81 1.431 . S
C84 C94 1.476 . S
H85 C79 0.929 . S
C86 O77 1.250 . S
C86 O78 1.258 . S
O87 Mn72 2.162 1_545 S
O87 C75 1.279 1_545 S
O88 Mn72 2.297 . S
O88 C75 1.239 . S
N89 Mn73 2.282 . S
N89 C90 1.328 . S
N89 C94 1.318 . S
C90 N89 1.328 . S
C90 C91 1.457 . S
C90 H95 0.929 . S
C91 C90 1.457 . S
C91 C92 1.291 . S
C91 H104 0.931 . S
C92 C91 1.291 . S
C92 C93 1.373 . S
C92 H105 0.929 . S
C93 C92 1.373 . S
C93 C94 1.396 . S
C93 C100 1.403 . S
C94 C84 1.476 . S
C94 N89 1.318 . S
C94 C93 1.396 . S
H95 C90 0.929 . S
O96 Mn72 2.385 . S
O96 C74 1.234 . S
O97 Mn72 2.209 . S
O97 Mn73 2.215 . S
O97 C74 1.283 . S
O98 Mn72 2.094 . S
O98 C76 1.240 . S
O99 Mn73 2.117 . S
O99 C76 1.264 . S
C100 C93 1.403 . S
C100 C101 1.399 . S
C100 H106 0.929 . S
C101 C81 1.449 . S
C101 C100 1.399 . S
C101 H107 0.930 . S
H102 C82 0.931 . S
H103 C83 0.930 . S
H104 C91 0.931 . S
H105 C92 0.929 . S
H106 C100 0.929 . S
H107 C101 0.930 . S
Mn108 O113 2.095 . S
Mn108 O123 2.162 . S
Mn108 O124 2.297 . S
Mn108 O132 2.385 . S
Mn108 O133 2.209 . S
Mn108 O134 2.094 . S
Mn109 O114 2.121 . S
Mn109 N116 2.257 . S
Mn109 N125 2.282 . S
Mn109 O133 2.215 . S
Mn109 O135 2.117 . S
C110 O132 1.234 . S
C110 O133 1.283 . S
C111 O123 1.281 . S
C111 O124 1.236 . S
C112 O134 1.240 . S
C112 O135 1.264 . S
O113 Mn108 2.095 . S
O113 C122 1.250 . S
O114 Mn109 2.121 . S
O114 C122 1.258 . S
C115 N116 1.326 . S
C115 C119 1.460 . S
C115 H121 0.929 . S
N116 Mn109 2.257 . S
N116 C115 1.326 . S
N116 C120 1.362 . S
C117 C118 1.258 . S
C117 C120 1.431 . S
C117 C137 1.449 . S
C118 C117 1.258 . S
C118 C119 1.477 . S
C118 H138 0.931 . S
C119 C115 1.460 . S
C119 C118 1.477 . S
C119 H139 0.930 . S
C120 N116 1.362 . S
C120 C117 1.431 . S
C120 C130 1.476 . S
H121 C115 0.929 . S
C122 O113 1.250 . S
C122 O114 1.258 . S
O123 Mn108 2.162 . S
O123 C111 1.281 . S
O124 Mn108 2.297 . S
O124 C111 1.236 . S
N125 Mn109 2.282 . S
N125 C126 1.328 . S
N125 C130 1.318 . S
C126 N125 1.328 . S
C126 C127 1.457 . S
C126 H131 0.929 . S
C127 C126 1.457 . S
C127 C128 1.291 . S
C127 H140 0.931 . S
C128 C127 1.291 . S
C128 C129 1.373 . S
C128 H141 0.929 . S
C129 C128 1.373 . S
C129 C130 1.396 . S
C129 C136 1.403 . S
C130 C120 1.476 . S
C130 N125 1.318 . S
C130 C129 1.396 . S
H131 C126 0.929 . S
O132 Mn108 2.385 . S
O132 C110 1.234 . S
O133 Mn108 2.209 . S
O133 Mn109 2.215 . S
O133 C110 1.283 . S
O134 Mn108 2.094 . S
O134 C112 1.240 . S
O135 Mn109 2.117 . S
O135 C112 1.264 . S
C136 C129 1.403 . S
C136 C137 1.399 . S
C136 H142 0.929 . S
C137 C117 1.449 . S
C137 C136 1.399 . S
C137 H143 0.930 . S
H138 C118 0.931 . S
H139 C119 0.930 . S
H140 C127 0.931 . S
H141 C128 0.929 . S
H142 C136 0.929 . S
H143 C137 0.930 . S
Mn144 O149 2.095 . S
Mn144 O159 2.162 . S
Mn144 O160 2.297 . S
Mn144 O168 2.385 . S
Mn144 O169 2.209 . S
Mn144 O170 2.094 . S
Mn145 O150 2.121 . S
Mn145 N152 2.257 . S
Mn145 N161 2.282 . S
Mn145 O169 2.215 . S
Mn145 O171 2.117 . S
C146 O168 1.234 . S
C146 O169 1.283 . S
C147 O159 1.281 . S
C147 O160 1.236 . S
C148 O170 1.240 . S
C148 O171 1.264 . S
O149 Mn144 2.095 . S
O149 C158 1.250 . S
O150 Mn145 2.121 . S
O150 C158 1.258 . S
C151 N152 1.326 . S
C151 C155 1.460 . S
C151 H157 0.929 . S
N152 Mn145 2.257 . S
N152 C151 1.326 . S
N152 C156 1.362 . S
C153 C154 1.258 . S
C153 C156 1.431 . S
C153 C173 1.449 . S
C154 C153 1.258 . S
C154 C155 1.477 . S
C154 H174 0.931 . S
C155 C151 1.460 . S
C155 C154 1.477 . S
C155 H175 0.930 . S
C156 N152 1.362 . S
C156 C153 1.431 . S
C156 C166 1.476 . S
H157 C151 0.929 . S
C158 O149 1.250 . S
C158 O150 1.258 . S
O159 Mn144 2.162 . S
O159 C147 1.281 . S
O160 Mn144 2.297 . S
O160 C147 1.236 . S
N161 Mn145 2.282 . S
N161 C162 1.328 . S
N161 C166 1.318 . S
C162 N161 1.328 . S
C162 C163 1.457 . S
C162 H167 0.929 . S
C163 C162 1.457 . S
C163 C164 1.291 . S
C163 H176 0.931 . S
C164 C163 1.291 . S
C164 C165 1.373 . S
C164 H177 0.929 . S
C165 C164 1.373 . S
C165 C166 1.396 . S
C165 C172 1.403 . S
C166 C156 1.476 . S
C166 N161 1.318 . S
C166 C165 1.396 . S
H167 C162 0.929 . S
O168 Mn144 2.385 . S
O168 C146 1.234 . S
O169 Mn144 2.209 . S
O169 Mn145 2.215 . S
O169 C146 1.283 . S
O170 Mn144 2.094 . S
O170 C148 1.240 . S
O171 Mn145 2.117 . S
O171 C148 1.264 . S
C172 C165 1.403 . S
C172 C173 1.399 . S
C172 H178 0.929 . S
C173 C153 1.449 . S
C173 C172 1.399 . S
C173 H179 0.930 . S
H174 C154 0.931 . S
H175 C155 0.930 . S
H176 C163 0.931 . S
H177 C164 0.929 . S
H178 C172 0.929 . S
H179 C173 0.930 . S
Mn180 O185 2.095 . S
Mn180 O195 2.162 . S
Mn180 O196 2.297 . S
Mn180 O204 2.385 . S
Mn180 O205 2.209 . S
Mn180 O206 2.094 . S
Mn181 O186 2.121 . S
Mn181 N188 2.257 . S
Mn181 N197 2.282 . S
Mn181 O205 2.215 . S
Mn181 O207 2.117 . S
C182 O204 1.234 . S
C182 O205 1.283 . S
C183 O195 1.281 . S
C183 O196 1.236 . S
C184 O206 1.240 . S
C184 O207 1.264 . S
O185 Mn180 2.095 . S
O185 C194 1.250 . S
O186 Mn181 2.121 . S
O186 C194 1.258 . S
C187 N188 1.326 . S
C187 C191 1.460 . S
C187 H193 0.929 . S
N188 Mn181 2.257 . S
N188 C187 1.326 . S
N188 C192 1.362 . S
C189 C190 1.258 . S
C189 C192 1.431 . S
C189 C209 1.449 . S
C190 C189 1.258 . S
C190 C191 1.477 . S
C190 H210 0.931 . S
C191 C187 1.460 . S
C191 C190 1.477 . S
C191 H211 0.930 . S
C192 N188 1.362 . S
C192 C189 1.431 . S
C192 C202 1.476 . S
H193 C187 0.929 . S
C194 O185 1.250 . S
C194 O186 1.258 . S
O195 Mn180 2.162 . S
O195 C183 1.281 . S
O196 Mn180 2.297 . S
O196 C183 1.236 . S
N197 Mn181 2.282 . S
N197 C198 1.328 . S
N197 C202 1.318 . S
C198 N197 1.328 . S
C198 C199 1.457 . S
C198 H203 0.929 . S
C199 C198 1.457 . S
C199 C200 1.291 . S
C199 H212 0.931 . S
C200 C199 1.291 . S
C200 C201 1.373 . S
C200 H213 0.929 . S
C201 C200 1.373 . S
C201 C202 1.396 . S
C201 C208 1.403 . S
C202 C192 1.476 . S
C202 N197 1.318 . S
C202 C201 1.396 . S
H203 C198 0.929 . S
O204 Mn180 2.385 . S
O204 C182 1.234 . S
O205 Mn180 2.209 . S
O205 Mn181 2.215 . S
O205 C182 1.283 . S
O206 Mn180 2.094 . S
O206 C184 1.240 . S
O207 Mn181 2.117 . S
O207 C184 1.264 . S
C208 C201 1.403 . S
C208 C209 1.399 . S
C208 H214 0.929 . S
C209 C189 1.449 . S
C209 C208 1.399 . S
C209 H215 0.930 . S
H210 C190 0.931 . S
H211 C191 0.930 . S
H212 C199 0.931 . S
H213 C200 0.929 . S
H214 C208 0.929 . S
H215 C209 0.930 . S
Mn216 O221 2.095 . S
Mn216 O231 2.162 1_545 S
Mn216 O232 2.297 . S
Mn216 O240 2.385 . S
Mn216 O241 2.209 . S
Mn216 O242 2.094 . S
Mn217 O222 2.121 . S
Mn217 N224 2.257 . S
Mn217 N233 2.282 . S
Mn217 O241 2.215 . S
Mn217 O243 2.117 . S
C218 O240 1.234 . S
C218 O241 1.283 . S
C219 O231 1.279 1_545 S
C219 O232 1.239 . S
C220 O242 1.240 . S
C220 O243 1.264 . S
O221 Mn216 2.095 . S
O221 C230 1.250 . S
O222 Mn217 2.121 . S
O222 C230 1.258 . S
C223 N224 1.326 . S
C223 C227 1.460 . S
C223 H229 0.929 . S
N224 Mn217 2.257 . S
N224 C223 1.326 . S
N224 C228 1.362 . S
C225 C226 1.258 . S
C225 C228 1.431 . S
C225 C245 1.449 . S
C226 C225 1.258 . S
C226 C227 1.477 . S
C226 H246 0.931 . S
C227 C223 1.460 . S
C227 C226 1.477 . S
C227 H247 0.930 . S
C228 N224 1.362 . S
C228 C225 1.431 . S
C228 C238 1.476 . S
H229 C223 0.929 . S
C230 O221 1.250 . S
C230 O222 1.258 . S
O231 Mn216 2.162 1_565 S
O231 C219 1.279 1_565 S
O232 Mn216 2.297 . S
O232 C219 1.239 . S
N233 Mn217 2.282 . S
N233 C234 1.328 . S
N233 C238 1.318 . S
C234 N233 1.328 . S
C234 C235 1.457 . S
C234 H239 0.929 . S
C235 C234 1.457 . S
C235 C236 1.291 . S
C235 H248 0.931 . S
C236 C235 1.291 . S
C236 C237 1.373 . S
C236 H249 0.929 . S
C237 C236 1.373 . S
C237 C238 1.396 . S
C237 C244 1.403 . S
C238 C228 1.476 . S
C238 N233 1.318 . S
C238 C237 1.396 . S
H239 C234 0.929 . S
O240 Mn216 2.385 . S
O240 C218 1.234 . S
O241 Mn216 2.209 . S
O241 Mn217 2.215 . S
O241 C218 1.283 . S
O242 Mn216 2.094 . S
O242 C220 1.240 . S
O243 Mn217 2.117 . S
O243 C220 1.264 . S
C244 C237 1.403 . S
C244 C245 1.399 . S
C244 H250 0.929 . S
C245 C225 1.449 . S
C245 C244 1.399 . S
C245 H251 0.930 . S
H246 C226 0.931 . S
H247 C227 0.930 . S
H248 C235 0.931 . S
H249 C236 0.929 . S
H250 C244 0.929 . S
H251 C245 0.930 . S
Mn252 O257 2.095 . S
Mn252 O267 2.162 . S
Mn252 O268 2.297 . S
Mn252 O276 2.385 . S
Mn252 O277 2.209 . S
Mn252 O278 2.094 . S
Mn253 O258 2.121 . S
Mn253 N260 2.257 . S
Mn253 N269 2.282 . S
Mn253 O277 2.215 . S
Mn253 O279 2.117 . S
C254 O276 1.234 . S
C254 O277 1.283 . S
C255 O267 1.281 . S
C255 O268 1.236 . S
C256 O278 1.240 . S
C256 O279 1.264 . S
O257 Mn252 2.095 . S
O257 C266 1.250 . S
O258 Mn253 2.121 . S
O258 C266 1.258 . S
C259 N260 1.326 . S
C259 C263 1.460 . S
C259 H265 0.929 . S
N260 Mn253 2.257 . S
N260 C259 1.326 . S
N260 C264 1.362 . S
C261 C262 1.258 . S
C261 C264 1.431 . S
C261 C281 1.449 . S
C262 C261 1.258 . S
C262 C263 1.477 . S
C262 H282 0.931 . S
C263 C259 1.460 . S
C263 C262 1.477 . S
C263 H283 0.930 . S
C264 N260 1.362 . S
C264 C261 1.431 . S
C264 C274 1.476 . S
H265 C259 0.929 . S
C266 O257 1.250 . S
C266 O258 1.258 . S
O267 Mn252 2.162 . S
O267 C255 1.281 . S
O268 Mn252 2.297 . S
O268 C255 1.236 . S
N269 Mn253 2.282 . S
N269 C270 1.328 . S
N269 C274 1.318 . S
C270 N269 1.328 . S
C270 C271 1.457 . S
C270 H275 0.929 . S
C271 C270 1.457 . S
C271 C272 1.291 . S
C271 H284 0.931 . S
C272 C271 1.291 . S
C272 C273 1.373 . S
C272 H285 0.929 . S
C273 C272 1.373 . S
C273 C274 1.396 . S
C273 C280 1.403 . S
C274 C264 1.476 . S
C274 N269 1.318 . S
C274 C273 1.396 . S
H275 C270 0.929 . S
O276 Mn252 2.385 . S
O276 C254 1.234 . S
O277 Mn252 2.209 . S
O277 Mn253 2.215 . S
O277 C254 1.283 . S
O278 Mn252 2.094 . S
O278 C256 1.240 . S
O279 Mn253 2.117 . S
O279 C256 1.264 . S
C280 C273 1.403 . S
C280 C281 1.399 . S
C280 H286 0.929 . S
C281 C261 1.449 . S
C281 C280 1.399 . S
C281 H287 0.930 . S
H282 C262 0.931 . S
H283 C263 0.930 . S
H284 C271 0.931 . S
H285 C272 0.929 . S
H286 C280 0.929 . S
H287 C281 0.930 . S
Mn288 O293 2.095 . S
Mn288 O303 2.162 . S
Mn288 O304 2.297 . S
Mn288 O312 2.385 . S
Mn288 O313 2.209 . S
Mn288 O314 2.094 . S
Mn289 O294 2.121 . S
Mn289 N296 2.257 . S
Mn289 N305 2.282 . S
Mn289 O313 2.215 . S
Mn289 O315 2.117 . S
C290 O312 1.234 . S
C290 O313 1.283 . S
C291 O303 1.281 . S
C291 O304 1.236 . S
C292 O314 1.240 . S
C292 O315 1.264 . S
O293 Mn288 2.095 . S
O293 C302 1.250 . S
O294 Mn289 2.121 . S
O294 C302 1.258 . S
C295 N296 1.326 . S
C295 C299 1.460 . S
C295 H301 0.929 . S
N296 Mn289 2.257 . S
N296 C295 1.326 . S
N296 C300 1.362 . S
C297 C298 1.258 . S
C297 C300 1.431 . S
C297 C317 1.449 . S
C298 C297 1.258 . S
C298 C299 1.477 . S
C298 H318 0.931 . S
C299 C295 1.460 . S
C299 C298 1.477 . S
C299 H319 0.930 . S
C300 N296 1.362 . S
C300 C297 1.431 . S
C300 C310 1.476 . S
H301 C295 0.929 . S
C302 O293 1.250 . S
C302 O294 1.258 . S
O303 Mn288 2.162 . S
O303 C291 1.281 . S
O304 Mn288 2.297 . S
O304 C291 1.236 . S
N305 Mn289 2.282 . S
N305 C306 1.328 . S
N305 C310 1.318 . S
C306 N305 1.328 . S
C306 C307 1.457 . S
C306 H311 0.929 . S
C307 C306 1.457 . S
C307 C308 1.291 . S
C307 H320 0.931 . S
C308 C307 1.291 . S
C308 C309 1.373 . S
C308 H321 0.929 . S
C309 C308 1.373 . S
C309 C310 1.396 . S
C309 C316 1.403 . S
C310 C300 1.476 . S
C310 N305 1.318 . S
C310 C309 1.396 . S
H311 C306 0.929 . S
O312 Mn288 2.385 . S
O312 C290 1.234 . S
O313 Mn288 2.209 . S
O313 Mn289 2.215 . S
O313 C290 1.283 . S
O314 Mn288 2.094 . S
O314 C292 1.240 . S
O315 Mn289 2.117 . S
O315 C292 1.264 . S
C316 C309 1.403 . S
C316 C317 1.399 . S
C316 H322 0.929 . S
C317 C297 1.449 . S
C317 C316 1.399 . S
C317 H323 0.930 . S
H318 C298 0.931 . S
H319 C299 0.930 . S
H320 C307 0.931 . S
H321 C308 0.929 . S
H322 C316 0.929 . S
H323 C317 0.930 . S
Mn324 O329 2.095 . S
Mn324 O339 2.162 . S
Mn324 O340 2.297 . S
Mn324 O348 2.385 . S
Mn324 O349 2.209 . S
Mn324 O350 2.094 . S
Mn325 O330 2.121 . S
Mn325 N332 2.257 . S
Mn325 N341 2.282 . S
Mn325 O349 2.215 . S
Mn325 O351 2.117 . S
C326 O348 1.234 . S
C326 O349 1.283 . S
C327 O339 1.281 . S
C327 O340 1.236 . S
C328 O350 1.240 . S
C328 O351 1.264 . S
O329 Mn324 2.095 . S
O329 C338 1.250 . S
O330 Mn325 2.121 . S
O330 C338 1.258 . S
C331 N332 1.326 . S
C331 C335 1.460 . S
C331 H337 0.929 . S
N332 Mn325 2.257 . S
N332 C331 1.326 . S
N332 C336 1.362 . S
C333 C334 1.258 . S
C333 C336 1.431 . S
C333 C353 1.449 . S
C334 C333 1.258 . S
C334 C335 1.477 . S
C334 H354 0.931 . S
C335 C331 1.460 . S
C335 C334 1.477 . S
C335 H355 0.930 . S
C336 N332 1.362 . S
C336 C333 1.431 . S
C336 C346 1.476 . S
H337 C331 0.929 . S
C338 O329 1.250 . S
C338 O330 1.258 . S
O339 Mn324 2.162 . S
O339 C327 1.281 . S
O340 Mn324 2.297 . S
O340 C327 1.236 . S
N341 Mn325 2.282 . S
N341 C342 1.328 . S
N341 C346 1.318 . S
C342 N341 1.328 . S
C342 C343 1.457 . S
C342 H347 0.929 . S
C343 C342 1.457 . S
C343 C344 1.291 . S
C343 H356 0.931 . S
C344 C343 1.291 . S
C344 C345 1.373 . S
C344 H357 0.929 . S
C345 C344 1.373 . S
C345 C346 1.396 . S
C345 C352 1.403 . S
C346 C336 1.476 . S
C346 N341 1.318 . S
C346 C345 1.396 . S
H347 C342 0.929 . S
O348 Mn324 2.385 . S
O348 C326 1.234 . S
O349 Mn324 2.209 . S
O349 Mn325 2.215 . S
O349 C326 1.283 . S
O350 Mn324 2.094 . S
O350 C328 1.240 . S
O351 Mn325 2.117 . S
O351 C328 1.264 . S
C352 C345 1.403 . S
C352 C353 1.399 . S
C352 H358 0.929 . S
C353 C333 1.449 . S
C353 C352 1.399 . S
C353 H359 0.930 . S
H354 C334 0.931 . S
H355 C335 0.930 . S
H356 C343 0.931 . S
H357 C344 0.929 . S
H358 C352 0.929 . S
H359 C353 0.930 . S
Mn360 O365 2.095 . S
Mn360 O375 2.162 1_554 S
Mn360 O376 2.297 . S
Mn360 O384 2.385 . S
Mn360 O385 2.209 . S
Mn360 O386 2.094 . S
Mn361 O366 2.121 . S
Mn361 N368 2.257 . S
Mn361 N377 2.282 . S
Mn361 O385 2.215 . S
Mn361 O387 2.117 . S
C362 O384 1.234 . S
C362 O385 1.283 . S
C363 O375 1.279 1_554 S
C363 O376 1.240 . S
C364 O386 1.240 . S
C364 O387 1.264 . S
O365 Mn360 2.095 . S
O365 C374 1.250 . S
O366 Mn361 2.121 . S
O366 C374 1.258 . S
C367 N368 1.326 . S
C367 C371 1.460 . S
C367 H373 0.929 . S
N368 Mn361 2.257 . S
N368 C367 1.326 . S
N368 C372 1.362 . S
C369 C370 1.258 . S
C369 C372 1.431 . S
C369 C389 1.449 . S
C370 C369 1.258 . S
C370 C371 1.477 . S
C370 H390 0.931 . S
C371 C367 1.460 . S
C371 C370 1.477 . S
C371 H391 0.930 . S
C372 N368 1.362 . S
C372 C369 1.431 . S
C372 C382 1.476 . S
H373 C367 0.929 . S
C374 O365 1.250 . S
C374 O366 1.258 . S
O375 Mn360 2.162 1_556 S
O375 C363 1.279 1_556 S
O376 Mn360 2.297 . S
O376 C363 1.240 . S
N377 Mn361 2.282 . S
N377 C378 1.328 . S
N377 C382 1.318 . S
C378 N377 1.328 . S
C378 C379 1.457 . S
C378 H383 0.929 . S
C379 C378 1.457 . S
C379 C380 1.291 . S
C379 H392 0.931 . S
C380 C379 1.291 . S
C380 C381 1.373 . S
C380 H393 0.929 . S
C381 C380 1.373 . S
C381 C382 1.396 . S
C381 C388 1.403 . S
C382 C372 1.476 . S
C382 N377 1.318 . S
C382 C381 1.396 . S
H383 C378 0.929 . S
O384 Mn360 2.385 . S
O384 C362 1.234 . S
O385 Mn360 2.209 . S
O385 Mn361 2.215 . S
O385 C362 1.283 . S
O386 Mn360 2.094 . S
O386 C364 1.240 . S
O387 Mn361 2.117 . S
O387 C364 1.264 . S
C388 C381 1.403 . S
C388 C389 1.399 . S
C388 H394 0.929 . S
C389 C369 1.449 . S
C389 C388 1.399 . S
C389 H395 0.930 . S
H390 C370 0.931 . S
H391 C371 0.930 . S
H392 C379 0.931 . S
H393 C380 0.929 . S
H394 C388 0.929 . S
H395 C389 0.930 . S
Mn396 O401 2.095 . S
Mn396 O411 2.162 . S
Mn396 O412 2.297 . S
Mn396 O420 2.385 . S
Mn396 O421 2.209 . S
Mn396 O422 2.094 . S
Mn397 O402 2.121 . S
Mn397 N404 2.257 . S
Mn397 N413 2.282 . S
Mn397 O421 2.215 . S
Mn397 O423 2.117 . S
C398 O420 1.234 . S
C398 O421 1.283 . S
C399 O411 1.281 . S
C399 O412 1.236 . S
C400 O422 1.240 . S
C400 O423 1.264 . S
O401 Mn396 2.095 . S
O401 C410 1.250 . S
O402 Mn397 2.121 . S
O402 C410 1.258 . S
C403 N404 1.326 . S
C403 C407 1.460 . S
C403 H409 0.929 . S
N404 Mn397 2.257 . S
N404 C403 1.326 . S
N404 C408 1.362 . S
C405 C406 1.258 . S
C405 C408 1.431 . S
C405 C425 1.449 . S
C406 C405 1.258 . S
C406 C407 1.477 . S
C406 H426 0.931 . S
C407 C403 1.460 . S
C407 C406 1.477 . S
C407 H427 0.930 . S
C408 N404 1.362 . S
C408 C405 1.431 . S
C408 C418 1.476 . S
H409 C403 0.929 . S
C410 O401 1.250 . S
C410 O402 1.258 . S
O411 Mn396 2.162 . S
O411 C399 1.281 . S
O412 Mn396 2.297 . S
O412 C399 1.236 . S
N413 Mn397 2.282 . S
N413 C414 1.328 . S
N413 C418 1.318 . S
C414 N413 1.328 . S
C414 C415 1.457 . S
C414 H419 0.929 . S
C415 C414 1.457 . S
C415 C416 1.291 . S
C415 H428 0.931 . S
C416 C415 1.291 . S
C416 C417 1.373 . S
C416 H429 0.929 . S
C417 C416 1.373 . S
C417 C418 1.396 . S
C417 C424 1.403 . S
C418 C408 1.476 . S
C418 N413 1.318 . S
C418 C417 1.396 . S
H419 C414 0.929 . S
O420 Mn396 2.385 . S
O420 C398 1.234 . S
O421 Mn396 2.209 . S
O421 Mn397 2.215 . S
O421 C398 1.283 . S
O422 Mn396 2.094 . S
O422 C400 1.240 . S
O423 Mn397 2.117 . S
O423 C400 1.264 . S
C424 C417 1.403 . S
C424 C425 1.399 . S
C424 H430 0.929 . S
C425 C405 1.449 . S
C425 C424 1.399 . S
C425 H431 0.930 . S
H426 C406 0.931 . S
H427 C407 0.930 . S
H428 C415 0.931 . S
H429 C416 0.929 . S
H430 C424 0.929 . S
H431 C425 0.930 . S
Mn432 O437 2.095 . S
Mn432 O447 2.162 . S
Mn432 O448 2.297 . S
Mn432 O456 2.385 . S
Mn432 O457 2.209 . S
Mn432 O458 2.094 . S
Mn433 O438 2.121 . S
Mn433 N440 2.257 . S
Mn433 N449 2.282 . S
Mn433 O457 2.215 . S
Mn433 O459 2.117 . S
C434 O456 1.234 . S
C434 O457 1.283 . S
C435 O447 1.281 . S
C435 O448 1.236 . S
C436 O458 1.240 . S
C436 O459 1.264 . S
O437 Mn432 2.095 . S
O437 C446 1.250 . S
O438 Mn433 2.121 . S
O438 C446 1.258 . S
C439 N440 1.326 . S
C439 C443 1.460 . S
C439 H445 0.929 . S
N440 Mn433 2.257 . S
N440 C439 1.326 . S
N440 C444 1.362 . S
C441 C442 1.258 . S
C441 C444 1.431 . S
C441 C461 1.449 . S
C442 C441 1.258 . S
C442 C443 1.477 . S
C442 H462 0.931 . S
C443 C439 1.460 . S
C443 C442 1.477 . S
C443 H463 0.930 . S
C444 N440 1.362 . S
C444 C441 1.431 . S
C444 C454 1.476 . S
H445 C439 0.929 . S
C446 O437 1.250 . S
C446 O438 1.258 . S
O447 Mn432 2.162 . S
O447 C435 1.281 . S
O448 Mn432 2.297 . S
O448 C435 1.236 . S
N449 Mn433 2.282 . S
N449 C450 1.328 . S
N449 C454 1.318 . S
C450 N449 1.328 . S
C450 C451 1.457 . S
C450 H455 0.929 . S
C451 C450 1.457 . S
C451 C452 1.291 . S
C451 H464 0.931 . S
C452 C451 1.291 . S
C452 C453 1.373 . S
C452 H465 0.929 . S
C453 C452 1.373 . S
C453 C454 1.396 . S
C453 C460 1.403 . S
C454 C444 1.476 . S
C454 N449 1.318 . S
C454 C453 1.396 . S
H455 C450 0.929 . S
O456 Mn432 2.385 . S
O456 C434 1.234 . S
O457 Mn432 2.209 . S
O457 Mn433 2.215 . S
O457 C434 1.283 . S
O458 Mn432 2.094 . S
O458 C436 1.240 . S
O459 Mn433 2.117 . S
O459 C436 1.264 . S
C460 C453 1.403 . S
C460 C461 1.399 . S
C460 H466 0.929 . S
C461 C441 1.449 . S
C461 C460 1.399 . S
C461 H467 0.930 . S
H462 C442 0.931 . S
H463 C443 0.930 . S
H464 C451 0.931 . S
H465 C452 0.929 . S
H466 C460 0.929 . S
H467 C461 0.930 . S
Mn468 O473 2.095 . S
Mn468 O483 2.162 . S
Mn468 O484 2.297 . S
Mn468 O492 2.385 . S
Mn468 O493 2.209 . S
Mn468 O494 2.094 . S
Mn469 O474 2.121 . S
Mn469 N476 2.257 . S
Mn469 N485 2.282 . S
Mn469 O493 2.215 . S
Mn469 O495 2.117 . S
C470 O492 1.234 . S
C470 O493 1.283 . S
C471 O483 1.281 . S
C471 O484 1.236 . S
C472 O494 1.240 . S
C472 O495 1.264 . S
O473 Mn468 2.095 . S
O473 C482 1.250 . S
O474 Mn469 2.121 . S
O474 C482 1.258 . S
C475 N476 1.326 . S
C475 C479 1.460 . S
C475 H481 0.929 . S
N476 Mn469 2.257 . S
N476 C475 1.326 . S
N476 C480 1.362 . S
C477 C478 1.258 . S
C477 C480 1.431 . S
C477 C497 1.449 . S
C478 C477 1.258 . S
C478 C479 1.477 . S
C478 H498 0.931 . S
C479 C475 1.460 . S
C479 C478 1.477 . S
C479 H499 0.930 . S
C480 N476 1.362 . S
C480 C477 1.431 . S
C480 C490 1.476 . S
H481 C475 0.929 . S
C482 O473 1.250 . S
C482 O474 1.258 . S
O483 Mn468 2.162 . S
O483 C471 1.281 . S
O484 Mn468 2.297 . S
O484 C471 1.236 . S
N485 Mn469 2.282 . S
N485 C486 1.328 . S
N485 C490 1.318 . S
C486 N485 1.328 . S
C486 C487 1.457 . S
C486 H491 0.929 . S
C487 C486 1.457 . S
C487 C488 1.291 . S
C487 H500 0.931 . S
C488 C487 1.291 . S
C488 C489 1.373 . S
C488 H501 0.929 . S
C489 C488 1.373 . S
C489 C490 1.396 . S
C489 C496 1.403 . S
C490 C480 1.476 . S
C490 N485 1.318 . S
C490 C489 1.396 . S
H491 C486 0.929 . S
O492 Mn468 2.385 . S
O492 C470 1.234 . S
O493 Mn468 2.209 . S
O493 Mn469 2.215 . S
O493 C470 1.283 . S
O494 Mn468 2.094 . S
O494 C472 1.240 . S
O495 Mn469 2.117 . S
O495 C472 1.264 . S
C496 C489 1.403 . S
C496 C497 1.399 . S
C496 H502 0.929 . S
C497 C477 1.449 . S
C497 C496 1.399 . S
C497 H503 0.930 . S
H498 C478 0.931 . S
H499 C479 0.930 . S
H500 C487 0.931 . S
H501 C488 0.929 . S
H502 C496 0.929 . S
H503 C497 0.930 . S
Mn504 O509 2.095 . S
Mn504 O519 2.162 1_556 S
Mn504 O520 2.297 . S
Mn504 O528 2.385 . S
Mn504 O529 2.209 . S
Mn504 O530 2.094 . S
Mn505 O510 2.121 . S
Mn505 N512 2.257 . S
Mn505 N521 2.282 . S
Mn505 O529 2.215 . S
Mn505 O531 2.117 . S
C506 O528 1.234 . S
C506 O529 1.283 . S
C507 O519 1.279 1_556 S
C507 O520 1.240 . S
C508 O530 1.240 . S
C508 O531 1.264 . S
O509 Mn504 2.095 . S
O509 C518 1.250 . S
O510 Mn505 2.121 . S
O510 C518 1.258 . S
C511 N512 1.326 . S
C511 C515 1.460 . S
C511 H517 0.929 . S
N512 Mn505 2.257 . S
N512 C511 1.326 . S
N512 C516 1.362 . S
C513 C514 1.258 . S
C513 C516 1.431 . S
C513 C533 1.449 . S
C514 C513 1.258 . S
C514 C515 1.477 . S
C514 H534 0.931 . S
C515 C511 1.460 . S
C515 C514 1.477 . S
C515 H535 0.930 . S
C516 N512 1.362 . S
C516 C513 1.431 . S
C516 C526 1.476 . S
H517 C511 0.929 . S
C518 O509 1.250 . S
C518 O510 1.258 . S
O519 Mn504 2.162 1_554 S
O519 C507 1.279 1_554 S
O520 Mn504 2.297 . S
O520 C507 1.240 . S
N521 Mn505 2.282 . S
N521 C522 1.328 . S
N521 C526 1.318 . S
C522 N521 1.328 . S
C522 C523 1.457 . S
C522 H527 0.929 . S
C523 C522 1.457 . S
C523 C524 1.291 . S
C523 H536 0.931 . S
C524 C523 1.291 . S
C524 C525 1.373 . S
C524 H537 0.929 . S
C525 C524 1.373 . S
C525 C526 1.396 . S
C525 C532 1.403 . S
C526 C516 1.476 . S
C526 N521 1.318 . S
C526 C525 1.396 . S
H527 C522 0.929 . S
O528 Mn504 2.385 . S
O528 C506 1.234 . S
O529 Mn504 2.209 . S
O529 Mn505 2.215 . S
O529 C506 1.283 . S
O530 Mn504 2.094 . S
O530 C508 1.240 . S
O531 Mn505 2.117 . S
O531 C508 1.264 . S
C532 C525 1.403 . S
C532 C533 1.399 . S
C532 H538 0.929 . S
C533 C513 1.449 . S
C533 C532 1.399 . S
C533 H539 0.930 . S
H534 C514 0.931 . S
H535 C515 0.930 . S
H536 C523 0.931 . S
H537 C524 0.929 . S
H538 C532 0.929 . S
H539 C533 0.930 . S
Mn540 O545 2.095 . S
Mn540 O555 2.162 . S
Mn540 O556 2.297 . S
Mn540 O564 2.385 . S
Mn540 O565 2.209 . S
Mn540 O566 2.094 . S
Mn541 O546 2.121 . S
Mn541 N548 2.257 . S
Mn541 N557 2.282 . S
Mn541 O565 2.215 . S
Mn541 O567 2.117 . S
C542 O564 1.234 . S
C542 O565 1.283 . S
C543 O555 1.281 . S
C543 O556 1.236 . S
C544 O566 1.240 . S
C544 O567 1.264 . S
O545 Mn540 2.095 . S
O545 C554 1.250 . S
O546 Mn541 2.121 . S
O546 C554 1.258 . S
C547 N548 1.326 . S
C547 C551 1.460 . S
C547 H553 0.929 . S
N548 Mn541 2.257 . S
N548 C547 1.326 . S
N548 C552 1.362 . S
C549 C550 1.258 . S
C549 C552 1.431 . S
C549 C569 1.449 . S
C550 C549 1.258 . S
C550 C551 1.477 . S
C550 H570 0.931 . S
C551 C547 1.460 . S
C551 C550 1.477 . S
C551 H571 0.930 . S
C552 N548 1.362 . S
C552 C549 1.431 . S
C552 C562 1.476 . S
H553 C547 0.929 . S
C554 O545 1.250 . S
C554 O546 1.258 . S
O555 Mn540 2.162 . S
O555 C543 1.281 . S
O556 Mn540 2.297 . S
O556 C543 1.236 . S
N557 Mn541 2.282 . S
N557 C558 1.328 . S
N557 C562 1.318 . S
C558 N557 1.328 . S
C558 C559 1.457 . S
C558 H563 0.929 . S
C559 C558 1.457 . S
C559 C560 1.291 . S
C559 H572 0.931 . S
C560 C559 1.291 . S
C560 C561 1.373 . S
C560 H573 0.929 . S
C561 C560 1.373 . S
C561 C562 1.396 . S
C561 C568 1.403 . S
C562 C552 1.476 . S
C562 N557 1.318 . S
C562 C561 1.396 . S
H563 C558 0.929 . S
O564 Mn540 2.385 . S
O564 C542 1.234 . S
O565 Mn540 2.209 . S
O565 Mn541 2.215 . S
O565 C542 1.283 . S
O566 Mn540 2.094 . S
O566 C544 1.240 . S
O567 Mn541 2.117 . S
O567 C544 1.264 . S
C568 C561 1.403 . S
C568 C569 1.399 . S
C568 H574 0.929 . S
C569 C549 1.449 . S
C569 C568 1.399 . S
C569 H575 0.930 . S
H570 C550 0.931 . S
H571 C551 0.930 . S
H572 C559 0.931 . S
H573 C560 0.929 . S
H574 C568 0.929 . S
H575 C569 0.930 . S
Mn576 O581 2.095 . S
Mn576 O591 2.162 . S
Mn576 O592 2.297 . S
Mn576 O600 2.385 . S
Mn576 O601 2.209 . S
Mn576 O602 2.094 . S
Mn577 O582 2.121 . S
Mn577 N584 2.257 . S
Mn577 N593 2.282 . S
Mn577 O601 2.215 . S
Mn577 O603 2.117 . S
C578 O600 1.234 . S
C578 O601 1.283 . S
C579 O591 1.281 . S
C579 O592 1.236 . S
C580 O602 1.240 . S
C580 O603 1.264 . S
O581 Mn576 2.095 . S
O581 C590 1.250 . S
O582 Mn577 2.121 . S
O582 C590 1.258 . S
C583 N584 1.326 . S
C583 C587 1.460 . S
C583 H589 0.929 . S
N584 Mn577 2.257 . S
N584 C583 1.326 . S
N584 C588 1.362 . S
C585 C586 1.258 . S
C585 C588 1.431 . S
C585 C605 1.449 . S
C586 C585 1.258 . S
C586 C587 1.477 . S
C586 H606 0.931 . S
C587 C583 1.460 . S
C587 C586 1.477 . S
C587 H607 0.930 . S
C588 N584 1.362 . S
C588 C585 1.431 . S
C588 C598 1.476 . S
H589 C583 0.929 . S
C590 O581 1.250 . S
C590 O582 1.258 . S
O591 Mn576 2.162 . S
O591 C579 1.281 . S
O592 Mn576 2.297 . S
O592 C579 1.236 . S
N593 Mn577 2.282 . S
N593 C594 1.328 . S
N593 C598 1.318 . S
C594 N593 1.328 . S
C594 C595 1.457 . S
C594 H599 0.929 . S
C595 C594 1.457 . S
C595 C596 1.291 . S
C595 H608 0.931 . S
C596 C595 1.291 . S
C596 C597 1.373 . S
C596 H609 0.929 . S
C597 C596 1.373 . S
C597 C598 1.396 . S
C597 C604 1.403 . S
C598 C588 1.476 . S
C598 N593 1.318 . S
C598 C597 1.396 . S
H599 C594 0.929 . S
O600 Mn576 2.385 . S
O600 C578 1.234 . S
O601 Mn576 2.209 . S
O601 Mn577 2.215 . S
O601 C578 1.283 . S
O602 Mn576 2.094 . S
O602 C580 1.240 . S
O603 Mn577 2.117 . S
O603 C580 1.264 . S
C604 C597 1.403 . S
C604 C605 1.399 . S
C604 H610 0.929 . S
C605 C585 1.449 . S
C605 C604 1.399 . S
C605 H611 0.930 . S
H606 C586 0.931 . S
H607 C587 0.930 . S
H608 C595 0.931 . S
H609 C596 0.929 . S
H610 C604 0.929 . S
H611 C605 0.930 . S
Mn612 O617 2.095 . S
Mn612 O627 2.162 1_455 S
Mn612 O628 2.297 . S
Mn612 O636 2.385 . S
Mn612 O637 2.209 . S
Mn612 O638 2.094 . S
Mn613 O618 2.121 . S
Mn613 N620 2.257 . S
Mn613 N629 2.282 . S
Mn613 O637 2.215 . S
Mn613 O639 2.117 . S
C614 O636 1.234 . S
C614 O637 1.283 . S
C615 O627 1.279 1_455 S
C615 O628 1.240 . S
C616 O638 1.240 . S
C616 O639 1.264 . S
O617 Mn612 2.095 . S
O617 C626 1.250 . S
O618 Mn613 2.121 . S
O618 C626 1.258 . S
C619 N620 1.326 . S
C619 C623 1.460 . S
C619 H625 0.929 . S
N620 Mn613 2.257 . S
N620 C619 1.326 . S
N620 C624 1.362 . S
C621 C622 1.258 . S
C621 C624 1.431 . S
C621 C641 1.449 . S
C622 C621 1.258 . S
C622 C623 1.477 . S
C622 H642 0.931 . S
C623 C619 1.460 . S
C623 C622 1.477 . S
C623 H643 0.930 . S
C624 N620 1.362 . S
C624 C621 1.431 . S
C624 C634 1.476 . S
H625 C619 0.929 . S
C626 O617 1.250 . S
C626 O618 1.258 . S
O627 Mn612 2.162 1_655 S
O627 C615 1.279 1_655 S
O628 Mn612 2.297 . S
O628 C615 1.240 . S
N629 Mn613 2.282 . S
N629 C630 1.328 . S
N629 C634 1.318 . S
C630 N629 1.328 . S
C630 C631 1.457 . S
C630 H635 0.929 . S
C631 C630 1.457 . S
C631 C632 1.291 . S
C631 H644 0.931 . S
C632 C631 1.291 . S
C632 C633 1.373 . S
C632 H645 0.929 . S
C633 C632 1.373 . S
C633 C634 1.396 . S
C633 C640 1.403 . S
C634 C624 1.476 . S
C634 N629 1.318 . S
C634 C633 1.396 . S
H635 C630 0.929 . S
O636 Mn612 2.385 . S
O636 C614 1.234 . S
O637 Mn612 2.209 . S
O637 Mn613 2.215 . S
O637 C614 1.283 . S
O638 Mn612 2.094 . S
O638 C616 1.240 . S
O639 Mn613 2.117 . S
O639 C616 1.264 . S
C640 C633 1.403 . S
C640 C641 1.399 . S
C640 H646 0.929 . S
C641 C621 1.449 . S
C641 C640 1.399 . S
C641 H647 0.930 . S
H642 C622 0.931 . S
H643 C623 0.930 . S
H644 C631 0.931 . S
H645 C632 0.929 . S
H646 C640 0.929 . S
H647 C641 0.930 . S
Mn648 O653 2.095 . S
Mn648 O663 2.162 . S
Mn648 O664 2.297 . S
Mn648 O672 2.385 . S
Mn648 O673 2.209 . S
Mn648 O674 2.094 . S
Mn649 O654 2.121 . S
Mn649 N656 2.257 . S
Mn649 N665 2.282 . S
Mn649 O673 2.215 . S
Mn649 O675 2.117 . S
C650 O672 1.234 . S
C650 O673 1.283 . S
C651 O663 1.281 . S
C651 O664 1.236 . S
C652 O674 1.240 . S
C652 O675 1.264 . S
O653 Mn648 2.095 . S
O653 C662 1.250 . S
O654 Mn649 2.121 . S
O654 C662 1.258 . S
C655 N656 1.326 . S
C655 C659 1.460 . S
C655 H661 0.929 . S
N656 Mn649 2.257 . S
N656 C655 1.326 . S
N656 C660 1.362 . S
C657 C658 1.258 . S
C657 C660 1.431 . S
C657 C677 1.449 . S
C658 C657 1.258 . S
C658 C659 1.477 . S
C658 H678 0.931 . S
C659 C655 1.460 . S
C659 C658 1.477 . S
C659 H679 0.930 . S
C660 N656 1.362 . S
C660 C657 1.431 . S
C660 C670 1.476 . S
H661 C655 0.929 . S
C662 O653 1.250 . S
C662 O654 1.258 . S
O663 Mn648 2.162 . S
O663 C651 1.281 . S
O664 Mn648 2.297 . S
O664 C651 1.236 . S
N665 Mn649 2.282 . S
N665 C666 1.328 . S
N665 C670 1.318 . S
C666 N665 1.328 . S
C666 C667 1.457 . S
C666 H671 0.929 . S
C667 C666 1.457 . S
C667 C668 1.291 . S
C667 H680 0.931 . S
C668 C667 1.291 . S
C668 C669 1.373 . S
C668 H681 0.929 . S
C669 C668 1.373 . S
C669 C670 1.396 . S
C669 C676 1.403 . S
C670 C660 1.476 . S
C670 N665 1.318 . S
C670 C669 1.396 . S
H671 C666 0.929 . S
O672 Mn648 2.385 . S
O672 C650 1.234 . S
O673 Mn648 2.209 . S
O673 Mn649 2.215 . S
O673 C650 1.283 . S
O674 Mn648 2.094 . S
O674 C652 1.240 . S
O675 Mn649 2.117 . S
O675 C652 1.264 . S
C676 C669 1.403 . S
C676 C677 1.399 . S
C676 H682 0.929 . S
C677 C657 1.449 . S
C677 C676 1.399 . S
C677 H683 0.930 . S
H678 C658 0.931 . S
H679 C659 0.930 . S
H680 C667 0.931 . S
H681 C668 0.929 . S
H682 C676 0.929 . S
H683 C677 0.930 . S
Mn684 O689 2.095 . S
Mn684 O699 2.162 1_655 S
Mn684 O700 2.297 . S
Mn684 O708 2.385 . S
Mn684 O709 2.209 . S
Mn684 O710 2.094 . S
Mn685 O690 2.121 . S
Mn685 N692 2.257 . S
Mn685 N701 2.282 . S
Mn685 O709 2.215 . S
Mn685 O711 2.117 . S
C686 O708 1.234 . S
C686 O709 1.283 . S
C687 O699 1.279 1_655 S
C687 O700 1.239 . S
C688 O710 1.240 . S
C688 O711 1.264 . S
O689 Mn684 2.095 . S
O689 C698 1.250 . S
O690 Mn685 2.121 . S
O690 C698 1.258 . S
C691 N692 1.326 . S
C691 C695 1.460 . S
C691 H697 0.929 . S
N692 Mn685 2.257 . S
N692 C691 1.326 . S
N692 C696 1.362 . S
C693 C694 1.258 . S
C693 C696 1.431 . S
C693 C713 1.449 . S
C694 C693 1.258 . S
C694 C695 1.477 . S
C694 H714 0.931 . S
C695 C691 1.460 . S
C695 C694 1.477 . S
C695 H715 0.930 . S
C696 N692 1.362 . S
C696 C693 1.431 . S
C696 C706 1.476 . S
H697 C691 0.929 . S
C698 O689 1.250 . S
C698 O690 1.258 . S
O699 Mn684 2.162 1_455 S
O699 C687 1.279 1_455 S
O700 Mn684 2.297 . S
O700 C687 1.239 . S
N701 Mn685 2.282 . S
N701 C702 1.328 . S
N701 C706 1.318 . S
C702 N701 1.328 . S
C702 C703 1.457 . S
C702 H707 0.929 . S
C703 C702 1.457 . S
C703 C704 1.291 . S
C703 H716 0.931 . S
C704 C703 1.291 . S
C704 C705 1.373 . S
C704 H717 0.929 . S
C705 C704 1.373 . S
C705 C706 1.396 . S
C705 C712 1.403 . S
C706 C696 1.476 . S
C706 N701 1.318 . S
C706 C705 1.396 . S
H707 C702 0.929 . S
O708 Mn684 2.385 . S
O708 C686 1.234 . S
O709 Mn684 2.209 . S
O709 Mn685 2.215 . S
O709 C686 1.283 . S
O710 Mn684 2.094 . S
O710 C688 1.240 . S
O711 Mn685 2.117 . S
O711 C688 1.264 . S
C712 C705 1.403 . S
C712 C713 1.399 . S
C712 H718 0.929 . S
C713 C693 1.449 . S
C713 C712 1.399 . S
C713 H719 0.930 . S
H714 C694 0.931 . S
H715 C695 0.930 . S
H716 C703 0.931 . S
H717 C704 0.929 . S
H718 C712 0.929 . S
H719 C713 0.930 . S
Mn720 O725 2.095 . S
Mn720 O735 2.162 . S
Mn720 O736 2.297 . S
Mn720 O744 2.385 . S
Mn720 O745 2.209 . S
Mn720 O746 2.094 . S
Mn721 O726 2.121 . S
Mn721 N728 2.257 . S
Mn721 N737 2.282 . S
Mn721 O745 2.215 . S
Mn721 O747 2.117 . S
C722 O744 1.234 . S
C722 O745 1.283 . S
C723 O735 1.281 . S
C723 O736 1.236 . S
C724 O746 1.240 . S
C724 O747 1.264 . S
O725 Mn720 2.095 . S
O725 C734 1.250 . S
O726 Mn721 2.121 . S
O726 C734 1.258 . S
C727 N728 1.326 . S
C727 C731 1.460 . S
C727 H733 0.929 . S
N728 Mn721 2.257 . S
N728 C727 1.326 . S
N728 C732 1.362 . S
C729 C730 1.258 . S
C729 C732 1.431 . S
C729 C749 1.449 . S
C730 C729 1.258 . S
C730 C731 1.477 . S
C730 H750 0.931 . S
C731 C727 1.460 . S
C731 C730 1.477 . S
C731 H751 0.930 . S
C732 N728 1.362 . S
C732 C729 1.431 . S
C732 C742 1.476 . S
H733 C727 0.929 . S
C734 O725 1.250 . S
C734 O726 1.258 . S
O735 Mn720 2.162 . S
O735 C723 1.281 . S
O736 Mn720 2.297 . S
O736 C723 1.236 . S
N737 Mn721 2.282 . S
N737 C738 1.328 . S
N737 C742 1.318 . S
C738 N737 1.328 . S
C738 C739 1.457 . S
C738 H743 0.929 . S
C739 C738 1.457 . S
C739 C740 1.291 . S
C739 H752 0.931 . S
C740 C739 1.291 . S
C740 C741 1.373 . S
C740 H753 0.929 . S
C741 C740 1.373 . S
C741 C742 1.396 . S
C741 C748 1.403 . S
C742 C732 1.476 . S
C742 N737 1.318 . S
C742 C741 1.396 . S
H743 C738 0.929 . S
O744 Mn720 2.385 . S
O744 C722 1.234 . S
O745 Mn720 2.209 . S
O745 Mn721 2.215 . S
O745 C722 1.283 . S
O746 Mn720 2.094 . S
O746 C724 1.240 . S
O747 Mn721 2.117 . S
O747 C724 1.264 . S
C748 C741 1.403 . S
C748 C749 1.399 . S
C748 H754 0.929 . S
C749 C729 1.449 . S
C749 C748 1.399 . S
C749 H755 0.930 . S
H750 C730 0.931 . S
H751 C731 0.930 . S
H752 C739 0.931 . S
H753 C740 0.929 . S
H754 C748 0.929 . S
H755 C749 0.930 . S
Mn756 O761 2.095 . S
Mn756 O771 2.162 . S
Mn756 O772 2.297 . S
Mn756 O780 2.385 . S
Mn756 O781 2.209 . S
Mn756 O782 2.094 . S
Mn757 O762 2.121 . S
Mn757 N764 2.257 . S
Mn757 N773 2.282 . S
Mn757 O781 2.215 . S
Mn757 O783 2.117 . S
C758 O780 1.234 . S
C758 O781 1.283 . S
C759 O771 1.281 . S
C759 O772 1.236 . S
C760 O782 1.240 . S
C760 O783 1.264 . S
O761 Mn756 2.095 . S
O761 C770 1.250 . S
O762 Mn757 2.121 . S
O762 C770 1.258 . S
C763 N764 1.326 . S
C763 C767 1.460 . S
C763 H769 0.929 . S
N764 Mn757 2.257 . S
N764 C763 1.326 . S
N764 C768 1.362 . S
C765 C766 1.258 . S
C765 C768 1.431 . S
C765 C785 1.449 . S
C766 C765 1.258 . S
C766 C767 1.477 . S
C766 H786 0.931 . S
C767 C763 1.460 . S
C767 C766 1.477 . S
C767 H787 0.930 . S
C768 N764 1.362 . S
C768 C765 1.431 . S
C768 C778 1.476 . S
H769 C763 0.929 . S
C770 O761 1.250 . S
C770 O762 1.258 . S
O771 Mn756 2.162 . S
O771 C759 1.281 . S
O772 Mn756 2.297 . S
O772 C759 1.236 . S
N773 Mn757 2.282 . S
N773 C774 1.328 . S
N773 C778 1.318 . S
C774 N773 1.328 . S
C774 C775 1.457 . S
C774 H779 0.929 . S
C775 C774 1.457 . S
C775 C776 1.291 . S
C775 H788 0.931 . S
C776 C775 1.291 . S
C776 C777 1.373 . S
C776 H789 0.929 . S
C777 C776 1.373 . S
C777 C778 1.396 . S
C777 C784 1.403 . S
C778 C768 1.476 . S
C778 N773 1.318 . S
C778 C777 1.396 . S
H779 C774 0.929 . S
O780 Mn756 2.385 . S
O780 C758 1.234 . S
O781 Mn756 2.209 . S
O781 Mn757 2.215 . S
O781 C758 1.283 . S
O782 Mn756 2.094 . S
O782 C760 1.240 . S
O783 Mn757 2.117 . S
O783 C760 1.264 . S
C784 C777 1.403 . S
C784 C785 1.399 . S
C784 H790 0.929 . S
C785 C765 1.449 . S
C785 C784 1.399 . S
C785 H791 0.930 . S
H786 C766 0.931 . S
H787 C767 0.930 . S
H788 C775 0.931 . S
H789 C776 0.929 . S
H790 C784 0.929 . S
H791 C785 0.930 . S
Mn792 O797 2.095 . S
Mn792 O807 2.162 . S
Mn792 O808 2.297 . S
Mn792 O816 2.385 . S
Mn792 O817 2.209 . S
Mn792 O818 2.094 . S
Mn793 O798 2.121 . S
Mn793 N800 2.257 . S
Mn793 N809 2.282 . S
Mn793 O817 2.215 . S
Mn793 O819 2.117 . S
C794 O816 1.234 . S
C794 O817 1.283 . S
C795 O807 1.281 . S
C795 O808 1.236 . S
C796 O818 1.240 . S
C796 O819 1.264 . S
O797 Mn792 2.095 . S
O797 C806 1.250 . S
O798 Mn793 2.121 . S
O798 C806 1.258 . S
C799 N800 1.326 . S
C799 C803 1.460 . S
C799 H805 0.929 . S
N800 Mn793 2.257 . S
N800 C799 1.326 . S
N800 C804 1.362 . S
C801 C802 1.258 . S
C801 C804 1.431 . S
C801 C821 1.449 . S
C802 C801 1.258 . S
C802 C803 1.477 . S
C802 H822 0.931 . S
C803 C799 1.460 . S
C803 C802 1.477 . S
C803 H823 0.930 . S
C804 N800 1.362 . S
C804 C801 1.431 . S
C804 C814 1.476 . S
H805 C799 0.929 . S
C806 O797 1.250 . S
C806 O798 1.258 . S
O807 Mn792 2.162 . S
O807 C795 1.281 . S
O808 Mn792 2.297 . S
O808 C795 1.236 . S
N809 Mn793 2.282 . S
N809 C810 1.328 . S
N809 C814 1.318 . S
C810 N809 1.328 . S
C810 C811 1.457 . S
C810 H815 0.929 . S
C811 C810 1.457 . S
C811 C812 1.291 . S
C811 H824 0.931 . S
C812 C811 1.291 . S
C812 C813 1.373 . S
C812 H825 0.929 . S
C813 C812 1.373 . S
C813 C814 1.396 . S
C813 C820 1.403 . S
C814 C804 1.476 . S
C814 N809 1.318 . S
C814 C813 1.396 . S
H815 C810 0.929 . S
O816 Mn792 2.385 . S
O816 C794 1.234 . S
O817 Mn792 2.209 . S
O817 Mn793 2.215 . S
O817 C794 1.283 . S
O818 Mn792 2.094 . S
O818 C796 1.240 . S
O819 Mn793 2.117 . S
O819 C796 1.264 . S
C820 C813 1.403 . S
C820 C821 1.399 . S
C820 H826 0.929 . S
C821 C801 1.449 . S
C821 C820 1.399 . S
C821 H827 0.930 . S
H822 C802 0.931 . S
H823 C803 0.930 . S
H824 C811 0.931 . S
H825 C812 0.929 . S
H826 C820 0.929 . S
H827 C821 0.930 . S
Mn828 O833 2.095 . S
Mn828 O843 2.162 . S
Mn828 O844 2.297 . S
Mn828 O852 2.385 . S
Mn828 O853 2.209 . S
Mn828 O854 2.094 . S
Mn829 O834 2.121 . S
Mn829 N836 2.257 . S
Mn829 N845 2.282 . S
Mn829 O853 2.215 . S
Mn829 O855 2.117 . S
C830 O852 1.234 . S
C830 O853 1.283 . S
C831 O843 1.281 . S
C831 O844 1.236 . S
C832 O854 1.240 . S
C832 O855 1.264 . S
O833 Mn828 2.095 . S
O833 C842 1.250 . S
O834 Mn829 2.121 . S
O834 C842 1.258 . S
C835 N836 1.326 . S
C835 C839 1.460 . S
C835 H841 0.929 . S
N836 Mn829 2.257 . S
N836 C835 1.326 . S
N836 C840 1.362 . S
C837 C838 1.258 . S
C837 C840 1.431 . S
C837 C857 1.449 . S
C838 C837 1.258 . S
C838 C839 1.477 . S
C838 H858 0.931 . S
C839 C835 1.460 . S
C839 C838 1.477 . S
C839 H859 0.930 . S
C840 N836 1.362 . S
C840 C837 1.431 . S
C840 C850 1.476 . S
H841 C835 0.929 . S
C842 O833 1.250 . S
C842 O834 1.258 . S
O843 Mn828 2.162 . S
O843 C831 1.281 . S
O844 Mn828 2.297 . S
O844 C831 1.236 . S
N845 Mn829 2.282 . S
N845 C846 1.328 . S
N845 C850 1.318 . S
C846 N845 1.328 . S
C846 C847 1.457 . S
C846 H851 0.929 . S
C847 C846 1.457 . S
C847 C848 1.291 . S
C847 H860 0.931 . S
C848 C847 1.291 . S
C848 C849 1.373 . S
C848 H861 0.929 . S
C849 C848 1.373 . S
C849 C850 1.396 . S
C849 C856 1.403 . S
C850 C840 1.476 . S
C850 N845 1.318 . S
C850 C849 1.396 . S
H851 C846 0.929 . S
O852 Mn828 2.385 . S
O852 C830 1.234 . S
O853 Mn828 2.209 . S
O853 Mn829 2.215 . S
O853 C830 1.283 . S
O854 Mn828 2.094 . S
O854 C832 1.240 . S
O855 Mn829 2.117 . S
O855 C832 1.264 . S
C856 C849 1.403 . S
C856 C857 1.399 . S
C856 H862 0.929 . S
C857 C837 1.449 . S
C857 C856 1.399 . S
C857 H863 0.930 . S
H858 C838 0.931 . S
H859 C839 0.930 . S
H860 C847 0.931 . S
H861 C848 0.929 . S
H862 C856 0.929 . S
H863 C857 0.930 . S
Mn864 O869 2.095 . S
Mn864 O879 2.162 1_545 S
Mn864 O880 2.297 . S
Mn864 O888 2.385 . S
Mn864 O889 2.209 . S
Mn864 O890 2.094 . S
Mn865 O870 2.121 . S
Mn865 N872 2.257 . S
Mn865 N881 2.282 . S
Mn865 O889 2.215 . S
Mn865 O891 2.117 . S
C866 O888 1.234 . S
C866 O889 1.283 . S
C867 O879 1.279 1_545 S
C867 O880 1.239 . S
C868 O890 1.240 . S
C868 O891 1.264 . S
O869 Mn864 2.095 . S
O869 C878 1.250 . S
O870 Mn865 2.121 . S
O870 C878 1.258 . S
C871 N872 1.326 . S
C871 C875 1.460 . S
C871 H877 0.929 . S
N872 Mn865 2.257 . S
N872 C871 1.326 . S
N872 C876 1.362 . S
C873 C874 1.258 . S
C873 C876 1.431 . S
C873 C893 1.449 . S
C874 C873 1.258 . S
C874 C875 1.477 . S
C874 H894 0.931 . S
C875 C871 1.460 . S
C875 C874 1.477 . S
C875 H895 0.930 . S
C876 N872 1.362 . S
C876 C873 1.431 . S
C876 C886 1.476 . S
H877 C871 0.929 . S
C878 O869 1.250 . S
C878 O870 1.258 . S
O879 Mn864 2.162 1_565 S
O879 C867 1.279 1_565 S
O880 Mn864 2.297 . S
O880 C867 1.239 . S
N881 Mn865 2.282 . S
N881 C882 1.328 . S
N881 C886 1.318 . S
C882 N881 1.328 . S
C882 C883 1.457 . S
C882 H887 0.929 . S
C883 C882 1.457 . S
C883 C884 1.291 . S
C883 H896 0.931 . S
C884 C883 1.291 . S
C884 C885 1.373 . S
C884 H897 0.929 . S
C885 C884 1.373 . S
C885 C886 1.396 . S
C885 C892 1.403 . S
C886 C876 1.476 . S
C886 N881 1.318 . S
C886 C885 1.396 . S
H887 C882 0.929 . S
O888 Mn864 2.385 . S
O888 C866 1.234 . S
O889 Mn864 2.209 . S
O889 Mn865 2.215 . S
O889 C866 1.283 . S
O890 Mn864 2.094 . S
O890 C868 1.240 . S
O891 Mn865 2.117 . S
O891 C868 1.264 . S
C892 C885 1.403 . S
C892 C893 1.399 . S
C892 H898 0.929 . S
C893 C873 1.449 . S
C893 C892 1.399 . S
C893 H899 0.930 . S
H894 C874 0.931 . S
H895 C875 0.930 . S
H896 C883 0.931 . S
H897 C884 0.929 . S
H898 C892 0.929 . S
H899 C893 0.930 . S
Mn900 O905 2.095 . S
Mn900 O915 2.162 . S
Mn900 O916 2.297 . S
Mn900 O924 2.385 . S
Mn900 O925 2.209 . S
Mn900 O926 2.094 . S
Mn901 O906 2.121 . S
Mn901 N908 2.257 . S
Mn901 N917 2.282 . S
Mn901 O925 2.215 . S
Mn901 O927 2.117 . S
C902 O924 1.234 . S
C902 O925 1.283 . S
C903 O915 1.281 . S
C903 O916 1.236 . S
C904 O926 1.240 . S
C904 O927 1.264 . S
O905 Mn900 2.095 . S
O905 C914 1.250 . S
O906 Mn901 2.121 . S
O906 C914 1.258 . S
C907 N908 1.326 . S
C907 C911 1.460 . S
C907 H913 0.929 . S
N908 Mn901 2.257 . S
N908 C907 1.326 . S
N908 C912 1.362 . S
C909 C910 1.258 . S
C909 C912 1.431 . S
C909 C929 1.449 . S
C910 C909 1.258 . S
C910 C911 1.477 . S
C910 H930 0.931 . S
C911 C907 1.460 . S
C911 C910 1.477 . S
C911 H931 0.930 . S
C912 N908 1.362 . S
C912 C909 1.431 . S
C912 C922 1.476 . S
H913 C907 0.929 . S
C914 O905 1.250 . S
C914 O906 1.258 . S
O915 Mn900 2.162 . S
O915 C903 1.281 . S
O916 Mn900 2.297 . S
O916 C903 1.236 . S
N917 Mn901 2.282 . S
N917 C918 1.328 . S
N917 C922 1.318 . S
C918 N917 1.328 . S
C918 C919 1.457 . S
C918 H923 0.929 . S
C919 C918 1.457 . S
C919 C920 1.291 . S
C919 H932 0.931 . S
C920 C919 1.291 . S
C920 C921 1.373 . S
C920 H933 0.929 . S
C921 C920 1.373 . S
C921 C922 1.396 . S
C921 C928 1.403 . S
C922 C912 1.476 . S
C922 N917 1.318 . S
C922 C921 1.396 . S
H923 C918 0.929 . S
O924 Mn900 2.385 . S
O924 C902 1.234 . S
O925 Mn900 2.209 . S
O925 Mn901 2.215 . S
O925 C902 1.283 . S
O926 Mn900 2.094 . S
O926 C904 1.240 . S
O927 Mn901 2.117 . S
O927 C904 1.264 . S
C928 C921 1.403 . S
C928 C929 1.399 . S
C928 H934 0.929 . S
C929 C909 1.449 . S
C929 C928 1.399 . S
C929 H935 0.930 . S
H930 C910 0.931 . S
H931 C911 0.930 . S
H932 C919 0.931 . S
H933 C920 0.929 . S
H934 C928 0.929 . S
H935 C929 0.930 . S
Mn936 O941 2.095 . S
Mn936 O951 2.162 . S
Mn936 O952 2.297 . S
Mn936 O960 2.385 . S
Mn936 O961 2.209 . S
Mn936 O962 2.094 . S
Mn937 O942 2.121 . S
Mn937 N944 2.257 . S
Mn937 N953 2.282 . S
Mn937 O961 2.215 . S
Mn937 O963 2.117 . S
C938 O960 1.234 . S
C938 O961 1.283 . S
C939 O951 1.281 . S
C939 O952 1.236 . S
C940 O962 1.240 . S
C940 O963 1.264 . S
O941 Mn936 2.095 . S
O941 C950 1.250 . S
O942 Mn937 2.121 . S
O942 C950 1.258 . S
C943 N944 1.326 . S
C943 C947 1.460 . S
C943 H949 0.929 . S
N944 Mn937 2.257 . S
N944 C943 1.326 . S
N944 C948 1.362 . S
C945 C946 1.258 . S
C945 C948 1.431 . S
C945 C965 1.449 . S
C946 C945 1.258 . S
C946 C947 1.477 . S
C946 H966 0.931 . S
C947 C943 1.460 . S
C947 C946 1.477 . S
C947 H967 0.930 . S
C948 N944 1.362 . S
C948 C945 1.431 . S
C948 C958 1.476 . S
H949 C943 0.929 . S
C950 O941 1.250 . S
C950 O942 1.258 . S
O951 Mn936 2.162 . S
O951 C939 1.281 . S
O952 Mn936 2.297 . S
O952 C939 1.236 . S
N953 Mn937 2.282 . S
N953 C954 1.328 . S
N953 C958 1.318 . S
C954 N953 1.328 . S
C954 C955 1.457 . S
C954 H959 0.929 . S
C955 C954 1.457 . S
C955 C956 1.291 . S
C955 H968 0.931 . S
C956 C955 1.291 . S
C956 C957 1.373 . S
C956 H969 0.929 . S
C957 C956 1.373 . S
C957 C958 1.396 . S
C957 C964 1.403 . S
C958 C948 1.476 . S
C958 N953 1.318 . S
C958 C957 1.396 . S
H959 C954 0.929 . S
O960 Mn936 2.385 . S
O960 C938 1.234 . S
O961 Mn936 2.209 . S
O961 Mn937 2.215 . S
O961 C938 1.283 . S
O962 Mn936 2.094 . S
O962 C940 1.240 . S
O963 Mn937 2.117 . S
O963 C940 1.264 . S
C964 C957 1.403 . S
C964 C965 1.399 . S
C964 H970 0.929 . S
C965 C945 1.449 . S
C965 C964 1.399 . S
C965 H971 0.930 . S
H966 C946 0.931 . S
H967 C947 0.930 . S
H968 C955 0.931 . S
H969 C956 0.929 . S
H970 C964 0.929 . S
H971 C965 0.930 . S
Mn972 O977 2.095 . S
Mn972 O987 2.162 . S
Mn972 O988 2.297 . S
Mn972 O996 2.385 . S
Mn972 O997 2.209 . S
Mn972 O998 2.094 . S
Mn973 O978 2.121 . S
Mn973 N980 2.257 . S
Mn973 N989 2.282 . S
Mn973 O997 2.215 . S
Mn973 O999 2.117 . S
C974 O996 1.234 . S
C974 O997 1.283 . S
C975 O987 1.281 . S
C975 O988 1.236 . S
C976 O998 1.240 . S
C976 O999 1.264 . S
O977 Mn972 2.095 . S
O977 C986 1.250 . S
O978 Mn973 2.121 . S
O978 C986 1.258 . S
C979 N980 1.326 . S
C979 C983 1.460 . S
C979 H985 0.929 . S
N980 Mn973 2.257 . S
N980 C979 1.326 . S
N980 C984 1.362 . S
C981 C982 1.258 . S
C981 C984 1.431 . S
C981 C1001 1.449 . S
C982 C981 1.258 . S
C982 C983 1.477 . S
C982 H1002 0.931 . S
C983 C979 1.460 . S
C983 C982 1.477 . S
C983 H1003 0.930 . S
C984 N980 1.362 . S
C984 C981 1.431 . S
C984 C994 1.476 . S
H985 C979 0.929 . S
C986 O977 1.250 . S
C986 O978 1.258 . S
O987 Mn972 2.162 . S
O987 C975 1.281 . S
O988 Mn972 2.297 . S
O988 C975 1.236 . S
N989 Mn973 2.282 . S
N989 C990 1.328 . S
N989 C994 1.318 . S
C990 N989 1.328 . S
C990 C991 1.457 . S
C990 H995 0.929 . S
C991 C990 1.457 . S
C991 C992 1.291 . S
C991 H1004 0.931 . S
C992 C991 1.291 . S
C992 C993 1.373 . S
C992 H1005 0.929 . S
C993 C992 1.373 . S
C993 C994 1.396 . S
C993 C1000 1.403 . S
C994 C984 1.476 . S
C994 N989 1.318 . S
C994 C993 1.396 . S
H995 C990 0.929 . S
O996 Mn972 2.385 . S
O996 C974 1.234 . S
O997 Mn972 2.209 . S
O997 Mn973 2.215 . S
O997 C974 1.283 . S
O998 Mn972 2.094 . S
O998 C976 1.240 . S
O999 Mn973 2.117 . S
O999 C976 1.264 . S
C1000 C993 1.403 . S
C1000 C1001 1.399 . S
C1000 H1006 0.929 . S
C1001 C981 1.449 . S
C1001 C1000 1.399 . S
C1001 H1007 0.930 . S
H1002 C982 0.931 . S
H1003 C983 0.930 . S
H1004 C991 0.931 . S
H1005 C992 0.929 . S
H1006 C1000 0.929 . S
H1007 C1001 0.930 . S
Mn1008 O1013 2.095 . S
Mn1008 O1023 2.162 1_565 S
Mn1008 O1024 2.297 . S
Mn1008 O1032 2.385 . S
Mn1008 O1033 2.209 . S
Mn1008 O1034 2.094 . S
Mn1009 O1014 2.121 . S
Mn1009 N1016 2.257 . S
Mn1009 N1025 2.282 . S
Mn1009 O1033 2.215 . S
Mn1009 O1035 2.117 . S
C1010 O1032 1.234 . S
C1010 O1033 1.283 . S
C1011 O1023 1.279 1_565 S
C1011 O1024 1.239 . S
C1012 O1034 1.240 . S
C1012 O1035 1.264 . S
O1013 Mn1008 2.095 . S
O1013 C1022 1.250 . S
O1014 Mn1009 2.121 . S
O1014 C1022 1.258 . S
C1015 N1016 1.326 . S
C1015 C1019 1.460 . S
C1015 H1021 0.929 . S
N1016 Mn1009 2.257 . S
N1016 C1015 1.326 . S
N1016 C1020 1.362 . S
C1017 C1018 1.258 . S
C1017 C1020 1.431 . S
C1017 C1037 1.449 . S
C1018 C1017 1.258 . S
C1018 C1019 1.477 . S
C1018 H1038 0.931 . S
C1019 C1015 1.460 . S
C1019 C1018 1.477 . S
C1019 H1039 0.930 . S
C1020 N1016 1.362 . S
C1020 C1017 1.431 . S
C1020 C1030 1.476 . S
H1021 C1015 0.929 . S
C1022 O1013 1.250 . S
C1022 O1014 1.258 . S
O1023 Mn1008 2.162 1_545 S
O1023 C1011 1.279 1_545 S
O1024 Mn1008 2.297 . S
O1024 C1011 1.239 . S
N1025 Mn1009 2.282 . S
N1025 C1026 1.328 . S
N1025 C1030 1.318 . S
C1026 N1025 1.328 . S
C1026 C1027 1.457 . S
C1026 H1031 0.929 . S
C1027 C1026 1.457 . S
C1027 C1028 1.291 . S
C1027 H1040 0.931 . S
C1028 C1027 1.291 . S
C1028 C1029 1.373 . S
C1028 H1041 0.929 . S
C1029 C1028 1.373 . S
C1029 C1030 1.396 . S
C1029 C1036 1.403 . S
C1030 C1020 1.476 . S
C1030 N1025 1.318 . S
C1030 C1029 1.396 . S
H1031 C1026 0.929 . S
O1032 Mn1008 2.385 . S
O1032 C1010 1.234 . S
O1033 Mn1008 2.209 . S
O1033 Mn1009 2.215 . S
O1033 C1010 1.283 . S
O1034 Mn1008 2.094 . S
O1034 C1012 1.240 . S
O1035 Mn1009 2.117 . S
O1035 C1012 1.264 . S
C1036 C1029 1.403 . S
C1036 C1037 1.399 . S
C1036 H1042 0.929 . S
C1037 C1017 1.449 . S
C1037 C1036 1.399 . S
C1037 H1043 0.930 . S
H1038 C1018 0.931 . S
H1039 C1019 0.930 . S
H1040 C1027 0.931 . S
H1041 C1028 0.929 . S
H1042 C1036 0.929 . S
H1043 C1037 0.930 . S
Mn1044 O1049 2.095 . S
Mn1044 O1059 2.162 . S
Mn1044 O1060 2.297 . S
Mn1044 O1068 2.385 . S
Mn1044 O1069 2.209 . S
Mn1044 O1070 2.094 . S
Mn1045 O1050 2.121 . S
Mn1045 N1052 2.257 . S
Mn1045 N1061 2.282 . S
Mn1045 O1069 2.215 . S
Mn1045 O1071 2.117 . S
C1046 O1068 1.234 . S
C1046 O1069 1.283 . S
C1047 O1059 1.281 . S
C1047 O1060 1.236 . S
C1048 O1070 1.240 . S
C1048 O1071 1.264 . S
O1049 Mn1044 2.095 . S
O1049 C1058 1.250 . S
O1050 Mn1045 2.121 . S
O1050 C1058 1.258 . S
C1051 N1052 1.326 . S
C1051 C1055 1.460 . S
C1051 H1057 0.929 . S
N1052 Mn1045 2.257 . S
N1052 C1051 1.326 . S
N1052 C1056 1.362 . S
C1053 C1054 1.258 . S
C1053 C1056 1.431 . S
C1053 C1073 1.449 . S
C1054 C1053 1.258 . S
C1054 C1055 1.477 . S
C1054 H1074 0.931 . S
C1055 C1051 1.460 . S
C1055 C1054 1.477 . S
C1055 H1075 0.930 . S
C1056 N1052 1.362 . S
C1056 C1053 1.431 . S
C1056 C1066 1.476 . S
H1057 C1051 0.929 . S
C1058 O1049 1.250 . S
C1058 O1050 1.258 . S
O1059 Mn1044 2.162 . S
O1059 C1047 1.281 . S
O1060 Mn1044 2.297 . S
O1060 C1047 1.236 . S
N1061 Mn1045 2.282 . S
N1061 C1062 1.328 . S
N1061 C1066 1.318 . S
C1062 N1061 1.328 . S
C1062 C1063 1.457 . S
C1062 H1067 0.929 . S
C1063 C1062 1.457 . S
C1063 C1064 1.291 . S
C1063 H1076 0.931 . S
C1064 C1063 1.291 . S
C1064 C1065 1.373 . S
C1064 H1077 0.929 . S
C1065 C1064 1.373 . S
C1065 C1066 1.396 . S
C1065 C1072 1.403 . S
C1066 C1056 1.476 . S
C1066 N1061 1.318 . S
C1066 C1065 1.396 . S
H1067 C1062 0.929 . S
O1068 Mn1044 2.385 . S
O1068 C1046 1.234 . S
O1069 Mn1044 2.209 . S
O1069 Mn1045 2.215 . S
O1069 C1046 1.283 . S
O1070 Mn1044 2.094 . S
O1070 C1048 1.240 . S
O1071 Mn1045 2.117 . S
O1071 C1048 1.264 . S
C1072 C1065 1.403 . S
C1072 C1073 1.399 . S
C1072 H1078 0.929 . S
C1073 C1053 1.449 . S
C1073 C1072 1.399 . S
C1073 H1079 0.930 . S
H1074 C1054 0.931 . S
H1075 C1055 0.930 . S
H1076 C1063 0.931 . S
H1077 C1064 0.929 . S
H1078 C1072 0.929 . S
H1079 C1073 0.930 . S
Mn1080 O1085 2.095 . S
Mn1080 O1095 2.162 . S
Mn1080 O1096 2.297 . S
Mn1080 O1104 2.385 . S
Mn1080 O1105 2.209 . S
Mn1080 O1106 2.094 . S
Mn1081 O1086 2.121 . S
Mn1081 N1088 2.257 . S
Mn1081 N1097 2.282 . S
Mn1081 O1105 2.215 . S
Mn1081 O1107 2.117 . S
C1082 O1104 1.234 . S
C1082 O1105 1.283 . S
C1083 O1095 1.281 . S
C1083 O1096 1.236 . S
C1084 O1106 1.240 . S
C1084 O1107 1.264 . S
O1085 Mn1080 2.095 . S
O1085 C1094 1.250 . S
O1086 Mn1081 2.121 . S
O1086 C1094 1.258 . S
C1087 N1088 1.326 . S
C1087 C1091 1.460 . S
C1087 H1093 0.929 . S
N1088 Mn1081 2.257 . S
N1088 C1087 1.326 . S
N1088 C1092 1.362 . S
C1089 C1090 1.258 . S
C1089 C1092 1.431 . S
C1089 C1109 1.449 . S
C1090 C1089 1.258 . S
C1090 C1091 1.477 . S
C1090 H1110 0.931 . S
C1091 C1087 1.460 . S
C1091 C1090 1.477 . S
C1091 H1111 0.930 . S
C1092 N1088 1.362 . S
C1092 C1089 1.431 . S
C1092 C1102 1.476 . S
H1093 C1087 0.929 . S
C1094 O1085 1.250 . S
C1094 O1086 1.258 . S
O1095 Mn1080 2.162 . S
O1095 C1083 1.281 . S
O1096 Mn1080 2.297 . S
O1096 C1083 1.236 . S
N1097 Mn1081 2.282 . S
N1097 C1098 1.328 . S
N1097 C1102 1.318 . S
C1098 N1097 1.328 . S
C1098 C1099 1.457 . S
C1098 H1103 0.929 . S
C1099 C1098 1.457 . S
C1099 C1100 1.291 . S
C1099 H1112 0.931 . S
C1100 C1099 1.291 . S
C1100 C1101 1.373 . S
C1100 H1113 0.929 . S
C1101 C1100 1.373 . S
C1101 C1102 1.396 . S
C1101 C1108 1.403 . S
C1102 C1092 1.476 . S
C1102 N1097 1.318 . S
C1102 C1101 1.396 . S
H1103 C1098 0.929 . S
O1104 Mn1080 2.385 . S
O1104 C1082 1.234 . S
O1105 Mn1080 2.209 . S
O1105 Mn1081 2.215 . S
O1105 C1082 1.283 . S
O1106 Mn1080 2.094 . S
O1106 C1084 1.240 . S
O1107 Mn1081 2.117 . S
O1107 C1084 1.264 . S
C1108 C1101 1.403 . S
C1108 C1109 1.399 . S
C1108 H1114 0.929 . S
C1109 C1089 1.449 . S
C1109 C1108 1.399 . S
C1109 H1115 0.930 . S
H1110 C1090 0.931 . S
H1111 C1091 0.930 . S
H1112 C1099 0.931 . S
H1113 C1100 0.929 . S
H1114 C1108 0.929 . S
H1115 C1109 0.930 . S
Mn1116 O1121 2.095 . S
Mn1116 O1131 2.162 . S
Mn1116 O1132 2.297 . S
Mn1116 O1140 2.385 . S
Mn1116 O1141 2.209 . S
Mn1116 O1142 2.094 . S
Mn1117 O1122 2.121 . S
Mn1117 N1124 2.257 . S
Mn1117 N1133 2.282 . S
Mn1117 O1141 2.215 . S
Mn1117 O1143 2.117 . S
C1118 O1140 1.234 . S
C1118 O1141 1.283 . S
C1119 O1131 1.281 . S
C1119 O1132 1.236 . S
C1120 O1142 1.240 . S
C1120 O1143 1.264 . S
O1121 Mn1116 2.095 . S
O1121 C1130 1.250 . S
O1122 Mn1117 2.121 . S
O1122 C1130 1.258 . S
C1123 N1124 1.326 . S
C1123 C1127 1.460 . S
C1123 H1129 0.929 . S
N1124 Mn1117 2.257 . S
N1124 C1123 1.326 . S
N1124 C1128 1.362 . S
C1125 C1126 1.258 . S
C1125 C1128 1.431 . S
C1125 C1145 1.449 . S
C1126 C1125 1.258 . S
C1126 C1127 1.477 . S
C1126 H1146 0.931 . S
C1127 C1123 1.460 . S
C1127 C1126 1.477 . S
C1127 H1147 0.930 . S
C1128 N1124 1.362 . S
C1128 C1125 1.431 . S
C1128 C1138 1.476 . S
H1129 C1123 0.929 . S
C1130 O1121 1.250 . S
C1130 O1122 1.258 . S
O1131 Mn1116 2.162 . S
O1131 C1119 1.281 . S
O1132 Mn1116 2.297 . S
O1132 C1119 1.236 . S
N1133 Mn1117 2.282 . S
N1133 C1134 1.328 . S
N1133 C1138 1.318 . S
C1134 N1133 1.328 . S
C1134 C1135 1.457 . S
C1134 H1139 0.929 . S
C1135 C1134 1.457 . S
C1135 C1136 1.291 . S
C1135 H1148 0.931 . S
C1136 C1135 1.291 . S
C1136 C1137 1.373 . S
C1136 H1149 0.929 . S
C1137 C1136 1.373 . S
C1137 C1138 1.396 . S
C1137 C1144 1.403 . S
C1138 C1128 1.476 . S
C1138 N1133 1.318 . S
C1138 C1137 1.396 . S
H1139 C1134 0.929 . S
O1140 Mn1116 2.385 . S
O1140 C1118 1.234 . S
O1141 Mn1116 2.209 . S
O1141 Mn1117 2.215 . S
O1141 C1118 1.283 . S
O1142 Mn1116 2.094 . S
O1142 C1120 1.240 . S
O1143 Mn1117 2.117 . S
O1143 C1120 1.264 . S
C1144 C1137 1.403 . S
C1144 C1145 1.399 . S
C1144 H1150 0.929 . S
C1145 C1125 1.449 . S
C1145 C1144 1.399 . S
C1145 H1151 0.930 . S
H1146 C1126 0.931 . S
H1147 C1127 0.930 . S
H1148 C1135 0.931 . S
H1149 C1136 0.929 . S
H1150 C1144 0.929 . S
H1151 C1145 0.930 . S
Mn1152 O1157 2.095 . S
Mn1152 O1167 2.162 1_554 S
Mn1152 O1168 2.297 . S
Mn1152 O1176 2.385 . S
Mn1152 O1177 2.209 . S
Mn1152 O1178 2.094 . S
Mn1153 O1158 2.121 . S
Mn1153 N1160 2.257 . S
Mn1153 N1169 2.282 . S
Mn1153 O1177 2.215 . S
Mn1153 O1179 2.117 . S
C1154 O1176 1.234 . S
C1154 O1177 1.283 . S
C1155 O1167 1.279 1_554 S
C1155 O1168 1.240 . S
C1156 O1178 1.240 . S
C1156 O1179 1.264 . S
O1157 Mn1152 2.095 . S
O1157 C1166 1.250 . S
O1158 Mn1153 2.121 . S
O1158 C1166 1.258 . S
C1159 N1160 1.326 . S
C1159 C1163 1.460 . S
C1159 H1165 0.929 . S
N1160 Mn1153 2.257 . S
N1160 C1159 1.326 . S
N1160 C1164 1.362 . S
C1161 C1162 1.258 . S
C1161 C1164 1.431 . S
C1161 C1181 1.449 . S
C1162 C1161 1.258 . S
C1162 C1163 1.477 . S
C1162 H1182 0.931 . S
C1163 C1159 1.460 . S
C1163 C1162 1.477 . S
C1163 H1183 0.930 . S
C1164 N1160 1.362 . S
C1164 C1161 1.431 . S
C1164 C1174 1.476 . S
H1165 C1159 0.929 . S
C1166 O1157 1.250 . S
C1166 O1158 1.258 . S
O1167 Mn1152 2.162 1_556 S
O1167 C1155 1.279 1_556 S
O1168 Mn1152 2.297 . S
O1168 C1155 1.240 . S
N1169 Mn1153 2.282 . S
N1169 C1170 1.328 . S
N1169 C1174 1.318 . S
C1170 N1169 1.328 . S
C1170 C1171 1.457 . S
C1170 H1175 0.929 . S
C1171 C1170 1.457 . S
C1171 C1172 1.291 . S
C1171 H1184 0.931 . S
C1172 C1171 1.291 . S
C1172 C1173 1.373 . S
C1172 H1185 0.929 . S
C1173 C1172 1.373 . S
C1173 C1174 1.396 . S
C1173 C1180 1.403 . S
C1174 C1164 1.476 . S
C1174 N1169 1.318 . S
C1174 C1173 1.396 . S
H1175 C1170 0.929 . S
O1176 Mn1152 2.385 . S
O1176 C1154 1.234 . S
O1177 Mn1152 2.209 . S
O1177 Mn1153 2.215 . S
O1177 C1154 1.283 . S
O1178 Mn1152 2.094 . S
O1178 C1156 1.240 . S
O1179 Mn1153 2.117 . S
O1179 C1156 1.264 . S
C1180 C1173 1.403 . S
C1180 C1181 1.399 . S
C1180 H1186 0.929 . S
C1181 C1161 1.449 . S
C1181 C1180 1.399 . S
C1181 H1187 0.930 . S
H1182 C1162 0.931 . S
H1183 C1163 0.930 . S
H1184 C1171 0.931 . S
H1185 C1172 0.929 . S
H1186 C1180 0.929 . S
H1187 C1181 0.930 . S
Mn1188 O1193 2.095 . S
Mn1188 O1203 2.162 . S
Mn1188 O1204 2.297 . S
Mn1188 O1212 2.385 . S
Mn1188 O1213 2.209 . S
Mn1188 O1214 2.094 . S
Mn1189 O1194 2.121 . S
Mn1189 N1196 2.257 . S
Mn1189 N1205 2.282 . S
Mn1189 O1213 2.215 . S
Mn1189 O1215 2.117 . S
C1190 O1212 1.234 . S
C1190 O1213 1.283 . S
C1191 O1203 1.281 . S
C1191 O1204 1.236 . S
C1192 O1214 1.240 . S
C1192 O1215 1.264 . S
O1193 Mn1188 2.095 . S
O1193 C1202 1.250 . S
O1194 Mn1189 2.121 . S
O1194 C1202 1.258 . S
C1195 N1196 1.326 . S
C1195 C1199 1.460 . S
C1195 H1201 0.929 . S
N1196 Mn1189 2.257 . S
N1196 C1195 1.326 . S
N1196 C1200 1.362 . S
C1197 C1198 1.258 . S
C1197 C1200 1.431 . S
C1197 C1217 1.449 . S
C1198 C1197 1.258 . S
C1198 C1199 1.477 . S
C1198 H1218 0.931 . S
C1199 C1195 1.460 . S
C1199 C1198 1.477 . S
C1199 H1219 0.930 . S
C1200 N1196 1.362 . S
C1200 C1197 1.431 . S
C1200 C1210 1.476 . S
H1201 C1195 0.929 . S
C1202 O1193 1.250 . S
C1202 O1194 1.258 . S
O1203 Mn1188 2.162 . S
O1203 C1191 1.281 . S
O1204 Mn1188 2.297 . S
O1204 C1191 1.236 . S
N1205 Mn1189 2.282 . S
N1205 C1206 1.328 . S
N1205 C1210 1.318 . S
C1206 N1205 1.328 . S
C1206 C1207 1.457 . S
C1206 H1211 0.929 . S
C1207 C1206 1.457 . S
C1207 C1208 1.291 . S
C1207 H1220 0.931 . S
C1208 C1207 1.291 . S
C1208 C1209 1.373 . S
C1208 H1221 0.929 . S
C1209 C1208 1.373 . S
C1209 C1210 1.396 . S
C1209 C1216 1.403 . S
C1210 C1200 1.476 . S
C1210 N1205 1.318 . S
C1210 C1209 1.396 . S
H1211 C1206 0.929 . S
O1212 Mn1188 2.385 . S
O1212 C1190 1.234 . S
O1213 Mn1188 2.209 . S
O1213 Mn1189 2.215 . S
O1213 C1190 1.283 . S
O1214 Mn1188 2.094 . S
O1214 C1192 1.240 . S
O1215 Mn1189 2.117 . S
O1215 C1192 1.264 . S
C1216 C1209 1.403 . S
C1216 C1217 1.399 . S
C1216 H1222 0.929 . S
C1217 C1197 1.449 . S
C1217 C1216 1.399 . S
C1217 H1223 0.930 . S
H1218 C1198 0.931 . S
H1219 C1199 0.930 . S
H1220 C1207 0.931 . S
H1221 C1208 0.929 . S
H1222 C1216 0.929 . S
H1223 C1217 0.930 . S
Mn1224 O1229 2.095 . S
Mn1224 O1239 2.162 . S
Mn1224 O1240 2.297 . S
Mn1224 O1248 2.385 . S
Mn1224 O1249 2.209 . S
Mn1224 O1250 2.094 . S
Mn1225 O1230 2.121 . S
Mn1225 N1232 2.257 . S
Mn1225 N1241 2.282 . S
Mn1225 O1249 2.215 . S
Mn1225 O1251 2.117 . S
C1226 O1248 1.234 . S
C1226 O1249 1.283 . S
C1227 O1239 1.281 . S
C1227 O1240 1.236 . S
C1228 O1250 1.240 . S
C1228 O1251 1.264 . S
O1229 Mn1224 2.095 . S
O1229 C1238 1.250 . S
O1230 Mn1225 2.121 . S
O1230 C1238 1.258 . S
C1231 N1232 1.326 . S
C1231 C1235 1.460 . S
C1231 H1237 0.929 . S
N1232 Mn1225 2.257 . S
N1232 C1231 1.326 . S
N1232 C1236 1.362 . S
C1233 C1234 1.258 . S
C1233 C1236 1.431 . S
C1233 C1253 1.449 . S
C1234 C1233 1.258 . S
C1234 C1235 1.477 . S
C1234 H1254 0.931 . S
C1235 C1231 1.460 . S
C1235 C1234 1.477 . S
C1235 H1255 0.930 . S
C1236 N1232 1.362 . S
C1236 C1233 1.431 . S
C1236 C1246 1.476 . S
H1237 C1231 0.929 . S
C1238 O1229 1.250 . S
C1238 O1230 1.258 . S
O1239 Mn1224 2.162 . S
O1239 C1227 1.281 . S
O1240 Mn1224 2.297 . S
O1240 C1227 1.236 . S
N1241 Mn1225 2.282 . S
N1241 C1242 1.328 . S
N1241 C1246 1.318 . S
C1242 N1241 1.328 . S
C1242 C1243 1.457 . S
C1242 H1247 0.929 . S
C1243 C1242 1.457 . S
C1243 C1244 1.291 . S
C1243 H1256 0.931 . S
C1244 C1243 1.291 . S
C1244 C1245 1.373 . S
C1244 H1257 0.929 . S
C1245 C1244 1.373 . S
C1245 C1246 1.396 . S
C1245 C1252 1.403 . S
C1246 C1236 1.476 . S
C1246 N1241 1.318 . S
C1246 C1245 1.396 . S
H1247 C1242 0.929 . S
O1248 Mn1224 2.385 . S
O1248 C1226 1.234 . S
O1249 Mn1224 2.209 . S
O1249 Mn1225 2.215 . S
O1249 C1226 1.283 . S
O1250 Mn1224 2.094 . S
O1250 C1228 1.240 . S
O1251 Mn1225 2.117 . S
O1251 C1228 1.264 . S
C1252 C1245 1.403 . S
C1252 C1253 1.399 . S
C1252 H1258 0.929 . S
C1253 C1233 1.449 . S
C1253 C1252 1.399 . S
C1253 H1259 0.930 . S
H1254 C1234 0.931 . S
H1255 C1235 0.930 . S
H1256 C1243 0.931 . S
H1257 C1244 0.929 . S
H1258 C1252 0.929 . S
H1259 C1253 0.930 . S
Mn1260 O1265 2.095 . S
Mn1260 O1275 2.162 . S
Mn1260 O1276 2.297 . S
Mn1260 O1284 2.385 . S
Mn1260 O1285 2.209 . S
Mn1260 O1286 2.094 . S
Mn1261 O1266 2.121 . S
Mn1261 N1268 2.257 . S
Mn1261 N1277 2.282 . S
Mn1261 O1285 2.215 . S
Mn1261 O1287 2.117 . S
C1262 O1284 1.234 . S
C1262 O1285 1.283 . S
C1263 O1275 1.281 . S
C1263 O1276 1.236 . S
C1264 O1286 1.240 . S
C1264 O1287 1.264 . S
O1265 Mn1260 2.095 . S
O1265 C1274 1.250 . S
O1266 Mn1261 2.121 . S
O1266 C1274 1.258 . S
C1267 N1268 1.326 . S
C1267 C1271 1.460 . S
C1267 H1273 0.929 . S
N1268 Mn1261 2.257 . S
N1268 C1267 1.326 . S
N1268 C1272 1.362 . S
C1269 C1270 1.258 . S
C1269 C1272 1.431 . S
C1269 C1289 1.449 . S
C1270 C1269 1.258 . S
C1270 C1271 1.477 . S
C1270 H1290 0.931 . S
C1271 C1267 1.460 . S
C1271 C1270 1.477 . S
C1271 H1291 0.930 . S
C1272 N1268 1.362 . S
C1272 C1269 1.431 . S
C1272 C1282 1.476 . S
H1273 C1267 0.929 . S
C1274 O1265 1.250 . S
C1274 O1266 1.258 . S
O1275 Mn1260 2.162 . S
O1275 C1263 1.281 . S
O1276 Mn1260 2.297 . S
O1276 C1263 1.236 . S
N1277 Mn1261 2.282 . S
N1277 C1278 1.328 . S
N1277 C1282 1.318 . S
C1278 N1277 1.328 . S
C1278 C1279 1.457 . S
C1278 H1283 0.929 . S
C1279 C1278 1.457 . S
C1279 C1280 1.291 . S
C1279 H1292 0.931 . S
C1280 C1279 1.291 . S
C1280 C1281 1.373 . S
C1280 H1293 0.929 . S
C1281 C1280 1.373 . S
C1281 C1282 1.396 . S
C1281 C1288 1.403 . S
C1282 C1272 1.476 . S
C1282 N1277 1.318 . S
C1282 C1281 1.396 . S
H1283 C1278 0.929 . S
O1284 Mn1260 2.385 . S
O1284 C1262 1.234 . S
O1285 Mn1260 2.209 . S
O1285 Mn1261 2.215 . S
O1285 C1262 1.283 . S
O1286 Mn1260 2.094 . S
O1286 C1264 1.240 . S
O1287 Mn1261 2.117 . S
O1287 C1264 1.264 . S
C1288 C1281 1.403 . S
C1288 C1289 1.399 . S
C1288 H1294 0.929 . S
C1289 C1269 1.449 . S
C1289 C1288 1.399 . S
C1289 H1295 0.930 . S
H1290 C1270 0.931 . S
H1291 C1271 0.930 . S
H1292 C1279 0.931 . S
H1293 C1280 0.929 . S
H1294 C1288 0.929 . S
H1295 C1289 0.930 . S
Mn1296 O1301 2.095 . S
Mn1296 O1311 2.162 1_556 S
Mn1296 O1312 2.297 . S
Mn1296 O1320 2.385 . S
Mn1296 O1321 2.209 . S
Mn1296 O1322 2.094 . S
Mn1297 O1302 2.121 . S
Mn1297 N1304 2.257 . S
Mn1297 N1313 2.282 . S
Mn1297 O1321 2.215 . S
Mn1297 O1323 2.117 . S
C1298 O1320 1.234 . S
C1298 O1321 1.283 . S
C1299 O1311 1.279 1_556 S
C1299 O1312 1.240 . S
C1300 O1322 1.240 . S
C1300 O1323 1.264 . S
O1301 Mn1296 2.095 . S
O1301 C1310 1.250 . S
O1302 Mn1297 2.121 . S
O1302 C1310 1.258 . S
C1303 N1304 1.326 . S
C1303 C1307 1.460 . S
C1303 H1309 0.929 . S
N1304 Mn1297 2.257 . S
N1304 C1303 1.326 . S
N1304 C1308 1.362 . S
C1305 C1306 1.258 . S
C1305 C1308 1.431 . S
C1305 C1325 1.449 . S
C1306 C1305 1.258 . S
C1306 C1307 1.477 . S
C1306 H1326 0.931 . S
C1307 C1303 1.460 . S
C1307 C1306 1.477 . S
C1307 H1327 0.930 . S
C1308 N1304 1.362 . S
C1308 C1305 1.431 . S
C1308 C1318 1.476 . S
H1309 C1303 0.929 . S
C1310 O1301 1.250 . S
C1310 O1302 1.258 . S
O1311 Mn1296 2.162 1_554 S
O1311 C1299 1.279 1_554 S
O1312 Mn1296 2.297 . S
O1312 C1299 1.240 . S
N1313 Mn1297 2.282 . S
N1313 C1314 1.328 . S
N1313 C1318 1.318 . S
C1314 N1313 1.328 . S
C1314 C1315 1.457 . S
C1314 H1319 0.929 . S
C1315 C1314 1.457 . S
C1315 C1316 1.291 . S
C1315 H1328 0.931 . S
C1316 C1315 1.291 . S
C1316 C1317 1.373 . S
C1316 H1329 0.929 . S
C1317 C1316 1.373 . S
C1317 C1318 1.396 . S
C1317 C1324 1.403 . S
C1318 C1308 1.476 . S
C1318 N1313 1.318 . S
C1318 C1317 1.396 . S
H1319 C1314 0.929 . S
O1320 Mn1296 2.385 . S
O1320 C1298 1.234 . S
O1321 Mn1296 2.209 . S
O1321 Mn1297 2.215 . S
O1321 C1298 1.283 . S
O1322 Mn1296 2.094 . S
O1322 C1300 1.240 . S
O1323 Mn1297 2.117 . S
O1323 C1300 1.264 . S
C1324 C1317 1.403 . S
C1324 C1325 1.399 . S
C1324 H1330 0.929 . S
C1325 C1305 1.449 . S
C1325 C1324 1.399 . S
C1325 H1331 0.930 . S
H1326 C1306 0.931 . S
H1327 C1307 0.930 . S
H1328 C1315 0.931 . S
H1329 C1316 0.929 . S
H1330 C1324 0.929 . S
H1331 C1325 0.930 . S
Mn1332 O1337 2.095 . S
Mn1332 O1347 2.162 . S
Mn1332 O1348 2.297 . S
Mn1332 O1356 2.385 . S
Mn1332 O1357 2.209 . S
Mn1332 O1358 2.094 . S
Mn1333 O1338 2.121 . S
Mn1333 N1340 2.257 . S
Mn1333 N1349 2.282 . S
Mn1333 O1357 2.215 . S
Mn1333 O1359 2.117 . S
C1334 O1356 1.234 . S
C1334 O1357 1.283 . S
C1335 O1347 1.281 . S
C1335 O1348 1.236 . S
C1336 O1358 1.240 . S
C1336 O1359 1.264 . S
O1337 Mn1332 2.095 . S
O1337 C1346 1.250 . S
O1338 Mn1333 2.121 . S
O1338 C1346 1.258 . S
C1339 N1340 1.326 . S
C1339 C1343 1.460 . S
C1339 H1345 0.929 . S
N1340 Mn1333 2.257 . S
N1340 C1339 1.326 . S
N1340 C1344 1.362 . S
C1341 C1342 1.258 . S
C1341 C1344 1.431 . S
C1341 C1361 1.449 . S
C1342 C1341 1.258 . S
C1342 C1343 1.477 . S
C1342 H1362 0.931 . S
C1343 C1339 1.460 . S
C1343 C1342 1.477 . S
C1343 H1363 0.930 . S
C1344 N1340 1.362 . S
C1344 C1341 1.431 . S
C1344 C1354 1.476 . S
H1345 C1339 0.929 . S
C1346 O1337 1.250 . S
C1346 O1338 1.258 . S
O1347 Mn1332 2.162 . S
O1347 C1335 1.281 . S
O1348 Mn1332 2.297 . S
O1348 C1335 1.236 . S
N1349 Mn1333 2.282 . S
N1349 C1350 1.328 . S
N1349 C1354 1.318 . S
C1350 N1349 1.328 . S
C1350 C1351 1.457 . S
C1350 H1355 0.929 . S
C1351 C1350 1.457 . S
C1351 C1352 1.291 . S
C1351 H1364 0.931 . S
C1352 C1351 1.291 . S
C1352 C1353 1.373 . S
C1352 H1365 0.929 . S
C1353 C1352 1.373 . S
C1353 C1354 1.396 . S
C1353 C1360 1.403 . S
C1354 C1344 1.476 . S
C1354 N1349 1.318 . S
C1354 C1353 1.396 . S
H1355 C1350 0.929 . S
O1356 Mn1332 2.385 . S
O1356 C1334 1.234 . S
O1357 Mn1332 2.209 . S
O1357 Mn1333 2.215 . S
O1357 C1334 1.283 . S
O1358 Mn1332 2.094 . S
O1358 C1336 1.240 . S
O1359 Mn1333 2.117 . S
O1359 C1336 1.264 . S
C1360 C1353 1.403 . S
C1360 C1361 1.399 . S
C1360 H1366 0.929 . S
C1361 C1341 1.449 . S
C1361 C1360 1.399 . S
C1361 H1367 0.930 . S
H1362 C1342 0.931 . S
H1363 C1343 0.930 . S
H1364 C1351 0.931 . S
H1365 C1352 0.929 . S
H1366 C1360 0.929 . S
H1367 C1361 0.930 . S
Mn1368 O1373 2.095 . S
Mn1368 O1383 2.162 . S
Mn1368 O1384 2.297 . S
Mn1368 O1392 2.385 . S
Mn1368 O1393 2.209 . S
Mn1368 O1394 2.094 . S
Mn1369 O1374 2.121 . S
Mn1369 N1376 2.257 . S
Mn1369 N1385 2.282 . S
Mn1369 O1393 2.215 . S
Mn1369 O1395 2.117 . S
C1370 O1392 1.234 . S
C1370 O1393 1.283 . S
C1371 O1383 1.281 . S
C1371 O1384 1.236 . S
C1372 O1394 1.240 . S
C1372 O1395 1.264 . S
O1373 Mn1368 2.095 . S
O1373 C1382 1.250 . S
O1374 Mn1369 2.121 . S
O1374 C1382 1.258 . S
C1375 N1376 1.326 . S
C1375 C1379 1.460 . S
C1375 H1381 0.929 . S
N1376 Mn1369 2.257 . S
N1376 C1375 1.326 . S
N1376 C1380 1.362 . S
C1377 C1378 1.258 . S
C1377 C1380 1.431 . S
C1377 C1397 1.449 . S
C1378 C1377 1.258 . S
C1378 C1379 1.477 . S
C1378 H1398 0.931 . S
C1379 C1375 1.460 . S
C1379 C1378 1.477 . S
C1379 H1399 0.930 . S
C1380 N1376 1.362 . S
C1380 C1377 1.431 . S
C1380 C1390 1.476 . S
H1381 C1375 0.929 . S
C1382 O1373 1.250 . S
C1382 O1374 1.258 . S
O1383 Mn1368 2.162 . S
O1383 C1371 1.281 . S
O1384 Mn1368 2.297 . S
O1384 C1371 1.236 . S
N1385 Mn1369 2.282 . S
N1385 C1386 1.328 . S
N1385 C1390 1.318 . S
C1386 N1385 1.328 . S
C1386 C1387 1.457 . S
C1386 H1391 0.929 . S
C1387 C1386 1.457 . S
C1387 C1388 1.291 . S
C1387 H1400 0.931 . S
C1388 C1387 1.291 . S
C1388 C1389 1.373 . S
C1388 H1401 0.929 . S
C1389 C1388 1.373 . S
C1389 C1390 1.396 . S
C1389 C1396 1.403 . S
C1390 C1380 1.476 . S
C1390 N1385 1.318 . S
C1390 C1389 1.396 . S
H1391 C1386 0.929 . S
O1392 Mn1368 2.385 . S
O1392 C1370 1.234 . S
O1393 Mn1368 2.209 . S
O1393 Mn1369 2.215 . S
O1393 C1370 1.283 . S
O1394 Mn1368 2.094 . S
O1394 C1372 1.240 . S
O1395 Mn1369 2.117 . S
O1395 C1372 1.264 . S
C1396 C1389 1.403 . S
C1396 C1397 1.399 . S
C1396 H1402 0.929 . S
C1397 C1377 1.449 . S
C1397 C1396 1.399 . S
C1397 H1403 0.930 . S
H1398 C1378 0.931 . S
H1399 C1379 0.930 . S
H1400 C1387 0.931 . S
H1401 C1388 0.929 . S
H1402 C1396 0.929 . S
H1403 C1397 0.930 . S
Mn1404 O1409 2.095 . S
Mn1404 O1419 2.162 . S
Mn1404 O1420 2.297 . S
Mn1404 O1428 2.385 . S
Mn1404 O1429 2.209 . S
Mn1404 O1430 2.094 . S
Mn1405 O1410 2.121 . S
Mn1405 N1412 2.257 . S
Mn1405 N1421 2.282 . S
Mn1405 O1429 2.215 . S
Mn1405 O1431 2.117 . S
C1406 O1428 1.234 . S
C1406 O1429 1.283 . S
C1407 O1419 1.281 . S
C1407 O1420 1.236 . S
C1408 O1430 1.240 . S
C1408 O1431 1.264 . S
O1409 Mn1404 2.095 . S
O1409 C1418 1.250 . S
O1410 Mn1405 2.121 . S
O1410 C1418 1.258 . S
C1411 N1412 1.326 . S
C1411 C1415 1.460 . S
C1411 H1417 0.929 . S
N1412 Mn1405 2.257 . S
N1412 C1411 1.326 . S
N1412 C1416 1.362 . S
C1413 C1414 1.258 . S
C1413 C1416 1.431 . S
C1413 C1433 1.449 . S
C1414 C1413 1.258 . S
C1414 C1415 1.477 . S
C1414 H1434 0.931 . S
C1415 C1411 1.460 . S
C1415 C1414 1.477 . S
C1415 H1435 0.930 . S
C1416 N1412 1.362 . S
C1416 C1413 1.431 . S
C1416 C1426 1.476 . S
H1417 C1411 0.929 . S
C1418 O1409 1.250 . S
C1418 O1410 1.258 . S
O1419 Mn1404 2.162 . S
O1419 C1407 1.281 . S
O1420 Mn1404 2.297 . S
O1420 C1407 1.236 . S
N1421 Mn1405 2.282 . S
N1421 C1422 1.328 . S
N1421 C1426 1.318 . S
C1422 N1421 1.328 . S
C1422 C1423 1.457 . S
C1422 H1427 0.929 . S
C1423 C1422 1.457 . S
C1423 C1424 1.291 . S
C1423 H1436 0.931 . S
C1424 C1423 1.291 . S
C1424 C1425 1.373 . S
C1424 H1437 0.929 . S
C1425 C1424 1.373 . S
C1425 C1426 1.396 . S
C1425 C1432 1.403 . S
C1426 C1416 1.476 . S
C1426 N1421 1.318 . S
C1426 C1425 1.396 . S
H1427 C1422 0.929 . S
O1428 Mn1404 2.385 . S
O1428 C1406 1.234 . S
O1429 Mn1404 2.209 . S
O1429 Mn1405 2.215 . S
O1429 C1406 1.283 . S
O1430 Mn1404 2.094 . S
O1430 C1408 1.240 . S
O1431 Mn1405 2.117 . S
O1431 C1408 1.264 . S
C1432 C1425 1.403 . S
C1432 C1433 1.399 . S
C1432 H1438 0.929 . S
C1433 C1413 1.449 . S
C1433 C1432 1.399 . S
C1433 H1439 0.930 . S
H1434 C1414 0.931 . S
H1435 C1415 0.930 . S
H1436 C1423 0.931 . S
H1437 C1424 0.929 . S
H1438 C1432 0.929 . S
H1439 C1433 0.930 . S
Mn1440 O1445 2.095 . S
Mn1440 O1455 2.162 . S
Mn1440 O1456 2.297 . S
Mn1440 O1464 2.385 . S
Mn1440 O1465 2.209 . S
Mn1440 O1466 2.094 . S
Mn1441 O1446 2.121 . S
Mn1441 N1448 2.257 . S
Mn1441 N1457 2.282 . S
Mn1441 O1465 2.215 . S
Mn1441 O1467 2.117 . S
C1442 O1464 1.234 . S
C1442 O1465 1.283 . S
C1443 O1455 1.281 . S
C1443 O1456 1.236 . S
C1444 O1466 1.240 . S
C1444 O1467 1.264 . S
O1445 Mn1440 2.095 . S
O1445 C1454 1.250 . S
O1446 Mn1441 2.121 . S
O1446 C1454 1.258 . S
C1447 N1448 1.326 . S
C1447 C1451 1.460 . S
C1447 H1453 0.929 . S
N1448 Mn1441 2.257 . S
N1448 C1447 1.326 . S
N1448 C1452 1.362 . S
C1449 C1450 1.258 . S
C1449 C1452 1.431 . S
C1449 C1469 1.449 . S
C1450 C1449 1.258 . S
C1450 C1451 1.477 . S
C1450 H1470 0.931 . S
C1451 C1447 1.460 . S
C1451 C1450 1.477 . S
C1451 H1471 0.930 . S
C1452 N1448 1.362 . S
C1452 C1449 1.431 . S
C1452 C1462 1.476 . S
H1453 C1447 0.929 . S
C1454 O1445 1.250 . S
C1454 O1446 1.258 . S
O1455 Mn1440 2.162 . S
O1455 C1443 1.281 . S
O1456 Mn1440 2.297 . S
O1456 C1443 1.236 . S
N1457 Mn1441 2.282 . S
N1457 C1458 1.328 . S
N1457 C1462 1.318 . S
C1458 N1457 1.328 . S
C1458 C1459 1.457 . S
C1458 H1463 0.929 . S
C1459 C1458 1.457 . S
C1459 C1460 1.291 . S
C1459 H1472 0.931 . S
C1460 C1459 1.291 . S
C1460 C1461 1.373 . S
C1460 H1473 0.929 . S
C1461 C1460 1.373 . S
C1461 C1462 1.396 . S
C1461 C1468 1.403 . S
C1462 C1452 1.476 . S
C1462 N1457 1.318 . S
C1462 C1461 1.396 . S
H1463 C1458 0.929 . S
O1464 Mn1440 2.385 . S
O1464 C1442 1.234 . S
O1465 Mn1440 2.209 . S
O1465 Mn1441 2.215 . S
O1465 C1442 1.283 . S
O1466 Mn1440 2.094 . S
O1466 C1444 1.240 . S
O1467 Mn1441 2.117 . S
O1467 C1444 1.264 . S
C1468 C1461 1.403 . S
C1468 C1469 1.399 . S
C1468 H1474 0.929 . S
C1469 C1449 1.449 . S
C1469 C1468 1.399 . S
C1469 H1475 0.930 . S
H1470 C1450 0.931 . S
H1471 C1451 0.930 . S
H1472 C1459 0.931 . S
H1473 C1460 0.929 . S
H1474 C1468 0.929 . S
H1475 C1469 0.930 . S
Mn1476 O1481 2.095 . S
Mn1476 O1491 2.162 1_455 S
Mn1476 O1492 2.297 . S
Mn1476 O1500 2.385 . S
Mn1476 O1501 2.209 . S
Mn1476 O1502 2.094 . S
Mn1477 O1482 2.121 . S
Mn1477 N1484 2.257 . S
Mn1477 N1493 2.282 . S
Mn1477 O1501 2.215 . S
Mn1477 O1503 2.117 . S
C1478 O1500 1.234 . S
C1478 O1501 1.283 . S
C1479 O1491 1.279 1_455 S
C1479 O1492 1.239 . S
C1480 O1502 1.240 . S
C1480 O1503 1.264 . S
O1481 Mn1476 2.095 . S
O1481 C1490 1.250 . S
O1482 Mn1477 2.121 . S
O1482 C1490 1.258 . S
C1483 N1484 1.326 . S
C1483 C1487 1.460 . S
C1483 H1489 0.929 . S
N1484 Mn1477 2.257 . S
N1484 C1483 1.326 . S
N1484 C1488 1.362 . S
C1485 C1486 1.258 . S
C1485 C1488 1.431 . S
C1485 C1505 1.449 . S
C1486 C1485 1.258 . S
C1486 C1487 1.477 . S
C1486 H1506 0.931 . S
C1487 C1483 1.460 . S
C1487 C1486 1.477 . S
C1487 H1507 0.930 . S
C1488 N1484 1.362 . S
C1488 C1485 1.431 . S
C1488 C1498 1.476 . S
H1489 C1483 0.929 . S
C1490 O1481 1.250 . S
C1490 O1482 1.258 . S
O1491 Mn1476 2.162 1_655 S
O1491 C1479 1.279 1_655 S
O1492 Mn1476 2.297 . S
O1492 C1479 1.239 . S
N1493 Mn1477 2.282 . S
N1493 C1494 1.328 . S
N1493 C1498 1.318 . S
C1494 N1493 1.328 . S
C1494 C1495 1.457 . S
C1494 H1499 0.929 . S
C1495 C1494 1.457 . S
C1495 C1496 1.291 . S
C1495 H1508 0.931 . S
C1496 C1495 1.291 . S
C1496 C1497 1.373 . S
C1496 H1509 0.929 . S
C1497 C1496 1.373 . S
C1497 C1498 1.396 . S
C1497 C1504 1.403 . S
C1498 C1488 1.476 . S
C1498 N1493 1.318 . S
C1498 C1497 1.396 . S
H1499 C1494 0.929 . S
O1500 Mn1476 2.385 . S
O1500 C1478 1.234 . S
O1501 Mn1476 2.209 . S
O1501 Mn1477 2.215 . S
O1501 C1478 1.283 . S
O1502 Mn1476 2.094 . S
O1502 C1480 1.240 . S
O1503 Mn1477 2.117 . S
O1503 C1480 1.264 . S
C1504 C1497 1.403 . S
C1504 C1505 1.399 . S
C1504 H1510 0.929 . S
C1505 C1485 1.449 . S
C1505 C1504 1.399 . S
C1505 H1511 0.930 . S
H1506 C1486 0.931 . S
H1507 C1487 0.930 . S
H1508 C1495 0.931 . S
H1509 C1496 0.929 . S
H1510 C1504 0.929 . S
H1511 C1505 0.930 . S
Mn1512 O1517 2.095 . S
Mn1512 O1527 2.162 . S
Mn1512 O1528 2.297 . S
Mn1512 O1536 2.385 . S
Mn1512 O1537 2.209 . S
Mn1512 O1538 2.094 . S
Mn1513 O1518 2.121 . S
Mn1513 N1520 2.257 . S
Mn1513 N1529 2.282 . S
Mn1513 O1537 2.215 . S
Mn1513 O1539 2.117 . S
C1514 O1536 1.234 . S
C1514 O1537 1.283 . S
C1515 O1527 1.281 . S
C1515 O1528 1.236 . S
C1516 O1538 1.240 . S
C1516 O1539 1.264 . S
O1517 Mn1512 2.095 . S
O1517 C1526 1.250 . S
O1518 Mn1513 2.121 . S
O1518 C1526 1.258 . S
C1519 N1520 1.326 . S
C1519 C1523 1.460 . S
C1519 H1525 0.929 . S
N1520 Mn1513 2.257 . S
N1520 C1519 1.326 . S
N1520 C1524 1.362 . S
C1521 C1522 1.258 . S
C1521 C1524 1.431 . S
C1521 C1541 1.449 . S
C1522 C1521 1.258 . S
C1522 C1523 1.477 . S
C1522 H1542 0.931 . S
C1523 C1519 1.460 . S
C1523 C1522 1.477 . S
C1523 H1543 0.930 . S
C1524 N1520 1.362 . S
C1524 C1521 1.431 . S
C1524 C1534 1.476 . S
H1525 C1519 0.929 . S
C1526 O1517 1.250 . S
C1526 O1518 1.258 . S
O1527 Mn1512 2.162 . S
O1527 C1515 1.281 . S
O1528 Mn1512 2.297 . S
O1528 C1515 1.236 . S
N1529 Mn1513 2.282 . S
N1529 C1530 1.328 . S
N1529 C1534 1.318 . S
C1530 N1529 1.328 . S
C1530 C1531 1.457 . S
C1530 H1535 0.929 . S
C1531 C1530 1.457 . S
C1531 C1532 1.291 . S
C1531 H1544 0.931 . S
C1532 C1531 1.291 . S
C1532 C1533 1.373 . S
C1532 H1545 0.929 . S
C1533 C1532 1.373 . S
C1533 C1534 1.396 . S
C1533 C1540 1.403 . S
C1534 C1524 1.476 . S
C1534 N1529 1.318 . S
C1534 C1533 1.396 . S
H1535 C1530 0.929 . S
O1536 Mn1512 2.385 . S
O1536 C1514 1.234 . S
O1537 Mn1512 2.209 . S
O1537 Mn1513 2.215 . S
O1537 C1514 1.283 . S
O1538 Mn1512 2.094 . S
O1538 C1516 1.240 . S
O1539 Mn1513 2.117 . S
O1539 C1516 1.264 . S
C1540 C1533 1.403 . S
C1540 C1541 1.399 . S
C1540 H1546 0.929 . S
C1541 C1521 1.449 . S
C1541 C1540 1.399 . S
C1541 H1547 0.930 . S
H1542 C1522 0.931 . S
H1543 C1523 0.930 . S
H1544 C1531 0.931 . S
H1545 C1532 0.929 . S
H1546 C1540 0.929 . S
H1547 C1541 0.930 . S
Mn1548 O1553 2.095 . S
Mn1548 O1563 2.162 1_655 S
Mn1548 O1564 2.297 . S
Mn1548 O1572 2.385 . S
Mn1548 O1573 2.209 . S
Mn1548 O1574 2.094 . S
Mn1549 O1554 2.121 . S
Mn1549 N1556 2.257 . S
Mn1549 N1565 2.282 . S
Mn1549 O1573 2.215 . S
Mn1549 O1575 2.117 . S
C1550 O1572 1.234 . S
C1550 O1573 1.283 . S
C1551 O1563 1.279 1_655 S
C1551 O1564 1.240 . S
C1552 O1574 1.240 . S
C1552 O1575 1.264 . S
O1553 Mn1548 2.095 . S
O1553 C1562 1.250 . S
O1554 Mn1549 2.121 . S
O1554 C1562 1.258 . S
C1555 N1556 1.326 . S
C1555 C1559 1.460 . S
C1555 H1561 0.929 . S
N1556 Mn1549 2.257 . S
N1556 C1555 1.326 . S
N1556 C1560 1.362 . S
C1557 C1558 1.258 . S
C1557 C1560 1.431 . S
C1557 C1577 1.449 . S
C1558 C1557 1.258 . S
C1558 C1559 1.477 . S
C1558 H1578 0.931 . S
C1559 C1555 1.460 . S
C1559 C1558 1.477 . S
C1559 H1579 0.930 . S
C1560 N1556 1.362 . S
C1560 C1557 1.431 . S
C1560 C1570 1.476 . S
H1561 C1555 0.929 . S
C1562 O1553 1.250 . S
C1562 O1554 1.258 . S
O1563 Mn1548 2.162 1_455 S
O1563 C1551 1.279 1_455 S
O1564 Mn1548 2.297 . S
O1564 C1551 1.240 . S
N1565 Mn1549 2.282 . S
N1565 C1566 1.328 . S
N1565 C1570 1.318 . S
C1566 N1565 1.328 . S
C1566 C1567 1.457 . S
C1566 H1571 0.929 . S
C1567 C1566 1.457 . S
C1567 C1568 1.291 . S
C1567 H1580 0.931 . S
C1568 C1567 1.291 . S
C1568 C1569 1.373 . S
C1568 H1581 0.929 . S
C1569 C1568 1.373 . S
C1569 C1570 1.396 . S
C1569 C1576 1.403 . S
C1570 C1560 1.476 . S
C1570 N1565 1.318 . S
C1570 C1569 1.396 . S
H1571 C1566 0.929 . S
O1572 Mn1548 2.385 . S
O1572 C1550 1.234 . S
O1573 Mn1548 2.209 . S
O1573 Mn1549 2.215 . S
O1573 C1550 1.283 . S
O1574 Mn1548 2.094 . S
O1574 C1552 1.240 . S
O1575 Mn1549 2.117 . S
O1575 C1552 1.264 . S
C1576 C1569 1.403 . S
C1576 C1577 1.399 . S
C1576 H1582 0.929 . S
C1577 C1557 1.449 . S
C1577 C1576 1.399 . S
C1577 H1583 0.930 . S
H1578 C1558 0.931 . S
H1579 C1559 0.930 . S
H1580 C1567 0.931 . S
H1581 C1568 0.929 . S
H1582 C1576 0.929 . S
H1583 C1577 0.930 . S
Mn1584 O1589 2.095 . S
Mn1584 O1599 2.162 . S
Mn1584 O1600 2.297 . S
Mn1584 O1608 2.385 . S
Mn1584 O1609 2.209 . S
Mn1584 O1610 2.094 . S
Mn1585 O1590 2.121 . S
Mn1585 N1592 2.257 . S
Mn1585 N1601 2.282 . S
Mn1585 O1609 2.215 . S
Mn1585 O1611 2.117 . S
C1586 O1608 1.234 . S
C1586 O1609 1.283 . S
C1587 O1599 1.281 . S
C1587 O1600 1.236 . S
C1588 O1610 1.240 . S
C1588 O1611 1.264 . S
O1589 Mn1584 2.095 . S
O1589 C1598 1.250 . S
O1590 Mn1585 2.121 . S
O1590 C1598 1.258 . S
C1591 N1592 1.326 . S
C1591 C1595 1.460 . S
C1591 H1597 0.929 . S
N1592 Mn1585 2.257 . S
N1592 C1591 1.326 . S
N1592 C1596 1.362 . S
C1593 C1594 1.258 . S
C1593 C1596 1.431 . S
C1593 C1613 1.449 . S
C1594 C1593 1.258 . S
C1594 C1595 1.477 . S
C1594 H1614 0.931 . S
C1595 C1591 1.460 . S
C1595 C1594 1.477 . S
C1595 H1615 0.930 . S
C1596 N1592 1.362 . S
C1596 C1593 1.431 . S
C1596 C1606 1.476 . S
H1597 C1591 0.929 . S
C1598 O1589 1.250 . S
C1598 O1590 1.258 . S
O1599 Mn1584 2.162 . S
O1599 C1587 1.281 . S
O1600 Mn1584 2.297 . S
O1600 C1587 1.236 . S
N1601 Mn1585 2.282 . S
N1601 C1602 1.328 . S
N1601 C1606 1.318 . S
C1602 N1601 1.328 . S
C1602 C1603 1.457 . S
C1602 H1607 0.929 . S
C1603 C1602 1.457 . S
C1603 C1604 1.291 . S
C1603 H1616 0.931 . S
C1604 C1603 1.291 . S
C1604 C1605 1.373 . S
C1604 H1617 0.929 . S
C1605 C1604 1.373 . S
C1605 C1606 1.396 . S
C1605 C1612 1.403 . S
C1606 C1596 1.476 . S
C1606 N1601 1.318 . S
C1606 C1605 1.396 . S
H1607 C1602 0.929 . S
O1608 Mn1584 2.385 . S
O1608 C1586 1.234 . S
O1609 Mn1584 2.209 . S
O1609 Mn1585 2.215 . S
O1609 C1586 1.283 . S
O1610 Mn1584 2.094 . S
O1610 C1588 1.240 . S
O1611 Mn1585 2.117 . S
O1611 C1588 1.264 . S
C1612 C1605 1.403 . S
C1612 C1613 1.399 . S
C1612 H1618 0.929 . S
C1613 C1593 1.449 . S
C1613 C1612 1.399 . S
C1613 H1619 0.930 . S
H1614 C1594 0.931 . S
H1615 C1595 0.930 . S
H1616 C1603 0.931 . S
H1617 C1604 0.929 . S
H1618 C1612 0.929 . S
H1619 C1613 0.930 . S
Mn1620 O1625 2.095 . S
Mn1620 O1635 2.162 . S
Mn1620 O1636 2.297 . S
Mn1620 O1644 2.385 . S
Mn1620 O1645 2.209 . S
Mn1620 O1646 2.094 . S
Mn1621 O1626 2.121 . S
Mn1621 N1628 2.257 . S
Mn1621 N1637 2.282 . S
Mn1621 O1645 2.215 . S
Mn1621 O1647 2.117 . S
C1622 O1644 1.234 . S
C1622 O1645 1.283 . S
C1623 O1635 1.281 . S
C1623 O1636 1.236 . S
C1624 O1646 1.240 . S
C1624 O1647 1.264 . S
O1625 Mn1620 2.095 . S
O1625 C1634 1.250 . S
O1626 Mn1621 2.121 . S
O1626 C1634 1.258 . S
C1627 N1628 1.326 . S
C1627 C1631 1.460 . S
C1627 H1633 0.929 . S
N1628 Mn1621 2.257 . S
N1628 C1627 1.326 . S
N1628 C1632 1.362 . S
C1629 C1630 1.258 . S
C1629 C1632 1.431 . S
C1629 C1649 1.449 . S
C1630 C1629 1.258 . S
C1630 C1631 1.477 . S
C1630 H1650 0.931 . S
C1631 C1627 1.460 . S
C1631 C1630 1.477 . S
C1631 H1651 0.930 . S
C1632 N1628 1.362 . S
C1632 C1629 1.431 . S
C1632 C1642 1.476 . S
H1633 C1627 0.929 . S
C1634 O1625 1.250 . S
C1634 O1626 1.258 . S
O1635 Mn1620 2.162 . S
O1635 C1623 1.281 . S
O1636 Mn1620 2.297 . S
O1636 C1623 1.236 . S
N1637 Mn1621 2.282 . S
N1637 C1638 1.328 . S
N1637 C1642 1.318 . S
C1638 N1637 1.328 . S
C1638 C1639 1.457 . S
C1638 H1643 0.929 . S
C1639 C1638 1.457 . S
C1639 C1640 1.291 . S
C1639 H1652 0.931 . S
C1640 C1639 1.291 . S
C1640 C1641 1.373 . S
C1640 H1653 0.929 . S
C1641 C1640 1.373 . S
C1641 C1642 1.396 . S
C1641 C1648 1.403 . S
C1642 C1632 1.476 . S
C1642 N1637 1.318 . S
C1642 C1641 1.396 . S
H1643 C1638 0.929 . S
O1644 Mn1620 2.385 . S
O1644 C1622 1.234 . S
O1645 Mn1620 2.209 . S
O1645 Mn1621 2.215 . S
O1645 C1622 1.283 . S
O1646 Mn1620 2.094 . S
O1646 C1624 1.240 . S
O1647 Mn1621 2.117 . S
O1647 C1624 1.264 . S
C1648 C1641 1.403 . S
C1648 C1649 1.399 . S
C1648 H1654 0.929 . S
C1649 C1629 1.449 . S
C1649 C1648 1.399 . S
C1649 H1655 0.930 . S
H1650 C1630 0.931 . S
H1651 C1631 0.930 . S
H1652 C1639 0.931 . S
H1653 C1640 0.929 . S
H1654 C1648 0.929 . S
H1655 C1649 0.930 . S
Mn1656 O1661 2.095 . S
Mn1656 O1671 2.162 . S
Mn1656 O1672 2.297 . S
Mn1656 O1680 2.385 . S
Mn1656 O1681 2.209 . S
Mn1656 O1682 2.094 . S
Mn1657 O1662 2.121 . S
Mn1657 N1664 2.257 . S
Mn1657 N1673 2.282 . S
Mn1657 O1681 2.215 . S
Mn1657 O1683 2.117 . S
C1658 O1680 1.234 . S
C1658 O1681 1.283 . S
C1659 O1671 1.281 . S
C1659 O1672 1.236 . S
C1660 O1682 1.240 . S
C1660 O1683 1.264 . S
O1661 Mn1656 2.095 . S
O1661 C1670 1.250 . S
O1662 Mn1657 2.121 . S
O1662 C1670 1.258 . S
C1663 N1664 1.326 . S
C1663 C1667 1.460 . S
C1663 H1669 0.929 . S
N1664 Mn1657 2.257 . S
N1664 C1663 1.326 . S
N1664 C1668 1.362 . S
C1665 C1666 1.258 . S
C1665 C1668 1.431 . S
C1665 C1685 1.449 . S
C1666 C1665 1.258 . S
C1666 C1667 1.477 . S
C1666 H1686 0.931 . S
C1667 C1663 1.460 . S
C1667 C1666 1.477 . S
C1667 H1687 0.930 . S
C1668 N1664 1.362 . S
C1668 C1665 1.431 . S
C1668 C1678 1.476 . S
H1669 C1663 0.929 . S
C1670 O1661 1.250 . S
C1670 O1662 1.258 . S
O1671 Mn1656 2.162 . S
O1671 C1659 1.281 . S
O1672 Mn1656 2.297 . S
O1672 C1659 1.236 . S
N1673 Mn1657 2.282 . S
N1673 C1674 1.328 . S
N1673 C1678 1.318 . S
C1674 N1673 1.328 . S
C1674 C1675 1.457 . S
C1674 H1679 0.929 . S
C1675 C1674 1.457 . S
C1675 C1676 1.291 . S
C1675 H1688 0.931 . S
C1676 C1675 1.291 . S
C1676 C1677 1.373 . S
C1676 H1689 0.929 . S
C1677 C1676 1.373 . S
C1677 C1678 1.396 . S
C1677 C1684 1.403 . S
C1678 C1668 1.476 . S
C1678 N1673 1.318 . S
C1678 C1677 1.396 . S
H1679 C1674 0.929 . S
O1680 Mn1656 2.385 . S
O1680 C1658 1.234 . S
O1681 Mn1656 2.209 . S
O1681 Mn1657 2.215 . S
O1681 C1658 1.283 . S
O1682 Mn1656 2.094 . S
O1682 C1660 1.240 . S
O1683 Mn1657 2.117 . S
O1683 C1660 1.264 . S
C1684 C1677 1.403 . S
C1684 C1685 1.399 . S
C1684 H1690 0.929 . S
C1685 C1665 1.449 . S
C1685 C1684 1.399 . S
C1685 H1691 0.930 . S
H1686 C1666 0.931 . S
H1687 C1667 0.930 . S
H1688 C1675 0.931 . S
H1689 C1676 0.929 . S
H1690 C1684 0.929 . S
H1691 C1685 0.930 . S
Mn1692 O1697 2.095 . S
Mn1692 O1707 2.162 . S
Mn1692 O1708 2.297 . S
Mn1692 O1716 2.385 . S
Mn1692 O1717 2.209 . S
Mn1692 O1718 2.094 . S
Mn1693 O1698 2.121 . S
Mn1693 N1700 2.257 . S
Mn1693 N1709 2.282 . S
Mn1693 O1717 2.215 . S
Mn1693 O1719 2.117 . S
C1694 O1716 1.234 . S
C1694 O1717 1.283 . S
C1695 O1707 1.281 . S
C1695 O1708 1.236 . S
C1696 O1718 1.240 . S
C1696 O1719 1.264 . S
O1697 Mn1692 2.095 . S
O1697 C1706 1.250 . S
O1698 Mn1693 2.121 . S
O1698 C1706 1.258 . S
C1699 N1700 1.326 . S
C1699 C1703 1.460 . S
C1699 H1705 0.929 . S
N1700 Mn1693 2.257 . S
N1700 C1699 1.326 . S
N1700 C1704 1.362 . S
C1701 C1702 1.258 . S
C1701 C1704 1.431 . S
C1701 C1721 1.449 . S
C1702 C1701 1.258 . S
C1702 C1703 1.477 . S
C1702 H1722 0.931 . S
C1703 C1699 1.460 . S
C1703 C1702 1.477 . S
C1703 H1723 0.930 . S
C1704 N1700 1.362 . S
C1704 C1701 1.431 . S
C1704 C1714 1.476 . S
H1705 C1699 0.929 . S
C1706 O1697 1.250 . S
C1706 O1698 1.258 . S
O1707 Mn1692 2.162 . S
O1707 C1695 1.281 . S
O1708 Mn1692 2.297 . S
O1708 C1695 1.236 . S
N1709 Mn1693 2.282 . S
N1709 C1710 1.328 . S
N1709 C1714 1.318 . S
C1710 N1709 1.328 . S
C1710 C1711 1.457 . S
C1710 H1715 0.929 . S
C1711 C1710 1.457 . S
C1711 C1712 1.291 . S
C1711 H1724 0.931 . S
C1712 C1711 1.291 . S
C1712 C1713 1.373 . S
C1712 H1725 0.929 . S
C1713 C1712 1.373 . S
C1713 C1714 1.396 . S
C1713 C1720 1.403 . S
C1714 C1704 1.476 . S
C1714 N1709 1.318 . S
C1714 C1713 1.396 . S
H1715 C1710 0.929 . S
O1716 Mn1692 2.385 . S
O1716 C1694 1.234 . S
O1717 Mn1692 2.209 . S
O1717 Mn1693 2.215 . S
O1717 C1694 1.283 . S
O1718 Mn1692 2.094 . S
O1718 C1696 1.240 . S
O1719 Mn1693 2.117 . S
O1719 C1696 1.264 . S
C1720 C1713 1.403 . S
C1720 C1721 1.399 . S
C1720 H1726 0.929 . S
C1721 C1701 1.449 . S
C1721 C1720 1.399 . S
C1721 H1727 0.930 . S
H1722 C1702 0.931 . S
H1723 C1703 0.930 . S
H1724 C1711 0.931 . S
H1725 C1712 0.929 . S
H1726 C1720 0.929 . S
H1727 C1721 0.930 . S
Mn1728 O1733 2.095 . S
Mn1728 O1743 2.162 . S
Mn1728 O1744 2.297 . S
Mn1728 O1752 2.385 . S
Mn1728 O1753 2.209 . S
Mn1728 O1754 2.094 . S
Mn1729 O1734 2.121 . S
Mn1729 N1736 2.257 . S
Mn1729 N1745 2.282 . S
Mn1729 O1753 2.215 . S
Mn1729 O1755 2.117 . S
C1730 O1752 1.234 . S
C1730 O1753 1.283 . S
C1731 O1743 1.281 . S
C1731 O1744 1.236 . S
C1732 O1754 1.240 . S
C1732 O1755 1.264 . S
O1733 Mn1728 2.095 . S
O1733 C1742 1.250 . S
O1734 Mn1729 2.121 . S
O1734 C1742 1.258 . S
C1735 N1736 1.326 . S
C1735 C1739 1.460 . S
C1735 H1741 0.929 . S
N1736 Mn1729 2.257 . S
N1736 C1735 1.326 . S
N1736 C1740 1.362 . S
C1737 C1738 1.258 . S
C1737 C1740 1.431 . S
C1737 C1757 1.449 . S
C1738 C1737 1.258 . S
C1738 C1739 1.477 . S
C1738 H1758 0.931 . S
C1739 C1735 1.460 . S
C1739 C1738 1.477 . S
C1739 H1759 0.930 . S
C1740 N1736 1.362 . S
C1740 C1737 1.431 . S
C1740 C1750 1.476 . S
H1741 C1735 0.929 . S
C1742 O1733 1.250 . S
C1742 O1734 1.258 . S
O1743 Mn1728 2.162 . S
O1743 C1731 1.281 . S
O1744 Mn1728 2.297 . S
O1744 C1731 1.236 . S
N1745 Mn1729 2.282 . S
N1745 C1746 1.328 . S
N1745 C1750 1.318 . S
C1746 N1745 1.328 . S
C1746 C1747 1.457 . S
C1746 H1751 0.929 . S
C1747 C1746 1.457 . S
C1747 C1748 1.291 . S
C1747 H1760 0.931 . S
C1748 C1747 1.291 . S
C1748 C1749 1.373 . S
C1748 H1761 0.929 . S
C1749 C1748 1.373 . S
C1749 C1750 1.396 . S
C1749 C1756 1.403 . S
C1750 C1740 1.476 . S
C1750 N1745 1.318 . S
C1750 C1749 1.396 . S
H1751 C1746 0.929 . S
O1752 Mn1728 2.385 . S
O1752 C1730 1.234 . S
O1753 Mn1728 2.209 . S
O1753 Mn1729 2.215 . S
O1753 C1730 1.283 . S
O1754 Mn1728 2.094 . S
O1754 C1732 1.240 . S
O1755 Mn1729 2.117 . S
O1755 C1732 1.264 . S
C1756 C1749 1.403 . S
C1756 C1757 1.399 . S
C1756 H1762 0.929 . S
C1757 C1737 1.449 . S
C1757 C1756 1.399 . S
C1757 H1763 0.930 . S
H1758 C1738 0.931 . S
H1759 C1739 0.930 . S
H1760 C1747 0.931 . S
H1761 C1748 0.929 . S
H1762 C1756 0.929 . S
H1763 C1757 0.930 . S
Mn1764 O1769 2.095 . S
Mn1764 O1779 2.162 . S
Mn1764 O1780 2.297 . S
Mn1764 O1788 2.385 . S
Mn1764 O1789 2.209 . S
Mn1764 O1790 2.094 . S
Mn1765 O1770 2.121 . S
Mn1765 N1772 2.257 . S
Mn1765 N1781 2.282 . S
Mn1765 O1789 2.215 . S
Mn1765 O1791 2.117 . S
C1766 O1788 1.234 . S
C1766 O1789 1.283 . S
C1767 O1779 1.281 . S
C1767 O1780 1.236 . S
C1768 O1790 1.240 . S
C1768 O1791 1.264 . S
O1769 Mn1764 2.095 . S
O1769 C1778 1.250 . S
O1770 Mn1765 2.121 . S
O1770 C1778 1.258 . S
C1771 N1772 1.326 . S
C1771 C1775 1.460 . S
C1771 H1777 0.929 . S
N1772 Mn1765 2.257 . S
N1772 C1771 1.326 . S
N1772 C1776 1.362 . S
C1773 C1774 1.258 . S
C1773 C1776 1.431 . S
C1773 C1793 1.449 . S
C1774 C1773 1.258 . S
C1774 C1775 1.477 . S
C1774 H1794 0.931 . S
C1775 C1771 1.460 . S
C1775 C1774 1.477 . S
C1775 H1795 0.930 . S
C1776 N1772 1.362 . S
C1776 C1773 1.431 . S
C1776 C1786 1.476 . S
H1777 C1771 0.929 . S
C1778 O1769 1.250 . S
C1778 O1770 1.258 . S
O1779 Mn1764 2.162 . S
O1779 C1767 1.281 . S
O1780 Mn1764 2.297 . S
O1780 C1767 1.236 . S
N1781 Mn1765 2.282 . S
N1781 C1782 1.328 . S
N1781 C1786 1.318 . S
C1782 N1781 1.328 . S
C1782 C1783 1.457 . S
C1782 H1787 0.929 . S
C1783 C1782 1.457 . S
C1783 C1784 1.291 . S
C1783 H1796 0.931 . S
C1784 C1783 1.291 . S
C1784 C1785 1.373 . S
C1784 H1797 0.929 . S
C1785 C1784 1.373 . S
C1785 C1786 1.396 . S
C1785 C1792 1.403 . S
C1786 C1776 1.476 . S
C1786 N1781 1.318 . S
C1786 C1785 1.396 . S
H1787 C1782 0.929 . S
O1788 Mn1764 2.385 . S
O1788 C1766 1.234 . S
O1789 Mn1764 2.209 . S
O1789 Mn1765 2.215 . S
O1789 C1766 1.283 . S
O1790 Mn1764 2.094 . S
O1790 C1768 1.240 . S
O1791 Mn1765 2.117 . S
O1791 C1768 1.264 . S
C1792 C1785 1.403 . S
C1792 C1793 1.399 . S
C1792 H1798 0.929 . S
C1793 C1773 1.449 . S
C1793 C1792 1.399 . S
C1793 H1799 0.930 . S
H1794 C1774 0.931 . S
H1795 C1775 0.930 . S
H1796 C1783 0.931 . S
H1797 C1784 0.929 . S
H1798 C1792 0.929 . S
H1799 C1793 0.930 . S
Mn1800 O1805 2.095 . S
Mn1800 O1815 2.162 1_565 S
Mn1800 O1816 2.297 . S
Mn1800 O1824 2.385 . S
Mn1800 O1825 2.209 . S
Mn1800 O1826 2.094 . S
Mn1801 O1806 2.121 . S
Mn1801 N1808 2.257 . S
Mn1801 N1817 2.282 . S
Mn1801 O1825 2.215 . S
Mn1801 O1827 2.117 . S
C1802 O1824 1.234 . S
C1802 O1825 1.283 . S
C1803 O1815 1.279 1_565 S
C1803 O1816 1.240 . S
C1804 O1826 1.240 . S
C1804 O1827 1.264 . S
O1805 Mn1800 2.095 . S
O1805 C1814 1.250 . S
O1806 Mn1801 2.121 . S
O1806 C1814 1.258 . S
C1807 N1808 1.326 . S
C1807 C1811 1.460 . S
C1807 H1813 0.929 . S
N1808 Mn1801 2.257 . S
N1808 C1807 1.326 . S
N1808 C1812 1.362 . S
C1809 C1810 1.258 . S
C1809 C1812 1.431 . S
C1809 C1829 1.449 . S
C1810 C1809 1.258 . S
C1810 C1811 1.477 . S
C1810 H1830 0.931 . S
C1811 C1807 1.460 . S
C1811 C1810 1.477 . S
C1811 H1831 0.930 . S
C1812 N1808 1.362 . S
C1812 C1809 1.431 . S
C1812 C1822 1.476 . S
H1813 C1807 0.929 . S
C1814 O1805 1.250 . S
C1814 O1806 1.258 . S
O1815 Mn1800 2.162 1_545 S
O1815 C1803 1.279 1_545 S
O1816 Mn1800 2.297 . S
O1816 C1803 1.240 . S
N1817 Mn1801 2.282 . S
N1817 C1818 1.328 . S
N1817 C1822 1.318 . S
C1818 N1817 1.328 . S
C1818 C1819 1.457 . S
C1818 H1823 0.929 . S
C1819 C1818 1.457 . S
C1819 C1820 1.291 . S
C1819 H1832 0.931 . S
C1820 C1819 1.291 . S
C1820 C1821 1.373 . S
C1820 H1833 0.929 . S
C1821 C1820 1.373 . S
C1821 C1822 1.396 . S
C1821 C1828 1.403 . S
C1822 C1812 1.476 . S
C1822 N1817 1.318 . S
C1822 C1821 1.396 . S
H1823 C1818 0.929 . S
O1824 Mn1800 2.385 . S
O1824 C1802 1.234 . S
O1825 Mn1800 2.209 . S
O1825 Mn1801 2.215 . S
O1825 C1802 1.283 . S
O1826 Mn1800 2.094 . S
O1826 C1804 1.240 . S
O1827 Mn1801 2.117 . S
O1827 C1804 1.264 . S
C1828 C1821 1.403 . S
C1828 C1829 1.399 . S
C1828 H1834 0.929 . S
C1829 C1809 1.449 . S
C1829 C1828 1.399 . S
C1829 H1835 0.930 . S
H1830 C1810 0.931 . S
H1831 C1811 0.930 . S
H1832 C1819 0.931 . S
H1833 C1820 0.929 . S
H1834 C1828 0.929 . S
H1835 C1829 0.930 . S
Mn1836 O1841 2.095 . S
Mn1836 O1851 2.162 . S
Mn1836 O1852 2.297 . S
Mn1836 O1860 2.385 . S
Mn1836 O1861 2.209 . S
Mn1836 O1862 2.094 . S
Mn1837 O1842 2.121 . S
Mn1837 N1844 2.257 . S
Mn1837 N1853 2.282 . S
Mn1837 O1861 2.215 . S
Mn1837 O1863 2.117 . S
C1838 O1860 1.234 . S
C1838 O1861 1.283 . S
C1839 O1851 1.281 . S
C1839 O1852 1.236 . S
C1840 O1862 1.240 . S
C1840 O1863 1.264 . S
O1841 Mn1836 2.095 . S
O1841 C1850 1.250 . S
O1842 Mn1837 2.121 . S
O1842 C1850 1.258 . S
C1843 N1844 1.326 . S
C1843 C1847 1.460 . S
C1843 H1849 0.929 . S
N1844 Mn1837 2.257 . S
N1844 C1843 1.326 . S
N1844 C1848 1.362 . S
C1845 C1846 1.258 . S
C1845 C1848 1.431 . S
C1845 C1865 1.449 . S
C1846 C1845 1.258 . S
C1846 C1847 1.477 . S
C1846 H1866 0.931 . S
C1847 C1843 1.460 . S
C1847 C1846 1.477 . S
C1847 H1867 0.930 . S
C1848 N1844 1.362 . S
C1848 C1845 1.431 . S
C1848 C1858 1.476 . S
H1849 C1843 0.929 . S
C1850 O1841 1.250 . S
C1850 O1842 1.258 . S
O1851 Mn1836 2.162 . S
O1851 C1839 1.281 . S
O1852 Mn1836 2.297 . S
O1852 C1839 1.236 . S
N1853 Mn1837 2.282 . S
N1853 C1854 1.328 . S
N1853 C1858 1.318 . S
C1854 N1853 1.328 . S
C1854 C1855 1.457 . S
C1854 H1859 0.929 . S
C1855 C1854 1.457 . S
C1855 C1856 1.291 . S
C1855 H1868 0.931 . S
C1856 C1855 1.291 . S
C1856 C1857 1.373 . S
C1856 H1869 0.929 . S
C1857 C1856 1.373 . S
C1857 C1858 1.396 . S
C1857 C1864 1.403 . S
C1858 C1848 1.476 . S
C1858 N1853 1.318 . S
C1858 C1857 1.396 . S
H1859 C1854 0.929 . S
O1860 Mn1836 2.385 . S
O1860 C1838 1.234 . S
O1861 Mn1836 2.209 . S
O1861 Mn1837 2.215 . S
O1861 C1838 1.283 . S
O1862 Mn1836 2.094 . S
O1862 C1840 1.240 . S
O1863 Mn1837 2.117 . S
O1863 C1840 1.264 . S
C1864 C1857 1.403 . S
C1864 C1865 1.399 . S
C1864 H1870 0.929 . S
C1865 C1845 1.449 . S
C1865 C1864 1.399 . S
C1865 H1871 0.930 . S
H1866 C1846 0.931 . S
H1867 C1847 0.930 . S
H1868 C1855 0.931 . S
H1869 C1856 0.929 . S
H1870 C1864 0.929 . S
H1871 C1865 0.930 . S
Mn1872 O1877 2.095 . S
Mn1872 O1887 2.162 . S
Mn1872 O1888 2.297 . S
Mn1872 O1896 2.385 . S
Mn1872 O1897 2.209 . S
Mn1872 O1898 2.094 . S
Mn1873 O1878 2.121 . S
Mn1873 N1880 2.257 . S
Mn1873 N1889 2.282 . S
Mn1873 O1897 2.215 . S
Mn1873 O1899 2.117 . S
C1874 O1896 1.234 . S
C1874 O1897 1.283 . S
C1875 O1887 1.281 . S
C1875 O1888 1.236 . S
C1876 O1898 1.240 . S
C1876 O1899 1.264 . S
O1877 Mn1872 2.095 . S
O1877 C1886 1.250 . S
O1878 Mn1873 2.121 . S
O1878 C1886 1.258 . S
C1879 N1880 1.326 . S
C1879 C1883 1.460 . S
C1879 H1885 0.929 . S
N1880 Mn1873 2.257 . S
N1880 C1879 1.326 . S
N1880 C1884 1.362 . S
C1881 C1882 1.258 . S
C1881 C1884 1.431 . S
C1881 C1901 1.449 . S
C1882 C1881 1.258 . S
C1882 C1883 1.477 . S
C1882 H1902 0.931 . S
C1883 C1879 1.460 . S
C1883 C1882 1.477 . S
C1883 H1903 0.930 . S
C1884 N1880 1.362 . S
C1884 C1881 1.431 . S
C1884 C1894 1.476 . S
H1885 C1879 0.929 . S
C1886 O1877 1.250 . S
C1886 O1878 1.258 . S
O1887 Mn1872 2.162 . S
O1887 C1875 1.281 . S
O1888 Mn1872 2.297 . S
O1888 C1875 1.236 . S
N1889 Mn1873 2.282 . S
N1889 C1890 1.328 . S
N1889 C1894 1.318 . S
C1890 N1889 1.328 . S
C1890 C1891 1.457 . S
C1890 H1895 0.929 . S
C1891 C1890 1.457 . S
C1891 C1892 1.291 . S
C1891 H1904 0.931 . S
C1892 C1891 1.291 . S
C1892 C1893 1.373 . S
C1892 H1905 0.929 . S
C1893 C1892 1.373 . S
C1893 C1894 1.396 . S
C1893 C1900 1.403 . S
C1894 C1884 1.476 . S
C1894 N1889 1.318 . S
C1894 C1893 1.396 . S
H1895 C1890 0.929 . S
O1896 Mn1872 2.385 . S
O1896 C1874 1.234 . S
O1897 Mn1872 2.209 . S
O1897 Mn1873 2.215 . S
O1897 C1874 1.283 . S
O1898 Mn1872 2.094 . S
O1898 C1876 1.240 . S
O1899 Mn1873 2.117 . S
O1899 C1876 1.264 . S
C1900 C1893 1.403 . S
C1900 C1901 1.399 . S
C1900 H1906 0.929 . S
C1901 C1881 1.449 . S
C1901 C1900 1.399 . S
C1901 H1907 0.930 . S
H1902 C1882 0.931 . S
H1903 C1883 0.930 . S
H1904 C1891 0.931 . S
H1905 C1892 0.929 . S
H1906 C1900 0.929 . S
H1907 C1901 0.930 . S
Mn1908 O1913 2.095 . S
Mn1908 O1923 2.162 . S
Mn1908 O1924 2.297 . S
Mn1908 O1932 2.385 . S
Mn1908 O1933 2.209 . S
Mn1908 O1934 2.094 . S
Mn1909 O1914 2.121 . S
Mn1909 N1916 2.257 . S
Mn1909 N1925 2.282 . S
Mn1909 O1933 2.215 . S
Mn1909 O1935 2.117 . S
C1910 O1932 1.234 . S
C1910 O1933 1.283 . S
C1911 O1923 1.281 . S
C1911 O1924 1.236 . S
C1912 O1934 1.240 . S
C1912 O1935 1.264 . S
O1913 Mn1908 2.095 . S
O1913 C1922 1.250 . S
O1914 Mn1909 2.121 . S
O1914 C1922 1.258 . S
C1915 N1916 1.326 . S
C1915 C1919 1.460 . S
C1915 H1921 0.929 . S
N1916 Mn1909 2.257 . S
N1916 C1915 1.326 . S
N1916 C1920 1.362 . S
C1917 C1918 1.258 . S
C1917 C1920 1.431 . S
C1917 C1937 1.449 . S
C1918 C1917 1.258 . S
C1918 C1919 1.477 . S
C1918 H1938 0.931 . S
C1919 C1915 1.460 . S
C1919 C1918 1.477 . S
C1919 H1939 0.930 . S
C1920 N1916 1.362 . S
C1920 C1917 1.431 . S
C1920 C1930 1.476 . S
H1921 C1915 0.929 . S
C1922 O1913 1.250 . S
C1922 O1914 1.258 . S
O1923 Mn1908 2.162 . S
O1923 C1911 1.281 . S
O1924 Mn1908 2.297 . S
O1924 C1911 1.236 . S
N1925 Mn1909 2.282 . S
N1925 C1926 1.328 . S
N1925 C1930 1.318 . S
C1926 N1925 1.328 . S
C1926 C1927 1.457 . S
C1926 H1931 0.929 . S
C1927 C1926 1.457 . S
C1927 C1928 1.291 . S
C1927 H1940 0.931 . S
C1928 C1927 1.291 . S
C1928 C1929 1.373 . S
C1928 H1941 0.929 . S
C1929 C1928 1.373 . S
C1929 C1930 1.396 . S
C1929 C1936 1.403 . S
C1930 C1920 1.476 . S
C1930 N1925 1.318 . S
C1930 C1929 1.396 . S
H1931 C1926 0.929 . S
O1932 Mn1908 2.385 . S
O1932 C1910 1.234 . S
O1933 Mn1908 2.209 . S
O1933 Mn1909 2.215 . S
O1933 C1910 1.283 . S
O1934 Mn1908 2.094 . S
O1934 C1912 1.240 . S
O1935 Mn1909 2.117 . S
O1935 C1912 1.264 . S
C1936 C1929 1.403 . S
C1936 C1937 1.399 . S
C1936 H1942 0.929 . S
C1937 C1917 1.449 . S
C1937 C1936 1.399 . S
C1937 H1943 0.930 . S
H1938 C1918 0.931 . S
H1939 C1919 0.930 . S
H1940 C1927 0.931 . S
H1941 C1928 0.929 . S
H1942 C1936 0.929 . S
H1943 C1937 0.930 . S
Mn1944 O1949 2.095 . S
Mn1944 O1959 2.162 1_545 S
Mn1944 O1960 2.297 . S
Mn1944 O1968 2.385 . S
Mn1944 O1969 2.209 . S
Mn1944 O1970 2.094 . S
Mn1945 O1950 2.121 . S
Mn1945 N1952 2.257 . S
Mn1945 N1961 2.282 . S
Mn1945 O1969 2.215 . S
Mn1945 O1971 2.117 . S
C1946 O1968 1.234 . S
C1946 O1969 1.283 . S
C1947 O1959 1.279 1_545 S
C1947 O1960 1.240 . S
C1948 O1970 1.240 . S
C1948 O1971 1.264 . S
O1949 Mn1944 2.095 . S
O1949 C1958 1.250 . S
O1950 Mn1945 2.121 . S
O1950 C1958 1.258 . S
C1951 N1952 1.326 . S
C1951 C1955 1.460 . S
C1951 H1957 0.929 . S
N1952 Mn1945 2.257 . S
N1952 C1951 1.326 . S
N1952 C1956 1.362 . S
C1953 C1954 1.258 . S
C1953 C1956 1.431 . S
C1953 C1973 1.449 . S
C1954 C1953 1.258 . S
C1954 C1955 1.477 . S
C1954 H1974 0.931 . S
C1955 C1951 1.460 . S
C1955 C1954 1.477 . S
C1955 H1975 0.930 . S
C1956 N1952 1.362 . S
C1956 C1953 1.431 . S
C1956 C1966 1.476 . S
H1957 C1951 0.929 . S
C1958 O1949 1.250 . S
C1958 O1950 1.258 . S
O1959 Mn1944 2.162 1_565 S
O1959 C1947 1.279 1_565 S
O1960 Mn1944 2.297 . S
O1960 C1947 1.240 . S
N1961 Mn1945 2.282 . S
N1961 C1962 1.328 . S
N1961 C1966 1.318 . S
C1962 N1961 1.328 . S
C1962 C1963 1.457 . S
C1962 H1967 0.929 . S
C1963 C1962 1.457 . S
C1963 C1964 1.291 . S
C1963 H1976 0.931 . S
C1964 C1963 1.291 . S
C1964 C1965 1.373 . S
C1964 H1977 0.929 . S
C1965 C1964 1.373 . S
C1965 C1966 1.396 . S
C1965 C1972 1.403 . S
C1966 C1956 1.476 . S
C1966 N1961 1.318 . S
C1966 C1965 1.396 . S
H1967 C1962 0.929 . S
O1968 Mn1944 2.385 . S
O1968 C1946 1.234 . S
O1969 Mn1944 2.209 . S
O1969 Mn1945 2.215 . S
O1969 C1946 1.283 . S
O1970 Mn1944 2.094 . S
O1970 C1948 1.240 . S
O1971 Mn1945 2.117 . S
O1971 C1948 1.264 . S
C1972 C1965 1.403 . S
C1972 C1973 1.399 . S
C1972 H1978 0.929 . S
C1973 C1953 1.449 . S
C1973 C1972 1.399 . S
C1973 H1979 0.930 . S
H1974 C1954 0.931 . S
H1975 C1955 0.930 . S
H1976 C1963 0.931 . S
H1977 C1964 0.929 . S
H1978 C1972 0.929 . S
H1979 C1973 0.930 . S
Mn1980 O1985 2.095 . S
Mn1980 O1995 2.162 . S
Mn1980 O1996 2.297 . S
Mn1980 O2004 2.385 . S
Mn1980 O2005 2.209 . S
Mn1980 O2006 2.094 . S
Mn1981 O1986 2.121 . S
Mn1981 N1988 2.257 . S
Mn1981 N1997 2.282 . S
Mn1981 O2005 2.215 . S
Mn1981 O2007 2.117 . S
C1982 O2004 1.234 . S
C1982 O2005 1.283 . S
C1983 O1995 1.281 . S
C1983 O1996 1.236 . S
C1984 O2006 1.240 . S
C1984 O2007 1.264 . S
O1985 Mn1980 2.095 . S
O1985 C1994 1.250 . S
O1986 Mn1981 2.121 . S
O1986 C1994 1.258 . S
C1987 N1988 1.326 . S
C1987 C1991 1.460 . S
C1987 H1993 0.929 . S
N1988 Mn1981 2.257 . S
N1988 C1987 1.326 . S
N1988 C1992 1.362 . S
C1989 C1990 1.258 . S
C1989 C1992 1.431 . S
C1989 C2009 1.449 . S
C1990 C1989 1.258 . S
C1990 C1991 1.477 . S
C1990 H2010 0.931 . S
C1991 C1987 1.460 . S
C1991 C1990 1.477 . S
C1991 H2011 0.930 . S
C1992 N1988 1.362 . S
C1992 C1989 1.431 . S
C1992 C2002 1.476 . S
H1993 C1987 0.929 . S
C1994 O1985 1.250 . S
C1994 O1986 1.258 . S
O1995 Mn1980 2.162 . S
O1995 C1983 1.281 . S
O1996 Mn1980 2.297 . S
O1996 C1983 1.236 . S
N1997 Mn1981 2.282 . S
N1997 C1998 1.328 . S
N1997 C2002 1.318 . S
C1998 N1997 1.328 . S
C1998 C1999 1.457 . S
C1998 H2003 0.929 . S
C1999 C1998 1.457 . S
C1999 C2000 1.291 . S
C1999 H2012 0.931 . S
C2000 C1999 1.291 . S
C2000 C2001 1.373 . S
C2000 H2013 0.929 . S
C2001 C2000 1.373 . S
C2001 C2002 1.396 . S
C2001 C2008 1.403 . S
C2002 C1992 1.476 . S
C2002 N1997 1.318 . S
C2002 C2001 1.396 . S
H2003 C1998 0.929 . S
O2004 Mn1980 2.385 . S
O2004 C1982 1.234 . S
O2005 Mn1980 2.209 . S
O2005 Mn1981 2.215 . S
O2005 C1982 1.283 . S
O2006 Mn1980 2.094 . S
O2006 C1984 1.240 . S
O2007 Mn1981 2.117 . S
O2007 C1984 1.264 . S
C2008 C2001 1.403 . S
C2008 C2009 1.399 . S
C2008 H2014 0.929 . S
C2009 C1989 1.449 . S
C2009 C2008 1.399 . S
C2009 H2015 0.930 . S
H2010 C1990 0.931 . S
H2011 C1991 0.930 . S
H2012 C1999 0.931 . S
H2013 C2000 0.929 . S
H2014 C2008 0.929 . S
H2015 C2009 0.930 . S
Mn2016 O2021 2.095 . S
Mn2016 O2031 2.162 1_554 S
Mn2016 O2032 2.297 . S
Mn2016 O2040 2.385 . S
Mn2016 O2041 2.209 . S
Mn2016 O2042 2.094 . S
Mn2017 O2022 2.121 . S
Mn2017 N2024 2.257 . S
Mn2017 N2033 2.282 . S
Mn2017 O2041 2.215 . S
Mn2017 O2043 2.117 . S
C2018 O2040 1.234 . S
C2018 O2041 1.283 . S
C2019 O2031 1.279 1_554 S
C2019 O2032 1.239 . S
C2020 O2042 1.240 . S
C2020 O2043 1.264 . S
O2021 Mn2016 2.095 . S
O2021 C2030 1.250 . S
O2022 Mn2017 2.121 . S
O2022 C2030 1.258 . S
C2023 N2024 1.326 . S
C2023 C2027 1.460 . S
C2023 H2029 0.929 . S
N2024 Mn2017 2.257 . S
N2024 C2023 1.326 . S
N2024 C2028 1.362 . S
C2025 C2026 1.258 . S
C2025 C2028 1.431 . S
C2025 C2045 1.449 . S
C2026 C2025 1.258 . S
C2026 C2027 1.477 . S
C2026 H2046 0.931 . S
C2027 C2023 1.460 . S
C2027 C2026 1.477 . S
C2027 H2047 0.930 . S
C2028 N2024 1.362 . S
C2028 C2025 1.431 . S
C2028 C2038 1.476 . S
H2029 C2023 0.929 . S
C2030 O2021 1.250 . S
C2030 O2022 1.258 . S
O2031 Mn2016 2.162 1_556 S
O2031 C2019 1.279 1_556 S
O2032 Mn2016 2.297 . S
O2032 C2019 1.239 . S
N2033 Mn2017 2.282 . S
N2033 C2034 1.328 . S
N2033 C2038 1.318 . S
C2034 N2033 1.328 . S
C2034 C2035 1.457 . S
C2034 H2039 0.929 . S
C2035 C2034 1.457 . S
C2035 C2036 1.291 . S
C2035 H2048 0.931 . S
C2036 C2035 1.291 . S
C2036 C2037 1.373 . S
C2036 H2049 0.929 . S
C2037 C2036 1.373 . S
C2037 C2038 1.396 . S
C2037 C2044 1.403 . S
C2038 C2028 1.476 . S
C2038 N2033 1.318 . S
C2038 C2037 1.396 . S
H2039 C2034 0.929 . S
O2040 Mn2016 2.385 . S
O2040 C2018 1.234 . S
O2041 Mn2016 2.209 . S
O2041 Mn2017 2.215 . S
O2041 C2018 1.283 . S
O2042 Mn2016 2.094 . S
O2042 C2020 1.240 . S
O2043 Mn2017 2.117 . S
O2043 C2020 1.264 . S
C2044 C2037 1.403 . S
C2044 C2045 1.399 . S
C2044 H2050 0.929 . S
C2045 C2025 1.449 . S
C2045 C2044 1.399 . S
C2045 H2051 0.930 . S
H2046 C2026 0.931 . S
H2047 C2027 0.930 . S
H2048 C2035 0.931 . S
H2049 C2036 0.929 . S
H2050 C2044 0.929 . S
H2051 C2045 0.930 . S
Mn2052 O2057 2.095 . S
Mn2052 O2067 2.162 . S
Mn2052 O2068 2.297 . S
Mn2052 O2076 2.385 . S
Mn2052 O2077 2.209 . S
Mn2052 O2078 2.094 . S
Mn2053 O2058 2.121 . S
Mn2053 N2060 2.257 . S
Mn2053 N2069 2.282 . S
Mn2053 O2077 2.215 . S
Mn2053 O2079 2.117 . S
C2054 O2076 1.234 . S
C2054 O2077 1.283 . S
C2055 O2067 1.281 . S
C2055 O2068 1.236 . S
C2056 O2078 1.240 . S
C2056 O2079 1.264 . S
O2057 Mn2052 2.095 . S
O2057 C2066 1.250 . S
O2058 Mn2053 2.121 . S
O2058 C2066 1.258 . S
C2059 N2060 1.326 . S
C2059 C2063 1.460 . S
C2059 H2065 0.929 . S
N2060 Mn2053 2.257 . S
N2060 C2059 1.326 . S
N2060 C2064 1.362 . S
C2061 C2062 1.258 . S
C2061 C2064 1.431 . S
C2061 C2081 1.449 . S
C2062 C2061 1.258 . S
C2062 C2063 1.477 . S
C2062 H2082 0.931 . S
C2063 C2059 1.460 . S
C2063 C2062 1.477 . S
C2063 H2083 0.930 . S
C2064 N2060 1.362 . S
C2064 C2061 1.431 . S
C2064 C2074 1.476 . S
H2065 C2059 0.929 . S
C2066 O2057 1.250 . S
C2066 O2058 1.258 . S
O2067 Mn2052 2.162 . S
O2067 C2055 1.281 . S
O2068 Mn2052 2.297 . S
O2068 C2055 1.236 . S
N2069 Mn2053 2.282 . S
N2069 C2070 1.328 . S
N2069 C2074 1.318 . S
C2070 N2069 1.328 . S
C2070 C2071 1.457 . S
C2070 H2075 0.929 . S
C2071 C2070 1.457 . S
C2071 C2072 1.291 . S
C2071 H2084 0.931 . S
C2072 C2071 1.291 . S
C2072 C2073 1.373 . S
C2072 H2085 0.929 . S
C2073 C2072 1.373 . S
C2073 C2074 1.396 . S
C2073 C2080 1.403 . S
C2074 C2064 1.476 . S
C2074 N2069 1.318 . S
C2074 C2073 1.396 . S
H2075 C2070 0.929 . S
O2076 Mn2052 2.385 . S
O2076 C2054 1.234 . S
O2077 Mn2052 2.209 . S
O2077 Mn2053 2.215 . S
O2077 C2054 1.283 . S
O2078 Mn2052 2.094 . S
O2078 C2056 1.240 . S
O2079 Mn2053 2.117 . S
O2079 C2056 1.264 . S
C2080 C2073 1.403 . S
C2080 C2081 1.399 . S
C2080 H2086 0.929 . S
C2081 C2061 1.449 . S
C2081 C2080 1.399 . S
C2081 H2087 0.930 . S
H2082 C2062 0.931 . S
H2083 C2063 0.930 . S
H2084 C2071 0.931 . S
H2085 C2072 0.929 . S
H2086 C2080 0.929 . S
H2087 C2081 0.930 . S
Mn2088 O2093 2.095 . S
Mn2088 O2103 2.162 . S
Mn2088 O2104 2.297 . S
Mn2088 O2112 2.385 . S
Mn2088 O2113 2.209 . S
Mn2088 O2114 2.094 . S
Mn2089 O2094 2.121 . S
Mn2089 N2096 2.257 . S
Mn2089 N2105 2.282 . S
Mn2089 O2113 2.215 . S
Mn2089 O2115 2.117 . S
C2090 O2112 1.234 . S
C2090 O2113 1.283 . S
C2091 O2103 1.281 . S
C2091 O2104 1.236 . S
C2092 O2114 1.240 . S
C2092 O2115 1.264 . S
O2093 Mn2088 2.095 . S
O2093 C2102 1.250 . S
O2094 Mn2089 2.121 . S
O2094 C2102 1.258 . S
C2095 N2096 1.326 . S
C2095 C2099 1.460 . S
C2095 H2101 0.929 . S
N2096 Mn2089 2.257 . S
N2096 C2095 1.326 . S
N2096 C2100 1.362 . S
C2097 C2098 1.258 . S
C2097 C2100 1.431 . S
C2097 C2117 1.449 . S
C2098 C2097 1.258 . S
C2098 C2099 1.477 . S
C2098 H2118 0.931 . S
C2099 C2095 1.460 . S
C2099 C2098 1.477 . S
C2099 H2119 0.930 . S
C2100 N2096 1.362 . S
C2100 C2097 1.431 . S
C2100 C2110 1.476 . S
H2101 C2095 0.929 . S
C2102 O2093 1.250 . S
C2102 O2094 1.258 . S
O2103 Mn2088 2.162 . S
O2103 C2091 1.281 . S
O2104 Mn2088 2.297 . S
O2104 C2091 1.236 . S
N2105 Mn2089 2.282 . S
N2105 C2106 1.328 . S
N2105 C2110 1.318 . S
C2106 N2105 1.328 . S
C2106 C2107 1.457 . S
C2106 H2111 0.929 . S
C2107 C2106 1.457 . S
C2107 C2108 1.291 . S
C2107 H2120 0.931 . S
C2108 C2107 1.291 . S
C2108 C2109 1.373 . S
C2108 H2121 0.929 . S
C2109 C2108 1.373 . S
C2109 C2110 1.396 . S
C2109 C2116 1.403 . S
C2110 C2100 1.476 . S
C2110 N2105 1.318 . S
C2110 C2109 1.396 . S
H2111 C2106 0.929 . S
O2112 Mn2088 2.385 . S
O2112 C2090 1.234 . S
O2113 Mn2088 2.209 . S
O2113 Mn2089 2.215 . S
O2113 C2090 1.283 . S
O2114 Mn2088 2.094 . S
O2114 C2092 1.240 . S
O2115 Mn2089 2.117 . S
O2115 C2092 1.264 . S
C2116 C2109 1.403 . S
C2116 C2117 1.399 . S
C2116 H2122 0.929 . S
C2117 C2097 1.449 . S
C2117 C2116 1.399 . S
C2117 H2123 0.930 . S
H2118 C2098 0.931 . S
H2119 C2099 0.930 . S
H2120 C2107 0.931 . S
H2121 C2108 0.929 . S
H2122 C2116 0.929 . S
H2123 C2117 0.930 . S
Mn2124 O2129 2.095 . S
Mn2124 O2139 2.162 . S
Mn2124 O2140 2.297 . S
Mn2124 O2148 2.385 . S
Mn2124 O2149 2.209 . S
Mn2124 O2150 2.094 . S
Mn2125 O2130 2.121 . S
Mn2125 N2132 2.257 . S
Mn2125 N2141 2.282 . S
Mn2125 O2149 2.215 . S
Mn2125 O2151 2.117 . S
C2126 O2148 1.234 . S
C2126 O2149 1.283 . S
C2127 O2139 1.281 . S
C2127 O2140 1.236 . S
C2128 O2150 1.240 . S
C2128 O2151 1.264 . S
O2129 Mn2124 2.095 . S
O2129 C2138 1.250 . S
O2130 Mn2125 2.121 . S
O2130 C2138 1.258 . S
C2131 N2132 1.326 . S
C2131 C2135 1.460 . S
C2131 H2137 0.929 . S
N2132 Mn2125 2.257 . S
N2132 C2131 1.326 . S
N2132 C2136 1.362 . S
C2133 C2134 1.258 . S
C2133 C2136 1.431 . S
C2133 C2153 1.449 . S
C2134 C2133 1.258 . S
C2134 C2135 1.477 . S
C2134 H2154 0.931 . S
C2135 C2131 1.460 . S
C2135 C2134 1.477 . S
C2135 H2155 0.930 . S
C2136 N2132 1.362 . S
C2136 C2133 1.431 . S
C2136 C2146 1.476 . S
H2137 C2131 0.929 . S
C2138 O2129 1.250 . S
C2138 O2130 1.258 . S
O2139 Mn2124 2.162 . S
O2139 C2127 1.281 . S
O2140 Mn2124 2.297 . S
O2140 C2127 1.236 . S
N2141 Mn2125 2.282 . S
N2141 C2142 1.328 . S
N2141 C2146 1.318 . S
C2142 N2141 1.328 . S
C2142 C2143 1.457 . S
C2142 H2147 0.929 . S
C2143 C2142 1.457 . S
C2143 C2144 1.291 . S
C2143 H2156 0.931 . S
C2144 C2143 1.291 . S
C2144 C2145 1.373 . S
C2144 H2157 0.929 . S
C2145 C2144 1.373 . S
C2145 C2146 1.396 . S
C2145 C2152 1.403 . S
C2146 C2136 1.476 . S
C2146 N2141 1.318 . S
C2146 C2145 1.396 . S
H2147 C2142 0.929 . S
O2148 Mn2124 2.385 . S
O2148 C2126 1.234 . S
O2149 Mn2124 2.209 . S
O2149 Mn2125 2.215 . S
O2149 C2126 1.283 . S
O2150 Mn2124 2.094 . S
O2150 C2128 1.240 . S
O2151 Mn2125 2.117 . S
O2151 C2128 1.264 . S
C2152 C2145 1.403 . S
C2152 C2153 1.399 . S
C2152 H2158 0.929 . S
C2153 C2133 1.449 . S
C2153 C2152 1.399 . S
C2153 H2159 0.930 . S
H2154 C2134 0.931 . S
H2155 C2135 0.930 . S
H2156 C2143 0.931 . S
H2157 C2144 0.929 . S
H2158 C2152 0.929 . S
H2159 C2153 0.930 . S
Mn2160 O2165 2.095 . S
Mn2160 O2175 2.162 1_556 S
Mn2160 O2176 2.297 . S
Mn2160 O2184 2.385 . S
Mn2160 O2185 2.209 . S
Mn2160 O2186 2.094 . S
Mn2161 O2166 2.121 . S
Mn2161 N2168 2.257 . S
Mn2161 N2177 2.282 . S
Mn2161 O2185 2.215 . S
Mn2161 O2187 2.117 . S
C2162 O2184 1.234 . S
C2162 O2185 1.283 . S
C2163 O2175 1.279 1_556 S
C2163 O2176 1.239 . S
C2164 O2186 1.240 . S
C2164 O2187 1.264 . S
O2165 Mn2160 2.095 . S
O2165 C2174 1.250 . S
O2166 Mn2161 2.121 . S
O2166 C2174 1.258 . S
C2167 N2168 1.326 . S
C2167 C2171 1.460 . S
C2167 H2173 0.929 . S
N2168 Mn2161 2.257 . S
N2168 C2167 1.326 . S
N2168 C2172 1.362 . S
C2169 C2170 1.258 . S
C2169 C2172 1.431 . S
C2169 C2189 1.449 . S
C2170 C2169 1.258 . S
C2170 C2171 1.477 . S
C2170 H2190 0.931 . S
C2171 C2167 1.460 . S
C2171 C2170 1.477 . S
C2171 H2191 0.930 . S
C2172 N2168 1.362 . S
C2172 C2169 1.431 . S
C2172 C2182 1.476 . S
H2173 C2167 0.929 . S
C2174 O2165 1.250 . S
C2174 O2166 1.258 . S
O2175 Mn2160 2.162 1_554 S
O2175 C2163 1.279 1_554 S
O2176 Mn2160 2.297 . S
O2176 C2163 1.239 . S
N2177 Mn2161 2.282 . S
N2177 C2178 1.328 . S
N2177 C2182 1.318 . S
C2178 N2177 1.328 . S
C2178 C2179 1.457 . S
C2178 H2183 0.929 . S
C2179 C2178 1.457 . S
C2179 C2180 1.291 . S
C2179 H2192 0.931 . S
C2180 C2179 1.291 . S
C2180 C2181 1.373 . S
C2180 H2193 0.929 . S
C2181 C2180 1.373 . S
C2181 C2182 1.396 . S
C2181 C2188 1.403 . S
C2182 C2172 1.476 . S
C2182 N2177 1.318 . S
C2182 C2181 1.396 . S
H2183 C2178 0.929 . S
O2184 Mn2160 2.385 . S
O2184 C2162 1.234 . S
O2185 Mn2160 2.209 . S
O2185 Mn2161 2.215 . S
O2185 C2162 1.283 . S
O2186 Mn2160 2.094 . S
O2186 C2164 1.240 . S
O2187 Mn2161 2.117 . S
O2187 C2164 1.264 . S
C2188 C2181 1.403 . S
C2188 C2189 1.399 . S
C2188 H2194 0.929 . S
C2189 C2169 1.449 . S
C2189 C2188 1.399 . S
C2189 H2195 0.930 . S
H2190 C2170 0.931 . S
H2191 C2171 0.930 . S
H2192 C2179 0.931 . S
H2193 C2180 0.929 . S
H2194 C2188 0.929 . S
H2195 C2189 0.930 . S
Mn2196 O2201 2.095 . S
Mn2196 O2211 2.162 . S
Mn2196 O2212 2.297 . S
Mn2196 O2220 2.385 . S
Mn2196 O2221 2.209 . S
Mn2196 O2222 2.094 . S
Mn2197 O2202 2.121 . S
Mn2197 N2204 2.257 . S
Mn2197 N2213 2.282 . S
Mn2197 O2221 2.215 . S
Mn2197 O2223 2.117 . S
C2198 O2220 1.234 . S
C2198 O2221 1.283 . S
C2199 O2211 1.281 . S
C2199 O2212 1.236 . S
C2200 O2222 1.240 . S
C2200 O2223 1.264 . S
O2201 Mn2196 2.095 . S
O2201 C2210 1.250 . S
O2202 Mn2197 2.121 . S
O2202 C2210 1.258 . S
C2203 N2204 1.326 . S
C2203 C2207 1.460 . S
C2203 H2209 0.929 . S
N2204 Mn2197 2.257 . S
N2204 C2203 1.326 . S
N2204 C2208 1.362 . S
C2205 C2206 1.258 . S
C2205 C2208 1.431 . S
C2205 C2225 1.449 . S
C2206 C2205 1.258 . S
C2206 C2207 1.477 . S
C2206 H2226 0.931 . S
C2207 C2203 1.460 . S
C2207 C2206 1.477 . S
C2207 H2227 0.930 . S
C2208 N2204 1.362 . S
C2208 C2205 1.431 . S
C2208 C2218 1.476 . S
H2209 C2203 0.929 . S
C2210 O2201 1.250 . S
C2210 O2202 1.258 . S
O2211 Mn2196 2.162 . S
O2211 C2199 1.281 . S
O2212 Mn2196 2.297 . S
O2212 C2199 1.236 . S
N2213 Mn2197 2.282 . S
N2213 C2214 1.328 . S
N2213 C2218 1.318 . S
C2214 N2213 1.328 . S
C2214 C2215 1.457 . S
C2214 H2219 0.929 . S
C2215 C2214 1.457 . S
C2215 C2216 1.291 . S
C2215 H2228 0.931 . S
C2216 C2215 1.291 . S
C2216 C2217 1.373 . S
C2216 H2229 0.929 . S
C2217 C2216 1.373 . S
C2217 C2218 1.396 . S
C2217 C2224 1.403 . S
C2218 C2208 1.476 . S
C2218 N2213 1.318 . S
C2218 C2217 1.396 . S
H2219 C2214 0.929 . S
O2220 Mn2196 2.385 . S
O2220 C2198 1.234 . S
O2221 Mn2196 2.209 . S
O2221 Mn2197 2.215 . S
O2221 C2198 1.283 . S
O2222 Mn2196 2.094 . S
O2222 C2200 1.240 . S
O2223 Mn2197 2.117 . S
O2223 C2200 1.264 . S
C2224 C2217 1.403 . S
C2224 C2225 1.399 . S
C2224 H2230 0.929 . S
C2225 C2205 1.449 . S
C2225 C2224 1.399 . S
C2225 H2231 0.930 . S
H2226 C2206 0.931 . S
H2227 C2207 0.930 . S
H2228 C2215 0.931 . S
H2229 C2216 0.929 . S
H2230 C2224 0.929 . S
H2231 C2225 0.930 . S
Mn2232 O2237 2.095 . S
Mn2232 O2247 2.162 . S
Mn2232 O2248 2.297 . S
Mn2232 O2256 2.385 . S
Mn2232 O2257 2.209 . S
Mn2232 O2258 2.094 . S
Mn2233 O2238 2.121 . S
Mn2233 N2240 2.257 . S
Mn2233 N2249 2.282 . S
Mn2233 O2257 2.215 . S
Mn2233 O2259 2.117 . S
C2234 O2256 1.234 . S
C2234 O2257 1.283 . S
C2235 O2247 1.281 . S
C2235 O2248 1.236 . S
C2236 O2258 1.240 . S
C2236 O2259 1.264 . S
O2237 Mn2232 2.095 . S
O2237 C2246 1.250 . S
O2238 Mn2233 2.121 . S
O2238 C2246 1.258 . S
C2239 N2240 1.326 . S
C2239 C2243 1.460 . S
C2239 H2245 0.929 . S
N2240 Mn2233 2.257 . S
N2240 C2239 1.326 . S
N2240 C2244 1.362 . S
C2241 C2242 1.258 . S
C2241 C2244 1.431 . S
C2241 C2261 1.449 . S
C2242 C2241 1.258 . S
C2242 C2243 1.477 . S
C2242 H2262 0.931 . S
C2243 C2239 1.460 . S
C2243 C2242 1.477 . S
C2243 H2263 0.930 . S
C2244 N2240 1.362 . S
C2244 C2241 1.431 . S
C2244 C2254 1.476 . S
H2245 C2239 0.929 . S
C2246 O2237 1.250 . S
C2246 O2238 1.258 . S
O2247 Mn2232 2.162 . S
O2247 C2235 1.281 . S
O2248 Mn2232 2.297 . S
O2248 C2235 1.236 . S
N2249 Mn2233 2.282 . S
N2249 C2250 1.328 . S
N2249 C2254 1.318 . S
C2250 N2249 1.328 . S
C2250 C2251 1.457 . S
C2250 H2255 0.929 . S
C2251 C2250 1.457 . S
C2251 C2252 1.291 . S
C2251 H2264 0.931 . S
C2252 C2251 1.291 . S
C2252 C2253 1.373 . S
C2252 H2265 0.929 . S
C2253 C2252 1.373 . S
C2253 C2254 1.396 . S
C2253 C2260 1.403 . S
C2254 C2244 1.476 . S
C2254 N2249 1.318 . S
C2254 C2253 1.396 . S
H2255 C2250 0.929 . S
O2256 Mn2232 2.385 . S
O2256 C2234 1.234 . S
O2257 Mn2232 2.209 . S
O2257 Mn2233 2.215 . S
O2257 C2234 1.283 . S
O2258 Mn2232 2.094 . S
O2258 C2236 1.240 . S
O2259 Mn2233 2.117 . S
O2259 C2236 1.264 . S
C2260 C2253 1.403 . S
C2260 C2261 1.399 . S
C2260 H2266 0.929 . S
C2261 C2241 1.449 . S
C2261 C2260 1.399 . S
C2261 H2267 0.930 . S
H2262 C2242 0.931 . S
H2263 C2243 0.930 . S
H2264 C2251 0.931 . S
H2265 C2252 0.929 . S
H2266 C2260 0.929 . S
H2267 C2261 0.930 . S
Mn2268 O2273 2.095 . S
Mn2268 O2283 2.162 . S
Mn2268 O2284 2.297 . S
Mn2268 O2292 2.385 . S
Mn2268 O2293 2.209 . S
Mn2268 O2294 2.094 . S
Mn2269 O2274 2.121 . S
Mn2269 N2276 2.257 . S
Mn2269 N2285 2.282 . S
Mn2269 O2293 2.215 . S
Mn2269 O2295 2.117 . S
C2270 O2292 1.234 . S
C2270 O2293 1.283 . S
C2271 O2283 1.281 . S
C2271 O2284 1.236 . S
C2272 O2294 1.240 . S
C2272 O2295 1.264 . S
O2273 Mn2268 2.095 . S
O2273 C2282 1.250 . S
O2274 Mn2269 2.121 . S
O2274 C2282 1.258 . S
C2275 N2276 1.326 . S
C2275 C2279 1.460 . S
C2275 H2281 0.929 . S
N2276 Mn2269 2.257 . S
N2276 C2275 1.326 . S
N2276 C2280 1.362 . S
C2277 C2278 1.258 . S
C2277 C2280 1.431 . S
C2277 C2297 1.449 . S
C2278 C2277 1.258 . S
C2278 C2279 1.477 . S
C2278 H2298 0.931 . S
C2279 C2275 1.460 . S
C2279 C2278 1.477 . S
C2279 H2299 0.930 . S
C2280 N2276 1.362 . S
C2280 C2277 1.431 . S
C2280 C2290 1.476 . S
H2281 C2275 0.929 . S
C2282 O2273 1.250 . S
C2282 O2274 1.258 . S
O2283 Mn2268 2.162 . S
O2283 C2271 1.281 . S
O2284 Mn2268 2.297 . S
O2284 C2271 1.236 . S
N2285 Mn2269 2.282 . S
N2285 C2286 1.328 . S
N2285 C2290 1.318 . S
C2286 N2285 1.328 . S
C2286 C2287 1.457 . S
C2286 H2291 0.929 . S
C2287 C2286 1.457 . S
C2287 C2288 1.291 . S
C2287 H2300 0.931 . S
C2288 C2287 1.291 . S
C2288 C2289 1.373 . S
C2288 H2301 0.929 . S
C2289 C2288 1.373 . S
C2289 C2290 1.396 . S
C2289 C2296 1.403 . S
C2290 C2280 1.476 . S
C2290 N2285 1.318 . S
C2290 C2289 1.396 . S
H2291 C2286 0.929 . S
O2292 Mn2268 2.385 . S
O2292 C2270 1.234 . S
O2293 Mn2268 2.209 . S
O2293 Mn2269 2.215 . S
O2293 C2270 1.283 . S
O2294 Mn2268 2.094 . S
O2294 C2272 1.240 . S
O2295 Mn2269 2.117 . S
O2295 C2272 1.264 . S
C2296 C2289 1.403 . S
C2296 C2297 1.399 . S
C2296 H2302 0.929 . S
C2297 C2277 1.449 . S
C2297 C2296 1.399 . S
C2297 H2303 0.930 . S
H2298 C2278 0.931 . S
H2299 C2279 0.930 . S
H2300 C2287 0.931 . S
H2301 C2288 0.929 . S
H2302 C2296 0.929 . S
H2303 C2297 0.930 . S
Mn2304 O2309 2.095 . S
Mn2304 O2319 2.162 1_455 S
Mn2304 O2320 2.297 . S
Mn2304 O2328 2.385 . S
Mn2304 O2329 2.209 . S
Mn2304 O2330 2.094 . S
Mn2305 O2310 2.121 . S
Mn2305 N2312 2.257 . S
Mn2305 N2321 2.282 . S
Mn2305 O2329 2.215 . S
Mn2305 O2331 2.117 . S
C2306 O2328 1.234 . S
C2306 O2329 1.283 . S
C2307 O2319 1.279 1_455 S
C2307 O2320 1.240 . S
C2308 O2330 1.240 . S
C2308 O2331 1.264 . S
O2309 Mn2304 2.095 . S
O2309 C2318 1.250 . S
O2310 Mn2305 2.121 . S
O2310 C2318 1.258 . S
C2311 N2312 1.326 . S
C2311 C2315 1.460 . S
C2311 H2317 0.929 . S
N2312 Mn2305 2.257 . S
N2312 C2311 1.326 . S
N2312 C2316 1.362 . S
C2313 C2314 1.258 . S
C2313 C2316 1.431 . S
C2313 C2333 1.449 . S
C2314 C2313 1.258 . S
C2314 C2315 1.477 . S
C2314 H2334 0.931 . S
C2315 C2311 1.460 . S
C2315 C2314 1.477 . S
C2315 H2335 0.930 . S
C2316 N2312 1.362 . S
C2316 C2313 1.431 . S
C2316 C2326 1.476 . S
H2317 C2311 0.929 . S
C2318 O2309 1.250 . S
C2318 O2310 1.258 . S
O2319 Mn2304 2.162 1_655 S
O2319 C2307 1.279 1_655 S
O2320 Mn2304 2.297 . S
O2320 C2307 1.240 . S
N2321 Mn2305 2.282 . S
N2321 C2322 1.328 . S
N2321 C2326 1.318 . S
C2322 N2321 1.328 . S
C2322 C2323 1.457 . S
C2322 H2327 0.929 . S
C2323 C2322 1.457 . S
C2323 C2324 1.291 . S
C2323 H2336 0.931 . S
C2324 C2323 1.291 . S
C2324 C2325 1.373 . S
C2324 H2337 0.929 . S
C2325 C2324 1.373 . S
C2325 C2326 1.396 . S
C2325 C2332 1.403 . S
C2326 C2316 1.476 . S
C2326 N2321 1.318 . S
C2326 C2325 1.396 . S
H2327 C2322 0.929 . S
O2328 Mn2304 2.385 . S
O2328 C2306 1.234 . S
O2329 Mn2304 2.209 . S
O2329 Mn2305 2.215 . S
O2329 C2306 1.283 . S
O2330 Mn2304 2.094 . S
O2330 C2308 1.240 . S
O2331 Mn2305 2.117 . S
O2331 C2308 1.264 . S
C2332 C2325 1.403 . S
C2332 C2333 1.399 . S
C2332 H2338 0.929 . S
C2333 C2313 1.449 . S
C2333 C2332 1.399 . S
C2333 H2339 0.930 . S
H2334 C2314 0.931 . S
H2335 C2315 0.930 . S
H2336 C2323 0.931 . S
H2337 C2324 0.929 . S
H2338 C2332 0.929 . S
H2339 C2333 0.930 . S
Mn2340 O2345 2.095 . S
Mn2340 O2355 2.162 . S
Mn2340 O2356 2.297 . S
Mn2340 O2364 2.385 . S
Mn2340 O2365 2.209 . S
Mn2340 O2366 2.094 . S
Mn2341 O2346 2.121 . S
Mn2341 N2348 2.257 . S
Mn2341 N2357 2.282 . S
Mn2341 O2365 2.215 . S
Mn2341 O2367 2.117 . S
C2342 O2364 1.234 . S
C2342 O2365 1.283 . S
C2343 O2355 1.281 . S
C2343 O2356 1.236 . S
C2344 O2366 1.240 . S
C2344 O2367 1.264 . S
O2345 Mn2340 2.095 . S
O2345 C2354 1.250 . S
O2346 Mn2341 2.121 . S
O2346 C2354 1.258 . S
C2347 N2348 1.326 . S
C2347 C2351 1.460 . S
C2347 H2353 0.929 . S
N2348 Mn2341 2.257 . S
N2348 C2347 1.326 . S
N2348 C2352 1.362 . S
C2349 C2350 1.258 . S
C2349 C2352 1.431 . S
C2349 C2369 1.449 . S
C2350 C2349 1.258 . S
C2350 C2351 1.477 . S
C2350 H2370 0.931 . S
C2351 C2347 1.460 . S
C2351 C2350 1.477 . S
C2351 H2371 0.930 . S
C2352 N2348 1.362 . S
C2352 C2349 1.431 . S
C2352 C2362 1.476 . S
H2353 C2347 0.929 . S
C2354 O2345 1.250 . S
C2354 O2346 1.258 . S
O2355 Mn2340 2.162 . S
O2355 C2343 1.281 . S
O2356 Mn2340 2.297 . S
O2356 C2343 1.236 . S
N2357 Mn2341 2.282 . S
N2357 C2358 1.328 . S
N2357 C2362 1.318 . S
C2358 N2357 1.328 . S
C2358 C2359 1.457 . S
C2358 H2363 0.929 . S
C2359 C2358 1.457 . S
C2359 C2360 1.291 . S
C2359 H2372 0.931 . S
C2360 C2359 1.291 . S
C2360 C2361 1.373 . S
C2360 H2373 0.929 . S
C2361 C2360 1.373 . S
C2361 C2362 1.396 . S
C2361 C2368 1.403 . S
C2362 C2352 1.476 . S
C2362 N2357 1.318 . S
C2362 C2361 1.396 . S
H2363 C2358 0.929 . S
O2364 Mn2340 2.385 . S
O2364 C2342 1.234 . S
O2365 Mn2340 2.209 . S
O2365 Mn2341 2.215 . S
O2365 C2342 1.283 . S
O2366 Mn2340 2.094 . S
O2366 C2344 1.240 . S
O2367 Mn2341 2.117 . S
O2367 C2344 1.264 . S
C2368 C2361 1.403 . S
C2368 C2369 1.399 . S
C2368 H2374 0.929 . S
C2369 C2349 1.449 . S
C2369 C2368 1.399 . S
C2369 H2375 0.930 . S
H2370 C2350 0.931 . S
H2371 C2351 0.930 . S
H2372 C2359 0.931 . S
H2373 C2360 0.929 . S
H2374 C2368 0.929 . S
H2375 C2369 0.930 . S
Mn2376 O2381 2.095 . S
Mn2376 O2391 2.162 . S
Mn2376 O2392 2.297 . S
Mn2376 O2400 2.385 . S
Mn2376 O2401 2.209 . S
Mn2376 O2402 2.094 . S
Mn2377 O2382 2.121 . S
Mn2377 N2384 2.257 . S
Mn2377 N2393 2.282 . S
Mn2377 O2401 2.215 . S
Mn2377 O2403 2.117 . S
C2378 O2400 1.234 . S
C2378 O2401 1.283 . S
C2379 O2391 1.281 . S
C2379 O2392 1.236 . S
C2380 O2402 1.240 . S
C2380 O2403 1.264 . S
O2381 Mn2376 2.095 . S
O2381 C2390 1.250 . S
O2382 Mn2377 2.121 . S
O2382 C2390 1.258 . S
C2383 N2384 1.326 . S
C2383 C2387 1.460 . S
C2383 H2389 0.929 . S
N2384 Mn2377 2.257 . S
N2384 C2383 1.326 . S
N2384 C2388 1.362 . S
C2385 C2386 1.258 . S
C2385 C2388 1.431 . S
C2385 C2405 1.449 . S
C2386 C2385 1.258 . S
C2386 C2387 1.477 . S
C2386 H2406 0.931 . S
C2387 C2383 1.460 . S
C2387 C2386 1.477 . S
C2387 H2407 0.930 . S
C2388 N2384 1.362 . S
C2388 C2385 1.431 . S
C2388 C2398 1.476 . S
H2389 C2383 0.929 . S
C2390 O2381 1.250 . S
C2390 O2382 1.258 . S
O2391 Mn2376 2.162 . S
O2391 C2379 1.281 . S
O2392 Mn2376 2.297 . S
O2392 C2379 1.236 . S
N2393 Mn2377 2.282 . S
N2393 C2394 1.328 . S
N2393 C2398 1.318 . S
C2394 N2393 1.328 . S
C2394 C2395 1.457 . S
C2394 H2399 0.929 . S
C2395 C2394 1.457 . S
C2395 C2396 1.291 . S
C2395 H2408 0.931 . S
C2396 C2395 1.291 . S
C2396 C2397 1.373 . S
C2396 H2409 0.929 . S
C2397 C2396 1.373 . S
C2397 C2398 1.396 . S
C2397 C2404 1.403 . S
C2398 C2388 1.476 . S
C2398 N2393 1.318 . S
C2398 C2397 1.396 . S
H2399 C2394 0.929 . S
O2400 Mn2376 2.385 . S
O2400 C2378 1.234 . S
O2401 Mn2376 2.209 . S
O2401 Mn2377 2.215 . S
O2401 C2378 1.283 . S
O2402 Mn2376 2.094 . S
O2402 C2380 1.240 . S
O2403 Mn2377 2.117 . S
O2403 C2380 1.264 . S
C2404 C2397 1.403 . S
C2404 C2405 1.399 . S
C2404 H2410 0.929 . S
C2405 C2385 1.449 . S
C2405 C2404 1.399 . S
C2405 H2411 0.930 . S
H2406 C2386 0.931 . S
H2407 C2387 0.930 . S
H2408 C2395 0.931 . S
H2409 C2396 0.929 . S
H2410 C2404 0.929 . S
H2411 C2405 0.930 . S
Mn2412 O2417 2.095 . S
Mn2412 O2427 2.162 . S
Mn2412 O2428 2.297 . S
Mn2412 O2436 2.385 . S
Mn2412 O2437 2.209 . S
Mn2412 O2438 2.094 . S
Mn2413 O2418 2.121 . S
Mn2413 N2420 2.257 . S
Mn2413 N2429 2.282 . S
Mn2413 O2437 2.215 . S
Mn2413 O2439 2.117 . S
C2414 O2436 1.234 . S
C2414 O2437 1.283 . S
C2415 O2427 1.281 . S
C2415 O2428 1.236 . S
C2416 O2438 1.240 . S
C2416 O2439 1.264 . S
O2417 Mn2412 2.095 . S
O2417 C2426 1.250 . S
O2418 Mn2413 2.121 . S
O2418 C2426 1.258 . S
C2419 N2420 1.326 . S
C2419 C2423 1.460 . S
C2419 H2425 0.929 . S
N2420 Mn2413 2.257 . S
N2420 C2419 1.326 . S
N2420 C2424 1.362 . S
C2421 C2422 1.258 . S
C2421 C2424 1.431 . S
C2421 C2441 1.449 . S
C2422 C2421 1.258 . S
C2422 C2423 1.477 . S
C2422 H2442 0.931 . S
C2423 C2419 1.460 . S
C2423 C2422 1.477 . S
C2423 H2443 0.930 . S
C2424 N2420 1.362 . S
C2424 C2421 1.431 . S
C2424 C2434 1.476 . S
H2425 C2419 0.929 . S
C2426 O2417 1.250 . S
C2426 O2418 1.258 . S
O2427 Mn2412 2.162 . S
O2427 C2415 1.281 . S
O2428 Mn2412 2.297 . S
O2428 C2415 1.236 . S
N2429 Mn2413 2.282 . S
N2429 C2430 1.328 . S
N2429 C2434 1.318 . S
C2430 N2429 1.328 . S
C2430 C2431 1.457 . S
C2430 H2435 0.929 . S
C2431 C2430 1.457 . S
C2431 C2432 1.291 . S
C2431 H2444 0.931 . S
C2432 C2431 1.291 . S
C2432 C2433 1.373 . S
C2432 H2445 0.929 . S
C2433 C2432 1.373 . S
C2433 C2434 1.396 . S
C2433 C2440 1.403 . S
C2434 C2424 1.476 . S
C2434 N2429 1.318 . S
C2434 C2433 1.396 . S
H2435 C2430 0.929 . S
O2436 Mn2412 2.385 . S
O2436 C2414 1.234 . S
O2437 Mn2412 2.209 . S
O2437 Mn2413 2.215 . S
O2437 C2414 1.283 . S
O2438 Mn2412 2.094 . S
O2438 C2416 1.240 . S
O2439 Mn2413 2.117 . S
O2439 C2416 1.264 . S
C2440 C2433 1.403 . S
C2440 C2441 1.399 . S
C2440 H2446 0.929 . S
C2441 C2421 1.449 . S
C2441 C2440 1.399 . S
C2441 H2447 0.930 . S
H2442 C2422 0.931 . S
H2443 C2423 0.930 . S
H2444 C2431 0.931 . S
H2445 C2432 0.929 . S
H2446 C2440 0.929 . S
H2447 C2441 0.930 . S
Mn2448 O2453 2.095 . S
Mn2448 O2463 2.162 . S
Mn2448 O2464 2.297 . S
Mn2448 O2472 2.385 . S
Mn2448 O2473 2.209 . S
Mn2448 O2474 2.094 . S
Mn2449 O2454 2.121 . S
Mn2449 N2456 2.257 . S
Mn2449 N2465 2.282 . S
Mn2449 O2473 2.215 . S
Mn2449 O2475 2.117 . S
C2450 O2472 1.234 . S
C2450 O2473 1.283 . S
C2451 O2463 1.281 . S
C2451 O2464 1.236 . S
C2452 O2474 1.240 . S
C2452 O2475 1.264 . S
O2453 Mn2448 2.095 . S
O2453 C2462 1.250 . S
O2454 Mn2449 2.121 . S
O2454 C2462 1.258 . S
C2455 N2456 1.326 . S
C2455 C2459 1.460 . S
C2455 H2461 0.929 . S
N2456 Mn2449 2.257 . S
N2456 C2455 1.326 . S
N2456 C2460 1.362 . S
C2457 C2458 1.258 . S
C2457 C2460 1.431 . S
C2457 C2477 1.449 . S
C2458 C2457 1.258 . S
C2458 C2459 1.477 . S
C2458 H2478 0.931 . S
C2459 C2455 1.460 . S
C2459 C2458 1.477 . S
C2459 H2479 0.930 . S
C2460 N2456 1.362 . S
C2460 C2457 1.431 . S
C2460 C2470 1.476 . S
H2461 C2455 0.929 . S
C2462 O2453 1.250 . S
C2462 O2454 1.258 . S
O2463 Mn2448 2.162 . S
O2463 C2451 1.281 . S
O2464 Mn2448 2.297 . S
O2464 C2451 1.236 . S
N2465 Mn2449 2.282 . S
N2465 C2466 1.328 . S
N2465 C2470 1.318 . S
C2466 N2465 1.328 . S
C2466 C2467 1.457 . S
C2466 H2471 0.929 . S
C2467 C2466 1.457 . S
C2467 C2468 1.291 . S
C2467 H2480 0.931 . S
C2468 C2467 1.291 . S
C2468 C2469 1.373 . S
C2468 H2481 0.929 . S
C2469 C2468 1.373 . S
C2469 C2470 1.396 . S
C2469 C2476 1.403 . S
C2470 C2460 1.476 . S
C2470 N2465 1.318 . S
C2470 C2469 1.396 . S
H2471 C2466 0.929 . S
O2472 Mn2448 2.385 . S
O2472 C2450 1.234 . S
O2473 Mn2448 2.209 . S
O2473 Mn2449 2.215 . S
O2473 C2450 1.283 . S
O2474 Mn2448 2.094 . S
O2474 C2452 1.240 . S
O2475 Mn2449 2.117 . S
O2475 C2452 1.264 . S
C2476 C2469 1.403 . S
C2476 C2477 1.399 . S
C2476 H2482 0.929 . S
C2477 C2457 1.449 . S
C2477 C2476 1.399 . S
C2477 H2483 0.930 . S
H2478 C2458 0.931 . S
H2479 C2459 0.930 . S
H2480 C2467 0.931 . S
H2481 C2468 0.929 . S
H2482 C2476 0.929 . S
H2483 C2477 0.930 . S
Mn2484 O2489 2.095 . S
Mn2484 O2499 2.162 1_655 S
Mn2484 O2500 2.297 . S
Mn2484 O2508 2.385 . S
Mn2484 O2509 2.209 . S
Mn2484 O2510 2.094 . S
Mn2485 O2490 2.121 . S
Mn2485 N2492 2.257 . S
Mn2485 N2501 2.282 . S
Mn2485 O2509 2.215 . S
Mn2485 O2511 2.117 . S
C2486 O2508 1.234 . S
C2486 O2509 1.283 . S
C2487 O2499 1.279 1_655 S
C2487 O2500 1.240 . S
C2488 O2510 1.240 . S
C2488 O2511 1.264 . S
O2489 Mn2484 2.095 . S
O2489 C2498 1.250 . S
O2490 Mn2485 2.121 . S
O2490 C2498 1.258 . S
C2491 N2492 1.326 . S
C2491 C2495 1.460 . S
C2491 H2497 0.929 . S
N2492 Mn2485 2.257 . S
N2492 C2491 1.326 . S
N2492 C2496 1.362 . S
C2493 C2494 1.258 . S
C2493 C2496 1.431 . S
C2493 C2513 1.449 . S
C2494 C2493 1.258 . S
C2494 C2495 1.477 . S
C2494 H2514 0.931 . S
C2495 C2491 1.460 . S
C2495 C2494 1.477 . S
C2495 H2515 0.930 . S
C2496 N2492 1.362 . S
C2496 C2493 1.431 . S
C2496 C2506 1.476 . S
H2497 C2491 0.929 . S
C2498 O2489 1.250 . S
C2498 O2490 1.258 . S
O2499 Mn2484 2.162 1_455 S
O2499 C2487 1.279 1_455 S
O2500 Mn2484 2.297 . S
O2500 C2487 1.240 . S
N2501 Mn2485 2.282 . S
N2501 C2502 1.328 . S
N2501 C2506 1.318 . S
C2502 N2501 1.328 . S
C2502 C2503 1.457 . S
C2502 H2507 0.929 . S
C2503 C2502 1.457 . S
C2503 C2504 1.291 . S
C2503 H2516 0.931 . S
C2504 C2503 1.291 . S
C2504 C2505 1.373 . S
C2504 H2517 0.929 . S
C2505 C2504 1.373 . S
C2505 C2506 1.396 . S
C2505 C2512 1.403 . S
C2506 C2496 1.476 . S
C2506 N2501 1.318 . S
C2506 C2505 1.396 . S
H2507 C2502 0.929 . S
O2508 Mn2484 2.385 . S
O2508 C2486 1.234 . S
O2509 Mn2484 2.209 . S
O2509 Mn2485 2.215 . S
O2509 C2486 1.283 . S
O2510 Mn2484 2.094 . S
O2510 C2488 1.240 . S
O2511 Mn2485 2.117 . S
O2511 C2488 1.264 . S
C2512 C2505 1.403 . S
C2512 C2513 1.399 . S
C2512 H2518 0.929 . S
C2513 C2493 1.449 . S
C2513 C2512 1.399 . S
C2513 H2519 0.930 . S
H2514 C2494 0.931 . S
H2515 C2495 0.930 . S
H2516 C2503 0.931 . S
H2517 C2504 0.929 . S
H2518 C2512 0.929 . S
H2519 C2513 0.930 . S
Mn2520 O2525 2.095 . S
Mn2520 O2535 2.162 . S
Mn2520 O2536 2.297 . S
Mn2520 O2544 2.385 . S
Mn2520 O2545 2.209 . S
Mn2520 O2546 2.094 . S
Mn2521 O2526 2.121 . S
Mn2521 N2528 2.257 . S
Mn2521 N2537 2.282 . S
Mn2521 O2545 2.215 . S
Mn2521 O2547 2.117 . S
C2522 O2544 1.234 . S
C2522 O2545 1.283 . S
C2523 O2535 1.281 . S
C2523 O2536 1.236 . S
C2524 O2546 1.240 . S
C2524 O2547 1.264 . S
O2525 Mn2520 2.095 . S
O2525 C2534 1.250 . S
O2526 Mn2521 2.121 . S
O2526 C2534 1.258 . S
C2527 N2528 1.326 . S
C2527 C2531 1.460 . S
C2527 H2533 0.929 . S
N2528 Mn2521 2.257 . S
N2528 C2527 1.326 . S
N2528 C2532 1.362 . S
C2529 C2530 1.258 . S
C2529 C2532 1.431 . S
C2529 C2549 1.449 . S
C2530 C2529 1.258 . S
C2530 C2531 1.477 . S
C2530 H2550 0.931 . S
C2531 C2527 1.460 . S
C2531 C2530 1.477 . S
C2531 H2551 0.930 . S
C2532 N2528 1.362 . S
C2532 C2529 1.431 . S
C2532 C2542 1.476 . S
H2533 C2527 0.929 . S
C2534 O2525 1.250 . S
C2534 O2526 1.258 . S
O2535 Mn2520 2.162 . S
O2535 C2523 1.281 . S
O2536 Mn2520 2.297 . S
O2536 C2523 1.236 . S
N2537 Mn2521 2.282 . S
N2537 C2538 1.328 . S
N2537 C2542 1.318 . S
C2538 N2537 1.328 . S
C2538 C2539 1.457 . S
C2538 H2543 0.929 . S
C2539 C2538 1.457 . S
C2539 C2540 1.291 . S
C2539 H2552 0.931 . S
C2540 C2539 1.291 . S
C2540 C2541 1.373 . S
C2540 H2553 0.929 . S
C2541 C2540 1.373 . S
C2541 C2542 1.396 . S
C2541 C2548 1.403 . S
C2542 C2532 1.476 . S
C2542 N2537 1.318 . S
C2542 C2541 1.396 . S
H2543 C2538 0.929 . S
O2544 Mn2520 2.385 . S
O2544 C2522 1.234 . S
O2545 Mn2520 2.209 . S
O2545 Mn2521 2.215 . S
O2545 C2522 1.283 . S
O2546 Mn2520 2.094 . S
O2546 C2524 1.240 . S
O2547 Mn2521 2.117 . S
O2547 C2524 1.264 . S
C2548 C2541 1.403 . S
C2548 C2549 1.399 . S
C2548 H2554 0.929 . S
C2549 C2529 1.449 . S
C2549 C2548 1.399 . S
C2549 H2555 0.930 . S
H2550 C2530 0.931 . S
H2551 C2531 0.930 . S
H2552 C2539 0.931 . S
H2553 C2540 0.929 . S
H2554 C2548 0.929 . S
H2555 C2549 0.930 . S
Mn2556 O2561 2.095 . S
Mn2556 O2571 2.162 . S
Mn2556 O2572 2.297 . S
Mn2556 O2580 2.385 . S
Mn2556 O2581 2.209 . S
Mn2556 O2582 2.094 . S
Mn2557 O2562 2.121 . S
Mn2557 N2564 2.257 . S
Mn2557 N2573 2.282 . S
Mn2557 O2581 2.215 . S
Mn2557 O2583 2.117 . S
C2558 O2580 1.234 . S
C2558 O2581 1.283 . S
C2559 O2571 1.281 . S
C2559 O2572 1.236 . S
C2560 O2582 1.240 . S
C2560 O2583 1.264 . S
O2561 Mn2556 2.095 . S
O2561 C2570 1.250 . S
O2562 Mn2557 2.121 . S
O2562 C2570 1.258 . S
C2563 N2564 1.326 . S
C2563 C2567 1.460 . S
C2563 H2569 0.929 . S
N2564 Mn2557 2.257 . S
N2564 C2563 1.326 . S
N2564 C2568 1.362 . S
C2565 C2566 1.258 . S
C2565 C2568 1.431 . S
C2565 C2585 1.449 . S
C2566 C2565 1.258 . S
C2566 C2567 1.477 . S
C2566 H2586 0.931 . S
C2567 C2563 1.460 . S
C2567 C2566 1.477 . S
C2567 H2587 0.930 . S
C2568 N2564 1.362 . S
C2568 C2565 1.431 . S
C2568 C2578 1.476 . S
H2569 C2563 0.929 . S
C2570 O2561 1.250 . S
C2570 O2562 1.258 . S
O2571 Mn2556 2.162 . S
O2571 C2559 1.281 . S
O2572 Mn2556 2.297 . S
O2572 C2559 1.236 . S
N2573 Mn2557 2.282 . S
N2573 C2574 1.328 . S
N2573 C2578 1.318 . S
C2574 N2573 1.328 . S
C2574 C2575 1.457 . S
C2574 H2579 0.929 . S
C2575 C2574 1.457 . S
C2575 C2576 1.291 . S
C2575 H2588 0.931 . S
C2576 C2575 1.291 . S
C2576 C2577 1.373 . S
C2576 H2589 0.929 . S
C2577 C2576 1.373 . S
C2577 C2578 1.396 . S
C2577 C2584 1.403 . S
C2578 C2568 1.476 . S
C2578 N2573 1.318 . S
C2578 C2577 1.396 . S
H2579 C2574 0.929 . S
O2580 Mn2556 2.385 . S
O2580 C2558 1.234 . S
O2581 Mn2556 2.209 . S
O2581 Mn2557 2.215 . S
O2581 C2558 1.283 . S
O2582 Mn2556 2.094 . S
O2582 C2560 1.240 . S
O2583 Mn2557 2.117 . S
O2583 C2560 1.264 . S
C2584 C2577 1.403 . S
C2584 C2585 1.399 . S
C2584 H2590 0.929 . S
C2585 C2565 1.449 . S
C2585 C2584 1.399 . S
C2585 H2591 0.930 . S
H2586 C2566 0.931 . S
H2587 C2567 0.930 . S
H2588 C2575 0.931 . S
H2589 C2576 0.929 . S
H2590 C2584 0.929 . S
H2591 C2585 0.930 . S
Mn2592 O2597 2.095 . S
Mn2592 O2607 2.162 1_545 S
Mn2592 O2608 2.297 . S
Mn2592 O2616 2.385 . S
Mn2592 O2617 2.209 . S
Mn2592 O2618 2.094 . S
Mn2593 O2598 2.121 . S
Mn2593 N2600 2.257 . S
Mn2593 N2609 2.282 . S
Mn2593 O2617 2.215 . S
Mn2593 O2619 2.117 . S
C2594 O2616 1.234 . S
C2594 O2617 1.283 . S
C2595 O2607 1.279 1_545 S
C2595 O2608 1.240 . S
C2596 O2618 1.240 . S
C2596 O2619 1.264 . S
O2597 Mn2592 2.095 . S
O2597 C2606 1.250 . S
O2598 Mn2593 2.121 . S
O2598 C2606 1.258 . S
C2599 N2600 1.326 . S
C2599 C2603 1.460 . S
C2599 H2605 0.929 . S
N2600 Mn2593 2.257 . S
N2600 C2599 1.326 . S
N2600 C2604 1.362 . S
C2601 C2602 1.258 . S
C2601 C2604 1.431 . S
C2601 C2621 1.449 . S
C2602 C2601 1.258 . S
C2602 C2603 1.477 . S
C2602 H2622 0.931 . S
C2603 C2599 1.460 . S
C2603 C2602 1.477 . S
C2603 H2623 0.930 . S
C2604 N2600 1.362 . S
C2604 C2601 1.431 . S
C2604 C2614 1.476 . S
H2605 C2599 0.929 . S
C2606 O2597 1.250 . S
C2606 O2598 1.258 . S
O2607 Mn2592 2.162 1_565 S
O2607 C2595 1.279 1_565 S
O2608 Mn2592 2.297 . S
O2608 C2595 1.240 . S
N2609 Mn2593 2.282 . S
N2609 C2610 1.328 . S
N2609 C2614 1.318 . S
C2610 N2609 1.328 . S
C2610 C2611 1.457 . S
C2610 H2615 0.929 . S
C2611 C2610 1.457 . S
C2611 C2612 1.291 . S
C2611 H2624 0.931 . S
C2612 C2611 1.291 . S
C2612 C2613 1.373 . S
C2612 H2625 0.929 . S
C2613 C2612 1.373 . S
C2613 C2614 1.396 . S
C2613 C2620 1.403 . S
C2614 C2604 1.476 . S
C2614 N2609 1.318 . S
C2614 C2613 1.396 . S
H2615 C2610 0.929 . S
O2616 Mn2592 2.385 . S
O2616 C2594 1.234 . S
O2617 Mn2592 2.209 . S
O2617 Mn2593 2.215 . S
O2617 C2594 1.283 . S
O2618 Mn2592 2.094 . S
O2618 C2596 1.240 . S
O2619 Mn2593 2.117 . S
O2619 C2596 1.264 . S
C2620 C2613 1.403 . S
C2620 C2621 1.399 . S
C2620 H2626 0.929 . S
C2621 C2601 1.449 . S
C2621 C2620 1.399 . S
C2621 H2627 0.930 . S
H2622 C2602 0.931 . S
H2623 C2603 0.930 . S
H2624 C2611 0.931 . S
H2625 C2612 0.929 . S
H2626 C2620 0.929 . S
H2627 C2621 0.930 . S
Mn2628 O2633 2.095 . S
Mn2628 O2643 2.162 . S
Mn2628 O2644 2.297 . S
Mn2628 O2652 2.385 . S
Mn2628 O2653 2.209 . S
Mn2628 O2654 2.094 . S
Mn2629 O2634 2.121 . S
Mn2629 N2636 2.257 . S
Mn2629 N2645 2.282 . S
Mn2629 O2653 2.215 . S
Mn2629 O2655 2.117 . S
C2630 O2652 1.234 . S
C2630 O2653 1.283 . S
C2631 O2643 1.281 . S
C2631 O2644 1.236 . S
C2632 O2654 1.240 . S
C2632 O2655 1.264 . S
O2633 Mn2628 2.095 . S
O2633 C2642 1.250 . S
O2634 Mn2629 2.121 . S
O2634 C2642 1.258 . S
C2635 N2636 1.326 . S
C2635 C2639 1.460 . S
C2635 H2641 0.929 . S
N2636 Mn2629 2.257 . S
N2636 C2635 1.326 . S
N2636 C2640 1.362 . S
C2637 C2638 1.258 . S
C2637 C2640 1.431 . S
C2637 C2657 1.449 . S
C2638 C2637 1.258 . S
C2638 C2639 1.477 . S
C2638 H2658 0.931 . S
C2639 C2635 1.460 . S
C2639 C2638 1.477 . S
C2639 H2659 0.930 . S
C2640 N2636 1.362 . S
C2640 C2637 1.431 . S
C2640 C2650 1.476 . S
H2641 C2635 0.929 . S
C2642 O2633 1.250 . S
C2642 O2634 1.258 . S
O2643 Mn2628 2.162 . S
O2643 C2631 1.281 . S
O2644 Mn2628 2.297 . S
O2644 C2631 1.236 . S
N2645 Mn2629 2.282 . S
N2645 C2646 1.328 . S
N2645 C2650 1.318 . S
C2646 N2645 1.328 . S
C2646 C2647 1.457 . S
C2646 H2651 0.929 . S
C2647 C2646 1.457 . S
C2647 C2648 1.291 . S
C2647 H2660 0.931 . S
C2648 C2647 1.291 . S
C2648 C2649 1.373 . S
C2648 H2661 0.929 . S
C2649 C2648 1.373 . S
C2649 C2650 1.396 . S
C2649 C2656 1.403 . S
C2650 C2640 1.476 . S
C2650 N2645 1.318 . S
C2650 C2649 1.396 . S
H2651 C2646 0.929 . S
O2652 Mn2628 2.385 . S
O2652 C2630 1.234 . S
O2653 Mn2628 2.209 . S
O2653 Mn2629 2.215 . S
O2653 C2630 1.283 . S
O2654 Mn2628 2.094 . S
O2654 C2632 1.240 . S
O2655 Mn2629 2.117 . S
O2655 C2632 1.264 . S
C2656 C2649 1.403 . S
C2656 C2657 1.399 . S
C2656 H2662 0.929 . S
C2657 C2637 1.449 . S
C2657 C2656 1.399 . S
C2657 H2663 0.930 . S
H2658 C2638 0.931 . S
H2659 C2639 0.930 . S
H2660 C2647 0.931 . S
H2661 C2648 0.929 . S
H2662 C2656 0.929 . S
H2663 C2657 0.930 . S
Mn2664 O2669 2.095 . S
Mn2664 O2679 2.162 . S
Mn2664 O2680 2.297 . S
Mn2664 O2688 2.385 . S
Mn2664 O2689 2.209 . S
Mn2664 O2690 2.094 . S
Mn2665 O2670 2.121 . S
Mn2665 N2672 2.257 . S
Mn2665 N2681 2.282 . S
Mn2665 O2689 2.215 . S
Mn2665 O2691 2.117 . S
C2666 O2688 1.234 . S
C2666 O2689 1.283 . S
C2667 O2679 1.281 . S
C2667 O2680 1.236 . S
C2668 O2690 1.240 . S
C2668 O2691 1.264 . S
O2669 Mn2664 2.095 . S
O2669 C2678 1.250 . S
O2670 Mn2665 2.121 . S
O2670 C2678 1.258 . S
C2671 N2672 1.326 . S
C2671 C2675 1.460 . S
C2671 H2677 0.929 . S
N2672 Mn2665 2.257 . S
N2672 C2671 1.326 . S
N2672 C2676 1.362 . S
C2673 C2674 1.258 . S
C2673 C2676 1.431 . S
C2673 C2693 1.449 . S
C2674 C2673 1.258 . S
C2674 C2675 1.477 . S
C2674 H2694 0.931 . S
C2675 C2671 1.460 . S
C2675 C2674 1.477 . S
C2675 H2695 0.930 . S
C2676 N2672 1.362 . S
C2676 C2673 1.431 . S
C2676 C2686 1.476 . S
H2677 C2671 0.929 . S
C2678 O2669 1.250 . S
C2678 O2670 1.258 . S
O2679 Mn2664 2.162 . S
O2679 C2667 1.281 . S
O2680 Mn2664 2.297 . S
O2680 C2667 1.236 . S
N2681 Mn2665 2.282 . S
N2681 C2682 1.328 . S
N2681 C2686 1.318 . S
C2682 N2681 1.328 . S
C2682 C2683 1.457 . S
C2682 H2687 0.929 . S
C2683 C2682 1.457 . S
C2683 C2684 1.291 . S
C2683 H2696 0.931 . S
C2684 C2683 1.291 . S
C2684 C2685 1.373 . S
C2684 H2697 0.929 . S
C2685 C2684 1.373 . S
C2685 C2686 1.396 . S
C2685 C2692 1.403 . S
C2686 C2676 1.476 . S
C2686 N2681 1.318 . S
C2686 C2685 1.396 . S
H2687 C2682 0.929 . S
O2688 Mn2664 2.385 . S
O2688 C2666 1.234 . S
O2689 Mn2664 2.209 . S
O2689 Mn2665 2.215 . S
O2689 C2666 1.283 . S
O2690 Mn2664 2.094 . S
O2690 C2668 1.240 . S
O2691 Mn2665 2.117 . S
O2691 C2668 1.264 . S
C2692 C2685 1.403 . S
C2692 C2693 1.399 . S
C2692 H2698 0.929 . S
C2693 C2673 1.449 . S
C2693 C2692 1.399 . S
C2693 H2699 0.930 . S
H2694 C2674 0.931 . S
H2695 C2675 0.930 . S
H2696 C2683 0.931 . S
H2697 C2684 0.929 . S
H2698 C2692 0.929 . S
H2699 C2693 0.930 . S
Mn2700 O2705 2.095 . S
Mn2700 O2715 2.162 . S
Mn2700 O2716 2.297 . S
Mn2700 O2724 2.385 . S
Mn2700 O2725 2.209 . S
Mn2700 O2726 2.094 . S
Mn2701 O2706 2.121 . S
Mn2701 N2708 2.257 . S
Mn2701 N2717 2.282 . S
Mn2701 O2725 2.215 . S
Mn2701 O2727 2.117 . S
C2702 O2724 1.234 . S
C2702 O2725 1.283 . S
C2703 O2715 1.281 . S
C2703 O2716 1.236 . S
C2704 O2726 1.240 . S
C2704 O2727 1.264 . S
O2705 Mn2700 2.095 . S
O2705 C2714 1.250 . S
O2706 Mn2701 2.121 . S
O2706 C2714 1.258 . S
C2707 N2708 1.326 . S
C2707 C2711 1.460 . S
C2707 H2713 0.929 . S
N2708 Mn2701 2.257 . S
N2708 C2707 1.326 . S
N2708 C2712 1.362 . S
C2709 C2710 1.258 . S
C2709 C2712 1.431 . S
C2709 C2729 1.449 . S
C2710 C2709 1.258 . S
C2710 C2711 1.477 . S
C2710 H2730 0.931 . S
C2711 C2707 1.460 . S
C2711 C2710 1.477 . S
C2711 H2731 0.930 . S
C2712 N2708 1.362 . S
C2712 C2709 1.431 . S
C2712 C2722 1.476 . S
H2713 C2707 0.929 . S
C2714 O2705 1.250 . S
C2714 O2706 1.258 . S
O2715 Mn2700 2.162 . S
O2715 C2703 1.281 . S
O2716 Mn2700 2.297 . S
O2716 C2703 1.236 . S
N2717 Mn2701 2.282 . S
N2717 C2718 1.328 . S
N2717 C2722 1.318 . S
C2718 N2717 1.328 . S
C2718 C2719 1.457 . S
C2718 H2723 0.929 . S
C2719 C2718 1.457 . S
C2719 C2720 1.291 . S
C2719 H2732 0.931 . S
C2720 C2719 1.291 . S
C2720 C2721 1.373 . S
C2720 H2733 0.929 . S
C2721 C2720 1.373 . S
C2721 C2722 1.396 . S
C2721 C2728 1.403 . S
C2722 C2712 1.476 . S
C2722 N2717 1.318 . S
C2722 C2721 1.396 . S
H2723 C2718 0.929 . S
O2724 Mn2700 2.385 . S
O2724 C2702 1.234 . S
O2725 Mn2700 2.209 . S
O2725 Mn2701 2.215 . S
O2725 C2702 1.283 . S
O2726 Mn2700 2.094 . S
O2726 C2704 1.240 . S
O2727 Mn2701 2.117 . S
O2727 C2704 1.264 . S
C2728 C2721 1.403 . S
C2728 C2729 1.399 . S
C2728 H2734 0.929 . S
C2729 C2709 1.449 . S
C2729 C2728 1.399 . S
C2729 H2735 0.930 . S
H2730 C2710 0.931 . S
H2731 C2711 0.930 . S
H2732 C2719 0.931 . S
H2733 C2720 0.929 . S
H2734 C2728 0.929 . S
H2735 C2729 0.930 . S
Mn2736 O2741 2.095 . S
Mn2736 O2751 2.162 1_565 S
Mn2736 O2752 2.297 . S
Mn2736 O2760 2.385 . S
Mn2736 O2761 2.209 . S
Mn2736 O2762 2.094 . S
Mn2737 O2742 2.121 . S
Mn2737 N2744 2.257 . S
Mn2737 N2753 2.282 . S
Mn2737 O2761 2.215 . S
Mn2737 O2763 2.117 . S
C2738 O2760 1.234 . S
C2738 O2761 1.283 . S
C2739 O2751 1.279 1_565 S
C2739 O2752 1.240 . S
C2740 O2762 1.240 . S
C2740 O2763 1.264 . S
O2741 Mn2736 2.095 . S
O2741 C2750 1.250 . S
O2742 Mn2737 2.121 . S
O2742 C2750 1.258 . S
C2743 N2744 1.326 . S
C2743 C2747 1.460 . S
C2743 H2749 0.929 . S
N2744 Mn2737 2.257 . S
N2744 C2743 1.326 . S
N2744 C2748 1.362 . S
C2745 C2746 1.258 . S
C2745 C2748 1.431 . S
C2745 C2765 1.449 . S
C2746 C2745 1.258 . S
C2746 C2747 1.477 . S
C2746 H2766 0.931 . S
C2747 C2743 1.460 . S
C2747 C2746 1.477 . S
C2747 H2767 0.930 . S
C2748 N2744 1.362 . S
C2748 C2745 1.431 . S
C2748 C2758 1.476 . S
H2749 C2743 0.929 . S
C2750 O2741 1.250 . S
C2750 O2742 1.258 . S
O2751 Mn2736 2.162 1_545 S
O2751 C2739 1.279 1_545 S
O2752 Mn2736 2.297 . S
O2752 C2739 1.240 . S
N2753 Mn2737 2.282 . S
N2753 C2754 1.328 . S
N2753 C2758 1.318 . S
C2754 N2753 1.328 . S
C2754 C2755 1.457 . S
C2754 H2759 0.929 . S
C2755 C2754 1.457 . S
C2755 C2756 1.291 . S
C2755 H2768 0.931 . S
C2756 C2755 1.291 . S
C2756 C2757 1.373 . S
C2756 H2769 0.929 . S
C2757 C2756 1.373 . S
C2757 C2758 1.396 . S
C2757 C2764 1.403 . S
C2758 C2748 1.476 . S
C2758 N2753 1.318 . S
C2758 C2757 1.396 . S
H2759 C2754 0.929 . S
O2760 Mn2736 2.385 . S
O2760 C2738 1.234 . S
O2761 Mn2736 2.209 . S
O2761 Mn2737 2.215 . S
O2761 C2738 1.283 . S
O2762 Mn2736 2.094 . S
O2762 C2740 1.240 . S
O2763 Mn2737 2.117 . S
O2763 C2740 1.264 . S
C2764 C2757 1.403 . S
C2764 C2765 1.399 . S
C2764 H2770 0.929 . S
C2765 C2745 1.449 . S
C2765 C2764 1.399 . S
C2765 H2771 0.930 . S
H2766 C2746 0.931 . S
H2767 C2747 0.930 . S
H2768 C2755 0.931 . S
H2769 C2756 0.929 . S
H2770 C2764 0.929 . S
H2771 C2765 0.930 . S
Mn2772 O2777 2.095 . S
Mn2772 O2787 2.162 . S
Mn2772 O2788 2.297 . S
Mn2772 O2796 2.385 . S
Mn2772 O2797 2.209 . S
Mn2772 O2798 2.094 . S
Mn2773 O2778 2.121 . S
Mn2773 N2780 2.257 . S
Mn2773 N2789 2.282 . S
Mn2773 O2797 2.215 . S
Mn2773 O2799 2.117 . S
C2774 O2796 1.234 . S
C2774 O2797 1.283 . S
C2775 O2787 1.281 . S
C2775 O2788 1.236 . S
C2776 O2798 1.240 . S
C2776 O2799 1.264 . S
O2777 Mn2772 2.095 . S
O2777 C2786 1.250 . S
O2778 Mn2773 2.121 . S
O2778 C2786 1.258 . S
C2779 N2780 1.326 . S
C2779 C2783 1.460 . S
C2779 H2785 0.929 . S
N2780 Mn2773 2.257 . S
N2780 C2779 1.326 . S
N2780 C2784 1.362 . S
C2781 C2782 1.258 . S
C2781 C2784 1.431 . S
C2781 C2801 1.449 . S
C2782 C2781 1.258 . S
C2782 C2783 1.477 . S
C2782 H2802 0.931 . S
C2783 C2779 1.460 . S
C2783 C2782 1.477 . S
C2783 H2803 0.930 . S
C2784 N2780 1.362 . S
C2784 C2781 1.431 . S
C2784 C2794 1.476 . S
H2785 C2779 0.929 . S
C2786 O2777 1.250 . S
C2786 O2778 1.258 . S
O2787 Mn2772 2.162 . S
O2787 C2775 1.281 . S
O2788 Mn2772 2.297 . S
O2788 C2775 1.236 . S
N2789 Mn2773 2.282 . S
N2789 C2790 1.328 . S
N2789 C2794 1.318 . S
C2790 N2789 1.328 . S
C2790 C2791 1.457 . S
C2790 H2795 0.929 . S
C2791 C2790 1.457 . S
C2791 C2792 1.291 . S
C2791 H2804 0.931 . S
C2792 C2791 1.291 . S
C2792 C2793 1.373 . S
C2792 H2805 0.929 . S
C2793 C2792 1.373 . S
C2793 C2794 1.396 . S
C2793 C2800 1.403 . S
C2794 C2784 1.476 . S
C2794 N2789 1.318 . S
C2794 C2793 1.396 . S
H2795 C2790 0.929 . S
O2796 Mn2772 2.385 . S
O2796 C2774 1.234 . S
O2797 Mn2772 2.209 . S
O2797 Mn2773 2.215 . S
O2797 C2774 1.283 . S
O2798 Mn2772 2.094 . S
O2798 C2776 1.240 . S
O2799 Mn2773 2.117 . S
O2799 C2776 1.264 . S
C2800 C2793 1.403 . S
C2800 C2801 1.399 . S
C2800 H2806 0.929 . S
C2801 C2781 1.449 . S
C2801 C2800 1.399 . S
C2801 H2807 0.930 . S
H2802 C2782 0.931 . S
H2803 C2783 0.930 . S
H2804 C2791 0.931 . S
H2805 C2792 0.929 . S
H2806 C2800 0.929 . S
H2807 C2801 0.930 . S
Mn2808 O2813 2.095 . S
Mn2808 O2823 2.162 . S
Mn2808 O2824 2.297 . S
Mn2808 O2832 2.385 . S
Mn2808 O2833 2.209 . S
Mn2808 O2834 2.094 . S
Mn2809 O2814 2.121 . S
Mn2809 N2816 2.257 . S
Mn2809 N2825 2.282 . S
Mn2809 O2833 2.215 . S
Mn2809 O2835 2.117 . S
C2810 O2832 1.234 . S
C2810 O2833 1.283 . S
C2811 O2823 1.281 . S
C2811 O2824 1.236 . S
C2812 O2834 1.240 . S
C2812 O2835 1.264 . S
O2813 Mn2808 2.095 . S
O2813 C2822 1.250 . S
O2814 Mn2809 2.121 . S
O2814 C2822 1.258 . S
C2815 N2816 1.326 . S
C2815 C2819 1.460 . S
C2815 H2821 0.929 . S
N2816 Mn2809 2.257 . S
N2816 C2815 1.326 . S
N2816 C2820 1.362 . S
C2817 C2818 1.258 . S
C2817 C2820 1.431 . S
C2817 C2837 1.449 . S
C2818 C2817 1.258 . S
C2818 C2819 1.477 . S
C2818 H2838 0.931 . S
C2819 C2815 1.460 . S
C2819 C2818 1.477 . S
C2819 H2839 0.930 . S
C2820 N2816 1.362 . S
C2820 C2817 1.431 . S
C2820 C2830 1.476 . S
H2821 C2815 0.929 . S
C2822 O2813 1.250 . S
C2822 O2814 1.258 . S
O2823 Mn2808 2.162 . S
O2823 C2811 1.281 . S
O2824 Mn2808 2.297 . S
O2824 C2811 1.236 . S
N2825 Mn2809 2.282 . S
N2825 C2826 1.328 . S
N2825 C2830 1.318 . S
C2826 N2825 1.328 . S
C2826 C2827 1.457 . S
C2826 H2831 0.929 . S
C2827 C2826 1.457 . S
C2827 C2828 1.291 . S
C2827 H2840 0.931 . S
C2828 C2827 1.291 . S
C2828 C2829 1.373 . S
C2828 H2841 0.929 . S
C2829 C2828 1.373 . S
C2829 C2830 1.396 . S
C2829 C2836 1.403 . S
C2830 C2820 1.476 . S
C2830 N2825 1.318 . S
C2830 C2829 1.396 . S
H2831 C2826 0.929 . S
O2832 Mn2808 2.385 . S
O2832 C2810 1.234 . S
O2833 Mn2808 2.209 . S
O2833 Mn2809 2.215 . S
O2833 C2810 1.283 . S
O2834 Mn2808 2.094 . S
O2834 C2812 1.240 . S
O2835 Mn2809 2.117 . S
O2835 C2812 1.264 . S
C2836 C2829 1.403 . S
C2836 C2837 1.399 . S
C2836 H2842 0.929 . S
C2837 C2817 1.449 . S
C2837 C2836 1.399 . S
C2837 H2843 0.930 . S
H2838 C2818 0.931 . S
H2839 C2819 0.930 . S
H2840 C2827 0.931 . S
H2841 C2828 0.929 . S
H2842 C2836 0.929 . S
H2843 C2837 0.930 . S
Mn2844 O2849 2.095 . S
Mn2844 O2859 2.162 . S
Mn2844 O2860 2.297 . S
Mn2844 O2868 2.385 . S
Mn2844 O2869 2.209 . S
Mn2844 O2870 2.094 . S
Mn2845 O2850 2.121 . S
Mn2845 N2852 2.257 . S
Mn2845 N2861 2.282 . S
Mn2845 O2869 2.215 . S
Mn2845 O2871 2.117 . S
C2846 O2868 1.234 . S
C2846 O2869 1.283 . S
C2847 O2859 1.281 . S
C2847 O2860 1.236 . S
C2848 O2870 1.240 . S
C2848 O2871 1.264 . S
O2849 Mn2844 2.095 . S
O2849 C2858 1.250 . S
O2850 Mn2845 2.121 . S
O2850 C2858 1.258 . S
C2851 N2852 1.326 . S
C2851 C2855 1.460 . S
C2851 H2857 0.929 . S
N2852 Mn2845 2.257 . S
N2852 C2851 1.326 . S
N2852 C2856 1.362 . S
C2853 C2854 1.258 . S
C2853 C2856 1.431 . S
C2853 C2873 1.449 . S
C2854 C2853 1.258 . S
C2854 C2855 1.477 . S
C2854 H2874 0.931 . S
C2855 C2851 1.460 . S
C2855 C2854 1.477 . S
C2855 H2875 0.930 . S
C2856 N2852 1.362 . S
C2856 C2853 1.431 . S
C2856 C2866 1.476 . S
H2857 C2851 0.929 . S
C2858 O2849 1.250 . S
C2858 O2850 1.258 . S
O2859 Mn2844 2.162 . S
O2859 C2847 1.281 . S
O2860 Mn2844 2.297 . S
O2860 C2847 1.236 . S
N2861 Mn2845 2.282 . S
N2861 C2862 1.328 . S
N2861 C2866 1.318 . S
C2862 N2861 1.328 . S
C2862 C2863 1.457 . S
C2862 H2867 0.929 . S
C2863 C2862 1.457 . S
C2863 C2864 1.291 . S
C2863 H2876 0.931 . S
C2864 C2863 1.291 . S
C2864 C2865 1.373 . S
C2864 H2877 0.929 . S
C2865 C2864 1.373 . S
C2865 C2866 1.396 . S
C2865 C2872 1.403 . S
C2866 C2856 1.476 . S
C2866 N2861 1.318 . S
C2866 C2865 1.396 . S
H2867 C2862 0.929 . S
O2868 Mn2844 2.385 . S
O2868 C2846 1.234 . S
O2869 Mn2844 2.209 . S
O2869 Mn2845 2.215 . S
O2869 C2846 1.283 . S
O2870 Mn2844 2.094 . S
O2870 C2848 1.240 . S
O2871 Mn2845 2.117 . S
O2871 C2848 1.264 . S
C2872 C2865 1.403 . S
C2872 C2873 1.399 . S
C2872 H2878 0.929 . S
C2873 C2853 1.449 . S
C2873 C2872 1.399 . S
C2873 H2879 0.930 . S
H2874 C2854 0.931 . S
H2875 C2855 0.930 . S
H2876 C2863 0.931 . S
H2877 C2864 0.929 . S
H2878 C2872 0.929 . S
H2879 C2873 0.930 . S
Mn2880 O2885 2.095 . S
Mn2880 O2895 2.162 . S
Mn2880 O2896 2.297 . S
Mn2880 O2904 2.385 . S
Mn2880 O2905 2.209 . S
Mn2880 O2906 2.094 . S
Mn2881 O2886 2.121 . S
Mn2881 N2888 2.257 . S
Mn2881 N2897 2.282 . S
Mn2881 O2905 2.215 . S
Mn2881 O2907 2.117 . S
C2882 O2904 1.234 . S
C2882 O2905 1.283 . S
C2883 O2895 1.281 . S
C2883 O2896 1.236 . S
C2884 O2906 1.240 . S
C2884 O2907 1.264 . S
O2885 Mn2880 2.095 . S
O2885 C2894 1.250 . S
O2886 Mn2881 2.121 . S
O2886 C2894 1.258 . S
C2887 N2888 1.326 . S
C2887 C2891 1.460 . S
C2887 H2893 0.929 . S
N2888 Mn2881 2.257 . S
N2888 C2887 1.326 . S
N2888 C2892 1.362 . S
C2889 C2890 1.258 . S
C2889 C2892 1.431 . S
C2889 C2909 1.449 . S
C2890 C2889 1.258 . S
C2890 C2891 1.477 . S
C2890 H2910 0.931 . S
C2891 C2887 1.460 . S
C2891 C2890 1.477 . S
C2891 H2911 0.930 . S
C2892 N2888 1.362 . S
C2892 C2889 1.431 . S
C2892 C2902 1.476 . S
H2893 C2887 0.929 . S
C2894 O2885 1.250 . S
C2894 O2886 1.258 . S
O2895 Mn2880 2.162 . S
O2895 C2883 1.281 . S
O2896 Mn2880 2.297 . S
O2896 C2883 1.236 . S
N2897 Mn2881 2.282 . S
N2897 C2898 1.328 . S
N2897 C2902 1.318 . S
C2898 N2897 1.328 . S
C2898 C2899 1.457 . S
C2898 H2903 0.929 . S
C2899 C2898 1.457 . S
C2899 C2900 1.291 . S
C2899 H2912 0.931 . S
C2900 C2899 1.291 . S
C2900 C2901 1.373 . S
C2900 H2913 0.929 . S
C2901 C2900 1.373 . S
C2901 C2902 1.396 . S
C2901 C2908 1.403 . S
C2902 C2892 1.476 . S
C2902 N2897 1.318 . S
C2902 C2901 1.396 . S
H2903 C2898 0.929 . S
O2904 Mn2880 2.385 . S
O2904 C2882 1.234 . S
O2905 Mn2880 2.209 . S
O2905 Mn2881 2.215 . S
O2905 C2882 1.283 . S
O2906 Mn2880 2.094 . S
O2906 C2884 1.240 . S
O2907 Mn2881 2.117 . S
O2907 C2884 1.264 . S
C2908 C2901 1.403 . S
C2908 C2909 1.399 . S
C2908 H2914 0.929 . S
C2909 C2889 1.449 . S
C2909 C2908 1.399 . S
C2909 H2915 0.930 . S
H2910 C2890 0.931 . S
H2911 C2891 0.930 . S
H2912 C2899 0.931 . S
H2913 C2900 0.929 . S
H2914 C2908 0.929 . S
H2915 C2909 0.930 . S
Mn2916 O2921 2.095 . S
Mn2916 O2931 2.162 . S
Mn2916 O2932 2.297 . S
Mn2916 O2940 2.385 . S
Mn2916 O2941 2.209 . S
Mn2916 O2942 2.094 . S
Mn2917 O2922 2.121 . S
Mn2917 N2924 2.257 . S
Mn2917 N2933 2.282 . S
Mn2917 O2941 2.215 . S
Mn2917 O2943 2.117 . S
C2918 O2940 1.234 . S
C2918 O2941 1.283 . S
C2919 O2931 1.281 . S
C2919 O2932 1.236 . S
C2920 O2942 1.240 . S
C2920 O2943 1.264 . S
O2921 Mn2916 2.095 . S
O2921 C2930 1.250 . S
O2922 Mn2917 2.121 . S
O2922 C2930 1.258 . S
C2923 N2924 1.326 . S
C2923 C2927 1.460 . S
C2923 H2929 0.929 . S
N2924 Mn2917 2.257 . S
N2924 C2923 1.326 . S
N2924 C2928 1.362 . S
C2925 C2926 1.258 . S
C2925 C2928 1.431 . S
C2925 C2945 1.449 . S
C2926 C2925 1.258 . S
C2926 C2927 1.477 . S
C2926 H2946 0.931 . S
C2927 C2923 1.460 . S
C2927 C2926 1.477 . S
C2927 H2947 0.930 . S
C2928 N2924 1.362 . S
C2928 C2925 1.431 . S
C2928 C2938 1.476 . S
H2929 C2923 0.929 . S
C2930 O2921 1.250 . S
C2930 O2922 1.258 . S
O2931 Mn2916 2.162 . S
O2931 C2919 1.281 . S
O2932 Mn2916 2.297 . S
O2932 C2919 1.236 . S
N2933 Mn2917 2.282 . S
N2933 C2934 1.328 . S
N2933 C2938 1.318 . S
C2934 N2933 1.328 . S
C2934 C2935 1.457 . S
C2934 H2939 0.929 . S
C2935 C2934 1.457 . S
C2935 C2936 1.291 . S
C2935 H2948 0.931 . S
C2936 C2935 1.291 . S
C2936 C2937 1.373 . S
C2936 H2949 0.929 . S
C2937 C2936 1.373 . S
C2937 C2938 1.396 . S
C2937 C2944 1.403 . S
C2938 C2928 1.476 . S
C2938 N2933 1.318 . S
C2938 C2937 1.396 . S
H2939 C2934 0.929 . S
O2940 Mn2916 2.385 . S
O2940 C2918 1.234 . S
O2941 Mn2916 2.209 . S
O2941 Mn2917 2.215 . S
O2941 C2918 1.283 . S
O2942 Mn2916 2.094 . S
O2942 C2920 1.240 . S
O2943 Mn2917 2.117 . S
O2943 C2920 1.264 . S
C2944 C2937 1.403 . S
C2944 C2945 1.399 . S
C2944 H2950 0.929 . S
C2945 C2925 1.449 . S
C2945 C2944 1.399 . S
C2945 H2951 0.930 . S
H2946 C2926 0.931 . S
H2947 C2927 0.930 . S
H2948 C2935 0.931 . S
H2949 C2936 0.929 . S
H2950 C2944 0.929 . S
H2951 C2945 0.930 . S
Mn2952 O2957 2.095 . S
Mn2952 O2967 2.162 1_554 S
Mn2952 O2968 2.297 . S
Mn2952 O2976 2.385 . S
Mn2952 O2977 2.209 . S
Mn2952 O2978 2.094 . S
Mn2953 O2958 2.121 . S
Mn2953 N2960 2.257 . S
Mn2953 N2969 2.282 . S
Mn2953 O2977 2.215 . S
Mn2953 O2979 2.117 . S
C2954 O2976 1.234 . S
C2954 O2977 1.283 . S
C2955 O2967 1.279 1_554 S
C2955 O2968 1.239 . S
C2956 O2978 1.240 . S
C2956 O2979 1.264 . S
O2957 Mn2952 2.095 . S
O2957 C2966 1.250 . S
O2958 Mn2953 2.121 . S
O2958 C2966 1.258 . S
C2959 N2960 1.326 . S
C2959 C2963 1.460 . S
C2959 H2965 0.929 . S
N2960 Mn2953 2.257 . S
N2960 C2959 1.326 . S
N2960 C2964 1.362 . S
C2961 C2962 1.258 . S
C2961 C2964 1.431 . S
C2961 C2981 1.449 . S
C2962 C2961 1.258 . S
C2962 C2963 1.477 . S
C2962 H2982 0.931 . S
C2963 C2959 1.460 . S
C2963 C2962 1.477 . S
C2963 H2983 0.930 . S
C2964 N2960 1.362 . S
C2964 C2961 1.431 . S
C2964 C2974 1.476 . S
H2965 C2959 0.929 . S
C2966 O2957 1.250 . S
C2966 O2958 1.258 . S
O2967 Mn2952 2.162 1_556 S
O2967 C2955 1.279 1_556 S
O2968 Mn2952 2.297 . S
O2968 C2955 1.239 . S
N2969 Mn2953 2.282 . S
N2969 C2970 1.328 . S
N2969 C2974 1.318 . S
C2970 N2969 1.328 . S
C2970 C2971 1.457 . S
C2970 H2975 0.929 . S
C2971 C2970 1.457 . S
C2971 C2972 1.291 . S
C2971 H2984 0.931 . S
C2972 C2971 1.291 . S
C2972 C2973 1.373 . S
C2972 H2985 0.929 . S
C2973 C2972 1.373 . S
C2973 C2974 1.396 . S
C2973 C2980 1.403 . S
C2974 C2964 1.476 . S
C2974 N2969 1.318 . S
C2974 C2973 1.396 . S
H2975 C2970 0.929 . S
O2976 Mn2952 2.385 . S
O2976 C2954 1.234 . S
O2977 Mn2952 2.209 . S
O2977 Mn2953 2.215 . S
O2977 C2954 1.283 . S
O2978 Mn2952 2.094 . S
O2978 C2956 1.240 . S
O2979 Mn2953 2.117 . S
O2979 C2956 1.264 . S
C2980 C2973 1.403 . S
C2980 C2981 1.399 . S
C2980 H2986 0.929 . S
C2981 C2961 1.449 . S
C2981 C2980 1.399 . S
C2981 H2987 0.930 . S
H2982 C2962 0.931 . S
H2983 C2963 0.930 . S
H2984 C2971 0.931 . S
H2985 C2972 0.929 . S
H2986 C2980 0.929 . S
H2987 C2981 0.930 . S
Mn2988 O2993 2.095 . S
Mn2988 O3003 2.162 . S
Mn2988 O3004 2.297 . S
Mn2988 O3012 2.385 . S
Mn2988 O3013 2.209 . S
Mn2988 O3014 2.094 . S
Mn2989 O2994 2.121 . S
Mn2989 N2996 2.257 . S
Mn2989 N3005 2.282 . S
Mn2989 O3013 2.215 . S
Mn2989 O3015 2.117 . S
C2990 O3012 1.234 . S
C2990 O3013 1.283 . S
C2991 O3003 1.281 . S
C2991 O3004 1.236 . S
C2992 O3014 1.240 . S
C2992 O3015 1.264 . S
O2993 Mn2988 2.095 . S
O2993 C3002 1.250 . S
O2994 Mn2989 2.121 . S
O2994 C3002 1.258 . S
C2995 N2996 1.326 . S
C2995 C2999 1.460 . S
C2995 H3001 0.929 . S
N2996 Mn2989 2.257 . S
N2996 C2995 1.326 . S
N2996 C3000 1.362 . S
C2997 C2998 1.258 . S
C2997 C3000 1.431 . S
C2997 C3017 1.449 . S
C2998 C2997 1.258 . S
C2998 C2999 1.477 . S
C2998 H3018 0.931 . S
C2999 C2995 1.460 . S
C2999 C2998 1.477 . S
C2999 H3019 0.930 . S
C3000 N2996 1.362 . S
C3000 C2997 1.431 . S
C3000 C3010 1.476 . S
H3001 C2995 0.929 . S
C3002 O2993 1.250 . S
C3002 O2994 1.258 . S
O3003 Mn2988 2.162 . S
O3003 C2991 1.281 . S
O3004 Mn2988 2.297 . S
O3004 C2991 1.236 . S
N3005 Mn2989 2.282 . S
N3005 C3006 1.328 . S
N3005 C3010 1.318 . S
C3006 N3005 1.328 . S
C3006 C3007 1.457 . S
C3006 H3011 0.929 . S
C3007 C3006 1.457 . S
C3007 C3008 1.291 . S
C3007 H3020 0.931 . S
C3008 C3007 1.291 . S
C3008 C3009 1.373 . S
C3008 H3021 0.929 . S
C3009 C3008 1.373 . S
C3009 C3010 1.396 . S
C3009 C3016 1.403 . S
C3010 C3000 1.476 . S
C3010 N3005 1.318 . S
C3010 C3009 1.396 . S
H3011 C3006 0.929 . S
O3012 Mn2988 2.385 . S
O3012 C2990 1.234 . S
O3013 Mn2988 2.209 . S
O3013 Mn2989 2.215 . S
O3013 C2990 1.283 . S
O3014 Mn2988 2.094 . S
O3014 C2992 1.240 . S
O3015 Mn2989 2.117 . S
O3015 C2992 1.264 . S
C3016 C3009 1.403 . S
C3016 C3017 1.399 . S
C3016 H3022 0.929 . S
C3017 C2997 1.449 . S
C3017 C3016 1.399 . S
C3017 H3023 0.930 . S
H3018 C2998 0.931 . S
H3019 C2999 0.930 . S
H3020 C3007 0.931 . S
H3021 C3008 0.929 . S
H3022 C3016 0.929 . S
H3023 C3017 0.930 . S
Mn3024 O3029 2.095 . S
Mn3024 O3039 2.162 . S
Mn3024 O3040 2.297 . S
Mn3024 O3048 2.385 . S
Mn3024 O3049 2.209 . S
Mn3024 O3050 2.094 . S
Mn3025 O3030 2.121 . S
Mn3025 N3032 2.257 . S
Mn3025 N3041 2.282 . S
Mn3025 O3049 2.215 . S
Mn3025 O3051 2.117 . S
C3026 O3048 1.234 . S
C3026 O3049 1.283 . S
C3027 O3039 1.281 . S
C3027 O3040 1.236 . S
C3028 O3050 1.240 . S
C3028 O3051 1.264 . S
O3029 Mn3024 2.095 . S
O3029 C3038 1.250 . S
O3030 Mn3025 2.121 . S
O3030 C3038 1.258 . S
C3031 N3032 1.326 . S
C3031 C3035 1.460 . S
C3031 H3037 0.929 . S
N3032 Mn3025 2.257 . S
N3032 C3031 1.326 . S
N3032 C3036 1.362 . S
C3033 C3034 1.258 . S
C3033 C3036 1.431 . S
C3033 C3053 1.449 . S
C3034 C3033 1.258 . S
C3034 C3035 1.477 . S
C3034 H3054 0.931 . S
C3035 C3031 1.460 . S
C3035 C3034 1.477 . S
C3035 H3055 0.930 . S
C3036 N3032 1.362 . S
C3036 C3033 1.431 . S
C3036 C3046 1.476 . S
H3037 C3031 0.929 . S
C3038 O3029 1.250 . S
C3038 O3030 1.258 . S
O3039 Mn3024 2.162 . S
O3039 C3027 1.281 . S
O3040 Mn3024 2.297 . S
O3040 C3027 1.236 . S
N3041 Mn3025 2.282 . S
N3041 C3042 1.328 . S
N3041 C3046 1.318 . S
C3042 N3041 1.328 . S
C3042 C3043 1.457 . S
C3042 H3047 0.929 . S
C3043 C3042 1.457 . S
C3043 C3044 1.291 . S
C3043 H3056 0.931 . S
C3044 C3043 1.291 . S
C3044 C3045 1.373 . S
C3044 H3057 0.929 . S
C3045 C3044 1.373 . S
C3045 C3046 1.396 . S
C3045 C3052 1.403 . S
C3046 C3036 1.476 . S
C3046 N3041 1.318 . S
C3046 C3045 1.396 . S
H3047 C3042 0.929 . S
O3048 Mn3024 2.385 . S
O3048 C3026 1.234 . S
O3049 Mn3024 2.209 . S
O3049 Mn3025 2.215 . S
O3049 C3026 1.283 . S
O3050 Mn3024 2.094 . S
O3050 C3028 1.240 . S
O3051 Mn3025 2.117 . S
O3051 C3028 1.264 . S
C3052 C3045 1.403 . S
C3052 C3053 1.399 . S
C3052 H3058 0.929 . S
C3053 C3033 1.449 . S
C3053 C3052 1.399 . S
C3053 H3059 0.930 . S
H3054 C3034 0.931 . S
H3055 C3035 0.930 . S
H3056 C3043 0.931 . S
H3057 C3044 0.929 . S
H3058 C3052 0.929 . S
H3059 C3053 0.930 . S
Mn3060 O3065 2.095 . S
Mn3060 O3075 2.162 . S
Mn3060 O3076 2.297 . S
Mn3060 O3084 2.385 . S
Mn3060 O3085 2.209 . S
Mn3060 O3086 2.094 . S
Mn3061 O3066 2.121 . S
Mn3061 N3068 2.257 . S
Mn3061 N3077 2.282 . S
Mn3061 O3085 2.215 . S
Mn3061 O3087 2.117 . S
C3062 O3084 1.234 . S
C3062 O3085 1.283 . S
C3063 O3075 1.281 . S
C3063 O3076 1.236 . S
C3064 O3086 1.240 . S
C3064 O3087 1.264 . S
O3065 Mn3060 2.095 . S
O3065 C3074 1.250 . S
O3066 Mn3061 2.121 . S
O3066 C3074 1.258 . S
C3067 N3068 1.326 . S
C3067 C3071 1.460 . S
C3067 H3073 0.929 . S
N3068 Mn3061 2.257 . S
N3068 C3067 1.326 . S
N3068 C3072 1.362 . S
C3069 C3070 1.258 . S
C3069 C3072 1.431 . S
C3069 C3089 1.449 . S
C3070 C3069 1.258 . S
C3070 C3071 1.477 . S
C3070 H3090 0.931 . S
C3071 C3067 1.460 . S
C3071 C3070 1.477 . S
C3071 H3091 0.930 . S
C3072 N3068 1.362 . S
C3072 C3069 1.431 . S
C3072 C3082 1.476 . S
H3073 C3067 0.929 . S
C3074 O3065 1.250 . S
C3074 O3066 1.258 . S
O3075 Mn3060 2.162 . S
O3075 C3063 1.281 . S
O3076 Mn3060 2.297 . S
O3076 C3063 1.236 . S
N3077 Mn3061 2.282 . S
N3077 C3078 1.328 . S
N3077 C3082 1.318 . S
C3078 N3077 1.328 . S
C3078 C3079 1.457 . S
C3078 H3083 0.929 . S
C3079 C3078 1.457 . S
C3079 C3080 1.291 . S
C3079 H3092 0.931 . S
C3080 C3079 1.291 . S
C3080 C3081 1.373 . S
C3080 H3093 0.929 . S
C3081 C3080 1.373 . S
C3081 C3082 1.396 . S
C3081 C3088 1.403 . S
C3082 C3072 1.476 . S
C3082 N3077 1.318 . S
C3082 C3081 1.396 . S
H3083 C3078 0.929 . S
O3084 Mn3060 2.385 . S
O3084 C3062 1.234 . S
O3085 Mn3060 2.209 . S
O3085 Mn3061 2.215 . S
O3085 C3062 1.283 . S
O3086 Mn3060 2.094 . S
O3086 C3064 1.240 . S
O3087 Mn3061 2.117 . S
O3087 C3064 1.264 . S
C3088 C3081 1.403 . S
C3088 C3089 1.399 . S
C3088 H3094 0.929 . S
C3089 C3069 1.449 . S
C3089 C3088 1.399 . S
C3089 H3095 0.930 . S
H3090 C3070 0.931 . S
H3091 C3071 0.930 . S
H3092 C3079 0.931 . S
H3093 C3080 0.929 . S
H3094 C3088 0.929 . S
H3095 C3089 0.930 . S
Mn3096 O3101 2.095 . S
Mn3096 O3111 2.162 1_556 S
Mn3096 O3112 2.297 . S
Mn3096 O3120 2.385 . S
Mn3096 O3121 2.209 . S
Mn3096 O3122 2.094 . S
Mn3097 O3102 2.121 . S
Mn3097 N3104 2.257 . S
Mn3097 N3113 2.282 . S
Mn3097 O3121 2.215 . S
Mn3097 O3123 2.117 . S
C3098 O3120 1.234 . S
C3098 O3121 1.283 . S
C3099 O3111 1.279 1_556 S
C3099 O3112 1.239 . S
C3100 O3122 1.240 . S
C3100 O3123 1.264 . S
O3101 Mn3096 2.095 . S
O3101 C3110 1.250 . S
O3102 Mn3097 2.121 . S
O3102 C3110 1.258 . S
C3103 N3104 1.326 . S
C3103 C3107 1.460 . S
C3103 H3109 0.929 . S
N3104 Mn3097 2.257 . S
N3104 C3103 1.326 . S
N3104 C3108 1.362 . S
C3105 C3106 1.258 . S
C3105 C3108 1.431 . S
C3105 C3125 1.449 . S
C3106 C3105 1.258 . S
C3106 C3107 1.477 . S
C3106 H3126 0.931 . S
C3107 C3103 1.460 . S
C3107 C3106 1.477 . S
C3107 H3127 0.930 . S
C3108 N3104 1.362 . S
C3108 C3105 1.431 . S
C3108 C3118 1.476 . S
H3109 C3103 0.929 . S
C3110 O3101 1.250 . S
C3110 O3102 1.258 . S
O3111 Mn3096 2.162 1_554 S
O3111 C3099 1.279 1_554 S
O3112 Mn3096 2.297 . S
O3112 C3099 1.239 . S
N3113 Mn3097 2.282 . S
N3113 C3114 1.328 . S
N3113 C3118 1.318 . S
C3114 N3113 1.328 . S
C3114 C3115 1.457 . S
C3114 H3119 0.929 . S
C3115 C3114 1.457 . S
C3115 C3116 1.291 . S
C3115 H3128 0.931 . S
C3116 C3115 1.291 . S
C3116 C3117 1.373 . S
C3116 H3129 0.929 . S
C3117 C3116 1.373 . S
C3117 C3118 1.396 . S
C3117 C3124 1.403 . S
C3118 C3108 1.476 . S
C3118 N3113 1.318 . S
C3118 C3117 1.396 . S
H3119 C3114 0.929 . S
O3120 Mn3096 2.385 . S
O3120 C3098 1.234 . S
O3121 Mn3096 2.209 . S
O3121 Mn3097 2.215 . S
O3121 C3098 1.283 . S
O3122 Mn3096 2.094 . S
O3122 C3100 1.240 . S
O3123 Mn3097 2.117 . S
O3123 C3100 1.264 . S
C3124 C3117 1.403 . S
C3124 C3125 1.399 . S
C3124 H3130 0.929 . S
C3125 C3105 1.449 . S
C3125 C3124 1.399 . S
C3125 H3131 0.930 . S
H3126 C3106 0.931 . S
H3127 C3107 0.930 . S
H3128 C3115 0.931 . S
H3129 C3116 0.929 . S
H3130 C3124 0.929 . S
H3131 C3125 0.930 . S
Mn3132 O3137 2.095 . S
Mn3132 O3147 2.162 . S
Mn3132 O3148 2.297 . S
Mn3132 O3156 2.385 . S
Mn3132 O3157 2.209 . S
Mn3132 O3158 2.094 . S
Mn3133 O3138 2.121 . S
Mn3133 N3140 2.257 . S
Mn3133 N3149 2.282 . S
Mn3133 O3157 2.215 . S
Mn3133 O3159 2.117 . S
C3134 O3156 1.234 . S
C3134 O3157 1.283 . S
C3135 O3147 1.281 . S
C3135 O3148 1.236 . S
C3136 O3158 1.240 . S
C3136 O3159 1.264 . S
O3137 Mn3132 2.095 . S
O3137 C3146 1.250 . S
O3138 Mn3133 2.121 . S
O3138 C3146 1.258 . S
C3139 N3140 1.326 . S
C3139 C3143 1.460 . S
C3139 H3145 0.929 . S
N3140 Mn3133 2.257 . S
N3140 C3139 1.326 . S
N3140 C3144 1.362 . S
C3141 C3142 1.258 . S
C3141 C3144 1.431 . S
C3141 C3161 1.449 . S
C3142 C3141 1.258 . S
C3142 C3143 1.477 . S
C3142 H3162 0.931 . S
C3143 C3139 1.460 . S
C3143 C3142 1.477 . S
C3143 H3163 0.930 . S
C3144 N3140 1.362 . S
C3144 C3141 1.431 . S
C3144 C3154 1.476 . S
H3145 C3139 0.929 . S
C3146 O3137 1.250 . S
C3146 O3138 1.258 . S
O3147 Mn3132 2.162 . S
O3147 C3135 1.281 . S
O3148 Mn3132 2.297 . S
O3148 C3135 1.236 . S
N3149 Mn3133 2.282 . S
N3149 C3150 1.328 . S
N3149 C3154 1.318 . S
C3150 N3149 1.328 . S
C3150 C3151 1.457 . S
C3150 H3155 0.929 . S
C3151 C3150 1.457 . S
C3151 C3152 1.291 . S
C3151 H3164 0.931 . S
C3152 C3151 1.291 . S
C3152 C3153 1.373 . S
C3152 H3165 0.929 . S
C3153 C3152 1.373 . S
C3153 C3154 1.396 . S
C3153 C3160 1.403 . S
C3154 C3144 1.476 . S
C3154 N3149 1.318 . S
C3154 C3153 1.396 . S
H3155 C3150 0.929 . S
O3156 Mn3132 2.385 . S
O3156 C3134 1.234 . S
O3157 Mn3132 2.209 . S
O3157 Mn3133 2.215 . S
O3157 C3134 1.283 . S
O3158 Mn3132 2.094 . S
O3158 C3136 1.240 . S
O3159 Mn3133 2.117 . S
O3159 C3136 1.264 . S
C3160 C3153 1.403 . S
C3160 C3161 1.399 . S
C3160 H3166 0.929 . S
C3161 C3141 1.449 . S
C3161 C3160 1.399 . S
C3161 H3167 0.930 . S
H3162 C3142 0.931 . S
H3163 C3143 0.930 . S
H3164 C3151 0.931 . S
H3165 C3152 0.929 . S
H3166 C3160 0.929 . S
H3167 C3161 0.930 . S
Mn3168 O3173 2.095 . S
Mn3168 O3183 2.162 1_455 S
Mn3168 O3184 2.297 . S
Mn3168 O3192 2.385 . S
Mn3168 O3193 2.209 . S
Mn3168 O3194 2.094 . S
Mn3169 O3174 2.121 . S
Mn3169 N3176 2.257 . S
Mn3169 N3185 2.282 . S
Mn3169 O3193 2.215 . S
Mn3169 O3195 2.117 . S
C3170 O3192 1.234 . S
C3170 O3193 1.283 . S
C3171 O3183 1.279 1_455 S
C3171 O3184 1.239 . S
C3172 O3194 1.240 . S
C3172 O3195 1.264 . S
O3173 Mn3168 2.095 . S
O3173 C3182 1.250 . S
O3174 Mn3169 2.121 . S
O3174 C3182 1.258 . S
C3175 N3176 1.326 . S
C3175 C3179 1.460 . S
C3175 H3181 0.929 . S
N3176 Mn3169 2.257 . S
N3176 C3175 1.326 . S
N3176 C3180 1.362 . S
C3177 C3178 1.258 . S
C3177 C3180 1.431 . S
C3177 C3197 1.449 . S
C3178 C3177 1.258 . S
C3178 C3179 1.477 . S
C3178 H3198 0.931 . S
C3179 C3175 1.460 . S
C3179 C3178 1.477 . S
C3179 H3199 0.930 . S
C3180 N3176 1.362 . S
C3180 C3177 1.431 . S
C3180 C3190 1.476 . S
H3181 C3175 0.929 . S
C3182 O3173 1.250 . S
C3182 O3174 1.258 . S
O3183 Mn3168 2.162 1_655 S
O3183 C3171 1.279 1_655 S
O3184 Mn3168 2.297 . S
O3184 C3171 1.239 . S
N3185 Mn3169 2.282 . S
N3185 C3186 1.328 . S
N3185 C3190 1.318 . S
C3186 N3185 1.328 . S
C3186 C3187 1.457 . S
C3186 H3191 0.929 . S
C3187 C3186 1.457 . S
C3187 C3188 1.291 . S
C3187 H3200 0.931 . S
C3188 C3187 1.291 . S
C3188 C3189 1.373 . S
C3188 H3201 0.929 . S
C3189 C3188 1.373 . S
C3189 C3190 1.396 . S
C3189 C3196 1.403 . S
C3190 C3180 1.476 . S
C3190 N3185 1.318 . S
C3190 C3189 1.396 . S
H3191 C3186 0.929 . S
O3192 Mn3168 2.385 . S
O3192 C3170 1.234 . S
O3193 Mn3168 2.209 . S
O3193 Mn3169 2.215 . S
O3193 C3170 1.283 . S
O3194 Mn3168 2.094 . S
O3194 C3172 1.240 . S
O3195 Mn3169 2.117 . S
O3195 C3172 1.264 . S
C3196 C3189 1.403 . S
C3196 C3197 1.399 . S
C3196 H3202 0.929 . S
C3197 C3177 1.449 . S
C3197 C3196 1.399 . S
C3197 H3203 0.930 . S
H3198 C3178 0.931 . S
H3199 C3179 0.930 . S
H3200 C3187 0.931 . S
H3201 C3188 0.929 . S
H3202 C3196 0.929 . S
H3203 C3197 0.930 . S
Mn3204 O3209 2.095 . S
Mn3204 O3219 2.162 . S
Mn3204 O3220 2.297 . S
Mn3204 O3228 2.385 . S
Mn3204 O3229 2.209 . S
Mn3204 O3230 2.094 . S
Mn3205 O3210 2.121 . S
Mn3205 N3212 2.257 . S
Mn3205 N3221 2.282 . S
Mn3205 O3229 2.215 . S
Mn3205 O3231 2.117 . S
C3206 O3228 1.234 . S
C3206 O3229 1.283 . S
C3207 O3219 1.281 . S
C3207 O3220 1.236 . S
C3208 O3230 1.240 . S
C3208 O3231 1.264 . S
O3209 Mn3204 2.095 . S
O3209 C3218 1.250 . S
O3210 Mn3205 2.121 . S
O3210 C3218 1.258 . S
C3211 N3212 1.326 . S
C3211 C3215 1.460 . S
C3211 H3217 0.929 . S
N3212 Mn3205 2.257 . S
N3212 C3211 1.326 . S
N3212 C3216 1.362 . S
C3213 C3214 1.258 . S
C3213 C3216 1.431 . S
C3213 C3233 1.449 . S
C3214 C3213 1.258 . S
C3214 C3215 1.477 . S
C3214 H3234 0.931 . S
C3215 C3211 1.460 . S
C3215 C3214 1.477 . S
C3215 H3235 0.930 . S
C3216 N3212 1.362 . S
C3216 C3213 1.431 . S
C3216 C3226 1.476 . S
H3217 C3211 0.929 . S
C3218 O3209 1.250 . S
C3218 O3210 1.258 . S
O3219 Mn3204 2.162 . S
O3219 C3207 1.281 . S
O3220 Mn3204 2.297 . S
O3220 C3207 1.236 . S
N3221 Mn3205 2.282 . S
N3221 C3222 1.328 . S
N3221 C3226 1.318 . S
C3222 N3221 1.328 . S
C3222 C3223 1.457 . S
C3222 H3227 0.929 . S
C3223 C3222 1.457 . S
C3223 C3224 1.291 . S
C3223 H3236 0.931 . S
C3224 C3223 1.291 . S
C3224 C3225 1.373 . S
C3224 H3237 0.929 . S
C3225 C3224 1.373 . S
C3225 C3226 1.396 . S
C3225 C3232 1.403 . S
C3226 C3216 1.476 . S
C3226 N3221 1.318 . S
C3226 C3225 1.396 . S
H3227 C3222 0.929 . S
O3228 Mn3204 2.385 . S
O3228 C3206 1.234 . S
O3229 Mn3204 2.209 . S
O3229 Mn3205 2.215 . S
O3229 C3206 1.283 . S
O3230 Mn3204 2.094 . S
O3230 C3208 1.240 . S
O3231 Mn3205 2.117 . S
O3231 C3208 1.264 . S
C3232 C3225 1.403 . S
C3232 C3233 1.399 . S
C3232 H3238 0.929 . S
C3233 C3213 1.449 . S
C3233 C3232 1.399 . S
C3233 H3239 0.930 . S
H3234 C3214 0.931 . S
H3235 C3215 0.930 . S
H3236 C3223 0.931 . S
H3237 C3224 0.929 . S
H3238 C3232 0.929 . S
H3239 C3233 0.930 . S
Mn3240 O3245 2.095 . S
Mn3240 O3255 2.162 . S
Mn3240 O3256 2.297 . S
Mn3240 O3264 2.385 . S
Mn3240 O3265 2.209 . S
Mn3240 O3266 2.094 . S
Mn3241 O3246 2.121 . S
Mn3241 N3248 2.257 . S
Mn3241 N3257 2.282 . S
Mn3241 O3265 2.215 . S
Mn3241 O3267 2.117 . S
C3242 O3264 1.234 . S
C3242 O3265 1.283 . S
C3243 O3255 1.281 . S
C3243 O3256 1.236 . S
C3244 O3266 1.240 . S
C3244 O3267 1.264 . S
O3245 Mn3240 2.095 . S
O3245 C3254 1.250 . S
O3246 Mn3241 2.121 . S
O3246 C3254 1.258 . S
C3247 N3248 1.326 . S
C3247 C3251 1.460 . S
C3247 H3253 0.929 . S
N3248 Mn3241 2.257 . S
N3248 C3247 1.326 . S
N3248 C3252 1.362 . S
C3249 C3250 1.258 . S
C3249 C3252 1.431 . S
C3249 C3269 1.449 . S
C3250 C3249 1.258 . S
C3250 C3251 1.477 . S
C3250 H3270 0.931 . S
C3251 C3247 1.460 . S
C3251 C3250 1.477 . S
C3251 H3271 0.930 . S
C3252 N3248 1.362 . S
C3252 C3249 1.431 . S
C3252 C3262 1.476 . S
H3253 C3247 0.929 . S
C3254 O3245 1.250 . S
C3254 O3246 1.258 . S
O3255 Mn3240 2.162 . S
O3255 C3243 1.281 . S
O3256 Mn3240 2.297 . S
O3256 C3243 1.236 . S
N3257 Mn3241 2.282 . S
N3257 C3258 1.328 . S
N3257 C3262 1.318 . S
C3258 N3257 1.328 . S
C3258 C3259 1.457 . S
C3258 H3263 0.929 . S
C3259 C3258 1.457 . S
C3259 C3260 1.291 . S
C3259 H3272 0.931 . S
C3260 C3259 1.291 . S
C3260 C3261 1.373 . S
C3260 H3273 0.929 . S
C3261 C3260 1.373 . S
C3261 C3262 1.396 . S
C3261 C3268 1.403 . S
C3262 C3252 1.476 . S
C3262 N3257 1.318 . S
C3262 C3261 1.396 . S
H3263 C3258 0.929 . S
O3264 Mn3240 2.385 . S
O3264 C3242 1.234 . S
O3265 Mn3240 2.209 . S
O3265 Mn3241 2.215 . S
O3265 C3242 1.283 . S
O3266 Mn3240 2.094 . S
O3266 C3244 1.240 . S
O3267 Mn3241 2.117 . S
O3267 C3244 1.264 . S
C3268 C3261 1.403 . S
C3268 C3269 1.399 . S
C3268 H3274 0.929 . S
C3269 C3249 1.449 . S
C3269 C3268 1.399 . S
C3269 H3275 0.930 . S
H3270 C3250 0.931 . S
H3271 C3251 0.930 . S
H3272 C3259 0.931 . S
H3273 C3260 0.929 . S
H3274 C3268 0.929 . S
H3275 C3269 0.930 . S
Mn3276 O3281 2.095 . S
Mn3276 O3291 2.162 . S
Mn3276 O3292 2.297 . S
Mn3276 O3300 2.385 . S
Mn3276 O3301 2.209 . S
Mn3276 O3302 2.094 . S
Mn3277 O3282 2.121 . S
Mn3277 N3284 2.257 . S
Mn3277 N3293 2.282 . S
Mn3277 O3301 2.215 . S
Mn3277 O3303 2.117 . S
C3278 O3300 1.234 . S
C3278 O3301 1.283 . S
C3279 O3291 1.281 . S
C3279 O3292 1.236 . S
C3280 O3302 1.240 . S
C3280 O3303 1.264 . S
O3281 Mn3276 2.095 . S
O3281 C3290 1.250 . S
O3282 Mn3277 2.121 . S
O3282 C3290 1.258 . S
C3283 N3284 1.326 . S
C3283 C3287 1.460 . S
C3283 H3289 0.929 . S
N3284 Mn3277 2.257 . S
N3284 C3283 1.326 . S
N3284 C3288 1.362 . S
C3285 C3286 1.258 . S
C3285 C3288 1.431 . S
C3285 C3305 1.449 . S
C3286 C3285 1.258 . S
C3286 C3287 1.477 . S
C3286 H3306 0.931 . S
C3287 C3283 1.460 . S
C3287 C3286 1.477 . S
C3287 H3307 0.930 . S
C3288 N3284 1.362 . S
C3288 C3285 1.431 . S
C3288 C3298 1.476 . S
H3289 C3283 0.929 . S
C3290 O3281 1.250 . S
C3290 O3282 1.258 . S
O3291 Mn3276 2.162 . S
O3291 C3279 1.281 . S
O3292 Mn3276 2.297 . S
O3292 C3279 1.236 . S
N3293 Mn3277 2.282 . S
N3293 C3294 1.328 . S
N3293 C3298 1.318 . S
C3294 N3293 1.328 . S
C3294 C3295 1.457 . S
C3294 H3299 0.929 . S
C3295 C3294 1.457 . S
C3295 C3296 1.291 . S
C3295 H3308 0.931 . S
C3296 C3295 1.291 . S
C3296 C3297 1.373 . S
C3296 H3309 0.929 . S
C3297 C3296 1.373 . S
C3297 C3298 1.396 . S
C3297 C3304 1.403 . S
C3298 C3288 1.476 . S
C3298 N3293 1.318 . S
C3298 C3297 1.396 . S
H3299 C3294 0.929 . S
O3300 Mn3276 2.385 . S
O3300 C3278 1.234 . S
O3301 Mn3276 2.209 . S
O3301 Mn3277 2.215 . S
O3301 C3278 1.283 . S
O3302 Mn3276 2.094 . S
O3302 C3280 1.240 . S
O3303 Mn3277 2.117 . S
O3303 C3280 1.264 . S
C3304 C3297 1.403 . S
C3304 C3305 1.399 . S
C3304 H3310 0.929 . S
C3305 C3285 1.449 . S
C3305 C3304 1.399 . S
C3305 H3311 0.930 . S
H3306 C3286 0.931 . S
H3307 C3287 0.930 . S
H3308 C3295 0.931 . S
H3309 C3296 0.929 . S
H3310 C3304 0.929 . S
H3311 C3305 0.930 . S
Mn3312 O3317 2.095 . S
Mn3312 O3327 2.162 . S
Mn3312 O3328 2.297 . S
Mn3312 O3336 2.385 . S
Mn3312 O3337 2.209 . S
Mn3312 O3338 2.094 . S
Mn3313 O3318 2.121 . S
Mn3313 N3320 2.257 . S
Mn3313 N3329 2.282 . S
Mn3313 O3337 2.215 . S
Mn3313 O3339 2.117 . S
C3314 O3336 1.234 . S
C3314 O3337 1.283 . S
C3315 O3327 1.281 . S
C3315 O3328 1.236 . S
C3316 O3338 1.240 . S
C3316 O3339 1.264 . S
O3317 Mn3312 2.095 . S
O3317 C3326 1.250 . S
O3318 Mn3313 2.121 . S
O3318 C3326 1.258 . S
C3319 N3320 1.326 . S
C3319 C3323 1.460 . S
C3319 H3325 0.929 . S
N3320 Mn3313 2.257 . S
N3320 C3319 1.326 . S
N3320 C3324 1.362 . S
C3321 C3322 1.258 . S
C3321 C3324 1.431 . S
C3321 C3341 1.449 . S
C3322 C3321 1.258 . S
C3322 C3323 1.477 . S
C3322 H3342 0.931 . S
C3323 C3319 1.460 . S
C3323 C3322 1.477 . S
C3323 H3343 0.930 . S
C3324 N3320 1.362 . S
C3324 C3321 1.431 . S
C3324 C3334 1.476 . S
H3325 C3319 0.929 . S
C3326 O3317 1.250 . S
C3326 O3318 1.258 . S
O3327 Mn3312 2.162 . S
O3327 C3315 1.281 . S
O3328 Mn3312 2.297 . S
O3328 C3315 1.236 . S
N3329 Mn3313 2.282 . S
N3329 C3330 1.328 . S
N3329 C3334 1.318 . S
C3330 N3329 1.328 . S
C3330 C3331 1.457 . S
C3330 H3335 0.929 . S
C3331 C3330 1.457 . S
C3331 C3332 1.291 . S
C3331 H3344 0.931 . S
C3332 C3331 1.291 . S
C3332 C3333 1.373 . S
C3332 H3345 0.929 . S
C3333 C3332 1.373 . S
C3333 C3334 1.396 . S
C3333 C3340 1.403 . S
C3334 C3324 1.476 . S
C3334 N3329 1.318 . S
C3334 C3333 1.396 . S
H3335 C3330 0.929 . S
O3336 Mn3312 2.385 . S
O3336 C3314 1.234 . S
O3337 Mn3312 2.209 . S
O3337 Mn3313 2.215 . S
O3337 C3314 1.283 . S
O3338 Mn3312 2.094 . S
O3338 C3316 1.240 . S
O3339 Mn3313 2.117 . S
O3339 C3316 1.264 . S
C3340 C3333 1.403 . S
C3340 C3341 1.399 . S
C3340 H3346 0.929 . S
C3341 C3321 1.449 . S
C3341 C3340 1.399 . S
C3341 H3347 0.930 . S
H3342 C3322 0.931 . S
H3343 C3323 0.930 . S
H3344 C3331 0.931 . S
H3345 C3332 0.929 . S
H3346 C3340 0.929 . S
H3347 C3341 0.930 . S
Mn3348 O3353 2.095 . S
Mn3348 O3363 2.162 1_655 S
Mn3348 O3364 2.297 . S
Mn3348 O3372 2.385 . S
Mn3348 O3373 2.209 . S
Mn3348 O3374 2.094 . S
Mn3349 O3354 2.121 . S
Mn3349 N3356 2.257 . S
Mn3349 N3365 2.282 . S
Mn3349 O3373 2.215 . S
Mn3349 O3375 2.117 . S
C3350 O3372 1.234 . S
C3350 O3373 1.283 . S
C3351 O3363 1.279 1_655 S
C3351 O3364 1.239 . S
C3352 O3374 1.240 . S
C3352 O3375 1.264 . S
O3353 Mn3348 2.095 . S
O3353 C3362 1.250 . S
O3354 Mn3349 2.121 . S
O3354 C3362 1.258 . S
C3355 N3356 1.326 . S
C3355 C3359 1.460 . S
C3355 H3361 0.929 . S
N3356 Mn3349 2.257 . S
N3356 C3355 1.326 . S
N3356 C3360 1.362 . S
C3357 C3358 1.258 . S
C3357 C3360 1.431 . S
C3357 C3377 1.449 . S
C3358 C3357 1.258 . S
C3358 C3359 1.477 . S
C3358 H3378 0.931 . S
C3359 C3355 1.460 . S
C3359 C3358 1.477 . S
C3359 H3379 0.930 . S
C3360 N3356 1.362 . S
C3360 C3357 1.431 . S
C3360 C3370 1.476 . S
H3361 C3355 0.929 . S
C3362 O3353 1.250 . S
C3362 O3354 1.258 . S
O3363 Mn3348 2.162 1_455 S
O3363 C3351 1.279 1_455 S
O3364 Mn3348 2.297 . S
O3364 C3351 1.239 . S
N3365 Mn3349 2.282 . S
N3365 C3366 1.328 . S
N3365 C3370 1.318 . S
C3366 N3365 1.328 . S
C3366 C3367 1.457 . S
C3366 H3371 0.929 . S
C3367 C3366 1.457 . S
C3367 C3368 1.291 . S
C3367 H3380 0.931 . S
C3368 C3367 1.291 . S
C3368 C3369 1.373 . S
C3368 H3381 0.929 . S
C3369 C3368 1.373 . S
C3369 C3370 1.396 . S
C3369 C3376 1.403 . S
C3370 C3360 1.476 . S
C3370 N3365 1.318 . S
C3370 C3369 1.396 . S
H3371 C3366 0.929 . S
O3372 Mn3348 2.385 . S
O3372 C3350 1.234 . S
O3373 Mn3348 2.209 . S
O3373 Mn3349 2.215 . S
O3373 C3350 1.283 . S
O3374 Mn3348 2.094 . S
O3374 C3352 1.240 . S
O3375 Mn3349 2.117 . S
O3375 C3352 1.264 . S
C3376 C3369 1.403 . S
C3376 C3377 1.399 . S
C3376 H3382 0.929 . S
C3377 C3357 1.449 . S
C3377 C3376 1.399 . S
C3377 H3383 0.930 . S
H3378 C3358 0.931 . S
H3379 C3359 0.930 . S
H3380 C3367 0.931 . S
H3381 C3368 0.929 . S
H3382 C3376 0.929 . S
H3383 C3377 0.930 . S
Mn3384 O3389 2.095 . S
Mn3384 O3399 2.162 . S
Mn3384 O3400 2.297 . S
Mn3384 O3408 2.385 . S
Mn3384 O3409 2.209 . S
Mn3384 O3410 2.094 . S
Mn3385 O3390 2.121 . S
Mn3385 N3392 2.257 . S
Mn3385 N3401 2.282 . S
Mn3385 O3409 2.215 . S
Mn3385 O3411 2.117 . S
C3386 O3408 1.234 . S
C3386 O3409 1.283 . S
C3387 O3399 1.281 . S
C3387 O3400 1.236 . S
C3388 O3410 1.240 . S
C3388 O3411 1.264 . S
O3389 Mn3384 2.095 . S
O3389 C3398 1.250 . S
O3390 Mn3385 2.121 . S
O3390 C3398 1.258 . S
C3391 N3392 1.326 . S
C3391 C3395 1.460 . S
C3391 H3397 0.929 . S
N3392 Mn3385 2.257 . S
N3392 C3391 1.326 . S
N3392 C3396 1.362 . S
C3393 C3394 1.258 . S
C3393 C3396 1.431 . S
C3393 C3413 1.449 . S
C3394 C3393 1.258 . S
C3394 C3395 1.477 . S
C3394 H3414 0.931 . S
C3395 C3391 1.460 . S
C3395 C3394 1.477 . S
C3395 H3415 0.930 . S
C3396 N3392 1.362 . S
C3396 C3393 1.431 . S
C3396 C3406 1.476 . S
H3397 C3391 0.929 . S
C3398 O3389 1.250 . S
C3398 O3390 1.258 . S
O3399 Mn3384 2.162 . S
O3399 C3387 1.281 . S
O3400 Mn3384 2.297 . S
O3400 C3387 1.236 . S
N3401 Mn3385 2.282 . S
N3401 C3402 1.328 . S
N3401 C3406 1.318 . S
C3402 N3401 1.328 . S
C3402 C3403 1.457 . S
C3402 H3407 0.929 . S
C3403 C3402 1.457 . S
C3403 C3404 1.291 . S
C3403 H3416 0.931 . S
C3404 C3403 1.291 . S
C3404 C3405 1.373 . S
C3404 H3417 0.929 . S
C3405 C3404 1.373 . S
C3405 C3406 1.396 . S
C3405 C3412 1.403 . S
C3406 C3396 1.476 . S
C3406 N3401 1.318 . S
C3406 C3405 1.396 . S
H3407 C3402 0.929 . S
O3408 Mn3384 2.385 . S
O3408 C3386 1.234 . S
O3409 Mn3384 2.209 . S
O3409 Mn3385 2.215 . S
O3409 C3386 1.283 . S
O3410 Mn3384 2.094 . S
O3410 C3388 1.240 . S
O3411 Mn3385 2.117 . S
O3411 C3388 1.264 . S
C3412 C3405 1.403 . S
C3412 C3413 1.399 . S
C3412 H3418 0.929 . S
C3413 C3393 1.449 . S
C3413 C3412 1.399 . S
C3413 H3419 0.930 . S
H3414 C3394 0.931 . S
H3415 C3395 0.930 . S
H3416 C3403 0.931 . S
H3417 C3404 0.929 . S
H3418 C3412 0.929 . S
H3419 C3413 0.930 . S
Mn3420 O3425 2.095 . S
Mn3420 O3435 2.162 . S
Mn3420 O3436 2.297 . S
Mn3420 O3444 2.385 . S
Mn3420 O3445 2.209 . S
Mn3420 O3446 2.094 . S
Mn3421 O3426 2.121 . S
Mn3421 N3428 2.257 . S
Mn3421 N3437 2.282 . S
Mn3421 O3445 2.215 . S
Mn3421 O3447 2.117 . S
C3422 O3444 1.234 . S
C3422 O3445 1.283 . S
C3423 O3435 1.281 . S
C3423 O3436 1.236 . S
C3424 O3446 1.240 . S
C3424 O3447 1.264 . S
O3425 Mn3420 2.095 . S
O3425 C3434 1.250 . S
O3426 Mn3421 2.121 . S
O3426 C3434 1.258 . S
C3427 N3428 1.326 . S
C3427 C3431 1.460 . S
C3427 H3433 0.929 . S
N3428 Mn3421 2.257 . S
N3428 C3427 1.326 . S
N3428 C3432 1.362 . S
C3429 C3430 1.258 . S
C3429 C3432 1.431 . S
C3429 C3449 1.449 . S
C3430 C3429 1.258 . S
C3430 C3431 1.477 . S
C3430 H3450 0.931 . S
C3431 C3427 1.460 . S
C3431 C3430 1.477 . S
C3431 H3451 0.930 . S
C3432 N3428 1.362 . S
C3432 C3429 1.431 . S
C3432 C3442 1.476 . S
H3433 C3427 0.929 . S
C3434 O3425 1.250 . S
C3434 O3426 1.258 . S
O3435 Mn3420 2.162 . S
O3435 C3423 1.281 . S
O3436 Mn3420 2.297 . S
O3436 C3423 1.236 . S
N3437 Mn3421 2.282 . S
N3437 C3438 1.328 . S
N3437 C3442 1.318 . S
C3438 N3437 1.328 . S
C3438 C3439 1.457 . S
C3438 H3443 0.929 . S
C3439 C3438 1.457 . S
C3439 C3440 1.291 . S
C3439 H3452 0.931 . S
C3440 C3439 1.291 . S
C3440 C3441 1.373 . S
C3440 H3453 0.929 . S
C3441 C3440 1.373 . S
C3441 C3442 1.396 . S
C3441 C3448 1.403 . S
C3442 C3432 1.476 . S
C3442 N3437 1.318 . S
C3442 C3441 1.396 . S
H3443 C3438 0.929 . S
O3444 Mn3420 2.385 . S
O3444 C3422 1.234 . S
O3445 Mn3420 2.209 . S
O3445 Mn3421 2.215 . S
O3445 C3422 1.283 . S
O3446 Mn3420 2.094 . S
O3446 C3424 1.240 . S
O3447 Mn3421 2.117 . S
O3447 C3424 1.264 . S
C3448 C3441 1.403 . S
C3448 C3449 1.399 . S
C3448 H3454 0.929 . S
C3449 C3429 1.449 . S
C3449 C3448 1.399 . S
C3449 H3455 0.930 . S
H3450 C3430 0.931 . S
H3451 C3431 0.930 . S
H3452 C3439 0.931 . S
H3453 C3440 0.929 . S
H3454 C3448 0.929 . S
H3455 C3449 0.930 . S
C3456 C3457 1.387 . S
C3456 H3460 0.950 . S
C3456 C3465 1.390 . S
C3457 C3456 1.387 . S
C3457 C3459 1.387 . S
H3458 C3465 0.950 . S
C3459 C3457 1.387 . S
C3459 C3461 1.390 . S
C3459 H3463 0.950 . S
H3460 C3456 0.950 . S
C3461 C3459 1.390 . S
C3461 C3462 1.387 . S
C3461 H3464 0.950 . S
C3462 C3461 1.387 . S
C3462 C3465 1.387 . S
H3463 C3459 0.950 . S
H3464 C3461 0.950 . S
C3465 C3456 1.390 . S
C3465 H3458 0.950 . S
C3465 C3462 1.387 . S
C3466 C3467 1.387 . S
C3466 H3470 0.950 . S
C3466 C3475 1.390 . S
C3467 C3466 1.387 . S
C3467 C3469 1.387 . S
H3468 C3475 0.950 . S
C3469 C3467 1.387 . S
C3469 C3471 1.390 . S
C3469 H3473 0.950 . S
H3470 C3466 0.950 . S
C3471 C3469 1.390 . S
C3471 C3472 1.387 . S
C3471 H3474 0.950 . S
C3472 C3471 1.387 . S
C3472 C3475 1.387 . S
H3473 C3469 0.950 . S
H3474 C3471 0.950 . S
C3475 C3466 1.390 . S
C3475 H3468 0.950 . S
C3475 C3472 1.387 . S
C3476 C3477 1.387 . S
C3476 H3480 0.950 . S
C3476 C3485 1.390 . S
C3477 C3476 1.387 . S
C3477 C3479 1.387 . S
H3478 C3485 0.950 . S
C3479 C3477 1.387 . S
C3479 C3481 1.390 . S
C3479 H3483 0.950 . S
H3480 C3476 0.950 . S
C3481 C3479 1.390 . S
C3481 C3482 1.387 . S
C3481 H3484 0.950 . S
C3482 C3481 1.387 . S
C3482 C3485 1.387 . S
H3483 C3479 0.950 . S
H3484 C3481 0.950 . S
C3485 C3476 1.390 . S
C3485 H3478 0.950 . S
C3485 C3482 1.387 . S
C3486 C3487 1.387 . S
C3486 H3490 0.950 . S
C3486 C3495 1.390 . S
C3487 C3486 1.387 . S
C3487 C3489 1.387 . S
H3488 C3495 0.950 . S
C3489 C3487 1.387 . S
C3489 C3491 1.390 . S
C3489 H3493 0.950 . S
H3490 C3486 0.950 . S
C3491 C3489 1.390 . S
C3491 C3492 1.387 . S
C3491 H3494 0.950 . S
C3492 C3491 1.387 . S
C3492 C3495 1.387 . S
H3493 C3489 0.950 . S
H3494 C3491 0.950 . S
C3495 C3486 1.390 . S
C3495 H3488 0.950 . S
C3495 C3492 1.387 . S
C3496 C3497 1.387 . S
C3496 H3500 0.950 . S
C3496 C3505 1.390 . S
C3497 C3496 1.387 . S
C3497 C3499 1.387 . S
H3498 C3505 0.950 . S
C3499 C3497 1.387 . S
C3499 C3501 1.390 . S
C3499 H3503 0.950 . S
H3500 C3496 0.950 . S
C3501 C3499 1.390 . S
C3501 C3502 1.387 . S
C3501 H3504 0.950 . S
C3502 C3501 1.387 . S
C3502 C3505 1.387 . S
H3503 C3499 0.950 . S
H3504 C3501 0.950 . S
C3505 C3496 1.390 . S
C3505 H3498 0.950 . S
C3505 C3502 1.387 . S
C3506 C3507 1.387 . S
C3506 H3510 0.950 . S
C3506 C3515 1.390 . S
C3507 C3506 1.387 . S
C3507 C3509 1.387 . S
H3508 C3515 0.950 . S
C3509 C3507 1.387 . S
C3509 C3511 1.390 . S
C3509 H3513 0.950 . S
H3510 C3506 0.950 . S
C3511 C3509 1.390 . S
C3511 C3512 1.387 . S
C3511 H3514 0.950 . S
C3512 C3511 1.387 . S
C3512 C3515 1.387 . S
H3513 C3509 0.950 . S
H3514 C3511 0.950 . S
C3515 C3506 1.390 . S
C3515 H3508 0.950 . S
C3515 C3512 1.387 . S
C3516 C3517 1.387 . S
C3516 H3520 0.950 . S
C3516 C3525 1.390 . S
C3517 C3516 1.387 . S
C3517 C3519 1.387 . S
H3518 C3525 0.950 . S
C3519 C3517 1.387 . S
C3519 C3521 1.390 . S
C3519 H3523 0.950 . S
H3520 C3516 0.950 . S
C3521 C3519 1.390 . S
C3521 C3522 1.387 . S
C3521 H3524 0.950 . S
C3522 C3521 1.387 . S
C3522 C3525 1.387 . S
H3523 C3519 0.950 . S
H3524 C3521 0.950 . S
C3525 C3516 1.390 . S
C3525 H3518 0.950 . S
C3525 C3522 1.387 . S
C3526 C3527 1.387 . S
C3526 H3530 0.950 . S
C3526 C3535 1.390 . S
C3527 C3526 1.387 . S
C3527 C3529 1.387 . S
H3528 C3535 0.950 . S
C3529 C3527 1.387 . S
C3529 C3531 1.390 . S
C3529 H3533 0.950 . S
H3530 C3526 0.950 . S
C3531 C3529 1.390 . S
C3531 C3532 1.387 . S
C3531 H3534 0.950 . S
C3532 C3531 1.387 . S
C3532 C3535 1.387 . S
H3533 C3529 0.950 . S
H3534 C3531 0.950 . S
C3535 C3526 1.390 . S
C3535 H3528 0.950 . S
C3535 C3532 1.387 . S
C3536 C3537 1.387 . S
C3536 H3540 0.950 . S
C3536 C3545 1.390 . S
C3537 C3536 1.387 . S
C3537 C3539 1.387 . S
H3538 C3545 0.950 . S
C3539 C3537 1.387 . S
C3539 C3541 1.390 . S
C3539 H3543 0.950 . S
H3540 C3536 0.950 . S
C3541 C3539 1.390 . S
C3541 C3542 1.387 . S
C3541 H3544 0.950 . S
C3542 C3541 1.387 . S
C3542 C3545 1.387 . S
H3543 C3539 0.950 . S
H3544 C3541 0.950 . S
C3545 C3536 1.390 . S
C3545 H3538 0.950 . S
C3545 C3542 1.387 . S
C3546 C3547 1.387 . S
C3546 H3550 0.950 . S
C3546 C3555 1.390 . S
C3547 C3546 1.387 . S
C3547 C3549 1.387 . S
H3548 C3555 0.950 . S
C3549 C3547 1.387 . S
C3549 C3551 1.390 . S
C3549 H3553 0.950 . S
H3550 C3546 0.950 . S
C3551 C3549 1.390 . S
C3551 C3552 1.387 . S
C3551 H3554 0.950 . S
C3552 C3551 1.387 . S
C3552 C3555 1.387 . S
H3553 C3549 0.950 . S
H3554 C3551 0.950 . S
C3555 C3546 1.390 . S
C3555 H3548 0.950 . S
C3555 C3552 1.387 . S
C3556 C3557 1.387 . S
C3556 H3560 0.950 . S
C3556 C3565 1.390 . S
C3557 C3556 1.387 . S
C3557 C3559 1.387 . S
H3558 C3565 0.950 . S
C3559 C3557 1.387 . S
C3559 C3561 1.390 . S
C3559 H3563 0.950 . S
H3560 C3556 0.950 . S
C3561 C3559 1.390 . S
C3561 C3562 1.387 . S
C3561 H3564 0.950 . S
C3562 C3561 1.387 . S
C3562 C3565 1.387 . S
H3563 C3559 0.950 . S
H3564 C3561 0.950 . S
C3565 C3556 1.390 . S
C3565 H3558 0.950 . S
C3565 C3562 1.387 . S
C3566 C3567 1.387 . S
C3566 H3570 0.950 . S
C3566 C3575 1.390 . S
C3567 C3566 1.387 . S
C3567 C3569 1.387 . S
H3568 C3575 0.950 . S
C3569 C3567 1.387 . S
C3569 C3571 1.390 . S
C3569 H3573 0.950 . S
H3570 C3566 0.950 . S
C3571 C3569 1.390 . S
C3571 C3572 1.387 . S
C3571 H3574 0.950 . S
C3572 C3571 1.387 . S
C3572 C3575 1.387 . S
H3573 C3569 0.950 . S
H3574 C3571 0.950 . S
C3575 C3566 1.390 . S
C3575 H3568 0.950 . S
C3575 C3572 1.387 . S
C3576 C3577 1.387 . S
C3576 H3580 0.950 . S
C3576 C3585 1.390 . S
C3577 C3576 1.387 . S
C3577 C3579 1.387 . S
H3578 C3585 0.950 . S
C3579 C3577 1.387 . S
C3579 C3581 1.390 . S
C3579 H3583 0.950 . S
H3580 C3576 0.950 . S
C3581 C3579 1.390 . S
C3581 C3582 1.387 . S
C3581 H3584 0.950 . S
C3582 C3581 1.387 . S
C3582 C3585 1.387 . S
H3583 C3579 0.950 . S
H3584 C3581 0.950 . S
C3585 C3576 1.390 . S
C3585 H3578 0.950 . S
C3585 C3582 1.387 . S
C3586 C3587 1.387 . S
C3586 H3590 0.950 . S
C3586 C3595 1.390 . S
C3587 C3586 1.387 . S
C3587 C3589 1.387 . S
H3588 C3595 0.950 . S
C3589 C3587 1.387 . S
C3589 C3591 1.390 . S
C3589 H3593 0.950 . S
H3590 C3586 0.950 . S
C3591 C3589 1.390 . S
C3591 C3592 1.387 . S
C3591 H3594 0.950 . S
C3592 C3591 1.387 . S
C3592 C3595 1.387 . S
H3593 C3589 0.950 . S
H3594 C3591 0.950 . S
C3595 C3586 1.390 . S
C3595 H3588 0.950 . S
C3595 C3592 1.387 . S
C3596 C3597 1.387 . S
C3596 H3600 0.950 . S
C3596 C3605 1.390 . S
C3597 C3596 1.387 . S
C3597 C3599 1.387 . S
H3598 C3605 0.950 . S
C3599 C3597 1.387 . S
C3599 C3601 1.390 . S
C3599 H3603 0.950 . S
H3600 C3596 0.950 . S
C3601 C3599 1.390 . S
C3601 C3602 1.387 . S
C3601 H3604 0.950 . S
C3602 C3601 1.387 . S
C3602 C3605 1.387 . S
H3603 C3599 0.950 . S
H3604 C3601 0.950 . S
C3605 C3596 1.390 . S
C3605 H3598 0.950 . S
C3605 C3602 1.387 . S
C3606 C3607 1.387 . S
C3606 H3610 0.950 . S
C3606 C3615 1.390 . S
C3607 C3606 1.387 . S
C3607 C3609 1.387 . S
H3608 C3615 0.950 . S
C3609 C3607 1.387 . S
C3609 C3611 1.390 . S
C3609 H3613 0.950 . S
H3610 C3606 0.950 . S
C3611 C3609 1.390 . S
C3611 C3612 1.387 . S
C3611 H3614 0.950 . S
C3612 C3611 1.387 . S
C3612 C3615 1.387 . S
H3613 C3609 0.950 . S
H3614 C3611 0.950 . S
C3615 C3606 1.390 . S
C3615 H3608 0.950 . S
C3615 C3612 1.387 . S
C3616 C3617 1.387 . S
C3616 H3620 0.950 . S
C3616 C3625 1.390 . S
C3617 C3616 1.387 . S
C3617 C3619 1.387 . S
H3618 C3625 0.950 . S
C3619 C3617 1.387 . S
C3619 C3621 1.390 . S
C3619 H3623 0.950 . S
H3620 C3616 0.950 . S
C3621 C3619 1.390 . S
C3621 C3622 1.387 . S
C3621 H3624 0.950 . S
C3622 C3621 1.387 . S
C3622 C3625 1.387 . S
H3623 C3619 0.950 . S
H3624 C3621 0.950 . S
C3625 C3616 1.390 . S
C3625 H3618 0.950 . S
C3625 C3622 1.387 . S
C3626 C3627 1.387 . S
C3626 H3630 0.950 . S
C3626 C3635 1.390 . S
C3627 C3626 1.387 . S
C3627 C3629 1.387 . S
H3628 C3635 0.950 . S
C3629 C3627 1.387 . S
C3629 C3631 1.390 . S
C3629 H3633 0.950 . S
H3630 C3626 0.950 . S
C3631 C3629 1.390 . S
C3631 C3632 1.387 . S
C3631 H3634 0.950 . S
C3632 C3631 1.387 . S
C3632 C3635 1.387 . S
H3633 C3629 0.950 . S
H3634 C3631 0.950 . S
C3635 C3626 1.390 . S
C3635 H3628 0.950 . S
C3635 C3632 1.387 . S
C3636 C3637 1.387 . S
C3636 H3640 0.950 . S
C3636 C3645 1.390 . S
C3637 C3636 1.387 . S
C3637 C3639 1.387 . S
H3638 C3645 0.950 . S
C3639 C3637 1.387 . S
C3639 C3641 1.390 . S
C3639 H3643 0.950 . S
H3640 C3636 0.950 . S
C3641 C3639 1.390 . S
C3641 C3642 1.387 . S
C3641 H3644 0.950 . S
C3642 C3641 1.387 . S
C3642 C3645 1.387 . S
H3643 C3639 0.950 . S
H3644 C3641 0.950 . S
C3645 C3636 1.390 . S
C3645 H3638 0.950 . S
C3645 C3642 1.387 . S
C3646 C3647 1.387 . S
C3646 H3650 0.950 . S
C3646 C3655 1.390 . S
C3647 C3646 1.387 . S
C3647 C3649 1.387 . S
H3648 C3655 0.950 . S
C3649 C3647 1.387 . S
C3649 C3651 1.390 . S
C3649 H3653 0.950 . S
H3650 C3646 0.950 . S
C3651 C3649 1.390 . S
C3651 C3652 1.387 . S
C3651 H3654 0.950 . S
C3652 C3651 1.387 . S
C3652 C3655 1.387 . S
H3653 C3649 0.950 . S
H3654 C3651 0.950 . S
C3655 C3646 1.390 . S
C3655 H3648 0.950 . S
C3655 C3652 1.387 . S
C3656 C3657 1.387 . S
C3656 H3660 0.950 . S
C3656 C3665 1.390 . S
C3657 C3656 1.387 . S
C3657 C3659 1.387 . S
H3658 C3665 0.950 . S
C3659 C3657 1.387 . S
C3659 C3661 1.390 . S
C3659 H3663 0.950 . S
H3660 C3656 0.950 . S
C3661 C3659 1.390 . S
C3661 C3662 1.387 . S
C3661 H3664 0.950 . S
C3662 C3661 1.387 . S
C3662 C3665 1.387 . S
H3663 C3659 0.950 . S
H3664 C3661 0.950 . S
C3665 C3656 1.390 . S
C3665 H3658 0.950 . S
C3665 C3662 1.387 . S
C3666 C3667 1.387 . S
C3666 H3670 0.950 . S
C3666 C3675 1.390 . S
C3667 C3666 1.387 . S
C3667 C3669 1.387 . S
H3668 C3675 0.950 . S
C3669 C3667 1.387 . S
C3669 C3671 1.390 . S
C3669 H3673 0.950 . S
H3670 C3666 0.950 . S
C3671 C3669 1.390 . S
C3671 C3672 1.387 . S
C3671 H3674 0.950 . S
C3672 C3671 1.387 . S
C3672 C3675 1.387 . S
H3673 C3669 0.950 . S
H3674 C3671 0.950 . S
C3675 C3666 1.390 . S
C3675 H3668 0.950 . S
C3675 C3672 1.387 . S
C3676 C3677 1.387 . S
C3676 H3680 0.950 . S
C3676 C3685 1.390 . S
C3677 C3676 1.387 . S
C3677 C3679 1.387 . S
H3678 C3685 0.950 . S
C3679 C3677 1.387 . S
C3679 C3681 1.390 . S
C3679 H3683 0.950 . S
H3680 C3676 0.950 . S
C3681 C3679 1.390 . S
C3681 C3682 1.387 . S
C3681 H3684 0.950 . S
C3682 C3681 1.387 . S
C3682 C3685 1.387 . S
H3683 C3679 0.950 . S
H3684 C3681 0.950 . S
C3685 C3676 1.390 . S
C3685 H3678 0.950 . S
C3685 C3682 1.387 . S
C3686 C3687 1.387 . S
C3686 H3690 0.950 . S
C3686 C3695 1.390 . S
C3687 C3686 1.387 . S
C3687 C3689 1.387 . S
H3688 C3695 0.950 . S
C3689 C3687 1.387 . S
C3689 C3691 1.390 . S
C3689 H3693 0.950 . S
H3690 C3686 0.950 . S
C3691 C3689 1.390 . S
C3691 C3692 1.387 . S
C3691 H3694 0.950 . S
C3692 C3691 1.387 . S
C3692 C3695 1.387 . S
H3693 C3689 0.950 . S
H3694 C3691 0.950 . S
C3695 C3686 1.390 . S
C3695 H3688 0.950 . S
C3695 C3692 1.387 . S
C3696 C3697 1.387 . S
C3696 H3700 0.950 . S
C3696 C3705 1.390 . S
C3697 C3696 1.387 . S
C3697 C3699 1.387 . S
H3698 C3705 0.950 . S
C3699 C3697 1.387 . S
C3699 C3701 1.390 . S
C3699 H3703 0.950 . S
H3700 C3696 0.950 . S
C3701 C3699 1.390 . S
C3701 C3702 1.387 . S
C3701 H3704 0.950 . S
C3702 C3701 1.387 . S
C3702 C3705 1.387 . S
H3703 C3699 0.950 . S
H3704 C3701 0.950 . S
C3705 C3696 1.390 . S
C3705 H3698 0.950 . S
C3705 C3702 1.387 . S
C3706 C3707 1.387 . S
C3706 H3710 0.950 . S
C3706 C3715 1.390 . S
C3707 C3706 1.387 . S
C3707 C3709 1.387 . S
H3708 C3715 0.950 . S
C3709 C3707 1.387 . S
C3709 C3711 1.390 . S
C3709 H3713 0.950 . S
H3710 C3706 0.950 . S
C3711 C3709 1.390 . S
C3711 C3712 1.387 . S
C3711 H3714 0.950 . S
C3712 C3711 1.387 . S
C3712 C3715 1.387 . S
H3713 C3709 0.950 . S
H3714 C3711 0.950 . S
C3715 C3706 1.390 . S
C3715 H3708 0.950 . S
C3715 C3712 1.387 . S
C3716 C3717 1.387 . S
C3716 H3720 0.950 . S
C3716 C3725 1.390 . S
C3717 C3716 1.387 . S
C3717 C3719 1.387 . S
H3718 C3725 0.950 . S
C3719 C3717 1.387 . S
C3719 C3721 1.390 . S
C3719 H3723 0.950 . S
H3720 C3716 0.950 . S
C3721 C3719 1.390 . S
C3721 C3722 1.387 . S
C3721 H3724 0.950 . S
C3722 C3721 1.387 . S
C3722 C3725 1.387 . S
H3723 C3719 0.950 . S
H3724 C3721 0.950 . S
C3725 C3716 1.390 . S
C3725 H3718 0.950 . S
C3725 C3722 1.387 . S
C3726 C3727 1.387 . S
C3726 H3730 0.950 . S
C3726 C3735 1.390 . S
C3727 C3726 1.387 . S
C3727 C3729 1.387 . S
H3728 C3735 0.950 . S
C3729 C3727 1.387 . S
C3729 C3731 1.390 . S
C3729 H3733 0.950 . S
H3730 C3726 0.950 . S
C3731 C3729 1.390 . S
C3731 C3732 1.387 . S
C3731 H3734 0.950 . S
C3732 C3731 1.387 . S
C3732 C3735 1.387 . S
H3733 C3729 0.950 . S
H3734 C3731 0.950 . S
C3735 C3726 1.390 . S
C3735 H3728 0.950 . S
C3735 C3732 1.387 . S
C3736 C3737 1.387 . S
C3736 H3740 0.950 . S
C3736 C3745 1.390 . S
C3737 C3736 1.387 . S
C3737 C3739 1.387 . S
H3738 C3745 0.950 . S
C3739 C3737 1.387 . S
C3739 C3741 1.390 . S
C3739 H3743 0.950 . S
H3740 C3736 0.950 . S
C3741 C3739 1.390 . S
C3741 C3742 1.387 . S
C3741 H3744 0.950 . S
C3742 C3741 1.387 . S
C3742 C3745 1.387 . S
H3743 C3739 0.950 . S
H3744 C3741 0.950 . S
C3745 C3736 1.390 . S
C3745 H3738 0.950 . S
C3745 C3742 1.387 . S
C3746 C3747 1.387 . S
C3746 H3750 0.950 . S
C3746 C3755 1.390 . S
C3747 C3746 1.387 . S
C3747 C3749 1.387 . S
H3748 C3755 0.950 . S
C3749 C3747 1.387 . S
C3749 C3751 1.390 . S
C3749 H3753 0.950 . S
H3750 C3746 0.950 . S
C3751 C3749 1.390 . S
C3751 C3752 1.387 . S
C3751 H3754 0.950 . S
C3752 C3751 1.387 . S
C3752 C3755 1.387 . S
H3753 C3749 0.950 . S
H3754 C3751 0.950 . S
C3755 C3746 1.390 . S
C3755 H3748 0.950 . S
C3755 C3752 1.387 . S
C3756 C3757 1.387 . S
C3756 H3760 0.950 . S
C3756 C3765 1.390 . S
C3757 C3756 1.387 . S
C3757 C3759 1.387 . S
H3758 C3765 0.950 . S
C3759 C3757 1.387 . S
C3759 C3761 1.390 . S
C3759 H3763 0.950 . S
H3760 C3756 0.950 . S
C3761 C3759 1.390 . S
C3761 C3762 1.387 . S
C3761 H3764 0.950 . S
C3762 C3761 1.387 . S
C3762 C3765 1.387 . S
H3763 C3759 0.950 . S
H3764 C3761 0.950 . S
C3765 C3756 1.390 . S
C3765 H3758 0.950 . S
C3765 C3762 1.387 . S
C3766 C3767 1.387 . S
C3766 H3770 0.950 . S
C3766 C3775 1.390 . S
C3767 C3766 1.387 . S
C3767 C3769 1.387 . S
H3768 C3775 0.950 . S
C3769 C3767 1.387 . S
C3769 C3771 1.390 . S
C3769 H3773 0.950 . S
H3770 C3766 0.950 . S
C3771 C3769 1.390 . S
C3771 C3772 1.387 . S
C3771 H3774 0.950 . S
C3772 C3771 1.387 . S
C3772 C3775 1.387 . S
H3773 C3769 0.950 . S
H3774 C3771 0.950 . S
C3775 C3766 1.390 . S
C3775 H3768 0.950 . S
C3775 C3772 1.387 . S
C3776 C3777 1.387 . S
C3776 H3780 0.950 . S
C3776 C3785 1.390 . S
C3777 C3776 1.387 . S
C3777 C3779 1.387 . S
H3778 C3785 0.950 . S
C3779 C3777 1.387 . S
C3779 C3781 1.390 . S
C3779 H3783 0.950 . S
H3780 C3776 0.950 . S
C3781 C3779 1.390 . S
C3781 C3782 1.387 . S
C3781 H3784 0.950 . S
C3782 C3781 1.387 . S
C3782 C3785 1.387 . S
H3783 C3779 0.950 . S
H3784 C3781 0.950 . S
C3785 C3776 1.390 . S
C3785 H3778 0.950 . S
C3785 C3782 1.387 . S
C3786 C3787 1.387 . S
C3786 H3790 0.950 . S
C3786 C3795 1.390 . S
C3787 C3786 1.387 . S
C3787 C3789 1.387 . S
H3788 C3795 0.950 . S
C3789 C3787 1.387 . S
C3789 C3791 1.390 . S
C3789 H3793 0.950 . S
H3790 C3786 0.950 . S
C3791 C3789 1.390 . S
C3791 C3792 1.387 . S
C3791 H3794 0.950 . S
C3792 C3791 1.387 . S
C3792 C3795 1.387 . S
H3793 C3789 0.950 . S
H3794 C3791 0.950 . S
C3795 C3786 1.390 . S
C3795 H3788 0.950 . S
C3795 C3792 1.387 . S
C3796 C3797 1.387 . S
C3796 H3800 0.950 . S
C3796 C3805 1.390 . S
C3797 C3796 1.387 . S
C3797 C3799 1.387 . S
H3798 C3805 0.950 . S
C3799 C3797 1.387 . S
C3799 C3801 1.390 . S
C3799 H3803 0.950 . S
H3800 C3796 0.950 . S
C3801 C3799 1.390 . S
C3801 C3802 1.387 . S
C3801 H3804 0.950 . S
C3802 C3801 1.387 . S
C3802 C3805 1.387 . S
H3803 C3799 0.950 . S
H3804 C3801 0.950 . S
C3805 C3796 1.390 . S
C3805 H3798 0.950 . S
C3805 C3802 1.387 . S
C3806 C3807 1.387 . S
C3806 H3810 0.950 . S
C3806 C3815 1.390 . S
C3807 C3806 1.387 . S
C3807 C3809 1.387 . S
H3808 C3815 0.950 . S
C3809 C3807 1.387 . S
C3809 C3811 1.390 . S
C3809 H3813 0.950 . S
H3810 C3806 0.950 . S
C3811 C3809 1.390 . S
C3811 C3812 1.387 . S
C3811 H3814 0.950 . S
C3812 C3811 1.387 . S
C3812 C3815 1.387 . S
H3813 C3809 0.950 . S
H3814 C3811 0.950 . S
C3815 C3806 1.390 . S
C3815 H3808 0.950 . S
C3815 C3812 1.387 . S
C3816 C3817 1.387 . S
C3816 H3820 0.950 . S
C3816 C3825 1.390 . S
C3817 C3816 1.387 . S
C3817 C3819 1.387 . S
H3818 C3825 0.950 . S
C3819 C3817 1.387 . S
C3819 C3821 1.390 . S
C3819 H3823 0.950 . S
H3820 C3816 0.950 . S
C3821 C3819 1.390 . S
C3821 C3822 1.387 . S
C3821 H3824 0.950 . S
C3822 C3821 1.387 . S
C3822 C3825 1.387 . S
H3823 C3819 0.950 . S
H3824 C3821 0.950 . S
C3825 C3816 1.390 . S
C3825 H3818 0.950 . S
C3825 C3822 1.387 . S
C3826 C3827 1.387 . S
C3826 H3830 0.950 . S
C3826 C3835 1.390 . S
C3827 C3826 1.387 . S
C3827 C3829 1.387 . S
H3828 C3835 0.950 . S
C3829 C3827 1.387 . S
C3829 C3831 1.390 . S
C3829 H3833 0.950 . S
H3830 C3826 0.950 . S
C3831 C3829 1.390 . S
C3831 C3832 1.387 . S
C3831 H3834 0.950 . S
C3832 C3831 1.387 . S
C3832 C3835 1.387 . S
H3833 C3829 0.950 . S
H3834 C3831 0.950 . S
C3835 C3826 1.390 . S
C3835 H3828 0.950 . S
C3835 C3832 1.387 . S
C3836 C3837 1.387 . S
C3836 H3840 0.950 . S
C3836 C3845 1.390 . S
C3837 C3836 1.387 . S
C3837 C3839 1.387 . S
H3838 C3845 0.950 . S
C3839 C3837 1.387 . S
C3839 C3841 1.390 . S
C3839 H3843 0.950 . S
H3840 C3836 0.950 . S
C3841 C3839 1.390 . S
C3841 C3842 1.387 . S
C3841 H3844 0.950 . S
C3842 C3841 1.387 . S
C3842 C3845 1.387 . S
H3843 C3839 0.950 . S
H3844 C3841 0.950 . S
C3845 C3836 1.390 . S
C3845 H3838 0.950 . S
C3845 C3842 1.387 . S
C3846 C3847 1.387 . S
C3846 H3850 0.950 . S
C3846 C3855 1.390 . S
C3847 C3846 1.387 . S
C3847 C3849 1.387 . S
H3848 C3855 0.950 . S
C3849 C3847 1.387 . S
C3849 C3851 1.390 . S
C3849 H3853 0.950 . S
H3850 C3846 0.950 . S
C3851 C3849 1.390 . S
C3851 C3852 1.387 . S
C3851 H3854 0.950 . S
C3852 C3851 1.387 . S
C3852 C3855 1.387 . S
H3853 C3849 0.950 . S
H3854 C3851 0.950 . S
C3855 C3846 1.390 . S
C3855 H3848 0.950 . S
C3855 C3852 1.387 . S
C3856 C3857 1.387 . S
C3856 H3860 0.950 . S
C3856 C3865 1.390 . S
C3857 C3856 1.387 . S
C3857 C3859 1.387 . S
H3858 C3865 0.950 . S
C3859 C3857 1.387 . S
C3859 C3861 1.390 . S
C3859 H3863 0.950 . S
H3860 C3856 0.950 . S
C3861 C3859 1.390 . S
C3861 C3862 1.387 . S
C3861 H3864 0.950 . S
C3862 C3861 1.387 . S
C3862 C3865 1.387 . S
H3863 C3859 0.950 . S
H3864 C3861 0.950 . S
C3865 C3856 1.390 . S
C3865 H3858 0.950 . S
C3865 C3862 1.387 . S
C3866 C3867 1.387 . S
C3866 H3870 0.950 . S
C3866 C3875 1.390 . S
C3867 C3866 1.387 . S
C3867 C3869 1.387 . S
H3868 C3875 0.950 . S
C3869 C3867 1.387 . S
C3869 C3871 1.390 . S
C3869 H3873 0.950 . S
H3870 C3866 0.950 . S
C3871 C3869 1.390 . S
C3871 C3872 1.387 . S
C3871 H3874 0.950 . S
C3872 C3871 1.387 . S
C3872 C3875 1.387 . S
H3873 C3869 0.950 . S
H3874 C3871 0.950 . S
C3875 C3866 1.390 . S
C3875 H3868 0.950 . S
C3875 C3872 1.387 . S
C3876 C3877 1.387 . S
C3876 H3880 0.950 . S
C3876 C3885 1.390 . S
C3877 C3876 1.387 . S
C3877 C3879 1.387 . S
H3878 C3885 0.950 . S
C3879 C3877 1.387 . S
C3879 C3881 1.390 . S
C3879 H3883 0.950 . S
H3880 C3876 0.950 . S
C3881 C3879 1.390 . S
C3881 C3882 1.387 . S
C3881 H3884 0.950 . S
C3882 C3881 1.387 . S
C3882 C3885 1.387 . S
H3883 C3879 0.950 . S
H3884 C3881 0.950 . S
C3885 C3876 1.390 . S
C3885 H3878 0.950 . S
C3885 C3882 1.387 . S
C3886 C3887 1.387 . S
C3886 H3890 0.950 . S
C3886 C3895 1.390 . S
C3887 C3886 1.387 . S
C3887 C3889 1.387 . S
H3888 C3895 0.950 . S
C3889 C3887 1.387 . S
C3889 C3891 1.390 . S
C3889 H3893 0.950 . S
H3890 C3886 0.950 . S
C3891 C3889 1.390 . S
C3891 C3892 1.387 . S
C3891 H3894 0.950 . S
C3892 C3891 1.387 . S
C3892 C3895 1.387 . S
H3893 C3889 0.950 . S
H3894 C3891 0.950 . S
C3895 C3886 1.390 . S
C3895 H3888 0.950 . S
C3895 C3892 1.387 . S
C3896 C3897 1.387 . S
C3896 H3900 0.950 . S
C3896 C3905 1.390 . S
C3897 C3896 1.387 . S
C3897 C3899 1.387 . S
H3898 C3905 0.950 . S
C3899 C3897 1.387 . S
C3899 C3901 1.390 . S
C3899 H3903 0.950 . S
H3900 C3896 0.950 . S
C3901 C3899 1.390 . S
C3901 C3902 1.387 . S
C3901 H3904 0.950 . S
C3902 C3901 1.387 . S
C3902 C3905 1.387 . S
H3903 C3899 0.950 . S
H3904 C3901 0.950 . S
C3905 C3896 1.390 . S
C3905 H3898 0.950 . S
C3905 C3902 1.387 . S
C3906 C3907 1.387 . S
C3906 H3910 0.950 . S
C3906 C3915 1.390 . S
C3907 C3906 1.387 . S
C3907 C3909 1.387 . S
H3908 C3915 0.950 . S
C3909 C3907 1.387 . S
C3909 C3911 1.390 . S
C3909 H3913 0.950 . S
H3910 C3906 0.950 . S
C3911 C3909 1.390 . S
C3911 C3912 1.387 . S
C3911 H3914 0.950 . S
C3912 C3911 1.387 . S
C3912 C3915 1.387 . S
H3913 C3909 0.950 . S
H3914 C3911 0.950 . S
C3915 C3906 1.390 . S
C3915 H3908 0.950 . S
C3915 C3912 1.387 . S
C3916 C3917 1.387 . S
C3916 H3920 0.950 . S
C3916 C3925 1.390 . S
C3917 C3916 1.387 . S
C3917 C3919 1.387 . S
H3918 C3925 0.950 . S
C3919 C3917 1.387 . S
C3919 C3921 1.390 . S
C3919 H3923 0.950 . S
H3920 C3916 0.950 . S
C3921 C3919 1.390 . S
C3921 C3922 1.387 . S
C3921 H3924 0.950 . S
C3922 C3921 1.387 . S
C3922 C3925 1.387 . S
H3923 C3919 0.950 . S
H3924 C3921 0.950 . S
C3925 C3916 1.390 . S
C3925 H3918 0.950 . S
C3925 C3922 1.387 . S
C3926 C3927 1.387 . S
C3926 H3930 0.950 . S
C3926 C3935 1.390 . S
C3927 C3926 1.387 . S
C3927 C3929 1.387 . S
H3928 C3935 0.950 . S
C3929 C3927 1.387 . S
C3929 C3931 1.390 . S
C3929 H3933 0.950 . S
H3930 C3926 0.950 . S
C3931 C3929 1.390 . S
C3931 C3932 1.387 . S
C3931 H3934 0.950 . S
C3932 C3931 1.387 . S
C3932 C3935 1.387 . S
H3933 C3929 0.950 . S
H3934 C3931 0.950 . S
C3935 C3926 1.390 . S
C3935 H3928 0.950 . S
C3935 C3932 1.387 . S
C3936 C3937 1.387 . S
C3936 H3940 0.950 . S
C3936 C3945 1.390 . S
C3937 C3936 1.387 . S
C3937 C3939 1.387 . S
H3938 C3945 0.950 . S
C3939 C3937 1.387 . S
C3939 C3941 1.390 . S
C3939 H3943 0.950 . S
H3940 C3936 0.950 . S
C3941 C3939 1.390 . S
C3941 C3942 1.387 . S
C3941 H3944 0.950 . S
C3942 C3941 1.387 . S
C3942 C3945 1.387 . S
H3943 C3939 0.950 . S
H3944 C3941 0.950 . S
C3945 C3936 1.390 . S
C3945 H3938 0.950 . S
C3945 C3942 1.387 . S
C3946 C3947 1.387 . S
C3946 H3950 0.950 . S
C3946 C3955 1.390 . S
C3947 C3946 1.387 . S
C3947 C3949 1.387 . S
H3948 C3955 0.950 . S
C3949 C3947 1.387 . S
C3949 C3951 1.390 . S
C3949 H3953 0.950 . S
H3950 C3946 0.950 . S
C3951 C3949 1.390 . S
C3951 C3952 1.387 . S
C3951 H3954 0.950 . S
C3952 C3951 1.387 . S
C3952 C3955 1.387 . S
H3953 C3949 0.950 . S
H3954 C3951 0.950 . S
C3955 C3946 1.390 . S
C3955 H3948 0.950 . S
C3955 C3952 1.387 . S
C3956 C3957 1.387 . S
C3956 H3960 0.950 . S
C3956 C3965 1.390 . S
C3957 C3956 1.387 . S
C3957 C3959 1.387 . S
H3958 C3965 0.950 . S
C3959 C3957 1.387 . S
C3959 C3961 1.390 . S
C3959 H3963 0.950 . S
H3960 C3956 0.950 . S
C3961 C3959 1.390 . S
C3961 C3962 1.387 . S
C3961 H3964 0.950 . S
C3962 C3961 1.387 . S
C3962 C3965 1.387 . S
H3963 C3959 0.950 . S
H3964 C3961 0.950 . S
C3965 C3956 1.390 . S
C3965 H3958 0.950 . S
C3965 C3962 1.387 . S
C3966 C3967 1.387 . S
C3966 H3970 0.950 . S
C3966 C3975 1.390 . S
C3967 C3966 1.387 . S
C3967 C3969 1.387 . S
H3968 C3975 0.950 . S
C3969 C3967 1.387 . S
C3969 C3971 1.390 . S
C3969 H3973 0.950 . S
H3970 C3966 0.950 . S
C3971 C3969 1.390 . S
C3971 C3972 1.387 . S
C3971 H3974 0.950 . S
C3972 C3971 1.387 . S
C3972 C3975 1.387 . S
H3973 C3969 0.950 . S
H3974 C3971 0.950 . S
C3975 C3966 1.390 . S
C3975 H3968 0.950 . S
C3975 C3972 1.387 . S
C3976 C3977 1.387 . S
C3976 H3980 0.950 . S
C3976 C3985 1.390 . S
C3977 C3976 1.387 . S
C3977 C3979 1.387 . S
H3978 C3985 0.950 . S
C3979 C3977 1.387 . S
C3979 C3981 1.390 . S
C3979 H3983 0.950 . S
H3980 C3976 0.950 . S
C3981 C3979 1.390 . S
C3981 C3982 1.387 . S
C3981 H3984 0.950 . S
C3982 C3981 1.387 . S
C3982 C3985 1.387 . S
H3983 C3979 0.950 . S
H3984 C3981 0.950 . S
C3985 C3976 1.390 . S
C3985 H3978 0.950 . S
C3985 C3982 1.387 . S
C3986 C3987 1.387 . S
C3986 H3990 0.950 . S
C3986 C3995 1.390 . S
C3987 C3986 1.387 . S
C3987 C3989 1.387 . S
H3988 C3995 0.950 . S
C3989 C3987 1.387 . S
C3989 C3991 1.390 . S
C3989 H3993 0.950 . S
H3990 C3986 0.950 . S
C3991 C3989 1.390 . S
C3991 C3992 1.387 . S
C3991 H3994 0.950 . S
C3992 C3991 1.387 . S
C3992 C3995 1.387 . S
H3993 C3989 0.950 . S
H3994 C3991 0.950 . S
C3995 C3986 1.390 . S
C3995 H3988 0.950 . S
C3995 C3992 1.387 . S
C3996 C3997 1.387 . S
C3996 H4000 0.950 . S
C3996 C4005 1.390 . S
C3997 C3996 1.387 . S
C3997 C3999 1.387 . S
H3998 C4005 0.950 . S
C3999 C3997 1.387 . S
C3999 C4001 1.390 . S
C3999 H4003 0.950 . S
H4000 C3996 0.950 . S
C4001 C3999 1.390 . S
C4001 C4002 1.387 . S
C4001 H4004 0.950 . S
C4002 C4001 1.387 . S
C4002 C4005 1.387 . S
H4003 C3999 0.950 . S
H4004 C4001 0.950 . S
C4005 C3996 1.390 . S
C4005 H3998 0.950 . S
C4005 C4002 1.387 . S
C4006 C4007 1.387 . S
C4006 H4010 0.950 . S
C4006 C4015 1.390 . S
C4007 C4006 1.387 . S
C4007 C4009 1.387 . S
H4008 C4015 0.950 . S
C4009 C4007 1.387 . S
C4009 C4011 1.390 . S
C4009 H4013 0.950 . S
H4010 C4006 0.950 . S
C4011 C4009 1.390 . S
C4011 C4012 1.387 . S
C4011 H4014 0.950 . S
C4012 C4011 1.387 . S
C4012 C4015 1.387 . S
H4013 C4009 0.950 . S
H4014 C4011 0.950 . S
C4015 C4006 1.390 . S
C4015 H4008 0.950 . S
C4015 C4012 1.387 . S
C4016 C4017 1.387 . S
C4016 H4020 0.950 . S
C4016 C4025 1.390 . S
C4017 C4016 1.387 . S
C4017 C4019 1.387 . S
H4018 C4025 0.950 . S
C4019 C4017 1.387 . S
C4019 C4021 1.390 . S
C4019 H4023 0.950 . S
H4020 C4016 0.950 . S
C4021 C4019 1.390 . S
C4021 C4022 1.387 . S
C4021 H4024 0.950 . S
C4022 C4021 1.387 . S
C4022 C4025 1.387 . S
H4023 C4019 0.950 . S
H4024 C4021 0.950 . S
C4025 C4016 1.390 . S
C4025 H4018 0.950 . S
C4025 C4022 1.387 . S
C4026 C4027 1.387 . S
C4026 H4030 0.950 . S
C4026 C4035 1.390 . S
C4027 C4026 1.387 . S
C4027 C4029 1.387 . S
H4028 C4035 0.950 . S
C4029 C4027 1.387 . S
C4029 C4031 1.390 . S
C4029 H4033 0.950 . S
H4030 C4026 0.950 . S
C4031 C4029 1.390 . S
C4031 C4032 1.387 . S
C4031 H4034 0.950 . S
C4032 C4031 1.387 . S
C4032 C4035 1.387 . S
H4033 C4029 0.950 . S
H4034 C4031 0.950 . S
C4035 C4026 1.390 . S
C4035 H4028 0.950 . S
C4035 C4032 1.387 . S
C4036 C4037 1.387 . S
C4036 H4040 0.950 . S
C4036 C4045 1.390 . S
C4037 C4036 1.387 . S
C4037 C4039 1.387 . S
H4038 C4045 0.950 . S
C4039 C4037 1.387 . S
C4039 C4041 1.390 . S
C4039 H4043 0.950 . S
H4040 C4036 0.950 . S
C4041 C4039 1.390 . S
C4041 C4042 1.387 . S
C4041 H4044 0.950 . S
C4042 C4041 1.387 . S
C4042 C4045 1.387 . S
H4043 C4039 0.950 . S
H4044 C4041 0.950 . S
C4045 C4036 1.390 . S
C4045 H4038 0.950 . S
C4045 C4042 1.387 . S
C4046 C4047 1.387 . S
C4046 H4050 0.950 . S
C4046 C4055 1.390 . S
C4047 C4046 1.387 . S
C4047 C4049 1.387 . S
H4048 C4055 0.950 . S
C4049 C4047 1.387 . S
C4049 C4051 1.390 . S
C4049 H4053 0.950 . S
H4050 C4046 0.950 . S
C4051 C4049 1.390 . S
C4051 C4052 1.387 . S
C4051 H4054 0.950 . S
C4052 C4051 1.387 . S
C4052 C4055 1.387 . S
H4053 C4049 0.950 . S
H4054 C4051 0.950 . S
C4055 C4046 1.390 . S
C4055 H4048 0.950 . S
C4055 C4052 1.387 . S
C4056 C4057 1.387 . S
C4056 H4060 0.950 . S
C4056 C4065 1.390 . S
C4057 C4056 1.387 . S
C4057 C4059 1.387 . S
H4058 C4065 0.950 . S
C4059 C4057 1.387 . S
C4059 C4061 1.390 . S
C4059 H4063 0.950 . S
H4060 C4056 0.950 . S
C4061 C4059 1.390 . S
C4061 C4062 1.387 . S
C4061 H4064 0.950 . S
C4062 C4061 1.387 . S
C4062 C4065 1.387 . S
H4063 C4059 0.950 . S
H4064 C4061 0.950 . S
C4065 C4056 1.390 . S
C4065 H4058 0.950 . S
C4065 C4062 1.387 . S
C4066 C4067 1.387 . S
C4066 H4070 0.950 . S
C4066 C4075 1.390 . S
C4067 C4066 1.387 . S
C4067 C4069 1.387 . S
H4068 C4075 0.950 . S
C4069 C4067 1.387 . S
C4069 C4071 1.390 . S
C4069 H4073 0.950 . S
H4070 C4066 0.950 . S
C4071 C4069 1.390 . S
C4071 C4072 1.387 . S
C4071 H4074 0.950 . S
C4072 C4071 1.387 . S
C4072 C4075 1.387 . S
H4073 C4069 0.950 . S
H4074 C4071 0.950 . S
C4075 C4066 1.390 . S
C4075 H4068 0.950 . S
C4075 C4072 1.387 . S
C4076 C4077 1.387 . S
C4076 H4080 0.950 . S
C4076 C4085 1.390 . S
C4077 C4076 1.387 . S
C4077 C4079 1.387 . S
H4078 C4085 0.950 . S
C4079 C4077 1.387 . S
C4079 C4081 1.390 . S
C4079 H4083 0.950 . S
H4080 C4076 0.950 . S
C4081 C4079 1.390 . S
C4081 C4082 1.387 . S
C4081 H4084 0.950 . S
C4082 C4081 1.387 . S
C4082 C4085 1.387 . S
H4083 C4079 0.950 . S
H4084 C4081 0.950 . S
C4085 C4076 1.390 . S
C4085 H4078 0.950 . S
C4085 C4082 1.387 . S
C4086 C4087 1.387 . S
C4086 H4090 0.950 . S
C4086 C4095 1.390 . S
C4087 C4086 1.387 . S
C4087 C4089 1.387 . S
H4088 C4095 0.950 . S
C4089 C4087 1.387 . S
C4089 C4091 1.390 . S
C4089 H4093 0.950 . S
H4090 C4086 0.950 . S
C4091 C4089 1.390 . S
C4091 C4092 1.387 . S
C4091 H4094 0.950 . S
C4092 C4091 1.387 . S
C4092 C4095 1.387 . S
H4093 C4089 0.950 . S
H4094 C4091 0.950 . S
C4095 C4086 1.390 . S
C4095 H4088 0.950 . S
C4095 C4092 1.387 . S
C4096 C4097 1.387 . S
C4096 H4100 0.950 . S
C4096 C4105 1.390 . S
C4097 C4096 1.387 . S
C4097 C4099 1.387 . S
H4098 C4105 0.950 . S
C4099 C4097 1.387 . S
C4099 C4101 1.390 . S
C4099 H4103 0.950 . S
H4100 C4096 0.950 . S
C4101 C4099 1.390 . S
C4101 C4102 1.387 . S
C4101 H4104 0.950 . S
C4102 C4101 1.387 . S
C4102 C4105 1.387 . S
H4103 C4099 0.950 . S
H4104 C4101 0.950 . S
C4105 C4096 1.390 . S
C4105 H4098 0.950 . S
C4105 C4102 1.387 . S
C4106 C4107 1.387 . S
C4106 H4110 0.950 . S
C4106 C4115 1.390 . S
C4107 C4106 1.387 . S
C4107 C4109 1.387 . S
H4108 C4115 0.950 . S
C4109 C4107 1.387 . S
C4109 C4111 1.390 . S
C4109 H4113 0.950 . S
H4110 C4106 0.950 . S
C4111 C4109 1.390 . S
C4111 C4112 1.387 . S
C4111 H4114 0.950 . S
C4112 C4111 1.387 . S
C4112 C4115 1.387 . S
H4113 C4109 0.950 . S
H4114 C4111 0.950 . S
C4115 C4106 1.390 . S
C4115 H4108 0.950 . S
C4115 C4112 1.387 . S
C4116 C4117 1.387 . S
C4116 H4120 0.950 . S
C4116 C4125 1.390 . S
C4117 C4116 1.387 . S
C4117 C4119 1.387 . S
H4118 C4125 0.950 . S
C4119 C4117 1.387 . S
C4119 C4121 1.390 . S
C4119 H4123 0.950 . S
H4120 C4116 0.950 . S
C4121 C4119 1.390 . S
C4121 C4122 1.387 . S
C4121 H4124 0.950 . S
C4122 C4121 1.387 . S
C4122 C4125 1.387 . S
H4123 C4119 0.950 . S
H4124 C4121 0.950 . S
C4125 C4116 1.390 . S
C4125 H4118 0.950 . S
C4125 C4122 1.387 . S
C4126 C4127 1.387 . S
C4126 H4130 0.950 . S
C4126 C4135 1.390 . S
C4127 C4126 1.387 . S
C4127 C4129 1.387 . S
H4128 C4135 0.950 . S
C4129 C4127 1.387 . S
C4129 C4131 1.390 . S
C4129 H4133 0.950 . S
H4130 C4126 0.950 . S
C4131 C4129 1.390 . S
C4131 C4132 1.387 . S
C4131 H4134 0.950 . S
C4132 C4131 1.387 . S
C4132 C4135 1.387 . S
H4133 C4129 0.950 . S
H4134 C4131 0.950 . S
C4135 C4126 1.390 . S
C4135 H4128 0.950 . S
C4135 C4132 1.387 . S
C4136 C4137 1.387 . S
C4136 H4140 0.950 . S
C4136 C4145 1.390 . S
C4137 C4136 1.387 . S
C4137 C4139 1.387 . S
H4138 C4145 0.950 . S
C4139 C4137 1.387 . S
C4139 C4141 1.390 . S
C4139 H4143 0.950 . S
H4140 C4136 0.950 . S
C4141 C4139 1.390 . S
C4141 C4142 1.387 . S
C4141 H4144 0.950 . S
C4142 C4141 1.387 . S
C4142 C4145 1.387 . S
H4143 C4139 0.950 . S
H4144 C4141 0.950 . S
C4145 C4136 1.390 . S
C4145 H4138 0.950 . S
C4145 C4142 1.387 . S
C4146 C4147 1.387 . S
C4146 H4150 0.950 . S
C4146 C4155 1.390 . S
C4147 C4146 1.387 . S
C4147 C4149 1.387 . S
H4148 C4155 0.950 . S
C4149 C4147 1.387 . S
C4149 C4151 1.390 . S
C4149 H4153 0.950 . S
H4150 C4146 0.950 . S
C4151 C4149 1.390 . S
C4151 C4152 1.387 . S
C4151 H4154 0.950 . S
C4152 C4151 1.387 . S
C4152 C4155 1.387 . S
H4153 C4149 0.950 . S
H4154 C4151 0.950 . S
C4155 C4146 1.390 . S
C4155 H4148 0.950 . S
C4155 C4152 1.387 . S
C4156 C4157 1.387 . S
C4156 H4160 0.950 . S
C4156 C4165 1.390 . S
C4157 C4156 1.387 . S
C4157 C4159 1.387 . S
H4158 C4165 0.950 . S
C4159 C4157 1.387 . S
C4159 C4161 1.390 . S
C4159 H4163 0.950 . S
H4160 C4156 0.950 . S
C4161 C4159 1.390 . S
C4161 C4162 1.387 . S
C4161 H4164 0.950 . S
C4162 C4161 1.387 . S
C4162 C4165 1.387 . S
H4163 C4159 0.950 . S
H4164 C4161 0.950 . S
C4165 C4156 1.390 . S
C4165 H4158 0.950 . S
C4165 C4162 1.387 . S
C4166 C4167 1.387 . S
C4166 H4170 0.950 . S
C4166 C4175 1.390 . S
C4167 C4166 1.387 . S
C4167 C4169 1.387 . S
H4168 C4175 0.950 . S
C4169 C4167 1.387 . S
C4169 C4171 1.390 . S
C4169 H4173 0.950 . S
H4170 C4166 0.950 . S
C4171 C4169 1.390 . S
C4171 C4172 1.387 . S
C4171 H4174 0.950 . S
C4172 C4171 1.387 . S
C4172 C4175 1.387 . S
H4173 C4169 0.950 . S
H4174 C4171 0.950 . S
C4175 C4166 1.390 . S
C4175 H4168 0.950 . S
C4175 C4172 1.387 . S
C4176 C4177 1.387 . S
C4176 H4180 0.950 . S
C4176 C4185 1.390 . S
C4177 C4176 1.387 . S
C4177 C4179 1.387 . S
H4178 C4185 0.950 . S
C4179 C4177 1.387 . S
C4179 C4181 1.390 . S
C4179 H4183 0.950 . S
H4180 C4176 0.950 . S
C4181 C4179 1.390 . S
C4181 C4182 1.387 . S
C4181 H4184 0.950 . S
C4182 C4181 1.387 . S
C4182 C4185 1.387 . S
H4183 C4179 0.950 . S
H4184 C4181 0.950 . S
C4185 C4176 1.390 . S
C4185 H4178 0.950 . S
C4185 C4182 1.387 . S
C4186 C4187 1.387 . S
C4186 H4190 0.950 . S
C4186 C4195 1.390 . S
C4187 C4186 1.387 . S
C4187 C4189 1.387 . S
H4188 C4195 0.950 . S
C4189 C4187 1.387 . S
C4189 C4191 1.390 . S
C4189 H4193 0.950 . S
H4190 C4186 0.950 . S
C4191 C4189 1.390 . S
C4191 C4192 1.387 . S
C4191 H4194 0.950 . S
C4192 C4191 1.387 . S
C4192 C4195 1.387 . S
H4193 C4189 0.950 . S
H4194 C4191 0.950 . S
C4195 C4186 1.390 . S
C4195 H4188 0.950 . S
C4195 C4192 1.387 . S
C4196 C4197 1.387 . S
C4196 H4200 0.950 . S
C4196 C4205 1.390 . S
C4197 C4196 1.387 . S
C4197 C4199 1.387 . S
H4198 C4205 0.950 . S
C4199 C4197 1.387 . S
C4199 C4201 1.390 . S
C4199 H4203 0.950 . S
H4200 C4196 0.950 . S
C4201 C4199 1.390 . S
C4201 C4202 1.387 . S
C4201 H4204 0.950 . S
C4202 C4201 1.387 . S
C4202 C4205 1.387 . S
H4203 C4199 0.950 . S
H4204 C4201 0.950 . S
C4205 C4196 1.390 . S
C4205 H4198 0.950 . S
C4205 C4202 1.387 . S
C4206 C4207 1.387 . S
C4206 H4210 0.950 . S
C4206 C4215 1.390 . S
C4207 C4206 1.387 . S
C4207 C4209 1.387 . S
H4208 C4215 0.950 . S
C4209 C4207 1.387 . S
C4209 C4211 1.390 . S
C4209 H4213 0.950 . S
H4210 C4206 0.950 . S
C4211 C4209 1.390 . S
C4211 C4212 1.387 . S
C4211 H4214 0.950 . S
C4212 C4211 1.387 . S
C4212 C4215 1.387 . S
H4213 C4209 0.950 . S
H4214 C4211 0.950 . S
C4215 C4206 1.390 . S
C4215 H4208 0.950 . S
C4215 C4212 1.387 . S
C4216 C4217 1.387 . S
C4216 H4220 0.950 . S
C4216 C4225 1.390 . S
C4217 C4216 1.387 . S
C4217 C4219 1.387 . S
H4218 C4225 0.950 . S
C4219 C4217 1.387 . S
C4219 C4221 1.390 . S
C4219 H4223 0.950 . S
H4220 C4216 0.950 . S
C4221 C4219 1.390 . S
C4221 C4222 1.387 . S
C4221 H4224 0.950 . S
C4222 C4221 1.387 . S
C4222 C4225 1.387 . S
H4223 C4219 0.950 . S
H4224 C4221 0.950 . S
C4225 C4216 1.390 . S
C4225 H4218 0.950 . S
C4225 C4222 1.387 . S
C4226 C4227 1.387 . S
C4226 H4230 0.950 . S
C4226 C4235 1.390 . S
C4227 C4226 1.387 . S
C4227 C4229 1.387 . S
H4228 C4235 0.950 . S
C4229 C4227 1.387 . S
C4229 C4231 1.390 . S
C4229 H4233 0.950 . S
H4230 C4226 0.950 . S
C4231 C4229 1.390 . S
C4231 C4232 1.387 . S
C4231 H4234 0.950 . S
C4232 C4231 1.387 . S
C4232 C4235 1.387 . S
H4233 C4229 0.950 . S
H4234 C4231 0.950 . S
C4235 C4226 1.390 . S
C4235 H4228 0.950 . S
C4235 C4232 1.387 . S
C4236 C4237 1.387 . S
C4236 H4240 0.950 . S
C4236 C4245 1.390 . S
C4237 C4236 1.387 . S
C4237 C4239 1.387 . S
H4238 C4245 0.950 . S
C4239 C4237 1.387 . S
C4239 C4241 1.390 . S
C4239 H4243 0.950 . S
H4240 C4236 0.950 . S
C4241 C4239 1.390 . S
C4241 C4242 1.387 . S
C4241 H4244 0.950 . S
C4242 C4241 1.387 . S
C4242 C4245 1.387 . S
H4243 C4239 0.950 . S
H4244 C4241 0.950 . S
C4245 C4236 1.390 . S
C4245 H4238 0.950 . S
C4245 C4242 1.387 . S
C4246 C4247 1.387 . S
C4246 H4250 0.950 . S
C4246 C4255 1.390 . S
C4247 C4246 1.387 . S
C4247 C4249 1.387 . S
H4248 C4255 0.950 . S
C4249 C4247 1.387 . S
C4249 C4251 1.390 . S
C4249 H4253 0.950 . S
H4250 C4246 0.950 . S
C4251 C4249 1.390 . S
C4251 C4252 1.387 . S
C4251 H4254 0.950 . S
C4252 C4251 1.387 . S
C4252 C4255 1.387 . S
H4253 C4249 0.950 . S
H4254 C4251 0.950 . S
C4255 C4246 1.390 . S
C4255 H4248 0.950 . S
C4255 C4252 1.387 . S
C4256 C4257 1.387 . S
C4256 H4260 0.950 . S
C4256 C4265 1.390 . S
C4257 C4256 1.387 . S
C4257 C4259 1.387 . S
H4258 C4265 0.950 . S
C4259 C4257 1.387 . S
C4259 C4261 1.390 . S
C4259 H4263 0.950 . S
H4260 C4256 0.950 . S
C4261 C4259 1.390 . S
C4261 C4262 1.387 . S
C4261 H4264 0.950 . S
C4262 C4261 1.387 . S
C4262 C4265 1.387 . S
H4263 C4259 0.950 . S
H4264 C4261 0.950 . S
C4265 C4256 1.390 . S
C4265 H4258 0.950 . S
C4265 C4262 1.387 . S
C4266 C4267 1.387 . S
C4266 H4270 0.950 . S
C4266 C4275 1.390 . S
C4267 C4266 1.387 . S
C4267 C4269 1.387 . S
H4268 C4275 0.950 . S
C4269 C4267 1.387 . S
C4269 C4271 1.390 . S
C4269 H4273 0.950 . S
H4270 C4266 0.950 . S
C4271 C4269 1.390 . S
C4271 C4272 1.387 . S
C4271 H4274 0.950 . S
C4272 C4271 1.387 . S
C4272 C4275 1.387 . S
H4273 C4269 0.950 . S
H4274 C4271 0.950 . S
C4275 C4266 1.390 . S
C4275 H4268 0.950 . S
C4275 C4272 1.387 . S
C4276 C4277 1.387 . S
C4276 H4280 0.950 . S
C4276 C4285 1.390 . S
C4277 C4276 1.387 . S
C4277 C4279 1.387 . S
H4278 C4285 0.950 . S
C4279 C4277 1.387 . S
C4279 C4281 1.390 . S
C4279 H4283 0.950 . S
H4280 C4276 0.950 . S
C4281 C4279 1.390 . S
C4281 C4282 1.387 . S
C4281 H4284 0.950 . S
C4282 C4281 1.387 . S
C4282 C4285 1.387 . S
H4283 C4279 0.950 . S
H4284 C4281 0.950 . S
C4285 C4276 1.390 . S
C4285 H4278 0.950 . S
C4285 C4282 1.387 . S
C4286 C4287 1.387 . S
C4286 H4290 0.950 . S
C4286 C4295 1.390 . S
C4287 C4286 1.387 . S
C4287 C4289 1.387 . S
H4288 C4295 0.950 . S
C4289 C4287 1.387 . S
C4289 C4291 1.390 . S
C4289 H4293 0.950 . S
H4290 C4286 0.950 . S
C4291 C4289 1.390 . S
C4291 C4292 1.387 . S
C4291 H4294 0.950 . S
C4292 C4291 1.387 . S
C4292 C4295 1.387 . S
H4293 C4289 0.950 . S
H4294 C4291 0.950 . S
C4295 C4286 1.390 . S
C4295 H4288 0.950 . S
C4295 C4292 1.387 . S
C4296 C4297 1.387 . S
C4296 H4300 0.950 . S
C4296 C4305 1.390 . S
C4297 C4296 1.387 . S
C4297 C4299 1.387 . S
H4298 C4305 0.950 . S
C4299 C4297 1.387 . S
C4299 C4301 1.390 . S
C4299 H4303 0.950 . S
H4300 C4296 0.950 . S
C4301 C4299 1.390 . S
C4301 C4302 1.387 . S
C4301 H4304 0.950 . S
C4302 C4301 1.387 . S
C4302 C4305 1.387 . S
H4303 C4299 0.950 . S
H4304 C4301 0.950 . S
C4305 C4296 1.390 . S
C4305 H4298 0.950 . S
C4305 C4302 1.387 . S
C4306 C4307 1.387 . S
C4306 H4310 0.950 . S
C4306 C4315 1.390 . S
C4307 C4306 1.387 . S
C4307 C4309 1.387 . S
H4308 C4315 0.950 . S
C4309 C4307 1.387 . S
C4309 C4311 1.390 . S
C4309 H4313 0.950 . S
H4310 C4306 0.950 . S
C4311 C4309 1.390 . S
C4311 C4312 1.387 . S
C4311 H4314 0.950 . S
C4312 C4311 1.387 . S
C4312 C4315 1.387 . S
H4313 C4309 0.950 . S
H4314 C4311 0.950 . S
C4315 C4306 1.390 . S
C4315 H4308 0.950 . S
C4315 C4312 1.387 . S
C4316 C4317 1.387 . S
C4316 H4320 0.950 . S
C4316 C4325 1.390 . S
C4317 C4316 1.387 . S
C4317 C4319 1.387 . S
H4318 C4325 0.950 . S
C4319 C4317 1.387 . S
C4319 C4321 1.390 . S
C4319 H4323 0.950 . S
H4320 C4316 0.950 . S
C4321 C4319 1.390 . S
C4321 C4322 1.387 . S
C4321 H4324 0.950 . S
C4322 C4321 1.387 . S
C4322 C4325 1.387 . S
H4323 C4319 0.950 . S
H4324 C4321 0.950 . S
C4325 C4316 1.390 . S
C4325 H4318 0.950 . S
C4325 C4322 1.387 . S
C4326 C4327 1.387 . S
C4326 H4330 0.950 . S
C4326 C4335 1.390 . S
C4327 C4326 1.387 . S
C4327 C4329 1.387 . S
H4328 C4335 0.950 . S
C4329 C4327 1.387 . S
C4329 C4331 1.390 . S
C4329 H4333 0.950 . S
H4330 C4326 0.950 . S
C4331 C4329 1.390 . S
C4331 C4332 1.387 . S
C4331 H4334 0.950 . S
C4332 C4331 1.387 . S
C4332 C4335 1.387 . S
H4333 C4329 0.950 . S
H4334 C4331 0.950 . S
C4335 C4326 1.390 . S
C4335 H4328 0.950 . S
C4335 C4332 1.387 . S
C4336 C4337 1.387 . S
C4336 H4340 0.950 . S
C4336 C4345 1.390 . S
C4337 C4336 1.387 . S
C4337 C4339 1.387 . S
H4338 C4345 0.950 . S
C4339 C4337 1.387 . S
C4339 C4341 1.390 . S
C4339 H4343 0.950 . S
H4340 C4336 0.950 . S
C4341 C4339 1.390 . S
C4341 C4342 1.387 . S
C4341 H4344 0.950 . S
C4342 C4341 1.387 . S
C4342 C4345 1.387 . S
H4343 C4339 0.950 . S
H4344 C4341 0.950 . S
C4345 C4336 1.390 . S
C4345 H4338 0.950 . S
C4345 C4342 1.387 . S
C4346 C4347 1.387 . S
C4346 H4350 0.950 . S
C4346 C4355 1.390 . S
C4347 C4346 1.387 . S
C4347 C4349 1.387 . S
H4348 C4355 0.950 . S
C4349 C4347 1.387 . S
C4349 C4351 1.390 . S
C4349 H4353 0.950 . S
H4350 C4346 0.950 . S
C4351 C4349 1.390 . S
C4351 C4352 1.387 . S
C4351 H4354 0.950 . S
C4352 C4351 1.387 . S
C4352 C4355 1.387 . S
H4353 C4349 0.950 . S
H4354 C4351 0.950 . S
C4355 C4346 1.390 . S
C4355 H4348 0.950 . S
C4355 C4352 1.387 . S
C4356 C4357 1.387 . S
C4356 H4360 0.950 . S
C4356 C4365 1.390 . S
C4357 C4356 1.387 . S
C4357 C4359 1.387 . S
H4358 C4365 0.950 . S
C4359 C4357 1.387 . S
C4359 C4361 1.390 . S
C4359 H4363 0.950 . S
H4360 C4356 0.950 . S
C4361 C4359 1.390 . S
C4361 C4362 1.387 . S
C4361 H4364 0.950 . S
C4362 C4361 1.387 . S
C4362 C4365 1.387 . S
H4363 C4359 0.950 . S
H4364 C4361 0.950 . S
C4365 C4356 1.390 . S
C4365 H4358 0.950 . S
C4365 C4362 1.387 . S
C4366 C4367 1.387 . S
C4366 H4370 0.950 . S
C4366 C4375 1.390 . S
C4367 C4366 1.387 . S
C4367 C4369 1.387 . S
H4368 C4375 0.950 . S
C4369 C4367 1.387 . S
C4369 C4371 1.390 . S
C4369 H4373 0.950 . S
H4370 C4366 0.950 . S
C4371 C4369 1.390 . S
C4371 C4372 1.387 . S
C4371 H4374 0.950 . S
C4372 C4371 1.387 . S
C4372 C4375 1.387 . S
H4373 C4369 0.950 . S
H4374 C4371 0.950 . S
C4375 C4366 1.390 . S
C4375 H4368 0.950 . S
C4375 C4372 1.387 . S
C4376 C4377 1.387 . S
C4376 H4380 0.950 . S
C4376 C4385 1.390 . S
C4377 C4376 1.387 . S
C4377 C4379 1.387 . S
H4378 C4385 0.950 . S
C4379 C4377 1.387 . S
C4379 C4381 1.390 . S
C4379 H4383 0.950 . S
H4380 C4376 0.950 . S
C4381 C4379 1.390 . S
C4381 C4382 1.387 . S
C4381 H4384 0.950 . S
C4382 C4381 1.387 . S
C4382 C4385 1.387 . S
H4383 C4379 0.950 . S
H4384 C4381 0.950 . S
C4385 C4376 1.390 . S
C4385 H4378 0.950 . S
C4385 C4382 1.387 . S
C4386 C4387 1.387 . S
C4386 H4390 0.950 . S
C4386 C4395 1.390 . S
C4387 C4386 1.387 . S
C4387 C4389 1.387 . S
H4388 C4395 0.950 . S
C4389 C4387 1.387 . S
C4389 C4391 1.390 . S
C4389 H4393 0.950 . S
H4390 C4386 0.950 . S
C4391 C4389 1.390 . S
C4391 C4392 1.387 . S
C4391 H4394 0.950 . S
C4392 C4391 1.387 . S
C4392 C4395 1.387 . S
H4393 C4389 0.950 . S
H4394 C4391 0.950 . S
C4395 C4386 1.390 . S
C4395 H4388 0.950 . S
C4395 C4392 1.387 . S
C4396 C4397 1.387 . S
C4396 H4400 0.950 . S
C4396 C4405 1.390 . S
C4397 C4396 1.387 . S
C4397 C4399 1.387 . S
H4398 C4405 0.950 . S
C4399 C4397 1.387 . S
C4399 C4401 1.390 . S
C4399 H4403 0.950 . S
H4400 C4396 0.950 . S
C4401 C4399 1.390 . S
C4401 C4402 1.387 . S
C4401 H4404 0.950 . S
C4402 C4401 1.387 . S
C4402 C4405 1.387 . S
H4403 C4399 0.950 . S
H4404 C4401 0.950 . S
C4405 C4396 1.390 . S
C4405 H4398 0.950 . S
C4405 C4402 1.387 . S
C4406 C4407 1.387 . S
C4406 H4410 0.950 . S
C4406 C4415 1.390 . S
C4407 C4406 1.387 . S
C4407 C4409 1.387 . S
H4408 C4415 0.950 . S
C4409 C4407 1.387 . S
C4409 C4411 1.390 . S
C4409 H4413 0.950 . S
H4410 C4406 0.950 . S
C4411 C4409 1.390 . S
C4411 C4412 1.387 . S
C4411 H4414 0.950 . S
C4412 C4411 1.387 . S
C4412 C4415 1.387 . S
H4413 C4409 0.950 . S
H4414 C4411 0.950 . S
C4415 C4406 1.390 . S
C4415 H4408 0.950 . S
C4415 C4412 1.387 . S
C4416 C4417 1.387 . S
C4416 H4420 0.950 . S
C4416 C4425 1.390 . S
C4417 C4416 1.387 . S
C4417 C4419 1.387 . S
H4418 C4425 0.950 . S
C4419 C4417 1.387 . S
C4419 C4421 1.390 . S
C4419 H4423 0.950 . S
H4420 C4416 0.950 . S
C4421 C4419 1.390 . S
C4421 C4422 1.387 . S
C4421 H4424 0.950 . S
C4422 C4421 1.387 . S
C4422 C4425 1.387 . S
H4423 C4419 0.950 . S
H4424 C4421 0.950 . S
C4425 C4416 1.390 . S
C4425 H4418 0.950 . S
C4425 C4422 1.387 . S
C4426 C4427 1.387 . S
C4426 H4430 0.950 . S
C4426 C4435 1.390 . S
C4427 C4426 1.387 . S
C4427 C4429 1.387 . S
H4428 C4435 0.950 . S
C4429 C4427 1.387 . S
C4429 C4431 1.390 . S
C4429 H4433 0.950 . S
H4430 C4426 0.950 . S
C4431 C4429 1.390 . S
C4431 C4432 1.387 . S
C4431 H4434 0.950 . S
C4432 C4431 1.387 . S
C4432 C4435 1.387 . S
H4433 C4429 0.950 . S
H4434 C4431 0.950 . S
C4435 C4426 1.390 . S
C4435 H4428 0.950 . S
C4435 C4432 1.387 . S
C4436 C4437 1.387 . S
C4436 H4440 0.950 . S
C4436 C4445 1.390 . S
C4437 C4436 1.387 . S
C4437 C4439 1.387 . S
H4438 C4445 0.950 . S
C4439 C4437 1.387 . S
C4439 C4441 1.390 . S
C4439 H4443 0.950 . S
H4440 C4436 0.950 . S
C4441 C4439 1.390 . S
C4441 C4442 1.387 . S
C4441 H4444 0.950 . S
C4442 C4441 1.387 . S
C4442 C4445 1.387 . S
H4443 C4439 0.950 . S
H4444 C4441 0.950 . S
C4445 C4436 1.390 . S
C4445 H4438 0.950 . S
C4445 C4442 1.387 . S
C4446 C4447 1.387 . S
C4446 H4450 0.950 . S
C4446 C4455 1.390 . S
C4447 C4446 1.387 . S
C4447 C4449 1.387 . S
H4448 C4455 0.950 . S
C4449 C4447 1.387 . S
C4449 C4451 1.390 . S
C4449 H4453 0.950 . S
H4450 C4446 0.950 . S
C4451 C4449 1.390 . S
C4451 C4452 1.387 . S
C4451 H4454 0.950 . S
C4452 C4451 1.387 . S
C4452 C4455 1.387 . S
H4453 C4449 0.950 . S
H4454 C4451 0.950 . S
C4455 C4446 1.390 . S
C4455 H4448 0.950 . S
C4455 C4452 1.387 . S
C4456 C4457 1.387 . S
C4456 H4460 0.950 . S
C4456 C4465 1.390 . S
C4457 C4456 1.387 . S
C4457 C4459 1.387 . S
H4458 C4465 0.950 . S
C4459 C4457 1.387 . S
C4459 C4461 1.390 . S
C4459 H4463 0.950 . S
H4460 C4456 0.950 . S
C4461 C4459 1.390 . S
C4461 C4462 1.387 . S
C4461 H4464 0.950 . S
C4462 C4461 1.387 . S
C4462 C4465 1.387 . S
H4463 C4459 0.950 . S
H4464 C4461 0.950 . S
C4465 C4456 1.390 . S
C4465 H4458 0.950 . S
C4465 C4462 1.387 . S
C4466 C4467 1.387 . S
C4466 H4470 0.950 . S
C4466 C4475 1.390 . S
C4467 C4466 1.387 . S
C4467 C4469 1.387 . S
H4468 C4475 0.950 . S
C4469 C4467 1.387 . S
C4469 C4471 1.390 . S
C4469 H4473 0.950 . S
H4470 C4466 0.950 . S
C4471 C4469 1.390 . S
C4471 C4472 1.387 . S
C4471 H4474 0.950 . S
C4472 C4471 1.387 . S
C4472 C4475 1.387 . S
H4473 C4469 0.950 . S
H4474 C4471 0.950 . S
C4475 C4466 1.390 . S
C4475 H4468 0.950 . S
C4475 C4472 1.387 . S
C4476 C4477 1.387 . S
C4476 H4480 0.950 . S
C4476 C4485 1.390 . S
C4477 C4476 1.387 . S
C4477 C4479 1.387 . S
H4478 C4485 0.950 . S
C4479 C4477 1.387 . S
C4479 C4481 1.390 . S
C4479 H4483 0.950 . S
H4480 C4476 0.950 . S
C4481 C4479 1.390 . S
C4481 C4482 1.387 . S
C4481 H4484 0.950 . S
C4482 C4481 1.387 . S
C4482 C4485 1.387 . S
H4483 C4479 0.950 . S
H4484 C4481 0.950 . S
C4485 C4476 1.390 . S
C4485 H4478 0.950 . S
C4485 C4482 1.387 . S
C4486 C4487 1.387 . S
C4486 H4490 0.950 . S
C4486 C4495 1.390 . S
C4487 C4486 1.387 . S
C4487 C4489 1.387 . S
H4488 C4495 0.950 . S
C4489 C4487 1.387 . S
C4489 C4491 1.390 . S
C4489 H4493 0.950 . S
H4490 C4486 0.950 . S
C4491 C4489 1.390 . S
C4491 C4492 1.387 . S
C4491 H4494 0.950 . S
C4492 C4491 1.387 . S
C4492 C4495 1.387 . S
H4493 C4489 0.950 . S
H4494 C4491 0.950 . S
C4495 C4486 1.390 . S
C4495 H4488 0.950 . S
C4495 C4492 1.387 . S
C4496 C4497 1.387 . S
C4496 H4500 0.950 . S
C4496 C4505 1.390 . S
C4497 C4496 1.387 . S
C4497 C4499 1.387 . S
H4498 C4505 0.950 . S
C4499 C4497 1.387 . S
C4499 C4501 1.390 . S
C4499 H4503 0.950 . S
H4500 C4496 0.950 . S
C4501 C4499 1.390 . S
C4501 C4502 1.387 . S
C4501 H4504 0.950 . S
C4502 C4501 1.387 . S
C4502 C4505 1.387 . S
H4503 C4499 0.950 . S
H4504 C4501 0.950 . S
C4505 C4496 1.390 . S
C4505 H4498 0.950 . S
C4505 C4502 1.387 . S
C4506 C4507 1.387 . S
C4506 H4510 0.950 . S
C4506 C4515 1.390 . S
C4507 C4506 1.387 . S
C4507 C4509 1.387 . S
H4508 C4515 0.950 . S
C4509 C4507 1.387 . S
C4509 C4511 1.390 . S
C4509 H4513 0.950 . S
H4510 C4506 0.950 . S
C4511 C4509 1.390 . S
C4511 C4512 1.387 . S
C4511 H4514 0.950 . S
C4512 C4511 1.387 . S
C4512 C4515 1.387 . S
H4513 C4509 0.950 . S
H4514 C4511 0.950 . S
C4515 C4506 1.390 . S
C4515 H4508 0.950 . S
C4515 C4512 1.387 . S
C4516 C4517 1.387 . S
C4516 H4520 0.950 . S
C4516 C4525 1.390 . S
C4517 C4516 1.387 . S
C4517 C4519 1.387 . S
H4518 C4525 0.950 . S
C4519 C4517 1.387 . S
C4519 C4521 1.390 . S
C4519 H4523 0.950 . S
H4520 C4516 0.950 . S
C4521 C4519 1.390 . S
C4521 C4522 1.387 . S
C4521 H4524 0.950 . S
C4522 C4521 1.387 . S
C4522 C4525 1.387 . S
H4523 C4519 0.950 . S
H4524 C4521 0.950 . S
C4525 C4516 1.390 . S
C4525 H4518 0.950 . S
C4525 C4522 1.387 . S
C4526 C4527 1.387 . S
C4526 H4530 0.950 . S
C4526 C4535 1.390 . S
C4527 C4526 1.387 . S
C4527 C4529 1.387 . S
H4528 C4535 0.950 . S
C4529 C4527 1.387 . S
C4529 C4531 1.390 . S
C4529 H4533 0.950 . S
H4530 C4526 0.950 . S
C4531 C4529 1.390 . S
C4531 C4532 1.387 . S
C4531 H4534 0.950 . S
C4532 C4531 1.387 . S
C4532 C4535 1.387 . S
H4533 C4529 0.950 . S
H4534 C4531 0.950 . S
C4535 C4526 1.390 . S
C4535 H4528 0.950 . S
C4535 C4532 1.387 . S
C4536 C4537 1.387 . S
C4536 H4540 0.950 . S
C4536 C4545 1.390 . S
C4537 C4536 1.387 . S
C4537 C4539 1.387 . S
H4538 C4545 0.950 . S
C4539 C4537 1.387 . S
C4539 C4541 1.390 . S
C4539 H4543 0.950 . S
H4540 C4536 0.950 . S
C4541 C4539 1.390 . S
C4541 C4542 1.387 . S
C4541 H4544 0.950 . S
C4542 C4541 1.387 . S
C4542 C4545 1.387 . S
H4543 C4539 0.950 . S
H4544 C4541 0.950 . S
C4545 C4536 1.390 . S
C4545 H4538 0.950 . S
C4545 C4542 1.387 . S
C4546 C4547 1.387 . S
C4546 H4550 0.950 . S
C4546 C4555 1.390 . S
C4547 C4546 1.387 . S
C4547 C4549 1.387 . S
H4548 C4555 0.950 . S
C4549 C4547 1.387 . S
C4549 C4551 1.390 . S
C4549 H4553 0.950 . S
H4550 C4546 0.950 . S
C4551 C4549 1.390 . S
C4551 C4552 1.387 . S
C4551 H4554 0.950 . S
C4552 C4551 1.387 . S
C4552 C4555 1.387 . S
H4553 C4549 0.950 . S
H4554 C4551 0.950 . S
C4555 C4546 1.390 . S
C4555 H4548 0.950 . S
C4555 C4552 1.387 . S
C4556 C4557 1.387 . S
C4556 H4560 0.950 . S
C4556 C4565 1.390 . S
C4557 C4556 1.387 . S
C4557 C4559 1.387 . S
H4558 C4565 0.950 . S
C4559 C4557 1.387 . S
C4559 C4561 1.390 . S
C4559 H4563 0.950 . S
H4560 C4556 0.950 . S
C4561 C4559 1.390 . S
C4561 C4562 1.387 . S
C4561 H4564 0.950 . S
C4562 C4561 1.387 . S
C4562 C4565 1.387 . S
H4563 C4559 0.950 . S
H4564 C4561 0.950 . S
C4565 C4556 1.390 . S
C4565 H4558 0.950 . S
C4565 C4562 1.387 . S
C4566 C4567 1.387 . S
C4566 H4570 0.950 . S
C4566 C4575 1.390 . S
C4567 C4566 1.387 . S
C4567 C4569 1.387 . S
H4568 C4575 0.950 . S
C4569 C4567 1.387 . S
C4569 C4571 1.390 . S
C4569 H4573 0.950 . S
H4570 C4566 0.950 . S
C4571 C4569 1.390 . S
C4571 C4572 1.387 . S
C4571 H4574 0.950 . S
C4572 C4571 1.387 . S
C4572 C4575 1.387 . S
H4573 C4569 0.950 . S
H4574 C4571 0.950 . S
C4575 C4566 1.390 . S
C4575 H4568 0.950 . S
C4575 C4572 1.387 . S
C4576 C4577 1.387 . S
C4576 H4580 0.950 . S
C4576 C4585 1.390 . S
C4577 C4576 1.387 . S
C4577 C4579 1.387 . S
H4578 C4585 0.950 . S
C4579 C4577 1.387 . S
C4579 C4581 1.390 . S
C4579 H4583 0.950 . S
H4580 C4576 0.950 . S
C4581 C4579 1.390 . S
C4581 C4582 1.387 . S
C4581 H4584 0.950 . S
C4582 C4581 1.387 . S
C4582 C4585 1.387 . S
H4583 C4579 0.950 . S
H4584 C4581 0.950 . S
C4585 C4576 1.390 . S
C4585 H4578 0.950 . S
C4585 C4582 1.387 . S
C4586 C4587 1.387 . S
C4586 H4590 0.950 . S
C4586 C4595 1.390 . S
C4587 C4586 1.387 . S
C4587 C4589 1.387 . S
H4588 C4595 0.950 . S
C4589 C4587 1.387 . S
C4589 C4591 1.390 . S
C4589 H4593 0.950 . S
H4590 C4586 0.950 . S
C4591 C4589 1.390 . S
C4591 C4592 1.387 . S
C4591 H4594 0.950 . S
C4592 C4591 1.387 . S
C4592 C4595 1.387 . S
H4593 C4589 0.950 . S
H4594 C4591 0.950 . S
C4595 C4586 1.390 . S
C4595 H4588 0.950 . S
C4595 C4592 1.387 . S
C4596 C4597 1.387 . S
C4596 H4600 0.950 . S
C4596 C4605 1.390 . S
C4597 C4596 1.387 . S
C4597 C4599 1.387 . S
H4598 C4605 0.950 . S
C4599 C4597 1.387 . S
C4599 C4601 1.390 . S
C4599 H4603 0.950 . S
H4600 C4596 0.950 . S
C4601 C4599 1.390 . S
C4601 C4602 1.387 . S
C4601 H4604 0.950 . S
C4602 C4601 1.387 . S
C4602 C4605 1.387 . S
H4603 C4599 0.950 . S
H4604 C4601 0.950 . S
C4605 C4596 1.390 . S
C4605 H4598 0.950 . S
C4605 C4602 1.387 . S
C4606 C4607 1.387 . S
C4606 H4610 0.950 . S
C4606 C4615 1.390 . S
C4607 C4606 1.387 . S
C4607 C4609 1.387 . S
H4608 C4615 0.950 . S
C4609 C4607 1.387 . S
C4609 C4611 1.390 . S
C4609 H4613 0.950 . S
H4610 C4606 0.950 . S
C4611 C4609 1.390 . S
C4611 C4612 1.387 . S
C4611 H4614 0.950 . S
C4612 C4611 1.387 . S
C4612 C4615 1.387 . S
H4613 C4609 0.950 . S
H4614 C4611 0.950 . S
C4615 C4606 1.390 . S
C4615 H4608 0.950 . S
C4615 C4612 1.387 . S
C4616 C4617 1.387 . S
C4616 H4620 0.950 . S
C4616 C4625 1.390 . S
C4617 C4616 1.387 . S
C4617 C4619 1.387 . S
H4618 C4625 0.950 . S
C4619 C4617 1.387 . S
C4619 C4621 1.390 . S
C4619 H4623 0.950 . S
H4620 C4616 0.950 . S
C4621 C4619 1.390 . S
C4621 C4622 1.387 . S
C4621 H4624 0.950 . S
C4622 C4621 1.387 . S
C4622 C4625 1.387 . S
H4623 C4619 0.950 . S
H4624 C4621 0.950 . S
C4625 C4616 1.390 . S
C4625 H4618 0.950 . S
C4625 C4622 1.387 . S
C4626 C4627 1.387 . S
C4626 H4630 0.950 . S
C4626 C4635 1.390 . S
C4627 C4626 1.387 . S
C4627 C4629 1.387 . S
H4628 C4635 0.950 . S
C4629 C4627 1.387 . S
C4629 C4631 1.390 . S
C4629 H4633 0.950 . S
H4630 C4626 0.950 . S
C4631 C4629 1.390 . S
C4631 C4632 1.387 . S
C4631 H4634 0.950 . S
C4632 C4631 1.387 . S
C4632 C4635 1.387 . S
H4633 C4629 0.950 . S
H4634 C4631 0.950 . S
C4635 C4626 1.390 . S
C4635 H4628 0.950 . S
C4635 C4632 1.387 . S
C4636 C4637 1.387 . S
C4636 H4640 0.950 . S
C4636 C4645 1.390 . S
C4637 C4636 1.387 . S
C4637 C4639 1.387 . S
H4638 C4645 0.950 . S
C4639 C4637 1.387 . S
C4639 C4641 1.390 . S
C4639 H4643 0.950 . S
H4640 C4636 0.950 . S
C4641 C4639 1.390 . S
C4641 C4642 1.387 . S
C4641 H4644 0.950 . S
C4642 C4641 1.387 . S
C4642 C4645 1.387 . S
H4643 C4639 0.950 . S
H4644 C4641 0.950 . S
C4645 C4636 1.390 . S
C4645 H4638 0.950 . S
C4645 C4642 1.387 . S
C4646 C4647 1.387 . S
C4646 H4650 0.950 . S
C4646 C4655 1.390 . S
C4647 C4646 1.387 . S
C4647 C4649 1.387 . S
H4648 C4655 0.950 . S
C4649 C4647 1.387 . S
C4649 C4651 1.390 . S
C4649 H4653 0.950 . S
H4650 C4646 0.950 . S
C4651 C4649 1.390 . S
C4651 C4652 1.387 . S
C4651 H4654 0.950 . S
C4652 C4651 1.387 . S
C4652 C4655 1.387 . S
H4653 C4649 0.950 . S
H4654 C4651 0.950 . S
C4655 C4646 1.390 . S
C4655 H4648 0.950 . S
C4655 C4652 1.387 . S
C4656 C4657 1.387 . S
C4656 H4660 0.950 . S
C4656 C4665 1.390 . S
C4657 C4656 1.387 . S
C4657 C4659 1.387 . S
H4658 C4665 0.950 . S
C4659 C4657 1.387 . S
C4659 C4661 1.390 . S
C4659 H4663 0.950 . S
H4660 C4656 0.950 . S
C4661 C4659 1.390 . S
C4661 C4662 1.387 . S
C4661 H4664 0.950 . S
C4662 C4661 1.387 . S
C4662 C4665 1.387 . S
H4663 C4659 0.950 . S
H4664 C4661 0.950 . S
C4665 C4656 1.390 . S
C4665 H4658 0.950 . S
C4665 C4662 1.387 . S
C4666 C4667 1.387 . S
C4666 H4670 0.950 . S
C4666 C4675 1.390 . S
C4667 C4666 1.387 . S
C4667 C4669 1.387 . S
H4668 C4675 0.950 . S
C4669 C4667 1.387 . S
C4669 C4671 1.390 . S
C4669 H4673 0.950 . S
H4670 C4666 0.950 . S
C4671 C4669 1.390 . S
C4671 C4672 1.387 . S
C4671 H4674 0.950 . S
C4672 C4671 1.387 . S
C4672 C4675 1.387 . S
H4673 C4669 0.950 . S
H4674 C4671 0.950 . S
C4675 C4666 1.390 . S
C4675 H4668 0.950 . S
C4675 C4672 1.387 . S
C4676 C4677 1.387 . S
C4676 H4680 0.950 . S
C4676 C4685 1.390 . S
C4677 C4676 1.387 . S
C4677 C4679 1.387 . S
H4678 C4685 0.950 . S
C4679 C4677 1.387 . S
C4679 C4681 1.390 . S
C4679 H4683 0.950 . S
H4680 C4676 0.950 . S
C4681 C4679 1.390 . S
C4681 C4682 1.387 . S
C4681 H4684 0.950 . S
C4682 C4681 1.387 . S
C4682 C4685 1.387 . S
H4683 C4679 0.950 . S
H4684 C4681 0.950 . S
C4685 C4676 1.390 . S
C4685 H4678 0.950 . S
C4685 C4682 1.387 . S
C4686 C4687 1.387 . S
C4686 H4690 0.950 . S
C4686 C4695 1.390 . S
C4687 C4686 1.387 . S
C4687 C4689 1.387 . S
H4688 C4695 0.950 . S
C4689 C4687 1.387 . S
C4689 C4691 1.390 . S
C4689 H4693 0.950 . S
H4690 C4686 0.950 . S
C4691 C4689 1.390 . S
C4691 C4692 1.387 . S
C4691 H4694 0.950 . S
C4692 C4691 1.387 . S
C4692 C4695 1.387 . S
H4693 C4689 0.950 . S
H4694 C4691 0.950 . S
C4695 C4686 1.390 . S
C4695 H4688 0.950 . S
C4695 C4692 1.387 . S
C4696 C4697 1.387 . S
C4696 H4700 0.950 . S
C4696 C4705 1.390 . S
C4697 C4696 1.387 . S
C4697 C4699 1.387 . S
H4698 C4705 0.950 . S
C4699 C4697 1.387 . S
C4699 C4701 1.390 . S
C4699 H4703 0.950 . S
H4700 C4696 0.950 . S
C4701 C4699 1.390 . S
C4701 C4702 1.387 . S
C4701 H4704 0.950 . S
C4702 C4701 1.387 . S
C4702 C4705 1.387 . S
H4703 C4699 0.950 . S
H4704 C4701 0.950 . S
C4705 C4696 1.390 . S
C4705 H4698 0.950 . S
C4705 C4702 1.387 . S
C4706 C4707 1.387 . S
C4706 H4710 0.950 . S
C4706 C4715 1.390 . S
C4707 C4706 1.387 . S
C4707 C4709 1.387 . S
H4708 C4715 0.950 . S
C4709 C4707 1.387 . S
C4709 C4711 1.390 . S
C4709 H4713 0.950 . S
H4710 C4706 0.950 . S
C4711 C4709 1.390 . S
C4711 C4712 1.387 . S
C4711 H4714 0.950 . S
C4712 C4711 1.387 . S
C4712 C4715 1.387 . S
H4713 C4709 0.950 . S
H4714 C4711 0.950 . S
C4715 C4706 1.390 . S
C4715 H4708 0.950 . S
C4715 C4712 1.387 . S
C4716 C4717 1.387 . S
C4716 H4720 0.950 . S
C4716 C4725 1.390 . S
C4717 C4716 1.387 . S
C4717 C4719 1.387 . S
H4718 C4725 0.950 . S
C4719 C4717 1.387 . S
C4719 C4721 1.390 . S
C4719 H4723 0.950 . S
H4720 C4716 0.950 . S
C4721 C4719 1.390 . S
C4721 C4722 1.387 . S
C4721 H4724 0.950 . S
C4722 C4721 1.387 . S
C4722 C4725 1.387 . S
H4723 C4719 0.950 . S
H4724 C4721 0.950 . S
C4725 C4716 1.390 . S
C4725 H4718 0.950 . S
C4725 C4722 1.387 . S
C4726 C4727 1.387 . S
C4726 H4730 0.950 . S
C4726 C4735 1.390 . S
C4727 C4726 1.387 . S
C4727 C4729 1.387 . S
H4728 C4735 0.950 . S
C4729 C4727 1.387 . S
C4729 C4731 1.390 . S
C4729 H4733 0.950 . S
H4730 C4726 0.950 . S
C4731 C4729 1.390 . S
C4731 C4732 1.387 . S
C4731 H4734 0.950 . S
C4732 C4731 1.387 . S
C4732 C4735 1.387 . S
H4733 C4729 0.950 . S
H4734 C4731 0.950 . S
C4735 C4726 1.390 . S
C4735 H4728 0.950 . S
C4735 C4732 1.387 . S
C4736 C4737 1.387 . S
C4736 H4740 0.950 . S
C4736 C4745 1.390 . S
C4737 C4736 1.387 . S
C4737 C4739 1.387 . S
H4738 C4745 0.950 . S
C4739 C4737 1.387 . S
C4739 C4741 1.390 . S
C4739 H4743 0.950 . S
H4740 C4736 0.950 . S
C4741 C4739 1.390 . S
C4741 C4742 1.387 . S
C4741 H4744 0.950 . S
C4742 C4741 1.387 . S
C4742 C4745 1.387 . S
H4743 C4739 0.950 . S
H4744 C4741 0.950 . S
C4745 C4736 1.390 . S
C4745 H4738 0.950 . S
C4745 C4742 1.387 . S
C4746 C4747 1.387 . S
C4746 H4750 0.950 . S
C4746 C4755 1.390 . S
C4747 C4746 1.387 . S
C4747 C4749 1.387 . S
H4748 C4755 0.950 . S
C4749 C4747 1.387 . S
C4749 C4751 1.390 . S
C4749 H4753 0.950 . S
H4750 C4746 0.950 . S
C4751 C4749 1.390 . S
C4751 C4752 1.387 . S
C4751 H4754 0.950 . S
C4752 C4751 1.387 . S
C4752 C4755 1.387 . S
H4753 C4749 0.950 . S
H4754 C4751 0.950 . S
C4755 C4746 1.390 . S
C4755 H4748 0.950 . S
C4755 C4752 1.387 . S
C4756 C4757 1.387 . S
C4756 H4760 0.950 . S
C4756 C4765 1.390 . S
C4757 C4756 1.387 . S
C4757 C4759 1.387 . S
H4758 C4765 0.950 . S
C4759 C4757 1.387 . S
C4759 C4761 1.390 . S
C4759 H4763 0.950 . S
H4760 C4756 0.950 . S
C4761 C4759 1.390 . S
C4761 C4762 1.387 . S
C4761 H4764 0.950 . S
C4762 C4761 1.387 . S
C4762 C4765 1.387 . S
H4763 C4759 0.950 . S
H4764 C4761 0.950 . S
C4765 C4756 1.390 . S
C4765 H4758 0.950 . S
C4765 C4762 1.387 . S
C4766 C4767 1.387 . S
C4766 H4770 0.950 . S
C4766 C4775 1.390 . S
C4767 C4766 1.387 . S
C4767 C4769 1.387 . S
H4768 C4775 0.950 . S
C4769 C4767 1.387 . S
C4769 C4771 1.390 . S
C4769 H4773 0.950 . S
H4770 C4766 0.950 . S
C4771 C4769 1.390 . S
C4771 C4772 1.387 . S
C4771 H4774 0.950 . S
C4772 C4771 1.387 . S
C4772 C4775 1.387 . S
H4773 C4769 0.950 . S
H4774 C4771 0.950 . S
C4775 C4766 1.390 . S
C4775 H4768 0.950 . S
C4775 C4772 1.387 . S
C4776 C4777 1.387 . S
C4776 H4780 0.950 . S
C4776 C4785 1.390 . S
C4777 C4776 1.387 . S
C4777 C4779 1.387 . S
H4778 C4785 0.950 . S
C4779 C4777 1.387 . S
C4779 C4781 1.390 . S
C4779 H4783 0.950 . S
H4780 C4776 0.950 . S
C4781 C4779 1.390 . S
C4781 C4782 1.387 . S
C4781 H4784 0.950 . S
C4782 C4781 1.387 . S
C4782 C4785 1.387 . S
H4783 C4779 0.950 . S
H4784 C4781 0.950 . S
C4785 C4776 1.390 . S
C4785 H4778 0.950 . S
C4785 C4782 1.387 . S
C4786 C4787 1.387 . S
C4786 H4790 0.950 . S
C4786 C4795 1.390 . S
C4787 C4786 1.387 . S
C4787 C4789 1.387 . S
H4788 C4795 0.950 . S
C4789 C4787 1.387 . S
C4789 C4791 1.390 . S
C4789 H4793 0.950 . S
H4790 C4786 0.950 . S
C4791 C4789 1.390 . S
C4791 C4792 1.387 . S
C4791 H4794 0.950 . S
C4792 C4791 1.387 . S
C4792 C4795 1.387 . S
H4793 C4789 0.950 . S
H4794 C4791 0.950 . S
C4795 C4786 1.390 . S
C4795 H4788 0.950 . S
C4795 C4792 1.387 . S
C4796 C4797 1.387 . S
C4796 H4800 0.950 . S
C4796 C4805 1.390 . S
C4797 C4796 1.387 . S
C4797 C4799 1.387 . S
H4798 C4805 0.950 . S
C4799 C4797 1.387 . S
C4799 C4801 1.390 . S
C4799 H4803 0.950 . S
H4800 C4796 0.950 . S
C4801 C4799 1.390 . S
C4801 C4802 1.387 . S
C4801 H4804 0.950 . S
C4802 C4801 1.387 . S
C4802 C4805 1.387 . S
H4803 C4799 0.950 . S
H4804 C4801 0.950 . S
C4805 C4796 1.390 . S
C4805 H4798 0.950 . S
C4805 C4802 1.387 . S
C4806 C4807 1.387 . S
C4806 H4810 0.950 . S
C4806 C4815 1.390 . S
C4807 C4806 1.387 . S
C4807 C4809 1.387 . S
H4808 C4815 0.950 . S
C4809 C4807 1.387 . S
C4809 C4811 1.390 . S
C4809 H4813 0.950 . S
H4810 C4806 0.950 . S
C4811 C4809 1.390 . S
C4811 C4812 1.387 . S
C4811 H4814 0.950 . S
C4812 C4811 1.387 . S
C4812 C4815 1.387 . S
H4813 C4809 0.950 . S
H4814 C4811 0.950 . S
C4815 C4806 1.390 . S
C4815 H4808 0.950 . S
C4815 C4812 1.387 . S
C4816 C4817 1.387 . S
C4816 H4820 0.950 . S
C4816 C4825 1.390 . S
C4817 C4816 1.387 . S
C4817 C4819 1.387 . S
H4818 C4825 0.950 . S
C4819 C4817 1.387 . S
C4819 C4821 1.390 . S
C4819 H4823 0.950 . S
H4820 C4816 0.950 . S
C4821 C4819 1.390 . S
C4821 C4822 1.387 . S
C4821 H4824 0.950 . S
C4822 C4821 1.387 . S
C4822 C4825 1.387 . S
H4823 C4819 0.950 . S
H4824 C4821 0.950 . S
C4825 C4816 1.390 . S
C4825 H4818 0.950 . S
C4825 C4822 1.387 . S
C4826 C4827 1.387 . S
C4826 H4830 0.950 . S
C4826 C4835 1.390 . S
C4827 C4826 1.387 . S
C4827 C4829 1.387 . S
H4828 C4835 0.950 . S
C4829 C4827 1.387 . S
C4829 C4831 1.390 . S
C4829 H4833 0.950 . S
H4830 C4826 0.950 . S
C4831 C4829 1.390 . S
C4831 C4832 1.387 . S
C4831 H4834 0.950 . S
C4832 C4831 1.387 . S
C4832 C4835 1.387 . S
H4833 C4829 0.950 . S
H4834 C4831 0.950 . S
C4835 C4826 1.390 . S
C4835 H4828 0.950 . S
C4835 C4832 1.387 . S
C4836 C4837 1.387 . S
C4836 H4840 0.950 . S
C4836 C4845 1.390 . S
C4837 C4836 1.387 . S
C4837 C4839 1.387 . S
H4838 C4845 0.950 . S
C4839 C4837 1.387 . S
C4839 C4841 1.390 . S
C4839 H4843 0.950 . S
H4840 C4836 0.950 . S
C4841 C4839 1.390 . S
C4841 C4842 1.387 . S
C4841 H4844 0.950 . S
C4842 C4841 1.387 . S
C4842 C4845 1.387 . S
H4843 C4839 0.950 . S
H4844 C4841 0.950 . S
C4845 C4836 1.390 . S
C4845 H4838 0.950 . S
C4845 C4842 1.387 . S
C4846 C4847 1.387 . S
C4846 H4850 0.950 . S
C4846 C4855 1.390 . S
C4847 C4846 1.387 . S
C4847 C4849 1.387 . S
H4848 C4855 0.950 . S
C4849 C4847 1.387 . S
C4849 C4851 1.390 . S
C4849 H4853 0.950 . S
H4850 C4846 0.950 . S
C4851 C4849 1.390 . S
C4851 C4852 1.387 . S
C4851 H4854 0.950 . S
C4852 C4851 1.387 . S
C4852 C4855 1.387 . S
H4853 C4849 0.950 . S
H4854 C4851 0.950 . S
C4855 C4846 1.390 . S
C4855 H4848 0.950 . S
C4855 C4852 1.387 . S
C4856 C4857 1.387 . S
C4856 H4860 0.950 . S
C4856 C4865 1.390 . S
C4857 C4856 1.387 . S
C4857 C4859 1.387 . S
H4858 C4865 0.950 . S
C4859 C4857 1.387 . S
C4859 C4861 1.390 . S
C4859 H4863 0.950 . S
H4860 C4856 0.950 . S
C4861 C4859 1.390 . S
C4861 C4862 1.387 . S
C4861 H4864 0.950 . S
C4862 C4861 1.387 . S
C4862 C4865 1.387 . S
H4863 C4859 0.950 . S
H4864 C4861 0.950 . S
C4865 C4856 1.390 . S
C4865 H4858 0.950 . S
C4865 C4862 1.387 . S
C4866 C4867 1.387 . S
C4866 H4870 0.950 . S
C4866 C4875 1.390 . S
C4867 C4866 1.387 . S
C4867 C4869 1.387 . S
H4868 C4875 0.950 . S
C4869 C4867 1.387 . S
C4869 C4871 1.390 . S
C4869 H4873 0.950 . S
H4870 C4866 0.950 . S
C4871 C4869 1.390 . S
C4871 C4872 1.387 . S
C4871 H4874 0.950 . S
C4872 C4871 1.387 . S
C4872 C4875 1.387 . S
H4873 C4869 0.950 . S
H4874 C4871 0.950 . S
C4875 C4866 1.390 . S
C4875 H4868 0.950 . S
C4875 C4872 1.387 . S
C4876 C4877 1.387 . S
C4876 H4880 0.950 . S
C4876 C4885 1.390 . S
C4877 C4876 1.387 . S
C4877 C4879 1.387 . S
H4878 C4885 0.950 . S
C4879 C4877 1.387 . S
C4879 C4881 1.390 . S
C4879 H4883 0.950 . S
H4880 C4876 0.950 . S
C4881 C4879 1.390 . S
C4881 C4882 1.387 . S
C4881 H4884 0.950 . S
C4882 C4881 1.387 . S
C4882 C4885 1.387 . S
H4883 C4879 0.950 . S
H4884 C4881 0.950 . S
C4885 C4876 1.390 . S
C4885 H4878 0.950 . S
C4885 C4882 1.387 . S
C4886 C4887 1.387 . S
C4886 H4890 0.950 . S
C4886 C4895 1.390 . S
C4887 C4886 1.387 . S
C4887 C4889 1.387 . S
H4888 C4895 0.950 . S
C4889 C4887 1.387 . S
C4889 C4891 1.390 . S
C4889 H4893 0.950 . S
H4890 C4886 0.950 . S
C4891 C4889 1.390 . S
C4891 C4892 1.387 . S
C4891 H4894 0.950 . S
C4892 C4891 1.387 . S
C4892 C4895 1.387 . S
H4893 C4889 0.950 . S
H4894 C4891 0.950 . S
C4895 C4886 1.390 . S
C4895 H4888 0.950 . S
C4895 C4892 1.387 . S
C4896 C4897 1.387 . S
C4896 H4900 0.950 . S
C4896 C4905 1.390 1_655 S
C4897 C4896 1.387 . S
C4897 C4899 1.387 . S
H4898 C4905 0.950 . S
C4899 C4897 1.387 . S
C4899 C4901 1.390 1_655 S
C4899 H4903 0.950 . S
H4900 C4896 0.950 . S
C4901 C4899 1.390 1_455 S
C4901 C4902 1.387 . S
C4901 H4904 0.950 . S
C4902 C4901 1.387 . S
C4902 C4905 1.387 . S
H4903 C4899 0.950 . S
H4904 C4901 0.950 . S
C4905 C4896 1.390 1_455 S
C4905 H4898 0.950 . S
C4905 C4902 1.387 . S
C4906 C4907 1.387 . S
C4906 H4910 0.950 . S
C4906 C4915 1.390 . S
C4907 C4906 1.387 . S
C4907 C4909 1.387 . S
H4908 C4915 0.950 . S
C4909 C4907 1.387 . S
C4909 C4911 1.390 . S
C4909 H4913 0.950 . S
H4910 C4906 0.950 . S
C4911 C4909 1.390 . S
C4911 C4912 1.387 . S
C4911 H4914 0.950 . S
C4912 C4911 1.387 . S
C4912 C4915 1.387 . S
H4913 C4909 0.950 . S
H4914 C4911 0.950 . S
C4915 C4906 1.390 . S
C4915 H4908 0.950 . S
C4915 C4912 1.387 . S
C4916 C4917 1.387 . S
C4916 H4920 0.950 . S
C4916 C4925 1.390 1_645 S
C4917 C4916 1.387 . S
C4917 C4919 1.387 . S
H4918 C4925 0.950 . S
C4919 C4917 1.387 . S
C4919 C4921 1.390 1_645 S
C4919 H4923 0.950 . S
H4920 C4916 0.950 . S
C4921 C4919 1.390 1_465 S
C4921 C4922 1.387 . S
C4921 H4924 0.950 . S
C4922 C4921 1.387 . S
C4922 C4925 1.387 . S
H4923 C4919 0.950 . S
H4924 C4921 0.950 . S
C4925 C4916 1.390 1_465 S
C4925 H4918 0.950 . S
C4925 C4922 1.387 . S
C4926 C4927 1.387 . S
C4926 H4930 0.950 . S
C4926 C4935 1.390 . S
C4927 C4926 1.387 . S
C4927 C4929 1.387 . S
H4928 C4935 0.950 . S
C4929 C4927 1.387 . S
C4929 C4931 1.390 . S
C4929 H4933 0.950 . S
H4930 C4926 0.950 . S
C4931 C4929 1.390 . S
C4931 C4932 1.387 . S
C4931 H4934 0.950 . S
C4932 C4931 1.387 . S
C4932 C4935 1.387 . S
H4933 C4929 0.950 . S
H4934 C4931 0.950 . S
C4935 C4926 1.390 . S
C4935 H4928 0.950 . S
C4935 C4932 1.387 . S
C4936 C4937 1.387 . S
C4936 H4940 0.950 . S
C4936 C4945 1.390 1_455 S
C4937 C4936 1.387 . S
C4937 C4939 1.387 . S
H4938 C4945 0.950 . S
C4939 C4937 1.387 . S
C4939 C4941 1.390 1_455 S
C4939 H4943 0.950 . S
H4940 C4936 0.950 . S
C4941 C4939 1.390 1_655 S
C4941 C4942 1.387 . S
C4941 H4944 0.950 . S
C4942 C4941 1.387 . S
C4942 C4945 1.387 . S
H4943 C4939 0.950 . S
H4944 C4941 0.950 . S
C4945 C4936 1.390 1_655 S
C4945 H4938 0.950 . S
C4945 C4942 1.387 . S
C4946 C4947 1.387 . S
C4946 H4950 0.950 . S
C4946 C4955 1.390 . S
C4947 C4946 1.387 . S
C4947 C4949 1.387 . S
H4948 C4955 0.950 . S
C4949 C4947 1.387 . S
C4949 C4951 1.390 . S
C4949 H4953 0.950 . S
H4950 C4946 0.950 . S
C4951 C4949 1.390 . S
C4951 C4952 1.387 . S
C4951 H4954 0.950 . S
C4952 C4951 1.387 . S
C4952 C4955 1.387 . S
H4953 C4949 0.950 . S
H4954 C4951 0.950 . S
C4955 C4946 1.390 . S
C4955 H4948 0.950 . S
C4955 C4952 1.387 . S
C4956 C4957 1.387 . S
C4956 H4960 0.950 . S
C4956 C4965 1.390 1_665 S
C4957 C4956 1.387 . S
C4957 C4959 1.387 . S
H4958 C4965 0.950 . S
C4959 C4957 1.387 . S
C4959 C4961 1.390 1_665 S
C4959 H4963 0.950 . S
H4960 C4956 0.950 . S
C4961 C4959 1.390 1_445 S
C4961 C4962 1.387 . S
C4961 H4964 0.950 . S
C4962 C4961 1.387 . S
C4962 C4965 1.387 . S
H4963 C4959 0.950 . S
H4964 C4961 0.950 . S
C4965 C4956 1.390 1_445 S
C4965 H4958 0.950 . S
C4965 C4962 1.387 . S
C4966 C4967 1.387 . S
C4966 H4970 0.950 . S
C4966 C4975 1.390 . S
C4967 C4966 1.387 . S
C4967 C4969 1.387 . S
H4968 C4975 0.950 . S
C4969 C4967 1.387 . S
C4969 C4971 1.390 . S
C4969 H4973 0.950 . S
H4970 C4966 0.950 . S
C4971 C4969 1.390 . S
C4971 C4972 1.387 . S
C4971 H4974 0.950 . S
C4972 C4971 1.387 . S
C4972 C4975 1.387 . S
H4973 C4969 0.950 . S
H4974 C4971 0.950 . S
C4975 C4966 1.390 . S
C4975 H4968 0.950 . S
C4975 C4972 1.387 . S
C4976 C4977 1.387 . S
C4976 H4980 0.950 . S
C4976 C4985 1.390 1_545 S
C4977 C4976 1.387 . S
C4977 C4979 1.387 . S
H4978 C4985 0.950 . S
C4979 C4977 1.387 . S
C4979 C4981 1.390 1_545 S
C4979 H4983 0.950 . S
H4980 C4976 0.950 . S
C4981 C4979 1.390 1_565 S
C4981 C4982 1.387 . S
C4981 H4984 0.950 . S
C4982 C4981 1.387 . S
C4982 C4985 1.387 . S
H4983 C4979 0.950 . S
H4984 C4981 0.950 . S
C4985 C4976 1.390 1_565 S
C4985 H4978 0.950 . S
C4985 C4982 1.387 . S
C4986 C4987 1.387 . S
C4986 H4990 0.950 . S
C4986 C4995 1.390 . S
C4987 C4986 1.387 . S
C4987 C4989 1.387 . S
H4988 C4995 0.950 . S
C4989 C4987 1.387 . S
C4989 C4991 1.390 . S
C4989 H4993 0.950 . S
H4990 C4986 0.950 . S
C4991 C4989 1.390 . S
C4991 C4992 1.387 . S
C4991 H4994 0.950 . S
C4992 C4991 1.387 . S
C4992 C4995 1.387 . S
H4993 C4989 0.950 . S
H4994 C4991 0.950 . S
C4995 C4986 1.390 . S
C4995 H4988 0.950 . S
C4995 C4992 1.387 . S
C4996 C4997 1.387 . S
C4996 H5000 0.950 . S
C4996 C5005 1.390 1_556 S
C4997 C4996 1.387 . S
C4997 C4999 1.387 . S
H4998 C5005 0.950 . S
C4999 C4997 1.387 . S
C4999 C5001 1.390 1_556 S
C4999 H5003 0.950 . S
H5000 C4996 0.950 . S
C5001 C4999 1.390 1_554 S
C5001 C5002 1.387 . S
C5001 H5004 0.950 . S
C5002 C5001 1.387 . S
C5002 C5005 1.387 . S
H5003 C4999 0.950 . S
H5004 C5001 0.950 . S
C5005 C4996 1.390 1_554 S
C5005 H4998 0.950 . S
C5005 C5002 1.387 . S
C5006 C5007 1.387 . S
C5006 H5010 0.950 . S
C5006 C5015 1.390 . S
C5007 C5006 1.387 . S
C5007 C5009 1.387 . S
H5008 C5015 0.950 . S
C5009 C5007 1.387 . S
C5009 C5011 1.390 . S
C5009 H5013 0.950 . S
H5010 C5006 0.950 . S
C5011 C5009 1.390 . S
C5011 C5012 1.387 . S
C5011 H5014 0.950 . S
C5012 C5011 1.387 . S
C5012 C5015 1.387 . S
H5013 C5009 0.950 . S
H5014 C5011 0.950 . S
C5015 C5006 1.390 . S
C5015 H5008 0.950 . S
C5015 C5012 1.387 . S
C5016 C5017 1.387 . S
C5016 H5020 0.950 . S
C5016 C5025 1.390 1_554 S
C5017 C5016 1.387 . S
C5017 C5019 1.387 . S
H5018 C5025 0.950 . S
C5019 C5017 1.387 . S
C5019 C5021 1.390 1_554 S
C5019 H5023 0.950 . S
H5020 C5016 0.950 . S
C5021 C5019 1.390 1_556 S
C5021 C5022 1.387 . S
C5021 H5024 0.950 . S
C5022 C5021 1.387 . S
C5022 C5025 1.387 . S
H5023 C5019 0.950 . S
H5024 C5021 0.950 . S
C5025 C5016 1.390 1_556 S
C5025 H5018 0.950 . S
C5025 C5022 1.387 . S
C5026 C5027 1.387 . S
C5026 H5030 0.950 . S
C5026 C5035 1.390 1_455 S
C5027 C5026 1.387 . S
C5027 C5029 1.387 . S
H5028 C5035 0.950 . S
C5029 C5027 1.387 . S
C5029 C5031 1.390 1_455 S
C5029 H5033 0.950 . S
H5030 C5026 0.950 . S
C5031 C5029 1.390 1_655 S
C5031 C5032 1.387 . S
C5031 H5034 0.950 . S
C5032 C5031 1.387 . S
C5032 C5035 1.387 . S
H5033 C5029 0.950 . S
H5034 C5031 0.950 . S
C5035 C5026 1.390 1_655 S
C5035 H5028 0.950 . S
C5035 C5032 1.387 . S
C5036 C5037 1.387 . S
C5036 H5040 0.950 . S
C5036 C5045 1.390 . S
C5037 C5036 1.387 . S
C5037 C5039 1.387 . S
H5038 C5045 0.950 . S
C5039 C5037 1.387 . S
C5039 C5041 1.390 . S
C5039 H5043 0.950 . S
H5040 C5036 0.950 . S
C5041 C5039 1.390 . S
C5041 C5042 1.387 . S
C5041 H5044 0.950 . S
C5042 C5041 1.387 . S
C5042 C5045 1.387 . S
H5043 C5039 0.950 . S
H5044 C5041 0.950 . S
C5045 C5036 1.390 . S
C5045 H5038 0.950 . S
C5045 C5042 1.387 . S
C5046 C5047 1.387 . S
C5046 H5050 0.950 . S
C5046 C5055 1.390 1_654 S
C5047 C5046 1.387 . S
C5047 C5049 1.387 . S
H5048 C5055 0.950 . S
C5049 C5047 1.387 . S
C5049 C5051 1.390 1_654 S
C5049 H5053 0.950 . S
H5050 C5046 0.950 . S
C5051 C5049 1.390 1_456 S
C5051 C5052 1.387 . S
C5051 H5054 0.950 . S
C5052 C5051 1.387 . S
C5052 C5055 1.387 . S
H5053 C5049 0.950 . S
H5054 C5051 0.950 . S
C5055 C5046 1.390 1_456 S
C5055 H5048 0.950 . S
C5055 C5052 1.387 . S
C5056 C5057 1.387 . S
C5056 H5060 0.950 . S
C5056 C5065 1.390 . S
C5057 C5056 1.387 . S
C5057 C5059 1.387 . S
H5058 C5065 0.950 . S
C5059 C5057 1.387 . S
C5059 C5061 1.390 . S
C5059 H5063 0.950 . S
H5060 C5056 0.950 . S
C5061 C5059 1.390 . S
C5061 C5062 1.387 . S
C5061 H5064 0.950 . S
C5062 C5061 1.387 . S
C5062 C5065 1.387 . S
H5063 C5059 0.950 . S
H5064 C5061 0.950 . S
C5065 C5056 1.390 . S
C5065 H5058 0.950 . S
C5065 C5062 1.387 . S
C5066 C5067 1.387 . S
C5066 H5070 0.950 . S
C5066 C5075 1.390 1_554 S
C5067 C5066 1.387 . S
C5067 C5069 1.387 . S
H5068 C5075 0.950 . S
C5069 C5067 1.387 . S
C5069 C5071 1.390 1_554 S
C5069 H5073 0.950 . S
H5070 C5066 0.950 . S
C5071 C5069 1.390 1_556 S
C5071 C5072 1.387 . S
C5071 H5074 0.950 . S
C5072 C5071 1.387 . S
C5072 C5075 1.387 . S
H5073 C5069 0.950 . S
H5074 C5071 0.950 . S
C5075 C5066 1.390 1_556 S
C5075 H5068 0.950 . S
C5075 C5072 1.387 . S
C5076 C5077 1.387 . S
C5076 H5080 0.950 . S
C5076 C5085 1.390 . S
C5077 C5076 1.387 . S
C5077 C5079 1.387 . S
H5078 C5085 0.950 . S
C5079 C5077 1.387 . S
C5079 C5081 1.390 . S
C5079 H5083 0.950 . S
H5080 C5076 0.950 . S
C5081 C5079 1.390 . S
C5081 C5082 1.387 . S
C5081 H5084 0.950 . S
C5082 C5081 1.387 . S
C5082 C5085 1.387 . S
H5083 C5079 0.950 . S
H5084 C5081 0.950 . S
C5085 C5076 1.390 . S
C5085 H5078 0.950 . S
C5085 C5082 1.387 . S
C5086 C5087 1.387 . S
C5086 H5090 0.950 . S
C5086 C5095 1.390 . S
C5087 C5086 1.387 . S
C5087 C5089 1.387 . S
H5088 C5095 0.950 . S
C5089 C5087 1.387 . S
C5089 C5091 1.390 . S
C5089 H5093 0.950 . S
H5090 C5086 0.950 . S
C5091 C5089 1.390 . S
C5091 C5092 1.387 . S
C5091 H5094 0.950 . S
C5092 C5091 1.387 . S
C5092 C5095 1.387 . S
H5093 C5089 0.950 . S
H5094 C5091 0.950 . S
C5095 C5086 1.390 . S
C5095 H5088 0.950 . S
C5095 C5092 1.387 . S
C5096 C5097 1.387 . S
C5096 H5100 0.950 . S
C5096 C5105 1.390 . S
C5097 C5096 1.387 . S
C5097 C5099 1.387 . S
H5098 C5105 0.950 . S
C5099 C5097 1.387 . S
C5099 C5101 1.390 . S
C5099 H5103 0.950 . S
H5100 C5096 0.950 . S
C5101 C5099 1.390 . S
C5101 C5102 1.387 . S
C5101 H5104 0.950 . S
C5102 C5101 1.387 . S
C5102 C5105 1.387 . S
H5103 C5099 0.950 . S
H5104 C5101 0.950 . S
C5105 C5096 1.390 . S
C5105 H5098 0.950 . S
C5105 C5102 1.387 . S
C5106 C5107 1.387 . S
C5106 H5110 0.950 . S
C5106 C5115 1.390 . S
C5107 C5106 1.387 . S
C5107 C5109 1.387 . S
H5108 C5115 0.950 . S
C5109 C5107 1.387 . S
C5109 C5111 1.390 . S
C5109 H5113 0.950 . S
H5110 C5106 0.950 . S
C5111 C5109 1.390 . S
C5111 C5112 1.387 . S
C5111 H5114 0.950 . S
C5112 C5111 1.387 . S
C5112 C5115 1.387 . S
H5113 C5109 0.950 . S
H5114 C5111 0.950 . S
C5115 C5106 1.390 . S
C5115 H5108 0.950 . S
C5115 C5112 1.387 . S
C5116 C5117 1.387 . S
C5116 H5120 0.950 . S
C5116 C5125 1.390 . S
C5117 C5116 1.387 . S
C5117 C5119 1.387 . S
H5118 C5125 0.950 . S
C5119 C5117 1.387 . S
C5119 C5121 1.390 . S
C5119 H5123 0.950 . S
H5120 C5116 0.950 . S
C5121 C5119 1.390 . S
C5121 C5122 1.387 . S
C5121 H5124 0.950 . S
C5122 C5121 1.387 . S
C5122 C5125 1.387 . S
H5123 C5119 0.950 . S
H5124 C5121 0.950 . S
C5125 C5116 1.390 . S
C5125 H5118 0.950 . S
C5125 C5122 1.387 . S
C5126 C5127 1.387 . S
C5126 H5130 0.950 . S
C5126 C5135 1.390 1_554 S
C5127 C5126 1.387 . S
C5127 C5129 1.387 . S
H5128 C5135 0.950 . S
C5129 C5127 1.387 . S
C5129 C5131 1.390 1_554 S
C5129 H5133 0.950 . S
H5130 C5126 0.950 . S
C5131 C5129 1.390 1_556 S
C5131 C5132 1.387 . S
C5131 H5134 0.950 . S
C5132 C5131 1.387 . S
C5132 C5135 1.387 . S
H5133 C5129 0.950 . S
H5134 C5131 0.950 . S
C5135 C5126 1.390 1_556 S
C5135 H5128 0.950 . S
C5135 C5132 1.387 . S
C5136 C5137 1.387 . S
C5136 H5140 0.950 . S
C5136 C5145 1.390 . S
C5137 C5136 1.387 . S
C5137 C5139 1.387 . S
H5138 C5145 0.950 . S
C5139 C5137 1.387 . S
C5139 C5141 1.390 . S
C5139 H5143 0.950 . S
H5140 C5136 0.950 . S
C5141 C5139 1.390 . S
C5141 C5142 1.387 . S
C5141 H5144 0.950 . S
C5142 C5141 1.387 . S
C5142 C5145 1.387 . S
H5143 C5139 0.950 . S
H5144 C5141 0.950 . S
C5145 C5136 1.390 . S
C5145 H5138 0.950 . S
C5145 C5142 1.387 . S
C5146 C5147 1.387 . S
C5146 H5150 0.950 . S
C5146 C5155 1.390 1_545 S
C5147 C5146 1.387 . S
C5147 C5149 1.387 . S
H5148 C5155 0.950 . S
C5149 C5147 1.387 . S
C5149 C5151 1.390 1_545 S
C5149 H5153 0.950 . S
H5150 C5146 0.950 . S
C5151 C5149 1.390 1_565 S
C5151 C5152 1.387 . S
C5151 H5154 0.950 . S
C5152 C5151 1.387 . S
C5152 C5155 1.387 . S
H5153 C5149 0.950 . S
H5154 C5151 0.950 . S
C5155 C5146 1.390 1_565 S
C5155 H5148 0.950 . S
C5155 C5152 1.387 . S
C5156 C5157 1.387 . S
C5156 H5160 0.950 . S
C5156 C5165 1.390 . S
C5157 C5156 1.387 . S
C5157 C5159 1.387 . S
H5158 C5165 0.950 . S
C5159 C5157 1.387 . S
C5159 C5161 1.390 . S
C5159 H5163 0.950 . S
H5160 C5156 0.950 . S
C5161 C5159 1.390 . S
C5161 C5162 1.387 . S
C5161 H5164 0.950 . S
C5162 C5161 1.387 . S
C5162 C5165 1.387 . S
H5163 C5159 0.950 . S
H5164 C5161 0.950 . S
C5165 C5156 1.390 . S
C5165 H5158 0.950 . S
C5165 C5162 1.387 . S
C5166 C5167 1.387 . S
C5166 H5170 0.950 . S
C5166 C5175 1.390 . S
C5167 C5166 1.387 . S
C5167 C5169 1.387 . S
H5168 C5175 0.950 . S
C5169 C5167 1.387 . S
C5169 C5171 1.390 . S
C5169 H5173 0.950 . S
H5170 C5166 0.950 . S
C5171 C5169 1.390 . S
C5171 C5172 1.387 . S
C5171 H5174 0.950 . S
C5172 C5171 1.387 . S
C5172 C5175 1.387 . S
H5173 C5169 0.950 . S
H5174 C5171 0.950 . S
C5175 C5166 1.390 . S
C5175 H5168 0.950 . S
C5175 C5172 1.387 . S
C5176 C5177 1.387 . S
C5176 H5180 0.950 . S
C5176 C5185 1.390 1_454 S
C5177 C5176 1.387 . S
C5177 C5179 1.387 . S
H5178 C5185 0.950 . S
C5179 C5177 1.387 . S
C5179 C5181 1.390 1_454 S
C5179 H5183 0.950 . S
H5180 C5176 0.950 . S
C5181 C5179 1.390 1_656 S
C5181 C5182 1.387 . S
C5181 H5184 0.950 . S
C5182 C5181 1.387 . S
C5182 C5185 1.387 . S
H5183 C5179 0.950 . S
H5184 C5181 0.950 . S
C5185 C5176 1.390 1_656 S
C5185 H5178 0.950 . S
C5185 C5182 1.387 . S
C5186 C5187 1.387 . S
C5186 H5190 0.950 . S
C5186 C5195 1.390 . S
C5187 C5186 1.387 . S
C5187 C5189 1.387 . S
H5188 C5195 0.950 . S
C5189 C5187 1.387 . S
C5189 C5191 1.390 . S
C5189 H5193 0.950 . S
H5190 C5186 0.950 . S
C5191 C5189 1.390 . S
C5191 C5192 1.387 . S
C5191 H5194 0.950 . S
C5192 C5191 1.387 . S
C5192 C5195 1.387 . S
H5193 C5189 0.950 . S
H5194 C5191 0.950 . S
C5195 C5186 1.390 . S
C5195 H5188 0.950 . S
C5195 C5192 1.387 . S
C5196 C5197 1.387 . S
C5196 H5200 0.950 . S
C5196 C5205 1.390 1_455 S
C5197 C5196 1.387 . S
C5197 C5199 1.387 . S
H5198 C5205 0.950 . S
C5199 C5197 1.387 . S
C5199 C5201 1.390 1_455 S
C5199 H5203 0.950 . S
H5200 C5196 0.950 . S
C5201 C5199 1.390 1_655 S
C5201 C5202 1.387 . S
C5201 H5204 0.950 . S
C5202 C5201 1.387 . S
C5202 C5205 1.387 . S
H5203 C5199 0.950 . S
H5204 C5201 0.950 . S
C5205 C5196 1.390 1_655 S
C5205 H5198 0.950 . S
C5205 C5202 1.387 . S
C5206 C5207 1.387 . S
C5206 H5210 0.950 . S
C5206 C5215 1.390 . S
C5207 C5206 1.387 . S
C5207 C5209 1.387 . S
H5208 C5215 0.950 . S
C5209 C5207 1.387 . S
C5209 C5211 1.390 . S
C5209 H5213 0.950 . S
H5210 C5206 0.950 . S
C5211 C5209 1.390 . S
C5211 C5212 1.387 . S
C5211 H5214 0.950 . S
C5212 C5211 1.387 . S
C5212 C5215 1.387 . S
H5213 C5209 0.950 . S
H5214 C5211 0.950 . S
C5215 C5206 1.390 . S
C5215 H5208 0.950 . S
C5215 C5212 1.387 . S
C5216 C5217 1.387 . S
C5216 H5220 0.950 . S
C5216 C5225 1.390 . S
C5217 C5216 1.387 . S
C5217 C5219 1.387 . S
H5218 C5225 0.950 . S
C5219 C5217 1.387 . S
C5219 C5221 1.390 . S
C5219 H5223 0.950 . S
H5220 C5216 0.950 . S
C5221 C5219 1.390 . S
C5221 C5222 1.387 . S
C5221 H5224 0.950 . S
C5222 C5221 1.387 . S
C5222 C5225 1.387 . S
H5223 C5219 0.950 . S
H5224 C5221 0.950 . S
C5225 C5216 1.390 . S
C5225 H5218 0.950 . S
C5225 C5222 1.387 . S
C5226 C5227 1.387 . S
C5226 H5230 0.950 . S
C5226 C5235 1.390 . S
C5227 C5226 1.387 . S
C5227 C5229 1.387 . S
H5228 C5235 0.950 . S
C5229 C5227 1.387 . S
C5229 C5231 1.390 . S
C5229 H5233 0.950 . S
H5230 C5226 0.950 . S
C5231 C5229 1.390 . S
C5231 C5232 1.387 . S
C5231 H5234 0.950 . S
C5232 C5231 1.387 . S
C5232 C5235 1.387 . S
H5233 C5229 0.950 . S
H5234 C5231 0.950 . S
C5235 C5226 1.390 . S
C5235 H5228 0.950 . S
C5235 C5232 1.387 . S
C5236 C5237 1.387 . S
C5236 H5240 0.950 . S
C5236 C5245 1.390 . S
C5237 C5236 1.387 . S
C5237 C5239 1.387 . S
H5238 C5245 0.950 . S
C5239 C5237 1.387 . S
C5239 C5241 1.390 . S
C5239 H5243 0.950 . S
H5240 C5236 0.950 . S
C5241 C5239 1.390 . S
C5241 C5242 1.387 . S
C5241 H5244 0.950 . S
C5242 C5241 1.387 . S
C5242 C5245 1.387 . S
H5243 C5239 0.950 . S
H5244 C5241 0.950 . S
C5245 C5236 1.390 . S
C5245 H5238 0.950 . S
C5245 C5242 1.387 . S
C5246 C5247 1.387 . S
C5246 H5250 0.950 . S
C5246 C5255 1.390 1_545 S
C5247 C5246 1.387 . S
C5247 C5249 1.387 . S
H5248 C5255 0.950 . S
C5249 C5247 1.387 . S
C5249 C5251 1.390 1_545 S
C5249 H5253 0.950 . S
H5250 C5246 0.950 . S
C5251 C5249 1.390 1_565 S
C5251 C5252 1.387 . S
C5251 H5254 0.950 . S
C5252 C5251 1.387 . S
C5252 C5255 1.387 . S
H5253 C5249 0.950 . S
H5254 C5251 0.950 . S
C5255 C5246 1.390 1_565 S
C5255 H5248 0.950 . S
C5255 C5252 1.387 . S
C5256 C5257 1.387 . S
C5256 H5260 0.950 . S
C5256 C5265 1.390 . S
C5257 C5256 1.387 . S
C5257 C5259 1.387 . S
H5258 C5265 0.950 . S
C5259 C5257 1.387 . S
C5259 C5261 1.390 . S
C5259 H5263 0.950 . S
H5260 C5256 0.950 . S
C5261 C5259 1.390 . S
C5261 C5262 1.387 . S
C5261 H5264 0.950 . S
C5262 C5261 1.387 . S
C5262 C5265 1.387 . S
H5263 C5259 0.950 . S
H5264 C5261 0.950 . S
C5265 C5256 1.390 . S
C5265 H5258 0.950 . S
C5265 C5262 1.387 . S
C5266 C5267 1.387 . S
C5266 H5270 0.950 . S
C5266 C5275 1.390 1_545 S
C5267 C5266 1.387 . S
C5267 C5269 1.387 . S
H5268 C5275 0.950 . S
C5269 C5267 1.387 . S
C5269 C5271 1.390 1_545 S
C5269 H5273 0.950 . S
H5270 C5266 0.950 . S
C5271 C5269 1.390 1_565 S
C5271 C5272 1.387 . S
C5271 H5274 0.950 . S
C5272 C5271 1.387 . S
C5272 C5275 1.387 . S
H5273 C5269 0.950 . S
H5274 C5271 0.950 . S
C5275 C5266 1.390 1_565 S
C5275 H5268 0.950 . S
C5275 C5272 1.387 . S
C5276 C5277 1.387 . S
C5276 H5280 0.950 . S
C5276 C5285 1.390 1_564 S
C5277 C5276 1.387 . S
C5277 C5279 1.387 . S
H5278 C5285 0.950 . S
C5279 C5277 1.387 . S
C5279 C5281 1.390 1_564 S
C5279 H5283 0.950 . S
H5280 C5276 0.950 . S
C5281 C5279 1.390 1_546 S
C5281 C5282 1.387 . S
C5281 H5284 0.950 . S
C5282 C5281 1.387 . S
C5282 C5285 1.387 . S
H5283 C5279 0.950 . S
H5284 C5281 0.950 . S
C5285 C5276 1.390 1_546 S
C5285 H5278 0.950 . S
C5285 C5282 1.387 . S
C5286 C5287 1.387 . S
C5286 H5290 0.950 . S
C5286 C5295 1.390 . S
C5287 C5286 1.387 . S
C5287 C5289 1.387 . S
H5288 C5295 0.950 . S
C5289 C5287 1.387 . S
C5289 C5291 1.390 . S
C5289 H5293 0.950 . S
H5290 C5286 0.950 . S
C5291 C5289 1.390 . S
C5291 C5292 1.387 . S
C5291 H5294 0.950 . S
C5292 C5291 1.387 . S
C5292 C5295 1.387 . S
H5293 C5289 0.950 . S
H5294 C5291 0.950 . S
C5295 C5286 1.390 . S
C5295 H5288 0.950 . S
C5295 C5292 1.387 . S
C5296 C5297 1.387 . S
C5296 H5300 0.950 . S
C5296 C5305 1.390 . S
C5297 C5296 1.387 . S
C5297 C5299 1.387 . S
H5298 C5305 0.950 . S
C5299 C5297 1.387 . S
C5299 C5301 1.390 . S
C5299 H5303 0.950 . S
H5300 C5296 0.950 . S
C5301 C5299 1.390 . S
C5301 C5302 1.387 . S
C5301 H5304 0.950 . S
C5302 C5301 1.387 . S
C5302 C5305 1.387 . S
H5303 C5299 0.950 . S
H5304 C5301 0.950 . S
C5305 C5296 1.390 . S
C5305 H5298 0.950 . S
C5305 C5302 1.387 . S
C5306 C5307 1.387 . S
C5306 H5310 0.950 . S
C5306 C5315 1.390 . S
C5307 C5306 1.387 . S
C5307 C5309 1.387 . S
H5308 C5315 0.950 . S
C5309 C5307 1.387 . S
C5309 C5311 1.390 . S
C5309 H5313 0.950 . S
H5310 C5306 0.950 . S
C5311 C5309 1.390 . S
C5311 C5312 1.387 . S
C5311 H5314 0.950 . S
C5312 C5311 1.387 . S
C5312 C5315 1.387 . S
H5313 C5309 0.950 . S
H5314 C5311 0.950 . S
C5315 C5306 1.390 . S
C5315 H5308 0.950 . S
C5315 C5312 1.387 . S
C5316 C5317 1.387 . S
C5316 H5320 0.950 . S
C5316 C5325 1.390 . S
C5317 C5316 1.387 . S
C5317 C5319 1.387 . S
H5318 C5325 0.950 . S
C5319 C5317 1.387 . S
C5319 C5321 1.390 . S
C5319 H5323 0.950 . S
H5320 C5316 0.950 . S
C5321 C5319 1.390 . S
C5321 C5322 1.387 . S
C5321 H5324 0.950 . S
C5322 C5321 1.387 . S
C5322 C5325 1.387 . S
H5323 C5319 0.950 . S
H5324 C5321 0.950 . S
C5325 C5316 1.390 . S
C5325 H5318 0.950 . S
C5325 C5322 1.387 . S
C5326 C5327 1.387 . S
C5326 H5330 0.950 . S
C5326 C5335 1.390 . S
C5327 C5326 1.387 . S
C5327 C5329 1.387 . S
H5328 C5335 0.950 . S
C5329 C5327 1.387 . S
C5329 C5331 1.390 . S
C5329 H5333 0.950 . S
H5330 C5326 0.950 . S
C5331 C5329 1.390 . S
C5331 C5332 1.387 . S
C5331 H5334 0.950 . S
C5332 C5331 1.387 . S
C5332 C5335 1.387 . S
H5333 C5329 0.950 . S
H5334 C5331 0.950 . S
C5335 C5326 1.390 . S
C5335 H5328 0.950 . S
C5335 C5332 1.387 . S
C5336 C5337 1.387 . S
C5336 H5340 0.950 . S
C5336 C5345 1.390 . S
C5337 C5336 1.387 . S
C5337 C5339 1.387 . S
H5338 C5345 0.950 . S
C5339 C5337 1.387 . S
C5339 C5341 1.390 . S
C5339 H5343 0.950 . S
H5340 C5336 0.950 . S
C5341 C5339 1.390 . S
C5341 C5342 1.387 . S
C5341 H5344 0.950 . S
C5342 C5341 1.387 . S
C5342 C5345 1.387 . S
H5343 C5339 0.950 . S
H5344 C5341 0.950 . S
C5345 C5336 1.390 . S
C5345 H5338 0.950 . S
C5345 C5342 1.387 . S
C5346 C5347 1.387 . S
C5346 H5350 0.950 . S
C5346 C5355 1.390 1_566 S
C5347 C5346 1.387 . S
C5347 C5349 1.387 . S
H5348 C5355 0.950 . S
C5349 C5347 1.387 . S
C5349 C5351 1.390 1_566 S
C5349 H5353 0.950 . S
H5350 C5346 0.950 . S
C5351 C5349 1.390 1_544 S
C5351 C5352 1.387 . S
C5351 H5354 0.950 . S
C5352 C5351 1.387 . S
C5352 C5355 1.387 . S
H5353 C5349 0.950 . S
H5354 C5351 0.950 . S
C5355 C5346 1.390 1_544 S
C5355 H5348 0.950 . S
C5355 C5352 1.387 . S
C5356 C5357 1.387 . S
C5356 H5360 0.950 . S
C5356 C5365 1.390 . S
C5357 C5356 1.387 . S
C5357 C5359 1.387 . S
H5358 C5365 0.950 . S
C5359 C5357 1.387 . S
C5359 C5361 1.390 . S
C5359 H5363 0.950 . S
H5360 C5356 0.950 . S
C5361 C5359 1.390 . S
C5361 C5362 1.387 . S
C5361 H5364 0.950 . S
C5362 C5361 1.387 . S
C5362 C5365 1.387 . S
H5363 C5359 0.950 . S
H5364 C5361 0.950 . S
C5365 C5356 1.390 . S
C5365 H5358 0.950 . S
C5365 C5362 1.387 . S
C5366 C5367 1.387 . S
C5366 H5370 0.950 . S
C5366 C5375 1.390 . S
C5367 C5366 1.387 . S
C5367 C5369 1.387 . S
H5368 C5375 0.950 . S
C5369 C5367 1.387 . S
C5369 C5371 1.390 . S
C5369 H5373 0.950 . S
H5370 C5366 0.950 . S
C5371 C5369 1.390 . S
C5371 C5372 1.387 . S
C5371 H5374 0.950 . S
C5372 C5371 1.387 . S
C5372 C5375 1.387 . S
H5373 C5369 0.950 . S
H5374 C5371 0.950 . S
C5375 C5366 1.390 . S
C5375 H5368 0.950 . S
C5375 C5372 1.387 . S
C3457 C4 1.251 . S
C3462 C1154 1.397 . S
C3467 C2054 1.396 . S
C3472 C40 1.255 . S
C3477 C1226 1.396 . S
C3482 C76 1.255 . S
C3487 C112 1.250 . S
C3492 C2126 1.396 . S
C3497 C148 1.253 . S
C3502 C1298 1.397 . S
C3507 C184 1.254 . S
C3512 C2198 1.396 . S
C3517 C220 1.254 . S
C3522 C1370 1.396 . S
C3527 C256 1.250 . S
C3532 C2270 1.396 . S
C3537 C2306 1.396 . S
C3542 C292 1.252 . S
C3547 C2558 1.397 . S
C3552 C328 1.254 . S
C3557 C364 1.251 . S
C3562 C3350 1.395 . S
C3567 C400 1.250 . S
C3572 C2522 1.396 . S
C3577 C614 1.395 . S
C3582 C436 1.252 . S
C3587 C472 1.253 . S
C3592 C650 1.395 . S
C3597 C508 1.254 . S
C3602 C686 1.396 . S
C3607 C3314 1.395 . S
C3612 C544 1.252 . S
C3617 C2594 1.396 . S
C3622 C580 1.255 . S
C3627 C616 1.250 . S
C3632 C1010 1.396 . S
C3637 C1910 1.397 . S
C3642 C652 1.253 . S
C3647 C688 1.254 . S
C3652 C1082 1.396 . S
C3657 C1118 1.396 . S
C3662 C724 1.250 . S
C3667 C1802 1.396 . S
C3672 C760 1.255 . S
C3677 C110 1.396 . S
C3682 C796 1.254 . S
C3687 C38 1.396 . S
C3692 C832 1.250 . S
C3697 C868 1.252 . S
C3702 C290 1.397 . S
C3707 C2918 1.396 . S
C3712 C904 1.250 . S
C3717 C362 1.395 . S
C3722 C940 1.254 . S
C3727 C976 1.250 . S
C3732 C2990 1.396 . S
C3737 C1012 1.253 . S
C3742 C434 1.395 . S
C3747 C3062 1.396 . S
C3752 C1048 1.250 . S
C3757 C1084 1.254 . S
C3762 C506 1.397 . S
C3767 C3134 1.396 . S
C3772 C1120 1.255 . S
C3777 C3170 1.395 . S
C3782 C1156 1.253 . S
C3787 C1192 1.253 . S
C3792 C3422 1.395 . S
C3797 C2486 1.396 . S
C3802 C1228 1.255 . S
C3807 C3386 1.397 . S
C3812 C1264 1.253 . S
C3817 C1300 1.253 . S
C3822 C1478 1.396 . S
C3827 C1514 1.395 . S
C3832 C1336 1.253 . S
C3837 C1550 1.397 . S
C3842 C1372 1.254 . S
C3847 C1408 1.254 . S
C3852 C2450 1.396 . S
C3857 C1730 1.396 . S
C3862 C1444 1.255 . S
C3867 C1480 1.252 . S
C3872 C146 1.395 . S
C3877 C2774 1.397 . S
C3882 C1516 1.254 . S
C3887 C218 1.396 . S
C3892 C1552 1.255 . S
C3897 C1588 1.255 . S
C3902 C254 1.396 . S
C3907 C2666 1.396 . S
C3912 C1624 1.255 . S
C3917 C974 1.396 . S
C3922 C1660 1.254 . S
C3927 C902 1.395 . S
C3932 C1696 1.251 . S
C3937 C2882 1.395 . S
C3942 C1732 1.252 . S
C3947 C326 1.396 . S
C3952 C1768 1.250 . S
C3957 C2954 1.396 . S
C3962 C1804 1.254 . S
C3967 C1840 1.255 . S
C3972 C398 1.396 . S
C3977 C3026 1.395 . S
C3982 C1876 1.254 . S
C3987 C1912 1.254 . S
C3992 C470 1.395 . S
C3997 C1948 1.254 . S
C4002 C3098 1.395 . S
C4007 C1984 1.250 . S
C4012 C542 1.396 . S
C4017 C578 1.396 . S
C4022 C2020 1.251 . S
C4027 C2056 1.253 . S
C4032 C830 1.397 . S
C4037 C2092 1.254 . S
C4042 C1622 1.396 . S
C4047 C794 1.396 . S
C4052 C2128 1.250 . S
C4057 C2164 1.250 . S
C4062 C2342 1.396 . S
C4067 C2378 1.395 . S
C4072 C2200 1.253 . S
C4077 C2414 1.396 . S
C4082 C2236 1.251 . S
C4087 C2272 1.254 . S
C4092 C1586 1.396 . S
C4097 C2308 1.250 . S
C4102 C866 1.396 . S
C4107 C2738 1.397 . S
C4112 C2344 1.254 . S
C4117 C2380 1.255 . S
C4122 C182 1.396 . S
C4127 C2416 1.250 . S
C4132 C2810 1.396 . S
C4137 C2846 1.395 . S
C4142 C2452 1.252 . S
C4147 C74 1.396 . S
C4152 C2488 1.250 . S
C4157 C2524 1.253 . S
C4162 C1838 1.397 . S
C4167 C2560 1.252 . S
C4172 C1766 1.396 . S
C4177 C2018 1.395 . S
C4182 C2596 1.255 . S
C4187 C1190 1.396 . S
C4192 C2632 1.255 . S
C4197 C2090 1.396 . S
C4202 C2668 1.255 . S
C4207 C2704 1.255 . S
C4212 C1262 1.396 . S
C4217 C2740 1.254 . S
C4222 C2162 1.395 . S
C4227 C1334 1.396 . S
C4232 C2776 1.250 . S
C4237 C2234 1.397 . S
C4242 C2812 1.252 . S
C4247 C1406 1.395 . S
C4252 C2848 1.253 . S
C4257 C2884 1.254 . S
C4262 C1442 1.395 . S
C4267 C1694 1.396 . S
C4272 C2920 1.255 . S
C4277 C758 1.395 . S
C4282 C2956 1.253 . S
C4287 C2992 1.254 . S
C4292 C1658 1.395 . S
C4297 C3206 1.396 . S
C4302 C3028 1.253 . S
C4307 C3242 1.395 . S
C4312 C3064 1.254 . S
C4317 C3100 1.250 . S
C4322 C3278 1.396 . S
C4327 C3136 1.255 . S
C4332 C722 1.396 . S
C4337 C2 1.396 . S
C4342 C3172 1.255 . S
C4347 C1874 1.396 . S
C4352 C3208 1.255 . S
C4357 C3244 1.254 . S
C4362 C1046 1.396 . S
C4367 C3280 1.255 . S
C4372 C1946 1.396 . S
C4377 C1982 1.396 . S
C4382 C3316 1.250 . S
C4387 C938 1.396 . S
C4392 C3352 1.254 . S
C4397 C2702 1.396 . S
C4402 C3388 1.250 . S
C4407 C2630 1.397 . S
C4412 C3424 1.253 . S
C4417 C3146 1.240 . S
C4422 C14 1.240 . S
C4427 C50 1.240 . S
C4432 C3038 1.240 . S
C4437 C86 1.237 . S
C4442 C3074 1.242 . S
C4447 C122 1.239 . S
C4452 C3110 1.239 . S
C4457 C338 1.239 . S
C4462 C158 1.241 . S
C4467 C194 1.241 . S
C4472 C374 1.237 . S
C4477 C230 1.238 . S
C4482 C410 1.242 . S
C4487 C266 1.237 . S
C4492 C302 1.242 . S
C4497 C446 1.242 . S
C4502 C2642 1.236 . S
C4507 C482 1.240 . S
C4512 C2678 1.240 . S
C4517 C518 1.242 . S
C4522 C2714 1.236 . S
C4527 C2606 1.239 . S
C4532 C554 1.239 . S
C4537 C3326 1.237 . S
C4542 C590 1.242 . S
C4547 C626 1.242 . S
C4552 C3434 1.236 . S
C4557 C662 1.236 . S
C4562 C1634 1.242 . S
C4567 C3398 1.242 . S
C4572 C698 1.237 . S
C4577 C734 1.242 . S
C4582 C3182 1.237 . S
C4587 C770 1.241 . S
C4592 C1526 1.237 . S
C4597 C806 1.240 . S
C4602 C3290 1.238 . S
C4607 C842 1.236 . S
C4612 C3218 1.242 . S
C4617 C2282 1.240 . S
C4622 C878 1.240 . S
C4627 C914 1.242 . S
C4632 C2174 1.236 . S
C4637 C2210 1.240 . S
C4642 C950 1.238 . S
C4647 C986 1.242 . S
C4652 C2246 1.236 . S
C4657 C1022 1.237 . S
C4662 C1202 1.241 . S
C4667 C1058 1.237 . S
C4672 C1238 1.242 . S
C4677 C1274 1.242 . S
C4682 C1094 1.238 . S
C4687 C1130 1.237 . S
C4692 C1166 1.242 . S
C4697 C1778 1.241 . S
C4702 C1310 1.237 . S
C4707 C1814 1.241 . S
C4712 C1346 1.237 . S
C4717 C1850 1.242 . S
C4722 C1382 1.236 . S
C4727 C1742 1.240 . S
C4732 C1418 1.240 . S
C4737 C1454 1.241 . S
C4742 C2462 1.237 . S
C4747 C1490 1.237 . S
C4752 C2570 1.242 . S
C4757 C2534 1.242 . S
C4762 C1562 1.237 . S
C4767 C1598 1.237 . S
C4772 C2318 1.241 . S
C4777 C1670 1.237 . S
C4782 C2426 1.241 . S
C4787 C1706 1.243 . S
C4792 C2354 1.236 . S
C4797 C1886 1.239 . S
C4802 C2066 1.239 . S
C4807 C1922 1.242 . S
C4812 C2102 1.237 . S
C4817 C1958 1.239 . S
C4822 C2138 1.241 . S
C4827 C1994 1.238 . S
C4832 C2030 1.241 . S
C4837 C3362 1.238 . S
C4842 C2390 1.242 . S
C4847 C3254 1.236 . S
C4852 C2498 1.242 . S
C4857 C2750 1.242 . S
C4862 C2930 1.238 . S
C4867 C2786 1.238 . S
C4872 C2966 1.242 . S
C4877 C3002 1.239 . S
C4882 C2822 1.241 . S
C4887 C2858 1.242 . S
C4892 C2894 1.236 . S
C4897 C939 1.724 . S
C4902 C3 1.724 . S
C4907 C39 1.720 . S
C4912 C1839 1.720 . S
C4917 C75 1.719 1_545 S
C4922 C867 1.719 1_565 S
C4927 C1767 1.723 . S
C4932 C111 1.723 . S
C4937 C147 1.720 . S
C4942 C1083 1.720 . S
C4947 C183 1.720 . S
C4952 C1983 1.720 . S
C4957 C219 1.719 1_565 S
C4962 C1011 1.719 1_545 S
C4967 C255 1.724 . S
C4972 C1911 1.724 . S
C4977 C291 1.720 . S
C4982 C435 1.720 . S
C4987 C471 1.724 . S
C4992 C327 1.724 . S
C4997 C363 1.719 1_556 S
C5002 C507 1.719 1_554 S
C5007 C399 1.723 . S
C5012 C543 1.723 . S
C5017 C579 1.720 . S
C5022 C3279 1.720 . S
C5027 C2487 1.719 1_455 S
C5032 C615 1.719 1_655 S
C5037 C795 1.720 . S
C5042 C651 1.720 . S
C5047 C3171 1.719 1_655 S
C5052 C687 1.719 1_455 S
C5057 C3423 1.720 . S
C5062 C723 1.720 . S
C5067 C759 1.724 . S
C5072 C2343 1.724 . S
C5077 C3315 1.720 . S
C5082 C831 1.720 . S
C5087 C903 1.723 . S
C5092 C2703 1.723 . S
C5097 C2631 1.720 . S
C5102 C975 1.720 . S
C5107 C1047 1.720 . S
C5112 C2847 1.720 . S
C5117 C1119 1.720 . S
C5122 C2775 1.720 . S
C5127 C1299 1.723 1_554 S
C5132 C1155 1.723 1_556 S
C5137 C1335 1.720 . S
C5142 C1191 1.720 . S
C5147 C1371 1.720 . S
C5152 C1227 1.720 . S
C5157 C1407 1.724 . S
C5162 C1263 1.724 . S
C5167 C2415 1.723 . S
C5172 C1443 1.723 . S
C5177 C3351 1.719 1_455 S
C5182 C1479 1.719 1_655 S
C5187 C1515 1.724 . S
C5192 C1659 1.724 . S
C5197 C1551 1.723 1_455 S
C5202 C2307 1.723 1_655 S
C5207 C1587 1.720 . S
C5212 C2559 1.720 . S
C5217 C1623 1.720 . S
C5222 C3207 1.720 . S
C5227 C1695 1.720 . S
C5232 C2451 1.720 . S
C5237 C2667 1.723 . S
C5242 C1731 1.723 . S
C5247 C1803 1.719 1_545 S
C5252 C2595 1.719 1_565 S
C5257 C2811 1.720 . S
C5262 C1875 1.720 . S
C5267 C2739 1.723 1_545 S
C5272 C1947 1.723 1_565 S
C5277 C2163 1.719 1_554 S
C5282 C2019 1.719 1_556 S
C5287 C2055 1.720 . S
C5292 C2199 1.720 . S
C5297 C2091 1.723 . S
C5302 C2235 1.723 . S
C5307 C2271 1.720 . S
C5312 C2127 1.720 . S
C5317 C2523 1.720 . S
C5322 C2379 1.720 . S
C5327 C2883 1.723 . S
C5332 C3027 1.723 . S
C5337 C2919 1.720 . S
C5342 C3063 1.720 . S
C5347 C2955 1.723 1_556 S
C5352 C3099 1.723 1_554 S
C5357 C3135 1.720 . S
C5362 C2991 1.720 . S
C5367 C3387 1.723 . S
C5372 C3243 1.723 . S
