# Generated by pormake.
# Topology lcy-a-x, (5)-cn, num edge types: 1
# Building blocks:
#     Node 0, Type 0, BuildingBlock: XOMCOT_clean_sbu_1, # of connection points: 5
#     Node 1, Type 0, BuildingBlock: XOMCOT_clean_sbu_1, # of connection points: 5
#     Node 2, Type 0, BuildingBlock: XOMCOT_clean_sbu_1, # of connection points: 5
#     Node 3, Type 0, BuildingBlock: XOMCOT_clean_sbu_1, # of connection points: 5
#     Node 4, Type 0, BuildingBlock: XOMCOT_clean_sbu_1, # of connection points: 5
#     Node 5, Type 0, BuildingBlock: XOMCOT_clean_sbu_1, # of connection points: 5
#     Node 6, Type 0, BuildingBlock: XOMCOT_clean_sbu_1, # of connection points: 5
#     Node 7, Type 0, BuildingBlock: XOMCOT_clean_sbu_1, # of connection points: 5
#     Node 8, Type 0, BuildingBlock: XOMCOT_clean_sbu_1, # of connection points: 5
#     Node 9, Type 0, BuildingBlock: XOMCOT_clean_sbu_1, # of connection points: 5
#     Node 10, Type 0, BuildingBlock: XOMCOT_clean_sbu_1, # of connection points: 5
#     Node 11, Type 0, BuildingBlock: XOMCOT_clean_sbu_1, # of connection points: 5
#     Node 12, Type 0, BuildingBlock: XOMCOT_clean_sbu_1, # of connection points: 5
#     Node 13, Type 0, BuildingBlock: XOMCOT_clean_sbu_1, # of connection points: 5
#     Node 14, Type 0, BuildingBlock: XOMCOT_clean_sbu_1, # of connection points: 5
#     Node 15, Type 0, BuildingBlock: XOMCOT_clean_sbu_1, # of connection points: 5
#     Node 16, Type 0, BuildingBlock: XOMCOT_clean_sbu_1, # of connection points: 5
#     Node 17, Type 0, BuildingBlock: XOMCOT_clean_sbu_1, # of connection points: 5
#     Node 18, Type 0, BuildingBlock: XOMCOT_clean_sbu_1, # of connection points: 5
#     Node 19, Type 0, BuildingBlock: XOMCOT_clean_sbu_1, # of connection points: 5
#     Node 20, Type 0, BuildingBlock: XOMCOT_clean_sbu_1, # of connection points: 5
#     Node 21, Type 0, BuildingBlock: XOMCOT_clean_sbu_1, # of connection points: 5
#     Node 22, Type 0, BuildingBlock: XOMCOT_clean_sbu_1, # of connection points: 5
#     Node 23, Type 0, BuildingBlock: XOMCOT_clean_sbu_1, # of connection points: 5
#     Edge 24, Type (0, 0), BuildingBlock: CIFDUS_clean_linker_0, # of connection points: 2
#     Edge 25, Type (0, 0), BuildingBlock: CIFDUS_clean_linker_0, # of connection points: 2
#     Edge 26, Type (0, 0), BuildingBlock: CIFDUS_clean_linker_0, # of connection points: 2
#     Edge 27, Type (0, 0), BuildingBlock: CIFDUS_clean_linker_0, # of connection points: 2
#     Edge 28, Type (0, 0), BuildingBlock: CIFDUS_clean_linker_0, # of connection points: 2
#     Edge 29, Type (0, 0), BuildingBlock: CIFDUS_clean_linker_0, # of connection points: 2
#     Edge 30, Type (0, 0), BuildingBlock: CIFDUS_clean_linker_0, # of connection points: 2
#     Edge 31, Type (0, 0), BuildingBlock: CIFDUS_clean_linker_0, # of connection points: 2
#     Edge 32, Type (0, 0), BuildingBlock: CIFDUS_clean_linker_0, # of connection points: 2
#     Edge 33, Type (0, 0), BuildingBlock: CIFDUS_clean_linker_0, # of connection points: 2
#     Edge 34, Type (0, 0), BuildingBlock: CIFDUS_clean_linker_0, # of connection points: 2
#     Edge 35, Type (0, 0), BuildingBlock: CIFDUS_clean_linker_0, # of connection points: 2
#     Edge 36, Type (0, 0), BuildingBlock: CIFDUS_clean_linker_0, # of connection points: 2
#     Edge 37, Type (0, 0), BuildingBlock: CIFDUS_clean_linker_0, # of connection points: 2
#     Edge 38, Type (0, 0), BuildingBlock: CIFDUS_clean_linker_0, # of connection points: 2
#     Edge 39, Type (0, 0), BuildingBlock: CIFDUS_clean_linker_0, # of connection points: 2
#     Edge 40, Type (0, 0), BuildingBlock: CIFDUS_clean_linker_0, # of connection points: 2
#     Edge 41, Type (0, 0), BuildingBlock: CIFDUS_clean_linker_0, # of connection points: 2
#     Edge 42, Type (0, 0), BuildingBlock: CIFDUS_clean_linker_0, # of connection points: 2
#     Edge 43, Type (0, 0), BuildingBlock: CIFDUS_clean_linker_0, # of connection points: 2
#     Edge 44, Type (0, 0), BuildingBlock: CIFDUS_clean_linker_0, # of connection points: 2
#     Edge 45, Type (0, 0), BuildingBlock: CIFDUS_clean_linker_0, # of connection points: 2
#     Edge 46, Type (0, 0), BuildingBlock: CIFDUS_clean_linker_0, # of connection points: 2
#     Edge 47, Type (0, 0), BuildingBlock: CIFDUS_clean_linker_0, # of connection points: 2
#     Edge 48, Type (0, 0), BuildingBlock: CIFDUS_clean_linker_0, # of connection points: 2
#     Edge 49, Type (0, 0), BuildingBlock: CIFDUS_clean_linker_0, # of connection points: 2
#     Edge 50, Type (0, 0), BuildingBlock: CIFDUS_clean_linker_0, # of connection points: 2
#     Edge 51, Type (0, 0), BuildingBlock: CIFDUS_clean_linker_0, # of connection points: 2
#     Edge 52, Type (0, 0), BuildingBlock: CIFDUS_clean_linker_0, # of connection points: 2
#     Edge 53, Type (0, 0), BuildingBlock: CIFDUS_clean_linker_0, # of connection points: 2
#     Edge 54, Type (0, 0), BuildingBlock: CIFDUS_clean_linker_0, # of connection points: 2
#     Edge 55, Type (0, 0), BuildingBlock: CIFDUS_clean_linker_0, # of connection points: 2
#     Edge 56, Type (0, 0), BuildingBlock: CIFDUS_clean_linker_0, # of connection points: 2
#     Edge 57, Type (0, 0), BuildingBlock: CIFDUS_clean_linker_0, # of connection points: 2
#     Edge 58, Type (0, 0), BuildingBlock: CIFDUS_clean_linker_0, # of connection points: 2
#     Edge 59, Type (0, 0), BuildingBlock: CIFDUS_clean_linker_0, # of connection points: 2
#     Edge 60, Type (0, 0), BuildingBlock: CIFDUS_clean_linker_0, # of connection points: 2
#     Edge 61, Type (0, 0), BuildingBlock: CIFDUS_clean_linker_0, # of connection points: 2
#     Edge 62, Type (0, 0), BuildingBlock: CIFDUS_clean_linker_0, # of connection points: 2
#     Edge 63, Type (0, 0), BuildingBlock: CIFDUS_clean_linker_0, # of connection points: 2
#     Edge 64, Type (0, 0), BuildingBlock: CIFDUS_clean_linker_0, # of connection points: 2
#     Edge 65, Type (0, 0), BuildingBlock: CIFDUS_clean_linker_0, # of connection points: 2
#     Edge 66, Type (0, 0), BuildingBlock: CIFDUS_clean_linker_0, # of connection points: 2
#     Edge 67, Type (0, 0), BuildingBlock: CIFDUS_clean_linker_0, # of connection points: 2
#     Edge 68, Type (0, 0), BuildingBlock: CIFDUS_clean_linker_0, # of connection points: 2
#     Edge 69, Type (0, 0), BuildingBlock: CIFDUS_clean_linker_0, # of connection points: 2
#     Edge 70, Type (0, 0), BuildingBlock: CIFDUS_clean_linker_0, # of connection points: 2
#     Edge 71, Type (0, 0), BuildingBlock: CIFDUS_clean_linker_0, # of connection points: 2
#     Edge 72, Type (0, 0), BuildingBlock: CIFDUS_clean_linker_0, # of connection points: 2
#     Edge 73, Type (0, 0), BuildingBlock: CIFDUS_clean_linker_0, # of connection points: 2
#     Edge 74, Type (0, 0), BuildingBlock: CIFDUS_clean_linker_0, # of connection points: 2
#     Edge 75, Type (0, 0), BuildingBlock: CIFDUS_clean_linker_0, # of connection points: 2
#     Edge 76, Type (0, 0), BuildingBlock: CIFDUS_clean_linker_0, # of connection points: 2
#     Edge 77, Type (0, 0), BuildingBlock: CIFDUS_clean_linker_0, # of connection points: 2
#     Edge 78, Type (0, 0), BuildingBlock: CIFDUS_clean_linker_0, # of connection points: 2
#     Edge 79, Type (0, 0), BuildingBlock: CIFDUS_clean_linker_0, # of connection points: 2
#     Edge 80, Type (0, 0), BuildingBlock: CIFDUS_clean_linker_0, # of connection points: 2
#     Edge 81, Type (0, 0), BuildingBlock: CIFDUS_clean_linker_0, # of connection points: 2
#     Edge 82, Type (0, 0), BuildingBlock: CIFDUS_clean_linker_0, # of connection points: 2
#     Edge 83, Type (0, 0), BuildingBlock: CIFDUS_clean_linker_0, # of connection points: 2
# Relax obj value: 0.885
# Max RMSD: 0.225
# Mean RMSD: 0.225
data_MOF--net-lcy-a-x--node1-XOMCOT_clean_sbu_1--edge1-CIFDUS_clean_linker_0
_symmetry_space_group_name_H-M    P1
_symmetry_Int_Tables_number       1
_symmetry_cell_setting            triclinic
loop_
_symmetry_equiv_pos_as_xyz
'x, y, z'
_cell_length_a     52.093612
_cell_length_b     52.021258
_cell_length_c     51.996269
_cell_angle_alpha  89.991142
_cell_angle_beta   90.008103
_cell_angle_gamma 89.918852
loop_
_atom_site_label
_atom_site_type_symbol
_atom_site_fract_x
_atom_site_fract_y
_atom_site_fract_z
_atom_type_partial_charge
C0 C 0.03131 0.01775 0.79336 0.0
C1 C 0.01026 0.00793 0.80614 0.0
N2 N 0.98969 0.00995 0.79053 0.0
N3 N 0.02388 0.02598 0.7699 0.0
C4 C -0.0014 0.02074 0.76873 0.0
H5 H 0.05032 0.02027 0.80131 0.0
Co6 Co 0.04108 0.04626 0.74597 0.0
C7 C 0.03084 0.01868 0.69634 0.0
O8 O 0.05433 0.02294 0.68815 0.0
N9 N 0.05751 0.06744 0.72182 0.0
C10 C 0.08193 0.09609 0.70135 0.0
C11 C 0.08034 0.07981 0.72226 0.0
C12 C 0.04549 0.07704 0.70088 0.0
N13 N 0.05997 0.09406 0.68795 0.0
O14 O 0.01384 0.07072 0.74702 0.0
H15 H 0.09471 0.07801 0.73708 0.0
H16 H 0.026 0.07221 0.69555 0.0
O17 O 0.02389 0.02698 0.71844 0.0
C18 C 0.01555 0.08399 0.76751 0.0
O19 O 0.03351 0.07811 0.78427 0.0
N20 N 0.06892 0.02364 0.74729 0.0
C21 C 0.11073 0.99293 0.76008 0.0
C22 C 0.0909 0.98322 0.7447 0.0
C23 C 0.0697 -0.0013 0.73912 0.0
C24 C 0.08791 0.03309 0.76264 0.0
C25 C 0.10911 0.01814 0.76916 0.0
H26 H 0.05351 0.99001 0.72964 0.0
H27 H 0.08583 0.05197 0.77108 0.0
H28 H 0.98647 0.027 0.75303 0.0
H29 H 0.00988 0.00114 0.82581 0.0
H30 H 0.09791 0.10841 0.6964 0.0
H31 H 0.09104 0.96335 0.73846 0.0
H32 H 0.12365 0.02588 0.78187 0.0
C33 C 0.34466 0.69287 0.06998 0.0
C34 C 0.33773 0.66873 0.07876 0.0
N35 N 0.31674 0.66127 0.06562 0.0
N36 N 0.32823 0.70008 0.05123 0.0
C37 C 0.31164 0.6804 0.04904 0.0
H38 H 0.36032 0.70451 0.07708 0.0
Co39 Co 0.32509 0.73012 0.03241 0.0
C40 C 0.33005 0.71222 0.97826 0.0
O41 O 0.34313 0.733 0.97237 0.0
N42 N 0.32047 0.76082 0.01324 0.0
C43 C 0.32149 0.79984 0.99546 0.0
C44 C 0.33103 0.78453 0.01483 0.0
C45 C 0.30324 0.76303 0.99388 0.0
N46 N 0.30409 0.78613 0.9822 0.0
O47 O 0.28913 0.72932 0.03748 0.0
H48 H 0.34471 0.79086 0.02899 0.0
H49 H 0.29115 0.74737 0.98753 0.0
O50 O 0.32137 0.70923 0.0011 0.0
C51 C 0.28038 0.73989 0.05768 0.0
O52 O 0.29649 0.7507 0.07382 0.0
N53 N 0.36103 0.73129 0.02854 0.0
C54 C 0.40783 0.74716 0.0105 0.0
C55 C 0.39858 0.72295 0.00351 0.0
C56 C 0.37521 0.71476 0.01382 0.0
C57 C 0.37289 0.75126 0.04043 0.0
C58 C 0.39623 0.76022 0.031 0.0
H59 H 0.36742 0.69653 0.00773 0.0
H60 H 0.3628 0.76208 0.05503 0.0
H61 H 0.29581 0.68017 0.03553 0.0
H62 H 0.34685 0.65792 0.09403 0.0
H63 H 0.32709 0.81943 0.99131 0.0
H64 H 0.40778 0.71181 0.98851 0.0
H65 H 0.40363 0.77851 0.03765 0.0
C66 C 0.49773 0.06555 0.26477 0.0
C67 C 0.51765 0.06707 0.28229 0.0
N68 N 0.53336 0.04691 0.27838 0.0
N69 N 0.50112 0.04466 0.24963 0.0
C70 C 0.52291 0.03382 0.25869 0.0
H71 H 0.48234 0.07933 0.26304 0.0
Co72 Co 0.48421 0.03156 0.2203 0.0
C73 C 0.53603 0.02241 0.19632 0.0
O74 O 0.538 -0.00178 0.20329 0.0
N75 N 0.46834 0.01794 0.19116 0.0
C76 C 0.44319 0.01048 0.15738 0.0
C77 C 0.44591 0.0244 0.17981 0.0
C78 C 0.47838 -0.00039 0.17581 0.0
N79 N 0.46368 0.99486 0.15509 0.0
O80 O 0.49313 -0.00217 0.23064 0.0
H81 H 0.43272 0.03879 0.18689 0.0
H82 H 0.49666 0.99044 0.17919 0.0
O83 O 0.51611 0.03544 0.20194 0.0
C84 C 0.47785 0.98401 0.24369 0.0
O85 O 0.45528 0.9933 0.25014 0.0
N86 N 0.47399 0.06463 0.20999 0.0
C87 C 0.45243 0.11092 0.19357 0.0
C88 C 0.47354 0.10029 0.18072 0.0
C89 C 0.48391 0.07706 0.18905 0.0
C90 C 0.45296 0.07424 0.22225 0.0
C91 C 0.44204 0.09754 0.21458 0.0
H92 H 0.49922 0.06885 0.17779 0.0
H93 H 0.44452 0.06357 0.23798 0.0
H94 H 0.53177 0.01706 0.25023 0.0
H95 H 0.52049 0.08199 0.29652 0.0
H96 H 0.42765 0.01203 0.14365 0.0
H97 H 0.48166 0.10954 0.16393 0.0
H98 H 0.42576 0.10505 0.22513 0.0
C99 C 0.289 0.32362 0.50773 0.0
C100 C 0.29725 0.33983 0.52701 0.0
N101 N 0.29446 0.36421 0.51875 0.0
N102 N 0.28121 0.33781 0.48746 0.0
C103 C 0.28478 0.36241 0.49479 0.0
H104 H 0.28997 0.30286 0.50795 0.0
Co105 Co 0.27293 0.3258 0.45496 0.0
C106 C 0.24322 0.36815 0.43019 0.0
O107 O 0.22731 0.35245 0.41847 0.0
N108 N 0.26503 0.31357 0.42156 0.0
C109 C 0.25306 0.29072 0.38732 0.0
C110 C 0.25019 0.29381 0.41346 0.0
C111 C 0.27623 0.32234 0.39982 0.0
N112 N 0.26975 0.30852 0.37896 0.0
O113 O 0.30601 0.33551 0.44363 0.0
H114 H 0.23865 0.28161 0.42558 0.0
H115 H 0.28957 0.33826 0.39929 0.0
O116 O 0.26033 0.35934 0.44535 0.0
C117 C 0.32 0.31573 0.44066 0.0
O118 O 0.31033 0.29302 0.44602 0.0
N119 N 0.24204 0.31416 0.46738 0.0
C120 C 0.20084 0.28428 0.48259 0.0
C121 C 0.19749 0.31067 0.47767 0.0
C122 C 0.21865 0.32556 0.47039 0.0
C123 C 0.24593 0.2893 0.4744 0.0
C124 C 0.22561 0.2739 0.48172 0.0
H125 H 0.21605 0.34581 0.46686 0.0
H126 H 0.26486 0.28094 0.47251 0.0
H127 H 0.28232 0.37874 0.48217 0.0
H128 H 0.30569 0.33413 0.54516 0.0
H129 H 0.24469 0.27566 0.37566 0.0
H130 H 0.17873 0.31956 0.479 0.0
H131 H 0.2292 0.25368 0.48516 0.0
C132 C 0.53806 0.53003 0.2684 0.0
C133 C 0.5143 0.53913 0.26086 0.0
N134 N 0.49629 0.52715 0.27504 0.0
N135 N 0.53488 0.51278 0.28752 0.0
C136 C 0.50928 0.51143 0.29101 0.0
H137 H 0.55638 0.53542 0.26027 0.0
Co138 Co 0.55872 0.49272 0.30505 0.0
C139 C 0.54899 0.50398 0.35988 0.0
O140 O 0.57395 0.505 0.36351 0.0
N141 N 0.58197 0.47128 0.32265 0.0
C142 C 0.61354 0.44608 0.33729 0.0
C143 C 0.60735 0.46596 0.32067 0.0
C144 C 0.5733 0.45408 0.34001 0.0
N145 N 0.59195 0.4391 0.34952 0.0
O146 O 0.53813 0.46355 0.2982 0.0
H147 H 0.62057 0.4752 0.30767 0.0
H148 H 0.55331 0.45215 0.34538 0.0
O149 O 0.54012 0.49911 0.33742 0.0
C150 C 0.54546 0.45114 0.27847 0.0
O151 O 0.56653 0.45846 0.26666 0.0
N152 N 0.57934 0.52192 0.30951 0.0
C153 C 0.60397 0.5688 0.30192 0.0
C154 C 0.58293 0.56693 0.31854 0.0
C155 C 0.57043 0.54358 0.32143 0.0
C156 C 0.60033 0.5232 0.29388 0.0
C157 C 0.61311 0.54648 0.28994 0.0
H158 H 0.55212 0.54386 0.33104 0.0
H159 H 0.60561 0.50677 0.28234 0.0
H160 H 0.50028 0.49893 0.305 0.0
H161 H 0.51052 0.55286 0.24568 0.0
H162 H 0.63225 0.43746 0.34013 0.0
H163 H 0.57438 0.58391 0.32706 0.0
H164 H 0.62876 0.54736 0.27626 0.0
C165 C 0.73744 0.19531 0.56105 0.0
C166 C 0.73757 0.16895 0.55779 0.0
N167 N 0.75646 0.159 0.57251 0.0
N168 N 0.75612 0.20178 0.57778 0.0
C169 C 0.76746 0.17936 0.58411 0.0
H170 H 0.72452 0.20882 0.55193 0.0
Co171 Co 0.76612 0.23363 0.59041 0.0
C172 C 0.7707 0.22512 0.64666 0.0
O173 O 0.76252 0.24846 0.6518 0.0
N174 N 0.77744 0.2657 0.60316 0.0
C175 C 0.78306 0.30553 0.61792 0.0
C176 C 0.76727 0.28965 0.60381 0.0
C177 C 0.79986 0.26802 0.61602 0.0
N178 N 0.80349 0.29174 0.62571 0.0
O179 O 0.79974 0.22663 0.57932 0.0
H180 H 0.7492 0.29547 0.59559 0.0
H181 H 0.81232 0.25186 0.6201 0.0
O182 O 0.77312 0.21764 0.62341 0.0
C183 C 0.80475 0.23395 0.55657 0.0
O184 O 0.78703 0.24629 0.54346 0.0
N185 N 0.73226 0.24024 0.59958 0.0
C186 C 0.67956 0.24755 0.60223 0.0
C187 C 0.69153 0.22976 0.61845 0.0
C188 C 0.71801 0.22615 0.61662 0.0
C189 C 0.72065 0.25683 0.5831 0.0
C190 C 0.69447 0.26135 0.58455 0.0
H191 H 0.72649 0.21072 0.62755 0.0
H192 H 0.7317 0.26573 0.56792 0.0
H193 H 0.78395 0.17809 0.5967 0.0
H194 H 0.7246 0.158 0.5458 0.0
H195 H 0.77928 0.32539 0.62286 0.0
H196 H 0.68037 0.21789 0.6314 0.0
H197 H 0.68572 0.27417 0.57065 0.0
C198 C 0.0695 0.55387 0.78934 0.0
C199 C 0.09321 0.544 0.78253 0.0
N200 N 0.11002 0.54975 0.80138 0.0
N201 N 0.07157 0.56566 0.81235 0.0
C202 C 0.09645 0.56319 0.81886 0.0
H203 H 0.05186 0.5521 0.77852 0.0
Co204 Co 0.0472 0.58132 0.83317 0.0
C205 C 0.05665 0.55828 0.8846 0.0
O206 O 0.03182 0.55693 0.88887 0.0
N207 N 0.02333 0.59796 0.85478 0.0
C208 C 0.9902 0.61273 0.87756 0.0
C209 C -0.00258 0.59841 0.8564 0.0
C210 C 0.03117 0.61271 0.87467 0.0
N211 N 0.01159 0.62167 0.88898 0.0
O212 O 0.06788 0.61133 0.83378 0.0
H213 H 0.98433 0.5886 0.84371 0.0
H214 H 0.05117 0.61551 0.87956 0.0
O215 O 0.06491 0.56787 0.86353 0.0
C216 C 0.06235 0.62677 0.81567 0.0
O217 O 0.04348 0.62074 0.80001 0.0
N218 N 0.02669 0.55187 0.83022 0.0
C219 C -0.001 0.50856 0.81555 0.0
C220 C 0.0203 0.50628 0.83177 0.0
C221 C 0.03435 0.52804 0.83823 0.0
C222 C 0.00639 0.55433 0.81384 0.0
C223 C 0.99204 0.53291 0.80642 0.0
H224 H 0.05233 0.52523 0.84809 0.0
H225 H 0.00203 0.57289 0.80554 0.0
H226 H 0.10455 0.57134 0.83617 0.0
H227 H 0.09753 0.53295 0.76544 0.0
H228 H 0.97078 0.61589 0.88426 0.0
H229 H 0.02709 0.4876 0.83801 0.0
H230 H 0.97621 0.53524 0.79312 0.0
C231 C 0.79829 0.86636 0.04708 0.0
C232 C 0.80208 0.89178 0.04013 0.0
N233 N 0.78943 0.90671 0.05711 0.0
N234 N 0.78328 0.86557 0.06822 0.0
C235 C 0.77803 0.89035 0.07354 0.0
H236 H 0.80567 0.84959 0.03723 0.0
Co237 Co 0.76927 0.83807 0.08629 0.0
C238 C 0.7783 0.85566 0.13987 0.0
O239 O 0.78899 0.83356 0.14591 0.0
N240 N 0.75332 0.81079 0.10417 0.0
C241 C 0.73177 0.77466 0.11283 0.0
C242 C 0.74819 0.78664 0.09588 0.0
C243 C 0.73815 0.81345 0.12512 0.0
N244 N 0.72546 0.79178 0.13105 0.0
O245 O 0.73618 0.84984 0.07742 0.0
H246 H 0.75395 0.77882 0.07752 0.0
H247 H 0.73482 0.83141 0.13498 0.0
O248 O 0.7692 0.85919 0.11734 0.0
C249 C 0.72959 0.84079 0.05572 0.0
O250 O 0.74597 0.8261 0.04328 0.0
N251 N 0.8027 0.82574 0.09357 0.0
C252 C 0.85261 0.80645 0.09909 0.0
C253 C 0.8471 0.83233 0.10454 0.0
C254 C 0.82204 0.84158 0.10166 0.0
C255 C 0.80809 0.80094 0.08722 0.0
C256 C 0.83238 0.79064 0.09099 0.0
H257 H 0.81835 0.86171 0.10525 0.0
H258 H 0.79402 0.78908 0.07811 0.0
H259 H 0.76513 0.8964 0.08869 0.0
H260 H 0.81316 0.89871 0.02395 0.0
H261 H 0.72355 0.75567 0.11083 0.0
H262 H 0.86205 0.84566 0.11003 0.0
H263 H 0.83522 0.77049 0.08671 0.0
C264 C 0.73565 0.09104 0.03646 0.0
C265 C 0.75163 0.07178 0.02758 0.0
N266 N 0.74639 0.05027 0.04095 0.0
N267 N 0.72019 0.0814 0.05495 0.0
C268 C 0.72732 0.0566 0.05726 0.0
H269 H 0.73538 0.11075 0.02986 0.0
Co270 Co 0.69463 0.0972 0.07436 0.0
C271 C 0.64752 0.06653 0.06565 0.0
O272 O 0.63405 0.08788 0.06586 0.0
N273 N 0.66909 0.11265 0.095 0.0
C274 C 0.63543 0.13342 0.11145 0.0
C275 C 0.65527 0.13465 0.09385 0.0
C276 C 0.65803 0.09921 0.11425 0.0
N277 N 0.63698 0.11074 0.12386 0.0
O278 O 0.70807 0.08119 0.10444 0.0
H279 H 0.65795 0.1499 0.08006 0.0
H280 H 0.66407 0.08007 0.11958 0.0
O281 O 0.67195 0.06724 0.06855 0.0
C282 C 0.72593 0.09196 0.11708 0.0
O283 O 0.73598 0.11335 0.10819 0.0
N284 N 0.68267 0.11362 0.04433 0.0
C285 C 0.67694 0.1369 0.99629 0.0
C286 C 0.67019 0.11114 8e-05 0.0
C287 C 0.67398 0.09974 0.02383 0.0
C288 C 0.68866 0.13898 0.04133 0.0
C289 C 0.68577 0.15112 0.01745 0.0
H290 H 0.67238 0.07918 0.02461 0.0
H291 H 0.69742 0.14937 0.05707 0.0
H292 H 0.71858 0.04332 0.07068 0.0
H293 H 0.76629 0.07354 0.01293 0.0
H294 H 0.61997 0.1472 0.11339 0.0
H295 H 0.66478 0.09889 0.98413 0.0
H296 H 0.69197 0.17085 0.01515 0.0
C297 C 0.30882 0.57732 0.27532 0.0
C298 C 0.33327 0.58203 0.26618 0.0
N299 N 0.34908 0.56363 0.27538 0.0
N300 N 0.30933 0.55598 0.29002 0.0
C301 C 0.33407 0.54835 0.28993 0.0
H302 H 0.29183 0.58871 0.27163 0.0
Co303 Co 0.28325 0.54067 0.30897 0.0
C304 C 0.28875 0.48607 0.29492 0.0
O305 O 0.26359 0.48446 0.2937 0.0
N306 N 0.25771 0.52645 0.33016 0.0
C307 C 0.2242 0.52301 0.35672 0.0
C308 C 0.23658 0.53857 0.33924 0.0
C309 C 0.259 0.5047 0.34432 0.0
N310 N 0.23856 0.50181 0.35984 0.0
O311 O 0.3033 0.54544 0.33904 0.0
H312 H 0.2309 0.5579 0.33406 0.0
H313 H 0.27492 0.49135 0.34385 0.0
O314 O 0.29925 0.50678 0.30309 0.0
C315 C 0.30284 0.56656 0.3513 0.0
O316 O 0.28824 0.58537 0.34285 0.0
N317 N 0.26333 0.53546 0.27805 0.0
C318 C 0.23648 0.5106 0.23863 0.0
C319 C 0.26302 0.51454 0.23681 0.0
C320 C 0.27604 0.52682 0.25664 0.0
C321 C 0.2371 0.53613 0.27767 0.0
C322 C 0.2233 0.52302 0.25867 0.0
H323 H 0.29673 0.5266 0.25576 0.0
H324 H 0.22644 0.5454 0.29265 0.0
H325 H 0.34107 0.53228 0.30113 0.0
H326 H 0.33891 0.59773 0.25375 0.0
H327 H 0.20663 0.52726 0.36699 0.0
H328 H 0.27409 0.50701 0.22088 0.0
H329 H 0.20267 0.5217 0.26056 0.0
C330 C 0.80552 0.97145 0.56224 0.0
C331 C 0.78901 0.99113 0.55575 0.0
N332 N 0.79905 0.0133 0.56453 0.0
N333 N 0.82604 0.98131 0.57461 0.0
C334 C 0.8214 0.00679 0.57592 0.0
H335 H 0.80264 0.95126 0.55829 0.0
Co336 Co 0.85427 0.96391 0.58791 0.0
C337 C 0.89966 0.99384 0.57226 0.0
O338 O 0.91186 0.97208 0.56836 0.0
N339 N 0.88273 0.94667 0.60248 0.0
C340 C 0.91799 0.92395 0.61161 0.0
C341 C 0.89629 0.92533 0.59625 0.0
C342 C 0.89616 0.95724 0.62205 0.0
N343 N 0.9175 0.94402 0.6279 0.0
O344 O 0.84647 0.9778 0.62065 0.0
H345 H 0.89178 0.91243 0.58063 0.0
H346 H 0.89164 0.97567 0.63059 0.0
O347 O 0.87644 0.99352 0.58038 0.0
C348 C 0.8319 0.96446 0.63497 0.0
O349 O 0.82315 0.94243 0.62628 0.0
N350 N 0.85977 0.94953 0.5551 0.0
C351 C 0.84533 0.93278 0.5063 0.0
C352 C 0.85795 0.95625 0.50951 0.0
C353 C 0.86418 0.96465 0.53403 0.0
C354 C 0.84985 0.92544 0.55206 0.0
C355 C 0.8422 0.91672 0.52773 0.0
H356 H 0.86907 0.98463 0.53578 0.0
H357 H 0.84493 0.91424 0.56887 0.0
H358 H 0.83425 0.02037 0.585 0.0
H359 H 0.77082 0.98924 0.54587 0.0
H360 H 0.93328 0.9099 0.61033 0.0
H361 H 0.85982 0.96967 0.49368 0.0
H362 H 0.83202 0.89866 0.52604 0.0
C363 C 0.30098 0.52169 0.78932 0.0
C364 C 0.27708 0.51566 0.77957 0.0
N365 N 0.25952 0.52969 0.79239 0.0
N366 N 0.29829 0.53977 0.80776 0.0
C367 C 0.27285 0.54406 0.80926 0.0
H368 H 0.31912 0.51356 0.78328 0.0
Co369 Co 0.32301 0.55592 0.82772 0.0
C370 C 0.31445 0.61122 0.81935 0.0
O371 O 0.33942 0.61391 0.81682 0.0
N372 N 0.34747 0.57218 0.84915 0.0
C373 C 0.38119 0.58901 0.86949 0.0
C374 C 0.3734 0.57184 0.85091 0.0
C375 C 0.34016 0.58878 0.86782 0.0
N376 N 0.36015 0.5997 0.87998 0.0
O377 O 0.30295 0.54889 0.85758 0.0
H378 H 0.3863 0.56036 0.83955 0.0
H379 H 0.32035 0.59395 0.87142 0.0
O380 O 0.30496 0.58895 0.82375 0.0
C381 C 0.30305 0.52666 0.86772 0.0
O382 O 0.3175 0.50861 0.85755 0.0
N383 N 0.34253 0.5618 0.79753 0.0
C384 C 0.37057 0.56827 0.75205 0.0
C385 C 0.34571 0.57837 0.75456 0.0
C386 C 0.33198 0.57465 0.77716 0.0
C387 C 0.36542 0.54947 0.79447 0.0
C388 C 0.38024 0.55323 0.77234 0.0
H389 H 0.31241 0.58148 0.77786 0.0
H390 H 0.37198 0.53609 0.80893 0.0
H391 H 0.26422 0.55768 0.82243 0.0
H392 H 0.27287 0.50181 0.76463 0.0
H393 H 0.40081 0.59355 0.8746 0.0
H394 H 0.33637 0.58839 0.73888 0.0
H395 H 0.39888 0.5441 0.77115 0.0
C396 C 0.23956 0.48405 0.06185 0.0
C397 C 0.25867 0.50001 0.07072 0.0
N398 N 0.25381 0.52396 0.06213 0.0
N399 N 0.22278 0.49794 0.04783 0.0
C400 C 0.23202 0.5221 0.04817 0.0
H401 H 0.23795 0.46361 0.06532 0.0
Co402 Co 0.19426 0.48502 0.0312 0.0
C403 C 0.15406 0.52474 0.03465 0.0
O404 O 0.13794 0.50591 0.03942 0.0
N405 N 0.16598 0.47139 0.01329 0.0
C406 C 0.13067 0.45188 -0.00082 0.0
C407 C 0.15019 0.45116 0.01712 0.0
C408 C 0.15631 0.4832 0.99227 0.0
N409 N 0.13452 0.47228 0.9837 0.0
O410 O 0.21049 0.49201 -0.00086 0.0
H411 H 0.15183 0.43726 0.0324 0.0
H412 H 0.164 0.501 0.98478 0.0
O413 O 0.17779 0.51954 0.03035 0.0
C414 C 0.22469 0.4748 0.98919 0.0
O415 O 0.22682 0.45249 0.00085 0.0
N416 N 0.17982 0.47792 0.06393 0.0
C417 C 0.1693 0.46842 0.11579 0.0
C418 C 0.16973 0.49346 0.10616 0.0
C419 C 0.17615 0.49779 0.08076 0.0
C420 C 0.17955 0.45322 0.07287 0.0
C421 C 0.17426 0.44798 0.09886 0.0
H422 H 0.18037 0.51737 0.07556 0.0
H423 H 0.18541 0.43768 0.06038 0.0
H424 H 0.22326 0.53791 0.03787 0.0
H425 H 0.27475 0.49444 0.08268 0.0
H426 H 0.11447 0.43892 -0.00177 0.0
H427 H 0.16796 0.50993 0.11882 0.0
H428 H 0.17553 0.42844 0.10592 0.0
C429 C 0.71931 0.04018 0.33114 0.0
C430 C 0.69552 0.05116 0.33511 0.0
N431 N 0.67807 0.03782 0.32141 0.0
N432 N 0.71679 0.02006 0.31502 0.0
C433 C 0.69152 0.01914 0.30942 0.0
H434 H 0.73739 0.04696 0.33877 0.0
Co435 Co 0.74271 0.00074 0.30014 0.0
C436 C 0.72288 0.94714 0.30076 0.0
O437 O 0.74572 0.93822 0.30682 0.0
N438 N 0.76905 0.98161 0.28403 0.0
C439 C 0.80564 0.96338 0.27125 0.0
C440 C 0.79462 0.98015 0.28846 0.0
C441 C 0.76542 0.9665 0.26317 0.0
N442 N 0.78716 0.95479 0.25541 0.0
O443 O 0.73153 0.01168 0.26707 0.0
H444 H 0.80509 0.99064 0.30289 0.0
H445 H 0.74686 0.96345 0.25433 0.0
O446 O 0.71944 0.97131 0.2978 0.0
C447 C 0.74391 0.02975 0.25628 0.0
O448 O 0.76317 0.04035 0.26868 0.0
N449 N 0.75421 0.99108 0.33319 0.0
C450 C 0.7797 0.9735 0.37685 0.0
C451 C 0.75498 0.96456 0.37089 0.0
C452 C 0.74212 0.9744 0.34945 0.0
C453 C 0.77609 0.00298 0.34099 0.0
C454 C 0.78945 0.9942 0.36251 0.0
H455 H 0.72288 0.96782 0.34561 0.0
H456 H 0.78395 0.01848 0.32959 0.0
H457 H 0.68334 0.00591 0.29561 0.0
H458 H 0.69147 0.06794 0.34674 0.0
H459 H 0.82572 0.95807 0.27033 0.0
H460 H 0.74592 0.94949 0.38198 0.0
H461 H 0.80754 0.00317 0.36743 0.0
C462 C 0.359 0.54336 0.54286 0.0
C463 C 0.33838 0.52735 0.5474 0.0
N464 N 0.3458 0.50311 0.54216 0.0
N465 N 0.37903 0.52917 0.53454 0.0
C466 C 0.37034 0.50478 0.53427 0.0
H467 H 0.35924 0.56405 0.54482 0.0
Co468 Co 0.41047 0.54141 0.5234 0.0
C469 C 0.44588 0.49741 0.52709 0.0
O470 O 0.46287 0.5126 0.53793 0.0
N471 N 0.44211 0.55398 0.51094 0.0
C472 C 0.47921 0.5732 0.50166 0.0
C473 C 0.45867 0.57257 0.51838 0.0
C474 C 0.45288 0.54414 0.48942 0.0
N475 N 0.47541 0.55525 0.48344 0.0
O476 O 0.39829 0.53931 0.48902 0.0
H477 H 0.45649 0.58502 0.53477 0.0
H478 H 0.44468 0.52829 0.47876 0.0
O479 O 0.42399 0.50633 0.52039 0.0
C480 C 0.38664 0.55858 0.47951 0.0
O481 O 0.38437 0.57955 0.49342 0.0
N482 N 0.4207 0.54405 0.55809 0.0
C483 C 0.42523 0.55049 0.61141 0.0
C484 C 0.42267 0.52595 0.60054 0.0
C485 C 0.42011 0.52318 0.57407 0.0
C486 C 0.42227 0.56812 0.56828 0.0
C487 C 0.42551 0.57177 0.59473 0.0
H488 H 0.41572 0.50428 0.56681 0.0
H489 H 0.41958 0.5847 0.55604 0.0
H490 H 0.38132 0.48853 0.52736 0.0
H491 H 0.3194 0.53306 0.55367 0.0
H492 H 0.49556 0.58597 0.50278 0.0
H493 H 0.42075 0.50894 0.61237 0.0
H494 H 0.42701 0.5912 0.60199 0.0
C495 C 0.80805 0.03824 0.8444 0.0
C496 C 0.83071 0.0266 0.85197 0.0
N497 N 0.8496 0.03558 0.83682 0.0
N498 N 0.81302 0.05466 0.8249 0.0
C499 C 0.83846 0.05253 0.82079 0.0
H500 H 0.78907 0.03412 0.85173 0.0
Co501 Co 0.79072 0.07212 0.80312 0.0
C502 C 0.80986 0.12536 0.80739 0.0
O503 O 0.78626 0.13297 0.8122 0.0
N504 N 0.76873 0.08801 0.77941 0.0
C505 C 0.73943 0.0906 0.74818 0.0
C506 C 0.74736 0.07706 0.76954 0.0
C507 C 0.77406 0.1073 0.76287 0.0
N508 N 0.75629 0.10971 0.7443 0.0
O509 O 0.80788 0.05747 0.77455 0.0
H510 H 0.73894 0.0594 0.77656 0.0
H511 H 0.79187 0.11783 0.7625 0.0
O512 O 0.8144 0.10164 0.8025 0.0
C513 C 0.80121 0.03516 0.76727 0.0
O514 O 0.78358 0.02281 0.78044 0.0
N515 N 0.7731 0.08661 0.83193 0.0
C516 C 0.74855 0.11485 0.8709 0.0
C517 C 0.77492 0.10911 0.87227 0.0
C518 C 0.78679 0.09539 0.85258 0.0
C519 C 0.74708 0.08964 0.8316 0.0
C520 C 0.73464 0.10446 0.85018 0.0
H521 H 0.80737 0.09294 0.85345 0.0
H522 H 0.7356 0.08129 0.81664 0.0
H523 H 0.84845 0.06213 0.80526 0.0
H524 H 0.83286 0.01159 0.86623 0.0
H525 H 0.7232 0.08618 0.73596 0.0
H526 H 0.78668 0.11517 0.88828 0.0
H527 H 0.71432 0.10779 0.84778 0.0
C528 C 0.07028 0.78247 0.044 0.0
C529 C 0.07297 0.7994 0.02374 0.0
N530 N 0.08129 0.78609 0.00311 0.0
N531 N 0.07683 0.7587 0.03601 0.0
C532 C 0.08374 0.7616 0.01125 0.0
H533 H 0.06371 0.78708 0.06319 0.0
Co534 Co 0.07659 0.72807 0.05408 0.0
C535 C 0.05285 0.69055 0.01866 0.0
O536 O 0.03914 0.68173 0.03796 0.0
N537 N 0.07754 0.69668 0.07232 0.0
C538 C 0.07467 0.66323 0.09896 0.0
C539 C 0.06793 0.68855 0.09509 0.0
C540 C 0.09068 0.67609 0.06333 0.0
N541 N 0.089 0.65551 0.07889 0.0
O542 O 0.11203 0.72427 0.04724 0.0
H543 H 0.05676 0.69981 0.10836 0.0
H544 H 0.1006 0.67592 0.04504 0.0
O545 O 0.06866 0.709 0.02238 0.0
C546 C 0.12767 0.7334 0.06355 0.0
O547 O 0.11859 0.74482 0.08419 0.0
N548 N 0.04159 0.73347 0.06117 0.0
C549 C 0.9907 0.74597 0.07216 0.0
C550 C -0.00119 0.74236 0.04674 0.0
C551 C 0.02432 0.73663 0.04164 0.0
C552 C 0.03467 0.73948 0.08573 0.0
C553 C 0.00911 0.74503 0.09184 0.0
H554 H 0.03027 0.73575 0.02178 0.0
H555 H 0.04914 0.74067 0.10057 0.0
H556 H 0.09091 0.74599 -0.00047 0.0
H557 H 0.06879 0.81978 0.02411 0.0
H558 H 0.06942 0.65144 0.11529 0.0
H559 H 0.98574 0.74473 0.03071 0.0
H560 H 0.00395 0.74874 0.11167 0.0
C561 C 0.52015 0.83854 0.00767 0.0
C562 C 0.51327 0.82161 0.0268 0.0
N563 N 0.5156 0.83363 0.04969 0.0
N564 N 0.52634 0.8613 0.01832 0.0
C565 C 0.5235 0.85769 0.04384 0.0
H566 H 0.52183 0.83409 0.98748 0.0
Co567 Co 0.54049 0.89012 0.00261 0.0
C568 C 0.51153 0.93414 0.02387 0.0
O569 O 0.51038 0.9443 0.00074 0.0
N570 N 0.55593 0.91901 0.98755 0.0
C571 C 0.5789 0.94649 0.96406 0.0
C572 C 0.56331 0.92497 0.96335 0.0
C573 C 0.56727 0.93701 0.00236 0.0
N574 N 0.58116 0.95394 0.98874 0.0
O575 O 0.56894 0.88766 0.02516 0.0
H576 H 0.55896 0.91387 0.94637 0.0
H577 H 0.5666 0.93681 0.02316 0.0
O578 O 0.52256 0.91239 0.02712 0.0
C579 C 0.58618 0.874 0.0146 0.0
O580 O 0.58136 0.86401 0.99188 0.0
N581 N 0.5132 0.89028 0.97913 0.0
C582 C 0.47626 0.8627 0.95248 0.0
C583 C 0.46914 0.87895 0.97275 0.0
C584 C 0.48805 0.89199 0.9864 0.0
C585 C 0.51971 0.87796 0.95689 0.0
C586 C 0.50144 0.86392 0.94318 0.0
H587 H 0.4826 0.89968 0.00481 0.0
H588 H 0.53973 0.87507 0.95227 0.0
H589 H 0.52888 0.87205 0.05785 0.0
H590 H 0.50795 0.80173 0.02395 0.0
H591 H 0.58831 0.95549 0.94784 0.0
H592 H 0.45 0.8781 0.98086 0.0
H593 H 0.5077 0.85124 0.92789 0.0
C594 C 0.43821 0.27839 0.22242 0.0
C595 C 0.457 0.26979 0.23902 0.0
N596 N 0.45572 0.28405 0.26055 0.0
N597 N 0.42495 0.29765 0.23375 0.0
C598 C 0.43604 0.30049 0.257 0.0
H599 H 0.43537 0.27185 0.20291 0.0
Co600 Co 0.40065 0.31992 0.21955 0.0
C601 C 0.35551 0.31734 0.25334 0.0
O602 O 0.341 0.31601 0.2327 0.0
N603 N 0.37683 0.34335 0.20565 0.0
C604 C 0.34618 0.36528 0.18528 0.0
C605 C 0.36237 0.34423 0.18407 0.0
C606 C 0.36956 0.36436 0.21908 0.0
N607 N 0.35087 0.37785 0.20743 0.0
O608 O 0.41894 0.34803 0.23388 0.0
H609 H 0.36255 0.33013 0.16886 0.0
H610 H 0.37646 0.3686 0.23824 0.0
O611 O 0.37997 0.31811 0.25103 0.0
C612 C 0.44023 0.35461 0.22404 0.0
O613 O 0.44854 0.34244 0.2035 0.0
N614 N 0.38413 0.29142 0.20472 0.0
C615 C 0.37985 0.2425 0.18352 0.0
C616 C 0.3717 0.24722 0.2087 0.0
C617 C 0.37476 0.27159 0.21921 0.0
C618 C 0.38988 0.28766 0.17941 0.0
C619 C 0.38785 0.26327 0.16834 0.0
H620 H 0.37271 0.27323 0.23974 0.0
H621 H 0.39905 0.30287 0.16862 0.0
H622 H 0.43059 0.31523 0.27066 0.0
H623 H 0.47144 0.25536 0.23499 0.0
H624 H 0.33162 0.37044 0.17135 0.0
H625 H 0.3664 0.23152 0.22132 0.0
H626 H 0.39495 0.26016 0.14901 0.0
C627 C -0.00011 0.23182 0.51624 0.0
C628 C 0.00217 0.25171 0.53356 0.0
N629 N 0.00483 0.24146 0.55718 0.0
N630 N 0.00083 0.2093 0.52904 0.0
C631 C 0.0039 0.21578 0.55395 0.0
H632 H -0.00319 0.23359 0.49574 0.0
Co633 Co 0.9951 0.17753 0.51431 0.0
C634 C 0.01765 0.13862 0.54881 0.0
O635 O 0.02663 0.12642 0.5286 0.0
N636 N 0.98805 0.1455 0.4991 0.0
C637 C 0.98577 0.10893 0.47693 0.0
C638 C 0.99587 0.13344 0.47742 0.0
C639 C 0.97273 0.1282 0.51086 0.0
N640 N 0.97123 0.10581 0.49809 0.0
O641 O 0.96124 0.17886 0.52667 0.0
H642 H 0.00875 0.14124 0.46321 0.0
H643 H 0.96429 0.13133 0.52962 0.0
O644 O 0.00532 0.15975 0.54616 0.0
C645 C 0.94422 0.18975 0.51305 0.0
O646 O 0.95055 0.19888 0.49035 0.0
N647 N 0.02861 0.17823 0.50182 0.0
C648 C 0.07498 0.19841 0.48437 0.0
C649 C 0.07209 0.19042 0.50997 0.0
C650 C 0.04885 0.18062 0.51832 0.0
C651 C 0.03115 0.18511 0.47666 0.0
C652 C 0.05441 0.19462 0.46733 0.0
H653 H 0.04658 0.17812 0.53874 0.0
H654 H 0.01447 0.18532 0.46428 0.0
H655 H 0.00407 0.20211 0.56963 0.0
H656 H 0.00133 0.27205 0.52927 0.0
H657 H 0.98935 0.09439 0.46247 0.0
H658 H 0.08666 0.19401 0.52435 0.0
H659 H 0.05562 0.20053 0.4474 0.0
C660 C 0.14324 0.82293 0.82522 0.0
C661 C 0.12547 0.82575 0.84475 0.0
N662 N 0.1299 0.80716 0.86214 0.0
N663 N 0.1589 0.80291 0.83077 0.0
C664 C 0.15013 0.79377 0.85336 0.0
H665 H 0.14443 0.8346 0.80807 0.0
Co666 Co 0.18637 0.78842 0.81293 0.0
C667 C 0.22982 0.79296 0.84937 0.0
O668 O 0.24537 0.80003 0.83077 0.0
N669 N 0.21401 0.77291 0.79541 0.0
C670 C 0.24574 0.76075 0.76934 0.0
C671 C 0.22702 0.77894 0.77371 0.0
C672 C 0.22514 0.75088 0.80359 0.0
N673 N 0.24437 0.74308 0.78816 0.0
O674 O 0.17361 0.75522 0.82127 0.0
H675 H 0.22353 0.79537 0.76158 0.0
H676 H 0.21967 0.74102 0.82107 0.0
O677 O 0.20623 0.78847 0.84455 0.0
C678 C 0.15605 0.74749 0.80622 0.0
O679 O 0.1496 0.76213 0.78664 0.0
N680 N 0.19693 0.82131 0.8033 0.0
C681 C 0.19612 0.87186 0.78553 0.0
C682 C 0.20506 0.86613 0.81038 0.0
C683 C 0.20478 0.84072 0.81915 0.0
C684 C 0.18903 0.82649 0.77891 0.0
C685 C 0.18886 0.85147 0.76948 0.0
H686 H 0.20868 0.83724 0.83921 0.0
H687 H 0.18096 0.81124 0.76731 0.0
H688 H 0.15837 0.7774 0.86325 0.0
H689 H 0.11014 0.83979 0.84577 0.0
H690 H 0.25911 0.7604 0.75341 0.0
H691 H 0.21047 0.8813 0.82357 0.0
H692 H 0.18085 0.85485 0.75056 0.0
C693 C 0.53206 0.25463 0.43086 0.0
C694 C 0.53613 0.24653 0.40592 0.0
N695 N 0.52957 0.26581 0.3898 0.0
N696 N 0.523 0.2789 0.43041 0.0
C697 C 0.52244 0.28534 0.40534 0.0
H698 H 0.53331 0.24279 0.44791 0.0
Co699 Co 0.50596 0.29736 0.45585 0.0
C700 C 0.53107 0.34906 0.45442 0.0
O701 O 0.52899 0.35214 0.47941 0.0
N702 N 0.48781 0.31627 0.48108 0.0
C703 C 0.47009 0.3322 0.51672 0.0
C704 C 0.48309 0.31169 0.50628 0.0
C705 C 0.47601 0.33904 0.47652 0.0
N706 N 0.46572 0.34934 0.49791 0.0
O707 O 0.47837 0.30386 0.43305 0.0
H708 H 0.48881 0.29491 0.51696 0.0
H709 H 0.47648 0.3488 0.45813 0.0
O710 O 0.52301 0.3285 0.44366 0.0
C711 C 0.4641 0.28526 0.42637 0.0
O712 O 0.47065 0.26177 0.43302 0.0
N713 N 0.5322 0.28962 0.4789 0.0
C714 C 0.56369 0.28076 0.52074 0.0
C715 C 0.57184 0.29679 0.50067 0.0
C716 C 0.556 0.30045 0.47944 0.0
C717 C 0.52584 0.27099 0.49615 0.0
C718 C 0.54108 0.2666 0.51772 0.0
H719 H 0.56281 0.3123 0.46388 0.0
H720 H 0.50785 0.26083 0.49407 0.0
H721 H 0.51374 0.30299 0.39859 0.0
H722 H 0.54141 0.22725 0.40018 0.0
H723 H 0.46488 0.33469 0.53672 0.0
H724 H 0.59017 0.30657 0.50149 0.0
H725 H 0.53471 0.25319 0.53231 0.0
C726 C 0.00849 0.28856 0.74378 0.0
C727 C 0.02277 0.28757 0.72147 0.0
N728 N 0.00651 0.28395 0.70168 0.0
N729 N 0.9835 0.28531 0.73791 0.0
C730 C 0.98291 0.28264 0.71214 0.0
H731 H 0.01595 0.28983 0.76315 0.0
Co732 Co 0.95773 0.27866 0.76126 0.0
C733 C 0.90891 0.29119 0.73481 0.0
O734 O 0.89954 0.30136 0.75596 0.0
N735 N 0.93174 0.27091 0.78538 0.0
C736 C 0.90667 0.26638 0.81984 0.0
C737 C 0.92638 0.28031 0.80906 0.0
C738 C 0.915 0.25128 0.78242 0.0
N739 N 0.89981 0.24799 0.80307 0.0
O740 O 0.96046 0.24316 0.75285 0.0
H741 H 0.93635 0.29576 0.81856 0.0
H742 H 0.91403 0.23941 0.76536 0.0
O743 O 0.93178 0.2823 0.73454 0.0
C744 C 0.9706 0.22839 0.76944 0.0
O745 O 0.97836 0.23815 0.79142 0.0
N746 N 0.95698 0.31358 0.76972 0.0
C747 C 0.96103 0.36427 0.78658 0.0
C748 C 0.94896 0.3585 0.76315 0.0
C749 C 0.94784 0.33308 0.75468 0.0
C750 C 0.97039 0.31899 0.7915 0.0
C751 C 0.97234 0.34411 0.80052 0.0
H752 H 0.94015 0.32942 0.7358 0.0
H753 H 0.97945 0.30353 0.80207 0.0
H754 H 0.96589 0.27752 0.70138 0.0
H755 H 0.04349 0.28811 0.72002 0.0
H756 H 0.8987 0.26893 0.8389 0.0
H757 H 0.94057 0.37344 0.75132 0.0
H758 H 0.98305 0.34769 0.818 0.0
C759 C 0.53143 0.7731 0.23139 0.0
C760 C 0.52013 0.77504 0.20742 0.0
N761 N 0.52963 0.79609 0.19576 0.0
N762 N 0.54822 0.79261 0.23441 0.0
C763 C 0.54662 0.80621 0.2124 0.0
H764 H 0.52747 0.75857 0.24573 0.0
Co765 Co 0.5687 0.80163 0.26223 0.0
C766 C 0.62143 0.80093 0.24138 0.0
O767 O 0.62958 0.7896 0.26246 0.0
N768 N 0.58933 0.81208 0.29025 0.0
C769 C 0.61169 0.81802 0.32636 0.0
C770 C 0.59351 0.80303 0.31431 0.0
C771 C 0.6044 0.83317 0.28878 0.0
N772 N 0.61846 0.83696 0.31014 0.0
O773 O 0.55922 0.8364 0.25743 0.0
H774 H 0.5844 0.78659 0.32294 0.0
H775 H 0.60604 0.84489 0.27166 0.0
O776 O 0.5977 0.80671 0.2388 0.0
C777 C 0.53829 0.84511 0.26638 0.0
O778 O 0.52297 0.82965 0.27916 0.0
N779 N 0.57702 0.76678 0.26714 0.0
C780 C 0.59081 0.7166 0.27951 0.0
C781 C 0.59824 0.72744 0.25598 0.0
C782 C 0.59028 0.75224 0.24974 0.0
C783 C 0.5668 0.75545 0.28837 0.0
C784 C 0.57387 0.73054 0.29527 0.0
H785 H 0.5952 0.75978 0.23104 0.0
H786 H 0.55352 0.76607 0.30032 0.0
H787 H 0.55774 0.82336 0.20862 0.0
H788 H 0.50566 0.76242 0.19945 0.0
H789 H 0.61945 0.81509 0.34545 0.0
H790 H 0.61042 0.71716 0.24261 0.0
H791 H 0.56611 0.72231 0.31274 0.0
H792 H 0.14496 0.966 0.73154 0.0
H793 H 0.12147 0.98117 0.80955 0.0
H794 H 0.14992 0.94719 0.82521 0.0
H795 H 0.17569 0.90918 0.81578 0.0
H796 H 0.2005 0.89434 0.73794 0.0
H797 H 0.17759 0.93256 0.72313 0.0
C798 C 0.14656 0.96209 0.75198 0.0
C799 C 0.13109 0.97564 0.76941 0.0
C800 C 0.16297 0.94259 0.76081 0.0
C801 C 0.1333 0.97082 0.79587 0.0
C802 C 0.14945 0.95138 0.80479 0.0
C803 C 0.17702 0.91474 0.79573 0.0
C804 C 0.18934 0.89854 0.77792 0.0
C805 C 0.16368 0.93658 0.78733 0.0
C806 C 0.19061 0.90614 0.75197 0.0
C807 C 0.17747 0.92795 0.74346 0.0
H808 H 0.49234 0.8141 0.95911 0.0
H809 H 0.42541 0.85893 0.93974 0.0
H810 H 0.39769 0.82327 0.9527 0.0
H811 H 0.39287 0.78428 0.9788 0.0
H812 H 0.45974 0.74228 0.00359 0.0
H813 H 0.48747 0.77211 0.9797 0.0
C814 C 0.47173 0.81571 0.9568 0.0
C815 C 0.46084 0.83918 0.94879 0.0
C816 C 0.45605 0.796 0.9662 0.0
C817 C 0.43413 0.84101 0.94583 0.0
C818 C 0.41833 0.82081 0.95366 0.0
C819 C 0.41353 0.78147 0.97842 0.0
C820 C 0.42455 0.76162 0.99303 0.0
C821 C 0.42911 0.79902 0.96539 0.0
C822 C 0.45112 0.75767 0.99251 0.0
C823 C 0.46684 0.77469 0.9789 0.0
H824 H 0.42634 0.22613 0.1689 0.0
H825 H 0.3498 0.19938 0.18518 0.0
H826 H 0.36548 0.15497 0.1872 0.0
H827 H 0.40202 0.12505 0.19052 0.0
H828 H 0.47893 0.15336 0.17816 0.0
H829 H 0.46202 0.19581 0.16805 0.0
C830 C 0.41292 0.21046 0.17186 0.0
C831 C 0.38695 0.21587 0.17668 0.0
C832 C 0.42229 0.18534 0.17428 0.0
C833 C 0.36985 0.19552 0.1812 0.0
C834 C 0.37888 0.17024 0.18266 0.0
C835 C 0.41505 0.14051 0.18557 0.0
C836 C 0.44171 0.13607 0.18539 0.0
C837 C 0.40524 0.16511 0.18037 0.0
C838 C 0.45832 0.15616 0.17833 0.0
C839 C 0.44869 0.18051 0.17264 0.0
H840 H 0.12378 0.19409 0.50262 0.0
H841 H 0.07729 0.23895 0.4503 0.0
H842 H 0.1123 0.26938 0.44499 0.0
H843 H 0.15496 0.28503 0.45771 0.0
H844 H 0.19762 0.24389 0.51593 0.0
H845 H 0.16446 0.21106 0.51756 0.0
C846 C 0.12101 0.21067 0.49028 0.0
C847 C 0.09765 0.2142 0.47721 0.0
C848 C 0.1403 0.22922 0.48891 0.0
C849 C 0.09507 0.23531 0.46042 0.0
C850 C 0.11494 0.2531 0.45773 0.0
C851 C 0.15674 0.26919 0.47115 0.0
C852 C 0.17883 0.26682 0.48651 0.0
C853 C 0.13733 0.25062 0.47245 0.0
C854 C 0.181 0.24595 0.50357 0.0
C855 C 0.1621 0.22713 0.5045 0.0
H856 H 0.61463 0.61029 0.33154 0.0
H857 H 0.6095 0.58531 0.25263 0.0
H858 H 0.60772 0.62987 0.23823 0.0
H859 H 0.59906 0.67483 0.24879 0.0
H860 H 0.60336 0.70008 0.32783 0.0
H861 H 0.6132 0.65635 0.34151 0.0
C862 C 0.61389 0.61471 0.31116 0.0
C863 C 0.61188 0.59464 0.29322 0.0
C864 C 0.61174 0.64031 0.30311 0.0
C865 C 0.61122 0.60045 0.26683 0.0
C866 C 0.60976 0.62593 0.2586 0.0
C867 C 0.60281 0.67102 0.26894 0.0
C868 C 0.59983 0.69066 0.2873 0.0
C869 C 0.60866 0.64589 0.27668 0.0
C870 C 0.60465 0.68516 0.31335 0.0
C871 C 0.61056 0.66022 0.3212 0.0
H872 H 0.57786 0.23714 0.54557 0.0
H873 H 0.584 0.31976 0.54867 0.0
H874 H 0.61688 0.31643 0.58192 0.0
H875 H 0.65007 0.29002 0.60197 0.0
H876 H 0.64675 0.20754 0.59546 0.0
H877 H 0.60568 0.21062 0.57303 0.0
C878 C 0.58588 0.25437 0.55412 0.0
C879 C 0.57925 0.2786 0.54428 0.0
C880 C 0.60523 0.25227 0.57269 0.0
C881 C 0.58953 0.30088 0.55552 0.0
C882 C 0.60818 0.299 0.57458 0.0
C883 C 0.63974 0.27276 0.5965 0.0
C884 C 0.65147 0.24871 0.59969 0.0
C885 C 0.61716 0.27479 0.58218 0.0
C886 C 0.63802 0.2263 0.59302 0.0
C887 C 0.61477 0.22808 0.57981 0.0
H888 H 0.96835 0.40768 0.75801 0.0
H889 H 0.95835 0.38148 0.83622 0.0
H890 H 0.96686 0.42472 0.85206 0.0
H891 H 0.9809 0.46899 0.84385 0.0
H892 H 0.98982 0.49539 0.76578 0.0
H893 H 0.97684 0.4532 0.74964 0.0
C894 C 0.96737 0.41146 0.77849 0.0
C895 C 0.96316 0.39117 0.79589 0.0
C896 C 0.97197 0.43643 0.78749 0.0
C897 C 0.96226 0.39654 0.8224 0.0
C898 C 0.96693 0.42131 0.8315 0.0
C899 C 0.97954 0.46554 0.82332 0.0
C900 C 0.98641 0.48504 0.80599 0.0
C901 C 0.97243 0.44123 0.81424 0.0
C902 C 0.98443 0.48062 0.77943 0.0
C903 C 0.97727 0.45646 0.77023 0.0
H904 H 0.97101 0.78016 0.10715 0.0
H905 H 0.94883 0.72522 0.04893 0.0
H906 H 0.9045 0.73936 0.05211 0.0
H907 H 0.87324 0.76945 0.06829 0.0
H908 H 0.89298 0.821 0.13044 0.0
H909 H 0.93747 0.80629 0.12831 0.0
C910 C 0.95641 0.77087 0.09558 0.0
C911 C 0.96339 0.75208 0.07736 0.0
C912 C 0.93071 0.77875 0.09782 0.0
C913 C 0.94416 0.74029 0.06253 0.0
C914 C 0.91876 0.74826 0.06439 0.0
C915 C 0.88679 0.77701 0.08214 0.0
C916 C 0.87942 0.79641 0.09952 0.0
C917 C 0.91197 0.76784 0.08154 0.0
C918 C 0.898 0.80644 0.11644 0.0
C919 C 0.92346 0.79786 0.11543 0.0
H920 H 0.71832 0.1618 0.97673 0.0
H921 H 0.6446 0.13084 0.95524 0.0
H922 H 0.65993 0.12383 0.9115 0.0
H923 H 0.69722 0.11553 0.88468 0.0
H924 H 0.77006 0.15065 0.90402 0.0
H925 H 0.75187 0.16651 0.94386 0.0
C926 C 0.70512 0.15478 0.96221 0.0
C927 C 0.68077 0.14569 0.96945 0.0
C928 C 0.71421 0.15031 0.93723 0.0
C929 C 0.66376 0.1372 0.95023 0.0
C930 C 0.67262 0.13288 0.92531 0.0
C931 C 0.70924 0.12736 0.89679 0.0
C932 C 0.73571 0.13013 0.89171 0.0
C933 C 0.69842 0.1375 0.91929 0.0
C934 C 0.75019 0.14624 0.90804 0.0
C935 C 0.73967 0.15587 0.93076 0.0
H936 H 0.20589 0.44427 0.14342 0.0
H937 H 0.13601 0.48793 0.1513 0.0
H938 H 0.14993 0.50345 0.19334 0.0
H939 H 0.18659 0.51323 0.2212 0.0
H940 H 0.25589 0.46786 0.21443 0.0
H941 H 0.23766 0.44483 0.17824 0.0
C942 C 0.19309 0.45603 0.15495 0.0
C943 C 0.17035 0.46559 0.14406 0.0
C944 C 0.20168 0.46567 0.17863 0.0
C945 C 0.15381 0.48064 0.15927 0.0
C946 C 0.16199 0.48991 0.18308 0.0
C947 C 0.19756 0.49785 0.21246 0.0
C948 C 0.22321 0.49346 0.21984 0.0
C949 C 0.18672 0.48404 0.19196 0.0
C950 C 0.2367 0.47295 0.20827 0.0
C951 C 0.22614 0.45936 0.18776 0.0
H952 H 0.86243 0.93667 0.45721 0.0
H953 H 0.79439 0.92259 0.50217 0.0
H954 H 0.76746 0.93228 0.46498 0.0
H955 H 0.76344 0.95229 0.42242 0.0
H956 H 0.8317 0.96631 0.37734 0.0
H957 H 0.85828 0.94994 0.41215 0.0
C958 C 0.84172 0.93488 0.45854 0.0
C959 C 0.83041 0.92908 0.48236 0.0
C960 C 0.82636 0.94151 0.4374 0.0
C961 C 0.80358 0.92676 0.48395 0.0
C962 C 0.78814 0.93278 0.46281 0.0
C963 C 0.78406 0.95128 0.41986 0.0
C964 C 0.79547 0.96131 0.39745 0.0
C965 C 0.79933 0.9414 0.43983 0.0
C966 C 0.82233 0.95975 0.39473 0.0
C967 C 0.8376 0.95004 0.4145 0.0
H968 H 0.40374 0.59021 0.63859 0.0
H969 H 0.44339 0.51789 0.64905 0.0
H970 H 0.43135 0.51768 0.69427 0.0
H971 H 0.40439 0.53494 0.72883 0.0
H972 H 0.36966 0.60993 0.71966 0.0
H973 H 0.38552 0.61214 0.67578 0.0
C974 C 0.41065 0.57475 0.65071 0.0
C975 C 0.42372 0.55363 0.63992 0.0
C976 C 0.40419 0.57496 0.67689 0.0
C977 C 0.43234 0.53392 0.65641 0.0
C978 C 0.42561 0.53382 0.6824 0.0
C979 C 0.40085 0.55218 0.71769 0.0
C980 C 0.38487 0.57176 0.72745 0.0
C981 C 0.41063 0.55375 0.69258 0.0
C982 C 0.38082 0.59393 0.7124 0.0
C983 C 0.3901 0.59538 0.6873 0.0
H984 H 0.03681 0.16253 0.59103 0.0
H985 H 0.00889 0.08974 0.5631 0.0
H986 H 0.01862 0.0696 0.60449 0.0
H987 H 0.03668 0.0723 0.64789 0.0
H988 H 0.06828 0.14371 0.67506 0.0
H989 H 0.05587 0.16494 0.6347 0.0
C990 C 0.03267 0.14235 0.59427 0.0
C991 C 0.02202 0.12755 0.57438 0.0
C992 C 0.03926 0.1307 0.61778 0.0
C993 C 0.01709 0.10135 0.57833 0.0
C994 C 0.02268 0.08987 0.6019 0.0
C995 C 0.04067 0.09255 0.64494 0.0
C996 C 0.0532 0.10654 0.66426 0.0
C997 C 0.03402 0.10428 0.62162 0.0
C998 C 0.05876 0.13263 0.66025 0.0
C999 C 0.05156 0.14473 0.63729 0.0
H1000 H 0.25789 0.7706 0.96525 0.0
H1001 H 0.32391 0.81603 0.94466 0.0
H1002 H 0.30635 0.82279 0.90164 0.0
H1003 H 0.27355 0.81345 0.86902 0.0
H1004 H 0.20721 0.76833 0.88971 0.0
H1005 H 0.22367 0.76357 0.93345 0.0
C1006 C 0.26833 0.78207 0.95135 0.0
C1007 C 0.2922 0.79269 0.95808 0.0
C1008 C 0.2582 0.78569 0.9266 0.0
C1009 C 0.30538 0.80787 0.94005 0.0
C1010 C 0.29546 0.81154 0.91536 0.0
C1011 C 0.26269 0.80259 0.88311 0.0
C1012 C 0.23936 0.79102 0.87605 0.0
C1013 C 0.27212 0.80015 0.90829 0.0
C1014 C 0.22529 0.77736 0.89463 0.0
C1015 C 0.23468 0.77461 0.91964 0.0
H1016 H 0.51239 0.92019 0.07434 0.0
H1017 H 0.48276 0.97796 0.02253 0.0
H1018 H 0.46324 0.0007 0.05858 0.0
H1019 H 0.45652 0.00553 0.10512 0.0
H1020 H 0.48752 0.94894 0.15704 0.0
H1021 H 0.50436 0.92422 0.1207 0.0
C1022 C 0.50156 0.93769 0.0709 0.0
C1023 C 0.49916 0.94739 0.04577 0.0
C1024 C 0.49058 0.95086 0.09176 0.0
C1025 C 0.48505 0.9701 0.04169 0.0
C1026 C 0.47382 0.98313 0.06229 0.0
C1027 C 0.46653 0.98754 0.10836 0.0
C1028 C 0.47076 0.97898 0.13361 0.0
C1029 C 0.47666 0.97383 0.08742 0.0
C1030 C 0.48419 0.95589 0.1377 0.0
C1031 C 0.49383 0.94182 0.11696 0.0
H1032 H 0.31918 0.31884 0.36902 0.0
H1033 H 0.24689 0.30057 0.33316 0.0
H1034 H 0.26724 0.30194 0.29068 0.0
H1035 H 0.30552 0.30811 0.26413 0.0
H1036 H 0.37824 0.32523 0.30011 0.0
H1037 H 0.3577 0.32464 0.34241 0.0
C1038 C 0.30785 0.31551 0.35185 0.0
C1039 C 0.28153 0.3099 0.35404 0.0
C1040 C 0.31975 0.31602 0.32769 0.0
C1041 C 0.26716 0.30491 0.33179 0.0
C1042 C 0.27878 0.30573 0.30761 0.0
C1043 C 0.31692 0.31177 0.28119 0.0
C1044 C 0.34336 0.31676 0.27898 0.0
C1045 C 0.30506 0.31121 0.30537 0.0
C1046 C 0.35786 0.32129 0.30131 0.0
C1047 C 0.34613 0.32101 0.32547 0.0
H1048 H 0.56002 0.34195 0.41163 0.0
H1049 H 0.53093 0.40049 0.46271 0.0
H1050 H 0.54988 0.43393 0.43567 0.0
H1051 H 0.5717 0.44649 0.39568 0.0
H1052 H 0.60223 0.38852 0.34528 0.0
H1053 H 0.58629 0.3546 0.3741 0.0
C1054 C 0.55799 0.36205 0.41684 0.0
C1055 C 0.54385 0.3689 0.43885 0.0
C1056 C 0.56936 0.3811 0.40148 0.0
C1057 C 0.54168 0.39487 0.44577 0.0
C1058 C 0.55249 0.41395 0.43035 0.0
C1059 C 0.57534 0.42637 0.39151 0.0
C1060 C 0.58807 0.41974 0.36868 0.0
C1061 C 0.56601 0.40728 0.408 0.0
C1062 C 0.59273 0.39382 0.36304 0.0
C1063 C 0.58336 0.37456 0.37932 0.0
H1064 H 0.86463 0.31724 0.72573 0.0
H1065 H 0.91859 0.26502 0.69036 0.0
H1066 H 0.89176 0.26286 0.65193 0.0
H1067 H 0.85151 0.27338 0.62972 0.0
H1068 H 0.79717 0.32473 0.6655 0.0
H1069 H 0.82596 0.33026 0.70211 0.0
C1070 C 0.87058 0.30545 0.70958 0.0
C1071 C 0.89341 0.29107 0.71103 0.0
C1072 C 0.85507 0.30428 0.68756 0.0
C1073 C 0.90104 0.2762 0.68979 0.0
C1074 C 0.88571 0.27493 0.66781 0.0
C1075 C 0.84609 0.28592 0.64546 0.0
C1076 C 0.82215 0.29841 0.64499 0.0
C1077 C 0.86248 0.28854 0.66668 0.0
C1078 C 0.81555 0.31503 0.66527 0.0
C1079 C 0.83189 0.31798 0.68635 0.0
H1080 H 0.01322 0.66075 0.00282 0.0
H1081 H 0.08168 0.69859 0.97544 0.0
H1082 H 0.07399 0.68172 0.93222 0.0
H1083 H 0.04853 0.65506 0.90264 0.0
H1084 H 0.98008 0.6175 0.93012 0.0
H1085 H 0.98674 0.63593 0.97282 0.0
C1086 C 0.02652 0.66528 0.98743 0.0
C1087 C 0.04817 0.68065 0.99242 0.0
C1088 C 0.02185 0.65574 0.96263 0.0
C1089 C 0.06496 0.68667 0.97215 0.0
C1090 C 0.06056 0.67706 0.94744 0.0
C1091 C 0.03507 0.65095 0.91799 0.0
C1092 C 0.01393 0.6348 0.91326 0.0
C1093 C 0.03918 0.66141 0.94252 0.0
C1094 C -0.00364 0.63004 0.93318 0.0
C1095 C 0.0003 0.64038 0.95766 0.0
H1096 H 0.68808 0.82493 0.14325 0.0
H1097 H 0.72153 0.75205 0.16379 0.0
H1098 H 0.69232 0.74865 0.20067 0.0
H1099 H 0.65823 0.76727 0.22757 0.0
H1100 H 0.62267 0.83877 0.2053 0.0
H1101 H 0.65189 0.84215 0.16848 0.0
C1102 C 0.68885 0.80835 0.15587 0.0
C1103 C 0.70695 0.78886 0.15122 0.0
C1104 C 0.67184 0.80647 0.17665 0.0
C1105 C 0.70762 0.76716 0.16719 0.0
C1106 C 0.69108 0.76534 0.18824 0.0
C1107 C 0.65704 0.78365 0.2147 0.0
C1108 C 0.63878 0.80302 0.21922 0.0
C1109 C 0.67333 0.78503 0.1933 0.0
C1110 C 0.6368 0.8238 0.20215 0.0
C1111 C 0.65344 0.8257 0.18117 0.0
H1112 H 0.62794 0.05976 0.128 0.0
H1113 H 0.60147 0.13397 0.1542 0.0
H1114 H 0.56752 0.11299 0.1791 0.0
H1115 H 0.54561 0.07354 0.19321 0.0
H1116 H 0.5736 -0.00039 0.16783 0.0
H1117 H 0.6075 0.02072 0.14318 0.0
C1118 C 0.61528 0.07152 0.13957 0.0
C1119 C 0.61757 0.09853 0.13943 0.0
C1120 C 0.59613 0.05936 0.15395 0.0
C1121 C 0.60013 0.11321 0.1539 0.0
C1122 C 0.58079 0.10121 0.16818 0.0
C1123 C 0.55908 0.06205 0.1822 0.0
C1124 C 0.55701 0.03505 0.18214 0.0
C1125 C 0.5786 0.0743 0.16826 0.0
C1126 C 0.57484 0.0204 0.1682 0.0
C1127 C 0.59416 0.03245 0.15407 0.0
H1128 H 0.27115 0.47915 0.39222 0.0
H1129 H 0.19432 0.47536 0.36221 0.0
H1130 H 0.18777 0.43366 0.38334 0.0
H1131 H 0.20596 0.3964 0.40654 0.0
H1132 H 0.28274 0.40143 0.43746 0.0
H1133 H 0.28722 0.44464 0.42014 0.0
C1134 C 0.25289 0.46926 0.39075 0.0
C1135 C 0.2333 0.47989 0.37564 0.0
C1136 C 0.24938 0.44552 0.40294 0.0
C1137 C 0.20955 0.46735 0.37391 0.0
C1138 C 0.20593 0.44351 0.3858 0.0
C1139 C 0.22351 0.40712 0.40976 0.0
C1140 C 0.24407 0.39558 0.42296 0.0
C1141 C 0.22599 0.43209 0.39979 0.0
C1142 C 0.2666 0.40981 0.42732 0.0
C1143 C 0.26927 0.4345 0.41731 0.0
H1144 H 0.96705 0.95245 0.61658 0.0
H1145 H 0.91093 0.95762 0.67704 0.0
H1146 H 0.94155 0.98068 0.70433 0.0
H1147 H 0.98309 0.00205 0.70961 0.0
H1148 H 0.03884 -0.00113 0.64827 0.0
H1149 H 0.00966 0.97256 0.62264 0.0
C1150 C 0.96194 0.95806 0.63599 0.0
C1151 C 0.93706 0.95307 0.6451 0.0
C1152 C 0.97937 0.97211 0.65116 0.0
C1153 C 0.93018 0.96105 0.66995 0.0
C1154 C 0.94756 0.9744 0.68539 0.0
C1155 C 0.98893 0.9956 0.69066 0.0
C1156 C 0.01311 0.0026 0.68087 0.0
C1157 C 0.97202 0.98055 0.67597 0.0
C1158 C 0.02032 0.99388 0.6563 0.0
C1159 C 0.00366 0.97875 0.64162 0.0
H1160 H 0.36595 0.70242 0.94222 0.0
H1161 H 0.2969 0.67161 0.97599 0.0
H1162 H 0.30043 0.63337 0.94864 0.0
H1163 H 0.32359 0.60868 0.91541 0.0
H1164 H 0.39358 0.63912 0.88337 0.0
H1165 H 0.38958 0.6774 0.91024 0.0
C1166 C 0.35147 0.6875 0.94337 0.0
C1167 C 0.33094 0.68997 0.96073 0.0
C1168 C 0.35406 0.66538 0.92822 0.0
C1169 C 0.31272 0.67018 0.96254 0.0
C1170 C 0.31481 0.64832 0.94702 0.0
C1171 C 0.33793 0.62373 0.91436 0.0
C1172 C 0.35885 0.62111 0.89744 0.0
C1173 C 0.33547 0.64568 0.92987 0.0
C1174 C 0.37752 0.64054 0.89648 0.0
C1175 C 0.37509 0.66253 0.91164 0.0
H1176 H 0.14666 0.5031 0.94395 0.0
H1177 H 0.08263 0.46765 0.98275 0.0
H1178 H 0.05275 0.49157 0.95561 0.0
H1179 H 0.04482 0.52412 0.92233 0.0
H1180 H 0.10898 0.5604 0.88439 0.0
H1181 H 0.13883 0.53512 0.91031 0.0
C1182 C 0.12617 0.50063 0.94653 0.0
C1183 C 0.11696 0.4837 0.96553 0.0
C1184 C 0.10913 0.51493 0.93133 0.0
C1185 C 0.09032 0.4803 0.96815 0.0
C1186 C 0.0732 0.49423 0.95283 0.0
C1187 C 0.06533 0.52668 0.91986 0.0
C1188 C 0.07465 0.54427 0.90155 0.0
C1189 C 0.08239 0.51192 0.93468 0.0
C1190 C 0.10129 0.54705 0.89838 0.0
C1191 C 0.11838 0.53254 0.91313 0.0
H1192 H 0.8059 0.85981 0.18382 0.0
H1193 H 0.74819 0.89863 0.13857 0.0
H1194 H 0.74618 0.93323 0.17029 0.0
H1195 H 0.76052 0.95216 0.21122 0.0
H1196 H 0.81895 0.91382 0.25573 0.0
H1197 H 0.82126 0.87945 0.2238 0.0
C1198 C 0.7928 0.87579 0.18096 0.0
C1199 C 0.77704 0.87654 0.15904 0.0
C1200 C 0.792 0.89576 0.19905 0.0
C1201 C 0.76047 0.89757 0.15536 0.0
C1202 C 0.7593 0.91736 0.17347 0.0
C1203 C 0.77369 0.93624 0.21389 0.0
C1204 C 0.78948 0.93545 0.23579 0.0
C1205 C 0.77492 0.9166 0.19543 0.0
C1206 C 0.8068 0.91496 0.23888 0.0
C1207 C 0.80799 0.89523 0.22074 0.0
H1208 H 0.56221 0.52463 0.40586 0.0
H1209 H 0.49655 0.50117 0.36098 0.0
H1210 H 0.46785 0.51562 0.39529 0.0
H1211 H 0.46152 0.53529 0.43773 0.0
H1212 H 0.52721 0.55889 0.48236 0.0
H1213 H 0.55586 0.54451 0.44805 0.0
C1214 C 0.54163 0.52252 0.40359 0.0
C1215 C 0.53155 0.51171 0.38093 0.0
C1216 C 0.52528 0.53116 0.42319 0.0
C1217 C 0.50481 0.50936 0.37825 0.0
C1218 C 0.4884 0.51767 0.39782 0.0
C1219 C 0.48211 0.53712 0.44004 0.0
C1220 C 0.49222 0.54805 0.46265 0.0
C1221 C 0.49844 0.52865 0.42033 0.0
C1222 C 0.51893 0.5508 0.46508 0.0
C1223 C 0.53532 0.54239 0.44556 0.0
H1224 H 0.75896 0.17472 0.64311 0.0
H1225 H 0.78354 0.23303 0.69669 0.0
H1226 H 0.78143 0.20189 0.73195 0.0
H1227 H 0.7711 0.1586 0.74753 0.0
H1228 H 0.74401 0.10108 0.69451 0.0
H1229 H 0.74817 0.13157 0.65879 0.0
C1230 C 0.7642 0.18049 0.66245 0.0
C1231 C 0.77166 0.20598 0.6674 0.0
C1232 C 0.76206 0.1628 0.68263 0.0
C1233 C 0.77784 0.21344 0.69256 0.0
C1234 C 0.77654 0.19571 0.71266 0.0
C1235 C 0.76617 0.15283 0.72811 0.0
C1236 C 0.75728 0.12778 0.7235 0.0
C1237 C 0.76839 0.17046 0.70792 0.0
C1238 C 0.7506 0.12041 0.69842 0.0
C1239 C 0.75318 0.13774 0.67806 0.0
H1240 H 0.11129 0.53908 0.05997 0.0
H1241 H 0.17817 0.57009 0.02214 0.0
H1242 H 0.16397 0.61382 0.0329 0.0
H1243 H 0.13233 0.64297 0.05334 0.0
H1244 H 0.06669 0.61078 0.09225 0.0
H1245 H 0.08093 0.56751 0.08113 0.0
C1246 C 0.12276 0.55534 0.05383 0.0
C1247 C 0.1456 0.55136 0.03995 0.0
C1248 C 0.11481 0.58014 0.06055 0.0
C1249 C 0.16041 0.57269 0.03265 0.0
C1250 C 0.15233 0.59764 0.03887 0.0
C1251 C 0.12117 0.62644 0.0593 0.0
C1252 C 0.09845 0.63005 0.07357 0.0
C1253 C 0.12955 0.60157 0.05285 0.0
C1254 C 0.08436 0.6085 0.08155 0.0
C1255 C 0.09239 0.58378 0.07501 0.0
H1256 H 0.66251 0.03407 0.0276 0.0
H1257 H 0.60281 0.04769 0.08341 0.0
H1258 H 0.57677 0.01361 0.06428 0.0
H1259 H 0.56976 0.98229 0.02999 0.0
H1260 H 0.62771 0.97027 0.97211 0.0
H1261 H 0.6554 0.00217 0.99304 0.0
C1262 C 0.64401 0.02919 0.03578 0.0
C1263 C 0.63459 0.04302 0.05701 0.0
C1264 C 0.62861 0.01048 0.02385 0.0
C1265 C 0.61043 0.03699 0.06722 0.0
C1266 C 0.59548 0.01774 0.05615 0.0
C1267 C 0.58852 0.98658 0.02205 0.0
C1268 C 0.59675 0.97399 -0.0004 0.0
C1269 C 0.60415 0.00479 0.03415 0.0
C1270 C 0.62088 0.97999 0.9892 0.0
C1271 C 0.63678 -0.00201 0.00133 0.0
H1272 H 0.36898 0.41345 0.24017 0.0
H1273 H 0.3003 0.38828 0.20135 0.0
H1274 H 0.27489 0.41937 0.22578 0.0
H1275 H 0.27197 0.45193 0.25958 0.0
H1276 H 0.34061 0.47786 0.29814 0.0
H1277 H 0.36632 0.44758 0.27284 0.0
C1278 C 0.34845 0.41481 0.23706 0.0
C1279 C 0.3365 0.39844 0.21911 0.0
C1280 C 0.33397 0.43242 0.25146 0.0
C1281 C 0.30998 0.40078 0.21486 0.0
C1282 C 0.29542 0.41834 0.22904 0.0
C1283 C 0.29253 0.45081 0.2627 0.0
C1284 C 0.30433 0.46676 0.28109 0.0
C1285 C 0.30716 0.43387 0.24771 0.0
C1286 C 0.33105 0.46552 0.28437 0.0
C1287 C 0.34575 0.44834 0.26981 0.0
H1288 H 0.9295 0.10266 0.52825 0.0
H1289 H 0.98727 0.05695 0.49021 0.0
H1290 H 0.97055 0.01822 0.51078 0.0
H1291 H 0.94059 -0.00223 0.5405 0.0
H1292 H 0.88248 0.04321 0.57857 0.0
H1293 H 0.89886 0.08198 0.55758 0.0
C1294 C 0.93844 0.08421 0.52451 0.0
C1295 C 0.95966 0.08268 0.50782 0.0
C1296 C 0.92898 0.06216 0.53671 0.0
C1297 C 0.97075 0.0586 0.50272 0.0
C1298 C 0.96138 0.03651 0.51471 0.0
C1299 C 0.93158 0.01616 0.54445 0.0
C1300 C 0.91048 0.01765 0.56128 0.0
C1301 C 0.94073 0.03815 0.53196 0.0
C1302 C 0.89885 0.04159 0.56582 0.0
C1303 C 0.90812 0.06371 0.55373 0.0
H1304 H 0.32769 0.65695 0.79855 0.0
H1305 H 0.26331 0.61577 0.83061 0.0
H1306 H 0.23572 0.65327 0.82365 0.0
H1307 H 0.23009 0.69776 0.80843 0.0
H1308 H 0.2944 0.73825 0.77561 0.0
H1309 H 0.32189 0.70078 0.78263 0.0
C1310 C 0.30764 0.65616 0.80413 0.0
C1311 C 0.29759 0.63368 0.81524 0.0
C1312 C 0.29191 0.67759 0.79979 0.0
C1313 C 0.2715 0.63288 0.82204 0.0
C1314 C 0.25574 0.65429 0.81808 0.0
C1315 C 0.25016 0.69838 0.80298 0.0
C1316 C 0.26027 0.72074 0.79162 0.0
C1317 C 0.26577 0.67675 0.807 0.0
C1318 C 0.28617 0.72117 0.78417 0.0
C1319 C 0.30189 0.69984 0.78832 0.0
H1320 H 0.48175 0.38201 0.53387 0.0
H1321 H 0.43222 0.37523 0.46805 0.0
H1322 H 0.42031 0.42084 0.47185 0.0
H1323 H 0.42547 0.46298 0.49337 0.0
H1324 H 0.47823 0.46967 0.55701 0.0
H1325 H 0.48749 0.42379 0.55472 0.0
C1326 C 0.46806 0.39053 0.52066 0.0
C1327 C 0.45747 0.37547 0.501 0.0
C1328 C 0.46214 0.41673 0.52248 0.0
C1329 C 0.44034 0.38666 0.48342 0.0
C1330 C 0.43365 0.41263 0.48559 0.0
C1331 C 0.43891 0.45429 0.50674 0.0
C1332 C 0.45118 0.46963 0.5253 0.0
C1333 C 0.44463 0.42793 0.50493 0.0
C1334 C 0.46872 0.45828 0.54241 0.0
C1335 C 0.47395 0.43204 0.5412 0.0
H1336 H 0.80819 0.17385 0.82572 0.0
H1337 H 0.85749 0.12058 0.78549 0.0
H1338 H 0.89004 0.15418 0.78072 0.0
H1339 H 0.90379 0.19907 0.78704 0.0
H1340 H 0.85464 0.25174 0.82796 0.0
H1341 H 0.82258 0.21786 0.83356 0.0
C1342 C 0.82606 0.16954 0.8159 0.0
C1343 C 0.83035 0.14485 0.80575 0.0
C1344 C 0.8446 0.18883 0.81334 0.0
C1345 C 0.85375 0.13946 0.79344 0.0
C1346 C 0.8723 0.15867 0.79064 0.0
C1347 C 0.88597 0.20309 0.79702 0.0
C1348 C 0.88135 0.22786 0.80686 0.0
C1349 C 0.8678 0.18348 0.80029 0.0
C1350 C 0.85853 0.23278 0.82032 0.0
C1351 C 0.84022 0.21347 0.82342 0.0
H1352 H 0.61966 0.88476 0.29072 0.0
H1353 H 0.66309 0.83039 0.33577 0.0
H1354 H 0.69955 0.8599 0.33673 0.0
H1355 H 0.71964 0.90026 0.32311 0.0
H1356 H 0.67599 0.95518 0.27876 0.0
H1357 H 0.63906 0.92618 0.27885 0.0
C1358 C 0.63711 0.87945 0.30078 0.0
C1359 C 0.63877 0.85542 0.31305 0.0
C1360 C 0.65798 0.89645 0.3011 0.0
C1361 C 0.66129 0.84889 0.32641 0.0
C1362 C 0.6822 0.86564 0.32675 0.0
C1363 C 0.70209 0.90584 0.31335 0.0
C1364 C 0.70062 0.92965 0.30065 0.0
C1365 C 0.68087 0.8893 0.31385 0.0
C1366 C 0.6776 0.93685 0.28854 0.0
C1367 C 0.6565 0.92032 0.28862 0.0
H1368 H -0.00328 0.11661 0.73107 0.0
H1369 H 0.00169 0.10454 0.81301 0.0
H1370 H 0.98573 0.14789 0.82083 0.0
H1371 H 0.97589 0.19073 0.80456 0.0
H1372 H 0.97181 0.20405 0.72281 0.0
H1373 H 0.98175 0.15872 0.71466 0.0
C1374 C 0.99361 0.12331 0.75058 0.0
C1375 C 0.00053 0.10761 0.77146 0.0
C1376 C 0.98508 0.1486 0.75495 0.0
C1377 C -0.00333 0.11646 0.79667 0.0
C1378 C 0.98766 0.14126 0.80116 0.0
C1379 C 0.97698 0.18366 0.78496 0.0
C1380 C 0.97365 0.2007 0.76432 0.0
C1381 C 0.98279 0.15778 0.78048 0.0
C1382 C 0.97453 0.19125 0.73902 0.0
C1383 C 0.98025 0.16537 0.73435 0.0
H1384 H 0.16561 0.75252 0.09369 0.0
H1385 H 0.15243 0.71017 0.0235 0.0
H1386 H 0.1986 0.70809 0.01573 0.0
H1387 H 0.24259 0.71896 0.02845 0.0
H1388 H 0.25565 0.7615 0.09855 0.0
H1389 H 0.20956 0.76277 0.10675 0.0
C1390 C 0.17281 0.74278 0.07671 0.0
C1391 C 0.15561 0.73161 0.05917 0.0
C1392 C 0.19934 0.74172 0.07231 0.0
C1393 C 0.16527 0.71902 0.03729 0.0
C1394 C 0.19166 0.71781 0.03281 0.0
C1395 C 0.23537 0.72849 0.04555 0.0
C1396 C 0.25252 0.74019 0.06281 0.0
C1397 C 0.20885 0.72921 0.05013 0.0
C1398 C 0.24286 0.75238 0.08491 0.0
C1399 C 0.2165 0.75313 0.08963 0.0
H1400 H 0.52375 0.96103 0.23545 0.0
H1401 H 0.44885 0.9477 0.2683 0.0
H1402 H 0.46119 0.90359 0.27892 0.0
H1403 H 0.49297 0.86857 0.27778 0.0
H1404 H 0.56752 0.8823 0.24413 0.0
H1405 H 0.55548 0.92661 0.23485 0.0
C1406 C 0.51006 0.94853 0.24489 0.0
C1407 C 0.48537 0.95761 0.25091 0.0
C1408 C 0.5172 0.92326 0.25075 0.0
C1409 C 0.46798 0.94117 0.26339 0.0
C1410 C 0.47501 0.91595 0.26945 0.0
C1411 C 0.5066 0.88128 0.26851 0.0
C1412 C 0.53105 0.87212 0.26159 0.0
C1413 C 0.49953 0.90675 0.26306 0.0
C1414 C 0.54851 0.88883 0.24956 0.0
C1415 C 0.54168 0.91418 0.24425 0.0
H1416 H 0.43787 0.33021 0.42953 0.0
H1417 H 0.43119 0.25152 0.404 0.0
H1418 H 0.38463 0.256 0.40178 0.0
H1419 H 0.34632 0.27915 0.4157 0.0
H1420 H 0.35263 0.35667 0.44437 0.0
H1421 H 0.39899 0.35598 0.43645 0.0
C1422 C 0.4263 0.31428 0.42276 0.0
C1423 C 0.43778 0.29035 0.41757 0.0
C1424 C 0.39952 0.31665 0.42264 0.0
C1425 C 0.42264 0.26997 0.40855 0.0
C1426 C 0.39605 0.27247 0.40742 0.0
C1427 C 0.35784 0.29602 0.41987 0.0
C1428 C 0.34647 0.31762 0.4313 0.0
C1429 C 0.38432 0.2952 0.41588 0.0
C1430 C 0.36122 0.33969 0.43589 0.0
C1431 C 0.38767 0.33925 0.43146 0.0
H1432 H 0.49605 0.43923 0.29042 0.0
H1433 H 0.55905 0.41727 0.2411 0.0
H1434 H 0.53193 0.38561 0.21982 0.0
H1435 H 0.49016 0.36507 0.21431 0.0
H1436 H 0.42689 0.3868 0.26334 0.0
H1437 H 0.45429 0.41777 0.28555 0.0
C1438 C 0.5039 0.42731 0.27521 0.0
C1439 C 0.5295 0.43059 0.26733 0.0
C1440 C 0.48811 0.40932 0.26282 0.0
C1441 C 0.53937 0.41517 0.24746 0.0
C1442 C 0.52387 0.39709 0.23524 0.0
C1443 C 0.48231 0.37665 0.22978 0.0
C1444 C 0.45652 0.37378 0.23704 0.0
C1445 C 0.49816 0.39423 0.24255 0.0
C1446 C 0.44671 0.38872 0.25733 0.0
C1447 C 0.46236 0.40638 0.27008 0.0
H1448 H 0.90585 0.21821 0.49223 0.0
H1449 H 0.92481 0.1711 0.55797 0.0
H1450 H 0.88323 0.18071 0.57723 0.0
H1451 H 0.84211 0.20338 0.57599 0.0
H1452 H 0.82304 0.25055 0.51034 0.0
H1453 H 0.8642 0.24005 0.49049 0.0
C1454 C 0.90082 0.2099 0.51068 0.0
C1455 C 0.9184 0.19408 0.52368 0.0
C1456 C 0.87699 0.21565 0.52175 0.0
C1457 C 0.91163 0.18345 0.5476 0.0
C1458 C 0.88789 0.18895 0.55866 0.0
C1459 C 0.84698 0.21142 0.55736 0.0
C1460 C 0.82966 0.22781 0.54471 0.0
C1461 C 0.87056 0.20524 0.54603 0.0
C1462 C 0.83611 0.23791 0.5205 0.0
C1463 C 0.85961 0.2319 0.50912 0.0
H1464 H 0.10397 0.644 0.84259 0.0
H1465 H 0.05418 0.66285 0.77885 0.0
H1466 H 0.07906 0.70142 0.77025 0.0
H1467 H 0.11483 0.72964 0.78038 0.0
H1468 H 0.16489 0.71186 0.84411 0.0
H1469 H 0.14005 0.67294 0.85308 0.0
C1470 C 0.09855 0.6566 0.82688 0.0
C1471 C 0.07727 0.6505 0.81137 0.0
C1472 C 0.11302 0.67885 0.82195 0.0
C1473 C 0.07048 0.66702 0.79108 0.0
C1474 C 0.08471 0.68911 0.7861 0.0
C1475 C 0.12043 0.71725 0.7962 0.0
C1476 C 0.14172 0.72358 0.81148 0.0
C1477 C 0.10604 0.69513 0.80132 0.0
C1478 C 0.14858 0.70736 0.832 0.0
C1479 C 0.13437 0.68514 0.83716 0.0
H1480 H 0.62649 0.84914 0.99398 0.0
H1481 H 0.60287 0.89062 0.06187 0.0
H1482 H 0.64557 0.88437 0.08071 0.0
H1483 H 0.68961 0.8668 0.07765 0.0
H1484 H 0.71213 0.8257 0.00903 0.0
H1485 H 0.66974 0.83229 0.99069 0.0
C1486 C 0.63058 0.85681 0.01294 0.0
C1487 C 0.61156 0.87023 0.02655 0.0
C1488 C 0.65499 0.85328 0.02348 0.0
C1489 C 0.61724 0.88015 0.05104 0.0
C1490 C 0.64162 0.87661 0.06178 0.0
C1491 C 0.68522 0.85939 0.05866 0.0
C1492 C 0.70399 0.84576 0.04475 0.0
C1493 C 0.66067 0.86319 0.04814 0.0
C1494 C 0.69805 0.83622 0.02018 0.0
C1495 C 0.67379 0.83995 0.00965 0.0
H1496 H 0.76802 0.06615 0.22778 0.0
H1497 H 0.70551 0.0118 0.22522 0.0
H1498 H 0.69514 0.02548 0.18147 0.0
H1499 H 0.70332 0.05347 0.14431 0.0
H1500 H 0.76557 0.10811 0.14725 0.0
H1501 H 0.77665 0.09351 0.19046 0.0
C1502 C 0.75211 0.05728 0.21769 0.0
C1503 C 0.7375 0.03806 0.22982 0.0
C1504 C 0.74626 0.06521 0.19257 0.0
C1505 C 0.71702 0.02671 0.21638 0.0
C1506 C 0.7111 0.03449 0.19134 0.0
C1507 C 0.71944 0.06206 0.15431 0.0
C1508 C 0.73359 0.08188 0.14255 0.0
C1509 C 0.72555 0.05377 0.17928 0.0
C1510 C 0.75433 0.09287 0.15585 0.0
C1511 C 0.76066 0.08456 0.18059 0.0
H1512 H 0.35755 0.59486 0.45573 0.0
H1513 H 0.38764 0.51808 0.44604 0.0
H1514 H 0.36487 0.51407 0.40519 0.0
H1515 H 0.33523 0.53174 0.37304 0.0
H1516 H 0.30487 0.60839 0.38296 0.0
H1517 H 0.32901 0.61303 0.42292 0.0
C1518 C 0.35927 0.57729 0.44463 0.0
C1519 C 0.37419 0.55677 0.45401 0.0
C1520 C 0.34599 0.57503 0.42126 0.0
C1521 C 0.37622 0.53416 0.43933 0.0
C1522 C 0.36318 0.53183 0.41598 0.0
C1523 C 0.33393 0.5495 0.38389 0.0
C1524 C 0.31815 0.56964 0.37506 0.0
C1525 C 0.3478 0.55203 0.40689 0.0
C1526 C 0.3168 0.59255 0.38933 0.0
C1527 C 0.3306 0.59523 0.4122 0.0
H1528 H 0.84898 0.00732 0.65947 0.0
H1529 H 0.79897 0.94184 0.66878 0.0
H1530 H 0.78616 0.9573 0.71115 0.0
H1531 H 0.78785 0.99013 0.74477 0.0
H1532 H 0.83744 0.05592 0.73546 0.0
H1533 H 0.85187 0.03945 0.69393 0.0
C1534 C 0.83531 0.99641 0.67078 0.0
C1535 C 0.82481 0.97356 0.6609 0.0
C1536 C 0.82797 0.00543 0.69512 0.0
C1537 C 0.80727 0.95955 0.67588 0.0
C1538 C 0.79993 0.96836 0.70012 0.0
C1539 C 0.80195 0.0008 0.73376 0.0
C1540 C 0.81144 0.02427 0.74313 0.0
C1541 C 0.80998 0.99137 0.70982 0.0
C1542 C 0.82975 0.03782 0.72864 0.0
C1543 C 0.83799 0.02846 0.70486 0.0
H1544 H 0.29769 0.48103 0.89258 0.0
H1545 H 0.2713 0.55973 0.89345 0.0
H1546 H 0.24414 0.55047 0.93059 0.0
H1547 H 0.22835 0.52017 0.96323 0.0
H1548 H 0.25514 0.44159 0.9624 0.0
H1549 H 0.28154 0.45069 0.92477 0.0
C1550 C 0.28601 0.49618 0.90087 0.0
C1551 C 0.28661 0.52104 0.89026 0.0
C1552 C 0.27045 0.49075 0.92222 0.0
C1553 C 0.27126 0.54042 0.90124 0.0
C1554 C 0.2557 0.53514 0.92248 0.0
C1555 C 0.23986 0.505 0.95475 0.0
C1556 C 0.23976 0.48024 0.96567 0.0
C1557 C 0.25518 0.51039 0.93317 0.0
C1558 C 0.25486 0.46083 0.95444 0.0
C1559 C 0.27001 0.46601 0.93292 0.0
H1560 H 0.87048 0.01606 0.79451 0.0
H1561 H 0.88596 0.03418 0.87367 0.0
H1562 H 0.93177 0.02449 0.86724 0.0
H1563 H 0.9677 0.01624 0.83727 0.0
H1564 H 0.95135 -0.00239 0.75809 0.0
H1565 H 0.90543 0.00182 0.76626 0.0
C1566 C 0.88395 0.01743 0.81036 0.0
C1567 C 0.87529 0.02603 0.8344 0.0
C1568 C 0.90997 0.01192 0.80641 0.0
C1569 C 0.8925 0.02756 0.85504 0.0
C1570 C 0.91858 0.02216 0.85128 0.0
C1571 C 0.95408 0.01239 0.822 0.0
C1572 C 0.96295 0.00709 0.79697 0.0
C1573 C 0.92764 0.01504 0.82682 0.0
C1574 C 0.94499 0.00225 0.77737 0.0
C1575 C 0.91876 0.00464 0.78202 0.0
H1576 H 0.33426 0.61316 0.07322 0.0
H1577 H 0.26537 0.65827 0.06456 0.0
H1578 H 0.23936 0.6193 0.06419 0.0
H1579 H 0.23647 0.57252 0.06353 0.0
H1580 H 0.30516 0.5267 0.07039 0.0
H1581 H 0.33097 0.56568 0.0748 0.0
C1582 C 0.31353 0.61431 0.0717 0.0
C1583 C 0.30169 0.63839 0.06869 0.0
C1584 C 0.29872 0.59174 0.07104 0.0
C1585 C 0.27484 0.63983 0.06653 0.0
C1586 C 0.25999 0.6176 0.06634 0.0
C1587 C 0.25709 0.57104 0.06586 0.0
C1588 C 0.26888 0.54676 0.0663 0.0
C1589 C 0.27178 0.59346 0.06799 0.0
C1590 C 0.29558 0.54516 0.07006 0.0
C1591 C 0.31037 0.56745 0.07245 0.0
H1592 H 0.64022 0.00402 0.31252 0.0
H1593 H 0.65554 0.08483 0.32219 0.0
H1594 H 0.61079 0.09493 0.31204 0.0
H1595 H 0.56817 0.08086 0.29656 0.0
H1596 H 0.55348 -0.0001 0.2867 0.0
H1597 H 0.59703 0.98978 0.30063 0.0
C1598 C 0.63373 0.02383 0.31246 0.0
C1599 C 0.65124 0.04363 0.31785 0.0
C1600 C 0.60808 0.02947 0.3064 0.0
C1601 C 0.64243 0.0692 0.31823 0.0
C1602 C 0.61687 0.075 0.31227 0.0
C1603 C 0.57437 0.06102 0.29799 0.0
C1604 C 0.55771 0.0412 0.29028 0.0
C1605 C 0.59961 0.05531 0.30586 0.0
C1606 C 0.56609 0.01554 0.29207 0.0
C1607 C 0.59097 0.00972 0.30008 0.0
H1608 H 0.36085 0.4562 0.55675 0.0
H1609 H 0.29659 0.49872 0.52651 0.0
H1610 H 0.27324 0.45855 0.51901 0.0
H1611 H 0.27353 0.41123 0.51641 0.0
H1612 H 0.33814 0.3689 0.5463 0.0
H1613 H 0.35892 0.40904 0.559 0.0
C1614 C 0.34158 0.45657 0.54885 0.0
C1615 C 0.33049 0.48019 0.54187 0.0
C1616 C 0.32849 0.43348 0.54446 0.0
C1617 C 0.3054 0.48068 0.53206 0.0
C1618 C 0.29217 0.45775 0.52761 0.0
C1619 C 0.29198 0.41089 0.52606 0.0
C1620 C 0.30444 0.38726 0.53021 0.0
C1621 C 0.30387 0.43403 0.53303 0.0
C1622 C 0.32816 0.38687 0.54304 0.0
C1623 C 0.34012 0.40981 0.55009 0.0
H1624 H 0.46922 0.57022 0.26499 0.0
H1625 H 0.46165 0.48927 0.28099 0.0
H1626 H 0.41499 0.49326 0.28094 0.0
H1627 H 0.37655 0.51988 0.27805 0.0
H1628 H 0.3834 0.60132 0.26406 0.0
H1629 H 0.43005 0.59695 0.26085 0.0
C1630 C 0.45727 0.55348 0.26817 0.0
C1631 C 0.46882 0.52955 0.27323 0.0
C1632 C 0.43037 0.556 0.26843 0.0
C1633 C 0.45319 0.50797 0.2775 0.0
C1634 C 0.42652 0.51021 0.27736 0.0
C1635 C 0.38819 0.53676 0.27451 0.0
C1636 C 0.37642 0.56096 0.27166 0.0
C1637 C 0.41494 0.53419 0.27325 0.0
C1638 C 0.39187 0.58245 0.26626 0.0
C1639 C 0.41859 0.57998 0.26459 0.0
H1640 H 0.80203 0.05077 0.59977 0.0
H1641 H 0.77136 0.03264 0.52501 0.0
H1642 H 0.75429 0.07638 0.52104 0.0
H1643 H 0.74991 0.1204 0.53824 0.0
H1644 H 0.77967 0.13749 0.61381 0.0
H1645 H 0.79548 0.0937 0.61794 0.0
C1646 C 0.7917 0.05647 0.58258 0.0
C1647 C 0.78815 0.03866 0.56261 0.0
C1648 C 0.7819 0.08151 0.58053 0.0
C1649 C 0.77423 0.04605 0.54067 0.0
C1650 C 0.76458 0.07106 0.53836 0.0
C1651 C 0.75957 0.11446 0.55571 0.0
C1652 C 0.76394 0.13244 0.57546 0.0
C1653 C 0.76848 0.08903 0.55811 0.0
C1654 C 0.77659 0.12435 0.59799 0.0
C1655 C 0.78553 0.09921 0.60047 0.0
H1656 H 0.14346 0.5407 0.76252 0.0
H1657 H 0.13676 0.54248 0.84527 0.0
H1658 H 0.18262 0.53539 0.84962 0.0
H1659 H 0.22507 0.53124 0.83017 0.0
H1660 H 0.23277 0.52786 0.74784 0.0
H1661 H 0.18606 0.53237 0.74296 0.0
C1662 C 0.15201 0.53917 0.78146 0.0
C1663 C 0.13673 0.54281 0.80349 0.0
C1664 C 0.17856 0.5348 0.7839 0.0
C1665 C 0.14812 0.54064 0.82795 0.0
C1666 C 0.17436 0.53638 0.83051 0.0
C1667 C 0.21642 0.5314 0.81119 0.0
C1668 C 0.23213 0.52958 0.78939 0.0
C1669 C 0.18981 0.53397 0.80865 0.0
C1670 C 0.22088 0.52923 0.76486 0.0
C1671 C 0.19426 0.53195 0.76211 0.0
H1672 H 0.76014 0.02049 0.08025 0.0
H1673 H 0.76021 0.02499 -0.00237 0.0
H1674 H 0.77648 0.98069 0.99492 0.0
H1675 H 0.78644 0.93922 0.01657 0.0
H1676 H 0.78638 0.93603 0.09944 0.0
H1677 H 0.77451 0.98126 0.10168 0.0
C1678 C 0.76391 0.01174 0.06169 0.0
C1679 C 0.7587 0.02562 0.03918 0.0
C1680 C 0.77314 0.9865 0.0604 0.0
C1681 C 0.76411 0.01449 0.01518 0.0
C1682 C 0.77327 0.98919 0.01367 0.0
C1683 C 0.78436 0.94865 0.03503 0.0
C1684 C 0.78681 0.93424 0.0578 0.0
C1685 C 0.77732 0.97479 0.03619 0.0
C1686 C 0.78404 0.94663 0.08167 0.0
C1687 C 0.77729 0.97248 0.08298 0.0
H1688 H 0.12045 0.83875 0.90175 0.0
H1689 H 0.10849 0.76199 0.8734 0.0
H1690 H 0.08943 0.74925 0.91449 0.0
H1691 H 0.07972 0.75901 0.95917 0.0
H1692 H 0.09527 0.83456 0.98955 0.0
H1693 H 0.10877 0.84908 0.94689 0.0
C1694 C 0.11313 0.81946 0.90462 0.0
C1695 C 0.11562 0.80125 0.88487 0.0
C1696 C 0.10309 0.8121 0.92861 0.0
C1697 C 0.10659 0.77615 0.88857 0.0
C1698 C 0.09584 0.76891 0.91198 0.0
C1699 C 0.08621 0.77862 0.95659 0.0
C1700 C 0.08694 0.79551 0.97767 0.0
C1701 C 0.09464 0.78654 0.93231 0.0
C1702 C 0.09453 0.82114 0.97368 0.0
C1703 C 0.1024 0.82941 0.94931 0.0
H1704 H 0.52224 0.76956 0.15204 0.0
H1705 H 0.52255 0.84589 0.18411 0.0
H1706 H 0.51542 0.86434 0.14145 0.0
H1707 H 0.51196 0.85887 0.09505 0.0
H1708 H 0.51536 0.78264 0.06222 0.0
H1709 H 0.51725 0.76407 0.10509 0.0
C1710 C 0.52035 0.79017 0.14959 0.0
C1711 C 0.52303 0.8064 0.171 0.0
C1712 C 0.51693 0.80066 0.1249 0.0
C1713 C 0.52082 0.83312 0.16775 0.0
C1714 C 0.51671 0.84363 0.14342 0.0
C1715 C 0.5133 0.83821 0.09707 0.0
C1716 C 0.51398 0.82239 0.0751 0.0
C1717 C 0.5153 0.82761 0.1218 0.0
C1718 C 0.5148 0.79552 0.07852 0.0
C1719 C 0.51607 0.78478 0.10314 0.0
H1720 H 0.52455 0.30498 0.35632 0.0
H1721 H 0.51912 0.22239 0.36221 0.0
H1722 H 0.49809 0.22062 0.32042 0.0
H1723 H 0.47528 0.24313 0.28521 0.0
H1724 H 0.47648 0.32587 0.28249 0.0
H1725 H 0.50432 0.32713 0.3203 0.0
C1726 C 0.51884 0.28654 0.3485 0.0
C1727 C 0.52291 0.26398 0.36288 0.0
C1728 C 0.50538 0.28577 0.3252 0.0
C1729 C 0.51626 0.24018 0.35183 0.0
C1730 C 0.50388 0.23914 0.32798 0.0
C1731 C 0.48199 0.26132 0.29283 0.0
C1732 C 0.47367 0.28437 0.28148 0.0
C1733 C 0.4974 0.26189 0.31501 0.0
C1734 C 0.48232 0.30794 0.29134 0.0
C1735 C 0.49832 0.30865 0.31281 0.0
H1736 H 0.98303 0.30083 0.6593 0.0
H1737 H 0.04349 0.25117 0.68623 0.0
H1738 H 0.04945 0.23417 0.64269 0.0
H1739 H 0.03457 0.23087 0.59774 0.0
H1740 H 0.97515 0.28165 0.57054 0.0
H1741 H 0.97163 0.3011 0.61329 0.0
C1742 C -0.00224 0.28661 0.65539 0.0
C1743 C 0.01276 0.27714 0.67571 0.0
C1744 C 0.00106 0.27708 0.63039 0.0
C1745 C 0.03193 0.25883 0.6707 0.0
C1746 C 0.03517 0.24899 0.64591 0.0
C1747 C 0.02112 0.2464 0.60126 0.0
C1748 C 0.005 0.25478 0.58131 0.0
C1749 C 0.01943 0.25756 0.62575 0.0
C1750 C 0.98778 0.27508 0.58572 0.0
C1751 C 0.98569 0.28605 0.61013 0.0
loop_
_geom_bond_atom_site_label_1
_geom_bond_atom_site_label_2
_geom_bond_distance
_geom_bond_site_symmetry_2
_ccdc_geom_bond_type
C0 C1 1.351 1_455 S
C0 N3 1.368 1_455 S
C0 H5 0.931 . S
C1 C0 1.351 1_655 S
C1 N2 1.373 . S
C1 H29 0.930 . S
N2 C1 1.373 . S
N2 C4 1.340 . S
N3 C0 1.368 1_655 S
N3 C4 1.321 . S
N3 Co6 2.135 1_655 S
C4 N2 1.340 . S
C4 N3 1.321 . S
C4 H28 0.930 . S
H5 C0 0.931 . S
Co6 N3 2.135 1_455 S
Co6 N9 2.121 . S
Co6 O14 2.055 . S
Co6 O17 2.039 1_455 S
Co6 N20 2.140 . S
C7 O8 1.213 1_655 S
C7 O17 1.265 . S
O8 C7 1.213 1_455 S
N9 Co6 2.121 . S
N9 C11 1.375 . S
N9 C12 1.313 . S
C10 C11 1.338 . S
C10 N13 1.377 . S
C10 H30 0.930 . S
C11 N9 1.375 . S
C11 C10 1.338 . S
C11 H15 0.931 . S
C12 N9 1.313 . S
C12 N13 1.344 . S
C12 H16 0.930 . S
N13 C10 1.377 . S
N13 C12 1.344 . S
O14 Co6 2.055 . S
O14 C18 1.253 . S
H15 C11 0.931 . S
H16 C12 0.930 . S
O17 Co6 2.039 1_655 S
O17 C7 1.265 . S
C18 O14 1.253 . S
C18 O19 1.227 . S
O19 C18 1.227 . S
N20 Co6 2.140 . S
N20 C23 1.346 1_545 S
N20 C24 1.345 . S
C21 C22 1.387 . S
C21 C25 1.391 1_565 S
C22 C21 1.387 . S
C22 C23 1.369 . S
C22 H31 0.929 . S
C23 N20 1.346 1_565 S
C23 C22 1.369 . S
C23 H26 0.928 . S
C24 N20 1.345 . S
C24 C25 1.371 . S
C24 H27 0.931 . S
C25 C21 1.391 1_545 S
C25 C24 1.371 . S
C25 H32 0.930 . S
H26 C23 0.928 . S
H27 C24 0.931 . S
H28 C4 0.930 . S
H29 C1 0.930 . S
H30 C10 0.930 . S
H31 C22 0.929 . S
H32 C25 0.930 . S
C33 C34 1.351 . S
C33 N36 1.368 . S
C33 H38 0.931 . S
C34 C33 1.351 . S
C34 N35 1.373 . S
C34 H62 0.930 . S
N35 C34 1.373 . S
N35 C37 1.340 . S
N36 C33 1.368 . S
N36 C37 1.321 . S
N36 Co39 2.135 1_554 S
C37 N35 1.340 . S
C37 N36 1.321 . S
C37 H61 0.930 1_554 S
H38 C33 0.931 . S
Co39 N36 2.135 1_556 S
Co39 N42 2.121 . S
Co39 O47 2.055 . S
Co39 O50 2.039 . S
Co39 N53 2.140 . S
C40 O41 1.227 . S
C40 O50 1.265 . S
O41 C40 1.227 . S
N42 Co39 2.121 . S
N42 C44 1.375 . S
N42 C45 1.313 . S
C43 C44 1.338 . S
C43 N46 1.377 . S
C43 H63 0.930 . S
C44 N42 1.375 . S
C44 C43 1.338 . S
C44 H48 0.931 . S
C45 N42 1.313 . S
C45 N46 1.344 . S
C45 H49 0.930 . S
N46 C43 1.377 . S
N46 C45 1.344 . S
O47 Co39 2.055 . S
O47 C51 1.253 . S
H48 C44 0.931 . S
H49 C45 0.930 . S
O50 Co39 2.039 . S
O50 C40 1.265 . S
C51 O47 1.253 . S
C51 O52 1.227 1_556 S
O52 C51 1.227 1_554 S
N53 Co39 2.140 . S
N53 C56 1.346 . S
N53 C57 1.345 . S
C54 C55 1.385 1_554 S
C54 C58 1.391 1_554 S
C55 C54 1.385 1_556 S
C55 C56 1.379 . S
C55 H64 0.924 1_556 S
C56 N53 1.346 . S
C56 C55 1.379 . S
C56 H59 0.928 . S
C57 N53 1.345 . S
C57 C58 1.371 . S
C57 H60 0.931 . S
C58 C54 1.391 1_556 S
C58 C57 1.371 . S
C58 H65 0.930 . S
H59 C56 0.928 . S
H60 C57 0.931 . S
H61 C37 0.930 1_556 S
H62 C34 0.930 . S
H63 C43 0.930 . S
H64 C55 0.924 1_554 S
H65 C58 0.930 . S
C66 C67 1.351 . S
C66 N69 1.368 . S
C66 H71 0.931 . S
C67 C66 1.351 . S
C67 N68 1.373 . S
C67 H95 0.930 . S
N68 C67 1.373 . S
N68 C70 1.340 . S
N69 C66 1.368 . S
N69 C70 1.321 . S
N69 Co72 2.135 . S
C70 N68 1.340 . S
C70 N69 1.321 . S
C70 H94 0.930 . S
H71 C66 0.931 . S
Co72 N69 2.135 . S
Co72 N75 2.121 . S
Co72 O80 2.055 1_545 S
Co72 O83 2.039 . S
Co72 N86 2.140 . S
C73 O74 1.227 . S
C73 O83 1.265 . S
O74 C73 1.227 . S
N75 Co72 2.121 . S
N75 C77 1.375 . S
N75 C78 1.313 1_545 S
C76 C77 1.338 . S
C76 N79 1.377 1_545 S
C76 H96 0.930 . S
C77 N75 1.375 . S
C77 C76 1.338 . S
C77 H81 0.931 . S
C78 N75 1.313 1_565 S
C78 N79 1.344 . S
C78 H82 0.930 . S
N79 C76 1.377 1_565 S
N79 C78 1.344 . S
O80 Co72 2.055 1_565 S
O80 C84 1.253 . S
H81 C77 0.931 . S
H82 C78 0.930 . S
O83 Co72 2.039 . S
O83 C73 1.265 . S
C84 O80 1.253 . S
C84 O85 1.227 . S
O85 C84 1.227 . S
N86 Co72 2.140 . S
N86 C89 1.346 . S
N86 C90 1.345 . S
C87 C88 1.387 . S
C87 C91 1.391 . S
C88 C87 1.387 . S
C88 C89 1.369 . S
C88 H97 0.929 . S
C89 N86 1.346 . S
C89 C88 1.369 . S
C89 H92 0.928 . S
C90 N86 1.345 . S
C90 C91 1.371 . S
C90 H93 0.931 . S
C91 C87 1.391 . S
C91 C90 1.371 . S
C91 H98 0.930 . S
H92 C89 0.928 . S
H93 C90 0.931 . S
H94 C70 0.930 . S
H95 C67 0.930 . S
H96 C76 0.930 . S
H97 C88 0.929 . S
H98 C91 0.930 . S
C99 C100 1.351 . S
C99 N102 1.368 . S
C99 H104 0.931 . S
C100 C99 1.351 . S
C100 N101 1.373 . S
C100 H128 0.930 . S
N101 C100 1.373 . S
N101 C103 1.340 . S
N102 C99 1.368 . S
N102 C103 1.321 . S
N102 Co105 2.135 . S
C103 N101 1.340 . S
C103 N102 1.321 . S
C103 H127 0.930 . S
H104 C99 0.931 . S
Co105 N102 2.135 . S
Co105 N108 2.121 . S
Co105 O113 2.055 . S
Co105 O116 2.039 . S
Co105 N119 2.140 . S
C106 O107 1.227 . S
C106 O116 1.265 . S
O107 C106 1.227 . S
N108 Co105 2.121 . S
N108 C110 1.375 . S
N108 C111 1.313 . S
C109 C110 1.338 . S
C109 N112 1.377 . S
C109 H129 0.930 . S
C110 N108 1.375 . S
C110 C109 1.338 . S
C110 H114 0.931 . S
C111 N108 1.313 . S
C111 N112 1.344 . S
C111 H115 0.930 . S
N112 C109 1.377 . S
N112 C111 1.344 . S
O113 Co105 2.055 . S
O113 C117 1.253 . S
H114 C110 0.931 . S
H115 C111 0.930 . S
O116 Co105 2.039 . S
O116 C106 1.265 . S
C117 O113 1.253 . S
C117 O118 1.227 . S
O118 C117 1.227 . S
N119 Co105 2.140 . S
N119 C122 1.346 . S
N119 C123 1.345 . S
C120 C121 1.387 . S
C120 C124 1.391 . S
C121 C120 1.387 . S
C121 C122 1.369 . S
C121 H130 0.929 . S
C122 N119 1.346 . S
C122 C121 1.369 . S
C122 H125 0.928 . S
C123 N119 1.345 . S
C123 C124 1.371 . S
C123 H126 0.931 . S
C124 C120 1.391 . S
C124 C123 1.371 . S
C124 H131 0.930 . S
H125 C122 0.928 . S
H126 C123 0.931 . S
H127 C103 0.930 . S
H128 C100 0.930 . S
H129 C109 0.930 . S
H130 C121 0.929 . S
H131 C124 0.930 . S
C132 C133 1.351 . S
C132 N135 1.368 . S
C132 H137 0.931 . S
C133 C132 1.351 . S
C133 N134 1.373 . S
C133 H161 0.930 . S
N134 C133 1.373 . S
N134 C136 1.340 . S
N135 C132 1.368 . S
N135 C136 1.321 . S
N135 Co138 2.135 . S
C136 N134 1.340 . S
C136 N135 1.321 . S
C136 H160 0.930 . S
H137 C132 0.931 . S
Co138 N135 2.135 . S
Co138 N141 2.121 . S
Co138 O146 2.055 . S
Co138 O149 2.039 . S
Co138 N152 2.140 . S
C139 O140 1.227 . S
C139 O149 1.265 . S
O140 C139 1.227 . S
N141 Co138 2.121 . S
N141 C143 1.375 . S
N141 C144 1.313 . S
C142 C143 1.338 . S
C142 N145 1.377 . S
C142 H162 0.930 . S
C143 N141 1.375 . S
C143 C142 1.338 . S
C143 H147 0.931 . S
C144 N141 1.313 . S
C144 N145 1.344 . S
C144 H148 0.930 . S
N145 C142 1.377 . S
N145 C144 1.344 . S
O146 Co138 2.055 . S
O146 C150 1.253 . S
H147 C143 0.931 . S
H148 C144 0.930 . S
O149 Co138 2.039 . S
O149 C139 1.265 . S
C150 O146 1.253 . S
C150 O151 1.227 . S
O151 C150 1.227 . S
N152 Co138 2.140 . S
N152 C155 1.346 . S
N152 C156 1.345 . S
C153 C154 1.387 . S
C153 C157 1.391 . S
C154 C153 1.387 . S
C154 C155 1.369 . S
C154 H163 0.929 . S
C155 N152 1.346 . S
C155 C154 1.369 . S
C155 H158 0.928 . S
C156 N152 1.345 . S
C156 C157 1.371 . S
C156 H159 0.931 . S
C157 C153 1.391 . S
C157 C156 1.371 . S
C157 H164 0.930 . S
H158 C155 0.928 . S
H159 C156 0.931 . S
H160 C136 0.930 . S
H161 C133 0.930 . S
H162 C142 0.930 . S
H163 C154 0.929 . S
H164 C157 0.930 . S
C165 C166 1.351 . S
C165 N168 1.368 . S
C165 H170 0.931 . S
C166 C165 1.351 . S
C166 N167 1.373 . S
C166 H194 0.930 . S
N167 C166 1.373 . S
N167 C169 1.340 . S
N168 C165 1.368 . S
N168 C169 1.321 . S
N168 Co171 2.135 . S
C169 N167 1.340 . S
C169 N168 1.321 . S
C169 H193 0.930 . S
H170 C165 0.931 . S
Co171 N168 2.135 . S
Co171 N174 2.121 . S
Co171 O179 2.055 . S
Co171 O182 2.039 . S
Co171 N185 2.140 . S
C172 O173 1.227 . S
C172 O182 1.265 . S
O173 C172 1.227 . S
N174 Co171 2.121 . S
N174 C176 1.375 . S
N174 C177 1.313 . S
C175 C176 1.338 . S
C175 N178 1.377 . S
C175 H195 0.930 . S
C176 N174 1.375 . S
C176 C175 1.338 . S
C176 H180 0.931 . S
C177 N174 1.313 . S
C177 N178 1.344 . S
C177 H181 0.930 . S
N178 C175 1.377 . S
N178 C177 1.344 . S
O179 Co171 2.055 . S
O179 C183 1.253 . S
H180 C176 0.931 . S
H181 C177 0.930 . S
O182 Co171 2.039 . S
O182 C172 1.265 . S
C183 O179 1.253 . S
C183 O184 1.227 . S
O184 C183 1.227 . S
N185 Co171 2.140 . S
N185 C188 1.346 . S
N185 C189 1.345 . S
C186 C187 1.387 . S
C186 C190 1.391 . S
C187 C186 1.387 . S
C187 C188 1.369 . S
C187 H196 0.929 . S
C188 N185 1.346 . S
C188 C187 1.369 . S
C188 H191 0.928 . S
C189 N185 1.345 . S
C189 C190 1.371 . S
C189 H192 0.931 . S
C190 C186 1.391 . S
C190 C189 1.371 . S
C190 H197 0.930 . S
H191 C188 0.928 . S
H192 C189 0.931 . S
H193 C169 0.930 . S
H194 C166 0.930 . S
H195 C175 0.930 . S
H196 C187 0.929 . S
H197 C190 0.930 . S
C198 C199 1.351 . S
C198 N201 1.368 . S
C198 H203 0.931 . S
C199 C198 1.351 . S
C199 N200 1.373 . S
C199 H227 0.930 . S
N200 C199 1.373 . S
N200 C202 1.340 . S
N201 C198 1.368 . S
N201 C202 1.321 . S
N201 Co204 2.135 . S
C202 N200 1.340 . S
C202 N201 1.321 . S
C202 H226 0.930 . S
H203 C198 0.931 . S
Co204 N201 2.135 . S
Co204 N207 2.121 . S
Co204 O212 2.055 . S
Co204 O215 2.039 . S
Co204 N218 2.140 . S
C205 O206 1.227 . S
C205 O215 1.265 . S
O206 C205 1.227 . S
N207 Co204 2.121 . S
N207 C209 1.375 . S
N207 C210 1.313 . S
C208 C209 1.338 1_655 S
C208 N211 1.377 . S
C208 H228 0.930 . S
C209 N207 1.375 . S
C209 C208 1.338 1_455 S
C209 H213 0.931 . S
C210 N207 1.313 . S
C210 N211 1.344 1_455 S
C210 H214 0.935 . S
N211 C208 1.377 . S
N211 C210 1.344 1_655 S
O212 Co204 2.055 . S
O212 C216 1.253 . S
H213 C209 0.931 . S
H214 C210 0.935 . S
O215 Co204 2.039 . S
O215 C205 1.265 . S
C216 O212 1.253 . S
C216 O217 1.227 . S
O217 C216 1.227 . S
N218 Co204 2.140 . S
N218 C221 1.346 . S
N218 C222 1.381 . S
C219 C220 1.387 1_655 S
C219 C223 1.391 . S
C220 C219 1.387 1_455 S
C220 C221 1.369 . S
C220 H229 0.929 . S
C221 N218 1.346 . S
C221 C220 1.369 . S
C221 H224 0.928 . S
C222 N218 1.381 . S
C222 C223 1.352 1_455 S
C222 H225 0.914 1_455 S
C223 C219 1.391 . S
C223 C222 1.352 1_655 S
C223 H230 0.930 . S
H224 C221 0.928 . S
H225 C222 0.914 1_655 S
H226 C202 0.930 . S
H227 C199 0.930 . S
H228 C208 0.930 . S
H229 C220 0.929 . S
H230 C223 0.930 . S
C231 C232 1.351 . S
C231 N234 1.368 . S
C231 H236 0.931 . S
C232 C231 1.351 . S
C232 N233 1.373 . S
C232 H260 0.930 . S
N233 C232 1.373 . S
N233 C235 1.340 . S
N234 C231 1.368 . S
N234 C235 1.321 . S
N234 Co237 2.135 . S
C235 N233 1.340 . S
C235 N234 1.321 . S
C235 H259 0.930 . S
H236 C231 0.931 . S
Co237 N234 2.135 . S
Co237 N240 2.121 . S
Co237 O245 2.055 . S
Co237 O248 2.039 . S
Co237 N251 2.140 . S
C238 O239 1.227 . S
C238 O248 1.265 . S
O239 C238 1.227 . S
N240 Co237 2.121 . S
N240 C242 1.375 . S
N240 C243 1.313 . S
C241 C242 1.338 . S
C241 N244 1.377 . S
C241 H261 0.930 . S
C242 N240 1.375 . S
C242 C241 1.338 . S
C242 H246 0.931 . S
C243 N240 1.313 . S
C243 N244 1.344 . S
C243 H247 0.930 . S
N244 C241 1.377 . S
N244 C243 1.344 . S
O245 Co237 2.055 . S
O245 C249 1.253 . S
H246 C242 0.931 . S
H247 C243 0.930 . S
O248 Co237 2.039 . S
O248 C238 1.265 . S
C249 O245 1.253 . S
C249 O250 1.227 . S
O250 C249 1.227 . S
N251 Co237 2.140 . S
N251 C254 1.346 . S
N251 C255 1.345 . S
C252 C253 1.387 . S
C252 C256 1.391 . S
C253 C252 1.387 . S
C253 C254 1.369 . S
C253 H262 0.929 . S
C254 N251 1.346 . S
C254 C253 1.369 . S
C254 H257 0.928 . S
C255 N251 1.345 . S
C255 C256 1.371 . S
C255 H258 0.931 . S
C256 C252 1.391 . S
C256 C255 1.371 . S
C256 H263 0.930 . S
H257 C254 0.928 . S
H258 C255 0.931 . S
H259 C235 0.930 . S
H260 C232 0.930 . S
H261 C241 0.930 . S
H262 C253 0.929 . S
H263 C256 0.930 . S
C264 C265 1.351 1_545 S
C264 N267 1.368 1_545 S
C264 H269 0.931 . S
C265 C264 1.351 1_565 S
C265 N266 1.373 . S
C265 H293 0.930 . S
N266 C265 1.373 . S
N266 C268 1.340 . S
N267 C264 1.368 1_565 S
N267 C268 1.321 . S
N267 Co270 2.135 1_565 S
C268 N266 1.340 . S
C268 N267 1.321 . S
C268 H292 0.930 . S
H269 C264 0.931 . S
Co270 N267 2.135 1_545 S
Co270 N273 2.121 . S
Co270 O278 2.055 . S
Co270 O281 2.039 1_545 S
Co270 N284 2.140 . S
C271 O272 1.213 1_565 S
C271 O281 1.265 . S
O272 C271 1.213 1_545 S
N273 Co270 2.121 . S
N273 C275 1.375 . S
N273 C276 1.313 . S
C274 C275 1.338 . S
C274 N277 1.377 . S
C274 H294 0.930 . S
C275 N273 1.375 . S
C275 C274 1.338 . S
C275 H279 0.931 . S
C276 N273 1.313 . S
C276 N277 1.344 . S
C276 H280 0.930 . S
N277 C274 1.377 . S
N277 C276 1.344 . S
O278 Co270 2.055 . S
O278 C282 1.253 . S
H279 C275 0.931 . S
H280 C276 0.930 . S
O281 Co270 2.039 1_565 S
O281 C271 1.265 . S
C282 O278 1.253 . S
C282 O283 1.227 . S
O283 C282 1.227 . S
N284 Co270 2.140 . S
N284 C287 1.346 1_554 S
N284 C288 1.345 . S
C285 C286 1.387 . S
C285 C289 1.391 1_556 S
C286 C285 1.387 . S
C286 C287 1.369 . S
C286 H295 0.929 . S
C287 N284 1.346 1_556 S
C287 C286 1.369 . S
C287 H290 0.928 . S
C288 N284 1.345 . S
C288 C289 1.371 . S
C288 H291 0.931 . S
C289 C285 1.391 1_554 S
C289 C288 1.371 . S
C289 H296 0.930 . S
H290 C287 0.928 . S
H291 C288 0.931 . S
H292 C268 0.930 . S
H293 C265 0.930 . S
H294 C274 0.930 . S
H295 C286 0.929 . S
H296 C289 0.930 . S
C297 C298 1.351 . S
C297 N300 1.368 . S
C297 H302 0.931 . S
C298 C297 1.351 . S
C298 N299 1.373 . S
C298 H326 0.930 . S
N299 C298 1.373 . S
N299 C301 1.340 . S
N300 C297 1.368 . S
N300 C301 1.321 . S
N300 Co303 2.135 . S
C301 N299 1.340 . S
C301 N300 1.321 . S
C301 H325 0.930 . S
H302 C297 0.931 . S
Co303 N300 2.135 . S
Co303 N306 2.121 . S
Co303 O311 2.055 . S
Co303 O314 2.039 . S
Co303 N317 2.140 . S
C304 O305 1.227 . S
C304 O314 1.265 . S
O305 C304 1.227 . S
N306 Co303 2.121 . S
N306 C308 1.375 . S
N306 C309 1.313 . S
C307 C308 1.338 . S
C307 N310 1.377 . S
C307 H327 0.930 . S
C308 N306 1.375 . S
C308 C307 1.338 . S
C308 H312 0.931 . S
C309 N306 1.313 . S
C309 N310 1.344 . S
C309 H313 0.930 . S
N310 C307 1.377 . S
N310 C309 1.344 . S
O311 Co303 2.055 . S
O311 C315 1.253 . S
H312 C308 0.931 . S
H313 C309 0.930 . S
O314 Co303 2.039 . S
O314 C304 1.265 . S
C315 O311 1.253 . S
C315 O316 1.227 . S
O316 C315 1.227 . S
N317 Co303 2.140 . S
N317 C320 1.346 . S
N317 C321 1.345 . S
C318 C319 1.387 . S
C318 C322 1.391 . S
C319 C318 1.387 . S
C319 C320 1.369 . S
C319 H328 0.929 . S
C320 N317 1.346 . S
C320 C319 1.369 . S
C320 H323 0.928 . S
C321 N317 1.345 . S
C321 C322 1.371 . S
C321 H324 0.931 . S
C322 C318 1.391 . S
C322 C321 1.371 . S
C322 H329 0.930 . S
H323 C320 0.928 . S
H324 C321 0.931 . S
H325 C301 0.930 . S
H326 C298 0.930 . S
H327 C307 0.930 . S
H328 C319 0.929 . S
H329 C322 0.930 . S
C330 C331 1.351 . S
C330 N333 1.368 . S
C330 H335 0.931 . S
C331 C330 1.351 . S
C331 N332 1.373 . S
C331 H359 0.930 . S
N332 C331 1.373 . S
N332 C334 1.340 . S
N333 C330 1.368 . S
N333 C334 1.321 . S
N333 Co336 2.135 . S
C334 N332 1.340 . S
C334 N333 1.321 . S
C334 H358 0.930 . S
H335 C330 0.931 . S
Co336 N333 2.135 . S
Co336 N339 2.121 . S
Co336 O344 2.055 . S
Co336 O347 2.039 . S
Co336 N350 2.140 . S
C337 O338 1.227 . S
C337 O347 1.265 . S
O338 C337 1.227 . S
N339 Co336 2.121 . S
N339 C341 1.375 . S
N339 C342 1.313 . S
C340 C341 1.338 1_565 S
C340 N343 1.377 . S
C340 H360 0.930 . S
C341 N339 1.375 . S
C341 C340 1.338 1_545 S
C341 H345 0.931 . S
C342 N339 1.313 . S
C342 N343 1.344 1_545 S
C342 H346 0.935 . S
N343 C340 1.377 . S
N343 C342 1.344 1_565 S
O344 Co336 2.055 . S
O344 C348 1.253 . S
H345 C341 0.931 . S
H346 C342 0.935 . S
O347 Co336 2.039 . S
O347 C337 1.265 . S
C348 O344 1.253 . S
C348 O349 1.227 . S
O349 C348 1.227 . S
N350 Co336 2.140 . S
N350 C353 1.346 . S
N350 C354 1.381 . S
C351 C352 1.387 1_565 S
C351 C355 1.391 . S
C352 C351 1.387 1_545 S
C352 C353 1.369 . S
C352 H361 0.929 . S
C353 N350 1.346 . S
C353 C352 1.369 . S
C353 H356 0.928 . S
C354 N350 1.381 . S
C354 C355 1.352 1_545 S
C354 H357 0.914 1_545 S
C355 C351 1.391 . S
C355 C354 1.352 1_565 S
C355 H362 0.930 . S
H356 C353 0.928 . S
H357 C354 0.914 1_565 S
H358 C334 0.930 . S
H359 C331 0.930 . S
H360 C340 0.930 . S
H361 C352 0.929 . S
H362 C355 0.930 . S
C363 C364 1.351 . S
C363 N366 1.368 . S
C363 H368 0.931 . S
C364 C363 1.351 . S
C364 N365 1.373 . S
C364 H392 0.930 . S
N365 C364 1.373 . S
N365 C367 1.340 . S
N366 C363 1.368 . S
N366 C367 1.321 . S
N366 Co369 2.135 . S
C367 N365 1.340 . S
C367 N366 1.321 . S
C367 H391 0.930 . S
H368 C363 0.931 . S
Co369 N366 2.135 . S
Co369 N372 2.121 . S
Co369 O377 2.055 . S
Co369 O380 2.039 . S
Co369 N383 2.140 . S
C370 O371 1.227 . S
C370 O380 1.265 . S
O371 C370 1.227 . S
N372 Co369 2.121 . S
N372 C374 1.375 . S
N372 C375 1.313 . S
C373 C374 1.338 . S
C373 N376 1.377 . S
C373 H393 0.930 . S
C374 N372 1.375 . S
C374 C373 1.338 . S
C374 H378 0.931 . S
C375 N372 1.313 . S
C375 N376 1.344 . S
C375 H379 0.930 . S
N376 C373 1.377 . S
N376 C375 1.344 . S
O377 Co369 2.055 . S
O377 C381 1.253 . S
H378 C374 0.931 . S
H379 C375 0.930 . S
O380 Co369 2.039 . S
O380 C370 1.265 . S
C381 O377 1.253 . S
C381 O382 1.227 . S
O382 C381 1.227 . S
N383 Co369 2.140 . S
N383 C386 1.346 . S
N383 C387 1.345 . S
C384 C385 1.387 . S
C384 C388 1.391 . S
C385 C384 1.387 . S
C385 C386 1.369 . S
C385 H394 0.929 . S
C386 N383 1.346 . S
C386 C385 1.369 . S
C386 H389 0.928 . S
C387 N383 1.345 . S
C387 C388 1.371 . S
C387 H390 0.931 . S
C388 C384 1.391 . S
C388 C387 1.371 . S
C388 H395 0.930 . S
H389 C386 0.928 . S
H390 C387 0.931 . S
H391 C367 0.930 . S
H392 C364 0.930 . S
H393 C373 0.930 . S
H394 C385 0.929 . S
H395 C388 0.930 . S
C396 C397 1.351 . S
C396 N399 1.368 . S
C396 H401 0.931 . S
C397 C396 1.351 . S
C397 N398 1.373 . S
C397 H425 0.930 . S
N398 C397 1.373 . S
N398 C400 1.340 . S
N399 C396 1.368 . S
N399 C400 1.321 . S
N399 Co402 2.135 . S
C400 N398 1.340 . S
C400 N399 1.321 . S
C400 H424 0.930 . S
H401 C396 0.931 . S
Co402 N399 2.135 . S
Co402 N405 2.121 . S
Co402 O410 2.055 1_554 S
Co402 O413 2.039 . S
Co402 N416 2.140 . S
C403 O404 1.227 . S
C403 O413 1.265 . S
O404 C403 1.227 . S
N405 Co402 2.121 . S
N405 C407 1.375 . S
N405 C408 1.313 1_554 S
C406 C407 1.338 . S
C406 N409 1.377 1_554 S
C406 H426 0.930 . S
C407 N405 1.375 . S
C407 C406 1.338 . S
C407 H411 0.931 . S
C408 N405 1.313 1_556 S
C408 N409 1.344 . S
C408 H412 0.930 . S
N409 C406 1.377 1_556 S
N409 C408 1.344 . S
O410 Co402 2.055 1_556 S
O410 C414 1.253 . S
H411 C407 0.931 . S
H412 C408 0.930 . S
O413 Co402 2.039 . S
O413 C403 1.265 . S
C414 O410 1.253 . S
C414 O415 1.227 . S
O415 C414 1.227 . S
N416 Co402 2.140 . S
N416 C419 1.346 . S
N416 C420 1.345 . S
C417 C418 1.387 . S
C417 C421 1.391 . S
C418 C417 1.387 . S
C418 C419 1.369 . S
C418 H427 0.929 . S
C419 N416 1.346 . S
C419 C418 1.369 . S
C419 H422 0.928 . S
C420 N416 1.345 . S
C420 C421 1.371 . S
C420 H423 0.931 . S
C421 C417 1.391 . S
C421 C420 1.371 . S
C421 H428 0.930 . S
H422 C419 0.928 . S
H423 C420 0.931 . S
H424 C400 0.930 . S
H425 C397 0.930 . S
H426 C406 0.930 . S
H427 C418 0.929 . S
H428 C421 0.930 . S
C429 C430 1.351 . S
C429 N432 1.368 . S
C429 H434 0.931 . S
C430 C429 1.351 . S
C430 N431 1.373 . S
C430 H458 0.930 . S
N431 C430 1.373 . S
N431 C433 1.340 . S
N432 C429 1.368 . S
N432 C433 1.321 . S
N432 Co435 2.135 1_545 S
C433 N431 1.340 . S
C433 N432 1.321 . S
C433 H457 0.930 1_545 S
H434 C429 0.931 . S
Co435 N432 2.135 1_565 S
Co435 N438 2.121 . S
Co435 O443 2.055 . S
Co435 O446 2.039 . S
Co435 N449 2.140 . S
C436 O437 1.227 . S
C436 O446 1.265 . S
O437 C436 1.227 . S
N438 Co435 2.121 . S
N438 C440 1.375 . S
N438 C441 1.313 . S
C439 C440 1.338 . S
C439 N442 1.377 . S
C439 H459 0.930 . S
C440 N438 1.375 . S
C440 C439 1.338 . S
C440 H444 0.931 . S
C441 N438 1.313 . S
C441 N442 1.344 . S
C441 H445 0.930 . S
N442 C439 1.377 . S
N442 C441 1.344 . S
O443 Co435 2.055 . S
O443 C447 1.253 . S
H444 C440 0.931 . S
H445 C441 0.930 . S
O446 Co435 2.039 . S
O446 C436 1.265 . S
C447 O443 1.253 . S
C447 O448 1.227 1_565 S
O448 C447 1.227 1_545 S
N449 Co435 2.140 . S
N449 C452 1.346 . S
N449 C453 1.345 . S
C450 C451 1.385 1_545 S
C450 C454 1.391 1_545 S
C451 C450 1.385 1_565 S
C451 C452 1.379 . S
C451 H460 0.924 1_565 S
C452 N449 1.346 . S
C452 C451 1.379 . S
C452 H455 0.928 . S
C453 N449 1.345 . S
C453 C454 1.371 . S
C453 H456 0.931 . S
C454 C450 1.391 1_565 S
C454 C453 1.371 . S
C454 H461 0.930 . S
H455 C452 0.928 . S
H456 C453 0.931 . S
H457 C433 0.930 1_565 S
H458 C430 0.930 . S
H459 C439 0.930 . S
H460 C451 0.924 1_545 S
H461 C454 0.930 . S
C462 C463 1.351 . S
C462 N465 1.368 . S
C462 H467 0.931 . S
C463 C462 1.351 . S
C463 N464 1.373 . S
C463 H491 0.930 . S
N464 C463 1.373 . S
N464 C466 1.340 . S
N465 C462 1.368 . S
N465 C466 1.321 . S
N465 Co468 2.135 . S
C466 N464 1.340 . S
C466 N465 1.321 . S
C466 H490 0.930 . S
H467 C462 0.931 . S
Co468 N465 2.135 . S
Co468 N471 2.121 . S
Co468 O476 2.055 . S
Co468 O479 2.039 . S
Co468 N482 2.140 . S
C469 O470 1.227 . S
C469 O479 1.265 . S
O470 C469 1.227 . S
N471 Co468 2.121 . S
N471 C473 1.375 . S
N471 C474 1.313 . S
C472 C473 1.338 . S
C472 N475 1.377 . S
C472 H492 0.930 . S
C473 N471 1.375 . S
C473 C472 1.338 . S
C473 H477 0.931 . S
C474 N471 1.313 . S
C474 N475 1.344 . S
C474 H478 0.930 . S
N475 C472 1.377 . S
N475 C474 1.344 . S
O476 Co468 2.055 . S
O476 C480 1.253 . S
H477 C473 0.931 . S
H478 C474 0.930 . S
O479 Co468 2.039 . S
O479 C469 1.265 . S
C480 O476 1.253 . S
C480 O481 1.227 . S
O481 C480 1.227 . S
N482 Co468 2.140 . S
N482 C485 1.346 . S
N482 C486 1.345 . S
C483 C484 1.387 . S
C483 C487 1.391 . S
C484 C483 1.387 . S
C484 C485 1.369 . S
C484 H493 0.929 . S
C485 N482 1.346 . S
C485 C484 1.369 . S
C485 H488 0.928 . S
C486 N482 1.345 . S
C486 C487 1.371 . S
C486 H489 0.931 . S
C487 C483 1.391 . S
C487 C486 1.371 . S
C487 H494 0.930 . S
H488 C485 0.928 . S
H489 C486 0.931 . S
H490 C466 0.930 . S
H491 C463 0.930 . S
H492 C472 0.930 . S
H493 C484 0.929 . S
H494 C487 0.930 . S
C495 C496 1.351 . S
C495 N498 1.368 . S
C495 H500 0.931 . S
C496 C495 1.351 . S
C496 N497 1.373 . S
C496 H524 0.930 . S
N497 C496 1.373 . S
N497 C499 1.340 . S
N498 C495 1.368 . S
N498 C499 1.321 . S
N498 Co501 2.135 . S
C499 N497 1.340 . S
C499 N498 1.321 . S
C499 H523 0.930 . S
H500 C495 0.931 . S
Co501 N498 2.135 . S
Co501 N504 2.121 . S
Co501 O509 2.055 . S
Co501 O512 2.039 . S
Co501 N515 2.140 . S
C502 O503 1.227 . S
C502 O512 1.265 . S
O503 C502 1.227 . S
N504 Co501 2.121 . S
N504 C506 1.375 . S
N504 C507 1.313 . S
C505 C506 1.338 . S
C505 N508 1.377 . S
C505 H525 0.930 . S
C506 N504 1.375 . S
C506 C505 1.338 . S
C506 H510 0.931 . S
C507 N504 1.313 . S
C507 N508 1.344 . S
C507 H511 0.930 . S
N508 C505 1.377 . S
N508 C507 1.344 . S
O509 Co501 2.055 . S
O509 C513 1.253 . S
H510 C506 0.931 . S
H511 C507 0.930 . S
O512 Co501 2.039 . S
O512 C502 1.265 . S
C513 O509 1.253 . S
C513 O514 1.227 . S
O514 C513 1.227 . S
N515 Co501 2.140 . S
N515 C518 1.346 . S
N515 C519 1.345 . S
C516 C517 1.387 . S
C516 C520 1.391 . S
C517 C516 1.387 . S
C517 C518 1.369 . S
C517 H526 0.929 . S
C518 N515 1.346 . S
C518 C517 1.369 . S
C518 H521 0.928 . S
C519 N515 1.345 . S
C519 C520 1.371 . S
C519 H522 0.931 . S
C520 C516 1.391 . S
C520 C519 1.371 . S
C520 H527 0.930 . S
H521 C518 0.928 . S
H522 C519 0.931 . S
H523 C499 0.930 . S
H524 C496 0.930 . S
H525 C505 0.930 . S
H526 C517 0.929 . S
H527 C520 0.930 . S
C528 C529 1.351 1_554 S
C528 N531 1.368 1_554 S
C528 H533 0.931 . S
C529 C528 1.351 1_556 S
C529 N530 1.373 . S
C529 H557 0.930 . S
N530 C529 1.373 . S
N530 C532 1.340 . S
N531 C528 1.368 1_556 S
N531 C532 1.321 . S
N531 Co534 2.135 1_556 S
C532 N530 1.340 . S
C532 N531 1.321 . S
C532 H556 0.930 . S
H533 C528 0.931 . S
Co534 N531 2.135 1_554 S
Co534 N537 2.121 . S
Co534 O542 2.055 . S
Co534 O545 2.039 1_554 S
Co534 N548 2.140 . S
C535 O536 1.213 1_556 S
C535 O545 1.265 . S
O536 C535 1.213 1_554 S
N537 Co534 2.121 . S
N537 C539 1.375 . S
N537 C540 1.313 . S
C538 C539 1.338 . S
C538 N541 1.377 . S
C538 H558 0.930 . S
C539 N537 1.375 . S
C539 C538 1.338 . S
C539 H543 0.931 . S
C540 N537 1.313 . S
C540 N541 1.344 . S
C540 H544 0.930 . S
N541 C538 1.377 . S
N541 C540 1.344 . S
O542 Co534 2.055 . S
O542 C546 1.253 . S
H543 C539 0.931 . S
H544 C540 0.930 . S
O545 Co534 2.039 1_556 S
O545 C535 1.265 . S
C546 O542 1.253 . S
C546 O547 1.227 . S
O547 C546 1.227 . S
N548 Co534 2.140 . S
N548 C551 1.346 1_455 S
N548 C552 1.345 . S
C549 C550 1.387 . S
C549 C553 1.391 1_655 S
C550 C549 1.387 . S
C550 C551 1.369 . S
C550 H559 0.929 . S
C551 N548 1.346 1_655 S
C551 C550 1.369 . S
C551 H554 0.928 . S
C552 N548 1.345 . S
C552 C553 1.371 . S
C552 H555 0.931 . S
C553 C549 1.391 1_455 S
C553 C552 1.371 . S
C553 H560 0.930 . S
H554 C551 0.928 . S
H555 C552 0.931 . S
H556 C532 0.930 . S
H557 C529 0.930 . S
H558 C538 0.930 . S
H559 C550 0.929 . S
H560 C553 0.930 . S
C561 C562 1.351 . S
C561 N564 1.368 . S
C561 H566 0.931 . S
C562 C561 1.351 . S
C562 N563 1.373 . S
C562 H590 0.930 . S
N563 C562 1.373 . S
N563 C565 1.340 . S
N564 C561 1.368 . S
N564 C565 1.321 . S
N564 Co567 2.135 . S
C565 N563 1.340 . S
C565 N564 1.321 . S
C565 H589 0.930 . S
H566 C561 0.931 . S
Co567 N564 2.135 . S
Co567 N570 2.121 . S
Co567 O575 2.055 . S
Co567 O578 2.039 . S
Co567 N581 2.140 . S
C568 O569 1.227 . S
C568 O578 1.265 . S
O569 C568 1.227 . S
N570 Co567 2.121 . S
N570 C572 1.375 . S
N570 C573 1.313 . S
C571 C572 1.338 1_556 S
C571 N574 1.377 . S
C571 H591 0.930 . S
C572 N570 1.375 . S
C572 C571 1.338 1_554 S
C572 H576 0.931 . S
C573 N570 1.313 . S
C573 N574 1.344 1_554 S
C573 H577 0.935 . S
N574 C571 1.377 . S
N574 C573 1.344 1_556 S
O575 Co567 2.055 . S
O575 C579 1.253 . S
H576 C572 0.931 . S
H577 C573 0.935 . S
O578 Co567 2.039 . S
O578 C568 1.265 . S
C579 O575 1.253 . S
C579 O580 1.227 . S
O580 C579 1.227 . S
N581 Co567 2.140 . S
N581 C584 1.346 . S
N581 C585 1.381 . S
C582 C583 1.387 1_556 S
C582 C586 1.391 . S
C583 C582 1.387 1_554 S
C583 C584 1.369 . S
C583 H592 0.929 . S
C584 N581 1.346 . S
C584 C583 1.369 . S
C584 H587 0.928 . S
C585 N581 1.381 . S
C585 C586 1.352 1_554 S
C585 H588 0.914 1_554 S
C586 C582 1.391 . S
C586 C585 1.352 1_556 S
C586 H593 0.930 . S
H587 C584 0.928 . S
H588 C585 0.914 1_556 S
H589 C565 0.930 . S
H590 C562 0.930 . S
H591 C571 0.930 . S
H592 C583 0.929 . S
H593 C586 0.930 . S
C594 C595 1.351 . S
C594 N597 1.368 . S
C594 H599 0.931 . S
C595 C594 1.351 . S
C595 N596 1.373 . S
C595 H623 0.930 . S
N596 C595 1.373 . S
N596 C598 1.340 . S
N597 C594 1.368 . S
N597 C598 1.321 . S
N597 Co600 2.135 . S
C598 N596 1.340 . S
C598 N597 1.321 . S
C598 H622 0.930 . S
H599 C594 0.931 . S
Co600 N597 2.135 . S
Co600 N603 2.121 . S
Co600 O608 2.055 . S
Co600 O611 2.039 . S
Co600 N614 2.140 . S
C601 O602 1.227 . S
C601 O611 1.265 . S
O602 C601 1.227 . S
N603 Co600 2.121 . S
N603 C605 1.375 . S
N603 C606 1.313 . S
C604 C605 1.338 . S
C604 N607 1.377 . S
C604 H624 0.930 . S
C605 N603 1.375 . S
C605 C604 1.338 . S
C605 H609 0.931 . S
C606 N603 1.313 . S
C606 N607 1.344 . S
C606 H610 0.930 . S
N607 C604 1.377 . S
N607 C606 1.344 . S
O608 Co600 2.055 . S
O608 C612 1.253 . S
H609 C605 0.931 . S
H610 C606 0.930 . S
O611 Co600 2.039 . S
O611 C601 1.265 . S
C612 O608 1.253 . S
C612 O613 1.227 . S
O613 C612 1.227 . S
N614 Co600 2.140 . S
N614 C617 1.346 . S
N614 C618 1.345 . S
C615 C616 1.387 . S
C615 C619 1.391 . S
C616 C615 1.387 . S
C616 C617 1.369 . S
C616 H625 0.929 . S
C617 N614 1.346 . S
C617 C616 1.369 . S
C617 H620 0.928 . S
C618 N614 1.345 . S
C618 C619 1.371 . S
C618 H621 0.931 . S
C619 C615 1.391 . S
C619 C618 1.371 . S
C619 H626 0.930 . S
H620 C617 0.928 . S
H621 C618 0.931 . S
H622 C598 0.930 . S
H623 C595 0.930 . S
H624 C604 0.930 . S
H625 C616 0.929 . S
H626 C619 0.930 . S
C627 C628 1.351 . S
C627 N630 1.368 . S
C627 H632 0.931 . S
C628 C627 1.351 . S
C628 N629 1.373 . S
C628 H656 0.930 . S
N629 C628 1.373 . S
N629 C631 1.340 . S
N630 C627 1.368 . S
N630 C631 1.321 . S
N630 Co633 2.135 . S
C631 N629 1.340 . S
C631 N630 1.321 . S
C631 H655 0.930 . S
H632 C627 0.931 . S
Co633 N630 2.135 . S
Co633 N636 2.121 . S
Co633 O641 2.055 1_455 S
Co633 O644 2.039 . S
Co633 N647 2.140 . S
C634 O635 1.227 . S
C634 O644 1.265 . S
O635 C634 1.227 . S
N636 Co633 2.121 . S
N636 C638 1.375 . S
N636 C639 1.313 1_455 S
C637 C638 1.338 . S
C637 N640 1.377 1_455 S
C637 H657 0.930 . S
C638 N636 1.375 . S
C638 C637 1.338 . S
C638 H642 0.931 . S
C639 N636 1.313 1_655 S
C639 N640 1.344 . S
C639 H643 0.930 . S
N640 C637 1.377 1_655 S
N640 C639 1.344 . S
O641 Co633 2.055 1_655 S
O641 C645 1.253 . S
H642 C638 0.931 . S
H643 C639 0.930 . S
O644 Co633 2.039 . S
O644 C634 1.265 . S
C645 O641 1.253 . S
C645 O646 1.227 . S
O646 C645 1.227 . S
N647 Co633 2.140 . S
N647 C650 1.346 . S
N647 C651 1.345 . S
C648 C649 1.387 . S
C648 C652 1.391 . S
C649 C648 1.387 . S
C649 C650 1.369 . S
C649 H658 0.929 . S
C650 N647 1.346 . S
C650 C649 1.369 . S
C650 H653 0.928 . S
C651 N647 1.345 . S
C651 C652 1.371 . S
C651 H654 0.931 . S
C652 C648 1.391 . S
C652 C651 1.371 . S
C652 H659 0.930 . S
H653 C650 0.928 . S
H654 C651 0.931 . S
H655 C631 0.930 . S
H656 C628 0.930 . S
H657 C637 0.930 . S
H658 C649 0.929 . S
H659 C652 0.930 . S
C660 C661 1.351 . S
C660 N663 1.368 . S
C660 H665 0.931 . S
C661 C660 1.351 . S
C661 N662 1.373 . S
C661 H689 0.930 . S
N662 C661 1.373 . S
N662 C664 1.340 . S
N663 C660 1.368 . S
N663 C664 1.321 . S
N663 Co666 2.135 . S
C664 N662 1.340 . S
C664 N663 1.321 . S
C664 H688 0.930 . S
H665 C660 0.931 . S
Co666 N663 2.135 . S
Co666 N669 2.121 . S
Co666 O674 2.055 . S
Co666 O677 2.039 . S
Co666 N680 2.140 . S
C667 O668 1.227 . S
C667 O677 1.265 . S
O668 C667 1.227 . S
N669 Co666 2.121 . S
N669 C671 1.375 . S
N669 C672 1.313 . S
C670 C671 1.338 . S
C670 N673 1.377 . S
C670 H690 0.930 . S
C671 N669 1.375 . S
C671 C670 1.338 . S
C671 H675 0.931 . S
C672 N669 1.313 . S
C672 N673 1.344 . S
C672 H676 0.930 . S
N673 C670 1.377 . S
N673 C672 1.344 . S
O674 Co666 2.055 . S
O674 C678 1.253 . S
H675 C671 0.931 . S
H676 C672 0.930 . S
O677 Co666 2.039 . S
O677 C667 1.265 . S
C678 O674 1.253 . S
C678 O679 1.227 . S
O679 C678 1.227 . S
N680 Co666 2.140 . S
N680 C683 1.346 . S
N680 C684 1.345 . S
C681 C682 1.387 . S
C681 C685 1.391 . S
C682 C681 1.387 . S
C682 C683 1.369 . S
C682 H691 0.929 . S
C683 N680 1.346 . S
C683 C682 1.369 . S
C683 H686 0.928 . S
C684 N680 1.345 . S
C684 C685 1.371 . S
C684 H687 0.931 . S
C685 C681 1.391 . S
C685 C684 1.371 . S
C685 H692 0.930 . S
H686 C683 0.928 . S
H687 C684 0.931 . S
H688 C664 0.930 . S
H689 C661 0.930 . S
H690 C670 0.930 . S
H691 C682 0.929 . S
H692 C685 0.930 . S
C693 C694 1.351 . S
C693 N696 1.368 . S
C693 H698 0.931 . S
C694 C693 1.351 . S
C694 N695 1.373 . S
C694 H722 0.930 . S
N695 C694 1.373 . S
N695 C697 1.340 . S
N696 C693 1.368 . S
N696 C697 1.321 . S
N696 Co699 2.135 . S
C697 N695 1.340 . S
C697 N696 1.321 . S
C697 H721 0.930 . S
H698 C693 0.931 . S
Co699 N696 2.135 . S
Co699 N702 2.121 . S
Co699 O707 2.055 . S
Co699 O710 2.039 . S
Co699 N713 2.140 . S
C700 O701 1.227 . S
C700 O710 1.265 . S
O701 C700 1.227 . S
N702 Co699 2.121 . S
N702 C704 1.375 . S
N702 C705 1.313 . S
C703 C704 1.338 . S
C703 N706 1.377 . S
C703 H723 0.930 . S
C704 N702 1.375 . S
C704 C703 1.338 . S
C704 H708 0.931 . S
C705 N702 1.313 . S
C705 N706 1.344 . S
C705 H709 0.930 . S
N706 C703 1.377 . S
N706 C705 1.344 . S
O707 Co699 2.055 . S
O707 C711 1.253 . S
H708 C704 0.931 . S
H709 C705 0.930 . S
O710 Co699 2.039 . S
O710 C700 1.265 . S
C711 O707 1.253 . S
C711 O712 1.227 . S
O712 C711 1.227 . S
N713 Co699 2.140 . S
N713 C716 1.346 . S
N713 C717 1.345 . S
C714 C715 1.387 . S
C714 C718 1.391 . S
C715 C714 1.387 . S
C715 C716 1.369 . S
C715 H724 0.929 . S
C716 N713 1.346 . S
C716 C715 1.369 . S
C716 H719 0.928 . S
C717 N713 1.345 . S
C717 C718 1.371 . S
C717 H720 0.931 . S
C718 C714 1.391 . S
C718 C717 1.371 . S
C718 H725 0.930 . S
H719 C716 0.928 . S
H720 C717 0.931 . S
H721 C697 0.930 . S
H722 C694 0.930 . S
H723 C703 0.930 . S
H724 C715 0.929 . S
H725 C718 0.930 . S
C726 C727 1.351 . S
C726 N729 1.368 . S
C726 H731 0.931 . S
C727 C726 1.351 . S
C727 N728 1.373 . S
C727 H755 0.930 . S
N728 C727 1.373 . S
N728 C730 1.340 . S
N729 C726 1.368 . S
N729 C730 1.321 . S
N729 Co732 2.135 1_455 S
C730 N728 1.340 . S
C730 N729 1.321 . S
C730 H754 0.930 1_455 S
H731 C726 0.931 . S
Co732 N729 2.135 1_655 S
Co732 N735 2.121 . S
Co732 O740 2.055 . S
Co732 O743 2.039 . S
Co732 N746 2.140 . S
C733 O734 1.227 . S
C733 O743 1.265 . S
O734 C733 1.227 . S
N735 Co732 2.121 . S
N735 C737 1.375 . S
N735 C738 1.313 . S
C736 C737 1.338 . S
C736 N739 1.377 . S
C736 H756 0.930 . S
C737 N735 1.375 . S
C737 C736 1.338 . S
C737 H741 0.931 . S
C738 N735 1.313 . S
C738 N739 1.344 . S
C738 H742 0.930 . S
N739 C736 1.377 . S
N739 C738 1.344 . S
O740 Co732 2.055 . S
O740 C744 1.253 . S
H741 C737 0.931 . S
H742 C738 0.930 . S
O743 Co732 2.039 . S
O743 C733 1.265 . S
C744 O740 1.253 . S
C744 O745 1.227 1_655 S
O745 C744 1.227 1_455 S
N746 Co732 2.140 . S
N746 C749 1.346 . S
N746 C750 1.345 . S
C747 C748 1.385 1_455 S
C747 C751 1.391 1_455 S
C748 C747 1.385 1_655 S
C748 C749 1.379 . S
C748 H757 0.924 1_655 S
C749 N746 1.346 . S
C749 C748 1.379 . S
C749 H752 0.928 . S
C750 N746 1.345 . S
C750 C751 1.371 . S
C750 H753 0.931 . S
C751 C747 1.391 1_655 S
C751 C750 1.371 . S
C751 H758 0.930 . S
H752 C749 0.928 . S
H753 C750 0.931 . S
H754 C730 0.930 1_655 S
H755 C727 0.930 . S
H756 C736 0.930 . S
H757 C748 0.924 1_455 S
H758 C751 0.930 . S
C759 C760 1.351 . S
C759 N762 1.368 . S
C759 H764 0.931 . S
C760 C759 1.351 . S
C760 N761 1.373 . S
C760 H788 0.930 . S
N761 C760 1.373 . S
N761 C763 1.340 . S
N762 C759 1.368 . S
N762 C763 1.321 . S
N762 Co765 2.135 . S
C763 N761 1.340 . S
C763 N762 1.321 . S
C763 H787 0.930 . S
H764 C759 0.931 . S
Co765 N762 2.135 . S
Co765 N768 2.121 . S
Co765 O773 2.055 . S
Co765 O776 2.039 . S
Co765 N779 2.140 . S
C766 O767 1.227 . S
C766 O776 1.265 . S
O767 C766 1.227 . S
N768 Co765 2.121 . S
N768 C770 1.375 . S
N768 C771 1.313 . S
C769 C770 1.338 . S
C769 N772 1.377 . S
C769 H789 0.930 . S
C770 N768 1.375 . S
C770 C769 1.338 . S
C770 H774 0.931 . S
C771 N768 1.313 . S
C771 N772 1.344 . S
C771 H775 0.930 . S
N772 C769 1.377 . S
N772 C771 1.344 . S
O773 Co765 2.055 . S
O773 C777 1.253 . S
H774 C770 0.931 . S
H775 C771 0.930 . S
O776 Co765 2.039 . S
O776 C766 1.265 . S
C777 O773 1.253 . S
C777 O778 1.227 . S
O778 C777 1.227 . S
N779 Co765 2.140 . S
N779 C782 1.346 . S
N779 C783 1.345 . S
C780 C781 1.387 . S
C780 C784 1.391 . S
C781 C780 1.387 . S
C781 C782 1.369 . S
C781 H790 0.929 . S
C782 N779 1.346 . S
C782 C781 1.369 . S
C782 H785 0.928 . S
C783 N779 1.345 . S
C783 C784 1.371 . S
C783 H786 0.931 . S
C784 C780 1.391 . S
C784 C783 1.371 . S
C784 H791 0.930 . S
H785 C782 0.928 . S
H786 C783 0.931 . S
H787 C763 0.930 . S
H788 C760 0.930 . S
H789 C769 0.930 . S
H790 C781 0.929 . S
H791 C784 0.930 . S
H792 C798 0.930 . S
H793 C801 0.930 . S
H794 C802 0.930 . S
H795 C803 0.930 . S
H796 C806 0.930 . S
H797 C807 0.930 . S
C798 H792 0.930 . S
C798 C799 1.355 . S
C798 C800 1.415 . S
C799 C798 1.355 . S
C799 C801 1.419 . S
C800 C798 1.415 . S
C800 C805 1.425 . S
C800 C807 1.409 . S
C801 H793 0.930 . S
C801 C799 1.419 . S
C801 C802 1.362 . S
C802 H794 0.930 . S
C802 C801 1.362 . S
C802 C805 1.409 . S
C803 H795 0.930 . S
C803 C804 1.355 . S
C803 C805 1.415 . S
C804 C803 1.355 . S
C804 C806 1.419 . S
C805 C800 1.425 . S
C805 C802 1.409 . S
C805 C803 1.415 . S
C806 H796 0.930 . S
C806 C804 1.419 . S
C806 C807 1.362 . S
C807 H797 0.930 . S
C807 C800 1.409 . S
C807 C806 1.362 . S
H808 C814 0.930 . S
H809 C817 0.930 . S
H810 C818 0.930 . S
H811 C819 0.930 . S
H812 C822 0.930 . S
H813 C823 0.930 . S
C814 H808 0.930 . S
C814 C815 1.355 1_554 S
C814 C816 1.415 . S
C815 C814 1.355 1_556 S
C815 C817 1.419 . S
C816 C814 1.415 . S
C816 C821 1.425 1_554 S
C816 C823 1.409 . S
C817 H809 0.930 . S
C817 C815 1.419 . S
C817 C818 1.362 . S
C818 H810 0.930 . S
C818 C817 1.362 . S
C818 C821 1.409 . S
C819 H811 0.930 . S
C819 C820 1.355 1_556 S
C819 C821 1.415 . S
C820 C819 1.355 1_554 S
C820 C822 1.419 . S
C821 C816 1.425 1_556 S
C821 C818 1.409 . S
C821 C819 1.415 . S
C822 H812 0.930 . S
C822 C820 1.419 . S
C822 C823 1.362 . S
C823 H813 0.930 . S
C823 C816 1.409 . S
C823 C822 1.362 . S
H824 C830 0.930 . S
H825 C833 0.930 . S
H826 C834 0.930 . S
H827 C835 0.930 . S
H828 C838 0.930 . S
H829 C839 0.930 . S
C830 H824 0.930 . S
C830 C831 1.355 . S
C830 C832 1.415 . S
C831 C830 1.355 . S
C831 C833 1.419 . S
C832 C830 1.415 . S
C832 C837 1.425 . S
C832 C839 1.409 . S
C833 H825 0.930 . S
C833 C831 1.419 . S
C833 C834 1.362 . S
C834 H826 0.930 . S
C834 C833 1.362 . S
C834 C837 1.409 . S
C835 H827 0.930 . S
C835 C836 1.355 . S
C835 C837 1.415 . S
C836 C835 1.355 . S
C836 C838 1.419 . S
C837 C832 1.425 . S
C837 C834 1.409 . S
C837 C835 1.415 . S
C838 H828 0.930 . S
C838 C836 1.419 . S
C838 C839 1.362 . S
C839 H829 0.930 . S
C839 C832 1.409 . S
C839 C838 1.362 . S
H840 C846 0.930 . S
H841 C849 0.930 . S
H842 C850 0.930 . S
H843 C851 0.930 . S
H844 C854 0.930 . S
H845 C855 0.930 . S
C846 H840 0.930 . S
C846 C847 1.355 . S
C846 C848 1.415 . S
C847 C846 1.355 . S
C847 C849 1.419 . S
C848 C846 1.415 . S
C848 C853 1.425 . S
C848 C855 1.409 . S
C849 H841 0.930 . S
C849 C847 1.419 . S
C849 C850 1.362 . S
C850 H842 0.930 . S
C850 C849 1.362 . S
C850 C853 1.409 . S
C851 H843 0.930 . S
C851 C852 1.355 . S
C851 C853 1.415 . S
C852 C851 1.355 . S
C852 C854 1.419 . S
C853 C848 1.425 . S
C853 C850 1.409 . S
C853 C851 1.415 . S
C854 H844 0.930 . S
C854 C852 1.419 . S
C854 C855 1.362 . S
C855 H845 0.930 . S
C855 C848 1.409 . S
C855 C854 1.362 . S
H856 C862 0.930 . S
H857 C865 0.930 . S
H858 C866 0.930 . S
H859 C867 0.930 . S
H860 C870 0.930 . S
H861 C871 0.930 . S
C862 H856 0.930 . S
C862 C863 1.355 . S
C862 C864 1.415 . S
C863 C862 1.355 . S
C863 C865 1.419 . S
C864 C862 1.415 . S
C864 C869 1.425 . S
C864 C871 1.409 . S
C865 H857 0.930 . S
C865 C863 1.419 . S
C865 C866 1.362 . S
C866 H858 0.930 . S
C866 C865 1.362 . S
C866 C869 1.409 . S
C867 H859 0.930 . S
C867 C868 1.355 . S
C867 C869 1.415 . S
C868 C867 1.355 . S
C868 C870 1.419 . S
C869 C864 1.425 . S
C869 C866 1.409 . S
C869 C867 1.415 . S
C870 H860 0.930 . S
C870 C868 1.419 . S
C870 C871 1.362 . S
C871 H861 0.930 . S
C871 C864 1.409 . S
C871 C870 1.362 . S
H872 C878 0.930 . S
H873 C881 0.930 . S
H874 C882 0.930 . S
H875 C883 0.930 . S
H876 C886 0.930 . S
H877 C887 0.930 . S
C878 H872 0.930 . S
C878 C879 1.355 . S
C878 C880 1.415 . S
C879 C878 1.355 . S
C879 C881 1.419 . S
C880 C878 1.415 . S
C880 C885 1.425 . S
C880 C887 1.409 . S
C881 H873 0.930 . S
C881 C879 1.419 . S
C881 C882 1.362 . S
C882 H874 0.930 . S
C882 C881 1.362 . S
C882 C885 1.409 . S
C883 H875 0.930 . S
C883 C884 1.355 . S
C883 C885 1.415 . S
C884 C883 1.355 . S
C884 C886 1.419 . S
C885 C880 1.425 . S
C885 C882 1.409 . S
C885 C883 1.415 . S
C886 H876 0.930 . S
C886 C884 1.419 . S
C886 C887 1.362 . S
C887 H877 0.930 . S
C887 C880 1.409 . S
C887 C886 1.362 . S
H888 C894 0.930 . S
H889 C897 0.930 . S
H890 C898 0.930 . S
H891 C899 0.930 . S
H892 C902 0.930 . S
H893 C903 0.930 . S
C894 H888 0.930 . S
C894 C895 1.355 . S
C894 C896 1.415 . S
C895 C894 1.355 . S
C895 C897 1.419 1_455 S
C896 C894 1.415 . S
C896 C901 1.425 1_455 S
C896 C903 1.409 . S
C897 H889 0.930 . S
C897 C895 1.419 1_655 S
C897 C898 1.362 . S
C898 H890 0.930 . S
C898 C897 1.362 . S
C898 C901 1.409 . S
C899 H891 0.930 . S
C899 C900 1.355 . S
C899 C901 1.415 . S
C900 C899 1.355 . S
C900 C902 1.419 1_655 S
C901 C896 1.425 1_655 S
C901 C898 1.409 . S
C901 C899 1.415 . S
C902 H892 0.930 . S
C902 C900 1.419 1_455 S
C902 C903 1.362 . S
C903 H893 0.930 . S
C903 C896 1.409 . S
C903 C902 1.362 . S
H904 C910 0.930 . S
H905 C913 0.930 . S
H906 C914 0.930 . S
H907 C915 0.930 . S
H908 C918 0.930 . S
H909 C919 0.930 . S
C910 H904 0.930 . S
C910 C911 1.355 . S
C910 C912 1.415 . S
C911 C910 1.355 . S
C911 C913 1.419 . S
C912 C910 1.415 . S
C912 C917 1.425 . S
C912 C919 1.409 . S
C913 H905 0.930 . S
C913 C911 1.419 . S
C913 C914 1.362 . S
C914 H906 0.930 . S
C914 C913 1.362 . S
C914 C917 1.409 . S
C915 H907 0.930 . S
C915 C916 1.355 . S
C915 C917 1.415 . S
C916 C915 1.355 . S
C916 C918 1.419 . S
C917 C912 1.425 . S
C917 C914 1.409 . S
C917 C915 1.415 . S
C918 H908 0.930 . S
C918 C916 1.419 . S
C918 C919 1.362 . S
C919 H909 0.930 . S
C919 C912 1.409 . S
C919 C918 1.362 . S
H920 C926 0.930 . S
H921 C929 0.930 . S
H922 C930 0.930 . S
H923 C931 0.930 . S
H924 C934 0.930 . S
H925 C935 0.930 . S
C926 H920 0.930 . S
C926 C927 1.355 . S
C926 C928 1.415 . S
C927 C926 1.355 . S
C927 C929 1.419 . S
C928 C926 1.415 . S
C928 C933 1.425 . S
C928 C935 1.409 . S
C929 H921 0.930 . S
C929 C927 1.419 . S
C929 C930 1.362 . S
C930 H922 0.930 . S
C930 C929 1.362 . S
C930 C933 1.409 . S
C931 H923 0.930 . S
C931 C932 1.355 . S
C931 C933 1.415 . S
C932 C931 1.355 . S
C932 C934 1.419 . S
C933 C928 1.425 . S
C933 C930 1.409 . S
C933 C931 1.415 . S
C934 H924 0.930 . S
C934 C932 1.419 . S
C934 C935 1.362 . S
C935 H925 0.930 . S
C935 C928 1.409 . S
C935 C934 1.362 . S
H936 C942 0.930 . S
H937 C945 0.930 . S
H938 C946 0.930 . S
H939 C947 0.930 . S
H940 C950 0.930 . S
H941 C951 0.930 . S
C942 H936 0.930 . S
C942 C943 1.355 . S
C942 C944 1.415 . S
C943 C942 1.355 . S
C943 C945 1.419 . S
C944 C942 1.415 . S
C944 C949 1.425 . S
C944 C951 1.409 . S
C945 H937 0.930 . S
C945 C943 1.419 . S
C945 C946 1.362 . S
C946 H938 0.930 . S
C946 C945 1.362 . S
C946 C949 1.409 . S
C947 H939 0.930 . S
C947 C948 1.355 . S
C947 C949 1.415 . S
C948 C947 1.355 . S
C948 C950 1.419 . S
C949 C944 1.425 . S
C949 C946 1.409 . S
C949 C947 1.415 . S
C950 H940 0.930 . S
C950 C948 1.419 . S
C950 C951 1.362 . S
C951 H941 0.930 . S
C951 C944 1.409 . S
C951 C950 1.362 . S
H952 C958 0.930 . S
H953 C961 0.930 . S
H954 C962 0.930 . S
H955 C963 0.930 . S
H956 C966 0.930 . S
H957 C967 0.930 . S
C958 H952 0.930 . S
C958 C959 1.355 . S
C958 C960 1.415 . S
C959 C958 1.355 . S
C959 C961 1.419 1_565 S
C960 C958 1.415 . S
C960 C965 1.425 1_565 S
C960 C967 1.409 . S
C961 H953 0.930 . S
C961 C959 1.419 1_545 S
C961 C962 1.362 . S
C962 H954 0.930 . S
C962 C961 1.362 . S
C962 C965 1.409 . S
C963 H955 0.930 . S
C963 C964 1.355 . S
C963 C965 1.415 . S
C964 C963 1.355 . S
C964 C966 1.419 1_545 S
C965 C960 1.425 1_545 S
C965 C962 1.409 . S
C965 C963 1.415 . S
C966 H956 0.930 . S
C966 C964 1.419 1_565 S
C966 C967 1.362 . S
C967 H957 0.930 . S
C967 C960 1.409 . S
C967 C966 1.362 . S
H968 C974 0.930 . S
H969 C977 0.930 . S
H970 C978 0.930 . S
H971 C979 0.930 . S
H972 C982 0.930 . S
H973 C983 0.930 . S
C974 H968 0.930 . S
C974 C975 1.355 . S
C974 C976 1.415 . S
C975 C974 1.355 . S
C975 C977 1.419 . S
C976 C974 1.415 . S
C976 C981 1.425 . S
C976 C983 1.409 . S
C977 H969 0.930 . S
C977 C975 1.419 . S
C977 C978 1.362 . S
C978 H970 0.930 . S
C978 C977 1.362 . S
C978 C981 1.409 . S
C979 H971 0.930 . S
C979 C980 1.355 . S
C979 C981 1.415 . S
C980 C979 1.355 . S
C980 C982 1.419 . S
C981 C976 1.425 . S
C981 C978 1.409 . S
C981 C979 1.415 . S
C982 H972 0.930 . S
C982 C980 1.419 . S
C982 C983 1.362 . S
C983 H973 0.930 . S
C983 C976 1.409 . S
C983 C982 1.362 . S
H984 C990 0.930 . S
H985 C993 0.930 . S
H986 C994 0.930 . S
H987 C995 0.930 . S
H988 C998 0.930 . S
H989 C999 0.930 . S
C990 H984 0.930 . S
C990 C991 1.355 . S
C990 C992 1.415 . S
C991 C990 1.355 . S
C991 C993 1.419 . S
C992 C990 1.415 . S
C992 C997 1.425 . S
C992 C999 1.409 . S
C993 H985 0.930 . S
C993 C991 1.419 . S
C993 C994 1.362 . S
C994 H986 0.930 . S
C994 C993 1.362 . S
C994 C997 1.409 . S
C995 H987 0.930 . S
C995 C996 1.355 . S
C995 C997 1.415 . S
C996 C995 1.355 . S
C996 C998 1.419 . S
C997 C992 1.425 . S
C997 C994 1.409 . S
C997 C995 1.415 . S
C998 H988 0.930 . S
C998 C996 1.419 . S
C998 C999 1.362 . S
C999 H989 0.930 . S
C999 C992 1.409 . S
C999 C998 1.362 . S
H1000 C1006 0.930 . S
H1001 C1009 0.930 . S
H1002 C1010 0.930 . S
H1003 C1011 0.930 . S
H1004 C1014 0.930 . S
H1005 C1015 0.930 . S
C1006 H1000 0.930 . S
C1006 C1007 1.355 . S
C1006 C1008 1.415 . S
C1007 C1006 1.355 . S
C1007 C1009 1.419 . S
C1008 C1006 1.415 . S
C1008 C1013 1.425 . S
C1008 C1015 1.409 . S
C1009 H1001 0.930 . S
C1009 C1007 1.419 . S
C1009 C1010 1.362 . S
C1010 H1002 0.930 . S
C1010 C1009 1.362 . S
C1010 C1013 1.409 . S
C1011 H1003 0.930 . S
C1011 C1012 1.355 . S
C1011 C1013 1.415 . S
C1012 C1011 1.355 . S
C1012 C1014 1.419 . S
C1013 C1008 1.425 . S
C1013 C1010 1.409 . S
C1013 C1011 1.415 . S
C1014 H1004 0.930 . S
C1014 C1012 1.419 . S
C1014 C1015 1.362 . S
C1015 H1005 0.930 . S
C1015 C1008 1.409 . S
C1015 C1014 1.362 . S
H1016 C1022 0.930 . S
H1017 C1025 0.930 . S
H1018 C1026 0.930 . S
H1019 C1027 0.930 . S
H1020 C1030 0.930 . S
H1021 C1031 0.930 . S
C1022 H1016 0.930 . S
C1022 C1023 1.355 . S
C1022 C1024 1.415 . S
C1023 C1022 1.355 . S
C1023 C1025 1.419 . S
C1024 C1022 1.415 . S
C1024 C1029 1.425 . S
C1024 C1031 1.409 . S
C1025 H1017 0.930 . S
C1025 C1023 1.419 . S
C1025 C1026 1.362 . S
C1026 H1018 0.930 . S
C1026 C1025 1.362 . S
C1026 C1029 1.409 . S
C1027 H1019 0.930 . S
C1027 C1028 1.355 . S
C1027 C1029 1.415 . S
C1028 C1027 1.355 . S
C1028 C1030 1.419 . S
C1029 C1024 1.425 . S
C1029 C1026 1.409 . S
C1029 C1027 1.415 . S
C1030 H1020 0.930 . S
C1030 C1028 1.419 . S
C1030 C1031 1.362 . S
C1031 H1021 0.930 . S
C1031 C1024 1.409 . S
C1031 C1030 1.362 . S
H1032 C1038 0.930 . S
H1033 C1041 0.930 . S
H1034 C1042 0.930 . S
H1035 C1043 0.930 . S
H1036 C1046 0.930 . S
H1037 C1047 0.930 . S
C1038 H1032 0.930 . S
C1038 C1039 1.355 . S
C1038 C1040 1.415 . S
C1039 C1038 1.355 . S
C1039 C1041 1.419 . S
C1040 C1038 1.415 . S
C1040 C1045 1.425 . S
C1040 C1047 1.409 . S
C1041 H1033 0.930 . S
C1041 C1039 1.419 . S
C1041 C1042 1.362 . S
C1042 H1034 0.930 . S
C1042 C1041 1.362 . S
C1042 C1045 1.409 . S
C1043 H1035 0.930 . S
C1043 C1044 1.355 . S
C1043 C1045 1.415 . S
C1044 C1043 1.355 . S
C1044 C1046 1.419 . S
C1045 C1040 1.425 . S
C1045 C1042 1.409 . S
C1045 C1043 1.415 . S
C1046 H1036 0.930 . S
C1046 C1044 1.419 . S
C1046 C1047 1.362 . S
C1047 H1037 0.930 . S
C1047 C1040 1.409 . S
C1047 C1046 1.362 . S
H1048 C1054 0.930 . S
H1049 C1057 0.930 . S
H1050 C1058 0.930 . S
H1051 C1059 0.930 . S
H1052 C1062 0.930 . S
H1053 C1063 0.930 . S
C1054 H1048 0.930 . S
C1054 C1055 1.355 . S
C1054 C1056 1.415 . S
C1055 C1054 1.355 . S
C1055 C1057 1.419 . S
C1056 C1054 1.415 . S
C1056 C1061 1.425 . S
C1056 C1063 1.409 . S
C1057 H1049 0.930 . S
C1057 C1055 1.419 . S
C1057 C1058 1.362 . S
C1058 H1050 0.930 . S
C1058 C1057 1.362 . S
C1058 C1061 1.409 . S
C1059 H1051 0.930 . S
C1059 C1060 1.355 . S
C1059 C1061 1.415 . S
C1060 C1059 1.355 . S
C1060 C1062 1.419 . S
C1061 C1056 1.425 . S
C1061 C1058 1.409 . S
C1061 C1059 1.415 . S
C1062 H1052 0.930 . S
C1062 C1060 1.419 . S
C1062 C1063 1.362 . S
C1063 H1053 0.930 . S
C1063 C1056 1.409 . S
C1063 C1062 1.362 . S
H1064 C1070 0.930 . S
H1065 C1073 0.930 . S
H1066 C1074 0.930 . S
H1067 C1075 0.930 . S
H1068 C1078 0.930 . S
H1069 C1079 0.930 . S
C1070 H1064 0.930 . S
C1070 C1071 1.355 . S
C1070 C1072 1.415 . S
C1071 C1070 1.355 . S
C1071 C1073 1.419 . S
C1072 C1070 1.415 . S
C1072 C1077 1.425 . S
C1072 C1079 1.409 . S
C1073 H1065 0.930 . S
C1073 C1071 1.419 . S
C1073 C1074 1.362 . S
C1074 H1066 0.930 . S
C1074 C1073 1.362 . S
C1074 C1077 1.409 . S
C1075 H1067 0.930 . S
C1075 C1076 1.355 . S
C1075 C1077 1.415 . S
C1076 C1075 1.355 . S
C1076 C1078 1.419 . S
C1077 C1072 1.425 . S
C1077 C1074 1.409 . S
C1077 C1075 1.415 . S
C1078 H1068 0.930 . S
C1078 C1076 1.419 . S
C1078 C1079 1.362 . S
C1079 H1069 0.930 . S
C1079 C1072 1.409 . S
C1079 C1078 1.362 . S
H1080 C1086 0.930 . S
H1081 C1089 0.930 . S
H1082 C1090 0.930 . S
H1083 C1091 0.930 . S
H1084 C1094 0.930 . S
H1085 C1095 0.930 . S
C1086 H1080 0.930 . S
C1086 C1087 1.355 . S
C1086 C1088 1.415 . S
C1087 C1086 1.355 . S
C1087 C1089 1.419 . S
C1088 C1086 1.415 . S
C1088 C1093 1.425 . S
C1088 C1095 1.409 1_455 S
C1089 H1081 0.930 . S
C1089 C1087 1.419 . S
C1089 C1090 1.362 . S
C1090 H1082 0.930 . S
C1090 C1089 1.362 . S
C1090 C1093 1.409 . S
C1091 H1083 0.930 . S
C1091 C1092 1.355 . S
C1091 C1093 1.415 1_655 S
C1092 C1091 1.355 . S
C1092 C1094 1.419 . S
C1093 C1088 1.425 . S
C1093 C1090 1.409 . S
C1093 C1091 1.415 1_455 S
C1094 H1084 0.930 . S
C1094 C1092 1.419 . S
C1094 C1095 1.362 . S
C1095 H1085 0.930 . S
C1095 C1088 1.409 1_655 S
C1095 C1094 1.362 . S
H1096 C1102 0.930 . S
H1097 C1105 0.930 . S
H1098 C1106 0.930 . S
H1099 C1107 0.930 . S
H1100 C1110 0.930 . S
H1101 C1111 0.930 . S
C1102 H1096 0.930 . S
C1102 C1103 1.355 . S
C1102 C1104 1.415 . S
C1103 C1102 1.355 . S
C1103 C1105 1.419 . S
C1104 C1102 1.415 . S
C1104 C1109 1.425 . S
C1104 C1111 1.409 . S
C1105 H1097 0.930 . S
C1105 C1103 1.419 . S
C1105 C1106 1.362 . S
C1106 H1098 0.930 . S
C1106 C1105 1.362 . S
C1106 C1109 1.409 . S
C1107 H1099 0.930 . S
C1107 C1108 1.355 . S
C1107 C1109 1.415 . S
C1108 C1107 1.355 . S
C1108 C1110 1.419 . S
C1109 C1104 1.425 . S
C1109 C1106 1.409 . S
C1109 C1107 1.415 . S
C1110 H1100 0.930 . S
C1110 C1108 1.419 . S
C1110 C1111 1.362 . S
C1111 H1101 0.930 . S
C1111 C1104 1.409 . S
C1111 C1110 1.362 . S
H1112 C1118 0.930 . S
H1113 C1121 0.930 . S
H1114 C1122 0.930 . S
H1115 C1123 0.930 . S
H1116 C1126 0.930 . S
H1117 C1127 0.930 . S
C1118 H1112 0.930 . S
C1118 C1119 1.355 . S
C1118 C1120 1.415 . S
C1119 C1118 1.355 . S
C1119 C1121 1.419 . S
C1120 C1118 1.415 . S
C1120 C1125 1.425 . S
C1120 C1127 1.409 . S
C1121 H1113 0.930 . S
C1121 C1119 1.419 . S
C1121 C1122 1.362 . S
C1122 H1114 0.930 . S
C1122 C1121 1.362 . S
C1122 C1125 1.409 . S
C1123 H1115 0.930 . S
C1123 C1124 1.355 . S
C1123 C1125 1.415 . S
C1124 C1123 1.355 . S
C1124 C1126 1.419 . S
C1125 C1120 1.425 . S
C1125 C1122 1.409 . S
C1125 C1123 1.415 . S
C1126 H1116 0.930 . S
C1126 C1124 1.419 . S
C1126 C1127 1.362 . S
C1127 H1117 0.930 . S
C1127 C1120 1.409 . S
C1127 C1126 1.362 . S
H1128 C1134 0.930 . S
H1129 C1137 0.930 . S
H1130 C1138 0.930 . S
H1131 C1139 0.930 . S
H1132 C1142 0.930 . S
H1133 C1143 0.930 . S
C1134 H1128 0.930 . S
C1134 C1135 1.355 . S
C1134 C1136 1.415 . S
C1135 C1134 1.355 . S
C1135 C1137 1.419 . S
C1136 C1134 1.415 . S
C1136 C1141 1.425 . S
C1136 C1143 1.409 . S
C1137 H1129 0.930 . S
C1137 C1135 1.419 . S
C1137 C1138 1.362 . S
C1138 H1130 0.930 . S
C1138 C1137 1.362 . S
C1138 C1141 1.409 . S
C1139 H1131 0.930 . S
C1139 C1140 1.355 . S
C1139 C1141 1.415 . S
C1140 C1139 1.355 . S
C1140 C1142 1.419 . S
C1141 C1136 1.425 . S
C1141 C1138 1.409 . S
C1141 C1139 1.415 . S
C1142 H1132 0.930 . S
C1142 C1140 1.419 . S
C1142 C1143 1.362 . S
C1143 H1133 0.930 . S
C1143 C1136 1.409 . S
C1143 C1142 1.362 . S
H1144 C1150 0.930 . S
H1145 C1153 0.930 . S
H1146 C1154 0.930 . S
H1147 C1155 0.930 . S
H1148 C1158 0.928 1_465 S
H1149 C1159 0.930 . S
C1150 H1144 0.930 . S
C1150 C1151 1.355 . S
C1150 C1152 1.415 . S
C1151 C1150 1.355 . S
C1151 C1153 1.419 1_565 S
C1152 C1150 1.415 . S
C1152 C1157 1.425 1_565 S
C1152 C1159 1.409 . S
C1153 H1145 0.930 . S
C1153 C1151 1.419 1_545 S
C1153 C1154 1.362 . S
C1154 H1146 0.930 . S
C1154 C1153 1.362 . S
C1154 C1157 1.409 . S
C1155 H1147 0.930 . S
C1155 C1156 1.355 . S
C1155 C1157 1.415 . S
C1156 C1155 1.355 . S
C1156 C1158 1.424 . S
C1157 C1152 1.425 1_545 S
C1157 C1154 1.409 . S
C1157 C1155 1.415 . S
C1158 H1148 0.928 1_645 S
C1158 C1156 1.424 . S
C1158 C1159 1.359 1_545 S
C1159 H1149 0.930 . S
C1159 C1152 1.409 . S
C1159 C1158 1.359 1_565 S
H1160 C1166 0.930 . S
H1161 C1169 0.930 . S
H1162 C1170 0.930 . S
H1163 C1171 0.930 . S
H1164 C1174 0.930 . S
H1165 C1175 0.930 . S
C1166 H1160 0.930 . S
C1166 C1167 1.355 . S
C1166 C1168 1.415 . S
C1167 C1166 1.355 . S
C1167 C1169 1.419 . S
C1168 C1166 1.415 . S
C1168 C1173 1.425 . S
C1168 C1175 1.409 . S
C1169 H1161 0.930 . S
C1169 C1167 1.419 . S
C1169 C1170 1.362 . S
C1170 H1162 0.930 . S
C1170 C1169 1.362 . S
C1170 C1173 1.409 . S
C1171 H1163 0.930 . S
C1171 C1172 1.355 . S
C1171 C1173 1.415 . S
C1172 C1171 1.355 . S
C1172 C1174 1.419 . S
C1173 C1168 1.425 . S
C1173 C1170 1.409 . S
C1173 C1171 1.415 . S
C1174 H1164 0.930 . S
C1174 C1172 1.419 . S
C1174 C1175 1.362 . S
C1175 H1165 0.930 . S
C1175 C1168 1.409 . S
C1175 C1174 1.362 . S
H1176 C1182 0.930 . S
H1177 C1185 0.930 . S
H1178 C1186 0.930 . S
H1179 C1187 0.930 . S
H1180 C1190 0.930 . S
H1181 C1191 0.930 . S
C1182 H1176 0.930 . S
C1182 C1183 1.355 . S
C1182 C1184 1.415 . S
C1183 C1182 1.355 . S
C1183 C1185 1.419 . S
C1184 C1182 1.415 . S
C1184 C1189 1.425 . S
C1184 C1191 1.409 . S
C1185 H1177 0.930 . S
C1185 C1183 1.419 . S
C1185 C1186 1.362 . S
C1186 H1178 0.930 . S
C1186 C1185 1.362 . S
C1186 C1189 1.409 . S
C1187 H1179 0.930 . S
C1187 C1188 1.355 . S
C1187 C1189 1.415 . S
C1188 C1187 1.355 . S
C1188 C1190 1.419 . S
C1189 C1184 1.425 . S
C1189 C1186 1.409 . S
C1189 C1187 1.415 . S
C1190 H1180 0.930 . S
C1190 C1188 1.419 . S
C1190 C1191 1.362 . S
C1191 H1181 0.930 . S
C1191 C1184 1.409 . S
C1191 C1190 1.362 . S
H1192 C1198 0.930 . S
H1193 C1201 0.930 . S
H1194 C1202 0.930 . S
H1195 C1203 0.930 . S
H1196 C1206 0.930 . S
H1197 C1207 0.930 . S
C1198 H1192 0.930 . S
C1198 C1199 1.355 . S
C1198 C1200 1.415 . S
C1199 C1198 1.355 . S
C1199 C1201 1.419 . S
C1200 C1198 1.415 . S
C1200 C1205 1.425 . S
C1200 C1207 1.409 . S
C1201 H1193 0.930 . S
C1201 C1199 1.419 . S
C1201 C1202 1.362 . S
C1202 H1194 0.930 . S
C1202 C1201 1.362 . S
C1202 C1205 1.409 . S
C1203 H1195 0.930 . S
C1203 C1204 1.355 . S
C1203 C1205 1.415 . S
C1204 C1203 1.355 . S
C1204 C1206 1.419 . S
C1205 C1200 1.425 . S
C1205 C1202 1.409 . S
C1205 C1203 1.415 . S
C1206 H1196 0.930 . S
C1206 C1204 1.419 . S
C1206 C1207 1.362 . S
C1207 H1197 0.930 . S
C1207 C1200 1.409 . S
C1207 C1206 1.362 . S
H1208 C1214 0.930 . S
H1209 C1217 0.930 . S
H1210 C1218 0.930 . S
H1211 C1219 0.930 . S
H1212 C1222 0.930 . S
H1213 C1223 0.930 . S
C1214 H1208 0.930 . S
C1214 C1215 1.355 . S
C1214 C1216 1.415 . S
C1215 C1214 1.355 . S
C1215 C1217 1.419 . S
C1216 C1214 1.415 . S
C1216 C1221 1.425 . S
C1216 C1223 1.409 . S
C1217 H1209 0.930 . S
C1217 C1215 1.419 . S
C1217 C1218 1.362 . S
C1218 H1210 0.930 . S
C1218 C1217 1.362 . S
C1218 C1221 1.409 . S
C1219 H1211 0.930 . S
C1219 C1220 1.355 . S
C1219 C1221 1.415 . S
C1220 C1219 1.355 . S
C1220 C1222 1.419 . S
C1221 C1216 1.425 . S
C1221 C1218 1.409 . S
C1221 C1219 1.415 . S
C1222 H1212 0.930 . S
C1222 C1220 1.419 . S
C1222 C1223 1.362 . S
C1223 H1213 0.930 . S
C1223 C1216 1.409 . S
C1223 C1222 1.362 . S
H1224 C1230 0.930 . S
H1225 C1233 0.930 . S
H1226 C1234 0.930 . S
H1227 C1235 0.930 . S
H1228 C1238 0.930 . S
H1229 C1239 0.930 . S
C1230 H1224 0.930 . S
C1230 C1231 1.355 . S
C1230 C1232 1.415 . S
C1231 C1230 1.355 . S
C1231 C1233 1.419 . S
C1232 C1230 1.415 . S
C1232 C1237 1.425 . S
C1232 C1239 1.409 . S
C1233 H1225 0.930 . S
C1233 C1231 1.419 . S
C1233 C1234 1.362 . S
C1234 H1226 0.930 . S
C1234 C1233 1.362 . S
C1234 C1237 1.409 . S
C1235 H1227 0.930 . S
C1235 C1236 1.355 . S
C1235 C1237 1.415 . S
C1236 C1235 1.355 . S
C1236 C1238 1.419 . S
C1237 C1232 1.425 . S
C1237 C1234 1.409 . S
C1237 C1235 1.415 . S
C1238 H1228 0.930 . S
C1238 C1236 1.419 . S
C1238 C1239 1.362 . S
C1239 H1229 0.930 . S
C1239 C1232 1.409 . S
C1239 C1238 1.362 . S
H1240 C1246 0.930 . S
H1241 C1249 0.930 . S
H1242 C1250 0.930 . S
H1243 C1251 0.930 . S
H1244 C1254 0.930 . S
H1245 C1255 0.930 . S
C1246 H1240 0.930 . S
C1246 C1247 1.355 . S
C1246 C1248 1.415 . S
C1247 C1246 1.355 . S
C1247 C1249 1.419 . S
C1248 C1246 1.415 . S
C1248 C1253 1.425 . S
C1248 C1255 1.409 . S
C1249 H1241 0.930 . S
C1249 C1247 1.419 . S
C1249 C1250 1.362 . S
C1250 H1242 0.930 . S
C1250 C1249 1.362 . S
C1250 C1253 1.409 . S
C1251 H1243 0.930 . S
C1251 C1252 1.355 . S
C1251 C1253 1.415 . S
C1252 C1251 1.355 . S
C1252 C1254 1.419 . S
C1253 C1248 1.425 . S
C1253 C1250 1.409 . S
C1253 C1251 1.415 . S
C1254 H1244 0.930 . S
C1254 C1252 1.419 . S
C1254 C1255 1.362 . S
C1255 H1245 0.930 . S
C1255 C1248 1.409 . S
C1255 C1254 1.362 . S
H1256 C1262 0.930 . S
H1257 C1265 0.911 1_545 S
H1258 C1266 0.930 . S
H1259 C1267 0.930 . S
H1260 C1270 0.930 . S
H1261 C1271 0.930 . S
C1262 H1256 0.930 . S
C1262 C1263 1.355 . S
C1262 C1264 1.415 . S
C1263 C1262 1.355 . S
C1263 C1265 1.419 1_554 S
C1264 C1262 1.415 . S
C1264 C1269 1.425 1_554 S
C1264 C1271 1.409 . S
C1265 H1257 0.911 1_565 S
C1265 C1263 1.419 1_556 S
C1265 C1266 1.362 . S
C1266 H1258 0.930 . S
C1266 C1265 1.362 . S
C1266 C1269 1.409 . S
C1267 H1259 0.930 . S
C1267 C1268 1.355 . S
C1267 C1269 1.415 . S
C1268 C1267 1.355 . S
C1268 C1270 1.419 1_556 S
C1269 C1264 1.425 1_556 S
C1269 C1266 1.409 . S
C1269 C1267 1.415 . S
C1270 H1260 0.930 . S
C1270 C1268 1.419 1_554 S
C1270 C1271 1.362 . S
C1271 H1261 0.930 . S
C1271 C1264 1.409 . S
C1271 C1270 1.362 . S
H1272 C1278 0.930 . S
H1273 C1281 0.930 . S
H1274 C1282 0.930 . S
H1275 C1283 0.930 . S
H1276 C1286 0.930 . S
H1277 C1287 0.930 . S
C1278 H1272 0.930 . S
C1278 C1279 1.355 . S
C1278 C1280 1.415 . S
C1279 C1278 1.355 . S
C1279 C1281 1.419 . S
C1280 C1278 1.415 . S
C1280 C1285 1.425 . S
C1280 C1287 1.409 . S
C1281 H1273 0.930 . S
C1281 C1279 1.419 . S
C1281 C1282 1.362 . S
C1282 H1274 0.930 . S
C1282 C1281 1.362 . S
C1282 C1285 1.409 . S
C1283 H1275 0.930 . S
C1283 C1284 1.355 . S
C1283 C1285 1.415 . S
C1284 C1283 1.355 . S
C1284 C1286 1.419 . S
C1285 C1280 1.425 . S
C1285 C1282 1.409 . S
C1285 C1283 1.415 . S
C1286 H1276 0.930 . S
C1286 C1284 1.419 . S
C1286 C1287 1.362 . S
C1287 H1277 0.930 . S
C1287 C1280 1.409 . S
C1287 C1286 1.362 . S
H1288 C1294 0.930 . S
H1289 C1297 0.930 . S
H1290 C1298 0.930 . S
H1291 C1299 0.930 . S
H1292 C1302 0.930 . S
H1293 C1303 0.930 . S
C1294 H1288 0.930 . S
C1294 C1295 1.355 . S
C1294 C1296 1.415 . S
C1295 C1294 1.355 . S
C1295 C1297 1.419 . S
C1296 C1294 1.415 . S
C1296 C1301 1.425 . S
C1296 C1303 1.409 . S
C1297 H1289 0.930 . S
C1297 C1295 1.419 . S
C1297 C1298 1.362 . S
C1298 H1290 0.930 . S
C1298 C1297 1.362 . S
C1298 C1301 1.409 . S
C1299 H1291 0.930 . S
C1299 C1300 1.355 . S
C1299 C1301 1.415 . S
C1300 C1299 1.355 . S
C1300 C1302 1.419 . S
C1301 C1296 1.425 . S
C1301 C1298 1.409 . S
C1301 C1299 1.415 . S
C1302 H1292 0.930 . S
C1302 C1300 1.419 . S
C1302 C1303 1.362 . S
C1303 H1293 0.930 . S
C1303 C1296 1.409 . S
C1303 C1302 1.362 . S
H1304 C1310 0.930 . S
H1305 C1313 0.930 . S
H1306 C1314 0.930 . S
H1307 C1315 0.930 . S
H1308 C1318 0.930 . S
H1309 C1319 0.930 . S
C1310 H1304 0.930 . S
C1310 C1311 1.355 . S
C1310 C1312 1.415 . S
C1311 C1310 1.355 . S
C1311 C1313 1.419 . S
C1312 C1310 1.415 . S
C1312 C1317 1.425 . S
C1312 C1319 1.409 . S
C1313 H1305 0.930 . S
C1313 C1311 1.419 . S
C1313 C1314 1.362 . S
C1314 H1306 0.930 . S
C1314 C1313 1.362 . S
C1314 C1317 1.409 . S
C1315 H1307 0.930 . S
C1315 C1316 1.355 . S
C1315 C1317 1.415 . S
C1316 C1315 1.355 . S
C1316 C1318 1.419 . S
C1317 C1312 1.425 . S
C1317 C1314 1.409 . S
C1317 C1315 1.415 . S
C1318 H1308 0.930 . S
C1318 C1316 1.419 . S
C1318 C1319 1.362 . S
C1319 H1309 0.930 . S
C1319 C1312 1.409 . S
C1319 C1318 1.362 . S
H1320 C1326 0.930 . S
H1321 C1329 0.930 . S
H1322 C1330 0.930 . S
H1323 C1331 0.930 . S
H1324 C1334 0.930 . S
H1325 C1335 0.930 . S
C1326 H1320 0.930 . S
C1326 C1327 1.355 . S
C1326 C1328 1.415 . S
C1327 C1326 1.355 . S
C1327 C1329 1.419 . S
C1328 C1326 1.415 . S
C1328 C1333 1.425 . S
C1328 C1335 1.409 . S
C1329 H1321 0.930 . S
C1329 C1327 1.419 . S
C1329 C1330 1.362 . S
C1330 H1322 0.930 . S
C1330 C1329 1.362 . S
C1330 C1333 1.409 . S
C1331 H1323 0.930 . S
C1331 C1332 1.355 . S
C1331 C1333 1.415 . S
C1332 C1331 1.355 . S
C1332 C1334 1.419 . S
C1333 C1328 1.425 . S
C1333 C1330 1.409 . S
C1333 C1331 1.415 . S
C1334 H1324 0.930 . S
C1334 C1332 1.419 . S
C1334 C1335 1.362 . S
C1335 H1325 0.930 . S
C1335 C1328 1.409 . S
C1335 C1334 1.362 . S
H1336 C1342 0.930 . S
H1337 C1345 0.930 . S
H1338 C1346 0.930 . S
H1339 C1347 0.930 . S
H1340 C1350 0.930 . S
H1341 C1351 0.930 . S
C1342 H1336 0.930 . S
C1342 C1343 1.355 . S
C1342 C1344 1.415 . S
C1343 C1342 1.355 . S
C1343 C1345 1.419 . S
C1344 C1342 1.415 . S
C1344 C1349 1.425 . S
C1344 C1351 1.409 . S
C1345 H1337 0.930 . S
C1345 C1343 1.419 . S
C1345 C1346 1.362 . S
C1346 H1338 0.930 . S
C1346 C1345 1.362 . S
C1346 C1349 1.409 . S
C1347 H1339 0.930 . S
C1347 C1348 1.355 . S
C1347 C1349 1.415 . S
C1348 C1347 1.355 . S
C1348 C1350 1.419 . S
C1349 C1344 1.425 . S
C1349 C1346 1.409 . S
C1349 C1347 1.415 . S
C1350 H1340 0.930 . S
C1350 C1348 1.419 . S
C1350 C1351 1.362 . S
C1351 H1341 0.930 . S
C1351 C1344 1.409 . S
C1351 C1350 1.362 . S
H1352 C1358 0.930 . S
H1353 C1361 0.930 . S
H1354 C1362 0.930 . S
H1355 C1363 0.930 . S
H1356 C1366 0.930 . S
H1357 C1367 0.930 . S
C1358 H1352 0.930 . S
C1358 C1359 1.355 . S
C1358 C1360 1.415 . S
C1359 C1358 1.355 . S
C1359 C1361 1.419 . S
C1360 C1358 1.415 . S
C1360 C1365 1.425 . S
C1360 C1367 1.409 . S
C1361 H1353 0.930 . S
C1361 C1359 1.419 . S
C1361 C1362 1.362 . S
C1362 H1354 0.930 . S
C1362 C1361 1.362 . S
C1362 C1365 1.409 . S
C1363 H1355 0.930 . S
C1363 C1364 1.355 . S
C1363 C1365 1.415 . S
C1364 C1363 1.355 . S
C1364 C1366 1.419 . S
C1365 C1360 1.425 . S
C1365 C1362 1.409 . S
C1365 C1363 1.415 . S
C1366 H1356 0.930 . S
C1366 C1364 1.419 . S
C1366 C1367 1.362 . S
C1367 H1357 0.930 . S
C1367 C1360 1.409 . S
C1367 C1366 1.362 . S
H1368 C1374 0.930 . S
H1369 C1377 0.930 . S
H1370 C1378 0.930 . S
H1371 C1379 0.930 . S
H1372 C1382 0.930 . S
H1373 C1383 0.930 . S
C1374 H1368 0.930 . S
C1374 C1375 1.355 . S
C1374 C1376 1.415 . S
C1375 C1374 1.355 . S
C1375 C1377 1.419 . S
C1376 C1374 1.415 . S
C1376 C1381 1.425 . S
C1376 C1383 1.409 1_455 S
C1377 H1369 0.930 . S
C1377 C1375 1.419 . S
C1377 C1378 1.362 . S
C1378 H1370 0.930 . S
C1378 C1377 1.362 . S
C1378 C1381 1.409 . S
C1379 H1371 0.930 . S
C1379 C1380 1.355 . S
C1379 C1381 1.415 . S
C1380 C1379 1.355 . S
C1380 C1382 1.419 1_455 S
C1381 C1376 1.425 . S
C1381 C1378 1.409 . S
C1381 C1379 1.415 . S
C1382 H1372 0.930 . S
C1382 C1380 1.419 1_655 S
C1382 C1383 1.362 . S
C1383 H1373 0.930 . S
C1383 C1376 1.409 1_655 S
C1383 C1382 1.362 . S
H1384 C1390 0.930 . S
H1385 C1393 0.930 . S
H1386 C1394 0.930 . S
H1387 C1395 0.930 . S
H1388 C1398 0.930 . S
H1389 C1399 0.930 . S
C1390 H1384 0.930 . S
C1390 C1391 1.355 . S
C1390 C1392 1.415 . S
C1391 C1390 1.355 . S
C1391 C1393 1.419 . S
C1392 C1390 1.415 . S
C1392 C1397 1.425 . S
C1392 C1399 1.409 . S
C1393 H1385 0.930 . S
C1393 C1391 1.419 . S
C1393 C1394 1.362 . S
C1394 H1386 0.930 . S
C1394 C1393 1.362 . S
C1394 C1397 1.409 . S
C1395 H1387 0.930 . S
C1395 C1396 1.355 . S
C1395 C1397 1.415 . S
C1396 C1395 1.355 . S
C1396 C1398 1.419 . S
C1397 C1392 1.425 . S
C1397 C1394 1.409 . S
C1397 C1395 1.415 . S
C1398 H1388 0.930 . S
C1398 C1396 1.419 . S
C1398 C1399 1.362 . S
C1399 H1389 0.930 . S
C1399 C1392 1.409 . S
C1399 C1398 1.362 . S
H1400 C1406 0.930 . S
H1401 C1409 0.930 . S
H1402 C1410 0.930 . S
H1403 C1411 0.930 . S
H1404 C1414 0.930 . S
H1405 C1415 0.930 . S
C1406 H1400 0.930 . S
C1406 C1407 1.355 . S
C1406 C1408 1.415 . S
C1407 C1406 1.355 . S
C1407 C1409 1.419 . S
C1408 C1406 1.415 . S
C1408 C1413 1.425 . S
C1408 C1415 1.409 . S
C1409 H1401 0.930 . S
C1409 C1407 1.419 . S
C1409 C1410 1.362 . S
C1410 H1402 0.930 . S
C1410 C1409 1.362 . S
C1410 C1413 1.409 . S
C1411 H1403 0.930 . S
C1411 C1412 1.355 . S
C1411 C1413 1.415 . S
C1412 C1411 1.355 . S
C1412 C1414 1.419 . S
C1413 C1408 1.425 . S
C1413 C1410 1.409 . S
C1413 C1411 1.415 . S
C1414 H1404 0.930 . S
C1414 C1412 1.419 . S
C1414 C1415 1.362 . S
C1415 H1405 0.930 . S
C1415 C1408 1.409 . S
C1415 C1414 1.362 . S
H1416 C1422 0.930 . S
H1417 C1425 0.930 . S
H1418 C1426 0.930 . S
H1419 C1427 0.930 . S
H1420 C1430 0.930 . S
H1421 C1431 0.930 . S
C1422 H1416 0.930 . S
C1422 C1423 1.355 . S
C1422 C1424 1.415 . S
C1423 C1422 1.355 . S
C1423 C1425 1.419 . S
C1424 C1422 1.415 . S
C1424 C1429 1.425 . S
C1424 C1431 1.409 . S
C1425 H1417 0.930 . S
C1425 C1423 1.419 . S
C1425 C1426 1.362 . S
C1426 H1418 0.930 . S
C1426 C1425 1.362 . S
C1426 C1429 1.409 . S
C1427 H1419 0.930 . S
C1427 C1428 1.355 . S
C1427 C1429 1.415 . S
C1428 C1427 1.355 . S
C1428 C1430 1.419 . S
C1429 C1424 1.425 . S
C1429 C1426 1.409 . S
C1429 C1427 1.415 . S
C1430 H1420 0.930 . S
C1430 C1428 1.419 . S
C1430 C1431 1.362 . S
C1431 H1421 0.930 . S
C1431 C1424 1.409 . S
C1431 C1430 1.362 . S
H1432 C1438 0.930 . S
H1433 C1441 0.930 . S
H1434 C1442 0.930 . S
H1435 C1443 0.930 . S
H1436 C1446 0.930 . S
H1437 C1447 0.930 . S
C1438 H1432 0.930 . S
C1438 C1439 1.355 . S
C1438 C1440 1.415 . S
C1439 C1438 1.355 . S
C1439 C1441 1.419 . S
C1440 C1438 1.415 . S
C1440 C1445 1.425 . S
C1440 C1447 1.409 . S
C1441 H1433 0.930 . S
C1441 C1439 1.419 . S
C1441 C1442 1.362 . S
C1442 H1434 0.930 . S
C1442 C1441 1.362 . S
C1442 C1445 1.409 . S
C1443 H1435 0.930 . S
C1443 C1444 1.355 . S
C1443 C1445 1.415 . S
C1444 C1443 1.355 . S
C1444 C1446 1.419 . S
C1445 C1440 1.425 . S
C1445 C1442 1.409 . S
C1445 C1443 1.415 . S
C1446 H1436 0.930 . S
C1446 C1444 1.419 . S
C1446 C1447 1.362 . S
C1447 H1437 0.930 . S
C1447 C1440 1.409 . S
C1447 C1446 1.362 . S
H1448 C1454 0.930 . S
H1449 C1457 0.930 . S
H1450 C1458 0.930 . S
H1451 C1459 0.930 . S
H1452 C1462 0.930 . S
H1453 C1463 0.930 . S
C1454 H1448 0.930 . S
C1454 C1455 1.355 . S
C1454 C1456 1.415 . S
C1455 C1454 1.355 . S
C1455 C1457 1.419 . S
C1456 C1454 1.415 . S
C1456 C1461 1.425 . S
C1456 C1463 1.409 . S
C1457 H1449 0.930 . S
C1457 C1455 1.419 . S
C1457 C1458 1.362 . S
C1458 H1450 0.930 . S
C1458 C1457 1.362 . S
C1458 C1461 1.409 . S
C1459 H1451 0.930 . S
C1459 C1460 1.355 . S
C1459 C1461 1.415 . S
C1460 C1459 1.355 . S
C1460 C1462 1.419 . S
C1461 C1456 1.425 . S
C1461 C1458 1.409 . S
C1461 C1459 1.415 . S
C1462 H1452 0.930 . S
C1462 C1460 1.419 . S
C1462 C1463 1.362 . S
C1463 H1453 0.930 . S
C1463 C1456 1.409 . S
C1463 C1462 1.362 . S
H1464 C1470 0.930 . S
H1465 C1473 0.930 . S
H1466 C1474 0.930 . S
H1467 C1475 0.930 . S
H1468 C1478 0.930 . S
H1469 C1479 0.930 . S
C1470 H1464 0.930 . S
C1470 C1471 1.355 . S
C1470 C1472 1.415 . S
C1471 C1470 1.355 . S
C1471 C1473 1.419 . S
C1472 C1470 1.415 . S
C1472 C1477 1.425 . S
C1472 C1479 1.409 . S
C1473 H1465 0.930 . S
C1473 C1471 1.419 . S
C1473 C1474 1.362 . S
C1474 H1466 0.930 . S
C1474 C1473 1.362 . S
C1474 C1477 1.409 . S
C1475 H1467 0.930 . S
C1475 C1476 1.355 . S
C1475 C1477 1.415 . S
C1476 C1475 1.355 . S
C1476 C1478 1.419 . S
C1477 C1472 1.425 . S
C1477 C1474 1.409 . S
C1477 C1475 1.415 . S
C1478 H1468 0.930 . S
C1478 C1476 1.419 . S
C1478 C1479 1.362 . S
C1479 H1469 0.930 . S
C1479 C1472 1.409 . S
C1479 C1478 1.362 . S
H1480 C1486 0.930 . S
H1481 C1489 0.930 . S
H1482 C1490 0.930 . S
H1483 C1491 0.930 . S
H1484 C1494 0.930 . S
H1485 C1495 0.930 . S
C1486 H1480 0.930 . S
C1486 C1487 1.355 . S
C1486 C1488 1.415 . S
C1487 C1486 1.355 . S
C1487 C1489 1.419 . S
C1488 C1486 1.415 . S
C1488 C1493 1.425 . S
C1488 C1495 1.409 . S
C1489 H1481 0.930 . S
C1489 C1487 1.419 . S
C1489 C1490 1.362 . S
C1490 H1482 0.930 . S
C1490 C1489 1.362 . S
C1490 C1493 1.409 . S
C1491 H1483 0.930 . S
C1491 C1492 1.355 . S
C1491 C1493 1.415 . S
C1492 C1491 1.355 . S
C1492 C1494 1.419 . S
C1493 C1488 1.425 . S
C1493 C1490 1.409 . S
C1493 C1491 1.415 . S
C1494 H1484 0.930 . S
C1494 C1492 1.419 . S
C1494 C1495 1.362 . S
C1495 H1485 0.930 . S
C1495 C1488 1.409 . S
C1495 C1494 1.362 . S
H1496 C1502 0.930 . S
H1497 C1505 0.930 . S
H1498 C1506 0.930 . S
H1499 C1507 0.930 . S
H1500 C1510 0.930 . S
H1501 C1511 0.930 . S
C1502 H1496 0.930 . S
C1502 C1503 1.355 . S
C1502 C1504 1.415 . S
C1503 C1502 1.355 . S
C1503 C1505 1.419 1_545 S
C1504 C1502 1.415 . S
C1504 C1509 1.425 . S
C1504 C1511 1.409 . S
C1505 H1497 0.930 . S
C1505 C1503 1.419 1_565 S
C1505 C1506 1.362 . S
C1506 H1498 0.930 . S
C1506 C1505 1.362 . S
C1506 C1509 1.409 1_565 S
C1507 H1499 0.930 . S
C1507 C1508 1.355 . S
C1507 C1509 1.415 . S
C1508 C1507 1.355 . S
C1508 C1510 1.419 . S
C1509 C1504 1.425 . S
C1509 C1506 1.409 1_545 S
C1509 C1507 1.415 . S
C1510 H1500 0.930 . S
C1510 C1508 1.419 . S
C1510 C1511 1.362 . S
C1511 H1501 0.930 . S
C1511 C1504 1.409 . S
C1511 C1510 1.362 . S
H1512 C1518 0.930 . S
H1513 C1521 0.930 . S
H1514 C1522 0.930 . S
H1515 C1523 0.930 . S
H1516 C1526 0.930 . S
H1517 C1527 0.930 . S
C1518 H1512 0.930 . S
C1518 C1519 1.355 . S
C1518 C1520 1.415 . S
C1519 C1518 1.355 . S
C1519 C1521 1.419 . S
C1520 C1518 1.415 . S
C1520 C1525 1.425 . S
C1520 C1527 1.409 . S
C1521 H1513 0.930 . S
C1521 C1519 1.419 . S
C1521 C1522 1.362 . S
C1522 H1514 0.930 . S
C1522 C1521 1.362 . S
C1522 C1525 1.409 . S
C1523 H1515 0.930 . S
C1523 C1524 1.355 . S
C1523 C1525 1.415 . S
C1524 C1523 1.355 . S
C1524 C1526 1.419 . S
C1525 C1520 1.425 . S
C1525 C1522 1.409 . S
C1525 C1523 1.415 . S
C1526 H1516 0.930 . S
C1526 C1524 1.419 . S
C1526 C1527 1.362 . S
C1527 H1517 0.930 . S
C1527 C1520 1.409 . S
C1527 C1526 1.362 . S
H1528 C1534 0.930 . S
H1529 C1537 0.930 . S
H1530 C1538 0.930 . S
H1531 C1539 0.930 . S
H1532 C1542 0.930 . S
H1533 C1543 0.930 . S
C1534 H1528 0.930 . S
C1534 C1535 1.355 . S
C1534 C1536 1.415 . S
C1535 C1534 1.355 . S
C1535 C1537 1.419 . S
C1536 C1534 1.415 . S
C1536 C1541 1.425 . S
C1536 C1543 1.409 . S
C1537 H1529 0.930 . S
C1537 C1535 1.419 . S
C1537 C1538 1.362 . S
C1538 H1530 0.930 . S
C1538 C1537 1.362 . S
C1538 C1541 1.409 . S
C1539 H1531 0.930 . S
C1539 C1540 1.355 . S
C1539 C1541 1.415 . S
C1540 C1539 1.355 . S
C1540 C1542 1.419 . S
C1541 C1536 1.425 . S
C1541 C1538 1.409 . S
C1541 C1539 1.415 . S
C1542 H1532 0.930 . S
C1542 C1540 1.419 . S
C1542 C1543 1.362 . S
C1543 H1533 0.930 . S
C1543 C1536 1.409 . S
C1543 C1542 1.362 . S
H1544 C1550 0.930 . S
H1545 C1553 0.930 . S
H1546 C1554 0.930 . S
H1547 C1555 0.930 . S
H1548 C1558 0.930 . S
H1549 C1559 0.930 . S
C1550 H1544 0.930 . S
C1550 C1551 1.355 . S
C1550 C1552 1.415 . S
C1551 C1550 1.355 . S
C1551 C1553 1.419 . S
C1552 C1550 1.415 . S
C1552 C1557 1.425 . S
C1552 C1559 1.409 . S
C1553 H1545 0.930 . S
C1553 C1551 1.419 . S
C1553 C1554 1.362 . S
C1554 H1546 0.930 . S
C1554 C1553 1.362 . S
C1554 C1557 1.409 . S
C1555 H1547 0.930 . S
C1555 C1556 1.355 . S
C1555 C1557 1.415 . S
C1556 C1555 1.355 . S
C1556 C1558 1.419 . S
C1557 C1552 1.425 . S
C1557 C1554 1.409 . S
C1557 C1555 1.415 . S
C1558 H1548 0.930 . S
C1558 C1556 1.419 . S
C1558 C1559 1.362 . S
C1559 H1549 0.930 . S
C1559 C1552 1.409 . S
C1559 C1558 1.362 . S
H1560 C1566 0.930 . S
H1561 C1569 0.930 . S
H1562 C1570 0.930 . S
H1563 C1571 0.930 . S
H1564 C1574 0.930 . S
H1565 C1575 0.930 . S
C1566 H1560 0.930 . S
C1566 C1567 1.355 . S
C1566 C1568 1.415 . S
C1567 C1566 1.355 . S
C1567 C1569 1.419 . S
C1568 C1566 1.415 . S
C1568 C1573 1.425 . S
C1568 C1575 1.409 . S
C1569 H1561 0.930 . S
C1569 C1567 1.419 . S
C1569 C1570 1.362 . S
C1570 H1562 0.930 . S
C1570 C1569 1.362 . S
C1570 C1573 1.409 . S
C1571 H1563 0.930 . S
C1571 C1572 1.355 . S
C1571 C1573 1.415 . S
C1572 C1571 1.355 . S
C1572 C1574 1.419 . S
C1573 C1568 1.425 . S
C1573 C1570 1.409 . S
C1573 C1571 1.415 . S
C1574 H1564 0.930 . S
C1574 C1572 1.419 . S
C1574 C1575 1.362 . S
C1575 H1565 0.930 . S
C1575 C1568 1.409 . S
C1575 C1574 1.362 . S
H1576 C1582 0.930 . S
H1577 C1585 0.930 . S
H1578 C1586 0.930 . S
H1579 C1587 0.930 . S
H1580 C1590 0.930 . S
H1581 C1591 0.930 . S
C1582 H1576 0.930 . S
C1582 C1583 1.355 . S
C1582 C1584 1.415 . S
C1583 C1582 1.355 . S
C1583 C1585 1.419 . S
C1584 C1582 1.415 . S
C1584 C1589 1.425 . S
C1584 C1591 1.409 . S
C1585 H1577 0.930 . S
C1585 C1583 1.419 . S
C1585 C1586 1.362 . S
C1586 H1578 0.930 . S
C1586 C1585 1.362 . S
C1586 C1589 1.409 . S
C1587 H1579 0.930 . S
C1587 C1588 1.355 . S
C1587 C1589 1.415 . S
C1588 C1587 1.355 . S
C1588 C1590 1.419 . S
C1589 C1584 1.425 . S
C1589 C1586 1.409 . S
C1589 C1587 1.415 . S
C1590 H1580 0.930 . S
C1590 C1588 1.419 . S
C1590 C1591 1.362 . S
C1591 H1581 0.930 . S
C1591 C1584 1.409 . S
C1591 C1590 1.362 . S
H1592 C1598 0.930 . S
H1593 C1601 0.930 . S
H1594 C1602 0.930 . S
H1595 C1603 0.930 . S
H1596 C1606 0.930 . S
H1597 C1607 0.930 1_565 S
C1598 H1592 0.930 . S
C1598 C1599 1.355 . S
C1598 C1600 1.415 . S
C1599 C1598 1.355 . S
C1599 C1601 1.419 . S
C1600 C1598 1.415 . S
C1600 C1605 1.425 . S
C1600 C1607 1.409 . S
C1601 H1593 0.930 . S
C1601 C1599 1.419 . S
C1601 C1602 1.362 . S
C1602 H1594 0.930 . S
C1602 C1601 1.362 . S
C1602 C1605 1.409 . S
C1603 H1595 0.930 . S
C1603 C1604 1.355 . S
C1603 C1605 1.415 . S
C1604 C1603 1.355 . S
C1604 C1606 1.419 . S
C1605 C1600 1.425 . S
C1605 C1602 1.409 . S
C1605 C1603 1.415 . S
C1606 H1596 0.930 . S
C1606 C1604 1.419 . S
C1606 C1607 1.362 . S
C1607 H1597 0.930 1_545 S
C1607 C1600 1.409 . S
C1607 C1606 1.362 . S
H1608 C1614 0.930 . S
H1609 C1617 0.930 . S
H1610 C1618 0.930 . S
H1611 C1619 0.930 . S
H1612 C1622 0.930 . S
H1613 C1623 0.930 . S
C1614 H1608 0.930 . S
C1614 C1615 1.355 . S
C1614 C1616 1.415 . S
C1615 C1614 1.355 . S
C1615 C1617 1.419 . S
C1616 C1614 1.415 . S
C1616 C1621 1.425 . S
C1616 C1623 1.409 . S
C1617 H1609 0.930 . S
C1617 C1615 1.419 . S
C1617 C1618 1.362 . S
C1618 H1610 0.930 . S
C1618 C1617 1.362 . S
C1618 C1621 1.409 . S
C1619 H1611 0.930 . S
C1619 C1620 1.355 . S
C1619 C1621 1.415 . S
C1620 C1619 1.355 . S
C1620 C1622 1.419 . S
C1621 C1616 1.425 . S
C1621 C1618 1.409 . S
C1621 C1619 1.415 . S
C1622 H1612 0.930 . S
C1622 C1620 1.419 . S
C1622 C1623 1.362 . S
C1623 H1613 0.930 . S
C1623 C1616 1.409 . S
C1623 C1622 1.362 . S
H1624 C1630 0.930 . S
H1625 C1633 0.930 . S
H1626 C1634 0.930 . S
H1627 C1635 0.930 . S
H1628 C1638 0.930 . S
H1629 C1639 0.930 . S
C1630 H1624 0.930 . S
C1630 C1631 1.355 . S
C1630 C1632 1.415 . S
C1631 C1630 1.355 . S
C1631 C1633 1.419 . S
C1632 C1630 1.415 . S
C1632 C1637 1.425 . S
C1632 C1639 1.409 . S
C1633 H1625 0.930 . S
C1633 C1631 1.419 . S
C1633 C1634 1.362 . S
C1634 H1626 0.930 . S
C1634 C1633 1.362 . S
C1634 C1637 1.409 . S
C1635 H1627 0.930 . S
C1635 C1636 1.355 . S
C1635 C1637 1.415 . S
C1636 C1635 1.355 . S
C1636 C1638 1.419 . S
C1637 C1632 1.425 . S
C1637 C1634 1.409 . S
C1637 C1635 1.415 . S
C1638 H1628 0.930 . S
C1638 C1636 1.419 . S
C1638 C1639 1.362 . S
C1639 H1629 0.930 . S
C1639 C1632 1.409 . S
C1639 C1638 1.362 . S
H1640 C1646 0.930 . S
H1641 C1649 0.930 . S
H1642 C1650 0.930 . S
H1643 C1651 0.930 . S
H1644 C1654 0.930 . S
H1645 C1655 0.930 . S
C1646 H1640 0.930 . S
C1646 C1647 1.355 . S
C1646 C1648 1.415 . S
C1647 C1646 1.355 . S
C1647 C1649 1.419 . S
C1648 C1646 1.415 . S
C1648 C1653 1.425 . S
C1648 C1655 1.409 . S
C1649 H1641 0.930 . S
C1649 C1647 1.419 . S
C1649 C1650 1.362 . S
C1650 H1642 0.930 . S
C1650 C1649 1.362 . S
C1650 C1653 1.409 . S
C1651 H1643 0.930 . S
C1651 C1652 1.355 . S
C1651 C1653 1.415 . S
C1652 C1651 1.355 . S
C1652 C1654 1.419 . S
C1653 C1648 1.425 . S
C1653 C1650 1.409 . S
C1653 C1651 1.415 . S
C1654 H1644 0.930 . S
C1654 C1652 1.419 . S
C1654 C1655 1.362 . S
C1655 H1645 0.930 . S
C1655 C1648 1.409 . S
C1655 C1654 1.362 . S
H1656 C1662 0.930 . S
H1657 C1665 0.930 . S
H1658 C1666 0.930 . S
H1659 C1667 0.930 . S
H1660 C1670 0.930 . S
H1661 C1671 0.930 . S
C1662 H1656 0.930 . S
C1662 C1663 1.355 . S
C1662 C1664 1.415 . S
C1663 C1662 1.355 . S
C1663 C1665 1.419 . S
C1664 C1662 1.415 . S
C1664 C1669 1.425 . S
C1664 C1671 1.409 . S
C1665 H1657 0.930 . S
C1665 C1663 1.419 . S
C1665 C1666 1.362 . S
C1666 H1658 0.930 . S
C1666 C1665 1.362 . S
C1666 C1669 1.409 . S
C1667 H1659 0.930 . S
C1667 C1668 1.355 . S
C1667 C1669 1.415 . S
C1668 C1667 1.355 . S
C1668 C1670 1.419 . S
C1669 C1664 1.425 . S
C1669 C1666 1.409 . S
C1669 C1667 1.415 . S
C1670 H1660 0.930 . S
C1670 C1668 1.419 . S
C1670 C1671 1.362 . S
C1671 H1661 0.930 . S
C1671 C1664 1.409 . S
C1671 C1670 1.362 . S
H1672 C1678 0.930 . S
H1673 C1681 0.930 . S
H1674 C1682 0.930 . S
H1675 C1683 0.930 . S
H1676 C1686 0.930 . S
H1677 C1687 0.930 . S
C1678 H1672 0.930 . S
C1678 C1679 1.355 . S
C1678 C1680 1.415 . S
C1679 C1678 1.355 . S
C1679 C1681 1.419 1_554 S
C1680 C1678 1.415 . S
C1680 C1685 1.425 . S
C1680 C1687 1.409 . S
C1681 H1673 0.930 . S
C1681 C1679 1.419 1_556 S
C1681 C1682 1.362 . S
C1682 H1674 0.930 . S
C1682 C1681 1.362 . S
C1682 C1685 1.409 1_556 S
C1683 H1675 0.930 . S
C1683 C1684 1.355 . S
C1683 C1685 1.415 . S
C1684 C1683 1.355 . S
C1684 C1686 1.419 . S
C1685 C1680 1.425 . S
C1685 C1682 1.409 1_554 S
C1685 C1683 1.415 . S
C1686 H1676 0.930 . S
C1686 C1684 1.419 . S
C1686 C1687 1.362 . S
C1687 H1677 0.930 . S
C1687 C1680 1.409 . S
C1687 C1686 1.362 . S
H1688 C1694 0.930 . S
H1689 C1697 0.930 . S
H1690 C1698 0.930 1_655 S
H1691 C1699 0.930 1_655 S
H1692 C1702 0.930 . S
H1693 C1703 0.930 . S
C1694 H1688 0.930 . S
C1694 C1695 1.355 . S
C1694 C1696 1.415 . S
C1695 C1694 1.355 . S
C1695 C1697 1.419 . S
C1696 C1694 1.415 . S
C1696 C1701 1.425 . S
C1696 C1703 1.409 . S
C1697 H1689 0.930 . S
C1697 C1695 1.419 . S
C1697 C1698 1.362 . S
C1698 H1690 0.930 1_455 S
C1698 C1697 1.362 . S
C1698 C1701 1.409 . S
C1699 H1691 0.930 1_455 S
C1699 C1700 1.355 . S
C1699 C1701 1.415 . S
C1700 C1699 1.355 . S
C1700 C1702 1.419 . S
C1701 C1696 1.425 . S
C1701 C1698 1.409 . S
C1701 C1699 1.415 . S
C1702 H1692 0.930 . S
C1702 C1700 1.419 . S
C1702 C1703 1.362 . S
C1703 H1693 0.930 . S
C1703 C1696 1.409 . S
C1703 C1702 1.362 . S
H1704 C1710 0.930 . S
H1705 C1713 0.930 . S
H1706 C1714 0.930 . S
H1707 C1715 0.930 . S
H1708 C1718 0.930 . S
H1709 C1719 0.930 . S
C1710 H1704 0.930 . S
C1710 C1711 1.355 . S
C1710 C1712 1.415 . S
C1711 C1710 1.355 . S
C1711 C1713 1.419 . S
C1712 C1710 1.415 . S
C1712 C1717 1.425 . S
C1712 C1719 1.409 . S
C1713 H1705 0.930 . S
C1713 C1711 1.419 . S
C1713 C1714 1.362 . S
C1714 H1706 0.930 . S
C1714 C1713 1.362 . S
C1714 C1717 1.409 . S
C1715 H1707 0.930 . S
C1715 C1716 1.355 . S
C1715 C1717 1.415 . S
C1716 C1715 1.355 . S
C1716 C1718 1.419 . S
C1717 C1712 1.425 . S
C1717 C1714 1.409 . S
C1717 C1715 1.415 . S
C1718 H1708 0.930 . S
C1718 C1716 1.419 . S
C1718 C1719 1.362 . S
C1719 H1709 0.930 . S
C1719 C1712 1.409 . S
C1719 C1718 1.362 . S
H1720 C1726 0.930 . S
H1721 C1729 0.930 . S
H1722 C1730 0.930 . S
H1723 C1731 0.930 . S
H1724 C1734 0.930 . S
H1725 C1735 0.930 . S
C1726 H1720 0.930 . S
C1726 C1727 1.355 . S
C1726 C1728 1.415 . S
C1727 C1726 1.355 . S
C1727 C1729 1.419 . S
C1728 C1726 1.415 . S
C1728 C1733 1.425 . S
C1728 C1735 1.409 . S
C1729 H1721 0.930 . S
C1729 C1727 1.419 . S
C1729 C1730 1.362 . S
C1730 H1722 0.930 . S
C1730 C1729 1.362 . S
C1730 C1733 1.409 . S
C1731 H1723 0.930 . S
C1731 C1732 1.355 . S
C1731 C1733 1.415 . S
C1732 C1731 1.355 . S
C1732 C1734 1.419 . S
C1733 C1728 1.425 . S
C1733 C1730 1.409 . S
C1733 C1731 1.415 . S
C1734 H1724 0.930 . S
C1734 C1732 1.419 . S
C1734 C1735 1.362 . S
C1735 H1725 0.930 . S
C1735 C1728 1.409 . S
C1735 C1734 1.362 . S
H1736 C1742 0.930 . S
H1737 C1745 0.930 . S
H1738 C1746 0.930 . S
H1739 C1747 0.930 . S
H1740 C1750 0.930 . S
H1741 C1751 0.930 . S
C1742 H1736 0.930 . S
C1742 C1743 1.355 . S
C1742 C1744 1.415 . S
C1743 C1742 1.355 . S
C1743 C1745 1.419 . S
C1744 C1742 1.415 . S
C1744 C1749 1.425 . S
C1744 C1751 1.409 . S
C1745 H1737 0.930 . S
C1745 C1743 1.419 . S
C1745 C1746 1.362 . S
C1746 H1738 0.930 . S
C1746 C1745 1.362 . S
C1746 C1749 1.409 . S
C1747 H1739 0.930 . S
C1747 C1748 1.355 . S
C1747 C1749 1.415 . S
C1748 C1747 1.355 . S
C1748 C1750 1.419 . S
C1749 C1744 1.425 . S
C1749 C1746 1.409 . S
C1749 C1747 1.415 . S
C1750 H1740 0.930 . S
C1750 C1748 1.419 . S
C1750 C1751 1.362 . S
C1751 H1741 0.930 . S
C1751 C1744 1.409 . S
C1751 C1750 1.362 . S
C799 C21 1.009 . S
C804 C681 1.041 . S
C815 C582 1.091 . S
C820 C54 1.067 . S
C831 C615 1.010 . S
C836 C87 0.982 . S
C847 C648 1.074 . S
C852 C120 1.096 . S
C863 C153 0.973 . S
C868 C780 0.997 . S
C879 C714 0.968 . S
C884 C186 0.960 . S
C895 C747 1.052 . S
C900 C219 1.020 . S
C911 C549 0.961 . S
C916 C252 0.972 . S
C927 C285 1.011 . S
C932 C516 0.983 . S
C943 C417 0.992 . S
C948 C318 0.970 . S
C959 C351 1.029 . S
C964 C450 1.061 . S
C975 C483 0.963 . S
C980 C384 0.961 . S
C991 C634 1.649 . S
C996 N13 1.297 . S
C1007 N46 1.388 . S
C1012 C667 1.675 . S
C1023 C568 1.633 . S
C1028 N79 1.246 . S
C1039 N112 1.242 . S
C1044 C601 1.630 . S
C1055 C700 1.637 . S
C1060 N145 1.260 . S
C1071 C733 1.643 . S
C1076 N178 1.292 . S
C1087 C535 1.660 . S
C1092 N211 1.349 . S
C1103 N244 1.389 . S
C1108 C766 1.674 . S
C1119 N277 1.242 . S
C1124 C73 1.631 . S
C1135 N310 1.374 . S
C1140 C106 1.668 . S
C1151 N343 1.296 . S
C1156 C7 1.648 . S
C1167 C40 1.635 . S
C1172 N376 1.262 . S
C1183 N409 1.343 . S
C1188 C205 1.658 . S
C1199 C238 1.656 . S
C1204 N442 1.334 . S
C1215 C139 1.649 . S
C1220 N475 1.312 . S
C1231 C172 1.645 . S
C1236 N508 1.284 . S
C1247 C403 1.675 . S
C1252 N541 1.390 . S
C1263 C271 1.633 . S
C1268 N574 1.245 . S
C1279 N607 1.325 . S
C1284 C304 1.653 . S
C1295 N640 1.360 . S
C1300 C337 1.664 . S
C1311 C370 1.665 . S
C1316 N673 1.363 . S
C1327 N706 1.314 . S
C1332 C469 1.654 . S
C1343 C502 1.646 . S
C1348 N739 1.304 . S
C1359 N772 1.300 . S
C1364 C436 1.646 . S
C1375 C18 1.291 . S
C1380 C744 1.246 1_455 S
C1391 C546 1.245 . S
C1396 C51 1.292 1_554 S
C1407 C84 1.290 . S
C1412 C777 1.229 . S
C1423 C711 1.275 . S
C1428 C117 1.223 . S
C1439 C150 1.291 . S
C1444 C612 1.246 . S
C1455 C645 1.225 . S
C1460 C183 1.268 . S
C1471 C216 1.259 . S
C1476 C678 1.229 . S
C1487 C579 1.240 . S
C1492 C249 1.292 . S
C1503 C447 1.224 1_545 S
C1508 C282 1.280 . S
C1519 C480 1.249 . S
C1524 C315 1.235 . S
C1535 C348 1.264 . S
C1540 C513 1.226 . S
C1551 C381 1.246 . S
C1556 C414 1.238 . S
C1567 N497 0.764 . S
C1572 N2 0.628 . S
C1583 N35 0.574 . S
C1588 N398 0.748 . S
C1599 N431 0.682 . S
C1604 N68 0.529 . S
C1615 N464 0.636 . S
C1620 N101 0.537 . S
C1631 N134 0.532 . S
C1636 N299 0.649 . S
C1647 N332 0.662 . S
C1652 N167 0.762 . S
C1663 N200 0.758 . S
C1668 N365 0.681 . S
C1679 N266 0.755 . S
C1684 N233 0.588 . S
C1695 N662 0.580 . S
C1700 N530 0.575 . S
C1711 N761 0.645 . S
C1716 N563 0.534 . S
C1727 N695 0.550 . S
C1732 N596 0.611 . S
C1743 N728 0.529 . S
C1748 N629 0.682 . S
