# Generated by pormake.
# Topology xbj, (5)-cn, num edge types: 1
# Building blocks:
#     Node 0, Type 0, BuildingBlock: BEQFEK_clean_sbu_0, # of connection points: 5
#     Node 1, Type 0, BuildingBlock: BEQFEK_clean_sbu_0, # of connection points: 5
#     Node 2, Type 0, BuildingBlock: BEQFEK_clean_sbu_0, # of connection points: 5
#     Node 3, Type 0, BuildingBlock: BEQFEK_clean_sbu_0, # of connection points: 5
#     Node 4, Type 0, BuildingBlock: BEQFEK_clean_sbu_0, # of connection points: 5
#     Node 5, Type 0, BuildingBlock: BEQFEK_clean_sbu_0, # of connection points: 5
#     Node 6, Type 0, BuildingBlock: BEQFEK_clean_sbu_0, # of connection points: 5
#     Node 7, Type 0, BuildingBlock: BEQFEK_clean_sbu_0, # of connection points: 5
#     Edge 8, Type (0, 0), BuildingBlock: CIFDUS_clean_linker_0, # of connection points: 2
#     Edge 9, Type (0, 0), BuildingBlock: CIFDUS_clean_linker_0, # of connection points: 2
#     Edge 10, Type (0, 0), BuildingBlock: CIFDUS_clean_linker_0, # of connection points: 2
#     Edge 11, Type (0, 0), BuildingBlock: CIFDUS_clean_linker_0, # of connection points: 2
#     Edge 12, Type (0, 0), BuildingBlock: CIFDUS_clean_linker_0, # of connection points: 2
#     Edge 13, Type (0, 0), BuildingBlock: CIFDUS_clean_linker_0, # of connection points: 2
#     Edge 14, Type (0, 0), BuildingBlock: CIFDUS_clean_linker_0, # of connection points: 2
#     Edge 15, Type (0, 0), BuildingBlock: CIFDUS_clean_linker_0, # of connection points: 2
#     Edge 16, Type (0, 0), BuildingBlock: CIFDUS_clean_linker_0, # of connection points: 2
#     Edge 17, Type (0, 0), BuildingBlock: CIFDUS_clean_linker_0, # of connection points: 2
#     Edge 18, Type (0, 0), BuildingBlock: CIFDUS_clean_linker_0, # of connection points: 2
#     Edge 19, Type (0, 0), BuildingBlock: CIFDUS_clean_linker_0, # of connection points: 2
#     Edge 20, Type (0, 0), BuildingBlock: CIFDUS_clean_linker_0, # of connection points: 2
#     Edge 21, Type (0, 0), BuildingBlock: CIFDUS_clean_linker_0, # of connection points: 2
#     Edge 22, Type (0, 0), BuildingBlock: CIFDUS_clean_linker_0, # of connection points: 2
#     Edge 23, Type (0, 0), BuildingBlock: CIFDUS_clean_linker_0, # of connection points: 2
#     Edge 24, Type (0, 0), BuildingBlock: CIFDUS_clean_linker_0, # of connection points: 2
#     Edge 25, Type (0, 0), BuildingBlock: CIFDUS_clean_linker_0, # of connection points: 2
#     Edge 26, Type (0, 0), BuildingBlock: CIFDUS_clean_linker_0, # of connection points: 2
#     Edge 27, Type (0, 0), BuildingBlock: CIFDUS_clean_linker_0, # of connection points: 2
# Relax obj value: 0.040
# Max RMSD: 0.114
# Mean RMSD: 0.111
data_MOF--net-xbj--node1-BEQFEK_clean_sbu_0--edge1-CIFDUS_clean_linker_0
_symmetry_space_group_name_H-M    P1
_symmetry_Int_Tables_number       1
_symmetry_cell_setting            triclinic
loop_
_symmetry_equiv_pos_as_xyz
'x, y, z'
_cell_length_a     17.731632
_cell_length_b     17.811946
_cell_length_c     98.273896
_cell_angle_alpha  91.28355
_cell_angle_beta   91.186796
_cell_angle_gamma 89.815608
loop_
_atom_site_label
_atom_site_type_symbol
_atom_site_fract_x
_atom_site_fract_y
_atom_site_fract_z
_atom_type_partial_charge
Co0 Co 0.22096 0.77087 0.04106 0.0
Co1 Co 0.04187 0.75048 0.03865 0.0
C2 C 0.11529 0.88954 0.02965 0.0
O3 O 0.18082 0.86453 0.03286 0.0
O4 O 0.05556 0.85238 0.03183 0.0
C5 C 0.37532 0.83104 0.04751 0.0
O6 O 0.34467 0.89688 0.05014 0.0
C7 C 0.8719 0.76302 0.03922 0.0
C8 C 0.84377 0.64448 0.04276 0.0
C9 C 0.8113 0.71456 0.04102 0.0
N10 N 0.93672 0.72308 0.04005 0.0
N11 N 0.91898 0.65233 0.04213 0.0
C12 C 0.86844 0.84442 0.03584 0.0
H13 H 0.91237 0.85737 0.02841 0.0
H14 H 0.87967 0.87863 0.04524 0.0
H15 H 0.81247 0.85988 0.03149 0.0
C16 C 0.18952 0.7332 0.0696 0.0
N17 N 0.16678 0.7455 0.05669 0.0
N18 N 0.09271 0.74069 0.0558 0.0
C19 C 0.06581 0.72806 0.06826 0.0
C20 C 0.12619 0.72166 0.07741 0.0
C21 C 0.27053 0.72984 0.07413 0.0
H22 H 0.30453 0.70218 0.0661 0.0
H23 H 0.29199 0.78786 0.07578 0.0
H24 H 0.27758 0.69851 0.0837 0.0
O25 O 0.20894 0.69233 0.02709 0.0
O26 O 0.08476 0.68102 0.02454 0.0
H27 H 0.95864 0.67426 0.06948 0.0
H28 H 0.97529 0.74588 0.08243 0.0
C29 C 0.98375 0.73038 0.07158 0.0
H30 H 0.95404 0.77213 0.0652 0.0
H31 H 0.95853 0.60917 0.04312 0.0
O32 O 0.33311 0.77559 0.04423 0.0
C33 C 0.15158 0.66349 0.0211 0.0
Co34 Co 0.59798 0.80885 0.28963 0.0
Co35 Co 0.59942 0.62943 0.29008 0.0
C36 C 0.47004 0.71283 0.27814 0.0
O37 O 0.50226 0.77518 0.28107 0.0
O38 O 0.49985 0.6498 0.2812 0.0
C39 C 0.53736 0.96065 0.29363 0.0
O40 O 0.472 0.92703 0.29473 0.0
C41 C 0.5849 0.45966 0.29108 0.0
C42 C 0.70384 0.43362 0.29624 0.0
C43 C 0.63495 0.4001 0.29328 0.0
N44 N 0.62313 0.52487 0.29277 0.0
N45 N 0.69404 0.50825 0.29584 0.0
C46 C 0.50442 0.4547 0.2863 0.0
H47 H 0.48759 0.50596 0.28082 0.0
H48 H 0.46793 0.44957 0.29527 0.0
H49 H 0.4956 0.40461 0.27955 0.0
C50 C 0.61879 0.78744 0.31926 0.0
N51 N 0.61281 0.7599 0.30641 0.0
N52 N 0.61139 0.68598 0.30664 0.0
C53 C 0.61614 0.66414 0.31966 0.0
C54 C 0.62106 0.72767 0.3281 0.0
C55 C 0.61446 0.86937 0.32289 0.0
H56 H 0.55854 0.89125 0.31961 0.0
H57 H 0.62183 0.88044 0.33398 0.0
H58 H 0.6581 0.90005 0.31732 0.0
O59 O 0.67781 0.78366 0.27643 0.0
O60 O 0.6742 0.65939 0.27687 0.0
H61 H 0.67187 0.5582 0.32092 0.0
H62 H 0.61181 0.57751 0.33494 0.0
C63 C 0.61731 0.58371 0.32382 0.0
H64 H 0.57141 0.55241 0.31838 0.0
H65 H 0.73637 0.54828 0.2974 0.0
O66 O 0.59645 0.92104 0.29185 0.0
C67 C 0.70029 0.7196 0.27216 0.0
Co68 Co 0.70761 0.28745 0.5397 0.0
Co69 Co 0.52823 0.27693 0.5402 0.0
C70 C 0.60214 0.39009 0.5237 0.0
O71 O 0.66653 0.36551 0.5276 0.0
O72 O 0.54089 0.36388 0.52823 0.0
C73 C 0.85977 0.32375 0.53255 0.0
O74 O 0.82667 0.34252 0.52104 0.0
C75 C 0.36062 0.29647 0.54211 0.0
C76 C 0.33081 0.1871 0.55068 0.0
C77 C 0.29983 0.25431 0.54643 0.0
N78 N 0.42423 0.25566 0.54376 0.0
N79 N 0.4056 0.19029 0.54881 0.0
C80 C 0.35932 0.37546 0.53727 0.0
H81 H 0.4124 0.4045 0.54039 0.0
H82 H 0.31032 0.4068 0.5414 0.0
H83 H 0.35505 0.37462 0.52599 0.0
C84 C 0.68637 0.29231 0.56941 0.0
N85 N 0.65855 0.28974 0.55656 0.0
N86 N 0.58435 0.28896 0.5568 0.0
C87 C 0.56259 0.29272 0.56985 0.0
C88 C 0.62642 0.29425 0.57828 0.0
C89 C 0.76869 0.28749 0.57298 0.0
H90 H 0.79632 0.24585 0.56614 0.0
H91 H 0.79509 0.34296 0.57142 0.0
H92 H 0.77837 0.27106 0.58369 0.0
O93 O 0.68996 0.19208 0.52986 0.0
O94 O 0.56473 0.18858 0.52957 0.0
H95 H 0.45753 0.24101 0.5742 0.0
H96 H 0.47816 0.32354 0.58453 0.0
C97 C 0.48224 0.29812 0.57416 0.0
H98 H 0.44925 0.3327 0.56692 0.0
H99 H 0.44431 0.14792 0.5511 0.0
O100 O 0.81942 0.30017 0.54213 0.0
C101 C 0.62815 0.16114 0.52613 0.0
Co102 Co 0.08768 0.30941 0.79183 0.0
Co103 Co 0.11231 0.135 0.79013 0.0
C104 C 0.97803 0.20973 0.77706 0.0
O105 O 0.99857 0.2751 0.78115 0.0
O106 O 0.01547 0.1512 0.78019 0.0
C107 C 0.04459 0.46691 0.7902 0.0
O108 O 0.99878 0.44634 0.78013 0.0
C109 C 0.07865 0.97476 0.79191 0.0
C110 C 0.19277 0.92461 0.79236 0.0
C111 C 0.11677 0.90675 0.7923 0.0
N112 N 0.12975 0.03018 0.79165 0.0
N113 N 0.19789 -0.00013 0.79192 0.0
C114 C 0.99534 0.9875 0.79234 0.0
H115 H 0.98303 0.04211 0.79749 0.0
H116 H 0.96724 0.94147 0.79771 0.0
H117 H 0.97233 0.9891 0.78177 0.0
C118 C 0.10263 0.28027 0.82106 0.0
N119 N 0.10062 0.25597 0.80802 0.0
N120 N 0.1139 0.18336 0.8075 0.0
C121 C 0.12639 0.15914 0.82026 0.0
C122 C 0.11994 0.22005 0.82929 0.0
C123 C 0.08468 0.3592 0.8255 0.0
H124 H 0.0356 0.38018 0.81951 0.0
H125 H 0.07125 0.36302 0.83647 0.0
H126 H 0.13375 0.39565 0.82355 0.0
O127 O 0.17462 0.29745 0.77983 0.0
O128 O 0.1909 0.17403 0.77828 0.0
H129 H 0.16587 0.07483 0.83439 0.0
H130 H 0.10178 0.04195 0.82097 0.0
C131 C 0.14926 0.08051 0.82352 0.0
H132 H 0.19768 0.06362 0.81719 0.0
H133 H 0.24778 0.03057 0.7917 0.0
O134 O 0.0836 0.41762 0.7963 0.0
C135 C 0.20851 0.24024 0.77496 0.0
Co136 Co 0.04697 0.25336 0.94836 0.0
Co137 Co 0.22599 0.25187 0.94727 0.0
C138 C 0.14339 0.38609 0.95734 0.0
O139 O 0.08078 0.35248 0.95521 0.0
O140 O 0.20639 0.35517 0.95447 0.0
C141 C 0.89566 0.31209 0.94343 0.0
O142 O 0.9299 0.37546 0.94093 0.0
C143 C 0.39568 0.26546 0.94596 0.0
C144 C 0.42208 0.14531 0.94245 0.0
C145 C 0.45544 0.21488 0.94448 0.0
N146 N 0.33036 0.22688 0.94473 0.0
N147 N 0.34711 0.15527 0.94265 0.0
C148 C 0.40052 0.34709 0.94977 0.0
H149 H 0.34982 0.36535 0.95536 0.0
H150 H 0.40369 0.38006 0.94035 0.0
H151 H 0.45171 0.35879 0.95614 0.0
C152 C 0.06487 0.21392 0.9192 0.0
N153 N 0.09403 0.22897 0.93172 0.0
N154 N 0.16815 0.2302 0.93114 0.0
C155 C 0.18856 0.21621 0.91819 0.0
C156 C 0.12379 0.20515 0.91019 0.0
C157 C 0.98214 0.21561 0.91585 0.0
H158 H 0.95226 0.17684 0.92257 0.0
H159 H 0.96034 0.2731 0.91786 0.0
H160 H 0.96955 0.20021 0.90506 0.0
O161 O 0.07312 0.18084 0.96273 0.0
O162 O 0.19774 0.18497 0.96183 0.0
H163 H 0.29418 0.15892 0.9174 0.0
H164 H 0.27372 0.21141 0.90252 0.0
C165 C 0.26879 0.21183 0.91373 0.0
H166 H 0.30136 0.25956 0.91827 0.0
H167 H 0.30695 0.11265 0.94171 0.0
O168 O 0.93488 0.2545 0.94639 0.0
C169 C 0.13802 0.16115 0.96715 0.0
Co170 Co 0.07958 0.63548 0.19524 0.0
Co171 Co 0.10154 0.81464 0.19723 0.0
C172 C 0.96684 0.7435 0.20838 0.0
O173 O 0.99056 0.67817 0.20487 0.0
O174 O 0.00254 0.80289 0.20551 0.0
C175 C 0.03455 0.48294 0.20024 0.0
O176 O 0.00348 0.51574 0.21085 0.0
C177 C 0.08566 0.98272 0.19523 0.0
C178 C 0.2046 0.01386 0.19241 0.0
C179 C 0.13267 0.0441 0.19321 0.0
N180 N 0.12822 0.91965 0.19556 0.0
N181 N 0.19926 0.93923 0.19396 0.0
C182 C 0.00144 0.98293 0.19578 0.0
H183 H 0.97858 0.92885 0.19172 0.0
H184 H 0.97721 0.03002 0.1899 0.0
H185 H 0.98444 0.98972 0.20655 0.0
C186 C 0.11093 0.66582 0.16641 0.0
N187 N 0.09981 0.68938 0.17933 0.0
N188 N 0.10497 0.76317 0.18004 0.0
C189 C 0.11676 0.78899 0.16749 0.0
C190 C 0.12211 0.72822 0.15844 0.0
C191 C 0.11567 0.58482 0.16211 0.0
H192 H 0.1441 0.5522 0.17023 0.0
H193 H 0.05776 0.56236 0.16055 0.0
H194 H 0.14717 0.57737 0.15254 0.0
O195 O 0.16432 0.64615 0.20811 0.0
O196 O 0.17548 0.77024 0.21042 0.0
H197 H 0.17342 0.89444 0.16656 0.0
H198 H 0.10355 0.87904 0.15318 0.0
C199 C 0.11696 0.87054 0.16411 0.0
H200 H 0.07447 0.90105 0.17023 0.0
H201 H 0.24413 0.90124 0.1937 0.0
O202 O 0.06771 0.52367 0.19171 0.0
C203 C 0.1948 0.70383 0.21369 0.0
Co204 Co 0.58967 0.77668 0.44598 0.0
Co205 Co 0.7646 0.75887 0.44744 0.0
C206 C 0.68406 0.88006 0.46314 0.0
O207 O 0.61992 0.85942 0.45838 0.0
O208 O 0.74481 0.84751 0.45953 0.0
C209 C 0.43397 0.82681 0.44653 0.0
O210 O 0.45639 0.87772 0.4556 0.0
C211 C 0.92416 0.79758 0.446 0.0
C212 C 0.97665 0.68527 0.44392 0.0
C213 C 0.99302 0.76124 0.44485 0.0
N214 N 0.86973 0.74536 0.4458 0.0
N215 N 0.90138 0.67836 0.44459 0.0
C216 C 0.90936 0.88027 0.44663 0.0
H217 H 0.85322 0.89284 0.442 0.0
H218 H 0.95379 0.91126 0.4413 0.0
H219 H 0.90923 0.89952 0.45744 0.0
C220 C 0.62097 0.78519 0.41669 0.0
N221 N 0.64419 0.77771 0.4297 0.0
N222 N 0.71758 0.76762 0.43012 0.0
C223 C 0.74346 0.76614 0.41731 0.0
C224 C 0.68292 0.77734 0.40833 0.0
C225 C 0.54146 0.80366 0.41251 0.0
H226 H 0.51841 0.84691 0.41959 0.0
H227 H 0.53798 0.82519 0.40201 0.0
H228 H 0.50627 0.75248 0.41311 0.0
O229 O 0.60421 0.68339 0.45627 0.0
O230 O 0.72854 0.67058 0.45691 0.0
H231 H 0.84268 0.69856 0.41948 0.0
H232 H 0.82991 0.73627 0.40279 0.0
C233 C 0.82343 0.74837 0.41381 0.0
H234 H 0.85991 0.79645 0.41696 0.0
H235 H 0.87152 0.62797 0.44423 0.0
O236 O 0.48151 0.78124 0.4415 0.0
C237 C 0.6633 0.64823 0.46003 0.0
Co238 Co 0.59238 0.14563 0.69586 0.0
Co239 Co 0.58491 0.32036 0.69693 0.0
C240 C 0.46862 0.23181 0.71012 0.0
O241 O 0.50089 0.1716 0.70609 0.0
O242 O 0.49368 0.29621 0.70713 0.0
C243 C 0.55559 0.99111 0.69882 0.0
O244 O 0.51918 0.01524 0.70958 0.0
C245 C 0.55033 0.48218 0.69706 0.0
C246 C 0.65938 0.52634 0.69023 0.0
C247 C 0.58818 0.54804 0.69433 0.0
N248 N 0.59747 0.4244 0.69471 0.0
N249 N 0.66243 0.45114 0.69064 0.0
C250 C 0.47003 0.47334 0.7011 0.0
H251 H 0.4458 0.42186 0.69621 0.0
H252 H 0.43559 0.5227 0.69814 0.0
H253 H 0.46803 0.46722 0.7123 0.0
C254 C 0.59894 0.17347 0.66636 0.0
N255 N 0.59516 0.19764 0.67941 0.0
N256 N 0.58728 0.27097 0.67976 0.0
C257 C 0.58423 0.29596 0.66693 0.0
C258 C 0.59201 0.23503 0.65799 0.0
C259 C 0.61171 0.09325 0.66214 0.0
H260 H 0.6549 0.06783 0.66896 0.0
H261 H 0.55839 0.06158 0.66314 0.0
H262 H 0.63074 0.08818 0.65147 0.0
O263 O 0.67967 0.16792 0.70807 0.0
O264 O 0.67118 0.29207 0.70859 0.0
H265 H 0.6219 0.40785 0.66374 0.0
H266 H 0.54357 0.37934 0.65287 0.0
C267 C 0.56839 0.37573 0.66329 0.0
H268 H 0.52884 0.40161 0.67063 0.0
H269 H 0.70896 0.41785 0.68821 0.0
O270 O 0.59089 0.03757 0.69173 0.0
C271 C 0.70269 0.23179 0.71242 0.0
H272 H 0.20454 0.79365 0.09781 0.0
H273 H 0.0391 0.62018 0.09008 0.0
H274 H 0.02306 0.60634 0.11453 0.0
H275 H 0.05162 0.64845 0.13806 0.0
H276 H 0.2263 0.81268 0.14581 0.0
H277 H 0.24372 0.82508 0.12137 0.0
C278 C 0.16626 0.75168 0.10149 0.0
C279 C 0.12247 0.70858 0.09219 0.0
C280 C 0.15861 0.74288 0.11554 0.0
C281 C 0.0723 0.65509 0.09708 0.0
C282 C 0.06337 0.64689 0.11104 0.0
C283 C 0.09451 0.68579 0.1344 0.0
C284 C 0.13683 0.73038 0.14369 0.0
C285 C 0.10552 0.69121 0.12036 0.0
C286 C 0.19175 0.7791 0.13881 0.0
C287 C 0.20209 0.78587 0.12486 0.0
H288 H 0.58627 0.70227 0.39142 0.0
H289 H 0.77888 0.84932 0.39158 0.0
H290 H 0.77847 0.84513 0.36664 0.0
H291 H 0.7222 0.7996 0.34477 0.0
H292 H 0.52123 0.66422 0.34491 0.0
H293 H 0.52505 0.66451 0.3698 0.0
C294 C 0.62751 0.73421 0.38599 0.0
C295 C 0.68271 0.77574 0.39328 0.0
C296 C 0.62526 0.73353 0.37174 0.0
C297 C 0.73659 0.81594 0.38615 0.0
C298 C 0.736 0.81401 0.37191 0.0
C299 C 0.67907 0.77078 0.35031 0.0
C300 C 0.62225 0.73091 0.34313 0.0
C301 C 0.68051 0.77301 0.36461 0.0
C302 C 0.56641 0.69384 0.35031 0.0
C303 C 0.56835 0.69434 0.3645 0.0
H304 H 0.55062 0.20075 0.59432 0.0
H305 H 0.7092 0.38372 0.59572 0.0
H306 H 0.71394 0.38054 0.62064 0.0
H307 H 0.67191 0.3258 0.64199 0.0
H308 H 0.50951 0.1461 0.64049 0.0
H309 H 0.50706 0.14759 0.6156 0.0
C310 C 0.58562 0.2403 0.60012 0.0
C311 C 0.62937 0.29251 0.5933 0.0
C312 C 0.58744 0.23844 0.61437 0.0
C313 C 0.67553 0.34272 0.60083 0.0
C314 C 0.67799 0.34107 0.61504 0.0
C315 C 0.63573 0.28739 0.63617 0.0
C316 C 0.59116 0.23575 0.64297 0.0
C317 C 0.63405 0.28925 0.62191 0.0
C318 C 0.54502 0.18563 0.63541 0.0
C319 C 0.54329 0.18677 0.62121 0.0
H320 H 0.18535 0.29237 0.89133 0.0
H321 H 0.0492 0.09494 0.89578 0.0
H322 H 0.03602 0.08092 0.87096 0.0
H323 H 0.06097 0.12782 0.848 0.0
H324 H 0.20725 0.31849 0.84386 0.0
H325 H 0.22004 0.33176 0.86858 0.0
C326 C 0.15406 0.24548 0.88683 0.0
C327 C 0.1184 0.19464 0.89526 0.0
C328 C 0.14861 0.23678 0.87265 0.0
C329 C 0.07661 0.135 0.8894 0.0
C330 C 0.06938 0.12685 0.87525 0.0
C331 C 0.09665 0.17132 0.85255 0.0
C332 C 0.13252 0.22261 0.8442 0.0
C333 C 0.1049 0.17768 0.86677 0.0
C334 C 0.1781 0.27921 0.85015 0.0
C335 C 0.18562 0.28669 0.86425 0.0
H336 H 0.05462 0.63414 -6e-05 0.0
H337 H 0.27752 0.58159 0.01551 0.0
H338 H 0.29993 0.50029 -0.00432 0.0
H339 H 0.25251 0.43667 0.97488 0.0
H340 H 0.02875 0.48731 0.95952 0.0
H341 H 0.01146 0.57891 0.97805 0.0
C342 C 0.10791 0.60455 -0.00098 0.0
C343 C 0.16373 0.61269 0.00929 0.0
C344 C 0.12081 0.55863 0.98752 0.0
C345 C 0.23328 0.57554 0.0078 0.0
C346 C 0.24634 0.52938 -0.00356 0.0
C347 C 0.20087 0.46938 0.97535 0.0
C348 C 0.14191 0.45508 0.9659 0.0
C349 C 0.19022 0.51989 0.9863 0.0
C350 C 0.07494 0.49731 0.96672 0.0
C351 C 0.06467 0.54907 0.97739 0.0
H352 H 0.74117 0.82951 0.25485 0.0
H353 H 0.77457 0.59459 0.26333 0.0
H354 H 0.85187 0.57974 0.2433 0.0
H355 H 0.91282 0.63322 0.22385 0.0
H356 H 0.88525 0.86877 0.21553 0.0
H357 H 0.80106 0.88298 0.23483 0.0
C358 C 0.76595 0.77528 0.25238 0.0
C359 C 0.75242 0.71346 0.26065 0.0
C360 C 0.81025 0.76681 0.24076 0.0
C361 C 0.78419 0.64328 0.25719 0.0
C362 C 0.82813 0.63451 0.24569 0.0
C363 C 0.88735 0.68746 0.22606 0.0
C364 C 0.90512 0.74973 0.21822 0.0
C365 C 0.8414 0.69578 0.2374 0.0
C366 C 0.87226 0.8198 0.22138 0.0
C367 C 0.82468 0.82812 0.23249 0.0
H368 H 0.54471 0.6173 0.47616 0.0
H369 H 0.77053 0.54485 0.4665 0.0
H370 H 0.77122 0.46018 0.48563 0.0
H371 H 0.71148 0.41254 0.50567 0.0
H372 H 0.48553 0.48215 0.51565 0.0
H373 H 0.48148 0.56332 0.49581 0.0
C374 C 0.59349 0.58191 0.47808 0.0
C375 C 0.65761 0.58755 0.46994 0.0
C376 C 0.59414 0.5343 0.48928 0.0
C377 C 0.72058 0.54174 0.47263 0.0
C378 C 0.72124 0.49368 0.48361 0.0
C379 C 0.66148 0.446 0.50364 0.0
C380 C 0.59945 0.44254 0.51228 0.0
C381 C 0.65913 0.49095 0.49217 0.0
C382 C 0.53438 0.48466 0.50924 0.0
C383 C 0.53193 0.53064 0.49787 0.0
H384 H 0.92909 0.31765 0.76018 0.0
H385 H 0.89494 0.08525 0.76984 0.0
H386 H 0.8098 0.06992 0.75007 0.0
H387 H 0.74753 0.12237 0.72975 0.0
H388 H 0.78524 0.35445 0.72009 0.0
H389 H 0.86807 0.3695 0.74004 0.0
C390 C 0.90205 0.26391 0.75812 0.0
C391 C 0.9178 0.20282 0.76653 0.0
C392 C 0.85517 0.25502 0.74657 0.0
C393 C 0.88341 0.13322 0.76355 0.0
C394 C 0.83521 0.1243 0.7522 0.0
C395 C 0.77479 0.17588 0.7319 0.0
C396 C 0.76053 0.23706 0.72341 0.0
C397 C 0.82161 0.18457 0.74352 0.0
C398 C 0.79541 0.30639 0.72644 0.0
C399 C 0.84239 0.31525 0.7379 0.0
H400 H 0.24654 0.13806 0.75554 0.0
H401 H 0.28674 0.36696 0.76904 0.0
H402 H 0.36509 0.38712 0.74926 0.0
H403 H 0.42367 0.33873 0.72838 0.0
H404 H 0.3819 0.10982 0.71496 0.0
H405 H 0.30076 0.09137 0.73432 0.0
C406 C 0.2732 0.19211 0.75426 0.0
C407 C 0.2618 0.2506 0.76383 0.0
C408 C 0.31657 0.20375 0.74275 0.0
C409 C 0.2953 0.32083 0.76186 0.0
C410 C 0.33962 0.33254 0.75052 0.0
C411 C 0.39564 0.28527 0.72954 0.0
C412 C 0.40883 0.22573 0.72025 0.0
C413 C 0.35035 0.27446 0.74087 0.0
C414 C 0.37273 0.15654 0.72198 0.0
C415 C 0.32678 0.14572 0.7331 0.0
H416 H 0.22485 0.80077 0.23466 0.0
H417 H 0.28157 0.58051 0.21873 0.0
H418 H 0.36437 0.55923 0.23846 0.0
H419 H 0.42546 0.60602 0.25963 0.0
H420 H 0.36889 0.82674 0.27539 0.0
H421 H 0.27923 0.84403 0.25655 0.0
C422 C 0.25587 0.7484 0.23546 0.0
C423 C 0.24825 0.69286 0.22516 0.0
C424 C 0.3022 0.73604 0.24692 0.0
C425 C 0.28723 0.62447 0.22648 0.0
C426 C 0.33417 0.61206 0.23779 0.0
C427 C 0.39205 0.65705 0.25913 0.0
C428 C 0.40379 0.71504 0.26886 0.0
C429 C 0.34231 0.66758 0.24804 0.0
C430 C 0.36081 0.7813 0.268 0.0
C431 C 0.3101 0.79154 0.25716 0.0
H432 H 0.56933 0.92197 0.47929 0.0
H433 H 0.80552 0.96199 0.47257 0.0
H434 H 0.81062 0.04802 0.49234 0.0
H435 H 0.74707 0.11315 0.51118 0.0
H436 H 0.51091 0.0713 0.51782 0.0
H437 H 0.50735 0.98293 0.49852 0.0
C438 C 0.62184 0.95007 0.48204 0.0
C439 C 0.68674 0.93644 0.47437 0.0
C440 C 0.62466 0.99803 0.49351 0.0
C441 C 0.75465 0.97207 0.47826 0.0
C442 C 0.75767 0.02087 0.48959 0.0
C443 C 0.69508 0.08384 0.50856 0.0
C444 C 0.62931 0.09896 0.51594 0.0
C445 C 0.69301 0.03408 0.4973 0.0
C446 C 0.56233 0.0608 0.51232 0.0
C447 C 0.56008 0.01062 0.50123 0.0
H448 H 0.22745 0.95283 0.01569 0.0
H449 H 0.98898 0.97155 0.02315 0.0
H450 H 0.9747 0.05877 0.00442 0.0
H451 H 0.02825 0.12022 0.98459 0.0
H452 H 0.26633 0.09595 0.97694 0.0
H453 H 0.28193 0.0196 -0.00301 0.0
C454 C 0.17253 0.97713 0.01345 0.0
C455 C 0.10931 0.95512 0.02074 0.0
C456 C 0.16426 0.02495 0.00241 0.0
C457 C 0.03857 0.98714 0.01763 0.0
C458 C 0.03023 0.03658 0.00685 0.0
C459 C 0.08344 0.09799 0.98729 0.0
C460 C 0.14571 0.1131 0.97916 0.0
C461 C 0.09229 0.05391 -0.00111 0.0
C462 C 0.21715 0.08482 0.98293 0.0
C463 C 0.22635 0.04135 -0.00555 0.0
H464 H 0.73343 0.83814 0.0509 0.0
H465 H 0.70234 0.62121 0.03117 0.0
H466 H 0.56597 0.63711 0.03174 0.0
H467 H 0.4552 0.71147 0.03785 0.0
H468 H 0.48369 0.93012 0.057 0.0
H469 H 0.62095 0.91505 0.05649 0.0
C470 C 0.69691 0.79518 0.04643 0.0
C471 C 0.72849 0.72905 0.04078 0.0
C472 C 0.61784 0.80469 0.04677 0.0
C473 C 0.67984 0.67277 0.03554 0.0
C474 C 0.60167 0.68176 0.03585 0.0
C475 C 0.49124 0.7559 0.04196 0.0
C476 C 0.45883 0.82173 0.04751 0.0
C477 C 0.57001 0.74724 0.04149 0.0
C478 C 0.50685 0.87878 0.05268 0.0
C479 C 0.58549 0.87023 0.05238 0.0
H480 H 0.50999 0.31525 0.29921 0.0
H481 H 0.73753 0.29816 0.28462 0.0
H482 H 0.72803 0.16201 0.28363 0.0
H483 H 0.6568 0.04719 0.28718 0.0
H484 H 0.42821 0.06174 0.30121 0.0
H485 H 0.43624 0.19891 0.30198 0.0
C486 C 0.55684 0.28193 0.29553 0.0
C487 C 0.62412 0.31742 0.29186 0.0
C488 C 0.55113 0.20285 0.29497 0.0
C489 C 0.68505 0.27267 0.28754 0.0
C490 C 0.67977 0.19458 0.28695 0.0
C491 C 0.60867 0.08022 0.29043 0.0
C492 C 0.54217 0.04397 0.29418 0.0
C493 C 0.6134 0.159 0.29074 0.0
C494 C 0.48022 0.08801 0.29827 0.0
C495 C 0.48474 0.16658 0.29871 0.0
H496 H 0.21474 0.32728 0.52723 0.0
H497 H 0.20083 0.21836 0.56583 0.0
H498 H 0.06399 0.23421 0.56545 0.0
H499 H 0.94741 0.272 0.55352 0.0
H500 H 0.96059 0.37763 0.51454 0.0
H501 H 0.09808 0.37119 0.51581 0.0
C502 C 0.18196 0.30877 0.53571 0.0
C503 C 0.2181 0.2725 0.54662 0.0
C504 C 0.10286 0.31691 0.5353 0.0
C505 C 0.17438 0.24661 0.55732 0.0
C506 C 0.09607 0.25557 0.55711 0.0
C507 C 0.98029 0.29426 0.54535 0.0
C508 C 0.94342 0.32487 0.53392 0.0
C509 C 0.05952 0.28951 0.54605 0.0
C510 C 0.98723 0.35337 0.52344 0.0
C511 C 0.06604 0.34971 0.52414 0.0
H512 H 0.16647 0.78853 0.80651 0.0
H513 H 1.00001 0.85273 0.77635 0.0
H514 H 0.95833 0.72243 0.77379 0.0
H515 H 0.97633 0.58872 0.77886 0.0
H516 H 0.14382 0.5256 0.80908 0.0
H517 H 0.17748 0.65675 0.81292 0.0
C518 C 0.12051 0.7739 0.7995 0.0
C519 C 0.08591 0.82993 0.79173 0.0
C520 C 0.09735 0.69897 0.79801 0.0
C521 C 0.02643 0.81071 0.78266 0.0
C522 C 0.00309 0.73609 0.78109 0.0
C523 C 0.01961 0.60372 0.78639 0.0
C524 C 0.05805 0.54722 0.79353 0.0
C525 C 0.03905 0.67953 0.78855 0.0
C526 C 0.11361 0.56776 0.80334 0.0
C527 C 0.13312 0.64284 0.80554 0.0
H528 H 0.8088 0.19816 0.95199 0.0
H529 H 0.79466 0.41591 0.93373 0.0
H530 H 0.65691 0.40708 0.93277 0.0
H531 H 0.54022 0.33514 0.93656 0.0
H532 H 0.55705 0.11855 0.95526 0.0
H533 H 0.69373 0.12927 0.95651 0.0
C534 C 0.77573 0.24379 0.94779 0.0
C535 C 0.81215 0.3074 0.94288 0.0
C536 C 0.69677 0.23859 0.94735 0.0
C537 C 0.76816 0.36618 0.93757 0.0
C538 C 0.68931 0.36119 0.93702 0.0
C539 C 0.57365 0.29111 0.94117 0.0
C540 C 0.53812 0.22648 0.94593 0.0
C541 C 0.65289 0.29751 0.94186 0.0
C542 C 0.58277 0.16889 0.95149 0.0
C543 C 0.66107 0.1749 0.95222 0.0
H544 H 0.02882 0.12998 0.20705 0.0
H545 H 0.19845 0.14181 0.17637 0.0
H546 H 0.17977 0.2773 0.17502 0.0
H547 H 0.12069 0.39418 0.18349 0.0
H548 H 0.95408 0.38302 0.21475 0.0
H549 H 0.96515 0.24642 0.21474 0.0
C550 C 0.0604 0.16189 0.19985 0.0
C551 C 0.11442 0.12534 0.19172 0.0
C552 C 0.05024 0.24046 0.19927 0.0
C553 C 0.15647 0.16833 0.18275 0.0
C554 C 0.14583 0.24597 0.18196 0.0
C555 C 0.08611 0.36186 0.19018 0.0
C556 C 0.03676 0.39929 0.19913 0.0
C557 C 0.09368 0.28296 0.19031 0.0
C558 C 0.99281 0.3561 0.20779 0.0
C559 C 0.99914 0.27772 0.20781 0.0
H560 H 0.10916 0.71607 0.42965 0.0
H561 H 0.04857 0.8753 0.46127 0.0
H562 H 0.17989 0.91575 0.46365 0.0
H563 H 0.31368 0.8965 0.45824 0.0
H564 H 0.37306 0.73415 0.42691 0.0
H565 H 0.24055 0.70463 0.42288 0.0
C566 C 0.12474 0.7603 0.43694 0.0
C567 C 0.06958 0.79303 0.4452 0.0
C568 C 0.20021 0.78222 0.43839 0.0
C569 C 0.08995 0.85036 0.4546 0.0
C570 C 0.16515 0.87292 0.45606 0.0
C571 C 0.29752 0.85543 0.45042 0.0
C572 C 0.35324 0.81682 0.44305 0.0
C573 C 0.22102 0.83801 0.44822 0.0
C574 C 0.33139 0.76404 0.43287 0.0
C575 C 0.25559 0.74702 0.43054 0.0
H576 H 0.49748 0.8754 0.71282 0.0
H577 H 0.62105 0.92568 0.67671 0.0
H578 H 0.63553 0.79221 0.67157 0.0
H579 H 0.62142 0.66178 0.67815 0.0
H580 H 0.50304 0.61034 0.71467 0.0
H581 H 0.47676 0.74367 0.71868 0.0
C582 C 0.52702 0.85714 0.70377 0.0
C583 C 0.55889 0.91036 0.69526 0.0
C584 C 0.53578 0.78017 0.70091 0.0
C585 C 0.59662 0.88587 0.68352 0.0
C586 C 0.60491 0.80955 0.68055 0.0
C587 C 0.58909 0.67984 0.6869 0.0
C588 C 0.56339 0.62656 0.696 0.0
C589 C 0.57599 0.75636 0.6893 0.0
C590 C 0.52169 0.65024 0.70731 0.0
C591 C 0.50753 0.72654 0.70971 0.0
loop_
_geom_bond_atom_site_label_1
_geom_bond_atom_site_label_2
_geom_bond_distance
_geom_bond_site_symmetry_2
_ccdc_geom_bond_type
Co0 O3 1.970 . S
Co0 N17 1.989 . S
Co0 O25 1.967 . S
Co0 O32 1.920 . S
Co1 O4 1.966 . S
Co1 N10 2.022 1_455 S
Co1 N18 1.993 . S
Co1 O26 1.941 . S
C2 O3 1.258 . S
C2 O4 1.263 . S
O3 Co0 1.970 . S
O3 C2 1.258 . S
O4 Co1 1.966 . S
O4 C2 1.263 . S
C5 O6 1.235 . S
C5 O32 1.289 . S
O6 C5 1.235 . S
C7 C9 1.400 . S
C7 N10 1.351 . S
C7 C12 1.501 . S
C8 C9 1.387 . S
C8 N11 1.341 . S
C9 C7 1.400 . S
C9 C8 1.387 . S
N10 Co1 2.022 1_655 S
N10 C7 1.351 . S
N10 N11 1.365 . S
N11 C8 1.341 . S
N11 N10 1.365 . S
N11 H31 0.862 . S
C12 C7 1.501 . S
C12 H13 0.961 . S
C12 H14 0.961 . S
C12 H15 0.960 . S
H13 C12 0.961 . S
H14 C12 0.961 . S
H15 C12 0.960 . S
C16 N17 1.342 . S
C16 C20 1.401 . S
C16 C21 1.499 . S
N17 Co0 1.989 . S
N17 C16 1.342 . S
N17 N18 1.388 . S
N18 Co1 1.993 . S
N18 N17 1.388 . S
N18 C19 1.346 . S
C19 N18 1.346 . S
C19 C20 1.396 . S
C19 C29 1.510 1_455 S
C20 C16 1.401 . S
C20 C19 1.396 . S
C21 C16 1.499 . S
C21 H22 0.959 . S
C21 H23 0.960 . S
C21 H24 0.961 . S
H22 C21 0.959 . S
H23 C21 0.960 . S
H24 C21 0.961 . S
O25 Co0 1.967 . S
O25 C33 1.258 . S
O26 Co1 1.941 . S
O26 C33 1.266 . S
H27 C29 0.959 . S
H28 C29 0.961 . S
C29 C19 1.510 1_655 S
C29 H27 0.959 . S
C29 H28 0.961 . S
C29 H30 0.960 . S
H30 C29 0.960 . S
H31 N11 0.862 . S
O32 Co0 1.920 . S
O32 C5 1.289 . S
C33 O25 1.258 . S
C33 O26 1.266 . S
Co34 O37 1.970 . S
Co34 N51 1.989 . S
Co34 O59 1.967 . S
Co34 O66 1.920 . S
Co35 O38 1.966 . S
Co35 N44 2.022 . S
Co35 N52 1.993 . S
Co35 O60 1.941 . S
C36 O37 1.258 . S
C36 O38 1.263 . S
O37 Co34 1.970 . S
O37 C36 1.258 . S
O38 Co35 1.966 . S
O38 C36 1.263 . S
C39 O40 1.235 . S
C39 O66 1.289 . S
O40 C39 1.235 . S
C41 C43 1.400 . S
C41 N44 1.351 . S
C41 C46 1.501 . S
C42 C43 1.387 . S
C42 N45 1.341 . S
C43 C41 1.400 . S
C43 C42 1.387 . S
N44 Co35 2.022 . S
N44 C41 1.351 . S
N44 N45 1.365 . S
N45 C42 1.341 . S
N45 N44 1.365 . S
N45 H65 0.862 . S
C46 C41 1.501 . S
C46 H47 0.961 . S
C46 H48 0.961 . S
C46 H49 0.960 . S
H47 C46 0.961 . S
H48 C46 0.961 . S
H49 C46 0.960 . S
C50 N51 1.342 . S
C50 C54 1.401 . S
C50 C55 1.499 . S
N51 Co34 1.989 . S
N51 C50 1.342 . S
N51 N52 1.388 . S
N52 Co35 1.993 . S
N52 N51 1.388 . S
N52 C53 1.346 . S
C53 N52 1.346 . S
C53 C54 1.396 . S
C53 C63 1.510 . S
C54 C50 1.401 . S
C54 C53 1.396 . S
C55 C50 1.499 . S
C55 H56 0.959 . S
C55 H57 0.960 . S
C55 H58 0.961 . S
H56 C55 0.959 . S
H57 C55 0.960 . S
H58 C55 0.961 . S
O59 Co34 1.967 . S
O59 C67 1.258 . S
O60 Co35 1.941 . S
O60 C67 1.266 . S
H61 C63 0.959 . S
H62 C63 0.961 . S
C63 C53 1.510 . S
C63 H61 0.959 . S
C63 H62 0.961 . S
C63 H64 0.960 . S
H64 C63 0.960 . S
H65 N45 0.862 . S
O66 Co34 1.920 . S
O66 C39 1.289 . S
C67 O59 1.258 . S
C67 O60 1.266 . S
Co68 O71 1.970 . S
Co68 N85 1.989 . S
Co68 O93 1.967 . S
Co68 O100 1.920 . S
Co69 O72 1.966 . S
Co69 N78 2.022 . S
Co69 N86 1.993 . S
Co69 O94 1.941 . S
C70 O71 1.258 . S
C70 O72 1.263 . S
O71 Co68 1.970 . S
O71 C70 1.258 . S
O72 Co69 1.966 . S
O72 C70 1.263 . S
C73 O74 1.235 . S
C73 O100 1.289 . S
O74 C73 1.235 . S
C75 C77 1.400 . S
C75 N78 1.351 . S
C75 C80 1.501 . S
C76 C77 1.387 . S
C76 N79 1.341 . S
C77 C75 1.400 . S
C77 C76 1.387 . S
N78 Co69 2.022 . S
N78 C75 1.351 . S
N78 N79 1.365 . S
N79 C76 1.341 . S
N79 N78 1.365 . S
N79 H99 0.862 . S
C80 C75 1.501 . S
C80 H81 0.961 . S
C80 H82 0.961 . S
C80 H83 0.960 . S
H81 C80 0.961 . S
H82 C80 0.961 . S
H83 C80 0.960 . S
C84 N85 1.342 . S
C84 C88 1.401 . S
C84 C89 1.499 . S
N85 Co68 1.989 . S
N85 C84 1.342 . S
N85 N86 1.388 . S
N86 Co69 1.993 . S
N86 N85 1.388 . S
N86 C87 1.346 . S
C87 N86 1.346 . S
C87 C88 1.396 . S
C87 C97 1.510 . S
C88 C84 1.401 . S
C88 C87 1.396 . S
C89 C84 1.499 . S
C89 H90 0.959 . S
C89 H91 0.960 . S
C89 H92 0.961 . S
H90 C89 0.959 . S
H91 C89 0.960 . S
H92 C89 0.961 . S
O93 Co68 1.967 . S
O93 C101 1.258 . S
O94 Co69 1.941 . S
O94 C101 1.266 . S
H95 C97 0.959 . S
H96 C97 0.961 . S
C97 C87 1.510 . S
C97 H95 0.959 . S
C97 H96 0.961 . S
C97 H98 0.960 . S
H98 C97 0.960 . S
H99 N79 0.862 . S
O100 Co68 1.920 . S
O100 C73 1.289 . S
C101 O93 1.258 . S
C101 O94 1.266 . S
Co102 O105 1.970 . S
Co102 N119 1.989 . S
Co102 O127 1.967 . S
Co102 O134 1.920 . S
Co103 O106 1.966 . S
Co103 N112 2.022 . S
Co103 N120 1.993 . S
Co103 O128 1.941 . S
C104 O105 1.258 1_655 S
C104 O106 1.263 1_655 S
O105 Co102 1.970 . S
O105 C104 1.258 1_455 S
O106 Co103 1.966 . S
O106 C104 1.263 1_455 S
C107 O108 1.235 . S
C107 O134 1.289 . S
O108 C107 1.235 . S
C109 C111 1.400 . S
C109 N112 1.351 1_565 S
C109 C114 1.501 1_455 S
C110 C111 1.387 . S
C110 N113 1.341 . S
C111 C109 1.400 . S
C111 C110 1.387 . S
N112 Co103 2.022 . S
N112 C109 1.351 1_545 S
N112 N113 1.365 1_545 S
N113 C110 1.341 . S
N113 N112 1.365 1_565 S
N113 H133 0.862 . S
C114 C109 1.501 1_655 S
C114 H115 0.961 1_565 S
C114 H116 0.961 . S
C114 H117 0.960 . S
H115 C114 0.961 1_545 S
H116 C114 0.961 . S
H117 C114 0.960 . S
C118 N119 1.342 . S
C118 C122 1.401 . S
C118 C123 1.499 . S
N119 Co102 1.989 . S
N119 C118 1.342 . S
N119 N120 1.388 . S
N120 Co103 1.993 . S
N120 N119 1.388 . S
N120 C121 1.346 . S
C121 N120 1.346 . S
C121 C122 1.396 . S
C121 C131 1.510 . S
C122 C118 1.401 . S
C122 C121 1.396 . S
C123 C118 1.499 . S
C123 H124 0.959 . S
C123 H125 0.960 . S
C123 H126 0.961 . S
H124 C123 0.959 . S
H125 C123 0.960 . S
H126 C123 0.961 . S
O127 Co102 1.967 . S
O127 C135 1.258 . S
O128 Co103 1.941 . S
O128 C135 1.266 . S
H129 C131 0.959 . S
H130 C131 0.961 . S
C131 C121 1.510 . S
C131 H129 0.959 . S
C131 H130 0.961 . S
C131 H132 0.960 . S
H132 C131 0.960 . S
H133 N113 0.862 . S
O134 Co102 1.920 . S
O134 C107 1.289 . S
C135 O127 1.258 . S
C135 O128 1.266 . S
Co136 O139 1.970 . S
Co136 N153 1.989 . S
Co136 O161 1.967 . S
Co136 O168 1.920 1_455 S
Co137 O140 1.966 . S
Co137 N146 2.022 . S
Co137 N154 1.993 . S
Co137 O162 1.941 . S
C138 O139 1.258 . S
C138 O140 1.263 . S
O139 Co136 1.970 . S
O139 C138 1.258 . S
O140 Co137 1.966 . S
O140 C138 1.263 . S
C141 O142 1.235 . S
C141 O168 1.289 . S
O142 C141 1.235 . S
C143 C145 1.400 . S
C143 N146 1.351 . S
C143 C148 1.501 . S
C144 C145 1.387 . S
C144 N147 1.341 . S
C145 C143 1.400 . S
C145 C144 1.387 . S
N146 Co137 2.022 . S
N146 C143 1.351 . S
N146 N147 1.365 . S
N147 C144 1.341 . S
N147 N146 1.365 . S
N147 H167 0.862 . S
C148 C143 1.501 . S
C148 H149 0.961 . S
C148 H150 0.961 . S
C148 H151 0.960 . S
H149 C148 0.961 . S
H150 C148 0.961 . S
H151 C148 0.960 . S
C152 N153 1.342 . S
C152 C156 1.401 . S
C152 C157 1.499 . S
N153 Co136 1.989 . S
N153 C152 1.342 . S
N153 N154 1.388 . S
N154 Co137 1.993 . S
N154 N153 1.388 . S
N154 C155 1.346 . S
C155 N154 1.346 . S
C155 C156 1.396 . S
C155 C165 1.510 . S
C156 C152 1.401 . S
C156 C155 1.396 . S
C157 C152 1.499 . S
C157 H158 0.959 1_455 S
C157 H159 0.960 1_455 S
C157 H160 0.961 . S
H158 C157 0.959 1_655 S
H159 C157 0.960 1_655 S
H160 C157 0.961 . S
O161 Co136 1.967 . S
O161 C169 1.258 . S
O162 Co137 1.941 . S
O162 C169 1.266 . S
H163 C165 0.959 . S
H164 C165 0.961 . S
C165 C155 1.510 . S
C165 H163 0.959 . S
C165 H164 0.961 . S
C165 H166 0.960 . S
H166 C165 0.960 . S
H167 N147 0.862 . S
O168 Co136 1.920 1_655 S
O168 C141 1.289 . S
C169 O161 1.258 . S
C169 O162 1.266 . S
Co170 O173 1.970 . S
Co170 N187 1.989 . S
Co170 O195 1.967 . S
Co170 O202 1.920 . S
Co171 O174 1.966 . S
Co171 N180 2.022 . S
Co171 N188 1.993 . S
Co171 O196 1.941 . S
C172 O173 1.258 1_655 S
C172 O174 1.263 1_655 S
O173 Co170 1.970 . S
O173 C172 1.258 1_455 S
O174 Co171 1.966 . S
O174 C172 1.263 1_455 S
C175 O176 1.235 1_455 S
C175 O202 1.289 . S
O176 C175 1.235 1_655 S
C177 C179 1.400 1_565 S
C177 N180 1.351 . S
C177 C182 1.501 1_455 S
C178 C179 1.387 . S
C178 N181 1.341 1_545 S
C179 C177 1.400 1_545 S
C179 C178 1.387 . S
N180 Co171 2.022 . S
N180 C177 1.351 . S
N180 N181 1.365 . S
N181 C178 1.341 1_565 S
N181 N180 1.365 . S
N181 H201 0.862 . S
C182 C177 1.501 1_655 S
C182 H183 0.961 . S
C182 H184 0.961 . S
C182 H185 0.960 1_565 S
H183 C182 0.961 . S
H184 C182 0.961 . S
H185 C182 0.960 1_545 S
C186 N187 1.342 . S
C186 C190 1.401 . S
C186 C191 1.499 . S
N187 Co170 1.989 . S
N187 C186 1.342 . S
N187 N188 1.388 . S
N188 Co171 1.993 . S
N188 N187 1.388 . S
N188 C189 1.346 . S
C189 N188 1.346 . S
C189 C190 1.396 . S
C189 C199 1.510 . S
C190 C186 1.401 . S
C190 C189 1.396 . S
C191 C186 1.499 . S
C191 H192 0.959 . S
C191 H193 0.960 . S
C191 H194 0.961 . S
H192 C191 0.959 . S
H193 C191 0.960 . S
H194 C191 0.961 . S
O195 Co170 1.967 . S
O195 C203 1.258 . S
O196 Co171 1.941 . S
O196 C203 1.266 . S
H197 C199 0.959 . S
H198 C199 0.961 . S
C199 C189 1.510 . S
C199 H197 0.959 . S
C199 H198 0.961 . S
C199 H200 0.960 . S
H200 C199 0.960 . S
H201 N181 0.862 . S
O202 Co170 1.920 . S
O202 C175 1.289 . S
C203 O195 1.258 . S
C203 O196 1.266 . S
Co204 O207 1.970 . S
Co204 N221 1.989 . S
Co204 O229 1.967 . S
Co204 O236 1.920 . S
Co205 O208 1.966 . S
Co205 N214 2.022 . S
Co205 N222 1.993 . S
Co205 O230 1.941 . S
C206 O207 1.258 . S
C206 O208 1.263 . S
O207 Co204 1.970 . S
O207 C206 1.258 . S
O208 Co205 1.966 . S
O208 C206 1.263 . S
C209 O210 1.235 . S
C209 O236 1.289 . S
O210 C209 1.235 . S
C211 C213 1.400 . S
C211 N214 1.351 . S
C211 C216 1.501 . S
C212 C213 1.387 . S
C212 N215 1.341 . S
C213 C211 1.400 . S
C213 C212 1.387 . S
N214 Co205 2.022 . S
N214 C211 1.351 . S
N214 N215 1.365 . S
N215 C212 1.341 . S
N215 N214 1.365 . S
N215 H235 0.862 . S
C216 C211 1.501 . S
C216 H217 0.961 . S
C216 H218 0.961 . S
C216 H219 0.960 . S
H217 C216 0.961 . S
H218 C216 0.961 . S
H219 C216 0.960 . S
C220 N221 1.342 . S
C220 C224 1.401 . S
C220 C225 1.499 . S
N221 Co204 1.989 . S
N221 C220 1.342 . S
N221 N222 1.388 . S
N222 Co205 1.993 . S
N222 N221 1.388 . S
N222 C223 1.346 . S
C223 N222 1.346 . S
C223 C224 1.396 . S
C223 C233 1.510 . S
C224 C220 1.401 . S
C224 C223 1.396 . S
C225 C220 1.499 . S
C225 H226 0.959 . S
C225 H227 0.960 . S
C225 H228 0.961 . S
H226 C225 0.959 . S
H227 C225 0.960 . S
H228 C225 0.961 . S
O229 Co204 1.967 . S
O229 C237 1.258 . S
O230 Co205 1.941 . S
O230 C237 1.266 . S
H231 C233 0.959 . S
H232 C233 0.961 . S
C233 C223 1.510 . S
C233 H231 0.959 . S
C233 H232 0.961 . S
C233 H234 0.960 . S
H234 C233 0.960 . S
H235 N215 0.862 . S
O236 Co204 1.920 . S
O236 C209 1.289 . S
C237 O229 1.258 . S
C237 O230 1.266 . S
Co238 O241 1.970 . S
Co238 N255 1.989 . S
Co238 O263 1.967 . S
Co238 O270 1.920 . S
Co239 O242 1.966 . S
Co239 N248 2.022 . S
Co239 N256 1.993 . S
Co239 O264 1.941 . S
C240 O241 1.258 . S
C240 O242 1.263 . S
O241 Co238 1.970 . S
O241 C240 1.258 . S
O242 Co239 1.966 . S
O242 C240 1.263 . S
C243 O244 1.235 . S
C243 O270 1.289 . S
O244 C243 1.235 . S
C245 C247 1.400 . S
C245 N248 1.351 . S
C245 C250 1.501 . S
C246 C247 1.387 . S
C246 N249 1.341 . S
C247 C245 1.400 . S
C247 C246 1.387 . S
N248 Co239 2.022 . S
N248 C245 1.351 . S
N248 N249 1.365 . S
N249 C246 1.341 . S
N249 N248 1.365 . S
N249 H269 0.862 . S
C250 C245 1.501 . S
C250 H251 0.961 . S
C250 H252 0.961 . S
C250 H253 0.960 . S
H251 C250 0.961 . S
H252 C250 0.961 . S
H253 C250 0.960 . S
C254 N255 1.342 . S
C254 C258 1.401 . S
C254 C259 1.499 . S
N255 Co238 1.989 . S
N255 C254 1.342 . S
N255 N256 1.388 . S
N256 Co239 1.993 . S
N256 N255 1.388 . S
N256 C257 1.346 . S
C257 N256 1.346 . S
C257 C258 1.396 . S
C257 C267 1.510 . S
C258 C254 1.401 . S
C258 C257 1.396 . S
C259 C254 1.499 . S
C259 H260 0.959 . S
C259 H261 0.960 . S
C259 H262 0.961 . S
H260 C259 0.959 . S
H261 C259 0.960 . S
H262 C259 0.961 . S
O263 Co238 1.967 . S
O263 C271 1.258 . S
O264 Co239 1.941 . S
O264 C271 1.266 . S
H265 C267 0.959 . S
H266 C267 0.961 . S
C267 C257 1.510 . S
C267 H265 0.959 . S
C267 H266 0.961 . S
C267 H268 0.960 . S
H268 C267 0.960 . S
H269 N249 0.862 . S
O270 Co238 1.920 . S
O270 C243 1.289 . S
C271 O263 1.258 . S
C271 O264 1.266 . S
H272 C278 0.930 . S
H273 C281 0.930 . S
H274 C282 0.930 . S
H275 C283 0.930 . S
H276 C286 0.930 . S
H277 C287 0.930 . S
C278 H272 0.930 . S
C278 C279 1.355 . S
C278 C280 1.415 . S
C279 C278 1.355 . S
C279 C281 1.419 . S
C280 C278 1.415 . S
C280 C285 1.425 . S
C280 C287 1.409 . S
C281 H273 0.930 . S
C281 C279 1.419 . S
C281 C282 1.362 . S
C282 H274 0.930 . S
C282 C281 1.362 . S
C282 C285 1.409 . S
C283 H275 0.930 . S
C283 C284 1.355 . S
C283 C285 1.415 . S
C284 C283 1.355 . S
C284 C286 1.419 . S
C285 C280 1.425 . S
C285 C282 1.409 . S
C285 C283 1.415 . S
C286 H276 0.930 . S
C286 C284 1.419 . S
C286 C287 1.362 . S
C287 H277 0.930 . S
C287 C280 1.409 . S
C287 C286 1.362 . S
H288 C294 0.930 . S
H289 C297 0.930 . S
H290 C298 0.930 . S
H291 C299 0.930 . S
H292 C302 0.930 . S
H293 C303 0.930 . S
C294 H288 0.930 . S
C294 C295 1.355 . S
C294 C296 1.415 . S
C295 C294 1.355 . S
C295 C297 1.419 . S
C296 C294 1.415 . S
C296 C301 1.425 . S
C296 C303 1.409 . S
C297 H289 0.930 . S
C297 C295 1.419 . S
C297 C298 1.362 . S
C298 H290 0.930 . S
C298 C297 1.362 . S
C298 C301 1.409 . S
C299 H291 0.930 . S
C299 C300 1.355 . S
C299 C301 1.415 . S
C300 C299 1.355 . S
C300 C302 1.419 . S
C301 C296 1.425 . S
C301 C298 1.409 . S
C301 C299 1.415 . S
C302 H292 0.930 . S
C302 C300 1.419 . S
C302 C303 1.362 . S
C303 H293 0.930 . S
C303 C296 1.409 . S
C303 C302 1.362 . S
H304 C310 0.930 . S
H305 C313 0.930 . S
H306 C314 0.930 . S
H307 C315 0.930 . S
H308 C318 0.930 . S
H309 C319 0.930 . S
C310 H304 0.930 . S
C310 C311 1.355 . S
C310 C312 1.415 . S
C311 C310 1.355 . S
C311 C313 1.419 . S
C312 C310 1.415 . S
C312 C317 1.425 . S
C312 C319 1.409 . S
C313 H305 0.930 . S
C313 C311 1.419 . S
C313 C314 1.362 . S
C314 H306 0.930 . S
C314 C313 1.362 . S
C314 C317 1.409 . S
C315 H307 0.930 . S
C315 C316 1.355 . S
C315 C317 1.415 . S
C316 C315 1.355 . S
C316 C318 1.419 . S
C317 C312 1.425 . S
C317 C314 1.409 . S
C317 C315 1.415 . S
C318 H308 0.930 . S
C318 C316 1.419 . S
C318 C319 1.362 . S
C319 H309 0.930 . S
C319 C312 1.409 . S
C319 C318 1.362 . S
H320 C326 0.930 . S
H321 C329 0.930 . S
H322 C330 0.930 . S
H323 C331 0.930 . S
H324 C334 0.930 . S
H325 C335 0.930 . S
C326 H320 0.930 . S
C326 C327 1.355 . S
C326 C328 1.415 . S
C327 C326 1.355 . S
C327 C329 1.419 . S
C328 C326 1.415 . S
C328 C333 1.425 . S
C328 C335 1.409 . S
C329 H321 0.930 . S
C329 C327 1.419 . S
C329 C330 1.362 . S
C330 H322 0.930 . S
C330 C329 1.362 . S
C330 C333 1.409 . S
C331 H323 0.930 . S
C331 C332 1.355 . S
C331 C333 1.415 . S
C332 C331 1.355 . S
C332 C334 1.419 . S
C333 C328 1.425 . S
C333 C330 1.409 . S
C333 C331 1.415 . S
C334 H324 0.930 . S
C334 C332 1.419 . S
C334 C335 1.362 . S
C335 H325 0.930 . S
C335 C328 1.409 . S
C335 C334 1.362 . S
H336 C342 0.930 . S
H337 C345 0.930 . S
H338 C346 0.930 . S
H339 C347 0.930 . S
H340 C350 0.930 . S
H341 C351 0.930 . S
C342 H336 0.930 . S
C342 C343 1.355 . S
C342 C344 1.415 1_554 S
C343 C342 1.355 . S
C343 C345 1.419 . S
C344 C342 1.415 1_556 S
C344 C349 1.425 1_556 S
C344 C351 1.409 . S
C345 H337 0.930 . S
C345 C343 1.419 . S
C345 C346 1.362 . S
C346 H338 0.930 . S
C346 C345 1.362 . S
C346 C349 1.409 . S
C347 H339 0.930 . S
C347 C348 1.355 . S
C347 C349 1.415 1_556 S
C348 C347 1.355 . S
C348 C350 1.419 . S
C349 C344 1.425 1_554 S
C349 C346 1.409 . S
C349 C347 1.415 1_554 S
C350 H340 0.930 . S
C350 C348 1.419 . S
C350 C351 1.362 . S
C351 H341 0.930 . S
C351 C344 1.409 . S
C351 C350 1.362 . S
H352 C358 0.930 . S
H353 C361 0.930 . S
H354 C362 0.930 . S
H355 C363 0.930 . S
H356 C366 0.930 1_455 S
H357 C367 0.930 . S
C358 H352 0.930 . S
C358 C359 1.355 . S
C358 C360 1.415 . S
C359 C358 1.355 . S
C359 C361 1.419 . S
C360 C358 1.415 . S
C360 C365 1.425 . S
C360 C367 1.409 . S
C361 H353 0.930 . S
C361 C359 1.419 . S
C361 C362 1.362 . S
C362 H354 0.930 . S
C362 C361 1.362 . S
C362 C365 1.409 . S
C363 H355 0.930 . S
C363 C364 1.355 . S
C363 C365 1.415 . S
C364 C363 1.355 . S
C364 C366 1.419 . S
C365 C360 1.425 . S
C365 C362 1.409 . S
C365 C363 1.415 . S
C366 H356 0.930 1_655 S
C366 C364 1.419 . S
C366 C367 1.362 . S
C367 H357 0.930 . S
C367 C360 1.409 . S
C367 C366 1.362 . S
H368 C374 0.930 . S
H369 C377 0.930 . S
H370 C378 0.930 . S
H371 C379 0.930 . S
H372 C382 0.930 . S
H373 C383 0.930 . S
C374 H368 0.930 . S
C374 C375 1.355 . S
C374 C376 1.415 . S
C375 C374 1.355 . S
C375 C377 1.419 . S
C376 C374 1.415 . S
C376 C381 1.425 . S
C376 C383 1.409 . S
C377 H369 0.930 . S
C377 C375 1.419 . S
C377 C378 1.362 . S
C378 H370 0.930 . S
C378 C377 1.362 . S
C378 C381 1.409 . S
C379 H371 0.930 . S
C379 C380 1.355 . S
C379 C381 1.415 . S
C380 C379 1.355 . S
C380 C382 1.419 . S
C381 C376 1.425 . S
C381 C378 1.409 . S
C381 C379 1.415 . S
C382 H372 0.930 . S
C382 C380 1.419 . S
C382 C383 1.362 . S
C383 H373 0.930 . S
C383 C376 1.409 . S
C383 C382 1.362 . S
H384 C390 0.930 . S
H385 C393 0.930 . S
H386 C394 0.930 . S
H387 C395 0.930 . S
H388 C398 0.930 . S
H389 C399 0.930 . S
C390 H384 0.930 . S
C390 C391 1.355 . S
C390 C392 1.415 . S
C391 C390 1.355 . S
C391 C393 1.419 . S
C392 C390 1.415 . S
C392 C397 1.425 . S
C392 C399 1.409 . S
C393 H385 0.930 . S
C393 C391 1.419 . S
C393 C394 1.362 . S
C394 H386 0.930 . S
C394 C393 1.362 . S
C394 C397 1.409 . S
C395 H387 0.930 . S
C395 C396 1.355 . S
C395 C397 1.415 . S
C396 C395 1.355 . S
C396 C398 1.419 . S
C397 C392 1.425 . S
C397 C394 1.409 . S
C397 C395 1.415 . S
C398 H388 0.930 . S
C398 C396 1.419 . S
C398 C399 1.362 . S
C399 H389 0.930 . S
C399 C392 1.409 . S
C399 C398 1.362 . S
H400 C406 0.930 . S
H401 C409 0.930 . S
H402 C410 0.930 . S
H403 C411 0.930 . S
H404 C414 0.930 . S
H405 C415 0.930 . S
C406 H400 0.930 . S
C406 C407 1.355 . S
C406 C408 1.415 . S
C407 C406 1.355 . S
C407 C409 1.419 . S
C408 C406 1.415 . S
C408 C413 1.425 . S
C408 C415 1.409 . S
C409 H401 0.930 . S
C409 C407 1.419 . S
C409 C410 1.362 . S
C410 H402 0.930 . S
C410 C409 1.362 . S
C410 C413 1.409 . S
C411 H403 0.930 . S
C411 C412 1.355 . S
C411 C413 1.415 . S
C412 C411 1.355 . S
C412 C414 1.419 . S
C413 C408 1.425 . S
C413 C410 1.409 . S
C413 C411 1.415 . S
C414 H404 0.930 . S
C414 C412 1.419 . S
C414 C415 1.362 . S
C415 H405 0.930 . S
C415 C408 1.409 . S
C415 C414 1.362 . S
H416 C422 0.930 . S
H417 C425 0.930 . S
H418 C426 0.930 . S
H419 C427 0.930 . S
H420 C430 0.930 . S
H421 C431 0.930 . S
C422 H416 0.930 . S
C422 C423 1.355 . S
C422 C424 1.415 . S
C423 C422 1.355 . S
C423 C425 1.419 . S
C424 C422 1.415 . S
C424 C429 1.425 . S
C424 C431 1.409 . S
C425 H417 0.930 . S
C425 C423 1.419 . S
C425 C426 1.362 . S
C426 H418 0.930 . S
C426 C425 1.362 . S
C426 C429 1.409 . S
C427 H419 0.930 . S
C427 C428 1.355 . S
C427 C429 1.415 . S
C428 C427 1.355 . S
C428 C430 1.419 . S
C429 C424 1.425 . S
C429 C426 1.409 . S
C429 C427 1.415 . S
C430 H420 0.930 . S
C430 C428 1.419 . S
C430 C431 1.362 . S
C431 H421 0.930 . S
C431 C424 1.409 . S
C431 C430 1.362 . S
H432 C438 0.930 . S
H433 C441 0.930 . S
H434 C442 0.930 . S
H435 C443 0.930 . S
H436 C446 0.930 . S
H437 C447 0.930 1_565 S
C438 H432 0.930 . S
C438 C439 1.355 . S
C438 C440 1.415 . S
C439 C438 1.355 . S
C439 C441 1.419 . S
C440 C438 1.415 . S
C440 C445 1.425 1_565 S
C440 C447 1.409 1_565 S
C441 H433 0.930 . S
C441 C439 1.419 . S
C441 C442 1.362 1_565 S
C442 H434 0.930 . S
C442 C441 1.362 1_545 S
C442 C445 1.409 . S
C443 H435 0.930 . S
C443 C444 1.355 . S
C443 C445 1.415 . S
C444 C443 1.355 . S
C444 C446 1.419 . S
C445 C440 1.425 1_545 S
C445 C442 1.409 . S
C445 C443 1.415 . S
C446 H436 0.930 . S
C446 C444 1.419 . S
C446 C447 1.362 . S
C447 H437 0.930 1_545 S
C447 C440 1.409 1_545 S
C447 C446 1.362 . S
H448 C454 0.930 1_545 S
H449 C457 0.930 . S
H450 C458 0.930 . S
H451 C459 0.930 1_565 S
H452 C462 0.930 . S
H453 C463 0.930 . S
C454 H448 0.930 1_565 S
C454 C455 1.355 . S
C454 C456 1.415 1_565 S
C455 C454 1.355 . S
C455 C457 1.419 . S
C456 C454 1.415 1_545 S
C456 C461 1.425 1_544 S
C456 C463 1.409 . S
C457 H449 0.930 . S
C457 C455 1.419 . S
C457 C458 1.362 1_554 S
C458 H450 0.930 . S
C458 C457 1.362 1_556 S
C458 C461 1.409 . S
C459 H451 0.930 1_545 S
C459 C460 1.355 . S
C459 C461 1.415 1_545 S
C460 C459 1.355 . S
C460 C462 1.419 . S
C461 C456 1.425 1_566 S
C461 C458 1.409 . S
C461 C459 1.415 1_565 S
C462 H452 0.930 . S
C462 C460 1.419 . S
C462 C463 1.362 1_556 S
C463 H453 0.930 . S
C463 C456 1.409 . S
C463 C462 1.362 1_554 S
H464 C470 0.930 . S
H465 C473 0.930 . S
H466 C474 0.930 . S
H467 C475 0.930 . S
H468 C478 0.930 . S
H469 C479 0.930 . S
C470 H464 0.930 . S
C470 C471 1.355 . S
C470 C472 1.415 . S
C471 C470 1.355 . S
C471 C473 1.419 . S
C472 C470 1.415 . S
C472 C477 1.425 . S
C472 C479 1.409 . S
C473 H465 0.930 . S
C473 C471 1.419 . S
C473 C474 1.362 . S
C474 H466 0.930 . S
C474 C473 1.362 . S
C474 C477 1.409 . S
C475 H467 0.930 . S
C475 C476 1.355 . S
C475 C477 1.415 . S
C476 C475 1.355 . S
C476 C478 1.419 . S
C477 C472 1.425 . S
C477 C474 1.409 . S
C477 C475 1.415 . S
C478 H468 0.930 . S
C478 C476 1.419 . S
C478 C479 1.362 . S
C479 H469 0.930 . S
C479 C472 1.409 . S
C479 C478 1.362 . S
H480 C486 0.930 . S
H481 C489 0.930 . S
H482 C490 0.930 . S
H483 C491 0.930 . S
H484 C494 0.930 . S
H485 C495 0.930 . S
C486 H480 0.930 . S
C486 C487 1.355 . S
C486 C488 1.415 . S
C487 C486 1.355 . S
C487 C489 1.419 . S
C488 C486 1.415 . S
C488 C493 1.425 . S
C488 C495 1.409 . S
C489 H481 0.930 . S
C489 C487 1.419 . S
C489 C490 1.362 . S
C490 H482 0.930 . S
C490 C489 1.362 . S
C490 C493 1.409 . S
C491 H483 0.930 . S
C491 C492 1.355 . S
C491 C493 1.415 . S
C492 C491 1.355 . S
C492 C494 1.419 . S
C493 C488 1.425 . S
C493 C490 1.409 . S
C493 C491 1.415 . S
C494 H484 0.930 . S
C494 C492 1.419 . S
C494 C495 1.362 . S
C495 H485 0.930 . S
C495 C488 1.409 . S
C495 C494 1.362 . S
H496 C502 0.930 . S
H497 C505 0.930 . S
H498 C506 0.930 . S
H499 C507 0.930 . S
H500 C510 0.930 . S
H501 C511 0.930 . S
C502 H496 0.930 . S
C502 C503 1.355 . S
C502 C504 1.415 . S
C503 C502 1.355 . S
C503 C505 1.419 . S
C504 C502 1.415 . S
C504 C509 1.425 . S
C504 C511 1.409 . S
C505 H497 0.930 . S
C505 C503 1.419 . S
C505 C506 1.362 . S
C506 H498 0.930 . S
C506 C505 1.362 . S
C506 C509 1.409 . S
C507 H499 0.930 . S
C507 C508 1.355 . S
C507 C509 1.415 1_655 S
C508 C507 1.355 . S
C508 C510 1.419 . S
C509 C504 1.425 . S
C509 C506 1.409 . S
C509 C507 1.415 1_455 S
C510 H500 0.930 . S
C510 C508 1.419 . S
C510 C511 1.362 1_655 S
C511 H501 0.930 . S
C511 C504 1.409 . S
C511 C510 1.362 1_455 S
H512 C518 0.930 . S
H513 C521 0.930 . S
H514 C522 0.930 1_655 S
H515 C523 0.930 . S
H516 C526 0.930 . S
H517 C527 0.930 . S
C518 H512 0.930 . S
C518 C519 1.355 . S
C518 C520 1.415 . S
C519 C518 1.355 . S
C519 C521 1.419 . S
C520 C518 1.415 . S
C520 C525 1.425 . S
C520 C527 1.409 . S
C521 H513 0.930 . S
C521 C519 1.419 . S
C521 C522 1.362 . S
C522 H514 0.930 1_455 S
C522 C521 1.362 . S
C522 C525 1.409 . S
C523 H515 0.930 . S
C523 C524 1.355 . S
C523 C525 1.415 . S
C524 C523 1.355 . S
C524 C526 1.419 . S
C525 C520 1.425 . S
C525 C522 1.409 . S
C525 C523 1.415 . S
C526 H516 0.930 . S
C526 C524 1.419 . S
C526 C527 1.362 . S
C527 H517 0.930 . S
C527 C520 1.409 . S
C527 C526 1.362 . S
H528 C534 0.930 . S
H529 C537 0.930 . S
H530 C538 0.930 . S
H531 C539 0.930 . S
H532 C542 0.930 . S
H533 C543 0.930 . S
C534 H528 0.930 . S
C534 C535 1.355 . S
C534 C536 1.415 . S
C535 C534 1.355 . S
C535 C537 1.419 . S
C536 C534 1.415 . S
C536 C541 1.425 . S
C536 C543 1.409 . S
C537 H529 0.930 . S
C537 C535 1.419 . S
C537 C538 1.362 . S
C538 H530 0.930 . S
C538 C537 1.362 . S
C538 C541 1.409 . S
C539 H531 0.930 . S
C539 C540 1.355 . S
C539 C541 1.415 . S
C540 C539 1.355 . S
C540 C542 1.419 . S
C541 C536 1.425 . S
C541 C538 1.409 . S
C541 C539 1.415 . S
C542 H532 0.930 . S
C542 C540 1.419 . S
C542 C543 1.362 . S
C543 H533 0.930 . S
C543 C536 1.409 . S
C543 C542 1.362 . S
H544 C550 0.930 1_655 S
H545 C553 0.930 . S
H546 C554 0.930 . S
H547 C555 0.930 . S
H548 C558 0.930 . S
H549 C559 0.930 . S
C550 H544 0.930 1_455 S
C550 C551 1.355 . S
C550 C552 1.415 . S
C551 C550 1.355 . S
C551 C553 1.419 . S
C552 C550 1.415 . S
C552 C557 1.425 . S
C552 C559 1.409 1_455 S
C553 H545 0.930 . S
C553 C551 1.419 . S
C553 C554 1.362 . S
C554 H546 0.930 . S
C554 C553 1.362 . S
C554 C557 1.409 . S
C555 H547 0.930 . S
C555 C556 1.355 . S
C555 C557 1.415 . S
C556 C555 1.355 . S
C556 C558 1.419 1_455 S
C557 C552 1.425 . S
C557 C554 1.409 . S
C557 C555 1.415 . S
C558 H548 0.930 . S
C558 C556 1.419 1_655 S
C558 C559 1.362 . S
C559 H549 0.930 . S
C559 C552 1.409 1_655 S
C559 C558 1.362 . S
H560 C566 0.930 . S
H561 C569 0.930 . S
H562 C570 0.930 . S
H563 C571 0.930 . S
H564 C574 0.930 . S
H565 C575 0.930 . S
C566 H560 0.930 . S
C566 C567 1.355 . S
C566 C568 1.415 . S
C567 C566 1.355 . S
C567 C569 1.419 . S
C568 C566 1.415 . S
C568 C573 1.425 . S
C568 C575 1.409 . S
C569 H561 0.930 . S
C569 C567 1.419 . S
C569 C570 1.362 . S
C570 H562 0.930 . S
C570 C569 1.362 . S
C570 C573 1.409 . S
C571 H563 0.930 . S
C571 C572 1.355 . S
C571 C573 1.415 . S
C572 C571 1.355 . S
C572 C574 1.419 . S
C573 C568 1.425 . S
C573 C570 1.409 . S
C573 C571 1.415 . S
C574 H564 0.930 . S
C574 C572 1.419 . S
C574 C575 1.362 . S
C575 H565 0.930 . S
C575 C568 1.409 . S
C575 C574 1.362 . S
H576 C582 0.930 . S
H577 C585 0.930 . S
H578 C586 0.930 . S
H579 C587 0.930 . S
H580 C590 0.930 . S
H581 C591 0.930 . S
C582 H576 0.930 . S
C582 C583 1.355 . S
C582 C584 1.415 . S
C583 C582 1.355 . S
C583 C585 1.419 . S
C584 C582 1.415 . S
C584 C589 1.425 . S
C584 C591 1.409 . S
C585 H577 0.930 . S
C585 C583 1.419 . S
C585 C586 1.362 . S
C586 H578 0.930 . S
C586 C585 1.362 . S
C586 C589 1.409 . S
C587 H579 0.930 . S
C587 C588 1.355 . S
C587 C589 1.415 . S
C588 C587 1.355 . S
C588 C590 1.419 . S
C589 C584 1.425 . S
C589 C586 1.409 . S
C589 C587 1.415 . S
C590 H580 0.930 . S
C590 C588 1.419 . S
C590 C591 1.362 . S
C591 H581 0.930 . S
C591 C584 1.409 . S
C591 C590 1.362 . S
C279 C20 1.492 . S
C284 C190 1.482 . S
C295 C224 1.486 . S
C300 C54 1.478 . S
C311 C88 1.459 . S
C316 C258 1.472 . S
C327 C156 1.499 . S
C332 C122 1.499 . S
C343 C33 1.278 . S
C348 C138 1.269 . S
C359 C67 1.234 . S
C364 C172 1.251 . S
C375 C237 1.267 . S
C380 C70 1.270 . S
C391 C104 1.275 . S
C396 C271 1.254 . S
C407 C135 1.259 . S
C412 C240 1.246 . S
C423 C203 1.278 . S
C428 C36 1.267 . S
C439 C206 1.277 . S
C444 C101 1.267 . S
C455 C2 1.253 . S
C460 C169 1.234 . S
C471 C9 1.412 . S
C476 C5 1.534 . S
C487 C43 1.398 . S
C492 C39 1.529 1_545 S
C503 C77 1.414 . S
C508 C73 1.530 . S
C519 C111 1.438 . S
C524 C107 1.540 . S
C535 C141 1.534 . S
C540 C145 1.416 . S
C551 C179 1.434 . S
C556 C175 1.535 . S
C567 C213 1.441 1_455 S
C572 C209 1.541 . S
C583 C243 1.548 1_565 S
C588 C247 1.459 . S
