# Generated by pormake.
# Topology sxg, (6)-cn, num edge types: 1
# Building blocks:
#     Node 0, Type 0, BuildingBlock: PAMTOO_clean_sbu_0, # of connection points: 6
#     Node 1, Type 0, BuildingBlock: PAMTOO_clean_sbu_0, # of connection points: 6
#     Node 2, Type 0, BuildingBlock: PAMTOO_clean_sbu_0, # of connection points: 6
#     Node 3, Type 0, BuildingBlock: PAMTOO_clean_sbu_0, # of connection points: 6
#     Node 4, Type 0, BuildingBlock: PAMTOO_clean_sbu_0, # of connection points: 6
#     Node 5, Type 0, BuildingBlock: PAMTOO_clean_sbu_0, # of connection points: 6
#     Node 6, Type 0, BuildingBlock: PAMTOO_clean_sbu_0, # of connection points: 6
#     Node 7, Type 0, BuildingBlock: PAMTOO_clean_sbu_0, # of connection points: 6
#     Node 8, Type 0, BuildingBlock: PAMTOO_clean_sbu_0, # of connection points: 6
#     Node 9, Type 0, BuildingBlock: PAMTOO_clean_sbu_0, # of connection points: 6
#     Node 10, Type 0, BuildingBlock: PAMTOO_clean_sbu_0, # of connection points: 6
#     Node 11, Type 0, BuildingBlock: PAMTOO_clean_sbu_0, # of connection points: 6
#     Node 12, Type 0, BuildingBlock: PAMTOO_clean_sbu_0, # of connection points: 6
#     Node 13, Type 0, BuildingBlock: PAMTOO_clean_sbu_0, # of connection points: 6
#     Node 14, Type 0, BuildingBlock: PAMTOO_clean_sbu_0, # of connection points: 6
#     Node 15, Type 0, BuildingBlock: PAMTOO_clean_sbu_0, # of connection points: 6
#     Node 16, Type 0, BuildingBlock: PAMTOO_clean_sbu_0, # of connection points: 6
#     Node 17, Type 0, BuildingBlock: PAMTOO_clean_sbu_0, # of connection points: 6
#     Node 18, Type 0, BuildingBlock: PAMTOO_clean_sbu_0, # of connection points: 6
#     Node 19, Type 0, BuildingBlock: PAMTOO_clean_sbu_0, # of connection points: 6
#     Node 20, Type 0, BuildingBlock: PAMTOO_clean_sbu_0, # of connection points: 6
#     Node 21, Type 0, BuildingBlock: PAMTOO_clean_sbu_0, # of connection points: 6
#     Node 22, Type 0, BuildingBlock: PAMTOO_clean_sbu_0, # of connection points: 6
#     Node 23, Type 0, BuildingBlock: PAMTOO_clean_sbu_0, # of connection points: 6
#     Edge 24, Type (0, 0), BuildingBlock: KIFKEQ_clean_linker_1, # of connection points: 2
#     Edge 25, Type (0, 0), BuildingBlock: KIFKEQ_clean_linker_1, # of connection points: 2
#     Edge 26, Type (0, 0), BuildingBlock: KIFKEQ_clean_linker_1, # of connection points: 2
#     Edge 27, Type (0, 0), BuildingBlock: KIFKEQ_clean_linker_1, # of connection points: 2
#     Edge 28, Type (0, 0), BuildingBlock: KIFKEQ_clean_linker_1, # of connection points: 2
#     Edge 29, Type (0, 0), BuildingBlock: KIFKEQ_clean_linker_1, # of connection points: 2
#     Edge 30, Type (0, 0), BuildingBlock: KIFKEQ_clean_linker_1, # of connection points: 2
#     Edge 31, Type (0, 0), BuildingBlock: KIFKEQ_clean_linker_1, # of connection points: 2
#     Edge 32, Type (0, 0), BuildingBlock: KIFKEQ_clean_linker_1, # of connection points: 2
#     Edge 33, Type (0, 0), BuildingBlock: KIFKEQ_clean_linker_1, # of connection points: 2
#     Edge 34, Type (0, 0), BuildingBlock: KIFKEQ_clean_linker_1, # of connection points: 2
#     Edge 35, Type (0, 0), BuildingBlock: KIFKEQ_clean_linker_1, # of connection points: 2
#     Edge 36, Type (0, 0), BuildingBlock: KIFKEQ_clean_linker_1, # of connection points: 2
#     Edge 37, Type (0, 0), BuildingBlock: KIFKEQ_clean_linker_1, # of connection points: 2
#     Edge 38, Type (0, 0), BuildingBlock: KIFKEQ_clean_linker_1, # of connection points: 2
#     Edge 39, Type (0, 0), BuildingBlock: KIFKEQ_clean_linker_1, # of connection points: 2
#     Edge 40, Type (0, 0), BuildingBlock: KIFKEQ_clean_linker_1, # of connection points: 2
#     Edge 41, Type (0, 0), BuildingBlock: KIFKEQ_clean_linker_1, # of connection points: 2
#     Edge 42, Type (0, 0), BuildingBlock: KIFKEQ_clean_linker_1, # of connection points: 2
#     Edge 43, Type (0, 0), BuildingBlock: KIFKEQ_clean_linker_1, # of connection points: 2
#     Edge 44, Type (0, 0), BuildingBlock: KIFKEQ_clean_linker_1, # of connection points: 2
#     Edge 45, Type (0, 0), BuildingBlock: KIFKEQ_clean_linker_1, # of connection points: 2
#     Edge 46, Type (0, 0), BuildingBlock: KIFKEQ_clean_linker_1, # of connection points: 2
#     Edge 47, Type (0, 0), BuildingBlock: KIFKEQ_clean_linker_1, # of connection points: 2
#     Edge 48, Type (0, 0), BuildingBlock: KIFKEQ_clean_linker_1, # of connection points: 2
#     Edge 49, Type (0, 0), BuildingBlock: KIFKEQ_clean_linker_1, # of connection points: 2
#     Edge 50, Type (0, 0), BuildingBlock: KIFKEQ_clean_linker_1, # of connection points: 2
#     Edge 51, Type (0, 0), BuildingBlock: KIFKEQ_clean_linker_1, # of connection points: 2
#     Edge 52, Type (0, 0), BuildingBlock: KIFKEQ_clean_linker_1, # of connection points: 2
#     Edge 53, Type (0, 0), BuildingBlock: KIFKEQ_clean_linker_1, # of connection points: 2
#     Edge 54, Type (0, 0), BuildingBlock: KIFKEQ_clean_linker_1, # of connection points: 2
#     Edge 55, Type (0, 0), BuildingBlock: KIFKEQ_clean_linker_1, # of connection points: 2
#     Edge 56, Type (0, 0), BuildingBlock: KIFKEQ_clean_linker_1, # of connection points: 2
#     Edge 57, Type (0, 0), BuildingBlock: KIFKEQ_clean_linker_1, # of connection points: 2
#     Edge 58, Type (0, 0), BuildingBlock: KIFKEQ_clean_linker_1, # of connection points: 2
#     Edge 59, Type (0, 0), BuildingBlock: KIFKEQ_clean_linker_1, # of connection points: 2
#     Edge 60, Type (0, 0), BuildingBlock: KIFKEQ_clean_linker_1, # of connection points: 2
#     Edge 61, Type (0, 0), BuildingBlock: KIFKEQ_clean_linker_1, # of connection points: 2
#     Edge 62, Type (0, 0), BuildingBlock: KIFKEQ_clean_linker_1, # of connection points: 2
#     Edge 63, Type (0, 0), BuildingBlock: KIFKEQ_clean_linker_1, # of connection points: 2
#     Edge 64, Type (0, 0), BuildingBlock: KIFKEQ_clean_linker_1, # of connection points: 2
#     Edge 65, Type (0, 0), BuildingBlock: KIFKEQ_clean_linker_1, # of connection points: 2
#     Edge 66, Type (0, 0), BuildingBlock: KIFKEQ_clean_linker_1, # of connection points: 2
#     Edge 67, Type (0, 0), BuildingBlock: KIFKEQ_clean_linker_1, # of connection points: 2
#     Edge 68, Type (0, 0), BuildingBlock: KIFKEQ_clean_linker_1, # of connection points: 2
#     Edge 69, Type (0, 0), BuildingBlock: KIFKEQ_clean_linker_1, # of connection points: 2
#     Edge 70, Type (0, 0), BuildingBlock: KIFKEQ_clean_linker_1, # of connection points: 2
#     Edge 71, Type (0, 0), BuildingBlock: KIFKEQ_clean_linker_1, # of connection points: 2
#     Edge 72, Type (0, 0), BuildingBlock: KIFKEQ_clean_linker_1, # of connection points: 2
#     Edge 73, Type (0, 0), BuildingBlock: KIFKEQ_clean_linker_1, # of connection points: 2
#     Edge 74, Type (0, 0), BuildingBlock: KIFKEQ_clean_linker_1, # of connection points: 2
#     Edge 75, Type (0, 0), BuildingBlock: KIFKEQ_clean_linker_1, # of connection points: 2
#     Edge 76, Type (0, 0), BuildingBlock: KIFKEQ_clean_linker_1, # of connection points: 2
#     Edge 77, Type (0, 0), BuildingBlock: KIFKEQ_clean_linker_1, # of connection points: 2
#     Edge 78, Type (0, 0), BuildingBlock: KIFKEQ_clean_linker_1, # of connection points: 2
#     Edge 79, Type (0, 0), BuildingBlock: KIFKEQ_clean_linker_1, # of connection points: 2
#     Edge 80, Type (0, 0), BuildingBlock: KIFKEQ_clean_linker_1, # of connection points: 2
#     Edge 81, Type (0, 0), BuildingBlock: KIFKEQ_clean_linker_1, # of connection points: 2
#     Edge 82, Type (0, 0), BuildingBlock: KIFKEQ_clean_linker_1, # of connection points: 2
#     Edge 83, Type (0, 0), BuildingBlock: KIFKEQ_clean_linker_1, # of connection points: 2
#     Edge 84, Type (0, 0), BuildingBlock: KIFKEQ_clean_linker_1, # of connection points: 2
#     Edge 85, Type (0, 0), BuildingBlock: KIFKEQ_clean_linker_1, # of connection points: 2
#     Edge 86, Type (0, 0), BuildingBlock: KIFKEQ_clean_linker_1, # of connection points: 2
#     Edge 87, Type (0, 0), BuildingBlock: KIFKEQ_clean_linker_1, # of connection points: 2
#     Edge 88, Type (0, 0), BuildingBlock: KIFKEQ_clean_linker_1, # of connection points: 2
#     Edge 89, Type (0, 0), BuildingBlock: KIFKEQ_clean_linker_1, # of connection points: 2
#     Edge 90, Type (0, 0), BuildingBlock: KIFKEQ_clean_linker_1, # of connection points: 2
#     Edge 91, Type (0, 0), BuildingBlock: KIFKEQ_clean_linker_1, # of connection points: 2
#     Edge 92, Type (0, 0), BuildingBlock: KIFKEQ_clean_linker_1, # of connection points: 2
#     Edge 93, Type (0, 0), BuildingBlock: KIFKEQ_clean_linker_1, # of connection points: 2
#     Edge 94, Type (0, 0), BuildingBlock: KIFKEQ_clean_linker_1, # of connection points: 2
#     Edge 95, Type (0, 0), BuildingBlock: KIFKEQ_clean_linker_1, # of connection points: 2
# Relax obj value: 0.204
# Max RMSD: 0.258
# Mean RMSD: 0.240
data_MOF--net-sxg--node1-PAMTOO_clean_sbu_0--edge1-KIFKEQ_clean_linker_1
_symmetry_space_group_name_H-M    P1
_symmetry_Int_Tables_number       1
_symmetry_cell_setting            triclinic
loop_
_symmetry_equiv_pos_as_xyz
'x, y, z'
_cell_length_a     49.672576
_cell_length_b     56.165812
_cell_length_c     52.852029
_cell_angle_alpha  89.997987
_cell_angle_beta   82.885242
_cell_angle_gamma 90.390844
loop_
_atom_site_label
_atom_site_type_symbol
_atom_site_fract_x
_atom_site_fract_y
_atom_site_fract_z
_atom_type_partial_charge
Dy0 Dy 0.11705 0.29137 0.26873 0.0
Dy1 Dy 0.09373 0.33488 0.23691 0.0
C2 C 0.13275 0.34631 0.27698 0.0
O3 O 0.07628 0.29875 0.29001 0.0
O4 O 0.06781 0.33605 0.27518 0.0
O5 O 0.14862 0.27441 0.28732 0.0
O6 O 0.10927 0.25744 0.28741 0.0
O7 O 0.06578 0.30406 0.23814 0.0
O8 O 0.0989 0.27665 0.23441 0.0
O9 O 0.12739 0.31858 0.20934 0.0
O10 O 0.15093 0.29945 0.23812 0.0
O11 O 0.07579 0.3464 0.20382 0.0
O12 O 0.08365 0.37188 0.23301 0.0
C13 C 0.06201 0.31841 0.29145 0.0
O14 O 0.12454 0.32634 0.28887 0.0
O15 O 0.1297 0.34906 0.25294 0.0
C16 C 0.14629 0.23173 0.29367 0.0
C17 C 0.16795 0.18621 0.30314 0.0
C18 C 0.18437 0.20687 0.30199 0.0
C19 C 0.17365 0.2293 0.29748 0.0
C20 C 0.1302 0.211 0.29359 0.0
C21 C 0.14088 0.18858 0.29821 0.0
C22 C 0.1336 0.25573 0.29407 0.0
C23 C 0.07483 0.28358 0.22947 0.0
C24 C 0.14941 0.30772 0.21508 0.0
C25 C 0.04221 0.37562 0.21602 0.0
C26 C 0.98739 0.38978 0.226 0.0
C27 C 0.99416 0.36753 0.21483 0.0
C28 C 0.02124 0.36047 0.21 0.0
C29 C 0.03551 0.398 0.22671 0.0
C30 C 1.00844 0.40494 0.2318 0.0
C31 C 0.07074 0.36762 0.21338 0.0
H32 H 0.20546 0.20582 0.3051 0.0
H33 H 0.18657 0.24487 0.29795 0.0
H34 H 0.10893 0.21214 0.29111 0.0
H35 H 0.12743 0.17328 0.29912 0.0
H36 H 0.97856 0.35554 0.20968 0.0
H37 H 0.02564 0.34302 0.20186 0.0
H38 H 0.05123 0.40993 0.23175 0.0
H39 H 1.00403 0.42205 0.24076 0.0
Dy40 Dy 0.49803 0.74822 0.78149 0.0
Dy41 Dy 0.51925 0.69342 0.76621 0.0
C42 C 0.46373 0.70094 0.80366 0.0
O43 O 0.53562 0.74229 0.80046 0.0
O44 O 0.5344 0.70176 0.80361 0.0
O45 O 0.48728 0.77494 0.81034 0.0
O46 O 0.48972 0.7844 0.7704 0.0
O47 O 0.54957 0.71866 0.74593 0.0
O48 O 0.52125 0.74972 0.74184 0.0
O49 O 0.48667 0.701 0.74081 0.0
O50 O 0.46562 0.73396 0.76046 0.0
O51 O 0.53964 0.6691 0.73852 0.0
O52 O 0.52465 0.65672 0.77646 0.0
C53 C 0.54201 0.72257 0.81167 0.0
O54 O 0.46827 0.72409 0.80562 0.0
O55 O 0.47908 0.68702 0.78818 0.0
C56 C 0.46013 0.80737 0.79966 0.0
C57 C 0.41678 0.83933 0.8138 0.0
C58 C 0.41317 0.81452 0.81724 0.0
C59 C 0.43462 0.79872 0.81028 0.0
C60 C 0.46363 0.83193 0.79562 0.0
C61 C 0.44232 0.84771 0.80263 0.0
C62 C 0.48385 0.79161 0.79387 0.0
C63 C 0.54265 0.73713 0.73305 0.0
C64 C 0.46654 0.7165 0.74382 0.0
C65 C 0.56374 0.63814 0.75629 0.0
C66 C 0.61105 0.61157 0.76047 0.0
C67 C 0.6125 0.63646 0.7571 0.0
C68 C 0.58903 0.64965 0.75511 0.0
C69 C 0.56217 0.61343 0.75987 0.0
C70 C 0.58555 0.60026 0.76195 0.0
C71 C 0.53861 0.65148 0.75472 0.0
H72 H 0.39375 0.80726 0.82533 0.0
H73 H 0.43138 0.77981 0.81349 0.0
H74 H 0.48316 0.83901 0.78752 0.0
H75 H 0.4462 0.86658 0.79992 0.0
H76 H 0.63176 0.64577 0.75619 0.0
H77 H 0.59062 0.66879 0.7527 0.0
H78 H 0.54278 0.60428 0.76101 0.0
H79 H 0.58371 0.58113 0.76418 0.0
Dy80 Dy 0.53463 0.2443 0.77488 0.0
Dy81 Dy 0.51304 0.19038 0.78986 0.0
C82 C 0.56931 0.19745 0.75346 0.0
O83 O 0.49687 0.23886 0.75616 0.0
O84 O 0.49707 0.19848 0.75271 0.0
O85 O 0.54516 0.27091 0.74587 0.0
O86 O 0.54278 0.28053 0.78585 0.0
O87 O 0.48284 0.21505 0.81091 0.0
O88 O 0.51142 0.24635 0.81436 0.0
O89 O 0.54534 0.19778 0.81564 0.0
O90 O 0.56683 0.23085 0.79636 0.0
O91 O 0.49323 0.16581 0.81774 0.0
O92 O 0.50713 0.15384 0.77937 0.0
C93 C 0.4898 0.21938 0.74488 0.0
O94 O 0.56497 0.22054 0.7513 0.0
O95 O 0.55341 0.18354 0.76861 0.0
C96 C 0.57279 0.3031 0.75668 0.0
C97 C 0.61615 0.3351 0.7426 0.0
C98 C 0.61838 0.31089 0.73572 0.0
C99 C 0.59688 0.29501 0.74271 0.0
C100 C 0.57087 0.32697 0.76429 0.0
C101 C 0.59227 0.34282 0.75734 0.0
C102 C 0.54879 0.28759 0.76233 0.0
C103 C 0.48974 0.23397 0.82325 0.0
C104 C 0.5656 0.21335 0.81293 0.0
C105 C 0.46703 0.13662 0.79922 0.0
C106 C 0.41799 0.11294 0.79429 0.0
C107 C 0.41783 0.13534 0.80614 0.0
C108 C 0.4422 0.1472 0.80845 0.0
C109 C 0.46715 0.11444 0.78707 0.0
C110 C 0.44282 0.10273 0.78451 0.0
C111 C 0.49301 0.14866 0.8011 0.0
H112 H 0.63665 0.30424 0.72477 0.0
H113 H 0.59888 0.27657 0.73681 0.0
H114 H 0.55243 0.33354 0.77507 0.0
H115 H 0.58967 0.36133 0.76277 0.0
H116 H 0.39888 0.14358 0.81373 0.0
H117 H 0.44158 0.16451 0.81752 0.0
H118 H 0.48612 0.10612 0.77965 0.0
H119 H 0.44347 0.08533 0.77561 0.0
Dy120 Dy 0.91542 0.78785 0.28488 0.0
Dy121 Dy 0.93556 0.83477 0.31581 0.0
C122 C 0.89844 0.84225 0.27399 0.0
O123 O 0.95777 0.79539 0.2671 0.0
O124 O 0.96068 0.83495 0.27723 0.0
O125 O 0.88631 0.77015 0.2636 0.0
O126 O 0.92409 0.75286 0.26904 0.0
O127 O 0.96343 0.80464 0.31865 0.0
O128 O 0.93174 0.77541 0.32094 0.0
O129 O 0.90043 0.81934 0.34267 0.0
O130 O 0.88109 0.79388 0.31552 0.0
O131 O 0.95104 0.8498 0.34883 0.0
O132 O 0.94643 0.87207 0.31624 0.0
C133 C 0.96962 0.81629 0.2637 0.0
O134 O 0.90755 0.82203 0.26335 0.0
O135 O 0.89969 0.84598 0.2982 0.0
C136 C 0.88737 0.72733 0.25992 0.0
C137 C 0.86519 0.68123 0.25258 0.0
C138 C 0.85356 0.70184 0.2434 0.0
C139 C 0.86449 0.72448 0.247 0.0
C140 C 0.89873 0.70688 0.26969 0.0
C141 C 0.88773 0.68416 0.26613 0.0
C142 C 0.90109 0.75104 0.25962 0.0
C143 C 0.95425 0.78429 0.32802 0.0
C144 C 0.88054 0.80493 0.33754 0.0
C145 C 0.98599 0.87829 0.33641 0.0
C146 C 0.04111 0.89276 0.33245 0.0
C147 C 0.03129 0.87425 0.34909 0.0
C148 C 1.00408 0.86709 0.35105 0.0
C149 C 0.99577 0.89698 0.31999 0.0
C150 C 0.02301 0.90405 0.31795 0.0
C151 C 0.9574 0.87002 0.33733 0.0
H152 H 0.83651 0.70049 0.23254 0.0
H153 H 0.85557 0.73977 0.2388 0.0
H154 H 0.91653 0.70832 0.27953 0.0
H155 H 0.89706 0.66887 0.27387 0.0
H156 H 0.04476 0.86504 0.36036 0.0
H157 H 0.99734 0.85259 0.36385 0.0
H158 H 0.98237 0.90605 0.30854 0.0
H159 H 0.02984 0.91859 0.30522 0.0
Dy160 Dy 0.28281 0.98868 0.31039 0.0
Dy161 Dy 0.26361 0.97903 0.3707 0.0
C162 C 0.312 0.01538 0.35389 0.0
O163 O 0.29682 0.95197 0.31704 0.0
O164 O 0.29938 0.95485 0.35991 0.0
O165 O 0.31266 0.98869 0.27698 0.0
O166 O 0.27108 0.99876 0.27396 0.0
O167 O 0.24432 0.95121 0.34902 0.0
O168 O 0.24019 0.97459 0.31481 0.0
O169 O 0.2382 1.00976 0.35885 0.0
O170 O 0.26801 0.02359 0.32553 0.0
O171 O 0.23107 0.97155 0.40069 0.0
O172 O 0.27243 0.97525 0.40943 0.0
C173 C 0.30639 0.94456 0.33767 0.0
O174 O 0.31462 1.00684 0.33055 0.0
O175 O 0.29176 1.00957 0.37106 0.0
C176 C 0.30492 0.02397 0.25541 0.0
C177 C 0.31158 0.07289 0.24606 0.0
C178 C 0.31987 0.0629 0.26804 0.0
C179 C 0.31667 0.03867 0.2726 0.0
C180 C 0.29703 0.03377 0.23313 0.0
C181 C 0.30059 0.05815 0.22834 0.0
C182 C 0.29629 0.99996 0.26363 0.0
C183 C 0.2316 0.95671 0.32965 0.0
C184 C 0.24694 0.02677 0.34255 0.0
C185 C 0.24516 0.94661 0.43237 0.0
C186 C 0.24404 0.90356 0.45979 0.0
C187 C 0.23998 0.90364 0.4339 0.0
C188 C 0.24069 0.92496 0.42028 0.0
C189 C 0.24909 0.9467 0.45815 0.0
C190 C 0.24855 0.92535 0.47178 0.0
C191 C 0.24765 0.9689 0.41782 0.0
H192 H 0.32886 0.07385 0.2817 0.0
H193 H 0.32257 0.0316 0.29009 0.0
H194 H 0.28732 0.0228 0.21999 0.0
H195 H 0.29414 0.06559 0.21119 0.0
H196 H 0.23604 0.88725 0.42418 0.0
H197 H 0.23794 0.92452 0.40026 0.0
H198 H 0.25297 0.96325 0.46763 0.0
H199 H 0.2521 0.92588 0.49157 0.0
Dy200 Dy 0.21078 0.97199 0.8393 0.0
Dy201 Dy 0.23619 1.00639 0.88281 0.0
C202 C 0.20042 0.95884 0.90008 0.0
O203 O 0.19223 1.00832 0.83712 0.0
O204 O 0.19788 0.02493 0.87577 0.0
O205 O 0.17932 0.95054 0.82453 0.0
O206 O 0.2157 0.96102 0.80004 0.0
O207 O 0.24522 0.02309 0.84467 0.0
O208 O 0.25049 0.98829 0.82296 0.0
O209 O 0.2674 0.97775 0.87119 0.0
O210 O 0.24218 0.94895 0.8531 0.0
O211 O 0.27003 0.02702 0.89326 0.0
O212 O 0.23265 0.02453 0.91918 0.0
C213 C 0.18799 0.0257 0.85383 0.0
O214 O 0.19246 0.95629 0.8772 0.0
O215 O 0.21769 0.97549 0.90516 0.0
C216 C 0.1911 0.92809 0.78532 0.0
C217 C 0.18283 0.8926 0.74857 0.0
C218 C 0.16499 0.8946 0.77138 0.0
C219 C 0.16899 0.91221 0.78945 0.0
C220 C 0.20942 0.92554 0.76292 0.0
C221 C 0.20538 0.90805 0.74487 0.0
C222 C 0.1927 0.94955 0.80165 0.0
C223 C 0.25615 1.01095 0.82507 0.0
C224 C 0.26435 0.95594 0.86234 0.0
C225 C 0.25845 0.06036 0.92078 0.0
C226 C 0.26572 0.10822 0.93621 0.0
C227 C 0.27744 0.10019 0.9121 0.0
C228 C 0.27387 0.07654 0.90447 0.0
C229 C 0.24612 0.06854 0.94449 0.0
C230 C 0.24954 0.09213 0.95204 0.0
C231 C 0.25649 0.03465 0.91445 0.0
H232 H 0.14729 0.88316 0.77487 0.0
H233 H 0.15419 0.91393 0.80619 0.0
H234 H 0.22646 0.93766 0.75882 0.0
H235 H 0.21983 0.90683 0.72781 0.0
H236 H 0.2902 0.1119 0.89943 0.0
H237 H 0.28373 0.07084 0.88607 0.0
H238 H 0.23418 0.05651 0.9575 0.0
H239 H 0.23967 0.09766 0.9705 0.0
Dy240 Dy 0.81606 0.46807 0.71578 0.0
Dy241 Dy 0.79432 0.50349 0.67109 0.0
C242 C 0.82917 0.45566 0.65488 0.0
O243 O 0.8362 0.50387 0.72002 0.0
O244 O 0.8321 0.52136 0.68125 0.0
O245 O 0.84667 0.44872 0.73352 0.0
O246 O 0.80399 0.44768 0.75045 0.0
O247 O 0.78455 0.52174 0.70805 0.0
O248 O 0.77881 0.48829 0.73288 0.0
O249 O 0.76081 0.47748 0.6846 0.0
O250 O 0.78675 0.44683 0.69653 0.0
O251 O 0.76124 0.52236 0.65752 0.0
O252 O 0.80108 0.52287 0.63538 0.0
C253 C 0.84116 0.52164 0.70367 0.0
O254 O 0.83657 0.45347 0.67804 0.0
O255 O 0.81194 0.47201 0.64947 0.0
C256 C 0.83594 0.42444 0.77209 0.0
C257 C 0.84568 0.39156 0.81113 0.0
C258 C 0.85405 0.38669 0.78511 0.0
C259 C 0.8495 0.40299 0.76595 0.0
C260 C 0.82743 0.42948 0.79785 0.0
C261 C 0.83253 0.41345 0.81711 0.0
C262 C 0.82867 0.44038 0.75157 0.0
C263 C 0.77385 0.5109 0.72878 0.0
C264 C 0.76383 0.45492 0.6903 0.0
C265 C 0.77336 0.55694 0.63231 0.0
C266 C 0.76473 0.60496 0.61912 0.0
C267 C 0.75478 0.59618 0.64347 0.0
C268 C 0.75913 0.57245 0.65005 0.0
C269 C 0.78355 0.56577 0.60815 0.0
C270 C 0.7794 0.58949 0.60165 0.0
C271 C 0.77646 0.53131 0.63785 0.0
H272 H 0.86354 0.36997 0.77926 0.0
H273 H 0.85579 0.39844 0.74619 0.0
H274 H 0.81678 0.44585 0.8031 0.0
H275 H 0.82614 0.41839 0.83671 0.0
H276 H 0.7436 0.60768 0.65743 0.0
H277 H 0.75105 0.5662 0.66887 0.0
H278 H 0.79436 0.55414 0.59406 0.0
H279 H 0.78702 0.59555 0.58263 0.0
Dy280 Dy 0.74405 0.4776 0.24904 0.0
Dy281 Dy 0.77018 0.47078 0.1906 0.0
C282 C 0.72254 0.50748 0.20322 0.0
O283 O 0.73358 0.44068 0.23876 0.0
O284 O 0.73204 0.44809 0.19671 0.0
O285 O 0.70966 0.47602 0.27836 0.0
O286 O 0.74996 0.48378 0.28822 0.0
O287 O 0.78672 0.44251 0.21356 0.0
O288 O 0.78675 0.46529 0.24881 0.0
O289 O 0.79343 0.50199 0.20543 0.0
O290 O 0.76208 0.51295 0.23889 0.0
O291 O 0.80491 0.46225 0.16344 0.0
O292 O 0.76587 0.46932 0.15059 0.0
C293 C 0.72444 0.43536 0.2173 0.0
O294 O 0.71626 0.49763 0.22583 0.0
O295 O 0.74473 0.5023 0.1884 0.0
C296 C 0.71558 0.50903 0.30435 0.0
C297 C 0.71369 0.55794 0.31455 0.0
C298 C 0.70457 0.54911 0.29235 0.0
C299 C 0.70542 0.52488 0.28733 0.0
C300 C 0.72371 0.51766 0.32709 0.0
C301 C 0.72259 0.54205 0.33228 0.0
C302 C 0.72391 0.48537 0.29511 0.0
C303 C 0.79696 0.4478 0.23445 0.0
C304 C 0.78396 0.51757 0.22311 0.0
C305 C 0.79208 0.43965 0.12903 0.0
C306 C 0.79084 0.39784 0.09984 0.0
C307 C 0.79643 0.39673 0.12527 0.0
C308 C 0.79688 0.41746 0.1398 0.0
C309 C 0.78645 0.44082 0.10376 0.0
C310 C 0.78574 0.42012 0.08931 0.0
C311 C 0.7904 0.4614 0.14444 0.0
H312 H 0.69705 0.56097 0.2787 0.0
H313 H 0.69943 0.51877 0.26942 0.0
H314 H 0.73224 0.50577 0.34009 0.0
H315 H 0.7296 0.54857 0.34963 0.0
H316 H 0.80081 0.37992 0.13385 0.0
H317 H 0.80081 0.41611 0.15947 0.0
H318 H 0.78217 0.45776 0.09533 0.0
H319 H 0.78093 0.42155 0.06993 0.0
Dy320 Dy 0.35442 0.29988 0.03953 0.0
Dy321 Dy 0.36543 0.24749 0.05774 0.0
C322 C 0.32449 0.25542 1.0171 0.0
O323 O 0.31631 0.28986 0.0643 0.0
O324 O 0.33634 0.264 0.08938 0.0
O325 O 0.32907 0.32818 0.02877 0.0
O326 O 0.3712 0.33529 0.03357 0.0
O327 O 0.3978 0.27052 0.07039 0.0
O328 O 0.3709 0.30225 0.07799 0.0
O329 O 0.38363 0.24712 1.01658 0.0
O330 O 0.38955 0.28736 1.01158 0.0
O331 O 0.39422 0.22118 0.06697 0.0
O332 O 0.35117 0.2131 0.07185 0.0
C333 C 0.3157 0.27758 0.08541 0.0
O334 O 0.33598 0.27628 1.01127 0.0
O335 O 0.32917 0.2438 0.03752 0.0
C336 C 0.35199 0.35843 1.00342 0.0
C337 C 0.35663 0.38793 0.96007 0.0
C338 C 0.35011 0.36364 0.95808 0.0
C339 C 0.34795 0.34894 0.9796 0.0
C340 C 0.35884 0.3825 1.0054 0.0
C341 C 0.36119 0.39714 0.98392 0.0
C342 C 0.34888 0.34373 1.02651 0.0
C343 C 0.39144 0.28957 0.08378 0.0
C344 C 0.39396 0.26547 1.00313 0.0
C345 C 0.37501 0.20348 0.10526 0.0
C346 C 0.36177 0.20159 0.15816 0.0
C347 C 0.37678 0.2209 0.14719 0.0
C348 C 0.38317 0.22195 0.12076 0.0
C349 C 0.36143 0.18355 0.11649 0.0
C350 C 0.35483 0.18262 0.14281 0.0
C351 C 0.37492 0.2075 0.07799 0.0
H352 H 0.34666 0.35606 0.93991 0.0
H353 H 0.34287 0.33029 0.97771 0.0
H354 H 0.36204 0.39006 1.02367 0.0
H355 H 0.36581 0.41584 0.98615 0.0
H356 H 0.38255 0.23546 0.15888 0.0
H357 H 0.39319 0.23776 0.11239 0.0
H358 H 0.35457 0.16941 0.10483 0.0
H359 H 0.34365 0.16733 0.15122 0.0
Dy360 Dy 0.84463 0.20945 0.96014 0.0
Dy361 Dy 0.89278 0.23611 0.98937 0.0
C362 C 0.90617 0.2091 0.93616 0.0
O363 O 0.84731 0.18846 0.99585 0.0
O364 O 0.88944 0.19904 1.00589 0.0
O365 O 0.82952 0.19369 0.92712 0.0
O366 O 0.80449 0.19389 0.96371 0.0
O367 O 0.85305 0.23791 1.0135 0.0
O368 O 0.82704 0.24141 0.98138 0.0
O369 O 0.87919 0.26466 0.96323 0.0
O370 O 0.85488 0.24224 0.93684 0.0
O371 O 0.90619 0.26366 1.01371 0.0
O372 O 0.93444 0.23691 0.99709 0.0
C373 C 0.86748 0.18557 1.00948 0.0
O374 O 0.8849 0.19513 0.94212 0.0
O375 O 0.91017 0.22801 0.94969 0.0
C376 C 0.78147 0.19409 0.92658 0.0
C377 C 0.73371 0.1987 0.90267 0.0
C378 C 0.75733 0.18869 0.88956 0.0
C379 C 0.78086 0.18637 0.90139 0.0
C380 C 0.75807 0.20456 0.9396 0.0
C381 C 0.73447 0.20684 0.92777 0.0
C382 C 0.80569 0.18898 0.93949 0.0
C383 C 0.83197 0.24684 1.0045 0.0
C384 C 0.86678 0.26226 0.94254 0.0
C385 C 0.94327 0.25333 0.03679 0.0
C386 C 0.97034 0.25367 0.08109 0.0
C387 C 0.94319 0.26118 0.08219 0.0
C388 C 0.92982 0.26105 0.06031 0.0
C389 C 0.97018 0.24547 0.03577 0.0
C390 C 0.98352 0.24557 0.0576 0.0
C391 C 0.93062 0.25488 1.01279 0.0
H392 H 0.75745 0.18198 0.87034 0.0
H393 H 0.79844 0.17796 0.89101 0.0
H394 H 0.75778 0.21064 0.95908 0.0
H395 H 0.7168 0.21496 0.9383 0.0
H396 H 0.93224 0.26725 0.09999 0.0
H397 H 0.90911 0.26731 0.06178 0.0
H398 H 0.9812 0.23971 1.01787 0.0
H399 H 1.00449 0.23999 0.05584 0.0
Dy400 Dy 0.67575 0.79467 0.51408 0.0
Dy401 Dy 0.66358 0.7426 0.49621 0.0
C402 C 0.70535 0.75013 0.53562 0.0
O403 O 0.71329 0.78493 0.48887 0.0
O404 O 0.69342 0.75836 0.46416 0.0
O405 O 0.70176 0.82233 0.52571 0.0
O406 O 0.66024 0.8303 0.51967 0.0
O407 O 0.63224 0.76563 0.48231 0.0
O408 O 0.65954 0.79764 0.47568 0.0
O409 O 0.64543 0.74289 0.53754 0.0
O410 O 0.63962 0.78306 0.54123 0.0
O411 O 0.63408 0.71681 0.48649 0.0
O412 O 0.67643 0.70725 0.4848 0.0
C413 C 0.71401 0.77247 0.46787 0.0
O414 O 0.69346 0.77052 0.54219 0.0
O415 O 0.70099 0.73939 0.5146 0.0
C416 C 0.67895 0.85225 0.55106 0.0
C417 C 0.67592 0.88129 0.59443 0.0
C418 C 0.68154 0.85692 0.59634 0.0
C419 C 0.68305 0.84244 0.57471 0.0
C420 C 0.67199 0.87623 0.54945 0.0
C421 C 0.67048 0.89066 0.57097 0.0
C422 C 0.68247 0.83813 0.52767 0.0
C423 C 0.63894 0.78505 0.46951 0.0
C424 C 0.63508 0.76144 0.55042 0.0
C425 C 0.65441 0.69613 0.45056 0.0
C426 C 0.67043 0.69135 0.39827 0.0
C427 C 0.65367 0.71022 0.40713 0.0
C428 C 0.64591 0.71278 0.43327 0.0
C429 C 0.66965 0.67645 0.4414 0.0
C430 C 0.67769 0.6741 0.41541 0.0
C431 C 0.65298 0.70197 0.47759 0.0
H432 H 0.68599 0.84938 0.61421 0.0
H433 H 0.68815 0.82381 0.57629 0.0
H434 H 0.66844 0.88395 0.53137 0.0
H435 H 0.66585 0.90936 0.56915 0.0
H436 H 0.6475 0.72336 0.39402 0.0
H437 H 0.63449 0.72839 0.43998 0.0
H438 H 0.67669 0.66368 0.45445 0.0
H439 H 0.69007 0.65902 0.40867 0.0
Dy440 Dy 0.18622 0.71337 0.59624 0.0
Dy441 Dy 0.13808 0.73982 0.5673 0.0
C442 C 0.12336 0.71046 0.61993 0.0
O443 O 0.18279 0.69193 0.56083 0.0
O444 O 0.142 0.70375 0.54877 0.0
O445 O 0.20228 0.69688 0.62829 0.0
O446 O 0.22722 0.70001 0.59184 0.0
O447 O 0.17785 0.74302 0.54325 0.0
O448 O 0.20339 0.7462 0.57582 0.0
O449 O 0.15052 0.7678 0.59478 0.0
O450 O 0.17597 0.74548 0.61989 0.0
O451 O 0.12562 0.76713 0.54219 0.0
O452 O 0.09634 0.7416 0.56038 0.0
C453 C 0.16339 0.68982 0.54609 0.0
O454 O 0.14665 0.69898 0.61655 0.0
O455 O 0.11823 0.72832 0.60532 0.0
C456 C 0.25038 0.69945 0.629 0.0
C457 C 0.29798 0.70404 0.65345 0.0
C458 C 0.2736 0.69534 0.66679 0.0
C459 C 0.25018 0.69303 0.65471 0.0
C460 C 0.27454 0.70869 0.61575 0.0
C461 C 0.29802 0.71099 0.62785 0.0
C462 C 0.22634 0.69394 0.61574 0.0
C463 C 0.19901 0.75171 0.55257 0.0
C464 C 0.16337 0.76521 0.61515 0.0
C465 C 0.08699 0.75705 0.52078 0.0
C466 C 0.05792 0.75604 0.47788 0.0
C467 C 0.08628 0.75952 0.47476 0.0
C468 C 0.1007 0.76007 0.49604 0.0
C469 C 0.05891 0.75292 0.52375 0.0
C470 C 0.04461 0.75227 0.50264 0.0
C471 C 0.10069 0.75904 0.54407 0.0
H472 H 0.27278 0.68953 0.68641 0.0
H473 H 0.23204 0.68554 0.66534 0.0
H474 H 0.27555 0.7137 0.59587 0.0
H475 H 0.31626 0.71812 0.61706 0.0
H476 H 0.09719 0.76261 0.456 0.0
H477 H 0.1224 0.76325 0.49315 0.0
H478 H 0.04783 0.75052 0.54258 0.0
H479 H 0.02294 0.74902 0.50583 0.0
Dy480 Dy 0.93776 0.69005 0.81958 0.0
Dy481 Dy 0.91424 0.73426 0.78803 0.0
C482 C 0.95635 0.74161 0.82792 0.0
O483 O 0.90266 0.70433 0.84678 0.0
O484 O 0.88212 0.73039 0.82128 0.0
O485 O 0.95437 0.67852 0.85333 0.0
O486 O 0.94984 0.65348 0.82277 0.0
O487 O 0.90555 0.69905 0.76836 0.0
O488 O 0.90252 0.67506 0.80341 0.0
O489 O 0.95569 0.72738 0.76767 0.0
O490 O 0.96326 0.68939 0.7811 0.0
O491 O 0.88325 0.75044 0.76798 0.0
O492 O 0.92191 0.76835 0.76962 0.0
C493 C 0.88276 0.7189 0.84287 0.0
O494 O 0.96539 0.72108 0.81942 0.0
O495 O 0.93267 0.74896 0.82228 0.0
C496 C 0.99013 0.65124 0.8419 0.0
C497 C 0.04586 0.64039 0.83454 0.0
C498 C 0.03678 0.66126 0.84741 0.0
C499 C 1.00919 0.6667 0.85098 0.0
C500 C 0.99923 0.63014 0.8295 0.0
C501 C 0.02684 0.62483 0.82571 0.0
C502 C 0.96123 0.6578 0.8433 0.0
C503 C 0.89898 0.67837 0.77961 0.0
C504 C 0.96957 0.70748 0.76554 0.0
C505 C 0.88485 0.79285 0.76046 0.0
C506 C 0.86407 0.83864 0.75071 0.0
C507 C 0.85426 0.81798 0.73968 0.0
C508 C 0.86448 0.79548 0.74452 0.0
C509 C 0.89436 0.81331 0.77204 0.0
C510 C 0.88403 0.83591 0.76728 0.0
C511 C 0.89813 0.76928 0.7616 0.0
H512 H 0.05108 0.67359 0.85429 0.0
H513 H 1.00295 0.68323 0.86043 0.0
H514 H 0.985 0.61794 0.8223 0.0
H515 H 0.03332 0.60845 0.81605 0.0
H516 H 0.83929 0.81917 0.72651 0.0
H517 H 0.8571 0.78012 0.73497 0.0
H518 H 0.91022 0.81194 0.78429 0.0
H519 H 0.89183 0.85125 0.77651 0.0
Dy520 Dy 0.51182 0.33292 0.28758 0.0
Dy521 Dy 0.53201 0.27772 0.27554 0.0
C522 C 0.49304 0.29052 0.3264 0.0
O523 O 0.55099 0.33081 0.3053 0.0
O524 O 0.55816 0.29011 0.3043 0.0
O525 O 0.48707 0.35608 0.31297 0.0
O526 O 0.51031 0.37075 0.27919 0.0
O527 O 0.56657 0.30162 0.25884 0.0
O528 O 0.54243 0.33546 0.25317 0.0
O529 O 0.50589 0.28674 0.24527 0.0
O530 O 0.48125 0.31804 0.26331 0.0
O531 O 0.54413 0.25101 0.24718 0.0
O532 O 0.54007 0.24158 0.28721 0.0
C533 C 0.56413 0.31171 0.31168 0.0
O534 O 0.5025 0.31223 0.32343 0.0
O535 O 0.49675 0.27519 0.30736 0.0
C536 C 0.46781 0.38835 0.29349 0.0
C537 C 0.42085 0.41539 0.28957 0.0
C538 C 0.4194 0.39038 0.29071 0.0
C539 C 0.44267 0.37698 0.29254 0.0
C540 C 0.46951 0.41321 0.29148 0.0
C541 C 0.44625 0.42664 0.28944 0.0
C542 C 0.49184 0.37473 0.29845 0.0
C543 C 0.56503 0.3233 0.24947 0.0
C544 C 0.48575 0.30174 0.24538 0.0
C545 C 0.57066 0.21848 0.25869 0.0
C546 C 0.61258 0.18514 0.24505 0.0
C547 C 0.61499 0.20876 0.23598 0.0
C548 C 0.59426 0.22527 0.24275 0.0
C549 C 0.56848 0.19513 0.26812 0.0
C550 C 0.58915 0.17867 0.26143 0.0
C551 C 0.547 0.23442 0.26386 0.0
H552 H 0.40017 0.38119 0.29054 0.0
H553 H 0.44087 0.35777 0.29391 0.0
H554 H 0.4887 0.42229 0.29224 0.0
H555 H 0.44798 0.44586 0.28881 0.0
H556 H 0.63291 0.21448 0.22364 0.0
H557 H 0.59648 0.24319 0.23516 0.0
H558 H 0.55037 0.18939 0.2802 0.0
H559 H 0.58637 0.16063 0.26855 0.0
Dy560 Dy 0.5212 0.8366 0.26475 0.0
Dy561 Dy 0.49515 0.78375 0.2816 0.0
C562 C 0.54031 0.79148 0.23222 0.0
O563 O 0.48869 0.83 0.23884 0.0
O564 O 0.46494 0.79791 0.25828 0.0
O565 O 0.54564 0.8592 0.23763 0.0
O566 O 0.52531 0.87395 0.2727 0.0
O567 O 0.46577 0.80953 0.30375 0.0
O568 O 0.48138 0.84514 0.28566 0.0
O569 O 0.53296 0.78765 0.30074 0.0
O570 O 0.53798 0.8281 0.30141 0.0
O571 O 0.48096 0.75864 0.3113 0.0
O572 O 0.48606 0.74734 0.27177 0.0
C573 C 0.46773 0.8151 0.2413 0.0
O574 O 0.54888 0.8101 0.24393 0.0
O575 O 0.51822 0.78 0.242 0.0
C576 C 0.56622 0.89215 0.25623 0.0
C577 C 0.611 0.92064 0.26506 0.0
C578 C 0.61423 0.89611 0.26012 0.0
C579 C 0.59197 0.88194 0.25582 0.0
C580 C 0.56287 0.91646 0.2615 0.0
C581 C 0.585 0.93056 0.26594 0.0
C582 C 0.54221 0.8779 0.2523 0.0
C583 C 0.46362 0.83282 0.30074 0.0
C584 C 0.5429 0.80693 0.31033 0.0
C585 C 0.45363 0.72598 0.30029 0.0
C586 C 0.41084 0.69306 0.31402 0.0
C587 C 0.40968 0.71637 0.32398 0.0
C588 C 0.43087 0.73265 0.31723 0.0
C589 C 0.45431 0.70312 0.28955 0.0
C590 C 0.43322 0.68685 0.2963 0.0
C591 C 0.47799 0.74138 0.29534 0.0
H592 H 0.63404 0.88796 0.25905 0.0
H593 H 0.59491 0.86311 0.25209 0.0
H594 H 0.54304 0.92454 0.26225 0.0
H595 H 0.58171 0.94927 0.27012 0.0
H596 H 0.39254 0.72197 0.33727 0.0
H597 H 0.42973 0.75022 0.32574 0.0
H598 H 0.47171 0.69752 0.27655 0.0
H599 H 0.43506 0.66907 0.28839 0.0
Dy600 Dy 0.09427 0.19115 0.74042 0.0
Dy601 Dy 0.11553 0.23727 0.77128 0.0
C602 C 0.07347 0.24158 0.73124 0.0
O603 O 0.12752 0.20801 0.71251 0.0
O604 O 0.14914 0.23128 0.73991 0.0
O605 O 0.07671 0.17747 0.70791 0.0
O606 O 0.0847 0.15365 0.73844 0.0
O607 O 0.12384 0.20297 0.79219 0.0
O608 O 0.13088 0.1794 0.75695 0.0
O609 O 0.07466 0.22864 0.79182 0.0
O610 O 0.06912 0.19003 0.77893 0.0
O611 O 0.14575 0.25528 0.79097 0.0
O612 O 0.10694 0.27189 0.78819 0.0
C613 C 0.14819 0.2216 0.71737 0.0
O614 O 0.06527 0.22083 0.74018 0.0
O615 O 0.09688 0.2501 0.73657 0.0
C616 C 0.04378 0.14772 0.72108 0.0
C617 C 0.98976 0.13044 0.72906 0.0
C618 C 0.99513 0.15507 0.72804 0.0
C619 C 0.02186 0.16363 0.72416 0.0
C620 C 0.03849 0.12318 0.72229 0.0
C621 C 1.01178 0.11461 0.72623 0.0
C622 C 0.0721 0.15651 0.71841 0.0
C623 C 0.13334 0.18317 0.78097 0.0
C624 C 0.06194 0.20802 0.79422 0.0
C625 C 0.14369 0.29816 0.7957 0.0
C626 C 0.1662 0.3441 0.80357 0.0
C627 C 0.18195 0.32334 0.80408 0.0
C628 C 0.17085 0.30075 0.80026 0.0
C629 C 0.1281 0.3189 0.79454 0.0
C630 C 0.1392 0.3415 0.7983 0.0
C631 C 0.13067 0.27406 0.7962 0.0
H632 H 0.97867 0.16775 0.72986 0.0
H633 H 0.02535 0.1827 0.7237 0.0
H634 H 0.05507 0.11061 0.72044 0.0
H635 H 1.00838 0.09555 0.72731 0.0
H636 H 0.20267 0.32437 0.80839 0.0
H637 H 0.18334 0.28522 0.80183 0.0
H638 H 0.10698 0.31766 0.79145 0.0
H639 H 0.12646 0.35695 0.7973 0.0
Dy640 Dy 0.76716 0.04767 0.68947 0.0
Dy641 Dy 0.74487 0.04005 0.74941 0.0
C642 C 0.79777 0.07081 0.73169 0.0
O643 O 0.79286 0.01727 0.70219 0.0
O644 O 0.76532 1.00614 0.73849 0.0
O645 O 0.79956 0.0559 0.65961 0.0
O646 O 0.75844 0.05072 0.65061 0.0
O647 O 0.71646 0.01971 0.72685 0.0
O648 O 0.7451 0.01361 0.69007 0.0
O649 O 0.73345 0.07686 0.74045 0.0
O650 O 0.72898 0.0696 0.69883 0.0
O651 O 0.71081 0.0402 0.77918 0.0
O652 O 0.75104 0.03131 0.78804 0.0
C653 C 0.78575 1.00195 0.72096 0.0
O654 O 0.78657 0.07534 0.71111 0.0
O655 O 0.78701 0.055 0.74831 0.0
C656 C 0.7848 0.08002 0.62752 0.0
C657 C 0.78539 0.12272 0.59941 0.0
C658 C 0.7892 0.12307 0.62535 0.0
C659 C 0.78876 0.10193 0.63931 0.0
C660 C 0.78102 0.07952 0.6017 0.0
C661 C 0.78129 0.10068 0.58774 0.0
C662 C 0.78302 0.05782 0.64233 0.0
C663 C 0.7237 1.00775 0.70574 0.0
C664 C 0.72278 0.08219 0.71978 0.0
C665 C 0.71637 1.00401 0.80066 0.0
C666 C 0.71324 0.95401 0.79971 0.0
C667 C 0.69698 0.96755 0.78544 0.0
C668 C 0.69856 0.99233 0.78584 0.0
C669 C 0.73124 0.99039 0.81624 0.0
C670 C 0.72979 0.96558 0.81567 0.0
C671 C 0.72494 0.02872 0.7945 0.0
H672 H 0.79283 0.13965 0.63486 0.0
H673 H 0.79143 0.10272 0.65934 0.0
H674 H 0.77756 0.06277 0.59241 0.0
H675 H 0.77793 0.09979 0.56791 0.0
H676 H 0.68388 0.95897 0.7732 0.0
H677 H 0.68703 1.00219 0.7733 0.0
H678 H 0.74534 0.99888 0.82754 0.0
H679 H 0.74196 0.95541 0.82741 0.0
Dy680 Dy 0.79325 0.01907 0.17337 0.0
Dy681 Dy 0.82308 0.0527 0.21568 0.0
C682 C 0.77765 0.01397 0.23238 0.0
O683 O 0.76244 0.04751 0.18649 0.0
O684 O 0.78672 0.07356 0.20951 0.0
O685 O 0.75901 0.99815 0.16417 0.0
O686 O 0.79502 1.00178 0.13662 0.0
O687 O 0.84148 0.06494 0.17628 0.0
O688 O 0.80963 0.05099 0.15162 0.0
O689 O 0.84239 0.01662 0.21562 0.0
O690 O 0.83165 0.9997 0.17847 0.0
O691 O 0.8477 0.08288 0.22506 0.0
O692 O 0.83323 0.05721 0.25412 0.0
C693 C 0.76479 0.06757 0.19927 0.0
O694 O 0.7866 1.00237 0.21164 0.0
O695 O 0.78463 0.0363 0.23552 0.0
C696 C 0.76982 0.96544 0.1354 0.0
C697 C 0.76353 0.91751 0.11932 0.0
C698 C 0.74974 0.92577 0.14255 0.0
C699 C 0.75281 0.94941 0.15047 0.0
C700 C 0.7839 0.95711 0.11242 0.0
C701 C 0.78092 0.93351 0.10455 0.0
C702 C 0.77157 0.99112 0.14226 0.0
C703 C 0.83002 0.06515 0.15497 0.0
C704 C 0.84395 0.99894 0.19915 0.0
C705 C 0.84434 0.09636 0.2686 0.0
C706 C 0.84722 0.13031 0.30838 0.0
C707 C 0.86391 0.13244 0.28491 0.0
C708 C 0.86254 0.1157 0.2654 0.0
C709 C 0.82696 0.09452 0.29169 0.0
C710 C 0.82832 0.11132 0.31128 0.0
C711 C 0.84652 0.07705 0.24905 0.0
H712 H 0.73587 0.9142 0.15433 0.0
H713 H 0.74139 0.9552 0.16816 0.0
H714 H 0.797 0.96901 0.10024 0.0
H715 H 0.79224 0.92785 0.08677 0.0
H716 H 0.87832 0.147 0.28159 0.0
H717 H 0.87637 0.11753 0.24797 0.0
H718 H 0.81285 0.07974 0.29497 0.0
H719 H 0.8152 0.10887 0.32903 0.0
Dy720 Dy 0.23561 0.52117 0.38579 0.0
Dy721 Dy 0.21274 0.55532 0.34003 0.0
C722 C 0.25593 0.51354 0.32832 0.0
O723 O 0.2682 0.54834 0.37247 0.0
O724 O 0.24329 0.57794 0.35599 0.0
O725 O 0.26865 0.50148 0.39865 0.0
O726 O 0.23 0.50358 0.42257 0.0
O727 O 0.19394 0.57217 0.37721 0.0
O728 O 0.21715 0.5528 0.40649 0.0
O729 O 0.19204 0.51956 0.33867 0.0
O730 O 0.19784 0.50243 0.3772 0.0
O731 O 0.18212 0.57541 0.32266 0.0
O732 O 0.22158 0.56843 0.30154 0.0
C733 C 0.26544 0.57041 0.36455 0.0
O734 O 0.24478 0.50266 0.34884 0.0
O735 O 0.25112 0.53615 0.32442 0.0
C736 C 0.25668 0.46918 0.4271 0.0
C737 C 0.263 0.42118 0.44228 0.0
C738 C 0.25513 0.42662 0.41816 0.0
C739 C 0.252 0.45037 0.41066 0.0
C740 C 0.26429 0.46389 0.45113 0.0
C741 C 0.26748 0.44025 0.45862 0.0
C742 C 0.25428 0.49444 0.41972 0.0
C743 C 0.20085 0.56972 0.40053 0.0
C744 C 0.18768 0.50207 0.35535 0.0
C745 C 0.19577 0.59902 0.28411 0.0
C746 C 0.18815 0.63488 0.24728 0.0
C747 C 0.17316 0.63509 0.27183 0.0
C748 C 0.17679 0.61731 0.28995 0.0
C749 C 0.21098 0.59905 0.25983 0.0
C750 C 0.20721 0.61655 0.24175 0.0
C751 C 0.19783 0.57798 0.30105 0.0
H752 H 0.25117 0.41254 0.40511 0.0
H753 H 0.24601 0.45405 0.39203 0.0
H754 H 0.2681 0.47812 0.46409 0.0
H755 H 0.27405 0.43703 0.47708 0.0
H756 H 0.15851 0.64896 0.27711 0.0
H757 H 0.16442 0.61768 0.30832 0.0
H758 H 0.2253 0.58493 0.2544 0.0
H759 H 0.21878 0.61513 0.22308 0.0
Dy760 Dy 0.26345 0.55282 0.86923 0.0
Dy761 Dy 0.28621 0.54866 0.80934 0.0
C762 C 0.23401 0.57772 0.82796 0.0
O763 O 0.24018 0.52158 0.85456 0.0
O764 O 0.26936 0.51268 0.81872 0.0
O765 O 0.22942 0.55818 0.8982 0.0
O766 O 0.27017 0.55542 0.90869 0.0
O767 O 0.31636 0.52891 0.82999 0.0
O768 O 0.29056 0.52202 0.86861 0.0
O769 O 0.29651 0.58535 0.82065 0.0
O770 O 0.30072 0.57641 0.86193 0.0
O771 O 0.31888 0.5523 0.77852 0.0
O772 O 0.27818 0.54332 0.7706 0.0
C773 C 0.2486 0.50707 0.83548 0.0
O774 O 0.24523 0.58184 0.84859 0.0
O775 O 0.24334 0.56087 0.81231 0.0
C776 C 0.24176 0.58364 0.93037 0.0
C777 C 0.24068 0.62733 0.95662 0.0
C778 C 0.23595 0.62652 0.93093 0.0
C779 C 0.23666 0.6049 0.91789 0.0
C780 C 0.24616 0.58426 0.95602 0.0
C781 C 0.24565 0.60593 0.96906 0.0
C782 C 0.24507 0.56124 0.91609 0.0
C783 C 0.31196 0.51807 0.85222 0.0
C784 C 0.30667 0.59009 0.84176 0.0
C785 C 0.31296 0.5197 0.752 0.0
C786 C 0.31605 0.47105 0.74072 0.0
C787 C 0.32653 0.47984 0.76226 0.0
C788 C 0.32512 0.50395 0.7678 0.0
C789 C 0.30349 0.51113 0.72982 0.0
C790 C 0.30521 0.48687 0.72407 0.0
C791 C 0.30402 0.54282 0.76235 0.0
H792 H 0.23161 0.64257 0.92088 0.0
H793 H 0.23359 0.60486 0.89795 0.0
H794 H 0.25058 0.56806 0.96579 0.0
H795 H 0.24973 0.60596 0.98871 0.0
H796 H 0.33551 0.46801 0.77503 0.0
H797 H 0.33222 0.50998 0.78526 0.0
H798 H 0.29343 0.5229 0.7178 0.0
H799 H 0.29716 0.48035 0.70722 0.0
Dy800 Dy 0.66626 0.78042 1.00069 0.0
Dy801 Dy 0.67371 0.72566 1.01626 0.0
C802 C 0.643 0.73952 0.96822 0.0
O803 O 0.63213 0.7733 0.03269 0.0
O804 O 0.64917 0.74045 0.05065 0.0
O805 O 0.63934 0.8069 0.98864 0.0
O806 O 0.68123 0.81611 0.9928 0.0
O807 O 0.70418 0.74771 0.03583 0.0
O808 O 0.68357 0.7842 0.03658 0.0
O809 O 0.70179 0.72942 0.98031 0.0
O810 O 0.70812 0.7698 0.98158 0.0
O811 O 0.69886 0.69567 1.0229 0.0
O812 O 0.65505 0.69163 1.02647 0.0
C813 C 0.6324 0.75841 0.05204 0.0
O814 O 0.65692 0.75926 0.9675 0.0
O815 O 0.64184 0.7257 0.9885 0.0
C816 C 0.66488 0.82801 0.9554 0.0
C817 C 0.68544 0.83349 0.90372 0.0
C818 C 0.66724 0.81492 0.91135 0.0
C819 C 0.65694 0.8123 0.93691 0.0
C820 C 0.68229 0.84704 0.94778 0.0
C821 C 0.69235 0.84987 0.92213 0.0
C822 C 0.65953 0.82173 0.98249 0.0
C823 C 0.70129 0.76985 0.04434 0.0
C824 C 0.71591 0.74852 0.97293 0.0
C825 C 0.67817 0.66805 0.05336 0.0
C826 C 0.67758 0.64065 0.09811 0.0
C827 C 0.69028 0.66317 0.09624 0.0
C828 C 0.69046 0.67684 0.07406 0.0
C829 C 0.66534 0.64576 0.05527 0.0
C830 C 0.66502 0.63219 0.07739 0.0
C831 C 0.67805 0.68177 0.02971 0.0
H832 H 0.66142 0.80208 0.89771 0.0
H833 H 0.64356 0.79738 0.94227 0.0
H834 H 0.68889 0.85917 0.96175 0.0
H835 H 0.70562 0.86489 0.91678 0.0
H836 H 0.70001 0.67022 0.11191 0.0
H837 H 0.70024 0.69417 0.07305 0.0
H838 H 0.65571 0.63873 0.03951 0.0
H839 H 0.65553 0.61475 0.07798 0.0
Dy840 Dy 0.13484 0.79008 0.06958 0.0
Dy841 Dy 0.18718 0.81507 0.0953 0.0
C842 C 0.19626 0.77738 0.04974 0.0
O843 O 0.14379 0.76517 0.10165 0.0
O844 O 0.18556 0.77852 0.11129 0.0
O845 O 0.11756 0.76065 0.05023 0.0
O846 O 0.09316 0.79151 0.06183 0.0
O847 O 0.15067 0.81764 0.12472 0.0
O848 O 0.11678 0.81579 0.09904 0.0
O849 O 0.17642 0.84104 0.06553 0.0
O850 O 0.14737 0.82004 0.04283 0.0
O851 O 0.20356 0.83199 0.12702 0.0
O852 O 0.22801 0.82933 0.09026 0.0
C853 C 0.1655 0.76295 0.11378 0.0
O854 O 0.17234 0.7826 0.04333 0.0
O855 O 0.20458 0.78516 0.07087 0.0
C856 C 0.0827 0.77158 1.02464 0.0
C857 C 0.05771 0.77093 0.979 0.0
C858 C 0.08532 0.765 0.97871 0.0
C859 C 0.0977 0.76536 1.00125 0.0
C860 C 0.05528 0.77762 1.02489 0.0
C861 C 0.04297 0.77735 1.00245 0.0
C862 C 0.09457 0.77156 0.04914 0.0
C863 C 0.12503 0.81951 0.12132 0.0
C864 C 0.16309 0.83853 0.04558 0.0
C865 C 0.25171 0.83027 0.12711 0.0
C866 C 0.2998 0.82622 0.15084 0.0
C867 C 0.27558 0.83452 0.16456 0.0
C868 C 0.25191 0.8366 0.15282 0.0
C869 C 0.27569 0.82136 0.11354 0.0
C870 C 0.29939 0.81934 0.12526 0.0
C871 C 0.22744 0.83539 0.11416 0.0
H872 H 0.09745 0.76021 0.96101 0.0
H873 H 0.11892 0.76071 1.00036 0.0
H874 H 0.04319 0.78236 0.04264 0.0
H875 H 0.02164 0.78165 1.00363 0.0
H876 H 0.2749 0.83959 0.1844 0.0
H877 H 0.23385 0.8437 0.16375 0.0
H878 H 0.27644 0.81653 0.09363 0.0
H879 H 0.31764 0.81311 0.11394 0.0
Dy880 Dy 0.36529 0.28263 0.55682 0.0
Dy881 Dy 0.35347 0.22861 0.54316 0.0
C882 C 0.38662 0.24198 0.59021 0.0
O883 O 0.3989 0.27279 0.52523 0.0
O884 O 0.37756 0.24191 0.50781 0.0
O885 O 0.3947 0.30819 0.56682 0.0
O886 O 0.3533 0.31909 0.5636 0.0
O887 O 0.32354 0.25179 0.52434 0.0
O888 O 0.34802 0.28656 0.52097 0.0
O889 O 0.32705 0.23347 0.57958 0.0
O890 O 0.32286 0.27388 0.57711 0.0
O891 O 0.32647 0.19979 0.53588 0.0
O892 O 0.36968 0.19363 0.53503 0.0
C893 C 0.39641 0.25836 0.50588 0.0
O894 O 0.37429 0.26236 0.59058 0.0
O895 O 0.38592 0.22771 0.57045 0.0
C896 C 0.37224 0.33157 0.59979 0.0
C897 C 0.35629 0.33752 0.65221 0.0
C898 C 0.3786 0.32323 0.64382 0.0
C899 C 0.38649 0.3202 0.61779 0.0
C900 C 0.3509 0.34689 0.60827 0.0
C901 C 0.34293 0.34978 0.63424 0.0
C902 C 0.37586 0.32404 0.57297 0.0
C903 C 0.32839 0.27335 0.51453 0.0
C904 C 0.31395 0.25299 0.58648 0.0
C905 C 0.34714 0.17159 0.50659 0.0
C906 C 0.35276 0.14581 0.46065 0.0
C907 C 0.34586 0.17005 0.46079 0.0
C908 C 0.34329 0.18294 0.48363 0.0
C909 C 0.35368 0.14742 0.50651 0.0
C910 C 0.35649 0.13464 0.48376 0.0
C911 C 0.3464 0.18487 0.53049 0.0
H912 H 0.38957 0.31408 0.65737 0.0
H913 H 0.40305 0.3082 0.61187 0.0
H914 H 0.33961 0.35583 0.59481 0.0
H915 H 0.32633 0.36172 0.64027 0.0
H916 H 0.34289 0.17907 0.44324 0.0
H917 H 0.33861 0.20175 0.48336 0.0
H918 H 0.35689 0.13847 0.52404 0.0
H919 H 0.3613 0.11587 0.48431 0.0
Dy920 Dy 0.8933 0.28473 0.48892 0.0
Dy921 Dy 0.84462 0.3108 0.45969 0.0
C922 C 0.83204 0.27294 0.50419 0.0
O923 O 0.88135 0.25649 0.46139 0.0
O924 O 0.85233 0.27705 0.43808 0.0
O925 O 0.9067 0.25694 0.5129 0.0
O926 O 0.93471 0.28462 0.49735 0.0
O927 O 0.88427 0.32497 0.43935 0.0
O928 O 0.91302 0.29599 0.45081 0.0
O929 O 0.8477 0.33242 0.49507 0.0
O930 O 0.88851 0.32087 0.50736 0.0
O931 O 0.82875 0.32594 0.4269 0.0
O932 O 0.80428 0.32576 0.46375 0.0
C933 C 0.86614 0.25788 0.44249 0.0
O934 O 0.85365 0.28116 0.51317 0.0
O935 O 0.82707 0.27867 0.48115 0.0
C936 C 0.94327 0.26771 0.53676 0.0
C937 C 0.96959 0.2679 0.58153 0.0
C938 C 0.94218 0.26084 0.58246 0.0
C939 C 0.92916 0.26074 0.56034 0.0
C940 C 0.97049 0.27502 0.5359 0.0
C941 C 0.98345 0.27519 0.55795 0.0
C942 C 0.93095 0.26627 0.51256 0.0
C943 C 0.9077 0.31372 0.43613 0.0
C944 C 0.86703 0.33471 0.50987 0.0
C945 C 0.78034 0.32497 0.4271 0.0
C946 C 0.73254 0.32086 0.40279 0.0
C947 C 0.75843 0.31979 0.38856 0.0
C948 C 0.78199 0.3219 0.40053 0.0
C949 C 0.7545 0.32544 0.4414 0.0
C950 C 0.73094 0.32333 0.42944 0.0
C951 C 0.80503 0.33041 0.43949 0.0
H952 H 0.93075 0.25536 0.60032 0.0
H953 H 0.90818 0.25496 0.56169 0.0
H954 H 0.98198 0.28023 0.51796 0.0
H955 H 1.00462 0.28039 0.55633 0.0
H956 H 0.76055 0.31817 0.368 0.0
H957 H 0.8015 0.32181 0.38883 0.0
H958 H 0.75241 0.32801 0.46186 0.0
H959 H 0.71142 0.32383 0.4411 0.0
H960 H 0.12825 0.35561 0.3289 0.0
H961 H 0.15898 0.3855 0.25568 0.0
H962 H 0.13911 0.39304 0.34953 0.0
H963 H 0.17021 0.42228 0.27602 0.0
H964 H 0.16231 0.49416 0.31274 0.0
H965 H 0.14912 0.45622 0.2956 0.0
H966 H 0.1738 0.41983 0.36084 0.0
H967 H 0.18637 0.45795 0.37835 0.0
C968 C 0.13774 0.36994 0.31725 0.0
C969 C 0.14258 0.36744 0.29058 0.0
C970 C 0.14393 0.3915 0.32906 0.0
C971 C 0.15512 0.41108 0.3145 0.0
C972 C 0.16089 0.40806 0.28795 0.0
C973 C 0.15468 0.3867 0.27624 0.0
C974 C 0.16449 0.47816 0.32374 0.0
C975 C 0.17536 0.47935 0.34707 0.0
C976 C 0.15721 0.45623 0.31371 0.0
C977 C 0.16074 0.43465 0.32653 0.0
C978 C 0.17057 0.43592 0.35039 0.0
C979 C 0.17776 0.45792 0.3605 0.0
H980 H 0.34311 0.59924 0.87588 0.0
H981 H 0.31577 0.62594 0.80687 0.0
H982 H 0.37925 0.62943 0.87215 0.0
H983 H 0.35174 0.65579 0.8031 0.0
H984 H 0.41102 0.71612 0.80774 0.0
H985 H 0.37037 0.69197 0.82139 0.0
H986 H 0.42116 0.63497 0.84242 0.0
H987 H 0.46136 0.659 0.8288 0.0
C988 C 0.3445 0.61176 0.86017 0.0
C989 C 0.32659 0.61004 0.84163 0.0
C990 C 0.3653 0.62899 0.85795 0.0
C991 C 0.36845 0.64509 0.83731 0.0
C992 C 0.34977 0.64397 0.81943 0.0
C993 C 0.32921 0.62666 0.8215 0.0
C994 C 0.41332 0.69878 0.81616 0.0
C995 C 0.43929 0.68952 0.8175 0.0
C996 C 0.39011 0.68481 0.82366 0.0
C997 C 0.39246 0.66145 0.83295 0.0
C998 C 0.41847 0.65291 0.8357 0.0
C999 C 0.44156 0.66669 0.82787 0.0
H1000 H 0.62098 0.20602 0.76308 0.0
H1001 H 0.57349 0.16188 0.71853 0.0
H1002 H 0.66013 0.18001 0.75222 0.0
H1003 H 0.61251 0.13588 0.70743 0.0
H1004 H 0.69425 0.09939 0.68191 0.0
H1005 H 0.65936 0.13039 0.68584 0.0
H1006 H 0.66967 0.13946 0.76518 0.0
H1007 H 0.70433 0.10905 0.76128 0.0
C1008 C 0.61932 0.19134 0.75005 0.0
C1009 C 0.59446 0.18632 0.74107 0.0
C1010 C 0.64157 0.17616 0.74416 0.0
C1011 C 0.63952 0.15569 0.72901 0.0
C1012 C 0.61501 0.15155 0.71887 0.0
C1013 C 0.59267 0.16651 0.72511 0.0
C1014 C 0.68921 0.10816 0.70011 0.0
C1015 C 0.70231 0.10169 0.7212 0.0
C1016 C 0.66913 0.12589 0.7024 0.0
C1017 C 0.66181 0.13767 0.72579 0.0
C1018 C 0.67512 0.13126 0.74673 0.0
C1019 C 0.69499 0.11359 0.74448 0.0
H1020 H 0.92235 0.8852 0.27568 0.0
H1021 H 0.86268 0.84784 0.23791 0.0
H1022 H 0.91205 0.92203 0.25525 0.0
H1023 H 0.85107 0.88541 0.21794 0.0
H1024 H 0.84743 0.95584 0.17346 0.0
H1025 H 0.86188 0.91743 0.18878 0.0
H1026 H 0.87962 0.95114 0.25837 0.0
H1027 H 0.86648 0.98923 0.2427 0.0
C1028 C 0.9069 0.8849 0.26291 0.0
C1029 C 0.89326 0.86357 0.25854 0.0
C1030 C 0.90073 0.90621 0.2513 0.0
C1031 C 0.88021 0.90718 0.2352 0.0
C1032 C 0.8671 0.88556 0.23006 0.0
C1033 C 0.87369 0.86395 0.2415 0.0
C1034 C 0.85503 0.95513 0.19178 0.0
C1035 C 0.85611 0.97595 0.20657 0.0
C1036 C 0.86298 0.93294 0.20077 0.0
C1037 C 0.87215 0.93083 0.22489 0.0
C1038 C 0.87342 0.95178 0.23946 0.0
C1039 C 0.86573 0.97386 0.23042 0.0
H1040 H 0.31785 0.14441 0.42454 0.0
H1041 H 0.3929 0.11493 0.44341 0.0
H1042 H 0.31667 0.11455 0.39104 0.0
H1043 H 0.39173 0.0851 0.40997 0.0
H1044 H 0.34011 0.0163 0.39419 0.0
H1045 H 0.35758 0.05163 0.41345 0.0
H1046 H 0.33838 0.09413 0.35003 0.0
H1047 H 0.32137 0.05827 0.33044 0.0
C1048 C 0.33454 0.13206 0.42094 0.0
C1049 C 0.35514 0.13159 0.4369 0.0
C1050 C 0.33393 0.11502 0.40171 0.0
C1051 C 0.35395 0.09732 0.39816 0.0
C1052 C 0.37587 0.09834 0.41254 0.0
C1053 C 0.37646 0.11532 0.43172 0.0
C1054 C 0.34083 0.033 0.38383 0.0
C1055 C 0.3298 0.03463 0.36077 0.0
C1056 C 0.35078 0.05325 0.39483 0.0
C1057 C 0.3493 0.07566 0.38324 0.0
C1058 C 0.33979 0.07707 0.35931 0.0
C1059 C 0.33035 0.05658 0.348 0.0
H1060 H 0.2011 0.96551 0.95112 0.0
H1061 H 0.18005 0.91296 0.89722 0.0
H1062 H 0.19117 0.93717 0.98564 0.0
H1063 H 0.17079 0.88399 0.93196 0.0
H1064 H 0.13514 0.84283 1.00391 0.0
H1065 H 0.14241 0.87152 0.96905 0.0
H1066 H 0.20799 0.90353 1.00397 0.0
H1067 H 0.20008 0.87541 0.03917 0.0
C1068 C 0.19425 0.94785 0.94657 0.0
C1069 C 0.19132 0.94168 0.92121 0.0
C1070 C 0.18879 0.93138 0.9665 0.0
C1071 C 0.18042 0.90795 0.96188 0.0
C1072 C 0.17689 0.90186 0.93653 0.0
C1073 C 0.18219 0.91851 0.9165 0.0
C1074 C 0.15099 0.85612 1.00431 0.0
C1075 C 0.16679 0.85682 1.0247 0.0
C1076 C 0.15534 0.87252 0.98407 0.0
C1077 C 0.17576 0.89014 0.98343 0.0
C1078 C 0.19165 0.89071 1.00381 0.0
C1079 C 0.18716 0.87443 1.02412 0.0
H1080 H 0.82641 0.36756 0.51987 0.0
H1081 H 0.89868 0.34252 0.54879 0.0
H1082 H 0.81869 0.39546 0.55507 0.0
H1083 H 0.89122 0.37104 0.58401 0.0
H1084 H 0.85334 0.41125 0.65785 0.0
H1085 H 0.8632 0.38191 0.62348 0.0
H1086 H 0.8353 0.43148 0.57016 0.0
H1087 H 0.82519 0.4602 0.60407 0.0
C1088 C 0.84092 0.36813 0.53356 0.0
C1089 C 0.86342 0.35279 0.53105 0.0
C1090 C 0.83652 0.38434 0.55387 0.0
C1091 C 0.85444 0.38592 0.57254 0.0
C1092 C 0.87683 0.37041 0.57023 0.0
C1093 C 0.88129 0.35416 0.54978 0.0
C1094 C 0.84967 0.41597 0.63871 0.0
C1095 C 0.83842 0.43827 0.63397 0.0
C1096 C 0.8553 0.39909 0.61892 0.0
C1097 C 0.84981 0.40402 0.59382 0.0
C1098 C 0.83928 0.42658 0.58914 0.0
C1099 C 0.83367 0.44329 0.60876 0.0
H1100 H 0.70795 0.51118 0.15619 0.0
H1101 H 0.70229 0.54718 0.22879 0.0
H1102 H 0.69197 0.54687 0.13654 0.0
H1103 H 0.6866 0.58339 0.20874 0.0
H1104 H 0.63694 0.61288 0.12261 0.0
H1105 H 0.64151 0.58156 0.15397 0.0
H1106 H 0.72487 0.60218 0.15643 0.0
H1107 H 0.72082 0.63303 0.12447 0.0
C1108 C 0.70232 0.5265 0.16811 0.0
C1109 C 0.70594 0.52642 0.19403 0.0
C1110 C 0.69333 0.54688 0.15685 0.0
C1111 C 0.68813 0.56765 0.17123 0.0
C1112 C 0.69038 0.56739 0.19745 0.0
C1113 C 0.69902 0.54671 0.20891 0.0
C1114 C 0.65613 0.61102 0.13015 0.0
C1115 C 0.67865 0.6252 0.12077 0.0
C1116 C 0.65857 0.59332 0.14827 0.0
C1117 C 0.6834 0.58981 0.15766 0.0
C1118 C 0.70537 0.605 0.14975 0.0
C1119 C 0.70303 0.62259 0.13145 0.0
H1120 H 0.37573 0.3189 0.12531 0.0
H1121 H 0.43831 0.26988 0.09581 0.0
H1122 H 0.39634 0.32215 0.16506 0.0
H1123 H 0.45927 0.2736 0.13464 0.0
H1124 H 0.4791 0.26388 0.21419 0.0
H1125 H 0.45567 0.26206 0.17661 0.0
H1126 H 0.43174 0.33547 0.18796 0.0
H1127 H 0.45443 0.33683 0.2266 0.0
C1128 C 0.39413 0.30913 0.12707 0.0
C1129 C 0.40524 0.29413 0.10715 0.0
C1130 C 0.40604 0.31097 0.14998 0.0
C1131 C 0.42949 0.29789 0.15367 0.0
C1132 C 0.4409 0.28351 0.13326 0.0
C1133 C 0.42897 0.28158 0.11061 0.0
C1134 C 0.46867 0.27964 0.20889 0.0
C1135 C 0.46886 0.30052 0.22362 0.0
C1136 C 0.45535 0.27871 0.18695 0.0
C1137 C 0.44202 0.29877 0.17846 0.0
C1138 C 0.44152 0.31953 0.19365 0.0
C1139 C 0.45462 0.32035 0.21593 0.0
H1140 H 0.92869 0.16781 0.91399 0.0
H1141 H 0.92591 0.24398 0.90432 0.0
H1142 H 0.96572 0.16568 0.8784 0.0
H1143 H 0.96172 0.24193 0.86886 0.0
H1144 H 0.04828 0.23769 0.83436 0.0
H1145 H 1.00919 0.2357 0.86653 0.0
H1146 H 0.98205 0.1714 0.83236 0.0
H1147 H 0.0221 0.17309 0.80007 0.0
C1148 C 0.93557 0.18395 0.90393 0.0
C1149 C 0.92483 0.20609 0.91223 0.0
C1150 C 0.95676 0.18279 0.88358 0.0
C1151 C 0.9673 0.20374 0.87118 0.0
C1152 C 0.95491 0.22552 0.87845 0.0
C1153 C 0.93419 0.22669 0.89873 0.0
C1154 C 0.0341 0.22305 0.83358 0.0
C1155 C 0.03837 0.20563 0.81445 0.0
C1156 C 1.01145 0.22199 0.85204 0.0
C1157 C 0.99207 0.20361 0.85189 0.0
C1158 C 0.99657 0.18578 0.83312 0.0
C1159 C 0.0195 0.18677 0.81459 0.0
H1160 H 0.55228 0.76647 0.337 0.0
H1161 H 0.57051 0.84173 0.33422 0.0
H1162 H 0.57604 0.76238 0.37426 0.0
H1163 H 0.59398 0.83772 0.3721 0.0
H1164 H 0.65365 0.81725 0.43026 0.0
H1165 H 0.63225 0.82292 0.39125 0.0
H1166 H 0.57094 0.77084 0.41805 0.0
H1167 H 0.59252 0.76487 0.45627 0.0
C1168 C 0.56142 0.78223 0.34424 0.0
C1169 C 0.55919 0.80449 0.33241 0.0
C1170 C 0.57493 0.77991 0.36595 0.0
C1171 C 0.58678 0.79975 0.37678 0.0
C1172 C 0.58529 0.82194 0.36449 0.0
C1173 C 0.57164 0.82428 0.34273 0.0
C1174 C 0.63545 0.8072 0.4279 0.0
C1175 C 0.62491 0.79061 0.44661 0.0
C1176 C 0.6231 0.81044 0.40545 0.0
C1177 C 0.59985 0.79718 0.40104 0.0
C1178 C 0.58909 0.78104 0.42015 0.0
C1179 C 0.60141 0.77777 0.44239 0.0
H1180 H 0.12845 0.69509 0.66903 0.0
H1181 H 0.06921 0.71386 0.6194 0.0
H1182 H 0.09216 0.69314 0.70532 0.0
H1183 H 0.0334 0.71159 0.65497 0.0
H1184 H 0.9823 0.73779 0.72542 0.0
H1185 H 0.02013 0.73616 0.69176 0.0
H1186 H 0.04908 0.67247 0.72494 0.0
H1187 H 1.01088 0.67423 0.75923 0.0
C1188 C 0.10767 0.69814 0.66572 0.0
C1189 C 0.10176 0.70461 0.64128 0.0
C1190 C 0.08687 0.69716 0.68653 0.0
C1191 C 0.0598 0.70261 0.68325 0.0
C1192 C 0.05398 0.70786 0.65849 0.0
C1193 C 0.07457 0.70894 0.63795 0.0
C1194 C 0.99662 0.72337 0.72571 0.0
C1195 C 0.99318 0.70598 0.74503 0.0
C1196 C 0.01837 0.72236 0.7062 0.0
C1197 C 0.03759 0.70397 0.70527 0.0
C1198 C 0.03469 0.68687 0.72496 0.0
C1199 C 1.01264 0.68777 0.74452 0.0
H1200 H 0.86352 0.67274 0.74298 0.0
H1201 H 0.91962 0.63449 0.78368 0.0
H1202 H 0.8506 0.63512 0.72363 0.0
H1203 H 0.908 0.59758 0.76385 0.0
H1204 H 0.86083 0.53074 0.74916 0.0
H1205 H 0.87445 0.56872 0.7657 0.0
H1206 H 0.86172 0.60296 0.695 0.0
H1207 H 0.84725 0.5649 0.67874 0.0
C1208 C 0.87341 0.65641 0.74745 0.0
C1209 C 0.89238 0.65665 0.76511 0.0
C1210 C 0.86608 0.63475 0.73634 0.0
C1211 C 0.87786 0.61288 0.74235 0.0
C1212 C 0.89768 0.61361 0.75921 0.0
C1213 C 0.90457 0.63498 0.7705 0.0
C1214 C 0.86128 0.54624 0.73692 0.0
C1215 C 0.85319 0.54441 0.7124 0.0
C1216 C 0.8692 0.56823 0.74643 0.0
C1217 C 0.86945 0.5893 0.73177 0.0
C1218 C 0.86164 0.5874 0.7071 0.0
C1219 C 0.85367 0.56536 0.69758 0.0
H1220 H 0.56862 0.36565 0.22359 0.0
H1221 H 0.6182 0.31099 0.2514 0.0
H1222 H 0.60873 0.39047 0.2126 0.0
H1223 H 0.65852 0.33575 0.23996 0.0
H1224 H 0.71273 0.40093 0.25336 0.0
H1225 H 0.67596 0.37195 0.25707 0.0
H1226 H 0.65204 0.39653 0.18577 0.0
H1227 H 0.68899 0.42599 0.18219 0.0
C1228 C 0.58817 0.35864 0.22682 0.0
C1229 C 0.59008 0.33622 0.2384 0.0
C1230 C 0.61126 0.37291 0.2204 0.0
C1231 C 0.63695 0.36525 0.22548 0.0
C1232 C 0.63904 0.34238 0.23602 0.0
C1233 C 0.61593 0.32802 0.24233 0.0
C1234 C 0.69988 0.40005 0.23826 0.0
C1235 C 0.70385 0.41591 0.21748 0.0
C1236 C 0.67882 0.38323 0.24032 0.0
C1237 C 0.66092 0.38178 0.22173 0.0
C1238 C 0.66529 0.39723 0.20055 0.0
C1239 C 0.68661 0.41401 0.19838 0.0
H1240 H 0.41257 0.81672 0.32252 0.0
H1241 H 0.45991 0.88082 0.3048 0.0
H1242 H 0.37201 0.84155 0.33437 0.0
H1243 H 0.41992 0.90479 0.3156 0.0
H1244 H 0.33667 0.92996 0.29409 0.0
H1245 H 0.37266 0.9005 0.28911 0.0
H1246 H 0.35922 0.88535 0.36964 0.0
H1247 H 0.32307 0.91547 0.37498 0.0
C1248 C 0.41453 0.83592 0.3216 0.0
C1249 C 0.43959 0.84661 0.31242 0.0
C1250 C 0.39134 0.85009 0.32829 0.0
C1251 C 0.3929 0.87506 0.32565 0.0
C1252 C 0.4181 0.88562 0.31768 0.0
C1253 C 0.44106 0.87171 0.31144 0.0
C1254 C 0.34095 0.92018 0.31079 0.0
C1255 C 0.32689 0.92516 0.33498 0.0
C1256 C 0.36159 0.90326 0.30786 0.0
C1257 C 0.3685 0.89048 0.32893 0.0
C1258 C 0.354 0.89476 0.35305 0.0
C1259 C 0.3335 0.9121 0.3561 0.0
H1260 H 0.18228 0.03938 0.80518 0.0
H1261 H 0.16898 0.06462 0.88283 0.0
H1262 H 0.16979 0.07803 0.79 0.0
H1263 H 0.15645 0.10376 0.86748 0.0
H1264 H 0.11247 0.16533 0.82796 0.0
H1265 H 0.12389 0.12732 0.84696 0.0
H1266 H 0.18803 0.11715 0.78496 0.0
H1267 H 0.1759 0.1544 0.76579 0.0
C1268 C 0.17624 0.05305 0.81916 0.0
C1269 C 0.17656 0.04862 0.84535 0.0
C1270 C 0.16942 0.07549 0.81035 0.0
C1271 C 0.16246 0.0944 0.82738 0.0
C1272 C 0.16168 0.08976 0.85371 0.0
C1273 C 0.16887 0.06725 0.86255 0.0
C1274 C 0.12943 0.1552 0.81881 0.0
C1275 C 0.14343 0.163 0.79547 0.0
C1276 C 0.13592 0.13331 0.82961 0.0
C1277 C 0.15667 0.11876 0.81738 0.0
C1278 C 0.17145 0.12735 0.79469 0.0
C1279 C 0.16476 0.14894 0.78381 0.0
H1280 H 0.74913 0.96626 0.69752 0.0
H1281 H 0.67013 0.99844 0.70111 0.0
H1282 H 0.73285 0.93162 0.67627 0.0
H1283 H 0.65376 0.96342 0.67917 0.0
H1284 H 0.65282 0.87759 0.64435 0.0
H1285 H 0.65934 0.90522 0.6795 0.0
H1286 H 0.71268 0.94838 0.62729 0.0
H1287 H 0.70624 0.92128 0.59256 0.0
C1288 C 0.7279 0.96539 0.69479 0.0
C1289 C 0.71084 0.98494 0.70077 0.0
C1290 C 0.71862 0.94556 0.68269 0.0
C1291 C 0.69216 0.94503 0.67622 0.0
C1292 C 0.67417 0.96347 0.6844 0.0
C1293 C 0.68348 0.98342 0.69683 0.0
C1294 C 0.66577 0.8931 0.64054 0.0
C1295 C 0.67882 0.89757 0.61581 0.0
C1296 C 0.66933 0.90883 0.66048 0.0
C1297 C 0.68628 0.92882 0.65579 0.0
C1298 C 0.69932 0.93312 0.63115 0.0
C1299 C 0.69557 0.9177 0.61134 0.0
H1300 H 0.90207 0.17521 0.04532 0.0
H1301 H 0.82456 0.15526 1.02242 0.0
H1302 H 0.89494 0.14655 0.08056 0.0
H1303 H 0.81715 0.12744 0.05767 0.0
H1304 H 0.82082 0.06189 0.10532 0.0
H1305 H 0.83127 0.09034 0.07107 0.0
H1306 H 0.86942 0.13664 0.12152 0.0
H1307 H 0.85941 0.10742 0.15611 0.0
C1308 C 0.88359 0.16468 0.04765 0.0
C1309 C 0.86413 0.16746 0.03059 0.0
C1310 C 0.87934 0.14836 0.06809 0.0
C1311 C 0.85555 0.13429 0.07207 0.0
C1312 C 0.83606 0.13736 0.0551 0.0
C1313 C 0.84029 0.15354 0.03477 0.0
C1314 C 0.83164 0.07802 0.10925 0.0
C1315 C 0.83924 0.08219 0.13369 0.0
C1316 C 0.83746 0.09458 0.08949 0.0
C1317 C 0.85093 0.11618 0.09332 0.0
C1318 C 0.85921 0.1202 0.11762 0.0
C1319 C 0.85348 0.10341 0.13753 0.0
H1320 H 0.2039 0.65699 0.53578 0.0
H1321 H 0.13177 0.68265 0.50704 0.0
H1322 H 0.2116 0.62949 0.50024 0.0
H1323 H 0.13924 0.65451 0.47144 0.0
H1324 H 0.17776 0.61461 0.39731 0.0
H1325 H 0.16795 0.64392 0.43177 0.0
H1326 H 0.19402 0.59361 0.48532 0.0
H1327 H 0.20399 0.56492 0.45143 0.0
C1328 C 0.18942 0.65664 0.52206 0.0
C1329 C 0.16694 0.67199 0.52473 0.0
C1330 C 0.19382 0.64068 0.50155 0.0
C1331 C 0.17592 0.63938 0.48285 0.0
C1332 C 0.15358 0.65494 0.48528 0.0
C1333 C 0.14912 0.67095 0.50593 0.0
C1334 C 0.18106 0.60974 0.41651 0.0
C1335 C 0.19175 0.58724 0.42134 0.0
C1336 C 0.17545 0.62659 0.43633 0.0
C1337 C 0.18046 0.62141 0.46151 0.0
C1338 C 0.19043 0.59867 0.46626 0.0
C1339 C 0.19598 0.582 0.44664 0.0
H1340 H 0.32032 0.39007 0.92537 0.0
H1341 H 0.39413 0.42247 0.94481 0.0
H1342 H 0.31755 0.42043 0.89286 0.0
H1343 H 0.39144 0.45284 0.91218 0.0
H1344 H 0.34215 0.51989 0.89086 0.0
H1345 H 0.35941 0.48578 0.91207 0.0
H1346 H 0.33724 0.43968 0.8524 0.0
H1347 H 0.31992 0.47424 0.83116 0.0
C1348 C 0.33637 0.40328 0.92219 0.0
C1349 C 0.35728 0.40407 0.93781 0.0
C1350 C 0.33485 0.42064 0.90349 0.0
C1351 C 0.35424 0.4391 0.90002 0.0
C1352 C 0.37604 0.439 0.91462 0.0
C1353 C 0.37753 0.42168 0.93333 0.0
C1354 C 0.34223 0.50262 0.8817 0.0
C1355 C 0.33028 0.49961 0.85926 0.0
C1356 C 0.35201 0.48304 0.89385 0.0
C1357 C 0.34957 0.45999 0.88397 0.0
C1358 C 0.33927 0.45722 0.86048 0.0
C1359 C 0.32975 0.47696 0.84815 0.0
H1360 H 0.56495 0.76188 0.83185 0.0
H1361 H 0.55358 0.68627 0.84374 0.0
H1362 H 0.58849 0.76428 0.86958 0.0
H1363 H 0.57746 0.68864 0.88149 0.0
H1364 H 0.59986 0.7083 0.9632 0.0
H1365 H 0.5754 0.70338 0.92569 0.0
H1366 H 0.6305 0.75327 0.88383 0.0
H1367 H 0.65452 0.75804 0.92062 0.0
C1368 C 0.56759 0.74569 0.84237 0.0
C1369 C 0.55743 0.72385 0.8344 0.0
C1370 C 0.58125 0.74704 0.8641 0.0
C1371 C 0.58515 0.72662 0.87877 0.0
C1372 C 0.57476 0.7048 0.87094 0.0
C1373 C 0.56123 0.70341 0.84906 0.0
C1374 C 0.60684 0.718 0.94589 0.0
C1375 C 0.62899 0.73385 0.94528 0.0
C1376 C 0.59281 0.71522 0.92432 0.0
C1377 C 0.60055 0.72826 0.90164 0.0
C1378 C 0.62329 0.74339 0.90096 0.0
C1379 C 0.63721 0.74607 0.92226 0.0
H1380 H 0.99171 0.85691 0.2403 0.0
H1381 H 1.00241 0.78072 0.24289 0.0
H1382 H 0.03062 0.85989 0.2069 0.0
H1383 H 0.04143 0.78387 0.21006 0.0
H1384 H 0.12682 0.80387 0.16988 0.0
H1385 H 0.09021 0.80433 0.20548 0.0
H1386 H 0.03956 0.84277 0.15907 0.0
H1387 H 0.0759 0.84169 0.12315 0.0
C1388 C 1.00244 0.84085 0.23392 0.0
C1389 C 0.99382 0.81857 0.24419 0.0
C1390 C 0.02464 0.84257 0.21476 0.0
C1391 C 0.03905 0.82212 0.20593 0.0
C1392 C 0.03083 0.79995 0.21662 0.0
C1393 C 1.00836 0.79816 0.23533 0.0
C1394 C 0.10807 0.81283 0.16742 0.0
C1395 C 0.1043 0.82292 0.14376 0.0
C1396 C 0.08705 0.81291 0.18773 0.0
C1397 C 0.06206 0.82361 0.18504 0.0
C1398 C 0.05868 0.83456 0.16173 0.0
C1399 C 0.07945 0.83392 0.14119 0.0
H1400 H 0.46656 0.18353 0.71854 0.0
H1401 H 0.47803 0.25974 0.71937 0.0
H1402 H 0.44198 0.18732 0.68125 0.0
H1403 H 0.45439 0.26346 0.68205 0.0
H1404 H 0.38656 0.26785 0.63375 0.0
H1405 H 0.41057 0.26129 0.66999 0.0
H1406 H 0.44448 0.19664 0.63567 0.0
H1407 H 0.41969 0.20323 0.59868 0.0
C1408 C 0.4639 0.2011 0.71082 0.0
C1409 C 0.47413 0.22134 0.72236 0.0
C1410 C 0.44994 0.20326 0.68922 0.0
C1411 C 0.44583 0.22573 0.67845 0.0
C1412 C 0.45643 0.24586 0.6899 0.0
C1413 C 0.47018 0.24371 0.71145 0.0
C1414 C 0.39916 0.25218 0.63357 0.0
C1415 C 0.40127 0.23625 0.61277 0.0
C1416 C 0.41319 0.24847 0.65459 0.0
C1417 C 0.43006 0.22862 0.65592 0.0
C1418 C 0.43173 0.21218 0.63549 0.0
C1419 C 0.41757 0.21597 0.61416 0.0
H1420 H 0.96183 0.31106 0.43716 0.0
H1421 H 0.9028 0.32943 0.38714 0.0
H1422 H 0.9979 0.3142 0.40191 0.0
H1423 H 0.93936 0.33217 0.35116 0.0
H1424 H 0.02056 0.35159 0.29758 0.0
H1425 H 0.98227 0.35323 0.33182 0.0
H1426 H 1.01163 0.28982 0.36523 0.0
H1427 H 0.04954 0.28836 0.33176 0.0
C1428 C 0.95657 0.31605 0.41859 0.0
C1429 C 0.92936 0.31996 0.41502 0.0
C1430 C 0.97731 0.31765 0.39825 0.0
C1431 C 0.97162 0.32299 0.37347 0.0
C1432 C 0.94453 0.32809 0.36998 0.0
C1433 C 0.92358 0.32661 0.3906 0.0
C1434 C 0.01888 0.33811 0.31236 0.0
C1435 C 0.03846 0.32002 0.31197 0.0
C1436 C 0.99679 0.33894 0.33188 0.0
C1437 C 0.99397 0.32187 0.3516 0.0
C1438 C 1.01333 0.30362 0.35079 0.0
C1439 C 0.03514 0.30271 0.33138 0.0
H1440 H 0.19235 0.03663 0.34609 0.0
H1441 H 0.2715 0.06982 0.33718 0.0
H1442 H 0.17183 0.07526 0.33799 0.0
H1443 H 0.25127 0.10812 0.32948 0.0
H1444 H 0.20338 0.17738 0.33806 0.0
H1445 H 0.22062 0.13926 0.35067 0.0
H1446 H 0.17311 0.10297 0.29933 0.0
H1447 H 0.15633 0.14121 0.28602 0.0
C1448 C 0.20523 0.05227 0.34308 0.0
C1449 C 0.23348 0.05026 0.34246 0.0
C1450 C 0.19358 0.0743 0.33813 0.0
C1451 C 0.20992 0.0948 0.33301 0.0
C1452 C 0.23803 0.09282 0.33354 0.0
C1453 C 0.24964 0.07084 0.33796 0.0
C1454 C 0.19682 0.16139 0.32909 0.0
C1455 C 0.17856 0.16263 0.31076 0.0
C1456 C 0.20658 0.13945 0.33654 0.0
C1457 C 0.19819 0.11801 0.3261 0.0
C1458 C 0.17966 0.11911 0.30806 0.0
C1459 C 0.17007 0.1411 0.3004 0.0
H1460 H 0.2621 0.90746 0.86344 0.0
H1461 H 0.31893 0.96624 0.855 0.0
H1462 H 0.29938 0.87953 0.85336 0.0
H1463 H 0.35624 0.93825 0.84423 0.0
H1464 H 0.40449 0.88156 0.79128 0.0
H1465 H 0.36921 0.91006 0.80612 0.0
H1466 H 0.34229 0.86454 0.87012 0.0
H1467 H 0.37819 0.83632 0.85595 0.0
C1468 C 0.28261 0.91441 0.85968 0.0
C1469 C 0.2875 0.93911 0.85991 0.0
C1470 C 0.30397 0.89839 0.85395 0.0
C1471 C 0.33074 0.90667 0.84775 0.0
C1472 C 0.33579 0.93133 0.84867 0.0
C1473 C 0.31444 0.94736 0.85501 0.0
C1474 C 0.3914 0.87768 0.80875 0.0
C1475 C 0.39443 0.85647 0.82236 0.0
C1476 C 0.37111 0.89409 0.81723 0.0
C1477 C 0.35302 0.88963 0.83937 0.0
C1478 C 0.3558 0.86841 0.85289 0.0
C1479 C 0.37631 0.85214 0.84461 0.0
H1480 H 0.76446 0.40765 0.68003 0.0
H1481 H 0.71097 0.46478 0.70756 0.0
H1482 H 0.72791 0.3788 0.69118 0.0
H1483 H 0.67432 0.43579 0.71905 0.0
H1484 H 0.63466 0.37284 0.76875 0.0
H1485 H 0.66845 0.40277 0.75296 0.0
H1486 H 0.68124 0.36673 0.6804 0.0
H1487 H 0.64692 0.33709 0.69584 0.0
C1488 C 0.74469 0.41404 0.68804 0.0
C1489 C 0.74045 0.4384 0.69287 0.0
C1490 C 0.72379 0.39754 0.6944 0.0
C1491 C 0.69837 0.40504 0.70616 0.0
C1492 C 0.69382 0.42953 0.71018 0.0
C1493 C 0.71464 0.44612 0.70336 0.0
C1494 C 0.64443 0.3714 0.74933 0.0
C1495 C 0.63796 0.35255 0.73356 0.0
C1496 C 0.66374 0.38859 0.74029 0.0
C1497 C 0.67726 0.38719 0.71538 0.0
C1498 C 0.67119 0.36818 0.69972 0.0
C1499 C 0.65168 0.35111 0.70866 0.0
H1500 H 0.83248 0.53573 0.19814 0.0
H1501 H 0.76529 0.55364 0.25477 0.0
H1502 H 0.85283 0.57505 0.2042 0.0
H1503 H 0.78562 0.59187 0.26117 0.0
H1504 H 0.81198 0.66793 0.25135 0.0
H1505 H 0.79386 0.62922 0.2418 0.0
H1506 H 0.87457 0.59983 0.2339 0.0
H1507 H 0.89302 0.63915 0.24211 0.0
C1508 C 0.82206 0.54793 0.21182 0.0
C1509 C 0.79717 0.54133 0.22584 0.0
C1510 C 0.8338 0.57044 0.21545 0.0
C1511 C 0.82083 0.58691 0.23308 0.0
C1512 C 0.79605 0.5801 0.24704 0.0
C1513 C 0.78444 0.55784 0.24346 0.0
C1514 C 0.82604 0.65339 0.24726 0.0
C1515 C 0.85408 0.65694 0.24756 0.0
C1516 C 0.81554 0.63095 0.24206 0.0
C1517 C 0.83264 0.61112 0.2372 0.0
C1518 C 0.86073 0.61462 0.23732 0.0
C1519 C 0.87128 0.63718 0.24244 0.0
H1520 H 0.33573 0.09322 0.20284 0.0
H1521 H 0.29743 0.10988 0.27865 0.0
H1522 H 0.34646 0.13521 0.19548 0.0
H1523 H 0.30824 0.15242 0.27103 0.0
H1524 H 0.31078 0.20519 0.18225 0.0
H1525 H 0.29499 0.18001 0.21865 0.0
H1526 H 0.37782 0.16779 0.23134 0.0
H1527 H 0.39363 0.19295 0.1949 0.0
C1528 C 0.3294 0.10593 0.21779 0.0
C1529 C 0.31583 0.09847 0.24124 0.0
C1530 C 0.33581 0.1298 0.21375 0.0
C1531 C 0.32864 0.14663 0.23301 0.0
C1532 C 0.31433 0.1395 0.25625 0.0
C1533 C 0.30813 0.11538 0.26045 0.0
C1534 C 0.32546 0.19863 0.19408 0.0
C1535 C 0.35332 0.20018 0.18563 0.0
C1536 C 0.31642 0.18437 0.21503 0.0
C1537 C 0.33534 0.17156 0.22704 0.0
C1538 C 0.36298 0.17753 0.22213 0.0
C1539 C 0.37205 0.1918 0.20118 0.0
H1540 H 0.16436 0.84656 0.75524 0.0
H1541 H 0.18962 0.8982 0.69637 0.0
H1542 H 0.15704 0.81729 0.72277 0.0
H1543 H 0.18324 0.86853 0.66377 0.0
H1544 H 0.1471 0.8123 0.61205 0.0
H1545 H 0.14987 0.8439 0.64387 0.0
H1546 H 0.18548 0.79416 0.69219 0.0
H1547 H 0.18238 0.76301 0.66122 0.0
C1548 C 0.16824 0.85175 0.73538 0.0
C1549 C 0.1778 0.87477 0.72855 0.0
C1550 C 0.16428 0.83486 0.71668 0.0
C1551 C 0.16978 0.84041 0.69054 0.0
C1552 C 0.17866 0.86361 0.68366 0.0
C1553 C 0.18268 0.88054 0.70241 0.0
C1554 C 0.15536 0.80815 0.62954 0.0
C1555 C 0.16441 0.78499 0.63394 0.0
C1556 C 0.1571 0.82628 0.64772 0.0
C1557 C 0.16767 0.82157 0.67079 0.0
C1558 C 0.17671 0.79844 0.67499 0.0
C1559 C 0.17511 0.78052 0.65695 0.0
H1560 H 0.81533 0.38394 0.85837 0.0
H1561 H 0.88673 0.35834 0.81127 0.0
H1562 H 0.8226 0.35471 0.89091 0.0
H1563 H 0.89268 0.32834 0.84322 0.0
H1564 H 0.86855 0.25956 0.89109 0.0
H1565 H 0.86478 0.29161 0.86059 0.0
H1566 H 0.85858 0.34285 0.92179 0.0
H1567 H 0.86298 0.31054 0.95255 0.0
C1568 C 0.83274 0.3724 0.85484 0.0
C1569 C 0.85031 0.37382 0.83169 0.0
C1570 C 0.83678 0.35548 0.87362 0.0
C1571 C 0.85817 0.33911 0.86969 0.0
C1572 C 0.87583 0.34053 0.84679 0.0
C1573 C 0.87217 0.35772 0.82826 0.0
C1574 C 0.86657 0.27767 0.8981 0.0
C1575 C 0.8661 0.28246 0.9243 0.0
C1576 C 0.86452 0.29607 0.88056 0.0
C1577 C 0.86135 0.31982 0.88869 0.0
C1578 C 0.86089 0.32473 0.91492 0.0
C1579 C 0.86361 0.30627 0.9325 0.0
H1580 H 0.69312 0.57971 0.35815 0.0
H1581 H 0.73173 0.59392 0.28171 0.0
H1582 H 0.68624 0.62222 0.36495 0.0
H1583 H 0.7245 0.63692 0.28867 0.0
H1584 H 0.72223 0.69322 0.37558 0.0
H1585 H 0.73839 0.66599 0.34125 0.0
H1586 H 0.65601 0.65375 0.32651 0.0
H1587 H 0.6398 0.6808 0.36099 0.0
C1588 C 0.70047 0.59197 0.34298 0.0
C1589 C 0.71271 0.58368 0.31941 0.0
C1590 C 0.69629 0.61615 0.34673 0.0
C1591 C 0.70433 0.63241 0.32701 0.0
C1592 C 0.71777 0.62444 0.30381 0.0
C1593 C 0.72187 0.60005 0.29996 0.0
C1594 C 0.70783 0.6861 0.36368 0.0
C1595 C 0.67984 0.68827 0.37115 0.0
C1596 C 0.71709 0.67067 0.34394 0.0
C1597 C 0.69826 0.6575 0.33197 0.0
C1598 C 0.67076 0.66383 0.33568 0.0
C1599 C 0.66147 0.67921 0.35548 0.0
H1600 H 0.26309 0.26615 0.08115 0.0
H1601 H 0.31408 0.29643 0.13317 0.0
H1602 H 0.22286 0.27362 0.11178 0.0
H1603 H 0.27399 0.30528 0.16333 0.0
H1604 H 0.20099 0.29682 0.22336 0.0
H1605 H 0.24022 0.28887 0.19265 0.0
H1606 H 0.1928 0.30288 0.13111 0.0
H1607 H 0.15292 0.3103 0.1623 0.0
C1608 C 0.26562 0.27436 0.09926 0.0
C1609 C 0.29173 0.28028 0.10502 0.0
C1610 C 0.24252 0.27897 0.11674 0.0
C1611 C 0.24482 0.29014 0.14029 0.0
C1612 C 0.27115 0.29615 0.14582 0.0
C1613 C 0.29427 0.2911 0.12853 0.0
C1614 C 0.19877 0.29824 0.20329 0.0
C1615 C 0.17357 0.30422 0.19545 0.0
C1616 C 0.22154 0.29385 0.18552 0.0
C1617 C 0.2201 0.29523 0.15913 0.0
C1618 C 0.19487 0.30135 0.15119 0.0
C1619 C 0.17196 0.30587 0.1691 0.0
H1620 H 0.68107 0.19024 0.92383 0.0
H1621 H 0.72893 0.21065 0.85321 0.0
H1622 H 0.63974 0.19309 0.90322 0.0
H1623 H 0.68792 0.21261 0.8325 0.0
H1624 H 0.60969 0.24257 0.81171 0.0
H1625 H 0.64907 0.23839 0.83396 0.0
H1626 H 0.61495 0.1742 0.87017 0.0
H1627 H 0.57475 0.17853 0.84789 0.0
C1628 C 0.6828 0.19538 0.90394 0.0
C1629 C 0.70839 0.20033 0.89023 0.0
C1630 C 0.65913 0.1967 0.89206 0.0
C1631 C 0.66047 0.20316 0.86623 0.0
C1632 C 0.68607 0.20788 0.85251 0.0
C1633 C 0.70967 0.20653 0.86434 0.0
C1634 C 0.61032 0.22753 0.82444 0.0
C1635 C 0.58891 0.21083 0.82788 0.0
C1636 C 0.63314 0.22507 0.83711 0.0
C1637 C 0.63539 0.20582 0.85364 0.0
C1638 C 0.6138 0.1893 0.85762 0.0
C1639 C 0.5908 0.19174 0.84481 0.0
H1640 H 0.76509 0.78501 0.47649 0.0
H1641 H 0.7186 0.76683 0.41547 0.0
H1642 H 0.80488 0.79246 0.44589 0.0
H1643 H 0.75818 0.77546 0.38439 0.0
H1644 H 0.83937 0.7728 0.33466 0.0
H1645 H 0.80039 0.76413 0.36548 0.0
H1646 H 0.82663 0.81802 0.41561 0.0
H1647 H 0.86663 0.82599 0.38486 0.0
C1648 C 0.76332 0.7827 0.45641 0.0
C1649 C 0.73851 0.77529 0.44851 0.0
C1650 C 0.78623 0.78724 0.43871 0.0
C1651 C 0.78515 0.78492 0.41232 0.0
C1652 C 0.76029 0.7772 0.40444 0.0
C1653 C 0.7374 0.77225 0.42228 0.0
C1654 C 0.83699 0.7829 0.35223 0.0
C1655 C 0.8564 0.80023 0.35705 0.0
C1656 C 0.81425 0.778 0.37 0.0
C1657 C 0.80978 0.79035 0.39329 0.0
C1658 C 0.82925 0.80775 0.39817 0.0
C1659 C 0.85225 0.81253 0.38038 0.0
H1660 H 0.42318 0.74609 0.74506 0.0
H1661 H 0.4561 0.68164 0.70915 0.0
H1662 H 0.3837 0.74241 0.72286 0.0
H1663 H 0.41571 0.67774 0.68697 0.0
H1664 H 0.35037 0.69377 0.6331 0.0
H1665 H 0.39155 0.69604 0.65398 0.0
H1666 H 0.34383 0.71824 0.72376 0.0
H1667 H 0.30304 0.71703 0.70269 0.0
C1668 C 0.42207 0.73103 0.73243 0.0
C1669 C 0.44299 0.7141 0.72902 0.0
C1670 C 0.39915 0.72884 0.71978 0.0
C1671 C 0.39624 0.70964 0.70331 0.0
C1672 C 0.41733 0.69284 0.69944 0.0
C1673 C 0.44045 0.69503 0.7122 0.0
C1674 C 0.3487 0.69941 0.65282 0.0
C1675 C 0.32328 0.70535 0.66612 0.0
C1676 C 0.37231 0.70038 0.66489 0.0
C1677 C 0.37112 0.70739 0.69055 0.0
C1678 C 0.34565 0.71308 0.70388 0.0
C1679 C 0.32213 0.71214 0.69184 0.0
H1680 H 0.83615 0.98596 0.69809 0.0
H1681 H 0.7644 0.96342 0.74716 0.0
H1682 H 0.85625 0.94647 0.70329 0.0
H1683 H 0.78417 0.92507 0.75236 0.0
H1684 H 0.81235 0.85078 0.74248 0.0
H1685 H 0.79544 0.88924 0.73135 0.0
H1686 H 0.87444 0.92065 0.73504 0.0
H1687 H 0.89199 0.88153 0.74471 0.0
C1688 C 0.82465 0.97269 0.70981 0.0
C1689 C 0.79871 0.97809 0.72226 0.0
C1690 C 0.8362 0.95011 0.71296 0.0
C1691 C 0.82183 0.93241 0.72827 0.0
C1692 C 0.79582 0.93792 0.74023 0.0
C1693 C 0.78453 0.96024 0.73735 0.0
C1694 C 0.82638 0.86569 0.74054 0.0
C1695 C 0.85365 0.86277 0.74457 0.0
C1696 C 0.81654 0.88797 0.73441 0.0
C1697 C 0.83345 0.9083 0.73244 0.0
C1698 C 0.86082 0.90545 0.73616 0.0
C1699 C 0.87078 0.88301 0.74215 0.0
H1700 H 0.72288 0.07614 0.17053 0.0
H1701 H 0.75324 0.09532 0.24093 0.0
H1702 H 0.68503 0.10407 0.18061 0.0
H1703 H 0.71598 0.12277 0.25086 0.0
H1704 H 0.63202 0.15099 0.27488 0.0
H1705 H 0.66661 0.12126 0.26265 0.0
H1706 H 0.67736 0.14888 0.18582 0.0
H1707 H 0.64199 0.17839 0.19789 0.0
C1708 C 0.72142 0.08619 0.18813 0.0
C1709 C 0.74115 0.08362 0.20482 0.0
C1710 C 0.69989 0.10226 0.19384 0.0
C1711 C 0.69745 0.11561 0.2166 0.0
C1712 C 0.71703 0.11265 0.23332 0.0
C1713 C 0.73858 0.09701 0.22747 0.0
C1714 C 0.64148 0.15064 0.2553 0.0
C1715 C 0.63417 0.16719 0.23742 0.0
C1716 C 0.66149 0.13367 0.24832 0.0
C1717 C 0.67482 0.13271 0.22326 0.0
C1718 C 0.66733 0.14901 0.20522 0.0
C1719 C 0.64732 0.16613 0.21225 0.0
H1720 H 0.38943 0.65794 0.28603 0.0
H1721 H 0.38423 0.68675 0.36232 0.0
H1722 H 0.3565 0.62707 0.30121 0.0
H1723 H 0.35058 0.65633 0.37713 0.0
H1724 H 0.26535 0.61689 0.37831 0.0
H1725 H 0.30168 0.64624 0.36773 0.0
H1726 H 0.35367 0.59098 0.33282 0.0
H1727 H 0.31745 0.56147 0.34411 0.0
C1728 C 0.38142 0.65767 0.30604 0.0
C1729 C 0.38961 0.67492 0.32291 0.0
C1730 C 0.36256 0.63996 0.31471 0.0
C1731 C 0.35116 0.63921 0.34038 0.0
C1732 C 0.35898 0.65656 0.35721 0.0
C1733 C 0.3781 0.67411 0.34863 0.0
C1734 C 0.2848 0.61098 0.36893 0.0
C1735 C 0.28877 0.58697 0.36218 0.0
C1736 C 0.30554 0.62774 0.36286 0.0
C1737 C 0.33039 0.62091 0.34928 0.0
C1738 C 0.33463 0.59673 0.34317 0.0
C1739 C 0.31408 0.57983 0.34985 0.0
H1740 H 0.21834 0.36093 0.79066 0.0
H1741 H 0.14046 0.38219 0.82924 0.0
H1742 H 0.2374 0.39923 0.80038 0.0
H1743 H 0.1592 0.42125 0.83761 0.0
H1744 H 0.20855 0.48341 0.86776 0.0
H1745 H 0.18849 0.44414 0.86116 0.0
H1746 H 0.23777 0.4389 0.78806 0.0
H1747 H 0.25809 0.47708 0.79492 0.0
C1748 C 0.20517 0.37372 0.80123 0.0
C1749 C 0.17772 0.36818 0.80905 0.0
C1750 C 0.21608 0.396 0.80654 0.0
C1751 C 0.1999 0.41373 0.81965 0.0
C1752 C 0.17247 0.40816 0.82767 0.0
C1753 C 0.16157 0.38576 0.82247 0.0
C1754 C 0.21506 0.47381 0.85033 0.0
C1755 C 0.23512 0.48354 0.83204 0.0
C1756 C 0.20347 0.45128 0.84644 0.0
C1757 C 0.2116 0.43797 0.82412 0.0
C1758 C 0.23133 0.44806 0.80578 0.0
C1759 C 0.24292 0.47028 0.8097 0.0
H1760 H 0.65871 0.82636 0.86182 0.0
H1761 H 0.73636 0.84755 0.88365 0.0
H1762 H 0.67107 0.84388 0.82003 0.0
H1763 H 0.74771 0.86693 0.84308 0.0
H1764 H 0.75566 0.92318 0.79247 0.0
H1765 H 0.75406 0.88066 0.80197 0.0
H1766 H 0.66642 0.88438 0.81659 0.0
H1767 H 0.66831 0.92598 0.80539 0.0
C1768 C 0.67874 0.83418 0.85752 0.0
C1769 C 0.69594 0.83695 0.87653 0.0
C1770 C 0.68578 0.84439 0.83353 0.0
C1771 C 0.70951 0.85833 0.82872 0.0
C1772 C 0.7288 0.85708 0.8461 0.0
C1773 C 0.72207 0.84636 0.86978 0.0
C1774 C 0.73611 0.91448 0.79676 0.0
C1775 C 0.71214 0.92781 0.79906 0.0
C1776 C 0.73513 0.89017 0.80225 0.0
C1777 C 0.71024 0.87918 0.81129 0.0
C1778 C 0.68611 0.89197 0.80998 0.0
C1779 C 0.68709 0.91608 0.80383 0.0
H1780 H 0.89382 0.15099 0.32208 0.0
H1781 H 0.8071 0.14866 0.34371 0.0
H1782 H 0.8983 0.17993 0.35569 0.0
H1783 H 0.81176 0.17676 0.37804 0.0
H1784 H 0.82529 0.24941 0.41373 0.0
H1785 H 0.82104 0.21791 0.38317 0.0
H1786 H 0.89569 0.18698 0.40131 0.0
H1787 H 0.9002 0.21919 0.432 0.0
C1788 C 0.87564 0.1566 0.33396 0.0
C1789 C 0.85001 0.1475 0.32979 0.0
C1790 C 0.87831 0.173 0.35359 0.0
C1791 C 0.85543 0.18089 0.36972 0.0
C1792 C 0.82987 0.17144 0.36587 0.0
C1793 C 0.8272 0.15505 0.34625 0.0
C1794 C 0.84088 0.23592 0.41136 0.0
C1795 C 0.86324 0.23706 0.42533 0.0
C1796 C 0.83826 0.2176 0.39388 0.0
C1797 C 0.85796 0.19971 0.38958 0.0
C1798 C 0.8802 0.20054 0.40385 0.0
C1799 C 0.88271 0.21891 0.42164 0.0
H1800 H 0.20898 0.75204 0.13839 0.0
H1801 H 0.12763 0.72788 0.13082 0.0
H1802 H 0.21315 0.72165 0.16982 0.0
H1803 H 0.13225 0.69632 0.16212 0.0
H1804 H 0.14086 0.65808 0.2388 0.0
H1805 H 0.13465 0.68769 0.20623 0.0
H1806 H 0.21926 0.68157 0.17634 0.0
H1807 H 0.2259 0.65365 0.20976 0.0
C1808 C 0.19193 0.74006 0.14319 0.0
C1809 C 0.16787 0.74267 0.13186 0.0
C1810 C 0.19447 0.7223 0.16126 0.0
C1811 C 0.17316 0.70615 0.16869 0.0
C1812 C 0.14908 0.70849 0.1572 0.0
C1813 C 0.14648 0.72649 0.13902 0.0
C1814 C 0.15828 0.66332 0.22557 0.0
C1815 C 0.18396 0.65325 0.22729 0.0
C1816 C 0.15458 0.6801 0.2065 0.0
C1817 C 0.17641 0.68733 0.18845 0.0
C1818 C 0.20193 0.67699 0.19001 0.0
C1819 C 0.20568 0.6605 0.20915 0.0
H1820 H 0.30046 0.43428 0.77332 0.0
H1821 H 0.33539 0.45046 0.69616 0.0
H1822 H 0.30825 0.39151 0.76504 0.0
H1823 H 0.34291 0.4082 0.68807 0.0
H1824 H 0.38954 0.34986 0.68715 0.0
H1825 H 0.3756 0.37612 0.72282 0.0
H1826 H 0.29166 0.36332 0.71389 0.0
H1827 H 0.30546 0.33652 0.67844 0.0
C1828 C 0.30968 0.42861 0.75465 0.0
C1829 C 0.31758 0.44545 0.73532 0.0
C1830 C 0.3141 0.40436 0.75005 0.0
C1831 C 0.32668 0.39704 0.72624 0.0
C1832 C 0.33358 0.41378 0.70675 0.0
C1833 C 0.32902 0.43781 0.71123 0.0
C1834 C 0.36811 0.35124 0.69393 0.0
C1835 C 0.3485 0.34221 0.67949 0.0
C1836 C 0.36014 0.36612 0.71452 0.0
C1837 C 0.33269 0.37211 0.72029 0.0
C1838 C 0.31296 0.35898 0.7095 0.0
C1839 C 0.32089 0.34397 0.689 0.0
H1840 H 0.86532 0.76139 0.86332 0.0
H1841 H 0.84864 0.68617 0.86868 0.0
H1842 H 0.82704 0.76915 0.89563 0.0
H1843 H 0.8088 0.69362 0.89926 0.0
H1844 H 0.7472 0.70884 0.96663 0.0
H1845 H 0.788 0.70211 0.93768 0.0
H1846 H 0.78258 0.77343 0.90771 0.0
H1847 H 0.74259 0.78051 0.93844 0.0
C1848 C 0.85323 0.74649 0.87141 0.0
C1849 C 0.86013 0.72316 0.86362 0.0
C1850 C 0.83088 0.75091 0.88982 0.0
C1851 C 0.81401 0.73218 0.90049 0.0
C1852 C 0.82117 0.70874 0.89242 0.0
C1853 C 0.84408 0.70432 0.87461 0.0
C1854 C 0.75479 0.72318 0.95394 0.0
C1855 C 0.74143 0.74525 0.95496 0.0
C1856 C 0.77831 0.71923 0.93691 0.0
C1857 C 0.78915 0.73698 0.9196 0.0
C1858 C 0.77566 0.7592 0.92074 0.0
C1859 C 0.7524 0.76334 0.93834 0.0
H1860 H 0.31848 0.85804 0.18439 0.0
H1861 H 0.33969 0.79231 0.1446 0.0
H1862 H 0.36017 0.85615 0.20435 0.0
H1863 H 0.38184 0.79105 0.16359 0.0
H1864 H 0.43502 0.78004 0.22719 0.0
H1865 H 0.39554 0.78353 0.2047 0.0
H1866 H 0.40992 0.85923 0.19632 0.0
H1867 H 0.4497 0.85569 0.21944 0.0
C1868 C 0.33198 0.84317 0.17987 0.0
C1869 C 0.3255 0.82525 0.16291 0.0
C1870 C 0.35613 0.8423 0.19104 0.0
C1871 C 0.37447 0.82347 0.1856 0.0
C1872 C 0.36811 0.80571 0.16846 0.0
C1873 C 0.34399 0.80655 0.15733 0.0
C1874 C 0.42996 0.79745 0.22039 0.0
C1875 C 0.44557 0.81759 0.22507 0.0
C1876 C 0.40734 0.79943 0.20731 0.0
C1877 C 0.39947 0.82165 0.19858 0.0
C1878 C 0.41529 0.84185 0.20292 0.0
C1879 C 0.43825 0.83981 0.21589 0.0
H1880 H 0.28376 0.21266 0.596 0.0
H1881 H 0.28535 0.28674 0.61756 0.0
H1882 H 0.24338 0.20616 0.62598 0.0
H1883 H 0.2442 0.28019 0.64784 0.0
H1884 H 0.19173 0.25127 0.72041 0.0
H1885 H 0.22969 0.26018 0.68818 0.0
H1886 H 0.1955 0.21373 0.63526 0.0
H1887 H 0.15737 0.2045 0.66784 0.0
C1888 C 0.27545 0.2277 0.6071 0.0
C1889 C 0.28815 0.25027 0.60434 0.0
C1890 C 0.25194 0.22395 0.62423 0.0
C1891 C 0.24024 0.24256 0.6395 0.0
C1892 C 0.25269 0.2653 0.6366 0.0
C1893 C 0.27623 0.26915 0.61911 0.0
C1894 C 0.19212 0.24288 0.70192 0.0
C1895 C 0.17129 0.22696 0.69696 0.0
C1896 C 0.21395 0.24824 0.68326 0.0
C1897 C 0.2159 0.23781 0.65892 0.0
C1898 C 0.19497 0.222 0.65382 0.0
C1899 C 0.17297 0.21671 0.67252 0.0
H1900 H 0.58643 0.35247 0.33027 0.0
H1901 H 0.59581 0.27604 0.32641 0.0
H1902 H 0.6269 0.35537 0.35246 0.0
H1903 H 0.6355 0.27896 0.34853 0.0
H1904 H 0.72236 0.29333 0.36204 0.0
H1905 H 0.68189 0.29259 0.34034 0.0
H1906 H 0.6447 0.34526 0.39274 0.0
H1907 H 0.68569 0.34669 0.41393 0.0
C1908 C 0.59693 0.33632 0.33424 0.0
C1909 C 0.58779 0.31407 0.32636 0.0
C1910 C 0.62008 0.33796 0.34703 0.0
C1911 C 0.63469 0.3174 0.35207 0.0
C1912 C 0.62518 0.29522 0.34456 0.0
C1913 C 0.60215 0.29357 0.33196 0.0
C1914 C 0.7057 0.30494 0.36884 0.0
C1915 C 0.70741 0.32003 0.38983 0.0
C1916 C 0.68232 0.30434 0.35653 0.0
C1917 C 0.65989 0.31879 0.36483 0.0
C1918 C 0.66162 0.33403 0.38569 0.0
C1919 C 0.68503 0.3346 0.39806 0.0
H1920 H 0.09421 0.25897 0.18586 0.0
H1921 H 0.02051 0.28315 0.22984 0.0
H1922 H 0.06857 0.24948 0.1502 0.0
H1923 H 0.99501 0.27348 0.19478 0.0
H1924 H 0.96772 0.28885 0.11723 0.0
H1925 H 0.9927 0.29204 0.15385 0.0
H1926 H 0.03251 0.22542 0.13348 0.0
H1927 H 1.00725 0.2221 0.09673 0.0
C1928 C 0.07244 0.26144 0.18824 0.0
C1929 C 0.05939 0.2718 0.21063 0.0
C1930 C 0.05774 0.25618 0.16777 0.0
C1931 C 0.02977 0.2612 0.1694 0.0
C1932 C 0.01659 0.26995 0.19255 0.0
C1933 C 0.03118 0.27523 0.2128 0.0
C1934 C 0.98144 0.27464 0.12071 0.0
C1935 C 0.98524 0.25513 0.104 0.0
C1936 C 0.99586 0.27649 0.14176 0.0
C1937 C 1.01454 0.25888 0.14681 0.0
C1938 C 0.01848 0.2394 0.13008 0.0
C1939 C 1.00397 0.23751 0.109 0.0
H1940 H 0.61953 0.79586 0.5862 0.0
H1941 H 0.61736 0.71982 0.57492 0.0
H1942 H 0.59831 0.79073 0.62999 0.0
H1943 H 0.59539 0.71468 0.61854 0.0
H1944 H 0.58178 0.7101 0.70538 0.0
H1945 H 0.60324 0.71616 0.66187 0.0
H1946 H 0.55789 0.78098 0.65714 0.0
H1947 H 0.5367 0.77506 0.70096 0.0
C1948 C 0.61416 0.77802 0.59288 0.0
C1949 C 0.62016 0.75827 0.57674 0.0
C1950 C 0.60186 0.77506 0.61815 0.0
C1951 C 0.59502 0.75225 0.62821 0.0
C1952 C 0.60069 0.73253 0.61189 0.0
C1953 C 0.61313 0.73548 0.58664 0.0
C1954 C 0.57655 0.72583 0.69525 0.0
C1955 C 0.55748 0.74213 0.707 0.0
C1956 C 0.5887 0.72918 0.67 0.0
C1957 C 0.58233 0.74901 0.65554 0.0
C1958 C 0.56364 0.76558 0.6675 0.0
C1959 C 0.55136 0.76215 0.69275 0.0
H1960 H 0.41275 0.29882 0.96671 0.0
H1961 H 0.40911 0.22296 0.97984 0.0
H1962 H 0.43465 0.29209 0.92337 0.0
H1963 H 0.43156 0.21623 0.93679 0.0
H1964 H 0.44754 0.20933 0.85038 0.0
H1965 H 0.42494 0.21735 0.8931 0.0
H1966 H 0.47507 0.27995 0.89753 0.0
H1967 H 0.49733 0.27213 0.85454 0.0
C1968 C 0.41691 0.28068 0.96053 0.0
C1969 C 0.40912 0.26147 0.97706 0.0
C1970 C 0.42959 0.2768 0.93554 0.0
C1971 C 0.43495 0.25356 0.92617 0.0
C1972 C 0.42744 0.23439 0.94289 0.0
C1973 C 0.41472 0.23827 0.96783 0.0
C1974 C 0.4536 0.22498 0.86028 0.0
C1975 C 0.47433 0.24008 0.84871 0.0
C1976 C 0.44077 0.22947 0.88507 0.0
C1977 C 0.44815 0.24925 0.89922 0.0
C1978 C 0.4685 0.26465 0.88739 0.0
C1979 C 0.48141 0.26011 0.86261 0.0
H1980 H 1.00871 0.77705 0.4771 0.0
H1981 H 0.07036 0.7389 0.4287 0.0
H1982 H 0.98153 0.7797 0.4423 0.0
H1983 H 0.04346 0.74278 0.39298 0.0
H1984 H 0.97603 0.74048 0.3385 0.0
H1985 H 1.00087 0.73127 0.37501 0.0
H1986 H 0.9842 0.80215 0.40445 0.0
H1987 H 0.95903 0.81055 0.36932 0.0
C1988 C 0.01644 0.76902 0.45905 0.0
C1989 C 0.04174 0.7576 0.45588 0.0
C1990 C 1.00092 0.7708 0.43889 0.0
C1991 C 1.01029 0.76159 0.41467 0.0
C1992 C 0.03547 0.74988 0.41142 0.0
C1993 C 0.05107 0.74796 0.4318 0.0
C1994 C 0.97719 0.7537 0.35325 0.0
C1995 C 0.96545 0.7762 0.35121 0.0
C1996 C 0.99172 0.74862 0.37391 0.0
C1997 C 0.9945 0.76594 0.39281 0.0
C1998 C 0.98216 0.78815 0.39071 0.0
C1999 C 0.96781 0.79309 0.37037 0.0
H2000 H 0.19462 0.96834 0.29737 0.0
H2001 H 0.20947 0.91795 0.35578 0.0
H2002 H 0.14929 0.95153 0.29678 0.0
H2003 H 0.16453 0.90081 0.35474 0.0
H2004 H 0.07189 0.89939 0.37129 0.0
H2005 H 0.11879 0.91296 0.36856 0.0
H2006 H 0.12281 0.91721 0.28654 0.0
H2007 H 0.07563 0.9038 0.28935 0.0
C2008 C 0.18841 0.9534 0.30975 0.0
C2009 C 0.20558 0.94462 0.32677 0.0
C2010 C 0.16244 0.94371 0.30936 0.0
C2011 C 0.15312 0.92498 0.32593 0.0
C2012 C 0.17081 0.91555 0.34211 0.0
C2013 C 0.19669 0.92528 0.34257 0.0
C2014 C 0.08286 0.90296 0.35265 0.0
C2015 C 0.07 0.90051 0.33055 0.0
C2016 C 0.1098 0.9107 0.35106 0.0
C2017 C 0.12466 0.91609 0.32731 0.0
C2018 C 0.11187 0.91349 0.30516 0.0
C2019 C 0.08484 0.90581 0.30677 0.0
H2020 H 0.40008 0.08937 0.75417 0.0
H2021 H 0.37927 0.10508 0.83421 0.0
H2022 H 0.36078 0.06226 0.75588 0.0
H2023 H 0.34042 0.07801 0.83582 0.0
H2024 H 0.30639 1.00236 0.83533 0.0
H2025 H 0.34611 0.02773 0.82361 0.0
H2026 H 0.30103 0.06889 0.77446 0.0
H2027 H 0.2608 0.04367 0.78688 0.0
C2028 C 0.38692 0.08722 0.77197 0.0
C2029 C 0.39263 0.09919 0.79409 0.0
C2030 C 0.36457 0.07185 0.77288 0.0
C2031 C 0.34806 0.06808 0.79601 0.0
C2032 C 0.35315 0.08068 0.81784 0.0
C2033 C 0.37517 0.09624 0.81687 0.0
C2034 C 0.30542 0.0161 0.82113 0.0
C2035 C 0.28099 0.02092 0.81154 0.0
C2036 C 0.32794 0.03071 0.81465 0.0
C2037 C 0.32633 0.05011 0.79825 0.0
C2038 C 0.30257 0.05384 0.78701 0.0
C2039 C 0.27977 0.03944 0.79394 0.0
H2040 H 0.72367 0.49463 0.74861 0.0
H2041 H 0.77521 0.557 0.74273 0.0
H2042 H 0.68416 0.51973 0.76141 0.0
H2043 H 0.73612 0.58199 0.75606 0.0
H2044 H 0.66004 0.61704 0.7313 0.0
H2045 H 0.70013 0.59246 0.73083 0.0
H2046 H 0.6589 0.54866 0.79093 0.0
H2047 H 0.61854 0.5735 0.79153 0.0
C2048 C 0.72669 0.51355 0.75124 0.0
C2049 C 0.75237 0.52395 0.74462 0.0
C2050 C 0.70408 0.52797 0.75841 0.0
C2051 C 0.70695 0.55293 0.75914 0.0
C2052 C 0.73314 0.56291 0.75504 0.0
C2053 C 0.75557 0.54859 0.74772 0.0
C2054 C 0.65963 0.60249 0.7448 0.0
C2055 C 0.63605 0.5973 0.76146 0.0
C2056 C 0.68267 0.58837 0.74456 0.0
C2057 C 0.68281 0.56867 0.761 0.0
C2058 C 0.65937 0.56361 0.77794 0.0
C2059 C 0.63627 0.57781 0.77821 0.0
H2060 H 0.9427 0.36228 0.24287 0.0
H2061 H 0.9666 0.43433 0.22105 0.0
H2062 H 0.89522 0.37454 0.2494 0.0
H2063 H 0.91942 0.44655 0.22856 0.0
H2064 H 0.83457 0.46501 0.26334 0.0
H2065 H 0.88019 0.44965 0.26532 0.0
H2066 H 0.86284 0.39005 0.21822 0.0
H2067 H 0.81734 0.40547 0.21597 0.0
C2068 C 0.93792 0.3807 0.23949 0.0
C2069 C 0.95856 0.39729 0.23129 0.0
C2070 C 0.91076 0.3877 0.24343 0.0
C2071 C 0.90376 0.41149 0.23964 0.0
C2072 C 0.92434 0.42817 0.23207 0.0
C2073 C 0.9514 0.42114 0.22779 0.0
C2074 C 0.84029 0.44836 0.25387 0.0
C2075 C 0.82252 0.43651 0.23932 0.0
C2076 C 0.86642 0.43968 0.2549 0.0
C2077 C 0.87502 0.4188 0.24176 0.0
C2078 C 0.85665 0.40613 0.2286 0.0
C2079 C 0.83068 0.41501 0.22723 0.0
H2080 H 0.27625 0.23368 0.02961 0.0
H2081 H 0.33856 0.24554 0.96644 0.0
H2082 H 0.25872 0.20014 1.00722 0.0
H2083 H 0.32112 0.21159 0.94387 0.0
H2084 H 0.2714 0.15052 0.90899 0.0
H2085 H 0.2815 0.19027 0.92481 0.0
H2086 H 0.28271 0.16116 1.0002 0.0
H2087 H 0.27354 0.12173 0.98455 0.0
C2088 C 0.28547 0.2297 1.01041 0.0
C2089 C 0.30865 0.24226 0.9997 0.0
C2090 C 0.27567 0.21029 0.99772 0.0
C2091 C 0.28892 0.20284 0.97404 0.0
C2092 C 0.31047 0.21688 0.9621 0.0
C2093 C 0.32031 0.23648 0.97489 0.0
C2094 C 0.27398 0.15257 0.92891 0.0
C2095 C 0.27133 0.13278 0.94549 0.0
C2096 C 0.27965 0.17539 0.93796 0.0
C2097 C 0.28249 0.17896 0.96383 0.0
C2098 C 0.27995 0.15919 0.98029 0.0
C2099 C 0.27459 0.13649 0.97127 0.0
H2100 H 0.86066 0.28667 1.00793 0.0
H2101 H 0.78038 0.25701 1.02689 0.0
H2102 H 0.84653 0.3234 0.02949 0.0
H2103 H 0.76573 0.29445 0.04877 0.0
H2104 H 0.77169 0.35309 0.1138 0.0
H2105 H 0.77753 0.31657 0.08852 0.0
H2106 H 0.81635 0.35713 1.0246 0.0
H2107 H 0.81179 0.39322 0.04997 0.0
C2108 C 0.83984 0.2882 1.0166 0.0
C2109 C 0.82158 0.26919 1.01593 0.0
C2110 C 0.83166 0.30929 0.02877 0.0
C2111 C 0.80497 0.31184 0.04064 0.0
C2112 C 0.78643 0.29286 0.03975 0.0
C2113 C 0.79468 0.27162 1.02721 0.0
C2114 C 0.78142 0.35418 0.09433 0.0
C2115 C 0.79155 0.37603 0.08398 0.0
C2116 C 0.78437 0.33335 0.07978 0.0
C2117 C 0.7975 0.33406 0.05469 0.0
C2118 C 0.80635 0.35606 0.04399 0.0
C2119 C 0.80354 0.37678 0.05849 0.0
H2120 H 0.69397 0.74341 0.58733 0.0
H2121 H 0.75006 0.72412 0.52179 0.0
H2122 H 0.71131 0.71092 0.6117 0.0
H2123 H 0.76671 0.69154 0.54538 0.0
H2124 H 0.79988 0.63684 0.59318 0.0
H2125 H 0.78991 0.67627 0.57767 0.0
H2126 H 0.70656 0.66851 0.61159 0.0
H2127 H 0.71685 0.62934 0.62765 0.0
C2128 C 0.7107 0.73282 0.57848 0.0
C2129 C 0.72081 0.73638 0.55275 0.0
C2130 C 0.72031 0.7139 0.59223 0.0
C2131 C 0.74022 0.69826 0.58049 0.0
C2132 C 0.75165 0.70318 0.55532 0.0
C2133 C 0.74208 0.72194 0.5417 0.0
C2134 C 0.77948 0.64365 0.59749 0.0
C2135 C 0.75914 0.62985 0.61152 0.0
C2136 C 0.77371 0.66629 0.58857 0.0
C2137 C 0.74733 0.67569 0.59316 0.0
C2138 C 0.72721 0.66217 0.60798 0.0
C2139 C 0.73307 0.63959 0.61712 0.0
H2140 H 0.20389 0.76021 0.50165 0.0
H2141 H 0.22678 0.78818 0.57213 0.0
H2142 H 0.22003 0.79664 0.47967 0.0
H2143 H 0.24308 0.82479 0.55 0.0
H2144 H 0.22111 0.89522 0.5088 0.0
H2145 H 0.21694 0.85736 0.53147 0.0
H2146 H 0.26031 0.82246 0.46607 0.0
H2147 H 0.26497 0.86043 0.44346 0.0
C2148 C 0.21301 0.77393 0.5123 0.0
C2149 C 0.214 0.77141 0.5386 0.0
C2150 C 0.22234 0.79477 0.49968 0.0
C2151 C 0.23263 0.81361 0.51317 0.0
C2152 C 0.23502 0.81059 0.53921 0.0
C2153 C 0.22594 0.78957 0.5518 0.0
C2154 C 0.23029 0.8796 0.49943 0.0
C2155 C 0.24318 0.88083 0.47423 0.0
C2156 C 0.22794 0.85791 0.51245 0.0
C2157 C 0.2383 0.83697 0.50052 0.0
C2158 C 0.25191 0.83829 0.47563 0.0
C2159 C 0.25442 0.86001 0.46266 0.0
H2160 H 1.01071 0.7427 0.82783 0.0
H2161 H 0.93645 0.76539 0.8719 0.0
H2162 H 0.03593 0.75241 0.86309 0.0
H2163 H 0.96167 0.77469 0.90783 0.0
H2164 H 0.01961 0.80143 0.96362 0.0
H2165 H 0.99561 0.79836 0.9261 0.0
H2166 H 0.04035 0.73464 0.90324 0.0
H2167 H 0.06429 0.73774 0.94058 0.0
C2168 C 0.99984 0.75029 0.84496 0.0
C2169 C 0.97158 0.75337 0.84701 0.0
C2170 C 1.01428 0.75555 0.86537 0.0
C2171 C 1.00087 0.76386 0.88865 0.0
C2172 C 0.97277 0.7684 0.8902 0.0
C2173 C 0.95827 0.76324 0.86956 0.0
C2174 C 0.0243 0.78671 0.95062 0.0
C2175 C 0.04399 0.76982 0.95527 0.0
C2176 C 1.01047 0.78496 0.92906 0.0
C2177 C 0.01597 0.76631 0.91144 0.0
C2178 C 0.03586 0.74957 0.916 0.0
C2179 C 0.04967 0.75133 0.93751 0.0
H2180 H 0.47373 0.24646 0.34574 0.0
H2181 H 0.48083 0.3203 0.36683 0.0
H2182 H 0.45297 0.23744 0.38929 0.0
H2183 H 0.45964 0.31165 0.40934 0.0
H2184 H 0.4389 0.28985 0.49145 0.0
H2185 H 0.46347 0.29575 0.44888 0.0
H2186 H 0.4148 0.24065 0.41941 0.0
H2187 H 0.39142 0.2341 0.46182 0.0
C2188 C 0.47074 0.26079 0.35949 0.0
C2189 C 0.47911 0.2841 0.35245 0.0
C2190 C 0.45871 0.25568 0.38459 0.0
C2191 C 0.45462 0.27375 0.40337 0.0
C2192 C 0.46286 0.297 0.39603 0.0
C2193 C 0.47488 0.30203 0.37122 0.0
C2194 C 0.4337 0.27881 0.47595 0.0
C2195 C 0.4131 0.26149 0.48036 0.0
C2196 C 0.44764 0.28232 0.4513 0.0
C2197 C 0.44119 0.26883 0.43018 0.0
C2198 C 0.42089 0.25124 0.43487 0.0
C2199 C 0.40722 0.24758 0.45944 0.0
H2200 H 0.60887 0.80023 0.07116 0.0
H2201 H 0.61848 0.72639 0.0905 0.0
H2202 H 0.58638 0.80762 0.11442 0.0
H2203 H 0.59617 0.73373 0.13347 0.0
H2204 H 0.53277 0.75184 0.20278 0.0
H2205 H 0.55284 0.74378 0.15893 0.0
H2206 H 0.59864 0.80937 0.15829 0.0
H2207 H 0.57878 0.81737 0.20195 0.0
C2208 C 0.60581 0.78548 0.08444 0.0
C2209 C 0.61547 0.76269 0.07714 0.0
C2210 C 0.59317 0.78976 0.1094 0.0
C2211 C 0.5895 0.77131 0.12769 0.0
C2212 C 0.59836 0.74838 0.12003 0.0
C2213 C 0.61127 0.74419 0.09528 0.0
C2214 C 0.5473 0.76445 0.1934 0.0
C2215 C 0.55415 0.78522 0.20618 0.0
C2216 C 0.55885 0.75983 0.16816 0.0
C2217 C 0.57727 0.77601 0.15478 0.0
C2218 C 0.58426 0.79665 0.16768 0.0
C2219 C 0.57303 0.8011 0.19296 0.0
H2220 H 0.96559 0.23352 0.61865 0.0
H2221 H 1.00684 0.29969 0.59688 0.0
H2222 H 0.99024 0.23083 0.6555 0.0
H2223 H 0.03155 0.29705 0.63398 0.0
H2224 H 0.09228 0.26634 0.68749 0.0
H2225 H 0.06669 0.2747 0.65165 0.0
H2226 H 0.99357 0.24842 0.69594 0.0
H2227 H 0.01917 0.2396 0.73108 0.0
C2228 C 0.9796 0.24772 0.62192 0.0
C2229 C 0.98404 0.26688 0.60474 0.0
C2230 C 0.99382 0.24619 0.64313 0.0
C2231 C 1.01286 0.26383 0.64796 0.0
C2232 C 0.0173 0.28302 0.63081 0.0
C2233 C 1.00307 0.28454 0.60952 0.0
C2234 C 0.0706 0.26305 0.68973 0.0
C2235 C 0.05774 0.25235 0.71209 0.0
C2236 C 0.05591 0.26769 0.66916 0.0
C2237 C 0.02808 0.2618 0.67063 0.0
C2238 C 1.01505 0.2526 0.69374 0.0
C2239 C 0.02969 0.24783 0.71407 0.0
H2240 H 0.82337 0.07669 0.7747 0.0
H2241 H 0.83347 0.08822 0.6932 0.0
H2242 H 0.86993 0.09146 0.77639 0.0
H2243 H 0.87957 0.10221 0.69493 0.0
H2244 H 0.96924 0.09329 0.70401 0.0
H2245 H 0.92238 0.07929 0.70729 0.0
H2246 H 0.89867 0.13282 0.76407 0.0
H2247 H 0.94586 0.14688 0.76105 0.0
C2248 C 0.8354 0.08251 0.75727 0.0
C2249 C 0.82473 0.0814 0.73386 0.0
C2250 C 0.86193 0.09095 0.75824 0.0
C2251 C 0.8783 0.09775 0.73573 0.0
C2252 C 0.86743 0.09692 0.7125 0.0
C2253 C 0.84092 0.08905 0.7116 0.0
C2254 C 0.9542 0.1019 0.71749 0.0
C2255 C 0.96133 0.12127 0.7322 0.0
C2256 C 0.92734 0.09396 0.71923 0.0
C2257 C 0.90699 0.10505 0.73587 0.0
C2258 C 0.91407 0.12393 0.7512 0.0
C2259 C 0.94099 0.13208 0.74926 0.0
H2260 H 0.77361 0.96728 0.24429 0.0
H2261 H 0.732 0.0342 0.25727 0.0
H2262 H 0.7322 0.94586 0.2598 0.0
H2263 H 0.69027 1.0127 0.2733 0.0
H2264 H 0.6216 0.96514 0.24558 0.0
H2265 H 0.66191 0.9894 0.24733 0.0
H2266 H 0.695 0.93544 0.29265 0.0
H2267 H 0.65429 0.91104 0.29103 0.0
C2268 C 0.75579 0.97741 0.25148 0.0
C2269 C 0.75584 1.00233 0.24943 0.0
C2270 C 0.73205 0.96514 0.26045 0.0
C2271 C 0.70783 0.97758 0.26741 0.0
C2272 C 0.70857 1.00265 0.26772 0.0
C2273 C 0.73249 0.01498 0.25886 0.0
C2274 C 0.63712 0.95866 0.25648 0.0
C2275 C 0.63476 0.93609 0.26806 0.0
C2276 C 0.66023 0.97266 0.25759 0.0
C2277 C 0.68162 0.96442 0.27025 0.0
C2278 C 0.6789 0.94221 0.28263 0.0
C2279 C 0.65569 0.92819 0.28156 0.0
H2280 H 0.41203 0.4549 0.26115 0.0
H2281 H 0.37314 0.40854 0.32005 0.0
H2282 H 0.37098 0.4792 0.26398 0.0
H2283 H 0.33256 0.43271 0.32309 0.0
H2284 H 0.25592 0.46718 0.31509 0.0
H2285 H 0.29541 0.44319 0.30034 0.0
H2286 H 0.34546 0.50669 0.29389 0.0
H2287 H 0.30546 0.53079 0.30784 0.0
C2288 C 0.39471 0.44989 0.27464 0.0
C2289 C 0.39573 0.4297 0.29023 0.0
C2290 C 0.37124 0.46379 0.27626 0.0
C2291 C 0.34836 0.45777 0.29353 0.0
C2292 C 0.34949 0.43752 0.30904 0.0
C2293 C 0.37281 0.42365 0.30736 0.0
C2294 C 0.27523 0.47606 0.30968 0.0
C2295 C 0.27777 0.50075 0.3127 0.0
C2296 C 0.2979 0.46232 0.30151 0.0
C2297 C 0.32373 0.47293 0.29662 0.0
C2298 C 0.32587 0.49794 0.2975 0.0
C2299 C 0.30297 0.51178 0.30539 0.0
H2300 H 0.19494 0.56388 0.799 0.0
H2301 H 0.21682 0.62019 0.84842 0.0
H2302 H 0.1506 0.58185 0.7981 0.0
H2303 H 0.17298 0.6388 0.84664 0.0
H2304 H 0.08104 0.6419 0.86999 0.0
H2305 H 0.12823 0.62964 0.86505 0.0
H2306 H 0.12394 0.61389 0.78553 0.0
H2307 H 0.07627 0.62558 0.79084 0.0
C2308 C 0.1905 0.58044 0.80913 0.0
C2309 C 0.20911 0.5905 0.82404 0.0
C2310 C 0.16512 0.59082 0.80853 0.0
C2311 C 0.15807 0.61162 0.82258 0.0
C2312 C 0.17749 0.62246 0.83614 0.0
C2313 C 0.20266 0.61189 0.83704 0.0
C2314 C 0.09031 0.6361 0.8514 0.0
C2315 C 0.07504 0.63453 0.83085 0.0
C2316 C 0.11741 0.62919 0.84849 0.0
C2317 C 0.12993 0.62079 0.82486 0.0
C2318 C 0.11481 0.61992 0.80407 0.0
C2319 C 0.08757 0.62662 0.80708 0.0
H2320 H 0.75112 0.78803 0.02906 0.0
H2321 H 0.69063 0.7807 0.09438 0.0
H2322 H 0.77061 0.82238 0.04889 0.0
H2323 H 0.70989 0.81497 0.11437 0.0
H2324 H 0.75599 0.87594 0.14736 0.0
H2325 H 0.74695 0.83591 0.1322 0.0
H2326 H 0.75209 0.86258 0.05516 0.0
H2327 H 0.76063 0.90248 0.07021 0.0
C2328 C 0.74302 0.79289 0.04834 0.0
C2329 C 0.71983 0.78126 0.06048 0.0
C2330 C 0.75375 0.81295 0.05948 0.0
C2331 C 0.74154 0.82179 0.08308 0.0
C2332 C 0.71996 0.80868 0.09629 0.0
C2333 C 0.70911 0.78877 0.08501 0.0
C2334 C 0.75513 0.87333 0.12718 0.0
C2335 C 0.75912 0.89266 0.11008 0.0
C2336 C 0.75007 0.85028 0.11848 0.0
C2337 C 0.74904 0.84585 0.0924 0.0
C2338 C 0.75339 0.8651 0.07529 0.0
C2339 C 0.75828 0.88811 0.08398 0.0
H2340 H 0.21958 0.6364 1.00593 0.0
H2341 H 0.26052 0.67056 0.93841 0.0
H2342 H 0.21645 0.67462 1.02777 0.0
H2343 H 0.25656 0.70897 0.96019 0.0
H2344 H 0.19776 0.76933 0.99891 0.0
H2345 H 0.21465 0.73372 0.97591 0.0
H2346 H 0.24578 0.70801 0.04353 0.0
H2347 H 0.22908 0.74382 0.06654 0.0
C2348 C 0.22834 0.65196 0.99588 0.0
C2349 C 0.24017 0.65041 0.97036 0.0
C2350 C 0.22657 0.67385 1.00842 0.0
C2351 C 0.23638 0.69468 0.99566 0.0
C2352 C 0.24875 0.69314 0.97038 0.0
C2353 C 0.25079 0.6712 0.95789 0.0
C2354 C 0.20894 0.7564 1.00861 0.0
C2355 C 0.21206 0.75922 0.03447 0.0
C2356 C 0.21865 0.73607 0.99544 0.0
C2357 C 0.23125 0.71807 1.00807 0.0
C2358 C 0.23595 0.72161 0.03347 0.0
C2359 C 0.22664 0.74216 0.04653 0.0
H2360 H 0.27546 0.28676 0.52577 0.0
H2361 H 0.34384 0.28977 0.46721 0.0
H2362 H 0.2548 0.32029 0.50584 0.0
H2363 H 0.32414 0.32353 0.44776 0.0
H2364 H 0.28365 0.38345 0.41272 0.0
H2365 H 0.29283 0.34321 0.42622 0.0
H2366 H 0.2628 0.3616 0.50395 0.0
H2367 H 0.25196 0.40124 0.49016 0.0
C2368 C 0.2854 0.29381 0.5079 0.0
C2369 C 0.31096 0.28526 0.49771 0.0
C2370 C 0.27395 0.31349 0.49678 0.0
C2371 C 0.28793 0.32516 0.47532 0.0
C2372 C 0.31242 0.31513 0.46401 0.0
C2373 C 0.32373 0.29552 0.47506 0.0
C2374 C 0.27838 0.37881 0.43261 0.0
C2375 C 0.2672 0.39591 0.45029 0.0
C2376 C 0.284 0.35567 0.44047 0.0
C2377 C 0.27881 0.34888 0.46631 0.0
C2378 C 0.26685 0.3658 0.48385 0.0
C2379 C 0.26104 0.38885 0.47596 0.0
H2380 H 0.8037 0.2366 0.48518 0.0
H2381 H 0.8268 0.26523 0.55529 0.0
H2382 H 0.78681 0.20043 0.50786 0.0
H2383 H 0.80999 0.22925 0.57784 0.0
H2384 H 0.7643 0.1661 0.61485 0.0
H2385 H 0.76921 0.20377 0.59164 0.0
H2386 H 0.81282 0.16794 0.527 0.0
H2387 H 0.80848 0.13041 0.55027 0.0
C2388 C 0.80443 0.23546 0.50555 0.0
C2389 C 0.81663 0.25366 0.51849 0.0
C2390 C 0.79501 0.21469 0.51845 0.0
C2391 C 0.79728 0.21197 0.54455 0.0
C2392 C 0.80778 0.23089 0.55778 0.0
C2393 C 0.81749 0.25146 0.54485 0.0
C2394 C 0.77496 0.16624 0.59569 0.0
C2395 C 0.78624 0.14525 0.58453 0.0
C2396 C 0.7776 0.18779 0.58237 0.0
C2397 C 0.79137 0.18878 0.55753 0.0
C2398 C 0.80172 0.16766 0.54598 0.0
C2399 C 0.79925 0.14615 0.55935 0.0
loop_
_geom_bond_atom_site_label_1
_geom_bond_atom_site_label_2
_geom_bond_distance
_geom_bond_site_symmetry_2
_ccdc_geom_bond_type
Dy0 O3 2.307 . S
Dy0 O5 2.395 . S
Dy0 O6 2.379 . S
Dy0 O8 2.339 . S
Dy0 O10 2.298 . S
Dy0 O14 2.275 . S
Dy0 C22 2.738 . S
Dy1 O4 2.298 . S
Dy1 O7 2.275 . S
Dy1 O9 2.307 . S
Dy1 O11 2.409 . S
Dy1 O12 2.379 . S
Dy1 O15 2.339 . S
Dy1 C31 2.774 . S
C2 O14 1.254 . S
C2 O15 1.257 . S
O3 Dy0 2.307 . S
O3 C13 1.266 . S
O4 Dy1 2.298 . S
O4 C13 1.236 . S
O5 Dy0 2.395 . S
O5 C22 1.255 . S
O6 Dy0 2.379 . S
O6 C22 1.249 . S
O7 Dy1 2.275 . S
O7 C23 1.254 . S
O8 Dy0 2.339 . S
O8 C23 1.257 . S
O9 Dy1 2.307 . S
O9 C24 1.266 . S
O10 Dy0 2.298 . S
O10 C24 1.236 . S
O11 Dy1 2.409 . S
O11 C31 1.254 . S
O12 Dy1 2.379 . S
O12 C31 1.287 . S
C13 O3 1.266 . S
C13 O4 1.236 . S
O14 Dy0 2.275 . S
O14 C2 1.254 . S
O15 Dy1 2.339 . S
O15 C2 1.257 . S
C16 C19 1.344 . S
C16 C20 1.328 . S
C16 C22 1.516 . S
C17 C18 1.304 . S
C17 C21 1.323 . S
C18 C17 1.304 . S
C18 C19 1.371 . S
C18 H32 0.930 . S
C19 C16 1.344 . S
C19 C18 1.371 . S
C19 H33 0.931 . S
C20 C16 1.328 . S
C20 C21 1.433 . S
C20 H34 0.931 . S
C21 C17 1.323 . S
C21 C20 1.433 . S
C21 H35 0.933 . S
C22 Dy0 2.738 . S
C22 O5 1.255 . S
C22 O6 1.249 . S
C22 C16 1.516 . S
C23 O7 1.254 . S
C23 O8 1.257 . S
C24 O9 1.266 . S
C24 O10 1.236 . S
C25 C28 1.344 . S
C25 C29 1.328 . S
C25 C31 1.480 1_655 S
C26 C27 1.304 . S
C26 C30 1.323 . S
C27 C26 1.304 . S
C27 C28 1.371 . S
C27 H36 0.930 . S
C28 C25 1.344 . S
C28 C27 1.371 . S
C28 H37 0.931 . S
C29 C25 1.328 . S
C29 C30 1.433 . S
C29 H38 0.931 . S
C30 C26 1.323 . S
C30 C29 1.433 . S
C30 H39 0.933 . S
C31 Dy1 2.774 . S
C31 O11 1.254 . S
C31 O12 1.287 . S
C31 C25 1.480 1_455 S
H32 C18 0.930 . S
H33 C19 0.931 . S
H34 C20 0.931 . S
H35 C21 0.933 . S
H36 C27 0.930 . S
H37 C28 0.931 . S
H38 C29 0.931 . S
H39 C30 0.933 . S
Dy40 O43 2.307 . S
Dy40 O45 2.395 . S
Dy40 O46 2.379 . S
Dy40 O48 2.339 . S
Dy40 O50 2.298 . S
Dy40 O54 2.275 . S
Dy40 C62 2.738 . S
Dy41 O44 2.298 . S
Dy41 O47 2.275 . S
Dy41 O49 2.307 . S
Dy41 O51 2.395 . S
Dy41 O52 2.379 . S
Dy41 O55 2.339 . S
Dy41 C71 2.738 . S
C42 O54 1.254 . S
C42 O55 1.257 . S
O43 Dy40 2.307 . S
O43 C53 1.266 . S
O44 Dy41 2.298 . S
O44 C53 1.236 . S
O45 Dy40 2.395 . S
O45 C62 1.255 . S
O46 Dy40 2.379 . S
O46 C62 1.249 . S
O47 Dy41 2.275 . S
O47 C63 1.254 . S
O48 Dy40 2.339 . S
O48 C63 1.257 . S
O49 Dy41 2.307 . S
O49 C64 1.266 . S
O50 Dy40 2.298 . S
O50 C64 1.236 . S
O51 Dy41 2.395 . S
O51 C71 1.255 . S
O52 Dy41 2.379 . S
O52 C71 1.249 . S
C53 O43 1.266 . S
C53 O44 1.236 . S
O54 Dy40 2.275 . S
O54 C42 1.254 . S
O55 Dy41 2.339 . S
O55 C42 1.257 . S
C56 C59 1.344 . S
C56 C60 1.328 . S
C56 C62 1.516 . S
C57 C58 1.304 . S
C57 C61 1.323 . S
C58 C57 1.304 . S
C58 C59 1.371 . S
C58 H72 0.930 . S
C59 C56 1.344 . S
C59 C58 1.371 . S
C59 H73 0.931 . S
C60 C56 1.328 . S
C60 C61 1.433 . S
C60 H74 0.931 . S
C61 C57 1.323 . S
C61 C60 1.433 . S
C61 H75 0.933 . S
C62 Dy40 2.738 . S
C62 O45 1.255 . S
C62 O46 1.249 . S
C62 C56 1.516 . S
C63 O47 1.254 . S
C63 O48 1.257 . S
C64 O49 1.266 . S
C64 O50 1.236 . S
C65 C68 1.344 . S
C65 C69 1.328 . S
C65 C71 1.516 . S
C66 C67 1.304 . S
C66 C70 1.323 . S
C67 C66 1.304 . S
C67 C68 1.371 . S
C67 H76 0.930 . S
C68 C65 1.344 . S
C68 C67 1.371 . S
C68 H77 0.931 . S
C69 C65 1.328 . S
C69 C70 1.433 . S
C69 H78 0.931 . S
C70 C66 1.323 . S
C70 C69 1.433 . S
C70 H79 0.933 . S
C71 Dy41 2.738 . S
C71 O51 1.255 . S
C71 O52 1.249 . S
C71 C65 1.516 . S
H72 C58 0.930 . S
H73 C59 0.931 . S
H74 C60 0.931 . S
H75 C61 0.933 . S
H76 C67 0.930 . S
H77 C68 0.931 . S
H78 C69 0.931 . S
H79 C70 0.933 . S
Dy80 O83 2.307 . S
Dy80 O85 2.395 . S
Dy80 O86 2.379 . S
Dy80 O88 2.339 . S
Dy80 O90 2.298 . S
Dy80 O94 2.275 . S
Dy80 C102 2.738 . S
Dy81 O84 2.298 . S
Dy81 O87 2.275 . S
Dy81 O89 2.307 . S
Dy81 O91 2.395 . S
Dy81 O92 2.379 . S
Dy81 O95 2.339 . S
Dy81 C111 2.738 . S
C82 O94 1.254 . S
C82 O95 1.257 . S
O83 Dy80 2.307 . S
O83 C93 1.266 . S
O84 Dy81 2.298 . S
O84 C93 1.236 . S
O85 Dy80 2.395 . S
O85 C102 1.255 . S
O86 Dy80 2.379 . S
O86 C102 1.249 . S
O87 Dy81 2.275 . S
O87 C103 1.254 . S
O88 Dy80 2.339 . S
O88 C103 1.257 . S
O89 Dy81 2.307 . S
O89 C104 1.266 . S
O90 Dy80 2.298 . S
O90 C104 1.236 . S
O91 Dy81 2.395 . S
O91 C111 1.255 . S
O92 Dy81 2.379 . S
O92 C111 1.249 . S
C93 O83 1.266 . S
C93 O84 1.236 . S
O94 Dy80 2.275 . S
O94 C82 1.254 . S
O95 Dy81 2.339 . S
O95 C82 1.257 . S
C96 C99 1.344 . S
C96 C100 1.328 . S
C96 C102 1.516 . S
C97 C98 1.304 . S
C97 C101 1.323 . S
C98 C97 1.304 . S
C98 C99 1.371 . S
C98 H112 0.930 . S
C99 C96 1.344 . S
C99 C98 1.371 . S
C99 H113 0.931 . S
C100 C96 1.328 . S
C100 C101 1.433 . S
C100 H114 0.931 . S
C101 C97 1.323 . S
C101 C100 1.433 . S
C101 H115 0.933 . S
C102 Dy80 2.738 . S
C102 O85 1.255 . S
C102 O86 1.249 . S
C102 C96 1.516 . S
C103 O87 1.254 . S
C103 O88 1.257 . S
C104 O89 1.266 . S
C104 O90 1.236 . S
C105 C108 1.344 . S
C105 C109 1.328 . S
C105 C111 1.516 . S
C106 C107 1.304 . S
C106 C110 1.323 . S
C107 C106 1.304 . S
C107 C108 1.371 . S
C107 H116 0.930 . S
C108 C105 1.344 . S
C108 C107 1.371 . S
C108 H117 0.931 . S
C109 C105 1.328 . S
C109 C110 1.433 . S
C109 H118 0.931 . S
C110 C106 1.323 . S
C110 C109 1.433 . S
C110 H119 0.933 . S
C111 Dy81 2.738 . S
C111 O91 1.255 . S
C111 O92 1.249 . S
C111 C105 1.516 . S
H112 C98 0.930 . S
H113 C99 0.931 . S
H114 C100 0.931 . S
H115 C101 0.933 . S
H116 C107 0.930 . S
H117 C108 0.931 . S
H118 C109 0.931 . S
H119 C110 0.933 . S
Dy120 O123 2.307 . S
Dy120 O125 2.395 . S
Dy120 O126 2.379 . S
Dy120 O128 2.339 . S
Dy120 O130 2.298 . S
Dy120 O134 2.275 . S
Dy120 C142 2.738 . S
Dy121 O124 2.298 . S
Dy121 O127 2.275 . S
Dy121 O129 2.307 . S
Dy121 O131 2.424 . S
Dy121 O132 2.379 . S
Dy121 O135 2.339 . S
Dy121 C151 2.738 . S
C122 O134 1.254 . S
C122 O135 1.257 . S
O123 Dy120 2.307 . S
O123 C133 1.266 . S
O124 Dy121 2.298 . S
O124 C133 1.236 . S
O125 Dy120 2.395 . S
O125 C142 1.255 . S
O126 Dy120 2.379 . S
O126 C142 1.249 . S
O127 Dy121 2.275 . S
O127 C143 1.254 . S
O128 Dy120 2.339 . S
O128 C143 1.257 . S
O129 Dy121 2.307 . S
O129 C144 1.266 . S
O130 Dy120 2.298 . S
O130 C144 1.236 . S
O131 Dy121 2.424 . S
O131 C151 1.260 . S
O132 Dy121 2.379 . S
O132 C151 1.249 . S
C133 O123 1.266 . S
C133 O124 1.236 . S
O134 Dy120 2.275 . S
O134 C122 1.254 . S
O135 Dy121 2.339 . S
O135 C122 1.257 . S
C136 C139 1.344 . S
C136 C140 1.328 . S
C136 C142 1.516 . S
C137 C138 1.304 . S
C137 C141 1.323 . S
C138 C137 1.304 . S
C138 C139 1.371 . S
C138 H152 0.930 . S
C139 C136 1.344 . S
C139 C138 1.371 . S
C139 H153 0.931 . S
C140 C136 1.328 . S
C140 C141 1.433 . S
C140 H154 0.931 . S
C141 C137 1.323 . S
C141 C140 1.433 . S
C141 H155 0.933 . S
C142 Dy120 2.738 . S
C142 O125 1.255 . S
C142 O126 1.249 . S
C142 C136 1.516 . S
C143 O127 1.254 . S
C143 O128 1.257 . S
C144 O129 1.266 . S
C144 O130 1.236 . S
C145 C148 1.344 . S
C145 C149 1.328 . S
C145 C151 1.516 1_455 S
C146 C147 1.304 . S
C146 C150 1.323 . S
C147 C146 1.304 . S
C147 C148 1.371 . S
C147 H156 0.930 . S
C148 C145 1.344 . S
C148 C147 1.371 . S
C148 H157 0.931 . S
C149 C145 1.328 . S
C149 C150 1.433 . S
C149 H158 0.931 . S
C150 C146 1.323 . S
C150 C149 1.433 . S
C150 H159 0.933 . S
C151 Dy121 2.738 . S
C151 O131 1.260 . S
C151 O132 1.249 . S
C151 C145 1.516 1_655 S
H152 C138 0.930 . S
H153 C139 0.931 . S
H154 C140 0.931 . S
H155 C141 0.933 . S
H156 C147 0.930 . S
H157 C148 0.931 . S
H158 C149 0.931 . S
H159 C150 0.933 . S
Dy160 O163 2.307 1_545 S
Dy160 O165 2.395 . S
Dy160 O166 2.379 . S
Dy160 O168 2.339 1_545 S
Dy160 O170 2.298 . S
Dy160 O174 2.275 . S
Dy160 C182 2.738 . S
Dy161 O164 2.298 . S
Dy161 O167 2.275 . S
Dy161 O169 2.307 1_565 S
Dy161 O171 2.395 . S
Dy161 O172 2.379 . S
Dy161 O175 2.339 1_565 S
Dy161 C191 2.738 . S
C162 O174 1.254 . S
C162 O175 1.257 . S
O163 Dy160 2.307 1_565 S
O163 C173 1.266 . S
O164 Dy161 2.298 . S
O164 C173 1.236 . S
O165 Dy160 2.395 . S
O165 C182 1.255 . S
O166 Dy160 2.379 . S
O166 C182 1.249 . S
O167 Dy161 2.275 . S
O167 C183 1.254 . S
O168 Dy160 2.339 1_565 S
O168 C183 1.257 . S
O169 Dy161 2.307 1_545 S
O169 C184 1.266 . S
O170 Dy160 2.298 . S
O170 C184 1.236 . S
O171 Dy161 2.395 . S
O171 C191 1.255 . S
O172 Dy161 2.379 . S
O172 C191 1.249 . S
C173 O163 1.266 . S
C173 O164 1.236 . S
O174 Dy160 2.275 . S
O174 C162 1.254 . S
O175 Dy161 2.339 1_545 S
O175 C162 1.257 . S
C176 C179 1.344 . S
C176 C180 1.328 . S
C176 C182 1.516 . S
C177 C178 1.304 . S
C177 C181 1.323 . S
C178 C177 1.304 . S
C178 C179 1.371 . S
C178 H192 0.930 . S
C179 C176 1.344 . S
C179 C178 1.371 . S
C179 H193 0.931 . S
C180 C176 1.328 . S
C180 C181 1.433 . S
C180 H194 0.931 . S
C181 C177 1.323 . S
C181 C180 1.433 . S
C181 H195 0.933 . S
C182 Dy160 2.738 . S
C182 O165 1.255 . S
C182 O166 1.249 . S
C182 C176 1.516 . S
C183 O167 1.254 . S
C183 O168 1.257 . S
C184 O169 1.266 . S
C184 O170 1.236 . S
C185 C188 1.344 . S
C185 C189 1.328 . S
C185 C191 1.516 . S
C186 C187 1.304 . S
C186 C190 1.323 . S
C187 C186 1.304 . S
C187 C188 1.371 . S
C187 H196 0.930 . S
C188 C185 1.344 . S
C188 C187 1.371 . S
C188 H197 0.931 . S
C189 C185 1.328 . S
C189 C190 1.433 . S
C189 H198 0.931 . S
C190 C186 1.323 . S
C190 C189 1.433 . S
C190 H199 0.933 . S
C191 Dy161 2.738 . S
C191 O171 1.255 . S
C191 O172 1.249 . S
C191 C185 1.516 . S
H192 C178 0.930 . S
H193 C179 0.931 . S
H194 C180 0.931 . S
H195 C181 0.933 . S
H196 C187 0.930 . S
H197 C188 0.931 . S
H198 C189 0.931 . S
H199 C190 0.933 . S
Dy200 O203 2.307 1_565 S
Dy200 O205 2.395 . S
Dy200 O206 2.379 . S
Dy200 O208 2.339 1_565 S
Dy200 O210 2.298 . S
Dy200 O214 2.275 . S
Dy200 C222 2.738 . S
Dy201 O204 2.298 . S
Dy201 O207 2.275 . S
Dy201 O209 2.307 1_545 S
Dy201 O211 2.395 . S
Dy201 O212 2.379 . S
Dy201 O215 2.339 1_545 S
Dy201 C231 2.738 . S
C202 O214 1.254 . S
C202 O215 1.257 . S
O203 Dy200 2.307 1_545 S
O203 C213 1.266 . S
O204 Dy201 2.298 . S
O204 C213 1.236 . S
O205 Dy200 2.395 . S
O205 C222 1.255 . S
O206 Dy200 2.379 . S
O206 C222 1.249 . S
O207 Dy201 2.275 . S
O207 C223 1.254 . S
O208 Dy200 2.339 1_545 S
O208 C223 1.257 . S
O209 Dy201 2.307 1_565 S
O209 C224 1.266 . S
O210 Dy200 2.298 . S
O210 C224 1.236 . S
O211 Dy201 2.395 . S
O211 C231 1.255 . S
O212 Dy201 2.379 . S
O212 C231 1.249 . S
C213 O203 1.266 . S
C213 O204 1.236 . S
O214 Dy200 2.275 . S
O214 C202 1.254 . S
O215 Dy201 2.339 1_565 S
O215 C202 1.257 . S
C216 C219 1.344 . S
C216 C220 1.328 . S
C216 C222 1.516 . S
C217 C218 1.304 . S
C217 C221 1.323 . S
C218 C217 1.304 . S
C218 C219 1.371 . S
C218 H232 0.930 . S
C219 C216 1.344 . S
C219 C218 1.371 . S
C219 H233 0.931 . S
C220 C216 1.328 . S
C220 C221 1.433 . S
C220 H234 0.931 . S
C221 C217 1.323 . S
C221 C220 1.433 . S
C221 H235 0.933 . S
C222 Dy200 2.738 . S
C222 O205 1.255 . S
C222 O206 1.249 . S
C222 C216 1.516 . S
C223 O207 1.254 . S
C223 O208 1.257 . S
C224 O209 1.266 . S
C224 O210 1.236 . S
C225 C228 1.344 . S
C225 C229 1.328 . S
C225 C231 1.516 . S
C226 C227 1.304 . S
C226 C230 1.323 . S
C227 C226 1.304 . S
C227 C228 1.371 . S
C227 H236 0.930 . S
C228 C225 1.344 . S
C228 C227 1.371 . S
C228 H237 0.931 . S
C229 C225 1.328 . S
C229 C230 1.433 . S
C229 H238 0.931 . S
C230 C226 1.323 . S
C230 C229 1.433 . S
C230 H239 0.933 . S
C231 Dy201 2.738 . S
C231 O211 1.255 . S
C231 O212 1.249 . S
C231 C225 1.516 . S
H232 C218 0.930 . S
H233 C219 0.931 . S
H234 C220 0.931 . S
H235 C221 0.933 . S
H236 C227 0.930 . S
H237 C228 0.931 . S
H238 C229 0.931 . S
H239 C230 0.933 . S
Dy240 O243 2.307 . S
Dy240 O245 2.395 . S
Dy240 O246 2.379 . S
Dy240 O248 2.339 . S
Dy240 O250 2.298 . S
Dy240 O254 2.275 . S
Dy240 C262 2.738 . S
Dy241 O244 2.298 . S
Dy241 O247 2.275 . S
Dy241 O249 2.307 . S
Dy241 O251 2.395 . S
Dy241 O252 2.379 . S
Dy241 O255 2.339 . S
Dy241 C271 2.738 . S
C242 O254 1.254 . S
C242 O255 1.257 . S
O243 Dy240 2.307 . S
O243 C253 1.266 . S
O244 Dy241 2.298 . S
O244 C253 1.236 . S
O245 Dy240 2.395 . S
O245 C262 1.255 . S
O246 Dy240 2.379 . S
O246 C262 1.249 . S
O247 Dy241 2.275 . S
O247 C263 1.254 . S
O248 Dy240 2.339 . S
O248 C263 1.257 . S
O249 Dy241 2.307 . S
O249 C264 1.266 . S
O250 Dy240 2.298 . S
O250 C264 1.236 . S
O251 Dy241 2.395 . S
O251 C271 1.255 . S
O252 Dy241 2.379 . S
O252 C271 1.249 . S
C253 O243 1.266 . S
C253 O244 1.236 . S
O254 Dy240 2.275 . S
O254 C242 1.254 . S
O255 Dy241 2.339 . S
O255 C242 1.257 . S
C256 C259 1.344 . S
C256 C260 1.328 . S
C256 C262 1.516 . S
C257 C258 1.304 . S
C257 C261 1.323 . S
C258 C257 1.304 . S
C258 C259 1.371 . S
C258 H272 0.930 . S
C259 C256 1.344 . S
C259 C258 1.371 . S
C259 H273 0.931 . S
C260 C256 1.328 . S
C260 C261 1.433 . S
C260 H274 0.931 . S
C261 C257 1.323 . S
C261 C260 1.433 . S
C261 H275 0.933 . S
C262 Dy240 2.738 . S
C262 O245 1.255 . S
C262 O246 1.249 . S
C262 C256 1.516 . S
C263 O247 1.254 . S
C263 O248 1.257 . S
C264 O249 1.266 . S
C264 O250 1.236 . S
C265 C268 1.344 . S
C265 C269 1.328 . S
C265 C271 1.516 . S
C266 C267 1.304 . S
C266 C270 1.323 . S
C267 C266 1.304 . S
C267 C268 1.371 . S
C267 H276 0.930 . S
C268 C265 1.344 . S
C268 C267 1.371 . S
C268 H277 0.931 . S
C269 C265 1.328 . S
C269 C270 1.433 . S
C269 H278 0.931 . S
C270 C266 1.323 . S
C270 C269 1.433 . S
C270 H279 0.933 . S
C271 Dy241 2.738 . S
C271 O251 1.255 . S
C271 O252 1.249 . S
C271 C265 1.516 . S
H272 C258 0.930 . S
H273 C259 0.931 . S
H274 C260 0.931 . S
H275 C261 0.933 . S
H276 C267 0.930 . S
H277 C268 0.931 . S
H278 C269 0.931 . S
H279 C270 0.933 . S
Dy280 O283 2.307 . S
Dy280 O285 2.395 . S
Dy280 O286 2.379 . S
Dy280 O288 2.339 . S
Dy280 O290 2.298 . S
Dy280 O294 2.275 . S
Dy280 C302 2.738 . S
Dy281 O284 2.298 . S
Dy281 O287 2.275 . S
Dy281 O289 2.307 . S
Dy281 O291 2.395 . S
Dy281 O292 2.379 . S
Dy281 O295 2.339 . S
Dy281 C311 2.738 . S
C282 O294 1.254 . S
C282 O295 1.257 . S
O283 Dy280 2.307 . S
O283 C293 1.266 . S
O284 Dy281 2.298 . S
O284 C293 1.236 . S
O285 Dy280 2.395 . S
O285 C302 1.255 . S
O286 Dy280 2.379 . S
O286 C302 1.249 . S
O287 Dy281 2.275 . S
O287 C303 1.254 . S
O288 Dy280 2.339 . S
O288 C303 1.257 . S
O289 Dy281 2.307 . S
O289 C304 1.266 . S
O290 Dy280 2.298 . S
O290 C304 1.236 . S
O291 Dy281 2.395 . S
O291 C311 1.255 . S
O292 Dy281 2.379 . S
O292 C311 1.249 . S
C293 O283 1.266 . S
C293 O284 1.236 . S
O294 Dy280 2.275 . S
O294 C282 1.254 . S
O295 Dy281 2.339 . S
O295 C282 1.257 . S
C296 C299 1.344 . S
C296 C300 1.328 . S
C296 C302 1.516 . S
C297 C298 1.304 . S
C297 C301 1.323 . S
C298 C297 1.304 . S
C298 C299 1.371 . S
C298 H312 0.930 . S
C299 C296 1.344 . S
C299 C298 1.371 . S
C299 H313 0.931 . S
C300 C296 1.328 . S
C300 C301 1.433 . S
C300 H314 0.931 . S
C301 C297 1.323 . S
C301 C300 1.433 . S
C301 H315 0.933 . S
C302 Dy280 2.738 . S
C302 O285 1.255 . S
C302 O286 1.249 . S
C302 C296 1.516 . S
C303 O287 1.254 . S
C303 O288 1.257 . S
C304 O289 1.266 . S
C304 O290 1.236 . S
C305 C308 1.344 . S
C305 C309 1.328 . S
C305 C311 1.516 . S
C306 C307 1.304 . S
C306 C310 1.323 . S
C307 C306 1.304 . S
C307 C308 1.371 . S
C307 H316 0.930 . S
C308 C305 1.344 . S
C308 C307 1.371 . S
C308 H317 0.931 . S
C309 C305 1.328 . S
C309 C310 1.433 . S
C309 H318 0.931 . S
C310 C306 1.323 . S
C310 C309 1.433 . S
C310 H319 0.933 . S
C311 Dy281 2.738 . S
C311 O291 1.255 . S
C311 O292 1.249 . S
C311 C305 1.516 . S
H312 C298 0.930 . S
H313 C299 0.931 . S
H314 C300 0.931 . S
H315 C301 0.933 . S
H316 C307 0.930 . S
H317 C308 0.931 . S
H318 C309 0.931 . S
H319 C310 0.933 . S
Dy320 O323 2.307 . S
Dy320 O325 2.395 1_554 S
Dy320 O326 2.379 1_554 S
Dy320 O328 2.339 . S
Dy320 O330 2.298 1_554 S
Dy320 O334 2.275 1_554 S
Dy320 C342 2.738 1_554 S
Dy321 O324 2.298 . S
Dy321 O327 2.275 . S
Dy321 O329 2.307 1_554 S
Dy321 O331 2.395 . S
Dy321 O332 2.379 . S
Dy321 O335 2.347 . S
Dy321 C351 2.738 . S
C322 O334 1.254 . S
C322 O335 1.252 1_556 S
O323 Dy320 2.307 . S
O323 C333 1.266 . S
O324 Dy321 2.298 . S
O324 C333 1.236 . S
O325 Dy320 2.395 1_556 S
O325 C342 1.255 . S
O326 Dy320 2.379 1_556 S
O326 C342 1.249 . S
O327 Dy321 2.275 . S
O327 C343 1.254 . S
O328 Dy320 2.339 . S
O328 C343 1.257 . S
O329 Dy321 2.307 1_556 S
O329 C344 1.266 . S
O330 Dy320 2.298 1_556 S
O330 C344 1.236 . S
O331 Dy321 2.395 . S
O331 C351 1.255 . S
O332 Dy321 2.379 . S
O332 C351 1.249 . S
C333 O323 1.266 . S
C333 O324 1.236 . S
O334 Dy320 2.275 1_556 S
O334 C322 1.254 . S
O335 Dy321 2.347 . S
O335 C322 1.252 1_554 S
C336 C339 1.344 . S
C336 C340 1.328 . S
C336 C342 1.516 . S
C337 C338 1.304 . S
C337 C341 1.323 . S
C338 C337 1.304 . S
C338 C339 1.371 . S
C338 H352 0.930 . S
C339 C336 1.344 . S
C339 C338 1.371 . S
C339 H353 0.931 . S
C340 C336 1.328 . S
C340 C341 1.433 . S
C340 H354 0.931 . S
C341 C337 1.323 . S
C341 C340 1.433 . S
C341 H355 0.933 . S
C342 Dy320 2.738 1_556 S
C342 O325 1.255 . S
C342 O326 1.249 . S
C342 C336 1.516 . S
C343 O327 1.254 . S
C343 O328 1.257 . S
C344 O329 1.266 . S
C344 O330 1.236 . S
C345 C348 1.344 . S
C345 C349 1.328 . S
C345 C351 1.516 . S
C346 C347 1.304 . S
C346 C350 1.323 . S
C347 C346 1.304 . S
C347 C348 1.371 . S
C347 H356 0.930 . S
C348 C345 1.344 . S
C348 C347 1.371 . S
C348 H357 0.931 . S
C349 C345 1.328 . S
C349 C350 1.433 . S
C349 H358 0.931 . S
C350 C346 1.323 . S
C350 C349 1.433 . S
C350 H359 0.933 . S
C351 Dy321 2.738 . S
C351 O331 1.255 . S
C351 O332 1.249 . S
C351 C345 1.516 . S
H352 C338 0.930 . S
H353 C339 0.931 . S
H354 C340 0.931 . S
H355 C341 0.933 . S
H356 C347 0.930 . S
H357 C348 0.931 . S
H358 C349 0.931 . S
H359 C350 0.933 . S
Dy360 O363 2.307 . S
Dy360 O365 2.395 . S
Dy360 O366 2.379 . S
Dy360 O368 2.339 . S
Dy360 O370 2.298 . S
Dy360 O374 2.275 . S
Dy360 C382 2.738 . S
Dy361 O364 2.298 . S
Dy361 O367 2.275 . S
Dy361 O369 2.307 . S
Dy361 O371 2.395 . S
Dy361 O372 2.379 . S
Dy361 O375 2.339 . S
Dy361 C391 2.738 . S
C362 O374 1.254 . S
C362 O375 1.257 . S
O363 Dy360 2.307 . S
O363 C373 1.266 . S
O364 Dy361 2.298 . S
O364 C373 1.236 . S
O365 Dy360 2.395 . S
O365 C382 1.255 . S
O366 Dy360 2.379 . S
O366 C382 1.249 . S
O367 Dy361 2.275 . S
O367 C383 1.254 . S
O368 Dy360 2.339 . S
O368 C383 1.257 . S
O369 Dy361 2.307 . S
O369 C384 1.266 . S
O370 Dy360 2.298 . S
O370 C384 1.236 . S
O371 Dy361 2.395 . S
O371 C391 1.255 . S
O372 Dy361 2.379 . S
O372 C391 1.249 . S
C373 O363 1.266 . S
C373 O364 1.236 . S
O374 Dy360 2.275 . S
O374 C362 1.254 . S
O375 Dy361 2.339 . S
O375 C362 1.257 . S
C376 C379 1.344 . S
C376 C380 1.328 . S
C376 C382 1.516 . S
C377 C378 1.304 . S
C377 C381 1.323 . S
C378 C377 1.304 . S
C378 C379 1.371 . S
C378 H392 0.930 . S
C379 C376 1.344 . S
C379 C378 1.371 . S
C379 H393 0.931 . S
C380 C376 1.328 . S
C380 C381 1.433 . S
C380 H394 0.931 . S
C381 C377 1.323 . S
C381 C380 1.433 . S
C381 H395 0.933 . S
C382 Dy360 2.738 . S
C382 O365 1.255 . S
C382 O366 1.249 . S
C382 C376 1.516 . S
C383 O367 1.254 . S
C383 O368 1.257 . S
C384 O369 1.266 . S
C384 O370 1.236 . S
C385 C388 1.344 . S
C385 C389 1.328 . S
C385 C391 1.516 1_554 S
C386 C387 1.304 . S
C386 C390 1.323 . S
C387 C386 1.304 . S
C387 C388 1.371 . S
C387 H396 0.930 . S
C388 C385 1.344 . S
C388 C387 1.371 . S
C388 H397 0.931 . S
C389 C385 1.328 . S
C389 C390 1.433 . S
C389 H398 0.931 1_554 S
C390 C386 1.323 . S
C390 C389 1.433 . S
C390 H399 0.933 . S
C391 Dy361 2.738 . S
C391 O371 1.255 . S
C391 O372 1.249 . S
C391 C385 1.516 1_556 S
H392 C378 0.930 . S
H393 C379 0.931 . S
H394 C380 0.931 . S
H395 C381 0.933 . S
H396 C387 0.930 . S
H397 C388 0.931 . S
H398 C389 0.931 1_556 S
H399 C390 0.933 . S
Dy400 O403 2.307 . S
Dy400 O405 2.395 . S
Dy400 O406 2.379 . S
Dy400 O408 2.339 . S
Dy400 O410 2.298 . S
Dy400 O414 2.275 . S
Dy400 C422 2.738 . S
Dy401 O404 2.298 . S
Dy401 O407 2.275 . S
Dy401 O409 2.307 . S
Dy401 O411 2.395 . S
Dy401 O412 2.379 . S
Dy401 O415 2.339 . S
Dy401 C431 2.738 . S
C402 O414 1.254 . S
C402 O415 1.257 . S
O403 Dy400 2.307 . S
O403 C413 1.266 . S
O404 Dy401 2.298 . S
O404 C413 1.236 . S
O405 Dy400 2.395 . S
O405 C422 1.255 . S
O406 Dy400 2.379 . S
O406 C422 1.249 . S
O407 Dy401 2.275 . S
O407 C423 1.254 . S
O408 Dy400 2.339 . S
O408 C423 1.257 . S
O409 Dy401 2.307 . S
O409 C424 1.266 . S
O410 Dy400 2.298 . S
O410 C424 1.236 . S
O411 Dy401 2.395 . S
O411 C431 1.255 . S
O412 Dy401 2.379 . S
O412 C431 1.249 . S
C413 O403 1.266 . S
C413 O404 1.236 . S
O414 Dy400 2.275 . S
O414 C402 1.254 . S
O415 Dy401 2.339 . S
O415 C402 1.257 . S
C416 C419 1.344 . S
C416 C420 1.328 . S
C416 C422 1.516 . S
C417 C418 1.304 . S
C417 C421 1.323 . S
C418 C417 1.304 . S
C418 C419 1.371 . S
C418 H432 0.930 . S
C419 C416 1.344 . S
C419 C418 1.371 . S
C419 H433 0.931 . S
C420 C416 1.328 . S
C420 C421 1.433 . S
C420 H434 0.931 . S
C421 C417 1.323 . S
C421 C420 1.433 . S
C421 H435 0.933 . S
C422 Dy400 2.738 . S
C422 O405 1.255 . S
C422 O406 1.249 . S
C422 C416 1.516 . S
C423 O407 1.254 . S
C423 O408 1.257 . S
C424 O409 1.266 . S
C424 O410 1.236 . S
C425 C428 1.344 . S
C425 C429 1.328 . S
C425 C431 1.516 . S
C426 C427 1.304 . S
C426 C430 1.323 . S
C427 C426 1.304 . S
C427 C428 1.371 . S
C427 H436 0.930 . S
C428 C425 1.344 . S
C428 C427 1.371 . S
C428 H437 0.931 . S
C429 C425 1.328 . S
C429 C430 1.433 . S
C429 H438 0.931 . S
C430 C426 1.323 . S
C430 C429 1.433 . S
C430 H439 0.933 . S
C431 Dy401 2.738 . S
C431 O411 1.255 . S
C431 O412 1.249 . S
C431 C425 1.516 . S
H432 C418 0.930 . S
H433 C419 0.931 . S
H434 C420 0.931 . S
H435 C421 0.933 . S
H436 C427 0.930 . S
H437 C428 0.931 . S
H438 C429 0.931 . S
H439 C430 0.933 . S
Dy440 O443 2.307 . S
Dy440 O445 2.395 . S
Dy440 O446 2.379 . S
Dy440 O448 2.339 . S
Dy440 O450 2.298 . S
Dy440 O454 2.275 . S
Dy440 C462 2.738 . S
Dy441 O444 2.298 . S
Dy441 O447 2.275 . S
Dy441 O449 2.307 . S
Dy441 O451 2.395 . S
Dy441 O452 2.379 . S
Dy441 O455 2.339 . S
Dy441 C471 2.738 . S
C442 O454 1.254 . S
C442 O455 1.257 . S
O443 Dy440 2.307 . S
O443 C453 1.266 . S
O444 Dy441 2.298 . S
O444 C453 1.236 . S
O445 Dy440 2.395 . S
O445 C462 1.255 . S
O446 Dy440 2.379 . S
O446 C462 1.249 . S
O447 Dy441 2.275 . S
O447 C463 1.254 . S
O448 Dy440 2.339 . S
O448 C463 1.257 . S
O449 Dy441 2.307 . S
O449 C464 1.266 . S
O450 Dy440 2.298 . S
O450 C464 1.236 . S
O451 Dy441 2.395 . S
O451 C471 1.255 . S
O452 Dy441 2.379 . S
O452 C471 1.249 . S
C453 O443 1.266 . S
C453 O444 1.236 . S
O454 Dy440 2.275 . S
O454 C442 1.254 . S
O455 Dy441 2.339 . S
O455 C442 1.257 . S
C456 C459 1.344 . S
C456 C460 1.328 . S
C456 C462 1.516 . S
C457 C458 1.304 . S
C457 C461 1.323 . S
C458 C457 1.304 . S
C458 C459 1.371 . S
C458 H472 0.930 . S
C459 C456 1.344 . S
C459 C458 1.371 . S
C459 H473 0.931 . S
C460 C456 1.328 . S
C460 C461 1.433 . S
C460 H474 0.931 . S
C461 C457 1.323 . S
C461 C460 1.433 . S
C461 H475 0.933 . S
C462 Dy440 2.738 . S
C462 O445 1.255 . S
C462 O446 1.249 . S
C462 C456 1.516 . S
C463 O447 1.254 . S
C463 O448 1.257 . S
C464 O449 1.266 . S
C464 O450 1.236 . S
C465 C468 1.344 . S
C465 C469 1.328 . S
C465 C471 1.516 . S
C466 C467 1.304 . S
C466 C470 1.323 . S
C467 C466 1.304 . S
C467 C468 1.371 . S
C467 H476 0.930 . S
C468 C465 1.344 . S
C468 C467 1.371 . S
C468 H477 0.931 . S
C469 C465 1.328 . S
C469 C470 1.433 . S
C469 H478 0.931 . S
C470 C466 1.323 . S
C470 C469 1.433 . S
C470 H479 0.933 . S
C471 Dy441 2.738 . S
C471 O451 1.255 . S
C471 O452 1.249 . S
C471 C465 1.516 . S
H472 C458 0.930 . S
H473 C459 0.931 . S
H474 C460 0.931 . S
H475 C461 0.933 . S
H476 C467 0.930 . S
H477 C468 0.931 . S
H478 C469 0.931 . S
H479 C470 0.933 . S
Dy480 O483 2.307 . S
Dy480 O485 2.409 . S
Dy480 O486 2.379 . S
Dy480 O488 2.339 . S
Dy480 O490 2.298 . S
Dy480 O494 2.275 . S
Dy480 C502 2.774 . S
Dy481 O484 2.298 . S
Dy481 O487 2.275 . S
Dy481 O489 2.307 . S
Dy481 O491 2.395 . S
Dy481 O492 2.379 . S
Dy481 O495 2.339 . S
Dy481 C511 2.738 . S
C482 O494 1.254 . S
C482 O495 1.257 . S
O483 Dy480 2.307 . S
O483 C493 1.266 . S
O484 Dy481 2.298 . S
O484 C493 1.236 . S
O485 Dy480 2.409 . S
O485 C502 1.254 . S
O486 Dy480 2.379 . S
O486 C502 1.287 . S
O487 Dy481 2.275 . S
O487 C503 1.254 . S
O488 Dy480 2.339 . S
O488 C503 1.257 . S
O489 Dy481 2.307 . S
O489 C504 1.266 . S
O490 Dy480 2.298 . S
O490 C504 1.236 . S
O491 Dy481 2.395 . S
O491 C511 1.255 . S
O492 Dy481 2.379 . S
O492 C511 1.249 . S
C493 O483 1.266 . S
C493 O484 1.236 . S
O494 Dy480 2.275 . S
O494 C482 1.254 . S
O495 Dy481 2.339 . S
O495 C482 1.257 . S
C496 C499 1.344 . S
C496 C500 1.328 . S
C496 C502 1.480 1_455 S
C497 C498 1.304 . S
C497 C501 1.323 . S
C498 C497 1.304 . S
C498 C499 1.371 . S
C498 H512 0.930 . S
C499 C496 1.344 . S
C499 C498 1.371 . S
C499 H513 0.931 . S
C500 C496 1.328 . S
C500 C501 1.433 . S
C500 H514 0.931 . S
C501 C497 1.323 . S
C501 C500 1.433 . S
C501 H515 0.933 . S
C502 Dy480 2.774 . S
C502 O485 1.254 . S
C502 O486 1.287 . S
C502 C496 1.480 1_655 S
C503 O487 1.254 . S
C503 O488 1.257 . S
C504 O489 1.266 . S
C504 O490 1.236 . S
C505 C508 1.344 . S
C505 C509 1.328 . S
C505 C511 1.516 . S
C506 C507 1.304 . S
C506 C510 1.323 . S
C507 C506 1.304 . S
C507 C508 1.371 . S
C507 H516 0.930 . S
C508 C505 1.344 . S
C508 C507 1.371 . S
C508 H517 0.931 . S
C509 C505 1.328 . S
C509 C510 1.433 . S
C509 H518 0.931 . S
C510 C506 1.323 . S
C510 C509 1.433 . S
C510 H519 0.933 . S
C511 Dy481 2.738 . S
C511 O491 1.255 . S
C511 O492 1.249 . S
C511 C505 1.516 . S
H512 C498 0.930 . S
H513 C499 0.931 . S
H514 C500 0.931 . S
H515 C501 0.933 . S
H516 C507 0.930 . S
H517 C508 0.931 . S
H518 C509 0.931 . S
H519 C510 0.933 . S
Dy520 O523 2.307 . S
Dy520 O525 2.395 . S
Dy520 O526 2.379 . S
Dy520 O528 2.339 . S
Dy520 O530 2.298 . S
Dy520 O534 2.275 . S
Dy520 C542 2.738 . S
Dy521 O524 2.298 . S
Dy521 O527 2.275 . S
Dy521 O529 2.307 . S
Dy521 O531 2.395 . S
Dy521 O532 2.379 . S
Dy521 O535 2.339 . S
Dy521 C551 2.738 . S
C522 O534 1.254 . S
C522 O535 1.257 . S
O523 Dy520 2.307 . S
O523 C533 1.266 . S
O524 Dy521 2.298 . S
O524 C533 1.236 . S
O525 Dy520 2.395 . S
O525 C542 1.255 . S
O526 Dy520 2.379 . S
O526 C542 1.249 . S
O527 Dy521 2.275 . S
O527 C543 1.254 . S
O528 Dy520 2.339 . S
O528 C543 1.257 . S
O529 Dy521 2.307 . S
O529 C544 1.266 . S
O530 Dy520 2.298 . S
O530 C544 1.236 . S
O531 Dy521 2.395 . S
O531 C551 1.255 . S
O532 Dy521 2.379 . S
O532 C551 1.249 . S
C533 O523 1.266 . S
C533 O524 1.236 . S
O534 Dy520 2.275 . S
O534 C522 1.254 . S
O535 Dy521 2.339 . S
O535 C522 1.257 . S
C536 C539 1.344 . S
C536 C540 1.328 . S
C536 C542 1.516 . S
C537 C538 1.304 . S
C537 C541 1.323 . S
C538 C537 1.304 . S
C538 C539 1.371 . S
C538 H552 0.930 . S
C539 C536 1.344 . S
C539 C538 1.371 . S
C539 H553 0.931 . S
C540 C536 1.328 . S
C540 C541 1.433 . S
C540 H554 0.931 . S
C541 C537 1.323 . S
C541 C540 1.433 . S
C541 H555 0.933 . S
C542 Dy520 2.738 . S
C542 O525 1.255 . S
C542 O526 1.249 . S
C542 C536 1.516 . S
C543 O527 1.254 . S
C543 O528 1.257 . S
C544 O529 1.266 . S
C544 O530 1.236 . S
C545 C548 1.344 . S
C545 C549 1.328 . S
C545 C551 1.516 . S
C546 C547 1.304 . S
C546 C550 1.323 . S
C547 C546 1.304 . S
C547 C548 1.371 . S
C547 H556 0.930 . S
C548 C545 1.344 . S
C548 C547 1.371 . S
C548 H557 0.931 . S
C549 C545 1.328 . S
C549 C550 1.433 . S
C549 H558 0.931 . S
C550 C546 1.323 . S
C550 C549 1.433 . S
C550 H559 0.933 . S
C551 Dy521 2.738 . S
C551 O531 1.255 . S
C551 O532 1.249 . S
C551 C545 1.516 . S
H552 C538 0.930 . S
H553 C539 0.931 . S
H554 C540 0.931 . S
H555 C541 0.933 . S
H556 C547 0.930 . S
H557 C548 0.931 . S
H558 C549 0.931 . S
H559 C550 0.933 . S
Dy560 O563 2.307 . S
Dy560 O565 2.395 . S
Dy560 O566 2.379 . S
Dy560 O568 2.339 . S
Dy560 O570 2.298 . S
Dy560 O574 2.275 . S
Dy560 C582 2.738 . S
Dy561 O564 2.298 . S
Dy561 O567 2.275 . S
Dy561 O569 2.307 . S
Dy561 O571 2.395 . S
Dy561 O572 2.379 . S
Dy561 O575 2.339 . S
Dy561 C591 2.738 . S
C562 O574 1.254 . S
C562 O575 1.257 . S
O563 Dy560 2.307 . S
O563 C573 1.266 . S
O564 Dy561 2.298 . S
O564 C573 1.236 . S
O565 Dy560 2.395 . S
O565 C582 1.255 . S
O566 Dy560 2.379 . S
O566 C582 1.249 . S
O567 Dy561 2.275 . S
O567 C583 1.254 . S
O568 Dy560 2.339 . S
O568 C583 1.257 . S
O569 Dy561 2.307 . S
O569 C584 1.266 . S
O570 Dy560 2.298 . S
O570 C584 1.236 . S
O571 Dy561 2.395 . S
O571 C591 1.255 . S
O572 Dy561 2.379 . S
O572 C591 1.249 . S
C573 O563 1.266 . S
C573 O564 1.236 . S
O574 Dy560 2.275 . S
O574 C562 1.254 . S
O575 Dy561 2.339 . S
O575 C562 1.257 . S
C576 C579 1.344 . S
C576 C580 1.328 . S
C576 C582 1.516 . S
C577 C578 1.304 . S
C577 C581 1.323 . S
C578 C577 1.304 . S
C578 C579 1.371 . S
C578 H592 0.930 . S
C579 C576 1.344 . S
C579 C578 1.371 . S
C579 H593 0.931 . S
C580 C576 1.328 . S
C580 C581 1.433 . S
C580 H594 0.931 . S
C581 C577 1.323 . S
C581 C580 1.433 . S
C581 H595 0.933 . S
C582 Dy560 2.738 . S
C582 O565 1.255 . S
C582 O566 1.249 . S
C582 C576 1.516 . S
C583 O567 1.254 . S
C583 O568 1.257 . S
C584 O569 1.266 . S
C584 O570 1.236 . S
C585 C588 1.344 . S
C585 C589 1.328 . S
C585 C591 1.516 . S
C586 C587 1.304 . S
C586 C590 1.323 . S
C587 C586 1.304 . S
C587 C588 1.371 . S
C587 H596 0.930 . S
C588 C585 1.344 . S
C588 C587 1.371 . S
C588 H597 0.931 . S
C589 C585 1.328 . S
C589 C590 1.433 . S
C589 H598 0.931 . S
C590 C586 1.323 . S
C590 C589 1.433 . S
C590 H599 0.933 . S
C591 Dy561 2.738 . S
C591 O571 1.255 . S
C591 O572 1.249 . S
C591 C585 1.516 . S
H592 C578 0.930 . S
H593 C579 0.931 . S
H594 C580 0.931 . S
H595 C581 0.933 . S
H596 C587 0.930 . S
H597 C588 0.931 . S
H598 C589 0.931 . S
H599 C590 0.933 . S
Dy600 O603 2.307 . S
Dy600 O605 2.424 . S
Dy600 O606 2.379 . S
Dy600 O608 2.339 . S
Dy600 O610 2.298 . S
Dy600 O614 2.275 . S
Dy600 C622 2.738 . S
Dy601 O604 2.298 . S
Dy601 O607 2.275 . S
Dy601 O609 2.307 . S
Dy601 O611 2.395 . S
Dy601 O612 2.379 . S
Dy601 O615 2.339 . S
Dy601 C631 2.738 . S
C602 O614 1.254 . S
C602 O615 1.257 . S
O603 Dy600 2.307 . S
O603 C613 1.266 . S
O604 Dy601 2.298 . S
O604 C613 1.236 . S
O605 Dy600 2.424 . S
O605 C622 1.260 . S
O606 Dy600 2.379 . S
O606 C622 1.249 . S
O607 Dy601 2.275 . S
O607 C623 1.254 . S
O608 Dy600 2.339 . S
O608 C623 1.257 . S
O609 Dy601 2.307 . S
O609 C624 1.266 . S
O610 Dy600 2.298 . S
O610 C624 1.236 . S
O611 Dy601 2.395 . S
O611 C631 1.255 . S
O612 Dy601 2.379 . S
O612 C631 1.249 . S
C613 O603 1.266 . S
C613 O604 1.236 . S
O614 Dy600 2.275 . S
O614 C602 1.254 . S
O615 Dy601 2.339 . S
O615 C602 1.257 . S
C616 C619 1.344 . S
C616 C620 1.328 . S
C616 C622 1.516 1_655 S
C617 C618 1.304 . S
C617 C621 1.323 . S
C618 C617 1.304 . S
C618 C619 1.371 . S
C618 H632 0.930 . S
C619 C616 1.344 . S
C619 C618 1.371 . S
C619 H633 0.931 . S
C620 C616 1.328 . S
C620 C621 1.433 . S
C620 H634 0.931 . S
C621 C617 1.323 . S
C621 C620 1.433 . S
C621 H635 0.933 . S
C622 Dy600 2.738 . S
C622 O605 1.260 . S
C622 O606 1.249 . S
C622 C616 1.516 1_455 S
C623 O607 1.254 . S
C623 O608 1.257 . S
C624 O609 1.266 . S
C624 O610 1.236 . S
C625 C628 1.344 . S
C625 C629 1.328 . S
C625 C631 1.516 . S
C626 C627 1.304 . S
C626 C630 1.323 . S
C627 C626 1.304 . S
C627 C628 1.371 . S
C627 H636 0.930 . S
C628 C625 1.344 . S
C628 C627 1.371 . S
C628 H637 0.931 . S
C629 C625 1.328 . S
C629 C630 1.433 . S
C629 H638 0.931 . S
C630 C626 1.323 . S
C630 C629 1.433 . S
C630 H639 0.933 . S
C631 Dy601 2.738 . S
C631 O611 1.255 . S
C631 O612 1.249 . S
C631 C625 1.516 . S
H632 C618 0.930 . S
H633 C619 0.931 . S
H634 C620 0.931 . S
H635 C621 0.933 . S
H636 C627 0.930 . S
H637 C628 0.931 . S
H638 C629 0.931 . S
H639 C630 0.933 . S
Dy640 O643 2.307 1_545 S
Dy640 O645 2.395 . S
Dy640 O646 2.379 . S
Dy640 O648 2.339 1_545 S
Dy640 O650 2.298 . S
Dy640 O654 2.275 . S
Dy640 C662 2.738 . S
Dy641 O644 2.298 . S
Dy641 O647 2.275 . S
Dy641 O649 2.307 1_565 S
Dy641 O651 2.395 . S
Dy641 O652 2.379 . S
Dy641 O655 2.339 1_565 S
Dy641 C671 2.738 . S
C642 O654 1.254 . S
C642 O655 1.257 . S
O643 Dy640 2.307 1_565 S
O643 C653 1.266 . S
O644 Dy641 2.298 . S
O644 C653 1.236 . S
O645 Dy640 2.395 . S
O645 C662 1.255 . S
O646 Dy640 2.379 . S
O646 C662 1.249 . S
O647 Dy641 2.275 . S
O647 C663 1.254 . S
O648 Dy640 2.339 1_565 S
O648 C663 1.257 . S
O649 Dy641 2.307 1_545 S
O649 C664 1.266 . S
O650 Dy640 2.298 . S
O650 C664 1.236 . S
O651 Dy641 2.395 . S
O651 C671 1.255 . S
O652 Dy641 2.379 . S
O652 C671 1.249 . S
C653 O643 1.266 . S
C653 O644 1.236 . S
O654 Dy640 2.275 . S
O654 C642 1.254 . S
O655 Dy641 2.339 1_545 S
O655 C642 1.257 . S
C656 C659 1.344 . S
C656 C660 1.328 . S
C656 C662 1.516 . S
C657 C658 1.304 . S
C657 C661 1.323 . S
C658 C657 1.304 . S
C658 C659 1.371 . S
C658 H672 0.930 . S
C659 C656 1.344 . S
C659 C658 1.371 . S
C659 H673 0.931 . S
C660 C656 1.328 . S
C660 C661 1.433 . S
C660 H674 0.931 . S
C661 C657 1.323 . S
C661 C660 1.433 . S
C661 H675 0.933 . S
C662 Dy640 2.738 . S
C662 O645 1.255 . S
C662 O646 1.249 . S
C662 C656 1.516 . S
C663 O647 1.254 . S
C663 O648 1.257 . S
C664 O649 1.266 . S
C664 O650 1.236 . S
C665 C668 1.344 . S
C665 C669 1.328 . S
C665 C671 1.516 . S
C666 C667 1.304 . S
C666 C670 1.323 . S
C667 C666 1.304 . S
C667 C668 1.371 . S
C667 H676 0.930 . S
C668 C665 1.344 . S
C668 C667 1.371 . S
C668 H677 0.931 . S
C669 C665 1.328 . S
C669 C670 1.433 . S
C669 H678 0.931 . S
C670 C666 1.323 . S
C670 C669 1.433 . S
C670 H679 0.933 . S
C671 Dy641 2.738 . S
C671 O651 1.255 . S
C671 O652 1.249 . S
C671 C665 1.516 . S
H672 C658 0.930 . S
H673 C659 0.931 . S
H674 C660 0.931 . S
H675 C661 0.933 . S
H676 C667 0.930 . S
H677 C668 0.931 . S
H678 C669 0.931 . S
H679 C670 0.933 . S
Dy680 O683 2.307 1_565 S
Dy680 O685 2.395 . S
Dy680 O686 2.379 . S
Dy680 O688 2.339 1_565 S
Dy680 O690 2.298 . S
Dy680 O694 2.275 . S
Dy680 C702 2.738 . S
Dy681 O684 2.298 . S
Dy681 O687 2.275 . S
Dy681 O689 2.307 1_545 S
Dy681 O691 2.395 . S
Dy681 O692 2.379 . S
Dy681 O695 2.339 1_545 S
Dy681 C711 2.738 . S
C682 O694 1.254 . S
C682 O695 1.257 . S
O683 Dy680 2.307 1_545 S
O683 C693 1.266 . S
O684 Dy681 2.298 . S
O684 C693 1.236 . S
O685 Dy680 2.395 . S
O685 C702 1.255 . S
O686 Dy680 2.379 . S
O686 C702 1.249 . S
O687 Dy681 2.275 . S
O687 C703 1.254 . S
O688 Dy680 2.339 1_545 S
O688 C703 1.257 . S
O689 Dy681 2.307 1_565 S
O689 C704 1.266 . S
O690 Dy680 2.298 . S
O690 C704 1.236 . S
O691 Dy681 2.395 . S
O691 C711 1.255 . S
O692 Dy681 2.379 . S
O692 C711 1.249 . S
C693 O683 1.266 . S
C693 O684 1.236 . S
O694 Dy680 2.275 . S
O694 C682 1.254 . S
O695 Dy681 2.339 1_565 S
O695 C682 1.257 . S
C696 C699 1.344 . S
C696 C700 1.328 . S
C696 C702 1.516 . S
C697 C698 1.304 . S
C697 C701 1.323 . S
C698 C697 1.304 . S
C698 C699 1.371 . S
C698 H712 0.930 . S
C699 C696 1.344 . S
C699 C698 1.371 . S
C699 H713 0.931 . S
C700 C696 1.328 . S
C700 C701 1.433 . S
C700 H714 0.931 . S
C701 C697 1.323 . S
C701 C700 1.433 . S
C701 H715 0.933 . S
C702 Dy680 2.738 . S
C702 O685 1.255 . S
C702 O686 1.249 . S
C702 C696 1.516 . S
C703 O687 1.254 . S
C703 O688 1.257 . S
C704 O689 1.266 . S
C704 O690 1.236 . S
C705 C708 1.344 . S
C705 C709 1.328 . S
C705 C711 1.516 . S
C706 C707 1.304 . S
C706 C710 1.323 . S
C707 C706 1.304 . S
C707 C708 1.371 . S
C707 H716 0.930 . S
C708 C705 1.344 . S
C708 C707 1.371 . S
C708 H717 0.931 . S
C709 C705 1.328 . S
C709 C710 1.433 . S
C709 H718 0.931 . S
C710 C706 1.323 . S
C710 C709 1.433 . S
C710 H719 0.933 . S
C711 Dy681 2.738 . S
C711 O691 1.255 . S
C711 O692 1.249 . S
C711 C705 1.516 . S
H712 C698 0.930 . S
H713 C699 0.931 . S
H714 C700 0.931 . S
H715 C701 0.933 . S
H716 C707 0.930 . S
H717 C708 0.931 . S
H718 C709 0.931 . S
H719 C710 0.933 . S
Dy720 O723 2.307 . S
Dy720 O725 2.395 . S
Dy720 O726 2.379 . S
Dy720 O728 2.339 . S
Dy720 O730 2.298 . S
Dy720 O734 2.275 . S
Dy720 C742 2.738 . S
Dy721 O724 2.298 . S
Dy721 O727 2.275 . S
Dy721 O729 2.307 . S
Dy721 O731 2.395 . S
Dy721 O732 2.379 . S
Dy721 O735 2.339 . S
Dy721 C751 2.738 . S
C722 O734 1.254 . S
C722 O735 1.257 . S
O723 Dy720 2.307 . S
O723 C733 1.266 . S
O724 Dy721 2.298 . S
O724 C733 1.236 . S
O725 Dy720 2.395 . S
O725 C742 1.255 . S
O726 Dy720 2.379 . S
O726 C742 1.249 . S
O727 Dy721 2.275 . S
O727 C743 1.254 . S
O728 Dy720 2.339 . S
O728 C743 1.257 . S
O729 Dy721 2.307 . S
O729 C744 1.266 . S
O730 Dy720 2.298 . S
O730 C744 1.236 . S
O731 Dy721 2.395 . S
O731 C751 1.255 . S
O732 Dy721 2.379 . S
O732 C751 1.249 . S
C733 O723 1.266 . S
C733 O724 1.236 . S
O734 Dy720 2.275 . S
O734 C722 1.254 . S
O735 Dy721 2.339 . S
O735 C722 1.257 . S
C736 C739 1.344 . S
C736 C740 1.328 . S
C736 C742 1.516 . S
C737 C738 1.304 . S
C737 C741 1.323 . S
C738 C737 1.304 . S
C738 C739 1.371 . S
C738 H752 0.930 . S
C739 C736 1.344 . S
C739 C738 1.371 . S
C739 H753 0.931 . S
C740 C736 1.328 . S
C740 C741 1.433 . S
C740 H754 0.931 . S
C741 C737 1.323 . S
C741 C740 1.433 . S
C741 H755 0.933 . S
C742 Dy720 2.738 . S
C742 O725 1.255 . S
C742 O726 1.249 . S
C742 C736 1.516 . S
C743 O727 1.254 . S
C743 O728 1.257 . S
C744 O729 1.266 . S
C744 O730 1.236 . S
C745 C748 1.344 . S
C745 C749 1.328 . S
C745 C751 1.516 . S
C746 C747 1.304 . S
C746 C750 1.323 . S
C747 C746 1.304 . S
C747 C748 1.371 . S
C747 H756 0.930 . S
C748 C745 1.344 . S
C748 C747 1.371 . S
C748 H757 0.931 . S
C749 C745 1.328 . S
C749 C750 1.433 . S
C749 H758 0.931 . S
C750 C746 1.323 . S
C750 C749 1.433 . S
C750 H759 0.933 . S
C751 Dy721 2.738 . S
C751 O731 1.255 . S
C751 O732 1.249 . S
C751 C745 1.516 . S
H752 C738 0.930 . S
H753 C739 0.931 . S
H754 C740 0.931 . S
H755 C741 0.933 . S
H756 C747 0.930 . S
H757 C748 0.931 . S
H758 C749 0.931 . S
H759 C750 0.933 . S
Dy760 O763 2.307 . S
Dy760 O765 2.395 . S
Dy760 O766 2.379 . S
Dy760 O768 2.339 . S
Dy760 O770 2.298 . S
Dy760 O774 2.275 . S
Dy760 C782 2.738 . S
Dy761 O764 2.298 . S
Dy761 O767 2.275 . S
Dy761 O769 2.307 . S
Dy761 O771 2.395 . S
Dy761 O772 2.379 . S
Dy761 O775 2.339 . S
Dy761 C791 2.738 . S
C762 O774 1.254 . S
C762 O775 1.257 . S
O763 Dy760 2.307 . S
O763 C773 1.266 . S
O764 Dy761 2.298 . S
O764 C773 1.236 . S
O765 Dy760 2.395 . S
O765 C782 1.255 . S
O766 Dy760 2.379 . S
O766 C782 1.249 . S
O767 Dy761 2.275 . S
O767 C783 1.254 . S
O768 Dy760 2.339 . S
O768 C783 1.257 . S
O769 Dy761 2.307 . S
O769 C784 1.266 . S
O770 Dy760 2.298 . S
O770 C784 1.236 . S
O771 Dy761 2.395 . S
O771 C791 1.255 . S
O772 Dy761 2.379 . S
O772 C791 1.249 . S
C773 O763 1.266 . S
C773 O764 1.236 . S
O774 Dy760 2.275 . S
O774 C762 1.254 . S
O775 Dy761 2.339 . S
O775 C762 1.257 . S
C776 C779 1.344 . S
C776 C780 1.328 . S
C776 C782 1.516 . S
C777 C778 1.304 . S
C777 C781 1.323 . S
C778 C777 1.304 . S
C778 C779 1.371 . S
C778 H792 0.930 . S
C779 C776 1.344 . S
C779 C778 1.371 . S
C779 H793 0.931 . S
C780 C776 1.328 . S
C780 C781 1.433 . S
C780 H794 0.931 . S
C781 C777 1.323 . S
C781 C780 1.433 . S
C781 H795 0.933 . S
C782 Dy760 2.738 . S
C782 O765 1.255 . S
C782 O766 1.249 . S
C782 C776 1.516 . S
C783 O767 1.254 . S
C783 O768 1.257 . S
C784 O769 1.266 . S
C784 O770 1.236 . S
C785 C788 1.344 . S
C785 C789 1.328 . S
C785 C791 1.516 . S
C786 C787 1.304 . S
C786 C790 1.323 . S
C787 C786 1.304 . S
C787 C788 1.371 . S
C787 H796 0.930 . S
C788 C785 1.344 . S
C788 C787 1.371 . S
C788 H797 0.931 . S
C789 C785 1.328 . S
C789 C790 1.433 . S
C789 H798 0.931 . S
C790 C786 1.323 . S
C790 C789 1.433 . S
C790 H799 0.933 . S
C791 Dy761 2.738 . S
C791 O771 1.255 . S
C791 O772 1.249 . S
C791 C785 1.516 . S
H792 C778 0.930 . S
H793 C779 0.931 . S
H794 C780 0.931 . S
H795 C781 0.933 . S
H796 C787 0.930 . S
H797 C788 0.931 . S
H798 C789 0.931 . S
H799 C790 0.933 . S
Dy800 O803 2.307 1_556 S
Dy800 O805 2.395 . S
Dy800 O806 2.379 . S
Dy800 O808 2.347 . S
Dy800 O810 2.298 . S
Dy800 O814 2.275 . S
Dy800 C822 2.738 . S
Dy801 O804 2.298 1_556 S
Dy801 O807 2.275 1_556 S
Dy801 O809 2.307 . S
Dy801 O811 2.395 1_556 S
Dy801 O812 2.379 1_556 S
Dy801 O815 2.339 . S
Dy801 C831 2.738 1_556 S
C802 O814 1.254 . S
C802 O815 1.257 . S
O803 Dy800 2.307 1_554 S
O803 C813 1.266 . S
O804 Dy801 2.298 1_554 S
O804 C813 1.236 . S
O805 Dy800 2.395 . S
O805 C822 1.255 . S
O806 Dy800 2.379 . S
O806 C822 1.249 . S
O807 Dy801 2.275 1_554 S
O807 C823 1.254 . S
O808 Dy800 2.347 . S
O808 C823 1.252 1_556 S
O809 Dy801 2.307 . S
O809 C824 1.266 . S
O810 Dy800 2.298 . S
O810 C824 1.236 . S
O811 Dy801 2.395 1_554 S
O811 C831 1.255 . S
O812 Dy801 2.379 1_554 S
O812 C831 1.249 . S
C813 O803 1.266 . S
C813 O804 1.236 . S
O814 Dy800 2.275 . S
O814 C802 1.254 . S
O815 Dy801 2.339 . S
O815 C802 1.257 . S
C816 C819 1.344 . S
C816 C820 1.328 . S
C816 C822 1.516 . S
C817 C818 1.304 . S
C817 C821 1.323 . S
C818 C817 1.304 . S
C818 C819 1.371 . S
C818 H832 0.930 . S
C819 C816 1.344 . S
C819 C818 1.371 . S
C819 H833 0.931 . S
C820 C816 1.328 . S
C820 C821 1.433 . S
C820 H834 0.931 . S
C821 C817 1.323 . S
C821 C820 1.433 . S
C821 H835 0.933 . S
C822 Dy800 2.738 . S
C822 O805 1.255 . S
C822 O806 1.249 . S
C822 C816 1.516 . S
C823 O807 1.254 . S
C823 O808 1.252 1_554 S
C824 O809 1.266 . S
C824 O810 1.236 . S
C825 C828 1.344 . S
C825 C829 1.328 . S
C825 C831 1.516 . S
C826 C827 1.304 . S
C826 C830 1.323 . S
C827 C826 1.304 . S
C827 C828 1.371 . S
C827 H836 0.930 . S
C828 C825 1.344 . S
C828 C827 1.371 . S
C828 H837 0.931 . S
C829 C825 1.328 . S
C829 C830 1.433 . S
C829 H838 0.931 . S
C830 C826 1.323 . S
C830 C829 1.433 . S
C830 H839 0.933 . S
C831 Dy801 2.738 1_554 S
C831 O811 1.255 . S
C831 O812 1.249 . S
C831 C825 1.516 . S
H832 C818 0.930 . S
H833 C819 0.931 . S
H834 C820 0.931 . S
H835 C821 0.933 . S
H836 C827 0.930 . S
H837 C828 0.931 . S
H838 C829 0.931 . S
H839 C830 0.933 . S
Dy840 O843 2.307 . S
Dy840 O845 2.395 . S
Dy840 O846 2.379 . S
Dy840 O848 2.339 . S
Dy840 O850 2.298 . S
Dy840 O854 2.275 . S
Dy840 C862 2.738 . S
Dy841 O844 2.298 . S
Dy841 O847 2.275 . S
Dy841 O849 2.307 . S
Dy841 O851 2.395 . S
Dy841 O852 2.379 . S
Dy841 O855 2.339 . S
Dy841 C871 2.738 . S
C842 O854 1.254 . S
C842 O855 1.257 . S
O843 Dy840 2.307 . S
O843 C853 1.266 . S
O844 Dy841 2.298 . S
O844 C853 1.236 . S
O845 Dy840 2.395 . S
O845 C862 1.255 . S
O846 Dy840 2.379 . S
O846 C862 1.249 . S
O847 Dy841 2.275 . S
O847 C863 1.254 . S
O848 Dy840 2.339 . S
O848 C863 1.257 . S
O849 Dy841 2.307 . S
O849 C864 1.266 . S
O850 Dy840 2.298 . S
O850 C864 1.236 . S
O851 Dy841 2.395 . S
O851 C871 1.255 . S
O852 Dy841 2.379 . S
O852 C871 1.249 . S
C853 O843 1.266 . S
C853 O844 1.236 . S
O854 Dy840 2.275 . S
O854 C842 1.254 . S
O855 Dy841 2.339 . S
O855 C842 1.257 . S
C856 C859 1.344 . S
C856 C860 1.328 . S
C856 C862 1.516 1_556 S
C857 C858 1.304 . S
C857 C861 1.323 . S
C858 C857 1.304 . S
C858 C859 1.371 . S
C858 H872 0.930 . S
C859 C856 1.344 . S
C859 C858 1.371 . S
C859 H873 0.931 . S
C860 C856 1.328 . S
C860 C861 1.433 . S
C860 H874 0.931 1_556 S
C861 C857 1.323 . S
C861 C860 1.433 . S
C861 H875 0.933 . S
C862 Dy840 2.738 . S
C862 O845 1.255 . S
C862 O846 1.249 . S
C862 C856 1.516 1_554 S
C863 O847 1.254 . S
C863 O848 1.257 . S
C864 O849 1.266 . S
C864 O850 1.236 . S
C865 C868 1.344 . S
C865 C869 1.328 . S
C865 C871 1.516 . S
C866 C867 1.304 . S
C866 C870 1.323 . S
C867 C866 1.304 . S
C867 C868 1.371 . S
C867 H876 0.930 . S
C868 C865 1.344 . S
C868 C867 1.371 . S
C868 H877 0.931 . S
C869 C865 1.328 . S
C869 C870 1.433 . S
C869 H878 0.931 . S
C870 C866 1.323 . S
C870 C869 1.433 . S
C870 H879 0.933 . S
C871 Dy841 2.738 . S
C871 O851 1.255 . S
C871 O852 1.249 . S
C871 C865 1.516 . S
H872 C858 0.930 . S
H873 C859 0.931 . S
H874 C860 0.931 1_554 S
H875 C861 0.933 . S
H876 C867 0.930 . S
H877 C868 0.931 . S
H878 C869 0.931 . S
H879 C870 0.933 . S
Dy880 O883 2.307 . S
Dy880 O885 2.395 . S
Dy880 O886 2.379 . S
Dy880 O888 2.339 . S
Dy880 O890 2.298 . S
Dy880 O894 2.275 . S
Dy880 C902 2.738 . S
Dy881 O884 2.298 . S
Dy881 O887 2.275 . S
Dy881 O889 2.307 . S
Dy881 O891 2.395 . S
Dy881 O892 2.379 . S
Dy881 O895 2.339 . S
Dy881 C911 2.738 . S
C882 O894 1.254 . S
C882 O895 1.257 . S
O883 Dy880 2.307 . S
O883 C893 1.266 . S
O884 Dy881 2.298 . S
O884 C893 1.236 . S
O885 Dy880 2.395 . S
O885 C902 1.255 . S
O886 Dy880 2.379 . S
O886 C902 1.249 . S
O887 Dy881 2.275 . S
O887 C903 1.254 . S
O888 Dy880 2.339 . S
O888 C903 1.257 . S
O889 Dy881 2.307 . S
O889 C904 1.266 . S
O890 Dy880 2.298 . S
O890 C904 1.236 . S
O891 Dy881 2.395 . S
O891 C911 1.255 . S
O892 Dy881 2.379 . S
O892 C911 1.249 . S
C893 O883 1.266 . S
C893 O884 1.236 . S
O894 Dy880 2.275 . S
O894 C882 1.254 . S
O895 Dy881 2.339 . S
O895 C882 1.257 . S
C896 C899 1.344 . S
C896 C900 1.328 . S
C896 C902 1.516 . S
C897 C898 1.304 . S
C897 C901 1.323 . S
C898 C897 1.304 . S
C898 C899 1.371 . S
C898 H912 0.930 . S
C899 C896 1.344 . S
C899 C898 1.371 . S
C899 H913 0.931 . S
C900 C896 1.328 . S
C900 C901 1.433 . S
C900 H914 0.931 . S
C901 C897 1.323 . S
C901 C900 1.433 . S
C901 H915 0.933 . S
C902 Dy880 2.738 . S
C902 O885 1.255 . S
C902 O886 1.249 . S
C902 C896 1.516 . S
C903 O887 1.254 . S
C903 O888 1.257 . S
C904 O889 1.266 . S
C904 O890 1.236 . S
C905 C908 1.344 . S
C905 C909 1.328 . S
C905 C911 1.516 . S
C906 C907 1.304 . S
C906 C910 1.323 . S
C907 C906 1.304 . S
C907 C908 1.371 . S
C907 H916 0.930 . S
C908 C905 1.344 . S
C908 C907 1.371 . S
C908 H917 0.931 . S
C909 C905 1.328 . S
C909 C910 1.433 . S
C909 H918 0.931 . S
C910 C906 1.323 . S
C910 C909 1.433 . S
C910 H919 0.933 . S
C911 Dy881 2.738 . S
C911 O891 1.255 . S
C911 O892 1.249 . S
C911 C905 1.516 . S
H912 C898 0.930 . S
H913 C899 0.931 . S
H914 C900 0.931 . S
H915 C901 0.933 . S
H916 C907 0.930 . S
H917 C908 0.931 . S
H918 C909 0.931 . S
H919 C910 0.933 . S
Dy920 O923 2.307 . S
Dy920 O925 2.395 . S
Dy920 O926 2.379 . S
Dy920 O928 2.339 . S
Dy920 O930 2.298 . S
Dy920 O934 2.275 . S
Dy920 C942 2.738 . S
Dy921 O924 2.298 . S
Dy921 O927 2.275 . S
Dy921 O929 2.307 . S
Dy921 O931 2.395 . S
Dy921 O932 2.379 . S
Dy921 O935 2.339 . S
Dy921 C951 2.738 . S
C922 O934 1.254 . S
C922 O935 1.257 . S
O923 Dy920 2.307 . S
O923 C933 1.266 . S
O924 Dy921 2.298 . S
O924 C933 1.236 . S
O925 Dy920 2.395 . S
O925 C942 1.255 . S
O926 Dy920 2.379 . S
O926 C942 1.249 . S
O927 Dy921 2.275 . S
O927 C943 1.254 . S
O928 Dy920 2.339 . S
O928 C943 1.257 . S
O929 Dy921 2.307 . S
O929 C944 1.266 . S
O930 Dy920 2.298 . S
O930 C944 1.236 . S
O931 Dy921 2.395 . S
O931 C951 1.255 . S
O932 Dy921 2.379 . S
O932 C951 1.249 . S
C933 O923 1.266 . S
C933 O924 1.236 . S
O934 Dy920 2.275 . S
O934 C922 1.254 . S
O935 Dy921 2.339 . S
O935 C922 1.257 . S
C936 C939 1.344 . S
C936 C940 1.328 . S
C936 C942 1.516 . S
C937 C938 1.304 . S
C937 C941 1.323 . S
C938 C937 1.304 . S
C938 C939 1.371 . S
C938 H952 0.930 . S
C939 C936 1.344 . S
C939 C938 1.371 . S
C939 H953 0.931 . S
C940 C936 1.328 . S
C940 C941 1.433 . S
C940 H954 0.931 . S
C941 C937 1.323 . S
C941 C940 1.433 . S
C941 H955 0.933 . S
C942 Dy920 2.738 . S
C942 O925 1.255 . S
C942 O926 1.249 . S
C942 C936 1.516 . S
C943 O927 1.254 . S
C943 O928 1.257 . S
C944 O929 1.266 . S
C944 O930 1.236 . S
C945 C948 1.344 . S
C945 C949 1.328 . S
C945 C951 1.516 . S
C946 C947 1.304 . S
C946 C950 1.323 . S
C947 C946 1.304 . S
C947 C948 1.371 . S
C947 H956 0.930 . S
C948 C945 1.344 . S
C948 C947 1.371 . S
C948 H957 0.931 . S
C949 C945 1.328 . S
C949 C950 1.433 . S
C949 H958 0.931 . S
C950 C946 1.323 . S
C950 C949 1.433 . S
C950 H959 0.933 . S
C951 Dy921 2.738 . S
C951 O931 1.255 . S
C951 O932 1.249 . S
C951 C945 1.516 . S
H952 C938 0.930 . S
H953 C939 0.931 . S
H954 C940 0.931 . S
H955 C941 0.933 . S
H956 C947 0.930 . S
H957 C948 0.931 . S
H958 C949 0.931 . S
H959 C950 0.933 . S
H960 C968 0.950 . S
H961 C973 0.950 . S
H962 C970 0.950 . S
H963 C972 0.950 . S
H964 C974 0.950 . S
H965 C976 0.950 . S
H966 C978 0.950 . S
H967 C979 0.950 . S
C968 H960 0.950 . S
C968 C969 1.386 . S
C968 C970 1.391 . S
C969 C968 1.386 . S
C969 C973 1.393 . S
C970 H962 0.950 . S
C970 C968 1.391 . S
C970 C971 1.400 . S
C971 C970 1.400 . S
C971 C972 1.398 . S
C971 C977 1.491 . S
C972 H963 0.950 . S
C972 C971 1.398 . S
C972 C973 1.391 . S
C973 H961 0.950 . S
C973 C969 1.393 . S
C973 C972 1.391 . S
C974 H964 0.950 . S
C974 C975 1.386 . S
C974 C976 1.391 . S
C975 C974 1.386 . S
C975 C979 1.393 . S
C976 H965 0.950 . S
C976 C974 1.391 . S
C976 C977 1.400 . S
C977 C971 1.491 . S
C977 C976 1.400 . S
C977 C978 1.398 . S
C978 H966 0.950 . S
C978 C977 1.398 . S
C978 C979 1.391 . S
C979 H967 0.950 . S
C979 C975 1.393 . S
C979 C978 1.391 . S
H980 C988 0.950 . S
H981 C993 0.950 . S
H982 C990 0.950 . S
H983 C992 0.950 . S
H984 C994 0.950 . S
H985 C996 0.950 . S
H986 C998 0.950 . S
H987 C999 0.950 . S
C988 H980 0.950 . S
C988 C989 1.386 . S
C988 C990 1.391 . S
C989 C988 1.386 . S
C989 C993 1.393 . S
C990 H982 0.950 . S
C990 C988 1.391 . S
C990 C991 1.400 . S
C991 C990 1.400 . S
C991 C992 1.398 . S
C991 C997 1.491 . S
C992 H983 0.950 . S
C992 C991 1.398 . S
C992 C993 1.391 . S
C993 H981 0.950 . S
C993 C989 1.393 . S
C993 C992 1.391 . S
C994 H984 0.950 . S
C994 C995 1.386 . S
C994 C996 1.391 . S
C995 C994 1.386 . S
C995 C999 1.393 . S
C996 H985 0.950 . S
C996 C994 1.391 . S
C996 C997 1.400 . S
C997 C991 1.491 . S
C997 C996 1.400 . S
C997 C998 1.398 . S
C998 H986 0.950 . S
C998 C997 1.398 . S
C998 C999 1.391 . S
C999 H987 0.950 . S
C999 C995 1.393 . S
C999 C998 1.391 . S
H1000 C1008 0.950 . S
H1001 C1013 0.950 . S
H1002 C1010 0.950 . S
H1003 C1012 0.950 . S
H1004 C1014 0.950 . S
H1005 C1016 0.950 . S
H1006 C1018 0.950 . S
H1007 C1019 0.950 . S
C1008 H1000 0.950 . S
C1008 C1009 1.386 . S
C1008 C1010 1.391 . S
C1009 C1008 1.386 . S
C1009 C1013 1.393 . S
C1010 H1002 0.950 . S
C1010 C1008 1.391 . S
C1010 C1011 1.400 . S
C1011 C1010 1.400 . S
C1011 C1012 1.398 . S
C1011 C1017 1.491 . S
C1012 H1003 0.950 . S
C1012 C1011 1.398 . S
C1012 C1013 1.391 . S
C1013 H1001 0.950 . S
C1013 C1009 1.393 . S
C1013 C1012 1.391 . S
C1014 H1004 0.950 . S
C1014 C1015 1.386 . S
C1014 C1016 1.391 . S
C1015 C1014 1.386 . S
C1015 C1019 1.393 . S
C1016 H1005 0.950 . S
C1016 C1014 1.391 . S
C1016 C1017 1.400 . S
C1017 C1011 1.491 . S
C1017 C1016 1.400 . S
C1017 C1018 1.398 . S
C1018 H1006 0.950 . S
C1018 C1017 1.398 . S
C1018 C1019 1.391 . S
C1019 H1007 0.950 . S
C1019 C1015 1.393 . S
C1019 C1018 1.391 . S
H1020 C1028 0.950 . S
H1021 C1033 0.950 . S
H1022 C1030 0.950 . S
H1023 C1032 0.950 . S
H1024 C1034 0.950 . S
H1025 C1036 0.950 . S
H1026 C1038 0.950 . S
H1027 C1039 0.950 . S
C1028 H1020 0.950 . S
C1028 C1029 1.386 . S
C1028 C1030 1.391 . S
C1029 C1028 1.386 . S
C1029 C1033 1.393 . S
C1030 H1022 0.950 . S
C1030 C1028 1.391 . S
C1030 C1031 1.400 . S
C1031 C1030 1.400 . S
C1031 C1032 1.398 . S
C1031 C1037 1.491 . S
C1032 H1023 0.950 . S
C1032 C1031 1.398 . S
C1032 C1033 1.391 . S
C1033 H1021 0.950 . S
C1033 C1029 1.393 . S
C1033 C1032 1.391 . S
C1034 H1024 0.950 . S
C1034 C1035 1.386 . S
C1034 C1036 1.391 . S
C1035 C1034 1.386 . S
C1035 C1039 1.393 . S
C1036 H1025 0.950 . S
C1036 C1034 1.391 . S
C1036 C1037 1.400 . S
C1037 C1031 1.491 . S
C1037 C1036 1.400 . S
C1037 C1038 1.398 . S
C1038 H1026 0.950 . S
C1038 C1037 1.398 . S
C1038 C1039 1.391 . S
C1039 H1027 0.950 . S
C1039 C1035 1.393 . S
C1039 C1038 1.391 . S
H1040 C1048 0.950 . S
H1041 C1053 0.950 . S
H1042 C1050 0.950 . S
H1043 C1052 0.950 . S
H1044 C1054 0.950 . S
H1045 C1056 0.950 . S
H1046 C1058 0.950 . S
H1047 C1059 0.950 . S
C1048 H1040 0.950 . S
C1048 C1049 1.386 . S
C1048 C1050 1.391 . S
C1049 C1048 1.386 . S
C1049 C1053 1.393 . S
C1050 H1042 0.950 . S
C1050 C1048 1.391 . S
C1050 C1051 1.400 . S
C1051 C1050 1.400 . S
C1051 C1052 1.398 . S
C1051 C1057 1.491 . S
C1052 H1043 0.950 . S
C1052 C1051 1.398 . S
C1052 C1053 1.391 . S
C1053 H1041 0.950 . S
C1053 C1049 1.393 . S
C1053 C1052 1.391 . S
C1054 H1044 0.950 . S
C1054 C1055 1.386 . S
C1054 C1056 1.391 . S
C1055 C1054 1.386 . S
C1055 C1059 1.393 . S
C1056 H1045 0.950 . S
C1056 C1054 1.391 . S
C1056 C1057 1.400 . S
C1057 C1051 1.491 . S
C1057 C1056 1.400 . S
C1057 C1058 1.398 . S
C1058 H1046 0.950 . S
C1058 C1057 1.398 . S
C1058 C1059 1.391 . S
C1059 H1047 0.950 . S
C1059 C1055 1.393 . S
C1059 C1058 1.391 . S
H1060 C1068 0.950 . S
H1061 C1073 0.950 . S
H1062 C1070 0.950 . S
H1063 C1072 0.950 . S
H1064 C1074 0.950 . S
H1065 C1076 0.950 . S
H1066 C1078 0.950 . S
H1067 C1079 0.934 1_554 S
C1068 H1060 0.950 . S
C1068 C1069 1.386 . S
C1068 C1070 1.391 . S
C1069 C1068 1.386 . S
C1069 C1073 1.393 . S
C1070 H1062 0.950 . S
C1070 C1068 1.391 . S
C1070 C1071 1.400 . S
C1071 C1070 1.400 . S
C1071 C1072 1.398 . S
C1071 C1077 1.491 . S
C1072 H1063 0.950 . S
C1072 C1071 1.398 . S
C1072 C1073 1.391 . S
C1073 H1061 0.950 . S
C1073 C1069 1.393 . S
C1073 C1072 1.391 . S
C1074 H1064 0.950 . S
C1074 C1075 1.386 . S
C1074 C1076 1.391 . S
C1075 C1074 1.386 . S
C1075 C1079 1.393 . S
C1076 H1065 0.950 . S
C1076 C1074 1.391 . S
C1076 C1077 1.400 . S
C1077 C1071 1.491 . S
C1077 C1076 1.400 . S
C1077 C1078 1.398 . S
C1078 H1066 0.950 . S
C1078 C1077 1.398 . S
C1078 C1079 1.391 . S
C1079 H1067 0.934 1_556 S
C1079 C1075 1.393 . S
C1079 C1078 1.391 . S
H1080 C1088 0.950 . S
H1081 C1093 0.950 . S
H1082 C1090 0.950 . S
H1083 C1092 0.950 . S
H1084 C1094 0.950 . S
H1085 C1096 0.950 . S
H1086 C1098 0.950 . S
H1087 C1099 0.950 . S
C1088 H1080 0.950 . S
C1088 C1089 1.386 . S
C1088 C1090 1.391 . S
C1089 C1088 1.386 . S
C1089 C1093 1.393 . S
C1090 H1082 0.950 . S
C1090 C1088 1.391 . S
C1090 C1091 1.400 . S
C1091 C1090 1.400 . S
C1091 C1092 1.398 . S
C1091 C1097 1.491 . S
C1092 H1083 0.950 . S
C1092 C1091 1.398 . S
C1092 C1093 1.391 . S
C1093 H1081 0.950 . S
C1093 C1089 1.393 . S
C1093 C1092 1.391 . S
C1094 H1084 0.950 . S
C1094 C1095 1.386 . S
C1094 C1096 1.391 . S
C1095 C1094 1.386 . S
C1095 C1099 1.393 . S
C1096 H1085 0.950 . S
C1096 C1094 1.391 . S
C1096 C1097 1.400 . S
C1097 C1091 1.491 . S
C1097 C1096 1.400 . S
C1097 C1098 1.398 . S
C1098 H1086 0.950 . S
C1098 C1097 1.398 . S
C1098 C1099 1.391 . S
C1099 H1087 0.950 . S
C1099 C1095 1.393 . S
C1099 C1098 1.391 . S
H1100 C1108 0.950 . S
H1101 C1113 0.950 . S
H1102 C1110 0.950 . S
H1103 C1112 0.950 . S
H1104 C1114 0.950 . S
H1105 C1116 0.950 . S
H1106 C1118 0.950 . S
H1107 C1119 0.950 . S
C1108 H1100 0.950 . S
C1108 C1109 1.386 . S
C1108 C1110 1.391 . S
C1109 C1108 1.386 . S
C1109 C1113 1.393 . S
C1110 H1102 0.950 . S
C1110 C1108 1.391 . S
C1110 C1111 1.400 . S
C1111 C1110 1.400 . S
C1111 C1112 1.398 . S
C1111 C1117 1.491 . S
C1112 H1103 0.950 . S
C1112 C1111 1.398 . S
C1112 C1113 1.391 . S
C1113 H1101 0.950 . S
C1113 C1109 1.393 . S
C1113 C1112 1.391 . S
C1114 H1104 0.950 . S
C1114 C1115 1.386 . S
C1114 C1116 1.391 . S
C1115 C1114 1.386 . S
C1115 C1119 1.393 . S
C1116 H1105 0.950 . S
C1116 C1114 1.391 . S
C1116 C1117 1.400 . S
C1117 C1111 1.491 . S
C1117 C1116 1.400 . S
C1117 C1118 1.398 . S
C1118 H1106 0.950 . S
C1118 C1117 1.398 . S
C1118 C1119 1.391 . S
C1119 H1107 0.950 . S
C1119 C1115 1.393 . S
C1119 C1118 1.391 . S
H1120 C1128 0.950 . S
H1121 C1133 0.950 . S
H1122 C1130 0.950 . S
H1123 C1132 0.950 . S
H1124 C1134 0.950 . S
H1125 C1136 0.950 . S
H1126 C1138 0.950 . S
H1127 C1139 0.950 . S
C1128 H1120 0.950 . S
C1128 C1129 1.386 . S
C1128 C1130 1.391 . S
C1129 C1128 1.386 . S
C1129 C1133 1.393 . S
C1130 H1122 0.950 . S
C1130 C1128 1.391 . S
C1130 C1131 1.400 . S
C1131 C1130 1.400 . S
C1131 C1132 1.398 . S
C1131 C1137 1.491 . S
C1132 H1123 0.950 . S
C1132 C1131 1.398 . S
C1132 C1133 1.391 . S
C1133 H1121 0.950 . S
C1133 C1129 1.393 . S
C1133 C1132 1.391 . S
C1134 H1124 0.950 . S
C1134 C1135 1.386 . S
C1134 C1136 1.391 . S
C1135 C1134 1.386 . S
C1135 C1139 1.393 . S
C1136 H1125 0.950 . S
C1136 C1134 1.391 . S
C1136 C1137 1.400 . S
C1137 C1131 1.491 . S
C1137 C1136 1.400 . S
C1137 C1138 1.398 . S
C1138 H1126 0.950 . S
C1138 C1137 1.398 . S
C1138 C1139 1.391 . S
C1139 H1127 0.950 . S
C1139 C1135 1.393 . S
C1139 C1138 1.391 . S
H1140 C1148 0.950 . S
H1141 C1153 0.950 . S
H1142 C1150 0.950 . S
H1143 C1152 0.950 . S
H1144 C1154 0.950 . S
H1145 C1156 0.950 . S
H1146 C1158 0.950 . S
H1147 C1159 0.950 . S
C1148 H1140 0.950 . S
C1148 C1149 1.386 . S
C1148 C1150 1.391 . S
C1149 C1148 1.386 . S
C1149 C1153 1.393 . S
C1150 H1142 0.950 . S
C1150 C1148 1.391 . S
C1150 C1151 1.400 . S
C1151 C1150 1.400 . S
C1151 C1152 1.398 . S
C1151 C1157 1.491 . S
C1152 H1143 0.950 . S
C1152 C1151 1.398 . S
C1152 C1153 1.391 . S
C1153 H1141 0.950 . S
C1153 C1149 1.393 . S
C1153 C1152 1.391 . S
C1154 H1144 0.950 . S
C1154 C1155 1.386 . S
C1154 C1156 1.391 . S
C1155 C1154 1.386 . S
C1155 C1159 1.393 . S
C1156 H1145 0.950 . S
C1156 C1154 1.391 . S
C1156 C1157 1.400 . S
C1157 C1151 1.491 . S
C1157 C1156 1.400 . S
C1157 C1158 1.398 . S
C1158 H1146 0.950 . S
C1158 C1157 1.398 . S
C1158 C1159 1.391 . S
C1159 H1147 0.950 . S
C1159 C1155 1.393 . S
C1159 C1158 1.391 . S
H1160 C1168 0.950 . S
H1161 C1173 0.950 . S
H1162 C1170 0.950 . S
H1163 C1172 0.950 . S
H1164 C1174 0.950 . S
H1165 C1176 0.950 . S
H1166 C1178 0.950 . S
H1167 C1179 0.950 . S
C1168 H1160 0.950 . S
C1168 C1169 1.386 . S
C1168 C1170 1.391 . S
C1169 C1168 1.386 . S
C1169 C1173 1.393 . S
C1170 H1162 0.950 . S
C1170 C1168 1.391 . S
C1170 C1171 1.400 . S
C1171 C1170 1.400 . S
C1171 C1172 1.398 . S
C1171 C1177 1.491 . S
C1172 H1163 0.950 . S
C1172 C1171 1.398 . S
C1172 C1173 1.391 . S
C1173 H1161 0.950 . S
C1173 C1169 1.393 . S
C1173 C1172 1.391 . S
C1174 H1164 0.950 . S
C1174 C1175 1.386 . S
C1174 C1176 1.391 . S
C1175 C1174 1.386 . S
C1175 C1179 1.393 . S
C1176 H1165 0.950 . S
C1176 C1174 1.391 . S
C1176 C1177 1.400 . S
C1177 C1171 1.491 . S
C1177 C1176 1.400 . S
C1177 C1178 1.398 . S
C1178 H1166 0.950 . S
C1178 C1177 1.398 . S
C1178 C1179 1.391 . S
C1179 H1167 0.950 . S
C1179 C1175 1.393 . S
C1179 C1178 1.391 . S
H1180 C1188 0.950 . S
H1181 C1193 0.950 . S
H1182 C1190 0.950 . S
H1183 C1192 0.950 . S
H1184 C1194 0.950 1_655 S
H1185 C1196 0.950 . S
H1186 C1198 0.950 . S
H1187 C1199 0.950 . S
C1188 H1180 0.950 . S
C1188 C1189 1.386 . S
C1188 C1190 1.391 . S
C1189 C1188 1.386 . S
C1189 C1193 1.393 . S
C1190 H1182 0.950 . S
C1190 C1188 1.391 . S
C1190 C1191 1.400 . S
C1191 C1190 1.400 . S
C1191 C1192 1.398 . S
C1191 C1197 1.491 . S
C1192 H1183 0.950 . S
C1192 C1191 1.398 . S
C1192 C1193 1.391 . S
C1193 H1181 0.950 . S
C1193 C1189 1.393 . S
C1193 C1192 1.391 . S
C1194 H1184 0.950 1_455 S
C1194 C1195 1.386 . S
C1194 C1196 1.391 . S
C1195 C1194 1.386 . S
C1195 C1199 1.393 . S
C1196 H1185 0.950 . S
C1196 C1194 1.391 . S
C1196 C1197 1.400 . S
C1197 C1191 1.491 . S
C1197 C1196 1.400 . S
C1197 C1198 1.398 . S
C1198 H1186 0.950 . S
C1198 C1197 1.398 . S
C1198 C1199 1.391 . S
C1199 H1187 0.950 . S
C1199 C1195 1.393 . S
C1199 C1198 1.391 . S
H1200 C1208 0.950 . S
H1201 C1213 0.950 . S
H1202 C1210 0.950 . S
H1203 C1212 0.950 . S
H1204 C1214 0.950 . S
H1205 C1216 0.950 . S
H1206 C1218 0.950 . S
H1207 C1219 0.950 . S
C1208 H1200 0.950 . S
C1208 C1209 1.386 . S
C1208 C1210 1.391 . S
C1209 C1208 1.386 . S
C1209 C1213 1.393 . S
C1210 H1202 0.950 . S
C1210 C1208 1.391 . S
C1210 C1211 1.400 . S
C1211 C1210 1.400 . S
C1211 C1212 1.398 . S
C1211 C1217 1.491 . S
C1212 H1203 0.950 . S
C1212 C1211 1.398 . S
C1212 C1213 1.391 . S
C1213 H1201 0.950 . S
C1213 C1209 1.393 . S
C1213 C1212 1.391 . S
C1214 H1204 0.950 . S
C1214 C1215 1.386 . S
C1214 C1216 1.391 . S
C1215 C1214 1.386 . S
C1215 C1219 1.393 . S
C1216 H1205 0.950 . S
C1216 C1214 1.391 . S
C1216 C1217 1.400 . S
C1217 C1211 1.491 . S
C1217 C1216 1.400 . S
C1217 C1218 1.398 . S
C1218 H1206 0.950 . S
C1218 C1217 1.398 . S
C1218 C1219 1.391 . S
C1219 H1207 0.950 . S
C1219 C1215 1.393 . S
C1219 C1218 1.391 . S
H1220 C1228 0.950 . S
H1221 C1233 0.950 . S
H1222 C1230 0.950 . S
H1223 C1232 0.950 . S
H1224 C1234 0.950 . S
H1225 C1236 0.950 . S
H1226 C1238 0.950 . S
H1227 C1239 0.950 . S
C1228 H1220 0.950 . S
C1228 C1229 1.386 . S
C1228 C1230 1.391 . S
C1229 C1228 1.386 . S
C1229 C1233 1.393 . S
C1230 H1222 0.950 . S
C1230 C1228 1.391 . S
C1230 C1231 1.400 . S
C1231 C1230 1.400 . S
C1231 C1232 1.398 . S
C1231 C1237 1.491 . S
C1232 H1223 0.950 . S
C1232 C1231 1.398 . S
C1232 C1233 1.391 . S
C1233 H1221 0.950 . S
C1233 C1229 1.393 . S
C1233 C1232 1.391 . S
C1234 H1224 0.950 . S
C1234 C1235 1.386 . S
C1234 C1236 1.391 . S
C1235 C1234 1.386 . S
C1235 C1239 1.393 . S
C1236 H1225 0.950 . S
C1236 C1234 1.391 . S
C1236 C1237 1.400 . S
C1237 C1231 1.491 . S
C1237 C1236 1.400 . S
C1237 C1238 1.398 . S
C1238 H1226 0.950 . S
C1238 C1237 1.398 . S
C1238 C1239 1.391 . S
C1239 H1227 0.950 . S
C1239 C1235 1.393 . S
C1239 C1238 1.391 . S
H1240 C1248 0.950 . S
H1241 C1253 0.950 . S
H1242 C1250 0.950 . S
H1243 C1252 0.950 . S
H1244 C1254 0.950 . S
H1245 C1256 0.950 . S
H1246 C1258 0.950 . S
H1247 C1259 0.950 . S
C1248 H1240 0.950 . S
C1248 C1249 1.386 . S
C1248 C1250 1.391 . S
C1249 C1248 1.386 . S
C1249 C1253 1.393 . S
C1250 H1242 0.950 . S
C1250 C1248 1.391 . S
C1250 C1251 1.400 . S
C1251 C1250 1.400 . S
C1251 C1252 1.398 . S
C1251 C1257 1.491 . S
C1252 H1243 0.950 . S
C1252 C1251 1.398 . S
C1252 C1253 1.391 . S
C1253 H1241 0.950 . S
C1253 C1249 1.393 . S
C1253 C1252 1.391 . S
C1254 H1244 0.950 . S
C1254 C1255 1.386 . S
C1254 C1256 1.391 . S
C1255 C1254 1.386 . S
C1255 C1259 1.393 . S
C1256 H1245 0.950 . S
C1256 C1254 1.391 . S
C1256 C1257 1.400 . S
C1257 C1251 1.491 . S
C1257 C1256 1.400 . S
C1257 C1258 1.398 . S
C1258 H1246 0.950 . S
C1258 C1257 1.398 . S
C1258 C1259 1.391 . S
C1259 H1247 0.950 . S
C1259 C1255 1.393 . S
C1259 C1258 1.391 . S
H1260 C1268 0.950 . S
H1261 C1273 0.950 . S
H1262 C1270 0.950 . S
H1263 C1272 0.950 . S
H1264 C1274 0.950 . S
H1265 C1276 0.950 . S
H1266 C1278 0.950 . S
H1267 C1279 0.950 . S
C1268 H1260 0.950 . S
C1268 C1269 1.386 . S
C1268 C1270 1.391 . S
C1269 C1268 1.386 . S
C1269 C1273 1.393 . S
C1270 H1262 0.950 . S
C1270 C1268 1.391 . S
C1270 C1271 1.400 . S
C1271 C1270 1.400 . S
C1271 C1272 1.398 . S
C1271 C1277 1.491 . S
C1272 H1263 0.950 . S
C1272 C1271 1.398 . S
C1272 C1273 1.391 . S
C1273 H1261 0.950 . S
C1273 C1269 1.393 . S
C1273 C1272 1.391 . S
C1274 H1264 0.950 . S
C1274 C1275 1.386 . S
C1274 C1276 1.391 . S
C1275 C1274 1.386 . S
C1275 C1279 1.393 . S
C1276 H1265 0.950 . S
C1276 C1274 1.391 . S
C1276 C1277 1.400 . S
C1277 C1271 1.491 . S
C1277 C1276 1.400 . S
C1277 C1278 1.398 . S
C1278 H1266 0.950 . S
C1278 C1277 1.398 . S
C1278 C1279 1.391 . S
C1279 H1267 0.950 . S
C1279 C1275 1.393 . S
C1279 C1278 1.391 . S
H1280 C1288 0.950 . S
H1281 C1293 0.950 . S
H1282 C1290 0.950 . S
H1283 C1292 0.950 . S
H1284 C1294 0.950 . S
H1285 C1296 0.950 . S
H1286 C1298 0.950 . S
H1287 C1299 0.950 . S
C1288 H1280 0.950 . S
C1288 C1289 1.386 . S
C1288 C1290 1.391 . S
C1289 C1288 1.386 . S
C1289 C1293 1.393 . S
C1290 H1282 0.950 . S
C1290 C1288 1.391 . S
C1290 C1291 1.400 . S
C1291 C1290 1.400 . S
C1291 C1292 1.398 . S
C1291 C1297 1.491 . S
C1292 H1283 0.950 . S
C1292 C1291 1.398 . S
C1292 C1293 1.391 . S
C1293 H1281 0.950 . S
C1293 C1289 1.393 . S
C1293 C1292 1.391 . S
C1294 H1284 0.950 . S
C1294 C1295 1.386 . S
C1294 C1296 1.391 . S
C1295 C1294 1.386 . S
C1295 C1299 1.393 . S
C1296 H1285 0.950 . S
C1296 C1294 1.391 . S
C1296 C1297 1.400 . S
C1297 C1291 1.491 . S
C1297 C1296 1.400 . S
C1297 C1298 1.398 . S
C1298 H1286 0.950 . S
C1298 C1297 1.398 . S
C1298 C1299 1.391 . S
C1299 H1287 0.950 . S
C1299 C1295 1.393 . S
C1299 C1298 1.391 . S
H1300 C1308 0.950 . S
H1301 C1313 0.950 . S
H1302 C1310 0.950 . S
H1303 C1312 0.950 . S
H1304 C1314 0.950 . S
H1305 C1316 0.950 . S
H1306 C1318 0.950 . S
H1307 C1319 0.950 . S
C1308 H1300 0.950 . S
C1308 C1309 1.386 . S
C1308 C1310 1.391 . S
C1309 C1308 1.386 . S
C1309 C1313 1.393 . S
C1310 H1302 0.950 . S
C1310 C1308 1.391 . S
C1310 C1311 1.400 . S
C1311 C1310 1.400 . S
C1311 C1312 1.398 . S
C1311 C1317 1.491 . S
C1312 H1303 0.950 . S
C1312 C1311 1.398 . S
C1312 C1313 1.391 . S
C1313 H1301 0.950 . S
C1313 C1309 1.393 . S
C1313 C1312 1.391 . S
C1314 H1304 0.950 . S
C1314 C1315 1.386 . S
C1314 C1316 1.391 . S
C1315 C1314 1.386 . S
C1315 C1319 1.393 . S
C1316 H1305 0.950 . S
C1316 C1314 1.391 . S
C1316 C1317 1.400 . S
C1317 C1311 1.491 . S
C1317 C1316 1.400 . S
C1317 C1318 1.398 . S
C1318 H1306 0.950 . S
C1318 C1317 1.398 . S
C1318 C1319 1.391 . S
C1319 H1307 0.950 . S
C1319 C1315 1.393 . S
C1319 C1318 1.391 . S
H1320 C1328 0.950 . S
H1321 C1333 0.950 . S
H1322 C1330 0.950 . S
H1323 C1332 0.950 . S
H1324 C1334 0.950 . S
H1325 C1336 0.950 . S
H1326 C1338 0.950 . S
H1327 C1339 0.950 . S
C1328 H1320 0.950 . S
C1328 C1329 1.386 . S
C1328 C1330 1.391 . S
C1329 C1328 1.386 . S
C1329 C1333 1.393 . S
C1330 H1322 0.950 . S
C1330 C1328 1.391 . S
C1330 C1331 1.400 . S
C1331 C1330 1.400 . S
C1331 C1332 1.398 . S
C1331 C1337 1.491 . S
C1332 H1323 0.950 . S
C1332 C1331 1.398 . S
C1332 C1333 1.391 . S
C1333 H1321 0.950 . S
C1333 C1329 1.393 . S
C1333 C1332 1.391 . S
C1334 H1324 0.950 . S
C1334 C1335 1.386 . S
C1334 C1336 1.391 . S
C1335 C1334 1.386 . S
C1335 C1339 1.393 . S
C1336 H1325 0.950 . S
C1336 C1334 1.391 . S
C1336 C1337 1.400 . S
C1337 C1331 1.491 . S
C1337 C1336 1.400 . S
C1337 C1338 1.398 . S
C1338 H1326 0.950 . S
C1338 C1337 1.398 . S
C1338 C1339 1.391 . S
C1339 H1327 0.950 . S
C1339 C1335 1.393 . S
C1339 C1338 1.391 . S
H1340 C1348 0.950 . S
H1341 C1353 0.950 . S
H1342 C1350 0.950 . S
H1343 C1352 0.950 . S
H1344 C1354 0.950 . S
H1345 C1356 0.950 . S
H1346 C1358 0.950 . S
H1347 C1359 0.950 . S
C1348 H1340 0.950 . S
C1348 C1349 1.386 . S
C1348 C1350 1.391 . S
C1349 C1348 1.386 . S
C1349 C1353 1.393 . S
C1350 H1342 0.950 . S
C1350 C1348 1.391 . S
C1350 C1351 1.400 . S
C1351 C1350 1.400 . S
C1351 C1352 1.398 . S
C1351 C1357 1.491 . S
C1352 H1343 0.950 . S
C1352 C1351 1.398 . S
C1352 C1353 1.391 . S
C1353 H1341 0.950 . S
C1353 C1349 1.393 . S
C1353 C1352 1.391 . S
C1354 H1344 0.950 . S
C1354 C1355 1.386 . S
C1354 C1356 1.391 . S
C1355 C1354 1.386 . S
C1355 C1359 1.393 . S
C1356 H1345 0.950 . S
C1356 C1354 1.391 . S
C1356 C1357 1.400 . S
C1357 C1351 1.491 . S
C1357 C1356 1.400 . S
C1357 C1358 1.398 . S
C1358 H1346 0.950 . S
C1358 C1357 1.398 . S
C1358 C1359 1.391 . S
C1359 H1347 0.950 . S
C1359 C1355 1.393 . S
C1359 C1358 1.391 . S
H1360 C1368 0.950 . S
H1361 C1373 0.950 . S
H1362 C1370 0.950 . S
H1363 C1372 0.950 . S
H1364 C1374 0.950 . S
H1365 C1376 0.950 . S
H1366 C1378 0.950 . S
H1367 C1379 0.950 . S
C1368 H1360 0.950 . S
C1368 C1369 1.386 . S
C1368 C1370 1.391 . S
C1369 C1368 1.386 . S
C1369 C1373 1.393 . S
C1370 H1362 0.950 . S
C1370 C1368 1.391 . S
C1370 C1371 1.400 . S
C1371 C1370 1.400 . S
C1371 C1372 1.398 . S
C1371 C1377 1.491 . S
C1372 H1363 0.950 . S
C1372 C1371 1.398 . S
C1372 C1373 1.391 . S
C1373 H1361 0.950 . S
C1373 C1369 1.393 . S
C1373 C1372 1.391 . S
C1374 H1364 0.950 . S
C1374 C1375 1.386 . S
C1374 C1376 1.391 . S
C1375 C1374 1.386 . S
C1375 C1379 1.393 . S
C1376 H1365 0.950 . S
C1376 C1374 1.391 . S
C1376 C1377 1.400 . S
C1377 C1371 1.491 . S
C1377 C1376 1.400 . S
C1377 C1378 1.398 . S
C1378 H1366 0.950 . S
C1378 C1377 1.398 . S
C1378 C1379 1.391 . S
C1379 H1367 0.950 . S
C1379 C1375 1.393 . S
C1379 C1378 1.391 . S
H1380 C1388 0.950 . S
H1381 C1393 0.950 . S
H1382 C1390 0.950 . S
H1383 C1392 0.950 . S
H1384 C1394 0.950 . S
H1385 C1396 0.950 . S
H1386 C1398 0.950 . S
H1387 C1399 0.950 . S
C1388 H1380 0.950 . S
C1388 C1389 1.386 . S
C1388 C1390 1.391 . S
C1389 C1388 1.386 . S
C1389 C1393 1.393 . S
C1390 H1382 0.950 . S
C1390 C1388 1.391 . S
C1390 C1391 1.400 . S
C1391 C1390 1.400 . S
C1391 C1392 1.398 . S
C1391 C1397 1.491 . S
C1392 H1383 0.950 . S
C1392 C1391 1.398 . S
C1392 C1393 1.391 . S
C1393 H1381 0.950 . S
C1393 C1389 1.393 . S
C1393 C1392 1.391 . S
C1394 H1384 0.950 . S
C1394 C1395 1.386 . S
C1394 C1396 1.391 . S
C1395 C1394 1.386 . S
C1395 C1399 1.393 . S
C1396 H1385 0.950 . S
C1396 C1394 1.391 . S
C1396 C1397 1.400 . S
C1397 C1391 1.491 . S
C1397 C1396 1.400 . S
C1397 C1398 1.398 . S
C1398 H1386 0.950 . S
C1398 C1397 1.398 . S
C1398 C1399 1.391 . S
C1399 H1387 0.950 . S
C1399 C1395 1.393 . S
C1399 C1398 1.391 . S
H1400 C1408 0.950 . S
H1401 C1413 0.950 . S
H1402 C1410 0.950 . S
H1403 C1412 0.950 . S
H1404 C1414 0.950 . S
H1405 C1416 0.950 . S
H1406 C1418 0.950 . S
H1407 C1419 0.950 . S
C1408 H1400 0.950 . S
C1408 C1409 1.386 . S
C1408 C1410 1.391 . S
C1409 C1408 1.386 . S
C1409 C1413 1.393 . S
C1410 H1402 0.950 . S
C1410 C1408 1.391 . S
C1410 C1411 1.400 . S
C1411 C1410 1.400 . S
C1411 C1412 1.398 . S
C1411 C1417 1.491 . S
C1412 H1403 0.950 . S
C1412 C1411 1.398 . S
C1412 C1413 1.391 . S
C1413 H1401 0.950 . S
C1413 C1409 1.393 . S
C1413 C1412 1.391 . S
C1414 H1404 0.950 . S
C1414 C1415 1.386 . S
C1414 C1416 1.391 . S
C1415 C1414 1.386 . S
C1415 C1419 1.393 . S
C1416 H1405 0.950 . S
C1416 C1414 1.391 . S
C1416 C1417 1.400 . S
C1417 C1411 1.491 . S
C1417 C1416 1.400 . S
C1417 C1418 1.398 . S
C1418 H1406 0.950 . S
C1418 C1417 1.398 . S
C1418 C1419 1.391 . S
C1419 H1407 0.950 . S
C1419 C1415 1.393 . S
C1419 C1418 1.391 . S
H1420 C1428 0.950 . S
H1421 C1433 0.950 . S
H1422 C1430 0.950 . S
H1423 C1432 0.950 . S
H1424 C1434 0.950 . S
H1425 C1436 0.950 . S
H1426 C1438 0.950 . S
H1427 C1439 0.950 1_455 S
C1428 H1420 0.950 . S
C1428 C1429 1.386 . S
C1428 C1430 1.391 . S
C1429 C1428 1.386 . S
C1429 C1433 1.393 . S
C1430 H1422 0.950 . S
C1430 C1428 1.391 . S
C1430 C1431 1.400 . S
C1431 C1430 1.400 . S
C1431 C1432 1.398 . S
C1431 C1437 1.491 . S
C1432 H1423 0.950 . S
C1432 C1431 1.398 . S
C1432 C1433 1.391 . S
C1433 H1421 0.950 . S
C1433 C1429 1.393 . S
C1433 C1432 1.391 . S
C1434 H1424 0.950 . S
C1434 C1435 1.386 . S
C1434 C1436 1.391 . S
C1435 C1434 1.386 . S
C1435 C1439 1.393 . S
C1436 H1425 0.950 . S
C1436 C1434 1.391 . S
C1436 C1437 1.400 . S
C1437 C1431 1.491 . S
C1437 C1436 1.400 . S
C1437 C1438 1.398 . S
C1438 H1426 0.950 . S
C1438 C1437 1.398 . S
C1438 C1439 1.391 . S
C1439 H1427 0.950 1_655 S
C1439 C1435 1.393 . S
C1439 C1438 1.391 . S
H1440 C1448 0.950 . S
H1441 C1453 0.950 . S
H1442 C1450 0.950 . S
H1443 C1452 0.950 . S
H1444 C1454 0.950 . S
H1445 C1456 0.950 . S
H1446 C1458 0.950 . S
H1447 C1459 0.950 . S
C1448 H1440 0.950 . S
C1448 C1449 1.386 . S
C1448 C1450 1.391 . S
C1449 C1448 1.386 . S
C1449 C1453 1.393 . S
C1450 H1442 0.950 . S
C1450 C1448 1.391 . S
C1450 C1451 1.400 . S
C1451 C1450 1.400 . S
C1451 C1452 1.398 . S
C1451 C1457 1.491 . S
C1452 H1443 0.950 . S
C1452 C1451 1.398 . S
C1452 C1453 1.391 . S
C1453 H1441 0.950 . S
C1453 C1449 1.393 . S
C1453 C1452 1.391 . S
C1454 H1444 0.950 . S
C1454 C1455 1.386 . S
C1454 C1456 1.391 . S
C1455 C1454 1.386 . S
C1455 C1459 1.393 . S
C1456 H1445 0.950 . S
C1456 C1454 1.391 . S
C1456 C1457 1.400 . S
C1457 C1451 1.491 . S
C1457 C1456 1.400 . S
C1457 C1458 1.398 . S
C1458 H1446 0.950 . S
C1458 C1457 1.398 . S
C1458 C1459 1.391 . S
C1459 H1447 0.950 . S
C1459 C1455 1.393 . S
C1459 C1458 1.391 . S
H1460 C1468 0.950 . S
H1461 C1473 0.950 . S
H1462 C1470 0.950 . S
H1463 C1472 0.950 . S
H1464 C1474 0.950 . S
H1465 C1476 0.950 . S
H1466 C1478 0.950 . S
H1467 C1479 0.950 . S
C1468 H1460 0.950 . S
C1468 C1469 1.386 . S
C1468 C1470 1.391 . S
C1469 C1468 1.386 . S
C1469 C1473 1.393 . S
C1470 H1462 0.950 . S
C1470 C1468 1.391 . S
C1470 C1471 1.400 . S
C1471 C1470 1.400 . S
C1471 C1472 1.398 . S
C1471 C1477 1.491 . S
C1472 H1463 0.950 . S
C1472 C1471 1.398 . S
C1472 C1473 1.391 . S
C1473 H1461 0.950 . S
C1473 C1469 1.393 . S
C1473 C1472 1.391 . S
C1474 H1464 0.950 . S
C1474 C1475 1.386 . S
C1474 C1476 1.391 . S
C1475 C1474 1.386 . S
C1475 C1479 1.393 . S
C1476 H1465 0.950 . S
C1476 C1474 1.391 . S
C1476 C1477 1.400 . S
C1477 C1471 1.491 . S
C1477 C1476 1.400 . S
C1477 C1478 1.398 . S
C1478 H1466 0.950 . S
C1478 C1477 1.398 . S
C1478 C1479 1.391 . S
C1479 H1467 0.950 . S
C1479 C1475 1.393 . S
C1479 C1478 1.391 . S
H1480 C1488 0.950 . S
H1481 C1493 0.950 . S
H1482 C1490 0.950 . S
H1483 C1492 0.950 . S
H1484 C1494 0.950 . S
H1485 C1496 0.950 . S
H1486 C1498 0.950 . S
H1487 C1499 0.950 . S
C1488 H1480 0.950 . S
C1488 C1489 1.386 . S
C1488 C1490 1.391 . S
C1489 C1488 1.386 . S
C1489 C1493 1.393 . S
C1490 H1482 0.950 . S
C1490 C1488 1.391 . S
C1490 C1491 1.400 . S
C1491 C1490 1.400 . S
C1491 C1492 1.398 . S
C1491 C1497 1.491 . S
C1492 H1483 0.950 . S
C1492 C1491 1.398 . S
C1492 C1493 1.391 . S
C1493 H1481 0.950 . S
C1493 C1489 1.393 . S
C1493 C1492 1.391 . S
C1494 H1484 0.950 . S
C1494 C1495 1.386 . S
C1494 C1496 1.391 . S
C1495 C1494 1.386 . S
C1495 C1499 1.393 . S
C1496 H1485 0.950 . S
C1496 C1494 1.391 . S
C1496 C1497 1.400 . S
C1497 C1491 1.491 . S
C1497 C1496 1.400 . S
C1497 C1498 1.398 . S
C1498 H1486 0.950 . S
C1498 C1497 1.398 . S
C1498 C1499 1.391 . S
C1499 H1487 0.950 . S
C1499 C1495 1.393 . S
C1499 C1498 1.391 . S
H1500 C1508 0.950 . S
H1501 C1513 0.950 . S
H1502 C1510 0.950 . S
H1503 C1512 0.950 . S
H1504 C1514 0.950 . S
H1505 C1516 0.950 . S
H1506 C1518 0.950 . S
H1507 C1519 0.950 . S
C1508 H1500 0.950 . S
C1508 C1509 1.386 . S
C1508 C1510 1.391 . S
C1509 C1508 1.386 . S
C1509 C1513 1.393 . S
C1510 H1502 0.950 . S
C1510 C1508 1.391 . S
C1510 C1511 1.400 . S
C1511 C1510 1.400 . S
C1511 C1512 1.398 . S
C1511 C1517 1.491 . S
C1512 H1503 0.950 . S
C1512 C1511 1.398 . S
C1512 C1513 1.391 . S
C1513 H1501 0.950 . S
C1513 C1509 1.393 . S
C1513 C1512 1.391 . S
C1514 H1504 0.950 . S
C1514 C1515 1.386 . S
C1514 C1516 1.391 . S
C1515 C1514 1.386 . S
C1515 C1519 1.393 . S
C1516 H1505 0.950 . S
C1516 C1514 1.391 . S
C1516 C1517 1.400 . S
C1517 C1511 1.491 . S
C1517 C1516 1.400 . S
C1517 C1518 1.398 . S
C1518 H1506 0.950 . S
C1518 C1517 1.398 . S
C1518 C1519 1.391 . S
C1519 H1507 0.950 . S
C1519 C1515 1.393 . S
C1519 C1518 1.391 . S
H1520 C1528 0.950 . S
H1521 C1533 0.950 . S
H1522 C1530 0.950 . S
H1523 C1532 0.950 . S
H1524 C1534 0.950 . S
H1525 C1536 0.950 . S
H1526 C1538 0.950 . S
H1527 C1539 0.950 . S
C1528 H1520 0.950 . S
C1528 C1529 1.386 . S
C1528 C1530 1.391 . S
C1529 C1528 1.386 . S
C1529 C1533 1.393 . S
C1530 H1522 0.950 . S
C1530 C1528 1.391 . S
C1530 C1531 1.400 . S
C1531 C1530 1.400 . S
C1531 C1532 1.398 . S
C1531 C1537 1.491 . S
C1532 H1523 0.950 . S
C1532 C1531 1.398 . S
C1532 C1533 1.391 . S
C1533 H1521 0.950 . S
C1533 C1529 1.393 . S
C1533 C1532 1.391 . S
C1534 H1524 0.950 . S
C1534 C1535 1.386 . S
C1534 C1536 1.391 . S
C1535 C1534 1.386 . S
C1535 C1539 1.393 . S
C1536 H1525 0.950 . S
C1536 C1534 1.391 . S
C1536 C1537 1.400 . S
C1537 C1531 1.491 . S
C1537 C1536 1.400 . S
C1537 C1538 1.398 . S
C1538 H1526 0.950 . S
C1538 C1537 1.398 . S
C1538 C1539 1.391 . S
C1539 H1527 0.950 . S
C1539 C1535 1.393 . S
C1539 C1538 1.391 . S
H1540 C1548 0.950 . S
H1541 C1553 0.950 . S
H1542 C1550 0.950 . S
H1543 C1552 0.950 . S
H1544 C1554 0.950 . S
H1545 C1556 0.950 . S
H1546 C1558 0.950 . S
H1547 C1559 0.950 . S
C1548 H1540 0.950 . S
C1548 C1549 1.386 . S
C1548 C1550 1.391 . S
C1549 C1548 1.386 . S
C1549 C1553 1.393 . S
C1550 H1542 0.950 . S
C1550 C1548 1.391 . S
C1550 C1551 1.400 . S
C1551 C1550 1.400 . S
C1551 C1552 1.398 . S
C1551 C1557 1.491 . S
C1552 H1543 0.950 . S
C1552 C1551 1.398 . S
C1552 C1553 1.391 . S
C1553 H1541 0.950 . S
C1553 C1549 1.393 . S
C1553 C1552 1.391 . S
C1554 H1544 0.950 . S
C1554 C1555 1.386 . S
C1554 C1556 1.391 . S
C1555 C1554 1.386 . S
C1555 C1559 1.393 . S
C1556 H1545 0.950 . S
C1556 C1554 1.391 . S
C1556 C1557 1.400 . S
C1557 C1551 1.491 . S
C1557 C1556 1.400 . S
C1557 C1558 1.398 . S
C1558 H1546 0.950 . S
C1558 C1557 1.398 . S
C1558 C1559 1.391 . S
C1559 H1547 0.950 . S
C1559 C1555 1.393 . S
C1559 C1558 1.391 . S
H1560 C1568 0.950 . S
H1561 C1573 0.950 . S
H1562 C1570 0.950 . S
H1563 C1572 0.950 . S
H1564 C1574 0.950 . S
H1565 C1576 0.950 . S
H1566 C1578 0.950 . S
H1567 C1579 0.950 . S
C1568 H1560 0.950 . S
C1568 C1569 1.386 . S
C1568 C1570 1.391 . S
C1569 C1568 1.386 . S
C1569 C1573 1.393 . S
C1570 H1562 0.950 . S
C1570 C1568 1.391 . S
C1570 C1571 1.400 . S
C1571 C1570 1.400 . S
C1571 C1572 1.398 . S
C1571 C1577 1.491 . S
C1572 H1563 0.950 . S
C1572 C1571 1.398 . S
C1572 C1573 1.391 . S
C1573 H1561 0.950 . S
C1573 C1569 1.393 . S
C1573 C1572 1.391 . S
C1574 H1564 0.950 . S
C1574 C1575 1.386 . S
C1574 C1576 1.391 . S
C1575 C1574 1.386 . S
C1575 C1579 1.393 . S
C1576 H1565 0.950 . S
C1576 C1574 1.391 . S
C1576 C1577 1.400 . S
C1577 C1571 1.491 . S
C1577 C1576 1.400 . S
C1577 C1578 1.398 . S
C1578 H1566 0.950 . S
C1578 C1577 1.398 . S
C1578 C1579 1.391 . S
C1579 H1567 0.950 . S
C1579 C1575 1.393 . S
C1579 C1578 1.391 . S
H1580 C1588 0.950 . S
H1581 C1593 0.950 . S
H1582 C1590 0.950 . S
H1583 C1592 0.950 . S
H1584 C1594 0.950 . S
H1585 C1596 0.950 . S
H1586 C1598 0.950 . S
H1587 C1599 0.950 . S
C1588 H1580 0.950 . S
C1588 C1589 1.386 . S
C1588 C1590 1.391 . S
C1589 C1588 1.386 . S
C1589 C1593 1.393 . S
C1590 H1582 0.950 . S
C1590 C1588 1.391 . S
C1590 C1591 1.400 . S
C1591 C1590 1.400 . S
C1591 C1592 1.398 . S
C1591 C1597 1.491 . S
C1592 H1583 0.950 . S
C1592 C1591 1.398 . S
C1592 C1593 1.391 . S
C1593 H1581 0.950 . S
C1593 C1589 1.393 . S
C1593 C1592 1.391 . S
C1594 H1584 0.950 . S
C1594 C1595 1.386 . S
C1594 C1596 1.391 . S
C1595 C1594 1.386 . S
C1595 C1599 1.393 . S
C1596 H1585 0.950 . S
C1596 C1594 1.391 . S
C1596 C1597 1.400 . S
C1597 C1591 1.491 . S
C1597 C1596 1.400 . S
C1597 C1598 1.398 . S
C1598 H1586 0.950 . S
C1598 C1597 1.398 . S
C1598 C1599 1.391 . S
C1599 H1587 0.950 . S
C1599 C1595 1.393 . S
C1599 C1598 1.391 . S
H1600 C1608 0.950 . S
H1601 C1613 0.950 . S
H1602 C1610 0.950 . S
H1603 C1612 0.950 . S
H1604 C1614 0.950 . S
H1605 C1616 0.950 . S
H1606 C1618 0.950 . S
H1607 C1619 0.950 . S
C1608 H1600 0.950 . S
C1608 C1609 1.386 . S
C1608 C1610 1.391 . S
C1609 C1608 1.386 . S
C1609 C1613 1.393 . S
C1610 H1602 0.950 . S
C1610 C1608 1.391 . S
C1610 C1611 1.400 . S
C1611 C1610 1.400 . S
C1611 C1612 1.398 . S
C1611 C1617 1.491 . S
C1612 H1603 0.950 . S
C1612 C1611 1.398 . S
C1612 C1613 1.391 . S
C1613 H1601 0.950 . S
C1613 C1609 1.393 . S
C1613 C1612 1.391 . S
C1614 H1604 0.950 . S
C1614 C1615 1.386 . S
C1614 C1616 1.391 . S
C1615 C1614 1.386 . S
C1615 C1619 1.393 . S
C1616 H1605 0.950 . S
C1616 C1614 1.391 . S
C1616 C1617 1.400 . S
C1617 C1611 1.491 . S
C1617 C1616 1.400 . S
C1617 C1618 1.398 . S
C1618 H1606 0.950 . S
C1618 C1617 1.398 . S
C1618 C1619 1.391 . S
C1619 H1607 0.950 . S
C1619 C1615 1.393 . S
C1619 C1618 1.391 . S
H1620 C1628 0.950 . S
H1621 C1633 0.950 . S
H1622 C1630 0.950 . S
H1623 C1632 0.950 . S
H1624 C1634 0.950 . S
H1625 C1636 0.950 . S
H1626 C1638 0.950 . S
H1627 C1639 0.950 . S
C1628 H1620 0.950 . S
C1628 C1629 1.386 . S
C1628 C1630 1.391 . S
C1629 C1628 1.386 . S
C1629 C1633 1.393 . S
C1630 H1622 0.950 . S
C1630 C1628 1.391 . S
C1630 C1631 1.400 . S
C1631 C1630 1.400 . S
C1631 C1632 1.398 . S
C1631 C1637 1.491 . S
C1632 H1623 0.950 . S
C1632 C1631 1.398 . S
C1632 C1633 1.391 . S
C1633 H1621 0.950 . S
C1633 C1629 1.393 . S
C1633 C1632 1.391 . S
C1634 H1624 0.950 . S
C1634 C1635 1.386 . S
C1634 C1636 1.391 . S
C1635 C1634 1.386 . S
C1635 C1639 1.393 . S
C1636 H1625 0.950 . S
C1636 C1634 1.391 . S
C1636 C1637 1.400 . S
C1637 C1631 1.491 . S
C1637 C1636 1.400 . S
C1637 C1638 1.398 . S
C1638 H1626 0.950 . S
C1638 C1637 1.398 . S
C1638 C1639 1.391 . S
C1639 H1627 0.950 . S
C1639 C1635 1.393 . S
C1639 C1638 1.391 . S
H1640 C1648 0.950 . S
H1641 C1653 0.950 . S
H1642 C1650 0.950 . S
H1643 C1652 0.950 . S
H1644 C1654 0.950 . S
H1645 C1656 0.950 . S
H1646 C1658 0.950 . S
H1647 C1659 0.950 . S
C1648 H1640 0.950 . S
C1648 C1649 1.386 . S
C1648 C1650 1.391 . S
C1649 C1648 1.386 . S
C1649 C1653 1.393 . S
C1650 H1642 0.950 . S
C1650 C1648 1.391 . S
C1650 C1651 1.400 . S
C1651 C1650 1.400 . S
C1651 C1652 1.398 . S
C1651 C1657 1.491 . S
C1652 H1643 0.950 . S
C1652 C1651 1.398 . S
C1652 C1653 1.391 . S
C1653 H1641 0.950 . S
C1653 C1649 1.393 . S
C1653 C1652 1.391 . S
C1654 H1644 0.950 . S
C1654 C1655 1.386 . S
C1654 C1656 1.391 . S
C1655 C1654 1.386 . S
C1655 C1659 1.393 . S
C1656 H1645 0.950 . S
C1656 C1654 1.391 . S
C1656 C1657 1.400 . S
C1657 C1651 1.491 . S
C1657 C1656 1.400 . S
C1657 C1658 1.398 . S
C1658 H1646 0.950 . S
C1658 C1657 1.398 . S
C1658 C1659 1.391 . S
C1659 H1647 0.950 . S
C1659 C1655 1.393 . S
C1659 C1658 1.391 . S
H1660 C1668 0.950 . S
H1661 C1673 0.950 . S
H1662 C1670 0.950 . S
H1663 C1672 0.950 . S
H1664 C1674 0.950 . S
H1665 C1676 0.950 . S
H1666 C1678 0.950 . S
H1667 C1679 0.950 . S
C1668 H1660 0.950 . S
C1668 C1669 1.386 . S
C1668 C1670 1.391 . S
C1669 C1668 1.386 . S
C1669 C1673 1.393 . S
C1670 H1662 0.950 . S
C1670 C1668 1.391 . S
C1670 C1671 1.400 . S
C1671 C1670 1.400 . S
C1671 C1672 1.398 . S
C1671 C1677 1.491 . S
C1672 H1663 0.950 . S
C1672 C1671 1.398 . S
C1672 C1673 1.391 . S
C1673 H1661 0.950 . S
C1673 C1669 1.393 . S
C1673 C1672 1.391 . S
C1674 H1664 0.950 . S
C1674 C1675 1.386 . S
C1674 C1676 1.391 . S
C1675 C1674 1.386 . S
C1675 C1679 1.393 . S
C1676 H1665 0.950 . S
C1676 C1674 1.391 . S
C1676 C1677 1.400 . S
C1677 C1671 1.491 . S
C1677 C1676 1.400 . S
C1677 C1678 1.398 . S
C1678 H1666 0.950 . S
C1678 C1677 1.398 . S
C1678 C1679 1.391 . S
C1679 H1667 0.950 . S
C1679 C1675 1.393 . S
C1679 C1678 1.391 . S
H1680 C1688 0.950 . S
H1681 C1693 0.950 . S
H1682 C1690 0.950 . S
H1683 C1692 0.950 . S
H1684 C1694 0.950 . S
H1685 C1696 0.950 . S
H1686 C1698 0.950 . S
H1687 C1699 0.950 . S
C1688 H1680 0.950 . S
C1688 C1689 1.386 . S
C1688 C1690 1.391 . S
C1689 C1688 1.386 . S
C1689 C1693 1.393 . S
C1690 H1682 0.950 . S
C1690 C1688 1.391 . S
C1690 C1691 1.400 . S
C1691 C1690 1.400 . S
C1691 C1692 1.398 . S
C1691 C1697 1.491 . S
C1692 H1683 0.950 . S
C1692 C1691 1.398 . S
C1692 C1693 1.391 . S
C1693 H1681 0.950 . S
C1693 C1689 1.393 . S
C1693 C1692 1.391 . S
C1694 H1684 0.950 . S
C1694 C1695 1.386 . S
C1694 C1696 1.391 . S
C1695 C1694 1.386 . S
C1695 C1699 1.393 . S
C1696 H1685 0.950 . S
C1696 C1694 1.391 . S
C1696 C1697 1.400 . S
C1697 C1691 1.491 . S
C1697 C1696 1.400 . S
C1697 C1698 1.398 . S
C1698 H1686 0.950 . S
C1698 C1697 1.398 . S
C1698 C1699 1.391 . S
C1699 H1687 0.950 . S
C1699 C1695 1.393 . S
C1699 C1698 1.391 . S
H1700 C1708 0.950 . S
H1701 C1713 0.950 . S
H1702 C1710 0.950 . S
H1703 C1712 0.950 . S
H1704 C1714 0.950 . S
H1705 C1716 0.950 . S
H1706 C1718 0.950 . S
H1707 C1719 0.950 . S
C1708 H1700 0.950 . S
C1708 C1709 1.386 . S
C1708 C1710 1.391 . S
C1709 C1708 1.386 . S
C1709 C1713 1.393 . S
C1710 H1702 0.950 . S
C1710 C1708 1.391 . S
C1710 C1711 1.400 . S
C1711 C1710 1.400 . S
C1711 C1712 1.398 . S
C1711 C1717 1.491 . S
C1712 H1703 0.950 . S
C1712 C1711 1.398 . S
C1712 C1713 1.391 . S
C1713 H1701 0.950 . S
C1713 C1709 1.393 . S
C1713 C1712 1.391 . S
C1714 H1704 0.950 . S
C1714 C1715 1.386 . S
C1714 C1716 1.391 . S
C1715 C1714 1.386 . S
C1715 C1719 1.393 . S
C1716 H1705 0.950 . S
C1716 C1714 1.391 . S
C1716 C1717 1.400 . S
C1717 C1711 1.491 . S
C1717 C1716 1.400 . S
C1717 C1718 1.398 . S
C1718 H1706 0.950 . S
C1718 C1717 1.398 . S
C1718 C1719 1.391 . S
C1719 H1707 0.950 . S
C1719 C1715 1.393 . S
C1719 C1718 1.391 . S
H1720 C1728 0.950 . S
H1721 C1733 0.950 . S
H1722 C1730 0.950 . S
H1723 C1732 0.950 . S
H1724 C1734 0.950 . S
H1725 C1736 0.950 . S
H1726 C1738 0.950 . S
H1727 C1739 0.950 . S
C1728 H1720 0.950 . S
C1728 C1729 1.386 . S
C1728 C1730 1.391 . S
C1729 C1728 1.386 . S
C1729 C1733 1.393 . S
C1730 H1722 0.950 . S
C1730 C1728 1.391 . S
C1730 C1731 1.400 . S
C1731 C1730 1.400 . S
C1731 C1732 1.398 . S
C1731 C1737 1.491 . S
C1732 H1723 0.950 . S
C1732 C1731 1.398 . S
C1732 C1733 1.391 . S
C1733 H1721 0.950 . S
C1733 C1729 1.393 . S
C1733 C1732 1.391 . S
C1734 H1724 0.950 . S
C1734 C1735 1.386 . S
C1734 C1736 1.391 . S
C1735 C1734 1.386 . S
C1735 C1739 1.393 . S
C1736 H1725 0.950 . S
C1736 C1734 1.391 . S
C1736 C1737 1.400 . S
C1737 C1731 1.491 . S
C1737 C1736 1.400 . S
C1737 C1738 1.398 . S
C1738 H1726 0.950 . S
C1738 C1737 1.398 . S
C1738 C1739 1.391 . S
C1739 H1727 0.950 . S
C1739 C1735 1.393 . S
C1739 C1738 1.391 . S
H1740 C1748 0.950 . S
H1741 C1753 0.950 . S
H1742 C1750 0.950 . S
H1743 C1752 0.950 . S
H1744 C1754 0.950 . S
H1745 C1756 0.950 . S
H1746 C1758 0.950 . S
H1747 C1759 0.950 . S
C1748 H1740 0.950 . S
C1748 C1749 1.386 . S
C1748 C1750 1.391 . S
C1749 C1748 1.386 . S
C1749 C1753 1.393 . S
C1750 H1742 0.950 . S
C1750 C1748 1.391 . S
C1750 C1751 1.400 . S
C1751 C1750 1.400 . S
C1751 C1752 1.398 . S
C1751 C1757 1.491 . S
C1752 H1743 0.950 . S
C1752 C1751 1.398 . S
C1752 C1753 1.391 . S
C1753 H1741 0.950 . S
C1753 C1749 1.393 . S
C1753 C1752 1.391 . S
C1754 H1744 0.950 . S
C1754 C1755 1.386 . S
C1754 C1756 1.391 . S
C1755 C1754 1.386 . S
C1755 C1759 1.393 . S
C1756 H1745 0.950 . S
C1756 C1754 1.391 . S
C1756 C1757 1.400 . S
C1757 C1751 1.491 . S
C1757 C1756 1.400 . S
C1757 C1758 1.398 . S
C1758 H1746 0.950 . S
C1758 C1757 1.398 . S
C1758 C1759 1.391 . S
C1759 H1747 0.950 . S
C1759 C1755 1.393 . S
C1759 C1758 1.391 . S
H1760 C1768 0.950 . S
H1761 C1773 0.950 . S
H1762 C1770 0.950 . S
H1763 C1772 0.950 . S
H1764 C1774 0.950 . S
H1765 C1776 0.950 . S
H1766 C1778 0.950 . S
H1767 C1779 0.950 . S
C1768 H1760 0.950 . S
C1768 C1769 1.386 . S
C1768 C1770 1.391 . S
C1769 C1768 1.386 . S
C1769 C1773 1.393 . S
C1770 H1762 0.950 . S
C1770 C1768 1.391 . S
C1770 C1771 1.400 . S
C1771 C1770 1.400 . S
C1771 C1772 1.398 . S
C1771 C1777 1.491 . S
C1772 H1763 0.950 . S
C1772 C1771 1.398 . S
C1772 C1773 1.391 . S
C1773 H1761 0.950 . S
C1773 C1769 1.393 . S
C1773 C1772 1.391 . S
C1774 H1764 0.950 . S
C1774 C1775 1.386 . S
C1774 C1776 1.391 . S
C1775 C1774 1.386 . S
C1775 C1779 1.393 . S
C1776 H1765 0.950 . S
C1776 C1774 1.391 . S
C1776 C1777 1.400 . S
C1777 C1771 1.491 . S
C1777 C1776 1.400 . S
C1777 C1778 1.398 . S
C1778 H1766 0.950 . S
C1778 C1777 1.398 . S
C1778 C1779 1.391 . S
C1779 H1767 0.950 . S
C1779 C1775 1.393 . S
C1779 C1778 1.391 . S
H1780 C1788 0.950 . S
H1781 C1793 0.950 . S
H1782 C1790 0.950 . S
H1783 C1792 0.950 . S
H1784 C1794 0.950 . S
H1785 C1796 0.950 . S
H1786 C1798 0.950 . S
H1787 C1799 0.950 . S
C1788 H1780 0.950 . S
C1788 C1789 1.386 . S
C1788 C1790 1.391 . S
C1789 C1788 1.386 . S
C1789 C1793 1.393 . S
C1790 H1782 0.950 . S
C1790 C1788 1.391 . S
C1790 C1791 1.400 . S
C1791 C1790 1.400 . S
C1791 C1792 1.398 . S
C1791 C1797 1.491 . S
C1792 H1783 0.950 . S
C1792 C1791 1.398 . S
C1792 C1793 1.391 . S
C1793 H1781 0.950 . S
C1793 C1789 1.393 . S
C1793 C1792 1.391 . S
C1794 H1784 0.950 . S
C1794 C1795 1.386 . S
C1794 C1796 1.391 . S
C1795 C1794 1.386 . S
C1795 C1799 1.393 . S
C1796 H1785 0.950 . S
C1796 C1794 1.391 . S
C1796 C1797 1.400 . S
C1797 C1791 1.491 . S
C1797 C1796 1.400 . S
C1797 C1798 1.398 . S
C1798 H1786 0.950 . S
C1798 C1797 1.398 . S
C1798 C1799 1.391 . S
C1799 H1787 0.950 . S
C1799 C1795 1.393 . S
C1799 C1798 1.391 . S
H1800 C1808 0.950 . S
H1801 C1813 0.950 . S
H1802 C1810 0.950 . S
H1803 C1812 0.950 . S
H1804 C1814 0.950 . S
H1805 C1816 0.950 . S
H1806 C1818 0.950 . S
H1807 C1819 0.950 . S
C1808 H1800 0.950 . S
C1808 C1809 1.386 . S
C1808 C1810 1.391 . S
C1809 C1808 1.386 . S
C1809 C1813 1.393 . S
C1810 H1802 0.950 . S
C1810 C1808 1.391 . S
C1810 C1811 1.400 . S
C1811 C1810 1.400 . S
C1811 C1812 1.398 . S
C1811 C1817 1.491 . S
C1812 H1803 0.950 . S
C1812 C1811 1.398 . S
C1812 C1813 1.391 . S
C1813 H1801 0.950 . S
C1813 C1809 1.393 . S
C1813 C1812 1.391 . S
C1814 H1804 0.950 . S
C1814 C1815 1.386 . S
C1814 C1816 1.391 . S
C1815 C1814 1.386 . S
C1815 C1819 1.393 . S
C1816 H1805 0.950 . S
C1816 C1814 1.391 . S
C1816 C1817 1.400 . S
C1817 C1811 1.491 . S
C1817 C1816 1.400 . S
C1817 C1818 1.398 . S
C1818 H1806 0.950 . S
C1818 C1817 1.398 . S
C1818 C1819 1.391 . S
C1819 H1807 0.950 . S
C1819 C1815 1.393 . S
C1819 C1818 1.391 . S
H1820 C1828 0.950 . S
H1821 C1833 0.950 . S
H1822 C1830 0.950 . S
H1823 C1832 0.950 . S
H1824 C1834 0.950 . S
H1825 C1836 0.950 . S
H1826 C1838 0.950 . S
H1827 C1839 0.950 . S
C1828 H1820 0.950 . S
C1828 C1829 1.386 . S
C1828 C1830 1.391 . S
C1829 C1828 1.386 . S
C1829 C1833 1.393 . S
C1830 H1822 0.950 . S
C1830 C1828 1.391 . S
C1830 C1831 1.400 . S
C1831 C1830 1.400 . S
C1831 C1832 1.398 . S
C1831 C1837 1.491 . S
C1832 H1823 0.950 . S
C1832 C1831 1.398 . S
C1832 C1833 1.391 . S
C1833 H1821 0.950 . S
C1833 C1829 1.393 . S
C1833 C1832 1.391 . S
C1834 H1824 0.950 . S
C1834 C1835 1.386 . S
C1834 C1836 1.391 . S
C1835 C1834 1.386 . S
C1835 C1839 1.393 . S
C1836 H1825 0.950 . S
C1836 C1834 1.391 . S
C1836 C1837 1.400 . S
C1837 C1831 1.491 . S
C1837 C1836 1.400 . S
C1837 C1838 1.398 . S
C1838 H1826 0.950 . S
C1838 C1837 1.398 . S
C1838 C1839 1.391 . S
C1839 H1827 0.950 . S
C1839 C1835 1.393 . S
C1839 C1838 1.391 . S
H1840 C1848 0.950 . S
H1841 C1853 0.950 . S
H1842 C1850 0.950 . S
H1843 C1852 0.950 . S
H1844 C1854 0.950 . S
H1845 C1856 0.950 . S
H1846 C1858 0.950 . S
H1847 C1859 0.950 . S
C1848 H1840 0.950 . S
C1848 C1849 1.386 . S
C1848 C1850 1.391 . S
C1849 C1848 1.386 . S
C1849 C1853 1.393 . S
C1850 H1842 0.950 . S
C1850 C1848 1.391 . S
C1850 C1851 1.400 . S
C1851 C1850 1.400 . S
C1851 C1852 1.398 . S
C1851 C1857 1.491 . S
C1852 H1843 0.950 . S
C1852 C1851 1.398 . S
C1852 C1853 1.391 . S
C1853 H1841 0.950 . S
C1853 C1849 1.393 . S
C1853 C1852 1.391 . S
C1854 H1844 0.950 . S
C1854 C1855 1.386 . S
C1854 C1856 1.391 . S
C1855 C1854 1.386 . S
C1855 C1859 1.393 . S
C1856 H1845 0.950 . S
C1856 C1854 1.391 . S
C1856 C1857 1.400 . S
C1857 C1851 1.491 . S
C1857 C1856 1.400 . S
C1857 C1858 1.398 . S
C1858 H1846 0.950 . S
C1858 C1857 1.398 . S
C1858 C1859 1.391 . S
C1859 H1847 0.950 . S
C1859 C1855 1.393 . S
C1859 C1858 1.391 . S
H1860 C1868 0.950 . S
H1861 C1873 0.950 . S
H1862 C1870 0.950 . S
H1863 C1872 0.950 . S
H1864 C1874 0.950 . S
H1865 C1876 0.950 . S
H1866 C1878 0.950 . S
H1867 C1879 0.950 . S
C1868 H1860 0.950 . S
C1868 C1869 1.386 . S
C1868 C1870 1.391 . S
C1869 C1868 1.386 . S
C1869 C1873 1.393 . S
C1870 H1862 0.950 . S
C1870 C1868 1.391 . S
C1870 C1871 1.400 . S
C1871 C1870 1.400 . S
C1871 C1872 1.398 . S
C1871 C1877 1.491 . S
C1872 H1863 0.950 . S
C1872 C1871 1.398 . S
C1872 C1873 1.391 . S
C1873 H1861 0.950 . S
C1873 C1869 1.393 . S
C1873 C1872 1.391 . S
C1874 H1864 0.950 . S
C1874 C1875 1.386 . S
C1874 C1876 1.391 . S
C1875 C1874 1.386 . S
C1875 C1879 1.393 . S
C1876 H1865 0.950 . S
C1876 C1874 1.391 . S
C1876 C1877 1.400 . S
C1877 C1871 1.491 . S
C1877 C1876 1.400 . S
C1877 C1878 1.398 . S
C1878 H1866 0.950 . S
C1878 C1877 1.398 . S
C1878 C1879 1.391 . S
C1879 H1867 0.950 . S
C1879 C1875 1.393 . S
C1879 C1878 1.391 . S
H1880 C1888 0.950 . S
H1881 C1893 0.950 . S
H1882 C1890 0.950 . S
H1883 C1892 0.950 . S
H1884 C1894 0.950 . S
H1885 C1896 0.950 . S
H1886 C1898 0.950 . S
H1887 C1899 0.950 . S
C1888 H1880 0.950 . S
C1888 C1889 1.386 . S
C1888 C1890 1.391 . S
C1889 C1888 1.386 . S
C1889 C1893 1.393 . S
C1890 H1882 0.950 . S
C1890 C1888 1.391 . S
C1890 C1891 1.400 . S
C1891 C1890 1.400 . S
C1891 C1892 1.398 . S
C1891 C1897 1.491 . S
C1892 H1883 0.950 . S
C1892 C1891 1.398 . S
C1892 C1893 1.391 . S
C1893 H1881 0.950 . S
C1893 C1889 1.393 . S
C1893 C1892 1.391 . S
C1894 H1884 0.950 . S
C1894 C1895 1.386 . S
C1894 C1896 1.391 . S
C1895 C1894 1.386 . S
C1895 C1899 1.393 . S
C1896 H1885 0.950 . S
C1896 C1894 1.391 . S
C1896 C1897 1.400 . S
C1897 C1891 1.491 . S
C1897 C1896 1.400 . S
C1897 C1898 1.398 . S
C1898 H1886 0.950 . S
C1898 C1897 1.398 . S
C1898 C1899 1.391 . S
C1899 H1887 0.950 . S
C1899 C1895 1.393 . S
C1899 C1898 1.391 . S
H1900 C1908 0.950 . S
H1901 C1913 0.950 . S
H1902 C1910 0.950 . S
H1903 C1912 0.950 . S
H1904 C1914 0.950 . S
H1905 C1916 0.950 . S
H1906 C1918 0.950 . S
H1907 C1919 0.950 . S
C1908 H1900 0.950 . S
C1908 C1909 1.386 . S
C1908 C1910 1.391 . S
C1909 C1908 1.386 . S
C1909 C1913 1.393 . S
C1910 H1902 0.950 . S
C1910 C1908 1.391 . S
C1910 C1911 1.400 . S
C1911 C1910 1.400 . S
C1911 C1912 1.398 . S
C1911 C1917 1.491 . S
C1912 H1903 0.950 . S
C1912 C1911 1.398 . S
C1912 C1913 1.391 . S
C1913 H1901 0.950 . S
C1913 C1909 1.393 . S
C1913 C1912 1.391 . S
C1914 H1904 0.950 . S
C1914 C1915 1.386 . S
C1914 C1916 1.391 . S
C1915 C1914 1.386 . S
C1915 C1919 1.393 . S
C1916 H1905 0.950 . S
C1916 C1914 1.391 . S
C1916 C1917 1.400 . S
C1917 C1911 1.491 . S
C1917 C1916 1.400 . S
C1917 C1918 1.398 . S
C1918 H1906 0.950 . S
C1918 C1917 1.398 . S
C1918 C1919 1.391 . S
C1919 H1907 0.950 . S
C1919 C1915 1.393 . S
C1919 C1918 1.391 . S
H1920 C1928 0.950 . S
H1921 C1933 0.950 . S
H1922 C1930 0.950 . S
H1923 C1932 0.950 . S
H1924 C1934 0.950 . S
H1925 C1936 0.950 . S
H1926 C1938 0.950 1_455 S
H1927 C1939 0.950 . S
C1928 H1920 0.950 . S
C1928 C1929 1.386 . S
C1928 C1930 1.391 . S
C1929 C1928 1.386 . S
C1929 C1933 1.393 1_455 S
C1930 H1922 0.950 . S
C1930 C1928 1.391 . S
C1930 C1931 1.400 1_455 S
C1931 C1930 1.400 1_655 S
C1931 C1932 1.398 . S
C1931 C1937 1.491 . S
C1932 H1923 0.950 . S
C1932 C1931 1.398 . S
C1932 C1933 1.391 . S
C1933 H1921 0.950 . S
C1933 C1929 1.393 1_655 S
C1933 C1932 1.391 . S
C1934 H1924 0.950 . S
C1934 C1935 1.386 . S
C1934 C1936 1.391 . S
C1935 C1934 1.386 . S
C1935 C1939 1.393 . S
C1936 H1925 0.950 . S
C1936 C1934 1.391 . S
C1936 C1937 1.400 . S
C1937 C1931 1.491 . S
C1937 C1936 1.400 . S
C1937 C1938 1.398 . S
C1938 H1926 0.950 1_655 S
C1938 C1937 1.398 . S
C1938 C1939 1.391 . S
C1939 H1927 0.950 . S
C1939 C1935 1.393 . S
C1939 C1938 1.391 . S
H1940 C1948 0.950 . S
H1941 C1953 0.950 . S
H1942 C1950 0.950 . S
H1943 C1952 0.950 . S
H1944 C1954 0.950 . S
H1945 C1956 0.950 . S
H1946 C1958 0.950 . S
H1947 C1959 0.950 . S
C1948 H1940 0.950 . S
C1948 C1949 1.386 . S
C1948 C1950 1.391 . S
C1949 C1948 1.386 . S
C1949 C1953 1.393 . S
C1950 H1942 0.950 . S
C1950 C1948 1.391 . S
C1950 C1951 1.400 . S
C1951 C1950 1.400 . S
C1951 C1952 1.398 . S
C1951 C1957 1.491 . S
C1952 H1943 0.950 . S
C1952 C1951 1.398 . S
C1952 C1953 1.391 . S
C1953 H1941 0.950 . S
C1953 C1949 1.393 . S
C1953 C1952 1.391 . S
C1954 H1944 0.950 . S
C1954 C1955 1.386 . S
C1954 C1956 1.391 . S
C1955 C1954 1.386 . S
C1955 C1959 1.393 . S
C1956 H1945 0.950 . S
C1956 C1954 1.391 . S
C1956 C1957 1.400 . S
C1957 C1951 1.491 . S
C1957 C1956 1.400 . S
C1957 C1958 1.398 . S
C1958 H1946 0.950 . S
C1958 C1957 1.398 . S
C1958 C1959 1.391 . S
C1959 H1947 0.950 . S
C1959 C1955 1.393 . S
C1959 C1958 1.391 . S
H1960 C1968 0.950 . S
H1961 C1973 0.950 . S
H1962 C1970 0.950 . S
H1963 C1972 0.950 . S
H1964 C1974 0.950 . S
H1965 C1976 0.950 . S
H1966 C1978 0.950 . S
H1967 C1979 0.950 . S
C1968 H1960 0.950 . S
C1968 C1969 1.386 . S
C1968 C1970 1.391 . S
C1969 C1968 1.386 . S
C1969 C1973 1.393 . S
C1970 H1962 0.950 . S
C1970 C1968 1.391 . S
C1970 C1971 1.400 . S
C1971 C1970 1.400 . S
C1971 C1972 1.398 . S
C1971 C1977 1.491 . S
C1972 H1963 0.950 . S
C1972 C1971 1.398 . S
C1972 C1973 1.391 . S
C1973 H1961 0.950 . S
C1973 C1969 1.393 . S
C1973 C1972 1.391 . S
C1974 H1964 0.950 . S
C1974 C1975 1.386 . S
C1974 C1976 1.391 . S
C1975 C1974 1.386 . S
C1975 C1979 1.393 . S
C1976 H1965 0.950 . S
C1976 C1974 1.391 . S
C1976 C1977 1.400 . S
C1977 C1971 1.491 . S
C1977 C1976 1.400 . S
C1977 C1978 1.398 . S
C1978 H1966 0.950 . S
C1978 C1977 1.398 . S
C1978 C1979 1.391 . S
C1979 H1967 0.950 . S
C1979 C1975 1.393 . S
C1979 C1978 1.391 . S
H1980 C1988 0.950 . S
H1981 C1993 0.950 . S
H1982 C1990 0.950 . S
H1983 C1992 0.950 . S
H1984 C1994 0.950 . S
H1985 C1996 0.950 . S
H1986 C1998 0.950 . S
H1987 C1999 0.950 . S
C1988 H1980 0.950 . S
C1988 C1989 1.386 . S
C1988 C1990 1.391 . S
C1989 C1988 1.386 . S
C1989 C1993 1.393 . S
C1990 H1982 0.950 . S
C1990 C1988 1.391 . S
C1990 C1991 1.400 . S
C1991 C1990 1.400 . S
C1991 C1992 1.398 . S
C1991 C1997 1.491 . S
C1992 H1983 0.950 . S
C1992 C1991 1.398 . S
C1992 C1993 1.391 . S
C1993 H1981 0.950 . S
C1993 C1989 1.393 . S
C1993 C1992 1.391 . S
C1994 H1984 0.950 . S
C1994 C1995 1.386 1_455 S
C1994 C1996 1.391 . S
C1995 C1994 1.386 1_655 S
C1995 C1999 1.393 . S
C1996 H1985 0.950 . S
C1996 C1994 1.391 . S
C1996 C1997 1.400 . S
C1997 C1991 1.491 . S
C1997 C1996 1.400 . S
C1997 C1998 1.398 1_455 S
C1998 H1986 0.950 . S
C1998 C1997 1.398 1_655 S
C1998 C1999 1.391 . S
C1999 H1987 0.950 . S
C1999 C1995 1.393 . S
C1999 C1998 1.391 . S
H2000 C2008 0.950 . S
H2001 C2013 0.950 . S
H2002 C2010 0.950 . S
H2003 C2012 0.950 . S
H2004 C2014 0.950 . S
H2005 C2016 0.950 . S
H2006 C2018 0.950 . S
H2007 C2019 0.950 . S
C2008 H2000 0.950 . S
C2008 C2009 1.386 . S
C2008 C2010 1.391 . S
C2009 C2008 1.386 . S
C2009 C2013 1.393 . S
C2010 H2002 0.950 . S
C2010 C2008 1.391 . S
C2010 C2011 1.400 . S
C2011 C2010 1.400 . S
C2011 C2012 1.398 . S
C2011 C2017 1.491 . S
C2012 H2003 0.950 . S
C2012 C2011 1.398 . S
C2012 C2013 1.391 . S
C2013 H2001 0.950 . S
C2013 C2009 1.393 . S
C2013 C2012 1.391 . S
C2014 H2004 0.950 . S
C2014 C2015 1.386 . S
C2014 C2016 1.391 . S
C2015 C2014 1.386 . S
C2015 C2019 1.393 . S
C2016 H2005 0.950 . S
C2016 C2014 1.391 . S
C2016 C2017 1.400 . S
C2017 C2011 1.491 . S
C2017 C2016 1.400 . S
C2017 C2018 1.398 . S
C2018 H2006 0.950 . S
C2018 C2017 1.398 . S
C2018 C2019 1.391 . S
C2019 H2007 0.950 . S
C2019 C2015 1.393 . S
C2019 C2018 1.391 . S
H2020 C2028 0.950 . S
H2021 C2033 0.950 . S
H2022 C2030 0.950 . S
H2023 C2032 0.950 . S
H2024 C2034 0.950 . S
H2025 C2036 0.950 . S
H2026 C2038 0.950 . S
H2027 C2039 0.950 . S
C2028 H2020 0.950 . S
C2028 C2029 1.386 . S
C2028 C2030 1.391 . S
C2029 C2028 1.386 . S
C2029 C2033 1.393 . S
C2030 H2022 0.950 . S
C2030 C2028 1.391 . S
C2030 C2031 1.400 . S
C2031 C2030 1.400 . S
C2031 C2032 1.398 . S
C2031 C2037 1.491 . S
C2032 H2023 0.950 . S
C2032 C2031 1.398 . S
C2032 C2033 1.391 . S
C2033 H2021 0.950 . S
C2033 C2029 1.393 . S
C2033 C2032 1.391 . S
C2034 H2024 0.950 . S
C2034 C2035 1.386 . S
C2034 C2036 1.391 . S
C2035 C2034 1.386 . S
C2035 C2039 1.393 . S
C2036 H2025 0.950 . S
C2036 C2034 1.391 . S
C2036 C2037 1.400 . S
C2037 C2031 1.491 . S
C2037 C2036 1.400 . S
C2037 C2038 1.398 . S
C2038 H2026 0.950 . S
C2038 C2037 1.398 . S
C2038 C2039 1.391 . S
C2039 H2027 0.950 . S
C2039 C2035 1.393 . S
C2039 C2038 1.391 . S
H2040 C2048 0.950 . S
H2041 C2053 0.950 . S
H2042 C2050 0.950 . S
H2043 C2052 0.950 . S
H2044 C2054 0.950 . S
H2045 C2056 0.950 . S
H2046 C2058 0.950 . S
H2047 C2059 0.950 . S
C2048 H2040 0.950 . S
C2048 C2049 1.386 . S
C2048 C2050 1.391 . S
C2049 C2048 1.386 . S
C2049 C2053 1.393 . S
C2050 H2042 0.950 . S
C2050 C2048 1.391 . S
C2050 C2051 1.400 . S
C2051 C2050 1.400 . S
C2051 C2052 1.398 . S
C2051 C2057 1.491 . S
C2052 H2043 0.950 . S
C2052 C2051 1.398 . S
C2052 C2053 1.391 . S
C2053 H2041 0.950 . S
C2053 C2049 1.393 . S
C2053 C2052 1.391 . S
C2054 H2044 0.950 . S
C2054 C2055 1.386 . S
C2054 C2056 1.391 . S
C2055 C2054 1.386 . S
C2055 C2059 1.393 . S
C2056 H2045 0.950 . S
C2056 C2054 1.391 . S
C2056 C2057 1.400 . S
C2057 C2051 1.491 . S
C2057 C2056 1.400 . S
C2057 C2058 1.398 . S
C2058 H2046 0.950 . S
C2058 C2057 1.398 . S
C2058 C2059 1.391 . S
C2059 H2047 0.950 . S
C2059 C2055 1.393 . S
C2059 C2058 1.391 . S
H2060 C2068 0.950 . S
H2061 C2073 0.950 . S
H2062 C2070 0.950 . S
H2063 C2072 0.950 . S
H2064 C2074 0.950 . S
H2065 C2076 0.950 . S
H2066 C2078 0.950 . S
H2067 C2079 0.950 . S
C2068 H2060 0.950 . S
C2068 C2069 1.386 . S
C2068 C2070 1.391 . S
C2069 C2068 1.386 . S
C2069 C2073 1.393 . S
C2070 H2062 0.950 . S
C2070 C2068 1.391 . S
C2070 C2071 1.400 . S
C2071 C2070 1.400 . S
C2071 C2072 1.398 . S
C2071 C2077 1.491 . S
C2072 H2063 0.950 . S
C2072 C2071 1.398 . S
C2072 C2073 1.391 . S
C2073 H2061 0.950 . S
C2073 C2069 1.393 . S
C2073 C2072 1.391 . S
C2074 H2064 0.950 . S
C2074 C2075 1.386 . S
C2074 C2076 1.391 . S
C2075 C2074 1.386 . S
C2075 C2079 1.393 . S
C2076 H2065 0.950 . S
C2076 C2074 1.391 . S
C2076 C2077 1.400 . S
C2077 C2071 1.491 . S
C2077 C2076 1.400 . S
C2077 C2078 1.398 . S
C2078 H2066 0.950 . S
C2078 C2077 1.398 . S
C2078 C2079 1.391 . S
C2079 H2067 0.950 . S
C2079 C2075 1.393 . S
C2079 C2078 1.391 . S
H2080 C2088 0.950 1_554 S
H2081 C2093 0.950 . S
H2082 C2090 0.950 . S
H2083 C2092 0.950 . S
H2084 C2094 0.950 . S
H2085 C2096 0.950 . S
H2086 C2098 0.950 . S
H2087 C2099 0.950 . S
C2088 H2080 0.950 1_556 S
C2088 C2089 1.386 . S
C2088 C2090 1.391 . S
C2089 C2088 1.386 . S
C2089 C2093 1.393 . S
C2090 H2082 0.950 . S
C2090 C2088 1.391 . S
C2090 C2091 1.400 . S
C2091 C2090 1.400 . S
C2091 C2092 1.398 . S
C2091 C2097 1.491 . S
C2092 H2083 0.950 . S
C2092 C2091 1.398 . S
C2092 C2093 1.391 . S
C2093 H2081 0.950 . S
C2093 C2089 1.393 . S
C2093 C2092 1.391 . S
C2094 H2084 0.950 . S
C2094 C2095 1.386 . S
C2094 C2096 1.391 . S
C2095 C2094 1.386 . S
C2095 C2099 1.393 . S
C2096 H2085 0.950 . S
C2096 C2094 1.391 . S
C2096 C2097 1.400 . S
C2097 C2091 1.491 . S
C2097 C2096 1.400 . S
C2097 C2098 1.398 . S
C2098 H2086 0.950 . S
C2098 C2097 1.398 . S
C2098 C2099 1.391 . S
C2099 H2087 0.950 . S
C2099 C2095 1.393 . S
C2099 C2098 1.391 . S
H2100 C2108 0.950 . S
H2101 C2113 0.950 . S
H2102 C2110 0.950 1_556 S
H2103 C2112 0.950 . S
H2104 C2114 0.950 . S
H2105 C2116 0.950 . S
H2106 C2118 0.950 . S
H2107 C2119 0.950 . S
C2108 H2100 0.950 . S
C2108 C2109 1.386 . S
C2108 C2110 1.391 1_556 S
C2109 C2108 1.386 . S
C2109 C2113 1.393 1_556 S
C2110 H2102 0.950 1_554 S
C2110 C2108 1.391 1_554 S
C2110 C2111 1.400 . S
C2111 C2110 1.400 . S
C2111 C2112 1.398 . S
C2111 C2117 1.491 . S
C2112 H2103 0.950 . S
C2112 C2111 1.398 . S
C2112 C2113 1.391 . S
C2113 H2101 0.950 . S
C2113 C2109 1.393 1_554 S
C2113 C2112 1.391 . S
C2114 H2104 0.950 . S
C2114 C2115 1.386 . S
C2114 C2116 1.391 . S
C2115 C2114 1.386 . S
C2115 C2119 1.393 . S
C2116 H2105 0.950 . S
C2116 C2114 1.391 . S
C2116 C2117 1.400 . S
C2117 C2111 1.491 . S
C2117 C2116 1.400 . S
C2117 C2118 1.398 . S
C2118 H2106 0.950 . S
C2118 C2117 1.398 . S
C2118 C2119 1.391 . S
C2119 H2107 0.950 . S
C2119 C2115 1.393 . S
C2119 C2118 1.391 . S
H2120 C2128 0.950 . S
H2121 C2133 0.950 . S
H2122 C2130 0.950 . S
H2123 C2132 0.950 . S
H2124 C2134 0.950 . S
H2125 C2136 0.950 . S
H2126 C2138 0.950 . S
H2127 C2139 0.950 . S
C2128 H2120 0.950 . S
C2128 C2129 1.386 . S
C2128 C2130 1.391 . S
C2129 C2128 1.386 . S
C2129 C2133 1.393 . S
C2130 H2122 0.950 . S
C2130 C2128 1.391 . S
C2130 C2131 1.400 . S
C2131 C2130 1.400 . S
C2131 C2132 1.398 . S
C2131 C2137 1.491 . S
C2132 H2123 0.950 . S
C2132 C2131 1.398 . S
C2132 C2133 1.391 . S
C2133 H2121 0.950 . S
C2133 C2129 1.393 . S
C2133 C2132 1.391 . S
C2134 H2124 0.950 . S
C2134 C2135 1.386 . S
C2134 C2136 1.391 . S
C2135 C2134 1.386 . S
C2135 C2139 1.393 . S
C2136 H2125 0.950 . S
C2136 C2134 1.391 . S
C2136 C2137 1.400 . S
C2137 C2131 1.491 . S
C2137 C2136 1.400 . S
C2137 C2138 1.398 . S
C2138 H2126 0.950 . S
C2138 C2137 1.398 . S
C2138 C2139 1.391 . S
C2139 H2127 0.950 . S
C2139 C2135 1.393 . S
C2139 C2138 1.391 . S
H2140 C2148 0.950 . S
H2141 C2153 0.950 . S
H2142 C2150 0.950 . S
H2143 C2152 0.950 . S
H2144 C2154 0.950 . S
H2145 C2156 0.950 . S
H2146 C2158 0.950 . S
H2147 C2159 0.950 . S
C2148 H2140 0.950 . S
C2148 C2149 1.386 . S
C2148 C2150 1.391 . S
C2149 C2148 1.386 . S
C2149 C2153 1.393 . S
C2150 H2142 0.950 . S
C2150 C2148 1.391 . S
C2150 C2151 1.400 . S
C2151 C2150 1.400 . S
C2151 C2152 1.398 . S
C2151 C2157 1.491 . S
C2152 H2143 0.950 . S
C2152 C2151 1.398 . S
C2152 C2153 1.391 . S
C2153 H2141 0.950 . S
C2153 C2149 1.393 . S
C2153 C2152 1.391 . S
C2154 H2144 0.950 . S
C2154 C2155 1.386 . S
C2154 C2156 1.391 . S
C2155 C2154 1.386 . S
C2155 C2159 1.393 . S
C2156 H2145 0.950 . S
C2156 C2154 1.391 . S
C2156 C2157 1.400 . S
C2157 C2151 1.491 . S
C2157 C2156 1.400 . S
C2157 C2158 1.398 . S
C2158 H2146 0.950 . S
C2158 C2157 1.398 . S
C2158 C2159 1.391 . S
C2159 H2147 0.950 . S
C2159 C2155 1.393 . S
C2159 C2158 1.391 . S
H2160 C2168 0.950 . S
H2161 C2173 0.950 . S
H2162 C2170 0.950 . S
H2163 C2172 0.950 . S
H2164 C2174 0.950 1_655 S
H2165 C2176 0.924 1_655 S
H2166 C2178 0.950 . S
H2167 C2179 0.950 . S
C2168 H2160 0.950 . S
C2168 C2169 1.386 1_455 S
C2168 C2170 1.391 . S
C2169 C2168 1.386 1_655 S
C2169 C2173 1.393 . S
C2170 H2162 0.950 . S
C2170 C2168 1.391 . S
C2170 C2171 1.400 . S
C2171 C2170 1.400 . S
C2171 C2172 1.398 1_455 S
C2171 C2177 1.491 . S
C2172 H2163 0.950 . S
C2172 C2171 1.398 1_655 S
C2172 C2173 1.391 . S
C2173 H2161 0.950 . S
C2173 C2169 1.393 . S
C2173 C2172 1.391 . S
C2174 H2164 0.950 1_455 S
C2174 C2175 1.386 . S
C2174 C2176 1.403 . S
C2175 C2174 1.386 . S
C2175 C2179 1.393 . S
C2176 H2165 0.924 1_455 S
C2176 C2174 1.403 . S
C2176 C2177 1.413 . S
C2177 C2171 1.491 . S
C2177 C2176 1.413 . S
C2177 C2178 1.398 . S
C2178 H2166 0.950 . S
C2178 C2177 1.398 . S
C2178 C2179 1.391 . S
C2179 H2167 0.950 . S
C2179 C2175 1.393 . S
C2179 C2178 1.391 . S
H2180 C2188 0.950 . S
H2181 C2193 0.950 . S
H2182 C2190 0.950 . S
H2183 C2192 0.950 . S
H2184 C2194 0.950 . S
H2185 C2196 0.950 . S
H2186 C2198 0.950 . S
H2187 C2199 0.950 . S
C2188 H2180 0.950 . S
C2188 C2189 1.386 . S
C2188 C2190 1.391 . S
C2189 C2188 1.386 . S
C2189 C2193 1.393 . S
C2190 H2182 0.950 . S
C2190 C2188 1.391 . S
C2190 C2191 1.400 . S
C2191 C2190 1.400 . S
C2191 C2192 1.398 . S
C2191 C2197 1.491 . S
C2192 H2183 0.950 . S
C2192 C2191 1.398 . S
C2192 C2193 1.391 . S
C2193 H2181 0.950 . S
C2193 C2189 1.393 . S
C2193 C2192 1.391 . S
C2194 H2184 0.950 . S
C2194 C2195 1.386 . S
C2194 C2196 1.391 . S
C2195 C2194 1.386 . S
C2195 C2199 1.393 . S
C2196 H2185 0.950 . S
C2196 C2194 1.391 . S
C2196 C2197 1.400 . S
C2197 C2191 1.491 . S
C2197 C2196 1.400 . S
C2197 C2198 1.398 . S
C2198 H2186 0.950 . S
C2198 C2197 1.398 . S
C2198 C2199 1.391 . S
C2199 H2187 0.950 . S
C2199 C2195 1.393 . S
C2199 C2198 1.391 . S
H2200 C2208 0.950 . S
H2201 C2213 0.950 . S
H2202 C2210 0.950 . S
H2203 C2212 0.950 . S
H2204 C2214 0.950 . S
H2205 C2216 0.950 . S
H2206 C2218 0.950 . S
H2207 C2219 0.950 . S
C2208 H2200 0.950 . S
C2208 C2209 1.386 . S
C2208 C2210 1.391 . S
C2209 C2208 1.386 . S
C2209 C2213 1.393 . S
C2210 H2202 0.950 . S
C2210 C2208 1.391 . S
C2210 C2211 1.400 . S
C2211 C2210 1.400 . S
C2211 C2212 1.398 . S
C2211 C2217 1.491 . S
C2212 H2203 0.950 . S
C2212 C2211 1.398 . S
C2212 C2213 1.391 . S
C2213 H2201 0.950 . S
C2213 C2209 1.393 . S
C2213 C2212 1.391 . S
C2214 H2204 0.950 . S
C2214 C2215 1.386 . S
C2214 C2216 1.391 . S
C2215 C2214 1.386 . S
C2215 C2219 1.393 . S
C2216 H2205 0.950 . S
C2216 C2214 1.391 . S
C2216 C2217 1.400 . S
C2217 C2211 1.491 . S
C2217 C2216 1.400 . S
C2217 C2218 1.398 . S
C2218 H2206 0.950 . S
C2218 C2217 1.398 . S
C2218 C2219 1.391 . S
C2219 H2207 0.950 . S
C2219 C2215 1.393 . S
C2219 C2218 1.391 . S
H2220 C2228 0.950 . S
H2221 C2233 0.950 . S
H2222 C2230 0.950 . S
H2223 C2232 0.950 1_455 S
H2224 C2234 0.950 . S
H2225 C2236 0.950 . S
H2226 C2238 0.950 . S
H2227 C2239 0.950 . S
C2228 H2220 0.950 . S
C2228 C2229 1.386 . S
C2228 C2230 1.391 . S
C2229 C2228 1.386 . S
C2229 C2233 1.393 . S
C2230 H2222 0.950 . S
C2230 C2228 1.391 . S
C2230 C2231 1.400 . S
C2231 C2230 1.400 . S
C2231 C2232 1.398 . S
C2231 C2237 1.491 . S
C2232 H2223 0.950 1_655 S
C2232 C2231 1.398 . S
C2232 C2233 1.391 . S
C2233 H2221 0.950 . S
C2233 C2229 1.393 . S
C2233 C2232 1.391 . S
C2234 H2224 0.950 . S
C2234 C2235 1.386 . S
C2234 C2236 1.391 . S
C2235 C2234 1.386 . S
C2235 C2239 1.393 1_455 S
C2236 H2225 0.950 . S
C2236 C2234 1.391 . S
C2236 C2237 1.400 1_455 S
C2237 C2231 1.491 . S
C2237 C2236 1.400 1_655 S
C2237 C2238 1.398 . S
C2238 H2226 0.950 . S
C2238 C2237 1.398 . S
C2238 C2239 1.391 . S
C2239 H2227 0.950 . S
C2239 C2235 1.393 1_655 S
C2239 C2238 1.391 . S
H2240 C2248 0.950 . S
H2241 C2253 0.950 . S
H2242 C2250 0.950 . S
H2243 C2252 0.950 . S
H2244 C2254 0.950 . S
H2245 C2256 0.950 . S
H2246 C2258 0.950 . S
H2247 C2259 0.950 . S
C2248 H2240 0.950 . S
C2248 C2249 1.386 . S
C2248 C2250 1.391 . S
C2249 C2248 1.386 . S
C2249 C2253 1.393 . S
C2250 H2242 0.950 . S
C2250 C2248 1.391 . S
C2250 C2251 1.400 . S
C2251 C2250 1.400 . S
C2251 C2252 1.398 . S
C2251 C2257 1.491 . S
C2252 H2243 0.950 . S
C2252 C2251 1.398 . S
C2252 C2253 1.391 . S
C2253 H2241 0.950 . S
C2253 C2249 1.393 . S
C2253 C2252 1.391 . S
C2254 H2244 0.950 . S
C2254 C2255 1.386 . S
C2254 C2256 1.391 . S
C2255 C2254 1.386 . S
C2255 C2259 1.393 . S
C2256 H2245 0.950 . S
C2256 C2254 1.391 . S
C2256 C2257 1.400 . S
C2257 C2251 1.491 . S
C2257 C2256 1.400 . S
C2257 C2258 1.398 . S
C2258 H2246 0.950 . S
C2258 C2257 1.398 . S
C2258 C2259 1.391 . S
C2259 H2247 0.950 . S
C2259 C2255 1.393 . S
C2259 C2258 1.391 . S
H2260 C2268 0.950 . S
H2261 C2273 0.950 . S
H2262 C2270 0.950 . S
H2263 C2272 0.950 . S
H2264 C2274 0.950 . S
H2265 C2276 0.950 . S
H2266 C2278 0.950 . S
H2267 C2279 0.950 . S
C2268 H2260 0.950 . S
C2268 C2269 1.386 . S
C2268 C2270 1.391 . S
C2269 C2268 1.386 . S
C2269 C2273 1.393 . S
C2270 H2262 0.950 . S
C2270 C2268 1.391 . S
C2270 C2271 1.400 . S
C2271 C2270 1.400 . S
C2271 C2272 1.398 . S
C2271 C2277 1.491 . S
C2272 H2263 0.950 . S
C2272 C2271 1.398 . S
C2272 C2273 1.391 . S
C2273 H2261 0.950 . S
C2273 C2269 1.393 . S
C2273 C2272 1.391 . S
C2274 H2264 0.950 . S
C2274 C2275 1.386 . S
C2274 C2276 1.391 . S
C2275 C2274 1.386 . S
C2275 C2279 1.393 . S
C2276 H2265 0.950 . S
C2276 C2274 1.391 . S
C2276 C2277 1.400 . S
C2277 C2271 1.491 . S
C2277 C2276 1.400 . S
C2277 C2278 1.398 . S
C2278 H2266 0.950 . S
C2278 C2277 1.398 . S
C2278 C2279 1.391 . S
C2279 H2267 0.950 . S
C2279 C2275 1.393 . S
C2279 C2278 1.391 . S
H2280 C2288 0.950 . S
H2281 C2293 0.950 . S
H2282 C2290 0.950 . S
H2283 C2292 0.950 . S
H2284 C2294 0.950 . S
H2285 C2296 0.950 . S
H2286 C2298 0.950 . S
H2287 C2299 0.950 . S
C2288 H2280 0.950 . S
C2288 C2289 1.386 . S
C2288 C2290 1.391 . S
C2289 C2288 1.386 . S
C2289 C2293 1.393 . S
C2290 H2282 0.950 . S
C2290 C2288 1.391 . S
C2290 C2291 1.400 . S
C2291 C2290 1.400 . S
C2291 C2292 1.398 . S
C2291 C2297 1.491 . S
C2292 H2283 0.950 . S
C2292 C2291 1.398 . S
C2292 C2293 1.391 . S
C2293 H2281 0.950 . S
C2293 C2289 1.393 . S
C2293 C2292 1.391 . S
C2294 H2284 0.950 . S
C2294 C2295 1.386 . S
C2294 C2296 1.391 . S
C2295 C2294 1.386 . S
C2295 C2299 1.393 . S
C2296 H2285 0.950 . S
C2296 C2294 1.391 . S
C2296 C2297 1.400 . S
C2297 C2291 1.491 . S
C2297 C2296 1.400 . S
C2297 C2298 1.398 . S
C2298 H2286 0.950 . S
C2298 C2297 1.398 . S
C2298 C2299 1.391 . S
C2299 H2287 0.950 . S
C2299 C2295 1.393 . S
C2299 C2298 1.391 . S
H2300 C2308 0.950 . S
H2301 C2313 0.950 . S
H2302 C2310 0.950 . S
H2303 C2312 0.950 . S
H2304 C2314 0.950 . S
H2305 C2316 0.950 . S
H2306 C2318 0.950 . S
H2307 C2319 0.950 . S
C2308 H2300 0.950 . S
C2308 C2309 1.386 . S
C2308 C2310 1.391 . S
C2309 C2308 1.386 . S
C2309 C2313 1.393 . S
C2310 H2302 0.950 . S
C2310 C2308 1.391 . S
C2310 C2311 1.400 . S
C2311 C2310 1.400 . S
C2311 C2312 1.398 . S
C2311 C2317 1.491 . S
C2312 H2303 0.950 . S
C2312 C2311 1.398 . S
C2312 C2313 1.391 . S
C2313 H2301 0.950 . S
C2313 C2309 1.393 . S
C2313 C2312 1.391 . S
C2314 H2304 0.950 . S
C2314 C2315 1.386 . S
C2314 C2316 1.391 . S
C2315 C2314 1.386 . S
C2315 C2319 1.393 . S
C2316 H2305 0.950 . S
C2316 C2314 1.391 . S
C2316 C2317 1.400 . S
C2317 C2311 1.491 . S
C2317 C2316 1.400 . S
C2317 C2318 1.398 . S
C2318 H2306 0.950 . S
C2318 C2317 1.398 . S
C2318 C2319 1.391 . S
C2319 H2307 0.950 . S
C2319 C2315 1.393 . S
C2319 C2318 1.391 . S
H2320 C2328 0.950 1_556 S
H2321 C2333 0.950 . S
H2322 C2330 0.950 . S
H2323 C2332 0.950 . S
H2324 C2334 0.950 . S
H2325 C2336 0.950 . S
H2326 C2338 0.950 . S
H2327 C2339 0.950 . S
C2328 H2320 0.950 1_554 S
C2328 C2329 1.386 . S
C2328 C2330 1.391 . S
C2329 C2328 1.386 . S
C2329 C2333 1.393 . S
C2330 H2322 0.950 . S
C2330 C2328 1.391 . S
C2330 C2331 1.400 . S
C2331 C2330 1.400 . S
C2331 C2332 1.398 . S
C2331 C2337 1.491 . S
C2332 H2323 0.950 . S
C2332 C2331 1.398 . S
C2332 C2333 1.391 . S
C2333 H2321 0.950 . S
C2333 C2329 1.393 . S
C2333 C2332 1.391 . S
C2334 H2324 0.950 . S
C2334 C2335 1.386 . S
C2334 C2336 1.391 . S
C2335 C2334 1.386 . S
C2335 C2339 1.393 . S
C2336 H2325 0.950 . S
C2336 C2334 1.391 . S
C2336 C2337 1.400 . S
C2337 C2331 1.491 . S
C2337 C2336 1.400 . S
C2337 C2338 1.398 . S
C2338 H2326 0.950 . S
C2338 C2337 1.398 . S
C2338 C2339 1.391 . S
C2339 H2327 0.950 . S
C2339 C2335 1.393 . S
C2339 C2338 1.391 . S
H2340 C2348 0.950 . S
H2341 C2353 0.950 . S
H2342 C2350 0.950 . S
H2343 C2352 0.950 . S
H2344 C2354 0.950 . S
H2345 C2356 0.950 . S
H2346 C2358 0.950 . S
H2347 C2359 0.950 . S
C2348 H2340 0.950 . S
C2348 C2349 1.386 . S
C2348 C2350 1.391 . S
C2349 C2348 1.386 . S
C2349 C2353 1.393 . S
C2350 H2342 0.950 . S
C2350 C2348 1.391 . S
C2350 C2351 1.400 . S
C2351 C2350 1.400 . S
C2351 C2352 1.398 . S
C2351 C2357 1.491 . S
C2352 H2343 0.950 . S
C2352 C2351 1.398 . S
C2352 C2353 1.391 . S
C2353 H2341 0.950 . S
C2353 C2349 1.393 . S
C2353 C2352 1.391 . S
C2354 H2344 0.950 . S
C2354 C2355 1.386 1_556 S
C2354 C2356 1.391 . S
C2355 C2354 1.386 1_554 S
C2355 C2359 1.393 . S
C2356 H2345 0.950 . S
C2356 C2354 1.391 . S
C2356 C2357 1.400 . S
C2357 C2351 1.491 . S
C2357 C2356 1.400 . S
C2357 C2358 1.398 1_556 S
C2358 H2346 0.950 . S
C2358 C2357 1.398 1_554 S
C2358 C2359 1.391 . S
C2359 H2347 0.950 . S
C2359 C2355 1.393 . S
C2359 C2358 1.391 . S
H2360 C2368 0.950 . S
H2361 C2373 0.950 . S
H2362 C2370 0.950 . S
H2363 C2372 0.950 . S
H2364 C2374 0.950 . S
H2365 C2376 0.950 . S
H2366 C2378 0.950 . S
H2367 C2379 0.950 . S
C2368 H2360 0.950 . S
C2368 C2369 1.386 . S
C2368 C2370 1.391 . S
C2369 C2368 1.386 . S
C2369 C2373 1.393 . S
C2370 H2362 0.950 . S
C2370 C2368 1.391 . S
C2370 C2371 1.400 . S
C2371 C2370 1.400 . S
C2371 C2372 1.398 . S
C2371 C2377 1.491 . S
C2372 H2363 0.950 . S
C2372 C2371 1.398 . S
C2372 C2373 1.391 . S
C2373 H2361 0.950 . S
C2373 C2369 1.393 . S
C2373 C2372 1.391 . S
C2374 H2364 0.950 . S
C2374 C2375 1.386 . S
C2374 C2376 1.391 . S
C2375 C2374 1.386 . S
C2375 C2379 1.393 . S
C2376 H2365 0.950 . S
C2376 C2374 1.391 . S
C2376 C2377 1.400 . S
C2377 C2371 1.491 . S
C2377 C2376 1.400 . S
C2377 C2378 1.398 . S
C2378 H2366 0.950 . S
C2378 C2377 1.398 . S
C2378 C2379 1.391 . S
C2379 H2367 0.950 . S
C2379 C2375 1.393 . S
C2379 C2378 1.391 . S
H2380 C2388 0.950 . S
H2381 C2393 0.950 . S
H2382 C2390 0.950 . S
H2383 C2392 0.950 . S
H2384 C2394 0.950 . S
H2385 C2396 0.950 . S
H2386 C2398 0.950 . S
H2387 C2399 0.950 . S
C2388 H2380 0.950 . S
C2388 C2389 1.386 . S
C2388 C2390 1.391 . S
C2389 C2388 1.386 . S
C2389 C2393 1.393 . S
C2390 H2382 0.950 . S
C2390 C2388 1.391 . S
C2390 C2391 1.400 . S
C2391 C2390 1.400 . S
C2391 C2392 1.398 . S
C2391 C2397 1.491 . S
C2392 H2383 0.950 . S
C2392 C2391 1.398 . S
C2392 C2393 1.391 . S
C2393 H2381 0.950 . S
C2393 C2389 1.393 . S
C2393 C2392 1.391 . S
C2394 H2384 0.950 . S
C2394 C2395 1.386 . S
C2394 C2396 1.391 . S
C2395 C2394 1.386 . S
C2395 C2399 1.393 . S
C2396 H2385 0.950 . S
C2396 C2394 1.391 . S
C2396 C2397 1.400 . S
C2397 C2391 1.491 . S
C2397 C2396 1.400 . S
C2397 C2398 1.398 . S
C2398 H2386 0.950 . S
C2398 C2397 1.398 . S
C2398 C2399 1.391 . S
C2399 H2387 0.950 . S
C2399 C2395 1.393 . S
C2399 C2398 1.391 . S
C969 C2 2.019 . S
C975 C744 2.171 . S
C989 C784 1.337 . S
C995 C42 1.269 . S
C1009 C82 1.893 . S
C1015 C664 2.066 . S
C1029 C122 2.061 . S
C1035 C704 2.229 . S
C1049 C906 0.307 . S
C1055 C162 0.319 . S
C1069 C202 2.635 . S
C1075 C864 2.825 1_556 S
C1089 C944 2.875 . S
C1095 C242 2.676 . S
C1109 C282 0.813 . S
C1115 C826 0.808 . S
C1129 C343 2.371 . S
C1135 C544 2.342 . S
C1149 C362 1.506 . S
C1155 C624 1.636 1_655 S
C1169 C584 2.406 . S
C1175 C423 2.426 . S
C1189 C442 1.609 . S
C1195 C504 1.778 1_455 S
C1209 C503 2.010 . S
C1215 C253 2.164 . S
C1229 C543 1.227 . S
C1235 C293 1.347 . S
C1249 C583 1.900 . S
C1255 C173 2.065 . S
C1269 C213 2.231 . S
C1275 C623 2.070 . S
C1289 C663 0.356 . S
C1295 C417 0.278 . S
C1309 C373 2.825 1_554 S
C1315 C703 2.625 . S
C1329 C453 2.874 . S
C1335 C743 2.674 . S
C1349 C337 0.793 . S
C1355 C783 0.828 . S
C1369 C53 2.345 . S
C1375 C802 2.373 . S
C1389 C133 1.646 1_455 S
C1395 C863 1.475 . S
C1409 C93 2.406 . S
C1415 C882 2.425 . S
C1429 C943 1.612 . S
C1435 C13 1.776 1_655 S
C1449 C184 1.606 . S
C1455 C17 1.599 . S
C1469 C224 1.470 . S
C1475 C57 1.477 . S
C1489 C264 1.323 . S
C1495 C97 1.322 . S
C1509 C304 2.136 . S
C1515 C137 2.134 . S
C1529 C177 0.549 . S
C1535 C346 0.574 . S
C1549 C217 1.754 . S
C1555 C464 1.742 . S
C1569 C257 1.836 . S
C1575 C384 1.828 . S
C1589 C297 0.411 . S
C1595 C426 0.365 . S
C1609 C333 2.652 . S
C1615 C24 2.661 . S
C1629 C377 1.491 . S
C1635 C104 1.500 . S
C1649 C413 2.618 . S
C1655 C144 2.625 . S
C1669 C64 1.508 . S
C1675 C457 1.508 . S
C1689 C653 1.586 . S
C1695 C506 1.582 . S
C1709 C693 1.473 . S
C1715 C546 1.482 . S
C1729 C586 1.321 . S
C1735 C733 1.324 . S
C1749 C626 2.128 . S
C1755 C773 2.130 . S
C1769 C817 0.561 . S
C1775 C666 0.537 . S
C1789 C706 1.755 . S
C1795 C933 1.743 . S
C1809 C853 1.828 . S
C1815 C746 1.837 . S
C1829 C786 0.419 . S
C1835 C897 0.368 . S
C1849 C493 2.661 . S
C1855 C824 2.648 . S
C1869 C866 1.496 . S
C1875 C573 1.502 . S
C1889 C904 2.619 . S
C1895 C613 2.623 . S
C1909 C533 1.509 . S
C1915 C946 1.509 . S
C1929 C23 1.891 . S
C1935 C386 1.886 . S
C1949 C424 3.124 . S
C1955 C63 3.058 . S
C1969 C344 3.144 . S
C1975 C103 3.087 . S
C1989 C466 1.820 . S
C1995 C143 1.821 . S
C2009 C183 1.792 . S
C2015 C146 1.799 . S
C2029 C106 1.076 . S
C2035 C223 1.073 . S
C2049 C263 1.394 . S
C2055 C66 1.393 . S
C2069 C26 1.399 . S
C2075 C303 1.385 . S
C2089 C322 1.551 . S
C2095 C226 1.690 . S
C2109 C383 1.063 . S
C2115 C306 1.077 . S
C2129 C402 1.439 . S
C2135 C266 1.584 . S
C2149 C463 1.492 . S
C2155 C186 1.515 . S
C2169 C482 1.887 . S
C2175 C857 1.882 . S
C2189 C522 3.049 . S
C2195 C893 3.119 . S
C2209 C813 3.145 . S
C2215 C562 3.087 . S
C2229 C937 1.835 . S
C2235 C602 1.836 . S
C2249 C642 1.772 . S
C2255 C617 1.780 . S
C2269 C682 1.052 . S
C2275 C577 1.056 . S
C2289 C537 1.377 . S
C2295 C722 1.376 . S
C2309 C762 1.367 . S
C2315 C497 1.383 . S
C2329 C823 1.538 . S
C2335 C697 1.701 . S
C2349 C777 1.094 . S
C2355 C842 1.082 . S
C2369 C903 1.447 . S
C2375 C737 1.591 . S
C2389 C922 1.496 . S
C2395 C657 1.519 . S
