# Generated by pormake.
# Topology lon, (4)-cn, num edge types: 1
# Building blocks:
#     Node 0, Type 0, BuildingBlock: UXUYUI_clean_sbu_0, # of connection points: 4
#     Node 1, Type 0, BuildingBlock: UXUYUI_clean_sbu_0, # of connection points: 4
#     Node 2, Type 0, BuildingBlock: UXUYUI_clean_sbu_0, # of connection points: 4
#     Node 3, Type 0, BuildingBlock: UXUYUI_clean_sbu_0, # of connection points: 4
#     Edge 4, Type (0, 0), BuildingBlock: EZIPEK_clean_linker_0, # of connection points: 2
#     Edge 5, Type (0, 0), BuildingBlock: EZIPEK_clean_linker_0, # of connection points: 2
#     Edge 6, Type (0, 0), BuildingBlock: EZIPEK_clean_linker_0, # of connection points: 2
#     Edge 7, Type (0, 0), BuildingBlock: EZIPEK_clean_linker_0, # of connection points: 2
#     Edge 8, Type (0, 0), BuildingBlock: EZIPEK_clean_linker_0, # of connection points: 2
#     Edge 9, Type (0, 0), BuildingBlock: EZIPEK_clean_linker_0, # of connection points: 2
#     Edge 10, Type (0, 0), BuildingBlock: EZIPEK_clean_linker_0, # of connection points: 2
#     Edge 11, Type (0, 0), BuildingBlock: EZIPEK_clean_linker_0, # of connection points: 2
# Relax obj value: 0.000
# Max RMSD: 0.004
# Mean RMSD: 0.003
data_MOF--net-lon--node1-UXUYUI_clean_sbu_0--edge1-EZIPEK_clean_linker_0
_symmetry_space_group_name_H-M    P1
_symmetry_Int_Tables_number       1
_symmetry_cell_setting            triclinic
loop_
_symmetry_equiv_pos_as_xyz
'x, y, z'
_cell_length_a     29.654901
_cell_length_b     29.646351
_cell_length_c     48.456323
_cell_angle_alpha  89.888649
_cell_angle_beta   90.06872
_cell_angle_gamma 119.99571
loop_
_atom_site_label
_atom_site_type_symbol
_atom_site_fract_x
_atom_site_fract_y
_atom_site_fract_z
_atom_type_partial_charge
Li0 Li 0.35709 0.67822 0.11018 0.0
Li1 Li 0.37797 0.64834 0.06955 0.0
Li2 Li 0.38464 0.73322 0.07023 0.0
Li3 Li 0.29693 0.65138 0.06885 0.0
C4 C 0.45491 0.72243 0.11538 0.0
N5 N 0.50865 0.74561 0.1648 0.0
C6 C 0.46918 0.68794 0.12671 0.0
C7 C 0.46805 0.76874 0.12924 0.0
C8 C 0.49637 0.70039 0.15168 0.0
C9 C 0.49517 0.77973 0.15419 0.0
C10 C 0.30548 0.5583 0.09072 0.0
C11 C 0.25329 0.47052 0.07372 0.0
N12 N 0.28725 0.45771 0.08523 0.0
C13 C 0.33967 0.54412 0.10253 0.0
C14 C 0.2618 0.52114 0.07627 0.0
C15 C 0.32988 0.49315 0.09945 0.0
C16 C 0.35132 0.71482 0.16354 0.0
N17 N 0.35595 0.6773 0.14986 0.0
C18 C 0.35996 0.63887 0.19259 0.0
C19 C 0.35976 0.63943 0.16377 0.0
C20 C 0.35577 0.67744 0.20709 0.0
C21 C 0.35128 0.71572 0.19236 0.0
H22 H 0.3478 0.74416 0.1521 0.0
H23 H 0.36309 0.60989 0.15253 0.0
C24 C 0.45844 0.62428 0.05738 0.0
N25 N 0.40755 0.60979 0.05323 0.0
C26 C 0.47932 0.59571 0.04552 0.0
C27 C 0.39572 0.53928 0.02442 0.0
C28 C 0.37646 0.56867 0.03675 0.0
C29 C 0.44754 0.55255 0.02899 0.0
H30 H 0.48293 0.65821 0.0697 0.0
H31 H 0.33658 0.55875 0.03313 0.0
C32 C 0.31555 0.75635 0.09099 0.0
N33 N 0.30475 0.84322 0.08478 0.0
C34 C 0.27459 0.75352 0.07531 0.0
C35 C 0.35072 0.80332 0.10372 0.0
C36 C 0.26983 0.79786 0.0724 0.0
C37 C 0.34473 0.84682 0.10024 0.0
C38 C 0.3774 0.67878 0.01743 0.0
C39 C 0.4311 0.71196 0.0148 0.0
C40 C 0.34978 0.64351 0.99634 0.0
C41 C 0.45634 0.7093 0.99106 0.0
C42 C 0.37645 0.64206 0.97292 0.0
N43 N 0.42873 0.67468 0.97079 0.0
C44 C 0.47145 0.83552 0.06269 0.0
C45 C 0.39487 0.81809 0.03847 0.0
C46 C 0.49732 0.88676 0.05293 0.0
N47 N 0.42085 0.80272 0.05578 0.0
C48 C 0.41908 0.86911 0.02844 0.0
C49 C 0.47078 0.90405 0.03587 0.0
H50 H 0.49177 0.82193 0.07574 0.0
H51 H 0.35507 0.79085 0.03277 0.0
C52 C 0.18789 0.5948 0.07518 0.0
N53 N 0.22681 0.61979 0.05644 0.0
C54 C 0.13589 0.57021 0.06673 0.0
C55 C 0.16506 0.59811 0.01994 0.0
C56 C 0.2165 0.62234 0.02931 0.0
C57 C 0.12429 0.57157 0.0388 0.0
H58 H 0.19738 0.59364 0.09663 0.0
H59 H 0.24821 0.6432 0.01497 0.0
O60 O 0.42699 0.71028 0.09131 0.0
O61 O 0.31464 0.6082 0.09321 0.0
O62 O 0.32123 0.71347 0.09375 0.0
O63 O 0.35239 0.67954 0.04098 0.0
H64 H 0.4587 0.65154 0.11662 0.0
H65 H 0.45675 0.79558 0.12109 0.0
H66 H 0.50739 0.6739 0.16072 0.0
H67 H 0.50523 0.81525 0.1652 0.0
H68 H 0.21977 0.44147 0.0625 0.0
H69 H 0.37413 0.57242 0.11334 0.0
H70 H 0.23497 0.53128 0.0669 0.0
H71 H 0.35634 0.48186 0.10823 0.0
H72 H 0.3634 0.60878 0.20347 0.0
H73 H 0.3478 0.74587 0.20307 0.0
H74 H 0.51972 0.6072 0.04908 0.0
H75 H 0.37046 0.50645 1.01149 0.0
H76 H 0.24688 0.71762 0.06536 0.0
H77 H 0.38288 0.80649 0.11574 0.0
H78 H 0.23844 0.79623 0.06025 0.0
H79 H 0.37199 0.88351 0.10974 0.0
H80 H 0.45323 0.73886 0.03112 0.0
H81 H 0.30837 0.61691 0.99823 0.0
H82 H 0.49793 0.73455 0.98881 0.0
H83 H 0.35564 0.61477 0.95651 0.0
H84 H 0.53746 0.91277 0.05876 0.0
H85 H 0.39775 0.88129 0.01513 0.0
H86 H 0.10507 0.54998 0.0817 0.0
H87 H 0.1571 0.59991 0.99827 0.0
Li88 Li 0.66139 0.3686 0.56749 0.0
Li89 Li 0.74125 0.37197 0.5688 0.0
Li90 Li 0.66047 0.2864 0.56676 0.0
Li91 Li 0.68924 0.34532 0.61061 0.0
C92 C 0.67295 0.35329 0.51496 0.0
N93 N 0.63756 0.37709 0.4674 0.0
C94 C 0.69768 0.40439 0.50499 0.0
C95 C 0.63058 0.31416 0.50056 0.0
C96 C 0.67905 0.41569 0.48099 0.0
C97 C 0.61324 0.32701 0.47658 0.0
C98 C 0.76514 0.45908 0.5958 0.0
C99 C 0.83871 0.51627 0.6241 0.0
N100 N 0.85782 0.55126 0.60302 0.0
C101 C 0.78519 0.49589 0.57454 0.0
C102 C 0.79186 0.46947 0.62088 0.0
C103 C 0.83225 0.54212 0.57854 0.0
C104 C 0.64171 0.45231 0.56212 0.0
N105 N 0.62411 0.40216 0.55434 0.0
C106 C 0.55486 0.40125 0.52848 0.0
C107 C 0.58127 0.37634 0.53799 0.0
C108 C 0.57264 0.45302 0.53602 0.0
C109 C 0.61641 0.47871 0.5531 0.0
H110 H 0.67535 0.47184 0.5754 0.0
H111 H 0.56746 0.33634 0.53235 0.0
C112 C 0.82078 0.40906 0.52829 0.0
N113 N 0.81228 0.40744 0.55596 0.0
C114 C 0.87151 0.43385 0.51791 0.0
C115 C 0.90401 0.45429 0.56465 0.0
C116 C 0.8527 0.42908 0.57413 0.0
C117 C 0.91362 0.45685 0.53624 0.0
H118 H 0.78818 0.39078 0.51426 0.0
H119 H 0.8452 0.42652 0.59603 0.0
C120 C 0.57203 0.3023 0.59209 0.0
N121 N 0.4763 0.29692 0.59199 0.0
C122 C 0.56403 0.33675 0.60818 0.0
C123 C 0.53125 0.26483 0.57612 0.0
C124 C 0.5154 0.33355 0.60777 0.0
C125 C 0.48313 0.26275 0.57634 0.0
C126 C 0.76578 0.30496 0.59056 0.0
C127 C 0.77659 0.28619 0.56651 0.0
C128 C 0.8009 0.32124 0.61259 0.0
C129 C 0.82275 0.28451 0.56477 0.0
C130 C 0.84656 0.3188 0.61008 0.0
N131 N 0.85649 0.30072 0.58641 0.0
C132 C 0.64092 0.20451 0.52992 0.0
C133 C 0.5899 0.1785 0.57074 0.0
C134 C 0.61583 0.15319 0.5204 0.0
N135 N 0.62729 0.21612 0.55457 0.0
C136 C 0.56375 0.12667 0.562 0.0
C137 C 0.57662 0.11381 0.53651 0.0
H138 H 0.67092 0.23524 0.51754 0.0
H139 H 0.58008 0.18892 0.5903 0.0
C140 C 0.67657 0.37798 0.66334 0.0
N141 N 0.68742 0.34434 0.64984 0.0
C142 C 0.67534 0.37829 0.69216 0.0
C143 C 0.69712 0.3098 0.69263 0.0
C144 C 0.6972 0.3103 0.66379 0.0
C145 C 0.68604 0.34411 0.70707 0.0
H146 H 0.66934 0.40488 0.6517 0.0
H147 H 0.70524 0.28367 0.65251 0.0
O148 O 0.69026 0.34159 0.53861 0.0
O149 O 0.71933 0.41337 0.5922 0.0
O150 O 0.6197 0.3056 0.59174 0.0
O151 O 0.72152 0.30829 0.59229 0.0
H152 H 0.73071 0.43505 0.51575 0.0
H153 H 0.61066 0.27449 0.50807 0.0
H154 H 0.69757 0.45515 0.47317 0.0
H155 H 0.58024 0.2972 0.46536 0.0
H156 H 0.86 0.52465 0.64332 0.0
H157 H 0.76479 0.48871 0.55512 0.0
H158 H 0.77705 0.44144 0.63755 0.0
H159 H 0.84844 0.57074 0.56217 0.0
H160 H 0.52096 0.38043 0.51539 0.0
H161 H 0.63081 0.51869 0.55932 0.0
H162 H 0.8779 0.43504 0.49585 0.0
H163 H 0.93587 0.47146 0.57928 0.0
H164 H 0.5953 0.36621 0.62048 0.0
H165 H 0.5369 0.23815 0.56336 0.0
H166 H 0.5088 0.36029 0.61991 0.0
H167 H 0.45131 0.23417 0.56395 0.0
H168 H 0.75002 0.27388 0.5492 0.0
H169 H 0.79344 0.33645 0.63124 0.0
H170 H 0.83185 0.27052 0.54618 0.0
H171 H 0.87427 0.33159 0.62689 0.0
H172 H 0.62655 0.14428 0.50064 0.0
H173 H 0.53362 0.09697 0.57484 0.0
H174 H 0.66669 0.40523 0.70274 0.0
H175 H 0.70546 0.28293 0.70359 0.0
Li176 Li 0.38022 0.72988 0.46281 0.0
Li177 Li 0.35713 0.67845 0.42355 0.0
Li178 Li 0.29705 0.6496 0.4633 0.0
Li179 Li 0.38485 0.64903 0.46338 0.0
C180 C 0.31355 0.75373 0.44034 0.0
N181 N 0.30555 0.84254 0.44358 0.0
C182 C 0.34668 0.79777 0.42478 0.0
C183 C 0.27591 0.75465 0.4573 0.0
C184 C 0.34221 0.84237 0.42681 0.0
C185 C 0.27254 0.79995 0.45868 0.0
C186 C 0.45982 0.72615 0.41992 0.0
C187 C 0.51682 0.71065 0.39098 0.0
N188 N 0.52562 0.75205 0.37501 0.0
C189 C 0.46988 0.76888 0.40339 0.0
C190 C 0.48374 0.69697 0.4138 0.0
C191 C 0.50305 0.78119 0.3807 0.0
C192 C 0.46622 0.83135 0.47062 0.0
N193 N 0.41512 0.79986 0.47709 0.0
C194 C 0.41501 0.86783 0.5036 0.0
C195 C 0.38948 0.81697 0.49347 0.0
C196 C 0.46742 0.90109 0.49689 0.0
C197 C 0.49328 0.88252 0.48032 0.0
H198 H 0.48607 0.81671 0.458 0.0
H199 H 0.34919 0.79116 0.49875 0.0
C200 C 0.33318 0.69979 0.37014 0.0
N201 N 0.35738 0.67766 0.3838 0.0
C202 C 0.33237 0.70025 0.34132 0.0
C203 C 0.38087 0.65463 0.34105 0.0
C204 C 0.3806 0.65489 0.36985 0.0
C205 C 0.35662 0.67762 0.3266 0.0
H206 H 0.31428 0.71689 0.38162 0.0
H207 H 0.3988 0.63673 0.38105 0.0
C208 C 0.36914 0.7014 0.5157 0.0
N209 N 0.40337 0.76009 0.56333 0.0
C210 C 0.42155 0.72504 0.52329 0.0
C211 C 0.33401 0.70718 0.53244 0.0
C212 C 0.43814 0.75474 0.5474 0.0
C213 C 0.35211 0.73706 0.55644 0.0
C214 C 0.30171 0.57522 0.41906 0.0
C215 C 0.25885 0.57052 0.40452 0.0
C216 C 0.32587 0.54755 0.41037 0.0
C217 C 0.24124 0.53863 0.38121 0.0
C218 C 0.30696 0.51593 0.387 0.0
N219 N 0.26546 0.51224 0.373 0.0
C220 C 0.18872 0.61228 0.46014 0.0
C221 C 0.21646 0.58838 0.50078 0.0
C222 C 0.13721 0.58644 0.46941 0.0
N223 N 0.22704 0.61305 0.47595 0.0
C224 C 0.1655 0.5621 0.51086 0.0
C225 C 0.1254 0.56123 0.49509 0.0
H226 H 0.19832 0.63222 0.44046 0.0
H227 H 0.24772 0.58943 0.51282 0.0
C228 C 0.47012 0.641 0.48346 0.0
N229 N 0.41847 0.61351 0.47734 0.0
C230 C 0.4957 0.61542 0.49331 0.0
C231 C 0.41429 0.53386 0.49073 0.0
C232 C 0.39026 0.56101 0.48093 0.0
C233 C 0.46761 0.56126 0.49692 0.0
H234 H 0.49151 0.68274 0.48041 0.0
H235 H 0.34917 0.54027 0.47602 0.0
O236 O 0.31774 0.70988 0.43887 0.0
O237 O 0.427 0.71316 0.44207 0.0
O238 O 0.35244 0.6733 0.49182 0.0
O239 O 0.32038 0.60734 0.44148 0.0
H240 H 0.37571 0.79761 0.41139 0.0
H241 H 0.25018 0.72113 0.46965 0.0
H242 H 0.36789 0.87686 0.41505 0.0
H243 H 0.24387 0.80134 0.47188 0.0
H244 H 0.53526 0.68816 0.38589 0.0
H245 H 0.45205 0.79212 0.40793 0.0
H246 H 0.47617 0.66357 0.42621 0.0
H247 H 0.51083 0.81389 0.3676 0.0
H248 H 0.39419 0.88114 0.5165 0.0
H249 H 0.53388 0.90738 0.47495 0.0
H250 H 0.31308 0.71802 0.33061 0.0
H251 H 0.3996 0.63657 0.33015 0.0
H252 H 0.44924 0.72118 0.51045 0.0
H253 H 0.29336 0.68941 0.52675 0.0
H254 H 0.47869 0.77369 0.55339 0.0
H255 H 0.32545 0.74217 0.56951 0.0
H256 H 0.23997 0.59195 0.41091 0.0
H257 H 0.35931 0.55105 0.42131 0.0
H258 H 0.20842 0.535 0.36958 0.0
H259 H 0.32547 0.49454 0.37991 0.0
H260 H 0.10695 0.58633 0.45682 0.0
H261 H 0.1574 0.5429 0.53076 0.0
H262 H 0.53692 0.63749 0.49795 0.0
H263 H 0.3917 0.492 0.49336 0.0
Li264 Li 0.65698 0.29056 0.9655 0.0
Li265 Li 0.65457 0.37251 0.96554 0.0
Li266 Li 0.68711 0.34578 0.92364 0.0
Li267 Li 0.74009 0.37843 0.96598 0.0
C268 C 0.5699 0.26909 0.93404 0.0
N269 N 0.47521 0.18336 0.92058 0.0
C270 C 0.52429 0.26108 0.94688 0.0
C271 C 0.56721 0.23402 0.91398 0.0
C272 C 0.47683 0.21736 0.93991 0.0
C273 C 0.51901 0.19078 0.90756 0.0
C274 C 0.67386 0.35932 0.01952 0.0
C275 C 0.69092 0.42395 0.05434 0.0
N276 N 0.65337 0.38653 0.07053 0.0
C277 C 0.63581 0.3214 0.03661 0.0
C278 C 0.70198 0.41092 0.02852 0.0
C279 C 0.62588 0.33597 0.06229 0.0
C280 C 0.64944 0.19366 0.97862 0.0
N281 N 0.62323 0.22044 0.97893 0.0
C282 C 0.5481 0.14692 0.99818 0.0
C283 C 0.57377 0.19842 0.98885 0.0
C284 C 0.574 0.11826 0.99764 0.0
C285 C 0.62535 0.14212 0.9879 0.0
H286 H 0.68911 0.21234 0.97124 0.0
H287 H 0.55434 0.22096 0.98972 0.0
C288 C 0.623 0.4483 0.96462 0.0
N289 N 0.61426 0.40336 0.97674 0.0
C290 C 0.59083 0.46902 0.97046 0.0
C291 C 0.54345 0.399 1.00245 0.0
C292 C 0.57623 0.37937 0.99591 0.0
C293 C 0.54678 0.44197 0.98781 0.0
H294 H 0.65468 0.46789 0.95011 0.0
H295 H 0.57071 0.34439 1.00592 0.0
C296 C 0.74241 0.29199 0.92737 0.0
N297 N 0.78187 0.24672 0.89232 0.0
C298 C 0.7961 0.31548 0.92309 0.0
C299 C 0.70889 0.24506 0.91416 0.0
C300 C 0.81527 0.2921 0.90521 0.0
C301 C 0.72955 0.22291 0.89642 0.0
C302 C 0.75469 0.46545 0.93748 0.0
C303 C 0.78285 0.48004 0.9128 0.0
C304 C 0.76676 0.50244 0.95822 0.0
C305 C 0.8234 0.53128 0.90952 0.0
C306 C 0.80762 0.55327 0.95417 0.0
N307 N 0.8349 0.5665 0.93011 0.0
C308 C 0.64578 0.34094 0.87064 0.0
C309 C 0.73036 0.35122 0.87009 0.0
C310 C 0.64435 0.34079 0.84181 0.0
N311 N 0.68817 0.34565 0.88415 0.0
C312 C 0.73034 0.35063 0.84127 0.0
C313 C 0.68692 0.34536 0.82687 0.0
H314 H 0.61311 0.33747 0.88229 0.0
H315 H 0.76433 0.35677 0.88116 0.0
C316 C 0.8187 0.4107 1.00682 0.0
N317 N 0.80993 0.4158 0.97972 0.0
C318 C 0.86939 0.43619 0.01733 0.0
C319 C 0.90116 0.47166 0.9719 0.0
C320 C 0.84995 0.44517 0.96222 0.0
C321 C 0.91111 0.46706 0.99972 0.0
H322 H 0.7864 0.38629 0.02019 0.0
H323 H 0.84229 0.44726 0.94061 0.0
O324 O 0.61677 0.31151 0.94076 0.0
O325 O 0.68399 0.34579 0.99428 0.0
O326 O 0.72298 0.31462 0.94464 0.0
O327 O 0.71498 0.41541 0.94108 0.0
H328 H 0.52556 0.28807 0.96225 0.0
H329 H 0.60185 0.24032 0.90332 0.0
H330 H 0.4413 0.21045 0.94986 0.0
H331 H 0.51642 0.16321 0.89216 0.0
H332 H 0.71229 0.46378 0.06153 0.0
H333 H 0.61401 0.2812 0.03006 0.0
H334 H 0.7322 0.4405 0.01578 0.0
H335 H 0.59634 0.30709 0.07567 0.0
H336 H 0.5086 0.12964 1.00584 0.0
H337 H 0.64645 0.12104 0.98746 0.0
H338 H 0.60152 0.50631 0.9614 0.0
H339 H 0.51659 0.38016 0.01919 0.0
H340 H 0.82267 0.35151 0.93334 0.0
H341 H 0.66741 0.22573 0.91771 0.0
H342 H 0.8567 0.31003 0.90158 0.0
H343 H 0.70401 0.18669 0.88599 0.0
H344 H 0.77374 0.45203 0.89644 0.0
H345 H 0.74468 0.49211 0.97719 0.0
H346 H 0.84575 0.54303 0.8906 0.0
H347 H 0.81754 0.58224 0.97011 0.0
H348 H 0.61043 0.33705 0.83125 0.0
H349 H 0.764 0.35476 0.83029 0.0
H350 H 0.87609 0.43167 0.03888 0.0
H351 H 0.93276 0.49479 0.95778 0.0
C352 C 0.3104 0.64194 0.25233 0.0
C353 C 0.35595 0.67764 0.23774 0.0
C354 C 0.4005 0.71601 0.28142 0.0
C355 C 0.35637 0.67769 0.29598 0.0
N356 N 0.27229 0.5995 0.29589 0.0
N357 N 0.44679 0.74362 0.23785 0.0
C358 C 0.3121 0.63929 0.28159 0.0
C359 C 0.40172 0.71338 0.25214 0.0
N360 N 0.26509 0.61172 0.23824 0.0
N361 N 0.44065 0.75562 0.29559 0.0
H362 H 0.44905 0.74307 0.21639 0.0
H363 H 0.48284 0.76627 0.24725 0.0
H364 H 0.44152 0.75827 0.31707 0.0
H365 H 0.47125 0.78794 0.28608 0.0
H366 H 0.22922 0.58911 0.24782 0.0
H367 H 0.26244 0.61232 0.21679 0.0
H368 H 0.24168 0.56711 0.28647 0.0
H369 H 0.27181 0.59672 0.31737 0.0
C370 C 0.72455 0.38865 0.75224 0.0
C371 C 0.68602 0.34449 0.73779 0.0
C372 C 0.65136 0.29906 0.78173 0.0
C373 C 0.68631 0.34514 0.79616 0.0
N374 N 0.74919 0.43707 0.79508 0.0
N375 N 0.60638 0.26147 0.73881 0.0
C376 C 0.72096 0.39094 0.78139 0.0
C377 C 0.64756 0.3007 0.75255 0.0
N378 N 0.76566 0.42759 0.73827 0.0
N379 N 0.62313 0.25326 0.79578 0.0
H380 H 0.60171 0.2616 0.71747 0.0
H381 H 0.5744 0.23129 0.74879 0.0
H382 H 0.62535 0.25023 0.81713 0.0
H383 H 0.60126 0.21742 0.78603 0.0
H384 H 0.79768 0.45799 0.74809 0.0
H385 H 0.77028 0.42699 0.71696 0.0
H386 H 0.77089 0.47269 0.78505 0.0
H387 H 0.74705 0.44057 0.81639 0.0
C388 C 0.49685 0.53789 0.99118 0.0
C389 C 0.46803 0.521 0.01613 0.0
C390 C 0.46847 0.43897 1.01268 0.0
C391 C 0.50866 0.46171 0.99266 0.0
N392 N 0.52273 0.50977 0.95044 0.0
N393 N 0.42528 0.45398 0.05077 0.0
C394 C 0.5126 0.50513 0.97807 0.0
C395 C 0.45327 0.47097 0.02688 0.0
N396 N 0.50932 0.58503 0.97998 0.0
N397 N 0.43847 0.38614 0.01443 0.0
H398 H 0.41313 0.47613 0.06187 0.0
H399 H 0.41791 0.41955 0.06051 0.0
H400 H 0.44192 0.36185 1.00004 0.0
H401 H 0.40566 0.36749 0.02702 0.0
H402 H 0.53503 0.60136 0.96347 0.0
H403 H 0.49655 0.60917 0.98826 0.0
H404 H 0.52138 0.53782 0.93804 0.0
H405 H 0.52497 0.48068 0.93945 0.0
C406 C 0.0409 0.47925 0.50478 0.0
C407 C 0.07108 0.53442 0.50563 0.0
C408 C 0.99659 0.53877 0.52446 0.0
C409 C 0.96788 0.48357 0.5257 0.0
N410 N 0.96458 0.40098 0.52122 0.0
N411 N 0.08115 0.61676 0.52009 0.0
C412 C 0.99057 0.45367 0.51701 0.0
C413 C 0.04987 0.56425 0.51652 0.0
N414 N 0.05977 0.45142 0.49154 0.0
N415 N 0.97245 0.56674 0.53013 0.0
H416 H 0.12031 0.63687 0.51438 0.0
H417 H 0.06961 0.6398 0.5307 0.0
H418 H 0.93361 0.54947 0.5363 0.0
H419 H 0.98951 0.60663 0.52664 0.0
H420 H 0.03751 0.41169 0.48755 0.0
H421 H 0.0966 0.46879 0.48248 0.0
H422 H 0.9813 0.37776 0.51817 0.0
H423 H 0.92747 0.38084 0.52993 0.0
C424 C 0.53191 0.02223 0.98809 0.0
C425 C 0.54742 0.06332 1.00741 0.0
C426 C 0.50772 0.99962 0.04487 0.0
C427 C 0.49701 0.95891 0.02599 0.0
N428 N 0.50655 0.9318 0.98051 0.0
N429 N 0.55824 0.09196 0.05476 0.0
C430 C 0.51122 0.97029 0.99781 0.0
C431 C 0.53758 0.05226 0.036 0.0
N432 N 0.53535 0.03262 0.96043 0.0
N433 N 0.48786 0.98797 0.07104 0.0
H434 H 0.58058 0.13104 0.04909 0.0
H435 H 0.55717 0.08598 0.07599 0.0
H436 H 0.46543 0.94987 0.07826 0.0
H437 H 0.48961 0.01579 0.08476 0.0
H438 H 0.51946 1.00372 0.9454 0.0
H439 H 0.55003 0.07013 0.9525 0.0
H440 H 0.52146 0.93882 0.96052 0.0
H441 H 0.49179 0.89332 0.98688 0.0
C442 C 0.51052 0.48607 0.54367 0.0
C443 C 0.54543 0.48043 0.52596 0.0
C444 C 0.52563 0.52354 0.48849 0.0
C445 C 0.49422 0.53316 0.50692 0.0
N446 N 0.46229 0.53061 0.55296 0.0
N447 N 0.59228 0.49961 0.48293 0.0
C448 C 0.48812 0.51631 0.53479 0.0
C449 C 0.55467 0.50077 0.49872 0.0
N450 N 0.49768 0.46128 0.56867 0.0
N451 N 0.52641 0.53474 0.46104 0.0
H452 H 0.61388 0.48264 0.48958 0.0
H453 H 0.60499 0.51893 0.46411 0.0
H454 H 0.50592 0.55177 0.45281 0.0
H455 H 0.54389 0.52345 0.44605 0.0
H456 H 0.46818 0.45906 0.58124 0.0
H457 H 0.51371 0.43922 0.57598 0.0
H458 H 0.46143 0.52453 0.57417 0.0
H459 H 0.44501 0.55239 0.54716 0.0
C460 C 0.04637 0.49258 0.01945 0.0
C461 C 0.06938 0.54457 0.02919 0.0
C462 C 0.98727 0.54416 0.02176 0.0
C463 C 0.96545 0.49355 1.0102 0.0
N464 N 0.97472 0.42117 0.9951 0.0
N465 N 0.06493 0.62247 0.03707 0.0
C466 C 0.99516 0.46817 1.00824 0.0
C467 C 0.04065 0.57109 0.02969 0.0
N468 N 0.07312 0.4662 0.02157 0.0
N469 N 0.95657 0.56599 0.02556 0.0
H470 H 0.10357 0.64303 0.04367 0.0
H471 H 0.04817 0.64587 0.03498 0.0
H472 H 0.91782 0.54813 0.01916 0.0
H473 H 0.96815 0.60008 0.03665 0.0
H474 H 0.05669 0.42651 0.01779 0.0
H475 H 0.11116 0.48321 0.02904 0.0
H476 H 0.99623 0.40337 0.99004 0.0
H477 H 0.9367 0.40117 0.98755 0.0
C478 C 0.56008 0.02201 0.53786 0.0
C479 C 0.54847 0.05918 0.52647 0.0
C480 C 0.48665 0.9936 0.49426 0.0
C481 C 0.4952 0.95551 0.50716 0.0
N482 N 0.53338 0.93077 0.54392 0.0
N483 N 0.49507 0.07914 0.49705 0.0
C484 C 0.53009 0.96896 0.52974 0.0
C485 C 0.51015 0.04464 0.50553 0.0
N486 N 0.60085 0.03776 0.5558 0.0
N487 N 0.45727 0.98135 0.47076 0.0
H488 H 0.51153 0.11696 0.50475 0.0
H489 H 0.46339 0.0691 0.48411 0.0
H490 H 0.439 0.94423 0.46203 0.0
H491 H 0.45432 1.00881 0.45865 0.0
H492 H 0.61492 1.0137 0.56248 0.0
H493 H 0.62353 0.07625 0.56234 0.0
H494 H 0.5537 0.93726 0.56238 0.0
H495 H 0.51224 0.89152 0.53846 0.0
loop_
_geom_bond_atom_site_label_1
_geom_bond_atom_site_label_2
_geom_bond_distance
_geom_bond_site_symmetry_2
_ccdc_geom_bond_type
Li0 N17 1.990 . S
Li0 O60 1.956 . S
Li0 O61 1.970 . S
Li0 O62 1.961 . S
Li1 N25 1.990 . S
Li1 O60 1.970 . S
Li1 O61 1.956 . S
Li1 O63 1.961 . S
Li2 N47 1.990 . S
Li2 O60 1.961 . S
Li2 O62 1.956 . S
Li2 O63 1.970 . S
Li3 N53 1.990 . S
Li3 O61 1.961 . S
Li3 O62 1.970 . S
Li3 O63 1.956 . S
C4 C6 1.348 . S
C4 C7 1.356 . S
C4 O60 1.325 . S
N5 C8 1.314 . S
N5 C9 1.279 . S
C6 C4 1.348 . S
C6 C8 1.353 . S
C6 H64 0.929 . S
C7 C4 1.356 . S
C7 C9 1.358 . S
C7 H65 0.930 . S
C8 N5 1.314 . S
C8 C6 1.353 . S
C8 H66 0.930 . S
C9 N5 1.279 . S
C9 C7 1.358 . S
C9 H67 0.930 . S
C10 C13 1.348 . S
C10 C14 1.356 . S
C10 O61 1.325 . S
C11 N12 1.279 . S
C11 C14 1.358 . S
C11 H68 0.930 . S
N12 C11 1.279 . S
N12 C15 1.314 . S
C13 C10 1.348 . S
C13 C15 1.353 . S
C13 H69 0.929 . S
C14 C10 1.356 . S
C14 C11 1.358 . S
C14 H70 0.930 . S
C15 N12 1.314 . S
C15 C13 1.353 . S
C15 H71 0.930 . S
C16 N17 1.314 . S
C16 C21 1.353 . S
C16 H22 0.930 . S
N17 Li0 1.990 . S
N17 C16 1.314 . S
N17 C19 1.279 . S
C18 C19 1.358 . S
C18 C20 1.356 . S
C18 H72 0.930 . S
C19 N17 1.279 . S
C19 C18 1.358 . S
C19 H23 0.930 . S
C20 C18 1.356 . S
C20 C21 1.348 . S
C21 C16 1.353 . S
C21 C20 1.348 . S
C21 H73 0.929 . S
H22 C16 0.930 . S
H23 C19 0.930 . S
C24 N25 1.314 . S
C24 C26 1.353 . S
C24 H30 0.930 . S
N25 Li1 1.990 . S
N25 C24 1.314 . S
N25 C28 1.279 . S
C26 C24 1.353 . S
C26 C29 1.348 . S
C26 H74 0.929 1_554 S
C27 C28 1.358 . S
C27 C29 1.356 . S
C27 H75 0.930 . S
C28 N25 1.279 . S
C28 C27 1.358 . S
C28 H31 0.930 . S
C29 C26 1.348 . S
C29 C27 1.356 . S
H30 C24 0.930 . S
H31 C28 0.930 . S
C32 C34 1.348 . S
C32 C35 1.356 . S
C32 O62 1.325 . S
N33 C36 1.314 . S
N33 C37 1.279 . S
C34 C32 1.348 . S
C34 C36 1.353 . S
C34 H76 0.929 . S
C35 C32 1.356 . S
C35 C37 1.358 . S
C35 H77 0.930 . S
C36 N33 1.314 . S
C36 C34 1.353 . S
C36 H78 0.930 . S
C37 N33 1.279 . S
C37 C35 1.358 . S
C37 H79 0.930 . S
C38 C39 1.333 1_554 S
C38 C40 1.342 1_554 S
C38 O63 1.352 . S
C39 C38 1.333 1_556 S
C39 C41 1.353 . S
C39 H80 0.929 . S
C40 C38 1.342 1_556 S
C40 C42 1.358 . S
C40 H81 0.930 . S
C41 C39 1.353 . S
C41 N43 1.314 . S
C41 H82 0.930 . S
C42 C40 1.358 . S
C42 N43 1.279 . S
C42 H83 0.930 . S
N43 C41 1.314 . S
N43 C42 1.279 . S
C44 C46 1.353 . S
C44 N47 1.314 . S
C44 H50 0.930 . S
C45 N47 1.279 . S
C45 C48 1.358 . S
C45 H51 0.930 . S
C46 C44 1.353 . S
C46 C49 1.348 . S
C46 H84 0.929 . S
N47 Li2 1.990 . S
N47 C44 1.314 . S
N47 C45 1.279 . S
C48 C45 1.358 . S
C48 C49 1.356 . S
C48 H85 0.930 . S
C49 C46 1.348 . S
C49 C48 1.356 . S
H50 C44 0.930 . S
H51 C45 0.930 . S
C52 N53 1.314 . S
C52 C54 1.353 . S
C52 H58 0.930 . S
N53 Li3 1.990 . S
N53 C52 1.314 . S
N53 C56 1.279 . S
C54 C52 1.353 . S
C54 C57 1.348 . S
C54 H86 0.929 . S
C55 C56 1.358 . S
C55 C57 1.356 . S
C55 H87 0.930 1_554 S
C56 N53 1.279 . S
C56 C55 1.358 . S
C56 H59 0.932 1_554 S
C57 C54 1.348 . S
C57 C55 1.356 . S
H58 C52 0.930 . S
H59 C56 0.932 1_556 S
O60 Li0 1.956 . S
O60 Li1 1.970 . S
O60 Li2 1.961 . S
O60 C4 1.325 . S
O61 Li0 1.970 . S
O61 Li1 1.956 . S
O61 Li3 1.961 . S
O61 C10 1.325 . S
O62 Li0 1.961 . S
O62 Li2 1.956 . S
O62 Li3 1.970 . S
O62 C32 1.325 . S
O63 Li1 1.961 . S
O63 Li2 1.970 . S
O63 Li3 1.956 . S
O63 C38 1.352 . S
H64 C6 0.929 . S
H65 C7 0.930 . S
H66 C8 0.930 . S
H67 C9 0.930 . S
H68 C11 0.930 . S
H69 C13 0.929 . S
H70 C14 0.930 . S
H71 C15 0.930 . S
H72 C18 0.930 . S
H73 C21 0.929 . S
H74 C26 0.929 1_556 S
H75 C27 0.930 . S
H76 C34 0.929 . S
H77 C35 0.930 . S
H78 C36 0.930 . S
H79 C37 0.930 . S
H80 C39 0.929 . S
H81 C40 0.930 . S
H82 C41 0.930 . S
H83 C42 0.930 . S
H84 C46 0.929 . S
H85 C48 0.930 . S
H86 C54 0.929 . S
H87 C55 0.930 1_556 S
Li88 N105 1.990 . S
Li88 O148 1.956 . S
Li88 O149 1.970 . S
Li88 O150 1.961 . S
Li89 N113 1.990 . S
Li89 O148 1.970 . S
Li89 O149 1.956 . S
Li89 O151 1.961 . S
Li90 N135 1.990 . S
Li90 O148 1.961 . S
Li90 O150 1.956 . S
Li90 O151 1.970 . S
Li91 N141 1.990 . S
Li91 O149 1.961 . S
Li91 O150 1.970 . S
Li91 O151 1.956 . S
C92 C94 1.348 . S
C92 C95 1.356 . S
C92 O148 1.325 . S
N93 C96 1.314 . S
N93 C97 1.279 . S
C94 C92 1.348 . S
C94 C96 1.353 . S
C94 H152 0.929 . S
C95 C92 1.356 . S
C95 C97 1.358 . S
C95 H153 0.930 . S
C96 N93 1.314 . S
C96 C94 1.353 . S
C96 H154 0.930 . S
C97 N93 1.279 . S
C97 C95 1.358 . S
C97 H155 0.930 . S
C98 C101 1.348 . S
C98 C102 1.356 . S
C98 O149 1.325 . S
C99 N100 1.279 . S
C99 C102 1.358 . S
C99 H156 0.930 . S
N100 C99 1.279 . S
N100 C103 1.314 . S
C101 C98 1.348 . S
C101 C103 1.353 . S
C101 H157 0.929 . S
C102 C98 1.356 . S
C102 C99 1.358 . S
C102 H158 0.930 . S
C103 N100 1.314 . S
C103 C101 1.353 . S
C103 H159 0.930 . S
C104 N105 1.314 . S
C104 C109 1.353 . S
C104 H110 0.930 . S
N105 Li88 1.990 . S
N105 C104 1.314 . S
N105 C107 1.279 . S
C106 C107 1.358 . S
C106 C108 1.356 . S
C106 H160 0.930 . S
C107 N105 1.279 . S
C107 C106 1.358 . S
C107 H111 0.930 . S
C108 C106 1.356 . S
C108 C109 1.348 . S
C109 C104 1.353 . S
C109 C108 1.348 . S
C109 H161 0.929 . S
H110 C104 0.930 . S
H111 C107 0.930 . S
C112 N113 1.314 . S
C112 C114 1.353 . S
C112 H118 0.930 . S
N113 Li89 1.990 . S
N113 C112 1.314 . S
N113 C116 1.279 . S
C114 C112 1.353 . S
C114 C117 1.348 . S
C114 H162 0.929 . S
C115 C116 1.358 . S
C115 C117 1.356 . S
C115 H163 0.930 . S
C116 N113 1.279 . S
C116 C115 1.358 . S
C116 H119 0.930 . S
C117 C114 1.348 . S
C117 C115 1.356 . S
H118 C112 0.930 . S
H119 C116 0.930 . S
C120 C122 1.348 . S
C120 C123 1.356 . S
C120 O150 1.325 . S
N121 C124 1.314 . S
N121 C125 1.279 . S
C122 C120 1.348 . S
C122 C124 1.353 . S
C122 H164 0.929 . S
C123 C120 1.356 . S
C123 C125 1.358 . S
C123 H165 0.930 . S
C124 N121 1.314 . S
C124 C122 1.353 . S
C124 H166 0.930 . S
C125 N121 1.279 . S
C125 C123 1.358 . S
C125 H167 0.930 . S
C126 C127 1.348 . S
C126 C128 1.356 . S
C126 O151 1.325 . S
C127 C126 1.348 . S
C127 C129 1.353 . S
C127 H168 0.929 . S
C128 C126 1.356 . S
C128 C130 1.358 . S
C128 H169 0.930 . S
C129 C127 1.353 . S
C129 N131 1.314 . S
C129 H170 0.930 . S
C130 C128 1.358 . S
C130 N131 1.279 . S
C130 H171 0.930 . S
N131 C129 1.314 . S
N131 C130 1.279 . S
C132 C134 1.353 . S
C132 N135 1.314 . S
C132 H138 0.930 . S
C133 N135 1.279 . S
C133 C136 1.358 . S
C133 H139 0.930 . S
C134 C132 1.353 . S
C134 C137 1.348 . S
C134 H172 0.929 . S
N135 Li90 1.990 . S
N135 C132 1.314 . S
N135 C133 1.279 . S
C136 C133 1.358 . S
C136 C137 1.356 . S
C136 H173 0.930 . S
C137 C134 1.348 . S
C137 C136 1.356 . S
H138 C132 0.930 . S
H139 C133 0.930 . S
C140 N141 1.314 . S
C140 C142 1.353 . S
C140 H146 0.930 . S
N141 Li91 1.990 . S
N141 C140 1.314 . S
N141 C144 1.279 . S
C142 C140 1.353 . S
C142 C145 1.348 . S
C142 H174 0.929 . S
C143 C144 1.358 . S
C143 C145 1.356 . S
C143 H175 0.930 . S
C144 N141 1.279 . S
C144 C143 1.358 . S
C144 H147 0.930 . S
C145 C142 1.348 . S
C145 C143 1.356 . S
H146 C140 0.930 . S
H147 C144 0.930 . S
O148 Li88 1.956 . S
O148 Li89 1.970 . S
O148 Li90 1.961 . S
O148 C92 1.325 . S
O149 Li88 1.970 . S
O149 Li89 1.956 . S
O149 Li91 1.961 . S
O149 C98 1.325 . S
O150 Li88 1.961 . S
O150 Li90 1.956 . S
O150 Li91 1.970 . S
O150 C120 1.325 . S
O151 Li89 1.961 . S
O151 Li90 1.970 . S
O151 Li91 1.956 . S
O151 C126 1.325 . S
H152 C94 0.929 . S
H153 C95 0.930 . S
H154 C96 0.930 . S
H155 C97 0.930 . S
H156 C99 0.930 . S
H157 C101 0.929 . S
H158 C102 0.930 . S
H159 C103 0.930 . S
H160 C106 0.930 . S
H161 C109 0.929 . S
H162 C114 0.929 . S
H163 C115 0.930 . S
H164 C122 0.929 . S
H165 C123 0.930 . S
H166 C124 0.930 . S
H167 C125 0.930 . S
H168 C127 0.929 . S
H169 C128 0.930 . S
H170 C129 0.930 . S
H171 C130 0.930 . S
H172 C134 0.929 . S
H173 C136 0.930 . S
H174 C142 0.929 . S
H175 C143 0.930 . S
Li176 N193 1.990 . S
Li176 O236 1.956 . S
Li176 O237 1.970 . S
Li176 O238 1.961 . S
Li177 N201 1.990 . S
Li177 O236 1.970 . S
Li177 O237 1.956 . S
Li177 O239 1.961 . S
Li178 N223 1.990 . S
Li178 O236 1.961 . S
Li178 O238 1.956 . S
Li178 O239 1.970 . S
Li179 N229 1.990 . S
Li179 O237 1.961 . S
Li179 O238 1.970 . S
Li179 O239 1.956 . S
C180 C182 1.348 . S
C180 C183 1.356 . S
C180 O236 1.325 . S
N181 C184 1.314 . S
N181 C185 1.279 . S
C182 C180 1.348 . S
C182 C184 1.353 . S
C182 H240 0.929 . S
C183 C180 1.356 . S
C183 C185 1.358 . S
C183 H241 0.930 . S
C184 N181 1.314 . S
C184 C182 1.353 . S
C184 H242 0.930 . S
C185 N181 1.279 . S
C185 C183 1.358 . S
C185 H243 0.930 . S
C186 C189 1.348 . S
C186 C190 1.356 . S
C186 O237 1.325 . S
C187 N188 1.279 . S
C187 C190 1.358 . S
C187 H244 0.930 . S
N188 C187 1.279 . S
N188 C191 1.314 . S
C189 C186 1.348 . S
C189 C191 1.353 . S
C189 H245 0.929 . S
C190 C186 1.356 . S
C190 C187 1.358 . S
C190 H246 0.930 . S
C191 N188 1.314 . S
C191 C189 1.353 . S
C191 H247 0.930 . S
C192 N193 1.314 . S
C192 C197 1.353 . S
C192 H198 0.930 . S
N193 Li176 1.990 . S
N193 C192 1.314 . S
N193 C195 1.279 . S
C194 C195 1.358 . S
C194 C196 1.356 . S
C194 H248 0.930 . S
C195 N193 1.279 . S
C195 C194 1.358 . S
C195 H199 0.930 . S
C196 C194 1.356 . S
C196 C197 1.348 . S
C197 C192 1.353 . S
C197 C196 1.348 . S
C197 H249 0.929 . S
H198 C192 0.930 . S
H199 C195 0.930 . S
C200 N201 1.314 . S
C200 C202 1.353 . S
C200 H206 0.930 . S
N201 Li177 1.990 . S
N201 C200 1.314 . S
N201 C204 1.279 . S
C202 C200 1.353 . S
C202 C205 1.348 . S
C202 H250 0.929 . S
C203 C204 1.358 . S
C203 C205 1.356 . S
C203 H251 0.930 . S
C204 N201 1.279 . S
C204 C203 1.358 . S
C204 H207 0.930 . S
C205 C202 1.348 . S
C205 C203 1.356 . S
H206 C200 0.930 . S
H207 C204 0.930 . S
C208 C210 1.348 . S
C208 C211 1.356 . S
C208 O238 1.325 . S
N209 C212 1.314 . S
N209 C213 1.279 . S
C210 C208 1.348 . S
C210 C212 1.353 . S
C210 H252 0.929 . S
C211 C208 1.356 . S
C211 C213 1.358 . S
C211 H253 0.930 . S
C212 N209 1.314 . S
C212 C210 1.353 . S
C212 H254 0.930 . S
C213 N209 1.279 . S
C213 C211 1.358 . S
C213 H255 0.930 . S
C214 C215 1.348 . S
C214 C216 1.356 . S
C214 O239 1.325 . S
C215 C214 1.348 . S
C215 C217 1.353 . S
C215 H256 0.929 . S
C216 C214 1.356 . S
C216 C218 1.358 . S
C216 H257 0.930 . S
C217 C215 1.353 . S
C217 N219 1.314 . S
C217 H258 0.930 . S
C218 C216 1.358 . S
C218 N219 1.279 . S
C218 H259 0.930 . S
N219 C217 1.314 . S
N219 C218 1.279 . S
C220 C222 1.353 . S
C220 N223 1.314 . S
C220 H226 0.930 . S
C221 N223 1.279 . S
C221 C224 1.358 . S
C221 H227 0.930 . S
C222 C220 1.353 . S
C222 C225 1.348 . S
C222 H260 0.929 . S
N223 Li178 1.990 . S
N223 C220 1.314 . S
N223 C221 1.279 . S
C224 C221 1.358 . S
C224 C225 1.356 . S
C224 H261 0.930 . S
C225 C222 1.348 . S
C225 C224 1.356 . S
H226 C220 0.930 . S
H227 C221 0.930 . S
C228 N229 1.314 . S
C228 C230 1.353 . S
C228 H234 0.930 . S
N229 Li179 1.990 . S
N229 C228 1.314 . S
N229 C232 1.279 . S
C230 C228 1.353 . S
C230 C233 1.348 . S
C230 H262 0.929 . S
C231 C232 1.358 . S
C231 C233 1.356 . S
C231 H263 0.930 . S
C232 N229 1.279 . S
C232 C231 1.358 . S
C232 H235 0.930 . S
C233 C230 1.348 . S
C233 C231 1.356 . S
H234 C228 0.930 . S
H235 C232 0.930 . S
O236 Li176 1.956 . S
O236 Li177 1.970 . S
O236 Li178 1.961 . S
O236 C180 1.325 . S
O237 Li176 1.970 . S
O237 Li177 1.956 . S
O237 Li179 1.961 . S
O237 C186 1.325 . S
O238 Li176 1.961 . S
O238 Li178 1.956 . S
O238 Li179 1.970 . S
O238 C208 1.325 . S
O239 Li177 1.961 . S
O239 Li178 1.970 . S
O239 Li179 1.956 . S
O239 C214 1.325 . S
H240 C182 0.929 . S
H241 C183 0.930 . S
H242 C184 0.930 . S
H243 C185 0.930 . S
H244 C187 0.930 . S
H245 C189 0.929 . S
H246 C190 0.930 . S
H247 C191 0.930 . S
H248 C194 0.930 . S
H249 C197 0.929 . S
H250 C202 0.929 . S
H251 C203 0.930 . S
H252 C210 0.929 . S
H253 C211 0.930 . S
H254 C212 0.930 . S
H255 C213 0.930 . S
H256 C215 0.929 . S
H257 C216 0.930 . S
H258 C217 0.930 . S
H259 C218 0.930 . S
H260 C222 0.929 . S
H261 C224 0.930 . S
H262 C230 0.929 . S
H263 C231 0.930 . S
Li264 N281 1.990 . S
Li264 O324 1.956 . S
Li264 O325 1.970 . S
Li264 O326 1.961 . S
Li265 N289 1.990 . S
Li265 O324 1.970 . S
Li265 O325 1.956 . S
Li265 O327 1.961 . S
Li266 N311 1.990 . S
Li266 O324 1.961 . S
Li266 O326 1.956 . S
Li266 O327 1.970 . S
Li267 N317 1.990 . S
Li267 O325 1.961 . S
Li267 O326 1.970 . S
Li267 O327 1.956 . S
C268 C270 1.348 . S
C268 C271 1.356 . S
C268 O324 1.325 . S
N269 C272 1.314 . S
N269 C273 1.279 . S
C270 C268 1.348 . S
C270 C272 1.353 . S
C270 H328 0.929 . S
C271 C268 1.356 . S
C271 C273 1.358 . S
C271 H329 0.930 . S
C272 N269 1.314 . S
C272 C270 1.353 . S
C272 H330 0.930 . S
C273 N269 1.279 . S
C273 C271 1.358 . S
C273 H331 0.930 . S
C274 C277 1.333 1_556 S
C274 C278 1.342 1_556 S
C274 O325 1.352 . S
C275 N276 1.279 . S
C275 C278 1.358 . S
C275 H332 0.930 . S
N276 C275 1.279 . S
N276 C279 1.314 . S
C277 C274 1.333 1_554 S
C277 C279 1.353 . S
C277 H333 0.929 . S
C278 C274 1.342 1_554 S
C278 C275 1.358 . S
C278 H334 0.930 . S
C279 N276 1.314 . S
C279 C277 1.353 . S
C279 H335 0.930 . S
C280 N281 1.314 . S
C280 C285 1.353 . S
C280 H286 0.930 . S
N281 Li264 1.990 . S
N281 C280 1.314 . S
N281 C283 1.279 . S
C282 C283 1.358 . S
C282 C284 1.356 . S
C282 H336 0.930 . S
C283 N281 1.279 . S
C283 C282 1.358 . S
C283 H287 0.930 . S
C284 C282 1.356 . S
C284 C285 1.348 . S
C285 C280 1.353 . S
C285 C284 1.348 . S
C285 H337 0.929 . S
H286 C280 0.930 . S
H287 C283 0.930 . S
C288 N289 1.314 . S
C288 C290 1.353 . S
C288 H294 0.930 . S
N289 Li265 1.990 . S
N289 C288 1.314 . S
N289 C292 1.279 . S
C290 C288 1.353 . S
C290 C293 1.348 . S
C290 H338 0.929 . S
C291 C292 1.358 . S
C291 C293 1.356 . S
C291 H339 0.930 1_556 S
C292 N289 1.279 . S
C292 C291 1.358 . S
C292 H295 0.933 1_556 S
C293 C290 1.348 . S
C293 C291 1.356 . S
H294 C288 0.930 . S
H295 C292 0.933 1_554 S
C296 C298 1.348 . S
C296 C299 1.356 . S
C296 O326 1.325 . S
N297 C300 1.314 . S
N297 C301 1.279 . S
C298 C296 1.348 . S
C298 C300 1.353 . S
C298 H340 0.929 . S
C299 C296 1.356 . S
C299 C301 1.358 . S
C299 H341 0.930 . S
C300 N297 1.314 . S
C300 C298 1.353 . S
C300 H342 0.930 . S
C301 N297 1.279 . S
C301 C299 1.358 . S
C301 H343 0.930 . S
C302 C303 1.348 . S
C302 C304 1.356 . S
C302 O327 1.325 . S
C303 C302 1.348 . S
C303 C305 1.353 . S
C303 H344 0.929 . S
C304 C302 1.356 . S
C304 C306 1.358 . S
C304 H345 0.930 . S
C305 C303 1.353 . S
C305 N307 1.314 . S
C305 H346 0.930 . S
C306 C304 1.358 . S
C306 N307 1.279 . S
C306 H347 0.930 . S
N307 C305 1.314 . S
N307 C306 1.279 . S
C308 C310 1.353 . S
C308 N311 1.314 . S
C308 H314 0.930 . S
C309 N311 1.279 . S
C309 C312 1.358 . S
C309 H315 0.930 . S
C310 C308 1.353 . S
C310 C313 1.348 . S
C310 H348 0.929 . S
N311 Li266 1.990 . S
N311 C308 1.314 . S
N311 C309 1.279 . S
C312 C309 1.358 . S
C312 C313 1.356 . S
C312 H349 0.930 . S
C313 C310 1.348 . S
C313 C312 1.356 . S
H314 C308 0.930 . S
H315 C309 0.930 . S
C316 N317 1.314 . S
C316 C318 1.353 . S
C316 H322 0.930 . S
N317 Li267 1.990 . S
N317 C316 1.314 . S
N317 C320 1.279 . S
C318 C316 1.353 . S
C318 C321 1.348 . S
C318 H350 0.929 1_556 S
C319 C320 1.358 . S
C319 C321 1.356 . S
C319 H351 0.930 . S
C320 N317 1.279 . S
C320 C319 1.358 . S
C320 H323 0.930 . S
C321 C318 1.348 . S
C321 C319 1.356 . S
H322 C316 0.930 . S
H323 C320 0.930 . S
O324 Li264 1.956 . S
O324 Li265 1.970 . S
O324 Li266 1.961 . S
O324 C268 1.325 . S
O325 Li264 1.970 . S
O325 Li265 1.956 . S
O325 Li267 1.961 . S
O325 C274 1.352 . S
O326 Li264 1.961 . S
O326 Li266 1.956 . S
O326 Li267 1.970 . S
O326 C296 1.325 . S
O327 Li265 1.961 . S
O327 Li266 1.970 . S
O327 Li267 1.956 . S
O327 C302 1.325 . S
H328 C270 0.929 . S
H329 C271 0.930 . S
H330 C272 0.930 . S
H331 C273 0.930 . S
H332 C275 0.930 . S
H333 C277 0.929 . S
H334 C278 0.930 . S
H335 C279 0.930 . S
H336 C282 0.930 . S
H337 C285 0.929 . S
H338 C290 0.929 . S
H339 C291 0.930 1_554 S
H340 C298 0.929 . S
H341 C299 0.930 . S
H342 C300 0.930 . S
H343 C301 0.930 . S
H344 C303 0.929 . S
H345 C304 0.930 . S
H346 C305 0.930 . S
H347 C306 0.930 . S
H348 C310 0.929 . S
H349 C312 0.930 . S
H350 C318 0.929 1_554 S
H351 C319 0.930 . S
C352 C353 1.363 . S
C352 C358 1.379 . S
C352 N360 1.356 . S
C353 C352 1.363 . S
C353 C359 1.363 . S
C354 C355 1.363 . S
C354 C359 1.379 . S
C354 N361 1.356 . S
C355 C354 1.363 . S
C355 C358 1.363 . S
N356 C358 1.356 . S
N356 H368 0.984 . S
N356 H369 0.985 . S
N357 C359 1.356 . S
N357 H362 0.984 . S
N357 H363 0.985 . S
C358 C352 1.379 . S
C358 C355 1.363 . S
C358 N356 1.356 . S
C359 C353 1.363 . S
C359 C354 1.379 . S
C359 N357 1.356 . S
N360 C352 1.356 . S
N360 H366 0.984 . S
N360 H367 0.984 . S
N361 C354 1.356 . S
N361 H364 0.984 . S
N361 H365 0.985 . S
H362 N357 0.984 . S
H363 N357 0.985 . S
H364 N361 0.984 . S
H365 N361 0.985 . S
H366 N360 0.984 . S
H367 N360 0.984 . S
H368 N356 0.984 . S
H369 N356 0.985 . S
C370 C371 1.363 . S
C370 C376 1.379 . S
C370 N378 1.356 . S
C371 C370 1.363 . S
C371 C377 1.363 . S
C372 C373 1.363 . S
C372 C377 1.379 . S
C372 N379 1.356 . S
C373 C372 1.363 . S
C373 C376 1.363 . S
N374 C376 1.356 . S
N374 H386 0.984 . S
N374 H387 0.985 . S
N375 C377 1.356 . S
N375 H380 0.984 . S
N375 H381 0.985 . S
C376 C370 1.379 . S
C376 C373 1.363 . S
C376 N374 1.356 . S
C377 C371 1.363 . S
C377 C372 1.379 . S
C377 N375 1.356 . S
N378 C370 1.356 . S
N378 H384 0.984 . S
N378 H385 0.984 . S
N379 C372 1.356 . S
N379 H382 0.984 . S
N379 H383 0.985 . S
H380 N375 0.984 . S
H381 N375 0.985 . S
H382 N379 0.984 . S
H383 N379 0.985 . S
H384 N378 0.984 . S
H385 N378 0.984 . S
H386 N374 0.984 . S
H387 N374 0.985 . S
C388 C389 1.363 1_556 S
C388 C394 1.379 . S
C388 N396 1.356 . S
C389 C388 1.363 1_554 S
C389 C395 1.363 . S
C390 C391 1.363 1_554 S
C390 C395 1.379 . S
C390 N397 1.356 . S
C391 C390 1.363 1_556 S
C391 C394 1.363 . S
N392 C394 1.356 . S
N392 H404 0.984 . S
N392 H405 0.985 . S
N393 C395 1.356 . S
N393 H398 0.984 . S
N393 H399 0.985 . S
C394 C388 1.379 . S
C394 C391 1.363 . S
C394 N392 1.356 . S
C395 C389 1.363 . S
C395 C390 1.379 . S
C395 N393 1.356 . S
N396 C388 1.356 . S
N396 H402 0.984 . S
N396 H403 0.984 . S
N397 C390 1.356 . S
N397 H400 0.984 . S
N397 H401 0.985 . S
H398 N393 0.984 . S
H399 N393 0.985 . S
H400 N397 0.984 . S
H401 N397 0.985 . S
H402 N396 0.984 . S
H403 N396 0.984 . S
H404 N392 0.984 . S
H405 N392 0.985 . S
C406 C407 1.363 . S
C406 C412 1.379 1_455 S
C406 N414 1.356 . S
C407 C406 1.363 . S
C407 C413 1.363 . S
C408 C409 1.363 . S
C408 C413 1.379 1_655 S
C408 N415 1.356 . S
C409 C408 1.363 . S
C409 C412 1.363 . S
N410 C412 1.356 . S
N410 H422 0.984 . S
N410 H423 0.985 . S
N411 C413 1.356 . S
N411 H416 0.984 . S
N411 H417 0.985 . S
C412 C406 1.379 1_655 S
C412 C409 1.363 . S
C412 N410 1.356 . S
C413 C407 1.363 . S
C413 C408 1.379 1_455 S
C413 N411 1.356 . S
N414 C406 1.356 . S
N414 H420 0.984 . S
N414 H421 0.984 . S
N415 C408 1.356 . S
N415 H418 0.984 . S
N415 H419 0.985 . S
H416 N411 0.984 . S
H417 N411 0.985 . S
H418 N415 0.984 . S
H419 N415 0.985 . S
H420 N414 0.984 . S
H421 N414 0.984 . S
H422 N410 0.984 . S
H423 N410 0.985 . S
C424 C425 1.363 . S
C424 C430 1.379 1_545 S
C424 N432 1.356 . S
C425 C424 1.363 . S
C425 C431 1.363 1_556 S
C426 C427 1.363 . S
C426 C431 1.379 1_565 S
C426 N433 1.356 . S
C427 C426 1.363 . S
C427 C430 1.363 1_554 S
N428 C430 1.356 . S
N428 H440 0.984 . S
N428 H441 0.985 . S
N429 C431 1.356 . S
N429 H434 0.984 . S
N429 H435 0.985 . S
C430 C424 1.379 1_565 S
C430 C427 1.363 1_556 S
C430 N428 1.356 . S
C431 C425 1.363 1_554 S
C431 C426 1.379 1_545 S
C431 N429 1.356 . S
N432 C424 1.356 . S
N432 H438 0.984 . S
N432 H439 0.984 . S
N433 C426 1.356 . S
N433 H436 0.984 . S
N433 H437 0.985 . S
H434 N429 0.984 . S
H435 N429 0.985 . S
H436 N433 0.984 . S
H437 N433 0.985 . S
H438 N432 0.984 . S
H439 N432 0.984 . S
H440 N428 0.984 . S
H441 N428 0.985 . S
C442 C443 1.363 . S
C442 C448 1.379 . S
C442 N450 1.356 . S
C443 C442 1.363 . S
C443 C449 1.363 . S
C444 C445 1.363 . S
C444 C449 1.379 . S
C444 N451 1.356 . S
C445 C444 1.363 . S
C445 C448 1.363 . S
N446 C448 1.356 . S
N446 H458 0.984 . S
N446 H459 0.985 . S
N447 C449 1.356 . S
N447 H452 0.984 . S
N447 H453 0.985 . S
C448 C442 1.379 . S
C448 C445 1.363 . S
C448 N446 1.356 . S
C449 C443 1.363 . S
C449 C444 1.379 . S
C449 N447 1.356 . S
N450 C442 1.356 . S
N450 H456 0.984 . S
N450 H457 0.984 . S
N451 C444 1.356 . S
N451 H454 0.984 . S
N451 H455 0.985 . S
H452 N447 0.984 . S
H453 N447 0.985 . S
H454 N451 0.984 . S
H455 N451 0.985 . S
H456 N450 0.984 . S
H457 N450 0.984 . S
H458 N446 0.984 . S
H459 N446 0.985 . S
C460 C461 1.363 1_556 S
C460 C466 1.379 1_455 S
C460 N468 1.356 . S
C461 C460 1.363 1_554 S
C461 C467 1.363 . S
C462 C463 1.363 1_554 S
C462 C467 1.379 1_655 S
C462 N469 1.356 . S
C463 C462 1.363 1_556 S
C463 C466 1.363 . S
N464 C466 1.356 . S
N464 H476 0.984 . S
N464 H477 0.985 . S
N465 C467 1.356 . S
N465 H470 0.984 . S
N465 H471 0.985 . S
C466 C460 1.379 1_655 S
C466 C463 1.363 . S
C466 N464 1.356 . S
C467 C461 1.363 . S
C467 C462 1.379 1_455 S
C467 N465 1.356 . S
N468 C460 1.356 . S
N468 H474 0.984 . S
N468 H475 0.984 1_556 S
N469 C462 1.356 . S
N469 H472 0.991 . S
N469 H473 0.985 . S
H470 N465 0.984 . S
H471 N465 0.985 . S
H472 N469 0.991 . S
H473 N469 0.985 . S
H474 N468 0.984 . S
H475 N468 0.984 1_554 S
H476 N464 0.984 . S
H477 N464 0.985 . S
C478 C479 1.363 . S
C478 C484 1.379 1_545 S
C478 N486 1.356 . S
C479 C478 1.363 . S
C479 C485 1.363 . S
C480 C481 1.363 . S
C480 C485 1.379 1_565 S
C480 N487 1.356 . S
C481 C480 1.363 . S
C481 C484 1.363 . S
N482 C484 1.356 . S
N482 H494 0.984 . S
N482 H495 0.985 . S
N483 C485 1.356 . S
N483 H488 0.984 . S
N483 H489 0.985 . S
C484 C478 1.379 1_565 S
C484 C481 1.363 . S
C484 N482 1.356 . S
C485 C479 1.363 . S
C485 C480 1.379 1_545 S
C485 N483 1.356 . S
N486 C478 1.356 . S
N486 H492 0.984 . S
N486 H493 0.984 . S
N487 C480 1.356 . S
N487 H490 0.984 . S
N487 H491 0.985 . S
H488 N483 0.984 . S
H489 N483 0.985 . S
H490 N487 0.984 . S
H491 N487 0.985 . S
H492 N486 0.984 . S
H493 N486 0.984 . S
H494 N482 0.984 . S
H495 N482 0.985 . S
C353 C20 1.500 . S
C355 C205 1.500 . S
C371 C145 1.500 . S
C373 C313 1.500 . S
C389 C29 1.495 . S
C391 C293 1.495 . S
C407 C225 1.505 . S
C409 C117 1.505 . S
C425 C284 1.510 . S
C427 C49 1.510 . S
C443 C108 1.505 . S
C445 C233 1.505 . S
C461 C57 1.495 . S
C463 C321 1.495 . S
C479 C137 1.490 . S
C481 C196 1.490 . S
