# Generated by pormake.
# Topology uki, (4)-cn, num edge types: 1
# Building blocks:
#     Node 0, Type 0, BuildingBlock: NAWXER_clean_sbu_0, # of connection points: 4
#     Node 1, Type 0, BuildingBlock: NAWXER_clean_sbu_0, # of connection points: 4
#     Node 2, Type 0, BuildingBlock: NAWXER_clean_sbu_0, # of connection points: 4
#     Node 3, Type 0, BuildingBlock: NAWXER_clean_sbu_0, # of connection points: 4
#     Node 4, Type 0, BuildingBlock: NAWXER_clean_sbu_0, # of connection points: 4
#     Node 5, Type 0, BuildingBlock: NAWXER_clean_sbu_0, # of connection points: 4
#     Node 6, Type 0, BuildingBlock: NAWXER_clean_sbu_0, # of connection points: 4
#     Node 7, Type 0, BuildingBlock: NAWXER_clean_sbu_0, # of connection points: 4
#     Node 8, Type 0, BuildingBlock: NAWXER_clean_sbu_0, # of connection points: 4
#     Node 9, Type 0, BuildingBlock: NAWXER_clean_sbu_0, # of connection points: 4
#     Node 10, Type 0, BuildingBlock: NAWXER_clean_sbu_0, # of connection points: 4
#     Node 11, Type 0, BuildingBlock: NAWXER_clean_sbu_0, # of connection points: 4
#     Node 12, Type 0, BuildingBlock: NAWXER_clean_sbu_0, # of connection points: 4
#     Node 13, Type 0, BuildingBlock: NAWXER_clean_sbu_0, # of connection points: 4
#     Node 14, Type 0, BuildingBlock: NAWXER_clean_sbu_0, # of connection points: 4
#     Node 15, Type 0, BuildingBlock: NAWXER_clean_sbu_0, # of connection points: 4
#     Edge 16, Type (0, 0), BuildingBlock: OJICUG_clean_linker_0, # of connection points: 2
#     Edge 17, Type (0, 0), BuildingBlock: OJICUG_clean_linker_0, # of connection points: 2
#     Edge 18, Type (0, 0), BuildingBlock: OJICUG_clean_linker_0, # of connection points: 2
#     Edge 19, Type (0, 0), BuildingBlock: OJICUG_clean_linker_0, # of connection points: 2
#     Edge 20, Type (0, 0), BuildingBlock: OJICUG_clean_linker_0, # of connection points: 2
#     Edge 21, Type (0, 0), BuildingBlock: OJICUG_clean_linker_0, # of connection points: 2
#     Edge 22, Type (0, 0), BuildingBlock: OJICUG_clean_linker_0, # of connection points: 2
#     Edge 23, Type (0, 0), BuildingBlock: OJICUG_clean_linker_0, # of connection points: 2
#     Edge 24, Type (0, 0), BuildingBlock: OJICUG_clean_linker_0, # of connection points: 2
#     Edge 25, Type (0, 0), BuildingBlock: OJICUG_clean_linker_0, # of connection points: 2
#     Edge 26, Type (0, 0), BuildingBlock: OJICUG_clean_linker_0, # of connection points: 2
#     Edge 27, Type (0, 0), BuildingBlock: OJICUG_clean_linker_0, # of connection points: 2
#     Edge 28, Type (0, 0), BuildingBlock: OJICUG_clean_linker_0, # of connection points: 2
#     Edge 29, Type (0, 0), BuildingBlock: OJICUG_clean_linker_0, # of connection points: 2
#     Edge 30, Type (0, 0), BuildingBlock: OJICUG_clean_linker_0, # of connection points: 2
#     Edge 31, Type (0, 0), BuildingBlock: OJICUG_clean_linker_0, # of connection points: 2
#     Edge 32, Type (0, 0), BuildingBlock: OJICUG_clean_linker_0, # of connection points: 2
#     Edge 33, Type (0, 0), BuildingBlock: OJICUG_clean_linker_0, # of connection points: 2
#     Edge 34, Type (0, 0), BuildingBlock: OJICUG_clean_linker_0, # of connection points: 2
#     Edge 35, Type (0, 0), BuildingBlock: OJICUG_clean_linker_0, # of connection points: 2
#     Edge 36, Type (0, 0), BuildingBlock: OJICUG_clean_linker_0, # of connection points: 2
#     Edge 37, Type (0, 0), BuildingBlock: OJICUG_clean_linker_0, # of connection points: 2
#     Edge 38, Type (0, 0), BuildingBlock: OJICUG_clean_linker_0, # of connection points: 2
#     Edge 39, Type (0, 0), BuildingBlock: OJICUG_clean_linker_0, # of connection points: 2
#     Edge 40, Type (0, 0), BuildingBlock: OJICUG_clean_linker_0, # of connection points: 2
#     Edge 41, Type (0, 0), BuildingBlock: OJICUG_clean_linker_0, # of connection points: 2
#     Edge 42, Type (0, 0), BuildingBlock: OJICUG_clean_linker_0, # of connection points: 2
#     Edge 43, Type (0, 0), BuildingBlock: OJICUG_clean_linker_0, # of connection points: 2
#     Edge 44, Type (0, 0), BuildingBlock: OJICUG_clean_linker_0, # of connection points: 2
#     Edge 45, Type (0, 0), BuildingBlock: OJICUG_clean_linker_0, # of connection points: 2
#     Edge 46, Type (0, 0), BuildingBlock: OJICUG_clean_linker_0, # of connection points: 2
#     Edge 47, Type (0, 0), BuildingBlock: OJICUG_clean_linker_0, # of connection points: 2
# Relax obj value: 0.074
# Max RMSD: 0.234
# Mean RMSD: 0.234
data_MOF--net-uki--node1-NAWXER_clean_sbu_0--edge1-OJICUG_clean_linker_0
_symmetry_space_group_name_H-M    P1
_symmetry_Int_Tables_number       1
_symmetry_cell_setting            triclinic
loop_
_symmetry_equiv_pos_as_xyz
'x, y, z'
_cell_length_a     23.186183
_cell_length_b     23.185944
_cell_length_c     52.194602
_cell_angle_alpha  90.008678
_cell_angle_beta   90.003345
_cell_angle_gamma 90.000332
loop_
_atom_site_label
_atom_site_type_symbol
_atom_site_fract_x
_atom_site_fract_y
_atom_site_fract_z
_atom_type_partial_charge
C0 C 0.15729 0.21537 0.35209 0.0
C1 C 0.99053 0.2618 0.29923 0.0
O2 O 0.10979 0.23839 0.35844 0.0
Zn3 Zn 0.07272 0.236 0.32556 0.0
O4 O 0.16457 0.19826 0.3289 0.0
Zn5 Zn 0.113 0.19688 0.29424 0.0
O6 O 0.15945 0.2379 0.27029 0.0
O7 O 0.12437 0.29277 0.30122 0.0
O8 O 0.02969 0.23524 0.2865 0.0
O9 O 0.99767 0.27105 0.32302 0.0
O10 O 0.05073 0.14652 0.3204 0.0
O11 O 0.09928 0.11734 0.28649 0.0
C12 C 0.1541 0.28724 0.28056 0.0
C13 C 0.06359 0.10686 0.30428 0.0
C14 C 0.28693 0.84547 0.74796 0.0
C15 C 0.10651 0.93584 0.72417 0.0
O16 O 0.29245 0.87519 0.7273 0.0
Zn17 Zn 0.23568 0.92681 0.70294 0.0
O18 O 0.23759 0.84011 0.75823 0.0
Zn19 Zn 0.19657 0.88652 0.73425 0.0
O20 O 0.19805 0.8349 0.6996 0.0
O21 O 0.23814 0.88972 0.67006 0.0
O22 O 0.117 0.90017 0.74197 0.0
O23 O 0.14617 0.94872 0.70807 0.0
O24 O 0.27067 0.00187 0.70548 0.0
O25 O 0.23487 0.96986 0.742 0.0
C26 C 0.21519 0.84219 0.67642 0.0
C27 C 0.26141 0.00903 0.72927 0.0
C28 C 0.8455 0.71348 0.28043 0.0
C29 C 0.93571 0.89398 0.30424 0.0
O30 O 0.84011 0.76282 0.27017 0.0
Zn31 Zn 0.88648 0.80387 0.29415 0.0
O32 O 0.87523 0.70798 0.3011 0.0
Zn33 Zn 0.92682 0.76479 0.32546 0.0
O34 O 0.88977 0.76228 0.35833 0.0
O35 O 0.83485 0.80227 0.3288 0.0
O36 O 0.94865 0.85431 0.32034 0.0
O37 O 0.90004 0.88346 0.28644 0.0
O38 O 0.96986 0.76564 0.2864 0.0
O39 O 0.0019 0.72987 0.32292 0.0
C40 C 0.8422 0.78514 0.35198 0.0
C41 C 0.00905 0.73914 0.29914 0.0
C42 C 0.78487 0.15722 0.67638 0.0
C43 C 0.73871 0.99048 0.72927 0.0
O44 O 0.80201 0.16457 0.69956 0.0
Zn45 Zn 0.80353 0.113 0.73422 0.0
O46 O 0.76192 0.10968 0.67004 0.0
Zn47 Zn 0.76441 0.07265 0.70292 0.0
O48 O 0.70764 0.12429 0.72727 0.0
O49 O 0.76252 0.15944 0.75819 0.0
O50 O 0.72943 0.99759 0.70548 0.0
O51 O 0.76525 0.02967 0.74199 0.0
O52 O 0.8831 0.09938 0.74194 0.0
O53 O 0.85392 0.05075 0.70805 0.0
C54 C 0.71317 0.15405 0.74794 0.0
C55 C 0.89359 0.06367 0.72415 0.0
C56 C 0.99078 0.2388 0.97925 0.0
C57 C 0.15754 0.28494 0.92637 0.0
O58 O 0.9979 0.22951 0.95547 0.0
Zn59 Zn 0.07297 0.26449 0.95291 0.0
O60 O 0.02997 0.26534 0.99198 0.0
Zn61 Zn 0.11331 0.30361 0.98421 0.0
O62 O 0.0997 0.38318 0.99193 0.0
O63 O 0.05108 0.354 0.95804 0.0
O64 O 0.16487 0.30209 0.94955 0.0
O65 O 0.11 0.26199 0.92003 0.0
O66 O 0.1246 0.20772 0.97726 0.0
O67 O 0.15974 0.26261 1.00817 0.0
C68 C 0.064 0.39368 0.97414 0.0
C69 C 0.15436 0.21326 0.99792 0.0
C70 C 0.28493 0.84277 0.10211 0.0
C71 C 0.23874 0.00949 0.04922 0.0
O72 O 0.30206 0.83542 0.07893 0.0
Zn73 Zn 0.30355 0.88696 0.04427 0.0
O74 O 0.26197 0.89031 0.10845 0.0
Zn75 Zn 0.26445 0.92732 0.07557 0.0
O76 O 0.20766 0.87567 0.05122 0.0
O77 O 0.26252 0.84052 0.0203 0.0
O78 O 0.22947 0.00238 0.07301 0.0
O79 O 0.26527 0.97029 0.0365 0.0
O80 O 0.38312 0.90058 0.03654 0.0
O81 O 0.35396 0.9492 0.07043 0.0
C82 C 0.21318 0.84591 0.03056 0.0
C83 C 0.39362 0.93627 0.05433 0.0
C84 C 0.84261 0.7152 0.9264 0.0
C85 C 0.00937 0.7615 0.97927 0.0
O86 O 0.89012 0.7382 0.92005 0.0
Zn87 Zn 0.92718 0.73576 0.95293 0.0
O88 O 0.8353 0.69809 0.94958 0.0
Zn89 Zn 0.88687 0.69666 0.98424 0.0
O90 O 0.84043 0.73769 1.0082 0.0
O91 O 0.87554 0.79254 0.97728 0.0
O92 O 0.9702 0.73497 0.99199 0.0
O93 O 0.00223 0.77076 0.95548 0.0
O94 O 0.94909 0.64626 0.95806 0.0
O95 O 0.90053 0.6171 0.99198 0.0
C96 C 0.8458 0.78703 0.99794 0.0
C97 C 0.9362 0.6066 0.97417 0.0
C98 C 0.71516 0.15765 0.1021 0.0
C99 C 0.76146 0.99087 0.04923 0.0
O100 O 0.69803 0.16495 0.07891 0.0
Zn101 Zn 0.69661 0.11337 0.04425 0.0
O102 O 0.73816 0.11014 0.10844 0.0
Zn103 Zn 0.73573 0.07308 0.07556 0.0
O104 O 0.7925 0.12472 0.05122 0.0
O105 O 0.73763 0.15981 0.02029 0.0
O106 O 0.77072 0.99802 0.07302 0.0
O107 O 0.73492 0.03004 0.0365 0.0
O108 O 0.61706 0.09971 0.03651 0.0
O109 O 0.64622 0.05117 0.07042 0.0
C110 C 0.78698 0.15445 0.03055 0.0
C111 C 0.60656 0.06405 0.05431 0.0
C112 C 0.49076 0.76114 0.79925 0.0
C113 C 0.65755 0.71499 0.85212 0.0
O114 O 0.4979 0.77042 0.82304 0.0
Zn115 Zn 0.57297 0.73545 0.82559 0.0
O116 O 0.52995 0.7346 0.78653 0.0
Zn117 Zn 0.61329 0.69633 0.79428 0.0
O118 O 0.59967 0.61676 0.78655 0.0
O119 O 0.55107 0.64593 0.82045 0.0
O120 O 0.66487 0.69785 0.82894 0.0
O121 O 0.61001 0.73794 0.85847 0.0
O122 O 0.62459 0.79223 0.80124 0.0
O123 O 0.65971 0.73735 0.77031 0.0
C124 C 0.56398 0.60626 0.80435 0.0
C125 C 0.65433 0.7867 0.78057 0.0
C126 C 0.71493 0.34275 0.17636 0.0
C127 C 0.76112 0.5096 0.22919 0.0
O128 O 0.69781 0.33544 0.19955 0.0
Zn129 Zn 0.69632 0.38707 0.23419 0.0
O130 O 0.73786 0.39029 0.17001 0.0
Zn131 Zn 0.7354 0.42736 0.20288 0.0
O132 O 0.79222 0.37579 0.22724 0.0
O133 O 0.73737 0.3407 0.25817 0.0
O134 O 0.77038 0.50243 0.2054 0.0
O135 O 0.7346 0.47043 0.24193 0.0
O136 O 0.61676 0.4007 0.24193 0.0
O137 O 0.6459 0.44927 0.20802 0.0
C138 C 0.78671 0.34609 0.24791 0.0
C139 C 0.60625 0.43638 0.22414 0.0
C140 C 0.3426 0.28471 0.8521 0.0
C141 C 0.50937 0.23842 0.79923 0.0
O142 O 0.39011 0.26173 0.85845 0.0
Zn143 Zn 0.42717 0.26416 0.82557 0.0
O144 O 0.33529 0.30183 0.82891 0.0
Zn145 Zn 0.38686 0.30326 0.79425 0.0
O146 O 0.34042 0.26222 0.77029 0.0
O147 O 0.37553 0.20737 0.80122 0.0
O148 O 0.47019 0.26496 0.78651 0.0
O149 O 0.50223 0.22916 0.82302 0.0
O150 O 0.44908 0.35366 0.82043 0.0
O151 O 0.40052 0.38282 0.78652 0.0
C152 C 0.34579 0.21288 0.78055 0.0
C153 C 0.43619 0.39332 0.80432 0.0
C154 C 0.28476 0.65777 0.1764 0.0
C155 C 0.23844 0.49106 0.22928 0.0
O156 O 0.30188 0.6651 0.19958 0.0
Zn157 Zn 0.30329 0.61356 0.23425 0.0
O158 O 0.26176 0.61025 0.17005 0.0
Zn159 Zn 0.26418 0.57324 0.20293 0.0
O160 O 0.20741 0.62492 0.22726 0.0
O161 O 0.26226 0.66004 0.2582 0.0
O162 O 0.22918 0.49819 0.20549 0.0
O163 O 0.26498 0.53025 0.242 0.0
O164 O 0.38285 0.59989 0.24199 0.0
O165 O 0.35368 0.55133 0.20808 0.0
C166 C 0.21292 0.65469 0.24792 0.0
C167 C 0.39334 0.56421 0.22419 0.0
C168 C 0.49055 0.73808 0.4792 0.0
C169 C 0.65718 0.78449 0.42627 0.0
O170 O 0.49765 0.7288 0.45542 0.0
Zn171 Zn 0.57269 0.76384 0.45283 0.0
O172 O 0.52974 0.76465 0.49191 0.0
Zn173 Zn 0.61302 0.80301 0.48413 0.0
O174 O 0.59931 0.88256 0.49187 0.0
O175 O 0.55073 0.85335 0.45797 0.0
O176 O 0.6645 0.80164 0.44945 0.0
O177 O 0.60969 0.76141 0.41994 0.0
O178 O 0.62441 0.70711 0.47717 0.0
O179 O 0.65955 0.76203 0.50808 0.0
C180 C 0.56361 0.89303 0.47408 0.0
C181 C 0.65418 0.71267 0.49782 0.0
C182 C 0.78474 0.34221 0.60208 0.0
C183 C 0.73859 0.50893 0.54916 0.0
O184 O 0.8019 0.33487 0.5789 0.0
Zn185 Zn 0.8034 0.3864 0.54423 0.0
O186 O 0.76175 0.38975 0.60841 0.0
Zn187 Zn 0.76426 0.42675 0.57552 0.0
O188 O 0.7075 0.37508 0.55117 0.0
O189 O 0.7624 0.33992 0.52027 0.0
O190 O 0.72929 0.50183 0.57294 0.0
O191 O 0.76513 0.46972 0.53644 0.0
O192 O 0.88298 0.40001 0.53652 0.0
O193 O 0.85379 0.44862 0.57042 0.0
C194 C 0.71304 0.34531 0.53052 0.0
C195 C 0.89347 0.43569 0.55432 0.0
C196 C 0.43591 0.10602 0.47407 0.0
C197 C 0.34572 0.2865 0.49792 0.0
O198 O 0.40023 0.11653 0.49187 0.0
Zn199 Zn 0.38668 0.19612 0.48417 0.0
O200 O 0.44886 0.14569 0.45798 0.0
Zn201 Zn 0.42702 0.23523 0.45288 0.0
O202 O 0.50211 0.27016 0.45544 0.0
O203 O 0.47005 0.23434 0.49194 0.0
O204 O 0.37545 0.29203 0.47726 0.0
O205 O 0.34031 0.23714 0.50816 0.0
O206 O 0.33507 0.19774 0.44952 0.0
O207 O 0.38996 0.23779 0.42 0.0
C208 C 0.50925 0.26087 0.47922 0.0
C209 C 0.3424 0.2149 0.42634 0.0
C210 C 0.28685 0.65378 0.5306 0.0
C211 C 0.10645 0.56341 0.5544 0.0
O212 O 0.2924 0.62405 0.55126 0.0
Zn213 Zn 0.23564 0.57244 0.57563 0.0
O214 O 0.23749 0.65917 0.52036 0.0
Zn215 Zn 0.1965 0.61275 0.54433 0.0
O216 O 0.19802 0.66435 0.57899 0.0
O217 O 0.23813 0.60951 0.60851 0.0
O218 O 0.11694 0.59911 0.53661 0.0
O219 O 0.14612 0.55051 0.5705 0.0
O220 O 0.27064 0.49737 0.57307 0.0
O221 O 0.2348 0.52942 0.53657 0.0
C222 C 0.21517 0.65704 0.60217 0.0
C223 C 0.26136 0.49025 0.54928 0.0
C224 C 0.18833 0.38962 0.28155 0.0
C225 C 0.17844 0.33858 0.26776 0.0
H226 H 0.21588 0.47773 0.28017 0.0
C227 C 0.18934 0.33775 0.24126 0.0
H228 H 0.18026 0.39148 0.30197 0.0
C229 C 0.20853 0.38738 0.22868 0.0
C230 C 0.21839 0.43842 0.24247 0.0
H231 H 0.18167 0.29912 0.23009 0.0
H232 H 0.21589 0.38572 0.2082 0.0
C233 C 0.20876 0.43889 0.26907 0.0
C234 C 0.43857 0.7908 0.75946 0.0
C235 C 0.43811 0.78118 0.78606 0.0
H236 H 0.39116 0.81929 0.72655 0.0
C237 C 0.38709 0.79106 0.79984 0.0
H238 H 0.4774 0.78366 0.74836 0.0
C239 C 0.33745 0.81026 0.78727 0.0
C240 C 0.33827 0.82114 0.76077 0.0
H241 H 0.38543 0.78371 0.82032 0.0
H242 H 0.29883 0.81794 0.79844 0.0
C243 C 0.3893 0.81123 0.74698 0.0
C244 C 0.79081 0.56183 0.26897 0.0
C245 C 0.78117 0.56226 0.24237 0.0
H246 H 0.81932 0.60929 0.30187 0.0
C247 C 0.79106 0.61327 0.22857 0.0
H248 H 0.78367 0.52302 0.28008 0.0
C249 C 0.81027 0.66292 0.24114 0.0
C250 C 0.82117 0.66213 0.26764 0.0
H251 H 0.7837 0.6149 0.20809 0.0
H252 H 0.81796 0.70152 0.22996 0.0
C253 C 0.81126 0.61112 0.28144 0.0
C254 C 0.56152 0.20871 0.75944 0.0
C255 C 0.56201 0.21836 0.78604 0.0
H256 H 0.60892 0.18018 0.72653 0.0
C257 C 0.61304 0.2085 0.79982 0.0
H258 H 0.52269 0.21583 0.74834 0.0
C259 C 0.66267 0.1893 0.78724 0.0
C260 C 0.66184 0.17838 0.76074 0.0
H261 H 0.61472 0.21587 0.8203 0.0
H262 H 0.7013 0.18164 0.79841 0.0
C263 C 0.61079 0.18826 0.74696 0.0
C264 C 0.20903 0.06162 1.00943 0.0
C265 C 0.21869 0.06212 0.03602 0.0
H266 H 0.18049 0.109 0.97652 0.0
C267 C 0.20883 0.11317 0.0498 0.0
H268 H 0.21615 0.02278 0.99833 0.0
C269 C 0.18962 0.16278 0.03722 0.0
C270 C 0.1787 0.16193 1.01072 0.0
H271 H 0.21621 0.11485 0.07028 0.0
H272 H 0.18196 0.20142 0.04839 0.0
C273 C 0.18858 0.11088 0.99694 0.0
C274 C 0.1108 0.81169 0.03154 0.0
C275 C 0.16184 0.82157 0.01776 0.0
H276 H 0.0227 0.78413 0.03016 0.0
C277 C 0.16267 0.81064 0.99126 0.0
H278 H 0.10893 0.81979 0.05197 0.0
C279 C 0.11305 0.79143 0.97868 0.0
C280 C 0.06201 0.78157 0.99246 0.0
H281 H 0.20131 0.81829 0.98009 0.0
H282 H 0.11472 0.78404 0.9582 0.0
C283 C 0.06153 0.79124 0.01906 0.0
C284 C 0.81158 0.8894 0.99696 0.0
C285 C 0.82147 0.83837 1.01074 0.0
H286 H 0.78402 0.97751 0.99834 0.0
C287 C 0.81057 0.83756 0.03725 0.0
H288 H 0.81965 0.89126 0.97653 0.0
C289 C 0.79138 0.88719 0.04982 0.0
C290 C 0.78151 0.93822 0.03604 0.0
H291 H 0.81823 0.79893 0.04841 0.0
H292 H 0.78401 0.88554 0.0703 0.0
C293 C 0.79114 0.93868 1.00944 0.0
C294 C 0.88935 0.18868 0.03153 0.0
C295 C 0.83831 0.17878 0.01775 0.0
H296 H 0.97746 0.21624 0.03015 0.0
C297 C 0.83747 0.18969 0.99125 0.0
H298 H 0.89123 0.18061 0.05196 0.0
C299 C 0.8871 0.20889 0.97867 0.0
C300 C 0.93814 0.21876 0.99245 0.0
H301 H 0.79884 0.18202 0.98009 0.0
H302 H 0.88542 0.21625 0.95819 0.0
C303 C 0.93862 0.20912 0.01905 0.0
C304 C 0.68957 0.83718 0.74127 0.0
C305 C 0.67866 0.83803 0.76777 0.0
H306 H 0.71615 0.88511 0.70821 0.0
C307 C 0.68855 0.88908 0.78155 0.0
H308 H 0.68191 0.79854 0.7301 0.0
C309 C 0.709 0.93834 0.76906 0.0
C310 C 0.71865 0.93784 0.74247 0.0
H311 H 0.68048 0.89096 0.80198 0.0
H312 H 0.71613 0.97718 0.78016 0.0
C313 C 0.70878 0.8868 0.72869 0.0
C314 C 0.88686 0.29175 0.29981 0.0
C315 C 0.9379 0.28187 0.28603 0.0
H316 H 0.7986 0.3186 0.29839 0.0
C317 C 0.93837 0.29149 0.25943 0.0
H318 H 0.88519 0.2844 0.32029 0.0
C319 C 0.8891 0.31191 0.24694 0.0
C320 C 0.83806 0.3218 0.26072 0.0
H321 H 0.97721 0.28436 0.24833 0.0
H322 H 0.89097 0.31996 0.22652 0.0
C323 C 0.83723 0.31093 0.28723 0.0
C324 C 0.29135 0.1127 0.72868 0.0
C325 C 0.28146 0.06168 0.74246 0.0
H326 H 0.31822 0.20096 0.73008 0.0
C327 C 0.29111 0.06123 0.76906 0.0
H328 H 0.28398 0.11436 0.7082 0.0
C329 C 0.31156 0.1105 0.78154 0.0
C330 C 0.32145 0.16153 0.76775 0.0
H331 H 0.28398 0.0224 0.78016 0.0
H332 H 0.31963 0.10865 0.80197 0.0
C333 C 0.31055 0.16234 0.74125 0.0
C334 C 0.11273 0.70925 0.29975 0.0
C335 C 0.06172 0.71911 0.28596 0.0
H336 H 0.20098 0.68236 0.29838 0.0
C337 C 0.06128 0.70944 0.25936 0.0
H338 H 0.11437 0.71664 0.32024 0.0
C339 C 0.11057 0.68897 0.2469 0.0
C340 C 0.16158 0.67907 0.2607 0.0
H341 H 0.02247 0.71656 0.24825 0.0
H342 H 0.10873 0.68087 0.22647 0.0
C343 C 0.16237 0.69002 0.2872 0.0
C344 C 0.70887 0.56104 0.50935 0.0
C345 C 0.71855 0.56156 0.53595 0.0
H346 H 0.68032 0.60839 0.47643 0.0
C347 C 0.7087 0.61262 0.54971 0.0
H348 H 0.71598 0.52218 0.49826 0.0
C349 C 0.6895 0.66223 0.53713 0.0
C350 C 0.67855 0.66136 0.51063 0.0
H351 H 0.7161 0.61432 0.57019 0.0
H352 H 0.68185 0.70088 0.54829 0.0
C353 C 0.68842 0.61029 0.49686 0.0
C354 C 0.61068 0.31104 0.5315 0.0
C355 C 0.66172 0.32094 0.51772 0.0
H356 H 0.52258 0.28346 0.53012 0.0
C357 C 0.66256 0.30999 0.49122 0.0
H358 H 0.60881 0.31914 0.55192 0.0
C359 C 0.61293 0.29077 0.47864 0.0
C360 C 0.5619 0.2809 0.49242 0.0
H361 H 0.70119 0.31766 0.48005 0.0
H362 H 0.61461 0.28338 0.45816 0.0
C363 C 0.56142 0.29057 0.51902 0.0
C364 C 0.29132 0.38658 0.54984 0.0
C365 C 0.28143 0.43762 0.53607 0.0
H366 H 0.31819 0.29832 0.5484 0.0
C367 C 0.29108 0.43813 0.50948 0.0
H368 H 0.28395 0.38488 0.57032 0.0
C369 C 0.31152 0.38888 0.49698 0.0
C370 C 0.32142 0.33782 0.51075 0.0
H371 H 0.28394 0.47698 0.49839 0.0
H372 H 0.31959 0.39077 0.47655 0.0
C373 C 0.31052 0.33696 0.53725 0.0
C374 C 0.38688 0.70813 0.47866 0.0
C375 C 0.43795 0.71801 0.49242 0.0
H376 H 0.29862 0.68128 0.48012 0.0
C377 C 0.43849 0.70838 0.51902 0.0
H378 H 0.38517 0.71548 0.45818 0.0
C379 C 0.38924 0.68796 0.53153 0.0
C380 C 0.33817 0.67807 0.51777 0.0
H381 H 0.47735 0.71552 0.5301 0.0
H382 H 0.39116 0.67991 0.55196 0.0
C383 C 0.33728 0.68895 0.49127 0.0
C384 C 0.23727 0.20955 0.41543 0.0
C385 C 0.29508 0.21055 0.40738 0.0
H386 H 0.14832 0.21108 0.40423 0.0
C387 C 0.30718 0.21018 0.38098 0.0
H388 H 0.22661 0.21005 0.43564 0.0
C389 C 0.26239 0.2096 0.363 0.0
C390 C 0.20458 0.21079 0.37105 0.0
H391 H 0.35134 0.21074 0.37421 0.0
H392 H 0.27305 0.21013 0.34279 0.0
C393 C 0.19248 0.21038 0.39745 0.0
C394 C 0.21036 0.69226 0.64753 0.0
C395 C 0.21072 0.70435 0.62113 0.0
H396 H 0.21021 0.72641 0.68572 0.0
C397 C 0.20959 0.76216 0.61308 0.0
H398 H 0.21102 0.64811 0.65431 0.0
C399 C 0.2103 0.80696 0.63106 0.0
C400 C 0.21072 0.79487 0.65746 0.0
H401 H 0.21008 0.77281 0.59287 0.0
H402 H 0.2109 0.85111 0.62428 0.0
C403 C 0.20966 0.73706 0.66551 0.0
C404 C 0.69229 0.78932 0.38089 0.0
C405 C 0.70443 0.78911 0.40729 0.0
H406 H 0.72638 0.78952 0.3427 0.0
C407 C 0.76224 0.79058 0.41533 0.0
H408 H 0.64813 0.7884 0.37412 0.0
C409 C 0.80701 0.79005 0.39734 0.0
C410 C 0.79488 0.78947 0.37094 0.0
H411 H 0.77294 0.79021 0.43553 0.0
H412 H 0.85118 0.7897 0.40411 0.0
C413 C 0.73706 0.7902 0.3629 0.0
C414 C 0.79033 0.26233 0.66545 0.0
C415 C 0.7893 0.20451 0.65741 0.0
H416 H 0.78891 0.35126 0.65422 0.0
C417 C 0.78971 0.19236 0.63101 0.0
H418 H 0.78979 0.27302 0.68565 0.0
C419 C 0.79038 0.23712 0.61302 0.0
C420 C 0.78923 0.29494 0.62106 0.0
H421 H 0.78913 0.14819 0.62424 0.0
H422 H 0.78989 0.22643 0.59281 0.0
C423 C 0.78959 0.30709 0.64745 0.0
C424 C 0.19271 0.28973 0.881 0.0
C425 C 0.20483 0.28936 0.9074 0.0
H426 H 0.22682 0.28984 0.84281 0.0
C427 C 0.26265 0.29042 0.91545 0.0
H428 H 0.14855 0.28913 0.87423 0.0
C429 C 0.30743 0.28965 0.89746 0.0
C430 C 0.29531 0.28924 0.87106 0.0
H431 H 0.27332 0.28991 0.93565 0.0
H432 H 0.35159 0.28899 0.90423 0.0
C433 C 0.23749 0.29038 0.86302 0.0
C434 C 0.28969 0.6929 0.13103 0.0
C435 C 0.28929 0.70504 0.15743 0.0
H436 H 0.28993 0.72698 0.09284 0.0
C437 C 0.29042 0.76286 0.16547 0.0
H438 H 0.28903 0.64874 0.12426 0.0
C439 C 0.28976 0.80763 0.14748 0.0
C440 C 0.28937 0.79549 0.12108 0.0
H441 H 0.28989 0.77355 0.18567 0.0
H442 H 0.28914 0.8518 0.15425 0.0
C443 C 0.29044 0.73767 0.11304 0.0
C444 C 0.80744 0.71027 0.88103 0.0
C445 C 0.79532 0.71068 0.90743 0.0
H446 H 0.77333 0.71003 0.84284 0.0
C447 C 0.73751 0.70953 0.91548 0.0
H448 H 0.8516 0.71095 0.87426 0.0
C449 C 0.69273 0.71018 0.89749 0.0
C450 C 0.70485 0.71056 0.87109 0.0
H451 H 0.72683 0.71005 0.93568 0.0
H452 H 0.64857 0.71077 0.90426 0.0
C453 C 0.76266 0.70951 0.86304 0.0
C454 C 0.71025 0.19284 0.14746 0.0
C455 C 0.71062 0.20494 0.12106 0.0
H456 H 0.71003 0.22696 0.18565 0.0
C457 C 0.70942 0.26275 0.11302 0.0
H458 H 0.71095 0.14868 0.15423 0.0
C459 C 0.71007 0.30754 0.131 0.0
C460 C 0.71049 0.29543 0.1574 0.0
H461 H 0.70992 0.27342 0.09281 0.0
H462 H 0.71063 0.3517 0.12423 0.0
C463 C 0.70948 0.23763 0.16545 0.0
C464 C 0.98386 0.97466 0.32795 0.0
C465 C 0.96693 0.94927 0.3047 0.0
H466 H 0.02715 0.04576 0.34607 0.0
C467 C 0.98302 0.97536 0.28152 0.0
H468 H 0.97214 0.95504 0.34605 0.0
C469 C 0.01615 0.02558 0.28153 0.0
C470 C 0.0323 0.05161 0.30472 0.0
H471 H 0.9711 0.95619 0.26334 0.0
H472 H 0.02804 0.04478 0.26335 0.0
C473 C 0.01539 0.02619 0.32796 0.0
C474 C 0.97428 0.01549 0.70047 0.0
C475 C 0.94887 0.03243 0.72371 0.0
H476 H 0.04541 0.97221 0.68237 0.0
C477 C 0.97494 0.01634 0.7469 0.0
H478 H 0.95467 0.02719 0.68236 0.0
C479 C 0.02517 0.98323 0.7469 0.0
C480 C 0.05123 0.96709 0.72372 0.0
H481 H 0.95576 0.02827 0.76507 0.0
H482 H 0.04436 0.97136 0.76508 0.0
C483 C 0.02581 0.98397 0.70047 0.0
C484 C 0.01583 0.47436 0.95046 0.0
C485 C 0.03276 0.44895 0.9737 0.0
H486 H 0.97257 0.5455 0.93236 0.0
C487 C 0.01667 0.47503 0.99689 0.0
H488 H 0.02754 0.45476 0.93235 0.0
C489 C 0.98358 0.52526 0.9969 0.0
C490 C 0.96744 0.55133 0.97372 0.0
H491 H 0.02859 0.45584 0.01507 0.0
H492 H 0.9717 0.54445 0.01508 0.0
C493 C 0.98432 0.52591 0.95047 0.0
C494 C 0.47498 0.98358 0.03159 0.0
C495 C 0.4489 0.9675 0.05477 0.0
H496 H 0.54441 0.02854 1.0134 0.0
C497 C 0.47432 0.98444 0.07802 0.0
H498 H 0.45579 0.97166 1.01341 0.0
C499 C 0.52586 0.01594 0.07801 0.0
C500 C 0.55129 0.03281 0.05476 0.0
H501 H 0.45471 0.97274 0.09613 0.0
H502 H 0.54546 0.02769 0.09612 0.0
C503 C 0.52521 0.01667 0.03158 0.0
C504 C 0.48356 0.47467 0.78159 0.0
C505 C 0.46743 0.4486 0.80478 0.0
H506 H 0.52857 0.54408 0.76343 0.0
C507 C 0.48432 0.47402 0.82803 0.0
H508 H 0.47168 0.45547 0.76342 0.0
C509 C 0.51583 0.52557 0.82803 0.0
C510 C 0.53275 0.55098 0.80479 0.0
H511 H 0.47258 0.45443 0.84613 0.0
H512 H 0.52754 0.54518 0.84614 0.0
C513 C 0.51666 0.5249 0.7816 0.0
C514 C 0.52554 0.48455 0.20046 0.0
C515 C 0.55098 0.46763 0.2237 0.0
H516 H 0.4544 0.52781 0.18237 0.0
C517 C 0.52493 0.48374 0.24689 0.0
H518 H 0.54512 0.47282 0.18235 0.0
C519 C 0.47471 0.51685 0.24691 0.0
C520 C 0.44862 0.53298 0.22373 0.0
H521 H 0.54414 0.47183 0.26507 0.0
H522 H 0.45554 0.52875 0.26509 0.0
C523 C 0.47401 0.51607 0.20048 0.0
C524 C 0.48403 0.0253 0.45038 0.0
C525 C 0.4671 0.05072 0.47362 0.0
H526 H 0.52726 0.95415 0.43227 0.0
C527 C 0.48315 0.02461 0.49681 0.0
H528 H 0.47235 0.04493 0.43227 0.0
C529 C 0.51622 0.97436 0.49681 0.0
C530 C 0.53236 0.9483 0.47362 0.0
H531 H 0.47124 0.04379 0.51498 0.0
H532 H 0.52808 0.95515 0.51499 0.0
C533 C 0.51551 0.97374 0.45038 0.0
C534 C 0.97416 0.48379 0.57805 0.0
C535 C 0.94877 0.46689 0.55479 0.0
H536 H 0.0453 0.527 0.59618 0.0
C537 C 0.97489 0.48298 0.53162 0.0
H538 H 0.95452 0.47207 0.59615 0.0
C539 C 0.02514 0.51605 0.53164 0.0
C540 C 0.05118 0.53216 0.55483 0.0
H541 H 0.95573 0.47108 0.51343 0.0
H542 H 0.04436 0.52794 0.51347 0.0
C543 C 0.02572 0.51527 0.57807 0.0
loop_
_geom_bond_atom_site_label_1
_geom_bond_atom_site_label_2
_geom_bond_distance
_geom_bond_site_symmetry_2
_ccdc_geom_bond_type
C0 O2 1.247 . S
C0 O4 1.258 . S
C1 O8 1.260 . S
C1 O9 1.256 1_455 S
O2 C0 1.247 . S
O2 Zn3 2.028 . S
Zn3 O2 2.028 . S
Zn3 O7 2.035 . S
Zn3 O9 2.035 1_455 S
Zn3 O10 2.028 . S
O4 C0 1.258 . S
O4 Zn5 2.035 . S
Zn5 O4 2.035 . S
Zn5 O6 2.028 . S
Zn5 O8 2.028 . S
Zn5 O11 2.035 . S
O6 Zn5 2.028 . S
O6 C12 1.247 . S
O7 Zn3 2.035 . S
O7 C12 1.258 . S
O8 C1 1.260 . S
O8 Zn5 2.028 . S
O9 C1 1.256 1_655 S
O9 Zn3 2.035 1_655 S
O10 Zn3 2.028 . S
O10 C13 1.247 . S
O11 Zn5 2.035 . S
O11 C13 1.258 . S
C12 O6 1.247 . S
C12 O7 1.258 . S
C13 O10 1.247 . S
C13 O11 1.258 . S
C14 O16 1.247 . S
C14 O18 1.258 . S
C15 O22 1.247 . S
C15 O23 1.258 . S
O16 C14 1.247 . S
O16 Zn17 2.028 . S
Zn17 O16 2.028 . S
Zn17 O21 2.035 . S
Zn17 O23 2.035 . S
Zn17 O24 2.028 1_565 S
O18 C14 1.258 . S
O18 Zn19 2.035 . S
Zn19 O18 2.035 . S
Zn19 O20 2.028 . S
Zn19 O22 2.028 . S
Zn19 O25 2.035 . S
O20 Zn19 2.028 . S
O20 C26 1.247 . S
O21 Zn17 2.035 . S
O21 C26 1.258 . S
O22 C15 1.247 . S
O22 Zn19 2.028 . S
O23 C15 1.258 . S
O23 Zn17 2.035 . S
O24 Zn17 2.028 1_545 S
O24 C27 1.245 1_545 S
O25 Zn19 2.035 . S
O25 C27 1.268 . S
C26 O20 1.247 . S
C26 O21 1.258 . S
C27 O24 1.245 1_565 S
C27 O25 1.268 . S
C28 O30 1.247 . S
C28 O32 1.258 . S
C29 O36 1.247 . S
C29 O37 1.258 . S
O30 C28 1.247 . S
O30 Zn31 2.028 . S
Zn31 O30 2.028 . S
Zn31 O35 2.035 . S
Zn31 O37 2.035 . S
Zn31 O38 2.028 . S
O32 C28 1.258 . S
O32 Zn33 2.035 . S
Zn33 O32 2.035 . S
Zn33 O34 2.028 . S
Zn33 O36 2.028 . S
Zn33 O39 2.035 1_655 S
O34 Zn33 2.028 . S
O34 C40 1.247 . S
O35 Zn31 2.035 . S
O35 C40 1.258 . S
O36 C29 1.247 . S
O36 Zn33 2.028 . S
O37 C29 1.258 . S
O37 Zn31 2.035 . S
O38 Zn31 2.028 . S
O38 C41 1.260 . S
O39 Zn33 2.035 1_455 S
O39 C41 1.256 1_455 S
C40 O34 1.247 . S
C40 O35 1.258 . S
C41 O38 1.260 . S
C41 O39 1.256 1_655 S
C42 O44 1.247 . S
C42 O46 1.258 . S
C43 O50 1.245 1_545 S
C43 O51 1.268 . S
O44 C42 1.247 . S
O44 Zn45 2.028 . S
Zn45 O44 2.028 . S
Zn45 O49 2.035 . S
Zn45 O51 2.035 . S
Zn45 O52 2.028 . S
O46 C42 1.258 . S
O46 Zn47 2.035 . S
Zn47 O46 2.035 . S
Zn47 O48 2.028 . S
Zn47 O50 2.028 1_545 S
Zn47 O53 2.035 . S
O48 Zn47 2.028 . S
O48 C54 1.247 . S
O49 Zn45 2.035 . S
O49 C54 1.258 . S
O50 C43 1.245 1_565 S
O50 Zn47 2.028 1_565 S
O51 C43 1.268 . S
O51 Zn45 2.035 . S
O52 Zn45 2.028 . S
O52 C55 1.247 . S
O53 Zn47 2.035 . S
O53 C55 1.258 . S
C54 O48 1.247 . S
C54 O49 1.258 . S
C55 O52 1.247 . S
C55 O53 1.258 . S
C56 O58 1.245 1_455 S
C56 O60 1.268 . S
C57 O64 1.247 . S
C57 O65 1.258 . S
O58 C56 1.245 1_655 S
O58 Zn59 2.028 1_655 S
Zn59 O58 2.028 1_455 S
Zn59 O63 2.035 . S
Zn59 O65 2.035 . S
Zn59 O66 2.028 . S
O60 C56 1.268 . S
O60 Zn61 2.035 . S
Zn61 O60 2.035 . S
Zn61 O62 2.028 . S
Zn61 O64 2.028 . S
Zn61 O67 2.035 . S
O62 Zn61 2.028 . S
O62 C68 1.247 . S
O63 Zn59 2.035 . S
O63 C68 1.258 . S
O64 C57 1.247 . S
O64 Zn61 2.028 . S
O65 C57 1.258 . S
O65 Zn59 2.035 . S
O66 Zn59 2.028 . S
O66 C69 1.247 . S
O67 Zn61 2.035 . S
O67 C69 1.258 . S
C68 O62 1.247 . S
C68 O63 1.258 . S
C69 O66 1.247 . S
C69 O67 1.258 . S
C70 O72 1.247 . S
C70 O74 1.258 . S
C71 O78 1.245 1_565 S
C71 O79 1.268 . S
O72 C70 1.247 . S
O72 Zn73 2.028 . S
Zn73 O72 2.028 . S
Zn73 O77 2.035 . S
Zn73 O79 2.035 . S
Zn73 O80 2.028 . S
O74 C70 1.258 . S
O74 Zn75 2.035 . S
Zn75 O74 2.035 . S
Zn75 O76 2.028 . S
Zn75 O78 2.028 1_565 S
Zn75 O81 2.035 . S
O76 Zn75 2.028 . S
O76 C82 1.247 . S
O77 Zn73 2.035 . S
O77 C82 1.258 . S
O78 C71 1.245 1_545 S
O78 Zn75 2.028 1_545 S
O79 C71 1.268 . S
O79 Zn73 2.035 . S
O80 Zn73 2.028 . S
O80 C83 1.247 . S
O81 Zn75 2.035 . S
O81 C83 1.258 . S
C82 O76 1.247 . S
C82 O77 1.258 . S
C83 O80 1.247 . S
C83 O81 1.258 . S
C84 O86 1.247 . S
C84 O88 1.258 . S
C85 O92 1.260 . S
C85 O93 1.256 1_655 S
O86 C84 1.247 . S
O86 Zn87 2.028 . S
Zn87 O86 2.028 . S
Zn87 O91 2.035 . S
Zn87 O93 2.035 1_655 S
Zn87 O94 2.028 . S
O88 C84 1.258 . S
O88 Zn89 2.035 . S
Zn89 O88 2.035 . S
Zn89 O90 2.028 . S
Zn89 O92 2.028 . S
Zn89 O95 2.035 . S
O90 Zn89 2.028 . S
O90 C96 1.247 . S
O91 Zn87 2.035 . S
O91 C96 1.258 . S
O92 C85 1.260 . S
O92 Zn89 2.028 . S
O93 C85 1.256 1_455 S
O93 Zn87 2.035 1_455 S
O94 Zn87 2.028 . S
O94 C97 1.247 . S
O95 Zn89 2.035 . S
O95 C97 1.258 . S
C96 O90 1.247 . S
C96 O91 1.258 . S
C97 O94 1.247 . S
C97 O95 1.258 . S
C98 O100 1.247 . S
C98 O102 1.258 . S
C99 O106 1.245 1_545 S
C99 O107 1.268 . S
O100 C98 1.247 . S
O100 Zn101 2.028 . S
Zn101 O100 2.028 . S
Zn101 O105 2.035 . S
Zn101 O107 2.035 . S
Zn101 O108 2.028 . S
O102 C98 1.258 . S
O102 Zn103 2.035 . S
Zn103 O102 2.035 . S
Zn103 O104 2.028 . S
Zn103 O106 2.028 1_545 S
Zn103 O109 2.035 . S
O104 Zn103 2.028 . S
O104 C110 1.247 . S
O105 Zn101 2.035 . S
O105 C110 1.258 . S
O106 C99 1.245 1_565 S
O106 Zn103 2.028 1_565 S
O107 C99 1.268 . S
O107 Zn101 2.035 . S
O108 Zn101 2.028 . S
O108 C111 1.247 . S
O109 Zn103 2.035 . S
O109 C111 1.258 . S
C110 O104 1.247 . S
C110 O105 1.258 . S
C111 O108 1.247 . S
C111 O109 1.258 . S
C112 O114 1.247 . S
C112 O116 1.258 . S
C113 O120 1.247 . S
C113 O121 1.258 . S
O114 C112 1.247 . S
O114 Zn115 2.028 . S
Zn115 O114 2.028 . S
Zn115 O119 2.035 . S
Zn115 O121 2.035 . S
Zn115 O122 2.028 . S
O116 C112 1.258 . S
O116 Zn117 2.035 . S
Zn117 O116 2.035 . S
Zn117 O118 2.028 . S
Zn117 O120 2.028 . S
Zn117 O123 2.035 . S
O118 Zn117 2.028 . S
O118 C124 1.247 . S
O119 Zn115 2.035 . S
O119 C124 1.258 . S
O120 C113 1.247 . S
O120 Zn117 2.028 . S
O121 C113 1.258 . S
O121 Zn115 2.035 . S
O122 Zn115 2.028 . S
O122 C125 1.247 . S
O123 Zn117 2.035 . S
O123 C125 1.258 . S
C124 O118 1.247 . S
C124 O119 1.258 . S
C125 O122 1.247 . S
C125 O123 1.258 . S
C126 O128 1.247 . S
C126 O130 1.258 . S
C127 O134 1.247 . S
C127 O135 1.258 . S
O128 C126 1.247 . S
O128 Zn129 2.028 . S
Zn129 O128 2.028 . S
Zn129 O133 2.035 . S
Zn129 O135 2.035 . S
Zn129 O136 2.028 . S
O130 C126 1.258 . S
O130 Zn131 2.035 . S
Zn131 O130 2.035 . S
Zn131 O132 2.028 . S
Zn131 O134 2.028 . S
Zn131 O137 2.035 . S
O132 Zn131 2.028 . S
O132 C138 1.247 . S
O133 Zn129 2.035 . S
O133 C138 1.258 . S
O134 C127 1.247 . S
O134 Zn131 2.028 . S
O135 C127 1.258 . S
O135 Zn129 2.035 . S
O136 Zn129 2.028 . S
O136 C139 1.247 . S
O137 Zn131 2.035 . S
O137 C139 1.258 . S
C138 O132 1.247 . S
C138 O133 1.258 . S
C139 O136 1.247 . S
C139 O137 1.258 . S
C140 O142 1.247 . S
C140 O144 1.258 . S
C141 O148 1.247 . S
C141 O149 1.258 . S
O142 C140 1.247 . S
O142 Zn143 2.028 . S
Zn143 O142 2.028 . S
Zn143 O147 2.035 . S
Zn143 O149 2.035 . S
Zn143 O150 2.028 . S
O144 C140 1.258 . S
O144 Zn145 2.035 . S
Zn145 O144 2.035 . S
Zn145 O146 2.028 . S
Zn145 O148 2.028 . S
Zn145 O151 2.035 . S
O146 Zn145 2.028 . S
O146 C152 1.247 . S
O147 Zn143 2.035 . S
O147 C152 1.258 . S
O148 C141 1.247 . S
O148 Zn145 2.028 . S
O149 C141 1.258 . S
O149 Zn143 2.035 . S
O150 Zn143 2.028 . S
O150 C153 1.247 . S
O151 Zn145 2.035 . S
O151 C153 1.258 . S
C152 O146 1.247 . S
C152 O147 1.258 . S
C153 O150 1.247 . S
C153 O151 1.258 . S
C154 O156 1.247 . S
C154 O158 1.258 . S
C155 O162 1.247 . S
C155 O163 1.258 . S
O156 C154 1.247 . S
O156 Zn157 2.028 . S
Zn157 O156 2.028 . S
Zn157 O161 2.035 . S
Zn157 O163 2.035 . S
Zn157 O164 2.028 . S
O158 C154 1.258 . S
O158 Zn159 2.035 . S
Zn159 O158 2.035 . S
Zn159 O160 2.028 . S
Zn159 O162 2.028 . S
Zn159 O165 2.035 . S
O160 Zn159 2.028 . S
O160 C166 1.247 . S
O161 Zn157 2.035 . S
O161 C166 1.258 . S
O162 C155 1.247 . S
O162 Zn159 2.028 . S
O163 C155 1.258 . S
O163 Zn157 2.035 . S
O164 Zn157 2.028 . S
O164 C167 1.247 . S
O165 Zn159 2.035 . S
O165 C167 1.258 . S
C166 O160 1.247 . S
C166 O161 1.258 . S
C167 O164 1.247 . S
C167 O165 1.258 . S
C168 O170 1.247 . S
C168 O172 1.258 . S
C169 O176 1.247 . S
C169 O177 1.258 . S
O170 C168 1.247 . S
O170 Zn171 2.028 . S
Zn171 O170 2.028 . S
Zn171 O175 2.035 . S
Zn171 O177 2.035 . S
Zn171 O178 2.028 . S
O172 C168 1.258 . S
O172 Zn173 2.035 . S
Zn173 O172 2.035 . S
Zn173 O174 2.028 . S
Zn173 O176 2.028 . S
Zn173 O179 2.035 . S
O174 Zn173 2.028 . S
O174 C180 1.247 . S
O175 Zn171 2.035 . S
O175 C180 1.258 . S
O176 C169 1.247 . S
O176 Zn173 2.028 . S
O177 C169 1.258 . S
O177 Zn171 2.035 . S
O178 Zn171 2.028 . S
O178 C181 1.247 . S
O179 Zn173 2.035 . S
O179 C181 1.258 . S
C180 O174 1.247 . S
C180 O175 1.258 . S
C181 O178 1.247 . S
C181 O179 1.258 . S
C182 O184 1.247 . S
C182 O186 1.258 . S
C183 O190 1.247 . S
C183 O191 1.258 . S
O184 C182 1.247 . S
O184 Zn185 2.028 . S
Zn185 O184 2.028 . S
Zn185 O189 2.035 . S
Zn185 O191 2.035 . S
Zn185 O192 2.028 . S
O186 C182 1.258 . S
O186 Zn187 2.035 . S
Zn187 O186 2.035 . S
Zn187 O188 2.028 . S
Zn187 O190 2.028 . S
Zn187 O193 2.035 . S
O188 Zn187 2.028 . S
O188 C194 1.247 . S
O189 Zn185 2.035 . S
O189 C194 1.258 . S
O190 C183 1.247 . S
O190 Zn187 2.028 . S
O191 C183 1.258 . S
O191 Zn185 2.035 . S
O192 Zn185 2.028 . S
O192 C195 1.247 . S
O193 Zn187 2.035 . S
O193 C195 1.258 . S
C194 O188 1.247 . S
C194 O189 1.258 . S
C195 O192 1.247 . S
C195 O193 1.258 . S
C196 O198 1.247 . S
C196 O200 1.258 . S
C197 O204 1.247 . S
C197 O205 1.258 . S
O198 C196 1.247 . S
O198 Zn199 2.028 . S
Zn199 O198 2.028 . S
Zn199 O203 2.035 . S
Zn199 O205 2.035 . S
Zn199 O206 2.028 . S
O200 C196 1.258 . S
O200 Zn201 2.035 . S
Zn201 O200 2.035 . S
Zn201 O202 2.028 . S
Zn201 O204 2.028 . S
Zn201 O207 2.035 . S
O202 Zn201 2.028 . S
O202 C208 1.247 . S
O203 Zn199 2.035 . S
O203 C208 1.258 . S
O204 C197 1.247 . S
O204 Zn201 2.028 . S
O205 C197 1.258 . S
O205 Zn199 2.035 . S
O206 Zn199 2.028 . S
O206 C209 1.247 . S
O207 Zn201 2.035 . S
O207 C209 1.258 . S
C208 O202 1.247 . S
C208 O203 1.258 . S
C209 O206 1.247 . S
C209 O207 1.258 . S
C210 O212 1.247 . S
C210 O214 1.258 . S
C211 O218 1.247 . S
C211 O219 1.258 . S
O212 C210 1.247 . S
O212 Zn213 2.028 . S
Zn213 O212 2.028 . S
Zn213 O217 2.035 . S
Zn213 O219 2.035 . S
Zn213 O220 2.028 . S
O214 C210 1.258 . S
O214 Zn215 2.035 . S
Zn215 O214 2.035 . S
Zn215 O216 2.028 . S
Zn215 O218 2.028 . S
Zn215 O221 2.035 . S
O216 Zn215 2.028 . S
O216 C222 1.247 . S
O217 Zn213 2.035 . S
O217 C222 1.258 . S
O218 C211 1.247 . S
O218 Zn215 2.028 . S
O219 C211 1.258 . S
O219 Zn213 2.035 . S
O220 Zn213 2.028 . S
O220 C223 1.247 . S
O221 Zn215 2.035 . S
O221 C223 1.258 . S
C222 O216 1.247 . S
C222 O217 1.258 . S
C223 O220 1.247 . S
C223 O221 1.258 . S
C224 C225 1.387 . S
C224 H228 0.950 . S
C224 C233 1.390 . S
C225 C224 1.387 . S
C225 C227 1.387 . S
H226 C233 0.950 . S
C227 C225 1.387 . S
C227 C229 1.390 . S
C227 H231 0.950 . S
H228 C224 0.950 . S
C229 C227 1.390 . S
C229 C230 1.387 . S
C229 H232 0.950 . S
C230 C229 1.387 . S
C230 C233 1.387 . S
H231 C227 0.950 . S
H232 C229 0.950 . S
C233 C224 1.390 . S
C233 H226 0.950 . S
C233 C230 1.387 . S
C234 C235 1.387 . S
C234 H238 0.950 . S
C234 C243 1.390 . S
C235 C234 1.387 . S
C235 C237 1.387 . S
H236 C243 0.950 . S
C237 C235 1.387 . S
C237 C239 1.390 . S
C237 H241 0.950 . S
H238 C234 0.950 . S
C239 C237 1.390 . S
C239 C240 1.387 . S
C239 H242 0.950 . S
C240 C239 1.387 . S
C240 C243 1.387 . S
H241 C237 0.950 . S
H242 C239 0.950 . S
C243 C234 1.390 . S
C243 H236 0.950 . S
C243 C240 1.387 . S
C244 C245 1.387 . S
C244 H248 0.950 . S
C244 C253 1.390 . S
C245 C244 1.387 . S
C245 C247 1.387 . S
H246 C253 0.950 . S
C247 C245 1.387 . S
C247 C249 1.390 . S
C247 H251 0.950 . S
H248 C244 0.950 . S
C249 C247 1.390 . S
C249 C250 1.387 . S
C249 H252 0.950 . S
C250 C249 1.387 . S
C250 C253 1.387 . S
H251 C247 0.950 . S
H252 C249 0.950 . S
C253 C244 1.390 . S
C253 H246 0.950 . S
C253 C250 1.387 . S
C254 C255 1.387 . S
C254 H258 0.950 . S
C254 C263 1.390 . S
C255 C254 1.387 . S
C255 C257 1.387 . S
H256 C263 0.950 . S
C257 C255 1.387 . S
C257 C259 1.390 . S
C257 H261 0.950 . S
H258 C254 0.950 . S
C259 C257 1.390 . S
C259 C260 1.387 . S
C259 H262 0.950 . S
C260 C259 1.387 . S
C260 C263 1.387 . S
H261 C257 0.950 . S
H262 C259 0.950 . S
C263 C254 1.390 . S
C263 H256 0.950 . S
C263 C260 1.387 . S
C264 C265 1.387 1_556 S
C264 H268 0.963 . S
C264 C273 1.390 . S
C265 C264 1.387 1_554 S
C265 C267 1.387 . S
H266 C273 0.950 . S
C267 C265 1.387 . S
C267 C269 1.414 . S
C267 H271 0.950 . S
H268 C264 0.963 . S
C269 C267 1.414 . S
C269 C270 1.344 1_554 S
C269 H272 0.971 . S
C270 C269 1.344 1_556 S
C270 C273 1.387 . S
H271 C267 0.950 . S
H272 C269 0.971 . S
C273 C264 1.390 . S
C273 H266 0.950 . S
C273 C270 1.387 . S
C274 C275 1.387 . S
C274 H278 0.950 . S
C274 C283 1.390 . S
C275 C274 1.387 . S
C275 C277 1.387 1_554 S
H276 C283 0.950 . S
C277 C275 1.387 1_556 S
C277 C279 1.390 . S
C277 H281 0.950 . S
H278 C274 0.950 . S
C279 C277 1.390 . S
C279 C280 1.387 . S
C279 H282 0.950 . S
C280 C279 1.387 . S
C280 C283 1.387 1_556 S
H281 C277 0.950 . S
H282 C279 0.950 . S
C283 C274 1.390 . S
C283 H276 0.950 . S
C283 C280 1.387 1_554 S
C284 C285 1.387 . S
C284 H288 0.950 . S
C284 C293 1.390 . S
C285 C284 1.387 . S
C285 C287 1.421 . S
H286 C293 0.950 1_545 S
C287 C285 1.421 . S
C287 C289 1.371 1_556 S
C287 H291 0.936 1_556 S
H288 C284 0.950 . S
C289 C287 1.371 1_554 S
C289 C290 1.387 . S
C289 H292 0.950 . S
C290 C289 1.387 . S
C290 C293 1.387 1_554 S
H291 C287 0.936 1_554 S
H292 C289 0.950 . S
C293 C284 1.390 . S
C293 H286 0.950 1_565 S
C293 C290 1.387 1_556 S
C294 C295 1.387 . S
C294 H298 0.950 . S
C294 C303 1.390 . S
C295 C294 1.387 . S
C295 C297 1.387 1_554 S
H296 C303 0.950 . S
C297 C295 1.387 1_556 S
C297 C299 1.390 . S
C297 H301 0.950 . S
H298 C294 0.950 . S
C299 C297 1.390 . S
C299 C300 1.387 . S
C299 H302 0.950 . S
C300 C299 1.387 . S
C300 C303 1.387 1_556 S
H301 C297 0.950 . S
H302 C299 0.950 . S
C303 C294 1.390 . S
C303 H296 0.950 . S
C303 C300 1.387 1_554 S
C304 C305 1.387 . S
C304 H308 0.950 . S
C304 C313 1.390 . S
C305 C304 1.387 . S
C305 C307 1.387 . S
H306 C313 0.950 . S
C307 C305 1.387 . S
C307 C309 1.390 . S
C307 H311 0.950 . S
H308 C304 0.950 . S
C309 C307 1.390 . S
C309 C310 1.387 . S
C309 H312 0.950 1_565 S
C310 C309 1.387 . S
C310 C313 1.387 . S
H311 C307 0.950 . S
H312 C309 0.950 1_545 S
C313 C304 1.390 . S
C313 H306 0.950 . S
C313 C310 1.387 . S
C314 C315 1.387 . S
C314 H318 0.950 . S
C314 C323 1.390 . S
C315 C314 1.387 . S
C315 C317 1.387 . S
H316 C323 0.950 . S
C317 C315 1.387 . S
C317 C319 1.390 . S
C317 H321 0.950 . S
H318 C314 0.950 . S
C319 C317 1.390 . S
C319 C320 1.387 . S
C319 H322 0.950 . S
C320 C319 1.387 . S
C320 C323 1.387 . S
H321 C317 0.950 . S
H322 C319 0.950 . S
C323 C314 1.390 . S
C323 H316 0.950 . S
C323 C320 1.387 . S
C324 C325 1.387 . S
C324 H328 0.950 . S
C324 C333 1.390 . S
C325 C324 1.387 . S
C325 C327 1.387 . S
H326 C333 0.950 . S
C327 C325 1.387 . S
C327 C329 1.390 . S
C327 H331 0.950 . S
H328 C324 0.950 . S
C329 C327 1.390 . S
C329 C330 1.387 . S
C329 H332 0.950 . S
C330 C329 1.387 . S
C330 C333 1.387 . S
H331 C327 0.950 . S
H332 C329 0.950 . S
C333 C324 1.390 . S
C333 H326 0.950 . S
C333 C330 1.387 . S
C334 C335 1.387 . S
C334 H338 0.950 . S
C334 C343 1.390 . S
C335 C334 1.387 . S
C335 C337 1.387 . S
H336 C343 0.950 . S
C337 C335 1.387 . S
C337 C339 1.390 . S
C337 H341 0.950 . S
H338 C334 0.950 . S
C339 C337 1.390 . S
C339 C340 1.387 . S
C339 H342 0.950 . S
C340 C339 1.387 . S
C340 C343 1.387 . S
H341 C337 0.950 . S
H342 C339 0.950 . S
C343 C334 1.390 . S
C343 H336 0.950 . S
C343 C340 1.387 . S
C344 C345 1.387 . S
C344 H348 0.950 . S
C344 C353 1.390 . S
C345 C344 1.387 . S
C345 C347 1.387 . S
H346 C353 0.950 . S
C347 C345 1.387 . S
C347 C349 1.390 . S
C347 H351 0.950 . S
H348 C344 0.950 . S
C349 C347 1.390 . S
C349 C350 1.387 . S
C349 H352 0.950 . S
C350 C349 1.387 . S
C350 C353 1.387 . S
H351 C347 0.950 . S
H352 C349 0.950 . S
C353 C344 1.390 . S
C353 H346 0.950 . S
C353 C350 1.387 . S
C354 C355 1.387 . S
C354 H358 0.950 . S
C354 C363 1.390 . S
C355 C354 1.387 . S
C355 C357 1.387 . S
H356 C363 0.950 . S
C357 C355 1.387 . S
C357 C359 1.390 . S
C357 H361 0.950 . S
H358 C354 0.950 . S
C359 C357 1.390 . S
C359 C360 1.387 . S
C359 H362 0.950 . S
C360 C359 1.387 . S
C360 C363 1.387 . S
H361 C357 0.950 . S
H362 C359 0.950 . S
C363 C354 1.390 . S
C363 H356 0.950 . S
C363 C360 1.387 . S
C364 C365 1.387 . S
C364 H368 0.950 . S
C364 C373 1.390 . S
C365 C364 1.387 . S
C365 C367 1.387 . S
H366 C373 0.950 . S
C367 C365 1.387 . S
C367 C369 1.390 . S
C367 H371 0.950 . S
H368 C364 0.950 . S
C369 C367 1.390 . S
C369 C370 1.387 . S
C369 H372 0.950 . S
C370 C369 1.387 . S
C370 C373 1.387 . S
H371 C367 0.950 . S
H372 C369 0.950 . S
C373 C364 1.390 . S
C373 H366 0.950 . S
C373 C370 1.387 . S
C374 C375 1.387 . S
C374 H378 0.950 . S
C374 C383 1.390 . S
C375 C374 1.387 . S
C375 C377 1.387 . S
H376 C383 0.950 . S
C377 C375 1.387 . S
C377 C379 1.390 . S
C377 H381 0.950 . S
H378 C374 0.950 . S
C379 C377 1.390 . S
C379 C380 1.387 . S
C379 H382 0.950 . S
C380 C379 1.387 . S
C380 C383 1.387 . S
H381 C377 0.950 . S
H382 C379 0.950 . S
C383 C374 1.390 . S
C383 H376 0.950 . S
C383 C380 1.387 . S
C384 C385 1.387 . S
C384 H388 0.950 . S
C384 C393 1.390 . S
C385 C384 1.387 . S
C385 C387 1.387 . S
H386 C393 0.950 . S
C387 C385 1.387 . S
C387 C389 1.390 . S
C387 H391 0.950 . S
H388 C384 0.950 . S
C389 C387 1.390 . S
C389 C390 1.387 . S
C389 H392 0.950 . S
C390 C389 1.387 . S
C390 C393 1.387 . S
H391 C387 0.950 . S
H392 C389 0.950 . S
C393 C384 1.390 . S
C393 H386 0.950 . S
C393 C390 1.387 . S
C394 C395 1.387 . S
C394 H398 0.950 . S
C394 C403 1.390 . S
C395 C394 1.387 . S
C395 C397 1.387 . S
H396 C403 0.950 . S
C397 C395 1.387 . S
C397 C399 1.390 . S
C397 H401 0.950 . S
H398 C394 0.950 . S
C399 C397 1.390 . S
C399 C400 1.387 . S
C399 H402 0.950 . S
C400 C399 1.387 . S
C400 C403 1.387 . S
H401 C397 0.950 . S
H402 C399 0.950 . S
C403 C394 1.390 . S
C403 H396 0.950 . S
C403 C400 1.387 . S
C404 C405 1.387 . S
C404 H408 0.950 . S
C404 C413 1.390 . S
C405 C404 1.387 . S
C405 C407 1.387 . S
H406 C413 0.950 . S
C407 C405 1.387 . S
C407 C409 1.390 . S
C407 H411 0.950 . S
H408 C404 0.950 . S
C409 C407 1.390 . S
C409 C410 1.387 . S
C409 H412 0.950 . S
C410 C409 1.387 . S
C410 C413 1.387 . S
H411 C407 0.950 . S
H412 C409 0.950 . S
C413 C404 1.390 . S
C413 H406 0.950 . S
C413 C410 1.387 . S
C414 C415 1.387 . S
C414 H418 0.950 . S
C414 C423 1.390 . S
C415 C414 1.387 . S
C415 C417 1.387 . S
H416 C423 0.950 . S
C417 C415 1.387 . S
C417 C419 1.390 . S
C417 H421 0.950 . S
H418 C414 0.950 . S
C419 C417 1.390 . S
C419 C420 1.387 . S
C419 H422 0.950 . S
C420 C419 1.387 . S
C420 C423 1.387 . S
H421 C417 0.950 . S
H422 C419 0.950 . S
C423 C414 1.390 . S
C423 H416 0.950 . S
C423 C420 1.387 . S
C424 C425 1.387 . S
C424 H428 0.950 . S
C424 C433 1.390 . S
C425 C424 1.387 . S
C425 C427 1.387 . S
H426 C433 0.950 . S
C427 C425 1.387 . S
C427 C429 1.390 . S
C427 H431 0.950 . S
H428 C424 0.950 . S
C429 C427 1.390 . S
C429 C430 1.387 . S
C429 H432 0.950 . S
C430 C429 1.387 . S
C430 C433 1.387 . S
H431 C427 0.950 . S
H432 C429 0.950 . S
C433 C424 1.390 . S
C433 H426 0.950 . S
C433 C430 1.387 . S
C434 C435 1.387 . S
C434 H438 0.950 . S
C434 C443 1.390 . S
C435 C434 1.387 . S
C435 C437 1.387 . S
H436 C443 0.950 . S
C437 C435 1.387 . S
C437 C439 1.390 . S
C437 H441 0.950 . S
H438 C434 0.950 . S
C439 C437 1.390 . S
C439 C440 1.387 . S
C439 H442 0.950 . S
C440 C439 1.387 . S
C440 C443 1.387 . S
H441 C437 0.950 . S
H442 C439 0.950 . S
C443 C434 1.390 . S
C443 H436 0.950 . S
C443 C440 1.387 . S
C444 C445 1.387 . S
C444 H448 0.950 . S
C444 C453 1.390 . S
C445 C444 1.387 . S
C445 C447 1.387 . S
H446 C453 0.950 . S
C447 C445 1.387 . S
C447 C449 1.390 . S
C447 H451 0.950 . S
H448 C444 0.950 . S
C449 C447 1.390 . S
C449 C450 1.387 . S
C449 H452 0.950 . S
C450 C449 1.387 . S
C450 C453 1.387 . S
H451 C447 0.950 . S
H452 C449 0.950 . S
C453 C444 1.390 . S
C453 H446 0.950 . S
C453 C450 1.387 . S
C454 C455 1.387 . S
C454 H458 0.950 . S
C454 C463 1.390 . S
C455 C454 1.387 . S
C455 C457 1.387 . S
H456 C463 0.950 . S
C457 C455 1.387 . S
C457 C459 1.390 . S
C457 H461 0.950 . S
H458 C454 0.950 . S
C459 C457 1.390 . S
C459 C460 1.387 . S
C459 H462 0.950 . S
C460 C459 1.387 . S
C460 C463 1.387 . S
H461 C457 0.950 . S
H462 C459 0.950 . S
C463 C454 1.390 . S
C463 H456 0.950 . S
C463 C460 1.387 . S
C464 C465 1.387 . S
C464 H468 0.950 . S
C464 C473 1.390 1_665 S
C465 C464 1.387 . S
C465 C467 1.387 . S
H466 C473 0.950 . S
C467 C465 1.387 . S
C467 C469 1.390 1_665 S
C467 H471 0.950 . S
H468 C464 0.950 . S
C469 C467 1.390 1_445 S
C469 C470 1.387 . S
C469 H472 0.950 . S
C470 C469 1.387 . S
C470 C473 1.387 . S
H471 C467 0.950 . S
H472 C469 0.950 . S
C473 C464 1.390 1_445 S
C473 H466 0.950 . S
C473 C470 1.387 . S
C474 C475 1.387 . S
C474 H478 0.950 . S
C474 C483 1.390 1_645 S
C475 C474 1.387 . S
C475 C477 1.387 . S
H476 C483 0.950 . S
C477 C475 1.387 . S
C477 C479 1.390 1_645 S
C477 H481 0.950 . S
H478 C474 0.950 . S
C479 C477 1.390 1_465 S
C479 C480 1.387 . S
C479 H482 0.950 . S
C480 C479 1.387 . S
C480 C483 1.387 . S
H481 C477 0.950 . S
H482 C479 0.950 . S
C483 C474 1.390 1_465 S
C483 H476 0.950 . S
C483 C480 1.387 . S
C484 C485 1.387 . S
C484 H488 0.950 . S
C484 C493 1.390 1_455 S
C485 C484 1.387 . S
C485 C487 1.387 . S
H486 C493 0.950 . S
C487 C485 1.387 . S
C487 C489 1.390 1_455 S
C487 H491 0.950 . S
H488 C484 0.950 . S
C489 C487 1.390 1_655 S
C489 C490 1.387 . S
C489 H492 0.950 . S
C490 C489 1.387 . S
C490 C493 1.387 . S
H491 C487 0.950 . S
H492 C489 0.950 . S
C493 C484 1.390 1_655 S
C493 H486 0.950 . S
C493 C490 1.387 . S
C494 C495 1.387 . S
C494 H498 0.950 . S
C494 C503 1.390 1_565 S
C495 C494 1.387 . S
C495 C497 1.387 . S
H496 C503 0.950 . S
C497 C495 1.387 . S
C497 C499 1.390 1_565 S
C497 H501 0.950 . S
H498 C494 0.950 . S
C499 C497 1.390 1_545 S
C499 C500 1.387 . S
C499 H502 0.950 . S
C500 C499 1.387 . S
C500 C503 1.387 . S
H501 C497 0.950 . S
H502 C499 0.950 . S
C503 C494 1.390 1_545 S
C503 H496 0.950 . S
C503 C500 1.387 . S
C504 C505 1.387 . S
C504 H508 0.950 . S
C504 C513 1.390 . S
C505 C504 1.387 . S
C505 C507 1.387 . S
H506 C513 0.950 . S
C507 C505 1.387 . S
C507 C509 1.390 . S
C507 H511 0.950 . S
H508 C504 0.950 . S
C509 C507 1.390 . S
C509 C510 1.387 . S
C509 H512 0.950 . S
C510 C509 1.387 . S
C510 C513 1.387 . S
H511 C507 0.950 . S
H512 C509 0.950 . S
C513 C504 1.390 . S
C513 H506 0.950 . S
C513 C510 1.387 . S
C514 C515 1.387 . S
C514 H518 0.950 . S
C514 C523 1.390 . S
C515 C514 1.387 . S
C515 C517 1.387 . S
H516 C523 0.950 . S
C517 C515 1.387 . S
C517 C519 1.390 . S
C517 H521 0.950 . S
H518 C514 0.950 . S
C519 C517 1.390 . S
C519 C520 1.387 . S
C519 H522 0.950 . S
C520 C519 1.387 . S
C520 C523 1.387 . S
H521 C517 0.950 . S
H522 C519 0.950 . S
C523 C514 1.390 . S
C523 H516 0.950 . S
C523 C520 1.387 . S
C524 C525 1.387 . S
C524 H528 0.950 . S
C524 C533 1.390 1_545 S
C525 C524 1.387 . S
C525 C527 1.387 . S
H526 C533 0.950 . S
C527 C525 1.387 . S
C527 C529 1.390 1_545 S
C527 H531 0.950 . S
H528 C524 0.950 . S
C529 C527 1.390 1_565 S
C529 C530 1.387 . S
C529 H532 0.950 . S
C530 C529 1.387 . S
C530 C533 1.387 . S
H531 C527 0.950 . S
H532 C529 0.950 . S
C533 C524 1.390 1_565 S
C533 H526 0.950 . S
C533 C530 1.387 . S
C534 C535 1.387 . S
C534 H538 0.950 . S
C534 C543 1.390 1_655 S
C535 C534 1.387 . S
C535 C537 1.387 . S
H536 C543 0.950 . S
C537 C535 1.387 . S
C537 C539 1.390 1_655 S
C537 H541 0.950 . S
H538 C534 0.950 . S
C539 C537 1.390 1_455 S
C539 C540 1.387 . S
C539 H542 0.950 . S
C540 C539 1.387 . S
C540 C543 1.387 . S
H541 C537 0.950 . S
H542 C539 0.950 . S
C543 C534 1.390 1_455 S
C543 H536 0.950 . S
C543 C540 1.387 . S
C225 C12 1.599 . S
C230 C155 1.615 . S
C235 C112 1.615 . S
C240 C14 1.600 . S
C245 C127 1.615 . S
C250 C28 1.600 . S
C255 C141 1.615 . S
C260 C54 1.601 . S
C265 C71 1.607 1_545 S
C270 C69 1.602 . S
C275 C82 1.600 . S
C280 C85 1.604 1_455 S
C285 C96 1.600 . S
C290 C99 1.607 1_565 S
C295 C110 1.600 . S
C300 C56 1.606 1_655 S
C305 C125 1.601 . S
C310 C43 1.605 1_565 S
C315 C1 1.604 1_655 S
C320 C138 1.602 . S
C325 C27 1.606 1_545 S
C330 C152 1.599 . S
C335 C41 1.604 1_455 S
C340 C166 1.602 . S
C345 C183 1.615 . S
C350 C181 1.602 . S
C355 C194 1.602 . S
C360 C208 1.614 . S
C365 C223 1.614 . S
C370 C197 1.600 . S
C375 C168 1.615 . S
C380 C210 1.602 . S
C385 C209 1.757 . S
C390 C0 1.755 . S
C395 C222 1.757 . S
C400 C26 1.757 . S
C405 C169 1.757 . S
C410 C40 1.755 . S
C415 C42 1.756 . S
C420 C182 1.756 . S
C425 C57 1.756 . S
C430 C140 1.754 . S
C435 C154 1.756 . S
C440 C70 1.756 . S
C445 C84 1.754 . S
C450 C113 1.756 . S
C455 C98 1.757 . S
C460 C126 1.757 . S
C465 C29 1.655 . S
C470 C13 1.655 . S
C475 C55 1.653 . S
C480 C15 1.653 . S
C485 C68 1.653 . S
C490 C97 1.655 . S
C495 C83 1.653 . S
C500 C111 1.653 . S
C505 C153 1.655 . S
C510 C124 1.653 . S
C515 C139 1.653 . S
C520 C167 1.653 . S
C525 C196 1.653 . S
C530 C180 1.653 . S
C535 C195 1.653 . S
C540 C211 1.653 . S
