# Generated by pormake.
# Topology whw, (6)-cn, num edge types: 1
# Building blocks:
#     Node 0, Type 0, BuildingBlock: VOLQOD_clean_sbu_1, # of connection points: 6
#     Node 1, Type 0, BuildingBlock: VOLQOD_clean_sbu_1, # of connection points: 6
#     Node 2, Type 0, BuildingBlock: VOLQOD_clean_sbu_1, # of connection points: 6
#     Node 3, Type 0, BuildingBlock: VOLQOD_clean_sbu_1, # of connection points: 6
#     Node 4, Type 0, BuildingBlock: VOLQOD_clean_sbu_1, # of connection points: 6
#     Node 5, Type 0, BuildingBlock: VOLQOD_clean_sbu_1, # of connection points: 6
#     Node 6, Type 0, BuildingBlock: VOLQOD_clean_sbu_1, # of connection points: 6
#     Node 7, Type 0, BuildingBlock: VOLQOD_clean_sbu_1, # of connection points: 6
#     Node 8, Type 0, BuildingBlock: VOLQOD_clean_sbu_1, # of connection points: 6
#     Node 9, Type 0, BuildingBlock: VOLQOD_clean_sbu_1, # of connection points: 6
#     Node 10, Type 0, BuildingBlock: VOLQOD_clean_sbu_1, # of connection points: 6
#     Node 11, Type 0, BuildingBlock: VOLQOD_clean_sbu_1, # of connection points: 6
#     Node 12, Type 0, BuildingBlock: VOLQOD_clean_sbu_1, # of connection points: 6
#     Node 13, Type 0, BuildingBlock: VOLQOD_clean_sbu_1, # of connection points: 6
#     Node 14, Type 0, BuildingBlock: VOLQOD_clean_sbu_1, # of connection points: 6
#     Node 15, Type 0, BuildingBlock: VOLQOD_clean_sbu_1, # of connection points: 6
#     Edge 16, Type (0, 0), BuildingBlock: AJUNOK_clean_linker_0, # of connection points: 2
#     Edge 17, Type (0, 0), BuildingBlock: AJUNOK_clean_linker_0, # of connection points: 2
#     Edge 18, Type (0, 0), BuildingBlock: AJUNOK_clean_linker_0, # of connection points: 2
#     Edge 19, Type (0, 0), BuildingBlock: AJUNOK_clean_linker_0, # of connection points: 2
#     Edge 20, Type (0, 0), BuildingBlock: AJUNOK_clean_linker_0, # of connection points: 2
#     Edge 21, Type (0, 0), BuildingBlock: AJUNOK_clean_linker_0, # of connection points: 2
#     Edge 22, Type (0, 0), BuildingBlock: AJUNOK_clean_linker_0, # of connection points: 2
#     Edge 23, Type (0, 0), BuildingBlock: AJUNOK_clean_linker_0, # of connection points: 2
#     Edge 24, Type (0, 0), BuildingBlock: AJUNOK_clean_linker_0, # of connection points: 2
#     Edge 25, Type (0, 0), BuildingBlock: AJUNOK_clean_linker_0, # of connection points: 2
#     Edge 26, Type (0, 0), BuildingBlock: AJUNOK_clean_linker_0, # of connection points: 2
#     Edge 27, Type (0, 0), BuildingBlock: AJUNOK_clean_linker_0, # of connection points: 2
#     Edge 28, Type (0, 0), BuildingBlock: AJUNOK_clean_linker_0, # of connection points: 2
#     Edge 29, Type (0, 0), BuildingBlock: AJUNOK_clean_linker_0, # of connection points: 2
#     Edge 30, Type (0, 0), BuildingBlock: AJUNOK_clean_linker_0, # of connection points: 2
#     Edge 31, Type (0, 0), BuildingBlock: AJUNOK_clean_linker_0, # of connection points: 2
#     Edge 32, Type (0, 0), BuildingBlock: AJUNOK_clean_linker_0, # of connection points: 2
#     Edge 33, Type (0, 0), BuildingBlock: AJUNOK_clean_linker_0, # of connection points: 2
#     Edge 34, Type (0, 0), BuildingBlock: AJUNOK_clean_linker_0, # of connection points: 2
#     Edge 35, Type (0, 0), BuildingBlock: AJUNOK_clean_linker_0, # of connection points: 2
#     Edge 36, Type (0, 0), BuildingBlock: AJUNOK_clean_linker_0, # of connection points: 2
#     Edge 37, Type (0, 0), BuildingBlock: AJUNOK_clean_linker_0, # of connection points: 2
#     Edge 38, Type (0, 0), BuildingBlock: AJUNOK_clean_linker_0, # of connection points: 2
#     Edge 39, Type (0, 0), BuildingBlock: AJUNOK_clean_linker_0, # of connection points: 2
#     Edge 40, Type (0, 0), BuildingBlock: AJUNOK_clean_linker_0, # of connection points: 2
#     Edge 41, Type (0, 0), BuildingBlock: AJUNOK_clean_linker_0, # of connection points: 2
#     Edge 42, Type (0, 0), BuildingBlock: AJUNOK_clean_linker_0, # of connection points: 2
#     Edge 43, Type (0, 0), BuildingBlock: AJUNOK_clean_linker_0, # of connection points: 2
#     Edge 44, Type (0, 0), BuildingBlock: AJUNOK_clean_linker_0, # of connection points: 2
#     Edge 45, Type (0, 0), BuildingBlock: AJUNOK_clean_linker_0, # of connection points: 2
#     Edge 46, Type (0, 0), BuildingBlock: AJUNOK_clean_linker_0, # of connection points: 2
#     Edge 47, Type (0, 0), BuildingBlock: AJUNOK_clean_linker_0, # of connection points: 2
#     Edge 48, Type (0, 0), BuildingBlock: AJUNOK_clean_linker_0, # of connection points: 2
#     Edge 49, Type (0, 0), BuildingBlock: AJUNOK_clean_linker_0, # of connection points: 2
#     Edge 50, Type (0, 0), BuildingBlock: AJUNOK_clean_linker_0, # of connection points: 2
#     Edge 51, Type (0, 0), BuildingBlock: AJUNOK_clean_linker_0, # of connection points: 2
#     Edge 52, Type (0, 0), BuildingBlock: AJUNOK_clean_linker_0, # of connection points: 2
#     Edge 53, Type (0, 0), BuildingBlock: AJUNOK_clean_linker_0, # of connection points: 2
#     Edge 54, Type (0, 0), BuildingBlock: AJUNOK_clean_linker_0, # of connection points: 2
#     Edge 55, Type (0, 0), BuildingBlock: AJUNOK_clean_linker_0, # of connection points: 2
#     Edge 56, Type (0, 0), BuildingBlock: AJUNOK_clean_linker_0, # of connection points: 2
#     Edge 57, Type (0, 0), BuildingBlock: AJUNOK_clean_linker_0, # of connection points: 2
#     Edge 58, Type (0, 0), BuildingBlock: AJUNOK_clean_linker_0, # of connection points: 2
#     Edge 59, Type (0, 0), BuildingBlock: AJUNOK_clean_linker_0, # of connection points: 2
#     Edge 60, Type (0, 0), BuildingBlock: AJUNOK_clean_linker_0, # of connection points: 2
#     Edge 61, Type (0, 0), BuildingBlock: AJUNOK_clean_linker_0, # of connection points: 2
#     Edge 62, Type (0, 0), BuildingBlock: AJUNOK_clean_linker_0, # of connection points: 2
#     Edge 63, Type (0, 0), BuildingBlock: AJUNOK_clean_linker_0, # of connection points: 2
# Relax obj value: 0.800
# Max RMSD: 0.286
# Mean RMSD: 0.286
data_MOF--net-whw--node1-VOLQOD_clean_sbu_1--edge1-AJUNOK_clean_linker_0
_symmetry_space_group_name_H-M    P1
_symmetry_Int_Tables_number       1
_symmetry_cell_setting            triclinic
loop_
_symmetry_equiv_pos_as_xyz
'x, y, z'
_cell_length_a     43.069042
_cell_length_b     42.981236
_cell_length_c     18.274833
_cell_angle_alpha  90.160233
_cell_angle_beta   89.724977
_cell_angle_gamma 89.949138
loop_
_atom_site_label
_atom_site_type_symbol
_atom_site_fract_x
_atom_site_fract_y
_atom_site_fract_z
_atom_type_partial_charge
O0 O 0.93024 0.10751 0.22412 0.0
Zn1 Zn 0.95333 0.13961 0.17079 0.0
O2 O -0.0036 0.12724 0.16033 0.0
Zn3 Zn 0.02352 0.16146 0.17015 0.0
Zn4 Zn 0.00295 0.09701 0.23915 0.0
Zn5 Zn 0.00036 0.11405 0.06156 0.0
O6 O 0.04542 0.17374 0.07716 0.0
O7 O 0.03873 0.13061 0.0131 0.0
O8 O 0.95073 0.17864 0.22767 0.0
O9 O -0.00073 0.1953 0.21298 0.0
O10 O 0.05665 0.15256 0.24081 0.0
O11 O 0.04455 0.10823 0.2957 0.0
O12 O 0.00653 0.05397 0.18129 0.0
O13 O 0.93205 0.14782 0.07786 0.0
O14 O 0.00279 0.06935 0.0643 0.0
O15 O 0.96479 0.12724 0.99808 0.0
C16 C 0.93619 0.11001 0.29145 0.0
C17 C 0.05213 0.15668 0.02231 0.0
C18 C 0.06273 0.13171 0.2876 0.0
C19 C 0.97174 0.19882 0.23719 0.0
C20 C 0.0055 0.04813 0.11188 0.0
C21 C 0.93942 0.14113 0.01259 0.0
O22 O 0.96449 0.10594 0.31132 0.0
O23 O 0.06835 0.6757 0.46696 0.0
Zn24 Zn 0.07712 0.68439 0.36307 0.0
O25 O 0.11339 0.7071 0.35521 0.0
Zn26 Zn 0.10696 0.74933 0.33315 0.0
Zn27 Zn 0.13642 0.70748 0.44414 0.0
Zn28 Zn 0.13238 0.6915 0.26678 0.0
O29 O 0.14216 0.7659 0.27644 0.0
O30 O 0.13991 0.72805 0.19541 0.0
O31 O 0.04621 0.70773 0.30616 0.0
O32 O 0.0712 0.75002 0.26751 0.0
O33 O 0.09968 0.77596 0.42153 0.0
O34 O 0.1283 0.74908 0.49925 0.0
O35 O 0.18071 0.70662 0.398 0.0
O36 O 0.07774 0.64337 0.31219 0.0
O37 O 0.17021 0.67349 0.30917 0.0
O38 O 0.10625 0.65779 0.21759 0.0
C39 C 0.08729 0.66749 0.51674 0.0
C40 C 0.14499 0.75667 0.21081 0.0
C41 C 0.11184 0.77308 0.48439 0.0
C42 C 0.04847 0.73131 0.26425 0.0
C43 C 0.1884 0.69326 0.33744 0.0
C44 C 0.08675 0.63917 0.24669 0.0
O45 O 0.11653 0.67369 0.51238 0.0
O46 O 0.5473 0.84128 0.6949 0.0
Zn47 Zn 0.53119 0.85348 0.59883 0.0
O48 O 0.49605 0.87885 0.6067 0.0
Zn49 Zn 0.45875 0.85724 0.60093 0.0
Zn50 Zn 0.49927 0.90297 0.694 0.0
Zn51 Zn 0.49728 0.89545 0.51029 0.0
O52 O 0.42613 0.87978 0.54639 0.0
O53 O 0.45713 0.89054 0.45406 0.0
O54 O 0.51886 0.81783 0.53803 0.0
O55 O 0.4673 0.81924 0.54268 0.0
O56 O 0.44194 0.85028 0.69905 0.0
O57 O 0.45832 0.89344 0.75528 0.0
O58 O 0.50864 0.94806 0.64975 0.0
O59 O 0.5653 0.87367 0.54429 0.0
O60 O 0.50423 0.93851 0.52904 0.0
O61 O 0.53392 0.87862 0.45088 0.0
C62 C 0.5494 0.85753 0.75281 0.0
C63 C 0.42983 0.88679 0.47966 0.0
C64 C 0.44054 0.86927 0.75246 0.0
C65 C 0.49251 0.80762 0.51819 0.0
C66 C 0.50875 0.95701 0.58209 0.0
C67 C 0.56114 0.87394 0.47577 0.0
O68 O 0.53481 0.88355 0.75894 0.0
O69 O 0.42953 0.23725 0.95523 0.0
Zn70 Zn 0.43312 0.20241 0.88119 0.0
O71 O 0.39808 0.17543 0.88463 0.0
Zn72 Zn 0.41257 0.13588 0.91981 0.0
Zn73 Zn 0.36668 0.19159 0.95126 0.0
Zn74 Zn 0.38377 0.16652 0.78806 0.0
O75 O 0.42872 0.10868 0.83701 0.0
O76 O 0.39793 0.12521 0.74867 0.0
O77 O 0.46967 0.1769 0.91045 0.0
O78 O 0.4464 0.14515 0.98876 0.0
O79 O 0.3783 0.11823 0.97808 0.0
O80 O 0.36536 0.16048 0.03782 0.0
O81 O 0.32828 0.19997 0.88563 0.0
O82 O 0.43755 0.22216 0.78206 0.0
O83 O 0.3387 0.17373 0.78248 0.0
O84 O 0.40135 0.19741 0.71808 0.0
C85 C 0.40805 0.24662 0.99806 0.0
C86 C 0.41899 0.10684 0.77139 0.0
C87 C 0.37487 0.13224 0.03891 0.0
C88 C 0.46972 0.16094 0.9692 0.0
C89 C 0.32092 0.19106 0.8207 0.0
C90 C 0.42262 0.21769 0.72301 0.0
O91 O 0.38201 0.2323 1.00091 0.0
O92 O 0.964 0.85816 0.81967 0.0
Zn93 Zn 0.9886 0.86439 0.91071 0.0
O94 O 0.03093 0.87178 0.89245 0.0
Zn95 Zn 0.05409 0.83566 0.88184 0.0
Zn96 Zn 0.03126 0.89766 0.80871 0.0
Zn97 Zn 0.04413 0.88781 0.98517 0.0
O98 O 0.09404 0.83501 0.93615 0.0
O99 O 0.07676 0.86033 0.03341 0.0
O100 O 0.98753 0.82722 0.97209 0.0
O101 O 0.03017 0.803 0.93207 0.0
O102 O 0.06409 0.82948 0.77784 0.0
O103 O 0.06468 0.87853 0.73643 0.0
O104 O 0.03263 0.94074 0.86455 0.0
O105 O 0.97022 0.89827 0.96965 0.0
O106 O 0.06263 0.92794 0.95861 0.0
O107 O 0.00625 0.89336 0.05369 0.0
C108 C 0.96717 0.87273 0.75968 0.0
C109 C 0.09644 0.84207 1.00335 0.0
C110 C 0.0711 0.84933 0.72882 0.0
C111 C 0.00623 0.80439 0.97324 0.0
C112 C 0.04603 0.94777 0.92547 0.0
C113 C 0.97817 0.89955 0.03628 0.0
O114 O 0.99029 0.89109 0.75029 0.0
O115 O 0.38542 0.70168 0.0603 0.0
Zn116 Zn 0.3745 0.72152 0.15405 0.0
O117 O 0.35546 0.76057 0.14257 0.0
Zn118 Zn 0.38286 0.79405 0.14712 0.0
Zn119 Zn 0.33271 0.75922 0.05347 0.0
Zn120 Zn 0.33638 0.76318 0.23668 0.0
O121 O 0.36668 0.83034 0.20309 0.0
O122 O 0.34644 0.80254 0.29219 0.0
O123 O 0.41138 0.72856 0.21446 0.0
O124 O 0.41917 0.77945 0.20358 0.0
O125 O 0.39202 0.80906 0.04796 0.0
O126 O 0.34753 0.79803 0.99118 0.0
O127 O 0.28681 0.75371 0.0931 0.0
O128 O 0.34817 0.6922 0.20946 0.0
O129 O 0.29294 0.76107 0.21412 0.0
O130 O 0.34709 0.7256 0.30016 0.0
C131 C 0.37068 0.70218 1.00038 0.0
C132 C 0.35678 0.82834 0.26837 0.0
C133 C 0.37394 0.8122 0.99356 0.0
C134 C 0.42634 0.75308 0.23043 0.0
C135 C 0.27586 0.75592 0.15893 0.0
C136 C 0.34783 0.69751 0.2776 0.0
O137 O 0.34807 0.72122 0.99108 0.0
O138 O 0.60053 0.14383 0.27933 0.0
Zn139 Zn 0.56959 0.14888 0.35624 0.0
O140 O 0.54275 0.11518 0.37111 0.0
Zn141 Zn 0.50304 0.13213 0.39674 0.0
Zn142 Zn 0.54231 0.09201 0.27973 0.0
Zn143 Zn 0.55934 0.09414 0.45498 0.0
O144 O 0.48527 0.1084 0.48125 0.0
O145 O 0.52449 0.0801 0.52355 0.0
O146 O 0.54119 0.1822 0.33151 0.0
O147 O 0.51237 0.1758 0.42947 0.0
O148 O 0.47382 0.12992 0.31076 0.0
O149 O 0.4984 0.09753 0.23469 0.0
O150 O 0.54706 0.0472 0.32322 0.0
O151 O 0.59162 0.16214 0.44487 0.0
O152 O 0.58193 0.06081 0.40414 0.0
O153 O 0.58759 0.12076 0.51536 0.0
C154 C 0.59629 0.13289 0.21598 0.0
C155 C 0.49615 0.0888 0.52667 0.0
C156 C 0.47455 0.11401 0.25165 0.0
C157 C 0.52993 0.19286 0.39044 0.0
C158 C 0.56278 0.04085 0.381 0.0
C159 C 0.5976 0.14813 0.50387 0.0
O160 O 0.57436 0.11317 0.20434 0.0
O161 O 0.11515 0.3027 0.53237 0.0
Zn162 Zn 0.10616 0.26843 0.60171 0.0
O163 O 0.14163 0.24378 0.61321 0.0
Zn164 Zn 0.1318 0.19978 0.6201 0.0
Zn165 Zn 0.17105 0.24849 0.53579 0.0
Zn166 Zn 0.15522 0.25757 0.70483 0.0
O167 O 0.12842 0.18514 0.72428 0.0
O168 O 0.13767 0.22958 0.78184 0.0
O169 O 0.07466 0.24127 0.55699 0.0
O170 O 0.09075 0.19292 0.5774 0.0
O171 O 0.15738 0.17424 0.55118 0.0
O172 O 0.15974 0.21137 0.46834 0.0
O173 O 0.21368 0.24301 0.59016 0.0
O174 O 0.09255 0.28658 0.69928 0.0
O175 O 0.20003 0.25425 0.70563 0.0
O176 O 0.14008 0.29987 0.73091 0.0
C177 C 0.13692 0.30904 0.48756 0.0
C178 C 0.1288 0.20137 0.78278 0.0
C179 C 0.15522 0.18271 0.4846 0.0
C180 C 0.07155 0.21193 0.55051 0.0
C181 C 0.22041 0.24682 0.6583 0.0
C182 C 0.11091 0.30216 0.73981 0.0
O183 O 0.16073 0.29097 0.48101 0.0
O184 O 0.85677 0.18754 0.54126 0.0
Zn185 Zn 0.88706 0.20867 0.60456 0.0
O186 O 0.88153 0.25367 0.60472 0.0
Zn187 Zn 0.91921 0.27573 0.59171 0.0
Zn188 Zn 0.85225 0.26233 0.52576 0.0
Zn189 Zn 0.86955 0.26396 0.70109 0.0
O190 O 0.93435 0.29837 0.68241 0.0
O191 O 0.88924 0.30238 0.73938 0.0
O192 O 0.92761 0.1987 0.5613 0.0
O193 O 0.94943 0.24554 0.55391 0.0
O194 O 0.91402 0.30825 0.51675 0.0
O195 O 0.86718 0.30255 0.46835 0.0
O196 O 0.80914 0.26863 0.58209 0.0
O197 O 0.88707 0.18937 0.70248 0.0
O198 O 0.82574 0.26971 0.69819 0.0
O199 O 0.87861 0.23026 0.7733 0.0
C200 C 0.85992 0.19431 0.47424 0.0
C201 C 0.91741 0.31052 0.73219 0.0
C202 C 0.8932 0.31711 0.47246 0.0
C203 C 0.9498 0.21628 0.54285 0.0
C204 C 0.80412 0.27099 0.65169 0.0
C205 C 0.88437 0.20145 0.76552 0.0
O206 O 0.85854 0.22308 0.45555 0.0
O207 O 0.59142 0.79208 0.05471 0.0
Zn208 Zn 0.60139 0.77252 0.14989 0.0
O209 O 0.62087 0.73352 0.13918 0.0
Zn210 Zn 0.59312 0.70017 0.14063 0.0
Zn211 Zn 0.64503 0.73495 0.05188 0.0
Zn212 Zn 0.63863 0.72983 0.23399 0.0
O213 O 0.6082 0.66325 0.19496 0.0
O214 O 0.62624 0.69045 0.28764 0.0
O215 O 0.56417 0.76502 0.20979 0.0
O216 O 0.55629 0.7142 0.19699 0.0
O217 O 0.58516 0.68614 0.04045 0.0
O218 O 0.6309 0.69645 0.98751 0.0
O219 O 0.69044 0.74005 0.09515 0.0
O220 O 0.62657 0.8019 0.20809 0.0
O221 O 0.68265 0.73074 0.21495 0.0
O222 O 0.62826 0.7677 0.29714 0.0
C223 C 0.6071 0.79128 0.99562 0.0
C224 C 0.61625 0.66487 0.2615 0.0
C225 C 0.60417 0.68285 0.98743 0.0
C226 C 0.54922 0.7404 0.22521 0.0
C227 C 0.70052 0.7366 0.16123 0.0
C228 C 0.62758 0.79595 0.27595 0.0
O229 O 0.63036 0.77277 0.98888 0.0
O230 O 0.66269 0.21631 0.96351 0.0
Zn231 Zn 0.62834 0.23445 0.9052 0.0
O232 O 0.62558 0.27924 0.9047 0.0
Zn233 Zn 0.58592 0.29479 0.93518 0.0
Zn234 Zn 0.6582 0.28921 0.97209 0.0
Zn235 Zn 0.6321 0.29298 0.80722 0.0
O236 O 0.56372 0.3193 0.85495 0.0
O237 O 0.6033 0.3271 0.77927 0.0
O238 O 0.59134 0.21925 0.95351 0.0
O239 O 0.56056 0.25952 0.97733 0.0
O240 O 0.59387 0.32563 0.01299 0.0
O241 O 0.64495 0.32838 0.03227 0.0
O242 O 0.69689 0.2913 0.90166 0.0
O243 O 0.62929 0.21627 0.80787 0.0
O244 O 0.67501 0.30671 0.797 0.0
O245 O 0.62723 0.25742 0.73526 0.0
C246 C 0.65928 0.22356 0.03013 0.0
C247 C 0.57571 0.33316 0.7999 0.0
C248 C 0.61712 0.33792 0.04449 0.0
C249 C 0.56679 0.23051 0.9811 0.0
C250 C 0.69886 0.3001 0.83433 0.0
C251 C 0.62786 0.22806 0.74465 0.0
O252 O 0.65702 0.25245 0.04586 0.0
O253 O 0.91205 0.82011 0.46382 0.0
Zn254 Zn 0.90227 0.81051 0.36088 0.0
O255 O 0.86748 0.78522 0.35642 0.0
Zn256 Zn 0.87644 0.74332 0.33674 0.0
Zn257 Zn 0.8444 0.78538 0.44528 0.0
Zn258 Zn 0.8484 0.79802 0.26625 0.0
O259 O 0.84269 0.72321 0.28199 0.0
O260 O 0.84191 0.75986 0.19825 0.0
O261 O 0.93415 0.7893 0.30074 0.0
O262 O 0.91207 0.74432 0.26991 0.0
O263 O 0.88452 0.71839 0.42659 0.0
O264 O 0.8529 0.74423 0.50091 0.0
O265 O 0.80016 0.78464 0.39841 0.0
O266 O 0.89759 0.85113 0.31053 0.0
O267 O 0.80944 0.81573 0.30453 0.0
O268 O 0.87406 0.83136 0.21419 0.0
C269 C 0.89344 0.82723 0.5157 0.0
C270 C 0.83827 0.73132 0.21626 0.0
C271 C 0.87078 0.72097 0.48804 0.0
C272 C 0.93311 0.76472 0.26158 0.0
C273 C 0.79177 0.79659 0.33702 0.0
C274 C 0.89091 0.85244 0.24309 0.0
O275 O 0.86441 0.81976 0.51342 0.0
O276 O 0.43132 0.65256 0.70097 0.0
Zn277 Zn 0.44602 0.64137 0.60235 0.0
O278 O 0.47974 0.61381 0.60598 0.0
Zn279 Zn 0.51834 0.63328 0.59427 0.0
Zn280 Zn 0.47895 0.59086 0.69535 0.0
Zn281 Zn 0.47638 0.59526 0.5117 0.0
O282 O 0.54869 0.6077 0.53902 0.0
O283 O 0.51561 0.59994 0.44992 0.0
O284 O 0.46004 0.67704 0.54393 0.0
O285 O 0.51107 0.67054 0.53351 0.0
O286 O 0.53724 0.64253 0.68942 0.0
O287 O 0.51985 0.60203 0.75328 0.0
O288 O 0.47264 0.54468 0.6576 0.0
O289 O 0.40991 0.62509 0.54737 0.0
O290 O 0.47009 0.55218 0.53567 0.0
O291 O 0.43964 0.61173 0.45438 0.0
C292 C 0.42941 0.63579 0.75803 0.0
C293 C 0.54353 0.60239 0.472 0.0
C294 C 0.53827 0.62546 0.74603 0.0
C295 C 0.48614 0.68467 0.51666 0.0
C296 C 0.46916 0.53462 0.59143 0.0
C297 C 0.41337 0.62049 0.47927 0.0
O298 O 0.44349 0.60943 0.76168 0.0
O299 O 0.07075 0.36142 0.22282 0.0
Zn300 Zn 0.03606 0.35355 0.15502 0.0
O301 O 0.01232 0.38945 0.1432 0.0
Zn302 Zn 0.96825 0.38021 0.13765 0.0
Zn303 Zn 0.01702 0.41814 0.22139 0.0
Zn304 Zn 0.02713 0.40336 0.0518 0.0
O305 O 0.95395 0.37728 0.03343 0.0
O306 O -0.00264 0.38945 0.97421 0.0
O307 O 0.009 0.32372 0.20456 0.0
O308 O 0.9608 0.33969 0.18407 0.0
O309 O 0.94269 0.40661 0.20515 0.0
O310 O 0.97961 0.40784 0.28811 0.0
O311 O 0.01086 0.46042 0.16604 0.0
O312 O 0.05192 0.33797 0.05752 0.0
O313 O 0.0279 0.44868 0.05343 0.0
O314 O 0.06734 0.38431 0.02093 0.0
C315 C 0.07622 0.38199 0.27121 0.0
C316 C 0.96935 0.38004 0.97402 0.0
C317 C 0.95087 0.40461 0.2719 0.0
C318 C 0.97981 0.32103 0.21317 0.0
C319 C 0.01677 0.46807 0.09923 0.0
C320 C 0.06742 0.3549 0.01343 0.0
O321 O 0.05833 0.40594 0.27856 0.0
O322 O 0.4658 0.31322 0.26911 0.0
Zn323 Zn 0.48848 0.32089 0.36356 0.0
O324 O 0.48684 0.36303 0.388 0.0
Zn325 Zn 0.52716 0.37441 0.42526 0.0
Zn326 Zn 0.47839 0.38681 0.30391 0.0
Zn327 Zn 0.45854 0.36966 0.46591 0.0
O328 O 0.52563 0.40065 0.51618 0.0
O329 O 0.48309 0.37796 0.55731 0.0
O330 O 0.53379 0.3104 0.36017 0.0
O331 O 0.54526 0.33538 0.46194 0.0
O332 O 0.55523 0.38767 0.34245 0.0
O333 O 0.52051 0.39217 0.25342 0.0
O334 O 0.46318 0.42668 0.35502 0.0
O335 O 0.46781 0.29647 0.44442 0.0
O336 O 0.43267 0.40608 0.44024 0.0
O337 O 0.43466 0.33129 0.48924 0.0
C338 C 0.45093 0.33074 0.22526 0.0
C339 C 0.50877 0.3916 0.56961 0.0
C340 C 0.54874 0.39153 0.27505 0.0
C341 C 0.54919 0.31246 0.41938 0.0
C342 C 0.44605 0.42961 0.41237 0.0
C343 C 0.44532 0.30366 0.4869 0.0
O344 O 0.45088 0.36051 0.23281 0.0
O345 O 0.01696 0.63428 0.82071 0.0
Zn346 Zn 0.99207 0.62761 0.91213 0.0
O347 O 0.94995 0.61825 0.89439 0.0
Zn348 Zn 0.92465 0.65324 0.88812 0.0
Zn349 Zn 0.94956 0.59516 0.80439 0.0
Zn350 Zn 0.93655 0.59879 0.98413 0.0
O351 O 0.88432 0.64994 0.94063 0.0
O352 O 0.90269 0.62456 0.03581 0.0
O353 O 0.99163 0.66511 0.97296 0.0
O354 O 0.94628 0.68616 0.94282 0.0
O355 O 0.91524 0.66227 0.78495 0.0
O356 O 0.91616 0.6147 0.7351 0.0
O357 O 0.95048 0.55038 0.84652 0.0
O358 O 0.01222 0.59539 0.97206 0.0
O359 O 0.9203 0.55984 0.94167 0.0
O360 O 0.9741 0.59286 0.05277 0.0
C361 C 0.0135 0.62104 0.75897 0.0
C362 C 0.88247 0.64264 0.00771 0.0
C363 C 0.9092 0.64385 0.73219 0.0
C364 C 0.97143 0.68647 0.97925 0.0
C365 C 0.94075 0.54297 0.91076 0.0
C366 C 0.00298 0.59032 0.03693 0.0
O367 O 0.98997 0.60363 0.74735 0.0
C368 C 0.08202 0.14834 0.90619 0.0
C369 C 0.07491 0.1675 0.96666 0.0
C370 C 0.10112 0.15877 0.84922 0.0
C371 C 0.11399 0.18885 0.8501 0.0
H372 H 0.07202 0.12531 0.90143 0.0
H373 H 0.10474 0.14347 0.80275 0.0
S374 S 0.10547 0.2471 0.99984 0.0
N375 N 0.08446 0.21716 0.02694 0.0
N376 N 0.12039 0.23681 0.92005 0.0
C377 C 0.10857 0.20765 0.91231 0.0
C378 C 0.08902 0.197 0.97041 0.0
C379 C 0.13718 0.77151 0.07975 0.0
C380 C 0.14337 0.78064 0.15221 0.0
C381 C 0.12473 0.79258 0.02925 0.0
C382 C 0.11772 0.82348 0.04951 0.0
H383 H 0.13943 0.74736 0.06347 0.0
H384 H 0.11803 0.78372 0.97606 0.0
S385 S 0.13734 0.86128 0.22565 0.0
N386 N 0.14792 0.82465 0.23622 0.0
N387 N 0.12337 0.86367 0.14189 0.0
C388 C 0.1272 0.83384 0.11868 0.0
C389 C 0.14047 0.81259 0.16974 0.0
C390 C 0.38949 0.87402 0.30087 0.0
C391 C 0.36605 0.85281 0.32119 0.0
C392 C 0.40808 0.88835 0.35367 0.0
C393 C 0.40357 0.88234 0.42852 0.0
H394 H 0.39591 0.87701 0.24394 0.0
H395 H 0.42789 0.9018 0.33526 0.0
S396 S 0.33823 0.83761 0.51005 0.0
N397 N 0.33424 0.83298 0.42089 0.0
N398 N 0.3687 0.86044 0.5205 0.0
C399 C 0.37682 0.86561 0.44957 0.0
C400 C 0.35812 0.85069 0.39567 0.0
C401 C 0.42459 0.08657 0.64415 0.0
C402 C 0.43702 0.08934 0.71502 0.0
C403 C 0.44388 0.08247 0.58301 0.0
C404 C 0.47632 0.08063 0.59034 0.0
H405 H 0.4001 0.09071 0.63487 0.0
H406 H 0.43351 0.08358 0.52915 0.0
S407 S 0.51971 0.07773 0.765 0.0
N408 N 0.48323 0.0833 0.79004 0.0
N409 N 0.51942 0.07528 0.6748 0.0
C410 C 0.48858 0.07852 0.66137 0.0
C411 C 0.4689 0.08292 0.72394 0.0
C412 C 0.9397 0.88185 0.21728 0.0
C413 C 0.90945 0.87343 0.1957 0.0
C414 C 0.96122 0.89369 0.16675 0.0
C415 C 0.95323 0.8979 0.09291 0.0
H416 H 0.94782 0.87671 0.27195 0.0
H417 H 0.98492 0.89717 0.18458 0.0
S418 S 0.87435 0.88749 0.01418 0.0
N419 N 0.87088 0.87558 0.09962 0.0
N420 N 0.91074 0.8989 1.00491 0.0
C421 C 0.92179 0.89353 0.07329 0.0
C422 C 0.90008 0.8809 0.12454 0.0
C423 C 0.91202 0.15658 0.82058 0.0
C424 C 0.89264 0.18268 0.82988 0.0
C425 C 0.92565 0.14204 0.88059 0.0
C426 C 0.92011 0.15282 0.95212 0.0
H427 H 0.91835 0.14844 0.76636 0.0
H428 H 0.94172 0.12309 0.87046 0.0
S429 S 0.86661 0.21687 0.00634 0.0
N430 N 0.86531 0.21622 0.9161 0.0
N431 N 0.89066 0.1887 0.02952 0.0
C432 C 0.89858 0.17718 0.9626 0.0
C433 C 0.88494 0.19219 0.90126 0.0
C434 C 0.61155 0.17707 0.6946 0.0
C435 C 0.62448 0.20668 0.68246 0.0
C436 C 0.60513 0.1571 0.63646 0.0
C437 C 0.61145 0.16602 0.56411 0.0
H438 H 0.60493 0.16973 0.74916 0.0
H439 H 0.59343 0.13536 0.64826 0.0
S440 S 0.65162 0.23822 0.50518 0.0
N441 N 0.64764 0.24211 0.59459 0.0
N442 N 0.63595 0.20427 0.48441 0.0
C443 C 0.62676 0.1945 0.55174 0.0
C444 C 0.63309 0.21497 0.61115 0.0
C445 C 0.58375 0.86487 0.35178 0.0
C446 C 0.58497 0.85975 0.42753 0.0
C447 C 0.60038 0.84593 0.30301 0.0
C448 C 0.6183 0.82068 0.32818 0.0
H449 H 0.56839 0.88245 0.32973 0.0
H450 H 0.59702 0.84962 0.24497 0.0
S451 S 0.63309 0.80036 0.52186 0.0
N452 N 0.60897 0.83019 0.52605 0.0
N453 N 0.63953 0.79416 0.4339 0.0
C454 C 0.62188 0.81701 0.40395 0.0
C455 C 0.60539 0.83666 0.45379 0.0
C456 C 0.58051 0.62104 0.29078 0.0
C457 C 0.60552 0.64013 0.31197 0.0
C458 C 0.56232 0.6056 0.34292 0.0
C459 C 0.56871 0.60837 0.41803 0.0
H460 H 0.57287 0.62042 0.23441 0.0
H461 H 0.54158 0.59374 0.32454 0.0
S462 S 0.63737 0.64768 0.49921 0.0
N463 N 0.63979 0.65536 0.41091 0.0
N464 N 0.60622 0.62571 0.50914 0.0
C465 C 0.59646 0.62345 0.43868 0.0
C466 C 0.61471 0.63955 0.38554 0.0
C467 C 0.57254 0.37352 0.70215 0.0
C468 C 0.5572 0.3549 0.75436 0.0
C469 C 0.55614 0.38908 0.64735 0.0
C470 C 0.52368 0.38637 0.64187 0.0
H471 H 0.59767 0.37465 0.70068 0.0
H472 H 0.5694 0.40094 0.60536 0.0
S473 S 0.47193 0.34744 0.77671 0.0
N474 N 0.50732 0.33983 0.80588 0.0
N475 N 0.47632 0.36903 0.70278 0.0
C476 C 0.50777 0.3712 0.69933 0.0
C477 C 0.52457 0.35538 0.75545 0.0
C478 C 0.92421 0.35995 0.90329 0.0
C479 C 0.9559 0.36764 0.9053 0.0
C480 C 0.91185 0.34281 0.84529 0.0
C481 C 0.93065 0.33238 0.7868 0.0
H482 H 0.90896 0.36614 0.94835 0.0
H483 H 0.88749 0.33666 0.84815 0.0
S484 S 0.01441 0.34977 0.76079 0.0
N485 N 0.00536 0.36619 0.83981 0.0
N486 N 0.98202 0.33382 0.7308 0.0
C487 C 0.96198 0.34164 0.78555 0.0
C488 C 0.97461 0.35932 0.84469 0.0
C489 C 0.8435 0.71439 0.08546 0.0
C490 C 0.83892 0.7064 0.15928 0.0
C491 C 0.85472 0.69251 0.03469 0.0
C492 C 0.86211 0.66183 0.05585 0.0
H493 H 0.84092 0.73829 0.06781 0.0
H494 H 0.86016 0.7006 0.98003 0.0
S495 S 0.84657 0.62688 0.23736 0.0
N496 N 0.83634 0.6637 0.24691 0.0
N497 N 0.85855 0.62314 0.15184 0.0
C498 C 0.85425 0.65261 0.12709 0.0
C499 C 0.84224 0.67471 0.17859 0.0
C500 C 0.44324 0.24948 0.5365 0.0
C501 C 0.43539 0.28119 0.54361 0.0
C502 C 0.43887 0.22871 0.5947 0.0
C503 C 0.427 0.23919 0.66197 0.0
H504 H 0.45336 0.24077 0.48609 0.0
H505 H 0.44545 0.20454 0.58765 0.0
S506 S 0.39898 0.31839 0.70686 0.0
N507 N 0.4122 0.32105 0.62217 0.0
N508 N 0.40465 0.28189 0.73122 0.0
C509 C 0.41779 0.27027 0.6691 0.0
C510 C 0.42172 0.29132 0.60984 0.0
C511 C 0.37042 0.65779 0.45342 0.0
C512 C 0.39014 0.63373 0.42859 0.0
C513 C 0.35466 0.67696 0.40411 0.0
C514 C 0.35753 0.67246 0.32822 0.0
H515 H 0.36905 0.6636 0.51106 0.0
H516 H 0.34166 0.69659 0.42554 0.0
S517 S 0.40179 0.60905 0.23589 0.0
N518 N 0.40841 0.60388 0.3239 0.0
N519 N 0.37832 0.63933 0.23095 0.0
C520 C 0.37462 0.64646 0.30302 0.0
C521 C 0.39105 0.62725 0.3533 0.0
C522 C 0.03797 0.60992 0.21962 0.0
C523 C 0.06883 0.61729 0.20006 0.0
C524 C 0.01727 0.59732 0.16849 0.0
C525 C 0.02668 0.5914 0.09597 0.0
H526 H 0.0288 0.61647 0.27278 0.0
H527 H 0.99312 0.59493 0.18432 0.0
S528 S 0.10739 0.5977 0.0242 0.0
N529 N 0.10938 0.61169 0.10829 0.0
N530 N 0.07093 0.58701 0.01271 0.0
C531 C 0.05861 0.59442 0.07915 0.0
C532 C 0.07954 0.60776 0.13093 0.0
C533 C 0.07483 0.30336 0.8463 0.0
C534 C 0.09923 0.31725 0.80692 0.0
C535 C 0.06554 0.31504 0.91451 0.0
C536 C 0.08001 0.3413 0.94527 0.0
H537 H 0.0633 0.28284 0.82516 0.0
H538 H 0.04644 0.30373 0.94257 0.0
S539 S 0.14485 0.38627 0.86341 0.0
N540 N 0.13779 0.35844 0.80326 0.0
N541 N 0.11979 0.38097 0.93093 0.0
C542 C 0.10426 0.35556 0.9061 0.0
C543 C 0.11403 0.34336 0.83711 0.0
C544 C 0.98987 0.27755 0.29493 0.0
C545 C 0.96851 0.29358 0.25143 0.0
C546 C 0.98818 0.24552 0.3 0.0
C547 C 0.96398 0.22922 0.26655 0.0
H548 H 0.01064 0.28892 0.31495 0.0
H549 H 0.0082 0.23323 0.32099 0.0
S550 S 0.89539 0.2626 0.17453 0.0
N551 N 0.91784 0.29274 0.19288 0.0
N552 N 0.91344 0.23195 0.20828 0.0
C553 C 0.93873 0.24578 0.23825 0.0
C554 C 0.94114 0.27851 0.22984 0.0
C555 C 0.96769 0.72542 0.20842 0.0
C556 C 0.95999 0.75697 0.21643 0.0
C557 C -0.00133 0.71655 0.21031 0.0
C558 C 0.02178 0.73924 0.21946 0.0
H559 H 0.95021 0.70742 0.21316 0.0
H560 H 0.00405 0.69202 0.21574 0.0
S561 S 0.01273 0.82416 0.19386 0.0
N562 N 0.97696 0.81039 0.19783 0.0
N563 N 0.03584 0.79365 0.20126 0.0
C564 C 0.01448 0.77046 0.20558 0.0
C565 C 0.98294 0.77945 0.2038 0.0
C566 C 0.51718 0.72851 0.46989 0.0
C567 C 0.48819 0.71381 0.47587 0.0
C568 C 0.5188 0.76082 0.47016 0.0
C569 C 0.49142 0.77847 0.47674 0.0
H570 H 0.53858 0.71551 0.47585 0.0
H571 H 0.54144 0.77149 0.47619 0.0
S572 S 0.41126 0.75026 0.44644 0.0
N573 N 0.43259 0.71846 0.45367 0.0
N574 N 0.43568 0.77968 0.45435 0.0
C575 C 0.46293 0.76405 0.46197 0.0
C576 C 0.46128 0.73119 0.4616 0.0
C577 C 0.51606 0.21972 0.04131 0.0
C578 C 0.5443 0.20862 0.01274 0.0
C579 C 0.49086 0.19962 0.04864 0.0
C580 C 0.49315 0.16897 0.0223 0.0
H581 H 0.51241 0.24434 0.05098 0.0
H582 H 0.46828 0.20964 0.06049 0.0
S583 S 0.56471 0.12578 0.97789 0.0
N584 N 0.57582 0.16234 0.98694 0.0
N585 N 0.52701 0.12563 0.99481 0.0
C586 C 0.52243 0.15618 0.01093 0.0
C587 C 0.54848 0.17612 1.00578 0.0
C588 C 0.96602 0.76945 0.02098 0.0
C589 C -0.0024 0.77677 0.01399 0.0
C590 C 0.95694 0.73848 0.0237 0.0
C591 C 0.97944 0.71484 0.01877 0.0
H592 H 0.94825 0.78703 0.01378 0.0
H593 H 0.93243 0.7332 0.01883 0.0
S594 S 0.0643 0.72403 0.04325 0.0
N595 N 0.05078 0.75976 0.03391 0.0
N596 N 0.03368 0.70098 0.03921 0.0
C597 C 0.01067 0.72237 0.03134 0.0
C598 C 0.01987 0.75386 0.02845 0.0
C599 C 0.50692 0.77311 0.27418 0.0
C600 C 0.52012 0.74338 0.26619 0.0
C601 C 0.47482 0.77643 0.27564 0.0
C602 C 0.4558 0.75006 0.26928 0.0
H603 H 0.52088 0.79394 0.26877 0.0
H604 H 0.46525 0.79968 0.2714 0.0
S605 S 0.48021 0.66805 0.29463 0.0
N606 N 0.51291 0.68783 0.28642 0.0
N607 N 0.45205 0.69404 0.28922 0.0
C608 C 0.4689 0.7206 0.28174 0.0
C609 C 0.50158 0.71724 0.2802 0.0
C610 C 0.52804 0.23741 0.47722 0.0
C611 C 0.54358 0.22119 0.42134 0.0
C612 C 0.5361 0.26816 0.49279 0.0
C613 C 0.55887 0.28314 0.45034 0.0
H614 H 0.50785 0.2275 0.50381 0.0
H615 H 0.52081 0.28159 0.52806 0.0
S616 S 0.61628 0.24611 0.32795 0.0
N617 N 0.59089 0.21842 0.34675 0.0
N618 N 0.60424 0.27713 0.37339 0.0
C619 C 0.57896 0.26518 0.40797 0.0
C620 C 0.5713 0.23386 0.39274 0.0
C621 C 0.02808 0.2199 0.46863 0.0
C622 C 0.04292 0.20042 0.51874 0.0
C623 C -0.00401 0.22163 0.46833 0.0
C624 C 0.97838 0.20288 0.51495 0.0
H625 H 0.04105 0.23753 0.43918 0.0
H626 H 0.98522 0.24114 0.44122 0.0
S627 S 0.00669 0.13942 0.63331 0.0
N628 N 0.0384 0.15595 0.60034 0.0
N629 N 0.97724 0.15799 0.59561 0.0
C630 C 0.99279 0.17841 0.5522 0.0
C631 C 0.02569 0.17728 0.55462 0.0
C632 C 0.04278 0.00609 0.08227 0.0
C633 C 0.01221 0.01732 0.07976 0.0
C634 C 0.05381 0.98477 0.02977 0.0
C635 C 0.03485 0.97398 0.97208 0.0
H636 H 0.05889 0.01537 0.12213 0.0
H637 H 0.07763 0.97686 0.03401 0.0
S638 S 0.952 0.99448 0.94539 0.0
N639 N 0.96258 0.015 0.01765 0.0
N640 N 0.98304 0.97456 0.91989 0.0
C641 C 0.00386 0.98424 0.97069 0.0
C642 C 0.99264 0.00583 0.02438 0.0
C643 C 0.21298 0.74248 0.29149 0.0
C644 C 0.2087 0.71017 0.2849 0.0
C645 C 0.2303 0.75909 0.23954 0.0
C646 C 0.24512 0.74395 0.18032 0.0
H647 H 0.20312 0.75511 0.33742 0.0
H648 H 0.23494 0.78347 0.25014 0.0
S649 S 0.23834 0.66038 0.13336 0.0
N650 N 0.21773 0.66429 0.20929 0.0
N651 N 0.2517 0.69543 0.11411 0.0
C652 C 0.23901 0.71221 0.16987 0.0
C653 C 0.2209 0.69529 0.22208 0.0
C654 C 0.51589 0.01778 0.44316 0.0
C655 C 0.54831 0.02137 0.43917 0.0
C656 C 0.50189 0.00173 0.50145 0.0
C657 C 0.51971 0.9876 0.55689 0.0
H658 H 0.50115 0.02733 0.40093 0.0
H659 H 0.47713 -0.00259 0.49886 0.0
S660 S 0.605 0.99326 0.57663 0.0
N661 N 0.59751 0.01263 0.50078 0.0
N662 N 0.5711 0.98101 0.60775 0.0
C663 C 0.55178 0.99311 0.5566 0.0
C664 C 0.5661 0.0099 0.49793 0.0
C665 C 0.28367 0.19186 0.71568 0.0
C666 C 0.29466 0.20568 0.78091 0.0
C667 C 0.26182 0.20682 0.67108 0.0
C668 C 0.25016 0.2363 0.68972 0.0
H669 H 0.29184 0.16905 0.69908 0.0
H670 H 0.25274 0.19446 0.62407 0.0
S671 S 0.27322 0.28412 0.85001 0.0
N672 N 0.29356 0.25177 0.85842 0.0
N673 N 0.25248 0.27973 0.77495 0.0
C674 C 0.26177 0.25091 0.75307 0.0
C675 C 0.28384 0.23564 0.79872 0.0
C676 C 0.74363 0.26683 0.79855 0.0
C677 C 0.72724 0.29477 0.79003 0.0
C678 C 0.76605 0.25752 0.74718 0.0
C679 C 0.77332 0.27583 0.68537 0.0
H680 H 0.73853 0.25157 0.84415 0.0
H681 H 0.77897 0.23635 0.7577 0.0
S682 S 0.73699 0.35105 0.6376 0.0
N683 N 0.71916 0.34042 0.7138 0.0
N684 N 0.76243 0.32329 0.61901 0.0
C685 C 0.75687 0.30359 0.67554 0.0
C686 C 0.73371 0.31301 0.72755 0.0
C687 C 0.75689 0.79502 0.22777 0.0
C688 C 0.76978 0.77959 0.28866 0.0
C689 C 0.73791 0.7794 0.17725 0.0
C690 C 0.73127 0.7476 0.18515 0.0
H691 H 0.76075 0.81972 0.22026 0.0
H692 H 0.72616 0.79293 0.13577 0.0
S693 S 0.76325 0.69505 0.32687 0.0
N694 N 0.77735 0.7296 0.34822 0.0
N695 N 0.74205 0.70036 0.25289 0.0
C696 C 0.74616 0.73136 0.24194 0.0
C697 C 0.76499 0.7473 0.29417 0.0
C698 C 0.43579 0.48954 0.56443 0.0
C699 C 0.46592 0.50167 0.57218 0.0
C700 C 0.42935 0.46636 0.51208 0.0
C701 C 0.45257 0.45549 0.46377 0.0
H702 H 0.41666 0.49975 0.59485 0.0
H703 H 0.4058 0.45778 0.50738 0.0
S704 S 0.53587 0.47769 0.46749 0.0
N705 N 0.51965 0.49885 0.53281 0.0
N706 N 0.50756 0.45662 0.4324 0.0
C707 C 0.48309 0.46631 0.47387 0.0
C708 C 0.48975 0.48885 0.5289 0.0
C709 C 0.95063 0.51578 0.02964 0.0
C710 C 0.96192 0.5258 0.96095 0.0
C711 C 0.96991 0.5007 0.08026 0.0
C712 C 0.00139 0.49507 0.06446 0.0
H713 H 0.92635 0.5188 0.0437 0.0
H714 H 0.95943 0.49118 0.12933 0.0
S715 S 0.04407 0.52127 0.8988 0.0
N716 N 0.00787 0.53219 0.88426 0.0
N717 N 0.04397 0.50424 0.97967 0.0
C718 C 0.01356 0.50718 0.99872 0.0
C719 C -0.00612 0.52212 0.94666 0.0
C720 C 0.11291 0.15943 0.31094 0.0
C721 C 0.09046 0.13773 0.33512 0.0
C722 C 0.13541 0.17183 0.35808 0.0
C723 C 0.13697 0.163 0.43198 0.0
H724 H 0.11215 0.16836 0.25558 0.0
H725 H 0.15066 0.1898 0.33718 0.0
S726 S 0.087 0.10314 0.52056 0.0
N727 N 0.07357 0.10533 0.43622 0.0
N728 N 0.11624 0.12791 0.52483 0.0
C729 C 0.11652 0.13914 0.45541 0.0
C730 C 0.09325 0.1267 0.40714 0.0
C731 C 0.11782 0.7934 0.61277 0.0
C732 C 0.10503 0.79687 0.54254 0.0
C733 C 0.10863 0.81261 0.67121 0.0
C734 C 0.08643 0.8364 0.66231 0.0
H735 H 0.13409 0.77478 0.62383 0.0
H736 H 0.11786 0.80771 0.72505 0.0
S737 S 0.04772 0.85753 0.48894 0.0
N738 N 0.07048 0.82801 0.46653 0.0
N739 N 0.05334 0.8638 0.5771 0.0
C740 C 0.0749 0.84161 0.59176 0.0
C741 C 0.08413 0.82192 0.53183 0.0
C742 C 0.41087 0.85234 0.94426 0.0
C743 C 0.38584 0.83166 0.93173 0.0
C744 C 0.42705 0.86666 0.88642 0.0
C745 C 0.419 0.8608 0.81342 0.0
H746 H 0.41909 0.85648 0.99936 0.0
H747 H 0.44722 0.88071 0.89893 0.0
S748 S 0.3523 0.81282 0.75056 0.0
N749 N 0.35165 0.80924 0.84051 0.0
N750 N 0.3817 0.83616 0.73187 0.0
C751 C 0.39245 0.84225 0.80026 0.0
C752 C 0.37593 0.82773 0.85926 0.0
C753 C 0.42541 0.14006 0.20908 0.0
C754 C 0.44724 0.11577 0.20118 0.0
C755 C 0.40074 0.14386 0.15973 0.0
C756 C 0.39647 0.12346 0.10003 0.0
H757 H 0.42795 0.15712 0.25236 0.0
H758 H 0.38571 0.16387 0.16685 0.0
S759 S 0.44471 0.05345 0.06023 0.0
N760 N 0.46123 0.06927 0.13263 0.0
N761 N 0.41472 0.07585 0.04098 0.0
C762 C 0.41694 0.09776 0.09449 0.0
C763 C 0.44237 0.09418 0.1443 0.0
C764 C 0.90116 0.83476 0.65144 0.0
C765 C 0.90735 0.84397 0.57916 0.0
C766 C 0.91968 0.84539 0.70987 0.0
C767 C 0.94506 0.86581 0.6985 0.0
H768 H 0.88319 0.81776 0.66241 0.0
H769 H 0.91477 0.83645 0.76404 0.0
S770 S 0.96795 0.90014 0.51995 0.0
N771 N 0.93846 0.87716 0.5002 0.0
N772 N 0.97295 0.89711 0.60913 0.0
C773 C 0.94998 0.87679 0.62689 0.0
C774 C 0.93125 0.86588 0.56761 0.0
C775 C 0.8975 0.14944 0.45764 0.0
C776 C 0.87639 0.17089 0.4263 0.0
C777 C 0.91636 0.12964 0.4145 0.0
C778 C 0.91401 0.12907 0.33781 0.0
H779 H 0.90039 0.14859 0.51639 0.0
H780 H 0.93306 0.11479 0.44155 0.0
S781 S 0.85912 0.17747 0.22867 0.0
N782 N 0.85304 0.18884 0.3139 0.0
N783 N 0.88613 0.15026 0.2328 0.0
C784 C 0.89145 0.14906 0.30601 0.0
C785 C 0.8733 0.1702 0.35001 0.0
C786 C 0.65275 0.16829 0.07719 0.0
C787 C 0.64391 0.20002 0.07875 0.0
C788 C 0.63627 0.14541 0.11746 0.0
C789 C 0.60926 0.15315 0.15722 0.0
H790 H 0.67296 0.16122 0.04576 0.0
H791 H 0.64512 0.12183 0.11895 0.0
S792 S 0.57401 0.23185 0.17268 0.0
N793 N 0.60556 0.23728 0.1228 0.0
N794 N 0.57327 0.19428 0.19096 0.0
C795 C 0.59942 0.18443 0.15588 0.0
C796 C 0.61698 0.20781 0.11876 0.0
C797 C 0.56022 0.85103 0.88749 0.0
C798 C 0.5679 0.84426 0.81435 0.0
C799 C 0.57401 0.83466 0.94557 0.0
C800 C 0.5963 0.81099 0.9332 0.0
H801 H 0.54234 0.868 0.89997 0.0
H802 H 0.56636 0.84006 1.0007 0.0
S803 S 0.62718 0.78687 0.75172 0.0
N804 N 0.6014 0.81411 0.73295 0.0
N805 N 0.62705 0.78355 0.84169 0.0
C806 C 0.60548 0.8053 0.86044 0.0
C807 C 0.59135 0.82183 0.8013 0.0
C808 C 0.55338 0.62728 0.87884 0.0
C809 C 0.55973 0.63527 0.80588 0.0
C810 C 0.56957 0.64129 0.93679 0.0
C811 C 0.593 0.66376 0.9245 0.0
H812 H 0.53454 0.6115 0.89169 0.0
H813 H 0.56262 0.63544 0.99212 0.0
S814 S 0.62184 0.68941 0.74317 0.0
N815 N 0.59384 0.66447 0.72415 0.0
N816 N 0.62383 0.6908 0.83334 0.0
C817 C 0.60129 0.67013 0.85178 0.0
C818 C 0.58473 0.65595 0.79254 0.0
C819 C 0.56732 0.39495 0.14543 0.0
C820 C 0.57376 0.38772 0.21885 0.0
C821 C 0.58483 0.382 0.08807 0.0
C822 C 0.60951 0.36129 0.10162 0.0
H823 H 0.54691 0.40844 0.13176 0.0
H824 H 0.57702 0.38577 0.0325 0.0
S825 S 0.63998 0.33964 0.28355 0.0
N826 N 0.61006 0.36248 0.30188 0.0
N827 N 0.64252 0.33795 0.19343 0.0
C828 C 0.61869 0.35697 0.17441 0.0
C829 C 0.6009 0.37024 0.23324 0.0
C830 C 0.9398 0.38536 0.39885 0.0
C831 C 0.93012 0.3882 0.32578 0.0
C832 C 0.92592 0.36397 0.44673 0.0
C833 C 0.90162 0.34409 0.42432 0.0
H834 H 0.95952 0.39857 0.41843 0.0
H835 H 0.93553 0.36199 0.50121 0.0
S836 S 0.86379 0.34557 0.24256 0.0
N837 N 0.89162 0.37187 0.2361 0.0
N838 N 0.86589 0.33145 0.32638 0.0
C839 C 0.8898 0.34844 0.35348 0.0
C840 C 0.90394 0.37049 0.3043 0.0
C841 C 0.87471 0.68381 0.67666 0.0
C842 C 0.89489 0.65828 0.66659 0.0
C843 C 0.86594 0.70294 0.61826 0.0
C844 C 0.87718 0.69767 0.54688 0.0
H845 H 0.86657 0.68989 0.73107 0.0
H846 H 0.85126 0.72282 0.63006 0.0
S847 S 0.92852 0.63208 0.48995 0.0
N848 N 0.92416 0.62736 0.57907 0.0
N849 N 0.90779 0.66309 0.46864 0.0
C850 C 0.89603 0.67107 0.53522 0.0
C851 C 0.90479 0.65142 0.59509 0.0
C852 C 0.41103 0.29406 0.17517 0.0
C853 C 0.4354 0.31523 0.16241 0.0
C854 C 0.40075 0.27348 0.1201 0.0
C855 C 0.4151 0.27253 0.0506 0.0
H856 H 0.40074 0.29245 0.22923 0.0
H857 H 0.38273 0.25688 0.13372 0.0
S858 S 0.47956 0.32387 0.98922 0.0
N859 N 0.47282 0.33482 0.07455 0.0
N860 N 0.45431 0.29595 0.97169 0.0
C861 C 0.43886 0.29441 0.0366 0.0
C862 C 0.44883 0.31573 0.09228 0.0
C863 C 0.3758 0.68946 0.86656 0.0
C864 C 0.38197 0.68174 0.93967 0.0
C865 C 0.39019 0.67341 0.80859 0.0
C866 C 0.41124 0.64873 0.82093 0.0
H867 H 0.36088 0.709 0.85386 0.0
H868 H 0.3854 0.68114 0.75341 0.0
S869 S 0.43234 0.6167 1.00225 0.0
N870 N 0.40835 0.64563 0.02124 0.0
N871 N 0.43532 0.6157 0.91216 0.0
C872 C 0.41612 0.63948 0.89362 0.0
C873 C 0.40157 0.65594 0.95288 0.0
C874 C 0.07969 0.65948 0.65203 0.0
C875 C 0.07363 0.65043 0.57963 0.0
C876 C 0.06106 0.64865 0.71025 0.0
C877 C 0.03577 0.62828 0.69826 0.0
H878 H 0.09757 0.67652 0.66325 0.0
H879 H 0.06576 0.65745 0.76467 0.0
S880 S 0.01342 0.59436 0.51882 0.0
N881 N 0.04292 0.61747 0.49966 0.0
N882 N 0.0082 0.59708 0.60813 0.0
C883 C 0.03107 0.61742 0.62639 0.0
C884 C 0.0499 0.62851 0.56743 0.0
C885 C 0.12303 0.35082 0.30806 0.0
C886 C 0.09998 0.37298 0.32725 0.0
C887 C 0.13807 0.33243 0.36108 0.0
C888 C 0.13067 0.33535 0.43577 0.0
H889 H 0.12754 0.34563 0.25093 0.0
H890 H 0.15323 0.31384 0.34267 0.0
S891 S 0.0774 0.39441 0.51682 0.0
N892 N 0.07461 0.40006 0.42774 0.0
N893 N 0.10287 0.36602 0.52711 0.0
C894 C 0.11056 0.35998 0.45626 0.0
C895 C 0.0953 0.37871 0.40222 0.0
loop_
_geom_bond_atom_site_label_1
_geom_bond_atom_site_label_2
_geom_bond_distance
_geom_bond_site_symmetry_2
_ccdc_geom_bond_type
O0 Zn1 1.953 . S
O0 C16 1.225 . S
Zn1 O0 1.953 . S
Zn1 O2 1.949 1_655 S
Zn1 O8 1.919 . S
Zn1 O13 1.924 . S
O2 Zn1 1.949 1_455 S
O2 Zn3 1.923 . S
O2 Zn4 1.950 . S
O2 Zn5 1.945 . S
Zn3 O2 1.923 . S
Zn3 O6 1.933 . S
Zn3 O9 1.941 . S
Zn3 O10 1.965 . S
Zn4 O2 1.950 . S
Zn4 O11 1.938 . S
Zn4 O12 1.906 . S
Zn4 O22 1.953 1_455 S
Zn5 O2 1.945 . S
Zn5 O7 1.932 1_554 S
Zn5 O14 1.977 . S
Zn5 O15 1.910 1_454 S
O6 Zn3 1.933 . S
O6 C17 1.226 1_554 S
O7 Zn5 1.932 1_556 S
O7 C17 1.307 . S
O8 Zn1 1.919 . S
O8 C19 1.253 1_655 S
O9 Zn3 1.941 . S
O9 C19 1.283 . S
O10 Zn3 1.965 . S
O10 C18 1.303 . S
O11 Zn4 1.938 . S
O11 C18 1.247 . S
O12 Zn4 1.906 . S
O12 C20 1.304 . S
O13 Zn1 1.924 . S
O13 C21 1.317 . S
O14 Zn5 1.977 . S
O14 C20 1.272 . S
O15 Zn5 1.910 1_656 S
O15 C21 1.228 1_556 S
C16 O0 1.225 . S
C16 O22 1.298 . S
C17 O6 1.226 1_556 S
C17 O7 1.307 . S
C18 O10 1.303 . S
C18 O11 1.247 . S
C19 O8 1.253 1_455 S
C19 O9 1.283 . S
C20 O12 1.304 . S
C20 O14 1.272 . S
C21 O13 1.317 . S
C21 O15 1.228 1_554 S
O22 Zn4 1.953 1_655 S
O22 C16 1.298 . S
O23 Zn24 1.953 . S
O23 C39 1.225 . S
Zn24 O23 1.953 . S
Zn24 O25 1.949 . S
Zn24 O31 1.919 . S
Zn24 O36 1.924 . S
O25 Zn24 1.949 . S
O25 Zn26 1.923 . S
O25 Zn27 1.950 . S
O25 Zn28 1.945 . S
Zn26 O25 1.923 . S
Zn26 O29 1.933 . S
Zn26 O32 1.941 . S
Zn26 O33 1.965 . S
Zn27 O25 1.950 . S
Zn27 O34 1.938 . S
Zn27 O35 1.906 . S
Zn27 O45 1.953 . S
Zn28 O25 1.945 . S
Zn28 O30 1.932 . S
Zn28 O37 1.977 . S
Zn28 O38 1.910 . S
O29 Zn26 1.933 . S
O29 C40 1.226 . S
O30 Zn28 1.932 . S
O30 C40 1.307 . S
O31 Zn24 1.919 . S
O31 C42 1.253 . S
O32 Zn26 1.941 . S
O32 C42 1.283 . S
O33 Zn26 1.965 . S
O33 C41 1.303 . S
O34 Zn27 1.938 . S
O34 C41 1.247 . S
O35 Zn27 1.906 . S
O35 C43 1.304 . S
O36 Zn24 1.924 . S
O36 C44 1.311 . S
O37 Zn28 1.977 . S
O37 C43 1.272 . S
O38 Zn28 1.910 . S
O38 C44 1.231 . S
C39 O23 1.225 . S
C39 O45 1.298 . S
C40 O29 1.226 . S
C40 O30 1.307 . S
C41 O33 1.303 . S
C41 O34 1.247 . S
C42 O31 1.253 . S
C42 O32 1.283 . S
C43 O35 1.304 . S
C43 O37 1.272 . S
C44 O36 1.311 . S
C44 O38 1.231 . S
O45 Zn27 1.953 . S
O45 C39 1.298 . S
O46 Zn47 1.953 . S
O46 C62 1.225 . S
Zn47 O46 1.953 . S
Zn47 O48 1.949 . S
Zn47 O54 1.919 . S
Zn47 O59 1.924 . S
O48 Zn47 1.949 . S
O48 Zn49 1.923 . S
O48 Zn50 1.950 . S
O48 Zn51 1.945 . S
Zn49 O48 1.923 . S
Zn49 O52 1.933 . S
Zn49 O55 1.941 . S
Zn49 O56 1.965 . S
Zn50 O48 1.950 . S
Zn50 O57 1.938 . S
Zn50 O58 1.906 . S
Zn50 O68 1.953 . S
Zn51 O48 1.945 . S
Zn51 O53 1.932 . S
Zn51 O60 1.977 . S
Zn51 O61 1.910 . S
O52 Zn49 1.933 . S
O52 C63 1.226 . S
O53 Zn51 1.932 . S
O53 C63 1.307 . S
O54 Zn47 1.919 . S
O54 C65 1.253 . S
O55 Zn49 1.941 . S
O55 C65 1.283 . S
O56 Zn49 1.965 . S
O56 C64 1.303 . S
O57 Zn50 1.938 . S
O57 C64 1.247 . S
O58 Zn50 1.906 . S
O58 C66 1.304 . S
O59 Zn47 1.924 . S
O59 C67 1.311 . S
O60 Zn51 1.977 . S
O60 C66 1.272 . S
O61 Zn51 1.910 . S
O61 C67 1.231 . S
C62 O46 1.225 . S
C62 O68 1.298 . S
C63 O52 1.226 . S
C63 O53 1.307 . S
C64 O56 1.303 . S
C64 O57 1.247 . S
C65 O54 1.253 . S
C65 O55 1.283 . S
C66 O58 1.304 . S
C66 O60 1.272 . S
C67 O59 1.311 . S
C67 O61 1.231 . S
O68 Zn50 1.953 . S
O68 C62 1.298 . S
O69 Zn70 1.953 . S
O69 C85 1.225 1_556 S
Zn70 O69 1.953 . S
Zn70 O71 1.949 . S
Zn70 O77 1.919 . S
Zn70 O82 1.924 . S
O71 Zn70 1.949 . S
O71 Zn72 1.923 . S
O71 Zn73 1.950 . S
O71 Zn74 1.945 . S
Zn72 O71 1.923 . S
Zn72 O75 1.933 . S
Zn72 O78 1.941 . S
Zn72 O79 1.965 . S
Zn73 O71 1.950 . S
Zn73 O80 1.938 1_556 S
Zn73 O81 1.906 . S
Zn73 O91 1.953 . S
Zn74 O71 1.945 . S
Zn74 O76 1.932 . S
Zn74 O83 1.977 . S
Zn74 O84 1.910 . S
O75 Zn72 1.933 . S
O75 C86 1.226 . S
O76 Zn74 1.932 . S
O76 C86 1.307 . S
O77 Zn70 1.919 . S
O77 C88 1.253 . S
O78 Zn72 1.941 . S
O78 C88 1.283 . S
O79 Zn72 1.965 . S
O79 C87 1.303 1_556 S
O80 Zn73 1.938 1_554 S
O80 C87 1.247 . S
O81 Zn73 1.906 . S
O81 C89 1.304 . S
O82 Zn70 1.924 . S
O82 C90 1.311 . S
O83 Zn74 1.977 . S
O83 C89 1.272 . S
O84 Zn74 1.910 . S
O84 C90 1.231 . S
C85 O69 1.225 1_554 S
C85 O91 1.298 1_554 S
C86 O75 1.226 . S
C86 O76 1.307 . S
C87 O79 1.303 1_554 S
C87 O80 1.247 . S
C88 O77 1.253 . S
C88 O78 1.283 . S
C89 O81 1.304 . S
C89 O83 1.272 . S
C90 O82 1.311 . S
C90 O84 1.231 . S
O91 Zn73 1.953 . S
O91 C85 1.298 1_556 S
O92 Zn93 1.953 . S
O92 C108 1.225 . S
Zn93 O92 1.953 . S
Zn93 O94 1.949 1_655 S
Zn93 O100 1.919 . S
Zn93 O105 1.924 . S
O94 Zn93 1.949 1_455 S
O94 Zn95 1.923 . S
O94 Zn96 1.950 . S
O94 Zn97 1.945 . S
Zn95 O94 1.923 . S
Zn95 O98 1.933 . S
Zn95 O101 1.941 . S
Zn95 O102 1.965 . S
Zn96 O94 1.950 . S
Zn96 O103 1.938 . S
Zn96 O104 1.906 . S
Zn96 O114 1.953 1_455 S
Zn97 O94 1.945 . S
Zn97 O99 1.932 1_556 S
Zn97 O106 1.977 . S
Zn97 O107 1.910 1_456 S
O98 Zn95 1.933 . S
O98 C109 1.226 1_556 S
O99 Zn97 1.932 1_554 S
O99 C109 1.307 . S
O100 Zn93 1.919 . S
O100 C111 1.253 1_655 S
O101 Zn95 1.941 . S
O101 C111 1.283 . S
O102 Zn95 1.965 . S
O102 C110 1.303 . S
O103 Zn96 1.938 . S
O103 C110 1.247 . S
O104 Zn96 1.906 . S
O104 C112 1.304 . S
O105 Zn93 1.924 . S
O105 C113 1.317 . S
O106 Zn97 1.977 . S
O106 C112 1.272 . S
O107 Zn97 1.910 1_654 S
O107 C113 1.228 1_554 S
C108 O92 1.225 . S
C108 O114 1.298 . S
C109 O98 1.226 1_554 S
C109 O99 1.307 . S
C110 O102 1.303 . S
C110 O103 1.247 . S
C111 O100 1.253 1_455 S
C111 O101 1.283 . S
C112 O104 1.304 . S
C112 O106 1.272 . S
C113 O105 1.317 . S
C113 O107 1.228 1_556 S
O114 Zn96 1.953 1_655 S
O114 C108 1.298 . S
O115 Zn116 1.953 . S
O115 C131 1.225 1_554 S
Zn116 O115 1.953 . S
Zn116 O117 1.949 . S
Zn116 O123 1.919 . S
Zn116 O128 1.924 . S
O117 Zn116 1.949 . S
O117 Zn118 1.923 . S
O117 Zn119 1.950 . S
O117 Zn120 1.945 . S
Zn118 O117 1.923 . S
Zn118 O121 1.933 . S
Zn118 O124 1.941 . S
Zn118 O125 1.965 . S
Zn119 O117 1.950 . S
Zn119 O126 1.938 1_554 S
Zn119 O127 1.906 . S
Zn119 O137 1.953 . S
Zn120 O117 1.945 . S
Zn120 O122 1.932 . S
Zn120 O129 1.977 . S
Zn120 O130 1.910 . S
O121 Zn118 1.933 . S
O121 C132 1.226 . S
O122 Zn120 1.932 . S
O122 C132 1.307 . S
O123 Zn116 1.919 . S
O123 C134 1.253 . S
O124 Zn118 1.941 . S
O124 C134 1.283 . S
O125 Zn118 1.965 . S
O125 C133 1.303 1_554 S
O126 Zn119 1.938 1_556 S
O126 C133 1.247 . S
O127 Zn119 1.906 . S
O127 C135 1.304 . S
O128 Zn116 1.924 . S
O128 C136 1.311 . S
O129 Zn120 1.977 . S
O129 C135 1.272 . S
O130 Zn120 1.910 . S
O130 C136 1.231 . S
C131 O115 1.225 1_556 S
C131 O137 1.298 1_556 S
C132 O121 1.226 . S
C132 O122 1.307 . S
C133 O125 1.303 1_556 S
C133 O126 1.247 . S
C134 O123 1.253 . S
C134 O124 1.283 . S
C135 O127 1.304 . S
C135 O129 1.272 . S
C136 O128 1.311 . S
C136 O130 1.231 . S
O137 Zn119 1.953 . S
O137 C131 1.298 1_554 S
O138 Zn139 1.953 . S
O138 C154 1.225 . S
Zn139 O138 1.953 . S
Zn139 O140 1.949 . S
Zn139 O146 1.919 . S
Zn139 O151 1.924 . S
O140 Zn139 1.949 . S
O140 Zn141 1.923 . S
O140 Zn142 1.950 . S
O140 Zn143 1.945 . S
Zn141 O140 1.923 . S
Zn141 O144 1.933 . S
Zn141 O147 1.941 . S
Zn141 O148 1.965 . S
Zn142 O140 1.950 . S
Zn142 O149 1.938 . S
Zn142 O150 1.906 . S
Zn142 O160 1.953 . S
Zn143 O140 1.945 . S
Zn143 O145 1.932 . S
Zn143 O152 1.977 . S
Zn143 O153 1.910 . S
O144 Zn141 1.933 . S
O144 C155 1.226 . S
O145 Zn143 1.932 . S
O145 C155 1.307 . S
O146 Zn139 1.919 . S
O146 C157 1.253 . S
O147 Zn141 1.941 . S
O147 C157 1.283 . S
O148 Zn141 1.965 . S
O148 C156 1.303 . S
O149 Zn142 1.938 . S
O149 C156 1.247 . S
O150 Zn142 1.906 . S
O150 C158 1.304 . S
O151 Zn139 1.924 . S
O151 C159 1.311 . S
O152 Zn143 1.977 . S
O152 C158 1.272 . S
O153 Zn143 1.910 . S
O153 C159 1.231 . S
C154 O138 1.225 . S
C154 O160 1.298 . S
C155 O144 1.226 . S
C155 O145 1.307 . S
C156 O148 1.303 . S
C156 O149 1.247 . S
C157 O146 1.253 . S
C157 O147 1.283 . S
C158 O150 1.304 . S
C158 O152 1.272 . S
C159 O151 1.311 . S
C159 O153 1.231 . S
O160 Zn142 1.953 . S
O160 C154 1.298 . S
O161 Zn162 1.953 . S
O161 C177 1.225 . S
Zn162 O161 1.953 . S
Zn162 O163 1.949 . S
Zn162 O169 1.919 . S
Zn162 O174 1.924 . S
O163 Zn162 1.949 . S
O163 Zn164 1.923 . S
O163 Zn165 1.950 . S
O163 Zn166 1.945 . S
Zn164 O163 1.923 . S
Zn164 O167 1.933 . S
Zn164 O170 1.941 . S
Zn164 O171 1.965 . S
Zn165 O163 1.950 . S
Zn165 O172 1.938 . S
Zn165 O173 1.906 . S
Zn165 O183 1.953 . S
Zn166 O163 1.945 . S
Zn166 O168 1.932 . S
Zn166 O175 1.977 . S
Zn166 O176 1.910 . S
O167 Zn164 1.933 . S
O167 C178 1.226 . S
O168 Zn166 1.932 . S
O168 C178 1.307 . S
O169 Zn162 1.919 . S
O169 C180 1.253 . S
O170 Zn164 1.941 . S
O170 C180 1.283 . S
O171 Zn164 1.965 . S
O171 C179 1.303 . S
O172 Zn165 1.938 . S
O172 C179 1.247 . S
O173 Zn165 1.906 . S
O173 C181 1.304 . S
O174 Zn162 1.924 . S
O174 C182 1.311 . S
O175 Zn166 1.977 . S
O175 C181 1.272 . S
O176 Zn166 1.910 . S
O176 C182 1.231 . S
C177 O161 1.225 . S
C177 O183 1.298 . S
C178 O167 1.226 . S
C178 O168 1.307 . S
C179 O171 1.303 . S
C179 O172 1.247 . S
C180 O169 1.253 . S
C180 O170 1.283 . S
C181 O173 1.304 . S
C181 O175 1.272 . S
C182 O174 1.311 . S
C182 O176 1.231 . S
O183 Zn165 1.953 . S
O183 C177 1.298 . S
O184 Zn185 1.953 . S
O184 C200 1.225 . S
Zn185 O184 1.953 . S
Zn185 O186 1.949 . S
Zn185 O192 1.919 . S
Zn185 O197 1.924 . S
O186 Zn185 1.949 . S
O186 Zn187 1.923 . S
O186 Zn188 1.950 . S
O186 Zn189 1.945 . S
Zn187 O186 1.923 . S
Zn187 O190 1.933 . S
Zn187 O193 1.941 . S
Zn187 O194 1.965 . S
Zn188 O186 1.950 . S
Zn188 O195 1.938 . S
Zn188 O196 1.906 . S
Zn188 O206 1.953 . S
Zn189 O186 1.945 . S
Zn189 O191 1.932 . S
Zn189 O198 1.977 . S
Zn189 O199 1.910 . S
O190 Zn187 1.933 . S
O190 C201 1.226 . S
O191 Zn189 1.932 . S
O191 C201 1.307 . S
O192 Zn185 1.919 . S
O192 C203 1.253 . S
O193 Zn187 1.941 . S
O193 C203 1.283 . S
O194 Zn187 1.965 . S
O194 C202 1.303 . S
O195 Zn188 1.938 . S
O195 C202 1.247 . S
O196 Zn188 1.906 . S
O196 C204 1.304 . S
O197 Zn185 1.924 . S
O197 C205 1.311 . S
O198 Zn189 1.977 . S
O198 C204 1.272 . S
O199 Zn189 1.910 . S
O199 C205 1.231 . S
C200 O184 1.225 . S
C200 O206 1.298 . S
C201 O190 1.226 . S
C201 O191 1.307 . S
C202 O194 1.303 . S
C202 O195 1.247 . S
C203 O192 1.253 . S
C203 O193 1.283 . S
C204 O196 1.304 . S
C204 O198 1.272 . S
C205 O197 1.311 . S
C205 O199 1.231 . S
O206 Zn188 1.953 . S
O206 C200 1.298 . S
O207 Zn208 1.953 . S
O207 C223 1.225 1_554 S
Zn208 O207 1.953 . S
Zn208 O209 1.949 . S
Zn208 O215 1.919 . S
Zn208 O220 1.924 . S
O209 Zn208 1.949 . S
O209 Zn210 1.923 . S
O209 Zn211 1.950 . S
O209 Zn212 1.945 . S
Zn210 O209 1.923 . S
Zn210 O213 1.933 . S
Zn210 O216 1.941 . S
Zn210 O217 1.965 . S
Zn211 O209 1.950 . S
Zn211 O218 1.938 1_554 S
Zn211 O219 1.906 . S
Zn211 O229 1.953 . S
Zn212 O209 1.945 . S
Zn212 O214 1.932 . S
Zn212 O221 1.977 . S
Zn212 O222 1.910 . S
O213 Zn210 1.933 . S
O213 C224 1.226 . S
O214 Zn212 1.932 . S
O214 C224 1.307 . S
O215 Zn208 1.919 . S
O215 C226 1.253 . S
O216 Zn210 1.941 . S
O216 C226 1.283 . S
O217 Zn210 1.965 . S
O217 C225 1.303 1_554 S
O218 Zn211 1.938 1_556 S
O218 C225 1.247 . S
O219 Zn211 1.906 . S
O219 C227 1.304 . S
O220 Zn208 1.924 . S
O220 C228 1.311 . S
O221 Zn212 1.977 . S
O221 C227 1.272 . S
O222 Zn212 1.910 . S
O222 C228 1.231 . S
C223 O207 1.225 1_556 S
C223 O229 1.298 1_556 S
C224 O213 1.226 . S
C224 O214 1.307 . S
C225 O217 1.303 1_556 S
C225 O218 1.247 . S
C226 O215 1.253 . S
C226 O216 1.283 . S
C227 O219 1.304 . S
C227 O221 1.272 . S
C228 O220 1.311 . S
C228 O222 1.231 . S
O229 Zn211 1.953 . S
O229 C223 1.298 1_554 S
O230 Zn231 1.953 . S
O230 C246 1.225 1_556 S
Zn231 O230 1.953 . S
Zn231 O232 1.949 . S
Zn231 O238 1.919 . S
Zn231 O243 1.924 . S
O232 Zn231 1.949 . S
O232 Zn233 1.923 . S
O232 Zn234 1.950 . S
O232 Zn235 1.945 . S
Zn233 O232 1.923 . S
Zn233 O236 1.933 . S
Zn233 O239 1.941 . S
Zn233 O240 1.965 . S
Zn234 O232 1.950 . S
Zn234 O241 1.938 1_556 S
Zn234 O242 1.906 . S
Zn234 O252 1.953 . S
Zn235 O232 1.945 . S
Zn235 O237 1.932 . S
Zn235 O244 1.977 . S
Zn235 O245 1.910 . S
O236 Zn233 1.933 . S
O236 C247 1.226 . S
O237 Zn235 1.932 . S
O237 C247 1.307 . S
O238 Zn231 1.919 . S
O238 C249 1.253 . S
O239 Zn233 1.941 . S
O239 C249 1.283 . S
O240 Zn233 1.965 . S
O240 C248 1.303 1_556 S
O241 Zn234 1.938 1_554 S
O241 C248 1.247 . S
O242 Zn234 1.906 . S
O242 C250 1.304 . S
O243 Zn231 1.924 . S
O243 C251 1.311 . S
O244 Zn235 1.977 . S
O244 C250 1.272 . S
O245 Zn235 1.910 . S
O245 C251 1.231 . S
C246 O230 1.225 1_554 S
C246 O252 1.298 1_554 S
C247 O236 1.226 . S
C247 O237 1.307 . S
C248 O240 1.303 1_554 S
C248 O241 1.247 . S
C249 O238 1.253 . S
C249 O239 1.283 . S
C250 O242 1.304 . S
C250 O244 1.272 . S
C251 O243 1.311 . S
C251 O245 1.231 . S
O252 Zn234 1.953 . S
O252 C246 1.298 1_556 S
O253 Zn254 1.953 . S
O253 C269 1.225 . S
Zn254 O253 1.953 . S
Zn254 O255 1.949 . S
Zn254 O261 1.919 . S
Zn254 O266 1.924 . S
O255 Zn254 1.949 . S
O255 Zn256 1.923 . S
O255 Zn257 1.950 . S
O255 Zn258 1.945 . S
Zn256 O255 1.923 . S
Zn256 O259 1.933 . S
Zn256 O262 1.941 . S
Zn256 O263 1.965 . S
Zn257 O255 1.950 . S
Zn257 O264 1.938 . S
Zn257 O265 1.906 . S
Zn257 O275 1.953 . S
Zn258 O255 1.945 . S
Zn258 O260 1.932 . S
Zn258 O267 1.977 . S
Zn258 O268 1.910 . S
O259 Zn256 1.933 . S
O259 C270 1.226 . S
O260 Zn258 1.932 . S
O260 C270 1.307 . S
O261 Zn254 1.919 . S
O261 C272 1.253 . S
O262 Zn256 1.941 . S
O262 C272 1.283 . S
O263 Zn256 1.965 . S
O263 C271 1.303 . S
O264 Zn257 1.938 . S
O264 C271 1.247 . S
O265 Zn257 1.906 . S
O265 C273 1.304 . S
O266 Zn254 1.924 . S
O266 C274 1.311 . S
O267 Zn258 1.977 . S
O267 C273 1.272 . S
O268 Zn258 1.910 . S
O268 C274 1.231 . S
C269 O253 1.225 . S
C269 O275 1.298 . S
C270 O259 1.226 . S
C270 O260 1.307 . S
C271 O263 1.303 . S
C271 O264 1.247 . S
C272 O261 1.253 . S
C272 O262 1.283 . S
C273 O265 1.304 . S
C273 O267 1.272 . S
C274 O266 1.311 . S
C274 O268 1.231 . S
O275 Zn257 1.953 . S
O275 C269 1.298 . S
O276 Zn277 1.953 . S
O276 C292 1.225 . S
Zn277 O276 1.953 . S
Zn277 O278 1.949 . S
Zn277 O284 1.919 . S
Zn277 O289 1.924 . S
O278 Zn277 1.949 . S
O278 Zn279 1.923 . S
O278 Zn280 1.950 . S
O278 Zn281 1.945 . S
Zn279 O278 1.923 . S
Zn279 O282 1.933 . S
Zn279 O285 1.941 . S
Zn279 O286 1.965 . S
Zn280 O278 1.950 . S
Zn280 O287 1.938 . S
Zn280 O288 1.906 . S
Zn280 O298 1.953 . S
Zn281 O278 1.945 . S
Zn281 O283 1.932 . S
Zn281 O290 1.977 . S
Zn281 O291 1.910 . S
O282 Zn279 1.933 . S
O282 C293 1.226 . S
O283 Zn281 1.932 . S
O283 C293 1.307 . S
O284 Zn277 1.919 . S
O284 C295 1.253 . S
O285 Zn279 1.941 . S
O285 C295 1.283 . S
O286 Zn279 1.965 . S
O286 C294 1.303 . S
O287 Zn280 1.938 . S
O287 C294 1.247 . S
O288 Zn280 1.906 . S
O288 C296 1.304 . S
O289 Zn277 1.924 . S
O289 C297 1.311 . S
O290 Zn281 1.977 . S
O290 C296 1.272 . S
O291 Zn281 1.910 . S
O291 C297 1.231 . S
C292 O276 1.225 . S
C292 O298 1.298 . S
C293 O282 1.226 . S
C293 O283 1.307 . S
C294 O286 1.303 . S
C294 O287 1.247 . S
C295 O284 1.253 . S
C295 O285 1.283 . S
C296 O288 1.304 . S
C296 O290 1.272 . S
C297 O289 1.311 . S
C297 O291 1.231 . S
O298 Zn280 1.953 . S
O298 C292 1.298 . S
O299 Zn300 1.953 . S
O299 C315 1.225 . S
Zn300 O299 1.953 . S
Zn300 O301 1.949 . S
Zn300 O307 1.919 . S
Zn300 O312 1.924 . S
O301 Zn300 1.949 . S
O301 Zn302 1.923 1_455 S
O301 Zn303 1.950 . S
O301 Zn304 1.945 . S
Zn302 O301 1.923 1_655 S
Zn302 O305 1.933 . S
Zn302 O308 1.941 . S
Zn302 O309 1.965 . S
Zn303 O301 1.950 . S
Zn303 O310 1.938 1_455 S
Zn303 O311 1.906 . S
Zn303 O321 1.953 . S
Zn304 O301 1.945 . S
Zn304 O306 1.932 1_454 S
Zn304 O313 1.977 . S
Zn304 O314 1.910 1_554 S
O305 Zn302 1.933 . S
O305 C316 1.226 1_554 S
O306 Zn304 1.932 1_656 S
O306 C316 1.307 . S
O307 Zn300 1.919 . S
O307 C318 1.253 1_455 S
O308 Zn302 1.941 . S
O308 C318 1.283 . S
O309 Zn302 1.965 . S
O309 C317 1.303 . S
O310 Zn303 1.938 1_655 S
O310 C317 1.247 . S
O311 Zn303 1.906 . S
O311 C319 1.307 . S
O312 Zn300 1.924 . S
O312 C320 1.317 . S
O313 Zn304 1.977 . S
O313 C319 1.280 . S
O314 Zn304 1.910 1_556 S
O314 C320 1.228 1_556 S
C315 O299 1.225 . S
C315 O321 1.298 . S
C316 O305 1.226 1_556 S
C316 O306 1.307 . S
C317 O309 1.303 . S
C317 O310 1.247 . S
C318 O307 1.253 1_655 S
C318 O308 1.283 . S
C319 O311 1.307 . S
C319 O313 1.280 . S
C320 O312 1.317 . S
C320 O314 1.228 1_554 S
O321 Zn303 1.953 . S
O321 C315 1.298 . S
O322 Zn323 1.953 . S
O322 C338 1.225 . S
Zn323 O322 1.953 . S
Zn323 O324 1.949 . S
Zn323 O330 1.919 . S
Zn323 O335 1.924 . S
O324 Zn323 1.949 . S
O324 Zn325 1.923 . S
O324 Zn326 1.950 . S
O324 Zn327 1.945 . S
Zn325 O324 1.923 . S
Zn325 O328 1.933 . S
Zn325 O331 1.941 . S
Zn325 O332 1.965 . S
Zn326 O324 1.950 . S
Zn326 O333 1.938 . S
Zn326 O334 1.906 . S
Zn326 O344 1.953 . S
Zn327 O324 1.945 . S
Zn327 O329 1.932 . S
Zn327 O336 1.977 . S
Zn327 O337 1.910 . S
O328 Zn325 1.933 . S
O328 C339 1.226 . S
O329 Zn327 1.932 . S
O329 C339 1.307 . S
O330 Zn323 1.919 . S
O330 C341 1.253 . S
O331 Zn325 1.941 . S
O331 C341 1.283 . S
O332 Zn325 1.965 . S
O332 C340 1.303 . S
O333 Zn326 1.938 . S
O333 C340 1.247 . S
O334 Zn326 1.906 . S
O334 C342 1.304 . S
O335 Zn323 1.924 . S
O335 C343 1.311 . S
O336 Zn327 1.977 . S
O336 C342 1.272 . S
O337 Zn327 1.910 . S
O337 C343 1.231 . S
C338 O322 1.225 . S
C338 O344 1.298 . S
C339 O328 1.226 . S
C339 O329 1.307 . S
C340 O332 1.303 . S
C340 O333 1.247 . S
C341 O330 1.253 . S
C341 O331 1.283 . S
C342 O334 1.304 . S
C342 O336 1.272 . S
C343 O335 1.311 . S
C343 O337 1.231 . S
O344 Zn326 1.953 . S
O344 C338 1.298 . S
O345 Zn346 1.953 . S
O345 C361 1.225 . S
Zn346 O345 1.953 . S
Zn346 O347 1.949 . S
Zn346 O353 1.919 . S
Zn346 O358 1.924 . S
O347 Zn346 1.949 . S
O347 Zn348 1.923 1_455 S
O347 Zn349 1.950 . S
O347 Zn350 1.945 . S
Zn348 O347 1.923 1_655 S
Zn348 O351 1.933 . S
Zn348 O354 1.941 . S
Zn348 O355 1.965 . S
Zn349 O347 1.950 . S
Zn349 O356 1.938 1_455 S
Zn349 O357 1.906 . S
Zn349 O367 1.953 . S
Zn350 O347 1.945 . S
Zn350 O352 1.932 1_456 S
Zn350 O359 1.977 . S
Zn350 O360 1.910 1_556 S
O351 Zn348 1.933 . S
O351 C362 1.226 1_556 S
O352 Zn350 1.932 1_654 S
O352 C362 1.307 . S
O353 Zn346 1.919 . S
O353 C364 1.253 1_455 S
O354 Zn348 1.941 . S
O354 C364 1.283 . S
O355 Zn348 1.965 . S
O355 C363 1.303 . S
O356 Zn349 1.938 1_655 S
O356 C363 1.247 . S
O357 Zn349 1.906 . S
O357 C365 1.307 . S
O358 Zn346 1.924 . S
O358 C366 1.317 . S
O359 Zn350 1.977 . S
O359 C365 1.280 . S
O360 Zn350 1.910 1_554 S
O360 C366 1.228 1_554 S
C361 O345 1.225 . S
C361 O367 1.298 . S
C362 O351 1.226 1_554 S
C362 O352 1.307 . S
C363 O355 1.303 . S
C363 O356 1.247 . S
C364 O353 1.253 1_655 S
C364 O354 1.283 . S
C365 O357 1.307 . S
C365 O359 1.280 . S
C366 O358 1.317 . S
C366 O360 1.228 1_556 S
O367 Zn349 1.953 . S
O367 C361 1.298 . S
C368 C369 1.369 . S
C368 C370 1.419 . S
C368 H372 0.930 . S
C369 C368 1.369 . S
C369 C378 1.429 . S
C370 C368 1.419 . S
C370 C371 1.363 . S
C370 H373 0.929 . S
C371 C370 1.363 . S
C371 C377 1.428 . S
H372 C368 0.930 . S
H373 C370 0.929 . S
S374 N375 1.613 . S
S374 N376 1.610 . S
N375 S374 1.613 . S
N375 C378 1.350 . S
N376 S374 1.610 . S
N376 C377 1.351 . S
C377 C371 1.428 . S
C377 N376 1.351 . S
C377 C378 1.434 . S
C378 C369 1.429 . S
C378 N375 1.350 . S
C378 C377 1.434 . S
C379 C380 1.369 . S
C379 C381 1.419 . S
C379 H383 0.930 . S
C380 C379 1.369 . S
C380 C389 1.429 . S
C381 C379 1.419 . S
C381 C382 1.363 . S
C381 H384 0.929 . S
C382 C381 1.363 . S
C382 C388 1.428 . S
H383 C379 0.930 . S
H384 C381 0.929 . S
S385 N386 1.613 . S
S385 N387 1.610 . S
N386 S385 1.613 . S
N386 C389 1.350 . S
N387 S385 1.610 . S
N387 C388 1.351 . S
C388 C382 1.428 . S
C388 N387 1.351 . S
C388 C389 1.434 . S
C389 C380 1.429 . S
C389 N386 1.350 . S
C389 C388 1.434 . S
C390 C391 1.369 . S
C390 C392 1.419 . S
C390 H394 0.930 . S
C391 C390 1.369 . S
C391 C400 1.429 . S
C392 C390 1.419 . S
C392 C393 1.363 . S
C392 H395 0.929 . S
C393 C392 1.363 . S
C393 C399 1.428 . S
H394 C390 0.930 . S
H395 C392 0.929 . S
S396 N397 1.613 . S
S396 N398 1.610 . S
N397 S396 1.613 . S
N397 C400 1.350 . S
N398 S396 1.610 . S
N398 C399 1.351 . S
C399 C393 1.428 . S
C399 N398 1.351 . S
C399 C400 1.434 . S
C400 C391 1.429 . S
C400 N397 1.350 . S
C400 C399 1.434 . S
C401 C402 1.369 . S
C401 C403 1.419 . S
C401 H405 0.930 . S
C402 C401 1.369 . S
C402 C411 1.429 . S
C403 C401 1.419 . S
C403 C404 1.363 . S
C403 H406 0.929 . S
C404 C403 1.363 . S
C404 C410 1.428 . S
H405 C401 0.930 . S
H406 C403 0.929 . S
S407 N408 1.613 . S
S407 N409 1.610 . S
N408 S407 1.613 . S
N408 C411 1.350 . S
N409 S407 1.610 . S
N409 C410 1.351 . S
C410 C404 1.428 . S
C410 N409 1.351 . S
C410 C411 1.434 . S
C411 C402 1.429 . S
C411 N408 1.350 . S
C411 C410 1.434 . S
C412 C413 1.369 . S
C412 C414 1.419 . S
C412 H416 0.930 . S
C413 C412 1.369 . S
C413 C422 1.429 . S
C414 C412 1.419 . S
C414 C415 1.363 . S
C414 H417 0.929 . S
C415 C414 1.363 . S
C415 C421 1.428 . S
H416 C412 0.930 . S
H417 C414 0.929 . S
S418 N419 1.613 . S
S418 N420 1.610 . S
N419 S418 1.613 . S
N419 C422 1.350 . S
N420 S418 1.610 . S
N420 C421 1.351 . S
C421 C415 1.428 . S
C421 N420 1.351 . S
C421 C422 1.434 . S
C422 C413 1.429 . S
C422 N419 1.350 . S
C422 C421 1.434 . S
C423 C424 1.369 . S
C423 C425 1.419 . S
C423 H427 0.930 . S
C424 C423 1.369 . S
C424 C433 1.429 . S
C425 C423 1.419 . S
C425 C426 1.363 . S
C425 H428 0.929 . S
C426 C425 1.363 . S
C426 C432 1.428 . S
H427 C423 0.930 . S
H428 C425 0.929 . S
S429 N430 1.613 . S
S429 N431 1.610 . S
N430 S429 1.613 . S
N430 C433 1.350 . S
N431 S429 1.610 . S
N431 C432 1.351 . S
C432 C426 1.428 . S
C432 N431 1.351 . S
C432 C433 1.434 . S
C433 C424 1.429 . S
C433 N430 1.350 . S
C433 C432 1.434 . S
C434 C435 1.369 . S
C434 C436 1.419 . S
C434 H438 0.930 . S
C435 C434 1.369 . S
C435 C444 1.429 . S
C436 C434 1.419 . S
C436 C437 1.363 . S
C436 H439 0.929 . S
C437 C436 1.363 . S
C437 C443 1.428 . S
H438 C434 0.930 . S
H439 C436 0.929 . S
S440 N441 1.613 . S
S440 N442 1.610 . S
N441 S440 1.613 . S
N441 C444 1.350 . S
N442 S440 1.610 . S
N442 C443 1.351 . S
C443 C437 1.428 . S
C443 N442 1.351 . S
C443 C444 1.434 . S
C444 C435 1.429 . S
C444 N441 1.350 . S
C444 C443 1.434 . S
C445 C446 1.369 . S
C445 C447 1.419 . S
C445 H449 0.930 . S
C446 C445 1.369 . S
C446 C455 1.429 . S
C447 C445 1.419 . S
C447 C448 1.363 . S
C447 H450 0.929 . S
C448 C447 1.363 . S
C448 C454 1.428 . S
H449 C445 0.930 . S
H450 C447 0.929 . S
S451 N452 1.613 . S
S451 N453 1.610 . S
N452 S451 1.613 . S
N452 C455 1.350 . S
N453 S451 1.610 . S
N453 C454 1.351 . S
C454 C448 1.428 . S
C454 N453 1.351 . S
C454 C455 1.434 . S
C455 C446 1.429 . S
C455 N452 1.350 . S
C455 C454 1.434 . S
C456 C457 1.369 . S
C456 C458 1.419 . S
C456 H460 0.930 . S
C457 C456 1.369 . S
C457 C466 1.429 . S
C458 C456 1.419 . S
C458 C459 1.363 . S
C458 H461 0.929 . S
C459 C458 1.363 . S
C459 C465 1.428 . S
H460 C456 0.930 . S
H461 C458 0.929 . S
S462 N463 1.613 . S
S462 N464 1.610 . S
N463 S462 1.613 . S
N463 C466 1.350 . S
N464 S462 1.610 . S
N464 C465 1.351 . S
C465 C459 1.428 . S
C465 N464 1.351 . S
C465 C466 1.434 . S
C466 C457 1.429 . S
C466 N463 1.350 . S
C466 C465 1.434 . S
C467 C468 1.369 . S
C467 C469 1.419 . S
C467 H471 0.930 . S
C468 C467 1.369 . S
C468 C477 1.429 . S
C469 C467 1.419 . S
C469 C470 1.363 . S
C469 H472 0.929 . S
C470 C469 1.363 . S
C470 C476 1.428 . S
H471 C467 0.930 . S
H472 C469 0.929 . S
S473 N474 1.613 . S
S473 N475 1.610 . S
N474 S473 1.613 . S
N474 C477 1.350 . S
N475 S473 1.610 . S
N475 C476 1.351 . S
C476 C470 1.428 . S
C476 N475 1.351 . S
C476 C477 1.434 . S
C477 C468 1.429 . S
C477 N474 1.350 . S
C477 C476 1.434 . S
C478 C479 1.369 . S
C478 C480 1.419 . S
C478 H482 0.930 . S
C479 C478 1.369 . S
C479 C488 1.429 . S
C480 C478 1.419 . S
C480 C481 1.363 . S
C480 H483 0.929 . S
C481 C480 1.363 . S
C481 C487 1.428 . S
H482 C478 0.930 . S
H483 C480 0.929 . S
S484 N485 1.613 . S
S484 N486 1.610 . S
N485 S484 1.613 . S
N485 C488 1.350 . S
N486 S484 1.610 . S
N486 C487 1.351 . S
C487 C481 1.428 . S
C487 N486 1.351 . S
C487 C488 1.434 . S
C488 C479 1.429 . S
C488 N485 1.350 . S
C488 C487 1.434 . S
C489 C490 1.369 . S
C489 C491 1.419 . S
C489 H493 0.930 . S
C490 C489 1.369 . S
C490 C499 1.429 . S
C491 C489 1.419 . S
C491 C492 1.363 . S
C491 H494 0.929 . S
C492 C491 1.363 . S
C492 C498 1.428 . S
H493 C489 0.930 . S
H494 C491 0.929 . S
S495 N496 1.613 . S
S495 N497 1.610 . S
N496 S495 1.613 . S
N496 C499 1.350 . S
N497 S495 1.610 . S
N497 C498 1.351 . S
C498 C492 1.428 . S
C498 N497 1.351 . S
C498 C499 1.434 . S
C499 C490 1.429 . S
C499 N496 1.350 . S
C499 C498 1.434 . S
C500 C501 1.369 . S
C500 C502 1.419 . S
C500 H504 0.930 . S
C501 C500 1.369 . S
C501 C510 1.429 . S
C502 C500 1.419 . S
C502 C503 1.363 . S
C502 H505 0.929 . S
C503 C502 1.363 . S
C503 C509 1.428 . S
H504 C500 0.930 . S
H505 C502 0.929 . S
S506 N507 1.613 . S
S506 N508 1.610 . S
N507 S506 1.613 . S
N507 C510 1.350 . S
N508 S506 1.610 . S
N508 C509 1.351 . S
C509 C503 1.428 . S
C509 N508 1.351 . S
C509 C510 1.434 . S
C510 C501 1.429 . S
C510 N507 1.350 . S
C510 C509 1.434 . S
C511 C512 1.369 . S
C511 C513 1.419 . S
C511 H515 0.930 . S
C512 C511 1.369 . S
C512 C521 1.429 . S
C513 C511 1.419 . S
C513 C514 1.363 . S
C513 H516 0.929 . S
C514 C513 1.363 . S
C514 C520 1.428 . S
H515 C511 0.930 . S
H516 C513 0.929 . S
S517 N518 1.613 . S
S517 N519 1.610 . S
N518 S517 1.613 . S
N518 C521 1.350 . S
N519 S517 1.610 . S
N519 C520 1.351 . S
C520 C514 1.428 . S
C520 N519 1.351 . S
C520 C521 1.434 . S
C521 C512 1.429 . S
C521 N518 1.350 . S
C521 C520 1.434 . S
C522 C523 1.369 . S
C522 C524 1.419 . S
C522 H526 0.930 . S
C523 C522 1.369 . S
C523 C532 1.429 . S
C524 C522 1.419 . S
C524 C525 1.363 . S
C524 H527 0.929 . S
C525 C524 1.363 . S
C525 C531 1.428 . S
H526 C522 0.930 . S
H527 C524 0.929 . S
S528 N529 1.613 . S
S528 N530 1.610 . S
N529 S528 1.613 . S
N529 C532 1.350 . S
N530 S528 1.610 . S
N530 C531 1.351 . S
C531 C525 1.428 . S
C531 N530 1.351 . S
C531 C532 1.434 . S
C532 C523 1.429 . S
C532 N529 1.350 . S
C532 C531 1.434 . S
C533 C534 1.369 . S
C533 C535 1.419 . S
C533 H537 0.930 . S
C534 C533 1.369 . S
C534 C543 1.429 . S
C535 C533 1.419 . S
C535 C536 1.363 . S
C535 H538 0.929 . S
C536 C535 1.363 . S
C536 C542 1.428 . S
H537 C533 0.930 . S
H538 C535 0.929 . S
S539 N540 1.613 . S
S539 N541 1.610 . S
N540 S539 1.613 . S
N540 C543 1.350 . S
N541 S539 1.610 . S
N541 C542 1.351 . S
C542 C536 1.428 . S
C542 N541 1.351 . S
C542 C543 1.434 . S
C543 C534 1.429 . S
C543 N540 1.350 . S
C543 C542 1.434 . S
C544 C545 1.369 1_455 S
C544 C546 1.419 . S
C544 H548 0.930 . S
C545 C544 1.369 1_655 S
C545 C554 1.429 . S
C546 C544 1.419 . S
C546 C547 1.363 . S
C546 H549 0.929 . S
C547 C546 1.363 . S
C547 C553 1.429 1_455 S
H548 C544 0.930 . S
H549 C546 0.929 . S
S550 N551 1.613 1_556 S
S550 N552 1.610 1_556 S
N551 S550 1.613 1_554 S
N551 C554 1.350 . S
N552 S550 1.610 1_554 S
N552 C553 1.351 . S
C553 C547 1.429 1_655 S
C553 N552 1.351 . S
C553 C554 1.433 . S
C554 C545 1.429 . S
C554 N551 1.350 . S
C554 C553 1.433 . S
C555 C556 1.369 1_455 S
C555 C557 1.419 . S
C555 H559 0.930 . S
C556 C555 1.369 1_655 S
C556 C565 1.429 . S
C557 C555 1.419 . S
C557 C558 1.363 . S
C557 H560 0.929 . S
C558 C557 1.363 . S
C558 C564 1.428 . S
H559 C555 0.930 . S
H560 C557 0.929 . S
S561 N562 1.613 . S
S561 N563 1.580 1_655 S
N562 S561 1.613 . S
N562 C565 1.350 . S
N563 S561 1.580 1_455 S
N563 C564 1.356 . S
C564 C558 1.428 . S
C564 N563 1.356 . S
C564 C565 1.434 1_455 S
C565 C556 1.429 . S
C565 N562 1.350 . S
C565 C564 1.434 1_655 S
C566 C567 1.369 . S
C566 C568 1.419 . S
C566 H570 0.930 . S
C567 C566 1.369 . S
C567 C576 1.429 . S
C568 C566 1.419 . S
C568 C569 1.363 . S
C568 H571 0.929 . S
C569 C568 1.363 . S
C569 C575 1.428 . S
H570 C566 0.930 . S
H571 C568 0.929 . S
S572 N573 1.613 . S
S572 N574 1.610 . S
N573 S572 1.613 . S
N573 C576 1.350 . S
N574 S572 1.610 . S
N574 C575 1.351 . S
C575 C569 1.428 . S
C575 N574 1.351 . S
C575 C576 1.434 . S
C576 C567 1.429 . S
C576 N573 1.350 . S
C576 C575 1.434 . S
C577 C578 1.369 . S
C577 C579 1.419 . S
C577 H581 0.930 . S
C578 C577 1.369 . S
C578 C587 1.429 . S
C579 C577 1.419 . S
C579 C580 1.363 . S
C579 H582 0.929 . S
C580 C579 1.363 . S
C580 C586 1.428 . S
H581 C577 0.930 . S
H582 C579 0.929 . S
S583 N584 1.613 . S
S583 N585 1.610 . S
N584 S583 1.613 . S
N584 C587 1.350 . S
N585 S583 1.610 . S
N585 C586 1.351 . S
C586 C580 1.428 . S
C586 N585 1.351 . S
C586 C587 1.434 . S
C587 C578 1.429 . S
C587 N584 1.350 . S
C587 C586 1.434 . S
C588 C589 1.369 1_655 S
C588 C590 1.419 . S
C588 H592 0.930 . S
C589 C588 1.369 1_455 S
C589 C598 1.429 . S
C590 C588 1.419 . S
C590 C591 1.363 . S
C590 H593 0.929 . S
C591 C590 1.363 . S
C591 C597 1.428 1_655 S
H592 C588 0.930 . S
H593 C590 0.929 . S
S594 N595 1.613 . S
S594 N596 1.610 . S
N595 S594 1.613 . S
N595 C598 1.350 . S
N596 S594 1.610 . S
N596 C597 1.351 . S
C597 C591 1.428 1_455 S
C597 N596 1.351 . S
C597 C598 1.434 . S
C598 C589 1.429 . S
C598 N595 1.350 . S
C598 C597 1.434 . S
C599 C600 1.369 . S
C599 C601 1.419 . S
C599 H603 0.930 . S
C600 C599 1.369 . S
C600 C609 1.429 . S
C601 C599 1.419 . S
C601 C602 1.363 . S
C601 H604 0.929 . S
C602 C601 1.363 . S
C602 C608 1.428 . S
H603 C599 0.930 . S
H604 C601 0.929 . S
S605 N606 1.613 . S
S605 N607 1.610 . S
N606 S605 1.613 . S
N606 C609 1.350 . S
N607 S605 1.610 . S
N607 C608 1.351 . S
C608 C602 1.428 . S
C608 N607 1.351 . S
C608 C609 1.434 . S
C609 C600 1.429 . S
C609 N606 1.350 . S
C609 C608 1.434 . S
C610 C611 1.369 . S
C610 C612 1.419 . S
C610 H614 0.930 . S
C611 C610 1.369 . S
C611 C620 1.429 . S
C612 C610 1.419 . S
C612 C613 1.363 . S
C612 H615 0.929 . S
C613 C612 1.363 . S
C613 C619 1.428 . S
H614 C610 0.930 . S
H615 C612 0.929 . S
S616 N617 1.613 . S
S616 N618 1.610 . S
N617 S616 1.613 . S
N617 C620 1.350 . S
N618 S616 1.610 . S
N618 C619 1.351 . S
C619 C613 1.428 . S
C619 N618 1.351 . S
C619 C620 1.434 . S
C620 C611 1.429 . S
C620 N617 1.350 . S
C620 C619 1.434 . S
C621 C622 1.369 . S
C621 C623 1.419 1_455 S
C621 H625 0.930 . S
C622 C621 1.369 . S
C622 C631 1.429 . S
C623 C621 1.419 1_655 S
C623 C624 1.363 . S
C623 H626 0.929 . S
C624 C623 1.363 . S
C624 C630 1.428 1_655 S
H625 C621 0.930 . S
H626 C623 0.929 . S
S627 N628 1.613 . S
S627 N629 1.610 . S
N628 S627 1.613 . S
N628 C631 1.350 . S
N629 S627 1.610 . S
N629 C630 1.351 . S
C630 C624 1.428 1_455 S
C630 N629 1.351 . S
C630 C631 1.434 . S
C631 C622 1.429 . S
C631 N628 1.350 . S
C631 C630 1.434 . S
C632 C633 1.369 1_565 S
C632 C634 1.419 . S
C632 H636 0.930 . S
C633 C632 1.369 1_545 S
C633 C642 1.429 1_454 S
C634 C632 1.419 . S
C634 C635 1.363 1_554 S
C634 H637 0.929 . S
C635 C634 1.363 1_556 S
C635 C641 1.428 1_465 S
H636 C632 0.930 . S
H637 C634 0.929 . S
S638 N639 1.613 . S
S638 N640 1.610 . S
N639 S638 1.613 . S
N639 C642 1.350 . S
N640 S638 1.610 . S
N640 C641 1.351 . S
C641 C635 1.428 1_645 S
C641 N640 1.351 . S
C641 C642 1.434 . S
C642 C633 1.429 1_656 S
C642 N639 1.350 . S
C642 C641 1.434 . S
C643 C644 1.369 . S
C643 C645 1.419 . S
C643 H647 0.930 . S
C644 C643 1.369 . S
C644 C653 1.429 . S
C645 C643 1.419 . S
C645 C646 1.363 . S
C645 H648 0.929 . S
C646 C645 1.363 . S
C646 C652 1.428 . S
H647 C643 0.930 . S
H648 C645 0.929 . S
S649 N650 1.613 . S
S649 N651 1.610 . S
N650 S649 1.613 . S
N650 C653 1.350 . S
N651 S649 1.610 . S
N651 C652 1.351 . S
C652 C646 1.428 . S
C652 N651 1.351 . S
C652 C653 1.434 . S
C653 C644 1.429 . S
C653 N650 1.350 . S
C653 C652 1.434 . S
C654 C655 1.369 . S
C654 C656 1.419 1_545 S
C654 H658 0.930 . S
C655 C654 1.369 . S
C655 C664 1.429 . S
C656 C654 1.419 1_565 S
C656 C657 1.363 . S
C656 H659 0.929 . S
C657 C656 1.363 . S
C657 C663 1.428 . S
H658 C654 0.930 . S
H659 C656 0.929 . S
S660 N661 1.613 . S
S660 N662 1.610 1_545 S
N661 S660 1.613 . S
N661 C664 1.350 . S
N662 S660 1.610 1_565 S
N662 C663 1.351 . S
C663 C657 1.428 . S
C663 N662 1.351 . S
C663 C664 1.434 1_565 S
C664 C655 1.429 . S
C664 N661 1.350 . S
C664 C663 1.434 1_545 S
C665 C666 1.369 . S
C665 C667 1.419 . S
C665 H669 0.930 . S
C666 C665 1.369 . S
C666 C675 1.429 . S
C667 C665 1.419 . S
C667 C668 1.363 . S
C667 H670 0.929 . S
C668 C667 1.363 . S
C668 C674 1.428 . S
H669 C665 0.930 . S
H670 C667 0.929 . S
S671 N672 1.613 . S
S671 N673 1.610 . S
N672 S671 1.613 . S
N672 C675 1.350 . S
N673 S671 1.610 . S
N673 C674 1.351 . S
C674 C668 1.428 . S
C674 N673 1.351 . S
C674 C675 1.434 . S
C675 C666 1.429 . S
C675 N672 1.350 . S
C675 C674 1.434 . S
C676 C677 1.369 . S
C676 C678 1.419 . S
C676 H680 0.930 . S
C677 C676 1.369 . S
C677 C686 1.429 . S
C678 C676 1.419 . S
C678 C679 1.363 . S
C678 H681 0.929 . S
C679 C678 1.363 . S
C679 C685 1.428 . S
H680 C676 0.930 . S
H681 C678 0.929 . S
S682 N683 1.613 . S
S682 N684 1.610 . S
N683 S682 1.613 . S
N683 C686 1.350 . S
N684 S682 1.610 . S
N684 C685 1.351 . S
C685 C679 1.428 . S
C685 N684 1.351 . S
C685 C686 1.434 . S
C686 C677 1.429 . S
C686 N683 1.350 . S
C686 C685 1.434 . S
C687 C688 1.369 . S
C687 C689 1.419 . S
C687 H691 0.930 . S
C688 C687 1.369 . S
C688 C697 1.429 . S
C689 C687 1.419 . S
C689 C690 1.363 . S
C689 H692 0.929 . S
C690 C689 1.363 . S
C690 C696 1.428 . S
H691 C687 0.930 . S
H692 C689 0.929 . S
S693 N694 1.613 . S
S693 N695 1.610 . S
N694 S693 1.613 . S
N694 C697 1.350 . S
N695 S693 1.610 . S
N695 C696 1.351 . S
C696 C690 1.428 . S
C696 N695 1.351 . S
C696 C697 1.434 . S
C697 C688 1.429 . S
C697 N694 1.350 . S
C697 C696 1.434 . S
C698 C699 1.369 . S
C698 C700 1.419 . S
C698 H702 0.930 . S
C699 C698 1.369 . S
C699 C708 1.429 . S
C700 C698 1.419 . S
C700 C701 1.363 . S
C700 H703 0.929 . S
C701 C700 1.363 . S
C701 C707 1.428 . S
H702 C698 0.930 . S
H703 C700 0.929 . S
S704 N705 1.613 . S
S704 N706 1.610 . S
N705 S704 1.613 . S
N705 C708 1.350 . S
N706 S704 1.610 . S
N706 C707 1.351 . S
C707 C701 1.428 . S
C707 N706 1.351 . S
C707 C708 1.434 . S
C708 C699 1.429 . S
C708 N705 1.350 . S
C708 C707 1.434 . S
C709 C710 1.369 . S
C709 C711 1.419 1_556 S
C709 H713 0.930 . S
C710 C709 1.369 . S
C710 C719 1.429 1_655 S
C711 C709 1.419 1_554 S
C711 C712 1.363 . S
C711 H714 0.929 . S
C712 C711 1.363 . S
C712 C718 1.428 1_655 S
H713 C709 0.930 . S
H714 C711 0.929 . S
S715 N716 1.613 . S
S715 N717 1.610 1_556 S
N716 S715 1.613 . S
N716 C719 1.350 . S
N717 S715 1.610 1_554 S
N717 C718 1.351 . S
C718 C712 1.428 1_455 S
C718 N717 1.351 . S
C718 C719 1.434 1_554 S
C719 C710 1.429 1_455 S
C719 N716 1.350 . S
C719 C718 1.434 1_556 S
C720 C721 1.369 . S
C720 C722 1.419 . S
C720 H724 0.930 . S
C721 C720 1.369 . S
C721 C730 1.429 . S
C722 C720 1.419 . S
C722 C723 1.363 . S
C722 H725 0.929 . S
C723 C722 1.363 . S
C723 C729 1.428 . S
H724 C720 0.930 . S
H725 C722 0.929 . S
S726 N727 1.613 . S
S726 N728 1.610 . S
N727 S726 1.613 . S
N727 C730 1.350 . S
N728 S726 1.610 . S
N728 C729 1.351 . S
C729 C723 1.428 . S
C729 N728 1.351 . S
C729 C730 1.434 . S
C730 C721 1.429 . S
C730 N727 1.350 . S
C730 C729 1.434 . S
C731 C732 1.369 . S
C731 C733 1.419 . S
C731 H735 0.930 . S
C732 C731 1.369 . S
C732 C741 1.429 . S
C733 C731 1.419 . S
C733 C734 1.363 . S
C733 H736 0.929 . S
C734 C733 1.363 . S
C734 C740 1.428 . S
H735 C731 0.930 . S
H736 C733 0.929 . S
S737 N738 1.613 . S
S737 N739 1.610 . S
N738 S737 1.613 . S
N738 C741 1.350 . S
N739 S737 1.610 . S
N739 C740 1.351 . S
C740 C734 1.428 . S
C740 N739 1.351 . S
C740 C741 1.434 . S
C741 C732 1.429 . S
C741 N738 1.350 . S
C741 C740 1.434 . S
C742 C743 1.369 . S
C742 C744 1.419 . S
C742 H746 0.930 . S
C743 C742 1.369 . S
C743 C752 1.429 . S
C744 C742 1.419 . S
C744 C745 1.363 . S
C744 H747 0.929 . S
C745 C744 1.363 . S
C745 C751 1.428 . S
H746 C742 0.930 . S
H747 C744 0.929 . S
S748 N749 1.613 . S
S748 N750 1.610 . S
N749 S748 1.613 . S
N749 C752 1.350 . S
N750 S748 1.610 . S
N750 C751 1.351 . S
C751 C745 1.428 . S
C751 N750 1.351 . S
C751 C752 1.434 . S
C752 C743 1.429 . S
C752 N749 1.350 . S
C752 C751 1.434 . S
C753 C754 1.369 . S
C753 C755 1.419 . S
C753 H757 0.930 . S
C754 C753 1.369 . S
C754 C763 1.429 . S
C755 C753 1.419 . S
C755 C756 1.363 . S
C755 H758 0.929 . S
C756 C755 1.363 . S
C756 C762 1.428 . S
H757 C753 0.930 . S
H758 C755 0.929 . S
S759 N760 1.613 . S
S759 N761 1.610 . S
N760 S759 1.613 . S
N760 C763 1.350 . S
N761 S759 1.610 . S
N761 C762 1.351 . S
C762 C756 1.428 . S
C762 N761 1.351 . S
C762 C763 1.434 . S
C763 C754 1.429 . S
C763 N760 1.350 . S
C763 C762 1.434 . S
C764 C765 1.369 . S
C764 C766 1.419 . S
C764 H768 0.930 . S
C765 C764 1.369 . S
C765 C774 1.429 . S
C766 C764 1.419 . S
C766 C767 1.363 . S
C766 H769 0.929 . S
C767 C766 1.363 . S
C767 C773 1.428 . S
H768 C764 0.930 . S
H769 C766 0.929 . S
S770 N771 1.613 . S
S770 N772 1.610 . S
N771 S770 1.613 . S
N771 C774 1.350 . S
N772 S770 1.610 . S
N772 C773 1.351 . S
C773 C767 1.428 . S
C773 N772 1.351 . S
C773 C774 1.434 . S
C774 C765 1.429 . S
C774 N771 1.350 . S
C774 C773 1.434 . S
C775 C776 1.369 . S
C775 C777 1.419 . S
C775 H779 0.930 . S
C776 C775 1.369 . S
C776 C785 1.429 . S
C777 C775 1.419 . S
C777 C778 1.363 . S
C777 H780 0.929 . S
C778 C777 1.363 . S
C778 C784 1.428 . S
H779 C775 0.930 . S
H780 C777 0.929 . S
S781 N782 1.613 . S
S781 N783 1.610 . S
N782 S781 1.613 . S
N782 C785 1.350 . S
N783 S781 1.610 . S
N783 C784 1.351 . S
C784 C778 1.428 . S
C784 N783 1.351 . S
C784 C785 1.434 . S
C785 C776 1.429 . S
C785 N782 1.350 . S
C785 C784 1.434 . S
C786 C787 1.369 . S
C786 C788 1.419 . S
C786 H790 0.930 . S
C787 C786 1.369 . S
C787 C796 1.429 . S
C788 C786 1.419 . S
C788 C789 1.363 . S
C788 H791 0.929 . S
C789 C788 1.363 . S
C789 C795 1.428 . S
H790 C786 0.930 . S
H791 C788 0.929 . S
S792 N793 1.613 . S
S792 N794 1.610 . S
N793 S792 1.613 . S
N793 C796 1.350 . S
N794 S792 1.610 . S
N794 C795 1.351 . S
C795 C789 1.428 . S
C795 N794 1.351 . S
C795 C796 1.434 . S
C796 C787 1.429 . S
C796 N793 1.350 . S
C796 C795 1.434 . S
C797 C798 1.369 . S
C797 C799 1.419 . S
C797 H801 0.930 . S
C798 C797 1.369 . S
C798 C807 1.429 . S
C799 C797 1.419 . S
C799 C800 1.363 . S
C799 H802 0.929 . S
C800 C799 1.363 . S
C800 C806 1.428 . S
H801 C797 0.930 . S
H802 C799 0.929 . S
S803 N804 1.613 . S
S803 N805 1.610 . S
N804 S803 1.613 . S
N804 C807 1.350 . S
N805 S803 1.610 . S
N805 C806 1.351 . S
C806 C800 1.428 . S
C806 N805 1.351 . S
C806 C807 1.434 . S
C807 C798 1.429 . S
C807 N804 1.350 . S
C807 C806 1.434 . S
C808 C809 1.369 . S
C808 C810 1.419 . S
C808 H812 0.930 . S
C809 C808 1.369 . S
C809 C818 1.429 . S
C810 C808 1.419 . S
C810 C811 1.363 . S
C810 H813 0.929 . S
C811 C810 1.363 . S
C811 C817 1.428 . S
H812 C808 0.930 . S
H813 C810 0.929 . S
S814 N815 1.613 . S
S814 N816 1.610 . S
N815 S814 1.613 . S
N815 C818 1.350 . S
N816 S814 1.610 . S
N816 C817 1.351 . S
C817 C811 1.428 . S
C817 N816 1.351 . S
C817 C818 1.434 . S
C818 C809 1.429 . S
C818 N815 1.350 . S
C818 C817 1.434 . S
C819 C820 1.369 . S
C819 C821 1.419 . S
C819 H823 0.930 . S
C820 C819 1.369 . S
C820 C829 1.429 . S
C821 C819 1.419 . S
C821 C822 1.363 . S
C821 H824 0.929 . S
C822 C821 1.363 . S
C822 C828 1.428 . S
H823 C819 0.930 . S
H824 C821 0.929 . S
S825 N826 1.613 . S
S825 N827 1.610 . S
N826 S825 1.613 . S
N826 C829 1.350 . S
N827 S825 1.610 . S
N827 C828 1.351 . S
C828 C822 1.428 . S
C828 N827 1.351 . S
C828 C829 1.434 . S
C829 C820 1.429 . S
C829 N826 1.350 . S
C829 C828 1.434 . S
C830 C831 1.369 . S
C830 C832 1.419 . S
C830 H834 0.930 . S
C831 C830 1.369 . S
C831 C840 1.429 . S
C832 C830 1.419 . S
C832 C833 1.363 . S
C832 H835 0.929 . S
C833 C832 1.363 . S
C833 C839 1.428 . S
H834 C830 0.930 . S
H835 C832 0.929 . S
S836 N837 1.613 . S
S836 N838 1.610 . S
N837 S836 1.613 . S
N837 C840 1.350 . S
N838 S836 1.610 . S
N838 C839 1.351 . S
C839 C833 1.428 . S
C839 N838 1.351 . S
C839 C840 1.434 . S
C840 C831 1.429 . S
C840 N837 1.350 . S
C840 C839 1.434 . S
C841 C842 1.369 . S
C841 C843 1.419 . S
C841 H845 0.930 . S
C842 C841 1.369 . S
C842 C851 1.429 . S
C843 C841 1.419 . S
C843 C844 1.363 . S
C843 H846 0.929 . S
C844 C843 1.363 . S
C844 C850 1.428 . S
H845 C841 0.930 . S
H846 C843 0.929 . S
S847 N848 1.613 . S
S847 N849 1.610 . S
N848 S847 1.613 . S
N848 C851 1.350 . S
N849 S847 1.610 . S
N849 C850 1.351 . S
C850 C844 1.428 . S
C850 N849 1.351 . S
C850 C851 1.434 . S
C851 C842 1.429 . S
C851 N848 1.350 . S
C851 C850 1.434 . S
C852 C853 1.369 . S
C852 C854 1.419 . S
C852 H856 0.930 . S
C853 C852 1.369 . S
C853 C862 1.429 . S
C854 C852 1.419 . S
C854 C855 1.363 . S
C854 H857 0.929 . S
C855 C854 1.363 . S
C855 C861 1.428 . S
H856 C852 0.930 . S
H857 C854 0.929 . S
S858 N859 1.613 . S
S858 N860 1.610 . S
N859 S858 1.613 . S
N859 C862 1.350 . S
N860 S858 1.610 . S
N860 C861 1.351 . S
C861 C855 1.428 . S
C861 N860 1.351 . S
C861 C862 1.434 . S
C862 C853 1.429 . S
C862 N859 1.350 . S
C862 C861 1.434 . S
C863 C864 1.369 . S
C863 C865 1.419 . S
C863 H867 0.930 . S
C864 C863 1.369 . S
C864 C873 1.429 . S
C865 C863 1.419 . S
C865 C866 1.363 . S
C865 H868 0.929 . S
C866 C865 1.363 . S
C866 C872 1.428 . S
H867 C863 0.930 . S
H868 C865 0.929 . S
S869 N870 1.613 . S
S869 N871 1.610 . S
N870 S869 1.613 . S
N870 C873 1.350 . S
N871 S869 1.610 . S
N871 C872 1.351 . S
C872 C866 1.428 . S
C872 N871 1.351 . S
C872 C873 1.434 . S
C873 C864 1.429 . S
C873 N870 1.350 . S
C873 C872 1.434 . S
C874 C875 1.369 . S
C874 C876 1.419 . S
C874 H878 0.930 . S
C875 C874 1.369 . S
C875 C884 1.429 . S
C876 C874 1.419 . S
C876 C877 1.363 . S
C876 H879 0.929 . S
C877 C876 1.363 . S
C877 C883 1.428 . S
H878 C874 0.930 . S
H879 C876 0.929 . S
S880 N881 1.613 . S
S880 N882 1.610 . S
N881 S880 1.613 . S
N881 C884 1.350 . S
N882 S880 1.610 . S
N882 C883 1.351 . S
C883 C877 1.428 . S
C883 N882 1.351 . S
C883 C884 1.434 . S
C884 C875 1.429 . S
C884 N881 1.350 . S
C884 C883 1.434 . S
C885 C886 1.369 . S
C885 C887 1.419 . S
C885 H889 0.930 . S
C886 C885 1.369 . S
C886 C895 1.429 . S
C887 C885 1.419 . S
C887 C888 1.363 . S
C887 H890 0.929 . S
C888 C887 1.363 . S
C888 C894 1.428 . S
H889 C885 0.930 . S
H890 C887 0.929 . S
S891 N892 1.613 . S
S891 N893 1.610 . S
N892 S891 1.613 . S
N892 C895 1.350 . S
N893 S891 1.610 . S
N893 C894 1.351 . S
C894 C888 1.428 . S
C894 N893 1.351 . S
C894 C895 1.434 . S
C895 C886 1.429 . S
C895 N892 1.350 . S
C895 C894 1.434 . S
C369 C17 1.132 . S
C371 C178 1.134 . S
C380 C40 1.132 . S
C382 C109 1.134 . S
C391 C132 1.134 . S
C393 C63 1.130 . S
C402 C86 1.130 . S
C404 C155 1.128 . S
C413 C274 1.455 . S
C415 C113 1.450 1_554 S
C424 C205 1.455 . S
C426 C21 1.457 1_556 S
C435 C251 1.453 . S
C437 C159 1.457 . S
C446 C67 1.467 . S
C448 C228 1.461 . S
C457 C224 1.132 . S
C459 C293 1.129 . S
C468 C247 1.126 . S
C470 C339 1.129 . S
C479 C316 1.133 . S
C481 C201 1.130 . S
C490 C270 1.133 . S
C492 C362 1.135 . S
C501 C343 1.464 . S
C503 C90 1.466 . S
C512 C297 1.458 . S
C514 C136 1.463 . S
C523 C44 1.454 . S
C525 C366 1.454 1_554 S
C534 C182 1.453 . S
C536 C320 1.454 1_556 S
C545 C318 0.667 . S
C547 C19 0.643 . S
C556 C272 0.636 . S
C558 C42 0.661 . S
C567 C295 0.640 . S
C569 C65 0.663 . S
C578 C249 0.651 . S
C580 C88 0.661 . S
C589 C111 0.662 . S
C591 C364 0.639 . S
C600 C226 0.657 . S
C602 C134 0.639 . S
C611 C157 0.641 . S
C613 C341 0.663 . S
C622 C180 0.650 . S
C624 C203 0.661 . S
C633 C20 1.080 . S
C635 C112 1.085 . S
C644 C43 1.079 . S
C646 C135 1.089 . S
C655 C158 1.082 . S
C657 C66 1.084 . S
C666 C89 1.087 . S
C668 C181 1.081 . S
C677 C250 1.094 . S
C679 C204 1.084 . S
C688 C273 1.083 . S
C690 C227 1.093 . S
C699 C296 1.080 . S
C701 C342 1.091 . S
C710 C365 1.080 1_655 S
C712 C319 1.074 1_655 S
C721 C18 1.678 . S
C723 C179 1.677 . S
C732 C41 1.675 . S
C734 C110 1.677 . S
C743 C133 1.677 . S
C745 C64 1.676 . S
C754 C156 1.680 . S
C756 C87 1.676 . S
C765 C269 1.621 . S
C767 C108 1.624 . S
C776 C200 1.626 . S
C778 C16 1.625 . S
C787 C246 1.618 . S
C789 C154 1.618 . S
C798 C62 1.623 . S
C800 C223 1.625 . S
C809 C294 1.673 . S
C811 C225 1.680 . S
C820 C340 1.673 . S
C822 C248 1.679 . S
C831 C317 1.674 . S
C833 C202 1.680 . S
C842 C363 1.680 . S
C844 C271 1.676 . S
C853 C338 1.626 . S
C855 C85 1.625 . S
C864 C131 1.622 . S
C866 C292 1.624 . S
C875 C39 1.620 . S
C877 C361 1.623 . S
C886 C315 1.623 . S
C888 C177 1.620 . S
