# Generated by pormake.
# Topology wmc, (6)-cn, num edge types: 1
# Building blocks:
#     Node 0, Type 0, BuildingBlock: MIFKUJ_clean_sbu_0, # of connection points: 6
#     Node 1, Type 0, BuildingBlock: MIFKUJ_clean_sbu_0, # of connection points: 6
#     Node 2, Type 0, BuildingBlock: MIFKUJ_clean_sbu_0, # of connection points: 6
#     Node 3, Type 0, BuildingBlock: MIFKUJ_clean_sbu_0, # of connection points: 6
#     Node 4, Type 0, BuildingBlock: MIFKUJ_clean_sbu_0, # of connection points: 6
#     Node 5, Type 0, BuildingBlock: MIFKUJ_clean_sbu_0, # of connection points: 6
#     Node 6, Type 0, BuildingBlock: MIFKUJ_clean_sbu_0, # of connection points: 6
#     Node 7, Type 0, BuildingBlock: MIFKUJ_clean_sbu_0, # of connection points: 6
#     Node 8, Type 0, BuildingBlock: MIFKUJ_clean_sbu_0, # of connection points: 6
#     Node 9, Type 0, BuildingBlock: MIFKUJ_clean_sbu_0, # of connection points: 6
#     Node 10, Type 0, BuildingBlock: MIFKUJ_clean_sbu_0, # of connection points: 6
#     Node 11, Type 0, BuildingBlock: MIFKUJ_clean_sbu_0, # of connection points: 6
#     Node 12, Type 0, BuildingBlock: MIFKUJ_clean_sbu_0, # of connection points: 6
#     Node 13, Type 0, BuildingBlock: MIFKUJ_clean_sbu_0, # of connection points: 6
#     Node 14, Type 0, BuildingBlock: MIFKUJ_clean_sbu_0, # of connection points: 6
#     Node 15, Type 0, BuildingBlock: MIFKUJ_clean_sbu_0, # of connection points: 6
#     Node 16, Type 0, BuildingBlock: MIFKUJ_clean_sbu_0, # of connection points: 6
#     Node 17, Type 0, BuildingBlock: MIFKUJ_clean_sbu_0, # of connection points: 6
#     Edge 18, Type (0, 0), BuildingBlock: ZUJKAS_clean_linker_0, # of connection points: 2
#     Edge 19, Type (0, 0), BuildingBlock: ZUJKAS_clean_linker_0, # of connection points: 2
#     Edge 20, Type (0, 0), BuildingBlock: ZUJKAS_clean_linker_0, # of connection points: 2
#     Edge 21, Type (0, 0), BuildingBlock: ZUJKAS_clean_linker_0, # of connection points: 2
#     Edge 22, Type (0, 0), BuildingBlock: ZUJKAS_clean_linker_0, # of connection points: 2
#     Edge 23, Type (0, 0), BuildingBlock: ZUJKAS_clean_linker_0, # of connection points: 2
#     Edge 24, Type (0, 0), BuildingBlock: ZUJKAS_clean_linker_0, # of connection points: 2
#     Edge 25, Type (0, 0), BuildingBlock: ZUJKAS_clean_linker_0, # of connection points: 2
#     Edge 26, Type (0, 0), BuildingBlock: ZUJKAS_clean_linker_0, # of connection points: 2
#     Edge 27, Type (0, 0), BuildingBlock: ZUJKAS_clean_linker_0, # of connection points: 2
#     Edge 28, Type (0, 0), BuildingBlock: ZUJKAS_clean_linker_0, # of connection points: 2
#     Edge 29, Type (0, 0), BuildingBlock: ZUJKAS_clean_linker_0, # of connection points: 2
#     Edge 30, Type (0, 0), BuildingBlock: ZUJKAS_clean_linker_0, # of connection points: 2
#     Edge 31, Type (0, 0), BuildingBlock: ZUJKAS_clean_linker_0, # of connection points: 2
#     Edge 32, Type (0, 0), BuildingBlock: ZUJKAS_clean_linker_0, # of connection points: 2
#     Edge 33, Type (0, 0), BuildingBlock: ZUJKAS_clean_linker_0, # of connection points: 2
#     Edge 34, Type (0, 0), BuildingBlock: ZUJKAS_clean_linker_0, # of connection points: 2
#     Edge 35, Type (0, 0), BuildingBlock: ZUJKAS_clean_linker_0, # of connection points: 2
#     Edge 36, Type (0, 0), BuildingBlock: ZUJKAS_clean_linker_0, # of connection points: 2
#     Edge 37, Type (0, 0), BuildingBlock: ZUJKAS_clean_linker_0, # of connection points: 2
#     Edge 38, Type (0, 0), BuildingBlock: ZUJKAS_clean_linker_0, # of connection points: 2
#     Edge 39, Type (0, 0), BuildingBlock: ZUJKAS_clean_linker_0, # of connection points: 2
#     Edge 40, Type (0, 0), BuildingBlock: ZUJKAS_clean_linker_0, # of connection points: 2
#     Edge 41, Type (0, 0), BuildingBlock: ZUJKAS_clean_linker_0, # of connection points: 2
#     Edge 42, Type (0, 0), BuildingBlock: ZUJKAS_clean_linker_0, # of connection points: 2
#     Edge 43, Type (0, 0), BuildingBlock: ZUJKAS_clean_linker_0, # of connection points: 2
#     Edge 44, Type (0, 0), BuildingBlock: ZUJKAS_clean_linker_0, # of connection points: 2
#     Edge 45, Type (0, 0), BuildingBlock: ZUJKAS_clean_linker_0, # of connection points: 2
#     Edge 46, Type (0, 0), BuildingBlock: ZUJKAS_clean_linker_0, # of connection points: 2
#     Edge 47, Type (0, 0), BuildingBlock: ZUJKAS_clean_linker_0, # of connection points: 2
#     Edge 48, Type (0, 0), BuildingBlock: ZUJKAS_clean_linker_0, # of connection points: 2
#     Edge 49, Type (0, 0), BuildingBlock: ZUJKAS_clean_linker_0, # of connection points: 2
#     Edge 50, Type (0, 0), BuildingBlock: ZUJKAS_clean_linker_0, # of connection points: 2
#     Edge 51, Type (0, 0), BuildingBlock: ZUJKAS_clean_linker_0, # of connection points: 2
#     Edge 52, Type (0, 0), BuildingBlock: ZUJKAS_clean_linker_0, # of connection points: 2
#     Edge 53, Type (0, 0), BuildingBlock: ZUJKAS_clean_linker_0, # of connection points: 2
#     Edge 54, Type (0, 0), BuildingBlock: ZUJKAS_clean_linker_0, # of connection points: 2
#     Edge 55, Type (0, 0), BuildingBlock: ZUJKAS_clean_linker_0, # of connection points: 2
#     Edge 56, Type (0, 0), BuildingBlock: ZUJKAS_clean_linker_0, # of connection points: 2
#     Edge 57, Type (0, 0), BuildingBlock: ZUJKAS_clean_linker_0, # of connection points: 2
#     Edge 58, Type (0, 0), BuildingBlock: ZUJKAS_clean_linker_0, # of connection points: 2
#     Edge 59, Type (0, 0), BuildingBlock: ZUJKAS_clean_linker_0, # of connection points: 2
#     Edge 60, Type (0, 0), BuildingBlock: ZUJKAS_clean_linker_0, # of connection points: 2
#     Edge 61, Type (0, 0), BuildingBlock: ZUJKAS_clean_linker_0, # of connection points: 2
#     Edge 62, Type (0, 0), BuildingBlock: ZUJKAS_clean_linker_0, # of connection points: 2
#     Edge 63, Type (0, 0), BuildingBlock: ZUJKAS_clean_linker_0, # of connection points: 2
#     Edge 64, Type (0, 0), BuildingBlock: ZUJKAS_clean_linker_0, # of connection points: 2
#     Edge 65, Type (0, 0), BuildingBlock: ZUJKAS_clean_linker_0, # of connection points: 2
#     Edge 66, Type (0, 0), BuildingBlock: ZUJKAS_clean_linker_0, # of connection points: 2
#     Edge 67, Type (0, 0), BuildingBlock: ZUJKAS_clean_linker_0, # of connection points: 2
#     Edge 68, Type (0, 0), BuildingBlock: ZUJKAS_clean_linker_0, # of connection points: 2
#     Edge 69, Type (0, 0), BuildingBlock: ZUJKAS_clean_linker_0, # of connection points: 2
#     Edge 70, Type (0, 0), BuildingBlock: ZUJKAS_clean_linker_0, # of connection points: 2
#     Edge 71, Type (0, 0), BuildingBlock: ZUJKAS_clean_linker_0, # of connection points: 2
# Relax obj value: 0.361
# Max RMSD: 0.275
# Mean RMSD: 0.275
data_MOF--net-wmc--node1-MIFKUJ_clean_sbu_0--edge1-ZUJKAS_clean_linker_0
_symmetry_space_group_name_H-M    P1
_symmetry_Int_Tables_number       1
_symmetry_cell_setting            triclinic
loop_
_symmetry_equiv_pos_as_xyz
'x, y, z'
_cell_length_a     58.173518
_cell_length_b     58.267654
_cell_length_c     45.093093
_cell_angle_alpha  89.947034
_cell_angle_beta   89.948324
_cell_angle_gamma 119.88924
loop_
_atom_site_label
_atom_site_type_symbol
_atom_site_fract_x
_atom_site_fract_y
_atom_site_fract_z
_atom_type_partial_charge
Zn0 Zn 0.59214 0.1169 0.03333 0.0
Zn1 Zn 0.59122 0.12646 0.96377 0.0
C2 C 0.6236 0.09429 0.05564 0.0
O3 O 0.60467 0.08379 0.07564 0.0
C4 C 0.57714 0.16629 0.96732 0.0
O5 O 0.59543 0.17548 0.94655 0.0
O6 O 0.58295 0.11799 0.07612 0.0
O7 O 0.61114 0.15496 0.0188 0.0
O8 O 0.62806 0.14621 0.97982 0.0
C9 C 0.59308 0.13891 0.09174 0.0
O10 O 0.61016 0.16164 0.07967 0.0
O11 O 0.62106 0.10689 0.03399 0.0
C12 C 0.57029 0.1234 0.90692 0.0
O13 O 0.5487 0.11285 0.92328 0.0
O14 O 0.59252 0.13106 0.91943 0.0
O15 O 0.57149 0.08741 0.96947 0.0
O16 O 0.55736 0.0889 0.01419 0.0
O17 O 0.57087 0.14418 0.97945 0.0
C18 C 0.63032 0.16171 0.00081 0.0
C19 C 0.55386 0.07724 0.98938 0.0
Zn20 Zn 0.88769 0.4872 0.03615 0.0
Zn21 Zn 0.87522 0.47631 0.96473 0.0
C22 C 0.9084 0.54063 0.05847 0.0
O23 O 0.9193 0.5329 0.07874 0.0
C24 C 0.85824 0.41885 0.97462 0.0
O25 O 0.87681 0.42136 0.95614 0.0
O26 O 0.88603 0.47615 0.07875 0.0
O27 O 0.85031 0.46806 0.02161 0.0
O28 O 0.85771 0.49461 0.98373 0.0
C29 C 0.86552 0.46983 0.09441 0.0
O30 O 0.8452 0.47037 0.0825 0.0
O31 O 0.89667 0.52547 0.03666 0.0
C32 C 0.882 0.4656 0.90503 0.0
O33 O 0.90136 0.46403 0.91803 0.0
O34 O 0.86783 0.47212 0.92045 0.0
O35 O 0.91437 0.49395 0.96983 0.0
O36 O 0.91492 0.48068 0.01552 0.0
O37 O 0.85604 0.4389 0.98094 0.0
C38 C 0.8436 0.48186 0.00592 0.0
C39 C 0.92529 0.48745 0.98988 0.0
Zn40 Zn 0.49188 0.39689 0.03588 0.0
Zn41 Zn 0.53723 0.42248 0.95719 0.0
C42 C 0.4414 0.3639 0.06373 0.0
O43 O 0.45079 0.38279 0.08372 0.0
C44 C 0.58844 0.4384 0.94934 0.0
O45 O 0.5759 0.41975 0.92949 0.0
O46 O 0.5079 0.40593 0.07688 0.0
O47 O 0.51083 0.3817 0.00976 0.0
O48 O 0.53321 0.38749 0.9679 0.0
C49 C 0.52064 0.3965 0.09018 0.0
O50 O 0.52549 0.37949 0.07641 0.0
O51 O 0.45499 0.36659 0.04061 0.0
C52 C 0.5406 0.44402 0.89928 0.0
O53 O 0.55699 0.46604 0.91302 0.0
O54 O 0.52809 0.42275 0.91418 0.0
O55 O 0.51485 0.42583 0.98693 0.0
O56 O 0.49137 0.43019 0.02055 0.0
O57 O 0.57554 0.44677 0.96407 0.0
C58 C 0.52303 0.37449 0.99168 0.0
C59 C 0.50567 0.43952 0.99767 0.0
Zn60 Zn 0.87063 0.41327 0.4647 0.0
Zn61 Zn 0.89515 0.41025 0.53898 0.0
C62 C 0.84037 0.43944 0.46734 0.0
O63 O 0.85486 0.45153 0.44393 0.0
C64 C 0.91618 0.37574 0.55941 0.0
O65 O 0.93088 0.39496 0.57786 0.0
O66 O 0.86599 0.40992 0.42007 0.0
O67 O 0.90585 0.44357 0.47384 0.0
O68 O 0.92374 0.44383 0.51734 0.0
C69 C 0.88328 0.42753 0.40311 0.0
O70 O 0.90481 0.44707 0.41477 0.0
O71 O 0.84367 0.42198 0.48038 0.0
C72 C 0.88047 0.40237 0.60045 0.0
O73 O 0.87104 0.37748 0.59303 0.0
O74 O 0.89249 0.42045 0.58115 0.0
O75 O 0.85702 0.39228 0.52549 0.0
O76 O 0.86322 0.37905 0.48228 0.0
O77 O 0.9024 0.37947 0.54015 0.0
C78 C 0.92466 0.45447 0.49228 0.0
C79 C 0.84947 0.37458 0.50561 0.0
Zn80 Zn 0.56845 0.44749 0.46213 0.0
Zn81 Zn 0.59663 0.50278 0.53394 0.0
C82 C 0.54158 0.39186 0.45736 0.0
O83 O 0.55281 0.3984 0.43108 0.0
C84 C 0.62942 0.555 0.55647 0.0
O85 O 0.60927 0.54762 0.57466 0.0
O86 O 0.5689 0.45286 0.41766 0.0
O87 O 0.56502 0.47347 0.48754 0.0
O88 O 0.56328 0.50167 0.51711 0.0
C89 C 0.54886 0.44686 0.40139 0.0
O90 O 0.52549 0.43784 0.41373 0.0
O91 O 0.54362 0.41004 0.47452 0.0
C92 C 0.58601 0.46826 0.58659 0.0
O93 O 0.5866 0.4508 0.56869 0.0
O94 O 0.58929 0.48996 0.57615 0.0
O95 O 0.60841 0.48107 0.50919 0.0
O96 O 0.60434 0.45362 0.47326 0.0
O97 O 0.62759 0.53959 0.53555 0.0
C98 C 0.55269 0.48488 0.4964 0.0
C99 C 0.61735 0.46832 0.49495 0.0
Zn100 Zn 0.53984 0.12175 0.46301 0.0
Zn101 Zn 0.50001 0.09845 0.54592 0.0
C102 C 0.59284 0.15925 0.45511 0.0
O103 O 0.58125 0.16586 0.43449 0.0
C104 C 0.44475 0.08664 0.54281 0.0
O105 O 0.44617 0.08316 0.51423 0.0
O106 O 0.53246 0.11367 0.41946 0.0
O107 O 0.5199 0.09199 0.4918 0.0
O108 O 0.49895 0.06543 0.5283 0.0
C109 C 0.54714 0.10771 0.40426 0.0
O110 O 0.56496 0.10396 0.41789 0.0
O111 O 0.57878 0.1387 0.47059 0.0
C112 C 0.52034 0.12756 0.59827 0.0
O113 O 0.50474 0.13641 0.5891 0.0
O114 O 0.52308 0.11116 0.58219 0.0
O115 O 0.51353 0.12763 0.51523 0.0
O116 O 0.53099 0.14985 0.47432 0.0
O117 O 0.46431 0.09152 0.55931 0.0
C118 C 0.51005 0.0691 0.50305 0.0
C119 C 0.52044 0.14811 0.49951 0.0
Zn120 Zn 0.2583 0.43025 0.36838 0.0
Zn121 Zn 0.23552 0.45134 0.28927 0.0
C122 C 0.29226 0.41064 0.39348 0.0
O123 O 0.27143 0.39267 0.408 0.0
C124 C 0.22057 0.48848 0.28547 0.0
O125 O 0.23862 0.49537 0.26459 0.0
O126 O 0.2477 0.44062 0.40628 0.0
O127 O 0.27218 0.46058 0.33853 0.0
O128 O 0.27228 0.48092 0.29753 0.0
C129 C 0.26483 0.45804 0.42341 0.0
O130 O 0.28997 0.46989 0.41581 0.0
O131 O 0.28986 0.42637 0.37602 0.0
C132 C 0.21216 0.43826 0.23153 0.0
O133 O 0.19191 0.43701 0.24589 0.0
O134 O 0.2325 0.44207 0.24598 0.0
O135 O 0.23029 0.42375 0.31838 0.0
O136 O 0.22592 0.39609 0.35259 0.0
O137 O 0.21321 0.46705 0.29949 0.0
C138 C 0.28322 0.48089 0.3219 0.0
C139 C 0.21685 0.40089 0.32926 0.0
Zn140 Zn 0.56035 0.82978 0.36746 0.0
Zn141 Zn 0.53479 0.78051 0.29109 0.0
C142 C 0.57836 0.88138 0.394 0.0
O143 O 0.59005 0.87362 0.41324 0.0
C144 C 0.50154 0.72612 0.28744 0.0
O145 O 0.49316 0.73453 0.26513 0.0
O146 O 0.55112 0.81149 0.40734 0.0
O147 O 0.52846 0.81054 0.34034 0.0
O148 O 0.50471 0.78634 0.30299 0.0
C149 C 0.53634 0.81522 0.42516 0.0
O150 O 0.52688 0.83056 0.41706 0.0
O151 O 0.56615 0.86652 0.37218 0.0
C152 C 0.54789 0.77289 0.23165 0.0
O153 O 0.55365 0.75638 0.24511 0.0
O154 O 0.54074 0.7865 0.24706 0.0
O155 O 0.56533 0.8042 0.31702 0.0
O156 O 0.59317 0.82966 0.35021 0.0
O157 O 0.52169 0.74276 0.3019 0.0
C158 C 0.50676 0.79972 0.32607 0.0
C159 C 0.58874 0.8156 0.32707 0.0
Zn160 Zn 0.18595 0.74212 0.36894 0.0
Zn161 Zn 0.19726 0.74469 0.29572 0.0
C162 C 0.12813 0.70542 0.37994 0.0
O163 O 0.12576 0.72629 0.38538 0.0
C164 C 0.25436 0.76928 0.29153 0.0
O165 O 0.24818 0.75845 0.26511 0.0
O166 O 0.19556 0.75141 0.4115 0.0
O167 O 0.21068 0.73084 0.35203 0.0
O168 O 0.18338 0.70972 0.31536 0.0
C169 C 0.20579 0.74059 0.42699 0.0
O170 O 0.21159 0.72373 0.41454 0.0
O171 O 0.15027 0.7085 0.37119 0.0
C172 C 0.20224 0.76092 0.23602 0.0
O173 O 0.20678 0.78257 0.24997 0.0
O174 O 0.1968 0.7404 0.25119 0.0
O175 O 0.17649 0.76272 0.30316 0.0
O176 O 0.18589 0.77373 0.35027 0.0
O177 O 0.23598 0.76727 0.30857 0.0
C178 C 0.19777 0.71005 0.33667 0.0
C179 C 0.17925 0.77774 0.32477 0.0
Zn180 Zn 0.53807 0.76674 0.7948 0.0
Zn181 Zn 0.56567 0.73667 0.8649 0.0
C182 C 0.51077 0.79531 0.79127 0.0
O183 O 0.50461 0.78372 0.76524 0.0
C184 C 0.58099 0.69841 0.88495 0.0
O185 O 0.59995 0.71858 0.89928 0.0
O186 O 0.54102 0.76441 0.7502 0.0
O187 O 0.56909 0.76984 0.8177 0.0
O188 O 0.59867 0.76854 0.84571 0.0
C189 C 0.55109 0.78441 0.73306 0.0
O190 O 0.56146 0.80821 0.74455 0.0
O191 O 0.52729 0.79296 0.80753 0.0
C192 C 0.53912 0.73656 0.91927 0.0
O193 O 0.51788 0.71927 0.90488 0.0
O194 O 0.56159 0.74676 0.90648 0.0
O195 O 0.53291 0.72892 0.84149 0.0
O196 O 0.50718 0.7325 0.80868 0.0
O197 O 0.56591 0.70225 0.86778 0.0
C198 C 0.5931 0.78042 0.82562 0.0
C199 C 0.51006 0.72011 0.83026 0.0
Zn200 Zn 0.22461 0.77629 0.8014 0.0
Zn201 Zn 0.25389 0.83264 0.87188 0.0
C202 C 0.20151 0.72229 0.79534 0.0
O203 O 0.21727 0.73143 0.77217 0.0
C204 C 0.29132 0.88096 0.9012 0.0
O205 O 0.27296 0.87163 0.9219 0.0
O206 O 0.22664 0.78337 0.75741 0.0
O207 O 0.22201 0.80303 0.82599 0.0
O208 O 0.22164 0.83332 0.85296 0.0
C209 C 0.20661 0.77363 0.74038 0.0
O210 O 0.1828 0.75935 0.75174 0.0
O211 O 0.1989 0.73854 0.81177 0.0
C212 C 0.25569 0.80704 0.92594 0.0
O213 O 0.27562 0.80689 0.91239 0.0
O214 O 0.24305 0.81658 0.91264 0.0
O215 O 0.26513 0.8097 0.84839 0.0
O216 O 0.25954 0.78073 0.8137 0.0
O217 O 0.28673 0.86864 0.8767 0.0
C218 C 0.21062 0.81588 0.8329 0.0
C219 C 0.27328 0.79598 0.8347 0.0
Zn220 Zn 0.21455 0.45724 0.79209 0.0
Zn221 Zn 0.16592 0.43086 0.86811 0.0
C222 C 0.27031 0.49121 0.79037 0.0
O223 O 0.2642 0.49843 0.76535 0.0
C224 C 0.11648 0.41606 0.89828 0.0
O225 O 0.12593 0.40703 0.91884 0.0
O226 O 0.2101 0.45063 0.74816 0.0
O227 O 0.19132 0.4258 0.81755 0.0
O228 O 0.16571 0.39804 0.85103 0.0
C229 C 0.22636 0.44688 0.73309 0.0
O230 O 0.24491 0.44438 0.74681 0.0
O231 O 0.25219 0.47272 0.80559 0.0
C232 C 0.18649 0.45966 0.92221 0.0
O233 O 0.1738 0.47173 0.91308 0.0
O234 O 0.18605 0.44143 0.90635 0.0
O235 O 0.18365 0.46086 0.83909 0.0
O236 O 0.20541 0.48555 0.8014 0.0
O237 O 0.12954 0.42547 0.87449 0.0
C238 C 0.17968 0.40244 0.82772 0.0
C239 C 0.19201 0.48228 0.82481 0.0
Zn240 Zn 0.92567 0.78312 0.7016 0.0
Zn241 Zn 0.92665 0.78967 0.631 0.0
C242 C 0.95715 0.75828 0.71935 0.0
O243 O 0.93713 0.74333 0.73688 0.0
C244 C 0.91327 0.8293 0.62975 0.0
O245 O 0.9332 0.83767 0.61106 0.0
O246 O 0.9163 0.78502 0.74421 0.0
O247 O 0.94377 0.82047 0.68616 0.0
O248 O 0.96265 0.81167 0.64891 0.0
C249 C 0.93404 0.79911 0.76299 0.0
O250 O 0.95891 0.81252 0.75436 0.0
O251 O 0.9551 0.7741 0.70158 0.0
C252 C 0.90639 0.78004 0.57298 0.0
O253 O 0.88488 0.76596 0.58887 0.0
O254 O 0.92864 0.79227 0.58617 0.0
O255 O 0.9079 0.75105 0.6403 0.0
O256 O 0.89145 0.75562 0.68221 0.0
O257 O 0.9052 0.80713 0.64266 0.0
C258 C 0.96369 0.82723 0.6693 0.0
C259 C 0.88904 0.74248 0.65882 0.0
Zn260 Zn 0.21673 0.15398 0.69739 0.0
Zn261 Zn 0.20484 0.14594 0.62635 0.0
C262 C 0.24042 0.2075 0.72135 0.0
O263 O 0.24917 0.19839 0.74257 0.0
C264 C 0.16134 0.09625 0.63617 0.0
O265 O 0.15139 0.1084 0.62077 0.0
O266 O 0.21442 0.14102 0.73931 0.0
O267 O 0.17885 0.13852 0.68391 0.0
O268 O 0.18722 0.1645 0.64516 0.0
C269 C 0.19708 0.14035 0.75704 0.0
O270 O 0.18089 0.14841 0.7477 0.0
O271 O 0.22901 0.19297 0.69902 0.0
C272 C 0.19965 0.12278 0.57008 0.0
O273 O 0.20452 0.10733 0.58699 0.0
O274 O 0.19882 0.14224 0.5818 0.0
O275 O 0.2437 0.16236 0.63144 0.0
O276 O 0.24237 0.14554 0.67563 0.0
O277 O 0.18596 0.10851 0.64213 0.0
C278 C 0.17239 0.15191 0.66701 0.0
C279 C 0.25318 0.15322 0.65031 0.0
Zn280 Zn 0.84209 0.07186 0.69951 0.0
Zn281 Zn 0.85072 0.0722 0.62825 0.0
C282 C 0.79131 0.04099 0.72932 0.0
O283 O 0.80349 0.05824 0.75056 0.0
C284 C 0.90094 0.07862 0.63672 0.0
O285 O 0.88906 0.0575 0.61983 0.0
O286 O 0.85709 0.08196 0.74078 0.0
O287 O 0.85736 0.04984 0.68377 0.0
O288 O 0.83273 0.03472 0.64374 0.0
C289 C 0.85811 0.06509 0.75783 0.0
O290 O 0.84981 0.04101 0.74797 0.0
O291 O 0.80252 0.04483 0.70408 0.0
C292 C 0.87405 0.09304 0.57255 0.0
O293 O 0.88877 0.11313 0.58999 0.0
O294 O 0.85506 0.07208 0.58375 0.0
O295 O 0.83328 0.09392 0.63528 0.0
O296 O 0.85074 0.10705 0.67956 0.0
O297 O 0.88831 0.09031 0.64429 0.0
C298 C 0.84493 0.03128 0.66516 0.0
C299 C 0.84273 0.11159 0.65517 0.0
Zn300 Zn 0.19787 0.09034 0.1278 0.0
Zn301 Zn 0.21986 0.06533 0.20506 0.0
C302 C 0.16808 0.11691 0.12459 0.0
O303 O 0.16279 0.10641 0.09797 0.0
C304 C 0.242 0.03522 0.23154 0.0
O305 O 0.25436 0.0556 0.24938 0.0
O306 O 0.20651 0.09371 0.08412 0.0
O307 O 0.22541 0.09371 0.15533 0.0
O308 O 0.25321 0.09787 0.18911 0.0
C309 C 0.2145 0.11537 0.07024 0.0
O310 O 0.22 0.13684 0.08523 0.0
O311 O 0.1839 0.1138 0.14119 0.0
C312 C 0.19644 0.05738 0.26345 0.0
O313 O 0.18638 0.03232 0.25638 0.0
O314 O 0.21081 0.07502 0.24464 0.0
O315 O 0.18767 0.05011 0.17675 0.0
O316 O 0.16843 0.05384 0.13618 0.0
O317 O 0.22739 0.0359 0.2111 0.0
C318 C 0.24861 0.10655 0.16544 0.0
C319 C 0.16785 0.04081 0.15916 0.0
Zn320 Zn 0.89358 0.11556 0.12911 0.0
Zn321 Zn 0.918 0.16172 0.20785 0.0
C322 C 0.86698 0.06088 0.12166 0.0
O323 O 0.88017 0.06852 0.09655 0.0
C324 C 0.96002 0.21972 0.21136 0.0
O325 O 0.94532 0.22696 0.19641 0.0
O326 O 0.89591 0.1228 0.0853 0.0
O327 O 0.88916 0.14052 0.15567 0.0
O328 O 0.88756 0.16584 0.18976 0.0
C329 C 0.8758 0.11641 0.06906 0.0
O330 O 0.85231 0.10675 0.0814 0.0
O331 O 0.867 0.0782 0.1387 0.0
C332 C 0.92441 0.14083 0.26174 0.0
O333 O 0.94833 0.1507 0.25043 0.0
O334 O 0.90662 0.14221 0.24674 0.0
O335 O 0.92836 0.14125 0.18 0.0
O336 O 0.92757 0.1176 0.14198 0.0
O337 O 0.95139 0.19542 0.21687 0.0
C338 C 0.87827 0.15299 0.16578 0.0
C339 C 0.93848 0.12964 0.16586 0.0
Zn340 Zn 0.85839 0.78686 0.13076 0.0
Zn341 Zn 0.83935 0.77027 0.20494 0.0
C342 C 0.9086 0.83256 0.13762 0.0
O343 O 0.89694 0.84123 0.11946 0.0
C344 C 0.78609 0.75331 0.22836 0.0
O345 O 0.79277 0.74185 0.24906 0.0
O346 O 0.86082 0.79292 0.08638 0.0
O347 O 0.84627 0.74883 0.13596 0.0
O348 O 0.84157 0.73996 0.18423 0.0
C349 C 0.87931 0.79104 0.07358 0.0
O350 O 0.89458 0.78526 0.08963 0.0
O351 O 0.89579 0.80869 0.1465 0.0
C352 C 0.85526 0.79169 0.26346 0.0
O353 O 0.85172 0.81042 0.25193 0.0
O354 O 0.85125 0.77208 0.24741 0.0
O355 O 0.86064 0.8075 0.18901 0.0
O356 O 0.83635 0.80044 0.14929 0.0
O357 O 0.80178 0.7644 0.20664 0.0
C358 C 0.84247 0.73331 0.15749 0.0
C359 C 0.84759 0.81426 0.17208 0.0
H360 H 0.55724 0.16864 0.02188 0.0
H361 H 0.54131 0.19903 0.03686 0.0
H362 H 0.55349 0.22971 0.94769 0.0
H363 H 0.56978 0.20006 0.93285 0.0
H364 H 0.57544 0.25952 0.02588 0.0
H365 H 0.47539 0.21141 0.97473 0.0
H366 H 0.49175 0.19319 0.98546 0.0
H367 H 0.50128 0.21241 0.95193 0.0
C368 C 0.55608 0.1816 0.00546 0.0
C369 C 0.56477 0.18207 0.97623 0.0
C370 C 0.54708 0.19895 0.01403 0.0
C371 C 0.54606 0.21643 0.99328 0.0
C372 C 0.5539 0.2162 0.96394 0.0
H373 H 0.55748 0.36185 0.96589 0.0
H374 H 0.56125 0.32248 0.97358 0.0
C375 C 0.5633 0.19933 0.95554 0.0
C376 C 0.53887 0.23653 0.00214 0.0
H377 H 0.4951 0.25764 0.98579 0.0
C378 C 0.55754 0.25885 0.01785 0.0
C379 C 0.51555 0.23559 0.99158 0.0
C380 C 0.49467 0.21178 0.97516 0.0
C381 C 0.55432 0.28104 0.02146 0.0
C382 C 0.53186 0.28079 0.00914 0.0
C383 C 0.5123 0.25776 0.99525 0.0
C384 C 0.53024 0.30531 0.00665 0.0
C385 C 0.57557 0.30515 0.03714 0.0
C386 C 0.51147 0.3087 0.02275 0.0
C387 C 0.50932 0.33146 0.01855 0.0
C388 C 0.52557 0.35081 0.99771 0.0
C389 C 0.54447 0.34729 0.98192 0.0
C390 C 0.5468 0.32485 0.9864 0.0
H391 H 0.58829 0.30028 0.05111 0.0
H392 H 0.58836 0.32005 0.0204 0.0
H393 H 0.56661 0.31424 0.05128 0.0
H394 H 0.49841 0.29371 0.03838 0.0
H395 H 0.49462 0.33362 0.03108 0.0
H396 H 0.63707 0.20429 0.03341 0.0
H397 H 0.676 0.24889 0.03393 0.0
H398 H 0.71627 0.22331 0.97356 0.0
H399 H 0.6775 0.17896 0.97255 0.0
H400 H 0.7302 0.26723 0.04856 0.0
H401 H 0.71774 0.28643 0.93093 0.0
H402 H 0.69181 0.25969 0.95201 0.0
H403 H 0.71831 0.25618 0.93623 0.0
C404 C 0.65429 0.20816 0.02036 0.0
C405 C 0.65414 0.18822 0.00264 0.0
C406 C 0.67647 0.23361 0.02072 0.0
C407 C 0.69877 0.23944 0.00337 0.0
C408 C 0.69901 0.21931 0.98659 0.0
H409 H 0.8503 0.37056 0.95672 0.0
H410 H 0.8118 0.32719 0.96728 0.0
C411 C 0.67686 0.19399 0.98607 0.0
C412 C 0.72168 0.26665 0.00202 0.0
H413 H 0.75925 0.31613 0.95322 0.0
C414 C 0.73649 0.27809 0.02782 0.0
C415 C 0.72956 0.28082 0.97498 0.0
C416 C 0.71339 0.2703 0.94702 0.0
C417 C 0.75979 0.30291 0.02693 0.0
C418 C 0.76825 0.31651 -0.00042 0.0
C419 C 0.75293 0.30541 0.97405 0.0
C420 C 0.79297 0.34228 0.9966 0.0
C421 C 0.77558 0.31408 0.05497 0.0
C422 C 0.79528 0.36503 0.01001 0.0
C423 C 0.81723 0.38984 0.00401 0.0
C424 C 0.83721 0.39234 0.98437 0.0
C425 C 0.83534 0.36935 0.97199 0.0
C426 C 0.81334 0.34456 0.97794 0.0
H427 H 0.76941 0.29888 0.07271 0.0
H428 H 0.7971 0.3225 0.05062 0.0
H429 H 0.77252 0.3303 0.06324 0.0
H430 H 0.7796 0.36374 0.02411 0.0
H431 H 0.81804 0.40716 0.01393 0.0
H432 H 0.60529 0.4031 0.95216 0.0
H433 H 0.64652 0.40943 0.97319 0.0
H434 H 0.67105 0.49121 0.99158 0.0
H435 H 0.62865 0.48434 0.97212 0.0
H436 H 0.69276 0.43912 0.95256 0.0
H437 H 0.69145 0.47117 0.06769 0.0
H438 H 0.66257 0.45763 0.04411 0.0
H439 H 0.68758 0.49205 0.04134 0.0
C440 C 0.61949 0.42244 0.9607 0.0
C441 C 0.61416 0.4434 0.96024 0.0
C442 C 0.64289 0.42595 0.97295 0.0
C443 C 0.66167 0.45066 0.98434 0.0
C444 C 0.65647 0.47177 0.98373 0.0
H445 H 0.82694 0.51482 0.98485 0.0
H446 H 0.78181 0.50764 0.98667 0.0
C447 C 0.63256 0.46801 0.97219 0.0
C448 C 0.68768 0.45478 0.99385 0.0
H449 H 0.73408 0.47995 0.04886 0.0
C450 C 0.70153 0.44766 0.97383 0.0
C451 C 0.699 0.46567 0.02175 0.0
C452 C 0.68422 0.47178 0.04506 0.0
C453 C 0.72674 0.45194 0.98049 0.0
C454 C 0.73869 0.46439 0.00743 0.0
C455 C 0.72474 0.47076 0.02803 0.0
C456 C 0.76633 0.47201 0.01312 0.0
C457 C 0.74076 0.44364 0.95842 0.0
C458 C 0.77232 0.45469 0.02827 0.0
C459 C 0.79799 0.45865 0.02719 0.0
C460 C 0.81771 0.47982 0.01066 0.0
C461 C 0.81196 0.49812 0.99728 0.0
C462 C 0.78638 0.49425 0.99859 0.0
H463 H 0.72738 0.43118 0.94037 0.0
H464 H 0.75759 0.46151 0.94833 0.0
H465 H 0.74899 0.43239 0.96977 0.0
H466 H 0.75684 0.43727 0.03928 0.0
H467 H 0.80195 0.44431 0.03783 0.0
H468 H 0.6583 0.48468 0.45715 0.0
H469 H 0.69962 0.48409 0.4652 0.0
H470 H 0.67571 0.45747 0.55512 0.0
H471 H 0.63445 0.45875 0.5473 0.0
H472 H 0.74128 0.50827 0.5146 0.0
H473 H 0.68376 0.39807 0.50663 0.0
H474 H 0.67056 0.41836 0.49319 0.0
H475 H 0.67295 0.41448 0.5323 0.0
C476 C 0.66221 0.4793 0.47881 0.0
C477 C 0.64348 0.47179 0.50165 0.0
C478 C 0.68572 0.479 0.4834 0.0
C479 C 0.69051 0.47062 0.51066 0.0
C480 C 0.67227 0.46406 0.53398 0.0
H481 H 0.81069 0.42188 0.51801 0.0
H482 H 0.77599 0.43108 0.53455 0.0
C483 C 0.64888 0.46487 0.52955 0.0
C484 C 0.71341 0.46647 0.51314 0.0
H485 H 0.73007 0.41843 0.50477 0.0
C486 C 0.73895 0.48864 0.51309 0.0
C487 C 0.71011 0.4408 0.51114 0.0
C488 C 0.68293 0.41645 0.51069 0.0
C489 C 0.7614 0.48584 0.50984 0.0
C490 C 0.75802 0.46026 0.5059 0.0
C491 C 0.73255 0.43801 0.50769 0.0
C492 C 0.78026 0.45623 0.49719 0.0
C493 C 0.78846 0.51032 0.50995 0.0
C494 C 0.79391 0.46714 0.47058 0.0
C495 C 0.81374 0.462 0.46111 0.0
C496 C 0.82003 0.44558 0.47792 0.0
C497 C 0.8063 0.43464 0.50459 0.0
C498 C 0.78653 0.43991 0.51411 0.0
H499 H 0.78834 0.52665 0.52252 0.0
H500 H 0.80355 0.50622 0.51978 0.0
H501 H 0.79443 0.51722 0.48679 0.0
H502 H 0.78881 0.47915 0.45675 0.0
H503 H 0.82375 0.4705 0.44033 0.0
H504 H 0.54883 0.18491 0.54104 0.0
H505 H 0.54897 0.22671 0.54929 0.0
H506 H 0.48421 0.20181 0.48757 0.0
H507 H 0.48442 0.16043 0.47905 0.0
H508 H 0.55961 0.26069 0.50145 0.0
H509 H 0.46454 0.23771 0.55368 0.0
H510 H 0.47819 0.21587 0.55613 0.0
H511 H 0.45992 0.21549 0.52377 0.0
C512 C 0.53405 0.18811 0.53017 0.0
C513 C 0.51642 0.16965 0.50968 0.0
C514 C 0.53416 0.2119 0.53482 0.0
C515 C 0.51633 0.21715 0.51937 0.0
C516 C 0.49769 0.19788 0.50025 0.0
H517 H 0.53292 0.3483 0.42615 0.0
H518 H 0.52608 0.30645 0.44628 0.0
C519 C 0.49786 0.17435 0.49527 0.0
C520 C 0.51995 0.24412 0.51882 0.0
H521 H 0.48521 0.27703 0.5224 0.0
C522 C 0.54359 0.26446 0.50673 0.0
C523 C 0.49917 0.24908 0.52602 0.0
C524 C 0.47413 0.22844 0.54092 0.0
C525 C 0.5462 0.28901 0.49945 0.0
C526 C 0.52444 0.29309 0.50399 0.0
C527 C 0.50161 0.27357 0.51833 0.0
C528 C 0.52467 0.3168 0.49205 0.0
C529 C 0.5719 0.31006 0.48595 0.0
C530 C 0.52457 0.33576 0.51107 0.0
C531 C 0.52827 0.35969 0.4996 0.0
C532 C 0.53215 0.3649 0.46896 0.0
C533 C 0.5303 0.34502 0.44987 0.0
C534 C 0.52652 0.32115 0.46133 0.0
H535 H 0.58869 0.30692 0.49179 0.0
H536 H 0.57 0.30925 0.46143 0.0
H537 H 0.57667 0.33013 0.49335 0.0
H538 H 0.52291 0.33257 0.53484 0.0
H539 H 0.52953 0.3746 0.51489 0.0
H540 H 0.6214 0.15515 0.50114 0.0
H541 H 0.66534 0.18934 0.51819 0.0
H542 H 0.67076 0.23906 0.44458 0.0
H543 H 0.62716 0.20524 0.4273 0.0
H544 H 0.71739 0.21821 0.48353 0.0
H545 H 0.67745 0.28132 0.52453 0.0
H546 H 0.65694 0.24603 0.51902 0.0
H547 H 0.6669 0.26817 0.48785 0.0
C548 C 0.63213 0.17322 0.48836 0.0
C549 C 0.62069 0.17768 0.4631 0.0
C550 C 0.65713 0.19268 0.49818 0.0
C551 C 0.67083 0.21678 0.48293 0.0
C552 C 0.66013 0.22068 0.45686 0.0
H553 H 0.81675 0.35143 0.45869 0.0
H554 H 0.77251 0.31226 0.45938 0.0
C555 C 0.63528 0.20129 0.44699 0.0
C556 C 0.69604 0.23846 0.49432 0.0
H557 H 0.72453 0.30255 0.51769 0.0
C558 C 0.71896 0.23646 0.49164 0.0
C559 C 0.69781 0.26206 0.50515 0.0
C560 C 0.67345 0.26457 0.50961 0.0
C561 C 0.74399 0.25828 0.49758 0.0
C562 C 0.74588 0.28243 0.5063 0.0
C563 C 0.72286 0.28392 0.51088 0.0
C564 C 0.77167 0.30698 0.50692 0.0
C565 C 0.76844 0.25595 0.49317 0.0
C566 C 0.78531 0.31713 0.53361 0.0
C567 C 0.81054 0.33965 0.53332 0.0
C568 C 0.82234 0.35194 0.50629 0.0
C569 C 0.80825 0.34203 0.47975 0.0
C570 C 0.78302 0.3198 0.4801 0.0
H571 H 0.76355 0.23507 0.49018 0.0
H572 H 0.77929 0.26741 0.47321 0.0
H573 H 0.78194 0.26451 0.51247 0.0
H574 H 0.77669 0.30735 0.55446 0.0
H575 H 0.82113 0.34699 0.55403 0.0
H576 H 0.23999 0.70299 0.34365 0.0
H577 H 0.23846 0.66023 0.34742 0.0
H578 H 0.15315 0.62056 0.35508 0.0
H579 H 0.1546 0.66295 0.3484 0.0
H580 H 0.2193 0.61591 0.3821 0.0
H581 H 0.16313 0.5947 0.27626 0.0
H582 H 0.17822 0.62671 0.29367 0.0
H583 H 0.14716 0.60017 0.30726 0.0
C584 C 0.22104 0.68509 0.34666 0.0
C585 C 0.19736 0.68578 0.34522 0.0
C586 C 0.22016 0.6608 0.34905 0.0
C587 C 0.19561 0.63727 0.35072 0.0
C588 C 0.1722 0.63848 0.35296 0.0
H589 H 0.18719 0.48266 0.33134 0.0
H590 H 0.17831 0.51667 0.35126 0.0
C591 C 0.17301 0.66257 0.34931 0.0
C592 C 0.1943 0.6118 0.34491 0.0
H593 H 0.17303 0.56275 0.2932 0.0
C594 C 0.20884 0.60399 0.36298 0.0
C595 C 0.18104 0.5967 0.31949 0.0
C596 C 0.16672 0.60506 0.29788 0.0
C597 C 0.21098 0.58172 0.35581 0.0
C598 C 0.19789 0.56694 0.33034 0.0
C599 C 0.18264 0.57414 0.31294 0.0
C600 C 0.20271 0.54621 0.31882 0.0
C601 C 0.2284 0.57497 0.3743 0.0
C602 C 0.21866 0.55163 0.29361 0.0
C603 C 0.22356 0.53238 0.28207 0.0
C604 C 0.21257 0.50741 0.29564 0.0
C605 C 0.19592 0.50177 0.32047 0.0
C606 C 0.19101 0.52114 0.33202 0.0
H607 H 0.2379 0.58902 0.39296 0.0
H608 H 0.21642 0.55468 0.38347 0.0
H609 H 0.24415 0.57518 0.36017 0.0
H610 H 0.22761 0.57093 0.28311 0.0
H611 H 0.23648 0.53734 0.26295 0.0
H612 H 0.4615 0.68473 0.25843 0.0
H613 H 0.42896 0.64213 0.27952 0.0
H614 H 0.47069 0.66339 0.36287 0.0
H615 H 0.5036 0.70631 0.34192 0.0
H616 H 0.44829 0.60546 0.3345 0.0
H617 H 0.37798 0.64282 0.35066 0.0
H618 H 0.39565 0.65164 0.31596 0.0
H619 H 0.41357 0.66435 0.34998 0.0
C620 C 0.46404 0.68023 0.28109 0.0
C621 C 0.48492 0.69892 0.2986 0.0
C622 C 0.44544 0.65595 0.2931 0.0
C623 C 0.44736 0.64999 0.32278 0.0
C624 C 0.46896 0.66785 0.33993 0.0
H625 H 0.29969 0.50583 0.37519 0.0
H626 H 0.34196 0.54645 0.38564 0.0
C627 C 0.48772 0.69224 0.32788 0.0
C628 C 0.42571 0.62555 0.33571 0.0
H629 H 0.35912 0.5957 0.34777 0.0
C630 C 0.42893 0.60337 0.33834 0.0
C631 C 0.40067 0.62314 0.34111 0.0
C632 C 0.39667 0.64678 0.33956 0.0
C633 C 0.40699 0.57819 0.34342 0.0
C634 C 0.38151 0.57541 0.34561 0.0
C635 C 0.37874 0.59796 0.34597 0.0
C636 C 0.35745 0.54953 0.34128 0.0
C637 C 0.41083 0.55447 0.34445 0.0
C638 C 0.35233 0.53819 0.31294 0.0
C639 C 0.32833 0.51544 0.30693 0.0
C640 C 0.30925 0.50345 0.32931 0.0
C641 C 0.31454 0.51441 0.35791 0.0
C642 C 0.33848 0.53758 0.36382 0.0
H643 H 0.43148 0.56017 0.35065 0.0
H644 H 0.39691 0.53952 0.36052 0.0
H645 H 0.40673 0.54514 0.3222 0.0
H646 H 0.36658 0.54751 0.29515 0.0
H647 H 0.32453 0.50741 0.28466 0.0
H648 H 0.49873 0.84183 0.3221 0.0
H649 H 0.4561 0.84051 0.32752 0.0
H650 H 0.42 0.75948 0.35758 0.0
H651 H 0.46228 0.76056 0.35079 0.0
H652 H 0.39455 0.76274 0.31245 0.0
H653 H 0.40793 0.8415 0.39054 0.0
H654 H 0.43253 0.8541 0.36179 0.0
H655 H 0.43152 0.83002 0.38763 0.0
C656 C 0.48183 0.8241 0.33078 0.0
C657 C 0.4836 0.80133 0.33619 0.0
C658 C 0.45749 0.82336 0.33405 0.0
C659 C 0.43476 0.79994 0.34322 0.0
C660 C 0.43719 0.77779 0.35055 0.0
H661 H 0.27162 0.77286 0.34894 0.0
H662 H 0.31592 0.78225 0.36476 0.0
C663 C 0.46133 0.77841 0.34678 0.0
C664 C 0.40792 0.79703 0.34047 0.0
H665 H 0.37061 0.82584 0.35701 0.0
C666 C 0.3893 0.77637 0.32265 0.0
C667 C 0.40079 0.81461 0.35385 0.0
C668 C 0.41917 0.83612 0.37478 0.0
C669 C 0.36426 0.7733 0.317 0.0
C670 C 0.35777 0.79186 0.32876 0.0
C671 C 0.37583 0.81193 0.34759 0.0
C672 C 0.3326 0.79086 0.32053 0.0
C673 C 0.34499 0.75022 0.29825 0.0
C674 C 0.32772 0.79376 0.29069 0.0
C675 C 0.30255 0.78819 0.28162 0.0
C676 C 0.28183 0.78003 0.30228 0.0
C677 C 0.28725 0.77919 0.33255 0.0
C678 C 0.31251 0.78451 0.3416 0.0
H679 H 0.34987 0.73406 0.29809 0.0
H680 H 0.32433 0.74208 0.30636 0.0
H681 H 0.34595 0.757 0.27504 0.0
H682 H 0.3431 0.79908 0.27415 0.0
H683 H 0.29904 0.78927 0.2582 0.0
H684 H 0.49471 0.82723 0.76617 0.0
H685 H 0.45851 0.83389 0.78323 0.0
H686 H 0.44853 0.78585 0.86044 0.0
H687 H 0.48599 0.78098 0.84446 0.0
H688 H 0.41115 0.79652 0.78553 0.0
H689 H 0.43485 0.83867 0.89861 0.0
H690 H 0.45951 0.83801 0.87488 0.0
H691 H 0.43702 0.80913 0.89598 0.0
C692 C 0.48545 0.81912 0.78739 0.0
C693 C 0.49327 0.80401 0.80427 0.0
C694 C 0.4647 0.82275 0.79708 0.0
C695 C 0.45083 0.81059 0.82333 0.0
C696 C 0.45935 0.79622 0.84072 0.0
H697 H 0.28412 0.75599 0.83344 0.0
H698 H 0.32768 0.75955 0.83673 0.0
C699 C 0.4807 0.79333 0.83149 0.0
C700 C 0.42538 0.80974 0.8299 0.0
H701 H 0.38885 0.81769 0.88422 0.0
C702 C 0.40656 0.80157 0.80704 0.0
C703 C 0.41916 0.81613 0.858 0.0
C704 C 0.43884 0.82623 0.88314 0.0
C705 C 0.38183 0.79953 0.81137 0.0
C706 C 0.37516 0.80481 0.83974 0.0
C707 C 0.39395 0.81332 0.86263 0.0
C708 C 0.34869 0.80167 0.84537 0.0
C709 C 0.36316 0.79201 0.78528 0.0
C710 C 0.34592 0.82381 0.85145 0.0
C711 C 0.32087 0.8217 0.8502 0.0
C712 C 0.29856 0.79751 0.84241 0.0
C713 C 0.30116 0.77498 0.83888 0.0
C714 C 0.32598 0.77697 0.84077 0.0
H715 H 0.37384 0.79573 0.76381 0.0
H716 H 0.34841 0.77057 0.7865 0.0
H717 H 0.35232 0.80321 0.78543 0.0
H718 H 0.36325 0.843 0.85525 0.0
H719 H 0.31925 0.83928 0.85322 0.0
H720 H 0.1635 0.49874 0.79361 0.0
H721 H 0.15965 0.53804 0.80326 0.0
H722 H 0.20373 0.55176 0.88449 0.0
H723 H 0.20732 0.51204 0.87494 0.0
H724 H 0.1421 0.55756 0.85635 0.0
H725 H 0.24912 0.61566 0.8252 0.0
H726 H 0.22935 0.58086 0.81683 0.0
H727 H 0.23921 0.59136 0.85432 0.0
C728 C 0.17163 0.50974 0.81394 0.0
C729 C 0.18545 0.50248 0.83371 0.0
C730 C 0.16939 0.53206 0.81948 0.0
C731 C 0.18142 0.54771 0.84454 0.0
C732 C 0.19418 0.53977 0.86514 0.0
H733 H 0.18464 0.70113 0.85081 0.0
H734 H 0.17797 0.65844 0.86867 0.0
C735 C 0.1961 0.51712 0.85978 0.0
C736 C 0.18354 0.57397 0.84632 0.0
H737 H 0.22534 0.63824 0.82683 0.0
C738 C 0.16039 0.57541 0.85065 0.0
C739 C 0.20747 0.59704 0.83864 0.0
C740 C 0.23277 0.59639 0.83333 0.0
C741 C 0.16026 0.59917 0.84587 0.0
C742 C 0.18383 0.62179 0.83647 0.0
C743 C 0.2073 0.62071 0.83393 0.0
C744 C 0.18414 0.64589 0.82572 0.0
C745 C 0.13469 0.59962 0.84906 0.0
C746 C 0.1892 0.65255 0.79562 0.0
C747 C 0.19307 0.67679 0.7854 0.0
C748 C 0.19199 0.69484 0.80515 0.0
C749 C 0.18538 0.68751 0.83504 0.0
C750 C 0.18163 0.66319 0.8453 0.0
H751 H 0.11761 0.57973 0.85412 0.0
H752 H 0.13667 0.6133 0.86726 0.0
H753 H 0.13043 0.60714 0.82835 0.0
H754 H 0.19111 0.63935 0.78018 0.0
H755 H 0.19802 0.68183 0.76225 0.0
H756 H 0.28265 0.5087 0.84705 0.0
H757 H 0.32537 0.54482 0.86438 0.0
H758 H 0.3604 0.54601 0.77958 0.0
H759 H 0.31731 0.51117 0.76161 0.0
H760 H 0.37748 0.55877 0.87046 0.0
H761 H 0.36528 0.61728 0.7813 0.0
H762 H 0.33956 0.58431 0.79074 0.0
H763 H 0.36653 0.58929 0.76686 0.0
C764 C 0.29968 0.51631 0.83242 0.0
C765 C 0.29684 0.50765 0.8029 0.0
C766 C 0.32404 0.53688 0.84234 0.0
C767 C 0.3458 0.54857 0.82294 0.0
C768 C 0.3436 0.53775 0.79456 0.0
H769 H 0.50685 0.67314 0.84501 0.0
H770 H 0.46576 0.63067 0.85131 0.0
C771 C 0.31911 0.51783 0.78436 0.0
C772 C 0.36945 0.57408 0.83069 0.0
H773 H 0.40678 0.63729 0.80559 0.0
C774 C 0.3839 0.57605 0.85644 0.0
C775 C 0.3772 0.59682 0.81293 0.0
C776 C 0.36116 0.59695 0.78663 0.0
C777 C 0.40659 0.60002 0.86423 0.0
C778 C 0.41522 0.62221 0.84533 0.0
C779 C 0.40028 0.62027 0.82008 0.0
C780 C 0.44002 0.64765 0.85007 0.0
C781 C 0.42081 0.60146 0.8927 0.0
C782 C 0.43931 0.67135 0.8482 0.0
C783 C 0.46254 0.69527 0.8435 0.0
C784 C 0.48694 0.69601 0.84144 0.0
C785 C 0.48814 0.67288 0.84652 0.0
C786 C 0.4647 0.64868 0.85041 0.0
H787 H 0.40726 0.58644 0.90896 0.0
H788 H 0.43715 0.59738 0.88792 0.0
H789 H 0.42944 0.62138 0.90294 0.0
H790 H 0.42054 0.67106 0.84808 0.0
H791 H 0.46129 0.71303 0.84001 0.0
H792 H 0.8273 0.9907 0.62491 0.0
H793 H 0.83554 0.95343 0.62517 0.0
H794 H 0.87832 0.98116 0.70748 0.0
H795 H 0.87069 0.01871 0.70711 0.0
H796 H 0.90565 0.97023 0.66731 0.0
H797 H 0.80304 0.88596 0.67415 0.0
H798 H 0.80732 0.90812 0.64428 0.0
H799 H 0.81131 0.91961 0.68198 0.0
C800 C 0.83818 0.9887 0.64326 0.0
C801 C 0.84824 0.00766 0.66603 0.0
C802 C 0.84271 0.96726 0.64349 0.0
C803 C 0.85713 0.96422 0.66664 0.0
C804 C 0.86696 0.98298 0.68953 0.0
H805 H 0.88251 0.82692 0.67742 0.0
H806 H 0.86795 0.85884 0.68986 0.0
C807 C 0.86254 0.00444 0.68927 0.0
C808 C 0.86365 0.94264 0.6658 0.0
H809 H 0.83638 0.87573 0.658 0.0
C810 C 0.89047 0.94955 0.66566 0.0
C811 C 0.84388 0.9156 0.66426 0.0
C812 C 0.81477 0.90682 0.6665 0.0
C813 C 0.89805 0.9303 0.66249 0.0
C814 C 0.87831 0.90349 0.65873 0.0
C815 C 0.85148 0.89635 0.66045 0.0
C816 C 0.88537 0.88308 0.65083 0.0
C817 C 0.9272 0.93891 0.66285 0.0
C818 C 0.89918 0.88572 0.62441 0.0
C819 C 0.90754 0.86776 0.61738 0.0
C820 C 0.90199 0.84652 0.63646 0.0
C821 C 0.88707 0.84311 0.66232 0.0
C822 C 0.87881 0.86132 0.66946 0.0
H823 H 0.93894 0.95803 0.67468 0.0
H824 H 0.93071 0.92378 0.67361 0.0
H825 H 0.93464 0.9417 0.63971 0.0
H826 H 0.90387 0.90199 0.60937 0.0
H827 H 0.91866 0.87074 0.59709 0.0
H828 H 0.10843 0.07246 0.64526 0.0
H829 H 0.07825 0.02618 0.6577 0.0
H830 H 0.14421 0.01192 0.66161 0.0
H831 H 0.17478 0.05868 0.64993 0.0
H832 H 0.07168 0.98589 0.62219 0.0
H833 H 0.10179 0.97318 0.73528 0.0
H834 H 0.11209 0.00535 0.7194 0.0
H835 H 0.12809 0.98712 0.70839 0.0
C836 C 0.11655 0.05954 0.64913 0.0
C837 C 0.14385 0.06898 0.64638 0.0
C838 C 0.09932 0.03317 0.65633 0.0
C839 C 0.10901 0.01569 0.6607 0.0
C840 C 0.1364 0.02522 0.65888 0.0
H841 H 0.01257 0.84498 0.64483 0.0
H842 H 0.05011 0.89032 0.6454 0.0
C843 C 0.15379 0.05183 0.65204 0.0
C844 C 0.08998 0.98714 0.66416 0.0
H845 H 0.06921 0.93429 0.71096 0.0
C846 C 0.07119 0.97463 0.6416 0.0
C847 C 0.08945 0.97255 0.6895 0.0
C848 C 0.10878 0.98522 0.71468 0.0
C849 C 0.05165 0.94799 0.64383 0.0
C850 C 0.05109 0.93347 0.66911 0.0
C851 C 0.06996 0.9457 0.69159 0.0
C852 C 0.03022 0.90569 0.67254 0.0
C853 C 0.03131 0.93554 0.61949 0.0
C854 C 0.00698 0.89956 0.68806 0.0
C855 C 0.98552 0.87379 0.68772 0.0
C856 C 0.98703 0.8539 0.67167 0.0
C857 C 0.01077 0.85998 0.65708 0.0
C858 C 0.03225 0.88574 0.65757 0.0
H859 H 0.03397 0.94991 0.60174 0.0
H860 H 0.03274 0.91893 0.6094 0.0
H861 H 0.01106 0.92725 0.62891 0.0
H862 H 0.00512 0.91492 0.69945 0.0
H863 H 0.96747 0.86968 0.69915 0.0
H864 H 0.92538 0.04962 0.64132 0.0
H865 H 0.97177 0.06522 0.65292 0.0
H866 H 0.98516 0.14441 0.66505 0.0
H867 H 0.93825 0.12865 0.65417 0.0
H868 H 0.01232 0.10096 0.61964 0.0
H869 H 0.02394 0.13632 0.73598 0.0
H870 H 0.9919 0.11548 0.71932 0.0
H871 H 0.00998 0.15033 0.71127 0.0
C872 C 0.93812 0.07031 0.6468 0.0
C873 C 0.92834 0.08801 0.64659 0.0
C874 C 0.96459 0.07917 0.65351 0.0
C875 C 0.98191 0.10594 0.65996 0.0
C876 C 0.97204 0.12358 0.66068 0.0
H877 H 0.15243 0.17869 0.63652 0.0
H878 H 0.10666 0.16993 0.63685 0.0
C879 C 0.94532 0.11461 0.6543 0.0
C880 C 0.01061 0.11544 0.66307 0.0
H881 H 0.06336 0.14543 0.71029 0.0
C882 C 0.02346 0.11071 0.63947 0.0
C883 C 0.02504 0.12799 0.68904 0.0
C884 C 0.01202 0.13266 0.71548 0.0
C885 C 0.05028 0.11806 0.64112 0.0
C886 C 0.06481 0.13099 0.66682 0.0
C887 C 0.05211 0.13576 0.69051 0.0
C888 C 0.09302 0.13866 0.66955 0.0
C889 C 0.06279 0.11135 0.61568 0.0
C890 C 0.10049 0.12443 0.68848 0.0
C891 C 0.12656 0.12935 0.68836 0.0
C892 C 0.14555 0.14858 0.66925 0.0
C893 C 0.13821 0.16358 0.65126 0.0
C894 C 0.11213 0.15866 0.65146 0.0
H895 H 0.04777 0.09743 0.59973 0.0
H896 H 0.07654 0.12975 0.60356 0.0
H897 H 0.07448 0.10238 0.62407 0.0
H898 H 0.08591 0.10883 0.70249 0.0
H899 H 0.13157 0.11745 0.70251 0.0
H900 H 0.15093 0.1465 0.09602 0.0
H901 H 0.117 0.15647 0.11322 0.0
H902 H 0.11263 0.11814 0.19673 0.0
H903 H 0.14787 0.10989 0.18028 0.0
H904 H 0.07001 0.11915 0.12176 0.0
H905 H 0.10154 0.1758 0.22652 0.0
H906 H 0.12451 0.17222 0.20269 0.0
H907 H 0.10399 0.14637 0.22846 0.0
C908 C 0.14336 0.14113 0.11843 0.0
C909 C 0.15186 0.12747 0.13685 0.0
C910 C 0.12399 0.14677 0.12826 0.0
C911 C 0.11222 0.13813 0.15634 0.0
C912 C 0.12178 0.12567 0.17535 0.0
H913 H 0.94658 0.08814 0.17105 0.0
H914 H 0.98931 0.08999 0.17628 0.0
C915 C 0.1418 0.12077 0.16583 0.0
C916 C 0.0873 0.13812 0.16334 0.0
H917 H 0.05462 0.15311 0.21613 0.0
C918 C 0.0669 0.12695 0.14227 0.0
C919 C 0.08306 0.14812 0.19016 0.0
C920 C 0.10456 0.16153 0.21309 0.0
C921 C 0.04252 0.12556 0.14703 0.0
C922 C 0.03779 0.13445 0.17435 0.0
C923 C 0.05817 0.14588 0.19546 0.0
C924 C 0.01194 0.13266 0.18036 0.0
C925 C 0.02231 0.11504 0.12231 0.0
C926 C 0.01031 0.15577 0.18386 0.0
C927 C 0.98574 0.15461 0.1819 0.0
C928 C 0.96281 0.1304 0.17587 0.0
C929 C 0.96418 0.10706 0.17525 0.0
C930 C 0.98853 0.10812 0.17815 0.0
H931 H 0.03172 0.11634 0.10045 0.0
H932 H 0.00784 0.09387 0.12656 0.0
H933 H 0.01136 0.12609 0.12087 0.0
H934 H 0.02816 0.17487 0.18589 0.0
H935 H 0.98497 0.17281 0.18259 0.0
H936 H 0.81534 0.83021 0.14738 0.0
H937 H 0.81953 0.87397 0.15028 0.0
H938 H 0.88715 0.90041 0.20797 0.0
H939 H 0.88311 0.85647 0.20523 0.0
H940 H 0.82197 0.90594 0.20337 0.0
H941 H 0.91243 0.94986 0.13194 0.0
H942 H 0.89017 0.91456 0.13363 0.0
H943 H 0.91144 0.93135 0.1644 0.0
C944 C 0.831 0.84526 0.16085 0.0
C945 C 0.84905 0.84005 0.17583 0.0
C946 C 0.83325 0.87015 0.16264 0.0
C947 C 0.85368 0.89029 0.17923 0.0
C948 C 0.8713 0.88503 0.19501 0.0
H949 H 0.8624 0.04571 0.17965 0.0
H950 H 0.85957 0.00503 0.19852 0.0
C951 C 0.86893 0.85997 0.19343 0.0
C952 C 0.85728 0.91713 0.17785 0.0
H953 H 0.89256 0.97559 0.14095 0.0
C954 C 0.83763 0.92145 0.1902 0.0
C955 C 0.87778 0.93709 0.16062 0.0
C956 C 0.89919 0.93317 0.14671 0.0
C957 C 0.83709 0.94484 0.18435 0.0
C958 C 0.8568 0.96421 0.16578 0.0
C959 C 0.87733 0.96048 0.15492 0.0
C960 C 0.8555 0.98751 0.15517 0.0
C961 C 0.81472 0.94799 0.19673 0.0
C962 C 0.85378 0.99093 0.1246 0.0
C963 C 0.85568 0.01421 0.11373 0.0
C964 C 0.85915 0.03438 0.13331 0.0
C965 C 0.85933 0.03031 0.16406 0.0
C966 C 0.85778 0.00711 0.1749 0.0
H967 H 0.79854 0.92915 0.206 0.0
H968 H 0.82244 0.96286 0.21482 0.0
H969 H 0.80633 0.95519 0.17935 0.0
H970 H 0.8519 0.97592 0.10905 0.0
H971 H 0.85553 0.01687 0.08997 0.0
H972 H 0.14871 0.01529 0.21229 0.0
H973 H 0.10657 0.97395 0.2207 0.0
H974 H 0.0919 0.96653 0.12653 0.0
H975 H 0.13337 0.00767 0.11805 0.0
H976 H 0.05461 0.96822 0.19659 0.0
H977 H 0.07703 0.89102 0.15818 0.0
H978 H 0.10205 0.92255 0.17292 0.0
H979 H 0.09063 0.92031 0.13547 0.0
C980 C 0.13668 0.00451 0.19342 0.0
C981 C 0.14425 0.01466 0.16454 0.0
C982 C 0.11268 0.98101 0.19825 0.0
C983 C 0.09639 0.96714 0.17417 0.0
C984 C 0.10442 0.9768 0.14533 0.0
H985 H 0.94372 0.8801 0.11354 0.0
H986 H 0.9892 0.91024 0.12906 0.0
C987 C 0.12803 0.00038 0.14055 0.0
C988 C 0.06967 0.94405 0.17863 0.0
H989 H 0.03124 0.87986 0.15667 0.0
C990 C 0.04952 0.94865 0.18873 0.0
C991 C 0.06319 0.91862 0.1684 0.0
C992 C 0.08437 0.91265 0.15834 0.0
C993 C 0.02278 0.92899 0.18655 0.0
C994 C 0.01619 0.90426 0.17396 0.0
C995 C 0.03641 0.89893 0.16616 0.0
C996 C 0.9887 0.88537 0.16498 0.0
C997 C 0.00163 0.9352 0.19612 0.0
C998 C 0.97362 0.86116 0.17974 0.0
C999 C 0.94749 0.84376 0.17085 0.0
C1000 C 0.93624 0.85039 0.14705 0.0
C1001 C 0.95166 0.87453 0.13216 0.0
C1002 C 0.97765 0.89178 0.14098 0.0
H1003 H 0.00964 0.95251 0.21127 0.0
H1004 H 0.99344 0.93987 0.17626 0.0
H1005 H 0.98508 0.91787 0.20739 0.0
H1006 H 0.98194 0.85591 0.19826 0.0
H1007 H 0.93605 0.8253 0.18277 0.0
H1008 H 0.52379 0.12866 0.36918 0.0
H1009 H 0.52883 0.13586 0.3155 0.0
H1010 H 0.57556 0.0972 0.31184 0.0
H1011 H 0.57095 0.09023 0.36548 0.0
H1012 H 0.59921 0.14836 0.28462 0.0
H1013 H 0.49561 0.08211 0.24656 0.0
H1014 H 0.50028 0.10449 0.2764 0.0
H1015 H 0.50733 0.07816 0.28222 0.0
C1016 C 0.53472 0.12125 0.35687 0.0
C1017 C 0.54701 0.10889 0.37154 0.0
C1018 C 0.53757 0.12539 0.32622 0.0
C1019 C 0.55249 0.11697 0.30978 0.0
C1020 C 0.56403 0.10389 0.32423 0.0
H1021 H 0.56782 0.09458 0.12602 0.0
H1022 H 0.558 0.09198 0.17894 0.0
C1023 C 0.56132 0.09986 0.35483 0.0
C1024 C 0.55734 0.12288 0.27776 0.0
H1025 H 0.52732 0.10698 0.21006 0.0
C1026 C 0.58352 0.13946 0.26825 0.0
C1027 C 0.53675 0.11124 0.25665 0.0
C1028 C 0.50839 0.09286 0.26578 0.0
C1029 C 0.58984 0.14413 0.23802 0.0
C1030 C 0.56929 0.13216 0.21681 0.0
C1031 C 0.543 0.11616 0.22641 0.0
C1032 C 0.57484 0.13424 0.18458 0.0
C1033 C 0.61856 0.16094 0.22909 0.0
C1034 C 0.58736 0.15887 0.17014 0.0
C1035 C 0.5933 0.16046 0.13989 0.0
C1036 C 0.58639 0.13738 0.12354 0.0
C1037 C 0.57332 0.11272 0.13796 0.0
C1038 C 0.56766 0.11119 0.1682 0.0
H1039 H 0.63222 0.16365 0.24766 0.0
H1040 H 0.62339 0.15199 0.21007 0.0
H1041 H 0.62231 0.18081 0.22221 0.0
H1042 H 0.59257 0.17686 0.18224 0.0
H1043 H 0.6032 0.17972 0.12931 0.0
H1044 H 0.91678 0.46206 0.3617 0.0
H1045 H 0.90839 0.46365 0.30892 0.0
H1046 H 0.83076 0.395 0.31852 0.0
H1047 H 0.83891 0.39309 0.37168 0.0
H1048 H 0.88587 0.41173 0.26566 0.0
H1049 H 0.82815 0.46407 0.27844 0.0
H1050 H 0.85349 0.46909 0.30498 0.0
H1051 H 0.82332 0.43792 0.30364 0.0
C1052 C 0.89794 0.44716 0.35267 0.0
C1053 C 0.87851 0.42742 0.3709 0.0
C1054 C 0.89322 0.44815 0.32252 0.0
C1055 C 0.86897 0.42953 0.31008 0.0
C1056 C 0.84956 0.40957 0.32795 0.0
H1057 H 0.82178 0.44307 0.12954 0.0
H1058 H 0.82034 0.4301 0.18147 0.0
C1059 C 0.8543 0.40849 0.35821 0.0
C1060 C 0.86431 0.4313 0.27827 0.0
H1061 H 0.84027 0.45929 0.23002 0.0
C1062 C 0.87563 0.42181 0.25773 0.0
C1063 C 0.85073 0.44425 0.26826 0.0
C1064 C 0.83814 0.4545 0.28982 0.0
C1065 C 0.87432 0.42555 0.22719 0.0
C1066 C 0.86209 0.43992 0.21714 0.0
C1067 C 0.84983 0.44847 0.23775 0.0
C1068 C 0.86286 0.44732 0.18555 0.0
C1069 C 0.88607 0.41406 0.20609 0.0
C1070 C 0.88725 0.46167 0.17076 0.0
C1071 C 0.8881 0.46875 0.14104 0.0
C1072 C 0.86459 0.46216 0.12576 0.0
C1073 C 0.84022 0.44837 0.14077 0.0
C1074 C 0.83936 0.44094 0.1704 0.0
H1075 H 0.88614 0.39662 0.21596 0.0
H1076 H 0.87497 0.40797 0.18486 0.0
H1077 H 0.90695 0.42918 0.20127 0.0
H1078 H 0.9057 0.46761 0.18228 0.0
H1079 H 0.9072 0.47975 0.13018 0.0
H1080 H 0.58963 0.44874 0.36914 0.0
H1081 H 0.59111 0.44307 0.31543 0.0
H1082 H 0.51507 0.43817 0.30617 0.0
H1083 H 0.51319 0.44353 0.35987 0.0
H1084 H 0.5359 0.39285 0.28266 0.0
H1085 H 0.58083 0.49715 0.24344 0.0
H1086 H 0.58947 0.48885 0.27879 0.0
H1087 H 0.55768 0.48621 0.27401 0.0
C1088 C 0.57339 0.44685 0.35564 0.0
C1089 C 0.55122 0.44649 0.36875 0.0
C1090 C 0.57426 0.44354 0.32502 0.0
C1091 C 0.55319 0.44019 0.30704 0.0
C1092 C 0.53149 0.44073 0.31983 0.0
H1093 H 0.50653 0.42454 0.12691 0.0
H1094 H 0.51744 0.43482 0.17911 0.0
C1095 C 0.53046 0.44378 0.35046 0.0
C1096 C 0.55296 0.43463 0.27507 0.0
H1097 H 0.5643 0.46373 0.20694 0.0
C1098 C 0.54236 0.40828 0.26598 0.0
C1099 C 0.56143 0.45491 0.25366 0.0
C1100 C 0.57311 0.48346 0.26272 0.0
C1101 C 0.53892 0.40148 0.23578 0.0
C1102 C 0.5468 0.42173 0.21419 0.0
C1103 C 0.55828 0.44822 0.22346 0.0
C1104 C 0.54117 0.41577 0.18212 0.0
C1105 C 0.52569 0.37259 0.22741 0.0
C1106 C 0.55113 0.40186 0.16623 0.0
C1107 C 0.54466 0.39566 0.13626 0.0
C1108 C 0.52845 0.40363 0.12158 0.0
C1109 C 0.5191 0.41812 0.13744 0.0
C1110 C 0.52535 0.42406 0.16734 0.0
H1111 H 0.51547 0.35943 0.24661 0.0
H1112 H 0.51097 0.36797 0.20945 0.0
H1113 H 0.54092 0.36796 0.21926 0.0
H1114 H 0.56385 0.39576 0.17699 0.0
H1115 H 0.55233 0.38463 0.12463 0.0
H1116 H 0.8497 0.47404 0.86734 0.0
H1117 H 0.84154 0.46227 0.81444 0.0
H1118 H 0.89255 0.4284 0.81894 0.0
H1119 H 0.90111 0.44029 0.87119 0.0
H1120 H 0.88937 0.47934 0.76977 0.0
H1121 H 0.8179 0.37147 0.77828 0.0
H1122 H 0.82097 0.39477 0.80666 0.0
H1123 H 0.84552 0.38483 0.80352 0.0
C1124 C 0.85907 0.464 0.85703 0.0
C1125 C 0.87621 0.45829 0.87338 0.0
C1126 C 0.85434 0.45726 0.82692 0.0
C1127 C 0.86628 0.44428 0.81303 0.0
C1128 C 0.88297 0.43819 0.82942 0.0
H1129 H 0.88434 0.3801 0.65164 0.0
H1130 H 0.87838 0.3913 0.70228 0.0
C1131 C 0.88797 0.44518 0.85924 0.0
C1132 C 0.86313 0.43856 0.78091 0.0
H1133 H 0.83884 0.38746 0.73165 0.0
C1134 C 0.87799 0.45936 0.76118 0.0
C1135 C 0.84847 0.41243 0.77012 0.0
C1136 C 0.83212 0.38951 0.79064 0.0
C1137 C 0.87994 0.45457 0.73101 0.0
C1138 C 0.86577 0.42824 0.72015 0.0
C1139 C 0.8498 0.4076 0.73984 0.0
C1140 C 0.86877 0.42134 0.68913 0.0
C1141 C 0.89853 0.47763 0.71172 0.0
C1142 C 0.86516 0.43424 0.66473 0.0
C1143 C 0.8696 0.42855 0.63585 0.0
C1144 C 0.87661 0.40906 0.63083 0.0
C1145 C 0.87909 0.39533 0.65504 0.0
C1146 C 0.87554 0.40164 0.68393 0.0
H1147 H 0.91319 0.49464 0.72513 0.0
H1148 H 0.90954 0.47192 0.69604 0.0
H1149 H 0.8869 0.48451 0.69875 0.0
H1150 H 0.85892 0.44873 0.66794 0.0
H1151 H 0.86698 0.43895 0.6174 0.0
H1152 H 0.58556 0.50136 0.62891 0.0
H1153 H 0.57657 0.49269 0.6817 0.0
H1154 H 0.56677 0.41482 0.67047 0.0
H1155 H 0.5761 0.42343 0.61728 0.0
H1156 H 0.5295 0.45189 0.70595 0.0
H1157 H 0.6176 0.44539 0.74203 0.0
H1158 H 0.61657 0.46003 0.7071 0.0
H1159 H 0.59913 0.4247 0.71136 0.0
C1160 C 0.58165 0.4824 0.63757 0.0
C1161 C 0.58139 0.46301 0.6188 0.0
C1162 C 0.57653 0.47751 0.6678 0.0
C1163 C 0.57115 0.45319 0.67999 0.0
C1164 C 0.57123 0.43386 0.66152 0.0
H1165 H 0.52391 0.40066 0.8636 0.0
H1166 H 0.52944 0.40036 0.8097 0.0
C1167 C 0.5764 0.43875 0.63113 0.0
C1168 C 0.56413 0.44796 0.7118 0.0
H1169 H 0.58578 0.43861 0.77868 0.0
C1170 C 0.54171 0.4488 0.72182 0.0
C1171 C 0.58011 0.44391 0.73239 0.0
C1172 C 0.60483 0.44362 0.72286 0.0
C1173 C 0.53511 0.44624 0.752 0.0
C1174 C 0.55139 0.44283 0.77259 0.0
C1175 C 0.57337 0.44118 0.76262 0.0
C1176 C 0.5468 0.4427 0.80476 0.0
C1177 C 0.51106 0.44762 0.76189 0.0
C1178 C 0.55445 0.46661 0.8195 0.0
C1179 C 0.55144 0.4669 0.85018 0.0
C1180 C 0.54055 0.44323 0.86656 0.0
C1181 C 0.53212 0.41919 0.85154 0.0
C1182 C 0.53543 0.41897 0.82085 0.0
H1183 H 0.49832 0.44639 0.74292 0.0
H1184 H 0.49909 0.43133 0.7777 0.0
H1185 H 0.51756 0.46662 0.77362 0.0
H1186 H 0.56327 0.4851 0.8073 0.0
H1187 H 0.55813 0.48571 0.86115 0.0
H1188 H 0.52704 0.11604 0.87567 0.0
H1189 H 0.52398 0.12168 0.82234 0.0
H1190 H 0.6063 0.14452 0.81187 0.0
H1191 H 0.60973 0.13914 0.86538 0.0
H1192 H 0.56604 0.17417 0.78483 0.0
H1193 H 0.55331 0.07552 0.75557 0.0
H1194 H 0.54288 0.08136 0.79115 0.0
H1195 H 0.5775 0.09577 0.78302 0.0
C1196 C 0.54454 0.12229 0.86208 0.0
C1197 C 0.56862 0.12703 0.87471 0.0
C1198 C 0.54275 0.1256 0.83167 0.0
C1199 C 0.56491 0.13349 0.81338 0.0
C1200 C 0.58903 0.13844 0.8258 0.0
H1201 H 0.56241 0.12433 0.62042 0.0
H1202 H 0.57713 0.12999 0.67214 0.0
C1203 C 0.59092 0.13532 0.8563 0.0
C1204 C 0.56245 0.13572 0.78111 0.0
H1205 H 0.55078 0.10103 0.71683 0.0
C1206 C 0.56293 0.15836 0.76979 0.0
C1207 C 0.55859 0.11509 0.76181 0.0
C1208 C 0.55794 0.09044 0.77328 0.0
C1209 C 0.55943 0.16082 0.73938 0.0
C1210 C 0.55451 0.13967 0.72006 0.0
C1211 C 0.5546 0.11727 0.73152 0.0
C1212 C 0.5478 0.13953 0.68827 0.0
C1213 C 0.5613 0.18617 0.72839 0.0
C1214 C 0.52665 0.14331 0.68001 0.0
C1215 C 0.51866 0.1407 0.65045 0.0
C1216 C 0.53112 0.13344 0.62866 0.0
C1217 C 0.55246 0.12993 0.63678 0.0
C1218 C 0.56084 0.13313 0.66631 0.0
H1219 H 0.57435 0.20313 0.74288 0.0
H1220 H 0.56905 0.19084 0.70535 0.0
H1221 H 0.54129 0.18413 0.72889 0.0
H1222 H 0.51562 0.14731 0.69656 0.0
H1223 H 0.50188 0.14314 0.64493 0.0
H1224 H 0.29627 0.49338 0.46574 0.0
H1225 H 0.28442 0.4954 0.5174 0.0
H1226 H 0.20384 0.4348 0.49998 0.0
H1227 H 0.21538 0.43256 0.44833 0.0
H1228 H 0.23815 0.49944 0.54761 0.0
H1229 H 0.23955 0.40498 0.56079 0.0
H1230 H 0.25551 0.42716 0.53001 0.0
H1231 H 0.22008 0.40688 0.5309 0.0
C1232 C 0.27591 0.48083 0.47272 0.0
C1233 C 0.25688 0.46245 0.45308 0.0
C1234 C 0.26915 0.48216 0.50218 0.0
C1235 C 0.24334 0.46511 0.51238 0.0
C1236 C 0.22388 0.44806 0.49239 0.0
H1237 H 0.1854 0.43755 0.69608 0.0
H1238 H 0.18744 0.44376 0.64197 0.0
C1239 C 0.23057 0.44676 0.46294 0.0
C1240 C 0.23781 0.4624 0.54451 0.0
H1241 H 0.23054 0.42236 0.60322 0.0
C1242 C 0.23619 0.48251 0.55982 0.0
C1243 C 0.23555 0.44036 0.56022 0.0
C1244 C 0.2379 0.41861 0.54482 0.0
C1245 C 0.23251 0.48111 0.59073 0.0
C1246 C 0.23062 0.45921 0.60634 0.0
C1247 C 0.23187 0.43901 0.59096 0.0
C1248 C 0.22945 0.45761 0.63895 0.0
C1249 C 0.23146 0.50325 0.60677 0.0
C1250 C 0.25233 0.46302 0.65476 0.0
C1251 C 0.25114 0.45904 0.68534 0.0
C1252 C 0.22705 0.44971 0.7006 0.0
C1253 C 0.20419 0.44467 0.68476 0.0
C1254 C 0.20535 0.4484 0.65402 0.0
H1255 H 0.233 0.51885 0.59136 0.0
H1256 H 0.21257 0.49521 0.61934 0.0
H1257 H 0.2479 0.51237 0.62307 0.0
H1258 H 0.27106 0.47005 0.64333 0.0
H1259 H 0.26916 0.4636 0.69707 0.0
H1260 H 0.53625 0.77067 0.4445 0.0
H1261 H 0.53115 0.75449 0.49567 0.0
H1262 H 0.5234 0.82069 0.52554 0.0
H1263 H 0.52694 0.83592 0.47452 0.0
H1264 H 0.56183 0.7758 0.53998 0.0
H1265 H 0.46571 0.76485 0.57278 0.0
H1266 H 0.47639 0.76961 0.53458 0.0
H1267 H 0.48645 0.79765 0.55886 0.0
C1268 C 0.53297 0.78143 0.46202 0.0
C1269 C 0.53183 0.80444 0.45559 0.0
C1270 C 0.53003 0.77218 0.49122 0.0
C1271 C 0.52629 0.786 0.51454 0.0
C1272 C 0.52518 0.80902 0.50797 0.0
H1273 H 0.57071 0.82287 0.69057 0.0
H1274 H 0.56265 0.81749 0.63718 0.0
C1275 C 0.52748 0.81789 0.47877 0.0
C1276 C 0.52621 0.77811 0.54594 0.0
H1277 H 0.49724 0.77396 0.61319 0.0
C1278 C 0.54729 0.77474 0.5558 0.0
C1279 C 0.50704 0.77621 0.56674 0.0
C1280 C 0.4825 0.77697 0.55755 0.0
C1281 C 0.5508 0.77168 0.58605 0.0
C1282 C 0.5331 0.77241 0.60687 0.0
C1283 C 0.51103 0.77386 0.59704 0.0
C1284 C 0.53892 0.77483 0.63893 0.0
C1285 C 0.57405 0.76889 0.59586 0.0
C1286 C 0.52844 0.75249 0.65736 0.0
C1287 C 0.53311 0.75546 0.68796 0.0
C1288 C 0.54815 0.78085 0.7005 0.0
C1289 C 0.55903 0.80306 0.6817 0.0
C1290 C 0.55444 0.80005 0.6512 0.0
H1291 H 0.58439 0.76583 0.57686 0.0
H1292 H 0.5884 0.78702 0.60794 0.0
H1293 H 0.56726 0.75193 0.61142 0.0
H1294 H 0.51641 0.73287 0.64814 0.0
H1295 H 0.52441 0.73793 0.70183 0.0
H1296 H 0.25241 0.78808 0.70968 0.0
H1297 H 0.25733 0.78556 0.65599 0.0
H1298 H 0.17445 0.75966 0.64403 0.0
H1299 H 0.16918 0.76194 0.69768 0.0
H1300 H 0.20826 0.72819 0.62011 0.0
H1301 H 0.23644 0.83084 0.5857 0.0
H1302 H 0.24717 0.82427 0.62071 0.0
H1303 H 0.2131 0.81499 0.61561 0.0
C1304 C 0.2353 0.78223 0.69561 0.0
C1305 C 0.21035 0.77509 0.70789 0.0
C1306 C 0.23817 0.78072 0.66502 0.0
C1307 C 0.21622 0.77236 0.64633 0.0
C1308 C 0.19154 0.76609 0.65832 0.0
H1309 H 0.18147 0.75992 0.46226 0.0
H1310 H 0.18637 0.76727 0.51566 0.0
C1311 C 0.18859 0.76741 0.68889 0.0
C1312 C 0.21858 0.76885 0.61436 0.0
H1313 H 0.22863 0.80007 0.54777 0.0
C1314 C 0.21294 0.74388 0.60416 0.0
C1315 C 0.22467 0.78945 0.59398 0.0
C1316 C 0.23077 0.81651 0.60431 0.0
C1317 C 0.21226 0.73862 0.57371 0.0
C1318 C 0.21789 0.75915 0.55313 0.0
C1319 C 0.22433 0.78438 0.56356 0.0
C1320 C 0.21533 0.75452 0.52071 0.0
C1321 C 0.20434 0.71087 0.56395 0.0
C1322 C 0.23009 0.74501 0.50575 0.0
C1323 C 0.22697 0.74036 0.47521 0.0
C1324 C 0.20954 0.74577 0.4591 0.0
C1325 C 0.19521 0.75577 0.47405 0.0
C1326 C 0.19799 0.75997 0.50457 0.0
H1327 H 0.19444 0.69622 0.58206 0.0
H1328 H 0.19075 0.70482 0.54463 0.0
H1329 H 0.22234 0.71015 0.55733 0.0
H1330 H 0.24407 0.74129 0.51763 0.0
H1331 H 0.23839 0.73281 0.46416 0.0
H1332 H 0.49408 0.72251 0.95152 0.0
H1333 H 0.49106 0.73245 0.00368 0.0
H1334 H 0.57641 0.77478 0.00975 0.0
H1335 H 0.57961 0.76551 0.95768 0.0
H1336 H 0.50776 0.71746 0.0514 0.0
H1337 H 0.55894 0.82665 0.04823 0.0
H1338 H 0.54755 0.8067 0.01509 0.0
H1339 H 0.57887 0.81461 0.03151 0.0
C1340 C 0.5122 0.7342 0.96389 0.0
C1341 C 0.5371 0.74333 0.95042 0.0
C1342 C 0.51044 0.73988 0.99367 0.0
C1343 C 0.53351 0.75482 0.01045 0.0
C1344 C 0.55835 0.76392 0.99702 0.0
H1345 H 0.56597 0.74997 0.19239 0.0
H1346 H 0.55989 0.74654 0.13867 0.0
C1347 C 0.56014 0.75841 0.96727 0.0
C1348 C 0.53188 0.75924 0.04257 0.0
H1349 H 0.55757 0.807 0.09605 0.0
C1350 C 0.5183 0.73708 0.0611 0.0
C1351 C 0.54511 0.78486 0.05524 0.0
C1352 C 0.55817 0.80956 0.03642 0.0
C1353 C 0.5191 0.73975 0.09204 0.0
C1354 C 0.53433 0.76516 0.10472 0.0
C1355 C 0.5464 0.78747 0.08623 0.0
C1356 C 0.53911 0.76866 0.13704 0.0
C1357 C 0.50395 0.7153 0.11095 0.0
C1358 C 0.53044 0.78324 0.15369 0.0
C1359 C 0.53411 0.78545 0.18443 0.0
C1360 C 0.54655 0.77314 0.19893 0.0
C1361 C 0.55609 0.75944 0.18195 0.0
C1362 C 0.55249 0.75732 0.15128 0.0
H1363 H 0.48764 0.69893 0.09831 0.0
H1364 H 0.51762 0.70841 0.11858 0.0
H1365 H 0.49542 0.71958 0.13081 0.0
H1366 H 0.52028 0.79232 0.14301 0.0
H1367 H 0.52651 0.79613 0.1969 0.0
H1368 H 0.22144 0.8122 0.96305 0.0
H1369 H 0.21246 0.7993 0.01514 0.0
H1370 H 0.26547 0.76767 0.01122 0.0
H1371 H 0.27509 0.78109 0.95914 0.0
H1372 H 0.19175 0.75055 0.04215 0.0
H1373 H 0.29465 0.8184 0.08101 0.0
H1374 H 0.28356 0.82076 0.04436 0.0
H1375 H 0.29151 0.79536 0.0527 0.0
C1376 C 0.23115 0.80242 0.97319 0.0
C1377 C 0.24912 0.79782 0.957 0.0
C1378 C 0.22597 0.79504 0.00297 0.0
C1379 C 0.23858 0.78288 0.01716 0.0
C1380 C 0.25595 0.77754 0.00087 0.0
H1381 H 0.20132 0.7222 0.20048 0.0
H1382 H 0.20985 0.72473 0.14688 0.0
C1383 C 0.26131 0.7851 0.97107 0.0
C1384 C 0.23362 0.77622 0.04912 0.0
H1385 H 0.26328 0.79195 0.11718 0.0
C1386 C 0.20743 0.75937 0.05854 0.0
C1387 C 0.25413 0.7879 0.07045 0.0
C1388 C 0.28252 0.80678 0.06177 0.0
C1389 C 0.20111 0.75433 0.08877 0.0
C1390 C 0.22151 0.76637 0.10999 0.0
C1391 C 0.24777 0.78267 0.10066 0.0
C1392 C 0.21565 0.7642 0.14206 0.0
C1393 C 0.17259 0.73709 0.09804 0.0
C1394 C 0.21601 0.78551 0.15681 0.0
C1395 C 0.21108 0.78414 0.18722 0.0
C1396 C 0.20581 0.76142 0.20349 0.0
C1397 C 0.20518 0.73992 0.18854 0.0
C1398 C 0.21009 0.74132 0.158 0.0
H1399 H 0.1589 0.72988 0.07877 0.0
H1400 H 0.17042 0.71973 0.11062 0.0
H1401 H 0.16662 0.74835 0.11299 0.0
H1402 H 0.22021 0.80329 0.14475 0.0
H1403 H 0.21167 0.80102 0.198 0.0
H1404 H 0.2189 0.4428 0.94518 0.0
H1405 H 0.23152 0.4442 0.99713 0.0
H1406 H 0.19256 0.48842 0.01921 0.0
H1407 H 0.18013 0.48748 0.96719 0.0
H1408 H 0.24238 0.50278 0.05215 0.0
H1409 H 0.1671 0.39541 0.05194 0.0
H1410 H 0.19273 0.4061 0.02431 0.0
H1411 H 0.16926 0.41756 0.0227 0.0
C1412 C 0.21344 0.45327 0.96098 0.0
C1413 C 0.19804 0.46454 0.95225 0.0
C1414 C 0.22075 0.45411 0.99059 0.0
C1415 C 0.21256 0.46602 0.01192 0.0
C1416 C 0.19899 0.4791 0.00297 0.0
H1417 H 0.17193 0.42993 0.19426 0.0
H1418 H 0.1746 0.4379 0.14089 0.0
C1419 C 0.19182 0.47843 0.97328 0.0
C1420 C 0.21482 0.46164 0.04376 0.0
H1421 H 0.18951 0.41333 0.09667 0.0
C1422 C 0.23104 0.48324 0.06195 0.0
C1423 C 0.19963 0.43614 0.05636 0.0
C1424 C 0.18101 0.41245 0.03796 0.0
C1425 C 0.23238 0.47994 0.09266 0.0
C1426 C 0.21721 0.45437 0.10515 0.0
C1427 C 0.20122 0.43283 0.08687 0.0
C1428 C 0.21612 0.44963 0.13741 0.0
C1429 C 0.24926 0.50382 0.11165 0.0
C1430 C 0.23847 0.45298 0.1529 0.0
C1431 C 0.23698 0.44826 0.18343 0.0
C1432 C 0.2131 0.44015 0.19886 0.0
C1433 C 0.19061 0.43616 0.18304 0.0
C1434 C 0.19211 0.44081 0.15259 0.0
H1435 H 0.25602 0.52266 0.09937 0.0
H1436 H 0.23812 0.50383 0.13167 0.0
H1437 H 0.26704 0.50309 0.11919 0.0
H1438 H 0.25704 0.4593 0.14139 0.0
H1439 H 0.25468 0.45158 0.19501 0.0
H1440 H 0.96737 0.82334 0.80973 0.0
H1441 H 0.95537 0.82362 0.86168 0.0
H1442 H 0.8725 0.77804 0.83898 0.0
H1443 H 0.88429 0.77718 0.78709 0.0
H1444 H 0.9252 0.84244 0.88863 0.0
H1445 H 0.87942 0.73375 0.90439 0.0
H1446 H 0.89937 0.75068 0.8724 0.0
H1447 H 0.86548 0.74324 0.87455 0.0
C1448 C 0.94658 0.81336 0.81577 0.0
C1449 C 0.9268 0.80003 0.7943 0.0
C1450 C 0.93976 0.8136 0.84546 0.0
C1451 C 0.91306 0.80051 0.85427 0.0
C1452 C 0.89324 0.78778 0.83278 0.0
H1453 H 0.84655 0.7936 0.03143 0.0
H1454 H 0.85359 0.79769 0.97744 0.0
C1455 C 0.90003 0.78741 0.8031 0.0
C1456 C 0.90607 0.79992 0.88601 0.0
H1457 H 0.87653 0.75814 0.94464 0.0
C1458 C 0.91443 0.82401 0.90083 0.0
C1459 C 0.89217 0.77583 0.90195 0.0
C1460 C 0.88377 0.7494 0.88764 0.0
C1461 C 0.90932 0.8246 0.9312 0.0
C1462 C 0.89551 0.80056 0.94697 0.0
C1463 C 0.88686 0.77649 0.9322 0.0
C1464 C 0.89182 0.8 0.9794 0.0
C1465 C 0.91912 0.85081 0.94654 0.0
C1466 C 0.91107 0.80008 0.99808 0.0
C1467 C 0.90707 0.79757 0.0287 0.0
C1468 C 0.88374 0.79501 0.04121 0.0
C1469 C 0.86472 0.79557 0.02244 0.0
C1470 C 0.86869 0.7979 0.99168 0.0
H1471 H 0.92821 0.86775 0.93081 0.0
H1472 H 0.90244 0.85103 0.95828 0.0
H1473 H 0.93409 0.85347 0.96348 0.0
H1474 H 0.92901 0.80164 0.98889 0.0
H1475 H 0.92221 0.79743 0.04253 0.0
H1476 H 0.166 0.14147 0.80189 0.0
H1477 H 0.16745 0.13159 0.85437 0.0
H1478 H 0.22703 0.11025 0.83531 0.0
H1479 H 0.22602 0.12041 0.78284 0.0
H1480 H 0.16083 0.08535 0.88567 0.0
H1481 H 0.26259 0.17214 0.89499 0.0
H1482 H 0.24148 0.16726 0.86354 0.0
H1483 H 0.25818 0.14846 0.86686 0.0
C1484 C 0.17927 0.13447 0.80879 0.0
C1485 C 0.19621 0.13213 0.78827 0.0
C1486 C 0.17997 0.12872 0.83876 0.0
C1487 C 0.19761 0.12056 0.84871 0.0
C1488 C 0.21358 0.11692 0.82809 0.0
H1489 H 0.20936 0.07651 0.0321 0.0
H1490 H 0.2045 0.07561 0.97803 0.0
C1491 C 0.21297 0.12275 0.79813 0.0
C1492 C 0.2007 0.11785 0.88087 0.0
H1493 H 0.24433 0.14644 0.93795 0.0
C1494 C 0.17911 0.09853 0.89715 0.0
C1495 C 0.22451 0.13534 0.89572 0.0
C1496 C 0.24799 0.15713 0.87952 0.0
C1497 C 0.18072 0.09633 0.92803 0.0
C1498 C 0.20456 0.11386 0.94279 0.0
C1499 C 0.22616 0.13297 0.92646 0.0
C1500 C 0.20716 0.11394 0.97542 0.0
C1501 C 0.15672 0.07596 0.94482 0.0
C1502 C 0.21102 0.13609 0.99166 0.0
C1503 C 0.21417 0.13686 0.02239 0.0
C1504 C 0.21348 0.11541 0.03748 0.0
C1505 C 0.20993 0.09333 0.0211 0.0
C1506 C 0.20692 0.09266 0.99027 0.0
H1507 H 0.13872 0.06644 0.93066 0.0
H1508 H 0.16058 0.0603 0.95329 0.0
H1509 H 0.15274 0.08521 0.96421 0.0
H1510 H 0.21135 0.15275 0.98053 0.0
H1511 H 0.21659 0.15404 0.03434 0.0
H1512 H 0.87442 0.11236 0.78569 0.0
H1513 H 0.88244 0.12177 0.8386 0.0
H1514 H 0.86644 0.04212 0.85433 0.0
H1515 H 0.85809 0.03238 0.80139 0.0
H1516 H 0.83758 0.05653 0.89041 0.0
H1517 H 0.94385 0.13317 0.89257 0.0
H1518 H 0.92506 0.1401 0.86608 0.0
H1519 H 0.9286 0.11137 0.86138 0.0
C1520 C 0.87299 0.09694 0.80031 0.0
C1521 C 0.86556 0.0716 0.78933 0.0
C1522 C 0.87776 0.10242 0.83053 0.0
C1523 C 0.87536 0.08275 0.85031 0.0
C1524 C 0.86855 0.05762 0.83936 0.0
H1525 H 0.9136 0.11176 0.03834 0.0
H1526 H 0.91415 0.10356 0.98529 0.0
C1527 C 0.8638 0.05211 0.80911 0.0
C1528 C 0.87762 0.08779 0.88264 0.0
H1529 H 0.91854 0.12977 0.93594 0.0
C1530 C 0.85535 0.07239 0.90045 0.0
C1531 C 0.90097 0.10815 0.89573 0.0
C1532 C 0.92609 0.12399 0.87803 0.0
C1533 C 0.85547 0.07736 0.93087 0.0
C1534 C 0.87824 0.0989 0.94365 0.0
C1535 C 0.90088 0.11366 0.92603 0.0
C1536 C 0.87902 0.106 0.97538 0.0
C1537 C 0.83129 0.0592 0.949 0.0
C1538 C 0.85963 0.11102 0.98733 0.0
C1539 C 0.85896 0.1152 0.01776 0.0
C1540 C 0.87817 0.11524 0.03659 0.0
C1541 C 0.89856 0.11192 0.02432 0.0
C1542 C 0.89888 0.10718 0.99401 0.0
H1543 H 0.81954 0.03954 0.93827 0.0
H1544 H 0.83683 0.05619 0.97163 0.0
H1545 H 0.81832 0.06804 0.95097 0.0
H1546 H 0.84465 0.11114 0.97321 0.0
H1547 H 0.84323 0.11803 0.02662 0.0
H1548 H 0.21684 0.10734 0.28636 0.0
H1549 H 0.21443 0.11948 0.33779 0.0
H1550 H 0.16623 0.03699 0.36066 0.0
H1551 H 0.16856 0.02459 0.30941 0.0
H1552 H 0.16757 0.10496 0.37665 0.0
H1553 H 0.23329 0.06716 0.41554 0.0
H1554 H 0.23113 0.07437 0.37702 0.0
H1555 H 0.20525 0.04465 0.39361 0.0
C1556 C 0.20551 0.09176 0.30225 0.0
C1557 C 0.19308 0.06496 0.29382 0.0
C1558 C 0.20413 0.09876 0.3316 0.0
C1559 C 0.19042 0.07911 0.35301 0.0
C1560 C 0.17717 0.05242 0.34448 0.0
H1561 H 0.18019 0.07505 0.5435 0.0
H1562 H 0.17602 0.06539 0.49054 0.0
C1563 C 0.1785 0.04539 0.31516 0.0
C1564 C 0.19101 0.08639 0.38456 0.0
H1565 H 0.21461 0.08175 0.45214 0.0
C1566 C 0.17786 0.09998 0.39325 0.0
C1567 C 0.20451 0.07986 0.406 0.0
C1568 C 0.21955 0.06588 0.39769 0.0
C1569 C 0.17721 0.10656 0.42313 0.0
C1570 C 0.19071 0.09998 0.44466 0.0
C1571 C 0.20416 0.08671 0.43572 0.0
C1572 C 0.19086 0.10599 0.47673 0.0
C1573 C 0.16139 0.11971 0.43138 0.0
C1574 C 0.20021 0.13201 0.48678 0.0
C1575 C 0.20209 0.1375 0.51722 0.0
C1576 C 0.19534 0.11716 0.53803 0.0
C1577 C 0.1857 0.09115 0.52794 0.0
C1578 C 0.18332 0.08561 0.49766 0.0
H1579 H 0.14619 0.11622 0.41436 0.0
H1580 H 0.15132 0.11244 0.4531 0.0
H1581 H 0.17494 0.1414 0.43301 0.0
H1582 H 0.20683 0.1482 0.47114 0.0
H1583 H 0.20984 0.15776 0.52445 0.0
H1584 H 0.96056 0.1452 0.30321 0.0
H1585 H 0.95254 0.13328 0.35578 0.0
H1586 H 0.86884 0.10259 0.34302 0.0
H1587 H 0.87659 0.11468 0.29039 0.0
H1588 H 0.91734 0.15336 0.39295 0.0
H1589 H 0.88611 0.04608 0.3932 0.0
H1590 H 0.90935 0.06874 0.36618 0.0
H1591 H 0.87502 0.0593 0.36381 0.0
C1592 C 0.94037 0.13556 0.31143 0.0
C1593 C 0.91919 0.131 0.29266 0.0
C1594 C 0.93588 0.12878 0.34146 0.0
C1595 C 0.91013 0.11701 0.35306 0.0
C1596 C 0.88883 0.11154 0.33427 0.0
H1597 H 0.84074 0.06431 0.52731 0.0
H1598 H 0.8503 0.07009 0.47398 0.0
C1599 C 0.89331 0.11852 0.30429 0.0
C1600 C 0.90576 0.1126 0.38529 0.0
H1601 H 0.8849 0.06507 0.43895 0.0
C1602 C 0.91035 0.13412 0.40315 0.0
C1603 C 0.89646 0.08743 0.39818 0.0
C1604 C 0.89144 0.06393 0.37953 0.0
C1605 C 0.9054 0.13106 0.43375 0.0
C1606 C 0.89634 0.10587 0.4469 0.0
C1607 C 0.89189 0.08435 0.4289 0.0
C1608 C 0.891 0.10145 0.4792 0.0
C1609 C 0.90915 0.15469 0.4514 0.0
C1610 C 0.91086 0.11666 0.49983 0.0
C1611 C 0.90529 0.11375 0.53016 0.0
C1612 C 0.87994 0.09506 0.54049 0.0
C1613 C 0.86041 0.07893 0.51994 0.0
C1614 C 0.86587 0.0822 0.4895 0.0
H1615 H 0.9083 0.16974 0.43702 0.0
H1616 H 0.89384 0.14875 0.46898 0.0
H1617 H 0.92895 0.16423 0.46209 0.0
H1618 H 0.93064 0.131 0.49248 0.0
H1619 H 0.92089 0.12614 0.54552 0.0
H1620 H 0.85785 0.7536 0.29641 0.0
H1621 H 0.86954 0.75566 0.34879 0.0
H1622 H 0.88287 0.83529 0.35397 0.0
H1623 H 0.87063 0.8332 0.30175 0.0
H1624 H 0.91564 0.78942 0.37824 0.0
H1625 H 0.83138 0.7989 0.42195 0.0
H1626 H 0.83279 0.78989 0.384 0.0
H1627 H 0.85205 0.82381 0.39556 0.0
C1628 C 0.86326 0.77156 0.30867 0.0
C1629 C 0.86314 0.79317 0.29494 0.0
C1630 C 0.86997 0.77272 0.3386 0.0
C1631 C 0.87671 0.79548 0.35541 0.0
C1632 C 0.87718 0.81731 0.34162 0.0
H1633 H 0.9439 0.8163 0.53509 0.0
H1634 H 0.93858 0.82246 0.48224 0.0
C1635 C 0.8703 0.81612 0.31171 0.0
C1636 C 0.88313 0.79612 0.38736 0.0
H1637 H 0.86221 0.80033 0.45689 0.0
C1638 C 0.90405 0.79191 0.39547 0.0
C1639 C 0.8679 0.79931 0.40977 0.0
C1640 C 0.84463 0.80301 0.40251 0.0
C1641 C 0.90985 0.79028 0.42537 0.0
C1642 C 0.89453 0.79333 0.44777 0.0
C1643 C 0.87397 0.79808 0.43966 0.0
C1644 C 0.89825 0.78984 0.47969 0.0
C1645 C 0.93165 0.78434 0.43269 0.0
C1646 C 0.87725 0.76977 0.49591 0.0
C1647 C 0.88014 0.76636 0.52605 0.0
C1648 C 0.90415 0.78296 0.54066 0.0
C1649 C 0.92528 0.80299 0.52437 0.0
C1650 C 0.92228 0.80651 0.49417 0.0
H1651 H 0.93758 0.77693 0.4131 0.0
H1652 H 0.94934 0.80272 0.44044 0.0
H1653 H 0.92538 0.76938 0.4507 0.0
H1654 H 0.85854 0.75667 0.48519 0.0
H1655 H 0.86347 0.75075 0.53793 0.0
H1656 H 0.30815 0.90929 0.95262 0.0
H1657 H 0.35338 0.94267 0.96597 0.0
H1658 H 0.38088 0.93594 0.8794 0.0
H1659 H 0.33557 0.90244 0.86566 0.0
H1660 H 0.40861 0.93039 0.93526 0.0
H1661 H 0.39957 0.02106 0.93011 0.0
H1662 H 0.37255 0.99191 0.94665 0.0
H1663 H 0.37933 0.9921 0.90783 0.0
C1664 C 0.32369 0.91514 0.93619 0.0
C1665 C 0.31819 0.9032 0.90802 0.0
C1666 C 0.34953 0.93421 0.94391 0.0
C1667 C 0.37038 0.94175 0.92364 0.0
C1668 C 0.36499 0.93033 0.89532 0.0
H1669 H 0.53992 0.04886 0.93775 0.0
H1670 H 0.49574 0.01451 0.92244 0.0
C1671 C 0.33909 0.91129 0.8875 0.0
C1672 C 0.3979 0.96077 0.93268 0.0
H1673 H 0.43903 0.02564 0.95057 0.0
C1674 C 0.41538 0.95126 0.93842 0.0
C1675 C 0.40652 0.98789 0.93684 0.0
C1676 C 0.38868 -0.00093 0.92992 0.0
C1677 C 0.44122 0.9682 0.94882 0.0
C1678 C 0.44971 0.99526 0.95337 0.0
C1679 C 0.43231 0.0048 0.94732 0.0
C1680 C 0.47681 0.01418 0.96383 0.0
C1681 C 0.45914 0.95707 0.95553 0.0
C1682 C 0.48083 0.02515 0.99234 0.0
C1683 C 0.50614 0.04477 0.00131 0.0
C1684 C 0.52782 0.05396 0.98174 0.0
C1685 C 0.52375 0.04226 0.95347 0.0
C1686 C 0.4985 0.02259 0.94463 0.0
H1687 H 0.44847 0.9351 0.95448 0.0
H1688 H 0.47565 0.9649 0.93923 0.0
H1689 H 0.46798 0.96341 0.97794 0.0
H1690 H 0.46426 0.01889 0.00744 0.0
H1691 H 0.50851 0.05333 0.02317 0.0
H1692 H 0.95501 0.50403 0.93922 0.0
H1693 H 0.98685 0.49129 0.92171 0.0
H1694 H 0.97792 0.44921 0.00349 0.0
H1695 H 0.94584 0.46161 0.02118 0.0
H1696 H 0.03527 0.49889 0.94713 0.0
H1697 H 0.95842 0.39286 0.93711 0.0
H1698 H 0.9504 0.41895 0.94063 0.0
H1699 H 0.95972 0.40722 0.97276 0.0
C1700 C 0.96004 0.49232 0.95367 0.0
C1701 C 0.94771 0.48362 0.9815 0.0
C1702 C 0.97819 0.48505 0.94358 0.0
C1703 C 0.98421 0.46887 0.96108 0.0
C1704 C 0.97306 0.4613 0.98948 0.0
H1705 H 0.08558 0.40143 0.94821 0.0
H1706 H 0.05193 0.41326 0.96123 0.0
C1707 C 0.95496 0.46863 -0.00035 0.0
C1708 C 0.00175 0.45943 0.94941 0.0
H1709 H 0.00323 0.40337 0.93095 0.0
C1710 C 0.02829 0.47805 0.94342 0.0
C1711 C 0.99237 0.43224 0.94431 0.0
C1712 C 0.96361 0.41163 0.94874 0.0
C1713 C 0.04606 0.47006 0.93344 0.0
C1714 C 0.03684 0.4428 0.92906 0.0
C1715 C 0.01017 0.42423 0.93451 0.0
C1716 C 0.05493 0.43324 0.91975 0.0
C1717 C 0.07471 0.49076 0.92841 0.0
C1718 C 0.06691 0.43975 0.89171 0.0
C1719 C 0.08604 0.43298 0.88416 0.0
C1720 C 0.09349 0.41958 0.90458 0.0
C1721 C 0.08038 0.41185 0.93207 0.0
C1722 C 0.06118 0.41859 0.93955 0.0
H1723 H 0.07965 0.51013 0.93833 0.0
H1724 H 0.08812 0.48423 0.93794 0.0
H1725 H 0.07864 0.4937 0.90422 0.0
H1726 H 0.06198 0.4507 0.87599 0.0
H1727 H 0.09565 0.43912 0.86273 0.0
H1728 H 0.61316 0.682 0.91014 0.0
H1729 H 0.60077 0.63716 0.92645 0.0
H1730 H 0.52106 0.60872 0.895 0.0
H1731 H 0.53361 0.65305 0.87751 0.0
H1732 H 0.56644 0.6082 0.96743 0.0
H1733 H 0.53365 0.55282 0.86181 0.0
H1734 H 0.5513 0.58851 0.86302 0.0
H1735 H 0.51608 0.57009 0.86973 0.0
C1736 C 0.59314 0.66605 0.9062 0.0
C1737 C 0.57446 0.67103 0.8923 0.0
C1738 C 0.58604 0.64045 0.91561 0.0
C1739 C 0.56005 0.61938 0.91158 0.0
C1740 C 0.54143 0.62435 0.89756 0.0
H1741 H 0.47746 0.4657 0.00053 0.0
H1742 H 0.49042 0.50971 0.97997 0.0
C1743 C 0.54863 0.64981 0.88767 0.0
C1744 C 0.55199 0.59265 0.92377 0.0
H1745 H 0.52149 0.52684 0.90621 0.0
C1746 C 0.55674 0.59047 0.95394 0.0
C1747 C 0.53942 0.56941 0.90621 0.0
C1748 C 0.53506 0.57032 0.87334 0.0
C1749 C 0.5489 0.56577 0.96704 0.0
C1750 C 0.53576 0.54265 0.94966 0.0
C1751 C 0.53123 0.54469 0.91951 0.0
C1752 C 0.52776 0.51626 0.96218 0.0
C1753 C 0.55492 0.56437 -0.0007 0.0
C1754 C 0.54455 0.50563 0.95902 0.0
C1755 C 0.53722 0.4807 0.97068 0.0
C1756 C 0.51291 0.46584 0.98547 0.0
C1757 C 0.49623 0.47667 0.98901 0.0
C1758 C 0.50357 0.5017 0.97729 0.0
H1759 H 0.56554 0.58424 0.00979 0.0
H1760 H 0.53618 0.55192 0.0116 0.0
H1761 H 0.56729 0.55483 0.00141 0.0
H1762 H 0.56342 0.51674 0.94772 0.0
H1763 H 0.55083 0.47326 0.96864 0.0
H1764 H 0.97746 0.47846 0.50894 0.0
H1765 H 0.01382 0.52139 0.49094 0.0
H1766 H 0.95794 0.53275 0.43938 0.0
H1767 H 0.92198 0.49044 0.45682 0.0
H1768 H 0.01908 0.53573 0.41717 0.0
H1769 H 0.00847 0.60204 0.49813 0.0
H1770 H 0.00103 0.56895 0.50806 0.0
H1771 H 0.97905 0.57355 0.48417 0.0
C1772 C 0.973 0.49029 0.49401 0.0
C1773 C 0.94692 0.48096 0.48412 0.0
C1774 C 0.99372 0.51467 0.48367 0.0
C1775 C 0.98845 0.5301 0.4638 0.0
C1776 C 0.96239 0.5211 0.45462 0.0
H1777 H 0.07496 0.68767 0.38674 0.0
H1778 H 0.0408 0.64419 0.40513 0.0
C1779 C 0.94189 0.49684 0.4646 0.0
C1780 C 0.00991 0.55537 0.45165 0.0
H1781 H 0.03765 0.62237 0.45795 0.0
C1782 C 0.02348 0.55473 0.42624 0.0
C1783 C 0.0149 0.57998 0.46307 0.0
C1784 C 0.00023 0.58144 0.48993 0.0
C1785 C 0.04186 0.57817 0.41173 0.0
C1786 C 0.04728 0.60295 0.42346 0.0
C1787 C 0.03359 0.60346 0.44894 0.0
C1788 C 0.06748 0.62859 0.41017 0.0
C1789 C 0.05454 0.57605 0.38342 0.0
C1790 C 0.09381 0.63434 0.40677 0.0
C1791 C 0.11317 0.65895 0.39595 0.0
C1792 C 0.1068 0.67861 0.38866 0.0
C1793 C 0.08044 0.67289 0.392 0.0
C1794 C 0.06095 0.64808 0.40256 0.0
H1795 H 0.04219 0.55659 0.37249 0.0
H1796 H 0.05778 0.59194 0.36749 0.0
H1797 H 0.07401 0.57788 0.38865 0.0
H1798 H 0.09962 0.62008 0.41336 0.0
H1799 H 0.13341 0.66294 0.39455 0.0
H1800 H 0.51744 0.43844 0.47105 0.0
H1801 H 0.4739 0.42604 0.45057 0.0
H1802 H 0.4843 0.50199 0.4759 0.0
H1803 H 0.52829 0.5147 0.4961 0.0
H1804 H 0.43459 0.45626 0.49282 0.0
H1805 H 0.45834 0.45566 0.37354 0.0
H1806 H 0.46861 0.4378 0.39758 0.0
H1807 H 0.48349 0.47304 0.40132 0.0
C1808 C 0.51069 0.4527 0.47165 0.0
C1809 C 0.52646 0.47775 0.48437 0.0
C1810 C 0.48581 0.44556 0.46009 0.0
C1811 C 0.47622 0.46333 0.4612 0.0
C1812 C 0.4916 0.48817 0.47455 0.0
H1813 H 0.33921 0.45128 0.37353 0.0
H1814 H 0.38368 0.46271 0.38922 0.0
C1815 C 0.51661 0.49536 0.48609 0.0
C1816 C 0.44962 0.45535 0.44949 0.0
H1817 H 0.41279 0.43702 0.38609 0.0
C1818 C 0.42978 0.45213 0.46949 0.0
C1819 C 0.44363 0.45023 0.41901 0.0
C1820 C 0.46465 0.45455 0.3965 0.0
C1821 C 0.40382 0.44347 0.45987 0.0
C1822 C 0.39757 0.43746 0.42953 0.0
C1823 C 0.41758 0.44119 0.40942 0.0
C1824 C 0.37067 0.42877 0.41807 0.0
C1825 C 0.38347 0.44131 0.48218 0.0
C1826 C 0.34864 0.40539 0.4284 0.0
C1827 C 0.32302 0.39883 0.41967 0.0
C1828 C 0.31915 0.41544 0.40021 0.0
C1829 C 0.34143 0.43806 0.38866 0.0
C1830 C 0.36692 0.44466 0.39756 0.0
H1831 H 0.39287 0.45249 0.5028 0.0
H1832 H 0.37084 0.44882 0.47274 0.0
H1833 H 0.37047 0.42021 0.48828 0.0
H1834 H 0.35124 0.39255 0.44375 0.0
H1835 H 0.30629 0.38116 0.42869 0.0
H1836 H 0.55201 0.90016 0.36077 0.0
H1837 H 0.54122 0.93421 0.37468 0.0
H1838 H 0.58561 0.94842 0.45569 0.0
H1839 H 0.59668 0.91447 0.44195 0.0
H1840 H 0.51269 0.93118 0.42647 0.0
H1841 H 0.61051 0.02342 0.42309 0.0
H1842 H 0.60435 0.99336 0.40466 0.0
H1843 H 0.61024 0.99699 0.44395 0.0
C1844 C 0.55993 0.91086 0.3813 0.0
C1845 C 0.57517 0.90455 0.40032 0.0
C1846 C 0.55367 0.93026 0.38921 0.0
C1847 C 0.56273 0.94388 0.4161 0.0
C1848 C 0.57877 0.93838 0.43462 0.0
H1849 H 0.50592 0.02433 0.52799 0.0
H1850 H 0.51663 0.99281 0.50455 0.0
C1851 C 0.58501 0.91892 0.42676 0.0
C1852 C 0.5536 0.96221 0.42596 0.0
H1853 H 0.57537 0.02591 0.44742 0.0
C1854 C 0.52635 0.95194 0.43085 0.0
C1855 C 0.57147 0.98929 0.43136 0.0
C1856 C 0.60076 0.00155 0.42525 0.0
C1857 C 0.5166 0.96793 0.44195 0.0
C1858 C 0.53459 0.99472 0.44842 0.0
C1859 C 0.56171 0.00522 0.44266 0.0
C1860 C 0.52575 0.01216 0.46171 0.0
C1861 C 0.48719 0.95617 0.44674 0.0
C1862 C 0.527 0.0331 0.44518 0.0
C1863 C 0.52073 0.05092 0.45844 0.0
C1864 C 0.51357 0.04838 0.4885 0.0
C1865 C 0.51141 0.0268 0.50476 0.0
C1866 C 0.51753 0.00883 0.49144 0.0
H1867 H 0.47558 0.9365 0.43599 0.0
H1868 H 0.48287 0.95375 0.47088 0.0
H1869 H 0.48044 0.96962 0.43789 0.0
H1870 H 0.53314 0.03584 0.42214 0.0
H1871 H 0.52175 0.06688 0.44529 0.0
H1872 H 0.18822 0.347 0.33719 0.0
H1873 H 0.14452 0.31626 0.31601 0.0
H1874 H 0.14275 0.38175 0.2736 0.0
H1875 H 0.18604 0.4122 0.29457 0.0
H1876 H 0.09672 0.31581 0.32328 0.0
H1877 H 0.12682 0.33087 0.20486 0.0
H1878 H 0.15054 0.34139 0.23475 0.0
H1879 H 0.13588 0.36105 0.22433 0.0
C1880 C 0.17852 0.3547 0.32314 0.0
C1881 C 0.19076 0.38188 0.31679 0.0
C1882 C 0.15364 0.3372 0.31109 0.0
C1883 C 0.14074 0.34669 0.29263 0.0
C1884 C 0.15272 0.37389 0.28695 0.0
H1885 H 0.98573 0.27404 0.20655 0.0
H1886 H 0.02957 0.30582 0.22653 0.0
C1887 C 0.1775 0.39127 0.29884 0.0
C1888 C 0.11433 0.32842 0.28004 0.0
H1889 H 0.08044 0.3073 0.21475 0.0
C1890 C 0.09318 0.31381 0.29957 0.0
C1891 C 0.10978 0.32606 0.24906 0.0
C1892 C 0.13199 0.34049 0.227 0.0
C1893 C 0.06747 0.29706 0.28894 0.0
C1894 C 0.06294 0.2947 0.258 0.0
C1895 C 0.08403 0.30938 0.23846 0.0
C1896 C 0.03672 0.27585 0.24556 0.0
C1897 C 0.04524 0.28221 0.31085 0.0
C1898 C 0.02664 0.24864 0.24925 0.0
C1899 C 0.00185 0.23057 0.2379 0.0
C1900 C 0.98659 0.23935 0.22251 0.0
C1901 C 0.99694 0.26668 0.21837 0.0
C1902 C 0.02192 0.28482 0.22975 0.0
H1903 H 0.05062 0.29087 0.33343 0.0
H1904 H 0.02696 0.28215 0.30364 0.0
H1905 H 0.04074 0.26135 0.31213 0.0
H1906 H 0.038 0.24136 0.26094 0.0
H1907 H 0.99466 0.20967 0.24132 0.0
H1908 H 0.63293 0.82007 0.35395 0.0
H1909 H 0.66544 0.80958 0.33291 0.0
H1910 H 0.6239 0.79026 0.24938 0.0
H1911 H 0.5913 0.80062 0.27055 0.0
H1912 H 0.63623 0.75266 0.26632 0.0
H1913 H 0.72524 0.85221 0.27525 0.0
H1914 H 0.70812 0.84027 0.30988 0.0
H1915 H 0.69203 0.84675 0.27958 0.0
C1916 C 0.6309 0.81386 0.33101 0.0
C1917 C 0.60941 0.81092 0.3139 0.0
C1918 C 0.64955 0.80794 0.31896 0.0
C1919 C 0.64735 0.79941 0.28942 0.0
C1920 C 0.62604 0.79675 0.27223 0.0
H1921 H 0.77371 0.78669 0.19833 0.0
H1922 H 0.73855 0.79674 0.21011 0.0
C1923 C 0.60733 0.80252 0.28434 0.0
C1924 C 0.66674 0.7924 0.27679 0.0
H1925 H 0.73291 0.81635 0.26511 0.0
C1926 C 0.65735 0.76666 0.26587 0.0
C1927 C 0.69428 0.81075 0.27572 0.0
C1928 C 0.70553 0.83911 0.28545 0.0
C1929 C 0.67482 0.75854 0.2549 0.0
C1930 C 0.70244 0.77651 0.25517 0.0
C1931 C 0.71175 0.80249 0.26515 0.0
C1932 C 0.72212 0.76859 0.24618 0.0
C1933 C 0.66357 0.73081 0.24299 0.0
C1934 C 0.72444 0.74925 0.26235 0.0
C1935 C 0.74457 0.74351 0.25576 0.0
C1936 C 0.7628 0.75697 0.23279 0.0
C1937 C 0.7599 0.77577 0.216 0.0
C1938 C 0.73988 0.78164 0.22279 0.0
H1939 H 0.64233 0.72208 0.23691 0.0
H1940 H 0.67481 0.73054 0.2232 0.0
H1941 H 0.66509 0.71808 0.26029 0.0
H1942 H 0.71125 0.73921 0.28079 0.0
H1943 H 0.74626 0.72901 0.2692 0.0
H1944 H 0.2004 0.82248 0.35879 0.0
H1945 H 0.21079 0.86671 0.34254 0.0
H1946 H 0.17161 0.83457 0.25922 0.0
H1947 H 0.16097 0.79032 0.27522 0.0
H1948 H 0.24227 0.88978 0.28892 0.0
H1949 H 0.14445 0.88521 0.28588 0.0
H1950 H 0.15029 0.86268 0.30789 0.0
H1951 H 0.14581 0.85814 0.26851 0.0
C1952 C 0.19327 0.82467 0.33738 0.0
C1953 C 0.17998 0.80292 0.31823 0.0
C1954 C 0.19941 0.84997 0.32807 0.0
C1955 C 0.19199 0.85378 0.29972 0.0
C1956 C 0.17729 0.83192 0.28129 0.0
H1957 H 0.21916 0.99042 0.19803 0.0
H1958 H 0.21029 0.94646 0.21271 0.0
C1959 C 0.17125 0.80667 0.29049 0.0
C1960 C 0.20157 0.88078 0.28839 0.0
H1961 H 0.18085 0.92299 0.26463 0.0
C1962 C 0.22892 0.89719 0.28377 0.0
C1963 C 0.18398 0.89004 0.28132 0.0
C1964 C 0.15449 0.87323 0.28631 0.0
C1965 C 0.23917 0.92275 0.27207 0.0
C1966 C 0.2216 0.93213 0.26539 0.0
C1967 C 0.19424 0.91563 0.2698 0.0
C1968 C 0.231 0.95926 0.25453 0.0
C1969 C 0.26857 0.93933 0.26639 0.0
C1970 C 0.24628 0.98109 0.27288 0.0
C1971 C 0.2514 0.00632 0.26459 0.0
C1972 C 0.2411 0.00995 0.23795 0.0
C1973 C 0.22719 0.98825 0.21883 0.0
C1974 C 0.22209 0.96311 0.22714 0.0
H1975 H 0.2783 0.92707 0.26572 0.0
H1976 H 0.27249 0.9503 0.24512 0.0
H1977 H 0.2778 0.95404 0.28446 0.0
H1978 H 0.25303 0.9784 0.29429 0.0
H1979 H 0.26217 0.02264 0.27976 0.0
H1980 H 0.78154 0.01611 0.78239 0.0
H1981 H 0.74721 0.97135 0.79497 0.0
H1982 H 0.71464 0.96142 0.70686 0.0
H1983 H 0.7504 0.006 0.69355 0.0
H1984 H 0.69704 0.94888 0.79953 0.0
H1985 H 0.71766 0.89537 0.71105 0.0
H1986 H 0.73922 0.93021 0.71773 0.0
H1987 H 0.709 0.91884 0.697 0.0
C1988 C 0.767 0.00448 0.76567 0.0
C1989 C 0.76862 0.01463 0.73698 0.0
C1990 C 0.74736 0.97877 0.77288 0.0
C1991 C 0.72844 0.96258 0.7518 0.0
C1992 C 0.72944 0.97302 0.72332 0.0
H1993 H 0.5843 0.8153 0.79476 0.0
H1994 H 0.61689 0.85871 0.77518 0.0
C1995 C 0.74966 -0.00135 0.71581 0.0
C1996 C 0.70771 0.93512 0.76032 0.0
H1997 H 0.68036 0.86964 0.7418 0.0
C1998 C 0.69352 0.93164 0.78682 0.0
C1999 C 0.703 0.91238 0.74393 0.0
C2000 C 0.71819 0.9143 0.71601 0.0
C2001 C 0.67512 0.90633 0.79742 0.0
C2002 C 0.67036 0.88381 0.78095 0.0
C2003 C 0.68416 0.88706 0.75434 0.0
C2004 C 0.65088 0.85675 0.79117 0.0
C2005 C 0.66113 0.90366 0.82648 0.0
C2006 C 0.65923 0.84119 0.80647 0.0
C2007 C 0.64057 0.81618 0.81749 0.0
C2008 C 0.61329 0.80631 0.81315 0.0
C2009 C 0.60515 0.82199 0.79767 0.0
C2010 C 0.62373 0.8469 0.78671 0.0
H2011 H 0.66836 0.92302 0.8377 0.0
H2012 H 0.63951 0.89466 0.82255 0.0
H2013 H 0.66406 0.89024 0.84156 0.0
H2014 H 0.68014 0.84859 0.81031 0.0
H2015 H 0.64747 0.80468 0.82954 0.0
H2016 H 0.96887 0.72582 0.75213 0.0
H2017 H 0.01292 0.73435 0.76718 0.0
H2018 H 0.04919 0.80545 0.71424 0.0
H2019 H 0.00537 0.797 0.69879 0.0
H2020 H 0.07557 0.77286 0.71309 0.0
H2021 H 0.05605 0.79725 0.82628 0.0
H2022 H 0.0311 0.76627 0.81097 0.0
H2023 H 0.03716 0.79677 0.79429 0.0
C2024 C 0.98622 0.74304 0.74329 0.0
C2025 C 0.98354 0.76083 0.72449 0.0
C2026 C 0.01136 0.74792 0.75197 0.0
C2027 C 0.03427 0.77075 0.7422 0.0
C2028 C 0.03176 0.78774 0.72207 0.0
H2029 H 0.18872 0.84808 0.82923 0.0
H2030 H 0.14672 0.83794 0.8054 0.0
C2031 C 0.00664 0.78282 0.71325 0.0
C2032 C 0.06063 0.77802 0.75473 0.0
H2033 H 0.09638 0.7977 0.81897 0.0
C2034 C 0.08017 0.77827 0.73622 0.0
C2035 C 0.0667 0.78552 0.78479 0.0
C2036 C 0.0468 0.7867 0.80531 0.0
C2037 C 0.1055 0.78534 0.74719 0.0
C2038 C 0.11133 0.79219 0.7775 0.0
C2039 C 0.09189 0.79238 0.7958 0.0
C2040 C 0.13726 0.79878 0.7909 0.0
C2041 C 0.12591 0.78577 0.72616 0.0
C2042 C 0.14568 0.78003 0.79111 0.0
C2043 C 0.16955 0.78579 0.8047 0.0
C2044 C 0.18554 0.81039 0.81838 0.0
C2045 C 0.17693 0.82904 0.81862 0.0
C2046 C 0.15299 0.82327 0.80498 0.0
H2047 H 0.12103 0.7873 0.70269 0.0
H2048 H 0.14599 0.80255 0.73112 0.0
H2049 H 0.12647 0.7671 0.72861 0.0
H2050 H 0.13353 0.76069 0.78129 0.0
H2051 H 0.17521 0.7707 0.80515 0.0
H2052 H 0.20928 0.22268 0.69154 0.0
H2053 H 0.19972 0.2576 0.70545 0.0
H2054 H 0.25587 0.2808 0.77716 0.0
H2055 H 0.26547 0.24572 0.76361 0.0
H2056 H 0.17984 0.25951 0.76411 0.0
H2057 H 0.27259 0.35162 0.73418 0.0
H2058 H 0.26328 0.31988 0.7178 0.0
H2059 H 0.27697 0.32748 0.75451 0.0
C2060 C 0.2201 0.23558 0.70986 0.0
C2061 C 0.23818 0.23142 0.7265 0.0
C2062 C 0.21448 0.25543 0.71784 0.0
C2063 C 0.22714 0.27178 0.74224 0.0
C2064 C 0.24609 0.26852 0.75806 0.0
H2065 H 0.17451 0.35779 0.8539 0.0
H2066 H 0.18506 0.32561 0.83224 0.0
C2067 C 0.25152 0.24846 0.75031 0.0
C2068 C 0.21899 0.29076 0.75266 0.0
H2069 H 0.24165 0.35646 0.76403 0.0
C2070 C 0.19325 0.28074 0.76395 0.0
C2071 C 0.23644 0.31838 0.75204 0.0
C2072 C 0.26382 0.33012 0.73877 0.0
C2073 C 0.18466 0.29762 0.77533 0.0
C2074 C 0.2025 0.32525 0.77591 0.0
C2075 C 0.22805 0.33528 0.76387 0.0
C2076 C 0.1952 0.34418 0.78891 0.0
C2077 C 0.15645 0.28564 0.78624 0.0
C2078 C 0.19795 0.36567 0.77204 0.0
C2079 C 0.19242 0.38431 0.78457 0.0
C2080 C 0.1839 0.38177 0.81415 0.0
C2081 C 0.18073 0.36005 0.83092 0.0
C2082 C 0.18664 0.34159 0.81851 0.0
H2083 H 0.14342 0.26605 0.77589 0.0
H2084 H 0.15601 0.2826 0.81058 0.0
H2085 H 0.14816 0.29878 0.78151 0.0
H2086 H 0.20454 0.36812 0.74918 0.0
H2087 H 0.19482 0.40073 0.77109 0.0
H2088 H 0.67629 0.5724 0.52687 0.0
H2089 H 0.72051 0.60522 0.54394 0.0
H2090 H 0.68615 0.62247 0.61943 0.0
H2091 H 0.64179 0.58946 0.60277 0.0
H2092 H 0.74458 0.66028 0.5587 0.0
H2093 H 0.73521 0.59711 0.65561 0.0
H2094 H 0.71297 0.58489 0.62431 0.0
H2095 H 0.70914 0.60496 0.65189 0.0
C2096 C 0.67806 0.58345 0.54687 0.0
C2097 C 0.65553 0.57805 0.56371 0.0
C2098 C 0.70336 0.60217 0.55657 0.0
C2099 C 0.70654 0.61576 0.58325 0.0
C2100 C 0.68405 0.61173 0.59908 0.0
H2101 H 0.84172 0.72421 0.68783 0.0
H2102 H 0.79762 0.69249 0.66929 0.0
C2103 C 0.65873 0.59298 0.58942 0.0
C2104 C 0.7334 0.63304 0.59529 0.0
H2105 H 0.77393 0.63919 0.65311 0.0
C2106 C 0.75107 0.65571 0.5793 0.0
C2107 C 0.74175 0.62682 0.62207 0.0
C2108 C 0.72391 0.60201 0.63941 0.0
C2109 C 0.7768 0.67275 0.58977 0.0
C2110 C 0.78512 0.66657 0.61663 0.0
C2111 C 0.76745 0.64383 0.63254 0.0
C2112 C 0.81192 0.68383 0.62891 0.0
C2113 C 0.79462 0.6975 0.57234 0.0
C2114 C 0.83455 0.68856 0.61291 0.0
C2115 C 0.85977 0.70666 0.62341 0.0
C2116 C 0.8628 0.72024 0.65021 0.0
C2117 C 0.8401 0.7142 0.66706 0.0
C2118 C 0.81488 0.69613 0.65647 0.0
H2119 H 0.78321 0.70265 0.55658 0.0
H2120 H 0.80604 0.71458 0.58735 0.0
H2121 H 0.80896 0.69429 0.55931 0.0
H2122 H 0.83268 0.67872 0.59194 0.0
H2123 H 0.87684 0.71066 0.61 0.0
H2124 H 0.25992 0.13956 0.59501 0.0
H2125 H 0.29084 0.12544 0.57885 0.0
H2126 H 0.32487 0.14021 0.66662 0.0
H2127 H 0.29234 0.15255 0.68349 0.0
H2128 H 0.34098 0.14963 0.5739 0.0
H2129 H 0.31436 0.06856 0.65494 0.0
H2130 H 0.29532 0.08512 0.6513 0.0
H2131 H 0.32558 0.09991 0.67253 0.0
C2132 C 0.27398 0.13979 0.61091 0.0
C2133 C 0.27372 0.14708 0.64054 0.0
C2134 C 0.29165 0.13166 0.60165 0.0
C2135 C 0.30991 0.13119 0.62161 0.0
C2136 C 0.31038 0.13945 0.65103 0.0
H2137 H 0.44237 0.1058 0.59712 0.0
H2138 H 0.40832 0.11478 0.6158 0.0
C2139 C 0.29205 0.14684 0.66058 0.0
C2140 C 0.32873 0.12269 0.61101 0.0
H2141 H 0.35243 0.08059 0.625 0.0
C2142 C 0.34326 0.13436 0.58499 0.0
C2143 C 0.33175 0.10272 0.62541 0.0
C2144 C 0.31572 0.08817 0.65241 0.0
C2145 C 0.36084 0.12687 0.57318 0.0
C2146 C 0.36407 0.10721 0.58779 0.0
C2147 C 0.34975 0.0956 0.61384 0.0
C2148 C 0.38328 0.09947 0.57711 0.0
C2149 C 0.37626 0.14046 0.54548 0.0
C2150 C 0.38011 0.08725 0.54941 0.0
C2151 C 0.39968 0.0822 0.53848 0.0
C2152 C 0.42254 0.08905 0.55528 0.0
C2153 C 0.42498 0.10018 0.58361 0.0
C2154 C 0.40555 0.10537 0.59437 0.0
H2155 H 0.37519 0.15852 0.54014 0.0
H2156 H 0.39741 0.14603 0.54789 0.0
H2157 H 0.36795 0.12665 0.52645 0.0
H2158 H 0.36276 0.08212 0.53602 0.0
H2159 H 0.39715 0.07342 0.51671 0.0
H2160 H 0.94435 0.3604 0.59489 0.0
H2161 H 0.93223 0.31527 0.60959 0.0
H2162 H 0.86315 0.28426 0.55353 0.0
H2163 H 0.87548 0.32912 0.53813 0.0
H2164 H 0.88755 0.28054 0.639 0.0
H2165 H 0.8913 0.2359 0.53188 0.0
H2166 H 0.90556 0.27117 0.53655 0.0
H2167 H 0.87042 0.25041 0.53113 0.0
C2168 C 0.92688 0.34394 0.58521 0.0
C2169 C 0.91102 0.34844 0.56518 0.0
C2170 C 0.91991 0.31813 0.59372 0.0
C2171 C 0.89691 0.29624 0.58248 0.0
C2172 C 0.88134 0.30067 0.56199 0.0
H2173 H 0.817 0.12603 0.61499 0.0
H2174 H 0.82894 0.17085 0.59924 0.0
C2175 C 0.88842 0.32644 0.55325 0.0
C2176 C 0.88825 0.26905 0.5938 0.0
H2177 H 0.8715 0.20638 0.57239 0.0
C2178 C 0.8842 0.26435 0.62444 0.0
C2179 C 0.88354 0.2478 0.57482 0.0
C2180 C 0.88815 0.25156 0.5418 0.0
C2181 C 0.87522 0.23903 0.6366 0.0
C2182 C 0.8708 0.21779 0.61768 0.0
C2183 C 0.87481 0.22252 0.58699 0.0
C2184 C 0.86233 0.19062 0.6291 0.0
C2185 C 0.86989 0.23529 0.66951 0.0
C2186 C 0.87685 0.18657 0.6514 0.0
C2187 C 0.8696 0.16095 0.66097 0.0
C2188 C 0.84814 0.13871 0.64786 0.0
C2189 C 0.83357 0.14274 0.62562 0.0
C2190 C 0.84048 0.16839 0.6165 0.0
H2191 H 0.86556 0.25042 0.67873 0.0
H2192 H 0.85295 0.21537 0.67467 0.0
H2193 H 0.88778 0.23757 0.68096 0.0
H2194 H 0.8943 0.20317 0.66086 0.0
H2195 H 0.88158 0.15853 0.6777 0.0
H2196 H 0.28354 0.15084 0.19499 0.0
H2197 H 0.31406 0.19429 0.17383 0.0
H2198 H 0.28933 0.16261 0.08569 0.0
H2199 H 0.25788 0.11943 0.10706 0.0
H2200 H 0.3552 0.21042 0.13969 0.0
H2201 H 0.28101 0.22598 0.07909 0.0
H2202 H 0.27148 0.19909 0.10495 0.0
H2203 H 0.28142 0.19671 0.06778 0.0
C2204 C 0.28465 0.15325 0.17111 0.0
C2205 C 0.2682 0.13207 0.15256 0.0
C2206 C 0.30202 0.17804 0.15903 0.0
C2207 C 0.30355 0.18193 0.12817 0.0
C2208 C 0.28782 0.1604 0.10957 0.0
H2209 H 0.41944 0.31952 0.02909 0.0
H2210 H 0.3844 0.27511 0.04307 0.0
C2211 C 0.26999 0.13574 0.12172 0.0
C2212 C 0.32218 0.20843 0.11576 0.0
H2213 H 0.32633 0.25797 0.07133 0.0
C2214 C 0.3488 0.22078 0.12483 0.0
C2215 C 0.31386 0.22197 0.09625 0.0
C2216 C 0.28534 0.21038 0.08665 0.0
C2217 C 0.36722 0.24632 0.11518 0.0
C2218 C 0.35885 0.25977 0.09586 0.0
C2219 C 0.33249 0.24741 0.08622 0.0
C2220 C 0.37743 0.28698 0.086 0.0
C2221 C 0.39554 0.25893 0.12575 0.0
C2222 C 0.38444 0.30828 0.10531 0.0
C2223 C 0.4044 0.33368 0.09745 0.0
C2224 C 0.41767 0.33807 0.07016 0.0
C2225 C 0.40962 0.31681 0.05028 0.0
C2226 C 0.38963 0.29143 0.05817 0.0
H2227 H 0.39952 0.24478 0.13813 0.0
H2228 H 0.40937 0.26687 0.10661 0.0
H2229 H 0.39984 0.27581 0.14056 0.0
H2230 H 0.37509 0.30506 0.12688 0.0
H2231 H 0.41008 0.34962 0.11321 0.0
H2232 H 0.83263 0.14193 0.1941 0.0
H2233 H 0.79 0.13058 0.17143 0.0
H2234 H 0.8262 0.1459 0.08467 0.0
H2235 H 0.86847 0.15589 0.10741 0.0
H2236 H 0.77322 0.15633 0.14022 0.0
H2237 H 0.76493 0.07482 0.06933 0.0
H2238 H 0.79031 0.09033 0.09718 0.0
H2239 H 0.7941 0.10583 0.06155 0.0
C2240 C 0.83142 0.14299 0.17021 0.0
C2241 C 0.85362 0.14949 0.1524 0.0
C2242 C 0.80707 0.1364 0.15722 0.0
C2243 C 0.80456 0.13662 0.12619 0.0
C2244 C 0.82722 0.14452 0.10852 0.0
H2245 H 0.67002 0.12168 0.02411 0.0
H2246 H 0.71424 0.1306 0.0391 0.0
C2247 C 0.85143 0.1505 0.1215 0.0
C2248 C 0.77831 0.12898 0.11267 0.0
H2249 H 0.73238 0.08766 0.06212 0.0
C2250 C 0.76435 0.14125 0.12321 0.0
C2251 C 0.76655 0.10923 0.09042 0.0
C2252 C 0.77962 0.09411 0.07916 0.0
C2253 C 0.73915 0.13438 0.11226 0.0
C2254 C 0.72756 0.11486 0.09002 0.0
C2255 C 0.74147 0.10273 0.0791 0.0
C2256 C 0.70061 0.10649 0.07868 0.0
C2257 C 0.72486 0.14791 0.12463 0.0
C2258 C 0.67829 0.08934 0.09553 0.0
C2259 C 0.65302 0.08413 0.08705 0.0
C2260 C 0.64958 0.09606 0.06155 0.0
C2261 C 0.6719 0.11213 0.04384 0.0
C2262 C 0.6972 0.11729 0.05236 0.0
H2263 H 0.73763 0.16456 0.13963 0.0
H2264 H 0.71781 0.15557 0.10629 0.0
H2265 H 0.70717 0.13333 0.13728 0.0
H2266 H 0.68057 0.08079 0.1159 0.0
H2267 H 0.63633 0.07162 0.10118 0.0
H2268 H 0.87438 0.55337 0.03069 0.0
H2269 H 0.86265 0.58644 0.04631 0.0
H2270 H 0.92089 0.61191 0.11605 0.0
H2271 H 0.93281 0.57897 0.1006 0.0
H2272 H 0.84261 0.58703 0.10319 0.0
H2273 H 0.93408 0.68195 0.07858 0.0
H2274 H 0.92711 0.65096 0.06194 0.0
H2275 H 0.93976 0.65881 0.09912 0.0
C2276 C 0.88518 0.56643 0.0489 0.0
C2277 C 0.90457 0.56353 0.06443 0.0
C2278 C 0.87831 0.58522 0.0579 0.0
C2279 C 0.89095 0.60169 0.08227 0.0
C2280 C 0.91111 0.59964 0.09696 0.0
H2281 H 0.8626 0.7083 0.19119 0.0
H2282 H 0.87242 0.67401 0.17413 0.0
C2283 C 0.91786 0.58074 0.08813 0.0
C2284 C 0.88171 0.61955 0.09384 0.0
H2285 H 0.90209 0.68424 0.10959 0.0
C2286 C 0.85556 0.6083 0.10443 0.0
C2287 C 0.89862 0.64729 0.09538 0.0
C2288 C 0.92639 0.66056 0.08291 0.0
C2289 C 0.84609 0.62404 0.11707 0.0
C2290 C 0.86318 0.65163 0.11918 0.0
C2291 C 0.8892 0.66296 0.10832 0.0
C2292 C 0.85406 0.66935 0.1312 0.0
C2293 C 0.81797 0.61123 0.12837 0.0
C2294 C 0.83991 0.67741 0.11296 0.0
C2295 C 0.83443 0.69697 0.12253 0.0
C2296 C 0.84283 0.70868 0.15063 0.0
C2297 C 0.85557 0.69938 0.16962 0.0
C2298 C 0.86137 0.67999 0.15983 0.0
H2299 H 0.80788 0.58928 0.12751 0.0
H2300 H 0.81777 0.61746 0.15159 0.0
H2301 H 0.80654 0.61796 0.11475 0.0
H2302 H 0.83417 0.66943 0.09079 0.0
H2303 H 0.82464 0.70379 0.1074 0.0
loop_
_geom_bond_atom_site_label_1
_geom_bond_atom_site_label_2
_geom_bond_distance
_geom_bond_site_symmetry_2
_ccdc_geom_bond_type
Zn0 O6 1.969 . S
Zn0 O7 1.965 . S
Zn0 O11 2.024 . S
Zn0 O16 1.969 . S
Zn1 O8 1.969 . S
Zn1 O14 1.969 . S
Zn1 O15 1.965 . S
Zn1 O17 2.024 . S
C2 O3 1.229 . S
C2 O11 1.058 . S
O3 C2 1.229 . S
C4 O5 1.229 . S
C4 O17 1.058 . S
O5 C4 1.229 . S
O6 Zn0 1.969 . S
O6 C9 1.267 . S
O7 Zn0 1.965 . S
O7 C18 1.260 . S
O8 Zn1 1.969 . S
O8 C18 1.258 1_556 S
C9 O6 1.267 . S
C9 O10 1.228 . S
O10 C9 1.228 . S
O11 Zn0 2.024 . S
O11 C2 1.058 . S
C12 O13 1.228 . S
C12 O14 1.267 . S
O13 C12 1.228 . S
O14 Zn1 1.969 . S
O14 C12 1.267 . S
O15 Zn1 1.965 . S
O15 C19 1.285 . S
O16 Zn0 1.969 . S
O16 C19 1.225 1_554 S
O17 Zn1 2.024 . S
O17 C4 1.058 . S
C18 O7 1.260 . S
C18 O8 1.258 1_554 S
C19 O15 1.285 . S
C19 O16 1.225 1_556 S
Zn20 O26 1.969 . S
Zn20 O27 1.965 . S
Zn20 O31 2.024 . S
Zn20 O36 1.969 . S
Zn21 O28 1.969 . S
Zn21 O34 1.969 . S
Zn21 O35 1.965 . S
Zn21 O37 2.024 . S
C22 O23 1.229 . S
C22 O31 1.058 . S
O23 C22 1.229 . S
C24 O25 1.229 . S
C24 O37 1.058 . S
O25 C24 1.229 . S
O26 Zn20 1.969 . S
O26 C29 1.267 . S
O27 Zn20 1.965 . S
O27 C38 1.260 . S
O28 Zn21 1.969 . S
O28 C38 1.258 1_556 S
C29 O26 1.267 . S
C29 O30 1.228 . S
O30 C29 1.228 . S
O31 Zn20 2.024 . S
O31 C22 1.058 . S
C32 O33 1.228 . S
C32 O34 1.267 . S
O33 C32 1.228 . S
O34 Zn21 1.969 . S
O34 C32 1.267 . S
O35 Zn21 1.965 . S
O35 C39 1.285 . S
O36 Zn20 1.969 . S
O36 C39 1.225 1_554 S
O37 Zn21 2.024 . S
O37 C24 1.058 . S
C38 O27 1.260 . S
C38 O28 1.258 1_554 S
C39 O35 1.285 . S
C39 O36 1.225 1_556 S
Zn40 O46 1.969 . S
Zn40 O47 1.965 . S
Zn40 O51 2.024 . S
Zn40 O56 1.969 . S
Zn41 O48 1.969 . S
Zn41 O54 1.969 . S
Zn41 O55 1.965 . S
Zn41 O57 2.024 . S
C42 O43 1.229 . S
C42 O51 1.058 . S
O43 C42 1.229 . S
C44 O45 1.229 . S
C44 O57 1.058 . S
O45 C44 1.229 . S
O46 Zn40 1.969 . S
O46 C49 1.267 . S
O47 Zn40 1.965 . S
O47 C58 1.260 . S
O48 Zn41 1.969 . S
O48 C58 1.258 1_556 S
C49 O46 1.267 . S
C49 O50 1.228 . S
O50 C49 1.228 . S
O51 Zn40 2.024 . S
O51 C42 1.058 . S
C52 O53 1.228 . S
C52 O54 1.267 . S
O53 C52 1.228 . S
O54 Zn41 1.969 . S
O54 C52 1.267 . S
O55 Zn41 1.965 . S
O55 C59 1.284 . S
O56 Zn40 1.969 . S
O56 C59 1.225 1_554 S
O57 Zn41 2.024 . S
O57 C44 1.058 . S
C58 O47 1.260 . S
C58 O48 1.258 1_554 S
C59 O55 1.284 . S
C59 O56 1.225 1_556 S
Zn60 O66 1.969 . S
Zn60 O67 1.965 . S
Zn60 O71 2.024 . S
Zn60 O76 1.969 . S
Zn61 O68 1.969 . S
Zn61 O74 1.969 . S
Zn61 O75 1.965 . S
Zn61 O77 2.024 . S
C62 O63 1.229 . S
C62 O71 1.058 . S
O63 C62 1.229 . S
C64 O65 1.229 . S
C64 O77 1.058 . S
O65 C64 1.229 . S
O66 Zn60 1.969 . S
O66 C69 1.267 . S
O67 Zn60 1.965 . S
O67 C78 1.260 . S
O68 Zn61 1.969 . S
O68 C78 1.258 . S
C69 O66 1.267 . S
C69 O70 1.228 . S
O70 C69 1.228 . S
O71 Zn60 2.024 . S
O71 C62 1.058 . S
C72 O73 1.228 . S
C72 O74 1.267 . S
O73 C72 1.228 . S
O74 Zn61 1.969 . S
O74 C72 1.267 . S
O75 Zn61 1.965 . S
O75 C79 1.260 . S
O76 Zn60 1.969 . S
O76 C79 1.258 . S
O77 Zn61 2.024 . S
O77 C64 1.058 . S
C78 O67 1.260 . S
C78 O68 1.258 . S
C79 O75 1.260 . S
C79 O76 1.258 . S
Zn80 O86 1.969 . S
Zn80 O87 1.965 . S
Zn80 O91 2.024 . S
Zn80 O96 1.969 . S
Zn81 O88 1.969 . S
Zn81 O94 1.969 . S
Zn81 O95 1.965 . S
Zn81 O97 2.024 . S
C82 O83 1.229 . S
C82 O91 1.058 . S
O83 C82 1.229 . S
C84 O85 1.229 . S
C84 O97 1.058 . S
O85 C84 1.229 . S
O86 Zn80 1.969 . S
O86 C89 1.267 . S
O87 Zn80 1.965 . S
O87 C98 1.260 . S
O88 Zn81 1.969 . S
O88 C98 1.258 . S
C89 O86 1.267 . S
C89 O90 1.228 . S
O90 C89 1.228 . S
O91 Zn80 2.024 . S
O91 C82 1.058 . S
C92 O93 1.228 . S
C92 O94 1.267 . S
O93 C92 1.228 . S
O94 Zn81 1.969 . S
O94 C92 1.267 . S
O95 Zn81 1.965 . S
O95 C99 1.260 . S
O96 Zn80 1.969 . S
O96 C99 1.258 . S
O97 Zn81 2.024 . S
O97 C84 1.058 . S
C98 O87 1.260 . S
C98 O88 1.258 . S
C99 O95 1.260 . S
C99 O96 1.258 . S
Zn100 O106 1.969 . S
Zn100 O107 1.965 . S
Zn100 O111 2.024 . S
Zn100 O116 1.969 . S
Zn101 O108 1.969 . S
Zn101 O114 1.969 . S
Zn101 O115 1.965 . S
Zn101 O117 2.024 . S
C102 O103 1.229 . S
C102 O111 1.058 . S
O103 C102 1.229 . S
C104 O105 1.229 . S
C104 O117 1.058 . S
O105 C104 1.229 . S
O106 Zn100 1.969 . S
O106 C109 1.267 . S
O107 Zn100 1.965 . S
O107 C118 1.260 . S
O108 Zn101 1.969 . S
O108 C118 1.258 . S
C109 O106 1.267 . S
C109 O110 1.228 . S
O110 C109 1.228 . S
O111 Zn100 2.024 . S
O111 C102 1.058 . S
C112 O113 1.228 . S
C112 O114 1.267 . S
O113 C112 1.228 . S
O114 Zn101 1.969 . S
O114 C112 1.267 . S
O115 Zn101 1.965 . S
O115 C119 1.260 . S
O116 Zn100 1.969 . S
O116 C119 1.258 . S
O117 Zn101 2.024 . S
O117 C104 1.058 . S
C118 O107 1.260 . S
C118 O108 1.258 . S
C119 O115 1.260 . S
C119 O116 1.258 . S
Zn120 O126 1.969 . S
Zn120 O127 1.965 . S
Zn120 O131 2.024 . S
Zn120 O136 1.969 . S
Zn121 O128 1.969 . S
Zn121 O134 1.969 . S
Zn121 O135 1.965 . S
Zn121 O137 2.024 . S
C122 O123 1.229 . S
C122 O131 1.058 . S
O123 C122 1.229 . S
C124 O125 1.229 . S
C124 O137 1.058 . S
O125 C124 1.229 . S
O126 Zn120 1.969 . S
O126 C129 1.267 . S
O127 Zn120 1.965 . S
O127 C138 1.260 . S
O128 Zn121 1.969 . S
O128 C138 1.258 . S
C129 O126 1.267 . S
C129 O130 1.228 . S
O130 C129 1.228 . S
O131 Zn120 2.024 . S
O131 C122 1.058 . S
C132 O133 1.228 . S
C132 O134 1.267 . S
O133 C132 1.228 . S
O134 Zn121 1.969 . S
O134 C132 1.267 . S
O135 Zn121 1.965 . S
O135 C139 1.260 . S
O136 Zn120 1.969 . S
O136 C139 1.258 . S
O137 Zn121 2.024 . S
O137 C124 1.058 . S
C138 O127 1.260 . S
C138 O128 1.258 . S
C139 O135 1.260 . S
C139 O136 1.258 . S
Zn140 O146 1.969 . S
Zn140 O147 1.965 . S
Zn140 O151 2.024 . S
Zn140 O156 1.969 . S
Zn141 O148 1.969 . S
Zn141 O154 1.969 . S
Zn141 O155 1.965 . S
Zn141 O157 2.024 . S
C142 O143 1.229 . S
C142 O151 1.058 . S
O143 C142 1.229 . S
C144 O145 1.229 . S
C144 O157 1.058 . S
O145 C144 1.229 . S
O146 Zn140 1.969 . S
O146 C149 1.267 . S
O147 Zn140 1.965 . S
O147 C158 1.260 . S
O148 Zn141 1.969 . S
O148 C158 1.258 . S
C149 O146 1.267 . S
C149 O150 1.228 . S
O150 C149 1.228 . S
O151 Zn140 2.024 . S
O151 C142 1.058 . S
C152 O153 1.228 . S
C152 O154 1.267 . S
O153 C152 1.228 . S
O154 Zn141 1.969 . S
O154 C152 1.267 . S
O155 Zn141 1.965 . S
O155 C159 1.260 . S
O156 Zn140 1.969 . S
O156 C159 1.258 . S
O157 Zn141 2.024 . S
O157 C144 1.058 . S
C158 O147 1.260 . S
C158 O148 1.258 . S
C159 O155 1.260 . S
C159 O156 1.258 . S
Zn160 O166 1.969 . S
Zn160 O167 1.965 . S
Zn160 O171 2.024 . S
Zn160 O176 1.969 . S
Zn161 O168 1.969 . S
Zn161 O174 1.969 . S
Zn161 O175 1.965 . S
Zn161 O177 2.024 . S
C162 O163 1.229 . S
C162 O171 1.058 . S
O163 C162 1.229 . S
C164 O165 1.229 . S
C164 O177 1.058 . S
O165 C164 1.229 . S
O166 Zn160 1.969 . S
O166 C169 1.267 . S
O167 Zn160 1.965 . S
O167 C178 1.260 . S
O168 Zn161 1.969 . S
O168 C178 1.258 . S
C169 O166 1.267 . S
C169 O170 1.228 . S
O170 C169 1.228 . S
O171 Zn160 2.024 . S
O171 C162 1.058 . S
C172 O173 1.228 . S
C172 O174 1.267 . S
O173 C172 1.228 . S
O174 Zn161 1.969 . S
O174 C172 1.267 . S
O175 Zn161 1.965 . S
O175 C179 1.260 . S
O176 Zn160 1.969 . S
O176 C179 1.258 . S
O177 Zn161 2.024 . S
O177 C164 1.058 . S
C178 O167 1.260 . S
C178 O168 1.258 . S
C179 O175 1.260 . S
C179 O176 1.258 . S
Zn180 O186 1.969 . S
Zn180 O187 1.965 . S
Zn180 O191 2.024 . S
Zn180 O196 1.969 . S
Zn181 O188 1.969 . S
Zn181 O194 1.969 . S
Zn181 O195 1.965 . S
Zn181 O197 2.024 . S
C182 O183 1.229 . S
C182 O191 1.058 . S
O183 C182 1.229 . S
C184 O185 1.229 . S
C184 O197 1.058 . S
O185 C184 1.229 . S
O186 Zn180 1.969 . S
O186 C189 1.267 . S
O187 Zn180 1.965 . S
O187 C198 1.260 . S
O188 Zn181 1.969 . S
O188 C198 1.258 . S
C189 O186 1.267 . S
C189 O190 1.228 . S
O190 C189 1.228 . S
O191 Zn180 2.024 . S
O191 C182 1.058 . S
C192 O193 1.228 . S
C192 O194 1.267 . S
O193 C192 1.228 . S
O194 Zn181 1.969 . S
O194 C192 1.267 . S
O195 Zn181 1.965 . S
O195 C199 1.260 . S
O196 Zn180 1.969 . S
O196 C199 1.258 . S
O197 Zn181 2.024 . S
O197 C184 1.058 . S
C198 O187 1.260 . S
C198 O188 1.258 . S
C199 O195 1.260 . S
C199 O196 1.258 . S
Zn200 O206 1.969 . S
Zn200 O207 1.965 . S
Zn200 O211 2.024 . S
Zn200 O216 1.969 . S
Zn201 O208 1.969 . S
Zn201 O214 1.969 . S
Zn201 O215 1.965 . S
Zn201 O217 2.024 . S
C202 O203 1.229 . S
C202 O211 1.058 . S
O203 C202 1.229 . S
C204 O205 1.229 . S
C204 O217 1.058 . S
O205 C204 1.229 . S
O206 Zn200 1.969 . S
O206 C209 1.267 . S
O207 Zn200 1.965 . S
O207 C218 1.260 . S
O208 Zn201 1.969 . S
O208 C218 1.258 . S
C209 O206 1.267 . S
C209 O210 1.228 . S
O210 C209 1.228 . S
O211 Zn200 2.024 . S
O211 C202 1.058 . S
C212 O213 1.228 . S
C212 O214 1.267 . S
O213 C212 1.228 . S
O214 Zn201 1.969 . S
O214 C212 1.267 . S
O215 Zn201 1.965 . S
O215 C219 1.260 . S
O216 Zn200 1.969 . S
O216 C219 1.258 . S
O217 Zn201 2.024 . S
O217 C204 1.058 . S
C218 O207 1.260 . S
C218 O208 1.258 . S
C219 O215 1.260 . S
C219 O216 1.258 . S
Zn220 O226 1.969 . S
Zn220 O227 1.965 . S
Zn220 O231 2.024 . S
Zn220 O236 1.969 . S
Zn221 O228 1.969 . S
Zn221 O234 1.969 . S
Zn221 O235 1.965 . S
Zn221 O237 2.024 . S
C222 O223 1.229 . S
C222 O231 1.058 . S
O223 C222 1.229 . S
C224 O225 1.229 . S
C224 O237 1.058 . S
O225 C224 1.229 . S
O226 Zn220 1.969 . S
O226 C229 1.267 . S
O227 Zn220 1.965 . S
O227 C238 1.260 . S
O228 Zn221 1.969 . S
O228 C238 1.258 . S
C229 O226 1.267 . S
C229 O230 1.228 . S
O230 C229 1.228 . S
O231 Zn220 2.024 . S
O231 C222 1.058 . S
C232 O233 1.228 . S
C232 O234 1.267 . S
O233 C232 1.228 . S
O234 Zn221 1.969 . S
O234 C232 1.267 . S
O235 Zn221 1.965 . S
O235 C239 1.260 . S
O236 Zn220 1.969 . S
O236 C239 1.258 . S
O237 Zn221 2.024 . S
O237 C224 1.058 . S
C238 O227 1.260 . S
C238 O228 1.258 . S
C239 O235 1.260 . S
C239 O236 1.258 . S
Zn240 O246 1.969 . S
Zn240 O247 1.965 . S
Zn240 O251 2.024 . S
Zn240 O256 1.969 . S
Zn241 O248 1.969 . S
Zn241 O254 1.969 . S
Zn241 O255 1.965 . S
Zn241 O257 2.024 . S
C242 O243 1.229 . S
C242 O251 1.058 . S
O243 C242 1.229 . S
C244 O245 1.229 . S
C244 O257 1.058 . S
O245 C244 1.229 . S
O246 Zn240 1.969 . S
O246 C249 1.267 . S
O247 Zn240 1.965 . S
O247 C258 1.260 . S
O248 Zn241 1.969 . S
O248 C258 1.258 . S
C249 O246 1.267 . S
C249 O250 1.228 . S
O250 C249 1.228 . S
O251 Zn240 2.024 . S
O251 C242 1.058 . S
C252 O253 1.228 . S
C252 O254 1.267 . S
O253 C252 1.228 . S
O254 Zn241 1.969 . S
O254 C252 1.267 . S
O255 Zn241 1.965 . S
O255 C259 1.260 . S
O256 Zn240 1.969 . S
O256 C259 1.258 . S
O257 Zn241 2.024 . S
O257 C244 1.058 . S
C258 O247 1.260 . S
C258 O248 1.258 . S
C259 O255 1.260 . S
C259 O256 1.258 . S
Zn260 O266 1.969 . S
Zn260 O267 1.965 . S
Zn260 O271 2.024 . S
Zn260 O276 1.969 . S
Zn261 O268 1.969 . S
Zn261 O274 1.969 . S
Zn261 O275 1.965 . S
Zn261 O277 2.024 . S
C262 O263 1.229 . S
C262 O271 1.058 . S
O263 C262 1.229 . S
C264 O265 1.229 . S
C264 O277 1.058 . S
O265 C264 1.229 . S
O266 Zn260 1.969 . S
O266 C269 1.267 . S
O267 Zn260 1.965 . S
O267 C278 1.260 . S
O268 Zn261 1.969 . S
O268 C278 1.258 . S
C269 O266 1.267 . S
C269 O270 1.228 . S
O270 C269 1.228 . S
O271 Zn260 2.024 . S
O271 C262 1.058 . S
C272 O273 1.228 . S
C272 O274 1.267 . S
O273 C272 1.228 . S
O274 Zn261 1.969 . S
O274 C272 1.267 . S
O275 Zn261 1.965 . S
O275 C279 1.260 . S
O276 Zn260 1.969 . S
O276 C279 1.258 . S
O277 Zn261 2.024 . S
O277 C264 1.058 . S
C278 O267 1.260 . S
C278 O268 1.258 . S
C279 O275 1.260 . S
C279 O276 1.258 . S
Zn280 O286 1.969 . S
Zn280 O287 1.965 . S
Zn280 O291 2.024 . S
Zn280 O296 1.969 . S
Zn281 O288 1.969 . S
Zn281 O294 1.969 . S
Zn281 O295 1.965 . S
Zn281 O297 2.024 . S
C282 O283 1.229 . S
C282 O291 1.058 . S
O283 C282 1.229 . S
C284 O285 1.229 . S
C284 O297 1.058 . S
O285 C284 1.229 . S
O286 Zn280 1.969 . S
O286 C289 1.267 . S
O287 Zn280 1.965 . S
O287 C298 1.260 . S
O288 Zn281 1.969 . S
O288 C298 1.258 . S
C289 O286 1.267 . S
C289 O290 1.228 . S
O290 C289 1.228 . S
O291 Zn280 2.024 . S
O291 C282 1.058 . S
C292 O293 1.228 . S
C292 O294 1.267 . S
O293 C292 1.228 . S
O294 Zn281 1.969 . S
O294 C292 1.267 . S
O295 Zn281 1.965 . S
O295 C299 1.260 . S
O296 Zn280 1.969 . S
O296 C299 1.258 . S
O297 Zn281 2.024 . S
O297 C284 1.058 . S
C298 O287 1.260 . S
C298 O288 1.258 . S
C299 O295 1.260 . S
C299 O296 1.258 . S
Zn300 O306 1.969 . S
Zn300 O307 1.965 . S
Zn300 O311 2.024 . S
Zn300 O316 1.969 . S
Zn301 O308 1.969 . S
Zn301 O314 1.969 . S
Zn301 O315 1.965 . S
Zn301 O317 2.024 . S
C302 O303 1.229 . S
C302 O311 1.058 . S
O303 C302 1.229 . S
C304 O305 1.229 . S
C304 O317 1.058 . S
O305 C304 1.229 . S
O306 Zn300 1.969 . S
O306 C309 1.267 . S
O307 Zn300 1.965 . S
O307 C318 1.260 . S
O308 Zn301 1.969 . S
O308 C318 1.258 . S
C309 O306 1.267 . S
C309 O310 1.228 . S
O310 C309 1.228 . S
O311 Zn300 2.024 . S
O311 C302 1.058 . S
C312 O313 1.228 . S
C312 O314 1.267 . S
O313 C312 1.228 . S
O314 Zn301 1.969 . S
O314 C312 1.267 . S
O315 Zn301 1.965 . S
O315 C319 1.260 . S
O316 Zn300 1.969 . S
O316 C319 1.258 . S
O317 Zn301 2.024 . S
O317 C304 1.058 . S
C318 O307 1.260 . S
C318 O308 1.258 . S
C319 O315 1.260 . S
C319 O316 1.258 . S
Zn320 O326 1.969 . S
Zn320 O327 1.965 . S
Zn320 O331 2.024 . S
Zn320 O336 1.969 . S
Zn321 O328 1.969 . S
Zn321 O334 1.969 . S
Zn321 O335 1.965 . S
Zn321 O337 2.024 . S
C322 O323 1.229 . S
C322 O331 1.058 . S
O323 C322 1.229 . S
C324 O325 1.229 . S
C324 O337 1.058 . S
O325 C324 1.229 . S
O326 Zn320 1.969 . S
O326 C329 1.267 . S
O327 Zn320 1.965 . S
O327 C338 1.260 . S
O328 Zn321 1.969 . S
O328 C338 1.258 . S
C329 O326 1.267 . S
C329 O330 1.228 . S
O330 C329 1.228 . S
O331 Zn320 2.024 . S
O331 C322 1.058 . S
C332 O333 1.228 . S
C332 O334 1.267 . S
O333 C332 1.228 . S
O334 Zn321 1.969 . S
O334 C332 1.267 . S
O335 Zn321 1.965 . S
O335 C339 1.260 . S
O336 Zn320 1.969 . S
O336 C339 1.258 . S
O337 Zn321 2.024 . S
O337 C324 1.058 . S
C338 O327 1.260 . S
C338 O328 1.258 . S
C339 O335 1.260 . S
C339 O336 1.258 . S
Zn340 O346 1.969 . S
Zn340 O347 1.965 . S
Zn340 O351 2.024 . S
Zn340 O356 1.969 . S
Zn341 O348 1.969 . S
Zn341 O354 1.969 . S
Zn341 O355 1.965 . S
Zn341 O357 2.024 . S
C342 O343 1.229 . S
C342 O351 1.058 . S
O343 C342 1.229 . S
C344 O345 1.229 . S
C344 O357 1.058 . S
O345 C344 1.229 . S
O346 Zn340 1.969 . S
O346 C349 1.267 . S
O347 Zn340 1.965 . S
O347 C358 1.260 . S
O348 Zn341 1.969 . S
O348 C358 1.258 . S
C349 O346 1.267 . S
C349 O350 1.228 . S
O350 C349 1.228 . S
O351 Zn340 2.024 . S
O351 C342 1.058 . S
C352 O353 1.228 . S
C352 O354 1.267 . S
O353 C352 1.228 . S
O354 Zn341 1.969 . S
O354 C352 1.267 . S
O355 Zn341 1.965 . S
O355 C359 1.260 . S
O356 Zn340 1.969 . S
O356 C359 1.258 . S
O357 Zn341 2.024 . S
O357 C344 1.058 . S
C358 O347 1.260 . S
C358 O348 1.258 . S
C359 O355 1.260 . S
C359 O356 1.258 . S
H360 C368 0.929 . S
H361 C370 0.930 . S
H362 C372 0.930 . S
H363 C375 0.929 . S
H364 C378 0.930 . S
H365 C380 0.960 . S
H366 C380 0.960 . S
H367 C380 0.960 . S
C368 H360 0.929 . S
C368 C369 1.377 1_554 S
C368 C370 1.384 . S
C369 C368 1.377 1_556 S
C369 C375 1.390 . S
C370 H361 0.930 . S
C370 C368 1.384 . S
C370 C371 1.372 1_554 S
C371 C370 1.372 1_556 S
C371 C372 1.400 . S
C371 C376 1.490 . S
C372 H362 0.930 . S
C372 C371 1.400 . S
C372 C375 1.386 . S
H373 C389 0.930 . S
H374 C390 0.931 . S
C375 H363 0.929 . S
C375 C369 1.390 . S
C375 C372 1.386 . S
C376 C371 1.490 . S
C376 C378 1.395 1_556 S
C376 C379 1.403 . S
H377 C383 0.930 . S
C378 H364 0.930 . S
C378 C376 1.395 1_554 S
C378 C381 1.403 . S
C379 C376 1.403 . S
C379 C380 1.524 . S
C379 C383 1.400 . S
C380 H365 0.960 . S
C380 H366 0.960 . S
C380 H367 0.960 . S
C380 C379 1.524 . S
C381 C378 1.403 . S
C381 C382 1.392 . S
C381 C385 1.495 . S
C382 C381 1.392 . S
C382 C383 1.385 1_554 S
C382 C384 1.478 . S
C383 H377 0.930 . S
C383 C379 1.400 . S
C383 C382 1.385 1_556 S
C384 C382 1.478 . S
C384 C386 1.381 . S
C384 C390 1.383 1_554 S
C385 C381 1.495 . S
C385 H391 0.959 . S
C385 H392 0.961 . S
C385 H393 0.960 . S
C386 C384 1.381 . S
C386 C387 1.394 . S
C386 H394 0.930 . S
C387 C386 1.394 . S
C387 C388 1.383 . S
C387 H395 0.929 . S
C388 C387 1.383 . S
C388 C389 1.377 1_554 S
C389 H373 0.930 . S
C389 C388 1.377 1_556 S
C389 C390 1.379 . S
C390 H374 0.931 . S
C390 C384 1.383 1_556 S
C390 C389 1.379 . S
H391 C385 0.959 . S
H392 C385 0.961 . S
H393 C385 0.960 . S
H394 C386 0.930 . S
H395 C387 0.929 . S
H396 C404 0.929 . S
H397 C406 0.930 . S
H398 C408 0.930 . S
H399 C411 0.929 1_556 S
H400 C414 0.930 . S
H401 C416 0.960 . S
H402 C416 0.960 . S
H403 C416 0.960 . S
C404 H396 0.929 . S
C404 C405 1.377 . S
C404 C406 1.384 . S
C405 C404 1.377 . S
C405 C411 1.390 . S
C406 H397 0.930 . S
C406 C404 1.384 . S
C406 C407 1.372 . S
C407 C406 1.372 . S
C407 C408 1.400 1_554 S
C407 C412 1.490 . S
C408 H398 0.930 . S
C408 C407 1.400 1_556 S
C408 C411 1.386 1_556 S
H409 C425 0.930 . S
H410 C426 0.931 . S
C411 H399 0.929 1_554 S
C411 C405 1.390 . S
C411 C408 1.386 1_554 S
C412 C407 1.490 . S
C412 C414 1.395 . S
C412 C415 1.403 1_554 S
H413 C419 0.930 . S
C414 H400 0.930 . S
C414 C412 1.395 . S
C414 C417 1.403 . S
C415 C412 1.403 1_556 S
C415 C416 1.524 . S
C415 C419 1.400 . S
C416 H401 0.960 . S
C416 H402 0.960 . S
C416 H403 0.960 . S
C416 C415 1.524 . S
C417 C414 1.403 . S
C417 C418 1.392 1_554 S
C417 C421 1.495 . S
C418 C417 1.392 1_556 S
C418 C419 1.385 . S
C418 C420 1.478 . S
C419 H413 0.930 . S
C419 C415 1.400 . S
C419 C418 1.385 . S
C420 C418 1.478 . S
C420 C422 1.381 . S
C420 C426 1.383 . S
C421 C417 1.495 . S
C421 H427 0.959 . S
C421 H428 0.961 . S
C421 H429 0.960 . S
C422 C420 1.381 . S
C422 C423 1.394 . S
C422 H430 0.930 1_556 S
C423 C422 1.394 . S
C423 C424 1.383 . S
C423 H431 0.929 . S
C424 C423 1.383 . S
C424 C425 1.377 . S
C425 H409 0.930 . S
C425 C424 1.377 . S
C425 C426 1.379 . S
C426 H410 0.931 . S
C426 C420 1.383 . S
C426 C425 1.379 . S
H427 C421 0.959 . S
H428 C421 0.961 . S
H429 C421 0.960 . S
H430 C422 0.930 1_554 S
H431 C423 0.929 . S
H432 C440 0.929 . S
H433 C442 0.930 . S
H434 C444 0.930 . S
H435 C447 0.929 . S
H436 C450 0.930 . S
H437 C452 0.960 . S
H438 C452 0.960 . S
H439 C452 0.960 . S
C440 H432 0.929 . S
C440 C441 1.377 . S
C440 C442 1.384 . S
C441 C440 1.377 . S
C441 C447 1.390 . S
C442 H433 0.930 . S
C442 C440 1.384 . S
C442 C443 1.372 . S
C443 C442 1.372 . S
C443 C444 1.400 . S
C443 C448 1.490 . S
C444 H434 0.930 . S
C444 C443 1.400 . S
C444 C447 1.386 . S
H445 C461 0.930 . S
H446 C462 0.931 . S
C447 H435 0.929 . S
C447 C441 1.390 . S
C447 C444 1.386 . S
C448 C443 1.490 . S
C448 C450 1.395 . S
C448 C451 1.403 1_556 S
H449 C455 0.930 . S
C450 H436 0.930 . S
C450 C448 1.395 . S
C450 C453 1.403 . S
C451 C448 1.403 1_554 S
C451 C452 1.524 . S
C451 C455 1.400 . S
C452 H437 0.960 . S
C452 H438 0.960 . S
C452 H439 0.960 . S
C452 C451 1.524 . S
C453 C450 1.403 . S
C453 C454 1.392 . S
C453 C457 1.495 . S
C454 C453 1.392 . S
C454 C455 1.385 1_556 S
C454 C456 1.471 1_556 S
C455 H449 0.930 . S
C455 C451 1.400 . S
C455 C454 1.385 1_554 S
C456 C454 1.471 1_554 S
C456 C458 1.385 . S
C456 C462 1.389 . S
C457 C453 1.495 . S
C457 H463 0.959 . S
C457 H464 0.961 . S
C457 H465 0.960 . S
C458 C456 1.385 . S
C458 C459 1.394 . S
C458 H466 0.930 . S
C459 C458 1.394 . S
C459 C460 1.383 . S
C459 H467 0.929 . S
C460 C459 1.383 . S
C460 C461 1.377 . S
C461 H445 0.930 . S
C461 C460 1.377 . S
C461 C462 1.379 . S
C462 H446 0.931 . S
C462 C456 1.389 . S
C462 C461 1.379 . S
H463 C457 0.959 . S
H464 C457 0.961 . S
H465 C457 0.960 . S
H466 C458 0.930 . S
H467 C459 0.929 . S
H468 C476 0.929 . S
H469 C478 0.930 . S
H470 C480 0.930 . S
H471 C483 0.929 . S
H472 C486 0.930 . S
H473 C488 0.960 . S
H474 C488 0.960 . S
H475 C488 0.960 . S
C476 H468 0.929 . S
C476 C477 1.377 . S
C476 C478 1.384 . S
C477 C476 1.377 . S
C477 C483 1.390 . S
C478 H469 0.930 . S
C478 C476 1.384 . S
C478 C479 1.372 . S
C479 C478 1.372 . S
C479 C480 1.400 . S
C479 C484 1.490 . S
C480 H470 0.930 . S
C480 C479 1.400 . S
C480 C483 1.386 . S
H481 C497 0.930 . S
H482 C498 0.931 . S
C483 H471 0.929 . S
C483 C477 1.390 . S
C483 C480 1.386 . S
C484 C479 1.490 . S
C484 C486 1.395 . S
C484 C487 1.403 . S
H485 C491 0.930 . S
C486 H472 0.930 . S
C486 C484 1.395 . S
C486 C489 1.403 . S
C487 C484 1.403 . S
C487 C488 1.524 . S
C487 C491 1.400 . S
C488 H473 0.960 . S
C488 H474 0.960 . S
C488 H475 0.960 . S
C488 C487 1.524 . S
C489 C486 1.403 . S
C489 C490 1.392 . S
C489 C493 1.495 . S
C490 C489 1.392 . S
C490 C491 1.385 . S
C490 C492 1.478 . S
C491 H485 0.930 . S
C491 C487 1.400 . S
C491 C490 1.385 . S
C492 C490 1.478 . S
C492 C494 1.381 . S
C492 C498 1.383 . S
C493 C489 1.495 . S
C493 H499 0.959 . S
C493 H500 0.961 . S
C493 H501 0.960 . S
C494 C492 1.381 . S
C494 C495 1.394 . S
C494 H502 0.930 . S
C495 C494 1.394 . S
C495 C496 1.383 . S
C495 H503 0.929 . S
C496 C495 1.383 . S
C496 C497 1.377 . S
C497 H481 0.930 . S
C497 C496 1.377 . S
C497 C498 1.379 . S
C498 H482 0.931 . S
C498 C492 1.383 . S
C498 C497 1.379 . S
H499 C493 0.959 . S
H500 C493 0.961 . S
H501 C493 0.960 . S
H502 C494 0.930 . S
H503 C495 0.929 . S
H504 C512 0.929 . S
H505 C514 0.930 . S
H506 C516 0.930 . S
H507 C519 0.929 . S
H508 C522 0.930 . S
H509 C524 0.960 . S
H510 C524 0.960 . S
H511 C524 0.960 . S
C512 H504 0.929 . S
C512 C513 1.377 . S
C512 C514 1.384 . S
C513 C512 1.377 . S
C513 C519 1.390 . S
C514 H505 0.930 . S
C514 C512 1.384 . S
C514 C515 1.372 . S
C515 C514 1.372 . S
C515 C516 1.400 . S
C515 C520 1.490 . S
C516 H506 0.930 . S
C516 C515 1.400 . S
C516 C519 1.386 . S
H517 C533 0.930 . S
H518 C534 0.931 . S
C519 H507 0.929 . S
C519 C513 1.390 . S
C519 C516 1.386 . S
C520 C515 1.490 . S
C520 C522 1.395 . S
C520 C523 1.403 . S
H521 C527 0.930 . S
C522 H508 0.930 . S
C522 C520 1.395 . S
C522 C525 1.403 . S
C523 C520 1.403 . S
C523 C524 1.524 . S
C523 C527 1.400 . S
C524 H509 0.960 . S
C524 H510 0.960 . S
C524 H511 0.960 . S
C524 C523 1.524 . S
C525 C522 1.403 . S
C525 C526 1.392 . S
C525 C529 1.495 . S
C526 C525 1.392 . S
C526 C527 1.385 . S
C526 C528 1.478 . S
C527 H521 0.930 . S
C527 C523 1.400 . S
C527 C526 1.385 . S
C528 C526 1.478 . S
C528 C530 1.381 . S
C528 C534 1.383 . S
C529 C525 1.495 . S
C529 H535 0.959 . S
C529 H536 0.961 . S
C529 H537 0.960 . S
C530 C528 1.381 . S
C530 C531 1.394 . S
C530 H538 0.930 . S
C531 C530 1.394 . S
C531 C532 1.383 . S
C531 H539 0.929 . S
C532 C531 1.383 . S
C532 C533 1.377 . S
C533 H517 0.930 . S
C533 C532 1.377 . S
C533 C534 1.379 . S
C534 H518 0.931 . S
C534 C528 1.383 . S
C534 C533 1.379 . S
H535 C529 0.959 . S
H536 C529 0.961 . S
H537 C529 0.960 . S
H538 C530 0.930 . S
H539 C531 0.929 . S
H540 C548 0.929 . S
H541 C550 0.930 . S
H542 C552 0.930 . S
H543 C555 0.929 . S
H544 C558 0.930 . S
H545 C560 0.960 . S
H546 C560 0.960 . S
H547 C560 0.960 . S
C548 H540 0.929 . S
C548 C549 1.377 . S
C548 C550 1.384 . S
C549 C548 1.377 . S
C549 C555 1.390 . S
C550 H541 0.930 . S
C550 C548 1.384 . S
C550 C551 1.372 . S
C551 C550 1.372 . S
C551 C552 1.400 . S
C551 C556 1.490 . S
C552 H542 0.930 . S
C552 C551 1.400 . S
C552 C555 1.386 . S
H553 C569 0.930 . S
H554 C570 0.931 . S
C555 H543 0.929 . S
C555 C549 1.390 . S
C555 C552 1.386 . S
C556 C551 1.490 . S
C556 C558 1.395 . S
C556 C559 1.403 . S
H557 C563 0.930 . S
C558 H544 0.930 . S
C558 C556 1.395 . S
C558 C561 1.403 . S
C559 C556 1.403 . S
C559 C560 1.524 . S
C559 C563 1.400 . S
C560 H545 0.960 . S
C560 H546 0.960 . S
C560 H547 0.960 . S
C560 C559 1.524 . S
C561 C558 1.403 . S
C561 C562 1.392 . S
C561 C565 1.495 . S
C562 C561 1.392 . S
C562 C563 1.385 . S
C562 C564 1.478 . S
C563 H557 0.930 . S
C563 C559 1.400 . S
C563 C562 1.385 . S
C564 C562 1.478 . S
C564 C566 1.381 . S
C564 C570 1.383 . S
C565 C561 1.495 . S
C565 H571 0.959 . S
C565 H572 0.961 . S
C565 H573 0.960 . S
C566 C564 1.381 . S
C566 C567 1.394 . S
C566 H574 0.930 . S
C567 C566 1.394 . S
C567 C568 1.383 . S
C567 H575 0.929 . S
C568 C567 1.383 . S
C568 C569 1.377 . S
C569 H553 0.930 . S
C569 C568 1.377 . S
C569 C570 1.379 . S
C570 H554 0.931 . S
C570 C564 1.383 . S
C570 C569 1.379 . S
H571 C565 0.959 . S
H572 C565 0.961 . S
H573 C565 0.960 . S
H574 C566 0.930 . S
H575 C567 0.929 . S
H576 C584 0.929 . S
H577 C586 0.930 . S
H578 C588 0.930 . S
H579 C591 0.929 . S
H580 C594 0.930 . S
H581 C596 0.960 . S
H582 C596 0.960 . S
H583 C596 0.960 . S
C584 H576 0.929 . S
C584 C585 1.377 . S
C584 C586 1.384 . S
C585 C584 1.377 . S
C585 C591 1.390 . S
C586 H577 0.930 . S
C586 C584 1.384 . S
C586 C587 1.372 . S
C587 C586 1.372 . S
C587 C588 1.400 . S
C587 C592 1.490 . S
C588 H578 0.930 . S
C588 C587 1.400 . S
C588 C591 1.386 . S
H589 C605 0.930 . S
H590 C606 0.931 . S
C591 H579 0.929 . S
C591 C585 1.390 . S
C591 C588 1.386 . S
C592 C587 1.490 . S
C592 C594 1.395 . S
C592 C595 1.403 . S
H593 C599 0.930 . S
C594 H580 0.930 . S
C594 C592 1.395 . S
C594 C597 1.403 . S
C595 C592 1.403 . S
C595 C596 1.524 . S
C595 C599 1.400 . S
C596 H581 0.960 . S
C596 H582 0.960 . S
C596 H583 0.960 . S
C596 C595 1.524 . S
C597 C594 1.403 . S
C597 C598 1.392 . S
C597 C601 1.495 . S
C598 C597 1.392 . S
C598 C599 1.385 . S
C598 C600 1.478 . S
C599 H593 0.930 . S
C599 C595 1.400 . S
C599 C598 1.385 . S
C600 C598 1.478 . S
C600 C602 1.381 . S
C600 C606 1.383 . S
C601 C597 1.495 . S
C601 H607 0.959 . S
C601 H608 0.961 . S
C601 H609 0.960 . S
C602 C600 1.381 . S
C602 C603 1.394 . S
C602 H610 0.930 . S
C603 C602 1.394 . S
C603 C604 1.383 . S
C603 H611 0.929 . S
C604 C603 1.383 . S
C604 C605 1.377 . S
C605 H589 0.930 . S
C605 C604 1.377 . S
C605 C606 1.379 . S
C606 H590 0.931 . S
C606 C600 1.383 . S
C606 C605 1.379 . S
H607 C601 0.959 . S
H608 C601 0.961 . S
H609 C601 0.960 . S
H610 C602 0.930 . S
H611 C603 0.929 . S
H612 C620 0.929 . S
H613 C622 0.930 . S
H614 C624 0.930 . S
H615 C627 0.929 . S
H616 C630 0.930 . S
H617 C632 0.960 . S
H618 C632 0.960 . S
H619 C632 0.960 . S
C620 H612 0.929 . S
C620 C621 1.377 . S
C620 C622 1.384 . S
C621 C620 1.377 . S
C621 C627 1.390 . S
C622 H613 0.930 . S
C622 C620 1.384 . S
C622 C623 1.372 . S
C623 C622 1.372 . S
C623 C624 1.400 . S
C623 C628 1.490 . S
C624 H614 0.930 . S
C624 C623 1.400 . S
C624 C627 1.386 . S
H625 C641 0.930 . S
H626 C642 0.931 . S
C627 H615 0.929 . S
C627 C621 1.390 . S
C627 C624 1.386 . S
C628 C623 1.490 . S
C628 C630 1.395 . S
C628 C631 1.403 . S
H629 C635 0.930 . S
C630 H616 0.930 . S
C630 C628 1.395 . S
C630 C633 1.403 . S
C631 C628 1.403 . S
C631 C632 1.524 . S
C631 C635 1.400 . S
C632 H617 0.960 . S
C632 H618 0.960 . S
C632 H619 0.960 . S
C632 C631 1.524 . S
C633 C630 1.403 . S
C633 C634 1.392 . S
C633 C637 1.495 . S
C634 C633 1.392 . S
C634 C635 1.385 . S
C634 C636 1.478 . S
C635 H629 0.930 . S
C635 C631 1.400 . S
C635 C634 1.385 . S
C636 C634 1.478 . S
C636 C638 1.381 . S
C636 C642 1.383 . S
C637 C633 1.495 . S
C637 H643 0.959 . S
C637 H644 0.961 . S
C637 H645 0.960 . S
C638 C636 1.381 . S
C638 C639 1.394 . S
C638 H646 0.930 . S
C639 C638 1.394 . S
C639 C640 1.383 . S
C639 H647 0.929 . S
C640 C639 1.383 . S
C640 C641 1.377 . S
C641 H625 0.930 . S
C641 C640 1.377 . S
C641 C642 1.379 . S
C642 H626 0.931 . S
C642 C636 1.383 . S
C642 C641 1.379 . S
H643 C637 0.959 . S
H644 C637 0.961 . S
H645 C637 0.960 . S
H646 C638 0.930 . S
H647 C639 0.929 . S
H648 C656 0.929 . S
H649 C658 0.930 . S
H650 C660 0.930 . S
H651 C663 0.929 . S
H652 C666 0.930 . S
H653 C668 0.960 . S
H654 C668 0.960 . S
H655 C668 0.960 . S
C656 H648 0.929 . S
C656 C657 1.377 . S
C656 C658 1.384 . S
C657 C656 1.377 . S
C657 C663 1.390 . S
C658 H649 0.930 . S
C658 C656 1.384 . S
C658 C659 1.372 . S
C659 C658 1.372 . S
C659 C660 1.400 . S
C659 C664 1.490 . S
C660 H650 0.930 . S
C660 C659 1.400 . S
C660 C663 1.386 . S
H661 C677 0.930 . S
H662 C678 0.931 . S
C663 H651 0.929 . S
C663 C657 1.390 . S
C663 C660 1.386 . S
C664 C659 1.490 . S
C664 C666 1.395 . S
C664 C667 1.403 . S
H665 C671 0.930 . S
C666 H652 0.930 . S
C666 C664 1.395 . S
C666 C669 1.403 . S
C667 C664 1.403 . S
C667 C668 1.524 . S
C667 C671 1.400 . S
C668 H653 0.960 . S
C668 H654 0.960 . S
C668 H655 0.960 . S
C668 C667 1.524 . S
C669 C666 1.403 . S
C669 C670 1.392 . S
C669 C673 1.495 . S
C670 C669 1.392 . S
C670 C671 1.385 . S
C670 C672 1.478 . S
C671 H665 0.930 . S
C671 C667 1.400 . S
C671 C670 1.385 . S
C672 C670 1.478 . S
C672 C674 1.381 . S
C672 C678 1.383 . S
C673 C669 1.495 . S
C673 H679 0.959 . S
C673 H680 0.961 . S
C673 H681 0.960 . S
C674 C672 1.381 . S
C674 C675 1.394 . S
C674 H682 0.930 . S
C675 C674 1.394 . S
C675 C676 1.383 . S
C675 H683 0.929 . S
C676 C675 1.383 . S
C676 C677 1.377 . S
C677 H661 0.930 . S
C677 C676 1.377 . S
C677 C678 1.379 . S
C678 H662 0.931 . S
C678 C672 1.383 . S
C678 C677 1.379 . S
H679 C673 0.959 . S
H680 C673 0.961 . S
H681 C673 0.960 . S
H682 C674 0.930 . S
H683 C675 0.929 . S
H684 C692 0.929 . S
H685 C694 0.930 . S
H686 C696 0.930 . S
H687 C699 0.929 . S
H688 C702 0.930 . S
H689 C704 0.960 . S
H690 C704 0.960 . S
H691 C704 0.960 . S
C692 H684 0.929 . S
C692 C693 1.377 . S
C692 C694 1.384 . S
C693 C692 1.377 . S
C693 C699 1.390 . S
C694 H685 0.930 . S
C694 C692 1.384 . S
C694 C695 1.372 . S
C695 C694 1.372 . S
C695 C696 1.400 . S
C695 C700 1.490 . S
C696 H686 0.930 . S
C696 C695 1.400 . S
C696 C699 1.386 . S
H697 C713 0.930 . S
H698 C714 0.931 . S
C699 H687 0.929 . S
C699 C693 1.390 . S
C699 C696 1.386 . S
C700 C695 1.490 . S
C700 C702 1.395 . S
C700 C703 1.403 . S
H701 C707 0.930 . S
C702 H688 0.930 . S
C702 C700 1.395 . S
C702 C705 1.403 . S
C703 C700 1.403 . S
C703 C704 1.524 . S
C703 C707 1.400 . S
C704 H689 0.960 . S
C704 H690 0.960 . S
C704 H691 0.960 . S
C704 C703 1.524 . S
C705 C702 1.403 . S
C705 C706 1.392 . S
C705 C709 1.495 . S
C706 C705 1.392 . S
C706 C707 1.385 . S
C706 C708 1.478 . S
C707 H701 0.930 . S
C707 C703 1.400 . S
C707 C706 1.385 . S
C708 C706 1.478 . S
C708 C710 1.381 . S
C708 C714 1.383 . S
C709 C705 1.495 . S
C709 H715 0.959 . S
C709 H716 0.961 . S
C709 H717 0.960 . S
C710 C708 1.381 . S
C710 C711 1.394 . S
C710 H718 0.930 . S
C711 C710 1.394 . S
C711 C712 1.383 . S
C711 H719 0.929 . S
C712 C711 1.383 . S
C712 C713 1.377 . S
C713 H697 0.930 . S
C713 C712 1.377 . S
C713 C714 1.379 . S
C714 H698 0.931 . S
C714 C708 1.383 . S
C714 C713 1.379 . S
H715 C709 0.959 . S
H716 C709 0.961 . S
H717 C709 0.960 . S
H718 C710 0.930 . S
H719 C711 0.929 . S
H720 C728 0.929 . S
H721 C730 0.930 . S
H722 C732 0.930 . S
H723 C735 0.929 . S
H724 C738 0.930 . S
H725 C740 0.960 . S
H726 C740 0.960 . S
H727 C740 0.960 . S
C728 H720 0.929 . S
C728 C729 1.377 . S
C728 C730 1.384 . S
C729 C728 1.377 . S
C729 C735 1.390 . S
C730 H721 0.930 . S
C730 C728 1.384 . S
C730 C731 1.372 . S
C731 C730 1.372 . S
C731 C732 1.400 . S
C731 C736 1.490 . S
C732 H722 0.930 . S
C732 C731 1.400 . S
C732 C735 1.386 . S
H733 C749 0.930 . S
H734 C750 0.931 . S
C735 H723 0.929 . S
C735 C729 1.390 . S
C735 C732 1.386 . S
C736 C731 1.490 . S
C736 C738 1.395 . S
C736 C739 1.403 . S
H737 C743 0.930 . S
C738 H724 0.930 . S
C738 C736 1.395 . S
C738 C741 1.403 . S
C739 C736 1.403 . S
C739 C740 1.524 . S
C739 C743 1.400 . S
C740 H725 0.960 . S
C740 H726 0.960 . S
C740 H727 0.960 . S
C740 C739 1.524 . S
C741 C738 1.403 . S
C741 C742 1.392 . S
C741 C745 1.495 . S
C742 C741 1.392 . S
C742 C743 1.385 . S
C742 C744 1.478 . S
C743 H737 0.930 . S
C743 C739 1.400 . S
C743 C742 1.385 . S
C744 C742 1.478 . S
C744 C746 1.381 . S
C744 C750 1.383 . S
C745 C741 1.495 . S
C745 H751 0.959 . S
C745 H752 0.961 . S
C745 H753 0.960 . S
C746 C744 1.381 . S
C746 C747 1.394 . S
C746 H754 0.930 . S
C747 C746 1.394 . S
C747 C748 1.383 . S
C747 H755 0.929 . S
C748 C747 1.383 . S
C748 C749 1.377 . S
C749 H733 0.930 . S
C749 C748 1.377 . S
C749 C750 1.379 . S
C750 H734 0.931 . S
C750 C744 1.383 . S
C750 C749 1.379 . S
H751 C745 0.959 . S
H752 C745 0.961 . S
H753 C745 0.960 . S
H754 C746 0.930 . S
H755 C747 0.929 . S
H756 C764 0.929 . S
H757 C766 0.930 . S
H758 C768 0.930 . S
H759 C771 0.929 . S
H760 C774 0.930 . S
H761 C776 0.960 . S
H762 C776 0.960 . S
H763 C776 0.960 . S
C764 H756 0.929 . S
C764 C765 1.377 . S
C764 C766 1.384 . S
C765 C764 1.377 . S
C765 C771 1.390 . S
C766 H757 0.930 . S
C766 C764 1.384 . S
C766 C767 1.372 . S
C767 C766 1.372 . S
C767 C768 1.400 . S
C767 C772 1.490 . S
C768 H758 0.930 . S
C768 C767 1.400 . S
C768 C771 1.386 . S
H769 C785 0.930 . S
H770 C786 0.931 . S
C771 H759 0.929 . S
C771 C765 1.390 . S
C771 C768 1.386 . S
C772 C767 1.490 . S
C772 C774 1.395 . S
C772 C775 1.403 . S
H773 C779 0.930 . S
C774 H760 0.930 . S
C774 C772 1.395 . S
C774 C777 1.403 . S
C775 C772 1.403 . S
C775 C776 1.524 . S
C775 C779 1.400 . S
C776 H761 0.960 . S
C776 H762 0.960 . S
C776 H763 0.960 . S
C776 C775 1.524 . S
C777 C774 1.403 . S
C777 C778 1.392 . S
C777 C781 1.495 . S
C778 C777 1.392 . S
C778 C779 1.385 . S
C778 C780 1.478 . S
C779 H773 0.930 . S
C779 C775 1.400 . S
C779 C778 1.385 . S
C780 C778 1.478 . S
C780 C782 1.381 . S
C780 C786 1.383 . S
C781 C777 1.495 . S
C781 H787 0.959 . S
C781 H788 0.961 . S
C781 H789 0.960 . S
C782 C780 1.381 . S
C782 C783 1.394 . S
C782 H790 0.930 . S
C783 C782 1.394 . S
C783 C784 1.383 . S
C783 H791 0.929 . S
C784 C783 1.383 . S
C784 C785 1.377 . S
C785 H769 0.930 . S
C785 C784 1.377 . S
C785 C786 1.379 . S
C786 H770 0.931 . S
C786 C780 1.383 . S
C786 C785 1.379 . S
H787 C781 0.959 . S
H788 C781 0.961 . S
H789 C781 0.960 . S
H790 C782 0.930 . S
H791 C783 0.929 . S
H792 C800 0.929 . S
H793 C802 0.930 . S
H794 C804 0.930 . S
H795 C807 0.929 . S
H796 C810 0.930 . S
H797 C812 0.960 . S
H798 C812 0.960 . S
H799 C812 0.960 . S
C800 H792 0.929 . S
C800 C801 1.377 . S
C800 C802 1.384 . S
C801 C800 1.377 . S
C801 C807 1.390 . S
C802 H793 0.930 . S
C802 C800 1.384 . S
C802 C803 1.372 1_545 S
C803 C802 1.372 1_565 S
C803 C804 1.400 . S
C803 C808 1.490 . S
C804 H794 0.930 . S
C804 C803 1.400 . S
C804 C807 1.386 1_565 S
H805 C821 0.930 . S
H806 C822 0.931 . S
C807 H795 0.929 . S
C807 C801 1.390 . S
C807 C804 1.386 1_545 S
C808 C803 1.490 . S
C808 C810 1.395 . S
C808 C811 1.403 . S
H809 C815 0.930 . S
C810 H796 0.930 . S
C810 C808 1.395 . S
C810 C813 1.403 . S
C811 C808 1.403 . S
C811 C812 1.524 . S
C811 C815 1.400 . S
C812 H797 0.960 . S
C812 H798 0.960 . S
C812 H799 0.960 . S
C812 C811 1.524 . S
C813 C810 1.403 . S
C813 C814 1.392 . S
C813 C817 1.495 . S
C814 C813 1.392 . S
C814 C815 1.385 . S
C814 C816 1.478 . S
C815 H809 0.930 . S
C815 C811 1.400 . S
C815 C814 1.385 . S
C816 C814 1.478 . S
C816 C818 1.381 . S
C816 C822 1.383 . S
C817 C813 1.495 . S
C817 H823 0.959 . S
C817 H824 0.961 . S
C817 H825 0.960 . S
C818 C816 1.381 . S
C818 C819 1.394 . S
C818 H826 0.930 . S
C819 C818 1.394 . S
C819 C820 1.383 . S
C819 H827 0.929 . S
C820 C819 1.383 . S
C820 C821 1.377 . S
C821 H805 0.930 . S
C821 C820 1.377 . S
C821 C822 1.379 . S
C822 H806 0.931 . S
C822 C816 1.383 . S
C822 C821 1.379 . S
H823 C817 0.959 . S
H824 C817 0.961 . S
H825 C817 0.960 . S
H826 C818 0.930 . S
H827 C819 0.929 . S
H828 C836 0.929 . S
H829 C838 0.930 . S
H830 C840 0.979 . S
H831 C843 0.929 . S
H832 C846 0.930 . S
H833 C848 0.960 . S
H834 C848 0.960 . S
H835 C848 0.960 . S
C836 H828 0.929 . S
C836 C837 1.377 . S
C836 C838 1.384 . S
C837 C836 1.377 . S
C837 C843 1.390 . S
C838 H829 0.930 . S
C838 C836 1.384 . S
C838 C839 1.372 1_545 S
C839 C838 1.372 1_565 S
C839 C840 1.376 . S
C839 C844 1.490 . S
C840 H830 0.979 . S
C840 C839 1.376 . S
C840 C843 1.363 1_565 S
H841 C857 0.930 . S
H842 C858 0.931 . S
C843 H831 0.929 . S
C843 C837 1.390 . S
C843 C840 1.363 1_545 S
C844 C839 1.490 . S
C844 C846 1.395 . S
C844 C847 1.403 . S
H845 C851 0.930 . S
C846 H832 0.930 . S
C846 C844 1.395 . S
C846 C849 1.403 . S
C847 C844 1.403 . S
C847 C848 1.524 . S
C847 C851 1.400 . S
C848 H833 0.960 . S
C848 H834 0.960 . S
C848 H835 0.960 . S
C848 C847 1.524 . S
C849 C846 1.403 . S
C849 C850 1.392 . S
C849 C853 1.495 . S
C850 C849 1.392 . S
C850 C851 1.385 . S
C850 C852 1.478 . S
C851 H845 0.930 . S
C851 C847 1.400 . S
C851 C850 1.385 . S
C852 C850 1.478 . S
C852 C854 1.381 1_455 S
C852 C858 1.383 . S
C853 C849 1.495 . S
C853 H859 0.959 . S
C853 H860 0.961 . S
C853 H861 0.960 . S
C854 C852 1.381 1_655 S
C854 C855 1.394 . S
C854 H862 0.930 . S
C855 C854 1.394 . S
C855 C856 1.383 . S
C855 H863 0.929 . S
C856 C855 1.383 . S
C856 C857 1.377 . S
C857 H841 0.930 . S
C857 C856 1.377 . S
C857 C858 1.379 1_655 S
C858 H842 0.931 . S
C858 C852 1.383 . S
C858 C857 1.379 1_455 S
H859 C853 0.959 . S
H860 C853 0.961 . S
H861 C853 0.960 . S
H862 C854 0.930 . S
H863 C855 0.929 . S
H864 C872 0.929 . S
H865 C874 0.930 . S
H866 C876 0.930 . S
H867 C879 0.929 . S
H868 C882 0.930 . S
H869 C884 0.960 . S
H870 C884 0.960 . S
H871 C884 0.960 . S
C872 H864 0.929 . S
C872 C873 1.377 . S
C872 C874 1.384 . S
C873 C872 1.377 . S
C873 C879 1.390 . S
C874 H865 0.930 . S
C874 C872 1.384 . S
C874 C875 1.372 1_655 S
C875 C874 1.372 1_455 S
C875 C876 1.400 . S
C875 C880 1.490 . S
C876 H866 0.930 . S
C876 C875 1.400 . S
C876 C879 1.385 1_455 S
H877 C893 0.930 . S
H878 C894 0.931 . S
C879 H867 0.929 . S
C879 C873 1.390 . S
C879 C876 1.385 1_655 S
C880 C875 1.490 . S
C880 C882 1.395 . S
C880 C883 1.403 . S
H881 C887 0.930 . S
C882 H868 0.930 . S
C882 C880 1.395 . S
C882 C885 1.403 . S
C883 C880 1.403 . S
C883 C884 1.524 . S
C883 C887 1.400 . S
C884 H869 0.960 . S
C884 H870 0.960 . S
C884 H871 0.960 . S
C884 C883 1.524 . S
C885 C882 1.403 . S
C885 C886 1.392 . S
C885 C889 1.495 . S
C886 C885 1.392 . S
C886 C887 1.385 . S
C886 C888 1.478 . S
C887 H881 0.930 . S
C887 C883 1.400 . S
C887 C886 1.385 . S
C888 C886 1.478 . S
C888 C890 1.381 . S
C888 C894 1.383 . S
C889 C885 1.495 . S
C889 H895 0.959 . S
C889 H896 0.961 . S
C889 H897 0.960 . S
C890 C888 1.381 . S
C890 C891 1.394 . S
C890 H898 0.930 . S
C891 C890 1.394 . S
C891 C892 1.383 . S
C891 H899 0.929 . S
C892 C891 1.383 . S
C892 C893 1.377 . S
C893 H877 0.930 . S
C893 C892 1.377 . S
C893 C894 1.379 . S
C894 H878 0.931 . S
C894 C888 1.383 . S
C894 C893 1.379 . S
H895 C889 0.959 . S
H896 C889 0.961 . S
H897 C889 0.960 . S
H898 C890 0.930 . S
H899 C891 0.929 . S
H900 C908 0.929 . S
H901 C910 0.930 . S
H902 C912 0.930 . S
H903 C915 0.929 . S
H904 C918 0.930 . S
H905 C920 0.960 . S
H906 C920 0.960 . S
H907 C920 0.960 . S
C908 H900 0.929 . S
C908 C909 1.377 . S
C908 C910 1.384 . S
C909 C908 1.377 . S
C909 C915 1.390 . S
C910 H901 0.930 . S
C910 C908 1.384 . S
C910 C911 1.372 . S
C911 C910 1.372 . S
C911 C912 1.400 . S
C911 C916 1.490 . S
C912 H902 0.930 . S
C912 C911 1.400 . S
C912 C915 1.386 . S
H913 C929 0.930 . S
H914 C930 0.931 . S
C915 H903 0.929 . S
C915 C909 1.390 . S
C915 C912 1.386 . S
C916 C911 1.490 . S
C916 C918 1.395 . S
C916 C919 1.403 . S
H917 C923 0.930 . S
C918 H904 0.930 . S
C918 C916 1.395 . S
C918 C921 1.403 . S
C919 C916 1.403 . S
C919 C920 1.524 . S
C919 C923 1.400 . S
C920 H905 0.960 . S
C920 H906 0.960 . S
C920 H907 0.960 . S
C920 C919 1.524 . S
C921 C918 1.403 . S
C921 C922 1.392 . S
C921 C925 1.495 . S
C922 C921 1.392 . S
C922 C923 1.385 . S
C922 C924 1.478 . S
C923 H917 0.930 . S
C923 C919 1.400 . S
C923 C922 1.385 . S
C924 C922 1.478 . S
C924 C926 1.381 . S
C924 C930 1.383 1_455 S
C925 C921 1.495 . S
C925 H931 0.959 . S
C925 H932 0.961 . S
C925 H933 0.960 . S
C926 C924 1.381 . S
C926 C927 1.394 1_455 S
C926 H934 0.930 . S
C927 C926 1.394 1_655 S
C927 C928 1.383 . S
C927 H935 0.929 . S
C928 C927 1.383 . S
C928 C929 1.377 . S
C929 H913 0.930 . S
C929 C928 1.377 . S
C929 C930 1.379 . S
C930 H914 0.931 . S
C930 C924 1.383 1_655 S
C930 C929 1.379 . S
H931 C925 0.959 . S
H932 C925 0.961 . S
H933 C925 0.960 . S
H934 C926 0.930 . S
H935 C927 0.929 . S
H936 C944 0.929 . S
H937 C946 0.930 . S
H938 C948 0.930 . S
H939 C951 0.929 . S
H940 C954 0.930 . S
H941 C956 0.960 . S
H942 C956 0.960 . S
H943 C956 0.960 . S
C944 H936 0.929 . S
C944 C945 1.377 . S
C944 C946 1.384 . S
C945 C944 1.377 . S
C945 C951 1.390 . S
C946 H937 0.930 . S
C946 C944 1.384 . S
C946 C947 1.372 . S
C947 C946 1.372 . S
C947 C948 1.400 . S
C947 C952 1.490 . S
C948 H938 0.930 . S
C948 C947 1.400 . S
C948 C951 1.386 . S
H949 C965 0.930 . S
H950 C966 0.931 . S
C951 H939 0.929 . S
C951 C945 1.390 . S
C951 C948 1.386 . S
C952 C947 1.490 . S
C952 C954 1.395 . S
C952 C955 1.403 . S
H953 C959 0.930 . S
C954 H940 0.930 . S
C954 C952 1.395 . S
C954 C957 1.403 . S
C955 C952 1.403 . S
C955 C956 1.524 . S
C955 C959 1.400 . S
C956 H941 0.960 . S
C956 H942 0.960 . S
C956 H943 0.960 . S
C956 C955 1.524 . S
C957 C954 1.403 . S
C957 C958 1.392 . S
C957 C961 1.495 . S
C958 C957 1.392 . S
C958 C959 1.385 . S
C958 C960 1.478 . S
C959 H953 0.930 . S
C959 C955 1.400 . S
C959 C958 1.385 . S
C960 C958 1.478 . S
C960 C962 1.381 . S
C960 C966 1.383 1_565 S
C961 C957 1.495 . S
C961 H967 0.959 . S
C961 H968 0.961 . S
C961 H969 0.960 . S
C962 C960 1.381 . S
C962 C963 1.394 1_565 S
C962 H970 0.930 . S
C963 C962 1.394 1_545 S
C963 C964 1.383 . S
C963 H971 0.929 . S
C964 C963 1.383 . S
C964 C965 1.377 . S
C965 H949 0.930 . S
C965 C964 1.377 . S
C965 C966 1.379 . S
C966 H950 0.931 . S
C966 C960 1.383 1_545 S
C966 C965 1.379 . S
H967 C961 0.959 . S
H968 C961 0.961 . S
H969 C961 0.960 . S
H970 C962 0.930 . S
H971 C963 0.929 . S
H972 C980 0.929 . S
H973 C982 0.930 . S
H974 C984 0.924 1_565 S
H975 C987 0.929 . S
H976 C990 0.930 . S
H977 C992 0.960 . S
H978 C992 0.960 . S
H979 C992 0.960 . S
C980 H972 0.929 . S
C980 C981 1.377 . S
C980 C982 1.384 1_545 S
C981 C980 1.377 . S
C981 C987 1.390 . S
C982 H973 0.930 . S
C982 C980 1.384 1_565 S
C982 C983 1.372 . S
C983 C982 1.372 . S
C983 C984 1.396 1_565 S
C983 C988 1.490 . S
C984 H974 0.924 1_545 S
C984 C983 1.396 1_545 S
C984 C987 1.395 . S
H985 C1001 0.930 . S
H986 C1002 0.931 1_455 S
C987 H975 0.929 . S
C987 C981 1.390 . S
C987 C984 1.395 . S
C988 C983 1.490 . S
C988 C990 1.395 . S
C988 C991 1.403 . S
H989 C995 0.930 . S
C990 H976 0.930 . S
C990 C988 1.395 . S
C990 C993 1.403 . S
C991 C988 1.403 . S
C991 C992 1.524 . S
C991 C995 1.400 . S
C992 H977 0.960 . S
C992 H978 0.960 . S
C992 H979 0.960 . S
C992 C991 1.524 . S
C993 C990 1.403 . S
C993 C994 1.392 . S
C993 C997 1.519 . S
C994 C993 1.392 . S
C994 C995 1.385 . S
C994 C996 1.478 1_455 S
C995 H989 0.930 . S
C995 C991 1.400 . S
C995 C994 1.385 . S
C996 C994 1.478 1_655 S
C996 C998 1.381 . S
C996 C1002 1.383 . S
C997 C993 1.519 . S
C997 H1003 0.954 . S
C997 H1004 0.948 1_455 S
C997 H1005 0.954 1_455 S
C998 C996 1.381 . S
C998 C999 1.394 . S
C998 H1006 0.930 . S
C999 C998 1.394 . S
C999 C1000 1.383 . S
C999 H1007 0.929 . S
C1000 C999 1.383 . S
C1000 C1001 1.377 . S
C1001 H985 0.930 . S
C1001 C1000 1.377 . S
C1001 C1002 1.379 . S
C1002 H986 0.931 1_655 S
C1002 C996 1.383 . S
C1002 C1001 1.379 . S
H1003 C997 0.954 . S
H1004 C997 0.948 1_655 S
H1005 C997 0.954 1_655 S
H1006 C998 0.930 . S
H1007 C999 0.929 . S
H1008 C1016 0.929 . S
H1009 C1018 0.930 . S
H1010 C1020 0.930 . S
H1011 C1023 0.929 . S
H1012 C1026 0.930 . S
H1013 C1028 0.960 . S
H1014 C1028 0.960 . S
H1015 C1028 0.960 . S
C1016 H1008 0.929 . S
C1016 C1017 1.377 . S
C1016 C1018 1.384 . S
C1017 C1016 1.377 . S
C1017 C1023 1.390 . S
C1018 H1009 0.930 . S
C1018 C1016 1.384 . S
C1018 C1019 1.372 . S
C1019 C1018 1.372 . S
C1019 C1020 1.400 . S
C1019 C1024 1.490 . S
C1020 H1010 0.930 . S
C1020 C1019 1.400 . S
C1020 C1023 1.386 . S
H1021 C1037 0.930 . S
H1022 C1038 0.931 . S
C1023 H1011 0.929 . S
C1023 C1017 1.390 . S
C1023 C1020 1.386 . S
C1024 C1019 1.490 . S
C1024 C1026 1.395 . S
C1024 C1027 1.403 . S
H1025 C1031 0.930 . S
C1026 H1012 0.930 . S
C1026 C1024 1.395 . S
C1026 C1029 1.403 . S
C1027 C1024 1.403 . S
C1027 C1028 1.524 . S
C1027 C1031 1.400 . S
C1028 H1013 0.960 . S
C1028 H1014 0.960 . S
C1028 H1015 0.960 . S
C1028 C1027 1.524 . S
C1029 C1026 1.403 . S
C1029 C1030 1.392 . S
C1029 C1033 1.495 . S
C1030 C1029 1.392 . S
C1030 C1031 1.385 . S
C1030 C1032 1.478 . S
C1031 H1025 0.930 . S
C1031 C1027 1.400 . S
C1031 C1030 1.385 . S
C1032 C1030 1.478 . S
C1032 C1034 1.381 . S
C1032 C1038 1.383 . S
C1033 C1029 1.495 . S
C1033 H1039 0.959 . S
C1033 H1040 0.961 . S
C1033 H1041 0.960 . S
C1034 C1032 1.381 . S
C1034 C1035 1.394 . S
C1034 H1042 0.930 . S
C1035 C1034 1.394 . S
C1035 C1036 1.383 . S
C1035 H1043 0.929 . S
C1036 C1035 1.383 . S
C1036 C1037 1.377 . S
C1037 H1021 0.930 . S
C1037 C1036 1.377 . S
C1037 C1038 1.379 . S
C1038 H1022 0.931 . S
C1038 C1032 1.383 . S
C1038 C1037 1.379 . S
H1039 C1033 0.959 . S
H1040 C1033 0.961 . S
H1041 C1033 0.960 . S
H1042 C1034 0.930 . S
H1043 C1035 0.929 . S
H1044 C1052 0.929 . S
H1045 C1054 0.930 . S
H1046 C1056 0.930 . S
H1047 C1059 0.929 . S
H1048 C1062 0.930 . S
H1049 C1064 0.960 . S
H1050 C1064 0.960 . S
H1051 C1064 0.960 . S
C1052 H1044 0.929 . S
C1052 C1053 1.377 . S
C1052 C1054 1.384 . S
C1053 C1052 1.377 . S
C1053 C1059 1.390 . S
C1054 H1045 0.930 . S
C1054 C1052 1.384 . S
C1054 C1055 1.372 . S
C1055 C1054 1.372 . S
C1055 C1056 1.400 . S
C1055 C1060 1.490 . S
C1056 H1046 0.930 . S
C1056 C1055 1.400 . S
C1056 C1059 1.386 . S
H1057 C1073 0.930 . S
H1058 C1074 0.931 . S
C1059 H1047 0.929 . S
C1059 C1053 1.390 . S
C1059 C1056 1.386 . S
C1060 C1055 1.490 . S
C1060 C1062 1.395 . S
C1060 C1063 1.403 . S
H1061 C1067 0.930 . S
C1062 H1048 0.930 . S
C1062 C1060 1.395 . S
C1062 C1065 1.403 . S
C1063 C1060 1.403 . S
C1063 C1064 1.524 . S
C1063 C1067 1.400 . S
C1064 H1049 0.960 . S
C1064 H1050 0.960 . S
C1064 H1051 0.960 . S
C1064 C1063 1.524 . S
C1065 C1062 1.403 . S
C1065 C1066 1.392 . S
C1065 C1069 1.495 . S
C1066 C1065 1.392 . S
C1066 C1067 1.385 . S
C1066 C1068 1.478 . S
C1067 H1061 0.930 . S
C1067 C1063 1.400 . S
C1067 C1066 1.385 . S
C1068 C1066 1.478 . S
C1068 C1070 1.381 . S
C1068 C1074 1.383 . S
C1069 C1065 1.495 . S
C1069 H1075 0.959 . S
C1069 H1076 0.961 . S
C1069 H1077 0.960 . S
C1070 C1068 1.381 . S
C1070 C1071 1.394 . S
C1070 H1078 0.930 . S
C1071 C1070 1.394 . S
C1071 C1072 1.383 . S
C1071 H1079 0.929 . S
C1072 C1071 1.383 . S
C1072 C1073 1.377 . S
C1073 H1057 0.930 . S
C1073 C1072 1.377 . S
C1073 C1074 1.379 . S
C1074 H1058 0.931 . S
C1074 C1068 1.383 . S
C1074 C1073 1.379 . S
H1075 C1069 0.959 . S
H1076 C1069 0.961 . S
H1077 C1069 0.960 . S
H1078 C1070 0.930 . S
H1079 C1071 0.929 . S
H1080 C1088 0.929 . S
H1081 C1090 0.930 . S
H1082 C1092 0.930 . S
H1083 C1095 0.929 . S
H1084 C1098 0.930 . S
H1085 C1100 0.960 . S
H1086 C1100 0.960 . S
H1087 C1100 0.960 . S
C1088 H1080 0.929 . S
C1088 C1089 1.377 . S
C1088 C1090 1.384 . S
C1089 C1088 1.377 . S
C1089 C1095 1.390 . S
C1090 H1081 0.930 . S
C1090 C1088 1.384 . S
C1090 C1091 1.372 . S
C1091 C1090 1.372 . S
C1091 C1092 1.400 . S
C1091 C1096 1.490 . S
C1092 H1082 0.930 . S
C1092 C1091 1.400 . S
C1092 C1095 1.386 . S
H1093 C1109 0.930 . S
H1094 C1110 0.931 . S
C1095 H1083 0.929 . S
C1095 C1089 1.390 . S
C1095 C1092 1.386 . S
C1096 C1091 1.490 . S
C1096 C1098 1.395 . S
C1096 C1099 1.403 . S
H1097 C1103 0.930 . S
C1098 H1084 0.930 . S
C1098 C1096 1.395 . S
C1098 C1101 1.403 . S
C1099 C1096 1.403 . S
C1099 C1100 1.524 . S
C1099 C1103 1.400 . S
C1100 H1085 0.960 . S
C1100 H1086 0.960 . S
C1100 H1087 0.960 . S
C1100 C1099 1.524 . S
C1101 C1098 1.403 . S
C1101 C1102 1.392 . S
C1101 C1105 1.495 . S
C1102 C1101 1.392 . S
C1102 C1103 1.385 . S
C1102 C1104 1.478 . S
C1103 H1097 0.930 . S
C1103 C1099 1.400 . S
C1103 C1102 1.385 . S
C1104 C1102 1.478 . S
C1104 C1106 1.381 . S
C1104 C1110 1.383 . S
C1105 C1101 1.495 . S
C1105 H1111 0.959 . S
C1105 H1112 0.961 . S
C1105 H1113 0.960 . S
C1106 C1104 1.381 . S
C1106 C1107 1.394 . S
C1106 H1114 0.930 . S
C1107 C1106 1.394 . S
C1107 C1108 1.383 . S
C1107 H1115 0.929 . S
C1108 C1107 1.383 . S
C1108 C1109 1.377 . S
C1109 H1093 0.930 . S
C1109 C1108 1.377 . S
C1109 C1110 1.379 . S
C1110 H1094 0.931 . S
C1110 C1104 1.383 . S
C1110 C1109 1.379 . S
H1111 C1105 0.959 . S
H1112 C1105 0.961 . S
H1113 C1105 0.960 . S
H1114 C1106 0.930 . S
H1115 C1107 0.929 . S
H1116 C1124 0.929 . S
H1117 C1126 0.930 . S
H1118 C1128 0.930 . S
H1119 C1131 0.929 . S
H1120 C1134 0.930 . S
H1121 C1136 0.960 . S
H1122 C1136 0.960 . S
H1123 C1136 0.960 . S
C1124 H1116 0.929 . S
C1124 C1125 1.377 . S
C1124 C1126 1.384 . S
C1125 C1124 1.377 . S
C1125 C1131 1.390 . S
C1126 H1117 0.930 . S
C1126 C1124 1.384 . S
C1126 C1127 1.372 . S
C1127 C1126 1.372 . S
C1127 C1128 1.400 . S
C1127 C1132 1.490 . S
C1128 H1118 0.930 . S
C1128 C1127 1.400 . S
C1128 C1131 1.386 . S
H1129 C1145 0.930 . S
H1130 C1146 0.931 . S
C1131 H1119 0.929 . S
C1131 C1125 1.390 . S
C1131 C1128 1.386 . S
C1132 C1127 1.490 . S
C1132 C1134 1.395 . S
C1132 C1135 1.403 . S
H1133 C1139 0.930 . S
C1134 H1120 0.930 . S
C1134 C1132 1.395 . S
C1134 C1137 1.403 . S
C1135 C1132 1.403 . S
C1135 C1136 1.524 . S
C1135 C1139 1.400 . S
C1136 H1121 0.960 . S
C1136 H1122 0.960 . S
C1136 H1123 0.960 . S
C1136 C1135 1.524 . S
C1137 C1134 1.403 . S
C1137 C1138 1.392 . S
C1137 C1141 1.495 . S
C1138 C1137 1.392 . S
C1138 C1139 1.385 . S
C1138 C1140 1.478 . S
C1139 H1133 0.930 . S
C1139 C1135 1.400 . S
C1139 C1138 1.385 . S
C1140 C1138 1.478 . S
C1140 C1142 1.381 . S
C1140 C1146 1.383 . S
C1141 C1137 1.495 . S
C1141 H1147 0.959 . S
C1141 H1148 0.961 . S
C1141 H1149 0.960 . S
C1142 C1140 1.381 . S
C1142 C1143 1.394 . S
C1142 H1150 0.930 . S
C1143 C1142 1.394 . S
C1143 C1144 1.383 . S
C1143 H1151 0.929 . S
C1144 C1143 1.383 . S
C1144 C1145 1.377 . S
C1145 H1129 0.930 . S
C1145 C1144 1.377 . S
C1145 C1146 1.379 . S
C1146 H1130 0.931 . S
C1146 C1140 1.383 . S
C1146 C1145 1.379 . S
H1147 C1141 0.959 . S
H1148 C1141 0.961 . S
H1149 C1141 0.960 . S
H1150 C1142 0.930 . S
H1151 C1143 0.929 . S
H1152 C1160 0.929 . S
H1153 C1162 0.930 . S
H1154 C1164 0.930 . S
H1155 C1167 0.929 . S
H1156 C1170 0.930 . S
H1157 C1172 0.960 . S
H1158 C1172 0.960 . S
H1159 C1172 0.960 . S
C1160 H1152 0.929 . S
C1160 C1161 1.377 . S
C1160 C1162 1.384 . S
C1161 C1160 1.377 . S
C1161 C1167 1.390 . S
C1162 H1153 0.930 . S
C1162 C1160 1.384 . S
C1162 C1163 1.372 . S
C1163 C1162 1.372 . S
C1163 C1164 1.400 . S
C1163 C1168 1.490 . S
C1164 H1154 0.930 . S
C1164 C1163 1.400 . S
C1164 C1167 1.386 . S
H1165 C1181 0.930 . S
H1166 C1182 0.931 . S
C1167 H1155 0.929 . S
C1167 C1161 1.390 . S
C1167 C1164 1.386 . S
C1168 C1163 1.490 . S
C1168 C1170 1.395 . S
C1168 C1171 1.403 . S
H1169 C1175 0.930 . S
C1170 H1156 0.930 . S
C1170 C1168 1.395 . S
C1170 C1173 1.403 . S
C1171 C1168 1.403 . S
C1171 C1172 1.524 . S
C1171 C1175 1.400 . S
C1172 H1157 0.960 . S
C1172 H1158 0.960 . S
C1172 H1159 0.960 . S
C1172 C1171 1.524 . S
C1173 C1170 1.403 . S
C1173 C1174 1.392 . S
C1173 C1177 1.495 . S
C1174 C1173 1.392 . S
C1174 C1175 1.385 . S
C1174 C1176 1.478 . S
C1175 H1169 0.930 . S
C1175 C1171 1.400 . S
C1175 C1174 1.385 . S
C1176 C1174 1.478 . S
C1176 C1178 1.381 . S
C1176 C1182 1.383 . S
C1177 C1173 1.495 . S
C1177 H1183 0.959 . S
C1177 H1184 0.961 . S
C1177 H1185 0.960 . S
C1178 C1176 1.381 . S
C1178 C1179 1.394 . S
C1178 H1186 0.930 . S
C1179 C1178 1.394 . S
C1179 C1180 1.383 . S
C1179 H1187 0.929 . S
C1180 C1179 1.383 . S
C1180 C1181 1.377 . S
C1181 H1165 0.930 . S
C1181 C1180 1.377 . S
C1181 C1182 1.379 . S
C1182 H1166 0.931 . S
C1182 C1176 1.383 . S
C1182 C1181 1.379 . S
H1183 C1177 0.959 . S
H1184 C1177 0.961 . S
H1185 C1177 0.960 . S
H1186 C1178 0.930 . S
H1187 C1179 0.929 . S
H1188 C1196 0.929 . S
H1189 C1198 0.930 . S
H1190 C1200 0.930 . S
H1191 C1203 0.929 . S
H1192 C1206 0.930 . S
H1193 C1208 0.960 . S
H1194 C1208 0.960 . S
H1195 C1208 0.960 . S
C1196 H1188 0.929 . S
C1196 C1197 1.377 . S
C1196 C1198 1.384 . S
C1197 C1196 1.377 . S
C1197 C1203 1.390 . S
C1198 H1189 0.930 . S
C1198 C1196 1.384 . S
C1198 C1199 1.372 . S
C1199 C1198 1.372 . S
C1199 C1200 1.400 . S
C1199 C1204 1.490 . S
C1200 H1190 0.930 . S
C1200 C1199 1.400 . S
C1200 C1203 1.386 . S
H1201 C1217 0.930 . S
H1202 C1218 0.931 . S
C1203 H1191 0.929 . S
C1203 C1197 1.390 . S
C1203 C1200 1.386 . S
C1204 C1199 1.490 . S
C1204 C1206 1.395 . S
C1204 C1207 1.403 . S
H1205 C1211 0.930 . S
C1206 H1192 0.930 . S
C1206 C1204 1.395 . S
C1206 C1209 1.403 . S
C1207 C1204 1.403 . S
C1207 C1208 1.524 . S
C1207 C1211 1.400 . S
C1208 H1193 0.960 . S
C1208 H1194 0.960 . S
C1208 H1195 0.960 . S
C1208 C1207 1.524 . S
C1209 C1206 1.403 . S
C1209 C1210 1.392 . S
C1209 C1213 1.495 . S
C1210 C1209 1.392 . S
C1210 C1211 1.385 . S
C1210 C1212 1.478 . S
C1211 H1205 0.930 . S
C1211 C1207 1.400 . S
C1211 C1210 1.385 . S
C1212 C1210 1.478 . S
C1212 C1214 1.381 . S
C1212 C1218 1.383 . S
C1213 C1209 1.495 . S
C1213 H1219 0.959 . S
C1213 H1220 0.961 . S
C1213 H1221 0.960 . S
C1214 C1212 1.381 . S
C1214 C1215 1.394 . S
C1214 H1222 0.930 . S
C1215 C1214 1.394 . S
C1215 C1216 1.383 . S
C1215 H1223 0.929 . S
C1216 C1215 1.383 . S
C1216 C1217 1.377 . S
C1217 H1201 0.930 . S
C1217 C1216 1.377 . S
C1217 C1218 1.379 . S
C1218 H1202 0.931 . S
C1218 C1212 1.383 . S
C1218 C1217 1.379 . S
H1219 C1213 0.959 . S
H1220 C1213 0.961 . S
H1221 C1213 0.960 . S
H1222 C1214 0.930 . S
H1223 C1215 0.929 . S
H1224 C1232 0.929 . S
H1225 C1234 0.930 . S
H1226 C1236 0.930 . S
H1227 C1239 0.929 . S
H1228 C1242 0.930 . S
H1229 C1244 0.960 . S
H1230 C1244 0.960 . S
H1231 C1244 0.960 . S
C1232 H1224 0.929 . S
C1232 C1233 1.377 . S
C1232 C1234 1.384 . S
C1233 C1232 1.377 . S
C1233 C1239 1.390 . S
C1234 H1225 0.930 . S
C1234 C1232 1.384 . S
C1234 C1235 1.372 . S
C1235 C1234 1.372 . S
C1235 C1236 1.400 . S
C1235 C1240 1.490 . S
C1236 H1226 0.930 . S
C1236 C1235 1.400 . S
C1236 C1239 1.386 . S
H1237 C1253 0.930 . S
H1238 C1254 0.931 . S
C1239 H1227 0.929 . S
C1239 C1233 1.390 . S
C1239 C1236 1.386 . S
C1240 C1235 1.490 . S
C1240 C1242 1.395 . S
C1240 C1243 1.403 . S
H1241 C1247 0.930 . S
C1242 H1228 0.930 . S
C1242 C1240 1.395 . S
C1242 C1245 1.403 . S
C1243 C1240 1.403 . S
C1243 C1244 1.524 . S
C1243 C1247 1.400 . S
C1244 H1229 0.960 . S
C1244 H1230 0.960 . S
C1244 H1231 0.960 . S
C1244 C1243 1.524 . S
C1245 C1242 1.403 . S
C1245 C1246 1.392 . S
C1245 C1249 1.495 . S
C1246 C1245 1.392 . S
C1246 C1247 1.385 . S
C1246 C1248 1.478 . S
C1247 H1241 0.930 . S
C1247 C1243 1.400 . S
C1247 C1246 1.385 . S
C1248 C1246 1.478 . S
C1248 C1250 1.381 . S
C1248 C1254 1.383 . S
C1249 C1245 1.495 . S
C1249 H1255 0.959 . S
C1249 H1256 0.961 . S
C1249 H1257 0.960 . S
C1250 C1248 1.381 . S
C1250 C1251 1.394 . S
C1250 H1258 0.930 . S
C1251 C1250 1.394 . S
C1251 C1252 1.383 . S
C1251 H1259 0.929 . S
C1252 C1251 1.383 . S
C1252 C1253 1.377 . S
C1253 H1237 0.930 . S
C1253 C1252 1.377 . S
C1253 C1254 1.379 . S
C1254 H1238 0.931 . S
C1254 C1248 1.383 . S
C1254 C1253 1.379 . S
H1255 C1249 0.959 . S
H1256 C1249 0.961 . S
H1257 C1249 0.960 . S
H1258 C1250 0.930 . S
H1259 C1251 0.929 . S
H1260 C1268 0.929 . S
H1261 C1270 0.930 . S
H1262 C1272 0.930 . S
H1263 C1275 0.929 . S
H1264 C1278 0.930 . S
H1265 C1280 0.960 . S
H1266 C1280 0.960 . S
H1267 C1280 0.960 . S
C1268 H1260 0.929 . S
C1268 C1269 1.377 . S
C1268 C1270 1.384 . S
C1269 C1268 1.377 . S
C1269 C1275 1.390 . S
C1270 H1261 0.930 . S
C1270 C1268 1.384 . S
C1270 C1271 1.372 . S
C1271 C1270 1.372 . S
C1271 C1272 1.400 . S
C1271 C1276 1.490 . S
C1272 H1262 0.930 . S
C1272 C1271 1.400 . S
C1272 C1275 1.386 . S
H1273 C1289 0.930 . S
H1274 C1290 0.931 . S
C1275 H1263 0.929 . S
C1275 C1269 1.390 . S
C1275 C1272 1.386 . S
C1276 C1271 1.490 . S
C1276 C1278 1.395 . S
C1276 C1279 1.403 . S
H1277 C1283 0.930 . S
C1278 H1264 0.930 . S
C1278 C1276 1.395 . S
C1278 C1281 1.403 . S
C1279 C1276 1.403 . S
C1279 C1280 1.524 . S
C1279 C1283 1.400 . S
C1280 H1265 0.960 . S
C1280 H1266 0.960 . S
C1280 H1267 0.960 . S
C1280 C1279 1.524 . S
C1281 C1278 1.403 . S
C1281 C1282 1.392 . S
C1281 C1285 1.495 . S
C1282 C1281 1.392 . S
C1282 C1283 1.385 . S
C1282 C1284 1.478 . S
C1283 H1277 0.930 . S
C1283 C1279 1.400 . S
C1283 C1282 1.385 . S
C1284 C1282 1.478 . S
C1284 C1286 1.381 . S
C1284 C1290 1.383 . S
C1285 C1281 1.495 . S
C1285 H1291 0.959 . S
C1285 H1292 0.961 . S
C1285 H1293 0.960 . S
C1286 C1284 1.381 . S
C1286 C1287 1.394 . S
C1286 H1294 0.930 . S
C1287 C1286 1.394 . S
C1287 C1288 1.383 . S
C1287 H1295 0.929 . S
C1288 C1287 1.383 . S
C1288 C1289 1.377 . S
C1289 H1273 0.930 . S
C1289 C1288 1.377 . S
C1289 C1290 1.379 . S
C1290 H1274 0.931 . S
C1290 C1284 1.383 . S
C1290 C1289 1.379 . S
H1291 C1285 0.959 . S
H1292 C1285 0.961 . S
H1293 C1285 0.960 . S
H1294 C1286 0.930 . S
H1295 C1287 0.929 . S
H1296 C1304 0.929 . S
H1297 C1306 0.930 . S
H1298 C1308 0.930 . S
H1299 C1311 0.929 . S
H1300 C1314 0.930 . S
H1301 C1316 0.960 . S
H1302 C1316 0.960 . S
H1303 C1316 0.960 . S
C1304 H1296 0.929 . S
C1304 C1305 1.377 . S
C1304 C1306 1.384 . S
C1305 C1304 1.377 . S
C1305 C1311 1.390 . S
C1306 H1297 0.930 . S
C1306 C1304 1.384 . S
C1306 C1307 1.372 . S
C1307 C1306 1.372 . S
C1307 C1308 1.400 . S
C1307 C1312 1.490 . S
C1308 H1298 0.930 . S
C1308 C1307 1.400 . S
C1308 C1311 1.386 . S
H1309 C1325 0.930 . S
H1310 C1326 0.931 . S
C1311 H1299 0.929 . S
C1311 C1305 1.390 . S
C1311 C1308 1.386 . S
C1312 C1307 1.490 . S
C1312 C1314 1.395 . S
C1312 C1315 1.403 . S
H1313 C1319 0.930 . S
C1314 H1300 0.930 . S
C1314 C1312 1.395 . S
C1314 C1317 1.403 . S
C1315 C1312 1.403 . S
C1315 C1316 1.524 . S
C1315 C1319 1.400 . S
C1316 H1301 0.960 . S
C1316 H1302 0.960 . S
C1316 H1303 0.960 . S
C1316 C1315 1.524 . S
C1317 C1314 1.403 . S
C1317 C1318 1.392 . S
C1317 C1321 1.495 . S
C1318 C1317 1.392 . S
C1318 C1319 1.385 . S
C1318 C1320 1.478 . S
C1319 H1313 0.930 . S
C1319 C1315 1.400 . S
C1319 C1318 1.385 . S
C1320 C1318 1.478 . S
C1320 C1322 1.381 . S
C1320 C1326 1.383 . S
C1321 C1317 1.495 . S
C1321 H1327 0.959 . S
C1321 H1328 0.961 . S
C1321 H1329 0.960 . S
C1322 C1320 1.381 . S
C1322 C1323 1.394 . S
C1322 H1330 0.930 . S
C1323 C1322 1.394 . S
C1323 C1324 1.383 . S
C1323 H1331 0.929 . S
C1324 C1323 1.383 . S
C1324 C1325 1.377 . S
C1325 H1309 0.930 . S
C1325 C1324 1.377 . S
C1325 C1326 1.379 . S
C1326 H1310 0.931 . S
C1326 C1320 1.383 . S
C1326 C1325 1.379 . S
H1327 C1321 0.959 . S
H1328 C1321 0.961 . S
H1329 C1321 0.960 . S
H1330 C1322 0.930 . S
H1331 C1323 0.929 . S
H1332 C1340 0.929 . S
H1333 C1342 0.930 . S
H1334 C1344 0.930 . S
H1335 C1347 0.929 . S
H1336 C1350 0.930 . S
H1337 C1352 0.960 . S
H1338 C1352 0.960 . S
H1339 C1352 0.960 . S
C1340 H1332 0.929 . S
C1340 C1341 1.377 . S
C1340 C1342 1.384 1_556 S
C1341 C1340 1.377 . S
C1341 C1347 1.390 . S
C1342 H1333 0.930 . S
C1342 C1340 1.384 1_554 S
C1342 C1343 1.372 . S
C1343 C1342 1.372 . S
C1343 C1344 1.400 . S
C1343 C1348 1.490 . S
C1344 H1334 0.930 . S
C1344 C1343 1.400 . S
C1344 C1347 1.386 1_554 S
H1345 C1361 0.930 . S
H1346 C1362 0.931 . S
C1347 H1335 0.929 . S
C1347 C1341 1.390 . S
C1347 C1344 1.386 1_556 S
C1348 C1343 1.490 . S
C1348 C1350 1.395 . S
C1348 C1351 1.403 . S
H1349 C1355 0.930 . S
C1350 H1336 0.930 . S
C1350 C1348 1.395 . S
C1350 C1353 1.403 . S
C1351 C1348 1.403 . S
C1351 C1352 1.524 . S
C1351 C1355 1.400 . S
C1352 H1337 0.960 . S
C1352 H1338 0.960 . S
C1352 H1339 0.960 . S
C1352 C1351 1.524 . S
C1353 C1350 1.403 . S
C1353 C1354 1.392 . S
C1353 C1357 1.495 . S
C1354 C1353 1.392 . S
C1354 C1355 1.385 . S
C1354 C1356 1.478 . S
C1355 H1349 0.930 . S
C1355 C1351 1.400 . S
C1355 C1354 1.385 . S
C1356 C1354 1.478 . S
C1356 C1358 1.381 . S
C1356 C1362 1.383 . S
C1357 C1353 1.495 . S
C1357 H1363 0.959 . S
C1357 H1364 0.961 . S
C1357 H1365 0.960 . S
C1358 C1356 1.381 . S
C1358 C1359 1.394 . S
C1358 H1366 0.930 . S
C1359 C1358 1.394 . S
C1359 C1360 1.383 . S
C1359 H1367 0.929 . S
C1360 C1359 1.383 . S
C1360 C1361 1.377 . S
C1361 H1345 0.930 . S
C1361 C1360 1.377 . S
C1361 C1362 1.379 . S
C1362 H1346 0.931 . S
C1362 C1356 1.383 . S
C1362 C1361 1.379 . S
H1363 C1357 0.959 . S
H1364 C1357 0.961 . S
H1365 C1357 0.960 . S
H1366 C1358 0.930 . S
H1367 C1359 0.929 . S
H1368 C1376 0.929 . S
H1369 C1378 0.930 . S
H1370 C1380 0.930 . S
H1371 C1383 0.929 . S
H1372 C1386 0.930 . S
H1373 C1388 0.960 . S
H1374 C1388 0.960 . S
H1375 C1388 0.960 . S
C1376 H1368 0.929 . S
C1376 C1377 1.377 . S
C1376 C1378 1.384 1_556 S
C1377 C1376 1.377 . S
C1377 C1383 1.390 . S
C1378 H1369 0.930 . S
C1378 C1376 1.384 1_554 S
C1378 C1379 1.372 . S
C1379 C1378 1.372 . S
C1379 C1380 1.400 . S
C1379 C1384 1.490 . S
C1380 H1370 0.930 . S
C1380 C1379 1.400 . S
C1380 C1383 1.386 1_554 S
H1381 C1397 0.930 . S
H1382 C1398 0.931 . S
C1383 H1371 0.929 . S
C1383 C1377 1.390 . S
C1383 C1380 1.386 1_556 S
C1384 C1379 1.490 . S
C1384 C1386 1.395 . S
C1384 C1387 1.403 . S
H1385 C1391 0.930 . S
C1386 H1372 0.930 . S
C1386 C1384 1.395 . S
C1386 C1389 1.403 . S
C1387 C1384 1.403 . S
C1387 C1388 1.524 . S
C1387 C1391 1.400 . S
C1388 H1373 0.960 . S
C1388 H1374 0.960 . S
C1388 H1375 0.960 . S
C1388 C1387 1.524 . S
C1389 C1386 1.403 . S
C1389 C1390 1.392 . S
C1389 C1393 1.495 . S
C1390 C1389 1.392 . S
C1390 C1391 1.385 . S
C1390 C1392 1.478 . S
C1391 H1385 0.930 . S
C1391 C1387 1.400 . S
C1391 C1390 1.385 . S
C1392 C1390 1.478 . S
C1392 C1394 1.381 . S
C1392 C1398 1.383 . S
C1393 C1389 1.495 . S
C1393 H1399 0.959 . S
C1393 H1400 0.961 . S
C1393 H1401 0.960 . S
C1394 C1392 1.381 . S
C1394 C1395 1.394 . S
C1394 H1402 0.930 . S
C1395 C1394 1.394 . S
C1395 C1396 1.383 . S
C1395 H1403 0.929 . S
C1396 C1395 1.383 . S
C1396 C1397 1.377 . S
C1397 H1381 0.930 . S
C1397 C1396 1.377 . S
C1397 C1398 1.379 . S
C1398 H1382 0.931 . S
C1398 C1392 1.383 . S
C1398 C1397 1.379 . S
H1399 C1393 0.959 . S
H1400 C1393 0.961 . S
H1401 C1393 0.960 . S
H1402 C1394 0.930 . S
H1403 C1395 0.929 . S
H1404 C1412 0.929 . S
H1405 C1414 0.930 . S
H1406 C1416 0.930 . S
H1407 C1419 0.929 . S
H1408 C1422 0.930 . S
H1409 C1424 0.960 . S
H1410 C1424 0.960 . S
H1411 C1424 0.960 . S
C1412 H1404 0.929 . S
C1412 C1413 1.377 . S
C1412 C1414 1.384 1_556 S
C1413 C1412 1.377 . S
C1413 C1419 1.390 . S
C1414 H1405 0.930 . S
C1414 C1412 1.384 1_554 S
C1414 C1415 1.372 . S
C1415 C1414 1.372 . S
C1415 C1416 1.400 . S
C1415 C1420 1.490 . S
C1416 H1406 0.930 . S
C1416 C1415 1.400 . S
C1416 C1419 1.386 1_554 S
H1417 C1433 0.930 . S
H1418 C1434 0.931 . S
C1419 H1407 0.929 . S
C1419 C1413 1.390 . S
C1419 C1416 1.386 1_556 S
C1420 C1415 1.490 . S
C1420 C1422 1.395 . S
C1420 C1423 1.403 . S
H1421 C1427 0.930 . S
C1422 H1408 0.930 . S
C1422 C1420 1.395 . S
C1422 C1425 1.403 . S
C1423 C1420 1.403 . S
C1423 C1424 1.524 . S
C1423 C1427 1.400 . S
C1424 H1409 0.960 . S
C1424 H1410 0.960 . S
C1424 H1411 0.960 . S
C1424 C1423 1.524 . S
C1425 C1422 1.403 . S
C1425 C1426 1.392 . S
C1425 C1429 1.495 . S
C1426 C1425 1.392 . S
C1426 C1427 1.385 . S
C1426 C1428 1.478 . S
C1427 H1421 0.930 . S
C1427 C1423 1.400 . S
C1427 C1426 1.385 . S
C1428 C1426 1.478 . S
C1428 C1430 1.381 . S
C1428 C1434 1.383 . S
C1429 C1425 1.495 . S
C1429 H1435 0.959 . S
C1429 H1436 0.961 . S
C1429 H1437 0.960 . S
C1430 C1428 1.381 . S
C1430 C1431 1.394 . S
C1430 H1438 0.930 . S
C1431 C1430 1.394 . S
C1431 C1432 1.383 . S
C1431 H1439 0.929 . S
C1432 C1431 1.383 . S
C1432 C1433 1.377 . S
C1433 H1417 0.930 . S
C1433 C1432 1.377 . S
C1433 C1434 1.379 . S
C1434 H1418 0.931 . S
C1434 C1428 1.383 . S
C1434 C1433 1.379 . S
H1435 C1429 0.959 . S
H1436 C1429 0.961 . S
H1437 C1429 0.960 . S
H1438 C1430 0.930 . S
H1439 C1431 0.929 . S
H1440 C1448 0.929 . S
H1441 C1450 0.930 . S
H1442 C1452 0.930 . S
H1443 C1455 0.929 . S
H1444 C1458 0.930 . S
H1445 C1460 0.960 . S
H1446 C1460 0.960 . S
H1447 C1460 0.960 . S
C1448 H1440 0.929 . S
C1448 C1449 1.377 . S
C1448 C1450 1.384 . S
C1449 C1448 1.377 . S
C1449 C1455 1.390 . S
C1450 H1441 0.930 . S
C1450 C1448 1.384 . S
C1450 C1451 1.372 . S
C1451 C1450 1.372 . S
C1451 C1452 1.400 . S
C1451 C1456 1.490 . S
C1452 H1442 0.930 . S
C1452 C1451 1.400 . S
C1452 C1455 1.386 . S
H1453 C1469 0.930 . S
H1454 C1470 0.931 . S
C1455 H1443 0.929 . S
C1455 C1449 1.390 . S
C1455 C1452 1.386 . S
C1456 C1451 1.490 . S
C1456 C1458 1.395 . S
C1456 C1459 1.403 . S
H1457 C1463 0.930 . S
C1458 H1444 0.930 . S
C1458 C1456 1.395 . S
C1458 C1461 1.403 . S
C1459 C1456 1.403 . S
C1459 C1460 1.524 . S
C1459 C1463 1.400 . S
C1460 H1445 0.960 . S
C1460 H1446 0.960 . S
C1460 H1447 0.960 . S
C1460 C1459 1.524 . S
C1461 C1458 1.403 . S
C1461 C1462 1.392 . S
C1461 C1465 1.495 . S
C1462 C1461 1.392 . S
C1462 C1463 1.385 . S
C1462 C1464 1.478 . S
C1463 H1457 0.930 . S
C1463 C1459 1.400 . S
C1463 C1462 1.385 . S
C1464 C1462 1.478 . S
C1464 C1466 1.381 1_556 S
C1464 C1470 1.383 . S
C1465 C1461 1.495 . S
C1465 H1471 0.959 . S
C1465 H1472 0.961 . S
C1465 H1473 0.960 . S
C1466 C1464 1.381 1_554 S
C1466 C1467 1.394 . S
C1466 H1474 0.927 1_554 S
C1467 C1466 1.394 . S
C1467 C1468 1.383 . S
C1467 H1475 0.929 . S
C1468 C1467 1.383 . S
C1468 C1469 1.377 . S
C1469 H1453 0.930 . S
C1469 C1468 1.377 . S
C1469 C1470 1.379 1_554 S
C1470 H1454 0.931 . S
C1470 C1464 1.383 . S
C1470 C1469 1.379 1_556 S
H1471 C1465 0.959 . S
H1472 C1465 0.961 . S
H1473 C1465 0.960 . S
H1474 C1466 0.927 1_556 S
H1475 C1467 0.929 . S
H1476 C1484 0.929 . S
H1477 C1486 0.930 . S
H1478 C1488 0.930 . S
H1479 C1491 0.929 . S
H1480 C1494 0.930 . S
H1481 C1496 0.960 . S
H1482 C1496 0.960 . S
H1483 C1496 0.960 . S
C1484 H1476 0.929 . S
C1484 C1485 1.377 . S
C1484 C1486 1.384 . S
C1485 C1484 1.377 . S
C1485 C1491 1.390 . S
C1486 H1477 0.930 . S
C1486 C1484 1.384 . S
C1486 C1487 1.372 . S
C1487 C1486 1.372 . S
C1487 C1488 1.400 . S
C1487 C1492 1.490 . S
C1488 H1478 0.930 . S
C1488 C1487 1.400 . S
C1488 C1491 1.386 . S
H1489 C1505 0.930 . S
H1490 C1506 0.931 . S
C1491 H1479 0.929 . S
C1491 C1485 1.390 . S
C1491 C1488 1.386 . S
C1492 C1487 1.490 . S
C1492 C1494 1.395 . S
C1492 C1495 1.403 . S
H1493 C1499 0.930 . S
C1494 H1480 0.930 . S
C1494 C1492 1.395 . S
C1494 C1497 1.403 . S
C1495 C1492 1.403 . S
C1495 C1496 1.524 . S
C1495 C1499 1.400 . S
C1496 H1481 0.960 . S
C1496 H1482 0.960 . S
C1496 H1483 0.960 . S
C1496 C1495 1.524 . S
C1497 C1494 1.403 . S
C1497 C1498 1.392 . S
C1497 C1501 1.495 . S
C1498 C1497 1.392 . S
C1498 C1499 1.385 . S
C1498 C1500 1.478 . S
C1499 H1493 0.930 . S
C1499 C1495 1.400 . S
C1499 C1498 1.385 . S
C1500 C1498 1.478 . S
C1500 C1502 1.381 1_556 S
C1500 C1506 1.383 . S
C1501 C1497 1.495 . S
C1501 H1507 0.959 . S
C1501 H1508 0.961 . S
C1501 H1509 0.960 . S
C1502 C1500 1.381 1_554 S
C1502 C1503 1.394 . S
C1502 H1510 0.930 1_554 S
C1503 C1502 1.394 . S
C1503 C1504 1.383 . S
C1503 H1511 0.929 . S
C1504 C1503 1.383 . S
C1504 C1505 1.377 . S
C1505 H1489 0.930 . S
C1505 C1504 1.377 . S
C1505 C1506 1.379 1_554 S
C1506 H1490 0.931 . S
C1506 C1500 1.383 . S
C1506 C1505 1.379 1_556 S
H1507 C1501 0.959 . S
H1508 C1501 0.961 . S
H1509 C1501 0.960 . S
H1510 C1502 0.930 1_556 S
H1511 C1503 0.929 . S
H1512 C1520 0.929 . S
H1513 C1522 0.930 . S
H1514 C1524 0.930 . S
H1515 C1527 0.929 . S
H1516 C1530 0.930 . S
H1517 C1532 0.960 . S
H1518 C1532 0.960 . S
H1519 C1532 0.960 . S
C1520 H1512 0.929 . S
C1520 C1521 1.377 . S
C1520 C1522 1.384 . S
C1521 C1520 1.377 . S
C1521 C1527 1.390 . S
C1522 H1513 0.930 . S
C1522 C1520 1.384 . S
C1522 C1523 1.372 . S
C1523 C1522 1.372 . S
C1523 C1524 1.400 . S
C1523 C1528 1.490 . S
C1524 H1514 0.930 . S
C1524 C1523 1.400 . S
C1524 C1527 1.386 . S
H1525 C1541 0.930 . S
H1526 C1542 0.923 1_556 S
C1527 H1515 0.929 . S
C1527 C1521 1.390 . S
C1527 C1524 1.386 . S
C1528 C1523 1.490 . S
C1528 C1530 1.395 . S
C1528 C1531 1.403 . S
H1529 C1535 0.930 . S
C1530 H1516 0.930 . S
C1530 C1528 1.395 . S
C1530 C1533 1.403 . S
C1531 C1528 1.403 . S
C1531 C1532 1.524 . S
C1531 C1535 1.400 . S
C1532 H1517 0.960 . S
C1532 H1518 0.960 . S
C1532 H1519 0.960 . S
C1532 C1531 1.524 . S
C1533 C1530 1.403 . S
C1533 C1534 1.392 . S
C1533 C1537 1.495 . S
C1534 C1533 1.392 . S
C1534 C1535 1.385 . S
C1534 C1536 1.478 . S
C1535 H1529 0.930 . S
C1535 C1531 1.400 . S
C1535 C1534 1.385 . S
C1536 C1534 1.478 . S
C1536 C1538 1.381 1_556 S
C1536 C1542 1.375 1_556 S
C1537 C1533 1.495 . S
C1537 H1543 0.959 . S
C1537 H1544 0.961 . S
C1537 H1545 0.960 . S
C1538 C1536 1.381 1_554 S
C1538 C1539 1.394 . S
C1538 H1546 0.930 1_554 S
C1539 C1538 1.394 . S
C1539 C1540 1.383 . S
C1539 H1547 0.929 . S
C1540 C1539 1.383 . S
C1540 C1541 1.377 . S
C1541 H1525 0.930 . S
C1541 C1540 1.377 . S
C1541 C1542 1.396 . S
C1542 H1526 0.923 1_554 S
C1542 C1536 1.375 1_554 S
C1542 C1541 1.396 . S
H1543 C1537 0.959 . S
H1544 C1537 0.961 . S
H1545 C1537 0.960 . S
H1546 C1538 0.930 1_556 S
H1547 C1539 0.929 . S
H1548 C1556 0.929 . S
H1549 C1558 0.930 . S
H1550 C1560 0.930 . S
H1551 C1563 0.929 . S
H1552 C1566 0.930 . S
H1553 C1568 0.960 . S
H1554 C1568 0.960 . S
H1555 C1568 0.960 . S
C1556 H1548 0.929 . S
C1556 C1557 1.377 . S
C1556 C1558 1.384 . S
C1557 C1556 1.377 . S
C1557 C1563 1.390 . S
C1558 H1549 0.930 . S
C1558 C1556 1.384 . S
C1558 C1559 1.372 . S
C1559 C1558 1.372 . S
C1559 C1560 1.400 . S
C1559 C1564 1.490 . S
C1560 H1550 0.930 . S
C1560 C1559 1.400 . S
C1560 C1563 1.386 . S
H1561 C1577 0.930 . S
H1562 C1578 0.931 . S
C1563 H1551 0.929 . S
C1563 C1557 1.390 . S
C1563 C1560 1.386 . S
C1564 C1559 1.490 . S
C1564 C1566 1.395 . S
C1564 C1567 1.403 . S
H1565 C1571 0.930 . S
C1566 H1552 0.930 . S
C1566 C1564 1.395 . S
C1566 C1569 1.403 . S
C1567 C1564 1.403 . S
C1567 C1568 1.524 . S
C1567 C1571 1.400 . S
C1568 H1553 0.960 . S
C1568 H1554 0.960 . S
C1568 H1555 0.960 . S
C1568 C1567 1.524 . S
C1569 C1566 1.403 . S
C1569 C1570 1.392 . S
C1569 C1573 1.495 . S
C1570 C1569 1.392 . S
C1570 C1571 1.385 . S
C1570 C1572 1.478 . S
C1571 H1565 0.930 . S
C1571 C1567 1.400 . S
C1571 C1570 1.385 . S
C1572 C1570 1.478 . S
C1572 C1574 1.381 . S
C1572 C1578 1.383 . S
C1573 C1569 1.495 . S
C1573 H1579 0.959 . S
C1573 H1580 0.961 . S
C1573 H1581 0.960 . S
C1574 C1572 1.381 . S
C1574 C1575 1.394 . S
C1574 H1582 0.930 . S
C1575 C1574 1.394 . S
C1575 C1576 1.383 . S
C1575 H1583 0.929 . S
C1576 C1575 1.383 . S
C1576 C1577 1.377 . S
C1577 H1561 0.930 . S
C1577 C1576 1.377 . S
C1577 C1578 1.379 . S
C1578 H1562 0.931 . S
C1578 C1572 1.383 . S
C1578 C1577 1.379 . S
H1579 C1573 0.959 . S
H1580 C1573 0.961 . S
H1581 C1573 0.960 . S
H1582 C1574 0.930 . S
H1583 C1575 0.929 . S
H1584 C1592 0.929 . S
H1585 C1594 0.930 . S
H1586 C1596 0.930 . S
H1587 C1599 0.929 . S
H1588 C1602 0.930 . S
H1589 C1604 0.960 . S
H1590 C1604 0.960 . S
H1591 C1604 0.960 . S
C1592 H1584 0.929 . S
C1592 C1593 1.377 . S
C1592 C1594 1.384 . S
C1593 C1592 1.377 . S
C1593 C1599 1.390 . S
C1594 H1585 0.930 . S
C1594 C1592 1.384 . S
C1594 C1595 1.372 . S
C1595 C1594 1.372 . S
C1595 C1596 1.400 . S
C1595 C1600 1.490 . S
C1596 H1586 0.930 . S
C1596 C1595 1.400 . S
C1596 C1599 1.386 . S
H1597 C1613 0.930 . S
H1598 C1614 0.931 . S
C1599 H1587 0.929 . S
C1599 C1593 1.390 . S
C1599 C1596 1.386 . S
C1600 C1595 1.490 . S
C1600 C1602 1.395 . S
C1600 C1603 1.403 . S
H1601 C1607 0.930 . S
C1602 H1588 0.930 . S
C1602 C1600 1.395 . S
C1602 C1605 1.403 . S
C1603 C1600 1.403 . S
C1603 C1604 1.524 . S
C1603 C1607 1.400 . S
C1604 H1589 0.960 . S
C1604 H1590 0.960 . S
C1604 H1591 0.960 . S
C1604 C1603 1.524 . S
C1605 C1602 1.403 . S
C1605 C1606 1.392 . S
C1605 C1609 1.495 . S
C1606 C1605 1.392 . S
C1606 C1607 1.385 . S
C1606 C1608 1.478 . S
C1607 H1601 0.930 . S
C1607 C1603 1.400 . S
C1607 C1606 1.385 . S
C1608 C1606 1.478 . S
C1608 C1610 1.381 . S
C1608 C1614 1.383 . S
C1609 C1605 1.495 . S
C1609 H1615 0.959 . S
C1609 H1616 0.961 . S
C1609 H1617 0.960 . S
C1610 C1608 1.381 . S
C1610 C1611 1.394 . S
C1610 H1618 0.930 . S
C1611 C1610 1.394 . S
C1611 C1612 1.383 . S
C1611 H1619 0.929 . S
C1612 C1611 1.383 . S
C1612 C1613 1.377 . S
C1613 H1597 0.930 . S
C1613 C1612 1.377 . S
C1613 C1614 1.379 . S
C1614 H1598 0.931 . S
C1614 C1608 1.383 . S
C1614 C1613 1.379 . S
H1615 C1609 0.959 . S
H1616 C1609 0.961 . S
H1617 C1609 0.960 . S
H1618 C1610 0.930 . S
H1619 C1611 0.929 . S
H1620 C1628 0.929 . S
H1621 C1630 0.930 . S
H1622 C1632 0.930 . S
H1623 C1635 0.929 . S
H1624 C1638 0.930 . S
H1625 C1640 0.960 . S
H1626 C1640 0.960 . S
H1627 C1640 0.960 . S
C1628 H1620 0.929 . S
C1628 C1629 1.377 . S
C1628 C1630 1.384 . S
C1629 C1628 1.377 . S
C1629 C1635 1.390 . S
C1630 H1621 0.930 . S
C1630 C1628 1.384 . S
C1630 C1631 1.372 . S
C1631 C1630 1.372 . S
C1631 C1632 1.400 . S
C1631 C1636 1.490 . S
C1632 H1622 0.930 . S
C1632 C1631 1.400 . S
C1632 C1635 1.386 . S
H1633 C1649 0.930 . S
H1634 C1650 0.931 . S
C1635 H1623 0.929 . S
C1635 C1629 1.390 . S
C1635 C1632 1.386 . S
C1636 C1631 1.490 . S
C1636 C1638 1.395 . S
C1636 C1639 1.403 . S
H1637 C1643 0.930 . S
C1638 H1624 0.930 . S
C1638 C1636 1.395 . S
C1638 C1641 1.403 . S
C1639 C1636 1.403 . S
C1639 C1640 1.524 . S
C1639 C1643 1.400 . S
C1640 H1625 0.960 . S
C1640 H1626 0.960 . S
C1640 H1627 0.960 . S
C1640 C1639 1.524 . S
C1641 C1638 1.403 . S
C1641 C1642 1.392 . S
C1641 C1645 1.495 . S
C1642 C1641 1.392 . S
C1642 C1643 1.385 . S
C1642 C1644 1.478 . S
C1643 H1637 0.930 . S
C1643 C1639 1.400 . S
C1643 C1642 1.385 . S
C1644 C1642 1.478 . S
C1644 C1646 1.381 . S
C1644 C1650 1.383 . S
C1645 C1641 1.495 . S
C1645 H1651 0.959 . S
C1645 H1652 0.961 . S
C1645 H1653 0.960 . S
C1646 C1644 1.381 . S
C1646 C1647 1.394 . S
C1646 H1654 0.930 . S
C1647 C1646 1.394 . S
C1647 C1648 1.383 . S
C1647 H1655 0.929 . S
C1648 C1647 1.383 . S
C1648 C1649 1.377 . S
C1649 H1633 0.930 . S
C1649 C1648 1.377 . S
C1649 C1650 1.379 . S
C1650 H1634 0.931 . S
C1650 C1644 1.383 . S
C1650 C1649 1.379 . S
H1651 C1645 0.959 . S
H1652 C1645 0.961 . S
H1653 C1645 0.960 . S
H1654 C1646 0.930 . S
H1655 C1647 0.929 . S
H1656 C1664 0.929 . S
H1657 C1666 0.930 . S
H1658 C1668 0.930 . S
H1659 C1671 0.929 . S
H1660 C1674 0.930 . S
H1661 C1676 0.934 1_545 S
H1662 C1676 0.965 . S
H1663 C1676 0.962 . S
C1664 H1656 0.929 . S
C1664 C1665 1.377 . S
C1664 C1666 1.384 . S
C1665 C1664 1.377 . S
C1665 C1671 1.390 . S
C1666 H1657 0.930 . S
C1666 C1664 1.384 . S
C1666 C1667 1.372 . S
C1667 C1666 1.372 . S
C1667 C1668 1.400 . S
C1667 C1672 1.490 . S
C1668 H1658 0.930 . S
C1668 C1667 1.400 . S
C1668 C1671 1.386 . S
H1669 C1685 0.930 . S
H1670 C1686 0.931 . S
C1671 H1659 0.929 . S
C1671 C1665 1.390 . S
C1671 C1668 1.386 . S
C1672 C1667 1.490 . S
C1672 C1674 1.395 . S
C1672 C1675 1.403 . S
H1673 C1679 0.930 . S
C1674 H1660 0.930 . S
C1674 C1672 1.395 . S
C1674 C1677 1.403 . S
C1675 C1672 1.403 . S
C1675 C1676 1.544 . S
C1675 C1679 1.400 1_565 S
C1676 H1661 0.934 1_565 S
C1676 H1662 0.965 . S
C1676 H1663 0.962 . S
C1676 C1675 1.544 . S
C1677 C1674 1.403 . S
C1677 C1678 1.392 1_565 S
C1677 C1681 1.495 . S
C1678 C1677 1.392 1_545 S
C1678 C1679 1.385 . S
C1678 C1680 1.478 . S
C1679 H1673 0.930 . S
C1679 C1675 1.400 1_545 S
C1679 C1678 1.385 . S
C1680 C1678 1.478 . S
C1680 C1682 1.381 . S
C1680 C1686 1.383 . S
C1681 C1677 1.495 . S
C1681 H1687 0.959 . S
C1681 H1688 0.961 . S
C1681 H1689 0.960 . S
C1682 C1680 1.381 . S
C1682 C1683 1.399 . S
C1682 H1690 0.934 . S
C1683 C1682 1.399 . S
C1683 C1684 1.390 . S
C1683 H1691 0.918 1_556 S
C1684 C1683 1.390 . S
C1684 C1685 1.377 . S
C1685 H1669 0.930 . S
C1685 C1684 1.377 . S
C1685 C1686 1.379 . S
C1686 H1670 0.931 . S
C1686 C1680 1.383 . S
C1686 C1685 1.379 . S
H1687 C1681 0.959 . S
H1688 C1681 0.961 . S
H1689 C1681 0.960 . S
H1690 C1682 0.934 . S
H1691 C1683 0.918 1_554 S
H1692 C1700 0.929 . S
H1693 C1702 0.930 . S
H1694 C1704 0.930 . S
H1695 C1707 0.929 1_554 S
H1696 C1710 0.930 . S
H1697 C1712 0.960 . S
H1698 C1712 0.960 . S
H1699 C1712 0.960 . S
C1700 H1692 0.929 . S
C1700 C1701 1.377 . S
C1700 C1702 1.384 . S
C1701 C1700 1.377 . S
C1701 C1707 1.390 . S
C1702 H1693 0.930 . S
C1702 C1700 1.384 . S
C1702 C1703 1.372 . S
C1703 C1702 1.372 . S
C1703 C1704 1.400 . S
C1703 C1708 1.490 . S
C1704 H1694 0.930 . S
C1704 C1703 1.400 . S
C1704 C1707 1.386 . S
H1705 C1721 0.930 . S
H1706 C1722 0.931 . S
C1707 H1695 0.929 1_556 S
C1707 C1701 1.390 . S
C1707 C1704 1.386 . S
C1708 C1703 1.490 . S
C1708 C1710 1.395 1_655 S
C1708 C1711 1.403 . S
H1709 C1715 0.930 . S
C1710 H1696 0.930 . S
C1710 C1708 1.395 1_455 S
C1710 C1713 1.403 . S
C1711 C1708 1.403 . S
C1711 C1712 1.524 . S
C1711 C1715 1.400 1_655 S
C1712 H1697 0.960 . S
C1712 H1698 0.960 . S
C1712 H1699 0.960 . S
C1712 C1711 1.524 . S
C1713 C1710 1.403 . S
C1713 C1714 1.392 . S
C1713 C1717 1.495 . S
C1714 C1713 1.392 . S
C1714 C1715 1.385 . S
C1714 C1716 1.478 . S
C1715 H1709 0.930 . S
C1715 C1711 1.400 1_455 S
C1715 C1714 1.385 . S
C1716 C1714 1.478 . S
C1716 C1718 1.381 . S
C1716 C1722 1.383 . S
C1717 C1713 1.495 . S
C1717 H1723 0.959 . S
C1717 H1724 0.961 . S
C1717 H1725 0.960 . S
C1718 C1716 1.381 . S
C1718 C1719 1.394 . S
C1718 H1726 0.930 . S
C1719 C1718 1.394 . S
C1719 C1720 1.383 . S
C1719 H1727 0.929 . S
C1720 C1719 1.383 . S
C1720 C1721 1.377 . S
C1721 H1705 0.930 . S
C1721 C1720 1.377 . S
C1721 C1722 1.379 . S
C1722 H1706 0.931 . S
C1722 C1716 1.383 . S
C1722 C1721 1.379 . S
H1723 C1717 0.959 . S
H1724 C1717 0.961 . S
H1725 C1717 0.960 . S
H1726 C1718 0.930 . S
H1727 C1719 0.929 . S
H1728 C1736 0.929 . S
H1729 C1738 0.930 . S
H1730 C1740 0.930 . S
H1731 C1743 0.929 . S
H1732 C1746 0.930 . S
H1733 C1748 0.960 . S
H1734 C1748 0.960 . S
H1735 C1748 0.960 . S
C1736 H1728 0.929 . S
C1736 C1737 1.377 . S
C1736 C1738 1.384 . S
C1737 C1736 1.377 . S
C1737 C1743 1.390 . S
C1738 H1729 0.930 . S
C1738 C1736 1.384 . S
C1738 C1739 1.372 . S
C1739 C1738 1.372 . S
C1739 C1740 1.400 . S
C1739 C1744 1.490 . S
C1740 H1730 0.930 . S
C1740 C1739 1.400 . S
C1740 C1743 1.386 . S
H1741 C1757 0.930 . S
H1742 C1758 0.931 . S
C1743 H1731 0.929 . S
C1743 C1737 1.390 . S
C1743 C1740 1.386 . S
C1744 C1739 1.490 . S
C1744 C1746 1.395 . S
C1744 C1747 1.403 . S
H1745 C1751 0.930 . S
C1746 H1732 0.930 . S
C1746 C1744 1.395 . S
C1746 C1749 1.403 . S
C1747 C1744 1.403 . S
C1747 C1748 1.524 . S
C1747 C1751 1.400 . S
C1748 H1733 0.960 . S
C1748 H1734 0.960 . S
C1748 H1735 0.960 . S
C1748 C1747 1.524 . S
C1749 C1746 1.403 . S
C1749 C1750 1.392 . S
C1749 C1753 1.495 . S
C1750 C1749 1.392 . S
C1750 C1751 1.385 . S
C1750 C1752 1.478 . S
C1751 H1745 0.930 . S
C1751 C1747 1.400 . S
C1751 C1750 1.385 . S
C1752 C1750 1.478 . S
C1752 C1754 1.381 . S
C1752 C1758 1.383 . S
C1753 C1749 1.495 . S
C1753 H1759 0.959 1_556 S
C1753 H1760 0.961 1_556 S
C1753 H1761 0.960 . S
C1754 C1752 1.381 . S
C1754 C1755 1.394 . S
C1754 H1762 0.930 . S
C1755 C1754 1.394 . S
C1755 C1756 1.383 . S
C1755 H1763 0.929 . S
C1756 C1755 1.383 . S
C1756 C1757 1.377 . S
C1757 H1741 0.930 . S
C1757 C1756 1.377 . S
C1757 C1758 1.379 . S
C1758 H1742 0.931 . S
C1758 C1752 1.383 . S
C1758 C1757 1.379 . S
H1759 C1753 0.959 1_554 S
H1760 C1753 0.961 1_554 S
H1761 C1753 0.960 . S
H1762 C1754 0.930 . S
H1763 C1755 0.929 . S
H1764 C1772 0.929 . S
H1765 C1774 0.930 . S
H1766 C1776 0.930 . S
H1767 C1779 0.929 . S
H1768 C1782 0.930 . S
H1769 C1784 0.960 . S
H1770 C1784 0.960 . S
H1771 C1784 0.960 . S
C1772 H1764 0.929 . S
C1772 C1773 1.377 . S
C1772 C1774 1.384 . S
C1773 C1772 1.377 . S
C1773 C1779 1.390 . S
C1774 H1765 0.930 . S
C1774 C1772 1.384 . S
C1774 C1775 1.372 . S
C1775 C1774 1.372 . S
C1775 C1776 1.400 . S
C1775 C1780 1.490 . S
C1776 H1766 0.930 . S
C1776 C1775 1.400 . S
C1776 C1779 1.386 . S
H1777 C1793 0.930 . S
H1778 C1794 0.931 . S
C1779 H1767 0.929 . S
C1779 C1773 1.390 . S
C1779 C1776 1.386 . S
C1780 C1775 1.490 . S
C1780 C1782 1.395 1_655 S
C1780 C1783 1.407 1_655 S
H1781 C1787 0.930 . S
C1782 H1768 0.930 . S
C1782 C1780 1.395 1_455 S
C1782 C1785 1.403 . S
C1783 C1780 1.407 1_455 S
C1783 C1784 1.515 1_455 S
C1783 C1787 1.406 . S
C1784 H1769 0.960 . S
C1784 H1770 0.960 . S
C1784 H1771 0.960 . S
C1784 C1783 1.515 1_655 S
C1785 C1782 1.403 . S
C1785 C1786 1.392 . S
C1785 C1789 1.495 . S
C1786 C1785 1.392 . S
C1786 C1787 1.385 . S
C1786 C1788 1.478 . S
C1787 H1781 0.930 . S
C1787 C1783 1.406 . S
C1787 C1786 1.385 . S
C1788 C1786 1.478 . S
C1788 C1790 1.381 . S
C1788 C1794 1.383 . S
C1789 C1785 1.495 . S
C1789 H1795 0.959 . S
C1789 H1796 0.961 . S
C1789 H1797 0.960 . S
C1790 C1788 1.381 . S
C1790 C1791 1.394 . S
C1790 H1798 0.930 . S
C1791 C1790 1.394 . S
C1791 C1792 1.383 . S
C1791 H1799 0.929 . S
C1792 C1791 1.383 . S
C1792 C1793 1.377 . S
C1793 H1777 0.930 . S
C1793 C1792 1.377 . S
C1793 C1794 1.379 . S
C1794 H1778 0.931 . S
C1794 C1788 1.383 . S
C1794 C1793 1.379 . S
H1795 C1789 0.959 . S
H1796 C1789 0.961 . S
H1797 C1789 0.960 . S
H1798 C1790 0.930 . S
H1799 C1791 0.929 . S
H1800 C1808 0.929 . S
H1801 C1810 0.930 . S
H1802 C1812 0.930 . S
H1803 C1815 0.929 . S
H1804 C1818 0.930 . S
H1805 C1820 0.960 . S
H1806 C1820 0.960 . S
H1807 C1820 0.960 . S
C1808 H1800 0.929 . S
C1808 C1809 1.377 . S
C1808 C1810 1.384 . S
C1809 C1808 1.377 . S
C1809 C1815 1.390 . S
C1810 H1801 0.930 . S
C1810 C1808 1.384 . S
C1810 C1811 1.372 . S
C1811 C1810 1.372 . S
C1811 C1812 1.400 . S
C1811 C1816 1.490 . S
C1812 H1802 0.930 . S
C1812 C1811 1.400 . S
C1812 C1815 1.386 . S
H1813 C1829 0.930 . S
H1814 C1830 0.931 . S
C1815 H1803 0.929 . S
C1815 C1809 1.390 . S
C1815 C1812 1.386 . S
C1816 C1811 1.490 . S
C1816 C1818 1.395 . S
C1816 C1819 1.403 . S
H1817 C1823 0.930 . S
C1818 H1804 0.930 . S
C1818 C1816 1.395 . S
C1818 C1821 1.403 . S
C1819 C1816 1.403 . S
C1819 C1820 1.524 . S
C1819 C1823 1.400 . S
C1820 H1805 0.960 . S
C1820 H1806 0.960 . S
C1820 H1807 0.960 . S
C1820 C1819 1.524 . S
C1821 C1818 1.403 . S
C1821 C1822 1.392 . S
C1821 C1825 1.495 . S
C1822 C1821 1.392 . S
C1822 C1823 1.385 . S
C1822 C1824 1.478 . S
C1823 H1817 0.930 . S
C1823 C1819 1.400 . S
C1823 C1822 1.385 . S
C1824 C1822 1.478 . S
C1824 C1826 1.381 . S
C1824 C1830 1.383 . S
C1825 C1821 1.495 . S
C1825 H1831 0.959 . S
C1825 H1832 0.961 . S
C1825 H1833 0.960 . S
C1826 C1824 1.381 . S
C1826 C1827 1.394 . S
C1826 H1834 0.930 . S
C1827 C1826 1.394 . S
C1827 C1828 1.383 . S
C1827 H1835 0.929 . S
C1828 C1827 1.383 . S
C1828 C1829 1.377 . S
C1829 H1813 0.930 . S
C1829 C1828 1.377 . S
C1829 C1830 1.379 . S
C1830 H1814 0.931 . S
C1830 C1824 1.383 . S
C1830 C1829 1.379 . S
H1831 C1825 0.959 . S
H1832 C1825 0.961 . S
H1833 C1825 0.960 . S
H1834 C1826 0.930 . S
H1835 C1827 0.929 . S
H1836 C1844 0.929 . S
H1837 C1846 0.930 . S
H1838 C1848 0.930 . S
H1839 C1851 0.929 . S
H1840 C1854 0.930 . S
H1841 C1856 0.932 1_545 S
H1842 C1856 0.966 . S
H1843 C1856 0.993 . S
C1844 H1836 0.929 . S
C1844 C1845 1.377 . S
C1844 C1846 1.384 . S
C1845 C1844 1.377 . S
C1845 C1851 1.390 . S
C1846 H1837 0.930 . S
C1846 C1844 1.384 . S
C1846 C1847 1.372 . S
C1847 C1846 1.372 . S
C1847 C1848 1.400 . S
C1847 C1852 1.490 . S
C1848 H1838 0.930 . S
C1848 C1847 1.400 . S
C1848 C1851 1.386 . S
H1849 C1865 0.930 . S
H1850 C1866 0.931 . S
C1851 H1839 0.929 . S
C1851 C1845 1.390 . S
C1851 C1848 1.386 . S
C1852 C1847 1.490 . S
C1852 C1854 1.395 . S
C1852 C1855 1.403 . S
H1853 C1859 0.930 . S
C1854 H1840 0.930 . S
C1854 C1852 1.395 . S
C1854 C1857 1.403 . S
C1855 C1852 1.403 . S
C1855 C1856 1.515 . S
C1855 C1859 1.400 1_565 S
C1856 H1841 0.932 1_565 S
C1856 H1842 0.966 . S
C1856 H1843 0.993 . S
C1856 C1855 1.515 . S
C1857 C1854 1.403 . S
C1857 C1858 1.392 1_565 S
C1857 C1861 1.495 . S
C1858 C1857 1.392 1_545 S
C1858 C1859 1.385 . S
C1858 C1860 1.478 . S
C1859 H1853 0.930 . S
C1859 C1855 1.400 1_545 S
C1859 C1858 1.385 . S
C1860 C1858 1.478 . S
C1860 C1862 1.381 . S
C1860 C1866 1.383 . S
C1861 C1857 1.495 . S
C1861 H1867 0.959 . S
C1861 H1868 0.961 . S
C1861 H1869 0.960 . S
C1862 C1860 1.381 . S
C1862 C1863 1.394 . S
C1862 H1870 0.930 . S
C1863 C1862 1.394 . S
C1863 C1864 1.383 . S
C1863 H1871 0.929 . S
C1864 C1863 1.383 . S
C1864 C1865 1.377 . S
C1865 H1849 0.930 . S
C1865 C1864 1.377 . S
C1865 C1866 1.379 . S
C1866 H1850 0.931 . S
C1866 C1860 1.383 . S
C1866 C1865 1.379 . S
H1867 C1861 0.959 . S
H1868 C1861 0.961 . S
H1869 C1861 0.960 . S
H1870 C1862 0.930 . S
H1871 C1863 0.929 . S
H1872 C1880 0.929 . S
H1873 C1882 0.930 . S
H1874 C1884 0.930 . S
H1875 C1887 0.929 . S
H1876 C1890 0.930 . S
H1877 C1892 0.960 . S
H1878 C1892 0.960 . S
H1879 C1892 0.960 . S
C1880 H1872 0.929 . S
C1880 C1881 1.377 . S
C1880 C1882 1.384 . S
C1881 C1880 1.377 . S
C1881 C1887 1.390 . S
C1882 H1873 0.930 . S
C1882 C1880 1.384 . S
C1882 C1883 1.372 . S
C1883 C1882 1.372 . S
C1883 C1884 1.400 . S
C1883 C1888 1.490 . S
C1884 H1874 0.930 . S
C1884 C1883 1.400 . S
C1884 C1887 1.386 . S
H1885 C1901 0.930 1_655 S
H1886 C1902 0.931 . S
C1887 H1875 0.929 . S
C1887 C1881 1.390 . S
C1887 C1884 1.386 . S
C1888 C1883 1.490 . S
C1888 C1890 1.395 . S
C1888 C1891 1.403 . S
H1889 C1895 0.930 . S
C1890 H1876 0.930 . S
C1890 C1888 1.395 . S
C1890 C1893 1.403 . S
C1891 C1888 1.403 . S
C1891 C1892 1.524 . S
C1891 C1895 1.400 . S
C1892 H1877 0.960 . S
C1892 H1878 0.960 . S
C1892 H1879 0.960 . S
C1892 C1891 1.524 . S
C1893 C1890 1.403 . S
C1893 C1894 1.392 . S
C1893 C1897 1.495 . S
C1894 C1893 1.392 . S
C1894 C1895 1.385 . S
C1894 C1896 1.478 . S
C1895 H1889 0.930 . S
C1895 C1891 1.400 . S
C1895 C1894 1.385 . S
C1896 C1894 1.478 . S
C1896 C1898 1.381 . S
C1896 C1902 1.383 . S
C1897 C1893 1.495 . S
C1897 H1903 0.959 . S
C1897 H1904 0.961 . S
C1897 H1905 0.960 . S
C1898 C1896 1.381 . S
C1898 C1899 1.394 . S
C1898 H1906 0.930 . S
C1899 C1898 1.394 . S
C1899 C1900 1.383 1_455 S
C1899 H1907 0.929 . S
C1900 C1899 1.383 1_655 S
C1900 C1901 1.377 1_655 S
C1901 H1885 0.930 1_455 S
C1901 C1900 1.377 1_455 S
C1901 C1902 1.379 . S
C1902 H1886 0.931 . S
C1902 C1896 1.383 . S
C1902 C1901 1.379 . S
H1903 C1897 0.959 . S
H1904 C1897 0.961 . S
H1905 C1897 0.960 . S
H1906 C1898 0.930 . S
H1907 C1899 0.929 . S
H1908 C1916 0.929 . S
H1909 C1918 0.930 . S
H1910 C1920 0.930 . S
H1911 C1923 0.929 . S
H1912 C1926 0.930 . S
H1913 C1928 0.960 . S
H1914 C1928 0.960 . S
H1915 C1928 0.960 . S
C1916 H1908 0.929 . S
C1916 C1917 1.377 . S
C1916 C1918 1.384 . S
C1917 C1916 1.377 . S
C1917 C1923 1.390 . S
C1918 H1909 0.930 . S
C1918 C1916 1.384 . S
C1918 C1919 1.372 . S
C1919 C1918 1.372 . S
C1919 C1920 1.400 . S
C1919 C1924 1.490 . S
C1920 H1910 0.930 . S
C1920 C1919 1.400 . S
C1920 C1923 1.386 . S
H1921 C1937 0.930 . S
H1922 C1938 0.931 . S
C1923 H1911 0.929 . S
C1923 C1917 1.390 . S
C1923 C1920 1.386 . S
C1924 C1919 1.490 . S
C1924 C1926 1.395 . S
C1924 C1927 1.403 . S
H1925 C1931 0.930 . S
C1926 H1912 0.930 . S
C1926 C1924 1.395 . S
C1926 C1929 1.403 . S
C1927 C1924 1.403 . S
C1927 C1928 1.524 . S
C1927 C1931 1.400 . S
C1928 H1913 0.960 . S
C1928 H1914 0.960 . S
C1928 H1915 0.960 . S
C1928 C1927 1.524 . S
C1929 C1926 1.403 . S
C1929 C1930 1.392 . S
C1929 C1933 1.495 . S
C1930 C1929 1.392 . S
C1930 C1931 1.385 . S
C1930 C1932 1.478 . S
C1931 H1925 0.930 . S
C1931 C1927 1.400 . S
C1931 C1930 1.385 . S
C1932 C1930 1.478 . S
C1932 C1934 1.381 . S
C1932 C1938 1.383 . S
C1933 C1929 1.495 . S
C1933 H1939 0.959 . S
C1933 H1940 0.961 . S
C1933 H1941 0.960 . S
C1934 C1932 1.381 . S
C1934 C1935 1.394 . S
C1934 H1942 0.930 . S
C1935 C1934 1.394 . S
C1935 C1936 1.383 . S
C1935 H1943 0.929 . S
C1936 C1935 1.383 . S
C1936 C1937 1.377 . S
C1937 H1921 0.930 . S
C1937 C1936 1.377 . S
C1937 C1938 1.379 . S
C1938 H1922 0.931 . S
C1938 C1932 1.383 . S
C1938 C1937 1.379 . S
H1939 C1933 0.959 . S
H1940 C1933 0.961 . S
H1941 C1933 0.960 . S
H1942 C1934 0.930 . S
H1943 C1935 0.929 . S
H1944 C1952 0.929 . S
H1945 C1954 0.930 . S
H1946 C1956 0.930 . S
H1947 C1959 0.929 . S
H1948 C1962 0.930 . S
H1949 C1964 0.960 . S
H1950 C1964 0.960 . S
H1951 C1964 0.960 . S
C1952 H1944 0.929 . S
C1952 C1953 1.377 . S
C1952 C1954 1.384 . S
C1953 C1952 1.377 . S
C1953 C1959 1.390 . S
C1954 H1945 0.930 . S
C1954 C1952 1.384 . S
C1954 C1955 1.372 . S
C1955 C1954 1.372 . S
C1955 C1956 1.400 . S
C1955 C1960 1.490 . S
C1956 H1946 0.930 . S
C1956 C1955 1.400 . S
C1956 C1959 1.386 . S
H1957 C1973 0.930 . S
H1958 C1974 0.931 . S
C1959 H1947 0.929 . S
C1959 C1953 1.390 . S
C1959 C1956 1.386 . S
C1960 C1955 1.490 . S
C1960 C1962 1.395 . S
C1960 C1963 1.403 . S
H1961 C1967 0.930 . S
C1962 H1948 0.930 . S
C1962 C1960 1.395 . S
C1962 C1965 1.403 . S
C1963 C1960 1.403 . S
C1963 C1964 1.524 . S
C1963 C1967 1.400 . S
C1964 H1949 0.960 . S
C1964 H1950 0.960 . S
C1964 H1951 0.960 . S
C1964 C1963 1.524 . S
C1965 C1962 1.403 . S
C1965 C1966 1.392 . S
C1965 C1969 1.495 . S
C1966 C1965 1.392 . S
C1966 C1967 1.385 . S
C1966 C1968 1.478 . S
C1967 H1961 0.930 . S
C1967 C1963 1.400 . S
C1967 C1966 1.385 . S
C1968 C1966 1.478 . S
C1968 C1970 1.381 . S
C1968 C1974 1.383 . S
C1969 C1965 1.495 . S
C1969 H1975 0.959 . S
C1969 H1976 0.961 . S
C1969 H1977 0.960 . S
C1970 C1968 1.381 . S
C1970 C1971 1.394 1_565 S
C1970 H1978 0.930 . S
C1971 C1970 1.394 1_545 S
C1971 C1972 1.383 . S
C1971 H1979 0.929 . S
C1972 C1971 1.383 . S
C1972 C1973 1.377 1_545 S
C1973 H1957 0.930 . S
C1973 C1972 1.377 1_565 S
C1973 C1974 1.379 . S
C1974 H1958 0.931 . S
C1974 C1968 1.383 . S
C1974 C1973 1.379 . S
H1975 C1969 0.959 . S
H1976 C1969 0.961 . S
H1977 C1969 0.960 . S
H1978 C1970 0.930 . S
H1979 C1971 0.929 . S
H1980 C1988 0.930 . S
H1981 C1990 0.930 . S
H1982 C1992 0.930 . S
H1983 C1995 0.929 . S
H1984 C1998 0.930 . S
H1985 C2000 0.960 . S
H1986 C2000 0.960 . S
H1987 C2000 0.960 . S
C1988 H1980 0.930 . S
C1988 C1989 1.377 1_565 S
C1988 C1990 1.384 . S
C1989 C1988 1.377 1_545 S
C1989 C1995 1.390 1_545 S
C1990 H1981 0.930 . S
C1990 C1988 1.384 . S
C1990 C1991 1.372 . S
C1991 C1990 1.372 . S
C1991 C1992 1.400 . S
C1991 C1996 1.490 . S
C1992 H1982 0.930 . S
C1992 C1991 1.400 . S
C1992 C1995 1.386 . S
H1993 C2009 0.930 . S
H1994 C2010 0.931 . S
C1995 H1983 0.929 . S
C1995 C1989 1.390 1_565 S
C1995 C1992 1.386 . S
C1996 C1991 1.490 . S
C1996 C1998 1.395 . S
C1996 C1999 1.403 . S
H1997 C2003 0.930 . S
C1998 H1984 0.930 . S
C1998 C1996 1.395 . S
C1998 C2001 1.403 . S
C1999 C1996 1.403 . S
C1999 C2000 1.524 . S
C1999 C2003 1.400 . S
C2000 H1985 0.960 . S
C2000 H1986 0.960 . S
C2000 H1987 0.960 . S
C2000 C1999 1.524 . S
C2001 C1998 1.403 . S
C2001 C2002 1.392 . S
C2001 C2005 1.495 . S
C2002 C2001 1.392 . S
C2002 C2003 1.385 . S
C2002 C2004 1.478 . S
C2003 H1997 0.930 . S
C2003 C1999 1.400 . S
C2003 C2002 1.385 . S
C2004 C2002 1.478 . S
C2004 C2006 1.381 . S
C2004 C2010 1.383 . S
C2005 C2001 1.495 . S
C2005 H2011 0.959 . S
C2005 H2012 0.961 . S
C2005 H2013 0.960 . S
C2006 C2004 1.381 . S
C2006 C2007 1.394 . S
C2006 H2014 0.930 . S
C2007 C2006 1.394 . S
C2007 C2008 1.383 . S
C2007 H2015 0.929 . S
C2008 C2007 1.383 . S
C2008 C2009 1.377 . S
C2009 H1993 0.930 . S
C2009 C2008 1.377 . S
C2009 C2010 1.379 . S
C2010 H1994 0.931 . S
C2010 C2004 1.383 . S
C2010 C2009 1.379 . S
H2011 C2005 0.959 . S
H2012 C2005 0.961 . S
H2013 C2005 0.960 . S
H2014 C2006 0.930 . S
H2015 C2007 0.929 . S
H2016 C2024 0.929 1_655 S
H2017 C2026 0.930 . S
H2018 C2028 0.930 . S
H2019 C2031 0.929 . S
H2020 C2034 0.930 . S
H2021 C2036 0.960 . S
H2022 C2036 0.960 . S
H2023 C2036 0.960 . S
C2024 H2016 0.929 1_455 S
C2024 C2025 1.377 1_455 S
C2024 C2026 1.384 . S
C2025 C2024 1.377 1_655 S
C2025 C2031 1.390 1_655 S
C2026 H2017 0.930 . S
C2026 C2024 1.384 . S
C2026 C2027 1.372 . S
C2027 C2026 1.372 . S
C2027 C2028 1.400 . S
C2027 C2032 1.490 . S
C2028 H2018 0.930 . S
C2028 C2027 1.400 . S
C2028 C2031 1.386 . S
H2029 C2045 0.930 . S
H2030 C2046 0.931 . S
C2031 H2019 0.929 . S
C2031 C2025 1.390 1_455 S
C2031 C2028 1.386 . S
C2032 C2027 1.490 . S
C2032 C2034 1.395 . S
C2032 C2035 1.403 . S
H2033 C2039 0.930 . S
C2034 H2020 0.930 . S
C2034 C2032 1.395 . S
C2034 C2037 1.403 . S
C2035 C2032 1.403 . S
C2035 C2036 1.524 . S
C2035 C2039 1.400 . S
C2036 H2021 0.960 . S
C2036 H2022 0.960 . S
C2036 H2023 0.960 . S
C2036 C2035 1.524 . S
C2037 C2034 1.403 . S
C2037 C2038 1.392 . S
C2037 C2041 1.495 . S
C2038 C2037 1.392 . S
C2038 C2039 1.385 . S
C2038 C2040 1.478 . S
C2039 H2033 0.930 . S
C2039 C2035 1.400 . S
C2039 C2038 1.385 . S
C2040 C2038 1.478 . S
C2040 C2042 1.381 . S
C2040 C2046 1.383 . S
C2041 C2037 1.495 . S
C2041 H2047 0.959 . S
C2041 H2048 0.961 . S
C2041 H2049 0.960 . S
C2042 C2040 1.381 . S
C2042 C2043 1.394 . S
C2042 H2050 0.930 . S
C2043 C2042 1.394 . S
C2043 C2044 1.383 . S
C2043 H2051 0.929 . S
C2044 C2043 1.383 . S
C2044 C2045 1.377 . S
C2045 H2029 0.930 . S
C2045 C2044 1.377 . S
C2045 C2046 1.379 . S
C2046 H2030 0.931 . S
C2046 C2040 1.383 . S
C2046 C2045 1.379 . S
H2047 C2041 0.959 . S
H2048 C2041 0.961 . S
H2049 C2041 0.960 . S
H2050 C2042 0.930 . S
H2051 C2043 0.929 . S
H2052 C2060 0.929 . S
H2053 C2062 0.930 . S
H2054 C2064 0.930 . S
H2055 C2067 0.929 . S
H2056 C2070 0.930 . S
H2057 C2072 0.960 . S
H2058 C2072 0.960 . S
H2059 C2072 0.960 . S
C2060 H2052 0.929 . S
C2060 C2061 1.377 . S
C2060 C2062 1.384 . S
C2061 C2060 1.377 . S
C2061 C2067 1.390 . S
C2062 H2053 0.930 . S
C2062 C2060 1.384 . S
C2062 C2063 1.372 . S
C2063 C2062 1.372 . S
C2063 C2064 1.400 . S
C2063 C2068 1.490 . S
C2064 H2054 0.930 . S
C2064 C2063 1.400 . S
C2064 C2067 1.386 . S
H2065 C2081 0.930 . S
H2066 C2082 0.931 . S
C2067 H2055 0.929 . S
C2067 C2061 1.390 . S
C2067 C2064 1.386 . S
C2068 C2063 1.490 . S
C2068 C2070 1.395 . S
C2068 C2071 1.403 . S
H2069 C2075 0.930 . S
C2070 H2056 0.930 . S
C2070 C2068 1.395 . S
C2070 C2073 1.403 . S
C2071 C2068 1.403 . S
C2071 C2072 1.524 . S
C2071 C2075 1.400 . S
C2072 H2057 0.960 . S
C2072 H2058 0.960 . S
C2072 H2059 0.960 . S
C2072 C2071 1.524 . S
C2073 C2070 1.403 . S
C2073 C2074 1.392 . S
C2073 C2077 1.495 . S
C2074 C2073 1.392 . S
C2074 C2075 1.385 . S
C2074 C2076 1.478 . S
C2075 H2069 0.930 . S
C2075 C2071 1.400 . S
C2075 C2074 1.385 . S
C2076 C2074 1.478 . S
C2076 C2078 1.381 . S
C2076 C2082 1.383 . S
C2077 C2073 1.495 . S
C2077 H2083 0.959 . S
C2077 H2084 0.961 . S
C2077 H2085 0.960 . S
C2078 C2076 1.381 . S
C2078 C2079 1.394 . S
C2078 H2086 0.930 . S
C2079 C2078 1.394 . S
C2079 C2080 1.383 . S
C2079 H2087 0.929 . S
C2080 C2079 1.383 . S
C2080 C2081 1.377 . S
C2081 H2065 0.930 . S
C2081 C2080 1.377 . S
C2081 C2082 1.379 . S
C2082 H2066 0.931 . S
C2082 C2076 1.383 . S
C2082 C2081 1.379 . S
H2083 C2077 0.959 . S
H2084 C2077 0.961 . S
H2085 C2077 0.960 . S
H2086 C2078 0.930 . S
H2087 C2079 0.929 . S
H2088 C2096 0.929 . S
H2089 C2098 0.930 . S
H2090 C2100 0.930 . S
H2091 C2103 0.929 . S
H2092 C2106 0.930 . S
H2093 C2108 0.960 . S
H2094 C2108 0.960 . S
H2095 C2108 0.960 . S
C2096 H2088 0.929 . S
C2096 C2097 1.377 . S
C2096 C2098 1.384 . S
C2097 C2096 1.377 . S
C2097 C2103 1.390 . S
C2098 H2089 0.930 . S
C2098 C2096 1.384 . S
C2098 C2099 1.372 . S
C2099 C2098 1.372 . S
C2099 C2100 1.400 . S
C2099 C2104 1.490 . S
C2100 H2090 0.930 . S
C2100 C2099 1.400 . S
C2100 C2103 1.386 . S
H2101 C2117 0.930 . S
H2102 C2118 0.931 . S
C2103 H2091 0.929 . S
C2103 C2097 1.390 . S
C2103 C2100 1.386 . S
C2104 C2099 1.490 . S
C2104 C2106 1.395 . S
C2104 C2107 1.403 . S
H2105 C2111 0.930 . S
C2106 H2092 0.930 . S
C2106 C2104 1.395 . S
C2106 C2109 1.403 . S
C2107 C2104 1.403 . S
C2107 C2108 1.524 . S
C2107 C2111 1.400 . S
C2108 H2093 0.960 . S
C2108 H2094 0.960 . S
C2108 H2095 0.960 . S
C2108 C2107 1.524 . S
C2109 C2106 1.403 . S
C2109 C2110 1.392 . S
C2109 C2113 1.495 . S
C2110 C2109 1.392 . S
C2110 C2111 1.385 . S
C2110 C2112 1.478 . S
C2111 H2105 0.930 . S
C2111 C2107 1.400 . S
C2111 C2110 1.385 . S
C2112 C2110 1.478 . S
C2112 C2114 1.381 . S
C2112 C2118 1.383 . S
C2113 C2109 1.495 . S
C2113 H2119 0.959 . S
C2113 H2120 0.961 . S
C2113 H2121 0.960 . S
C2114 C2112 1.381 . S
C2114 C2115 1.394 . S
C2114 H2122 0.930 . S
C2115 C2114 1.394 . S
C2115 C2116 1.383 . S
C2115 H2123 0.929 . S
C2116 C2115 1.383 . S
C2116 C2117 1.377 . S
C2117 H2101 0.930 . S
C2117 C2116 1.377 . S
C2117 C2118 1.379 . S
C2118 H2102 0.931 . S
C2118 C2112 1.383 . S
C2118 C2117 1.379 . S
H2119 C2113 0.959 . S
H2120 C2113 0.961 . S
H2121 C2113 0.960 . S
H2122 C2114 0.930 . S
H2123 C2115 0.929 . S
H2124 C2132 0.929 . S
H2125 C2134 0.930 . S
H2126 C2136 0.930 . S
H2127 C2139 0.929 . S
H2128 C2142 0.930 . S
H2129 C2144 0.960 . S
H2130 C2144 0.960 . S
H2131 C2144 0.960 . S
C2132 H2124 0.929 . S
C2132 C2133 1.377 . S
C2132 C2134 1.384 . S
C2133 C2132 1.377 . S
C2133 C2139 1.390 . S
C2134 H2125 0.930 . S
C2134 C2132 1.384 . S
C2134 C2135 1.372 . S
C2135 C2134 1.372 . S
C2135 C2136 1.400 . S
C2135 C2140 1.490 . S
C2136 H2126 0.930 . S
C2136 C2135 1.400 . S
C2136 C2139 1.386 . S
H2137 C2153 0.930 . S
H2138 C2154 0.931 . S
C2139 H2127 0.929 . S
C2139 C2133 1.390 . S
C2139 C2136 1.386 . S
C2140 C2135 1.490 . S
C2140 C2142 1.395 . S
C2140 C2143 1.403 . S
H2141 C2147 0.930 . S
C2142 H2128 0.930 . S
C2142 C2140 1.395 . S
C2142 C2145 1.403 . S
C2143 C2140 1.403 . S
C2143 C2144 1.524 . S
C2143 C2147 1.400 . S
C2144 H2129 0.960 . S
C2144 H2130 0.960 . S
C2144 H2131 0.960 . S
C2144 C2143 1.524 . S
C2145 C2142 1.403 . S
C2145 C2146 1.392 . S
C2145 C2149 1.495 . S
C2146 C2145 1.392 . S
C2146 C2147 1.385 . S
C2146 C2148 1.478 . S
C2147 H2141 0.930 . S
C2147 C2143 1.400 . S
C2147 C2146 1.385 . S
C2148 C2146 1.478 . S
C2148 C2150 1.381 . S
C2148 C2154 1.383 . S
C2149 C2145 1.495 . S
C2149 H2155 0.959 . S
C2149 H2156 0.961 . S
C2149 H2157 0.960 . S
C2150 C2148 1.381 . S
C2150 C2151 1.394 . S
C2150 H2158 0.930 . S
C2151 C2150 1.394 . S
C2151 C2152 1.383 . S
C2151 H2159 0.929 . S
C2152 C2151 1.383 . S
C2152 C2153 1.377 . S
C2153 H2137 0.930 . S
C2153 C2152 1.377 . S
C2153 C2154 1.379 . S
C2154 H2138 0.931 . S
C2154 C2148 1.383 . S
C2154 C2153 1.379 . S
H2155 C2149 0.959 . S
H2156 C2149 0.961 . S
H2157 C2149 0.960 . S
H2158 C2150 0.930 . S
H2159 C2151 0.929 . S
H2160 C2168 0.929 . S
H2161 C2170 0.930 . S
H2162 C2172 0.930 . S
H2163 C2175 0.929 . S
H2164 C2178 0.930 . S
H2165 C2180 0.960 . S
H2166 C2180 0.960 . S
H2167 C2180 0.960 . S
C2168 H2160 0.929 . S
C2168 C2169 1.377 . S
C2168 C2170 1.384 . S
C2169 C2168 1.377 . S
C2169 C2175 1.390 . S
C2170 H2161 0.930 . S
C2170 C2168 1.384 . S
C2170 C2171 1.372 . S
C2171 C2170 1.372 . S
C2171 C2172 1.400 . S
C2171 C2176 1.490 . S
C2172 H2162 0.930 . S
C2172 C2171 1.400 . S
C2172 C2175 1.386 . S
H2173 C2189 0.930 . S
H2174 C2190 0.931 . S
C2175 H2163 0.929 . S
C2175 C2169 1.390 . S
C2175 C2172 1.386 . S
C2176 C2171 1.490 . S
C2176 C2178 1.395 . S
C2176 C2179 1.403 . S
H2177 C2183 0.930 . S
C2178 H2164 0.930 . S
C2178 C2176 1.395 . S
C2178 C2181 1.403 . S
C2179 C2176 1.403 . S
C2179 C2180 1.524 . S
C2179 C2183 1.400 . S
C2180 H2165 0.960 . S
C2180 H2166 0.960 . S
C2180 H2167 0.960 . S
C2180 C2179 1.524 . S
C2181 C2178 1.403 . S
C2181 C2182 1.392 . S
C2181 C2185 1.495 . S
C2182 C2181 1.392 . S
C2182 C2183 1.385 . S
C2182 C2184 1.478 . S
C2183 H2177 0.930 . S
C2183 C2179 1.400 . S
C2183 C2182 1.385 . S
C2184 C2182 1.478 . S
C2184 C2186 1.381 . S
C2184 C2190 1.383 . S
C2185 C2181 1.495 . S
C2185 H2191 0.959 . S
C2185 H2192 0.961 . S
C2185 H2193 0.960 . S
C2186 C2184 1.381 . S
C2186 C2187 1.394 . S
C2186 H2194 0.930 . S
C2187 C2186 1.394 . S
C2187 C2188 1.383 . S
C2187 H2195 0.929 . S
C2188 C2187 1.383 . S
C2188 C2189 1.377 . S
C2189 H2173 0.930 . S
C2189 C2188 1.377 . S
C2189 C2190 1.379 . S
C2190 H2174 0.931 . S
C2190 C2184 1.383 . S
C2190 C2189 1.379 . S
H2191 C2185 0.959 . S
H2192 C2185 0.961 . S
H2193 C2185 0.960 . S
H2194 C2186 0.930 . S
H2195 C2187 0.929 . S
H2196 C2204 0.929 . S
H2197 C2206 0.930 . S
H2198 C2208 0.930 . S
H2199 C2211 0.929 . S
H2200 C2214 0.930 . S
H2201 C2216 0.960 . S
H2202 C2216 0.960 . S
H2203 C2216 0.960 . S
C2204 H2196 0.929 . S
C2204 C2205 1.377 . S
C2204 C2206 1.384 . S
C2205 C2204 1.377 . S
C2205 C2211 1.390 . S
C2206 H2197 0.930 . S
C2206 C2204 1.384 . S
C2206 C2207 1.372 . S
C2207 C2206 1.372 . S
C2207 C2208 1.400 . S
C2207 C2212 1.490 . S
C2208 H2198 0.930 . S
C2208 C2207 1.400 . S
C2208 C2211 1.386 . S
H2209 C2225 0.930 . S
H2210 C2226 0.931 . S
C2211 H2199 0.929 . S
C2211 C2205 1.390 . S
C2211 C2208 1.386 . S
C2212 C2207 1.490 . S
C2212 C2214 1.395 . S
C2212 C2215 1.403 . S
H2213 C2219 0.930 . S
C2214 H2200 0.930 . S
C2214 C2212 1.395 . S
C2214 C2217 1.403 . S
C2215 C2212 1.403 . S
C2215 C2216 1.524 . S
C2215 C2219 1.400 . S
C2216 H2201 0.960 . S
C2216 H2202 0.960 . S
C2216 H2203 0.960 . S
C2216 C2215 1.524 . S
C2217 C2214 1.403 . S
C2217 C2218 1.392 . S
C2217 C2221 1.495 . S
C2218 C2217 1.392 . S
C2218 C2219 1.385 . S
C2218 C2220 1.478 . S
C2219 H2213 0.930 . S
C2219 C2215 1.400 . S
C2219 C2218 1.385 . S
C2220 C2218 1.478 . S
C2220 C2222 1.381 . S
C2220 C2226 1.383 . S
C2221 C2217 1.495 . S
C2221 H2227 0.959 . S
C2221 H2228 0.961 . S
C2221 H2229 0.960 . S
C2222 C2220 1.381 . S
C2222 C2223 1.394 . S
C2222 H2230 0.930 . S
C2223 C2222 1.394 . S
C2223 C2224 1.383 . S
C2223 H2231 0.929 . S
C2224 C2223 1.383 . S
C2224 C2225 1.377 . S
C2225 H2209 0.930 . S
C2225 C2224 1.377 . S
C2225 C2226 1.379 . S
C2226 H2210 0.931 . S
C2226 C2220 1.383 . S
C2226 C2225 1.379 . S
H2227 C2221 0.959 . S
H2228 C2221 0.961 . S
H2229 C2221 0.960 . S
H2230 C2222 0.930 . S
H2231 C2223 0.929 . S
H2232 C2240 0.929 . S
H2233 C2242 0.930 . S
H2234 C2244 0.930 . S
H2235 C2247 0.929 . S
H2236 C2250 0.930 . S
H2237 C2252 0.960 . S
H2238 C2252 0.960 . S
H2239 C2252 0.960 . S
C2240 H2232 0.929 . S
C2240 C2241 1.377 . S
C2240 C2242 1.384 . S
C2241 C2240 1.377 . S
C2241 C2247 1.390 . S
C2242 H2233 0.930 . S
C2242 C2240 1.384 . S
C2242 C2243 1.372 . S
C2243 C2242 1.372 . S
C2243 C2244 1.400 . S
C2243 C2248 1.490 . S
C2244 H2234 0.930 . S
C2244 C2243 1.400 . S
C2244 C2247 1.386 . S
H2245 C2261 0.930 . S
H2246 C2262 0.931 . S
C2247 H2235 0.929 . S
C2247 C2241 1.390 . S
C2247 C2244 1.386 . S
C2248 C2243 1.490 . S
C2248 C2250 1.395 . S
C2248 C2251 1.403 . S
H2249 C2255 0.930 . S
C2250 H2236 0.930 . S
C2250 C2248 1.395 . S
C2250 C2253 1.403 . S
C2251 C2248 1.403 . S
C2251 C2252 1.524 . S
C2251 C2255 1.400 . S
C2252 H2237 0.960 . S
C2252 H2238 0.960 . S
C2252 H2239 0.960 . S
C2252 C2251 1.524 . S
C2253 C2250 1.403 . S
C2253 C2254 1.392 . S
C2253 C2257 1.495 . S
C2254 C2253 1.392 . S
C2254 C2255 1.385 . S
C2254 C2256 1.478 . S
C2255 H2249 0.930 . S
C2255 C2251 1.400 . S
C2255 C2254 1.385 . S
C2256 C2254 1.478 . S
C2256 C2258 1.381 . S
C2256 C2262 1.383 . S
C2257 C2253 1.495 . S
C2257 H2263 0.959 . S
C2257 H2264 0.961 . S
C2257 H2265 0.960 . S
C2258 C2256 1.381 . S
C2258 C2259 1.394 . S
C2258 H2266 0.930 . S
C2259 C2258 1.394 . S
C2259 C2260 1.383 . S
C2259 H2267 0.929 . S
C2260 C2259 1.383 . S
C2260 C2261 1.377 . S
C2261 H2245 0.930 . S
C2261 C2260 1.377 . S
C2261 C2262 1.379 . S
C2262 H2246 0.931 . S
C2262 C2256 1.383 . S
C2262 C2261 1.379 . S
H2263 C2257 0.959 . S
H2264 C2257 0.961 . S
H2265 C2257 0.960 . S
H2266 C2258 0.930 . S
H2267 C2259 0.929 . S
H2268 C2276 0.929 . S
H2269 C2278 0.930 . S
H2270 C2280 0.930 . S
H2271 C2283 0.929 . S
H2272 C2286 0.930 . S
H2273 C2288 0.960 . S
H2274 C2288 0.960 . S
H2275 C2288 0.960 . S
C2276 H2268 0.929 . S
C2276 C2277 1.377 . S
C2276 C2278 1.384 . S
C2277 C2276 1.377 . S
C2277 C2283 1.390 . S
C2278 H2269 0.930 . S
C2278 C2276 1.384 . S
C2278 C2279 1.372 . S
C2279 C2278 1.372 . S
C2279 C2280 1.400 . S
C2279 C2284 1.490 . S
C2280 H2270 0.930 . S
C2280 C2279 1.400 . S
C2280 C2283 1.386 . S
H2281 C2297 0.930 . S
H2282 C2298 0.931 . S
C2283 H2271 0.929 . S
C2283 C2277 1.390 . S
C2283 C2280 1.386 . S
C2284 C2279 1.490 . S
C2284 C2286 1.395 . S
C2284 C2287 1.403 . S
H2285 C2291 0.930 . S
C2286 H2272 0.930 . S
C2286 C2284 1.395 . S
C2286 C2289 1.403 . S
C2287 C2284 1.403 . S
C2287 C2288 1.524 . S
C2287 C2291 1.400 . S
C2288 H2273 0.960 . S
C2288 H2274 0.960 . S
C2288 H2275 0.960 . S
C2288 C2287 1.524 . S
C2289 C2286 1.403 . S
C2289 C2290 1.392 . S
C2289 C2293 1.495 . S
C2290 C2289 1.392 . S
C2290 C2291 1.385 . S
C2290 C2292 1.478 . S
C2291 H2285 0.930 . S
C2291 C2287 1.400 . S
C2291 C2290 1.385 . S
C2292 C2290 1.478 . S
C2292 C2294 1.381 . S
C2292 C2298 1.383 . S
C2293 C2289 1.495 . S
C2293 H2299 0.959 . S
C2293 H2300 0.961 . S
C2293 H2301 0.960 . S
C2294 C2292 1.381 . S
C2294 C2295 1.394 . S
C2294 H2302 0.930 . S
C2295 C2294 1.394 . S
C2295 C2296 1.383 . S
C2295 H2303 0.929 . S
C2296 C2295 1.383 . S
C2296 C2297 1.377 . S
C2297 H2281 0.930 . S
C2297 C2296 1.377 . S
C2297 C2298 1.379 . S
C2298 H2282 0.931 . S
C2298 C2292 1.383 . S
C2298 C2297 1.379 . S
H2299 C2293 0.959 . S
H2300 C2293 0.961 . S
H2301 C2293 0.960 . S
H2302 C2294 0.930 . S
H2303 C2295 0.929 . S
C369 C4 0.577 . S
C388 C58 0.504 . S
C405 C18 0.491 . S
C424 C24 0.597 . S
C441 C44 0.551 . S
C460 C38 0.434 . S
C477 C99 0.488 . S
C496 C62 0.647 . S
C513 C119 0.517 . S
C532 C82 0.469 . S
C549 C102 0.565 . S
C568 C79 0.513 . S
C585 C178 0.488 . S
C604 C124 0.535 . S
C621 C144 0.546 . S
C640 C138 0.541 . S
C657 C158 0.507 . S
C676 C164 0.482 . S
C693 C182 0.578 . S
C712 C219 0.436 . S
C729 C239 0.489 . S
C748 C202 0.648 . S
C765 C222 0.541 . S
C784 C199 0.574 . S
C801 C298 0.494 . S
C820 C244 0.476 . S
C837 C264 0.553 . S
C856 C258 0.432 . S
C873 C284 0.550 . S
C892 C278 0.434 . S
C909 C302 0.578 . S
C928 C339 0.433 . S
C945 C359 0.492 . S
C964 C322 0.642 . S
C981 C319 0.518 . S
C1000 C342 0.484 . S
C1017 C109 1.376 . S
C1036 C9 1.425 . S
C1053 C69 1.363 . S
C1072 C29 1.437 . S
C1089 C89 1.376 . S
C1108 C49 1.425 . S
C1125 C32 1.371 . S
C1144 C72 1.437 . S
C1161 C92 1.433 . S
C1180 C52 1.375 . S
C1197 C12 1.366 . S
C1216 C112 1.426 . S
C1233 C129 1.433 . S
C1252 C229 1.388 . S
C1269 C149 1.434 . S
C1288 C189 1.388 . S
C1305 C209 1.376 . S
C1324 C169 1.426 . S
C1341 C192 1.435 . S
C1360 C152 1.345 . S
C1377 C212 1.433 . S
C1396 C172 1.394 . S
C1413 C232 1.435 . S
C1432 C132 1.376 . S
C1449 C249 1.433 . S
C1468 C349 1.374 . S
C1485 C269 1.433 . S
C1504 C309 1.382 . S
C1521 C289 1.436 . S
C1540 C329 1.338 . S
C1557 C312 1.435 . S
C1576 C272 1.395 . S
C1593 C332 1.433 . S
C1612 C292 1.343 . S
C1629 C352 1.434 . S
C1648 C252 1.397 . S
C1665 C204 2.096 . S
C1684 C19 2.271 . S
C1701 C39 2.277 . S
C1720 C224 2.076 . S
C1737 C184 2.103 . S
C1756 C59 2.277 . S
C1773 C78 2.266 . S
C1792 C162 2.103 . S
C1809 C98 2.265 . S
C1828 C122 2.071 . S
C1845 C142 2.104 . S
C1864 C118 2.257 . S
C1881 C139 2.265 . S
C1900 C324 2.078 . S
C1917 C159 2.266 . S
C1936 C344 2.116 . S
C1953 C179 2.265 . S
C1972 C304 2.113 . S
C1989 C282 2.096 . S
C2008 C198 2.267 . S
C2025 C242 2.098 . S
C2044 C218 2.256 . S
C2061 C262 2.103 . S
C2080 C238 2.260 . S
C2097 C84 2.096 . S
C2116 C259 2.259 . S
C2133 C279 2.266 . S
C2152 C104 2.108 . S
C2169 C64 2.103 . S
C2188 C299 2.265 . S
C2205 C318 2.266 . S
C2224 C42 2.068 . S
C2241 C338 2.266 . S
C2260 C2 2.067 . S
C2277 C22 2.103 . S
C2296 C358 2.260 . S
