# Generated by pormake.
# Topology reo, (8)-cn, num edge types: 1
# Building blocks:
#     Node 0, Type 0, BuildingBlock: TAGTUT_clean_sbu_3, # of connection points: 8
#     Node 1, Type 0, BuildingBlock: TAGTUT_clean_sbu_3, # of connection points: 8
#     Node 2, Type 0, BuildingBlock: TAGTUT_clean_sbu_3, # of connection points: 8
#     Edge 3, Type (0, 0), BuildingBlock: KIFKEQ_clean_linker_1, # of connection points: 2
#     Edge 4, Type (0, 0), BuildingBlock: KIFKEQ_clean_linker_1, # of connection points: 2
#     Edge 5, Type (0, 0), BuildingBlock: KIFKEQ_clean_linker_1, # of connection points: 2
#     Edge 6, Type (0, 0), BuildingBlock: KIFKEQ_clean_linker_1, # of connection points: 2
#     Edge 7, Type (0, 0), BuildingBlock: KIFKEQ_clean_linker_1, # of connection points: 2
#     Edge 8, Type (0, 0), BuildingBlock: KIFKEQ_clean_linker_1, # of connection points: 2
#     Edge 9, Type (0, 0), BuildingBlock: KIFKEQ_clean_linker_1, # of connection points: 2
#     Edge 10, Type (0, 0), BuildingBlock: KIFKEQ_clean_linker_1, # of connection points: 2
#     Edge 11, Type (0, 0), BuildingBlock: KIFKEQ_clean_linker_1, # of connection points: 2
#     Edge 12, Type (0, 0), BuildingBlock: KIFKEQ_clean_linker_1, # of connection points: 2
#     Edge 13, Type (0, 0), BuildingBlock: KIFKEQ_clean_linker_1, # of connection points: 2
#     Edge 14, Type (0, 0), BuildingBlock: KIFKEQ_clean_linker_1, # of connection points: 2
# Relax obj value: 0.169
# Max RMSD: 0.190
# Mean RMSD: 0.190
data_MOF--net-reo--node1-TAGTUT_clean_sbu_3--edge1-KIFKEQ_clean_linker_1
_symmetry_space_group_name_H-M    P1
_symmetry_Int_Tables_number       1
_symmetry_cell_setting            triclinic
loop_
_symmetry_equiv_pos_as_xyz
'x, y, z'
_cell_length_a     23.940225
_cell_length_b     23.951568
_cell_length_c     23.982834
_cell_angle_alpha  90.965801
_cell_angle_beta   90.781805
_cell_angle_gamma 90.840228
loop_
_atom_site_label
_atom_site_type_symbol
_atom_site_fract_x
_atom_site_fract_y
_atom_site_fract_z
_atom_type_partial_charge
C0 C 0.95509 0.88468 0.5441 0.0
C1 C 0.77815 0.0182 0.55128 0.0
C2 C 0.85068 0.08029 0.39813 0.0
Mg3 Mg 0.0804 0.92064 0.50184 0.0
Mg4 Mg 0.11654 0.05399 0.50715 0.0
O5 O 0.06805 -0.00127 0.47569 0.0
Mg6 Mg 0.98919 0.00704 0.49849 0.0
O7 O 0.9106 0.01382 0.52129 0.0
Mg8 Mg 0.87487 0.9601 0.46647 0.0
Mg9 Mg 0.88334 0.08774 0.51981 0.0
C10 C 0.02441 0.1307 0.45343 0.0
O11 O 0.01338 0.06054 0.57543 0.0
O12 O 0.16758 0.93113 0.45817 0.0
O13 O 0.94927 0.12839 0.57014 0.0
O14 O 0.1202 0.94643 0.58589 0.0
O15 O 0.18857 0.02324 0.46579 0.0
O16 O 0.12853 0.03884 0.5947 0.0
O17 O 0.96139 0.95514 0.42198 0.0
O18 O 0.03486 0.89804 0.42099 0.0
C19 C 0.9885 0.91461 0.40003 0.0
C20 C 0.20025 0.97346 0.4498 0.0
O21 O 0.9894 0.08965 0.45275 0.0
O22 O 0.79436 0.97649 0.52085 0.0
O23 O 0.07301 0.12801 0.47674 0.0
O24 O 0.84988 0.02783 0.4059 0.0
O25 O 0.80603 0.0642 0.5555 0.0
O26 O 0.86617 0.11498 0.4362 0.0
O27 O 0.99285 0.92321 0.54185 0.0
O28 O 0.90613 0.89185 0.52345 0.0
C29 C 0.13224 0.99012 0.615 0.0
C30 C 0.99461 0.10834 0.59033 0.0
C31 C 0.39446 0.98825 0.92044 0.0
C32 C 0.44595 0.20013 0.97701 0.0
C33 C 0.61252 0.13145 0.98521 0.0
Mg34 Mg 0.46215 0.87461 0.95806 0.0
Mg35 Mg 0.52127 0.87517 0.08316 0.0
O36 O 0.51864 0.90786 0.01212 0.0
Mg37 Mg 0.49684 0.9878 0.00914 0.0
O38 O 0.47425 0.06724 0.002 0.0
Mg39 Mg 0.49577 0.08031 0.92222 0.0
Mg40 Mg 0.50748 0.11689 0.05437 0.0
C41 C 0.59603 0.98516 0.10416 0.0
O42 O 0.45559 0.98838 0.09574 0.0
O43 O 0.51434 0.79231 0.96771 0.0
O44 O 0.47894 0.07453 0.129 0.0
O45 O 0.40279 0.84802 0.02577 0.0
O46 O 0.55332 0.79798 0.05389 0.0
O47 O 0.43772 0.85708 0.11189 0.0
O48 O 0.53665 0.99311 0.92309 0.0
O49 O 0.51937 0.90662 0.89044 0.0
C50 C 0.54008 0.95566 0.88441 0.0
C51 C 0.54554 0.7727 0.0069 0.0
O52 O 0.57566 0.00917 0.06103 0.0
O53 O 0.45286 0.16748 0.93438 0.0
O54 O 0.57829 0.93752 0.12132 0.0
O55 O 0.58133 0.12001 0.94291 0.0
O56 O 0.46422 0.18841 0.02583 0.0
O57 O 0.5943 0.12772 0.03472 0.0
O58 O 0.41934 0.96157 0.95916 0.0
O59 O 0.41307 0.03524 0.90314 0.0
C60 C 0.39732 0.84565 0.07838 0.0
C61 C 0.45738 0.02555 0.1352 0.0
C62 C 0.87957 0.5382 0.95144 0.0
C63 C 0.01124 0.5469 0.77249 0.0
C64 C 0.08069 0.39829 0.84683 0.0
Mg65 Mg 0.91686 0.49497 0.07648 0.0
Mg66 Mg 0.04992 0.5105 0.11149 0.0
O67 O -0.00306 0.47499 0.06359 0.0
Mg68 Mg 0.00419 0.49799 0.98483 0.0
O69 O 0.00954 0.52031 0.90582 0.0
Mg70 Mg 0.95794 0.4625 0.87124 0.0
Mg71 Mg 0.08309 0.52087 0.87725 0.0
C72 C 0.12939 0.45853 0.02002 0.0
O73 O 0.05567 0.57704 0.00769 0.0
O74 O 0.93061 0.45117 0.16249 0.0
O75 O 0.12269 0.5729 0.94232 0.0
O76 O 0.93591 0.57939 0.11934 0.0
O77 O 0.02196 0.4662 0.18303 0.0
O78 O 0.02756 0.59731 0.12258 0.0
O79 O 0.95588 0.41992 0.95743 0.0
O80 O 0.89844 0.41274 0.02994 0.0
C81 C 0.91656 0.39478 0.98304 0.0
C82 C 0.97376 0.44579 0.19476 0.0
O83 O 0.08843 0.4556 0.98504 0.0
O84 O 0.97093 0.51579 0.79037 0.0
O85 O 0.12565 0.48289 0.06808 0.0
O86 O 0.02788 0.40395 0.84633 0.0
O87 O 0.05765 0.55378 0.79919 0.0
O88 O 0.11372 0.43818 0.86125 0.0
O89 O 0.91798 0.53729 0.98937 0.0
O90 O 0.88761 0.51739 0.90266 0.0
C91 C 0.97717 0.6123 0.12975 0.0
C92 C 0.1028 0.59288 0.98784 0.0
H93 H 0.88689 0.37762 0.22771 0.0
H94 H 0.05402 0.43267 0.27472 0.0
H95 H 0.89014 0.30743 0.3004 0.0
H96 H 0.05839 0.36158 0.34444 0.0
H97 H 0.05593 0.23832 0.4792 0.0
H98 H 0.03225 0.32228 0.42811 0.0
H99 H 0.93492 0.22135 0.30992 0.0
H100 H 0.95681 0.13855 0.36235 0.0
C101 C 0.92392 0.37537 0.25396 0.0
C102 C 0.97049 0.41019 0.24463 0.0
C103 C 0.92606 0.33476 0.29531 0.0
C104 C 0.97492 0.32798 0.32785 0.0
C105 C 0.01981 0.36552 0.32086 0.0
C106 C 0.01748 0.4062 0.28014 0.0
C107 C 0.02908 0.23446 0.44257 0.0
C108 C 0.00839 0.18205 0.42455 0.0
C109 C 0.01549 0.28246 0.41318 0.0
C110 C 0.98193 0.27882 0.36444 0.0
C111 C 0.95996 0.22629 0.34767 0.0
C112 C 0.97283 0.17858 0.37754 0.0
H113 H 0.75755 0.14011 0.37887 0.0
H114 H 0.89339 0.05736 0.29721 0.0
H115 H 0.70116 0.13126 0.2935 0.0
H116 H 0.8381 0.05002 0.21113 0.0
H117 H 0.68864 0.93787 0.14686 0.0
H118 H 0.76066 0.98187 0.20586 0.0
H119 H 0.67769 0.14031 0.19282 0.0
H120 H 0.60446 0.09524 0.13474 0.0
C121 C 0.77647 0.12325 0.34153 0.0
C122 C 0.82933 0.09902 0.34427 0.0
C123 C 0.74417 0.1179 0.29264 0.0
C124 C 0.76473 0.08843 0.24616 0.0
C125 C 0.82076 0.07173 0.24676 0.0
C126 C 0.85265 0.07648 0.29571 0.0
C127 C 0.68631 0.98224 0.15599 0.0
C128 C 0.64157 0.01339 0.13583 0.0
C129 C 0.72791 0.00773 0.18912 0.0
C130 C 0.72534 0.06489 0.20336 0.0
C131 C 0.68104 0.09638 0.18214 0.0
C132 C 0.63951 0.07078 0.1485 0.0
H133 H 0.05717 0.89803 0.31489 0.0
H134 H 0.88537 0.87606 0.36273 0.0
H135 H 0.04293 0.83502 0.23695 0.0
H136 H 0.86919 0.81381 0.28144 0.0
H137 H 0.90319 0.63449 0.21115 0.0
H138 H 0.8927 0.7215 0.26327 0.0
H139 H 0.01015 0.80211 0.15371 0.0
H140 H 0.02393 0.71338 0.10563 0.0
C141 C 0.01551 0.88097 0.30722 0.0
C142 C 0.97266 0.89069 0.34523 0.0
C143 C 0.00698 0.84502 0.26187 0.0
C144 C 0.95501 0.81802 0.25296 0.0
C145 C 0.9102 0.83265 0.28781 0.0
C146 C 0.91905 0.86879 0.3339 0.0
C147 C 0.92637 0.67111 0.19814 0.0
C148 C 0.96563 0.6671 0.15539 0.0
C149 C 0.91981 0.72138 0.22753 0.0
C150 C 0.95139 0.7691 0.2137 0.0
C151 C 0.98661 0.76594 0.16714 0.0
C152 C 0.99461 0.71515 0.13925 0.0
H153 H 0.44834 0.92495 0.18695 0.0
H154 H 0.40744 0.09876 0.20579 0.0
H155 H 0.39392 0.90302 0.26968 0.0
H156 H 0.35507 0.07774 0.28932 0.0
H157 H 0.29463 0.03729 0.45577 0.0
H158 H 0.36672 0.04434 0.38561 0.0
H159 H 0.29136 0.90487 0.29458 0.0
H160 H 0.2191 0.89736 0.36554 0.0
C161 C 0.42708 0.95817 0.20831 0.0
C162 C 0.43045 0.01303 0.18876 0.0
C163 C 0.39666 0.94585 0.25608 0.0
C164 C 0.37003 0.98858 0.28587 0.0
C165 C 0.37562 0.0439 0.26766 0.0
C166 C 0.40554 0.05598 0.21971 0.0
C167 C 0.29419 0.00719 0.42151 0.0
C168 C 0.25075 0.9673 0.41563 0.0
C169 C 0.33532 0.01146 0.38121 0.0
C170 C 0.33389 0.97605 0.33399 0.0
C171 C 0.29347 0.93278 0.33058 0.0
C172 C 0.25218 0.92837 0.37122 0.0
H173 H 0.89354 0.78894 0.53171 0.0
H174 H 0.0438 0.85588 0.61122 0.0
H175 H 0.90842 0.69978 0.57555 0.0
H176 H 0.05802 0.76643 0.65648 0.0
H177 H 0.09071 0.59139 0.70576 0.0
H178 H 0.07959 0.66869 0.64212 0.0
H179 H 0.90132 0.66381 0.66816 0.0
H180 H 0.91241 0.58569 0.731 0.0
C181 C 0.92986 0.78468 0.55865 0.0
C182 C 0.96722 0.82982 0.56854 0.0
C183 C 0.93824 0.73344 0.58387 0.0
C184 C 0.98406 0.726 0.61986 0.0
C185 C 0.02255 0.77056 0.62843 0.0
C186 C 0.01431 0.82196 0.60282 0.0
C187 C 0.04895 0.60596 0.6968 0.0
C188 C 0.00242 0.58285 0.7238 0.0
C189 C 0.0427 0.65061 0.66077 0.0
C190 C 0.9898 0.67325 0.65102 0.0
C191 C 0.94272 0.64729 0.67462 0.0
C192 C 0.94896 0.60232 0.71053 0.0
H193 H 0.29465 0.03448 0.93707 0.0
H194 H 0.37615 0.90165 0.84784 0.0
H195 H 0.21446 0.0265 0.87332 0.0
H196 H 0.29646 0.89405 0.78302 0.0
H197 H 0.17074 0.07137 0.68783 0.0
H198 H 0.21953 0.05847 0.77598 0.0
H199 H 0.19486 0.87989 0.75965 0.0
H200 H 0.14536 0.89266 0.67133 0.0
C201 C 0.29405 0.00184 0.90519 0.0
C202 C 0.34098 0.96851 0.89702 0.0
C203 C 0.24855 -0.00235 0.86845 0.0
C204 C 0.24978 0.96053 0.82257 0.0
C205 C 0.29424 0.9229 0.81815 0.0
C206 C 0.33977 0.927 0.85523 0.0
C207 C 0.17435 0.02946 0.70359 0.0
C208 C 0.1546 0.98313 0.6722 0.0
C209 C 0.20212 0.02202 0.75435 0.0
C210 C 0.2111 0.96805 0.77465 0.0
C211 C 0.18883 0.92186 0.74479 0.0
C212 C 0.16055 0.92933 0.6942 0.0
H213 H 0.15567 0.38465 0.76403 0.0
H214 H 0.04976 0.2943 0.87639 0.0
H215 H 0.15706 0.30286 0.70144 0.0
H216 H 0.05169 0.21257 0.8147 0.0
H217 H 0.05058 0.07599 0.68423 0.0
H218 H 0.09914 0.13715 0.75318 0.0
H219 H 0.06292 0.27978 0.65163 0.0
H220 H 0.01396 0.21924 0.584 0.0
C221 C 0.13551 0.34625 0.77687 0.0
C222 C 0.10198 0.34559 0.82431 0.0
C223 C 0.13597 0.29964 0.74097 0.0
C224 C 0.10353 0.25194 0.7528 0.0
C225 C 0.07708 0.24871 0.80454 0.0
C226 C 0.07589 0.29549 0.83985 0.0
C227 C 0.05397 0.12034 0.67654 0.0
C228 C 0.028 0.14331 0.62954 0.0
C229 C 0.08188 0.15512 0.71567 0.0
C230 C 0.08533 0.21302 0.70737 0.0
C231 C 0.06193 0.23521 0.65862 0.0
C232 C 0.03311 0.20077 0.62037 0.0
H233 H 0.59757 0.88253 0.82134 0.0
H234 H 0.54608 0.05437 0.82816 0.0
H235 H 0.64479 0.89889 0.73439 0.0
H236 H 0.59011 0.07043 0.73852 0.0
H237 H 0.73846 0.09634 0.62367 0.0
H238 H 0.67543 0.08239 0.69933 0.0
H239 H 0.64135 0.91355 0.63992 0.0
H240 H 0.70871 0.92649 0.56556 0.0
C241 C 0.5958 0.92381 0.80364 0.0
C242 C 0.56868 0.96737 0.83172 0.0
C243 C 0.62227 0.93308 0.75317 0.0
C244 C 0.62129 0.98596 0.72861 0.0
C245 C 0.59288 0.02935 0.75637 0.0
C246 C 0.56751 0.02032 0.80779 0.0
C247 C 0.71726 0.05621 0.62605 0.0
C248 C 0.72985 0.01204 0.58899 0.0
C249 C 0.68028 0.04838 0.6696 0.0
C250 C 0.65362 -0.00353 0.67689 0.0
C251 C 0.66244 0.95364 0.63691 0.0
C252 C 0.70057 0.96117 0.5937 0.0
H253 H 0.23628 0.48489 0.05441 0.0
H254 H 0.13998 0.36798 0.95187 0.0
H255 H 0.32131 0.4347 0.03199 0.0
H256 H 0.22368 0.31632 0.9315 0.0
H257 H 0.38045 0.23295 0.88824 0.0
H258 H 0.31062 0.30634 0.8893 0.0
H259 H 0.36092 0.35162 0.0582 0.0
H260 H 0.43178 0.28139 0.05589 0.0
C261 C 0.2334 0.44859 0.02692 0.0
C262 C 0.18161 0.43041 0.00482 0.0
C263 C 0.28203 0.41962 0.01414 0.0
C264 C 0.27964 0.371 0.98013 0.0
C265 C 0.22777 0.35403 0.95684 0.0
C266 C 0.17948 0.38352 0.96884 0.0
C267 C 0.37748 0.25967 0.92493 0.0
C268 C 0.41103 0.25049 0.9723 0.0
C269 C 0.33706 0.30142 0.92583 0.0
C270 C 0.32917 0.33444 0.97426 0.0
C271 C 0.36567 0.32769 0.01991 0.0
C272 C 0.40621 0.28664 0.01878 0.0
H273 H 0.07419 0.69438 0.02909 0.0
H274 H 0.21057 0.5799 0.01797 0.0
H275 H 0.13486 0.76199 0.08019 0.0
H276 H 0.27187 0.64704 0.06672 0.0
H277 H 0.29479 0.87738 0.0456 0.0
H278 H 0.21222 0.81741 0.04426 0.0
H279 H 0.29682 0.70161 0.15156 0.0
H280 H 0.38014 0.76218 0.15226 0.0
C281 C 0.11672 0.68334 0.03934 0.0
C282 C 0.13782 0.63226 0.0207 0.0
C283 C 0.15153 0.72187 0.06799 0.0
C284 C 0.20809 0.7097 0.07809 0.0
C285 C 0.22829 0.65736 0.06097 0.0
C286 C 0.19356 0.6192 0.03225 0.0
C287 C 0.29466 0.8405 0.07119 0.0
C288 C 0.34378 0.82372 0.09828 0.0
C289 C 0.24727 0.80605 0.07053 0.0
C290 C 0.24856 0.75398 0.09656 0.0
C291 C 0.29514 0.74107 0.13024 0.0
C292 C 0.34259 0.77594 0.13121 0.0
H293 H 0.66181 0.15338 0.88553 0.0
H294 H 0.69252 0.15948 0.06369 0.0
H295 H 0.74973 0.2032 0.87085 0.0
H296 H 0.77982 0.20965 0.04892 0.0
H297 H 0.83847 0.38168 0.90119 0.0
H298 H 0.77414 0.30185 0.89179 0.0
H299 H 0.87395 0.2114 0.01055 0.0
H300 H 0.93725 0.29202 0.02052 0.0
C301 C 0.68768 0.16449 0.92154 0.0
C302 C 0.66962 0.15344 0.97595 0.0
C303 C 0.73803 0.19304 0.913 0.0
C304 C 0.77149 0.2107 0.95863 0.0
C305 C 0.75531 0.19611 0.01274 0.0
C306 C 0.70491 0.16779 0.02132 0.0
C307 C 0.84792 0.34362 0.92299 0.0
C308 C 0.89246 0.34237 0.96131 0.0
C309 C 0.81113 0.29792 0.91785 0.0
C310 C 0.81851 0.25073 0.9513 0.0
C311 C 0.86677 0.24754 0.98499 0.0
C312 C 0.90328 0.29327 0.99025 0.0
H313 H 0.84876 0.60311 0.04116 0.0
H314 H 0.78551 0.5292 0.88672 0.0
H315 H 0.75965 0.64962 0.0541 0.0
H316 H 0.69661 0.57465 0.90019 0.0
H317 H 0.58621 0.73443 0.90748 0.0
H318 H 0.66293 0.66943 0.89574 0.0
H319 H 0.66075 0.63517 0.07204 0.0
H320 H 0.58491 0.70073 0.08382 0.0
C321 C 0.81569 0.59616 0.01046 0.0
C322 C 0.82454 0.56301 0.96268 0.0
C323 C 0.76448 0.62252 0.01794 0.0
C324 C 0.72108 0.616 0.97793 0.0
C325 C 0.72941 0.58125 0.93126 0.0
C326 C 0.78047 0.55511 0.92371 0.0
C327 C 0.60095 0.71166 0.94331 0.0
C328 C 0.58006 0.72311 -0.0034 0.0
C329 C 0.64509 0.67455 0.93673 0.0
C330 C 0.66874 0.64807 0.98327 0.0
C331 C 0.64447 0.65603 0.03567 0.0
C332 C 0.60067 0.69318 0.04227 0.0
loop_
_geom_bond_atom_site_label_1
_geom_bond_atom_site_label_2
_geom_bond_distance
_geom_bond_site_symmetry_2
_ccdc_geom_bond_type
C0 O27 1.312 1_655 S
C0 O28 1.208 . S
C1 O22 1.331 . S
C1 O25 1.244 1_565 S
C2 O24 1.264 1_545 S
C2 O26 1.273 . S
Mg3 O5 1.936 1_565 S
Mg3 O12 2.081 . S
Mg3 O14 2.023 . S
Mg3 O18 2.031 . S
Mg3 O27 2.291 . S
Mg4 O5 1.963 . S
Mg4 O15 1.942 . S
Mg4 O16 1.955 . S
Mg4 O23 1.986 . S
O5 Mg3 1.936 1_545 S
O5 Mg4 1.963 . S
O5 Mg6 1.915 . S
Mg6 O5 1.915 . S
Mg6 O7 1.915 1_455 S
Mg6 O11 2.013 . S
Mg6 O17 2.114 1_445 S
Mg6 O21 2.013 1_455 S
Mg6 O27 2.114 1_545 S
O7 Mg6 1.915 1_655 S
O7 Mg8 1.936 1_545 S
O7 Mg9 1.963 . S
Mg8 O7 1.936 1_565 S
Mg8 O17 2.291 . S
Mg8 O22 2.081 . S
Mg8 O24 2.023 . S
Mg8 O28 2.031 . S
Mg9 O7 1.963 . S
Mg9 O13 1.986 . S
Mg9 O25 1.942 . S
Mg9 O26 1.955 . S
C10 O21 1.191 1_455 S
C10 O23 1.307 . S
O11 Mg6 2.013 . S
O11 C30 1.191 1_455 S
O12 Mg3 2.081 . S
O12 C20 1.331 . S
O13 Mg9 1.986 . S
O13 C30 1.307 . S
O14 Mg3 2.023 . S
O14 C29 1.264 1_565 S
O15 Mg4 1.942 . S
O15 C20 1.244 1_545 S
O16 Mg4 1.955 . S
O16 C29 1.273 . S
O17 Mg6 2.114 1_665 S
O17 Mg8 2.291 . S
O17 C19 1.312 1_655 S
O18 Mg3 2.031 . S
O18 C19 1.208 . S
C19 O17 1.312 1_455 S
C19 O18 1.208 . S
C20 O12 1.331 . S
C20 O15 1.244 1_565 S
O21 Mg6 2.013 1_655 S
O21 C10 1.191 1_655 S
O22 C1 1.331 . S
O22 Mg8 2.081 . S
O23 Mg4 1.986 . S
O23 C10 1.307 . S
O24 C2 1.264 1_565 S
O24 Mg8 2.023 . S
O25 C1 1.244 1_545 S
O25 Mg9 1.942 . S
O26 C2 1.273 . S
O26 Mg9 1.955 . S
O27 C0 1.312 1_455 S
O27 Mg3 2.291 . S
O27 Mg6 2.114 1_565 S
O28 C0 1.208 . S
O28 Mg8 2.031 . S
C29 O14 1.264 1_545 S
C29 O16 1.273 . S
C30 O11 1.191 1_655 S
C30 O13 1.307 . S
C31 O58 1.312 1_545 S
C31 O59 1.208 . S
C32 O53 1.331 . S
C32 O56 1.244 1_556 S
C33 O55 1.264 1_554 S
C33 O57 1.273 . S
Mg34 O36 1.936 1_556 S
Mg34 O43 2.081 . S
Mg34 O45 2.023 . S
Mg34 O49 2.031 . S
Mg34 O58 2.291 . S
Mg35 O36 1.963 . S
Mg35 O46 1.942 . S
Mg35 O47 1.955 . S
Mg35 O54 1.986 . S
O36 Mg34 1.936 1_554 S
O36 Mg35 1.963 . S
O36 Mg37 1.915 1_565 S
Mg37 O36 1.915 1_545 S
Mg37 O38 1.915 . S
Mg37 O42 2.013 1_545 S
Mg37 O48 2.114 1_554 S
Mg37 O52 2.013 . S
Mg37 O58 2.114 1_544 S
O38 Mg37 1.915 . S
O38 Mg39 1.936 1_554 S
O38 Mg40 1.963 . S
Mg39 O38 1.936 1_556 S
Mg39 O48 2.291 . S
Mg39 O53 2.081 . S
Mg39 O55 2.023 . S
Mg39 O59 2.031 . S
Mg40 O38 1.963 . S
Mg40 O44 1.986 . S
Mg40 O56 1.942 . S
Mg40 O57 1.955 . S
C41 O52 1.191 1_565 S
C41 O54 1.307 . S
O42 Mg37 2.013 1_565 S
O42 C61 1.191 1_565 S
O43 Mg34 2.081 . S
O43 C51 1.331 . S
O44 Mg40 1.986 . S
O44 C61 1.307 . S
O45 Mg34 2.023 . S
O45 C60 1.264 1_556 S
O46 Mg35 1.942 . S
O46 C51 1.244 1_554 S
O47 Mg35 1.955 . S
O47 C60 1.273 . S
O48 Mg37 2.114 1_556 S
O48 Mg39 2.291 . S
O48 C50 1.312 1_545 S
O49 Mg34 2.031 . S
O49 C50 1.208 . S
C50 O48 1.312 1_565 S
C50 O49 1.208 . S
C51 O43 1.331 . S
C51 O46 1.244 1_556 S
O52 Mg37 2.013 . S
O52 C41 1.191 1_545 S
O53 C32 1.331 . S
O53 Mg39 2.081 . S
O54 Mg35 1.986 . S
O54 C41 1.307 . S
O55 C33 1.264 1_556 S
O55 Mg39 2.023 . S
O56 C32 1.244 1_554 S
O56 Mg40 1.942 . S
O57 C33 1.273 . S
O57 Mg40 1.955 . S
O58 C31 1.312 1_565 S
O58 Mg34 2.291 . S
O58 Mg37 2.114 1_566 S
O59 C31 1.208 . S
O59 Mg39 2.031 . S
C60 O45 1.264 1_554 S
C60 O47 1.273 . S
C61 O42 1.191 1_545 S
C61 O44 1.307 . S
C62 O89 1.312 1_556 S
C62 O90 1.208 . S
C63 O84 1.331 . S
C63 O87 1.244 1_655 S
C64 O86 1.264 1_455 S
C64 O88 1.273 . S
Mg65 O67 1.936 1_655 S
Mg65 O74 2.081 . S
Mg65 O76 2.023 . S
Mg65 O80 2.031 . S
Mg65 O89 2.291 . S
Mg66 O67 1.963 . S
Mg66 O77 1.942 . S
Mg66 O78 1.955 . S
Mg66 O85 1.986 . S
O67 Mg65 1.936 1_455 S
O67 Mg66 1.963 . S
O67 Mg68 1.915 . S
Mg68 O67 1.915 . S
Mg68 O69 1.915 1_554 S
Mg68 O73 2.013 . S
Mg68 O79 2.114 1_454 S
Mg68 O83 2.013 1_554 S
Mg68 O89 2.114 1_455 S
O69 Mg68 1.915 1_556 S
O69 Mg70 1.936 1_455 S
O69 Mg71 1.963 . S
Mg70 O69 1.936 1_655 S
Mg70 O79 2.291 . S
Mg70 O84 2.081 . S
Mg70 O86 2.023 . S
Mg70 O90 2.031 . S
Mg71 O69 1.963 . S
Mg71 O75 1.986 . S
Mg71 O87 1.942 . S
Mg71 O88 1.955 . S
C72 O83 1.191 1_554 S
C72 O85 1.307 . S
O73 Mg68 2.013 . S
O73 C92 1.191 1_554 S
O74 Mg65 2.081 . S
O74 C82 1.331 . S
O75 Mg71 1.986 . S
O75 C92 1.307 . S
O76 Mg65 2.023 . S
O76 C91 1.264 1_655 S
O77 Mg66 1.942 . S
O77 C82 1.244 1_455 S
O78 Mg66 1.955 . S
O78 C91 1.273 . S
O79 Mg68 2.114 1_656 S
O79 Mg70 2.291 . S
O79 C81 1.312 1_556 S
O80 Mg65 2.031 . S
O80 C81 1.208 . S
C81 O79 1.312 1_554 S
C81 O80 1.208 . S
C82 O74 1.331 . S
C82 O77 1.244 1_655 S
O83 Mg68 2.013 1_556 S
O83 C72 1.191 1_556 S
O84 C63 1.331 . S
O84 Mg70 2.081 . S
O85 Mg66 1.986 . S
O85 C72 1.307 . S
O86 C64 1.264 1_655 S
O86 Mg70 2.023 . S
O87 C63 1.244 1_455 S
O87 Mg71 1.942 . S
O88 C64 1.273 . S
O88 Mg71 1.955 . S
O89 C62 1.312 1_554 S
O89 Mg65 2.291 . S
O89 Mg68 2.114 1_655 S
O90 C62 1.208 . S
O90 Mg70 2.031 . S
C91 O76 1.264 1_455 S
C91 O78 1.273 . S
C92 O73 1.191 1_556 S
C92 O75 1.307 . S
H93 C101 0.950 . S
H94 C106 0.950 . S
H95 C103 0.950 . S
H96 C105 0.950 . S
H97 C107 0.950 . S
H98 C109 0.950 . S
H99 C111 0.950 . S
H100 C112 0.950 . S
C101 H93 0.950 . S
C101 C102 1.386 . S
C101 C103 1.391 . S
C102 C101 1.386 . S
C102 C106 1.393 1_655 S
C103 H95 0.950 . S
C103 C101 1.391 . S
C103 C104 1.400 . S
C104 C103 1.400 . S
C104 C105 1.398 1_655 S
C104 C110 1.491 . S
C105 H96 0.950 . S
C105 C104 1.398 1_455 S
C105 C106 1.391 . S
C106 H94 0.950 . S
C106 C102 1.393 1_455 S
C106 C105 1.391 . S
C107 H97 0.950 . S
C107 C108 1.386 . S
C107 C109 1.391 . S
C108 C107 1.386 . S
C108 C112 1.393 1_455 S
C109 H98 0.950 . S
C109 C107 1.391 . S
C109 C110 1.400 1_455 S
C110 C104 1.491 . S
C110 C109 1.400 1_655 S
C110 C111 1.398 . S
C111 H99 0.950 . S
C111 C110 1.398 . S
C111 C112 1.391 . S
C112 H100 0.950 . S
C112 C108 1.393 1_655 S
C112 C111 1.391 . S
H113 C121 0.950 . S
H114 C126 0.950 . S
H115 C123 0.950 . S
H116 C125 0.950 . S
H117 C127 0.950 . S
H118 C129 0.950 . S
H119 C131 0.950 . S
H120 C132 0.950 . S
C121 H113 0.950 . S
C121 C122 1.386 . S
C121 C123 1.391 . S
C122 C121 1.386 . S
C122 C126 1.393 . S
C123 H115 0.950 . S
C123 C121 1.391 . S
C123 C124 1.400 . S
C124 C123 1.400 . S
C124 C125 1.398 . S
C124 C130 1.491 . S
C125 H116 0.950 . S
C125 C124 1.398 . S
C125 C126 1.391 . S
C126 H114 0.950 . S
C126 C122 1.393 . S
C126 C125 1.391 . S
C127 H117 0.950 . S
C127 C128 1.386 . S
C127 C129 1.391 . S
C128 C127 1.386 . S
C128 C132 1.392 1_545 S
C129 H118 0.950 . S
C129 C127 1.391 . S
C129 C130 1.400 . S
C130 C124 1.491 . S
C130 C129 1.400 . S
C130 C131 1.398 1_545 S
C131 H119 0.950 . S
C131 C130 1.398 1_565 S
C131 C132 1.391 . S
C132 H120 0.950 . S
C132 C128 1.392 1_565 S
C132 C131 1.391 . S
H133 C141 0.950 . S
H134 C146 0.950 . S
H135 C143 0.950 . S
H136 C145 0.950 . S
H137 C147 0.950 . S
H138 C149 0.950 . S
H139 C151 0.950 . S
H140 C152 0.950 . S
C141 H133 0.950 . S
C141 C142 1.390 . S
C141 C143 1.391 . S
C142 C141 1.390 . S
C142 C146 1.389 1_455 S
C143 H135 0.950 . S
C143 C141 1.391 . S
C143 C144 1.400 . S
C144 C143 1.400 . S
C144 C145 1.398 1_455 S
C144 C150 1.491 . S
C145 H136 0.950 . S
C145 C144 1.398 1_655 S
C145 C146 1.391 . S
C146 H134 0.950 . S
C146 C142 1.389 1_655 S
C146 C145 1.391 . S
C147 H137 0.950 . S
C147 C148 1.386 1_655 S
C147 C149 1.391 . S
C148 C147 1.386 1_455 S
C148 C152 1.393 . S
C149 H138 0.950 . S
C149 C147 1.391 . S
C149 C150 1.400 1_655 S
C150 C144 1.491 . S
C150 C149 1.400 1_455 S
C150 C151 1.398 . S
C151 H139 0.950 . S
C151 C150 1.398 . S
C151 C152 1.391 . S
C152 H140 0.950 . S
C152 C148 1.393 . S
C152 C151 1.391 . S
H153 C161 0.950 . S
H154 C166 0.950 . S
H155 C163 0.950 . S
H156 C165 0.950 . S
H157 C167 0.950 . S
H158 C169 0.950 . S
H159 C171 0.950 . S
H160 C172 0.950 . S
C161 H153 0.950 . S
C161 C162 1.386 1_565 S
C161 C163 1.391 . S
C162 C161 1.386 1_545 S
C162 C166 1.393 . S
C163 H155 0.950 . S
C163 C161 1.391 . S
C163 C164 1.415 . S
C164 C163 1.415 . S
C164 C165 1.382 1_565 S
C164 C170 1.492 . S
C165 H156 0.950 . S
C165 C164 1.382 1_545 S
C165 C166 1.391 . S
C166 H154 0.950 . S
C166 C162 1.393 . S
C166 C165 1.391 . S
C167 H157 0.950 . S
C167 C168 1.386 1_545 S
C167 C169 1.391 . S
C168 C167 1.386 1_565 S
C168 C172 1.393 . S
C169 H158 0.950 . S
C169 C167 1.391 . S
C169 C170 1.400 1_545 S
C170 C164 1.492 . S
C170 C169 1.400 1_565 S
C170 C171 1.398 . S
C171 H159 0.950 . S
C171 C170 1.398 . S
C171 C172 1.391 . S
C172 H160 0.950 . S
C172 C168 1.393 . S
C172 C171 1.391 . S
H173 C181 0.950 . S
H174 C186 0.950 . S
H175 C183 0.950 . S
H176 C185 0.950 . S
H177 C187 0.950 . S
H178 C189 0.950 . S
H179 C191 0.950 . S
H180 C192 0.950 . S
C181 H173 0.950 . S
C181 C182 1.386 1_655 S
C181 C183 1.391 . S
C182 C181 1.386 1_455 S
C182 C186 1.393 . S
C183 H175 0.950 . S
C183 C181 1.391 . S
C183 C184 1.400 . S
C184 C183 1.400 . S
C184 C185 1.398 1_655 S
C184 C190 1.491 . S
C185 H176 0.950 . S
C185 C184 1.398 1_455 S
C185 C186 1.391 . S
C186 H174 0.950 . S
C186 C182 1.393 . S
C186 C185 1.391 . S
C187 H177 0.950 . S
C187 C188 1.386 1_455 S
C187 C189 1.391 . S
C188 C187 1.386 1_655 S
C188 C192 1.393 . S
C189 H178 0.950 . S
C189 C187 1.391 . S
C189 C190 1.400 1_455 S
C190 C184 1.491 . S
C190 C189 1.400 1_655 S
C190 C191 1.398 . S
C191 H179 0.950 . S
C191 C190 1.398 . S
C191 C192 1.391 . S
C192 H180 0.950 . S
C192 C188 1.393 . S
C192 C191 1.391 . S
H193 C201 0.950 . S
H194 C206 0.950 . S
H195 C203 0.950 . S
H196 C205 0.950 . S
H197 C207 0.950 . S
H198 C209 0.950 . S
H199 C211 0.950 . S
H200 C212 0.950 . S
C201 H193 0.950 . S
C201 C202 1.386 1_565 S
C201 C203 1.391 . S
C202 C201 1.386 1_545 S
C202 C206 1.393 . S
C203 H195 0.950 . S
C203 C201 1.391 . S
C203 C204 1.400 1_565 S
C204 C203 1.400 1_545 S
C204 C205 1.398 . S
C204 C210 1.491 . S
C205 H196 0.950 . S
C205 C204 1.398 . S
C205 C206 1.391 . S
C206 H194 0.950 . S
C206 C202 1.393 . S
C206 C205 1.391 . S
C207 H197 0.950 . S
C207 C208 1.386 . S
C207 C209 1.391 . S
C208 C207 1.386 . S
C208 C212 1.393 1_545 S
C209 H198 0.950 . S
C209 C207 1.391 . S
C209 C210 1.400 . S
C210 C204 1.491 . S
C210 C209 1.400 . S
C210 C211 1.398 1_545 S
C211 H199 0.950 . S
C211 C210 1.398 1_565 S
C211 C212 1.391 . S
C212 H200 0.950 . S
C212 C208 1.393 1_565 S
C212 C211 1.391 . S
H213 C221 0.950 . S
H214 C226 0.950 . S
H215 C223 0.950 . S
H216 C225 0.950 . S
H217 C227 0.950 . S
H218 C229 0.950 . S
H219 C231 0.950 . S
H220 C232 0.950 . S
C221 H213 0.950 . S
C221 C222 1.386 . S
C221 C223 1.391 . S
C222 C221 1.386 . S
C222 C226 1.393 1_455 S
C223 H215 0.950 . S
C223 C221 1.391 . S
C223 C224 1.400 . S
C224 C223 1.400 . S
C224 C225 1.398 1_455 S
C224 C230 1.491 . S
C225 H216 0.950 . S
C225 C224 1.398 1_655 S
C225 C226 1.391 . S
C226 H214 0.950 . S
C226 C222 1.393 1_655 S
C226 C225 1.391 . S
C227 H217 0.950 . S
C227 C228 1.386 1_655 S
C227 C229 1.391 . S
C228 C227 1.386 1_455 S
C228 C232 1.393 . S
C229 H218 0.950 . S
C229 C227 1.391 . S
C229 C230 1.400 1_655 S
C230 C224 1.491 . S
C230 C229 1.400 1_455 S
C230 C231 1.398 . S
C231 H219 0.950 . S
C231 C230 1.398 . S
C231 C232 1.391 . S
C232 H220 0.950 . S
C232 C228 1.393 . S
C232 C231 1.391 . S
H233 C241 0.950 . S
H234 C246 0.950 . S
H235 C243 0.950 . S
H236 C245 0.950 . S
H237 C247 0.950 . S
H238 C249 0.950 . S
H239 C251 0.950 . S
H240 C252 0.950 . S
C241 H233 0.950 . S
C241 C242 1.386 1_565 S
C241 C243 1.391 . S
C242 C241 1.386 1_545 S
C242 C246 1.393 . S
C243 H235 0.950 . S
C243 C241 1.391 . S
C243 C244 1.400 . S
C244 C243 1.400 . S
C244 C245 1.398 1_565 S
C244 C250 1.491 . S
C245 H236 0.950 . S
C245 C244 1.398 1_545 S
C245 C246 1.391 . S
C246 H234 0.950 . S
C246 C242 1.393 . S
C246 C245 1.391 . S
C247 H237 0.950 . S
C247 C248 1.386 1_545 S
C247 C249 1.391 . S
C248 C247 1.386 1_565 S
C248 C252 1.393 . S
C249 H238 0.950 . S
C249 C247 1.391 . S
C249 C250 1.400 1_545 S
C250 C244 1.491 . S
C250 C249 1.400 1_565 S
C250 C251 1.398 . S
C251 H239 0.950 . S
C251 C250 1.398 . S
C251 C252 1.391 . S
C252 H240 0.950 . S
C252 C248 1.393 . S
C252 C251 1.391 . S
H253 C261 0.950 . S
H254 C266 0.950 . S
H255 C263 0.950 . S
H256 C265 0.950 . S
H257 C267 0.950 . S
H258 C269 0.950 . S
H259 C271 0.950 . S
H260 C272 0.950 . S
C261 H253 0.950 . S
C261 C262 1.386 . S
C261 C263 1.391 . S
C262 C261 1.386 . S
C262 C266 1.393 1_554 S
C263 H255 0.950 . S
C263 C261 1.391 . S
C263 C264 1.397 1_554 S
C264 C263 1.397 1_556 S
C264 C265 1.401 . S
C264 C270 1.491 . S
C265 H256 0.950 . S
C265 C264 1.401 . S
C265 C266 1.391 . S
C266 H254 0.950 . S
C266 C262 1.393 1_556 S
C266 C265 1.391 . S
C267 H257 0.950 . S
C267 C268 1.386 . S
C267 C269 1.391 . S
C268 C267 1.386 . S
C268 C272 1.393 1_556 S
C269 H258 0.950 . S
C269 C267 1.391 . S
C269 C270 1.400 . S
C270 C264 1.491 . S
C270 C269 1.400 . S
C270 C271 1.398 1_556 S
C271 H259 0.950 . S
C271 C270 1.398 1_554 S
C271 C272 1.391 . S
C272 H260 0.950 . S
C272 C268 1.393 1_554 S
C272 C271 1.391 . S
H273 C281 0.950 . S
H274 C286 0.950 . S
H275 C283 0.950 . S
H276 C285 0.950 . S
H277 C287 0.950 . S
H278 C289 0.950 . S
H279 C291 0.950 . S
H280 C292 0.950 . S
C281 H273 0.950 . S
C281 C282 1.386 . S
C281 C283 1.391 . S
C282 C281 1.386 . S
C282 C286 1.393 1_554 S
C283 H275 0.950 . S
C283 C281 1.391 . S
C283 C284 1.400 . S
C284 C283 1.400 . S
C284 C285 1.398 1_554 S
C284 C290 1.491 . S
C285 H276 0.950 . S
C285 C284 1.398 1_556 S
C285 C286 1.391 . S
C286 H274 0.950 . S
C286 C282 1.393 1_556 S
C286 C285 1.391 . S
C287 H277 0.950 . S
C287 C288 1.386 1_556 S
C287 C289 1.391 . S
C288 C287 1.386 1_554 S
C288 C292 1.393 . S
C289 H278 0.950 . S
C289 C287 1.391 . S
C289 C290 1.400 1_556 S
C290 C284 1.491 . S
C290 C289 1.400 1_554 S
C290 C291 1.398 . S
C291 H279 0.950 . S
C291 C290 1.398 . S
C291 C292 1.391 . S
C292 H280 0.950 . S
C292 C288 1.393 . S
C292 C291 1.391 . S
H293 C301 0.950 . S
H294 C306 0.950 . S
H295 C303 0.950 . S
H296 C305 0.950 . S
H297 C307 0.950 . S
H298 C309 0.950 . S
H299 C311 0.950 . S
H300 C312 0.950 . S
C301 H293 0.950 . S
C301 C302 1.386 . S
C301 C303 1.391 . S
C302 C301 1.386 . S
C302 C306 1.393 1_554 S
C303 H295 0.950 . S
C303 C301 1.391 . S
C303 C304 1.400 . S
C304 C303 1.400 . S
C304 C305 1.398 1_554 S
C304 C310 1.491 . S
C305 H296 0.950 . S
C305 C304 1.398 1_556 S
C305 C306 1.391 . S
C306 H294 0.950 . S
C306 C302 1.393 1_556 S
C306 C305 1.391 . S
C307 H297 0.950 . S
C307 C308 1.386 1_556 S
C307 C309 1.391 . S
C308 C307 1.386 1_554 S
C308 C312 1.393 . S
C309 H298 0.950 . S
C309 C307 1.391 . S
C309 C310 1.400 1_556 S
C310 C304 1.491 . S
C310 C309 1.400 1_554 S
C310 C311 1.398 . S
C311 H299 0.950 . S
C311 C310 1.398 . S
C311 C312 1.391 . S
C312 H300 0.950 . S
C312 C308 1.393 . S
C312 C311 1.391 . S
H313 C321 0.950 . S
H314 C326 0.950 . S
H315 C323 0.950 . S
H316 C325 0.950 . S
H317 C327 0.950 . S
H318 C329 0.950 . S
H319 C331 0.950 . S
H320 C332 0.950 . S
C321 H313 0.950 . S
C321 C322 1.386 . S
C321 C323 1.391 . S
C322 C321 1.386 . S
C322 C326 1.393 1_554 S
C323 H315 0.950 . S
C323 C321 1.391 . S
C323 C324 1.400 1_554 S
C324 C323 1.400 1_556 S
C324 C325 1.398 . S
C324 C330 1.491 . S
C325 H316 0.950 . S
C325 C324 1.398 . S
C325 C326 1.391 . S
C326 H314 0.950 . S
C326 C322 1.393 1_556 S
C326 C325 1.391 . S
C327 H317 0.950 . S
C327 C328 1.386 . S
C327 C329 1.391 . S
C328 C327 1.386 . S
C328 C332 1.393 1_556 S
C329 H318 0.950 . S
C329 C327 1.391 . S
C329 C330 1.400 . S
C330 C324 1.491 . S
C330 C329 1.400 . S
C330 C331 1.398 1_556 S
C331 H319 0.950 . S
C331 C330 1.398 1_554 S
C331 C332 1.391 . S
C332 H320 0.950 . S
C332 C328 1.393 1_554 S
C332 C331 1.391 . S
C102 C82 1.267 . S
C108 C10 1.239 . S
C122 C2 1.322 . S
C128 C41 1.272 1_545 S
C142 C19 1.300 . S
C148 C91 1.388 . S
C162 C61 1.229 . S
C168 C20 1.273 . S
C182 C0 1.236 1_455 S
C188 C63 1.301 . S
C202 C31 1.311 . S
C208 C29 1.383 . S
C222 C64 1.321 . S
C228 C30 1.278 1_455 S
C242 C50 1.213 1_545 S
C248 C1 1.294 . S
C262 C72 1.243 . S
C268 C32 1.273 . S
C282 C92 1.281 1_554 S
C288 C60 1.320 . S
C302 C33 1.385 . S
C308 C81 1.302 . S
C322 C62 1.249 1_554 S
C328 C51 1.299 . S
