# Generated by pormake.
# Topology wkj, (6)-cn, num edge types: 1
# Building blocks:
#     Node 0, Type 0, BuildingBlock: BETDEL_clean_sbu_0, # of connection points: 6
#     Node 1, Type 0, BuildingBlock: BETDEL_clean_sbu_0, # of connection points: 6
#     Node 2, Type 0, BuildingBlock: BETDEL_clean_sbu_0, # of connection points: 6
#     Node 3, Type 0, BuildingBlock: BETDEL_clean_sbu_0, # of connection points: 6
#     Node 4, Type 0, BuildingBlock: BETDEL_clean_sbu_0, # of connection points: 6
#     Node 5, Type 0, BuildingBlock: BETDEL_clean_sbu_0, # of connection points: 6
#     Node 6, Type 0, BuildingBlock: BETDEL_clean_sbu_0, # of connection points: 6
#     Node 7, Type 0, BuildingBlock: BETDEL_clean_sbu_0, # of connection points: 6
#     Node 8, Type 0, BuildingBlock: BETDEL_clean_sbu_0, # of connection points: 6
#     Node 9, Type 0, BuildingBlock: BETDEL_clean_sbu_0, # of connection points: 6
#     Node 10, Type 0, BuildingBlock: BETDEL_clean_sbu_0, # of connection points: 6
#     Node 11, Type 0, BuildingBlock: BETDEL_clean_sbu_0, # of connection points: 6
#     Edge 12, Type (0, 0), BuildingBlock: XIVTED_clean_linker_0, # of connection points: 2
#     Edge 13, Type (0, 0), BuildingBlock: XIVTED_clean_linker_0, # of connection points: 2
#     Edge 14, Type (0, 0), BuildingBlock: XIVTED_clean_linker_0, # of connection points: 2
#     Edge 15, Type (0, 0), BuildingBlock: XIVTED_clean_linker_0, # of connection points: 2
#     Edge 16, Type (0, 0), BuildingBlock: XIVTED_clean_linker_0, # of connection points: 2
#     Edge 17, Type (0, 0), BuildingBlock: XIVTED_clean_linker_0, # of connection points: 2
#     Edge 18, Type (0, 0), BuildingBlock: XIVTED_clean_linker_0, # of connection points: 2
#     Edge 19, Type (0, 0), BuildingBlock: XIVTED_clean_linker_0, # of connection points: 2
#     Edge 20, Type (0, 0), BuildingBlock: XIVTED_clean_linker_0, # of connection points: 2
#     Edge 21, Type (0, 0), BuildingBlock: XIVTED_clean_linker_0, # of connection points: 2
#     Edge 22, Type (0, 0), BuildingBlock: XIVTED_clean_linker_0, # of connection points: 2
#     Edge 23, Type (0, 0), BuildingBlock: XIVTED_clean_linker_0, # of connection points: 2
#     Edge 24, Type (0, 0), BuildingBlock: XIVTED_clean_linker_0, # of connection points: 2
#     Edge 25, Type (0, 0), BuildingBlock: XIVTED_clean_linker_0, # of connection points: 2
#     Edge 26, Type (0, 0), BuildingBlock: XIVTED_clean_linker_0, # of connection points: 2
#     Edge 27, Type (0, 0), BuildingBlock: XIVTED_clean_linker_0, # of connection points: 2
#     Edge 28, Type (0, 0), BuildingBlock: XIVTED_clean_linker_0, # of connection points: 2
#     Edge 29, Type (0, 0), BuildingBlock: XIVTED_clean_linker_0, # of connection points: 2
#     Edge 30, Type (0, 0), BuildingBlock: XIVTED_clean_linker_0, # of connection points: 2
#     Edge 31, Type (0, 0), BuildingBlock: XIVTED_clean_linker_0, # of connection points: 2
#     Edge 32, Type (0, 0), BuildingBlock: XIVTED_clean_linker_0, # of connection points: 2
#     Edge 33, Type (0, 0), BuildingBlock: XIVTED_clean_linker_0, # of connection points: 2
#     Edge 34, Type (0, 0), BuildingBlock: XIVTED_clean_linker_0, # of connection points: 2
#     Edge 35, Type (0, 0), BuildingBlock: XIVTED_clean_linker_0, # of connection points: 2
#     Edge 36, Type (0, 0), BuildingBlock: XIVTED_clean_linker_0, # of connection points: 2
#     Edge 37, Type (0, 0), BuildingBlock: XIVTED_clean_linker_0, # of connection points: 2
#     Edge 38, Type (0, 0), BuildingBlock: XIVTED_clean_linker_0, # of connection points: 2
#     Edge 39, Type (0, 0), BuildingBlock: XIVTED_clean_linker_0, # of connection points: 2
#     Edge 40, Type (0, 0), BuildingBlock: XIVTED_clean_linker_0, # of connection points: 2
#     Edge 41, Type (0, 0), BuildingBlock: XIVTED_clean_linker_0, # of connection points: 2
#     Edge 42, Type (0, 0), BuildingBlock: XIVTED_clean_linker_0, # of connection points: 2
#     Edge 43, Type (0, 0), BuildingBlock: XIVTED_clean_linker_0, # of connection points: 2
#     Edge 44, Type (0, 0), BuildingBlock: XIVTED_clean_linker_0, # of connection points: 2
#     Edge 45, Type (0, 0), BuildingBlock: XIVTED_clean_linker_0, # of connection points: 2
#     Edge 46, Type (0, 0), BuildingBlock: XIVTED_clean_linker_0, # of connection points: 2
#     Edge 47, Type (0, 0), BuildingBlock: XIVTED_clean_linker_0, # of connection points: 2
# Relax obj value: 0.371
# Max RMSD: 0.192
# Mean RMSD: 0.192
data_MOF--net-wkj--node1-BETDEL_clean_sbu_0--edge1-XIVTED_clean_linker_0
_symmetry_space_group_name_H-M    P1
_symmetry_Int_Tables_number       1
_symmetry_cell_setting            triclinic
loop_
_symmetry_equiv_pos_as_xyz
'x, y, z'
_cell_length_a     47.632067
_cell_length_b     47.846733
_cell_length_c     27.1975
_cell_angle_alpha  90.005813
_cell_angle_beta   90.109343
_cell_angle_gamma 120.40572
loop_
_atom_site_label
_atom_site_type_symbol
_atom_site_fract_x
_atom_site_fract_y
_atom_site_fract_z
_atom_type_partial_charge
Dy0 Dy 0.43728 0.06653 0.31053 0.0
C1 C 0.54655 0.15858 0.1977 0.0
C2 C 0.39235 0.036 0.38325 0.0
Dy3 Dy 0.50307 0.11096 0.2578 0.0
O4 O 0.41023 0.06698 0.37724 0.0
O5 O 0.39783 0.0211 0.34776 0.0
O6 O 0.41411 0.0888 0.26624 0.0
O7 O 0.46352 0.11663 0.28615 0.0
C8 C 0.44091 0.11648 0.26176 0.0
C9 C 0.50082 0.06297 0.30966 0.0
O10 O 0.51814 0.13222 0.33396 0.0
O11 O 0.47328 0.09026 0.37355 0.0
O12 O 0.54883 0.13393 0.21254 0.0
O13 O 0.52057 0.15695 0.21557 0.0
O14 O 0.52822 0.08939 0.29983 0.0
O15 O 0.47798 0.06242 0.28539 0.0
O16 O 0.42715 0.03729 0.23988 0.0
O17 O 0.47165 0.07689 0.19591 0.0
C18 C 0.50276 0.11668 0.37479 0.0
C19 C 0.44388 0.04832 0.19791 0.0
Dy20 Dy 0.36634 0.45931 0.63285 0.0
C21 C 0.38654 0.56804 0.51751 0.0
C22 C 0.35038 0.41283 0.70332 0.0
Dy23 Dy 0.38789 0.52428 0.58013 0.0
O24 O 0.33922 0.43244 0.70023 0.0
O25 O 0.36983 0.41774 0.66656 0.0
O26 O 0.32192 0.43554 0.58643 0.0
O27 O 0.34151 0.48444 0.60631 0.0
C28 C 0.32015 0.4615 0.58064 0.0
C29 C 0.43416 0.52285 0.63259 0.0
O30 O 0.382 0.53943 0.65646 0.0
O31 O 0.37881 0.4948 0.69607 0.0
O32 O 0.41281 0.56936 0.53408 0.0
O33 O 0.36103 0.54293 0.53558 0.0
O34 O 0.43493 0.54985 0.62245 0.0
O35 O 0.41184 0.49983 0.6083 0.0
O36 O 0.3858 0.44912 0.56295 0.0
O37 O 0.38984 0.49267 0.51849 0.0
C38 C 0.38231 0.5242 0.69733 0.0
C39 C 0.39066 0.46516 0.52063 0.0
Dy40 Dy 0.92847 0.35182 0.99562 0.0
C41 C 0.87727 0.41781 0.88841 0.0
C42 C 0.95645 0.32132 0.04162 0.0
Dy43 Dy 0.91059 0.39603 0.94245 0.0
O44 O 0.92552 0.30897 1.03404 0.0
O45 O 0.97225 0.35047 1.02364 0.0
O46 O 0.87639 0.31665 1.00895 0.0
O47 O 0.89019 0.34348 0.94314 0.0
C48 C 0.8663 0.32336 0.96881 0.0
C49 C 0.97201 0.42531 0.98144 0.0
O50 O 0.89216 0.39878 1.01808 0.0
O51 O 0.91781 0.3758 0.06066 0.0
O52 O 0.90812 0.43468 0.89913 0.0
O53 O 0.86445 0.38989 0.91024 0.0
O54 O 0.96437 0.43447 0.94083 0.0
O55 O 0.94608 0.40236 0.99776 0.0
O56 O 0.95001 0.35459 0.91867 0.0
O57 O 0.92473 0.37805 0.87704 0.0
C58 C 0.90115 0.39153 0.06042 0.0
C59 C 0.9428 0.36438 0.87692 0.0
Dy60 Dy 0.53817 0.91531 0.31394 0.0
C61 C 0.42974 0.82351 0.19934 0.0
C62 C 0.58487 0.9474 0.38442 0.0
Dy63 Dy 0.47174 0.87086 0.26162 0.0
O64 O 0.56701 0.91627 0.37974 0.0
O65 O 0.57825 0.96148 0.34898 0.0
O66 O 0.56125 0.89422 0.2668 0.0
O67 O 0.51214 0.86576 0.28739 0.0
C68 C 0.53442 0.86668 0.26144 0.0
C69 C 0.47281 0.91622 0.31854 0.0
O70 O 0.45809 0.8477 0.33657 0.0
O71 O 0.50307 0.88915 0.37719 0.0
O72 O 0.42536 0.84622 0.21746 0.0
O73 O 0.45691 0.82676 0.21545 0.0
O74 O 0.44574 0.8899 0.30672 0.0
O75 O 0.49614 0.91869 0.29299 0.0
O76 O 0.54825 0.94419 0.24277 0.0
O77 O 0.50072 0.90727 0.20112 0.0
C78 C 0.47372 0.86242 0.37782 0.0
C79 C 0.52968 0.93461 0.20221 0.0
Dy80 Dy 0.62407 0.53787 0.6327 0.0
C81 C 0.59702 0.42476 0.52458 0.0
C82 C 0.64435 0.58492 0.70322 0.0
Dy83 Dy 0.59632 0.47042 0.58298 0.0
O84 O 0.65555 0.56557 0.6965 0.0
O85 O 0.62282 0.57975 0.66944 0.0
O86 O 0.66817 0.5562 0.58535 0.0
O87 O 0.64366 0.50767 0.6097 0.0
C88 C 0.6663 0.5282 0.58305 0.0
C89 C 0.55351 0.47886 0.63303 0.0
O90 O 0.60108 0.45571 0.65974 0.0
O91 O 0.60815 0.50261 0.69718 0.0
O92 O 0.57076 0.42395 0.54008 0.0
O93 O 0.62267 0.45045 0.54111 0.0
O94 O 0.54937 0.45007 0.62524 0.0
O95 O 0.57714 0.49967 0.6082 0.0
O96 O 0.60626 0.54895 0.56156 0.0
O97 O 0.59624 0.50209 0.51966 0.0
C98 C 0.60216 0.47226 0.69975 0.0
C99 C 0.59863 0.53123 0.5203 0.0
Dy100 Dy 0.05193 0.63979 0.99789 0.0
C101 C 0.07809 0.56553 0.86144 0.0
C102 C 0.0359 0.67206 0.06427 0.0
Dy103 Dy 0.05989 0.59095 0.93553 0.0
O104 O 0.06532 0.67911 0.05382 0.0
O105 O 0.01514 0.6472 0.0386 0.0
O106 O 0.09149 0.68034 0.95611 0.0
O107 O 0.09359 0.63769 0.96936 0.0
C108 C 0.10689 0.66486 0.94791 0.0
C109 C 0.00121 0.56687 0.97939 0.0
O110 O 0.07618 0.57921 1.00549 0.0
O111 O 0.06288 0.61064 0.05462 0.0
O112 O 0.04832 0.55533 0.87488 0.0
O113 O 0.09818 0.58873 0.89034 0.0
O114 O 0.01416 0.54956 0.96722 0.0
O115 O 0.01906 0.59497 0.96287 0.0
O116 O 0.0292 0.6427 0.92519 0.0
O117 O 0.05311 0.62026 0.87769 0.0
C118 C 0.07231 0.58875 0.04946 0.0
C119 C 0.03665 0.63556 0.88141 0.0
Dy120 Dy 0.9285 0.58317 0.4277 0.0
C121 C 0.8797 0.46939 0.54671 0.0
C122 C 0.9576 0.64017 0.37711 0.0
Dy123 Dy 0.91203 0.52297 0.48904 0.0
O124 O 0.92653 0.62219 0.38461 0.0
O125 O 0.97275 0.62709 0.39784 0.0
O126 O 0.87617 0.56301 0.4108 0.0
O127 O 0.88987 0.55296 0.47923 0.0
C128 C 0.86608 0.54675 0.45148 0.0
C129 C 0.97444 0.55994 0.45776 0.0
O130 O 0.89781 0.49934 0.41374 0.0
O131 O 0.92091 0.54666 0.36699 0.0
O132 O 0.91046 0.48343 0.53563 0.0
O133 O 0.86644 0.4836 0.52369 0.0
O134 O 0.96648 0.54344 0.4987 0.0
O135 O 0.9485 0.55293 0.43631 0.0
O136 O 0.9486 0.60494 0.50409 0.0
O137 O 0.92315 0.55769 0.55029 0.0
C138 C 0.90643 0.51432 0.37032 0.0
C139 C 0.94109 0.58953 0.54731 0.0
Dy140 Dy 0.35183 0.89406 0.76797 0.0
C141 C 0.3732 0.80111 0.87359 0.0
C142 C 0.34446 0.93683 0.71092 0.0
Dy143 Dy 0.37533 0.85086 0.82185 0.0
O144 O 0.37023 0.94415 0.73703 0.0
O145 O 0.32239 0.90682 0.71852 0.0
O146 O 0.30086 0.85252 0.76709 0.0
O147 O 0.3325 0.85612 0.82388 0.0
C148 C 0.30509 0.83809 0.80425 0.0
C149 C 0.42119 0.90322 0.77562 0.0
O150 O 0.36691 0.82933 0.74399 0.0
O151 O 0.36068 0.86886 0.70354 0.0
O152 O 0.39956 0.82796 0.8622 0.0
O153 O 0.34802 0.80112 0.85508 0.0
O154 O 0.42833 0.88982 0.81163 0.0
O155 O 0.39179 0.88613 0.76571 0.0
O156 O 0.36995 0.9213 0.84099 0.0
O157 O 0.37903 0.88427 0.8842 0.0
C158 C 0.364 0.84273 0.70238 0.0
C159 C 0.37809 0.91169 0.88221 0.0
Dy160 Dy 0.4374 0.35965 0.09338 0.0
C161 C 0.5483 0.37725 0.20263 0.0
C162 C 0.38977 0.34671 1.02536 0.0
Dy163 Dy 0.50412 0.38071 0.14339 0.0
O164 O 0.40856 0.33447 1.02606 0.0
O165 O 0.39604 0.36548 0.06347 0.0
O166 O 0.41385 0.3147 0.13916 0.0
O167 O 0.46277 0.33513 0.11808 0.0
C168 C 0.44031 0.3134 0.14367 0.0
C169 C 0.50326 0.4263 0.08923 0.0
O170 O 0.51738 0.37307 0.06714 0.0
O171 O 0.4715 0.36864 1.02884 0.0
O172 O 0.54996 0.40404 0.18858 0.0
O173 O 0.5226 0.35257 0.18413 0.0
O174 O 0.53026 0.4269 0.10002 0.0
O175 O 0.48003 0.40481 0.11432 0.0
O176 O 0.43058 0.38145 0.16381 0.0
O177 O 0.47491 0.38512 0.20627 0.0
C178 C 0.50113 0.37232 1.0268 0.0
C179 C 0.44794 0.38711 0.20516 0.0
Dy180 Dy 0.04911 0.39822 0.41862 0.0
C181 C 0.10142 0.51645 0.52443 0.0
C182 C 0.03075 0.34825 0.35463 0.0
Dy183 Dy 0.06921 0.46034 0.47217 0.0
O184 O 0.06028 0.37208 0.36088 0.0
O185 O 0.01094 0.35164 0.38364 0.0
O186 O 0.08213 0.39011 0.46646 0.0
O187 O 0.09612 0.43763 0.44546 0.0
C188 C 0.10383 0.42048 0.47092 0.0
C189 C 0.00553 0.42612 0.44289 0.0
O190 O 0.08371 0.48315 0.3979 0.0
O191 O 0.06198 0.43468 0.35462 0.0
O192 O 0.07556 0.50772 0.49786 0.0
O193 O 0.11004 0.49478 0.52108 0.0
O194 O 0.01553 0.44224 0.48407 0.0
O195 O 0.03044 0.43004 0.42154 0.0
O196 O 0.02072 0.38037 0.49123 0.0
O197 O 0.05634 0.42611 0.53498 0.0
C198 C 0.07579 0.46707 0.35565 0.0
C199 C 0.03216 0.39582 0.53404 0.0
Dy200 Dy 0.62864 0.08659 0.77252 0.0
C201 C 0.60406 0.17522 0.87699 0.0
C202 C 0.64593 0.05465 0.70651 0.0
Dy203 Dy 0.60169 0.12801 0.81853 0.0
O204 O 0.65743 0.08563 0.70826 0.0
O205 O 0.62585 0.04082 0.74295 0.0
O206 O 0.673 0.1129 0.81991 0.0
O207 O 0.64897 0.13684 0.79434 0.0
C208 C 0.67141 0.13918 0.82166 0.0
C209 C 0.55868 0.07835 0.76616 0.0
O210 O 0.6081 0.14724 0.74121 0.0
O211 O 0.61612 0.1074 0.70606 0.0
O212 O 0.57759 0.15154 0.85787 0.0
O213 O 0.62906 0.17306 0.86375 0.0
O214 O 0.55521 0.10324 0.77533 0.0
O215 O 0.5814 0.07944 0.79187 0.0
O216 O 0.6104 0.05915 0.84494 0.0
O217 O 0.59589 0.0941 0.88211 0.0
C218 C 0.6101 0.13164 0.70201 0.0
C219 C 0.59967 0.06824 0.8838 0.0
Dy220 Dy 0.54765 0.62929 0.08798 0.0
C221 C 0.4338 0.61383 0.19184 0.0
C222 C 0.5969 0.63391 1.0311 0.0
Dy223 Dy 0.48081 0.60987 0.14099 0.0
O224 O 0.59074 0.65699 0.03909 0.0
O225 O 0.57701 0.60841 0.05657 0.0
O226 O 0.56292 0.6816 0.09215 0.0
O227 O 0.5312 0.64938 0.14551 0.0
C228 C 0.54392 0.67779 0.12877 0.0
C229 C 0.48249 0.56297 0.09018 0.0
O230 O 0.47023 0.62222 0.06412 0.0
O231 O 0.51461 0.62491 1.02341 0.0
O232 O 0.4345 0.58737 0.1841 0.0
O233 O 0.45852 0.63814 0.17051 0.0
O234 O 0.46129 0.55644 0.1251 0.0
O235 O 0.49792 0.5927 0.08367 0.0
O236 O 0.55381 0.60831 0.16025 0.0
O237 O 0.50903 0.60348 0.20332 0.0
C238 C 0.48624 0.62441 1.02245 0.0
C239 C 0.53609 0.60161 0.20142 0.0
H240 H 0.49164 0.17895 0.26664 0.0
H241 H 0.39157 0.26163 0.19148 0.0
H242 H 0.39197 0.12105 0.21797 0.0
H243 H 0.48953 0.29991 0.13787 0.0
H244 H 0.3918 0.21308 0.2199 0.0
H245 H 0.49225 0.22758 0.23688 0.0
C246 C 0.47012 0.17639 0.24886 0.0
C247 C 0.442 0.1459 0.24338 0.0
C248 C 0.41328 0.23237 0.2023 0.0
C249 C 0.44203 0.20131 0.21224 0.0
C250 C 0.41326 0.26002 0.18632 0.0
C251 C 0.44084 0.28504 0.16323 0.0
C252 C 0.44129 0.23017 0.19594 0.0
C253 C 0.46819 0.28166 0.15696 0.0
C254 C 0.47041 0.20412 0.23246 0.0
C255 C 0.41425 0.14411 0.22232 0.0
N256 N 0.46787 0.25477 0.17367 0.0
N257 N 0.41484 0.17156 0.20784 0.0
H258 H 0.27338 0.41267 0.52746 0.0
H259 H 0.1578 0.48214 0.47284 0.0
H260 H 0.30115 0.50732 0.585 0.0
H261 H 0.12406 0.38286 0.51331 0.0
H262 H 0.21342 0.49645 0.49814 0.0
H263 H 0.22166 0.40622 0.50098 0.0
C264 C 0.2687 0.43227 0.53409 0.0
C265 C 0.29128 0.46036 0.55905 0.0
C266 C 0.19359 0.47169 0.50171 0.0
C267 C 0.23212 0.45307 0.52881 0.0
C268 C 0.16204 0.46353 0.48742 0.0
C269 C 0.13653 0.43121 0.49048 0.0
C270 C 0.19927 0.44714 0.51798 0.0
C271 C 0.14308 0.40797 0.50974 0.0
C272 C 0.23915 0.42851 0.51914 0.0
C273 C 0.28417 0.48522 0.56602 0.0
N274 N 0.17385 0.41631 0.52211 0.0
N275 N 0.25489 0.48095 0.55115 0.0
H276 H 0.81582 0.27583 1.01894 0.0
H277 H 0.69186 0.20176 0.79494 0.0
H278 H 0.84158 0.32121 0.87609 0.0
H279 H 0.70653 0.14428 0.90279 0.0
H280 H 0.73656 0.2512 0.83288 0.0
H281 H 0.76421 0.23345 0.98532 0.0
C282 C 0.8104 0.27714 0.98059 0.0
C283 C 0.83323 0.30163 0.94991 0.0
C284 C 0.72964 0.22771 0.8483 0.0
C285 C 0.77416 0.25333 0.91154 0.0
C286 C 0.70423 0.19966 0.82696 0.0
C287 C 0.6959 0.16913 0.84582 0.0
C288 C 0.7459 0.22491 0.88936 0.0
C289 C 0.71251 0.16745 0.88709 0.0
C290 C 0.78099 0.25293 0.96153 0.0
C291 C 0.82471 0.30246 0.90073 0.0
N292 N 0.73669 0.195 0.90764 0.0
N293 N 0.79581 0.27831 0.88275 0.0
H294 H 0.51373 0.67901 0.21424 0.0
H295 H 0.57485 0.86634 0.19203 0.0
H296 H 0.56499 0.7363 0.08746 0.0
H297 H 0.49097 0.80279 0.27951 0.0
H298 H 0.57493 0.81907 0.1582 0.0
H299 H 0.50797 0.72434 0.24437 0.0
C300 C 0.52338 0.70094 0.19256 0.0
C301 C 0.53953 0.70394 0.14815 0.0
C302 C 0.55633 0.81543 0.1845 0.0
C303 C 0.53387 0.75568 0.18266 0.0
C304 C 0.55634 0.84235 0.2038 0.0
C305 C 0.5329 0.83826 0.23841 0.0
C306 C 0.53306 0.7843 0.2007 0.0
C307 C 0.50937 0.80677 0.25262 0.0
C308 C 0.52018 0.72672 0.20974 0.0
C309 C 0.55236 0.73305 0.12193 0.0
N310 N 0.51023 0.78085 0.23404 0.0
N311 N 0.54942 0.75787 0.13972 0.0
H312 H 0.69977 0.55743 0.50065 0.0
H313 H 0.84076 0.52424 0.54347 0.0
H314 H 0.68805 0.48753 0.61081 0.0
H315 H 0.8148 0.53862 0.39738 0.0
H316 H 0.78651 0.51115 0.57219 0.0
H317 H 0.74425 0.55294 0.4644 0.0
C318 C 0.70649 0.54092 0.51682 0.0
C319 C 0.6906 0.52293 0.55865 0.0
C320 C 0.79259 0.51649 0.53367 0.0
C321 C 0.74156 0.51813 0.51833 0.0
C322 C 0.82344 0.52397 0.51733 0.0
C323 C 0.83232 0.53306 0.46824 0.0
C324 C 0.77111 0.51881 0.50074 0.0
C325 C 0.80907 0.5323 0.43574 0.0
C326 C 0.73165 0.53821 0.49608 0.0
C327 C 0.69992 0.50175 0.57839 0.0
N328 N 0.77974 0.52599 0.45278 0.0
N329 N 0.7254 0.50038 0.5586 0.0
H330 H 0.25377 0.79343 0.75224 0.0
H331 H 0.16611 0.67572 0.97984 0.0
H332 H 0.29911 0.8098 0.89499 0.0
H333 H 0.11717 0.68909 0.85663 0.0
H334 H 0.21892 0.71288 0.94084 0.0
H335 H 0.20795 0.74295 0.78209 0.0
C336 C 0.25419 0.78616 0.78984 0.0
C337 C 0.27991 0.80593 0.8215 0.0
C338 C 0.19654 0.70694 0.92192 0.0
C339 C 0.22747 0.74826 0.85597 0.0
C340 C 0.16658 0.68562 0.94382 0.0
C341 C 0.13763 0.67957 0.92102 0.0
C342 C 0.19706 0.72157 0.87686 0.0
C343 C 0.13914 0.69326 0.87505 0.0
C344 C 0.22808 0.75733 0.80679 0.0
C345 C 0.27955 0.79518 0.8696 0.0
N346 N 0.16839 0.71375 0.85454 0.0
N347 N 0.25338 0.76713 0.88574 0.0
H348 H 0.55484 0.18393 0.90883 0.0
H349 H 0.53494 0.20132 0.14851 0.0
H350 H 0.65376 0.2097 0.94107 0.0
H351 H 0.60193 0.16578 0.15645 0.0
H352 H 0.55806 0.22594 0.06877 0.0
H353 H 0.54962 0.19944 0.99211 0.0
C354 C 0.57587 0.1941 0.93294 0.0
C355 C 0.60443 0.19477 0.91881 0.0
C356 C 0.56812 0.21334 0.08851 0.0
C357 C 0.59867 0.21213 1.01412 0.0
C358 C 0.5551 0.19943 0.13402 0.0
C359 C 0.56593 0.18063 0.15795 0.0
C360 C 0.59194 0.20818 0.06724 0.0
C361 C 0.5924 0.1794 0.13833 0.0
C362 C 0.573 0.20317 0.98051 0.0
C363 C 0.63108 0.20828 0.95109 0.0
N364 N 0.60417 0.1925 0.09351 0.0
N365 N 0.62718 0.21532 0.99802 0.0
H366 H 0.44863 0.66807 0.24492 0.0
H367 H 0.43632 0.62484 0.48244 0.0
H368 H 0.37747 0.56639 0.23181 0.0
H369 H 0.33579 0.55317 0.45567 0.0
H370 H 0.43947 0.64681 0.40046 0.0
H371 H 0.42937 0.66772 0.32855 0.0
C372 C 0.42816 0.64597 0.259 0.0
C373 C 0.41514 0.61696 0.23227 0.0
C374 C 0.41627 0.62718 0.41305 0.0
C375 C 0.39372 0.61621 0.32761 0.0
C376 C 0.41459 0.61449 0.45981 0.0
C377 C 0.38595 0.5869 0.47525 0.0
C378 C 0.3893 0.61159 0.38129 0.0
C379 C 0.35843 0.57433 0.44476 0.0
C380 C 0.41747 0.6457 0.30689 0.0
C381 C 0.38856 0.58907 0.25187 0.0
N382 N 0.36108 0.58611 0.39848 0.0
N383 N 0.3791 0.58922 0.29884 0.0
H384 H 0.89541 0.47517 0.84259 0.0
H385 H 0.89897 0.43183 0.59472 0.0
H386 H 0.83085 0.37191 0.82911 0.0
H387 H 0.83186 0.46719 0.6038 0.0
H388 H 0.88712 0.41461 0.6811 0.0
H389 H 0.88503 0.48123 0.75573 0.0
C390 C 0.87819 0.45399 0.82187 0.0
C391 C 0.86387 0.42306 0.84288 0.0
C392 C 0.87437 0.42529 0.66343 0.0
C393 C 0.85304 0.42971 0.74417 0.0
C394 C 0.88099 0.43496 0.61438 0.0
C395 C 0.86629 0.45081 0.59229 0.0
C396 C 0.85371 0.43238 0.69046 0.0
C397 C 0.8435 0.45481 0.61952 0.0
C398 C 0.87244 0.45743 0.77253 0.0
C399 C 0.84215 0.39622 0.81427 0.0
N400 N 0.8386 0.44655 0.66787 0.0
N401 N 0.83815 0.40002 0.76571 0.0
H402 H 0.42094 0.79118 0.9086 0.0
H403 H 0.3715 0.81216 0.16256 0.0
H404 H 0.32271 0.76878 0.93709 0.0
H405 H 0.44536 0.78631 0.14312 0.0
H406 H 0.34792 0.78717 0.08324 0.0
H407 H 0.42583 0.7788 0.99413 0.0
C408 C 0.39997 0.78238 0.93248 0.0
C409 C 0.37169 0.78164 0.91632 0.0
C410 C 0.36871 0.78607 0.09692 0.0
C411 C 0.37747 0.76885 1.0144 0.0
C412 C 0.38222 0.80047 0.1421 0.0
C413 C 0.41078 0.80192 0.1586 0.0
C414 C 0.38448 0.77392 0.06772 0.0
C415 C 0.4236 0.78616 0.13112 0.0
C416 C 0.40275 0.77543 0.9814 0.0
C417 C 0.34512 0.77003 0.94847 0.0
N418 N 0.41089 0.77358 0.08628 0.0
N419 N 0.34904 0.7652 0.99662 0.0
H420 H 0.5351 0.32338 0.2549 0.0
H421 H 0.54706 0.36746 0.49074 0.0
H422 H 0.60365 0.42592 0.24405 0.0
H423 H 0.64822 0.43767 0.46569 0.0
H424 H 0.54422 0.34464 0.40951 0.0
H425 H 0.55561 0.3235 0.33761 0.0
C426 C 0.55517 0.34571 0.26935 0.0
C427 C 0.56706 0.37497 0.24366 0.0
C428 C 0.56748 0.36409 0.42246 0.0
C429 C 0.59007 0.37526 0.33764 0.0
C430 C 0.56897 0.37726 0.46874 0.0
C431 C 0.59766 0.40484 0.48412 0.0
C432 C 0.59465 0.3793 0.3912 0.0
C433 C 0.62547 0.41663 0.4546 0.0
C434 C 0.56668 0.34575 0.31655 0.0
C435 C 0.59333 0.40307 0.26343 0.0
N436 N 0.62298 0.40453 0.40863 0.0
N437 N 0.60359 0.40267 0.30983 0.0
H438 H 0.03629 0.5315 0.78827 0.0
H439 H 0.15025 0.5323 0.59092 0.0
H440 H 0.13886 0.58747 0.82241 0.0
H441 H 0.07214 0.54961 0.55438 0.0
H442 H 0.15001 0.5503 0.67533 0.0
H443 H 0.04969 0.53051 0.70221 0.0
C444 C 0.06167 0.5431 0.77776 0.0
C445 C 0.08655 0.55959 0.81229 0.0
C446 C 0.13375 0.55116 0.64825 0.0
C447 C 0.10193 0.55888 0.71401 0.0
C448 C 0.13396 0.5411 0.60016 0.0
C449 C 0.11059 0.53874 0.56627 0.0
C450 C 0.10964 0.55814 0.662 0.0
C451 C 0.09014 0.55053 0.57976 0.0
C452 C 0.06926 0.54299 0.7286 0.0
C453 C 0.11905 0.57441 0.79665 0.0
N454 N 0.08939 0.55876 0.6272 0.0
N455 N 0.12594 0.57355 0.74831 0.0
H456 H 0.39864 0.97717 0.89184 0.0
H457 H 0.40228 0.98183 0.18838 0.0
H458 H 0.37725 0.89358 0.97922 0.0
H459 H 0.45915 0.06735 0.10077 0.0
H460 H 0.386 0.94895 0.11271 0.0
H461 H 0.41392 0.01006 0.96747 0.0
C462 C 0.39688 0.96556 0.9268 0.0
C463 C 0.38653 0.93226 0.92847 0.0
C464 C 0.40196 0.97493 0.10998 0.0
C465 C 0.4038 0.97018 1.01631 0.0
C466 C 0.41118 -0.00615 0.15336 0.0
C467 C 0.43226 0.02771 0.15162 0.0
C468 C 0.41316 0.98976 0.06374 0.0
C469 C 0.44299 0.04147 0.10453 0.0
C470 C 0.4058 0.9845 0.97014 0.0
C471 C 0.38512 0.91903 0.97548 0.0
N472 N 0.43323 0.02266 0.0629 0.0
N473 N 0.39334 0.93779 1.01709 0.0
H474 H 0.46568 0.3843 0.30098 0.0
H475 H 0.38594 0.48057 0.42412 0.0
H476 H 0.40757 0.41313 0.21744 0.0
H477 H 0.41203 0.42105 0.50907 0.0
H478 H 0.39824 0.46083 0.34845 0.0
H479 H 0.451 0.40188 0.37658 0.0
C480 C 0.44979 0.39429 0.29828 0.0
C481 C 0.43789 0.39699 0.25203 0.0
C482 C 0.40123 0.45199 0.38358 0.0
C483 C 0.4212 0.41795 0.33981 0.0
C484 C 0.39429 0.46338 0.42712 0.0
C485 C 0.39781 0.4526 0.47379 0.0
C486 C 0.41254 0.42994 0.38594 0.0
C487 C 0.40871 0.43011 0.47441 0.0
C488 C 0.44133 0.4043 0.3418 0.0
C489 C 0.4173 0.41024 0.25181 0.0
N490 N 0.41589 0.41987 0.43156 0.0
N491 N 0.40994 0.42041 0.29459 0.0
H492 H 0.967 0.35704 0.55882 0.0
H493 H 0.00116 0.36786 0.85181 0.0
H494 H 0.06332 0.4036 0.62158 0.0
H495 H 0.91184 0.35354 0.78838 0.0
H496 H 0.02196 0.36967 0.76803 0.0
H497 H 0.94411 0.34397 0.64263 0.0
C498 C 0.98332 0.36369 0.59002 0.0
C499 C 0.01719 0.38129 0.58286 0.0
C500 C -0.00237 0.36571 0.77255 0.0
C501 C -0.00886 0.36668 0.67931 0.0
C502 C 0.98566 0.36442 0.82048 0.0
C503 C 0.95468 0.36061 0.8275 0.0
C504 C 0.97832 0.36257 0.73113 0.0
C505 C 0.93593 0.35671 0.78506 0.0
C506 C 0.97027 0.35657 0.63799 0.0
C507 C 0.03708 0.38992 0.62513 0.0
N508 N 0.94795 0.3578 0.73911 0.0
N509 N 0.02387 0.38263 0.67117 0.0
H510 H 0.49243 0.9448 0.13505 0.0
H511 H 0.6257 0.0329 0.92489 0.0
H512 H 0.59201 0.97157 0.16271 0.0
H513 H 0.55184 0.05778 0.95089 0.0
H514 H 0.61018 0.00186 1.00261 0.0
H515 H 0.50972 0.97727 0.05926 0.0
C516 C 0.51797 0.95743 0.12528 0.0
C517 C 0.5407 0.95536 0.15609 0.0
C518 C 0.59738 0.01411 0.99125 0.0
C519 C 0.56072 0.99225 0.06735 0.0
C520 C 0.60612 0.03176 0.94661 0.0
C521 C 0.59023 0.0483 0.93077 0.0
C522 C 0.57171 0.01185 1.02003 0.0
C523 C 0.56505 0.04576 0.96122 0.0
C524 C 0.52784 0.97609 0.08184 0.0
C525 C 0.57352 0.97251 0.14077 0.0
N526 N 0.5564 0.02774 1.00357 0.0
N527 N 0.58241 0.98974 0.09749 0.0
H528 H 0.57943 0.57688 0.50869 0.0
H529 H 0.5768 0.57597 0.21208 0.0
H530 H 0.59983 0.51318 0.42383 0.0
H531 H 0.5202 0.60529 0.29815 0.0
H532 H 0.59249 0.55951 0.28841 0.0
H533 H 0.5649 0.59417 0.43218 0.0
C534 C 0.58116 0.56665 0.47409 0.0
C535 C 0.59097 0.54336 0.47339 0.0
C536 C 0.57668 0.56961 0.29062 0.0
C537 C 0.57454 0.56361 0.3845 0.0
C538 C 0.56777 0.57919 0.24687 0.0
C539 C 0.54695 0.59213 0.24797 0.0
C540 C 0.56544 0.57354 0.3366 0.0
C541 C 0.53611 0.59538 0.29482 0.0
C542 C 0.57266 0.57647 0.43023 0.0
C543 C 0.59236 0.53104 0.42679 0.0
N544 N 0.54559 0.58647 0.33679 0.0
N545 N 0.58454 0.54139 0.38465 0.0
H546 H 0.0693 0.65665 0.79486 0.0
H547 H 0.90881 0.57792 0.63421 0.0
H548 H 0.97518 0.62444 0.85887 0.0
H549 H 0.00335 0.63877 0.57022 0.0
H550 H 0.93222 0.59689 0.7161 0.0
H551 H 0.04622 0.6531 0.71305 0.0
C552 C 0.0439 0.64968 0.79181 0.0
C553 C 0.02428 0.64121 0.83409 0.0
C554 C 0.94782 0.6067 0.68425 0.0
C555 C -0.00281 0.63583 0.7396 0.0
C556 C 0.93442 0.59596 0.63731 0.0
C557 C 0.95403 0.60698 0.59501 0.0
C558 C 0.98144 0.6281 0.68955 0.0
C559 C 0.98718 0.62998 0.60157 0.0
C560 C 0.03067 0.64748 0.7449 0.0
C561 C -0.00863 0.63175 0.82756 0.0
N562 N -9e-05 0.6393 0.64786 0.0
N563 N 0.97877 0.62875 0.78128 0.0
H564 H 0.44386 0.0135 0.34147 0.0
H565 H 0.52937 0.96216 0.35929 0.0
H566 H 0.54419 0.07275 0.38408 0.0
H567 H 0.42717 0.90459 0.39019 0.0
H568 H 0.5366 -0.00648 0.43284 0.0
H569 H 0.43365 0.98129 0.41461 0.0
C570 C 0.46372 0.01982 0.36661 0.0
C571 C 0.49518 0.04446 0.35516 0.0
C572 C 0.51234 0.9739 0.42399 0.0
C573 C 0.485 0.0042 0.43452 0.0
C574 C 0.50844 0.95622 0.38144 0.0
C575 C 0.4773 0.93289 0.36577 0.0
C576 C 0.48455 0.97323 0.44279 0.0
C577 C 0.45118 0.92503 0.39756 0.0
C578 C 0.45807 0.00146 0.40877 0.0
C579 C 0.52002 0.05212 0.38946 0.0
N580 N 0.45533 0.9455 0.43524 0.0
N581 N 0.51463 0.03149 0.42733 0.0
H582 H 0.42099 0.46598 0.67222 0.0
H583 H 0.56687 0.5385 0.65877 0.0
H584 H 0.47631 0.56844 0.69912 0.0
H585 H 0.5149 0.43961 0.7083 0.0
H586 H 0.54492 0.55391 0.72629 0.0
H587 H 0.4473 0.45686 0.74098 0.0
C588 C 0.43864 0.48656 0.69288 0.0
C589 C 0.4482 0.51796 0.67755 0.0
C590 C 0.53833 0.52872 0.72336 0.0
C591 C 0.48256 0.50817 0.75068 0.0
C592 C 0.55108 0.52006 0.68445 0.0
C593 C 0.54125 0.48758 0.67625 0.0
C594 C 0.51141 0.50407 0.74849 0.0
C595 C 0.52099 0.46464 0.71096 0.0
C596 C 0.45376 0.48157 0.73269 0.0
C597 C 0.47038 0.54386 0.70689 0.0
N598 N 0.50589 0.47316 0.74516 0.0
N599 N 0.48762 0.53851 0.74175 0.0
H600 H 0.9752 0.41863 0.08174 0.0
H601 H 0.93823 0.51622 0.9869 0.0
H602 H 0.0228 0.48799 0.96601 0.0
H603 H 0.00818 0.59355 0.07568 0.0
H604 H 0.93794 0.47779 0.04474 0.0
H605 H 0.97467 0.46066 0.132 0.0
C606 C 0.98719 0.44313 0.06773 0.0
C607 C -0.005 0.44931 1.01737 0.0
C608 C 0.95297 0.50333 0.05326 0.0
C609 C -0.00182 0.49765 0.07644 0.0
C610 C 0.95297 0.52552 1.01983 0.0
C611 C 0.97867 0.55767 1.0215 0.0
C612 C 0.97986 0.51426 0.08521 0.0
C613 C -0.00626 0.56806 0.06747 0.0
C614 C 0.98722 0.46712 0.09703 0.0
C615 C 0.0138 0.48166 1.00327 0.0
N616 N -0.00277 0.5465 0.09566 0.0
N617 N 0.014 0.50476 1.03243 0.0
H618 H -0.00116 0.42329 0.34171 0.0
H619 H 0.02994 0.55863 0.48493 0.0
H620 H 0.95363 0.43358 0.47126 0.0
H621 H 0.98535 0.57415 0.35873 0.0
H622 H 0.03623 0.51893 0.43805 0.0
H623 H 0.00784 0.47532 0.31159 0.0
C624 C 0.98872 0.43542 0.36255 0.0
C625 C 0.9806 0.42776 0.4126 0.0
C626 C 0.02603 0.53191 0.41975 0.0
C627 C 0.9869 0.48382 0.37636 0.0
C628 C 0.02284 0.55498 0.44654 0.0
C629 C 0.00261 0.56566 0.42767 0.0
C630 C 0.00703 0.51911 0.37691 0.0
C631 C -0.00294 0.56248 0.3765 0.0
C632 C -0.00574 0.46527 0.34521 0.0
C633 C 0.96375 0.44117 0.4348 0.0
N634 N -0.00441 0.5365 0.35381 0.0
N635 N 0.96904 0.47003 0.41777 0.0
H636 H 0.40673 0.92723 0.6954 0.0
H637 H 0.58235 0.04615 0.71569 0.0
H638 H 0.48628 0.92497 0.76734 0.0
H639 H 0.5038 0.06548 0.71463 0.0
H640 H 0.55265 0.00136 0.65942 0.0
H641 H 0.44485 0.96837 0.63927 0.0
C642 C 0.43224 0.93518 0.69915 0.0
C643 C 0.44386 0.92474 0.73841 0.0
C644 C 0.54226 0.01609 0.66983 0.0
C645 C 0.48714 0.97065 0.67316 0.0
C646 C 0.55895 0.04104 0.70321 0.0
C647 C 0.5442 0.05723 0.72341 0.0
C648 C 0.50921 0.005 0.66248 0.0
C649 C 0.51481 0.05154 0.70313 0.0
C650 C 0.4538 0.95794 0.66605 0.0
C651 C 0.4767 0.93413 0.73955 0.0
N652 N 0.49754 0.02496 0.67443 0.0
N653 N 0.49741 0.95714 0.70786 0.0
H654 H 0.52313 0.57659 1.01265 0.0
H655 H 0.44777 0.40553 1.03727 0.0
H656 H 0.43216 0.5016 0.07209 0.0
H657 H 0.54971 0.47559 1.03238 0.0
H658 H 0.43808 0.43268 0.97015 0.0
H659 H 0.5222 0.5385 0.95275 0.0
C660 C 0.50281 0.55208 1.01293 0.0
C661 C 0.4792 0.54117 0.05016 0.0
C662 C 0.46288 0.44179 0.98255 0.0
C663 C 0.47769 0.498 0.98111 0.0
C664 C 0.46806 0.42663 1.02203 0.0
C665 C 0.49886 0.43997 0.04357 0.0
C666 C 0.48725 0.47361 0.97233 0.0
C667 C 0.5249 0.46627 1.0201 0.0
C668 C 0.50181 0.53067 0.9776 0.0
C669 C 0.45219 0.51012 0.04643 0.0
N670 N 0.51845 0.483 0.98593 0.0
N671 N 0.4524 0.48933 1.01291 0.0
H672 H 0.38819 -0.00017 0.68691 0.0
H673 H 0.35464 0.97145 0.40646 0.0
H674 H 0.30129 0.91473 0.63512 0.0
H675 H 0.39465 0.06753 0.46726 0.0
H676 H 0.33658 0.94887 0.48932 0.0
H677 H 0.39347 0.02522 0.60637 0.0
C678 C 0.36983 0.98685 0.65901 0.0
C679 C 0.34428 0.95522 0.66757 0.0
C680 C 0.34876 0.97487 0.48415 0.0
C681 C 0.35076 0.98346 0.57538 0.0
C682 C 0.35899 0.98768 0.43701 0.0
C683 C 0.37609 0.02132 0.43013 0.0
C684 C 0.35653 -0.00406 0.52449 0.0
C685 C 0.38147 0.04141 0.47099 0.0
C686 C 0.37288 0.00125 0.61312 0.0
C687 C 0.32132 0.93923 0.63001 0.0
N688 N 0.37229 0.02845 0.5166 0.0
N689 N 0.32547 0.95324 0.58513 0.0
H690 H 0.35835 0.38058 1.00846 0.0
H691 H 0.37605 0.3738 0.72124 0.0
H692 H 0.38339 0.31486 0.93975 0.0
H693 H 0.31797 0.4096 0.78708 0.0
H694 H 0.37732 0.35015 0.80067 0.0
H695 H 0.341 0.38978 0.92808 0.0
C696 C 0.3594 0.36748 0.9767 0.0
C697 C 0.37243 0.34708 0.98062 0.0
C698 C 0.3638 0.36268 0.79748 0.0
C699 C 0.35355 0.35806 0.88865 0.0
C700 C 0.36306 0.37611 0.75216 0.0
C701 C 0.34702 0.39373 0.74776 0.0
C702 C 0.34888 0.36748 0.83868 0.0
C703 C 0.33071 0.39623 0.78899 0.0
C704 C 0.34966 0.37282 0.9308 0.0
C705 C 0.37358 0.33091 0.93826 0.0
N706 N 0.33248 0.38371 0.83292 0.0
N707 N 0.36483 0.33717 0.8939 0.0
H708 H 0.02037 0.34433 0.06346 0.0
H709 H 0.96919 0.30128 0.32858 0.0
H710 H 0.92321 0.26962 0.10242 0.0
H711 H 0.06959 0.34556 0.28399 0.0
H712 H 0.95247 0.27799 0.24644 0.0
H713 H 0.04056 0.33434 0.14003 0.0
C714 C 0.00347 0.32511 0.0875 0.0
C715 C 0.97003 0.30848 0.07763 0.0
C716 C 0.97821 0.29195 0.25495 0.0
C717 C -0.00741 0.29757 0.16576 0.0
C718 C 0.9877 0.30526 0.30189 0.0
C719 C 0.02071 0.32617 0.31228 0.0
C720 C 0.00194 0.30043 0.21822 0.0
C721 C 0.0438 0.33021 0.27683 0.0
C722 C 0.01495 0.31936 0.13129 0.0
C723 C 0.94914 0.28351 0.10943 0.0
N724 N 0.03397 0.31826 0.23081 0.0
N725 N 0.96061 0.27948 0.15298 0.0
H726 H 0.67915 0.08252 0.62251 0.0
H727 H 0.58946 0.91823 0.46729 0.0
H728 H 0.61426 0.98932 0.6872 0.0
H729 H 0.6209 0.01247 0.40515 0.0
H730 H 0.61153 0.94372 0.54698 0.0
H731 H 0.67122 0.05642 0.54234 0.0
C732 C 0.66387 0.05642 0.62009 0.0
C733 C 0.64717 0.03803 0.66152 0.0
C734 C 0.61404 0.95884 0.51573 0.0
C735 C 0.63789 0.00813 0.5698 0.0
C736 C 0.60163 0.94439 0.47017 0.0
C737 C 0.60326 0.96332 0.42963 0.0
C738 C 0.6285 0.99252 0.52072 0.0
C739 C 0.61915 -0.00296 0.4355 0.0
C740 C 0.65919 0.04162 0.57423 0.0
C741 C 0.62759 0.00435 0.65619 0.0
N742 N 0.63102 0.01058 0.48035 0.0
N743 N 0.62325 0.99047 0.61099 0.0
H744 H 0.61231 0.58786 1.00558 0.0
H745 H 0.6217 0.62564 0.72767 0.0
H746 H 0.62209 0.67835 0.95776 0.0
H747 H 0.67386 0.58102 0.78616 0.0
H748 H 0.61893 0.64395 0.81104 0.0
H749 H 0.63265 0.58261 0.9252 0.0
C750 C 0.61948 0.60695 0.97864 0.0
C751 C 0.61552 0.63352 0.98818 0.0
C752 C 0.63158 0.63074 0.80526 0.0
C753 C 0.63758 0.62718 0.89622 0.0
C754 C 0.6332 0.62039 0.75782 0.0
C755 C 0.648 0.60184 0.75015 0.0
C756 C 0.64403 0.62163 0.84512 0.0
C757 C 0.66224 0.59532 0.79052 0.0
C758 C 0.63098 0.60394 0.93285 0.0
C759 C 0.62482 0.65747 0.95185 0.0
N760 N 0.6593 0.60459 0.83648 0.0
N761 N 0.63474 0.65339 0.907 0.0
H762 H 0.07651 0.71421 0.1338 0.0
H763 H 0.92585 0.65676 0.31027 0.0
H764 H 0.97563 0.66042 0.08984 0.0
H765 H 0.02185 0.67896 0.3553 0.0
H766 H 0.94804 0.68236 0.23086 0.0
H767 H 0.06002 0.72478 0.21361 0.0
C768 C 0.05096 0.70544 0.14047 0.0
C769 C 0.02723 0.68564 0.10603 0.0
C770 C 0.96442 0.68258 0.25875 0.0
C771 C 0.00836 0.69759 0.19668 0.0
C772 C 0.95182 0.66811 0.30412 0.0
C773 C 0.97198 0.66492 0.3385 0.0
C774 C -0.00273 0.6938 0.24815 0.0
C775 C 0.00543 0.68029 0.32909 0.0
C776 C 0.0416 0.71149 0.18594 0.0
C777 C -0.00544 0.67518 0.11604 0.0
N778 N 0.01698 0.69346 0.28421 0.0
N779 N 0.98598 0.68076 0.16094 0.0
H780 H 0.47735 0.10862 0.46786 0.0
H781 H 0.62919 0.12374 0.60994 0.0
H782 H 0.56846 0.14302 0.39232 0.0
H783 H 0.56424 0.14878 0.68149 0.0
H784 H 0.6051 0.12455 0.53015 0.0
H785 H 0.5058 0.11683 0.54676 0.0
C786 C 0.50343 0.11835 0.46781 0.0
C787 C 0.52053 0.1256 0.42311 0.0
C788 C 0.59647 0.13034 0.56326 0.0
C789 C 0.55316 0.13391 0.51376 0.0
C790 C 0.61027 0.12998 0.60887 0.0
C791 C 0.59923 0.1368 0.65271 0.0
C792 C 0.57052 0.13642 0.56128 0.0
C793 C 0.5741 0.14405 0.64879 0.0
C794 C 0.51964 0.12298 0.51295 0.0
C795 C 0.5543 0.13767 0.42568 0.0
N796 N 0.56031 0.14315 0.60422 0.0
N797 N 0.56935 0.14094 0.46999 0.0
H798 H 0.3636 0.49968 0.79056 0.0
H799 H 0.51148 0.64433 0.92957 0.0
H800 H 0.4262 0.58891 0.71434 0.0
H801 H 0.42093 0.58351 1.00453 0.0
H802 H 0.48365 0.62267 0.85043 0.0
H803 H 0.38655 0.52733 0.86919 0.0
C804 C 0.38175 0.52525 0.79034 0.0
C805 C 0.39245 0.54205 0.7455 0.0
C806 C 0.46974 0.61449 0.88415 0.0
C807 C 0.41996 0.57368 0.83589 0.0
C808 C 0.48559 0.62698 0.92941 0.0
C809 C 0.4685 0.61631 0.97408 0.0
C810 C 0.43668 0.59019 0.8832 0.0
C811 C 0.43506 0.59309 0.97126 0.0
C812 C 0.39493 0.54101 0.83534 0.0
C813 C 0.41661 0.57508 0.74783 0.0
N814 N 0.42047 0.58048 0.92692 0.0
N815 N 0.42987 0.58961 0.79198 0.0
H816 H 0.88034 0.43552 0.07172 0.0
H817 H 0.90308 0.45517 0.36479 0.0
H818 H 0.91586 0.38361 0.15654 0.0
H819 H 0.90418 0.52881 0.27221 0.0
H820 H 0.90075 0.42444 0.29106 0.0
H821 H 0.88146 0.46499 0.14598 0.0
C822 C 0.888 0.42988 0.10598 0.0
C823 C 0.89804 0.40678 0.10723 0.0
C824 C 0.90131 0.44722 0.2868 0.0
C825 C 0.89904 0.44074 0.1936 0.0
C826 C 0.90243 0.46478 0.32903 0.0
C827 C 0.90352 0.4947 0.32516 0.0
C828 C 0.90059 0.45909 0.23977 0.0
C829 C 0.90323 0.50592 0.27737 0.0
C830 C 0.88882 0.44701 0.14851 0.0
C831 C 0.90778 0.40099 0.1533 0.0
N832 N 0.90152 0.48809 0.23686 0.0
N833 N 0.90792 0.41767 0.19438 0.0
H834 H 0.49927 0.87173 0.47145 0.0
H835 H 0.34115 0.84329 0.60983 0.0
H836 H 0.40766 0.83184 0.39471 0.0
H837 H 0.41296 0.82952 0.6848 0.0
H838 H 0.36615 0.84321 0.53082 0.0
H839 H 0.47011 0.86112 0.55 0.0
C840 C 0.47299 0.86029 0.47103 0.0
C841 C 0.45597 0.85227 0.42606 0.0
C842 C 0.37608 0.83958 0.56447 0.0
C843 C 0.42239 0.84103 0.51637 0.0
C844 C 0.36167 0.83941 0.60964 0.0
C845 C 0.37442 0.83565 0.65423 0.0
C846 C 0.40431 0.83717 0.56358 0.0
C847 C 0.40172 0.83166 0.65149 0.0
C848 C 0.45634 0.85427 0.51599 0.0
C849 C 0.42186 0.83794 0.42822 0.0
N850 N 0.41602 0.83308 0.60723 0.0
N851 N 0.40634 0.83327 0.47234 0.0
H852 H 0.55842 0.40776 0.71626 0.0
H853 H 0.56599 0.41508 1.0102 0.0
H854 H 0.61886 0.49737 0.79359 0.0
H855 H 0.4759 0.35473 0.9331 0.0
H856 H 0.59255 0.4384 0.93115 0.0
H857 H 0.53493 0.38119 0.79524 0.0
C858 C 0.56734 0.42172 0.74986 0.0
C859 C 0.591 0.45489 0.74804 0.0
C860 C 0.5671 0.41969 0.93152 0.0
C861 C 0.56416 0.42435 0.83897 0.0
C862 C 0.55196 0.40603 0.97662 0.0
C863 C 0.51866 0.38245 0.97852 0.0
C864 C 0.54914 0.40924 0.88752 0.0
C865 C 0.50165 0.37253 0.93356 0.0
C866 C 0.55364 0.40657 0.79492 0.0
C867 C 0.6009 0.47177 0.79303 0.0
N868 N 0.51706 0.38574 0.89007 0.0
N869 N 0.58767 0.45633 0.83649 0.0
H870 H 0.08603 0.5288 0.34867 0.0
H871 H 0.08408 0.53781 0.05395 0.0
H872 H 0.06967 0.44831 0.25702 0.0
H873 H 0.0686 0.60122 0.14826 0.0
H874 H 0.0853 0.50814 0.12661 0.0
H875 H 0.08619 0.55838 0.27551 0.0
C876 C 0.08293 0.51735 0.31314 0.0
C877 C 0.07819 0.48583 0.30958 0.0
C878 C 0.08181 0.52864 0.13149 0.0
C879 C 0.07835 0.52029 0.22436 0.0
C880 C 0.08128 0.54586 0.08986 0.0
C881 C 0.07619 0.57235 0.09437 0.0
C882 C 0.07795 0.53815 0.17872 0.0
C883 C 0.07265 0.58116 0.14242 0.0
C884 C 0.08278 0.53436 0.27117 0.0
C885 C 0.07367 0.47251 0.26199 0.0
N886 N 0.07371 0.56429 0.18237 0.0
N887 N 0.07406 0.48979 0.22147 0.0
loop_
_geom_bond_atom_site_label_1
_geom_bond_atom_site_label_2
_geom_bond_distance
_geom_bond_site_symmetry_2
_ccdc_geom_bond_type
Dy0 O4 2.398 . S
Dy0 O5 2.491 . S
Dy0 O6 2.403 . S
Dy0 O7 2.664 . S
Dy0 O11 2.326 . S
Dy0 O15 2.310 . S
Dy0 O16 2.351 . S
C1 O12 1.185 . S
C1 O13 1.355 . S
C2 O4 1.185 . S
C2 O5 1.355 . S
Dy3 O7 2.310 . S
Dy3 O10 2.351 . S
Dy3 O12 2.398 . S
Dy3 O13 2.491 . S
Dy3 O14 2.403 . S
Dy3 O15 2.664 . S
Dy3 O17 2.326 . S
O4 Dy0 2.398 . S
O4 C2 1.185 . S
O5 Dy0 2.491 . S
O5 C2 1.355 . S
O6 Dy0 2.403 . S
O6 C8 1.254 . S
O7 Dy0 2.664 . S
O7 Dy3 2.310 . S
O7 C8 1.268 . S
C8 O6 1.254 . S
C8 O7 1.268 . S
C9 O14 1.254 . S
C9 O15 1.268 . S
O10 Dy3 2.351 . S
O10 C18 1.249 . S
O11 Dy0 2.326 . S
O11 C18 1.267 . S
O12 C1 1.185 . S
O12 Dy3 2.398 . S
O13 C1 1.355 . S
O13 Dy3 2.491 . S
O14 Dy3 2.403 . S
O14 C9 1.254 . S
O15 Dy0 2.310 . S
O15 Dy3 2.664 . S
O15 C9 1.268 . S
O16 Dy0 2.351 . S
O16 C19 1.249 . S
O17 Dy3 2.326 . S
O17 C19 1.267 . S
C18 O10 1.249 . S
C18 O11 1.267 . S
C19 O16 1.249 . S
C19 O17 1.267 . S
Dy20 O24 2.398 . S
Dy20 O25 2.491 . S
Dy20 O26 2.403 . S
Dy20 O27 2.664 . S
Dy20 O31 2.326 . S
Dy20 O35 2.310 . S
Dy20 O36 2.351 . S
C21 O32 1.185 . S
C21 O33 1.355 . S
C22 O24 1.185 . S
C22 O25 1.355 . S
Dy23 O27 2.310 . S
Dy23 O30 2.351 . S
Dy23 O32 2.398 . S
Dy23 O33 2.491 . S
Dy23 O34 2.403 . S
Dy23 O35 2.664 . S
Dy23 O37 2.326 . S
O24 Dy20 2.398 . S
O24 C22 1.185 . S
O25 Dy20 2.491 . S
O25 C22 1.355 . S
O26 Dy20 2.403 . S
O26 C28 1.254 . S
O27 Dy20 2.664 . S
O27 Dy23 2.310 . S
O27 C28 1.268 . S
C28 O26 1.254 . S
C28 O27 1.268 . S
C29 O34 1.254 . S
C29 O35 1.268 . S
O30 Dy23 2.351 . S
O30 C38 1.249 . S
O31 Dy20 2.326 . S
O31 C38 1.267 . S
O32 C21 1.185 . S
O32 Dy23 2.398 . S
O33 C21 1.355 . S
O33 Dy23 2.491 . S
O34 Dy23 2.403 . S
O34 C29 1.254 . S
O35 Dy20 2.310 . S
O35 Dy23 2.664 . S
O35 C29 1.268 . S
O36 Dy20 2.351 . S
O36 C39 1.249 . S
O37 Dy23 2.326 . S
O37 C39 1.267 . S
C38 O30 1.249 . S
C38 O31 1.267 . S
C39 O36 1.249 . S
C39 O37 1.267 . S
Dy40 O44 2.398 1_556 S
Dy40 O45 2.491 1_556 S
Dy40 O46 2.403 . S
Dy40 O47 2.664 . S
Dy40 O51 2.326 . S
Dy40 O55 2.310 . S
Dy40 O56 2.351 . S
C41 O52 1.185 . S
C41 O53 1.355 . S
C42 O44 1.185 . S
C42 O45 1.355 . S
Dy43 O47 2.310 . S
Dy43 O50 2.351 . S
Dy43 O52 2.398 . S
Dy43 O53 2.491 . S
Dy43 O54 2.403 . S
Dy43 O55 2.664 . S
Dy43 O57 2.326 . S
O44 Dy40 2.398 1_554 S
O44 C42 1.185 . S
O45 Dy40 2.491 1_554 S
O45 C42 1.355 . S
O46 Dy40 2.403 . S
O46 C48 1.254 . S
O47 Dy40 2.664 . S
O47 Dy43 2.310 . S
O47 C48 1.268 . S
C48 O46 1.254 . S
C48 O47 1.268 . S
C49 O54 1.254 . S
C49 O55 1.268 . S
O50 Dy43 2.351 . S
O50 C58 1.249 . S
O51 Dy40 2.326 . S
O51 C58 1.267 . S
O52 C41 1.185 . S
O52 Dy43 2.398 . S
O53 C41 1.355 . S
O53 Dy43 2.491 . S
O54 Dy43 2.403 . S
O54 C49 1.254 . S
O55 Dy40 2.310 . S
O55 Dy43 2.664 . S
O55 C49 1.268 . S
O56 Dy40 2.351 . S
O56 C59 1.249 . S
O57 Dy43 2.326 . S
O57 C59 1.267 . S
C58 O50 1.249 . S
C58 O51 1.267 . S
C59 O56 1.249 . S
C59 O57 1.267 . S
Dy60 O64 2.398 . S
Dy60 O65 2.491 . S
Dy60 O66 2.403 . S
Dy60 O67 2.664 . S
Dy60 O71 2.326 . S
Dy60 O75 2.310 . S
Dy60 O76 2.351 . S
C61 O72 1.185 . S
C61 O73 1.355 . S
C62 O64 1.185 . S
C62 O65 1.355 . S
Dy63 O67 2.310 . S
Dy63 O70 2.351 . S
Dy63 O72 2.398 . S
Dy63 O73 2.491 . S
Dy63 O74 2.403 . S
Dy63 O75 2.664 . S
Dy63 O77 2.326 . S
O64 Dy60 2.398 . S
O64 C62 1.185 . S
O65 Dy60 2.491 . S
O65 C62 1.355 . S
O66 Dy60 2.403 . S
O66 C68 1.254 . S
O67 Dy60 2.664 . S
O67 Dy63 2.310 . S
O67 C68 1.268 . S
C68 O66 1.254 . S
C68 O67 1.268 . S
C69 O74 1.254 . S
C69 O75 1.268 . S
O70 Dy63 2.351 . S
O70 C78 1.249 . S
O71 Dy60 2.326 . S
O71 C78 1.267 . S
O72 C61 1.185 . S
O72 Dy63 2.398 . S
O73 C61 1.355 . S
O73 Dy63 2.491 . S
O74 Dy63 2.403 . S
O74 C69 1.254 . S
O75 Dy60 2.310 . S
O75 Dy63 2.664 . S
O75 C69 1.268 . S
O76 Dy60 2.351 . S
O76 C79 1.249 . S
O77 Dy63 2.326 . S
O77 C79 1.267 . S
C78 O70 1.249 . S
C78 O71 1.267 . S
C79 O76 1.249 . S
C79 O77 1.267 . S
Dy80 O84 2.398 . S
Dy80 O85 2.491 . S
Dy80 O86 2.403 . S
Dy80 O87 2.664 . S
Dy80 O91 2.326 . S
Dy80 O95 2.310 . S
Dy80 O96 2.351 . S
C81 O92 1.185 . S
C81 O93 1.355 . S
C82 O84 1.185 . S
C82 O85 1.355 . S
Dy83 O87 2.310 . S
Dy83 O90 2.351 . S
Dy83 O92 2.398 . S
Dy83 O93 2.491 . S
Dy83 O94 2.403 . S
Dy83 O95 2.664 . S
Dy83 O97 2.326 . S
O84 Dy80 2.398 . S
O84 C82 1.185 . S
O85 Dy80 2.491 . S
O85 C82 1.355 . S
O86 Dy80 2.403 . S
O86 C88 1.254 . S
O87 Dy80 2.664 . S
O87 Dy83 2.310 . S
O87 C88 1.268 . S
C88 O86 1.254 . S
C88 O87 1.268 . S
C89 O94 1.254 . S
C89 O95 1.268 . S
O90 Dy83 2.351 . S
O90 C98 1.249 . S
O91 Dy80 2.326 . S
O91 C98 1.267 . S
O92 C81 1.185 . S
O92 Dy83 2.398 . S
O93 C81 1.355 . S
O93 Dy83 2.491 . S
O94 Dy83 2.403 . S
O94 C89 1.254 . S
O95 Dy80 2.310 . S
O95 Dy83 2.664 . S
O95 C89 1.268 . S
O96 Dy80 2.351 . S
O96 C99 1.249 . S
O97 Dy83 2.326 . S
O97 C99 1.267 . S
C98 O90 1.249 . S
C98 O91 1.267 . S
C99 O96 1.249 . S
C99 O97 1.267 . S
Dy100 O104 2.398 1_556 S
Dy100 O105 2.491 1_556 S
Dy100 O106 2.403 . S
Dy100 O107 2.664 . S
Dy100 O111 2.326 . S
Dy100 O115 2.310 . S
Dy100 O116 2.351 . S
C101 O112 1.185 . S
C101 O113 1.355 . S
C102 O104 1.185 . S
C102 O105 1.355 . S
Dy103 O107 2.310 . S
Dy103 O110 2.351 . S
Dy103 O112 2.398 . S
Dy103 O113 2.491 . S
Dy103 O114 2.403 . S
Dy103 O115 2.664 . S
Dy103 O117 2.326 . S
O104 Dy100 2.398 1_554 S
O104 C102 1.185 . S
O105 Dy100 2.491 1_554 S
O105 C102 1.355 . S
O106 Dy100 2.403 . S
O106 C108 1.254 . S
O107 Dy100 2.664 . S
O107 Dy103 2.310 . S
O107 C108 1.268 . S
C108 O106 1.254 . S
C108 O107 1.268 . S
C109 O114 1.254 . S
C109 O115 1.268 . S
O110 Dy103 2.351 . S
O110 C118 1.249 . S
O111 Dy100 2.326 . S
O111 C118 1.267 . S
O112 C101 1.185 . S
O112 Dy103 2.398 . S
O113 C101 1.355 . S
O113 Dy103 2.491 . S
O114 Dy103 2.403 . S
O114 C109 1.254 . S
O115 Dy100 2.310 . S
O115 Dy103 2.664 . S
O115 C109 1.268 . S
O116 Dy100 2.351 . S
O116 C119 1.249 . S
O117 Dy103 2.326 . S
O117 C119 1.267 . S
C118 O110 1.249 . S
C118 O111 1.267 . S
C119 O116 1.249 . S
C119 O117 1.267 . S
Dy120 O124 2.398 . S
Dy120 O125 2.491 . S
Dy120 O126 2.403 . S
Dy120 O127 2.664 . S
Dy120 O131 2.326 . S
Dy120 O135 2.310 . S
Dy120 O136 2.351 . S
C121 O132 1.185 . S
C121 O133 1.355 . S
C122 O124 1.185 . S
C122 O125 1.355 . S
Dy123 O127 2.310 . S
Dy123 O130 2.351 . S
Dy123 O132 2.398 . S
Dy123 O133 2.491 . S
Dy123 O134 2.403 . S
Dy123 O135 2.664 . S
Dy123 O137 2.326 . S
O124 Dy120 2.398 . S
O124 C122 1.185 . S
O125 Dy120 2.491 . S
O125 C122 1.355 . S
O126 Dy120 2.403 . S
O126 C128 1.254 . S
O127 Dy120 2.664 . S
O127 Dy123 2.310 . S
O127 C128 1.268 . S
C128 O126 1.254 . S
C128 O127 1.268 . S
C129 O134 1.254 . S
C129 O135 1.268 . S
O130 Dy123 2.351 . S
O130 C138 1.249 . S
O131 Dy120 2.326 . S
O131 C138 1.267 . S
O132 C121 1.185 . S
O132 Dy123 2.398 . S
O133 C121 1.355 . S
O133 Dy123 2.491 . S
O134 Dy123 2.403 . S
O134 C129 1.254 . S
O135 Dy120 2.310 . S
O135 Dy123 2.664 . S
O135 C129 1.268 . S
O136 Dy120 2.351 . S
O136 C139 1.249 . S
O137 Dy123 2.326 . S
O137 C139 1.267 . S
C138 O130 1.249 . S
C138 O131 1.267 . S
C139 O136 1.249 . S
C139 O137 1.267 . S
Dy140 O144 2.398 . S
Dy140 O145 2.491 . S
Dy140 O146 2.403 . S
Dy140 O147 2.664 . S
Dy140 O151 2.326 . S
Dy140 O155 2.310 . S
Dy140 O156 2.351 . S
C141 O152 1.185 . S
C141 O153 1.355 . S
C142 O144 1.185 . S
C142 O145 1.355 . S
Dy143 O147 2.310 . S
Dy143 O150 2.351 . S
Dy143 O152 2.398 . S
Dy143 O153 2.491 . S
Dy143 O154 2.403 . S
Dy143 O155 2.664 . S
Dy143 O157 2.326 . S
O144 Dy140 2.398 . S
O144 C142 1.185 . S
O145 Dy140 2.491 . S
O145 C142 1.355 . S
O146 Dy140 2.403 . S
O146 C148 1.254 . S
O147 Dy140 2.664 . S
O147 Dy143 2.310 . S
O147 C148 1.268 . S
C148 O146 1.254 . S
C148 O147 1.268 . S
C149 O154 1.254 . S
C149 O155 1.268 . S
O150 Dy143 2.351 . S
O150 C158 1.249 . S
O151 Dy140 2.326 . S
O151 C158 1.267 . S
O152 C141 1.185 . S
O152 Dy143 2.398 . S
O153 C141 1.355 . S
O153 Dy143 2.491 . S
O154 Dy143 2.403 . S
O154 C149 1.254 . S
O155 Dy140 2.310 . S
O155 Dy143 2.664 . S
O155 C149 1.268 . S
O156 Dy140 2.351 . S
O156 C159 1.249 . S
O157 Dy143 2.326 . S
O157 C159 1.267 . S
C158 O150 1.249 . S
C158 O151 1.267 . S
C159 O156 1.249 . S
C159 O157 1.267 . S
Dy160 O164 2.398 1_554 S
Dy160 O165 2.491 1_554 S
Dy160 O166 2.403 . S
Dy160 O167 2.664 . S
Dy160 O171 2.326 . S
Dy160 O175 2.310 . S
Dy160 O176 2.351 . S
C161 O172 1.185 . S
C161 O173 1.355 . S
C162 O164 1.185 . S
C162 O165 1.355 . S
Dy163 O167 2.310 . S
Dy163 O170 2.351 . S
Dy163 O172 2.398 . S
Dy163 O173 2.491 . S
Dy163 O174 2.403 . S
Dy163 O175 2.664 . S
Dy163 O177 2.326 . S
O164 Dy160 2.398 1_556 S
O164 C162 1.185 . S
O165 Dy160 2.491 1_556 S
O165 C162 1.355 . S
O166 Dy160 2.403 . S
O166 C168 1.254 . S
O167 Dy160 2.664 . S
O167 Dy163 2.310 . S
O167 C168 1.268 . S
C168 O166 1.254 . S
C168 O167 1.268 . S
C169 O174 1.254 . S
C169 O175 1.268 . S
O170 Dy163 2.351 . S
O170 C178 1.249 . S
O171 Dy160 2.326 . S
O171 C178 1.267 . S
O172 C161 1.185 . S
O172 Dy163 2.398 . S
O173 C161 1.355 . S
O173 Dy163 2.491 . S
O174 Dy163 2.403 . S
O174 C169 1.254 . S
O175 Dy160 2.310 . S
O175 Dy163 2.664 . S
O175 C169 1.268 . S
O176 Dy160 2.351 . S
O176 C179 1.249 . S
O177 Dy163 2.326 . S
O177 C179 1.267 . S
C178 O170 1.249 . S
C178 O171 1.267 . S
C179 O176 1.249 . S
C179 O177 1.267 . S
Dy180 O184 2.398 . S
Dy180 O185 2.491 . S
Dy180 O186 2.403 . S
Dy180 O187 2.664 . S
Dy180 O191 2.326 . S
Dy180 O195 2.310 . S
Dy180 O196 2.351 . S
C181 O192 1.185 . S
C181 O193 1.355 . S
C182 O184 1.185 . S
C182 O185 1.355 . S
Dy183 O187 2.310 . S
Dy183 O190 2.351 . S
Dy183 O192 2.398 . S
Dy183 O193 2.491 . S
Dy183 O194 2.403 . S
Dy183 O195 2.664 . S
Dy183 O197 2.326 . S
O184 Dy180 2.398 . S
O184 C182 1.185 . S
O185 Dy180 2.491 . S
O185 C182 1.355 . S
O186 Dy180 2.403 . S
O186 C188 1.254 . S
O187 Dy180 2.664 . S
O187 Dy183 2.310 . S
O187 C188 1.268 . S
C188 O186 1.254 . S
C188 O187 1.268 . S
C189 O194 1.254 . S
C189 O195 1.268 . S
O190 Dy183 2.351 . S
O190 C198 1.249 . S
O191 Dy180 2.326 . S
O191 C198 1.267 . S
O192 C181 1.185 . S
O192 Dy183 2.398 . S
O193 C181 1.355 . S
O193 Dy183 2.491 . S
O194 Dy183 2.403 . S
O194 C189 1.254 . S
O195 Dy180 2.310 . S
O195 Dy183 2.664 . S
O195 C189 1.268 . S
O196 Dy180 2.351 . S
O196 C199 1.249 . S
O197 Dy183 2.326 . S
O197 C199 1.267 . S
C198 O190 1.249 . S
C198 O191 1.267 . S
C199 O196 1.249 . S
C199 O197 1.267 . S
Dy200 O204 2.398 . S
Dy200 O205 2.491 . S
Dy200 O206 2.403 . S
Dy200 O207 2.664 . S
Dy200 O211 2.326 . S
Dy200 O215 2.310 . S
Dy200 O216 2.351 . S
C201 O212 1.185 . S
C201 O213 1.355 . S
C202 O204 1.185 . S
C202 O205 1.355 . S
Dy203 O207 2.310 . S
Dy203 O210 2.351 . S
Dy203 O212 2.398 . S
Dy203 O213 2.491 . S
Dy203 O214 2.403 . S
Dy203 O215 2.664 . S
Dy203 O217 2.326 . S
O204 Dy200 2.398 . S
O204 C202 1.185 . S
O205 Dy200 2.491 . S
O205 C202 1.355 . S
O206 Dy200 2.403 . S
O206 C208 1.254 . S
O207 Dy200 2.664 . S
O207 Dy203 2.310 . S
O207 C208 1.268 . S
C208 O206 1.254 . S
C208 O207 1.268 . S
C209 O214 1.254 . S
C209 O215 1.268 . S
O210 Dy203 2.351 . S
O210 C218 1.249 . S
O211 Dy200 2.326 . S
O211 C218 1.267 . S
O212 C201 1.185 . S
O212 Dy203 2.398 . S
O213 C201 1.355 . S
O213 Dy203 2.491 . S
O214 Dy203 2.403 . S
O214 C209 1.254 . S
O215 Dy200 2.310 . S
O215 Dy203 2.664 . S
O215 C209 1.268 . S
O216 Dy200 2.351 . S
O216 C219 1.249 . S
O217 Dy203 2.326 . S
O217 C219 1.267 . S
C218 O210 1.249 . S
C218 O211 1.267 . S
C219 O216 1.249 . S
C219 O217 1.267 . S
Dy220 O224 2.398 1_554 S
Dy220 O225 2.491 1_554 S
Dy220 O226 2.403 . S
Dy220 O227 2.664 . S
Dy220 O231 2.326 . S
Dy220 O235 2.310 . S
Dy220 O236 2.351 . S
C221 O232 1.185 . S
C221 O233 1.355 . S
C222 O224 1.185 . S
C222 O225 1.355 . S
Dy223 O227 2.310 . S
Dy223 O230 2.351 . S
Dy223 O232 2.398 . S
Dy223 O233 2.491 . S
Dy223 O234 2.403 . S
Dy223 O235 2.664 . S
Dy223 O237 2.326 . S
O224 Dy220 2.398 1_556 S
O224 C222 1.185 . S
O225 Dy220 2.491 1_556 S
O225 C222 1.355 . S
O226 Dy220 2.403 . S
O226 C228 1.254 . S
O227 Dy220 2.664 . S
O227 Dy223 2.310 . S
O227 C228 1.268 . S
C228 O226 1.254 . S
C228 O227 1.268 . S
C229 O234 1.254 . S
C229 O235 1.268 . S
O230 Dy223 2.351 . S
O230 C238 1.249 . S
O231 Dy220 2.326 . S
O231 C238 1.267 . S
O232 C221 1.185 . S
O232 Dy223 2.398 . S
O233 C221 1.355 . S
O233 Dy223 2.491 . S
O234 Dy223 2.403 . S
O234 C229 1.254 . S
O235 Dy220 2.310 . S
O235 Dy223 2.664 . S
O235 C229 1.268 . S
O236 Dy220 2.351 . S
O236 C239 1.249 . S
O237 Dy223 2.326 . S
O237 C239 1.267 . S
C238 O230 1.249 . S
C238 O231 1.267 . S
C239 O236 1.249 . S
C239 O237 1.267 . S
H240 C246 0.930 . S
H241 C250 0.930 . S
H242 C255 0.929 . S
H243 C253 0.929 . S
H244 C248 0.929 . S
H245 C254 0.929 . S
C246 H240 0.930 . S
C246 C247 1.367 . S
C246 C254 1.378 . S
C247 C246 1.367 . S
C247 C255 1.433 . S
C248 H244 0.929 . S
C248 C250 1.378 . S
C248 C252 1.350 . S
C249 C252 1.463 . S
C249 C254 1.350 . S
C249 N257 1.427 . S
C250 H241 0.930 . S
C250 C248 1.378 . S
C250 C251 1.367 . S
C251 C250 1.367 . S
C251 C253 1.433 . S
C252 C248 1.350 . S
C252 C249 1.463 . S
C252 N256 1.427 . S
C253 H243 0.929 . S
C253 C251 1.433 . S
C253 N256 1.384 . S
C254 H245 0.929 . S
C254 C246 1.378 . S
C254 C249 1.350 . S
C255 H242 0.929 . S
C255 C247 1.433 . S
C255 N257 1.384 . S
N256 C252 1.427 . S
N256 C253 1.384 . S
N257 C249 1.427 . S
N257 C255 1.384 . S
H258 C264 0.930 . S
H259 C268 0.930 . S
H260 C273 0.929 . S
H261 C271 0.929 . S
H262 C266 0.929 . S
H263 C272 0.929 . S
C264 H258 0.930 . S
C264 C265 1.367 . S
C264 C272 1.378 . S
C265 C264 1.367 . S
C265 C273 1.433 . S
C266 H262 0.929 . S
C266 C268 1.378 . S
C266 C270 1.350 . S
C267 C270 1.463 . S
C267 C272 1.350 . S
C267 N275 1.427 . S
C268 H259 0.930 . S
C268 C266 1.378 . S
C268 C269 1.367 . S
C269 C268 1.367 . S
C269 C271 1.433 . S
C270 C266 1.350 . S
C270 C267 1.463 . S
C270 N274 1.427 . S
C271 H261 0.929 . S
C271 C269 1.433 . S
C271 N274 1.384 . S
C272 H263 0.929 . S
C272 C264 1.378 . S
C272 C267 1.350 . S
C273 H260 0.929 . S
C273 C265 1.433 . S
C273 N275 1.384 . S
N274 C270 1.427 . S
N274 C271 1.384 . S
N275 C267 1.427 . S
N275 C273 1.384 . S
H276 C282 0.930 . S
H277 C286 0.930 . S
H278 C291 0.929 . S
H279 C289 0.929 . S
H280 C284 0.929 . S
H281 C290 0.929 . S
C282 H276 0.930 . S
C282 C283 1.367 . S
C282 C290 1.378 . S
C283 C282 1.367 . S
C283 C291 1.433 . S
C284 H280 0.929 . S
C284 C286 1.378 . S
C284 C288 1.350 . S
C285 C288 1.463 . S
C285 C290 1.350 . S
C285 N293 1.427 . S
C286 H277 0.930 . S
C286 C284 1.378 . S
C286 C287 1.367 . S
C287 C286 1.367 . S
C287 C289 1.433 . S
C288 C284 1.350 . S
C288 C285 1.463 . S
C288 N292 1.427 . S
C289 H279 0.929 . S
C289 C287 1.433 . S
C289 N292 1.384 . S
C290 H281 0.929 . S
C290 C282 1.378 . S
C290 C285 1.350 . S
C291 H278 0.929 . S
C291 C283 1.433 . S
C291 N293 1.384 . S
N292 C288 1.427 . S
N292 C289 1.384 . S
N293 C285 1.427 . S
N293 C291 1.384 . S
H294 C300 0.930 . S
H295 C304 0.930 . S
H296 C309 0.929 . S
H297 C307 0.929 . S
H298 C302 0.929 . S
H299 C308 0.929 . S
C300 H294 0.930 . S
C300 C301 1.367 . S
C300 C308 1.378 . S
C301 C300 1.367 . S
C301 C309 1.433 . S
C302 H298 0.929 . S
C302 C304 1.378 . S
C302 C306 1.350 . S
C303 C306 1.463 . S
C303 C308 1.350 . S
C303 N311 1.427 . S
C304 H295 0.930 . S
C304 C302 1.378 . S
C304 C305 1.367 . S
C305 C304 1.367 . S
C305 C307 1.433 . S
C306 C302 1.350 . S
C306 C303 1.463 . S
C306 N310 1.427 . S
C307 H297 0.929 . S
C307 C305 1.433 . S
C307 N310 1.384 . S
C308 H299 0.929 . S
C308 C300 1.378 . S
C308 C303 1.350 . S
C309 H296 0.929 . S
C309 C301 1.433 . S
C309 N311 1.384 . S
N310 C306 1.427 . S
N310 C307 1.384 . S
N311 C303 1.427 . S
N311 C309 1.384 . S
H312 C318 0.930 . S
H313 C322 0.930 . S
H314 C327 0.929 . S
H315 C325 0.929 . S
H316 C320 0.929 . S
H317 C326 0.929 . S
C318 H312 0.930 . S
C318 C319 1.367 . S
C318 C326 1.378 . S
C319 C318 1.367 . S
C319 C327 1.433 . S
C320 H316 0.929 . S
C320 C322 1.378 . S
C320 C324 1.350 . S
C321 C324 1.463 . S
C321 C326 1.350 . S
C321 N329 1.427 . S
C322 H313 0.930 . S
C322 C320 1.378 . S
C322 C323 1.367 . S
C323 C322 1.367 . S
C323 C325 1.433 . S
C324 C320 1.350 . S
C324 C321 1.463 . S
C324 N328 1.427 . S
C325 H315 0.929 . S
C325 C323 1.433 . S
C325 N328 1.384 . S
C326 H317 0.929 . S
C326 C318 1.378 . S
C326 C321 1.350 . S
C327 H314 0.929 . S
C327 C319 1.433 . S
C327 N329 1.384 . S
N328 C324 1.427 . S
N328 C325 1.384 . S
N329 C321 1.427 . S
N329 C327 1.384 . S
H330 C336 0.930 . S
H331 C340 0.930 . S
H332 C345 0.929 . S
H333 C343 0.929 . S
H334 C338 0.929 . S
H335 C344 0.929 . S
C336 H330 0.930 . S
C336 C337 1.367 . S
C336 C344 1.378 . S
C337 C336 1.367 . S
C337 C345 1.433 . S
C338 H334 0.929 . S
C338 C340 1.378 . S
C338 C342 1.350 . S
C339 C342 1.463 . S
C339 C344 1.350 . S
C339 N347 1.427 . S
C340 H331 0.930 . S
C340 C338 1.378 . S
C340 C341 1.367 . S
C341 C340 1.367 . S
C341 C343 1.433 . S
C342 C338 1.350 . S
C342 C339 1.463 . S
C342 N346 1.427 . S
C343 H333 0.929 . S
C343 C341 1.433 . S
C343 N346 1.384 . S
C344 H335 0.929 . S
C344 C336 1.378 . S
C344 C339 1.350 . S
C345 H332 0.929 . S
C345 C337 1.433 . S
C345 N347 1.384 . S
N346 C342 1.427 . S
N346 C343 1.384 . S
N347 C339 1.427 . S
N347 C345 1.384 . S
H348 C354 0.930 . S
H349 C358 0.930 . S
H350 C363 0.929 . S
H351 C361 0.929 . S
H352 C356 0.929 . S
H353 C362 0.929 . S
C354 H348 0.930 . S
C354 C355 1.367 . S
C354 C362 1.378 . S
C355 C354 1.367 . S
C355 C363 1.433 . S
C356 H352 0.929 . S
C356 C358 1.378 . S
C356 C360 1.350 . S
C357 C360 1.463 1_556 S
C357 C362 1.350 . S
C357 N365 1.427 . S
C358 H349 0.930 . S
C358 C356 1.378 . S
C358 C359 1.367 . S
C359 C358 1.367 . S
C359 C361 1.433 . S
C360 C356 1.350 . S
C360 C357 1.463 1_554 S
C360 N364 1.427 . S
C361 H351 0.929 . S
C361 C359 1.433 . S
C361 N364 1.384 . S
C362 H353 0.929 . S
C362 C354 1.378 . S
C362 C357 1.350 . S
C363 H350 0.929 . S
C363 C355 1.433 . S
C363 N365 1.384 . S
N364 C360 1.427 . S
N364 C361 1.384 . S
N365 C357 1.427 . S
N365 C363 1.384 . S
H366 C372 0.930 . S
H367 C376 0.930 . S
H368 C381 0.929 . S
H369 C379 0.929 . S
H370 C374 0.929 . S
H371 C380 0.929 . S
C372 H366 0.930 . S
C372 C373 1.367 . S
C372 C380 1.378 . S
C373 C372 1.367 . S
C373 C381 1.433 . S
C374 H370 0.929 . S
C374 C376 1.378 . S
C374 C378 1.350 . S
C375 C378 1.463 . S
C375 C380 1.350 . S
C375 N383 1.427 . S
C376 H367 0.930 . S
C376 C374 1.378 . S
C376 C377 1.367 . S
C377 C376 1.367 . S
C377 C379 1.433 . S
C378 C374 1.350 . S
C378 C375 1.463 . S
C378 N382 1.427 . S
C379 H369 0.929 . S
C379 C377 1.433 . S
C379 N382 1.384 . S
C380 H371 0.929 . S
C380 C372 1.378 . S
C380 C375 1.350 . S
C381 H368 0.929 . S
C381 C373 1.433 . S
C381 N383 1.384 . S
N382 C378 1.427 . S
N382 C379 1.384 . S
N383 C375 1.427 . S
N383 C381 1.384 . S
H384 C390 0.930 . S
H385 C394 0.930 . S
H386 C399 0.929 . S
H387 C397 0.929 . S
H388 C392 0.929 . S
H389 C398 0.929 . S
C390 H384 0.930 . S
C390 C391 1.367 . S
C390 C398 1.378 . S
C391 C390 1.367 . S
C391 C399 1.433 . S
C392 H388 0.929 . S
C392 C394 1.378 . S
C392 C396 1.350 . S
C393 C396 1.463 . S
C393 C398 1.350 . S
C393 N401 1.427 . S
C394 H385 0.930 . S
C394 C392 1.378 . S
C394 C395 1.367 . S
C395 C394 1.367 . S
C395 C397 1.433 . S
C396 C392 1.350 . S
C396 C393 1.463 . S
C396 N400 1.427 . S
C397 H387 0.929 . S
C397 C395 1.433 . S
C397 N400 1.384 . S
C398 H389 0.929 . S
C398 C390 1.378 . S
C398 C393 1.350 . S
C399 H386 0.929 . S
C399 C391 1.433 . S
C399 N401 1.384 . S
N400 C396 1.427 . S
N400 C397 1.384 . S
N401 C393 1.427 . S
N401 C399 1.384 . S
H402 C408 0.930 . S
H403 C412 0.930 . S
H404 C417 0.929 . S
H405 C415 0.929 . S
H406 C410 0.929 . S
H407 C416 0.929 . S
C408 H402 0.930 . S
C408 C409 1.367 . S
C408 C416 1.378 . S
C409 C408 1.367 . S
C409 C417 1.433 . S
C410 H406 0.929 . S
C410 C412 1.378 . S
C410 C414 1.350 . S
C411 C414 1.463 1_556 S
C411 C416 1.350 . S
C411 N419 1.427 . S
C412 H403 0.930 . S
C412 C410 1.378 . S
C412 C413 1.367 . S
C413 C412 1.367 . S
C413 C415 1.433 . S
C414 C410 1.350 . S
C414 C411 1.463 1_554 S
C414 N418 1.427 . S
C415 H405 0.929 . S
C415 C413 1.433 . S
C415 N418 1.384 . S
C416 H407 0.929 . S
C416 C408 1.378 . S
C416 C411 1.350 . S
C417 H404 0.929 . S
C417 C409 1.433 . S
C417 N419 1.384 . S
N418 C414 1.427 . S
N418 C415 1.384 . S
N419 C411 1.427 . S
N419 C417 1.384 . S
H420 C426 0.930 . S
H421 C430 0.930 . S
H422 C435 0.929 . S
H423 C433 0.929 . S
H424 C428 0.929 . S
H425 C434 0.929 . S
C426 H420 0.930 . S
C426 C427 1.367 . S
C426 C434 1.378 . S
C427 C426 1.367 . S
C427 C435 1.433 . S
C428 H424 0.929 . S
C428 C430 1.378 . S
C428 C432 1.350 . S
C429 C432 1.463 . S
C429 C434 1.350 . S
C429 N437 1.427 . S
C430 H421 0.930 . S
C430 C428 1.378 . S
C430 C431 1.367 . S
C431 C430 1.367 . S
C431 C433 1.433 . S
C432 C428 1.350 . S
C432 C429 1.463 . S
C432 N436 1.427 . S
C433 H423 0.929 . S
C433 C431 1.433 . S
C433 N436 1.384 . S
C434 H425 0.929 . S
C434 C426 1.378 . S
C434 C429 1.350 . S
C435 H422 0.929 . S
C435 C427 1.433 . S
C435 N437 1.384 . S
N436 C432 1.427 . S
N436 C433 1.384 . S
N437 C429 1.427 . S
N437 C435 1.384 . S
H438 C444 0.930 . S
H439 C448 0.930 . S
H440 C453 0.929 . S
H441 C451 0.929 . S
H442 C446 0.929 . S
H443 C452 0.929 . S
C444 H438 0.930 . S
C444 C445 1.367 . S
C444 C452 1.378 . S
C445 C444 1.367 . S
C445 C453 1.433 . S
C446 H442 0.929 . S
C446 C448 1.378 . S
C446 C450 1.350 . S
C447 C450 1.463 . S
C447 C452 1.350 . S
C447 N455 1.427 . S
C448 H439 0.930 . S
C448 C446 1.378 . S
C448 C449 1.367 . S
C449 C448 1.367 . S
C449 C451 1.433 . S
C450 C446 1.350 . S
C450 C447 1.463 . S
C450 N454 1.427 . S
C451 H441 0.929 . S
C451 C449 1.433 . S
C451 N454 1.384 . S
C452 H443 0.929 . S
C452 C444 1.378 . S
C452 C447 1.350 . S
C453 H440 0.929 . S
C453 C445 1.433 . S
C453 N455 1.384 . S
N454 C450 1.427 . S
N454 C451 1.384 . S
N455 C447 1.427 . S
N455 C453 1.384 . S
H456 C462 0.934 . S
H457 C466 0.934 . S
H458 C471 0.929 . S
H459 C469 0.929 . S
H460 C464 0.929 . S
H461 C470 0.929 . S
C462 H456 0.934 . S
C462 C463 1.367 . S
C462 C470 1.378 1_565 S
C463 C462 1.367 . S
C463 C471 1.433 . S
C464 H460 0.929 . S
C464 C466 1.378 1_565 S
C464 C468 1.350 1_565 S
C465 C468 1.463 1_566 S
C465 C470 1.350 1_565 S
C465 N473 1.427 . S
C466 H457 0.934 . S
C466 C464 1.378 1_545 S
C466 C467 1.367 . S
C467 C466 1.367 . S
C467 C469 1.433 . S
C468 C464 1.350 1_545 S
C468 C465 1.463 1_544 S
C468 N472 1.427 . S
C469 H459 0.929 . S
C469 C467 1.433 . S
C469 N472 1.384 . S
C470 H461 0.929 . S
C470 C462 1.378 1_545 S
C470 C465 1.350 1_545 S
C471 H458 0.929 . S
C471 C463 1.433 . S
C471 N473 1.384 . S
N472 C468 1.427 . S
N472 C469 1.384 . S
N473 C465 1.427 . S
N473 C471 1.384 . S
H474 C480 0.930 . S
H475 C484 0.930 . S
H476 C489 0.929 . S
H477 C487 0.929 . S
H478 C482 0.929 . S
H479 C488 0.929 . S
C480 H474 0.930 . S
C480 C481 1.367 . S
C480 C488 1.378 . S
C481 C480 1.367 . S
C481 C489 1.433 . S
C482 H478 0.929 . S
C482 C484 1.378 . S
C482 C486 1.350 . S
C483 C486 1.463 . S
C483 C488 1.350 . S
C483 N491 1.427 . S
C484 H475 0.930 . S
C484 C482 1.378 . S
C484 C485 1.367 . S
C485 C484 1.367 . S
C485 C487 1.433 . S
C486 C482 1.350 . S
C486 C483 1.463 . S
C486 N490 1.427 . S
C487 H477 0.929 . S
C487 C485 1.433 . S
C487 N490 1.384 . S
C488 H479 0.929 . S
C488 C480 1.378 . S
C488 C483 1.350 . S
C489 H476 0.929 . S
C489 C481 1.433 . S
C489 N491 1.384 . S
N490 C486 1.427 . S
N490 C487 1.384 . S
N491 C483 1.427 . S
N491 C489 1.384 . S
H492 C498 0.930 . S
H493 C502 0.930 . S
H494 C507 0.929 . S
H495 C505 0.929 . S
H496 C500 0.929 . S
H497 C506 0.929 . S
C498 H492 0.930 . S
C498 C499 1.367 . S
C498 C506 1.378 . S
C499 C498 1.367 . S
C499 C507 1.433 . S
C500 H496 0.929 . S
C500 C502 1.378 . S
C500 C504 1.350 . S
C501 C504 1.463 1_455 S
C501 C506 1.350 . S
C501 N509 1.427 . S
C502 H493 0.930 . S
C502 C500 1.378 . S
C502 C503 1.367 . S
C503 C502 1.367 . S
C503 C505 1.433 . S
C504 C500 1.350 . S
C504 C501 1.463 1_655 S
C504 N508 1.427 . S
C505 H495 0.929 . S
C505 C503 1.433 . S
C505 N508 1.384 . S
C506 H497 0.929 . S
C506 C498 1.378 . S
C506 C501 1.350 . S
C507 H494 0.929 . S
C507 C499 1.433 . S
C507 N509 1.384 . S
N508 C504 1.427 . S
N508 C505 1.384 . S
N509 C501 1.427 . S
N509 C507 1.384 . S
H510 C516 0.930 . S
H511 C520 0.930 . S
H512 C525 0.929 . S
H513 C523 0.929 . S
H514 C518 0.929 . S
H515 C524 0.929 . S
C516 H510 0.930 . S
C516 C517 1.367 . S
C516 C524 1.378 . S
C517 C516 1.367 . S
C517 C525 1.433 . S
C518 H514 0.929 . S
C518 C520 1.378 . S
C518 C522 1.350 . S
C519 C522 1.463 1_564 S
C519 C524 1.350 . S
C519 N527 1.427 . S
C520 H511 0.930 . S
C520 C518 1.378 . S
C520 C521 1.367 . S
C521 C520 1.367 . S
C521 C523 1.433 . S
C522 C518 1.350 . S
C522 C519 1.463 1_546 S
C522 N526 1.427 . S
C523 H513 0.929 . S
C523 C521 1.433 . S
C523 N526 1.384 . S
C524 H515 0.929 . S
C524 C516 1.378 . S
C524 C519 1.350 . S
C525 H512 0.929 . S
C525 C517 1.433 . S
C525 N527 1.384 . S
N526 C522 1.427 . S
N526 C523 1.384 . S
N527 C519 1.427 . S
N527 C525 1.384 . S
H528 C534 0.930 . S
H529 C538 0.930 . S
H530 C543 0.929 . S
H531 C541 0.929 . S
H532 C536 0.929 . S
H533 C542 0.929 . S
C534 H528 0.930 . S
C534 C535 1.367 . S
C534 C542 1.378 . S
C535 C534 1.367 . S
C535 C543 1.433 . S
C536 H532 0.929 . S
C536 C538 1.378 . S
C536 C540 1.350 . S
C537 C540 1.463 . S
C537 C542 1.350 . S
C537 N545 1.427 . S
C538 H529 0.930 . S
C538 C536 1.378 . S
C538 C539 1.367 . S
C539 C538 1.367 . S
C539 C541 1.433 . S
C540 C536 1.350 . S
C540 C537 1.463 . S
C540 N544 1.427 . S
C541 H531 0.929 . S
C541 C539 1.433 . S
C541 N544 1.384 . S
C542 H533 0.929 . S
C542 C534 1.378 . S
C542 C537 1.350 . S
C543 H530 0.929 . S
C543 C535 1.433 . S
C543 N545 1.384 . S
N544 C540 1.427 . S
N544 C541 1.384 . S
N545 C537 1.427 . S
N545 C543 1.384 . S
H546 C552 0.930 . S
H547 C556 0.930 . S
H548 C561 0.929 . S
H549 C559 0.929 . S
H550 C554 0.929 . S
H551 C560 0.929 . S
C552 H546 0.930 . S
C552 C553 1.367 . S
C552 C560 1.378 . S
C553 C552 1.367 . S
C553 C561 1.433 . S
C554 H550 0.929 . S
C554 C556 1.378 . S
C554 C558 1.350 . S
C555 C558 1.463 1_455 S
C555 C560 1.350 . S
C555 N563 1.427 1_455 S
C556 H547 0.930 . S
C556 C554 1.378 . S
C556 C557 1.367 . S
C557 C556 1.367 . S
C557 C559 1.433 . S
C558 C554 1.350 . S
C558 C555 1.463 1_655 S
C558 N562 1.427 1_655 S
C559 H549 0.929 . S
C559 C557 1.433 . S
C559 N562 1.384 1_655 S
C560 H551 0.929 . S
C560 C552 1.378 . S
C560 C555 1.350 . S
C561 H548 0.929 . S
C561 C553 1.433 . S
C561 N563 1.384 1_455 S
N562 C558 1.427 1_455 S
N562 C559 1.384 1_455 S
N563 C555 1.427 1_655 S
N563 C561 1.384 1_655 S
H564 C570 0.930 . S
H565 C574 0.930 . S
H566 C579 0.929 . S
H567 C577 0.929 . S
H568 C572 0.929 . S
H569 C578 0.929 . S
C570 H564 0.930 . S
C570 C571 1.367 . S
C570 C578 1.378 1_545 S
C571 C570 1.367 . S
C571 C579 1.433 . S
C572 H568 0.929 . S
C572 C574 1.378 1_545 S
C572 C576 1.350 1_545 S
C573 C576 1.463 1_545 S
C573 C578 1.350 1_545 S
C573 N581 1.427 . S
C574 H565 0.930 . S
C574 C572 1.378 1_565 S
C574 C575 1.367 . S
C575 C574 1.367 . S
C575 C577 1.433 . S
C576 C572 1.350 1_565 S
C576 C573 1.463 1_565 S
C576 N580 1.427 . S
C577 H567 0.929 . S
C577 C575 1.433 . S
C577 N580 1.384 . S
C578 H569 0.929 . S
C578 C570 1.378 1_565 S
C578 C573 1.350 1_565 S
C579 H566 0.929 . S
C579 C571 1.433 . S
C579 N581 1.384 . S
N580 C576 1.427 . S
N580 C577 1.384 . S
N581 C573 1.427 . S
N581 C579 1.384 . S
H582 C588 0.930 . S
H583 C592 0.930 . S
H584 C597 0.929 . S
H585 C595 0.929 . S
H586 C590 0.929 . S
H587 C596 0.929 . S
C588 H582 0.930 . S
C588 C589 1.367 . S
C588 C596 1.378 . S
C589 C588 1.367 . S
C589 C597 1.433 . S
C590 H586 0.929 . S
C590 C592 1.378 . S
C590 C594 1.350 . S
C591 C594 1.463 . S
C591 C596 1.350 . S
C591 N599 1.427 . S
C592 H583 0.930 . S
C592 C590 1.378 . S
C592 C593 1.367 . S
C593 C592 1.367 . S
C593 C595 1.433 . S
C594 C590 1.350 . S
C594 C591 1.463 . S
C594 N598 1.427 . S
C595 H585 0.929 . S
C595 C593 1.433 . S
C595 N598 1.384 . S
C596 H587 0.929 . S
C596 C588 1.378 . S
C596 C591 1.350 . S
C597 H584 0.929 . S
C597 C589 1.433 . S
C597 N599 1.384 . S
N598 C594 1.427 . S
N598 C595 1.384 . S
N599 C591 1.427 . S
N599 C597 1.384 . S
H600 C606 0.930 . S
H601 C610 0.930 . S
H602 C615 0.929 . S
H603 C613 0.929 . S
H604 C608 0.929 1_655 S
H605 C614 0.929 1_455 S
C606 H600 0.930 . S
C606 C607 1.367 . S
C606 C614 1.378 . S
C607 C606 1.367 . S
C607 C615 1.433 . S
C608 H604 0.929 1_455 S
C608 C610 1.378 . S
C608 C612 1.350 . S
C609 C612 1.463 1_655 S
C609 C614 1.350 . S
C609 N617 1.427 . S
C610 H601 0.930 . S
C610 C608 1.378 . S
C610 C611 1.367 . S
C611 C610 1.367 . S
C611 C613 1.433 . S
C612 C608 1.350 . S
C612 C609 1.463 1_455 S
C612 N616 1.427 . S
C613 H603 0.929 . S
C613 C611 1.433 . S
C613 N616 1.384 . S
C614 H605 0.929 1_655 S
C614 C606 1.378 . S
C614 C609 1.350 . S
C615 H602 0.929 . S
C615 C607 1.433 . S
C615 N617 1.384 . S
N616 C612 1.427 . S
N616 C613 1.384 . S
N617 C609 1.427 . S
N617 C615 1.384 . S
H618 C624 0.930 . S
H619 C628 0.930 . S
H620 C633 0.929 . S
H621 C631 0.929 . S
H622 C626 0.929 . S
H623 C632 0.929 . S
C624 H618 0.930 . S
C624 C625 1.367 . S
C624 C632 1.378 . S
C625 C624 1.367 . S
C625 C633 1.433 . S
C626 H622 0.929 . S
C626 C628 1.378 . S
C626 C630 1.350 . S
C627 C630 1.463 1_455 S
C627 C632 1.350 . S
C627 N635 1.427 . S
C628 H619 0.930 . S
C628 C626 1.378 . S
C628 C629 1.367 . S
C629 C628 1.367 . S
C629 C631 1.433 . S
C630 C626 1.350 . S
C630 C627 1.463 1_655 S
C630 N634 1.427 . S
C631 H621 0.929 . S
C631 C629 1.433 . S
C631 N634 1.384 . S
C632 H623 0.929 . S
C632 C624 1.378 . S
C632 C627 1.350 . S
C633 H620 0.929 . S
C633 C625 1.433 . S
C633 N635 1.384 . S
N634 C630 1.427 . S
N634 C631 1.384 . S
N635 C627 1.427 . S
N635 C633 1.384 . S
H636 C642 0.930 . S
H637 C646 0.930 . S
H638 C651 0.929 . S
H639 C649 0.929 . S
H640 C644 0.929 1_565 S
H641 C650 0.929 1_545 S
C642 H636 0.930 . S
C642 C643 1.367 . S
C642 C650 1.378 . S
C643 C642 1.367 . S
C643 C651 1.433 . S
C644 H640 0.929 1_545 S
C644 C646 1.378 . S
C644 C648 1.350 . S
C645 C648 1.463 1_565 S
C645 C650 1.350 . S
C645 N653 1.427 . S
C646 H637 0.930 . S
C646 C644 1.378 . S
C646 C647 1.367 . S
C647 C646 1.367 . S
C647 C649 1.433 . S
C648 C644 1.350 . S
C648 C645 1.463 1_545 S
C648 N652 1.427 . S
C649 H639 0.929 . S
C649 C647 1.433 . S
C649 N652 1.384 . S
C650 H641 0.929 1_565 S
C650 C642 1.378 . S
C650 C645 1.350 . S
C651 H638 0.929 . S
C651 C643 1.433 . S
C651 N653 1.384 . S
N652 C648 1.427 . S
N652 C649 1.384 . S
N653 C645 1.427 . S
N653 C651 1.384 . S
H654 C660 0.930 . S
H655 C664 0.930 . S
H656 C669 0.929 . S
H657 C667 0.929 . S
H658 C662 0.929 . S
H659 C668 0.929 . S
C660 H654 0.930 . S
C660 C661 1.367 . S
C660 C668 1.378 . S
C661 C660 1.367 . S
C661 C669 1.433 . S
C662 H658 0.929 . S
C662 C664 1.378 . S
C662 C666 1.350 . S
C663 C666 1.463 . S
C663 C668 1.350 . S
C663 N671 1.427 . S
C664 H655 0.930 . S
C664 C662 1.378 . S
C664 C665 1.367 . S
C665 C664 1.367 . S
C665 C667 1.433 . S
C666 C662 1.350 . S
C666 C663 1.463 . S
C666 N670 1.427 . S
C667 H657 0.929 . S
C667 C665 1.433 . S
C667 N670 1.384 . S
C668 H659 0.929 . S
C668 C660 1.378 . S
C668 C663 1.350 . S
C669 H656 0.929 . S
C669 C661 1.433 . S
C669 N671 1.384 . S
N670 C666 1.427 . S
N670 C667 1.384 . S
N671 C663 1.427 . S
N671 C669 1.384 . S
H672 C678 0.930 . S
H673 C682 0.930 . S
H674 C687 0.929 . S
H675 C685 0.929 . S
H676 C680 0.929 . S
H677 C686 0.929 . S
C678 H672 0.930 . S
C678 C679 1.367 . S
C678 C686 1.378 1_565 S
C679 C678 1.367 . S
C679 C687 1.433 . S
C680 H676 0.929 . S
C680 C682 1.378 1_565 S
C680 C684 1.350 1_565 S
C681 C684 1.463 1_565 S
C681 C686 1.350 1_565 S
C681 N689 1.427 . S
C682 H673 0.930 . S
C682 C680 1.378 1_545 S
C682 C683 1.367 . S
C683 C682 1.367 . S
C683 C685 1.433 . S
C684 C680 1.350 1_545 S
C684 C681 1.463 1_545 S
C684 N688 1.427 . S
C685 H675 0.929 . S
C685 C683 1.433 . S
C685 N688 1.384 . S
C686 H677 0.929 . S
C686 C678 1.378 1_545 S
C686 C681 1.350 1_545 S
C687 H674 0.929 . S
C687 C679 1.433 . S
C687 N689 1.384 . S
N688 C684 1.427 . S
N688 C685 1.384 . S
N689 C681 1.427 . S
N689 C687 1.384 . S
H690 C696 0.930 . S
H691 C700 0.930 . S
H692 C705 0.929 . S
H693 C703 0.929 . S
H694 C698 0.929 . S
H695 C704 0.929 . S
C696 H690 0.930 . S
C696 C697 1.367 . S
C696 C704 1.378 . S
C697 C696 1.367 . S
C697 C705 1.433 . S
C698 H694 0.929 . S
C698 C700 1.378 . S
C698 C702 1.350 . S
C699 C702 1.463 . S
C699 C704 1.350 . S
C699 N707 1.427 . S
C700 H691 0.930 . S
C700 C698 1.378 . S
C700 C701 1.367 . S
C701 C700 1.367 . S
C701 C703 1.433 . S
C702 C698 1.350 . S
C702 C699 1.463 . S
C702 N706 1.427 . S
C703 H693 0.929 . S
C703 C701 1.433 . S
C703 N706 1.384 . S
C704 H695 0.929 . S
C704 C696 1.378 . S
C704 C699 1.350 . S
C705 H692 0.929 . S
C705 C697 1.433 . S
C705 N707 1.384 . S
N706 C702 1.427 . S
N706 C703 1.384 . S
N707 C699 1.427 . S
N707 C705 1.384 . S
H708 C714 0.930 . S
H709 C718 0.930 . S
H710 C723 0.929 . S
H711 C721 0.929 . S
H712 C716 0.929 1_655 S
H713 C722 0.929 1_455 S
C714 H708 0.930 . S
C714 C715 1.367 . S
C714 C722 1.378 . S
C715 C714 1.367 . S
C715 C723 1.433 . S
C716 H712 0.929 1_455 S
C716 C718 1.378 . S
C716 C720 1.350 . S
C717 C720 1.463 1_655 S
C717 C722 1.350 . S
C717 N725 1.427 . S
C718 H709 0.930 . S
C718 C716 1.378 . S
C718 C719 1.367 . S
C719 C718 1.367 . S
C719 C721 1.433 . S
C720 C716 1.350 . S
C720 C717 1.463 1_455 S
C720 N724 1.427 . S
C721 H711 0.929 . S
C721 C719 1.433 . S
C721 N724 1.384 . S
C722 H713 0.929 1_655 S
C722 C714 1.378 . S
C722 C717 1.350 . S
C723 H710 0.929 . S
C723 C715 1.433 . S
C723 N725 1.384 . S
N724 C720 1.427 . S
N724 C721 1.384 . S
N725 C717 1.427 . S
N725 C723 1.384 . S
H726 C732 0.930 . S
H727 C736 0.930 . S
H728 C741 0.929 . S
H729 C739 0.929 . S
H730 C734 0.929 . S
H731 C740 0.929 . S
C732 H726 0.930 . S
C732 C733 1.367 . S
C732 C740 1.378 . S
C733 C732 1.367 . S
C733 C741 1.433 . S
C734 H730 0.929 . S
C734 C736 1.378 . S
C734 C738 1.350 . S
C735 C738 1.463 1_545 S
C735 C740 1.350 . S
C735 N743 1.427 . S
C736 H727 0.930 . S
C736 C734 1.378 . S
C736 C737 1.367 . S
C737 C736 1.367 . S
C737 C739 1.433 . S
C738 C734 1.350 . S
C738 C735 1.463 1_565 S
C738 N742 1.427 . S
C739 H729 0.929 . S
C739 C737 1.433 . S
C739 N742 1.384 . S
C740 H731 0.929 . S
C740 C732 1.378 . S
C740 C735 1.350 . S
C741 H728 0.929 . S
C741 C733 1.433 . S
C741 N743 1.384 . S
N742 C738 1.427 . S
N742 C739 1.384 . S
N743 C735 1.427 . S
N743 C741 1.384 . S
H744 C750 0.930 . S
H745 C754 0.930 . S
H746 C759 0.929 . S
H747 C757 0.929 . S
H748 C752 0.929 . S
H749 C758 0.929 . S
C750 H744 0.930 . S
C750 C751 1.367 . S
C750 C758 1.378 . S
C751 C750 1.367 . S
C751 C759 1.433 . S
C752 H748 0.929 . S
C752 C754 1.378 . S
C752 C756 1.350 . S
C753 C756 1.463 . S
C753 C758 1.350 . S
C753 N761 1.427 . S
C754 H745 0.930 . S
C754 C752 1.378 . S
C754 C755 1.367 . S
C755 C754 1.367 . S
C755 C757 1.433 . S
C756 C752 1.350 . S
C756 C753 1.463 . S
C756 N760 1.427 . S
C757 H747 0.929 . S
C757 C755 1.433 . S
C757 N760 1.384 . S
C758 H749 0.929 . S
C758 C750 1.378 . S
C758 C753 1.350 . S
C759 H746 0.929 . S
C759 C751 1.433 . S
C759 N761 1.384 . S
N760 C756 1.427 . S
N760 C757 1.384 . S
N761 C753 1.427 . S
N761 C759 1.384 . S
H762 C768 0.930 . S
H763 C772 0.930 . S
H764 C777 0.929 . S
H765 C775 0.929 . S
H766 C770 0.929 . S
H767 C776 0.929 . S
C768 H762 0.930 . S
C768 C769 1.367 . S
C768 C776 1.378 . S
C769 C768 1.367 . S
C769 C777 1.433 . S
C770 H766 0.929 . S
C770 C772 1.378 . S
C770 C774 1.350 . S
C771 C774 1.463 1_455 S
C771 C776 1.350 . S
C771 N779 1.427 . S
C772 H763 0.930 . S
C772 C770 1.378 . S
C772 C773 1.367 . S
C773 C772 1.367 . S
C773 C775 1.433 . S
C774 C770 1.350 . S
C774 C771 1.463 1_655 S
C774 N778 1.427 . S
C775 H765 0.929 . S
C775 C773 1.433 . S
C775 N778 1.384 . S
C776 H767 0.929 . S
C776 C768 1.378 . S
C776 C771 1.350 . S
C777 H764 0.929 . S
C777 C769 1.433 . S
C777 N779 1.384 . S
N778 C774 1.427 . S
N778 C775 1.384 . S
N779 C771 1.427 . S
N779 C777 1.384 . S
H780 C786 0.930 . S
H781 C790 0.930 . S
H782 C795 0.929 . S
H783 C793 0.929 . S
H784 C788 0.929 . S
H785 C794 0.929 . S
C786 H780 0.930 . S
C786 C787 1.367 . S
C786 C794 1.378 . S
C787 C786 1.367 . S
C787 C795 1.433 . S
C788 H784 0.929 . S
C788 C790 1.378 . S
C788 C792 1.350 . S
C789 C792 1.463 . S
C789 C794 1.350 . S
C789 N797 1.427 . S
C790 H781 0.930 . S
C790 C788 1.378 . S
C790 C791 1.367 . S
C791 C790 1.367 . S
C791 C793 1.433 . S
C792 C788 1.350 . S
C792 C789 1.463 . S
C792 N796 1.427 . S
C793 H783 0.929 . S
C793 C791 1.433 . S
C793 N796 1.384 . S
C794 H785 0.929 . S
C794 C786 1.378 . S
C794 C789 1.350 . S
C795 H782 0.929 . S
C795 C787 1.433 . S
C795 N797 1.384 . S
N796 C792 1.427 . S
N796 C793 1.384 . S
N797 C789 1.427 . S
N797 C795 1.384 . S
H798 C804 0.930 . S
H799 C808 0.930 . S
H800 C813 0.929 . S
H801 C811 0.929 . S
H802 C806 0.929 . S
H803 C812 0.929 . S
C804 H798 0.930 . S
C804 C805 1.367 . S
C804 C812 1.378 . S
C805 C804 1.367 . S
C805 C813 1.433 . S
C806 H802 0.929 . S
C806 C808 1.378 . S
C806 C810 1.350 . S
C807 C810 1.463 . S
C807 C812 1.350 . S
C807 N815 1.427 . S
C808 H799 0.930 . S
C808 C806 1.378 . S
C808 C809 1.367 . S
C809 C808 1.367 . S
C809 C811 1.433 . S
C810 C806 1.350 . S
C810 C807 1.463 . S
C810 N814 1.427 . S
C811 H801 0.929 . S
C811 C809 1.433 . S
C811 N814 1.384 . S
C812 H803 0.929 . S
C812 C804 1.378 . S
C812 C807 1.350 . S
C813 H800 0.929 . S
C813 C805 1.433 . S
C813 N815 1.384 . S
N814 C810 1.427 . S
N814 C811 1.384 . S
N815 C807 1.427 . S
N815 C813 1.384 . S
H816 C822 0.930 . S
H817 C826 0.930 . S
H818 C831 0.929 . S
H819 C829 0.929 . S
H820 C824 0.929 . S
H821 C830 0.929 . S
C822 H816 0.930 . S
C822 C823 1.367 . S
C822 C830 1.378 . S
C823 C822 1.367 . S
C823 C831 1.433 . S
C824 H820 0.929 . S
C824 C826 1.378 . S
C824 C828 1.350 . S
C825 C828 1.463 . S
C825 C830 1.350 . S
C825 N833 1.427 . S
C826 H817 0.930 . S
C826 C824 1.378 . S
C826 C827 1.367 . S
C827 C826 1.367 . S
C827 C829 1.433 . S
C828 C824 1.350 . S
C828 C825 1.463 . S
C828 N832 1.427 . S
C829 H819 0.929 . S
C829 C827 1.433 . S
C829 N832 1.384 . S
C830 H821 0.929 . S
C830 C822 1.378 . S
C830 C825 1.350 . S
C831 H818 0.929 . S
C831 C823 1.433 . S
C831 N833 1.384 . S
N832 C828 1.427 . S
N832 C829 1.384 . S
N833 C825 1.427 . S
N833 C831 1.384 . S
H834 C840 0.930 . S
H835 C844 0.930 . S
H836 C849 0.929 . S
H837 C847 0.929 . S
H838 C842 0.929 . S
H839 C848 0.929 . S
C840 H834 0.930 . S
C840 C841 1.367 . S
C840 C848 1.378 . S
C841 C840 1.367 . S
C841 C849 1.433 . S
C842 H838 0.929 . S
C842 C844 1.378 . S
C842 C846 1.350 . S
C843 C846 1.463 . S
C843 C848 1.350 . S
C843 N851 1.427 . S
C844 H835 0.930 . S
C844 C842 1.378 . S
C844 C845 1.367 . S
C845 C844 1.367 . S
C845 C847 1.433 . S
C846 C842 1.350 . S
C846 C843 1.463 . S
C846 N850 1.427 . S
C847 H837 0.929 . S
C847 C845 1.433 . S
C847 N850 1.384 . S
C848 H839 0.929 . S
C848 C840 1.378 . S
C848 C843 1.350 . S
C849 H836 0.929 . S
C849 C841 1.433 . S
C849 N851 1.384 . S
N850 C846 1.427 . S
N850 C847 1.384 . S
N851 C843 1.427 . S
N851 C849 1.384 . S
H852 C858 0.930 . S
H853 C862 0.930 . S
H854 C867 0.929 . S
H855 C865 0.929 . S
H856 C860 0.929 . S
H857 C866 0.929 . S
C858 H852 0.930 . S
C858 C859 1.367 . S
C858 C866 1.378 . S
C859 C858 1.367 . S
C859 C867 1.433 . S
C860 H856 0.929 . S
C860 C862 1.378 . S
C860 C864 1.350 . S
C861 C864 1.463 . S
C861 C866 1.350 . S
C861 N869 1.427 . S
C862 H853 0.930 . S
C862 C860 1.378 . S
C862 C863 1.367 . S
C863 C862 1.367 . S
C863 C865 1.433 . S
C864 C860 1.350 . S
C864 C861 1.463 . S
C864 N868 1.427 . S
C865 H855 0.929 . S
C865 C863 1.433 . S
C865 N868 1.384 . S
C866 H857 0.929 . S
C866 C858 1.378 . S
C866 C861 1.350 . S
C867 H854 0.929 . S
C867 C859 1.433 . S
C867 N869 1.384 . S
N868 C864 1.427 . S
N868 C865 1.384 . S
N869 C861 1.427 . S
N869 C867 1.384 . S
H870 C876 0.930 . S
H871 C880 0.930 . S
H872 C885 0.929 . S
H873 C883 0.929 . S
H874 C878 0.929 . S
H875 C884 0.929 . S
C876 H870 0.930 . S
C876 C877 1.367 . S
C876 C884 1.378 . S
C877 C876 1.367 . S
C877 C885 1.433 . S
C878 H874 0.929 . S
C878 C880 1.378 . S
C878 C882 1.350 . S
C879 C882 1.463 . S
C879 C884 1.350 . S
C879 N887 1.427 . S
C880 H871 0.930 . S
C880 C878 1.378 . S
C880 C881 1.367 . S
C881 C880 1.367 . S
C881 C883 1.433 . S
C882 C878 1.350 . S
C882 C879 1.463 . S
C882 N886 1.427 . S
C883 H873 0.929 . S
C883 C881 1.433 . S
C883 N886 1.384 . S
C884 H875 0.929 . S
C884 C876 1.378 . S
C884 C879 1.350 . S
C885 H872 0.929 . S
C885 C877 1.433 . S
C885 N887 1.384 . S
N886 C882 1.427 . S
N886 C883 1.384 . S
N887 C879 1.427 . S
N887 C885 1.384 . S
C247 C8 1.242 . S
C251 C168 1.237 . S
C265 C28 1.237 . S
C269 C188 1.246 . S
C283 C48 1.246 . S
C287 C208 1.245 . S
C301 C228 1.245 . S
C305 C68 1.237 . S
C319 C88 1.238 . S
C323 C128 1.247 . S
C337 C148 1.244 . S
C341 C108 1.246 . S
C355 C201 0.575 . S
C359 C1 0.588 . S
C373 C221 0.598 . S
C377 C21 0.587 . S
C391 C41 0.570 . S
C395 C121 0.579 . S
C409 C141 0.576 . S
C413 C61 0.588 . S
C427 C161 0.592 . S
C431 C81 0.580 . S
C445 C101 0.572 . S
C449 C181 0.583 . S
C463 C159 2.141 . S
C467 C19 2.143 . S
C481 C179 2.150 . S
C485 C39 2.145 . S
C499 C199 2.150 . S
C503 C59 2.142 . S
C517 C79 2.141 . S
C521 C219 2.149 . S
C535 C99 2.148 . S
C539 C239 2.140 . S
C553 C119 2.150 . S
C557 C139 2.145 . S
C571 C9 0.850 . S
C575 C69 0.855 . S
C589 C29 0.854 . S
C593 C89 0.852 . S
C607 C49 0.854 . S
C611 C109 0.843 . S
C625 C189 0.842 . S
C629 C129 0.827 . S
C643 C149 0.851 . S
C647 C209 0.837 . S
C661 C229 0.854 . S
C665 C169 0.844 . S
C679 C142 0.935 . S
C683 C2 0.937 . S
C697 C162 0.943 . S
C701 C22 0.937 . S
C715 C42 0.936 . S
C719 C182 0.940 . S
C733 C202 0.948 . S
C737 C62 0.953 . S
C751 C222 0.936 . S
C755 C82 0.935 . S
C769 C102 0.951 . S
C773 C122 0.945 . S
C787 C18 2.551 . S
C791 C218 2.549 . S
C805 C38 2.549 . S
C809 C238 2.551 1_556 S
C823 C58 2.550 1_554 S
C827 C138 2.548 . S
C841 C78 2.551 . S
C845 C158 2.549 . S
C859 C98 2.548 . S
C863 C178 2.550 1_556 S
C877 C198 2.550 . S
C881 C118 2.548 1_554 S
