# Generated by pormake.
# Topology tfs, (6)-cn, num edge types: 1
# Building blocks:
#     Node 0, Type 0, BuildingBlock: HISSIN_clean_sbu_0, # of connection points: 6
#     Node 1, Type 0, BuildingBlock: HISSIN_clean_sbu_0, # of connection points: 6
#     Node 2, Type 0, BuildingBlock: HISSIN_clean_sbu_0, # of connection points: 6
#     Node 3, Type 0, BuildingBlock: HISSIN_clean_sbu_0, # of connection points: 6
#     Node 4, Type 0, BuildingBlock: HISSIN_clean_sbu_0, # of connection points: 6
#     Node 5, Type 0, BuildingBlock: HISSIN_clean_sbu_0, # of connection points: 6
#     Edge 6, Type (0, 0), BuildingBlock: CIFDUS_clean_linker_0, # of connection points: 2
#     Edge 7, Type (0, 0), BuildingBlock: CIFDUS_clean_linker_0, # of connection points: 2
#     Edge 8, Type (0, 0), BuildingBlock: CIFDUS_clean_linker_0, # of connection points: 2
#     Edge 9, Type (0, 0), BuildingBlock: CIFDUS_clean_linker_0, # of connection points: 2
#     Edge 10, Type (0, 0), BuildingBlock: CIFDUS_clean_linker_0, # of connection points: 2
#     Edge 11, Type (0, 0), BuildingBlock: CIFDUS_clean_linker_0, # of connection points: 2
#     Edge 12, Type (0, 0), BuildingBlock: CIFDUS_clean_linker_0, # of connection points: 2
#     Edge 13, Type (0, 0), BuildingBlock: CIFDUS_clean_linker_0, # of connection points: 2
#     Edge 14, Type (0, 0), BuildingBlock: CIFDUS_clean_linker_0, # of connection points: 2
#     Edge 15, Type (0, 0), BuildingBlock: CIFDUS_clean_linker_0, # of connection points: 2
#     Edge 16, Type (0, 0), BuildingBlock: CIFDUS_clean_linker_0, # of connection points: 2
#     Edge 17, Type (0, 0), BuildingBlock: CIFDUS_clean_linker_0, # of connection points: 2
#     Edge 18, Type (0, 0), BuildingBlock: CIFDUS_clean_linker_0, # of connection points: 2
#     Edge 19, Type (0, 0), BuildingBlock: CIFDUS_clean_linker_0, # of connection points: 2
#     Edge 20, Type (0, 0), BuildingBlock: CIFDUS_clean_linker_0, # of connection points: 2
#     Edge 21, Type (0, 0), BuildingBlock: CIFDUS_clean_linker_0, # of connection points: 2
#     Edge 22, Type (0, 0), BuildingBlock: CIFDUS_clean_linker_0, # of connection points: 2
#     Edge 23, Type (0, 0), BuildingBlock: CIFDUS_clean_linker_0, # of connection points: 2
# Relax obj value: 0.558
# Max RMSD: 0.297
# Mean RMSD: 0.297
data_MOF--net-tfs--node1-HISSIN_clean_sbu_0--edge1-CIFDUS_clean_linker_0
_symmetry_space_group_name_H-M    P1
_symmetry_Int_Tables_number       1
_symmetry_cell_setting            triclinic
loop_
_symmetry_equiv_pos_as_xyz
'x, y, z'
_cell_length_a     50.802472
_cell_length_b     50.6696
_cell_length_c     13.367942
_cell_angle_alpha  89.774595
_cell_angle_beta   90.368477
_cell_angle_gamma 120.17563
loop_
_atom_site_label
_atom_site_type_symbol
_atom_site_fract_x
_atom_site_fract_y
_atom_site_fract_z
_atom_type_partial_charge
Eu0 Eu 0.19781 0.39528 0.95867 0.0
Eu1 Eu 0.18482 0.45364 0.93063 0.0
C2 C 0.18834 0.42883 0.14736 0.0
C3 C 0.22848 0.33897 0.95832 0.0
C4 C 0.21745 0.30747 0.95479 0.0
C5 C 0.27912 0.3483 0.91974 0.0
C6 C 0.23714 0.29639 0.93484 0.0
C7 C 0.25937 0.35934 0.93913 0.0
C8 C 0.26832 0.31667 0.9185 0.0
C9 C 0.20792 0.35002 -0.01095 0.0
O10 O 0.23303 0.4723 0.98345 0.0
O11 O 0.2423 0.43649 0.91414 0.0
C12 C 0.25203 0.46422 0.94827 0.0
O13 O 0.19239 0.39754 0.79316 0.0
O14 O 0.15846 0.47621 0.96043 0.0
O15 O 0.19779 0.49757 0.86297 0.0
O16 O 0.19591 0.44463 0.77746 0.0
C17 C 0.19465 0.42023 0.73902 0.0
O18 O 0.1478 0.37752 0.98494 0.0
O19 O 0.14232 0.41089 0.88318 0.0
O20 O 0.17492 0.44 0.09174 0.0
O21 O 0.21992 0.37489 0.04244 0.0
O22 O 0.18854 0.34916 0.92284 0.0
O23 O 0.20332 0.41652 0.10915 0.0
C24 C 0.18556 0.53063 0.95123 0.0
C25 C 0.21627 0.55346 0.96236 0.0
C26 C 0.17047 0.56711 0.00239 0.0
C27 C 0.22398 0.58305 -0.00888 0.0
C28 C 0.1628 0.53762 0.97313 0.0
C29 C 0.20116 0.5904 0.00954 0.0
C30 C 0.17672 0.50042 0.90847 0.0
C31 C 0.13065 0.38463 0.93029 0.0
H32 H 0.19365 0.29141 0.96938 0.0
H33 H 0.30303 0.36462 0.90878 0.0
H34 H 0.22794 0.27194 0.93281 0.0
H35 H 0.26841 0.38378 0.9416 0.0
H36 H 0.23437 0.54875 0.946 0.0
H37 H 0.15229 0.57174 0.01802 0.0
H38 H 0.24782 0.6004 -0.00484 0.0
H39 H 0.13897 0.52042 0.96508 0.0
Eu40 Eu 0.80163 0.20561 -0.00063 0.0
Eu41 Eu 0.72664 0.17364 0.97292 0.0
C42 C 0.7583 0.18661 0.18705 0.0
C43 C 0.89108 0.2381 0.00898 0.0
C44 C 0.90952 0.24029 0.09076 0.0
C45 C 0.93515 0.25678 0.90032 0.0
C46 C 0.94067 0.25156 0.07817 0.0
C47 C 0.90394 0.24547 0.91298 0.0
C48 C 0.95406 0.26103 0.98336 0.0
C49 C 0.86052 0.23356 0.02869 0.0
O50 O 0.74217 0.22246 0.01014 0.0
O51 O 0.79193 0.24329 0.96083 0.0
C52 C 0.76837 0.24604 0.98466 0.0
O53 O 0.79181 0.19082 0.83847 0.0
O54 O 0.68169 0.15464 0.03929 0.0
O55 O 0.68575 0.15354 0.87854 0.0
O56 O 0.74814 0.1935 0.82358 0.0
C57 C 0.77118 0.19249 0.7833 0.0
O58 O 0.78299 0.1548 0.01839 0.0
O59 O 0.73679 0.13651 0.93863 0.0
O60 O 0.73666 0.16553 0.13123 0.0
O61 O 0.84732 0.24101 0.95914 0.0
O62 O 0.84126 0.2104 0.08259 0.0
O63 O 0.78255 0.20928 0.14636 0.0
C64 C 0.64409 0.15737 0.94026 0.0
C65 C 0.62388 0.1457 0.85887 0.0
C66 C 0.61702 0.18246 -0.00057 0.0
C67 C 0.60037 0.15225 0.84786 0.0
C68 C 0.64063 0.17606 0.01003 0.0
C69 C 0.59645 0.17048 0.91856 0.0
C70 C 0.66753 0.14855 0.95344 0.0
C71 C 0.7582 0.13236 0.97747 0.0
H72 H 0.9002 0.23507 0.16565 0.0
H73 H 0.94469 0.26339 0.82606 0.0
H74 H 0.95455 0.25477 0.14386 0.0
H75 H 0.89028 0.24403 0.84846 0.0
H76 H 0.62609 0.13121 0.80419 0.0
H77 H 0.61446 0.19621 0.05612 0.0
H78 H 0.58527 0.14303 0.78389 0.0
H79 H 0.65583 0.18537 0.07378 0.0
Eu80 Eu 0.60299 0.8021 0.08932 0.0
Eu81 Eu 0.55389 0.72744 0.06751 0.0
C82 C 0.57656 0.75896 0.27995 0.0
C83 C 0.65635 0.89071 0.06899 0.0
C84 C 0.6881 0.90937 0.06385 0.0
C85 C 0.65092 0.93291 0.00741 0.0
C86 C 0.70122 0.93964 0.03182 0.0
C87 C 0.6378 0.90257 0.03924 0.0
C88 C 0.68281 0.95193 0.00458 0.0
C89 C 0.64357 0.85991 0.1123 0.0
O90 O 0.5259 0.74941 0.09636 0.0
O91 O 0.55839 0.79849 0.04223 0.0
C92 C 0.53093 0.77622 0.06574 0.0
O93 O 0.60039 0.79222 0.92494 0.0
O94 O 0.52001 0.68516 0.13811 0.0
O95 O 0.53391 0.6843 0.9859 0.0
O96 O 0.5546 0.74687 0.91537 0.0
C97 C 0.57755 0.77084 0.87339 0.0
O98 O 0.62864 0.77731 0.12458 0.0
O99 O 0.59968 0.73441 0.03124 0.0
O100 O 0.57268 0.736 0.22444 0.0
O101 O 0.6162 0.84703 0.1497 0.0
O102 O 0.64893 0.84058 0.06554 0.0
O103 O 0.58223 0.78489 0.23989 0.0
C104 C 0.48409 0.64684 0.03282 0.0
C105 C 0.46489 0.65665 -0.00741 0.0
C106 C 0.44178 0.59482 0.03642 0.0
C107 C 0.43413 0.63557 0.97491 0.0
C108 C 0.47247 0.61586 0.05366 0.0
C109 C 0.42215 0.60443 -0.00226 0.0
C110 C 0.51582 0.66859 0.05886 0.0
C111 C 0.625 0.75289 0.07816 0.0
H112 H 0.70282 0.90066 0.08662 0.0
H113 H 0.63605 0.94173 0.98812 0.0
H114 H 0.72581 0.95348 0.02916 0.0
H115 H 0.61322 0.88866 0.04272 0.0
H116 H 0.47359 0.6806 0.97639 0.0
H117 H 0.43328 0.57118 0.05649 0.0
H118 H 0.41971 0.64366 0.94404 0.0
H119 H 0.48701 0.60802 0.08547 0.0
Eu120 Eu 0.80795 0.61203 0.93551 0.0
Eu121 Eu 0.82361 0.55587 0.96275 0.0
C122 C 0.81203 0.58767 0.1507 0.0
C123 C 0.77529 0.66583 0.94383 0.0
C124 C 0.75189 0.64752 0.0104 0.0
C125 C 0.75671 0.70147 0.93582 0.0
C126 C 0.73082 0.65607 0.03906 0.0
C127 C 0.77771 0.69287 0.90718 0.0
C128 C 0.73292 0.68306 0.00155 0.0
C129 C 0.7975 0.65722 0.91243 0.0
O130 O 0.77267 0.53163 0.97113 0.0
O131 O 0.76201 0.5692 0.92304 0.0
C132 C 0.75339 0.54071 0.94623 0.0
O133 O 0.82347 0.60447 0.78636 0.0
O134 O 0.82117 0.51874 0.05247 0.0
O135 O 0.84825 0.53295 0.91688 0.0
O136 O 0.80923 0.55393 0.80204 0.0
C137 C 0.81594 0.57793 0.7465 0.0
O138 O 0.85783 0.63522 0.97397 0.0
O139 O 0.86826 0.59769 0.93013 0.0
O140 O 0.83026 0.57923 0.11142 0.0
O141 O 0.81469 0.65605 0.98304 0.0
O142 O 0.78774 0.63433 0.85045 0.0
O143 O 0.79592 0.5956 0.09427 0.0
C144 C 0.83042 0.48247 0.97311 0.0
C145 C 0.80035 0.45958 0.95265 0.0
C146 C 0.84657 0.44497 0.96539 0.0
C147 C 0.79343 0.42934 0.93916 0.0
C148 C 0.85341 0.475 0.97882 0.0
C149 C 0.81652 0.42174 0.94567 0.0
C150 C 0.83864 0.51414 -0.00748 0.0
C151 C 0.87711 0.62591 0.95477 0.0
H152 H 0.74988 0.62661 0.03971 0.0
H153 H 0.75863 0.72211 0.90448 0.0
H154 H 0.71287 0.64157 0.09041 0.0
H155 H 0.79571 0.70722 0.85569 0.0
H156 H 0.78232 0.46503 0.94794 0.0
H157 H 0.86478 0.43984 0.97277 0.0
H158 H 0.77011 0.41197 0.92336 0.0
H159 H 0.8767 0.49242 -0.00479 0.0
Eu160 Eu 0.20248 0.80919 0.06427 0.0
Eu161 Eu 0.27536 0.82872 0.09 0.0
C162 C 0.23257 0.81529 0.27843 0.0
C163 C 0.11306 0.78325 0.03326 0.0
C164 C 0.0941 0.77462 0.11737 0.0
C165 C 0.06893 0.7676 0.92563 0.0
C166 C 0.06265 0.7614 0.10539 0.0
C167 C 0.10036 0.78037 0.93746 0.0
C168 C 0.04987 0.75723 0.00936 0.0
C169 C 0.1454 0.79262 0.04485 0.0
O170 O 0.24995 0.77732 0.09951 0.0
O171 O 0.20423 0.76669 0.02854 0.0
C172 C 0.22349 0.75814 0.05883 0.0
O173 O 0.22491 0.82867 0.91645 0.0
O174 O 0.31165 0.82823 0.1761 0.0
O175 O 0.32237 0.85457 0.03872 0.0
O176 O 0.26343 0.81758 0.9272 0.0
C177 C 0.24546 0.82397 0.87435 0.0
O178 O 0.22581 0.85971 0.09453 0.0
O179 O 0.2761 0.87311 0.07349 0.0
O180 O 0.25881 0.8348 0.23877 0.0
O181 O 0.16099 0.78953 0.97338 0.0
O182 O 0.16069 0.80468 0.12712 0.0
O183 O 0.20919 0.79731 0.22171 0.0
C184 C 0.35584 0.83654 0.08726 0.0
C185 C 0.37647 0.85132 0.00882 0.0
C186 C 0.3836 0.81067 0.13198 0.0
C187 C 0.40055 0.84597 -0.00747 0.0
C188 C 0.35955 0.81598 0.14817 0.0
C189 C 0.4046 0.82585 0.05471 0.0
C190 C 0.33276 0.8451 0.11169 0.0
C191 C 0.25484 0.88021 0.08707 0.0
H192 H 0.10338 0.77656 0.19194 0.0
H193 H 0.05935 0.76416 0.85093 0.0
H194 H 0.04816 0.75322 0.17068 0.0
H195 H 0.11459 0.78697 0.87154 0.0
H196 H 0.37444 0.8676 0.96141 0.0
H197 H 0.38634 0.79542 0.18239 0.0
H198 H 0.41617 0.8578 0.93184 0.0
H199 H 0.3444 0.80459 0.21031 0.0
Eu200 Eu 0.40153 0.199 0.9164 0.0
Eu201 Eu 0.4501 0.27319 0.94248 0.0
C202 C 0.42016 0.22922 0.13362 0.0
C203 C 0.33934 0.11224 0.9287 0.0
C204 C 0.34009 0.1047 0.02939 0.0
C205 C 0.29765 0.06081 0.89813 0.0
C206 C 0.32039 0.075 0.06329 0.0
C207 C 0.31732 0.09046 0.8644 0.0
C208 C 0.29974 0.05243 -0.00305 0.0
C209 C 0.36342 0.14095 0.88542 0.0
O210 O 0.47787 0.2508 0.97051 0.0
O211 O 0.44843 0.20635 0.88364 0.0
C212 C 0.47426 0.22603 0.92704 0.0
O213 O 0.40783 0.22066 0.76534 0.0
O214 O 0.47826 0.31201 0.03861 0.0
O215 O 0.47444 0.31953 0.88107 0.0
O216 O 0.4559 0.26165 0.78456 0.0
C217 C 0.43339 0.24225 0.72738 0.0
O218 O 0.37418 0.22043 0.96782 0.0
O219 O 0.40481 0.2675 0.89882 0.0
O220 O 0.42814 0.25581 0.09267 0.0
O221 O 0.35707 0.16229 0.86447 0.0
O222 O 0.39093 0.15178 0.9208 0.0
O223 O 0.41305 0.20487 0.07995 0.0
C224 C 0.52143 0.35327 0.96143 0.0
C225 C 0.53324 0.37615 0.88789 0.0
C226 C 0.5724 0.37385 0.03101 0.0
C227 C 0.56434 0.39768 0.8858 0.0
C228 C 0.54136 0.35225 0.03282 0.0
C229 C 0.58426 0.39691 0.95776 0.0
C230 C 0.48828 0.33164 0.96532 0.0
C231 C 0.37835 0.24663 0.93382 0.0
H232 H 0.35684 0.12128 0.08045 0.0
H233 H 0.28228 0.04398 0.84481 0.0
H234 H 0.32225 0.06931 0.14022 0.0
H235 H 0.31648 0.09587 0.78635 0.0
H236 H 0.51836 0.37751 0.83228 0.0
H237 H 0.58702 0.37283 0.08839 0.0
H238 H 0.57278 0.41488 0.82756 0.0
H239 H 0.53299 0.33503 0.091 0.0
H240 H 0.3744 0.28993 0.82713 0.0
H241 H 0.32618 0.21901 0.04581 0.0
H242 H 0.28713 0.23369 0.05766 0.0
H243 H 0.26855 0.26877 0.01284 0.0
H244 H 0.31648 0.3385 0.78986 0.0
H245 H 0.35405 0.32234 0.77385 0.0
C246 C 0.35532 0.27758 0.8773 0.0
C247 C 0.35336 0.25362 0.93628 0.0
C248 C 0.33305 0.2861 0.88354 0.0
C249 C 0.32823 0.23757 -0.00034 0.0
C250 C 0.30597 0.24603 0.0067 0.0
C251 C 0.28689 0.28012 0.95944 0.0
C252 C 0.28977 0.30508 0.90342 0.0
C253 C 0.30836 0.27052 0.94984 0.0
C254 C 0.31398 0.31968 0.83551 0.0
C255 C 0.33541 0.31034 0.82581 0.0
H256 H 0.09752 0.32907 0.02131 0.0
H257 H 0.08882 0.39186 0.82319 0.0
H258 H 0.03388 0.35803 0.81656 0.0
H259 H 0.98804 0.31235 0.87445 0.0
H260 H 0.99595 0.24934 0.07307 0.0
H261 H 0.05145 0.28158 0.07203 0.0
C262 C 0.08365 0.3353 0.97627 0.0
C263 C 0.09738 0.36315 0.92349 0.0
C264 C 0.05189 0.31575 0.973 0.0
C265 C 0.07897 0.37072 0.86519 0.0
C266 C 0.04748 0.35135 0.86118 0.0
C267 C 0.00188 0.30525 0.91579 0.0
C268 C 0.9878 0.27841 0.9736 0.0
C269 C 0.03367 0.324 0.91561 0.0
C270 C 0.00617 0.27 0.0285 0.0
C271 C 0.0379 0.28842 0.02789 0.0
H272 H 0.71782 0.08449 0.8657 0.0
H273 H 0.78487 0.10886 0.10031 0.0
H274 H 0.76868 0.0549 0.12501 0.0
H275 H 0.73187 1.00073 0.09135 0.0
H276 H 0.66497 0.97698 0.85634 0.0
H277 H 0.68449 0.03095 0.82154 0.0
C278 C 0.72916 0.07809 0.92166 0.0
C279 C 0.75228 0.10065 0.98191 0.0
C280 C 0.71944 0.04713 0.93639 0.0
C281 C 0.76702 0.09196 0.05291 0.0
C282 C 0.7576 0.06109 0.06755 0.0
C283 C 0.72192 0.00731 0.03118 0.0
C284 C 0.6967 0.98475 0.97735 0.0
C285 C 0.73331 0.03845 0.01138 0.0
C286 C 0.68394 0.9938 0.90037 0.0
C287 C 0.69521 0.02467 0.87998 0.0
H288 H 0.74143 0.73907 0.05101 0.0
H289 H 0.67158 0.64507 0.00591 0.0
H290 H 0.63228 0.6584 0.03256 0.0
H291 H 0.61771 0.69689 0.05722 0.0
H292 H 0.68658 0.79118 0.10135 0.0
H293 H 0.72648 0.77762 0.0865 0.0
C294 C 0.71759 0.72155 0.0472 0.0
C295 C 0.70942 0.69114 0.02604 0.0
C296 C 0.69503 0.72943 0.06182 0.0
C297 C 0.67848 0.66856 0.02296 0.0
C298 C 0.65598 0.67619 0.03748 0.0
C299 C 0.64146 0.71452 0.06389 0.0
C300 C 0.64929 0.74504 0.07901 0.0
C301 C 0.66402 0.70657 0.05524 0.0
C302 C 0.68007 0.76753 0.08954 0.0
C303 C 0.70282 0.75979 0.08064 0.0
H304 H 0.01765 0.69752 0.04463 0.0
H305 H 0.00899 0.7733 0.94046 0.0
H306 H 0.9539 0.73924 0.91562 0.0
H307 H 0.90838 0.68741 0.92381 0.0
H308 H 0.91915 0.61165 0.01641 0.0
H309 H 0.97333 0.6461 0.04553 0.0
C310 C 0.00353 0.70647 0.01712 0.0
C311 C 0.01682 0.73765 -0.00425 0.0
C312 C 0.97243 0.68676 0.0007 0.0
C313 C 0.99883 0.74926 0.95814 0.0
C314 C 0.9675 0.72983 0.9439 0.0
C315 C 0.9227 0.67858 0.9503 0.0
C316 C 0.90992 0.64714 0.96814 0.0
C317 C 0.95405 0.69849 0.96494 0.0
C318 C 0.9286 0.63578 0.00145 0.0
C319 C 0.95952 0.65544 0.01857 0.0
H320 H 0.22391 0.90864 0.0259 0.0
H321 H 0.30807 0.92509 0.16215 0.0
H322 H 0.32772 0.97993 0.15785 0.0
H323 H 0.3234 0.02309 0.09921 0.0
H324 H 0.24078 0.00795 0.9548 0.0
H325 H 0.21811 0.95277 0.97828 0.0
C326 C 0.24633 0.92429 0.05593 0.0
C327 C 0.26465 0.91294 0.09337 0.0
C328 C 0.25788 0.956 0.05088 0.0
C329 C 0.29373 0.93336 0.13165 0.0
C330 C 0.30498 0.96471 0.12941 0.0
C331 C 0.30011 0.00785 0.07533 0.0
C332 C 0.28382 0.01964 0.02549 0.0
C333 C 0.28758 0.97629 0.08694 0.0
C334 C 0.25389 0.99941 -0.0071 0.0
C335 C 0.24093 0.96788 0.00622 0.0
H336 H 0.25235 0.72866 0.1319 0.0
H337 H 0.17604 0.71491 0.94902 0.0
H338 H 0.16264 0.66229 0.91843 0.0
H339 H 0.17284 0.62038 0.94028 0.0
H340 H 0.24791 0.63283 0.12676 0.0
H341 H 0.26171 0.6858 0.15776 0.0
C342 C 0.23275 0.71415 0.08551 0.0
C343 C 0.21526 0.72588 0.04306 0.0
C344 C 0.22498 0.68366 0.06833 0.0
C345 C 0.18989 0.70662 0.98327 0.0
C346 C 0.1822 0.67645 0.96539 0.0
C347 C 0.19195 0.63445 -0.01092 0.0
C348 C 0.20919 0.62246 0.03134 0.0
C349 C 0.19956 0.66474 0.00745 0.0
C350 C 0.23436 0.64145 0.09233 0.0
C351 C 0.24219 0.67173 0.11055 0.0
H352 H 0.47412 0.17399 0.87373 0.0
H353 H 0.5332 0.26602 0.97893 0.0
H354 H 0.57613 0.25725 0.9822 0.0
H355 H 0.59696 0.22349 0.95746 0.0
H356 H 0.53774 0.13073 0.85964 0.0
H357 H 0.4951 0.14003 0.84926 0.0
C358 C 0.4964 0.19217 0.89693 0.0
C359 C 0.50032 0.22059 0.92615 0.0
C360 C 0.52108 0.18693 0.8996 0.0
C361 C 0.52939 0.24385 0.95645 0.0
C362 C 0.55404 0.2389 0.95825 0.0
C363 C 0.57469 0.20519 0.93468 0.0
C364 C 0.57067 0.17645 0.90951 0.0
C365 C 0.55011 0.21049 0.93065 0.0
C366 C 0.5417 0.15322 0.87817 0.0
C367 C 0.51719 0.15844 0.87293 0.0
H368 H 0.39534 0.54578 0.92964 0.0
H369 H 0.37453 0.61303 0.04157 0.0
H370 H 0.32025 0.57582 0.03315 0.0
H371 H 0.27891 0.5239 0.00099 0.0
H372 H 0.29929 0.45584 0.89399 0.0
H373 H 0.35364 0.49364 0.89525 0.0
C374 C 0.37894 0.55227 0.95265 0.0
C375 C 0.38908 0.5822 0.98631 0.0
C376 C 0.34773 0.53058 0.94939 0.0
C377 C 0.36745 0.59034 0.01403 0.0
C378 C 0.33638 0.56898 0.01014 0.0
C379 C 0.29517 0.51721 0.97798 0.0
C380 C 0.28498 0.48698 0.948 0.0
C381 C 0.3263 0.53899 0.97898 0.0
C382 C 0.30646 0.47891 0.91771 0.0
C383 C 0.33755 0.50052 0.91834 0.0
H384 H 0.76851 0.37029 0.02328 0.0
H385 H 0.84921 0.40137 0.84401 0.0
H386 H 0.84121 0.34975 0.83995 0.0
H387 H 0.81264 0.29641 0.89252 0.0
H388 H 0.73112 0.26444 0.06803 0.0
H389 H 0.73788 0.31576 0.06707 0.0
C390 C 0.78404 0.36565 0.9819 0.0
C391 C 0.8096 0.38973 0.93491 0.0
C392 C 0.77926 0.33584 0.97958 0.0
C393 C 0.82967 0.38337 0.88237 0.0
C394 C 0.82507 0.35384 0.87969 0.0
C395 C 0.79631 0.30061 0.93062 0.0
C396 C 0.7716 0.2767 0.98111 0.0
C397 C 0.80023 0.33003 0.92931 0.0
C398 C 0.75041 0.28247 0.02877 0.0
C399 C 0.75427 0.31181 0.02836 0.0
H400 H 0.40524 0.77273 0.06655 0.0
H401 H 0.46381 0.86924 0.01537 0.0
H402 H 0.50812 0.86242 0.00877 0.0
H403 H 0.5306 0.82931 0.02831 0.0
H404 H 0.4712 0.73303 0.08523 0.0
H405 H 0.42714 0.7397 0.08034 0.0
C406 C 0.42771 0.79232 0.0543 0.0
C407 C 0.43119 0.82145 0.04233 0.0
C408 C 0.45308 0.78834 0.05257 0.0
C409 C 0.46041 0.84648 0.02412 0.0
C410 C 0.48582 0.84264 0.02115 0.0
C411 C 0.50801 0.80979 0.03918 0.0
C412 C 0.5044 0.78081 0.05814 0.0
C413 C 0.48249 0.81373 0.03686 0.0
C414 C 0.47487 0.75572 0.07161 0.0
C415 C 0.44952 0.75943 0.0686 0.0
H416 H 0.72731 0.47967 0.97971 0.0
H417 H 0.70532 0.54957 0.90707 0.0
H418 H 0.65121 0.51123 0.90329 0.0
H419 H 0.61012 0.45801 0.92301 0.0
H420 H 0.63252 0.38828 -0.00771 0.0
H421 H 0.68654 0.42664 -0.0037 0.0
C422 C 0.71077 0.48665 0.9631 0.0
C423 C 0.7205 0.51756 0.94389 0.0
C424 C 0.67972 0.46454 0.96087 0.0
C425 C 0.69858 0.52599 0.92221 0.0
C426 C 0.66759 0.50407 0.92003 0.0
C427 C 0.62682 0.45113 0.93778 0.0
C428 C 0.6172 0.42027 0.95745 0.0
C429 C 0.65791 0.47329 0.93929 0.0
C430 C 0.6392 0.41189 0.97821 0.0
C431 C 0.67013 0.43379 0.97999 0.0
H432 H 0.18173 0.45214 0.60508 0.0
H433 H 0.20782 0.38327 0.62784 0.0
H434 H 0.20787 0.37987 0.44558 0.0
H435 H 0.20071 0.39659 0.28138 0.0
H436 H 0.1735 0.46461 0.25844 0.0
H437 H 0.17353 0.4681 0.44076 0.0
C438 C 0.18761 0.4365 0.57025 0.0
C439 C 0.19497 0.41814 0.62953 0.0
C440 C 0.18727 0.43444 0.46605 0.0
C441 C 0.20206 0.39763 0.58355 0.0
C442 C 0.20212 0.3957 0.47957 0.0
C443 C 0.19486 0.41227 0.31615 0.0
C444 C 0.1873 0.43048 0.25681 0.0
C445 C 0.19478 0.41402 0.42034 0.0
C446 C 0.17935 0.45034 0.30277 0.0
C447 C 0.17946 0.4524 0.40678 0.0
H448 H 0.72546 0.17127 0.64657 0.0
H449 H 0.82322 0.21585 0.67331 0.0
H450 H 0.82789 0.21858 0.4909 0.0
H451 H 0.80411 0.20851 0.32379 0.0
H452 H 0.7062 0.16053 0.29715 0.0
H453 H 0.7016 0.15882 0.47953 0.0
C454 C 0.74778 0.18165 0.61232 0.0
C455 C 0.77397 0.19358 0.67312 0.0
C456 C 0.75022 0.18248 0.50755 0.0
C457 C 0.80273 0.20649 0.62798 0.0
C458 C 0.8054 0.20812 0.52377 0.0
C459 C 0.78177 0.19774 0.35804 0.0
C460 C 0.75553 0.18487 0.29725 0.0
C461 C 0.77931 0.19624 0.46283 0.0
C462 C 0.72673 0.17055 0.34244 0.0
C463 C 0.72409 0.16964 0.44664 0.0
H464 H 0.55392 0.7249 0.73798 0.0
H465 H 0.60362 0.82308 0.76377 0.0
H466 H 0.60736 0.82796 0.5818 0.0
H467 H 0.59745 0.80441 0.41636 0.0
H468 H 0.55021 0.70624 0.38953 0.0
H469 H 0.54479 0.70123 0.5714 0.0
C470 C 0.56531 0.74733 0.70349 0.0
C471 C 0.57833 0.77359 0.7637 0.0
C472 C 0.56806 0.74994 0.59907 0.0
C473 C 0.59347 0.80255 0.71862 0.0
C474 C 0.59563 0.80535 0.61477 0.0
C475 C 0.58592 0.78189 0.45021 0.0
C476 C 0.57418 0.75573 0.3897 0.0
C477 C 0.5832 0.77921 0.55442 0.0
C478 C 0.55958 0.72673 0.43467 0.0
C479 C 0.55635 0.72385 0.53852 0.0
H480 H 0.80448 0.61086 0.61087 0.0
H481 H 0.82604 0.53889 0.63523 0.0
H482 H 0.82694 0.53577 0.45276 0.0
H483 H 0.82249 0.55414 0.2865 0.0
H484 H 0.79759 0.62373 0.26177 0.0
H485 H 0.79696 0.62708 0.44431 0.0
C486 C 0.80943 0.59454 0.5761 0.0
C487 C 0.81551 0.57535 0.63628 0.0
C488 C 0.80928 0.59245 0.47128 0.0
C489 C 0.82132 0.55391 0.59044 0.0
C490 C 0.8219 0.55217 0.48619 0.0
C491 C 0.81696 0.57007 0.32115 0.0
C492 C 0.81041 0.5889 0.26088 0.0
C493 C 0.81608 0.57144 0.42593 0.0
C494 C 0.80274 0.60902 0.30663 0.0
C495 C 0.80246 0.611 0.41092 0.0
H496 H 0.27809 0.8376 0.41614 0.0
H497 H 0.18016 0.79004 0.38866 0.0
H498 H 0.17553 0.78962 0.57088 0.0
H499 H 0.1995 0.80304 0.73846 0.0
H500 H 0.29721 0.8473 0.7648 0.0
H501 H 0.30182 0.8491 0.58241 0.0
C502 C 0.2557 0.82717 0.44988 0.0
C503 C 0.22952 0.81405 0.38877 0.0
C504 C 0.25322 0.8266 0.55449 0.0
C505 C 0.20069 0.80029 0.4339 0.0
C506 C 0.19803 0.80013 0.5381 0.0
C507 C 0.22176 0.81319 0.7039 0.0
C508 C 0.24802 0.82525 0.76441 0.0
C509 C 0.22415 0.81331 0.59912 0.0
C510 C 0.27673 0.83787 0.71937 0.0
C511 C 0.27935 0.83891 0.61529 0.0
H512 H 0.40173 0.19757 0.59284 0.0
H513 H 0.47115 0.29253 0.61573 0.0
H514 H 0.47266 0.29701 0.43307 0.0
H515 H 0.45323 0.27407 0.26741 0.0
H516 H 0.38554 0.17846 0.2459 0.0
H517 H 0.38422 0.17412 0.42815 0.0
C518 C 0.41721 0.21927 0.55789 0.0
C519 C 0.43609 0.24477 0.61749 0.0
C520 C 0.41811 0.22157 0.45339 0.0
C521 C 0.45641 0.27258 0.57129 0.0
C522 C 0.45716 0.27518 0.46701 0.0
C523 C 0.43808 0.25234 0.30279 0.0
C524 C 0.41924 0.2267 0.24361 0.0
C525 C 0.4379 0.24988 0.40743 0.0
C526 C 0.40017 0.19853 0.29004 0.0
C527 C 0.39942 0.19603 0.39411 0.0
loop_
_geom_bond_atom_site_label_1
_geom_bond_atom_site_label_2
_geom_bond_distance
_geom_bond_site_symmetry_2
_ccdc_geom_bond_type
Eu0 C9 2.828 1_556 S
Eu0 O11 2.392 . S
Eu0 O13 2.418 . S
Eu0 O18 2.373 . S
Eu0 O21 2.488 . S
Eu0 O22 2.471 1_556 S
Eu0 O23 2.349 1_556 S
Eu1 O10 2.373 . S
Eu1 O14 2.488 . S
Eu1 O15 2.471 1_554 S
Eu1 O16 2.349 1_554 S
Eu1 O19 2.392 . S
Eu1 O20 2.418 . S
Eu1 C30 2.828 1_554 S
C2 O20 1.244 . S
C2 O23 1.265 . S
C3 C4 1.379 . S
C3 C7 1.373 1_554 S
C3 C9 1.505 . S
C4 C3 1.379 . S
C4 C6 1.369 . S
C4 H32 0.930 . S
C5 C7 1.383 . S
C5 C8 1.382 1_556 S
C5 H33 0.930 . S
C6 C4 1.369 . S
C6 C8 1.392 . S
C6 H34 0.930 . S
C7 C3 1.373 1_556 S
C7 C5 1.383 . S
C7 H35 0.931 . S
C8 C5 1.382 1_554 S
C8 C6 1.392 . S
C9 Eu0 2.828 1_554 S
C9 C3 1.505 . S
C9 O21 1.249 1_554 S
C9 O22 1.244 . S
O10 Eu1 2.373 . S
O10 C12 1.258 . S
O11 Eu0 2.392 . S
O11 C12 1.242 1_556 S
C12 O10 1.258 . S
C12 O11 1.242 1_554 S
O13 Eu0 2.418 . S
O13 C17 1.244 . S
O14 Eu1 2.488 . S
O14 C30 1.249 1_554 S
O15 Eu1 2.471 1_556 S
O15 C30 1.244 . S
O16 Eu1 2.349 1_556 S
O16 C17 1.265 . S
C17 O13 1.244 . S
C17 O16 1.265 . S
O18 Eu0 2.373 . S
O18 C31 1.258 . S
O19 Eu1 2.392 . S
O19 C31 1.242 1_554 S
O20 Eu1 2.418 . S
O20 C2 1.244 . S
O21 Eu0 2.488 . S
O21 C9 1.249 1_556 S
O22 Eu0 2.471 1_554 S
O22 C9 1.244 . S
O23 Eu0 2.349 1_554 S
O23 C2 1.265 . S
C24 C25 1.379 . S
C24 C28 1.373 1_556 S
C24 C30 1.505 . S
C25 C24 1.379 . S
C25 C27 1.369 . S
C25 H36 0.930 . S
C26 C28 1.383 . S
C26 C29 1.382 1_554 S
C26 H37 0.930 . S
C27 C25 1.369 . S
C27 C29 1.392 . S
C27 H38 0.930 . S
C28 C24 1.373 1_554 S
C28 C26 1.383 . S
C28 H39 0.931 . S
C29 C26 1.382 1_556 S
C29 C27 1.392 . S
C30 Eu1 2.828 1_556 S
C30 O14 1.249 1_556 S
C30 O15 1.244 . S
C30 C24 1.505 . S
C31 O18 1.258 . S
C31 O19 1.242 1_556 S
H32 C4 0.930 . S
H33 C5 0.930 . S
H34 C6 0.930 . S
H35 C7 0.931 . S
H36 C25 0.930 . S
H37 C26 0.930 . S
H38 C27 0.930 . S
H39 C28 0.931 . S
Eu40 C49 2.828 1_556 S
Eu40 O51 2.392 . S
Eu40 O53 2.418 . S
Eu40 O58 2.373 . S
Eu40 O61 2.488 . S
Eu40 O62 2.471 1_556 S
Eu40 O63 2.349 1_556 S
Eu41 O50 2.373 . S
Eu41 O54 2.488 . S
Eu41 O55 2.471 1_554 S
Eu41 O56 2.349 1_554 S
Eu41 O59 2.392 . S
Eu41 O60 2.418 . S
Eu41 C70 2.828 1_554 S
C42 O60 1.244 . S
C42 O63 1.265 . S
C43 C44 1.379 . S
C43 C47 1.373 1_554 S
C43 C49 1.505 . S
C44 C43 1.379 . S
C44 C46 1.369 . S
C44 H72 0.930 . S
C45 C47 1.383 . S
C45 C48 1.382 1_556 S
C45 H73 0.930 . S
C46 C44 1.369 . S
C46 C48 1.392 . S
C46 H74 0.930 . S
C47 C43 1.373 1_556 S
C47 C45 1.383 . S
C47 H75 0.931 . S
C48 C45 1.382 1_554 S
C48 C46 1.392 . S
C49 Eu40 2.828 1_554 S
C49 C43 1.505 . S
C49 O61 1.249 1_554 S
C49 O62 1.244 . S
O50 Eu41 2.373 . S
O50 C52 1.258 . S
O51 Eu40 2.392 . S
O51 C52 1.242 1_556 S
C52 O50 1.258 . S
C52 O51 1.242 1_554 S
O53 Eu40 2.418 . S
O53 C57 1.244 . S
O54 Eu41 2.488 . S
O54 C70 1.249 1_554 S
O55 Eu41 2.471 1_556 S
O55 C70 1.244 . S
O56 Eu41 2.349 1_556 S
O56 C57 1.265 . S
C57 O53 1.244 . S
C57 O56 1.265 . S
O58 Eu40 2.373 . S
O58 C71 1.258 . S
O59 Eu41 2.392 . S
O59 C71 1.242 1_554 S
O60 Eu41 2.418 . S
O60 C42 1.244 . S
O61 Eu40 2.488 . S
O61 C49 1.249 1_556 S
O62 Eu40 2.471 1_554 S
O62 C49 1.244 . S
O63 Eu40 2.349 1_554 S
O63 C42 1.265 . S
C64 C65 1.379 . S
C64 C68 1.373 1_556 S
C64 C70 1.505 . S
C65 C64 1.379 . S
C65 C67 1.369 . S
C65 H76 0.930 . S
C66 C68 1.383 . S
C66 C69 1.382 1_554 S
C66 H77 0.930 . S
C67 C65 1.369 . S
C67 C69 1.392 . S
C67 H78 0.930 . S
C68 C64 1.373 1_554 S
C68 C66 1.383 . S
C68 H79 0.931 . S
C69 C66 1.382 1_556 S
C69 C67 1.392 . S
C70 Eu41 2.828 1_556 S
C70 O54 1.249 1_556 S
C70 O55 1.244 . S
C70 C64 1.505 . S
C71 O58 1.258 . S
C71 O59 1.242 1_556 S
H72 C44 0.930 . S
H73 C45 0.930 . S
H74 C46 0.930 . S
H75 C47 0.931 . S
H76 C65 0.930 . S
H77 C66 0.930 . S
H78 C67 0.930 . S
H79 C68 0.931 . S
Eu80 C89 2.828 1_556 S
Eu80 O91 2.392 . S
Eu80 O93 2.418 . S
Eu80 O98 2.373 . S
Eu80 O101 2.488 . S
Eu80 O102 2.471 1_556 S
Eu80 O103 2.349 1_556 S
Eu81 O90 2.373 . S
Eu81 O94 2.488 . S
Eu81 O95 2.471 1_554 S
Eu81 O96 2.349 1_554 S
Eu81 O99 2.392 . S
Eu81 O100 2.418 . S
Eu81 C110 2.828 1_554 S
C82 O100 1.244 . S
C82 O103 1.265 . S
C83 C84 1.379 . S
C83 C87 1.373 1_554 S
C83 C89 1.505 . S
C84 C83 1.379 . S
C84 C86 1.369 . S
C84 H112 0.930 . S
C85 C87 1.383 . S
C85 C88 1.382 1_556 S
C85 H113 0.930 . S
C86 C84 1.369 . S
C86 C88 1.392 . S
C86 H114 0.930 . S
C87 C83 1.373 1_556 S
C87 C85 1.383 . S
C87 H115 0.931 . S
C88 C85 1.382 1_554 S
C88 C86 1.392 . S
C89 Eu80 2.828 1_554 S
C89 C83 1.505 . S
C89 O101 1.249 1_554 S
C89 O102 1.244 . S
O90 Eu81 2.373 . S
O90 C92 1.258 . S
O91 Eu80 2.392 . S
O91 C92 1.242 1_556 S
C92 O90 1.258 . S
C92 O91 1.242 1_554 S
O93 Eu80 2.418 . S
O93 C97 1.244 . S
O94 Eu81 2.488 . S
O94 C110 1.249 1_554 S
O95 Eu81 2.471 1_556 S
O95 C110 1.244 . S
O96 Eu81 2.349 1_556 S
O96 C97 1.265 . S
C97 O93 1.244 . S
C97 O96 1.265 . S
O98 Eu80 2.373 . S
O98 C111 1.258 . S
O99 Eu81 2.392 . S
O99 C111 1.242 1_554 S
O100 Eu81 2.418 . S
O100 C82 1.244 . S
O101 Eu80 2.488 . S
O101 C89 1.249 1_556 S
O102 Eu80 2.471 1_554 S
O102 C89 1.244 . S
O103 Eu80 2.349 1_554 S
O103 C82 1.265 . S
C104 C105 1.379 . S
C104 C108 1.373 1_556 S
C104 C110 1.505 . S
C105 C104 1.379 . S
C105 C107 1.369 . S
C105 H116 0.930 . S
C106 C108 1.383 . S
C106 C109 1.382 1_554 S
C106 H117 0.930 . S
C107 C105 1.369 . S
C107 C109 1.392 . S
C107 H118 0.930 . S
C108 C104 1.373 1_554 S
C108 C106 1.383 . S
C108 H119 0.931 . S
C109 C106 1.382 1_556 S
C109 C107 1.392 . S
C110 Eu81 2.828 1_556 S
C110 O94 1.249 1_556 S
C110 O95 1.244 . S
C110 C104 1.505 . S
C111 O98 1.258 . S
C111 O99 1.242 1_556 S
H112 C84 0.930 . S
H113 C85 0.930 . S
H114 C86 0.930 . S
H115 C87 0.931 . S
H116 C105 0.930 . S
H117 C106 0.930 . S
H118 C107 0.930 . S
H119 C108 0.931 . S
Eu120 C129 2.828 1_556 S
Eu120 O131 2.392 . S
Eu120 O133 2.418 . S
Eu120 O138 2.373 . S
Eu120 O141 2.488 . S
Eu120 O142 2.471 1_556 S
Eu120 O143 2.349 1_556 S
Eu121 O130 2.373 . S
Eu121 O134 2.488 . S
Eu121 O135 2.471 1_554 S
Eu121 O136 2.349 1_554 S
Eu121 O139 2.392 . S
Eu121 O140 2.418 . S
Eu121 C150 2.828 1_554 S
C122 O140 1.244 . S
C122 O143 1.265 . S
C123 C124 1.379 . S
C123 C127 1.373 1_554 S
C123 C129 1.505 . S
C124 C123 1.379 . S
C124 C126 1.369 . S
C124 H152 0.930 . S
C125 C127 1.383 . S
C125 C128 1.382 1_556 S
C125 H153 0.930 . S
C126 C124 1.369 . S
C126 C128 1.392 . S
C126 H154 0.930 . S
C127 C123 1.373 1_556 S
C127 C125 1.383 . S
C127 H155 0.931 . S
C128 C125 1.382 1_554 S
C128 C126 1.392 . S
C129 Eu120 2.828 1_554 S
C129 C123 1.505 . S
C129 O141 1.249 1_554 S
C129 O142 1.244 . S
O130 Eu121 2.373 . S
O130 C132 1.258 . S
O131 Eu120 2.392 . S
O131 C132 1.242 1_556 S
C132 O130 1.258 . S
C132 O131 1.242 1_554 S
O133 Eu120 2.418 . S
O133 C137 1.244 . S
O134 Eu121 2.488 . S
O134 C150 1.249 1_554 S
O135 Eu121 2.471 1_556 S
O135 C150 1.244 . S
O136 Eu121 2.349 1_556 S
O136 C137 1.265 . S
C137 O133 1.244 . S
C137 O136 1.265 . S
O138 Eu120 2.373 . S
O138 C151 1.258 . S
O139 Eu121 2.392 . S
O139 C151 1.242 1_554 S
O140 Eu121 2.418 . S
O140 C122 1.244 . S
O141 Eu120 2.488 . S
O141 C129 1.249 1_556 S
O142 Eu120 2.471 1_554 S
O142 C129 1.244 . S
O143 Eu120 2.349 1_554 S
O143 C122 1.265 . S
C144 C145 1.379 . S
C144 C148 1.373 1_556 S
C144 C150 1.505 . S
C145 C144 1.379 . S
C145 C147 1.369 . S
C145 H156 0.930 . S
C146 C148 1.383 . S
C146 C149 1.382 1_554 S
C146 H157 0.930 . S
C147 C145 1.369 . S
C147 C149 1.392 . S
C147 H158 0.930 . S
C148 C144 1.373 1_554 S
C148 C146 1.383 . S
C148 H159 0.931 . S
C149 C146 1.382 1_556 S
C149 C147 1.392 . S
C150 Eu121 2.828 1_556 S
C150 O134 1.249 1_556 S
C150 O135 1.244 . S
C150 C144 1.505 . S
C151 O138 1.258 . S
C151 O139 1.242 1_556 S
H152 C124 0.930 . S
H153 C125 0.930 . S
H154 C126 0.930 . S
H155 C127 0.931 . S
H156 C145 0.930 . S
H157 C146 0.930 . S
H158 C147 0.930 . S
H159 C148 0.931 . S
Eu160 C169 2.828 1_556 S
Eu160 O171 2.392 . S
Eu160 O173 2.418 . S
Eu160 O178 2.373 . S
Eu160 O181 2.488 . S
Eu160 O182 2.471 1_556 S
Eu160 O183 2.349 1_556 S
Eu161 O170 2.373 . S
Eu161 O174 2.488 . S
Eu161 O175 2.471 1_554 S
Eu161 O176 2.349 1_554 S
Eu161 O179 2.392 . S
Eu161 O180 2.418 . S
Eu161 C190 2.828 1_554 S
C162 O180 1.244 . S
C162 O183 1.265 . S
C163 C164 1.379 . S
C163 C167 1.373 1_554 S
C163 C169 1.505 . S
C164 C163 1.379 . S
C164 C166 1.369 . S
C164 H192 0.930 . S
C165 C167 1.383 . S
C165 C168 1.382 1_556 S
C165 H193 0.930 . S
C166 C164 1.369 . S
C166 C168 1.392 . S
C166 H194 0.930 . S
C167 C163 1.373 1_556 S
C167 C165 1.383 . S
C167 H195 0.931 . S
C168 C165 1.382 1_554 S
C168 C166 1.392 . S
C169 Eu160 2.828 1_554 S
C169 C163 1.505 . S
C169 O181 1.249 1_554 S
C169 O182 1.244 . S
O170 Eu161 2.373 . S
O170 C172 1.258 . S
O171 Eu160 2.392 . S
O171 C172 1.242 1_556 S
C172 O170 1.258 . S
C172 O171 1.242 1_554 S
O173 Eu160 2.418 . S
O173 C177 1.244 . S
O174 Eu161 2.488 . S
O174 C190 1.249 1_554 S
O175 Eu161 2.471 1_556 S
O175 C190 1.244 . S
O176 Eu161 2.349 1_556 S
O176 C177 1.265 . S
C177 O173 1.244 . S
C177 O176 1.265 . S
O178 Eu160 2.373 . S
O178 C191 1.258 . S
O179 Eu161 2.392 . S
O179 C191 1.242 1_554 S
O180 Eu161 2.418 . S
O180 C162 1.244 . S
O181 Eu160 2.488 . S
O181 C169 1.249 1_556 S
O182 Eu160 2.471 1_554 S
O182 C169 1.244 . S
O183 Eu160 2.349 1_554 S
O183 C162 1.265 . S
C184 C185 1.379 . S
C184 C188 1.373 1_556 S
C184 C190 1.505 . S
C185 C184 1.379 . S
C185 C187 1.369 . S
C185 H196 0.930 . S
C186 C188 1.383 . S
C186 C189 1.382 1_554 S
C186 H197 0.930 . S
C187 C185 1.369 . S
C187 C189 1.392 . S
C187 H198 0.930 . S
C188 C184 1.373 1_554 S
C188 C186 1.383 . S
C188 H199 0.931 . S
C189 C186 1.382 1_556 S
C189 C187 1.392 . S
C190 Eu161 2.828 1_556 S
C190 O174 1.249 1_556 S
C190 O175 1.244 . S
C190 C184 1.505 . S
C191 O178 1.258 . S
C191 O179 1.242 1_556 S
H192 C164 0.930 . S
H193 C165 0.930 . S
H194 C166 0.930 . S
H195 C167 0.931 . S
H196 C185 0.930 . S
H197 C186 0.930 . S
H198 C187 0.930 . S
H199 C188 0.931 . S
Eu200 C209 2.828 1_556 S
Eu200 O211 2.392 . S
Eu200 O213 2.418 . S
Eu200 O218 2.373 . S
Eu200 O221 2.488 . S
Eu200 O222 2.471 1_556 S
Eu200 O223 2.349 1_556 S
Eu201 O210 2.373 . S
Eu201 O214 2.488 . S
Eu201 O215 2.471 1_554 S
Eu201 O216 2.349 1_554 S
Eu201 O219 2.392 . S
Eu201 O220 2.418 . S
Eu201 C230 2.828 1_554 S
C202 O220 1.244 . S
C202 O223 1.265 . S
C203 C204 1.379 . S
C203 C207 1.373 1_554 S
C203 C209 1.505 . S
C204 C203 1.379 . S
C204 C206 1.369 . S
C204 H232 0.930 . S
C205 C207 1.383 . S
C205 C208 1.382 1_556 S
C205 H233 0.930 . S
C206 C204 1.369 . S
C206 C208 1.392 . S
C206 H234 0.930 . S
C207 C203 1.373 1_556 S
C207 C205 1.383 . S
C207 H235 0.931 . S
C208 C205 1.382 1_554 S
C208 C206 1.392 . S
C209 Eu200 2.828 1_554 S
C209 C203 1.505 . S
C209 O221 1.249 1_554 S
C209 O222 1.244 . S
O210 Eu201 2.373 . S
O210 C212 1.258 . S
O211 Eu200 2.392 . S
O211 C212 1.242 1_556 S
C212 O210 1.258 . S
C212 O211 1.242 1_554 S
O213 Eu200 2.418 . S
O213 C217 1.244 . S
O214 Eu201 2.488 . S
O214 C230 1.249 1_554 S
O215 Eu201 2.471 1_556 S
O215 C230 1.244 . S
O216 Eu201 2.349 1_556 S
O216 C217 1.265 . S
C217 O213 1.244 . S
C217 O216 1.265 . S
O218 Eu200 2.373 . S
O218 C231 1.258 . S
O219 Eu201 2.392 . S
O219 C231 1.242 1_554 S
O220 Eu201 2.418 . S
O220 C202 1.244 . S
O221 Eu200 2.488 . S
O221 C209 1.249 1_556 S
O222 Eu200 2.471 1_554 S
O222 C209 1.244 . S
O223 Eu200 2.349 1_554 S
O223 C202 1.265 . S
C224 C225 1.379 . S
C224 C228 1.373 1_556 S
C224 C230 1.505 . S
C225 C224 1.379 . S
C225 C227 1.369 . S
C225 H236 0.930 . S
C226 C228 1.383 . S
C226 C229 1.382 1_554 S
C226 H237 0.930 . S
C227 C225 1.369 . S
C227 C229 1.392 . S
C227 H238 0.930 . S
C228 C224 1.373 1_554 S
C228 C226 1.383 . S
C228 H239 0.931 . S
C229 C226 1.382 1_556 S
C229 C227 1.392 . S
C230 Eu201 2.828 1_556 S
C230 O214 1.249 1_556 S
C230 O215 1.244 . S
C230 C224 1.505 . S
C231 O218 1.258 . S
C231 O219 1.242 1_556 S
H232 C204 0.930 . S
H233 C205 0.930 . S
H234 C206 0.930 . S
H235 C207 0.931 . S
H236 C225 0.930 . S
H237 C226 0.930 . S
H238 C227 0.930 . S
H239 C228 0.931 . S
H240 C246 0.930 . S
H241 C249 0.930 . S
H242 C250 0.930 . S
H243 C251 0.930 . S
H244 C254 0.930 1_556 S
H245 C255 0.930 . S
C246 H240 0.930 . S
C246 C247 1.355 1_556 S
C246 C248 1.415 1_556 S
C247 C246 1.355 1_554 S
C247 C249 1.419 . S
C248 C246 1.415 1_554 S
C248 C253 1.425 . S
C248 C255 1.409 1_554 S
C249 H241 0.930 . S
C249 C247 1.419 . S
C249 C250 1.362 . S
C250 H242 0.930 . S
C250 C249 1.362 . S
C250 C253 1.409 . S
C251 H243 0.930 . S
C251 C252 1.355 . S
C251 C253 1.415 . S
C252 C251 1.355 . S
C252 C254 1.419 . S
C253 C248 1.425 . S
C253 C250 1.409 . S
C253 C251 1.415 . S
C254 H244 0.930 1_554 S
C254 C252 1.419 . S
C254 C255 1.362 1_554 S
C255 H245 0.930 . S
C255 C248 1.409 1_556 S
C255 C254 1.362 1_556 S
H256 C262 0.930 . S
H257 C265 0.930 . S
H258 C266 0.930 . S
H259 C267 0.930 . S
H260 C270 0.930 . S
H261 C271 0.930 . S
C262 H256 0.930 . S
C262 C263 1.355 1_554 S
C262 C264 1.415 . S
C263 C262 1.355 1_556 S
C263 C265 1.419 . S
C264 C262 1.415 . S
C264 C269 1.425 1_554 S
C264 C271 1.409 . S
C265 H257 0.930 . S
C265 C263 1.419 . S
C265 C266 1.362 . S
C266 H258 0.930 . S
C266 C265 1.362 . S
C266 C269 1.409 . S
C267 H259 0.930 . S
C267 C268 1.355 1_556 S
C267 C269 1.415 . S
C268 C267 1.355 1_554 S
C268 C270 1.419 . S
C269 C264 1.425 1_556 S
C269 C266 1.409 . S
C269 C267 1.415 . S
C270 H260 0.930 . S
C270 C268 1.419 . S
C270 C271 1.362 . S
C271 H261 0.930 . S
C271 C264 1.409 . S
C271 C270 1.362 . S
H272 C278 0.930 . S
H273 C281 0.930 . S
H274 C282 0.930 . S
H275 C283 0.931 1_565 S
H276 C286 0.930 . S
H277 C287 0.930 . S
C278 H272 0.930 . S
C278 C279 1.355 1_556 S
C278 C280 1.415 1_556 S
C279 C278 1.355 1_554 S
C279 C281 1.419 . S
C280 C278 1.415 1_554 S
C280 C285 1.425 . S
C280 C287 1.409 . S
C281 H273 0.930 . S
C281 C279 1.419 . S
C281 C282 1.362 . S
C282 H274 0.930 . S
C282 C281 1.362 . S
C282 C285 1.409 . S
C283 H275 0.931 1_545 S
C283 C284 1.355 . S
C283 C285 1.415 . S
C284 C283 1.355 . S
C284 C286 1.419 . S
C285 C280 1.425 . S
C285 C282 1.409 . S
C285 C283 1.415 . S
C286 H276 0.930 . S
C286 C284 1.419 . S
C286 C287 1.362 . S
C287 H277 0.930 . S
C287 C280 1.409 . S
C287 C286 1.362 . S
H288 C294 0.930 . S
H289 C297 0.930 . S
H290 C298 0.930 . S
H291 C299 0.930 . S
H292 C302 0.930 . S
H293 C303 0.930 . S
C294 H288 0.930 . S
C294 C295 1.355 1_556 S
C294 C296 1.415 . S
C295 C294 1.355 1_554 S
C295 C297 1.419 . S
C296 C294 1.415 . S
C296 C301 1.425 1_556 S
C296 C303 1.409 . S
C297 H289 0.930 . S
C297 C295 1.419 . S
C297 C298 1.362 . S
C298 H290 0.930 . S
C298 C297 1.362 . S
C298 C301 1.409 . S
C299 H291 0.930 . S
C299 C300 1.355 1_554 S
C299 C301 1.415 . S
C300 C299 1.355 1_556 S
C300 C302 1.419 . S
C301 C296 1.425 1_554 S
C301 C298 1.409 . S
C301 C299 1.415 . S
C302 H292 0.930 . S
C302 C300 1.419 . S
C302 C303 1.362 . S
C303 H293 0.930 . S
C303 C296 1.409 . S
C303 C302 1.362 . S
H304 C310 0.908 1_455 S
H305 C313 0.930 . S
H306 C314 0.930 1_556 S
H307 C315 0.930 1_556 S
H308 C318 0.930 . S
H309 C319 0.930 . S
C310 H304 0.908 1_655 S
C310 C311 1.355 . S
C310 C312 1.415 . S
C311 C310 1.355 . S
C311 C313 1.419 . S
C312 C310 1.415 . S
C312 C317 1.425 . S
C312 C319 1.409 . S
C313 H305 0.930 . S
C313 C311 1.419 . S
C313 C314 1.362 . S
C314 H306 0.930 1_554 S
C314 C313 1.362 . S
C314 C317 1.409 . S
C315 H307 0.930 1_554 S
C315 C316 1.355 . S
C315 C317 1.415 . S
C316 C315 1.355 . S
C316 C318 1.419 . S
C317 C312 1.425 . S
C317 C314 1.409 . S
C317 C315 1.415 . S
C318 H308 0.930 . S
C318 C316 1.419 . S
C318 C319 1.362 . S
C319 H309 0.930 . S
C319 C312 1.409 . S
C319 C318 1.362 . S
H320 C326 0.930 . S
H321 C329 0.930 . S
H322 C330 0.930 . S
H323 C331 0.930 . S
H324 C334 0.930 1_556 S
H325 C335 0.930 . S
C326 H320 0.930 . S
C326 C327 1.355 1_556 S
C326 C328 1.415 1_556 S
C327 C326 1.355 1_554 S
C327 C329 1.419 . S
C328 C326 1.415 1_554 S
C328 C333 1.425 . S
C328 C335 1.409 1_554 S
C329 H321 0.930 . S
C329 C327 1.419 . S
C329 C330 1.362 . S
C330 H322 0.930 . S
C330 C329 1.362 . S
C330 C333 1.409 . S
C331 H323 0.930 . S
C331 C332 1.355 . S
C331 C333 1.415 . S
C332 C331 1.355 . S
C332 C334 1.419 . S
C333 C328 1.425 . S
C333 C330 1.409 . S
C333 C331 1.415 . S
C334 H324 0.930 1_554 S
C334 C332 1.419 . S
C334 C335 1.362 1_554 S
C335 H325 0.930 . S
C335 C328 1.409 1_556 S
C335 C334 1.362 1_556 S
H336 C342 0.930 . S
H337 C345 0.930 . S
H338 C346 0.930 . S
H339 C347 0.930 . S
H340 C350 0.930 . S
H341 C351 0.930 . S
C342 H336 0.930 . S
C342 C343 1.355 1_554 S
C342 C344 1.415 1_554 S
C343 C342 1.355 1_556 S
C343 C345 1.419 . S
C344 C342 1.415 1_556 S
C344 C349 1.425 . S
C344 C351 1.409 1_556 S
C345 H337 0.930 . S
C345 C343 1.419 . S
C345 C346 1.362 . S
C346 H338 0.930 . S
C346 C345 1.362 . S
C346 C349 1.409 . S
C347 H339 0.930 . S
C347 C348 1.355 . S
C347 C349 1.415 . S
C348 C347 1.355 . S
C348 C350 1.419 1_556 S
C349 C344 1.425 . S
C349 C346 1.409 . S
C349 C347 1.415 . S
C350 H340 0.930 . S
C350 C348 1.419 1_554 S
C350 C351 1.362 . S
C351 H341 0.930 . S
C351 C344 1.409 1_554 S
C351 C350 1.362 . S
H352 C358 0.930 . S
H353 C361 0.930 . S
H354 C362 0.930 . S
H355 C363 0.930 . S
H356 C366 0.930 . S
H357 C367 0.930 . S
C358 H352 0.930 . S
C358 C359 1.355 1_556 S
C358 C360 1.415 . S
C359 C358 1.355 1_554 S
C359 C361 1.419 . S
C360 C358 1.415 . S
C360 C365 1.425 . S
C360 C367 1.409 . S
C361 H353 0.930 . S
C361 C359 1.419 . S
C361 C362 1.362 . S
C362 H354 0.930 . S
C362 C361 1.362 . S
C362 C365 1.409 1_554 S
C363 H355 0.930 . S
C363 C364 1.355 . S
C363 C365 1.415 . S
C364 C363 1.355 . S
C364 C366 1.419 . S
C365 C360 1.425 . S
C365 C362 1.409 1_556 S
C365 C363 1.415 . S
C366 H356 0.930 . S
C366 C364 1.419 . S
C366 C367 1.362 . S
C367 H357 0.930 . S
C367 C360 1.409 . S
C367 C366 1.362 . S
H368 C374 0.930 . S
H369 C377 0.930 . S
H370 C378 0.930 . S
H371 C379 0.930 . S
H372 C382 0.930 . S
H373 C383 0.930 . S
C374 H368 0.930 . S
C374 C375 1.355 . S
C374 C376 1.415 . S
C375 C374 1.355 . S
C375 C377 1.419 . S
C376 C374 1.415 . S
C376 C381 1.425 . S
C376 C383 1.409 1_556 S
C377 H369 0.930 . S
C377 C375 1.419 . S
C377 C378 1.362 . S
C378 H370 0.930 . S
C378 C377 1.362 . S
C378 C381 1.409 . S
C379 H371 0.930 . S
C379 C380 1.355 1_556 S
C379 C381 1.415 . S
C380 C379 1.355 1_554 S
C380 C382 1.419 . S
C381 C376 1.425 . S
C381 C378 1.409 . S
C381 C379 1.415 . S
C382 H372 0.930 . S
C382 C380 1.419 . S
C382 C383 1.362 . S
C383 H373 0.930 . S
C383 C376 1.409 1_554 S
C383 C382 1.362 . S
H384 C390 0.930 . S
H385 C393 0.930 . S
H386 C394 0.930 . S
H387 C395 0.930 . S
H388 C398 0.930 . S
H389 C399 0.930 1_554 S
C390 H384 0.930 . S
C390 C391 1.355 . S
C390 C392 1.415 . S
C391 C390 1.355 . S
C391 C393 1.419 . S
C392 C390 1.415 . S
C392 C397 1.425 . S
C392 C399 1.410 . S
C393 H385 0.930 . S
C393 C391 1.419 . S
C393 C394 1.362 . S
C394 H386 0.930 . S
C394 C393 1.362 . S
C394 C397 1.409 . S
C395 H387 0.930 . S
C395 C396 1.355 . S
C395 C397 1.415 . S
C396 C395 1.355 . S
C396 C398 1.419 1_556 S
C397 C392 1.425 . S
C397 C394 1.409 . S
C397 C395 1.415 . S
C398 H388 0.930 . S
C398 C396 1.419 1_554 S
C398 C399 1.362 1_554 S
C399 H389 0.930 1_556 S
C399 C392 1.410 . S
C399 C398 1.362 1_556 S
H400 C406 0.930 . S
H401 C409 0.930 . S
H402 C410 0.930 . S
H403 C411 0.930 . S
H404 C414 0.930 . S
H405 C415 0.930 . S
C406 H400 0.930 . S
C406 C407 1.355 1_554 S
C406 C408 1.415 . S
C407 C406 1.355 1_556 S
C407 C409 1.419 . S
C408 C406 1.415 . S
C408 C413 1.425 1_554 S
C408 C415 1.409 . S
C409 H401 0.930 . S
C409 C407 1.419 . S
C409 C410 1.362 . S
C410 H402 0.930 . S
C410 C409 1.362 . S
C410 C413 1.409 . S
C411 H403 0.930 . S
C411 C412 1.353 1_556 S
C411 C413 1.415 . S
C412 C411 1.353 1_554 S
C412 C414 1.420 . S
C413 C408 1.425 1_556 S
C413 C410 1.409 . S
C413 C411 1.415 . S
C414 H404 0.930 . S
C414 C412 1.420 . S
C414 C415 1.362 . S
C415 H405 0.930 . S
C415 C408 1.409 . S
C415 C414 1.362 . S
H416 C422 0.930 . S
H417 C425 0.930 . S
H418 C426 0.930 . S
H419 C427 0.930 . S
H420 C430 0.930 . S
H421 C431 0.930 . S
C422 H416 0.930 . S
C422 C423 1.355 1_554 S
C422 C424 1.415 . S
C423 C422 1.355 1_556 S
C423 C425 1.419 . S
C424 C422 1.415 . S
C424 C429 1.425 1_554 S
C424 C431 1.409 . S
C425 H417 0.930 . S
C425 C423 1.419 . S
C425 C426 1.362 . S
C426 H418 0.930 . S
C426 C425 1.362 . S
C426 C429 1.409 . S
C427 H419 0.930 . S
C427 C428 1.355 . S
C427 C429 1.415 . S
C428 C427 1.355 . S
C428 C430 1.419 1_556 S
C429 C424 1.425 1_556 S
C429 C426 1.409 . S
C429 C427 1.415 . S
C430 H420 0.930 . S
C430 C428 1.419 1_554 S
C430 C431 1.362 . S
C431 H421 0.930 . S
C431 C424 1.409 . S
C431 C430 1.362 . S
H432 C438 0.930 . S
H433 C441 0.930 . S
H434 C442 0.930 . S
H435 C443 0.930 . S
H436 C446 0.930 . S
H437 C447 0.930 . S
C438 H432 0.930 . S
C438 C439 1.355 . S
C438 C440 1.415 . S
C439 C438 1.355 . S
C439 C441 1.419 . S
C440 C438 1.415 . S
C440 C445 1.425 . S
C440 C447 1.409 . S
C441 H433 0.930 . S
C441 C439 1.419 . S
C441 C442 1.362 . S
C442 H434 0.930 . S
C442 C441 1.362 . S
C442 C445 1.409 . S
C443 H435 0.930 . S
C443 C444 1.355 . S
C443 C445 1.415 . S
C444 C443 1.355 . S
C444 C446 1.419 . S
C445 C440 1.425 . S
C445 C442 1.409 . S
C445 C443 1.415 . S
C446 H436 0.930 . S
C446 C444 1.419 . S
C446 C447 1.362 . S
C447 H437 0.930 . S
C447 C440 1.409 . S
C447 C446 1.362 . S
H448 C454 0.930 . S
H449 C457 0.930 . S
H450 C458 0.930 . S
H451 C459 0.930 . S
H452 C462 0.930 . S
H453 C463 0.930 . S
C454 H448 0.930 . S
C454 C455 1.355 . S
C454 C456 1.415 . S
C455 C454 1.355 . S
C455 C457 1.419 . S
C456 C454 1.415 . S
C456 C461 1.425 . S
C456 C463 1.409 . S
C457 H449 0.930 . S
C457 C455 1.419 . S
C457 C458 1.362 . S
C458 H450 0.930 . S
C458 C457 1.362 . S
C458 C461 1.409 . S
C459 H451 0.930 . S
C459 C460 1.355 . S
C459 C461 1.415 . S
C460 C459 1.355 . S
C460 C462 1.419 . S
C461 C456 1.425 . S
C461 C458 1.409 . S
C461 C459 1.415 . S
C462 H452 0.930 . S
C462 C460 1.419 . S
C462 C463 1.362 . S
C463 H453 0.930 . S
C463 C456 1.409 . S
C463 C462 1.362 . S
H464 C470 0.930 . S
H465 C473 0.930 . S
H466 C474 0.930 . S
H467 C475 0.930 . S
H468 C478 0.930 . S
H469 C479 0.930 . S
C470 H464 0.930 . S
C470 C471 1.355 . S
C470 C472 1.415 . S
C471 C470 1.355 . S
C471 C473 1.419 . S
C472 C470 1.415 . S
C472 C477 1.425 . S
C472 C479 1.409 . S
C473 H465 0.930 . S
C473 C471 1.419 . S
C473 C474 1.362 . S
C474 H466 0.930 . S
C474 C473 1.362 . S
C474 C477 1.409 . S
C475 H467 0.930 . S
C475 C476 1.355 . S
C475 C477 1.415 . S
C476 C475 1.355 . S
C476 C478 1.419 . S
C477 C472 1.425 . S
C477 C474 1.409 . S
C477 C475 1.415 . S
C478 H468 0.930 . S
C478 C476 1.419 . S
C478 C479 1.362 . S
C479 H469 0.930 . S
C479 C472 1.409 . S
C479 C478 1.362 . S
H480 C486 0.930 . S
H481 C489 0.930 . S
H482 C490 0.930 . S
H483 C491 0.930 . S
H484 C494 0.930 . S
H485 C495 0.930 . S
C486 H480 0.930 . S
C486 C487 1.355 . S
C486 C488 1.415 . S
C487 C486 1.355 . S
C487 C489 1.419 . S
C488 C486 1.415 . S
C488 C493 1.425 . S
C488 C495 1.409 . S
C489 H481 0.930 . S
C489 C487 1.419 . S
C489 C490 1.362 . S
C490 H482 0.930 . S
C490 C489 1.362 . S
C490 C493 1.409 . S
C491 H483 0.930 . S
C491 C492 1.355 . S
C491 C493 1.415 . S
C492 C491 1.355 . S
C492 C494 1.419 . S
C493 C488 1.425 . S
C493 C490 1.409 . S
C493 C491 1.415 . S
C494 H484 0.930 . S
C494 C492 1.419 . S
C494 C495 1.362 . S
C495 H485 0.930 . S
C495 C488 1.409 . S
C495 C494 1.362 . S
H496 C502 0.930 . S
H497 C505 0.930 . S
H498 C506 0.930 . S
H499 C507 0.930 . S
H500 C510 0.930 . S
H501 C511 0.930 . S
C502 H496 0.930 . S
C502 C503 1.355 . S
C502 C504 1.415 . S
C503 C502 1.355 . S
C503 C505 1.419 . S
C504 C502 1.415 . S
C504 C509 1.425 . S
C504 C511 1.409 . S
C505 H497 0.930 . S
C505 C503 1.419 . S
C505 C506 1.362 . S
C506 H498 0.930 . S
C506 C505 1.362 . S
C506 C509 1.409 . S
C507 H499 0.930 . S
C507 C508 1.355 . S
C507 C509 1.415 . S
C508 C507 1.355 . S
C508 C510 1.419 . S
C509 C504 1.425 . S
C509 C506 1.409 . S
C509 C507 1.415 . S
C510 H500 0.930 . S
C510 C508 1.419 . S
C510 C511 1.362 . S
C511 H501 0.930 . S
C511 C504 1.409 . S
C511 C510 1.362 . S
H512 C518 0.930 . S
H513 C521 0.930 . S
H514 C522 0.930 . S
H515 C523 0.930 . S
H516 C526 0.930 . S
H517 C527 0.930 . S
C518 H512 0.930 . S
C518 C519 1.355 . S
C518 C520 1.415 . S
C519 C518 1.355 . S
C519 C521 1.419 . S
C520 C518 1.415 . S
C520 C525 1.425 . S
C520 C527 1.409 . S
C521 H513 0.930 . S
C521 C519 1.419 . S
C521 C522 1.362 . S
C522 H514 0.930 . S
C522 C521 1.362 . S
C522 C525 1.409 . S
C523 H515 0.930 . S
C523 C524 1.355 . S
C523 C525 1.415 . S
C524 C523 1.355 . S
C524 C526 1.419 . S
C525 C520 1.425 . S
C525 C522 1.409 . S
C525 C523 1.415 . S
C526 H516 0.930 . S
C526 C524 1.419 . S
C526 C527 1.362 . S
C527 H517 0.930 . S
C527 C520 1.409 . S
C527 C526 1.362 . S
C247 C231 2.042 1_554 S
C252 C8 1.785 . S
C263 C31 2.058 . S
C268 C48 1.733 1_455 S
C279 C71 2.043 1_554 S
C284 C88 1.786 1_545 S
C295 C128 1.732 . S
C300 C111 2.058 . S
C311 C168 1.775 1_655 S
C316 C151 2.041 1_554 S
C327 C191 2.042 1_554 S
C332 C208 1.785 1_565 S
C343 C172 1.888 1_556 S
C348 C29 1.871 . S
C359 C212 1.899 . S
C364 C69 1.863 . S
C375 C109 1.888 . S
C380 C12 1.896 . S
C391 C149 1.853 . S
C396 C52 1.895 1_556 S
C407 C189 1.860 . S
C412 C92 1.899 . S
C423 C132 1.887 1_556 S
C428 C229 1.868 . S
C439 C17 1.411 . S
C444 C2 1.411 . S
C455 C57 1.413 . S
C460 C42 1.413 . S
C471 C97 1.411 . S
C476 C82 1.411 . S
C487 C137 1.452 . S
C492 C122 1.452 . S
C503 C162 1.438 . S
C508 C177 1.438 . S
C519 C217 1.449 . S
C524 C202 1.449 . S
