# Generated by pormake.
# Topology smm, (6)-cn, num edge types: 1
# Building blocks:
#     Node 0, Type 0, BuildingBlock: MIDCAF_clean_sbu_0, # of connection points: 6
#     Node 1, Type 0, BuildingBlock: MIDCAF_clean_sbu_0, # of connection points: 6
#     Node 2, Type 0, BuildingBlock: MIDCAF_clean_sbu_0, # of connection points: 6
#     Node 3, Type 0, BuildingBlock: MIDCAF_clean_sbu_0, # of connection points: 6
#     Node 4, Type 0, BuildingBlock: MIDCAF_clean_sbu_0, # of connection points: 6
#     Node 5, Type 0, BuildingBlock: MIDCAF_clean_sbu_0, # of connection points: 6
#     Node 6, Type 0, BuildingBlock: MIDCAF_clean_sbu_0, # of connection points: 6
#     Node 7, Type 0, BuildingBlock: MIDCAF_clean_sbu_0, # of connection points: 6
#     Node 8, Type 0, BuildingBlock: MIDCAF_clean_sbu_0, # of connection points: 6
#     Edge 9, Type (0, 0), BuildingBlock: TEMPAE_clean_linker_10, # of connection points: 2
#     Edge 10, Type (0, 0), BuildingBlock: TEMPAE_clean_linker_10, # of connection points: 2
#     Edge 11, Type (0, 0), BuildingBlock: TEMPAE_clean_linker_10, # of connection points: 2
#     Edge 12, Type (0, 0), BuildingBlock: TEMPAE_clean_linker_10, # of connection points: 2
#     Edge 13, Type (0, 0), BuildingBlock: TEMPAE_clean_linker_10, # of connection points: 2
#     Edge 14, Type (0, 0), BuildingBlock: TEMPAE_clean_linker_10, # of connection points: 2
#     Edge 15, Type (0, 0), BuildingBlock: TEMPAE_clean_linker_10, # of connection points: 2
#     Edge 16, Type (0, 0), BuildingBlock: TEMPAE_clean_linker_10, # of connection points: 2
#     Edge 17, Type (0, 0), BuildingBlock: TEMPAE_clean_linker_10, # of connection points: 2
#     Edge 18, Type (0, 0), BuildingBlock: TEMPAE_clean_linker_10, # of connection points: 2
#     Edge 19, Type (0, 0), BuildingBlock: TEMPAE_clean_linker_10, # of connection points: 2
#     Edge 20, Type (0, 0), BuildingBlock: TEMPAE_clean_linker_10, # of connection points: 2
#     Edge 21, Type (0, 0), BuildingBlock: TEMPAE_clean_linker_10, # of connection points: 2
#     Edge 22, Type (0, 0), BuildingBlock: TEMPAE_clean_linker_10, # of connection points: 2
#     Edge 23, Type (0, 0), BuildingBlock: TEMPAE_clean_linker_10, # of connection points: 2
#     Edge 24, Type (0, 0), BuildingBlock: TEMPAE_clean_linker_10, # of connection points: 2
#     Edge 25, Type (0, 0), BuildingBlock: TEMPAE_clean_linker_10, # of connection points: 2
#     Edge 26, Type (0, 0), BuildingBlock: TEMPAE_clean_linker_10, # of connection points: 2
#     Edge 27, Type (0, 0), BuildingBlock: TEMPAE_clean_linker_10, # of connection points: 2
#     Edge 28, Type (0, 0), BuildingBlock: TEMPAE_clean_linker_10, # of connection points: 2
#     Edge 29, Type (0, 0), BuildingBlock: TEMPAE_clean_linker_10, # of connection points: 2
#     Edge 30, Type (0, 0), BuildingBlock: TEMPAE_clean_linker_10, # of connection points: 2
#     Edge 31, Type (0, 0), BuildingBlock: TEMPAE_clean_linker_10, # of connection points: 2
#     Edge 32, Type (0, 0), BuildingBlock: TEMPAE_clean_linker_10, # of connection points: 2
#     Edge 33, Type (0, 0), BuildingBlock: TEMPAE_clean_linker_10, # of connection points: 2
#     Edge 34, Type (0, 0), BuildingBlock: TEMPAE_clean_linker_10, # of connection points: 2
#     Edge 35, Type (0, 0), BuildingBlock: TEMPAE_clean_linker_10, # of connection points: 2
# Relax obj value: 0.295
# Max RMSD: 0.257
# Mean RMSD: 0.256
data_MOF--net-smm--node1-MIDCAF_clean_sbu_0--edge1-TEMPAE_clean_linker_10
_symmetry_space_group_name_H-M    P1
_symmetry_Int_Tables_number       1
_symmetry_cell_setting            triclinic
loop_
_symmetry_equiv_pos_as_xyz
'x, y, z'
_cell_length_a     50.1273
_cell_length_b     50.044263
_cell_length_c     15.466908
_cell_angle_alpha  90.151184
_cell_angle_beta   90.064678
_cell_angle_gamma 120.18083
loop_
_atom_site_label
_atom_site_type_symbol
_atom_site_fract_x
_atom_site_fract_y
_atom_site_fract_z
_atom_type_partial_charge
Zn0 Zn 0.08407 0.21903 0.10336 0.0
Zn1 Zn 0.96173 0.16083 0.92084 0.0
Zn2 Zn 0.00806 0.18076 0.98929 0.0
C3 C 0.97135 0.11382 0.9218 0.0
C4 C 0.94626 0.17383 0.0636 0.0
O5 O 0.05299 0.21102 0.98798 0.0
O6 O 0.09935 0.24923 0.00061 0.0
C7 C 0.04631 0.14866 0.05083 0.0
O8 O -0.00947 0.13168 0.97952 0.0
O9 O 0.96022 0.12453 0.8681 0.0
O10 O 0.93233 0.15099 0.0137 0.0
O11 O 0.976 0.18932 0.06443 0.0
O12 O 0.06899 0.17363 0.07963 0.0
O13 O 0.02176 0.14683 0.01795 0.0
O14 O 0.00475 0.19957 0.11474 0.0
O15 O 0.05151 0.2209 0.17921 0.0
C16 C 0.02309 0.21317 0.17951 0.0
O17 O 0.01144 0.19835 0.85678 0.0
O18 O 0.96601 0.194 0.84274 0.0
C19 C 0.07351 0.23737 0.96282 0.0
C20 C -0.00743 0.2032 0.8129 0.0
Zn21 Zn 0.79313 0.88446 0.10395 0.0
Zn22 Zn 0.85584 0.82217 0.95075 0.0
Zn23 Zn 0.81315 0.83238 -0.00304 0.0
C24 C 0.8232 0.81783 0.81001 0.0
C25 C 0.88198 0.87166 0.04003 0.0
O26 O 0.82984 0.84421 0.12958 0.0
O27 O 0.80384 0.86415 0.19776 0.0
C28 C 0.74604 0.82969 0.04664 0.0
O29 O 0.82077 0.83772 0.85714 0.0
O30 O 0.83578 0.80358 0.84072 0.0
O31 O 0.88464 0.86748 0.96094 0.0
O32 O 0.85543 0.85583 0.07563 0.0
O33 O 0.74814 0.85298 0.08616 0.0
O34 O 0.77031 0.82922 0.02532 0.0
O35 O 0.8356 0.86839 0.90028 0.0
O36 O 0.81437 0.88077 0.00024 0.0
C37 C 0.8351 0.88968 0.94441 0.0
O38 O 0.79791 0.78515 -0.00686 0.0
O39 O 0.84145 0.79333 0.05075 0.0
C40 C 0.81871 0.84977 0.19818 0.0
C41 C 0.81303 0.77539 0.03588 0.0
Zn42 Zn 0.17904 0.0748 0.90889 0.0
Zn43 Zn 0.15372 0.94964 0.06045 0.0
Zn44 Zn 0.17048 -0.00461 0.98989 0.0
C45 C 0.18759 0.98967 0.17925 0.0
C46 C 0.10265 0.95289 0.03795 0.0
O47 O 0.17733 0.02179 0.8707 0.0
O48 O 0.18148 0.05949 0.78851 0.0
C49 C 0.22422 0.06711 0.96878 0.0
O50 O 0.1787 0.00426 0.12922 0.0
O51 O 0.18604 0.9651 0.15221 0.0
O52 O 0.11389 0.94333 0.09451 0.0
O53 O 0.11984 0.96951 0.97578 0.0
O54 O 0.22442 0.09183 0.9494 0.0
O55 O 0.19892 0.0419 0.95678 0.0
O56 O 0.15973 0.01656 0.09446 0.0
O57 O 0.1476 0.03622 0.98345 0.0
C58 C 0.15127 0.03516 0.06446 0.0
O59 O 0.1972 0.97372 0.96671 0.0
O60 O 0.15669 0.92746 0.95924 0.0
C61 C 0.18167 0.0343 0.79566 0.0
C62 C 0.18509 0.94536 0.94615 0.0
Zn63 Zn 0.58342 0.43833 0.26717 0.0
Zn64 Zn 0.70578 0.52609 0.40517 0.0
Zn65 Zn 0.65713 0.50641 0.3467 0.0
C66 C 0.66934 0.52441 0.53523 0.0
C67 C 0.69247 0.47465 0.33372 0.0
O68 O 0.63489 0.48805 0.2211 0.0
O69 O 0.59631 0.45222 0.14427 0.0
C70 C 0.59316 0.49553 0.32772 0.0
O71 O 0.64995 0.50192 0.48677 0.0
O72 O 0.69556 0.5435 0.50559 0.0
O73 O 0.69879 0.4839 0.41083 0.0
O74 O 0.68087 0.48629 0.28361 0.0
O75 O 0.57108 0.46769 0.32492 0.0
O76 O 0.61814 0.50304 0.2877 0.0
O77 O 0.63692 0.471 0.4494 0.0
O78 O 0.62277 0.44544 0.32753 0.0
C79 C 0.62236 0.44501 0.40883 0.0
O80 O 0.68369 0.55533 0.33787 0.0
O81 O 0.72358 0.5515 0.29907 0.0
C82 C 0.62194 0.47737 0.14756 0.0
C83 C 0.70927 0.56622 0.2982 0.0
Zn84 Zn 0.45059 0.21544 0.41674 0.0
Zn85 Zn 0.5041 0.15004 0.27708 0.0
Zn86 Zn 0.48199 0.17577 0.31936 0.0
C87 C 0.54775 0.20146 0.34244 0.0
C88 C 0.46217 0.11509 0.38946 0.0
O89 O 0.43277 0.14573 0.32986 0.0
O90 O 0.41713 0.18017 0.34708 0.0
C91 C 0.49135 0.22838 0.26486 0.0
O92 O 0.52482 0.19372 0.39361 0.0
O93 O 0.54256 0.1902 0.2673 0.0
O94 O 0.49117 0.12755 0.3871 0.0
O95 O 0.44918 0.12732 0.34576 0.0
O96 O 0.46533 0.21332 0.30021 0.0
O97 O 0.49872 0.21165 0.22054 0.0
O98 O 0.50152 0.19115 0.44734 0.0
O99 O 0.4642 0.19684 0.50982 0.0
C100 C 0.48535 0.18995 0.51363 0.0
O101 O 0.49049 0.18134 0.179 0.0
O102 O 0.47827 0.13256 0.17414 0.0
C103 C 0.41203 0.15358 0.32337 0.0
C104 C 0.48174 0.15626 0.13557 0.0
Zn105 Zn 0.82659 0.30016 0.46172 0.0
Zn106 Zn 0.86515 0.3728 0.24236 0.0
Zn107 Zn 0.83759 0.33466 0.34145 0.0
C108 C 0.82107 0.38046 0.329 0.0
C109 C 0.90725 0.37445 0.33515 0.0
O110 O 0.86717 0.31474 0.33799 0.0
O111 O 0.83215 0.27063 0.39444 0.0
C112 C 0.77472 0.29281 0.3644 0.0
O113 O 0.82929 0.36948 0.39168 0.0
O114 O 0.83166 0.38154 0.25429 0.0
O115 O 0.90155 0.39514 0.31164 0.0
O116 O 0.88564 0.34602 0.33824 0.0
O117 O 0.78576 0.29668 0.44008 0.0
O118 O 0.79283 0.30085 0.29905 0.0
O119 O 0.83317 0.354 0.46593 0.0
O120 O 0.86311 0.33784 0.51498 0.0
C121 C 0.84973 0.35305 0.52817 0.0
O122 O 0.81319 0.31931 0.21774 0.0
O123 O 0.86023 0.33764 0.16992 0.0
C124 C 0.85485 0.28527 0.34506 0.0
C125 C 0.83159 0.3212 0.15706 0.0
Zn126 Zn 0.26515 0.7916 0.53045 0.0
Zn127 Zn 0.39904 0.87253 0.76036 0.0
Zn128 Zn 0.33603 0.85017 0.67401 0.0
C129 C 0.35518 0.87537 0.86997 0.0
C130 C 0.383 0.82176 0.66481 0.0
O131 O 0.32527 0.86042 0.54372 0.0
O132 O 0.28629 0.82903 0.45515 0.0
C133 C 0.26294 0.82667 0.65293 0.0
O134 O 0.34233 0.87601 0.79817 0.0
O135 O 0.37694 0.86953 0.87073 0.0
O136 O 0.40268 0.83807 0.72121 0.0
O137 O 0.36024 0.82544 0.64735 0.0
O138 O 0.24133 0.80526 0.60916 0.0
O139 O 0.28971 0.8305 0.64539 0.0
O140 O 0.32036 0.80307 0.71714 0.0
O141 O 0.30298 0.79288 0.58529 0.0
C142 C 0.30202 0.78339 0.66161 0.0
O143 O 0.36048 0.89638 0.71425 0.0
O144 O 0.40515 0.90364 0.66941 0.0
C145 C 0.31003 0.8551 0.47236 0.0
C146 C 0.3855 0.91232 0.67273 0.0
Zn147 Zn 0.11993 0.51221 0.81783 0.0
Zn148 Zn 0.16412 0.47317 0.60944 0.0
Zn149 Zn 0.14858 0.49904 0.68988 0.0
C150 C 0.14125 0.49461 0.49859 0.0
C151 C 0.21542 0.52222 0.6776 0.0
O152 O 0.17516 0.50866 0.80752 0.0
O153 O 0.12943 0.48068 0.86662 0.0
C154 C 0.08146 0.4766 0.70007 0.0
O155 O 0.15422 0.51578 0.55665 0.0
O156 O 0.13325 0.4672 0.51878 0.0
O157 O 0.20643 0.50936 0.60465 0.0
O158 O 0.19543 0.51618 0.73753 0.0
O159 O 0.08352 0.4986 0.74493 0.0
O160 O 0.10096 0.46742 0.71116 0.0
O161 O 0.15212 0.53778 0.63251 0.0
O162 O 0.15393 0.55152 0.7702 0.0
C163 C 0.16018 0.55852 0.69104 0.0
O164 O 0.11528 0.4501 0.70649 0.0
O165 O 0.1541 0.44158 0.69842 0.0
C166 C 0.15824 0.49163 0.86997 0.0
C167 C 0.12676 0.4327 0.7211 0.0
Zn168 Zn 0.49911 0.63215 0.78122 0.0
Zn169 Zn 0.52739 0.704 0.53378 0.0
Zn170 Zn 0.50441 0.6663 0.66051 0.0
C171 C 0.48101 0.70477 0.64404 0.0
C172 C 0.57056 0.71454 0.65027 0.0
O173 O 0.54015 0.65391 0.6488 0.0
O174 O 0.51166 0.60847 0.70888 0.0
C175 C 0.44296 0.62036 0.69049 0.0
O176 O 0.49448 0.69951 0.70649 0.0
O177 O 0.4889 0.70412 0.56652 0.0
O178 O 0.56275 0.73073 0.60658 0.0
O179 O 0.55323 0.68499 0.65071 0.0
O180 O 0.45513 0.62191 0.76356 0.0
O181 O 0.46009 0.63053 0.62309 0.0
O182 O 0.49708 0.68259 0.78739 0.0
O183 O 0.53077 0.67187 0.84065 0.0
C184 C 0.51415 0.68393 0.85139 0.0
O185 O 0.47792 0.64577 0.54071 0.0
O186 O 0.52397 0.66491 0.4852 0.0
C187 C 0.53245 0.62534 0.6561 0.0
C188 C 0.49523 0.64715 0.47736 0.0
C189 C 0.0549 0.27402 0.96261 0.0
C190 C 0.06548 0.25731 0.91578 0.0
C191 C 0.05575 0.29992 0.92619 0.0
C192 C 0.06716 0.3086 0.84119 0.0
C193 C 0.07375 0.28907 0.79009 0.0
C194 C 0.07338 0.26372 0.82896 0.0
C195 C 0.04898 0.32037 0.98303 0.0
C196 C 0.0854 0.29721 0.6986 0.0
C197 C 0.07813 0.38267 0.74254 0.0
C198 C 0.10924 0.40266 0.76236 0.0
C199 C 0.06355 0.35169 0.769 0.0
C200 C 0.08068 0.34124 0.81645 0.0
C201 C 0.11168 0.36205 0.84033 0.0
C202 C 0.12547 0.39258 0.81325 0.0
C203 C 0.03044 0.32992 0.74341 0.0
C204 C 0.13086 0.35194 0.89131 0.0
H205 H 0.0488 0.26862 0.03019 0.0
H206 H 0.08129 0.25028 0.79348 0.0
H207 H 0.071 0.33944 0.00935 0.0
H208 H 0.03773 0.33091 0.94572 0.0
H209 H 0.03399 0.30735 0.0384 0.0
H210 H 0.0815 0.27643 0.66183 0.0
H211 H 0.07405 0.30819 0.66388 0.0
H212 H 0.1106 0.3139 0.70003 0.0
H213 H 0.06582 0.39076 0.70269 0.0
H214 H 0.14949 0.40843 0.8292 0.0
H215 H 0.01637 0.3188 0.80174 0.0
H216 H 0.02904 0.31118 0.70169 0.0
H217 H 0.02018 0.34191 0.70804 0.0
H218 H 0.11958 0.34179 0.95388 0.0
H219 H 0.15453 0.37136 0.90481 0.0
H220 H 0.13284 0.33389 0.85489 0.0
C221 C 0.68904 0.79565 0.04137 0.0
C222 C 0.7178 0.80906 0.00092 0.0
C223 C 0.66213 0.77777 0.99299 0.0
C224 C 0.66471 0.77467 0.90288 0.0
C225 C 0.69383 0.78863 0.86219 0.0
C226 C 0.7201 0.80524 0.91228 0.0
C227 C 0.63111 0.76269 0.03731 0.0
C228 C 0.69731 0.78696 0.76541 0.0
C229 C 0.60597 0.71297 0.75899 0.0
C230 C 0.59468 0.72965 0.7153 0.0
C231 C 0.62731 0.72675 0.82593 0.0
C232 C 0.63727 0.75774 0.84877 0.0
C233 C 0.62493 0.77426 0.80741 0.0
C234 C 0.6039 0.76003 0.74033 0.0
C235 C 0.64044 0.7088 0.86888 0.0
C236 C 0.63522 0.80747 0.83027 0.0
H237 H 0.6877 0.79912 0.1101 0.0
H238 H 0.74254 0.81646 0.88125 0.0
H239 H 0.61694 0.7722 0.01151 0.0
H240 H 0.61836 0.73749 0.02362 0.0
H241 H 0.63329 0.76627 0.10846 0.0
H242 H 0.72187 0.79903 0.74483 0.0
H243 H 0.68627 0.76251 0.74396 0.0
H244 H 0.68553 0.79765 0.73136 0.0
H245 H 0.59841 0.68931 0.74025 0.0
H246 H 0.59455 0.77274 0.70797 0.0
H247 H 0.6411 0.71175 0.94011 0.0
H248 H 0.66452 0.71781 0.84674 0.0
H249 H 0.62689 0.68374 0.85321 0.0
H250 H 0.63623 0.81078 0.90135 0.0
H251 H 0.61964 0.81503 0.80252 0.0
H252 H 0.65879 0.82276 0.80473 0.0
C253 C 0.23349 0.95072 0.88478 0.0
C254 C 0.20398 0.93223 0.91948 0.0
C255 C 0.25007 0.93709 0.85356 0.0
C256 C 0.23636 0.9046 0.85707 0.0
C257 C 0.20807 0.88639 0.9001 0.0
C258 C 0.19212 0.90049 0.93052 0.0
C259 C 0.28124 0.95697 0.81255 0.0
C260 C 0.19353 0.85172 0.9084 0.0
C261 C 0.24064 0.85982 0.67012 0.0
C262 C 0.25757 0.84741 0.70569 0.0
C263 C 0.23574 0.88066 0.71713 0.0
C264 C 0.24773 0.88865 0.80214 0.0
C265 C 0.26541 0.87657 0.83792 0.0
C266 C 0.27044 0.85611 0.78836 0.0
C267 C 0.21611 0.89258 0.67767 0.0
C268 C 0.27844 0.88458 0.92845 0.0
H269 H 0.243 0.97546 0.87894 0.0
H270 H 0.16987 0.88638 0.961 0.0
H271 H 0.29775 0.94983 0.83535 0.0
H272 H 0.27921 0.95384 0.74133 0.0
H273 H 0.29079 0.98189 0.82734 0.0
H274 H 0.17224 0.84135 0.94826 0.0
H275 H 0.18753 0.84084 0.84331 0.0
H276 H 0.2101 0.84592 0.93829 0.0
H277 H 0.23128 0.85321 0.60525 0.0
H278 H 0.28337 0.84605 0.8152 0.0
H279 H 0.22816 0.91816 0.68174 0.0
H280 H 0.1942 0.88341 0.7142 0.0
H281 H 0.21041 0.88567 0.60878 0.0
H282 H 0.30183 0.90527 0.92539 0.0
H283 H 0.28024 0.86528 0.95723 0.0
H284 H 0.26442 0.89011 0.97244 0.0
C285 C 0.36539 0.14697 0.24879 0.0
C286 C 0.38338 0.13407 0.27409 0.0
C287 C 0.34019 0.13122 0.19368 0.0
C288 C 0.33177 0.1011 0.16546 0.0
C289 C 0.34931 0.08747 0.19158 0.0
C290 C 0.37534 0.1044 0.24475 0.0
C291 C 0.32256 0.14701 0.16585 0.0
C292 C 0.34059 0.05519 0.16349 0.0
C293 C 0.24819 0.06305 0.10458 0.0
C294 C 0.25029 0.06867 0.01574 0.0
C295 C 0.27457 0.07011 0.15311 0.0
C296 C 0.30365 0.08408 0.11178 0.0
C297 C 0.30558 0.08824 0.02102 0.0
C298 C 0.27871 0.08047 0.97396 0.0
C299 C 0.27193 0.06565 0.24994 0.0
C300 C 0.33624 0.10411 0.97492 0.0
H301 H 0.37149 0.17003 0.26991 0.0
H302 H 0.38944 0.09454 0.26258 0.0
H303 H 0.32068 0.14676 0.09434 0.0
H304 H 0.2988 0.13443 0.1922 0.0
H305 H 0.3337 0.1714 0.18834 0.0
H306 H 0.35713 0.04827 0.18752 0.0
H307 H 0.31723 0.03851 0.18797 0.0
H308 H 0.33957 0.05347 0.09191 0.0
H309 H 0.22653 0.05557 0.1372 0.0
H310 H 0.28019 0.08528 0.90523 0.0
H311 H 0.28409 0.08837 0.28331 0.0
H312 H 0.28304 0.05232 0.27056 0.0
H313 H 0.24768 0.05354 0.27196 0.0
H314 H 0.34717 0.12947 0.98441 0.0
H315 H 0.33347 0.09927 0.90433 0.0
H316 H 0.35221 0.09691 0.00145 0.0
C317 C 0.85253 0.23625 0.30727 0.0
C318 C 0.86457 0.2678 0.29089 0.0
C319 C 0.86105 0.21876 0.25677 0.0
C320 C 0.8821 0.23334 0.18865 0.0
C321 C 0.89213 0.26438 0.16664 0.0
C322 C 0.88351 0.28152 0.21911 0.0
C323 C 0.84962 0.1855 0.28113 0.0
C324 C 0.91321 0.27984 0.09074 0.0
C325 C 0.9413 0.20913 0.16613 0.0
C326 C 0.92856 0.18698 0.10087 0.0
C327 C 0.92606 0.22411 0.19588 0.0
C328 C 0.89849 0.21834 0.15438 0.0
C329 C 0.886 0.19699 0.0855 0.0
C330 C 0.90072 0.18073 0.06137 0.0
C331 C 0.93957 0.24612 0.27172 0.0
C332 C 0.85743 0.19141 0.03703 0.0
H333 H 0.83709 0.22532 0.36133 0.0
H334 H 0.8918 0.30559 0.20436 0.0
H335 H 0.84135 0.17035 0.22326 0.0
H336 H 0.86893 0.18355 0.30943 0.0
H337 H 0.83057 0.17674 0.32898 0.0
H338 H 0.91458 0.30207 0.07386 0.0
H339 H 0.93678 0.28454 0.10657 0.0
H340 H 0.9051 0.26441 0.03326 0.0
H341 H 0.96335 0.21517 0.19317 0.0
H342 H 0.89118 0.16427 0.00847 0.0
H343 H 0.9221 0.2394 0.32364 0.0
H344 H 0.94625 0.26989 0.25115 0.0
H345 H 0.96023 0.24649 0.29936 0.0
H346 H 0.83659 0.17542 0.07439 0.0
H347 H 0.85575 0.18081 0.97255 0.0
H348 H 0.85715 0.21326 0.02802 0.0
C349 C 0.76757 0.72254 0.04219 0.0
C350 C 0.79802 0.74352 0.06641 0.0
C351 C 0.75267 0.69239 0.07383 0.0
C352 C 0.76869 0.68344 0.13122 0.0
C353 C 0.79976 0.70418 0.15366 0.0
C354 C 0.81415 0.7341 0.12063 0.0
C355 C 0.71956 0.67045 0.04804 0.0
C356 C 0.81744 0.69516 0.21475 0.0
C357 C 0.72119 0.6204 0.28986 0.0
C358 C 0.7227 0.59565 0.25344 0.0
C359 C 0.73634 0.6494 0.25053 0.0
C360 C 0.75233 0.65298 0.17215 0.0
C361 C 0.75308 0.62772 0.13388 0.0
C362 C 0.73849 0.59927 0.1759 0.0
C363 C 0.73591 0.67632 0.29367 0.0
C364 C 0.76947 0.63081 0.04934 0.0
H365 H 0.75525 0.72975 -0.00069 0.0
H366 H 0.83783 0.75028 0.13886 0.0
H367 H 0.71691 0.6483 0.02426 0.0
H368 H 0.70442 0.6651 0.10532 0.0
H369 H 0.7114 0.68024 -0.00303 0.0
H370 H 0.84198 0.71363 0.22176 0.0
H371 H 0.80651 0.69013 0.27953 0.0
H372 H 0.81671 0.67381 0.1916 0.0
H373 H 0.70916 0.61734 0.35051 0.0
H374 H 0.7393 0.57977 0.14806 0.0
H375 H 0.726 0.68643 0.24912 0.0
H376 H 0.75984 0.69476 0.30902 0.0
H377 H 0.72228 0.6695 0.3544 0.0
H378 H 0.76002 0.63928 -0.00174 0.0
H379 H 0.76714 0.60856 0.02756 0.0
H380 H 0.79437 0.6481 0.05609 0.0
C381 C 0.04515 0.4811 0.60028 0.0
C382 C 0.06244 0.46714 0.62252 0.0
C383 C 0.02573 0.47066 0.52835 0.0
C384 C 0.02382 0.4458 0.47996 0.0
C385 C 0.04481 0.43538 0.49385 0.0
C386 C 0.06332 0.44555 0.56687 0.0
C387 C 0.00485 0.48365 0.51054 0.0
C388 C 0.04463 0.41028 0.43913 0.0
C389 C 0.9427 0.38121 0.45103 0.0
C390 C 0.93812 0.38442 0.36388 0.0
C391 C 0.97089 0.40139 0.4896 0.0
C392 C -0.00522 0.4244 0.43807 0.0
C393 C -0.00912 0.42603 0.34845 0.0
C394 C 0.9623 0.40573 0.31212 0.0
C395 C 0.97423 0.39951 0.58639 0.0
C396 C 0.01548 0.45071 0.29213 0.0
H397 H 0.04565 0.49907 0.64079 0.0
H398 H 0.07734 0.43535 0.58187 0.0
H399 H -1e-05 0.48314 0.44035 0.0
H400 H 0.98256 0.46941 0.54433 0.0
H401 H 0.01517 0.50779 0.5346 0.0
H402 H 0.06666 0.41018 0.44534 0.0
H403 H 0.02555 0.38749 0.46068 0.0
H404 H 0.04078 0.41318 0.36999 0.0
H405 H 0.92347 0.36511 0.49054 0.0
H406 H 0.958 0.40828 0.24469 0.0
H407 H 0.97695 0.42069 0.61793 0.0
H408 H -0.00492 0.39803 0.60165 0.0
H409 H 0.95389 0.37924 0.61545 0.0
H410 H 0.01203 0.47094 0.29055 0.0
H411 H 0.01369 0.44229 0.22464 0.0
H412 H 0.03911 0.45867 0.31664 0.0
C413 C 0.52622 0.57834 0.58565 0.0
C414 C 0.5434 0.61058 0.59483 0.0
C415 C 0.53505 0.56298 0.52754 0.0
C416 C 0.5621 0.58025 0.47833 0.0
C417 C 0.57861 0.61295 0.48316 0.0
C418 C 0.56897 0.62788 0.54167 0.0
C419 C 0.51613 0.5281 0.52206 0.0
C420 C 0.60689 0.63195 0.42878 0.0
C421 C 0.5998 0.53264 0.44226 0.0
C422 C 0.58793 0.51972 0.36139 0.0
C423 C 0.59336 0.55437 0.47855 0.0
C424 C 0.57484 0.56339 0.4319 0.0
C425 C 0.56437 0.5517 0.34758 0.0
C426 C 0.57085 0.52961 0.31347 0.0
C427 C 0.60443 0.56589 0.56936 0.0
C428 C 0.54463 0.56074 0.29559 0.0
H429 H 0.50568 0.56486 0.6242 0.0
H430 H 0.58169 0.65288 0.54695 0.0
H431 H 0.51073 0.52048 0.45372 0.0
H432 H 0.52957 0.51797 0.54919 0.0
H433 H 0.49406 0.51858 0.55814 0.0
H434 H 0.61449 0.65697 0.43118 0.0
H435 H 0.62604 0.62881 0.45245 0.0
H436 H 0.60232 0.62402 0.36049 0.0
H437 H 0.61301 0.5248 0.47859 0.0
H438 H 0.56205 0.5196 0.25023 0.0
H439 H 0.58445 0.5558 0.61412 0.0
H440 H 0.61514 0.59139 0.57264 0.0
H441 H 0.62145 0.55948 0.5926 0.0
H442 H 0.51999 0.54486 0.31131 0.0
H443 H 0.54759 0.55879 0.2251 0.0
H444 H 0.55007 0.58466 0.3104 0.0
C445 C 0.46132 0.07825 0.49603 0.0
C446 C 0.44522 0.0854 0.43468 0.0
C447 C 0.44894 0.04846 0.52882 0.0
C448 C 0.41926 0.02543 0.50148 0.0
C449 C 0.40229 0.03259 0.44201 0.0
C450 C 0.41556 0.06272 0.40904 0.0
C451 C 0.46803 0.04152 0.59087 0.0
C452 C 0.37061 0.00822 0.41168 0.0
C453 C 0.40549 0.94555 0.54423 0.0
C454 C 0.39096 0.93956 0.6248 0.0
C455 C 0.41278 0.97255 0.49942 0.0
C456 C 0.40604 -0.00584 0.53792 0.0
C457 C 0.39031 0.98752 0.61793 0.0
C458 C 0.38254 0.95991 0.66011 0.0
C459 C 0.42926 0.97861 0.41376 0.0
C460 C 0.38356 0.01047 0.66171 0.0
H461 H 0.4843 0.0958 0.51632 0.0
H462 H 0.40334 0.06809 0.36081 0.0
H463 H 0.45548 0.03257 0.65268 0.0
H464 H 0.47199 0.02331 0.5633 0.0
H465 H 0.49083 0.0622 0.60508 0.0
H466 H 0.36047 0.01752 0.36502 0.0
H467 H 0.37184 0.98889 0.38039 0.0
H468 H 0.3549 -0.00154 0.46789 0.0
H469 H 0.41144 0.92925 0.51675 0.0
H470 H 0.37129 0.95495 0.72263 0.0
H471 H 0.45406 -0.00416 0.42302 0.0
H472 H 0.41977 0.9883 0.36643 0.0
H473 H 0.42746 0.95726 0.3859 0.0
H474 H 0.40551 0.03065 0.6843 0.0
H475 H 0.36808 0.00031 0.71831 0.0
H476 H 0.37277 0.01916 0.61548 0.0
C477 C 0.10492 0.02906 0.12842 0.0
C478 C 0.13666 0.04815 0.11722 0.0
C479 C 0.08504 0.04083 0.11809 0.0
C480 C 0.09752 0.07282 0.10494 0.0
C481 C 0.12992 0.09284 0.10592 0.0
C482 C 0.1492 0.08015 0.1117 0.0
C483 C 0.05088 0.0187 0.11213 0.0
C484 C 0.14421 0.12723 0.09259 0.0
C485 C 0.05725 0.10943 0.9906 0.0
C486 C 0.04919 0.1213 0.06133 0.0
C487 C 0.07068 0.09102 0.00357 0.0
C488 C 0.07691 0.08552 0.08918 0.0
C489 C 0.06637 0.09538 0.16029 0.0
C490 C 0.05241 0.11307 0.14534 0.0
C491 C 0.08044 0.07976 0.9258 0.0
C492 C 0.0727 0.09004 0.2522 0.0
H493 H 0.09544 0.0043 0.13153 0.0
H494 H 0.17381 0.09478 0.10114 0.0
H495 H 0.03898 0.02274 0.16662 0.0
H496 H 0.04152 0.02252 0.0513 0.0
H497 H 0.04546 -0.00567 0.11338 0.0
H498 H 0.16963 0.13975 0.10212 0.0
H499 H 0.1393 0.13174 0.02593 0.0
H500 H 0.13397 0.13682 0.1379 0.0
H501 H 0.05501 0.11627 0.92572 0.0
H502 H 0.04644 0.12278 0.19969 0.0
H503 H 0.07635 0.05607 0.93628 0.0
H504 H 0.10551 0.09522 0.91472 0.0
H505 H 0.06793 0.07978 0.86645 0.0
H506 H 0.06493 0.06527 0.26253 0.0
H507 H 0.06106 0.0973 0.30009 0.0
H508 H 0.09793 0.10332 0.26462 0.0
C509 C 0.86549 0.93769 0.02797 0.0
C510 C 0.8616 0.921 0.95128 0.0
C511 C 0.8888 0.96838 0.03588 0.0
C512 C 0.90845 0.98266 0.96482 0.0
C513 C 0.90682 0.96502 0.89109 0.0
C514 C 0.88318 0.93412 0.88499 0.0
C515 C 0.88993 0.98576 0.1171 0.0
C516 C 0.92826 0.97964 0.81548 0.0
C517 C 0.92562 0.06216 0.90423 0.0
C518 C 0.95652 0.08027 0.92989 0.0
C519 C 0.9094 0.03048 0.9194 0.0
C520 C 0.92491 0.0165 0.95788 0.0
C521 C 0.95585 0.03469 0.98556 0.0
C522 C 0.97119 0.06659 0.97218 0.0
C523 C 0.87557 0.0121 0.89516 0.0
C524 C 0.97241 0.02064 0.03087 0.0
H525 H 0.8497 0.92713 0.08157 0.0
H526 H 0.88073 0.9208 0.8271 0.0
H527 H 0.91229 0.00741 0.12598 0.0
H528 H 0.87135 0.99165 0.11418 0.0
H529 H 0.88549 0.97093 0.17483 0.0
H530 H 0.92756 0.96204 0.77019 0.0
H531 H 0.9214 -0.00556 0.77958 0.0
H532 H 0.95234 -0.00535 0.83833 0.0
H533 H 0.91367 0.07288 0.87494 0.0
H534 H -0.00549 0.08075 -0.00517 0.0
H535 H 0.86162 -0.00018 0.95274 0.0
H536 H 0.87182 -0.00562 0.84588 0.0
H537 H 0.86681 0.02691 0.86899 0.0
H538 H 0.96125 0.01145 0.09415 0.0
H539 H -0.00281 0.03767 0.04241 0.0
H540 H 0.97056 0.00109 0.99217 0.0
C541 C 0.92783 0.9142 0.10877 0.0
C542 C 0.91011 0.88282 0.08987 0.0
C543 C 0.95996 0.92812 0.11534 0.0
C544 C 0.97424 0.91047 0.09702 0.0
C545 C 0.95594 0.87806 0.08709 0.0
C546 C 0.92388 0.86447 0.08651 0.0
C547 C 0.97855 0.96201 0.13499 0.0
C548 C 0.96999 0.85814 0.06779 0.0
C549 C 0.05172 0.94498 0.98318 0.0
C550 C 0.07052 0.94564 0.05094 0.0
C551 C 0.02033 0.93484 -0.00195 0.0
C552 C 0.00797 0.92567 0.08258 0.0
C553 C 0.02737 0.928 0.15159 0.0
C554 C 0.05827 0.93788 0.13491 0.0
C555 C 5e-05 0.93257 0.92288 0.0
C556 C 0.01521 0.91849 0.24241 0.0
H557 H 0.91696 0.92824 0.11103 0.0
H558 H 0.90975 0.84005 0.07126 0.0
H559 H -0.00331 0.96657 0.18331 0.0
H560 H -0.01019 0.97444 0.07475 0.0
H561 H 0.96398 0.97104 0.16102 0.0
H562 H 0.95258 0.83307 0.06925 0.0
H563 H 0.9806 0.86383 0.00256 0.0
H564 H -0.01148 0.86274 0.11486 0.0
H565 H 0.06115 0.95114 0.91851 0.0
H566 H 0.07286 0.93905 0.1883 0.0
H567 H 0.98747 0.94496 0.9383 0.0
H568 H 0.98253 0.90797 0.91103 0.0
H569 H 0.01347 0.94234 0.86258 0.0
H570 H 0.0007 0.92847 0.26138 0.0
H571 H 0.0341 0.92576 0.29057 0.0
H572 H 0.00043 0.89298 0.24532 0.0
C573 C 0.73693 0.47129 0.29194 0.0
C574 C 0.70498 0.4561 0.30271 0.0
C575 C 0.75288 0.45538 0.30257 0.0
C576 C 0.73609 0.42352 0.32249 0.0
C577 C 0.70353 0.40764 0.32633 0.0
C578 C 0.68823 0.42434 0.31728 0.0
C579 C 0.78769 0.47292 0.29623 0.0
C580 C 0.685 0.37358 0.34532 0.0
C581 C 0.77904 0.38383 0.25981 0.0
C582 C 0.7957 0.38678 0.33568 0.0
C583 C 0.75808 0.39412 0.25629 0.0
C584 C 0.75282 0.40664 0.33152 0.0
C585 C 0.7668 0.40644 0.41119 0.0
C586 C 0.78857 0.39663 0.41233 0.0
C587 C 0.7436 0.39395 0.17024 0.0
C588 C 0.76021 0.41831 0.49346 0.0
H589 H 0.74968 0.49618 0.28325 0.0
H590 H 0.66353 0.41307 0.32798 0.0
H591 H 0.79791 0.472 0.35902 0.0
H592 H 0.7953 0.46204 0.24694 0.0
H593 H 0.79703 0.49757 0.27882 0.0
H594 H 0.66059 0.36382 0.32514 0.0
H595 H 0.69447 0.36052 0.31199 0.0
H596 H 0.68587 0.37004 0.41581 0.0
H597 H 0.78344 0.37473 0.2012 0.0
H598 H 0.80086 0.39799 0.47142 0.0
H599 H 0.75238 0.4181 0.14875 0.0
H600 H 0.71819 0.38285 0.17643 0.0
H601 H 0.74881 0.38162 0.11913 0.0
H602 H 0.77327 0.44396 0.49326 0.0
H603 H 0.7672 0.41029 0.55159 0.0
H604 H 0.7353 0.41071 0.49824 0.0
C605 C 0.61532 0.39627 0.46611 0.0
C606 C 0.60212 0.41456 0.44765 0.0
C607 C 0.59931 0.36428 0.44776 0.0
C608 C 0.56976 0.35056 0.40844 0.0
C609 C 0.55511 0.36831 0.39907 0.0
C610 C 0.57111 0.3998 0.42157 0.0
C611 C 0.61479 0.34566 0.46498 0.0
C612 C 0.52358 0.35479 0.3579 0.0
C613 C 0.53794 0.28193 0.25189 0.0
C614 C 0.51547 0.25832 0.30321 0.0
C615 C 0.55752 0.31173 0.28686 0.0
C616 C 0.55416 0.31804 0.37471 0.0
C617 C 0.53328 0.29358 0.42781 0.0
C618 C 0.51479 0.26415 0.39173 0.0
C619 C 0.5807 0.33682 0.22884 0.0
C620 C 0.52888 0.29879 0.5217 0.0
H621 H 0.63937 0.40751 0.48555 0.0
H622 H 0.56081 0.41382 0.40701 0.0
H623 H 0.60169 0.32786 0.51448 0.0
H624 H 0.61476 0.33324 0.40551 0.0
H625 H 0.63883 0.36025 0.48863 0.0
H626 H 0.51472 0.37115 0.35911 0.0
H627 H 0.52477 0.34864 0.28955 0.0
H628 H 0.50684 0.33325 0.39149 0.0
H629 H 0.5393 0.27754 0.18383 0.0
H630 H 0.49939 0.24592 0.43357 0.0
H631 H 0.60357 0.34938 0.26121 0.0
H632 H 0.57318 0.35384 0.2157 0.0
H633 H 0.58331 0.32747 0.16618 0.0
H634 H 0.55138 0.31104 0.55574 0.0
H635 H 0.51371 0.27682 0.55614 0.0
H636 H 0.51834 0.31365 0.52603 0.0
C637 C 0.59394 0.19808 0.35535 0.0
C638 C 0.57957 0.2154 0.37133 0.0
C639 C 0.62578 0.2124 0.34622 0.0
C640 C 0.64389 0.24461 0.35976 0.0
C641 C 0.62963 0.26198 0.38252 0.0
C642 C 0.59729 0.24716 0.38625 0.0
C643 C 0.63986 0.19318 0.31843 0.0
C644 C 0.64783 0.29631 0.39854 0.0
C645 C 0.72344 0.2659 0.43157 0.0
C646 C 0.7412 0.27979 0.35748 0.0
C647 C 0.69215 0.25598 0.43392 0.0
C648 C 0.67774 0.25879 0.35912 0.0
C649 C 0.6952 0.27254 0.28337 0.0
C650 C 0.72706 0.28313 0.28344 0.0
C651 C 0.6745 0.24236 0.51675 0.0
C652 C 0.6802 0.27607 0.20303 0.0
H653 H 0.57986 0.17349 0.34216 0.0
H654 H 0.586 0.26061 0.3958 0.0
H655 H 0.65487 0.2038 0.26125 0.0
H656 H 0.65453 0.19244 0.371 0.0
H657 H 0.62209 0.16905 0.30171 0.0
H658 H 0.63935 0.30211 0.45791 0.0
H659 H 0.67301 0.30564 0.40531 0.0
H660 H 0.64379 0.30803 0.34356 0.0
H661 H 0.7341 0.26305 0.48917 0.0
H662 H 0.74084 0.2943 0.22671 0.0
H663 H 0.65811 0.21729 0.50783 0.0
H664 H 0.66079 0.25344 0.53384 0.0
H665 H 0.68996 0.24527 0.57192 0.0
H666 H 0.66155 0.25305 0.18092 0.0
H667 H 0.69696 0.28722 0.14952 0.0
H668 H 0.66942 0.29024 0.21797 0.0
C669 C 0.43328 0.70051 0.58833 0.0
C670 C 0.45418 0.70837 0.65725 0.0
C671 C 0.41243 0.71103 0.58608 0.0
C672 C 0.41226 0.72916 0.65542 0.0
C673 C 0.42947 0.73262 0.73163 0.0
C674 C 0.45079 0.7223 0.73149 0.0
C675 C 0.39423 0.70688 0.50419 0.0
C676 C 0.4281 0.75045 0.80865 0.0
C677 C 0.41457 0.80307 0.60079 0.0
C678 C 0.38542 0.79642 0.62812 0.0
C679 C 0.4232 0.78074 0.60646 0.0
C680 C 0.40161 0.75103 0.63822 0.0
C681 C 0.37082 0.7431 0.65457 0.0
C682 C 0.36303 0.76616 0.64864 0.0
C683 C 0.45631 0.79006 0.58697 0.0
C684 C 0.34705 0.71166 0.68768 0.0
H685 H 0.43502 0.68838 0.53234 0.0
H686 H 0.46632 0.7274 0.78585 0.0
H687 H 0.3698 0.69912 0.51956 0.0
H688 H 0.40391 0.72939 0.47032 0.0
H689 H 0.395 0.68998 0.45913 0.0
H690 H 0.43748 0.74555 0.86782 0.0
H691 H 0.44196 0.7756 0.79526 0.0
H692 H 0.40398 0.74472 0.82092 0.0
H693 H 0.43167 0.82669 0.58456 0.0
H694 H 0.3407 0.7613 0.67005 0.0
H695 H 0.4574 0.77242 0.546 0.0
H696 H 0.46862 0.79193 0.64838 0.0
H697 H 0.46879 0.81272 0.55359 0.0
H698 H 0.35108 0.69308 0.66384 0.0
H699 H 0.32345 0.70608 0.66857 0.0
H700 H 0.34813 0.71183 0.75937 0.0
C701 C 0.1742 0.61129 0.7212 0.0
C702 C 0.18013 0.59107 0.67376 0.0
C703 C 0.19718 0.64165 0.73533 0.0
C704 C 0.22617 0.65261 0.69574 0.0
C705 C 0.23216 0.63253 0.64507 0.0
C706 C 0.2089 0.60157 0.63526 0.0
C707 C 0.18996 0.66221 0.79041 0.0
C708 C 0.26302 0.64366 0.60233 0.0
C709 C 0.25741 0.73351 0.62086 0.0
C710 C 0.28091 0.75062 0.68069 0.0
C711 C 0.24028 0.7016 0.62432 0.0
C712 C 0.24651 0.68616 0.69031 0.0
C713 C 0.2693 0.70301 0.75386 0.0
C714 C 0.28611 0.73546 0.74912 0.0
C715 C 0.21564 0.68445 0.55628 0.0
C716 C 0.27623 0.68679 0.82497 0.0
H717 H 0.15192 0.60265 0.75207 0.0
H718 H 0.21365 0.58536 0.60166 0.0
H719 H 0.20947 0.67676 0.83441 0.0
H720 H 0.1862 0.67788 0.74805 0.0
H721 H 0.16888 0.64862 0.82999 0.0
H722 H 0.26312 0.62565 0.5604 0.0
H723 H 0.26945 0.6645 0.56274 0.0
H724 H 0.28103 0.65029 0.65272 0.0
H725 H 0.2528 0.74483 0.56863 0.0
H726 H 0.3043 0.7487 0.79557 0.0
H727 H 0.19261 0.67167 0.58716 0.0
H728 H 0.21983 0.66727 0.52273 0.0
H729 H 0.21488 0.70015 0.50696 0.0
H730 H 0.25582 0.67437 0.86751 0.0
H731 H 0.29633 0.70313 0.86498 0.0
H732 H 0.28104 0.66924 0.79687 0.0
C733 C 0.39208 0.59534 0.7625 0.0
C734 C 0.40986 0.61057 0.68955 0.0
C735 C 0.36123 0.58747 0.76862 0.0
C736 C 0.34751 0.59472 0.69966 0.0
C737 C 0.36569 0.61175 0.62801 0.0
C738 C 0.39673 0.61925 0.62328 0.0
C739 C 0.34274 0.56924 0.8461 0.0
C740 C 0.35194 0.62091 0.55514 0.0
C741 C 0.26704 0.53002 0.65462 0.0
C742 C 0.24878 0.54078 0.69181 0.0
C743 C 0.29905 0.54796 0.65479 0.0
C744 C 0.31341 0.57763 0.69335 0.0
C745 C 0.29516 0.58883 0.73168 0.0
C746 C 0.26274 0.57009 0.73054 0.0
C747 C 0.3175 0.53483 0.6142 0.0
C748 C 0.3098 0.62056 0.77225 0.0
H749 H 0.40217 0.589 0.81494 0.0
H750 H 0.41065 0.63189 0.56818 0.0
H751 H 0.32806 0.57836 0.87057 0.0
H752 H 0.32722 0.5448 0.82673 0.0
H753 H 0.35775 0.56972 0.89971 0.0
H754 H 0.36938 0.63504 0.50566 0.0
H755 H 0.3332 0.59995 0.52326 0.0
H756 H 0.34155 0.6343 0.58115 0.0
H757 H 0.25609 0.50737 0.62432 0.0
H758 H 0.24841 0.57863 0.75713 0.0
H759 H 0.33242 0.53282 0.66371 0.0
H760 H 0.33275 0.55052 0.56295 0.0
H761 H 0.30256 0.51163 0.58506 0.0
H762 H 0.328 0.62382 0.81902 0.0
H763 H 0.29261 0.62464 0.806 0.0
H764 H 0.3211 0.6383 0.72131 0.0
C765 C 0.01572 0.20252 0.67155 0.0
C766 C -0.0026 0.21081 0.71988 0.0
C767 C 0.01496 0.20245 0.58091 0.0
C768 C -0.00384 0.21187 0.53735 0.0
C769 C 0.97802 0.22086 0.58569 0.0
C770 C 0.9788 0.22016 0.67647 0.0
C771 C 0.03377 0.19158 0.53169 0.0
C772 C 0.95735 0.23055 0.54148 0.0
C773 C 0.02783 0.24186 0.31515 0.0
C774 C 0.01072 0.2155 0.26388 0.0
C775 C 0.02148 0.24172 0.40343 0.0
C776 C -0.00234 0.21443 0.44142 0.0
C777 C 0.97858 0.18855 0.38839 0.0
C778 C 0.98555 0.18932 0.30011 0.0
C779 C 0.04204 0.26989 0.45755 0.0
C780 C 0.95255 0.15908 0.42544 0.0
H781 H 0.0294 0.19441 0.70452 0.0
H782 H 0.96412 0.22605 0.71359 0.0
H783 H 0.01859 0.17235 0.48749 0.0
H784 H 0.05121 0.21068 0.49139 0.0
H785 H 0.04586 0.18345 0.57523 0.0
H786 H 0.9438 0.23578 0.58835 0.0
H787 H 0.97143 0.25137 0.50148 0.0
H788 H 0.9411 0.21199 0.49712 0.0
H789 H 0.04739 0.26203 0.28714 0.0
H790 H 0.9725 0.16877 0.26068 0.0
H791 H 0.05698 0.26489 0.49946 0.0
H792 H 0.028 0.27575 0.50054 0.0
H793 H 0.05705 0.29033 0.41717 0.0
H794 H 0.96194 0.14466 0.4502 0.0
H795 H 0.93494 0.14547 0.37531 0.0
H796 H 0.94112 0.16377 0.47996 0.0
C797 C 0.81695 0.79071 0.6707 0.0
C798 C 0.81353 0.81258 0.71921 0.0
C799 C 0.81214 0.78825 0.58158 0.0
C800 C 0.80386 0.8082 0.54092 0.0
C801 C 0.79661 0.82748 0.59077 0.0
C802 C 0.80175 0.8296 0.67998 0.0
C803 C 0.81897 0.76663 0.53043 0.0
C804 C 0.78621 0.84799 0.54917 0.0
C805 C 0.84272 0.848 0.33484 0.0
C806 C 0.81795 0.83439 0.27774 0.0
C807 C 0.83882 0.83799 0.42045 0.0
C808 C 0.8094 0.8141 0.44792 0.0
C809 C 0.78503 0.79867 0.38807 0.0
C810 C 0.78971 0.8091 0.30282 0.0
C811 C 0.86542 0.85467 0.48294 0.0
C812 C 0.75367 0.77264 0.41488 0.0
H813 H 0.82493 0.77654 0.70143 0.0
H814 H 0.798 0.84565 0.71799 0.0
H815 H 0.80195 0.75524 0.47756 0.0
H816 H 0.84209 0.78007 0.50036 0.0
H817 H 0.8189 0.74853 0.57204 0.0
H818 H 0.77682 0.85759 0.59739 0.0
H819 H 0.80612 0.86753 0.51639 0.0
H820 H 0.76826 0.83503 0.49947 0.0
H821 H 0.86433 0.86769 0.3141 0.0
H822 H 0.77073 0.79881 0.25695 0.0
H823 H 0.8692 0.83783 0.51961 0.0
H824 H 0.85992 0.86787 0.53038 0.0
H825 H 0.88723 0.87103 0.44966 0.0
H826 H 0.75561 0.75254 0.43608 0.0
H827 H 0.73655 0.76501 0.36136 0.0
H828 H 0.74473 0.7798 0.47054 0.0
C829 C 0.21609 0.03823 0.67691 0.0
C830 C 0.18774 0.0211 0.71901 0.0
C831 C 0.22004 0.03085 0.59226 0.0
C832 C 0.19466 0.00641 0.54864 0.0
C833 C 0.16681 0.98743 0.59384 0.0
C834 C 0.16374 -0.00503 0.67928 0.0
C835 C 0.25041 0.05088 0.54719 0.0
C836 C 0.13935 0.96095 0.54962 0.0
C837 C 0.18539 0.01743 0.31065 0.0
C838 C 0.19345 -0.00284 0.27216 0.0
C839 C 0.18641 0.02109 0.40062 0.0
C840 C 0.19552 0.00388 0.45327 0.0
C841 C 0.20462 0.98409 0.41473 0.0
C842 C 0.20371 0.98116 0.32446 0.0
C843 C 0.1768 0.04269 0.43946 0.0
C844 C 0.21482 0.96566 0.4686 0.0
H845 H 0.23461 0.05845 0.70855 0.0
H846 H 0.14182 0.98198 0.71236 0.0
H847 H 0.25759 0.03643 0.5107 0.0
H848 H 0.24777 0.06603 0.49989 0.0
H849 H 0.26904 0.06571 0.59348 0.0
H850 H 0.12112 0.94605 0.59643 0.0
H851 H 0.12933 0.97029 0.50279 0.0
H852 H 0.14645 0.94651 0.51279 0.0
H853 H 0.17741 0.02981 0.27073 0.0
H854 H 0.21017 0.96555 0.29499 0.0
H855 H 0.19585 0.06055 0.47944 0.0
H856 H 0.15667 0.02961 0.48258 0.0
H857 H 0.17053 0.05448 0.38942 0.0
H858 H 0.2376 0.98151 0.49828 0.0
H859 H 0.21692 0.94815 0.42951 0.0
H860 H 0.19837 0.95369 0.5221 0.0
C861 C 0.63494 0.50958 0.66423 0.0
C862 C 0.66437 0.52599 0.62823 0.0
C863 C 0.63119 0.50858 0.75412 0.0
C864 C 0.6576 0.52356 0.80828 0.0
C865 C 0.68718 0.54167 0.77208 0.0
C866 C 0.69015 0.54294 0.68231 0.0
C867 C 0.59919 0.48982 0.79133 0.0
C868 C 0.71591 0.55744 0.82766 0.0
C869 C 0.64033 0.52144 0.04655 0.0
C870 C 0.63703 0.49278 0.06788 0.0
C871 C 0.64898 0.53312 0.96257 0.0
C872 C 0.6546 0.51562 0.90078 0.0
C873 C 0.65414 0.48817 0.92545 0.0
C874 C 0.64484 0.47682 0.00877 0.0
C875 C 0.64989 0.56278 0.9385 0.0
C876 C 0.66131 0.46954 0.86233 0.0
H877 H 0.61504 0.49694 0.62245 0.0
H878 H 0.71309 0.55586 0.65485 0.0
H879 H 0.59669 0.46869 0.82223 0.0
H880 H 0.5954 0.50329 0.84202 0.0
H881 H 0.58098 0.48273 0.74107 0.0
H882 H 0.73652 0.57403 0.79012 0.0
H883 H 0.71278 0.56993 0.88241 0.0
H884 H 0.72055 0.53976 0.85561 0.0
H885 H 0.63428 0.53363 0.09354 0.0
H886 H 0.64251 0.45482 0.02692 0.0
H887 H 0.62934 0.55731 0.89861 0.0
H888 H 0.67057 0.57775 0.89909 0.0
H889 H 0.64993 0.57596 -0.00353 0.0
H890 H 0.64232 0.4583 0.81434 0.0
H891 H 0.66394 0.45127 0.89512 0.0
H892 H 0.68284 0.48474 0.82643 0.0
C893 C 0.51243 0.18923 0.64703 0.0
C894 C 0.48663 0.17513 0.59324 0.0
C895 C 0.50991 0.18034 0.73386 0.0
C896 C 0.48093 0.15718 0.76607 0.0
C897 C 0.45578 0.14069 0.70915 0.0
C898 C 0.45902 0.14994 0.62291 0.0
C899 C 0.53746 0.19756 0.79286 0.0
C900 C 0.42457 0.1156 0.74016 0.0
C901 C 0.48283 0.13306 -0.00496 0.0
C902 C 0.47847 0.15478 0.04129 0.0
C903 C 0.48198 0.13227 0.90479 0.0
C904 C 0.47626 0.15346 0.86038 0.0
C905 C 0.46931 0.17367 0.90689 0.0
C906 C 0.47106 0.17448 -0.00271 0.0
C907 C 0.48878 0.10994 0.85726 0.0
C908 C 0.46116 0.19522 0.86112 0.0
H909 H 0.53365 0.20868 0.62331 0.0
H910 H 0.43918 0.13896 0.58002 0.0
H911 H 0.53344 0.21267 0.83718 0.0
H912 H 0.54066 0.18109 0.83328 0.0
H913 H 0.55903 0.21219 0.75624 0.0
H914 H 0.41096 0.09966 0.68662 0.0
H915 H 0.42662 0.10189 0.79324 0.0
H916 H 0.41146 0.12641 0.76524 0.0
H917 H 0.48816 0.11743 0.02925 0.0
H918 H 0.4668 0.19055 0.03344 0.0
H919 H 0.51186 0.12292 0.82671 0.0
H920 H 0.47173 0.09793 0.80475 0.0
H921 H 0.4886 0.09229 0.90107 0.0
H922 H 0.48184 0.21344 0.82741 0.0
H923 H 0.45269 0.20652 0.90658 0.0
H924 H 0.4431 0.18241 0.81154 0.0
C925 C 0.81491 0.32399 0.64619 0.0
C926 C 0.83987 0.35202 0.6179 0.0
C927 C 0.81064 0.31626 0.73388 0.0
C928 C 0.83089 0.33778 0.79548 0.0
C929 C 0.85538 0.36688 0.76779 0.0
C930 C 0.85997 0.37341 0.67877 0.0
C931 C 0.78616 0.28404 0.75991 0.0
C932 C 0.87802 0.39005 0.8316 0.0
C933 C 0.80474 0.32632 0.02978 0.0
C934 C 0.82255 0.31482 0.06578 0.0
C935 C 0.807 0.33352 0.94135 0.0
C936 C 0.82736 0.32888 0.88818 0.0
C937 C 0.84383 0.31528 0.92353 0.0
C938 C 0.84078 0.308 0.01161 0.0
C939 C 0.78925 0.34809 0.90591 0.0
C940 C 0.86575 0.3093 0.87107 0.0
H941 H 0.80034 0.30675 0.59907 0.0
H942 H 0.88011 0.3944 0.65664 0.0
H943 H 0.79738 0.27187 0.78889 0.0
H944 H 0.77083 0.28509 0.80977 0.0
H945 H 0.77183 0.27017 0.7042 0.0
H946 H 0.89362 0.41271 0.80095 0.0
H947 H 0.86557 0.3936 0.88565 0.0
H948 H 0.89231 0.38098 0.85958 0.0
H949 H 0.79134 0.33242 0.07196 0.0
H950 H 0.85495 0.2995 0.03985 0.0
H951 H 0.77442 0.33409 0.85123 0.0
H952 H 0.80562 0.37143 0.88039 0.0
H953 H 0.77449 0.35029 0.95563 0.0
H954 H 0.85508 0.28404 0.86008 0.0
H955 H 0.88747 0.31687 0.90786 0.0
H956 H 0.87173 0.321 0.80746 0.0
C957 C 0.30176 0.88135 0.34899 0.0
C958 C 0.32232 0.87689 0.40006 0.0
C959 C 0.3082 0.88968 0.26174 0.0
C960 C 0.33534 0.89256 0.22489 0.0
C961 C 0.3578 0.89179 0.27916 0.0
C962 C 0.35117 0.88446 0.36693 0.0
C963 C 0.2842 0.89145 0.2069 0.0
C964 C 0.38681 0.89416 0.24268 0.0
C965 C 0.3278 0.85519 0.0065 0.0
C966 C 0.34503 0.88075 0.95367 0.0
C967 C 0.32344 0.85889 0.09405 0.0
C968 C 0.33691 0.88907 0.12978 0.0
C969 C 0.35328 0.91514 0.07566 0.0
C970 C 0.35751 0.91066 0.98787 0.0
C971 C 0.3058 0.83035 0.14908 0.0
C972 C 0.36728 0.94755 0.11134 0.0
H973 H 0.27936 0.87545 0.37499 0.0
H974 H 0.36686 0.88067 0.40641 0.0
H975 H 0.29524 0.91025 0.15858 0.0
H976 H 0.27051 0.86941 0.17095 0.0
H977 H 0.26809 0.89535 0.247 0.0
H978 H 0.40392 0.89816 0.29418 0.0
H979 H 0.38083 0.87225 0.20883 0.0
H980 H 0.39767 0.9131 0.19486 0.0
H981 H 0.3188 0.83215 0.97981 0.0
H982 H 0.37149 0.93039 0.94693 0.0
H983 H 0.28619 0.83061 0.18134 0.0
H984 H 0.32109 0.83001 0.20047 0.0
H985 H 0.29657 0.80867 0.11071 0.0
H986 H 0.3494 0.95044 0.14535 0.0
H987 H 0.37773 0.96532 0.05992 0.0
H988 H 0.38537 0.95176 0.15963 0.0
C989 C 0.1805 0.522 -0.00041 0.0
C990 C 0.17011 0.49384 0.9569 0.0
C991 C 0.17529 0.52271 0.0882 0.0
C992 C 0.16092 0.49473 0.13536 0.0
C993 C 0.15287 0.46645 0.09353 0.0
C994 C 0.15771 0.4664 0.00442 0.0
C995 C 0.18245 0.55295 0.12972 0.0
C996 C 0.13673 0.43604 0.1409 0.0
C997 C 0.17549 0.50674 0.37521 0.0
C998 C 0.14706 0.50142 0.40653 0.0
C999 C 0.1796 0.50314 0.28747 0.0
C1000 C 0.15516 0.4956 0.22893 0.0
C1001 C 0.12631 0.49053 0.25993 0.0
C1002 C 0.12243 0.4928 0.34913 0.0
C1003 C 0.20965 0.50602 0.25774 0.0
C1004 C 0.09892 0.48137 0.20123 0.0
H1005 H 0.18894 0.54298 0.9619 0.0
H1006 H 0.14872 0.44456 0.97023 0.0
H1007 H 0.16098 0.55082 0.15702 0.0
H1008 H 0.19894 0.55856 0.18396 0.0
H1009 H 0.19243 0.57246 0.08321 0.0
H1010 H 0.13474 0.41664 0.10083 0.0
H1011 H 0.14921 0.43746 0.20158 0.0
H1012 H 0.11312 0.43073 0.15874 0.0
H1013 H 0.19388 0.51145 0.42059 0.0
H1014 H 0.0999 0.48682 0.37423 0.0
H1015 H 0.22178 0.5261 0.21386 0.0
H1016 H 0.20502 0.48508 0.2206 0.0
H1017 H 0.22525 0.509 0.31257 0.0
H1018 H 0.0875 0.4948 0.21819 0.0
H1019 H 0.08171 0.4566 0.21185 0.0
H1020 H 0.10497 0.48477 0.13165 0.0
C1021 C 0.5003 0.63208 0.32951 0.0
C1022 C 0.48435 0.64074 0.38712 0.0
C1023 C 0.50223 0.63919 0.24116 0.0
C1024 C 0.48776 0.65534 0.2095 0.0
C1025 C 0.46951 0.66183 0.26622 0.0
C1026 C 0.4678 0.6542 0.35441 0.0
C1027 C 0.52158 0.6313 0.1833 0.0
C1028 C 0.45393 0.67918 0.23526 0.0
C1029 C 0.52454 0.70188 0.00473 0.0
C1030 C 0.50369 0.68277 0.9411 0.0
C1031 C 0.51872 0.69429 0.09307 0.0
C1032 C 0.49233 0.666 0.11766 0.0
C1033 C 0.47106 0.647 0.05348 0.0
C1034 C 0.47655 0.6561 0.96654 0.0
C1035 C 0.54176 0.71566 0.15937 0.0
C1036 C 0.44383 0.61578 0.07562 0.0
H1037 H 0.51365 0.62224 0.35511 0.0
H1038 H 0.4562 0.66172 0.39905 0.0
H1039 H 0.50866 0.61959 0.12357 0.0
H1040 H 0.5427 0.65282 0.1635 0.0
H1041 H 0.52873 0.61614 0.21602 0.0
H1042 H 0.43952 0.6813 0.28628 0.0
H1043 H 0.47171 0.70272 0.2145 0.0
H1044 H 0.43915 0.66741 0.17827 0.0
H1045 H 0.54605 0.72195 0.98514 0.0
H1046 H 0.46094 0.6407 0.91757 0.0
H1047 H 0.55512 0.70524 0.18498 0.0
H1048 H 0.52971 0.7191 0.21472 0.0
H1049 H 0.55827 0.73858 0.13149 0.0
H1050 H 0.45224 0.60072 0.10201 0.0
H1051 H 0.42899 0.60405 0.01851 0.0
H1052 H 0.42956 0.61814 0.12641 0.0
loop_
_geom_bond_atom_site_label_1
_geom_bond_atom_site_label_2
_geom_bond_distance
_geom_bond_site_symmetry_2
_ccdc_geom_bond_type
Zn0 O6 1.920 . S
Zn0 O12 1.898 . S
Zn0 O15 1.905 . S
Zn1 O9 1.905 . S
Zn1 O10 1.898 1_556 S
Zn1 O18 1.920 . S
Zn2 O5 2.081 . S
Zn2 O8 2.114 1_455 S
Zn2 O11 2.120 1_455 S
Zn2 O13 2.120 1_554 S
Zn2 O14 2.114 . S
Zn2 O17 2.080 1_454 S
C3 O8 1.166 1_556 S
C3 O9 1.182 . S
C4 O10 1.167 . S
C4 O11 1.299 . S
O5 Zn2 2.081 . S
O5 C19 1.302 1_554 S
O6 Zn0 1.920 . S
O6 C19 1.234 1_554 S
C7 O12 1.167 . S
C7 O13 1.299 1_554 S
O8 Zn2 2.114 1_655 S
O8 C3 1.166 1_554 S
O9 Zn1 1.905 . S
O9 C3 1.182 . S
O10 Zn1 1.898 1_554 S
O10 C4 1.167 . S
O11 Zn2 2.120 1_655 S
O11 C4 1.299 . S
O12 Zn0 1.898 . S
O12 C7 1.167 . S
O13 Zn2 2.120 1_556 S
O13 C7 1.299 1_556 S
O14 Zn2 2.114 . S
O14 C16 1.166 . S
O15 Zn0 1.905 . S
O15 C16 1.182 . S
C16 O14 1.166 . S
C16 O15 1.182 . S
O17 Zn2 2.080 1_656 S
O17 C20 1.305 . S
O18 Zn1 1.920 . S
O18 C20 1.234 . S
C19 O5 1.302 1_556 S
C19 O6 1.234 1_556 S
C20 O17 1.305 . S
C20 O18 1.234 . S
Zn21 O27 1.920 . S
Zn21 O33 1.898 . S
Zn21 O36 1.905 . S
Zn22 O30 1.905 . S
Zn22 O31 1.898 . S
Zn22 O39 1.920 1_556 S
Zn23 O26 2.080 . S
Zn23 O29 2.114 1_554 S
Zn23 O32 2.120 . S
Zn23 O34 2.120 . S
Zn23 O35 2.114 1_554 S
Zn23 O38 2.080 . S
C24 O29 1.166 . S
C24 O30 1.182 . S
C25 O31 1.167 . S
C25 O32 1.299 1_556 S
O26 Zn23 2.080 . S
O26 C40 1.305 . S
O27 Zn21 1.920 . S
O27 C40 1.234 . S
C28 O33 1.167 1_556 S
C28 O34 1.299 1_556 S
O29 Zn23 2.114 1_556 S
O29 C24 1.166 . S
O30 Zn22 1.905 . S
O30 C24 1.182 . S
O31 Zn22 1.898 . S
O31 C25 1.167 . S
O32 Zn23 2.120 . S
O32 C25 1.299 1_554 S
O33 Zn21 1.898 . S
O33 C28 1.167 1_554 S
O34 Zn23 2.120 . S
O34 C28 1.299 1_554 S
O35 Zn23 2.114 1_556 S
O35 C37 1.166 1_556 S
O36 Zn21 1.905 . S
O36 C37 1.182 . S
C37 O35 1.166 1_554 S
C37 O36 1.182 . S
O38 Zn23 2.080 . S
O38 C41 1.305 . S
O39 Zn22 1.920 1_554 S
O39 C41 1.234 . S
C40 O26 1.305 . S
C40 O27 1.234 . S
C41 O38 1.305 . S
C41 O39 1.234 . S
Zn42 O48 1.920 . S
Zn42 O54 1.898 1_556 S
Zn42 O57 1.905 . S
Zn43 O51 1.905 . S
Zn43 O52 1.898 . S
Zn43 O60 1.920 . S
Zn44 O47 2.080 1_554 S
Zn44 O50 2.114 . S
Zn44 O53 2.120 1_544 S
Zn44 O55 2.120 . S
Zn44 O56 2.114 . S
Zn44 O59 2.080 1_544 S
C45 O50 1.166 1_565 S
C45 O51 1.182 . S
C46 O52 1.167 . S
C46 O53 1.299 1_554 S
O47 Zn44 2.080 1_556 S
O47 C61 1.305 . S
O48 Zn42 1.920 . S
O48 C61 1.234 . S
C49 O54 1.167 . S
C49 O55 1.299 . S
O50 Zn44 2.114 . S
O50 C45 1.166 1_545 S
O51 Zn43 1.905 . S
O51 C45 1.182 . S
O52 Zn43 1.898 . S
O52 C46 1.167 . S
O53 Zn44 2.120 1_566 S
O53 C46 1.299 1_556 S
O54 Zn42 1.898 1_554 S
O54 C49 1.167 . S
O55 Zn44 2.120 . S
O55 C49 1.299 . S
O56 Zn44 2.114 . S
O56 C58 1.166 1_554 S
O57 Zn42 1.905 . S
O57 C58 1.182 . S
C58 O56 1.166 1_556 S
C58 O57 1.182 . S
O59 Zn44 2.080 1_566 S
O59 C62 1.305 . S
O60 Zn43 1.920 . S
O60 C62 1.234 1_554 S
C61 O47 1.305 . S
C61 O48 1.234 . S
C62 O59 1.305 . S
C62 O60 1.234 1_556 S
Zn63 O69 1.920 . S
Zn63 O75 1.898 . S
Zn63 O78 1.905 . S
Zn64 O72 1.905 . S
Zn64 O73 1.898 . S
Zn64 O81 1.920 . S
Zn65 O68 2.080 . S
Zn65 O71 2.114 . S
Zn65 O74 2.120 . S
Zn65 O76 2.120 . S
Zn65 O77 2.114 . S
Zn65 O80 2.080 . S
C66 O71 1.166 . S
C66 O72 1.182 . S
C67 O73 1.167 . S
C67 O74 1.299 . S
O68 Zn65 2.080 . S
O68 C82 1.305 . S
O69 Zn63 1.920 . S
O69 C82 1.234 . S
C70 O75 1.167 . S
C70 O76 1.299 . S
O71 Zn65 2.114 . S
O71 C66 1.166 . S
O72 Zn64 1.905 . S
O72 C66 1.182 . S
O73 Zn64 1.898 . S
O73 C67 1.167 . S
O74 Zn65 2.120 . S
O74 C67 1.299 . S
O75 Zn63 1.898 . S
O75 C70 1.167 . S
O76 Zn65 2.120 . S
O76 C70 1.299 . S
O77 Zn65 2.114 . S
O77 C79 1.166 . S
O78 Zn63 1.905 . S
O78 C79 1.182 . S
C79 O77 1.166 . S
C79 O78 1.182 . S
O80 Zn65 2.080 . S
O80 C83 1.305 . S
O81 Zn64 1.920 . S
O81 C83 1.234 . S
C82 O68 1.305 . S
C82 O69 1.234 . S
C83 O80 1.305 . S
C83 O81 1.234 . S
Zn84 O90 1.920 . S
Zn84 O96 1.898 . S
Zn84 O99 1.905 . S
Zn85 O93 1.905 . S
Zn85 O94 1.898 . S
Zn85 O102 1.920 . S
Zn86 O89 2.080 . S
Zn86 O92 2.114 . S
Zn86 O95 2.120 . S
Zn86 O97 2.120 . S
Zn86 O98 2.114 . S
Zn86 O101 2.080 . S
C87 O92 1.166 . S
C87 O93 1.182 . S
C88 O94 1.167 . S
C88 O95 1.299 . S
O89 Zn86 2.080 . S
O89 C103 1.305 . S
O90 Zn84 1.920 . S
O90 C103 1.234 . S
C91 O96 1.167 . S
C91 O97 1.299 . S
O92 Zn86 2.114 . S
O92 C87 1.166 . S
O93 Zn85 1.905 . S
O93 C87 1.182 . S
O94 Zn85 1.898 . S
O94 C88 1.167 . S
O95 Zn86 2.120 . S
O95 C88 1.299 . S
O96 Zn84 1.898 . S
O96 C91 1.167 . S
O97 Zn86 2.120 . S
O97 C91 1.299 . S
O98 Zn86 2.114 . S
O98 C100 1.166 . S
O99 Zn84 1.905 . S
O99 C100 1.182 . S
C100 O98 1.166 . S
C100 O99 1.182 . S
O101 Zn86 2.080 . S
O101 C104 1.305 . S
O102 Zn85 1.920 . S
O102 C104 1.234 . S
C103 O89 1.305 . S
C103 O90 1.234 . S
C104 O101 1.305 . S
C104 O102 1.234 . S
Zn105 O111 1.920 . S
Zn105 O117 1.898 . S
Zn105 O120 1.905 . S
Zn106 O114 1.905 . S
Zn106 O115 1.898 . S
Zn106 O123 1.920 . S
Zn107 O110 2.080 . S
Zn107 O113 2.114 . S
Zn107 O116 2.120 . S
Zn107 O118 2.120 . S
Zn107 O119 2.114 . S
Zn107 O122 2.080 . S
C108 O113 1.166 . S
C108 O114 1.182 . S
C109 O115 1.167 . S
C109 O116 1.299 . S
O110 Zn107 2.080 . S
O110 C124 1.305 . S
O111 Zn105 1.920 . S
O111 C124 1.234 . S
C112 O117 1.167 . S
C112 O118 1.299 . S
O113 Zn107 2.114 . S
O113 C108 1.166 . S
O114 Zn106 1.905 . S
O114 C108 1.182 . S
O115 Zn106 1.898 . S
O115 C109 1.167 . S
O116 Zn107 2.120 . S
O116 C109 1.299 . S
O117 Zn105 1.898 . S
O117 C112 1.167 . S
O118 Zn107 2.120 . S
O118 C112 1.299 . S
O119 Zn107 2.114 . S
O119 C121 1.166 . S
O120 Zn105 1.905 . S
O120 C121 1.182 . S
C121 O119 1.166 . S
C121 O120 1.182 . S
O122 Zn107 2.080 . S
O122 C125 1.305 . S
O123 Zn106 1.920 . S
O123 C125 1.234 . S
C124 O110 1.305 . S
C124 O111 1.234 . S
C125 O122 1.305 . S
C125 O123 1.234 . S
Zn126 O132 1.920 . S
Zn126 O138 1.898 . S
Zn126 O141 1.905 . S
Zn127 O135 1.905 . S
Zn127 O136 1.898 . S
Zn127 O144 1.920 . S
Zn128 O131 2.080 . S
Zn128 O134 2.114 . S
Zn128 O137 2.120 . S
Zn128 O139 2.120 . S
Zn128 O140 2.114 . S
Zn128 O143 2.080 . S
C129 O134 1.166 . S
C129 O135 1.182 . S
C130 O136 1.167 . S
C130 O137 1.299 . S
O131 Zn128 2.080 . S
O131 C145 1.305 . S
O132 Zn126 1.920 . S
O132 C145 1.234 . S
C133 O138 1.167 . S
C133 O139 1.299 . S
O134 Zn128 2.114 . S
O134 C129 1.166 . S
O135 Zn127 1.905 . S
O135 C129 1.182 . S
O136 Zn127 1.898 . S
O136 C130 1.167 . S
O137 Zn128 2.120 . S
O137 C130 1.299 . S
O138 Zn126 1.898 . S
O138 C133 1.167 . S
O139 Zn128 2.120 . S
O139 C133 1.299 . S
O140 Zn128 2.114 . S
O140 C142 1.166 . S
O141 Zn126 1.905 . S
O141 C142 1.182 . S
C142 O140 1.166 . S
C142 O141 1.182 . S
O143 Zn128 2.080 . S
O143 C146 1.305 . S
O144 Zn127 1.920 . S
O144 C146 1.234 . S
C145 O131 1.305 . S
C145 O132 1.234 . S
C146 O143 1.305 . S
C146 O144 1.234 . S
Zn147 O153 1.920 . S
Zn147 O159 1.898 . S
Zn147 O162 1.905 . S
Zn148 O156 1.905 . S
Zn148 O157 1.898 . S
Zn148 O165 1.920 . S
Zn149 O152 2.080 . S
Zn149 O155 2.114 . S
Zn149 O158 2.120 . S
Zn149 O160 2.120 . S
Zn149 O161 2.114 . S
Zn149 O164 2.080 . S
C150 O155 1.166 . S
C150 O156 1.182 . S
C151 O157 1.167 . S
C151 O158 1.299 . S
O152 Zn149 2.080 . S
O152 C166 1.305 . S
O153 Zn147 1.920 . S
O153 C166 1.234 . S
C154 O159 1.167 . S
C154 O160 1.299 . S
O155 Zn149 2.114 . S
O155 C150 1.166 . S
O156 Zn148 1.905 . S
O156 C150 1.182 . S
O157 Zn148 1.898 . S
O157 C151 1.167 . S
O158 Zn149 2.120 . S
O158 C151 1.299 . S
O159 Zn147 1.898 . S
O159 C154 1.167 . S
O160 Zn149 2.120 . S
O160 C154 1.299 . S
O161 Zn149 2.114 . S
O161 C163 1.166 . S
O162 Zn147 1.905 . S
O162 C163 1.182 . S
C163 O161 1.166 . S
C163 O162 1.182 . S
O164 Zn149 2.080 . S
O164 C167 1.305 . S
O165 Zn148 1.920 . S
O165 C167 1.234 . S
C166 O152 1.305 . S
C166 O153 1.234 . S
C167 O164 1.305 . S
C167 O165 1.234 . S
Zn168 O174 1.920 . S
Zn168 O180 1.898 . S
Zn168 O183 1.905 . S
Zn169 O177 1.905 . S
Zn169 O178 1.898 . S
Zn169 O186 1.920 . S
Zn170 O173 2.080 . S
Zn170 O176 2.114 . S
Zn170 O179 2.120 . S
Zn170 O181 2.120 . S
Zn170 O182 2.114 . S
Zn170 O185 2.080 . S
C171 O176 1.166 . S
C171 O177 1.182 . S
C172 O178 1.167 . S
C172 O179 1.299 . S
O173 Zn170 2.080 . S
O173 C187 1.305 . S
O174 Zn168 1.920 . S
O174 C187 1.234 . S
C175 O180 1.167 . S
C175 O181 1.299 . S
O176 Zn170 2.114 . S
O176 C171 1.166 . S
O177 Zn169 1.905 . S
O177 C171 1.182 . S
O178 Zn169 1.898 . S
O178 C172 1.167 . S
O179 Zn170 2.120 . S
O179 C172 1.299 . S
O180 Zn168 1.898 . S
O180 C175 1.167 . S
O181 Zn170 2.120 . S
O181 C175 1.299 . S
O182 Zn170 2.114 . S
O182 C184 1.166 . S
O183 Zn168 1.905 . S
O183 C184 1.182 . S
C184 O182 1.166 . S
C184 O183 1.182 . S
O185 Zn170 2.080 . S
O185 C188 1.305 . S
O186 Zn169 1.920 . S
O186 C188 1.234 . S
C187 O173 1.305 . S
C187 O174 1.234 . S
C188 O185 1.305 . S
C188 O186 1.234 . S
C189 C190 1.391 . S
C189 C191 1.394 . S
C189 H205 0.931 1_556 S
C190 C189 1.391 . S
C190 C194 1.376 . S
C191 C189 1.394 . S
C191 C192 1.369 . S
C191 C195 1.531 1_556 S
C192 C191 1.369 . S
C192 C193 1.410 . S
C192 C200 1.503 . S
C193 C192 1.410 . S
C193 C194 1.392 . S
C193 C196 1.511 . S
C194 C190 1.376 . S
C194 C193 1.392 . S
C194 H206 0.929 . S
C195 C191 1.531 1_554 S
C195 H207 0.960 1_554 S
C195 H208 0.962 1_554 S
C195 H209 0.960 . S
C196 C193 1.511 . S
C196 H210 0.961 . S
C196 H211 0.961 . S
C196 H212 0.961 . S
C197 C198 1.370 . S
C197 C199 1.363 . S
C197 H213 0.931 . S
C198 C197 1.370 . S
C198 C202 1.408 . S
C199 C197 1.363 . S
C199 C200 1.370 . S
C199 C203 1.524 . S
C200 C192 1.503 . S
C200 C199 1.370 . S
C200 C201 1.403 . S
C201 C200 1.403 . S
C201 C202 1.404 . S
C201 C204 1.539 . S
C202 C198 1.408 . S
C202 C201 1.404 . S
C202 H214 0.930 . S
C203 C199 1.524 . S
C203 H215 0.956 . S
C203 H216 0.961 . S
C203 H217 0.961 . S
C204 C201 1.539 . S
C204 H218 0.958 . S
C204 H219 0.961 . S
C204 H220 0.960 . S
H205 C189 0.931 1_554 S
H206 C194 0.929 . S
H207 C195 0.960 1_556 S
H208 C195 0.962 1_556 S
H209 C195 0.960 . S
H210 C196 0.961 . S
H211 C196 0.961 . S
H212 C196 0.961 . S
H213 C197 0.931 . S
H214 C202 0.930 . S
H215 C203 0.956 . S
H216 C203 0.961 . S
H217 C203 0.961 . S
H218 C204 0.958 . S
H219 C204 0.961 . S
H220 C204 0.960 . S
C221 C222 1.391 . S
C221 C223 1.394 . S
C221 H237 0.931 1_556 S
C222 C221 1.391 . S
C222 C226 1.376 . S
C223 C221 1.394 . S
C223 C224 1.369 . S
C223 C227 1.531 1_556 S
C224 C223 1.369 . S
C224 C225 1.410 . S
C224 C232 1.503 . S
C225 C224 1.410 . S
C225 C226 1.392 . S
C225 C228 1.511 . S
C226 C222 1.376 . S
C226 C225 1.392 . S
C226 H238 0.929 . S
C227 C223 1.531 1_554 S
C227 H239 0.960 1_554 S
C227 H240 0.962 . S
C227 H241 0.960 . S
C228 C225 1.511 . S
C228 H242 0.961 . S
C228 H243 0.961 . S
C228 H244 0.961 . S
C229 C230 1.370 . S
C229 C231 1.363 . S
C229 H245 0.931 . S
C230 C229 1.370 . S
C230 C234 1.408 . S
C231 C229 1.363 . S
C231 C232 1.370 . S
C231 C235 1.524 . S
C232 C224 1.503 . S
C232 C231 1.370 . S
C232 C233 1.403 . S
C233 C232 1.403 . S
C233 C234 1.404 . S
C233 C236 1.539 . S
C234 C230 1.408 . S
C234 C233 1.404 . S
C234 H246 0.930 . S
C235 C231 1.524 . S
C235 H247 0.956 . S
C235 H248 0.961 . S
C235 H249 0.961 . S
C236 C233 1.539 . S
C236 H250 0.958 . S
C236 H251 0.961 . S
C236 H252 0.960 . S
H237 C221 0.931 1_554 S
H238 C226 0.929 . S
H239 C227 0.960 1_556 S
H240 C227 0.962 . S
H241 C227 0.960 . S
H242 C228 0.961 . S
H243 C228 0.961 . S
H244 C228 0.961 . S
H245 C229 0.931 . S
H246 C234 0.930 . S
H247 C235 0.956 . S
H248 C235 0.961 . S
H249 C235 0.961 . S
H250 C236 0.958 . S
H251 C236 0.961 . S
H252 C236 0.960 . S
C253 C254 1.391 . S
C253 C255 1.394 . S
C253 H269 0.931 . S
C254 C253 1.391 . S
C254 C258 1.376 . S
C255 C253 1.394 . S
C255 C256 1.369 . S
C255 C259 1.531 . S
C256 C255 1.369 . S
C256 C257 1.410 . S
C256 C264 1.503 . S
C257 C256 1.410 . S
C257 C258 1.392 . S
C257 C260 1.511 . S
C258 C254 1.376 . S
C258 C257 1.392 . S
C258 H270 0.929 . S
C259 C255 1.531 . S
C259 H271 0.960 . S
C259 H272 0.962 . S
C259 H273 0.960 . S
C260 C257 1.511 . S
C260 H274 0.961 . S
C260 H275 0.961 . S
C260 H276 0.961 . S
C261 C262 1.370 . S
C261 C263 1.363 . S
C261 H277 0.931 . S
C262 C261 1.370 . S
C262 C266 1.408 . S
C263 C261 1.363 . S
C263 C264 1.370 . S
C263 C267 1.524 . S
C264 C256 1.503 . S
C264 C263 1.370 . S
C264 C265 1.403 . S
C265 C264 1.403 . S
C265 C266 1.404 . S
C265 C268 1.539 . S
C266 C262 1.408 . S
C266 C265 1.404 . S
C266 H278 0.930 . S
C267 C263 1.524 . S
C267 H279 0.956 . S
C267 H280 0.961 . S
C267 H281 0.961 . S
C268 C265 1.539 . S
C268 H282 0.958 . S
C268 H283 0.961 1_556 S
C268 H284 0.960 1_556 S
H269 C253 0.931 . S
H270 C258 0.929 . S
H271 C259 0.960 . S
H272 C259 0.962 . S
H273 C259 0.960 . S
H274 C260 0.961 . S
H275 C260 0.961 . S
H276 C260 0.961 . S
H277 C261 0.931 . S
H278 C266 0.930 . S
H279 C267 0.956 . S
H280 C267 0.961 . S
H281 C267 0.961 . S
H282 C268 0.958 . S
H283 C268 0.961 1_554 S
H284 C268 0.960 1_554 S
C285 C286 1.391 . S
C285 C287 1.394 . S
C285 H301 0.931 . S
C286 C285 1.391 . S
C286 C290 1.376 . S
C287 C285 1.394 . S
C287 C288 1.369 . S
C287 C291 1.531 . S
C288 C287 1.369 . S
C288 C289 1.410 . S
C288 C296 1.503 . S
C289 C288 1.410 . S
C289 C290 1.392 . S
C289 C292 1.511 . S
C290 C286 1.376 . S
C290 C289 1.392 . S
C290 H302 0.929 . S
C291 C287 1.531 . S
C291 H303 0.960 . S
C291 H304 0.962 . S
C291 H305 0.960 . S
C292 C289 1.511 . S
C292 H306 0.961 . S
C292 H307 0.961 . S
C292 H308 0.961 . S
C293 C294 1.370 . S
C293 C295 1.363 . S
C293 H309 0.931 . S
C294 C293 1.370 . S
C294 C298 1.408 . S
C295 C293 1.363 . S
C295 C296 1.370 . S
C295 C299 1.524 . S
C296 C288 1.503 . S
C296 C295 1.370 . S
C296 C297 1.403 . S
C297 C296 1.403 . S
C297 C298 1.404 . S
C297 C300 1.539 1_554 S
C298 C294 1.408 . S
C298 C297 1.404 . S
C298 H310 0.930 1_554 S
C299 C295 1.524 . S
C299 H311 0.956 . S
C299 H312 0.961 . S
C299 H313 0.961 . S
C300 C297 1.539 1_556 S
C300 H314 0.958 . S
C300 H315 0.961 . S
C300 H316 0.960 1_556 S
H301 C285 0.931 . S
H302 C290 0.929 . S
H303 C291 0.960 . S
H304 C291 0.962 . S
H305 C291 0.960 . S
H306 C292 0.961 . S
H307 C292 0.961 . S
H308 C292 0.961 . S
H309 C293 0.931 . S
H310 C298 0.930 1_556 S
H311 C299 0.956 . S
H312 C299 0.961 . S
H313 C299 0.961 . S
H314 C300 0.958 . S
H315 C300 0.961 . S
H316 C300 0.960 1_554 S
C317 C318 1.391 . S
C317 C319 1.394 . S
C317 H333 0.931 . S
C318 C317 1.391 . S
C318 C322 1.376 . S
C319 C317 1.394 . S
C319 C320 1.369 . S
C319 C323 1.531 . S
C320 C319 1.369 . S
C320 C321 1.410 . S
C320 C328 1.503 . S
C321 C320 1.410 . S
C321 C322 1.392 . S
C321 C324 1.511 . S
C322 C318 1.376 . S
C322 C321 1.392 . S
C322 H334 0.929 . S
C323 C319 1.531 . S
C323 H335 0.960 . S
C323 H336 0.962 . S
C323 H337 0.960 . S
C324 C321 1.511 . S
C324 H338 0.961 . S
C324 H339 0.961 . S
C324 H340 0.961 . S
C325 C326 1.370 . S
C325 C327 1.363 . S
C325 H341 0.931 . S
C326 C325 1.370 . S
C326 C330 1.408 . S
C327 C325 1.363 . S
C327 C328 1.370 . S
C327 C331 1.524 . S
C328 C320 1.503 . S
C328 C327 1.370 . S
C328 C329 1.403 . S
C329 C328 1.403 . S
C329 C330 1.404 . S
C329 C332 1.539 . S
C330 C326 1.408 . S
C330 C329 1.404 . S
C330 H342 0.930 1_554 S
C331 C327 1.524 . S
C331 H343 0.956 . S
C331 H344 0.961 . S
C331 H345 0.961 . S
C332 C329 1.539 . S
C332 H346 0.958 . S
C332 H347 0.961 1_554 S
C332 H348 0.960 . S
H333 C317 0.931 . S
H334 C322 0.929 . S
H335 C323 0.960 . S
H336 C323 0.962 . S
H337 C323 0.960 . S
H338 C324 0.961 . S
H339 C324 0.961 . S
H340 C324 0.961 . S
H341 C325 0.931 . S
H342 C330 0.930 1_556 S
H343 C331 0.956 . S
H344 C331 0.961 . S
H345 C331 0.961 . S
H346 C332 0.958 . S
H347 C332 0.961 1_556 S
H348 C332 0.960 . S
C349 C350 1.391 . S
C349 C351 1.394 . S
C349 H365 0.931 . S
C350 C349 1.391 . S
C350 C354 1.376 . S
C351 C349 1.394 . S
C351 C352 1.369 . S
C351 C355 1.531 . S
C352 C351 1.369 . S
C352 C353 1.410 . S
C352 C360 1.503 . S
C353 C352 1.410 . S
C353 C354 1.392 . S
C353 C356 1.511 . S
C354 C350 1.376 . S
C354 C353 1.392 . S
C354 H366 0.929 . S
C355 C351 1.531 . S
C355 H367 0.960 . S
C355 H368 0.962 . S
C355 H369 0.960 . S
C356 C353 1.511 . S
C356 H370 0.961 . S
C356 H371 0.961 . S
C356 H372 0.961 . S
C357 C358 1.370 . S
C357 C359 1.363 . S
C357 H373 0.931 . S
C358 C357 1.370 . S
C358 C362 1.408 . S
C359 C357 1.363 . S
C359 C360 1.370 . S
C359 C363 1.524 . S
C360 C352 1.503 . S
C360 C359 1.370 . S
C360 C361 1.403 . S
C361 C360 1.403 . S
C361 C362 1.404 . S
C361 C364 1.539 . S
C362 C358 1.408 . S
C362 C361 1.404 . S
C362 H374 0.930 . S
C363 C359 1.524 . S
C363 H375 0.956 . S
C363 H376 0.961 . S
C363 H377 0.961 . S
C364 C361 1.539 . S
C364 H378 0.958 . S
C364 H379 0.961 . S
C364 H380 0.960 . S
H365 C349 0.931 . S
H366 C354 0.929 . S
H367 C355 0.960 . S
H368 C355 0.962 . S
H369 C355 0.960 . S
H370 C356 0.961 . S
H371 C356 0.961 . S
H372 C356 0.961 . S
H373 C357 0.931 . S
H374 C362 0.930 . S
H375 C363 0.956 . S
H376 C363 0.961 . S
H377 C363 0.961 . S
H378 C364 0.958 . S
H379 C364 0.961 . S
H380 C364 0.960 . S
C381 C382 1.391 . S
C381 C383 1.394 . S
C381 H397 0.931 . S
C382 C381 1.391 . S
C382 C386 1.376 . S
C383 C381 1.394 . S
C383 C384 1.369 . S
C383 C387 1.531 . S
C384 C383 1.369 . S
C384 C385 1.410 . S
C384 C392 1.503 1_455 S
C385 C384 1.410 . S
C385 C386 1.392 . S
C385 C388 1.511 . S
C386 C382 1.376 . S
C386 C385 1.392 . S
C386 H398 0.929 . S
C387 C383 1.531 . S
C387 H399 0.960 . S
C387 H400 0.962 . S
C387 H401 0.960 . S
C388 C385 1.511 . S
C388 H402 0.961 . S
C388 H403 0.961 . S
C388 H404 0.961 . S
C389 C390 1.370 . S
C389 C391 1.363 . S
C389 H405 0.931 . S
C390 C389 1.370 . S
C390 C394 1.408 . S
C391 C389 1.363 . S
C391 C392 1.370 . S
C391 C395 1.524 . S
C392 C384 1.503 1_655 S
C392 C391 1.370 . S
C392 C393 1.403 . S
C393 C392 1.403 . S
C393 C394 1.404 . S
C393 C396 1.539 1_655 S
C394 C390 1.408 . S
C394 C393 1.404 . S
C394 H406 0.930 . S
C395 C391 1.524 . S
C395 H407 0.956 . S
C395 H408 0.961 . S
C395 H409 0.961 . S
C396 C393 1.539 1_455 S
C396 H410 0.958 . S
C396 H411 0.961 . S
C396 H412 0.960 . S
H397 C381 0.931 . S
H398 C386 0.929 . S
H399 C387 0.960 . S
H400 C387 0.962 . S
H401 C387 0.960 . S
H402 C388 0.961 . S
H403 C388 0.961 . S
H404 C388 0.961 . S
H405 C389 0.931 . S
H406 C394 0.930 . S
H407 C395 0.956 . S
H408 C395 0.961 . S
H409 C395 0.961 . S
H410 C396 0.958 . S
H411 C396 0.961 . S
H412 C396 0.960 . S
C413 C414 1.391 . S
C413 C415 1.394 . S
C413 H429 0.931 . S
C414 C413 1.391 . S
C414 C418 1.376 . S
C415 C413 1.394 . S
C415 C416 1.369 . S
C415 C419 1.531 . S
C416 C415 1.369 . S
C416 C417 1.410 . S
C416 C424 1.503 . S
C417 C416 1.410 . S
C417 C418 1.392 . S
C417 C420 1.511 . S
C418 C414 1.376 . S
C418 C417 1.392 . S
C418 H430 0.929 . S
C419 C415 1.531 . S
C419 H431 0.960 . S
C419 H432 0.962 . S
C419 H433 0.960 . S
C420 C417 1.511 . S
C420 H434 0.961 . S
C420 H435 0.961 . S
C420 H436 0.961 . S
C421 C422 1.370 . S
C421 C423 1.363 . S
C421 H437 0.931 . S
C422 C421 1.370 . S
C422 C426 1.408 . S
C423 C421 1.363 . S
C423 C424 1.370 . S
C423 C427 1.524 . S
C424 C416 1.503 . S
C424 C423 1.370 . S
C424 C425 1.403 . S
C425 C424 1.403 . S
C425 C426 1.404 . S
C425 C428 1.539 . S
C426 C422 1.408 . S
C426 C425 1.404 . S
C426 H438 0.930 . S
C427 C423 1.524 . S
C427 H439 0.956 . S
C427 H440 0.961 . S
C427 H441 0.961 . S
C428 C425 1.539 . S
C428 H442 0.958 . S
C428 H443 0.961 . S
C428 H444 0.960 . S
H429 C413 0.931 . S
H430 C418 0.929 . S
H431 C419 0.960 . S
H432 C419 0.962 . S
H433 C419 0.960 . S
H434 C420 0.961 . S
H435 C420 0.961 . S
H436 C420 0.961 . S
H437 C421 0.931 . S
H438 C426 0.930 . S
H439 C427 0.956 . S
H440 C427 0.961 . S
H441 C427 0.961 . S
H442 C428 0.958 . S
H443 C428 0.961 . S
H444 C428 0.960 . S
C445 C446 1.391 . S
C445 C447 1.394 . S
C445 H461 0.931 . S
C446 C445 1.391 . S
C446 C450 1.376 . S
C447 C445 1.394 . S
C447 C448 1.369 . S
C447 C451 1.531 . S
C448 C447 1.369 . S
C448 C449 1.410 . S
C448 C456 1.503 1_545 S
C449 C448 1.410 . S
C449 C450 1.392 . S
C449 C452 1.511 . S
C450 C446 1.376 . S
C450 C449 1.392 . S
C450 H462 0.929 . S
C451 C447 1.531 . S
C451 H463 0.960 . S
C451 H464 0.962 . S
C451 H465 0.960 . S
C452 C449 1.511 . S
C452 H466 0.961 . S
C452 H467 0.961 1_545 S
C452 H468 0.961 . S
C453 C454 1.370 . S
C453 C455 1.363 . S
C453 H469 0.931 . S
C454 C453 1.370 . S
C454 C458 1.408 . S
C455 C453 1.363 . S
C455 C456 1.370 . S
C455 C459 1.524 . S
C456 C448 1.503 1_565 S
C456 C455 1.370 . S
C456 C457 1.403 . S
C457 C456 1.403 . S
C457 C458 1.404 . S
C457 C460 1.539 1_565 S
C458 C454 1.408 . S
C458 C457 1.404 . S
C458 H470 0.930 . S
C459 C455 1.524 . S
C459 H471 0.956 . S
C459 H472 0.961 . S
C459 H473 0.961 . S
C460 C457 1.539 1_545 S
C460 H474 0.958 . S
C460 H475 0.961 . S
C460 H476 0.960 . S
H461 C445 0.931 . S
H462 C450 0.929 . S
H463 C451 0.960 . S
H464 C451 0.962 . S
H465 C451 0.960 . S
H466 C452 0.961 . S
H467 C452 0.961 1_565 S
H468 C452 0.961 . S
H469 C453 0.931 . S
H470 C458 0.930 . S
H471 C459 0.956 . S
H472 C459 0.961 . S
H473 C459 0.961 . S
H474 C460 0.958 . S
H475 C460 0.961 . S
H476 C460 0.960 . S
C477 C478 1.391 . S
C477 C479 1.394 . S
C477 H493 0.931 . S
C478 C477 1.391 . S
C478 C482 1.376 . S
C479 C477 1.394 . S
C479 C480 1.369 . S
C479 C483 1.531 . S
C480 C479 1.369 . S
C480 C481 1.410 . S
C480 C488 1.503 . S
C481 C480 1.410 . S
C481 C482 1.392 . S
C481 C484 1.511 . S
C482 C478 1.376 . S
C482 C481 1.392 . S
C482 H494 0.928 1_554 S
C483 C479 1.531 . S
C483 H495 0.960 . S
C483 H496 0.962 1_554 S
C483 H497 0.960 . S
C484 C481 1.511 . S
C484 H498 0.961 1_554 S
C484 H499 0.961 1_554 S
C484 H500 0.961 . S
C485 C486 1.370 1_556 S
C485 C487 1.363 . S
C485 H501 0.931 . S
C486 C485 1.370 1_554 S
C486 C490 1.408 . S
C487 C485 1.363 . S
C487 C488 1.370 1_556 S
C487 C491 1.524 . S
C488 C480 1.503 . S
C488 C487 1.370 1_554 S
C488 C489 1.403 . S
C489 C488 1.403 . S
C489 C490 1.404 . S
C489 C492 1.539 . S
C490 C486 1.408 . S
C490 C489 1.404 . S
C490 H502 0.930 . S
C491 C487 1.524 . S
C491 H503 0.956 . S
C491 H504 0.961 . S
C491 H505 0.961 . S
C492 C489 1.539 . S
C492 H506 0.958 . S
C492 H507 0.961 . S
C492 H508 0.960 . S
H493 C477 0.931 . S
H494 C482 0.928 1_556 S
H495 C483 0.960 . S
H496 C483 0.962 1_556 S
H497 C483 0.960 . S
H498 C484 0.961 1_556 S
H499 C484 0.961 1_556 S
H500 C484 0.961 . S
H501 C485 0.931 . S
H502 C490 0.930 . S
H503 C491 0.956 . S
H504 C491 0.961 . S
H505 C491 0.961 . S
H506 C492 0.958 . S
H507 C492 0.961 . S
H508 C492 0.960 . S
C509 C510 1.391 . S
C509 C511 1.394 . S
C509 H525 0.931 . S
C510 C509 1.391 . S
C510 C514 1.376 1_554 S
C511 C509 1.394 . S
C511 C512 1.369 . S
C511 C515 1.531 . S
C512 C511 1.369 . S
C512 C513 1.410 1_554 S
C512 C520 1.503 1_565 S
C513 C512 1.410 1_556 S
C513 C514 1.392 . S
C513 C516 1.511 . S
C514 C510 1.376 1_556 S
C514 C513 1.392 . S
C514 H526 0.929 . S
C515 C511 1.531 . S
C515 H527 0.960 1_565 S
C515 H528 0.962 1_565 S
C515 H529 0.960 . S
C516 C513 1.511 . S
C516 H530 0.961 . S
C516 H531 0.961 1_565 S
C516 H532 0.961 . S
C517 C518 1.370 1_556 S
C517 C519 1.363 . S
C517 H533 0.931 . S
C518 C517 1.370 1_554 S
C518 C522 1.408 . S
C519 C517 1.363 . S
C519 C520 1.370 1_556 S
C519 C523 1.524 . S
C520 C512 1.503 1_545 S
C520 C519 1.370 1_554 S
C520 C521 1.403 . S
C521 C520 1.403 . S
C521 C522 1.404 . S
C521 C524 1.539 . S
C522 C518 1.408 . S
C522 C521 1.404 . S
C522 H534 0.930 . S
C523 C519 1.524 . S
C523 H535 0.956 . S
C523 H536 0.961 . S
C523 H537 0.961 . S
C524 C521 1.539 . S
C524 H538 0.958 . S
C524 H539 0.961 . S
C524 H540 0.960 . S
H525 C509 0.931 . S
H526 C514 0.929 . S
H527 C515 0.960 1_545 S
H528 C515 0.962 1_545 S
H529 C515 0.960 . S
H530 C516 0.961 . S
H531 C516 0.961 1_545 S
H532 C516 0.961 . S
H533 C517 0.931 . S
H534 C522 0.930 . S
H535 C523 0.956 . S
H536 C523 0.961 . S
H537 C523 0.961 . S
H538 C524 0.958 . S
H539 C524 0.961 . S
H540 C524 0.960 . S
C541 C542 1.391 . S
C541 C543 1.394 . S
C541 H557 0.931 . S
C542 C541 1.391 . S
C542 C546 1.376 . S
C543 C541 1.394 . S
C543 C544 1.369 . S
C543 C547 1.531 . S
C544 C543 1.369 . S
C544 C545 1.410 . S
C544 C552 1.503 1_655 S
C545 C544 1.410 . S
C545 C546 1.392 . S
C545 C548 1.511 . S
C546 C542 1.376 . S
C546 C545 1.392 . S
C546 H558 0.929 1_554 S
C547 C543 1.531 . S
C547 H559 0.960 1_655 S
C547 H560 0.962 . S
C547 H561 0.960 . S
C548 C545 1.511 . S
C548 H562 0.961 1_554 S
C548 H563 0.961 1_654 S
C548 H564 0.961 . S
C549 C550 1.370 1_556 S
C549 C551 1.363 . S
C549 H565 0.931 . S
C550 C549 1.370 1_554 S
C550 C554 1.408 . S
C551 C549 1.363 . S
C551 C552 1.370 1_556 S
C551 C555 1.524 . S
C552 C544 1.503 1_455 S
C552 C551 1.370 1_554 S
C552 C553 1.403 . S
C553 C552 1.403 . S
C553 C554 1.404 . S
C553 C556 1.539 . S
C554 C550 1.408 . S
C554 C553 1.404 . S
C554 H566 0.930 . S
C555 C551 1.524 . S
C555 H567 0.956 . S
C555 H568 0.961 . S
C555 H569 0.961 . S
C556 C553 1.539 . S
C556 H570 0.958 . S
C556 H571 0.961 . S
C556 H572 0.960 . S
H557 C541 0.931 . S
H558 C546 0.929 1_556 S
H559 C547 0.960 1_455 S
H560 C547 0.962 . S
H561 C547 0.960 . S
H562 C548 0.961 1_556 S
H563 C548 0.961 1_456 S
H564 C548 0.961 . S
H565 C549 0.931 . S
H566 C554 0.930 . S
H567 C555 0.956 . S
H568 C555 0.961 . S
H569 C555 0.961 . S
H570 C556 0.958 . S
H571 C556 0.961 . S
H572 C556 0.960 . S
C573 C574 1.391 . S
C573 C575 1.394 . S
C573 H589 0.931 . S
C574 C573 1.391 . S
C574 C578 1.376 . S
C575 C573 1.394 . S
C575 C576 1.369 . S
C575 C579 1.531 . S
C576 C575 1.369 . S
C576 C577 1.410 . S
C576 C584 1.503 . S
C577 C576 1.410 . S
C577 C578 1.392 . S
C577 C580 1.511 . S
C578 C574 1.376 . S
C578 C577 1.392 . S
C578 H590 0.929 . S
C579 C575 1.531 . S
C579 H591 0.960 . S
C579 H592 0.962 . S
C579 H593 0.960 . S
C580 C577 1.511 . S
C580 H594 0.961 . S
C580 H595 0.961 . S
C580 H596 0.961 . S
C581 C582 1.370 . S
C581 C583 1.363 . S
C581 H597 0.931 . S
C582 C581 1.370 . S
C582 C586 1.408 . S
C583 C581 1.363 . S
C583 C584 1.370 . S
C583 C587 1.524 . S
C584 C576 1.503 . S
C584 C583 1.370 . S
C584 C585 1.403 . S
C585 C584 1.403 . S
C585 C586 1.404 . S
C585 C588 1.539 . S
C586 C582 1.408 . S
C586 C585 1.404 . S
C586 H598 0.930 . S
C587 C583 1.524 . S
C587 H599 0.956 . S
C587 H600 0.961 . S
C587 H601 0.961 . S
C588 C585 1.539 . S
C588 H602 0.958 . S
C588 H603 0.961 . S
C588 H604 0.960 . S
H589 C573 0.931 . S
H590 C578 0.929 . S
H591 C579 0.960 . S
H592 C579 0.962 . S
H593 C579 0.960 . S
H594 C580 0.961 . S
H595 C580 0.961 . S
H596 C580 0.961 . S
H597 C581 0.931 . S
H598 C586 0.930 . S
H599 C587 0.956 . S
H600 C587 0.961 . S
H601 C587 0.961 . S
H602 C588 0.958 . S
H603 C588 0.961 . S
H604 C588 0.960 . S
C605 C606 1.391 . S
C605 C607 1.394 . S
C605 H621 0.931 . S
C606 C605 1.391 . S
C606 C610 1.376 . S
C607 C605 1.394 . S
C607 C608 1.369 . S
C607 C611 1.531 . S
C608 C607 1.369 . S
C608 C609 1.410 . S
C608 C616 1.503 . S
C609 C608 1.410 . S
C609 C610 1.392 . S
C609 C612 1.511 . S
C610 C606 1.376 . S
C610 C609 1.392 . S
C610 H622 0.929 . S
C611 C607 1.531 . S
C611 H623 0.960 . S
C611 H624 0.962 . S
C611 H625 0.960 . S
C612 C609 1.511 . S
C612 H626 0.961 . S
C612 H627 0.961 . S
C612 H628 0.961 . S
C613 C614 1.370 . S
C613 C615 1.363 . S
C613 H629 0.931 . S
C614 C613 1.370 . S
C614 C618 1.408 . S
C615 C613 1.363 . S
C615 C616 1.370 . S
C615 C619 1.524 . S
C616 C608 1.503 . S
C616 C615 1.370 . S
C616 C617 1.403 . S
C617 C616 1.403 . S
C617 C618 1.404 . S
C617 C620 1.539 . S
C618 C614 1.408 . S
C618 C617 1.404 . S
C618 H630 0.930 . S
C619 C615 1.524 . S
C619 H631 0.956 . S
C619 H632 0.961 . S
C619 H633 0.961 . S
C620 C617 1.539 . S
C620 H634 0.958 . S
C620 H635 0.961 . S
C620 H636 0.960 . S
H621 C605 0.931 . S
H622 C610 0.929 . S
H623 C611 0.960 . S
H624 C611 0.962 . S
H625 C611 0.960 . S
H626 C612 0.961 . S
H627 C612 0.961 . S
H628 C612 0.961 . S
H629 C613 0.931 . S
H630 C618 0.930 . S
H631 C619 0.956 . S
H632 C619 0.961 . S
H633 C619 0.961 . S
H634 C620 0.958 . S
H635 C620 0.961 . S
H636 C620 0.960 . S
C637 C638 1.391 . S
C637 C639 1.394 . S
C637 H653 0.931 . S
C638 C637 1.391 . S
C638 C642 1.376 . S
C639 C637 1.394 . S
C639 C640 1.369 . S
C639 C643 1.531 . S
C640 C639 1.369 . S
C640 C641 1.410 . S
C640 C648 1.503 . S
C641 C640 1.410 . S
C641 C642 1.392 . S
C641 C644 1.511 . S
C642 C638 1.376 . S
C642 C641 1.392 . S
C642 H654 0.929 . S
C643 C639 1.531 . S
C643 H655 0.960 . S
C643 H656 0.962 . S
C643 H657 0.960 . S
C644 C641 1.511 . S
C644 H658 0.961 . S
C644 H659 0.961 . S
C644 H660 0.961 . S
C645 C646 1.370 . S
C645 C647 1.363 . S
C645 H661 0.931 . S
C646 C645 1.370 . S
C646 C650 1.408 . S
C647 C645 1.363 . S
C647 C648 1.370 . S
C647 C651 1.524 . S
C648 C640 1.503 . S
C648 C647 1.370 . S
C648 C649 1.403 . S
C649 C648 1.403 . S
C649 C650 1.404 . S
C649 C652 1.539 . S
C650 C646 1.408 . S
C650 C649 1.404 . S
C650 H662 0.930 . S
C651 C647 1.524 . S
C651 H663 0.956 . S
C651 H664 0.961 . S
C651 H665 0.961 . S
C652 C649 1.539 . S
C652 H666 0.958 . S
C652 H667 0.961 . S
C652 H668 0.960 . S
H653 C637 0.931 . S
H654 C642 0.929 . S
H655 C643 0.960 . S
H656 C643 0.962 . S
H657 C643 0.960 . S
H658 C644 0.961 . S
H659 C644 0.961 . S
H660 C644 0.961 . S
H661 C645 0.931 . S
H662 C650 0.930 . S
H663 C651 0.956 . S
H664 C651 0.961 . S
H665 C651 0.961 . S
H666 C652 0.958 . S
H667 C652 0.961 . S
H668 C652 0.960 . S
C669 C670 1.391 . S
C669 C671 1.394 . S
C669 H685 0.931 . S
C670 C669 1.391 . S
C670 C674 1.376 . S
C671 C669 1.394 . S
C671 C672 1.369 . S
C671 C675 1.531 . S
C672 C671 1.369 . S
C672 C673 1.410 . S
C672 C680 1.503 . S
C673 C672 1.410 . S
C673 C674 1.392 . S
C673 C676 1.511 . S
C674 C670 1.376 . S
C674 C673 1.392 . S
C674 H686 0.929 . S
C675 C671 1.531 . S
C675 H687 0.960 . S
C675 H688 0.962 . S
C675 H689 0.960 . S
C676 C673 1.511 . S
C676 H690 0.961 . S
C676 H691 0.961 . S
C676 H692 0.961 . S
C677 C678 1.370 . S
C677 C679 1.363 . S
C677 H693 0.931 . S
C678 C677 1.370 . S
C678 C682 1.408 . S
C679 C677 1.363 . S
C679 C680 1.370 . S
C679 C683 1.524 . S
C680 C672 1.503 . S
C680 C679 1.370 . S
C680 C681 1.403 . S
C681 C680 1.403 . S
C681 C682 1.404 . S
C681 C684 1.539 . S
C682 C678 1.408 . S
C682 C681 1.404 . S
C682 H694 0.930 . S
C683 C679 1.524 . S
C683 H695 0.956 . S
C683 H696 0.961 . S
C683 H697 0.961 . S
C684 C681 1.539 . S
C684 H698 0.958 . S
C684 H699 0.961 . S
C684 H700 0.960 . S
H685 C669 0.931 . S
H686 C674 0.929 . S
H687 C675 0.960 . S
H688 C675 0.962 . S
H689 C675 0.960 . S
H690 C676 0.961 . S
H691 C676 0.961 . S
H692 C676 0.961 . S
H693 C677 0.931 . S
H694 C682 0.930 . S
H695 C683 0.956 . S
H696 C683 0.961 . S
H697 C683 0.961 . S
H698 C684 0.958 . S
H699 C684 0.961 . S
H700 C684 0.960 . S
C701 C702 1.391 . S
C701 C703 1.394 . S
C701 H717 0.931 . S
C702 C701 1.391 . S
C702 C706 1.376 . S
C703 C701 1.394 . S
C703 C704 1.369 . S
C703 C707 1.531 . S
C704 C703 1.369 . S
C704 C705 1.410 . S
C704 C712 1.503 . S
C705 C704 1.410 . S
C705 C706 1.392 . S
C705 C708 1.511 . S
C706 C702 1.376 . S
C706 C705 1.392 . S
C706 H718 0.929 . S
C707 C703 1.531 . S
C707 H719 0.960 . S
C707 H720 0.962 . S
C707 H721 0.960 . S
C708 C705 1.511 . S
C708 H722 0.961 . S
C708 H723 0.961 . S
C708 H724 0.961 . S
C709 C710 1.370 . S
C709 C711 1.363 . S
C709 H725 0.931 . S
C710 C709 1.370 . S
C710 C714 1.408 . S
C711 C709 1.363 . S
C711 C712 1.370 . S
C711 C715 1.524 . S
C712 C704 1.503 . S
C712 C711 1.370 . S
C712 C713 1.403 . S
C713 C712 1.403 . S
C713 C714 1.404 . S
C713 C716 1.539 . S
C714 C710 1.408 . S
C714 C713 1.404 . S
C714 H726 0.930 . S
C715 C711 1.524 . S
C715 H727 0.956 . S
C715 H728 0.961 . S
C715 H729 0.961 . S
C716 C713 1.539 . S
C716 H730 0.958 . S
C716 H731 0.961 . S
C716 H732 0.960 . S
H717 C701 0.931 . S
H718 C706 0.929 . S
H719 C707 0.960 . S
H720 C707 0.962 . S
H721 C707 0.960 . S
H722 C708 0.961 . S
H723 C708 0.961 . S
H724 C708 0.961 . S
H725 C709 0.931 . S
H726 C714 0.930 . S
H727 C715 0.956 . S
H728 C715 0.961 . S
H729 C715 0.961 . S
H730 C716 0.958 . S
H731 C716 0.961 . S
H732 C716 0.960 . S
C733 C734 1.391 . S
C733 C735 1.394 . S
C733 H749 0.931 . S
C734 C733 1.391 . S
C734 C738 1.376 . S
C735 C733 1.394 . S
C735 C736 1.369 . S
C735 C739 1.531 . S
C736 C735 1.369 . S
C736 C737 1.410 . S
C736 C744 1.503 . S
C737 C736 1.410 . S
C737 C738 1.392 . S
C737 C740 1.511 . S
C738 C734 1.376 . S
C738 C737 1.392 . S
C738 H750 0.929 . S
C739 C735 1.531 . S
C739 H751 0.960 . S
C739 H752 0.962 . S
C739 H753 0.960 . S
C740 C737 1.511 . S
C740 H754 0.961 . S
C740 H755 0.961 . S
C740 H756 0.961 . S
C741 C742 1.370 . S
C741 C743 1.363 . S
C741 H757 0.931 . S
C742 C741 1.370 . S
C742 C746 1.408 . S
C743 C741 1.363 . S
C743 C744 1.370 . S
C743 C747 1.524 . S
C744 C736 1.503 . S
C744 C743 1.370 . S
C744 C745 1.403 . S
C745 C744 1.403 . S
C745 C746 1.404 . S
C745 C748 1.539 . S
C746 C742 1.408 . S
C746 C745 1.404 . S
C746 H758 0.930 . S
C747 C743 1.524 . S
C747 H759 0.956 . S
C747 H760 0.961 . S
C747 H761 0.961 . S
C748 C745 1.539 . S
C748 H762 0.958 . S
C748 H763 0.961 . S
C748 H764 0.960 . S
H749 C733 0.931 . S
H750 C738 0.929 . S
H751 C739 0.960 . S
H752 C739 0.962 . S
H753 C739 0.960 . S
H754 C740 0.961 . S
H755 C740 0.961 . S
H756 C740 0.961 . S
H757 C741 0.931 . S
H758 C746 0.930 . S
H759 C747 0.956 . S
H760 C747 0.961 . S
H761 C747 0.961 . S
H762 C748 0.958 . S
H763 C748 0.961 . S
H764 C748 0.960 . S
C765 C766 1.391 1_455 S
C765 C767 1.394 . S
C765 H781 0.931 . S
C766 C765 1.391 1_655 S
C766 C770 1.376 . S
C767 C765 1.394 . S
C767 C768 1.369 1_455 S
C767 C771 1.531 . S
C768 C767 1.369 1_655 S
C768 C769 1.410 . S
C768 C776 1.503 1_655 S
C769 C768 1.410 . S
C769 C770 1.392 . S
C769 C772 1.511 . S
C770 C766 1.376 . S
C770 C769 1.392 . S
C770 H782 0.929 . S
C771 C767 1.531 . S
C771 H783 0.960 . S
C771 H784 0.962 . S
C771 H785 0.960 . S
C772 C769 1.511 . S
C772 H786 0.961 . S
C772 H787 0.961 . S
C772 H788 0.961 . S
C773 C774 1.370 . S
C773 C775 1.363 . S
C773 H789 0.931 . S
C774 C773 1.370 . S
C774 C778 1.408 1_455 S
C775 C773 1.363 . S
C775 C776 1.370 . S
C775 C779 1.524 . S
C776 C768 1.503 1_455 S
C776 C775 1.370 . S
C776 C777 1.403 1_455 S
C777 C776 1.403 1_655 S
C777 C778 1.404 . S
C777 C780 1.539 . S
C778 C774 1.408 1_655 S
C778 C777 1.404 . S
C778 H790 0.930 . S
C779 C775 1.524 . S
C779 H791 0.956 . S
C779 H792 0.961 . S
C779 H793 0.961 . S
C780 C777 1.539 . S
C780 H794 0.958 . S
C780 H795 0.961 . S
C780 H796 0.960 . S
H781 C765 0.931 . S
H782 C770 0.929 . S
H783 C771 0.960 . S
H784 C771 0.962 . S
H785 C771 0.960 . S
H786 C772 0.961 . S
H787 C772 0.961 . S
H788 C772 0.961 . S
H789 C773 0.931 . S
H790 C778 0.930 . S
H791 C779 0.956 . S
H792 C779 0.961 . S
H793 C779 0.961 . S
H794 C780 0.958 . S
H795 C780 0.961 . S
H796 C780 0.960 . S
C797 C798 1.391 . S
C797 C799 1.394 . S
C797 H813 0.931 . S
C798 C797 1.391 . S
C798 C802 1.376 . S
C799 C797 1.394 . S
C799 C800 1.369 . S
C799 C803 1.531 . S
C800 C799 1.369 . S
C800 C801 1.410 . S
C800 C808 1.503 . S
C801 C800 1.410 . S
C801 C802 1.392 . S
C801 C804 1.511 . S
C802 C798 1.376 . S
C802 C801 1.392 . S
C802 H814 0.929 . S
C803 C799 1.531 . S
C803 H815 0.960 . S
C803 H816 0.962 . S
C803 H817 0.960 . S
C804 C801 1.511 . S
C804 H818 0.961 . S
C804 H819 0.961 . S
C804 H820 0.961 . S
C805 C806 1.370 . S
C805 C807 1.363 . S
C805 H821 0.931 . S
C806 C805 1.370 . S
C806 C810 1.408 . S
C807 C805 1.363 . S
C807 C808 1.370 . S
C807 C811 1.524 . S
C808 C800 1.503 . S
C808 C807 1.370 . S
C808 C809 1.403 . S
C809 C808 1.403 . S
C809 C810 1.404 . S
C809 C812 1.539 . S
C810 C806 1.408 . S
C810 C809 1.404 . S
C810 H822 0.930 . S
C811 C807 1.524 . S
C811 H823 0.956 . S
C811 H824 0.961 . S
C811 H825 0.961 . S
C812 C809 1.539 . S
C812 H826 0.958 . S
C812 H827 0.961 . S
C812 H828 0.960 . S
H813 C797 0.931 . S
H814 C802 0.929 . S
H815 C803 0.960 . S
H816 C803 0.962 . S
H817 C803 0.960 . S
H818 C804 0.961 . S
H819 C804 0.961 . S
H820 C804 0.961 . S
H821 C805 0.931 . S
H822 C810 0.930 . S
H823 C811 0.956 . S
H824 C811 0.961 . S
H825 C811 0.961 . S
H826 C812 0.958 . S
H827 C812 0.961 . S
H828 C812 0.960 . S
C829 C830 1.391 . S
C829 C831 1.394 . S
C829 H845 0.931 . S
C830 C829 1.391 . S
C830 C834 1.376 1_545 S
C831 C829 1.394 . S
C831 C832 1.369 . S
C831 C835 1.531 . S
C832 C831 1.369 . S
C832 C833 1.410 1_545 S
C832 C840 1.503 . S
C833 C832 1.410 1_565 S
C833 C834 1.392 . S
C833 C836 1.511 . S
C834 C830 1.376 1_565 S
C834 C833 1.392 . S
C834 H846 0.929 . S
C835 C831 1.531 . S
C835 H847 0.960 . S
C835 H848 0.962 . S
C835 H849 0.960 . S
C836 C833 1.511 . S
C836 H850 0.961 . S
C836 H851 0.961 . S
C836 H852 0.961 . S
C837 C838 1.370 1_545 S
C837 C839 1.363 . S
C837 H853 0.931 . S
C838 C837 1.370 1_565 S
C838 C842 1.408 . S
C839 C837 1.363 . S
C839 C840 1.370 . S
C839 C843 1.524 . S
C840 C832 1.503 . S
C840 C839 1.370 . S
C840 C841 1.403 1_545 S
C841 C840 1.403 1_565 S
C841 C842 1.404 . S
C841 C844 1.539 . S
C842 C838 1.408 . S
C842 C841 1.404 . S
C842 H854 0.930 . S
C843 C839 1.524 . S
C843 H855 0.956 . S
C843 H856 0.961 . S
C843 H857 0.961 . S
C844 C841 1.539 . S
C844 H858 0.958 . S
C844 H859 0.961 . S
C844 H860 0.960 . S
H845 C829 0.931 . S
H846 C834 0.929 . S
H847 C835 0.960 . S
H848 C835 0.962 . S
H849 C835 0.960 . S
H850 C836 0.961 . S
H851 C836 0.961 . S
H852 C836 0.961 . S
H853 C837 0.931 . S
H854 C842 0.930 . S
H855 C843 0.956 . S
H856 C843 0.961 . S
H857 C843 0.961 . S
H858 C844 0.958 . S
H859 C844 0.961 . S
H860 C844 0.960 . S
C861 C862 1.391 . S
C861 C863 1.394 . S
C861 H877 0.931 . S
C862 C861 1.391 . S
C862 C866 1.376 . S
C863 C861 1.394 . S
C863 C864 1.369 . S
C863 C867 1.531 . S
C864 C863 1.369 . S
C864 C865 1.410 . S
C864 C872 1.503 . S
C865 C864 1.410 . S
C865 C866 1.392 . S
C865 C868 1.511 . S
C866 C862 1.376 . S
C866 C865 1.392 . S
C866 H878 0.929 . S
C867 C863 1.531 . S
C867 H879 0.960 . S
C867 H880 0.962 . S
C867 H881 0.960 . S
C868 C865 1.511 . S
C868 H882 0.961 . S
C868 H883 0.961 . S
C868 H884 0.961 . S
C869 C870 1.370 . S
C869 C871 1.363 1_554 S
C869 H885 0.931 . S
C870 C869 1.370 . S
C870 C874 1.408 . S
C871 C869 1.363 1_556 S
C871 C872 1.370 . S
C871 C875 1.524 . S
C872 C864 1.503 . S
C872 C871 1.370 . S
C872 C873 1.403 . S
C873 C872 1.403 . S
C873 C874 1.404 1_556 S
C873 C876 1.539 . S
C874 C870 1.408 . S
C874 C873 1.404 1_554 S
C874 H886 0.930 . S
C875 C871 1.524 . S
C875 H887 0.956 . S
C875 H888 0.961 . S
C875 H889 0.961 . S
C876 C873 1.539 . S
C876 H890 0.958 . S
C876 H891 0.961 . S
C876 H892 0.960 . S
H877 C861 0.931 . S
H878 C866 0.929 . S
H879 C867 0.960 . S
H880 C867 0.962 . S
H881 C867 0.960 . S
H882 C868 0.961 . S
H883 C868 0.961 . S
H884 C868 0.961 . S
H885 C869 0.931 . S
H886 C874 0.930 . S
H887 C875 0.956 . S
H888 C875 0.961 . S
H889 C875 0.961 . S
H890 C876 0.958 . S
H891 C876 0.961 . S
H892 C876 0.960 . S
C893 C894 1.391 . S
C893 C895 1.394 . S
C893 H909 0.931 . S
C894 C893 1.391 . S
C894 C898 1.376 . S
C895 C893 1.394 . S
C895 C896 1.369 . S
C895 C899 1.531 . S
C896 C895 1.369 . S
C896 C897 1.410 . S
C896 C904 1.503 . S
C897 C896 1.410 . S
C897 C898 1.392 . S
C897 C900 1.511 . S
C898 C894 1.376 . S
C898 C897 1.392 . S
C898 H910 0.929 . S
C899 C895 1.531 . S
C899 H911 0.960 . S
C899 H912 0.962 . S
C899 H913 0.960 . S
C900 C897 1.511 . S
C900 H914 0.961 . S
C900 H915 0.961 . S
C900 H916 0.961 . S
C901 C902 1.370 . S
C901 C903 1.363 1_554 S
C901 H917 0.931 . S
C902 C901 1.370 . S
C902 C906 1.408 . S
C903 C901 1.363 1_556 S
C903 C904 1.370 . S
C903 C907 1.524 . S
C904 C896 1.503 . S
C904 C903 1.370 . S
C904 C905 1.403 . S
C905 C904 1.403 . S
C905 C906 1.404 1_556 S
C905 C908 1.539 . S
C906 C902 1.408 . S
C906 C905 1.404 1_554 S
C906 H918 0.930 . S
C907 C903 1.524 . S
C907 H919 0.956 . S
C907 H920 0.961 . S
C907 H921 0.961 . S
C908 C905 1.539 . S
C908 H922 0.958 . S
C908 H923 0.961 . S
C908 H924 0.960 . S
H909 C893 0.931 . S
H910 C898 0.929 . S
H911 C899 0.960 . S
H912 C899 0.962 . S
H913 C899 0.960 . S
H914 C900 0.961 . S
H915 C900 0.961 . S
H916 C900 0.961 . S
H917 C901 0.931 . S
H918 C906 0.930 . S
H919 C907 0.956 . S
H920 C907 0.961 . S
H921 C907 0.961 . S
H922 C908 0.958 . S
H923 C908 0.961 . S
H924 C908 0.960 . S
C925 C926 1.391 . S
C925 C927 1.394 . S
C925 H941 0.931 . S
C926 C925 1.391 . S
C926 C930 1.376 . S
C927 C925 1.394 . S
C927 C928 1.369 . S
C927 C931 1.531 . S
C928 C927 1.369 . S
C928 C929 1.410 . S
C928 C936 1.503 . S
C929 C928 1.410 . S
C929 C930 1.392 . S
C929 C932 1.511 . S
C930 C926 1.376 . S
C930 C929 1.392 . S
C930 H942 0.929 . S
C931 C927 1.531 . S
C931 H943 0.960 . S
C931 H944 0.962 . S
C931 H945 0.960 . S
C932 C929 1.511 . S
C932 H946 0.961 . S
C932 H947 0.961 . S
C932 H948 0.961 . S
C933 C934 1.370 . S
C933 C935 1.363 1_554 S
C933 H949 0.931 . S
C934 C933 1.370 . S
C934 C938 1.408 . S
C935 C933 1.363 1_556 S
C935 C936 1.370 . S
C935 C939 1.524 . S
C936 C928 1.503 . S
C936 C935 1.370 . S
C936 C937 1.403 . S
C937 C936 1.403 . S
C937 C938 1.404 1_556 S
C937 C940 1.539 . S
C938 C934 1.408 . S
C938 C937 1.404 1_554 S
C938 H950 0.930 . S
C939 C935 1.524 . S
C939 H951 0.956 . S
C939 H952 0.961 . S
C939 H953 0.961 . S
C940 C937 1.539 . S
C940 H954 0.958 . S
C940 H955 0.961 . S
C940 H956 0.960 . S
H941 C925 0.931 . S
H942 C930 0.929 . S
H943 C931 0.960 . S
H944 C931 0.962 . S
H945 C931 0.960 . S
H946 C932 0.961 . S
H947 C932 0.961 . S
H948 C932 0.961 . S
H949 C933 0.931 . S
H950 C938 0.930 . S
H951 C939 0.956 . S
H952 C939 0.961 . S
H953 C939 0.961 . S
H954 C940 0.958 . S
H955 C940 0.961 . S
H956 C940 0.960 . S
C957 C958 1.391 . S
C957 C959 1.394 . S
C957 H973 0.931 . S
C958 C957 1.391 . S
C958 C962 1.376 . S
C959 C957 1.394 . S
C959 C960 1.369 . S
C959 C963 1.531 . S
C960 C959 1.369 . S
C960 C961 1.410 . S
C960 C968 1.503 . S
C961 C960 1.410 . S
C961 C962 1.392 . S
C961 C964 1.511 . S
C962 C958 1.376 . S
C962 C961 1.392 . S
C962 H974 0.929 . S
C963 C959 1.531 . S
C963 H975 0.960 . S
C963 H976 0.962 . S
C963 H977 0.960 . S
C964 C961 1.511 . S
C964 H978 0.961 . S
C964 H979 0.961 . S
C964 H980 0.961 . S
C965 C966 1.370 . S
C965 C967 1.363 1_556 S
C965 H981 0.931 . S
C966 C965 1.370 . S
C966 C970 1.408 . S
C967 C965 1.363 1_554 S
C967 C968 1.370 . S
C967 C971 1.524 . S
C968 C960 1.503 . S
C968 C967 1.370 . S
C968 C969 1.403 . S
C969 C968 1.403 . S
C969 C970 1.404 1_554 S
C969 C972 1.539 . S
C970 C966 1.408 . S
C970 C969 1.404 1_556 S
C970 H982 0.930 . S
C971 C967 1.524 . S
C971 H983 0.956 . S
C971 H984 0.961 . S
C971 H985 0.961 . S
C972 C969 1.539 . S
C972 H986 0.958 . S
C972 H987 0.961 . S
C972 H988 0.960 . S
H973 C957 0.931 . S
H974 C962 0.929 . S
H975 C963 0.960 . S
H976 C963 0.962 . S
H977 C963 0.960 . S
H978 C964 0.961 . S
H979 C964 0.961 . S
H980 C964 0.961 . S
H981 C965 0.931 . S
H982 C970 0.930 . S
H983 C971 0.956 . S
H984 C971 0.961 . S
H985 C971 0.961 . S
H986 C972 0.958 . S
H987 C972 0.961 . S
H988 C972 0.960 . S
C989 C990 1.391 1_554 S
C989 C991 1.394 . S
C989 H1005 0.931 1_554 S
C990 C989 1.391 1_556 S
C990 C994 1.376 . S
C991 C989 1.394 . S
C991 C992 1.369 . S
C991 C995 1.531 . S
C992 C991 1.369 . S
C992 C993 1.410 . S
C992 C1000 1.503 . S
C993 C992 1.410 . S
C993 C994 1.392 1_554 S
C993 C996 1.511 . S
C994 C990 1.376 . S
C994 C993 1.392 1_556 S
C994 H1006 0.929 . S
C995 C991 1.531 . S
C995 H1007 0.960 . S
C995 H1008 0.962 . S
C995 H1009 0.960 . S
C996 C993 1.511 . S
C996 H1010 0.961 . S
C996 H1011 0.961 . S
C996 H1012 0.961 . S
C997 C998 1.370 . S
C997 C999 1.363 . S
C997 H1013 0.931 . S
C998 C997 1.370 . S
C998 C1002 1.408 . S
C999 C997 1.363 . S
C999 C1000 1.370 . S
C999 C1003 1.524 . S
C1000 C992 1.503 . S
C1000 C999 1.370 . S
C1000 C1001 1.403 . S
C1001 C1000 1.403 . S
C1001 C1002 1.404 . S
C1001 C1004 1.539 . S
C1002 C998 1.408 . S
C1002 C1001 1.404 . S
C1002 H1014 0.930 . S
C1003 C999 1.524 . S
C1003 H1015 0.956 . S
C1003 H1016 0.961 . S
C1003 H1017 0.961 . S
C1004 C1001 1.539 . S
C1004 H1018 0.958 . S
C1004 H1019 0.961 . S
C1004 H1020 0.960 . S
H1005 C989 0.931 1_556 S
H1006 C994 0.929 . S
H1007 C995 0.960 . S
H1008 C995 0.962 . S
H1009 C995 0.960 . S
H1010 C996 0.961 . S
H1011 C996 0.961 . S
H1012 C996 0.961 . S
H1013 C997 0.931 . S
H1014 C1002 0.930 . S
H1015 C1003 0.956 . S
H1016 C1003 0.961 . S
H1017 C1003 0.961 . S
H1018 C1004 0.958 . S
H1019 C1004 0.961 . S
H1020 C1004 0.960 . S
C1021 C1022 1.391 . S
C1021 C1023 1.394 . S
C1021 H1037 0.931 . S
C1022 C1021 1.391 . S
C1022 C1026 1.376 . S
C1023 C1021 1.394 . S
C1023 C1024 1.369 . S
C1023 C1027 1.531 . S
C1024 C1023 1.369 . S
C1024 C1025 1.410 . S
C1024 C1032 1.503 . S
C1025 C1024 1.410 . S
C1025 C1026 1.392 . S
C1025 C1028 1.511 . S
C1026 C1022 1.376 . S
C1026 C1025 1.392 . S
C1026 H1038 0.929 . S
C1027 C1023 1.531 . S
C1027 H1039 0.960 . S
C1027 H1040 0.962 . S
C1027 H1041 0.960 . S
C1028 C1025 1.511 . S
C1028 H1042 0.961 . S
C1028 H1043 0.961 . S
C1028 H1044 0.961 . S
C1029 C1030 1.370 . S
C1029 C1031 1.363 1_556 S
C1029 H1045 0.931 . S
C1030 C1029 1.370 . S
C1030 C1034 1.408 . S
C1031 C1029 1.363 1_554 S
C1031 C1032 1.370 . S
C1031 C1035 1.524 . S
C1032 C1024 1.503 . S
C1032 C1031 1.370 . S
C1032 C1033 1.403 . S
C1033 C1032 1.403 . S
C1033 C1034 1.404 1_554 S
C1033 C1036 1.539 . S
C1034 C1030 1.408 . S
C1034 C1033 1.404 1_556 S
C1034 H1046 0.930 . S
C1035 C1031 1.524 . S
C1035 H1047 0.956 . S
C1035 H1048 0.961 . S
C1035 H1049 0.961 . S
C1036 C1033 1.539 . S
C1036 H1050 0.958 . S
C1036 H1051 0.961 . S
C1036 H1052 0.960 . S
H1037 C1021 0.931 . S
H1038 C1026 0.929 . S
H1039 C1027 0.960 . S
H1040 C1027 0.962 . S
H1041 C1027 0.960 . S
H1042 C1028 0.961 . S
H1043 C1028 0.961 . S
H1044 C1028 0.961 . S
H1045 C1029 0.931 . S
H1046 C1034 0.930 . S
H1047 C1035 0.956 . S
H1048 C1035 0.961 . S
H1049 C1035 0.961 . S
H1050 C1036 0.958 . S
H1051 C1036 0.961 . S
H1052 C1036 0.960 . S
C190 C19 0.926 . S
C198 C167 0.962 . S
C222 C28 0.960 . S
C230 C172 0.968 . S
C254 C62 0.948 . S
C262 C133 0.992 . S
C286 C103 0.998 . S
C294 C49 0.945 . S
C318 C124 0.991 . S
C326 C4 0.956 . S
C350 C41 0.909 . S
C358 C83 0.968 . S
C382 C154 1.022 . S
C390 C109 0.970 . S
C414 C187 1.000 . S
C422 C70 0.950 . S
C446 C88 1.029 . S
C454 C146 0.981 . S
C478 C58 1.161 1_554 S
C486 C7 1.128 . S
C510 C37 1.187 . S
C518 C3 1.175 1_554 S
C542 C25 1.121 1_554 S
C550 C46 1.099 . S
C574 C67 1.112 . S
C582 C108 1.155 . S
C606 C79 1.136 . S
C614 C91 1.114 . S
C638 C87 1.148 . S
C646 C112 1.168 . S
C670 C171 1.187 . S
C678 C130 1.151 . S
C702 C163 1.189 . S
C710 C142 1.190 . S
C734 C175 1.150 . S
C742 C151 1.147 . S
C766 C20 1.306 . S
C774 C16 1.360 . S
C798 C24 1.366 . S
C806 C40 1.350 . S
C830 C61 1.377 . S
C838 C45 1.337 . S
C862 C66 1.329 . S
C870 C82 1.339 . S
C894 C100 1.308 . S
C902 C104 1.360 . S
C926 C121 1.351 . S
C934 C125 1.356 . S
C958 C145 1.378 . S
C966 C129 1.348 . S
C990 C166 1.327 . S
C998 C150 1.362 . S
C1022 C188 1.367 . S
C1030 C184 1.329 . S
