# Generated by pormake.
# Topology uou, (4)-cn, num edge types: 1
# Building blocks:
#     Node 0, Type 0, BuildingBlock: TATPOV_clean_sbu_0, # of connection points: 4
#     Node 1, Type 0, BuildingBlock: TATPOV_clean_sbu_0, # of connection points: 4
#     Node 2, Type 0, BuildingBlock: TATPOV_clean_sbu_0, # of connection points: 4
#     Node 3, Type 0, BuildingBlock: TATPOV_clean_sbu_0, # of connection points: 4
#     Node 4, Type 0, BuildingBlock: TATPOV_clean_sbu_0, # of connection points: 4
#     Node 5, Type 0, BuildingBlock: TATPOV_clean_sbu_0, # of connection points: 4
#     Node 6, Type 0, BuildingBlock: TATPOV_clean_sbu_0, # of connection points: 4
#     Node 7, Type 0, BuildingBlock: TATPOV_clean_sbu_0, # of connection points: 4
#     Node 8, Type 0, BuildingBlock: TATPOV_clean_sbu_0, # of connection points: 4
#     Node 9, Type 0, BuildingBlock: TATPOV_clean_sbu_0, # of connection points: 4
#     Node 10, Type 0, BuildingBlock: TATPOV_clean_sbu_0, # of connection points: 4
#     Node 11, Type 0, BuildingBlock: TATPOV_clean_sbu_0, # of connection points: 4
#     Node 12, Type 0, BuildingBlock: TATPOV_clean_sbu_0, # of connection points: 4
#     Node 13, Type 0, BuildingBlock: TATPOV_clean_sbu_0, # of connection points: 4
#     Node 14, Type 0, BuildingBlock: TATPOV_clean_sbu_0, # of connection points: 4
#     Node 15, Type 0, BuildingBlock: TATPOV_clean_sbu_0, # of connection points: 4
#     Edge 16, Type (0, 0), BuildingBlock: OJICUG_clean_linker_0, # of connection points: 2
#     Edge 17, Type (0, 0), BuildingBlock: OJICUG_clean_linker_0, # of connection points: 2
#     Edge 18, Type (0, 0), BuildingBlock: OJICUG_clean_linker_0, # of connection points: 2
#     Edge 19, Type (0, 0), BuildingBlock: OJICUG_clean_linker_0, # of connection points: 2
#     Edge 20, Type (0, 0), BuildingBlock: OJICUG_clean_linker_0, # of connection points: 2
#     Edge 21, Type (0, 0), BuildingBlock: OJICUG_clean_linker_0, # of connection points: 2
#     Edge 22, Type (0, 0), BuildingBlock: OJICUG_clean_linker_0, # of connection points: 2
#     Edge 23, Type (0, 0), BuildingBlock: OJICUG_clean_linker_0, # of connection points: 2
#     Edge 24, Type (0, 0), BuildingBlock: OJICUG_clean_linker_0, # of connection points: 2
#     Edge 25, Type (0, 0), BuildingBlock: OJICUG_clean_linker_0, # of connection points: 2
#     Edge 26, Type (0, 0), BuildingBlock: OJICUG_clean_linker_0, # of connection points: 2
#     Edge 27, Type (0, 0), BuildingBlock: OJICUG_clean_linker_0, # of connection points: 2
#     Edge 28, Type (0, 0), BuildingBlock: OJICUG_clean_linker_0, # of connection points: 2
#     Edge 29, Type (0, 0), BuildingBlock: OJICUG_clean_linker_0, # of connection points: 2
#     Edge 30, Type (0, 0), BuildingBlock: OJICUG_clean_linker_0, # of connection points: 2
#     Edge 31, Type (0, 0), BuildingBlock: OJICUG_clean_linker_0, # of connection points: 2
#     Edge 32, Type (0, 0), BuildingBlock: OJICUG_clean_linker_0, # of connection points: 2
#     Edge 33, Type (0, 0), BuildingBlock: OJICUG_clean_linker_0, # of connection points: 2
#     Edge 34, Type (0, 0), BuildingBlock: OJICUG_clean_linker_0, # of connection points: 2
#     Edge 35, Type (0, 0), BuildingBlock: OJICUG_clean_linker_0, # of connection points: 2
#     Edge 36, Type (0, 0), BuildingBlock: OJICUG_clean_linker_0, # of connection points: 2
#     Edge 37, Type (0, 0), BuildingBlock: OJICUG_clean_linker_0, # of connection points: 2
#     Edge 38, Type (0, 0), BuildingBlock: OJICUG_clean_linker_0, # of connection points: 2
#     Edge 39, Type (0, 0), BuildingBlock: OJICUG_clean_linker_0, # of connection points: 2
#     Edge 40, Type (0, 0), BuildingBlock: OJICUG_clean_linker_0, # of connection points: 2
#     Edge 41, Type (0, 0), BuildingBlock: OJICUG_clean_linker_0, # of connection points: 2
#     Edge 42, Type (0, 0), BuildingBlock: OJICUG_clean_linker_0, # of connection points: 2
#     Edge 43, Type (0, 0), BuildingBlock: OJICUG_clean_linker_0, # of connection points: 2
#     Edge 44, Type (0, 0), BuildingBlock: OJICUG_clean_linker_0, # of connection points: 2
#     Edge 45, Type (0, 0), BuildingBlock: OJICUG_clean_linker_0, # of connection points: 2
#     Edge 46, Type (0, 0), BuildingBlock: OJICUG_clean_linker_0, # of connection points: 2
#     Edge 47, Type (0, 0), BuildingBlock: OJICUG_clean_linker_0, # of connection points: 2
# Relax obj value: 0.084
# Max RMSD: 0.143
# Mean RMSD: 0.143
data_MOF--net-uou--node1-TATPOV_clean_sbu_0--edge1-OJICUG_clean_linker_0
_symmetry_space_group_name_H-M    P1
_symmetry_Int_Tables_number       1
_symmetry_cell_setting            triclinic
loop_
_symmetry_equiv_pos_as_xyz
'x, y, z'
_cell_length_a     28.238353
_cell_length_b     25.038584
_cell_length_c     40.903376
_cell_angle_alpha  89.020767
_cell_angle_beta   90.054652
_cell_angle_gamma 89.98043
loop_
_atom_site_label
_atom_site_type_symbol
_atom_site_fract_x
_atom_site_fract_y
_atom_site_fract_z
_atom_type_partial_charge
Zn0 Zn 0.99175 0.04114 0.1057 0.0
Zn1 Zn 0.08805 0.04224 0.10514 0.0
O2 O 0.0682 0.99311 0.14317 0.0
O3 O 0.99066 0.98666 0.14285 0.0
O4 O 0.15934 0.03426 0.10499 0.0
O5 O 0.99113 0.02118 0.05803 0.0
O6 O 0.06903 0.02441 0.0583 0.0
C7 C 1.03019 0.97454 0.15561 0.0
C8 C 0.03552 0.14499 0.11857 0.0
O9 O 0.07462 0.12045 0.11466 0.0
O10 O 0.99653 0.1201 0.11642 0.0
C11 C 0.18244 0.03207 0.1317 0.0
O12 O 0.15962 0.03782 0.15939 0.0
C13 C 1.03019 0.01825 0.04297 0.0
Zn14 Zn 0.57491 0.97967 0.10543 0.0
Zn15 Zn 0.47812 0.97737 0.10597 0.0
O16 O 0.49792 0.02699 0.14271 0.0
O17 O 0.57549 0.03342 0.14198 0.0
O18 O 0.40673 0.9837 0.10606 0.0
O19 O 0.57338 1.00111 0.05751 0.0
O20 O 0.49555 0.99671 0.05889 0.0
C21 C 0.53605 0.04575 0.15451 0.0
C22 C 0.53256 0.87484 0.11953 0.0
O23 O 0.49316 0.89922 0.11615 0.0
O24 O 0.5713 0.90017 0.11669 0.0
C25 C 0.38366 0.98646 0.13267 0.0
O26 O 0.40659 0.98229 0.16056 0.0
C27 C 0.5338 1.00392 0.04298 0.0
Zn28 Zn 0.49166 0.98369 0.33918 0.0
Zn29 Zn 0.58797 0.9824 0.33984 0.0
O30 O 0.56812 0.03162 0.30183 0.0
O31 O 0.49059 0.03821 0.30204 0.0
O32 O 0.65927 0.99029 0.34003 0.0
O33 O 0.49111 1.00358 0.38687 0.0
O34 O 0.56901 1.00016 0.38668 0.0
C35 C 0.53013 0.05027 0.28934 0.0
C36 C 0.53534 0.87977 0.32632 0.0
O37 O 0.57446 0.90424 0.33027 0.0
O38 O 0.49637 0.90472 0.32844 0.0
C39 C 0.68229 0.99239 0.31332 0.0
O40 O 0.65939 0.98657 0.28563 0.0
C41 C 0.53018 1.00638 0.40198 0.0
Zn42 Zn 0.07478 0.04504 0.33961 0.0
Zn43 Zn 0.97801 0.04733 0.33896 0.0
O44 O 0.99783 0.99776 0.30222 0.0
O45 O 0.0754 0.99131 0.30306 0.0
O46 O 0.90662 0.04095 0.33884 0.0
O47 O 0.07335 0.02357 0.38752 0.0
O48 O 0.99551 0.02794 0.38605 0.0
C49 C 0.03597 0.979 0.29047 0.0
C50 C 0.03235 0.14987 0.32548 0.0
O51 O 0.99297 0.12551 0.32882 0.0
O52 O 0.0711 0.12453 0.32836 0.0
C53 C 0.88347 0.03805 0.31224 0.0
O54 O 0.90632 0.04212 0.28434 0.0
C55 C 0.03377 0.02072 0.402 0.0
Zn56 Zn 0.06951 0.98332 0.83923 0.0
Zn57 Zn 0.97322 0.98223 0.83978 0.0
O58 O 0.99307 0.03138 0.80176 0.0
O59 O 0.07061 0.03783 0.80209 0.0
O60 O 0.90192 0.99022 0.83994 0.0
O61 O 0.07014 1.00324 0.8869 0.0
O62 O 0.99224 1.00002 0.88662 0.0
C63 C 0.03108 0.04996 0.78933 0.0
C64 C 1.02573 0.87949 0.82632 0.0
O65 O 0.98664 0.90402 0.83024 0.0
O66 O 0.06472 0.90437 0.82848 0.0
C67 C 0.87882 0.99245 0.81324 0.0
O68 O 0.90163 0.98672 0.78553 0.0
C69 C 0.03108 1.00617 0.90196 0.0
Zn70 Zn 0.48637 0.04487 0.83955 0.0
Zn71 Zn 0.58315 0.04717 0.83902 0.0
O72 O 0.56335 0.99754 0.80229 0.0
O73 O 0.48578 0.9911 0.80301 0.0
O74 O 0.65454 0.04083 0.83892 0.0
O75 O 0.4879 0.02344 0.88748 0.0
O76 O 0.56573 0.02784 0.8861 0.0
C77 C 0.52522 0.97877 0.79049 0.0
C78 C 0.52871 0.14969 0.82544 0.0
O79 O 0.56811 0.12532 0.82883 0.0
O80 O 0.48998 0.12436 0.82829 0.0
C81 C 0.67761 0.03808 0.8123 0.0
O82 O 0.65466 0.04228 0.78442 0.0
C83 C 0.52748 0.02063 0.90201 0.0
Zn84 Zn 0.56963 0.0407 0.60579 0.0
Zn85 Zn 0.47333 0.042 0.60513 0.0
O86 O 0.49316 0.99281 0.64316 0.0
O87 O 0.57069 0.98622 0.64295 0.0
O88 O 0.40202 0.03413 0.60494 0.0
O89 O 0.57018 0.02077 0.55812 0.0
O90 O 0.49228 0.0242 0.5583 0.0
C91 C 0.53115 0.97417 0.65566 0.0
C92 C 0.52596 0.14464 0.61862 0.0
O93 O 0.48684 0.12017 0.61468 0.0
O94 O 0.56493 0.11968 0.6165 0.0
C95 C 0.379 0.03206 0.63165 0.0
O96 O 0.40189 0.03789 0.65934 0.0
C97 C 0.53111 0.01797 0.543 0.0
Zn98 Zn 0.9865 0.97944 0.60535 0.0
Zn99 Zn 0.08327 0.97715 0.606 0.0
O100 O 0.06345 0.02673 0.64273 0.0
O101 O 0.98588 0.03319 0.64189 0.0
O102 O 0.15466 0.98352 0.60612 0.0
O103 O 0.98794 1.00089 0.55743 0.0
O104 O 0.06578 0.99652 0.55891 0.0
C105 C 1.02531 0.04549 0.65448 0.0
C106 C 1.02893 0.87461 0.6195 0.0
O107 O 0.06831 0.89897 0.61615 0.0
O108 O 0.99018 0.89995 0.61661 0.0
C109 C 0.17781 0.98643 0.63272 0.0
O110 O 0.15496 0.98238 0.66062 0.0
C111 C 1.02752 1.00373 0.54295 0.0
Zn112 Zn 0.49188 0.54095 0.10572 0.0
Zn113 Zn 0.58816 0.54218 0.10511 0.0
O114 O 0.5684 0.493 0.14314 0.0
O115 O 0.49087 0.48644 0.14285 0.0
O116 O 0.65946 0.53429 0.10494 0.0
O117 O 0.49122 0.52105 0.05804 0.0
O118 O 0.56912 0.52439 0.05827 0.0
C119 C 0.53042 0.47437 0.1556 0.0
C120 C 0.53555 0.64485 0.11861 0.0
O121 O 0.57467 0.62036 0.11467 0.0
O122 O 0.49658 0.61991 0.11646 0.0
C123 C 0.68257 0.53224 0.13165 0.0
O124 O 0.65975 0.53807 0.15934 0.0
C125 C 0.53027 0.5182 0.04295 0.0
Zn126 Zn 0.07507 0.47978 0.10536 0.0
Zn127 Zn 0.97828 0.47755 0.10596 0.0
O128 O 0.99815 0.52716 0.14267 0.0
O129 O 0.07572 0.53353 0.14191 0.0
O130 O 0.90689 0.48391 0.10607 0.0
O131 O 0.07349 0.50121 0.05743 0.0
O132 O 0.99565 0.49684 0.05887 0.0
C133 C 0.0363 0.5459 0.15445 0.0
C134 C 0.03268 0.37499 0.11949 0.0
O135 O 0.99329 0.39939 0.11613 0.0
O136 O 0.07143 0.40029 0.11662 0.0
C137 C 0.88382 0.48681 0.13268 0.0
O138 O 0.90676 0.48276 0.16057 0.0
C139 C 0.03389 0.50402 0.04293 0.0
Zn140 Zn 0.9918 0.48385 0.33912 0.0
Zn141 Zn 0.0881 0.48246 0.33983 0.0
O142 O 0.06834 0.53168 0.3018 0.0
O143 O 0.99081 0.53836 0.30197 0.0
O144 O 0.15941 0.49025 0.34003 0.0
O145 O 0.99122 0.50377 0.3868 0.0
O146 O 0.06912 0.50026 0.38666 0.0
C147 C 1.03037 0.55037 0.28929 0.0
C148 C 0.03539 0.37987 0.32631 0.0
O149 O 0.07453 0.4043 0.33027 0.0
O150 O 0.99644 0.40487 0.32841 0.0
C151 C 0.18243 0.49219 0.31332 0.0
O152 O 0.15953 0.48627 0.28565 0.0
C153 C 1.03027 0.50652 0.40194 0.0
Zn154 Zn 0.57495 0.54498 0.33959 0.0
Zn155 Zn 0.47816 0.54719 0.33889 0.0
O156 O 0.49805 0.49761 0.30217 0.0
O157 O 0.57563 0.49123 0.30304 0.0
O158 O 0.40678 0.54078 0.33876 0.0
O159 O 0.57346 0.52352 0.38751 0.0
O160 O 0.49562 0.52784 0.38599 0.0
C161 C 0.53622 0.47888 0.29044 0.0
C162 C 0.53246 0.64977 0.32542 0.0
O163 O 0.49309 0.62537 0.32875 0.0
O164 O 0.57123 0.62447 0.32833 0.0
C165 C 0.38363 0.53774 0.31216 0.0
O166 O 0.40648 0.54168 0.28426 0.0
C167 C 0.53387 0.52066 0.40196 0.0
Zn168 Zn 0.56938 0.48359 0.83918 0.0
Zn169 Zn 0.4731 0.48236 0.83978 0.0
O170 O 0.49286 0.53152 0.80174 0.0
O171 O 0.57038 0.53808 0.80203 0.0
O172 O 0.40179 0.49025 0.83995 0.0
O173 O 0.57003 0.50354 0.88685 0.0
O174 O 0.49213 0.50019 0.88662 0.0
C175 C 0.53083 0.55014 0.78928 0.0
C176 C 0.52571 0.37969 0.82632 0.0
O177 O 0.48659 0.40417 0.83025 0.0
O178 O 0.56468 0.40462 0.82846 0.0
C179 C 0.37869 0.49228 0.81324 0.0
O180 O 0.4015 0.48643 0.78555 0.0
C181 C 0.53099 0.50639 0.90194 0.0
Zn182 Zn 0.98618 0.5447 0.83951 0.0
Zn183 Zn 0.08298 0.54694 0.83892 0.0
O184 O 0.06311 0.49731 0.80221 0.0
O185 O 0.98554 0.49093 0.80297 0.0
O186 O 0.15437 0.54058 0.8388 0.0
O187 O 0.98776 0.52329 0.88745 0.0
O188 O 0.0656 0.52766 0.88601 0.0
C189 C 1.02496 0.47856 0.79043 0.0
C190 C 1.02856 0.64949 0.82537 0.0
O191 O 0.06795 0.62509 0.82873 0.0
O192 O 0.98982 0.62419 0.82825 0.0
C193 C 0.17743 0.53768 0.8122 0.0
O194 O 0.15449 0.54171 0.78431 0.0
C195 C 1.02736 0.52048 0.90195 0.0
Zn196 Zn 0.06948 0.54065 0.60579 0.0
Zn197 Zn 0.97319 0.54204 0.60508 0.0
O198 O 0.99295 0.49279 0.6431 0.0
O199 O 0.07047 0.48611 0.64293 0.0
O200 O 0.90188 0.53424 0.60487 0.0
O201 O 0.07007 0.52077 0.5581 0.0
O202 O 0.99217 0.52427 0.55824 0.0
C203 C 0.03091 0.47409 0.65561 0.0
C204 C 1.02589 0.64461 0.61864 0.0
O205 O 0.98675 0.62019 0.61466 0.0
O206 O 0.06484 0.61962 0.61653 0.0
C207 C 0.87885 0.53228 0.63158 0.0
O208 O 0.90176 0.53818 0.65926 0.0
C209 C 0.03102 0.51802 0.54297 0.0
Zn210 Zn 0.48635 0.47943 0.60529 0.0
Zn211 Zn 0.58313 0.47723 0.60599 0.0
O212 O 0.56324 0.52681 0.64271 0.0
O213 O 0.48566 0.53318 0.64183 0.0
O214 O 0.65452 0.48365 0.60613 0.0
O215 O 0.48784 0.50087 0.55737 0.0
O216 O 0.56568 0.49657 0.55889 0.0
C217 C 0.52507 0.54554 0.65444 0.0
C218 C 0.52884 0.37465 0.61947 0.0
O219 O 0.56821 0.39904 0.61614 0.0
O220 O 0.49007 0.39995 0.61656 0.0
C221 C 0.67766 0.48669 0.63272 0.0
O222 O 0.65481 0.48275 0.66063 0.0
C223 C 0.52743 0.50374 0.54291 0.0
C224 C 0.30719 1.00368 0.16173 0.0
C225 C 0.33202 0.99719 0.13229 0.0
H226 H 0.2408 0.02004 0.18463 0.0
C227 C 0.30723 1.00248 0.10257 0.0
H228 H 0.32517 1.00002 0.18507 0.0
C229 C 0.25875 0.01409 0.10232 0.0
C230 C 0.23398 0.02075 0.13178 0.0
H231 H 0.32528 0.99783 0.07944 0.0
H232 H 0.24072 0.01782 0.07901 0.0
C233 C 0.25878 0.01536 0.16148 0.0
C234 C 0.75852 1.00898 0.2835 0.0
C235 C 0.73383 1.0037 0.31321 0.0
H236 H 0.82483 0.02426 0.25988 0.0
C237 C 0.75868 1.01047 0.34266 0.0
H238 H 0.74048 1.00422 0.26036 0.0
C239 C 0.80715 0.0221 0.34238 0.0
C240 C 0.83184 0.0273 0.31265 0.0
H241 H 0.74072 1.00682 0.36597 0.0
H242 H 0.82527 0.02685 0.3655 0.0
C243 C 0.80693 0.02068 0.28322 0.0
C244 C 0.80248 1.00919 0.78347 0.0
C245 C 0.82728 1.00377 0.81316 0.0
H246 H 0.73608 0.02457 0.7599 0.0
C247 C 0.80252 1.01041 0.84263 0.0
H248 H 0.82045 1.00453 0.76031 0.0
C249 C 0.75404 0.02203 0.84239 0.0
C250 C 0.72925 0.02736 0.81267 0.0
H251 H 0.82056 1.00666 0.86594 0.0
H252 H 0.736 0.02667 0.86552 0.0
C253 C 0.75406 0.02088 0.78323 0.0
C254 C 0.25413 1.00234 0.60259 0.0
C255 C 0.22944 0.99718 0.63232 0.0
H256 H 0.32057 0.01759 0.57899 0.0
C257 C 0.25435 1.00381 0.66174 0.0
H258 H 0.23602 0.99758 0.57947 0.0
C259 C 0.30275 0.0155 0.66146 0.0
C260 C 0.32746 0.02076 0.63176 0.0
H261 H 0.23644 1.00025 0.68508 0.0
H262 H 0.3208 0.02028 0.68461 0.0
C263 C 0.30261 0.01396 0.60231 0.0
C264 C 0.80738 0.50263 0.10256 0.0
C265 C 0.83218 0.49751 0.13229 0.0
H266 H 0.74084 0.51779 0.07898 0.0
C267 C 0.80736 0.50414 0.16172 0.0
H268 H 0.82542 0.49787 0.07944 0.0
C269 C 0.75893 0.51578 0.16145 0.0
C270 C 0.73413 0.52099 0.13175 0.0
H271 H 0.82535 0.50062 0.18505 0.0
H272 H 0.74096 0.52056 0.1846 0.0
C273 C 0.75889 0.5142 0.1023 0.0
C274 C 0.30731 0.52197 0.34233 0.0
C275 C 0.332 0.527 0.31259 0.0
H276 H 0.24087 0.50686 0.36595 0.0
C277 C 0.30709 0.52023 0.28318 0.0
H278 H 0.32543 0.52683 0.36544 0.0
C279 C 0.25868 0.50856 0.28348 0.0
C280 C 0.23398 0.50345 0.3132 0.0
H281 H 0.32499 0.52368 0.25983 0.0
H282 H 0.24063 0.50368 0.26034 0.0
C283 C 0.25883 0.51037 0.34263 0.0
C284 C 0.25388 0.52189 0.84232 0.0
C285 C 0.22908 0.52699 0.81259 0.0
H286 H 0.32041 0.50676 0.8659 0.0
C287 C 0.2539 0.52034 0.78317 0.0
H288 H 0.23583 0.52667 0.86544 0.0
C289 C 0.30232 0.50871 0.78344 0.0
C290 C 0.32713 0.50352 0.81314 0.0
H291 H 0.23591 0.52384 0.75983 0.0
H292 H 0.3203 0.50391 0.76029 0.0
C293 C 0.30237 0.51033 0.84259 0.0
C294 C 0.75398 0.50249 0.60257 0.0
C295 C 0.72929 0.49745 0.63231 0.0
H296 H 0.82042 0.51763 0.57895 0.0
C297 C 0.7542 0.5042 0.66172 0.0
H298 H 0.73587 0.49763 0.57946 0.0
C299 C 0.80261 0.51588 0.66142 0.0
C300 C 0.82731 0.52101 0.63171 0.0
H301 H 0.73629 0.50074 0.68506 0.0
H302 H 0.82065 0.52076 0.68456 0.0
C303 C 0.80246 0.5141 0.60227 0.0
C304 C 0.99115 0.94858 0.24155 0.0
C305 C 0.03471 0.95439 0.25781 0.0
H306 H 0.9554 0.94886 0.19551 0.0
C307 C 0.07679 0.94891 0.23985 0.0
H308 H 0.95803 0.95109 0.25478 0.0
C309 C 0.07527 0.94749 0.20574 0.0
C310 C 0.03167 0.95161 0.18922 0.0
H311 H 0.111 0.95183 0.25168 0.0
H312 H 0.10838 0.94931 0.19241 0.0
C313 C 0.98963 0.94715 0.20745 0.0
C314 C 0.49118 0.07626 0.20333 0.0
C315 C 0.53475 0.0704 0.18715 0.0
H316 H 0.45537 0.07602 0.24931 0.0
C317 C 0.57681 0.07586 0.20519 0.0
H318 H 0.45807 0.07376 0.19004 0.0
C319 C 0.57526 0.07731 0.2393 0.0
C320 C 0.53164 0.07321 0.25574 0.0
H321 H 0.61103 0.0729 0.19342 0.0
H322 H 0.60835 0.07546 0.25269 0.0
C323 C 0.48962 0.07771 0.23743 0.0
C324 C 0.07013 0.07594 0.70339 0.0
C325 C 1.02657 0.07012 0.68713 0.0
H326 H 0.10588 0.07565 0.74944 0.0
C327 C 0.98449 0.07561 0.7051 0.0
H328 H 0.10325 0.07342 0.69017 0.0
C329 C 0.986 0.07703 0.73921 0.0
C330 C 1.0296 0.0729 0.75573 0.0
H331 H 0.95028 0.07268 0.69326 0.0
H332 H 0.95289 0.07521 0.75253 0.0
C333 C 0.07164 0.07737 0.7375 0.0
C334 C 0.57165 0.94678 0.70757 0.0
C335 C 0.52963 0.95126 0.68926 0.0
H336 H 0.60322 0.95074 0.75495 0.0
C337 C 0.48602 0.94718 0.70571 0.0
H338 H 0.60589 0.94844 0.69568 0.0
C339 C 0.48446 0.94863 0.73981 0.0
C340 C 0.52653 0.9541 0.75785 0.0
H341 H 0.45292 0.94901 0.69231 0.0
H342 H 0.45024 0.95161 0.75158 0.0
C343 C 0.5701 0.94823 0.74167 0.0
C344 C 0.57557 0.44743 0.20572 0.0
C345 C 0.53195 0.45144 0.1892 0.0
H346 H 0.61129 0.45188 0.25165 0.0
C347 C 0.48993 0.44687 0.20743 0.0
H348 H 0.60867 0.44933 0.19238 0.0
C349 C 0.49145 0.44831 0.24154 0.0
C350 C 0.535 0.45424 0.2578 0.0
H351 H 0.45569 0.44848 0.19549 0.0
H352 H 0.45832 0.45074 0.25477 0.0
C353 C 0.57709 0.44885 0.23982 0.0
C354 C 0.98993 0.57791 0.23738 0.0
C355 C 0.03194 0.57331 0.25569 0.0
H356 H 0.95836 0.5741 0.19 0.0
C357 C 0.07557 0.5773 0.23925 0.0
H358 H 0.95569 0.57633 0.24927 0.0
C359 C 0.07712 0.57588 0.20514 0.0
C360 C 0.03504 0.57054 0.1871 0.0
H361 H 0.10866 0.57536 0.25264 0.0
H362 H 0.11134 0.57283 0.19337 0.0
C363 C 0.99148 0.5765 0.20328 0.0
C364 C 0.48419 0.57558 0.70504 0.0
C365 C 0.52629 0.57019 0.68708 0.0
H366 H 0.45259 0.57514 0.75247 0.0
C367 C 0.56983 0.57613 0.70334 0.0
H368 H 0.44999 0.57255 0.6932 0.0
C369 C 0.57134 0.5776 0.73745 0.0
C370 C 0.5293 0.57304 0.75567 0.0
H371 H 0.60296 0.5737 0.69011 0.0
H372 H 0.60557 0.57599 0.74939 0.0
C373 C 0.4857 0.57704 0.73915 0.0
C374 C 0.98415 0.44857 0.73974 0.0
C375 C 1.02622 0.45391 0.75779 0.0
H376 H 0.95262 0.44908 0.69225 0.0
C377 C 0.06979 0.44795 0.74161 0.0
H378 H 0.94994 0.45161 0.75152 0.0
C379 C 0.07134 0.44652 0.70751 0.0
C380 C 1.02934 0.45113 0.6892 0.0
H381 H 0.1029 0.45035 0.7549 0.0
H382 H 0.1056 0.44812 0.69563 0.0
C383 C 0.98571 0.44714 0.70563 0.0
C384 C 0.0776 0.23259 0.12359 0.0
C385 C 0.03509 0.20347 0.1232 0.0
H386 H 0.11022 0.30961 0.12307 0.0
C387 C 0.99188 0.23124 0.12497 0.0
H388 H 0.11149 0.21244 0.1225 0.0
C389 C 0.9911 0.28699 0.12525 0.0
C390 C 0.03353 0.3162 0.12383 0.0
H391 H 0.95844 0.21005 0.12498 0.0
H392 H 0.95716 0.30715 0.12544 0.0
C393 C 0.07683 0.28836 0.12394 0.0
C394 C 0.57675 0.78825 0.12401 0.0
C395 C 0.53344 0.81605 0.12387 0.0
H396 H 0.61147 0.71237 0.1226 0.0
C397 C 0.49103 0.78681 0.12526 0.0
H398 H 0.61013 0.80953 0.12317 0.0
C399 C 0.49184 0.73106 0.12498 0.0
C400 C 0.53507 0.70333 0.12324 0.0
H401 H 0.45707 0.80694 0.12542 0.0
H402 H 0.45842 0.70984 0.12497 0.0
C403 C 0.57756 0.73248 0.12366 0.0
C404 C 0.57659 0.73636 0.32092 0.0
C405 C 0.5333 0.70856 0.32108 0.0
H406 H 0.61128 0.81224 0.32231 0.0
C407 C 0.49086 0.7378 0.3197 0.0
H408 H 0.60999 0.71508 0.32176 0.0
C409 C 0.49165 0.79356 0.31997 0.0
C410 C 0.53487 0.82128 0.32169 0.0
H411 H 0.45692 0.71768 0.31955 0.0
H412 H 0.45821 0.81479 0.31999 0.0
C413 C 0.57737 0.79213 0.32126 0.0
C414 C 0.07736 0.29219 0.32128 0.0
C415 C 0.03488 0.32138 0.3217 0.0
H416 H 0.10992 0.21511 0.32179 0.0
C417 C 0.99163 0.29369 0.32 0.0
H418 H 0.11127 0.31227 0.32231 0.0
C419 C 0.99081 0.23794 0.31975 0.0
C420 C 0.03322 0.20866 0.32112 0.0
H421 H 0.95821 0.31495 0.32002 0.0
H422 H 0.95685 0.21784 0.31961 0.0
C423 C 0.07653 0.23642 0.32095 0.0
C424 C 0.07014 0.73748 0.81961 0.0
C425 C 1.02771 0.70828 0.82103 0.0
H426 H 0.10281 0.81443 0.81988 0.0
C427 C 0.98442 0.73612 0.82093 0.0
H428 H 0.10408 0.71733 0.81942 0.0
C429 C 0.98365 0.79189 0.82129 0.0
C430 C 1.02616 0.821 0.82168 0.0
H431 H 0.95102 0.71487 0.8218 0.0
H432 H 0.94975 0.81203 0.82238 0.0
C433 C 0.06937 0.79323 0.8199 0.0
C434 C 0.48371 0.29205 0.82129 0.0
C435 C 0.52619 0.3212 0.8217 0.0
H436 H 0.45113 0.215 0.8218 0.0
C437 C 0.56943 0.29347 0.81997 0.0
H438 H 0.44979 0.31216 0.82235 0.0
C439 C 0.57024 0.23772 0.8197 0.0
C440 C 0.52783 0.20848 0.82109 0.0
H441 H 0.60285 0.31469 0.81998 0.0
H442 H 0.60419 0.21759 0.81955 0.0
C443 C 0.48452 0.23628 0.82095 0.0
C444 C 0.48393 0.23229 0.62366 0.0
C445 C 0.52643 0.20313 0.62323 0.0
H446 H 0.45132 0.30934 0.62315 0.0
C447 C 0.56966 0.23086 0.62494 0.0
H448 H 0.45003 0.21218 0.62262 0.0
C449 C 0.57044 0.28661 0.6252 0.0
C450 C 0.52801 0.31586 0.62382 0.0
H451 H 0.60309 0.20963 0.62492 0.0
H452 H 0.60439 0.30674 0.62534 0.0
C453 C 0.48472 0.28806 0.62399 0.0
C454 C 0.07047 0.78654 0.62523 0.0
C455 C 1.02806 0.81582 0.62385 0.0
H456 H 0.10307 0.70953 0.62495 0.0
C457 C 0.98474 0.78806 0.62402 0.0
H458 H 0.10443 0.80664 0.62537 0.0
C459 C 0.98392 0.73229 0.62369 0.0
C460 C 1.0264 0.7031 0.62326 0.0
H461 H 0.95136 0.80937 0.62318 0.0
H462 H 0.95 0.71221 0.62265 0.0
C463 C 0.06965 0.73079 0.62497 0.0
C464 C 0.98786 1.0099 0.95532 0.0
C465 C 0.03078 1.01128 0.93795 0.0
H466 H 0.95399 1.01008 0.00204 0.0
C467 C 0.07355 0.01361 0.95548 0.0
H468 H 0.95428 1.00767 0.9426 0.0
C469 C 0.07341 0.0145 -0.01039 0.0
C470 C 1.03049 0.01312 0.00699 0.0
H471 H 0.10728 0.01431 0.94289 0.0
H472 H 0.10699 0.01673 0.00233 0.0
C473 C 0.98772 1.01078 -0.01055 0.0
C474 C 0.48707 1.01116 0.95626 0.0
C475 C 0.52915 0.01435 0.938 0.0
H476 H 0.45547 1.00629 0.00368 0.0
C477 C 0.57273 0.01542 0.95462 0.0
H478 H 0.45289 1.01067 0.94425 0.0
C479 C 0.57421 0.0134 -0.01127 0.0
C480 C 0.53214 1.01021 0.00699 0.0
H481 H 0.60581 0.01827 0.94131 0.0
H482 H 0.60839 0.01389 0.00075 0.0
C483 C 0.48856 1.00914 -0.00963 0.0
C484 C 0.48788 0.01454 0.48959 0.0
C485 C 0.5308 0.01295 0.50701 0.0
H486 H 0.454 0.01464 0.44282 0.0
C487 C 0.57356 1.01054 0.48953 0.0
H488 H 0.45431 0.01683 0.50227 0.0
C489 C 0.57342 1.00979 0.45539 0.0
C490 C 0.5305 1.01138 0.43797 0.0
H491 H 0.6073 1.00968 0.50216 0.0
H492 H 0.60699 1.0075 0.44272 0.0
C493 C 0.48773 0.01379 0.45546 0.0
C494 C 0.98708 0.01329 0.48867 0.0
C495 C 1.02916 1.01008 0.50697 0.0
H496 H 0.95545 0.01825 0.44121 0.0
C497 C 0.07274 1.00906 0.4904 0.0
H498 H 0.9529 0.01374 0.50064 0.0
C499 C 0.07421 1.01115 0.45629 0.0
C500 C 0.03212 0.01437 0.43798 0.0
H501 H 0.10583 1.00619 0.50374 0.0
H502 H 0.10838 1.01071 0.44432 0.0
C503 C 0.98855 0.01539 0.45456 0.0
C504 C 0.57342 0.51466 -0.01043 0.0
C505 C 0.53053 0.51315 0.00697 0.0
H506 H 0.60723 0.51465 0.94282 0.0
C507 C 0.48774 0.51076 -0.01055 0.0
H508 H 0.60701 0.51694 0.00226 0.0
C509 C 0.48783 0.50995 0.95532 0.0
C510 C 0.53072 0.51146 0.93792 0.0
H511 H 0.45402 0.50996 0.00207 0.0
H512 H 0.45424 0.50767 0.94263 0.0
C513 C 0.57351 0.51385 0.95544 0.0
C514 C 0.98857 0.50917 -0.00965 0.0
C515 C 0.03217 0.51025 0.00693 0.0
H516 H 0.95283 0.51063 0.94425 0.0
C517 C 0.07422 0.51339 -0.01136 0.0
H518 H 0.9555 0.50636 0.00368 0.0
C519 C 0.07268 0.51534 0.95453 0.0
C520 C 1.02908 0.51426 0.93794 0.0
H521 H 0.10842 0.51388 0.00063 0.0
H522 H 0.10575 0.51815 0.9412 0.0
C523 C 0.98703 0.51112 0.95623 0.0
C524 C 0.07353 0.51059 0.48952 0.0
C525 C 0.03075 0.51305 0.50698 0.0
H526 H 0.10702 0.50753 0.44273 0.0
C527 C 0.98785 0.5147 0.48952 0.0
H528 H 0.10725 0.50968 0.50218 0.0
C529 C 0.98776 0.51398 0.45539 0.0
C530 C 1.03054 0.51152 0.43793 0.0
H531 H 0.95427 0.51703 0.50217 0.0
H532 H 0.95404 0.51489 0.44273 0.0
C533 C 0.07344 0.50986 0.45538 0.0
C534 C 0.48706 0.51322 0.4886 0.0
C535 C 0.52912 0.51007 0.50693 0.0
H536 H 0.4555 0.51811 0.44112 0.0
C537 C 0.57272 0.5091 0.49039 0.0
H538 H 0.45287 0.51363 0.50055 0.0
C539 C 0.57424 0.51117 0.45628 0.0
C540 C 0.53218 0.51432 0.43795 0.0
H541 H 0.6058 0.50629 0.50376 0.0
H542 H 0.60843 0.51077 0.44433 0.0
C543 C 0.48858 0.51529 0.45449 0.0
loop_
_geom_bond_atom_site_label_1
_geom_bond_atom_site_label_2
_geom_bond_distance
_geom_bond_site_symmetry_2
_ccdc_geom_bond_type
Zn0 O3 2.031 . S
Zn0 O5 2.049 . S
Zn0 O10 2.067 . S
Zn1 O2 1.962 . S
Zn1 O4 1.986 . S
Zn1 O6 1.996 . S
Zn1 O9 1.943 . S
O2 Zn1 1.962 . S
O2 C7 1.254 . S
O3 Zn0 2.031 . S
O3 C7 1.269 1_655 S
O4 Zn1 1.986 . S
O4 C11 1.262 . S
O5 Zn0 2.049 . S
O5 C13 1.260 1_655 S
O6 Zn1 1.996 . S
O6 C13 1.257 . S
C7 O2 1.254 . S
C7 O3 1.269 1_455 S
C8 O9 1.249 . S
C8 O10 1.270 1_455 S
O9 Zn1 1.943 . S
O9 C8 1.249 . S
O10 Zn0 2.067 . S
O10 C8 1.270 1_655 S
C11 O4 1.262 . S
C11 O12 1.232 . S
O12 C11 1.232 . S
C13 O5 1.260 1_455 S
C13 O6 1.257 . S
Zn14 O17 2.031 . S
Zn14 O19 2.049 . S
Zn14 O24 2.067 . S
Zn15 O16 1.962 . S
Zn15 O18 1.986 . S
Zn15 O20 1.996 . S
Zn15 O23 1.943 . S
O16 Zn15 1.962 . S
O16 C21 1.254 . S
O17 Zn14 2.031 . S
O17 C21 1.269 . S
O18 Zn15 1.986 . S
O18 C25 1.262 . S
O19 Zn14 2.049 . S
O19 C27 1.260 . S
O20 Zn15 1.996 . S
O20 C27 1.257 . S
C21 O16 1.254 . S
C21 O17 1.269 . S
C22 O23 1.249 . S
C22 O24 1.270 . S
O23 Zn15 1.943 . S
O23 C22 1.249 . S
O24 Zn14 2.067 . S
O24 C22 1.270 . S
C25 O18 1.262 . S
C25 O26 1.232 . S
O26 C25 1.232 . S
C27 O19 1.260 . S
C27 O20 1.257 . S
Zn28 O31 2.031 . S
Zn28 O33 2.049 . S
Zn28 O38 2.067 . S
Zn29 O30 1.962 . S
Zn29 O32 1.986 . S
Zn29 O34 1.996 . S
Zn29 O37 1.943 . S
O30 Zn29 1.962 . S
O30 C35 1.254 . S
O31 Zn28 2.031 . S
O31 C35 1.269 . S
O32 Zn29 1.986 . S
O32 C39 1.262 . S
O33 Zn28 2.049 . S
O33 C41 1.260 . S
O34 Zn29 1.996 . S
O34 C41 1.257 . S
C35 O30 1.254 . S
C35 O31 1.269 . S
C36 O37 1.249 . S
C36 O38 1.270 . S
O37 Zn29 1.943 . S
O37 C36 1.249 . S
O38 Zn28 2.067 . S
O38 C36 1.270 . S
C39 O32 1.262 . S
C39 O40 1.232 . S
O40 C39 1.232 . S
C41 O33 1.260 . S
C41 O34 1.257 . S
Zn42 O45 2.031 . S
Zn42 O47 2.049 . S
Zn42 O52 2.067 . S
Zn43 O44 1.962 . S
Zn43 O46 1.986 . S
Zn43 O48 1.996 . S
Zn43 O51 1.943 . S
O44 Zn43 1.962 . S
O44 C49 1.254 . S
O45 Zn42 2.031 . S
O45 C49 1.269 1_455 S
O46 Zn43 1.986 . S
O46 C53 1.262 . S
O47 Zn42 2.049 . S
O47 C55 1.260 1_455 S
O48 Zn43 1.996 . S
O48 C55 1.257 . S
C49 O44 1.254 . S
C49 O45 1.269 1_655 S
C50 O51 1.249 . S
C50 O52 1.270 1_655 S
O51 Zn43 1.943 . S
O51 C50 1.249 . S
O52 Zn42 2.067 . S
O52 C50 1.270 1_455 S
C53 O46 1.262 . S
C53 O54 1.232 . S
O54 C53 1.232 . S
C55 O47 1.260 1_655 S
C55 O48 1.257 . S
Zn56 O59 2.031 . S
Zn56 O61 2.049 . S
Zn56 O66 2.067 . S
Zn57 O58 1.962 . S
Zn57 O60 1.986 . S
Zn57 O62 1.996 . S
Zn57 O65 1.943 . S
O58 Zn57 1.962 . S
O58 C63 1.254 . S
O59 Zn56 2.031 . S
O59 C63 1.269 1_455 S
O60 Zn57 1.986 . S
O60 C67 1.262 . S
O61 Zn56 2.049 . S
O61 C69 1.260 1_455 S
O62 Zn57 1.996 . S
O62 C69 1.257 . S
C63 O58 1.254 . S
C63 O59 1.269 1_655 S
C64 O65 1.249 . S
C64 O66 1.270 1_655 S
O65 Zn57 1.943 . S
O65 C64 1.249 . S
O66 Zn56 2.067 . S
O66 C64 1.270 1_455 S
C67 O60 1.262 . S
C67 O68 1.232 . S
O68 C67 1.232 . S
C69 O61 1.260 1_655 S
C69 O62 1.257 . S
Zn70 O73 2.031 . S
Zn70 O75 2.049 . S
Zn70 O80 2.067 . S
Zn71 O72 1.962 . S
Zn71 O74 1.986 . S
Zn71 O76 1.996 . S
Zn71 O79 1.943 . S
O72 Zn71 1.962 . S
O72 C77 1.254 . S
O73 Zn70 2.031 . S
O73 C77 1.269 . S
O74 Zn71 1.986 . S
O74 C81 1.262 . S
O75 Zn70 2.049 . S
O75 C83 1.260 . S
O76 Zn71 1.996 . S
O76 C83 1.257 . S
C77 O72 1.254 . S
C77 O73 1.269 . S
C78 O79 1.249 . S
C78 O80 1.270 . S
O79 Zn71 1.943 . S
O79 C78 1.249 . S
O80 Zn70 2.067 . S
O80 C78 1.270 . S
C81 O74 1.262 . S
C81 O82 1.232 . S
O82 C81 1.232 . S
C83 O75 1.260 . S
C83 O76 1.257 . S
Zn84 O87 2.031 . S
Zn84 O89 2.049 . S
Zn84 O94 2.067 . S
Zn85 O86 1.962 . S
Zn85 O88 1.986 . S
Zn85 O90 1.996 . S
Zn85 O93 1.943 . S
O86 Zn85 1.962 . S
O86 C91 1.254 . S
O87 Zn84 2.031 . S
O87 C91 1.269 . S
O88 Zn85 1.986 . S
O88 C95 1.262 . S
O89 Zn84 2.049 . S
O89 C97 1.260 . S
O90 Zn85 1.996 . S
O90 C97 1.257 . S
C91 O86 1.254 . S
C91 O87 1.269 . S
C92 O93 1.249 . S
C92 O94 1.270 . S
O93 Zn85 1.943 . S
O93 C92 1.249 . S
O94 Zn84 2.067 . S
O94 C92 1.270 . S
C95 O88 1.262 . S
C95 O96 1.232 . S
O96 C95 1.232 . S
C97 O89 1.260 . S
C97 O90 1.257 . S
Zn98 O101 2.031 . S
Zn98 O103 2.049 . S
Zn98 O108 2.067 . S
Zn99 O100 1.962 . S
Zn99 O102 1.986 . S
Zn99 O104 1.996 . S
Zn99 O107 1.943 . S
O100 Zn99 1.962 . S
O100 C105 1.254 . S
O101 Zn98 2.031 . S
O101 C105 1.269 1_655 S
O102 Zn99 1.986 . S
O102 C109 1.262 . S
O103 Zn98 2.049 . S
O103 C111 1.260 1_655 S
O104 Zn99 1.996 . S
O104 C111 1.257 . S
C105 O100 1.254 . S
C105 O101 1.269 1_455 S
C106 O107 1.249 . S
C106 O108 1.270 1_455 S
O107 Zn99 1.943 . S
O107 C106 1.249 . S
O108 Zn98 2.067 . S
O108 C106 1.270 1_655 S
C109 O102 1.262 . S
C109 O110 1.232 . S
O110 C109 1.232 . S
C111 O103 1.260 1_455 S
C111 O104 1.257 . S
Zn112 O115 2.031 . S
Zn112 O117 2.049 . S
Zn112 O122 2.067 . S
Zn113 O114 1.962 . S
Zn113 O116 1.986 . S
Zn113 O118 1.996 . S
Zn113 O121 1.943 . S
O114 Zn113 1.962 . S
O114 C119 1.254 . S
O115 Zn112 2.031 . S
O115 C119 1.269 . S
O116 Zn113 1.986 . S
O116 C123 1.262 . S
O117 Zn112 2.049 . S
O117 C125 1.260 . S
O118 Zn113 1.996 . S
O118 C125 1.257 . S
C119 O114 1.254 . S
C119 O115 1.269 . S
C120 O121 1.249 . S
C120 O122 1.270 . S
O121 Zn113 1.943 . S
O121 C120 1.249 . S
O122 Zn112 2.067 . S
O122 C120 1.270 . S
C123 O116 1.262 . S
C123 O124 1.232 . S
O124 C123 1.232 . S
C125 O117 1.260 . S
C125 O118 1.257 . S
Zn126 O129 2.031 . S
Zn126 O131 2.049 . S
Zn126 O136 2.067 . S
Zn127 O128 1.962 . S
Zn127 O130 1.986 . S
Zn127 O132 1.996 . S
Zn127 O135 1.943 . S
O128 Zn127 1.962 . S
O128 C133 1.254 . S
O129 Zn126 2.031 . S
O129 C133 1.269 1_455 S
O130 Zn127 1.986 . S
O130 C137 1.262 . S
O131 Zn126 2.049 . S
O131 C139 1.260 1_455 S
O132 Zn127 1.996 . S
O132 C139 1.257 . S
C133 O128 1.254 . S
C133 O129 1.269 1_655 S
C134 O135 1.249 . S
C134 O136 1.270 1_655 S
O135 Zn127 1.943 . S
O135 C134 1.249 . S
O136 Zn126 2.067 . S
O136 C134 1.270 1_455 S
C137 O130 1.262 . S
C137 O138 1.232 . S
O138 C137 1.232 . S
C139 O131 1.260 1_655 S
C139 O132 1.257 . S
Zn140 O143 2.031 . S
Zn140 O145 2.049 . S
Zn140 O150 2.067 . S
Zn141 O142 1.962 . S
Zn141 O144 1.986 . S
Zn141 O146 1.996 . S
Zn141 O149 1.943 . S
O142 Zn141 1.962 . S
O142 C147 1.254 . S
O143 Zn140 2.031 . S
O143 C147 1.269 1_655 S
O144 Zn141 1.986 . S
O144 C151 1.262 . S
O145 Zn140 2.049 . S
O145 C153 1.260 1_655 S
O146 Zn141 1.996 . S
O146 C153 1.257 . S
C147 O142 1.254 . S
C147 O143 1.269 1_455 S
C148 O149 1.249 . S
C148 O150 1.270 1_455 S
O149 Zn141 1.943 . S
O149 C148 1.249 . S
O150 Zn140 2.067 . S
O150 C148 1.270 1_655 S
C151 O144 1.262 . S
C151 O152 1.232 . S
O152 C151 1.232 . S
C153 O145 1.260 1_455 S
C153 O146 1.257 . S
Zn154 O157 2.031 . S
Zn154 O159 2.049 . S
Zn154 O164 2.067 . S
Zn155 O156 1.962 . S
Zn155 O158 1.986 . S
Zn155 O160 1.996 . S
Zn155 O163 1.943 . S
O156 Zn155 1.962 . S
O156 C161 1.254 . S
O157 Zn154 2.031 . S
O157 C161 1.269 . S
O158 Zn155 1.986 . S
O158 C165 1.262 . S
O159 Zn154 2.049 . S
O159 C167 1.260 . S
O160 Zn155 1.996 . S
O160 C167 1.257 . S
C161 O156 1.254 . S
C161 O157 1.269 . S
C162 O163 1.249 . S
C162 O164 1.270 . S
O163 Zn155 1.943 . S
O163 C162 1.249 . S
O164 Zn154 2.067 . S
O164 C162 1.270 . S
C165 O158 1.262 . S
C165 O166 1.232 . S
O166 C165 1.232 . S
C167 O159 1.260 . S
C167 O160 1.257 . S
Zn168 O171 2.031 . S
Zn168 O173 2.049 . S
Zn168 O178 2.067 . S
Zn169 O170 1.962 . S
Zn169 O172 1.986 . S
Zn169 O174 1.996 . S
Zn169 O177 1.943 . S
O170 Zn169 1.962 . S
O170 C175 1.254 . S
O171 Zn168 2.031 . S
O171 C175 1.269 . S
O172 Zn169 1.986 . S
O172 C179 1.262 . S
O173 Zn168 2.049 . S
O173 C181 1.260 . S
O174 Zn169 1.996 . S
O174 C181 1.257 . S
C175 O170 1.254 . S
C175 O171 1.269 . S
C176 O177 1.249 . S
C176 O178 1.270 . S
O177 Zn169 1.943 . S
O177 C176 1.249 . S
O178 Zn168 2.067 . S
O178 C176 1.270 . S
C179 O172 1.262 . S
C179 O180 1.232 . S
O180 C179 1.232 . S
C181 O173 1.260 . S
C181 O174 1.257 . S
Zn182 O185 2.031 . S
Zn182 O187 2.049 . S
Zn182 O192 2.067 . S
Zn183 O184 1.962 . S
Zn183 O186 1.986 . S
Zn183 O188 1.996 . S
Zn183 O191 1.943 . S
O184 Zn183 1.962 . S
O184 C189 1.254 . S
O185 Zn182 2.031 . S
O185 C189 1.269 1_655 S
O186 Zn183 1.986 . S
O186 C193 1.262 . S
O187 Zn182 2.049 . S
O187 C195 1.260 1_655 S
O188 Zn183 1.996 . S
O188 C195 1.257 . S
C189 O184 1.254 . S
C189 O185 1.269 1_455 S
C190 O191 1.249 . S
C190 O192 1.270 1_455 S
O191 Zn183 1.943 . S
O191 C190 1.249 . S
O192 Zn182 2.067 . S
O192 C190 1.270 1_655 S
C193 O186 1.262 . S
C193 O194 1.232 . S
O194 C193 1.232 . S
C195 O187 1.260 1_455 S
C195 O188 1.257 . S
Zn196 O199 2.031 . S
Zn196 O201 2.049 . S
Zn196 O206 2.067 . S
Zn197 O198 1.962 . S
Zn197 O200 1.986 . S
Zn197 O202 1.996 . S
Zn197 O205 1.943 . S
O198 Zn197 1.962 . S
O198 C203 1.254 . S
O199 Zn196 2.031 . S
O199 C203 1.269 1_455 S
O200 Zn197 1.986 . S
O200 C207 1.262 . S
O201 Zn196 2.049 . S
O201 C209 1.260 1_455 S
O202 Zn197 1.996 . S
O202 C209 1.257 . S
C203 O198 1.254 . S
C203 O199 1.269 1_655 S
C204 O205 1.249 . S
C204 O206 1.270 1_655 S
O205 Zn197 1.943 . S
O205 C204 1.249 . S
O206 Zn196 2.067 . S
O206 C204 1.270 1_455 S
C207 O200 1.262 . S
C207 O208 1.232 . S
O208 C207 1.232 . S
C209 O201 1.260 1_655 S
C209 O202 1.257 . S
Zn210 O213 2.031 . S
Zn210 O215 2.049 . S
Zn210 O220 2.067 . S
Zn211 O212 1.962 . S
Zn211 O214 1.986 . S
Zn211 O216 1.996 . S
Zn211 O219 1.943 . S
O212 Zn211 1.962 . S
O212 C217 1.254 . S
O213 Zn210 2.031 . S
O213 C217 1.269 . S
O214 Zn211 1.986 . S
O214 C221 1.262 . S
O215 Zn210 2.049 . S
O215 C223 1.260 . S
O216 Zn211 1.996 . S
O216 C223 1.257 . S
C217 O212 1.254 . S
C217 O213 1.269 . S
C218 O219 1.249 . S
C218 O220 1.270 . S
O219 Zn211 1.943 . S
O219 C218 1.249 . S
O220 Zn210 2.067 . S
O220 C218 1.270 . S
C221 O214 1.262 . S
C221 O222 1.232 . S
O222 C221 1.232 . S
C223 O215 1.260 . S
C223 O216 1.257 . S
C224 C225 1.387 . S
C224 H228 0.950 . S
C224 C233 1.390 1_565 S
C225 C224 1.387 . S
C225 C227 1.387 . S
H226 C233 0.950 . S
C227 C225 1.387 . S
C227 C229 1.390 1_565 S
C227 H231 0.950 . S
H228 C224 0.950 . S
C229 C227 1.390 1_545 S
C229 C230 1.387 . S
C229 H232 0.950 . S
C230 C229 1.387 . S
C230 C233 1.387 . S
H231 C227 0.950 . S
H232 C229 0.950 . S
C233 C224 1.390 1_545 S
C233 H226 0.950 . S
C233 C230 1.387 . S
C234 C235 1.387 . S
C234 H238 0.950 . S
C234 C243 1.390 1_565 S
C235 C234 1.387 . S
C235 C237 1.387 . S
H236 C243 0.950 . S
C237 C235 1.387 . S
C237 C239 1.390 1_565 S
C237 H241 0.950 . S
H238 C234 0.950 . S
C239 C237 1.390 1_545 S
C239 C240 1.387 . S
C239 H242 0.950 . S
C240 C239 1.387 . S
C240 C243 1.387 . S
H241 C237 0.950 . S
H242 C239 0.950 . S
C243 C234 1.390 1_545 S
C243 H236 0.950 . S
C243 C240 1.387 . S
C244 C245 1.387 . S
C244 H248 0.950 . S
C244 C253 1.390 1_565 S
C245 C244 1.387 . S
C245 C247 1.387 . S
H246 C253 0.950 . S
C247 C245 1.387 . S
C247 C249 1.390 1_565 S
C247 H251 0.950 . S
H248 C244 0.950 . S
C249 C247 1.390 1_545 S
C249 C250 1.387 . S
C249 H252 0.950 . S
C250 C249 1.387 . S
C250 C253 1.387 . S
H251 C247 0.950 . S
H252 C249 0.950 . S
C253 C244 1.390 1_545 S
C253 H246 0.950 . S
C253 C250 1.387 . S
C254 C255 1.387 . S
C254 H258 0.950 . S
C254 C263 1.390 1_565 S
C255 C254 1.387 . S
C255 C257 1.387 . S
H256 C263 0.950 . S
C257 C255 1.387 . S
C257 C259 1.390 1_565 S
C257 H261 0.950 . S
H258 C254 0.950 . S
C259 C257 1.390 1_545 S
C259 C260 1.387 . S
C259 H262 0.950 . S
C260 C259 1.387 . S
C260 C263 1.387 . S
H261 C257 0.950 . S
H262 C259 0.950 . S
C263 C254 1.390 1_545 S
C263 H256 0.950 . S
C263 C260 1.387 . S
C264 C265 1.387 . S
C264 H268 0.950 . S
C264 C273 1.390 . S
C265 C264 1.387 . S
C265 C267 1.387 . S
H266 C273 0.950 . S
C267 C265 1.387 . S
C267 C269 1.390 . S
C267 H271 0.950 . S
H268 C264 0.950 . S
C269 C267 1.390 . S
C269 C270 1.387 . S
C269 H272 0.950 . S
C270 C269 1.387 . S
C270 C273 1.387 . S
H271 C267 0.950 . S
H272 C269 0.950 . S
C273 C264 1.390 . S
C273 H266 0.950 . S
C273 C270 1.387 . S
C274 C275 1.387 . S
C274 H278 0.950 . S
C274 C283 1.390 . S
C275 C274 1.387 . S
C275 C277 1.387 . S
H276 C283 0.950 . S
C277 C275 1.387 . S
C277 C279 1.390 . S
C277 H281 0.950 . S
H278 C274 0.950 . S
C279 C277 1.390 . S
C279 C280 1.387 . S
C279 H282 0.950 . S
C280 C279 1.387 . S
C280 C283 1.387 . S
H281 C277 0.950 . S
H282 C279 0.950 . S
C283 C274 1.390 . S
C283 H276 0.950 . S
C283 C280 1.387 . S
C284 C285 1.387 . S
C284 H288 0.950 . S
C284 C293 1.390 . S
C285 C284 1.387 . S
C285 C287 1.387 . S
H286 C293 0.950 . S
C287 C285 1.387 . S
C287 C289 1.390 . S
C287 H291 0.950 . S
H288 C284 0.950 . S
C289 C287 1.390 . S
C289 C290 1.387 . S
C289 H292 0.950 . S
C290 C289 1.387 . S
C290 C293 1.387 . S
H291 C287 0.950 . S
H292 C289 0.950 . S
C293 C284 1.390 . S
C293 H286 0.950 . S
C293 C290 1.387 . S
C294 C295 1.387 . S
C294 H298 0.950 . S
C294 C303 1.390 . S
C295 C294 1.387 . S
C295 C297 1.387 . S
H296 C303 0.950 . S
C297 C295 1.387 . S
C297 C299 1.390 . S
C297 H301 0.950 . S
H298 C294 0.950 . S
C299 C297 1.390 . S
C299 C300 1.387 . S
C299 H302 0.950 . S
C300 C299 1.387 . S
C300 C303 1.387 . S
H301 C297 0.950 . S
H302 C299 0.950 . S
C303 C294 1.390 . S
C303 H296 0.950 . S
C303 C300 1.387 . S
C304 C305 1.387 1_565 S
C304 H308 0.950 . S
C304 C313 1.390 1_655 S
C305 C304 1.387 1_545 S
C305 C307 1.387 . S
H306 C313 0.950 . S
C307 C305 1.387 . S
C307 C309 1.390 1_655 S
C307 H311 0.950 . S
H308 C304 0.950 . S
C309 C307 1.390 1_455 S
C309 C310 1.387 . S
C309 H312 0.950 . S
C310 C309 1.387 . S
C310 C313 1.387 1_545 S
H311 C307 0.950 . S
H312 C309 0.950 . S
C313 C304 1.390 1_455 S
C313 H306 0.950 . S
C313 C310 1.387 1_565 S
C314 C315 1.387 1_545 S
C314 H318 0.950 . S
C314 C323 1.390 . S
C315 C314 1.387 1_565 S
C315 C317 1.387 . S
H316 C323 0.950 . S
C317 C315 1.387 . S
C317 C319 1.390 . S
C317 H321 0.950 . S
H318 C314 0.950 . S
C319 C317 1.390 . S
C319 C320 1.387 . S
C319 H322 0.950 . S
C320 C319 1.387 . S
C320 C323 1.387 1_565 S
H321 C317 0.950 . S
H322 C319 0.950 . S
C323 C314 1.390 . S
C323 H316 0.950 . S
C323 C320 1.387 1_545 S
C324 C325 1.387 1_545 S
C324 H328 0.950 . S
C324 C333 1.390 1_455 S
C325 C324 1.387 1_565 S
C325 C327 1.387 . S
H326 C333 0.950 . S
C327 C325 1.387 . S
C327 C329 1.390 1_455 S
C327 H331 0.950 . S
H328 C324 0.950 . S
C329 C327 1.390 1_655 S
C329 C330 1.387 . S
C329 H332 0.950 . S
C330 C329 1.387 . S
C330 C333 1.387 1_565 S
H331 C327 0.950 . S
H332 C329 0.950 . S
C333 C324 1.390 1_655 S
C333 H326 0.950 . S
C333 C330 1.387 1_545 S
C334 C335 1.387 1_565 S
C334 H338 0.950 . S
C334 C343 1.390 . S
C335 C334 1.387 1_545 S
C335 C337 1.387 . S
H336 C343 0.950 . S
C337 C335 1.387 . S
C337 C339 1.390 . S
C337 H341 0.950 . S
H338 C334 0.950 . S
C339 C337 1.390 . S
C339 C340 1.387 . S
C339 H342 0.950 . S
C340 C339 1.387 . S
C340 C343 1.387 1_545 S
H341 C337 0.950 . S
H342 C339 0.950 . S
C343 C334 1.390 . S
C343 H336 0.950 . S
C343 C340 1.387 1_565 S
C344 C345 1.387 . S
C344 H348 0.950 . S
C344 C353 1.390 . S
C345 C344 1.387 . S
C345 C347 1.387 . S
H346 C353 0.950 . S
C347 C345 1.387 . S
C347 C349 1.390 . S
C347 H351 0.950 . S
H348 C344 0.950 . S
C349 C347 1.390 . S
C349 C350 1.387 . S
C349 H352 0.950 . S
C350 C349 1.387 . S
C350 C353 1.387 . S
H351 C347 0.950 . S
H352 C349 0.950 . S
C353 C344 1.390 . S
C353 H346 0.950 . S
C353 C350 1.387 . S
C354 C355 1.387 . S
C354 H358 0.950 . S
C354 C363 1.390 1_455 S
C355 C354 1.387 . S
C355 C357 1.387 . S
H356 C363 0.950 . S
C357 C355 1.387 . S
C357 C359 1.390 1_455 S
C357 H361 0.950 . S
H358 C354 0.950 . S
C359 C357 1.390 1_655 S
C359 C360 1.387 . S
C359 H362 0.950 . S
C360 C359 1.387 . S
C360 C363 1.387 . S
H361 C357 0.950 . S
H362 C359 0.950 . S
C363 C354 1.390 1_655 S
C363 H356 0.950 . S
C363 C360 1.387 . S
C364 C365 1.387 . S
C364 H368 0.950 . S
C364 C373 1.390 . S
C365 C364 1.387 . S
C365 C367 1.387 . S
H366 C373 0.950 . S
C367 C365 1.387 . S
C367 C369 1.390 . S
C367 H371 0.950 . S
H368 C364 0.950 . S
C369 C367 1.390 . S
C369 C370 1.387 . S
C369 H372 0.950 . S
C370 C369 1.387 . S
C370 C373 1.387 . S
H371 C367 0.950 . S
H372 C369 0.950 . S
C373 C364 1.390 . S
C373 H366 0.950 . S
C373 C370 1.387 . S
C374 C375 1.387 . S
C374 H378 0.950 . S
C374 C383 1.390 1_455 S
C375 C374 1.387 . S
C375 C377 1.387 . S
H376 C383 0.950 . S
C377 C375 1.387 . S
C377 C379 1.390 1_455 S
C377 H381 0.950 . S
H378 C374 0.950 . S
C379 C377 1.390 1_655 S
C379 C380 1.387 . S
C379 H382 0.950 . S
C380 C379 1.387 . S
C380 C383 1.387 . S
H381 C377 0.950 . S
H382 C379 0.950 . S
C383 C374 1.390 1_655 S
C383 H376 0.950 . S
C383 C380 1.387 . S
C384 C385 1.387 . S
C384 H388 0.950 . S
C384 C393 1.390 1_455 S
C385 C384 1.387 . S
C385 C387 1.387 . S
H386 C393 0.950 . S
C387 C385 1.387 . S
C387 C389 1.390 1_455 S
C387 H391 0.950 . S
H388 C384 0.950 . S
C389 C387 1.390 1_655 S
C389 C390 1.387 . S
C389 H392 0.950 . S
C390 C389 1.387 . S
C390 C393 1.387 . S
H391 C387 0.950 . S
H392 C389 0.950 . S
C393 C384 1.390 1_655 S
C393 H386 0.950 . S
C393 C390 1.387 . S
C394 C395 1.387 . S
C394 H398 0.950 . S
C394 C403 1.390 . S
C395 C394 1.387 . S
C395 C397 1.387 . S
H396 C403 0.950 . S
C397 C395 1.387 . S
C397 C399 1.390 . S
C397 H401 0.950 . S
H398 C394 0.950 . S
C399 C397 1.390 . S
C399 C400 1.387 . S
C399 H402 0.950 . S
C400 C399 1.387 . S
C400 C403 1.387 . S
H401 C397 0.950 . S
H402 C399 0.950 . S
C403 C394 1.390 . S
C403 H396 0.950 . S
C403 C400 1.387 . S
C404 C405 1.387 . S
C404 H408 0.950 . S
C404 C413 1.390 . S
C405 C404 1.387 . S
C405 C407 1.387 . S
H406 C413 0.950 . S
C407 C405 1.387 . S
C407 C409 1.390 . S
C407 H411 0.950 . S
H408 C404 0.950 . S
C409 C407 1.390 . S
C409 C410 1.387 . S
C409 H412 0.950 . S
C410 C409 1.387 . S
C410 C413 1.387 . S
H411 C407 0.950 . S
H412 C409 0.950 . S
C413 C404 1.390 . S
C413 H406 0.950 . S
C413 C410 1.387 . S
C414 C415 1.387 . S
C414 H418 0.950 . S
C414 C423 1.390 1_455 S
C415 C414 1.387 . S
C415 C417 1.387 . S
H416 C423 0.950 . S
C417 C415 1.387 . S
C417 C419 1.390 1_455 S
C417 H421 0.950 . S
H418 C414 0.950 . S
C419 C417 1.390 1_655 S
C419 C420 1.387 . S
C419 H422 0.950 . S
C420 C419 1.387 . S
C420 C423 1.387 . S
H421 C417 0.950 . S
H422 C419 0.950 . S
C423 C414 1.390 1_655 S
C423 H416 0.950 . S
C423 C420 1.387 . S
C424 C425 1.387 . S
C424 H428 0.950 . S
C424 C433 1.390 1_455 S
C425 C424 1.387 . S
C425 C427 1.387 . S
H426 C433 0.950 . S
C427 C425 1.387 . S
C427 C429 1.390 1_455 S
C427 H431 0.950 . S
H428 C424 0.950 . S
C429 C427 1.390 1_655 S
C429 C430 1.387 . S
C429 H432 0.950 . S
C430 C429 1.387 . S
C430 C433 1.387 . S
H431 C427 0.950 . S
H432 C429 0.950 . S
C433 C424 1.390 1_655 S
C433 H426 0.950 . S
C433 C430 1.387 . S
C434 C435 1.387 . S
C434 H438 0.950 . S
C434 C443 1.390 . S
C435 C434 1.387 . S
C435 C437 1.387 . S
H436 C443 0.950 . S
C437 C435 1.387 . S
C437 C439 1.390 . S
C437 H441 0.950 . S
H438 C434 0.950 . S
C439 C437 1.390 . S
C439 C440 1.387 . S
C439 H442 0.950 . S
C440 C439 1.387 . S
C440 C443 1.387 . S
H441 C437 0.950 . S
H442 C439 0.950 . S
C443 C434 1.390 . S
C443 H436 0.950 . S
C443 C440 1.387 . S
C444 C445 1.387 . S
C444 H448 0.950 . S
C444 C453 1.390 . S
C445 C444 1.387 . S
C445 C447 1.387 . S
H446 C453 0.950 . S
C447 C445 1.387 . S
C447 C449 1.390 . S
C447 H451 0.950 . S
H448 C444 0.950 . S
C449 C447 1.390 . S
C449 C450 1.387 . S
C449 H452 0.950 . S
C450 C449 1.387 . S
C450 C453 1.387 . S
H451 C447 0.950 . S
H452 C449 0.950 . S
C453 C444 1.390 . S
C453 H446 0.950 . S
C453 C450 1.387 . S
C454 C455 1.387 . S
C454 H458 0.950 . S
C454 C463 1.390 1_455 S
C455 C454 1.387 . S
C455 C457 1.387 . S
H456 C463 0.950 . S
C457 C455 1.387 . S
C457 C459 1.390 1_455 S
C457 H461 0.950 . S
H458 C454 0.950 . S
C459 C457 1.390 1_655 S
C459 C460 1.387 . S
C459 H462 0.950 . S
C460 C459 1.387 . S
C460 C463 1.387 . S
H461 C457 0.950 . S
H462 C459 0.950 . S
C463 C454 1.390 1_655 S
C463 H456 0.950 . S
C463 C460 1.387 . S
C464 C465 1.387 . S
C464 H468 0.950 . S
C464 C473 1.390 1_656 S
C465 C464 1.387 . S
C465 C467 1.387 1_565 S
H466 C473 0.950 . S
C467 C465 1.387 1_545 S
C467 C469 1.390 1_656 S
C467 H471 0.950 . S
H468 C464 0.950 . S
C469 C467 1.390 1_454 S
C469 C470 1.387 . S
C469 H472 0.950 . S
C470 C469 1.387 . S
C470 C473 1.387 1_545 S
H471 C467 0.950 . S
H472 C469 0.950 . S
C473 C464 1.390 1_454 S
C473 H466 0.950 . S
C473 C470 1.387 1_565 S
C474 C475 1.387 . S
C474 H478 0.950 . S
C474 C483 1.390 1_556 S
C475 C474 1.387 . S
C475 C477 1.387 1_545 S
H476 C483 0.950 . S
C477 C475 1.387 1_565 S
C477 C479 1.390 1_556 S
C477 H481 0.950 . S
H478 C474 0.950 . S
C479 C477 1.390 1_554 S
C479 C480 1.387 . S
C479 H482 0.950 . S
C480 C479 1.387 . S
C480 C483 1.387 1_565 S
H481 C477 0.950 . S
H482 C479 0.950 . S
C483 C474 1.390 1_554 S
C483 H476 0.950 . S
C483 C480 1.387 1_545 S
C484 C485 1.387 . S
C484 H488 0.950 . S
C484 C493 1.390 . S
C485 C484 1.387 . S
C485 C487 1.387 1_545 S
H486 C493 0.950 . S
C487 C485 1.387 1_565 S
C487 C489 1.390 . S
C487 H491 0.950 . S
H488 C484 0.950 . S
C489 C487 1.390 . S
C489 C490 1.387 . S
C489 H492 0.950 . S
C490 C489 1.387 . S
C490 C493 1.387 1_565 S
H491 C487 0.950 . S
H492 C489 0.950 . S
C493 C484 1.390 . S
C493 H486 0.950 . S
C493 C490 1.387 1_545 S
C494 C495 1.387 1_545 S
C494 H498 0.950 . S
C494 C503 1.390 1_455 S
C495 C494 1.387 1_565 S
C495 C497 1.387 . S
H496 C503 0.950 . S
C497 C495 1.387 . S
C497 C499 1.390 1_455 S
C497 H501 0.950 . S
H498 C494 0.950 . S
C499 C497 1.390 1_655 S
C499 C500 1.387 1_565 S
C499 H502 0.950 . S
C500 C499 1.387 1_545 S
C500 C503 1.387 . S
H501 C497 0.950 . S
H502 C499 0.950 . S
C503 C494 1.390 1_655 S
C503 H496 0.950 . S
C503 C500 1.387 . S
C504 C505 1.387 . S
C504 H508 0.950 . S
C504 C513 1.390 1_554 S
C505 C504 1.387 . S
C505 C507 1.387 . S
H506 C513 0.950 . S
C507 C505 1.387 . S
C507 C509 1.390 1_554 S
C507 H511 0.950 . S
H508 C504 0.950 . S
C509 C507 1.390 1_556 S
C509 C510 1.387 . S
C509 H512 0.950 . S
C510 C509 1.387 . S
C510 C513 1.387 . S
H511 C507 0.950 . S
H512 C509 0.950 . S
C513 C504 1.390 1_556 S
C513 H506 0.950 . S
C513 C510 1.387 . S
C514 C515 1.387 . S
C514 H518 0.950 . S
C514 C523 1.390 1_554 S
C515 C514 1.387 . S
C515 C517 1.387 1_655 S
H516 C523 0.950 . S
C517 C515 1.387 1_455 S
C517 C519 1.390 1_554 S
C517 H521 0.950 . S
H518 C514 0.950 . S
C519 C517 1.390 1_556 S
C519 C520 1.387 . S
C519 H522 0.950 . S
C520 C519 1.387 . S
C520 C523 1.387 1_455 S
H521 C517 0.950 . S
H522 C519 0.950 . S
C523 C514 1.390 1_556 S
C523 H516 0.950 . S
C523 C520 1.387 1_655 S
C524 C525 1.387 . S
C524 H528 0.950 . S
C524 C533 1.390 1_655 S
C525 C524 1.387 . S
C525 C527 1.387 . S
H526 C533 0.950 . S
C527 C525 1.387 . S
C527 C529 1.390 1_655 S
C527 H531 0.950 . S
H528 C524 0.950 . S
C529 C527 1.390 1_455 S
C529 C530 1.387 . S
C529 H532 0.950 . S
C530 C529 1.387 . S
C530 C533 1.387 . S
H531 C527 0.950 . S
H532 C529 0.950 . S
C533 C524 1.390 1_455 S
C533 H526 0.950 . S
C533 C530 1.387 . S
C534 C535 1.387 . S
C534 H538 0.950 . S
C534 C543 1.390 . S
C535 C534 1.387 . S
C535 C537 1.387 . S
H536 C543 0.950 . S
C537 C535 1.387 . S
C537 C539 1.390 . S
C537 H541 0.950 . S
H538 C534 0.950 . S
C539 C537 1.390 . S
C539 C540 1.387 . S
C539 H542 0.950 . S
C540 C539 1.387 . S
C540 C543 1.387 . S
H541 C537 0.950 . S
H542 C539 0.950 . S
C543 C534 1.390 . S
C543 H536 0.950 . S
C543 C540 1.387 . S
C225 C25 1.495 . S
C230 C11 1.495 . S
C235 C39 1.495 . S
C240 C53 1.495 . S
C245 C67 1.494 . S
C250 C81 1.494 . S
C255 C109 1.495 . S
C260 C95 1.495 . S
C265 C137 1.494 . S
C270 C123 1.494 . S
C275 C165 1.494 . S
C280 C151 1.494 . S
C285 C193 1.495 . S
C290 C179 1.495 . S
C295 C221 1.495 . S
C300 C207 1.495 . S
C305 C49 1.321 . S
C310 C7 1.321 . S
C315 C21 1.321 . S
C320 C35 1.321 . S
C325 C105 1.321 . S
C330 C63 1.321 . S
C335 C91 1.321 . S
C340 C77 1.321 . S
C345 C119 1.321 . S
C350 C161 1.321 . S
C355 C147 1.321 . S
C360 C133 1.321 . S
C365 C217 1.321 . S
C370 C175 1.321 . S
C375 C189 1.321 . S
C380 C203 1.321 . S
C385 C8 1.462 . S
C390 C134 1.462 . S
C395 C22 1.462 . S
C400 C120 1.462 . S
C405 C162 1.459 . S
C410 C36 1.459 . S
C415 C148 1.459 . S
C420 C50 1.459 . S
C425 C190 1.462 . S
C430 C64 1.462 . S
C435 C176 1.459 . S
C440 C78 1.459 . S
C445 C92 1.462 . S
C450 C218 1.462 . S
C455 C106 1.459 . S
C460 C204 1.459 . S
C465 C69 1.291 . S
C470 C13 1.291 . S
C475 C83 1.291 . S
C480 C27 1.291 . S
C485 C97 1.291 . S
C490 C41 1.291 . S
C495 C111 1.288 . S
C500 C55 1.288 . S
C505 C125 1.288 . S
C510 C181 1.288 . S
C515 C139 1.291 . S
C520 C195 1.291 . S
C525 C209 1.288 . S
C530 C153 1.288 . S
C535 C223 1.288 . S
C540 C167 1.288 . S
