# Generated by pormake.
# Topology rob, (6)-cn, num edge types: 1
# Building blocks:
#     Node 0, Type 0, BuildingBlock: LEVNOQ01_clean_sbu_1, # of connection points: 6
#     Node 1, Type 0, BuildingBlock: LEVNOQ01_clean_sbu_1, # of connection points: 6
#     Node 2, Type 0, BuildingBlock: LEVNOQ01_clean_sbu_1, # of connection points: 6
#     Node 3, Type 0, BuildingBlock: LEVNOQ01_clean_sbu_1, # of connection points: 6
#     Edge 4, Type (0, 0), BuildingBlock: ZUJKAS_clean_linker_0, # of connection points: 2
#     Edge 5, Type (0, 0), BuildingBlock: ZUJKAS_clean_linker_0, # of connection points: 2
#     Edge 6, Type (0, 0), BuildingBlock: ZUJKAS_clean_linker_0, # of connection points: 2
#     Edge 7, Type (0, 0), BuildingBlock: ZUJKAS_clean_linker_0, # of connection points: 2
#     Edge 8, Type (0, 0), BuildingBlock: ZUJKAS_clean_linker_0, # of connection points: 2
#     Edge 9, Type (0, 0), BuildingBlock: ZUJKAS_clean_linker_0, # of connection points: 2
#     Edge 10, Type (0, 0), BuildingBlock: ZUJKAS_clean_linker_0, # of connection points: 2
#     Edge 11, Type (0, 0), BuildingBlock: ZUJKAS_clean_linker_0, # of connection points: 2
#     Edge 12, Type (0, 0), BuildingBlock: ZUJKAS_clean_linker_0, # of connection points: 2
#     Edge 13, Type (0, 0), BuildingBlock: ZUJKAS_clean_linker_0, # of connection points: 2
#     Edge 14, Type (0, 0), BuildingBlock: ZUJKAS_clean_linker_0, # of connection points: 2
#     Edge 15, Type (0, 0), BuildingBlock: ZUJKAS_clean_linker_0, # of connection points: 2
# Relax obj value: 0.200
# Max RMSD: 0.225
# Mean RMSD: 0.225
data_MOF--net-rob--node1-LEVNOQ01_clean_sbu_1--edge1-ZUJKAS_clean_linker_0
_symmetry_space_group_name_H-M    P1
_symmetry_Int_Tables_number       1
_symmetry_cell_setting            triclinic
loop_
_symmetry_equiv_pos_as_xyz
'x, y, z'
_cell_length_a     19.380947
_cell_length_b     35.402559
_cell_length_c     34.527238
_cell_angle_alpha  106.16131
_cell_angle_beta   90.068026
_cell_angle_gamma 89.985874
loop_
_atom_site_label
_atom_site_type_symbol
_atom_site_fract_x
_atom_site_fract_y
_atom_site_fract_z
_atom_type_partial_charge
O0 O 0.1027 0.30688 0.02603 0.0
Mg1 Mg 0.20981 0.29978 0.03261 0.0
O2 O 0.13068 0.24592 0.01769 0.0
Mg3 Mg 0.23375 0.23775 -0.02096 0.0
O4 O 0.27905 0.30337 -0.01064 0.0
O5 O 0.25197 0.35299 0.04382 0.0
O6 O 0.33121 0.22209 0.93837 0.0
O7 O 0.1739 0.25561 0.92655 0.0
Mg8 Mg 0.18626 0.18387 0.91715 0.0
O9 O 0.1997 0.17109 0.97058 0.0
O10 O 0.27596 0.18768 0.88418 0.0
O11 O 0.09408 0.21132 0.9064 0.0
O12 O 0.17206 0.12677 0.91192 0.0
C13 C 0.28608 0.24534 0.06948 0.0
C14 C 0.08655 0.27342 0.02908 0.0
C15 C 0.28645 0.33979 0.01097 0.0
C16 C 0.33105 0.20306 0.90113 0.0
C17 C 0.1186 0.24431 0.90671 0.0
C18 C 0.18378 0.13533 0.95013 0.0
O19 O 0.24659 0.27504 0.07818 0.0
O20 O 0.29564 0.22646 0.03266 0.0
O21 O 0.5767 0.79164 0.02299 0.0
Mg22 Mg 0.67892 0.80982 0.03887 0.0
O23 O 0.63414 0.73759 0.01573 0.0
Mg24 Mg 0.7332 0.7444 -0.02094 0.0
O25 O 0.74328 0.81296 -0.00604 0.0
O26 O 0.69866 0.86587 0.03859 0.0
O27 O 0.83508 0.75316 0.94384 0.0
O28 O 0.66715 0.74695 0.92476 0.0
Mg29 Mg 0.78813 0.68927 0.92649 0.0
O30 O 0.71974 0.67445 0.96422 0.0
O31 O 0.89196 0.70071 0.94461 0.0
O32 O 0.74667 0.71556 0.88254 0.0
O33 O 0.76843 0.63144 0.91056 0.0
C34 C 0.78612 0.7622 0.07085 0.0
C35 C 0.5786 0.75702 0.02592 0.0
C36 C 0.73875 0.85096 0.00838 0.0
C37 C 0.89127 0.73369 0.9374 0.0
C38 C 0.69216 0.73618 0.88939 0.0
C39 C 0.72789 0.63858 0.94135 0.0
O40 O 0.73846 0.78791 0.08024 0.0
O41 O 0.79742 0.74308 0.03428 0.0
O42 O 0.10685 0.66572 0.40256 0.0
Mg43 Mg 0.20921 0.64623 0.40423 0.0
O44 O 0.13206 0.72673 0.43771 0.0
Mg45 Mg 0.23362 0.72846 0.4747 0.0
O46 O 0.24189 0.66233 0.46197 0.0
O47 O 0.23274 0.5997 0.42776 0.0
O48 O 0.33501 0.72823 0.51113 0.0
O49 O 0.16954 0.72841 0.5312 0.0
Mg50 Mg 0.26764 0.80654 0.54134 0.0
O51 O 0.22466 0.79566 0.48599 0.0
O52 O 0.3712 0.78876 0.53833 0.0
O53 O 0.19658 0.78441 0.57705 0.0
O54 O 0.24467 0.8564 0.525 0.0
C55 C 0.31284 0.70456 0.38465 0.0
C56 C 0.09111 0.70185 0.41501 0.0
C57 C 0.2523 0.62584 0.45993 0.0
C58 C 0.38124 0.7521 0.5297 0.0
C59 C 0.16327 0.75218 0.56636 0.0
C60 C 0.21955 0.83341 0.49227 0.0
O61 O 0.28567 0.67048 0.37293 0.0
O62 O 0.29848 0.72839 0.41882 0.0
O63 O 0.6016 0.17417 0.43651 0.0
Mg64 Mg 0.70891 0.17052 0.42608 0.0
O65 O 0.64364 0.23084 0.43689 0.0
Mg66 Mg 0.74554 0.23335 0.47635 0.0
O67 O 0.77697 0.16607 0.46933 0.0
O68 O 0.73506 0.11464 0.42088 0.0
O69 O 0.84912 0.23577 0.5155 0.0
O70 O 0.68034 0.22793 0.5302 0.0
Mg71 Mg 0.78057 0.29204 0.52433 0.0
O72 O 0.71004 0.30116 0.48442 0.0
O73 O 0.88725 0.29219 0.51222 0.0
O74 O 0.74497 0.27073 0.573 0.0
O75 O 0.74848 0.34763 0.53894 0.0
C76 C 0.79724 0.21808 0.38542 0.0
C77 C 0.59355 0.20661 0.42893 0.0
C78 C 0.77346 0.12835 0.45212 0.0
C79 C 0.89765 0.26106 0.5222 0.0
C80 C 0.69787 0.24493 0.56634 0.0
C81 C 0.7094 0.33723 0.50761 0.0
O82 O 0.75291 0.19057 0.37852 0.0
O83 O 0.81027 0.23765 0.42163 0.0
H84 H 0.71295 0.56505 0.89056 0.0
H85 H 0.63947 0.51218 0.89904 0.0
H86 H 0.57802 0.58415 0.01648 0.0
H87 H 0.65065 0.63794 0.0078 0.0
H88 H 0.63985 0.47114 0.95505 0.0
H89 H 0.39372 0.55256 0.96063 0.0
H90 H 0.47403 0.56996 0.9455 0.0
H91 H 0.45509 0.57729 -0.00192 0.0
C92 C 0.68415 0.56971 0.91836 0.0
C93 C 0.68723 0.60585 0.94846 0.0
C94 C 0.6421 0.53939 0.92309 0.0
C95 C 0.60239 0.54447 0.95802 0.0
C96 C 0.60702 0.58 -0.01118 0.0
H97 H 0.32897 0.41071 0.0576 0.0
H98 H 0.40727 0.45683 0.04028 0.0
C99 C 0.64877 0.6106 -0.01604 0.0
C100 C 0.55607 0.51247 0.96186 0.0
H101 H 0.38801 0.49141 0.97643 0.0
C102 C 0.58469 0.47542 0.95944 0.0
C103 C 0.48405 0.51807 0.967 0.0
C104 C 0.4497 0.55649 0.96756 0.0
C105 C 0.54349 0.44421 0.96373 0.0
C106 C 0.47189 0.45025 0.97014 0.0
C107 C 0.44305 0.48695 0.97146 0.0
C108 C 0.42675 0.42045 -0.02025 0.0
C109 C 0.57703 0.40553 0.96287 0.0
C110 C 0.41204 0.38435 0.95136 0.0
C111 C 0.3669 0.35746 0.96124 0.0
C112 C 0.33566 0.36668 -0.00052 0.0
C113 C 0.3514 0.40274 0.0277 0.0
C114 C 0.39634 0.42923 0.01793 0.0
H115 H 0.63423 0.40763 0.96385 0.0
H116 H 0.55915 0.39519 -0.01129 0.0
H117 H 0.56199 0.38306 0.93472 0.0
H118 H 0.43455 0.37729 0.92151 0.0
H119 H 0.3557 0.32993 0.9389 0.0
H120 H 0.38598 0.64562 0.47404 0.0
H121 H 0.47244 0.60071 0.48792 0.0
H122 H 0.31055 0.53104 0.51935 0.0
H123 H 0.22403 0.5749 0.50354 0.0
H124 H 0.51719 0.56294 0.54246 0.0
H125 H 0.38449 0.45947 0.414 0.0
H126 H 0.36453 0.51123 0.43035 0.0
H127 H 0.32772 0.47814 0.45598 0.0
C128 C 0.36916 0.62189 0.48597 0.0
C129 C 0.29868 0.61333 0.48747 0.0
C130 C 0.41855 0.59599 0.49347 0.0
C131 C 0.39755 0.56166 0.5029 0.0
C132 C 0.32754 0.55671 0.51073 0.0
H133 H 0.63253 0.38524 0.56472 0.0
H134 H 0.55968 0.43941 0.55909 0.0
C135 C 0.2782 0.5821 0.50241 0.0
C136 C 0.44644 0.52854 0.4985 0.0
H137 H 0.4687 0.43145 0.4484 0.0
C138 C 0.50674 0.53424 0.52184 0.0
C139 C 0.43456 0.4916 0.47005 0.0
C140 C 0.37478 0.4848 0.44081 0.0
C141 C 0.55324 0.50324 0.5193 0.0
C142 C 0.53777 0.46533 0.49373 0.0
C143 C 0.47974 0.46027 0.4686 0.0
C144 C 0.57808 0.43021 0.49533 0.0
C145 C 0.6186 0.51143 0.54405 0.0
C146 C 0.60873 0.40515 0.46064 0.0
C147 C 0.64937 0.3732 0.46364 0.0
C148 C 0.65992 0.36649 0.50141 0.0
C149 C 0.62626 0.39039 0.53541 0.0
C150 C 0.58512 0.42155 0.53231 0.0
H151 H 0.63461 0.54265 0.5499 0.0
H152 H 0.60934 0.5058 0.57366 0.0
H153 H 0.66163 0.49232 0.52878 0.0
H154 H 0.60283 0.41095 0.43163 0.0
H155 H 0.67474 0.35497 0.43703 0.0
H156 H 0.11592 0.14192 0.02067 0.0
H157 H 0.05679 0.08732 0.03747 0.0
H158 H 0.1627 0.00463 0.94029 0.0
H159 H 0.22076 0.05896 0.923 0.0
H160 H 0.98142 0.04188 0.95864 0.0
H161 H 0.12889 0.9477 0.03484 0.0
H162 H 0.14467 -0.0 0.04587 0.0
H163 H 0.17206 0.9677 -0.00131 0.0
C164 C 0.12924 0.11201 0.00434 0.0
C165 C 0.17162 0.10442 0.97015 0.0
C166 C 0.09549 0.08088 0.01392 0.0
C167 C 0.10528 0.04212 -0.01011 0.0
C168 C 0.15497 0.03432 0.95931 0.0
H169 H 0.8558 0.83121 0.96333 0.0
H170 H 0.94463 0.87613 0.95192 0.0
C171 C 0.18781 0.06537 0.94937 0.0
C172 C 0.0517 0.01237 -0.01115 0.0
H173 H 0.01722 0.92636 0.01099 0.0
C174 C -0.01107 0.0167 0.97032 0.0
C175 C 0.06309 0.97904 0.00272 0.0
C176 C 0.13069 0.97304 0.02179 0.0
C177 C 0.93637 -0.01124 0.96579 0.0
C178 C 0.94611 0.95627 -0.01853 0.0
C179 C 0.00978 0.95139 -0.00089 0.0
C180 C 0.88906 0.92895 -0.01711 0.0
C181 C 0.87142 -0.00586 0.94372 0.0
C182 C 0.82778 0.94373 0.00302 0.0
C183 C 0.7766 0.91819 0.00866 0.0
C184 C 0.78621 0.87729 -0.00509 0.0
C185 C 0.8464 0.86249 0.97339 0.0
C186 C 0.89753 0.88814 0.96739 0.0
H187 H 0.88184 0.011 0.92159 0.0
H188 H 0.84804 0.96545 0.92752 0.0
H189 H 0.83335 0.01112 0.96576 0.0
H190 H 0.82072 0.97505 0.01603 0.0
H191 H 0.73095 0.93055 0.02555 0.0
H192 H 0.73384 0.05698 0.45752 0.0
H193 H 0.80896 0.00374 0.46419 0.0
H194 H 0.98415 0.08195 0.48126 0.0
H195 H 0.90819 0.13584 0.47621 0.0
H196 H 0.90637 0.97512 0.40979 0.0
H197 H 0.02594 0.02151 0.56145 0.0
H198 H 0.95093 0.04569 0.54849 0.0
H199 H 0.03583 0.05772 0.53444 0.0
C200 C 0.78808 0.06306 0.46403 0.0
C201 C 0.8156 0.10025 0.46615 0.0
C202 C 0.83093 0.03264 0.46767 0.0
C203 C 0.90221 0.03874 0.47296 0.0
C204 C 0.92916 0.07668 0.4778 0.0
H205 H 0.25683 0.89242 0.46127 0.0
H206 H 0.17642 0.93958 0.44602 0.0
C207 C 0.88587 0.10745 0.47489 0.0
C208 C 0.94859 0.00447 0.4683 0.0
H209 H 0.07994 0.96819 0.51309 0.0
C210 C 0.944 0.97346 0.43254 0.0
C211 C -0.00244 0.00233 0.49796 0.0
C212 C 0.00247 0.03341 0.5379 0.0
C213 C -0.0121 0.94071 0.42538 0.0
C214 C 0.0378 0.93915 0.45461 0.0
C215 C 0.0421 0.9699 0.49045 0.0
C216 C 0.08532 0.90556 0.44984 0.0
C217 C 0.9815 0.90831 0.38654 0.0
C218 C 0.06075 0.86972 0.45434 0.0
C219 C 0.1068 0.84259 0.46274 0.0
C220 C 0.17752 0.85122 0.46673 0.0
C221 C 0.20249 0.88502 0.45779 0.0
C222 C 0.15664 0.91203 0.44933 0.0
H223 H 0.94816 0.91698 0.36423 0.0
H224 H 0.03318 0.89994 0.373 0.0
H225 H 0.9586 0.88194 0.39291 0.0
H226 H 0.0058 0.86447 0.45537 0.0
H227 H 0.08637 0.81727 0.47071 0.0
H228 H 0.56355 0.27057 0.40209 0.0
H229 H 0.50462 0.26938 0.33911 0.0
H230 H 0.45237 0.14735 0.32168 0.0
H231 H 0.50851 0.14869 0.38514 0.0
H232 H 0.55085 0.22351 0.26751 0.0
H233 H 0.27624 0.18724 0.28637 0.0
H234 H 0.33426 0.20361 0.32865 0.0
H235 H 0.33686 0.15351 0.29773 0.0
C236 C 0.53729 0.2439 0.38562 0.0
C237 C 0.54143 0.20965 0.39849 0.0
C238 C 0.50412 0.24315 0.34942 0.0
C239 C 0.47451 0.20818 0.32543 0.0
C240 C 0.47394 0.17482 0.33979 0.0
H241 H 0.33556 0.17274 0.07157 0.0
H242 H 0.3882 0.15623 0.13001 0.0
C243 C 0.50628 0.17568 0.37623 0.0
C244 C 0.45106 0.20578 0.28381 0.0
H245 H 0.31112 0.1882 0.221 0.0
C246 C 0.49846 0.2156 0.25736 0.0
C247 C 0.38309 0.1947 0.27021 0.0
C248 C 0.32945 0.18446 0.29728 0.0
C249 C 0.47894 0.21628 0.21842 0.0
C250 C 0.41044 0.2068 0.20553 0.0
C251 C 0.36386 0.19509 0.23103 0.0
C252 C 0.38318 0.21572 0.16905 0.0
C253 C 0.53074 0.22861 0.19172 0.0
C254 C 0.36365 0.25443 0.17188 0.0
C255 C 0.33317 0.26372 0.13918 0.0
C256 C 0.32211 0.23455 0.10267 0.0
C257 C 0.34362 0.19579 0.09933 0.0
C258 C 0.37345 0.18634 0.13257 0.0
H259 H 0.58435 0.22837 0.2031 0.0
H260 H 0.52777 0.20885 0.16051 0.0
H261 H 0.51847 0.25886 0.19042 0.0
H262 H 0.37087 0.27743 0.1998 0.0
H263 H 0.31789 0.29392 0.14261 0.0
H264 H 0.58727 0.6934 0.05609 0.0
H265 H 0.54061 0.68992 0.1206 0.0
H266 H 0.42367 0.79579 0.1303 0.0
H267 H 0.46872 0.79909 0.06546 0.0
H268 H 0.5703 0.75012 0.19025 0.0
H269 H 0.28705 0.72814 0.17016 0.0
H270 H 0.34598 0.71797 0.12807 0.0
H271 H 0.32132 0.76775 0.15297 0.0
C272 C 0.54957 0.71512 0.07109 0.0
C273 C 0.53285 0.74697 0.05593 0.0
C274 C 0.52349 0.7133 0.10821 0.0
C275 C 0.47958 0.74293 0.13049 0.0
C276 C 0.4573 0.77253 0.11357 0.0
H277 H 0.32253 0.77841 0.37544 0.0
H278 H 0.37656 0.79654 0.31888 0.0
C279 C 0.48314 0.77431 0.07637 0.0
C280 C 0.46298 0.74496 0.17287 0.0
H281 H 0.33013 0.74196 0.23658 0.0
C282 C 0.51777 0.74833 0.20041 0.0
C283 C 0.39441 0.74341 0.18618 0.0
C284 C 0.33376 0.73881 0.1578 0.0
C285 C 0.50573 0.74891 0.24066 0.0
C286 C 0.43737 0.74605 0.25345 0.0
C287 C 0.38252 0.7444 0.22649 0.0
C288 C 0.42123 0.73913 0.29265 0.0
C289 C 0.56583 0.75198 0.26914 0.0
C290 C 0.4304 0.70126 0.29703 0.0
C291 C 0.39822 0.69056 0.32854 0.0
C292 C 0.35746 0.71783 0.35647 0.0
C293 C 0.35366 0.75683 0.35421 0.0
C294 C 0.38458 0.76727 0.32207 0.0
H295 H 0.61392 0.76128 0.25687 0.0
H296 H 0.55407 0.77327 0.2987 0.0
H297 H 0.57501 0.72289 0.27448 0.0
H298 H 0.45812 0.67913 0.27438 0.0
H299 H 0.40256 0.66047 0.32997 0.0
H300 H 0.75532 0.75352 0.82702 0.0
H301 H 0.70206 0.75875 0.76462 0.0
H302 H 0.50047 0.74633 0.81246 0.0
H303 H 0.55383 0.74187 0.87581 0.0
H304 H 0.61585 0.68978 0.72227 0.0
H305 H 0.48432 0.83505 0.74995 0.0
H306 H 0.55782 0.82846 0.77968 0.0
H307 H 0.47615 0.80753 0.78651 0.0
C308 C 0.69955 0.75274 0.82455 0.0
C309 C 0.65851 0.74659 0.85568 0.0
C310 C 0.66928 0.75589 0.78906 0.0
C311 C 0.59765 0.75261 0.78403 0.0
C312 C 0.55592 0.74919 0.81608 0.0
H313 H 0.37781 0.68775 0.55802 0.0
H314 H 0.43983 0.68209 0.61754 0.0
C315 C 0.58631 0.74656 0.85206 0.0
C316 C 0.569 0.74701 0.74332 0.0
H317 H 0.48088 0.79281 0.68397 0.0
C318 C 0.5861 0.71219 0.71376 0.0
C319 C 0.5302 0.77633 0.73278 0.0
C320 C 0.51089 0.81411 0.76369 0.0
C321 C 0.56684 0.70626 0.67341 0.0
C322 C 0.52924 0.73591 0.66262 0.0
C323 C 0.51071 0.77039 0.69241 0.0
C324 C 0.50675 0.73181 0.62083 0.0
C325 C 0.58814 0.66883 0.64259 0.0
C326 C 0.527 0.76004 0.60157 0.0
C327 C 0.49181 0.76324 0.5674 0.0
C328 C 0.43558 0.73844 0.55238 0.0
C329 C 0.42139 0.707 0.56862 0.0
C330 C 0.45648 0.70391 0.60293 0.0
H331 H 0.63038 0.65354 0.65397 0.0
H332 H 0.54324 0.64863 0.63537 0.0
H333 H 0.60533 0.67493 0.61426 0.0
H334 H 0.5662 0.78159 0.61486 0.0
H335 H 0.504 0.78756 0.55526 0.0
H336 H 0.6341 0.17602 0.56679 0.0
H337 H 0.58537 0.15888 0.62527 0.0
H338 H 0.63744 0.27435 0.70112 0.0
H339 H 0.68836 0.29097 0.64339 0.0
H340 H 0.67324 0.21774 0.73604 0.0
H341 H 0.4034 0.19414 0.67926 0.0
H342 H 0.46659 0.16376 0.64725 0.0
H343 H 0.46814 0.21613 0.65496 0.0
C344 C 0.63459 0.19776 0.59594 0.0
C345 C 0.66479 0.23484 0.60061 0.0
C346 C 0.60665 0.18799 0.62927 0.0
C347 C 0.60713 0.2155 0.66751 0.0
C348 C 0.63679 0.25261 0.67197 0.0
H349 H 0.42679 0.25946 0.89981 0.0
H350 H 0.50846 0.25669 0.84475 0.0
C351 C 0.66565 0.26211 0.63893 0.0
C352 C 0.57722 0.20615 0.70325 0.0
H353 H 0.42592 0.18446 0.74262 0.0
C354 C 0.61921 0.21023 0.73743 0.0
C355 C 0.50684 0.19614 0.70493 0.0
C356 C 0.45837 0.19258 0.66981 0.0
C357 C 0.5923 0.20557 0.77356 0.0
C358 C 0.52162 0.19678 0.7755 0.0
C359 C 0.48027 0.19118 0.74093 0.0
C360 C 0.48741 0.19571 0.81346 0.0
C361 C 0.63942 0.21039 0.80938 0.0
C362 C 0.45057 0.16205 0.81477 0.0
C363 C 0.40375 0.16377 0.84576 0.0
C364 C 0.39325 0.1991 0.87606 0.0
C365 C 0.43467 0.23182 0.87695 0.0
C366 C 0.48128 0.2302 0.84555 0.0
H367 H 0.69437 0.20597 0.80006 0.0
H368 H 0.63389 0.24065 0.82964 0.0
H369 H 0.62579 0.18936 0.82677 0.0
H370 H 0.4546 0.13521 0.79035 0.0
H371 H 0.3725 0.13811 0.84468 0.0
H372 H 0.8339 0.81634 0.13666 0.0
H373 H 0.88812 0.80428 0.19611 0.0
H374 H 0.88473 0.67945 0.13862 0.0
H375 H 0.8317 0.69145 0.07821 0.0
H376 H 0.80307 0.73134 0.2271 0.0
H377 H 0.0883 0.7353 0.2077 0.0
H378 H 0.03436 0.76705 0.18775 0.0
H379 H 0.03118 0.71493 0.16561 0.0
C380 C 0.84597 0.78638 0.13643 0.0
C381 C 0.82807 0.75475 0.10334 0.0
C382 C 0.8771 0.77959 0.17019 0.0
C383 C 0.88983 0.74107 0.17154 0.0
C384 C 0.87539 0.70938 0.13777 0.0
H385 H 0.97918 0.65995 0.37879 0.0
H386 H 0.91636 0.67236 0.32234 0.0
C387 C 0.84526 0.71624 0.10348 0.0
C388 C 0.90936 0.73451 0.21028 0.0
H389 H 0.04683 0.7349 0.27174 0.0
C390 C 0.85632 0.7317 0.23693 0.0
C391 C 0.97872 0.73547 0.22265 0.0
C392 C 0.03685 0.73823 0.19458 0.0
C393 C 0.87093 0.73077 0.27644 0.0
C394 C 0.9404 0.73233 0.28915 0.0
C395 C -0.00652 0.73434 0.26204 0.0
C396 C 0.96044 0.7301 0.32974 0.0
C397 C 0.81203 0.72926 0.30447 0.0
C398 C 0.00276 0.75943 0.35404 0.0
C399 C 0.03921 0.75225 0.38614 0.0
C400 C 0.03395 0.71558 0.39414 0.0
C401 C 0.98462 0.68838 0.37308 0.0
C402 C 0.94846 0.69548 0.34083 0.0
H403 H 0.76265 0.73879 0.29374 0.0
H404 H 0.80541 0.69858 0.30598 0.0
H405 H 0.8227 0.74813 0.33541 0.0
H406 H 0.01236 0.78644 0.34598 0.0
H407 H 0.07735 0.77353 0.40133 0.0
H408 H 0.79031 0.17669 0.30633 0.0
H409 H 0.83768 0.19441 0.24846 0.0
H410 H 0.92774 0.29905 0.32741 0.0
H411 H 0.88011 0.28157 0.38621 0.0
H412 H 0.80952 0.27831 0.23552 0.0
H413 H 0.08297 0.23142 0.24255 0.0
H414 H 0.01449 0.20772 0.26246 0.0
H415 H 0.0377 0.25743 0.28779 0.0
C416 C 0.82041 0.20343 0.31164 0.0
C417 C 0.83101 0.22785 0.35095 0.0
C418 C 0.84738 0.21348 0.27846 0.0
C419 C 0.88567 0.24805 0.28376 0.0
C420 C 0.89816 0.2722 0.32287 0.0
H421 H 0.01016 0.33261 0.07841 0.0
H422 H 0.95441 0.33014 0.14101 0.0
C423 C 0.87106 0.26213 0.35633 0.0
C424 C 0.91024 0.25867 0.24767 0.0
H425 H 0.04767 0.24763 0.18397 0.0
C426 C 0.86184 0.27226 0.22439 0.0
C427 C 0.97838 0.25056 0.23349 0.0
C428 C 0.03184 0.23596 0.25766 0.0
C429 C 0.87916 0.27641 0.18629 0.0
C430 C 0.94658 0.26667 0.17131 0.0
C431 C -0.00427 0.25463 0.19541 0.0
C432 C 0.96728 0.26736 0.13023 0.0
C433 C 0.82457 0.2895 0.16165 0.0
C434 C -0.00987 0.23261 0.10254 0.0
C435 C 0.02217 0.23388 0.06673 0.0
C436 C 0.03255 0.27005 0.05822 0.0
C437 C 0.00325 0.30425 0.08407 0.0
C438 C 0.97143 0.30296 0.12001 0.0
H439 H 0.77203 0.28849 0.17416 0.0
H440 H 0.83521 0.32023 0.16142 0.0
H441 H 0.82541 0.2708 0.12995 0.0
H442 H 0.98667 0.20476 0.10973 0.0
H443 H 0.04356 0.20696 0.04733 0.0
H444 H 0.95326 0.1992 0.54514 0.0
H445 H 0.0037 0.203 0.61129 0.0
H446 H -0.007 0.32972 0.64269 0.0
H447 H 0.94945 0.32611 0.57595 0.0
H448 H 0.09052 0.31432 0.68124 0.0
H449 H 0.87813 0.21838 0.7031 0.0
H450 H 0.93341 0.19228 0.66308 0.0
H451 H 0.88528 0.23441 0.65821 0.0
C452 C 0.96425 0.22779 0.5657 0.0
C453 C 0.94647 0.26227 0.5555 0.0
C454 C -0.00828 0.23 0.60384 0.0
C455 C -0.00133 0.26662 0.63299 0.0
C456 C 0.98721 0.30102 0.62126 0.0
H457 H -0.01141 0.26038 0.88438 0.0
H458 H 0.95666 0.27555 0.82155 0.0
C459 C 0.9624 0.29888 0.58276 0.0
C460 C 0.01319 0.26941 0.67618 0.0
H461 H 0.96549 0.23238 0.75345 0.0
C462 C 0.06267 0.29659 0.69708 0.0
C463 C 0.97501 0.24771 0.69776 0.0
C464 C 0.91446 0.22199 0.6795 0.0
C465 C 0.07616 0.30189 0.73827 0.0
C466 C 0.04277 0.27741 0.75875 0.0
C467 C -0.00791 0.25097 0.73808 0.0
C468 C 0.06194 0.27669 0.80052 0.0
C469 C 0.12444 0.33463 0.75935 0.0
C470 C 0.13159 0.27403 0.81089 0.0
C471 C 0.14965 0.26739 0.8476 0.0
C472 C 0.09851 0.26146 0.87405 0.0
C473 C 0.02891 0.26522 0.86458 0.0
C474 C 0.01082 0.27351 0.82848 0.0
H475 H 0.12061 0.35975 0.74602 0.0
H476 H 0.11326 0.34561 0.79209 0.0
H477 H 0.17842 0.32383 0.75517 0.0
H478 H 0.17229 0.27467 0.78968 0.0
H479 H 0.2037 0.26363 0.85375 0.0
H480 H 0.1674 0.68404 0.58821 0.0
H481 H 0.12125 0.67445 0.65098 0.0
H482 H 0.0178 0.78659 0.67566 0.0
H483 H 0.06642 0.7969 0.61407 0.0
H484 H 0.11107 0.78306 0.73334 0.0
H485 H 0.94082 0.65156 0.70103 0.0
H486 H 0.02321 0.64387 0.67627 0.0
H487 H 0.96164 0.6763 0.66329 0.0
C488 C 0.1328 0.7059 0.60644 0.0
C489 C 0.12081 0.74138 0.59686 0.0
C490 C 0.10627 0.70036 0.64219 0.0
C491 C 0.06632 0.72991 0.66811 0.0
C492 C 0.0489 0.76356 0.65624 0.0
H493 H 0.8868 0.79191 0.89945 0.0
H494 H 0.94312 0.79089 0.83638 0.0
C495 C 0.07655 0.76945 0.62112 0.0
C496 C 0.053 0.72954 0.71027 0.0
H497 H 0.97099 0.68072 0.7694 0.0
C498 C 0.08035 0.76064 0.74115 0.0
C499 C 0.01415 0.69988 0.72043 0.0
C500 C 0.98273 0.66613 0.68858 0.0
C501 C 0.06831 0.76358 0.78184 0.0
C502 C 0.02771 0.73472 0.79202 0.0
C503 C 0.00242 0.70273 0.76134 0.0
C504 C 0.00483 0.73937 0.8339 0.0
C505 C 0.09838 0.79784 0.81366 0.0
C506 C 0.02322 0.71172 0.8543 0.0
C507 C -0.00805 0.71266 0.89104 0.0
C508 C 0.94056 0.74073 0.90738 0.0
C509 C 0.92658 0.77021 0.88829 0.0
C510 C 0.95838 0.76947 0.85188 0.0
H511 H 0.14282 0.8111 0.80188 0.0
H512 H 0.05823 0.82084 0.82362 0.0
H513 H 0.11555 0.78866 0.84037 0.0
H514 H 0.05926 0.68836 0.84088 0.0
H515 H 0.00409 0.68953 0.90491 0.0
loop_
_geom_bond_atom_site_label_1
_geom_bond_atom_site_label_2
_geom_bond_distance
_geom_bond_site_symmetry_2
_ccdc_geom_bond_type
O0 Mg1 1.990 . S
O0 C14 1.253 . S
Mg1 O0 1.990 . S
Mg1 O4 2.180 . S
Mg1 O5 2.117 . S
Mg1 O19 2.030 . S
O2 Mg3 2.084 . S
O2 C14 1.260 . S
Mg3 O2 2.084 . S
Mg3 O4 2.101 . S
Mg3 O6 2.067 1_554 S
Mg3 O7 2.060 1_554 S
Mg3 O9 2.097 1_554 S
Mg3 O20 2.090 . S
O4 Mg1 2.180 . S
O4 Mg3 2.101 . S
O4 C15 1.279 . S
O5 Mg1 2.117 . S
O5 C15 1.250 . S
O6 Mg3 2.067 1_556 S
O6 C16 1.264 . S
O7 Mg3 2.060 1_556 S
O7 C17 1.260 . S
Mg8 O9 2.180 . S
Mg8 O10 2.030 . S
Mg8 O11 1.990 . S
Mg8 O12 2.117 . S
O9 Mg3 2.097 1_556 S
O9 Mg8 2.180 . S
O9 C18 1.279 . S
O10 Mg8 2.030 . S
O10 C16 1.248 . S
O11 Mg8 1.990 . S
O11 C17 1.253 . S
O12 Mg8 2.117 . S
O12 C18 1.250 . S
C13 O19 1.248 . S
C13 O20 1.264 . S
C14 O0 1.253 . S
C14 O2 1.260 . S
C15 O4 1.279 . S
C15 O5 1.250 . S
C16 O6 1.264 . S
C16 O10 1.248 . S
C17 O7 1.260 . S
C17 O11 1.253 . S
C18 O9 1.279 . S
C18 O12 1.250 . S
O19 Mg1 2.030 . S
O19 C13 1.248 . S
O20 Mg3 2.090 . S
O20 C13 1.264 . S
O21 Mg22 1.990 . S
O21 C35 1.253 . S
Mg22 O21 1.990 . S
Mg22 O25 2.180 . S
Mg22 O26 2.117 . S
Mg22 O40 2.030 . S
O23 Mg24 2.084 . S
O23 C35 1.260 . S
Mg24 O23 2.084 . S
Mg24 O25 2.101 . S
Mg24 O27 2.067 1_554 S
Mg24 O28 2.060 1_554 S
Mg24 O30 2.096 1_554 S
Mg24 O41 2.091 . S
O25 Mg22 2.180 . S
O25 Mg24 2.101 . S
O25 C36 1.279 . S
O26 Mg22 2.117 . S
O26 C36 1.250 . S
O27 Mg24 2.067 1_556 S
O27 C37 1.264 . S
O28 Mg24 2.060 1_556 S
O28 C38 1.260 . S
Mg29 O30 2.180 . S
Mg29 O31 2.030 . S
Mg29 O32 1.990 . S
Mg29 O33 2.117 . S
O30 Mg24 2.096 1_556 S
O30 Mg29 2.180 . S
O30 C39 1.279 . S
O31 Mg29 2.030 . S
O31 C37 1.248 . S
O32 Mg29 1.990 . S
O32 C38 1.253 . S
O33 Mg29 2.117 . S
O33 C39 1.250 . S
C34 O40 1.248 . S
C34 O41 1.264 . S
C35 O21 1.253 . S
C35 O23 1.260 . S
C36 O25 1.279 . S
C36 O26 1.250 . S
C37 O27 1.264 . S
C37 O31 1.248 . S
C38 O28 1.260 . S
C38 O32 1.253 . S
C39 O30 1.279 . S
C39 O33 1.250 . S
O40 Mg22 2.030 . S
O40 C34 1.248 . S
O41 Mg24 2.091 . S
O41 C34 1.264 . S
O42 Mg43 1.990 . S
O42 C56 1.253 . S
Mg43 O42 1.990 . S
Mg43 O46 2.180 . S
Mg43 O47 2.117 . S
Mg43 O61 2.030 . S
O44 Mg45 2.072 . S
O44 C56 1.260 . S
Mg45 O44 2.072 . S
Mg45 O46 2.099 . S
Mg45 O48 2.079 . S
Mg45 O49 2.072 . S
Mg45 O51 2.099 . S
Mg45 O62 2.079 . S
O46 Mg43 2.180 . S
O46 Mg45 2.099 . S
O46 C57 1.279 . S
O47 Mg43 2.117 . S
O47 C57 1.250 . S
O48 Mg45 2.079 . S
O48 C58 1.264 . S
O49 Mg45 2.072 . S
O49 C59 1.260 . S
Mg50 O51 2.180 . S
Mg50 O52 2.030 . S
Mg50 O53 1.990 . S
Mg50 O54 2.117 . S
O51 Mg45 2.099 . S
O51 Mg50 2.180 . S
O51 C60 1.279 . S
O52 Mg50 2.030 . S
O52 C58 1.248 . S
O53 Mg50 1.990 . S
O53 C59 1.253 . S
O54 Mg50 2.117 . S
O54 C60 1.250 . S
C55 O61 1.248 . S
C55 O62 1.264 . S
C56 O42 1.253 . S
C56 O44 1.260 . S
C57 O46 1.279 . S
C57 O47 1.250 . S
C58 O48 1.264 . S
C58 O52 1.248 . S
C59 O49 1.260 . S
C59 O53 1.253 . S
C60 O51 1.279 . S
C60 O54 1.250 . S
O61 Mg43 2.030 . S
O61 C55 1.248 . S
O62 Mg45 2.079 . S
O62 C55 1.264 . S
O63 Mg64 1.990 . S
O63 C77 1.253 . S
Mg64 O63 1.990 . S
Mg64 O67 2.180 . S
Mg64 O68 2.117 . S
Mg64 O82 2.030 . S
O65 Mg66 2.072 . S
O65 C77 1.260 . S
Mg66 O65 2.072 . S
Mg66 O67 2.099 . S
Mg66 O69 2.079 . S
Mg66 O70 2.072 . S
Mg66 O72 2.099 . S
Mg66 O83 2.079 . S
O67 Mg64 2.180 . S
O67 Mg66 2.099 . S
O67 C78 1.279 . S
O68 Mg64 2.117 . S
O68 C78 1.250 . S
O69 Mg66 2.079 . S
O69 C79 1.264 . S
O70 Mg66 2.072 . S
O70 C80 1.260 . S
Mg71 O72 2.180 . S
Mg71 O73 2.030 . S
Mg71 O74 1.990 . S
Mg71 O75 2.117 . S
O72 Mg66 2.099 . S
O72 Mg71 2.180 . S
O72 C81 1.279 . S
O73 Mg71 2.030 . S
O73 C79 1.248 . S
O74 Mg71 1.990 . S
O74 C80 1.253 . S
O75 Mg71 2.117 . S
O75 C81 1.250 . S
C76 O82 1.248 . S
C76 O83 1.264 . S
C77 O63 1.253 . S
C77 O65 1.260 . S
C78 O67 1.279 . S
C78 O68 1.250 . S
C79 O69 1.264 . S
C79 O73 1.248 . S
C80 O70 1.260 . S
C80 O74 1.253 . S
C81 O72 1.279 . S
C81 O75 1.250 . S
O82 Mg64 2.030 . S
O82 C76 1.248 . S
O83 Mg66 2.079 . S
O83 C76 1.264 . S
H84 C92 0.929 . S
H85 C94 0.930 . S
H86 C96 0.930 . S
H87 C99 0.929 . S
H88 C102 0.930 . S
H89 C104 0.960 . S
H90 C104 0.960 . S
H91 C104 0.960 . S
C92 H84 0.929 . S
C92 C93 1.376 . S
C92 C94 1.384 . S
C93 C92 1.376 . S
C93 C99 1.392 1_556 S
C94 H85 0.930 . S
C94 C92 1.384 . S
C94 C95 1.372 . S
C95 C94 1.372 . S
C95 C96 1.400 1_556 S
C95 C100 1.490 . S
C96 H86 0.930 . S
C96 C95 1.400 1_554 S
C96 C99 1.386 . S
H97 C113 0.930 . S
H98 C114 0.931 . S
C99 H87 0.929 . S
C99 C93 1.392 1_554 S
C99 C96 1.386 . S
C100 C95 1.490 . S
C100 C102 1.395 . S
C100 C103 1.403 1_556 S
H101 C107 0.930 . S
C102 H88 0.930 . S
C102 C100 1.395 . S
C102 C105 1.403 . S
C103 C100 1.403 1_554 S
C103 C104 1.524 . S
C103 C107 1.400 . S
C104 H89 0.960 . S
C104 H90 0.960 . S
C104 H91 0.960 . S
C104 C103 1.524 . S
C105 C102 1.403 . S
C105 C106 1.392 . S
C105 C109 1.495 . S
C106 C105 1.392 . S
C106 C107 1.385 1_556 S
C106 C108 1.478 . S
C107 H101 0.930 . S
C107 C103 1.400 . S
C107 C106 1.385 1_554 S
C108 C106 1.478 . S
C108 C110 1.381 . S
C108 C114 1.383 1_556 S
C109 C105 1.495 . S
C109 H115 0.959 . S
C109 H116 0.961 . S
C109 H117 0.960 . S
C110 C108 1.381 . S
C110 C111 1.394 . S
C110 H118 0.930 . S
C111 C110 1.394 . S
C111 C112 1.383 1_556 S
C111 H119 0.929 . S
C112 C111 1.383 1_554 S
C112 C113 1.377 . S
C113 H97 0.930 . S
C113 C112 1.377 . S
C113 C114 1.379 . S
C114 H98 0.931 . S
C114 C108 1.383 1_554 S
C114 C113 1.379 . S
H115 C109 0.959 . S
H116 C109 0.961 . S
H117 C109 0.960 . S
H118 C110 0.930 . S
H119 C111 0.929 . S
H120 C128 0.929 . S
H121 C130 0.930 . S
H122 C132 0.930 . S
H123 C135 0.929 . S
H124 C138 0.930 . S
H125 C140 0.960 . S
H126 C140 0.960 . S
H127 C140 0.960 . S
C128 H120 0.929 . S
C128 C129 1.377 . S
C128 C130 1.384 . S
C129 C128 1.377 . S
C129 C135 1.390 . S
C130 H121 0.930 . S
C130 C128 1.384 . S
C130 C131 1.372 . S
C131 C130 1.372 . S
C131 C132 1.400 . S
C131 C136 1.490 . S
C132 H122 0.930 . S
C132 C131 1.400 . S
C132 C135 1.386 . S
H133 C149 0.930 . S
H134 C150 0.931 . S
C135 H123 0.929 . S
C135 C129 1.390 . S
C135 C132 1.386 . S
C136 C131 1.490 . S
C136 C138 1.395 . S
C136 C139 1.403 . S
H137 C143 0.930 . S
C138 H124 0.930 . S
C138 C136 1.395 . S
C138 C141 1.403 . S
C139 C136 1.403 . S
C139 C140 1.524 . S
C139 C143 1.400 . S
C140 H125 0.960 . S
C140 H126 0.960 . S
C140 H127 0.960 . S
C140 C139 1.524 . S
C141 C138 1.403 . S
C141 C142 1.392 . S
C141 C145 1.495 . S
C142 C141 1.392 . S
C142 C143 1.385 . S
C142 C144 1.478 . S
C143 H137 0.930 . S
C143 C139 1.400 . S
C143 C142 1.385 . S
C144 C142 1.478 . S
C144 C146 1.381 . S
C144 C150 1.383 . S
C145 C141 1.495 . S
C145 H151 0.959 . S
C145 H152 0.961 . S
C145 H153 0.960 . S
C146 C144 1.381 . S
C146 C147 1.394 . S
C146 H154 0.930 . S
C147 C146 1.394 . S
C147 C148 1.383 . S
C147 H155 0.929 . S
C148 C147 1.383 . S
C148 C149 1.377 . S
C149 H133 0.930 . S
C149 C148 1.377 . S
C149 C150 1.379 . S
C150 H134 0.931 . S
C150 C144 1.383 . S
C150 C149 1.379 . S
H151 C145 0.959 . S
H152 C145 0.961 . S
H153 C145 0.960 . S
H154 C146 0.930 . S
H155 C147 0.929 . S
H156 C164 0.929 . S
H157 C166 0.930 . S
H158 C168 0.930 . S
H159 C171 0.929 . S
H160 C174 0.930 . S
H161 C176 0.960 . S
H162 C176 0.960 1_545 S
H163 C176 0.961 1_546 S
C164 H156 0.929 . S
C164 C165 1.377 . S
C164 C166 1.384 . S
C165 C164 1.377 . S
C165 C171 1.390 1_554 S
C166 H157 0.930 . S
C166 C164 1.384 . S
C166 C167 1.372 . S
C167 C166 1.372 . S
C167 C168 1.400 1_554 S
C167 C172 1.490 . S
C168 H158 0.930 . S
C168 C167 1.400 1_556 S
C168 C171 1.386 . S
H169 C185 0.930 . S
H170 C186 0.931 . S
C171 H159 0.929 . S
C171 C165 1.390 1_556 S
C171 C168 1.386 . S
C172 C167 1.490 . S
C172 C174 1.395 1_454 S
C172 C175 1.403 . S
H173 C179 0.930 . S
C174 H160 0.930 . S
C174 C172 1.395 1_656 S
C174 C177 1.403 . S
C175 C172 1.403 . S
C175 C176 1.524 1_545 S
C175 C179 1.400 1_545 S
C176 H161 0.960 . S
C176 H162 0.960 1_565 S
C176 H163 0.961 1_564 S
C176 C175 1.524 1_565 S
C177 C174 1.403 . S
C177 C178 1.392 1_546 S
C177 C181 1.495 . S
C178 C177 1.392 1_564 S
C178 C179 1.385 1_655 S
C178 C180 1.474 . S
C179 H173 0.930 . S
C179 C175 1.400 1_565 S
C179 C178 1.385 1_455 S
C180 C178 1.474 . S
C180 C182 1.398 . S
C180 C186 1.370 1_554 S
C181 C177 1.495 . S
C181 H187 0.959 . S
C181 H188 0.961 1_545 S
C181 H189 0.960 1_556 S
C182 C180 1.398 . S
C182 C183 1.394 . S
C182 H190 0.930 . S
C183 C182 1.394 . S
C183 C184 1.383 . S
C183 H191 0.929 . S
C184 C183 1.383 . S
C184 C185 1.377 1_554 S
C185 H169 0.930 . S
C185 C184 1.377 1_556 S
C185 C186 1.379 . S
C186 H170 0.931 . S
C186 C180 1.370 1_556 S
C186 C185 1.379 . S
H187 C181 0.959 . S
H188 C181 0.961 1_565 S
H189 C181 0.960 1_554 S
H190 C182 0.930 . S
H191 C183 0.929 . S
H192 C200 0.929 . S
H193 C202 0.930 . S
H194 C204 0.930 . S
H195 C207 0.929 . S
H196 C210 0.930 . S
H197 C212 0.960 . S
H198 C212 0.960 1_655 S
H199 C212 0.960 . S
C200 H192 0.929 . S
C200 C201 1.377 . S
C200 C202 1.384 . S
C201 C200 1.377 . S
C201 C207 1.390 . S
C202 H193 0.930 . S
C202 C200 1.384 . S
C202 C203 1.372 . S
C203 C202 1.372 . S
C203 C204 1.400 . S
C203 C208 1.490 . S
C204 H194 0.930 . S
C204 C203 1.400 . S
C204 C207 1.386 . S
H205 C221 0.930 . S
H206 C222 0.931 . S
C207 H195 0.929 . S
C207 C201 1.390 . S
C207 C204 1.386 . S
C208 C203 1.490 . S
C208 C210 1.395 1_545 S
C208 C211 1.403 . S
H209 C215 0.930 . S
C210 H196 0.930 . S
C210 C208 1.395 1_565 S
C210 C213 1.403 . S
C211 C208 1.403 . S
C211 C212 1.524 1_655 S
C211 C215 1.400 1_645 S
C212 H197 0.960 . S
C212 H198 0.960 1_455 S
C212 H199 0.960 . S
C212 C211 1.524 1_455 S
C213 C210 1.403 . S
C213 C214 1.392 1_655 S
C213 C217 1.495 . S
C214 C213 1.392 1_455 S
C214 C215 1.385 . S
C214 C216 1.478 . S
C215 H209 0.930 . S
C215 C211 1.400 1_465 S
C215 C214 1.385 . S
C216 C214 1.478 . S
C216 C218 1.381 . S
C216 C222 1.383 . S
C217 C213 1.495 . S
C217 H223 0.959 . S
C217 H224 0.961 . S
C217 H225 0.960 . S
C218 C216 1.381 . S
C218 C219 1.394 . S
C218 H226 0.930 1_455 S
C219 C218 1.394 . S
C219 C220 1.383 . S
C219 H227 0.929 . S
C220 C219 1.383 . S
C220 C221 1.377 . S
C221 H205 0.930 . S
C221 C220 1.377 . S
C221 C222 1.379 . S
C222 H206 0.931 . S
C222 C216 1.383 . S
C222 C221 1.379 . S
H223 C217 0.959 . S
H224 C217 0.961 . S
H225 C217 0.960 . S
H226 C218 0.930 1_655 S
H227 C219 0.929 . S
H228 C236 0.929 . S
H229 C238 0.930 . S
H230 C240 0.930 . S
H231 C243 0.929 . S
H232 C246 0.930 . S
H233 C248 0.960 . S
H234 C248 0.960 . S
H235 C248 0.960 . S
C236 H228 0.929 . S
C236 C237 1.377 . S
C236 C238 1.384 . S
C237 C236 1.377 . S
C237 C243 1.390 . S
C238 H229 0.930 . S
C238 C236 1.384 . S
C238 C239 1.372 . S
C239 C238 1.372 . S
C239 C240 1.400 . S
C239 C244 1.490 . S
C240 H230 0.930 . S
C240 C239 1.400 . S
C240 C243 1.386 . S
H241 C257 0.930 . S
H242 C258 0.931 . S
C243 H231 0.929 . S
C243 C237 1.390 . S
C243 C240 1.386 . S
C244 C239 1.490 . S
C244 C246 1.395 . S
C244 C247 1.403 . S
H245 C251 0.930 . S
C246 H232 0.930 . S
C246 C244 1.395 . S
C246 C249 1.403 . S
C247 C244 1.403 . S
C247 C248 1.524 . S
C247 C251 1.400 . S
C248 H233 0.960 . S
C248 H234 0.960 . S
C248 H235 0.960 . S
C248 C247 1.524 . S
C249 C246 1.403 . S
C249 C250 1.392 . S
C249 C253 1.495 . S
C250 C249 1.392 . S
C250 C251 1.385 . S
C250 C252 1.478 . S
C251 H245 0.930 . S
C251 C247 1.400 . S
C251 C250 1.385 . S
C252 C250 1.478 . S
C252 C254 1.381 . S
C252 C258 1.383 . S
C253 C249 1.495 . S
C253 H259 0.959 . S
C253 H260 0.961 . S
C253 H261 0.960 . S
C254 C252 1.381 . S
C254 C255 1.394 . S
C254 H262 0.930 . S
C255 C254 1.394 . S
C255 C256 1.383 . S
C255 H263 0.929 . S
C256 C255 1.383 . S
C256 C257 1.377 . S
C257 H241 0.930 . S
C257 C256 1.377 . S
C257 C258 1.379 . S
C258 H242 0.931 . S
C258 C252 1.383 . S
C258 C257 1.379 . S
H259 C253 0.959 . S
H260 C253 0.961 . S
H261 C253 0.960 . S
H262 C254 0.930 . S
H263 C255 0.929 . S
H264 C272 0.929 . S
H265 C274 0.930 . S
H266 C276 0.930 . S
H267 C279 0.929 . S
H268 C282 0.930 . S
H269 C284 0.960 . S
H270 C284 0.960 . S
H271 C284 0.960 . S
C272 H264 0.929 . S
C272 C273 1.377 . S
C272 C274 1.384 . S
C273 C272 1.377 . S
C273 C279 1.390 . S
C274 H265 0.930 . S
C274 C272 1.384 . S
C274 C275 1.372 . S
C275 C274 1.372 . S
C275 C276 1.400 . S
C275 C280 1.490 . S
C276 H266 0.930 . S
C276 C275 1.400 . S
C276 C279 1.386 . S
H277 C293 0.930 . S
H278 C294 0.931 . S
C279 H267 0.929 . S
C279 C273 1.390 . S
C279 C276 1.386 . S
C280 C275 1.490 . S
C280 C282 1.395 . S
C280 C283 1.403 . S
H281 C287 0.930 . S
C282 H268 0.930 . S
C282 C280 1.395 . S
C282 C285 1.403 . S
C283 C280 1.403 . S
C283 C284 1.524 . S
C283 C287 1.400 . S
C284 H269 0.960 . S
C284 H270 0.960 . S
C284 H271 0.960 . S
C284 C283 1.524 . S
C285 C282 1.403 . S
C285 C286 1.392 . S
C285 C289 1.495 . S
C286 C285 1.392 . S
C286 C287 1.385 . S
C286 C288 1.478 . S
C287 H281 0.930 . S
C287 C283 1.400 . S
C287 C286 1.385 . S
C288 C286 1.478 . S
C288 C290 1.381 . S
C288 C294 1.383 . S
C289 C285 1.495 . S
C289 H295 0.959 . S
C289 H296 0.961 . S
C289 H297 0.960 . S
C290 C288 1.381 . S
C290 C291 1.394 . S
C290 H298 0.930 . S
C291 C290 1.394 . S
C291 C292 1.383 . S
C291 H299 0.929 . S
C292 C291 1.383 . S
C292 C293 1.377 . S
C293 H277 0.930 . S
C293 C292 1.377 . S
C293 C294 1.379 . S
C294 H278 0.931 . S
C294 C288 1.383 . S
C294 C293 1.379 . S
H295 C289 0.959 . S
H296 C289 0.961 . S
H297 C289 0.960 . S
H298 C290 0.930 . S
H299 C291 0.929 . S
H300 C308 0.929 . S
H301 C310 0.930 . S
H302 C312 0.930 . S
H303 C315 0.929 . S
H304 C318 0.930 . S
H305 C320 0.960 . S
H306 C320 0.960 . S
H307 C320 0.960 . S
C308 H300 0.929 . S
C308 C309 1.377 . S
C308 C310 1.384 . S
C309 C308 1.377 . S
C309 C315 1.390 . S
C310 H301 0.930 . S
C310 C308 1.384 . S
C310 C311 1.372 . S
C311 C310 1.372 . S
C311 C312 1.400 . S
C311 C316 1.490 . S
C312 H302 0.930 . S
C312 C311 1.400 . S
C312 C315 1.386 . S
H313 C329 0.930 . S
H314 C330 0.931 . S
C315 H303 0.929 . S
C315 C309 1.390 . S
C315 C312 1.386 . S
C316 C311 1.490 . S
C316 C318 1.395 . S
C316 C319 1.403 . S
H317 C323 0.930 . S
C318 H304 0.930 . S
C318 C316 1.395 . S
C318 C321 1.403 . S
C319 C316 1.403 . S
C319 C320 1.524 . S
C319 C323 1.400 . S
C320 H305 0.960 . S
C320 H306 0.960 . S
C320 H307 0.960 . S
C320 C319 1.524 . S
C321 C318 1.403 . S
C321 C322 1.392 . S
C321 C325 1.495 . S
C322 C321 1.392 . S
C322 C323 1.385 . S
C322 C324 1.478 . S
C323 H317 0.930 . S
C323 C319 1.400 . S
C323 C322 1.385 . S
C324 C322 1.478 . S
C324 C326 1.381 . S
C324 C330 1.383 . S
C325 C321 1.495 . S
C325 H331 0.959 . S
C325 H332 0.961 . S
C325 H333 0.960 . S
C326 C324 1.381 . S
C326 C327 1.394 . S
C326 H334 0.930 . S
C327 C326 1.394 . S
C327 C328 1.383 . S
C327 H335 0.929 . S
C328 C327 1.383 . S
C328 C329 1.377 . S
C329 H313 0.930 . S
C329 C328 1.377 . S
C329 C330 1.379 . S
C330 H314 0.931 . S
C330 C324 1.383 . S
C330 C329 1.379 . S
H331 C325 0.959 . S
H332 C325 0.961 . S
H333 C325 0.960 . S
H334 C326 0.930 . S
H335 C327 0.929 . S
H336 C344 0.929 . S
H337 C346 0.930 . S
H338 C348 0.930 . S
H339 C351 0.929 . S
H340 C354 0.930 . S
H341 C356 0.960 . S
H342 C356 0.960 . S
H343 C356 0.960 . S
C344 H336 0.929 . S
C344 C345 1.377 . S
C344 C346 1.384 . S
C345 C344 1.377 . S
C345 C351 1.390 . S
C346 H337 0.930 . S
C346 C344 1.384 . S
C346 C347 1.372 . S
C347 C346 1.372 . S
C347 C348 1.400 . S
C347 C352 1.490 . S
C348 H338 0.930 . S
C348 C347 1.400 . S
C348 C351 1.386 . S
H349 C365 0.930 . S
H350 C366 0.931 . S
C351 H339 0.929 . S
C351 C345 1.390 . S
C351 C348 1.386 . S
C352 C347 1.490 . S
C352 C354 1.395 . S
C352 C355 1.403 . S
H353 C359 0.930 . S
C354 H340 0.930 . S
C354 C352 1.395 . S
C354 C357 1.403 . S
C355 C352 1.403 . S
C355 C356 1.524 . S
C355 C359 1.400 . S
C356 H341 0.960 . S
C356 H342 0.960 . S
C356 H343 0.960 . S
C356 C355 1.524 . S
C357 C354 1.403 . S
C357 C358 1.392 . S
C357 C361 1.495 . S
C358 C357 1.392 . S
C358 C359 1.385 . S
C358 C360 1.478 . S
C359 H353 0.930 . S
C359 C355 1.400 . S
C359 C358 1.385 . S
C360 C358 1.478 . S
C360 C362 1.381 . S
C360 C366 1.383 . S
C361 C357 1.495 . S
C361 H367 0.959 . S
C361 H368 0.961 . S
C361 H369 0.960 . S
C362 C360 1.381 . S
C362 C363 1.394 . S
C362 H370 0.930 . S
C363 C362 1.394 . S
C363 C364 1.383 . S
C363 H371 0.929 . S
C364 C363 1.383 . S
C364 C365 1.377 . S
C365 H349 0.930 . S
C365 C364 1.377 . S
C365 C366 1.379 . S
C366 H350 0.931 . S
C366 C360 1.383 . S
C366 C365 1.379 . S
H367 C361 0.959 . S
H368 C361 0.961 . S
H369 C361 0.960 . S
H370 C362 0.930 . S
H371 C363 0.929 . S
H372 C380 0.929 . S
H373 C382 0.930 . S
H374 C384 0.930 . S
H375 C387 0.929 . S
H376 C390 0.930 . S
H377 C392 0.960 . S
H378 C392 0.960 . S
H379 C392 0.960 . S
C380 H372 0.929 . S
C380 C381 1.377 . S
C380 C382 1.384 . S
C381 C380 1.377 . S
C381 C387 1.390 . S
C382 H373 0.930 . S
C382 C380 1.384 . S
C382 C383 1.372 . S
C383 C382 1.372 . S
C383 C384 1.400 . S
C383 C388 1.490 . S
C384 H374 0.930 . S
C384 C383 1.400 . S
C384 C387 1.386 . S
H385 C401 0.930 . S
H386 C402 0.931 . S
C387 H375 0.929 . S
C387 C381 1.390 . S
C387 C384 1.386 . S
C388 C383 1.490 . S
C388 C390 1.395 . S
C388 C391 1.403 1_655 S
H389 C395 0.930 . S
C390 H376 0.930 . S
C390 C388 1.395 . S
C390 C393 1.403 . S
C391 C388 1.403 1_455 S
C391 C392 1.524 . S
C391 C395 1.400 . S
C392 H377 0.960 . S
C392 H378 0.960 . S
C392 H379 0.960 . S
C392 C391 1.524 . S
C393 C390 1.403 . S
C393 C394 1.392 1_655 S
C393 C397 1.495 . S
C394 C393 1.392 1_455 S
C394 C395 1.385 . S
C394 C396 1.478 . S
C395 H389 0.930 . S
C395 C391 1.400 . S
C395 C394 1.385 . S
C396 C394 1.478 . S
C396 C398 1.381 . S
C396 C402 1.383 . S
C397 C393 1.495 . S
C397 H403 0.959 . S
C397 H404 0.961 . S
C397 H405 0.960 . S
C398 C396 1.381 . S
C398 C399 1.394 . S
C398 H406 0.930 . S
C399 C398 1.394 . S
C399 C400 1.383 . S
C399 H407 0.929 . S
C400 C399 1.383 . S
C400 C401 1.377 . S
C401 H385 0.930 . S
C401 C400 1.377 . S
C401 C402 1.379 . S
C402 H386 0.931 . S
C402 C396 1.383 . S
C402 C401 1.379 . S
H403 C397 0.959 . S
H404 C397 0.961 . S
H405 C397 0.960 . S
H406 C398 0.930 . S
H407 C399 0.929 . S
H408 C416 0.929 . S
H409 C418 0.930 . S
H410 C420 0.930 1_455 S
H411 C423 0.929 . S
H412 C426 0.930 . S
H413 C428 0.960 . S
H414 C428 0.960 . S
H415 C428 0.960 . S
C416 H408 0.929 . S
C416 C417 1.377 . S
C416 C418 1.384 . S
C417 C416 1.377 . S
C417 C423 1.390 . S
C418 H409 0.930 . S
C418 C416 1.384 . S
C418 C419 1.372 . S
C419 C418 1.372 . S
C419 C420 1.400 . S
C419 C424 1.490 . S
C420 H410 0.930 1_655 S
C420 C419 1.400 . S
C420 C423 1.386 . S
H421 C437 0.930 . S
H422 C438 0.931 . S
C423 H411 0.929 . S
C423 C417 1.390 . S
C423 C420 1.386 . S
C424 C419 1.490 . S
C424 C426 1.395 . S
C424 C427 1.403 1_655 S
H425 C431 0.930 . S
C426 H412 0.930 . S
C426 C424 1.395 . S
C426 C429 1.403 . S
C427 C424 1.403 1_455 S
C427 C428 1.524 . S
C427 C431 1.400 . S
C428 H413 0.960 . S
C428 H414 0.960 . S
C428 H415 0.960 . S
C428 C427 1.524 . S
C429 C426 1.403 . S
C429 C430 1.392 1_655 S
C429 C433 1.495 . S
C430 C429 1.392 1_455 S
C430 C431 1.385 . S
C430 C432 1.478 . S
C431 H425 0.930 . S
C431 C427 1.400 . S
C431 C430 1.385 . S
C432 C430 1.478 . S
C432 C434 1.381 . S
C432 C438 1.383 . S
C433 C429 1.495 . S
C433 H439 0.959 . S
C433 H440 0.961 . S
C433 H441 0.960 . S
C434 C432 1.381 . S
C434 C435 1.394 . S
C434 H442 0.930 . S
C435 C434 1.394 . S
C435 C436 1.383 . S
C435 H443 0.929 . S
C436 C435 1.383 . S
C436 C437 1.377 . S
C437 H421 0.930 . S
C437 C436 1.377 . S
C437 C438 1.379 . S
C438 H422 0.931 . S
C438 C432 1.383 . S
C438 C437 1.379 . S
H439 C433 0.959 . S
H440 C433 0.961 . S
H441 C433 0.960 . S
H442 C434 0.930 . S
H443 C435 0.929 . S
H444 C452 0.929 . S
H445 C454 0.930 1_455 S
H446 C456 0.930 . S
H447 C459 0.929 . S
H448 C462 0.930 . S
H449 C464 0.960 . S
H450 C464 0.960 . S
H451 C464 0.960 . S
C452 H444 0.929 . S
C452 C453 1.377 . S
C452 C454 1.384 . S
C453 C452 1.377 . S
C453 C459 1.390 . S
C454 H445 0.930 1_655 S
C454 C452 1.384 . S
C454 C455 1.372 . S
C455 C454 1.372 . S
C455 C456 1.400 . S
C455 C460 1.490 . S
C456 H446 0.930 . S
C456 C455 1.400 . S
C456 C459 1.386 . S
H457 C473 0.930 . S
H458 C474 0.931 . S
C459 H447 0.929 . S
C459 C453 1.390 . S
C459 C456 1.386 . S
C460 C455 1.490 . S
C460 C462 1.395 1_655 S
C460 C463 1.403 . S
H461 C467 0.930 . S
C462 H448 0.930 . S
C462 C460 1.395 1_455 S
C462 C465 1.403 . S
C463 C460 1.403 . S
C463 C464 1.524 . S
C463 C467 1.400 . S
C464 H449 0.960 . S
C464 H450 0.960 . S
C464 H451 0.960 . S
C464 C463 1.524 . S
C465 C462 1.403 . S
C465 C466 1.392 . S
C465 C469 1.495 . S
C466 C465 1.392 . S
C466 C467 1.385 1_455 S
C466 C468 1.478 . S
C467 H461 0.930 . S
C467 C463 1.400 . S
C467 C466 1.385 1_655 S
C468 C466 1.478 . S
C468 C470 1.381 . S
C468 C474 1.383 . S
C469 C465 1.495 . S
C469 H475 0.959 . S
C469 H476 0.961 . S
C469 H477 0.960 . S
C470 C468 1.381 . S
C470 C471 1.394 . S
C470 H478 0.930 . S
C471 C470 1.394 . S
C471 C472 1.383 . S
C471 H479 0.929 . S
C472 C471 1.383 . S
C472 C473 1.377 . S
C473 H457 0.930 . S
C473 C472 1.377 . S
C473 C474 1.379 . S
C474 H458 0.931 . S
C474 C468 1.383 . S
C474 C473 1.379 . S
H475 C469 0.959 . S
H476 C469 0.961 . S
H477 C469 0.960 . S
H478 C470 0.930 . S
H479 C471 0.929 . S
H480 C488 0.929 . S
H481 C490 0.930 . S
H482 C492 0.930 1_655 S
H483 C495 0.929 . S
H484 C498 0.930 . S
H485 C500 0.960 . S
H486 C500 0.960 1_455 S
H487 C500 0.960 . S
C488 H480 0.929 . S
C488 C489 1.377 . S
C488 C490 1.384 . S
C489 C488 1.377 . S
C489 C495 1.390 . S
C490 H481 0.930 . S
C490 C488 1.384 . S
C490 C491 1.372 . S
C491 C490 1.372 . S
C491 C492 1.400 . S
C491 C496 1.490 . S
C492 H482 0.930 1_455 S
C492 C491 1.400 . S
C492 C495 1.386 . S
H493 C509 0.930 . S
H494 C510 0.931 . S
C495 H483 0.929 . S
C495 C489 1.390 . S
C495 C492 1.386 . S
C496 C491 1.490 . S
C496 C498 1.395 . S
C496 C499 1.403 . S
H497 C503 0.930 . S
C498 H484 0.930 . S
C498 C496 1.395 . S
C498 C501 1.403 . S
C499 C496 1.403 . S
C499 C500 1.524 1_455 S
C499 C503 1.400 1_455 S
C500 H485 0.960 . S
C500 H486 0.960 1_655 S
C500 H487 0.960 . S
C500 C499 1.524 1_655 S
C501 C498 1.403 . S
C501 C502 1.392 1_455 S
C501 C505 1.495 . S
C502 C501 1.392 1_655 S
C502 C503 1.385 . S
C502 C504 1.478 . S
C503 H497 0.930 . S
C503 C499 1.400 1_655 S
C503 C502 1.385 . S
C504 C502 1.478 . S
C504 C506 1.381 . S
C504 C510 1.383 . S
C505 C501 1.495 . S
C505 H511 0.959 . S
C505 H512 0.961 . S
C505 H513 0.960 . S
C506 C504 1.381 . S
C506 C507 1.394 . S
C506 H514 0.930 1_655 S
C507 C506 1.394 . S
C507 C508 1.383 . S
C507 H515 0.929 . S
C508 C507 1.383 . S
C508 C509 1.377 . S
C509 H493 0.930 . S
C509 C508 1.377 . S
C509 C510 1.379 . S
C510 H494 0.931 . S
C510 C504 1.383 . S
C510 C509 1.379 . S
H511 C505 0.959 . S
H512 C505 0.961 . S
H513 C505 0.960 . S
H514 C506 0.930 1_455 S
H515 C507 0.929 . S
C93 C39 1.368 . S
C112 C15 1.381 . S
C129 C57 1.368 . S
C148 C81 1.378 . S
C165 C18 1.387 1_554 S
C184 C36 1.396 . S
C201 C78 1.386 . S
C220 C60 1.410 . S
C237 C77 0.847 . S
C256 C13 0.830 . S
C273 C35 0.842 . S
C292 C55 0.880 . S
C309 C38 0.850 . S
C328 C58 0.878 . S
C345 C80 0.854 . S
C364 C16 0.899 . S
C381 C34 0.821 . S
C400 C56 0.880 . S
C417 C76 0.815 . S
C436 C14 0.864 . S
C453 C79 0.852 . S
C472 C17 0.865 . S
C489 C59 0.850 . S
C508 C37 0.880 . S
