# Generated by pormake.
# Topology ums, (4)-cn, num edge types: 1
# Building blocks:
#     Node 0, Type 0, BuildingBlock: QUQFOY_clean_sbu_3, # of connection points: 4
#     Node 1, Type 0, BuildingBlock: QUQFOY_clean_sbu_3, # of connection points: 4
#     Node 2, Type 0, BuildingBlock: QUQFOY_clean_sbu_3, # of connection points: 4
#     Node 3, Type 0, BuildingBlock: QUQFOY_clean_sbu_3, # of connection points: 4
#     Node 4, Type 0, BuildingBlock: QUQFOY_clean_sbu_3, # of connection points: 4
#     Node 5, Type 0, BuildingBlock: QUQFOY_clean_sbu_3, # of connection points: 4
#     Node 6, Type 0, BuildingBlock: QUQFOY_clean_sbu_3, # of connection points: 4
#     Node 7, Type 0, BuildingBlock: QUQFOY_clean_sbu_3, # of connection points: 4
#     Node 8, Type 0, BuildingBlock: QUQFOY_clean_sbu_3, # of connection points: 4
#     Node 9, Type 0, BuildingBlock: QUQFOY_clean_sbu_3, # of connection points: 4
#     Node 10, Type 0, BuildingBlock: QUQFOY_clean_sbu_3, # of connection points: 4
#     Node 11, Type 0, BuildingBlock: QUQFOY_clean_sbu_3, # of connection points: 4
#     Node 12, Type 0, BuildingBlock: QUQFOY_clean_sbu_3, # of connection points: 4
#     Node 13, Type 0, BuildingBlock: QUQFOY_clean_sbu_3, # of connection points: 4
#     Node 14, Type 0, BuildingBlock: QUQFOY_clean_sbu_3, # of connection points: 4
#     Node 15, Type 0, BuildingBlock: QUQFOY_clean_sbu_3, # of connection points: 4
#     Node 16, Type 0, BuildingBlock: QUQFOY_clean_sbu_3, # of connection points: 4
#     Node 17, Type 0, BuildingBlock: QUQFOY_clean_sbu_3, # of connection points: 4
#     Node 18, Type 0, BuildingBlock: QUQFOY_clean_sbu_3, # of connection points: 4
#     Node 19, Type 0, BuildingBlock: QUQFOY_clean_sbu_3, # of connection points: 4
#     Node 20, Type 0, BuildingBlock: QUQFOY_clean_sbu_3, # of connection points: 4
#     Node 21, Type 0, BuildingBlock: QUQFOY_clean_sbu_3, # of connection points: 4
#     Node 22, Type 0, BuildingBlock: QUQFOY_clean_sbu_3, # of connection points: 4
#     Node 23, Type 0, BuildingBlock: QUQFOY_clean_sbu_3, # of connection points: 4
#     Node 24, Type 0, BuildingBlock: QUQFOY_clean_sbu_3, # of connection points: 4
#     Node 25, Type 0, BuildingBlock: QUQFOY_clean_sbu_3, # of connection points: 4
#     Node 26, Type 0, BuildingBlock: QUQFOY_clean_sbu_3, # of connection points: 4
#     Node 27, Type 0, BuildingBlock: QUQFOY_clean_sbu_3, # of connection points: 4
#     Node 28, Type 0, BuildingBlock: QUQFOY_clean_sbu_3, # of connection points: 4
#     Node 29, Type 0, BuildingBlock: QUQFOY_clean_sbu_3, # of connection points: 4
#     Node 30, Type 0, BuildingBlock: QUQFOY_clean_sbu_3, # of connection points: 4
#     Node 31, Type 0, BuildingBlock: QUQFOY_clean_sbu_3, # of connection points: 4
#     Node 32, Type 0, BuildingBlock: QUQFOY_clean_sbu_3, # of connection points: 4
#     Node 33, Type 0, BuildingBlock: QUQFOY_clean_sbu_3, # of connection points: 4
#     Node 34, Type 0, BuildingBlock: QUQFOY_clean_sbu_3, # of connection points: 4
#     Node 35, Type 0, BuildingBlock: QUQFOY_clean_sbu_3, # of connection points: 4
#     Edge 36, Type (0, 0), BuildingBlock: AJUNOK_clean_linker_0, # of connection points: 2
#     Edge 37, Type (0, 0), BuildingBlock: AJUNOK_clean_linker_0, # of connection points: 2
#     Edge 38, Type (0, 0), BuildingBlock: AJUNOK_clean_linker_0, # of connection points: 2
#     Edge 39, Type (0, 0), BuildingBlock: AJUNOK_clean_linker_0, # of connection points: 2
#     Edge 40, Type (0, 0), BuildingBlock: AJUNOK_clean_linker_0, # of connection points: 2
#     Edge 41, Type (0, 0), BuildingBlock: AJUNOK_clean_linker_0, # of connection points: 2
#     Edge 42, Type (0, 0), BuildingBlock: AJUNOK_clean_linker_0, # of connection points: 2
#     Edge 43, Type (0, 0), BuildingBlock: AJUNOK_clean_linker_0, # of connection points: 2
#     Edge 44, Type (0, 0), BuildingBlock: AJUNOK_clean_linker_0, # of connection points: 2
#     Edge 45, Type (0, 0), BuildingBlock: AJUNOK_clean_linker_0, # of connection points: 2
#     Edge 46, Type (0, 0), BuildingBlock: AJUNOK_clean_linker_0, # of connection points: 2
#     Edge 47, Type (0, 0), BuildingBlock: AJUNOK_clean_linker_0, # of connection points: 2
#     Edge 48, Type (0, 0), BuildingBlock: AJUNOK_clean_linker_0, # of connection points: 2
#     Edge 49, Type (0, 0), BuildingBlock: AJUNOK_clean_linker_0, # of connection points: 2
#     Edge 50, Type (0, 0), BuildingBlock: AJUNOK_clean_linker_0, # of connection points: 2
#     Edge 51, Type (0, 0), BuildingBlock: AJUNOK_clean_linker_0, # of connection points: 2
#     Edge 52, Type (0, 0), BuildingBlock: AJUNOK_clean_linker_0, # of connection points: 2
#     Edge 53, Type (0, 0), BuildingBlock: AJUNOK_clean_linker_0, # of connection points: 2
#     Edge 54, Type (0, 0), BuildingBlock: AJUNOK_clean_linker_0, # of connection points: 2
#     Edge 55, Type (0, 0), BuildingBlock: AJUNOK_clean_linker_0, # of connection points: 2
#     Edge 56, Type (0, 0), BuildingBlock: AJUNOK_clean_linker_0, # of connection points: 2
#     Edge 57, Type (0, 0), BuildingBlock: AJUNOK_clean_linker_0, # of connection points: 2
#     Edge 58, Type (0, 0), BuildingBlock: AJUNOK_clean_linker_0, # of connection points: 2
#     Edge 59, Type (0, 0), BuildingBlock: AJUNOK_clean_linker_0, # of connection points: 2
#     Edge 60, Type (0, 0), BuildingBlock: AJUNOK_clean_linker_0, # of connection points: 2
#     Edge 61, Type (0, 0), BuildingBlock: AJUNOK_clean_linker_0, # of connection points: 2
#     Edge 62, Type (0, 0), BuildingBlock: AJUNOK_clean_linker_0, # of connection points: 2
#     Edge 63, Type (0, 0), BuildingBlock: AJUNOK_clean_linker_0, # of connection points: 2
#     Edge 64, Type (0, 0), BuildingBlock: AJUNOK_clean_linker_0, # of connection points: 2
#     Edge 65, Type (0, 0), BuildingBlock: AJUNOK_clean_linker_0, # of connection points: 2
#     Edge 66, Type (0, 0), BuildingBlock: AJUNOK_clean_linker_0, # of connection points: 2
#     Edge 67, Type (0, 0), BuildingBlock: AJUNOK_clean_linker_0, # of connection points: 2
#     Edge 68, Type (0, 0), BuildingBlock: AJUNOK_clean_linker_0, # of connection points: 2
#     Edge 69, Type (0, 0), BuildingBlock: AJUNOK_clean_linker_0, # of connection points: 2
#     Edge 70, Type (0, 0), BuildingBlock: AJUNOK_clean_linker_0, # of connection points: 2
#     Edge 71, Type (0, 0), BuildingBlock: AJUNOK_clean_linker_0, # of connection points: 2
#     Edge 72, Type (0, 0), BuildingBlock: AJUNOK_clean_linker_0, # of connection points: 2
#     Edge 73, Type (0, 0), BuildingBlock: AJUNOK_clean_linker_0, # of connection points: 2
#     Edge 74, Type (0, 0), BuildingBlock: AJUNOK_clean_linker_0, # of connection points: 2
#     Edge 75, Type (0, 0), BuildingBlock: AJUNOK_clean_linker_0, # of connection points: 2
#     Edge 76, Type (0, 0), BuildingBlock: AJUNOK_clean_linker_0, # of connection points: 2
#     Edge 77, Type (0, 0), BuildingBlock: AJUNOK_clean_linker_0, # of connection points: 2
#     Edge 78, Type (0, 0), BuildingBlock: AJUNOK_clean_linker_0, # of connection points: 2
#     Edge 79, Type (0, 0), BuildingBlock: AJUNOK_clean_linker_0, # of connection points: 2
#     Edge 80, Type (0, 0), BuildingBlock: AJUNOK_clean_linker_0, # of connection points: 2
#     Edge 81, Type (0, 0), BuildingBlock: AJUNOK_clean_linker_0, # of connection points: 2
#     Edge 82, Type (0, 0), BuildingBlock: AJUNOK_clean_linker_0, # of connection points: 2
#     Edge 83, Type (0, 0), BuildingBlock: AJUNOK_clean_linker_0, # of connection points: 2
#     Edge 84, Type (0, 0), BuildingBlock: AJUNOK_clean_linker_0, # of connection points: 2
#     Edge 85, Type (0, 0), BuildingBlock: AJUNOK_clean_linker_0, # of connection points: 2
#     Edge 86, Type (0, 0), BuildingBlock: AJUNOK_clean_linker_0, # of connection points: 2
#     Edge 87, Type (0, 0), BuildingBlock: AJUNOK_clean_linker_0, # of connection points: 2
#     Edge 88, Type (0, 0), BuildingBlock: AJUNOK_clean_linker_0, # of connection points: 2
#     Edge 89, Type (0, 0), BuildingBlock: AJUNOK_clean_linker_0, # of connection points: 2
#     Edge 90, Type (0, 0), BuildingBlock: AJUNOK_clean_linker_0, # of connection points: 2
#     Edge 91, Type (0, 0), BuildingBlock: AJUNOK_clean_linker_0, # of connection points: 2
#     Edge 92, Type (0, 0), BuildingBlock: AJUNOK_clean_linker_0, # of connection points: 2
#     Edge 93, Type (0, 0), BuildingBlock: AJUNOK_clean_linker_0, # of connection points: 2
#     Edge 94, Type (0, 0), BuildingBlock: AJUNOK_clean_linker_0, # of connection points: 2
#     Edge 95, Type (0, 0), BuildingBlock: AJUNOK_clean_linker_0, # of connection points: 2
#     Edge 96, Type (0, 0), BuildingBlock: AJUNOK_clean_linker_0, # of connection points: 2
#     Edge 97, Type (0, 0), BuildingBlock: AJUNOK_clean_linker_0, # of connection points: 2
#     Edge 98, Type (0, 0), BuildingBlock: AJUNOK_clean_linker_0, # of connection points: 2
#     Edge 99, Type (0, 0), BuildingBlock: AJUNOK_clean_linker_0, # of connection points: 2
#     Edge 100, Type (0, 0), BuildingBlock: AJUNOK_clean_linker_0, # of connection points: 2
#     Edge 101, Type (0, 0), BuildingBlock: AJUNOK_clean_linker_0, # of connection points: 2
#     Edge 102, Type (0, 0), BuildingBlock: AJUNOK_clean_linker_0, # of connection points: 2
#     Edge 103, Type (0, 0), BuildingBlock: AJUNOK_clean_linker_0, # of connection points: 2
#     Edge 104, Type (0, 0), BuildingBlock: AJUNOK_clean_linker_0, # of connection points: 2
#     Edge 105, Type (0, 0), BuildingBlock: AJUNOK_clean_linker_0, # of connection points: 2
#     Edge 106, Type (0, 0), BuildingBlock: AJUNOK_clean_linker_0, # of connection points: 2
#     Edge 107, Type (0, 0), BuildingBlock: AJUNOK_clean_linker_0, # of connection points: 2
# Relax obj value: 0.189
# Max RMSD: 0.144
# Mean RMSD: 0.143
data_MOF--net-ums--node1-QUQFOY_clean_sbu_3--edge1-AJUNOK_clean_linker_0
_symmetry_space_group_name_H-M    P1
_symmetry_Int_Tables_number       1
_symmetry_cell_setting            triclinic
loop_
_symmetry_equiv_pos_as_xyz
'x, y, z'
_cell_length_a     77.844783
_cell_length_b     77.737986
_cell_length_c     17.72537
_cell_angle_alpha  90.069724
_cell_angle_beta   89.894827
_cell_angle_gamma 119.87155
loop_
_atom_site_label
_atom_site_type_symbol
_atom_site_fract_x
_atom_site_fract_y
_atom_site_fract_z
_atom_type_partial_charge
C0 C 0.19498 0.30364 0.21183 0.0
O1 O 0.1891 0.31075 0.2638 0.0
Cd2 Cd 0.16225 0.28964 0.34629 0.0
O3 O 0.189 0.28512 0.20978 0.0
Cd4 Cd 0.16859 0.25448 0.28394 0.0
C5 C 0.13133 0.25876 0.2061 0.0
O6 O 0.16962 0.267 0.40965 0.0
O7 O 0.14539 0.23753 0.38688 0.0
O8 O 0.19456 0.24632 0.30255 0.0
C9 C 0.15463 0.2514 0.43428 0.0
O10 O 0.13559 0.27263 0.25363 0.0
C11 C 0.18672 0.23101 0.26091 0.0
O12 O 0.14117 0.24968 0.20432 0.0
O13 O 0.17031 0.22646 0.22969 0.0
C14 C 0.67876 0.88926 0.20154 0.0
O15 O 0.67091 0.87678 0.25478 0.0
Cd16 Cd 0.69152 0.86888 0.3321 0.0
O17 O 0.69742 0.90077 0.19972 0.0
Cd18 Cd 0.728 0.91016 0.27104 0.0
C19 C 0.71975 0.86849 0.18132 0.0
O20 O 0.71667 0.89726 0.39642 0.0
O21 O 0.74549 0.90192 0.36395 0.0
O22 O 0.73706 0.94429 0.29556 0.0
C23 C 0.73221 0.8967 0.41439 0.0
O24 O 0.70627 0.85911 0.23039 0.0
C25 C 0.75222 0.95167 0.25307 0.0
O26 O 0.73004 0.88737 0.18279 0.0
O27 O 0.75615 0.93975 0.21812 0.0
C28 C 0.08673 0.79521 0.12408 0.0
O29 O 0.09389 0.81346 0.13669 0.0
Cd30 Cd 0.06784 0.81398 0.21404 0.0
O31 O 0.07063 0.78361 0.1569 0.0
Cd32 Cd 0.06395 0.80922 0.21572 0.0
C33 C 0.07748 0.84525 0.10885 0.0
O34 O 0.07577 0.81022 0.34354 0.0
O35 O 0.09052 0.83915 0.29523 0.0
O36 O 0.03186 0.78226 0.25088 0.0
C37 C 0.08797 0.8284 0.35245 0.0
O38 O 0.07746 0.84887 0.17846 0.0
C39 C 0.02269 0.7919 0.24807 0.0
O40 O 0.0708 0.82733 0.09062 0.0
O41 O 0.03271 0.81004 0.22892 0.0
C42 C 0.3031 0.19645 0.24583 0.0
O43 O 0.30757 0.18697 0.19877 0.0
Cd44 Cd 0.28401 0.15903 0.12749 0.0
O45 O 0.2852 0.19252 0.2527 0.0
Cd46 Cd 0.25248 0.17009 0.19395 0.0
C47 C 0.25488 0.132 0.27674 0.0
O48 O 0.26226 0.16803 0.06673 0.0
O49 O 0.23279 0.14534 0.09759 0.0
O50 O 0.24351 0.19527 0.16877 0.0
C51 C 0.24594 0.15326 0.04668 0.0
O52 O 0.26755 0.13415 0.22659 0.0
C53 C 0.22953 0.18883 0.21662 0.0
O54 O 0.2475 0.14339 0.27853 0.0
O55 O 0.22631 0.17377 0.2553 0.0
C56 C 0.78455 0.09946 0.26204 0.0
O57 O 0.79078 0.11308 0.21258 0.0
Cd58 Cd 0.81792 0.11976 0.13007 0.0
O59 O 0.79066 0.087 0.26224 0.0
Cd60 Cd 0.81194 0.07791 0.18803 0.0
C61 C 0.84906 0.11936 0.26787 0.0
O62 O 0.81057 0.09002 0.06415 0.0
O63 O 0.83472 0.08438 0.0833 0.0
O64 O 0.78673 0.04364 0.16798 0.0
C65 C 0.82542 0.08939 0.0377 0.0
O66 O 0.84465 0.12929 0.22256 0.0
C67 C 0.7948 0.03644 0.20985 0.0
O68 O 0.83933 0.10046 0.26764 0.0
O69 O 0.81101 0.04852 0.24173 0.0
C70 C 0.87434 0.682 0.32964 0.0
O71 O 0.86272 0.67304 0.27504 0.0
Cd72 Cd 0.85628 0.69237 0.1851 0.0
O73 O 0.88554 0.70073 0.32779 0.0
Cd74 Cd 0.89612 0.72961 0.2443 0.0
C75 C 0.85419 0.72404 0.31841 0.0
O76 O 0.88601 0.71505 0.11996 0.0
O77 O 0.89084 0.74474 0.13471 0.0
O78 O 0.92829 0.73302 0.25122 0.0
C79 C 0.88666 0.7303 0.09073 0.0
O80 O 0.8454 0.70935 0.27353 0.0
C81 C 0.93737 0.75131 0.26831 0.0
O82 O 0.87303 0.7343 0.32012 0.0
O83 O 0.9271 0.75983 0.27498 0.0
C84 C 0.78143 0.67392 0.8216 0.0
O85 O 0.78705 0.66725 0.76721 0.0
Cd86 Cd 0.81227 0.68911 0.68053 0.0
O87 O 0.78648 0.69222 0.82415 0.0
Cd88 Cd 0.80422 0.72258 0.74652 0.0
C89 C 0.84342 0.72093 0.81702 0.0
O90 O 0.80222 0.71014 0.61943 0.0
O91 O 0.82528 0.74024 0.64077 0.0
O92 O 0.776 0.72764 0.74849 0.0
C93 C 0.81619 0.72635 0.59354 0.0
O94 O 0.83962 0.70711 0.7698 0.0
C95 C 0.78558 0.74532 0.7732 0.0
O96 O 0.83262 0.72894 0.82101 0.0
O97 O 0.80381 0.75213 0.78796 0.0
C98 C 0.29283 0.09482 0.77987 0.0
O99 O 0.30123 0.107 0.72618 0.0
Cd100 Cd 0.28143 0.11378 0.64064 0.0
O101 O 0.27419 0.083 0.77877 0.0
Cd102 Cd 0.24519 0.07254 0.69452 0.0
C103 C 0.24892 0.11285 0.7777 0.0
O104 O 0.25956 0.08488 0.57081 0.0
O105 O 0.23019 0.08028 0.58978 0.0
O106 O 0.24009 0.03917 0.69211 0.0
C107 C 0.24451 0.08513 0.54451 0.0
O108 O 0.26333 0.12252 0.73234 0.0
C109 C 0.22186 0.03078 0.70975 0.0
O110 O 0.23949 0.09396 0.77738 0.0
O111 O 0.21451 0.04193 0.72163 0.0
C112 C 0.88414 0.19575 0.76445 0.0
O113 O 0.87208 0.1917 0.71017 0.0
Cd114 Cd 0.86543 0.1649 0.62574 0.0
O115 O 0.89566 0.18853 0.766 0.0
Cd116 Cd 0.90605 0.16879 0.68777 0.0
C117 C 0.86405 0.13317 0.76665 0.0
O118 O 0.89514 0.17144 0.56245 0.0
O119 O 0.89984 0.14669 0.5814 0.0
O120 O 0.93949 0.19651 0.68946 0.0
C121 C 0.89523 0.1563 0.53582 0.0
O122 O 0.85509 0.13822 0.71916 0.0
C123 C 0.94746 0.18668 0.71283 0.0
O124 O 0.88291 0.14198 0.76815 0.0
O125 O 0.93602 0.16828 0.72501 0.0
C126 C 0.68815 0.78531 0.64992 0.0
O127 O 0.68556 0.7782 0.71582 0.0
Cd128 Cd 0.71494 0.80859 0.76145 0.0
O129 O 0.70374 0.80173 0.63884 0.0
Cd130 Cd 0.72688 0.81472 0.75628 0.0
C131 C 0.73034 0.8475 0.66272 0.0
O132 O 0.70973 0.81359 0.88299 0.0
O133 O 0.73738 0.8399 0.85747 0.0
O134 O 0.72804 0.78412 0.77407 0.0
C135 C 0.72344 0.83043 0.90442 0.0
O136 O 0.71403 0.83662 0.69604 0.0
C137 C 0.74681 0.79253 0.77115 0.0
O138 O 0.74396 0.84332 0.67267 0.0
O139 O 0.7562 0.81117 0.76067 0.0
C140 C 0.18343 0.87819 0.72371 0.0
O141 O 0.1733 0.86531 0.77331 0.0
Cd142 Cd 0.14241 0.86164 0.8152 0.0
O143 O 0.1791 0.89147 0.70625 0.0
Cd144 Cd 0.15575 0.90299 0.74547 0.0
C145 C 0.12574 0.8644 0.63775 0.0
O146 O 0.14615 0.8911 0.87385 0.0
O147 O 0.1249 0.89517 0.80953 0.0
O148 O 0.18353 0.93584 0.76914 0.0
C149 C 0.13004 0.89151 0.87263 0.0
O150 O 0.12445 0.85391 0.69499 0.0
C151 C 0.17674 0.94492 0.73082 0.0
O152 O 0.13679 0.88317 0.63944 0.0
O153 O 0.16021 0.93439 0.69803 0.0
C154 C 0.09589 0.29954 0.71042 0.0
O155 O 0.1083 0.30737 0.76372 0.0
Cd156 Cd 0.1149 0.28696 0.8464 0.0
O157 O 0.08424 0.28084 0.70862 0.0
Cd158 Cd 0.07409 0.25062 0.78605 0.0
C159 C 0.11566 0.25619 0.70538 0.0
O160 O 0.08511 0.26457 0.91051 0.0
O161 O 0.08042 0.23506 0.89389 0.0
O162 O 0.04102 0.24587 0.78515 0.0
C163 C 0.08493 0.24946 0.93853 0.0
O164 O 0.1248 0.27024 0.75259 0.0
C165 C 0.03255 0.22799 0.76256 0.0
O166 O 0.09679 0.24637 0.70441 0.0
O167 O 0.04354 0.22046 0.75058 0.0
C168 C 0.85414 0.63535 0.6025 0.0
O169 O 0.84846 0.64173 0.65768 0.0
Cd170 Cd 0.82366 0.61891 0.74371 0.0
O171 O 0.84951 0.61718 0.59941 0.0
Cd172 Cd 0.83296 0.58609 0.67313 0.0
C173 C 0.79351 0.58758 0.60279 0.0
O174 O 0.83495 0.59836 0.80017 0.0
O175 O 0.81316 0.56766 0.78136 0.0
O176 O 0.86294 0.58419 0.66125 0.0
C177 C 0.82159 0.58199 0.82737 0.0
O178 O 0.79691 0.60085 0.65211 0.0
C179 C 0.85439 0.56663 0.63517 0.0
O180 O 0.80446 0.57973 0.59818 0.0
O181 O 0.83568 0.55801 0.62738 0.0
C182 C 0.35969 0.23525 0.48577 0.0
O183 O 0.35455 0.23805 0.55049 0.0
Cd184 Cd 0.38419 0.23956 0.60632 0.0
O185 O 0.37647 0.23647 0.48048 0.0
Cd186 Cd 0.39829 0.24627 0.60071 0.0
C187 C 0.39775 0.21297 0.51646 0.0
O188 O 0.38098 0.23225 0.73037 0.0
O189 O 0.4087 0.23336 0.70657 0.0
O190 O 0.40161 0.27904 0.60795 0.0
C191 C 0.39485 0.22947 0.75334 0.0
O192 O 0.38199 0.20927 0.55069 0.0
C193 C 0.42036 0.2884 0.60138 0.0
O194 O 0.4123 0.23046 0.52193 0.0
O195 O 0.42882 0.27808 0.59534 0.0
C196 C 0.7597 0.12042 0.53508 0.0
O197 O 0.77175 0.12339 0.58843 0.0
Cd198 Cd 0.77947 0.14971 0.67705 0.0
O199 O 0.74867 0.12819 0.53733 0.0
Cd200 Cd 0.73932 0.14781 0.62019 0.0
C201 C 0.78177 0.18313 0.54186 0.0
O202 O 0.75019 0.14357 0.74321 0.0
O203 O 0.74606 0.16887 0.72996 0.0
O204 O 0.70572 0.12054 0.61745 0.0
C205 C 0.75042 0.15856 0.77292 0.0
O206 O 0.79052 0.17726 0.58702 0.0
C207 C 0.69798 0.13081 0.59697 0.0
O208 O 0.76293 0.17491 0.54171 0.0
O209 O 0.70963 0.14928 0.58682 0.0
C210 C 0.96776 0.5282 0.60086 0.0
O211 O 0.97357 0.52074 0.54993 0.0
Cd212 Cd 0.95017 0.49335 0.47418 0.0
O213 O 0.94962 0.52359 0.60461 0.0
Cd214 Cd 0.91783 0.50432 0.53702 0.0
C215 C 0.91999 0.46674 0.62364 0.0
O216 O 0.9288 0.50252 0.41059 0.0
O217 O 0.89834 0.48153 0.43727 0.0
O218 O 0.91443 0.53367 0.53497 0.0
C219 C 0.91215 0.48844 0.38873 0.0
O220 O 0.93293 0.46887 0.57467 0.0
C221 C 0.89734 0.52529 0.5652 0.0
O222 O 0.91237 0.47792 0.62315 0.0
O223 O 0.88974 0.50701 0.58156 0.0
C224 C 0.45691 0.44023 0.6038 0.0
O225 O 0.46352 0.45315 0.55165 0.0
Cd226 Cd 0.48964 0.45688 0.46851 0.0
O227 O 0.46201 0.42702 0.60687 0.0
Cd228 Cd 0.48139 0.4152 0.5348 0.0
C229 C 0.52004 0.45629 0.60858 0.0
O230 O 0.4798 0.4258 0.40746 0.0
O231 O 0.50239 0.41806 0.42865 0.0
O232 O 0.45303 0.38211 0.53867 0.0
C233 C 0.49368 0.42336 0.38159 0.0
O234 O 0.51659 0.46623 0.55985 0.0
C235 C 0.46234 0.37401 0.56609 0.0
O236 O 0.50923 0.4375 0.61213 0.0
O237 O 0.48066 0.38526 0.57973 0.0
C238 C 0.547 0.02059 0.59392 0.0
O239 O 0.53425 0.01365 0.54132 0.0
Cd240 Cd 0.52962 0.03526 0.45766 0.0
O241 O 0.55977 0.03901 0.59588 0.0
Cd242 Cd 0.57152 0.06978 0.52076 0.0
C243 C 0.53054 0.06691 0.59736 0.0
O244 O 0.56038 0.05651 0.39575 0.0
O245 O 0.56743 0.08681 0.41302 0.0
O246 O 0.6042 0.07349 0.52311 0.0
C247 C 0.5621 0.07234 0.36797 0.0
O248 O 0.52064 0.053 0.5504 0.0
C249 C 0.61295 0.0912 0.54756 0.0
O250 O 0.54937 0.07546 0.59932 0.0
O251 O 0.60228 0.09906 0.56014 0.0
C252 C 0.45881 0.02485 0.10438 0.0
O253 O 0.46137 0.01625 0.04807 0.0
Cd254 Cd 0.48683 0.0366 0.95877 0.0
O255 O 0.46568 0.0435 0.10356 0.0
Cd256 Cd 0.48243 0.07292 0.02166 0.0
C257 C 0.51914 0.06787 0.0965 0.0
O258 O 0.47945 0.05936 0.89623 0.0
O259 O 0.50357 0.0892 0.91433 0.0
O260 O 0.45292 0.07556 0.02717 0.0
C261 C 0.49411 0.07488 0.86899 0.0
O262 O 0.51394 0.05372 0.04944 0.0
C263 C 0.4616 0.09354 0.04869 0.0
O264 O 0.51015 0.0778 0.09905 0.0
O265 O 0.48027 0.10205 0.0583 0.0
C266 C 0.9499 0.41847 0.15808 0.0
O267 O 0.95346 0.41487 0.09198 0.0
Cd268 Cd 0.92306 0.41351 0.04545 0.0
O269 O 0.93347 0.41777 0.16862 0.0
Cd270 Cd 0.90977 0.40699 0.0527 0.0
C271 C 0.90919 0.43932 0.13889 0.0
O272 O 0.9259 0.42084 0.92151 0.0
O273 O 0.89836 0.41973 0.94817 0.0
O274 O 0.90718 0.37448 0.04454 0.0
C275 C 0.91193 0.4236 0.90006 0.0
O276 O 0.92505 0.44356 0.10416 0.0
C277 C 0.88852 0.36472 0.05367 0.0
O278 O 0.895 0.42166 0.13321 0.0
O279 O 0.87972 0.37469 0.06114 0.0
C280 C 0.55326 0.52562 0.1181 0.0
O281 O 0.54199 0.52329 0.06263 0.0
Cd282 Cd 0.5353 0.49757 0.9726 0.0
O283 O 0.56429 0.51784 0.11724 0.0
Cd284 Cd 0.57499 0.49927 0.0342 0.0
C285 C 0.53219 0.46347 0.10639 0.0
O286 O 0.56546 0.50474 0.91081 0.0
O287 O 0.56972 0.47946 0.9214 0.0
O288 O 0.60833 0.52652 0.04502 0.0
C289 C 0.56569 0.49017 0.87932 0.0
O290 O 0.52365 0.46968 0.06162 0.0
C291 C 0.61581 0.51612 0.06697 0.0
O292 O 0.55099 0.4716 0.10784 0.0
O293 O 0.60415 0.49753 0.07312 0.0
C294 C 0.34105 0.1223 0.04622 0.0
O295 O 0.33438 0.1292 0.0961 0.0
Cd296 Cd 0.35598 0.15712 0.17362 0.0
O297 O 0.35947 0.12798 0.04365 0.0
Cd298 Cd 0.39039 0.14919 0.11469 0.0
C299 C 0.38611 0.18557 0.02797 0.0
O300 O 0.37841 0.14997 0.24065 0.0
O301 O 0.40823 0.1728 0.21411 0.0
O302 O 0.3972 0.12199 0.1207 0.0
C303 C 0.39448 0.16485 0.26267 0.0
O304 O 0.37263 0.18254 0.07574 0.0
C305 C 0.41456 0.1318 0.0932 0.0
O306 O 0.39459 0.17517 0.02895 0.0
O307 O 0.42052 0.14969 0.0747 0.0
C308 C 0.85935 0.21713 0.03776 0.0
O309 O 0.85544 0.20465 0.09047 0.0
Cd310 Cd 0.82892 0.19758 0.17772 0.0
O311 O 0.85203 0.22856 0.03909 0.0
Cd312 Cd 0.83189 0.23792 0.11856 0.0
C313 C 0.79611 0.19551 0.04162 0.0
O314 O 0.83506 0.22705 0.24353 0.0
O315 O 0.81028 0.23179 0.22608 0.0
O316 O 0.85906 0.27162 0.1166 0.0
C317 C 0.82007 0.22726 0.27103 0.0
O318 O 0.80144 0.18649 0.08774 0.0
C319 C 0.849 0.27921 0.09192 0.0
O320 O 0.80487 0.2144 0.04041 0.0
O321 O 0.83069 0.26742 0.0796 0.0
C322 C 0.76168 0.62698 0.0929 0.0
O323 O 0.77375 0.63578 0.1465 0.0
Cd324 Cd 0.78042 0.61632 0.23489 0.0
O325 O 0.75046 0.60825 0.09441 0.0
Cd326 Cd 0.7404 0.57882 0.17468 0.0
C327 C 0.7829 0.58515 0.1003 0.0
O328 O 0.75043 0.59345 0.29864 0.0
O329 O 0.74548 0.56368 0.28582 0.0
O330 O 0.70744 0.57384 0.16762 0.0
C331 C 0.74983 0.57835 0.32887 0.0
O332 O 0.79168 0.59979 0.14538 0.0
C333 C 0.69938 0.55611 0.14361 0.0
O334 O 0.76406 0.57484 0.09892 0.0
O335 O 0.71053 0.54863 0.13486 0.0
C336 C 0.52558 0.97305 0.86406 0.0
O337 O 0.52212 0.98139 0.91904 0.0
Cd338 Cd 0.4969 0.96117 0.00888 0.0
O339 O 0.5191 0.95444 0.86501 0.0
Cd340 Cd 0.50173 0.925 0.94748 0.0
C341 C 0.46413 0.92892 0.87492 0.0
O342 O 0.50585 0.93953 0.07139 0.0
O343 O 0.48173 0.90949 0.05866 0.0
O344 O 0.53047 0.92115 0.93918 0.0
C345 C 0.49172 0.9242 0.10178 0.0
O346 O 0.46928 0.94343 0.92028 0.0
C347 C 0.52112 0.90311 0.91858 0.0
O348 O 0.47352 0.91941 0.87277 0.0
O349 O 0.50243 0.89507 0.91147 0.0
C350 C 0.0165 0.55342 0.86649 0.0
O351 O 0.00788 0.54128 0.92011 0.0
Cd352 Cd 0.02725 0.5343 0.00704 0.0
O353 O 0.03517 0.56505 0.86795 0.0
Cd354 Cd 0.06386 0.57526 0.95328 0.0
C355 C 0.05987 0.5345 0.87226 0.0
O356 O 0.049 0.56339 0.07639 0.0
O357 O 0.07843 0.56781 0.06056 0.0
O358 O 0.06861 0.60847 0.95496 0.0
C359 C 0.06393 0.56328 0.10464 0.0
O360 O 0.04525 0.52501 0.91693 0.0
C361 C 0.08684 0.61703 0.93711 0.0
O362 O 0.06951 0.55339 0.8724 0.0
O363 O 0.09437 0.60602 0.92558 0.0
C364 C 0.42963 0.46182 0.87071 0.0
O365 O 0.44118 0.46498 0.92604 0.0
Cd366 Cd 0.44729 0.49129 0.01218 0.0
O367 O 0.41798 0.46888 0.87084 0.0
Cd368 Cd 0.40633 0.48699 0.95219 0.0
C369 C 0.4477 0.52303 0.87265 0.0
O370 O 0.41752 0.48412 0.07633 0.0
O371 O 0.41249 0.50876 0.05972 0.0
O372 O 0.37354 0.45829 0.94967 0.0
C373 C 0.41734 0.49911 0.10413 0.0
O374 O 0.45689 0.51793 0.91899 0.0
C375 C 0.3648 0.46755 0.92825 0.0
O376 O 0.42884 0.51413 0.87194 0.0
O377 O 0.37552 0.48614 0.91756 0.0
C378 C 0.63025 0.86173 0.93621 0.0
O379 O 0.63729 0.85536 0.88573 0.0
Cd380 Cd 0.61583 0.8276 0.80677 0.0
O381 O 0.61182 0.85597 0.93758 0.0
Cd382 Cd 0.5815 0.83618 0.8622 0.0
C383 C 0.58392 0.79915 0.94992 0.0
O384 O 0.59384 0.83476 0.73804 0.0
O385 O 0.56357 0.81265 0.76292 0.0
O386 O 0.5788 0.86552 0.84989 0.0
C387 C 0.5777 0.81998 0.71571 0.0
O388 O 0.59765 0.80231 0.90314 0.0
C389 C 0.56144 0.85793 0.87721 0.0
O390 O 0.57562 0.80973 0.94894 0.0
O391 O 0.55318 0.83984 0.89741 0.0
C392 C 0.1297 0.77346 0.9142 0.0
O393 O 0.14101 0.78658 0.86727 0.0
Cd394 Cd 0.16881 0.78784 0.80662 0.0
O395 O 0.13155 0.75831 0.92703 0.0
Cd396 Cd 0.1524 0.74433 0.88043 0.0
C397 C 0.18949 0.78344 0.97204 0.0
O398 O 0.1565 0.75576 0.75267 0.0
O399 O 0.17699 0.74645 0.7871 0.0
O400 O 0.12305 0.7116 0.87466 0.0
C401 C 0.17044 0.75265 0.73461 0.0
O402 O 0.19013 0.7943 0.91705 0.0
C403 C 0.13105 0.70281 0.90727 0.0
O404 O 0.17688 0.76498 0.97318 0.0
O405 O 0.14881 0.71351 0.92944 0.0
C406 C 0.21777 0.35095 0.94223 0.0
O407 O 0.20545 0.34231 0.88921 0.0
Cd408 Cd 0.19766 0.36164 0.80438 0.0
O409 O 0.22894 0.3697 0.94135 0.0
Cd410 Cd 0.23808 0.39906 0.86114 0.0
C411 C 0.19616 0.39248 0.94255 0.0
O412 O 0.22643 0.38517 0.73643 0.0
O413 O 0.23086 0.4145 0.75673 0.0
O414 O 0.27171 0.40527 0.85853 0.0
C415 C 0.22615 0.40031 0.71086 0.0
O416 O 0.18703 0.378 0.89701 0.0
C417 C 0.27959 0.42304 0.88214 0.0
O418 O 0.21502 0.4027 0.94249 0.0
O419 O 0.26801 0.42978 0.89632 0.0
C420 C 0.11815 0.34703 0.44106 0.0
O421 O 0.12298 0.33921 0.38822 0.0
Cd422 Cd 0.14955 0.35998 0.30383 0.0
O423 O 0.1243 0.36558 0.44053 0.0
Cd424 Cd 0.14309 0.39547 0.3614 0.0
C425 C 0.18021 0.39183 0.44283 0.0
O426 O 0.14192 0.38201 0.23662 0.0
O427 O 0.16539 0.41199 0.257 0.0
O428 O 0.11441 0.39991 0.3595 0.0
C429 C 0.15665 0.39771 0.21098 0.0
O430 O 0.17602 0.37764 0.39686 0.0
C431 C 0.12361 0.41781 0.38197 0.0
O432 O 0.17033 0.40088 0.44299 0.0
O433 O 0.142 0.42532 0.39576 0.0
C434 C 0.62307 0.75253 0.43877 0.0
O435 O 0.60916 0.73472 0.43777 0.0
Cd436 Cd 0.58666 0.74463 0.37331 0.0
O437 O 0.61958 0.765 0.40728 0.0
Cd438 Cd 0.58267 0.74365 0.36922 0.0
C439 C 0.57871 0.77223 0.46718 0.0
O440 O 0.59155 0.75235 0.23923 0.0
O441 O 0.56545 0.7531 0.27478 0.0
O442 O 0.57119 0.70937 0.32351 0.0
C443 C 0.57754 0.7555 0.22198 0.0
O444 O 0.59468 0.7772 0.43267 0.0
C445 C 0.56453 0.70085 0.38625 0.0
O446 O 0.56496 0.75461 0.45706 0.0
O447 O 0.56659 0.71193 0.442 0.0
C448 C 0.22858 0.85988 0.50987 0.0
O449 O 0.23223 0.8675 0.4446 0.0
Cd450 Cd 0.23881 0.84155 0.39686 0.0
O451 O 0.23149 0.84543 0.51996 0.0
Cd452 Cd 0.24579 0.83603 0.40389 0.0
C453 C 0.21821 0.80092 0.48875 0.0
O454 O 0.23099 0.83627 0.27293 0.0
O455 O 0.23337 0.81072 0.30311 0.0
O456 O 0.27642 0.86798 0.39303 0.0
C457 C 0.22882 0.81958 0.25372 0.0
O458 O 0.21154 0.8105 0.45332 0.0
C459 C 0.28772 0.86062 0.39864 0.0
O460 O 0.23667 0.80744 0.48483 0.0
O461 O 0.27943 0.84192 0.40622 0.0
C462 C 0.00797 0.45458 0.39651 0.0
O463 O 0.0029 0.46238 0.44869 0.0
Cd464 Cd 0.02633 0.48948 0.52389 0.0
O465 O 0.02605 0.45919 0.38899 0.0
Cd466 Cd 0.05847 0.47985 0.45305 0.0
C467 C 0.05494 0.5175 0.37418 0.0
O468 O 0.04798 0.4799 0.5816 0.0
O469 O 0.07756 0.50289 0.55468 0.0
O470 O 0.06323 0.45128 0.45242 0.0
C471 C 0.06415 0.49447 0.6042 0.0
O472 O 0.04256 0.5149 0.42624 0.0
C473 C 0.08055 0.46038 0.42433 0.0
O474 O 0.06274 0.5065 0.36993 0.0
O475 O 0.08751 0.47859 0.40826 0.0
C476 C 0.52711 0.54805 0.38537 0.0
O477 O 0.51933 0.53462 0.43537 0.0
Cd478 Cd 0.49269 0.53116 0.51483 0.0
O479 O 0.52286 0.56188 0.38265 0.0
Cd480 Cd 0.50336 0.57407 0.45142 0.0
C481 C 0.46423 0.53418 0.37217 0.0
O482 O 0.50224 0.5619 0.57784 0.0
O483 O 0.48041 0.57042 0.5518 0.0
O484 O 0.531 0.60751 0.46746 0.0
C485 C 0.48807 0.5643 0.60042 0.0
O486 O 0.46688 0.5235 0.42007 0.0
C487 C 0.52381 0.61558 0.42548 0.0
O488 O 0.47564 0.55291 0.37051 0.0
O489 O 0.50703 0.60432 0.39567 0.0
C490 C 0.43892 0.97804 0.37677 0.0
O491 O 0.45146 0.98489 0.43008 0.0
Cd492 Cd 0.45559 0.96307 0.51502 0.0
O493 O 0.42617 0.95964 0.37436 0.0
Cd494 Cd 0.41447 0.92893 0.44814 0.0
C495 C 0.45601 0.93243 0.37463 0.0
O496 O 0.4247 0.94116 0.57525 0.0
O497 O 0.41786 0.91107 0.55372 0.0
O498 O 0.38179 0.9251 0.44517 0.0
C499 C 0.42279 0.92503 0.60087 0.0
O500 O 0.46548 0.94587 0.42368 0.0
C501 C 0.37332 0.9076 0.41866 0.0
O502 O 0.43719 0.92389 0.37061 0.0
O503 O 0.38418 0.89999 0.40524 0.0
C504 C 0.21446 0.20356 0.29987 0.0
C505 C 0.21771 0.19862 0.22704 0.0
C506 C 0.20434 0.21408 0.31044 0.0
C507 C 0.19655 0.21928 0.24871 0.0
H508 H 0.2203 0.19981 0.34867 0.0
H509 H 0.20253 0.21812 0.36723 0.0
S510 S 0.20036 0.20894 0.0472 0.0
N511 N 0.21225 0.19946 0.09251 0.0
N512 N 0.19232 0.21835 0.11278 0.0
C513 C 0.19918 0.21388 0.1759 0.0
C514 C 0.21003 0.20377 0.16495 0.0
C515 C 0.77829 0.00199 0.1599 0.0
C516 C 0.78536 0.01495 0.22194 0.0
C517 C 0.76824 0.98138 0.17033 0.0
C518 C 0.76436 0.97322 0.24318 0.0
H519 H 0.78052 0.00783 0.10303 0.0
H520 H 0.76286 0.9718 0.12131 0.0
S521 S 0.7798 0.00083 0.42374 0.0
N522 N 0.78834 0.01827 0.35825 0.0
N523 N 0.7685 0.97947 0.37805 0.0
C524 C 0.77139 0.98601 0.30556 0.0
C525 C 0.78218 0.00695 0.29487 0.0
C526 C 0.96996 0.78238 0.2542 0.0
C527 C 0.95912 0.76225 0.27447 0.0
C528 C -0.00934 0.79213 0.24824 0.0
C529 C 0.00116 0.78209 0.26288 0.0
H530 H 0.96236 0.79038 0.23931 0.0
H531 H -0.00163 0.80743 0.22948 0.0
S532 S 0.97964 0.73011 0.32997 0.0
N533 N 0.96037 0.73322 0.31739 0.0
N534 N -0.00079 0.75149 0.30718 0.0
C535 C -0.0095 0.7623 0.28806 0.0
C536 C 0.96948 0.75239 0.29358 0.0
C537 C 0.75543 0.74875 0.77131 0.0
C538 C 0.77608 0.75764 0.77978 0.0
C539 C 0.7461 0.76014 0.77043 0.0
C540 C 0.75706 0.78091 0.77723 0.0
H541 H 0.74637 0.73285 0.76406 0.0
H542 H 0.7302 0.7526 0.76245 0.0
S543 S 0.8114 0.81141 0.80552 0.0
N544 N 0.80715 0.78843 0.79898 0.0
N545 N 0.78958 0.80989 0.79672 0.0
C546 C 0.77766 0.79 0.78789 0.0
C547 C 0.78717 0.77835 0.78943 0.0
C548 C 0.21925 -0.00214 0.73026 0.0
C549 C 0.20986 0.00897 0.71574 0.0
C550 C 0.20836 0.97716 0.73555 0.0
C551 C 0.18773 0.96676 0.72488 0.0
H552 H 0.23514 0.00522 0.73831 0.0
H553 H 0.21623 0.96924 0.7472 0.0
S554 S 0.15606 0.98888 0.68492 0.0
N555 N 0.1787 0.00809 0.69108 0.0
N556 N 0.15825 0.96908 0.69934 0.0
C557 C 0.17814 0.97766 0.70983 0.0
C558 C 0.18919 -0.00121 0.70581 0.0
C559 C 0.00049 0.22723 0.74383 0.0
C560 C 0.01089 0.21681 0.74989 0.0
C561 C 0.98005 0.21731 0.73155 0.0
C562 C 0.96908 0.19652 0.72586 0.0
H563 H 0.00822 0.24327 0.74791 0.0
H564 H 0.97278 0.22607 0.72707 0.0
S565 S 0.98916 0.16219 0.73854 0.0
N566 N 0.0087 0.18448 0.7494 0.0
N567 N 0.9701 0.16575 0.72732 0.0
C568 C 0.97922 0.18584 0.73232 0.0
C569 C 0.00017 0.196 0.74396 0.0
C570 C 0.85585 0.53575 0.61125 0.0
C571 C 0.86566 0.55656 0.6157 0.0
C572 C 0.86624 0.52578 0.59496 0.0
C573 C 0.88677 0.53627 0.58125 0.0
H574 H 0.84006 0.52703 0.62159 0.0
H575 H 0.85807 0.50972 0.59282 0.0
S576 S 0.91929 0.591 0.58378 0.0
N577 N 0.89702 0.5874 0.60388 0.0
N578 N 0.91651 0.56868 0.57215 0.0
C579 C 0.89672 0.55712 0.58435 0.0
C580 C 0.88618 0.56726 0.60194 0.0
C581 C 0.42129 0.32069 0.58587 0.0
C582 C 0.43157 0.31031 0.59729 0.0
C583 C 0.4314 0.34129 0.5769 0.0
C584 C 0.4522 0.35238 0.57976 0.0
H585 H 0.40527 0.31283 0.58214 0.0
H586 H 0.42279 0.34853 0.56706 0.0
S587 S 0.4861 0.33245 0.61241 0.0
N588 N 0.46373 0.31272 0.61372 0.0
N589 N 0.48277 0.35154 0.59752 0.0
C590 C 0.46269 0.34228 0.59322 0.0
C591 C 0.45237 0.32122 0.60173 0.0
C592 C 0.66512 0.10068 0.5764 0.0
C593 C 0.67637 0.1214 0.58466 0.0
C594 C 0.64468 0.09116 0.5643 0.0
C595 C 0.63458 0.10192 0.56095 0.0
H596 H 0.67216 0.09168 0.57856 0.0
H597 H 0.63673 0.07517 0.55799 0.0
S598 S 0.6571 0.15649 0.58039 0.0
N599 N 0.67592 0.15246 0.58909 0.0
N600 N 0.63734 0.13448 0.56727 0.0
C601 C 0.64558 0.12265 0.56975 0.0
C602 C 0.66651 0.13241 0.58125 0.0
C603 C 0.42958 0.09266 0.07088 0.0
C604 C 0.45025 0.10387 0.06162 0.0
C605 C 0.41824 0.10186 0.0818 0.0
C606 C 0.42708 0.12263 0.08271 0.0
H607 H 0.42203 0.0766 0.07002 0.0
H608 H 0.40236 0.09257 0.08858 0.0
S609 S 0.48072 0.1588 0.06169 0.0
N610 N 0.47919 0.13689 0.05504 0.0
N611 N 0.45781 0.15423 0.07448 0.0
C612 C 0.44775 0.13407 0.07365 0.0
C613 C 0.45936 0.12468 0.0635 0.0
C614 C 0.8792 0.31243 0.07883 0.0
C615 C 0.85841 0.30082 0.07864 0.0
C616 C 0.88872 0.33298 0.0689 0.0
C617 C 0.87785 0.34283 0.05915 0.0
H618 H 0.88828 0.30563 0.08702 0.0
H619 H 0.90476 0.34123 0.07041 0.0
S620 S 0.82306 0.31923 0.0517 0.0
N621 N 0.82719 0.3006 0.06555 0.0
N622 N 0.84512 0.33936 0.04761 0.0
C623 C 0.85704 0.3314 0.05767 0.0
C624 C 0.84731 0.31038 0.06716 0.0
C625 C 0.64785 0.5462 0.09764 0.0
C626 C 0.63706 0.52557 0.0863 0.0
C627 C 0.66789 0.55578 0.1168 0.0
C628 C 0.67807 0.54518 0.12457 0.0
H629 H 0.64074 0.55509 0.09232 0.0
H630 H 0.67549 0.57171 0.12485 0.0
S631 S 0.65669 0.49088 0.10036 0.0
N632 N 0.63799 0.49474 0.08425 0.0
N633 N 0.6759 0.51287 0.11945 0.0
C634 C 0.66754 0.52453 0.11309 0.0
C635 C 0.64697 0.5147 0.09428 0.0
C636 C 0.52111 0.87105 0.9083 0.0
C637 C 0.53156 0.8919 0.90519 0.0
C638 C 0.53089 0.86016 0.89928 0.0
C639 C 0.55141 0.86972 0.88568 0.0
H640 H 0.50531 0.86308 0.9192 0.0
H641 H 0.52227 0.84414 0.90289 0.0
S642 S 0.5854 0.92407 0.86929 0.0
N643 N 0.56345 0.92169 0.88575 0.0
N644 N 0.5818 0.90128 0.86797 0.0
C645 C 0.56196 0.89056 0.88104 0.0
C646 C 0.55205 0.90164 0.89105 0.0
C647 C 0.08882 0.64979 0.91952 0.0
C648 C 0.09858 0.63885 0.93012 0.0
C649 C 0.09945 0.67046 0.91242 0.0
C650 C 0.12024 0.68103 0.91702 0.0
H651 H 0.07281 0.64231 0.91572 0.0
H652 H 0.09129 0.67821 0.9036 0.0
S653 S 0.15287 0.65944 0.94587 0.0
N654 N 0.13023 0.64012 0.94547 0.0
N655 N 0.15025 0.67905 0.93339 0.0
C656 C 0.1302 0.67032 0.92854 0.0
C657 C 0.11937 0.64921 0.93465 0.0
C658 C 0.31249 0.42541 0.89738 0.0
C659 C 0.30125 0.43501 0.8936 0.0
C660 C 0.33297 0.43611 0.90879 0.0
C661 C 0.34312 0.45689 0.91586 0.0
H662 H 0.30541 0.40943 0.89226 0.0
H663 H 0.34091 0.42797 0.91158 0.0
S664 S 0.32065 0.48923 0.90891 0.0
N665 N 0.30178 0.46656 0.89746 0.0
N666 N 0.34042 0.48675 0.91791 0.0
C667 C 0.33213 0.46675 0.91153 0.0
C668 C 0.31116 0.4558 0.90078 0.0
C669 C 0.08206 0.42926 0.40954 0.0
C670 C 0.092 0.4501 0.41184 0.0
C671 C 0.09243 0.41901 0.39922 0.0
C672 C 0.11318 0.42919 0.39205 0.0
H673 H 0.0661 0.42073 0.41539 0.0
H674 H 0.08409 0.40295 0.3978 0.0
S675 S 0.14626 0.48382 0.39413 0.0
N676 N 0.1238 0.48064 0.40547 0.0
N677 N 0.14334 0.46133 0.38726 0.0
C678 C 0.12334 0.45005 0.39434 0.0
C679 C 0.11274 0.46051 0.4038 0.0
C680 C 0.54598 0.65 0.47157 0.0
C681 C 0.5344 0.6372 0.41331 0.0
C682 C 0.55566 0.67063 0.46243 0.0
C683 C 0.55455 0.67911 0.39396 0.0
H684 H 0.54723 0.64404 0.5252 0.0
H685 H 0.56419 0.67999 0.50909 0.0
S686 S 0.5267 0.652 0.22318 0.0
N687 N 0.5225 0.63439 0.28471 0.0
N688 N 0.54127 0.67319 0.26651 0.0
C689 C 0.54336 0.66647 0.3347 0.0
C690 C 0.5331 0.64549 0.34468 0.0
C691 C 0.34203 0.87549 0.40026 0.0
C692 C 0.35164 0.89623 0.40773 0.0
C693 C 0.32137 0.86416 0.39612 0.0
C694 C 0.30953 0.87315 0.39855 0.0
H695 H 0.35046 0.86784 0.39966 0.0
H696 H 0.31464 0.84819 0.39194 0.0
S697 S 0.32758 0.92718 0.41178 0.0
N698 N 0.34788 0.92547 0.4133 0.0
N699 N 0.30903 0.90419 0.40495 0.0
C700 C 0.31899 0.89396 0.40333 0.0
C701 C 0.34005 0.9055 0.40813 0.0
C702 C 0.09984 0.23652 0.03147 0.0
C703 C 0.09383 0.25034 0.01329 0.0
C704 C 0.11103 0.23875 0.09628 0.0
C705 C 0.11652 0.2548 0.14601 0.0
H706 H 0.09672 0.22434 0.9935 0.0
H707 H 0.11604 0.22819 0.10579 0.0
S708 S 0.10193 0.29348 0.12961 0.0
N709 N 0.09233 0.27943 0.05421 0.0
N710 N 0.1132 0.2836 0.1764 0.0
C711 C 0.10936 0.26793 0.13129 0.0
C712 C 0.09808 0.26572 0.06484 0.0
C713 C 0.73652 0.86802 0.06151 0.0
C714 C 0.72181 0.8576 0.11621 0.0
C715 C 0.73717 0.85894 0.99421 0.0
C716 C 0.72308 0.83907 0.9785 0.0
H717 H 0.74735 0.88354 0.06955 0.0
H718 H 0.74853 0.86779 0.95334 0.0
S719 S 0.68252 0.80455 0.10542 0.0
N720 N 0.69356 0.82574 0.15203 0.0
N721 N 0.69479 0.80877 0.02524 0.0
C722 C 0.70877 0.82818 0.0338 0.0
C723 C 0.70815 0.83739 0.10272 0.0
C724 C 0.08271 0.85819 0.9778 0.0
C725 C 0.08902 0.86089 0.0533 0.0
C726 C 0.09579 0.86933 0.91976 0.0
C727 C 0.11575 0.88304 0.93525 0.0
H728 H 0.06791 0.8466 0.96309 0.0
H729 H 0.09059 0.86613 0.86202 0.0
S730 S 0.13918 0.89678 0.12384 0.0
N731 N 0.11604 0.87954 0.14104 0.0
N732 N 0.14082 0.89989 0.0314 0.0
C733 C 0.12195 0.88666 0.0107 0.0
C734 C 0.10849 0.87575 0.06999 0.0
C735 C 0.26193 0.10072 0.42367 0.0
C736 C 0.24533 0.09457 0.4709 0.0
C737 C 0.26435 0.11191 0.35855 0.0
C738 C 0.25037 0.11756 0.33855 0.0
H739 H 0.2735 0.09744 0.4383 0.0
H740 H 0.27777 0.11695 0.32574 0.0
S741 S 0.20307 0.10315 0.43751 0.0
N742 N 0.21367 0.0933 0.4887 0.0
N743 N 0.21843 0.11456 0.3669 0.0
C744 C 0.23319 0.11061 0.38289 0.0
C745 C 0.23061 0.09904 0.44883 0.0
C746 C 0.86797 0.1489 0.35099 0.0
C747 C 0.8638 0.12985 0.32824 0.0
C748 C 0.87898 0.15776 0.41631 0.0
C749 C 0.88637 0.14798 0.46119 0.0
H750 H 0.86182 0.15665 0.3205 0.0
H751 H 0.88099 0.17204 0.43326 0.0
S752 S 0.88233 0.09925 0.41926 0.0
N753 N 0.86987 0.10248 0.35078 0.0
N754 N 0.89072 0.11917 0.47308 0.0
C755 C 0.88355 0.12955 0.43599 0.0
C756 C 0.87221 0.12047 0.36971 0.0
C757 C 0.81538 0.71086 0.4692 0.0
C758 C 0.82407 0.72762 0.51643 0.0
C759 C 0.82443 0.71046 0.40148 0.0
C760 C 0.84261 0.72675 0.37874 0.0
H761 H 0.80199 0.69756 0.48629 0.0
H762 H 0.81775 0.69676 0.36951 0.0
S763 S 0.86948 0.77556 0.47463 0.0
N764 N 0.85035 0.762 0.53 0.0
N765 N 0.86747 0.76107 0.40306 0.0
C766 C 0.85057 0.74418 0.4221 0.0
C767 C 0.84127 0.74466 0.49086 0.0
C768 C 0.86182 0.71033 0.90231 0.0
C769 C 0.85832 0.72542 0.87648 0.0
C770 C 0.87202 0.71246 0.9698 0.0
C771 C 0.87922 0.72982 0.01348 0.0
H772 H 0.85548 0.69623 0.87308 0.0
H773 H 0.87336 0.70001 0.98961 0.0
S774 S 0.87736 0.77519 0.96199 0.0
N775 N 0.86522 0.75928 0.89367 0.0
N776 N 0.88469 0.76351 0.01993 0.0
C777 C 0.8774 0.74571 0.98452 0.0
C778 C 0.86686 0.74344 0.91615 0.0
C779 C 0.25949 0.14375 0.85238 0.0
C780 C 0.24535 0.12373 0.83896 0.0
C781 C 0.25893 0.15342 0.91807 0.0
C782 C 0.24412 0.14357 0.97284 0.0
H783 H 0.27178 0.15179 0.81395 0.0
H784 H 0.27069 0.16854 0.92722 0.0
S785 S 0.20173 0.09215 0.95937 0.0
N786 N 0.21472 0.09511 0.88189 0.0
N787 N 0.21359 0.1134 0.00531 0.0
C788 C 0.22898 0.12407 0.95755 0.0
C789 C 0.22962 0.11413 0.89066 0.0
C790 C 0.8531 0.10223 0.944 0.0
C791 C 0.83371 0.09773 0.96252 0.0
C792 C 0.86238 0.11267 0.8781 0.0
C793 C 0.85262 0.11892 0.8277 0.0
H794 H 0.86154 0.09846 0.98224 0.0
H795 H 0.87763 0.11654 0.86827 0.0
S796 S 0.80064 0.10836 0.84512 0.0
N797 N 0.80429 0.09848 0.92147 0.0
N798 N 0.82163 0.11798 0.79738 0.0
C799 C 0.83271 0.11327 0.84294 0.0
C800 C 0.8233 0.10274 0.91043 0.0
C801 C 0.71587 0.87588 0.528 0.0
C802 C 0.73307 0.88675 0.48436 0.0
C803 C 0.71547 0.86405 0.58823 0.0
C804 C 0.73228 0.86264 0.60733 0.0
H805 H 0.7023 0.87579 0.51371 0.0
H806 H 0.70159 0.85531 0.61788 0.0
S807 S 0.78188 0.89042 0.51766 0.0
N808 N 0.76798 0.89704 0.46947 0.0
N809 N 0.76722 0.87478 0.58265 0.0
C810 C 0.74995 0.87442 0.56723 0.0
C811 C 0.75035 0.88647 0.50577 0.0
C812 C 0.10957 0.85759 0.43291 0.0
C813 C 0.09762 0.83691 0.42558 0.0
C814 C 0.11824 0.86628 0.50193 0.0
C815 C 0.11539 0.85466 0.56665 0.0
H816 H 0.1122 0.86724 0.38501 0.0
H817 H 0.12738 0.88228 0.50413 0.0
S818 S 0.08533 0.79967 0.57735 0.0
N819 N 0.08331 0.80494 0.48877 0.0
N820 N 0.09964 0.82121 0.61869 0.0
C821 C 0.10343 0.8339 0.56014 0.0
C822 C 0.09457 0.82505 0.48962 0.0
C823 C 0.11676 0.23801 0.59042 0.0
C824 C 0.12693 0.2531 0.64413 0.0
C825 C 0.12614 0.23694 0.52453 0.0
C826 C 0.14604 0.25099 0.50936 0.0
H827 H 0.10116 0.22738 0.59757 0.0
H828 H 0.11741 0.22554 0.48361 0.0
S829 S 0.18024 0.29164 0.63646 0.0
N830 N 0.15881 0.28105 0.68136 0.0
N831 N 0.17629 0.27906 0.55718 0.0
C832 C 0.15679 0.26533 0.56473 0.0
C833 C 0.14729 0.26635 0.63222 0.0
C834 C 0.77319 0.56703 0.49444 0.0
C835 C 0.77876 0.5834 0.54244 0.0
C836 C 0.76277 0.56491 0.42764 0.0
C837 C 0.75767 0.57918 0.40568 0.0
H838 H 0.77769 0.55619 0.50675 0.0
H839 H 0.75962 0.55249 0.39113 0.0
S840 S 0.76616 0.62327 0.51651 0.0
N841 N 0.77635 0.61296 0.56747 0.0
N842 N 0.7569 0.60901 0.4414 0.0
C843 C 0.76185 0.59485 0.45568 0.0
C844 C 0.77233 0.59692 0.52424 0.0
C845 C 0.41341 0.19282 0.35232 0.0
C846 C 0.39601 0.17492 0.33546 0.0
C847 C 0.41434 0.2044 0.41441 0.0
C848 C 0.39792 0.19853 0.46223 0.0
H849 H 0.42618 0.19846 0.3154 0.0
H850 H 0.42772 0.21854 0.4225 0.0
S851 S 0.34992 0.15134 0.44987 0.0
N852 N 0.36278 0.15071 0.37684 0.0
N853 N 0.36452 0.17239 0.4938 0.0
C854 C 0.38096 0.1799 0.44949 0.0
C855 C 0.38 0.16812 0.38604 0.0
C856 C 0.79281 0.21468 0.36633 0.0
C857 C 0.81206 0.21893 0.3466 0.0
C858 C 0.7836 0.20417 0.43216 0.0
C859 C 0.79328 0.19758 0.4814 0.0
H860 H 0.78436 0.21868 0.329 0.0
H861 H 0.76843 0.20049 0.44271 0.0
S862 S 0.84503 0.2076 0.4613 0.0
N863 N 0.84136 0.21772 0.38568 0.0
N864 N 0.82417 0.19809 0.50984 0.0
C865 C 0.81311 0.20305 0.46521 0.0
C866 C 0.82245 0.21366 0.3977 0.0
C867 C 0.92962 0.4471 0.70739 0.0
C868 C 0.9158 0.45301 0.68788 0.0
C869 C 0.92787 0.43699 0.77488 0.0
C870 C 0.91215 0.43225 0.82529 0.0
H871 H 0.94246 0.45113 0.67215 0.0
H872 H 0.9393 0.43344 0.78864 0.0
S873 S 0.87048 0.44192 0.79548 0.0
N874 N 0.88478 0.45162 0.72076 0.0
N875 N 0.88138 0.4325 0.8473 0.0
C876 C 0.89755 0.43697 0.80423 0.0
C877 C 0.8994 0.44737 0.73566 0.0
C878 C 0.55187 0.46393 0.78007 0.0
C879 C 0.5573 0.48331 0.80303 0.0
C880 C 0.54087 0.45574 0.71429 0.0
C881 C 0.53502 0.46666 0.66834 0.0
H882 H 0.55524 0.45458 0.81505 0.0
H883 H 0.53622 0.44042 0.70116 0.0
S884 S 0.5482 0.51918 0.69721 0.0
N885 N 0.55801 0.51404 0.77019 0.0
N886 N 0.53745 0.49872 0.64603 0.0
C887 C 0.54172 0.48662 0.68739 0.0
C888 C 0.55281 0.49491 0.75492 0.0
C889 C 0.50103 0.05603 0.68064 0.0
C890 C 0.51996 0.07103 0.65791 0.0
C891 C 0.49231 0.05783 0.74716 0.0
C892 C 0.50211 0.07478 0.79314 0.0
H893 H 0.49333 0.04225 0.64937 0.0
H894 H 0.47816 0.04546 0.7642 0.0
S895 S 0.55042 0.11974 0.75132 0.0
N896 N 0.54715 0.10437 0.68135 0.0
N897 N 0.53071 0.10795 0.80584 0.0
C898 C 0.52034 0.09056 0.76776 0.0
C899 C 0.52929 0.08863 0.70033 0.0
C900 C 0.53991 0.08677 0.20708 0.0
C901 C 0.53353 0.0707 0.15684 0.0
C902 C 0.55016 0.08775 0.27322 0.0
C903 C 0.55429 0.07261 0.29216 0.0
H904 H 0.53621 0.09829 0.19707 0.0
H905 H 0.55398 0.1 0.31152 0.0
S906 S 0.54335 0.02871 0.17513 0.0
N907 N 0.5341 0.04035 0.12688 0.0
N908 N 0.5532 0.04219 0.25158 0.0
C909 C 0.54924 0.05716 0.24012 0.0
C910 C 0.53893 0.05623 0.17232 0.0
C911 C 0.92633 0.47084 0.21249 0.0
C912 C 0.90857 0.45359 0.1928 0.0
C913 C 0.92711 0.48268 0.27341 0.0
C914 C 0.91017 0.47779 0.31698 0.0
H915 H 0.94002 0.4747 0.18329 0.0
H916 H 0.94134 0.49522 0.28855 0.0
S917 S 0.8593 0.43622 0.2804 0.0
N918 N 0.87313 0.43367 0.21559 0.0
N919 N 0.87455 0.456 0.32987 0.0
C920 C 0.892 0.4615 0.29416 0.0
C921 C 0.89121 0.44939 0.23214 0.0
C922 C 0.49329 0.4384 0.25758 0.0
C923 C 0.50175 0.43008 0.30469 0.0
C924 C 0.50243 0.44778 0.18988 0.0
C925 C 0.52047 0.44933 0.16694 0.0
H926 H 0.47999 0.43854 0.27468 0.0
H927 H 0.49592 0.45498 0.15798 0.0
S928 S 0.54684 0.42683 0.26292 0.0
N929 N 0.52776 0.42155 0.31825 0.0
N930 N 0.54502 0.4394 0.19137 0.0
C931 C 0.52823 0.43967 0.21037 0.0
C932 C 0.51886 0.42999 0.27914 0.0
C933 C 0.37771 0.21469 0.87558 0.0
C934 C 0.39426 0.22073 0.82824 0.0
C935 C 0.37575 0.20434 0.94268 0.0
C936 C 0.39021 0.19953 0.96473 0.0
H937 H 0.3658 0.21734 0.85952 0.0
H938 H 0.36231 0.19925 0.97545 0.0
S939 S 0.43773 0.21442 0.86644 0.0
N940 N 0.42643 0.223 0.81248 0.0
N941 N 0.42263 0.20346 0.93817 0.0
C942 C 0.40739 0.20652 0.9203 0.0
C943 C 0.40944 0.21714 0.85219 0.0
C944 C 0.76298 0.18496 0.87166 0.0
C945 C 0.75918 0.16607 0.84832 0.0
C946 C 0.77393 0.19386 0.9369 0.0
C947 C 0.78141 0.1842 0.98193 0.0
H948 H 0.75824 0.19339 0.83758 0.0
H949 H 0.77719 0.20878 0.95041 0.0
S950 S 0.77323 0.13334 0.95122 0.0
N951 N 0.762 0.1371 0.8795 0.0
N952 N 0.78249 0.15376 0.00252 0.0
C953 C 0.77649 0.16469 0.96226 0.0
C954 C 0.76542 0.15566 0.89534 0.0
C955 C 0.81277 0.59846 0.01753 0.0
C956 C 0.79447 0.58231 0.04008 0.0
C957 C 0.822 0.59781 0.95058 0.0
C958 C 0.81339 0.58094 0.90387 0.0
H959 H 0.81945 0.61221 0.04917 0.0
H960 H 0.83552 0.61101 0.9337 0.0
S961 S 0.7675 0.53337 0.94498 0.0
N962 N 0.76943 0.54804 0.01578 0.0
N963 N 0.78687 0.54668 0.89036 0.0
C964 C 0.79598 0.56407 0.92913 0.0
C965 C 0.7865 0.5648 -0.00291 0.0
C966 C 0.43683 0.94047 0.72577 0.0
C967 C 0.42975 0.92395 0.67752 0.0
C968 C 0.44652 0.94124 0.79319 0.0
C969 C 0.44965 0.92559 0.81466 0.0
H970 H 0.43574 0.95334 0.70979 0.0
H971 H 0.45271 0.95478 0.82601 0.0
S972 S 0.43081 0.87748 0.71533 0.0
N973 N 0.42406 0.89038 0.66133 0.0
N974 N 0.44251 0.89199 0.78771 0.0
C975 C 0.44122 0.90832 0.77014 0.0
C976 C 0.43121 0.90746 0.70166 0.0
C977 C 0.04882 0.50379 0.79566 0.0
C978 C 0.06349 0.52345 0.81185 0.0
C979 C 0.04973 0.49419 0.73025 0.0
C980 C 0.06542 0.50376 0.67857 0.0
H981 H 0.0359 0.49604 0.83149 0.0
H982 H 0.03757 0.47941 0.71869 0.0
S983 S 0.10933 0.55401 0.70086 0.0
N984 N 0.09544 0.55129 0.77537 0.0
N985 N 0.09725 0.53315 0.65261 0.0
C986 C 0.08101 0.52282 0.69696 0.0
C987 C 0.08002 0.53268 0.7635 0.0
C988 C 0.47825 0.54067 0.79387 0.0
C989 C 0.45902 0.53698 0.81086 0.0
C990 C 0.48786 0.55032 0.72724 0.0
C991 C 0.47875 0.55686 0.67516 0.0
H992 H 0.48558 0.5351 0.8301 0.0
H993 H 0.50226 0.55198 0.71527 0.0
S994 S 0.42981 0.55368 0.69857 0.0
N995 N 0.43214 0.54264 0.77421 0.0
N996 N 0.4503 0.56099 0.64921 0.0
C997 C 0.46016 0.55462 0.69406 0.0
C998 C 0.45028 0.54463 0.7618 0.0
C999 C 0.59291 0.77799 0.02738 0.0
C1000 C 0.57962 0.7849 0.01245 0.0
C1001 C 0.59148 0.76758 0.09359 0.0
C1002 C 0.57665 0.76356 0.14738 0.0
H1003 H 0.60519 0.7815 0.98968 0.0
H1004 H 0.60264 0.76342 0.10399 0.0
S1005 S 0.53613 0.7754 0.12941 0.0
N1006 N 0.54965 0.7848 0.05263 0.0
N1007 N 0.54692 0.76514 0.17705 0.0
C1008 C 0.56235 0.76903 0.13058 0.0
C1009 C 0.56384 0.77971 0.06314 0.0
C1010 C 0.21782 0.82166 0.12328 0.0
C1011 C 0.22053 0.81048 0.17949 0.0
C1012 C 0.20873 0.81303 0.05456 0.0
C1013 C 0.20178 0.79283 0.03972 0.0
H1014 H 0.22239 0.83712 0.13289 0.0
H1015 H 0.20639 0.82212 0.01416 0.0
S1016 S 0.20681 0.75745 0.16548 0.0
N1017 N 0.21677 0.77843 0.21352 0.0
N1018 N 0.19951 0.76222 0.08471 0.0
C1019 C 0.20511 0.78167 0.09418 0.0
C1020 C 0.21453 0.79049 0.16393 0.0
C1021 C 0.1663 0.37977 0.0253 0.0
C1022 C 0.18487 0.39558 0.0032 0.0
C1023 C 0.15683 0.38094 0.09079 0.0
C1024 C 0.16549 0.398 0.13648 0.0
H1025 H 0.15944 0.36595 0.99411 0.0
H1026 H 0.143 0.36803 0.10717 0.0
S1027 S 0.21243 0.4447 0.09666 0.0
N1028 N 0.21049 0.42963 0.02735 0.0
N1029 N 0.19264 0.43197 0.14998 0.0
C1030 C 0.18337 0.41445 0.11203 0.0
C1031 C 0.19308 0.4132 0.04558 0.0
C1032 C 0.20996 0.38292 0.59071 0.0
C1033 C 0.2172 0.3999 0.63657 0.0
C1034 C 0.19905 0.38099 0.52536 0.0
C1035 C 0.19481 0.3959 0.50357 0.0
H1036 H 0.21206 0.37066 0.60681 0.0
H1037 H 0.19303 0.36723 0.49399 0.0
S1038 S 0.21285 0.44455 0.59772 0.0
N1039 N 0.22128 0.43292 0.65065 0.0
N1040 N 0.20057 0.42912 0.52832 0.0
C1041 C 0.20302 0.41348 0.54619 0.0
C1042 C 0.21427 0.41553 0.61249 0.0
C1043 C 0.5941 0.81498 0.60322 0.0
C1044 C 0.57674 0.80928 0.64521 0.0
C1045 C 0.59431 0.80341 0.54304 0.0
C1046 C 0.57717 0.78567 0.52253 0.0
H1047 H 0.60789 0.82803 0.61881 0.0
H1048 H 0.60826 0.80801 0.51462 0.0
S1049 S 0.52716 0.76573 0.60698 0.0
N1050 N 0.54139 0.7859 0.65649 0.0
N1051 N 0.54185 0.76411 0.54358 0.0
C1052 C 0.5594 0.78048 0.56076 0.0
C1053 C 0.55917 0.7923 0.62201 0.0
C1054 C 0.17381 0.76835 0.60936 0.0
C1055 C 0.18166 0.76111 0.66401 0.0
C1056 C 0.18537 0.77998 0.54926 0.0
C1057 C 0.20529 0.78489 0.54149 0.0
H1058 H 0.15889 0.7659 0.61499 0.0
H1059 H 0.1789 0.78606 0.51114 0.0
S1060 S 0.23187 0.76667 0.66186 0.0
N1061 N 0.20974 0.75736 0.70088 0.0
N1062 N 0.23158 0.77936 0.58775 0.0
C1063 C 0.21281 0.77628 0.59185 0.0
C1064 C 0.20097 0.76434 0.65319 0.0
C1065 C 0.0766 0.54808 0.19718 0.0
C1066 C 0.06291 0.55426 0.17926 0.0
C1067 C 0.07445 0.53703 0.26236 0.0
C1068 C 0.05865 0.53191 0.3128 0.0
H1069 H 0.08864 0.55101 0.15897 0.0
H1070 H 0.08493 0.53194 0.2719 0.0
S1071 S 0.02017 0.54671 0.29661 0.0
N1072 N 0.03404 0.55606 0.22058 0.0
N1073 N 0.03005 0.53546 0.34364 0.0
C1074 C 0.04558 0.53912 0.29809 0.0
C1075 C 0.04767 0.55023 0.23116 0.0
C1076 C 0.43239 0.49647 0.22487 0.0
C1077 C 0.42643 0.50725 0.17862 0.0
C1078 C 0.44356 0.50488 0.29025 0.0
C1079 C 0.44939 0.52448 0.31152 0.0
H1080 H 0.42906 0.48165 0.20909 0.0
H1081 H 0.44855 0.49628 0.32197 0.0
S1082 S 0.43522 0.55804 0.21613 0.0
N1083 N 0.42531 0.53782 0.16358 0.0
N1084 N 0.44653 0.55367 0.28592 0.0
C1085 C 0.44247 0.53498 0.26854 0.0
C1086 C 0.43093 0.52635 0.20229 0.0
C1087 C 0.46535 0.91019 0.20043 0.0
C1088 C 0.48449 0.92486 0.17842 0.0
C1089 C 0.45672 0.91211 0.26688 0.0
C1090 C 0.46696 0.92866 0.31441 0.0
H1091 H 0.45648 0.8976 0.16423 0.0
H1092 H 0.44156 0.90093 0.27927 0.0
S1093 S 0.51873 0.96965 0.28819 0.0
N1094 N 0.51434 0.95531 0.21362 0.0
N1095 N 0.49823 0.95889 0.33903 0.0
C1096 C 0.48674 0.94262 0.2962 0.0
C1097 C 0.49546 0.94075 0.22802 0.0
C1098 C 0.20762 0.31878 0.00781 0.0
C1099 C 0.21662 0.33957 0.01113 0.0
C1100 C 0.20232 0.3073 0.07374 0.0
C1101 C 0.20547 0.31615 0.14556 0.0
H1102 H 0.20371 0.31122 0.95385 0.0
H1103 H 0.19437 0.2913 0.06794 0.0
S1104 S 0.23109 0.37012 0.18573 0.0
N1105 N 0.23063 0.36866 0.09277 0.0
N1106 N 0.22025 0.34701 0.21632 0.0
C1107 C 0.21583 0.33696 0.14985 0.0
C1108 C 0.22152 0.34869 0.08274 0.0
C1109 C 0.64602 0.87717 0.13811 0.0
C1110 C 0.66682 0.88715 0.13331 0.0
C1111 C 0.63424 0.87047 0.07309 0.0
C1112 C 0.64281 0.87313 0.00091 0.0
H1113 H 0.63877 0.87353 0.19267 0.0
H1114 H 0.61831 0.86186 0.08008 0.0
S1115 S 0.69647 0.9008 0.95638 0.0
N1116 N 0.69546 0.9015 0.04928 0.0
N1117 N 0.67323 0.88843 0.92769 0.0
C1118 C 0.66352 0.88439 -0.00516 0.0
C1119 C 0.67554 0.89156 0.06088 0.0
C1120 C 0.10717 0.76576 0.0262 0.0
C1121 C 0.11615 0.77729 0.96123 0.0
C1122 C 0.097 0.77115 0.07809 0.0
C1123 C 0.09578 0.78839 0.06715 0.0
H1124 H 0.10863 0.75292 0.03871 0.0
H1125 H 0.09081 0.76228 0.12844 0.0
S1126 S 0.11356 0.82175 0.90097 0.0
N1127 N 0.12065 0.80531 0.88471 0.0
N1128 N 0.10206 0.81555 0.98309 0.0
C1129 C 0.10362 0.79935 0.00066 0.0
C1130 C 0.11365 0.79376 0.9474 0.0
C1131 C 0.31244 0.21413 0.37026 0.0
C1132 C 0.31829 0.20997 0.30045 0.0
C1133 C 0.32612 0.22338 0.42891 0.0
C1134 C 0.34617 0.22888 0.41979 0.0
H1135 H 0.29699 0.20919 0.38144 0.0
H1136 H 0.32073 0.2253 0.48284 0.0
S1137 S 0.36965 0.22435 0.24362 0.0
N1138 N 0.34595 0.21434 0.22258 0.0
N1139 N 0.37162 0.23175 0.33205 0.0
C1140 C 0.35247 0.22622 0.34825 0.0
C1141 C 0.33855 0.21677 0.28879 0.0
C1142 C 0.76992 0.09894 0.46558 0.0
C1143 C 0.76117 0.11099 0.46439 0.0
C1144 C 0.77576 0.09365 0.39869 0.0
C1145 C 0.77342 0.10055 0.3281 0.0
H1146 H 0.77326 0.09443 0.51883 0.0
H1147 H 0.78352 0.08537 0.40309 0.0
S1148 S 0.74864 0.12999 0.29301 0.0
N1149 N 0.74819 0.12758 0.38562 0.0
N1150 N 0.75956 0.11795 0.26027 0.0
C1151 C 0.76325 0.11123 0.3256 0.0
C1152 C 0.757 0.11636 0.39364 0.0
C1153 C 0.86542 0.65045 0.39749 0.0
C1154 C 0.87287 0.67103 0.39989 0.0
C1155 C 0.86085 0.63924 0.46391 0.0
C1156 C 0.86314 0.64812 0.53535 0.0
H1157 H 0.86244 0.64281 0.34381 0.0
H1158 H 0.85433 0.62331 0.45875 0.0
S1159 S 0.88378 0.70182 0.57285 0.0
N1160 N 0.88385 0.70013 0.48002 0.0
N1161 N 0.87488 0.67898 0.6046 0.0
C1162 C 0.87159 0.66885 0.53871 0.0
C1163 C 0.87655 0.68032 0.47108 0.0
C1164 C 0.77546 0.6702 0.9606 0.0
C1165 C 0.77221 0.66129 0.88884 0.0
C1166 C 0.77099 0.65887 0.0267 0.0
C1167 C 0.76273 0.63817 0.02366 0.0
H1168 H 0.78274 0.68619 0.96606 0.0
H1169 H 0.77479 0.6665 0.08052 0.0
S1170 S 0.74884 0.60738 0.8497 0.0
N1171 N 0.75848 0.63038 0.81868 0.0
N1172 N 0.74969 0.60899 0.94263 0.0
C1173 C 0.75796 0.62891 0.95227 0.0
C1174 C 0.76281 0.6405 0.88496 0.0
C1175 C 0.33662 0.11188 0.91104 0.0
C1176 C 0.32811 0.11067 0.98247 0.0
C1177 C 0.32492 0.10538 0.8458 0.0
C1178 C 0.30424 0.09704 0.84961 0.0
H1179 H 0.35256 0.11922 0.90446 0.0
H1180 H 0.33224 0.10785 0.7916 0.0
S1181 S 0.27442 0.08772 0.02426 0.0
N1182 N 0.29757 0.09851 0.05404 0.0
N1183 N 0.27553 0.08592 0.93178 0.0
C1184 C 0.29539 0.0941 0.92138 0.0
C1185 C 0.30734 0.10103 0.98772 0.0
C1186 C 0.88644 0.20073 0.90401 0.0
C1187 C 0.88206 0.20559 0.83278 0.0
C1188 C 0.88023 0.20572 0.97068 0.0
C1189 C 0.86968 0.21606 0.96884 0.0
H1190 H 0.89347 0.19175 0.90843 0.0
H1191 H 0.88285 0.20055 0.02382 0.0
S1192 S 0.85753 0.23523 0.79691 0.0
N1193 N 0.8687 0.2234 0.76461 0.0
N1194 N 0.85735 0.23318 0.88963 0.0
C1195 C 0.86683 0.22261 0.89818 0.0
C1196 C 0.87291 0.21725 0.83024 0.0
C1197 C 0.65647 0.75684 0.60103 0.0
C1198 C 0.67311 0.77575 0.58962 0.0
C1199 C 0.64089 0.74863 0.54867 0.0
C1200 C 0.6413 0.75916 0.48359 0.0
H1201 H 0.65512 0.74859 0.65202 0.0
H1202 H 0.62795 0.73448 0.56162 0.0
S1203 S 0.68241 0.80811 0.42243 0.0
N1204 N 0.68982 0.80389 0.50401 0.0
N1205 N 0.66044 0.78855 0.40677 0.0
C1206 C 0.65833 0.77752 0.46924 0.0
C1207 C 0.67426 0.78579 0.52195 0.0
C1208 C 0.20513 0.88647 0.60932 0.0
C1209 C 0.19807 0.8758 0.67731 0.0
C1210 C 0.21575 0.88183 0.55691 0.0
C1211 C 0.21984 0.8664 0.57043 0.0
H1212 H 0.20161 0.89787 0.59441 0.0
H1213 H 0.2201 0.88992 0.50415 0.0
S1214 S 0.20701 0.83565 0.74426 0.0
N1215 N 0.19773 0.85039 0.75851 0.0
N1216 N 0.21766 0.84173 0.66048 0.0
C1217 C 0.21402 0.85649 0.64041 0.0
C1218 C 0.20317 0.86118 0.69369 0.0
C1219 C 0.09829 0.31434 0.50597 0.0
C1220 C 0.10837 0.33518 0.50956 0.0
C1221 C 0.09275 0.3028 0.57175 0.0
C1222 C 0.0974 0.31168 0.64368 0.0
H1223 H 0.09554 0.30687 0.45198 0.0
H1224 H 0.08603 0.28686 0.5659 0.0
S1225 S 0.12109 0.36553 0.68444 0.0
N1226 N 0.12066 0.36414 0.59146 0.0
N1227 N 0.11058 0.34241 0.71476 0.0
C1228 C 0.10612 0.33241 0.64817 0.0
C1229 C 0.11149 0.34417 0.58121 0.0
C1230 C 0.98474 0.5444 0.8011 0.0
C1231 C 0.00522 0.55158 0.79689 0.0
C1232 C 0.97296 0.53853 0.73607 0.0
C1233 C 0.98116 0.53915 0.66446 0.0
H1234 H 0.97759 0.54245 0.85543 0.0
H1235 H 0.95711 0.53213 0.74294 0.0
S1236 S 0.03441 0.55886 0.62192 0.0
N1237 N 0.03356 0.56087 0.71442 0.0
N1238 N 0.01133 0.5494 0.59243 0.0
C1239 C 0.00182 0.54756 0.65888 0.0
C1240 C 0.01388 0.55389 0.72504 0.0
C1241 C 0.44027 0.44024 0.80455 0.0
C1242 C 0.43233 0.45297 0.80075 0.0
C1243 C 0.44673 0.43491 0.73939 0.0
C1244 C 0.44592 0.44245 0.66804 0.0
H1245 H 0.44229 0.43504 0.85869 0.0
H1246 H 0.4536 0.42583 0.74592 0.0
S1247 S 0.42456 0.47474 0.62647 0.0
N1248 N 0.42236 0.47158 0.71878 0.0
N1249 N 0.43486 0.46184 0.59668 0.0
C1250 C 0.43688 0.4542 0.66284 0.0
C1251 C 0.42999 0.45937 0.72908 0.0
C1252 C 0.54622 0.00524 0.79696 0.0
C1253 C 0.53438 0.98448 0.79391 0.0
C1254 C 0.55157 0.01673 0.73108 0.0
C1255 C 0.54494 0.00792 0.65968 0.0
H1256 H 0.55071 0.01276 0.85089 0.0
H1257 H 0.55989 0.03272 0.73685 0.0
S1258 S 0.51534 0.95397 0.62008 0.0
N1259 N 0.5177 0.95541 0.71276 0.0
N1260 N 0.52745 0.97706 0.58929 0.0
C1261 C 0.53412 0.9871 0.65541 0.0
C1262 C 0.52894 0.97536 0.72242 0.0
C1263 C 0.4382 -0.00693 0.17409 0.0
C1264 C 0.45078 0.01373 0.17566 0.0
C1265 C 0.43325 0.98181 0.2405 0.0
C1266 C 0.44105 0.99074 0.31092 0.0
H1267 H 0.43271 0.98543 0.12083 0.0
H1268 H 0.42418 0.96584 0.2357 0.0
S1269 S 0.47345 0.0446 0.34644 0.0
N1270 N 0.4698 0.0429 0.25439 0.0
N1271 N 0.46075 0.02169 0.37877 0.0
C1272 C 0.4528 0.01151 0.31379 0.0
C1273 C 0.45759 0.02302 0.2463 0.0
C1274 C 0.97306 0.43658 0.35027 0.0
C1275 C -0.00694 0.44214 0.33885 0.0
C1276 C 0.95913 0.42805 0.29242 0.0
C1277 C 0.96452 0.42468 0.22039 0.0
H1278 H 0.9682 0.43955 0.40354 0.0
H1279 H 0.94412 0.42478 0.30378 0.0
S1280 S 0.01441 0.43424 0.16327 0.0
N1281 N 0.01718 0.44189 0.25166 0.0
N1282 N -0.00913 0.42583 0.14278 0.0
C1283 C 0.98415 0.42893 0.20935 0.0
C1284 C -0.00157 0.43764 0.26858 0.0
C1285 C 0.54448 0.54841 0.18571 0.0
C1286 C 0.55101 0.53452 0.18868 0.0
C1287 C 0.53838 0.55403 0.25113 0.0
C1288 C 0.53815 0.54562 0.32182 0.0
H1289 H 0.54324 0.55432 0.13197 0.0
H1290 H 0.53254 0.56402 0.24512 0.0
S1291 S 0.55579 0.51012 0.36117 0.0
N1292 N 0.55865 0.51386 0.26922 0.0
N1293 N 0.54681 0.52414 0.39181 0.0
C1294 C 0.54587 0.5327 0.32629 0.0
C1295 C 0.5524 0.52722 0.25981 0.0
loop_
_geom_bond_atom_site_label_1
_geom_bond_atom_site_label_2
_geom_bond_distance
_geom_bond_site_symmetry_2
_ccdc_geom_bond_type
C0 O1 1.306 . S
C0 O3 1.160 . S
O1 C0 1.306 . S
O1 Cd2 2.228 . S
Cd2 O1 2.228 . S
Cd2 O6 2.273 . S
Cd2 O10 2.277 . S
O3 C0 1.160 . S
O3 Cd4 2.203 . S
Cd4 O3 2.203 . S
Cd4 O6 2.411 . S
Cd4 O7 2.333 . S
Cd4 O8 2.352 . S
Cd4 O12 2.277 . S
Cd4 O13 2.356 . S
C5 O10 1.209 . S
C5 O12 1.226 . S
O6 Cd2 2.273 . S
O6 Cd4 2.411 . S
O6 C9 1.320 . S
O7 Cd4 2.333 . S
O7 C9 1.214 . S
O8 Cd4 2.352 . S
O8 C11 1.258 . S
C9 O6 1.320 . S
C9 O7 1.214 . S
O10 Cd2 2.277 . S
O10 C5 1.209 . S
C11 O8 1.258 . S
C11 O13 1.282 . S
O12 Cd4 2.277 . S
O12 C5 1.226 . S
O13 Cd4 2.356 . S
O13 C11 1.282 . S
C14 O15 1.306 . S
C14 O17 1.160 . S
O15 C14 1.306 . S
O15 Cd16 2.228 . S
Cd16 O15 2.228 . S
Cd16 O20 2.273 . S
Cd16 O24 2.277 . S
O17 C14 1.160 . S
O17 Cd18 2.203 . S
Cd18 O17 2.203 . S
Cd18 O20 2.411 . S
Cd18 O21 2.333 . S
Cd18 O22 2.352 . S
Cd18 O26 2.277 . S
Cd18 O27 2.356 . S
C19 O24 1.209 . S
C19 O26 1.226 . S
O20 Cd16 2.273 . S
O20 Cd18 2.411 . S
O20 C23 1.320 . S
O21 Cd18 2.333 . S
O21 C23 1.214 . S
O22 Cd18 2.352 . S
O22 C25 1.258 . S
C23 O20 1.320 . S
C23 O21 1.214 . S
O24 Cd16 2.277 . S
O24 C19 1.209 . S
C25 O22 1.258 . S
C25 O27 1.282 . S
O26 Cd18 2.277 . S
O26 C19 1.226 . S
O27 Cd18 2.356 . S
O27 C25 1.282 . S
C28 O29 1.306 . S
C28 O31 1.160 . S
O29 C28 1.306 . S
O29 Cd30 2.228 . S
Cd30 O29 2.228 . S
Cd30 O34 2.273 . S
Cd30 O38 2.277 . S
O31 C28 1.160 . S
O31 Cd32 2.203 . S
Cd32 O31 2.203 . S
Cd32 O34 2.411 . S
Cd32 O35 2.333 . S
Cd32 O36 2.352 . S
Cd32 O40 2.277 . S
Cd32 O41 2.356 . S
C33 O38 1.209 . S
C33 O40 1.226 . S
O34 Cd30 2.273 . S
O34 Cd32 2.411 . S
O34 C37 1.320 . S
O35 Cd32 2.333 . S
O35 C37 1.214 . S
O36 Cd32 2.352 . S
O36 C39 1.258 . S
C37 O34 1.320 . S
C37 O35 1.214 . S
O38 Cd30 2.277 . S
O38 C33 1.209 . S
C39 O36 1.258 . S
C39 O41 1.282 . S
O40 Cd32 2.277 . S
O40 C33 1.226 . S
O41 Cd32 2.356 . S
O41 C39 1.282 . S
C42 O43 1.306 . S
C42 O45 1.160 . S
O43 C42 1.306 . S
O43 Cd44 2.228 . S
Cd44 O43 2.228 . S
Cd44 O48 2.273 . S
Cd44 O52 2.277 . S
O45 C42 1.160 . S
O45 Cd46 2.203 . S
Cd46 O45 2.203 . S
Cd46 O48 2.411 . S
Cd46 O49 2.333 . S
Cd46 O50 2.352 . S
Cd46 O54 2.277 . S
Cd46 O55 2.356 . S
C47 O52 1.209 . S
C47 O54 1.226 . S
O48 Cd44 2.273 . S
O48 Cd46 2.411 . S
O48 C51 1.320 . S
O49 Cd46 2.333 . S
O49 C51 1.214 . S
O50 Cd46 2.352 . S
O50 C53 1.258 . S
C51 O48 1.320 . S
C51 O49 1.214 . S
O52 Cd44 2.277 . S
O52 C47 1.209 . S
C53 O50 1.258 . S
C53 O55 1.282 . S
O54 Cd46 2.277 . S
O54 C47 1.226 . S
O55 Cd46 2.356 . S
O55 C53 1.282 . S
C56 O57 1.306 . S
C56 O59 1.160 . S
O57 C56 1.306 . S
O57 Cd58 2.228 . S
Cd58 O57 2.228 . S
Cd58 O62 2.273 . S
Cd58 O66 2.277 . S
O59 C56 1.160 . S
O59 Cd60 2.203 . S
Cd60 O59 2.203 . S
Cd60 O62 2.411 . S
Cd60 O63 2.333 . S
Cd60 O64 2.352 . S
Cd60 O68 2.277 . S
Cd60 O69 2.356 . S
C61 O66 1.209 . S
C61 O68 1.226 . S
O62 Cd58 2.273 . S
O62 Cd60 2.411 . S
O62 C65 1.320 . S
O63 Cd60 2.333 . S
O63 C65 1.214 . S
O64 Cd60 2.352 . S
O64 C67 1.258 . S
C65 O62 1.320 . S
C65 O63 1.214 . S
O66 Cd58 2.277 . S
O66 C61 1.209 . S
C67 O64 1.258 . S
C67 O69 1.282 . S
O68 Cd60 2.277 . S
O68 C61 1.226 . S
O69 Cd60 2.356 . S
O69 C67 1.282 . S
C70 O71 1.306 . S
C70 O73 1.160 . S
O71 C70 1.306 . S
O71 Cd72 2.228 . S
Cd72 O71 2.228 . S
Cd72 O76 2.273 . S
Cd72 O80 2.277 . S
O73 C70 1.160 . S
O73 Cd74 2.203 . S
Cd74 O73 2.203 . S
Cd74 O76 2.411 . S
Cd74 O77 2.333 . S
Cd74 O78 2.352 . S
Cd74 O82 2.277 . S
Cd74 O83 2.356 . S
C75 O80 1.209 . S
C75 O82 1.226 . S
O76 Cd72 2.273 . S
O76 Cd74 2.411 . S
O76 C79 1.320 . S
O77 Cd74 2.333 . S
O77 C79 1.214 . S
O78 Cd74 2.352 . S
O78 C81 1.258 . S
C79 O76 1.320 . S
C79 O77 1.214 . S
O80 Cd72 2.277 . S
O80 C75 1.209 . S
C81 O78 1.258 . S
C81 O83 1.282 . S
O82 Cd74 2.277 . S
O82 C75 1.226 . S
O83 Cd74 2.356 . S
O83 C81 1.282 . S
C84 O85 1.306 . S
C84 O87 1.160 . S
O85 C84 1.306 . S
O85 Cd86 2.228 . S
Cd86 O85 2.228 . S
Cd86 O90 2.273 . S
Cd86 O94 2.277 . S
O87 C84 1.160 . S
O87 Cd88 2.203 . S
Cd88 O87 2.203 . S
Cd88 O90 2.411 . S
Cd88 O91 2.333 . S
Cd88 O92 2.352 . S
Cd88 O96 2.277 . S
Cd88 O97 2.356 . S
C89 O94 1.209 . S
C89 O96 1.226 . S
O90 Cd86 2.273 . S
O90 Cd88 2.411 . S
O90 C93 1.320 . S
O91 Cd88 2.333 . S
O91 C93 1.214 . S
O92 Cd88 2.352 . S
O92 C95 1.258 . S
C93 O90 1.320 . S
C93 O91 1.214 . S
O94 Cd86 2.277 . S
O94 C89 1.209 . S
C95 O92 1.258 . S
C95 O97 1.282 . S
O96 Cd88 2.277 . S
O96 C89 1.226 . S
O97 Cd88 2.356 . S
O97 C95 1.282 . S
C98 O99 1.306 . S
C98 O101 1.160 . S
O99 C98 1.306 . S
O99 Cd100 2.228 . S
Cd100 O99 2.228 . S
Cd100 O104 2.273 . S
Cd100 O108 2.277 . S
O101 C98 1.160 . S
O101 Cd102 2.203 . S
Cd102 O101 2.203 . S
Cd102 O104 2.411 . S
Cd102 O105 2.333 . S
Cd102 O106 2.352 . S
Cd102 O110 2.277 . S
Cd102 O111 2.356 . S
C103 O108 1.209 . S
C103 O110 1.226 . S
O104 Cd100 2.273 . S
O104 Cd102 2.411 . S
O104 C107 1.320 . S
O105 Cd102 2.333 . S
O105 C107 1.214 . S
O106 Cd102 2.352 . S
O106 C109 1.258 . S
C107 O104 1.320 . S
C107 O105 1.214 . S
O108 Cd100 2.277 . S
O108 C103 1.209 . S
C109 O106 1.258 . S
C109 O111 1.282 . S
O110 Cd102 2.277 . S
O110 C103 1.226 . S
O111 Cd102 2.356 . S
O111 C109 1.282 . S
C112 O113 1.306 . S
C112 O115 1.160 . S
O113 C112 1.306 . S
O113 Cd114 2.228 . S
Cd114 O113 2.228 . S
Cd114 O118 2.273 . S
Cd114 O122 2.277 . S
O115 C112 1.160 . S
O115 Cd116 2.203 . S
Cd116 O115 2.203 . S
Cd116 O118 2.411 . S
Cd116 O119 2.333 . S
Cd116 O120 2.352 . S
Cd116 O124 2.277 . S
Cd116 O125 2.356 . S
C117 O122 1.209 . S
C117 O124 1.226 . S
O118 Cd114 2.273 . S
O118 Cd116 2.411 . S
O118 C121 1.320 . S
O119 Cd116 2.333 . S
O119 C121 1.214 . S
O120 Cd116 2.352 . S
O120 C123 1.258 . S
C121 O118 1.320 . S
C121 O119 1.214 . S
O122 Cd114 2.277 . S
O122 C117 1.209 . S
C123 O120 1.258 . S
C123 O125 1.282 . S
O124 Cd116 2.277 . S
O124 C117 1.226 . S
O125 Cd116 2.356 . S
O125 C123 1.282 . S
C126 O127 1.306 . S
C126 O129 1.160 . S
O127 C126 1.306 . S
O127 Cd128 2.228 . S
Cd128 O127 2.228 . S
Cd128 O132 2.273 . S
Cd128 O136 2.277 . S
O129 C126 1.160 . S
O129 Cd130 2.203 . S
Cd130 O129 2.203 . S
Cd130 O132 2.411 . S
Cd130 O133 2.333 . S
Cd130 O134 2.352 . S
Cd130 O138 2.277 . S
Cd130 O139 2.356 . S
C131 O136 1.209 . S
C131 O138 1.226 . S
O132 Cd128 2.273 . S
O132 Cd130 2.411 . S
O132 C135 1.320 . S
O133 Cd130 2.333 . S
O133 C135 1.214 . S
O134 Cd130 2.352 . S
O134 C137 1.258 . S
C135 O132 1.320 . S
C135 O133 1.214 . S
O136 Cd128 2.277 . S
O136 C131 1.209 . S
C137 O134 1.258 . S
C137 O139 1.282 . S
O138 Cd130 2.277 . S
O138 C131 1.226 . S
O139 Cd130 2.356 . S
O139 C137 1.282 . S
C140 O141 1.306 . S
C140 O143 1.160 . S
O141 C140 1.306 . S
O141 Cd142 2.228 . S
Cd142 O141 2.228 . S
Cd142 O146 2.273 . S
Cd142 O150 2.277 . S
O143 C140 1.160 . S
O143 Cd144 2.203 . S
Cd144 O143 2.203 . S
Cd144 O146 2.411 . S
Cd144 O147 2.333 . S
Cd144 O148 2.352 . S
Cd144 O152 2.277 . S
Cd144 O153 2.356 . S
C145 O150 1.209 . S
C145 O152 1.226 . S
O146 Cd142 2.273 . S
O146 Cd144 2.411 . S
O146 C149 1.320 . S
O147 Cd144 2.333 . S
O147 C149 1.214 . S
O148 Cd144 2.352 . S
O148 C151 1.258 . S
C149 O146 1.320 . S
C149 O147 1.214 . S
O150 Cd142 2.277 . S
O150 C145 1.209 . S
C151 O148 1.258 . S
C151 O153 1.282 . S
O152 Cd144 2.277 . S
O152 C145 1.226 . S
O153 Cd144 2.356 . S
O153 C151 1.282 . S
C154 O155 1.306 . S
C154 O157 1.160 . S
O155 C154 1.306 . S
O155 Cd156 2.228 . S
Cd156 O155 2.228 . S
Cd156 O160 2.273 . S
Cd156 O164 2.277 . S
O157 C154 1.160 . S
O157 Cd158 2.203 . S
Cd158 O157 2.203 . S
Cd158 O160 2.411 . S
Cd158 O161 2.333 . S
Cd158 O162 2.352 . S
Cd158 O166 2.277 . S
Cd158 O167 2.356 . S
C159 O164 1.209 . S
C159 O166 1.226 . S
O160 Cd156 2.273 . S
O160 Cd158 2.411 . S
O160 C163 1.320 . S
O161 Cd158 2.333 . S
O161 C163 1.214 . S
O162 Cd158 2.352 . S
O162 C165 1.258 . S
C163 O160 1.320 . S
C163 O161 1.214 . S
O164 Cd156 2.277 . S
O164 C159 1.209 . S
C165 O162 1.258 . S
C165 O167 1.282 . S
O166 Cd158 2.277 . S
O166 C159 1.226 . S
O167 Cd158 2.356 . S
O167 C165 1.282 . S
C168 O169 1.306 . S
C168 O171 1.160 . S
O169 C168 1.306 . S
O169 Cd170 2.228 . S
Cd170 O169 2.228 . S
Cd170 O174 2.273 . S
Cd170 O178 2.277 . S
O171 C168 1.160 . S
O171 Cd172 2.203 . S
Cd172 O171 2.203 . S
Cd172 O174 2.411 . S
Cd172 O175 2.333 . S
Cd172 O176 2.352 . S
Cd172 O180 2.277 . S
Cd172 O181 2.356 . S
C173 O178 1.209 . S
C173 O180 1.226 . S
O174 Cd170 2.273 . S
O174 Cd172 2.411 . S
O174 C177 1.320 . S
O175 Cd172 2.333 . S
O175 C177 1.214 . S
O176 Cd172 2.352 . S
O176 C179 1.258 . S
C177 O174 1.320 . S
C177 O175 1.214 . S
O178 Cd170 2.277 . S
O178 C173 1.209 . S
C179 O176 1.258 . S
C179 O181 1.282 . S
O180 Cd172 2.277 . S
O180 C173 1.226 . S
O181 Cd172 2.356 . S
O181 C179 1.282 . S
C182 O183 1.306 . S
C182 O185 1.160 . S
O183 C182 1.306 . S
O183 Cd184 2.228 . S
Cd184 O183 2.228 . S
Cd184 O188 2.273 . S
Cd184 O192 2.277 . S
O185 C182 1.160 . S
O185 Cd186 2.203 . S
Cd186 O185 2.203 . S
Cd186 O188 2.411 . S
Cd186 O189 2.333 . S
Cd186 O190 2.352 . S
Cd186 O194 2.277 . S
Cd186 O195 2.356 . S
C187 O192 1.209 . S
C187 O194 1.226 . S
O188 Cd184 2.273 . S
O188 Cd186 2.411 . S
O188 C191 1.320 . S
O189 Cd186 2.333 . S
O189 C191 1.214 . S
O190 Cd186 2.352 . S
O190 C193 1.258 . S
C191 O188 1.320 . S
C191 O189 1.214 . S
O192 Cd184 2.277 . S
O192 C187 1.209 . S
C193 O190 1.258 . S
C193 O195 1.282 . S
O194 Cd186 2.277 . S
O194 C187 1.226 . S
O195 Cd186 2.356 . S
O195 C193 1.282 . S
C196 O197 1.306 . S
C196 O199 1.160 . S
O197 C196 1.306 . S
O197 Cd198 2.228 . S
Cd198 O197 2.228 . S
Cd198 O202 2.273 . S
Cd198 O206 2.277 . S
O199 C196 1.160 . S
O199 Cd200 2.203 . S
Cd200 O199 2.203 . S
Cd200 O202 2.411 . S
Cd200 O203 2.333 . S
Cd200 O204 2.352 . S
Cd200 O208 2.277 . S
Cd200 O209 2.356 . S
C201 O206 1.209 . S
C201 O208 1.226 . S
O202 Cd198 2.273 . S
O202 Cd200 2.411 . S
O202 C205 1.320 . S
O203 Cd200 2.333 . S
O203 C205 1.214 . S
O204 Cd200 2.352 . S
O204 C207 1.258 . S
C205 O202 1.320 . S
C205 O203 1.214 . S
O206 Cd198 2.277 . S
O206 C201 1.209 . S
C207 O204 1.258 . S
C207 O209 1.282 . S
O208 Cd200 2.277 . S
O208 C201 1.226 . S
O209 Cd200 2.356 . S
O209 C207 1.282 . S
C210 O211 1.306 . S
C210 O213 1.160 . S
O211 C210 1.306 . S
O211 Cd212 2.228 . S
Cd212 O211 2.228 . S
Cd212 O216 2.273 . S
Cd212 O220 2.277 . S
O213 C210 1.160 . S
O213 Cd214 2.203 . S
Cd214 O213 2.203 . S
Cd214 O216 2.411 . S
Cd214 O217 2.333 . S
Cd214 O218 2.352 . S
Cd214 O222 2.277 . S
Cd214 O223 2.356 . S
C215 O220 1.209 . S
C215 O222 1.226 . S
O216 Cd212 2.273 . S
O216 Cd214 2.411 . S
O216 C219 1.320 . S
O217 Cd214 2.333 . S
O217 C219 1.214 . S
O218 Cd214 2.352 . S
O218 C221 1.258 . S
C219 O216 1.320 . S
C219 O217 1.214 . S
O220 Cd212 2.277 . S
O220 C215 1.209 . S
C221 O218 1.258 . S
C221 O223 1.282 . S
O222 Cd214 2.277 . S
O222 C215 1.226 . S
O223 Cd214 2.356 . S
O223 C221 1.282 . S
C224 O225 1.306 . S
C224 O227 1.160 . S
O225 C224 1.306 . S
O225 Cd226 2.228 . S
Cd226 O225 2.228 . S
Cd226 O230 2.273 . S
Cd226 O234 2.277 . S
O227 C224 1.160 . S
O227 Cd228 2.203 . S
Cd228 O227 2.203 . S
Cd228 O230 2.411 . S
Cd228 O231 2.333 . S
Cd228 O232 2.352 . S
Cd228 O236 2.277 . S
Cd228 O237 2.356 . S
C229 O234 1.209 . S
C229 O236 1.226 . S
O230 Cd226 2.273 . S
O230 Cd228 2.411 . S
O230 C233 1.320 . S
O231 Cd228 2.333 . S
O231 C233 1.214 . S
O232 Cd228 2.352 . S
O232 C235 1.258 . S
C233 O230 1.320 . S
C233 O231 1.214 . S
O234 Cd226 2.277 . S
O234 C229 1.209 . S
C235 O232 1.258 . S
C235 O237 1.282 . S
O236 Cd228 2.277 . S
O236 C229 1.226 . S
O237 Cd228 2.356 . S
O237 C235 1.282 . S
C238 O239 1.306 . S
C238 O241 1.160 . S
O239 C238 1.306 . S
O239 Cd240 2.228 . S
Cd240 O239 2.228 . S
Cd240 O244 2.273 . S
Cd240 O248 2.277 . S
O241 C238 1.160 . S
O241 Cd242 2.203 . S
Cd242 O241 2.203 . S
Cd242 O244 2.411 . S
Cd242 O245 2.333 . S
Cd242 O246 2.352 . S
Cd242 O250 2.277 . S
Cd242 O251 2.356 . S
C243 O248 1.209 . S
C243 O250 1.226 . S
O244 Cd240 2.273 . S
O244 Cd242 2.411 . S
O244 C247 1.320 . S
O245 Cd242 2.333 . S
O245 C247 1.214 . S
O246 Cd242 2.352 . S
O246 C249 1.258 . S
C247 O244 1.320 . S
C247 O245 1.214 . S
O248 Cd240 2.277 . S
O248 C243 1.209 . S
C249 O246 1.258 . S
C249 O251 1.282 . S
O250 Cd242 2.277 . S
O250 C243 1.226 . S
O251 Cd242 2.356 . S
O251 C249 1.282 . S
C252 O253 1.306 . S
C252 O255 1.160 . S
O253 C252 1.306 . S
O253 Cd254 2.228 . S
Cd254 O253 2.228 . S
Cd254 O258 2.273 . S
Cd254 O262 2.277 . S
O255 C252 1.160 . S
O255 Cd256 2.203 . S
Cd256 O255 2.203 . S
Cd256 O258 2.411 . S
Cd256 O259 2.333 . S
Cd256 O260 2.352 . S
Cd256 O264 2.277 . S
Cd256 O265 2.356 . S
C257 O262 1.209 . S
C257 O264 1.226 . S
O258 Cd254 2.273 . S
O258 Cd256 2.411 . S
O258 C261 1.320 . S
O259 Cd256 2.333 . S
O259 C261 1.214 . S
O260 Cd256 2.352 . S
O260 C263 1.258 . S
C261 O258 1.320 . S
C261 O259 1.214 . S
O262 Cd254 2.277 . S
O262 C257 1.209 . S
C263 O260 1.258 . S
C263 O265 1.282 . S
O264 Cd256 2.277 . S
O264 C257 1.226 . S
O265 Cd256 2.356 . S
O265 C263 1.282 . S
C266 O267 1.306 . S
C266 O269 1.160 . S
O267 C266 1.306 . S
O267 Cd268 2.228 . S
Cd268 O267 2.228 . S
Cd268 O272 2.273 . S
Cd268 O276 2.277 . S
O269 C266 1.160 . S
O269 Cd270 2.203 . S
Cd270 O269 2.203 . S
Cd270 O272 2.411 . S
Cd270 O273 2.333 . S
Cd270 O274 2.352 . S
Cd270 O278 2.277 . S
Cd270 O279 2.356 . S
C271 O276 1.209 . S
C271 O278 1.226 . S
O272 Cd268 2.273 . S
O272 Cd270 2.411 . S
O272 C275 1.320 . S
O273 Cd270 2.333 . S
O273 C275 1.214 . S
O274 Cd270 2.352 . S
O274 C277 1.258 . S
C275 O272 1.320 . S
C275 O273 1.214 . S
O276 Cd268 2.277 . S
O276 C271 1.209 . S
C277 O274 1.258 . S
C277 O279 1.282 . S
O278 Cd270 2.277 . S
O278 C271 1.226 . S
O279 Cd270 2.356 . S
O279 C277 1.282 . S
C280 O281 1.306 . S
C280 O283 1.160 . S
O281 C280 1.306 . S
O281 Cd282 2.228 . S
Cd282 O281 2.228 . S
Cd282 O286 2.273 . S
Cd282 O290 2.277 . S
O283 C280 1.160 . S
O283 Cd284 2.203 . S
Cd284 O283 2.203 . S
Cd284 O286 2.411 . S
Cd284 O287 2.333 . S
Cd284 O288 2.352 . S
Cd284 O292 2.277 . S
Cd284 O293 2.356 . S
C285 O290 1.209 . S
C285 O292 1.226 . S
O286 Cd282 2.273 . S
O286 Cd284 2.411 . S
O286 C289 1.320 . S
O287 Cd284 2.333 . S
O287 C289 1.214 . S
O288 Cd284 2.352 . S
O288 C291 1.258 . S
C289 O286 1.320 . S
C289 O287 1.214 . S
O290 Cd282 2.277 . S
O290 C285 1.209 . S
C291 O288 1.258 . S
C291 O293 1.282 . S
O292 Cd284 2.277 . S
O292 C285 1.226 . S
O293 Cd284 2.356 . S
O293 C291 1.282 . S
C294 O295 1.306 . S
C294 O297 1.160 . S
O295 C294 1.306 . S
O295 Cd296 2.228 1_556 S
Cd296 O295 2.228 1_554 S
Cd296 O300 2.273 . S
Cd296 O304 2.277 1_554 S
O297 C294 1.160 . S
O297 Cd298 2.203 . S
Cd298 O297 2.203 . S
Cd298 O300 2.411 1_556 S
Cd298 O301 2.333 1_556 S
Cd298 O302 2.352 1_556 S
Cd298 O306 2.277 . S
Cd298 O307 2.356 . S
C299 O304 1.209 . S
C299 O306 1.226 . S
O300 Cd296 2.273 . S
O300 Cd298 2.411 1_554 S
O300 C303 1.320 . S
O301 Cd298 2.333 1_554 S
O301 C303 1.214 . S
O302 Cd298 2.352 1_554 S
O302 C305 1.258 . S
C303 O300 1.320 . S
C303 O301 1.214 . S
O304 Cd296 2.277 1_556 S
O304 C299 1.209 . S
C305 O302 1.258 . S
C305 O307 1.282 1_554 S
O306 Cd298 2.277 . S
O306 C299 1.226 . S
O307 Cd298 2.356 . S
O307 C305 1.282 1_556 S
C308 O309 1.306 . S
C308 O311 1.160 . S
O309 C308 1.306 . S
O309 Cd310 2.228 1_556 S
Cd310 O309 2.228 1_554 S
Cd310 O314 2.273 . S
Cd310 O318 2.277 1_554 S
O311 C308 1.160 . S
O311 Cd312 2.203 . S
Cd312 O311 2.203 . S
Cd312 O314 2.411 1_556 S
Cd312 O315 2.333 1_556 S
Cd312 O316 2.352 1_556 S
Cd312 O320 2.277 . S
Cd312 O321 2.356 . S
C313 O318 1.209 . S
C313 O320 1.226 . S
O314 Cd310 2.273 . S
O314 Cd312 2.411 1_554 S
O314 C317 1.320 . S
O315 Cd312 2.333 1_554 S
O315 C317 1.214 . S
O316 Cd312 2.352 1_554 S
O316 C319 1.258 . S
C317 O314 1.320 . S
C317 O315 1.214 . S
O318 Cd310 2.277 1_556 S
O318 C313 1.209 . S
C319 O316 1.258 . S
C319 O321 1.282 1_554 S
O320 Cd312 2.277 . S
O320 C313 1.226 . S
O321 Cd312 2.356 . S
O321 C319 1.282 1_556 S
C322 O323 1.306 . S
C322 O325 1.160 . S
O323 C322 1.306 . S
O323 Cd324 2.228 1_556 S
Cd324 O323 2.228 1_554 S
Cd324 O328 2.273 . S
Cd324 O332 2.277 1_554 S
O325 C322 1.160 . S
O325 Cd326 2.203 . S
Cd326 O325 2.203 . S
Cd326 O328 2.411 1_556 S
Cd326 O329 2.333 1_556 S
Cd326 O330 2.352 1_556 S
Cd326 O334 2.277 . S
Cd326 O335 2.356 . S
C327 O332 1.209 . S
C327 O334 1.226 . S
O328 Cd324 2.273 . S
O328 Cd326 2.411 1_554 S
O328 C331 1.320 . S
O329 Cd326 2.333 1_554 S
O329 C331 1.214 . S
O330 Cd326 2.352 1_554 S
O330 C333 1.258 . S
C331 O328 1.320 . S
C331 O329 1.214 . S
O332 Cd324 2.277 1_556 S
O332 C327 1.209 . S
C333 O330 1.258 . S
C333 O335 1.282 1_554 S
O334 Cd326 2.277 . S
O334 C327 1.226 . S
O335 Cd326 2.356 . S
O335 C333 1.282 1_556 S
C336 O337 1.306 . S
C336 O339 1.160 . S
O337 C336 1.306 . S
O337 Cd338 2.228 . S
Cd338 O337 2.228 . S
Cd338 O342 2.273 . S
Cd338 O346 2.277 . S
O339 C336 1.160 . S
O339 Cd340 2.203 . S
Cd340 O339 2.203 . S
Cd340 O342 2.411 . S
Cd340 O343 2.333 . S
Cd340 O344 2.352 . S
Cd340 O348 2.277 . S
Cd340 O349 2.356 . S
C341 O346 1.209 . S
C341 O348 1.226 . S
O342 Cd338 2.273 . S
O342 Cd340 2.411 . S
O342 C345 1.320 . S
O343 Cd340 2.333 . S
O343 C345 1.214 . S
O344 Cd340 2.352 . S
O344 C347 1.258 . S
C345 O342 1.320 . S
C345 O343 1.214 . S
O346 Cd338 2.277 . S
O346 C341 1.209 . S
C347 O344 1.258 . S
C347 O349 1.282 . S
O348 Cd340 2.277 . S
O348 C341 1.226 . S
O349 Cd340 2.356 . S
O349 C347 1.282 . S
C350 O351 1.306 . S
C350 O353 1.160 . S
O351 C350 1.306 . S
O351 Cd352 2.228 . S
Cd352 O351 2.228 . S
Cd352 O356 2.273 . S
Cd352 O360 2.277 . S
O353 C350 1.160 . S
O353 Cd354 2.203 . S
Cd354 O353 2.203 . S
Cd354 O356 2.411 . S
Cd354 O357 2.333 . S
Cd354 O358 2.352 . S
Cd354 O362 2.277 . S
Cd354 O363 2.356 . S
C355 O360 1.209 . S
C355 O362 1.226 . S
O356 Cd352 2.273 . S
O356 Cd354 2.411 . S
O356 C359 1.320 . S
O357 Cd354 2.333 . S
O357 C359 1.214 . S
O358 Cd354 2.352 . S
O358 C361 1.258 . S
C359 O356 1.320 . S
C359 O357 1.214 . S
O360 Cd352 2.277 . S
O360 C355 1.209 . S
C361 O358 1.258 . S
C361 O363 1.282 . S
O362 Cd354 2.277 . S
O362 C355 1.226 . S
O363 Cd354 2.356 . S
O363 C361 1.282 . S
C364 O365 1.306 . S
C364 O367 1.160 . S
O365 C364 1.306 . S
O365 Cd366 2.228 . S
Cd366 O365 2.228 . S
Cd366 O370 2.273 . S
Cd366 O374 2.277 . S
O367 C364 1.160 . S
O367 Cd368 2.203 . S
Cd368 O367 2.203 . S
Cd368 O370 2.411 . S
Cd368 O371 2.333 . S
Cd368 O372 2.352 . S
Cd368 O376 2.277 . S
Cd368 O377 2.356 . S
C369 O374 1.209 . S
C369 O376 1.226 . S
O370 Cd366 2.273 . S
O370 Cd368 2.411 . S
O370 C373 1.320 . S
O371 Cd368 2.333 . S
O371 C373 1.214 . S
O372 Cd368 2.352 . S
O372 C375 1.258 . S
C373 O370 1.320 . S
C373 O371 1.214 . S
O374 Cd366 2.277 . S
O374 C369 1.209 . S
C375 O372 1.258 . S
C375 O377 1.282 . S
O376 Cd368 2.277 . S
O376 C369 1.226 . S
O377 Cd368 2.356 . S
O377 C375 1.282 . S
C378 O379 1.306 . S
C378 O381 1.160 . S
O379 C378 1.306 . S
O379 Cd380 2.228 1_554 S
Cd380 O379 2.228 1_556 S
Cd380 O384 2.273 . S
Cd380 O388 2.277 1_556 S
O381 C378 1.160 . S
O381 Cd382 2.203 . S
Cd382 O381 2.203 . S
Cd382 O384 2.411 1_554 S
Cd382 O385 2.333 1_554 S
Cd382 O386 2.352 1_554 S
Cd382 O390 2.277 . S
Cd382 O391 2.356 . S
C383 O388 1.209 . S
C383 O390 1.226 . S
O384 Cd380 2.273 . S
O384 Cd382 2.411 1_556 S
O384 C387 1.320 . S
O385 Cd382 2.333 1_556 S
O385 C387 1.214 . S
O386 Cd382 2.352 1_556 S
O386 C389 1.258 . S
C387 O384 1.320 . S
C387 O385 1.214 . S
O388 Cd380 2.277 1_554 S
O388 C383 1.209 . S
C389 O386 1.258 . S
C389 O391 1.282 1_556 S
O390 Cd382 2.277 . S
O390 C383 1.226 . S
O391 Cd382 2.356 . S
O391 C389 1.282 1_554 S
C392 O393 1.306 . S
C392 O395 1.160 . S
O393 C392 1.306 . S
O393 Cd394 2.228 1_554 S
Cd394 O393 2.228 1_556 S
Cd394 O398 2.273 . S
Cd394 O402 2.277 1_556 S
O395 C392 1.160 . S
O395 Cd396 2.203 . S
Cd396 O395 2.203 . S
Cd396 O398 2.411 1_554 S
Cd396 O399 2.333 1_554 S
Cd396 O400 2.352 1_554 S
Cd396 O404 2.277 . S
Cd396 O405 2.356 . S
C397 O402 1.209 . S
C397 O404 1.226 . S
O398 Cd394 2.273 . S
O398 Cd396 2.411 1_556 S
O398 C401 1.320 . S
O399 Cd396 2.333 1_556 S
O399 C401 1.214 . S
O400 Cd396 2.352 1_556 S
O400 C403 1.258 . S
C401 O398 1.320 . S
C401 O399 1.214 . S
O402 Cd394 2.277 1_554 S
O402 C397 1.209 . S
C403 O400 1.258 . S
C403 O405 1.282 1_556 S
O404 Cd396 2.277 . S
O404 C397 1.226 . S
O405 Cd396 2.356 . S
O405 C403 1.282 1_554 S
C406 O407 1.306 . S
C406 O409 1.160 . S
O407 C406 1.306 . S
O407 Cd408 2.228 1_554 S
Cd408 O407 2.228 1_556 S
Cd408 O412 2.273 . S
Cd408 O416 2.277 1_556 S
O409 C406 1.160 . S
O409 Cd410 2.203 . S
Cd410 O409 2.203 . S
Cd410 O412 2.411 1_554 S
Cd410 O413 2.333 1_554 S
Cd410 O414 2.352 1_554 S
Cd410 O418 2.277 . S
Cd410 O419 2.356 . S
C411 O416 1.209 . S
C411 O418 1.226 . S
O412 Cd408 2.273 . S
O412 Cd410 2.411 1_556 S
O412 C415 1.320 . S
O413 Cd410 2.333 1_556 S
O413 C415 1.214 . S
O414 Cd410 2.352 1_556 S
O414 C417 1.258 . S
C415 O412 1.320 . S
C415 O413 1.214 . S
O416 Cd408 2.277 1_554 S
O416 C411 1.209 . S
C417 O414 1.258 . S
C417 O419 1.282 1_556 S
O418 Cd410 2.277 . S
O418 C411 1.226 . S
O419 Cd410 2.356 . S
O419 C417 1.282 1_554 S
C420 O421 1.306 . S
C420 O423 1.160 . S
O421 C420 1.306 . S
O421 Cd422 2.228 . S
Cd422 O421 2.228 . S
Cd422 O426 2.273 . S
Cd422 O430 2.277 . S
O423 C420 1.160 . S
O423 Cd424 2.203 . S
Cd424 O423 2.203 . S
Cd424 O426 2.411 . S
Cd424 O427 2.333 . S
Cd424 O428 2.352 . S
Cd424 O432 2.277 . S
Cd424 O433 2.356 . S
C425 O430 1.209 . S
C425 O432 1.226 . S
O426 Cd422 2.273 . S
O426 Cd424 2.411 . S
O426 C429 1.320 . S
O427 Cd424 2.333 . S
O427 C429 1.214 . S
O428 Cd424 2.352 . S
O428 C431 1.258 . S
C429 O426 1.320 . S
C429 O427 1.214 . S
O430 Cd422 2.277 . S
O430 C425 1.209 . S
C431 O428 1.258 . S
C431 O433 1.282 . S
O432 Cd424 2.277 . S
O432 C425 1.226 . S
O433 Cd424 2.356 . S
O433 C431 1.282 . S
C434 O435 1.306 . S
C434 O437 1.160 . S
O435 C434 1.306 . S
O435 Cd436 2.228 . S
Cd436 O435 2.228 . S
Cd436 O440 2.273 . S
Cd436 O444 2.277 . S
O437 C434 1.160 . S
O437 Cd438 2.203 . S
Cd438 O437 2.203 . S
Cd438 O440 2.411 . S
Cd438 O441 2.333 . S
Cd438 O442 2.352 . S
Cd438 O446 2.277 . S
Cd438 O447 2.356 . S
C439 O444 1.209 . S
C439 O446 1.226 . S
O440 Cd436 2.273 . S
O440 Cd438 2.411 . S
O440 C443 1.320 . S
O441 Cd438 2.333 . S
O441 C443 1.214 . S
O442 Cd438 2.352 . S
O442 C445 1.258 . S
C443 O440 1.320 . S
C443 O441 1.214 . S
O444 Cd436 2.277 . S
O444 C439 1.209 . S
C445 O442 1.258 . S
C445 O447 1.282 . S
O446 Cd438 2.277 . S
O446 C439 1.226 . S
O447 Cd438 2.356 . S
O447 C445 1.282 . S
C448 O449 1.306 . S
C448 O451 1.160 . S
O449 C448 1.306 . S
O449 Cd450 2.228 . S
Cd450 O449 2.228 . S
Cd450 O454 2.273 . S
Cd450 O458 2.277 . S
O451 C448 1.160 . S
O451 Cd452 2.203 . S
Cd452 O451 2.203 . S
Cd452 O454 2.411 . S
Cd452 O455 2.333 . S
Cd452 O456 2.352 . S
Cd452 O460 2.277 . S
Cd452 O461 2.356 . S
C453 O458 1.209 . S
C453 O460 1.226 . S
O454 Cd450 2.273 . S
O454 Cd452 2.411 . S
O454 C457 1.320 . S
O455 Cd452 2.333 . S
O455 C457 1.214 . S
O456 Cd452 2.352 . S
O456 C459 1.258 . S
C457 O454 1.320 . S
C457 O455 1.214 . S
O458 Cd450 2.277 . S
O458 C453 1.209 . S
C459 O456 1.258 . S
C459 O461 1.282 . S
O460 Cd452 2.277 . S
O460 C453 1.226 . S
O461 Cd452 2.356 . S
O461 C459 1.282 . S
C462 O463 1.306 . S
C462 O465 1.160 . S
O463 C462 1.306 . S
O463 Cd464 2.228 . S
Cd464 O463 2.228 . S
Cd464 O468 2.273 . S
Cd464 O472 2.277 . S
O465 C462 1.160 . S
O465 Cd466 2.203 . S
Cd466 O465 2.203 . S
Cd466 O468 2.411 . S
Cd466 O469 2.333 . S
Cd466 O470 2.352 . S
Cd466 O474 2.277 . S
Cd466 O475 2.356 . S
C467 O472 1.209 . S
C467 O474 1.226 . S
O468 Cd464 2.273 . S
O468 Cd466 2.411 . S
O468 C471 1.320 . S
O469 Cd466 2.333 . S
O469 C471 1.214 . S
O470 Cd466 2.352 . S
O470 C473 1.258 . S
C471 O468 1.320 . S
C471 O469 1.214 . S
O472 Cd464 2.277 . S
O472 C467 1.209 . S
C473 O470 1.258 . S
C473 O475 1.282 . S
O474 Cd466 2.277 . S
O474 C467 1.226 . S
O475 Cd466 2.356 . S
O475 C473 1.282 . S
C476 O477 1.306 . S
C476 O479 1.160 . S
O477 C476 1.306 . S
O477 Cd478 2.228 . S
Cd478 O477 2.228 . S
Cd478 O482 2.273 . S
Cd478 O486 2.277 . S
O479 C476 1.160 . S
O479 Cd480 2.203 . S
Cd480 O479 2.203 . S
Cd480 O482 2.411 . S
Cd480 O483 2.333 . S
Cd480 O484 2.352 . S
Cd480 O488 2.277 . S
Cd480 O489 2.356 . S
C481 O486 1.209 . S
C481 O488 1.226 . S
O482 Cd478 2.273 . S
O482 Cd480 2.411 . S
O482 C485 1.320 . S
O483 Cd480 2.333 . S
O483 C485 1.214 . S
O484 Cd480 2.352 . S
O484 C487 1.258 . S
C485 O482 1.320 . S
C485 O483 1.214 . S
O486 Cd478 2.277 . S
O486 C481 1.209 . S
C487 O484 1.258 . S
C487 O489 1.282 . S
O488 Cd480 2.277 . S
O488 C481 1.226 . S
O489 Cd480 2.356 . S
O489 C487 1.282 . S
C490 O491 1.306 . S
C490 O493 1.160 . S
O491 C490 1.306 . S
O491 Cd492 2.228 . S
Cd492 O491 2.228 . S
Cd492 O496 2.273 . S
Cd492 O500 2.277 . S
O493 C490 1.160 . S
O493 Cd494 2.203 . S
Cd494 O493 2.203 . S
Cd494 O496 2.411 . S
Cd494 O497 2.333 . S
Cd494 O498 2.352 . S
Cd494 O502 2.277 . S
Cd494 O503 2.356 . S
C495 O500 1.209 . S
C495 O502 1.226 . S
O496 Cd492 2.273 . S
O496 Cd494 2.411 . S
O496 C499 1.320 . S
O497 Cd494 2.333 . S
O497 C499 1.214 . S
O498 Cd494 2.352 . S
O498 C501 1.258 . S
C499 O496 1.320 . S
C499 O497 1.214 . S
O500 Cd492 2.277 . S
O500 C495 1.209 . S
C501 O498 1.258 . S
C501 O503 1.282 . S
O502 Cd494 2.277 . S
O502 C495 1.226 . S
O503 Cd494 2.356 . S
O503 C501 1.282 . S
C504 C505 1.369 . S
C504 C506 1.419 . S
C504 H508 0.930 . S
C505 C504 1.369 . S
C505 C514 1.429 . S
C506 C504 1.419 . S
C506 C507 1.363 . S
C506 H509 0.929 . S
C507 C506 1.363 . S
C507 C513 1.428 . S
H508 C504 0.930 . S
H509 C506 0.929 . S
S510 N511 1.613 . S
S510 N512 1.610 . S
N511 S510 1.613 . S
N511 C514 1.350 . S
N512 S510 1.610 . S
N512 C513 1.351 . S
C513 C507 1.428 . S
C513 N512 1.351 . S
C513 C514 1.434 . S
C514 C505 1.429 . S
C514 N511 1.350 . S
C514 C513 1.434 . S
C515 C516 1.369 . S
C515 C517 1.419 1_545 S
C515 H519 0.930 . S
C516 C515 1.369 . S
C516 C525 1.429 . S
C517 C515 1.419 1_565 S
C517 C518 1.363 . S
C517 H520 0.929 . S
C518 C517 1.363 . S
C518 C524 1.428 . S
H519 C515 0.930 . S
H520 C517 0.929 . S
S521 N522 1.613 1_565 S
S521 N523 1.610 . S
N522 S521 1.613 1_545 S
N522 C525 1.350 . S
N523 S521 1.610 . S
N523 C524 1.351 . S
C524 C518 1.428 . S
C524 N523 1.351 . S
C524 C525 1.434 1_565 S
C525 C516 1.429 . S
C525 N522 1.350 . S
C525 C524 1.434 1_545 S
C526 C527 1.369 . S
C526 C528 1.419 1_655 S
C526 H530 0.930 . S
C527 C526 1.369 . S
C527 C536 1.429 . S
C528 C526 1.419 1_455 S
C528 C529 1.363 . S
C528 H531 0.929 . S
C529 C528 1.363 . S
C529 C535 1.428 . S
H530 C526 0.930 . S
H531 C528 0.929 . S
S532 N533 1.613 1_455 S
S532 N534 1.610 . S
N533 S532 1.613 1_655 S
N533 C536 1.350 . S
N534 S532 1.610 . S
N534 C535 1.351 . S
C535 C529 1.428 . S
C535 N534 1.351 . S
C535 C536 1.434 1_455 S
C536 C527 1.429 . S
C536 N533 1.350 . S
C536 C535 1.434 1_655 S
C537 C538 1.369 . S
C537 C539 1.419 . S
C537 H541 0.930 . S
C538 C537 1.369 . S
C538 C547 1.429 . S
C539 C537 1.419 . S
C539 C540 1.363 . S
C539 H542 0.929 . S
C540 C539 1.363 . S
C540 C546 1.428 . S
H541 C537 0.930 . S
H542 C539 0.929 . S
S543 N544 1.613 . S
S543 N545 1.610 . S
N544 S543 1.613 . S
N544 C547 1.350 . S
N545 S543 1.610 . S
N545 C546 1.351 . S
C546 C540 1.428 . S
C546 N545 1.351 . S
C546 C547 1.434 . S
C547 C538 1.429 . S
C547 N544 1.350 . S
C547 C546 1.434 . S
C548 C549 1.369 . S
C548 C550 1.419 1_545 S
C548 H552 0.930 . S
C549 C548 1.369 . S
C549 C558 1.429 . S
C550 C548 1.419 1_565 S
C550 C551 1.363 . S
C550 H553 0.929 . S
C551 C550 1.363 . S
C551 C557 1.428 . S
H552 C548 0.930 . S
H553 C550 0.929 . S
S554 N555 1.613 1_565 S
S554 N556 1.610 . S
N555 S554 1.613 1_545 S
N555 C558 1.350 . S
N556 S554 1.610 . S
N556 C557 1.351 . S
C557 C551 1.428 . S
C557 N556 1.351 . S
C557 C558 1.434 1_565 S
C558 C549 1.429 . S
C558 N555 1.350 . S
C558 C557 1.434 1_545 S
C559 C560 1.369 . S
C559 C561 1.419 1_455 S
C559 H563 0.930 . S
C560 C559 1.369 . S
C560 C569 1.429 . S
C561 C559 1.419 1_655 S
C561 C562 1.363 . S
C561 H564 0.929 . S
C562 C561 1.363 . S
C562 C568 1.428 . S
H563 C559 0.930 . S
H564 C561 0.929 . S
S565 N566 1.613 1_655 S
S565 N567 1.610 . S
N566 S565 1.613 1_455 S
N566 C569 1.350 . S
N567 S565 1.610 . S
N567 C568 1.351 . S
C568 C562 1.428 . S
C568 N567 1.351 . S
C568 C569 1.434 1_655 S
C569 C560 1.429 . S
C569 N566 1.350 . S
C569 C568 1.434 1_455 S
C570 C571 1.369 . S
C570 C572 1.419 . S
C570 H574 0.930 . S
C571 C570 1.369 . S
C571 C580 1.429 . S
C572 C570 1.419 . S
C572 C573 1.363 . S
C572 H575 0.929 . S
C573 C572 1.363 . S
C573 C579 1.428 . S
H574 C570 0.930 . S
H575 C572 0.929 . S
S576 N577 1.613 . S
S576 N578 1.610 . S
N577 S576 1.613 . S
N577 C580 1.350 . S
N578 S576 1.610 . S
N578 C579 1.351 . S
C579 C573 1.428 . S
C579 N578 1.351 . S
C579 C580 1.434 . S
C580 C571 1.429 . S
C580 N577 1.350 . S
C580 C579 1.434 . S
C581 C582 1.369 . S
C581 C583 1.419 . S
C581 H585 0.930 . S
C582 C581 1.369 . S
C582 C591 1.429 . S
C583 C581 1.419 . S
C583 C584 1.363 . S
C583 H586 0.929 . S
C584 C583 1.363 . S
C584 C590 1.428 . S
H585 C581 0.930 . S
H586 C583 0.929 . S
S587 N588 1.613 . S
S587 N589 1.610 . S
N588 S587 1.613 . S
N588 C591 1.350 . S
N589 S587 1.610 . S
N589 C590 1.351 . S
C590 C584 1.428 . S
C590 N589 1.351 . S
C590 C591 1.434 . S
C591 C582 1.429 . S
C591 N588 1.350 . S
C591 C590 1.434 . S
C592 C593 1.369 . S
C592 C594 1.419 . S
C592 H596 0.930 . S
C593 C592 1.369 . S
C593 C602 1.429 . S
C594 C592 1.419 . S
C594 C595 1.363 . S
C594 H597 0.929 . S
C595 C594 1.363 . S
C595 C601 1.428 . S
H596 C592 0.930 . S
H597 C594 0.929 . S
S598 N599 1.613 . S
S598 N600 1.610 . S
N599 S598 1.613 . S
N599 C602 1.350 . S
N600 S598 1.610 . S
N600 C601 1.351 . S
C601 C595 1.428 . S
C601 N600 1.351 . S
C601 C602 1.434 . S
C602 C593 1.429 . S
C602 N599 1.350 . S
C602 C601 1.434 . S
C603 C604 1.369 . S
C603 C605 1.419 . S
C603 H607 0.930 . S
C604 C603 1.369 . S
C604 C613 1.429 . S
C605 C603 1.419 . S
C605 C606 1.363 . S
C605 H608 0.929 1_554 S
C606 C605 1.363 . S
C606 C612 1.428 . S
H607 C603 0.930 . S
H608 C605 0.929 1_556 S
S609 N610 1.613 . S
S609 N611 1.610 . S
N610 S609 1.613 . S
N610 C613 1.350 . S
N611 S609 1.610 . S
N611 C612 1.351 . S
C612 C606 1.428 . S
C612 N611 1.351 . S
C612 C613 1.434 . S
C613 C604 1.429 . S
C613 N610 1.350 . S
C613 C612 1.434 . S
C614 C615 1.369 . S
C614 C616 1.419 . S
C614 H618 0.930 . S
C615 C614 1.369 . S
C615 C624 1.429 . S
C616 C614 1.419 . S
C616 C617 1.363 . S
C616 H619 0.929 . S
C617 C616 1.363 . S
C617 C623 1.428 . S
H618 C614 0.930 . S
H619 C616 0.929 . S
S620 N621 1.613 . S
S620 N622 1.610 1_556 S
N621 S620 1.613 . S
N621 C624 1.350 1_556 S
N622 S620 1.610 1_554 S
N622 C623 1.351 . S
C623 C617 1.428 . S
C623 N622 1.351 . S
C623 C624 1.434 . S
C624 C615 1.429 . S
C624 N621 1.350 1_554 S
C624 C623 1.434 . S
C625 C626 1.369 . S
C625 C627 1.419 . S
C625 H629 0.930 . S
C626 C625 1.369 . S
C626 C635 1.429 . S
C627 C625 1.419 . S
C627 C628 1.363 . S
C627 H630 0.929 . S
C628 C627 1.363 . S
C628 C634 1.428 . S
H629 C625 0.930 . S
H630 C627 0.929 . S
S631 N632 1.613 . S
S631 N633 1.610 . S
N632 S631 1.613 . S
N632 C635 1.350 . S
N633 S631 1.610 . S
N633 C634 1.351 . S
C634 C628 1.428 . S
C634 N633 1.351 . S
C634 C635 1.434 . S
C635 C626 1.429 . S
C635 N632 1.350 . S
C635 C634 1.434 . S
C636 C637 1.369 . S
C636 C638 1.419 . S
C636 H640 0.930 . S
C637 C636 1.369 . S
C637 C646 1.429 . S
C638 C636 1.419 . S
C638 C639 1.363 . S
C638 H641 0.929 1_556 S
C639 C638 1.363 . S
C639 C645 1.428 . S
H640 C636 0.930 . S
H641 C638 0.929 1_554 S
S642 N643 1.613 . S
S642 N644 1.610 . S
N643 S642 1.613 . S
N643 C646 1.350 . S
N644 S642 1.610 . S
N644 C645 1.351 . S
C645 C639 1.428 . S
C645 N644 1.351 . S
C645 C646 1.434 . S
C646 C637 1.429 . S
C646 N643 1.350 . S
C646 C645 1.434 . S
C647 C648 1.369 . S
C647 C649 1.419 . S
C647 H651 0.930 . S
C648 C647 1.369 . S
C648 C657 1.429 . S
C649 C647 1.419 . S
C649 C650 1.363 . S
C649 H652 0.929 . S
C650 C649 1.363 . S
C650 C656 1.428 . S
H651 C647 0.930 . S
H652 C649 0.929 . S
S653 N654 1.613 1_554 S
S653 N655 1.610 . S
N654 S653 1.613 1_556 S
N654 C657 1.350 . S
N655 S653 1.610 . S
N655 C656 1.351 1_554 S
C656 C650 1.428 . S
C656 N655 1.351 1_556 S
C656 C657 1.434 . S
C657 C648 1.429 . S
C657 N654 1.350 . S
C657 C656 1.434 . S
C658 C659 1.369 . S
C658 C660 1.419 . S
C658 H662 0.930 . S
C659 C658 1.369 . S
C659 C668 1.429 . S
C660 C658 1.419 . S
C660 C661 1.363 . S
C660 H663 0.929 . S
C661 C660 1.363 . S
C661 C667 1.428 . S
H662 C658 0.930 . S
H663 C660 0.929 . S
S664 N665 1.613 . S
S664 N666 1.610 . S
N665 S664 1.613 . S
N665 C668 1.350 . S
N666 S664 1.610 . S
N666 C667 1.351 . S
C667 C661 1.428 . S
C667 N666 1.351 . S
C667 C668 1.434 . S
C668 C659 1.429 . S
C668 N665 1.350 . S
C668 C667 1.434 . S
C669 C670 1.369 . S
C669 C671 1.419 . S
C669 H673 0.930 . S
C670 C669 1.369 . S
C670 C679 1.429 . S
C671 C669 1.419 . S
C671 C672 1.363 . S
C671 H674 0.929 . S
C672 C671 1.363 . S
C672 C678 1.428 . S
H673 C669 0.930 . S
H674 C671 0.929 . S
S675 N676 1.613 . S
S675 N677 1.610 . S
N676 S675 1.613 . S
N676 C679 1.350 . S
N677 S675 1.610 . S
N677 C678 1.351 . S
C678 C672 1.428 . S
C678 N677 1.351 . S
C678 C679 1.434 . S
C679 C670 1.429 . S
C679 N676 1.350 . S
C679 C678 1.434 . S
C680 C681 1.369 . S
C680 C682 1.419 . S
C680 H684 0.930 . S
C681 C680 1.369 . S
C681 C690 1.429 . S
C682 C680 1.419 . S
C682 C683 1.363 . S
C682 H685 0.929 . S
C683 C682 1.363 . S
C683 C689 1.428 . S
H684 C680 0.930 . S
H685 C682 0.929 . S
S686 N687 1.613 . S
S686 N688 1.610 . S
N687 S686 1.613 . S
N687 C690 1.350 . S
N688 S686 1.610 . S
N688 C689 1.351 . S
C689 C683 1.428 . S
C689 N688 1.351 . S
C689 C690 1.434 . S
C690 C681 1.429 . S
C690 N687 1.350 . S
C690 C689 1.434 . S
C691 C692 1.369 . S
C691 C693 1.419 . S
C691 H695 0.930 . S
C692 C691 1.369 . S
C692 C701 1.429 . S
C693 C691 1.419 . S
C693 C694 1.363 . S
C693 H696 0.929 . S
C694 C693 1.363 . S
C694 C700 1.428 . S
H695 C691 0.930 . S
H696 C693 0.929 . S
S697 N698 1.613 . S
S697 N699 1.610 . S
N698 S697 1.613 . S
N698 C701 1.350 . S
N699 S697 1.610 . S
N699 C700 1.351 . S
C700 C694 1.428 . S
C700 N699 1.351 . S
C700 C701 1.434 . S
C701 C692 1.429 . S
C701 N698 1.350 . S
C701 C700 1.434 . S
C702 C703 1.369 . S
C702 C704 1.419 . S
C702 H706 0.930 . S
C703 C702 1.369 . S
C703 C712 1.429 . S
C704 C702 1.419 . S
C704 C705 1.363 . S
C704 H707 0.929 . S
C705 C704 1.363 . S
C705 C711 1.428 . S
H706 C702 0.930 . S
H707 C704 0.929 . S
S708 N709 1.613 1_554 S
S708 N710 1.610 . S
N709 S708 1.613 1_556 S
N709 C712 1.350 . S
N710 S708 1.610 . S
N710 C711 1.351 1_554 S
C711 C705 1.428 . S
C711 N710 1.351 1_556 S
C711 C712 1.434 . S
C712 C703 1.429 . S
C712 N709 1.350 . S
C712 C711 1.434 . S
C713 C714 1.369 . S
C713 C715 1.419 . S
C713 H717 0.930 . S
C714 C713 1.369 . S
C714 C723 1.429 . S
C715 C713 1.419 . S
C715 C716 1.363 . S
C715 H718 0.929 . S
C716 C715 1.363 . S
C716 C722 1.428 . S
H717 C713 0.930 . S
H718 C715 0.929 . S
S719 N720 1.613 . S
S719 N721 1.610 . S
N720 S719 1.613 . S
N720 C723 1.350 . S
N721 S719 1.610 . S
N721 C722 1.351 . S
C722 C716 1.428 . S
C722 N721 1.351 . S
C722 C723 1.434 . S
C723 C714 1.429 . S
C723 N720 1.350 . S
C723 C722 1.434 . S
C724 C725 1.369 . S
C724 C726 1.419 . S
C724 H728 0.930 . S
C725 C724 1.369 . S
C725 C734 1.429 . S
C726 C724 1.419 . S
C726 C727 1.363 . S
C726 H729 0.929 . S
C727 C726 1.363 . S
C727 C733 1.428 . S
H728 C724 0.930 . S
H729 C726 0.929 . S
S730 N731 1.613 1_556 S
S730 N732 1.610 . S
N731 S730 1.613 1_554 S
N731 C734 1.350 1_554 S
N732 S730 1.610 . S
N732 C733 1.351 . S
C733 C727 1.428 . S
C733 N732 1.351 . S
C733 C734 1.434 . S
C734 C725 1.429 . S
C734 N731 1.350 1_556 S
C734 C733 1.434 . S
C735 C736 1.369 . S
C735 C737 1.419 . S
C735 H739 0.930 . S
C736 C735 1.369 . S
C736 C745 1.429 . S
C737 C735 1.419 . S
C737 C738 1.363 . S
C737 H740 0.929 . S
C738 C737 1.363 . S
C738 C744 1.428 . S
H739 C735 0.930 . S
H740 C737 0.929 . S
S741 N742 1.613 . S
S741 N743 1.610 . S
N742 S741 1.613 . S
N742 C745 1.350 . S
N743 S741 1.610 . S
N743 C744 1.351 . S
C744 C738 1.428 . S
C744 N743 1.351 . S
C744 C745 1.434 . S
C745 C736 1.429 . S
C745 N742 1.350 . S
C745 C744 1.434 . S
C746 C747 1.369 . S
C746 C748 1.419 . S
C746 H750 0.930 . S
C747 C746 1.369 . S
C747 C756 1.429 . S
C748 C746 1.419 . S
C748 C749 1.363 . S
C748 H751 0.929 . S
C749 C748 1.363 . S
C749 C755 1.428 . S
H750 C746 0.930 . S
H751 C748 0.929 . S
S752 N753 1.613 . S
S752 N754 1.610 . S
N753 S752 1.613 . S
N753 C756 1.350 . S
N754 S752 1.610 . S
N754 C755 1.351 . S
C755 C749 1.428 . S
C755 N754 1.351 . S
C755 C756 1.434 . S
C756 C747 1.429 . S
C756 N753 1.350 . S
C756 C755 1.434 . S
C757 C758 1.369 . S
C757 C759 1.419 . S
C757 H761 0.930 . S
C758 C757 1.369 . S
C758 C767 1.429 . S
C759 C757 1.419 . S
C759 C760 1.363 . S
C759 H762 0.929 . S
C760 C759 1.363 . S
C760 C766 1.428 . S
H761 C757 0.930 . S
H762 C759 0.929 . S
S763 N764 1.613 . S
S763 N765 1.610 . S
N764 S763 1.613 . S
N764 C767 1.350 . S
N765 S763 1.610 . S
N765 C766 1.351 . S
C766 C760 1.428 . S
C766 N765 1.351 . S
C766 C767 1.434 . S
C767 C758 1.429 . S
C767 N764 1.350 . S
C767 C766 1.434 . S
C768 C769 1.369 . S
C768 C770 1.419 . S
C768 H772 0.930 . S
C769 C768 1.369 . S
C769 C778 1.429 . S
C770 C768 1.419 . S
C770 C771 1.363 . S
C770 H773 0.929 . S
C771 C770 1.363 . S
C771 C777 1.428 . S
H772 C768 0.930 . S
H773 C770 0.929 . S
S774 N775 1.613 . S
S774 N776 1.610 . S
N775 S774 1.613 . S
N775 C778 1.350 . S
N776 S774 1.610 . S
N776 C777 1.351 . S
C777 C771 1.428 . S
C777 N776 1.351 . S
C777 C778 1.434 . S
C778 C769 1.429 . S
C778 N775 1.350 . S
C778 C777 1.434 . S
C779 C780 1.369 . S
C779 C781 1.419 . S
C779 H783 0.930 1_554 S
C780 C779 1.369 . S
C780 C789 1.429 . S
C781 C779 1.419 . S
C781 C782 1.363 . S
C781 H784 0.929 . S
C782 C781 1.363 . S
C782 C788 1.428 . S
H783 C779 0.930 1_556 S
H784 C781 0.929 . S
S785 N786 1.613 . S
S785 N787 1.610 . S
N786 S785 1.613 . S
N786 C789 1.350 . S
N787 S785 1.610 . S
N787 C788 1.351 . S
C788 C782 1.428 . S
C788 N787 1.351 . S
C788 C789 1.434 . S
C789 C780 1.429 . S
C789 N786 1.350 . S
C789 C788 1.434 . S
C790 C791 1.369 . S
C790 C792 1.419 . S
C790 H794 0.930 . S
C791 C790 1.369 . S
C791 C800 1.429 . S
C792 C790 1.419 . S
C792 C793 1.363 . S
C792 H795 0.929 . S
C793 C792 1.363 . S
C793 C799 1.428 . S
H794 C790 0.930 . S
H795 C792 0.929 . S
S796 N797 1.613 1_556 S
S796 N798 1.610 . S
N797 S796 1.613 1_554 S
N797 C800 1.350 . S
N798 S796 1.610 . S
N798 C799 1.351 1_556 S
C799 C793 1.428 . S
C799 N798 1.351 1_554 S
C799 C800 1.434 . S
C800 C791 1.429 . S
C800 N797 1.350 . S
C800 C799 1.434 . S
C801 C802 1.369 . S
C801 C803 1.419 . S
C801 H805 0.930 . S
C802 C801 1.369 . S
C802 C811 1.429 . S
C803 C801 1.419 . S
C803 C804 1.363 . S
C803 H806 0.929 . S
C804 C803 1.363 . S
C804 C810 1.428 . S
H805 C801 0.930 . S
H806 C803 0.929 . S
S807 N808 1.613 . S
S807 N809 1.610 . S
N808 S807 1.613 . S
N808 C811 1.350 . S
N809 S807 1.610 . S
N809 C810 1.351 . S
C810 C804 1.428 . S
C810 N809 1.351 . S
C810 C811 1.434 . S
C811 C802 1.429 . S
C811 N808 1.350 . S
C811 C810 1.434 . S
C812 C813 1.369 . S
C812 C814 1.419 . S
C812 H816 0.930 . S
C813 C812 1.369 . S
C813 C822 1.429 . S
C814 C812 1.419 . S
C814 C815 1.363 . S
C814 H817 0.929 . S
C815 C814 1.363 . S
C815 C821 1.428 . S
H816 C812 0.930 . S
H817 C814 0.929 . S
S818 N819 1.613 . S
S818 N820 1.610 . S
N819 S818 1.613 . S
N819 C822 1.350 . S
N820 S818 1.610 . S
N820 C821 1.351 . S
C821 C815 1.428 . S
C821 N820 1.351 . S
C821 C822 1.434 . S
C822 C813 1.429 . S
C822 N819 1.350 . S
C822 C821 1.434 . S
C823 C824 1.369 . S
C823 C825 1.419 . S
C823 H827 0.930 . S
C824 C823 1.369 . S
C824 C833 1.429 . S
C825 C823 1.419 . S
C825 C826 1.363 . S
C825 H828 0.929 . S
C826 C825 1.363 . S
C826 C832 1.428 . S
H827 C823 0.930 . S
H828 C825 0.929 . S
S829 N830 1.613 . S
S829 N831 1.610 . S
N830 S829 1.613 . S
N830 C833 1.350 . S
N831 S829 1.610 . S
N831 C832 1.351 . S
C832 C826 1.428 . S
C832 N831 1.351 . S
C832 C833 1.434 . S
C833 C824 1.429 . S
C833 N830 1.350 . S
C833 C832 1.434 . S
C834 C835 1.369 . S
C834 C836 1.419 . S
C834 H838 0.930 . S
C835 C834 1.369 . S
C835 C844 1.429 . S
C836 C834 1.419 . S
C836 C837 1.363 . S
C836 H839 0.929 . S
C837 C836 1.363 . S
C837 C843 1.428 . S
H838 C834 0.930 . S
H839 C836 0.929 . S
S840 N841 1.613 . S
S840 N842 1.610 . S
N841 S840 1.613 . S
N841 C844 1.350 . S
N842 S840 1.610 . S
N842 C843 1.351 . S
C843 C837 1.428 . S
C843 N842 1.351 . S
C843 C844 1.434 . S
C844 C835 1.429 . S
C844 N841 1.350 . S
C844 C843 1.434 . S
C845 C846 1.369 . S
C845 C847 1.419 . S
C845 H849 0.930 . S
C846 C845 1.369 . S
C846 C855 1.429 . S
C847 C845 1.419 . S
C847 C848 1.363 . S
C847 H850 0.929 . S
C848 C847 1.363 . S
C848 C854 1.428 . S
H849 C845 0.930 . S
H850 C847 0.929 . S
S851 N852 1.613 . S
S851 N853 1.610 . S
N852 S851 1.613 . S
N852 C855 1.350 . S
N853 S851 1.610 . S
N853 C854 1.351 . S
C854 C848 1.428 . S
C854 N853 1.351 . S
C854 C855 1.434 . S
C855 C846 1.429 . S
C855 N852 1.350 . S
C855 C854 1.434 . S
C856 C857 1.369 . S
C856 C858 1.419 . S
C856 H860 0.930 . S
C857 C856 1.369 . S
C857 C866 1.429 . S
C858 C856 1.419 . S
C858 C859 1.363 . S
C858 H861 0.929 . S
C859 C858 1.363 . S
C859 C865 1.428 . S
H860 C856 0.930 . S
H861 C858 0.929 . S
S862 N863 1.613 . S
S862 N864 1.610 . S
N863 S862 1.613 . S
N863 C866 1.350 . S
N864 S862 1.610 . S
N864 C865 1.351 . S
C865 C859 1.428 . S
C865 N864 1.351 . S
C865 C866 1.434 . S
C866 C857 1.429 . S
C866 N863 1.350 . S
C866 C865 1.434 . S
C867 C868 1.369 . S
C867 C869 1.419 . S
C867 H871 0.930 . S
C868 C867 1.369 . S
C868 C877 1.429 . S
C869 C867 1.419 . S
C869 C870 1.363 . S
C869 H872 0.929 . S
C870 C869 1.363 . S
C870 C876 1.428 . S
H871 C867 0.930 . S
H872 C869 0.929 . S
S873 N874 1.613 1_554 S
S873 N875 1.610 . S
N874 S873 1.613 1_556 S
N874 C877 1.350 . S
N875 S873 1.610 . S
N875 C876 1.351 1_554 S
C876 C870 1.428 . S
C876 N875 1.351 1_556 S
C876 C877 1.434 . S
C877 C868 1.429 . S
C877 N874 1.350 . S
C877 C876 1.434 . S
C878 C879 1.369 . S
C878 C880 1.419 . S
C878 H882 0.930 1_556 S
C879 C878 1.369 . S
C879 C888 1.429 . S
C880 C878 1.419 . S
C880 C881 1.363 . S
C880 H883 0.929 . S
C881 C880 1.363 . S
C881 C887 1.428 . S
H882 C878 0.930 1_554 S
H883 C880 0.929 . S
S884 N885 1.613 . S
S884 N886 1.610 . S
N885 S884 1.613 . S
N885 C888 1.350 . S
N886 S884 1.610 . S
N886 C887 1.351 . S
C887 C881 1.428 . S
C887 N886 1.351 . S
C887 C888 1.434 . S
C888 C879 1.429 . S
C888 N885 1.350 . S
C888 C887 1.434 . S
C889 C890 1.369 . S
C889 C891 1.419 . S
C889 H893 0.930 . S
C890 C889 1.369 . S
C890 C899 1.429 . S
C891 C889 1.419 . S
C891 C892 1.363 . S
C891 H894 0.929 . S
C892 C891 1.363 . S
C892 C898 1.428 . S
H893 C889 0.930 . S
H894 C891 0.929 . S
S895 N896 1.613 1_554 S
S895 N897 1.610 . S
N896 S895 1.613 1_556 S
N896 C899 1.350 . S
N897 S895 1.610 . S
N897 C898 1.351 1_554 S
C898 C892 1.428 . S
C898 N897 1.351 1_556 S
C898 C899 1.434 . S
C899 C890 1.429 . S
C899 N896 1.350 . S
C899 C898 1.434 . S
C900 C901 1.369 . S
C900 C902 1.419 . S
C900 H904 0.930 . S
C901 C900 1.369 . S
C901 C910 1.429 . S
C902 C900 1.419 . S
C902 C903 1.363 . S
C902 H905 0.929 . S
C903 C902 1.363 . S
C903 C909 1.428 . S
H904 C900 0.930 . S
H905 C902 0.929 . S
S906 N907 1.613 . S
S906 N908 1.610 . S
N907 S906 1.613 . S
N907 C910 1.350 . S
N908 S906 1.610 . S
N908 C909 1.351 . S
C909 C903 1.428 . S
C909 N908 1.351 . S
C909 C910 1.434 . S
C910 C901 1.429 . S
C910 N907 1.350 . S
C910 C909 1.434 . S
C911 C912 1.369 . S
C911 C913 1.419 . S
C911 H915 0.930 . S
C912 C911 1.369 . S
C912 C921 1.429 . S
C913 C911 1.419 . S
C913 C914 1.363 . S
C913 H916 0.929 . S
C914 C913 1.363 . S
C914 C920 1.428 . S
H915 C911 0.930 . S
H916 C913 0.929 . S
S917 N918 1.613 . S
S917 N919 1.610 . S
N918 S917 1.613 . S
N918 C921 1.350 . S
N919 S917 1.610 . S
N919 C920 1.351 . S
C920 C914 1.428 . S
C920 N919 1.351 . S
C920 C921 1.434 . S
C921 C912 1.429 . S
C921 N918 1.350 . S
C921 C920 1.434 . S
C922 C923 1.369 . S
C922 C924 1.419 . S
C922 H926 0.930 . S
C923 C922 1.369 . S
C923 C932 1.429 . S
C924 C922 1.419 . S
C924 C925 1.363 . S
C924 H927 0.929 . S
C925 C924 1.363 . S
C925 C931 1.428 . S
H926 C922 0.930 . S
H927 C924 0.929 . S
S928 N929 1.613 . S
S928 N930 1.610 . S
N929 S928 1.613 . S
N929 C932 1.350 . S
N930 S928 1.610 . S
N930 C931 1.351 . S
C931 C925 1.428 . S
C931 N930 1.351 . S
C931 C932 1.434 . S
C932 C923 1.429 . S
C932 N929 1.350 . S
C932 C931 1.434 . S
C933 C934 1.369 . S
C933 C935 1.419 . S
C933 H937 0.930 . S
C934 C933 1.369 . S
C934 C943 1.429 . S
C935 C933 1.419 . S
C935 C936 1.363 . S
C935 H938 0.929 . S
C936 C935 1.363 . S
C936 C942 1.428 . S
H937 C933 0.930 . S
H938 C935 0.929 . S
S939 N940 1.613 . S
S939 N941 1.610 . S
N940 S939 1.613 . S
N940 C943 1.350 . S
N941 S939 1.610 . S
N941 C942 1.351 . S
C942 C936 1.428 . S
C942 N941 1.351 . S
C942 C943 1.434 . S
C943 C934 1.429 . S
C943 N940 1.350 . S
C943 C942 1.434 . S
C944 C945 1.369 . S
C944 C946 1.419 . S
C944 H948 0.930 . S
C945 C944 1.369 . S
C945 C954 1.429 . S
C946 C944 1.419 . S
C946 C947 1.363 . S
C946 H949 0.929 . S
C947 C946 1.363 . S
C947 C953 1.428 . S
H948 C944 0.930 . S
H949 C946 0.929 . S
S950 N951 1.613 . S
S950 N952 1.610 . S
N951 S950 1.613 . S
N951 C954 1.350 . S
N952 S950 1.610 . S
N952 C953 1.351 . S
C953 C947 1.428 . S
C953 N952 1.351 . S
C953 C954 1.434 . S
C954 C945 1.429 . S
C954 N951 1.350 . S
C954 C953 1.434 . S
C955 C956 1.369 . S
C955 C957 1.419 . S
C955 H959 0.930 . S
C956 C955 1.369 . S
C956 C965 1.429 . S
C957 C955 1.419 . S
C957 C958 1.363 . S
C957 H960 0.929 . S
C958 C957 1.363 . S
C958 C964 1.428 . S
H959 C955 0.930 . S
H960 C957 0.929 . S
S961 N962 1.613 . S
S961 N963 1.610 . S
N962 S961 1.613 . S
N962 C965 1.350 . S
N963 S961 1.610 . S
N963 C964 1.351 . S
C964 C958 1.428 . S
C964 N963 1.351 . S
C964 C965 1.434 . S
C965 C956 1.429 . S
C965 N962 1.350 . S
C965 C964 1.434 . S
C966 C967 1.369 . S
C966 C968 1.419 . S
C966 H970 0.930 . S
C967 C966 1.369 . S
C967 C976 1.429 . S
C968 C966 1.419 . S
C968 C969 1.363 . S
C968 H971 0.929 . S
C969 C968 1.363 . S
C969 C975 1.428 . S
H970 C966 0.930 . S
H971 C968 0.929 . S
S972 N973 1.613 . S
S972 N974 1.610 . S
N973 S972 1.613 . S
N973 C976 1.350 . S
N974 S972 1.610 . S
N974 C975 1.351 . S
C975 C969 1.428 . S
C975 N974 1.351 . S
C975 C976 1.434 . S
C976 C967 1.429 . S
C976 N973 1.350 . S
C976 C975 1.434 . S
C977 C978 1.369 . S
C977 C979 1.419 . S
C977 H981 0.930 . S
C978 C977 1.369 . S
C978 C987 1.429 . S
C979 C977 1.419 . S
C979 C980 1.363 . S
C979 H982 0.929 . S
C980 C979 1.363 . S
C980 C986 1.428 . S
H981 C977 0.930 . S
H982 C979 0.929 . S
S983 N984 1.613 . S
S983 N985 1.610 . S
N984 S983 1.613 . S
N984 C987 1.350 . S
N985 S983 1.610 . S
N985 C986 1.351 . S
C986 C980 1.428 . S
C986 N985 1.351 . S
C986 C987 1.434 . S
C987 C978 1.429 . S
C987 N984 1.350 . S
C987 C986 1.434 . S
C988 C989 1.369 . S
C988 C990 1.419 . S
C988 H992 0.930 . S
C989 C988 1.369 . S
C989 C998 1.429 . S
C990 C988 1.419 . S
C990 C991 1.363 . S
C990 H993 0.929 . S
C991 C990 1.363 . S
C991 C997 1.428 . S
H992 C988 0.930 . S
H993 C990 0.929 . S
S994 N995 1.613 . S
S994 N996 1.610 . S
N995 S994 1.613 . S
N995 C998 1.350 . S
N996 S994 1.610 . S
N996 C997 1.351 . S
C997 C991 1.428 . S
C997 N996 1.351 . S
C997 C998 1.434 . S
C998 C989 1.429 . S
C998 N995 1.350 . S
C998 C997 1.434 . S
C999 C1000 1.369 . S
C999 C1001 1.419 . S
C999 H1003 0.930 . S
C1000 C999 1.369 . S
C1000 C1009 1.429 . S
C1001 C999 1.419 . S
C1001 C1002 1.363 . S
C1001 H1004 0.929 . S
C1002 C1001 1.363 . S
C1002 C1008 1.428 . S
H1003 C999 0.930 . S
H1004 C1001 0.929 . S
S1005 N1006 1.613 . S
S1005 N1007 1.610 . S
N1006 S1005 1.613 . S
N1006 C1009 1.350 . S
N1007 S1005 1.610 . S
N1007 C1008 1.351 . S
C1008 C1002 1.428 . S
C1008 N1007 1.351 . S
C1008 C1009 1.434 . S
C1009 C1000 1.429 . S
C1009 N1006 1.350 . S
C1009 C1008 1.434 . S
C1010 C1011 1.369 . S
C1010 C1012 1.419 . S
C1010 H1014 0.930 . S
C1011 C1010 1.369 . S
C1011 C1020 1.429 . S
C1012 C1010 1.419 . S
C1012 C1013 1.363 . S
C1012 H1015 0.929 . S
C1013 C1012 1.363 . S
C1013 C1019 1.428 . S
H1014 C1010 0.930 . S
H1015 C1012 0.929 . S
S1016 N1017 1.613 . S
S1016 N1018 1.610 . S
N1017 S1016 1.613 . S
N1017 C1020 1.350 . S
N1018 S1016 1.610 . S
N1018 C1019 1.351 . S
C1019 C1013 1.428 . S
C1019 N1018 1.351 . S
C1019 C1020 1.434 . S
C1020 C1011 1.429 . S
C1020 N1017 1.350 . S
C1020 C1019 1.434 . S
C1021 C1022 1.369 . S
C1021 C1023 1.419 . S
C1021 H1025 0.930 . S
C1022 C1021 1.369 . S
C1022 C1031 1.429 . S
C1023 C1021 1.419 . S
C1023 C1024 1.363 . S
C1023 H1026 0.929 . S
C1024 C1023 1.363 . S
C1024 C1030 1.428 . S
H1025 C1021 0.930 . S
H1026 C1023 0.929 . S
S1027 N1028 1.613 . S
S1027 N1029 1.610 . S
N1028 S1027 1.613 . S
N1028 C1031 1.350 . S
N1029 S1027 1.610 . S
N1029 C1030 1.351 . S
C1030 C1024 1.428 . S
C1030 N1029 1.351 . S
C1030 C1031 1.434 . S
C1031 C1022 1.429 . S
C1031 N1028 1.350 . S
C1031 C1030 1.434 . S
C1032 C1033 1.369 . S
C1032 C1034 1.419 . S
C1032 H1036 0.930 . S
C1033 C1032 1.369 . S
C1033 C1042 1.429 . S
C1034 C1032 1.419 . S
C1034 C1035 1.363 . S
C1034 H1037 0.929 . S
C1035 C1034 1.363 . S
C1035 C1041 1.428 . S
H1036 C1032 0.930 . S
H1037 C1034 0.929 . S
S1038 N1039 1.613 . S
S1038 N1040 1.610 . S
N1039 S1038 1.613 . S
N1039 C1042 1.350 . S
N1040 S1038 1.610 . S
N1040 C1041 1.351 . S
C1041 C1035 1.428 . S
C1041 N1040 1.351 . S
C1041 C1042 1.434 . S
C1042 C1033 1.429 . S
C1042 N1039 1.350 . S
C1042 C1041 1.434 . S
C1043 C1044 1.369 . S
C1043 C1045 1.419 . S
C1043 H1047 0.930 . S
C1044 C1043 1.369 . S
C1044 C1053 1.429 . S
C1045 C1043 1.419 . S
C1045 C1046 1.363 . S
C1045 H1048 0.929 . S
C1046 C1045 1.363 . S
C1046 C1052 1.428 . S
H1047 C1043 0.930 . S
H1048 C1045 0.929 . S
S1049 N1050 1.613 . S
S1049 N1051 1.610 . S
N1050 S1049 1.613 . S
N1050 C1053 1.350 . S
N1051 S1049 1.610 . S
N1051 C1052 1.351 . S
C1052 C1046 1.428 . S
C1052 N1051 1.351 . S
C1052 C1053 1.434 . S
C1053 C1044 1.429 . S
C1053 N1050 1.350 . S
C1053 C1052 1.434 . S
C1054 C1055 1.369 . S
C1054 C1056 1.419 . S
C1054 H1058 0.930 . S
C1055 C1054 1.369 . S
C1055 C1064 1.429 . S
C1056 C1054 1.419 . S
C1056 C1057 1.363 . S
C1056 H1059 0.929 . S
C1057 C1056 1.363 . S
C1057 C1063 1.428 . S
H1058 C1054 0.930 . S
H1059 C1056 0.929 . S
S1060 N1061 1.613 . S
S1060 N1062 1.610 . S
N1061 S1060 1.613 . S
N1061 C1064 1.350 . S
N1062 S1060 1.610 . S
N1062 C1063 1.351 . S
C1063 C1057 1.428 . S
C1063 N1062 1.351 . S
C1063 C1064 1.434 . S
C1064 C1055 1.429 . S
C1064 N1061 1.350 . S
C1064 C1063 1.434 . S
C1065 C1066 1.369 . S
C1065 C1067 1.419 . S
C1065 H1069 0.930 . S
C1066 C1065 1.369 . S
C1066 C1075 1.429 . S
C1067 C1065 1.419 . S
C1067 C1068 1.363 . S
C1067 H1070 0.929 . S
C1068 C1067 1.363 . S
C1068 C1074 1.428 . S
H1069 C1065 0.930 . S
H1070 C1067 0.929 . S
S1071 N1072 1.613 1_554 S
S1071 N1073 1.610 . S
N1072 S1071 1.613 1_556 S
N1072 C1075 1.350 1_556 S
N1073 S1071 1.610 . S
N1073 C1074 1.351 . S
C1074 C1068 1.428 . S
C1074 N1073 1.351 . S
C1074 C1075 1.434 . S
C1075 C1066 1.429 . S
C1075 N1072 1.350 1_554 S
C1075 C1074 1.434 . S
C1076 C1077 1.369 . S
C1076 C1078 1.419 . S
C1076 H1080 0.930 . S
C1077 C1076 1.369 . S
C1077 C1086 1.429 1_554 S
C1078 C1076 1.419 . S
C1078 C1079 1.363 . S
C1078 H1081 0.929 . S
C1079 C1078 1.363 . S
C1079 C1085 1.428 . S
H1080 C1076 0.930 . S
H1081 C1078 0.929 . S
S1082 N1083 1.613 . S
S1082 N1084 1.610 1_556 S
N1083 S1082 1.613 . S
N1083 C1086 1.350 . S
N1084 S1082 1.610 1_554 S
N1084 C1085 1.351 . S
C1085 C1079 1.428 . S
C1085 N1084 1.351 . S
C1085 C1086 1.434 1_554 S
C1086 C1077 1.429 1_556 S
C1086 N1083 1.350 . S
C1086 C1085 1.434 1_556 S
C1087 C1088 1.370 . S
C1087 C1089 1.430 . S
C1087 H1091 0.917 1_554 S
C1088 C1087 1.370 . S
C1088 C1097 1.429 . S
C1089 C1087 1.430 . S
C1089 C1090 1.363 . S
C1089 H1092 0.929 . S
C1090 C1089 1.363 . S
C1090 C1096 1.428 . S
H1091 C1087 0.917 1_556 S
H1092 C1089 0.929 . S
S1093 N1094 1.613 . S
S1093 N1095 1.610 . S
N1094 S1093 1.613 . S
N1094 C1097 1.350 . S
N1095 S1093 1.610 . S
N1095 C1096 1.351 . S
C1096 C1090 1.428 . S
C1096 N1095 1.351 . S
C1096 C1097 1.434 . S
C1097 C1088 1.429 . S
C1097 N1094 1.350 . S
C1097 C1096 1.434 . S
C1098 C1099 1.369 . S
C1098 C1100 1.419 . S
C1098 H1102 0.930 1_554 S
C1099 C1098 1.369 . S
C1099 C1108 1.429 . S
C1100 C1098 1.419 . S
C1100 C1101 1.363 . S
C1100 H1103 0.929 . S
C1101 C1100 1.363 . S
C1101 C1107 1.428 . S
H1102 C1098 0.930 1_556 S
H1103 C1100 0.929 . S
S1104 N1105 1.613 . S
S1104 N1106 1.610 . S
N1105 S1104 1.613 . S
N1105 C1108 1.350 . S
N1106 S1104 1.610 . S
N1106 C1107 1.351 . S
C1107 C1101 1.428 . S
C1107 N1106 1.351 . S
C1107 C1108 1.434 . S
C1108 C1099 1.429 . S
C1108 N1105 1.350 . S
C1108 C1107 1.434 . S
C1109 C1110 1.369 . S
C1109 C1111 1.419 . S
C1109 H1113 0.930 . S
C1110 C1109 1.369 . S
C1110 C1119 1.429 . S
C1111 C1109 1.419 . S
C1111 C1112 1.363 . S
C1111 H1114 0.929 . S
C1112 C1111 1.363 . S
C1112 C1118 1.428 . S
H1113 C1109 0.930 . S
H1114 C1111 0.929 . S
S1115 N1116 1.613 . S
S1115 N1117 1.610 . S
N1116 S1115 1.613 . S
N1116 C1119 1.350 1_556 S
N1117 S1115 1.610 . S
N1117 C1118 1.351 1_556 S
C1118 C1112 1.428 . S
C1118 N1117 1.351 1_554 S
C1118 C1119 1.434 . S
C1119 C1110 1.429 . S
C1119 N1116 1.350 1_554 S
C1119 C1118 1.434 . S
C1120 C1121 1.369 . S
C1120 C1122 1.419 . S
C1120 H1124 0.930 . S
C1121 C1120 1.369 . S
C1121 C1130 1.429 . S
C1122 C1120 1.419 . S
C1122 C1123 1.363 . S
C1122 H1125 0.929 . S
C1123 C1122 1.363 . S
C1123 C1129 1.428 . S
H1124 C1120 0.930 . S
H1125 C1122 0.929 . S
S1126 N1127 1.613 . S
S1126 N1128 1.610 . S
N1127 S1126 1.613 . S
N1127 C1130 1.350 1_556 S
N1128 S1126 1.610 . S
N1128 C1129 1.351 1_556 S
C1129 C1123 1.428 . S
C1129 N1128 1.351 1_554 S
C1129 C1130 1.434 . S
C1130 C1121 1.429 . S
C1130 N1127 1.350 1_554 S
C1130 C1129 1.434 . S
C1131 C1132 1.369 . S
C1131 C1133 1.419 . S
C1131 H1135 0.930 . S
C1132 C1131 1.369 . S
C1132 C1141 1.429 . S
C1133 C1131 1.419 . S
C1133 C1134 1.363 . S
C1133 H1136 0.929 . S
C1134 C1133 1.363 . S
C1134 C1140 1.428 . S
H1135 C1131 0.930 . S
H1136 C1133 0.929 . S
S1137 N1138 1.613 . S
S1137 N1139 1.610 . S
N1138 S1137 1.613 . S
N1138 C1141 1.350 . S
N1139 S1137 1.610 . S
N1139 C1140 1.351 . S
C1140 C1134 1.428 . S
C1140 N1139 1.351 . S
C1140 C1141 1.434 . S
C1141 C1132 1.429 . S
C1141 N1138 1.350 . S
C1141 C1140 1.434 . S
C1142 C1143 1.369 . S
C1142 C1144 1.419 . S
C1142 H1146 0.930 . S
C1143 C1142 1.369 . S
C1143 C1152 1.429 . S
C1144 C1142 1.419 . S
C1144 C1145 1.363 . S
C1144 H1147 0.929 . S
C1145 C1144 1.363 . S
C1145 C1151 1.428 . S
H1146 C1142 0.930 . S
H1147 C1144 0.929 . S
S1148 N1149 1.613 . S
S1148 N1150 1.610 . S
N1149 S1148 1.613 . S
N1149 C1152 1.350 . S
N1150 S1148 1.610 . S
N1150 C1151 1.351 . S
C1151 C1145 1.428 . S
C1151 N1150 1.351 . S
C1151 C1152 1.434 . S
C1152 C1143 1.429 . S
C1152 N1149 1.350 . S
C1152 C1151 1.434 . S
C1153 C1154 1.369 . S
C1153 C1155 1.419 . S
C1153 H1157 0.930 . S
C1154 C1153 1.369 . S
C1154 C1163 1.429 . S
C1155 C1153 1.419 . S
C1155 C1156 1.363 . S
C1155 H1158 0.929 . S
C1156 C1155 1.363 . S
C1156 C1162 1.428 . S
H1157 C1153 0.930 . S
H1158 C1155 0.929 . S
S1159 N1160 1.613 . S
S1159 N1161 1.610 . S
N1160 S1159 1.613 . S
N1160 C1163 1.350 . S
N1161 S1159 1.610 . S
N1161 C1162 1.351 . S
C1162 C1156 1.428 . S
C1162 N1161 1.351 . S
C1162 C1163 1.434 . S
C1163 C1154 1.429 . S
C1163 N1160 1.350 . S
C1163 C1162 1.434 . S
C1164 C1165 1.369 . S
C1164 C1166 1.419 . S
C1164 H1168 0.930 . S
C1165 C1164 1.369 . S
C1165 C1174 1.429 . S
C1166 C1164 1.419 . S
C1166 C1167 1.363 . S
C1166 H1169 0.929 . S
C1167 C1166 1.363 . S
C1167 C1173 1.428 . S
H1168 C1164 0.930 . S
H1169 C1166 0.929 . S
S1170 N1171 1.613 . S
S1170 N1172 1.610 . S
N1171 S1170 1.613 . S
N1171 C1174 1.350 . S
N1172 S1170 1.610 . S
N1172 C1173 1.351 . S
C1173 C1167 1.428 . S
C1173 N1172 1.351 . S
C1173 C1174 1.434 . S
C1174 C1165 1.429 . S
C1174 N1171 1.350 . S
C1174 C1173 1.434 . S
C1175 C1176 1.369 . S
C1175 C1177 1.419 . S
C1175 H1179 0.930 . S
C1176 C1175 1.369 . S
C1176 C1185 1.429 . S
C1177 C1175 1.419 . S
C1177 C1178 1.363 . S
C1177 H1180 0.929 . S
C1178 C1177 1.363 . S
C1178 C1184 1.428 . S
H1179 C1175 0.930 . S
H1180 C1177 0.929 . S
S1181 N1182 1.613 . S
S1181 N1183 1.610 . S
N1182 S1181 1.613 . S
N1182 C1185 1.350 1_554 S
N1183 S1181 1.610 . S
N1183 C1184 1.351 1_554 S
C1184 C1178 1.428 . S
C1184 N1183 1.351 1_556 S
C1184 C1185 1.434 . S
C1185 C1176 1.429 . S
C1185 N1182 1.350 1_556 S
C1185 C1184 1.434 . S
C1186 C1187 1.369 . S
C1186 C1188 1.419 . S
C1186 H1190 0.930 . S
C1187 C1186 1.369 . S
C1187 C1196 1.429 . S
C1188 C1186 1.419 . S
C1188 C1189 1.363 . S
C1188 H1191 0.929 . S
C1189 C1188 1.363 . S
C1189 C1195 1.428 . S
H1190 C1186 0.930 . S
H1191 C1188 0.929 . S
S1192 N1193 1.613 . S
S1192 N1194 1.610 . S
N1193 S1192 1.613 . S
N1193 C1196 1.350 . S
N1194 S1192 1.610 . S
N1194 C1195 1.351 . S
C1195 C1189 1.428 . S
C1195 N1194 1.351 . S
C1195 C1196 1.434 . S
C1196 C1187 1.429 . S
C1196 N1193 1.350 . S
C1196 C1195 1.434 . S
C1197 C1198 1.369 . S
C1197 C1199 1.419 . S
C1197 H1201 0.930 . S
C1198 C1197 1.369 . S
C1198 C1207 1.429 . S
C1199 C1197 1.419 . S
C1199 C1200 1.363 . S
C1199 H1202 0.929 . S
C1200 C1199 1.363 . S
C1200 C1206 1.428 . S
H1201 C1197 0.930 . S
H1202 C1199 0.929 . S
S1203 N1204 1.613 . S
S1203 N1205 1.610 . S
N1204 S1203 1.613 . S
N1204 C1207 1.350 . S
N1205 S1203 1.610 . S
N1205 C1206 1.351 . S
C1206 C1200 1.428 . S
C1206 N1205 1.351 . S
C1206 C1207 1.434 . S
C1207 C1198 1.429 . S
C1207 N1204 1.350 . S
C1207 C1206 1.434 . S
C1208 C1209 1.369 . S
C1208 C1210 1.419 . S
C1208 H1212 0.930 . S
C1209 C1208 1.369 . S
C1209 C1218 1.429 . S
C1210 C1208 1.419 . S
C1210 C1211 1.363 . S
C1210 H1213 0.929 . S
C1211 C1210 1.363 . S
C1211 C1217 1.428 . S
H1212 C1208 0.930 . S
H1213 C1210 0.929 . S
S1214 N1215 1.613 . S
S1214 N1216 1.610 . S
N1215 S1214 1.613 . S
N1215 C1218 1.350 . S
N1216 S1214 1.610 . S
N1216 C1217 1.351 . S
C1217 C1211 1.428 . S
C1217 N1216 1.351 . S
C1217 C1218 1.434 . S
C1218 C1209 1.429 . S
C1218 N1215 1.350 . S
C1218 C1217 1.434 . S
C1219 C1220 1.369 . S
C1219 C1221 1.419 . S
C1219 H1223 0.930 . S
C1220 C1219 1.369 . S
C1220 C1229 1.429 . S
C1221 C1219 1.419 . S
C1221 C1222 1.363 . S
C1221 H1224 0.929 . S
C1222 C1221 1.363 . S
C1222 C1228 1.428 . S
H1223 C1219 0.930 . S
H1224 C1221 0.929 . S
S1225 N1226 1.613 . S
S1225 N1227 1.610 . S
N1226 S1225 1.613 . S
N1226 C1229 1.350 . S
N1227 S1225 1.610 . S
N1227 C1228 1.351 . S
C1228 C1222 1.428 . S
C1228 N1227 1.351 . S
C1228 C1229 1.434 . S
C1229 C1220 1.429 . S
C1229 N1226 1.350 . S
C1229 C1228 1.434 . S
C1230 C1231 1.369 . S
C1230 C1232 1.419 1_455 S
C1230 H1234 0.930 . S
C1231 C1230 1.369 . S
C1231 C1240 1.429 . S
C1232 C1230 1.419 1_655 S
C1232 C1233 1.363 . S
C1232 H1235 0.929 . S
C1233 C1232 1.363 . S
C1233 C1239 1.428 . S
H1234 C1230 0.930 . S
H1235 C1232 0.929 . S
S1236 N1237 1.613 . S
S1236 N1238 1.610 1_455 S
N1237 S1236 1.613 . S
N1237 C1240 1.350 . S
N1238 S1236 1.610 1_655 S
N1238 C1239 1.351 . S
C1239 C1233 1.428 . S
C1239 N1238 1.351 . S
C1239 C1240 1.434 1_655 S
C1240 C1231 1.429 . S
C1240 N1237 1.350 . S
C1240 C1239 1.434 1_455 S
C1241 C1242 1.369 . S
C1241 C1243 1.419 . S
C1241 H1245 0.930 . S
C1242 C1241 1.369 . S
C1242 C1251 1.429 . S
C1243 C1241 1.419 . S
C1243 C1244 1.363 . S
C1243 H1246 0.929 . S
C1244 C1243 1.363 . S
C1244 C1250 1.428 . S
H1245 C1241 0.930 . S
H1246 C1243 0.929 . S
S1247 N1248 1.613 . S
S1247 N1249 1.610 . S
N1248 S1247 1.613 . S
N1248 C1251 1.350 . S
N1249 S1247 1.610 . S
N1249 C1250 1.351 . S
C1250 C1244 1.428 . S
C1250 N1249 1.351 . S
C1250 C1251 1.434 . S
C1251 C1242 1.429 . S
C1251 N1248 1.350 . S
C1251 C1250 1.434 . S
C1252 C1253 1.369 . S
C1252 C1254 1.419 1_565 S
C1252 H1256 0.930 . S
C1253 C1252 1.369 . S
C1253 C1262 1.429 . S
C1254 C1252 1.419 1_545 S
C1254 C1255 1.363 . S
C1254 H1257 0.929 . S
C1255 C1254 1.363 . S
C1255 C1261 1.428 . S
H1256 C1252 0.930 . S
H1257 C1254 0.929 . S
S1258 N1259 1.613 . S
S1258 N1260 1.610 1_565 S
N1259 S1258 1.613 . S
N1259 C1262 1.350 . S
N1260 S1258 1.610 1_545 S
N1260 C1261 1.351 . S
C1261 C1255 1.428 . S
C1261 N1260 1.351 . S
C1261 C1262 1.434 1_545 S
C1262 C1253 1.429 . S
C1262 N1259 1.350 . S
C1262 C1261 1.434 1_565 S
C1263 C1264 1.369 . S
C1263 C1265 1.419 1_545 S
C1263 H1267 0.930 . S
C1264 C1263 1.369 . S
C1264 C1273 1.429 . S
C1265 C1263 1.419 1_565 S
C1265 C1266 1.363 . S
C1265 H1268 0.929 . S
C1266 C1265 1.363 . S
C1266 C1272 1.428 . S
H1267 C1263 0.930 . S
H1268 C1265 0.929 . S
S1269 N1270 1.613 . S
S1269 N1271 1.610 1_545 S
N1270 S1269 1.613 . S
N1270 C1273 1.350 . S
N1271 S1269 1.610 1_565 S
N1271 C1272 1.351 . S
C1272 C1266 1.428 . S
C1272 N1271 1.351 . S
C1272 C1273 1.434 1_565 S
C1273 C1264 1.429 . S
C1273 N1270 1.350 . S
C1273 C1272 1.434 1_545 S
C1274 C1275 1.369 . S
C1274 C1276 1.419 1_455 S
C1274 H1278 0.930 . S
C1275 C1274 1.369 . S
C1275 C1284 1.429 . S
C1276 C1274 1.419 1_655 S
C1276 C1277 1.363 . S
C1276 H1279 0.929 . S
C1277 C1276 1.363 . S
C1277 C1283 1.428 . S
H1278 C1274 0.930 . S
H1279 C1276 0.929 . S
S1280 N1281 1.613 . S
S1280 N1282 1.610 1_455 S
N1281 S1280 1.613 . S
N1281 C1284 1.350 . S
N1282 S1280 1.610 1_655 S
N1282 C1283 1.351 . S
C1283 C1277 1.428 . S
C1283 N1282 1.351 . S
C1283 C1284 1.434 1_655 S
C1284 C1275 1.429 . S
C1284 N1281 1.350 . S
C1284 C1283 1.434 1_455 S
C1285 C1286 1.369 . S
C1285 C1287 1.419 . S
C1285 H1289 0.930 . S
C1286 C1285 1.369 . S
C1286 C1295 1.429 . S
C1287 C1285 1.419 . S
C1287 C1288 1.363 . S
C1287 H1290 0.929 . S
C1288 C1287 1.363 . S
C1288 C1294 1.428 . S
H1289 C1285 0.930 . S
H1290 C1287 0.929 . S
S1291 N1292 1.613 . S
S1291 N1293 1.610 . S
N1292 S1291 1.613 . S
N1292 C1295 1.350 . S
N1293 S1291 1.610 . S
N1293 C1294 1.351 . S
C1294 C1288 1.428 . S
C1294 N1293 1.351 . S
C1294 C1295 1.434 . S
C1295 C1286 1.429 . S
C1295 N1292 1.350 . S
C1295 C1294 1.434 . S
C505 C53 1.225 . S
C507 C11 1.225 . S
C516 C67 1.224 . S
C518 C25 1.224 . S
C527 C81 1.224 . S
C529 C39 1.224 . S
C538 C95 1.222 . S
C540 C137 1.223 . S
C549 C109 1.223 . S
C551 C151 1.223 . S
C560 C165 1.223 . S
C562 C123 1.223 . S
C571 C179 1.219 . S
C573 C221 1.220 . S
C582 C193 1.217 . S
C584 C235 1.218 . S
C593 C207 1.217 . S
C595 C249 1.218 . S
C604 C263 1.218 . S
C606 C305 1.217 . S
C615 C319 1.216 . S
C617 C277 1.217 . S
C626 C291 1.217 . S
C628 C333 1.216 . S
C637 C347 1.218 . S
C639 C389 1.217 . S
C648 C361 1.217 . S
C650 C403 1.216 . S
C659 C417 1.216 . S
C661 C375 1.216 . S
C670 C473 1.218 . S
C672 C431 1.218 . S
C681 C487 1.220 . S
C683 C445 1.219 . S
C692 C501 1.220 . S
C694 C459 1.219 . S
C703 C163 1.550 . S
C705 C5 1.549 1_556 S
C714 C19 1.548 1_556 S
C716 C135 1.550 . S
C725 C33 1.551 1_556 S
C727 C149 1.552 . S
C736 C107 1.558 . S
C738 C47 1.556 . S
C747 C61 1.557 . S
C749 C121 1.557 . S
C758 C93 1.558 . S
C760 C75 1.557 . S
C769 C89 1.552 1_554 S
C771 C79 1.552 . S
C780 C103 1.551 1_554 S
C782 C51 1.552 . S
C791 C65 1.551 . S
C793 C117 1.550 1_554 S
C802 C23 1.556 . S
C804 C131 1.555 . S
C813 C37 1.555 . S
C815 C145 1.555 . S
C824 C159 1.556 . S
C826 C9 1.556 . S
C835 C173 1.536 . S
C837 C331 1.534 . S
C846 C303 1.536 . S
C848 C187 1.534 . S
C857 C317 1.537 . S
C859 C201 1.535 . S
C868 C215 1.552 . S
C870 C275 1.551 1_556 S
C879 C289 1.551 1_556 S
C881 C229 1.553 . S
C890 C243 1.553 . S
C892 C261 1.553 1_556 S
C901 C257 1.550 . S
C903 C247 1.549 . S
C912 C271 1.552 . S
C914 C219 1.551 . S
C923 C233 1.551 . S
C925 C285 1.552 . S
C934 C191 1.563 . S
C936 C299 1.565 . S
C945 C205 1.563 . S
C947 C313 1.565 . S
C956 C327 1.564 . S
C958 C177 1.566 . S
C967 C499 1.551 . S
C969 C341 1.552 . S
C978 C355 1.551 . S
C980 C471 1.550 . S
C989 C369 1.551 . S
C991 C485 1.550 . S
C1000 C383 1.563 . S
C1002 C443 1.566 . S
C1011 C457 1.565 . S
C1013 C397 1.566 . S
C1022 C411 1.563 . S
C1024 C429 1.565 . S
C1033 C415 1.536 . S
C1035 C425 1.534 . S
C1044 C387 1.537 . S
C1046 C439 1.535 . S
C1055 C401 1.535 . S
C1057 C453 1.534 . S
C1066 C359 1.550 1_554 S
C1068 C467 1.552 . S
C1077 C373 1.552 1_554 S
C1079 C481 1.553 . S
C1088 C345 1.552 1_554 S
C1090 C495 1.554 . S
C1099 C406 1.414 . S
C1101 C0 1.412 . S
C1110 C14 1.415 . S
C1112 C378 1.414 . S
C1121 C392 1.413 . S
C1123 C28 1.416 . S
C1132 C42 1.418 . S
C1134 C182 1.419 . S
C1143 C196 1.420 . S
C1145 C56 1.418 . S
C1154 C70 1.414 . S
C1156 C168 1.413 . S
C1165 C84 1.411 . S
C1167 C322 1.413 . S
C1176 C294 1.412 . S
C1178 C98 1.414 . S
C1187 C112 1.418 . S
C1189 C308 1.418 . S
C1198 C126 1.411 . S
C1200 C434 1.413 . S
C1209 C140 1.411 . S
C1211 C448 1.412 . S
C1220 C420 1.411 . S
C1222 C154 1.413 . S
C1231 C350 1.419 . S
C1233 C210 1.416 . S
C1242 C364 1.421 . S
C1244 C224 1.418 . S
C1253 C336 1.418 . S
C1255 C238 1.415 . S
C1264 C252 1.420 . S
C1266 C490 1.418 . S
C1275 C462 1.420 . S
C1277 C266 1.418 . S
C1286 C280 1.419 . S
C1288 C476 1.416 . S
