# Generated by pormake.
# Topology wna, (6)-cn, num edge types: 1
# Building blocks:
#     Node 0, Type 0, BuildingBlock: MIFKUJ_clean_sbu_0, # of connection points: 6
#     Node 1, Type 0, BuildingBlock: MIFKUJ_clean_sbu_0, # of connection points: 6
#     Node 2, Type 0, BuildingBlock: MIFKUJ_clean_sbu_0, # of connection points: 6
#     Node 3, Type 0, BuildingBlock: MIFKUJ_clean_sbu_0, # of connection points: 6
#     Node 4, Type 0, BuildingBlock: MIFKUJ_clean_sbu_0, # of connection points: 6
#     Node 5, Type 0, BuildingBlock: MIFKUJ_clean_sbu_0, # of connection points: 6
#     Node 6, Type 0, BuildingBlock: MIFKUJ_clean_sbu_0, # of connection points: 6
#     Node 7, Type 0, BuildingBlock: MIFKUJ_clean_sbu_0, # of connection points: 6
#     Node 8, Type 0, BuildingBlock: MIFKUJ_clean_sbu_0, # of connection points: 6
#     Node 9, Type 0, BuildingBlock: MIFKUJ_clean_sbu_0, # of connection points: 6
#     Node 10, Type 0, BuildingBlock: MIFKUJ_clean_sbu_0, # of connection points: 6
#     Node 11, Type 0, BuildingBlock: MIFKUJ_clean_sbu_0, # of connection points: 6
#     Node 12, Type 0, BuildingBlock: MIFKUJ_clean_sbu_0, # of connection points: 6
#     Node 13, Type 0, BuildingBlock: MIFKUJ_clean_sbu_0, # of connection points: 6
#     Node 14, Type 0, BuildingBlock: MIFKUJ_clean_sbu_0, # of connection points: 6
#     Node 15, Type 0, BuildingBlock: MIFKUJ_clean_sbu_0, # of connection points: 6
#     Node 16, Type 0, BuildingBlock: MIFKUJ_clean_sbu_0, # of connection points: 6
#     Node 17, Type 0, BuildingBlock: MIFKUJ_clean_sbu_0, # of connection points: 6
#     Node 18, Type 0, BuildingBlock: MIFKUJ_clean_sbu_0, # of connection points: 6
#     Node 19, Type 0, BuildingBlock: MIFKUJ_clean_sbu_0, # of connection points: 6
#     Node 20, Type 0, BuildingBlock: MIFKUJ_clean_sbu_0, # of connection points: 6
#     Node 21, Type 0, BuildingBlock: MIFKUJ_clean_sbu_0, # of connection points: 6
#     Node 22, Type 0, BuildingBlock: MIFKUJ_clean_sbu_0, # of connection points: 6
#     Node 23, Type 0, BuildingBlock: MIFKUJ_clean_sbu_0, # of connection points: 6
#     Node 24, Type 0, BuildingBlock: MIFKUJ_clean_sbu_0, # of connection points: 6
#     Node 25, Type 0, BuildingBlock: MIFKUJ_clean_sbu_0, # of connection points: 6
#     Node 26, Type 0, BuildingBlock: MIFKUJ_clean_sbu_0, # of connection points: 6
#     Node 27, Type 0, BuildingBlock: MIFKUJ_clean_sbu_0, # of connection points: 6
#     Node 28, Type 0, BuildingBlock: MIFKUJ_clean_sbu_0, # of connection points: 6
#     Node 29, Type 0, BuildingBlock: MIFKUJ_clean_sbu_0, # of connection points: 6
#     Node 30, Type 0, BuildingBlock: MIFKUJ_clean_sbu_0, # of connection points: 6
#     Node 31, Type 0, BuildingBlock: MIFKUJ_clean_sbu_0, # of connection points: 6
#     Node 32, Type 0, BuildingBlock: MIFKUJ_clean_sbu_0, # of connection points: 6
#     Node 33, Type 0, BuildingBlock: MIFKUJ_clean_sbu_0, # of connection points: 6
#     Node 34, Type 0, BuildingBlock: MIFKUJ_clean_sbu_0, # of connection points: 6
#     Node 35, Type 0, BuildingBlock: MIFKUJ_clean_sbu_0, # of connection points: 6
#     Edge 36, Type (0, 0), BuildingBlock: XIVTED_clean_linker_0, # of connection points: 2
#     Edge 37, Type (0, 0), BuildingBlock: XIVTED_clean_linker_0, # of connection points: 2
#     Edge 38, Type (0, 0), BuildingBlock: XIVTED_clean_linker_0, # of connection points: 2
#     Edge 39, Type (0, 0), BuildingBlock: XIVTED_clean_linker_0, # of connection points: 2
#     Edge 40, Type (0, 0), BuildingBlock: XIVTED_clean_linker_0, # of connection points: 2
#     Edge 41, Type (0, 0), BuildingBlock: XIVTED_clean_linker_0, # of connection points: 2
#     Edge 42, Type (0, 0), BuildingBlock: XIVTED_clean_linker_0, # of connection points: 2
#     Edge 43, Type (0, 0), BuildingBlock: XIVTED_clean_linker_0, # of connection points: 2
#     Edge 44, Type (0, 0), BuildingBlock: XIVTED_clean_linker_0, # of connection points: 2
#     Edge 45, Type (0, 0), BuildingBlock: XIVTED_clean_linker_0, # of connection points: 2
#     Edge 46, Type (0, 0), BuildingBlock: XIVTED_clean_linker_0, # of connection points: 2
#     Edge 47, Type (0, 0), BuildingBlock: XIVTED_clean_linker_0, # of connection points: 2
#     Edge 48, Type (0, 0), BuildingBlock: XIVTED_clean_linker_0, # of connection points: 2
#     Edge 49, Type (0, 0), BuildingBlock: XIVTED_clean_linker_0, # of connection points: 2
#     Edge 50, Type (0, 0), BuildingBlock: XIVTED_clean_linker_0, # of connection points: 2
#     Edge 51, Type (0, 0), BuildingBlock: XIVTED_clean_linker_0, # of connection points: 2
#     Edge 52, Type (0, 0), BuildingBlock: XIVTED_clean_linker_0, # of connection points: 2
#     Edge 53, Type (0, 0), BuildingBlock: XIVTED_clean_linker_0, # of connection points: 2
#     Edge 54, Type (0, 0), BuildingBlock: XIVTED_clean_linker_0, # of connection points: 2
#     Edge 55, Type (0, 0), BuildingBlock: XIVTED_clean_linker_0, # of connection points: 2
#     Edge 56, Type (0, 0), BuildingBlock: XIVTED_clean_linker_0, # of connection points: 2
#     Edge 57, Type (0, 0), BuildingBlock: XIVTED_clean_linker_0, # of connection points: 2
#     Edge 58, Type (0, 0), BuildingBlock: XIVTED_clean_linker_0, # of connection points: 2
#     Edge 59, Type (0, 0), BuildingBlock: XIVTED_clean_linker_0, # of connection points: 2
#     Edge 60, Type (0, 0), BuildingBlock: XIVTED_clean_linker_0, # of connection points: 2
#     Edge 61, Type (0, 0), BuildingBlock: XIVTED_clean_linker_0, # of connection points: 2
#     Edge 62, Type (0, 0), BuildingBlock: XIVTED_clean_linker_0, # of connection points: 2
#     Edge 63, Type (0, 0), BuildingBlock: XIVTED_clean_linker_0, # of connection points: 2
#     Edge 64, Type (0, 0), BuildingBlock: XIVTED_clean_linker_0, # of connection points: 2
#     Edge 65, Type (0, 0), BuildingBlock: XIVTED_clean_linker_0, # of connection points: 2
#     Edge 66, Type (0, 0), BuildingBlock: XIVTED_clean_linker_0, # of connection points: 2
#     Edge 67, Type (0, 0), BuildingBlock: XIVTED_clean_linker_0, # of connection points: 2
#     Edge 68, Type (0, 0), BuildingBlock: XIVTED_clean_linker_0, # of connection points: 2
#     Edge 69, Type (0, 0), BuildingBlock: XIVTED_clean_linker_0, # of connection points: 2
#     Edge 70, Type (0, 0), BuildingBlock: XIVTED_clean_linker_0, # of connection points: 2
#     Edge 71, Type (0, 0), BuildingBlock: XIVTED_clean_linker_0, # of connection points: 2
#     Edge 72, Type (0, 0), BuildingBlock: XIVTED_clean_linker_0, # of connection points: 2
#     Edge 73, Type (0, 0), BuildingBlock: XIVTED_clean_linker_0, # of connection points: 2
#     Edge 74, Type (0, 0), BuildingBlock: XIVTED_clean_linker_0, # of connection points: 2
#     Edge 75, Type (0, 0), BuildingBlock: XIVTED_clean_linker_0, # of connection points: 2
#     Edge 76, Type (0, 0), BuildingBlock: XIVTED_clean_linker_0, # of connection points: 2
#     Edge 77, Type (0, 0), BuildingBlock: XIVTED_clean_linker_0, # of connection points: 2
#     Edge 78, Type (0, 0), BuildingBlock: XIVTED_clean_linker_0, # of connection points: 2
#     Edge 79, Type (0, 0), BuildingBlock: XIVTED_clean_linker_0, # of connection points: 2
#     Edge 80, Type (0, 0), BuildingBlock: XIVTED_clean_linker_0, # of connection points: 2
#     Edge 81, Type (0, 0), BuildingBlock: XIVTED_clean_linker_0, # of connection points: 2
#     Edge 82, Type (0, 0), BuildingBlock: XIVTED_clean_linker_0, # of connection points: 2
#     Edge 83, Type (0, 0), BuildingBlock: XIVTED_clean_linker_0, # of connection points: 2
#     Edge 84, Type (0, 0), BuildingBlock: XIVTED_clean_linker_0, # of connection points: 2
#     Edge 85, Type (0, 0), BuildingBlock: XIVTED_clean_linker_0, # of connection points: 2
#     Edge 86, Type (0, 0), BuildingBlock: XIVTED_clean_linker_0, # of connection points: 2
#     Edge 87, Type (0, 0), BuildingBlock: XIVTED_clean_linker_0, # of connection points: 2
#     Edge 88, Type (0, 0), BuildingBlock: XIVTED_clean_linker_0, # of connection points: 2
#     Edge 89, Type (0, 0), BuildingBlock: XIVTED_clean_linker_0, # of connection points: 2
#     Edge 90, Type (0, 0), BuildingBlock: XIVTED_clean_linker_0, # of connection points: 2
#     Edge 91, Type (0, 0), BuildingBlock: XIVTED_clean_linker_0, # of connection points: 2
#     Edge 92, Type (0, 0), BuildingBlock: XIVTED_clean_linker_0, # of connection points: 2
#     Edge 93, Type (0, 0), BuildingBlock: XIVTED_clean_linker_0, # of connection points: 2
#     Edge 94, Type (0, 0), BuildingBlock: XIVTED_clean_linker_0, # of connection points: 2
#     Edge 95, Type (0, 0), BuildingBlock: XIVTED_clean_linker_0, # of connection points: 2
#     Edge 96, Type (0, 0), BuildingBlock: XIVTED_clean_linker_0, # of connection points: 2
#     Edge 97, Type (0, 0), BuildingBlock: XIVTED_clean_linker_0, # of connection points: 2
#     Edge 98, Type (0, 0), BuildingBlock: XIVTED_clean_linker_0, # of connection points: 2
#     Edge 99, Type (0, 0), BuildingBlock: XIVTED_clean_linker_0, # of connection points: 2
#     Edge 100, Type (0, 0), BuildingBlock: XIVTED_clean_linker_0, # of connection points: 2
#     Edge 101, Type (0, 0), BuildingBlock: XIVTED_clean_linker_0, # of connection points: 2
#     Edge 102, Type (0, 0), BuildingBlock: XIVTED_clean_linker_0, # of connection points: 2
#     Edge 103, Type (0, 0), BuildingBlock: XIVTED_clean_linker_0, # of connection points: 2
#     Edge 104, Type (0, 0), BuildingBlock: XIVTED_clean_linker_0, # of connection points: 2
#     Edge 105, Type (0, 0), BuildingBlock: XIVTED_clean_linker_0, # of connection points: 2
#     Edge 106, Type (0, 0), BuildingBlock: XIVTED_clean_linker_0, # of connection points: 2
#     Edge 107, Type (0, 0), BuildingBlock: XIVTED_clean_linker_0, # of connection points: 2
#     Edge 108, Type (0, 0), BuildingBlock: XIVTED_clean_linker_0, # of connection points: 2
#     Edge 109, Type (0, 0), BuildingBlock: XIVTED_clean_linker_0, # of connection points: 2
#     Edge 110, Type (0, 0), BuildingBlock: XIVTED_clean_linker_0, # of connection points: 2
#     Edge 111, Type (0, 0), BuildingBlock: XIVTED_clean_linker_0, # of connection points: 2
#     Edge 112, Type (0, 0), BuildingBlock: XIVTED_clean_linker_0, # of connection points: 2
#     Edge 113, Type (0, 0), BuildingBlock: XIVTED_clean_linker_0, # of connection points: 2
#     Edge 114, Type (0, 0), BuildingBlock: XIVTED_clean_linker_0, # of connection points: 2
#     Edge 115, Type (0, 0), BuildingBlock: XIVTED_clean_linker_0, # of connection points: 2
#     Edge 116, Type (0, 0), BuildingBlock: XIVTED_clean_linker_0, # of connection points: 2
#     Edge 117, Type (0, 0), BuildingBlock: XIVTED_clean_linker_0, # of connection points: 2
#     Edge 118, Type (0, 0), BuildingBlock: XIVTED_clean_linker_0, # of connection points: 2
#     Edge 119, Type (0, 0), BuildingBlock: XIVTED_clean_linker_0, # of connection points: 2
#     Edge 120, Type (0, 0), BuildingBlock: XIVTED_clean_linker_0, # of connection points: 2
#     Edge 121, Type (0, 0), BuildingBlock: XIVTED_clean_linker_0, # of connection points: 2
#     Edge 122, Type (0, 0), BuildingBlock: XIVTED_clean_linker_0, # of connection points: 2
#     Edge 123, Type (0, 0), BuildingBlock: XIVTED_clean_linker_0, # of connection points: 2
#     Edge 124, Type (0, 0), BuildingBlock: XIVTED_clean_linker_0, # of connection points: 2
#     Edge 125, Type (0, 0), BuildingBlock: XIVTED_clean_linker_0, # of connection points: 2
#     Edge 126, Type (0, 0), BuildingBlock: XIVTED_clean_linker_0, # of connection points: 2
#     Edge 127, Type (0, 0), BuildingBlock: XIVTED_clean_linker_0, # of connection points: 2
#     Edge 128, Type (0, 0), BuildingBlock: XIVTED_clean_linker_0, # of connection points: 2
#     Edge 129, Type (0, 0), BuildingBlock: XIVTED_clean_linker_0, # of connection points: 2
#     Edge 130, Type (0, 0), BuildingBlock: XIVTED_clean_linker_0, # of connection points: 2
#     Edge 131, Type (0, 0), BuildingBlock: XIVTED_clean_linker_0, # of connection points: 2
#     Edge 132, Type (0, 0), BuildingBlock: XIVTED_clean_linker_0, # of connection points: 2
#     Edge 133, Type (0, 0), BuildingBlock: XIVTED_clean_linker_0, # of connection points: 2
#     Edge 134, Type (0, 0), BuildingBlock: XIVTED_clean_linker_0, # of connection points: 2
#     Edge 135, Type (0, 0), BuildingBlock: XIVTED_clean_linker_0, # of connection points: 2
#     Edge 136, Type (0, 0), BuildingBlock: XIVTED_clean_linker_0, # of connection points: 2
#     Edge 137, Type (0, 0), BuildingBlock: XIVTED_clean_linker_0, # of connection points: 2
#     Edge 138, Type (0, 0), BuildingBlock: XIVTED_clean_linker_0, # of connection points: 2
#     Edge 139, Type (0, 0), BuildingBlock: XIVTED_clean_linker_0, # of connection points: 2
#     Edge 140, Type (0, 0), BuildingBlock: XIVTED_clean_linker_0, # of connection points: 2
#     Edge 141, Type (0, 0), BuildingBlock: XIVTED_clean_linker_0, # of connection points: 2
#     Edge 142, Type (0, 0), BuildingBlock: XIVTED_clean_linker_0, # of connection points: 2
#     Edge 143, Type (0, 0), BuildingBlock: XIVTED_clean_linker_0, # of connection points: 2
# Relax obj value: 0.168
# Max RMSD: 0.214
# Mean RMSD: 0.207
data_MOF--net-wna--node1-MIFKUJ_clean_sbu_0--edge1-XIVTED_clean_linker_0
_symmetry_space_group_name_H-M    P1
_symmetry_Int_Tables_number       1
_symmetry_cell_setting            triclinic
loop_
_symmetry_equiv_pos_as_xyz
'x, y, z'
_cell_length_a     41.632091
_cell_length_b     41.629556
_cell_length_c     103.54719
_cell_angle_alpha  90.010644
_cell_angle_beta   89.996138
_cell_angle_gamma 120.00446
loop_
_atom_site_label
_atom_site_type_symbol
_atom_site_fract_x
_atom_site_fract_y
_atom_site_fract_z
_atom_type_partial_charge
Zn0 Zn 0.08091 0.22724 0.1825 0.0
Zn1 Zn 0.10609 0.2453 0.15395 0.0
C2 C 0.0023 0.17982 0.17845 0.0
O3 O 0.00052 0.20092 0.18753 0.0
C4 C 0.18178 0.27367 0.15703 0.0
O5 O 0.17156 0.24437 0.14971 0.0
O6 O 0.0698 0.21982 0.20165 0.0
O7 O 0.12028 0.21442 0.17832 0.0
O8 O 0.09726 0.19434 0.15888 0.0
C9 C 0.05806 0.18812 0.20679 0.0
O10 O 0.05608 0.16097 0.19972 0.0
O11 O 0.03388 0.18752 0.17407 0.0
C12 C 0.12273 0.28664 0.13145 0.0
O13 O 0.13051 0.31123 0.14064 0.0
O14 O 0.11072 0.25296 0.13461 0.0
O15 O 0.06765 0.25913 0.15887 0.0
O16 O 0.09001 0.27843 0.17826 0.0
O17 O 0.15753 0.28186 0.16066 0.0
C18 C 0.11424 0.19255 0.16887 0.0
C19 C 0.07288 0.28024 0.16842 0.0
Zn20 Zn 0.77023 0.85249 0.18579 0.0
Zn21 Zn 0.74333 0.85326 0.15722 0.0
C22 C 0.81942 0.82335 0.18175 0.0
O23 O 0.80056 0.80198 0.19149 0.0
C24 C 0.677 0.85984 0.16116 0.0
O25 O 0.6616 0.83288 0.15268 0.0
O26 O 0.78037 0.85273 0.20491 0.0
O27 O 0.77951 0.90289 0.18043 0.0
O28 O 0.79535 0.89576 0.16078 0.0
C29 C 0.81242 0.87263 0.2098 0.0
O30 O 0.83964 0.89634 0.20241 0.0
O31 O 0.80971 0.84543 0.17706 0.0
C32 C 0.70797 0.82018 0.13308 0.0
O33 O 0.68981 0.79135 0.14067 0.0
O34 O 0.73366 0.85038 0.13785 0.0
O35 O 0.72884 0.80103 0.16281 0.0
O36 O 0.71959 0.80812 0.18322 0.0
O37 O 0.70974 0.87035 0.16507 0.0
C38 C 0.79901 0.91673 0.17031 0.0
C39 C 0.71274 0.78727 0.17346 0.0
Zn40 Zn 0.14885 0.91435 0.18341 0.0
Zn41 Zn 0.14481 0.89543 0.1551 0.0
C42 C 0.17821 0.99317 0.17996 0.0
O43 O 0.20027 0.99562 0.18945 0.0
C44 C 0.10372 0.81956 0.15469 0.0
O45 O 0.08942 0.83071 0.14563 0.0
O46 O 0.15119 0.92409 0.20266 0.0
O47 O 0.09687 0.87491 0.1786 0.0
O48 O 0.10062 0.90107 0.1597 0.0
C49 C 0.13016 0.93459 0.20775 0.0
O50 O 0.10485 0.93595 0.20056 0.0
O51 O 0.15564 0.96144 0.17535 0.0
C52 C 0.17303 0.88163 0.13281 0.0
O53 O 0.19032 0.87515 0.14218 0.0
O54 O 0.15033 0.89259 0.13573 0.0
O55 O 0.19598 0.93461 0.16069 0.0
O56 O 0.1925 0.90749 0.17914 0.0
O57 O 0.13072 0.84382 0.16133 0.0
C58 C 0.0813 0.88209 0.16932 0.0
C59 C 0.21185 0.92762 0.16981 0.0
Zn60 Zn 0.22679 0.07366 0.32059 0.0
Zn61 Zn 0.24825 0.10557 0.3492 0.0
C62 C 0.17857 0.99581 0.32594 0.0
O63 O 0.19725 0.99192 0.31643 0.0
C64 C 0.27251 0.18037 0.3454 0.0
O65 O 0.24227 0.16923 0.35228 0.0
O66 O 0.21789 0.06014 0.30161 0.0
O67 O 0.21418 0.11354 0.32424 0.0
O68 O 0.19611 0.09263 0.34402 0.0
C69 C 0.18595 0.04756 0.29657 0.0
O70 O 0.15886 0.04573 0.30363 0.0
O71 O 0.18828 0.02821 0.33 0.0
C72 C 0.28919 0.12677 0.3718 0.0
O73 O 0.31417 0.13463 0.36275 0.0
O74 O 0.25529 0.1125 0.3685 0.0
O75 O 0.26723 0.0707 0.34507 0.0
O76 O 0.27833 0.08356 0.32442 0.0
O77 O 0.28245 0.15708 0.34226 0.0
C78 C 0.19308 0.10829 0.33388 0.0
C79 C 0.28551 0.073 0.33497 0.0
Zn80 Zn 0.9218 0.15173 0.31925 0.0
Zn81 Zn 0.89263 0.14883 0.34839 0.0
C82 C -7e-05 0.18139 0.32336 0.0
O83 O 0.00225 0.20281 0.31367 0.0
C84 C 0.81735 0.09726 0.34595 0.0
O85 O 0.82914 0.07973 0.35339 0.0
O86 O 0.93253 0.15188 0.30018 0.0
O87 O 0.88105 0.10134 0.32438 0.0
O88 O 0.90439 0.108 0.34396 0.0
C89 C 0.94473 0.13178 0.2955 0.0
O90 O 0.94751 0.10789 0.30303 0.0
O91 O 0.96824 0.15932 0.32812 0.0
C92 C 0.87475 0.17241 0.37114 0.0
O93 O 0.86381 0.18704 0.36212 0.0
O94 O 0.88921 0.15303 0.36774 0.0
O95 O 0.92638 0.20193 0.34265 0.0
O96 O 0.91402 0.19491 0.32184 0.0
O97 O 0.84019 0.12993 0.34212 0.0
C98 C 0.88705 0.0873 0.33436 0.0
C99 C 0.92511 0.2154 0.33178 0.0
Zn100 Zn 0.84522 0.77248 0.32309 0.0
Zn101 Zn 0.8547 0.74872 0.35189 0.0
C102 C 0.8163 0.82115 0.32807 0.0
O103 O 0.79324 0.80136 0.31882 0.0
C104 C 0.90609 0.72557 0.34821 0.0
O105 O 0.92415 0.75504 0.35555 0.0
O106 O 0.84236 0.78208 0.30407 0.0
O107 O 0.89662 0.7827 0.32708 0.0
O108 O 0.89391 0.80113 0.3468 0.0
C109 C 0.86296 0.81391 0.29911 0.0
O110 O 0.8884 0.84043 0.30631 0.0
O111 O 0.83926 0.81196 0.33225 0.0
C112 C 0.83474 0.70751 0.37451 0.0
O113 O 0.81847 0.68238 0.36543 0.0
O114 O 0.854 0.74145 0.37122 0.0
O115 O 0.80072 0.72885 0.34755 0.0
O116 O 0.80232 0.72155 0.32655 0.0
O117 O 0.87295 0.71536 0.34486 0.0
C118 C 0.91263 0.80364 0.33672 0.0
C119 C 0.78468 0.71261 0.33715 0.0
Zn120 Zn 0.89721 0.7583 0.84866 0.0
Zn121 Zn 0.92663 0.77904 0.81978 0.0
C122 C 0.82236 0.73374 0.84506 0.0
O123 O 0.83328 0.76328 0.85233 0.0
C124 C 0.00492 0.82797 0.82369 0.0
O125 O 0.00728 0.8088 0.81402 0.0
O126 O 0.89095 0.75131 0.86799 0.0
O127 O 0.93196 0.73954 0.84418 0.0
O128 O 0.91697 0.72788 0.82367 0.0
C129 C 0.87653 0.71745 0.87133 0.0
O130 O 0.86795 0.69225 0.86231 0.0
O131 O 0.84574 0.72411 0.84173 0.0
C132 C 0.9468 0.81813 0.79542 0.0
O133 O 0.94667 0.84441 0.80241 0.0
O134 O 0.93756 0.78707 0.80067 0.0
O135 O 0.88678 0.7908 0.82398 0.0
O136 O 0.90959 0.8102 0.84347 0.0
O137 O 0.97322 0.81832 0.82845 0.0
C138 C 0.92819 0.72072 0.83408 0.0
C139 C 0.89265 0.81227 0.83353 0.0
Zn140 Zn 0.24974 0.15557 0.84955 0.0
Zn141 Zn 0.23496 0.16111 0.82079 0.0
C142 C 0.27952 0.11031 0.85031 0.0
O143 O 0.25201 0.09648 0.85863 0.0
C144 C 0.18517 0.19013 0.82468 0.0
O145 O 0.20383 0.212 0.81502 0.0
O146 O 0.25501 0.15914 0.86905 0.0
O147 O 0.26507 0.20774 0.84409 0.0
O148 O 0.28589 0.20395 0.82506 0.0
C149 C 0.28811 0.18063 0.87286 0.0
O150 O 0.31399 0.19867 0.86416 0.0
O151 O 0.28611 0.13924 0.84401 0.0
C152 C 0.19579 0.14282 0.79641 0.0
O153 O 0.16907 0.11746 0.80357 0.0
O154 O 0.22728 0.16383 0.80155 0.0
O155 O 0.22216 0.109 0.82545 0.0
O156 O 0.1996 0.11307 0.84426 0.0
O157 O 0.19519 0.16814 0.8292 0.0
C158 C 0.28712 0.22324 0.83473 0.0
C159 C 0.19939 0.09359 0.83473 0.0
Zn160 Zn 0.85323 0.09856 0.84932 0.0
Zn161 Zn 0.85376 0.08647 0.82067 0.0
C162 C 0.89109 0.17388 0.85158 0.0
O163 O 0.90547 0.16209 0.86039 0.0
C164 C 0.82388 0.00766 0.82386 0.0
O165 O 0.80169 0.00549 0.81445 0.0
O166 O 0.84515 0.09735 0.86874 0.0
O167 O 0.80347 0.06025 0.84234 0.0
O168 O 0.81021 0.09295 0.82496 0.0
C169 C 0.82127 0.10667 0.87179 0.0
O170 O 0.80404 0.11351 0.86249 0.0
O171 O 0.86541 0.15025 0.84436 0.0
C172 C 0.87296 0.06659 0.7963 0.0
O173 O 0.89785 0.06465 0.80354 0.0
O174 O 0.85227 0.07759 0.80135 0.0
O175 O 0.90462 0.12595 0.82617 0.0
O176 O 0.89994 0.09721 0.84461 0.0
O177 O 0.84693 0.03924 0.82843 0.0
C178 C 0.7893 0.07018 0.83346 0.0
C179 C 0.91984 0.11849 0.83548 0.0
Zn180 Zn 0.74356 0.88934 0.65547 0.0
Zn181 Zn 0.76985 0.92098 0.68463 0.0
C182 C 0.72072 0.81421 0.65835 0.0
O183 O 0.75061 0.82615 0.65119 0.0
C184 C 0.81641 0.99878 0.67931 0.0
O185 O 0.79739 0.00178 0.68889 0.0
O186 O 0.73701 0.88579 0.63603 0.0
O187 O 0.72326 0.92255 0.66101 0.0
O188 O 0.71824 0.91115 0.68189 0.0
C189 C 0.70356 0.87182 0.63223 0.0
O190 O 0.67723 0.86125 0.64094 0.0
O191 O 0.71024 0.83687 0.66178 0.0
C192 C 0.81342 0.94853 0.70824 0.0
O193 O 0.84051 0.95205 0.70077 0.0
O194 O 0.78081 0.93425 0.70361 0.0
O195 O 0.78057 0.88053 0.68015 0.0
O196 O 0.79622 0.9018 0.66027 0.0
O197 O 0.80741 0.96669 0.6751 0.0
C198 C 0.70847 0.92148 0.67185 0.0
C199 C 0.80018 0.88564 0.67011 0.0
Zn200 Zn 0.10607 0.85426 0.65335 0.0
Zn201 Zn 0.07812 0.85167 0.68207 0.0
C202 C 0.1815 0.9047 0.65577 0.0
O203 O 0.17003 0.9222 0.64817 0.0
C204 C -0.00012 0.82096 0.67763 0.0
O205 O 0.99757 0.79901 0.68714 0.0
O206 O 0.11035 0.85039 0.63405 0.0
O207 O 0.07136 0.80105 0.65895 0.0
O208 O 0.0862 0.80864 0.67953 0.0
C209 C 0.12491 0.83101 0.63078 0.0
O210 O 0.13505 0.81593 0.63989 0.0
O211 O 0.15825 0.87239 0.65981 0.0
C212 C 0.05406 0.87032 0.70585 0.0
O213 O 0.04969 0.89328 0.69834 0.0
O214 O 0.06737 0.85126 0.70111 0.0
O215 O 0.11874 0.90232 0.67713 0.0
O216 O 0.09514 0.89585 0.65762 0.0
O217 O 0.03165 0.84389 0.67314 0.0
C218 C 0.07357 0.78772 0.66973 0.0
C219 C 0.11241 0.91645 0.66725 0.0
Zn220 Zn 0.14133 0.24898 0.65396 0.0
Zn221 Zn 0.14927 0.22911 0.68252 0.0
C222 C 0.09315 0.27589 0.65711 0.0
O223 O 0.07479 0.24662 0.6497 0.0
C224 C 0.17946 0.18092 0.67758 0.0
O225 O 0.20272 0.20087 0.68676 0.0
O226 O 0.14355 0.25734 0.63466 0.0
O227 O 0.19403 0.26368 0.65861 0.0
O228 O 0.19119 0.28054 0.67844 0.0
C229 C 0.16426 0.29136 0.63167 0.0
O230 O 0.18103 0.31555 0.64098 0.0
O231 O 0.12563 0.28468 0.66088 0.0
C232 C 0.13453 0.18942 0.70682 0.0
O233 O 0.10952 0.16194 0.69982 0.0
O234 O 0.15371 0.2212 0.70164 0.0
O235 O 0.09696 0.21651 0.67854 0.0
O236 O 0.0998 0.19761 0.65887 0.0
O237 O 0.15601 0.18969 0.67357 0.0
C238 C 0.20996 0.28373 0.66839 0.0
C239 C 0.08106 0.1953 0.66893 0.0
Zn240 Zn 0.74458 0.55401 0.51935 0.0
Zn241 Zn 0.77227 0.58024 0.48939 0.0
C242 C 0.67776 0.50113 0.5028 0.0
O243 O 0.6914 0.52105 0.4923 0.0
C244 C 0.84718 0.6055 0.4914 0.0
O245 O 0.83548 0.57651 0.4838 0.0
O246 O 0.73885 0.54707 0.53868 0.0
O247 O 0.78526 0.54515 0.51339 0.0
O248 O 0.7621 0.52817 0.4938 0.0
C249 C 0.71139 0.54913 0.54308 0.0
O250 O 0.6921 0.55743 0.53509 0.0
O251 O 0.69562 0.51149 0.51336 0.0
C252 C 0.79031 0.62222 0.46685 0.0
O253 O 0.79927 0.64721 0.47598 0.0
O254 O 0.77646 0.58832 0.47008 0.0
O255 O 0.73812 0.5989 0.49517 0.0
O256 O 0.74918 0.60339 0.5161 0.0
O257 O 0.82414 0.61451 0.49566 0.0
C258 C 0.77968 0.52529 0.5034 0.0
C259 C 0.73812 0.61261 0.50612 0.0
Zn260 Zn 0.43889 0.171 0.51603 0.0
Zn261 Zn 0.41105 0.18403 0.48701 0.0
C262 C 0.4885 0.14249 0.5117 0.0
O263 O 0.47019 0.12087 0.52146 0.0
C264 C 0.39404 0.23975 0.49225 0.0
O265 O 0.42411 0.25762 0.48518 0.0
O266 O 0.44749 0.16798 0.53516 0.0
O267 O 0.45167 0.2233 0.51176 0.0
O268 O 0.46476 0.21815 0.49151 0.0
C269 C 0.47901 0.18863 0.54033 0.0
O270 O 0.50585 0.21421 0.53327 0.0
O271 O 0.478 0.16404 0.50711 0.0
C272 C 0.36871 0.16811 0.46469 0.0
O273 O 0.34361 0.15335 0.47385 0.0
O274 O 0.40285 0.18479 0.46784 0.0
O275 O 0.38766 0.12998 0.49096 0.0
O276 O 0.38772 0.12817 0.51228 0.0
O277 O 0.38165 0.2057 0.49484 0.0
C278 C 0.47117 0.23763 0.50167 0.0
C279 C 0.37482 0.1126 0.50147 0.0
Zn280 Zn 0.82295 0.25362 0.51569 0.0
Zn281 Zn 0.81936 0.23481 0.4872 0.0
C282 C 0.85212 0.33195 0.5112 0.0
O283 O 0.875 0.33533 0.52053 0.0
C284 C 0.77754 0.15915 0.48577 0.0
O285 O 0.76338 0.17156 0.47709 0.0
O286 O 0.82526 0.26508 0.53481 0.0
O287 O 0.77155 0.21316 0.51107 0.0
O288 O 0.77491 0.23963 0.49228 0.0
C289 C 0.80399 0.27572 0.53961 0.0
O290 O 0.77853 0.27616 0.53223 0.0
O291 O 0.82923 0.29979 0.507 0.0
C292 C 0.84654 0.22356 0.46405 0.0
O293 O 0.86459 0.21609 0.47286 0.0
O294 O 0.82419 0.23423 0.46772 0.0
O295 O 0.87104 0.27246 0.49307 0.0
O296 O 0.86614 0.24601 0.51179 0.0
O297 O 0.80486 0.18245 0.49252 0.0
C298 C 0.75564 0.2196 0.50173 0.0
C299 C 0.88603 0.26507 0.50239 0.0
Zn300 Zn 0.89534 0.41566 0.65232 0.0
Zn301 Zn 0.91207 0.43629 0.68077 0.0
C302 C 0.84754 0.33648 0.65634 0.0
O303 O 0.86703 0.33397 0.64682 0.0
C304 C 0.94532 0.51266 0.68152 0.0
O305 O 0.92012 0.50105 0.69068 0.0
O306 O 0.88773 0.40496 0.63312 0.0
O307 O 0.8815 0.45436 0.65712 0.0
O308 O 0.86163 0.42848 0.67622 0.0
C309 C 0.85577 0.39135 0.62799 0.0
O310 O 0.82782 0.38725 0.63511 0.0
O311 O 0.85625 0.36832 0.66074 0.0
C312 C 0.95121 0.44828 0.70387 0.0
O313 O 0.9771 0.45675 0.69512 0.0
O314 O 0.91822 0.43751 0.70015 0.0
O315 O 0.92613 0.39872 0.67515 0.0
O316 O 0.94681 0.42441 0.65629 0.0
O317 O 0.94857 0.48871 0.67487 0.0
C318 C 0.85997 0.44724 0.66679 0.0
C319 C 0.9481 0.40572 0.66574 0.0
Zn320 Zn 0.58139 0.47984 0.65705 0.0
Zn321 Zn 0.55813 0.47279 0.68503 0.0
C322 C 0.66077 0.51346 0.66092 0.0
O323 O 0.66213 0.537 0.65218 0.0
C324 C 0.48268 0.42588 0.68111 0.0
O325 O 0.49179 0.40648 0.68873 0.0
O326 O 0.59128 0.48431 0.63787 0.0
O327 O 0.54356 0.42701 0.66111 0.0
O328 O 0.56723 0.43053 0.68045 0.0
C329 C 0.60965 0.47085 0.63265 0.0
O330 O 0.61961 0.45106 0.6397 0.0
O331 O 0.62936 0.48863 0.66512 0.0
C332 C 0.5378 0.49617 0.70697 0.0
O333 O 0.53072 0.51279 0.69753 0.0
O334 O 0.55113 0.47534 0.70421 0.0
O335 O 0.59687 0.52525 0.68033 0.0
O336 O 0.57088 0.52081 0.66158 0.0
O337 O 0.50753 0.4582 0.67763 0.0
C338 C 0.55027 0.41152 0.6705 0.0
C339 C 0.58974 0.54053 0.67104 0.0
Zn340 Zn 0.51854 0.09977 0.65449 0.0
Zn341 Zn 0.52178 0.08491 0.68304 0.0
C342 C 0.48916 0.14922 0.65835 0.0
O343 O 0.46673 0.12971 0.64892 0.0
C344 C 0.56216 0.04923 0.68427 0.0
O345 O 0.57625 0.07472 0.69332 0.0
O346 O 0.51593 0.10713 0.63524 0.0
O347 O 0.5702 0.11163 0.65929 0.0
O348 O 0.56638 0.13422 0.67814 0.0
C349 C 0.53607 0.13876 0.63007 0.0
O350 O 0.56085 0.16604 0.63719 0.0
O351 O 0.51194 0.14005 0.66274 0.0
C352 C 0.49288 0.04569 0.70598 0.0
O353 O 0.47489 0.02066 0.69702 0.0
O354 O 0.51617 0.07866 0.7025 0.0
O355 O 0.47063 0.07232 0.67709 0.0
O356 O 0.47533 0.04915 0.6587 0.0
O357 O 0.53562 0.04674 0.67742 0.0
C358 C 0.58578 0.13418 0.66861 0.0
C359 C 0.45543 0.04953 0.6679 0.0
Zn360 Zn 0.56222 0.08312 0.18133 0.0
Zn361 Zn 0.59161 0.10524 0.15244 0.0
C362 C 0.4871 0.05877 0.17848 0.0
O363 O 0.49891 0.08856 0.18567 0.0
C364 C 0.6699 0.15227 0.15728 0.0
O365 O 0.67261 0.13299 0.14772 0.0
O366 O 0.55686 0.07534 0.20069 0.0
O367 O 0.59719 0.06472 0.17634 0.0
O368 O 0.58073 0.05315 0.15596 0.0
C369 C 0.54237 0.04135 0.20389 0.0
O370 O 0.53328 0.01639 0.19474 0.0
O371 O 0.5101 0.04901 0.17475 0.0
C372 C 0.61566 0.14671 0.12846 0.0
O373 O 0.61691 0.17317 0.13574 0.0
O374 O 0.60415 0.11474 0.13335 0.0
O375 O 0.55239 0.11822 0.15677 0.0
O376 O 0.57424 0.13537 0.17652 0.0
O377 O 0.63795 0.14331 0.16162 0.0
C378 C 0.59276 0.04593 0.16617 0.0
C379 C 0.55803 0.13879 0.1666 0.0
Zn380 Zn 0.9217 0.47842 0.18146 0.0
Zn381 Zn 0.89634 0.48266 0.15222 0.0
C382 C 0.94555 0.42703 0.17892 0.0
O383 O 0.91585 0.4092 0.18617 0.0
C384 C 0.84894 0.51358 0.15682 0.0
O385 O 0.86783 0.53506 0.14711 0.0
O386 O 0.92926 0.48233 0.20086 0.0
O387 O 0.94101 0.5316 0.17582 0.0
O388 O 0.94781 0.52464 0.15512 0.0
C389 C 0.96313 0.50197 0.20421 0.0
O390 O 0.98851 0.51696 0.19515 0.0
O391 O 0.95548 0.45981 0.17519 0.0
C392 C 0.85462 0.4653 0.1281 0.0
O393 O 0.82706 0.44139 0.13534 0.0
O394 O 0.88666 0.48438 0.13311 0.0
O395 O 0.88544 0.43164 0.15704 0.0
O396 O 0.86921 0.43755 0.17681 0.0
O397 O 0.85814 0.49089 0.16129 0.0
C398 C 0.9567 0.54506 0.16507 0.0
C399 C 0.86555 0.41728 0.16704 0.0
Zn400 Zn 0.52292 0.43611 0.18439 0.0
Zn401 Zn 0.51833 0.41418 0.1561 0.0
C402 C 0.56594 0.51222 0.18537 0.0
O403 O 0.57946 0.50013 0.19439 0.0
C404 C 0.48856 0.33574 0.16023 0.0
O405 O 0.46589 0.33325 0.15095 0.0
O406 O 0.51778 0.43795 0.20378 0.0
O407 O 0.47093 0.39824 0.17881 0.0
O408 O 0.47528 0.42236 0.15969 0.0
C409 C 0.49584 0.44953 0.20705 0.0
O410 O 0.47887 0.45738 0.19794 0.0
O411 O 0.53881 0.48865 0.17859 0.0
C412 C 0.53571 0.38961 0.13249 0.0
O413 O 0.56036 0.38809 0.14 0.0
O414 O 0.51586 0.40225 0.13706 0.0
O415 O 0.57014 0.45427 0.1606 0.0
O416 O 0.56633 0.4292 0.17971 0.0
O417 O 0.51136 0.36754 0.16475 0.0
C418 C 0.45561 0.40426 0.16927 0.0
C419 C 0.58572 0.44783 0.17005 0.0
Zn420 Zn 0.40531 0.21905 0.98889 0.0
Zn421 Zn 0.44111 0.2566 0.02032 0.0
C422 C 0.38797 0.14514 0.99088 0.0
O423 O 0.41819 0.15919 0.9838 0.0
C424 C 0.49634 0.32143 0.00478 0.0
O425 O 0.47318 0.31027 0.995 0.0
O426 O 0.39826 0.21772 0.96952 0.0
O427 O 0.38099 0.2472 0.9956 0.0
O428 O 0.39783 0.26243 0.01598 0.0
C429 C 0.36446 0.20176 0.96597 0.0
O430 O 0.33845 0.188 0.97486 0.0
O431 O 0.37542 0.16591 0.99452 0.0
C432 C 0.47541 0.26824 0.04522 0.0
O433 O 0.50317 0.27176 0.03813 0.0
O434 O 0.44445 0.25853 0.03979 0.0
O435 O 0.44424 0.21321 0.01331 0.0
O436 O 0.4589 0.23484 0.99346 0.0
O437 O 0.48739 0.30297 0.01522 0.0
C438 C 0.37818 0.2604 0.00632 0.0
C439 C 0.46416 0.21958 0.00328 0.0
Zn440 Zn 0.76409 0.18673 0.98536 0.0
Zn441 Zn 0.74403 0.18551 0.01404 0.0
C442 C 0.84051 0.22574 0.98497 0.0
O443 O 0.83059 0.23953 0.97537 0.0
C444 C 0.66527 0.15625 0.0107 0.0
O445 O 0.66326 0.13326 0.01978 0.0
O446 O 0.76641 0.1796 0.96602 0.0
O447 O 0.72402 0.13638 0.99139 0.0
O448 O 0.75052 0.14156 0.01011 0.0
C449 C 0.77702 0.15658 0.96318 0.0
O450 O 0.78403 0.13985 0.9726 0.0
O451 O 0.81536 0.20004 0.9918 0.0
C452 C 0.72275 0.20296 0.03868 0.0
O453 O 0.71858 0.22684 0.03162 0.0
O454 O 0.73519 0.18377 0.03339 0.0
O455 O 0.7844 0.23654 0.00879 0.0
O456 O 0.76007 0.23217 0.98946 0.0
O457 O 0.69685 0.17939 0.00612 0.0
C458 C 0.73089 0.12142 1.00084 0.0
C459 C 0.77906 0.2519 0.99901 0.0
Zn460 Zn 0.81698 0.58886 0.98595 0.0
Zn461 Zn 0.82504 0.56619 0.01434 0.0
C462 C 0.76741 0.61354 0.99131 0.0
O463 O 0.74773 0.58452 0.98394 0.0
C464 C 0.85591 0.51846 0.00985 0.0
O465 O 0.87736 0.53705 0.01961 0.0
O466 O 0.81791 0.59859 0.96682 0.0
O467 O 0.86964 0.60387 0.99033 0.0
O468 O 0.86594 0.61828 0.01045 0.0
C469 C 0.83689 0.63264 0.96367 0.0
O470 O 0.85363 0.65748 0.9728 0.0
O471 O 0.80074 0.62276 0.99402 0.0
C472 C 0.8076 0.52586 0.03849 0.0
O473 O 0.78202 0.49936 0.03132 0.0
O474 O 0.82845 0.55753 0.03345 0.0
O475 O 0.77239 0.55143 0.01013 0.0
O476 O 0.77722 0.53652 0.99006 0.0
O477 O 0.83365 0.52816 0.00533 0.0
C478 C 0.88502 0.62291 1.00035 0.0
C479 C 0.75792 0.53114 1.00021 0.0
Zn480 Zn 0.40095 0.88967 0.85334 0.0
Zn481 Zn 0.44122 0.92869 0.82211 0.0
C482 C 0.33733 0.83212 0.83767 0.0
O483 O 0.34803 0.85463 0.8277 0.0
C484 C 0.51485 0.94563 0.82307 0.0
O485 O 0.49973 0.91565 0.81586 0.0
O486 O 0.39891 0.88623 0.87281 0.0
O487 O 0.44569 0.88862 0.84661 0.0
O488 O 0.42568 0.87498 0.82654 0.0
C489 C 0.39178 0.85599 0.87826 0.0
O490 O 0.39052 0.82918 0.87118 0.0
O491 O 0.35549 0.84238 0.84816 0.0
C492 C 0.45898 0.97026 0.79942 0.0
O493 O 0.47251 0.99579 0.80848 0.0
O494 O 0.44243 0.93626 0.80276 0.0
O495 O 0.41366 0.95335 0.82921 0.0
O496 O 0.39445 0.93261 0.84902 0.0
O497 O 0.49473 0.95823 0.82738 0.0
C498 C 0.44114 0.86997 0.83636 0.0
C499 C 0.39847 0.9542 0.83974 0.0
Zn500 Zn 0.10156 0.51309 0.85115 0.0
Zn501 Zn 0.06197 0.51282 0.82051 0.0
C502 C 0.15413 0.48934 0.84688 0.0
O503 O 0.13497 0.46616 0.85619 0.0
C504 C 0.01747 0.53855 0.83482 0.0
O505 O 0.02231 0.5235 0.84525 0.0
O506 O 0.11213 0.51581 0.87031 0.0
O507 O 0.10293 0.5593 0.84501 0.0
O508 O 0.11486 0.55195 0.82483 0.0
C509 C 0.14409 0.53633 0.87519 0.0
O510 O 0.17126 0.55979 0.86773 0.0
O511 O 0.14371 0.51121 0.84256 0.0
C512 C 0.02276 0.48535 0.79756 0.0
O513 O 0.99629 0.47287 0.80628 0.0
O514 O 0.05632 0.5042 0.80128 0.0
O515 O 0.03682 0.46193 0.82846 0.0
O516 O 0.0552 0.46495 0.84871 0.0
O517 O 0.03135 0.53646 0.82416 0.0
C518 C 0.12134 0.57266 0.83467 0.0
C519 C 0.03405 0.447 0.83939 0.0
Zn520 Zn 0.48851 0.59987 0.84879 0.0
Zn521 Zn 0.48014 0.57197 0.82062 0.0
C522 C 0.51659 0.67804 0.84425 0.0
O523 O 0.54008 0.68159 0.85337 0.0
C524 C 0.43357 0.49694 0.82445 0.0
O525 O 0.41458 0.50659 0.81684 0.0
O526 O 0.49289 0.6117 0.86788 0.0
O527 O 0.43658 0.55941 0.84504 0.0
O528 O 0.43836 0.58126 0.82549 0.0
C529 C 0.47288 0.62324 0.8731 0.0
O530 O 0.44738 0.62491 0.86613 0.0
O531 O 0.4939 0.6458 0.84004 0.0
C532 C 0.5018 0.55052 0.79856 0.0
O533 O 0.51985 0.54483 0.80786 0.0
O534 O 0.48102 0.5638 0.80144 0.0
O535 O 0.53273 0.61113 0.82475 0.0
O536 O 0.53088 0.59135 0.84449 0.0
O537 O 0.46587 0.52149 0.82809 0.0
C538 C 0.42011 0.5645 0.83557 0.0
C539 C 0.54916 0.60708 0.83438 0.0
Zn540 Zn 0.55954 0.73987 0.9881 0.0
Zn541 Zn 0.58584 0.77405 0.018 0.0
C542 C 0.50507 0.67364 0.00439 0.0
O543 O 0.5243 0.6885 0.01495 0.0
C544 C 0.60726 0.84822 0.01383 0.0
O545 O 0.5781 0.83676 0.02133 0.0
O546 O 0.55535 0.73551 0.96866 0.0
O547 O 0.54823 0.7796 0.99365 0.0
O548 O 0.53282 0.7593 0.01362 0.0
C549 C 0.52433 0.72599 0.96332 0.0
O550 O 0.49683 0.72281 0.97049 0.0
O551 O 0.51639 0.69029 0.99364 0.0
C552 C 0.62787 0.80082 0.0407 0.0
O553 O 0.65358 0.81523 0.03173 0.0
O554 O 0.5941 0.78101 0.03728 0.0
O555 O 0.60524 0.73974 0.01352 0.0
O556 O 0.60912 0.74476 0.99226 0.0
O557 O 0.61779 0.82549 0.01053 0.0
C558 C 0.52811 0.7741 0.00358 0.0
C559 C 0.61899 0.73719 0.0029 0.0
Zn560 Zn 0.25281 0.81044 0.99087 0.0
Zn561 Zn 0.23142 0.80618 0.01898 0.0
C562 C 0.33123 0.84203 0.99531 0.0
O563 O 0.33343 0.86534 0.98632 0.0
C564 C 0.15577 0.76239 0.01566 0.0
O565 O 0.16386 0.74283 0.0236 0.0
O566 O 0.26452 0.81456 0.97177 0.0
O567 O 0.21342 0.75856 0.99505 0.0
O568 O 0.23685 0.76154 0.01444 0.0
C569 C 0.27847 0.79626 0.96686 0.0
O570 O 0.28193 0.77223 0.9741 0.0
O571 O 0.29948 0.81775 0.99942 0.0
C572 C 0.2137 0.83222 0.04101 0.0
O573 O 0.20716 0.84925 0.03156 0.0
O574 O 0.2257 0.81028 0.03823 0.0
O575 O 0.27107 0.85752 0.01363 0.0
O576 O 0.24334 0.85201 0.99514 0.0
O577 O 0.18145 0.7938 0.0118 0.0
C578 C 0.2187 0.74256 0.00463 0.0
C579 C 0.26317 0.87223 0.00435 0.0
Zn580 Zn 0.17669 0.43258 0.98773 0.0
Zn581 Zn 0.17745 0.40952 0.01621 0.0
C582 C 0.14316 0.47753 0.99287 0.0
O583 O 0.1231 0.46033 0.98267 0.0
C584 C 0.22613 0.38375 0.01715 0.0
O585 O 0.23782 0.41011 0.02589 0.0
O586 O 0.17613 0.44463 0.96883 0.0
O587 O 0.22826 0.44609 0.99294 0.0
O588 O 0.21954 0.46186 0.01241 0.0
C589 C 0.19556 0.47722 0.96429 0.0
O590 O 0.21914 0.5039 0.97189 0.0
O591 O 0.16557 0.46795 0.9973 0.0
C592 C 0.15103 0.36689 0.03866 0.0
O593 O 0.13608 0.34195 0.02945 0.0
O594 O 0.1709 0.40088 0.03552 0.0
O595 O 0.1251 0.39042 0.00968 0.0
O596 O 0.13595 0.37997 0.98986 0.0
O597 O 0.1976 0.37662 0.01051 0.0
C598 C 0.24114 0.46611 0.00301 0.0
C599 C 0.11357 0.37258 0.99917 0.0
Zn600 Zn 0.23454 0.42181 0.51738 0.0
Zn601 Zn 0.26171 0.44242 0.48886 0.0
C602 C 0.15962 0.39439 0.51373 0.0
O603 O 0.16963 0.42267 0.52156 0.0
C604 C 0.34018 0.49163 0.49292 0.0
O605 O 0.34285 0.47144 0.48369 0.0
O606 O 0.22702 0.41245 0.53661 0.0
O607 O 0.2731 0.40794 0.51278 0.0
O608 O 0.25312 0.39137 0.49295 0.0
C609 C 0.21321 0.37835 0.53955 0.0
O610 O 0.20629 0.35425 0.53026 0.0
O611 O 0.18382 0.38633 0.50995 0.0
C612 C 0.28353 0.48141 0.46441 0.0
O613 O 0.28547 0.50861 0.47144 0.0
O614 O 0.27244 0.44995 0.46966 0.0
O615 O 0.2218 0.45427 0.49318 0.0
O616 O 0.24422 0.47321 0.51277 0.0
O617 O 0.30831 0.4826 0.49736 0.0
C618 C 0.26881 0.38805 0.50294 0.0
C619 C 0.22725 0.47534 0.50284 0.0
Zn620 Zn 0.59336 0.81766 0.51492 0.0
Zn621 Zn 0.56526 0.81895 0.48377 0.0
C622 C 0.61672 0.76628 0.51631 0.0
O623 O 0.59077 0.75499 0.52519 0.0
C624 C 0.51325 0.83488 0.49932 0.0
O625 O 0.5357 0.84539 0.50931 0.0
O626 O 0.59914 0.82294 0.53441 0.0
O627 O 0.61765 0.87045 0.50843 0.0
O628 O 0.61246 0.86607 0.48715 0.0
C629 C 0.63262 0.84145 0.53828 0.0
O630 O 0.65924 0.85573 0.52962 0.0
O631 O 0.6242 0.79495 0.50972 0.0
C632 C 0.52831 0.79552 0.45926 0.0
O633 O 0.5006 0.77277 0.46669 0.0
O634 O 0.55997 0.81611 0.46434 0.0
O635 O 0.55799 0.77067 0.49079 0.0
O636 O 0.54063 0.77851 0.51009 0.0
O637 O 0.52169 0.82419 0.48904 0.0
C638 C 0.62704 0.88493 0.49728 0.0
C639 C 0.5376 0.75727 0.50073 0.0
Zn640 Zn 0.18806 0.77165 0.51536 0.0
Zn641 Zn 0.18299 0.74358 0.48625 0.0
C642 C 0.20375 0.83984 0.49939 0.0
O643 O 0.19742 0.82177 0.48845 0.0
C644 C 0.15256 0.66585 0.49139 0.0
O645 O 0.12943 0.66254 0.48216 0.0
O646 O 0.18434 0.77435 0.53473 0.0
O647 O 0.13726 0.73155 0.51011 0.0
O648 O 0.13964 0.75095 0.49025 0.0
C649 C 0.16127 0.78429 0.53823 0.0
O650 O 0.14232 0.79012 0.5293 0.0
O651 O 0.2001 0.8232 0.51005 0.0
C652 C 0.19934 0.71927 0.46211 0.0
O653 O 0.2248 0.71796 0.46923 0.0
O654 O 0.17924 0.73099 0.46716 0.0
O655 O 0.2354 0.78334 0.49042 0.0
O656 O 0.23238 0.76671 0.51087 0.0
O657 O 0.17637 0.69803 0.49529 0.0
C658 C 0.12111 0.73506 0.5003 0.0
C659 C 0.25119 0.78117 0.50066 0.0
Zn660 Zn 0.08562 0.56553 0.31989 0.0
Zn661 Zn 0.10209 0.58552 0.34861 0.0
C662 C 0.0519 0.48955 0.31899 0.0
O663 O 0.07756 0.50133 0.30999 0.0
C664 C 0.15063 0.66432 0.34487 0.0
O665 O 0.13095 0.66651 0.35439 0.0
O666 O 0.07884 0.56383 0.30042 0.0
O667 O 0.07184 0.60331 0.32578 0.0
O668 O 0.05106 0.57703 0.34459 0.0
C669 C 0.04551 0.55246 0.29692 0.0
O670 O 0.02029 0.54477 0.30587 0.0
O671 O 0.04853 0.51332 0.3257 0.0
C672 C 0.14166 0.60783 0.37298 0.0
O673 O 0.16902 0.61075 0.36579 0.0
O674 O 0.10984 0.59573 0.36788 0.0
O675 O 0.11413 0.54596 0.34375 0.0
O676 O 0.13559 0.57165 0.32471 0.0
O677 O 0.14174 0.63265 0.34026 0.0
C678 C 0.0499 0.59604 0.33523 0.0
C679 C 0.13609 0.55257 0.33427 0.0
Zn680 Zn 0.44232 0.52321 0.32178 0.0
Zn681 Zn 0.41318 0.518 0.35053 0.0
C682 C 0.51047 0.54057 0.33827 0.0
O683 O 0.4911 0.53055 0.349 0.0
C684 C 0.33531 0.48869 0.34567 0.0
O685 O 0.332 0.46587 0.35502 0.0
O686 O 0.44594 0.5193 0.30246 0.0
O687 O 0.40324 0.4714 0.32674 0.0
O688 O 0.41917 0.47345 0.34704 0.0
C689 C 0.4574 0.49721 0.29925 0.0
O690 O 0.4647 0.47991 0.3084 0.0
O691 O 0.49452 0.538 0.32754 0.0
C692 C 0.38987 0.53588 0.3746 0.0
O693 O 0.38788 0.56074 0.36736 0.0
O694 O 0.40153 0.51565 0.36963 0.0
O695 O 0.45391 0.56995 0.34612 0.0
O696 O 0.43463 0.56621 0.32603 0.0
O697 O 0.3675 0.51188 0.34158 0.0
C698 C 0.40485 0.45505 0.33682 0.0
C699 C 0.45038 0.58548 0.33604 0.0
Zn700 Zn 0.47568 0.92019 0.31949 0.0
Zn701 Zn 0.4818 0.89578 0.34827 0.0
C702 C 0.45726 0.9706 0.33563 0.0
O703 O 0.4661 0.96052 0.34645 0.0
C704 C 0.51314 0.84959 0.3432 0.0
O705 O 0.53605 0.8704 0.35233 0.0
O706 O 0.47958 0.92726 0.3001 0.0
O707 O 0.52798 0.93423 0.3247 0.0
O708 O 0.52461 0.94716 0.34503 0.0
C709 C 0.50163 0.96078 0.29682 0.0
O710 O 0.51916 0.98545 0.30593 0.0
O711 O 0.46075 0.95774 0.32492 0.0
C712 C 0.4658 0.85277 0.37173 0.0
O713 O 0.44109 0.82644 0.36428 0.0
O714 O 0.48506 0.88537 0.36718 0.0
O715 O 0.42976 0.88417 0.34432 0.0
O716 O 0.43221 0.86947 0.324 0.0
O717 O 0.48908 0.85728 0.339 0.0
C718 C 0.54353 0.95231 0.33487 0.0
C719 C 0.4136 0.86566 0.33423 0.0
H720 H 0.1618 0.18992 0.18646 0.0
H721 H 0.13595 0.99803 0.16061 0.0
H722 H 0.09824 0.1348 0.15239 0.0
H723 H 0.21231 0.0622 0.19099 0.0
H724 H 0.12416 0.04909 0.15667 0.0
H725 H 0.18237 0.14449 0.18771 0.0
C726 C 0.15219 0.16827 0.17922 0.0
C727 C 0.12797 0.16596 0.16937 0.0
C728 C 0.14382 0.05218 0.1641 0.0
C729 C 0.15147 0.11375 0.17075 0.0
C730 C 0.15062 0.02304 0.16634 0.0
C731 C 0.17494 0.0257 0.17622 0.0
C732 C 0.16119 0.08408 0.17186 0.0
C733 C 0.19323 0.05883 0.18331 0.0
C734 C 0.16411 0.14241 0.17991 0.0
C735 C 0.11679 0.13754 0.16018 0.0
N736 N 0.18566 0.08654 0.18108 0.0
N737 N 0.12838 0.11235 0.16116 0.0
H738 H 0.93275 0.14947 0.18888 0.0
H739 H 0.8552 0.95425 0.15278 0.0
H740 H 0.99614 0.12804 0.16068 0.0
H741 H 0.80581 0.97073 0.18697 0.0
H742 H 0.9023 0.02027 0.15312 0.0
H743 H 0.8809 0.08673 0.1856 0.0
C744 C 0.93563 0.13178 0.18186 0.0
C745 C 0.96903 0.14399 0.17513 0.0
C746 C 0.88101 0.00941 0.1605 0.0
C747 C 0.90973 0.07189 0.1714 0.0
C748 C 0.85409 0.97176 0.1603 0.0
C749 C 0.82666 0.95686 0.16992 0.0
C750 C 0.88028 0.03237 0.1703 0.0
C751 C 0.82659 0.9809 0.17942 0.0
C752 C 0.90604 0.09585 0.18004 0.0
C753 C 0.97102 0.11975 0.16614 0.0
N754 N 0.85299 0.01738 0.17938 0.0
N755 N 0.94188 0.08476 0.1646 0.0
H756 H 0.03065 0.83423 0.18678 0.0
H757 H 0.86693 0.86645 0.16254 0.0
H758 H 0.04024 0.90043 0.15335 0.0
H759 H 0.85374 0.788 0.19225 0.0
H760 H 0.92938 0.8773 0.15831 0.0
H761 H 0.96514 0.81553 0.1884 0.0
C762 C 0.01896 0.84475 0.17974 0.0
C763 C 0.04109 0.86915 0.16996 0.0
C764 C 0.91267 0.85741 0.16565 0.0
C765 C 0.96589 0.84786 0.17179 0.0
C766 C 0.87695 0.85113 0.16806 0.0
C767 C 0.85509 0.82644 0.17784 0.0
C768 C 0.92678 0.8391 0.17313 0.0
C769 C 0.86958 0.80738 0.18466 0.0
C770 C 0.98146 0.83395 0.18065 0.0
C771 C 0.02427 0.88165 0.16107 0.0
N772 N 0.9046 0.81439 0.18227 0.0
N773 N 0.98775 0.8711 0.16226 0.0
H774 H 0.13757 0.09443 0.35111 0.0
H775 H 0.06874 0.21517 0.31219 0.0
H776 H 0.18847 0.15418 0.31598 0.0
H777 H 0.0045 0.13773 0.3423 0.0
H778 H 0.11816 0.20083 0.31581 0.0
H779 H 0.0934 0.11693 0.35007 0.0
C780 C 0.13954 0.11236 0.3432 0.0
C781 C 0.16656 0.12216 0.33355 0.0
C782 C 0.09339 0.18722 0.3217 0.0
C783 C 0.11632 0.14823 0.33238 0.0
C784 C 0.06521 0.19556 0.3197 0.0
C785 C 0.03224 0.17739 0.32687 0.0
C786 C 0.08868 0.16059 0.33098 0.0
C787 C 0.02934 0.15225 0.33648 0.0
C788 C 0.11432 0.12519 0.34262 0.0
C789 C 0.16789 0.14559 0.32356 0.0
N790 N 0.05707 0.14439 0.33819 0.0
N791 N 0.1431 0.15777 0.32323 0.0
H792 H 0.86386 0.87126 0.34588 0.0
H793 H 0.83493 0.03394 0.31873 0.0
H794 H 0.77944 0.85459 0.31815 0.0
H795 H 0.90562 0.04837 0.3513 0.0
H796 H 0.81281 0.96759 0.31906 0.0
H797 H 0.87749 0.93513 0.34896 0.0
C798 C 0.84778 0.88081 0.34059 0.0
C799 C 0.82068 0.85758 0.33165 0.0
C800 C 0.833 0.98515 0.32619 0.0
C801 C 0.83652 0.93082 0.335 0.0
C802 C 0.84582 0.02314 0.32597 0.0
C803 C 0.87249 0.04682 0.33492 0.0
C804 C 0.84722 0.97062 0.33534 0.0
C805 C 0.88516 0.03113 0.34419 0.0
C806 C 0.85566 0.91733 0.34233 0.0
C807 C 0.80071 0.8715 0.32509 0.0
N808 N 0.87269 0.99403 0.34408 0.0
N809 N 0.80934 0.9073 0.32678 0.0
H810 H 0.96268 0.80387 0.31963 0.0
H811 H 0.13177 0.99418 0.34491 0.0
H812 H 0.95508 0.86126 0.35318 0.0
H813 H 0.14258 0.92549 0.31598 0.0
H814 H 0.06811 0.94476 0.34894 0.0
H815 H 0.02922 0.84728 0.31872 0.0
C816 C 0.97502 0.82564 0.32682 0.0
C817 C 0.9532 0.82918 0.33642 0.0
C818 C 0.08458 0.94032 0.34183 0.0
C819 C 0.02958 0.87911 0.33543 0.0
C820 C 0.12098 0.9685 0.33954 0.0
C821 C 0.14248 0.96413 0.33 0.0
C822 C 0.06944 0.90766 0.33445 0.0
C823 C 0.12703 0.93021 0.32337 0.0
C824 C 0.0131 0.85032 0.32634 0.0
C825 C 0.97083 0.85762 0.34558 0.0
N826 N 0.09133 0.90349 0.32561 0.0
N827 N 0.00796 0.88173 0.34479 0.0
H828 H 0.8441 0.81396 0.8162 0.0
H829 H 0.86462 0.00202 0.84352 0.0
H830 H 0.90694 0.86854 0.85046 0.0
H831 H 0.7905 0.93918 0.81245 0.0
H832 H 0.87691 0.95129 0.84728 0.0
H833 H 0.82136 0.85769 0.8155 0.0
C834 C 0.85312 0.83516 0.82359 0.0
C835 C 0.87782 0.83789 0.83333 0.0
C836 C 0.8576 0.94838 0.83975 0.0
C837 C 0.8518 0.88807 0.83258 0.0
C838 C 0.85052 0.97732 0.8376 0.0
C839 C 0.82681 0.97499 0.82755 0.0
C840 C 0.84113 0.91703 0.83171 0.0
C841 C 0.80914 0.94226 0.82025 0.0
C842 C 0.83994 0.86 0.82322 0.0
C843 C 0.88812 0.86558 0.84274 0.0
N844 N 0.81703 0.91474 0.82237 0.0
N845 N 0.87532 0.88984 0.84207 0.0
H846 H 0.14221 0.05241 0.85146 0.0
H847 H 0.07414 0.86248 0.81282 0.0
H848 H 0.19641 0.04251 0.81738 0.0
H849 H 0.00927 0.87641 0.8425 0.0
H850 H 0.12396 0.92597 0.81662 0.0
H851 H 0.09768 0.98589 0.85031 0.0
C852 C 0.14487 0.03625 0.84376 0.0
C853 C 0.17294 0.05316 0.83443 0.0
C854 C 0.09896 0.91503 0.82239 0.0
C855 C 0.12216 0.97696 0.83312 0.0
C856 C 0.07054 0.87867 0.82027 0.0
C857 C 0.0373 0.86415 0.82727 0.0
C858 C 0.0942 0.93708 0.8316 0.0
C859 C 0.03431 0.8865 0.83682 0.0
C860 C 0.11942 0.99827 0.84312 0.0
C861 C 0.17507 0.03076 0.82472 0.0
N862 N 0.06228 0.92194 0.83863 0.0
N863 N 0.14998 0.99388 0.8243 0.0
H864 H 0.97079 0.17107 0.81926 0.0
H865 H 0.13845 0.14595 0.84382 0.0
H866 H 0.96164 0.10107 0.85146 0.0
H867 H 0.1493 0.22421 0.81438 0.0
H868 H 0.07514 0.13253 0.84794 0.0
H869 H 0.0372 0.19365 0.81833 0.0
C870 C 0.98276 0.16052 0.82618 0.0
C871 C 0.96049 0.13385 0.83538 0.0
C872 C 0.09151 0.15296 0.84069 0.0
C873 C 0.03677 0.15964 0.83434 0.0
C874 C 0.12773 0.16072 0.83834 0.0
C875 C 0.14914 0.18601 0.82865 0.0
C876 C 0.07647 0.17042 0.83323 0.0
C877 C 0.13379 0.20437 0.8219 0.0
C878 C 0.02078 0.17355 0.82567 0.0
C879 C 0.97769 0.1215 0.84417 0.0
N880 N 0.09828 0.1959 0.82422 0.0
N881 N 0.01476 0.13426 0.84335 0.0
H882 H 0.80356 0.83626 0.68659 0.0
H883 H 0.99523 0.86579 0.65916 0.0
H884 H 0.85709 0.90323 0.65299 0.0
H885 H 0.93029 0.78445 0.68816 0.0
H886 H 0.944 0.87783 0.65589 0.0
H887 H 0.84891 0.81552 0.6867 0.0
C888 C 0.82488 0.84661 0.67922 0.0
C889 C 0.82677 0.87185 0.66984 0.0
C890 C 0.94079 0.85701 0.66285 0.0
C891 C 0.87897 0.84816 0.66992 0.0
C892 C 0.97001 0.85004 0.6647 0.0
C893 C 0.96722 0.82428 0.67404 0.0
C894 C 0.90868 0.83833 0.67046 0.0
C895 C 0.93383 0.80469 0.68091 0.0
C896 C 0.85068 0.83459 0.67924 0.0
C897 C 0.85471 0.88389 0.66043 0.0
N898 N 0.90608 0.81244 0.67909 0.0
N899 N 0.87996 0.87222 0.66078 0.0
H900 H 0.21855 0.1489 0.68672 0.0
H901 H 0.09267 0.95512 0.65059 0.0
H902 H 0.13165 0.13056 0.65986 0.0
H903 H 0.16311 0.96976 0.68326 0.0
H904 H 0.11346 0.02163 0.65126 0.0
H905 H 0.20596 0.08588 0.68269 0.0
C906 C 0.19716 0.13184 0.67983 0.0
C907 C 0.17589 0.14499 0.67372 0.0
C908 C 0.12446 0.01024 0.65823 0.0
C909 C 0.1611 0.07253 0.66914 0.0
C910 C 0.11266 0.97233 0.65784 0.0
C911 C 0.12586 0.95678 0.66697 0.0
C912 C 0.14991 0.03277 0.66773 0.0
C913 C 0.15181 0.98041 0.67613 0.0
C914 C 0.18985 0.09574 0.67758 0.0
C915 C 0.14859 0.12153 0.66486 0.0
N916 N 0.16289 0.01713 0.67629 0.0
N917 N 0.14178 0.08634 0.66291 0.0
H918 H 0.86374 0.00241 0.66019 0.0
H919 H 0.03061 0.19316 0.68631 0.0
H920 H 0.85125 0.06854 0.68974 0.0
H921 H 0.03925 0.13802 0.65229 0.0
H922 H 0.96429 0.14861 0.68722 0.0
H923 H 0.92704 0.05286 0.65636 0.0
C924 C 0.87408 0.02774 0.66574 0.0
C925 C 0.85222 0.0311 0.67539 0.0
C926 C 0.9806 0.14634 0.6795 0.0
C927 C 0.92486 0.08873 0.67118 0.0
C928 C 0.01856 0.17168 0.67902 0.0
C929 C 0.04061 0.16911 0.66928 0.0
C930 C 0.96452 0.1179 0.67026 0.0
C931 C 0.02334 0.14094 0.66 0.0
C932 C 0.91028 0.05651 0.66357 0.0
C933 C 0.8671 0.06461 0.68225 0.0
N934 N 0.98637 0.11622 0.66079 0.0
N935 N 0.90262 0.09191 0.68012 0.0
H936 H 0.80588 0.33426 0.49281 0.0
H937 H 0.83324 0.5263 0.51882 0.0
H938 H 0.88831 0.40237 0.52107 0.0
H939 H 0.76182 0.46745 0.48668 0.0
H940 H 0.8563 0.48285 0.51876 0.0
H941 H 0.79245 0.38438 0.48919 0.0
C942 C 0.82157 0.35995 0.49812 0.0
C943 C 0.84801 0.36395 0.50737 0.0
C944 C 0.83576 0.47949 0.51165 0.0
C945 C 0.83241 0.42125 0.50337 0.0
C946 C 0.82241 0.50421 0.51172 0.0
C947 C 0.79518 0.50019 0.50284 0.0
C948 C 0.82153 0.45016 0.50274 0.0
C949 C 0.78266 0.47142 0.49374 0.0
C950 C 0.81381 0.38854 0.49606 0.0
C951 C 0.86753 0.39792 0.51391 0.0
N952 N 0.79564 0.44721 0.49401 0.0
N953 N 0.85902 0.42505 0.5119 0.0
H954 H 0.51152 0.2792 0.48096 0.0
H955 H 0.63594 0.46007 0.52315 0.0
H956 H 0.49534 0.28692 0.52179 0.0
H957 H 0.64185 0.4587 0.48155 0.0
H958 H 0.58343 0.39705 0.52268 0.0
H959 H 0.55873 0.34489 0.48084 0.0
C960 C 0.51787 0.29469 0.48991 0.0
C961 C 0.49956 0.27745 0.50143 0.0
C962 C 0.59595 0.41055 0.51363 0.0
C963 C 0.55357 0.3527 0.50133 0.0
C964 C 0.62599 0.44658 0.51389 0.0
C965 C 0.64348 0.46458 0.50236 0.0
C966 C 0.58342 0.39211 0.50178 0.0
C967 C 0.6292 0.44584 0.49066 0.0
C968 C 0.54473 0.33225 0.48981 0.0
C969 C 0.50879 0.299 0.5127 0.0
N970 N 0.60019 0.41042 0.49067 0.0
N971 N 0.53527 0.33543 0.51237 0.0
H972 H 0.53503 0.18664 0.4925 0.0
H973 H 0.70561 0.1689 0.51867 0.0
H974 H 0.52553 0.1102 0.52244 0.0
H975 H 0.71285 0.23435 0.4853 0.0
H976 H 0.63892 0.14506 0.51949 0.0
H977 H 0.59903 0.20169 0.48875 0.0
C978 C 0.54619 0.17259 0.49816 0.0
C979 C 0.52493 0.14733 0.50788 0.0
C980 C 0.65501 0.16445 0.51193 0.0
C981 C 0.59839 0.16486 0.50376 0.0
C982 C 0.69317 0.17822 0.51149 0.0
C983 C 0.71495 0.20392 0.50196 0.0
C984 C 0.63839 0.17666 0.50285 0.0
C985 C 0.69718 0.2147 0.49284 0.0
C986 C 0.5828 0.18129 0.49603 0.0
C987 C 0.54088 0.12996 0.51489 0.0
N988 N 0.65998 0.20124 0.49358 0.0
N989 N 0.57675 0.13937 0.51279 0.0
H990 H 0.80525 0.43094 0.68457 0.0
H991 H 0.72882 0.55037 0.64919 0.0
H992 H 0.85335 0.49421 0.6498 0.0
H993 H 0.66844 0.46922 0.67879 0.0
H994 H 0.77998 0.53789 0.6516 0.0
H995 H 0.75989 0.45184 0.68463 0.0
C996 C 0.80639 0.44934 0.67697 0.0
C997 C 0.83301 0.4606 0.6671 0.0
C998 C 0.75568 0.52309 0.65765 0.0
C999 C 0.78119 0.4848 0.66717 0.0
C1000 C 0.72653 0.53037 0.65635 0.0
C1001 C 0.69412 0.5106 0.66373 0.0
C1002 C 0.75251 0.49598 0.66645 0.0
C1003 C 0.69277 0.48496 0.67284 0.0
C1004 C 0.78045 0.46125 0.67701 0.0
C1005 C 0.83317 0.48458 0.65753 0.0
N1006 N 0.72142 0.47822 0.67388 0.0
N1007 N 0.8076 0.49582 0.65779 0.0
H1008 H 0.5329 0.19667 0.67742 0.0
H1009 H 0.50133 0.36074 0.65338 0.0
H1010 H 0.45338 0.18347 0.64813 0.0
H1011 H 0.56887 0.37058 0.68644 0.0
H1012 H 0.48171 0.295 0.65196 0.0
H1013 H 0.54415 0.25921 0.68171 0.0
C1014 C 0.51744 0.20672 0.672 0.0
C1015 C 0.49237 0.18487 0.66231 0.0
C1016 C 0.50065 0.31143 0.65958 0.0
C1017 C 0.50547 0.25663 0.66709 0.0
C1018 C 0.51203 0.34906 0.66036 0.0
C1019 C 0.53709 0.3713 0.66997 0.0
C1020 C 0.51467 0.29585 0.66838 0.0
C1021 C 0.54963 0.3545 0.67884 0.0
C1022 C 0.52394 0.24248 0.67445 0.0
C1023 C 0.47308 0.19934 0.65564 0.0
N1024 N 0.53855 0.31783 0.67776 0.0
N1025 N 0.48033 0.23443 0.65805 0.0
H1026 H 0.80037 0.33173 0.67568 0.0
H1027 H 0.63644 0.13633 0.65129 0.0
H1028 H 0.81355 0.26672 0.64586 0.0
H1029 H 0.62708 0.19316 0.6847 0.0
H1030 H 0.70216 0.18263 0.64981 0.0
H1031 H 0.73809 0.28001 0.67998 0.0
C1032 C 0.79038 0.30641 0.67015 0.0
C1033 C 0.81215 0.3037 0.66032 0.0
C1034 C 0.68584 0.18487 0.65753 0.0
C1035 C 0.74064 0.24452 0.66509 0.0
C1036 C 0.64822 0.15847 0.65836 0.0
C1037 C 0.62609 0.161 0.66808 0.0
C1038 C 0.70151 0.21429 0.66641 0.0
C1039 C 0.64303 0.19018 0.67702 0.0
C1040 C 0.75476 0.2769 0.6726 0.0
C1041 C 0.79775 0.27016 0.65349 0.0
N1042 N 0.67965 0.21586 0.6759 0.0
N1043 N 0.76278 0.24206 0.65591 0.0
H1044 H 0.51039 0.14325 0.14949 0.0
H1045 H 0.53369 0.33108 0.17856 0.0
H1046 H 0.57395 0.19477 0.18392 0.0
H1047 H 0.45428 0.26714 0.1489 0.0
H1048 H 0.54748 0.28084 0.18125 0.0
H1049 H 0.48894 0.1881 0.14942 0.0
C1050 C 0.51986 0.16401 0.15705 0.0
C1051 C 0.54426 0.16542 0.16667 0.0
C1052 C 0.52671 0.27762 0.17427 0.0
C1053 C 0.51973 0.21698 0.16665 0.0
C1054 C 0.51874 0.30627 0.17274 0.0
C1055 C 0.49295 0.30346 0.16342 0.0
C1056 C 0.50904 0.24609 0.16633 0.0
C1057 C 0.47445 0.27062 0.15618 0.0
C1058 C 0.50742 0.18952 0.15704 0.0
C1059 C 0.55525 0.19273 0.17629 0.0
N1060 N 0.48316 0.24345 0.15768 0.0
N1061 N 0.54315 0.21762 0.17597 0.0
H1062 H 0.80881 0.37786 0.18422 0.0
H1063 H 0.74035 0.18492 0.1475 0.0
H1064 H 0.86228 0.36451 0.15058 0.0
H1065 H 0.67345 0.2018 0.17555 0.0
H1066 H 0.79062 0.24811 0.15137 0.0
H1067 H 0.7639 0.31115 0.18372 0.0
C1068 C 0.81124 0.3609 0.17678 0.0
C1069 C 0.83908 0.37686 0.16734 0.0
C1070 C 0.76507 0.23788 0.15677 0.0
C1071 C 0.78809 0.30063 0.16678 0.0
C1072 C 0.73638 0.20168 0.15462 0.0
C1073 C 0.70243 0.1881 0.1611 0.0
C1074 C 0.75989 0.26074 0.16549 0.0
C1075 C 0.69904 0.21118 0.17025 0.0
C1076 C 0.78561 0.32286 0.1765 0.0
C1077 C 0.841 0.35353 0.15796 0.0
N1078 N 0.72728 0.24648 0.1721 0.0
N1079 N 0.81584 0.31668 0.1579 0.0
H1080 H 0.81523 0.54995 0.14667 0.0
H1081 H 0.62702 0.43131 0.18657 0.0
H1082 H 0.8012 0.46993 0.17588 0.0
H1083 H 0.63645 0.49552 0.15258 0.0
H1084 H 0.69327 0.45211 0.18497 0.0
H1085 H 0.75258 0.53788 0.15115 0.0
C1086 C 0.79921 0.53023 0.15415 0.0
C1087 C 0.81343 0.51069 0.16082 0.0
C1088 C 0.68084 0.46177 0.17791 0.0
C1089 C 0.74144 0.49649 0.16592 0.0
C1090 C 0.64303 0.44994 0.17882 0.0
C1091 C 0.62606 0.46144 0.16963 0.0
C1092 C 0.70189 0.48546 0.16779 0.0
C1093 C 0.64824 0.48567 0.15982 0.0
C1094 C 0.76333 0.5232 0.15666 0.0
C1095 C 0.79131 0.48548 0.17044 0.0
N1096 N 0.68493 0.49677 0.15914 0.0
N1097 N 0.75632 0.4789 0.17263 0.0
H1098 H 0.59579 0.118 0.02124 0.0
H1099 H 0.52067 0.23875 0.98582 0.0
H1100 H 0.65993 0.20283 0.99314 0.0
H1101 H 0.47052 0.1718 0.01972 0.0
H1102 H 0.56733 0.21918 0.98599 0.0
H1103 H 0.54465 0.13004 0.01815 0.0
C1104 C 0.59899 0.13884 0.01429 0.0
C1105 C 0.63239 0.15966 0.00753 0.0
C1106 C 0.54599 0.2087 0.99335 0.0
C1107 C 0.5739 0.17381 0.00401 0.0
C1108 C 0.51935 0.21981 0.99325 0.0
C1109 C 0.49186 0.20717 0.00285 0.0
C1110 C 0.54488 0.18449 0.00303 0.0
C1111 C 0.49143 0.1826 0.01222 0.0
C1112 C 0.5698 0.14583 0.01258 0.0
C1113 C 0.63479 0.18626 0.99862 0.0
N1114 N 0.51752 0.17213 0.01208 0.0
N1115 N 0.60604 0.19275 0.99719 0.0
H1116 H 0.76508 0.29376 0.98185 0.0
H1117 H 0.8908 0.48345 0.02018 0.0
H1118 H 0.82882 0.30292 0.01594 0.0
H1119 H 0.81147 0.47086 0.9909 0.0
H1120 H 0.87639 0.41984 0.01612 0.0
H1121 H 0.78909 0.36077 0.98269 0.0
C1122 C 0.78428 0.30985 0.98946 0.0
C1123 C 0.79466 0.2926 0.99892 0.0
C1124 C 0.8624 0.43111 0.01049 0.0
C1125 C 0.82237 0.36927 0.99988 0.0
C1126 C 0.87077 0.46754 0.01275 0.0
C1127 C 0.85204 0.48244 0.00597 0.0
C1128 C 0.83514 0.40936 1.00136 0.0
C1129 C 0.82641 0.46045 0.99643 0.0
C1130 C 0.79795 0.34809 0.98993 0.0
C1131 C 0.81974 0.31491 0.00852 0.0
N1132 N 0.81847 0.42491 0.99449 0.0
N1133 N 0.83261 0.35201 0.00878 0.0
H1134 H 0.54254 0.35988 0.02458 0.0
H1135 H 0.71484 0.48985 0.97987 0.0
H1136 H 0.53454 0.35884 0.98299 0.0
H1137 H 0.71091 0.50648 0.02088 0.0
H1138 H 0.64969 0.44082 0.98059 0.0
H1139 H 0.60507 0.41268 0.02321 0.0
C1140 C 0.55392 0.37088 0.01513 0.0
C1141 C 0.53336 0.35484 0.00386 0.0
C1142 C 0.66308 0.45538 0.9894 0.0
C1143 C 0.60527 0.41536 0.00223 0.0
C1144 C 0.70029 0.48324 0.98902 0.0
C1145 C 0.7184 0.50214 1.00036 0.0
C1146 C 0.64404 0.44617 1.00122 0.0
C1147 C 0.69812 0.49261 0.01191 0.0
C1148 C 0.58965 0.40114 0.01436 0.0
C1149 C 0.54947 0.37043 0.9919 0.0
N1150 N 0.66212 0.46515 0.01205 0.0
N1151 N 0.58471 0.39972 0.99139 0.0
H1152 H 0.42456 0.81415 0.81882 0.0
H1153 H 0.55356 0.74855 0.85401 0.0
H1154 H 0.49122 0.8669 0.85256 0.0
H1155 H 0.46798 0.68001 0.82674 0.0
H1156 H 0.53882 0.79776 0.85061 0.0
H1157 H 0.44734 0.76993 0.81892 0.0
C1158 C 0.44414 0.81659 0.82619 0.0
C1159 C 0.4557 0.84401 0.83578 0.0
C1160 C 0.52347 0.77208 0.84528 0.0
C1161 C 0.48204 0.79387 0.83587 0.0
C1162 C 0.53201 0.74399 0.84716 0.0
C1163 C 0.51175 0.7099 0.84075 0.0
C1164 C 0.49451 0.76619 0.83689 0.0
C1165 C 0.48418 0.70574 0.83196 0.0
C1166 C 0.45707 0.79134 0.82625 0.0
C1167 C 0.48117 0.84594 0.84507 0.0
N1168 N 0.47617 0.73344 0.83036 0.0
N1169 N 0.49341 0.82122 0.84489 0.0
H1170 H 0.1622 0.61399 0.81391 0.0
H1171 H 0.30179 0.78512 0.85764 0.0
H1172 H 0.15112 0.61965 0.8552 0.0
H1173 H 0.29799 0.79347 0.81616 0.0
H1174 H 0.24877 0.72269 0.85662 0.0
H1175 H 0.21408 0.67804 0.81423 0.0
C1176 C 0.17064 0.62867 0.82303 0.0
C1177 C 0.15233 0.61141 0.83455 0.0
C1178 C 0.25934 0.73814 0.84772 0.0
C1179 C 0.21155 0.68441 0.83497 0.0
C1180 C 0.28976 0.77383 0.84828 0.0
C1181 C 0.3044 0.79459 0.83695 0.0
C1182 C 0.24346 0.72271 0.83573 0.0
C1183 C 0.28749 0.77846 0.82513 0.0
C1184 C 0.20013 0.66522 0.82319 0.0
C1185 C 0.16432 0.63178 0.84608 0.0
N1186 N 0.25797 0.7433 0.82481 0.0
N1187 N 0.19325 0.66708 0.84599 0.0
H1188 H 0.37101 0.51532 0.85304 0.0
H1189 H 0.20057 0.53426 0.82785 0.0
H1190 H 0.37691 0.57875 0.81923 0.0
H1191 H 0.19106 0.45667 0.85735 0.0
H1192 H 0.26426 0.54882 0.82379 0.0
H1193 H 0.30447 0.49201 0.85425 0.0
C1194 C 0.3583 0.52434 0.84586 0.0
C1195 C 0.37961 0.54932 0.83609 0.0
C1196 C 0.24809 0.52829 0.83105 0.0
C1197 C 0.30333 0.52269 0.83742 0.0
C1198 C 0.2117 0.51992 0.83336 0.0
C1199 C 0.19056 0.49445 0.84304 0.0
C1200 C 0.26356 0.51132 0.83855 0.0
C1201 C 0.20637 0.47662 0.84984 0.0
C1202 C 0.32023 0.51085 0.84651 0.0
C1203 C 0.36155 0.55967 0.82696 0.0
N1204 N 0.24206 0.48572 0.84756 0.0
N1205 N 0.32447 0.54655 0.82791 0.0
H1206 H 0.4733 0.75869 0.0213 0.0
H1207 H 0.40049 0.87926 0.98454 0.0
H1208 H 0.52237 0.82085 0.98641 0.0
H1209 H 0.33679 0.79743 0.01357 0.0
H1210 H 0.45123 0.86664 0.98783 0.0
H1211 H 0.4284 0.78037 0.021 0.0
C1212 C 0.47474 0.77701 0.01361 0.0
C1213 C 0.50139 0.78767 0.00379 0.0
C1214 C 0.42628 0.85171 0.99356 0.0
C1215 C 0.45037 0.81278 0.00346 0.0
C1216 C 0.39736 0.85906 0.99175 0.0
C1217 C 0.36417 0.83909 0.99869 0.0
C1218 C 0.42206 0.82431 0.00242 0.0
C1219 C 0.36177 0.81326 0.00793 0.0
C1220 C 0.44911 0.78935 0.01345 0.0
C1221 C 0.50205 0.81156 0.99409 0.0
N1222 N 0.39022 0.80641 0.00945 0.0
N1223 N 0.47689 0.82325 0.99417 0.0
H1224 H 0.16725 0.69316 0.98781 0.0
H1225 H 0.184 0.52158 0.01308 0.0
H1226 H 0.23235 0.69905 0.02112 0.0
H1227 H 0.10987 0.51415 0.98257 0.0
H1228 H 0.19761 0.58475 0.01759 0.0
H1229 H 0.14237 0.62639 0.98691 0.0
C1230 C 0.17632 0.68039 0.99496 0.0
C1231 C 0.20232 0.70182 0.00446 0.0
C1232 C 0.17797 0.56912 0.01003 0.0
C1233 C 0.17381 0.62512 0.00348 0.0
C1234 C 0.17008 0.53298 0.00747 0.0
C1235 C 0.14609 0.51267 0.99731 0.0
C1236 C 0.16198 0.58518 0.00233 0.0
C1237 C 0.12875 0.52883 0.99042 0.0
C1238 C 0.16191 0.64216 0.99448 0.0
C1239 C 0.21256 0.68363 0.01358 0.0
N1240 N 0.13742 0.56429 0.99295 0.0
N1241 N 0.19856 0.64635 0.01278 0.0
H1242 H 0.29253 0.48722 0.98371 0.0
H1243 H 0.46176 0.63997 0.02575 0.0
H1244 H 0.28086 0.50963 0.02363 0.0
H1245 H 0.46386 0.63025 0.98429 0.0
H1246 H 0.39805 0.5873 0.02592 0.0
H1247 H 0.35781 0.53478 0.98454 0.0
C1248 C 0.30369 0.50207 0.99268 0.0
C1249 C 0.28104 0.49451 0.0036 0.0
C1250 C 0.41262 0.59662 0.01681 0.0
C1251 C 0.35613 0.5492 0.00461 0.0
C1252 C 0.44903 0.62652 0.01671 0.0
C1253 C 0.46813 0.63966 0.00498 0.0
C1254 C 0.39538 0.5796 0.00511 0.0
C1255 C 0.45018 0.62126 0.99356 0.0
C1256 C 0.34104 0.52931 0.99314 0.0
C1257 C 0.29722 0.51469 0.01495 0.0
N1258 N 0.41488 0.5923 0.99392 0.0
N1259 N 0.33379 0.54117 0.01516 0.0
H1260 H 0.24138 0.5313 0.5199 0.0
H1261 H 0.11637 0.59555 0.4814 0.0
H1262 H 0.17818 0.47687 0.48568 0.0
H1263 H 0.19701 0.66283 0.51028 0.0
H1264 H 0.13008 0.54593 0.48565 0.0
H1265 H 0.21745 0.57432 0.51899 0.0
C1266 C 0.22236 0.52828 0.51223 0.0
C1267 C 0.21212 0.50075 0.50276 0.0
C1268 C 0.14449 0.57142 0.49115 0.0
C1269 C 0.18447 0.54962 0.50173 0.0
C1270 C 0.13652 0.5997 0.48878 0.0
C1271 C 0.1559 0.63357 0.49538 0.0
C1272 C 0.17194 0.57702 0.5002 0.0
C1273 C 0.18166 0.6373 0.50487 0.0
C1274 C 0.20872 0.55283 0.51173 0.0
C1275 C 0.18723 0.49799 0.49309 0.0
N1276 N 0.18917 0.60949 0.50692 0.0
N1277 N 0.17435 0.52219 0.49281 0.0
H1278 H 0.48021 0.71949 0.51787 0.0
H1279 H 0.41044 0.52365 0.483 0.0
H1280 H 0.53375 0.70306 0.48488 0.0
H1281 H 0.34375 0.54301 0.5104 0.0
H1282 H 0.46078 0.58711 0.48633 0.0
H1283 H 0.4345 0.65295 0.51774 0.0
C1284 C 0.48251 0.7019 0.51066 0.0
C1285 C 0.51067 0.71695 0.5013 0.0
C1286 C 0.43526 0.5774 0.49171 0.0
C1287 C 0.45871 0.6409 0.50115 0.0
C1288 C 0.40651 0.54105 0.48986 0.0
C1289 C 0.37263 0.52801 0.49634 0.0
C1290 C 0.43022 0.601 0.50011 0.0
C1291 C 0.3693 0.55192 0.50514 0.0
C1292 C 0.4564 0.66396 0.51058 0.0
C1293 C 0.51233 0.69281 0.4922 0.0
N1294 N 0.39762 0.58735 0.50669 0.0
N1295 N 0.48672 0.65609 0.49234 0.0
H1296 H 0.47561 0.83704 0.52084 0.0
H1297 H 0.29831 0.80415 0.47993 0.0
H1298 H 0.46815 0.82841 0.47927 0.0
H1299 H 0.2957 0.78789 0.52119 0.0
H1300 H 0.36391 0.82251 0.47985 0.0
H1301 H 0.41285 0.82847 0.52145 0.0
C1302 C 0.46096 0.83374 0.51186 0.0
C1303 C 0.47697 0.83311 0.50001 0.0
C1304 C 0.34902 0.81506 0.48893 0.0
C1305 C 0.4055 0.82338 0.50062 0.0
C1306 C 0.31156 0.80464 0.48899 0.0
C1307 C 0.29137 0.79416 0.50057 0.0
C1308 C 0.36654 0.81519 0.50054 0.0
C1309 C 0.31009 0.79544 0.51202 0.0
C1310 C 0.42514 0.8287 0.51221 0.0
C1311 C 0.45675 0.8287 0.48864 0.0
N1312 N 0.34661 0.80564 0.51171 0.0
N1313 N 0.42209 0.82391 0.48924 0.0
H1314 H 0.13724 0.50259 0.35109 0.0
H1315 H 0.33234 0.5335 0.32686 0.0
H1316 H 0.1951 0.5706 0.31814 0.0
H1317 H 0.26487 0.45221 0.35551 0.0
H1318 H 0.28132 0.54522 0.32266 0.0
H1319 H 0.18274 0.48212 0.35221 0.0
C1320 C 0.15947 0.51315 0.34405 0.0
C1321 C 0.16253 0.53861 0.33456 0.0
C1322 C 0.27752 0.5245 0.32975 0.0
C1323 C 0.2149 0.51527 0.33583 0.0
C1324 C 0.30663 0.51774 0.33215 0.0
C1325 C 0.30302 0.49205 0.34165 0.0
C1326 C 0.24468 0.5057 0.33699 0.0
C1327 C 0.26901 0.47239 0.34816 0.0
C1328 C 0.18539 0.50132 0.34467 0.0
C1329 C 0.19175 0.55105 0.32564 0.0
N1330 N 0.24135 0.47993 0.34581 0.0
N1331 N 0.21701 0.53952 0.32656 0.0
H1332 H 0.49485 0.63701 0.35395 0.0
H1333 H 0.46967 0.79977 0.3246 0.0
H1334 H 0.43664 0.62588 0.31824 0.0
H1335 H 0.54884 0.8168 0.35454 0.0
H1336 H 0.45795 0.73647 0.32174 0.0
H1337 H 0.51498 0.70309 0.35425 0.0
C1338 C 0.48636 0.64847 0.34615 0.0
C1339 C 0.46384 0.6258 0.33609 0.0
C1340 C 0.47824 0.75423 0.32882 0.0
C1341 C 0.48675 0.70152 0.33639 0.0
C1342 C 0.485 0.7904 0.33044 0.0
C1343 C 0.5101 0.81357 0.33989 0.0
C1344 C 0.49636 0.74098 0.3368 0.0
C1345 C 0.52918 0.79993 0.34716 0.0
C1346 C 0.49802 0.68626 0.34629 0.0
C1347 C 0.45393 0.64228 0.3262 0.0
N1348 N 0.52157 0.7644 0.34558 0.0
N1349 N 0.46519 0.67907 0.32665 0.0
H1350 H 0.19806 0.67009 0.32544 0.0
H1351 H 0.36381 0.85969 0.3526 0.0
H1352 H 0.18512 0.73305 0.35609 0.0
H1353 H 0.3714 0.81068 0.31681 0.0
H1354 H 0.29797 0.81373 0.35377 0.0
H1355 H 0.26083 0.72167 0.32162 0.0
C1356 C 0.20821 0.69494 0.33126 0.0
C1357 C 0.18636 0.69711 0.34118 0.0
C1358 C 0.31392 0.81314 0.3456 0.0
C1359 C 0.25836 0.75602 0.33696 0.0
C1360 C 0.35161 0.83931 0.34496 0.0
C1361 C 0.37326 0.83891 0.33463 0.0
C1362 C 0.29768 0.78599 0.33594 0.0
C1363 C 0.35579 0.81199 0.32496 0.0
C1364 C 0.24408 0.72436 0.32908 0.0
C1365 C 0.20096 0.73004 0.34837 0.0
N1366 N 0.31909 0.78638 0.32591 0.0
N1367 N 0.23617 0.75798 0.34622 0.0
H1368 H 0.22597 0.34937 0.15781 0.0
H1369 H 0.40434 0.34462 0.18294 0.0
H1370 H 0.22617 0.24743 0.16492 0.0
H1371 H 0.4141 0.42568 0.15488 0.0
H1372 H 0.33676 0.31502 0.18158 0.0
H1373 H 0.29344 0.38418 0.16191 0.0
C1374 C 0.24014 0.33449 0.16047 0.0
C1375 C 0.22083 0.29564 0.16101 0.0
C1376 C 0.35377 0.33946 0.1758 0.0
C1377 C 0.29699 0.33483 0.1658 0.0
C1378 C 0.39227 0.35641 0.17658 0.0
C1379 C 0.41483 0.38748 0.16892 0.0
C1380 C 0.33766 0.35409 0.16751 0.0
C1381 C 0.39766 0.40154 0.16084 0.0
C1382 C 0.27846 0.35422 0.16269 0.0
C1383 C 0.24028 0.27742 0.16434 0.0
N1384 N 0.35999 0.38478 0.16036 0.0
N1385 N 0.27729 0.29717 0.16667 0.0
H1386 H 0.57545 0.99204 0.14793 0.0
H1387 H 0.69914 0.91598 0.17891 0.0
H1388 H 0.63103 0.03129 0.18458 0.0
H1389 H 0.61601 0.8563 0.14979 0.0
H1390 H 0.67565 0.95913 0.18112 0.0
H1391 H 0.59185 0.94328 0.14809 0.0
C1392 C 0.5911 0.99042 0.15601 0.0
C1393 C 0.60204 0.01593 0.16622 0.0
C1394 C 0.66228 0.9363 0.17437 0.0
C1395 C 0.62099 0.96019 0.16644 0.0
C1396 C 0.67563 0.91162 0.17312 0.0
C1397 C 0.65968 0.88259 0.16409 0.0
C1398 C 0.63316 0.93224 0.16641 0.0
C1399 C 0.62925 0.87829 0.15685 0.0
C1400 C 0.60027 0.96243 0.15613 0.0
C1401 C 0.62207 0.01228 0.17649 0.0
N1402 N 0.61731 0.90313 0.15805 0.0
N1403 N 0.63117 0.98514 0.17628 0.0
H1404 H 0.10285 0.78269 0.17693 0.0
H1405 H 0.98826 0.58396 0.143 0.0
H1406 H 0.0691 0.76533 0.13696 0.0
H1407 H 0.98679 0.59767 0.18431 0.0
H1408 H 0.02926 0.65055 0.1408 0.0
H1409 H 0.07111 0.71485 0.17992 0.0
C1410 C 0.0892 0.76463 0.16878 0.0
C1411 C 0.08827 0.77946 0.15671 0.0
C1412 C 0.02012 0.63901 0.15036 0.0
C1413 C 0.0525 0.70259 0.16 0.0
C1414 C 0.99673 0.60092 0.15164 0.0
C1415 C 0.98367 0.58519 0.16385 0.0
C1416 C 0.03079 0.66174 0.16136 0.0
C1417 C 0.99587 0.60869 0.17469 0.0
C1418 C 0.07099 0.72608 0.1705 0.0
C1419 C 0.07012 0.75501 0.14646 0.0
N1420 N 0.01867 0.6459 0.17319 0.0
N1421 N 0.053 0.71787 0.14834 0.0
H1422 H 0.34799 0.22461 0.34604 0.0
H1423 H 0.34864 0.40574 0.32149 0.0
H1424 H 0.24712 0.22541 0.33734 0.0
H1425 H 0.42203 0.41177 0.35202 0.0
H1426 H 0.31855 0.33798 0.32202 0.0
H1427 H 0.38319 0.29246 0.34297 0.0
C1428 C 0.33347 0.23903 0.34323 0.0
C1429 C 0.29477 0.21976 0.34194 0.0
C1430 C 0.34142 0.35425 0.32852 0.0
C1431 C 0.33443 0.29635 0.33832 0.0
C1432 C 0.35863 0.3928 0.32822 0.0
C1433 C 0.38765 0.41429 0.3368 0.0
C1434 C 0.35388 0.33711 0.33724 0.0
C1435 C 0.39947 0.39611 0.34535 0.0
C1436 C 0.3534 0.27754 0.3416 0.0
C1437 C 0.27697 0.2395 0.33846 0.0
N1438 N 0.3826 0.35843 0.34532 0.0
N1439 N 0.29698 0.27677 0.33671 0.0
H1440 H 0.58371 0.0134 0.35005 0.0
H1441 H 0.77467 0.0256 0.33874 0.0
H1442 H 0.59545 0.94697 0.32046 0.0
H1443 H 0.7711 0.12617 0.34498 0.0
H1444 H 0.70778 0.99252 0.33448 0.0
H1445 H 0.65162 0.05216 0.35102 0.0
C1446 C 0.60059 0.00709 0.34375 0.0
C1447 C 0.5841 0.97695 0.33519 0.0
C1448 C 0.72174 0.02191 0.33664 0.0
C1449 C 0.66119 0.02053 0.3364 0.0
C1450 C 0.75972 0.0407 0.3391 0.0
C1451 C 0.77811 0.07854 0.34217 0.0
C1452 C 0.70194 0.04088 0.33768 0.0
C1453 C 0.75773 0.097 0.34254 0.0
C1454 C 0.63916 0.02929 0.34424 0.0
C1455 C 0.60712 0.97002 0.32717 0.0
N1456 N 0.72041 0.07779 0.34055 0.0
N1457 N 0.64459 0.9913 0.32812 0.0
H1458 H 0.97788 0.75476 0.34115 0.0
H1459 H 0.9859 0.5718 0.34916 0.0
H1460 H 0.87676 0.6504 0.34633 0.0
H1461 H 0.05866 0.65737 0.32262 0.0
H1462 H 0.94762 0.60138 0.35057 0.0
H1463 H 0.01078 0.72109 0.33646 0.0
C1464 C 0.96261 0.72469 0.34119 0.0
C1465 C 0.92468 0.70517 0.3441 0.0
C1466 C 0.97178 0.61335 0.34435 0.0
C1467 C 0.96214 0.6667 0.33908 0.0
C1468 C 0.99372 0.59671 0.34361 0.0
C1469 C 0.02553 0.61229 0.33581 0.0
C1470 C 0.98237 0.64623 0.3375 0.0
C1471 C 0.03434 0.64444 0.32875 0.0
C1472 C 0.98131 0.70557 0.33848 0.0
C1473 C 0.90602 0.6663 0.34403 0.0
N1474 N 0.01317 0.66067 0.32991 0.0
N1475 N 0.92512 0.6482 0.34177 0.0
H1476 H 0.59956 0.66498 0.81983 0.0
H1477 H 0.77762 0.65837 0.84398 0.0
H1478 H 0.5909 0.5855 0.84837 0.0
H1479 H 0.77875 0.7612 0.83738 0.0
H1480 H 0.71023 0.62435 0.83989 0.0
H1481 H 0.66725 0.69376 0.82053 0.0
C1482 C 0.6119 0.65334 0.82613 0.0
C1483 C 0.58974 0.62307 0.83415 0.0
C1484 C 0.7255 0.65433 0.8392 0.0
C1485 C 0.66673 0.65533 0.83479 0.0
C1486 C 0.76374 0.67362 0.84143 0.0
C1487 C 0.78336 0.71247 0.84106 0.0
C1488 C 0.70735 0.67418 0.83624 0.0
C1489 C 0.76434 0.73119 0.83784 0.0
C1490 C 0.6504 0.6698 0.82654 0.0
C1491 C 0.60711 0.60908 0.84215 0.0
N1492 N 0.72733 0.71185 0.83551 0.0
N1493 N 0.64471 0.62531 0.84226 0.0
H1494 H 0.32651 0.11727 0.83027 0.0
H1495 H 0.36718 0.96485 0.86124 0.0
H1496 H 0.28234 0.06077 0.86646 0.0
H1497 H 0.39815 0.0037 0.82204 0.0
H1498 H 0.34234 0.00612 0.86383 0.0
H1499 H 0.35906 0.08189 0.82757 0.0
C1500 C 0.32392 0.09771 0.83767 0.0
C1501 C 0.30152 0.09174 0.84856 0.0
C1502 C 0.35455 0.00574 0.85464 0.0
C1503 C 0.33845 0.05157 0.84557 0.0
C1504 C 0.36881 0.98209 0.85314 0.0
C1505 C 0.38453 0.98047 0.84135 0.0
C1506 C 0.35581 0.02812 0.84429 0.0
C1507 C 0.38607 0.00387 0.83128 0.0
C1508 C 0.34232 0.07749 0.8361 0.0
C1509 C 0.29898 0.06606 0.85784 0.0
N1510 N 0.3717 0.02668 0.83295 0.0
N1511 N 0.31713 0.047 0.85612 0.0
H1512 H 0.92834 0.2268 0.86956 0.0
H1513 H 0.98804 0.39631 0.82133 0.0
H1514 H 0.88685 0.21201 0.83054 0.0
H1515 H 0.01767 0.40715 0.86173 0.0
H1516 H 0.94721 0.32953 0.82453 0.0
H1517 H 0.95746 0.2935 0.86696 0.0
C1518 C 0.92524 0.23768 0.86043 0.0
C1519 C 0.90554 0.21395 0.8502 0.0
C1520 C 0.96241 0.34667 0.8327 0.0
C1521 C 0.93917 0.29058 0.84708 0.0
C1522 C 0.98574 0.38476 0.83089 0.0
C1523 C 0.00671 0.40731 0.84125 0.0
C1524 C 0.96019 0.33116 0.84493 0.0
C1525 C 0.00245 0.39088 0.85342 0.0
C1526 C 0.94181 0.27584 0.85896 0.0
C1527 C 0.90194 0.22949 0.83865 0.0
N1528 N 0.97993 0.35383 0.85488 0.0
N1529 N 0.91907 0.26702 0.83733 0.0
H1530 H 0.56508 0.58081 0.65773 0.0
H1531 H 0.74973 0.77083 0.66466 0.0
H1532 H 0.65201 0.59265 0.6834 0.0
H1533 H 0.64557 0.76868 0.66065 0.0
H1534 H 0.71585 0.70425 0.66934 0.0
H1535 H 0.5952 0.6487 0.65635 0.0
C1536 C 0.59038 0.59771 0.66311 0.0
C1537 C 0.60619 0.5812 0.67066 0.0
C1538 C 0.70044 0.71843 0.66756 0.0
C1539 C 0.6408 0.65836 0.66896 0.0
C1540 C 0.71968 0.75627 0.66484 0.0
C1541 C 0.70028 0.77502 0.66226 0.0
C1542 C 0.66154 0.69906 0.66732 0.0
C1543 C 0.66141 0.75508 0.66267 0.0
C1544 C 0.60736 0.63631 0.66237 0.0
C1545 C 0.63888 0.60429 0.67749 0.0
N1546 N 0.64318 0.71788 0.66494 0.0
N1547 N 0.65544 0.64173 0.67633 0.0
H1548 H 0.40433 0.06192 0.67981 0.0
H1549 H 0.22577 0.87376 0.65852 0.0
H1550 H 0.41391 0.98376 0.65503 0.0
H1551 H 0.22638 0.97745 0.66116 0.0
H1552 H 0.29323 0.90735 0.66252 0.0
H1553 H 0.33673 0.02427 0.67832 0.0
C1554 C 0.3922 0.03665 0.67415 0.0
C1555 C 0.41468 0.02603 0.66745 0.0
C1556 C 0.27836 0.92251 0.66232 0.0
C1557 C 0.33758 0.98271 0.66591 0.0
C1558 C 0.24005 0.90344 0.66014 0.0
C1559 C 0.22083 0.92306 0.65947 0.0
C1560 C 0.29699 0.9611 0.66417 0.0
C1561 C 0.24041 0.96148 0.66152 0.0
C1562 C 0.35371 0.01531 0.67329 0.0
C1563 C 0.39749 0.99306 0.66023 0.0
N1564 N 0.27744 0.97926 0.66384 0.0
N1565 N 0.35984 0.97239 0.65968 0.0
H1566 H 0.01067 0.42719 0.65106 0.0
H1567 H 0.02315 0.24866 0.66573 0.0
H1568 H 0.94184 0.34793 0.68001 0.0
H1569 H 0.12219 0.35122 0.65631 0.0
H1570 H 0.99022 0.2829 0.66912 0.0
H1571 H 0.0498 0.39833 0.65069 0.0
C1572 C 0.00385 0.40383 0.65733 0.0
C1573 C 0.97288 0.38981 0.66553 0.0
C1574 C 0.01928 0.29802 0.66648 0.0
C1575 C 0.01707 0.35672 0.66505 0.0
C1576 C 0.03801 0.27854 0.66455 0.0
C1577 C 0.07534 0.29734 0.66083 0.0
C1578 C 0.03772 0.33641 0.66427 0.0
C1579 C 0.09345 0.33596 0.65933 0.0
C1580 C 0.02629 0.38761 0.65718 0.0
C1581 C 0.96542 0.35965 0.67354 0.0
N1582 N 0.07424 0.35429 0.66084 0.0
N1583 N 0.98706 0.34383 0.67298 0.0
H1584 H 0.89137 0.6808 0.49284 0.0
H1585 H 0.0716 0.67565 0.51435 0.0
H1586 H 0.89212 0.57818 0.49729 0.0
H1587 H 0.07851 0.75576 0.48639 0.0
H1588 H 0.00388 0.64585 0.51376 0.0
H1589 H 0.95914 0.71518 0.4961 0.0
C1590 C 0.90579 0.66567 0.49473 0.0
C1591 C 0.88659 0.62681 0.49477 0.0
C1592 C 0.02034 0.67012 0.50784 0.0
C1593 C 0.96291 0.66544 0.49864 0.0
C1594 C 0.05884 0.68715 0.50818 0.0
C1595 C 0.08049 0.71797 0.50031 0.0
C1596 C 0.00352 0.68457 0.49983 0.0
C1597 C 0.06264 0.73177 0.49248 0.0
C1598 C 0.94421 0.68516 0.49648 0.0
C1599 C 0.90622 0.6082 0.49712 0.0
N1600 N 0.025 0.71501 0.49246 0.0
N1601 N 0.94341 0.62773 0.49903 0.0
H1602 H 0.42411 0.31128 0.49995 0.0
H1603 H 0.24627 0.32546 0.48843 0.0
H1604 H 0.31913 0.21197 0.4933 0.0
H1605 H 0.32659 0.39385 0.51717 0.0
H1606 H 0.27456 0.28597 0.48777 0.0
H1607 H 0.39119 0.34522 0.50426 0.0
C1608 C 0.39407 0.29662 0.49954 0.0
C1609 C 0.37415 0.25891 0.4963 0.0
C1610 C 0.28565 0.30943 0.4943 0.0
C1611 C 0.33664 0.29755 0.50085 0.0
C1612 C 0.26976 0.33206 0.49462 0.0
C1613 C 0.28426 0.36298 0.50283 0.0
C1614 C 0.31679 0.31847 0.50198 0.0
C1615 C 0.31456 0.37022 0.51072 0.0
C1616 C 0.37538 0.3159 0.50202 0.0
C1617 C 0.33533 0.24103 0.49587 0.0
N1618 N 0.33023 0.34845 0.50996 0.0
N1619 N 0.31774 0.26072 0.49789 0.0
H1620 H 0.66511 0.93598 0.51647 0.0
H1621 H 0.73953 0.10633 0.46788 0.0
H1622 H 0.65122 0.92531 0.47505 0.0
H1623 H 0.77787 0.12027 0.50729 0.0
H1624 H 0.70733 0.0395 0.47071 0.0
H1625 H 0.7068 0.00295 0.51378 0.0
C1626 C 0.67096 0.9476 0.50682 0.0
C1627 C 0.65428 0.92497 0.49597 0.0
C1628 C 0.72298 0.05699 0.47875 0.0
C1629 C 0.70178 0.00135 0.49288 0.0
C1630 C 0.7413 0.09522 0.47714 0.0
C1631 C 0.76117 0.1188 0.4874 0.0
C1632 C 0.72394 0.04197 0.49078 0.0
C1633 C 0.76284 0.10291 0.49915 0.0
C1634 C 0.69483 0.98579 0.50531 0.0
C1635 C 0.66309 0.94155 0.48372 0.0
N1636 N 0.74401 0.06533 0.50059 0.0
N1637 N 0.68594 0.97866 0.48253 0.0
H1638 H 0.06353 0.74917 0.69209 0.0
H1639 H 0.98221 0.54925 0.65933 0.0
H1640 H 0.05089 0.73424 0.65076 0.0
H1641 H 0.9618 0.56765 0.69875 0.0
H1642 H 0.01734 0.61699 0.65602 0.0
H1643 H 0.03661 0.68248 0.69467 0.0
C1644 C 0.05532 0.73192 0.68353 0.0
C1645 C 0.05921 0.74738 0.67119 0.0
C1646 C 0.00526 0.60602 0.66539 0.0
C1647 C 0.02825 0.67066 0.67411 0.0
C1648 C 0.98546 0.56751 0.6673 0.0
C1649 C 0.96895 0.55292 0.67931 0.0
C1650 C 0.00901 0.6298 0.67565 0.0
C1651 C 0.97378 0.57769 0.6893 0.0
C1652 C 0.03982 0.69376 0.68502 0.0
C1653 C 0.04809 0.72346 0.66047 0.0
N1654 N 0.99337 0.61481 0.68725 0.0
N1655 N 0.03301 0.6862 0.66217 0.0
H1656 H 0.26083 0.27724 0.65374 0.0
H1657 H 0.43916 0.45797 0.68031 0.0
H1658 H 0.25155 0.34567 0.68314 0.0
H1659 H 0.43872 0.35609 0.67236 0.0
H1660 H 0.37198 0.42602 0.67575 0.0
H1661 H 0.3285 0.31547 0.65493 0.0
C1662 C 0.27302 0.30057 0.66033 0.0
C1663 C 0.25064 0.30815 0.66845 0.0
C1664 C 0.38687 0.41097 0.67485 0.0
C1665 C 0.32773 0.35217 0.66964 0.0
C1666 C 0.42501 0.42915 0.67734 0.0
C1667 C 0.4441 0.40941 0.67672 0.0
C1668 C 0.36834 0.3733 0.67139 0.0
C1669 C 0.42472 0.37206 0.67299 0.0
C1670 C 0.31154 0.32224 0.66101 0.0
C1671 C 0.2679 0.3387 0.67682 0.0
N1672 N 0.38786 0.35519 0.67042 0.0
N1673 N 0.30554 0.35972 0.6772 0.0
H1674 H 0.67735 0.94273 0.65257 0.0
H1675 H 0.59637 0.02957 0.70216 0.0
H1676 H 0.67839 0.93071 0.69397 0.0
H1677 H 0.56385 0.01353 0.66207 0.0
H1678 H 0.62741 0.99389 0.69892 0.0
H1679 H 0.63651 0.96901 0.6553 0.0
C1680 C 0.66884 0.94537 0.66221 0.0
C1681 C 0.68164 0.93481 0.67307 0.0
C1682 C 0.61325 0.99778 0.69082 0.0
C1683 C 0.63518 0.96488 0.67623 0.0
C1684 C 0.59561 0.01828 0.69266 0.0
C1685 C 0.57771 0.02461 0.68234 0.0
C1686 C 0.61366 0.98394 0.6785 0.0
C1687 C 0.57732 0.00912 0.67027 0.0
C1688 C 0.64544 0.96023 0.66375 0.0
C1689 C 0.66948 0.93862 0.68532 0.0
N1690 N 0.59553 0.98982 0.66861 0.0
N1691 N 0.64728 0.95363 0.68655 0.0
H1692 H 0.26167 0.98986 0.15699 0.0
H1693 H 0.44264 0.98319 0.17721 0.0
H1694 H 0.25489 0.90516 0.18274 0.0
H1695 H 0.44171 0.08566 0.17259 0.0
H1696 H 0.37475 0.94871 0.1742 0.0
H1697 H 0.32932 0.01999 0.15763 0.0
C1698 C 0.27442 0.97744 0.16271 0.0
C1699 C 0.25268 0.94511 0.16991 0.0
C1700 C 0.38963 0.97872 0.17374 0.0
C1701 C 0.32995 0.97915 0.17048 0.0
C1702 C 0.42819 0.99829 0.17534 0.0
C1703 C 0.44748 0.03718 0.17516 0.0
C1704 C 0.37076 0.99834 0.17163 0.0
C1705 C 0.42766 0.05564 0.17285 0.0
C1706 C 0.31297 0.9947 0.16307 0.0
C1707 C 0.2707 0.93026 0.17716 0.0
N1708 N 0.39037 0.03605 0.17111 0.0
N1709 N 0.30842 0.94735 0.17723 0.0
H1710 H 0.02091 0.45734 0.17741 0.0
H1711 H 0.0127 0.27081 0.15486 0.0
H1712 H 0.91763 0.35483 0.17259 0.0
H1713 H 0.09532 0.34438 0.1821 0.0
H1714 H 0.9834 0.30918 0.15587 0.0
H1715 H 0.05462 0.42347 0.1737 0.0
C1716 C 0.00546 0.42789 0.17536 0.0
C1717 C 0.96659 0.40865 0.17535 0.0
C1718 C 0.00811 0.31699 0.16154 0.0
C1719 C 0.00455 0.37032 0.17096 0.0
C1720 C 0.02489 0.29525 0.16095 0.0
C1721 C 0.0563 0.30435 0.16849 0.0
C1722 C 0.02335 0.34848 0.16948 0.0
C1723 C 0.07091 0.33627 0.17624 0.0
C1724 C 0.02459 0.40865 0.17335 0.0
C1725 C 0.94766 0.37049 0.17277 0.0
N1726 N 0.05436 0.35736 0.17651 0.0
N1727 N 0.96684 0.35255 0.17061 0.0
H1728 H 0.60105 0.56566 0.20338 0.0
H1729 H 0.68656 0.73427 0.15433 0.0
H1730 H 0.56907 0.55054 0.16324 0.0
H1731 H 0.68102 0.74769 0.19547 0.0
H1732 H 0.64631 0.66717 0.15693 0.0
H1733 H 0.63327 0.63259 0.2003 0.0
C1734 C 0.60067 0.57651 0.1939 0.0
C1735 C 0.5825 0.55258 0.18353 0.0
C1736 C 0.65367 0.68492 0.16535 0.0
C1737 C 0.61981 0.62939 0.17989 0.0
C1738 C 0.67671 0.72323 0.16389 0.0
C1739 C 0.68727 0.74676 0.1747 0.0
C1740 C 0.64162 0.67001 0.17773 0.0
C1741 C 0.67371 0.73075 0.18686 0.0
C1742 C 0.61898 0.61476 0.19217 0.0
C1743 C 0.58268 0.56813 0.17149 0.0
N1744 N 0.65191 0.69341 0.18804 0.0
N1745 N 0.60152 0.6057 0.16994 0.0
H1746 H 0.23565 0.91108 0.99192 0.0
H1747 H 0.4197 0.10294 0.99526 0.0
H1748 H 0.32777 0.92517 0.01521 0.0
H1749 H 0.31378 0.09815 0.99447 0.0
H1750 H 0.38793 0.03637 0.99999 0.0
H1751 H 0.26502 0.97877 0.99008 0.0
C1752 C 0.26197 0.92846 0.99667 0.0
C1753 C 0.27944 0.91271 0.0037 0.0
C1754 C 0.37173 0.05001 0.99888 0.0
C1755 C 0.31315 0.98953 1.00148 0.0
C1756 C 0.38974 0.08779 0.99612 0.0
C1757 C 0.36917 0.10576 0.99445 0.0
C1758 C 0.3329 0.03002 0.99963 0.0
C1759 C 0.3305 0.08514 0.99574 0.0
C1760 C 0.27853 0.96692 0.99568 0.0
C1761 C 0.3134 0.93632 0.00974 0.0
N1762 N 0.31345 0.04807 0.99807 0.0
N1763 N 0.32948 0.97365 0.00834 0.0
H1764 H 0.07778 0.3392 0.97675 0.0
H1765 H 0.87484 0.22822 0.008 0.0
H1766 H 0.05843 0.3441 0.01749 0.0
H1767 H 0.8967 0.25797 0.96775 0.0
H1768 H 0.94224 0.25974 0.01192 0.0
H1769 H 0.01138 0.29805 0.97363 0.0
C1770 C 0.05962 0.33141 0.98507 0.0
C1771 C 0.07368 0.34548 0.99738 0.0
C1772 C 0.93211 0.259 0.00223 0.0
C1773 C 0.99748 0.29823 0.99386 0.0
C1774 C 0.8938 0.2409 0.99999 0.0
C1775 C 0.88034 0.2408 0.98756 0.0
C1776 C 0.9568 0.2764 0.99191 0.0
C1777 C 0.90594 0.25776 0.97751 0.0
C1778 C 0.02167 0.30797 0.98327 0.0
C1779 C 0.04872 0.33422 0.0078 0.0
N1780 N 0.94287 0.27485 0.9799 0.0
N1781 N 0.01175 0.31134 0.0058 0.0
H1782 H 0.70074 0.58668 0.00293 0.0
H1783 H 0.67473 0.75346 0.98562 0.0
H1784 H 0.79498 0.68828 0.98967 0.0
H1785 H 0.62335 0.6896 0.01999 0.0
H1786 H 0.71603 0.72722 0.98502 0.0
H1787 H 0.66821 0.62078 0.00773 0.0
C1788 C 0.71471 0.61634 1.00124 0.0
C1789 C 0.7505 0.63493 0.996 0.0
C1790 C 0.69598 0.71939 0.99276 0.0
C1791 C 0.71324 0.67358 1.001 0.0
C1792 C 0.6723 0.73407 0.99306 0.0
C1793 C 0.64554 0.7235 0.00283 0.0
C1794 C 0.69206 0.6932 1.00207 0.0
C1795 C 0.64366 0.69848 0.0123 0.0
C1796 C 0.69624 0.6357 0.00398 0.0
C1797 C 0.76749 0.67322 0.99385 0.0
N1798 N 0.66617 0.68362 0.01155 0.0
N1799 N 0.74836 0.69128 0.99611 0.0
H1800 H 0.7498 0.09854 0.82185 0.0
H1801 H 0.55733 0.91359 0.82583 0.0
H1802 H 0.73683 0.00366 0.84316 0.0
H1803 H 0.56267 0.01978 0.82651 0.0
H1804 H 0.62451 0.945 0.82923 0.0
H1805 H 0.68196 0.06904 0.8204 0.0
C1806 C 0.73267 0.07154 0.82621 0.0
C1807 C 0.74877 0.05341 0.83262 0.0
C1808 C 0.61089 0.96136 0.82871 0.0
C1809 C 0.67183 0.01966 0.83086 0.0
C1810 C 0.57273 0.94354 0.82673 0.0
C1811 C 0.55472 0.96426 0.82589 0.0
C1812 C 0.63117 0.00017 0.82953 0.0
C1813 C 0.57572 0.00293 0.82718 0.0
C1814 C 0.69413 0.05492 0.82545 0.0
C1815 C 0.72545 0.01859 0.83817 0.0
N1816 N 0.61309 0.01981 0.82876 0.0
N1817 N 0.68809 0.00261 0.83703 0.0
H1818 H 0.92802 0.67811 0.81396 0.0
H1819 H -0.00019 0.56552 0.85627 0.0
H1820 H 0.94889 0.69476 0.85496 0.0
H1821 H 0.99234 0.56171 0.81465 0.0
H1822 H 0.97396 0.60709 0.8565 0.0
H1823 H 0.94472 0.62978 0.81456 0.0
C1824 C 0.93605 0.67157 0.8231 0.0
C1825 C 0.93739 0.69077 0.8344 0.0
C1826 C 0.97779 0.59691 0.84734 0.0
C1827 C 0.95653 0.63534 0.83517 0.0
C1828 C 0.99236 0.57308 0.84721 0.0
C1829 C 0.99855 0.56046 0.83542 0.0
C1830 C 0.96921 0.60788 0.83561 0.0
C1831 C 0.98844 0.57111 0.82396 0.0
C1832 C 0.94558 0.64393 0.82344 0.0
C1833 C 0.9478 0.6809 0.84599 0.0
N1834 N 0.97444 0.59431 0.82434 0.0
N1835 N 0.95712 0.65393 0.84607 0.0
H1836 H 0.28018 0.27407 0.84919 0.0
H1837 H 0.46446 0.45226 0.82449 0.0
H1838 H 0.35041 0.26496 0.82048 0.0
H1839 H 0.36381 0.45345 0.8332 0.0
H1840 H 0.43125 0.38461 0.82824 0.0
H1841 H 0.31941 0.34154 0.84858 0.0
C1842 C 0.30405 0.28624 0.84283 0.0
C1843 C 0.31187 0.26391 0.83477 0.0
C1844 C 0.41675 0.39994 0.82948 0.0
C1845 C 0.35709 0.34099 0.83422 0.0
C1846 C 0.43566 0.43835 0.82748 0.0
C1847 C 0.41665 0.45807 0.82856 0.0
C1848 C 0.37904 0.38174 0.8329 0.0
C1849 C 0.37927 0.439 0.83225 0.0
C1850 C 0.32633 0.3247 0.84249 0.0
C1851 C 0.34321 0.28124 0.82674 0.0
N1852 N 0.36168 0.40187 0.83433 0.0
N1853 N 0.3648 0.31887 0.82667 0.0
H1854 H 0.68231 0.89402 0.01144 0.0
H1855 H 0.66859 0.0693 0.98854 0.0
H1856 H 0.57776 0.89097 0.00725 0.0
H1857 H 0.75554 0.0811 0.0142 0.0
H1858 H 0.63997 0.00176 0.99008 0.0
H1859 H 0.71477 0.96127 0.00711 0.0
C1860 C 0.66631 0.90743 0.00938 0.0
C1861 C 0.62745 0.88726 0.00973 0.0
C1862 C 0.66545 0.01923 0.99529 0.0
C1863 C 0.664 0.96323 0.00469 0.0
C1864 C 0.68182 0.05767 0.99441 0.0
C1865 C 0.7143 0.08074 1.00135 0.0
C1866 C 0.68212 0.00378 0.00292 0.0
C1867 C 0.73027 0.06422 0.00882 0.0
C1868 C 0.68474 0.94564 0.00702 0.0
C1869 C 0.60781 0.90576 0.00714 0.0
N1870 N 0.71407 0.02663 0.00938 0.0
N1871 N 0.6263 0.94273 0.00467 0.0
H1872 H 0.93665 0.61827 0.98557 0.0
H1873 H 0.11348 0.79565 0.01436 0.0
H1874 H 0.92543 0.68356 0.01575 0.0
H1875 H 0.1118 0.69305 0.00663 0.0
H1876 H 0.04682 0.76488 0.00898 0.0
H1877 H 0.00421 0.65642 0.98732 0.0
C1878 C 0.9484 0.64095 0.99244 0.0
C1879 C 0.92554 0.64762 1.00064 0.0
C1880 C 0.06137 0.74945 0.00832 0.0
C1881 C 0.0024 0.69148 0.00246 0.0
C1882 C 0.09917 0.76692 0.01129 0.0
C1883 C 0.11766 0.74659 0.01096 0.0
C1884 C 0.04271 0.71194 0.00467 0.0
C1885 C 0.09819 0.70942 0.00705 0.0
C1886 C 0.98683 0.66256 0.99343 0.0
C1887 C 0.94219 0.67732 0.00937 0.0
N1888 N 0.0617 0.69325 0.004 0.0
N1889 N 0.97977 0.69829 0.01006 0.0
H1890 H 0.27768 0.38403 0.03316 0.0
H1891 H 0.33041 0.2618 0.98814 0.0
H1892 H 0.21999 0.33637 0.99741 0.0
H1893 H 0.36743 0.2927 0.02752 0.0
H1894 H 0.29066 0.28943 0.99062 0.0
H1895 H 0.31209 0.35171 0.03047 0.0
C1896 C 0.27221 0.36669 0.02471 0.0
C1897 C 0.24599 0.36298 0.01546 0.0
C1898 C 0.30737 0.28988 0.9987 0.0
C1899 C 0.2856 0.32568 0.0123 0.0
C1900 C 0.3301 0.2742 0.9973 0.0
C1901 C 0.35252 0.27513 0.00761 0.0
C1902 C 0.30735 0.30673 0.01046 0.0
C1903 C 0.35087 0.29143 0.01927 0.0
C1904 C 0.29184 0.34807 0.0232 0.0
C1905 C 0.23997 0.33991 0.00476 0.0
N1906 N 0.32889 0.30669 0.02033 0.0
N1907 N 0.25986 0.32222 0.00342 0.0
H1908 H 0.11739 0.42266 0.50549 0.0
H1909 H 0.9264 0.24176 0.51648 0.0
H1910 H 0.11388 0.31902 0.51278 0.0
H1911 H 0.9381 0.32464 0.48888 0.0
H1912 H 0.99429 0.27072 0.51726 0.0
H1913 H 0.05069 0.38865 0.50111 0.0
C1914 C 0.10249 0.39263 0.506 0.0
C1915 C 0.12086 0.37344 0.50943 0.0
C1916 C 0.98183 0.28221 0.51095 0.0
C1917 C 0.0447 0.33458 0.50483 0.0
C1918 C 0.94323 0.26594 0.51057 0.0
C1919 C 0.92667 0.28097 0.50266 0.0
C1920 C 0.00387 0.31418 0.50361 0.0
C1921 C 0.94971 0.31216 0.49512 0.0
C1922 C 0.06457 0.37329 0.50349 0.0
C1923 C 0.10053 0.33461 0.51003 0.0
N1924 N 0.98716 0.32805 0.49592 0.0
N1925 N 0.06321 0.31635 0.50797 0.0
H1926 H 0.6587 0.76868 0.49543 0.0
H1927 H 0.72068 0.63516 0.52844 0.0
H1928 H 0.62074 0.71787 0.53284 0.0
H1929 H 0.72182 0.64815 0.48702 0.0
H1930 H 0.69345 0.67473 0.53071 0.0
H1931 H 0.69086 0.7331 0.49264 0.0
C1932 C 0.65729 0.75021 0.50306 0.0
C1933 C 0.63699 0.74607 0.51436 0.0
C1934 C 0.6997 0.66898 0.52112 0.0
C1935 C 0.67374 0.70593 0.5113 0.0
C1936 C 0.71538 0.64648 0.5198 0.0
C1937 C 0.72329 0.63808 0.5075 0.0
C1938 C 0.69217 0.6836 0.51008 0.0
C1939 C 0.71586 0.65368 0.49668 0.0
C1940 C 0.67546 0.72989 0.50144 0.0
C1941 C 0.63588 0.72173 0.52393 0.0
N1942 N 0.70069 0.67578 0.49822 0.0
N1943 N 0.65412 0.70271 0.52221 0.0
H1944 H 0.21808 0.88506 0.5203 0.0
H1945 H 0.34107 0.07071 0.48003 0.0
H1946 H 0.22933 0.88776 0.47879 0.0
H1947 H 0.33976 0.06516 0.52171 0.0
H1948 H 0.29353 0.00534 0.47928 0.0
H1949 H 0.25506 0.95252 0.52075 0.0
C1950 C 0.22797 0.89985 0.51125 0.0
C1951 C 0.22104 0.88067 0.49949 0.0
C1952 C 0.30351 0.01846 0.48859 0.0
C1953 C 0.26369 0.95802 0.49998 0.0
C1954 C 0.33073 0.05581 0.48904 0.0
C1955 C 0.34478 0.07342 0.50097 0.0
C1956 C 0.29013 0.99847 0.50013 0.0
C1957 C 0.33 0.0527 0.5123 0.0
C1958 C 0.24919 0.93841 0.51153 0.0
C1959 C 0.23422 0.90137 0.48808 0.0
N1960 N 0.30362 0.01627 0.51159 0.0
N1961 N 0.25527 0.93895 0.48862 0.0
H1962 H 0.03435 0.43558 0.30128 0.0
H1963 H 0.94586 0.268 0.35095 0.0
H1964 H 0.01543 0.45202 0.34108 0.0
H1965 H 0.93562 0.25454 0.30953 0.0
H1966 H 0.97226 0.33509 0.34809 0.0
H1967 H 0.99931 0.36886 0.30458 0.0
C1968 C 0.0226 0.42506 0.31073 0.0
C1969 C 0.0279 0.44929 0.32095 0.0
C1970 C 0.96386 0.31731 0.33967 0.0
C1971 C 0.98793 0.37266 0.32485 0.0
C1972 C 0.94895 0.27907 0.34127 0.0
C1973 C 0.93879 0.2556 0.33045 0.0
C1974 C 0.969 0.3321 0.32716 0.0
C1975 C 0.94317 0.27146 0.31816 0.0
C1976 C 0.00246 0.3869 0.3126 0.0
C1977 C 0.01182 0.43416 0.33296 0.0
N1978 N 0.95823 0.30866 0.31686 0.0
N1979 N 0.99286 0.39665 0.33464 0.0
H1980 H 0.74021 0.67429 0.31668 0.0
H1981 H 0.55624 0.56533 0.35949 0.0
H1982 H 0.73862 0.68466 0.35814 0.0
H1983 H 0.55823 0.5604 0.31786 0.0
H1984 H 0.62392 0.60395 0.35948 0.0
H1985 H 0.67435 0.62799 0.31721 0.0
C1986 C 0.72607 0.66678 0.32591 0.0
C1987 C 0.74498 0.68366 0.33737 0.0
C1988 C 0.60953 0.59414 0.35036 0.0
C1989 C 0.66939 0.63051 0.33805 0.0
C1990 C 0.57089 0.57195 0.35036 0.0
C1991 C 0.55148 0.55989 0.33866 0.0
C1992 C 0.62883 0.60428 0.33857 0.0
C1993 C 0.57197 0.56935 0.32712 0.0
C1994 C 0.68841 0.64028 0.3262 0.0
C1995 C 0.72514 0.67261 0.34905 0.0
N1996 N 0.60944 0.59115 0.32737 0.0
N1997 N 0.68841 0.64686 0.34908 0.0
H1998 H 0.31109 0.05341 0.35621 0.0
H1999 H 0.44106 0.00127 0.31511 0.0
H2000 H 0.32627 0.06853 0.31496 0.0
H2001 H 0.42946 0.98944 0.35654 0.0
H2002 H 0.40285 0.03045 0.31516 0.0
H2003 H 0.35739 0.03377 0.35677 0.0
C2004 C 0.3242 0.05268 0.34727 0.0
C2005 C 0.31451 0.06235 0.33549 0.0
C2006 C 0.40887 0.02177 0.32426 0.0
C2007 C 0.36767 0.03993 0.33609 0.0
C2008 C 0.43077 0.00512 0.32425 0.0
C2009 C 0.43822 0.99256 0.33583 0.0
C2010 C 0.39404 0.02573 0.33593 0.0
C2011 C 0.42434 0.99859 0.34738 0.0
C2012 C 0.35073 0.04155 0.34761 0.0
C2013 C 0.33269 0.06116 0.32424 0.0
N2014 N 0.40261 0.01442 0.34712 0.0
N2015 N 0.35821 0.04995 0.32481 0.0
H2016 H 0.11455 0.29605 0.048 0.0
H2017 H 0.15306 0.3572 0.12216 0.0
H2018 H 0.17659 0.41019 0.06047 0.0
H2019 H 0.10336 0.24335 0.10955 0.0
H2020 H 0.15988 0.3769 0.09968 0.0
H2021 H 0.10792 0.27621 0.07048 0.0
C2022 C 0.12672 0.31701 0.05547 0.0
C2023 C 0.14616 0.35491 0.05233 0.0
C2024 C 0.14754 0.34762 0.10181 0.0
C2025 C 0.13866 0.33223 0.07815 0.0
C2026 C 0.14358 0.33628 0.11466 0.0
C2027 C 0.12755 0.2985 0.11776 0.0
C2028 C 0.13523 0.32102 0.09192 0.0
C2029 C 0.1159 0.27275 0.10761 0.0
C2030 C 0.12298 0.30559 0.06831 0.0
C2031 C 0.16136 0.38071 0.06243 0.0
N2032 N 0.11987 0.28448 0.09514 0.0
N2033 N 0.15725 0.36888 0.07489 0.0
H2034 H 0.69484 0.85108 0.05095 0.0
H2035 H 0.646 0.76454 0.12168 0.0
H2036 H 0.5861 0.7627 0.06177 0.0
H2037 H 0.74239 0.87086 0.11354 0.0
H2038 H 0.62546 0.76138 0.09943 0.0
H2039 H 0.71424 0.85714 0.0735 0.0
C2040 C 0.67496 0.83303 0.05808 0.0
C2041 C 0.6388 0.80621 0.05446 0.0
C2042 C 0.65106 0.78545 0.10251 0.0
C2043 C 0.66101 0.81284 0.08029 0.0
C2044 C 0.66297 0.78722 0.1152 0.0
C2045 C 0.69608 0.818 0.11948 0.0
C2046 C 0.67256 0.81447 0.09394 0.0
C2047 C 0.71672 0.8466 0.11065 0.0
C2048 C 0.68607 0.83658 0.07096 0.0
C2049 C 0.61421 0.78375 0.06413 0.0
N2050 N 0.70471 0.84406 0.09826 0.0
N2051 N 0.62587 0.78736 0.07659 0.0
H2052 H 0.21362 0.85091 0.12425 0.0
H2053 H 0.18066 0.87086 0.04939 0.0
H2054 H 0.14597 0.89554 0.11052 0.0
H2055 H 0.23114 0.80879 0.06342 0.0
H2056 H 0.17025 0.8827 0.07162 0.0
H2057 H 0.22295 0.83813 0.10202 0.0
C2058 C 0.20075 0.85813 0.11655 0.0
C2059 C 0.17899 0.87441 0.11927 0.0
C2060 C 0.18353 0.86642 0.06986 0.0
C2061 C 0.18966 0.85975 0.09371 0.0
C2062 C 0.18959 0.85968 0.05715 0.0
C2063 C 0.2069 0.83882 0.05452 0.0
C2064 C 0.19508 0.85246 0.08007 0.0
C2065 C 0.21769 0.82498 0.06499 0.0
C2066 C 0.20603 0.85068 0.10385 0.0
C2067 C 0.16296 0.88298 0.10888 0.0
N2068 N 0.21173 0.83218 0.07731 0.0
N2069 N 0.1687 0.87564 0.09655 0.0
H2070 H 0.298 0.13611 0.45535 0.0
H2071 H 0.35975 0.16012 0.38125 0.0
H2072 H 0.41224 0.19054 0.44289 0.0
H2073 H 0.24567 0.11107 0.39351 0.0
H2074 H 0.37933 0.17192 0.40374 0.0
H2075 H 0.27836 0.12735 0.43282 0.0
C2076 C 0.31902 0.14634 0.44788 0.0
C2077 C 0.35688 0.16402 0.45103 0.0
C2078 C 0.35002 0.15865 0.40154 0.0
C2079 C 0.33444 0.15393 0.42515 0.0
C2080 C 0.33875 0.15183 0.38867 0.0
C2081 C 0.30094 0.13445 0.38547 0.0
C2082 C 0.32333 0.14794 0.41134 0.0
C2083 C 0.27508 0.12448 0.39553 0.0
C2084 C 0.30772 0.14131 0.435 0.0
C2085 C 0.38278 0.17673 0.44092 0.0
N2086 N 0.28676 0.13128 0.40802 0.0
N2087 N 0.37106 0.17132 0.42843 0.0
H2088 H 0.89966 0.15232 0.39256 0.0
H2089 H 0.81489 0.23679 0.44288 0.0
H2090 H 0.84003 0.20781 0.38112 0.0
H2091 H 0.88765 0.19539 0.45376 0.0
H2092 H 0.8214 0.22397 0.42023 0.0
H2093 H 0.89287 0.16505 0.41517 0.0
C2094 C 0.88509 0.1671 0.39479 0.0
C2095 C 0.87048 0.17907 0.38492 0.0
C2096 C 0.836 0.21779 0.42758 0.0
C2097 C 0.86255 0.19372 0.41077 0.0
C2098 C 0.8323 0.22513 0.44051 0.0
C2099 C 0.85079 0.21722 0.45024 0.0
C2100 C 0.85817 0.20224 0.42437 0.0
C2101 C 0.87292 0.20202 0.4466 0.0
C2102 C 0.88129 0.17444 0.4077 0.0
C2103 C 0.85186 0.19813 0.3884 0.0
N2104 N 0.87591 0.19495 0.43398 0.0
N2105 N 0.84841 0.20482 0.40102 0.0
H2106 H 0.85944 0.75138 0.39623 0.0
H2107 H 0.77286 0.57862 0.44513 0.0
H2108 H 0.79881 0.63695 0.38401 0.0
H2109 H 0.82346 0.69285 0.45738 0.0
H2110 H 0.78475 0.59953 0.42264 0.0
H2111 H 0.84934 0.73059 0.41876 0.0
C2112 C 0.8441 0.72193 0.39828 0.0
C2113 C 0.82988 0.69591 0.38822 0.0
C2114 C 0.79323 0.62001 0.43026 0.0
C2115 C 0.81821 0.67189 0.41394 0.0
C2116 C 0.78645 0.60806 0.4431 0.0
C2117 C 0.79708 0.63398 0.45316 0.0
C2118 C 0.81089 0.65816 0.42746 0.0
C2119 C 0.81466 0.67182 0.44995 0.0
C2120 C 0.83828 0.71005 0.41113 0.0
C2121 C 0.81021 0.65805 0.39144 0.0
N2122 N 0.82102 0.68275 0.4374 0.0
N2123 N 0.80496 0.64722 0.404 0.0
H2124 H 0.89488 0.76154 0.89299 0.0
H2125 H 0.81019 0.5891 0.94199 0.0
H2126 H 0.84218 0.64701 0.88093 0.0
H2127 H 0.87247 0.70343 0.95424 0.0
H2128 H 0.81846 0.60997 0.91952 0.0
H2129 H 0.88381 0.74097 0.91554 0.0
C2130 C 0.88093 0.73212 0.89507 0.0
C2131 C 0.86958 0.70599 0.88505 0.0
C2132 C 0.83029 0.63049 0.92713 0.0
C2133 C 0.85677 0.68225 0.9108 0.0
C2134 C 0.82552 0.61857 0.93996 0.0
C2135 C 0.84077 0.64452 0.95001 0.0
C2136 C 0.85035 0.66864 0.92433 0.0
C2137 C 0.86035 0.68239 0.94681 0.0
C2138 C 0.87465 0.72038 0.90794 0.0
C2139 C 0.85157 0.66819 0.88832 0.0
N2140 N 0.86459 0.69329 0.93426 0.0
N2141 N 0.84577 0.65749 0.90089 0.0
H2142 H 0.24262 0.14753 0.89379 0.0
H2143 H 0.41014 0.23083 0.94484 0.0
H2144 H 0.35706 0.22131 0.88348 0.0
H2145 H 0.29477 0.16606 0.95563 0.0
H2146 H 0.39138 0.22601 0.92219 0.0
H2147 H 0.26123 0.1526 0.91647 0.0
C2148 C 0.2716 0.16487 0.89629 0.0
C2149 C 0.29828 0.18403 0.8867 0.0
C2150 C 0.37018 0.21287 0.92952 0.0
C2151 C 0.31984 0.1898 0.91263 0.0
C2152 C 0.3809 0.21556 0.94246 0.0
C2153 C 0.35402 0.19887 0.95216 0.0
C2154 C 0.33231 0.19322 0.92626 0.0
C2155 C 0.3165 0.17945 0.94849 0.0
C2156 C 0.28224 0.16774 0.90924 0.0
C2157 C 0.33548 0.20604 0.89052 0.0
N2158 N 0.30678 0.17714 0.93586 0.0
N2159 N 0.34514 0.20825 0.90316 0.0
H2160 H 0.84834 0.09212 0.89397 0.0
H2161 H 0.75952 0.18038 0.94086 0.0
H2162 H 0.77899 0.13519 0.88063 0.0
H2163 H 0.80823 0.11639 0.95459 0.0
H2164 H 0.77013 0.16777 0.91862 0.0
H2165 H 0.83749 0.10422 0.91627 0.0
C2166 C 0.83078 0.104 0.89572 0.0
C2167 C 0.8145 0.11255 0.88541 0.0
C2168 C 0.77842 0.15644 0.92651 0.0
C2169 C 0.80222 0.12677 0.91086 0.0
C2170 C 0.77242 0.1637 0.93921 0.0
C2171 C 0.78289 0.14935 0.94961 0.0
C2172 C 0.79531 0.13496 0.92421 0.0
C2173 C 0.79955 0.12791 0.94688 0.0
C2174 C 0.82458 0.1109 0.90845 0.0
C2175 C 0.79205 0.128 0.88826 0.0
N2176 N 0.80532 0.12147 0.93447 0.0
N2177 N 0.7867 0.13473 0.90068 0.0
H2178 H 0.58547 0.81629 0.55919 0.0
H2179 H 0.75042 0.89342 0.61127 0.0
H2180 H 0.70165 0.87685 0.54915 0.0
H2181 H 0.63445 0.84037 0.62145 0.0
H2182 H 0.73304 0.88618 0.58841 0.0
H2183 H 0.60273 0.82358 0.58207 0.0
C2184 C 0.61457 0.83116 0.56178 0.0
C2185 C 0.64212 0.84599 0.55222 0.0
C2186 C 0.7114 0.87614 0.59565 0.0
C2187 C 0.66212 0.85433 0.57838 0.0
C2188 C 0.72133 0.88023 0.60871 0.0
C2189 C 0.69389 0.86753 0.61831 0.0
C2190 C 0.67375 0.85912 0.59216 0.0
C2191 C 0.6566 0.85065 0.6144 0.0
C2192 C 0.62443 0.83532 0.57485 0.0
C2193 C 0.67942 0.86497 0.55617 0.0
N2194 N 0.64765 0.84693 0.60166 0.0
N2195 N 0.68829 0.86853 0.56892 0.0
H2196 H 0.19257 0.77183 0.55966 0.0
H2197 H 0.10176 0.85207 0.60916 0.0
H2198 H 0.11906 0.81172 0.5481 0.0
H2199 H 0.16094 0.79657 0.62114 0.0
H2200 H 0.11096 0.84089 0.5866 0.0
H2201 H 0.18427 0.78382 0.58223 0.0
C2202 C 0.17468 0.78305 0.56186 0.0
C2203 C 0.15644 0.7907 0.55197 0.0
C2204 C 0.12191 0.83116 0.59418 0.0
C2205 C 0.14696 0.80467 0.57774 0.0
C2206 C 0.11672 0.8376 0.60705 0.0
C2207 C 0.1305 0.82516 0.61706 0.0
C2208 C 0.1412 0.81233 0.59129 0.0
C2209 C 0.1497 0.80656 0.61375 0.0
C2210 C 0.16992 0.78988 0.57474 0.0
C2211 C 0.13361 0.80528 0.55539 0.0
N2212 N 0.1545 0.80075 0.60117 0.0
N2213 N 0.12959 0.81185 0.56797 0.0
H2214 H 0.17835 0.3069 0.54826 0.0
H2215 H 0.20168 0.36267 0.62293 0.0
H2216 H 0.22843 0.42 0.56171 0.0
H2217 H 0.14005 0.24948 0.60946 0.0
H2218 H 0.21247 0.38402 0.60061 0.0
H2219 H 0.16497 0.2854 0.57055 0.0
C2220 C 0.18656 0.32728 0.5559 0.0
C2221 C 0.20468 0.36539 0.55309 0.0
C2222 C 0.1965 0.35451 0.60251 0.0
C2223 C 0.18939 0.3408 0.57872 0.0
C2224 C 0.19035 0.34223 0.61527 0.0
C2225 C 0.16998 0.30415 0.61809 0.0
C2226 C 0.18239 0.32858 0.59242 0.0
C2227 C 0.15591 0.27907 0.60775 0.0
C2228 C 0.17881 0.31491 0.56865 0.0
C2229 C 0.21447 0.3904 0.56342 0.0
N2230 N 0.16251 0.29173 0.59536 0.0
N2231 N 0.20681 0.37766 0.57578 0.0
H2232 H 0.90483 0.43088 0.72479 0.0
H2233 H 0.06968 0.50584 0.77666 0.0
H2234 H 0.01992 0.47515 0.71457 0.0
H2235 H 0.95358 0.45 0.78685 0.0
H2236 H 0.05222 0.49597 0.75382 0.0
H2237 H 0.92232 0.43892 0.74762 0.0
C2238 C 0.93375 0.44223 0.72734 0.0
C2239 C 0.96093 0.45234 0.71775 0.0
C2240 C 0.03058 0.48579 0.76107 0.0
C2241 C 0.98118 0.46173 0.74385 0.0
C2242 C 0.04055 0.49143 0.77411 0.0
C2243 C 0.01308 0.47877 0.78369 0.0
C2244 C 0.99288 0.46752 0.75759 0.0
C2245 C 0.97574 0.46026 0.77981 0.0
C2246 C 0.94373 0.44679 0.74037 0.0
C2247 C 0.998 0.46693 0.72163 0.0
N2248 N 0.96677 0.45531 0.76708 0.0
N2249 N 0.00703 0.47126 0.73436 0.0
H2250 H 0.50342 0.5335 0.71533 0.0
H2251 H 0.53878 0.51585 0.79013 0.0
H2252 H 0.55574 0.47317 0.72937 0.0
H2253 H 0.47385 0.56348 0.77633 0.0
H2254 H 0.5461 0.50092 0.76796 0.0
H2255 H 0.49313 0.54546 0.73755 0.0
C2256 C 0.51273 0.52269 0.72309 0.0
C2257 C 0.53062 0.50238 0.72047 0.0
C2258 C 0.53016 0.51455 0.76976 0.0
C2259 C 0.51893 0.51614 0.746 0.0
C2260 C 0.52602 0.5232 0.78243 0.0
C2261 C 0.50575 0.54109 0.7851 0.0
C2262 C 0.51411 0.52401 0.75962 0.0
C2263 C 0.48974 0.54973 0.77472 0.0
C2264 C 0.50676 0.52951 0.73579 0.0
C2265 C 0.54188 0.48897 0.73094 0.0
N2266 N 0.49439 0.54123 0.76243 0.0
N2267 N 0.53599 0.49623 0.74325 0.0
H2268 H 0.44845 0.97651 0.71595 0.0
H2269 H 0.49698 0.04047 0.78961 0.0
H2270 H 0.52397 0.08952 0.72744 0.0
H2271 H 0.43182 0.92594 0.77786 0.0
H2272 H 0.50494 0.05918 0.767 0.0
H2273 H 0.4398 0.95796 0.73858 0.0
C2274 C 0.46319 0.99752 0.72323 0.0
C2275 C 0.48702 0.0347 0.71976 0.0
C2276 C 0.48891 0.02995 0.76934 0.0
C2277 C 0.47717 0.01347 0.74579 0.0
C2278 C 0.48427 0.01919 0.78228 0.0
C2279 C 0.46366 0.98151 0.78566 0.0
C2280 C 0.47271 0.0029 0.75966 0.0
C2281 C 0.44795 0.95527 0.77571 0.0
C2282 C 0.45826 0.98682 0.73617 0.0
C2283 C 0.50535 0.06057 0.72966 0.0
N2284 N 0.45276 0.96647 0.76316 0.0
N2285 N 0.50002 0.04946 0.74222 0.0
H2286 H 0.5066 0.97053 0.21321 0.0
H2287 H 0.5423 0.0312 0.28742 0.0
H2288 H 0.56257 0.0847 0.22578 0.0
H2289 H 0.47398 0.91768 0.27498 0.0
H2290 H 0.55169 0.05105 0.26493 0.0
H2291 H 0.49607 0.95065 0.2357 0.0
C2292 C 0.51671 0.99149 0.2207 0.0
C2293 C 0.53559 0.02942 0.21758 0.0
C2294 C 0.53461 0.0218 0.2671 0.0
C2295 C 0.5236 0.00666 0.24345 0.0
C2296 C 0.52926 0.01036 0.27996 0.0
C2297 C 0.50732 0.97263 0.28312 0.0
C2298 C 0.51807 0.99536 0.25725 0.0
C2299 C 0.4911 0.94703 0.27301 0.0
C2300 C 0.51059 0.98005 0.23356 0.0
C2301 C 0.54789 0.0552 0.22773 0.0
N2302 N 0.49688 0.95886 0.26052 0.0
N2303 N 0.54178 0.04334 0.24021 0.0
H2304 H 0.08969 0.56663 0.27547 0.0
H2305 H 0.91866 0.48092 0.22582 0.0
H2306 H 0.97563 0.5229 0.28698 0.0
H2307 H 0.03346 0.53792 0.21397 0.0
H2308 H 0.93884 0.49331 0.2484 0.0
H2309 H 0.06954 0.5539 0.2529 0.0
C2310 C 0.06046 0.55445 0.27326 0.0
C2311 C 0.03436 0.54591 0.28314 0.0
C2312 C 0.9596 0.5031 0.24084 0.0
C2313 C 0.01104 0.53103 0.25735 0.0
C2314 C 0.94807 0.49596 0.22795 0.0
C2315 C 0.97437 0.50844 0.21797 0.0
C2316 C 0.9977 0.5227 0.24378 0.0
C2317 C 0.01215 0.52783 0.22133 0.0
C2318 C 0.04895 0.54717 0.26037 0.0
C2319 C 0.9968 0.53005 0.2797 0.0
N2320 N 0.02265 0.53432 0.23392 0.0
N2321 N 0.98629 0.52307 0.26711 0.0
H2322 H 0.52273 0.43294 0.22877 0.0
H2323 H 0.43932 0.52251 0.27745 0.0
H2324 H 0.4568 0.48099 0.2165 0.0
H2325 H 0.48836 0.45762 0.28989 0.0
H2326 H 0.44887 0.51095 0.25497 0.0
H2327 H 0.51367 0.44495 0.25126 0.0
C2328 C 0.50633 0.44595 0.2308 0.0
C2329 C 0.49044 0.45588 0.22074 0.0
C2330 C 0.45749 0.49923 0.26263 0.0
C2331 C 0.48014 0.4699 0.24641 0.0
C2332 C 0.45211 0.50589 0.27546 0.0
C2333 C 0.46297 0.49096 0.28557 0.0
C2334 C 0.47408 0.4777 0.2599 0.0
C2335 C 0.47942 0.4696 0.28242 0.0
C2336 C 0.50114 0.45279 0.24363 0.0
C2337 C 0.46949 0.47274 0.22394 0.0
N2338 N 0.48452 0.46368 0.26988 0.0
N2339 N 0.46503 0.47928 0.23647 0.0
H2340 H 0.96828 0.09108 0.28173 0.0
H2341 H 0.04568 0.23378 0.22255 0.0
H2342 H 0.95589 0.18779 0.27893 0.0
H2343 H 0.03585 0.12556 0.22139 0.0
H2344 H 0.01733 0.21952 0.244 0.0
H2345 H 0.99664 0.10486 0.26026 0.0
C2346 C 0.97131 0.11509 0.27658 0.0
C2347 C 0.95959 0.13826 0.28215 0.0
C2348 C 0.02143 0.19891 0.23906 0.0
C2349 C 0.99249 0.15445 0.25762 0.0
C2350 C 0.03783 0.20711 0.22684 0.0
C2351 C 0.04319 0.18083 0.22014 0.0
C2352 C 0.01051 0.16425 0.24471 0.0
C2353 C 0.03224 0.14666 0.22618 0.0
C2354 C 0.98754 0.12295 0.26432 0.0
C2355 C 0.96433 0.16904 0.27501 0.0
N2356 N 0.01647 0.13938 0.23811 0.0
N2357 N 0.98058 0.17633 0.26316 0.0
H2358 H 0.80533 0.76943 0.28304 0.0
H2359 H 0.87599 0.9127 0.224 0.0
H2360 H 0.90467 0.87684 0.2848 0.0
H2361 H 0.76603 0.81704 0.22622 0.0
H2362 H 0.88889 0.8986 0.2457 0.0
H2363 H 0.79279 0.78448 0.2615 0.0
C2364 C 0.82466 0.7961 0.27887 0.0
C2365 C 0.85614 0.8219 0.28576 0.0
C2366 C 0.86189 0.88082 0.24145 0.0
C2367 C 0.84182 0.83938 0.26106 0.0
C2368 C 0.85447 0.88887 0.22907 0.0
C2369 C 0.81984 0.86606 0.22327 0.0
C2370 C 0.83462 0.84951 0.24805 0.0
C2371 C 0.79307 0.8355 0.23031 0.0
C2372 C 0.81736 0.80476 0.26659 0.0
C2373 C 0.88006 0.8561 0.27986 0.0
N2374 N 0.8011 0.82803 0.24228 0.0
N2375 N 0.87244 0.86382 0.26785 0.0
H2376 H 0.23227 0.03644 0.28069 0.0
H2377 H 0.08754 0.95431 0.22216 0.0
H2378 H 0.12251 0.02279 0.28224 0.0
H2379 H 0.18811 0.94851 0.22384 0.0
H2380 H 0.10105 0.98208 0.24371 0.0
H2381 H 0.21818 0.00782 0.25928 0.0
C2382 C 0.20528 0.02764 0.27651 0.0
C2383 C 0.17854 0.03208 0.28329 0.0
C2384 C 0.12007 0.97456 0.23939 0.0
C2385 C 0.16218 0.99911 0.25876 0.0
C2386 C 0.11236 0.95865 0.22708 0.0
C2387 C 0.13669 0.94898 0.22117 0.0
C2388 C 0.15256 0.98122 0.24582 0.0
C2389 C 0.16847 0.95536 0.22803 0.0
C2390 C 0.19719 0.01111 0.2643 0.0
C2391 C 0.14398 0.01994 0.27738 0.0
N2392 N 0.17557 0.97125 0.23994 0.0
N2393 N 0.13682 0.00408 0.26547 0.0
H2394 H 0.96365 0.87901 0.78052 0.0
H2395 H 0.04826 0.81694 0.72269 0.0
H2396 H 0.96294 0.77498 0.77978 0.0
H2397 H 0.02736 0.90832 0.71964 0.0
H2398 H 0.02153 0.80408 0.74435 0.0
H2399 H 0.9905 0.89259 0.75881 0.0
C2400 C 0.96896 0.85894 0.77578 0.0
C2401 C 0.96097 0.82577 0.78199 0.0
C2402 C 0.02283 0.82698 0.73896 0.0
C2403 C 0.9921 0.84136 0.75719 0.0
C2404 C 0.0383 0.83449 0.7266 0.0
C2405 C 0.04009 0.86379 0.71931 0.0
C2406 C 0.00923 0.84904 0.74415 0.0
C2407 C 0.02654 0.88544 0.72489 0.0
C2408 C 0.98432 0.86673 0.76338 0.0
C2409 C 0.9685 0.80083 0.77536 0.0
N2410 N 0.01172 0.87766 0.73698 0.0
N2411 N 0.9838 0.80922 0.76337 0.0
H2412 H 0.09547 0.12675 0.72146 0.0
H2413 H 0.24037 0.20012 0.78015 0.0
H2414 H 0.19207 0.23624 0.72262 0.0
H2415 H 0.13351 0.10014 0.78197 0.0
H2416 H 0.22539 0.21172 0.75842 0.0
H2417 H 0.11078 0.11481 0.74308 0.0
C2418 C 0.11983 0.14836 0.72627 0.0
C2419 C 0.14245 0.1826 0.7202 0.0
C2420 C 0.20525 0.18721 0.76356 0.0
C2421 C 0.16038 0.16893 0.74495 0.0
C2422 C 0.21386 0.18045 0.77596 0.0
C2423 C 0.18816 0.14908 0.78292 0.0
C2424 C 0.17077 0.16233 0.75803 0.0
C2425 C 0.15418 0.1247 0.77699 0.0
C2426 C 0.12856 0.1415 0.73862 0.0
C2427 C 0.1737 0.2095 0.72693 0.0
N2428 N 0.1465 0.13182 0.7649 0.0
N2429 N 0.18181 0.20204 0.7389 0.0
H2430 H 0.9155 0.04694 0.78179 0.0
H2431 H 0.76706 0.95814 0.72461 0.0
H2432 H 0.81425 0.05152 0.78042 0.0
H2433 H 0.87836 0.9762 0.72192 0.0
H2434 H 0.78217 0.98816 0.74579 0.0
H2435 H 0.90115 0.0179 0.76044 0.0
C2436 C 0.89037 0.04209 0.77697 0.0
C2437 C 0.86609 0.05177 0.78293 0.0
C2438 C 0.80328 0.98552 0.74057 0.0
C2439 C 0.84923 0.01801 0.75851 0.0
C2440 C 0.79461 0.96816 0.7285 0.0
C2441 C 0.82147 0.96457 0.72145 0.0
C2442 C 0.83901 0.99918 0.74572 0.0
C2443 C 0.85677 0.97834 0.72698 0.0
C2444 C 0.88218 0.02545 0.76478 0.0
C2445 C 0.83389 0.04471 0.7762 0.0
N2446 N 0.86448 0.99495 0.73879 0.0
N2447 N 0.8263 0.02806 0.7644 0.0
H2448 H 0.59215 0.50875 0.61505 0.0
H2449 H 0.73585 0.51856 0.56148 0.0
H2450 H 0.65911 0.45707 0.6198 0.0
H2451 H 0.65819 0.55724 0.55551 0.0
H2452 H 0.71101 0.49894 0.58334 0.0
H2453 H 0.61822 0.52897 0.59349 0.0
C2454 C 0.61218 0.50145 0.61153 0.0
C2455 C 0.62337 0.48109 0.61924 0.0
C2456 C 0.69951 0.5118 0.57724 0.0
C2457 C 0.65369 0.50452 0.59457 0.0
C2458 C 0.71381 0.52318 0.56479 0.0
C2459 C 0.69901 0.53948 0.55664 0.0
C2460 C 0.67037 0.51694 0.58156 0.0
C2461 C 0.67037 0.54466 0.56142 0.0
C2462 C 0.62714 0.51308 0.59922 0.0
C2463 C 0.64953 0.47256 0.61417 0.0
N2464 N 0.657 0.53341 0.57354 0.0
N2465 N 0.66391 0.48443 0.60217 0.0
H2466 H 0.57689 0.20125 0.61551 0.0
H2467 H 0.43371 0.1311 0.55636 0.0
H2468 H 0.47907 0.09268 0.61396 0.0
H2469 H 0.54141 0.2301 0.5549 0.0
H2470 H 0.44796 0.11853 0.57805 0.0
H2471 H 0.5629 0.21386 0.59379 0.0
C2472 C 0.55257 0.17996 0.61059 0.0
C2473 C 0.52917 0.14581 0.61659 0.0
C2474 C 0.46846 0.14303 0.57299 0.0
C2475 C 0.51275 0.16026 0.59172 0.0
C2476 C 0.46027 0.15035 0.56062 0.0
C2477 C 0.48639 0.18174 0.55377 0.0
C2478 C 0.50295 0.16738 0.57863 0.0
C2479 C 0.52042 0.20555 0.55979 0.0
C2480 C 0.54458 0.18721 0.59818 0.0
C2481 C 0.498 0.11933 0.60972 0.0
N2482 N 0.52769 0.19791 0.57186 0.0
N2483 N 0.49062 0.12718 0.59769 0.0
H2484 H 0.90402 0.38316 0.61214 0.0
H2485 H 0.76023 0.29496 0.55356 0.0
H2486 H 0.79239 0.36467 0.6135 0.0
H2487 H 0.86236 0.29223 0.55586 0.0
H2488 H 0.77299 0.32396 0.5749 0.0
H2489 H 0.89112 0.35433 0.59077 0.0
C2490 C 0.87688 0.37332 0.60791 0.0
C2491 C 0.84925 0.37639 0.61465 0.0
C2492 C 0.79253 0.31687 0.57076 0.0
C2493 C 0.83424 0.34313 0.59017 0.0
C2494 C 0.78525 0.30026 0.55857 0.0
C2495 C 0.81022 0.29105 0.55289 0.0
C2496 C 0.82522 0.32471 0.57731 0.0
C2497 C 0.84222 0.29867 0.55986 0.0
C2498 C 0.86947 0.35665 0.59573 0.0
C2499 C 0.81454 0.3629 0.60868 0.0
N2500 N 0.84889 0.31522 0.57166 0.0
N2501 N 0.80804 0.34691 0.5968 0.0
H2502 H 0.71479 0.14687 0.05471 0.0
H2503 H 0.63593 0.20957 0.11427 0.0
H2504 H 0.69935 0.24193 0.05351 0.0
H2505 H 0.62974 0.10306 0.11219 0.0
H2506 H 0.66312 0.22402 0.09264 0.0
H2507 H 0.68847 0.13297 0.07649 0.0
C2508 C 0.70616 0.16502 0.05905 0.0
C2509 C 0.70933 0.19565 0.05224 0.0
C2510 C 0.6557 0.19743 0.09689 0.0
C2511 C 0.67897 0.17974 0.0772 0.0
C2512 C 0.64014 0.18913 0.10926 0.0
C2513 C 0.63041 0.15499 0.11507 0.0
C2514 C 0.66198 0.17157 0.0903 0.0
C2515 C 0.63661 0.12965 0.10808 0.0
C2516 C 0.69093 0.15692 0.07147 0.0
C2517 C 0.69744 0.21801 0.05837 0.0
N2518 N 0.65213 0.13852 0.09611 0.0
N2519 N 0.68284 0.20963 0.07048 0.0
H2520 H 0.79136 0.42642 0.11367 0.0
H2521 H 0.86538 0.5699 0.05463 0.0
H2522 H 0.90186 0.52135 0.11194 0.0
H2523 H 0.76488 0.46346 0.05289 0.0
H2524 H 0.87709 0.55472 0.0763 0.0
H2525 H 0.7794 0.44123 0.09197 0.0
C2526 C 0.81318 0.45027 0.10872 0.0
C2527 C 0.8477 0.47262 0.11465 0.0
C2528 C 0.85245 0.5347 0.07119 0.0
C2529 C 0.83402 0.48998 0.08983 0.0
C2530 C 0.84563 0.54343 0.05883 0.0
C2531 C 0.81406 0.51793 0.05191 0.0
C2532 C 0.82742 0.50031 0.07674 0.0
C2533 C 0.78959 0.48397 0.05784 0.0
C2534 C 0.80632 0.45872 0.09632 0.0
C2535 C 0.87489 0.50322 0.10774 0.0
N2536 N 0.79674 0.47619 0.06991 0.0
N2537 N 0.8674 0.51109 0.09574 0.0
H2538 H 0.57548 0.36433 0.11913 0.0
H2539 H 0.42894 0.27885 0.0612 0.0
H2540 H 0.4777 0.37486 0.11634 0.0
H2541 H 0.53732 0.28906 0.06001 0.0
H2542 H 0.44354 0.30807 0.08251 0.0
H2543 H 0.55978 0.33216 0.09834 0.0
C2544 C 0.55083 0.36009 0.11412 0.0
C2545 C 0.52796 0.37248 0.11948 0.0
C2546 C 0.46405 0.30375 0.07761 0.0
C2547 C 0.50955 0.33515 0.09574 0.0
C2548 C 0.45564 0.2868 0.06548 0.0
C2549 C 0.48199 0.28157 0.05877 0.0
C2550 C 0.49899 0.31538 0.08314 0.0
C2551 C 0.51618 0.29261 0.0648 0.0
C2552 C 0.54184 0.34163 0.10225 0.0
C2553 C 0.49628 0.36603 0.11255 0.0
N2554 N 0.52372 0.30907 0.07662 0.0
N2555 N 0.48794 0.34769 0.10108 0.0
H2556 H 0.37743 0.79597 0.8932 0.0
H2557 H 0.28725 0.85249 0.9508 0.0
H2558 H 0.3766 0.89921 0.8943 0.0
H2559 H 0.3068 0.7601 0.95295 0.0
H2560 H 0.31723 0.86837 0.92962 0.0
H2561 H 0.35019 0.78139 0.91482 0.0
C2562 C 0.37186 0.81576 0.89803 0.0
C2563 C 0.37928 0.84885 0.8919 0.0
C2564 C 0.31494 0.84461 0.93472 0.0
C2565 C 0.34754 0.83204 0.9166 0.0
C2566 C 0.2976 0.83536 0.94679 0.0
C2567 C 0.2944 0.80483 0.95367 0.0
C2568 C 0.32902 0.82306 0.92943 0.0
C2569 C 0.30859 0.78385 0.948 0.0
C2570 C 0.35621 0.80736 0.91037 0.0
C2571 C 0.37143 0.8734 0.89864 0.0
N2572 N 0.32521 0.79331 0.93622 0.0
N2573 N 0.35573 0.86437 0.91058 0.0
H2574 H 0.13981 0.43209 0.94773 0.0
H2575 H 0.20739 0.57747 0.88946 0.0
H2576 H 0.2357 0.54175 0.95055 0.0
H2577 H 0.0982 0.48067 0.89165 0.0
H2578 H 0.22068 0.56359 0.91115 0.0
H2579 H 0.12708 0.44758 0.92631 0.0
C2580 C 0.15837 0.45936 0.94382 0.0
C2581 C 0.18891 0.48565 0.95097 0.0
C2582 C 0.19375 0.54555 0.9069 0.0
C2583 C 0.17434 0.50363 0.92639 0.0
C2584 C 0.18612 0.55347 0.89452 0.0
C2585 C 0.15161 0.53023 0.88871 0.0
C2586 C 0.16685 0.51391 0.91345 0.0
C2587 C 0.12514 0.49946 0.89574 0.0
C2588 C 0.15093 0.46827 0.9316 0.0
C2589 C 0.21183 0.52063 0.94539 0.0
N2590 N 0.13341 0.49208 0.90768 0.0
N2591 N 0.20413 0.52858 0.93342 0.0
H2592 H 0.53026 0.63418 0.88896 0.0
H2593 H 0.4631 0.70831 0.94857 0.0
H2594 H 0.43299 0.64592 0.88773 0.0
H2595 H 0.57025 0.71579 0.94691 0.0
H2596 H 0.45048 0.6835 0.9266 0.0
H2597 H 0.54375 0.66106 0.91064 0.0
C2598 C 0.5116 0.6422 0.89327 0.0
C2599 C 0.48039 0.63772 0.8865 0.0
C2600 C 0.47685 0.69078 0.93101 0.0
C2601 C 0.49582 0.66871 0.91133 0.0
C2602 C 0.48411 0.70501 0.94355 0.0
C2603 C 0.51779 0.71414 0.94962 0.0
C2604 C 0.50329 0.68528 0.92448 0.0
C2605 C 0.54394 0.70923 0.94263 0.0
C2606 C 0.51945 0.65775 0.90563 0.0
C2607 C 0.45735 0.64884 0.89257 0.0
N2608 N 0.53604 0.69491 0.93047 0.0
N2609 N 0.46549 0.66374 0.90464 0.0
H2610 H 0.29468 0.43528 0.44844 0.0
H2611 H 0.36792 0.577 0.38888 0.0
H2612 H 0.30456 0.54351 0.44968 0.0
H2613 H 0.37845 0.47911 0.39087 0.0
H2614 H 0.34119 0.56355 0.41059 0.0
H2615 H 0.32103 0.4488 0.42668 0.0
C2616 C 0.30214 0.4618 0.44411 0.0
C2617 C 0.29737 0.4883 0.45092 0.0
C2618 C 0.34948 0.54509 0.4063 0.0
C2619 C 0.32774 0.50401 0.42599 0.0
C2620 C 0.36478 0.55277 0.3939 0.0
C2621 C 0.37554 0.5292 0.38803 0.0
C2622 C 0.34455 0.51341 0.41287 0.0
C2623 C 0.37072 0.49816 0.39501 0.0
C2624 C 0.31738 0.46957 0.4317 0.0
C2625 C 0.30775 0.52225 0.44482 0.0
N2626 N 0.35544 0.49109 0.40702 0.0
N2627 N 0.3224 0.52911 0.43271 0.0
H2628 H 0.42646 0.78802 0.38531 0.0
H2629 H 0.57488 0.85064 0.44266 0.0
H2630 H 0.52439 0.89638 0.3876 0.0
H2631 H 0.46522 0.75456 0.44498 0.0
H2632 H 0.5598 0.8641 0.42125 0.0
H2633 H 0.44262 0.77229 0.40617 0.0
C2634 C 0.45126 0.80858 0.39022 0.0
C2635 C 0.474 0.84365 0.38471 0.0
C2636 C 0.53911 0.83997 0.42642 0.0
C2637 C 0.49294 0.82559 0.40852 0.0
C2638 C 0.54778 0.83209 0.43862 0.0
C2639 C 0.52123 0.80146 0.44567 0.0
C2640 C 0.50371 0.81694 0.42117 0.0
C2641 C 0.48652 0.77853 0.43992 0.0
C2642 C 0.4605 0.79954 0.40212 0.0
C2643 C 0.50589 0.86911 0.39151 0.0
N2644 N 0.47874 0.78678 0.42803 0.0
N2645 N 0.51447 0.85952 0.40301 0.0
H2646 H 0.24054 0.69779 0.44767 0.0
H2647 H 0.09532 0.61814 0.38916 0.0
H2648 H 0.141 0.7055 0.44622 0.0
H2649 H 0.20468 0.63087 0.38739 0.0
H2650 H 0.10949 0.6457 0.41076 0.0
H2651 H 0.2262 0.66972 0.42618 0.0
C2652 C 0.21574 0.69375 0.44282 0.0
C2653 C 0.192 0.70413 0.44878 0.0
C2654 C 0.13035 0.64239 0.40566 0.0
C2655 C 0.17517 0.67155 0.42416 0.0
C2656 C 0.12221 0.62644 0.39334 0.0
C2657 C 0.14884 0.62214 0.38643 0.0
C2658 C 0.1653 0.65392 0.41117 0.0
C2659 C 0.18329 0.63365 0.39234 0.0
C2660 C 0.20756 0.67767 0.43054 0.0
C2661 C 0.16022 0.69811 0.442 0.0
N2662 N 0.1905 0.64896 0.40435 0.0
N2663 N 0.15266 0.68208 0.43009 0.0
loop_
_geom_bond_atom_site_label_1
_geom_bond_atom_site_label_2
_geom_bond_distance
_geom_bond_site_symmetry_2
_ccdc_geom_bond_type
Zn0 O6 1.969 . S
Zn0 O7 1.965 . S
Zn0 O11 2.024 . S
Zn0 O16 1.969 . S
Zn1 O8 1.969 . S
Zn1 O14 1.969 . S
Zn1 O15 1.965 . S
Zn1 O17 2.024 . S
C2 O3 1.229 . S
C2 O11 1.058 . S
O3 C2 1.229 . S
C4 O5 1.229 . S
C4 O17 1.058 . S
O5 C4 1.229 . S
O6 Zn0 1.969 . S
O6 C9 1.267 . S
O7 Zn0 1.965 . S
O7 C18 1.260 . S
O8 Zn1 1.969 . S
O8 C18 1.258 . S
C9 O6 1.267 . S
C9 O10 1.228 . S
O10 C9 1.228 . S
O11 Zn0 2.024 . S
O11 C2 1.058 . S
C12 O13 1.228 . S
C12 O14 1.267 . S
O13 C12 1.228 . S
O14 Zn1 1.969 . S
O14 C12 1.267 . S
O15 Zn1 1.965 . S
O15 C19 1.260 . S
O16 Zn0 1.969 . S
O16 C19 1.258 . S
O17 Zn1 2.024 . S
O17 C4 1.058 . S
C18 O7 1.260 . S
C18 O8 1.258 . S
C19 O15 1.260 . S
C19 O16 1.258 . S
Zn20 O26 1.969 . S
Zn20 O27 1.965 . S
Zn20 O31 2.024 . S
Zn20 O36 1.969 . S
Zn21 O28 1.969 . S
Zn21 O34 1.969 . S
Zn21 O35 1.965 . S
Zn21 O37 2.024 . S
C22 O23 1.229 . S
C22 O31 1.058 . S
O23 C22 1.229 . S
C24 O25 1.229 . S
C24 O37 1.058 . S
O25 C24 1.229 . S
O26 Zn20 1.969 . S
O26 C29 1.267 . S
O27 Zn20 1.965 . S
O27 C38 1.260 . S
O28 Zn21 1.969 . S
O28 C38 1.258 . S
C29 O26 1.267 . S
C29 O30 1.228 . S
O30 C29 1.228 . S
O31 Zn20 2.024 . S
O31 C22 1.058 . S
C32 O33 1.228 . S
C32 O34 1.267 . S
O33 C32 1.228 . S
O34 Zn21 1.969 . S
O34 C32 1.267 . S
O35 Zn21 1.965 . S
O35 C39 1.260 . S
O36 Zn20 1.969 . S
O36 C39 1.258 . S
O37 Zn21 2.024 . S
O37 C24 1.058 . S
C38 O27 1.260 . S
C38 O28 1.258 . S
C39 O35 1.260 . S
C39 O36 1.258 . S
Zn40 O46 1.969 . S
Zn40 O47 1.965 . S
Zn40 O51 2.024 . S
Zn40 O56 1.969 . S
Zn41 O48 1.969 . S
Zn41 O54 1.969 . S
Zn41 O55 1.965 . S
Zn41 O57 2.024 . S
C42 O43 1.229 . S
C42 O51 1.058 . S
O43 C42 1.229 . S
C44 O45 1.229 . S
C44 O57 1.058 . S
O45 C44 1.229 . S
O46 Zn40 1.969 . S
O46 C49 1.267 . S
O47 Zn40 1.965 . S
O47 C58 1.260 . S
O48 Zn41 1.969 . S
O48 C58 1.258 . S
C49 O46 1.267 . S
C49 O50 1.228 . S
O50 C49 1.228 . S
O51 Zn40 2.024 . S
O51 C42 1.058 . S
C52 O53 1.228 . S
C52 O54 1.267 . S
O53 C52 1.228 . S
O54 Zn41 1.969 . S
O54 C52 1.267 . S
O55 Zn41 1.965 . S
O55 C59 1.260 . S
O56 Zn40 1.969 . S
O56 C59 1.258 . S
O57 Zn41 2.024 . S
O57 C44 1.058 . S
C58 O47 1.260 . S
C58 O48 1.258 . S
C59 O55 1.260 . S
C59 O56 1.258 . S
Zn60 O66 1.969 . S
Zn60 O67 1.965 . S
Zn60 O71 2.024 . S
Zn60 O76 1.969 . S
Zn61 O68 1.969 . S
Zn61 O74 1.969 . S
Zn61 O75 1.965 . S
Zn61 O77 2.024 . S
C62 O63 1.229 . S
C62 O71 1.058 . S
O63 C62 1.229 . S
C64 O65 1.229 . S
C64 O77 1.058 . S
O65 C64 1.229 . S
O66 Zn60 1.969 . S
O66 C69 1.267 . S
O67 Zn60 1.965 . S
O67 C78 1.260 . S
O68 Zn61 1.969 . S
O68 C78 1.258 . S
C69 O66 1.267 . S
C69 O70 1.228 . S
O70 C69 1.228 . S
O71 Zn60 2.024 . S
O71 C62 1.058 . S
C72 O73 1.228 . S
C72 O74 1.267 . S
O73 C72 1.228 . S
O74 Zn61 1.969 . S
O74 C72 1.267 . S
O75 Zn61 1.965 . S
O75 C79 1.260 . S
O76 Zn60 1.969 . S
O76 C79 1.258 . S
O77 Zn61 2.024 . S
O77 C64 1.058 . S
C78 O67 1.260 . S
C78 O68 1.258 . S
C79 O75 1.260 . S
C79 O76 1.258 . S
Zn80 O86 1.969 . S
Zn80 O87 1.965 . S
Zn80 O91 2.024 . S
Zn80 O96 1.969 . S
Zn81 O88 1.969 . S
Zn81 O94 1.969 . S
Zn81 O95 1.965 . S
Zn81 O97 2.024 . S
C82 O83 1.229 . S
C82 O91 1.058 . S
O83 C82 1.229 . S
C84 O85 1.229 . S
C84 O97 1.058 . S
O85 C84 1.229 . S
O86 Zn80 1.969 . S
O86 C89 1.267 . S
O87 Zn80 1.965 . S
O87 C98 1.260 . S
O88 Zn81 1.969 . S
O88 C98 1.258 . S
C89 O86 1.267 . S
C89 O90 1.228 . S
O90 C89 1.228 . S
O91 Zn80 2.024 . S
O91 C82 1.058 . S
C92 O93 1.228 . S
C92 O94 1.267 . S
O93 C92 1.228 . S
O94 Zn81 1.969 . S
O94 C92 1.267 . S
O95 Zn81 1.965 . S
O95 C99 1.260 . S
O96 Zn80 1.969 . S
O96 C99 1.258 . S
O97 Zn81 2.024 . S
O97 C84 1.058 . S
C98 O87 1.260 . S
C98 O88 1.258 . S
C99 O95 1.260 . S
C99 O96 1.258 . S
Zn100 O106 1.969 . S
Zn100 O107 1.965 . S
Zn100 O111 2.024 . S
Zn100 O116 1.969 . S
Zn101 O108 1.969 . S
Zn101 O114 1.969 . S
Zn101 O115 1.965 . S
Zn101 O117 2.024 . S
C102 O103 1.229 . S
C102 O111 1.058 . S
O103 C102 1.229 . S
C104 O105 1.229 . S
C104 O117 1.058 . S
O105 C104 1.229 . S
O106 Zn100 1.969 . S
O106 C109 1.267 . S
O107 Zn100 1.965 . S
O107 C118 1.260 . S
O108 Zn101 1.969 . S
O108 C118 1.258 . S
C109 O106 1.267 . S
C109 O110 1.228 . S
O110 C109 1.228 . S
O111 Zn100 2.024 . S
O111 C102 1.058 . S
C112 O113 1.228 . S
C112 O114 1.267 . S
O113 C112 1.228 . S
O114 Zn101 1.969 . S
O114 C112 1.267 . S
O115 Zn101 1.965 . S
O115 C119 1.260 . S
O116 Zn100 1.969 . S
O116 C119 1.258 . S
O117 Zn101 2.024 . S
O117 C104 1.058 . S
C118 O107 1.260 . S
C118 O108 1.258 . S
C119 O115 1.260 . S
C119 O116 1.258 . S
Zn120 O126 1.969 . S
Zn120 O127 1.965 . S
Zn120 O131 2.024 . S
Zn120 O136 1.969 . S
Zn121 O128 1.969 . S
Zn121 O134 1.969 . S
Zn121 O135 1.965 . S
Zn121 O137 2.024 . S
C122 O123 1.229 . S
C122 O131 1.058 . S
O123 C122 1.229 . S
C124 O125 1.229 . S
C124 O137 1.058 . S
O125 C124 1.229 . S
O126 Zn120 1.969 . S
O126 C129 1.267 . S
O127 Zn120 1.965 . S
O127 C138 1.260 . S
O128 Zn121 1.969 . S
O128 C138 1.258 . S
C129 O126 1.267 . S
C129 O130 1.228 . S
O130 C129 1.228 . S
O131 Zn120 2.024 . S
O131 C122 1.058 . S
C132 O133 1.228 . S
C132 O134 1.267 . S
O133 C132 1.228 . S
O134 Zn121 1.969 . S
O134 C132 1.267 . S
O135 Zn121 1.965 . S
O135 C139 1.260 . S
O136 Zn120 1.969 . S
O136 C139 1.258 . S
O137 Zn121 2.024 . S
O137 C124 1.058 . S
C138 O127 1.260 . S
C138 O128 1.258 . S
C139 O135 1.260 . S
C139 O136 1.258 . S
Zn140 O146 1.969 . S
Zn140 O147 1.965 . S
Zn140 O151 2.024 . S
Zn140 O156 1.969 . S
Zn141 O148 1.969 . S
Zn141 O154 1.969 . S
Zn141 O155 1.965 . S
Zn141 O157 2.024 . S
C142 O143 1.229 . S
C142 O151 1.058 . S
O143 C142 1.229 . S
C144 O145 1.229 . S
C144 O157 1.058 . S
O145 C144 1.229 . S
O146 Zn140 1.969 . S
O146 C149 1.267 . S
O147 Zn140 1.965 . S
O147 C158 1.260 . S
O148 Zn141 1.969 . S
O148 C158 1.258 . S
C149 O146 1.267 . S
C149 O150 1.228 . S
O150 C149 1.228 . S
O151 Zn140 2.024 . S
O151 C142 1.058 . S
C152 O153 1.228 . S
C152 O154 1.267 . S
O153 C152 1.228 . S
O154 Zn141 1.969 . S
O154 C152 1.267 . S
O155 Zn141 1.965 . S
O155 C159 1.260 . S
O156 Zn140 1.969 . S
O156 C159 1.258 . S
O157 Zn141 2.024 . S
O157 C144 1.058 . S
C158 O147 1.260 . S
C158 O148 1.258 . S
C159 O155 1.260 . S
C159 O156 1.258 . S
Zn160 O166 1.969 . S
Zn160 O167 1.965 . S
Zn160 O171 2.024 . S
Zn160 O176 1.969 . S
Zn161 O168 1.969 . S
Zn161 O174 1.969 . S
Zn161 O175 1.965 . S
Zn161 O177 2.024 . S
C162 O163 1.229 . S
C162 O171 1.058 . S
O163 C162 1.229 . S
C164 O165 1.229 . S
C164 O177 1.058 . S
O165 C164 1.229 . S
O166 Zn160 1.969 . S
O166 C169 1.267 . S
O167 Zn160 1.965 . S
O167 C178 1.260 . S
O168 Zn161 1.969 . S
O168 C178 1.258 . S
C169 O166 1.267 . S
C169 O170 1.228 . S
O170 C169 1.228 . S
O171 Zn160 2.024 . S
O171 C162 1.058 . S
C172 O173 1.228 . S
C172 O174 1.267 . S
O173 C172 1.228 . S
O174 Zn161 1.969 . S
O174 C172 1.267 . S
O175 Zn161 1.965 . S
O175 C179 1.260 . S
O176 Zn160 1.969 . S
O176 C179 1.258 . S
O177 Zn161 2.024 . S
O177 C164 1.058 . S
C178 O167 1.260 . S
C178 O168 1.258 . S
C179 O175 1.260 . S
C179 O176 1.258 . S
Zn180 O186 1.969 . S
Zn180 O187 1.965 . S
Zn180 O191 2.024 . S
Zn180 O196 1.969 . S
Zn181 O188 1.969 . S
Zn181 O194 1.969 . S
Zn181 O195 1.965 . S
Zn181 O197 2.024 . S
C182 O183 1.229 . S
C182 O191 1.058 . S
O183 C182 1.229 . S
C184 O185 1.229 . S
C184 O197 1.058 . S
O185 C184 1.229 . S
O186 Zn180 1.969 . S
O186 C189 1.267 . S
O187 Zn180 1.965 . S
O187 C198 1.260 . S
O188 Zn181 1.969 . S
O188 C198 1.258 . S
C189 O186 1.267 . S
C189 O190 1.228 . S
O190 C189 1.228 . S
O191 Zn180 2.024 . S
O191 C182 1.058 . S
C192 O193 1.228 . S
C192 O194 1.267 . S
O193 C192 1.228 . S
O194 Zn181 1.969 . S
O194 C192 1.267 . S
O195 Zn181 1.965 . S
O195 C199 1.260 . S
O196 Zn180 1.969 . S
O196 C199 1.258 . S
O197 Zn181 2.024 . S
O197 C184 1.058 . S
C198 O187 1.260 . S
C198 O188 1.258 . S
C199 O195 1.260 . S
C199 O196 1.258 . S
Zn200 O206 1.969 . S
Zn200 O207 1.965 . S
Zn200 O211 2.024 . S
Zn200 O216 1.969 . S
Zn201 O208 1.969 . S
Zn201 O214 1.969 . S
Zn201 O215 1.965 . S
Zn201 O217 2.024 . S
C202 O203 1.229 . S
C202 O211 1.058 . S
O203 C202 1.229 . S
C204 O205 1.229 . S
C204 O217 1.058 . S
O205 C204 1.229 . S
O206 Zn200 1.969 . S
O206 C209 1.267 . S
O207 Zn200 1.965 . S
O207 C218 1.260 . S
O208 Zn201 1.969 . S
O208 C218 1.258 . S
C209 O206 1.267 . S
C209 O210 1.228 . S
O210 C209 1.228 . S
O211 Zn200 2.024 . S
O211 C202 1.058 . S
C212 O213 1.228 . S
C212 O214 1.267 . S
O213 C212 1.228 . S
O214 Zn201 1.969 . S
O214 C212 1.267 . S
O215 Zn201 1.965 . S
O215 C219 1.260 . S
O216 Zn200 1.969 . S
O216 C219 1.258 . S
O217 Zn201 2.024 . S
O217 C204 1.058 . S
C218 O207 1.260 . S
C218 O208 1.258 . S
C219 O215 1.260 . S
C219 O216 1.258 . S
Zn220 O226 1.969 . S
Zn220 O227 1.965 . S
Zn220 O231 2.024 . S
Zn220 O236 1.969 . S
Zn221 O228 1.969 . S
Zn221 O234 1.969 . S
Zn221 O235 1.965 . S
Zn221 O237 2.024 . S
C222 O223 1.229 . S
C222 O231 1.058 . S
O223 C222 1.229 . S
C224 O225 1.229 . S
C224 O237 1.058 . S
O225 C224 1.229 . S
O226 Zn220 1.969 . S
O226 C229 1.267 . S
O227 Zn220 1.965 . S
O227 C238 1.260 . S
O228 Zn221 1.969 . S
O228 C238 1.258 . S
C229 O226 1.267 . S
C229 O230 1.228 . S
O230 C229 1.228 . S
O231 Zn220 2.024 . S
O231 C222 1.058 . S
C232 O233 1.228 . S
C232 O234 1.267 . S
O233 C232 1.228 . S
O234 Zn221 1.969 . S
O234 C232 1.267 . S
O235 Zn221 1.965 . S
O235 C239 1.260 . S
O236 Zn220 1.969 . S
O236 C239 1.258 . S
O237 Zn221 2.024 . S
O237 C224 1.058 . S
C238 O227 1.260 . S
C238 O228 1.258 . S
C239 O235 1.260 . S
C239 O236 1.258 . S
Zn240 O246 1.969 . S
Zn240 O247 1.965 . S
Zn240 O251 2.024 . S
Zn240 O256 1.969 . S
Zn241 O248 1.969 . S
Zn241 O254 1.969 . S
Zn241 O255 1.965 . S
Zn241 O257 2.024 . S
C242 O243 1.229 . S
C242 O251 1.058 . S
O243 C242 1.229 . S
C244 O245 1.229 . S
C244 O257 1.058 . S
O245 C244 1.229 . S
O246 Zn240 1.969 . S
O246 C249 1.267 . S
O247 Zn240 1.965 . S
O247 C258 1.260 . S
O248 Zn241 1.969 . S
O248 C258 1.258 . S
C249 O246 1.267 . S
C249 O250 1.228 . S
O250 C249 1.228 . S
O251 Zn240 2.024 . S
O251 C242 1.058 . S
C252 O253 1.228 . S
C252 O254 1.267 . S
O253 C252 1.228 . S
O254 Zn241 1.969 . S
O254 C252 1.267 . S
O255 Zn241 1.965 . S
O255 C259 1.260 . S
O256 Zn240 1.969 . S
O256 C259 1.258 . S
O257 Zn241 2.024 . S
O257 C244 1.058 . S
C258 O247 1.260 . S
C258 O248 1.258 . S
C259 O255 1.260 . S
C259 O256 1.258 . S
Zn260 O266 1.969 . S
Zn260 O267 1.965 . S
Zn260 O271 2.024 . S
Zn260 O276 1.969 . S
Zn261 O268 1.969 . S
Zn261 O274 1.969 . S
Zn261 O275 1.965 . S
Zn261 O277 2.024 . S
C262 O263 1.229 . S
C262 O271 1.058 . S
O263 C262 1.229 . S
C264 O265 1.229 . S
C264 O277 1.058 . S
O265 C264 1.229 . S
O266 Zn260 1.969 . S
O266 C269 1.267 . S
O267 Zn260 1.965 . S
O267 C278 1.260 . S
O268 Zn261 1.969 . S
O268 C278 1.258 . S
C269 O266 1.267 . S
C269 O270 1.228 . S
O270 C269 1.228 . S
O271 Zn260 2.024 . S
O271 C262 1.058 . S
C272 O273 1.228 . S
C272 O274 1.267 . S
O273 C272 1.228 . S
O274 Zn261 1.969 . S
O274 C272 1.267 . S
O275 Zn261 1.965 . S
O275 C279 1.260 . S
O276 Zn260 1.969 . S
O276 C279 1.258 . S
O277 Zn261 2.024 . S
O277 C264 1.058 . S
C278 O267 1.260 . S
C278 O268 1.258 . S
C279 O275 1.260 . S
C279 O276 1.258 . S
Zn280 O286 1.969 . S
Zn280 O287 1.965 . S
Zn280 O291 2.024 . S
Zn280 O296 1.969 . S
Zn281 O288 1.969 . S
Zn281 O294 1.969 . S
Zn281 O295 1.965 . S
Zn281 O297 2.024 . S
C282 O283 1.229 . S
C282 O291 1.058 . S
O283 C282 1.229 . S
C284 O285 1.229 . S
C284 O297 1.058 . S
O285 C284 1.229 . S
O286 Zn280 1.969 . S
O286 C289 1.267 . S
O287 Zn280 1.965 . S
O287 C298 1.260 . S
O288 Zn281 1.969 . S
O288 C298 1.258 . S
C289 O286 1.267 . S
C289 O290 1.228 . S
O290 C289 1.228 . S
O291 Zn280 2.024 . S
O291 C282 1.058 . S
C292 O293 1.228 . S
C292 O294 1.267 . S
O293 C292 1.228 . S
O294 Zn281 1.969 . S
O294 C292 1.267 . S
O295 Zn281 1.965 . S
O295 C299 1.260 . S
O296 Zn280 1.969 . S
O296 C299 1.258 . S
O297 Zn281 2.024 . S
O297 C284 1.058 . S
C298 O287 1.260 . S
C298 O288 1.258 . S
C299 O295 1.260 . S
C299 O296 1.258 . S
Zn300 O306 1.969 . S
Zn300 O307 1.965 . S
Zn300 O311 2.024 . S
Zn300 O316 1.969 . S
Zn301 O308 1.969 . S
Zn301 O314 1.969 . S
Zn301 O315 1.965 . S
Zn301 O317 2.024 . S
C302 O303 1.229 . S
C302 O311 1.058 . S
O303 C302 1.229 . S
C304 O305 1.229 . S
C304 O317 1.058 . S
O305 C304 1.229 . S
O306 Zn300 1.969 . S
O306 C309 1.267 . S
O307 Zn300 1.965 . S
O307 C318 1.260 . S
O308 Zn301 1.969 . S
O308 C318 1.258 . S
C309 O306 1.267 . S
C309 O310 1.228 . S
O310 C309 1.228 . S
O311 Zn300 2.024 . S
O311 C302 1.058 . S
C312 O313 1.228 . S
C312 O314 1.267 . S
O313 C312 1.228 . S
O314 Zn301 1.969 . S
O314 C312 1.267 . S
O315 Zn301 1.965 . S
O315 C319 1.260 . S
O316 Zn300 1.969 . S
O316 C319 1.258 . S
O317 Zn301 2.024 . S
O317 C304 1.058 . S
C318 O307 1.260 . S
C318 O308 1.258 . S
C319 O315 1.260 . S
C319 O316 1.258 . S
Zn320 O326 1.969 . S
Zn320 O327 1.965 . S
Zn320 O331 2.024 . S
Zn320 O336 1.969 . S
Zn321 O328 1.969 . S
Zn321 O334 1.969 . S
Zn321 O335 1.965 . S
Zn321 O337 2.024 . S
C322 O323 1.229 . S
C322 O331 1.058 . S
O323 C322 1.229 . S
C324 O325 1.229 . S
C324 O337 1.058 . S
O325 C324 1.229 . S
O326 Zn320 1.969 . S
O326 C329 1.267 . S
O327 Zn320 1.965 . S
O327 C338 1.260 . S
O328 Zn321 1.969 . S
O328 C338 1.258 . S
C329 O326 1.267 . S
C329 O330 1.228 . S
O330 C329 1.228 . S
O331 Zn320 2.024 . S
O331 C322 1.058 . S
C332 O333 1.228 . S
C332 O334 1.267 . S
O333 C332 1.228 . S
O334 Zn321 1.969 . S
O334 C332 1.267 . S
O335 Zn321 1.965 . S
O335 C339 1.260 . S
O336 Zn320 1.969 . S
O336 C339 1.258 . S
O337 Zn321 2.024 . S
O337 C324 1.058 . S
C338 O327 1.260 . S
C338 O328 1.258 . S
C339 O335 1.260 . S
C339 O336 1.258 . S
Zn340 O346 1.969 . S
Zn340 O347 1.965 . S
Zn340 O351 2.024 . S
Zn340 O356 1.969 . S
Zn341 O348 1.969 . S
Zn341 O354 1.969 . S
Zn341 O355 1.965 . S
Zn341 O357 2.024 . S
C342 O343 1.229 . S
C342 O351 1.058 . S
O343 C342 1.229 . S
C344 O345 1.229 . S
C344 O357 1.058 . S
O345 C344 1.229 . S
O346 Zn340 1.969 . S
O346 C349 1.267 . S
O347 Zn340 1.965 . S
O347 C358 1.260 . S
O348 Zn341 1.969 . S
O348 C358 1.258 . S
C349 O346 1.267 . S
C349 O350 1.228 . S
O350 C349 1.228 . S
O351 Zn340 2.024 . S
O351 C342 1.058 . S
C352 O353 1.228 . S
C352 O354 1.267 . S
O353 C352 1.228 . S
O354 Zn341 1.969 . S
O354 C352 1.267 . S
O355 Zn341 1.965 . S
O355 C359 1.260 . S
O356 Zn340 1.969 . S
O356 C359 1.258 . S
O357 Zn341 2.024 . S
O357 C344 1.058 . S
C358 O347 1.260 . S
C358 O348 1.258 . S
C359 O355 1.260 . S
C359 O356 1.258 . S
Zn360 O366 1.969 . S
Zn360 O367 1.965 . S
Zn360 O371 2.024 . S
Zn360 O376 1.969 . S
Zn361 O368 1.969 . S
Zn361 O374 1.969 . S
Zn361 O375 1.965 . S
Zn361 O377 2.024 . S
C362 O363 1.229 . S
C362 O371 1.058 . S
O363 C362 1.229 . S
C364 O365 1.229 . S
C364 O377 1.058 . S
O365 C364 1.229 . S
O366 Zn360 1.969 . S
O366 C369 1.267 . S
O367 Zn360 1.965 . S
O367 C378 1.260 . S
O368 Zn361 1.969 . S
O368 C378 1.258 . S
C369 O366 1.267 . S
C369 O370 1.228 . S
O370 C369 1.228 . S
O371 Zn360 2.024 . S
O371 C362 1.058 . S
C372 O373 1.228 . S
C372 O374 1.267 . S
O373 C372 1.228 . S
O374 Zn361 1.969 . S
O374 C372 1.267 . S
O375 Zn361 1.965 . S
O375 C379 1.260 . S
O376 Zn360 1.969 . S
O376 C379 1.258 . S
O377 Zn361 2.024 . S
O377 C364 1.058 . S
C378 O367 1.260 . S
C378 O368 1.258 . S
C379 O375 1.260 . S
C379 O376 1.258 . S
Zn380 O386 1.969 . S
Zn380 O387 1.965 . S
Zn380 O391 2.024 . S
Zn380 O396 1.969 . S
Zn381 O388 1.969 . S
Zn381 O394 1.969 . S
Zn381 O395 1.965 . S
Zn381 O397 2.024 . S
C382 O383 1.229 . S
C382 O391 1.058 . S
O383 C382 1.229 . S
C384 O385 1.229 . S
C384 O397 1.058 . S
O385 C384 1.229 . S
O386 Zn380 1.969 . S
O386 C389 1.267 . S
O387 Zn380 1.965 . S
O387 C398 1.260 . S
O388 Zn381 1.969 . S
O388 C398 1.258 . S
C389 O386 1.267 . S
C389 O390 1.228 . S
O390 C389 1.228 . S
O391 Zn380 2.024 . S
O391 C382 1.058 . S
C392 O393 1.228 . S
C392 O394 1.267 . S
O393 C392 1.228 . S
O394 Zn381 1.969 . S
O394 C392 1.267 . S
O395 Zn381 1.965 . S
O395 C399 1.260 . S
O396 Zn380 1.969 . S
O396 C399 1.258 . S
O397 Zn381 2.024 . S
O397 C384 1.058 . S
C398 O387 1.260 . S
C398 O388 1.258 . S
C399 O395 1.260 . S
C399 O396 1.258 . S
Zn400 O406 1.969 . S
Zn400 O407 1.965 . S
Zn400 O411 2.024 . S
Zn400 O416 1.969 . S
Zn401 O408 1.969 . S
Zn401 O414 1.969 . S
Zn401 O415 1.965 . S
Zn401 O417 2.024 . S
C402 O403 1.229 . S
C402 O411 1.058 . S
O403 C402 1.229 . S
C404 O405 1.229 . S
C404 O417 1.058 . S
O405 C404 1.229 . S
O406 Zn400 1.969 . S
O406 C409 1.267 . S
O407 Zn400 1.965 . S
O407 C418 1.260 . S
O408 Zn401 1.969 . S
O408 C418 1.258 . S
C409 O406 1.267 . S
C409 O410 1.228 . S
O410 C409 1.228 . S
O411 Zn400 2.024 . S
O411 C402 1.058 . S
C412 O413 1.228 . S
C412 O414 1.267 . S
O413 C412 1.228 . S
O414 Zn401 1.969 . S
O414 C412 1.267 . S
O415 Zn401 1.965 . S
O415 C419 1.260 . S
O416 Zn400 1.969 . S
O416 C419 1.258 . S
O417 Zn401 2.024 . S
O417 C404 1.058 . S
C418 O407 1.260 . S
C418 O408 1.258 . S
C419 O415 1.260 . S
C419 O416 1.258 . S
Zn420 O426 1.969 . S
Zn420 O427 1.965 . S
Zn420 O431 2.024 . S
Zn420 O436 1.969 . S
Zn421 O428 1.969 . S
Zn421 O434 1.969 . S
Zn421 O435 1.965 . S
Zn421 O437 2.024 . S
C422 O423 1.229 . S
C422 O431 1.058 . S
O423 C422 1.229 . S
C424 O425 1.229 . S
C424 O437 1.058 . S
O425 C424 1.229 . S
O426 Zn420 1.969 . S
O426 C429 1.267 . S
O427 Zn420 1.965 . S
O427 C438 1.260 . S
O428 Zn421 1.969 . S
O428 C438 1.258 1_554 S
C429 O426 1.267 . S
C429 O430 1.228 . S
O430 C429 1.228 . S
O431 Zn420 2.024 . S
O431 C422 1.058 . S
C432 O433 1.228 . S
C432 O434 1.267 . S
O433 C432 1.228 . S
O434 Zn421 1.969 . S
O434 C432 1.267 . S
O435 Zn421 1.965 . S
O435 C439 1.260 . S
O436 Zn420 1.969 . S
O436 C439 1.258 1_556 S
O437 Zn421 2.024 . S
O437 C424 1.058 . S
C438 O427 1.260 . S
C438 O428 1.258 1_556 S
C439 O435 1.260 . S
C439 O436 1.258 1_554 S
Zn440 O446 1.969 . S
Zn440 O447 1.965 . S
Zn440 O451 2.024 . S
Zn440 O456 1.969 . S
Zn441 O448 1.969 . S
Zn441 O454 1.969 . S
Zn441 O455 1.965 . S
Zn441 O457 2.024 . S
C442 O443 1.229 . S
C442 O451 1.058 . S
O443 C442 1.229 . S
C444 O445 1.229 . S
C444 O457 1.058 . S
O445 C444 1.229 . S
O446 Zn440 1.969 . S
O446 C449 1.267 . S
O447 Zn440 1.965 . S
O447 C458 1.260 . S
O448 Zn441 1.969 . S
O448 C458 1.258 1_554 S
C449 O446 1.267 . S
C449 O450 1.228 . S
O450 C449 1.228 . S
O451 Zn440 2.024 . S
O451 C442 1.058 . S
C452 O453 1.228 . S
C452 O454 1.267 . S
O453 C452 1.228 . S
O454 Zn441 1.969 . S
O454 C452 1.267 . S
O455 Zn441 1.965 . S
O455 C459 1.260 . S
O456 Zn440 1.969 . S
O456 C459 1.258 1_556 S
O457 Zn441 2.024 . S
O457 C444 1.058 . S
C458 O447 1.260 . S
C458 O448 1.258 1_556 S
C459 O455 1.260 . S
C459 O456 1.258 1_554 S
Zn460 O466 1.969 . S
Zn460 O467 1.965 . S
Zn460 O471 2.024 . S
Zn460 O476 1.969 . S
Zn461 O468 1.969 . S
Zn461 O474 1.969 . S
Zn461 O475 1.965 . S
Zn461 O477 2.024 . S
C462 O463 1.229 . S
C462 O471 1.058 . S
O463 C462 1.229 . S
C464 O465 1.229 . S
C464 O477 1.058 . S
O465 C464 1.229 . S
O466 Zn460 1.969 . S
O466 C469 1.267 . S
O467 Zn460 1.965 . S
O467 C478 1.260 . S
O468 Zn461 1.969 . S
O468 C478 1.258 1_554 S
C469 O466 1.267 . S
C469 O470 1.228 . S
O470 C469 1.228 . S
O471 Zn460 2.024 . S
O471 C462 1.058 . S
C472 O473 1.228 . S
C472 O474 1.267 . S
O473 C472 1.228 . S
O474 Zn461 1.969 . S
O474 C472 1.267 . S
O475 Zn461 1.965 . S
O475 C479 1.260 . S
O476 Zn460 1.969 . S
O476 C479 1.258 1_556 S
O477 Zn461 2.024 . S
O477 C464 1.058 . S
C478 O467 1.260 . S
C478 O468 1.258 1_556 S
C479 O475 1.260 . S
C479 O476 1.258 1_554 S
Zn480 O486 1.969 . S
Zn480 O487 1.965 . S
Zn480 O491 2.024 . S
Zn480 O496 1.969 . S
Zn481 O488 1.969 . S
Zn481 O494 1.969 . S
Zn481 O495 1.965 . S
Zn481 O497 2.024 . S
C482 O483 1.229 . S
C482 O491 1.058 . S
O483 C482 1.229 . S
C484 O485 1.229 . S
C484 O497 1.058 . S
O485 C484 1.229 . S
O486 Zn480 1.969 . S
O486 C489 1.267 . S
O487 Zn480 1.965 . S
O487 C498 1.260 . S
O488 Zn481 1.969 . S
O488 C498 1.258 . S
C489 O486 1.267 . S
C489 O490 1.228 . S
O490 C489 1.228 . S
O491 Zn480 2.024 . S
O491 C482 1.058 . S
C492 O493 1.228 . S
C492 O494 1.267 . S
O493 C492 1.228 . S
O494 Zn481 1.969 . S
O494 C492 1.267 . S
O495 Zn481 1.965 . S
O495 C499 1.260 . S
O496 Zn480 1.969 . S
O496 C499 1.258 . S
O497 Zn481 2.024 . S
O497 C484 1.058 . S
C498 O487 1.260 . S
C498 O488 1.258 . S
C499 O495 1.260 . S
C499 O496 1.258 . S
Zn500 O506 1.969 . S
Zn500 O507 1.965 . S
Zn500 O511 2.024 . S
Zn500 O516 1.969 . S
Zn501 O508 1.969 . S
Zn501 O514 1.969 . S
Zn501 O515 1.965 . S
Zn501 O517 2.024 . S
C502 O503 1.229 . S
C502 O511 1.058 . S
O503 C502 1.229 . S
C504 O505 1.229 . S
C504 O517 1.058 . S
O505 C504 1.229 . S
O506 Zn500 1.969 . S
O506 C509 1.267 . S
O507 Zn500 1.965 . S
O507 C518 1.260 . S
O508 Zn501 1.969 . S
O508 C518 1.258 . S
C509 O506 1.267 . S
C509 O510 1.228 . S
O510 C509 1.228 . S
O511 Zn500 2.024 . S
O511 C502 1.058 . S
C512 O513 1.228 . S
C512 O514 1.267 . S
O513 C512 1.228 . S
O514 Zn501 1.969 . S
O514 C512 1.267 . S
O515 Zn501 1.965 . S
O515 C519 1.260 . S
O516 Zn500 1.969 . S
O516 C519 1.258 . S
O517 Zn501 2.024 . S
O517 C504 1.058 . S
C518 O507 1.260 . S
C518 O508 1.258 . S
C519 O515 1.260 . S
C519 O516 1.258 . S
Zn520 O526 1.969 . S
Zn520 O527 1.965 . S
Zn520 O531 2.024 . S
Zn520 O536 1.969 . S
Zn521 O528 1.969 . S
Zn521 O534 1.969 . S
Zn521 O535 1.965 . S
Zn521 O537 2.024 . S
C522 O523 1.229 . S
C522 O531 1.058 . S
O523 C522 1.229 . S
C524 O525 1.229 . S
C524 O537 1.058 . S
O525 C524 1.229 . S
O526 Zn520 1.969 . S
O526 C529 1.267 . S
O527 Zn520 1.965 . S
O527 C538 1.260 . S
O528 Zn521 1.969 . S
O528 C538 1.258 . S
C529 O526 1.267 . S
C529 O530 1.228 . S
O530 C529 1.228 . S
O531 Zn520 2.024 . S
O531 C522 1.058 . S
C532 O533 1.228 . S
C532 O534 1.267 . S
O533 C532 1.228 . S
O534 Zn521 1.969 . S
O534 C532 1.267 . S
O535 Zn521 1.965 . S
O535 C539 1.260 . S
O536 Zn520 1.969 . S
O536 C539 1.258 . S
O537 Zn521 2.024 . S
O537 C524 1.058 . S
C538 O527 1.260 . S
C538 O528 1.258 . S
C539 O535 1.260 . S
C539 O536 1.258 . S
Zn540 O546 1.969 . S
Zn540 O547 1.965 . S
Zn540 O551 2.024 . S
Zn540 O556 1.969 . S
Zn541 O548 1.969 . S
Zn541 O554 1.969 . S
Zn541 O555 1.965 . S
Zn541 O557 2.024 . S
C542 O543 1.229 . S
C542 O551 1.058 . S
O543 C542 1.229 . S
C544 O545 1.229 . S
C544 O557 1.058 . S
O545 C544 1.229 . S
O546 Zn540 1.969 . S
O546 C549 1.267 . S
O547 Zn540 1.965 . S
O547 C558 1.260 . S
O548 Zn541 1.969 . S
O548 C558 1.258 1_554 S
C549 O546 1.267 . S
C549 O550 1.228 . S
O550 C549 1.228 . S
O551 Zn540 2.024 . S
O551 C542 1.058 . S
C552 O553 1.228 . S
C552 O554 1.267 . S
O553 C552 1.228 . S
O554 Zn541 1.969 . S
O554 C552 1.267 . S
O555 Zn541 1.965 . S
O555 C559 1.260 . S
O556 Zn540 1.969 . S
O556 C559 1.258 1_556 S
O557 Zn541 2.024 . S
O557 C544 1.058 . S
C558 O547 1.260 . S
C558 O548 1.258 1_556 S
C559 O555 1.260 . S
C559 O556 1.258 1_554 S
Zn560 O566 1.969 . S
Zn560 O567 1.965 . S
Zn560 O571 2.024 . S
Zn560 O576 1.969 . S
Zn561 O568 1.969 . S
Zn561 O574 1.969 . S
Zn561 O575 1.965 . S
Zn561 O577 2.024 . S
C562 O563 1.229 . S
C562 O571 1.058 . S
O563 C562 1.229 . S
C564 O565 1.229 . S
C564 O577 1.058 . S
O565 C564 1.229 . S
O566 Zn560 1.969 . S
O566 C569 1.267 . S
O567 Zn560 1.965 . S
O567 C578 1.260 . S
O568 Zn561 1.969 . S
O568 C578 1.258 1_554 S
C569 O566 1.267 . S
C569 O570 1.228 . S
O570 C569 1.228 . S
O571 Zn560 2.024 . S
O571 C562 1.058 . S
C572 O573 1.228 . S
C572 O574 1.267 . S
O573 C572 1.228 . S
O574 Zn561 1.969 . S
O574 C572 1.267 . S
O575 Zn561 1.965 . S
O575 C579 1.260 . S
O576 Zn560 1.969 . S
O576 C579 1.258 1_556 S
O577 Zn561 2.024 . S
O577 C564 1.058 . S
C578 O567 1.260 . S
C578 O568 1.258 1_556 S
C579 O575 1.260 . S
C579 O576 1.258 1_554 S
Zn580 O586 1.969 . S
Zn580 O587 1.965 . S
Zn580 O591 2.024 . S
Zn580 O596 1.969 . S
Zn581 O588 1.969 . S
Zn581 O594 1.969 . S
Zn581 O595 1.965 . S
Zn581 O597 2.024 . S
C582 O583 1.229 . S
C582 O591 1.058 . S
O583 C582 1.229 . S
C584 O585 1.229 . S
C584 O597 1.058 . S
O585 C584 1.229 . S
O586 Zn580 1.969 . S
O586 C589 1.267 . S
O587 Zn580 1.965 . S
O587 C598 1.260 . S
O588 Zn581 1.969 . S
O588 C598 1.258 1_554 S
C589 O586 1.267 . S
C589 O590 1.228 . S
O590 C589 1.228 . S
O591 Zn580 2.024 . S
O591 C582 1.058 . S
C592 O593 1.228 . S
C592 O594 1.267 . S
O593 C592 1.228 . S
O594 Zn581 1.969 . S
O594 C592 1.267 . S
O595 Zn581 1.965 . S
O595 C599 1.260 . S
O596 Zn580 1.969 . S
O596 C599 1.258 1_556 S
O597 Zn581 2.024 . S
O597 C584 1.058 . S
C598 O587 1.260 . S
C598 O588 1.258 1_556 S
C599 O595 1.260 . S
C599 O596 1.258 1_554 S
Zn600 O606 1.969 . S
Zn600 O607 1.965 . S
Zn600 O611 2.024 . S
Zn600 O616 1.969 . S
Zn601 O608 1.969 . S
Zn601 O614 1.969 . S
Zn601 O615 1.965 . S
Zn601 O617 2.024 . S
C602 O603 1.229 . S
C602 O611 1.058 . S
O603 C602 1.229 . S
C604 O605 1.229 . S
C604 O617 1.058 . S
O605 C604 1.229 . S
O606 Zn600 1.969 . S
O606 C609 1.267 . S
O607 Zn600 1.965 . S
O607 C618 1.260 . S
O608 Zn601 1.969 . S
O608 C618 1.258 . S
C609 O606 1.267 . S
C609 O610 1.228 . S
O610 C609 1.228 . S
O611 Zn600 2.024 . S
O611 C602 1.058 . S
C612 O613 1.228 . S
C612 O614 1.267 . S
O613 C612 1.228 . S
O614 Zn601 1.969 . S
O614 C612 1.267 . S
O615 Zn601 1.965 . S
O615 C619 1.260 . S
O616 Zn600 1.969 . S
O616 C619 1.258 . S
O617 Zn601 2.024 . S
O617 C604 1.058 . S
C618 O607 1.260 . S
C618 O608 1.258 . S
C619 O615 1.260 . S
C619 O616 1.258 . S
Zn620 O626 1.969 . S
Zn620 O627 1.965 . S
Zn620 O631 2.024 . S
Zn620 O636 1.969 . S
Zn621 O628 1.969 . S
Zn621 O634 1.969 . S
Zn621 O635 1.965 . S
Zn621 O637 2.024 . S
C622 O623 1.229 . S
C622 O631 1.058 . S
O623 C622 1.229 . S
C624 O625 1.229 . S
C624 O637 1.058 . S
O625 C624 1.229 . S
O626 Zn620 1.969 . S
O626 C629 1.267 . S
O627 Zn620 1.965 . S
O627 C638 1.260 . S
O628 Zn621 1.969 . S
O628 C638 1.258 . S
C629 O626 1.267 . S
C629 O630 1.228 . S
O630 C629 1.228 . S
O631 Zn620 2.024 . S
O631 C622 1.058 . S
C632 O633 1.228 . S
C632 O634 1.267 . S
O633 C632 1.228 . S
O634 Zn621 1.969 . S
O634 C632 1.267 . S
O635 Zn621 1.965 . S
O635 C639 1.260 . S
O636 Zn620 1.969 . S
O636 C639 1.258 . S
O637 Zn621 2.024 . S
O637 C624 1.058 . S
C638 O627 1.260 . S
C638 O628 1.258 . S
C639 O635 1.260 . S
C639 O636 1.258 . S
Zn640 O646 1.969 . S
Zn640 O647 1.965 . S
Zn640 O651 2.024 . S
Zn640 O656 1.969 . S
Zn641 O648 1.969 . S
Zn641 O654 1.969 . S
Zn641 O655 1.965 . S
Zn641 O657 2.024 . S
C642 O643 1.229 . S
C642 O651 1.058 . S
O643 C642 1.229 . S
C644 O645 1.229 . S
C644 O657 1.058 . S
O645 C644 1.229 . S
O646 Zn640 1.969 . S
O646 C649 1.267 . S
O647 Zn640 1.965 . S
O647 C658 1.260 . S
O648 Zn641 1.969 . S
O648 C658 1.258 . S
C649 O646 1.267 . S
C649 O650 1.228 . S
O650 C649 1.228 . S
O651 Zn640 2.024 . S
O651 C642 1.058 . S
C652 O653 1.228 . S
C652 O654 1.267 . S
O653 C652 1.228 . S
O654 Zn641 1.969 . S
O654 C652 1.267 . S
O655 Zn641 1.965 . S
O655 C659 1.260 . S
O656 Zn640 1.969 . S
O656 C659 1.258 . S
O657 Zn641 2.024 . S
O657 C644 1.058 . S
C658 O647 1.260 . S
C658 O648 1.258 . S
C659 O655 1.260 . S
C659 O656 1.258 . S
Zn660 O666 1.969 . S
Zn660 O667 1.965 . S
Zn660 O671 2.024 . S
Zn660 O676 1.969 . S
Zn661 O668 1.969 . S
Zn661 O674 1.969 . S
Zn661 O675 1.965 . S
Zn661 O677 2.024 . S
C662 O663 1.229 . S
C662 O671 1.058 . S
O663 C662 1.229 . S
C664 O665 1.229 . S
C664 O677 1.058 . S
O665 C664 1.229 . S
O666 Zn660 1.969 . S
O666 C669 1.267 . S
O667 Zn660 1.965 . S
O667 C678 1.260 . S
O668 Zn661 1.969 . S
O668 C678 1.258 . S
C669 O666 1.267 . S
C669 O670 1.228 . S
O670 C669 1.228 . S
O671 Zn660 2.024 . S
O671 C662 1.058 . S
C672 O673 1.228 . S
C672 O674 1.267 . S
O673 C672 1.228 . S
O674 Zn661 1.969 . S
O674 C672 1.267 . S
O675 Zn661 1.965 . S
O675 C679 1.260 . S
O676 Zn660 1.969 . S
O676 C679 1.258 . S
O677 Zn661 2.024 . S
O677 C664 1.058 . S
C678 O667 1.260 . S
C678 O668 1.258 . S
C679 O675 1.260 . S
C679 O676 1.258 . S
Zn680 O686 1.969 . S
Zn680 O687 1.965 . S
Zn680 O691 2.024 . S
Zn680 O696 1.969 . S
Zn681 O688 1.969 . S
Zn681 O694 1.969 . S
Zn681 O695 1.965 . S
Zn681 O697 2.024 . S
C682 O683 1.229 . S
C682 O691 1.058 . S
O683 C682 1.229 . S
C684 O685 1.229 . S
C684 O697 1.058 . S
O685 C684 1.229 . S
O686 Zn680 1.969 . S
O686 C689 1.267 . S
O687 Zn680 1.965 . S
O687 C698 1.260 . S
O688 Zn681 1.969 . S
O688 C698 1.258 . S
C689 O686 1.267 . S
C689 O690 1.228 . S
O690 C689 1.228 . S
O691 Zn680 2.024 . S
O691 C682 1.058 . S
C692 O693 1.228 . S
C692 O694 1.267 . S
O693 C692 1.228 . S
O694 Zn681 1.969 . S
O694 C692 1.267 . S
O695 Zn681 1.965 . S
O695 C699 1.260 . S
O696 Zn680 1.969 . S
O696 C699 1.258 . S
O697 Zn681 2.024 . S
O697 C684 1.058 . S
C698 O687 1.260 . S
C698 O688 1.258 . S
C699 O695 1.260 . S
C699 O696 1.258 . S
Zn700 O706 1.969 . S
Zn700 O707 1.965 . S
Zn700 O711 2.024 . S
Zn700 O716 1.969 . S
Zn701 O708 1.969 . S
Zn701 O714 1.969 . S
Zn701 O715 1.965 . S
Zn701 O717 2.024 . S
C702 O703 1.229 . S
C702 O711 1.058 . S
O703 C702 1.229 . S
C704 O705 1.229 . S
C704 O717 1.058 . S
O705 C704 1.229 . S
O706 Zn700 1.969 . S
O706 C709 1.267 . S
O707 Zn700 1.965 . S
O707 C718 1.260 . S
O708 Zn701 1.969 . S
O708 C718 1.258 . S
C709 O706 1.267 . S
C709 O710 1.228 . S
O710 C709 1.228 . S
O711 Zn700 2.024 . S
O711 C702 1.058 . S
C712 O713 1.228 . S
C712 O714 1.267 . S
O713 C712 1.228 . S
O714 Zn701 1.969 . S
O714 C712 1.267 . S
O715 Zn701 1.965 . S
O715 C719 1.260 . S
O716 Zn700 1.969 . S
O716 C719 1.258 . S
O717 Zn701 2.024 . S
O717 C704 1.058 . S
C718 O707 1.260 . S
C718 O708 1.258 . S
C719 O715 1.260 . S
C719 O716 1.258 . S
H720 C726 0.930 . S
H721 C730 0.930 . S
H722 C735 0.929 . S
H723 C733 0.929 . S
H724 C728 0.929 . S
H725 C734 0.929 . S
C726 H720 0.930 . S
C726 C727 1.367 . S
C726 C734 1.378 . S
C727 C726 1.367 . S
C727 C735 1.433 . S
C728 H724 0.929 . S
C728 C730 1.378 . S
C728 C732 1.350 . S
C729 C732 1.463 . S
C729 C734 1.350 . S
C729 N737 1.427 . S
C730 H721 0.930 . S
C730 C728 1.378 . S
C730 C731 1.367 . S
C731 C730 1.367 . S
C731 C733 1.433 . S
C732 C728 1.350 . S
C732 C729 1.463 . S
C732 N736 1.427 . S
C733 H723 0.929 . S
C733 C731 1.433 . S
C733 N736 1.384 . S
C734 H725 0.929 . S
C734 C726 1.378 . S
C734 C729 1.350 . S
C735 H722 0.929 . S
C735 C727 1.433 . S
C735 N737 1.384 . S
N736 C732 1.427 . S
N736 C733 1.384 . S
N737 C729 1.427 . S
N737 C735 1.384 . S
H738 C744 0.930 . S
H739 C748 0.930 . S
H740 C753 0.929 1_455 S
H741 C751 0.929 . S
H742 C746 0.929 . S
H743 C752 0.929 . S
C744 H738 0.930 . S
C744 C745 1.367 . S
C744 C752 1.378 . S
C745 C744 1.367 . S
C745 C753 1.433 . S
C746 H742 0.929 . S
C746 C748 1.378 1_545 S
C746 C750 1.350 . S
C747 C750 1.463 . S
C747 C752 1.350 . S
C747 N755 1.427 . S
C748 H739 0.930 . S
C748 C746 1.378 1_565 S
C748 C749 1.367 . S
C749 C748 1.367 . S
C749 C751 1.433 . S
C750 C746 1.350 . S
C750 C747 1.463 . S
C750 N754 1.427 . S
C751 H741 0.929 . S
C751 C749 1.433 . S
C751 N754 1.384 1_565 S
C752 H743 0.929 . S
C752 C744 1.378 . S
C752 C747 1.350 . S
C753 H740 0.929 1_655 S
C753 C745 1.433 . S
C753 N755 1.384 . S
N754 C750 1.427 . S
N754 C751 1.384 1_545 S
N755 C747 1.427 . S
N755 C753 1.384 . S
H756 C762 0.930 . S
H757 C766 0.930 . S
H758 C771 0.929 . S
H759 C769 0.929 . S
H760 C764 0.929 . S
H761 C770 0.929 . S
C762 H756 0.930 . S
C762 C763 1.367 . S
C762 C770 1.378 1_455 S
C763 C762 1.367 . S
C763 C771 1.433 . S
C764 H760 0.929 . S
C764 C766 1.378 . S
C764 C768 1.350 . S
C765 C768 1.463 . S
C765 C770 1.350 . S
C765 N773 1.427 . S
C766 H757 0.930 . S
C766 C764 1.378 . S
C766 C767 1.367 . S
C767 C766 1.367 . S
C767 C769 1.433 . S
C768 C764 1.350 . S
C768 C765 1.463 . S
C768 N772 1.427 . S
C769 H759 0.929 . S
C769 C767 1.433 . S
C769 N772 1.384 . S
C770 H761 0.929 . S
C770 C762 1.378 1_655 S
C770 C765 1.350 . S
C771 H758 0.929 . S
C771 C763 1.433 . S
C771 N773 1.384 1_455 S
N772 C768 1.427 . S
N772 C769 1.384 . S
N773 C765 1.427 . S
N773 C771 1.384 1_655 S
H774 C780 0.930 . S
H775 C784 0.930 . S
H776 C789 0.929 . S
H777 C787 0.929 . S
H778 C782 0.929 . S
H779 C788 0.929 . S
C780 H774 0.930 . S
C780 C781 1.367 . S
C780 C788 1.378 . S
C781 C780 1.367 . S
C781 C789 1.433 . S
C782 H778 0.929 . S
C782 C784 1.378 . S
C782 C786 1.350 . S
C783 C786 1.463 . S
C783 C788 1.350 . S
C783 N791 1.427 . S
C784 H775 0.930 . S
C784 C782 1.378 . S
C784 C785 1.367 . S
C785 C784 1.367 . S
C785 C787 1.433 . S
C786 C782 1.350 . S
C786 C783 1.463 . S
C786 N790 1.427 . S
C787 H777 0.929 . S
C787 C785 1.433 . S
C787 N790 1.384 . S
C788 H779 0.929 . S
C788 C780 1.378 . S
C788 C783 1.350 . S
C789 H776 0.929 . S
C789 C781 1.433 . S
C789 N791 1.384 . S
N790 C786 1.427 . S
N790 C787 1.384 . S
N791 C783 1.427 . S
N791 C789 1.384 . S
H792 C798 0.930 . S
H793 C802 0.930 . S
H794 C807 0.929 . S
H795 C805 0.929 . S
H796 C800 0.929 . S
H797 C806 0.929 . S
C798 H792 0.930 . S
C798 C799 1.367 . S
C798 C806 1.378 . S
C799 C798 1.367 . S
C799 C807 1.433 . S
C800 H796 0.929 . S
C800 C802 1.378 1_565 S
C800 C804 1.350 . S
C801 C804 1.463 . S
C801 C806 1.350 . S
C801 N809 1.427 . S
C802 H793 0.930 . S
C802 C800 1.378 1_545 S
C802 C803 1.367 . S
C803 C802 1.367 . S
C803 C805 1.433 . S
C804 C800 1.350 . S
C804 C801 1.463 . S
C804 N808 1.427 . S
C805 H795 0.929 . S
C805 C803 1.433 . S
C805 N808 1.384 1_545 S
C806 H797 0.929 . S
C806 C798 1.378 . S
C806 C801 1.350 . S
C807 H794 0.929 . S
C807 C799 1.433 . S
C807 N809 1.384 . S
N808 C804 1.427 . S
N808 C805 1.384 1_565 S
N809 C801 1.427 . S
N809 C807 1.384 . S
H810 C816 0.930 . S
H811 C820 0.930 . S
H812 C825 0.929 . S
H813 C823 0.929 . S
H814 C818 0.929 . S
H815 C824 0.929 . S
C816 H810 0.930 . S
C816 C817 1.367 . S
C816 C824 1.378 1_655 S
C817 C816 1.367 . S
C817 C825 1.433 . S
C818 H814 0.929 . S
C818 C820 1.378 . S
C818 C822 1.350 . S
C819 C822 1.463 . S
C819 C824 1.350 . S
C819 N827 1.427 . S
C820 H811 0.930 . S
C820 C818 1.378 . S
C820 C821 1.367 . S
C821 C820 1.367 . S
C821 C823 1.433 . S
C822 C818 1.350 . S
C822 C819 1.463 . S
C822 N826 1.427 . S
C823 H813 0.929 . S
C823 C821 1.433 . S
C823 N826 1.384 . S
C824 H815 0.929 . S
C824 C816 1.378 1_455 S
C824 C819 1.350 . S
C825 H812 0.929 . S
C825 C817 1.433 . S
C825 N827 1.384 1_655 S
N826 C822 1.427 . S
N826 C823 1.384 . S
N827 C819 1.427 . S
N827 C825 1.384 1_455 S
H828 C834 0.930 . S
H829 C838 0.930 . S
H830 C843 0.929 . S
H831 C841 0.929 . S
H832 C836 0.929 . S
H833 C842 0.929 . S
C834 H828 0.930 . S
C834 C835 1.367 . S
C834 C842 1.378 . S
C835 C834 1.367 . S
C835 C843 1.433 . S
C836 H832 0.929 . S
C836 C838 1.378 . S
C836 C840 1.350 . S
C837 C840 1.463 . S
C837 C842 1.350 . S
C837 N845 1.427 . S
C838 H829 0.930 . S
C838 C836 1.378 . S
C838 C839 1.367 . S
C839 C838 1.367 . S
C839 C841 1.433 . S
C840 C836 1.350 . S
C840 C837 1.463 . S
C840 N844 1.427 . S
C841 H831 0.929 . S
C841 C839 1.433 . S
C841 N844 1.384 . S
C842 H833 0.929 . S
C842 C834 1.378 . S
C842 C837 1.350 . S
C843 H830 0.929 . S
C843 C835 1.433 . S
C843 N845 1.384 . S
N844 C840 1.427 . S
N844 C841 1.384 . S
N845 C837 1.427 . S
N845 C843 1.384 . S
H846 C852 0.930 . S
H847 C856 0.930 . S
H848 C861 0.929 . S
H849 C859 0.929 . S
H850 C854 0.929 . S
H851 C860 0.929 . S
C852 H846 0.930 . S
C852 C853 1.367 . S
C852 C860 1.378 1_545 S
C853 C852 1.367 . S
C853 C861 1.433 . S
C854 H850 0.929 . S
C854 C856 1.378 . S
C854 C858 1.350 . S
C855 C858 1.463 . S
C855 C860 1.350 . S
C855 N863 1.427 . S
C856 H847 0.930 . S
C856 C854 1.378 . S
C856 C857 1.367 . S
C857 C856 1.367 . S
C857 C859 1.433 . S
C858 C854 1.350 . S
C858 C855 1.463 . S
C858 N862 1.427 . S
C859 H849 0.929 . S
C859 C857 1.433 . S
C859 N862 1.384 . S
C860 H851 0.929 . S
C860 C852 1.378 1_565 S
C860 C855 1.350 . S
C861 H848 0.929 . S
C861 C853 1.433 . S
C861 N863 1.384 1_545 S
N862 C858 1.427 . S
N862 C859 1.384 . S
N863 C855 1.427 . S
N863 C861 1.384 1_565 S
H864 C870 0.930 . S
H865 C874 0.930 . S
H866 C879 0.929 . S
H867 C877 0.929 . S
H868 C872 0.929 . S
H869 C878 0.929 . S
C870 H864 0.930 . S
C870 C871 1.367 . S
C870 C878 1.378 1_655 S
C871 C870 1.367 . S
C871 C879 1.433 . S
C872 H868 0.929 . S
C872 C874 1.378 . S
C872 C876 1.350 . S
C873 C876 1.463 . S
C873 C878 1.350 . S
C873 N881 1.427 . S
C874 H865 0.930 . S
C874 C872 1.378 . S
C874 C875 1.367 . S
C875 C874 1.367 . S
C875 C877 1.433 . S
C876 C872 1.350 . S
C876 C873 1.463 . S
C876 N880 1.427 . S
C877 H867 0.929 . S
C877 C875 1.433 . S
C877 N880 1.384 . S
C878 H869 0.929 . S
C878 C870 1.378 1_455 S
C878 C873 1.350 . S
C879 H866 0.929 . S
C879 C871 1.433 . S
C879 N881 1.384 1_655 S
N880 C876 1.427 . S
N880 C877 1.384 . S
N881 C873 1.427 . S
N881 C879 1.384 1_455 S
H882 C888 0.930 . S
H883 C892 0.930 . S
H884 C897 0.929 . S
H885 C895 0.929 . S
H886 C890 0.929 . S
H887 C896 0.929 . S
C888 H882 0.930 . S
C888 C889 1.367 . S
C888 C896 1.378 . S
C889 C888 1.367 . S
C889 C897 1.433 . S
C890 H886 0.929 . S
C890 C892 1.378 . S
C890 C894 1.350 . S
C891 C894 1.463 . S
C891 C896 1.350 . S
C891 N899 1.427 . S
C892 H883 0.930 . S
C892 C890 1.378 . S
C892 C893 1.367 . S
C893 C892 1.367 . S
C893 C895 1.433 . S
C894 C890 1.350 . S
C894 C891 1.463 . S
C894 N898 1.427 . S
C895 H885 0.929 . S
C895 C893 1.433 . S
C895 N898 1.384 . S
C896 H887 0.929 . S
C896 C888 1.378 . S
C896 C891 1.350 . S
C897 H884 0.929 . S
C897 C889 1.433 . S
C897 N899 1.384 . S
N898 C894 1.427 . S
N898 C895 1.384 . S
N899 C891 1.427 . S
N899 C897 1.384 . S
H900 C906 0.930 . S
H901 C910 0.930 . S
H902 C915 0.929 . S
H903 C913 0.929 . S
H904 C908 0.929 . S
H905 C914 0.929 . S
C906 H900 0.930 . S
C906 C907 1.367 . S
C906 C914 1.378 . S
C907 C906 1.367 . S
C907 C915 1.433 . S
C908 H904 0.929 . S
C908 C910 1.378 1_545 S
C908 C912 1.350 . S
C909 C912 1.463 . S
C909 C914 1.350 . S
C909 N917 1.427 . S
C910 H901 0.930 . S
C910 C908 1.378 1_565 S
C910 C911 1.367 . S
C911 C910 1.367 . S
C911 C913 1.433 . S
C912 C908 1.350 . S
C912 C909 1.463 . S
C912 N916 1.427 . S
C913 H903 0.929 . S
C913 C911 1.433 . S
C913 N916 1.384 1_565 S
C914 H905 0.929 . S
C914 C906 1.378 . S
C914 C909 1.350 . S
C915 H902 0.929 . S
C915 C907 1.433 . S
C915 N917 1.384 . S
N916 C912 1.427 . S
N916 C913 1.384 1_545 S
N917 C909 1.427 . S
N917 C915 1.384 . S
H918 C924 0.930 . S
H919 C928 0.930 . S
H920 C933 0.929 . S
H921 C931 0.929 . S
H922 C926 0.929 . S
H923 C932 0.929 . S
C924 H918 0.930 . S
C924 C925 1.367 . S
C924 C932 1.378 . S
C925 C924 1.367 . S
C925 C933 1.433 . S
C926 H922 0.929 . S
C926 C928 1.378 1_655 S
C926 C930 1.350 . S
C927 C930 1.463 . S
C927 C932 1.350 . S
C927 N935 1.427 . S
C928 H919 0.930 . S
C928 C926 1.378 1_455 S
C928 C929 1.367 . S
C929 C928 1.367 . S
C929 C931 1.433 . S
C930 C926 1.350 . S
C930 C927 1.463 . S
C930 N934 1.427 . S
C931 H921 0.929 . S
C931 C929 1.433 . S
C931 N934 1.384 1_455 S
C932 H923 0.929 . S
C932 C924 1.378 . S
C932 C927 1.350 . S
C933 H920 0.929 . S
C933 C925 1.433 . S
C933 N935 1.384 . S
N934 C930 1.427 . S
N934 C931 1.384 1_655 S
N935 C927 1.427 . S
N935 C933 1.384 . S
H936 C942 0.930 . S
H937 C946 0.930 . S
H938 C951 0.929 . S
H939 C949 0.929 . S
H940 C944 0.929 . S
H941 C950 0.929 . S
C942 H936 0.930 . S
C942 C943 1.367 . S
C942 C950 1.378 . S
C943 C942 1.367 . S
C943 C951 1.433 . S
C944 H940 0.929 . S
C944 C946 1.378 . S
C944 C948 1.350 . S
C945 C948 1.463 . S
C945 C950 1.350 . S
C945 N953 1.427 . S
C946 H937 0.930 . S
C946 C944 1.378 . S
C946 C947 1.367 . S
C947 C946 1.367 . S
C947 C949 1.433 . S
C948 C944 1.350 . S
C948 C945 1.463 . S
C948 N952 1.427 . S
C949 H939 0.929 . S
C949 C947 1.433 . S
C949 N952 1.384 . S
C950 H941 0.929 . S
C950 C942 1.378 . S
C950 C945 1.350 . S
C951 H938 0.929 . S
C951 C943 1.433 . S
C951 N953 1.384 . S
N952 C948 1.427 . S
N952 C949 1.384 . S
N953 C945 1.427 . S
N953 C951 1.384 . S
H954 C960 0.930 . S
H955 C964 0.930 . S
H956 C969 0.929 . S
H957 C967 0.929 . S
H958 C962 0.929 . S
H959 C968 0.929 . S
C960 H954 0.930 . S
C960 C961 1.367 . S
C960 C968 1.378 . S
C961 C960 1.367 . S
C961 C969 1.433 . S
C962 H958 0.929 . S
C962 C964 1.378 . S
C962 C966 1.350 . S
C963 C966 1.463 . S
C963 C968 1.350 . S
C963 N971 1.427 . S
C964 H955 0.930 . S
C964 C962 1.378 . S
C964 C965 1.367 . S
C965 C964 1.367 . S
C965 C967 1.433 . S
C966 C962 1.350 . S
C966 C963 1.463 . S
C966 N970 1.427 . S
C967 H957 0.929 . S
C967 C965 1.433 . S
C967 N970 1.384 . S
C968 H959 0.929 . S
C968 C960 1.378 . S
C968 C963 1.350 . S
C969 H956 0.929 . S
C969 C961 1.433 . S
C969 N971 1.384 . S
N970 C966 1.427 . S
N970 C967 1.384 . S
N971 C963 1.427 . S
N971 C969 1.384 . S
H972 C978 0.930 . S
H973 C982 0.930 . S
H974 C987 0.929 . S
H975 C985 0.929 . S
H976 C980 0.929 . S
H977 C986 0.929 . S
C978 H972 0.930 . S
C978 C979 1.367 . S
C978 C986 1.378 . S
C979 C978 1.367 . S
C979 C987 1.433 . S
C980 H976 0.929 . S
C980 C982 1.378 . S
C980 C984 1.350 . S
C981 C984 1.463 . S
C981 C986 1.350 . S
C981 N989 1.427 . S
C982 H973 0.930 . S
C982 C980 1.378 . S
C982 C983 1.367 . S
C983 C982 1.367 . S
C983 C985 1.433 . S
C984 C980 1.350 . S
C984 C981 1.463 . S
C984 N988 1.427 . S
C985 H975 0.929 . S
C985 C983 1.433 . S
C985 N988 1.384 . S
C986 H977 0.929 . S
C986 C978 1.378 . S
C986 C981 1.350 . S
C987 H974 0.929 . S
C987 C979 1.433 . S
C987 N989 1.384 . S
N988 C984 1.427 . S
N988 C985 1.384 . S
N989 C981 1.427 . S
N989 C987 1.384 . S
H990 C996 0.930 . S
H991 C1000 0.930 . S
H992 C1005 0.929 . S
H993 C1003 0.929 . S
H994 C998 0.929 . S
H995 C1004 0.929 . S
C996 H990 0.930 . S
C996 C997 1.367 . S
C996 C1004 1.378 . S
C997 C996 1.367 . S
C997 C1005 1.433 . S
C998 H994 0.929 . S
C998 C1000 1.378 . S
C998 C1002 1.350 . S
C999 C1002 1.463 . S
C999 C1004 1.350 . S
C999 N1007 1.427 . S
C1000 H991 0.930 . S
C1000 C998 1.378 . S
C1000 C1001 1.367 . S
C1001 C1000 1.367 . S
C1001 C1003 1.433 . S
C1002 C998 1.350 . S
C1002 C999 1.463 . S
C1002 N1006 1.427 . S
C1003 H993 0.929 . S
C1003 C1001 1.433 . S
C1003 N1006 1.384 . S
C1004 H995 0.929 . S
C1004 C996 1.378 . S
C1004 C999 1.350 . S
C1005 H992 0.929 . S
C1005 C997 1.433 . S
C1005 N1007 1.384 . S
N1006 C1002 1.427 . S
N1006 C1003 1.384 . S
N1007 C999 1.427 . S
N1007 C1005 1.384 . S
H1008 C1014 0.930 . S
H1009 C1018 0.930 . S
H1010 C1023 0.929 . S
H1011 C1021 0.929 . S
H1012 C1016 0.929 . S
H1013 C1022 0.929 . S
C1014 H1008 0.930 . S
C1014 C1015 1.367 . S
C1014 C1022 1.378 . S
C1015 C1014 1.367 . S
C1015 C1023 1.433 . S
C1016 H1012 0.929 . S
C1016 C1018 1.378 . S
C1016 C1020 1.350 . S
C1017 C1020 1.463 . S
C1017 C1022 1.350 . S
C1017 N1025 1.427 . S
C1018 H1009 0.930 . S
C1018 C1016 1.378 . S
C1018 C1019 1.367 . S
C1019 C1018 1.367 . S
C1019 C1021 1.433 . S
C1020 C1016 1.350 . S
C1020 C1017 1.463 . S
C1020 N1024 1.427 . S
C1021 H1011 0.929 . S
C1021 C1019 1.433 . S
C1021 N1024 1.384 . S
C1022 H1013 0.929 . S
C1022 C1014 1.378 . S
C1022 C1017 1.350 . S
C1023 H1010 0.929 . S
C1023 C1015 1.433 . S
C1023 N1025 1.384 . S
N1024 C1020 1.427 . S
N1024 C1021 1.384 . S
N1025 C1017 1.427 . S
N1025 C1023 1.384 . S
H1026 C1032 0.930 . S
H1027 C1036 0.930 . S
H1028 C1041 0.929 . S
H1029 C1039 0.929 . S
H1030 C1034 0.929 . S
H1031 C1040 0.929 . S
C1032 H1026 0.930 . S
C1032 C1033 1.367 . S
C1032 C1040 1.378 . S
C1033 C1032 1.367 . S
C1033 C1041 1.433 . S
C1034 H1030 0.929 . S
C1034 C1036 1.378 . S
C1034 C1038 1.350 . S
C1035 C1038 1.463 . S
C1035 C1040 1.350 . S
C1035 N1043 1.427 . S
C1036 H1027 0.930 . S
C1036 C1034 1.378 . S
C1036 C1037 1.367 . S
C1037 C1036 1.367 . S
C1037 C1039 1.433 . S
C1038 C1034 1.350 . S
C1038 C1035 1.463 . S
C1038 N1042 1.427 . S
C1039 H1029 0.929 . S
C1039 C1037 1.433 . S
C1039 N1042 1.384 . S
C1040 H1031 0.929 . S
C1040 C1032 1.378 . S
C1040 C1035 1.350 . S
C1041 H1028 0.929 . S
C1041 C1033 1.433 . S
C1041 N1043 1.384 . S
N1042 C1038 1.427 . S
N1042 C1039 1.384 . S
N1043 C1035 1.427 . S
N1043 C1041 1.384 . S
H1044 C1050 0.930 . S
H1045 C1054 0.930 . S
H1046 C1059 0.929 . S
H1047 C1057 0.929 . S
H1048 C1052 0.929 . S
H1049 C1058 0.929 . S
C1050 H1044 0.930 . S
C1050 C1051 1.367 . S
C1050 C1058 1.378 . S
C1051 C1050 1.367 . S
C1051 C1059 1.433 . S
C1052 H1048 0.929 . S
C1052 C1054 1.378 . S
C1052 C1056 1.350 . S
C1053 C1056 1.463 . S
C1053 C1058 1.350 . S
C1053 N1061 1.427 . S
C1054 H1045 0.930 . S
C1054 C1052 1.378 . S
C1054 C1055 1.367 . S
C1055 C1054 1.367 . S
C1055 C1057 1.433 . S
C1056 C1052 1.350 . S
C1056 C1053 1.463 . S
C1056 N1060 1.427 . S
C1057 H1047 0.929 . S
C1057 C1055 1.433 . S
C1057 N1060 1.384 . S
C1058 H1049 0.929 . S
C1058 C1050 1.378 . S
C1058 C1053 1.350 . S
C1059 H1046 0.929 . S
C1059 C1051 1.433 . S
C1059 N1061 1.384 . S
N1060 C1056 1.427 . S
N1060 C1057 1.384 . S
N1061 C1053 1.427 . S
N1061 C1059 1.384 . S
H1062 C1068 0.930 . S
H1063 C1072 0.930 . S
H1064 C1077 0.929 . S
H1065 C1075 0.929 . S
H1066 C1070 0.929 . S
H1067 C1076 0.929 . S
C1068 H1062 0.930 . S
C1068 C1069 1.367 . S
C1068 C1076 1.378 . S
C1069 C1068 1.367 . S
C1069 C1077 1.433 . S
C1070 H1066 0.929 . S
C1070 C1072 1.378 . S
C1070 C1074 1.350 . S
C1071 C1074 1.463 . S
C1071 C1076 1.350 . S
C1071 N1079 1.427 . S
C1072 H1063 0.930 . S
C1072 C1070 1.378 . S
C1072 C1073 1.367 . S
C1073 C1072 1.367 . S
C1073 C1075 1.433 . S
C1074 C1070 1.350 . S
C1074 C1071 1.463 . S
C1074 N1078 1.427 . S
C1075 H1065 0.929 . S
C1075 C1073 1.433 . S
C1075 N1078 1.384 . S
C1076 H1067 0.929 . S
C1076 C1068 1.378 . S
C1076 C1071 1.350 . S
C1077 H1064 0.929 . S
C1077 C1069 1.433 . S
C1077 N1079 1.384 . S
N1078 C1074 1.427 . S
N1078 C1075 1.384 . S
N1079 C1071 1.427 . S
N1079 C1077 1.384 . S
H1080 C1086 0.930 . S
H1081 C1090 0.930 . S
H1082 C1095 0.929 . S
H1083 C1093 0.929 . S
H1084 C1088 0.929 . S
H1085 C1094 0.929 . S
C1086 H1080 0.930 . S
C1086 C1087 1.367 . S
C1086 C1094 1.378 . S
C1087 C1086 1.367 . S
C1087 C1095 1.433 . S
C1088 H1084 0.929 . S
C1088 C1090 1.378 . S
C1088 C1092 1.350 . S
C1089 C1092 1.463 . S
C1089 C1094 1.350 . S
C1089 N1097 1.427 . S
C1090 H1081 0.930 . S
C1090 C1088 1.378 . S
C1090 C1091 1.367 . S
C1091 C1090 1.367 . S
C1091 C1093 1.433 . S
C1092 C1088 1.350 . S
C1092 C1089 1.463 . S
C1092 N1096 1.427 . S
C1093 H1083 0.929 . S
C1093 C1091 1.433 . S
C1093 N1096 1.384 . S
C1094 H1085 0.929 . S
C1094 C1086 1.378 . S
C1094 C1089 1.350 . S
C1095 H1082 0.929 . S
C1095 C1087 1.433 . S
C1095 N1097 1.384 . S
N1096 C1092 1.427 . S
N1096 C1093 1.384 . S
N1097 C1089 1.427 . S
N1097 C1095 1.384 . S
H1098 C1104 0.930 . S
H1099 C1108 0.930 . S
H1100 C1113 0.929 . S
H1101 C1111 0.929 . S
H1102 C1106 0.929 . S
H1103 C1112 0.929 . S
C1104 H1098 0.930 . S
C1104 C1105 1.367 . S
C1104 C1112 1.378 . S
C1105 C1104 1.367 . S
C1105 C1113 1.433 1_554 S
C1106 H1102 0.929 . S
C1106 C1108 1.378 . S
C1106 C1110 1.350 1_556 S
C1107 C1110 1.463 . S
C1107 C1112 1.350 . S
C1107 N1115 1.427 1_554 S
C1108 H1099 0.930 . S
C1108 C1106 1.378 . S
C1108 C1109 1.367 1_556 S
C1109 C1108 1.367 1_554 S
C1109 C1111 1.433 . S
C1110 C1106 1.350 1_554 S
C1110 C1107 1.463 . S
C1110 N1114 1.427 . S
C1111 H1101 0.929 . S
C1111 C1109 1.433 . S
C1111 N1114 1.384 . S
C1112 H1103 0.929 . S
C1112 C1104 1.378 . S
C1112 C1107 1.350 . S
C1113 H1100 0.929 . S
C1113 C1105 1.433 1_556 S
C1113 N1115 1.384 . S
N1114 C1110 1.427 . S
N1114 C1111 1.384 . S
N1115 C1107 1.427 1_556 S
N1115 C1113 1.384 . S
H1116 C1122 0.930 . S
H1117 C1126 0.930 . S
H1118 C1131 0.929 . S
H1119 C1129 0.929 . S
H1120 C1124 0.929 . S
H1121 C1130 0.929 . S
C1122 H1116 0.930 . S
C1122 C1123 1.367 1_556 S
C1122 C1130 1.378 . S
C1123 C1122 1.367 1_554 S
C1123 C1131 1.433 . S
C1124 H1120 0.929 . S
C1124 C1126 1.378 . S
C1124 C1128 1.350 . S
C1125 C1128 1.463 . S
C1125 C1130 1.350 1_554 S
C1125 N1133 1.427 . S
C1126 H1117 0.930 . S
C1126 C1124 1.378 . S
C1126 C1127 1.367 . S
C1127 C1126 1.367 . S
C1127 C1129 1.433 1_554 S
C1128 C1124 1.350 . S
C1128 C1125 1.463 . S
C1128 N1132 1.427 1_554 S
C1129 H1119 0.929 . S
C1129 C1127 1.433 1_556 S
C1129 N1132 1.384 . S
C1130 H1121 0.929 . S
C1130 C1122 1.378 . S
C1130 C1125 1.350 1_556 S
C1131 H1118 0.929 . S
C1131 C1123 1.433 . S
C1131 N1133 1.384 . S
N1132 C1128 1.427 1_556 S
N1132 C1129 1.384 . S
N1133 C1125 1.427 . S
N1133 C1131 1.384 . S
H1134 C1140 0.930 . S
H1135 C1144 0.930 . S
H1136 C1149 0.929 . S
H1137 C1147 0.929 . S
H1138 C1142 0.929 . S
H1139 C1148 0.929 . S
C1140 H1134 0.930 . S
C1140 C1141 1.367 . S
C1140 C1148 1.378 . S
C1141 C1140 1.367 . S
C1141 C1149 1.433 1_554 S
C1142 H1138 0.929 . S
C1142 C1144 1.378 . S
C1142 C1146 1.350 1_556 S
C1143 C1146 1.463 . S
C1143 C1148 1.350 . S
C1143 N1151 1.427 1_554 S
C1144 H1135 0.930 . S
C1144 C1142 1.378 . S
C1144 C1145 1.367 1_556 S
C1145 C1144 1.367 1_554 S
C1145 C1147 1.433 . S
C1146 C1142 1.350 1_554 S
C1146 C1143 1.463 . S
C1146 N1150 1.427 . S
C1147 H1137 0.929 . S
C1147 C1145 1.433 . S
C1147 N1150 1.384 . S
C1148 H1139 0.929 . S
C1148 C1140 1.378 . S
C1148 C1143 1.350 . S
C1149 H1136 0.929 . S
C1149 C1141 1.433 1_556 S
C1149 N1151 1.384 . S
N1150 C1146 1.427 . S
N1150 C1147 1.384 . S
N1151 C1143 1.427 1_556 S
N1151 C1149 1.384 . S
H1152 C1158 0.930 . S
H1153 C1162 0.930 . S
H1154 C1167 0.929 . S
H1155 C1165 0.929 . S
H1156 C1160 0.929 . S
H1157 C1166 0.929 . S
C1158 H1152 0.930 . S
C1158 C1159 1.367 . S
C1158 C1166 1.378 . S
C1159 C1158 1.367 . S
C1159 C1167 1.433 . S
C1160 H1156 0.929 . S
C1160 C1162 1.378 . S
C1160 C1164 1.350 . S
C1161 C1164 1.463 . S
C1161 C1166 1.350 . S
C1161 N1169 1.427 . S
C1162 H1153 0.930 . S
C1162 C1160 1.378 . S
C1162 C1163 1.367 . S
C1163 C1162 1.367 . S
C1163 C1165 1.433 . S
C1164 C1160 1.350 . S
C1164 C1161 1.463 . S
C1164 N1168 1.427 . S
C1165 H1155 0.929 . S
C1165 C1163 1.433 . S
C1165 N1168 1.384 . S
C1166 H1157 0.929 . S
C1166 C1158 1.378 . S
C1166 C1161 1.350 . S
C1167 H1154 0.929 . S
C1167 C1159 1.433 . S
C1167 N1169 1.384 . S
N1168 C1164 1.427 . S
N1168 C1165 1.384 . S
N1169 C1161 1.427 . S
N1169 C1167 1.384 . S
H1170 C1176 0.930 . S
H1171 C1180 0.930 . S
H1172 C1185 0.929 . S
H1173 C1183 0.929 . S
H1174 C1178 0.929 . S
H1175 C1184 0.929 . S
C1176 H1170 0.930 . S
C1176 C1177 1.367 . S
C1176 C1184 1.378 . S
C1177 C1176 1.367 . S
C1177 C1185 1.433 . S
C1178 H1174 0.929 . S
C1178 C1180 1.378 . S
C1178 C1182 1.350 . S
C1179 C1182 1.463 . S
C1179 C1184 1.350 . S
C1179 N1187 1.427 . S
C1180 H1171 0.930 . S
C1180 C1178 1.378 . S
C1180 C1181 1.367 . S
C1181 C1180 1.367 . S
C1181 C1183 1.433 . S
C1182 C1178 1.350 . S
C1182 C1179 1.463 . S
C1182 N1186 1.427 . S
C1183 H1173 0.929 . S
C1183 C1181 1.433 . S
C1183 N1186 1.384 . S
C1184 H1175 0.929 . S
C1184 C1176 1.378 . S
C1184 C1179 1.350 . S
C1185 H1172 0.929 . S
C1185 C1177 1.433 . S
C1185 N1187 1.384 . S
N1186 C1182 1.427 . S
N1186 C1183 1.384 . S
N1187 C1179 1.427 . S
N1187 C1185 1.384 . S
H1188 C1194 0.930 . S
H1189 C1198 0.930 . S
H1190 C1203 0.929 . S
H1191 C1201 0.929 . S
H1192 C1196 0.929 . S
H1193 C1202 0.929 . S
C1194 H1188 0.930 . S
C1194 C1195 1.367 . S
C1194 C1202 1.378 . S
C1195 C1194 1.367 . S
C1195 C1203 1.433 . S
C1196 H1192 0.929 . S
C1196 C1198 1.378 . S
C1196 C1200 1.350 . S
C1197 C1200 1.463 . S
C1197 C1202 1.350 . S
C1197 N1205 1.427 . S
C1198 H1189 0.930 . S
C1198 C1196 1.378 . S
C1198 C1199 1.367 . S
C1199 C1198 1.367 . S
C1199 C1201 1.433 . S
C1200 C1196 1.350 . S
C1200 C1197 1.463 . S
C1200 N1204 1.427 . S
C1201 H1191 0.929 . S
C1201 C1199 1.433 . S
C1201 N1204 1.384 . S
C1202 H1193 0.929 . S
C1202 C1194 1.378 . S
C1202 C1197 1.350 . S
C1203 H1190 0.929 . S
C1203 C1195 1.433 . S
C1203 N1205 1.384 . S
N1204 C1200 1.427 . S
N1204 C1201 1.384 . S
N1205 C1197 1.427 . S
N1205 C1203 1.384 . S
H1206 C1212 0.930 . S
H1207 C1216 0.930 . S
H1208 C1221 0.929 . S
H1209 C1219 0.929 . S
H1210 C1214 0.929 . S
H1211 C1220 0.929 . S
C1212 H1206 0.930 . S
C1212 C1213 1.367 1_554 S
C1212 C1220 1.378 . S
C1213 C1212 1.367 1_556 S
C1213 C1221 1.433 . S
C1214 H1210 0.929 . S
C1214 C1216 1.378 . S
C1214 C1218 1.350 . S
C1215 C1218 1.463 . S
C1215 C1220 1.350 1_556 S
C1215 N1223 1.427 . S
C1216 H1207 0.930 . S
C1216 C1214 1.378 . S
C1216 C1217 1.367 . S
C1217 C1216 1.367 . S
C1217 C1219 1.433 1_556 S
C1218 C1214 1.350 . S
C1218 C1215 1.463 . S
C1218 N1222 1.427 1_556 S
C1219 H1209 0.929 . S
C1219 C1217 1.433 1_554 S
C1219 N1222 1.384 . S
C1220 H1211 0.929 . S
C1220 C1212 1.378 . S
C1220 C1215 1.350 1_554 S
C1221 H1208 0.929 . S
C1221 C1213 1.433 . S
C1221 N1223 1.384 . S
N1222 C1218 1.427 1_554 S
N1222 C1219 1.384 . S
N1223 C1215 1.427 . S
N1223 C1221 1.384 . S
H1224 C1230 0.930 . S
H1225 C1234 0.930 . S
H1226 C1239 0.929 . S
H1227 C1237 0.929 . S
H1228 C1232 0.929 . S
H1229 C1238 0.929 . S
C1230 H1224 0.930 . S
C1230 C1231 1.367 . S
C1230 C1238 1.378 . S
C1231 C1230 1.367 . S
C1231 C1239 1.433 1_556 S
C1232 H1228 0.929 . S
C1232 C1234 1.378 . S
C1232 C1236 1.350 1_554 S
C1233 C1236 1.463 . S
C1233 C1238 1.350 . S
C1233 N1241 1.427 1_556 S
C1234 H1225 0.930 . S
C1234 C1232 1.378 . S
C1234 C1235 1.367 1_554 S
C1235 C1234 1.367 1_556 S
C1235 C1237 1.433 . S
C1236 C1232 1.350 1_556 S
C1236 C1233 1.463 . S
C1236 N1240 1.427 . S
C1237 H1227 0.929 . S
C1237 C1235 1.433 . S
C1237 N1240 1.384 . S
C1238 H1229 0.929 . S
C1238 C1230 1.378 . S
C1238 C1233 1.350 . S
C1239 H1226 0.929 . S
C1239 C1231 1.433 1_554 S
C1239 N1241 1.384 . S
N1240 C1236 1.427 . S
N1240 C1237 1.384 . S
N1241 C1233 1.427 1_554 S
N1241 C1239 1.384 . S
H1242 C1248 0.930 . S
H1243 C1252 0.930 . S
H1244 C1257 0.929 . S
H1245 C1255 0.929 . S
H1246 C1250 0.929 . S
H1247 C1256 0.929 . S
C1248 H1242 0.930 . S
C1248 C1249 1.367 . S
C1248 C1256 1.378 . S
C1249 C1248 1.367 . S
C1249 C1257 1.433 1_556 S
C1250 H1246 0.929 . S
C1250 C1252 1.378 . S
C1250 C1254 1.350 1_554 S
C1251 C1254 1.463 . S
C1251 C1256 1.350 . S
C1251 N1259 1.427 1_556 S
C1252 H1243 0.930 . S
C1252 C1250 1.378 . S
C1252 C1253 1.367 1_554 S
C1253 C1252 1.367 1_556 S
C1253 C1255 1.433 . S
C1254 C1250 1.350 1_556 S
C1254 C1251 1.463 . S
C1254 N1258 1.427 . S
C1255 H1245 0.929 . S
C1255 C1253 1.433 . S
C1255 N1258 1.384 . S
C1256 H1247 0.929 . S
C1256 C1248 1.378 . S
C1256 C1251 1.350 . S
C1257 H1244 0.929 . S
C1257 C1249 1.433 1_554 S
C1257 N1259 1.384 . S
N1258 C1254 1.427 . S
N1258 C1255 1.384 . S
N1259 C1251 1.427 1_554 S
N1259 C1257 1.384 . S
H1260 C1266 0.930 . S
H1261 C1270 0.930 . S
H1262 C1275 0.929 . S
H1263 C1273 0.929 . S
H1264 C1268 0.929 . S
H1265 C1274 0.929 . S
C1266 H1260 0.930 . S
C1266 C1267 1.367 . S
C1266 C1274 1.378 . S
C1267 C1266 1.367 . S
C1267 C1275 1.433 . S
C1268 H1264 0.929 . S
C1268 C1270 1.378 . S
C1268 C1272 1.350 . S
C1269 C1272 1.463 . S
C1269 C1274 1.350 . S
C1269 N1277 1.427 . S
C1270 H1261 0.930 . S
C1270 C1268 1.378 . S
C1270 C1271 1.367 . S
C1271 C1270 1.367 . S
C1271 C1273 1.433 . S
C1272 C1268 1.350 . S
C1272 C1269 1.463 . S
C1272 N1276 1.427 . S
C1273 H1263 0.929 . S
C1273 C1271 1.433 . S
C1273 N1276 1.384 . S
C1274 H1265 0.929 . S
C1274 C1266 1.378 . S
C1274 C1269 1.350 . S
C1275 H1262 0.929 . S
C1275 C1267 1.433 . S
C1275 N1277 1.384 . S
N1276 C1272 1.427 . S
N1276 C1273 1.384 . S
N1277 C1269 1.427 . S
N1277 C1275 1.384 . S
H1278 C1284 0.930 . S
H1279 C1288 0.930 . S
H1280 C1293 0.929 . S
H1281 C1291 0.929 . S
H1282 C1286 0.929 . S
H1283 C1292 0.929 . S
C1284 H1278 0.930 . S
C1284 C1285 1.367 . S
C1284 C1292 1.378 . S
C1285 C1284 1.367 . S
C1285 C1293 1.433 . S
C1286 H1282 0.929 . S
C1286 C1288 1.378 . S
C1286 C1290 1.350 . S
C1287 C1290 1.463 . S
C1287 C1292 1.350 . S
C1287 N1295 1.427 . S
C1288 H1279 0.930 . S
C1288 C1286 1.378 . S
C1288 C1289 1.367 . S
C1289 C1288 1.367 . S
C1289 C1291 1.433 . S
C1290 C1286 1.350 . S
C1290 C1287 1.463 . S
C1290 N1294 1.427 . S
C1291 H1281 0.929 . S
C1291 C1289 1.433 . S
C1291 N1294 1.384 . S
C1292 H1283 0.929 . S
C1292 C1284 1.378 . S
C1292 C1287 1.350 . S
C1293 H1280 0.929 . S
C1293 C1285 1.433 . S
C1293 N1295 1.384 . S
N1294 C1290 1.427 . S
N1294 C1291 1.384 . S
N1295 C1287 1.427 . S
N1295 C1293 1.384 . S
H1296 C1302 0.930 . S
H1297 C1306 0.930 . S
H1298 C1311 0.929 . S
H1299 C1309 0.929 . S
H1300 C1304 0.929 . S
H1301 C1310 0.929 . S
C1302 H1296 0.930 . S
C1302 C1303 1.367 . S
C1302 C1310 1.378 . S
C1303 C1302 1.367 . S
C1303 C1311 1.433 . S
C1304 H1300 0.929 . S
C1304 C1306 1.378 . S
C1304 C1308 1.350 . S
C1305 C1308 1.463 . S
C1305 C1310 1.350 . S
C1305 N1313 1.427 . S
C1306 H1297 0.930 . S
C1306 C1304 1.378 . S
C1306 C1307 1.367 . S
C1307 C1306 1.367 . S
C1307 C1309 1.433 . S
C1308 C1304 1.350 . S
C1308 C1305 1.463 . S
C1308 N1312 1.427 . S
C1309 H1299 0.929 . S
C1309 C1307 1.433 . S
C1309 N1312 1.384 . S
C1310 H1301 0.929 . S
C1310 C1302 1.378 . S
C1310 C1305 1.350 . S
C1311 H1298 0.929 . S
C1311 C1303 1.433 . S
C1311 N1313 1.384 . S
N1312 C1308 1.427 . S
N1312 C1309 1.384 . S
N1313 C1305 1.427 . S
N1313 C1311 1.384 . S
H1314 C1320 0.930 . S
H1315 C1324 0.930 . S
H1316 C1329 0.929 . S
H1317 C1327 0.929 . S
H1318 C1322 0.929 . S
H1319 C1328 0.929 . S
C1320 H1314 0.930 . S
C1320 C1321 1.367 . S
C1320 C1328 1.378 . S
C1321 C1320 1.367 . S
C1321 C1329 1.433 . S
C1322 H1318 0.929 . S
C1322 C1324 1.378 . S
C1322 C1326 1.350 . S
C1323 C1326 1.463 . S
C1323 C1328 1.350 . S
C1323 N1331 1.427 . S
C1324 H1315 0.930 . S
C1324 C1322 1.378 . S
C1324 C1325 1.367 . S
C1325 C1324 1.367 . S
C1325 C1327 1.433 . S
C1326 C1322 1.350 . S
C1326 C1323 1.463 . S
C1326 N1330 1.427 . S
C1327 H1317 0.929 . S
C1327 C1325 1.433 . S
C1327 N1330 1.384 . S
C1328 H1319 0.929 . S
C1328 C1320 1.378 . S
C1328 C1323 1.350 . S
C1329 H1316 0.929 . S
C1329 C1321 1.433 . S
C1329 N1331 1.384 . S
N1330 C1326 1.427 . S
N1330 C1327 1.384 . S
N1331 C1323 1.427 . S
N1331 C1329 1.384 . S
H1332 C1338 0.930 . S
H1333 C1342 0.930 . S
H1334 C1347 0.929 . S
H1335 C1345 0.929 . S
H1336 C1340 0.929 . S
H1337 C1346 0.929 . S
C1338 H1332 0.930 . S
C1338 C1339 1.367 . S
C1338 C1346 1.378 . S
C1339 C1338 1.367 . S
C1339 C1347 1.433 . S
C1340 H1336 0.929 . S
C1340 C1342 1.378 . S
C1340 C1344 1.350 . S
C1341 C1344 1.463 . S
C1341 C1346 1.350 . S
C1341 N1349 1.427 . S
C1342 H1333 0.930 . S
C1342 C1340 1.378 . S
C1342 C1343 1.367 . S
C1343 C1342 1.367 . S
C1343 C1345 1.433 . S
C1344 C1340 1.350 . S
C1344 C1341 1.463 . S
C1344 N1348 1.427 . S
C1345 H1335 0.929 . S
C1345 C1343 1.433 . S
C1345 N1348 1.384 . S
C1346 H1337 0.929 . S
C1346 C1338 1.378 . S
C1346 C1341 1.350 . S
C1347 H1334 0.929 . S
C1347 C1339 1.433 . S
C1347 N1349 1.384 . S
N1348 C1344 1.427 . S
N1348 C1345 1.384 . S
N1349 C1341 1.427 . S
N1349 C1347 1.384 . S
H1350 C1356 0.930 . S
H1351 C1360 0.930 . S
H1352 C1365 0.929 . S
H1353 C1363 0.929 . S
H1354 C1358 0.929 . S
H1355 C1364 0.929 . S
C1356 H1350 0.930 . S
C1356 C1357 1.367 . S
C1356 C1364 1.378 . S
C1357 C1356 1.367 . S
C1357 C1365 1.433 . S
C1358 H1354 0.929 . S
C1358 C1360 1.378 . S
C1358 C1362 1.350 . S
C1359 C1362 1.463 . S
C1359 C1364 1.350 . S
C1359 N1367 1.427 . S
C1360 H1351 0.930 . S
C1360 C1358 1.378 . S
C1360 C1361 1.367 . S
C1361 C1360 1.367 . S
C1361 C1363 1.433 . S
C1362 C1358 1.350 . S
C1362 C1359 1.463 . S
C1362 N1366 1.427 . S
C1363 H1353 0.929 . S
C1363 C1361 1.433 . S
C1363 N1366 1.384 . S
C1364 H1355 0.929 . S
C1364 C1356 1.378 . S
C1364 C1359 1.350 . S
C1365 H1352 0.929 . S
C1365 C1357 1.433 . S
C1365 N1367 1.384 . S
N1366 C1362 1.427 . S
N1366 C1363 1.384 . S
N1367 C1359 1.427 . S
N1367 C1365 1.384 . S
H1368 C1374 0.930 . S
H1369 C1378 0.930 . S
H1370 C1383 0.929 . S
H1371 C1381 0.929 . S
H1372 C1376 0.929 . S
H1373 C1382 0.929 . S
C1374 H1368 0.930 . S
C1374 C1375 1.367 . S
C1374 C1382 1.378 . S
C1375 C1374 1.367 . S
C1375 C1383 1.433 . S
C1376 H1372 0.929 . S
C1376 C1378 1.378 . S
C1376 C1380 1.350 . S
C1377 C1380 1.463 . S
C1377 C1382 1.350 . S
C1377 N1385 1.427 . S
C1378 H1369 0.930 . S
C1378 C1376 1.378 . S
C1378 C1379 1.367 . S
C1379 C1378 1.367 . S
C1379 C1381 1.433 . S
C1380 C1376 1.350 . S
C1380 C1377 1.463 . S
C1380 N1384 1.427 . S
C1381 H1371 0.929 . S
C1381 C1379 1.433 . S
C1381 N1384 1.384 . S
C1382 H1373 0.929 . S
C1382 C1374 1.378 . S
C1382 C1377 1.350 . S
C1383 H1370 0.929 . S
C1383 C1375 1.433 . S
C1383 N1385 1.384 . S
N1384 C1380 1.427 . S
N1384 C1381 1.384 . S
N1385 C1377 1.427 . S
N1385 C1383 1.384 . S
H1386 C1392 0.930 . S
H1387 C1396 0.930 . S
H1388 C1401 0.929 . S
H1389 C1399 0.929 . S
H1390 C1394 0.929 . S
H1391 C1400 0.929 . S
C1392 H1386 0.930 . S
C1392 C1393 1.367 1_565 S
C1392 C1400 1.378 . S
C1393 C1392 1.367 1_545 S
C1393 C1401 1.433 . S
C1394 H1390 0.929 . S
C1394 C1396 1.378 . S
C1394 C1398 1.350 . S
C1395 C1398 1.463 . S
C1395 C1400 1.350 . S
C1395 N1403 1.427 1_565 S
C1396 H1387 0.930 . S
C1396 C1394 1.378 . S
C1396 C1397 1.367 . S
C1397 C1396 1.367 . S
C1397 C1399 1.433 . S
C1398 C1394 1.350 . S
C1398 C1395 1.463 . S
C1398 N1402 1.427 . S
C1399 H1389 0.929 . S
C1399 C1397 1.433 . S
C1399 N1402 1.384 . S
C1400 H1391 0.929 . S
C1400 C1392 1.378 . S
C1400 C1395 1.350 . S
C1401 H1388 0.929 . S
C1401 C1393 1.433 . S
C1401 N1403 1.384 . S
N1402 C1398 1.427 . S
N1402 C1399 1.384 . S
N1403 C1395 1.427 1_545 S
N1403 C1401 1.384 . S
H1404 C1410 0.930 . S
H1405 C1414 0.930 . S
H1406 C1419 0.929 . S
H1407 C1417 0.929 . S
H1408 C1412 0.929 . S
H1409 C1418 0.929 . S
C1410 H1404 0.930 . S
C1410 C1411 1.367 . S
C1410 C1418 1.378 . S
C1411 C1410 1.367 . S
C1411 C1419 1.433 . S
C1412 H1408 0.929 . S
C1412 C1414 1.378 . S
C1412 C1416 1.350 1_655 S
C1413 C1416 1.463 . S
C1413 C1418 1.350 . S
C1413 N1421 1.427 . S
C1414 H1405 0.930 . S
C1414 C1412 1.378 . S
C1414 C1415 1.367 . S
C1415 C1414 1.367 . S
C1415 C1417 1.433 1_655 S
C1416 C1412 1.350 1_455 S
C1416 C1413 1.463 . S
C1416 N1420 1.427 . S
C1417 H1407 0.929 . S
C1417 C1415 1.433 1_455 S
C1417 N1420 1.384 . S
C1418 H1409 0.929 . S
C1418 C1410 1.378 . S
C1418 C1413 1.350 . S
C1419 H1406 0.929 . S
C1419 C1411 1.433 . S
C1419 N1421 1.384 . S
N1420 C1416 1.427 . S
N1420 C1417 1.384 . S
N1421 C1413 1.427 . S
N1421 C1419 1.384 . S
H1422 C1428 0.930 . S
H1423 C1432 0.930 . S
H1424 C1437 0.929 . S
H1425 C1435 0.929 . S
H1426 C1430 0.929 . S
H1427 C1436 0.929 . S
C1428 H1422 0.930 . S
C1428 C1429 1.367 . S
C1428 C1436 1.378 . S
C1429 C1428 1.367 . S
C1429 C1437 1.433 . S
C1430 H1426 0.929 . S
C1430 C1432 1.378 . S
C1430 C1434 1.350 . S
C1431 C1434 1.463 . S
C1431 C1436 1.350 . S
C1431 N1439 1.427 . S
C1432 H1423 0.930 . S
C1432 C1430 1.378 . S
C1432 C1433 1.367 . S
C1433 C1432 1.367 . S
C1433 C1435 1.433 . S
C1434 C1430 1.350 . S
C1434 C1431 1.463 . S
C1434 N1438 1.427 . S
C1435 H1425 0.929 . S
C1435 C1433 1.433 . S
C1435 N1438 1.384 . S
C1436 H1427 0.929 . S
C1436 C1428 1.378 . S
C1436 C1431 1.350 . S
C1437 H1424 0.929 . S
C1437 C1429 1.433 . S
C1437 N1439 1.384 . S
N1438 C1434 1.427 . S
N1438 C1435 1.384 . S
N1439 C1431 1.427 . S
N1439 C1437 1.384 . S
H1440 C1446 0.930 . S
H1441 C1450 0.930 . S
H1442 C1455 0.929 . S
H1443 C1453 0.929 . S
H1444 C1448 0.931 . S
H1445 C1454 0.929 . S
C1446 H1440 0.930 . S
C1446 C1447 1.367 1_545 S
C1446 C1454 1.378 . S
C1447 C1446 1.367 1_565 S
C1447 C1455 1.433 . S
C1448 H1444 0.931 . S
C1448 C1450 1.378 . S
C1448 C1452 1.350 . S
C1449 C1452 1.463 . S
C1449 C1454 1.350 . S
C1449 N1457 1.427 1_545 S
C1450 H1441 0.930 . S
C1450 C1448 1.378 . S
C1450 C1451 1.367 . S
C1451 C1450 1.367 . S
C1451 C1453 1.433 . S
C1452 C1448 1.350 . S
C1452 C1449 1.463 . S
C1452 N1456 1.427 . S
C1453 H1443 0.929 . S
C1453 C1451 1.433 . S
C1453 N1456 1.384 . S
C1454 H1445 0.929 . S
C1454 C1446 1.378 . S
C1454 C1449 1.350 . S
C1455 H1442 0.929 . S
C1455 C1447 1.433 . S
C1455 N1457 1.384 . S
N1456 C1452 1.427 . S
N1456 C1453 1.384 . S
N1457 C1449 1.427 1_565 S
N1457 C1455 1.384 . S
H1458 C1464 0.930 . S
H1459 C1468 0.930 . S
H1460 C1473 0.929 . S
H1461 C1471 0.929 . S
H1462 C1466 0.929 . S
H1463 C1472 0.929 . S
C1464 H1458 0.930 . S
C1464 C1465 1.367 . S
C1464 C1472 1.378 . S
C1465 C1464 1.367 . S
C1465 C1473 1.433 . S
C1466 H1462 0.929 . S
C1466 C1468 1.378 1_655 S
C1466 C1470 1.350 . S
C1467 C1470 1.463 . S
C1467 C1472 1.350 . S
C1467 N1475 1.427 . S
C1468 H1459 0.930 . S
C1468 C1466 1.378 1_455 S
C1468 C1469 1.367 . S
C1469 C1468 1.367 . S
C1469 C1471 1.433 . S
C1470 C1466 1.350 . S
C1470 C1467 1.463 . S
C1470 N1474 1.427 . S
C1471 H1461 0.929 . S
C1471 C1469 1.433 . S
C1471 N1474 1.384 1_455 S
C1472 H1463 0.929 . S
C1472 C1464 1.378 . S
C1472 C1467 1.350 . S
C1473 H1460 0.929 . S
C1473 C1465 1.433 . S
C1473 N1475 1.384 . S
N1474 C1470 1.427 . S
N1474 C1471 1.384 1_655 S
N1475 C1467 1.427 . S
N1475 C1473 1.384 . S
H1476 C1482 0.930 . S
H1477 C1486 0.930 . S
H1478 C1491 0.929 . S
H1479 C1489 0.929 . S
H1480 C1484 0.929 . S
H1481 C1490 0.929 . S
C1482 H1476 0.930 . S
C1482 C1483 1.367 . S
C1482 C1490 1.378 . S
C1483 C1482 1.367 . S
C1483 C1491 1.433 . S
C1484 H1480 0.929 . S
C1484 C1486 1.378 . S
C1484 C1488 1.350 . S
C1485 C1488 1.463 . S
C1485 C1490 1.350 . S
C1485 N1493 1.427 . S
C1486 H1477 0.930 . S
C1486 C1484 1.378 . S
C1486 C1487 1.367 . S
C1487 C1486 1.367 . S
C1487 C1489 1.433 . S
C1488 C1484 1.350 . S
C1488 C1485 1.463 . S
C1488 N1492 1.427 . S
C1489 H1479 0.929 . S
C1489 C1487 1.433 . S
C1489 N1492 1.384 . S
C1490 H1481 0.929 . S
C1490 C1482 1.378 . S
C1490 C1485 1.350 . S
C1491 H1478 0.929 . S
C1491 C1483 1.433 . S
C1491 N1493 1.384 . S
N1492 C1488 1.427 . S
N1492 C1489 1.384 . S
N1493 C1485 1.427 . S
N1493 C1491 1.384 . S
H1494 C1500 0.930 . S
H1495 C1504 0.930 . S
H1496 C1509 0.929 . S
H1497 C1507 0.929 . S
H1498 C1502 0.929 . S
H1499 C1508 0.929 . S
C1500 H1494 0.930 . S
C1500 C1501 1.367 . S
C1500 C1508 1.378 . S
C1501 C1500 1.367 . S
C1501 C1509 1.433 . S
C1502 H1498 0.929 . S
C1502 C1504 1.378 . S
C1502 C1506 1.350 1_565 S
C1503 C1506 1.463 . S
C1503 C1508 1.350 . S
C1503 N1511 1.427 . S
C1504 H1495 0.930 . S
C1504 C1502 1.378 . S
C1504 C1505 1.367 . S
C1505 C1504 1.367 . S
C1505 C1507 1.433 . S
C1506 C1502 1.350 1_545 S
C1506 C1503 1.463 . S
C1506 N1510 1.427 . S
C1507 H1497 0.929 . S
C1507 C1505 1.433 . S
C1507 N1510 1.384 1_565 S
C1508 H1499 0.929 . S
C1508 C1500 1.378 . S
C1508 C1503 1.350 . S
C1509 H1496 0.929 . S
C1509 C1501 1.433 . S
C1509 N1511 1.384 . S
N1510 C1506 1.427 . S
N1510 C1507 1.384 1_545 S
N1511 C1503 1.427 . S
N1511 C1509 1.384 . S
H1512 C1518 0.930 . S
H1513 C1522 0.930 . S
H1514 C1527 0.929 . S
H1515 C1525 0.929 . S
H1516 C1520 0.929 . S
H1517 C1526 0.929 . S
C1518 H1512 0.930 . S
C1518 C1519 1.367 . S
C1518 C1526 1.378 . S
C1519 C1518 1.367 . S
C1519 C1527 1.433 . S
C1520 H1516 0.929 . S
C1520 C1522 1.378 . S
C1520 C1524 1.350 . S
C1521 C1524 1.463 . S
C1521 C1526 1.350 . S
C1521 N1529 1.427 . S
C1522 H1513 0.930 . S
C1522 C1520 1.378 . S
C1522 C1523 1.367 1_655 S
C1523 C1522 1.367 1_455 S
C1523 C1525 1.433 . S
C1524 C1520 1.350 . S
C1524 C1521 1.463 . S
C1524 N1528 1.427 1_655 S
C1525 H1515 0.929 . S
C1525 C1523 1.433 . S
C1525 N1528 1.384 . S
C1526 H1517 0.929 . S
C1526 C1518 1.378 . S
C1526 C1521 1.350 . S
C1527 H1514 0.929 . S
C1527 C1519 1.433 . S
C1527 N1529 1.384 . S
N1528 C1524 1.427 1_455 S
N1528 C1525 1.384 . S
N1529 C1521 1.427 . S
N1529 C1527 1.384 . S
H1530 C1536 0.930 . S
H1531 C1540 0.930 . S
H1532 C1545 0.929 . S
H1533 C1543 0.929 . S
H1534 C1538 0.929 . S
H1535 C1544 0.929 . S
C1536 H1530 0.930 . S
C1536 C1537 1.367 . S
C1536 C1544 1.378 . S
C1537 C1536 1.367 . S
C1537 C1545 1.433 . S
C1538 H1534 0.929 . S
C1538 C1540 1.378 . S
C1538 C1542 1.350 . S
C1539 C1542 1.463 . S
C1539 C1544 1.350 . S
C1539 N1547 1.427 . S
C1540 H1531 0.930 . S
C1540 C1538 1.378 . S
C1540 C1541 1.367 . S
C1541 C1540 1.367 . S
C1541 C1543 1.433 . S
C1542 C1538 1.350 . S
C1542 C1539 1.463 . S
C1542 N1546 1.427 . S
C1543 H1533 0.929 . S
C1543 C1541 1.433 . S
C1543 N1546 1.384 . S
C1544 H1535 0.929 . S
C1544 C1536 1.378 . S
C1544 C1539 1.350 . S
C1545 H1532 0.929 . S
C1545 C1537 1.433 . S
C1545 N1547 1.384 . S
N1546 C1542 1.427 . S
N1546 C1543 1.384 . S
N1547 C1539 1.427 . S
N1547 C1545 1.384 . S
H1548 C1554 0.930 . S
H1549 C1558 0.930 . S
H1550 C1563 0.929 . S
H1551 C1561 0.929 . S
H1552 C1556 0.929 . S
H1553 C1562 0.929 . S
C1554 H1548 0.930 . S
C1554 C1555 1.367 . S
C1554 C1562 1.378 . S
C1555 C1554 1.367 . S
C1555 C1563 1.433 1_545 S
C1556 H1552 0.929 . S
C1556 C1558 1.378 . S
C1556 C1560 1.350 . S
C1557 C1560 1.463 . S
C1557 C1562 1.350 1_565 S
C1557 N1565 1.427 . S
C1558 H1549 0.930 . S
C1558 C1556 1.378 . S
C1558 C1559 1.367 . S
C1559 C1558 1.367 . S
C1559 C1561 1.433 . S
C1560 C1556 1.350 . S
C1560 C1557 1.463 . S
C1560 N1564 1.427 . S
C1561 H1551 0.929 . S
C1561 C1559 1.433 . S
C1561 N1564 1.384 . S
C1562 H1553 0.929 . S
C1562 C1554 1.378 . S
C1562 C1557 1.350 1_545 S
C1563 H1550 0.929 . S
C1563 C1555 1.433 1_565 S
C1563 N1565 1.384 . S
N1564 C1560 1.427 . S
N1564 C1561 1.384 . S
N1565 C1557 1.427 . S
N1565 C1563 1.384 . S
H1566 C1572 0.930 . S
H1567 C1576 0.930 . S
H1568 C1581 0.929 . S
H1569 C1579 0.929 . S
H1570 C1574 0.929 . S
H1571 C1580 0.929 . S
C1572 H1566 0.930 . S
C1572 C1573 1.367 1_455 S
C1572 C1580 1.378 . S
C1573 C1572 1.367 1_655 S
C1573 C1581 1.433 . S
C1574 H1570 0.929 . S
C1574 C1576 1.378 . S
C1574 C1578 1.350 . S
C1575 C1578 1.463 . S
C1575 C1580 1.350 . S
C1575 N1583 1.427 1_455 S
C1576 H1567 0.930 . S
C1576 C1574 1.378 . S
C1576 C1577 1.367 . S
C1577 C1576 1.367 . S
C1577 C1579 1.433 . S
C1578 C1574 1.350 . S
C1578 C1575 1.463 . S
C1578 N1582 1.427 . S
C1579 H1569 0.929 . S
C1579 C1577 1.433 . S
C1579 N1582 1.384 . S
C1580 H1571 0.929 . S
C1580 C1572 1.378 . S
C1580 C1575 1.350 . S
C1581 H1568 0.929 . S
C1581 C1573 1.433 . S
C1581 N1583 1.384 . S
N1582 C1578 1.427 . S
N1582 C1579 1.384 . S
N1583 C1575 1.427 1_655 S
N1583 C1581 1.384 . S
H1584 C1590 0.930 . S
H1585 C1594 0.930 . S
H1586 C1599 0.929 . S
H1587 C1597 0.929 . S
H1588 C1592 0.929 . S
H1589 C1598 0.929 . S
C1590 H1584 0.930 . S
C1590 C1591 1.367 . S
C1590 C1598 1.378 . S
C1591 C1590 1.367 . S
C1591 C1599 1.433 . S
C1592 H1588 0.929 . S
C1592 C1594 1.378 . S
C1592 C1596 1.350 . S
C1593 C1596 1.464 . S
C1593 C1598 1.349 1_455 S
C1593 N1601 1.427 1_455 S
C1594 H1585 0.930 . S
C1594 C1592 1.378 . S
C1594 C1595 1.367 . S
C1595 C1594 1.367 . S
C1595 C1597 1.433 . S
C1596 C1592 1.350 . S
C1596 C1593 1.464 . S
C1596 N1600 1.427 . S
C1597 H1587 0.929 . S
C1597 C1595 1.433 . S
C1597 N1600 1.384 . S
C1598 H1589 0.929 . S
C1598 C1590 1.378 . S
C1598 C1593 1.349 1_655 S
C1599 H1586 0.929 . S
C1599 C1591 1.433 . S
C1599 N1601 1.384 . S
N1600 C1596 1.427 . S
N1600 C1597 1.384 . S
N1601 C1593 1.427 1_655 S
N1601 C1599 1.384 . S
H1602 C1608 0.930 . S
H1603 C1612 0.930 . S
H1604 C1617 0.929 . S
H1605 C1615 0.929 . S
H1606 C1610 0.929 . S
H1607 C1616 0.929 . S
C1608 H1602 0.930 . S
C1608 C1609 1.367 . S
C1608 C1616 1.378 . S
C1609 C1608 1.367 . S
C1609 C1617 1.433 . S
C1610 H1606 0.929 . S
C1610 C1612 1.378 . S
C1610 C1614 1.350 . S
C1611 C1614 1.463 . S
C1611 C1616 1.350 . S
C1611 N1619 1.427 . S
C1612 H1603 0.930 . S
C1612 C1610 1.378 . S
C1612 C1613 1.367 . S
C1613 C1612 1.367 . S
C1613 C1615 1.433 . S
C1614 C1610 1.350 . S
C1614 C1611 1.463 . S
C1614 N1618 1.427 . S
C1615 H1605 0.929 . S
C1615 C1613 1.433 . S
C1615 N1618 1.384 . S
C1616 H1607 0.929 . S
C1616 C1608 1.378 . S
C1616 C1611 1.350 . S
C1617 H1604 0.929 . S
C1617 C1609 1.433 . S
C1617 N1619 1.384 . S
N1618 C1614 1.427 . S
N1618 C1615 1.384 . S
N1619 C1611 1.427 . S
N1619 C1617 1.384 . S
H1620 C1626 0.930 . S
H1621 C1630 0.930 . S
H1622 C1635 0.929 . S
H1623 C1633 0.929 . S
H1624 C1628 0.929 . S
H1625 C1634 0.929 . S
C1626 H1620 0.930 . S
C1626 C1627 1.367 . S
C1626 C1634 1.378 . S
C1627 C1626 1.367 . S
C1627 C1635 1.433 . S
C1628 H1624 0.929 . S
C1628 C1630 1.378 . S
C1628 C1632 1.351 1_545 S
C1629 C1632 1.461 . S
C1629 C1634 1.350 . S
C1629 N1637 1.427 . S
C1630 H1621 0.930 . S
C1630 C1628 1.378 . S
C1630 C1631 1.367 . S
C1631 C1630 1.367 . S
C1631 C1633 1.433 . S
C1632 C1628 1.351 1_565 S
C1632 C1629 1.461 . S
C1632 N1636 1.427 1_565 S
C1633 H1623 0.929 . S
C1633 C1631 1.433 . S
C1633 N1636 1.384 . S
C1634 H1625 0.929 . S
C1634 C1626 1.378 . S
C1634 C1629 1.350 . S
C1635 H1622 0.929 . S
C1635 C1627 1.433 . S
C1635 N1637 1.384 . S
N1636 C1632 1.427 1_545 S
N1636 C1633 1.384 . S
N1637 C1629 1.427 . S
N1637 C1635 1.384 . S
H1638 C1644 0.930 . S
H1639 C1648 0.930 . S
H1640 C1653 0.929 . S
H1641 C1651 0.929 . S
H1642 C1646 0.929 . S
H1643 C1652 0.929 . S
C1644 H1638 0.930 . S
C1644 C1645 1.367 . S
C1644 C1652 1.378 . S
C1645 C1644 1.367 . S
C1645 C1653 1.433 . S
C1646 H1642 0.929 . S
C1646 C1648 1.378 . S
C1646 C1650 1.350 . S
C1647 C1650 1.463 . S
C1647 C1652 1.350 . S
C1647 N1655 1.427 . S
C1648 H1639 0.930 . S
C1648 C1646 1.378 . S
C1648 C1649 1.367 . S
C1649 C1648 1.367 . S
C1649 C1651 1.433 1_455 S
C1650 C1646 1.350 . S
C1650 C1647 1.463 . S
C1650 N1654 1.427 . S
C1651 H1641 0.929 . S
C1651 C1649 1.433 1_655 S
C1651 N1654 1.384 1_655 S
C1652 H1643 0.929 . S
C1652 C1644 1.378 . S
C1652 C1647 1.350 . S
C1653 H1640 0.929 . S
C1653 C1645 1.433 . S
C1653 N1655 1.384 . S
N1654 C1650 1.427 . S
N1654 C1651 1.384 1_455 S
N1655 C1647 1.427 . S
N1655 C1653 1.384 . S
H1656 C1662 0.930 . S
H1657 C1666 0.930 . S
H1658 C1671 0.929 . S
H1659 C1669 0.929 . S
H1660 C1664 0.929 . S
H1661 C1670 0.929 . S
C1662 H1656 0.930 . S
C1662 C1663 1.367 . S
C1662 C1670 1.378 . S
C1663 C1662 1.367 . S
C1663 C1671 1.433 . S
C1664 H1660 0.929 . S
C1664 C1666 1.378 . S
C1664 C1668 1.350 . S
C1665 C1668 1.463 . S
C1665 C1670 1.350 . S
C1665 N1673 1.427 . S
C1666 H1657 0.930 . S
C1666 C1664 1.378 . S
C1666 C1667 1.367 . S
C1667 C1666 1.367 . S
C1667 C1669 1.433 . S
C1668 C1664 1.350 . S
C1668 C1665 1.463 . S
C1668 N1672 1.427 . S
C1669 H1659 0.929 . S
C1669 C1667 1.433 . S
C1669 N1672 1.384 . S
C1670 H1661 0.929 . S
C1670 C1662 1.378 . S
C1670 C1665 1.350 . S
C1671 H1658 0.929 . S
C1671 C1663 1.433 . S
C1671 N1673 1.384 . S
N1672 C1668 1.427 . S
N1672 C1669 1.384 . S
N1673 C1665 1.427 . S
N1673 C1671 1.384 . S
H1674 C1680 0.930 . S
H1675 C1684 0.930 . S
H1676 C1689 0.929 . S
H1677 C1687 0.929 . S
H1678 C1682 0.929 1_545 S
H1679 C1688 0.929 . S
C1680 H1674 0.930 . S
C1680 C1681 1.367 . S
C1680 C1688 1.378 . S
C1681 C1680 1.367 . S
C1681 C1689 1.433 . S
C1682 H1678 0.929 1_565 S
C1682 C1684 1.378 1_565 S
C1682 C1686 1.350 . S
C1683 C1686 1.463 . S
C1683 C1688 1.350 . S
C1683 N1691 1.427 . S
C1684 H1675 0.930 . S
C1684 C1682 1.378 1_545 S
C1684 C1685 1.367 1_545 S
C1685 C1684 1.367 1_565 S
C1685 C1687 1.433 . S
C1686 C1682 1.350 . S
C1686 C1683 1.463 . S
C1686 N1690 1.427 . S
C1687 H1677 0.929 . S
C1687 C1685 1.433 . S
C1687 N1690 1.384 . S
C1688 H1679 0.929 . S
C1688 C1680 1.378 . S
C1688 C1683 1.350 . S
C1689 H1676 0.929 . S
C1689 C1681 1.433 . S
C1689 N1691 1.384 . S
N1690 C1686 1.427 . S
N1690 C1687 1.384 . S
N1691 C1683 1.427 . S
N1691 C1689 1.384 . S
H1692 C1698 0.930 . S
H1693 C1702 0.930 . S
H1694 C1707 0.929 . S
H1695 C1705 0.929 1_545 S
H1696 C1700 0.929 . S
H1697 C1706 0.929 . S
C1698 H1692 0.930 . S
C1698 C1699 1.367 . S
C1698 C1706 1.378 . S
C1699 C1698 1.367 . S
C1699 C1707 1.433 . S
C1700 H1696 0.929 . S
C1700 C1702 1.378 . S
C1700 C1704 1.350 . S
C1701 C1704 1.463 . S
C1701 C1706 1.350 . S
C1701 N1709 1.427 . S
C1702 H1693 0.930 . S
C1702 C1700 1.378 . S
C1702 C1703 1.367 . S
C1703 C1702 1.367 . S
C1703 C1705 1.433 . S
C1704 C1700 1.350 . S
C1704 C1701 1.463 . S
C1704 N1708 1.427 . S
C1705 H1695 0.929 1_565 S
C1705 C1703 1.433 . S
C1705 N1708 1.384 . S
C1706 H1697 0.929 . S
C1706 C1698 1.378 . S
C1706 C1701 1.350 . S
C1707 H1694 0.929 . S
C1707 C1699 1.433 . S
C1707 N1709 1.384 . S
N1708 C1704 1.427 . S
N1708 C1705 1.384 . S
N1709 C1701 1.427 . S
N1709 C1707 1.384 . S
H1710 C1716 0.930 . S
H1711 C1720 0.930 . S
H1712 C1725 0.929 . S
H1713 C1723 0.929 . S
H1714 C1718 0.929 . S
H1715 C1724 0.929 . S
C1716 H1710 0.930 . S
C1716 C1717 1.367 . S
C1716 C1724 1.378 . S
C1717 C1716 1.367 . S
C1717 C1725 1.433 . S
C1718 H1714 0.929 . S
C1718 C1720 1.378 . S
C1718 C1722 1.350 . S
C1719 C1722 1.463 . S
C1719 C1724 1.350 . S
C1719 N1727 1.427 . S
C1720 H1711 0.930 . S
C1720 C1718 1.378 . S
C1720 C1721 1.367 . S
C1721 C1720 1.367 . S
C1721 C1723 1.433 . S
C1722 C1718 1.350 . S
C1722 C1719 1.463 . S
C1722 N1726 1.427 . S
C1723 H1713 0.929 . S
C1723 C1721 1.433 . S
C1723 N1726 1.384 . S
C1724 H1715 0.929 . S
C1724 C1716 1.378 . S
C1724 C1719 1.350 . S
C1725 H1712 0.929 . S
C1725 C1717 1.433 . S
C1725 N1727 1.384 . S
N1726 C1722 1.427 . S
N1726 C1723 1.384 . S
N1727 C1719 1.427 . S
N1727 C1725 1.384 . S
H1728 C1734 0.930 . S
H1729 C1738 0.930 . S
H1730 C1743 0.929 . S
H1731 C1741 0.929 . S
H1732 C1736 0.929 . S
H1733 C1742 0.929 . S
C1734 H1728 0.930 . S
C1734 C1735 1.367 . S
C1734 C1742 1.378 . S
C1735 C1734 1.367 . S
C1735 C1743 1.433 . S
C1736 H1732 0.929 . S
C1736 C1738 1.378 . S
C1736 C1740 1.350 . S
C1737 C1740 1.463 . S
C1737 C1742 1.350 . S
C1737 N1745 1.427 . S
C1738 H1729 0.930 . S
C1738 C1736 1.378 . S
C1738 C1739 1.367 . S
C1739 C1738 1.367 . S
C1739 C1741 1.433 . S
C1740 C1736 1.350 . S
C1740 C1737 1.463 . S
C1740 N1744 1.427 . S
C1741 H1731 0.929 . S
C1741 C1739 1.433 . S
C1741 N1744 1.384 . S
C1742 H1733 0.929 . S
C1742 C1734 1.378 . S
C1742 C1737 1.350 . S
C1743 H1730 0.929 . S
C1743 C1735 1.433 . S
C1743 N1745 1.384 . S
N1744 C1740 1.427 . S
N1744 C1741 1.384 . S
N1745 C1737 1.427 . S
N1745 C1743 1.384 . S
H1746 C1752 0.930 . S
H1747 C1756 0.930 . S
H1748 C1761 0.929 . S
H1749 C1759 0.929 . S
H1750 C1754 0.928 . S
H1751 C1760 0.928 . S
C1752 H1746 0.930 . S
C1752 C1753 1.367 . S
C1752 C1760 1.383 . S
C1753 C1752 1.367 . S
C1753 C1761 1.433 . S
C1754 H1750 0.928 . S
C1754 C1756 1.383 . S
C1754 C1758 1.349 . S
C1755 C1758 1.461 1_564 S
C1755 C1760 1.349 . S
C1755 N1763 1.427 . S
C1756 H1747 0.930 . S
C1756 C1754 1.383 . S
C1756 C1757 1.367 . S
C1757 C1756 1.367 . S
C1757 C1759 1.433 . S
C1758 C1754 1.349 . S
C1758 C1755 1.461 1_546 S
C1758 N1762 1.427 . S
C1759 H1749 0.929 . S
C1759 C1757 1.433 . S
C1759 N1762 1.386 . S
C1760 H1751 0.928 . S
C1760 C1752 1.383 . S
C1760 C1755 1.349 . S
C1761 H1748 0.929 . S
C1761 C1753 1.433 . S
C1761 N1763 1.386 . S
N1762 C1758 1.427 . S
N1762 C1759 1.386 . S
N1763 C1755 1.427 . S
N1763 C1761 1.386 . S
H1764 C1770 0.930 . S
H1765 C1774 0.930 . S
H1766 C1779 0.929 . S
H1767 C1777 0.929 . S
H1768 C1772 0.929 . S
H1769 C1778 0.929 . S
C1770 H1764 0.930 . S
C1770 C1771 1.367 1_556 S
C1770 C1778 1.378 . S
C1771 C1770 1.367 1_554 S
C1771 C1779 1.433 . S
C1772 H1768 0.929 . S
C1772 C1774 1.378 . S
C1772 C1776 1.348 1_554 S
C1773 C1776 1.462 1_454 S
C1773 C1778 1.351 1_554 S
C1773 N1781 1.426 . S
C1774 H1765 0.930 . S
C1774 C1772 1.378 . S
C1774 C1775 1.367 1_554 S
C1775 C1774 1.367 1_556 S
C1775 C1777 1.433 . S
C1776 C1772 1.348 1_556 S
C1776 C1773 1.462 1_656 S
C1776 N1780 1.430 . S
C1777 H1767 0.929 . S
C1777 C1775 1.433 . S
C1777 N1780 1.384 . S
C1778 H1769 0.929 . S
C1778 C1770 1.378 . S
C1778 C1773 1.351 1_556 S
C1779 H1766 0.929 . S
C1779 C1771 1.433 . S
C1779 N1781 1.384 . S
N1780 C1776 1.430 . S
N1780 C1777 1.384 . S
N1781 C1773 1.426 . S
N1781 C1779 1.384 . S
H1782 C1788 0.930 . S
H1783 C1792 0.930 . S
H1784 C1797 0.929 . S
H1785 C1795 0.929 . S
H1786 C1790 0.929 . S
H1787 C1796 0.929 . S
C1788 H1782 0.930 . S
C1788 C1789 1.367 . S
C1788 C1796 1.378 . S
C1789 C1788 1.367 . S
C1789 C1797 1.433 1_556 S
C1790 H1786 0.929 . S
C1790 C1792 1.378 . S
C1790 C1794 1.352 . S
C1791 C1794 1.460 1_556 S
C1791 C1796 1.365 . S
C1791 N1799 1.417 1_556 S
C1792 H1783 0.930 . S
C1792 C1790 1.378 . S
C1792 C1793 1.367 . S
C1793 C1792 1.367 . S
C1793 C1795 1.433 1_554 S
C1794 C1790 1.352 . S
C1794 C1791 1.460 1_554 S
C1794 N1798 1.426 1_554 S
C1795 H1785 0.929 . S
C1795 C1793 1.433 1_556 S
C1795 N1798 1.384 . S
C1796 H1787 0.929 . S
C1796 C1788 1.378 . S
C1796 C1791 1.365 . S
C1797 H1784 0.929 . S
C1797 C1789 1.433 1_554 S
C1797 N1799 1.384 . S
N1798 C1794 1.426 1_556 S
N1798 C1795 1.384 . S
N1799 C1791 1.417 1_554 S
N1799 C1797 1.384 . S
H1800 C1806 0.930 . S
H1801 C1810 0.930 . S
H1802 C1815 0.929 . S
H1803 C1813 0.929 . S
H1804 C1808 0.929 1_565 S
H1805 C1814 0.929 . S
C1806 H1800 0.930 . S
C1806 C1807 1.367 . S
C1806 C1814 1.378 . S
C1807 C1806 1.367 . S
C1807 C1815 1.433 . S
C1808 H1804 0.929 1_545 S
C1808 C1810 1.378 1_545 S
C1808 C1812 1.350 . S
C1809 C1812 1.463 . S
C1809 C1814 1.350 . S
C1809 N1817 1.427 . S
C1810 H1801 0.930 . S
C1810 C1808 1.378 1_565 S
C1810 C1811 1.367 1_565 S
C1811 C1810 1.367 1_545 S
C1811 C1813 1.433 . S
C1812 C1808 1.350 . S
C1812 C1809 1.463 . S
C1812 N1816 1.427 . S
C1813 H1803 0.929 . S
C1813 C1811 1.433 . S
C1813 N1816 1.384 . S
C1814 H1805 0.929 . S
C1814 C1806 1.378 . S
C1814 C1809 1.350 . S
C1815 H1802 0.929 . S
C1815 C1807 1.433 . S
C1815 N1817 1.384 . S
N1816 C1812 1.427 . S
N1816 C1813 1.384 . S
N1817 C1809 1.427 . S
N1817 C1815 1.384 . S
H1818 C1824 0.930 . S
H1819 C1828 0.930 . S
H1820 C1833 0.929 . S
H1821 C1831 0.929 1_455 S
H1822 C1826 0.929 . S
H1823 C1832 0.929 . S
C1824 H1818 0.930 . S
C1824 C1825 1.367 . S
C1824 C1832 1.378 . S
C1825 C1824 1.367 . S
C1825 C1833 1.433 . S
C1826 H1822 0.929 . S
C1826 C1828 1.378 . S
C1826 C1830 1.350 . S
C1827 C1830 1.463 . S
C1827 C1832 1.350 . S
C1827 N1835 1.427 . S
C1828 H1819 0.930 . S
C1828 C1826 1.378 . S
C1828 C1829 1.367 . S
C1829 C1828 1.367 . S
C1829 C1831 1.433 . S
C1830 C1826 1.350 . S
C1830 C1827 1.463 . S
C1830 N1834 1.427 . S
C1831 H1821 0.929 1_655 S
C1831 C1829 1.433 . S
C1831 N1834 1.384 . S
C1832 H1823 0.929 . S
C1832 C1824 1.378 . S
C1832 C1827 1.350 . S
C1833 H1820 0.929 . S
C1833 C1825 1.433 . S
C1833 N1835 1.384 . S
N1834 C1830 1.427 . S
N1834 C1831 1.384 . S
N1835 C1827 1.427 . S
N1835 C1833 1.384 . S
H1836 C1842 0.930 . S
H1837 C1846 0.930 . S
H1838 C1851 0.929 . S
H1839 C1849 0.929 . S
H1840 C1844 0.929 . S
H1841 C1850 0.929 . S
C1842 H1836 0.930 . S
C1842 C1843 1.367 . S
C1842 C1850 1.378 . S
C1843 C1842 1.367 . S
C1843 C1851 1.433 . S
C1844 H1840 0.929 . S
C1844 C1846 1.378 . S
C1844 C1848 1.350 . S
C1845 C1848 1.463 . S
C1845 C1850 1.350 . S
C1845 N1853 1.427 . S
C1846 H1837 0.930 . S
C1846 C1844 1.378 . S
C1846 C1847 1.367 . S
C1847 C1846 1.367 . S
C1847 C1849 1.433 . S
C1848 C1844 1.350 . S
C1848 C1845 1.463 . S
C1848 N1852 1.427 . S
C1849 H1839 0.929 . S
C1849 C1847 1.433 . S
C1849 N1852 1.384 . S
C1850 H1841 0.929 . S
C1850 C1842 1.378 . S
C1850 C1845 1.350 . S
C1851 H1838 0.929 . S
C1851 C1843 1.433 . S
C1851 N1853 1.384 . S
N1852 C1848 1.427 . S
N1852 C1849 1.384 . S
N1853 C1845 1.427 . S
N1853 C1851 1.384 . S
H1854 C1860 0.930 . S
H1855 C1864 0.930 . S
H1856 C1869 0.929 . S
H1857 C1867 0.929 . S
H1858 C1862 0.929 . S
H1859 C1868 0.929 . S
C1860 H1854 0.930 . S
C1860 C1861 1.367 . S
C1860 C1868 1.378 . S
C1861 C1860 1.367 . S
C1861 C1869 1.433 1_554 S
C1862 H1858 0.929 . S
C1862 C1864 1.378 . S
C1862 C1866 1.376 . S
C1863 C1866 1.456 1_564 S
C1863 C1868 1.415 . S
C1863 N1871 1.367 1_554 S
C1864 H1855 0.930 . S
C1864 C1862 1.378 . S
C1864 C1865 1.367 . S
C1865 C1864 1.367 . S
C1865 C1867 1.433 1_556 S
C1866 C1862 1.376 . S
C1866 C1863 1.456 1_546 S
C1866 N1870 1.402 1_556 S
C1867 H1857 0.929 . S
C1867 C1865 1.433 1_554 S
C1867 N1870 1.384 . S
C1868 H1859 0.929 . S
C1868 C1860 1.378 . S
C1868 C1863 1.415 . S
C1869 H1856 0.929 . S
C1869 C1861 1.433 1_556 S
C1869 N1871 1.384 . S
N1870 C1866 1.402 1_554 S
N1870 C1867 1.384 . S
N1871 C1863 1.367 1_556 S
N1871 C1869 1.384 . S
H1872 C1878 0.930 . S
H1873 C1882 0.930 . S
H1874 C1887 0.929 . S
H1875 C1885 0.929 . S
H1876 C1880 0.929 . S
H1877 C1886 0.929 . S
C1878 H1872 0.930 . S
C1878 C1879 1.367 . S
C1878 C1886 1.378 . S
C1879 C1878 1.367 . S
C1879 C1887 1.433 1_556 S
C1880 H1876 0.929 . S
C1880 C1882 1.378 . S
C1880 C1884 1.399 . S
C1881 C1884 1.456 1_656 S
C1881 C1886 1.393 . S
C1881 N1889 1.387 1_556 S
C1882 H1873 0.930 . S
C1882 C1880 1.378 . S
C1882 C1883 1.367 . S
C1883 C1882 1.367 . S
C1883 C1885 1.433 1_554 S
C1884 C1880 1.399 . S
C1884 C1881 1.456 1_454 S
C1884 N1888 1.381 1_554 S
C1885 H1875 0.929 . S
C1885 C1883 1.433 1_556 S
C1885 N1888 1.384 . S
C1886 H1877 0.929 . S
C1886 C1878 1.378 . S
C1886 C1881 1.393 . S
C1887 H1874 0.929 . S
C1887 C1879 1.433 1_554 S
C1887 N1889 1.384 . S
N1888 C1884 1.381 1_556 S
N1888 C1885 1.384 . S
N1889 C1881 1.387 1_554 S
N1889 C1887 1.384 . S
H1890 C1896 0.930 . S
H1891 C1900 0.930 . S
H1892 C1905 0.929 . S
H1893 C1903 0.929 . S
H1894 C1898 0.929 . S
H1895 C1904 0.929 . S
C1896 H1890 0.930 . S
C1896 C1897 1.367 . S
C1896 C1904 1.378 . S
C1897 C1896 1.367 . S
C1897 C1905 1.433 1_554 S
C1898 H1894 0.929 . S
C1898 C1900 1.378 . S
C1898 C1902 1.382 . S
C1899 C1902 1.455 1_554 S
C1899 C1904 1.424 . S
C1899 N1907 1.357 1_554 S
C1900 H1891 0.930 . S
C1900 C1898 1.378 . S
C1900 C1901 1.367 . S
C1901 C1900 1.367 . S
C1901 C1903 1.433 1_556 S
C1902 C1898 1.382 . S
C1902 C1899 1.455 1_556 S
C1902 N1906 1.397 1_556 S
C1903 H1893 0.929 . S
C1903 C1901 1.433 1_554 S
C1903 N1906 1.384 . S
C1904 H1895 0.929 . S
C1904 C1896 1.378 . S
C1904 C1899 1.424 . S
C1905 H1892 0.929 . S
C1905 C1897 1.433 1_556 S
C1905 N1907 1.384 . S
N1906 C1902 1.397 1_554 S
N1906 C1903 1.384 . S
N1907 C1899 1.357 1_556 S
N1907 C1905 1.384 . S
H1908 C1914 0.930 . S
H1909 C1918 0.930 . S
H1910 C1923 0.929 . S
H1911 C1921 0.929 . S
H1912 C1916 0.929 . S
H1913 C1922 0.929 . S
C1914 H1908 0.930 . S
C1914 C1915 1.367 . S
C1914 C1922 1.378 . S
C1915 C1914 1.367 . S
C1915 C1923 1.433 . S
C1916 H1912 0.929 . S
C1916 C1918 1.378 . S
C1916 C1920 1.350 . S
C1917 C1920 1.468 . S
C1917 C1922 1.349 1_655 S
C1917 N1925 1.423 1_655 S
C1918 H1909 0.930 . S
C1918 C1916 1.378 . S
C1918 C1919 1.367 . S
C1919 C1918 1.367 . S
C1919 C1921 1.433 . S
C1920 C1916 1.350 . S
C1920 C1917 1.468 . S
C1920 N1924 1.427 . S
C1921 H1911 0.929 . S
C1921 C1919 1.433 . S
C1921 N1924 1.384 . S
C1922 H1913 0.929 . S
C1922 C1914 1.378 . S
C1922 C1917 1.349 1_455 S
C1923 H1910 0.929 . S
C1923 C1915 1.433 . S
C1923 N1925 1.384 . S
N1924 C1920 1.427 . S
N1924 C1921 1.384 . S
N1925 C1917 1.423 1_455 S
N1925 C1923 1.384 . S
H1926 C1932 0.930 . S
H1927 C1936 0.930 . S
H1928 C1941 0.929 . S
H1929 C1939 0.929 . S
H1930 C1934 0.929 . S
H1931 C1940 0.929 . S
C1932 H1926 0.930 . S
C1932 C1933 1.367 . S
C1932 C1940 1.378 . S
C1933 C1932 1.367 . S
C1933 C1941 1.433 . S
C1934 H1930 0.929 . S
C1934 C1936 1.378 . S
C1934 C1938 1.350 . S
C1935 C1938 1.463 . S
C1935 C1940 1.350 . S
C1935 N1943 1.427 . S
C1936 H1927 0.930 . S
C1936 C1934 1.378 . S
C1936 C1937 1.367 . S
C1937 C1936 1.367 . S
C1937 C1939 1.433 . S
C1938 C1934 1.350 . S
C1938 C1935 1.463 . S
C1938 N1942 1.427 . S
C1939 H1929 0.929 . S
C1939 C1937 1.433 . S
C1939 N1942 1.384 . S
C1940 H1931 0.929 . S
C1940 C1932 1.378 . S
C1940 C1935 1.350 . S
C1941 H1928 0.929 . S
C1941 C1933 1.433 . S
C1941 N1943 1.384 . S
N1942 C1938 1.427 . S
N1942 C1939 1.384 . S
N1943 C1935 1.427 . S
N1943 C1941 1.384 . S
H1944 C1950 0.930 . S
H1945 C1954 0.930 . S
H1946 C1959 0.929 . S
H1947 C1957 0.929 . S
H1948 C1952 0.929 . S
H1949 C1958 0.929 . S
C1950 H1944 0.930 . S
C1950 C1951 1.367 . S
C1950 C1958 1.378 . S
C1951 C1950 1.367 . S
C1951 C1959 1.433 . S
C1952 H1948 0.929 . S
C1952 C1954 1.378 . S
C1952 C1956 1.350 . S
C1953 C1956 1.463 . S
C1953 C1958 1.350 1_545 S
C1953 N1961 1.427 1_545 S
C1954 H1945 0.930 . S
C1954 C1952 1.378 . S
C1954 C1955 1.367 . S
C1955 C1954 1.367 . S
C1955 C1957 1.433 . S
C1956 C1952 1.350 . S
C1956 C1953 1.463 . S
C1956 N1960 1.427 . S
C1957 H1947 0.929 . S
C1957 C1955 1.433 . S
C1957 N1960 1.384 . S
C1958 H1949 0.929 . S
C1958 C1950 1.378 . S
C1958 C1953 1.350 1_565 S
C1959 H1946 0.929 . S
C1959 C1951 1.433 . S
C1959 N1961 1.384 . S
N1960 C1956 1.427 . S
N1960 C1957 1.384 . S
N1961 C1953 1.427 1_565 S
N1961 C1959 1.384 . S
H1962 C1968 0.930 1_455 S
H1963 C1972 0.930 . S
H1964 C1977 0.929 . S
H1965 C1975 0.929 . S
H1966 C1970 0.929 . S
H1967 C1976 0.929 . S
C1968 H1962 0.930 1_655 S
C1968 C1969 1.367 . S
C1968 C1976 1.378 . S
C1969 C1968 1.367 . S
C1969 C1977 1.433 . S
C1970 H1966 0.929 . S
C1970 C1972 1.378 . S
C1970 C1974 1.350 . S
C1971 C1974 1.463 . S
C1971 C1976 1.350 . S
C1971 N1979 1.427 . S
C1972 H1963 0.930 . S
C1972 C1970 1.378 . S
C1972 C1973 1.367 . S
C1973 C1972 1.367 . S
C1973 C1975 1.433 . S
C1974 C1970 1.350 . S
C1974 C1971 1.463 . S
C1974 N1978 1.427 . S
C1975 H1965 0.929 . S
C1975 C1973 1.433 . S
C1975 N1978 1.384 . S
C1976 H1967 0.929 . S
C1976 C1968 1.378 . S
C1976 C1971 1.350 . S
C1977 H1964 0.929 . S
C1977 C1969 1.433 . S
C1977 N1979 1.384 . S
N1978 C1974 1.427 . S
N1978 C1975 1.384 . S
N1979 C1971 1.427 . S
N1979 C1977 1.384 . S
H1980 C1986 0.930 . S
H1981 C1990 0.930 . S
H1982 C1995 0.929 . S
H1983 C1993 0.929 . S
H1984 C1988 0.929 . S
H1985 C1994 0.929 . S
C1986 H1980 0.930 . S
C1986 C1987 1.367 . S
C1986 C1994 1.378 . S
C1987 C1986 1.367 . S
C1987 C1995 1.433 . S
C1988 H1984 0.929 . S
C1988 C1990 1.378 . S
C1988 C1992 1.350 . S
C1989 C1992 1.463 . S
C1989 C1994 1.350 . S
C1989 N1997 1.427 . S
C1990 H1981 0.930 . S
C1990 C1988 1.378 . S
C1990 C1991 1.367 . S
C1991 C1990 1.367 . S
C1991 C1993 1.433 . S
C1992 C1988 1.350 . S
C1992 C1989 1.463 . S
C1992 N1996 1.427 . S
C1993 H1983 0.929 . S
C1993 C1991 1.433 . S
C1993 N1996 1.384 . S
C1994 H1985 0.929 . S
C1994 C1986 1.378 . S
C1994 C1989 1.350 . S
C1995 H1982 0.929 . S
C1995 C1987 1.433 . S
C1995 N1997 1.384 . S
N1996 C1992 1.427 . S
N1996 C1993 1.384 . S
N1997 C1989 1.427 . S
N1997 C1995 1.384 . S
H1998 C2004 0.930 . S
H1999 C2008 0.930 1_565 S
H2000 C2013 0.929 . S
H2001 C2011 0.929 . S
H2002 C2006 0.929 . S
H2003 C2012 0.929 . S
C2004 H1998 0.930 . S
C2004 C2005 1.367 . S
C2004 C2012 1.378 . S
C2005 C2004 1.367 . S
C2005 C2013 1.433 . S
C2006 H2002 0.929 . S
C2006 C2008 1.378 . S
C2006 C2010 1.350 . S
C2007 C2010 1.463 . S
C2007 C2012 1.350 . S
C2007 N2015 1.427 . S
C2008 H1999 0.930 1_545 S
C2008 C2006 1.378 . S
C2008 C2009 1.367 . S
C2009 C2008 1.367 . S
C2009 C2011 1.433 . S
C2010 C2006 1.350 . S
C2010 C2007 1.463 . S
C2010 N2014 1.427 . S
C2011 H2001 0.929 . S
C2011 C2009 1.433 . S
C2011 N2014 1.384 . S
C2012 H2003 0.929 . S
C2012 C2004 1.378 . S
C2012 C2007 1.350 . S
C2013 H2000 0.929 . S
C2013 C2005 1.433 . S
C2013 N2015 1.384 . S
N2014 C2010 1.427 . S
N2014 C2011 1.384 . S
N2015 C2007 1.427 . S
N2015 C2013 1.384 . S
H2016 C2022 0.930 . S
H2017 C2026 0.930 . S
H2018 C2031 0.929 . S
H2019 C2029 0.929 . S
H2020 C2024 0.929 . S
H2021 C2030 0.929 . S
C2022 H2016 0.930 . S
C2022 C2023 1.367 . S
C2022 C2030 1.378 . S
C2023 C2022 1.367 . S
C2023 C2031 1.433 . S
C2024 H2020 0.929 . S
C2024 C2026 1.378 . S
C2024 C2028 1.350 . S
C2025 C2028 1.463 . S
C2025 C2030 1.350 . S
C2025 N2033 1.427 . S
C2026 H2017 0.930 . S
C2026 C2024 1.378 . S
C2026 C2027 1.367 . S
C2027 C2026 1.367 . S
C2027 C2029 1.433 . S
C2028 C2024 1.350 . S
C2028 C2025 1.463 . S
C2028 N2032 1.427 . S
C2029 H2019 0.929 . S
C2029 C2027 1.433 . S
C2029 N2032 1.384 . S
C2030 H2021 0.929 . S
C2030 C2022 1.378 . S
C2030 C2025 1.350 . S
C2031 H2018 0.929 . S
C2031 C2023 1.433 . S
C2031 N2033 1.384 . S
N2032 C2028 1.427 . S
N2032 C2029 1.384 . S
N2033 C2025 1.427 . S
N2033 C2031 1.384 . S
H2034 C2040 0.930 . S
H2035 C2044 0.930 . S
H2036 C2049 0.929 . S
H2037 C2047 0.929 . S
H2038 C2042 0.929 . S
H2039 C2048 0.929 . S
C2040 H2034 0.930 . S
C2040 C2041 1.367 . S
C2040 C2048 1.378 . S
C2041 C2040 1.367 . S
C2041 C2049 1.433 . S
C2042 H2038 0.929 . S
C2042 C2044 1.378 . S
C2042 C2046 1.350 . S
C2043 C2046 1.463 . S
C2043 C2048 1.350 . S
C2043 N2051 1.427 . S
C2044 H2035 0.930 . S
C2044 C2042 1.378 . S
C2044 C2045 1.367 . S
C2045 C2044 1.367 . S
C2045 C2047 1.433 . S
C2046 C2042 1.350 . S
C2046 C2043 1.463 . S
C2046 N2050 1.427 . S
C2047 H2037 0.929 . S
C2047 C2045 1.433 . S
C2047 N2050 1.384 . S
C2048 H2039 0.929 . S
C2048 C2040 1.378 . S
C2048 C2043 1.350 . S
C2049 H2036 0.929 . S
C2049 C2041 1.433 . S
C2049 N2051 1.384 . S
N2050 C2046 1.427 . S
N2050 C2047 1.384 . S
N2051 C2043 1.427 . S
N2051 C2049 1.384 . S
H2052 C2058 0.930 . S
H2053 C2062 0.930 . S
H2054 C2067 0.929 . S
H2055 C2065 0.929 . S
H2056 C2060 0.929 . S
H2057 C2066 0.929 . S
C2058 H2052 0.930 . S
C2058 C2059 1.367 . S
C2058 C2066 1.378 . S
C2059 C2058 1.367 . S
C2059 C2067 1.433 . S
C2060 H2056 0.929 . S
C2060 C2062 1.378 . S
C2060 C2064 1.350 . S
C2061 C2064 1.463 . S
C2061 C2066 1.350 . S
C2061 N2069 1.427 . S
C2062 H2053 0.930 . S
C2062 C2060 1.378 . S
C2062 C2063 1.367 . S
C2063 C2062 1.367 . S
C2063 C2065 1.433 . S
C2064 C2060 1.350 . S
C2064 C2061 1.463 . S
C2064 N2068 1.427 . S
C2065 H2055 0.929 . S
C2065 C2063 1.433 . S
C2065 N2068 1.384 . S
C2066 H2057 0.929 . S
C2066 C2058 1.378 . S
C2066 C2061 1.350 . S
C2067 H2054 0.929 . S
C2067 C2059 1.433 . S
C2067 N2069 1.384 . S
N2068 C2064 1.427 . S
N2068 C2065 1.384 . S
N2069 C2061 1.427 . S
N2069 C2067 1.384 . S
H2070 C2076 0.930 . S
H2071 C2080 0.930 . S
H2072 C2085 0.929 . S
H2073 C2083 0.929 . S
H2074 C2078 0.929 . S
H2075 C2084 0.929 . S
C2076 H2070 0.930 . S
C2076 C2077 1.367 . S
C2076 C2084 1.378 . S
C2077 C2076 1.367 . S
C2077 C2085 1.433 . S
C2078 H2074 0.929 . S
C2078 C2080 1.378 . S
C2078 C2082 1.350 . S
C2079 C2082 1.463 . S
C2079 C2084 1.350 . S
C2079 N2087 1.427 . S
C2080 H2071 0.930 . S
C2080 C2078 1.378 . S
C2080 C2081 1.367 . S
C2081 C2080 1.367 . S
C2081 C2083 1.433 . S
C2082 C2078 1.350 . S
C2082 C2079 1.463 . S
C2082 N2086 1.427 . S
C2083 H2073 0.929 . S
C2083 C2081 1.433 . S
C2083 N2086 1.384 . S
C2084 H2075 0.929 . S
C2084 C2076 1.378 . S
C2084 C2079 1.350 . S
C2085 H2072 0.929 . S
C2085 C2077 1.433 . S
C2085 N2087 1.384 . S
N2086 C2082 1.427 . S
N2086 C2083 1.384 . S
N2087 C2079 1.427 . S
N2087 C2085 1.384 . S
H2088 C2094 0.930 . S
H2089 C2098 0.930 . S
H2090 C2103 0.929 . S
H2091 C2101 0.929 . S
H2092 C2096 0.929 . S
H2093 C2102 0.929 . S
C2094 H2088 0.930 . S
C2094 C2095 1.367 . S
C2094 C2102 1.378 . S
C2095 C2094 1.367 . S
C2095 C2103 1.433 . S
C2096 H2092 0.929 . S
C2096 C2098 1.378 . S
C2096 C2100 1.350 . S
C2097 C2100 1.463 . S
C2097 C2102 1.350 . S
C2097 N2105 1.427 . S
C2098 H2089 0.930 . S
C2098 C2096 1.378 . S
C2098 C2099 1.367 . S
C2099 C2098 1.367 . S
C2099 C2101 1.433 . S
C2100 C2096 1.350 . S
C2100 C2097 1.463 . S
C2100 N2104 1.427 . S
C2101 H2091 0.929 . S
C2101 C2099 1.433 . S
C2101 N2104 1.384 . S
C2102 H2093 0.929 . S
C2102 C2094 1.378 . S
C2102 C2097 1.350 . S
C2103 H2090 0.929 . S
C2103 C2095 1.433 . S
C2103 N2105 1.384 . S
N2104 C2100 1.427 . S
N2104 C2101 1.384 . S
N2105 C2097 1.427 . S
N2105 C2103 1.384 . S
H2106 C2112 0.930 . S
H2107 C2116 0.930 . S
H2108 C2121 0.929 . S
H2109 C2119 0.929 . S
H2110 C2114 0.929 . S
H2111 C2120 0.929 . S
C2112 H2106 0.930 . S
C2112 C2113 1.367 . S
C2112 C2120 1.378 . S
C2113 C2112 1.367 . S
C2113 C2121 1.433 . S
C2114 H2110 0.929 . S
C2114 C2116 1.378 . S
C2114 C2118 1.350 . S
C2115 C2118 1.463 . S
C2115 C2120 1.350 . S
C2115 N2123 1.427 . S
C2116 H2107 0.930 . S
C2116 C2114 1.378 . S
C2116 C2117 1.367 . S
C2117 C2116 1.367 . S
C2117 C2119 1.433 . S
C2118 C2114 1.350 . S
C2118 C2115 1.463 . S
C2118 N2122 1.427 . S
C2119 H2109 0.929 . S
C2119 C2117 1.433 . S
C2119 N2122 1.384 . S
C2120 H2111 0.929 . S
C2120 C2112 1.378 . S
C2120 C2115 1.350 . S
C2121 H2108 0.929 . S
C2121 C2113 1.433 . S
C2121 N2123 1.384 . S
N2122 C2118 1.427 . S
N2122 C2119 1.384 . S
N2123 C2115 1.427 . S
N2123 C2121 1.384 . S
H2124 C2130 0.930 . S
H2125 C2134 0.930 . S
H2126 C2139 0.929 . S
H2127 C2137 0.929 . S
H2128 C2132 0.929 . S
H2129 C2138 0.929 . S
C2130 H2124 0.930 . S
C2130 C2131 1.367 . S
C2130 C2138 1.378 . S
C2131 C2130 1.367 . S
C2131 C2139 1.433 . S
C2132 H2128 0.929 . S
C2132 C2134 1.378 . S
C2132 C2136 1.350 . S
C2133 C2136 1.463 . S
C2133 C2138 1.350 . S
C2133 N2141 1.427 . S
C2134 H2125 0.930 . S
C2134 C2132 1.378 . S
C2134 C2135 1.367 . S
C2135 C2134 1.367 . S
C2135 C2137 1.433 . S
C2136 C2132 1.350 . S
C2136 C2133 1.463 . S
C2136 N2140 1.427 . S
C2137 H2127 0.929 . S
C2137 C2135 1.433 . S
C2137 N2140 1.384 . S
C2138 H2129 0.929 . S
C2138 C2130 1.378 . S
C2138 C2133 1.350 . S
C2139 H2126 0.929 . S
C2139 C2131 1.433 . S
C2139 N2141 1.384 . S
N2140 C2136 1.427 . S
N2140 C2137 1.384 . S
N2141 C2133 1.427 . S
N2141 C2139 1.384 . S
H2142 C2148 0.930 . S
H2143 C2152 0.930 . S
H2144 C2157 0.929 . S
H2145 C2155 0.929 . S
H2146 C2150 0.929 . S
H2147 C2156 0.929 . S
C2148 H2142 0.930 . S
C2148 C2149 1.367 . S
C2148 C2156 1.378 . S
C2149 C2148 1.367 . S
C2149 C2157 1.433 . S
C2150 H2146 0.929 . S
C2150 C2152 1.378 . S
C2150 C2154 1.350 . S
C2151 C2154 1.463 . S
C2151 C2156 1.350 . S
C2151 N2159 1.427 . S
C2152 H2143 0.930 . S
C2152 C2150 1.378 . S
C2152 C2153 1.367 . S
C2153 C2152 1.367 . S
C2153 C2155 1.433 . S
C2154 C2150 1.350 . S
C2154 C2151 1.463 . S
C2154 N2158 1.427 . S
C2155 H2145 0.929 . S
C2155 C2153 1.433 . S
C2155 N2158 1.384 . S
C2156 H2147 0.929 . S
C2156 C2148 1.378 . S
C2156 C2151 1.350 . S
C2157 H2144 0.929 . S
C2157 C2149 1.433 . S
C2157 N2159 1.384 . S
N2158 C2154 1.427 . S
N2158 C2155 1.384 . S
N2159 C2151 1.427 . S
N2159 C2157 1.384 . S
H2160 C2166 0.930 . S
H2161 C2170 0.930 . S
H2162 C2175 0.929 . S
H2163 C2173 0.929 . S
H2164 C2168 0.929 . S
H2165 C2174 0.929 . S
C2166 H2160 0.930 . S
C2166 C2167 1.367 . S
C2166 C2174 1.378 . S
C2167 C2166 1.367 . S
C2167 C2175 1.433 . S
C2168 H2164 0.929 . S
C2168 C2170 1.378 . S
C2168 C2172 1.350 . S
C2169 C2172 1.463 . S
C2169 C2174 1.350 . S
C2169 N2177 1.427 . S
C2170 H2161 0.930 . S
C2170 C2168 1.378 . S
C2170 C2171 1.367 . S
C2171 C2170 1.367 . S
C2171 C2173 1.433 . S
C2172 C2168 1.350 . S
C2172 C2169 1.463 . S
C2172 N2176 1.427 . S
C2173 H2163 0.929 . S
C2173 C2171 1.433 . S
C2173 N2176 1.384 . S
C2174 H2165 0.929 . S
C2174 C2166 1.378 . S
C2174 C2169 1.350 . S
C2175 H2162 0.929 . S
C2175 C2167 1.433 . S
C2175 N2177 1.384 . S
N2176 C2172 1.427 . S
N2176 C2173 1.384 . S
N2177 C2169 1.427 . S
N2177 C2175 1.384 . S
H2178 C2184 0.930 . S
H2179 C2188 0.930 . S
H2180 C2193 0.929 . S
H2181 C2191 0.929 . S
H2182 C2186 0.929 . S
H2183 C2192 0.929 . S
C2184 H2178 0.930 . S
C2184 C2185 1.367 . S
C2184 C2192 1.378 . S
C2185 C2184 1.367 . S
C2185 C2193 1.433 . S
C2186 H2182 0.929 . S
C2186 C2188 1.378 . S
C2186 C2190 1.350 . S
C2187 C2190 1.463 . S
C2187 C2192 1.350 . S
C2187 N2195 1.427 . S
C2188 H2179 0.930 . S
C2188 C2186 1.378 . S
C2188 C2189 1.367 . S
C2189 C2188 1.367 . S
C2189 C2191 1.433 . S
C2190 C2186 1.350 . S
C2190 C2187 1.463 . S
C2190 N2194 1.427 . S
C2191 H2181 0.929 . S
C2191 C2189 1.433 . S
C2191 N2194 1.384 . S
C2192 H2183 0.929 . S
C2192 C2184 1.378 . S
C2192 C2187 1.350 . S
C2193 H2180 0.929 . S
C2193 C2185 1.433 . S
C2193 N2195 1.384 . S
N2194 C2190 1.427 . S
N2194 C2191 1.384 . S
N2195 C2187 1.427 . S
N2195 C2193 1.384 . S
H2196 C2202 0.930 . S
H2197 C2206 0.930 . S
H2198 C2211 0.929 . S
H2199 C2209 0.929 . S
H2200 C2204 0.929 . S
H2201 C2210 0.929 . S
C2202 H2196 0.930 . S
C2202 C2203 1.367 . S
C2202 C2210 1.378 . S
C2203 C2202 1.367 . S
C2203 C2211 1.433 . S
C2204 H2200 0.929 . S
C2204 C2206 1.378 . S
C2204 C2208 1.350 . S
C2205 C2208 1.463 . S
C2205 C2210 1.350 . S
C2205 N2213 1.427 . S
C2206 H2197 0.930 . S
C2206 C2204 1.378 . S
C2206 C2207 1.367 . S
C2207 C2206 1.367 . S
C2207 C2209 1.433 . S
C2208 C2204 1.350 . S
C2208 C2205 1.463 . S
C2208 N2212 1.427 . S
C2209 H2199 0.929 . S
C2209 C2207 1.433 . S
C2209 N2212 1.384 . S
C2210 H2201 0.929 . S
C2210 C2202 1.378 . S
C2210 C2205 1.350 . S
C2211 H2198 0.929 . S
C2211 C2203 1.433 . S
C2211 N2213 1.384 . S
N2212 C2208 1.427 . S
N2212 C2209 1.384 . S
N2213 C2205 1.427 . S
N2213 C2211 1.384 . S
H2214 C2220 0.930 . S
H2215 C2224 0.930 . S
H2216 C2229 0.929 . S
H2217 C2227 0.929 . S
H2218 C2222 0.929 . S
H2219 C2228 0.929 . S
C2220 H2214 0.930 . S
C2220 C2221 1.367 . S
C2220 C2228 1.378 . S
C2221 C2220 1.367 . S
C2221 C2229 1.433 . S
C2222 H2218 0.929 . S
C2222 C2224 1.378 . S
C2222 C2226 1.350 . S
C2223 C2226 1.463 . S
C2223 C2228 1.350 . S
C2223 N2231 1.427 . S
C2224 H2215 0.930 . S
C2224 C2222 1.378 . S
C2224 C2225 1.367 . S
C2225 C2224 1.367 . S
C2225 C2227 1.433 . S
C2226 C2222 1.350 . S
C2226 C2223 1.463 . S
C2226 N2230 1.427 . S
C2227 H2217 0.929 . S
C2227 C2225 1.433 . S
C2227 N2230 1.384 . S
C2228 H2219 0.929 . S
C2228 C2220 1.378 . S
C2228 C2223 1.350 . S
C2229 H2216 0.929 . S
C2229 C2221 1.433 . S
C2229 N2231 1.384 . S
N2230 C2226 1.427 . S
N2230 C2227 1.384 . S
N2231 C2223 1.427 . S
N2231 C2229 1.384 . S
H2232 C2238 0.930 . S
H2233 C2242 0.930 . S
H2234 C2247 0.929 . S
H2235 C2245 0.929 . S
H2236 C2240 0.929 . S
H2237 C2246 0.929 . S
C2238 H2232 0.930 . S
C2238 C2239 1.367 . S
C2238 C2246 1.378 . S
C2239 C2238 1.367 . S
C2239 C2247 1.433 . S
C2240 H2236 0.929 . S
C2240 C2242 1.378 . S
C2240 C2244 1.350 . S
C2241 C2244 1.463 1_655 S
C2241 C2246 1.350 . S
C2241 N2249 1.427 1_655 S
C2242 H2233 0.930 . S
C2242 C2240 1.378 . S
C2242 C2243 1.367 . S
C2243 C2242 1.367 . S
C2243 C2245 1.433 . S
C2244 C2240 1.350 . S
C2244 C2241 1.463 1_455 S
C2244 N2248 1.427 . S
C2245 H2235 0.929 . S
C2245 C2243 1.433 . S
C2245 N2248 1.384 . S
C2246 H2237 0.929 . S
C2246 C2238 1.378 . S
C2246 C2241 1.350 . S
C2247 H2234 0.929 . S
C2247 C2239 1.433 . S
C2247 N2249 1.384 1_655 S
N2248 C2244 1.427 . S
N2248 C2245 1.384 . S
N2249 C2241 1.427 1_455 S
N2249 C2247 1.384 1_455 S
H2250 C2256 0.930 . S
H2251 C2260 0.930 . S
H2252 C2265 0.929 . S
H2253 C2263 0.929 . S
H2254 C2258 0.929 . S
H2255 C2264 0.929 . S
C2256 H2250 0.930 . S
C2256 C2257 1.367 . S
C2256 C2264 1.378 . S
C2257 C2256 1.367 . S
C2257 C2265 1.433 . S
C2258 H2254 0.929 . S
C2258 C2260 1.378 . S
C2258 C2262 1.350 . S
C2259 C2262 1.463 . S
C2259 C2264 1.350 . S
C2259 N2267 1.427 . S
C2260 H2251 0.930 . S
C2260 C2258 1.378 . S
C2260 C2261 1.367 . S
C2261 C2260 1.367 . S
C2261 C2263 1.433 . S
C2262 C2258 1.350 . S
C2262 C2259 1.463 . S
C2262 N2266 1.427 . S
C2263 H2253 0.929 . S
C2263 C2261 1.433 . S
C2263 N2266 1.384 . S
C2264 H2255 0.929 . S
C2264 C2256 1.378 . S
C2264 C2259 1.350 . S
C2265 H2252 0.929 . S
C2265 C2257 1.433 . S
C2265 N2267 1.384 . S
N2266 C2262 1.427 . S
N2266 C2263 1.384 . S
N2267 C2259 1.427 . S
N2267 C2265 1.384 . S
H2268 C2274 0.942 . S
H2269 C2278 0.930 1_545 S
H2270 C2283 0.929 . S
H2271 C2281 0.929 . S
H2272 C2276 0.929 . S
H2273 C2282 0.929 . S
C2274 H2268 0.942 . S
C2274 C2275 1.351 1_565 S
C2274 C2282 1.382 . S
C2275 C2274 1.351 1_545 S
C2275 C2283 1.433 . S
C2276 H2272 0.929 . S
C2276 C2278 1.378 1_545 S
C2276 C2280 1.350 1_545 S
C2277 C2280 1.463 1_545 S
C2277 C2282 1.350 1_545 S
C2277 N2285 1.427 . S
C2278 H2269 0.930 1_565 S
C2278 C2276 1.378 1_565 S
C2278 C2279 1.367 . S
C2279 C2278 1.367 . S
C2279 C2281 1.433 . S
C2280 C2276 1.350 1_565 S
C2280 C2277 1.463 1_565 S
C2280 N2284 1.427 . S
C2281 H2271 0.929 . S
C2281 C2279 1.433 . S
C2281 N2284 1.384 . S
C2282 H2273 0.929 . S
C2282 C2274 1.382 . S
C2282 C2277 1.350 1_565 S
C2283 H2270 0.929 . S
C2283 C2275 1.433 . S
C2283 N2285 1.384 . S
N2284 C2280 1.427 . S
N2284 C2281 1.384 . S
N2285 C2277 1.427 . S
N2285 C2283 1.384 . S
H2286 C2292 0.930 . S
H2287 C2296 0.930 . S
H2288 C2301 0.929 . S
H2289 C2299 0.929 . S
H2290 C2294 0.929 . S
H2291 C2300 0.929 . S
C2292 H2286 0.930 . S
C2292 C2293 1.367 1_565 S
C2292 C2300 1.378 . S
C2293 C2292 1.367 1_545 S
C2293 C2301 1.433 . S
C2294 H2290 0.929 . S
C2294 C2296 1.378 . S
C2294 C2298 1.350 1_545 S
C2295 C2298 1.463 1_545 S
C2295 C2300 1.350 1_545 S
C2295 N2303 1.427 . S
C2296 H2287 0.930 . S
C2296 C2294 1.378 . S
C2296 C2297 1.367 1_545 S
C2297 C2296 1.367 1_565 S
C2297 C2299 1.433 . S
C2298 C2294 1.350 1_565 S
C2298 C2295 1.463 1_565 S
C2298 N2302 1.427 . S
C2299 H2289 0.929 . S
C2299 C2297 1.433 . S
C2299 N2302 1.384 . S
C2300 H2291 0.929 . S
C2300 C2292 1.378 . S
C2300 C2295 1.350 1_565 S
C2301 H2288 0.929 . S
C2301 C2293 1.433 . S
C2301 N2303 1.384 . S
N2302 C2298 1.427 . S
N2302 C2299 1.384 . S
N2303 C2295 1.427 . S
N2303 C2301 1.384 . S
H2304 C2310 0.930 . S
H2305 C2314 0.930 . S
H2306 C2319 0.929 . S
H2307 C2317 0.929 . S
H2308 C2312 0.929 . S
H2309 C2318 0.929 . S
C2310 H2304 0.930 . S
C2310 C2311 1.367 . S
C2310 C2318 1.378 . S
C2311 C2310 1.367 . S
C2311 C2319 1.433 1_455 S
C2312 H2308 0.929 . S
C2312 C2314 1.378 . S
C2312 C2316 1.350 . S
C2313 C2316 1.463 1_455 S
C2313 C2318 1.350 . S
C2313 N2321 1.427 1_455 S
C2314 H2305 0.930 . S
C2314 C2312 1.378 . S
C2314 C2315 1.367 . S
C2315 C2314 1.367 . S
C2315 C2317 1.433 1_655 S
C2316 C2312 1.350 . S
C2316 C2313 1.463 1_655 S
C2316 N2320 1.427 1_655 S
C2317 H2307 0.929 . S
C2317 C2315 1.433 1_455 S
C2317 N2320 1.384 . S
C2318 H2309 0.929 . S
C2318 C2310 1.378 . S
C2318 C2313 1.350 . S
C2319 H2306 0.929 . S
C2319 C2311 1.433 1_655 S
C2319 N2321 1.384 . S
N2320 C2316 1.427 1_455 S
N2320 C2317 1.384 . S
N2321 C2313 1.427 1_655 S
N2321 C2319 1.384 . S
H2322 C2328 0.930 . S
H2323 C2332 0.930 . S
H2324 C2337 0.929 . S
H2325 C2335 0.929 . S
H2326 C2330 0.929 . S
H2327 C2336 0.929 . S
C2328 H2322 0.930 . S
C2328 C2329 1.367 . S
C2328 C2336 1.378 . S
C2329 C2328 1.367 . S
C2329 C2337 1.433 . S
C2330 H2326 0.929 . S
C2330 C2332 1.378 . S
C2330 C2334 1.350 . S
C2331 C2334 1.463 . S
C2331 C2336 1.350 . S
C2331 N2339 1.427 . S
C2332 H2323 0.930 . S
C2332 C2330 1.378 . S
C2332 C2333 1.367 . S
C2333 C2332 1.367 . S
C2333 C2335 1.433 . S
C2334 C2330 1.350 . S
C2334 C2331 1.463 . S
C2334 N2338 1.427 . S
C2335 H2325 0.929 . S
C2335 C2333 1.433 . S
C2335 N2338 1.384 . S
C2336 H2327 0.929 . S
C2336 C2328 1.378 . S
C2336 C2331 1.350 . S
C2337 H2324 0.929 . S
C2337 C2329 1.433 . S
C2337 N2339 1.384 . S
N2338 C2334 1.427 . S
N2338 C2335 1.384 . S
N2339 C2331 1.427 . S
N2339 C2337 1.384 . S
H2340 C2346 0.930 . S
H2341 C2350 0.930 . S
H2342 C2355 0.929 . S
H2343 C2353 0.929 . S
H2344 C2348 0.929 . S
H2345 C2354 0.929 . S
C2346 H2340 0.930 . S
C2346 C2347 1.367 . S
C2346 C2354 1.378 . S
C2347 C2346 1.367 . S
C2347 C2355 1.433 . S
C2348 H2344 0.929 . S
C2348 C2350 1.378 . S
C2348 C2352 1.350 . S
C2349 C2352 1.463 1_655 S
C2349 C2354 1.350 . S
C2349 N2357 1.427 . S
C2350 H2341 0.930 . S
C2350 C2348 1.378 . S
C2350 C2351 1.367 . S
C2351 C2350 1.367 . S
C2351 C2353 1.433 . S
C2352 C2348 1.350 . S
C2352 C2349 1.463 1_455 S
C2352 N2356 1.427 . S
C2353 H2343 0.929 . S
C2353 C2351 1.433 . S
C2353 N2356 1.384 . S
C2354 H2345 0.929 . S
C2354 C2346 1.378 . S
C2354 C2349 1.350 . S
C2355 H2342 0.929 . S
C2355 C2347 1.433 . S
C2355 N2357 1.384 . S
N2356 C2352 1.427 . S
N2356 C2353 1.384 . S
N2357 C2349 1.427 . S
N2357 C2355 1.384 . S
H2358 C2364 0.930 . S
H2359 C2368 0.930 . S
H2360 C2373 0.929 . S
H2361 C2371 0.929 . S
H2362 C2366 0.929 . S
H2363 C2372 0.929 . S
C2364 H2358 0.930 . S
C2364 C2365 1.367 . S
C2364 C2372 1.378 . S
C2365 C2364 1.367 . S
C2365 C2373 1.433 . S
C2366 H2362 0.929 . S
C2366 C2368 1.378 . S
C2366 C2370 1.350 . S
C2367 C2370 1.463 . S
C2367 C2372 1.350 . S
C2367 N2375 1.427 . S
C2368 H2359 0.930 . S
C2368 C2366 1.378 . S
C2368 C2369 1.367 . S
C2369 C2368 1.367 . S
C2369 C2371 1.433 . S
C2370 C2366 1.350 . S
C2370 C2367 1.463 . S
C2370 N2374 1.427 . S
C2371 H2361 0.929 . S
C2371 C2369 1.433 . S
C2371 N2374 1.384 . S
C2372 H2363 0.929 . S
C2372 C2364 1.378 . S
C2372 C2367 1.350 . S
C2373 H2360 0.929 . S
C2373 C2365 1.433 . S
C2373 N2375 1.384 . S
N2374 C2370 1.427 . S
N2374 C2371 1.384 . S
N2375 C2367 1.427 . S
N2375 C2373 1.384 . S
H2376 C2382 0.930 . S
H2377 C2386 0.930 . S
H2378 C2391 0.929 . S
H2379 C2389 0.929 . S
H2380 C2384 0.929 . S
H2381 C2390 0.929 . S
C2382 H2376 0.930 . S
C2382 C2383 1.367 . S
C2382 C2390 1.378 . S
C2383 C2382 1.367 . S
C2383 C2391 1.433 . S
C2384 H2380 0.929 . S
C2384 C2386 1.378 . S
C2384 C2388 1.350 . S
C2385 C2388 1.463 1_545 S
C2385 C2390 1.350 . S
C2385 N2393 1.427 . S
C2386 H2377 0.930 . S
C2386 C2384 1.378 . S
C2386 C2387 1.367 . S
C2387 C2386 1.367 . S
C2387 C2389 1.433 . S
C2388 C2384 1.350 . S
C2388 C2385 1.463 1_565 S
C2388 N2392 1.427 . S
C2389 H2379 0.929 . S
C2389 C2387 1.433 . S
C2389 N2392 1.384 . S
C2390 H2381 0.929 . S
C2390 C2382 1.378 . S
C2390 C2385 1.350 . S
C2391 H2378 0.929 . S
C2391 C2383 1.433 . S
C2391 N2393 1.384 . S
N2392 C2388 1.427 . S
N2392 C2389 1.384 . S
N2393 C2385 1.427 . S
N2393 C2391 1.384 . S
H2394 C2400 0.930 . S
H2395 C2404 0.930 . S
H2396 C2409 0.929 . S
H2397 C2407 0.929 . S
H2398 C2402 0.929 . S
H2399 C2408 0.929 . S
C2400 H2394 0.930 . S
C2400 C2401 1.367 . S
C2400 C2408 1.378 . S
C2401 C2400 1.367 . S
C2401 C2409 1.433 . S
C2402 H2398 0.929 . S
C2402 C2404 1.378 . S
C2402 C2406 1.350 . S
C2403 C2406 1.463 1_655 S
C2403 C2408 1.350 . S
C2403 N2411 1.427 . S
C2404 H2395 0.930 . S
C2404 C2402 1.378 . S
C2404 C2405 1.367 . S
C2405 C2404 1.367 . S
C2405 C2407 1.433 . S
C2406 C2402 1.350 . S
C2406 C2403 1.463 1_455 S
C2406 N2410 1.427 . S
C2407 H2397 0.929 . S
C2407 C2405 1.433 . S
C2407 N2410 1.384 . S
C2408 H2399 0.929 . S
C2408 C2400 1.378 . S
C2408 C2403 1.350 . S
C2409 H2396 0.929 . S
C2409 C2401 1.433 . S
C2409 N2411 1.384 . S
N2410 C2406 1.427 . S
N2410 C2407 1.384 . S
N2411 C2403 1.427 . S
N2411 C2409 1.384 . S
H2412 C2418 0.930 . S
H2413 C2422 0.930 . S
H2414 C2427 0.929 . S
H2415 C2425 0.929 . S
H2416 C2420 0.929 . S
H2417 C2426 0.929 . S
C2418 H2412 0.930 . S
C2418 C2419 1.367 . S
C2418 C2426 1.378 . S
C2419 C2418 1.367 . S
C2419 C2427 1.433 . S
C2420 H2416 0.929 . S
C2420 C2422 1.378 . S
C2420 C2424 1.350 . S
C2421 C2424 1.463 . S
C2421 C2426 1.350 . S
C2421 N2429 1.427 . S
C2422 H2413 0.930 . S
C2422 C2420 1.378 . S
C2422 C2423 1.367 . S
C2423 C2422 1.367 . S
C2423 C2425 1.433 . S
C2424 C2420 1.350 . S
C2424 C2421 1.463 . S
C2424 N2428 1.427 . S
C2425 H2415 0.929 . S
C2425 C2423 1.433 . S
C2425 N2428 1.384 . S
C2426 H2417 0.929 . S
C2426 C2418 1.378 . S
C2426 C2421 1.350 . S
C2427 H2414 0.929 . S
C2427 C2419 1.433 . S
C2427 N2429 1.384 . S
N2428 C2424 1.427 . S
N2428 C2425 1.384 . S
N2429 C2421 1.427 . S
N2429 C2427 1.384 . S
H2430 C2436 0.930 . S
H2431 C2440 0.930 . S
H2432 C2445 0.929 . S
H2433 C2443 0.929 . S
H2434 C2438 0.929 . S
H2435 C2444 0.929 . S
C2436 H2430 0.930 . S
C2436 C2437 1.367 . S
C2436 C2444 1.378 . S
C2437 C2436 1.367 . S
C2437 C2445 1.433 . S
C2438 H2434 0.929 . S
C2438 C2440 1.378 . S
C2438 C2442 1.350 . S
C2439 C2442 1.463 1_545 S
C2439 C2444 1.350 . S
C2439 N2447 1.427 . S
C2440 H2431 0.930 . S
C2440 C2438 1.378 . S
C2440 C2441 1.367 . S
C2441 C2440 1.367 . S
C2441 C2443 1.433 . S
C2442 C2438 1.350 . S
C2442 C2439 1.463 1_565 S
C2442 N2446 1.427 . S
C2443 H2433 0.929 . S
C2443 C2441 1.433 . S
C2443 N2446 1.384 . S
C2444 H2435 0.929 . S
C2444 C2436 1.378 . S
C2444 C2439 1.350 . S
C2445 H2432 0.929 . S
C2445 C2437 1.433 . S
C2445 N2447 1.384 . S
N2446 C2442 1.427 . S
N2446 C2443 1.384 . S
N2447 C2439 1.427 . S
N2447 C2445 1.384 . S
H2448 C2454 0.930 . S
H2449 C2458 0.930 . S
H2450 C2463 0.929 . S
H2451 C2461 0.929 . S
H2452 C2456 0.929 . S
H2453 C2462 0.929 . S
C2454 H2448 0.930 . S
C2454 C2455 1.367 . S
C2454 C2462 1.378 . S
C2455 C2454 1.367 . S
C2455 C2463 1.433 . S
C2456 H2452 0.929 . S
C2456 C2458 1.378 . S
C2456 C2460 1.350 . S
C2457 C2460 1.463 . S
C2457 C2462 1.350 . S
C2457 N2465 1.427 . S
C2458 H2449 0.930 . S
C2458 C2456 1.378 . S
C2458 C2459 1.367 . S
C2459 C2458 1.367 . S
C2459 C2461 1.433 . S
C2460 C2456 1.350 . S
C2460 C2457 1.463 . S
C2460 N2464 1.427 . S
C2461 H2451 0.929 . S
C2461 C2459 1.433 . S
C2461 N2464 1.384 . S
C2462 H2453 0.929 . S
C2462 C2454 1.378 . S
C2462 C2457 1.350 . S
C2463 H2450 0.929 . S
C2463 C2455 1.433 . S
C2463 N2465 1.384 . S
N2464 C2460 1.427 . S
N2464 C2461 1.384 . S
N2465 C2457 1.427 . S
N2465 C2463 1.384 . S
H2466 C2472 0.930 . S
H2467 C2476 0.930 . S
H2468 C2481 0.929 . S
H2469 C2479 0.929 . S
H2470 C2474 0.929 . S
H2471 C2480 0.929 . S
C2472 H2466 0.930 . S
C2472 C2473 1.367 . S
C2472 C2480 1.378 . S
C2473 C2472 1.367 . S
C2473 C2481 1.433 . S
C2474 H2470 0.929 . S
C2474 C2476 1.378 . S
C2474 C2478 1.350 . S
C2475 C2478 1.463 . S
C2475 C2480 1.350 . S
C2475 N2483 1.427 . S
C2476 H2467 0.930 . S
C2476 C2474 1.378 . S
C2476 C2477 1.367 . S
C2477 C2476 1.367 . S
C2477 C2479 1.433 . S
C2478 C2474 1.350 . S
C2478 C2475 1.463 . S
C2478 N2482 1.427 . S
C2479 H2469 0.929 . S
C2479 C2477 1.433 . S
C2479 N2482 1.384 . S
C2480 H2471 0.929 . S
C2480 C2472 1.378 . S
C2480 C2475 1.350 . S
C2481 H2468 0.929 . S
C2481 C2473 1.433 . S
C2481 N2483 1.384 . S
N2482 C2478 1.427 . S
N2482 C2479 1.384 . S
N2483 C2475 1.427 . S
N2483 C2481 1.384 . S
H2484 C2490 0.930 . S
H2485 C2494 0.930 . S
H2486 C2499 0.929 . S
H2487 C2497 0.929 . S
H2488 C2492 0.929 . S
H2489 C2498 0.929 . S
C2490 H2484 0.930 . S
C2490 C2491 1.367 . S
C2490 C2498 1.378 . S
C2491 C2490 1.367 . S
C2491 C2499 1.433 . S
C2492 H2488 0.929 . S
C2492 C2494 1.378 . S
C2492 C2496 1.350 . S
C2493 C2496 1.463 . S
C2493 C2498 1.350 . S
C2493 N2501 1.427 . S
C2494 H2485 0.930 . S
C2494 C2492 1.378 . S
C2494 C2495 1.367 . S
C2495 C2494 1.367 . S
C2495 C2497 1.433 . S
C2496 C2492 1.350 . S
C2496 C2493 1.463 . S
C2496 N2500 1.427 . S
C2497 H2487 0.929 . S
C2497 C2495 1.433 . S
C2497 N2500 1.384 . S
C2498 H2489 0.929 . S
C2498 C2490 1.378 . S
C2498 C2493 1.350 . S
C2499 H2486 0.929 . S
C2499 C2491 1.433 . S
C2499 N2501 1.384 . S
N2500 C2496 1.427 . S
N2500 C2497 1.384 . S
N2501 C2493 1.427 . S
N2501 C2499 1.384 . S
H2502 C2508 0.930 . S
H2503 C2512 0.930 . S
H2504 C2517 0.929 . S
H2505 C2515 0.929 . S
H2506 C2510 0.929 . S
H2507 C2516 0.929 . S
C2508 H2502 0.930 . S
C2508 C2509 1.367 . S
C2508 C2516 1.378 . S
C2509 C2508 1.367 . S
C2509 C2517 1.433 . S
C2510 H2506 0.929 . S
C2510 C2512 1.378 . S
C2510 C2514 1.350 . S
C2511 C2514 1.463 . S
C2511 C2516 1.350 . S
C2511 N2519 1.427 . S
C2512 H2503 0.930 . S
C2512 C2510 1.378 . S
C2512 C2513 1.367 . S
C2513 C2512 1.367 . S
C2513 C2515 1.433 . S
C2514 C2510 1.350 . S
C2514 C2511 1.463 . S
C2514 N2518 1.427 . S
C2515 H2505 0.929 . S
C2515 C2513 1.433 . S
C2515 N2518 1.384 . S
C2516 H2507 0.929 . S
C2516 C2508 1.378 . S
C2516 C2511 1.350 . S
C2517 H2504 0.929 . S
C2517 C2509 1.433 . S
C2517 N2519 1.384 . S
N2518 C2514 1.427 . S
N2518 C2515 1.384 . S
N2519 C2511 1.427 . S
N2519 C2517 1.384 . S
H2520 C2526 0.930 . S
H2521 C2530 0.930 . S
H2522 C2535 0.929 . S
H2523 C2533 0.929 . S
H2524 C2528 0.929 . S
H2525 C2534 0.929 . S
C2526 H2520 0.930 . S
C2526 C2527 1.367 . S
C2526 C2534 1.378 . S
C2527 C2526 1.367 . S
C2527 C2535 1.433 . S
C2528 H2524 0.929 . S
C2528 C2530 1.378 . S
C2528 C2532 1.350 . S
C2529 C2532 1.463 . S
C2529 C2534 1.350 . S
C2529 N2537 1.427 . S
C2530 H2521 0.930 . S
C2530 C2528 1.378 . S
C2530 C2531 1.367 . S
C2531 C2530 1.367 . S
C2531 C2533 1.433 . S
C2532 C2528 1.350 . S
C2532 C2529 1.463 . S
C2532 N2536 1.427 . S
C2533 H2523 0.929 . S
C2533 C2531 1.433 . S
C2533 N2536 1.384 . S
C2534 H2525 0.929 . S
C2534 C2526 1.378 . S
C2534 C2529 1.350 . S
C2535 H2522 0.929 . S
C2535 C2527 1.433 . S
C2535 N2537 1.384 . S
N2536 C2532 1.427 . S
N2536 C2533 1.384 . S
N2537 C2529 1.427 . S
N2537 C2535 1.384 . S
H2538 C2544 0.930 . S
H2539 C2548 0.930 . S
H2540 C2553 0.929 . S
H2541 C2551 0.929 . S
H2542 C2546 0.929 . S
H2543 C2552 0.929 . S
C2544 H2538 0.930 . S
C2544 C2545 1.367 . S
C2544 C2552 1.378 . S
C2545 C2544 1.367 . S
C2545 C2553 1.433 . S
C2546 H2542 0.929 . S
C2546 C2548 1.378 . S
C2546 C2550 1.350 . S
C2547 C2550 1.463 . S
C2547 C2552 1.350 . S
C2547 N2555 1.427 . S
C2548 H2539 0.930 . S
C2548 C2546 1.378 . S
C2548 C2549 1.367 . S
C2549 C2548 1.367 . S
C2549 C2551 1.433 . S
C2550 C2546 1.350 . S
C2550 C2547 1.463 . S
C2550 N2554 1.427 . S
C2551 H2541 0.929 . S
C2551 C2549 1.433 . S
C2551 N2554 1.384 . S
C2552 H2543 0.929 . S
C2552 C2544 1.378 . S
C2552 C2547 1.350 . S
C2553 H2540 0.929 . S
C2553 C2545 1.433 . S
C2553 N2555 1.384 . S
N2554 C2550 1.427 . S
N2554 C2551 1.384 . S
N2555 C2547 1.427 . S
N2555 C2553 1.384 . S
H2556 C2562 0.930 . S
H2557 C2566 0.930 . S
H2558 C2571 0.929 . S
H2559 C2569 0.929 . S
H2560 C2564 0.929 . S
H2561 C2570 0.929 . S
C2562 H2556 0.930 . S
C2562 C2563 1.367 . S
C2562 C2570 1.378 . S
C2563 C2562 1.367 . S
C2563 C2571 1.433 . S
C2564 H2560 0.929 . S
C2564 C2566 1.378 . S
C2564 C2568 1.350 . S
C2565 C2568 1.463 . S
C2565 C2570 1.350 . S
C2565 N2573 1.427 . S
C2566 H2557 0.930 . S
C2566 C2564 1.378 . S
C2566 C2567 1.367 . S
C2567 C2566 1.367 . S
C2567 C2569 1.433 . S
C2568 C2564 1.350 . S
C2568 C2565 1.463 . S
C2568 N2572 1.427 . S
C2569 H2559 0.929 . S
C2569 C2567 1.433 . S
C2569 N2572 1.384 . S
C2570 H2561 0.929 . S
C2570 C2562 1.378 . S
C2570 C2565 1.350 . S
C2571 H2558 0.929 . S
C2571 C2563 1.433 . S
C2571 N2573 1.384 . S
N2572 C2568 1.427 . S
N2572 C2569 1.384 . S
N2573 C2565 1.427 . S
N2573 C2571 1.384 . S
H2574 C2580 0.930 . S
H2575 C2584 0.930 . S
H2576 C2589 0.929 . S
H2577 C2587 0.929 . S
H2578 C2582 0.929 . S
H2579 C2588 0.929 . S
C2580 H2574 0.930 . S
C2580 C2581 1.367 . S
C2580 C2588 1.378 . S
C2581 C2580 1.367 . S
C2581 C2589 1.433 . S
C2582 H2578 0.929 . S
C2582 C2584 1.378 . S
C2582 C2586 1.350 . S
C2583 C2586 1.463 . S
C2583 C2588 1.350 . S
C2583 N2591 1.427 . S
C2584 H2575 0.930 . S
C2584 C2582 1.378 . S
C2584 C2585 1.367 . S
C2585 C2584 1.367 . S
C2585 C2587 1.433 . S
C2586 C2582 1.350 . S
C2586 C2583 1.463 . S
C2586 N2590 1.427 . S
C2587 H2577 0.929 . S
C2587 C2585 1.433 . S
C2587 N2590 1.384 . S
C2588 H2579 0.929 . S
C2588 C2580 1.378 . S
C2588 C2583 1.350 . S
C2589 H2576 0.929 . S
C2589 C2581 1.433 . S
C2589 N2591 1.384 . S
N2590 C2586 1.427 . S
N2590 C2587 1.384 . S
N2591 C2583 1.427 . S
N2591 C2589 1.384 . S
H2592 C2598 0.930 . S
H2593 C2602 0.930 . S
H2594 C2607 0.929 . S
H2595 C2605 0.929 . S
H2596 C2600 0.929 . S
H2597 C2606 0.929 . S
C2598 H2592 0.930 . S
C2598 C2599 1.367 . S
C2598 C2606 1.378 . S
C2599 C2598 1.367 . S
C2599 C2607 1.433 . S
C2600 H2596 0.929 . S
C2600 C2602 1.378 . S
C2600 C2604 1.350 . S
C2601 C2604 1.463 . S
C2601 C2606 1.350 . S
C2601 N2609 1.427 . S
C2602 H2593 0.930 . S
C2602 C2600 1.378 . S
C2602 C2603 1.367 . S
C2603 C2602 1.367 . S
C2603 C2605 1.433 . S
C2604 C2600 1.350 . S
C2604 C2601 1.463 . S
C2604 N2608 1.427 . S
C2605 H2595 0.929 . S
C2605 C2603 1.433 . S
C2605 N2608 1.384 . S
C2606 H2597 0.929 . S
C2606 C2598 1.378 . S
C2606 C2601 1.350 . S
C2607 H2594 0.929 . S
C2607 C2599 1.433 . S
C2607 N2609 1.384 . S
N2608 C2604 1.427 . S
N2608 C2605 1.384 . S
N2609 C2601 1.427 . S
N2609 C2607 1.384 . S
H2610 C2616 0.930 . S
H2611 C2620 0.930 . S
H2612 C2625 0.929 . S
H2613 C2623 0.929 . S
H2614 C2618 0.929 . S
H2615 C2624 0.929 . S
C2616 H2610 0.930 . S
C2616 C2617 1.367 . S
C2616 C2624 1.378 . S
C2617 C2616 1.367 . S
C2617 C2625 1.433 . S
C2618 H2614 0.929 . S
C2618 C2620 1.378 . S
C2618 C2622 1.350 . S
C2619 C2622 1.463 . S
C2619 C2624 1.350 . S
C2619 N2627 1.427 . S
C2620 H2611 0.930 . S
C2620 C2618 1.378 . S
C2620 C2621 1.367 . S
C2621 C2620 1.367 . S
C2621 C2623 1.433 . S
C2622 C2618 1.350 . S
C2622 C2619 1.463 . S
C2622 N2626 1.427 . S
C2623 H2613 0.929 . S
C2623 C2621 1.433 . S
C2623 N2626 1.384 . S
C2624 H2615 0.929 . S
C2624 C2616 1.378 . S
C2624 C2619 1.350 . S
C2625 H2612 0.929 . S
C2625 C2617 1.433 . S
C2625 N2627 1.384 . S
N2626 C2622 1.427 . S
N2626 C2623 1.384 . S
N2627 C2619 1.427 . S
N2627 C2625 1.384 . S
H2628 C2634 0.930 . S
H2629 C2638 0.930 . S
H2630 C2643 0.929 . S
H2631 C2641 0.929 . S
H2632 C2636 0.929 . S
H2633 C2642 0.929 . S
C2634 H2628 0.930 . S
C2634 C2635 1.367 . S
C2634 C2642 1.378 . S
C2635 C2634 1.367 . S
C2635 C2643 1.433 . S
C2636 H2632 0.929 . S
C2636 C2638 1.378 . S
C2636 C2640 1.350 . S
C2637 C2640 1.463 . S
C2637 C2642 1.350 . S
C2637 N2645 1.427 . S
C2638 H2629 0.930 . S
C2638 C2636 1.378 . S
C2638 C2639 1.367 . S
C2639 C2638 1.367 . S
C2639 C2641 1.433 . S
C2640 C2636 1.350 . S
C2640 C2637 1.463 . S
C2640 N2644 1.427 . S
C2641 H2631 0.929 . S
C2641 C2639 1.433 . S
C2641 N2644 1.384 . S
C2642 H2633 0.929 . S
C2642 C2634 1.378 . S
C2642 C2637 1.350 . S
C2643 H2630 0.929 . S
C2643 C2635 1.433 . S
C2643 N2645 1.384 . S
N2644 C2640 1.427 . S
N2644 C2641 1.384 . S
N2645 C2637 1.427 . S
N2645 C2643 1.384 . S
H2646 C2652 0.930 . S
H2647 C2656 0.930 . S
H2648 C2661 0.929 . S
H2649 C2659 0.929 . S
H2650 C2654 0.929 . S
H2651 C2660 0.929 . S
C2652 H2646 0.930 . S
C2652 C2653 1.367 . S
C2652 C2660 1.378 . S
C2653 C2652 1.367 . S
C2653 C2661 1.433 . S
C2654 H2650 0.929 . S
C2654 C2656 1.378 . S
C2654 C2658 1.350 . S
C2655 C2658 1.463 . S
C2655 C2660 1.350 . S
C2655 N2663 1.427 . S
C2656 H2647 0.930 . S
C2656 C2654 1.378 . S
C2656 C2657 1.367 . S
C2657 C2656 1.367 . S
C2657 C2659 1.433 . S
C2658 C2654 1.350 . S
C2658 C2655 1.463 . S
C2658 N2662 1.427 . S
C2659 H2649 0.929 . S
C2659 C2657 1.433 . S
C2659 N2662 1.384 . S
C2660 H2651 0.929 . S
C2660 C2652 1.378 . S
C2660 C2655 1.350 . S
C2661 H2648 0.929 . S
C2661 C2653 1.433 . S
C2661 N2663 1.384 . S
N2662 C2658 1.427 . S
N2662 C2659 1.384 . S
N2663 C2655 1.427 . S
N2663 C2661 1.384 . S
C727 C18 1.407 . S
C731 C42 1.353 1_545 S
C745 C2 1.347 1_655 S
C749 C38 1.408 . S
C763 C58 1.404 . S
C767 C22 1.342 . S
C781 C78 1.445 . S
C785 C82 1.374 1_455 S
C799 C102 1.387 . S
C803 C98 1.445 . S
C817 C118 1.446 . S
C821 C62 1.388 1_565 S
C835 C139 1.407 . S
C839 C164 1.352 1_565 S
C853 C159 1.404 . S
C857 C124 1.336 1_455 S
C871 C179 1.405 . S
C875 C144 1.348 . S
C889 C199 1.446 . S
C893 C204 1.388 1_655 S
C907 C224 1.382 . S
C911 C219 1.447 . S
C925 C184 1.388 1_545 S
C929 C239 1.447 . S
C943 C282 1.385 . S
C947 C258 1.441 . S
C961 C278 1.438 . S
C965 C242 1.372 . S
C979 C262 1.385 . S
C983 C298 1.442 . S
C997 C318 1.458 . S
C1001 C322 1.388 . S
C1015 C342 1.397 . S
C1019 C338 1.457 . S
C1033 C302 1.395 . S
C1037 C358 1.456 . S
C1051 C379 1.430 . S
C1055 C404 1.373 . S
C1069 C399 1.431 . S
C1073 C364 1.366 . S
C1087 C384 1.372 . S
C1091 C419 1.432 . S
C1105 C444 1.305 . S
C1109 C439 1.382 . S
C1123 C459 1.384 . S
C1127 C464 1.308 . S
C1141 C424 1.305 . S
C1145 C479 1.381 . S
C1159 C498 1.431 . S
C1163 C522 1.366 . S
C1177 C518 1.428 . S
C1181 C482 1.362 . S
C1195 C538 1.432 . S
C1199 C502 1.379 . S
C1213 C558 1.383 . S
C1217 C562 1.305 . S
C1231 C578 1.385 . S
C1235 C582 1.324 . S
C1249 C598 1.386 . S
C1253 C542 1.323 . S
C1267 C619 1.442 . S
C1271 C644 1.377 . S
C1285 C639 1.441 . S
C1289 C604 1.373 . S
C1303 C624 1.385 . S
C1307 C659 1.443 . S
C1321 C679 1.458 . S
C1325 C684 1.398 . S
C1339 C699 1.457 . S
C1343 C704 1.398 . S
C1357 C664 1.400 . S
C1361 C719 1.459 . S
C1375 C4 1.291 . S
C1379 C418 1.364 . S
C1393 C378 1.378 . S
C1397 C24 1.273 . S
C1411 C44 1.293 . S
C1415 C398 1.365 . S
C1429 C64 1.234 . S
C1433 C698 1.314 . S
C1447 C718 1.322 . S
C1451 C84 1.236 . S
C1465 C104 1.254 . S
C1469 C678 1.314 . S
C1483 C539 1.367 . S
C1487 C122 1.278 . S
C1501 C142 1.295 . S
C1505 C499 1.368 . S
C1519 C162 1.270 . S
C1523 C519 1.375 . S
C1537 C339 1.318 . S
C1541 C182 1.250 . S
C1555 C359 1.309 . S
C1559 C202 1.241 . S
C1573 C319 1.320 . S
C1577 C222 1.247 . S
C1591 C244 1.256 . S
C1595 C658 1.340 . S
C1609 C264 1.260 . S
C1613 C618 1.350 . S
C1627 C638 1.346 . S
C1631 C284 1.250 . S
C1645 C218 1.328 . S
C1649 C304 1.273 1_455 S
C1663 C238 1.327 . S
C1667 C324 1.271 . S
C1681 C198 1.340 . S
C1685 C344 1.250 1_565 S
C1699 C59 1.366 . S
C1703 C362 1.276 1_565 S
C1717 C382 1.272 1_455 S
C1721 C19 1.368 . S
C1735 C402 1.271 . S
C1739 C39 1.376 . S
C1753 C579 1.364 . S
C1757 C422 1.308 . S
C1771 C599 1.350 . S
C1775 C442 1.324 . S
C1789 C462 1.298 . S
C1793 C559 1.364 . S
C1807 C178 1.377 . S
C1811 C484 1.275 1_545 S
C1825 C138 1.366 . S
C1829 C504 1.294 1_655 S
C1843 C158 1.366 . S
C1847 C524 1.275 . S
C1861 C544 1.302 . S
C1865 C458 1.354 . S
C1879 C478 1.354 . S
C1883 C564 1.309 . S
C1897 C584 1.299 . S
C1901 C438 1.355 . S
C1915 C602 1.268 . S
C1919 C299 1.347 . S
C1933 C622 1.275 . S
C1937 C259 1.340 . S
C1951 C642 1.253 . S
C1955 C279 1.342 . S
C1969 C662 1.249 1_655 S
C1973 C99 1.338 . S
C1987 C119 1.331 . S
C1991 C682 1.273 . S
C2005 C79 1.337 . S
C2009 C702 1.250 1_545 S
C2023 C592 1.866 . S
C2027 C12 1.849 . S
C2041 C552 1.869 . S
C2045 C32 1.852 . S
C2059 C52 1.861 . S
C2063 C572 1.858 . S
C2077 C272 2.034 . S
C2081 C72 2.035 . S
C2095 C92 2.042 . S
C2099 C292 2.040 . S
C2113 C112 2.042 . S
C2117 C252 2.040 . S
C2131 C129 1.867 . S
C2135 C469 1.864 . S
C2149 C149 1.866 . S
C2153 C429 1.862 . S
C2167 C169 1.869 . S
C2171 C449 1.865 . S
C2185 C629 2.039 . S
C2189 C189 2.041 . S
C2203 C649 2.036 . S
C2207 C209 2.038 . S
C2221 C609 2.035 . S
C2225 C229 2.037 . S
C2239 C312 2.088 . S
C2243 C512 2.085 . S
C2257 C332 2.084 . S
C2261 C532 2.080 . S
C2275 C352 2.084 . S
C2279 C492 2.081 . S
C2293 C369 2.079 . S
C2297 C709 2.083 . S
C2311 C669 2.090 . S
C2315 C389 2.087 . S
C2329 C409 2.087 . S
C2333 C689 2.090 . S
C2347 C89 1.353 . S
C2351 C9 1.355 . S
C2365 C109 1.362 . S
C2369 C29 1.358 . S
C2383 C69 1.364 . S
C2387 C49 1.361 . S
C2401 C132 1.356 . S
C2405 C212 1.360 . S
C2419 C232 1.348 . S
C2423 C152 1.349 . S
C2437 C172 1.362 . S
C2441 C192 1.365 . S
C2455 C329 1.423 . S
C2459 C249 1.422 . S
C2473 C349 1.410 . S
C2477 C269 1.412 . S
C2491 C309 1.422 . S
C2495 C289 1.419 . S
C2509 C452 1.562 . S
C2513 C372 1.562 . S
C2527 C392 1.555 . S
C2531 C472 1.576 . S
C2545 C412 1.566 . S
C2549 C432 1.585 . S
C2563 C489 1.553 . S
C2567 C569 1.573 . S
C2581 C589 1.574 . S
C2585 C509 1.573 . S
C2599 C529 1.569 . S
C2603 C549 1.586 . S
C2617 C612 1.407 . S
C2621 C692 1.406 . S
C2635 C712 1.405 . S
C2639 C632 1.406 . S
C2653 C652 1.409 . S
C2657 C672 1.413 . S
