# Generated by pormake.
# Topology lcy-e, (6)-cn, num edge types: 1
# Building blocks:
#     Node 0, Type 0, BuildingBlock: PAMTOO_clean_sbu_0, # of connection points: 6
#     Node 1, Type 0, BuildingBlock: PAMTOO_clean_sbu_0, # of connection points: 6
#     Node 2, Type 0, BuildingBlock: PAMTOO_clean_sbu_0, # of connection points: 6
#     Node 3, Type 0, BuildingBlock: PAMTOO_clean_sbu_0, # of connection points: 6
#     Node 4, Type 0, BuildingBlock: PAMTOO_clean_sbu_0, # of connection points: 6
#     Node 5, Type 0, BuildingBlock: PAMTOO_clean_sbu_0, # of connection points: 6
#     Node 6, Type 0, BuildingBlock: PAMTOO_clean_sbu_0, # of connection points: 6
#     Node 7, Type 0, BuildingBlock: PAMTOO_clean_sbu_0, # of connection points: 6
#     Node 8, Type 0, BuildingBlock: PAMTOO_clean_sbu_0, # of connection points: 6
#     Node 9, Type 0, BuildingBlock: PAMTOO_clean_sbu_0, # of connection points: 6
#     Node 10, Type 0, BuildingBlock: PAMTOO_clean_sbu_0, # of connection points: 6
#     Node 11, Type 0, BuildingBlock: PAMTOO_clean_sbu_0, # of connection points: 6
#     Edge 12, Type (0, 0), BuildingBlock: ZUJKAS_clean_linker_0, # of connection points: 2
#     Edge 13, Type (0, 0), BuildingBlock: ZUJKAS_clean_linker_0, # of connection points: 2
#     Edge 14, Type (0, 0), BuildingBlock: ZUJKAS_clean_linker_0, # of connection points: 2
#     Edge 15, Type (0, 0), BuildingBlock: ZUJKAS_clean_linker_0, # of connection points: 2
#     Edge 16, Type (0, 0), BuildingBlock: ZUJKAS_clean_linker_0, # of connection points: 2
#     Edge 17, Type (0, 0), BuildingBlock: ZUJKAS_clean_linker_0, # of connection points: 2
#     Edge 18, Type (0, 0), BuildingBlock: ZUJKAS_clean_linker_0, # of connection points: 2
#     Edge 19, Type (0, 0), BuildingBlock: ZUJKAS_clean_linker_0, # of connection points: 2
#     Edge 20, Type (0, 0), BuildingBlock: ZUJKAS_clean_linker_0, # of connection points: 2
#     Edge 21, Type (0, 0), BuildingBlock: ZUJKAS_clean_linker_0, # of connection points: 2
#     Edge 22, Type (0, 0), BuildingBlock: ZUJKAS_clean_linker_0, # of connection points: 2
#     Edge 23, Type (0, 0), BuildingBlock: ZUJKAS_clean_linker_0, # of connection points: 2
#     Edge 24, Type (0, 0), BuildingBlock: ZUJKAS_clean_linker_0, # of connection points: 2
#     Edge 25, Type (0, 0), BuildingBlock: ZUJKAS_clean_linker_0, # of connection points: 2
#     Edge 26, Type (0, 0), BuildingBlock: ZUJKAS_clean_linker_0, # of connection points: 2
#     Edge 27, Type (0, 0), BuildingBlock: ZUJKAS_clean_linker_0, # of connection points: 2
#     Edge 28, Type (0, 0), BuildingBlock: ZUJKAS_clean_linker_0, # of connection points: 2
#     Edge 29, Type (0, 0), BuildingBlock: ZUJKAS_clean_linker_0, # of connection points: 2
#     Edge 30, Type (0, 0), BuildingBlock: ZUJKAS_clean_linker_0, # of connection points: 2
#     Edge 31, Type (0, 0), BuildingBlock: ZUJKAS_clean_linker_0, # of connection points: 2
#     Edge 32, Type (0, 0), BuildingBlock: ZUJKAS_clean_linker_0, # of connection points: 2
#     Edge 33, Type (0, 0), BuildingBlock: ZUJKAS_clean_linker_0, # of connection points: 2
#     Edge 34, Type (0, 0), BuildingBlock: ZUJKAS_clean_linker_0, # of connection points: 2
#     Edge 35, Type (0, 0), BuildingBlock: ZUJKAS_clean_linker_0, # of connection points: 2
#     Edge 36, Type (0, 0), BuildingBlock: ZUJKAS_clean_linker_0, # of connection points: 2
#     Edge 37, Type (0, 0), BuildingBlock: ZUJKAS_clean_linker_0, # of connection points: 2
#     Edge 38, Type (0, 0), BuildingBlock: ZUJKAS_clean_linker_0, # of connection points: 2
#     Edge 39, Type (0, 0), BuildingBlock: ZUJKAS_clean_linker_0, # of connection points: 2
#     Edge 40, Type (0, 0), BuildingBlock: ZUJKAS_clean_linker_0, # of connection points: 2
#     Edge 41, Type (0, 0), BuildingBlock: ZUJKAS_clean_linker_0, # of connection points: 2
#     Edge 42, Type (0, 0), BuildingBlock: ZUJKAS_clean_linker_0, # of connection points: 2
#     Edge 43, Type (0, 0), BuildingBlock: ZUJKAS_clean_linker_0, # of connection points: 2
#     Edge 44, Type (0, 0), BuildingBlock: ZUJKAS_clean_linker_0, # of connection points: 2
#     Edge 45, Type (0, 0), BuildingBlock: ZUJKAS_clean_linker_0, # of connection points: 2
#     Edge 46, Type (0, 0), BuildingBlock: ZUJKAS_clean_linker_0, # of connection points: 2
#     Edge 47, Type (0, 0), BuildingBlock: ZUJKAS_clean_linker_0, # of connection points: 2
# Relax obj value: 0.154
# Max RMSD: 0.295
# Mean RMSD: 0.278
data_MOF--net-lcy-e--node1-PAMTOO_clean_sbu_0--edge1-ZUJKAS_clean_linker_0
_symmetry_space_group_name_H-M    P1
_symmetry_Int_Tables_number       1
_symmetry_cell_setting            triclinic
loop_
_symmetry_equiv_pos_as_xyz
'x, y, z'
_cell_length_a     55.21678
_cell_length_b     54.101178
_cell_length_c     56.209807
_cell_angle_alpha  90.054712
_cell_angle_beta   89.750989
_cell_angle_gamma 89.27914
loop_
_atom_site_label
_atom_site_type_symbol
_atom_site_fract_x
_atom_site_fract_y
_atom_site_fract_z
_atom_type_partial_charge
Dy0 Dy 0.1259 0.25265 0.44706 0.0
Dy1 Dy 0.14506 0.21045 0.48519 0.0
C2 C 0.17107 0.21697 0.43533 0.0
O3 O 0.09607 0.22557 0.45039 0.0
O4 O 0.11893 0.19174 0.46078 0.0
O5 O 0.10816 0.26156 0.41402 0.0
O6 O 0.12151 0.29094 0.43643 0.0
O7 O 0.1097 0.22408 0.49903 0.0
O8 O 0.11075 0.263 0.48317 0.0
O9 O 0.1604 0.24693 0.49665 0.0
O10 O 0.16164 0.26525 0.46003 0.0
O11 O 0.15241 0.19863 0.52114 0.0
O12 O 0.16015 0.17398 0.49156 0.0
C13 C 0.09881 0.20155 0.45236 0.0
O14 O 0.15107 0.2271 0.42694 0.0
O15 O 0.17431 0.21407 0.45825 0.0
C16 C 0.1228 0.29715 0.39478 0.0
C17 C 0.14107 0.31954 0.35306 0.0
C18 C 0.15106 0.29711 0.36144 0.0
C19 C 0.14205 0.28605 0.38213 0.0
C20 C 0.11308 0.31967 0.38679 0.0
C21 C 0.12213 0.33079 0.36619 0.0
C22 C 0.11224 0.28517 0.41589 0.0
C23 C 0.10352 0.24752 0.49981 0.0
C24 C 0.16796 0.26461 0.48247 0.0
C25 C 0.14662 0.15562 0.52725 0.0
C26 C 0.12474 0.11556 0.55089 0.0
C27 C 0.11441 0.13942 0.55224 0.0
C28 C 0.12517 0.15925 0.54044 0.0
C29 C 0.15693 0.13183 0.52588 0.0
C30 C 0.14606 0.11197 0.5375 0.0
C31 C 0.15839 0.1762 0.51461 0.0
H32 H 0.16548 0.28777 0.35173 0.0
H33 H 0.14986 0.26866 0.38806 0.0
H34 H 0.09832 0.32858 0.3964 0.0
H35 H 0.1143 0.34828 0.36059 0.0
H36 H 0.09785 0.1427 0.56222 0.0
H37 H 0.11666 0.17736 0.54162 0.0
H38 H 0.17345 0.1286 0.51581 0.0
H39 H 0.15458 0.09386 0.53633 0.0
Dy40 Dy 0.04691 0.89457 0.74754 0.0
Dy41 Dy 0.00575 0.8722 0.71186 0.0
C42 C 0.05704 0.84654 0.71595 0.0
O43 O 0.0402 0.92336 0.7201 0.0
O44 O 0.02945 0.89715 0.69022 0.0
O45 O 0.08196 0.91124 0.75171 0.0
O46 O 0.0596 0.90396 0.78262 0.0
O47 O 0.99141 0.90865 0.72416 0.0
O48 O 0.01108 0.90995 0.75987 0.0
O49 O 0.99739 0.85747 0.74842 0.0
O50 O 0.0357 0.85909 0.76386 0.0
O51 O 0.96845 0.86631 0.70194 0.0
O52 O 0.99765 0.85219 0.67974 0.0
C53 C 0.0375 0.91865 0.69741 0.0
O54 O 0.06569 0.8679 0.7228 0.0
O55 O 0.03369 0.84265 0.71594 0.0
C56 C 0.10155 0.89784 0.78633 0.0
C57 C 0.14148 0.87395 0.80773 0.0
C58 C 0.12309 0.8601 0.79702 0.0
C59 C 0.10332 0.87195 0.78636 0.0
C60 C 0.11979 0.91177 0.79688 0.0
C61 C 0.13962 0.89994 0.8075 0.0
C62 C 0.08095 0.91026 0.77487 0.0
C63 C 0.99284 0.91647 0.74618 0.0
C64 C 0.01325 0.85149 0.76498 0.0
C65 C 0.96248 0.86613 0.66043 0.0
C66 C 0.9409 0.88439 0.61846 0.0
C67 C 0.95757 0.89879 0.63112 0.0
C68 C 0.96826 0.88973 0.65194 0.0
C69 C 0.94582 0.85178 0.64801 0.0
C70 C 0.9351 0.86081 0.62722 0.0
C71 C 0.97437 0.85603 0.6817 0.0
H72 H 0.12379 0.84008 0.79714 0.0
H73 H 0.08937 0.86092 0.77817 0.0
H74 H 0.11875 0.93178 0.79681 0.0
H75 H 0.15364 0.91116 0.81527 0.0
H76 H 0.96222 0.91712 0.62504 0.0
H77 H 0.98115 0.90105 0.66134 0.0
H78 H 0.9413 0.83346 0.65426 0.0
H79 H 0.92261 0.84911 0.61776 0.0
Dy80 Dy 0.39381 0.74724 0.94458 0.0
Dy81 Dy 0.36869 0.78432 0.98579 0.0
C82 C 0.34629 0.77844 0.93394 0.0
O83 O 0.40642 0.78581 0.93899 0.0
O84 O 0.40527 0.79905 0.97742 0.0
O85 O 0.41008 0.74489 0.9097 0.0
O86 O 0.40586 0.71172 0.93062 0.0
O87 O 0.39413 0.75999 0.00533 0.0
O88 O 0.41942 0.74497 0.97559 0.0
O89 O 0.34427 0.75134 0.9852 0.0
O90 O 0.36935 0.72337 0.96549 0.0
O91 O 0.35635 0.79395 0.02128 0.0
O92 O 0.35389 0.82073 0.99287 0.0
C93 C 0.41416 0.80039 0.95585 0.0
O94 O 0.3568 0.75675 0.93148 0.0
O95 O 0.35312 0.79395 0.95045 0.0
C96 C 0.40039 0.70845 0.88901 0.0
C97 C 0.38083 0.68542 0.84829 0.0
C98 C 0.36927 0.70621 0.85858 0.0
C99 C 0.37891 0.71753 0.87876 0.0
C100 C 0.41186 0.68763 0.87904 0.0
C101 C 0.40217 0.67618 0.85891 0.0
C102 C 0.41111 0.72082 0.90979 0.0
C103 C 0.41416 0.74891 0.99822 0.0
C104 C 0.34987 0.7287 0.97808 0.0
C105 C 0.36315 0.83601 0.03077 0.0
C106 C 0.38462 0.8749 0.0566 0.0
C107 C 0.39869 0.85466 0.04846 0.0
C108 C 0.38807 0.83545 0.0356 0.0
C109 C 0.34899 0.85591 0.03906 0.0
C110 C 0.35958 0.87516 0.05183 0.0
C111 C 0.35206 0.81698 0.01568 0.0
H112 H 0.35301 0.71406 0.8508 0.0
H113 H 0.36971 0.73359 0.88619 0.0
H114 H 0.42837 0.68025 0.88677 0.0
H115 H 0.41134 0.65997 0.85179 0.0
H116 H 0.41794 0.85363 0.05201 0.0
H117 H 0.39937 0.82033 0.02916 0.0
H118 H 0.32979 0.85682 0.03523 0.0
H119 H 0.34821 0.89056 0.05742 0.0
Dy120 Dy 0.47349 0.10591 0.24102 0.0
Dy121 Dy 0.51361 0.12444 0.20166 0.0
C122 C 0.46352 0.1524 0.20763 0.0
O123 O 0.47794 0.07505 0.21511 0.0
O124 O 0.48871 0.09824 0.18291 0.0
O125 O 0.43907 0.08895 0.24805 0.0
O126 O 0.46108 0.10154 0.27736 0.0
O127 O 0.52806 0.08874 0.21537 0.0
O128 O 0.50931 0.08912 0.25189 0.0
O129 O 0.52497 0.13992 0.23704 0.0
O130 O 0.48759 0.14148 0.25486 0.0
O131 O 0.55037 0.12992 0.18965 0.0
O132 O 0.52023 0.14194 0.16773 0.0
C133 C 0.47998 0.07779 0.19203 0.0
O134 O 0.45437 0.13179 0.21587 0.0
O135 O 0.487 0.15524 0.20634 0.0
C136 C 0.41863 0.10489 0.28173 0.0
C137 C 0.37669 0.12652 0.30239 0.0
C138 C 0.38655 0.13611 0.28122 0.0
C139 C 0.40736 0.12543 0.27102 0.0
C140 C 0.40908 0.09543 0.30291 0.0
C141 C 0.38835 0.10614 0.31318 0.0
C142 C 0.44013 0.09301 0.2709 0.0
C143 C 0.52723 0.08198 0.23777 0.0
C144 C 0.51051 0.14757 0.25432 0.0
C145 C 0.55582 0.12897 0.14763 0.0
C146 C 0.5792 0.11153 0.10597 0.0
C147 C 0.5778 0.09649 0.12634 0.0
C148 C 0.56611 0.10509 0.14698 0.0
C149 C 0.55715 0.14394 0.12734 0.0
C150 C 0.56867 0.13532 0.10671 0.0
C151 C 0.54364 0.13882 0.16911 0.0
H152 H 0.37797 0.15161 0.27228 0.0
H153 H 0.41453 0.13307 0.25466 0.0
H154 H 0.41763 0.07968 0.3115 0.0
H155 H 0.38159 0.09856 0.32971 0.0
H156 H 0.58553 0.07799 0.12624 0.0
H157 H 0.56514 0.0931 0.16237 0.0
H158 H 0.54935 0.16242 0.12749 0.0
H159 H 0.56969 0.14748 0.09145 0.0
Dy160 Dy 0.64831 0.28906 0.48083 0.0
Dy161 Dy 0.62971 0.2508 0.52216 0.0
C162 C 0.60222 0.30144 0.51295 0.0
O163 O 0.67797 0.28684 0.50736 0.0
O164 O 0.65479 0.27753 0.53983 0.0
O165 O 0.66506 0.3236 0.47177 0.0
O166 O 0.6533 0.29891 0.44388 0.0
O167 O 0.66541 0.2362 0.50997 0.0
O168 O 0.66431 0.25175 0.47212 0.0
O169 O 0.6149 0.23704 0.48732 0.0
O170 O 0.61334 0.27423 0.46794 0.0
O171 O 0.62478 0.21399 0.53606 0.0
O172 O 0.61227 0.24588 0.55627 0.0
C173 C 0.67486 0.28614 0.53047 0.0
O174 O 0.62251 0.31023 0.50435 0.0
O175 O 0.59955 0.27765 0.51613 0.0
C176 C 0.64878 0.34162 0.43739 0.0
C177 C 0.62529 0.38207 0.4155 0.0
C178 C 0.61419 0.36961 0.43451 0.0
C179 C 0.62582 0.3495 0.44533 0.0
C180 C 0.6599 0.35388 0.41843 0.0
C181 C 0.64825 0.37394 0.40753 0.0
C182 C 0.66125 0.32086 0.44905 0.0
C183 C 0.67191 0.23511 0.48753 0.0
C184 C 0.60735 0.2509 0.4695 0.0
C185 C 0.62693 0.21185 0.57812 0.0
C186 C 0.6471 0.19384 0.62085 0.0
C187 C 0.66183 0.19746 0.60069 0.0
C188 C 0.65185 0.20654 0.57953 0.0
C189 C 0.61221 0.20818 0.59814 0.0
C190 C 0.62219 0.19931 0.61933 0.0
C191 C 0.61606 0.22204 0.5563 0.0
H192 H 0.5964 0.37523 0.44086 0.0
H193 H 0.61694 0.34013 0.45993 0.0
H194 H 0.67765 0.34804 0.41215 0.0
H195 H 0.65737 0.38332 0.3931 0.0
H196 H 0.68111 0.19362 0.6014 0.0
H197 H 0.6636 0.20954 0.56434 0.0
H198 H 0.59297 0.21228 0.59741 0.0
H199 H 0.61033 0.19643 0.63445 0.0
Dy200 Dy 0.96997 0.39566 0.72951 0.0
Dy201 Dy 0.00962 0.37273 0.76889 0.0
C202 C 0.95781 0.34932 0.76118 0.0
O203 O 0.96225 0.4129 0.76483 0.0
O204 O 0.99948 0.41028 0.78236 0.0
O205 O 0.93367 0.40974 0.72442 0.0
O206 O 0.958 0.40667 0.69433 0.0
O207 O 0.03059 0.39984 0.74793 0.0
O208 O 1.00126 0.42171 0.72694 0.0
O209 O 0.01213 0.34675 0.73752 0.0
O210 O 0.99414 0.37102 0.70859 0.0
O211 O 0.04522 0.36071 0.78055 0.0
O212 O 0.01443 0.3579 0.8042 0.0
C213 C 0.97792 0.4205 0.7806 0.0
O214 O 0.9575 0.35792 0.73941 0.0
O215 O 0.97286 0.3581 0.77691 0.0
C216 C 0.91649 0.39911 0.68769 0.0
C217 C 0.8776 0.37762 0.66297 0.0
C218 C 0.88994 0.36432 0.6808 0.0
C219 C 0.90925 0.37494 0.69299 0.0
C220 C 0.90449 0.41233 0.66975 0.0
C221 C 0.88526 0.40168 0.65745 0.0
C222 C 0.93584 0.41098 0.70137 0.0
C223 C 0.02379 0.41813 0.73403 0.0
C224 C 0.00696 0.35162 0.71507 0.0
C225 C 0.05174 0.36715 0.82168 0.0
C226 C 0.07547 0.38773 0.86136 0.0
C227 C 0.06398 0.40309 0.84451 0.0
C228 C 0.05217 0.39288 0.82487 0.0
C229 C 0.0635 0.3518 0.83814 0.0
C230 C 0.07528 0.36196 0.85778 0.0
C231 C 0.03788 0.35607 0.80215 0.0
H232 H 0.88473 0.34565 0.68527 0.0
H233 H 0.91835 0.36439 0.70675 0.0
H234 H 0.90978 0.43103 0.66548 0.0
H235 H 0.876 0.41251 0.644 0.0
H236 H 0.06356 0.42296 0.84682 0.0
H237 H 0.04301 0.40502 0.81241 0.0
H238 H 0.0633 0.3319 0.83599 0.0
H239 H 0.08425 0.34961 0.87017 0.0
Dy240 Dy 0.86934 0.71366 0.9918 0.0
Dy241 Dy 0.89322 0.75016 0.03208 0.0
C242 C 0.91492 0.69726 0.02127 0.0
O243 O 0.85267 0.70415 0.02678 0.0
O244 O 0.85678 0.74067 0.04681 0.0
O245 O 0.85524 0.67751 0.98409 0.0
O246 O 0.85769 0.70478 0.95615 0.0
O247 O 0.86751 0.77415 0.01207 0.0
O248 O 0.84312 0.7457 0.99346 0.0
O249 O 0.91803 0.75222 1.00013 0.0
O250 O 0.89 0.74177 0.97196 0.0
O251 O 0.90526 0.78551 0.04526 0.0
O252 O 0.91085 0.75247 0.06618 0.0
C253 C 0.84613 0.71932 0.04392 0.0
O254 O 0.90668 0.69913 0.99953 0.0
O255 O 0.90593 0.71144 0.03805 0.0
C256 C 0.86519 0.66311 0.94597 0.0
C257 C 0.88748 0.62519 0.91889 0.0
C258 C 0.90149 0.64368 0.92957 0.0
C259 C 0.89044 0.66245 0.94304 0.0
C260 C 0.85111 0.64496 0.93518 0.0
C261 C 0.86213 0.62616 0.92176 0.0
C262 C 0.85357 0.68175 0.96135 0.0
C263 C 0.84808 0.76855 0.99987 0.0
C264 C 0.91051 0.75194 0.9779 0.0
C265 C 0.90198 0.78895 0.087 0.0
C266 C 0.88337 0.80998 0.1293 0.0
C267 C 0.86765 0.80229 0.11117 0.0
C268 C 0.87688 0.79179 0.09022 0.0
C269 C 0.91773 0.79681 0.10485 0.0
C270 C 0.90852 0.80724 0.12583 0.0
C271 C 0.9118 0.77649 0.06577 0.0
H272 H 0.921 0.64366 0.92751 0.0
H273 H 0.9016 0.67629 0.95139 0.0
H274 H 0.83162 0.64508 0.93749 0.0
H275 H 0.85081 0.61203 0.91413 0.0
H276 H 0.8482 0.8039 0.1134 0.0
H277 H 0.86444 0.78554 0.07669 0.0
H278 H 0.93715 0.79463 0.10267 0.0
H279 H 0.92111 0.81326 0.13932 0.0
Dy280 Dy 0.50144 0.63392 0.2683 0.0
Dy281 Dy 0.54202 0.61135 0.23056 0.0
C282 C 0.53413 0.58635 0.28075 0.0
O283 O 0.5301 0.66222 0.26535 0.0
O284 O 0.56167 0.63624 0.25577 0.0
O285 O 0.49347 0.653 0.30117 0.0
O286 O 0.46418 0.64086 0.27868 0.0
O287 O 0.53116 0.6484 0.21748 0.0
O288 O 0.49248 0.64892 0.23193 0.0
O289 O 0.50571 0.59616 0.21989 0.0
O290 O 0.48762 0.59759 0.2566 0.0
O291 O 0.55375 0.60444 0.19443 0.0
O292 O 0.57669 0.59361 0.22391 0.0
C293 C 0.5534 0.65741 0.26423 0.0
O294 O 0.52504 0.60739 0.28873 0.0
O295 O 0.53719 0.58232 0.25792 0.0
C296 C 0.45809 0.63952 0.32024 0.0
C297 C 0.43598 0.62043 0.36161 0.0
C298 C 0.45372 0.60653 0.34924 0.0
C299 C 0.46465 0.61598 0.32871 0.0
C300 C 0.44034 0.65336 0.33235 0.0
C301 C 0.42936 0.64393 0.35283 0.0
C302 C 0.47016 0.65006 0.29927 0.0
C303 C 0.50853 0.6556 0.21584 0.0
C304 C 0.4881 0.58982 0.23451 0.0
C305 C 0.59606 0.60815 0.18939 0.0
C306 C 0.6371 0.63018 0.16838 0.0
C307 C 0.61779 0.64489 0.17713 0.0
C308 C 0.59751 0.63398 0.1876 0.0
C309 C 0.61518 0.59342 0.18074 0.0
C310 C 0.63551 0.60429 0.17036 0.0
C311 C 0.57513 0.59646 0.20093 0.0
H312 H 0.45904 0.58828 0.35534 0.0
H313 H 0.47834 0.60501 0.31953 0.0
H314 H 0.43515 0.67161 0.32612 0.0
H315 H 0.41603 0.65527 0.36207 0.0
H316 H 0.61822 0.66483 0.17569 0.0
H317 H 0.58296 0.6457 0.19433 0.0
H318 H 0.61449 0.57347 0.1822 0.0
H319 H 0.65016 0.59237 0.16425 0.0
Dy320 Dy 0.25597 0.45043 0.09469 0.0
Dy321 Dy 0.21896 0.49363 0.11604 0.0
C322 C 0.22132 0.44021 0.13863 0.0
O323 O 0.22001 0.44479 0.07787 0.0
O324 O 0.20544 0.48439 0.07958 0.0
O325 O 0.26021 0.41284 0.08246 0.0
O326 O 0.29082 0.43741 0.08163 0.0
O327 O 0.25089 0.5117 0.10017 0.0
O328 O 0.25901 0.48375 0.07074 0.0
O329 O 0.24957 0.49335 0.14248 0.0
O330 O 0.27796 0.46988 0.12168 0.0
O331 O 0.20586 0.53128 0.11455 0.0
O332 O 0.18922 0.50554 0.13881 0.0
C333 C 0.2055 0.46225 0.07002 0.0
O334 O 0.24349 0.43761 0.13045 0.0
O335 O 0.20668 0.45715 0.12988 0.0
C336 C 0.29836 0.39521 0.09017 0.0
C337 C 0.32401 0.35542 0.11119 0.0
C338 C 0.31307 0.37389 0.12544 0.0
C339 C 0.30031 0.39359 0.11501 0.0
C340 C 0.30955 0.37714 0.07589 0.0
C341 C 0.32228 0.35744 0.08628 0.0
C342 C 0.28347 0.41474 0.07908 0.0
C343 C 0.25993 0.50643 0.07922 0.0
C344 C 0.27181 0.48445 0.13951 0.0
C345 C 0.16422 0.53629 0.1211 0.0
C346 C 0.12081 0.55652 0.10255 0.0
C347 C 0.131 0.5347 0.09287 0.0
C348 C 0.15253 0.52469 0.10205 0.0
C349 C 0.15395 0.55771 0.13109 0.0
C350 C 0.13246 0.56773 0.12194 0.0
C351 C 0.18808 0.52752 0.12931 0.0
H352 H 0.31383 0.3728 0.14466 0.0
H353 H 0.2916 0.40731 0.12633 0.0
H354 H 0.30816 0.37809 0.05669 0.0
H355 H 0.33078 0.34378 0.07477 0.0
H356 H 0.12241 0.52542 0.07812 0.0
H357 H 0.1603 0.50819 0.09401 0.0
H358 H 0.16288 0.56706 0.1456 0.0
H359 H 0.12541 0.58473 0.12961 0.0
Dy360 Dy 0.7127 1.00142 0.84732 0.0
Dy361 Dy 0.76186 0.04133 0.86545 0.0
C362 C 0.71263 0.04084 0.89497 0.0
O363 O 0.71551 0.03385 0.82243 0.0
O364 O 0.73745 0.06421 0.84231 0.0
O365 O 0.67429 0.00242 0.84021 0.0
O366 O 0.69388 0.96741 0.84083 0.0
O367 O 0.75288 0.01246 0.84176 0.0
O368 O 0.7402 0.98268 0.82251 0.0
O369 O 0.76745 0.00644 0.88645 0.0
O370 O 0.73274 0.98342 0.87754 0.0
O371 O 0.79451 0.04956 0.84616 0.0
O372 O 0.78901 0.06384 0.88218 0.0
C373 C 0.72308 0.05683 0.82497 0.0
O374 O 0.70376 0.02327 0.88095 0.0
O375 O 0.73394 0.05132 0.89202 0.0
C376 C 0.65313 0.96719 0.85441 0.0
C377 C 0.61494 0.94506 0.87995 0.0
C378 C 0.6146 0.97062 0.87547 0.0
C379 C 0.63349 0.98158 0.86283 0.0
C380 C 0.65346 0.94166 0.85898 0.0
C381 C 0.63465 0.93074 0.8717 0.0
C382 C 0.67269 0.97834 0.84006 0.0
C383 C 0.75927 0.99502 0.8275 0.0
C384 C 0.75335 0.9869 0.88904 0.0
C385 C 0.8117 0.08837 0.85464 0.0
C386 C 0.83027 0.13375 0.83811 0.0
C387 C 0.83573 0.11155 0.82614 0.0
C388 C 0.82666 0.08913 0.83438 0.0
C389 C 0.80621 0.11056 0.86669 0.0
C390 C 0.81547 0.13302 0.85853 0.0
C391 C 0.80244 0.06424 0.86285 0.0
H392 H 0.59969 0.98214 0.88173 0.0
H393 H 0.63257 1.00128 0.85948 0.0
H394 H 0.66814 0.93 0.85245 0.0
H395 H 0.63523 0.91094 0.87451 0.0
H396 H 0.84739 0.11143 0.81059 0.0
H397 H 0.83142 0.07229 0.8249 0.0
H398 H 0.79478 0.11062 0.88239 0.0
H399 H 0.81084 0.14985 0.86805 0.0
Dy400 Dy 0.76171 0.9479 0.38129 0.0
Dy401 Dy 0.80017 0.99048 0.36357 0.0
C402 C 0.79654 0.93926 0.33653 0.0
O403 O 0.78835 0.95171 0.41049 0.0
O404 O 0.82056 0.96548 0.38859 0.0
O405 O 0.75524 0.91174 0.39597 0.0
O406 O 0.72499 0.93593 0.38734 0.0
O407 O 0.78647 0.00265 0.39888 0.0
O408 O 0.74945 0.98425 0.397 0.0
O409 O 0.76361 1.00068 0.34848 0.0
O410 O 0.74791 0.96176 0.34672 0.0
O411 O 0.8097 0.02882 0.35872 0.0
O412 O 0.83439 0.99961 0.34738 0.0
C413 C 0.81166 0.95531 0.40796 0.0
O414 O 0.78767 0.92931 0.35597 0.0
O415 O 0.7978 0.96329 0.33409 0.0
C416 C 0.71972 0.89323 0.38183 0.0
C417 C 0.696 0.85393 0.35907 0.0
C418 C 0.7156 0.8657 0.34794 0.0
C419 C 0.72732 0.88525 0.3592 0.0
C420 C 0.70028 0.88154 0.39302 0.0
C421 C 0.68849 0.86207 0.38175 0.0
C422 C 0.73179 0.91379 0.39384 0.0
C423 C 0.76361 1.00174 0.40506 0.0
C424 C 0.74704 0.98522 0.34094 0.0
C425 C 0.85161 0.03657 0.3611 0.0
C426 C 0.89169 0.06156 0.38022 0.0
C427 C 0.88113 0.04179 0.39263 0.0
C428 C 0.86121 0.02942 0.38317 0.0
C429 C 0.86193 0.05631 0.34876 0.0
C430 C 0.88177 0.06871 0.35821 0.0
C431 C 0.83122 0.02334 0.35046 0.0
H432 H 0.72164 0.86005 0.33037 0.0
H433 H 0.74225 0.8942 0.35024 0.0
H434 H 0.69421 0.88747 0.4105 0.0
H435 H 0.67366 0.85321 0.39092 0.0
H436 H 0.88814 0.03599 0.40973 0.0
H437 H 0.85339 0.01423 0.39298 0.0
H438 H 0.85479 0.062 0.33167 0.0
H439 H 0.88963 0.0836 0.34803 0.0
Dy440 Dy 0.259 0.54583 0.59846 0.0
Dy441 Dy 0.29892 0.50368 0.61493 0.0
C442 C 0.29441 0.55478 0.6424 0.0
O443 O 0.28512 0.54199 0.56845 0.0
O444 O 0.31816 0.52894 0.58959 0.0
O445 O 0.25149 0.58152 0.58284 0.0
O446 O 0.22195 0.55823 0.59413 0.0
O447 O 0.28464 0.49093 0.58023 0.0
O448 O 0.24723 0.50938 0.58316 0.0
O449 O 0.26288 0.49319 0.63071 0.0
O450 O 0.24647 0.53213 0.63357 0.0
O451 O 0.31022 0.46556 0.61914 0.0
O452 O 0.33349 0.49509 0.63094 0.0
C453 C 0.30861 0.53896 0.57044 0.0
O454 O 0.28458 0.56477 0.62336 0.0
O455 O 0.29648 0.53074 0.64463 0.0
C456 C 0.21671 0.60134 0.5981 0.0
C457 C 0.19568 0.6434 0.61993 0.0
C458 C 0.20868 0.62594 0.63353 0.0
C459 C 0.21919 0.6051 0.62268 0.0
C460 C 0.20368 0.61857 0.58452 0.0
C461 C 0.19326 0.63943 0.59531 0.0
C462 C 0.2282 0.57995 0.58635 0.0
C463 C 0.26157 0.49172 0.57483 0.0
C464 C 0.24631 0.50863 0.63916 0.0
C465 C 0.35265 0.45924 0.61605 0.0
C466 C 0.39435 0.4373 0.59531 0.0
C467 C 0.37442 0.44424 0.58112 0.0
C468 C 0.35379 0.4552 0.59139 0.0
C469 C 0.3724 0.45239 0.63023 0.0
C470 C 0.39306 0.44159 0.61999 0.0
C471 C 0.33152 0.47142 0.62722 0.0
H472 H 0.21106 0.62859 0.65247 0.0
H473 H 0.22939 0.59202 0.6334 0.0
H474 H 0.20164 0.61593 0.56552 0.0
H475 H 0.18308 0.65234 0.5844 0.0
H476 H 0.37466 0.441 0.56211 0.0
H477 H 0.33877 0.46057 0.58009 0.0
H478 H 0.37194 0.45564 0.64925 0.0
H479 H 0.40818 0.43695 0.63142 0.0
H480 H 0.19246 0.29974 0.45765 0.0
H481 H 0.20955 0.33796 0.47294 0.0
H482 H 0.18948 0.31701 0.5443 0.0
H483 H 0.17274 0.27839 0.52916 0.0
H484 H 0.18492 0.37469 0.49567 0.0
H485 H 0.25867 0.33905 0.55343 0.0
H486 H 0.24365 0.31987 0.5319 0.0
H487 H 0.22955 0.32637 0.56016 0.0
C488 C 0.19207 0.30301 0.47666 0.0
C489 C 0.1813 0.28594 0.4922 0.0
C490 C 0.20177 0.32494 0.48536 0.0
C491 C 0.20095 0.33034 0.50977 0.0
C492 C 0.19077 0.31306 0.52544 0.0
H493 H 0.21406 0.47788 0.57168 0.0
H494 H 0.19859 0.43936 0.55502 0.0
C495 C 0.18118 0.29097 0.51676 0.0
C496 C 0.2095 0.35466 0.51849 0.0
H497 H 0.24921 0.38189 0.5565 0.0
C498 C 0.19904 0.37627 0.50892 0.0
C499 C 0.22805 0.35673 0.53563 0.0
C500 C 0.24082 0.33429 0.54573 0.0
C501 C 0.20654 0.39985 0.51608 0.0
C502 C 0.22467 0.40192 0.53364 0.0
C503 C 0.2352 0.38031 0.54313 0.0
C504 C 0.23346 0.42623 0.54212 0.0
C505 C 0.19535 0.4223 0.50436 0.0
C506 C 0.25818 0.43172 0.54044 0.0
C507 C 0.26707 0.45359 0.55009 0.0
C508 C 0.25143 0.47051 0.56164 0.0
C509 C 0.22653 0.46541 0.56262 0.0
C510 C 0.21766 0.44338 0.55309 0.0
H511 H 0.18687 0.4176 0.48707 0.0
H512 H 0.18101 0.43011 0.51615 0.0
H513 H 0.20907 0.4368 0.50127 0.0
H514 H 0.27071 0.41881 0.53204 0.0
H515 H 0.28635 0.45692 0.54901 0.0
H516 H 0.80075 0.00406 0.8519 0.0
H517 H 0.84237 0.99423 0.83963 0.0
H518 H 0.81561 0.95854 0.77655 0.0
H519 H 0.77386 0.9692 0.7884 0.0
H520 H 0.85244 0.93128 0.80739 0.0
H521 H 0.8786 0.02613 0.77951 0.0
H522 H 0.86302 0.0227 0.80751 0.0
H523 H 0.84742 0.0164 0.78032 0.0
C524 C 0.80378 0.99479 0.8351 0.0
C525 C 0.78423 0.98821 0.82063 0.0
C526 C 0.82752 0.98893 0.82826 0.0
C527 C 0.83199 0.97607 0.80701 0.0
C528 C 0.81245 0.96871 0.79291 0.0
H529 H 0.95597 0.93916 0.7221 0.0
H530 H 0.91819 0.95582 0.73875 0.0
C531 C 0.7887 0.97475 0.79968 0.0
C532 C 0.85707 0.96987 0.7997 0.0
H533 H 0.90871 0.99486 0.77693 0.0
C534 C 0.86483 0.94514 0.80085 0.0
C535 C 0.87303 0.9881 0.79118 0.0
C536 C 0.86522 0.01485 0.78937 0.0
C537 C 0.88823 0.93809 0.79352 0.0
C538 C 0.90418 0.95629 0.78488 0.0
C539 C 0.89645 0.98105 0.7838 0.0
C540 C 0.92834 0.94945 0.77536 0.0
C541 C 0.8956 0.91116 0.79448 0.0
C542 C 0.94682 0.94117 0.79055 0.0
C543 C 0.96854 0.93176 0.78111 0.0
C544 C 0.97196 0.93032 0.75633 0.0
C545 C 0.95385 0.93987 0.74126 0.0
C546 C 0.93227 0.94944 0.75072 0.0
H547 H 0.88007 0.89902 0.79866 0.0
H548 H 0.90369 0.90524 0.77724 0.0
H549 H 0.90956 0.90848 0.80843 0.0
H550 H 0.94409 0.9412 0.80965 0.0
H551 H 0.98209 0.92451 0.79319 0.0
H552 H 0.34245 0.68734 0.95219 0.0
H553 H 0.32346 0.64917 0.96514 0.0
H554 H 0.30509 0.68319 0.0324 0.0
H555 H 0.32363 0.72188 0.01915 0.0
H556 H 0.33912 0.6216 1.00115 0.0
H557 H 0.24321 0.64769 0.01759 0.0
H558 H 0.26358 0.66718 1.0011 0.0
H559 H 0.26387 0.66723 0.03313 0.0
C560 C 0.33388 0.68688 0.96956 0.0
C561 C 0.33454 0.70757 0.98471 0.0
C562 C 0.32307 0.66501 0.97694 0.0
C563 C 0.31275 0.66324 0.9997 0.0
C564 C 0.31248 0.68422 0.01456 0.0
H565 H 0.27233 0.55133 0.09632 0.0
H566 H 0.28493 0.58752 0.07424 0.0
C567 C 0.3231 0.70633 0.00702 0.0
C568 C 0.30446 0.63884 0.00849 0.0
H569 H 0.25692 0.60935 0.03457 0.0
C570 C 0.32101 0.61884 0.00812 0.0
C571 C 0.28082 0.63517 0.0175 0.0
C572 C 0.26177 0.65539 0.01715 0.0
C573 C 0.31487 0.59563 0.01739 0.0
C574 C 0.29157 0.59228 0.02717 0.0
C575 C 0.27479 0.61201 0.02698 0.0
C576 C 0.28507 0.56937 0.03999 0.0
C577 C 0.33364 0.57512 0.01763 0.0
C578 C 0.28139 0.54687 0.02804 0.0
C579 C 0.27408 0.52583 0.04072 0.0
C580 C 0.27031 0.52716 0.06545 0.0
C581 C 0.2748 0.5496 0.07726 0.0
C582 C 0.282 0.57042 0.06468 0.0
H583 H 0.35167 0.58146 0.0115 0.0
H584 H 0.33544 0.56745 0.03587 0.0
H585 H 0.32775 0.55993 0.0058 0.0
H586 H 0.28362 0.54576 0.00892 0.0
H587 H 0.27065 0.50887 0.03112 0.0
H588 H 0.56963 0.07023 0.21506 0.0
H589 H 0.60623 0.05237 0.2321 0.0
H590 H 0.57002 0.04472 0.29978 0.0
H591 H 0.53325 0.0635 0.28299 0.0
H592 H 0.61352 0.0647 0.30525 0.0
H593 H 0.6238 0.98241 0.24755 0.0
H594 H 0.62181 0.01028 0.23043 0.0
H595 H 0.59637 1.00086 0.24829 0.0
C596 C 0.56919 0.06442 0.23349 0.0
C597 C 0.54835 0.06822 0.24762 0.0
C598 C 0.59022 0.05405 0.24319 0.0
C599 C 0.59084 0.04677 0.26713 0.0
C600 C 0.56994 0.05009 0.28122 0.0
H601 H 0.70686 0.95931 0.32885 0.0
H602 H 0.66957 0.9749 0.31122 0.0
C603 C 0.54889 0.06071 0.27157 0.0
C604 C 0.61374 0.03705 0.27766 0.0
H605 H 0.6588 0.99397 0.2697 0.0
C606 C 0.62332 0.0491 0.2976 0.0
C607 C 0.62646 0.01654 0.26785 0.0
C608 C 0.61645 1.00162 0.24751 0.0
C609 C 0.64539 0.04145 0.30777 0.0
C610 C 0.65867 0.02167 0.29726 0.0
C611 C 0.64888 0.0094 0.27754 0.0
C612 C 0.68204 0.01243 0.3072 0.0
C613 C 0.65391 0.0543 0.33 0.0
C614 C 0.70186 0.02818 0.31037 0.0
C615 C 0.72332 0.01933 0.32076 0.0
C616 C 0.72549 0.99446 0.32779 0.0
C617 C 0.70594 0.97857 0.32366 0.0
C618 C 0.6845 0.98747 0.31357 0.0
H619 H 0.63875 0.06392 0.33939 0.0
H620 H 0.66252 0.041 0.34251 0.0
H621 H 0.66746 0.0684 0.32509 0.0
H622 H 0.70068 0.04736 0.30497 0.0
H623 H 0.73805 0.03203 0.32356 0.0
H624 H 0.67727 0.21835 0.44182 0.0
H625 H 0.69324 0.17799 0.42919 0.0
H626 H 0.71235 0.16102 0.50172 0.0
H627 H 0.69604 0.20103 0.51458 0.0
H628 H 0.73765 0.15495 0.43271 0.0
H629 H 0.66858 0.10385 0.48422 0.0
H630 H 0.66661 0.13677 0.47931 0.0
H631 H 0.68609 0.12447 0.50209 0.0
C632 C 0.68521 0.20619 0.45503 0.0
C633 C 0.68519 0.2128 0.47923 0.0
C634 C 0.69422 0.18309 0.4478 0.0
C635 C 0.70337 0.16627 0.46462 0.0
C636 C 0.70472 0.17344 0.48856 0.0
H637 H 0.78789 0.0346 0.4325 0.0
H638 H 0.77251 0.07384 0.4483 0.0
C639 C 0.69558 0.19641 0.49583 0.0
C640 C 0.71106 0.14107 0.45723 0.0
H641 H 0.70049 0.0798 0.46697 0.0
C642 C 0.72951 0.13852 0.44015 0.0
C643 C 0.70006 0.11966 0.46664 0.0
C644 C 0.67907 0.12124 0.4839 0.0
C645 C 0.73764 0.11512 0.43259 0.0
C646 C 0.72739 0.09371 0.4428 0.0
C647 C 0.70856 0.09624 0.45947 0.0
C648 C 0.73584 0.06856 0.43605 0.0
C649 C 0.75683 0.11356 0.41342 0.0
C650 C 0.71995 0.05189 0.4253 0.0
C651 C 0.72861 0.02921 0.41656 0.0
C652 C 0.75332 0.02296 0.4184 0.0
C653 C 0.76881 0.03902 0.43057 0.0
C654 C 0.76011 0.06153 0.43945 0.0
H655 H 0.75788 0.131 0.40306 0.0
H656 H 0.77474 0.11023 0.42177 0.0
H657 H 0.75327 0.09812 0.40094 0.0
H658 H 0.70108 0.0569 0.42273 0.0
H659 H 0.71626 0.01725 0.40721 0.0
H660 H 0.06083 0.43606 0.7598 0.0
H661 H 0.09768 0.45515 0.74475 0.0
H662 H 0.06881 0.45337 0.67354 0.0
H663 H 0.03135 0.4352 0.68886 0.0
H664 H 0.12847 0.43326 0.71624 0.0
H665 H 0.09839 0.5204 0.67332 0.0
H666 H 0.07892 0.50303 0.6928 0.0
H667 H 0.08278 0.49395 0.66218 0.0
C668 C 0.06207 0.44049 0.74104 0.0
C669 C 0.04324 0.43435 0.72548 0.0
C670 C 0.08318 0.45126 0.73242 0.0
C671 C 0.08612 0.45578 0.708 0.0
C672 C 0.06685 0.45061 0.69252 0.0
H673 H 0.22801 0.46187 0.63909 0.0
H674 H 0.18952 0.44857 0.65628 0.0
C675 C 0.04543 0.44022 0.70125 0.0
C676 C 0.11016 0.46358 0.69876 0.0
H677 H 0.13864 0.50656 0.66451 0.0
C678 C 0.13068 0.44942 0.70506 0.0
C679 C 0.11316 0.48472 0.6843 0.0
C680 C 0.09217 0.50154 0.67794 0.0
C681 C 0.15401 0.45574 0.69735 0.0
C682 C 0.15692 0.47638 0.68222 0.0
C683 C 0.13643 0.49062 0.67597 0.0
C684 C 0.18103 0.4838 0.6729 0.0
C685 C 0.17532 0.44055 0.70603 0.0
C686 C 0.18906 0.50806 0.67629 0.0
C687 C 0.21086 0.51577 0.6662 0.0
C688 C 0.22522 0.49933 0.65262 0.0
C689 C 0.21758 0.47482 0.64983 0.0
C690 C 0.19556 0.4672 0.65967 0.0
H691 H 0.17097 0.43071 0.72283 0.0
H692 H 0.18012 0.42641 0.69245 0.0
H693 H 0.19138 0.45226 0.7091 0.0
H694 H 0.17823 0.5212 0.68643 0.0
H695 H 0.21622 0.5348 0.66862 0.0
H696 H 0.79913 0.97732 0.9062 0.0
H697 H 0.8129 0.94027 0.92764 0.0
H698 H 0.74001 0.91263 0.92791 0.0
H699 H 0.72604 0.94951 0.90697 0.0
H700 H 0.76379 0.90547 0.97111 0.0
H701 H 0.81945 0.87254 0.89454 0.0
H702 H 0.82646 0.90304 0.90491 0.0
H703 H 0.79739 0.89727 0.89193 0.0
C704 C 0.78597 0.96355 0.91116 0.0
C705 C 0.76152 0.96633 0.90466 0.0
C706 C 0.79391 0.94228 0.92321 0.0
C707 C 0.77754 0.92347 0.92893 0.0
C708 C 0.75298 0.9268 0.92351 0.0
H709 H 0.81684 0.77018 0.96192 0.0
H710 H 0.79682 0.80711 0.94535 0.0
C711 C 0.74505 0.94793 0.91146 0.0
C712 C 0.78592 0.89992 0.93987 0.0
H713 H 0.82188 0.84907 0.93 0.0
C714 C 0.77649 0.89312 0.96213 0.0
C715 C 0.80208 0.88359 0.9279 0.0
C716 C 0.81181 0.88928 0.9034 0.0
C717 C 0.78322 0.87069 0.97298 0.0
C718 C 0.8 0.85475 0.96136 0.0
C719 C 0.80903 0.86131 0.93889 0.0
C720 C 0.80952 0.83187 0.97273 0.0
C721 C 0.77214 0.86413 0.9967 0.0
C722 C 0.82295 0.83349 0.99376 0.0
C723 C 0.83432 0.81255 1.0032 0.0
C724 C 0.83261 0.78947 0.99179 0.0
C725 C 0.81832 0.78762 0.97124 0.0
C726 C 0.80702 0.80872 0.96168 0.0
H727 H 0.7548 0.8743 0.99979 0.0
H728 H 0.76877 0.84398 0.99796 0.0
H729 H 0.78481 0.86925 0.0111 0.0
H730 H 0.82548 0.85119 1.00238 0.0
H731 H 0.84517 0.81464 0.01908 0.0
H732 H 0.45016 0.57284 0.2608 0.0
H733 H 0.41345 0.55339 0.24673 0.0
H734 H 0.44103 0.55466 0.17486 0.0
H735 H 0.47794 0.57484 0.18879 0.0
H736 H 0.39435 0.57216 0.17794 0.0
H737 H 0.40194 0.4831 0.22596 0.0
H738 H 0.40404 0.50932 0.24537 0.0
H739 H 0.42702 0.50397 0.22309 0.0
C740 C 0.44869 0.56875 0.242 0.0
C741 C 0.46715 0.57538 0.22593 0.0
C742 C 0.42764 0.55745 0.23401 0.0
C743 C 0.42456 0.55221 0.20979 0.0
C744 C 0.44306 0.55841 0.19367 0.0
H745 H 0.31565 0.46201 0.14563 0.0
H746 H 0.35144 0.47901 0.16432 0.0
C747 C 0.46421 0.56983 0.20167 0.0
C748 C 0.40148 0.54145 0.2013 0.0
H749 H 0.36349 0.49267 0.20892 0.0
C750 C 0.38764 0.55473 0.18462 0.0
C751 C 0.39277 0.51863 0.20995 0.0
C752 C 0.40732 0.5028 0.2269 0.0
C753 C 0.3653 0.54592 0.17648 0.0
C754 C 0.35626 0.52346 0.18566 0.0
C755 C 0.37019 0.5101 0.20221 0.0
C756 C 0.33349 0.5124 0.17672 0.0
C757 C 0.35195 0.56041 0.1576 0.0
C758 C 0.31109 0.52502 0.17829 0.0
C759 C 0.2904 0.5153 0.16748 0.0
C760 C 0.29181 0.49279 0.15501 0.0
C761 C 0.31392 0.47953 0.15486 0.0
C762 C 0.33447 0.48921 0.16559 0.0
H763 H 0.36386 0.57394 0.14859 0.0
H764 H 0.34437 0.54788 0.14394 0.0
H765 H 0.3367 0.57081 0.16597 0.0
H766 H 0.30977 0.54268 0.1873 0.0
H767 H 0.27367 0.52596 0.16792 0.0
H768 H 0.4853 0.17228 0.28907 0.0
H769 H 0.50119 0.19079 0.32533 0.0
H770 H 0.57387 0.17119 0.30339 0.0
H771 H 0.55814 0.15311 0.26673 0.0
H772 H 0.52547 0.16811 0.3606 0.0
H773 H 0.58227 0.2423 0.32285 0.0
H774 H 0.56049 0.22579 0.30528 0.0
H775 H 0.58972 0.2122 0.31133 0.0
C776 C 0.50471 0.17225 0.29173 0.0
C777 C 0.52045 0.16131 0.27488 0.0
C778 C 0.51377 0.18277 0.31255 0.0
C779 C 0.53875 0.1826 0.31707 0.0
C780 C 0.55457 0.17205 0.30011 0.0
H781 H 0.60376 0.20188 0.45759 0.0
H782 H 0.58638 0.18463 0.42125 0.0
C783 C 0.54553 0.16168 0.27914 0.0
C784 C 0.54798 0.1924 0.34004 0.0
H785 H 0.58685 0.23408 0.36413 0.0
C786 C 0.53883 0.18261 0.36137 0.0
C787 C 0.56525 0.21148 0.34109 0.0
C788 C 0.57485 0.22374 0.31893 0.0
C789 C 0.54653 0.19125 0.38366 0.0
C790 C 0.5643 0.20983 0.38471 0.0
C791 C 0.57336 0.21971 0.36337 0.0
C792 C 0.57343 0.21981 0.40765 0.0
C793 C 0.5351 0.18077 0.40584 0.0
C794 C 0.5721 0.24532 0.41214 0.0
C795 C 0.58223 0.25523 0.43274 0.0
C796 C 0.59389 0.23984 0.44941 0.0
C797 C 0.5946 0.2142 0.44529 0.0
C798 C 0.58463 0.2043 0.42451 0.0
H799 H 0.51734 0.17222 0.402 0.0
H800 H 0.5472 0.16621 0.41326 0.0
H801 H 0.53237 0.19529 0.4196 0.0
H802 H 0.56355 0.25767 0.39945 0.0
H803 H 0.58135 0.27506 0.43533 0.0
H804 H 0.0922 0.29555 0.51229 0.0
H805 H 0.07549 0.31012 0.55037 0.0
H806 H 0.0704 0.23479 0.57471 0.0
H807 H 0.08632 0.22009 0.53676 0.0
H808 H 0.03091 0.26086 0.58697 0.0
H809 H 0.11282 0.31279 0.61219 0.0
H810 H 0.10018 0.3226 0.58434 0.0
H811 H 0.11241 0.29178 0.58724 0.0
C812 C 0.08722 0.28209 0.52563 0.0
C813 C 0.09074 0.25666 0.52144 0.0
C814 C 0.07795 0.29045 0.54751 0.0
C815 C 0.07227 0.27357 0.56565 0.0
C816 C 0.07485 0.24819 0.56111 0.0
H817 H 0.04667 0.32001 0.71439 0.0
H818 H 0.06306 0.29753 0.67958 0.0
C819 C 0.08396 0.23983 0.5393 0.0
C820 C 0.06354 0.28213 0.58938 0.0
H821 H 0.07783 0.31887 0.63666 0.0
C822 C 0.04127 0.27343 0.59788 0.0
C823 C 0.0773 0.29802 0.60394 0.0
C824 C 0.10212 0.30665 0.59661 0.0
C825 C 0.03198 0.28089 0.62008 0.0
C826 C 0.04507 0.29791 0.634 0.0
C827 C 0.06775 0.30591 0.62594 0.0
C828 C 0.03449 0.30941 0.65576 0.0
C829 C 0.00817 0.27048 0.6284 0.0
C830 C 0.01304 0.32333 0.65392 0.0
C831 C 0.00375 0.33602 0.67357 0.0
C832 C 0.01576 0.33529 0.6956 0.0
C833 C 0.03693 0.32076 0.69772 0.0
C834 C 0.04635 0.30806 0.67784 0.0
H835 H 0.00475 0.25218 0.62016 0.0
H836 H 0.00767 0.26845 0.64805 0.0
H837 H 0.99324 0.28318 0.62304 0.0
H838 H 0.00381 0.32507 0.63703 0.0
H839 H 0.98734 0.34694 0.67128 0.0
H840 H 0.04128 0.83664 0.80249 0.0
H841 H 0.02805 0.8176 0.83962 0.0
H842 H 0.95461 0.81668 0.81397 0.0
H843 H 0.96764 0.83565 0.7766 0.0
H844 H 0.99406 0.83734 0.87203 0.0
H845 H 0.96558 0.74588 0.83842 0.0
H846 H 0.98463 0.76626 0.82136 0.0
H847 H 0.95241 0.77147 0.82254 0.0
C848 C 0.02233 0.83211 0.80453 0.0
C849 C 0.00552 0.83763 0.78645 0.0
C850 C 0.01482 0.82128 0.82585 0.0
C851 C 0.99041 0.81553 0.82951 0.0
C852 C 0.97363 0.82058 0.81137 0.0
H853 H 0.89333 0.76749 0.93544 0.0
H854 H 0.91578 0.78281 0.90145 0.0
C855 C 0.9811 0.83147 0.79002 0.0
C856 C 0.98228 0.80532 0.85268 0.0
H857 H 0.9524 0.75688 0.87755 0.0
C858 C 0.98522 0.8196 0.87335 0.0
C859 C 0.97095 0.78211 0.85436 0.0
C860 C 0.96839 0.7654 0.83304 0.0
C861 C 0.97593 0.81186 0.89544 0.0
C862 C 0.96374 0.78908 0.8969 0.0
C863 C 0.96171 0.77438 0.8764 0.0
C864 C 0.95067 0.78123 0.91871 0.0
C865 C 0.97818 0.82861 0.91676 0.0
C866 C 0.96279 0.7756 0.94006 0.0
C867 C 0.94984 0.76683 0.95987 0.0
C868 C 0.92469 0.76333 0.95841 0.0
C869 C 0.91273 0.76962 0.93716 0.0
C870 C 0.92554 0.77843 0.91763 0.0
H871 H 0.98459 0.8473 0.91179 0.0
H872 H 0.96049 0.83055 0.9261 0.0
H873 H 0.99134 0.82038 0.92944 0.0
H874 H 0.98226 0.77737 0.9412 0.0
H875 H 0.95955 0.76204 0.97596 0.0
H876 H 0.4625 0.66842 0.20137 0.0
H877 H 0.45065 0.68489 0.16243 0.0
H878 H 0.52576 0.6874 0.14128 0.0
H879 H 0.53776 0.6718 0.18008 0.0
H880 H 0.50195 0.72774 0.1268 0.0
H881 H 0.45049 0.64445 0.10175 0.0
H882 H 0.43968 0.65851 0.12877 0.0
H883 H 0.46976 0.64536 0.12757 0.0
C884 C 0.47648 0.67283 0.18855 0.0
C885 C 0.50104 0.66861 0.19383 0.0
C886 C 0.46968 0.68194 0.1662 0.0
C887 C 0.48731 0.68673 0.14872 0.0
C888 C 0.51184 0.68361 0.15438 0.0
H889 H 0.44537 0.70873 0.99893 0.0
H890 H 0.46777 0.69304 0.03376 0.0
C891 C 0.51864 0.67468 0.17666 0.0
C892 C 0.48038 0.69492 0.12446 0.0
H893 H 0.44609 0.67957 0.07636 0.0
C894 C 0.48988 0.7171 0.11571 0.0
C895 C 0.46521 0.68069 0.10968 0.0
C896 C 0.45589 0.6558 0.11729 0.0
C897 C 0.48376 0.72598 0.09305 0.0
C898 C 0.46729 0.71259 0.07895 0.0
C899 C 0.45863 0.68988 0.08723 0.0
C900 C 0.45668 0.72314 0.05696 0.0
C901 C 0.49487 0.74973 0.0845 0.0
C902 C 0.44337 0.7453 0.05842 0.0
C903 C 0.43072 0.75415 0.03879 0.0
C904 C 0.43093 0.74098 0.01721 0.0
C905 C 0.44508 0.7193 0.01531 0.0
C906 C 0.45772 0.7103 0.03518 0.0
H907 H 0.51275 0.75279 0.09292 0.0
H908 H 0.49724 0.74975 0.06487 0.0
H909 H 0.48282 0.76549 0.0895 0.0
H910 H 0.44188 0.75526 0.0751 0.0
H911 H 0.42007 0.77099 0.04078 0.0
H912 H 0.18793 0.32192 0.33636 0.0
H913 H 0.20223 0.34088 0.29939 0.0
H914 H 0.12898 0.3622 0.28195 0.0
H915 H 0.11441 0.34288 0.31847 0.0
H916 H 0.18712 0.33067 0.25055 0.0
H917 H 0.16808 0.42751 0.27856 0.0
H918 H 0.17022 0.40228 0.2995 0.0
H919 H 0.14328 0.40661 0.28213 0.0
C920 C 0.1748 0.33044 0.32458 0.0
C921 C 0.15 0.33099 0.33056 0.0
C922 C 0.18305 0.34136 0.30351 0.0
C923 C 0.16671 0.35323 0.28811 0.0
C924 C 0.14195 0.35354 0.29382 0.0
H925 H 0.17582 0.43794 0.15796 0.0
H926 H 0.16309 0.41532 0.19338 0.0
C927 C 0.13368 0.34255 0.31479 0.0
C928 C 0.17542 0.36524 0.26599 0.0
H929 H 0.1792 0.4212 0.23829 0.0
C930 C 0.18554 0.35048 0.24786 0.0
C931 C 0.17327 0.39106 0.26256 0.0
C932 C 0.16332 0.40789 0.28176 0.0
C933 C 0.19297 0.36079 0.22609 0.0
C934 C 0.19072 0.38664 0.2226 0.0
C935 C 0.18083 0.40139 0.24089 0.0
C936 C 0.19834 0.39891 0.20013 0.0
C937 C 0.20247 0.34379 0.20681 0.0
C938 C 0.22239 0.39717 0.192 0.0
C939 C 0.2297 0.40994 0.17159 0.0
C940 C 0.21317 0.42501 0.15907 0.0
C941 C 0.18904 0.42651 0.16713 0.0
C942 C 0.18173 0.41361 0.18743 0.0
H943 H 0.19663 0.32443 0.20965 0.0
H944 H 0.19627 0.34995 0.18898 0.0
H945 H 0.22256 0.3439 0.20696 0.0
H946 H 0.2357 0.38644 0.20178 0.0
H947 H 0.24847 0.40853 0.16603 0.0
H948 H 0.89378 0.88023 0.60427 0.0
H949 H 0.87558 0.89462 0.56714 0.0
H950 H 0.944 0.92494 0.54531 0.0
H951 H 0.96259 0.90996 0.58216 0.0
H952 H 0.87248 0.94351 0.54973 0.0
H953 H 0.92446 0.88201 0.48807 0.0
H954 H 0.92305 0.87654 0.51972 0.0
H955 H 0.9421 0.90035 0.50809 0.0
C956 C 0.90505 0.88971 0.59147 0.0
C957 C 0.92969 0.89379 0.59614 0.0
C958 C 0.89458 0.89807 0.57033 0.0
C959 C 0.90851 0.91055 0.55333 0.0
C960 C 0.93302 0.91498 0.55801 0.0
H961 H 0.86013 0.96542 0.41337 0.0
H962 H 0.88549 0.95644 0.44822 0.0
C963 C 0.94353 0.90665 0.5792 0.0
C964 C 0.89709 0.91919 0.53095 0.0
H965 H 0.89648 0.90989 0.47079 0.0
C966 C 0.87782 0.93627 0.53246 0.0
C967 C 0.90423 0.90986 0.50841 0.0
C968 C 0.92447 0.89104 0.50583 0.0
C969 C 0.86518 0.94394 0.51211 0.0
C970 C 0.87171 0.93392 0.48969 0.0
C971 C 0.89152 0.91751 0.48802 0.0
C972 C 0.85693 0.93882 0.4682 0.0
C973 C 0.84481 0.96261 0.51482 0.0
C974 C 0.83274 0.93133 0.4677 0.0
C975 C 0.8183 0.93637 0.44796 0.0
C976 C 0.82777 0.94889 0.42813 0.0
C977 C 0.85227 0.95577 0.42834 0.0
C978 C 0.86676 0.9507 0.44823 0.0
H979 H 0.84674 0.97372 0.53132 0.0
H980 H 0.84405 0.97533 0.49934 0.0
H981 H 0.82734 0.95274 0.51592 0.0
H982 H 0.82495 0.92164 0.4827 0.0
H983 H 0.79961 0.93054 0.44838 0.0
H984 H 0.28516 0.60429 0.65031 0.0
H985 H 0.29808 0.62914 0.68445 0.0
H986 H 0.33574 0.56566 0.71325 0.0
H987 H 0.32261 0.54076 0.67974 0.0
H988 H 0.30841 0.58867 0.74661 0.0
H989 H 0.36442 0.65721 0.69852 0.0
H990 H 0.33369 0.65522 0.68839 0.0
H991 H 0.35395 0.62924 0.68464 0.0
C992 C 0.29635 0.59572 0.66383 0.0
C993 C 0.30284 0.57053 0.66226 0.0
C994 C 0.30381 0.60996 0.68329 0.0
C995 C 0.31812 0.59934 0.70132 0.0
C996 C 0.32471 0.57428 0.69961 0.0
H997 H 0.40577 0.66595 0.81012 0.0
H998 H 0.38933 0.6458 0.7749 0.0
C999 C 0.31717 0.56005 0.68037 0.0
C1000 C 0.32579 0.6138 0.72246 0.0
H1001 H 0.35941 0.66317 0.73995 0.0
C1002 C 0.31949 0.60503 0.74515 0.0
C1003 C 0.34046 0.63497 0.72056 0.0
C1004 C 0.34875 0.64466 0.69675 0.0
C1005 C 0.32767 0.61659 0.76594 0.0
C1006 C 0.34209 0.63796 0.76406 0.0
C1007 C 0.34821 0.6469 0.74138 0.0
C1008 C 0.35183 0.65066 0.7854 0.0
C1009 C 0.32149 0.60526 0.7897 0.0
C1010 C 0.33624 0.66034 0.80297 0.0
C1011 C 0.34559 0.67154 0.82336 0.0
C1012 C 0.37078 0.67357 0.82652 0.0
C1013 C 0.38632 0.6643 0.8086 0.0
C1014 C 0.37694 0.65299 0.78829 0.0
H1015 H 0.31597 0.58567 0.78787 0.0
H1016 H 0.33711 0.60605 0.80205 0.0
H1017 H 0.30613 0.6157 0.79783 0.0
H1018 H 0.31679 0.6592 0.80096 0.0
H1019 H 0.33305 0.67828 0.8368 0.0
H1020 H 0.62261 0.08665 0.10263 0.0
H1021 H 0.64444 0.07429 0.06641 0.0
H1022 H 0.58629 0.10396 0.02369 0.0
H1023 H 0.56445 0.11648 0.05978 0.0
H1024 H 0.63223 0.04337 0.0295 0.0
H1025 H 0.64502 0.13898 0.99658 0.0
H1026 H 0.63498 0.13241 0.02648 0.0
H1027 H 0.61395 0.13144 1.00216 0.0
C1028 C 0.61438 0.09035 0.08552 0.0
C1029 C 0.59189 0.10275 0.08408 0.0
C1030 C 0.62692 0.08336 0.06484 0.0
C1031 C 0.61722 0.08864 0.04233 0.0
C1032 C 0.59442 0.10029 0.04084 0.0
H1033 H 0.66721 0.02526 0.90773 0.0
H1034 H 0.64385 0.03672 0.94314 0.0
C1035 C 0.58194 0.10739 0.06149 0.0
C1036 C 0.631 0.08201 0.02043 0.0
H1037 H 0.65605 0.10647 0.97014 0.0
C1038 C 0.63748 0.05716 0.01653 0.0
C1039 C 0.63812 0.10008 1.00367 0.0
C1040 C 0.63289 0.12725 0.00748 0.0
C1041 C 0.65062 0.04983 0.99619 0.0
C1042 C 0.65708 0.06779 0.97909 0.0
C1043 C 0.65085 0.09268 0.98313 0.0
C1044 C 0.67092 0.06128 0.95719 0.0
C1045 C 0.65793 0.023 0.99349 0.0
C1046 C 0.69356 0.07191 0.95288 0.0
C1047 C 0.70692 0.06559 0.93253 0.0
C1048 C 0.69787 0.04852 0.91596 0.0
C1049 C 0.67489 0.03832 0.92011 0.0
C1050 C 0.66153 0.04471 0.94046 0.0
H1051 H 0.65717 0.013 0.01073 0.0
H1052 H 0.64531 0.01387 0.98104 0.0
H1053 H 0.67655 0.02116 0.98609 0.0
H1054 H 0.70109 0.08485 0.96548 0.0
H1055 H 0.72449 0.07389 0.93 0.0
H1056 H 0.63837 0.21029 0.66615 0.0
H1057 H 0.65367 0.19277 0.70338 0.0
H1058 H 0.69402 0.13762 0.66373 0.0
H1059 H 0.67907 0.15528 0.62647 0.0
H1060 H 0.64587 0.14792 0.72058 0.0
H1061 H 0.74464 0.15981 0.71013 0.0
H1062 H 0.72293 0.17536 0.69124 0.0
H1063 H 0.73192 0.14383 0.68526 0.0
C1064 C 0.65065 0.19453 0.66538 0.0
C1065 C 0.65752 0.18415 0.64338 0.0
C1066 C 0.65945 0.18461 0.68666 0.0
C1067 C 0.67531 0.16411 0.68639 0.0
C1068 C 0.68238 0.15386 0.66442 0.0
H1069 H 0.69251 0.04913 0.7877 0.0
H1070 H 0.68123 0.07773 0.75626 0.0
C1071 C 0.67373 0.1639 0.64311 0.0
C1072 C 0.68286 0.15222 0.70905 0.0
H1073 H 0.73201 0.12989 0.73928 0.0
C1074 C 0.66474 0.14431 0.7248 0.0
C1075 C 0.70747 0.14786 0.71484 0.0
C1076 C 0.72785 0.15741 0.69959 0.0
C1077 C 0.67049 0.13113 0.74554 0.0
C1078 C 0.69499 0.12521 0.75043 0.0
C1079 C 0.71321 0.13417 0.73536 0.0
C1080 C 0.70186 0.10825 0.77008 0.0
C1081 C 0.6502 0.12348 0.76192 0.0
C1082 C 0.71775 0.11568 0.78809 0.0
C1083 C 0.72448 0.09919 0.80621 0.0
C1084 C 0.71555 0.07492 0.80647 0.0
C1085 C 0.6997 0.06765 0.78827 0.0
C1086 C 0.69305 0.08407 0.77027 0.0
H1087 H 0.63416 0.13594 0.76011 0.0
H1088 H 0.64449 0.10452 0.7572 0.0
H1089 H 0.65604 0.12349 0.7808 0.0
H1090 H 0.72492 0.13423 0.78815 0.0
H1091 H 0.73682 0.1054 0.81982 0.0
H1092 H 0.20273 0.41898 0.04518 0.0
H1093 H 0.17919 0.41054 0.0096 0.0
H1094 H 0.1494 0.48454 0.01158 0.0
H1095 H 0.17293 0.49326 0.04754 0.0
H1096 H 0.11472 0.44664 1.00228 0.0
H1097 H 0.19503 0.43858 0.94312 0.0
H1098 H 0.19699 0.41959 0.96924 0.0
H1099 H 0.19625 0.45269 0.97221 0.0
C1100 C 0.19115 0.43353 0.0382 0.0
C1101 C 0.1899 0.4569 0.0492 0.0
C1102 C 0.17779 0.42867 0.01772 0.0
C1103 C 0.16291 0.44704 0.00767 0.0
C1104 C 0.16096 0.47016 0.01895 0.0
H1105 H 0.10361 0.42915 0.86422 0.0
H1106 H 0.12331 0.44615 0.89952 0.0
C1107 C 0.17441 0.47511 0.03949 0.0
C1108 C 0.14952 0.44184 0.98538 0.0
H1109 H 0.15782 0.42344 0.92773 0.0
C1110 C 0.12411 0.44181 0.9859 0.0
C1111 C 0.16178 0.43589 0.96392 0.0
C1112 C 0.18901 0.4369 0.96193 0.0
C1113 C 0.11066 0.43497 0.96579 0.0
C1114 C 0.12299 0.4277 0.94472 0.0
C1115 C 0.14837 0.42875 0.94394 0.0
C1116 C 0.11003 0.41814 0.92354 0.0
C1117 C 0.08338 0.43558 0.96728 0.0
C1118 C 0.09616 0.39664 0.92525 0.0
C1119 C 0.08485 0.38692 0.90515 0.0
C1120 C 0.08726 0.3984 0.88281 0.0
C1121 C 0.10113 0.41999 0.88117 0.0
C1122 C 0.1125 0.42967 0.90131 0.0
H1123 H 0.07685 0.44819 0.98162 0.0
H1124 H 0.07527 0.44159 0.95016 0.0
H1125 H 0.07682 0.41675 0.97138 0.0
H1126 H 0.09437 0.38712 0.9421 0.0
H1127 H 0.07411 0.37043 0.90714 0.0
H1128 H 0.81618 0.95416 0.29445 0.0
H1129 H 0.82992 0.92864 0.26128 0.0
H1130 H 0.81018 0.86292 0.29973 0.0
H1131 H 0.79591 0.88848 0.33319 0.0
H1132 H 0.86601 0.8926 0.26124 0.0
H1133 H 0.77718 0.85403 0.23478 0.0
H1134 H 0.77967 0.88029 0.25441 0.0
H1135 H 0.78553 0.84965 0.26538 0.0
C1136 C 0.81462 0.93429 0.29595 0.0
C1137 C 0.80489 0.92338 0.31654 0.0
C1138 C 0.82254 0.91972 0.27692 0.0
C1139 C 0.82087 0.89392 0.27793 0.0
C1140 C 0.81127 0.88284 0.29845 0.0
H1141 H 0.89825 0.80029 0.17475 0.0
H1142 H 0.88298 0.8188 0.21171 0.0
C1143 C 0.80327 0.89746 0.3176 0.0
C1144 C 0.82978 0.87893 0.25754 0.0
H1145 H 0.81152 0.84064 0.2129 0.0
C1146 C 0.85415 0.88109 0.25075 0.0
C1147 C 0.81417 0.86418 0.24377 0.0
C1148 C 0.78762 0.86196 0.24975 0.0
C1149 C 0.86331 0.86919 0.23037 0.0
C1150 C 0.84775 0.85433 0.21665 0.0
C1151 C 0.82342 0.85192 0.22356 0.0
C1152 C 0.85619 0.84207 0.19446 0.0
C1153 C 0.88933 0.87337 0.22325 0.0
C1154 C 0.84571 0.84848 0.17258 0.0
C1155 C 0.85435 0.8379 0.15144 0.0
C1156 C 0.87363 0.82067 0.1518 0.0
C1157 C 0.88371 0.81387 0.17383 0.0
C1158 C 0.87498 0.82439 0.19496 0.0
H1159 H 0.89703 0.88972 0.23234 0.0
H1160 H 0.9004 0.85693 0.22821 0.0
H1161 H 0.89097 0.87605 0.20372 0.0
H1162 H 0.83116 0.86208 0.17182 0.0
H1163 H 0.84631 0.84364 0.13476 0.0
H1164 H 0.29468 0.56272 0.5299 0.0
H1165 H 0.31978 0.57515 0.49638 0.0
H1166 H 0.38311 0.54547 0.53132 0.0
H1167 H 0.35795 0.53262 0.56515 0.0
H1168 H 0.35956 0.60749 0.4971 0.0
H1169 H 0.38576 0.51377 0.46422 0.0
H1170 H 0.36083 0.51882 0.48463 0.0
H1171 H 0.39144 0.52007 0.49511 0.0
C1172 C 0.31393 0.5587 0.53055 0.0
C1173 C 0.32427 0.54659 0.55027 0.0
C1174 C 0.32826 0.56588 0.51132 0.0
C1175 C 0.35326 0.56102 0.51122 0.0
C1176 C 0.36378 0.54906 0.53088 0.0
H1177 H 0.45786 0.59525 0.39825 0.0
H1178 H 0.43923 0.58072 0.43525 0.0
C1179 C 0.3494 0.54187 0.55025 0.0
C1180 C 0.36806 0.56912 0.49061 0.0
H1181 H 0.40091 0.54785 0.44299 0.0
C1182 C 0.36872 0.59446 0.48534 0.0
C1183 C 0.38008 0.5521 0.47536 0.0
C1184 C 0.37945 0.52464 0.4799 0.0
C1185 C 0.38079 0.60323 0.46507 0.0
C1186 C 0.39211 0.58617 0.44936 0.0
C1187 C 0.39211 0.56088 0.45499 0.0
C1188 C 0.4033 0.59422 0.42662 0.0
C1189 C 0.38134 0.63074 0.4607 0.0
C1190 C 0.38917 0.60611 0.40925 0.0
C1191 C 0.39972 0.61436 0.3881 0.0
C1192 C 0.42462 0.61073 0.38375 0.0
C1193 C 0.43861 0.5982 0.40093 0.0
C1194 C 0.42802 0.58998 0.42214 0.0
H1195 H 0.37816 0.64138 0.47736 0.0
H1196 H 0.39897 0.63632 0.45292 0.0
H1197 H 0.36681 0.63586 0.44799 0.0
H1198 H 0.36993 0.60903 0.41207 0.0
H1199 H 0.38831 0.62346 0.37506 0.0
H1200 H 0.17571 0.22594 0.38727 0.0
H1201 H 0.20942 0.21334 0.36115 0.0
H1202 H 0.24443 0.1771 0.42028 0.0
H1203 H 0.21134 0.18989 0.44641 0.0
H1204 H 0.2755 0.20592 0.39525 0.0
H1205 H 0.22456 0.14478 0.33425 0.0
H1206 H 0.21304 0.17589 0.33673 0.0
H1207 H 0.21206 0.15574 0.3621 0.0
C1208 C 0.19053 0.21517 0.39465 0.0
C1209 C 0.19079 0.20894 0.41895 0.0
C1210 C 0.20974 0.20789 0.37967 0.0
C1211 C 0.22935 0.19405 0.38871 0.0
C1212 C 0.22952 0.18778 0.4129 0.0
H1213 H 0.33893 0.10254 0.32372 0.0
H1214 H 0.3033 0.12073 0.34314 0.0
C1215 C 0.21052 0.19512 0.42784 0.0
C1216 C 0.25014 0.18639 0.3734 0.0
H1217 H 0.26617 0.14989 0.32611 0.0
C1218 C 0.27345 0.1938 0.38002 0.0
C1219 C 0.24745 0.17039 0.35369 0.0
C1220 C 0.22298 0.16101 0.3463 0.0
C1221 C 0.29417 0.18527 0.36782 0.0
C1222 C 0.2915 0.16932 0.34806 0.0
C1223 C 0.26816 0.16225 0.34115 0.0
C1224 C 0.31278 0.15855 0.33531 0.0
C1225 C 0.31877 0.19261 0.37686 0.0
C1226 C 0.32982 0.17373 0.32411 0.0
C1227 C 0.35046 0.16339 0.31327 0.0
C1228 C 0.35436 0.13761 0.31321 0.0
C1229 C 0.33683 0.12247 0.32385 0.0
C1230 C 0.31629 0.13282 0.33476 0.0
H1231 H 0.31784 0.19986 0.39536 0.0
H1232 H 0.33163 0.17668 0.37642 0.0
H1233 H 0.32612 0.20739 0.36533 0.0
H1234 H 0.32728 0.19361 0.32392 0.0
H1235 H 0.36359 0.17565 0.30538 0.0
H1236 H 0.10737 0.1148 0.59649 0.0
H1237 H 0.09029 0.07978 0.61804 0.0
H1238 H 0.09928 0.03395 0.55571 0.0
H1239 H 0.11675 0.06884 0.53417 0.0
H1240 H 0.05052 0.05199 0.60969 0.0
H1241 H 0.13332 0.99271 0.60554 0.0
H1242 H 0.13348 0.02501 0.59762 0.0
H1243 H 0.12228 0.00245 0.57703 0.0
C1244 C 0.1056 0.09729 0.58734 0.0
C1245 C 0.11357 0.09452 0.56369 0.0
C1246 C 0.09589 0.07727 0.59969 0.0
C1247 C 0.09391 0.0541 0.58864 0.0
C1248 C 0.10124 0.05145 0.56481 0.0
H1249 H 0.04085 0.91456 0.64874 0.0
H1250 H 0.05269 0.94681 0.62038 0.0
C1251 C 0.11115 0.07142 0.55251 0.0
C1252 C 0.08413 0.03283 0.60218 0.0
H1253 H 0.09848 0.97508 0.62282 0.0
C1254 C 0.06099 0.03515 0.61249 0.0
C1255 C 0.09778 0.01081 0.60579 0.0
C1256 C 0.12317 0.00759 0.59611 0.0
C1257 C 0.05127 0.0162 0.6265 0.0
C1258 C 0.06508 0.99444 0.63041 0.0
C1259 C 0.08791 0.99177 0.61962 0.0
C1260 C 0.05698 0.9751 0.64719 0.0
C1261 C 0.02635 0.01964 0.6372 0.0
C1262 C 0.05566 0.98036 0.67157 0.0
C1263 C 0.04914 0.96205 0.68776 0.0
C1264 C 0.04375 0.93804 0.6799 0.0
C1265 C 0.04485 0.93286 0.65537 0.0
C1266 C 0.05161 0.95122 0.63916 0.0
H1267 H 0.01584 0.03441 0.62799 0.0
H1268 H 0.01603 1.00217 0.6364 0.0
H1269 H 0.02811 0.02496 0.65618 0.0
H1270 H 0.06006 0.99859 0.67814 0.0
H1271 H 0.04846 0.96673 0.70649 0.0
H1272 H 0.16689 0.83314 0.79208 0.0
H1273 H 0.20087 0.81211 0.8117 0.0
H1274 H 0.19794 0.86578 0.86844 0.0
H1275 H 0.16347 0.88631 0.84952 0.0
H1276 H 0.24587 0.83016 0.82326 0.0
H1277 H 0.19711 0.80072 0.90448 0.0
H1278 H 0.18155 0.8115 0.8782 0.0
H1279 H 0.19382 0.83325 0.89905 0.0
C1280 C 0.17326 0.84026 0.80891 0.0
C1281 C 0.16237 0.86134 0.81931 0.0
C1282 C 0.19277 0.82831 0.82 0.0
C1283 C 0.20163 0.83713 0.84171 0.0
C1284 C 0.19104 0.85835 0.85194 0.0
H1285 H 0.31918 0.82083 0.93599 0.0
H1286 H 0.2844 0.83222 0.91167 0.0
C1287 C 0.17154 0.87026 0.84093 0.0
C1288 C 0.2224 0.8247 0.85346 0.0
H1289 H 0.24055 0.8003 0.90653 0.0
C1290 C 0.24466 0.82324 0.84132 0.0
C1291 C 0.22067 0.8155 0.87695 0.0
C1292 C 0.19693 0.81506 0.89034 0.0
C1293 C 0.26557 0.81406 0.85258 0.0
C1294 C 0.26403 0.80609 0.87644 0.0
C1295 C 0.24161 0.8066 0.88824 0.0
C1296 C 0.28577 0.79907 0.89018 0.0
C1297 C 0.28939 0.81393 0.83935 0.0
C1298 C 0.29806 0.77662 0.88603 0.0
C1299 C 0.31802 0.76993 0.9 0.0
C1300 C 0.32594 0.78566 0.91828 0.0
C1301 C 0.31366 0.80827 0.92207 0.0
C1302 C 0.29373 0.81483 0.90822 0.0
H1303 H 0.28793 0.82289 0.82162 0.0
H1304 H 0.30331 0.82364 0.84992 0.0
H1305 H 0.29575 0.79457 0.83678 0.0
H1306 H 0.29198 0.76415 0.87226 0.0
H1307 H 0.32703 0.75236 0.89666 0.0
H1308 H 0.46451 0.03205 0.20533 0.0
H1309 H 0.45092 0.99846 0.17995 0.0
H1310 H 0.46399 0.0429 0.11771 0.0
H1311 H 0.47764 0.07693 0.14309 0.0
H1312 H 0.41804 0.01936 0.1185 0.0
H1313 H 0.49271 0.95281 0.13724 0.0
H1314 H 0.47858 0.96543 0.16348 0.0
H1315 H 0.49483 0.98543 0.14368 0.0
C1316 C 0.46466 0.03476 0.18624 0.0
C1317 C 0.47225 0.05726 0.17628 0.0
C1318 C 0.45699 0.01541 0.17174 0.0
C1319 C 0.45676 0.01801 0.14692 0.0
C1320 C 0.46418 0.04044 0.13684 0.0
H1321 H 0.42891 0.89608 0.04831 0.0
H1322 H 0.44694 0.93107 0.06908 0.0
C1323 C 0.472 0.05986 0.15137 0.0
C1324 C 0.4479 0.99751 0.13174 0.0
H1325 H 0.45768 0.93653 0.11837 0.0
C1326 C 0.42682 1.00132 0.11829 0.0
C1327 C 0.4595 0.97403 0.13129 0.0
C1328 C 0.48279 0.96916 0.14451 0.0
C1329 C 0.41657 0.98203 0.10508 0.0
C1330 C 0.42755 0.95825 0.10551 0.0
C1331 C 0.44912 0.95468 0.11827 0.0
C1332 C 0.41671 0.93677 0.09314 0.0
C1333 C 0.39404 0.98724 0.09075 0.0
C1334 C 0.39393 0.92802 0.10007 0.0
C1335 C 0.38367 0.90784 0.08843 0.0
C1336 C 0.39596 0.89591 0.06956 0.0
C1337 C 0.41899 0.90455 0.06292 0.0
C1338 C 0.42929 0.92468 0.07466 0.0
H1339 H 0.39145 0.00734 0.08742 0.0
H1340 H 0.39479 0.97743 0.07339 0.0
H1341 H 0.37801 0.98059 0.10072 0.0
H1342 H 0.38413 0.93671 0.11464 0.0
H1343 H 0.36616 0.90145 0.09439 0.0
H1344 H 0.84041 0.35107 0.68223 0.0
H1345 H 0.80563 0.33342 0.6616 0.0
H1346 H 0.83209 0.36222 0.59503 0.0
H1347 H 0.86711 0.37953 0.61541 0.0
H1348 H 0.77008 0.35926 0.6336 0.0
H1349 H 0.82025 0.28821 0.5811 0.0
H1350 H 0.83307 0.30316 0.60679 0.0
H1351 H 0.83212 0.31887 0.57865 0.0
C1352 C 0.83899 0.35338 0.66315 0.0
C1353 C 0.85661 0.36662 0.65044 0.0
C1354 C 0.81903 0.34342 0.65143 0.0
C1355 C 0.81643 0.34626 0.62676 0.0
C1356 C 0.83393 0.3595 0.61403 0.0
H1357 H 0.7162 0.30935 0.51681 0.0
H1358 H 0.74935 0.32322 0.54174 0.0
C1359 C 0.85382 0.36958 0.62574 0.0
C1360 C 0.79517 0.3359 0.61434 0.0
H1361 H 0.7792 0.29567 0.57046 0.0
C1362 C 0.77198 0.34519 0.61994 0.0
C1363 C 0.79775 0.31753 0.59658 0.0
C1364 C 0.8221 0.30615 0.59051 0.0
C1365 C 0.75138 0.33728 0.60759 0.0
C1366 C 0.75402 0.31922 0.58949 0.0
C1367 C 0.77718 0.30954 0.5843 0.0
C1368 C 0.73329 0.311 0.5748 0.0
C1369 C 0.72713 0.34902 0.61338 0.0
C1370 C 0.71316 0.29938 0.58506 0.0
C1371 C 0.69397 0.29147 0.57079 0.0
C1372 C 0.69471 0.29484 0.54598 0.0
C1373 C 0.71497 0.30639 0.53583 0.0
C1374 C 0.73401 0.31435 0.55007 0.0
H1375 H 0.72906 0.36646 0.62361 0.0
H1376 H 0.71681 0.35307 0.59689 0.0
H1377 H 0.71639 0.33605 0.62433 0.0
H1378 H 0.71242 0.29614 0.60405 0.0
H1379 H 0.67874 0.28247 0.57916 0.0
H1380 H 0.93633 0.44813 0.77917 0.0
H1381 H 0.92446 0.48252 0.80479 0.0
H1382 H 0.99087 0.4741 0.84424 0.0
H1383 H 0.00324 0.43971 0.81825 0.0
H1384 H 0.91708 0.48265 0.8531 0.0
H1385 H 0.99014 0.54773 0.8282 0.0
H1386 H 0.98394 0.52024 0.81118 0.0
H1387 H 1.00022 0.51799 0.83871 0.0
C1388 C 0.94851 0.45353 0.79324 0.0
C1389 C 0.97079 0.44114 0.79661 0.0
C1390 C 0.94166 0.47324 0.80789 0.0
C1391 C 0.95688 0.48109 0.82623 0.0
C1392 C 0.97906 0.46867 0.82988 0.0
H1393 H 0.92945 0.59985 0.92949 0.0
H1394 H 0.94757 0.56481 0.90794 0.0
C1395 C 0.98602 0.44892 0.81511 0.0
C1396 C 0.94898 0.50194 0.84168 0.0
H1397 H 0.96215 0.56128 0.85747 0.0
C1398 C 0.927 0.4998 0.85412 0.0
C1399 C 0.96198 0.52427 0.84305 0.0
C1400 C 0.98529 0.5279 0.82945 0.0
C1401 C 0.91748 0.5195 0.8676 0.0
C1402 C 0.93016 0.542 0.86847 0.0
C1403 C 0.95249 0.54397 0.85666 0.0
C1404 C 0.91993 0.56395 0.88084 0.0
C1405 C 0.89388 0.51612 0.88075 0.0
C1406 C 0.89872 0.57536 0.87238 0.0
C1407 C 0.88843 0.59548 0.88448 0.0
C1408 C 0.89918 0.60461 0.90531 0.0
C1409 C 0.92081 0.59347 0.91339 0.0
C1410 C 0.93114 0.57337 0.90119 0.0
H1411 H 0.88945 0.49628 0.88294 0.0
H1412 H 0.8945 0.52492 0.8986 0.0
H1413 H 0.87903 0.5251 0.87055 0.0
H1414 H 0.89005 0.56859 0.85643 0.0
H1415 H 0.87206 0.60391 0.87749 0.0
H1416 H 0.82547 0.74545 0.08115 0.0
H1417 H 0.7913 0.73289 0.10636 0.0
H1418 H 0.78682 0.66434 0.06754 0.0
H1419 H 0.8208 0.6764 0.04269 0.0
H1420 H 0.74406 0.72117 0.09279 0.0
H1421 H 0.78813 0.64074 0.13616 0.0
H1422 H 0.80509 0.66395 0.12042 0.0
H1423 H 0.79062 0.63944 0.10436 0.0
C1424 C 0.81734 0.7276 0.07815 0.0
C1425 C 0.82603 0.71189 0.05995 0.0
C1426 C 0.7978 0.72048 0.09254 0.0
C1427 C 0.78678 0.69748 0.08911 0.0
C1428 C 0.79538 0.6819 0.07091 0.0
H1429 H 0.66324 0.61393 0.12967 0.0
H1430 H 0.69959 0.63202 0.11234 0.0
C1431 C 0.8148 0.68895 0.05659 0.0
C1432 C 0.76568 0.68984 0.10375 0.0
H1433 H 0.74464 0.64211 0.13746 0.0
C1434 C 0.74427 0.70411 0.10291 0.0
C1435 C 0.76599 0.66758 0.11698 0.0
C1436 C 0.78877 0.65218 0.11976 0.0
C1437 C 0.72285 0.69606 0.11394 0.0
C1438 C 0.72296 0.67328 0.12627 0.0
C1439 C 0.74456 0.65947 0.12782 0.0
C1440 C 0.70062 0.66284 0.13681 0.0
C1441 C 0.7 0.7114 0.11151 0.0
C1442 C 0.68921 0.67412 0.15643 0.0
C1443 C 0.66852 0.66366 0.16659 0.0
C1444 C 0.65884 0.6417 0.15733 0.0
C1445 C 0.67034 0.6306 0.13755 0.0
C1446 C 0.69105 0.641 0.1275 0.0
H1447 H 0.70199 0.72641 0.09818 0.0
H1448 H 0.68461 0.69959 0.10625 0.0
H1449 H 0.69543 0.71996 0.12893 0.0
H1450 H 0.69653 0.69079 0.16412 0.0
H1451 H 0.66042 0.67252 0.18202 0.0
H1452 H 0.60088 0.42044 0.43704 0.0
H1453 H 0.58096 0.45591 0.41788 0.0
H1454 H 0.60259 0.42784 0.34908 0.0
H1455 H 0.62206 0.39215 0.36799 0.0
H1456 H 0.60286 0.49133 0.38749 0.0
H1457 H 0.52933 0.44127 0.34198 0.0
H1458 H 0.54645 0.42795 0.3662 0.0
H1459 H 0.55889 0.42819 0.33658 0.0
C1460 C 0.60111 0.42168 0.41781 0.0
C1461 C 0.61299 0.40347 0.40401 0.0
C1462 C 0.58985 0.44199 0.40693 0.0
C1463 C 0.59004 0.44428 0.38208 0.0
C1464 C 0.6019 0.42618 0.36827 0.0
H1465 H 0.55582 0.54218 0.27019 0.0
H1466 H 0.56731 0.50916 0.29739 0.0
C1467 C 0.61323 0.40595 0.37911 0.0
C1468 C 0.57867 0.46601 0.37045 0.0
H1469 H 0.53721 0.48226 0.32826 0.0
C1470 C 0.58824 0.48949 0.37481 0.0
C1471 C 0.55953 0.46348 0.35404 0.0
C1472 C 0.54776 0.4389 0.34955 0.0
C1473 C 0.5801 0.51034 0.36213 0.0
C1474 C 0.56166 0.50758 0.34498 0.0
C1475 C 0.5514 0.48428 0.34139 0.0
C1476 C 0.55432 0.52804 0.32898 0.0
C1477 C 0.59211 0.53486 0.36629 0.0
C1478 C 0.54305 0.54963 0.33774 0.0
C1479 C 0.53645 0.56874 0.32216 0.0
C1480 C 0.54095 0.56644 0.29758 0.0
C1481 C 0.55206 0.54465 0.28897 0.0
C1482 C 0.55864 0.52568 0.3045 0.0
H1483 H 0.60882 0.53292 0.3771 0.0
H1484 H 0.59683 0.5437 0.34909 0.0
H1485 H 0.57935 0.54739 0.37588 0.0
H1486 H 0.53922 0.55162 0.35656 0.0
H1487 H 0.52776 0.5852 0.32933 0.0
H1488 H 0.35436 0.35523 0.14978 0.0
H1489 H 0.37598 0.31985 0.16717 0.0
H1490 H 0.34425 0.27163 0.11511 0.0
H1491 H 0.32248 0.30679 0.09771 0.0
H1492 H 0.35876 0.27516 0.18646 0.0
H1493 H 0.41718 0.25858 0.10723 0.0
H1494 H 0.39971 0.2867 0.11127 0.0
H1495 H 0.38527 0.25904 0.10115 0.0
C1496 C 0.35183 0.33707 0.14213 0.0
C1497 C 0.33685 0.33392 0.12218 0.0
C1498 C 0.36424 0.31688 0.15207 0.0
C1499 C 0.36201 0.29316 0.14222 0.0
C1500 C 0.34665 0.28984 0.12269 0.0
H1501 H 0.41365 0.15398 0.20606 0.0
H1502 H 0.38784 0.18767 0.19094 0.0
C1503 C 0.33426 0.31 0.11272 0.0
C1504 C 0.37601 0.27197 0.15216 0.0
H1505 H 0.41972 0.22909 0.13817 0.0
C1506 C 0.37208 0.26504 0.17593 0.0
C1507 C 0.39355 0.25898 0.13844 0.0
C1508 C 0.39941 0.26627 0.11317 0.0
C1509 C 0.38516 0.24538 0.18632 0.0
C1510 C 0.4024 0.23213 0.17246 0.0
C1511 C 0.40633 0.23912 0.14871 0.0
C1512 C 0.41761 0.21184 0.18247 0.0
C1513 C 0.38089 0.23937 0.21219 0.0
C1514 C 0.44288 0.21408 0.18246 0.0
C1515 C 0.45762 0.19489 0.19088 0.0
C1516 C 0.44745 0.17287 0.19946 0.0
C1517 C 0.42208 0.17068 0.19964 0.0
C1518 C 0.40729 0.18998 0.19113 0.0
H1519 H 0.37123 0.25464 0.22164 0.0
H1520 H 0.36965 0.22257 0.21349 0.0
H1521 H 0.3983 0.23556 0.2214 0.0
H1522 H 0.45125 0.23074 0.17584 0.0
H1523 H 0.47706 0.19731 0.19047 0.0
H1524 H 0.92839 0.32172 0.73253 0.0
H1525 H 0.90315 0.28676 0.74428 0.0
H1526 H 0.92509 0.29603 0.81722 0.0
H1527 H 0.95027 0.33084 0.80576 0.0
H1528 H 0.92096 0.24265 0.76797 0.0
H1529 H 0.85009 0.29175 0.82082 0.0
H1530 H 0.86911 0.30731 0.79948 0.0
H1531 H 0.88069 0.29943 0.82835 0.0
C1532 C 0.92765 0.31649 0.75111 0.0
C1533 C 0.94137 0.3291 0.7682 0.0
C1534 C 0.91324 0.2965 0.75777 0.0
C1535 C 0.91205 0.28902 0.78165 0.0
C1536 C 0.92544 0.30177 0.79876 0.0
H1537 H 0.85086 0.1706 0.8643 0.0
H1538 H 0.86962 0.20846 0.8496 0.0
C1539 C 0.93995 0.3216 0.79213 0.0
C1540 C 0.89801 0.26697 0.78862 0.0
H1541 H 0.8516 0.24793 0.82424 0.0
C1542 C 0.90562 0.24377 0.78006 0.0
C1543 C 0.87816 0.26855 0.80454 0.0
C1544 C 0.86883 0.2931 0.81372 0.0
C1545 C 0.89438 0.22197 0.78759 0.0
C1546 C 0.87458 0.22349 0.80365 0.0
C1547 C 0.86676 0.24677 0.81193 0.0
C1548 C 0.86215 0.20108 0.81252 0.0
C1549 C 0.90445 0.19747 0.77896 0.0
C1550 C 0.8512 0.18465 0.79662 0.0
C1551 C 0.84058 0.16297 0.80497 0.0
C1552 C 0.84039 0.15745 0.82942 0.0
C1553 C 0.8506 0.17438 0.84538 0.0
C1554 C 0.86138 0.19598 0.837 0.0
H1555 H 0.92326 0.19916 0.77211 0.0
H1556 H 0.90437 0.18349 0.79341 0.0
H1557 H 0.89305 0.19059 0.76422 0.0
H1558 H 0.85098 0.18852 0.77773 0.0
H1559 H 0.83246 0.15053 0.79227 0.0
H1560 H 0.08267 0.57874 0.12598 0.0
H1561 H 0.04783 0.60036 0.10871 0.0
H1562 H 0.07356 0.58219 0.03825 0.0
H1563 H 0.10877 0.56086 0.05533 0.0
H1564 H 0.05114 0.64128 0.07614 0.0
H1565 H 1.00092 0.56224 0.03767 0.0
H1566 H 0.02357 0.55818 0.06049 0.0
H1567 H 0.03259 0.56417 0.03036 0.0
C1568 C 0.08098 0.57932 0.1068 0.0
C1569 C 0.09863 0.56808 0.09207 0.0
C1570 C 0.06097 0.59157 0.09697 0.0
C1571 C 0.05799 0.5927 0.07221 0.0
C1572 C 0.07527 0.58117 0.05741 0.0
H1573 H 0.94367 0.66966 0.9908 0.0
H1574 H 0.97906 0.64394 1.0013 0.0
C1575 C 0.09538 0.56894 0.06724 0.0
C1576 C 0.03751 0.6072 0.06205 0.0
H1577 H 0.98449 0.6022 0.03133 0.0
C1578 C 0.03659 0.63274 0.06629 0.0
C1579 C 0.01874 0.59606 0.04893 0.0
C1580 C 0.01876 0.56863 0.04415 0.0
C1581 C 0.01726 0.64744 0.05808 0.0
C1582 C 0.99797 0.6362 0.04577 0.0
C1583 C 0.99922 0.61075 0.04086 0.0
C1584 C 0.97581 0.65044 0.03919 0.0
C1585 C 0.01774 0.67493 0.06261 0.0
C1586 C 0.96186 0.66196 0.05701 0.0
C1587 C 0.94183 0.67664 0.0511 0.0
C1588 C 0.93507 0.67997 0.0272 0.0
C1589 C 0.94844 0.66756 0.00936 0.0
C1590 C 0.96866 0.65287 0.01533 0.0
H1591 H 0.0365 0.68149 0.06541 0.0
H1592 H 0.00962 0.6854 0.04758 0.0
H1593 H 0.00713 0.67922 0.07894 0.0
H1594 H 0.96665 0.65983 0.07557 0.0
H1595 H 0.93181 0.68565 0.06535 0.0
H1596 H 0.71596 0.8149 0.33437 0.0
H1597 H 0.69471 0.78083 0.31503 0.0
H1598 H 0.62623 0.81205 0.33784 0.0
H1599 H 0.64721 0.84633 0.35676 0.0
H1600 H 0.66251 0.74651 0.33691 0.0
H1601 H 0.61732 0.80075 0.26578 0.0
H1602 H 0.64281 0.81226 0.28231 0.0
H1603 H 0.61291 0.8133 0.29509 0.0
C1604 C 0.69636 0.81465 0.33501 0.0
C1605 C 0.68326 0.83335 0.34706 0.0
C1606 C 0.68428 0.79512 0.32407 0.0
C1607 C 0.65891 0.79411 0.32475 0.0
C1608 C 0.64581 0.8127 0.33679 0.0
H1609 H 0.54229 0.7012 0.28596 0.0
H1610 H 0.56994 0.73299 0.29937 0.0
C1611 C 0.65784 0.83214 0.3478 0.0
C1612 C 0.646 0.77327 0.31357 0.0
H1613 H 0.60256 0.76011 0.27261 0.0
C1614 C 0.64962 0.74935 0.32264 0.0
C1615 C 0.62927 0.7771 0.29492 0.0
C1616 C 0.62546 0.8022 0.28377 0.0
C1617 C 0.63606 0.72932 0.31433 0.0
C1618 C 0.61877 0.73331 0.29617 0.0
C1619 C 0.61577 0.7571 0.28658 0.0
C1620 C 0.60242 0.71352 0.28796 0.0
C1621 C 0.63956 0.70432 0.32577 0.0
C1622 C 0.61149 0.69199 0.27692 0.0
C1623 C 0.59566 0.6736 0.26927 0.0
C1624 C 0.57048 0.67655 0.27236 0.0
C1625 C 0.56155 0.69826 0.28326 0.0
C1626 C 0.57734 0.71652 0.29093 0.0
H1627 H 0.64977 0.70551 0.34271 0.0
H1628 H 0.62182 0.6956 0.32941 0.0
H1629 H 0.64992 0.69206 0.31347 0.0
H1630 H 0.63078 0.68951 0.27405 0.0
H1631 H 0.60313 0.6572 0.26078 0.0
H1632 H 0.55703 0.28879 0.52799 0.0
H1633 H 0.52309 0.31613 0.5379 0.0
H1634 H 0.56633 0.3796 0.52101 0.0
H1635 H 0.60071 0.35224 0.51095 0.0
H1636 H 0.54099 0.38186 0.566 0.0
H1637 H 0.48023 0.35704 0.49166 0.0
H1638 H 0.49263 0.33081 0.50718 0.0
H1639 H 0.51247 0.35087 0.49097 0.0
C1640 C 0.55941 0.30854 0.52624 0.0
C1641 C 0.58165 0.31831 0.51867 0.0
C1642 C 0.53988 0.32414 0.53178 0.0
C1643 C 0.54209 0.34983 0.52985 0.0
C1644 C 0.56424 0.35977 0.52243 0.0
H1645 H 0.41634 0.44844 0.55271 0.0
H1646 H 0.45295 0.42946 0.53551 0.0
C1647 C 0.58385 0.34412 0.51672 0.0
C1648 C 0.52145 0.36611 0.53672 0.0
H1649 H 0.46172 0.37756 0.52501 0.0
C1650 C 0.52375 0.38122 0.55686 0.0
C1651 C 0.49906 0.3654 0.52461 0.0
C1652 C 0.49593 0.35034 0.50226 0.0
C1653 C 0.50387 0.39471 0.56591 0.0
C1654 C 0.48113 0.39285 0.55461 0.0
C1655 C 0.47913 0.37874 0.53377 0.0
C1656 C 0.45896 0.40436 0.56487 0.0
C1657 C 0.50722 0.41058 0.5877 0.0
C1658 C 0.45 0.39616 0.58682 0.0
C1659 C 0.42896 0.40669 0.59655 0.0
C1660 C 0.41643 0.42572 0.58454 0.0
C1661 C 0.42535 0.43368 0.56235 0.0
C1662 C 0.44636 0.42299 0.55256 0.0
H1663 H 0.52658 0.41505 0.59054 0.0
H1664 H 0.49663 0.42809 0.58627 0.0
H1665 H 0.50066 0.40045 0.60358 0.0
H1666 H 0.45919 0.38141 0.59636 0.0
H1667 H 0.42237 0.3997 0.61339 0.0
H1668 H 0.19562 0.69095 0.60344 0.0
H1669 H 0.17572 0.72723 0.62112 0.0
H1670 H 0.15056 0.68254 0.6795 0.0
H1671 H 0.17049 0.64617 0.66195 0.0
H1672 H 0.12771 0.73369 0.62943 0.0
H1673 H 0.17802 0.74184 0.7141 0.0
H1674 H 0.18866 0.72282 0.6897 0.0
H1675 H 0.16562 0.7117 0.70957 0.0
C1676 C 0.1859 0.68885 0.62008 0.0
C1677 C 0.1846 0.66567 0.63128 0.0
C1678 C 0.17465 0.70963 0.63022 0.0
C1679 C 0.16194 0.70769 0.6518 0.0
C1680 C 0.16078 0.68462 0.66315 0.0
H1681 H 0.04495 0.80002 0.70196 0.0
H1682 H 0.07164 0.76745 0.68671 0.0
C1683 C 0.17212 0.66383 0.65306 0.0
C1684 C 0.14852 0.72942 0.66153 0.0
H1685 H 0.14112 0.76532 0.71115 0.0
C1686 C 0.13081 0.74073 0.64723 0.0
C1687 C 0.15277 0.7388 0.68463 0.0
C1688 C 0.17247 0.72833 0.70032 0.0
C1689 C 0.11672 0.76066 0.65564 0.0
C1690 C 0.12013 0.76925 0.67915 0.0
C1691 C 0.13837 0.75851 0.69322 0.0
C1692 C 0.10434 0.78882 0.68958 0.0
C1693 C 0.09833 0.77239 0.63922 0.0
C1694 C 0.114 0.8114 0.69707 0.0
C1695 C 0.09875 0.83016 0.70598 0.0
C1696 C 0.0736 0.82654 0.70763 0.0
C1697 C 0.06417 0.80359 0.70073 0.0
C1698 C 0.07939 0.78493 0.6919 0.0
H1699 H 0.10265 0.76853 0.62025 0.0
H1700 H 0.08021 0.76468 0.6431 0.0
H1701 H 0.09732 0.79273 0.64185 0.0
H1702 H 0.13326 0.81468 0.69559 0.0
H1703 H 0.10661 0.84755 0.71126 0.0
H1704 H 0.43377 0.81086 0.91244 0.0
H1705 H 0.46809 0.83736 0.90375 0.0
H1706 H 0.47406 0.85547 0.97821 0.0
H1707 H 0.43931 0.82924 0.98711 0.0
H1708 H 0.47928 0.89628 0.94849 0.0
H1709 H 0.53808 0.81837 0.91877 0.0
H1710 H 0.50983 0.81984 0.90315 0.0
H1711 H 0.51 0.81377 0.93463 0.0
C1712 C 0.44228 0.82052 0.927 0.0
C1713 C 0.43393 0.81775 0.95051 0.0
C1714 C 0.46199 0.83556 0.922 0.0
C1715 C 0.47394 0.84791 0.9404 0.0
C1716 C 0.46519 0.8459 0.96379 0.0
H1717 H 0.61688 0.90974 0.91471 0.0
H1718 H 0.58295 0.88761 0.93256 0.0
C1719 C 0.44534 0.83092 0.96883 0.0
C1720 C 0.49568 0.8627 0.93508 0.0
H1721 H 0.55156 0.85892 0.90913 0.0
C1722 C 0.4952 0.88812 0.94009 0.0
C1723 C 0.51659 0.8519 0.92456 0.0
C1724 C 0.51882 0.82443 0.92018 0.0
C1725 C 0.51476 0.90323 0.93394 0.0
C1726 C 0.53506 0.89265 0.92212 0.0
C1727 C 0.53588 0.86706 0.91798 0.0
C1728 C 0.55534 0.90773 0.91308 0.0
C1729 C 0.51351 0.93033 0.94022 0.0
C1730 C 0.55106 0.92644 0.89628 0.0
C1731 C 0.57039 0.93912 0.88608 0.0
C1732 C 0.59438 0.93309 0.89229 0.0
C1733 C 0.5986 0.91463 0.90942 0.0
C1734 C 0.57925 0.90206 0.9197 0.0
H1735 H 0.50094 0.93385 0.95538 0.0
H1736 H 0.53165 0.93746 0.94488 0.0
H1737 H 0.50663 0.94089 0.92469 0.0
H1738 H 0.53282 0.93068 0.89042 0.0
H1739 H 0.56659 0.95296 0.87265 0.0
H1740 H 0.90045 0.11127 0.38023 0.0
H1741 H 0.93655 0.1324 0.39433 0.0
H1742 H 0.96731 0.06269 0.4169 0.0
H1743 H 0.93151 0.04127 0.40223 0.0
H1744 H 0.95668 0.13337 0.44042 0.0
H1745 H 0.0207 0.09195 0.37446 0.0
H1746 H 0.98825 0.09062 0.37105 0.0
H1747 H 0.0034 0.07034 0.3916 0.0
C1748 C 0.91497 0.10038 0.388 0.0
C1749 C 0.91315 0.07453 0.38991 0.0
C1750 C 0.93552 0.11251 0.39619 0.0
C1751 C 0.95477 0.09909 0.40634 0.0
C1752 C 0.95285 0.07336 0.40876 0.0
H1753 H 0.09563 0.15104 0.45668 0.0
H1754 H 0.06091 0.1251 0.44697 0.0
C1755 C 0.93225 0.06119 0.4006 0.0
C1756 C 0.97675 0.11218 0.41439 0.0
H1757 H 0.03724 0.1186 0.40323 0.0
C1758 C 0.97431 0.1301 0.43234 0.0
C1759 C 0.99976 0.10779 0.4039 0.0
C1760 C 0.00329 0.08928 0.38405 0.0
C1761 C 0.99422 0.14385 0.44001 0.0
C1762 C 0.01711 0.13991 0.4291 0.0
C1763 C 0.01968 0.12159 0.41155 0.0
C1764 C 0.03826 0.15547 0.43489 0.0
C1765 C 0.99059 0.16238 0.45982 0.0
C1766 C 0.03722 0.18104 0.43087 0.0
C1767 C 0.05695 0.19587 0.43637 0.0
C1768 C 0.07829 0.18544 0.44587 0.0
C1769 C 0.07949 0.1597 0.44944 0.0
C1770 C 0.05966 0.14485 0.44392 0.0
H1771 H 0.9744 0.15808 0.47079 0.0
H1772 H 0.00667 0.16297 0.4716 0.0
H1773 H 0.98781 0.18104 0.45204 0.0
H1774 H 0.02112 0.18956 0.42339 0.0
H1775 H 0.0554 0.21557 0.4332 0.0
loop_
_geom_bond_atom_site_label_1
_geom_bond_atom_site_label_2
_geom_bond_distance
_geom_bond_site_symmetry_2
_ccdc_geom_bond_type
Dy0 O3 2.307 . S
Dy0 O5 2.395 . S
Dy0 O6 2.379 . S
Dy0 O8 2.339 . S
Dy0 O10 2.298 . S
Dy0 O14 2.275 . S
Dy0 C22 2.738 . S
Dy1 O4 2.298 . S
Dy1 O7 2.275 . S
Dy1 O9 2.307 . S
Dy1 O11 2.395 . S
Dy1 O12 2.379 . S
Dy1 O15 2.339 . S
Dy1 C31 2.738 . S
C2 O14 1.254 . S
C2 O15 1.257 . S
O3 Dy0 2.307 . S
O3 C13 1.266 . S
O4 Dy1 2.298 . S
O4 C13 1.236 . S
O5 Dy0 2.395 . S
O5 C22 1.255 . S
O6 Dy0 2.379 . S
O6 C22 1.249 . S
O7 Dy1 2.275 . S
O7 C23 1.254 . S
O8 Dy0 2.339 . S
O8 C23 1.257 . S
O9 Dy1 2.307 . S
O9 C24 1.266 . S
O10 Dy0 2.298 . S
O10 C24 1.236 . S
O11 Dy1 2.395 . S
O11 C31 1.255 . S
O12 Dy1 2.379 . S
O12 C31 1.249 . S
C13 O3 1.266 . S
C13 O4 1.236 . S
O14 Dy0 2.275 . S
O14 C2 1.254 . S
O15 Dy1 2.339 . S
O15 C2 1.257 . S
C16 C19 1.344 . S
C16 C20 1.328 . S
C16 C22 1.516 . S
C17 C18 1.304 . S
C17 C21 1.323 . S
C18 C17 1.304 . S
C18 C19 1.371 . S
C18 H32 0.930 . S
C19 C16 1.344 . S
C19 C18 1.371 . S
C19 H33 0.931 . S
C20 C16 1.328 . S
C20 C21 1.433 . S
C20 H34 0.931 . S
C21 C17 1.323 . S
C21 C20 1.433 . S
C21 H35 0.933 . S
C22 Dy0 2.738 . S
C22 O5 1.255 . S
C22 O6 1.249 . S
C22 C16 1.516 . S
C23 O7 1.254 . S
C23 O8 1.257 . S
C24 O9 1.266 . S
C24 O10 1.236 . S
C25 C28 1.344 . S
C25 C29 1.328 . S
C25 C31 1.516 . S
C26 C27 1.304 . S
C26 C30 1.323 . S
C27 C26 1.304 . S
C27 C28 1.371 . S
C27 H36 0.930 . S
C28 C25 1.344 . S
C28 C27 1.371 . S
C28 H37 0.931 . S
C29 C25 1.328 . S
C29 C30 1.433 . S
C29 H38 0.931 . S
C30 C26 1.323 . S
C30 C29 1.433 . S
C30 H39 0.933 . S
C31 Dy1 2.738 . S
C31 O11 1.255 . S
C31 O12 1.249 . S
C31 C25 1.516 . S
H32 C18 0.930 . S
H33 C19 0.931 . S
H34 C20 0.931 . S
H35 C21 0.933 . S
H36 C27 0.930 . S
H37 C28 0.931 . S
H38 C29 0.931 . S
H39 C30 0.933 . S
Dy40 O43 2.307 . S
Dy40 O45 2.395 . S
Dy40 O46 2.379 . S
Dy40 O48 2.339 . S
Dy40 O50 2.298 . S
Dy40 O54 2.275 . S
Dy40 C62 2.738 . S
Dy41 O44 2.271 1_655 S
Dy41 O47 2.272 1_655 S
Dy41 O49 2.303 1_655 S
Dy41 O51 2.424 . S
Dy41 O52 2.394 . S
Dy41 O55 2.307 1_655 S
Dy41 C71 2.763 . S
C42 O54 1.254 . S
C42 O55 1.257 . S
O43 Dy40 2.307 . S
O43 C53 1.266 . S
O44 Dy41 2.271 1_455 S
O44 C53 1.236 . S
O45 Dy40 2.395 . S
O45 C62 1.255 . S
O46 Dy40 2.379 . S
O46 C62 1.249 . S
O47 Dy41 2.272 1_455 S
O47 C63 1.254 . S
O48 Dy40 2.339 . S
O48 C63 1.257 . S
O49 Dy41 2.303 1_455 S
O49 C64 1.266 . S
O50 Dy40 2.298 . S
O50 C64 1.236 . S
O51 Dy41 2.424 . S
O51 C71 1.255 . S
O52 Dy41 2.394 . S
O52 C71 1.249 . S
C53 O43 1.266 . S
C53 O44 1.236 . S
O54 Dy40 2.275 . S
O54 C42 1.254 . S
O55 Dy41 2.307 1_455 S
O55 C42 1.257 . S
C56 C59 1.344 . S
C56 C60 1.328 . S
C56 C62 1.516 . S
C57 C58 1.304 . S
C57 C61 1.323 . S
C58 C57 1.304 . S
C58 C59 1.371 . S
C58 H72 0.930 . S
C59 C56 1.344 . S
C59 C58 1.371 . S
C59 H73 0.931 . S
C60 C56 1.328 . S
C60 C61 1.433 . S
C60 H74 0.931 . S
C61 C57 1.323 . S
C61 C60 1.433 . S
C61 H75 0.933 . S
C62 Dy40 2.738 . S
C62 O45 1.255 . S
C62 O46 1.249 . S
C62 C56 1.516 . S
C63 O47 1.254 . S
C63 O48 1.257 . S
C64 O49 1.266 . S
C64 O50 1.236 . S
C65 C68 1.344 . S
C65 C69 1.328 . S
C65 C71 1.516 . S
C66 C67 1.304 . S
C66 C70 1.323 . S
C67 C66 1.304 . S
C67 C68 1.371 . S
C67 H76 0.930 . S
C68 C65 1.344 . S
C68 C67 1.371 . S
C68 H77 0.931 . S
C69 C65 1.328 . S
C69 C70 1.433 . S
C69 H78 0.931 . S
C70 C66 1.323 . S
C70 C69 1.433 . S
C70 H79 0.933 . S
C71 Dy41 2.763 . S
C71 O51 1.255 . S
C71 O52 1.249 . S
C71 C65 1.516 . S
H72 C58 0.930 . S
H73 C59 0.931 . S
H74 C60 0.931 . S
H75 C61 0.933 . S
H76 C67 0.930 . S
H77 C68 0.931 . S
H78 C69 0.931 . S
H79 C70 0.933 . S
Dy80 O83 2.307 . S
Dy80 O85 2.395 . S
Dy80 O86 2.379 . S
Dy80 O88 2.339 . S
Dy80 O90 2.298 . S
Dy80 O94 2.275 . S
Dy80 C102 2.738 . S
Dy81 O84 2.298 . S
Dy81 O87 2.275 . S
Dy81 O89 2.307 . S
Dy81 O91 2.395 1_556 S
Dy81 O92 2.377 1_556 S
Dy81 O95 2.339 . S
Dy81 C111 2.738 1_556 S
C82 O94 1.254 . S
C82 O95 1.257 . S
O83 Dy80 2.307 . S
O83 C93 1.266 . S
O84 Dy81 2.298 . S
O84 C93 1.236 . S
O85 Dy80 2.395 . S
O85 C102 1.255 . S
O86 Dy80 2.379 . S
O86 C102 1.249 . S
O87 Dy81 2.275 . S
O87 C103 1.254 . S
O88 Dy80 2.339 . S
O88 C103 1.257 . S
O89 Dy81 2.307 . S
O89 C104 1.266 . S
O90 Dy80 2.298 . S
O90 C104 1.236 . S
O91 Dy81 2.395 1_554 S
O91 C111 1.255 . S
O92 Dy81 2.377 1_554 S
O92 C111 1.254 . S
C93 O83 1.266 . S
C93 O84 1.236 . S
O94 Dy80 2.275 . S
O94 C82 1.254 . S
O95 Dy81 2.339 . S
O95 C82 1.257 . S
C96 C99 1.344 . S
C96 C100 1.328 . S
C96 C102 1.516 . S
C97 C98 1.304 . S
C97 C101 1.323 . S
C98 C97 1.304 . S
C98 C99 1.371 . S
C98 H112 0.930 . S
C99 C96 1.344 . S
C99 C98 1.371 . S
C99 H113 0.931 . S
C100 C96 1.328 . S
C100 C101 1.433 . S
C100 H114 0.931 . S
C101 C97 1.323 . S
C101 C100 1.433 . S
C101 H115 0.933 . S
C102 Dy80 2.738 . S
C102 O85 1.255 . S
C102 O86 1.249 . S
C102 C96 1.516 . S
C103 O87 1.254 . S
C103 O88 1.257 . S
C104 O89 1.266 . S
C104 O90 1.236 . S
C105 C108 1.344 . S
C105 C109 1.328 . S
C105 C111 1.516 . S
C106 C107 1.304 . S
C106 C110 1.323 . S
C107 C106 1.304 . S
C107 C108 1.371 . S
C107 H116 0.930 . S
C108 C105 1.344 . S
C108 C107 1.371 . S
C108 H117 0.931 . S
C109 C105 1.328 . S
C109 C110 1.433 . S
C109 H118 0.931 . S
C110 C106 1.323 . S
C110 C109 1.433 . S
C110 H119 0.933 . S
C111 Dy81 2.738 1_554 S
C111 O91 1.255 . S
C111 O92 1.254 . S
C111 C105 1.516 . S
H112 C98 0.930 . S
H113 C99 0.931 . S
H114 C100 0.931 . S
H115 C101 0.933 . S
H116 C107 0.930 . S
H117 C108 0.931 . S
H118 C109 0.931 . S
H119 C110 0.933 . S
Dy120 O123 2.307 . S
Dy120 O125 2.395 . S
Dy120 O126 2.379 . S
Dy120 O128 2.339 . S
Dy120 O130 2.298 . S
Dy120 O134 2.275 . S
Dy120 C142 2.738 . S
Dy121 O124 2.298 . S
Dy121 O127 2.275 . S
Dy121 O129 2.307 . S
Dy121 O131 2.395 . S
Dy121 O132 2.379 . S
Dy121 O135 2.339 . S
Dy121 C151 2.738 . S
C122 O134 1.254 . S
C122 O135 1.257 . S
O123 Dy120 2.307 . S
O123 C133 1.266 . S
O124 Dy121 2.298 . S
O124 C133 1.236 . S
O125 Dy120 2.395 . S
O125 C142 1.255 . S
O126 Dy120 2.379 . S
O126 C142 1.249 . S
O127 Dy121 2.275 . S
O127 C143 1.254 . S
O128 Dy120 2.339 . S
O128 C143 1.257 . S
O129 Dy121 2.307 . S
O129 C144 1.266 . S
O130 Dy120 2.298 . S
O130 C144 1.236 . S
O131 Dy121 2.395 . S
O131 C151 1.255 . S
O132 Dy121 2.379 . S
O132 C151 1.249 . S
C133 O123 1.266 . S
C133 O124 1.236 . S
O134 Dy120 2.275 . S
O134 C122 1.254 . S
O135 Dy121 2.339 . S
O135 C122 1.257 . S
C136 C139 1.344 . S
C136 C140 1.328 . S
C136 C142 1.516 . S
C137 C138 1.304 . S
C137 C141 1.323 . S
C138 C137 1.304 . S
C138 C139 1.371 . S
C138 H152 0.930 . S
C139 C136 1.344 . S
C139 C138 1.371 . S
C139 H153 0.931 . S
C140 C136 1.328 . S
C140 C141 1.433 . S
C140 H154 0.931 . S
C141 C137 1.323 . S
C141 C140 1.433 . S
C141 H155 0.933 . S
C142 Dy120 2.738 . S
C142 O125 1.255 . S
C142 O126 1.249 . S
C142 C136 1.516 . S
C143 O127 1.254 . S
C143 O128 1.257 . S
C144 O129 1.266 . S
C144 O130 1.236 . S
C145 C148 1.344 . S
C145 C149 1.328 . S
C145 C151 1.516 . S
C146 C147 1.304 . S
C146 C150 1.323 . S
C147 C146 1.304 . S
C147 C148 1.371 . S
C147 H156 0.930 . S
C148 C145 1.344 . S
C148 C147 1.371 . S
C148 H157 0.931 . S
C149 C145 1.328 . S
C149 C150 1.433 . S
C149 H158 0.931 . S
C150 C146 1.323 . S
C150 C149 1.433 . S
C150 H159 0.933 . S
C151 Dy121 2.738 . S
C151 O131 1.255 . S
C151 O132 1.249 . S
C151 C145 1.516 . S
H152 C138 0.930 . S
H153 C139 0.931 . S
H154 C140 0.931 . S
H155 C141 0.933 . S
H156 C147 0.930 . S
H157 C148 0.931 . S
H158 C149 0.931 . S
H159 C150 0.933 . S
Dy160 O163 2.307 . S
Dy160 O165 2.395 . S
Dy160 O166 2.379 . S
Dy160 O168 2.339 . S
Dy160 O170 2.298 . S
Dy160 O174 2.275 . S
Dy160 C182 2.738 . S
Dy161 O164 2.298 . S
Dy161 O167 2.275 . S
Dy161 O169 2.307 . S
Dy161 O171 2.395 . S
Dy161 O172 2.379 . S
Dy161 O175 2.339 . S
Dy161 C191 2.738 . S
C162 O174 1.254 . S
C162 O175 1.257 . S
O163 Dy160 2.307 . S
O163 C173 1.266 . S
O164 Dy161 2.298 . S
O164 C173 1.236 . S
O165 Dy160 2.395 . S
O165 C182 1.255 . S
O166 Dy160 2.379 . S
O166 C182 1.249 . S
O167 Dy161 2.275 . S
O167 C183 1.254 . S
O168 Dy160 2.339 . S
O168 C183 1.257 . S
O169 Dy161 2.307 . S
O169 C184 1.266 . S
O170 Dy160 2.298 . S
O170 C184 1.236 . S
O171 Dy161 2.395 . S
O171 C191 1.255 . S
O172 Dy161 2.379 . S
O172 C191 1.249 . S
C173 O163 1.266 . S
C173 O164 1.236 . S
O174 Dy160 2.275 . S
O174 C162 1.254 . S
O175 Dy161 2.339 . S
O175 C162 1.257 . S
C176 C179 1.344 . S
C176 C180 1.328 . S
C176 C182 1.516 . S
C177 C178 1.304 . S
C177 C181 1.323 . S
C178 C177 1.304 . S
C178 C179 1.371 . S
C178 H192 0.930 . S
C179 C176 1.344 . S
C179 C178 1.371 . S
C179 H193 0.931 . S
C180 C176 1.328 . S
C180 C181 1.433 . S
C180 H194 0.931 . S
C181 C177 1.323 . S
C181 C180 1.433 . S
C181 H195 0.933 . S
C182 Dy160 2.738 . S
C182 O165 1.255 . S
C182 O166 1.249 . S
C182 C176 1.516 . S
C183 O167 1.254 . S
C183 O168 1.257 . S
C184 O169 1.266 . S
C184 O170 1.236 . S
C185 C188 1.344 . S
C185 C189 1.328 . S
C185 C191 1.516 . S
C186 C187 1.304 . S
C186 C190 1.323 . S
C187 C186 1.304 . S
C187 C188 1.371 . S
C187 H196 0.930 . S
C188 C185 1.344 . S
C188 C187 1.371 . S
C188 H197 0.931 . S
C189 C185 1.328 . S
C189 C190 1.433 . S
C189 H198 0.931 . S
C190 C186 1.323 . S
C190 C189 1.433 . S
C190 H199 0.933 . S
C191 Dy161 2.738 . S
C191 O171 1.255 . S
C191 O172 1.249 . S
C191 C185 1.516 . S
H192 C178 0.930 . S
H193 C179 0.931 . S
H194 C180 0.931 . S
H195 C181 0.933 . S
H196 C187 0.930 . S
H197 C188 0.931 . S
H198 C189 0.931 . S
H199 C190 0.933 . S
Dy200 O203 2.307 . S
Dy200 O205 2.395 . S
Dy200 O206 2.379 . S
Dy200 O208 2.339 . S
Dy200 O210 2.298 . S
Dy200 O214 2.275 . S
Dy200 C222 2.738 . S
Dy201 O204 2.298 1_455 S
Dy201 O207 2.278 . S
Dy201 O209 2.303 1_455 S
Dy201 O211 2.395 . S
Dy201 O212 2.379 . S
Dy201 O215 2.339 1_455 S
Dy201 C231 2.738 . S
C202 O214 1.254 . S
C202 O215 1.257 . S
O203 Dy200 2.307 . S
O203 C213 1.266 . S
O204 Dy201 2.298 1_655 S
O204 C213 1.236 . S
O205 Dy200 2.395 . S
O205 C222 1.255 . S
O206 Dy200 2.379 . S
O206 C222 1.249 . S
O207 Dy201 2.278 . S
O207 C223 1.254 . S
O208 Dy200 2.339 . S
O208 C223 1.232 1_655 S
O209 Dy201 2.303 1_655 S
O209 C224 1.286 . S
O210 Dy200 2.298 . S
O210 C224 1.236 . S
O211 Dy201 2.395 . S
O211 C231 1.255 . S
O212 Dy201 2.379 . S
O212 C231 1.249 . S
C213 O203 1.266 . S
C213 O204 1.236 . S
O214 Dy200 2.275 . S
O214 C202 1.254 . S
O215 Dy201 2.339 1_655 S
O215 C202 1.257 . S
C216 C219 1.344 . S
C216 C220 1.328 . S
C216 C222 1.516 . S
C217 C218 1.304 . S
C217 C221 1.323 . S
C218 C217 1.304 . S
C218 C219 1.371 . S
C218 H232 0.930 . S
C219 C216 1.344 . S
C219 C218 1.371 . S
C219 H233 0.931 . S
C220 C216 1.328 . S
C220 C221 1.433 . S
C220 H234 0.931 . S
C221 C217 1.323 . S
C221 C220 1.433 . S
C221 H235 0.933 . S
C222 Dy200 2.738 . S
C222 O205 1.255 . S
C222 O206 1.249 . S
C222 C216 1.516 . S
C223 O207 1.254 . S
C223 O208 1.232 1_455 S
C224 O209 1.286 . S
C224 O210 1.236 . S
C225 C228 1.344 . S
C225 C229 1.328 . S
C225 C231 1.516 . S
C226 C227 1.304 . S
C226 C230 1.323 . S
C227 C226 1.304 . S
C227 C228 1.371 . S
C227 H236 0.930 . S
C228 C225 1.344 . S
C228 C227 1.371 . S
C228 H237 0.931 . S
C229 C225 1.328 . S
C229 C230 1.433 . S
C229 H238 0.931 . S
C230 C226 1.323 . S
C230 C229 1.433 . S
C230 H239 0.933 . S
C231 Dy201 2.738 . S
C231 O211 1.255 . S
C231 O212 1.249 . S
C231 C225 1.516 . S
H232 C218 0.930 . S
H233 C219 0.931 . S
H234 C220 0.931 . S
H235 C221 0.933 . S
H236 C227 0.930 . S
H237 C228 0.931 . S
H238 C229 0.931 . S
H239 C230 0.933 . S
Dy240 O243 2.307 1_556 S
Dy240 O245 2.395 . S
Dy240 O246 2.379 . S
Dy240 O248 2.339 . S
Dy240 O250 2.298 . S
Dy240 O254 2.275 1_556 S
Dy240 C262 2.738 . S
Dy241 O244 2.298 . S
Dy241 O247 2.275 . S
Dy241 O249 2.307 . S
Dy241 O251 2.395 . S
Dy241 O252 2.379 . S
Dy241 O255 2.339 . S
Dy241 C271 2.738 . S
C242 O254 1.254 . S
C242 O255 1.257 . S
O243 Dy240 2.307 1_554 S
O243 C253 1.266 . S
O244 Dy241 2.298 . S
O244 C253 1.236 . S
O245 Dy240 2.395 . S
O245 C262 1.255 . S
O246 Dy240 2.379 . S
O246 C262 1.249 . S
O247 Dy241 2.275 . S
O247 C263 1.254 1_554 S
O248 Dy240 2.339 . S
O248 C263 1.257 . S
O249 Dy241 2.307 . S
O249 C264 1.266 1_554 S
O250 Dy240 2.298 . S
O250 C264 1.236 . S
O251 Dy241 2.395 . S
O251 C271 1.255 . S
O252 Dy241 2.379 . S
O252 C271 1.249 . S
C253 O243 1.266 . S
C253 O244 1.236 . S
O254 Dy240 2.275 1_554 S
O254 C242 1.254 . S
O255 Dy241 2.339 . S
O255 C242 1.257 . S
C256 C259 1.344 . S
C256 C260 1.328 . S
C256 C262 1.516 . S
C257 C258 1.304 . S
C257 C261 1.323 . S
C258 C257 1.304 . S
C258 C259 1.371 . S
C258 H272 0.930 . S
C259 C256 1.344 . S
C259 C258 1.371 . S
C259 H273 0.931 . S
C260 C256 1.328 . S
C260 C261 1.433 . S
C260 H274 0.931 . S
C261 C257 1.323 . S
C261 C260 1.433 . S
C261 H275 0.933 . S
C262 Dy240 2.738 . S
C262 O245 1.255 . S
C262 O246 1.249 . S
C262 C256 1.516 . S
C263 O247 1.254 1_556 S
C263 O248 1.257 . S
C264 O249 1.266 1_556 S
C264 O250 1.236 . S
C265 C268 1.344 . S
C265 C269 1.328 . S
C265 C271 1.516 . S
C266 C267 1.304 . S
C266 C270 1.323 . S
C267 C266 1.304 . S
C267 C268 1.371 . S
C267 H276 0.930 . S
C268 C265 1.344 . S
C268 C267 1.371 . S
C268 H277 0.931 . S
C269 C265 1.328 . S
C269 C270 1.433 . S
C269 H278 0.931 . S
C270 C266 1.323 . S
C270 C269 1.433 . S
C270 H279 0.933 . S
C271 Dy241 2.738 . S
C271 O251 1.255 . S
C271 O252 1.249 . S
C271 C265 1.516 . S
H272 C258 0.930 . S
H273 C259 0.931 . S
H274 C260 0.931 . S
H275 C261 0.933 . S
H276 C267 0.930 . S
H277 C268 0.931 . S
H278 C269 0.931 . S
H279 C270 0.933 . S
Dy280 O283 2.307 . S
Dy280 O285 2.395 . S
Dy280 O286 2.379 . S
Dy280 O288 2.339 . S
Dy280 O290 2.298 . S
Dy280 O294 2.275 . S
Dy280 C302 2.738 . S
Dy281 O284 2.298 . S
Dy281 O287 2.275 . S
Dy281 O289 2.307 . S
Dy281 O291 2.395 . S
Dy281 O292 2.379 . S
Dy281 O295 2.339 . S
Dy281 C311 2.738 . S
C282 O294 1.254 . S
C282 O295 1.257 . S
O283 Dy280 2.307 . S
O283 C293 1.266 . S
O284 Dy281 2.298 . S
O284 C293 1.236 . S
O285 Dy280 2.395 . S
O285 C302 1.255 . S
O286 Dy280 2.379 . S
O286 C302 1.249 . S
O287 Dy281 2.275 . S
O287 C303 1.254 . S
O288 Dy280 2.339 . S
O288 C303 1.257 . S
O289 Dy281 2.307 . S
O289 C304 1.266 . S
O290 Dy280 2.298 . S
O290 C304 1.236 . S
O291 Dy281 2.395 . S
O291 C311 1.255 . S
O292 Dy281 2.379 . S
O292 C311 1.249 . S
C293 O283 1.266 . S
C293 O284 1.236 . S
O294 Dy280 2.275 . S
O294 C282 1.254 . S
O295 Dy281 2.339 . S
O295 C282 1.257 . S
C296 C299 1.344 . S
C296 C300 1.328 . S
C296 C302 1.516 . S
C297 C298 1.304 . S
C297 C301 1.323 . S
C298 C297 1.304 . S
C298 C299 1.371 . S
C298 H312 0.930 . S
C299 C296 1.344 . S
C299 C298 1.371 . S
C299 H313 0.931 . S
C300 C296 1.328 . S
C300 C301 1.433 . S
C300 H314 0.931 . S
C301 C297 1.323 . S
C301 C300 1.433 . S
C301 H315 0.933 . S
C302 Dy280 2.738 . S
C302 O285 1.255 . S
C302 O286 1.249 . S
C302 C296 1.516 . S
C303 O287 1.254 . S
C303 O288 1.257 . S
C304 O289 1.266 . S
C304 O290 1.236 . S
C305 C308 1.344 . S
C305 C309 1.328 . S
C305 C311 1.516 . S
C306 C307 1.304 . S
C306 C310 1.323 . S
C307 C306 1.304 . S
C307 C308 1.371 . S
C307 H316 0.930 . S
C308 C305 1.344 . S
C308 C307 1.371 . S
C308 H317 0.931 . S
C309 C305 1.328 . S
C309 C310 1.433 . S
C309 H318 0.931 . S
C310 C306 1.323 . S
C310 C309 1.433 . S
C310 H319 0.933 . S
C311 Dy281 2.738 . S
C311 O291 1.255 . S
C311 O292 1.249 . S
C311 C305 1.516 . S
H312 C298 0.930 . S
H313 C299 0.931 . S
H314 C300 0.931 . S
H315 C301 0.933 . S
H316 C307 0.930 . S
H317 C308 0.931 . S
H318 C309 0.931 . S
H319 C310 0.933 . S
Dy320 O323 2.307 . S
Dy320 O325 2.395 . S
Dy320 O326 2.379 . S
Dy320 O328 2.339 . S
Dy320 O330 2.298 . S
Dy320 O334 2.275 . S
Dy320 C342 2.738 . S
Dy321 O324 2.298 . S
Dy321 O327 2.275 . S
Dy321 O329 2.307 . S
Dy321 O331 2.395 . S
Dy321 O332 2.379 . S
Dy321 O335 2.339 . S
Dy321 C351 2.738 . S
C322 O334 1.254 . S
C322 O335 1.257 . S
O323 Dy320 2.307 . S
O323 C333 1.266 . S
O324 Dy321 2.298 . S
O324 C333 1.236 . S
O325 Dy320 2.395 . S
O325 C342 1.255 . S
O326 Dy320 2.379 . S
O326 C342 1.249 . S
O327 Dy321 2.275 . S
O327 C343 1.254 . S
O328 Dy320 2.339 . S
O328 C343 1.257 . S
O329 Dy321 2.307 . S
O329 C344 1.266 . S
O330 Dy320 2.298 . S
O330 C344 1.236 . S
O331 Dy321 2.395 . S
O331 C351 1.255 . S
O332 Dy321 2.379 . S
O332 C351 1.249 . S
C333 O323 1.266 . S
C333 O324 1.236 . S
O334 Dy320 2.275 . S
O334 C322 1.254 . S
O335 Dy321 2.339 . S
O335 C322 1.257 . S
C336 C339 1.344 . S
C336 C340 1.328 . S
C336 C342 1.516 . S
C337 C338 1.304 . S
C337 C341 1.323 . S
C338 C337 1.304 . S
C338 C339 1.371 . S
C338 H352 0.930 . S
C339 C336 1.344 . S
C339 C338 1.371 . S
C339 H353 0.931 . S
C340 C336 1.328 . S
C340 C341 1.433 . S
C340 H354 0.931 . S
C341 C337 1.323 . S
C341 C340 1.433 . S
C341 H355 0.933 . S
C342 Dy320 2.738 . S
C342 O325 1.255 . S
C342 O326 1.249 . S
C342 C336 1.516 . S
C343 O327 1.254 . S
C343 O328 1.257 . S
C344 O329 1.266 . S
C344 O330 1.236 . S
C345 C348 1.344 . S
C345 C349 1.328 . S
C345 C351 1.516 . S
C346 C347 1.304 . S
C346 C350 1.323 . S
C347 C346 1.304 . S
C347 C348 1.371 . S
C347 H356 0.930 . S
C348 C345 1.344 . S
C348 C347 1.371 . S
C348 H357 0.931 . S
C349 C345 1.328 . S
C349 C350 1.433 . S
C349 H358 0.931 . S
C350 C346 1.323 . S
C350 C349 1.433 . S
C350 H359 0.933 . S
C351 Dy321 2.738 . S
C351 O331 1.255 . S
C351 O332 1.249 . S
C351 C345 1.516 . S
H352 C338 0.930 . S
H353 C339 0.931 . S
H354 C340 0.931 . S
H355 C341 0.933 . S
H356 C347 0.930 . S
H357 C348 0.931 . S
H358 C349 0.931 . S
H359 C350 0.933 . S
Dy360 O363 2.307 1_565 S
Dy360 O365 2.395 . S
Dy360 O366 2.379 . S
Dy360 O368 2.339 . S
Dy360 O370 2.298 . S
Dy360 O374 2.275 1_565 S
Dy360 C382 2.738 . S
Dy361 O364 2.298 . S
Dy361 O367 2.275 . S
Dy361 O369 2.307 . S
Dy361 O371 2.395 . S
Dy361 O372 2.379 . S
Dy361 O375 2.339 . S
Dy361 C391 2.738 . S
C362 O374 1.254 . S
C362 O375 1.257 . S
O363 Dy360 2.307 1_545 S
O363 C373 1.266 . S
O364 Dy361 2.298 . S
O364 C373 1.236 . S
O365 Dy360 2.395 . S
O365 C382 1.255 . S
O366 Dy360 2.379 . S
O366 C382 1.249 . S
O367 Dy361 2.275 . S
O367 C383 1.254 1_545 S
O368 Dy360 2.339 . S
O368 C383 1.257 . S
O369 Dy361 2.307 . S
O369 C384 1.266 1_545 S
O370 Dy360 2.298 . S
O370 C384 1.236 . S
O371 Dy361 2.395 . S
O371 C391 1.255 . S
O372 Dy361 2.379 . S
O372 C391 1.249 . S
C373 O363 1.266 . S
C373 O364 1.236 . S
O374 Dy360 2.275 1_545 S
O374 C362 1.254 . S
O375 Dy361 2.339 . S
O375 C362 1.257 . S
C376 C379 1.344 . S
C376 C380 1.328 . S
C376 C382 1.516 . S
C377 C378 1.304 . S
C377 C381 1.323 . S
C378 C377 1.304 . S
C378 C379 1.371 . S
C378 H392 0.930 . S
C379 C376 1.344 . S
C379 C378 1.371 . S
C379 H393 0.931 . S
C380 C376 1.328 . S
C380 C381 1.433 . S
C380 H394 0.931 . S
C381 C377 1.323 . S
C381 C380 1.433 . S
C381 H395 0.933 . S
C382 Dy360 2.738 . S
C382 O365 1.255 . S
C382 O366 1.249 . S
C382 C376 1.516 . S
C383 O367 1.254 1_565 S
C383 O368 1.257 . S
C384 O369 1.266 1_565 S
C384 O370 1.236 . S
C385 C388 1.344 . S
C385 C389 1.328 . S
C385 C391 1.516 . S
C386 C387 1.304 . S
C386 C390 1.323 . S
C387 C386 1.304 . S
C387 C388 1.371 . S
C387 H396 0.930 . S
C388 C385 1.344 . S
C388 C387 1.371 . S
C388 H397 0.931 . S
C389 C385 1.328 . S
C389 C390 1.433 . S
C389 H398 0.931 . S
C390 C386 1.323 . S
C390 C389 1.433 . S
C390 H399 0.933 . S
C391 Dy361 2.738 . S
C391 O371 1.255 . S
C391 O372 1.249 . S
C391 C385 1.516 . S
H392 C378 0.930 . S
H393 C379 0.931 . S
H394 C380 0.931 . S
H395 C381 0.933 . S
H396 C387 0.930 . S
H397 C388 0.931 . S
H398 C389 0.931 . S
H399 C390 0.933 . S
Dy400 O403 2.307 . S
Dy400 O405 2.395 . S
Dy400 O406 2.379 . S
Dy400 O408 2.339 . S
Dy400 O410 2.298 . S
Dy400 O414 2.275 . S
Dy400 C422 2.738 . S
Dy401 O404 2.285 1_545 S
Dy401 O407 2.274 1_545 S
Dy401 O409 2.305 1_545 S
Dy401 O411 2.409 . S
Dy401 O412 2.385 . S
Dy401 O415 2.323 1_545 S
Dy401 C431 2.749 . S
C402 O414 1.254 . S
C402 O415 1.257 . S
O403 Dy400 2.307 . S
O403 C413 1.266 . S
O404 Dy401 2.285 1_565 S
O404 C413 1.236 . S
O405 Dy400 2.395 . S
O405 C422 1.255 . S
O406 Dy400 2.379 . S
O406 C422 1.249 . S
O407 Dy401 2.274 1_565 S
O407 C423 1.254 . S
O408 Dy400 2.339 . S
O408 C423 1.291 . S
O409 Dy401 2.305 1_565 S
O409 C424 1.266 . S
O410 Dy400 2.298 . S
O410 C424 1.236 . S
O411 Dy401 2.409 . S
O411 C431 1.255 . S
O412 Dy401 2.385 . S
O412 C431 1.249 . S
C413 O403 1.266 . S
C413 O404 1.236 . S
O414 Dy400 2.275 . S
O414 C402 1.254 . S
O415 Dy401 2.323 1_565 S
O415 C402 1.257 . S
C416 C419 1.344 . S
C416 C420 1.328 . S
C416 C422 1.516 . S
C417 C418 1.304 . S
C417 C421 1.323 . S
C418 C417 1.304 . S
C418 C419 1.371 . S
C418 H432 0.930 . S
C419 C416 1.344 . S
C419 C418 1.371 . S
C419 H433 0.931 . S
C420 C416 1.328 . S
C420 C421 1.433 . S
C420 H434 0.931 . S
C421 C417 1.323 . S
C421 C420 1.433 . S
C421 H435 0.933 . S
C422 Dy400 2.738 . S
C422 O405 1.255 . S
C422 O406 1.249 . S
C422 C416 1.516 . S
C423 O407 1.254 . S
C423 O408 1.291 . S
C424 O409 1.266 . S
C424 O410 1.236 . S
C425 C428 1.344 . S
C425 C429 1.328 . S
C425 C431 1.516 . S
C426 C427 1.304 . S
C426 C430 1.323 . S
C427 C426 1.304 . S
C427 C428 1.371 . S
C427 H436 0.930 . S
C428 C425 1.344 . S
C428 C427 1.371 . S
C428 H437 0.931 . S
C429 C425 1.328 . S
C429 C430 1.433 . S
C429 H438 0.931 . S
C430 C426 1.323 . S
C430 C429 1.433 . S
C430 H439 0.933 . S
C431 Dy401 2.749 . S
C431 O411 1.255 . S
C431 O412 1.249 . S
C431 C425 1.516 . S
H432 C418 0.930 . S
H433 C419 0.931 . S
H434 C420 0.931 . S
H435 C421 0.933 . S
H436 C427 0.930 . S
H437 C428 0.931 . S
H438 C429 0.931 . S
H439 C430 0.933 . S
Dy440 O443 2.307 . S
Dy440 O445 2.395 . S
Dy440 O446 2.379 . S
Dy440 O448 2.339 . S
Dy440 O450 2.298 . S
Dy440 O454 2.275 . S
Dy440 C462 2.738 . S
Dy441 O444 2.298 . S
Dy441 O447 2.275 . S
Dy441 O449 2.307 . S
Dy441 O451 2.395 . S
Dy441 O452 2.379 . S
Dy441 O455 2.339 . S
Dy441 C471 2.738 . S
C442 O454 1.254 . S
C442 O455 1.257 . S
O443 Dy440 2.307 . S
O443 C453 1.266 . S
O444 Dy441 2.298 . S
O444 C453 1.236 . S
O445 Dy440 2.395 . S
O445 C462 1.255 . S
O446 Dy440 2.379 . S
O446 C462 1.249 . S
O447 Dy441 2.275 . S
O447 C463 1.254 . S
O448 Dy440 2.339 . S
O448 C463 1.257 . S
O449 Dy441 2.307 . S
O449 C464 1.266 . S
O450 Dy440 2.298 . S
O450 C464 1.236 . S
O451 Dy441 2.395 . S
O451 C471 1.255 . S
O452 Dy441 2.379 . S
O452 C471 1.249 . S
C453 O443 1.266 . S
C453 O444 1.236 . S
O454 Dy440 2.275 . S
O454 C442 1.254 . S
O455 Dy441 2.339 . S
O455 C442 1.257 . S
C456 C459 1.344 . S
C456 C460 1.328 . S
C456 C462 1.516 . S
C457 C458 1.304 . S
C457 C461 1.323 . S
C458 C457 1.304 . S
C458 C459 1.371 . S
C458 H472 0.930 . S
C459 C456 1.344 . S
C459 C458 1.371 . S
C459 H473 0.931 . S
C460 C456 1.328 . S
C460 C461 1.433 . S
C460 H474 0.931 . S
C461 C457 1.323 . S
C461 C460 1.433 . S
C461 H475 0.933 . S
C462 Dy440 2.738 . S
C462 O445 1.255 . S
C462 O446 1.249 . S
C462 C456 1.516 . S
C463 O447 1.254 . S
C463 O448 1.257 . S
C464 O449 1.266 . S
C464 O450 1.236 . S
C465 C468 1.344 . S
C465 C469 1.328 . S
C465 C471 1.516 . S
C466 C467 1.304 . S
C466 C470 1.323 . S
C467 C466 1.304 . S
C467 C468 1.371 . S
C467 H476 0.930 . S
C468 C465 1.344 . S
C468 C467 1.371 . S
C468 H477 0.931 . S
C469 C465 1.328 . S
C469 C470 1.433 . S
C469 H478 0.931 . S
C470 C466 1.323 . S
C470 C469 1.433 . S
C470 H479 0.933 . S
C471 Dy441 2.738 . S
C471 O451 1.255 . S
C471 O452 1.249 . S
C471 C465 1.516 . S
H472 C458 0.930 . S
H473 C459 0.931 . S
H474 C460 0.931 . S
H475 C461 0.933 . S
H476 C467 0.930 . S
H477 C468 0.931 . S
H478 C469 0.931 . S
H479 C470 0.933 . S
H480 C488 0.929 . S
H481 C490 0.930 . S
H482 C492 0.930 . S
H483 C495 0.929 . S
H484 C498 0.930 . S
H485 C500 0.960 . S
H486 C500 0.960 . S
H487 C500 0.960 . S
C488 H480 0.929 . S
C488 C489 1.377 . S
C488 C490 1.384 . S
C489 C488 1.377 . S
C489 C495 1.390 . S
C490 H481 0.930 . S
C490 C488 1.384 . S
C490 C491 1.372 . S
C491 C490 1.372 . S
C491 C492 1.400 . S
C491 C496 1.490 . S
C492 H482 0.930 . S
C492 C491 1.400 . S
C492 C495 1.386 . S
H493 C509 0.930 . S
H494 C510 0.931 . S
C495 H483 0.929 . S
C495 C489 1.390 . S
C495 C492 1.386 . S
C496 C491 1.490 . S
C496 C498 1.395 . S
C496 C499 1.403 . S
H497 C503 0.930 . S
C498 H484 0.930 . S
C498 C496 1.395 . S
C498 C501 1.403 . S
C499 C496 1.403 . S
C499 C500 1.524 . S
C499 C503 1.400 . S
C500 H485 0.960 . S
C500 H486 0.960 . S
C500 H487 0.960 . S
C500 C499 1.524 . S
C501 C498 1.403 . S
C501 C502 1.392 . S
C501 C505 1.495 . S
C502 C501 1.392 . S
C502 C503 1.385 . S
C502 C504 1.478 . S
C503 H497 0.930 . S
C503 C499 1.400 . S
C503 C502 1.385 . S
C504 C502 1.478 . S
C504 C506 1.381 . S
C504 C510 1.383 . S
C505 C501 1.495 . S
C505 H511 0.959 . S
C505 H512 0.961 . S
C505 H513 0.960 . S
C506 C504 1.381 . S
C506 C507 1.394 . S
C506 H514 0.930 . S
C507 C506 1.394 . S
C507 C508 1.383 . S
C507 H515 0.929 . S
C508 C507 1.383 . S
C508 C509 1.377 . S
C509 H493 0.930 . S
C509 C508 1.377 . S
C509 C510 1.379 . S
C510 H494 0.931 . S
C510 C504 1.383 . S
C510 C509 1.379 . S
H511 C505 0.959 . S
H512 C505 0.961 . S
H513 C505 0.960 . S
H514 C506 0.930 . S
H515 C507 0.929 . S
H516 C524 0.923 1_545 S
H517 C526 0.930 . S
H518 C528 0.930 . S
H519 C531 0.929 . S
H520 C534 0.930 . S
H521 C536 0.960 1_545 S
H522 C536 0.960 1_545 S
H523 C536 0.960 . S
C524 H516 0.923 1_565 S
C524 C525 1.377 . S
C524 C526 1.384 . S
C525 C524 1.377 . S
C525 C531 1.390 . S
C526 H517 0.930 . S
C526 C524 1.384 . S
C526 C527 1.372 . S
C527 C526 1.372 . S
C527 C528 1.400 . S
C527 C532 1.490 . S
C528 H518 0.930 . S
C528 C527 1.400 . S
C528 C531 1.386 . S
H529 C545 0.930 . S
H530 C546 0.931 . S
C531 H519 0.929 . S
C531 C525 1.390 . S
C531 C528 1.386 . S
C532 C527 1.490 . S
C532 C534 1.395 . S
C532 C535 1.403 . S
H533 C539 0.930 . S
C534 H520 0.930 . S
C534 C532 1.395 . S
C534 C537 1.403 . S
C535 C532 1.403 . S
C535 C536 1.524 . S
C535 C539 1.400 . S
C536 H521 0.960 1_565 S
C536 H522 0.960 1_565 S
C536 H523 0.960 . S
C536 C535 1.524 . S
C537 C534 1.403 . S
C537 C538 1.392 . S
C537 C541 1.495 . S
C538 C537 1.392 . S
C538 C539 1.385 . S
C538 C540 1.478 . S
C539 H533 0.930 . S
C539 C535 1.400 . S
C539 C538 1.385 . S
C540 C538 1.478 . S
C540 C542 1.381 . S
C540 C546 1.383 . S
C541 C537 1.495 . S
C541 H547 0.959 . S
C541 H548 0.961 . S
C541 H549 0.960 . S
C542 C540 1.381 . S
C542 C543 1.394 . S
C542 H550 0.930 . S
C543 C542 1.394 . S
C543 C544 1.383 . S
C543 H551 0.929 . S
C544 C543 1.383 . S
C544 C545 1.377 . S
C545 H529 0.930 . S
C545 C544 1.377 . S
C545 C546 1.379 . S
C546 H530 0.931 . S
C546 C540 1.383 . S
C546 C545 1.379 . S
H547 C541 0.959 . S
H548 C541 0.961 . S
H549 C541 0.960 . S
H550 C542 0.930 . S
H551 C543 0.929 . S
H552 C560 0.929 . S
H553 C562 0.930 . S
H554 C564 0.930 . S
H555 C567 0.929 . S
H556 C570 0.930 . S
H557 C572 0.960 . S
H558 C572 0.960 . S
H559 C572 0.960 . S
C560 H552 0.929 . S
C560 C561 1.377 . S
C560 C562 1.384 . S
C561 C560 1.377 . S
C561 C567 1.390 1_556 S
C562 H553 0.930 . S
C562 C560 1.384 . S
C562 C563 1.372 1_556 S
C563 C562 1.372 1_554 S
C563 C564 1.400 . S
C563 C568 1.490 . S
C564 H554 0.930 . S
C564 C563 1.400 . S
C564 C567 1.386 . S
H565 C581 0.930 . S
H566 C582 0.931 . S
C567 H555 0.929 . S
C567 C561 1.390 1_554 S
C567 C564 1.386 . S
C568 C563 1.490 . S
C568 C570 1.395 . S
C568 C571 1.403 . S
H569 C575 0.930 . S
C570 H556 0.930 . S
C570 C568 1.395 . S
C570 C573 1.403 . S
C571 C568 1.403 . S
C571 C572 1.524 . S
C571 C575 1.400 . S
C572 H557 0.960 . S
C572 H558 0.960 . S
C572 H559 0.960 . S
C572 C571 1.524 . S
C573 C570 1.403 . S
C573 C574 1.392 . S
C573 C577 1.495 . S
C574 C573 1.392 . S
C574 C575 1.385 . S
C574 C576 1.478 . S
C575 H569 0.930 . S
C575 C571 1.400 . S
C575 C574 1.385 . S
C576 C574 1.478 . S
C576 C578 1.381 . S
C576 C582 1.383 . S
C577 C573 1.495 . S
C577 H583 0.959 . S
C577 H584 0.961 . S
C577 H585 0.960 . S
C578 C576 1.381 . S
C578 C579 1.394 . S
C578 H586 0.930 . S
C579 C578 1.394 . S
C579 C580 1.383 . S
C579 H587 0.929 . S
C580 C579 1.383 . S
C580 C581 1.377 . S
C581 H565 0.930 . S
C581 C580 1.377 . S
C581 C582 1.379 . S
C582 H566 0.931 . S
C582 C576 1.383 . S
C582 C581 1.379 . S
H583 C577 0.959 . S
H584 C577 0.961 . S
H585 C577 0.960 . S
H586 C578 0.930 . S
H587 C579 0.929 . S
H588 C596 0.929 . S
H589 C598 0.930 . S
H590 C600 0.930 . S
H591 C603 0.929 . S
H592 C606 0.930 . S
H593 C608 0.960 1_565 S
H594 C608 0.960 . S
H595 C608 0.960 . S
C596 H588 0.929 . S
C596 C597 1.377 . S
C596 C598 1.384 . S
C597 C596 1.377 . S
C597 C603 1.390 . S
C598 H589 0.930 . S
C598 C596 1.384 . S
C598 C599 1.372 . S
C599 C598 1.372 . S
C599 C600 1.400 . S
C599 C604 1.490 . S
C600 H590 0.930 . S
C600 C599 1.400 . S
C600 C603 1.386 . S
H601 C617 0.930 . S
H602 C618 0.931 . S
C603 H591 0.929 . S
C603 C597 1.390 . S
C603 C600 1.386 . S
C604 C599 1.490 . S
C604 C606 1.395 . S
C604 C607 1.403 . S
H605 C611 0.930 1_565 S
C606 H592 0.930 . S
C606 C604 1.395 . S
C606 C609 1.403 . S
C607 C604 1.403 . S
C607 C608 1.524 . S
C607 C611 1.400 . S
C608 H593 0.960 1_545 S
C608 H594 0.960 . S
C608 H595 0.960 . S
C608 C607 1.524 . S
C609 C606 1.403 . S
C609 C610 1.392 . S
C609 C613 1.495 . S
C610 C609 1.392 . S
C610 C611 1.385 . S
C610 C612 1.478 . S
C611 H605 0.930 1_545 S
C611 C607 1.400 . S
C611 C610 1.385 . S
C612 C610 1.478 . S
C612 C614 1.381 . S
C612 C618 1.383 . S
C613 C609 1.495 . S
C613 H619 0.959 . S
C613 H620 0.961 . S
C613 H621 0.960 . S
C614 C612 1.381 . S
C614 C615 1.394 . S
C614 H622 0.930 . S
C615 C614 1.394 . S
C615 C616 1.383 1_545 S
C615 H623 0.929 . S
C616 C615 1.383 1_565 S
C616 C617 1.377 . S
C617 H601 0.930 . S
C617 C616 1.377 . S
C617 C618 1.379 1_565 S
C618 H602 0.931 . S
C618 C612 1.383 . S
C618 C617 1.379 1_545 S
H619 C613 0.959 . S
H620 C613 0.961 . S
H621 C613 0.960 . S
H622 C614 0.930 . S
H623 C615 0.929 . S
H624 C632 0.929 . S
H625 C634 0.930 . S
H626 C636 0.930 . S
H627 C639 0.929 . S
H628 C642 0.930 . S
H629 C644 0.960 . S
H630 C644 0.960 . S
H631 C644 0.960 . S
C632 H624 0.929 . S
C632 C633 1.377 . S
C632 C634 1.384 . S
C633 C632 1.377 . S
C633 C639 1.390 . S
C634 H625 0.930 . S
C634 C632 1.384 . S
C634 C635 1.372 . S
C635 C634 1.372 . S
C635 C636 1.400 . S
C635 C640 1.490 . S
C636 H626 0.930 . S
C636 C635 1.400 . S
C636 C639 1.386 . S
H637 C653 0.930 . S
H638 C654 0.931 . S
C639 H627 0.929 . S
C639 C633 1.390 . S
C639 C636 1.386 . S
C640 C635 1.490 . S
C640 C642 1.395 . S
C640 C643 1.403 . S
H641 C647 0.930 . S
C642 H628 0.930 . S
C642 C640 1.395 . S
C642 C645 1.403 . S
C643 C640 1.403 . S
C643 C644 1.524 . S
C643 C647 1.400 . S
C644 H629 0.960 . S
C644 H630 0.960 . S
C644 H631 0.960 . S
C644 C643 1.524 . S
C645 C642 1.403 . S
C645 C646 1.392 . S
C645 C649 1.495 . S
C646 C645 1.392 . S
C646 C647 1.385 . S
C646 C648 1.478 . S
C647 H641 0.930 . S
C647 C643 1.400 . S
C647 C646 1.385 . S
C648 C646 1.478 . S
C648 C650 1.381 . S
C648 C654 1.383 . S
C649 C645 1.495 . S
C649 H655 0.959 . S
C649 H656 0.961 . S
C649 H657 0.960 . S
C650 C648 1.381 . S
C650 C651 1.394 . S
C650 H658 0.930 . S
C651 C650 1.394 . S
C651 C652 1.383 . S
C651 H659 0.929 . S
C652 C651 1.383 . S
C652 C653 1.377 . S
C653 H637 0.930 . S
C653 C652 1.377 . S
C653 C654 1.379 . S
C654 H638 0.931 . S
C654 C648 1.383 . S
C654 C653 1.379 . S
H655 C649 0.959 . S
H656 C649 0.961 . S
H657 C649 0.960 . S
H658 C650 0.930 . S
H659 C651 0.929 . S
H660 C668 0.929 . S
H661 C670 0.930 . S
H662 C672 0.930 . S
H663 C675 0.929 . S
H664 C678 0.930 . S
H665 C680 0.960 . S
H666 C680 0.960 . S
H667 C680 0.960 . S
C668 H660 0.929 . S
C668 C669 1.377 . S
C668 C670 1.384 . S
C669 C668 1.377 . S
C669 C675 1.390 . S
C670 H661 0.930 . S
C670 C668 1.384 . S
C670 C671 1.372 . S
C671 C670 1.372 . S
C671 C672 1.400 . S
C671 C676 1.490 . S
C672 H662 0.930 . S
C672 C671 1.400 . S
C672 C675 1.386 . S
H673 C689 0.930 . S
H674 C690 0.931 . S
C675 H663 0.929 . S
C675 C669 1.390 . S
C675 C672 1.386 . S
C676 C671 1.490 . S
C676 C678 1.395 . S
C676 C679 1.403 . S
H677 C683 0.930 . S
C678 H664 0.930 . S
C678 C676 1.395 . S
C678 C681 1.403 . S
C679 C676 1.403 . S
C679 C680 1.524 . S
C679 C683 1.400 . S
C680 H665 0.960 . S
C680 H666 0.960 . S
C680 H667 0.960 . S
C680 C679 1.524 . S
C681 C678 1.403 . S
C681 C682 1.392 . S
C681 C685 1.495 . S
C682 C681 1.392 . S
C682 C683 1.385 . S
C682 C684 1.478 . S
C683 H677 0.930 . S
C683 C679 1.400 . S
C683 C682 1.385 . S
C684 C682 1.478 . S
C684 C686 1.381 . S
C684 C690 1.383 . S
C685 C681 1.495 . S
C685 H691 0.959 . S
C685 H692 0.961 . S
C685 H693 0.960 . S
C686 C684 1.381 . S
C686 C687 1.394 . S
C686 H694 0.930 . S
C687 C686 1.394 . S
C687 C688 1.383 . S
C687 H695 0.929 . S
C688 C687 1.383 . S
C688 C689 1.377 . S
C689 H673 0.930 . S
C689 C688 1.377 . S
C689 C690 1.379 . S
C690 H674 0.931 . S
C690 C684 1.383 . S
C690 C689 1.379 . S
H691 C685 0.959 . S
H692 C685 0.961 . S
H693 C685 0.960 . S
H694 C686 0.930 . S
H695 C687 0.929 . S
H696 C704 0.929 . S
H697 C706 0.930 . S
H698 C708 0.930 . S
H699 C711 0.929 . S
H700 C714 0.930 . S
H701 C716 0.960 . S
H702 C716 0.960 . S
H703 C716 0.960 . S
C704 H696 0.929 . S
C704 C705 1.377 . S
C704 C706 1.384 . S
C705 C704 1.377 . S
C705 C711 1.390 . S
C706 H697 0.930 . S
C706 C704 1.384 . S
C706 C707 1.372 . S
C707 C706 1.372 . S
C707 C708 1.400 . S
C707 C712 1.490 . S
C708 H698 0.930 . S
C708 C707 1.400 . S
C708 C711 1.386 . S
H709 C725 0.930 . S
H710 C726 0.931 . S
C711 H699 0.929 . S
C711 C705 1.390 . S
C711 C708 1.386 . S
C712 C707 1.490 . S
C712 C714 1.395 . S
C712 C715 1.403 . S
H713 C719 0.930 . S
C714 H700 0.930 . S
C714 C712 1.395 . S
C714 C717 1.403 . S
C715 C712 1.403 . S
C715 C716 1.524 . S
C715 C719 1.400 . S
C716 H701 0.960 . S
C716 H702 0.960 . S
C716 H703 0.960 . S
C716 C715 1.524 . S
C717 C714 1.403 . S
C717 C718 1.392 . S
C717 C721 1.495 1_556 S
C718 C717 1.392 . S
C718 C719 1.385 . S
C718 C720 1.478 . S
C719 H713 0.930 . S
C719 C715 1.400 . S
C719 C718 1.385 . S
C720 C718 1.478 . S
C720 C722 1.381 . S
C720 C726 1.383 . S
C721 C717 1.495 1_554 S
C721 H727 0.959 . S
C721 H728 0.961 . S
C721 H729 0.960 . S
C722 C720 1.381 . S
C722 C723 1.394 1_556 S
C722 H730 0.930 1_556 S
C723 C722 1.394 1_554 S
C723 C724 1.383 1_554 S
C723 H731 0.929 . S
C724 C723 1.383 1_556 S
C724 C725 1.377 . S
C725 H709 0.930 . S
C725 C724 1.377 . S
C725 C726 1.379 . S
C726 H710 0.931 . S
C726 C720 1.383 . S
C726 C725 1.379 . S
H727 C721 0.959 . S
H728 C721 0.961 . S
H729 C721 0.960 . S
H730 C722 0.930 1_554 S
H731 C723 0.929 . S
H732 C740 0.929 . S
H733 C742 0.930 . S
H734 C744 0.930 . S
H735 C747 0.929 . S
H736 C750 0.930 . S
H737 C752 0.960 . S
H738 C752 0.960 . S
H739 C752 0.960 . S
C740 H732 0.929 . S
C740 C741 1.377 . S
C740 C742 1.384 . S
C741 C740 1.377 . S
C741 C747 1.390 . S
C742 H733 0.930 . S
C742 C740 1.384 . S
C742 C743 1.372 . S
C743 C742 1.372 . S
C743 C744 1.400 . S
C743 C748 1.490 . S
C744 H734 0.930 . S
C744 C743 1.400 . S
C744 C747 1.386 . S
H745 C761 0.930 . S
H746 C762 0.931 . S
C747 H735 0.929 . S
C747 C741 1.390 . S
C747 C744 1.386 . S
C748 C743 1.490 . S
C748 C750 1.395 . S
C748 C751 1.403 . S
H749 C755 0.930 . S
C750 H736 0.930 . S
C750 C748 1.395 . S
C750 C753 1.403 . S
C751 C748 1.403 . S
C751 C752 1.524 . S
C751 C755 1.400 . S
C752 H737 0.960 . S
C752 H738 0.960 . S
C752 H739 0.960 . S
C752 C751 1.524 . S
C753 C750 1.403 . S
C753 C754 1.392 . S
C753 C757 1.495 . S
C754 C753 1.392 . S
C754 C755 1.385 . S
C754 C756 1.478 . S
C755 H749 0.930 . S
C755 C751 1.400 . S
C755 C754 1.385 . S
C756 C754 1.478 . S
C756 C758 1.381 . S
C756 C762 1.383 . S
C757 C753 1.495 . S
C757 H763 0.959 . S
C757 H764 0.961 . S
C757 H765 0.960 . S
C758 C756 1.381 . S
C758 C759 1.394 . S
C758 H766 0.930 . S
C759 C758 1.394 . S
C759 C760 1.383 . S
C759 H767 0.929 . S
C760 C759 1.383 . S
C760 C761 1.377 . S
C761 H745 0.930 . S
C761 C760 1.377 . S
C761 C762 1.379 . S
C762 H746 0.931 . S
C762 C756 1.383 . S
C762 C761 1.379 . S
H763 C757 0.959 . S
H764 C757 0.961 . S
H765 C757 0.960 . S
H766 C758 0.930 . S
H767 C759 0.929 . S
H768 C776 0.929 . S
H769 C778 0.930 . S
H770 C780 0.930 . S
H771 C783 0.929 . S
H772 C786 0.930 . S
H773 C788 0.960 . S
H774 C788 0.960 . S
H775 C788 0.960 . S
C776 H768 0.929 . S
C776 C777 1.377 . S
C776 C778 1.384 . S
C777 C776 1.377 . S
C777 C783 1.390 . S
C778 H769 0.930 . S
C778 C776 1.384 . S
C778 C779 1.372 . S
C779 C778 1.372 . S
C779 C780 1.400 . S
C779 C784 1.490 . S
C780 H770 0.930 . S
C780 C779 1.400 . S
C780 C783 1.386 . S
H781 C797 0.930 . S
H782 C798 0.931 . S
C783 H771 0.929 . S
C783 C777 1.390 . S
C783 C780 1.386 . S
C784 C779 1.490 . S
C784 C786 1.395 . S
C784 C787 1.403 . S
H785 C791 0.930 . S
C786 H772 0.930 . S
C786 C784 1.395 . S
C786 C789 1.403 . S
C787 C784 1.403 . S
C787 C788 1.524 . S
C787 C791 1.400 . S
C788 H773 0.960 . S
C788 H774 0.960 . S
C788 H775 0.960 . S
C788 C787 1.524 . S
C789 C786 1.403 . S
C789 C790 1.392 . S
C789 C793 1.495 . S
C790 C789 1.392 . S
C790 C791 1.385 . S
C790 C792 1.478 . S
C791 H785 0.930 . S
C791 C787 1.400 . S
C791 C790 1.385 . S
C792 C790 1.478 . S
C792 C794 1.381 . S
C792 C798 1.383 . S
C793 C789 1.495 . S
C793 H799 0.959 . S
C793 H800 0.961 . S
C793 H801 0.960 . S
C794 C792 1.381 . S
C794 C795 1.394 . S
C794 H802 0.930 . S
C795 C794 1.394 . S
C795 C796 1.383 . S
C795 H803 0.929 . S
C796 C795 1.383 . S
C796 C797 1.377 . S
C797 H781 0.930 . S
C797 C796 1.377 . S
C797 C798 1.379 . S
C798 H782 0.931 . S
C798 C792 1.383 . S
C798 C797 1.379 . S
H799 C793 0.959 . S
H800 C793 0.961 . S
H801 C793 0.960 . S
H802 C794 0.930 . S
H803 C795 0.929 . S
H804 C812 0.929 . S
H805 C814 0.930 . S
H806 C816 0.930 . S
H807 C819 0.929 . S
H808 C822 0.930 . S
H809 C824 0.960 . S
H810 C824 0.960 . S
H811 C824 0.960 . S
C812 H804 0.929 . S
C812 C813 1.377 . S
C812 C814 1.384 . S
C813 C812 1.377 . S
C813 C819 1.390 . S
C814 H805 0.930 . S
C814 C812 1.384 . S
C814 C815 1.372 . S
C815 C814 1.372 . S
C815 C816 1.400 . S
C815 C820 1.490 . S
C816 H806 0.930 . S
C816 C815 1.400 . S
C816 C819 1.386 . S
H817 C833 0.930 . S
H818 C834 0.931 . S
C819 H807 0.929 . S
C819 C813 1.390 . S
C819 C816 1.386 . S
C820 C815 1.490 . S
C820 C822 1.395 . S
C820 C823 1.403 . S
H821 C827 0.930 . S
C822 H808 0.930 . S
C822 C820 1.395 . S
C822 C825 1.403 . S
C823 C820 1.403 . S
C823 C824 1.524 . S
C823 C827 1.400 . S
C824 H809 0.960 . S
C824 H810 0.960 . S
C824 H811 0.960 . S
C824 C823 1.524 . S
C825 C822 1.403 . S
C825 C826 1.392 . S
C825 C829 1.495 1_455 S
C826 C825 1.392 . S
C826 C827 1.385 . S
C826 C828 1.478 . S
C827 H821 0.930 . S
C827 C823 1.400 . S
C827 C826 1.385 . S
C828 C826 1.478 . S
C828 C830 1.381 1_455 S
C828 C834 1.383 . S
C829 C825 1.495 1_655 S
C829 H835 0.959 . S
C829 H836 0.961 . S
C829 H837 0.960 . S
C830 C828 1.381 1_655 S
C830 C831 1.394 . S
C830 H838 0.930 . S
C831 C830 1.394 . S
C831 C832 1.383 . S
C831 H839 0.929 . S
C832 C831 1.383 . S
C832 C833 1.377 1_655 S
C833 H817 0.930 . S
C833 C832 1.377 1_455 S
C833 C834 1.379 . S
C834 H818 0.931 . S
C834 C828 1.383 . S
C834 C833 1.379 . S
H835 C829 0.959 . S
H836 C829 0.961 . S
H837 C829 0.960 . S
H838 C830 0.930 . S
H839 C831 0.929 . S
H840 C848 0.929 . S
H841 C850 0.930 . S
H842 C852 0.930 . S
H843 C855 0.929 . S
H844 C858 0.930 1_455 S
H845 C860 0.960 . S
H846 C860 0.960 . S
H847 C860 0.960 . S
C848 H840 0.929 . S
C848 C849 1.377 . S
C848 C850 1.384 . S
C849 C848 1.377 . S
C849 C855 1.390 1_455 S
C850 H841 0.930 . S
C850 C848 1.384 . S
C850 C851 1.372 1_455 S
C851 C850 1.372 1_655 S
C851 C852 1.400 . S
C851 C856 1.490 . S
C852 H842 0.930 . S
C852 C851 1.400 . S
C852 C855 1.386 . S
H853 C869 0.930 . S
H854 C870 0.931 . S
C855 H843 0.929 . S
C855 C849 1.390 1_655 S
C855 C852 1.386 . S
C856 C851 1.490 . S
C856 C858 1.395 . S
C856 C859 1.403 . S
H857 C863 0.930 . S
C858 H844 0.930 1_655 S
C858 C856 1.395 . S
C858 C861 1.403 . S
C859 C856 1.403 . S
C859 C860 1.524 . S
C859 C863 1.400 . S
C860 H845 0.960 . S
C860 H846 0.960 . S
C860 H847 0.960 . S
C860 C859 1.524 . S
C861 C858 1.403 . S
C861 C862 1.392 . S
C861 C865 1.495 1_655 S
C862 C861 1.392 . S
C862 C863 1.385 . S
C862 C864 1.478 . S
C863 H857 0.930 . S
C863 C859 1.400 . S
C863 C862 1.385 . S
C864 C862 1.478 . S
C864 C866 1.381 . S
C864 C870 1.383 . S
C865 C861 1.495 1_455 S
C865 H871 0.959 . S
C865 H872 0.961 1_455 S
C865 H873 0.960 . S
C866 C864 1.381 . S
C866 C867 1.394 . S
C866 H874 0.930 . S
C867 C866 1.394 . S
C867 C868 1.383 . S
C867 H875 0.929 . S
C868 C867 1.383 . S
C868 C869 1.377 . S
C869 H853 0.930 . S
C869 C868 1.377 . S
C869 C870 1.379 . S
C870 H854 0.931 . S
C870 C864 1.383 . S
C870 C869 1.379 . S
H871 C865 0.959 . S
H872 C865 0.961 1_655 S
H873 C865 0.960 . S
H874 C866 0.930 . S
H875 C867 0.929 . S
H876 C884 0.929 . S
H877 C886 0.930 . S
H878 C888 0.930 . S
H879 C891 0.929 . S
H880 C894 0.930 . S
H881 C896 0.960 . S
H882 C896 0.960 . S
H883 C896 0.960 . S
C884 H876 0.929 . S
C884 C885 1.377 . S
C884 C886 1.384 . S
C885 C884 1.377 . S
C885 C891 1.390 . S
C886 H877 0.930 . S
C886 C884 1.384 . S
C886 C887 1.372 . S
C887 C886 1.372 . S
C887 C888 1.400 . S
C887 C892 1.490 . S
C888 H878 0.930 . S
C888 C887 1.400 . S
C888 C891 1.386 . S
H889 C905 0.930 . S
H890 C906 0.931 . S
C891 H879 0.929 . S
C891 C885 1.390 . S
C891 C888 1.386 . S
C892 C887 1.490 . S
C892 C894 1.395 . S
C892 C895 1.403 . S
H893 C899 0.930 . S
C894 H880 0.930 . S
C894 C892 1.395 . S
C894 C897 1.403 . S
C895 C892 1.403 . S
C895 C896 1.524 . S
C895 C899 1.400 . S
C896 H881 0.960 . S
C896 H882 0.960 . S
C896 H883 0.960 . S
C896 C895 1.524 . S
C897 C894 1.403 . S
C897 C898 1.392 . S
C897 C901 1.495 . S
C898 C897 1.392 . S
C898 C899 1.385 . S
C898 C900 1.478 . S
C899 H893 0.930 . S
C899 C895 1.400 . S
C899 C898 1.385 . S
C900 C898 1.478 . S
C900 C902 1.381 . S
C900 C906 1.383 . S
C901 C897 1.495 . S
C901 H907 0.959 . S
C901 H908 0.961 . S
C901 H909 0.960 . S
C902 C900 1.381 . S
C902 C903 1.394 . S
C902 H910 0.930 . S
C903 C902 1.394 . S
C903 C904 1.383 . S
C903 H911 0.929 . S
C904 C903 1.383 . S
C904 C905 1.377 . S
C905 H889 0.930 . S
C905 C904 1.377 . S
C905 C906 1.379 . S
C906 H890 0.931 . S
C906 C900 1.383 . S
C906 C905 1.379 . S
H907 C901 0.959 . S
H908 C901 0.961 . S
H909 C901 0.960 . S
H910 C902 0.930 . S
H911 C903 0.929 . S
H912 C920 0.929 . S
H913 C922 0.930 . S
H914 C924 0.930 . S
H915 C927 0.929 . S
H916 C930 0.930 . S
H917 C932 0.960 . S
H918 C932 0.960 . S
H919 C932 0.960 . S
C920 H912 0.929 . S
C920 C921 1.377 . S
C920 C922 1.384 . S
C921 C920 1.377 . S
C921 C927 1.390 . S
C922 H913 0.930 . S
C922 C920 1.384 . S
C922 C923 1.372 . S
C923 C922 1.372 . S
C923 C924 1.400 . S
C923 C928 1.490 . S
C924 H914 0.930 . S
C924 C923 1.400 . S
C924 C927 1.386 . S
H925 C941 0.930 . S
H926 C942 0.931 . S
C927 H915 0.929 . S
C927 C921 1.390 . S
C927 C924 1.386 . S
C928 C923 1.490 . S
C928 C930 1.395 . S
C928 C931 1.403 . S
H929 C935 0.930 . S
C930 H916 0.930 . S
C930 C928 1.395 . S
C930 C933 1.403 . S
C931 C928 1.403 . S
C931 C932 1.524 . S
C931 C935 1.400 . S
C932 H917 0.960 . S
C932 H918 0.960 . S
C932 H919 0.960 . S
C932 C931 1.524 . S
C933 C930 1.403 . S
C933 C934 1.392 . S
C933 C937 1.495 . S
C934 C933 1.392 . S
C934 C935 1.385 . S
C934 C936 1.478 . S
C935 H929 0.930 . S
C935 C931 1.400 . S
C935 C934 1.385 . S
C936 C934 1.478 . S
C936 C938 1.381 . S
C936 C942 1.383 . S
C937 C933 1.495 . S
C937 H943 0.959 . S
C937 H944 0.961 . S
C937 H945 0.960 . S
C938 C936 1.381 . S
C938 C939 1.394 . S
C938 H946 0.930 . S
C939 C938 1.394 . S
C939 C940 1.383 . S
C939 H947 0.929 . S
C940 C939 1.383 . S
C940 C941 1.377 . S
C941 H925 0.930 . S
C941 C940 1.377 . S
C941 C942 1.379 . S
C942 H926 0.931 . S
C942 C936 1.383 . S
C942 C941 1.379 . S
H943 C937 0.959 . S
H944 C937 0.961 . S
H945 C937 0.960 . S
H946 C938 0.930 . S
H947 C939 0.929 . S
H948 C956 0.929 . S
H949 C958 0.930 . S
H950 C960 0.930 . S
H951 C963 0.929 . S
H952 C966 0.930 . S
H953 C968 0.960 . S
H954 C968 0.960 . S
H955 C968 0.960 . S
C956 H948 0.929 . S
C956 C957 1.377 . S
C956 C958 1.384 . S
C957 C956 1.377 . S
C957 C963 1.390 . S
C958 H949 0.930 . S
C958 C956 1.384 . S
C958 C959 1.372 . S
C959 C958 1.372 . S
C959 C960 1.400 . S
C959 C964 1.490 . S
C960 H950 0.930 . S
C960 C959 1.400 . S
C960 C963 1.386 . S
H961 C977 0.930 . S
H962 C978 0.931 . S
C963 H951 0.929 . S
C963 C957 1.390 . S
C963 C960 1.386 . S
C964 C959 1.490 . S
C964 C966 1.395 . S
C964 C967 1.403 . S
H965 C971 0.930 . S
C966 H952 0.930 . S
C966 C964 1.395 . S
C966 C969 1.403 . S
C967 C964 1.403 . S
C967 C968 1.524 . S
C967 C971 1.400 . S
C968 H953 0.960 . S
C968 H954 0.960 . S
C968 H955 0.960 . S
C968 C967 1.524 . S
C969 C966 1.403 . S
C969 C970 1.392 . S
C969 C973 1.495 . S
C970 C969 1.392 . S
C970 C971 1.385 . S
C970 C972 1.478 . S
C971 H965 0.930 . S
C971 C967 1.400 . S
C971 C970 1.385 . S
C972 C970 1.478 . S
C972 C974 1.381 . S
C972 C978 1.383 . S
C973 C969 1.495 . S
C973 H979 0.959 . S
C973 H980 0.961 . S
C973 H981 0.960 . S
C974 C972 1.381 . S
C974 C975 1.394 . S
C974 H982 0.930 . S
C975 C974 1.394 . S
C975 C976 1.383 . S
C975 H983 0.929 . S
C976 C975 1.383 . S
C976 C977 1.377 . S
C977 H961 0.930 . S
C977 C976 1.377 . S
C977 C978 1.379 . S
C978 H962 0.931 . S
C978 C972 1.383 . S
C978 C977 1.379 . S
H979 C973 0.959 . S
H980 C973 0.961 . S
H981 C973 0.960 . S
H982 C974 0.930 . S
H983 C975 0.929 . S
H984 C992 0.929 . S
H985 C994 0.930 . S
H986 C996 0.930 . S
H987 C999 0.929 . S
H988 C1002 0.930 . S
H989 C1004 0.960 . S
H990 C1004 0.960 . S
H991 C1004 0.960 . S
C992 H984 0.929 . S
C992 C993 1.377 . S
C992 C994 1.384 . S
C993 C992 1.377 . S
C993 C999 1.390 . S
C994 H985 0.930 . S
C994 C992 1.384 . S
C994 C995 1.372 . S
C995 C994 1.372 . S
C995 C996 1.400 . S
C995 C1000 1.490 . S
C996 H986 0.930 . S
C996 C995 1.400 . S
C996 C999 1.386 . S
H997 C1013 0.930 . S
H998 C1014 0.931 . S
C999 H987 0.929 . S
C999 C993 1.390 . S
C999 C996 1.386 . S
C1000 C995 1.490 . S
C1000 C1002 1.395 . S
C1000 C1003 1.403 . S
H1001 C1007 0.930 . S
C1002 H988 0.930 . S
C1002 C1000 1.395 . S
C1002 C1005 1.403 . S
C1003 C1000 1.403 . S
C1003 C1004 1.524 . S
C1003 C1007 1.400 . S
C1004 H989 0.960 . S
C1004 H990 0.960 . S
C1004 H991 0.960 . S
C1004 C1003 1.524 . S
C1005 C1002 1.403 . S
C1005 C1006 1.392 . S
C1005 C1009 1.495 . S
C1006 C1005 1.392 . S
C1006 C1007 1.385 . S
C1006 C1008 1.478 . S
C1007 H1001 0.930 . S
C1007 C1003 1.400 . S
C1007 C1006 1.385 . S
C1008 C1006 1.478 . S
C1008 C1010 1.381 . S
C1008 C1014 1.383 . S
C1009 C1005 1.495 . S
C1009 H1015 0.959 . S
C1009 H1016 0.961 . S
C1009 H1017 0.960 . S
C1010 C1008 1.381 . S
C1010 C1011 1.394 . S
C1010 H1018 0.930 . S
C1011 C1010 1.394 . S
C1011 C1012 1.383 . S
C1011 H1019 0.929 . S
C1012 C1011 1.383 . S
C1012 C1013 1.377 . S
C1013 H997 0.930 . S
C1013 C1012 1.377 . S
C1013 C1014 1.379 . S
C1014 H998 0.931 . S
C1014 C1008 1.383 . S
C1014 C1013 1.379 . S
H1015 C1009 0.959 . S
H1016 C1009 0.961 . S
H1017 C1009 0.960 . S
H1018 C1010 0.930 . S
H1019 C1011 0.929 . S
H1020 C1028 0.929 . S
H1021 C1030 0.930 . S
H1022 C1032 0.930 . S
H1023 C1035 0.929 . S
H1024 C1038 0.930 . S
H1025 C1040 0.960 . S
H1026 C1040 0.960 1_554 S
H1027 C1040 0.960 . S
C1028 H1020 0.929 . S
C1028 C1029 1.377 . S
C1028 C1030 1.384 . S
C1029 C1028 1.377 . S
C1029 C1035 1.390 . S
C1030 H1021 0.930 . S
C1030 C1028 1.384 . S
C1030 C1031 1.372 . S
C1031 C1030 1.372 . S
C1031 C1032 1.400 . S
C1031 C1036 1.490 . S
C1032 H1022 0.930 . S
C1032 C1031 1.400 . S
C1032 C1035 1.386 . S
H1033 C1049 0.930 . S
H1034 C1050 0.931 . S
C1035 H1023 0.929 . S
C1035 C1029 1.390 . S
C1035 C1032 1.386 . S
C1036 C1031 1.490 . S
C1036 C1038 1.395 . S
C1036 C1039 1.403 1_554 S
H1037 C1043 0.930 . S
C1038 H1024 0.930 . S
C1038 C1036 1.395 . S
C1038 C1041 1.422 . S
C1039 C1036 1.403 1_556 S
C1039 C1040 1.524 . S
C1039 C1043 1.400 . S
C1040 H1025 0.960 . S
C1040 H1026 0.960 1_556 S
C1040 H1027 0.960 . S
C1040 C1039 1.524 . S
C1041 C1038 1.422 . S
C1041 C1042 1.372 1_554 S
C1041 C1045 1.498 . S
C1042 C1041 1.372 1_556 S
C1042 C1043 1.385 . S
C1042 C1044 1.478 . S
C1043 H1037 0.930 . S
C1043 C1039 1.400 . S
C1043 C1042 1.385 . S
C1044 C1042 1.478 . S
C1044 C1046 1.381 . S
C1044 C1050 1.383 . S
C1045 C1041 1.498 . S
C1045 H1051 0.959 . S
C1045 H1052 0.961 1_554 S
C1045 H1053 0.961 . S
C1046 C1044 1.381 . S
C1046 C1047 1.394 . S
C1046 H1054 0.930 . S
C1047 C1046 1.394 . S
C1047 C1048 1.383 . S
C1047 H1055 0.929 . S
C1048 C1047 1.383 . S
C1048 C1049 1.377 . S
C1049 H1033 0.930 . S
C1049 C1048 1.377 . S
C1049 C1050 1.379 . S
C1050 H1034 0.931 . S
C1050 C1044 1.383 . S
C1050 C1049 1.379 . S
H1051 C1045 0.959 . S
H1052 C1045 0.961 1_556 S
H1053 C1045 0.961 . S
H1054 C1046 0.930 . S
H1055 C1047 0.929 . S
H1056 C1064 0.929 . S
H1057 C1066 0.930 . S
H1058 C1068 0.930 . S
H1059 C1071 0.929 . S
H1060 C1074 0.930 . S
H1061 C1076 0.960 . S
H1062 C1076 0.960 . S
H1063 C1076 0.960 . S
C1064 H1056 0.929 . S
C1064 C1065 1.377 . S
C1064 C1066 1.384 . S
C1065 C1064 1.377 . S
C1065 C1071 1.390 . S
C1066 H1057 0.930 . S
C1066 C1064 1.384 . S
C1066 C1067 1.372 . S
C1067 C1066 1.372 . S
C1067 C1068 1.400 . S
C1067 C1072 1.490 . S
C1068 H1058 0.930 . S
C1068 C1067 1.400 . S
C1068 C1071 1.386 . S
H1069 C1085 0.930 . S
H1070 C1086 0.931 . S
C1071 H1059 0.929 . S
C1071 C1065 1.390 . S
C1071 C1068 1.386 . S
C1072 C1067 1.490 . S
C1072 C1074 1.395 . S
C1072 C1075 1.403 . S
H1073 C1079 0.930 . S
C1074 H1060 0.930 . S
C1074 C1072 1.395 . S
C1074 C1077 1.403 . S
C1075 C1072 1.403 . S
C1075 C1076 1.524 . S
C1075 C1079 1.400 . S
C1076 H1061 0.960 . S
C1076 H1062 0.960 . S
C1076 H1063 0.960 . S
C1076 C1075 1.524 . S
C1077 C1074 1.403 . S
C1077 C1078 1.392 . S
C1077 C1081 1.495 . S
C1078 C1077 1.392 . S
C1078 C1079 1.385 . S
C1078 C1080 1.478 . S
C1079 H1073 0.930 . S
C1079 C1075 1.400 . S
C1079 C1078 1.385 . S
C1080 C1078 1.478 . S
C1080 C1082 1.381 . S
C1080 C1086 1.383 . S
C1081 C1077 1.495 . S
C1081 H1087 0.959 . S
C1081 H1088 0.961 . S
C1081 H1089 0.960 . S
C1082 C1080 1.381 . S
C1082 C1083 1.394 . S
C1082 H1090 0.930 . S
C1083 C1082 1.394 . S
C1083 C1084 1.383 . S
C1083 H1091 0.929 . S
C1084 C1083 1.383 . S
C1084 C1085 1.377 . S
C1085 H1069 0.930 . S
C1085 C1084 1.377 . S
C1085 C1086 1.379 . S
C1086 H1070 0.931 . S
C1086 C1080 1.383 . S
C1086 C1085 1.379 . S
H1087 C1081 0.959 . S
H1088 C1081 0.961 . S
H1089 C1081 0.960 . S
H1090 C1082 0.930 . S
H1091 C1083 0.929 . S
H1092 C1100 0.929 . S
H1093 C1102 0.930 . S
H1094 C1104 0.930 1_556 S
H1095 C1107 0.929 . S
H1096 C1110 0.930 1_554 S
H1097 C1112 0.960 . S
H1098 C1112 0.960 . S
H1099 C1112 0.960 . S
C1100 H1092 0.929 . S
C1100 C1101 1.377 . S
C1100 C1102 1.384 . S
C1101 C1100 1.377 . S
C1101 C1107 1.390 . S
C1102 H1093 0.930 . S
C1102 C1100 1.384 . S
C1102 C1103 1.372 . S
C1103 C1102 1.372 . S
C1103 C1104 1.400 . S
C1103 C1108 1.490 1_554 S
C1104 H1094 0.930 1_554 S
C1104 C1103 1.400 . S
C1104 C1107 1.386 . S
H1105 C1121 0.930 . S
H1106 C1122 0.931 . S
C1107 H1095 0.929 . S
C1107 C1101 1.390 . S
C1107 C1104 1.386 . S
C1108 C1103 1.490 1_556 S
C1108 C1110 1.395 . S
C1108 C1111 1.403 . S
H1109 C1115 0.930 . S
C1110 H1096 0.930 1_556 S
C1110 C1108 1.395 . S
C1110 C1113 1.403 . S
C1111 C1108 1.403 . S
C1111 C1112 1.524 . S
C1111 C1115 1.400 . S
C1112 H1097 0.960 . S
C1112 H1098 0.960 . S
C1112 H1099 0.960 . S
C1112 C1111 1.524 . S
C1113 C1110 1.403 . S
C1113 C1114 1.392 . S
C1113 C1117 1.495 . S
C1114 C1113 1.392 . S
C1114 C1115 1.385 . S
C1114 C1116 1.478 . S
C1115 H1109 0.930 . S
C1115 C1111 1.400 . S
C1115 C1114 1.385 . S
C1116 C1114 1.478 . S
C1116 C1118 1.381 . S
C1116 C1122 1.383 . S
C1117 C1113 1.495 . S
C1117 H1123 0.959 . S
C1117 H1124 0.961 . S
C1117 H1125 0.960 . S
C1118 C1116 1.381 . S
C1118 C1119 1.394 . S
C1118 H1126 0.930 . S
C1119 C1118 1.394 . S
C1119 C1120 1.383 . S
C1119 H1127 0.929 . S
C1120 C1119 1.383 . S
C1120 C1121 1.377 . S
C1121 H1105 0.930 . S
C1121 C1120 1.377 . S
C1121 C1122 1.379 . S
C1122 H1106 0.931 . S
C1122 C1116 1.383 . S
C1122 C1121 1.379 . S
H1123 C1117 0.959 . S
H1124 C1117 0.961 . S
H1125 C1117 0.960 . S
H1126 C1118 0.930 . S
H1127 C1119 0.929 . S
H1128 C1136 0.929 . S
H1129 C1138 0.930 . S
H1130 C1140 0.930 . S
H1131 C1143 0.929 . S
H1132 C1146 0.930 . S
H1133 C1148 0.960 . S
H1134 C1148 0.960 . S
H1135 C1148 0.960 . S
C1136 H1128 0.929 . S
C1136 C1137 1.377 . S
C1136 C1138 1.384 . S
C1137 C1136 1.377 . S
C1137 C1143 1.390 . S
C1138 H1129 0.930 . S
C1138 C1136 1.384 . S
C1138 C1139 1.372 . S
C1139 C1138 1.372 . S
C1139 C1140 1.400 . S
C1139 C1144 1.490 . S
C1140 H1130 0.930 . S
C1140 C1139 1.400 . S
C1140 C1143 1.386 . S
H1141 C1157 0.930 . S
H1142 C1158 0.931 . S
C1143 H1131 0.929 . S
C1143 C1137 1.390 . S
C1143 C1140 1.386 . S
C1144 C1139 1.490 . S
C1144 C1146 1.395 . S
C1144 C1147 1.403 . S
H1145 C1151 0.930 . S
C1146 H1132 0.930 . S
C1146 C1144 1.395 . S
C1146 C1149 1.403 . S
C1147 C1144 1.403 . S
C1147 C1148 1.524 . S
C1147 C1151 1.400 . S
C1148 H1133 0.960 . S
C1148 H1134 0.960 . S
C1148 H1135 0.960 . S
C1148 C1147 1.524 . S
C1149 C1146 1.403 . S
C1149 C1150 1.392 . S
C1149 C1153 1.495 . S
C1150 C1149 1.392 . S
C1150 C1151 1.385 . S
C1150 C1152 1.478 . S
C1151 H1145 0.930 . S
C1151 C1147 1.400 . S
C1151 C1150 1.385 . S
C1152 C1150 1.478 . S
C1152 C1154 1.381 . S
C1152 C1158 1.383 . S
C1153 C1149 1.495 . S
C1153 H1159 0.959 . S
C1153 H1160 0.961 . S
C1153 H1161 0.960 . S
C1154 C1152 1.381 . S
C1154 C1155 1.394 . S
C1154 H1162 0.930 . S
C1155 C1154 1.394 . S
C1155 C1156 1.383 . S
C1155 H1163 0.929 . S
C1156 C1155 1.383 . S
C1156 C1157 1.377 . S
C1157 H1141 0.930 . S
C1157 C1156 1.377 . S
C1157 C1158 1.379 . S
C1158 H1142 0.931 . S
C1158 C1152 1.383 . S
C1158 C1157 1.379 . S
H1159 C1153 0.959 . S
H1160 C1153 0.961 . S
H1161 C1153 0.960 . S
H1162 C1154 0.930 . S
H1163 C1155 0.929 . S
H1164 C1172 0.929 . S
H1165 C1174 0.930 . S
H1166 C1176 0.930 . S
H1167 C1179 0.929 . S
H1168 C1182 0.930 . S
H1169 C1184 0.960 . S
H1170 C1184 0.960 . S
H1171 C1184 0.960 . S
C1172 H1164 0.929 . S
C1172 C1173 1.377 . S
C1172 C1174 1.384 . S
C1173 C1172 1.377 . S
C1173 C1179 1.390 . S
C1174 H1165 0.930 . S
C1174 C1172 1.384 . S
C1174 C1175 1.372 . S
C1175 C1174 1.372 . S
C1175 C1176 1.400 . S
C1175 C1180 1.490 . S
C1176 H1166 0.930 . S
C1176 C1175 1.400 . S
C1176 C1179 1.386 . S
H1177 C1193 0.930 . S
H1178 C1194 0.931 . S
C1179 H1167 0.929 . S
C1179 C1173 1.390 . S
C1179 C1176 1.386 . S
C1180 C1175 1.490 . S
C1180 C1182 1.395 . S
C1180 C1183 1.403 . S
H1181 C1187 0.930 . S
C1182 H1168 0.930 . S
C1182 C1180 1.395 . S
C1182 C1185 1.403 . S
C1183 C1180 1.403 . S
C1183 C1184 1.524 . S
C1183 C1187 1.400 . S
C1184 H1169 0.960 . S
C1184 H1170 0.960 . S
C1184 H1171 0.960 . S
C1184 C1183 1.524 . S
C1185 C1182 1.403 . S
C1185 C1186 1.392 . S
C1185 C1189 1.495 . S
C1186 C1185 1.392 . S
C1186 C1187 1.385 . S
C1186 C1188 1.478 . S
C1187 H1181 0.930 . S
C1187 C1183 1.400 . S
C1187 C1186 1.385 . S
C1188 C1186 1.478 . S
C1188 C1190 1.381 . S
C1188 C1194 1.383 . S
C1189 C1185 1.495 . S
C1189 H1195 0.959 . S
C1189 H1196 0.961 . S
C1189 H1197 0.960 . S
C1190 C1188 1.381 . S
C1190 C1191 1.394 . S
C1190 H1198 0.930 . S
C1191 C1190 1.394 . S
C1191 C1192 1.383 . S
C1191 H1199 0.929 . S
C1192 C1191 1.383 . S
C1192 C1193 1.377 . S
C1193 H1177 0.930 . S
C1193 C1192 1.377 . S
C1193 C1194 1.379 . S
C1194 H1178 0.931 . S
C1194 C1188 1.383 . S
C1194 C1193 1.379 . S
H1195 C1189 0.959 . S
H1196 C1189 0.961 . S
H1197 C1189 0.960 . S
H1198 C1190 0.930 . S
H1199 C1191 0.929 . S
H1200 C1208 0.929 . S
H1201 C1210 0.930 . S
H1202 C1212 0.930 . S
H1203 C1215 0.929 . S
H1204 C1218 0.930 . S
H1205 C1220 0.960 . S
H1206 C1220 0.960 . S
H1207 C1220 0.960 . S
C1208 H1200 0.929 . S
C1208 C1209 1.377 . S
C1208 C1210 1.384 . S
C1209 C1208 1.377 . S
C1209 C1215 1.390 . S
C1210 H1201 0.930 . S
C1210 C1208 1.384 . S
C1210 C1211 1.372 . S
C1211 C1210 1.372 . S
C1211 C1212 1.400 . S
C1211 C1216 1.490 . S
C1212 H1202 0.930 . S
C1212 C1211 1.400 . S
C1212 C1215 1.386 . S
H1213 C1229 0.930 . S
H1214 C1230 0.931 . S
C1215 H1203 0.929 . S
C1215 C1209 1.390 . S
C1215 C1212 1.386 . S
C1216 C1211 1.490 . S
C1216 C1218 1.395 . S
C1216 C1219 1.403 . S
H1217 C1223 0.930 . S
C1218 H1204 0.930 . S
C1218 C1216 1.395 . S
C1218 C1221 1.403 . S
C1219 C1216 1.403 . S
C1219 C1220 1.524 . S
C1219 C1223 1.400 . S
C1220 H1205 0.960 . S
C1220 H1206 0.960 . S
C1220 H1207 0.960 . S
C1220 C1219 1.524 . S
C1221 C1218 1.403 . S
C1221 C1222 1.392 . S
C1221 C1225 1.495 . S
C1222 C1221 1.392 . S
C1222 C1223 1.385 . S
C1222 C1224 1.478 . S
C1223 H1217 0.930 . S
C1223 C1219 1.400 . S
C1223 C1222 1.385 . S
C1224 C1222 1.478 . S
C1224 C1226 1.381 . S
C1224 C1230 1.383 . S
C1225 C1221 1.495 . S
C1225 H1231 0.959 . S
C1225 H1232 0.961 . S
C1225 H1233 0.960 . S
C1226 C1224 1.381 . S
C1226 C1227 1.394 . S
C1226 H1234 0.930 . S
C1227 C1226 1.394 . S
C1227 C1228 1.383 . S
C1227 H1235 0.929 . S
C1228 C1227 1.383 . S
C1228 C1229 1.377 . S
C1229 H1213 0.930 . S
C1229 C1228 1.377 . S
C1229 C1230 1.379 . S
C1230 H1214 0.931 . S
C1230 C1224 1.383 . S
C1230 C1229 1.379 . S
H1231 C1225 0.959 . S
H1232 C1225 0.961 . S
H1233 C1225 0.960 . S
H1234 C1226 0.930 . S
H1235 C1227 0.929 . S
H1236 C1244 0.929 . S
H1237 C1246 0.930 . S
H1238 C1248 0.930 . S
H1239 C1251 0.929 . S
H1240 C1254 0.930 . S
H1241 C1256 0.960 1_565 S
H1242 C1256 0.960 . S
H1243 C1256 0.960 . S
C1244 H1236 0.929 . S
C1244 C1245 1.377 . S
C1244 C1246 1.384 . S
C1245 C1244 1.377 . S
C1245 C1251 1.390 . S
C1246 H1237 0.930 . S
C1246 C1244 1.384 . S
C1246 C1247 1.372 . S
C1247 C1246 1.372 . S
C1247 C1248 1.400 . S
C1247 C1252 1.490 . S
C1248 H1238 0.930 . S
C1248 C1247 1.400 . S
C1248 C1251 1.386 . S
H1249 C1265 0.930 . S
H1250 C1266 0.931 . S
C1251 H1239 0.929 . S
C1251 C1245 1.390 . S
C1251 C1248 1.386 . S
C1252 C1247 1.490 . S
C1252 C1254 1.395 . S
C1252 C1255 1.403 . S
H1253 C1259 0.930 . S
C1254 H1240 0.930 . S
C1254 C1252 1.395 . S
C1254 C1257 1.403 . S
C1255 C1252 1.403 . S
C1255 C1256 1.524 . S
C1255 C1259 1.400 1_545 S
C1256 H1241 0.960 1_545 S
C1256 H1242 0.960 . S
C1256 H1243 0.960 . S
C1256 C1255 1.524 . S
C1257 C1254 1.403 . S
C1257 C1258 1.392 1_545 S
C1257 C1261 1.495 . S
C1258 C1257 1.392 1_565 S
C1258 C1259 1.385 . S
C1258 C1260 1.478 . S
C1259 H1253 0.930 . S
C1259 C1255 1.400 1_565 S
C1259 C1258 1.385 . S
C1260 C1258 1.478 . S
C1260 C1262 1.381 . S
C1260 C1266 1.383 . S
C1261 C1257 1.495 . S
C1261 H1267 0.959 . S
C1261 H1268 0.961 . S
C1261 H1269 0.960 . S
C1262 C1260 1.381 . S
C1262 C1263 1.394 . S
C1262 H1270 0.930 . S
C1263 C1262 1.394 . S
C1263 C1264 1.383 . S
C1263 H1271 0.929 . S
C1264 C1263 1.383 . S
C1264 C1265 1.377 . S
C1265 H1249 0.930 . S
C1265 C1264 1.377 . S
C1265 C1266 1.379 . S
C1266 H1250 0.931 . S
C1266 C1260 1.383 . S
C1266 C1265 1.379 . S
H1267 C1261 0.959 . S
H1268 C1261 0.961 . S
H1269 C1261 0.960 . S
H1270 C1262 0.930 . S
H1271 C1263 0.929 . S
H1272 C1280 0.929 . S
H1273 C1282 0.930 . S
H1274 C1284 0.930 . S
H1275 C1287 0.929 . S
H1276 C1290 0.930 . S
H1277 C1292 0.960 . S
H1278 C1292 0.960 . S
H1279 C1292 0.960 . S
C1280 H1272 0.929 . S
C1280 C1281 1.377 . S
C1280 C1282 1.384 . S
C1281 C1280 1.377 . S
C1281 C1287 1.390 . S
C1282 H1273 0.930 . S
C1282 C1280 1.384 . S
C1282 C1283 1.372 . S
C1283 C1282 1.372 . S
C1283 C1284 1.400 . S
C1283 C1288 1.490 . S
C1284 H1274 0.930 . S
C1284 C1283 1.400 . S
C1284 C1287 1.386 . S
H1285 C1301 0.930 . S
H1286 C1302 0.931 . S
C1287 H1275 0.929 . S
C1287 C1281 1.390 . S
C1287 C1284 1.386 . S
C1288 C1283 1.490 . S
C1288 C1290 1.395 . S
C1288 C1291 1.403 . S
H1289 C1295 0.930 . S
C1290 H1276 0.930 . S
C1290 C1288 1.395 . S
C1290 C1293 1.403 . S
C1291 C1288 1.403 . S
C1291 C1292 1.524 . S
C1291 C1295 1.400 . S
C1292 H1277 0.960 . S
C1292 H1278 0.960 . S
C1292 H1279 0.960 . S
C1292 C1291 1.524 . S
C1293 C1290 1.403 . S
C1293 C1294 1.392 . S
C1293 C1297 1.495 . S
C1294 C1293 1.392 . S
C1294 C1295 1.385 . S
C1294 C1296 1.478 . S
C1295 H1289 0.930 . S
C1295 C1291 1.400 . S
C1295 C1294 1.385 . S
C1296 C1294 1.478 . S
C1296 C1298 1.381 . S
C1296 C1302 1.383 . S
C1297 C1293 1.495 . S
C1297 H1303 0.959 . S
C1297 H1304 0.961 . S
C1297 H1305 0.960 . S
C1298 C1296 1.381 . S
C1298 C1299 1.394 . S
C1298 H1306 0.930 . S
C1299 C1298 1.394 . S
C1299 C1300 1.383 . S
C1299 H1307 0.929 . S
C1300 C1299 1.383 . S
C1300 C1301 1.377 . S
C1301 H1285 0.930 . S
C1301 C1300 1.377 . S
C1301 C1302 1.379 . S
C1302 H1286 0.931 . S
C1302 C1296 1.383 . S
C1302 C1301 1.379 . S
H1303 C1297 0.959 . S
H1304 C1297 0.961 . S
H1305 C1297 0.960 . S
H1306 C1298 0.930 . S
H1307 C1299 0.929 . S
H1308 C1316 0.929 . S
H1309 C1318 0.930 . S
H1310 C1320 0.930 . S
H1311 C1323 0.929 . S
H1312 C1326 0.967 . S
H1313 C1328 0.960 . S
H1314 C1328 0.960 . S
H1315 C1328 0.960 . S
C1316 H1308 0.929 . S
C1316 C1317 1.377 . S
C1316 C1318 1.384 . S
C1317 C1316 1.377 . S
C1317 C1323 1.390 . S
C1318 H1309 0.930 . S
C1318 C1316 1.384 . S
C1318 C1319 1.372 . S
C1319 C1318 1.372 . S
C1319 C1320 1.400 . S
C1319 C1324 1.490 1_545 S
C1320 H1310 0.930 . S
C1320 C1319 1.400 . S
C1320 C1323 1.386 . S
H1321 C1337 0.930 . S
H1322 C1338 0.931 . S
C1323 H1311 0.929 . S
C1323 C1317 1.390 . S
C1323 C1320 1.386 . S
C1324 C1319 1.490 1_565 S
C1324 C1326 1.392 1_565 S
C1324 C1327 1.403 . S
H1325 C1331 0.930 . S
C1326 H1312 0.967 . S
C1326 C1324 1.392 1_545 S
C1326 C1329 1.371 1_545 S
C1327 C1324 1.403 . S
C1327 C1328 1.524 . S
C1327 C1331 1.400 . S
C1328 H1313 0.960 . S
C1328 H1314 0.960 . S
C1328 H1315 0.960 . S
C1328 C1327 1.524 . S
C1329 C1326 1.371 1_565 S
C1329 C1330 1.392 . S
C1329 C1333 1.495 . S
C1330 C1329 1.392 . S
C1330 C1331 1.385 . S
C1330 C1332 1.478 . S
C1331 H1325 0.930 . S
C1331 C1327 1.400 . S
C1331 C1330 1.385 . S
C1332 C1330 1.478 . S
C1332 C1334 1.381 . S
C1332 C1338 1.383 . S
C1333 C1329 1.495 . S
C1333 H1339 0.959 1_565 S
C1333 H1340 0.961 . S
C1333 H1341 0.960 . S
C1334 C1332 1.381 . S
C1334 C1335 1.394 . S
C1334 H1342 0.930 . S
C1335 C1334 1.394 . S
C1335 C1336 1.383 . S
C1335 H1343 0.929 . S
C1336 C1335 1.383 . S
C1336 C1337 1.377 . S
C1337 H1321 0.930 . S
C1337 C1336 1.377 . S
C1337 C1338 1.379 . S
C1338 H1322 0.931 . S
C1338 C1332 1.383 . S
C1338 C1337 1.379 . S
H1339 C1333 0.959 1_545 S
H1340 C1333 0.961 . S
H1341 C1333 0.960 . S
H1342 C1334 0.930 . S
H1343 C1335 0.929 . S
H1344 C1352 0.929 . S
H1345 C1354 0.930 . S
H1346 C1356 0.930 . S
H1347 C1359 0.929 . S
H1348 C1362 0.930 . S
H1349 C1364 0.960 . S
H1350 C1364 0.960 . S
H1351 C1364 0.960 . S
C1352 H1344 0.929 . S
C1352 C1353 1.377 . S
C1352 C1354 1.384 . S
C1353 C1352 1.377 . S
C1353 C1359 1.390 . S
C1354 H1345 0.930 . S
C1354 C1352 1.384 . S
C1354 C1355 1.372 . S
C1355 C1354 1.372 . S
C1355 C1356 1.400 . S
C1355 C1360 1.490 . S
C1356 H1346 0.930 . S
C1356 C1355 1.400 . S
C1356 C1359 1.386 . S
H1357 C1373 0.930 . S
H1358 C1374 0.931 . S
C1359 H1347 0.929 . S
C1359 C1353 1.390 . S
C1359 C1356 1.386 . S
C1360 C1355 1.490 . S
C1360 C1362 1.395 . S
C1360 C1363 1.403 . S
H1361 C1367 0.930 . S
C1362 H1348 0.930 . S
C1362 C1360 1.395 . S
C1362 C1365 1.403 . S
C1363 C1360 1.403 . S
C1363 C1364 1.524 . S
C1363 C1367 1.400 . S
C1364 H1349 0.960 . S
C1364 H1350 0.960 . S
C1364 H1351 0.960 . S
C1364 C1363 1.524 . S
C1365 C1362 1.403 . S
C1365 C1366 1.392 . S
C1365 C1369 1.495 . S
C1366 C1365 1.392 . S
C1366 C1367 1.385 . S
C1366 C1368 1.478 . S
C1367 H1361 0.930 . S
C1367 C1363 1.400 . S
C1367 C1366 1.385 . S
C1368 C1366 1.478 . S
C1368 C1370 1.381 . S
C1368 C1374 1.383 . S
C1369 C1365 1.495 . S
C1369 H1375 0.959 . S
C1369 H1376 0.961 . S
C1369 H1377 0.960 . S
C1370 C1368 1.381 . S
C1370 C1371 1.394 . S
C1370 H1378 0.930 . S
C1371 C1370 1.394 . S
C1371 C1372 1.383 . S
C1371 H1379 0.929 . S
C1372 C1371 1.383 . S
C1372 C1373 1.377 . S
C1373 H1357 0.930 . S
C1373 C1372 1.377 . S
C1373 C1374 1.379 . S
C1374 H1358 0.931 . S
C1374 C1368 1.383 . S
C1374 C1373 1.379 . S
H1375 C1369 0.959 . S
H1376 C1369 0.961 . S
H1377 C1369 0.960 . S
H1378 C1370 0.930 . S
H1379 C1371 0.929 . S
H1380 C1388 0.929 . S
H1381 C1390 0.930 . S
H1382 C1392 0.930 . S
H1383 C1395 0.929 . S
H1384 C1398 0.930 . S
H1385 C1400 0.974 . S
H1386 C1400 0.960 . S
H1387 C1400 0.960 . S
C1388 H1380 0.929 . S
C1388 C1389 1.377 . S
C1388 C1390 1.384 . S
C1389 C1388 1.377 . S
C1389 C1395 1.390 . S
C1390 H1381 0.930 . S
C1390 C1388 1.384 . S
C1390 C1391 1.372 . S
C1391 C1390 1.372 . S
C1391 C1392 1.400 . S
C1391 C1396 1.490 . S
C1392 H1382 0.930 . S
C1392 C1391 1.400 . S
C1392 C1395 1.386 . S
H1393 C1409 0.930 . S
H1394 C1410 0.931 . S
C1395 H1383 0.929 . S
C1395 C1389 1.390 . S
C1395 C1392 1.386 . S
C1396 C1391 1.490 . S
C1396 C1398 1.395 . S
C1396 C1399 1.403 . S
H1397 C1403 0.930 . S
C1398 H1384 0.930 . S
C1398 C1396 1.395 . S
C1398 C1401 1.403 . S
C1399 C1396 1.403 . S
C1399 C1400 1.524 . S
C1399 C1403 1.400 . S
C1400 H1385 0.974 . S
C1400 H1386 0.960 . S
C1400 H1387 0.960 . S
C1400 C1399 1.524 . S
C1401 C1398 1.403 . S
C1401 C1402 1.392 . S
C1401 C1405 1.495 . S
C1402 C1401 1.392 . S
C1402 C1403 1.385 . S
C1402 C1404 1.478 . S
C1403 H1397 0.930 . S
C1403 C1399 1.400 . S
C1403 C1402 1.385 . S
C1404 C1402 1.478 . S
C1404 C1406 1.381 . S
C1404 C1410 1.383 . S
C1405 C1401 1.495 . S
C1405 H1411 0.959 . S
C1405 H1412 0.961 . S
C1405 H1413 0.960 . S
C1406 C1404 1.381 . S
C1406 C1407 1.394 . S
C1406 H1414 0.930 . S
C1407 C1406 1.394 . S
C1407 C1408 1.383 . S
C1407 H1415 0.929 . S
C1408 C1407 1.383 . S
C1408 C1409 1.377 . S
C1409 H1393 0.930 . S
C1409 C1408 1.377 . S
C1409 C1410 1.379 . S
C1410 H1394 0.931 . S
C1410 C1404 1.383 . S
C1410 C1409 1.379 . S
H1411 C1405 0.959 . S
H1412 C1405 0.961 . S
H1413 C1405 0.960 . S
H1414 C1406 0.930 . S
H1415 C1407 0.929 . S
H1416 C1424 0.929 . S
H1417 C1426 0.930 . S
H1418 C1428 0.930 . S
H1419 C1431 0.929 . S
H1420 C1434 0.930 . S
H1421 C1436 0.960 . S
H1422 C1436 0.960 . S
H1423 C1436 0.960 . S
C1424 H1416 0.929 . S
C1424 C1425 1.377 . S
C1424 C1426 1.384 . S
C1425 C1424 1.377 . S
C1425 C1431 1.390 . S
C1426 H1417 0.930 . S
C1426 C1424 1.384 . S
C1426 C1427 1.372 . S
C1427 C1426 1.372 . S
C1427 C1428 1.400 . S
C1427 C1432 1.490 . S
C1428 H1418 0.930 . S
C1428 C1427 1.400 . S
C1428 C1431 1.386 . S
H1429 C1445 0.930 . S
H1430 C1446 0.931 . S
C1431 H1419 0.929 . S
C1431 C1425 1.390 . S
C1431 C1428 1.386 . S
C1432 C1427 1.490 . S
C1432 C1434 1.395 . S
C1432 C1435 1.403 . S
H1433 C1439 0.930 . S
C1434 H1420 0.930 . S
C1434 C1432 1.395 . S
C1434 C1437 1.403 . S
C1435 C1432 1.403 . S
C1435 C1436 1.524 . S
C1435 C1439 1.400 . S
C1436 H1421 0.960 . S
C1436 H1422 0.960 . S
C1436 H1423 0.960 . S
C1436 C1435 1.524 . S
C1437 C1434 1.403 . S
C1437 C1438 1.392 . S
C1437 C1441 1.495 . S
C1438 C1437 1.392 . S
C1438 C1439 1.385 . S
C1438 C1440 1.478 . S
C1439 H1433 0.930 . S
C1439 C1435 1.400 . S
C1439 C1438 1.385 . S
C1440 C1438 1.478 . S
C1440 C1442 1.381 . S
C1440 C1446 1.383 . S
C1441 C1437 1.495 . S
C1441 H1447 0.959 . S
C1441 H1448 0.961 . S
C1441 H1449 0.960 . S
C1442 C1440 1.381 . S
C1442 C1443 1.394 . S
C1442 H1450 0.930 . S
C1443 C1442 1.394 . S
C1443 C1444 1.383 . S
C1443 H1451 0.929 . S
C1444 C1443 1.383 . S
C1444 C1445 1.377 . S
C1445 H1429 0.930 . S
C1445 C1444 1.377 . S
C1445 C1446 1.379 . S
C1446 H1430 0.931 . S
C1446 C1440 1.383 . S
C1446 C1445 1.379 . S
H1447 C1441 0.959 . S
H1448 C1441 0.961 . S
H1449 C1441 0.960 . S
H1450 C1442 0.930 . S
H1451 C1443 0.929 . S
H1452 C1460 0.929 . S
H1453 C1462 0.930 . S
H1454 C1464 0.930 . S
H1455 C1467 0.929 . S
H1456 C1470 0.930 . S
H1457 C1472 0.960 . S
H1458 C1472 0.960 . S
H1459 C1472 0.960 . S
C1460 H1452 0.929 . S
C1460 C1461 1.377 . S
C1460 C1462 1.384 . S
C1461 C1460 1.377 . S
C1461 C1467 1.390 . S
C1462 H1453 0.930 . S
C1462 C1460 1.384 . S
C1462 C1463 1.372 . S
C1463 C1462 1.372 . S
C1463 C1464 1.400 . S
C1463 C1468 1.490 . S
C1464 H1454 0.930 . S
C1464 C1463 1.400 . S
C1464 C1467 1.386 . S
H1465 C1481 0.930 . S
H1466 C1482 0.931 . S
C1467 H1455 0.929 . S
C1467 C1461 1.390 . S
C1467 C1464 1.386 . S
C1468 C1463 1.490 . S
C1468 C1470 1.395 . S
C1468 C1471 1.403 . S
H1469 C1475 0.930 . S
C1470 H1456 0.930 . S
C1470 C1468 1.395 . S
C1470 C1473 1.403 . S
C1471 C1468 1.403 . S
C1471 C1472 1.524 . S
C1471 C1475 1.400 . S
C1472 H1457 0.960 . S
C1472 H1458 0.960 . S
C1472 H1459 0.960 . S
C1472 C1471 1.524 . S
C1473 C1470 1.403 . S
C1473 C1474 1.392 . S
C1473 C1477 1.495 . S
C1474 C1473 1.392 . S
C1474 C1475 1.385 . S
C1474 C1476 1.478 . S
C1475 H1469 0.930 . S
C1475 C1471 1.400 . S
C1475 C1474 1.385 . S
C1476 C1474 1.478 . S
C1476 C1478 1.381 . S
C1476 C1482 1.383 . S
C1477 C1473 1.495 . S
C1477 H1483 0.959 . S
C1477 H1484 0.961 . S
C1477 H1485 0.960 . S
C1478 C1476 1.381 . S
C1478 C1479 1.394 . S
C1478 H1486 0.930 . S
C1479 C1478 1.394 . S
C1479 C1480 1.383 . S
C1479 H1487 0.929 . S
C1480 C1479 1.383 . S
C1480 C1481 1.377 . S
C1481 H1465 0.930 . S
C1481 C1480 1.377 . S
C1481 C1482 1.379 . S
C1482 H1466 0.931 . S
C1482 C1476 1.383 . S
C1482 C1481 1.379 . S
H1483 C1477 0.959 . S
H1484 C1477 0.961 . S
H1485 C1477 0.960 . S
H1486 C1478 0.930 . S
H1487 C1479 0.929 . S
H1488 C1496 0.929 . S
H1489 C1498 0.930 . S
H1490 C1500 0.930 . S
H1491 C1503 0.929 . S
H1492 C1506 0.930 . S
H1493 C1508 0.960 . S
H1494 C1508 0.960 . S
H1495 C1508 0.960 . S
C1496 H1488 0.929 . S
C1496 C1497 1.377 . S
C1496 C1498 1.384 . S
C1497 C1496 1.377 . S
C1497 C1503 1.390 . S
C1498 H1489 0.930 . S
C1498 C1496 1.384 . S
C1498 C1499 1.372 . S
C1499 C1498 1.372 . S
C1499 C1500 1.400 . S
C1499 C1504 1.490 . S
C1500 H1490 0.930 . S
C1500 C1499 1.400 . S
C1500 C1503 1.386 . S
H1501 C1517 0.930 . S
H1502 C1518 0.931 . S
C1503 H1491 0.929 . S
C1503 C1497 1.390 . S
C1503 C1500 1.386 . S
C1504 C1499 1.490 . S
C1504 C1506 1.395 . S
C1504 C1507 1.403 . S
H1505 C1511 0.930 . S
C1506 H1492 0.930 . S
C1506 C1504 1.395 . S
C1506 C1509 1.403 . S
C1507 C1504 1.403 . S
C1507 C1508 1.524 . S
C1507 C1511 1.400 . S
C1508 H1493 0.960 . S
C1508 H1494 0.960 . S
C1508 H1495 0.960 . S
C1508 C1507 1.524 . S
C1509 C1506 1.403 . S
C1509 C1510 1.392 . S
C1509 C1513 1.495 . S
C1510 C1509 1.392 . S
C1510 C1511 1.385 . S
C1510 C1512 1.478 . S
C1511 H1505 0.930 . S
C1511 C1507 1.400 . S
C1511 C1510 1.385 . S
C1512 C1510 1.478 . S
C1512 C1514 1.381 . S
C1512 C1518 1.383 . S
C1513 C1509 1.495 . S
C1513 H1519 0.959 . S
C1513 H1520 0.961 . S
C1513 H1521 0.960 . S
C1514 C1512 1.381 . S
C1514 C1515 1.394 . S
C1514 H1522 0.930 . S
C1515 C1514 1.394 . S
C1515 C1516 1.383 . S
C1515 H1523 0.929 . S
C1516 C1515 1.383 . S
C1516 C1517 1.377 . S
C1517 H1501 0.930 . S
C1517 C1516 1.377 . S
C1517 C1518 1.379 . S
C1518 H1502 0.931 . S
C1518 C1512 1.383 . S
C1518 C1517 1.379 . S
H1519 C1513 0.959 . S
H1520 C1513 0.961 . S
H1521 C1513 0.960 . S
H1522 C1514 0.930 . S
H1523 C1515 0.929 . S
H1524 C1532 0.929 . S
H1525 C1534 0.930 . S
H1526 C1536 0.930 . S
H1527 C1539 0.929 . S
H1528 C1542 0.930 . S
H1529 C1544 0.960 . S
H1530 C1544 0.960 . S
H1531 C1544 0.960 . S
C1532 H1524 0.929 . S
C1532 C1533 1.377 . S
C1532 C1534 1.384 . S
C1533 C1532 1.377 . S
C1533 C1539 1.390 . S
C1534 H1525 0.930 . S
C1534 C1532 1.384 . S
C1534 C1535 1.372 . S
C1535 C1534 1.372 . S
C1535 C1536 1.400 . S
C1535 C1540 1.490 . S
C1536 H1526 0.930 . S
C1536 C1535 1.400 . S
C1536 C1539 1.386 . S
H1537 C1553 0.930 . S
H1538 C1554 0.931 . S
C1539 H1527 0.929 . S
C1539 C1533 1.390 . S
C1539 C1536 1.386 . S
C1540 C1535 1.490 . S
C1540 C1542 1.395 . S
C1540 C1543 1.403 . S
H1541 C1547 0.930 . S
C1542 H1528 0.930 . S
C1542 C1540 1.395 . S
C1542 C1545 1.403 . S
C1543 C1540 1.403 . S
C1543 C1544 1.524 . S
C1543 C1547 1.400 . S
C1544 H1529 0.960 . S
C1544 H1530 0.960 . S
C1544 H1531 0.960 . S
C1544 C1543 1.524 . S
C1545 C1542 1.403 . S
C1545 C1546 1.392 . S
C1545 C1549 1.495 . S
C1546 C1545 1.392 . S
C1546 C1547 1.385 . S
C1546 C1548 1.478 . S
C1547 H1541 0.930 . S
C1547 C1543 1.400 . S
C1547 C1546 1.385 . S
C1548 C1546 1.478 . S
C1548 C1550 1.381 . S
C1548 C1554 1.383 . S
C1549 C1545 1.495 . S
C1549 H1555 0.959 . S
C1549 H1556 0.961 . S
C1549 H1557 0.960 . S
C1550 C1548 1.381 . S
C1550 C1551 1.394 . S
C1550 H1558 0.930 . S
C1551 C1550 1.394 . S
C1551 C1552 1.383 . S
C1551 H1559 0.929 . S
C1552 C1551 1.383 . S
C1552 C1553 1.377 . S
C1553 H1537 0.930 . S
C1553 C1552 1.377 . S
C1553 C1554 1.379 . S
C1554 H1538 0.931 . S
C1554 C1548 1.383 . S
C1554 C1553 1.379 . S
H1555 C1549 0.959 . S
H1556 C1549 0.961 . S
H1557 C1549 0.960 . S
H1558 C1550 0.930 . S
H1559 C1551 0.929 . S
H1560 C1568 0.929 . S
H1561 C1570 0.930 . S
H1562 C1572 0.930 . S
H1563 C1575 0.929 . S
H1564 C1578 0.930 . S
H1565 C1580 0.960 . S
H1566 C1580 0.960 . S
H1567 C1580 0.960 . S
C1568 H1560 0.929 . S
C1568 C1569 1.377 . S
C1568 C1570 1.384 . S
C1569 C1568 1.377 . S
C1569 C1575 1.390 . S
C1570 H1561 0.930 . S
C1570 C1568 1.384 . S
C1570 C1571 1.372 . S
C1571 C1570 1.372 . S
C1571 C1572 1.400 . S
C1571 C1576 1.490 . S
C1572 H1562 0.930 . S
C1572 C1571 1.400 . S
C1572 C1575 1.386 . S
H1573 C1589 0.930 . S
H1574 C1590 0.931 . S
C1575 H1563 0.929 . S
C1575 C1569 1.390 . S
C1575 C1572 1.386 . S
C1576 C1571 1.490 . S
C1576 C1578 1.395 . S
C1576 C1579 1.403 . S
H1577 C1583 0.928 1_655 S
C1578 H1564 0.930 . S
C1578 C1576 1.395 . S
C1578 C1581 1.403 . S
C1579 C1576 1.403 . S
C1579 C1580 1.524 . S
C1579 C1583 1.400 . S
C1580 H1565 0.960 . S
C1580 H1566 0.960 . S
C1580 H1567 0.960 . S
C1580 C1579 1.524 . S
C1581 C1578 1.403 . S
C1581 C1582 1.402 . S
C1581 C1585 1.495 . S
C1582 C1581 1.402 . S
C1582 C1583 1.391 . S
C1582 C1584 1.463 1_455 S
C1583 H1577 0.928 1_455 S
C1583 C1579 1.400 . S
C1583 C1582 1.391 . S
C1584 C1582 1.463 1_655 S
C1584 C1586 1.381 . S
C1584 C1590 1.383 . S
C1585 C1581 1.495 . S
C1585 H1591 0.959 . S
C1585 H1592 0.961 . S
C1585 H1593 0.960 1_455 S
C1586 C1584 1.381 . S
C1586 C1587 1.394 . S
C1586 H1594 0.930 . S
C1587 C1586 1.394 . S
C1587 C1588 1.383 . S
C1587 H1595 0.929 . S
C1588 C1587 1.383 . S
C1588 C1589 1.377 . S
C1589 H1573 0.930 . S
C1589 C1588 1.377 . S
C1589 C1590 1.379 . S
C1590 H1574 0.931 . S
C1590 C1584 1.383 . S
C1590 C1589 1.379 . S
H1591 C1585 0.959 . S
H1592 C1585 0.961 . S
H1593 C1585 0.960 1_655 S
H1594 C1586 0.930 . S
H1595 C1587 0.929 . S
H1596 C1604 0.929 . S
H1597 C1606 0.930 . S
H1598 C1608 0.930 . S
H1599 C1611 0.929 . S
H1600 C1614 0.930 . S
H1601 C1616 0.960 . S
H1602 C1616 0.960 . S
H1603 C1616 0.960 . S
C1604 H1596 0.929 . S
C1604 C1605 1.377 . S
C1604 C1606 1.384 . S
C1605 C1604 1.377 . S
C1605 C1611 1.390 . S
C1606 H1597 0.930 . S
C1606 C1604 1.384 . S
C1606 C1607 1.372 . S
C1607 C1606 1.372 . S
C1607 C1608 1.400 . S
C1607 C1612 1.490 . S
C1608 H1598 0.930 . S
C1608 C1607 1.400 . S
C1608 C1611 1.386 . S
H1609 C1625 0.930 . S
H1610 C1626 0.931 . S
C1611 H1599 0.929 . S
C1611 C1605 1.390 . S
C1611 C1608 1.386 . S
C1612 C1607 1.490 . S
C1612 C1614 1.395 . S
C1612 C1615 1.403 . S
H1613 C1619 0.930 . S
C1614 H1600 0.930 . S
C1614 C1612 1.395 . S
C1614 C1617 1.403 . S
C1615 C1612 1.403 . S
C1615 C1616 1.524 . S
C1615 C1619 1.400 . S
C1616 H1601 0.960 . S
C1616 H1602 0.960 . S
C1616 H1603 0.960 . S
C1616 C1615 1.524 . S
C1617 C1614 1.403 . S
C1617 C1618 1.392 . S
C1617 C1621 1.495 . S
C1618 C1617 1.392 . S
C1618 C1619 1.385 . S
C1618 C1620 1.478 . S
C1619 H1613 0.930 . S
C1619 C1615 1.400 . S
C1619 C1618 1.385 . S
C1620 C1618 1.478 . S
C1620 C1622 1.381 . S
C1620 C1626 1.383 . S
C1621 C1617 1.495 . S
C1621 H1627 0.959 . S
C1621 H1628 0.961 . S
C1621 H1629 0.960 . S
C1622 C1620 1.381 . S
C1622 C1623 1.394 . S
C1622 H1630 0.930 . S
C1623 C1622 1.394 . S
C1623 C1624 1.383 . S
C1623 H1631 0.929 . S
C1624 C1623 1.383 . S
C1624 C1625 1.377 . S
C1625 H1609 0.930 . S
C1625 C1624 1.377 . S
C1625 C1626 1.379 . S
C1626 H1610 0.931 . S
C1626 C1620 1.383 . S
C1626 C1625 1.379 . S
H1627 C1621 0.959 . S
H1628 C1621 0.961 . S
H1629 C1621 0.960 . S
H1630 C1622 0.930 . S
H1631 C1623 0.929 . S
H1632 C1640 0.929 . S
H1633 C1642 0.930 . S
H1634 C1644 0.930 . S
H1635 C1647 0.929 . S
H1636 C1650 0.930 . S
H1637 C1652 0.960 . S
H1638 C1652 0.960 . S
H1639 C1652 0.960 . S
C1640 H1632 0.929 . S
C1640 C1641 1.377 . S
C1640 C1642 1.384 . S
C1641 C1640 1.377 . S
C1641 C1647 1.390 . S
C1642 H1633 0.930 . S
C1642 C1640 1.384 . S
C1642 C1643 1.372 . S
C1643 C1642 1.372 . S
C1643 C1644 1.400 . S
C1643 C1648 1.490 . S
C1644 H1634 0.930 . S
C1644 C1643 1.400 . S
C1644 C1647 1.386 . S
H1645 C1661 0.930 . S
H1646 C1662 0.931 . S
C1647 H1635 0.929 . S
C1647 C1641 1.390 . S
C1647 C1644 1.386 . S
C1648 C1643 1.490 . S
C1648 C1650 1.395 . S
C1648 C1651 1.403 . S
H1649 C1655 0.930 . S
C1650 H1636 0.930 . S
C1650 C1648 1.395 . S
C1650 C1653 1.403 . S
C1651 C1648 1.403 . S
C1651 C1652 1.524 . S
C1651 C1655 1.400 . S
C1652 H1637 0.960 . S
C1652 H1638 0.960 . S
C1652 H1639 0.960 . S
C1652 C1651 1.524 . S
C1653 C1650 1.403 . S
C1653 C1654 1.392 . S
C1653 C1657 1.495 . S
C1654 C1653 1.392 . S
C1654 C1655 1.385 . S
C1654 C1656 1.478 . S
C1655 H1649 0.930 . S
C1655 C1651 1.400 . S
C1655 C1654 1.385 . S
C1656 C1654 1.478 . S
C1656 C1658 1.381 . S
C1656 C1662 1.383 . S
C1657 C1653 1.495 . S
C1657 H1663 0.959 . S
C1657 H1664 0.961 . S
C1657 H1665 0.960 . S
C1658 C1656 1.381 . S
C1658 C1659 1.394 . S
C1658 H1666 0.930 . S
C1659 C1658 1.394 . S
C1659 C1660 1.383 . S
C1659 H1667 0.929 . S
C1660 C1659 1.383 . S
C1660 C1661 1.377 . S
C1661 H1645 0.930 . S
C1661 C1660 1.377 . S
C1661 C1662 1.379 . S
C1662 H1646 0.931 . S
C1662 C1656 1.383 . S
C1662 C1661 1.379 . S
H1663 C1657 0.959 . S
H1664 C1657 0.961 . S
H1665 C1657 0.960 . S
H1666 C1658 0.930 . S
H1667 C1659 0.929 . S
H1668 C1676 0.929 . S
H1669 C1678 0.930 . S
H1670 C1680 0.930 . S
H1671 C1683 0.929 . S
H1672 C1686 0.930 . S
H1673 C1688 0.960 . S
H1674 C1688 0.960 . S
H1675 C1688 0.960 . S
C1676 H1668 0.929 . S
C1676 C1677 1.377 . S
C1676 C1678 1.384 . S
C1677 C1676 1.377 . S
C1677 C1683 1.390 . S
C1678 H1669 0.930 . S
C1678 C1676 1.384 . S
C1678 C1679 1.372 . S
C1679 C1678 1.372 . S
C1679 C1680 1.400 . S
C1679 C1684 1.490 . S
C1680 H1670 0.930 . S
C1680 C1679 1.400 . S
C1680 C1683 1.386 . S
H1681 C1697 0.930 . S
H1682 C1698 0.931 . S
C1683 H1671 0.929 . S
C1683 C1677 1.390 . S
C1683 C1680 1.386 . S
C1684 C1679 1.490 . S
C1684 C1686 1.395 . S
C1684 C1687 1.403 . S
H1685 C1691 0.930 . S
C1686 H1672 0.930 . S
C1686 C1684 1.395 . S
C1686 C1689 1.403 . S
C1687 C1684 1.403 . S
C1687 C1688 1.524 . S
C1687 C1691 1.400 . S
C1688 H1673 0.960 . S
C1688 H1674 0.960 . S
C1688 H1675 0.960 . S
C1688 C1687 1.524 . S
C1689 C1686 1.403 . S
C1689 C1690 1.392 . S
C1689 C1693 1.495 . S
C1690 C1689 1.392 . S
C1690 C1691 1.385 . S
C1690 C1692 1.478 . S
C1691 H1685 0.930 . S
C1691 C1687 1.400 . S
C1691 C1690 1.385 . S
C1692 C1690 1.478 . S
C1692 C1694 1.381 . S
C1692 C1698 1.383 . S
C1693 C1689 1.495 . S
C1693 H1699 0.959 . S
C1693 H1700 0.961 . S
C1693 H1701 0.960 . S
C1694 C1692 1.381 . S
C1694 C1695 1.394 . S
C1694 H1702 0.930 . S
C1695 C1694 1.394 . S
C1695 C1696 1.383 . S
C1695 H1703 0.929 . S
C1696 C1695 1.383 . S
C1696 C1697 1.377 . S
C1697 H1681 0.930 . S
C1697 C1696 1.377 . S
C1697 C1698 1.379 . S
C1698 H1682 0.931 . S
C1698 C1692 1.383 . S
C1698 C1697 1.379 . S
H1699 C1693 0.959 . S
H1700 C1693 0.961 . S
H1701 C1693 0.960 . S
H1702 C1694 0.930 . S
H1703 C1695 0.929 . S
H1704 C1712 0.929 . S
H1705 C1714 0.930 . S
H1706 C1716 0.930 . S
H1707 C1719 0.929 . S
H1708 C1722 0.930 . S
H1709 C1724 0.960 . S
H1710 C1724 0.960 . S
H1711 C1724 0.960 . S
C1712 H1704 0.929 . S
C1712 C1713 1.377 . S
C1712 C1714 1.384 . S
C1713 C1712 1.377 . S
C1713 C1719 1.390 . S
C1714 H1705 0.930 . S
C1714 C1712 1.384 . S
C1714 C1715 1.372 . S
C1715 C1714 1.372 . S
C1715 C1716 1.400 . S
C1715 C1720 1.490 . S
C1716 H1706 0.930 . S
C1716 C1715 1.400 . S
C1716 C1719 1.386 . S
H1717 C1733 0.930 . S
H1718 C1734 0.931 . S
C1719 H1707 0.929 . S
C1719 C1713 1.390 . S
C1719 C1716 1.386 . S
C1720 C1715 1.490 . S
C1720 C1722 1.395 . S
C1720 C1723 1.403 . S
H1721 C1727 0.930 . S
C1722 H1708 0.930 . S
C1722 C1720 1.395 . S
C1722 C1725 1.403 . S
C1723 C1720 1.403 . S
C1723 C1724 1.524 . S
C1723 C1727 1.400 . S
C1724 H1709 0.960 . S
C1724 H1710 0.960 . S
C1724 H1711 0.960 . S
C1724 C1723 1.524 . S
C1725 C1722 1.403 . S
C1725 C1726 1.392 . S
C1725 C1729 1.495 . S
C1726 C1725 1.392 . S
C1726 C1727 1.385 . S
C1726 C1728 1.478 . S
C1727 H1721 0.930 . S
C1727 C1723 1.400 . S
C1727 C1726 1.385 . S
C1728 C1726 1.478 . S
C1728 C1730 1.381 . S
C1728 C1734 1.383 . S
C1729 C1725 1.495 . S
C1729 H1735 0.959 . S
C1729 H1736 0.961 . S
C1729 H1737 0.960 . S
C1730 C1728 1.381 . S
C1730 C1731 1.394 . S
C1730 H1738 0.930 . S
C1731 C1730 1.394 . S
C1731 C1732 1.383 . S
C1731 H1739 0.929 . S
C1732 C1731 1.383 . S
C1732 C1733 1.377 . S
C1733 H1717 0.930 . S
C1733 C1732 1.377 . S
C1733 C1734 1.379 . S
C1734 H1718 0.931 . S
C1734 C1728 1.383 . S
C1734 C1733 1.379 . S
H1735 C1729 0.959 . S
H1736 C1729 0.961 . S
H1737 C1729 0.960 . S
H1738 C1730 0.930 . S
H1739 C1731 0.929 . S
H1740 C1748 0.929 . S
H1741 C1750 0.930 . S
H1742 C1752 0.930 . S
H1743 C1755 0.929 . S
H1744 C1758 0.930 . S
H1745 C1760 0.960 1_455 S
H1746 C1760 0.960 . S
H1747 C1760 0.960 . S
C1748 H1740 0.929 . S
C1748 C1749 1.377 . S
C1748 C1750 1.384 . S
C1749 C1748 1.377 . S
C1749 C1755 1.390 . S
C1750 H1741 0.930 . S
C1750 C1748 1.384 . S
C1750 C1751 1.372 . S
C1751 C1750 1.372 . S
C1751 C1752 1.400 . S
C1751 C1756 1.490 . S
C1752 H1742 0.930 . S
C1752 C1751 1.400 . S
C1752 C1755 1.386 . S
H1753 C1769 0.930 . S
H1754 C1770 0.931 . S
C1755 H1743 0.929 . S
C1755 C1749 1.390 . S
C1755 C1752 1.386 . S
C1756 C1751 1.490 . S
C1756 C1758 1.395 . S
C1756 C1759 1.403 . S
H1757 C1763 0.930 . S
C1758 H1744 0.930 . S
C1758 C1756 1.395 . S
C1758 C1761 1.403 . S
C1759 C1756 1.403 . S
C1759 C1760 1.524 . S
C1759 C1763 1.400 1_655 S
C1760 H1745 0.960 1_655 S
C1760 H1746 0.960 . S
C1760 H1747 0.960 . S
C1760 C1759 1.524 . S
C1761 C1758 1.403 . S
C1761 C1762 1.392 1_655 S
C1761 C1765 1.495 . S
C1762 C1761 1.392 1_455 S
C1762 C1763 1.385 . S
C1762 C1764 1.478 . S
C1763 H1757 0.930 . S
C1763 C1759 1.400 1_455 S
C1763 C1762 1.385 . S
C1764 C1762 1.478 . S
C1764 C1766 1.381 . S
C1764 C1770 1.383 . S
C1765 C1761 1.495 . S
C1765 H1771 0.959 . S
C1765 H1772 0.961 . S
C1765 H1773 0.960 . S
C1766 C1764 1.381 . S
C1766 C1767 1.394 . S
C1766 H1774 0.930 . S
C1767 C1766 1.394 . S
C1767 C1768 1.383 . S
C1767 H1775 0.929 . S
C1768 C1767 1.383 . S
C1768 C1769 1.377 . S
C1769 H1753 0.930 . S
C1769 C1768 1.377 . S
C1769 C1770 1.379 . S
C1770 H1754 0.931 . S
C1770 C1764 1.383 . S
C1770 C1769 1.379 . S
H1771 C1765 0.959 . S
H1772 C1765 0.961 . S
H1773 C1765 0.960 . S
H1774 C1766 0.930 . S
H1775 C1767 0.929 . S
C489 C24 1.199 . S
C508 C463 1.227 . S
C525 C383 1.587 . S
C544 C63 1.566 1_655 S
C561 C104 1.334 . S
C580 C343 1.325 . S
C597 C143 1.629 . S
C616 C424 1.581 . S
C633 C183 1.549 . S
C652 C423 1.502 1_545 S
C669 C223 1.413 . S
C688 C464 1.372 . S
C705 C384 1.583 . S
C724 C263 1.630 . S
C741 C304 1.362 . S
C760 C344 1.335 . S
C777 C144 1.489 . S
C796 C184 1.519 . S
C813 C23 1.708 . S
C832 C224 1.699 . S
C849 C64 1.618 . S
C868 C264 1.620 . S
C885 C303 1.434 . S
C904 C103 1.450 1_554 S
C921 C17 1.478 . S
C940 C322 1.487 . S
C957 C66 1.517 . S
C976 C413 1.513 . S
C993 C442 2.024 . S
C1012 C97 2.014 . S
C1029 C146 1.172 . S
C1048 C362 1.147 . S
C1065 C186 1.792 . S
C1084 C373 1.788 . S
C1101 C333 1.749 . S
C1120 C226 1.734 . S
C1137 C402 1.084 . S
C1156 C266 1.124 . S
C1173 C453 1.820 . S
C1192 C297 1.755 . S
C1209 C2 1.891 . S
C1228 C137 1.900 . S
C1245 C26 1.504 . S
C1264 C53 1.505 . S
C1281 C57 1.920 . S
C1300 C82 1.933 . S
C1317 C133 1.695 . S
C1336 C106 1.689 . S
C1353 C217 1.396 . S
C1372 C173 1.439 . S
C1389 C213 1.231 . S
C1408 C257 1.199 . S
C1425 C253 1.519 . S
C1444 C306 1.509 . S
C1461 C177 1.191 . S
C1480 C282 1.202 . S
C1497 C337 1.247 . S
C1516 C122 1.256 . S
C1533 C202 1.422 . S
C1552 C386 1.453 . S
C1569 C346 0.794 . S
C1588 C242 0.756 . S
C1605 C417 1.710 . S
C1624 C293 1.776 . S
C1641 C162 1.448 . S
C1660 C466 1.475 . S
C1677 C457 1.331 . S
C1696 C42 1.302 . S
C1713 C93 1.780 . S
C1732 C377 1.701 . S
C1749 C426 1.212 . S
C1768 C13 1.209 . S
