# Generated by pormake.
# Topology unn, (4)-cn, num edge types: 1
# Building blocks:
#     Node 0, Type 0, BuildingBlock: ICAMEG_clean_sbu_1, # of connection points: 4
#     Node 1, Type 0, BuildingBlock: ICAMEG_clean_sbu_1, # of connection points: 4
#     Node 2, Type 0, BuildingBlock: ICAMEG_clean_sbu_1, # of connection points: 4
#     Node 3, Type 0, BuildingBlock: ICAMEG_clean_sbu_1, # of connection points: 4
#     Node 4, Type 0, BuildingBlock: ICAMEG_clean_sbu_1, # of connection points: 4
#     Node 5, Type 0, BuildingBlock: ICAMEG_clean_sbu_1, # of connection points: 4
#     Node 6, Type 0, BuildingBlock: ICAMEG_clean_sbu_1, # of connection points: 4
#     Node 7, Type 0, BuildingBlock: ICAMEG_clean_sbu_1, # of connection points: 4
#     Node 8, Type 0, BuildingBlock: ICAMEG_clean_sbu_1, # of connection points: 4
#     Node 9, Type 0, BuildingBlock: ICAMEG_clean_sbu_1, # of connection points: 4
#     Node 10, Type 0, BuildingBlock: ICAMEG_clean_sbu_1, # of connection points: 4
#     Node 11, Type 0, BuildingBlock: ICAMEG_clean_sbu_1, # of connection points: 4
#     Node 12, Type 0, BuildingBlock: ICAMEG_clean_sbu_1, # of connection points: 4
#     Node 13, Type 0, BuildingBlock: ICAMEG_clean_sbu_1, # of connection points: 4
#     Node 14, Type 0, BuildingBlock: ICAMEG_clean_sbu_1, # of connection points: 4
#     Node 15, Type 0, BuildingBlock: ICAMEG_clean_sbu_1, # of connection points: 4
#     Node 16, Type 0, BuildingBlock: ICAMEG_clean_sbu_1, # of connection points: 4
#     Node 17, Type 0, BuildingBlock: ICAMEG_clean_sbu_1, # of connection points: 4
#     Edge 18, Type (0, 0), BuildingBlock: KIFKEQ_clean_linker_1, # of connection points: 2
#     Edge 19, Type (0, 0), BuildingBlock: KIFKEQ_clean_linker_1, # of connection points: 2
#     Edge 20, Type (0, 0), BuildingBlock: KIFKEQ_clean_linker_1, # of connection points: 2
#     Edge 21, Type (0, 0), BuildingBlock: KIFKEQ_clean_linker_1, # of connection points: 2
#     Edge 22, Type (0, 0), BuildingBlock: KIFKEQ_clean_linker_1, # of connection points: 2
#     Edge 23, Type (0, 0), BuildingBlock: KIFKEQ_clean_linker_1, # of connection points: 2
#     Edge 24, Type (0, 0), BuildingBlock: KIFKEQ_clean_linker_1, # of connection points: 2
#     Edge 25, Type (0, 0), BuildingBlock: KIFKEQ_clean_linker_1, # of connection points: 2
#     Edge 26, Type (0, 0), BuildingBlock: KIFKEQ_clean_linker_1, # of connection points: 2
#     Edge 27, Type (0, 0), BuildingBlock: KIFKEQ_clean_linker_1, # of connection points: 2
#     Edge 28, Type (0, 0), BuildingBlock: KIFKEQ_clean_linker_1, # of connection points: 2
#     Edge 29, Type (0, 0), BuildingBlock: KIFKEQ_clean_linker_1, # of connection points: 2
#     Edge 30, Type (0, 0), BuildingBlock: KIFKEQ_clean_linker_1, # of connection points: 2
#     Edge 31, Type (0, 0), BuildingBlock: KIFKEQ_clean_linker_1, # of connection points: 2
#     Edge 32, Type (0, 0), BuildingBlock: KIFKEQ_clean_linker_1, # of connection points: 2
#     Edge 33, Type (0, 0), BuildingBlock: KIFKEQ_clean_linker_1, # of connection points: 2
#     Edge 34, Type (0, 0), BuildingBlock: KIFKEQ_clean_linker_1, # of connection points: 2
#     Edge 35, Type (0, 0), BuildingBlock: KIFKEQ_clean_linker_1, # of connection points: 2
#     Edge 36, Type (0, 0), BuildingBlock: KIFKEQ_clean_linker_1, # of connection points: 2
#     Edge 37, Type (0, 0), BuildingBlock: KIFKEQ_clean_linker_1, # of connection points: 2
#     Edge 38, Type (0, 0), BuildingBlock: KIFKEQ_clean_linker_1, # of connection points: 2
#     Edge 39, Type (0, 0), BuildingBlock: KIFKEQ_clean_linker_1, # of connection points: 2
#     Edge 40, Type (0, 0), BuildingBlock: KIFKEQ_clean_linker_1, # of connection points: 2
#     Edge 41, Type (0, 0), BuildingBlock: KIFKEQ_clean_linker_1, # of connection points: 2
#     Edge 42, Type (0, 0), BuildingBlock: KIFKEQ_clean_linker_1, # of connection points: 2
#     Edge 43, Type (0, 0), BuildingBlock: KIFKEQ_clean_linker_1, # of connection points: 2
#     Edge 44, Type (0, 0), BuildingBlock: KIFKEQ_clean_linker_1, # of connection points: 2
#     Edge 45, Type (0, 0), BuildingBlock: KIFKEQ_clean_linker_1, # of connection points: 2
#     Edge 46, Type (0, 0), BuildingBlock: KIFKEQ_clean_linker_1, # of connection points: 2
#     Edge 47, Type (0, 0), BuildingBlock: KIFKEQ_clean_linker_1, # of connection points: 2
#     Edge 48, Type (0, 0), BuildingBlock: KIFKEQ_clean_linker_1, # of connection points: 2
#     Edge 49, Type (0, 0), BuildingBlock: KIFKEQ_clean_linker_1, # of connection points: 2
#     Edge 50, Type (0, 0), BuildingBlock: KIFKEQ_clean_linker_1, # of connection points: 2
#     Edge 51, Type (0, 0), BuildingBlock: KIFKEQ_clean_linker_1, # of connection points: 2
#     Edge 52, Type (0, 0), BuildingBlock: KIFKEQ_clean_linker_1, # of connection points: 2
#     Edge 53, Type (0, 0), BuildingBlock: KIFKEQ_clean_linker_1, # of connection points: 2
# Relax obj value: 0.108
# Max RMSD: 0.208
# Mean RMSD: 0.165
data_MOF--net-unn--node1-ICAMEG_clean_sbu_1--edge1-KIFKEQ_clean_linker_1
_symmetry_space_group_name_H-M    P1
_symmetry_Int_Tables_number       1
_symmetry_cell_setting            triclinic
loop_
_symmetry_equiv_pos_as_xyz
'x, y, z'
_cell_length_a     48.896624
_cell_length_b     48.706845
_cell_length_c     42.096227
_cell_angle_alpha  90.2622
_cell_angle_beta   90.40907
_cell_angle_gamma 120.0429
loop_
_atom_site_label
_atom_site_type_symbol
_atom_site_fract_x
_atom_site_fract_y
_atom_site_fract_z
_atom_type_partial_charge
Co0 Co 0.02609 0.70757 0.23671 0.0
Co1 Co 0.04188 0.78489 0.23891 0.0
O2 O 0.04055 0.74805 0.25758 0.0
C3 C 0.98484 0.6957 0.2908 0.0
O4 O 0.97855 0.71627 0.27768 0.0
C5 C 0.10724 0.80352 0.25679 0.0
O6 O 0.1013 0.77718 0.24231 0.0
O7 O 0.06004 0.77938 0.1992 0.0
O8 O 0.04984 0.7288 0.19738 0.0
H9 H 0.02507 0.84715 0.15381 0.0
H10 H 0.05706 0.72056 0.30037 0.0
O11 O 1.00225 0.68707 0.27642 0.0
H12 H 0.12282 0.69644 0.23026 0.0
H13 H 0.99731 0.59292 0.23455 0.0
H14 H 1.00308 0.68104 0.17207 0.0
H15 H 0.07485 0.69507 0.20943 0.0
H16 H 1.01658 0.64562 0.25921 0.0
O17 O 0.08602 0.81159 0.2574 0.0
H18 H 0.02248 0.79957 0.17724 0.0
H19 H 0.06633 0.85099 0.26199 0.0
H20 H 0.98391 0.62884 0.14638 0.0
H21 H 0.10463 0.72191 0.32224 0.0
H22 H 0.98095 0.58434 0.1777 0.0
H23 H 0.13795 0.70991 0.28707 0.0
O24 O 0.98854 0.70763 0.21856 0.0
H25 H 0.03058 0.78731 0.35728 0.0
H26 H 0.98848 0.79577 0.25325 0.0
H27 H 0.96296 0.79916 0.30232 0.0
H28 H 0.98396 0.79478 0.3548 0.0
H29 H 0.05538 0.7841 0.30765 0.0
H30 H 0.06964 0.89924 0.23941 0.0
H31 H 0.0488 0.89744 0.18499 0.0
O32 O 0.99819 0.758 0.21979 0.0
C33 C 0.0611 0.7565 0.18557 0.0
C34 C 0.03414 0.8482 0.17759 0.0
C35 C 0.0592 0.87745 0.22562 0.0
N36 N 0.04403 0.82249 0.22101 0.0
C37 C 0.03265 0.82132 0.19101 0.0
C38 C 0.05733 0.8501 0.23825 0.0
C39 C 0.04749 0.87642 0.19508 0.0
C40 C 0.07119 0.71489 0.28499 0.0
N41 N 0.06302 0.70745 0.25371 0.0
C42 C 0.0982 0.71586 0.29748 0.0
C43 C 0.11691 0.70917 0.27772 0.0
C44 C 0.10845 0.70164 0.24584 0.0
C45 C 0.08129 0.70093 0.23417 0.0
C46 C 0.99856 0.61214 0.22064 0.0
C47 C 1.00205 0.66184 0.18578 0.0
C48 C 1.00938 0.64199 0.23449 0.0
N49 N 1.01119 0.6664 0.217 0.0
C50 C 0.99108 0.63231 0.17114 0.0
C51 C 0.98939 0.60734 0.18874 0.0
C52 C 0.98069 0.72849 0.21277 0.0
C53 C 0.02132 0.78941 0.33457 0.0
C54 C 0.99787 0.79408 0.27602 0.0
C55 C 0.98332 0.79599 0.30371 0.0
C56 C 0.99512 0.79354 0.33315 0.0
N57 N 0.02354 0.79001 0.27761 0.0
C58 C 0.03534 0.78775 0.30638 0.0
Co59 Co 0.33127 0.33699 0.24783 0.0
Co60 Co 0.26993 0.25974 0.24282 0.0
O61 O 0.30545 0.29725 0.2255 0.0
C62 C 0.30307 0.35072 0.19325 0.0
O63 O 0.27576 0.33072 0.20569 0.0
C64 C 0.31646 0.24145 0.22282 0.0
O65 O 0.337 0.26692 0.23852 0.0
O66 O 0.29364 0.26358 0.28263 0.0
O67 O 0.33337 0.31434 0.28639 0.0
H68 H 0.19085 0.19442 0.32579 0.0
H69 H 0.34979 0.32577 0.18402 0.0
O70 O 0.32859 0.3589 0.20874 0.0
H71 H 0.43918 0.3482 0.25532 0.0
H72 H 0.41696 0.45149 0.25423 0.0
H73 H 0.33416 0.36122 0.31329 0.0
H74 H 0.39229 0.34865 0.27588 0.0
H75 H 0.3839 0.39967 0.22769 0.0
O76 O 0.28722 0.23355 0.22269 0.0
H77 H 0.23575 0.24284 0.304 0.0
H78 H 0.22833 0.19455 0.2173 0.0
H79 H 0.36681 0.41251 0.34083 0.0
H80 H 0.39635 0.32549 0.1624 0.0
H81 H 0.40857 0.45808 0.31124 0.0
H82 H 0.44144 0.33664 0.19817 0.0
O83 O 0.29352 0.33646 0.26569 0.0
H84 H 0.25619 0.26196 0.12461 0.0
H85 H 0.20567 0.24945 0.22864 0.0
H86 H 0.1767 0.2478 0.17976 0.0
H87 H 0.20204 0.25419 0.12729 0.0
H88 H 0.28427 0.26344 0.17405 0.0
H89 H 0.18347 0.1455 0.23822 0.0
H90 H 0.1644 0.1453 0.29281 0.0
O91 O 0.2531 0.28608 0.26324 0.0
C92 C 0.31732 0.28615 0.2971 0.0
C93 C 0.19889 0.19424 0.30194 0.0
C94 C 0.19477 0.16677 0.25281 0.0
N95 N 0.23448 0.22152 0.25937 0.0
C96 C 0.22424 0.2216 0.28945 0.0
C97 C 0.22022 0.19456 0.24112 0.0
C98 C 0.18408 0.16667 0.28343 0.0
C99 C 0.36948 0.33109 0.19967 0.0
N100 N 0.36844 0.33754 0.23113 0.0
C101 C 0.39573 0.33073 0.18731 0.0
C102 C 0.42099 0.33693 0.20741 0.0
C103 C 0.41972 0.34338 0.23948 0.0
C104 C 0.39309 0.34355 0.251 0.0
C105 C 0.39889 0.43179 0.26739 0.0
C106 C 0.35243 0.38089 0.30033 0.0
C107 C 0.38006 0.40244 0.25247 0.0
N108 N 0.35733 0.37743 0.26901 0.0
C109 C 0.37078 0.4099 0.31601 0.0
C110 C 0.39417 0.43547 0.29938 0.0
C111 C 0.26492 0.31541 0.2711 0.0
C112 C 0.24483 0.25897 0.14732 0.0
C113 C 0.21675 0.25205 0.20588 0.0
C114 C 0.20025 0.25111 0.17829 0.0
C115 C 0.21448 0.25467 0.14885 0.0
N116 N 0.24651 0.25626 0.20418 0.0
C117 C 0.26057 0.25966 0.1754 0.0
Co118 Co 0.73549 0.03775 0.24432 0.0
Co119 Co 0.79192 0.01523 0.23851 0.0
O120 O 0.76027 0.02008 0.26145 0.0
C121 C 0.76937 0.07647 0.29976 0.0
O122 O 0.79483 0.07838 0.28746 0.0
C123 C 0.74375 0.95114 0.25954 0.0
O124 O 0.72327 0.95786 0.24678 0.0
O125 O 0.76381 0.99735 0.20068 0.0
O126 O 0.72822 1.01375 0.20368 0.0
H127 H 0.85973 0.02466 0.14539 0.0
H128 H 0.7198 1.00623 0.30708 0.0
O129 O 0.74304 0.06202 0.28486 0.0
H130 H 0.62382 0.94606 0.24101 0.0
H131 H 0.6563 0.07471 0.25184 0.0
H132 H 0.7307 0.06335 0.18204 0.0
H133 H 0.67096 0.99249 0.21937 0.0
H134 H 0.68761 0.05136 0.27204 0.0
O135 O 0.77335 0.97103 0.25721 0.0
H136 H 0.81989 0.03168 0.17426 0.0
H137 H 0.83112 0.98623 0.25505 0.0
H138 H 0.69969 0.08659 0.16078 0.0
H139 H 0.67313 0.96014 0.32976 0.0
H140 H 0.66217 0.09238 0.19579 0.0
H141 H 0.62474 0.92963 0.29661 0.0
O142 O 0.77357 0.07418 0.22609 0.0
H143 H 0.81966 0.02558 0.35486 0.0
H144 H 0.85896 0.06598 0.24773 0.0
H145 H 0.89456 0.08946 0.2941 0.0
H146 H 0.87497 0.06914 0.34812 0.0
H147 H 0.78472 1.00315 0.30792 0.0
H148 H 0.87093 0.97848 0.22699 0.0
H149 H 0.88555 0.99788 0.17179 0.0
O150 O 0.81008 0.05932 0.21973 0.0
C151 C 0.74059 0.99942 0.18956 0.0
C152 C 0.85363 0.01618 0.16946 0.0
C153 C 0.85987 0.99021 0.21525 0.0
N154 N 0.82335 1.00953 0.21634 0.0
C155 C 0.83115 0.02016 0.18595 0.0
C156 C 0.83727 0.99458 0.23098 0.0
C157 C 0.86808 1.00112 0.18428 0.0
C158 C 0.69872 0.99328 0.2926 0.0
N159 N 0.69806 1.00211 0.26196 0.0
C160 C 0.67241 0.96713 0.30554 0.0
C161 C 0.64528 0.94999 0.28691 0.0
C162 C 0.64477 0.95917 0.2557 0.0
C163 C 0.67154 0.98543 0.24355 0.0
C164 C 0.67252 0.07224 0.23633 0.0
C165 C 0.71425 0.0656 0.19734 0.0
C166 C 0.69034 0.0591 0.24765 0.0
N167 N 0.71072 0.05575 0.22814 0.0
C168 C 0.69684 0.07886 0.18521 0.0
C169 C 0.67582 0.08214 0.20488 0.0
C170 C 0.80054 0.07945 0.21681 0.0
C171 C 0.82851 0.03451 0.33142 0.0
C172 C 0.85023 0.05712 0.27118 0.0
C173 C 0.87052 0.07044 0.29734 0.0
C174 C 0.85953 0.05901 0.32763 0.0
N175 N 0.81987 0.03307 0.27509 0.0
C176 C 0.80887 0.02183 0.30473 0.0
Co177 Co 0.02446 0.32014 0.74176 0.0
Co178 Co 0.04226 0.26004 0.7387 0.0
O179 O 0.0379 0.29259 0.76084 0.0
C180 C 0.9772 0.28225 0.78893 0.0
O181 O 0.97599 0.25783 0.77437 0.0
C182 C 0.10591 0.30622 0.76272 0.0
O183 O 0.10008 0.32768 0.751 0.0
O184 O 0.06287 0.28835 0.7022 0.0
O185 O 0.05365 0.32922 0.70533 0.0
H186 H 0.03553 0.19223 0.6453 0.0
H187 H 0.04611 0.32995 0.80912 0.0
O188 O 0.99472 0.31016 0.77821 0.0
H189 H 0.1184 0.4298 0.7551 0.0
H190 H 0.99107 0.40241 0.74608 0.0
H191 H 1.00983 0.33197 0.67638 0.0
H192 H 0.07481 0.38549 0.72548 0.0
H193 H 1.00904 0.36733 0.76856 0.0
O194 O 0.08509 0.2768 0.76003 0.0
H195 H 0.02898 0.23315 0.67331 0.0
H196 H 0.06703 0.21781 0.75793 0.0
H197 H 0.99213 0.36682 0.65286 0.0
H198 H 0.08922 0.37373 0.83969 0.0
H199 H 0.98262 0.40237 0.68781 0.0
H200 H 0.1258 0.42405 0.81264 0.0
O201 O 0.99059 0.28466 0.71672 0.0
H202 H 0.02365 0.23248 0.8544 0.0
H203 H 0.98958 0.19345 0.74478 0.0
H204 H 0.96199 0.1583 0.78977 0.0
H205 H 0.97903 0.1778 0.84504 0.0
H206 H 0.05047 0.26685 0.80874 0.0
H207 H 0.07421 0.17685 0.73079 0.0
H208 H 0.05829 0.16377 0.6741 0.0
O209 O 0.99986 0.24377 0.71679 0.0
C210 C 0.06571 0.31422 0.69186 0.0
C211 C 0.04244 0.19763 0.67004 0.0
C212 C 0.0642 0.18904 0.71801 0.0
N213 N 0.04735 0.22762 0.71727 0.0
C214 C 0.03868 0.2207 0.68604 0.0
C215 C 0.06013 0.21227 0.73323 0.0
C216 C 0.05525 0.1817 0.6862 0.0
C217 C 0.06172 0.3519 0.79725 0.0
N218 N 0.05782 0.35525 0.7656 0.0
C219 C 0.08618 0.37655 0.81466 0.0
C220 C 0.10672 0.40477 0.79945 0.0
C221 C 0.10259 0.408 0.76717 0.0
C222 C 0.07789 0.38283 0.75051 0.0
C223 C 0.99518 0.38707 0.7306 0.0
C224 C 1.00594 0.34752 0.69171 0.0
C225 C 1.00528 0.36712 0.7432 0.0
N226 N 1.01067 0.34781 0.72377 0.0
C227 C 0.99583 0.36713 0.67828 0.0
C228 C 0.99046 0.38704 0.6979 0.0
C229 C 0.98345 0.25655 0.70865 0.0
C230 C 1.01612 0.22366 0.83042 0.0
C231 C 0.99714 0.20206 0.76878 0.0
C232 C 0.98146 0.18205 0.79414 0.0
C233 C 0.99105 0.193 0.82516 0.0
N234 N 0.02175 0.23207 0.77414 0.0
C235 C 0.03128 0.24297 0.80447 0.0
Co236 Co 0.73842 0.70517 0.74471 0.0
Co237 Co 0.79208 0.7848 0.7364 0.0
O238 O 0.76309 0.74824 0.76086 0.0
C239 C 0.77902 0.70395 0.79514 0.0
O240 O 0.80224 0.72723 0.77983 0.0
C241 C 0.74361 0.79897 0.76049 0.0
O242 O 0.72299 0.77133 0.7483 0.0
O243 O 0.76123 0.77229 0.70072 0.0
O244 O 0.72649 0.7201 0.70567 0.0
H245 H 0.85152 0.84287 0.63918 0.0
H246 H 0.72744 0.72123 0.80975 0.0
O247 O 0.75098 0.69056 0.78373 0.0
H248 H 0.62563 0.68016 0.75296 0.0
H249 H 0.66428 0.58799 0.75658 0.0
H250 H 0.72899 0.67358 0.68192 0.0
H251 H 0.67153 0.68268 0.72618 0.0
H252 H 0.69545 0.6435 0.77531 0.0
O253 O 0.7732 0.80926 0.75718 0.0
H254 H 0.81516 0.79584 0.67013 0.0
H255 H 0.83021 0.85375 0.7515 0.0
H256 H 0.69801 0.61846 0.6621 0.0
H257 H 0.68211 0.71895 0.83749 0.0
H258 H 0.66536 0.57522 0.69956 0.0
H259 H 0.63078 0.6984 0.80902 0.0
O260 O 0.77531 0.70832 0.72211 0.0
H261 H 0.82705 0.80516 0.85087 0.0
H262 H 0.86039 0.80474 0.74066 0.0
H263 H 0.89911 0.81923 0.7845 0.0
H264 H 0.88252 0.81959 0.84006 0.0
H265 H 0.78904 0.79051 0.80639 0.0
H266 H 0.86657 0.90148 0.72139 0.0
H267 H 0.87751 0.89616 0.66484 0.0
O268 O 0.81067 0.76009 0.7156 0.0
C269 C 0.73733 0.74645 0.69114 0.0
C270 C 0.84703 0.84548 0.66383 0.0
C271 C 0.85544 0.87839 0.70996 0.0
N272 N 0.82081 0.82207 0.71262 0.0
C273 C 0.82655 0.81893 0.68149 0.0
C274 C 0.83479 0.85131 0.72687 0.0
C275 C 0.86158 0.87538 0.67824 0.0
C276 C 0.7051 0.71195 0.7973 0.0
N277 N 0.70208 0.70192 0.76644 0.0
C278 C 0.67955 0.71085 0.81309 0.0
C279 C 0.65076 0.69935 0.79709 0.0
C280 C 0.64786 0.68913 0.76563 0.0
C281 C 0.67394 0.69065 0.75057 0.0
C282 C 0.67836 0.60663 0.74001 0.0
C283 C 0.71466 0.65491 0.6983 0.0
C284 C 0.69609 0.63807 0.75049 0.0
N285 N 0.71377 0.66174 0.72966 0.0
C286 C 0.69725 0.62374 0.68697 0.0
C287 C 0.67897 0.59948 0.70801 0.0
C288 C 0.80154 0.73053 0.71178 0.0
C289 C 0.83461 0.80527 0.82675 0.0
C290 C 0.85299 0.80479 0.76479 0.0
C291 C 0.87503 0.81307 0.7895 0.0
C292 C 0.86571 0.81331 0.82067 0.0
N293 N 0.82256 0.79703 0.77094 0.0
C294 C 0.81322 0.7971 0.80145 0.0
Co295 Co 0.32323 0.99274 0.73807 0.0
Co296 Co 0.26893 0.01811 0.74253 0.0
O297 O 0.29912 1.01077 0.72001 0.0
C298 C 0.28457 0.94998 0.68697 0.0
O299 O 0.26068 0.94967 0.70122 0.0
C300 C 0.31842 0.08137 0.72033 0.0
O301 O 0.33864 0.07404 0.73261 0.0
O302 O 0.29797 0.03644 0.77961 0.0
O303 O 0.33347 0.0199 0.77686 0.0
H304 H 0.20518 0.01634 0.83637 0.0
H305 H 0.33667 0.01885 0.67277 0.0
O306 O 0.31219 0.96508 0.69934 0.0
H307 H 0.4361 0.08148 0.73322 0.0
H308 H 0.39829 0.95063 0.73124 0.0
H309 H 0.33043 0.97127 0.8019 0.0
H310 H 0.38923 0.03812 0.75887 0.0
H311 H 0.36755 0.9743 0.71027 0.0
O312 O 0.28872 0.06179 0.72252 0.0
H313 H 0.24289 1.00588 0.80764 0.0
H314 H 0.23128 0.04848 0.72471 0.0
H315 H 0.36093 0.94782 0.82394 0.0
H316 H 0.38301 0.06183 0.64615 0.0
H317 H 0.39517 0.93736 0.7885 0.0
H318 H 0.43315 0.09356 0.67645 0.0
O319 O 0.28569 0.9591 0.76 0.0
H320 H 0.23998 1.00411 0.62644 0.0
H321 H 0.20087 0.96942 0.73491 0.0
H322 H 0.16448 0.9453 0.68919 0.0
H323 H 0.18398 0.96274 0.63449 0.0
H324 H 0.27562 0.02735 0.6728 0.0
H325 H 0.1936 0.05962 0.75259 0.0
H326 H 0.18025 0.0434 0.80879 0.0
O327 O 0.24936 0.97456 0.76286 0.0
C328 C 0.32158 0.03493 0.79053 0.0
C329 C 0.2107 0.02341 0.81184 0.0
C330 C 0.20424 0.04774 0.76483 0.0
N331 N 0.239 0.02628 0.76447 0.0
C332 C 0.23195 0.01745 0.79543 0.0
C333 C 0.22562 0.04142 0.74919 0.0
C334 C 0.19676 0.03862 0.79637 0.0
C335 C 0.3585 0.03232 0.68603 0.0
N336 N 0.36032 0.02584 0.71728 0.0
C337 C 0.38462 0.05673 0.67086 0.0
C338 C 0.41273 0.07455 0.68789 0.0
C339 C 0.4144 0.06779 0.71975 0.0
C340 C 0.38778 0.04324 0.73415 0.0
C341 C 0.38351 0.95515 0.74694 0.0
C342 C 0.34546 0.96701 0.78639 0.0
C343 C 0.36603 0.96849 0.73519 0.0
N344 N 0.34747 0.97442 0.75492 0.0
C345 C 0.36259 0.95362 0.79898 0.0
C346 C 0.38176 0.94772 0.77907 0.0
C347 C 0.25888 0.9548 0.76866 0.0
C348 C 0.23116 0.99645 0.65017 0.0
C349 C 0.20953 0.97705 0.71117 0.0
C350 C 0.18881 0.96337 0.68538 0.0
C351 C 0.19975 0.97319 0.6547 0.0
N352 N 0.24027 0.99992 0.70653 0.0
C353 C 0.25121 1.00959 0.67651 0.0
Co354 Co 0.68404 0.04222 0.57898 0.0
Co355 Co 0.7078 0.1218 0.57586 0.0
O356 O 0.70165 0.08422 0.59763 0.0
C357 C 0.64242 0.03756 0.6305 0.0
O358 O 0.64147 0.06096 0.6163 0.0
C359 C 0.77086 0.13496 0.59673 0.0
O360 O 0.76262 0.10724 0.58399 0.0
O361 O 0.72521 0.11168 0.5383 0.0
O362 O 0.71033 0.0598 0.54003 0.0
H363 H 0.70239 0.1845 0.48398 0.0
H364 H 0.71166 0.05495 0.64415 0.0
O365 O 0.65741 0.02513 0.61792 0.0
H366 H 0.77373 0.01954 0.58212 0.0
H367 H 0.64368 0.92494 0.58386 0.0
H368 H 0.66175 1.01389 0.5148 0.0
H369 H 0.72939 0.02235 0.5572 0.0
H370 H 0.66702 0.97929 0.60571 0.0
O371 O 0.75171 0.14568 0.59549 0.0
H372 H 0.69346 0.13609 0.51142 0.0
H373 H 0.73793 0.18975 0.59492 0.0
H374 H 0.6386 0.96 0.49189 0.0
H375 H 0.75564 0.05227 0.67006 0.0
H376 H 0.62944 0.91508 0.52653 0.0
H377 H 0.78711 0.03459 0.63895 0.0
O378 O 0.64973 0.04582 0.55769 0.0
H379 H 0.69624 0.13527 0.69255 0.0
H380 H 0.65868 0.14014 0.58481 0.0
H381 H 0.6352 0.15137 0.63126 0.0
H382 H 0.65404 0.14902 0.68559 0.0
H383 H 0.7189 0.12402 0.64548 0.0
H384 H 0.74759 0.23883 0.56832 0.0
H385 H 0.72964 0.23634 0.51248 0.0
O386 O 0.66428 0.09761 0.5555 0.0
C387 C 0.72424 0.08697 0.52675 0.0
C388 C 0.71021 0.18587 0.50835 0.0
C389 C 0.73562 0.21637 0.55568 0.0
N390 N 0.7149 0.16009 0.55481 0.0
C391 C 0.70511 0.15853 0.52405 0.0
C392 C 0.73014 0.18853 0.57059 0.0
C393 C 0.72553 0.21496 0.52435 0.0
C394 C 0.725 0.04687 0.63055 0.0
N395 N 0.71783 0.03861 0.59925 0.0
C396 C 0.74998 0.04555 0.64531 0.0
C397 C 0.76765 0.03567 0.62783 0.0
C398 C 0.76017 0.02724 0.59594 0.0
C399 C 0.73506 0.0289 0.58195 0.0
C400 C 0.64763 0.94433 0.56852 0.0
C401 C 0.65802 0.99449 0.52996 0.0
C402 C 0.66077 0.97512 0.58076 0.0
N403 N 0.66598 0.99973 0.56147 0.0
C404 C 0.64482 0.96402 0.51688 0.0
C405 C 0.63965 0.93882 0.53634 0.0
C406 C 0.64485 0.0682 0.54952 0.0
C407 C 0.68796 0.13655 0.66899 0.0
C408 C 0.66698 0.13908 0.60839 0.0
C409 C 0.65364 0.1455 0.63459 0.0
C410 C 0.66425 0.14421 0.66507 0.0
N411 N 0.6903 0.1317 0.61244 0.0
C412 C 0.70078 0.13031 0.64224 0.0
Co413 Co 1.00544 0.67683 0.58131 0.0
Co414 Co 0.94473 0.5992 0.57903 0.0
O415 O 0.97933 0.63641 0.56026 0.0
C416 C 0.97514 0.68851 0.52736 0.0
O417 O 0.94837 0.6685 0.54071 0.0
C418 C 0.99046 0.57999 0.55791 0.0
O419 O 1.01155 0.60493 0.57391 0.0
O420 O 0.97016 0.6042 0.61805 0.0
O421 O 1.00918 0.65541 0.61992 0.0
H422 H 0.86944 0.53536 0.6653 0.0
H423 H 0.02179 0.66361 0.51729 0.0
O424 O 1.00119 0.69751 0.5421 0.0
H425 H 0.11393 0.68917 0.5857 0.0
H426 H 0.09044 0.79174 0.58389 0.0
H427 H 1.0103 0.70268 0.64638 0.0
H428 H 0.06781 0.6904 0.60736 0.0
H429 H 0.05689 0.7392 0.55891 0.0
O430 O 0.96146 0.57292 0.55809 0.0
H431 H 0.91315 0.58344 0.64158 0.0
H432 H 0.90255 0.53338 0.55531 0.0
H433 H 0.04348 0.75472 0.67238 0.0
H434 H 0.06748 0.66235 0.4946 0.0
H435 H 0.0839 0.79969 0.64106 0.0
H436 H 0.11394 0.67506 0.52892 0.0
O437 O 0.96803 0.6764 0.60024 0.0
H438 H 0.92624 0.59849 0.46136 0.0
H439 H 0.87968 0.58782 0.5673 0.0
H440 H 0.84866 0.58467 0.51954 0.0
H441 H 0.87198 0.5901 0.4661 0.0
H442 H 0.95642 0.60155 0.50971 0.0
H443 H 0.85885 0.48466 0.57814 0.0
H444 H 0.84198 0.48551 0.63349 0.0
O445 O 0.92828 0.62564 0.59986 0.0
C446 C 0.99419 0.62748 0.63139 0.0
C447 C 0.87652 0.53471 0.64113 0.0
C448 C 0.87061 0.50624 0.59222 0.0
N449 N 0.91022 0.56121 0.59707 0.0
C450 C 0.90119 0.56187 0.62756 0.0
C451 C 0.8954 0.53386 0.57945 0.0
C452 C 0.86114 0.50674 0.62328 0.0
C453 C 0.04205 0.66954 0.53231 0.0
N454 N 0.0422 0.67728 0.56359 0.0
C455 C 0.0678 0.66863 0.51935 0.0
C456 C 0.09384 0.67572 0.53864 0.0
C457 C 0.09384 0.68362 0.5705 0.0
C458 C 0.06765 0.68423 0.58265 0.0
C459 C 0.07295 0.77232 0.59779 0.0
C460 C 0.02798 0.72209 0.63266 0.0
C461 C 0.05384 0.74255 0.58376 0.0
N462 N 0.03185 0.71789 0.60124 0.0
C463 C 0.04663 0.75152 0.64748 0.0
C464 C 0.06927 0.77676 0.62988 0.0
C465 C 0.93978 0.65513 0.60678 0.0
C466 C 0.91575 0.59592 0.4845 0.0
C467 C 0.88992 0.59006 0.54412 0.0
C468 C 0.87225 0.58826 0.51716 0.0
C469 C 0.88534 0.59128 0.48718 0.0
N470 N 0.91973 0.59462 0.5413 0.0
C471 C 0.93269 0.5975 0.51197 0.0
Co472 Co 0.38017 0.33513 0.57772 0.0
Co473 Co 0.45793 0.35284 0.57896 0.0
O474 O 0.42086 0.34949 0.55807 0.0
C475 C 0.36889 0.29152 0.52477 0.0
O476 O 0.39225 0.28872 0.53663 0.0
C477 C 0.47647 0.41789 0.55794 0.0
O478 O 0.45039 0.41302 0.57156 0.0
O479 O 0.45159 0.3729 0.61733 0.0
O480 O 0.40092 0.36161 0.61622 0.0
H481 H 0.52005 0.34239 0.66897 0.0
H482 H 0.39232 0.36204 0.51278 0.0
O483 O 0.35947 0.30833 0.53914 0.0
H484 H 0.3665 0.4309 0.57682 0.0
H485 H 0.26525 0.3038 0.57648 0.0
H486 H 0.35434 0.31574 0.64252 0.0
H487 H 0.36619 0.38466 0.60087 0.0
H488 H 0.31776 0.32278 0.55303 0.0
O489 O 0.48414 0.39632 0.55905 0.0
H490 H 0.47241 0.33714 0.64263 0.0
H491 H 0.52434 0.37778 0.55862 0.0
H492 H 0.30232 0.29694 0.667 0.0
H493 H 0.39268 0.40788 0.48772 0.0
H494 H 0.25732 0.29085 0.63389 0.0
H495 H 0.37981 0.44275 0.51983 0.0
O496 O 0.38118 0.29898 0.59818 0.0
H497 H 0.46519 0.33762 0.46179 0.0
H498 H 0.47039 0.29955 0.56878 0.0
H499 H 0.4771 0.27319 0.52172 0.0
H500 H 0.47459 0.29229 0.46775 0.0
H501 H 0.4583 0.36306 0.50946 0.0
H502 H 0.57263 0.38369 0.58411 0.0
H503 H 0.57063 0.36582 0.63965 0.0
O504 O 0.43162 0.30959 0.59912 0.0
C505 C 0.4283 0.3742 0.62916 0.0
C506 C 0.52121 0.35017 0.64473 0.0
C507 C 0.55073 0.3734 0.59711 0.0
N508 N 0.49558 0.35695 0.59907 0.0
C509 C 0.49429 0.34717 0.62966 0.0
C510 C 0.52334 0.37007 0.58283 0.0
C511 C 0.54958 0.36335 0.62828 0.0
C512 C 0.38638 0.37691 0.52684 0.0
N513 N 0.37908 0.37059 0.55822 0.0
C514 C 0.38675 0.40291 0.51255 0.0
C515 C 0.37958 0.4225 0.53059 0.0
C516 C 0.37212 0.41587 0.56257 0.0
C517 C 0.37203 0.38969 0.57608 0.0
C518 C 0.28468 0.3064 0.59116 0.0
C519 C 0.33492 0.31335 0.62801 0.0
C520 C 0.31444 0.31706 0.578 0.0
N521 N 0.33911 0.32056 0.59645 0.0
C522 C 0.3055 0.3026 0.64198 0.0
C523 C 0.28025 0.29916 0.62338 0.0
C524 C 0.40222 0.29188 0.6056 0.0
C525 C 0.4665 0.32919 0.48518 0.0
C526 C 0.46921 0.30793 0.54537 0.0
C527 C 0.47309 0.29297 0.51881 0.0
C528 C 0.47171 0.30372 0.48854 0.0
N529 N 0.46418 0.33295 0.54187 0.0
C530 C 0.46272 0.34357 0.51227 0.0
Co531 Co 0.72679 0.67297 0.07711 0.0
Co532 Co 0.70307 0.59352 0.08349 0.0
O533 O 0.7096 0.63036 0.0599 0.0
C534 C 0.76931 0.67657 0.02696 0.0
O535 O 0.77016 0.65344 0.04187 0.0
C536 C 0.64059 0.57902 0.05898 0.0
O537 O 0.64791 0.60704 0.07029 0.0
O538 O 0.6845 0.6047 0.11954 0.0
O539 O 0.70003 0.65661 0.11575 0.0
H540 H 0.70663 0.53452 0.17956 0.0
H541 H 0.70039 0.65821 0.01144 0.0
O542 O 0.75403 0.68907 0.03862 0.0
H543 H 0.63681 0.69495 0.06871 0.0
H544 H 0.76644 0.78985 0.06766 0.0
H545 H 0.74831 0.70352 0.14058 0.0
H546 H 0.68071 0.693 0.09582 0.0
H547 H 0.74366 0.73487 0.0478 0.0
O548 O 0.65973 0.5686 0.06296 0.0
H549 H 0.71597 0.58177 0.14947 0.0
H550 H 0.67386 0.52495 0.06709 0.0
H551 H 0.77088 0.75807 0.16153 0.0
H552 H 0.65687 0.65998 0.98338 0.0
H553 H 0.78009 0.8017 0.12494 0.0
H554 H 0.62467 0.67836 0.01208 0.0
O555 O 0.76084 0.67028 0.10013 0.0
H556 H 0.71729 0.57619 0.96841 0.0
H557 H 0.75236 0.57489 0.07825 0.0
H558 H 0.77684 0.5621 0.03381 0.0
H559 H 0.75922 0.5626 0.97843 0.0
H560 H 0.6937 0.58915 0.01351 0.0
H561 H 0.66384 0.47703 0.09632 0.0
H562 H 0.68039 0.48169 0.15294 0.0
O563 O 0.74627 0.61861 0.10428 0.0
C564 C 0.68551 0.62989 0.12976 0.0
C565 C 0.69943 0.53221 0.15486 0.0
C566 C 0.67537 0.49993 0.10815 0.0
N567 N 0.69575 0.55612 0.10651 0.0
C568 C 0.70475 0.55888 0.13769 0.0
C569 C 0.68105 0.52711 0.09174 0.0
C570 C 0.68467 0.50256 0.13992 0.0
C571 C 0.68673 0.66658 0.024 0.0
N572 N 0.69323 0.67572 0.05517 0.0
C573 C 0.66202 0.6674 0.00802 0.0
C574 C 0.64393 0.67766 0.02415 0.0
C575 C 0.65071 0.68695 0.05593 0.0
C576 C 0.67557 0.68577 0.07117 0.0
C577 C 0.76246 0.77104 0.08385 0.0
C578 C 0.75201 0.72233 0.12458 0.0
C579 C 0.74962 0.73988 0.07274 0.0
N580 N 0.74437 0.71599 0.09309 0.0
C581 C 0.76491 0.7532 0.13655 0.0
C582 C 0.7701 0.77767 0.116 0.0
C583 C 0.76555 0.64816 0.10966 0.0
C584 C 0.72504 0.57572 0.99245 0.0
C585 C 0.74464 0.57524 0.0542 0.0
C586 C 0.75853 0.56791 0.02915 0.0
C587 C 0.74861 0.56815 -0.00192 0.0
N588 N 0.72148 0.58254 0.04848 0.0
C589 C 0.7117 0.58294 0.01809 0.0
Co590 Co 0.37689 0.05004 0.07927 0.0
Co591 Co 0.4547 0.10992 0.07853 0.0
O592 O 0.41753 0.07465 0.05931 0.0
C593 C 0.36555 0.07671 0.02204 0.0
O594 O 0.38667 0.10454 0.03346 0.0
C595 C 0.47302 0.06233 0.06129 0.0
O596 O 0.44768 0.04221 0.07675 0.0
O597 O 0.44902 0.08618 0.11844 0.0
O598 O 0.39743 0.04862 0.11981 0.0
H599 H 0.51836 0.18911 0.16418 0.0
H600 H 0.39029 0.02909 0.01782 0.0
O601 O 0.35679 0.05181 0.03848 0.0
H602 H 0.36348 0.94126 0.09191 0.0
H603 H 0.26217 0.96539 0.08045 0.0
H604 H 0.3503 0.05008 0.14237 0.0
H605 H 0.36248 0.98913 0.10952 0.0
H606 H 0.31488 0.99702 0.05669 0.0
O607 O 0.48055 0.09157 0.0601 0.0
H608 H 0.47032 0.1446 0.14019 0.0
H609 H 0.52059 0.15036 0.05633 0.0
H610 H 0.29807 0.01889 0.16717 0.0
H611 H 0.39131 0.98158 -0.00087 0.0
H612 H 0.25356 0.97619 0.13613 0.0
H613 H 0.37799 0.93729 0.03634 0.0
O614 O 0.37754 0.08897 0.09468 0.0
H615 H 0.45751 0.1239 0.96016 0.0
H616 H 0.46661 0.1748 0.06428 0.0
H617 H 0.47086 0.20418 0.01524 0.0
H618 H 0.46621 0.17867 0.96271 0.0
H619 H 0.45338 0.09539 0.00976 0.0
H620 H 0.56929 0.19482 0.07947 0.0
H621 H 0.56831 0.21453 0.13374 0.0
O622 O 0.42862 0.12772 0.09735 0.0
C623 C 0.42517 0.06358 0.13201 0.0
C624 C 0.51907 0.18079 0.14049 0.0
C625 C 0.54766 0.18396 0.09296 0.0
N626 N 0.49265 0.14504 0.09686 0.0
C627 C 0.49193 0.15565 0.12676 0.0
C628 C 0.52006 0.15874 0.08001 0.0
C629 C 0.5471 0.19502 0.1234 0.0
C630 C 0.38412 1.00979 0.03407 0.0
N631 N 0.37622 1.01184 0.06472 0.0
C632 C 0.38488 0.98299 0.02338 0.0
C633 C 0.37745 0.95818 0.04428 0.0
C634 C 0.36933 0.9604 0.07547 0.0
C635 C 0.36887 0.98758 0.08534 0.0
C636 C 0.28139 0.98389 0.09424 0.0
C637 C 0.33109 0.0314 0.1288 0.0
C638 C 0.31125 1.00191 0.08089 0.0
N639 N 0.33566 0.02517 0.09824 0.0
C640 C 0.30155 1.01389 0.14293 0.0
C641 C 0.27658 0.98996 0.12548 0.0
C642 C 0.39907 0.11715 0.10188 0.0
C643 C 0.45971 0.13532 0.9829 0.0
C644 C 0.46471 0.16361 0.0415 0.0
C645 C 0.46713 0.18036 0.01382 0.0
C646 C 0.46454 0.16603 0.98435 0.0
N647 N 0.45999 0.13351 0.03988 0.0
C648 C 0.45753 0.11935 0.01107 0.0
Co649 Co 0.99441 0.32898 0.07116 0.0
Co650 Co 0.94195 0.35558 0.08442 0.0
O651 O 0.96971 0.34808 0.05764 0.0
C652 C 0.95313 0.28925 0.01959 0.0
O653 O 0.92999 0.28899 0.03543 0.0
C654 C 0.99002 0.41819 0.06 0.0
O655 O 1.01062 0.41013 0.06952 0.0
O656 O 0.97402 0.37313 0.11915 0.0
O657 O 1.00717 0.35431 0.11139 0.0
H658 H 0.88677 0.3531 0.18548 0.0
H659 H 1.00451 0.35813 0.00737 0.0
O660 O 0.9811 0.30316 0.03114 0.0
H661 H 0.1073 0.41715 0.06303 0.0
H662 H 0.0678 0.28634 0.0523 0.0
H663 H 1.00463 0.30428 0.13176 0.0
H664 H 0.06164 0.37293 0.0893 0.0
H665 H 0.0366 0.31141 0.03701 0.0
O666 O 0.96059 0.39954 0.0652 0.0
H667 H 0.9214 0.3425 0.15144 0.0
H668 H 0.90399 0.38712 0.07371 0.0
H669 H 0.03566 0.27939 0.14816 0.0
H670 H 0.04958 0.40202 0.98015 0.0
H671 H 0.06755 0.27027 0.10827 0.0
H672 H 0.1014 0.43193 0.00806 0.0
O673 O 0.95785 0.29458 0.09348 0.0
H674 H 0.90286 0.34433 0.9717 0.0
H675 H 0.8734 0.30743 0.08168 0.0
H676 H 0.83301 0.28463 0.03906 0.0
H677 H 0.84764 0.30322 0.98363 0.0
H678 H 0.9426 0.36607 0.01492 0.0
H679 H 0.86934 0.39841 0.10694 0.0
H680 H 0.86046 0.38124 0.16323 0.0
O681 O 0.92362 0.31165 0.10378 0.0
C682 C 0.99742 0.36997 0.12745 0.0
C683 C 0.89035 0.36058 0.16096 0.0
C684 C 0.8806 0.38606 0.11689 0.0
N685 N 0.91443 0.36392 0.11058 0.0
C686 C 0.90984 0.35455 0.14155 0.0
C687 C 0.90028 0.37966 0.09821 0.0
C688 C 0.87563 0.37641 0.14847 0.0
C689 C 0.02708 0.37078 0.01954 0.0
N690 N 0.0305 0.36283 0.04981 0.0
C691 C 0.05248 0.39571 0.00406 0.0
C692 C 0.08153 0.41252 0.01975 0.0
C693 C 0.08485 0.40425 0.0506 0.0
C694 C 0.05891 0.37922 0.06537 0.0
C695 C 0.05407 0.29026 0.06991 0.0
C696 C 0.01863 0.30061 0.11433 0.0
C697 C 0.03632 0.30438 0.06138 0.0
N698 N 0.01907 0.30956 0.08354 0.0
C699 C 0.03607 0.2864 0.12372 0.0
C700 C 0.05392 0.28126 0.10132 0.0
C701 C 0.93243 0.29087 0.1057 0.0
C702 C 0.89616 0.33617 -0.00422 0.0
C703 C 0.87997 0.31549 0.05759 0.0
C704 C 0.85698 0.30258 0.03357 0.0
C705 C 0.86519 0.31305 0.00248 0.0
N706 N 0.91027 0.33821 0.05083 0.0
C707 C 0.91854 0.34847 0.02038 0.0
Co708 Co 0.35915 0.36175 0.90494 0.0
Co709 Co 0.37747 0.43978 0.90198 0.0
O710 O 0.37403 0.40327 0.92353 0.0
C711 C 0.31648 0.35356 0.95678 0.0
O712 O 0.31099 0.3737 0.94146 0.0
C713 C 0.44176 0.45833 0.92435 0.0
O714 O 0.43705 0.43227 0.91016 0.0
O715 O 0.39733 0.43208 0.86448 0.0
O716 O 0.38477 0.38076 0.86612 0.0
H717 H 0.36781 0.50014 0.81024 0.0
H718 H 0.38776 0.3772 0.96978 0.0
O719 O 0.33356 0.34351 0.94423 0.0
H720 H 0.45387 0.34695 0.90765 0.0
H721 H 0.32673 0.24623 0.91005 0.0
H722 H 0.33848 0.33279 0.84076 0.0
H723 H 0.40743 0.34595 0.88304 0.0
H724 H 0.34655 0.30016 0.93181 0.0
O725 O 0.42044 0.4662 0.92286 0.0
H726 H 0.36234 0.45288 0.83741 0.0
H727 H 0.40231 0.50691 0.9218 0.0
H728 H 0.31881 0.27932 0.81795 0.0
H729 H 0.4338 0.3783 -0.00463 0.0
H730 H 0.31283 0.23559 0.8527 0.0
H731 H 0.46729 0.36321 0.96423 0.0
O732 O 0.32299 0.36222 0.88356 0.0
H733 H 0.35977 0.44666 0.01851 0.0
H734 H 0.32484 0.45328 0.91005 0.0
H735 H 0.29721 0.45929 0.95605 0.0
H736 H 0.31459 0.45585 0.01075 0.0
H737 H 0.38671 0.44081 0.97187 0.0
H738 H 0.40843 0.55483 0.89551 0.0
H739 H 0.391 0.55157 0.83936 0.0
O740 O 0.3347 0.41317 0.88105 0.0
C741 C 0.39779 0.40799 0.853 0.0
C742 C 0.3754 0.50184 0.83475 0.0
C743 C 0.39824 0.53255 0.88259 0.0
N744 N 0.3818 0.47714 0.88119 0.0
C745 C 0.37228 0.47515 0.85027 0.0
C746 C 0.39479 0.50537 0.89733 0.0
C747 C 0.38845 0.5307 0.85108 0.0
C748 C 0.40198 0.37023 0.95615 0.0
N749 N 0.39475 0.36126 0.925 0.0
C750 C 0.42812 0.37106 0.97074 0.0
C751 C 0.44693 0.36263 0.95323 0.0
C752 C 0.43942 0.35352 0.92149 0.0
C753 C 0.41312 0.35302 0.90767 0.0
C754 C 0.32928 0.26509 0.89466 0.0
C755 C 0.33612 0.31392 0.85598 0.0
C756 C 0.34041 0.29564 0.90686 0.0
N757 N 0.34386 0.31959 0.88751 0.0
C758 C 0.32489 0.28368 0.84295 0.0
C759 C 0.3215 0.25915 0.86247 0.0
C760 C 0.31661 0.38354 0.87505 0.0
C761 C 0.35208 0.44836 -0.00521 0.0
C762 C 0.33264 0.45196 0.93378 0.0
C763 C 0.31691 0.45536 0.95974 0.0
C764 C 0.32669 0.45345 0.99042 0.0
N765 N 0.35749 0.44693 0.93826 0.0
C766 C 0.36732 0.44519 0.96828 0.0
Co767 Co 0.66501 1.00618 0.9138 0.0
Co768 Co 0.61004 0.92663 0.92042 0.0
O769 O 0.63973 0.96353 0.89673 0.0
C770 C 0.62548 1.00913 0.86316 0.0
O771 O 0.60167 0.98594 0.87796 0.0
C772 C 0.65865 0.91306 0.89583 0.0
O773 O 0.67897 0.94112 0.9074 0.0
O774 O 0.64005 0.9382 0.95674 0.0
O775 O 0.67629 0.99002 0.9523 0.0
H776 H 0.54802 0.86732 0.01603 0.0
H777 H 0.67591 0.99127 0.84819 0.0
O778 O 0.65321 0.02207 0.87528 0.0
H779 H 0.77732 0.02975 0.90507 0.0
H780 H 0.74069 0.12334 0.9044 0.0
H781 H 0.67506 0.03646 0.97743 0.0
H782 H 0.73159 0.02719 0.93229 0.0
H783 H 0.70876 0.06835 0.88445 0.0
O784 O 0.62902 0.90208 0.89991 0.0
H785 H 0.58526 0.91474 0.98608 0.0
H786 H 0.57188 0.85794 0.9042 0.0
H787 H 0.70679 0.09104 -0.00156 0.0
H788 H 0.72108 0.99368 0.82001 0.0
H789 H 0.73991 0.13493 0.96181 0.0
H790 H 0.77221 1.01293 0.84851 0.0
O791 O 0.62835 1.00318 0.9368 0.0
H792 H 0.57729 0.90783 0.8053 0.0
H793 H 0.54203 0.90749 0.91484 0.0
H794 H 0.50418 0.89372 0.87029 0.0
H795 H 0.52173 0.89369 0.81507 0.0
H796 H 0.61443 0.92185 0.85049 0.0
H797 H 0.53466 0.80984 0.93331 0.0
H798 H 0.52244 0.8144 0.98961 0.0
O799 O 0.59154 0.95151 0.94113 0.0
C800 C 0.66436 0.9635 0.96664 0.0
C801 C 0.55307 0.86504 0.99148 0.0
C802 C 0.54561 0.83277 0.94507 0.0
N803 N 0.58053 0.8891 0.94339 0.0
C804 C 0.57406 0.89181 0.97438 0.0
C805 C 0.56675 0.86006 0.92873 0.0
C806 C 0.53876 0.83535 0.97665 0.0
C807 C 0.69818 1.00001 0.86067 0.0
N808 N 0.70117 1.00928 0.8918 0.0
C809 C 0.72364 1.00119 0.84462 0.0
C810 C 0.75231 1.01195 0.86064 0.0
C811 C 0.75518 0.02136 0.89238 0.0
C812 C 0.7292 0.01982 0.90768 0.0
C813 C 0.7264 0.10441 0.9206 0.0
C814 C 0.68957 0.05541 0.96139 0.0
C815 C 0.70822 0.07326 0.90943 0.0
N816 N 0.69026 0.04923 0.9298 0.0
C817 C 0.70741 0.08627 0.9734 0.0
C818 C 0.72596 0.11089 0.95282 0.0
C819 C 0.60166 0.98111 0.94639 0.0
C820 C 0.56931 0.90756 0.82928 0.0
C821 C 0.54985 0.90765 0.89086 0.0
C822 C 0.5283 0.89975 0.86574 0.0
C823 C 0.53815 0.8997 0.83477 0.0
N824 N 0.58033 0.91521 0.88529 0.0
C825 C 0.59021 0.91539 0.85497 0.0
Co826 Co 0.05693 0.70162 0.90552 0.0
Co827 Co 0.11452 0.68054 0.9023 0.0
O828 O 0.08291 0.6861 0.92434 0.0
C829 C 0.09316 0.74591 0.95668 0.0
O830 O 0.11807 0.74742 0.94346 0.0
C831 C 0.06791 0.61701 0.92637 0.0
O832 O 0.04657 0.62203 0.91286 0.0
O833 O 0.0856 0.65976 0.86548 0.0
O834 O 0.04843 0.67415 0.86725 0.0
H835 H 0.18045 0.68488 0.8094 0.0
H836 H 0.04434 0.67597 0.97096 0.0
O837 O 0.06594 0.72942 0.94379 0.0
H838 H 0.94617 0.60871 0.91022 0.0
H839 H 0.97668 0.73739 0.90956 0.0
H840 H 0.04876 0.72098 0.84104 0.0
H841 H 0.99183 0.65345 0.88455 0.0
H842 H 1.00966 0.7168 0.93186 0.0
O843 O 0.09723 0.63779 0.92386 0.0
H844 H 0.14063 0.69277 0.83722 0.0
H845 H 0.15544 0.65423 0.92153 0.0
H846 H 1.01604 0.74137 0.81769 0.0
H847 H 0.99919 0.63163 -0.00238 0.0
H848 H 0.97968 0.74969 0.85205 0.0
H849 H 0.94969 0.59757 0.96716 0.0
O850 O 0.09377 0.73659 0.88396 0.0
H851 H 0.1443 0.69942 0.01816 0.0
H852 H 0.18142 0.73253 0.90886 0.0
H853 H 0.21765 0.75968 0.95404 0.0
H854 H 0.19915 0.74306 0.00916 0.0
H855 H 0.10876 0.67318 0.97233 0.0
H856 H 0.19527 0.64568 0.89458 0.0
H857 H 0.20808 0.66118 0.83814 0.0
O858 O 0.13157 0.72321 0.88071 0.0
C859 C 0.06123 0.65966 0.85429 0.0
C860 C 0.17515 0.67812 0.83402 0.0
C861 C 0.18343 0.65607 0.88182 0.0
N862 N 0.14593 0.67418 0.881 0.0
C863 C 0.1527 0.68262 0.84992 0.0
C864 C 0.16082 0.6609 0.89693 0.0
C865 C 0.19062 0.66479 0.85016 0.0
C866 C 0.02278 0.66146 0.95762 0.0
N867 N 0.02067 0.66739 0.92627 0.0
C868 C 0.99733 0.6363 0.97282 0.0
C869 C 0.96959 0.61717 0.9557 0.0
C870 C 0.9676 0.62339 0.92375 0.0
C871 C 0.99354 0.64872 0.90932 0.0
C872 C 0.99238 0.73379 0.89433 0.0
C873 C 0.03283 0.72434 0.85608 0.0
C874 C 1.01114 0.72221 0.90683 0.0
N875 N 0.03088 0.71745 0.88769 0.0
C876 C 1.01444 0.73598 0.84276 0.0
C877 C 0.99407 0.74068 0.86206 0.0
C878 C 0.12102 0.74219 0.87531 0.0
C879 C 0.15269 0.70675 -0.00575 0.0
C880 C 0.17319 0.72523 0.93278 0.0
C881 C 0.19382 0.74064 0.95826 0.0
C882 C 0.18344 0.73128 0.98918 0.0
N883 N 0.14309 0.70114 0.93794 0.0
C884 C 0.13271 0.69191 0.96819 0.0
Co885 Co 0.35385 0.99412 0.40933 0.0
Co886 Co 0.38 0.94101 0.39711 0.0
O887 O 0.37207 0.96889 0.42364 0.0
C888 C 0.31116 0.95052 0.45669 0.0
O889 O 0.31229 0.92834 0.43999 0.0
C890 C 0.44161 0.98967 0.42318 0.0
O891 O 0.43299 1.00996 0.41412 0.0
O892 O 0.39778 0.97299 0.36317 0.0
O893 O 0.38141 1.00824 0.37104 0.0
H894 H 0.37907 0.88523 0.29606 0.0
H895 H 0.3793 1.00221 0.47509 0.0
O896 O 0.32581 0.97924 0.44738 0.0
H897 H 0.44097 0.10706 0.42541 0.0
H898 H 0.31009 0.06698 0.42661 0.0
H899 H 0.33284 1.0064 0.34736 0.0
H900 H 0.39841 0.06214 0.39543 0.0
H901 H 0.3342 0.03518 0.44301 0.0
O902 O 0.42345 0.96003 0.41753 0.0
H903 H 0.36797 0.92009 0.32963 0.0
H904 H 0.41147 0.90317 0.40895 0.0
H905 H 0.30896 0.03807 0.32987 0.0
H906 H 0.4215 0.04651 0.50597 0.0
H907 H 0.29744 0.06865 0.36964 0.0
H908 H 0.45275 0.09937 0.48108 0.0
O909 O 0.32081 0.95813 0.38428 0.0
H910 H 0.36625 0.90264 0.50965 0.0
H911 H 0.3323 0.87211 0.39822 0.0
H912 H 0.30852 0.83192 0.44021 0.0
H913 H 0.32555 0.84711 0.49638 0.0
H914 H 0.38923 0.94209 0.46697 0.0
H915 H 0.42329 0.8683 0.37619 0.0
H916 H 0.40693 0.85906 0.31935 0.0
O917 O 0.3368 0.92256 0.37624 0.0
C918 C 0.39643 0.99754 0.35536 0.0
C919 C 0.3862 0.88896 0.32083 0.0
C920 C 0.41107 0.87951 0.36579 0.0
N921 N 0.38879 0.91338 0.37126 0.0
C922 C 0.37987 0.90858 0.33998 0.0
C923 C 0.40437 0.89931 0.38421 0.0
C924 C 0.40187 0.87432 0.3339 0.0
C925 C 0.39255 0.02522 0.4642 0.0
N926 N 0.38627 0.02964 0.43356 0.0
C927 C 0.41652 0.05019 0.48177 0.0
C928 C 0.43407 0.07983 0.46777 0.0
C929 C 0.42749 0.08415 0.43652 0.0
C930 C 0.40339 0.05863 0.41966 0.0
C931 C 0.31506 0.05381 0.40905 0.0
C932 C 0.32809 0.01982 0.36477 0.0
C933 C 0.32866 0.03574 0.4182 0.0
N934 N 0.33517 0.01922 0.39612 0.0
C935 C 0.31448 0.03763 0.35474 0.0
C936 C 0.30798 0.05475 0.37708 0.0
C937 C 0.31677 0.93207 0.3728 0.0
C938 C 0.35877 0.89569 0.48525 0.0
C939 C 0.33981 0.87888 0.42262 0.0
C940 C 0.3263 0.85602 0.44628 0.0
C941 C 0.33589 0.86455 0.47779 0.0
N942 N 0.3623 0.90934 0.43012 0.0
C943 C 0.37178 0.9179 0.46096 0.0
Co944 Co 0.06639 0.36711 0.41145 0.0
Co945 Co 0.11875 0.44666 0.40021 0.0
O946 O 0.08988 0.41093 0.4259 0.0
C947 C 0.10387 0.36799 0.46616 0.0
O948 O 0.12801 0.39183 0.45238 0.0
C949 C 0.07011 0.46103 0.42287 0.0
O950 O 0.0497 0.43264 0.41205 0.0
O951 O 0.08792 0.43259 0.36439 0.0
O952 O 0.05652 0.37989 0.36994 0.0
H953 H 0.17766 0.50091 0.30139 0.0
H954 H 0.05136 0.38509 0.47363 0.0
O955 O 0.07677 0.35417 0.45265 0.0
H956 H 0.95297 0.34118 0.41017 0.0
H957 H 0.99182 0.25039 0.42631 0.0
H958 H 0.0617 0.33293 0.35131 0.0
H959 H 1.0006 0.34341 0.38798 0.0
H960 H 0.02148 0.30664 0.44299 0.0
O961 O 0.09969 0.47175 0.419 0.0
H962 H 0.14156 0.45512 0.33393 0.0
H963 H 0.15672 0.51617 0.41262 0.0
H964 H 0.0323 0.27703 0.33354 0.0
H965 H 1.00423 0.38311 0.49681 0.0
H966 H 0.99704 0.23531 0.37118 0.0
H967 H 0.95462 0.36113 0.46497 0.0
O968 O 0.10468 0.37001 0.39264 0.0
H969 H 0.15376 0.47201 0.51439 0.0
H970 H 0.18711 0.46699 0.40525 0.0
H971 H 0.22583 0.48333 0.44932 0.0
H972 H 0.20923 0.48598 0.50434 0.0
H973 H 0.11573 0.45543 0.46971 0.0
H974 H 0.19283 0.56269 0.38088 0.0
H975 H 0.20359 0.55517 0.32487 0.0
O976 O 0.1376 0.42138 0.38126 0.0
C977 C 0.066 0.40559 0.35459 0.0
C978 C 0.17326 0.50448 0.3258 0.0
C979 C 0.18173 0.53916 0.3704 0.0
N980 N 0.14731 0.48298 0.3752 0.0
C981 C 0.15293 0.47864 0.34436 0.0
C982 C 0.16124 0.51276 0.38824 0.0
C983 C 0.18777 0.53492 0.33898 0.0
C984 C 0.02975 0.37516 0.45975 0.0
N985 N 0.02867 0.36419 0.42956 0.0
C986 C 1.00318 0.37423 0.47296 0.0
C987 C 0.97537 0.36194 0.45505 0.0
C988 C 0.97444 0.35077 0.4243 0.0
C989 C 1.00149 0.35213 0.41184 0.0
C990 C 1.00702 0.26836 0.40966 0.0
C991 C 0.0462 0.31493 0.36773 0.0
C992 C 0.02389 0.30022 0.41898 0.0
N993 N 0.04297 0.32305 0.39801 0.0
C994 C 0.02971 0.28331 0.35758 0.0
C995 C 1.00996 0.25992 0.37872 0.0
C996 C 0.13002 0.39203 0.38062 0.0
C997 C 0.16132 0.4711 0.4905 0.0
C998 C 0.1797 0.46802 0.42914 0.0
C999 C 0.20174 0.47735 0.45399 0.0
C1000 C 0.19242 0.47887 0.48485 0.0
N1001 N 0.14925 0.46047 0.43488 0.0
C1002 C 0.13992 0.46185 0.46508 0.0
Co1003 Co 0.67435 0.67052 0.4173 0.0
Co1004 Co 0.61434 0.68814 0.41599 0.0
O1005 O 0.64885 0.68556 0.39685 0.0
C1006 C 0.64584 0.63048 0.36102 0.0
O1007 O 0.61841 0.62389 0.37265 0.0
C1008 C 0.6607 0.7535 0.39612 0.0
O1009 O 0.68142 0.7496 0.41248 0.0
O1010 O 0.63956 0.70802 0.45543 0.0
O1011 O 0.67745 0.69446 0.45688 0.0
H1012 H 0.53861 0.67585 0.50226 0.0
H1013 H 0.69224 0.70229 0.35462 0.0
O1014 O 0.67106 0.64681 0.37732 0.0
H1015 H 0.78315 0.76648 0.42576 0.0
H1016 H 0.7588 0.64026 0.41923 0.0
H1017 H 0.67732 0.64713 0.48145 0.0
H1018 H 0.73639 0.71833 0.44538 0.0
H1019 H 0.72623 0.66033 0.39483 0.0
O1020 O 0.63164 0.73152 0.39579 0.0
H1021 H 0.58214 0.67142 0.47825 0.0
H1022 H 0.57298 0.71267 0.3931 0.0
H1023 H 0.7095 0.62715 0.50687 0.0
H1024 H 0.73859 0.75007 0.33395 0.0
H1025 H 0.75059 0.62362 0.47568 0.0
H1026 H 0.78444 0.78263 0.36966 0.0
O1027 O 0.63633 0.6329 0.43443 0.0
H1028 H 0.596 0.67183 0.29806 0.0
H1029 H 0.54917 0.6346 0.40358 0.0
H1030 H 0.51807 0.60739 0.35544 0.0
H1031 H 0.54153 0.62596 0.30222 0.0
H1032 H 0.62626 0.69831 0.34676 0.0
H1033 H 0.52948 0.71777 0.41624 0.0
H1034 H 0.51198 0.69919 0.47117 0.0
O1035 O 0.5974 0.64485 0.43606 0.0
C1036 C 0.66295 0.70771 0.46879 0.0
C1037 C 0.54598 0.68397 0.47828 0.0
C1038 C 0.54088 0.70754 0.43001 0.0
N1039 N 0.57996 0.69165 0.43428 0.0
C1040 C 0.57056 0.68146 0.46454 0.0
C1041 C 0.56557 0.70468 0.41707 0.0
C1042 C 0.53106 0.69709 0.46083 0.0
C1043 C 0.71222 0.71612 0.37024 0.0
N1044 N 0.71165 0.70745 0.40117 0.0
C1045 C 0.73835 0.74324 0.35842 0.0
C1046 C 0.76404 0.76152 0.37848 0.0
C1047 C 0.76333 0.75249 0.40997 0.0
C1048 C 0.73677 0.72525 0.42097 0.0
C1049 C 0.74101 0.64174 0.43307 0.0
C1050 C 0.6953 0.64585 0.4678 0.0
C1051 C 0.72245 0.653 0.41937 0.0
N1052 N 0.70008 0.65509 0.43678 0.0
C1053 C 0.71338 0.63443 0.48228 0.0
C1054 C 0.7364 0.63242 0.46476 0.0
C1055 C 0.60836 0.62625 0.44167 0.0
C1056 C 0.58547 0.66361 0.32111 0.0
C1057 C 0.55948 0.64289 0.38049 0.0
C1058 C 0.54176 0.62739 0.35332 0.0
C1059 C 0.55493 0.63783 0.32346 0.0
N1060 N 0.58941 0.66816 0.37798 0.0
C1061 C 0.60244 0.6786 0.34878 0.0
H1062 H 0.08008 0.72069 0.15221 0.0
H1063 H 0.07178 0.80492 0.14601 0.0
H1064 H 0.09505 0.72646 0.09631 0.0
H1065 H 0.08604 0.80999 0.09017 0.0
H1066 H 0.05065 0.75644 0.98793 0.0
H1067 H 0.05025 0.76624 0.04485 0.0
H1068 H 0.1398 0.76989 0.05633 0.0
H1069 H 0.14087 0.76111 -0.00072 0.0
C1070 C 0.08193 0.74065 0.13914 0.0
C1071 C 0.07442 0.76213 0.15342 0.0
C1072 C 0.09066 0.74403 0.1073 0.0
C1073 C 0.09154 0.76862 0.08927 0.0
C1074 C 0.08547 0.79089 0.1038 0.0
C1075 C 0.07732 0.78789 0.13572 0.0
C1076 C 0.07062 0.76017 0.00247 0.0
C1077 C 0.0956 0.75767 0.98934 0.0
C1078 C 0.07043 0.76585 0.03491 0.0
C1079 C 0.09492 0.76856 0.05466 0.0
C1080 C 0.12069 0.76776 0.04137 0.0
C1081 C 0.12124 0.76279 0.00881 0.0
H1082 H 0.33845 0.32784 0.00062 0.0
H1083 H 0.27938 0.3701 0.99022 0.0
H1084 H 0.33453 0.3297 0.05825 0.0
H1085 H 0.27559 0.3719 0.04781 0.0
H1086 H 0.35525 0.3776 0.15557 0.0
H1087 H 0.35579 0.37642 0.09767 0.0
H1088 H 0.25433 0.33455 0.09508 0.0
H1089 H 0.25358 0.33564 0.15295 0.0
C1090 C 0.32416 0.33695 0.01057 0.0
C1091 C 0.30933 0.34894 0.99091 0.0
C1092 C 0.32225 0.33836 0.04352 0.0
C1093 C 0.30521 0.35144 0.05731 0.0
C1094 C 0.28892 0.36177 0.03769 0.0
C1095 C 0.29105 0.36064 0.00476 0.0
C1096 C 0.33312 0.36874 0.14269 0.0
C1097 C 0.30435 0.35649 0.15883 0.0
C1098 C 0.33342 0.36773 0.1096 0.0
C1099 C 0.30503 0.35486 0.09211 0.0
C1100 C 0.2765 0.34452 0.1081 0.0
C1101 C 0.27615 0.34526 0.1412 0.0
H1102 H 0.68223 0.98088 0.16456 0.0
H1103 H 0.77216 0.98907 0.1421 0.0
H1104 H 0.66501 0.96615 0.10948 0.0
H1105 H 0.75499 0.97498 0.08679 0.0
H1106 H 0.72238 1.00634 0.99126 0.0
H1107 H 0.74124 1.00854 0.04562 0.0
H1108 H 0.65573 0.92139 0.06689 0.0
H1109 H 0.63693 0.91865 0.01253 0.0
C1110 C 0.69812 0.9791 0.148 0.0
C1111 C 0.72859 0.98631 0.15758 0.0
C1112 C 0.68821 0.97052 0.11657 0.0
C1113 C 0.70879 0.96956 0.09411 0.0
C1114 C 0.73881 0.97564 0.10381 0.0
C1115 C 0.74852 0.98359 0.13543 0.0
C1116 C 0.70789 0.9873 0.0073 0.0
C1117 C 0.67804 0.9625 -0.00233 0.0
C1118 C 0.71876 0.98849 0.0383 0.0
C1119 C 0.69977 0.96518 0.06023 0.0
C1120 C 0.67066 0.93963 0.05029 0.0
C1121 C 0.66001 0.93812 0.01917 0.0
H1122 H 0.73585 0.04414 0.49584 0.0
H1123 H 0.74512 0.13692 0.48643 0.0
H1124 H 0.75356 0.04736 0.441 0.0
H1125 H 0.76201 0.13946 0.43184 0.0
H1126 H 0.72817 0.09055 0.32821 0.0
H1127 H 0.7238 0.09765 0.38509 0.0
H1128 H 0.80561 0.08817 0.4035 0.0
H1129 H 0.81076 0.08212 0.34644 0.0
C1130 C 0.74207 0.06532 0.48235 0.0
C1131 C 0.73874 0.09008 0.4954 0.0
C1132 C 0.75234 0.06721 0.45113 0.0
C1133 C 0.75894 0.09363 0.43254 0.0
C1134 C 0.75696 0.1189 0.44591 0.0
C1135 C 0.74726 0.11731 0.47715 0.0
C1136 C 0.74561 0.09068 0.34434 0.0
C1137 C 0.7697 0.08566 0.33306 0.0
C1138 C 0.74313 0.09475 0.37674 0.0
C1139 C 0.76431 0.09323 0.39833 0.0
C1140 C 0.78904 0.0893 0.38709 0.0
C1141 C 0.792 0.08599 0.35456 0.0
H1142 H 0.92427 0.67044 0.48817 0.0
H1143 H 0.02633 0.71652 0.48846 0.0
H1144 H 0.92377 0.66885 0.43033 0.0
H1145 H 0.02565 0.71506 0.43057 0.0
H1146 H 0.94493 0.70644 0.32629 0.0
H1147 H 0.94168 0.70598 0.38395 0.0
H1148 H 1.00653 0.67028 0.38994 0.0
H1149 H 1.01008 0.67092 0.33208 0.0
C1150 C 0.94662 0.68081 0.47591 0.0
C1151 C 0.97534 0.69346 0.49288 0.0
C1152 C 0.94628 0.67977 0.44283 0.0
C1153 C 0.97463 0.6913 0.42616 0.0
C1154 C 1.00343 0.70538 0.443 0.0
C1155 C 1.00382 0.70659 0.47609 0.0
C1156 C 0.95803 0.69788 0.33985 0.0
C1157 C 0.97793 0.68889 0.32472 0.0
C1158 C 0.95616 0.69767 0.37283 0.0
C1159 C 0.97425 0.68859 0.39126 0.0
C1160 C 0.99281 0.67793 0.37615 0.0
C1161 C 0.99452 0.67793 0.34308 0.0
H1162 H 0.39855 0.2764 0.47922 0.0
H1163 H 0.31498 0.28311 0.49628 0.0
H1164 H 0.38574 0.26879 0.4225 0.0
H1165 H 0.30187 0.27463 0.43963 0.0
H1166 H 0.27917 0.23863 0.33714 0.0
H1167 H 0.28998 0.23239 0.39254 0.0
H1168 H 0.38428 0.3125 0.38448 0.0
H1169 H 0.37347 0.31935 0.32924 0.0
C1170 C 0.37704 0.27542 0.471 0.0
C1171 C 0.35791 0.2807 0.49204 0.0
C1172 C 0.36982 0.27114 0.43859 0.0
C1173 C 0.34296 0.27127 0.42694 0.0
C1174 C 0.32262 0.27426 0.44823 0.0
C1175 C 0.33017 0.27921 0.48053 0.0
C1176 C 0.3024 0.2546 0.34697 0.0
C1177 C 0.32541 0.2797 0.32893 0.0
C1178 C 0.30849 0.251 0.37864 0.0
C1179 C 0.33788 0.27196 0.39252 0.0
C1180 C 0.36151 0.2959 0.37407 0.0
C1181 C 0.35524 0.29992 0.34258 0.0
H1182 H 0.97031 0.32516 0.82519 0.0
H1183 H 0.95367 0.22914 0.82487 0.0
H1184 H 0.95619 0.31992 0.88145 0.0
H1185 H 0.94066 0.22458 0.88104 0.0
H1186 H 0.989 0.27283 0.984 0.0
H1187 H 0.9863 0.26538 0.92635 0.0
H1188 H 0.90504 0.27791 0.92168 0.0
H1189 H 0.90682 0.28412 0.97952 0.0
C1190 C 0.96304 0.30281 0.8369 0.0
C1191 C 0.96343 0.27772 0.82077 0.0
C1192 C 0.95487 0.2998 0.86892 0.0
C1193 C 0.94751 0.27189 0.8852 0.0
C1194 C 0.94623 0.24625 0.86875 0.0
C1195 C 0.95373 0.24898 0.83666 0.0
C1196 C 0.97009 0.27317 0.97076 0.0
C1197 C 0.94827 0.27927 0.98608 0.0
C1198 C 0.96852 0.26887 0.93792 0.0
C1199 C 0.94554 0.27126 0.91996 0.0
C1200 C 0.92291 0.27601 0.93529 0.0
C1201 C 0.92395 0.27949 0.96826 0.0
H1202 H 0.78285 0.64039 0.98793 0.0
H1203 H 0.77978 0.72757 0.99137 0.0
H1204 H 0.79082 0.64605 0.93063 0.0
H1205 H 0.78896 0.73364 0.9341 0.0
H1206 H 0.74053 0.65283 0.83137 0.0
H1207 H 0.74586 0.64708 0.88846 0.0
H1208 H 0.83394 0.73593 0.89049 0.0
H1209 H 0.82942 0.74132 0.83335 0.0
C1210 C 0.78468 0.66115 0.97662 0.0
C1211 C 0.7803 0.68338 -0.00601 0.0
C1212 C 0.78922 0.6643 0.94391 0.0
C1213 C 0.79039 0.69018 0.92832 0.0
C1214 C 0.78828 0.71358 0.9459 0.0
C1215 C 0.78297 0.71007 0.97852 0.0
C1216 C 0.76139 0.67071 0.84386 0.0
C1217 C 0.78439 0.69764 0.82805 0.0
C1218 C 0.76446 0.66737 0.87637 0.0
C1219 C 0.79024 0.69118 0.8935 0.0
C1220 C 0.81391 0.71737 0.87755 0.0
C1221 C 0.81124 0.72036 0.84494 0.0
H1222 H 0.33497 0.02215 0.98717 0.0
H1223 H 0.37775 0.12406 0.98002 0.0
H1224 H 0.3282 0.01726 0.9297 0.0
H1225 H 0.3703 0.11879 0.92223 0.0
H1226 H 0.30787 0.07423 0.82506 0.0
H1227 H 0.31945 0.08788 0.88137 0.0
H1228 H 0.37318 0.03967 0.88453 0.0
H1229 H 0.36228 0.02635 0.82831 0.0
C1230 C 0.34243 0.04345 0.97344 0.0
C1231 C 0.357 0.07351 0.98809 0.0
C1232 C 0.3388 0.04063 0.94057 0.0
C1233 C 0.34921 0.06772 0.92182 0.0
C1234 C 0.36228 0.09766 0.9364 0.0
C1235 C 0.3664 0.10058 0.96935 0.0
C1236 C 0.32274 0.06712 0.83756 0.0
C1237 C 0.33369 0.0487 0.82234 0.0
C1238 C 0.32935 0.075 0.8697 0.0
C1239 C 0.34667 0.06428 0.88707 0.0
C1240 C 0.35938 0.04776 0.87149 0.0
C1241 C 0.3532 0.04027 0.83932 0.0
H1242 H 0.23571 0.93701 0.64672 0.0
H1243 H 0.32516 0.93921 0.65216 0.0
H1244 H 0.23493 0.93067 0.58912 0.0
H1245 H 0.32359 0.93169 0.59457 0.0
H1246 H 0.29552 0.98605 0.49464 0.0
H1247 H 0.28133 0.97704 0.55079 0.0
H1248 H 0.28421 0.88996 0.54747 0.0
H1249 H 0.29738 0.89822 0.49123 0.0
C1250 C 0.25474 0.93525 0.63576 0.0
C1251 C 0.28078 0.9391 0.65378 0.0
C1252 C 0.25421 0.93162 0.60288 0.0
C1253 C 0.27922 0.93085 0.58778 0.0
C1254 C 0.30398 0.93208 0.60596 0.0
C1255 C 0.30491 0.93646 0.63878 0.0
C1256 C 0.29236 0.96463 0.50571 0.0
C1257 C 0.29783 0.94301 0.48874 0.0
C1258 C 0.28412 0.95942 0.53766 0.0
C1259 C 0.28182 0.93287 0.55308 0.0
C1260 C 0.28585 0.91053 0.53584 0.0
C1261 C 0.29339 0.91535 0.50375 0.0
H1262 H 0.08638 0.28449 0.65166 0.0
H1263 H 0.08164 0.37044 0.66272 0.0
H1264 H 0.10376 0.29889 0.59721 0.0
H1265 H 0.09952 0.38481 0.60814 0.0
H1266 H 0.14699 0.40622 0.51079 0.0
H1267 H 0.14624 0.39571 0.56771 0.0
H1268 H 0.06673 0.30156 0.55246 0.0
H1269 H 0.0669 0.3122 0.49587 0.0
C1270 C 0.08974 0.30682 0.64282 0.0
C1271 C 0.08203 0.32606 0.66137 0.0
C1272 C 0.09973 0.31498 0.61166 0.0
C1273 C 0.1027 0.34275 0.59867 0.0
C1274 C 0.09754 0.36333 0.61786 0.0
C1275 C 0.08712 0.35498 0.64898 0.0
C1276 C 0.12976 0.38309 0.51956 0.0
C1277 C 0.10681 0.36006 0.49912 0.0
C1278 C 0.12934 0.37718 0.55202 0.0
C1279 C 0.10648 0.34789 0.5642 0.0
C1280 C 0.08478 0.32423 0.54346 0.0
C1281 C 0.08476 0.33036 0.51119 0.0
H1282 H 0.72225 0.73613 0.49392 0.0
H1283 H 0.62622 0.71058 0.51572 0.0
H1284 H 0.73762 0.75151 0.54917 0.0
H1285 H 0.64163 0.72558 0.57143 0.0
H1286 H 0.68113 0.70016 0.66579 0.0
H1287 H 0.6612 0.69771 0.61193 0.0
H1288 H 0.74037 0.7906 0.59308 0.0
H1289 H 0.76033 0.79344 0.64689 0.0
C1290 C 0.70457 0.73433 0.51044 0.0
C1291 C 0.67303 0.72194 0.50066 0.0
C1292 C 0.7134 0.74333 0.54198 0.0
C1293 C 0.69073 0.73961 0.56444 0.0
C1294 C 0.65945 0.72858 0.55446 0.0
C1295 C 0.65072 0.72016 0.52266 0.0
C1296 C 0.69397 0.72035 0.65042 0.0
C1297 C 0.72255 0.7468 0.66051 0.0
C1298 C 0.68241 0.71902 0.61969 0.0
C1299 C 0.69939 0.74393 0.59847 0.0
C1300 C 0.72697 0.77108 0.60905 0.0
C1301 C 0.73833 0.77262 0.63987 0.0
H1302 H 0.41213 0.45418 0.80898 0.0
H1303 H 0.41625 0.36881 0.82609 0.0
H1304 H 0.4277 0.45423 0.75403 0.0
H1305 H 0.43209 0.36922 0.77129 0.0
H1306 H 0.39224 0.39624 0.6559 0.0
H1307 H 0.3937 0.41242 0.71099 0.0
H1308 H 0.47472 0.4015 0.72919 0.0
H1309 H 0.47362 0.38558 0.67387 0.0
C1310 C 0.41707 0.43587 0.80129 0.0
C1311 C 0.41252 0.41121 0.82175 0.0
C1312 C 0.42593 0.43594 0.76985 0.0
C1313 C 0.43093 0.41169 0.75854 0.0
C1314 C 0.42862 0.38834 0.77956 0.0
C1315 C 0.41931 0.38799 0.81085 0.0
C1316 C 0.4108 0.39795 0.67142 0.0
C1317 C 0.43256 0.38925 0.66066 0.0
C1318 C 0.41177 0.40744 0.70289 0.0
C1319 C 0.43425 0.40802 0.72423 0.0
C1320 C 0.45712 0.40109 0.71311 0.0
C1321 C 0.45648 0.39207 0.68147 0.0
H1322 H 0.63489 0.9876 0.66646 0.0
H1323 H 0.62607 0.07164 0.66931 0.0
H1324 H 0.62456 0.98076 0.72362 0.0
H1325 H 0.61695 0.06522 0.72632 0.0
H1326 H 0.5769 0.97143 0.82308 0.0
H1327 H 0.57527 0.9764 0.76545 0.0
H1328 H 0.66289 0.06557 0.77012 0.0
H1329 H 0.66541 0.06018 0.82769 0.0
C1330 C 0.63027 1.00424 0.67912 0.0
C1331 C 0.63154 0.03026 0.6635 0.0
C1332 C 0.62432 1.00029 0.71166 0.0
C1333 C 0.62014 0.02259 0.72896 0.0
C1334 C 0.62013 0.04782 0.71324 0.0
C1335 C 0.62535 0.05139 0.68066 0.0
C1336 C 0.59559 0.99233 0.81192 0.0
C1337 C 0.62149 0.01529 0.82977 0.0
C1338 C 0.59461 0.99506 0.77904 0.0
C1339 C 0.619 0.02124 0.76375 0.0
C1340 C 0.64382 0.04523 0.78169 0.0
C1341 C 0.64524 0.04214 0.81448 0.0
H1342 H 0.08987 0.64087 0.81071 0.0
H1343 H 1.00369 0.64278 0.82782 0.0
H1344 H 0.0727 0.62376 0.75604 0.0
H1345 H 0.98662 0.62543 0.77329 0.0
H1346 H 0.95849 0.58316 0.67545 0.0
H1347 H 0.97309 0.5814 0.73079 0.0
H1348 H 0.06724 0.65884 0.71339 0.0
H1349 H 0.05272 0.66094 0.65842 0.0
C1350 C 0.06694 0.63689 0.80311 0.0
C1351 C 0.04835 0.64369 0.82344 0.0
C1352 C 0.05719 0.62711 0.77183 0.0
C1353 C 0.02848 0.62347 0.76055 0.0
C1354 C 1.00876 0.62782 0.78154 0.0
C1355 C 0.01868 0.63802 0.81267 0.0
C1356 C 0.9825 0.5993 0.68327 0.0
C1357 C 1.00437 0.6225 0.66278 0.0
C1358 C 0.99077 0.59829 0.71489 0.0
C1359 C 0.0212 0.62002 0.72622 0.0
C1360 C 0.0437 0.64163 0.70513 0.0
C1361 C 0.0353 0.643 0.67374 0.0
H1362 H 0.69961 0.65347 0.32641 0.0
H1363 H 0.59777 0.5971 0.31822 0.0
H1364 H 0.70367 0.65256 0.2689 0.0
H1365 H 0.60222 0.59582 0.26033 0.0
H1366 H 0.64494 0.57701 0.16302 0.0
H1367 H 0.63145 0.57484 0.21908 0.0
H1368 H 0.68225 0.67708 0.22404 0.0
H1369 H 0.69539 0.67958 0.168 0.0
C1370 C 0.67811 0.64043 0.31243 0.0
C1371 C 0.64834 0.62541 0.32687 0.0
C1372 C 0.68048 0.64021 0.27953 0.0
C1373 C 0.65321 0.62458 0.26045 0.0
C1374 C 0.6235 0.60817 0.27474 0.0
C1375 C 0.62104 0.6088 0.30777 0.0
C1376 C 0.65263 0.59906 0.17584 0.0
C1377 C 0.67174 0.6285 0.1612 0.0
C1378 C 0.64482 0.59774 0.20784 0.0
C1379 C 0.65631 0.62578 0.22569 0.0
C1380 C 0.67351 0.65517 0.21064 0.0
C1381 C 0.68091 0.65654 0.17857 0.0
H1382 H 0.46603 0.10291 0.1776 0.0
H1383 H 0.39324 1.00579 0.15974 0.0
H1384 H 0.46721 0.09071 0.23381 0.0
H1385 H 0.3951 0.99358 0.21556 0.0
H1386 H 0.42329 0.97689 0.31178 0.0
H1387 H 0.438 0.99552 0.25774 0.0
H1388 H 0.41798 0.07093 0.27576 0.0
H1389 H 0.40257 0.05215 0.33003 0.0
C1390 C 0.45085 0.07885 0.18552 0.0
C1391 C 0.42936 0.05528 0.16446 0.0
C1392 C 0.4515 0.07199 0.21759 0.0
C1393 C 0.4313 0.0413 0.2287 0.0
C1394 C 0.41107 0.01737 0.20733 0.0
C1395 C 0.40989 0.02438 0.17551 0.0
C1396 C 0.42257 0.99784 0.30461 0.0
C1397 C 0.41115 1.0127 0.32508 0.0
C1398 C 0.43107 1.00845 0.27367 0.0
C1399 C 0.42887 0.0344 0.26282 0.0
C1400 C 0.41997 0.05091 0.28385 0.0
C1401 C 0.41101 0.04004 0.31478 0.0
H1402 H 0.02752 0.35187 0.32051 0.0
H1403 H 0.07557 0.45432 0.31518 0.0
H1404 H 1.01355 0.3481 0.26447 0.0
H1405 H 0.06071 0.4501 0.25892 0.0
H1406 H 0.98754 0.40868 0.16751 0.0
H1407 H 1.00404 0.42067 0.22326 0.0
H1408 H 0.05539 0.37034 0.21486 0.0
H1409 H 0.03972 0.3588 0.15922 0.0
C1410 C 0.03468 0.37358 0.30762 0.0
C1411 C 0.05303 0.40342 0.32229 0.0
C1412 C 0.02678 0.37135 0.27552 0.0
C1413 C 0.03656 0.39884 0.25759 0.0
C1414 C 0.05314 0.42865 0.27244 0.0
C1415 C 0.06154 0.43097 0.30456 0.0
C1416 C 1.0029 0.40074 0.17733 0.0
C1417 C 1.01192 0.38236 0.15901 0.0
C1418 C 1.01229 0.40764 0.20916 0.0
C1419 C 0.03045 0.39592 0.22314 0.0
C1420 C 0.041 0.37922 0.20448 0.0
C1421 C 0.03208 0.37274 0.17262 0.0
H1422 H 0.3023 0.88596 0.32702 0.0
H1423 H 0.26179 0.93206 0.38127 0.0
H1424 H 0.25231 0.85562 0.29782 0.0
H1425 H 0.2119 0.9011 0.35348 0.0
H1426 H 0.1349 0.86507 0.27851 0.0
H1427 H 0.18605 0.89578 0.30526 0.0
H1428 H 0.19957 0.81464 0.30061 0.0
H1429 H 0.14941 0.78474 0.27264 0.0
C1430 C 0.28264 0.88932 0.33296 0.0
C1431 C 0.28616 0.91162 0.35624 0.0
C1432 C 0.25389 0.87188 0.31631 0.0
C1433 C 0.22791 0.87604 0.32295 0.0
C1434 C 0.23142 0.89778 0.34692 0.0
C1435 C 0.26011 0.91542 0.36312 0.0
C1436 C 0.14889 0.85391 0.28316 0.0
C1437 C 0.13808 0.82251 0.27339 0.0
C1438 C 0.17819 0.87141 0.2987 0.0
C1439 C 0.19716 0.85777 0.30532 0.0
C1440 C 0.18612 0.82628 0.29552 0.0
C1441 C 0.15711 0.80899 0.27962 0.0
H1442 H 0.28362 0.37398 0.2967 0.0
H1443 H 0.20046 0.28229 0.28079 0.0
H1444 H 0.25179 0.39274 0.32247 0.0
H1445 H 0.16825 0.30154 0.30592 0.0
H1446 H 0.12558 0.33391 0.38293 0.0
H1447 H 0.15745 0.31586 0.35619 0.0
H1448 H 0.21336 0.40844 0.31463 0.0
H1449 H 0.1817 0.42698 0.34235 0.0
C1450 C 0.25844 0.35778 0.29843 0.0
C1451 C 0.24471 0.32646 0.28658 0.0
C1452 C 0.24008 0.36874 0.31309 0.0
C1453 C 0.20732 0.34883 0.31633 0.0
C1454 C 0.19347 0.31752 0.30432 0.0
C1455 C 0.21193 0.30645 0.28973 0.0
C1456 C 0.1447 0.35063 0.36818 0.0
C1457 C 0.15097 0.38205 0.3649 0.0
C1458 C 0.16289 0.34006 0.35253 0.0
C1459 C 0.18793 0.36046 0.33289 0.0
C1460 C 0.19448 0.39204 0.32978 0.0
C1461 C 0.17628 0.40273 0.34564 0.0
H1462 H 0.68336 0.91173 0.27891 0.0
H1463 H 0.77697 0.92379 0.2839 0.0
H1464 H 0.66338 0.86498 0.3118 0.0
H1465 H 0.75667 0.87583 0.31582 0.0
H1466 H 0.71847 0.80749 0.39868 0.0
H1467 H 0.73833 0.85441 0.36586 0.0
H1468 H 0.64926 0.81181 0.31468 0.0
H1469 H 0.62898 0.76533 0.34867 0.0
C1470 C 0.6997 0.90416 0.28667 0.0
C1471 C 0.73186 0.92164 0.27861 0.0
C1472 C 0.6881 0.87703 0.3055 0.0
C1473 C 0.7082 0.86617 0.31666 0.0
C1474 C 0.7404 0.88353 0.30827 0.0
C1475 C 0.7521 0.91099 0.28968 0.0
C1476 C 0.70298 0.80818 0.38058 0.0
C1477 C 0.67198 0.7826 0.37654 0.0
C1478 C 0.71455 0.8351 0.3614 0.0
C1479 C 0.69564 0.83723 0.33725 0.0
C1480 C 0.66453 0.81155 0.33326 0.0
C1481 C 0.65283 0.78471 0.35273 0.0
H1482 H 0.79626 0.13305 0.22209 0.0
H1483 H 0.85139 0.09715 0.17728 0.0
H1484 H 0.82755 0.18367 0.19619 0.0
H1485 H 0.88206 0.14761 0.15003 0.0
H1486 H 0.95105 0.25037 0.12832 0.0
H1487 H 0.92036 0.20067 0.15556 0.0
H1488 H 0.83784 0.2112 0.1485 0.0
H1489 H 0.86938 0.26224 0.12226 0.0
C1490 C 0.81504 0.13588 0.20653 0.0
C1491 C 0.82126 0.11085 0.20185 0.0
C1492 C 0.83289 0.16501 0.19135 0.0
C1493 C 0.85739 0.17007 0.17063 0.0
C1494 C 0.86377 0.14504 0.16612 0.0
C1495 C 0.8461 0.11593 0.18169 0.0
C1496 C 0.92635 0.24226 0.13254 0.0
C1497 C 0.91276 0.26051 0.1229 0.0
C1498 C 0.90856 0.21337 0.14805 0.0
C1499 C 0.87634 0.20135 0.15419 0.0
C1500 C 0.86267 0.21967 0.14468 0.0
C1501 C 0.8807 0.24897 0.12944 0.0
H1502 H 0.79884 0.61651 0.11496 0.0
H1503 H 0.801 0.703 0.14285 0.0
H1504 H 0.8509 0.63614 0.13947 0.0
H1505 H 0.85195 0.72197 0.16842 0.0
H1506 H 0.95752 0.76283 0.18277 0.0
H1507 H 0.9056 0.74264 0.15798 0.0
H1508 H 0.87935 0.64771 0.18741 0.0
H1509 H 0.93143 0.66763 0.21079 0.0
C1510 C 0.81019 0.63946 0.12674 0.0
C1511 C 0.79582 0.65822 0.12674 0.0
C1512 C 0.84004 0.65077 0.1409 0.0
C1513 C 0.85599 0.6809 0.15581 0.0
C1514 C 0.84101 0.6991 0.15652 0.0
C1515 C 0.81151 0.68803 0.14204 0.0
C1516 C 0.94062 0.73768 0.18394 0.0
C1517 C 0.94877 0.71692 0.19867 0.0
C1518 C 0.91071 0.72603 0.16985 0.0
C1519 C 0.88804 0.69339 0.17056 0.0
C1520 C 0.89621 0.67281 0.18571 0.0
C1521 C 0.92615 0.68436 0.19938 0.0
H1522 H 0.37669 0.26227 0.20367 0.0
H1523 H 0.28303 0.18031 0.19929 0.0
H1524 H 0.39692 0.23436 0.17274 0.0
H1525 H 0.30356 0.15132 0.1698 0.0
H1526 H 0.34207 0.11388 0.09466 0.0
H1527 H 0.32238 0.1443 0.12223 0.0
H1528 H 0.41152 0.19629 0.17282 0.0
H1529 H 0.43168 0.16688 0.14366 0.0
C1530 C 0.3604 0.23805 0.19636 0.0
C1531 C 0.32818 0.22353 0.20404 0.0
C1532 C 0.37213 0.22184 0.17873 0.0
C1533 C 0.35214 0.19028 0.16865 0.0
C1534 C 0.31979 0.17572 0.17647 0.0
C1535 C 0.30793 0.19224 0.19365 0.0
C1536 C 0.3576 0.13208 0.11144 0.0
C1537 C 0.38852 0.13795 0.11689 0.0
C1538 C 0.34614 0.14937 0.12762 0.0
C1539 C 0.36502 0.17274 0.15028 0.0
C1540 C 0.39622 0.17894 0.1553 0.0
C1541 C 0.4079 0.16199 0.13861 0.0
H1542 H 0.7952 0.19058 0.63115 0.0
H1543 H 0.81719 0.11942 0.59938 0.0
H1544 H 0.84637 0.21878 0.65838 0.0
H1545 H 0.8685 0.148 0.62554 0.0
H1546 H 0.94671 0.19157 0.70201 0.0
H1547 H 0.89499 0.16188 0.67576 0.0
H1548 H 0.90105 0.25001 0.64775 0.0
H1549 H 0.95178 0.27935 0.67457 0.0
C1550 C 0.81102 0.18109 0.62976 0.0
C1551 C 0.80209 0.15283 0.61295 0.0
C1552 C 0.84046 0.19731 0.64525 0.0
C1553 C 0.86178 0.18577 0.64413 0.0
C1554 C 0.85267 0.15743 0.62737 0.0
C1555 C 0.82324 0.14116 0.61208 0.0
C1556 C 0.93702 0.20451 0.69006 0.0
C1557 C 0.95334 0.23783 0.69064 0.0
C1558 C 0.90737 0.18753 0.67496 0.0
C1559 C 0.89354 0.20351 0.65987 0.0
C1560 C 0.91042 0.23682 0.65977 0.0
C1561 C 0.93976 0.25369 0.675 0.0
H1562 H 0.87504 0.62257 0.61332 0.0
H1563 H 0.95816 0.71274 0.63474 0.0
H1564 H 0.84209 0.64164 0.63679 0.0
H1565 H 0.9255 0.73133 0.65924 0.0
H1566 H 0.85601 0.7667 0.67734 0.0
H1567 H 0.88876 0.74868 0.65091 0.0
H1568 H 0.82755 0.65381 0.68526 0.0
H1569 H 0.79459 0.67134 0.71034 0.0
C1570 C 0.88635 0.64634 0.62327 0.0
C1571 C 0.91933 0.66601 0.62203 0.0
C1572 C 0.86744 0.65733 0.63692 0.0
C1573 C 0.88097 0.68818 0.65009 0.0
C1574 C 0.91399 0.70772 0.64892 0.0
C1575 C 0.93283 0.69687 0.63502 0.0
C1576 C 0.84957 0.742 0.67915 0.0
C1577 C 0.82248 0.72058 0.69591 0.0
C1578 C 0.86844 0.73162 0.66411 0.0
C1579 C 0.86086 0.69959 0.66566 0.0
C1580 C 0.83393 0.67841 0.68274 0.0
C1581 C 0.81504 0.68866 0.69744 0.0
H1582 H 0.37939 0.1304 0.71809 0.0
H1583 H 0.28543 0.10191 0.68366 0.0
H1584 H 0.40002 0.18063 0.69064 0.0
H1585 H 0.30623 0.15174 0.65499 0.0
H1586 H 0.34556 0.25587 0.63458 0.0
H1587 H 0.32607 0.20599 0.66177 0.0
H1588 H 0.41308 0.20695 0.64158 0.0
H1589 H 0.43327 0.25809 0.61519 0.0
C1590 C 0.36308 0.13477 0.7045 0.0
C1591 C 0.33062 0.11208 0.70336 0.0
C1592 C 0.37504 0.16361 0.68842 0.0
C1593 C 0.35498 0.17063 0.67042 0.0
C1594 C 0.32249 0.14769 0.66903 0.0
C1595 C 0.31047 0.11892 0.68539 0.0
C1596 C 0.3607 0.24558 0.63581 0.0
C1597 C 0.39108 0.26119 0.62245 0.0
C1598 C 0.34929 0.2166 0.65132 0.0
C1599 C 0.36767 0.20188 0.6538 0.0
C1600 C 0.39822 0.21754 0.64056 0.0
C1601 C 0.40983 0.24689 0.62524 0.0
H1602 H 0.19389 0.92304 0.77476 0.0
H1603 H 0.27664 0.91744 0.80018 0.0
H1604 H 0.1605 0.87132 0.79906 0.0
H1605 H 0.24381 0.8669 0.82542 0.0
H1606 H 0.17674 0.76226 0.84288 0.0
H1607 H 0.20882 0.81301 0.8165 0.0
H1608 H 0.1439 0.84356 0.84675 0.0
H1609 H 0.11145 0.79277 0.87173 0.0
C1610 C 0.20499 0.91102 0.78586 0.0
C1611 C 0.23798 0.92446 0.78529 0.0
C1612 C 0.18587 0.88131 0.79993 0.0
C1613 C 0.19928 0.86446 0.81415 0.0
C1614 C 0.23235 0.87844 0.8141 0.0
C1615 C 0.25131 0.90778 0.79978 0.0
C1616 C 0.16933 0.77981 0.84382 0.0
C1617 C 0.14141 0.77319 0.85945 0.0
C1618 C 0.18783 0.8091 0.82882 0.0
C1619 C 0.17914 0.83275 0.82935 0.0
C1620 C 0.15124 0.82601 0.84513 0.0
C1621 C 0.13265 0.79673 0.85977 0.0
H1622 H 0.15734 0.36562 0.76352 0.0
H1623 H 0.12404 0.27124 0.79931 0.0
H1624 H 0.20775 0.38413 0.79022 0.0
H1625 H 0.17435 0.29011 0.82735 0.0
H1626 H 0.27862 0.32597 0.84674 0.0
H1627 H 0.22821 0.3073 0.81991 0.0
H1628 H 0.23352 0.397 0.83985 0.0
H1629 H 0.28482 0.41619 0.86566 0.0
C1630 C 0.1607 0.34879 0.7773 0.0
C1631 C 0.13661 0.31686 0.77917 0.0
C1632 C 0.18965 0.35954 0.79292 0.0
C1633 C 0.19533 0.33878 0.81119 0.0
C1634 C 0.17114 0.30678 0.81314 0.0
C1635 C 0.14218 0.29591 0.79719 0.0
C1636 C 0.26911 0.34181 0.84542 0.0
C1637 C 0.28589 0.37266 0.85843 0.0
C1638 C 0.23994 0.33094 0.83018 0.0
C1639 C 0.22646 0.35046 0.82772 0.0
C1640 C 0.24326 0.38136 0.84078 0.0
C1641 C 0.27268 0.39239 0.85576 0.0
H1642 H 0.68371 0.7895 0.76184 0.0
H1643 H 0.77663 0.84828 0.80277 0.0
H1644 H 0.6633 0.81661 0.79402 0.0
H1645 H 0.75596 0.87459 0.83631 0.0
H1646 H 0.71742 0.93684 0.87092 0.0
H1647 H 0.73774 0.91025 0.83806 0.0
H1648 H 0.64821 0.823 0.84448 0.0
H1649 H 0.62735 0.85039 0.87626 0.0
C1650 C 0.69984 0.80821 0.77785 0.0
C1651 C 0.73192 0.81681 0.77952 0.0
C1652 C 0.68799 0.82362 0.79666 0.0
C1653 C 0.70774 0.84788 0.81816 0.0
C1654 C 0.73994 0.85648 0.81977 0.0
C1655 C 0.75189 0.84131 0.80057 0.0
C1656 C 0.70198 0.91194 0.8654 0.0
C1657 C 0.67068 0.89577 0.87637 0.0
C1658 C 0.7138 0.89653 0.84662 0.0
C1659 C 0.69488 0.86423 0.83847 0.0
C1660 C 0.66352 0.84797 0.84966 0.0
C1661 C 0.65152 0.8636 0.86815 0.0
H1662 H 0.5268 0.43388 0.51834 0.0
H1663 H 0.46994 0.47041 0.55774 0.0
H1664 H 0.55712 0.48296 0.4888 0.0
H1665 H 0.50086 0.51977 0.52942 0.0
H1666 H 0.54427 0.59591 0.45362 0.0
H1667 H 0.51216 0.5452 0.48009 0.0
H1668 H 0.5952 0.53657 0.49392 0.0
H1669 H 0.6267 0.58615 0.46656 0.0
C1670 C 0.52097 0.45249 0.52097 0.0
C1671 C 0.49597 0.44812 0.54056 0.0
C1672 C 0.53846 0.48081 0.5041 0.0
C1673 C 0.53165 0.50571 0.50657 0.0
C1674 C 0.50663 0.50119 0.52629 0.0
C1675 C 0.489 0.47283 0.54287 0.0
C1676 C 0.5556 0.58309 0.46219 0.0
C1677 C 0.58814 0.59527 0.45771 0.0
C1678 C 0.53721 0.554 0.47761 0.0
C1679 C 0.5509 0.53641 0.48929 0.0
C1680 C 0.58346 0.54879 0.48481 0.0
C1681 C 0.6017 0.57758 0.46919 0.0
H1682 H 0.59132 1.01051 0.55074 0.0
H1683 H 0.62966 0.10372 0.51004 0.0
H1684 H 0.54283 0.99232 0.52056 0.0
H1685 H 0.58113 0.08509 0.47863 0.0
H1686 H 0.47814 0.04858 0.44914 0.0
H1687 H 0.52655 0.06838 0.48021 0.0
H1688 H 0.5223 0.97808 0.46861 0.0
H1689 H 0.47301 0.95786 0.43848 0.0
C1690 C 0.58944 0.02718 0.53521 0.0
C1691 C 0.61453 0.0586 0.53271 0.0
C1692 C 0.56161 0.01659 0.51762 0.0
C1693 C 0.55804 0.03697 0.49665 0.0
C1694 C 0.58285 0.06871 0.49467 0.0
C1695 C 0.61074 0.07945 0.51265 0.0
C1696 C 0.48754 0.03291 0.45313 0.0
C1697 C 0.47164 1.00156 0.44131 0.0
C1698 C 0.51551 0.0444 0.47085 0.0
C1699 C 0.52853 0.02495 0.47707 0.0
C1700 C 0.51276 0.99365 0.46487 0.0
C1701 C 0.48456 0.98205 0.44738 0.0
H1702 H 1.01042 0.4397 0.44474 0.0
H1703 H 0.10317 0.52317 0.44362 0.0
H1704 H 0.99112 0.46769 0.47709 0.0
H1705 H 0.08352 0.55183 0.47504 0.0
H1706 H 0.04851 0.58474 0.55869 0.0
H1707 H 0.06737 0.55655 0.52602 0.0
H1708 H 0.9764 0.50665 0.47857 0.0
H1709 H 0.95716 0.53414 0.51237 0.0
C1710 C 0.02668 0.46424 0.45104 0.0
C1711 C 0.05843 0.47915 0.44147 0.0
C1712 C 1.01548 0.48043 0.46955 0.0
C1713 C 0.03559 0.51221 0.47887 0.0
C1714 C 0.06733 0.52726 0.46891 0.0
C1715 C 0.07863 0.5109 0.45062 0.0
C1716 C 0.0324 0.56761 0.54142 0.0
C1717 C 1.00119 0.56163 0.53835 0.0
C1718 C 0.04338 0.5516 0.52235 0.0
C1719 C 0.02363 0.52928 0.4993 0.0
C1720 C 0.99231 0.52325 0.49628 0.0
C1721 C 0.98121 0.53911 0.51563 0.0
H1722 H 0.49475 0.4532 0.92426 0.0
H1723 H 0.45491 0.50538 0.96825 0.0
H1724 H 0.54222 0.48207 0.95668 0.0
H1725 H 0.50201 0.5335 0.00185 0.0
H1726 H 0.60312 0.60067 0.03482 0.0
H1727 H 0.55575 0.57228 0.00222 0.0
H1728 H 0.56294 0.4875 0.00823 0.0
H1729 H 0.61137 0.51657 0.03984 0.0
C1730 C 0.49608 0.47083 0.94097 0.0
C1731 C 0.47105 0.47709 0.94352 0.0
C1732 C 0.52328 0.48721 0.95987 0.0
C1733 C 0.52612 0.51011 0.98218 0.0
C1734 C 0.50103 0.51643 0.98465 0.0
C1735 C 0.4739 0.50024 0.96544 0.0
C1736 C 0.59458 0.57592 0.02929 0.0
C1737 C 0.61106 0.56088 0.04 0.0
C1738 C 0.56718 0.55952 0.01068 0.0
C1739 C 0.55522 0.52745 0.00249 0.0
C1740 C 0.57161 0.5123 0.01352 0.0
C1741 C 0.5993 0.52888 0.03186 0.0
H1742 H 0.53771 0.94691 0.95985 0.0
H1743 H 0.6208 0.03912 0.97301 0.0
H1744 H 0.50605 0.96618 0.98653 0.0
H1745 H 0.58983 0.05782 0.00027 0.0
H1746 H 0.52297 0.09435 0.02077 0.0
H1747 H 0.55231 0.07369 0.99242 0.0
H1748 H 0.49495 0.98225 0.03581 0.0
H1749 H 0.46501 1.00261 0.06313 0.0
C1750 C 0.54928 0.97113 0.96862 0.0
C1751 C 0.58182 0.99141 0.96394 0.0
C1752 C 0.53117 0.98223 0.98405 0.0
C1753 C 0.54519 1.01381 -0.00458 0.0
C1754 C 0.57784 0.0337 0.99123 0.0
C1755 C 0.59576 0.02276 0.97569 0.0
C1756 C 0.51667 0.06987 0.02429 0.0
C1757 C 0.49174 0.0503 0.04445 0.0
C1758 C 0.5336 0.05795 0.00812 0.0
C1759 C 0.52626 0.02618 0.01181 0.0
C1760 C 0.50116 1.00664 0.0319 0.0
C1761 C 0.48413 0.01849 0.04787 0.0
H1762 H 0.10259 0.603 0.96836 0.0
H1763 H 1.00877 0.56508 0.92863 0.0
H1764 H 0.08377 0.55624 0.0018 0.0
H1765 H 0.99023 0.51791 0.96081 0.0
H1766 H 0.95738 0.44853 0.0428 0.0
H1767 H 0.97659 0.49691 0.01176 0.0
H1768 H 0.06713 0.50225 0.00255 0.0
H1769 H 0.04839 0.45503 0.03458 0.0
C1770 C 0.07804 0.58451 0.96645 0.0
C1771 C 0.05728 0.58787 0.94569 0.0
C1772 C 0.06717 0.55752 0.98558 0.0
C1773 C 0.03529 0.53296 0.98427 0.0
C1774 C 1.01472 0.53636 0.96318 0.0
C1775 C 0.02549 0.56342 0.94437 0.0
C1776 C 0.98143 0.46019 0.03428 0.0
C1777 C 1.0013 0.44787 0.0414 0.0
C1778 C 0.99247 0.48789 0.01621 0.0
C1779 C 0.02359 0.50382 0.00439 0.0
C1780 C 0.04332 0.4913 0.01159 0.0
C1781 C 0.03242 0.46392 0.0299 0.0
loop_
_geom_bond_atom_site_label_1
_geom_bond_atom_site_label_2
_geom_bond_distance
_geom_bond_site_symmetry_2
_ccdc_geom_bond_type
Co0 O2 2.143 1_655 S
Co0 O8 2.074 1_655 S
Co0 O11 2.093 . S
Co0 O24 2.097 . S
Co0 N41 2.151 1_655 S
Co0 N49 2.214 . S
Co1 O2 2.160 . S
Co1 O7 2.058 . S
Co1 O17 2.057 . S
Co1 O32 2.037 1_455 S
Co1 N36 2.145 . S
Co1 N57 2.257 . S
O2 Co0 2.143 1_455 S
O2 Co1 2.160 . S
C3 O4 1.276 . S
C3 O11 1.224 . S
O4 C3 1.276 . S
C5 O6 1.245 . S
C5 O17 1.232 . S
O6 C5 1.245 . S
O7 Co1 2.058 . S
O7 C33 1.269 . S
O8 Co0 2.074 1_455 S
O8 C33 1.257 . S
H9 C34 0.930 . S
H10 C40 0.930 . S
O11 Co0 2.093 . S
O11 C3 1.224 . S
H12 C44 0.929 . S
H13 C46 0.930 . S
H14 C47 0.930 . S
H15 C45 0.929 . S
H16 C48 0.928 . S
O17 Co1 2.057 . S
O17 C5 1.232 . S
H18 C37 0.929 . S
H19 C38 0.929 . S
H20 C50 0.931 . S
H21 C42 0.929 . S
H22 C51 0.930 . S
H23 C43 0.931 . S
O24 Co0 2.097 . S
O24 C52 1.214 . S
H25 C53 0.929 . S
H26 C54 0.929 . S
H27 C55 0.930 . S
H28 C56 0.929 . S
H29 C58 0.930 . S
H30 C35 0.930 . S
H31 C39 0.930 . S
O32 Co1 2.037 1_655 S
O32 C52 1.234 . S
C33 O7 1.269 . S
C33 O8 1.257 . S
C34 H9 0.930 . S
C34 C37 1.388 . S
C34 C39 1.418 . S
C35 H30 0.930 . S
C35 C38 1.404 . S
C35 C39 1.353 . S
N36 Co1 2.145 . S
N36 C37 1.397 . S
N36 C38 1.334 . S
C37 H18 0.929 . S
C37 C34 1.388 . S
C37 N36 1.397 . S
C38 H19 0.929 . S
C38 C35 1.404 . S
C38 N36 1.334 . S
C39 H31 0.930 . S
C39 C34 1.418 . S
C39 C35 1.353 . S
C40 H10 0.930 . S
C40 N41 1.330 . S
C40 C42 1.446 . S
N41 Co0 2.151 1_455 S
N41 C40 1.330 . S
N41 C45 1.418 . S
C42 H21 0.929 . S
C42 C40 1.446 . S
C42 C43 1.332 . S
C43 H23 0.931 . S
C43 C42 1.332 . S
C43 C44 1.267 . S
C44 H12 0.929 . S
C44 C43 1.267 . S
C44 C45 1.251 . S
C45 H15 0.929 . S
C45 N41 1.418 . S
C45 C44 1.251 . S
C46 H13 0.930 . S
C46 C48 1.406 . S
C46 C51 1.261 . S
C47 H14 0.930 . S
C47 N49 1.325 . S
C47 C50 1.357 . S
C48 H16 0.928 . S
C48 C46 1.406 . S
C48 N49 1.261 . S
N49 Co0 2.214 . S
N49 C47 1.325 . S
N49 C48 1.261 . S
C50 H20 0.931 . S
C50 C47 1.357 . S
C50 C51 1.312 . S
C51 H22 0.930 . S
C51 C46 1.261 . S
C51 C50 1.312 . S
C52 O24 1.214 . S
C52 O32 1.234 . S
C53 H25 0.929 . S
C53 C56 1.391 1_455 S
C53 C58 1.391 . S
C54 H26 0.929 . S
C54 C55 1.390 . S
C54 N57 1.391 1_655 S
C55 H27 0.930 . S
C55 C54 1.390 . S
C55 C56 1.392 . S
C56 H28 0.929 . S
C56 C53 1.391 1_655 S
C56 C55 1.392 . S
N57 Co1 2.257 . S
N57 C54 1.391 1_455 S
N57 C58 1.388 . S
C58 H29 0.930 . S
C58 C53 1.391 . S
C58 N57 1.388 . S
Co59 O61 2.143 . S
Co59 O67 2.074 . S
Co59 O70 2.093 . S
Co59 O83 2.097 . S
Co59 N100 2.151 . S
Co59 N108 2.214 . S
Co60 O61 2.160 . S
Co60 O66 2.058 . S
Co60 O76 2.057 . S
Co60 O91 2.037 . S
Co60 N95 2.145 . S
Co60 N116 2.257 . S
O61 Co59 2.143 . S
O61 Co60 2.160 . S
C62 O63 1.278 . S
C62 O70 1.224 . S
O63 C62 1.278 . S
C64 O65 1.245 . S
C64 O76 1.232 . S
O65 C64 1.245 . S
O66 Co60 2.058 . S
O66 C92 1.269 . S
O67 Co59 2.074 . S
O67 C92 1.257 . S
H68 C93 0.930 . S
H69 C99 0.930 . S
O70 Co59 2.093 . S
O70 C62 1.224 . S
H71 C103 0.929 . S
H72 C105 0.930 . S
H73 C106 0.930 . S
H74 C104 0.929 . S
H75 C107 0.928 . S
O76 Co60 2.057 . S
O76 C64 1.232 . S
H77 C96 0.929 . S
H78 C97 0.929 . S
H79 C109 0.931 . S
H80 C101 0.929 . S
H81 C110 0.930 . S
H82 C102 0.931 . S
O83 Co59 2.097 . S
O83 C111 1.214 . S
H84 C112 0.929 . S
H85 C113 0.929 . S
H86 C114 0.930 . S
H87 C115 0.929 . S
H88 C117 0.930 . S
H89 C94 0.930 . S
H90 C98 0.930 . S
O91 Co60 2.037 . S
O91 C111 1.234 . S
C92 O66 1.269 . S
C92 O67 1.257 . S
C93 H68 0.930 . S
C93 C96 1.388 . S
C93 C98 1.418 . S
C94 H89 0.930 . S
C94 C97 1.404 . S
C94 C98 1.353 . S
N95 Co60 2.145 . S
N95 C96 1.397 . S
N95 C97 1.334 . S
C96 H77 0.929 . S
C96 C93 1.388 . S
C96 N95 1.397 . S
C97 H78 0.929 . S
C97 C94 1.404 . S
C97 N95 1.334 . S
C98 H90 0.930 . S
C98 C93 1.418 . S
C98 C94 1.353 . S
C99 H69 0.930 . S
C99 N100 1.330 . S
C99 C101 1.446 . S
N100 Co59 2.151 . S
N100 C99 1.330 . S
N100 C104 1.418 . S
C101 H80 0.929 . S
C101 C99 1.446 . S
C101 C102 1.332 . S
C102 H82 0.931 . S
C102 C101 1.332 . S
C102 C103 1.267 . S
C103 H71 0.929 . S
C103 C102 1.267 . S
C103 C104 1.251 . S
C104 H74 0.929 . S
C104 N100 1.418 . S
C104 C103 1.251 . S
C105 H72 0.930 . S
C105 C107 1.406 . S
C105 C110 1.261 . S
C106 H73 0.930 . S
C106 N108 1.325 . S
C106 C109 1.357 . S
C107 H75 0.928 . S
C107 C105 1.406 . S
C107 N108 1.261 . S
N108 Co59 2.214 . S
N108 C106 1.325 . S
N108 C107 1.261 . S
C109 H79 0.931 . S
C109 C106 1.357 . S
C109 C110 1.312 . S
C110 H81 0.930 . S
C110 C105 1.261 . S
C110 C109 1.312 . S
C111 O83 1.214 . S
C111 O91 1.234 . S
C112 H84 0.929 . S
C112 C115 1.391 . S
C112 C117 1.391 . S
C113 H85 0.929 . S
C113 C114 1.390 . S
C113 N116 1.391 . S
C114 H86 0.930 . S
C114 C113 1.390 . S
C114 C115 1.392 . S
C115 H87 0.929 . S
C115 C112 1.391 . S
C115 C114 1.392 . S
N116 Co60 2.257 . S
N116 C113 1.391 . S
N116 C117 1.388 . S
C117 H88 0.930 . S
C117 C112 1.391 . S
C117 N116 1.388 . S
Co118 O120 2.143 . S
Co118 O126 2.074 . S
Co118 O129 2.093 . S
Co118 O142 2.097 . S
Co118 N159 2.151 . S
Co118 N167 2.214 . S
Co119 O120 2.160 . S
Co119 O125 2.058 1_545 S
Co119 O135 2.057 1_545 S
Co119 O150 2.037 . S
Co119 N154 2.147 1_545 S
Co119 N175 2.257 . S
O120 Co118 2.143 . S
O120 Co119 2.160 . S
C121 O122 1.278 . S
C121 O129 1.224 . S
O122 C121 1.278 . S
C123 O124 1.245 . S
C123 O135 1.232 . S
O124 C123 1.245 . S
O125 Co119 2.058 1_565 S
O125 C151 1.269 1_565 S
O126 Co118 2.074 . S
O126 C151 1.257 . S
H127 C152 0.930 . S
H128 C158 0.931 1_545 S
O129 Co118 2.093 . S
O129 C121 1.224 . S
H130 C162 0.929 . S
H131 C164 0.930 . S
H132 C165 0.930 . S
H133 C163 0.929 . S
H134 C166 0.928 . S
O135 Co119 2.057 1_565 S
O135 C123 1.232 . S
H136 C155 0.929 . S
H137 C156 0.929 . S
H138 C168 0.931 . S
H139 C160 0.929 . S
H140 C169 0.930 . S
H141 C161 0.931 . S
O142 Co118 2.097 . S
O142 C170 1.214 . S
H143 C171 0.929 . S
H144 C172 0.929 . S
H145 C173 0.930 . S
H146 C174 0.929 . S
H147 C176 0.930 . S
H148 C153 0.930 . S
H149 C157 0.930 . S
O150 Co119 2.037 . S
O150 C170 1.234 . S
C151 O125 1.269 1_545 S
C151 O126 1.257 . S
C152 H127 0.930 . S
C152 C155 1.388 . S
C152 C157 1.418 1_545 S
C153 H148 0.930 . S
C153 C156 1.404 . S
C153 C157 1.353 . S
N154 Co119 2.147 1_565 S
N154 C155 1.399 1_565 S
N154 C156 1.330 . S
C155 H136 0.929 . S
C155 C152 1.388 . S
C155 N154 1.399 1_545 S
C156 H137 0.929 . S
C156 C153 1.404 . S
C156 N154 1.330 . S
C157 H149 0.930 . S
C157 C152 1.418 1_565 S
C157 C153 1.353 . S
C158 H128 0.931 1_565 S
C158 N159 1.328 1_565 S
C158 C160 1.447 . S
N159 Co118 2.151 . S
N159 C158 1.328 1_545 S
N159 C163 1.418 . S
C160 H139 0.929 . S
C160 C158 1.447 . S
C160 C161 1.332 . S
C161 H141 0.931 . S
C161 C160 1.332 . S
C161 C162 1.267 . S
C162 H130 0.929 . S
C162 C161 1.267 . S
C162 C163 1.251 1_565 S
C163 H133 0.929 . S
C163 N159 1.418 . S
C163 C162 1.251 1_545 S
C164 H131 0.930 . S
C164 C166 1.406 . S
C164 C169 1.261 . S
C165 H132 0.930 . S
C165 N167 1.325 . S
C165 C168 1.357 . S
C166 H134 0.928 . S
C166 C164 1.406 . S
C166 N167 1.261 . S
N167 Co118 2.214 . S
N167 C165 1.325 . S
N167 C166 1.261 . S
C168 H138 0.931 . S
C168 C165 1.357 . S
C168 C169 1.312 . S
C169 H140 0.930 . S
C169 C164 1.261 . S
C169 C168 1.312 . S
C170 O142 1.214 . S
C170 O150 1.234 . S
C171 H143 0.929 . S
C171 C174 1.391 . S
C171 C176 1.391 . S
C172 H144 0.929 . S
C172 C173 1.390 . S
C172 N175 1.391 . S
C173 H145 0.930 . S
C173 C172 1.390 . S
C173 C174 1.392 . S
C174 H146 0.929 . S
C174 C171 1.391 . S
C174 C173 1.392 . S
N175 Co119 2.257 . S
N175 C172 1.391 . S
N175 C176 1.388 . S
C176 H147 0.930 . S
C176 C171 1.391 . S
C176 N175 1.388 . S
Co177 O179 2.143 . S
Co177 O185 2.074 . S
Co177 O188 2.093 1_455 S
Co177 O201 2.097 1_455 S
Co177 N218 2.151 . S
Co177 N226 2.214 1_455 S
Co178 O179 2.160 . S
Co178 O184 2.058 . S
Co178 O194 2.057 . S
Co178 O209 2.037 1_455 S
Co178 N213 2.145 . S
Co178 N234 2.257 . S
O179 Co177 2.143 . S
O179 Co178 2.160 . S
C180 O181 1.278 1_655 S
C180 O188 1.224 . S
O181 C180 1.278 1_455 S
C182 O183 1.245 . S
C182 O194 1.232 . S
O183 C182 1.245 . S
O184 Co178 2.058 . S
O184 C210 1.269 . S
O185 Co177 2.074 . S
O185 C210 1.257 . S
H186 C211 0.930 . S
H187 C217 0.930 . S
O188 Co177 2.093 1_655 S
O188 C180 1.224 . S
H189 C221 0.929 . S
H190 C223 0.930 . S
H191 C224 0.930 . S
H192 C222 0.929 . S
H193 C225 0.928 . S
O194 Co178 2.057 . S
O194 C182 1.232 . S
H195 C214 0.929 . S
H196 C215 0.929 . S
H197 C227 0.931 . S
H198 C219 0.929 . S
H199 C228 0.930 . S
H200 C220 0.931 . S
O201 Co177 2.097 1_655 S
O201 C229 1.214 . S
H202 C230 0.929 . S
H203 C231 0.929 . S
H204 C232 0.930 . S
H205 C233 0.929 . S
H206 C235 0.930 . S
H207 C212 0.930 . S
H208 C216 0.930 . S
O209 Co178 2.037 1_655 S
O209 C229 1.234 . S
C210 O184 1.269 . S
C210 O185 1.257 . S
C211 H186 0.930 . S
C211 C214 1.388 . S
C211 C216 1.418 . S
C212 H207 0.930 . S
C212 C215 1.404 . S
C212 C216 1.353 . S
N213 Co178 2.145 . S
N213 C214 1.397 . S
N213 C215 1.334 . S
C214 H195 0.929 . S
C214 C211 1.388 . S
C214 N213 1.397 . S
C215 H196 0.929 . S
C215 C212 1.404 . S
C215 N213 1.334 . S
C216 H208 0.930 . S
C216 C211 1.418 . S
C216 C212 1.353 . S
C217 H187 0.930 . S
C217 N218 1.330 . S
C217 C219 1.446 . S
N218 Co177 2.151 . S
N218 C217 1.330 . S
N218 C222 1.418 . S
C219 H198 0.929 . S
C219 C217 1.446 . S
C219 C220 1.332 . S
C220 H200 0.931 . S
C220 C219 1.332 . S
C220 C221 1.267 . S
C221 H189 0.929 . S
C221 C220 1.267 . S
C221 C222 1.251 . S
C222 H192 0.929 . S
C222 N218 1.418 . S
C222 C221 1.251 . S
C223 H190 0.930 . S
C223 C225 1.406 . S
C223 C228 1.261 . S
C224 H191 0.930 . S
C224 N226 1.325 . S
C224 C227 1.357 . S
C225 H193 0.928 . S
C225 C223 1.406 . S
C225 N226 1.261 . S
N226 Co177 2.214 1_655 S
N226 C224 1.325 . S
N226 C225 1.261 . S
C227 H197 0.931 . S
C227 C224 1.357 . S
C227 C228 1.312 . S
C228 H199 0.930 . S
C228 C223 1.261 . S
C228 C227 1.312 . S
C229 O201 1.214 . S
C229 O209 1.234 . S
C230 H202 0.929 . S
C230 C233 1.391 1_455 S
C230 C235 1.391 . S
C231 H203 0.929 . S
C231 C232 1.390 . S
C231 N234 1.391 1_655 S
C232 H204 0.930 . S
C232 C231 1.390 . S
C232 C233 1.392 . S
C233 H205 0.929 . S
C233 C230 1.391 1_655 S
C233 C232 1.392 . S
N234 Co178 2.257 . S
N234 C231 1.391 1_455 S
N234 C235 1.388 . S
C235 H206 0.930 . S
C235 C230 1.391 . S
C235 N234 1.388 . S
Co236 O238 2.143 . S
Co236 O244 2.074 . S
Co236 O247 2.093 . S
Co236 O260 2.097 . S
Co236 N277 2.151 . S
Co236 N285 2.214 . S
Co237 O238 2.160 . S
Co237 O243 2.058 . S
Co237 O253 2.057 . S
Co237 O268 2.037 . S
Co237 N272 2.145 . S
Co237 N293 2.257 . S
O238 Co236 2.143 . S
O238 Co237 2.160 . S
C239 O240 1.278 . S
C239 O247 1.224 . S
O240 C239 1.278 . S
C241 O242 1.245 . S
C241 O253 1.232 . S
O242 C241 1.245 . S
O243 Co237 2.058 . S
O243 C269 1.269 . S
O244 Co236 2.074 . S
O244 C269 1.257 . S
H245 C270 0.930 . S
H246 C276 0.930 . S
O247 Co236 2.093 . S
O247 C239 1.224 . S
H248 C280 0.929 . S
H249 C282 0.930 . S
H250 C283 0.930 . S
H251 C281 0.929 . S
H252 C284 0.928 . S
O253 Co237 2.057 . S
O253 C241 1.232 . S
H254 C273 0.929 . S
H255 C274 0.929 . S
H256 C286 0.931 . S
H257 C278 0.929 . S
H258 C287 0.930 . S
H259 C279 0.931 . S
O260 Co236 2.097 . S
O260 C288 1.214 . S
H261 C289 0.929 . S
H262 C290 0.929 . S
H263 C291 0.930 . S
H264 C292 0.929 . S
H265 C294 0.930 . S
H266 C271 0.930 . S
H267 C275 0.930 . S
O268 Co237 2.037 . S
O268 C288 1.234 . S
C269 O243 1.269 . S
C269 O244 1.257 . S
C270 H245 0.930 . S
C270 C273 1.388 . S
C270 C275 1.418 . S
C271 H266 0.930 . S
C271 C274 1.404 . S
C271 C275 1.353 . S
N272 Co237 2.145 . S
N272 C273 1.397 . S
N272 C274 1.334 . S
C273 H254 0.929 . S
C273 C270 1.388 . S
C273 N272 1.397 . S
C274 H255 0.929 . S
C274 C271 1.404 . S
C274 N272 1.334 . S
C275 H267 0.930 . S
C275 C270 1.418 . S
C275 C271 1.353 . S
C276 H246 0.930 . S
C276 N277 1.330 . S
C276 C278 1.446 . S
N277 Co236 2.151 . S
N277 C276 1.330 . S
N277 C281 1.418 . S
C278 H257 0.929 . S
C278 C276 1.446 . S
C278 C279 1.332 . S
C279 H259 0.931 . S
C279 C278 1.332 . S
C279 C280 1.267 . S
C280 H248 0.929 . S
C280 C279 1.267 . S
C280 C281 1.251 . S
C281 H251 0.929 . S
C281 N277 1.418 . S
C281 C280 1.251 . S
C282 H249 0.930 . S
C282 C284 1.406 . S
C282 C287 1.261 . S
C283 H250 0.930 . S
C283 N285 1.325 . S
C283 C286 1.357 . S
C284 H252 0.928 . S
C284 C282 1.406 . S
C284 N285 1.261 . S
N285 Co236 2.214 . S
N285 C283 1.325 . S
N285 C284 1.261 . S
C286 H256 0.931 . S
C286 C283 1.357 . S
C286 C287 1.312 . S
C287 H258 0.930 . S
C287 C282 1.261 . S
C287 C286 1.312 . S
C288 O260 1.214 . S
C288 O268 1.234 . S
C289 H261 0.929 . S
C289 C292 1.391 . S
C289 C294 1.391 . S
C290 H262 0.929 . S
C290 C291 1.390 . S
C290 N293 1.391 . S
C291 H263 0.930 . S
C291 C290 1.390 . S
C291 C292 1.392 . S
C292 H264 0.929 . S
C292 C289 1.391 . S
C292 C291 1.392 . S
N293 Co237 2.257 . S
N293 C290 1.391 . S
N293 C294 1.388 . S
C294 H265 0.930 . S
C294 C289 1.391 . S
C294 N293 1.388 . S
Co295 O297 2.143 1_565 S
Co295 O303 2.074 . S
Co295 O306 2.093 . S
Co295 O319 2.097 . S
Co295 N336 2.151 1_565 S
Co295 N344 2.214 . S
Co296 O297 2.160 . S
Co296 O302 2.058 . S
Co296 O312 2.057 . S
Co296 O327 2.037 1_545 S
Co296 N331 2.145 . S
Co296 N352 2.257 1_545 S
O297 Co295 2.143 1_545 S
O297 Co296 2.160 . S
C298 O299 1.278 . S
C298 O306 1.224 . S
O299 C298 1.278 . S
C300 O301 1.245 . S
C300 O312 1.232 . S
O301 C300 1.245 . S
O302 Co296 2.058 . S
O302 C328 1.269 . S
O303 Co295 2.074 . S
O303 C328 1.257 1_565 S
H304 C329 0.923 1_565 S
H305 C335 0.930 . S
O306 Co295 2.093 . S
O306 C298 1.224 . S
H307 C339 0.929 . S
H308 C341 0.930 . S
H309 C342 0.930 . S
H310 C340 0.929 . S
H311 C343 0.928 . S
O312 Co296 2.057 . S
O312 C300 1.232 . S
H313 C332 0.929 1_565 S
H314 C333 0.929 . S
H315 C345 0.931 . S
H316 C337 0.929 . S
H317 C346 0.930 . S
H318 C338 0.931 . S
O319 Co295 2.097 . S
O319 C347 1.214 . S
H320 C348 0.929 1_545 S
H321 C349 0.929 . S
H322 C350 0.930 . S
H323 C351 0.929 . S
H324 C353 0.930 . S
H325 C330 0.930 . S
H326 C334 0.930 . S
O327 Co296 2.037 1_565 S
O327 C347 1.234 . S
C328 O302 1.269 . S
C328 O303 1.257 1_545 S
C329 H304 0.923 1_545 S
C329 C332 1.388 . S
C329 C334 1.418 . S
C330 H325 0.930 . S
C330 C333 1.404 . S
C330 C334 1.353 . S
N331 Co296 2.145 . S
N331 C332 1.397 . S
N331 C333 1.334 . S
C332 H313 0.929 1_545 S
C332 C329 1.388 . S
C332 N331 1.397 . S
C333 H314 0.929 . S
C333 C330 1.404 . S
C333 N331 1.334 . S
C334 H326 0.930 . S
C334 C329 1.418 . S
C334 C330 1.353 . S
C335 H305 0.930 . S
C335 N336 1.330 . S
C335 C337 1.446 . S
N336 Co295 2.151 1_545 S
N336 C335 1.330 . S
N336 C340 1.418 . S
C337 H316 0.929 . S
C337 C335 1.446 . S
C337 C338 1.332 . S
C338 H318 0.931 . S
C338 C337 1.332 . S
C338 C339 1.267 . S
C339 H307 0.929 . S
C339 C338 1.267 . S
C339 C340 1.251 . S
C340 H310 0.929 . S
C340 N336 1.418 . S
C340 C339 1.251 . S
C341 H308 0.930 . S
C341 C343 1.406 . S
C341 C346 1.261 . S
C342 H309 0.930 . S
C342 N344 1.325 . S
C342 C345 1.357 . S
C343 H311 0.928 . S
C343 C341 1.406 . S
C343 N344 1.261 . S
N344 Co295 2.214 . S
N344 C342 1.325 . S
N344 C343 1.261 . S
C345 H315 0.931 . S
C345 C342 1.357 . S
C345 C346 1.312 . S
C346 H317 0.930 . S
C346 C341 1.261 . S
C346 C345 1.312 . S
C347 O319 1.214 . S
C347 O327 1.234 . S
C348 H320 0.929 1_565 S
C348 C351 1.391 . S
C348 C353 1.391 1_565 S
C349 H321 0.929 . S
C349 C350 1.390 . S
C349 N352 1.394 . S
C350 H322 0.930 . S
C350 C349 1.390 . S
C350 C351 1.392 . S
C351 H323 0.929 . S
C351 C348 1.391 . S
C351 C350 1.392 . S
N352 Co296 2.257 1_565 S
N352 C349 1.394 . S
N352 C353 1.387 1_565 S
C353 H324 0.930 . S
C353 C348 1.391 1_545 S
C353 N352 1.387 1_545 S
Co354 O356 2.143 . S
Co354 O362 2.074 . S
Co354 O365 2.093 . S
Co354 O378 2.097 . S
Co354 N395 2.151 . S
Co354 N403 2.214 . S
Co355 O356 2.160 . S
Co355 O361 2.058 . S
Co355 O371 2.057 . S
Co355 O386 2.037 . S
Co355 N390 2.145 . S
Co355 N411 2.257 . S
O356 Co354 2.143 . S
O356 Co355 2.160 . S
C357 O358 1.278 . S
C357 O365 1.224 . S
O358 C357 1.278 . S
C359 O360 1.245 . S
C359 O371 1.232 . S
O360 C359 1.245 . S
O361 Co355 2.058 . S
O361 C387 1.269 . S
O362 Co354 2.074 . S
O362 C387 1.257 . S
H363 C388 0.930 . S
H364 C394 0.930 . S
O365 Co354 2.093 . S
O365 C357 1.224 . S
H366 C398 0.929 . S
H367 C400 0.930 . S
H368 C401 0.930 . S
H369 C399 0.929 . S
H370 C402 0.928 . S
O371 Co355 2.057 . S
O371 C359 1.232 . S
H372 C391 0.929 . S
H373 C392 0.929 . S
H374 C404 0.931 . S
H375 C396 0.929 . S
H376 C405 0.930 . S
H377 C397 0.931 . S
O378 Co354 2.097 . S
O378 C406 1.214 . S
H379 C407 0.929 . S
H380 C408 0.929 . S
H381 C409 0.930 . S
H382 C410 0.929 . S
H383 C412 0.930 . S
H384 C389 0.930 . S
H385 C393 0.930 . S
O386 Co355 2.037 . S
O386 C406 1.234 . S
C387 O361 1.269 . S
C387 O362 1.257 . S
C388 H363 0.930 . S
C388 C391 1.388 . S
C388 C393 1.418 . S
C389 H384 0.930 . S
C389 C392 1.404 . S
C389 C393 1.353 . S
N390 Co355 2.145 . S
N390 C391 1.397 . S
N390 C392 1.334 . S
C391 H372 0.929 . S
C391 C388 1.388 . S
C391 N390 1.397 . S
C392 H373 0.929 . S
C392 C389 1.404 . S
C392 N390 1.334 . S
C393 H385 0.930 . S
C393 C388 1.418 . S
C393 C389 1.353 . S
C394 H364 0.930 . S
C394 N395 1.330 . S
C394 C396 1.446 . S
N395 Co354 2.151 . S
N395 C394 1.330 . S
N395 C399 1.418 . S
C396 H375 0.929 . S
C396 C394 1.446 . S
C396 C397 1.332 . S
C397 H377 0.931 . S
C397 C396 1.332 . S
C397 C398 1.267 . S
C398 H366 0.929 . S
C398 C397 1.267 . S
C398 C399 1.251 . S
C399 H369 0.929 . S
C399 N395 1.418 . S
C399 C398 1.251 . S
C400 H367 0.930 . S
C400 C402 1.406 1_565 S
C400 C405 1.261 . S
C401 H368 0.930 . S
C401 N403 1.325 . S
C401 C404 1.357 . S
C402 H370 0.928 . S
C402 C400 1.406 1_545 S
C402 N403 1.261 . S
N403 Co354 2.214 . S
N403 C401 1.325 . S
N403 C402 1.261 . S
C404 H374 0.931 . S
C404 C401 1.357 . S
C404 C405 1.312 1_545 S
C405 H376 0.930 . S
C405 C400 1.261 . S
C405 C404 1.312 1_565 S
C406 O378 1.214 . S
C406 O386 1.234 . S
C407 H379 0.929 . S
C407 C410 1.391 . S
C407 C412 1.391 . S
C408 H380 0.929 . S
C408 C409 1.390 . S
C408 N411 1.391 . S
C409 H381 0.930 . S
C409 C408 1.390 . S
C409 C410 1.392 . S
C410 H382 0.929 . S
C410 C407 1.391 . S
C410 C409 1.392 . S
N411 Co355 2.257 . S
N411 C408 1.391 . S
N411 C412 1.388 . S
C412 H383 0.930 . S
C412 C407 1.391 . S
C412 N411 1.388 . S
Co413 O415 2.143 . S
Co413 O421 2.074 . S
Co413 O424 2.093 . S
Co413 O437 2.097 . S
Co413 N454 2.176 . S
Co413 N462 2.214 . S
Co414 O415 2.160 . S
Co414 O420 2.058 . S
Co414 O430 2.057 . S
Co414 O445 2.037 . S
Co414 N449 2.145 . S
Co414 N470 2.257 . S
O415 Co413 2.143 . S
O415 Co414 2.160 . S
C416 O417 1.278 . S
C416 O424 1.224 . S
O417 C416 1.278 . S
C418 O419 1.245 . S
C418 O430 1.232 . S
O419 C418 1.245 . S
O420 Co414 2.058 . S
O420 C446 1.269 . S
O421 Co413 2.074 . S
O421 C446 1.257 . S
H422 C447 0.930 . S
H423 C453 0.930 1_655 S
O424 Co413 2.093 . S
O424 C416 1.224 . S
H425 C457 0.929 . S
H426 C459 0.930 1_455 S
H427 C460 0.930 . S
H428 C458 0.929 . S
H429 C461 0.928 . S
O430 Co414 2.057 . S
O430 C418 1.232 . S
H431 C450 0.929 . S
H432 C451 0.929 . S
H433 C463 0.931 . S
H434 C455 0.929 . S
H435 C464 0.930 . S
H436 C456 0.931 . S
O437 Co413 2.097 . S
O437 C465 1.214 . S
H438 C466 0.929 . S
H439 C467 0.929 . S
H440 C468 0.930 . S
H441 C469 0.929 . S
H442 C471 0.930 . S
H443 C448 0.930 . S
H444 C452 0.930 . S
O445 Co414 2.037 . S
O445 C465 1.234 . S
C446 O420 1.269 . S
C446 O421 1.257 . S
C447 H422 0.930 . S
C447 C450 1.388 . S
C447 C452 1.418 . S
C448 H443 0.930 . S
C448 C451 1.404 . S
C448 C452 1.353 . S
N449 Co414 2.145 . S
N449 C450 1.397 . S
N449 C451 1.334 . S
C450 H431 0.929 . S
C450 C447 1.388 . S
C450 N449 1.397 . S
C451 H432 0.929 . S
C451 C448 1.404 . S
C451 N449 1.334 . S
C452 H444 0.930 . S
C452 C447 1.418 . S
C452 C448 1.353 . S
C453 H423 0.930 1_455 S
C453 N454 1.319 1_455 S
C453 C455 1.446 . S
N454 Co413 2.176 . S
N454 C453 1.319 1_655 S
N454 C458 1.404 1_655 S
C455 H434 0.929 . S
C455 C453 1.446 . S
C455 C456 1.332 . S
C456 H436 0.931 . S
C456 C455 1.332 . S
C456 C457 1.267 . S
C457 H425 0.929 . S
C457 C456 1.267 . S
C457 C458 1.251 . S
C458 H428 0.929 . S
C458 N454 1.404 1_455 S
C458 C457 1.251 . S
C459 H426 0.930 1_655 S
C459 C461 1.406 . S
C459 C464 1.261 . S
C460 H427 0.930 . S
C460 N462 1.325 . S
C460 C463 1.357 . S
C461 H429 0.928 . S
C461 C459 1.406 . S
C461 N462 1.261 . S
N462 Co413 2.214 . S
N462 C460 1.325 . S
N462 C461 1.261 . S
C463 H433 0.931 . S
C463 C460 1.357 . S
C463 C464 1.312 . S
C464 H435 0.930 . S
C464 C459 1.261 . S
C464 C463 1.312 . S
C465 O437 1.214 . S
C465 O445 1.234 . S
C466 H438 0.929 . S
C466 C469 1.391 . S
C466 C471 1.391 . S
C467 H439 0.929 . S
C467 C468 1.390 . S
C467 N470 1.391 . S
C468 H440 0.930 . S
C468 C467 1.390 . S
C468 C469 1.392 . S
C469 H441 0.929 . S
C469 C466 1.391 . S
C469 C468 1.392 . S
N470 Co414 2.257 . S
N470 C467 1.391 . S
N470 C471 1.388 . S
C471 H442 0.930 . S
C471 C466 1.391 . S
C471 N470 1.388 . S
Co472 O474 2.143 . S
Co472 O480 2.074 . S
Co472 O483 2.093 . S
Co472 O496 2.097 . S
Co472 N513 2.151 . S
Co472 N521 2.214 . S
Co473 O474 2.160 . S
Co473 O479 2.058 . S
Co473 O489 2.057 . S
Co473 O504 2.037 . S
Co473 N508 2.145 . S
Co473 N529 2.257 . S
O474 Co472 2.143 . S
O474 Co473 2.160 . S
C475 O476 1.278 . S
C475 O483 1.224 . S
O476 C475 1.278 . S
C477 O478 1.245 . S
C477 O489 1.232 . S
O478 C477 1.245 . S
O479 Co473 2.058 . S
O479 C505 1.269 . S
O480 Co472 2.074 . S
O480 C505 1.257 . S
H481 C506 0.930 . S
H482 C512 0.930 . S
O483 Co472 2.093 . S
O483 C475 1.224 . S
H484 C516 0.929 . S
H485 C518 0.930 . S
H486 C519 0.930 . S
H487 C517 0.929 . S
H488 C520 0.928 . S
O489 Co473 2.057 . S
O489 C477 1.232 . S
H490 C509 0.929 . S
H491 C510 0.929 . S
H492 C522 0.931 . S
H493 C514 0.929 . S
H494 C523 0.930 . S
H495 C515 0.931 . S
O496 Co472 2.097 . S
O496 C524 1.214 . S
H497 C525 0.929 . S
H498 C526 0.929 . S
H499 C527 0.930 . S
H500 C528 0.929 . S
H501 C530 0.930 . S
H502 C507 0.930 . S
H503 C511 0.930 . S
O504 Co473 2.037 . S
O504 C524 1.234 . S
C505 O479 1.269 . S
C505 O480 1.257 . S
C506 H481 0.930 . S
C506 C509 1.388 . S
C506 C511 1.418 . S
C507 H502 0.930 . S
C507 C510 1.404 . S
C507 C511 1.353 . S
N508 Co473 2.145 . S
N508 C509 1.397 . S
N508 C510 1.334 . S
C509 H490 0.929 . S
C509 C506 1.388 . S
C509 N508 1.397 . S
C510 H491 0.929 . S
C510 C507 1.404 . S
C510 N508 1.334 . S
C511 H503 0.930 . S
C511 C506 1.418 . S
C511 C507 1.353 . S
C512 H482 0.930 . S
C512 N513 1.330 . S
C512 C514 1.446 . S
N513 Co472 2.151 . S
N513 C512 1.330 . S
N513 C517 1.418 . S
C514 H493 0.929 . S
C514 C512 1.446 . S
C514 C515 1.332 . S
C515 H495 0.931 . S
C515 C514 1.332 . S
C515 C516 1.267 . S
C516 H484 0.929 . S
C516 C515 1.267 . S
C516 C517 1.251 . S
C517 H487 0.929 . S
C517 N513 1.418 . S
C517 C516 1.251 . S
C518 H485 0.930 . S
C518 C520 1.406 . S
C518 C523 1.261 . S
C519 H486 0.930 . S
C519 N521 1.325 . S
C519 C522 1.357 . S
C520 H488 0.928 . S
C520 C518 1.406 . S
C520 N521 1.261 . S
N521 Co472 2.214 . S
N521 C519 1.325 . S
N521 C520 1.261 . S
C522 H492 0.931 . S
C522 C519 1.357 . S
C522 C523 1.312 . S
C523 H494 0.930 . S
C523 C518 1.261 . S
C523 C522 1.312 . S
C524 O496 1.214 . S
C524 O504 1.234 . S
C525 H497 0.929 . S
C525 C528 1.391 . S
C525 C530 1.391 . S
C526 H498 0.929 . S
C526 C527 1.390 . S
C526 N529 1.391 . S
C527 H499 0.930 . S
C527 C526 1.390 . S
C527 C528 1.392 . S
C528 H500 0.929 . S
C528 C525 1.391 . S
C528 C527 1.392 . S
N529 Co473 2.257 . S
N529 C526 1.391 . S
N529 C530 1.388 . S
C530 H501 0.930 . S
C530 C525 1.391 . S
C530 N529 1.388 . S
Co531 O533 2.143 . S
Co531 O539 2.074 . S
Co531 O542 2.093 . S
Co531 O555 2.097 . S
Co531 N572 2.151 . S
Co531 N580 2.214 . S
Co532 O533 2.160 . S
Co532 O538 2.058 . S
Co532 O548 2.057 . S
Co532 O563 2.037 . S
Co532 N567 2.145 . S
Co532 N588 2.257 . S
O533 Co531 2.143 . S
O533 Co532 2.160 . S
C534 O535 1.278 . S
C534 O542 1.224 . S
O535 C534 1.278 . S
C536 O537 1.245 . S
C536 O548 1.232 . S
O537 C536 1.245 . S
O538 Co532 2.058 . S
O538 C564 1.269 . S
O539 Co531 2.074 . S
O539 C564 1.257 . S
H540 C565 0.930 . S
H541 C571 0.930 . S
O542 Co531 2.093 . S
O542 C534 1.224 . S
H543 C575 0.929 . S
H544 C577 0.930 . S
H545 C578 0.930 . S
H546 C576 0.929 . S
H547 C579 0.928 . S
O548 Co532 2.057 . S
O548 C536 1.232 . S
H549 C568 0.929 . S
H550 C569 0.929 . S
H551 C581 0.931 . S
H552 C573 0.929 . S
H553 C582 0.930 . S
H554 C574 0.931 . S
O555 Co531 2.097 . S
O555 C583 1.214 . S
H556 C584 0.929 1_556 S
H557 C585 0.929 . S
H558 C586 0.930 . S
H559 C587 0.929 1_556 S
H560 C589 0.930 . S
H561 C566 0.930 . S
H562 C570 0.930 . S
O563 Co532 2.037 . S
O563 C583 1.234 . S
C564 O538 1.269 . S
C564 O539 1.257 . S
C565 H540 0.930 . S
C565 C568 1.388 . S
C565 C570 1.418 . S
C566 H561 0.930 . S
C566 C569 1.404 . S
C566 C570 1.353 . S
N567 Co532 2.145 . S
N567 C568 1.397 . S
N567 C569 1.334 . S
C568 H549 0.929 . S
C568 C565 1.388 . S
C568 N567 1.397 . S
C569 H550 0.929 . S
C569 C566 1.404 . S
C569 N567 1.334 . S
C570 H562 0.930 . S
C570 C565 1.418 . S
C570 C566 1.353 . S
C571 H541 0.930 . S
C571 N572 1.330 . S
C571 C573 1.446 . S
N572 Co531 2.151 . S
N572 C571 1.330 . S
N572 C576 1.418 . S
C573 H552 0.929 . S
C573 C571 1.446 . S
C573 C574 1.332 . S
C574 H554 0.931 . S
C574 C573 1.332 . S
C574 C575 1.267 . S
C575 H543 0.929 . S
C575 C574 1.267 . S
C575 C576 1.251 . S
C576 H546 0.929 . S
C576 N572 1.418 . S
C576 C575 1.251 . S
C577 H544 0.930 . S
C577 C579 1.406 . S
C577 C582 1.261 . S
C578 H545 0.930 . S
C578 N580 1.325 . S
C578 C581 1.357 . S
C579 H547 0.928 . S
C579 C577 1.406 . S
C579 N580 1.261 . S
N580 Co531 2.214 . S
N580 C578 1.325 . S
N580 C579 1.261 . S
C581 H551 0.931 . S
C581 C578 1.357 . S
C581 C582 1.312 . S
C582 H553 0.930 . S
C582 C577 1.261 . S
C582 C581 1.312 . S
C583 O555 1.214 . S
C583 O563 1.234 . S
C584 H556 0.929 1_554 S
C584 C587 1.391 . S
C584 C589 1.391 . S
C585 H557 0.929 . S
C585 C586 1.390 . S
C585 N588 1.391 . S
C586 H558 0.930 . S
C586 C585 1.390 . S
C586 C587 1.392 . S
C587 H559 0.929 1_554 S
C587 C584 1.391 . S
C587 C586 1.392 . S
N588 Co532 2.257 . S
N588 C585 1.391 . S
N588 C589 1.388 . S
C589 H560 0.930 . S
C589 C584 1.391 . S
C589 N588 1.388 . S
Co590 O592 2.143 . S
Co590 O598 2.074 . S
Co590 O601 2.093 . S
Co590 O614 2.097 . S
Co590 N631 2.186 . S
Co590 N639 2.214 . S
Co591 O592 2.160 . S
Co591 O597 2.058 . S
Co591 O607 2.057 . S
Co591 O622 2.037 . S
Co591 N626 2.145 . S
Co591 N647 2.257 . S
O592 Co590 2.143 . S
O592 Co591 2.160 . S
C593 O594 1.278 . S
C593 O601 1.224 . S
O594 C593 1.278 . S
C595 O596 1.245 . S
C595 O607 1.232 . S
O596 C595 1.245 . S
O597 Co591 2.058 . S
O597 C623 1.269 . S
O598 Co590 2.074 . S
O598 C623 1.257 . S
H599 C624 0.930 . S
H600 C630 0.930 1_545 S
O601 Co590 2.093 . S
O601 C593 1.224 . S
H602 C634 0.929 . S
H603 C636 0.930 1_565 S
H604 C637 0.930 . S
H605 C635 0.929 . S
H606 C638 0.928 . S
O607 Co591 2.057 . S
O607 C595 1.232 . S
H608 C627 0.929 . S
H609 C628 0.929 . S
H610 C640 0.931 . S
H611 C632 0.929 . S
H612 C641 0.930 . S
H613 C633 0.931 . S
O614 Co590 2.097 . S
O614 C642 1.214 . S
H615 C643 0.929 1_556 S
H616 C644 0.929 . S
H617 C645 0.930 . S
H618 C646 0.929 . S
H619 C648 0.930 . S
H620 C625 0.930 . S
H621 C629 0.930 . S
O622 Co591 2.037 . S
O622 C642 1.234 . S
C623 O597 1.269 . S
C623 O598 1.257 . S
C624 H599 0.930 . S
C624 C627 1.388 . S
C624 C629 1.418 . S
C625 H620 0.930 . S
C625 C628 1.404 . S
C625 C629 1.353 . S
N626 Co591 2.145 . S
N626 C627 1.397 . S
N626 C628 1.334 . S
C627 H608 0.929 . S
C627 C624 1.388 . S
C627 N626 1.397 . S
C628 H609 0.929 . S
C628 C625 1.404 . S
C628 N626 1.334 . S
C629 H621 0.930 . S
C629 C624 1.418 . S
C629 C625 1.353 . S
C630 H600 0.930 1_565 S
C630 N631 1.316 1_565 S
C630 C632 1.446 . S
N631 Co590 2.186 . S
N631 C630 1.316 1_545 S
N631 C635 1.397 1_545 S
C632 H611 0.929 . S
C632 C630 1.446 . S
C632 C633 1.332 . S
C633 H613 0.931 . S
C633 C632 1.332 . S
C633 C634 1.267 . S
C634 H602 0.929 . S
C634 C633 1.267 . S
C634 C635 1.251 . S
C635 H605 0.929 . S
C635 N631 1.397 1_565 S
C635 C634 1.251 . S
C636 H603 0.930 1_545 S
C636 C638 1.406 . S
C636 C641 1.261 . S
C637 H604 0.930 . S
C637 N639 1.325 . S
C637 C640 1.357 . S
C638 H606 0.928 . S
C638 C636 1.406 . S
C638 N639 1.261 . S
N639 Co590 2.214 . S
N639 C637 1.325 . S
N639 C638 1.261 . S
C640 H610 0.931 . S
C640 C637 1.357 . S
C640 C641 1.312 . S
C641 H612 0.930 . S
C641 C636 1.261 . S
C641 C640 1.312 . S
C642 O614 1.214 . S
C642 O622 1.234 . S
C643 H615 0.929 1_554 S
C643 C646 1.391 . S
C643 C648 1.391 . S
C644 H616 0.929 . S
C644 C645 1.390 . S
C644 N647 1.391 . S
C645 H617 0.930 . S
C645 C644 1.390 . S
C645 C646 1.392 . S
C646 H618 0.929 . S
C646 C643 1.391 . S
C646 C645 1.392 . S
N647 Co591 2.257 . S
N647 C644 1.391 . S
N647 C648 1.388 . S
C648 H619 0.930 . S
C648 C643 1.391 . S
C648 N647 1.388 . S
Co649 O651 2.143 . S
Co649 O657 2.074 . S
Co649 O660 2.093 . S
Co649 O673 2.097 . S
Co649 N690 2.151 1_655 S
Co649 N698 2.214 . S
Co650 O651 2.160 . S
Co650 O656 2.058 . S
Co650 O666 2.057 . S
Co650 O681 2.037 . S
Co650 N685 2.145 . S
Co650 N706 2.257 . S
O651 Co649 2.143 . S
O651 Co650 2.160 . S
C652 O653 1.278 . S
C652 O660 1.224 . S
O653 C652 1.278 . S
C654 O655 1.245 . S
C654 O666 1.232 . S
O655 C654 1.245 . S
O656 Co650 2.058 . S
O656 C682 1.269 . S
O657 Co649 2.074 . S
O657 C682 1.257 . S
H658 C683 0.930 . S
H659 C689 0.930 1_655 S
O660 Co649 2.093 . S
O660 C652 1.224 . S
H661 C693 0.929 . S
H662 C695 0.930 1_455 S
H663 C696 0.930 . S
H664 C694 0.929 . S
H665 C697 0.928 . S
O666 Co650 2.057 . S
O666 C654 1.232 . S
H667 C686 0.929 . S
H668 C687 0.929 . S
H669 C699 0.931 . S
H670 C691 0.929 . S
H671 C700 0.930 . S
H672 C692 0.931 . S
O673 Co649 2.097 . S
O673 C701 1.214 . S
H674 C702 0.929 . S
H675 C703 0.929 . S
H676 C704 0.930 . S
H677 C705 0.929 1_556 S
H678 C707 0.930 . S
H679 C684 0.930 . S
H680 C688 0.930 . S
O681 Co650 2.037 . S
O681 C701 1.234 . S
C682 O656 1.269 . S
C682 O657 1.257 . S
C683 H658 0.930 . S
C683 C686 1.388 . S
C683 C688 1.418 . S
C684 H679 0.930 . S
C684 C687 1.404 . S
C684 C688 1.353 . S
N685 Co650 2.145 . S
N685 C686 1.397 . S
N685 C687 1.334 . S
C686 H667 0.929 . S
C686 C683 1.388 . S
C686 N685 1.397 . S
C687 H668 0.929 . S
C687 C684 1.404 . S
C687 N685 1.334 . S
C688 H680 0.930 . S
C688 C683 1.418 . S
C688 C684 1.353 . S
C689 H659 0.930 1_455 S
C689 N690 1.330 . S
C689 C691 1.446 . S
N690 Co649 2.151 1_455 S
N690 C689 1.330 . S
N690 C694 1.418 . S
C691 H670 0.929 . S
C691 C689 1.446 . S
C691 C692 1.332 . S
C692 H672 0.931 . S
C692 C691 1.332 . S
C692 C693 1.267 . S
C693 H661 0.929 . S
C693 C692 1.267 . S
C693 C694 1.251 . S
C694 H664 0.929 . S
C694 N690 1.418 . S
C694 C693 1.251 . S
C695 H662 0.930 1_655 S
C695 C697 1.406 . S
C695 C700 1.261 . S
C696 H663 0.930 . S
C696 N698 1.325 . S
C696 C699 1.357 . S
C697 H665 0.928 . S
C697 C695 1.406 . S
C697 N698 1.261 . S
N698 Co649 2.214 . S
N698 C696 1.325 . S
N698 C697 1.261 . S
C699 H669 0.931 . S
C699 C696 1.357 . S
C699 C700 1.312 . S
C700 H671 0.930 . S
C700 C695 1.261 . S
C700 C699 1.312 . S
C701 O673 1.214 . S
C701 O681 1.234 . S
C702 H674 0.929 . S
C702 C705 1.391 1_556 S
C702 C707 1.391 1_556 S
C703 H675 0.929 . S
C703 C704 1.390 . S
C703 N706 1.391 . S
C704 H676 0.930 . S
C704 C703 1.390 . S
C704 C705 1.392 . S
C705 H677 0.929 1_554 S
C705 C702 1.391 1_554 S
C705 C704 1.392 . S
N706 Co650 2.257 . S
N706 C703 1.391 . S
N706 C707 1.388 . S
C707 H678 0.930 . S
C707 C702 1.391 1_554 S
C707 N706 1.388 . S
Co708 O710 2.143 . S
Co708 O716 2.074 . S
Co708 O719 2.093 . S
Co708 O732 2.097 . S
Co708 N749 2.151 . S
Co708 N757 2.214 . S
Co709 O710 2.160 . S
Co709 O715 2.058 . S
Co709 O725 2.057 . S
Co709 O740 2.037 . S
Co709 N744 2.145 . S
Co709 N765 2.257 . S
O710 Co708 2.143 . S
O710 Co709 2.160 . S
C711 O712 1.278 . S
C711 O719 1.224 . S
O712 C711 1.278 . S
C713 O714 1.245 . S
C713 O725 1.232 . S
O714 C713 1.245 . S
O715 Co709 2.058 . S
O715 C741 1.269 . S
O716 Co708 2.074 . S
O716 C741 1.257 . S
H717 C742 0.930 . S
H718 C748 0.930 . S
O719 Co708 2.093 . S
O719 C711 1.224 . S
H720 C752 0.929 . S
H721 C754 0.930 . S
H722 C755 0.930 . S
H723 C753 0.929 . S
H724 C756 0.928 . S
O725 Co709 2.057 . S
O725 C713 1.232 . S
H726 C745 0.929 . S
H727 C746 0.929 . S
H728 C758 0.931 . S
H729 C750 0.929 . S
H730 C759 0.930 . S
H731 C751 0.931 . S
O732 Co708 2.097 . S
O732 C760 1.214 . S
H733 C761 0.947 . S
H734 C762 0.929 . S
H735 C763 0.930 . S
H736 C764 0.929 1_554 S
H737 C766 0.930 . S
H738 C743 0.930 . S
H739 C747 0.930 . S
O740 Co709 2.037 . S
O740 C760 1.234 . S
C741 O715 1.269 . S
C741 O716 1.257 . S
C742 H717 0.930 . S
C742 C745 1.388 . S
C742 C747 1.418 . S
C743 H738 0.930 . S
C743 C746 1.404 . S
C743 C747 1.353 . S
N744 Co709 2.145 . S
N744 C745 1.397 . S
N744 C746 1.334 . S
C745 H726 0.929 . S
C745 C742 1.388 . S
C745 N744 1.397 . S
C746 H727 0.929 . S
C746 C743 1.404 . S
C746 N744 1.334 . S
C747 H739 0.930 . S
C747 C742 1.418 . S
C747 C743 1.353 . S
C748 H718 0.930 . S
C748 N749 1.330 . S
C748 C750 1.446 . S
N749 Co708 2.151 . S
N749 C748 1.330 . S
N749 C753 1.418 . S
C750 H729 0.929 . S
C750 C748 1.446 . S
C750 C751 1.332 . S
C751 H731 0.931 . S
C751 C750 1.332 . S
C751 C752 1.267 . S
C752 H720 0.929 . S
C752 C751 1.267 . S
C752 C753 1.251 . S
C753 H723 0.929 . S
C753 N749 1.418 . S
C753 C752 1.251 . S
C754 H721 0.930 . S
C754 C756 1.406 . S
C754 C759 1.261 . S
C755 H722 0.930 . S
C755 N757 1.325 . S
C755 C758 1.357 . S
C756 H724 0.928 . S
C756 C754 1.406 . S
C756 N757 1.261 . S
N757 Co708 2.214 . S
N757 C755 1.325 . S
N757 C756 1.261 . S
C758 H728 0.931 . S
C758 C755 1.357 . S
C758 C759 1.312 . S
C759 H730 0.930 . S
C759 C754 1.261 . S
C759 C758 1.312 . S
C760 O732 1.214 . S
C760 O740 1.234 . S
C761 H733 0.947 . S
C761 C764 1.387 1_554 S
C761 C766 1.377 1_554 S
C762 H734 0.929 . S
C762 C763 1.390 . S
C762 N765 1.391 . S
C763 H735 0.930 . S
C763 C762 1.390 . S
C763 C764 1.392 . S
C764 H736 0.929 1_556 S
C764 C761 1.387 1_556 S
C764 C763 1.392 . S
N765 Co709 2.257 . S
N765 C762 1.391 . S
N765 C766 1.388 . S
C766 H737 0.930 . S
C766 C761 1.377 1_556 S
C766 N765 1.388 . S
Co767 O769 2.143 . S
Co767 O775 2.074 . S
Co767 O778 2.093 . S
Co767 O791 2.097 . S
Co767 N808 2.151 . S
Co767 N816 2.214 1_565 S
Co768 O769 2.160 . S
Co768 O774 2.058 . S
Co768 O784 2.057 . S
Co768 O799 2.037 . S
Co768 N803 2.145 . S
Co768 N824 2.257 . S
O769 Co767 2.143 . S
O769 Co768 2.160 . S
C770 O771 1.278 . S
C770 O778 1.224 . S
O771 C770 1.278 . S
C772 O773 1.245 . S
C772 O784 1.232 . S
O773 C772 1.245 . S
O774 Co768 2.058 . S
O774 C800 1.269 . S
O775 Co767 2.074 . S
O775 C800 1.257 . S
H776 C801 0.961 . S
H777 C807 0.930 . S
O778 Co767 2.093 . S
O778 C770 1.224 . S
H779 C811 0.929 . S
H780 C813 0.930 . S
H781 C814 0.930 . S
H782 C812 0.929 . S
H783 C815 0.928 . S
O784 Co768 2.057 . S
O784 C772 1.232 . S
H785 C804 0.929 . S
H786 C805 0.929 . S
H787 C817 0.931 1_554 S
H788 C809 0.929 . S
H789 C818 0.930 . S
H790 C810 0.931 . S
O791 Co767 2.097 . S
O791 C819 1.214 . S
H792 C820 0.929 . S
H793 C821 0.929 . S
H794 C822 0.930 . S
H795 C823 0.929 . S
H796 C825 0.930 . S
H797 C802 0.930 . S
H798 C806 0.934 . S
O799 Co768 2.037 . S
O799 C819 1.234 . S
C800 O774 1.269 . S
C800 O775 1.257 . S
C801 H776 0.961 . S
C801 C804 1.367 1_554 S
C801 C806 1.407 1_554 S
C802 H797 0.930 . S
C802 C805 1.404 . S
C802 C806 1.353 . S
N803 Co768 2.145 . S
N803 C804 1.397 . S
N803 C805 1.334 . S
C804 H785 0.929 . S
C804 C801 1.367 1_556 S
C804 N803 1.397 . S
C805 H786 0.929 . S
C805 C802 1.404 . S
C805 N803 1.334 . S
C806 H798 0.934 . S
C806 C801 1.407 1_556 S
C806 C802 1.353 . S
C807 H777 0.930 . S
C807 N808 1.330 . S
C807 C809 1.446 1_565 S
N808 Co767 2.151 . S
N808 C807 1.330 . S
N808 C812 1.418 1_565 S
C809 H788 0.929 . S
C809 C807 1.446 1_545 S
C809 C810 1.332 . S
C810 H790 0.931 . S
C810 C809 1.332 . S
C810 C811 1.267 . S
C811 H779 0.929 . S
C811 C810 1.267 . S
C811 C812 1.251 . S
C812 H782 0.929 . S
C812 N808 1.418 1_545 S
C812 C811 1.251 . S
C813 H780 0.930 . S
C813 C815 1.406 . S
C813 C818 1.261 . S
C814 H781 0.930 . S
C814 N816 1.325 . S
C814 C817 1.357 . S
C815 H783 0.928 . S
C815 C813 1.406 . S
C815 N816 1.261 . S
N816 Co767 2.214 1_545 S
N816 C814 1.325 . S
N816 C815 1.261 . S
C817 H787 0.931 1_556 S
C817 C814 1.357 . S
C817 C818 1.312 . S
C818 H789 0.930 . S
C818 C813 1.261 . S
C818 C817 1.312 . S
C819 O791 1.214 . S
C819 O799 1.234 . S
C820 H792 0.929 . S
C820 C823 1.391 . S
C820 C825 1.391 . S
C821 H793 0.929 . S
C821 C822 1.390 . S
C821 N824 1.391 . S
C822 H794 0.930 . S
C822 C821 1.390 . S
C822 C823 1.392 . S
C823 H795 0.929 . S
C823 C820 1.391 . S
C823 C822 1.392 . S
N824 Co768 2.257 . S
N824 C821 1.391 . S
N824 C825 1.388 . S
C825 H796 0.930 . S
C825 C820 1.391 . S
C825 N824 1.388 . S
Co826 O828 2.143 . S
Co826 O834 2.074 . S
Co826 O837 2.093 . S
Co826 O850 2.097 . S
Co826 N867 2.151 . S
Co826 N875 2.214 . S
Co827 O828 2.160 . S
Co827 O833 2.058 . S
Co827 O843 2.057 . S
Co827 O858 2.037 . S
Co827 N862 2.145 . S
Co827 N883 2.257 . S
O828 Co826 2.143 . S
O828 Co827 2.160 . S
C829 O830 1.278 . S
C829 O837 1.224 . S
O830 C829 1.278 . S
C831 O832 1.245 . S
C831 O843 1.232 . S
O832 C831 1.245 . S
O833 Co827 2.058 . S
O833 C859 1.269 . S
O834 Co826 2.074 . S
O834 C859 1.257 . S
H835 C860 0.930 . S
H836 C866 0.930 . S
O837 Co826 2.093 . S
O837 C829 1.224 . S
H838 C870 0.929 . S
H839 C872 0.930 . S
H840 C873 0.930 . S
H841 C871 0.929 1_455 S
H842 C874 0.928 . S
O843 Co827 2.057 . S
O843 C831 1.232 . S
H844 C863 0.929 . S
H845 C864 0.929 . S
H846 C876 0.931 . S
H847 C868 0.929 . S
H848 C877 0.930 . S
H849 C869 0.931 . S
O850 Co826 2.097 . S
O850 C878 1.214 . S
H851 C879 0.929 1_554 S
H852 C880 0.929 . S
H853 C881 0.930 . S
H854 C882 0.929 1_554 S
H855 C884 0.930 . S
H856 C861 0.930 . S
H857 C865 0.930 . S
O858 Co827 2.037 . S
O858 C878 1.234 . S
C859 O833 1.269 . S
C859 O834 1.257 . S
C860 H835 0.930 . S
C860 C863 1.388 . S
C860 C865 1.418 . S
C861 H856 0.930 . S
C861 C864 1.404 . S
C861 C865 1.353 . S
N862 Co827 2.145 . S
N862 C863 1.397 . S
N862 C864 1.334 . S
C863 H844 0.929 . S
C863 C860 1.388 . S
C863 N862 1.397 . S
C864 H845 0.929 . S
C864 C861 1.404 . S
C864 N862 1.334 . S
C865 H857 0.930 . S
C865 C860 1.418 . S
C865 C861 1.353 . S
C866 H836 0.930 . S
C866 N867 1.330 . S
C866 C868 1.446 1_455 S
N867 Co826 2.151 . S
N867 C866 1.330 . S
N867 C871 1.418 1_455 S
C868 H847 0.929 . S
C868 C866 1.446 1_655 S
C868 C869 1.332 . S
C869 H849 0.931 . S
C869 C868 1.332 . S
C869 C870 1.267 . S
C870 H838 0.929 . S
C870 C869 1.267 . S
C870 C871 1.251 . S
C871 H841 0.929 1_655 S
C871 N867 1.418 1_655 S
C871 C870 1.251 . S
C872 H839 0.930 . S
C872 C874 1.406 . S
C872 C877 1.261 . S
C873 H840 0.930 . S
C873 N875 1.325 . S
C873 C876 1.357 . S
C874 H842 0.928 . S
C874 C872 1.406 . S
C874 N875 1.261 . S
N875 Co826 2.214 . S
N875 C873 1.325 . S
N875 C874 1.261 . S
C876 H846 0.931 . S
C876 C873 1.357 . S
C876 C877 1.312 . S
C877 H848 0.930 . S
C877 C872 1.261 . S
C877 C876 1.312 . S
C878 O850 1.214 . S
C878 O858 1.234 . S
C879 H851 0.929 1_556 S
C879 C882 1.391 . S
C879 C884 1.391 . S
C880 H852 0.929 . S
C880 C881 1.390 . S
C880 N883 1.391 . S
C881 H853 0.930 . S
C881 C880 1.390 . S
C881 C882 1.392 . S
C882 H854 0.929 1_556 S
C882 C879 1.391 . S
C882 C881 1.392 . S
N883 Co827 2.257 . S
N883 C880 1.391 . S
N883 C884 1.388 . S
C884 H855 0.930 . S
C884 C879 1.391 . S
C884 N883 1.388 . S
Co885 O887 2.143 . S
Co885 O893 2.074 . S
Co885 O896 2.093 . S
Co885 O909 2.097 . S
Co885 N926 2.151 . S
Co885 N934 2.214 . S
Co886 O887 2.160 . S
Co886 O892 2.058 . S
Co886 O902 2.057 . S
Co886 O917 2.037 . S
Co886 N921 2.145 . S
Co886 N942 2.257 . S
O887 Co885 2.143 . S
O887 Co886 2.160 . S
C888 O889 1.278 . S
C888 O896 1.224 . S
O889 C888 1.278 . S
C890 O891 1.245 . S
C890 O902 1.232 . S
O891 C890 1.245 . S
O892 Co886 2.058 . S
O892 C918 1.269 . S
O893 Co885 2.074 . S
O893 C918 1.257 . S
H894 C919 0.930 . S
H895 C925 0.933 1_565 S
O896 Co885 2.093 . S
O896 C888 1.224 . S
H897 C929 0.929 . S
H898 C931 0.930 . S
H899 C932 0.930 . S
H900 C930 0.929 . S
H901 C933 0.928 . S
O902 Co886 2.057 . S
O902 C890 1.232 . S
H903 C922 0.929 . S
H904 C923 0.929 . S
H905 C935 0.931 . S
H906 C927 0.929 . S
H907 C936 0.930 . S
H908 C928 0.931 . S
O909 Co885 2.097 . S
O909 C937 1.214 . S
H910 C938 0.929 . S
H911 C939 0.929 . S
H912 C940 0.930 . S
H913 C941 0.929 . S
H914 C943 0.930 . S
H915 C920 0.930 . S
H916 C924 0.930 . S
O917 Co886 2.037 . S
O917 C937 1.234 . S
C918 O892 1.269 . S
C918 O893 1.257 . S
C919 H894 0.930 . S
C919 C922 1.388 . S
C919 C924 1.418 . S
C920 H915 0.930 . S
C920 C923 1.404 . S
C920 C924 1.353 . S
N921 Co886 2.145 . S
N921 C922 1.397 . S
N921 C923 1.334 . S
C922 H903 0.929 . S
C922 C919 1.388 . S
C922 N921 1.397 . S
C923 H904 0.929 . S
C923 C920 1.404 . S
C923 N921 1.334 . S
C924 H916 0.930 . S
C924 C919 1.418 . S
C924 C920 1.353 . S
C925 H895 0.933 1_545 S
C925 N926 1.330 1_545 S
C925 C927 1.443 . S
N926 Co885 2.151 . S
N926 C925 1.330 1_565 S
N926 C930 1.418 1_565 S
C927 H906 0.929 . S
C927 C925 1.443 . S
C927 C928 1.332 . S
C928 H908 0.931 . S
C928 C927 1.332 . S
C928 C929 1.267 . S
C929 H897 0.929 . S
C929 C928 1.267 . S
C929 C930 1.251 . S
C930 H900 0.929 . S
C930 N926 1.418 1_545 S
C930 C929 1.251 . S
C931 H898 0.930 . S
C931 C933 1.406 . S
C931 C936 1.261 . S
C932 H899 0.930 . S
C932 N934 1.325 . S
C932 C935 1.357 . S
C933 H901 0.928 . S
C933 C931 1.406 . S
C933 N934 1.261 . S
N934 Co885 2.214 . S
N934 C932 1.325 . S
N934 C933 1.261 . S
C935 H905 0.931 . S
C935 C932 1.357 . S
C935 C936 1.312 . S
C936 H907 0.930 . S
C936 C931 1.261 . S
C936 C935 1.312 . S
C937 O909 1.214 . S
C937 O917 1.234 . S
C938 H910 0.929 . S
C938 C941 1.391 . S
C938 C943 1.391 . S
C939 H911 0.929 . S
C939 C940 1.390 . S
C939 N942 1.391 . S
C940 H912 0.930 . S
C940 C939 1.390 . S
C940 C941 1.392 . S
C941 H913 0.929 . S
C941 C938 1.391 . S
C941 C940 1.392 . S
N942 Co886 2.257 . S
N942 C939 1.391 . S
N942 C943 1.388 . S
C943 H914 0.930 . S
C943 C938 1.391 . S
C943 N942 1.388 . S
Co944 O946 2.143 . S
Co944 O952 2.074 . S
Co944 O955 2.093 . S
Co944 O968 2.097 . S
Co944 N985 2.151 . S
Co944 N993 2.214 . S
Co945 O946 2.160 . S
Co945 O951 2.058 . S
Co945 O961 2.057 . S
Co945 O976 2.037 . S
Co945 N980 2.145 . S
Co945 N1001 2.257 . S
O946 Co944 2.143 . S
O946 Co945 2.160 . S
C947 O948 1.278 . S
C947 O955 1.224 . S
O948 C947 1.278 . S
C949 O950 1.245 . S
C949 O961 1.232 . S
O950 C949 1.245 . S
O951 Co945 2.058 . S
O951 C977 1.269 . S
O952 Co944 2.074 . S
O952 C977 1.257 . S
H953 C978 0.930 . S
H954 C984 0.930 . S
O955 Co944 2.093 . S
O955 C947 1.224 . S
H956 C988 0.929 . S
H957 C990 0.930 . S
H958 C991 0.930 . S
H959 C989 0.929 . S
H960 C992 0.928 . S
O961 Co945 2.057 . S
O961 C949 1.232 . S
H962 C981 0.929 . S
H963 C982 0.929 . S
H964 C994 0.931 . S
H965 C986 0.929 . S
H966 C995 0.930 . S
H967 C987 0.931 . S
O968 Co944 2.097 . S
O968 C996 1.214 . S
H969 C997 0.929 . S
H970 C998 0.929 . S
H971 C999 0.930 . S
H972 C1000 0.929 . S
H973 C1002 0.930 . S
H974 C979 0.930 . S
H975 C983 0.930 . S
O976 Co945 2.037 . S
O976 C996 1.234 . S
C977 O951 1.269 . S
C977 O952 1.257 . S
C978 H953 0.930 . S
C978 C981 1.388 . S
C978 C983 1.418 . S
C979 H974 0.930 . S
C979 C982 1.404 . S
C979 C983 1.353 . S
N980 Co945 2.145 . S
N980 C981 1.397 . S
N980 C982 1.334 . S
C981 H962 0.929 . S
C981 C978 1.388 . S
C981 N980 1.397 . S
C982 H963 0.929 . S
C982 C979 1.404 . S
C982 N980 1.334 . S
C983 H975 0.930 . S
C983 C978 1.418 . S
C983 C979 1.353 . S
C984 H954 0.930 . S
C984 N985 1.330 . S
C984 C986 1.446 1_455 S
N985 Co944 2.151 . S
N985 C984 1.330 . S
N985 C989 1.418 . S
C986 H965 0.929 . S
C986 C984 1.446 1_655 S
C986 C987 1.332 . S
C987 H967 0.931 . S
C987 C986 1.332 . S
C987 C988 1.267 . S
C988 H956 0.929 . S
C988 C987 1.267 . S
C988 C989 1.251 1_655 S
C989 H959 0.929 . S
C989 N985 1.418 . S
C989 C988 1.251 1_455 S
C990 H957 0.930 . S
C990 C992 1.406 . S
C990 C995 1.261 . S
C991 H958 0.930 . S
C991 N993 1.325 . S
C991 C994 1.357 . S
C992 H960 0.928 . S
C992 C990 1.406 . S
C992 N993 1.261 . S
N993 Co944 2.214 . S
N993 C991 1.325 . S
N993 C992 1.261 . S
C994 H964 0.931 . S
C994 C991 1.357 . S
C994 C995 1.312 . S
C995 H966 0.930 . S
C995 C990 1.261 . S
C995 C994 1.312 . S
C996 O968 1.214 . S
C996 O976 1.234 . S
C997 H969 0.929 . S
C997 C1000 1.391 . S
C997 C1002 1.391 . S
C998 H970 0.929 . S
C998 C999 1.390 . S
C998 N1001 1.391 . S
C999 H971 0.930 . S
C999 C998 1.390 . S
C999 C1000 1.392 . S
C1000 H972 0.929 . S
C1000 C997 1.391 . S
C1000 C999 1.392 . S
N1001 Co945 2.257 . S
N1001 C998 1.391 . S
N1001 C1002 1.388 . S
C1002 H973 0.930 . S
C1002 C997 1.391 . S
C1002 N1001 1.388 . S
Co1003 O1005 2.143 . S
Co1003 O1011 2.074 . S
Co1003 O1014 2.093 . S
Co1003 O1027 2.097 . S
Co1003 N1044 2.151 . S
Co1003 N1052 2.214 . S
Co1004 O1005 2.160 . S
Co1004 O1010 2.058 . S
Co1004 O1020 2.057 . S
Co1004 O1035 2.037 . S
Co1004 N1039 2.145 . S
Co1004 N1060 2.257 . S
O1005 Co1003 2.143 . S
O1005 Co1004 2.160 . S
C1006 O1007 1.278 . S
C1006 O1014 1.224 . S
O1007 C1006 1.278 . S
C1008 O1009 1.245 . S
C1008 O1020 1.232 . S
O1009 C1008 1.245 . S
O1010 Co1004 2.058 . S
O1010 C1036 1.269 . S
O1011 Co1003 2.074 . S
O1011 C1036 1.257 . S
H1012 C1037 0.930 . S
H1013 C1043 0.930 . S
O1014 Co1003 2.093 . S
O1014 C1006 1.224 . S
H1015 C1047 0.929 . S
H1016 C1049 0.930 . S
H1017 C1050 0.930 . S
H1018 C1048 0.929 . S
H1019 C1051 0.928 . S
O1020 Co1004 2.057 . S
O1020 C1008 1.232 . S
H1021 C1040 0.929 . S
H1022 C1041 0.929 . S
H1023 C1053 0.931 . S
H1024 C1045 0.929 . S
H1025 C1054 0.930 . S
H1026 C1046 0.931 . S
O1027 Co1003 2.097 . S
O1027 C1055 1.214 . S
H1028 C1056 0.929 . S
H1029 C1057 0.929 . S
H1030 C1058 0.930 . S
H1031 C1059 0.929 . S
H1032 C1061 0.930 . S
H1033 C1038 0.930 . S
H1034 C1042 0.930 . S
O1035 Co1004 2.037 . S
O1035 C1055 1.234 . S
C1036 O1010 1.269 . S
C1036 O1011 1.257 . S
C1037 H1012 0.930 . S
C1037 C1040 1.388 . S
C1037 C1042 1.418 . S
C1038 H1033 0.930 . S
C1038 C1041 1.404 . S
C1038 C1042 1.353 . S
N1039 Co1004 2.145 . S
N1039 C1040 1.397 . S
N1039 C1041 1.334 . S
C1040 H1021 0.929 . S
C1040 C1037 1.388 . S
C1040 N1039 1.397 . S
C1041 H1022 0.929 . S
C1041 C1038 1.404 . S
C1041 N1039 1.334 . S
C1042 H1034 0.930 . S
C1042 C1037 1.418 . S
C1042 C1038 1.353 . S
C1043 H1013 0.930 . S
C1043 N1044 1.330 . S
C1043 C1045 1.446 . S
N1044 Co1003 2.151 . S
N1044 C1043 1.330 . S
N1044 C1048 1.418 . S
C1045 H1024 0.929 . S
C1045 C1043 1.446 . S
C1045 C1046 1.332 . S
C1046 H1026 0.931 . S
C1046 C1045 1.332 . S
C1046 C1047 1.267 . S
C1047 H1015 0.929 . S
C1047 C1046 1.267 . S
C1047 C1048 1.251 . S
C1048 H1018 0.929 . S
C1048 N1044 1.418 . S
C1048 C1047 1.251 . S
C1049 H1016 0.930 . S
C1049 C1051 1.406 . S
C1049 C1054 1.261 . S
C1050 H1017 0.930 . S
C1050 N1052 1.325 . S
C1050 C1053 1.357 . S
C1051 H1019 0.928 . S
C1051 C1049 1.406 . S
C1051 N1052 1.261 . S
N1052 Co1003 2.214 . S
N1052 C1050 1.325 . S
N1052 C1051 1.261 . S
C1053 H1023 0.931 . S
C1053 C1050 1.357 . S
C1053 C1054 1.312 . S
C1054 H1025 0.930 . S
C1054 C1049 1.261 . S
C1054 C1053 1.312 . S
C1055 O1027 1.214 . S
C1055 O1035 1.234 . S
C1056 H1028 0.929 . S
C1056 C1059 1.391 . S
C1056 C1061 1.391 . S
C1057 H1029 0.929 . S
C1057 C1058 1.390 . S
C1057 N1060 1.391 . S
C1058 H1030 0.930 . S
C1058 C1057 1.390 . S
C1058 C1059 1.392 . S
C1059 H1031 0.929 . S
C1059 C1056 1.391 . S
C1059 C1058 1.392 . S
N1060 Co1004 2.257 . S
N1060 C1057 1.391 . S
N1060 C1061 1.388 . S
C1061 H1032 0.930 . S
C1061 C1056 1.391 . S
C1061 N1060 1.388 . S
H1062 C1070 0.950 . S
H1063 C1075 0.950 . S
H1064 C1072 0.950 . S
H1065 C1074 0.950 . S
H1066 C1076 0.950 1_556 S
H1067 C1078 0.950 . S
H1068 C1080 0.950 . S
H1069 C1081 0.950 . S
C1070 H1062 0.950 . S
C1070 C1071 1.386 . S
C1070 C1072 1.391 . S
C1071 C1070 1.386 . S
C1071 C1075 1.393 . S
C1072 H1064 0.950 . S
C1072 C1070 1.391 . S
C1072 C1073 1.400 . S
C1073 C1072 1.400 . S
C1073 C1074 1.398 . S
C1073 C1079 1.491 . S
C1074 H1065 0.950 . S
C1074 C1073 1.398 . S
C1074 C1075 1.391 . S
C1075 H1063 0.950 . S
C1075 C1071 1.393 . S
C1075 C1074 1.391 . S
C1076 H1066 0.950 1_554 S
C1076 C1077 1.386 . S
C1076 C1078 1.391 . S
C1077 C1076 1.386 . S
C1077 C1081 1.393 . S
C1078 H1067 0.950 . S
C1078 C1076 1.391 . S
C1078 C1079 1.400 . S
C1079 C1073 1.491 . S
C1079 C1078 1.400 . S
C1079 C1080 1.398 . S
C1080 H1068 0.950 . S
C1080 C1079 1.398 . S
C1080 C1081 1.391 . S
C1081 H1069 0.950 . S
C1081 C1077 1.393 . S
C1081 C1080 1.391 . S
H1082 C1090 0.948 . S
H1083 C1095 0.950 . S
H1084 C1092 0.950 . S
H1085 C1094 0.950 . S
H1086 C1096 0.950 . S
H1087 C1098 0.950 . S
H1088 C1100 0.950 . S
H1089 C1101 0.950 . S
C1090 H1082 0.948 . S
C1090 C1091 1.386 . S
C1090 C1092 1.391 . S
C1091 C1090 1.386 . S
C1091 C1095 1.393 . S
C1092 H1084 0.950 . S
C1092 C1090 1.391 . S
C1092 C1093 1.400 . S
C1093 C1092 1.400 . S
C1093 C1094 1.398 . S
C1093 C1099 1.491 . S
C1094 H1085 0.950 . S
C1094 C1093 1.398 . S
C1094 C1095 1.391 . S
C1095 H1083 0.950 . S
C1095 C1091 1.393 . S
C1095 C1094 1.391 . S
C1096 H1086 0.950 . S
C1096 C1097 1.386 . S
C1096 C1098 1.391 . S
C1097 C1096 1.386 . S
C1097 C1101 1.393 . S
C1098 H1087 0.950 . S
C1098 C1096 1.391 . S
C1098 C1099 1.400 . S
C1099 C1093 1.491 . S
C1099 C1098 1.400 . S
C1099 C1100 1.398 . S
C1100 H1088 0.950 . S
C1100 C1099 1.398 . S
C1100 C1101 1.391 . S
C1101 H1089 0.950 . S
C1101 C1097 1.393 . S
C1101 C1100 1.391 . S
H1102 C1110 0.950 . S
H1103 C1115 0.950 . S
H1104 C1112 0.950 . S
H1105 C1114 0.950 . S
H1106 C1116 0.950 . S
H1107 C1118 0.950 . S
H1108 C1120 0.950 1_545 S
H1109 C1121 0.950 . S
C1110 H1102 0.950 . S
C1110 C1111 1.386 1_545 S
C1110 C1112 1.391 . S
C1111 C1110 1.386 1_565 S
C1111 C1115 1.393 . S
C1112 H1104 0.950 . S
C1112 C1110 1.391 . S
C1112 C1113 1.400 1_545 S
C1113 C1112 1.400 1_565 S
C1113 C1114 1.398 . S
C1113 C1119 1.491 . S
C1114 H1105 0.950 . S
C1114 C1113 1.398 . S
C1114 C1115 1.391 . S
C1115 H1103 0.950 . S
C1115 C1111 1.393 . S
C1115 C1114 1.391 . S
C1116 H1106 0.950 . S
C1116 C1117 1.386 . S
C1116 C1118 1.391 . S
C1117 C1116 1.386 . S
C1117 C1121 1.393 . S
C1118 H1107 0.950 . S
C1118 C1116 1.391 . S
C1118 C1119 1.400 . S
C1119 C1113 1.491 . S
C1119 C1118 1.400 . S
C1119 C1120 1.398 . S
C1120 H1108 0.950 1_565 S
C1120 C1119 1.398 . S
C1120 C1121 1.391 . S
C1121 H1109 0.950 . S
C1121 C1117 1.393 . S
C1121 C1120 1.391 . S
H1122 C1130 0.950 . S
H1123 C1135 0.950 . S
H1124 C1132 0.950 . S
H1125 C1134 0.950 . S
H1126 C1136 0.950 . S
H1127 C1138 0.950 . S
H1128 C1140 0.950 . S
H1129 C1141 0.950 . S
C1130 H1122 0.950 . S
C1130 C1131 1.386 . S
C1130 C1132 1.391 . S
C1131 C1130 1.386 . S
C1131 C1135 1.393 . S
C1132 H1124 0.950 . S
C1132 C1130 1.391 . S
C1132 C1133 1.400 . S
C1133 C1132 1.400 . S
C1133 C1134 1.398 . S
C1133 C1139 1.491 . S
C1134 H1125 0.950 . S
C1134 C1133 1.398 . S
C1134 C1135 1.391 . S
C1135 H1123 0.950 . S
C1135 C1131 1.393 . S
C1135 C1134 1.391 . S
C1136 H1126 0.950 . S
C1136 C1137 1.386 . S
C1136 C1138 1.391 . S
C1137 C1136 1.386 . S
C1137 C1141 1.393 . S
C1138 H1127 0.950 . S
C1138 C1136 1.391 . S
C1138 C1139 1.400 . S
C1139 C1133 1.491 . S
C1139 C1138 1.400 . S
C1139 C1140 1.398 . S
C1140 H1128 0.950 . S
C1140 C1139 1.398 . S
C1140 C1141 1.391 . S
C1141 H1129 0.950 . S
C1141 C1137 1.393 . S
C1141 C1140 1.391 . S
H1142 C1150 0.950 . S
H1143 C1155 0.950 . S
H1144 C1152 0.950 . S
H1145 C1154 0.950 . S
H1146 C1156 0.950 . S
H1147 C1158 0.950 1_455 S
H1148 C1160 0.950 . S
H1149 C1161 0.950 . S
C1150 H1142 0.950 . S
C1150 C1151 1.386 . S
C1150 C1152 1.391 . S
C1151 C1150 1.386 . S
C1151 C1155 1.393 . S
C1152 H1144 0.950 . S
C1152 C1150 1.391 . S
C1152 C1153 1.400 . S
C1153 C1152 1.400 . S
C1153 C1154 1.398 . S
C1153 C1159 1.491 . S
C1154 H1145 0.950 . S
C1154 C1153 1.398 . S
C1154 C1155 1.391 . S
C1155 H1143 0.950 . S
C1155 C1151 1.393 . S
C1155 C1154 1.391 . S
C1156 H1146 0.950 . S
C1156 C1157 1.386 1_455 S
C1156 C1158 1.391 1_455 S
C1157 C1156 1.386 1_655 S
C1157 C1161 1.393 . S
C1158 H1147 0.950 1_655 S
C1158 C1156 1.391 1_655 S
C1158 C1159 1.400 . S
C1159 C1153 1.491 . S
C1159 C1158 1.400 . S
C1159 C1160 1.398 . S
C1160 H1148 0.950 . S
C1160 C1159 1.398 . S
C1160 C1161 1.391 . S
C1161 H1149 0.950 . S
C1161 C1157 1.393 . S
C1161 C1160 1.391 . S
H1162 C1170 0.950 . S
H1163 C1175 0.950 . S
H1164 C1172 0.950 . S
H1165 C1174 0.950 . S
H1166 C1176 0.950 . S
H1167 C1178 0.950 . S
H1168 C1180 0.950 . S
H1169 C1181 0.950 . S
C1170 H1162 0.950 . S
C1170 C1171 1.386 . S
C1170 C1172 1.391 . S
C1171 C1170 1.386 . S
C1171 C1175 1.393 . S
C1172 H1164 0.950 . S
C1172 C1170 1.391 . S
C1172 C1173 1.400 . S
C1173 C1172 1.400 . S
C1173 C1174 1.398 . S
C1173 C1179 1.491 . S
C1174 H1165 0.950 . S
C1174 C1173 1.398 . S
C1174 C1175 1.391 . S
C1175 H1163 0.950 . S
C1175 C1171 1.393 . S
C1175 C1174 1.391 . S
C1176 H1166 0.950 . S
C1176 C1177 1.386 . S
C1176 C1178 1.391 . S
C1177 C1176 1.386 . S
C1177 C1181 1.393 . S
C1178 H1167 0.950 . S
C1178 C1176 1.391 . S
C1178 C1179 1.400 . S
C1179 C1173 1.491 . S
C1179 C1178 1.400 . S
C1179 C1180 1.398 . S
C1180 H1168 0.950 . S
C1180 C1179 1.398 . S
C1180 C1181 1.391 . S
C1181 H1169 0.950 . S
C1181 C1177 1.393 . S
C1181 C1180 1.391 . S
H1182 C1190 0.950 . S
H1183 C1195 0.950 . S
H1184 C1192 0.950 . S
H1185 C1194 0.950 . S
H1186 C1196 0.950 1_554 S
H1187 C1198 0.950 . S
H1188 C1200 0.950 . S
H1189 C1201 0.950 . S
C1190 H1182 0.950 . S
C1190 C1191 1.386 . S
C1190 C1192 1.391 . S
C1191 C1190 1.386 . S
C1191 C1195 1.393 . S
C1192 H1184 0.950 . S
C1192 C1190 1.391 . S
C1192 C1193 1.400 . S
C1193 C1192 1.400 . S
C1193 C1194 1.398 . S
C1193 C1199 1.491 . S
C1194 H1185 0.950 . S
C1194 C1193 1.398 . S
C1194 C1195 1.391 . S
C1195 H1183 0.950 . S
C1195 C1191 1.393 . S
C1195 C1194 1.391 . S
C1196 H1186 0.950 1_556 S
C1196 C1197 1.386 . S
C1196 C1198 1.391 . S
C1197 C1196 1.386 . S
C1197 C1201 1.393 . S
C1198 H1187 0.950 . S
C1198 C1196 1.391 . S
C1198 C1199 1.400 . S
C1199 C1193 1.491 . S
C1199 C1198 1.400 . S
C1199 C1200 1.398 . S
C1200 H1188 0.950 . S
C1200 C1199 1.398 . S
C1200 C1201 1.391 . S
C1201 H1189 0.950 . S
C1201 C1197 1.393 . S
C1201 C1200 1.391 . S
H1202 C1210 0.950 . S
H1203 C1215 0.950 . S
H1204 C1212 0.950 . S
H1205 C1214 0.950 . S
H1206 C1216 0.950 . S
H1207 C1218 0.950 . S
H1208 C1220 0.950 . S
H1209 C1221 0.950 . S
C1210 H1202 0.950 . S
C1210 C1211 1.386 . S
C1210 C1212 1.391 . S
C1211 C1210 1.386 . S
C1211 C1215 1.393 . S
C1212 H1204 0.950 . S
C1212 C1210 1.391 . S
C1212 C1213 1.400 . S
C1213 C1212 1.400 . S
C1213 C1214 1.398 . S
C1213 C1219 1.491 . S
C1214 H1205 0.950 . S
C1214 C1213 1.398 . S
C1214 C1215 1.391 . S
C1215 H1203 0.950 . S
C1215 C1211 1.393 . S
C1215 C1214 1.391 . S
C1216 H1206 0.950 . S
C1216 C1217 1.386 . S
C1216 C1218 1.391 . S
C1217 C1216 1.386 . S
C1217 C1221 1.393 . S
C1218 H1207 0.950 . S
C1218 C1216 1.391 . S
C1218 C1219 1.400 . S
C1219 C1213 1.491 . S
C1219 C1218 1.400 . S
C1219 C1220 1.398 . S
C1220 H1208 0.950 . S
C1220 C1219 1.398 . S
C1220 C1221 1.391 . S
C1221 H1209 0.950 . S
C1221 C1217 1.393 . S
C1221 C1220 1.391 . S
H1222 C1230 0.950 . S
H1223 C1235 0.950 . S
H1224 C1232 0.950 1_565 S
H1225 C1234 0.950 . S
H1226 C1236 0.950 . S
H1227 C1238 0.950 . S
H1228 C1240 0.950 1_565 S
H1229 C1241 0.921 1_565 S
C1230 H1222 0.950 . S
C1230 C1231 1.386 . S
C1230 C1232 1.391 . S
C1231 C1230 1.386 . S
C1231 C1235 1.393 . S
C1232 H1224 0.950 1_545 S
C1232 C1230 1.391 . S
C1232 C1233 1.400 . S
C1233 C1232 1.400 . S
C1233 C1234 1.398 . S
C1233 C1239 1.491 . S
C1234 H1225 0.950 . S
C1234 C1233 1.398 . S
C1234 C1235 1.391 . S
C1235 H1223 0.950 . S
C1235 C1231 1.393 . S
C1235 C1234 1.391 . S
C1236 H1226 0.950 . S
C1236 C1237 1.386 . S
C1236 C1238 1.391 . S
C1237 C1236 1.386 . S
C1237 C1241 1.425 . S
C1238 H1227 0.950 . S
C1238 C1236 1.391 . S
C1238 C1239 1.400 . S
C1239 C1233 1.491 . S
C1239 C1238 1.400 . S
C1239 C1240 1.398 . S
C1240 H1228 0.950 1_545 S
C1240 C1239 1.398 . S
C1240 C1241 1.388 . S
C1241 H1229 0.921 1_545 S
C1241 C1237 1.425 . S
C1241 C1240 1.388 . S
H1242 C1250 0.950 . S
H1243 C1255 0.950 . S
H1244 C1252 0.950 . S
H1245 C1254 0.950 . S
H1246 C1256 0.950 . S
H1247 C1258 0.950 . S
H1248 C1260 0.950 . S
H1249 C1261 0.950 . S
C1250 H1242 0.950 . S
C1250 C1251 1.386 . S
C1250 C1252 1.391 . S
C1251 C1250 1.386 . S
C1251 C1255 1.393 . S
C1252 H1244 0.950 . S
C1252 C1250 1.391 . S
C1252 C1253 1.400 . S
C1253 C1252 1.400 . S
C1253 C1254 1.398 . S
C1253 C1259 1.491 . S
C1254 H1245 0.950 . S
C1254 C1253 1.398 . S
C1254 C1255 1.391 . S
C1255 H1243 0.950 . S
C1255 C1251 1.393 . S
C1255 C1254 1.391 . S
C1256 H1246 0.950 . S
C1256 C1257 1.386 . S
C1256 C1258 1.391 . S
C1257 C1256 1.386 . S
C1257 C1261 1.393 . S
C1258 H1247 0.950 . S
C1258 C1256 1.391 . S
C1258 C1259 1.400 . S
C1259 C1253 1.491 . S
C1259 C1258 1.400 . S
C1259 C1260 1.398 . S
C1260 H1248 0.950 . S
C1260 C1259 1.398 . S
C1260 C1261 1.391 . S
C1261 H1249 0.950 . S
C1261 C1257 1.393 . S
C1261 C1260 1.391 . S
H1262 C1270 0.950 . S
H1263 C1275 0.950 . S
H1264 C1272 0.950 . S
H1265 C1274 0.950 . S
H1266 C1276 0.950 . S
H1267 C1278 0.950 . S
H1268 C1280 0.950 . S
H1269 C1281 0.950 . S
C1270 H1262 0.950 . S
C1270 C1271 1.386 . S
C1270 C1272 1.391 . S
C1271 C1270 1.386 . S
C1271 C1275 1.393 . S
C1272 H1264 0.950 . S
C1272 C1270 1.391 . S
C1272 C1273 1.400 . S
C1273 C1272 1.400 . S
C1273 C1274 1.398 . S
C1273 C1279 1.491 . S
C1274 H1265 0.950 . S
C1274 C1273 1.398 . S
C1274 C1275 1.391 . S
C1275 H1263 0.950 . S
C1275 C1271 1.393 . S
C1275 C1274 1.391 . S
C1276 H1266 0.950 . S
C1276 C1277 1.386 . S
C1276 C1278 1.391 . S
C1277 C1276 1.386 . S
C1277 C1281 1.393 . S
C1278 H1267 0.950 . S
C1278 C1276 1.391 . S
C1278 C1279 1.400 . S
C1279 C1273 1.491 . S
C1279 C1278 1.400 . S
C1279 C1280 1.398 . S
C1280 H1268 0.950 . S
C1280 C1279 1.398 . S
C1280 C1281 1.391 . S
C1281 H1269 0.950 . S
C1281 C1277 1.393 . S
C1281 C1280 1.391 . S
H1282 C1290 0.950 . S
H1283 C1295 0.950 . S
H1284 C1292 0.950 . S
H1285 C1294 0.950 . S
H1286 C1296 0.950 . S
H1287 C1298 0.950 . S
H1288 C1300 0.950 . S
H1289 C1301 0.950 . S
C1290 H1282 0.950 . S
C1290 C1291 1.386 . S
C1290 C1292 1.391 . S
C1291 C1290 1.386 . S
C1291 C1295 1.393 . S
C1292 H1284 0.950 . S
C1292 C1290 1.391 . S
C1292 C1293 1.400 . S
C1293 C1292 1.400 . S
C1293 C1294 1.398 . S
C1293 C1299 1.491 . S
C1294 H1285 0.950 . S
C1294 C1293 1.398 . S
C1294 C1295 1.391 . S
C1295 H1283 0.950 . S
C1295 C1291 1.393 . S
C1295 C1294 1.391 . S
C1296 H1286 0.950 . S
C1296 C1297 1.386 . S
C1296 C1298 1.391 . S
C1297 C1296 1.386 . S
C1297 C1301 1.393 . S
C1298 H1287 0.950 . S
C1298 C1296 1.391 . S
C1298 C1299 1.400 . S
C1299 C1293 1.491 . S
C1299 C1298 1.400 . S
C1299 C1300 1.398 . S
C1300 H1288 0.950 . S
C1300 C1299 1.398 . S
C1300 C1301 1.391 . S
C1301 H1289 0.950 . S
C1301 C1297 1.393 . S
C1301 C1300 1.391 . S
H1302 C1310 0.950 . S
H1303 C1315 0.950 . S
H1304 C1312 0.950 . S
H1305 C1314 0.950 . S
H1306 C1316 0.950 . S
H1307 C1318 0.950 . S
H1308 C1320 0.950 . S
H1309 C1321 0.950 . S
C1310 H1302 0.950 . S
C1310 C1311 1.386 . S
C1310 C1312 1.391 . S
C1311 C1310 1.386 . S
C1311 C1315 1.393 . S
C1312 H1304 0.950 . S
C1312 C1310 1.391 . S
C1312 C1313 1.400 . S
C1313 C1312 1.400 . S
C1313 C1314 1.398 . S
C1313 C1319 1.491 . S
C1314 H1305 0.950 . S
C1314 C1313 1.398 . S
C1314 C1315 1.391 . S
C1315 H1303 0.950 . S
C1315 C1311 1.393 . S
C1315 C1314 1.391 . S
C1316 H1306 0.950 . S
C1316 C1317 1.386 . S
C1316 C1318 1.391 . S
C1317 C1316 1.386 . S
C1317 C1321 1.393 . S
C1318 H1307 0.950 . S
C1318 C1316 1.391 . S
C1318 C1319 1.400 . S
C1319 C1313 1.491 . S
C1319 C1318 1.400 . S
C1319 C1320 1.398 . S
C1320 H1308 0.950 . S
C1320 C1319 1.398 . S
C1320 C1321 1.391 . S
C1321 H1309 0.950 . S
C1321 C1317 1.393 . S
C1321 C1320 1.391 . S
H1322 C1330 0.950 . S
H1323 C1335 0.950 . S
H1324 C1332 0.950 . S
H1325 C1334 0.950 . S
H1326 C1336 0.950 . S
H1327 C1338 0.950 . S
H1328 C1340 0.950 . S
H1329 C1341 0.950 . S
C1330 H1322 0.950 . S
C1330 C1331 1.386 . S
C1330 C1332 1.391 . S
C1331 C1330 1.386 . S
C1331 C1335 1.393 . S
C1332 H1324 0.950 . S
C1332 C1330 1.391 . S
C1332 C1333 1.400 . S
C1333 C1332 1.400 . S
C1333 C1334 1.398 . S
C1333 C1339 1.491 . S
C1334 H1325 0.950 . S
C1334 C1333 1.398 . S
C1334 C1335 1.391 . S
C1335 H1323 0.950 . S
C1335 C1331 1.393 . S
C1335 C1334 1.391 . S
C1336 H1326 0.950 . S
C1336 C1337 1.386 . S
C1336 C1338 1.391 . S
C1337 C1336 1.386 . S
C1337 C1341 1.393 1_565 S
C1338 H1327 0.950 . S
C1338 C1336 1.391 . S
C1338 C1339 1.400 1_565 S
C1339 C1333 1.491 . S
C1339 C1338 1.400 1_545 S
C1339 C1340 1.398 . S
C1340 H1328 0.950 . S
C1340 C1339 1.398 . S
C1340 C1341 1.391 . S
C1341 H1329 0.950 . S
C1341 C1337 1.393 1_545 S
C1341 C1340 1.391 . S
H1342 C1350 0.950 . S
H1343 C1355 0.950 . S
H1344 C1352 0.950 . S
H1345 C1354 0.950 1_655 S
H1346 C1356 0.950 . S
H1347 C1358 0.950 . S
H1348 C1360 0.950 . S
H1349 C1361 0.950 . S
C1350 H1342 0.950 . S
C1350 C1351 1.386 . S
C1350 C1352 1.391 . S
C1351 C1350 1.386 . S
C1351 C1355 1.393 . S
C1352 H1344 0.950 . S
C1352 C1350 1.391 . S
C1352 C1353 1.400 . S
C1353 C1352 1.400 . S
C1353 C1354 1.398 . S
C1353 C1359 1.491 . S
C1354 H1345 0.950 1_455 S
C1354 C1353 1.398 . S
C1354 C1355 1.391 . S
C1355 H1343 0.950 . S
C1355 C1351 1.393 . S
C1355 C1354 1.391 . S
C1356 H1346 0.950 . S
C1356 C1357 1.386 . S
C1356 C1358 1.391 . S
C1357 C1356 1.386 . S
C1357 C1361 1.393 1_655 S
C1358 H1347 0.950 . S
C1358 C1356 1.391 . S
C1358 C1359 1.400 1_655 S
C1359 C1353 1.491 . S
C1359 C1358 1.400 1_455 S
C1359 C1360 1.398 . S
C1360 H1348 0.950 . S
C1360 C1359 1.398 . S
C1360 C1361 1.391 . S
C1361 H1349 0.950 . S
C1361 C1357 1.393 1_455 S
C1361 C1360 1.391 . S
H1362 C1370 0.950 . S
H1363 C1375 0.950 . S
H1364 C1372 0.950 . S
H1365 C1374 0.950 . S
H1366 C1376 0.950 . S
H1367 C1378 0.950 . S
H1368 C1380 0.950 . S
H1369 C1381 0.950 . S
C1370 H1362 0.950 . S
C1370 C1371 1.386 . S
C1370 C1372 1.391 . S
C1371 C1370 1.386 . S
C1371 C1375 1.393 . S
C1372 H1364 0.950 . S
C1372 C1370 1.391 . S
C1372 C1373 1.400 . S
C1373 C1372 1.400 . S
C1373 C1374 1.398 . S
C1373 C1379 1.491 . S
C1374 H1365 0.950 . S
C1374 C1373 1.398 . S
C1374 C1375 1.391 . S
C1375 H1363 0.950 . S
C1375 C1371 1.393 . S
C1375 C1374 1.391 . S
C1376 H1366 0.950 . S
C1376 C1377 1.386 . S
C1376 C1378 1.391 . S
C1377 C1376 1.386 . S
C1377 C1381 1.393 . S
C1378 H1367 0.950 . S
C1378 C1376 1.391 . S
C1378 C1379 1.400 . S
C1379 C1373 1.491 . S
C1379 C1378 1.400 . S
C1379 C1380 1.398 . S
C1380 H1368 0.950 . S
C1380 C1379 1.398 . S
C1380 C1381 1.391 . S
C1381 H1369 0.950 . S
C1381 C1377 1.393 . S
C1381 C1380 1.391 . S
H1382 C1390 0.950 . S
H1383 C1395 0.950 . S
H1384 C1392 0.950 . S
H1385 C1394 0.950 . S
H1386 C1396 0.950 . S
H1387 C1398 0.950 . S
H1388 C1400 0.950 1_545 S
H1389 C1401 0.950 . S
C1390 H1382 0.950 . S
C1390 C1391 1.386 . S
C1390 C1392 1.391 . S
C1391 C1390 1.386 . S
C1391 C1395 1.393 . S
C1392 H1384 0.950 . S
C1392 C1390 1.391 . S
C1392 C1393 1.400 . S
C1393 C1392 1.400 . S
C1393 C1394 1.398 1_545 S
C1393 C1399 1.491 1_545 S
C1394 H1385 0.950 . S
C1394 C1393 1.398 1_565 S
C1394 C1395 1.391 1_565 S
C1395 H1383 0.950 . S
C1395 C1391 1.393 . S
C1395 C1394 1.391 1_545 S
C1396 H1386 0.950 . S
C1396 C1397 1.386 . S
C1396 C1398 1.391 . S
C1397 C1396 1.386 . S
C1397 C1401 1.393 . S
C1398 H1387 0.950 . S
C1398 C1396 1.391 . S
C1398 C1399 1.400 . S
C1399 C1393 1.491 1_565 S
C1399 C1398 1.400 . S
C1399 C1400 1.398 . S
C1400 H1388 0.950 1_565 S
C1400 C1399 1.398 . S
C1400 C1401 1.391 . S
C1401 H1389 0.950 . S
C1401 C1397 1.393 . S
C1401 C1400 1.391 . S
H1402 C1410 0.950 . S
H1403 C1415 0.950 . S
H1404 C1412 0.950 . S
H1405 C1414 0.950 . S
H1406 C1416 0.950 . S
H1407 C1418 0.950 . S
H1408 C1420 0.950 . S
H1409 C1421 0.950 . S
C1410 H1402 0.950 . S
C1410 C1411 1.386 . S
C1410 C1412 1.391 . S
C1411 C1410 1.386 . S
C1411 C1415 1.393 . S
C1412 H1404 0.950 . S
C1412 C1410 1.391 . S
C1412 C1413 1.400 . S
C1413 C1412 1.400 . S
C1413 C1414 1.398 . S
C1413 C1419 1.491 . S
C1414 H1405 0.950 . S
C1414 C1413 1.398 . S
C1414 C1415 1.391 . S
C1415 H1403 0.950 . S
C1415 C1411 1.393 . S
C1415 C1414 1.391 . S
C1416 H1406 0.950 . S
C1416 C1417 1.386 . S
C1416 C1418 1.391 . S
C1417 C1416 1.386 . S
C1417 C1421 1.393 . S
C1418 H1407 0.950 . S
C1418 C1416 1.391 . S
C1418 C1419 1.400 1_655 S
C1419 C1413 1.491 . S
C1419 C1418 1.400 1_455 S
C1419 C1420 1.398 . S
C1420 H1408 0.950 . S
C1420 C1419 1.398 . S
C1420 C1421 1.391 1_455 S
C1421 H1409 0.950 . S
C1421 C1417 1.393 . S
C1421 C1420 1.391 1_655 S
H1422 C1430 0.950 . S
H1423 C1435 0.950 . S
H1424 C1432 0.950 . S
H1425 C1434 0.950 . S
H1426 C1436 0.950 . S
H1427 C1438 0.950 . S
H1428 C1440 0.950 . S
H1429 C1441 0.950 . S
C1430 H1422 0.950 . S
C1430 C1431 1.386 . S
C1430 C1432 1.391 . S
C1431 C1430 1.386 . S
C1431 C1435 1.393 . S
C1432 H1424 0.950 . S
C1432 C1430 1.391 . S
C1432 C1433 1.400 . S
C1433 C1432 1.400 . S
C1433 C1434 1.398 . S
C1433 C1439 1.491 . S
C1434 H1425 0.950 . S
C1434 C1433 1.398 . S
C1434 C1435 1.391 . S
C1435 H1423 0.950 . S
C1435 C1431 1.393 . S
C1435 C1434 1.391 . S
C1436 H1426 0.950 . S
C1436 C1437 1.386 . S
C1436 C1438 1.391 . S
C1437 C1436 1.386 . S
C1437 C1441 1.393 . S
C1438 H1427 0.950 . S
C1438 C1436 1.391 . S
C1438 C1439 1.400 . S
C1439 C1433 1.491 . S
C1439 C1438 1.400 . S
C1439 C1440 1.398 . S
C1440 H1428 0.950 . S
C1440 C1439 1.398 . S
C1440 C1441 1.391 . S
C1441 H1429 0.950 . S
C1441 C1437 1.393 . S
C1441 C1440 1.391 . S
H1442 C1450 0.950 . S
H1443 C1455 0.950 . S
H1444 C1452 0.950 . S
H1445 C1454 0.950 . S
H1446 C1456 0.950 . S
H1447 C1458 0.950 . S
H1448 C1460 0.950 . S
H1449 C1461 0.950 . S
C1450 H1442 0.950 . S
C1450 C1451 1.386 . S
C1450 C1452 1.391 . S
C1451 C1450 1.386 . S
C1451 C1455 1.393 . S
C1452 H1444 0.950 . S
C1452 C1450 1.391 . S
C1452 C1453 1.400 . S
C1453 C1452 1.400 . S
C1453 C1454 1.398 . S
C1453 C1459 1.491 . S
C1454 H1445 0.950 . S
C1454 C1453 1.398 . S
C1454 C1455 1.391 . S
C1455 H1443 0.950 . S
C1455 C1451 1.393 . S
C1455 C1454 1.391 . S
C1456 H1446 0.950 . S
C1456 C1457 1.386 . S
C1456 C1458 1.391 . S
C1457 C1456 1.386 . S
C1457 C1461 1.393 . S
C1458 H1447 0.950 . S
C1458 C1456 1.391 . S
C1458 C1459 1.400 . S
C1459 C1453 1.491 . S
C1459 C1458 1.400 . S
C1459 C1460 1.398 . S
C1460 H1448 0.950 . S
C1460 C1459 1.398 . S
C1460 C1461 1.391 . S
C1461 H1449 0.950 . S
C1461 C1457 1.393 . S
C1461 C1460 1.391 . S
H1462 C1470 0.950 . S
H1463 C1475 0.950 . S
H1464 C1472 0.950 . S
H1465 C1474 0.950 . S
H1466 C1476 0.950 . S
H1467 C1478 0.950 . S
H1468 C1480 0.950 . S
H1469 C1481 0.950 . S
C1470 H1462 0.950 . S
C1470 C1471 1.386 . S
C1470 C1472 1.391 . S
C1471 C1470 1.386 . S
C1471 C1475 1.393 . S
C1472 H1464 0.950 . S
C1472 C1470 1.391 . S
C1472 C1473 1.400 . S
C1473 C1472 1.400 . S
C1473 C1474 1.398 . S
C1473 C1479 1.491 . S
C1474 H1465 0.950 . S
C1474 C1473 1.398 . S
C1474 C1475 1.391 . S
C1475 H1463 0.950 . S
C1475 C1471 1.393 . S
C1475 C1474 1.391 . S
C1476 H1466 0.950 . S
C1476 C1477 1.386 . S
C1476 C1478 1.391 . S
C1477 C1476 1.386 . S
C1477 C1481 1.393 . S
C1478 H1467 0.950 . S
C1478 C1476 1.391 . S
C1478 C1479 1.400 . S
C1479 C1473 1.491 . S
C1479 C1478 1.400 . S
C1479 C1480 1.398 . S
C1480 H1468 0.950 . S
C1480 C1479 1.398 . S
C1480 C1481 1.391 . S
C1481 H1469 0.950 . S
C1481 C1477 1.393 . S
C1481 C1480 1.391 . S
H1482 C1490 0.950 . S
H1483 C1495 0.950 . S
H1484 C1492 0.950 . S
H1485 C1494 0.950 . S
H1486 C1496 0.950 . S
H1487 C1498 0.950 . S
H1488 C1500 0.950 . S
H1489 C1501 0.950 . S
C1490 H1482 0.950 . S
C1490 C1491 1.386 . S
C1490 C1492 1.391 . S
C1491 C1490 1.386 . S
C1491 C1495 1.393 . S
C1492 H1484 0.950 . S
C1492 C1490 1.391 . S
C1492 C1493 1.400 . S
C1493 C1492 1.400 . S
C1493 C1494 1.398 . S
C1493 C1499 1.491 . S
C1494 H1485 0.950 . S
C1494 C1493 1.398 . S
C1494 C1495 1.391 . S
C1495 H1483 0.950 . S
C1495 C1491 1.393 . S
C1495 C1494 1.391 . S
C1496 H1486 0.950 . S
C1496 C1497 1.386 . S
C1496 C1498 1.391 . S
C1497 C1496 1.386 . S
C1497 C1501 1.393 . S
C1498 H1487 0.950 . S
C1498 C1496 1.391 . S
C1498 C1499 1.400 . S
C1499 C1493 1.491 . S
C1499 C1498 1.400 . S
C1499 C1500 1.398 . S
C1500 H1488 0.950 . S
C1500 C1499 1.398 . S
C1500 C1501 1.391 . S
C1501 H1489 0.950 . S
C1501 C1497 1.393 . S
C1501 C1500 1.391 . S
H1502 C1510 0.950 . S
H1503 C1515 0.950 . S
H1504 C1512 0.950 . S
H1505 C1514 0.950 . S
H1506 C1516 0.950 . S
H1507 C1518 0.950 . S
H1508 C1520 0.950 . S
H1509 C1521 0.950 . S
C1510 H1502 0.950 . S
C1510 C1511 1.386 . S
C1510 C1512 1.391 . S
C1511 C1510 1.386 . S
C1511 C1515 1.393 . S
C1512 H1504 0.950 . S
C1512 C1510 1.391 . S
C1512 C1513 1.400 . S
C1513 C1512 1.400 . S
C1513 C1514 1.398 . S
C1513 C1519 1.491 . S
C1514 H1505 0.950 . S
C1514 C1513 1.398 . S
C1514 C1515 1.391 . S
C1515 H1503 0.950 . S
C1515 C1511 1.393 . S
C1515 C1514 1.391 . S
C1516 H1506 0.950 . S
C1516 C1517 1.386 . S
C1516 C1518 1.391 . S
C1517 C1516 1.386 . S
C1517 C1521 1.393 . S
C1518 H1507 0.950 . S
C1518 C1516 1.391 . S
C1518 C1519 1.400 . S
C1519 C1513 1.491 . S
C1519 C1518 1.400 . S
C1519 C1520 1.398 . S
C1520 H1508 0.950 . S
C1520 C1519 1.398 . S
C1520 C1521 1.391 . S
C1521 H1509 0.950 . S
C1521 C1517 1.393 . S
C1521 C1520 1.391 . S
H1522 C1530 0.950 . S
H1523 C1535 0.950 . S
H1524 C1532 0.950 . S
H1525 C1534 0.950 . S
H1526 C1536 0.950 . S
H1527 C1538 0.950 . S
H1528 C1540 0.950 . S
H1529 C1541 0.950 . S
C1530 H1522 0.950 . S
C1530 C1531 1.386 . S
C1530 C1532 1.391 . S
C1531 C1530 1.386 . S
C1531 C1535 1.393 . S
C1532 H1524 0.950 . S
C1532 C1530 1.391 . S
C1532 C1533 1.400 . S
C1533 C1532 1.400 . S
C1533 C1534 1.398 . S
C1533 C1539 1.491 . S
C1534 H1525 0.950 . S
C1534 C1533 1.398 . S
C1534 C1535 1.391 . S
C1535 H1523 0.950 . S
C1535 C1531 1.393 . S
C1535 C1534 1.391 . S
C1536 H1526 0.950 . S
C1536 C1537 1.386 . S
C1536 C1538 1.391 . S
C1537 C1536 1.386 . S
C1537 C1541 1.393 . S
C1538 H1527 0.950 . S
C1538 C1536 1.391 . S
C1538 C1539 1.400 . S
C1539 C1533 1.491 . S
C1539 C1538 1.400 . S
C1539 C1540 1.398 . S
C1540 H1528 0.950 . S
C1540 C1539 1.398 . S
C1540 C1541 1.391 . S
C1541 H1529 0.950 . S
C1541 C1537 1.393 . S
C1541 C1540 1.391 . S
H1542 C1550 0.950 . S
H1543 C1555 0.950 . S
H1544 C1552 0.950 . S
H1545 C1554 0.950 . S
H1546 C1556 0.950 . S
H1547 C1558 0.950 . S
H1548 C1560 0.950 . S
H1549 C1561 0.950 . S
C1550 H1542 0.950 . S
C1550 C1551 1.386 . S
C1550 C1552 1.391 . S
C1551 C1550 1.386 . S
C1551 C1555 1.393 . S
C1552 H1544 0.950 . S
C1552 C1550 1.391 . S
C1552 C1553 1.400 . S
C1553 C1552 1.400 . S
C1553 C1554 1.398 . S
C1553 C1559 1.491 . S
C1554 H1545 0.950 . S
C1554 C1553 1.398 . S
C1554 C1555 1.391 . S
C1555 H1543 0.950 . S
C1555 C1551 1.393 . S
C1555 C1554 1.391 . S
C1556 H1546 0.950 . S
C1556 C1557 1.386 . S
C1556 C1558 1.391 . S
C1557 C1556 1.386 . S
C1557 C1561 1.393 . S
C1558 H1547 0.950 . S
C1558 C1556 1.391 . S
C1558 C1559 1.400 . S
C1559 C1553 1.491 . S
C1559 C1558 1.400 . S
C1559 C1560 1.398 . S
C1560 H1548 0.950 . S
C1560 C1559 1.398 . S
C1560 C1561 1.391 . S
C1561 H1549 0.950 . S
C1561 C1557 1.393 . S
C1561 C1560 1.391 . S
H1562 C1570 0.950 . S
H1563 C1575 0.950 . S
H1564 C1572 0.950 . S
H1565 C1574 0.950 . S
H1566 C1576 0.950 . S
H1567 C1578 0.950 . S
H1568 C1580 0.950 . S
H1569 C1581 0.950 . S
C1570 H1562 0.950 . S
C1570 C1571 1.386 . S
C1570 C1572 1.391 . S
C1571 C1570 1.386 . S
C1571 C1575 1.393 . S
C1572 H1564 0.950 . S
C1572 C1570 1.391 . S
C1572 C1573 1.400 . S
C1573 C1572 1.400 . S
C1573 C1574 1.398 . S
C1573 C1579 1.491 . S
C1574 H1565 0.950 . S
C1574 C1573 1.398 . S
C1574 C1575 1.391 . S
C1575 H1563 0.950 . S
C1575 C1571 1.393 . S
C1575 C1574 1.391 . S
C1576 H1566 0.950 . S
C1576 C1577 1.386 . S
C1576 C1578 1.391 . S
C1577 C1576 1.386 . S
C1577 C1581 1.393 . S
C1578 H1567 0.950 . S
C1578 C1576 1.391 . S
C1578 C1579 1.400 . S
C1579 C1573 1.491 . S
C1579 C1578 1.400 . S
C1579 C1580 1.398 . S
C1580 H1568 0.950 . S
C1580 C1579 1.398 . S
C1580 C1581 1.391 . S
C1581 H1569 0.950 . S
C1581 C1577 1.393 . S
C1581 C1580 1.391 . S
H1582 C1590 0.950 . S
H1583 C1595 0.950 . S
H1584 C1592 0.950 . S
H1585 C1594 0.950 . S
H1586 C1596 0.950 . S
H1587 C1598 0.950 . S
H1588 C1600 0.950 . S
H1589 C1601 0.950 . S
C1590 H1582 0.950 . S
C1590 C1591 1.386 . S
C1590 C1592 1.391 . S
C1591 C1590 1.386 . S
C1591 C1595 1.393 . S
C1592 H1584 0.950 . S
C1592 C1590 1.391 . S
C1592 C1593 1.400 . S
C1593 C1592 1.400 . S
C1593 C1594 1.398 . S
C1593 C1599 1.491 . S
C1594 H1585 0.950 . S
C1594 C1593 1.398 . S
C1594 C1595 1.391 . S
C1595 H1583 0.950 . S
C1595 C1591 1.393 . S
C1595 C1594 1.391 . S
C1596 H1586 0.950 . S
C1596 C1597 1.386 . S
C1596 C1598 1.391 . S
C1597 C1596 1.386 . S
C1597 C1601 1.393 . S
C1598 H1587 0.950 . S
C1598 C1596 1.391 . S
C1598 C1599 1.400 . S
C1599 C1593 1.491 . S
C1599 C1598 1.400 . S
C1599 C1600 1.398 . S
C1600 H1588 0.950 . S
C1600 C1599 1.398 . S
C1600 C1601 1.391 . S
C1601 H1589 0.950 . S
C1601 C1597 1.393 . S
C1601 C1600 1.391 . S
H1602 C1610 0.950 . S
H1603 C1615 0.950 . S
H1604 C1612 0.950 . S
H1605 C1614 0.950 . S
H1606 C1616 0.950 . S
H1607 C1618 0.950 . S
H1608 C1620 0.950 . S
H1609 C1621 0.950 . S
C1610 H1602 0.950 . S
C1610 C1611 1.386 . S
C1610 C1612 1.391 . S
C1611 C1610 1.386 . S
C1611 C1615 1.393 . S
C1612 H1604 0.950 . S
C1612 C1610 1.391 . S
C1612 C1613 1.400 . S
C1613 C1612 1.400 . S
C1613 C1614 1.398 . S
C1613 C1619 1.491 . S
C1614 H1605 0.950 . S
C1614 C1613 1.398 . S
C1614 C1615 1.391 . S
C1615 H1603 0.950 . S
C1615 C1611 1.393 . S
C1615 C1614 1.391 . S
C1616 H1606 0.950 . S
C1616 C1617 1.386 . S
C1616 C1618 1.391 . S
C1617 C1616 1.386 . S
C1617 C1621 1.393 . S
C1618 H1607 0.950 . S
C1618 C1616 1.391 . S
C1618 C1619 1.400 . S
C1619 C1613 1.491 . S
C1619 C1618 1.400 . S
C1619 C1620 1.398 . S
C1620 H1608 0.950 . S
C1620 C1619 1.398 . S
C1620 C1621 1.391 . S
C1621 H1609 0.950 . S
C1621 C1617 1.393 . S
C1621 C1620 1.391 . S
H1622 C1630 0.950 . S
H1623 C1635 0.950 . S
H1624 C1632 0.950 . S
H1625 C1634 0.950 . S
H1626 C1636 0.950 . S
H1627 C1638 0.950 . S
H1628 C1640 0.950 . S
H1629 C1641 0.950 . S
C1630 H1622 0.950 . S
C1630 C1631 1.386 . S
C1630 C1632 1.391 . S
C1631 C1630 1.386 . S
C1631 C1635 1.393 . S
C1632 H1624 0.950 . S
C1632 C1630 1.391 . S
C1632 C1633 1.400 . S
C1633 C1632 1.400 . S
C1633 C1634 1.398 . S
C1633 C1639 1.491 . S
C1634 H1625 0.950 . S
C1634 C1633 1.398 . S
C1634 C1635 1.391 . S
C1635 H1623 0.950 . S
C1635 C1631 1.393 . S
C1635 C1634 1.391 . S
C1636 H1626 0.950 . S
C1636 C1637 1.386 . S
C1636 C1638 1.391 . S
C1637 C1636 1.386 . S
C1637 C1641 1.393 . S
C1638 H1627 0.950 . S
C1638 C1636 1.391 . S
C1638 C1639 1.400 . S
C1639 C1633 1.491 . S
C1639 C1638 1.400 . S
C1639 C1640 1.398 . S
C1640 H1628 0.950 . S
C1640 C1639 1.398 . S
C1640 C1641 1.391 . S
C1641 H1629 0.950 . S
C1641 C1637 1.393 . S
C1641 C1640 1.391 . S
H1642 C1650 0.950 . S
H1643 C1655 0.950 . S
H1644 C1652 0.950 . S
H1645 C1654 0.950 . S
H1646 C1656 0.950 . S
H1647 C1658 0.950 . S
H1648 C1660 0.950 . S
H1649 C1661 0.950 . S
C1650 H1642 0.950 . S
C1650 C1651 1.386 . S
C1650 C1652 1.391 . S
C1651 C1650 1.386 . S
C1651 C1655 1.393 . S
C1652 H1644 0.950 . S
C1652 C1650 1.391 . S
C1652 C1653 1.400 . S
C1653 C1652 1.400 . S
C1653 C1654 1.398 . S
C1653 C1659 1.491 . S
C1654 H1645 0.950 . S
C1654 C1653 1.398 . S
C1654 C1655 1.391 . S
C1655 H1643 0.950 . S
C1655 C1651 1.393 . S
C1655 C1654 1.391 . S
C1656 H1646 0.950 . S
C1656 C1657 1.386 . S
C1656 C1658 1.391 . S
C1657 C1656 1.386 . S
C1657 C1661 1.393 . S
C1658 H1647 0.950 . S
C1658 C1656 1.391 . S
C1658 C1659 1.400 . S
C1659 C1653 1.491 . S
C1659 C1658 1.400 . S
C1659 C1660 1.398 . S
C1660 H1648 0.950 . S
C1660 C1659 1.398 . S
C1660 C1661 1.391 . S
C1661 H1649 0.950 . S
C1661 C1657 1.393 . S
C1661 C1660 1.391 . S
H1662 C1670 0.950 . S
H1663 C1675 0.950 . S
H1664 C1672 0.950 . S
H1665 C1674 0.950 . S
H1666 C1676 0.950 . S
H1667 C1678 0.950 . S
H1668 C1680 0.950 . S
H1669 C1681 0.950 . S
C1670 H1662 0.950 . S
C1670 C1671 1.386 . S
C1670 C1672 1.391 . S
C1671 C1670 1.386 . S
C1671 C1675 1.393 . S
C1672 H1664 0.950 . S
C1672 C1670 1.391 . S
C1672 C1673 1.400 . S
C1673 C1672 1.400 . S
C1673 C1674 1.398 . S
C1673 C1679 1.491 . S
C1674 H1665 0.950 . S
C1674 C1673 1.398 . S
C1674 C1675 1.391 . S
C1675 H1663 0.950 . S
C1675 C1671 1.393 . S
C1675 C1674 1.391 . S
C1676 H1666 0.950 . S
C1676 C1677 1.386 . S
C1676 C1678 1.391 . S
C1677 C1676 1.386 . S
C1677 C1681 1.393 . S
C1678 H1667 0.950 . S
C1678 C1676 1.391 . S
C1678 C1679 1.400 . S
C1679 C1673 1.491 . S
C1679 C1678 1.400 . S
C1679 C1680 1.398 . S
C1680 H1668 0.950 . S
C1680 C1679 1.398 . S
C1680 C1681 1.391 . S
C1681 H1669 0.950 . S
C1681 C1677 1.393 . S
C1681 C1680 1.391 . S
H1682 C1690 0.950 . S
H1683 C1695 0.950 . S
H1684 C1692 0.950 . S
H1685 C1694 0.950 . S
H1686 C1696 0.950 . S
H1687 C1698 0.950 . S
H1688 C1700 0.950 . S
H1689 C1701 0.950 . S
C1690 H1682 0.950 . S
C1690 C1691 1.386 . S
C1690 C1692 1.391 . S
C1691 C1690 1.386 . S
C1691 C1695 1.393 . S
C1692 H1684 0.950 . S
C1692 C1690 1.391 . S
C1692 C1693 1.400 . S
C1693 C1692 1.400 . S
C1693 C1694 1.398 . S
C1693 C1699 1.491 . S
C1694 H1685 0.950 . S
C1694 C1693 1.398 . S
C1694 C1695 1.391 . S
C1695 H1683 0.950 . S
C1695 C1691 1.393 . S
C1695 C1694 1.391 . S
C1696 H1686 0.950 . S
C1696 C1697 1.386 . S
C1696 C1698 1.391 1_565 S
C1697 C1696 1.386 . S
C1697 C1701 1.393 . S
C1698 H1687 0.950 . S
C1698 C1696 1.391 1_545 S
C1698 C1699 1.400 . S
C1699 C1693 1.491 . S
C1699 C1698 1.400 . S
C1699 C1700 1.398 1_545 S
C1700 H1688 0.950 . S
C1700 C1699 1.398 1_565 S
C1700 C1701 1.391 . S
C1701 H1689 0.950 . S
C1701 C1697 1.393 . S
C1701 C1700 1.391 . S
H1702 C1710 0.950 . S
H1703 C1715 0.950 . S
H1704 C1712 0.950 1_655 S
H1705 C1714 0.950 . S
H1706 C1716 0.950 . S
H1707 C1718 0.950 . S
H1708 C1720 0.950 . S
H1709 C1721 0.950 . S
C1710 H1702 0.950 . S
C1710 C1711 1.386 . S
C1710 C1712 1.391 . S
C1711 C1710 1.386 . S
C1711 C1715 1.393 . S
C1712 H1704 0.950 1_455 S
C1712 C1710 1.391 . S
C1712 C1713 1.400 . S
C1713 C1712 1.400 . S
C1713 C1714 1.398 . S
C1713 C1719 1.491 . S
C1714 H1705 0.950 . S
C1714 C1713 1.398 . S
C1714 C1715 1.391 . S
C1715 H1703 0.950 . S
C1715 C1711 1.393 . S
C1715 C1714 1.391 . S
C1716 H1706 0.950 . S
C1716 C1717 1.386 . S
C1716 C1718 1.391 1_655 S
C1717 C1716 1.386 . S
C1717 C1721 1.393 . S
C1718 H1707 0.950 . S
C1718 C1716 1.391 1_455 S
C1718 C1719 1.400 . S
C1719 C1713 1.491 . S
C1719 C1718 1.400 . S
C1719 C1720 1.398 1_455 S
C1720 H1708 0.950 . S
C1720 C1719 1.398 1_655 S
C1720 C1721 1.391 . S
C1721 H1709 0.950 . S
C1721 C1717 1.393 . S
C1721 C1720 1.391 . S
H1722 C1730 0.950 . S
H1723 C1735 0.950 . S
H1724 C1732 0.950 1_554 S
H1725 C1734 0.950 . S
H1726 C1736 0.950 . S
H1727 C1738 0.950 1_556 S
H1728 C1740 0.950 . S
H1729 C1741 0.950 . S
C1730 H1722 0.950 . S
C1730 C1731 1.386 . S
C1730 C1732 1.391 . S
C1731 C1730 1.386 . S
C1731 C1735 1.393 . S
C1732 H1724 0.950 1_556 S
C1732 C1730 1.391 . S
C1732 C1733 1.400 . S
C1733 C1732 1.400 . S
C1733 C1734 1.398 . S
C1733 C1739 1.491 1_556 S
C1734 H1725 0.950 . S
C1734 C1733 1.398 . S
C1734 C1735 1.391 . S
C1735 H1723 0.950 . S
C1735 C1731 1.393 . S
C1735 C1734 1.391 . S
C1736 H1726 0.950 . S
C1736 C1737 1.386 . S
C1736 C1738 1.391 . S
C1737 C1736 1.386 . S
C1737 C1741 1.393 . S
C1738 H1727 0.950 1_554 S
C1738 C1736 1.391 . S
C1738 C1739 1.400 . S
C1739 C1733 1.491 1_554 S
C1739 C1738 1.400 . S
C1739 C1740 1.398 . S
C1740 H1728 0.950 . S
C1740 C1739 1.398 . S
C1740 C1741 1.391 . S
C1741 H1729 0.950 . S
C1741 C1737 1.393 . S
C1741 C1740 1.391 . S
H1742 C1750 0.950 . S
H1743 C1755 0.950 1_554 S
H1744 C1752 0.950 . S
H1745 C1754 0.950 . S
H1746 C1756 0.950 . S
H1747 C1758 0.950 . S
H1748 C1760 0.950 . S
H1749 C1761 0.950 . S
C1750 H1742 0.950 . S
C1750 C1751 1.386 . S
C1750 C1752 1.391 . S
C1751 C1750 1.386 . S
C1751 C1755 1.393 . S
C1752 H1744 0.950 . S
C1752 C1750 1.391 . S
C1752 C1753 1.400 . S
C1753 C1752 1.400 . S
C1753 C1754 1.398 1_556 S
C1753 C1759 1.491 1_566 S
C1754 H1745 0.950 . S
C1754 C1753 1.398 1_554 S
C1754 C1755 1.391 1_554 S
C1755 H1743 0.950 1_556 S
C1755 C1751 1.393 . S
C1755 C1754 1.391 1_556 S
C1756 H1746 0.950 . S
C1756 C1757 1.386 . S
C1756 C1758 1.391 . S
C1757 C1756 1.386 . S
C1757 C1761 1.393 . S
C1758 H1747 0.950 . S
C1758 C1756 1.391 . S
C1758 C1759 1.400 . S
C1759 C1753 1.491 1_544 S
C1759 C1758 1.400 . S
C1759 C1760 1.398 1_554 S
C1760 H1748 0.950 . S
C1760 C1759 1.398 1_556 S
C1760 C1761 1.391 1_556 S
C1761 H1749 0.950 . S
C1761 C1757 1.393 . S
C1761 C1760 1.391 1_554 S
H1762 C1770 0.950 1_554 S
H1763 C1775 0.950 . S
H1764 C1772 0.950 . S
H1765 C1774 0.945 1_655 S
H1766 C1776 0.950 1_556 S
H1767 C1778 0.950 . S
H1768 C1780 0.950 . S
H1769 C1781 0.950 . S
C1770 H1762 0.950 1_556 S
C1770 C1771 1.386 . S
C1770 C1772 1.391 1_556 S
C1771 C1770 1.386 . S
C1771 C1775 1.393 . S
C1772 H1764 0.950 . S
C1772 C1770 1.391 1_554 S
C1772 C1773 1.400 1_554 S
C1773 C1772 1.400 1_556 S
C1773 C1774 1.398 . S
C1773 C1779 1.491 1_556 S
C1774 H1765 0.945 1_455 S
C1774 C1773 1.398 . S
C1774 C1775 1.391 . S
C1775 H1763 0.950 . S
C1775 C1771 1.393 . S
C1775 C1774 1.391 . S
C1776 H1766 0.950 1_554 S
C1776 C1777 1.386 . S
C1776 C1778 1.391 1_554 S
C1777 C1776 1.386 . S
C1777 C1781 1.393 . S
C1778 H1767 0.950 . S
C1778 C1776 1.391 1_556 S
C1778 C1779 1.400 1_656 S
C1779 C1773 1.491 1_554 S
C1779 C1778 1.400 1_454 S
C1779 C1780 1.398 . S
C1780 H1768 0.950 . S
C1780 C1779 1.398 . S
C1780 C1781 1.391 1_455 S
C1781 H1769 0.950 . S
C1781 C1777 1.393 . S
C1781 C1780 1.391 1_655 S
C1071 C33 1.235 . S
C1077 C829 1.233 1_554 S
C1091 C711 1.182 1_554 S
C1097 C62 1.182 . S
C1111 C151 1.446 1_565 S
C1117 C800 1.446 1_554 S
C1131 C387 1.174 . S
C1137 C121 1.173 . S
C1151 C416 1.145 . S
C1157 C3 1.148 . S
C1171 C475 1.354 . S
C1177 C92 1.359 . S
C1191 C180 1.152 . S
C1197 C652 1.157 1_556 S
C1211 C534 1.040 1_556 S
C1217 C239 1.040 . S
C1231 C593 1.320 1_556 S
C1237 C328 1.323 . S
C1251 C298 1.228 . S
C1257 C888 1.221 . S
C1271 C210 1.200 . S
C1277 C947 1.200 . S
C1291 C1036 1.462 . S
C1297 C269 1.462 . S
C1311 C741 1.310 . S
C1317 C505 1.310 . S
C1331 C357 1.216 . S
C1337 C770 1.217 . S
C1351 C859 1.531 . S
C1357 C446 1.524 . S
C1371 C1006 1.363 . S
C1377 C564 1.365 . S
C1391 C623 1.314 . S
C1397 C918 1.315 . S
C1411 C977 1.551 . S
C1417 C682 1.548 . S
C1431 C937 1.941 . S
C1437 C5 1.909 . S
C1451 C111 1.779 . S
C1457 C996 1.787 . S
C1471 C123 1.599 . S
C1477 C1008 1.606 . S
C1491 C170 1.569 . S
C1497 C701 1.561 . S
C1511 C583 1.992 . S
C1517 C52 1.990 . S
C1531 C64 1.784 . S
C1537 C642 1.818 . S
C1551 C359 1.954 . S
C1557 C229 1.984 . S
C1571 C465 1.554 . S
C1577 C288 1.544 . S
C1591 C300 1.723 . S
C1597 C524 1.763 . S
C1611 C347 1.765 . S
C1617 C878 1.774 . S
C1631 C182 1.804 . S
C1637 C760 1.843 . S
C1651 C241 1.831 . S
C1657 C772 1.842 . S
C1671 C477 1.693 . S
C1677 C1055 1.719 . S
C1691 C406 2.025 . S
C1697 C890 2.023 . S
C1711 C949 1.832 . S
C1717 C418 1.837 . S
C1731 C713 1.980 . S
C1737 C536 1.952 . S
C1751 C819 1.658 . S
C1757 C595 1.642 . S
C1771 C831 1.758 . S
C1777 C654 1.770 . S
