# Generated by pormake.
# Topology crb, (4)-cn, num edge types: 1
# Building blocks:
#     Node 0, Type 0, BuildingBlock: UXUYUI_clean_sbu_0, # of connection points: 4
#     Node 1, Type 0, BuildingBlock: UXUYUI_clean_sbu_0, # of connection points: 4
#     Node 2, Type 0, BuildingBlock: UXUYUI_clean_sbu_0, # of connection points: 4
#     Node 3, Type 0, BuildingBlock: UXUYUI_clean_sbu_0, # of connection points: 4
#     Node 4, Type 0, BuildingBlock: UXUYUI_clean_sbu_0, # of connection points: 4
#     Node 5, Type 0, BuildingBlock: UXUYUI_clean_sbu_0, # of connection points: 4
#     Node 6, Type 0, BuildingBlock: UXUYUI_clean_sbu_0, # of connection points: 4
#     Node 7, Type 0, BuildingBlock: UXUYUI_clean_sbu_0, # of connection points: 4
#     Edge 8, Type (0, 0), BuildingBlock: XUDNAN_clean_linker_2, # of connection points: 2
#     Edge 9, Type (0, 0), BuildingBlock: XUDNAN_clean_linker_2, # of connection points: 2
#     Edge 10, Type (0, 0), BuildingBlock: XUDNAN_clean_linker_2, # of connection points: 2
#     Edge 11, Type (0, 0), BuildingBlock: XUDNAN_clean_linker_2, # of connection points: 2
#     Edge 12, Type (0, 0), BuildingBlock: XUDNAN_clean_linker_2, # of connection points: 2
#     Edge 13, Type (0, 0), BuildingBlock: XUDNAN_clean_linker_2, # of connection points: 2
#     Edge 14, Type (0, 0), BuildingBlock: XUDNAN_clean_linker_2, # of connection points: 2
#     Edge 15, Type (0, 0), BuildingBlock: XUDNAN_clean_linker_2, # of connection points: 2
#     Edge 16, Type (0, 0), BuildingBlock: XUDNAN_clean_linker_2, # of connection points: 2
#     Edge 17, Type (0, 0), BuildingBlock: XUDNAN_clean_linker_2, # of connection points: 2
#     Edge 18, Type (0, 0), BuildingBlock: XUDNAN_clean_linker_2, # of connection points: 2
#     Edge 19, Type (0, 0), BuildingBlock: XUDNAN_clean_linker_2, # of connection points: 2
#     Edge 20, Type (0, 0), BuildingBlock: XUDNAN_clean_linker_2, # of connection points: 2
#     Edge 21, Type (0, 0), BuildingBlock: XUDNAN_clean_linker_2, # of connection points: 2
#     Edge 22, Type (0, 0), BuildingBlock: XUDNAN_clean_linker_2, # of connection points: 2
#     Edge 23, Type (0, 0), BuildingBlock: XUDNAN_clean_linker_2, # of connection points: 2
# Relax obj value: 0.060
# Max RMSD: 0.078
# Mean RMSD: 0.078
data_MOF--net-crb--node1-UXUYUI_clean_sbu_0--edge1-XUDNAN_clean_linker_2
_symmetry_space_group_name_H-M    P1
_symmetry_Int_Tables_number       1
_symmetry_cell_setting            triclinic
loop_
_symmetry_equiv_pos_as_xyz
'x, y, z'
_cell_length_a     61.782674
_cell_length_b     61.807135
_cell_length_c     36.715289
_cell_angle_alpha  90.040317
_cell_angle_beta   89.994892
_cell_angle_gamma 89.946403
loop_
_atom_site_label
_atom_site_type_symbol
_atom_site_fract_x
_atom_site_fract_y
_atom_site_fract_z
_atom_type_partial_charge
Li0 Li 0.31686 0.32013 0.05146 0.0
Li1 Li 0.35 0.32335 0.01227 0.0
Li2 Li 0.32209 0.3523 0.0138 0.0
Li3 Li 0.31437 0.31851 0.98186 0.0
C4 C 0.34619 0.3511 0.08567 0.0
N5 N 0.35754 0.37038 0.1508 0.0
C6 C 0.36799 0.35409 0.09444 0.0
C7 C 0.33016 0.35779 0.11007 0.0
C8 C 0.3734 0.36392 0.12749 0.0
C9 C 0.33623 0.36753 0.14286 0.0
C10 C 0.33657 0.27786 0.01487 0.0
C11 C 0.34667 0.24618 0.98038 0.0
N12 N 0.35075 0.23546 0.01198 0.0
C13 C 0.34059 0.26642 0.047 0.0
C14 C 0.33939 0.26758 0.98127 0.0
C15 C 0.34787 0.24505 0.04498 0.0
C16 C 0.28594 0.3026 0.10109 0.0
N17 N 0.30703 0.30818 0.09634 0.0
C18 C 0.31608 0.29471 0.15538 0.0
C19 C 0.32201 0.30458 0.12273 0.0
C20 C 0.29453 0.28823 0.16092 0.0
C21 C 0.27928 0.29255 0.13338 0.0
H22 H 0.27438 0.30555 0.07951 0.0
H23 H 0.33872 0.30901 0.11812 0.0
C24 C 0.39345 0.33183 0.99318 0.0
N25 N 0.38037 0.31771 0.01109 0.0
C26 C 0.4158 0.32842 0.99206 0.0
C27 C 0.41087 0.29622 0.02841 0.0
C28 C 0.38865 0.30033 0.029 0.0
C29 C 0.42476 0.31033 1.00964 0.0
H30 H 0.38651 0.34577 0.97975 0.0
H31 H 0.37807 0.28977 0.04411 0.0
C32 C 0.27932 0.34889 0.01509 0.0
N33 N 0.24743 0.38004 1.00905 0.0
C34 C 0.2695 0.35283 0.98146 0.0
C35 C 0.27274 0.36057 0.04575 0.0
C36 C 0.25345 0.3687 0.97894 0.0
C37 C 0.25665 0.37632 0.04211 0.0
C38 C 0.34664 0.3376 0.93728 0.0
C39 C 0.34583 0.35446 0.91195 0.0
C40 C 0.35708 0.31829 0.92819 0.0
C41 C 0.35523 0.35156 0.87768 0.0
C42 C 0.36632 0.31602 0.89367 0.0
N43 N 0.36518 0.33255 0.86932 0.0
C44 C 0.32483 0.3971 0.03578 0.0
C45 C 0.30996 0.39011 0.97751 0.0
C46 C 0.32353 0.4194 0.02981 0.0
N47 N 0.31825 0.38297 1.00962 0.0
C48 C 0.30829 0.41223 0.97045 0.0
C49 C 0.31549 0.42724 0.99652 0.0
H50 H 0.33173 0.39119 0.06082 0.0
H51 H 0.30508 0.37855 0.95697 0.0
C52 C 0.28933 0.28599 0.94903 0.0
N53 N 0.29962 0.30498 0.94218 0.0
C54 C 0.27801 0.27538 0.92136 0.0
C55 C 0.28803 0.30408 0.88 0.0
C56 C 0.29905 0.31421 0.90856 0.0
C57 C 0.27724 0.28443 0.88628 0.0
H58 H 0.28991 0.2791 0.97609 0.0
H59 H 0.30683 0.32959 0.90396 0.0
O60 O 0.34068 0.34129 0.0536 0.0
O61 O 0.32921 0.29876 0.01642 0.0
O62 O 0.2953 0.33368 0.01795 0.0
O63 O 0.33741 0.34018 0.97089 0.0
H64 H 0.38059 0.34888 0.07589 0.0
H65 H 0.31324 0.35544 0.10379 0.0
H66 H 0.39021 0.36639 0.13462 0.0
H67 H 0.324 0.3728 0.162 0.0
H68 H 0.34898 0.23806 0.95456 0.0
H69 H 0.33833 0.27402 0.07324 0.0
H70 H 0.33582 0.27589 0.9561 0.0
H71 H 0.35121 0.23608 0.06964 0.0
H72 H 0.32834 0.29207 0.17599 0.0
H73 H 0.26254 0.28767 0.13627 0.0
H74 H 0.42592 0.33966 0.97718 0.0
H75 H 0.41714 0.28233 0.04296 0.0
H76 H 0.27437 0.34389 0.95748 0.0
H77 H 0.28 0.35755 0.07205 0.0
H78 H 0.24581 0.37203 0.95303 0.0
H79 H 0.25148 0.38558 0.06557 0.0
H80 H 0.33795 0.36959 0.91862 0.0
H81 H 0.35831 0.30532 0.94773 0.0
H82 H 0.35464 0.36442 0.85774 0.0
H83 H 0.37445 0.30114 0.8863 0.0
H84 H 0.32957 0.43034 0.05049 0.0
H85 H 0.30172 0.41749 0.94458 0.0
H86 H 0.27005 0.26019 0.92732 0.0
H87 H 0.28754 0.31179 0.85354 0.0
Li88 Li 0.68793 0.3534 1.00603 0.0
Li89 Li 0.69204 0.31859 0.04192 0.0
Li90 Li 0.69299 0.31877 0.97568 0.0
Li91 Li 0.65905 0.32392 1.00639 0.0
C92 C 0.73233 0.32919 0.99352 0.0
N93 N 0.77004 0.31852 0.95737 0.0
C94 C 0.74351 0.31029 1.00261 0.0
C95 C 0.74033 0.34272 0.96619 0.0
C96 C 0.76256 0.30517 0.98397 0.0
C97 C 0.75943 0.33703 0.9482 0.0
C98 C 0.66844 0.34693 0.08351 0.0
C99 C 0.65631 0.33835 0.14424 0.0
N100 N 0.66622 0.35649 0.15694 0.0
C101 C 0.67839 0.36557 0.09711 0.0
C102 C 0.65718 0.33328 0.10719 0.0
C103 C 0.67711 0.3701 0.13434 0.0
C104 C 0.67571 0.39704 0.99848 0.0
N105 N 0.69274 0.38372 1.00532 0.0
C106 C 0.7167 0.41392 1.00978 0.0
C107 C 0.71293 0.39165 0.01128 0.0
C108 C 0.69949 0.42814 1.00215 0.0
C109 C 0.67873 0.41942 0.99675 0.0
H110 H 0.65982 0.39021 0.99388 0.0
H111 H 0.72612 0.38067 0.01709 0.0
C112 C 0.70497 0.28348 0.0849 0.0
N113 N 0.70374 0.30543 0.08494 0.0
C114 C 0.71208 0.27239 0.11575 0.0
C115 C 0.71747 0.30671 0.14589 0.0
C116 C 0.71042 0.31715 0.11422 0.0
C117 C 0.71803 0.28397 0.14717 0.0
H118 H 0.7003 0.27451 0.06089 0.0
H119 H 0.71002 0.3346 0.11327 0.0
C120 C 0.66971 0.34393 0.9284 0.0
N121 N 0.6676 0.34944 0.85381 0.0
C122 C 0.66084 0.32774 0.90641 0.0
C123 C 0.67746 0.36295 0.91248 0.0
C124 C 0.65995 0.33082 0.86874 0.0
C125 C 0.67625 0.36542 0.87471 0.0
C126 C 0.66392 0.2814 0.01025 0.0
C127 C 0.65904 0.2691 0.97935 0.0
C128 C 0.65389 0.27659 0.04338 0.0
C129 C 0.64404 0.25228 0.98209 0.0
C130 C 0.63896 0.25966 0.04499 0.0
N131 N 0.63438 0.24796 0.01457 0.0
C132 C 0.71092 0.28302 0.93976 0.0
C133 C 0.7122 0.3146 0.90348 0.0
C134 C 0.71954 0.27068 0.91141 0.0
N135 N 0.70681 0.30443 0.93506 0.0
C136 C 0.72055 0.30282 0.87413 0.0
C137 C 0.72394 0.2804 0.87758 0.0
H138 H 0.7073 0.27543 0.96557 0.0
H139 H 0.70978 0.33181 0.90073 0.0
C140 C 0.61585 0.32843 0.03186 0.0
N141 N 0.62838 0.31924 1.0056 0.0
C142 C 0.59351 0.32482 0.03242 0.0
C143 C 0.59734 0.30258 0.97867 0.0
C144 C 0.61951 0.30679 0.97895 0.0
C145 C 0.58404 0.31155 1.00576 0.0
H146 H 0.62319 0.33853 0.05245 0.0
H147 H 0.62964 0.29995 0.958 0.0
O148 O 0.71333 0.33412 0.01068 0.0
O149 O 0.66957 0.34221 0.04716 0.0
O150 O 0.67062 0.34134 0.96535 0.0
O151 O 0.67838 0.29811 1.00804 0.0
H152 H 0.73742 0.2996 0.02357 0.0
H153 H 0.73169 0.35728 0.95858 0.0
H154 H 0.77134 0.29054 0.99056 0.0
H155 H 0.76576 0.34726 0.92683 0.0
H156 H 0.64774 0.32787 0.1629 0.0
H157 H 0.68713 0.37634 0.07919 0.0
H158 H 0.64922 0.31891 0.09709 0.0
H159 H 0.68481 0.38441 0.14527 0.0
H160 H 0.73289 0.41994 0.01472 0.0
H161 H 0.66505 0.42972 0.99043 0.0
H162 H 0.71286 0.2549 0.11494 0.0
H163 H 0.72192 0.31635 0.16935 0.0
H164 H 0.65515 0.31278 0.91816 0.0
H165 H 0.68446 0.37561 0.92905 0.0
H166 H 0.65328 0.31836 0.85137 0.0
H167 H 0.68222 0.38003 0.86201 0.0
H168 H 0.66645 0.27273 0.95338 0.0
H169 H 0.65756 0.28586 0.06756 0.0
H170 H 0.64 0.24273 0.95835 0.0
H171 H 0.63102 0.25582 0.07044 0.0
H172 H 0.72259 0.25365 0.916 0.0
H173 H 0.72372 0.31114 0.84876 0.0
H174 H 0.58382 0.332 0.05384 0.0
H175 H 0.59064 0.29256 0.95725 0.0
Li176 Li 0.66107 0.69117 0.01324 0.0
Li177 Li 0.6955 0.69447 0.04724 0.0
Li178 Li 0.69572 0.69674 0.97992 0.0
Li179 Li 0.68822 0.66257 0.01308 0.0
C180 C 0.67372 0.73608 0.02518 0.0
N181 N 0.65815 0.77611 0.04629 0.0
C182 C 0.67007 0.74055 0.06202 0.0
C183 C 0.66955 0.75202 0.99912 0.0
C184 C 0.66218 0.76087 0.07213 0.0
C185 C 0.66163 0.77213 0.01032 0.0
C186 C 0.6646 0.65482 0.07017 0.0
C187 C 0.67232 0.62137 0.10147 0.0
N188 N 0.6512 0.61551 0.09806 0.0
C189 C 0.64295 0.64852 0.06717 0.0
C190 C 0.67939 0.6412 0.08768 0.0
C191 C 0.6365 0.62858 0.0814 0.0
C192 C 0.61748 0.68348 0.99215 0.0
N193 N 0.63036 0.69685 0.01212 0.0
C194 C 0.59954 0.71769 0.03039 0.0
C195 C 0.62173 0.71349 0.03155 0.0
C196 C 0.58592 0.70445 1.0094 0.0
C197 C 0.59515 0.68702 0.99034 0.0
H198 H 0.62451 0.66994 0.97774 0.0
H199 H 0.63194 0.72344 0.04834 0.0
C200 C 0.7206 0.72424 0.08985 0.0
N201 N 0.70901 0.70552 0.09053 0.0
C202 C 0.73145 0.73135 0.12111 0.0
C203 C 0.71819 0.69984 0.15301 0.0
C204 C 0.70734 0.69356 0.12144 0.0
C205 C 0.73058 0.71885 0.153 0.0
H206 H 0.72167 0.73345 0.06487 0.0
H207 H 0.69785 0.67892 0.12145 0.0
C208 C 0.66196 0.67962 0.93899 0.0
N209 N 0.641 0.68937 0.87461 0.0
C210 C 0.65791 0.66337 0.91344 0.0
C211 C 0.65539 0.70084 0.93181 0.0
C212 C 0.64728 0.66862 0.88104 0.0
C213 C 0.6448 0.70544 0.89911 0.0
C214 C 0.73473 0.68461 0.02736 0.0
C215 C 0.74695 0.70179 0.01371 0.0
C216 C 0.74221 0.67307 0.05761 0.0
C217 C 0.76643 0.70725 0.0307 0.0
C218 C 0.76174 0.67908 0.0739 0.0
N219 N 0.77334 0.6959 0.06022 0.0
C220 C 0.71423 0.7293 0.9331 0.0
C221 C 0.71302 0.69343 0.91038 0.0
C222 C 0.7245 0.73642 0.90127 0.0
N223 N 0.70884 0.7081 0.93702 0.0
C224 C 0.72315 0.69981 0.87821 0.0
C225 C 0.72929 0.72151 0.87342 0.0
H226 H 0.71095 0.74058 0.95494 0.0
H227 H 0.70858 0.67666 0.91429 0.0
C228 C 0.67519 0.61895 1.00129 0.0
N229 N 0.69226 0.63199 1.0093 0.0
C230 C 0.6781 0.59657 0.99829 0.0
C231 C 0.71611 0.60156 0.01135 0.0
C232 C 0.71246 0.62378 0.01416 0.0
C233 C 0.69883 0.58761 1.00318 0.0
H234 H 0.65933 0.62596 0.99717 0.0
H235 H 0.72579 0.6345 0.02006 0.0
O236 O 0.68191 0.71645 0.0147 0.0
O237 O 0.67127 0.67415 0.05588 0.0
O238 O 0.67249 0.67473 0.9707 0.0
O239 O 0.71532 0.67941 0.0117 0.0
H240 H 0.67287 0.72834 0.08256 0.0
H241 H 0.67238 0.74892 0.97051 0.0
H242 H 0.65918 0.7645 0.10051 0.0
H243 H 0.65829 0.78459 0.99043 0.0
H244 H 0.68364 0.61058 0.11471 0.0
H245 H 0.63124 0.65888 0.05399 0.0
H246 H 0.69627 0.64564 0.08984 0.0
H247 H 0.61981 0.62347 0.07916 0.0
H248 H 0.59306 0.73099 0.04624 0.0
H249 H 0.58527 0.67638 0.97382 0.0
H250 H 0.74093 0.74607 0.12008 0.0
H251 H 0.71694 0.68993 0.17724 0.0
H252 H 0.66295 0.64687 0.91862 0.0
H253 H 0.65838 0.71358 0.95131 0.0
H254 H 0.64402 0.6562 0.86101 0.0
H255 H 0.6396 0.72178 0.89322 0.0
H256 H 0.74139 0.71095 0.99044 0.0
H257 H 0.73283 0.6599 0.06886 0.0
H258 H 0.77602 0.72058 0.0205 0.0
H259 H 0.7676 0.67043 0.09754 0.0
H260 H 0.72914 0.75325 0.89891 0.0
H261 H 0.72616 0.68781 0.8573 0.0
H262 H 0.66437 0.58646 0.99152 0.0
H263 H 0.7323 0.59537 0.01574 0.0
Li264 Li 0.32649 0.66158 1.00734 0.0
Li265 Li 0.31991 0.69447 0.04632 0.0
Li266 Li 0.31852 0.69711 0.97838 0.0
Li267 Li 0.35181 0.69095 1.00934 0.0
C268 C 0.27986 0.67358 0.02196 0.0
N269 N 0.23911 0.6609 0.04428 0.0
C270 C 0.27684 0.66494 0.05675 0.0
C271 C 0.26217 0.67584 0.99855 0.0
C272 C 0.2561 0.65861 0.06753 0.0
C273 C 0.2417 0.66929 0.01032 0.0
C274 C 0.36202 0.66904 0.06711 0.0
C275 C 0.38999 0.68176 0.10761 0.0
N276 N 0.40237 0.66436 0.09858 0.0
C277 C 0.37496 0.65122 0.05838 0.0
C278 C 0.36953 0.68441 0.09203 0.0
C279 C 0.39533 0.64916 0.07453 0.0
C280 C 0.34015 0.62053 0.98568 0.0
N281 N 0.32354 0.63082 1.00275 0.0
C282 C 0.30469 0.59726 1.00995 0.0
C283 C 0.30602 0.61966 0.01502 0.0
C284 C 0.32145 0.58634 0.99174 0.0
C285 C 0.3394 0.59826 0.97969 0.0
H286 H 0.35401 0.62971 0.97648 0.0
H287 H 0.29299 0.62806 0.02848 0.0
C288 C 0.29317 0.72055 0.09289 0.0
N289 N 0.30755 0.7039 0.09143 0.0
C290 C 0.28401 0.72674 0.12625 0.0
C291 C 0.30481 0.69867 0.15578 0.0
C292 C 0.31343 0.69298 0.12198 0.0
C293 C 0.28972 0.71566 0.15834 0.0
H294 H 0.28867 0.72888 0.06811 0.0
H295 H 0.32473 0.67967 0.12007 0.0
C296 C 0.33585 0.66479 0.9343 0.0
N297 N 0.32456 0.64277 0.87158 0.0
C298 C 0.35148 0.66019 0.90789 0.0
C299 C 0.31445 0.65813 0.92882 0.0
C300 C 0.34546 0.64906 0.87636 0.0
C301 C 0.30908 0.64704 0.89694 0.0
C302 C 0.34097 0.73418 0.99551 0.0
C303 C 0.35215 0.73109 0.9628 0.0
C304 C 0.33784 0.75512 1.00885 0.0
C305 C 0.36002 0.74906 0.94396 0.0
C306 C 0.34597 0.77268 0.9892 0.0
N307 N 0.3568 0.76931 0.95743 0.0
C308 C 0.28692 0.72437 0.94629 0.0
C309 C 0.31288 0.71097 0.90445 0.0
C310 C 0.27701 0.7365 0.91874 0.0
N311 N 0.30453 0.71194 0.93874 0.0
C312 C 0.3032 0.72242 0.876 0.0
C313 C 0.28517 0.73552 0.88307 0.0
H314 H 0.28081 0.72515 0.97388 0.0
H315 H 0.32738 0.70176 0.89914 0.0
C316 C 0.39532 0.68341 0.98931 0.0
N317 N 0.38215 0.69702 1.00815 0.0
C318 C 0.41763 0.68705 0.9883 0.0
C319 C 0.41236 0.71867 0.02606 0.0
C320 C 0.39017 0.71442 0.02634 0.0
C321 C 0.42644 0.7049 1.00682 0.0
H322 H 0.38847 0.66965 0.97521 0.0
H323 H 0.37933 0.72486 0.04142 0.0
O324 O 0.29993 0.68017 0.01095 0.0
O325 O 0.3423 0.67167 0.05078 0.0
O326 O 0.3417 0.67549 0.96543 0.0
O327 O 0.33294 0.71689 0.01443 0.0
H328 H 0.2904 0.66288 0.07504 0.0
H329 H 0.26427 0.68253 0.97154 0.0
H330 H 0.25353 0.65184 0.09434 0.0
H331 H 0.22786 0.6709 0.99246 0.0
H332 H 0.39608 0.69361 0.12672 0.0
H333 H 0.36942 0.63921 0.03911 0.0
H334 H 0.35981 0.69843 0.09877 0.0
H335 H 0.40558 0.63552 0.06786 0.0
H336 H 0.29051 0.58866 0.01947 0.0
H337 H 0.35281 0.59043 0.966 0.0
H338 H 0.27228 0.73977 0.12676 0.0
H339 H 0.31004 0.68986 0.17969 0.0
H340 H 0.36812 0.66518 0.91175 0.0
H341 H 0.3021 0.66145 0.94887 0.0
H342 H 0.3574 0.64541 0.85569 0.0
H343 H 0.2926 0.6418 0.89236 0.0
H344 H 0.35475 0.71502 0.95202 0.0
H345 H 0.32919 0.75777 0.03411 0.0
H346 H 0.36869 0.7469 0.91861 0.0
H347 H 0.34367 0.78899 0.99919 0.0
H348 H 0.26316 0.74656 0.92521 0.0
H349 H 0.31021 0.72163 0.84897 0.0
H350 H 0.42782 0.67614 0.97281 0.0
H351 H 0.41844 0.73242 0.0412 0.0
Li352 Li 0.81761 0.82043 0.54611 0.0
Li353 Li 0.85224 0.82461 0.51489 0.0
Li354 Li 0.8234 0.85389 0.51131 0.0
Li355 Li 0.81932 0.81897 0.47877 0.0
C356 C 0.84491 0.84437 0.59042 0.0
N357 N 0.85436 0.84651 0.66388 0.0
C358 C 0.85195 0.82593 0.60896 0.0
C359 C 0.84256 0.86389 0.60926 0.0
C360 C 0.85666 0.82733 0.64609 0.0
C361 C 0.84747 0.86465 0.64638 0.0
C362 C 0.84559 0.78132 0.51157 0.0
C363 C 0.86785 0.75762 0.47517 0.0
N364 N 0.8721 0.74548 0.50522 0.0
C365 C 0.85005 0.76852 0.54205 0.0
C366 C 0.85444 0.77576 0.47782 0.0
C367 C 0.86354 0.7505 0.53829 0.0
C368 C 0.79948 0.78614 0.5849 0.0
N369 N 0.80397 0.80758 0.58785 0.0
C370 C 0.79206 0.80768 0.64993 0.0
C371 C 0.79986 0.81859 0.61924 0.0
C372 C 0.78841 0.78526 0.64819 0.0
C373 C 0.79174 0.77461 0.61484 0.0
H374 H 0.80244 0.77785 0.55944 0.0
H375 H 0.80327 0.8357 0.62094 0.0
C376 C 0.89577 0.82976 0.49188 0.0
N377 N 0.88293 0.81952 0.51651 0.0
C378 C 0.91806 0.82583 0.49112 0.0
C379 C 0.91368 0.80144 0.54191 0.0
C380 C 0.89151 0.80577 0.54156 0.0
C381 C 0.92731 0.81135 0.51622 0.0
H382 H 0.88871 0.84091 0.4726 0.0
H383 H 0.88121 0.79799 0.56125 0.0
C384 C 0.78024 0.84295 0.52804 0.0
N385 N 0.74518 0.86004 0.56492 0.0
C386 C 0.7592 0.83756 0.51748 0.0
C387 C 0.78346 0.85702 0.55737 0.0
C388 C 0.74168 0.84637 0.53647 0.0
C389 C 0.76553 0.86549 0.57566 0.0
C390 C 0.84579 0.84521 0.43613 0.0
C391 C 0.83734 0.86366 0.4193 0.0
C392 C 0.85831 0.83069 0.41586 0.0
C393 C 0.84127 0.86709 0.38228 0.0
C394 C 0.86185 0.83469 0.37889 0.0
N395 N 0.85331 0.85264 0.363 0.0
C396 C 0.83459 0.89793 0.51951 0.0
C397 C 0.80036 0.89194 0.4922 0.0
C398 C 0.83224 0.92029 0.51543 0.0
N399 N 0.81879 0.88431 0.50782 0.0
C400 C 0.79732 0.91416 0.48761 0.0
C401 C 0.81348 0.92869 0.49896 0.0
H402 H 0.84922 0.89136 0.53137 0.0
H403 H 0.78816 0.88073 0.48271 0.0
C404 C 0.80368 0.78331 0.4395 0.0
N405 N 0.80778 0.80483 0.43645 0.0
C406 C 0.79641 0.77148 0.4095 0.0
C407 C 0.79691 0.80429 0.37384 0.0
C408 C 0.80395 0.81553 0.40473 0.0
C409 C 0.79332 0.78184 0.37579 0.0
H410 H 0.80623 0.77525 0.46527 0.0
H411 H 0.80654 0.83276 0.40315 0.0
O412 O 0.83998 0.84329 0.55415 0.0
O413 O 0.83255 0.79914 0.51476 0.0
O414 O 0.79753 0.83434 0.50982 0.0
O415 O 0.84212 0.84161 0.47238 0.0
H416 H 0.8531 0.81056 0.59509 0.0
H417 H 0.83694 0.87827 0.59538 0.0
H418 H 0.86197 0.81314 0.66083 0.0
H419 H 0.84575 0.87965 0.66131 0.0
H420 H 0.87484 0.75317 0.44921 0.0
H421 H 0.84342 0.77261 0.56845 0.0
H422 H 0.85092 0.78529 0.45389 0.0
H423 H 0.86725 0.74054 0.5617 0.0
H424 H 0.78974 0.81652 0.6751 0.0
H425 H 0.78869 0.75743 0.61202 0.0
H426 H 0.92786 0.83378 0.47067 0.0
H427 H 0.92007 0.79053 0.56232 0.0
H428 H 0.75645 0.82665 0.49486 0.0
H429 H 0.79962 0.86135 0.56595 0.0
H430 H 0.7253 0.84235 0.52859 0.0
H431 H 0.7678 0.87638 0.59841 0.0
H432 H 0.82775 0.87514 0.43456 0.0
H433 H 0.86531 0.81656 0.42854 0.0
H434 H 0.83473 0.88124 0.36887 0.0
H435 H 0.87144 0.82355 0.36286 0.0
H436 H 0.84526 0.93083 0.52409 0.0
H437 H 0.7825 0.91988 0.47514 0.0
H438 H 0.79323 0.75437 0.4128 0.0
H439 H 0.79479 0.81305 0.34857 0.0
Li440 Li 0.18746 0.85188 0.50783 0.0
Li441 Li 0.19518 0.82208 0.54717 0.0
Li442 Li 0.19817 0.81839 0.47956 0.0
Li443 Li 0.1617 0.8228 0.50941 0.0
C444 C 0.2303 0.84828 0.53325 0.0
N445 N 0.25973 0.87115 0.57481 0.0
C446 C 0.22311 0.8616 0.56159 0.0
C447 C 0.25245 0.84659 0.52606 0.0
C448 C 0.23825 0.87302 0.58229 0.0
C449 C 0.26707 0.85829 0.54738 0.0
C450 C 0.15762 0.83782 0.57976 0.0
C451 C 0.1405 0.812 0.61967 0.0
N452 N 0.13236 0.82858 0.63986 0.0
C453 C 0.14906 0.85459 0.60086 0.0
C454 C 0.1533 0.81633 0.58918 0.0
C455 C 0.13634 0.84959 0.63116 0.0
C456 C 0.16911 0.89305 0.50937 0.0
N457 N 0.18823 0.88273 0.50345 0.0
C458 C 0.20545 0.91622 0.48853 0.0
C459 C 0.2063 0.89379 0.49333 0.0
C460 C 0.18572 0.92711 0.49337 0.0
C461 C 0.16742 0.91533 0.50403 0.0
H462 H 0.155 0.88381 0.51727 0.0
H463 H 0.22123 0.88517 0.48825 0.0
C464 C 0.22059 0.79553 0.5947 0.0
N465 N 0.2076 0.81327 0.59293 0.0
C466 C 0.22996 0.78933 0.62787 0.0
C467 C 0.21214 0.81958 0.65676 0.0
C468 C 0.20351 0.82539 0.62307 0.0
C469 C 0.22577 0.80141 0.65967 0.0
H470 H 0.22386 0.78631 0.57024 0.0
H471 H 0.1936 0.83972 0.6211 0.0
C472 C 0.16893 0.85422 0.44385 0.0
N473 N 0.16035 0.89051 0.40238 0.0
C474 C 0.14792 0.86254 0.44207 0.0
C475 C 0.18554 0.86421 0.42424 0.0
C476 C 0.14392 0.88093 0.421 0.0
C477 C 0.18088 0.88258 0.40352 0.0
C478 C 0.17948 0.77791 0.50763 0.0
C479 C 0.17486 0.77175 0.47183 0.0
C480 C 0.18037 0.76224 0.535 0.0
C481 C 0.17112 0.74995 0.46402 0.0
C482 C 0.17649 0.74061 0.5261 0.0
N483 N 0.172 0.73496 0.49109 0.0
C484 C 0.22766 0.78838 0.44817 0.0
C485 C 0.20692 0.80841 0.40562 0.0
C486 C 0.23707 0.77635 0.42001 0.0
N487 N 0.21276 0.80393 0.44053 0.0
C488 C 0.21606 0.79693 0.37664 0.0
C489 C 0.23117 0.78046 0.38366 0.0
H490 H 0.23184 0.785 0.47621 0.0
H491 H 0.19468 0.8205 0.40028 0.0
C492 C 0.11777 0.83202 0.5198 0.0
N493 N 0.13136 0.81613 0.50816 0.0
C494 C 0.09546 0.82858 0.52094 0.0
C495 C 0.1013 0.79271 0.49679 0.0
C496 C 0.12356 0.79676 0.49656 0.0
C497 C 0.08687 0.80867 0.50938 0.0
H498 H 0.12431 0.84741 0.52846 0.0
H499 H 0.13449 0.78441 0.48706 0.0
O500 O 0.21587 0.83674 0.51275 0.0
O501 O 0.17002 0.84261 0.54994 0.0
O502 O 0.1733 0.83662 0.4652 0.0
O503 O 0.18365 0.79908 0.51584 0.0
H504 H 0.20605 0.86316 0.56754 0.0
H505 H 0.25826 0.83631 0.50426 0.0
H506 H 0.23291 0.88338 0.60429 0.0
H507 H 0.28426 0.85714 0.54212 0.0
H508 H 0.13703 0.79546 0.62727 0.0
H509 H 0.15223 0.8713 0.59386 0.0
H510 H 0.15971 0.80312 0.57321 0.0
H511 H 0.12962 0.86241 0.64775 0.0
H512 H 0.21982 0.92487 0.48001 0.0
H513 H 0.15196 0.92327 0.50804 0.0
H514 H 0.24062 0.77543 0.62836 0.0
H515 H 0.20796 0.82926 0.68029 0.0
H516 H 0.13488 0.85499 0.45703 0.0
H517 H 0.20194 0.85807 0.4256 0.0
H518 H 0.12776 0.88763 0.41956 0.0
H519 H 0.19362 0.89061 0.38851 0.0
H520 H 0.17389 0.78371 0.45038 0.0
H521 H 0.18399 0.76676 0.56283 0.0
H522 H 0.16747 0.74495 0.43646 0.0
H523 H 0.17708 0.72831 0.54702 0.0
H524 H 0.24875 0.76388 0.42662 0.0
H525 H 0.21079 0.8004 0.34912 0.0
H526 H 0.08513 0.84132 0.53135 0.0
H527 H 0.09551 0.77726 0.4869 0.0
Li528 Li 0.19384 0.19175 0.5507 0.0
Li529 Li 0.15943 0.18975 0.51407 0.0
Li530 Li 0.18646 0.16156 0.51023 0.0
Li531 Li 0.19398 0.19582 0.48287 0.0
C532 C 0.16269 0.15149 0.5678 0.0
N533 N 0.14894 0.1118 0.59358 0.0
C534 C 0.14105 0.14531 0.56403 0.0
C535 C 0.17728 0.13757 0.58511 0.0
C536 C 0.13442 0.12516 0.57717 0.0
C537 C 0.17004 0.11754 0.5978 0.0
C538 C 0.17248 0.23328 0.50353 0.0
C539 C 0.15202 0.25107 0.4563 0.0
N540 N 0.15807 0.2706 0.47002 0.0
C541 C 0.1785 0.2535 0.51717 0.0
C542 C 0.15914 0.23201 0.47286 0.0
C543 C 0.17104 0.2722 0.49984 0.0
C544 C 0.21671 0.22055 0.59761 0.0
N545 N 0.20501 0.20195 0.59597 0.0
C546 C 0.20585 0.19858 0.66078 0.0
C547 C 0.19963 0.1909 0.62662 0.0
C548 C 0.21745 0.21808 0.66362 0.0
C549 C 0.22315 0.22895 0.63135 0.0
H550 H 0.22055 0.22915 0.57278 0.0
H551 H 0.19017 0.17627 0.62461 0.0
C552 C 0.11541 0.18446 0.49495 0.0
N553 N 0.12938 0.19605 0.51585 0.0
C554 C 0.09309 0.18737 0.49875 0.0
C555 C 0.10006 0.21458 0.5446 0.0
C556 C 0.12223 0.21108 0.54003 0.0
C557 C 0.08513 0.20236 0.5243 0.0
H558 H 0.12161 0.1724 0.47631 0.0
H559 H 0.13376 0.22 0.55633 0.0
C560 C 0.23207 0.16749 0.52184 0.0
N561 N 0.26962 0.14486 0.53688 0.0
C562 C 0.24707 0.16334 0.49416 0.0
C563 C 0.23634 0.1604 0.55726 0.0
C564 C 0.26591 0.1518 0.50229 0.0
C565 C 0.25537 0.14891 0.56429 0.0
C566 C 0.17454 0.16602 0.4368 0.0
C567 C 0.19517 0.1579 0.42926 0.0
C568 C 0.15829 0.16451 0.41047 0.0
C569 C 0.19922 0.14837 0.39544 0.0
C570 C 0.16297 0.15486 0.37695 0.0
N571 N 0.18317 0.14706 0.37019 0.0
C572 C 0.16877 0.12176 0.49311 0.0
C573 C 0.20602 0.11821 0.50695 0.0
C574 C 0.16701 0.09955 0.48716 0.0
N575 N 0.18798 0.13066 0.50305 0.0
C576 C 0.20506 0.09589 0.50077 0.0
C577 C 0.18534 0.08623 0.4907 0.0
H578 H 0.15467 0.13198 0.49008 0.0
H579 H 0.22119 0.12542 0.51467 0.0
C580 C 0.22944 0.21474 0.44738 0.0
N581 N 0.20813 0.20994 0.44324 0.0
C582 C 0.24135 0.22295 0.41819 0.0
C583 C 0.20896 0.22197 0.38132 0.0
C584 C 0.19768 0.21369 0.41124 0.0
C585 C 0.23121 0.22632 0.38438 0.0
H586 H 0.23731 0.21168 0.47319 0.0
H587 H 0.18073 0.20969 0.40857 0.0
O588 O 0.16956 0.17098 0.55439 0.0
O589 O 0.17978 0.21485 0.52008 0.0
O590 O 0.21364 0.17895 0.5144 0.0
O591 O 0.17019 0.17553 0.46966 0.0
H592 H 0.12949 0.15588 0.55096 0.0
H593 H 0.19409 0.14199 0.58818 0.0
H594 H 0.11775 0.12014 0.57425 0.0
H595 H 0.18121 0.10653 0.6109 0.0
H596 H 0.14172 0.25034 0.43252 0.0
H597 H 0.18885 0.25473 0.54088 0.0
H598 H 0.15437 0.2165 0.46186 0.0
H599 H 0.17557 0.28797 0.51008 0.0
H600 H 0.20142 0.1894 0.68474 0.0
H601 H 0.23186 0.24414 0.63216 0.0
H602 H 0.08222 0.17738 0.48287 0.0
H603 H 0.09469 0.22654 0.56419 0.0
H604 H 0.24422 0.16897 0.46668 0.0
H605 H 0.2251 0.16367 0.57908 0.0
H606 H 0.2776 0.14839 0.48111 0.0
H607 H 0.25881 0.14324 0.59154 0.0
H608 H 0.2079 0.15891 0.44931 0.0
H609 H 0.14224 0.17079 0.41584 0.0
H610 H 0.21513 0.14201 0.38927 0.0
H611 H 0.15055 0.1536 0.3563 0.0
H612 H 0.15133 0.09293 0.48023 0.0
H613 H 0.21971 0.0864 0.50338 0.0
H614 H 0.25839 0.22639 0.42194 0.0
H615 H 0.20054 0.22416 0.35571 0.0
Li616 Li 0.81773 0.19492 0.5449 0.0
Li617 Li 0.82569 0.16315 0.50332 0.0
Li618 Li 0.8508 0.19302 0.50883 0.0
Li619 Li 0.81786 0.19761 0.47535 0.0
C620 C 0.85914 0.16771 0.56572 0.0
N621 N 0.89787 0.15821 0.59966 0.0
C622 C 0.8722 0.15098 0.55254 0.0
C623 C 0.86562 0.17947 0.59634 0.0
C624 C 0.89177 0.14647 0.57004 0.0
C625 C 0.8853 0.17445 0.61307 0.0
C626 C 0.78331 0.16447 0.51011 0.0
C627 C 0.76204 0.13643 0.48168 0.0
N628 N 0.75385 0.13096 0.51479 0.0
C629 C 0.77456 0.15867 0.54381 0.0
C630 C 0.77689 0.15338 0.47872 0.0
C631 C 0.75972 0.14166 0.54563 0.0
C632 C 0.79444 0.22324 0.5917 0.0
N633 N 0.80474 0.20384 0.58938 0.0
C634 C 0.79614 0.19585 0.65138 0.0
C635 C 0.80588 0.19023 0.61838 0.0
C636 C 0.78533 0.21576 0.65464 0.0
C637 C 0.78471 0.22965 0.62437 0.0
H638 H 0.7937 0.23368 0.56809 0.0
H639 H 0.81417 0.17489 0.6157 0.0
C640 C 0.82821 0.12264 0.4676 0.0
N641 N 0.82284 0.13242 0.4995 0.0
C642 C 0.82551 0.10038 0.46333 0.0
C643 C 0.81264 0.09839 0.52538 0.0
C644 C 0.81552 0.12077 0.5284 0.0
C645 C 0.81742 0.08796 0.49231 0.0
H646 H 0.83463 0.13209 0.44542 0.0
H647 H 0.81168 0.12892 0.55368 0.0
C648 C 0.84236 0.23603 0.51224 0.0
N649 N 0.86765 0.27287 0.5116 0.0
C650 C 0.85471 0.24113 0.48155 0.0
C651 C 0.8428 0.2497 0.54258 0.0
C652 C 0.86742 0.25981 0.48178 0.0
C653 C 0.8557 0.26825 0.54172 0.0
C654 C 0.84379 0.17941 0.42718 0.0
C655 C 0.86078 0.19113 0.41158 0.0
C656 C 0.82822 0.1699 0.40465 0.0
C657 C 0.86186 0.19317 0.37373 0.0
C658 C 0.82984 0.17235 0.36693 0.0
N659 N 0.84649 0.18384 0.35237 0.0
C660 C 0.89517 0.18669 0.49291 0.0
C661 C 0.88871 0.21324 0.53815 0.0
C662 C 0.91752 0.18873 0.49759 0.0
N663 N 0.88127 0.19893 0.51295 0.0
C664 C 0.91091 0.21588 0.54362 0.0
C665 C 0.92567 0.20337 0.52347 0.0
H666 H 0.88888 0.17475 0.47417 0.0
H667 H 0.87745 0.22208 0.555 0.0
C668 C 0.78107 0.20744 0.43359 0.0
N669 N 0.80277 0.21085 0.43518 0.0
C670 C 0.76911 0.21452 0.40363 0.0
C671 C 0.80185 0.22929 0.37784 0.0
C672 C 0.81315 0.22214 0.40859 0.0
C673 C 0.77956 0.22514 0.37469 0.0
H674 H 0.77303 0.19888 0.45536 0.0
H675 H 0.83033 0.22498 0.41049 0.0
O676 O 0.84029 0.17282 0.54827 0.0
O677 O 0.79825 0.18074 0.5079 0.0
O678 O 0.8299 0.21775 0.51265 0.0
O679 O 0.84241 0.17726 0.46425 0.0
H680 H 0.86741 0.1418 0.52876 0.0
H681 H 0.85571 0.19255 0.60671 0.0
H682 H 0.90215 0.13368 0.55999 0.0
H683 H 0.89063 0.18353 0.63661 0.0
H684 H 0.75706 0.12761 0.45765 0.0
H685 H 0.77928 0.16709 0.56835 0.0
H686 H 0.78341 0.1577 0.4524 0.0
H687 H 0.75291 0.13693 0.57157 0.0
H688 H 0.79712 0.18477 0.67416 0.0
H689 H 0.77636 0.24504 0.62572 0.0
H690 H 0.82988 0.09293 0.43765 0.0
H691 H 0.80633 0.08944 0.54839 0.0
H692 H 0.85476 0.2306 0.45809 0.0
H693 H 0.83344 0.24594 0.56665 0.0
H694 H 0.87717 0.26387 0.45829 0.0
H695 H 0.85625 0.27894 0.56504 0.0
H696 H 0.87288 0.1988 0.42844 0.0
H697 H 0.81487 0.16093 0.41615 0.0
H698 H 0.87487 0.20226 0.36133 0.0
H699 H 0.81782 0.16518 0.34924 0.0
H700 H 0.92824 0.17837 0.48206 0.0
H701 H 0.91641 0.2274 0.56381 0.0
H702 H 0.75186 0.21148 0.40306 0.0
H703 H 0.8107 0.23729 0.35626 0.0
H704 H 0.30598 0.46141 0.04233 0.0
H705 H 0.32635 0.44647 0.93191 0.0
H706 H 0.32838 0.48541 0.91812 0.0
H707 H 0.27357 0.50877 0.02015 0.0
H708 H 0.28173 0.52348 0.06026 0.0
H709 H 0.28072 0.49435 0.06109 0.0
H710 H 0.32083 0.49303 0.0816 0.0
H711 H 0.32196 0.52214 0.08086 0.0
H712 H 0.34111 0.50656 0.05465 0.0
H713 H 0.33007 0.52577 0.91696 0.0
H714 H 0.3307 0.56514 0.92835 0.0
H715 H 0.30965 0.55419 0.03958 0.0
C716 C 0.31083 0.46632 0.01523 0.0
C717 C 0.31583 0.4508 0.98813 0.0
C718 C 0.32201 0.45796 0.95295 0.0
C719 C 0.32335 0.48008 0.94489 0.0
C720 C 0.31844 0.49489 0.97225 0.0
C721 C 0.31225 0.48836 1.00668 0.0
C722 C 0.30842 0.50766 0.03138 0.0
C723 C 0.2847 0.50862 0.04395 0.0
C724 C 0.32401 0.50732 0.06405 0.0
C725 C 0.31366 0.52603 1.00553 0.0
C726 C 0.31938 0.51828 0.97155 0.0
C727 C 0.32554 0.53205 0.9434 0.0
C728 C 0.32596 0.55436 0.95018 0.0
C729 C 0.32023 0.56271 0.98482 0.0
C730 C 0.31384 0.5483 0.0127 0.0
H731 H 0.45787 0.33957 0.01829 0.0
H732 H 0.44508 0.27157 0.99813 0.0
H733 H 0.4844 0.2644 0.99599 0.0
H734 H 0.50393 0.34412 0.95901 0.0
H735 H 0.51843 0.36226 0.98872 0.0
H736 H 0.48928 0.36197 0.98906 0.0
H737 H 0.4896 0.35462 0.05854 0.0
H738 H 0.51875 0.35482 0.0584 0.0
H739 H 0.50439 0.33171 0.07598 0.0
H740 H 0.52501 0.26475 0.99467 0.0
H741 H 0.56423 0.27248 0.99549 0.0
H742 H 0.55063 0.34023 0.01668 0.0
C743 C 0.46335 0.32319 0.01321 0.0
C744 C 0.44841 0.30611 1.00839 0.0
C745 C 0.45623 0.28485 1.00229 0.0
C746 C 0.47852 0.28064 1.00086 0.0
C747 C 0.49279 0.29784 1.00575 0.0
C748 C 0.48554 0.31868 0.0119 0.0
C749 C 0.50429 0.33424 0.01638 0.0
C750 C 0.50396 0.35167 0.98651 0.0
C751 C 0.50425 0.34444 0.0546 0.0
C752 C 0.52322 0.31891 0.01156 0.0
C753 C 0.51622 0.298 1.00539 0.0
C754 C 0.53069 0.28106 0.99952 0.0
C755 C 0.55291 0.28562 0.99985 0.0
C756 C 0.56046 0.30694 1.00613 0.0
C757 C 0.54535 0.32373 0.01223 0.0
H758 H 0.67375 0.46137 0.02737 0.0
H759 H 0.73374 0.44856 0.96959 0.0
H760 H 0.74008 0.48781 0.96386 0.0
H761 H 0.65763 0.50747 0.97389 0.0
H762 H 0.64643 0.52202 0.01208 0.0
H763 H 0.64672 0.49288 0.01221 0.0
H764 H 0.66744 0.49307 0.07357 0.0
H765 H 0.66719 0.52221 0.07365 0.0
H766 H 0.6925 0.50784 0.07723 0.0
H767 H 0.73974 0.52835 0.96366 0.0
H768 H 0.73295 0.56752 0.96956 0.0
H769 H 0.67318 0.55413 0.02751 0.0
C770 C 0.68816 0.4668 0.0133 0.0
C771 C 0.70329 0.45183 0.99904 0.0
C772 C 0.72208 0.45967 0.98124 0.0
C773 C 0.72575 0.48194 0.97763 0.0
C774 C 0.71051 0.49622 0.99194 0.0
C775 C 0.6921 0.48899 1.00946 0.0
C776 C 0.67831 0.50778 0.02246 0.0
C777 C 0.65595 0.50751 1.00405 0.0
C778 C 0.67625 0.50772 0.06421 0.0
C779 C 0.69182 0.52669 1.00937 0.0
C780 C 0.71032 0.51964 0.99186 0.0
C781 C 0.72535 0.53407 0.97745 0.0
C782 C 0.7214 0.5563 0.98114 0.0
C783 C 0.70259 0.56395 0.99915 0.0
C784 C 0.68761 0.54884 0.0133 0.0
H785 H 0.45978 0.67541 0.01126 0.0
H786 H 0.44676 0.74415 1.0004 0.0
H787 H 0.48602 0.75145 0.99974 0.0
H788 H 0.50581 0.68021 0.06983 0.0
H789 H 0.52039 0.65814 0.04906 0.0
H790 H 0.49124 0.6583 0.04864 0.0
H791 H 0.49149 0.65469 0.97831 0.0
H792 H 0.52065 0.65452 0.97851 0.0
H793 H 0.50624 0.67412 0.95143 0.0
H794 H 0.52667 0.75133 1.00055 0.0
H795 H 0.5659 0.74377 1.00251 0.0
H796 H 0.55249 0.67509 0.01217 0.0
C797 C 0.46516 0.69199 1.00837 0.0
C798 C 0.45013 0.70922 1.00598 0.0
C799 C 0.45791 0.7307 1.00281 0.0
C800 C 0.4802 0.73501 1.00217 0.0
C801 C 0.49453 0.71766 1.00464 0.0
C802 C 0.48734 0.69657 1.00763 0.0
C803 C 0.50614 0.68088 0.01009 0.0
C804 C 0.50588 0.66867 0.04658 0.0
C805 C 0.50612 0.66512 0.97765 0.0
C806 C 0.52503 0.69644 1.00801 0.0
C807 C 0.51797 0.71758 1.00492 0.0
C808 C 0.5324 0.73484 1.00298 0.0
C809 C 0.55464 0.7304 1.00432 0.0
C810 C 0.56229 0.70885 1.00754 0.0
C811 C 0.54718 0.6917 1.00927 0.0
H812 H 0.82495 0.96241 0.54428 0.0
H813 H 0.7971 0.94852 0.43822 0.0
H814 H 0.79383 0.98762 0.42622 0.0
H815 H 0.79237 0.00978 0.5642 0.0
H816 H 0.81424 0.02416 0.58586 0.0
H817 H 0.81364 0.99503 0.58689 0.0
H818 H 0.85191 0.99372 0.55809 0.0
H819 H 0.85265 0.02283 0.55705 0.0
H820 H 0.85682 0.00762 0.51574 0.0
H821 H 0.79471 0.02807 0.42462 0.0
H822 H 0.79951 0.06734 0.43375 0.0
H823 H 0.82737 0.05519 0.54034 0.0
C824 C 0.81819 0.96758 0.5185 0.0
C825 C 0.81115 0.95233 0.49229 0.0
C826 C 0.80224 0.95983 0.45902 0.0
C827 C 0.80043 0.98203 0.45184 0.0
C828 C 0.80757 0.99658 0.47818 0.0
C829 C 0.81624 0.9897 0.51087 0.0
C830 C 0.82307 0.00875 0.53423 0.0
C831 C 0.81005 0.00947 0.5699 0.0
C832 C 0.84757 0.00819 0.5417 0.0
C833 C 0.81707 0.02739 0.5094 0.0
C834 C 0.80811 0.01999 0.47724 0.0
C835 C 0.80168 0.03408 0.4497 0.0
C836 C 0.80459 0.05634 0.45506 0.0
C837 C 0.81387 0.06434 0.4877 0.0
C838 C 0.82001 0.0496 0.51528 0.0
H839 H 0.05353 0.8375 0.49676 0.0
H840 H 0.06614 0.77053 0.52586 0.0
H841 H 0.02689 0.76372 0.52864 0.0
H842 H 0.00856 0.84445 0.55775 0.0
H843 H 0.99379 0.86181 0.52712 0.0
H844 H 0.02292 0.86116 0.5256 0.0
H845 H 0.02148 0.85166 0.45687 0.0
H846 H 0.99234 0.8522 0.45821 0.0
H847 H 0.00624 0.8284 0.44207 0.0
H848 H 0.98622 0.76421 0.52888 0.0
H849 H 0.94712 0.7722 0.52808 0.0
H850 H 0.96109 0.83941 0.50285 0.0
C851 C 0.04813 0.82141 0.50399 0.0
C852 C 0.0631 0.80453 0.51083 0.0
C853 C 0.05513 0.78367 0.51971 0.0
C854 C 0.03282 0.77965 0.52164 0.0
C855 C 0.01861 0.79668 0.51486 0.0
C856 C 0.02593 0.81717 0.50639 0.0
C857 C 0.00726 0.83279 0.50134 0.0
C858 C 0.00819 0.85113 0.52964 0.0
C859 C 0.00681 0.84179 0.4623 0.0
C860 C 0.98827 0.81787 0.50828 0.0
C861 C 0.99517 0.79709 0.51588 0.0
C862 C 0.98062 0.78046 0.52318 0.0
C863 C 0.95843 0.78521 0.52291 0.0
C864 C 0.95092 0.80648 0.51565 0.0
C865 C 0.96618 0.82294 0.50811 0.0
H866 H 0.20673 0.05303 0.52613 0.0
H867 H 0.16043 0.06545 0.4395 0.0
H868 H 0.15606 0.02625 0.43036 0.0
H869 H 0.23257 0.0068 0.48139 0.0
H870 H 0.2367 0.99246 0.52356 0.0
H871 H 0.23638 0.02161 0.52322 0.0
H872 H 0.20603 0.02154 0.57192 0.0
H873 H 0.20618 0.99241 0.5723 0.0
H874 H 0.18138 0.00682 0.56326 0.0
H875 H 0.15492 0.98582 0.43295 0.0
H876 H 0.15902 0.94659 0.44467 0.0
H877 H 0.20797 0.96017 0.52608 0.0
C878 C 0.19594 0.04759 0.50479 0.0
C879 C 0.18375 0.06249 0.48386 0.0
C880 C 0.16958 0.05449 0.45658 0.0
C881 C 0.16711 0.03221 0.45091 0.0
C882 C 0.17914 0.01804 0.47232 0.0
C883 C 0.19347 0.02538 0.49842 0.0
C884 C 0.20441 0.00666 0.51777 0.0
C885 C 0.22897 0.0069 0.51107 0.0
C886 C 0.19918 0.00688 0.55874 0.0
C887 C 0.19375 0.98768 0.49878 0.0
C888 C 0.17914 0.99463 0.47277 0.0
C889 C 0.1665 0.98016 0.4529 0.0
C890 C 0.16887 0.95799 0.45978 0.0
C891 C 0.1839 0.95053 0.48599 0.0
C892 C 0.1966 0.96555 0.50553 0.0
H893 H 0.9591 0.20201 0.47375 0.0
H894 H 0.94587 0.20758 0.58957 0.0
H895 H 0.98504 0.20941 0.60191 0.0
H896 H 1.00527 0.1674 0.48273 0.0
H897 H 0.01992 0.17955 0.44555 0.0
H898 H 0.99077 0.17973 0.44553 0.0
H899 H 0.9909 0.22147 0.43886 0.0
H900 H 0.02005 0.22142 0.43887 0.0
H901 H 1.00549 0.23767 0.47148 0.0
H902 H 0.02555 0.20943 0.60206 0.0
H903 H 0.06474 0.20726 0.59006 0.0
H904 H 0.05185 0.20156 0.47416 0.0
C905 C 0.96442 0.20357 0.50173 0.0
C906 C 0.94933 0.20484 0.53065 0.0
C907 C 0.95704 0.20703 0.56685 0.0
C908 C 0.97928 0.20794 0.57418 0.0
C909 C 0.99367 0.20662 0.54507 0.0
C910 C 0.98658 0.20447 0.50957 0.0
C911 C 1.00548 0.2029 0.48336 0.0
C912 C 1.00534 0.1811 0.46311 0.0
C913 C 1.00547 0.22201 0.45656 0.0
C914 C 0.02428 0.20433 0.50974 0.0
C915 C 0.01709 0.20656 0.54517 0.0
C916 C 0.03139 0.20786 0.57439 0.0
C917 C 0.05365 0.20677 0.56724 0.0
C918 C 0.06146 0.2044 0.53113 0.0
C919 C 0.04646 0.20325 0.50208 0.0
H920 H 0.22013 0.25618 0.33169 0.0
H921 H 0.27122 0.21189 0.36392 0.0
H922 H 0.29266 0.22282 0.31038 0.0
H923 H 0.22481 0.24721 0.23478 0.0
H924 H 0.2197 0.27505 0.22296 0.0
H925 H 0.20826 0.26387 0.26397 0.0
H926 H 0.22618 0.29431 0.30196 0.0
H927 H 0.23764 0.30561 0.26108 0.0
H928 H 0.25499 0.2985 0.29868 0.0
H929 H 0.30837 0.23798 0.25324 0.0
H930 H 0.31787 0.25712 0.19667 0.0
H931 H 0.257 0.29225 0.20147 0.0
C932 C 0.23578 0.24872 0.32737 0.0
C933 C 0.24405 0.23326 0.35217 0.0
C934 C 0.2647 0.22402 0.34569 0.0
C935 C 0.27694 0.23001 0.3152 0.0
C936 C 0.26835 0.24528 0.29138 0.0
C937 C 0.24829 0.25458 0.29708 0.0
C938 C 0.24298 0.27077 0.26735 0.0
C939 C 0.22274 0.2638 0.24601 0.0
C940 C 0.2403 0.29365 0.28323 0.0
C941 C 0.26319 0.26909 0.24408 0.0
C942 C 0.27756 0.25424 0.25844 0.0
C943 C 0.29732 0.24976 0.24185 0.0
C944 C 0.30263 0.26086 0.20982 0.0
C945 C 0.28832 0.2764 0.19468 0.0
C946 C 0.26826 0.2804 0.21211 0.0
H947 H 0.74962 0.29481 0.19741 0.0
H948 H 0.70029 0.24668 0.17424 0.0
H949 H 0.71078 0.22664 0.22939 0.0
H950 H 0.78957 0.25854 0.2327 0.0
H951 H 0.79864 0.27669 0.26798 0.0
H952 H 0.78743 0.28739 0.22645 0.0
H953 H 0.75902 0.30898 0.26359 0.0
H954 H 0.7702 0.29841 0.30526 0.0
H955 H 0.74183 0.29491 0.2954 0.0
H956 H 0.72696 0.21129 0.286 0.0
H957 H 0.74717 0.20205 0.34157 0.0
H958 H 0.78464 0.26117 0.33068 0.0
C959 C 0.74087 0.28018 0.20406 0.0
C960 C 0.72424 0.27226 0.18109 0.0
C961 C 0.71339 0.25288 0.19079 0.0
C962 C 0.71911 0.24144 0.22227 0.0
C963 C 0.73563 0.2496 0.24407 0.0
C964 C 0.74628 0.26858 0.23557 0.0
C965 C 0.76339 0.2738 0.26388 0.0
C966 C 0.7861 0.27412 0.24672 0.0
C967 C 0.7583 0.2953 0.28317 0.0
C968 C 0.76072 0.25473 0.28945 0.0
C969 C 0.74463 0.24098 0.27742 0.0
C970 C 0.73943 0.22206 0.29595 0.0
C971 C 0.75093 0.21705 0.32774 0.0
C972 C 0.76739 0.23098 0.341 0.0
C973 C 0.77228 0.25008 0.32136 0.0
H974 H 0.76621 0.79433 0.31951 0.0
H975 H 0.80583 0.74068 0.35712 0.0
H976 H 0.79446 0.71921 0.30401 0.0
H977 H 0.7225 0.76326 0.28454 0.0
H978 H 0.71808 0.78023 0.24533 0.0
H979 H 0.72933 0.79159 0.28633 0.0
H980 H 0.76239 0.80558 0.24989 0.0
H981 H 0.75122 0.79427 0.20873 0.0
H982 H 0.77811 0.78683 0.22309 0.0
H983 H 0.77789 0.70295 0.24831 0.0
H984 H 0.75803 0.69346 0.19209 0.0
H985 H 0.73079 0.75811 0.18828 0.0
C986 C 0.77275 0.77818 0.31644 0.0
C987 C 0.78678 0.76919 0.34295 0.0
C988 C 0.79468 0.74784 0.33784 0.0
C989 C 0.78847 0.73554 0.30753 0.0
C990 C 0.77454 0.74484 0.28218 0.0
C991 C 0.76689 0.76571 0.2861 0.0
C992 C 0.75207 0.7718 0.25478 0.0
C993 C 0.72914 0.77702 0.26858 0.0
C994 C 0.76152 0.79074 0.23282 0.0
C995 C 0.75242 0.75099 0.23291 0.0
C996 C 0.76545 0.73564 0.24931 0.0
C997 C 0.76776 0.71487 0.23506 0.0
C998 C 0.75638 0.70961 0.20326 0.0
C999 C 0.74298 0.72508 0.18591 0.0
C1000 C 0.74115 0.74609 0.2008 0.0
H1001 H 0.24573 0.79397 0.31644 0.0
H1002 H 0.23606 0.73648 0.38224 0.0
H1003 H 0.24946 0.71381 0.33164 0.0
H1004 H 0.22924 0.77071 0.23085 0.0
H1005 H 0.24936 0.78485 0.2045 0.0
H1006 H 0.23907 0.79667 0.24589 0.0
H1007 H 0.27811 0.79986 0.27109 0.0
H1008 H 0.28852 0.78814 0.22971 0.0
H1009 H 0.29502 0.7761 0.27306 0.0
H1010 H 0.26297 0.6973 0.27358 0.0
H1011 H 0.27747 0.68805 0.21307 0.0
H1012 H 0.27958 0.7563 0.18514 0.0
C1013 C 0.24637 0.77661 0.32014 0.0
C1014 C 0.23988 0.767 0.35338 0.0
C1015 C 0.2412 0.74423 0.35725 0.0
C1016 C 0.24865 0.7312 0.32856 0.0
C1017 C 0.25482 0.74117 0.29616 0.0
C1018 C 0.25392 0.76335 0.29183 0.0
C1019 C 0.26187 0.76996 0.25435 0.0
C1020 C 0.24381 0.78121 0.23262 0.0
C1021 C 0.28208 0.78437 0.25724 0.0
C1022 C 0.26733 0.74802 0.23827 0.0
C1023 C 0.26303 0.73165 0.26283 0.0
C1024 C 0.26658 0.70999 0.25424 0.0
C1025 C 0.27498 0.70492 0.2198 0.0
C1026 C 0.27996 0.72142 0.19427 0.0
C1027 C 0.27585 0.74326 0.20376 0.0
H1028 H 0.23573 0.76052 0.68614 0.0
H1029 H 0.23857 0.82871 0.71498 0.0
H1030 H 0.25249 0.81904 0.77547 0.0
H1031 H 0.22067 0.73988 0.77307 0.0
H1032 H 0.23783 0.71633 0.77043 0.0
H1033 H 0.22735 0.72835 0.72937 0.0
H1034 H 0.26631 0.73244 0.70418 0.0
H1035 H 0.27689 0.72026 0.74504 0.0
H1036 H 0.28634 0.74652 0.73087 0.0
H1037 H 0.26481 0.80212 0.83395 0.0
H1038 H 0.27847 0.77907 0.88405 0.0
H1039 H 0.27093 0.72228 0.81584 0.0
C1040 C 0.2395 0.77351 0.70485 0.0
C1041 C 0.23553 0.79542 0.6956 0.0
C1042 C 0.24067 0.81176 0.72143 0.0
C1043 C 0.2488 0.80646 0.75593 0.0
C1044 C 0.25215 0.78476 0.76423 0.0
C1045 C 0.24802 0.76855 0.73927 0.0
C1046 C 0.25379 0.74654 0.75476 0.0
C1047 C 0.23371 0.73192 0.75704 0.0
C1048 C 0.27191 0.73581 0.73238 0.0
C1049 C 0.26168 0.75294 0.79236 0.0
C1050 C 0.26034 0.77506 0.79739 0.0
C1051 C 0.26609 0.7848 0.83025 0.0
C1052 C 0.2737 0.77161 0.85858 0.0
C1053 C 0.27576 0.74899 0.85368 0.0
C1054 C 0.26963 0.73958 0.82014 0.0
H1055 H 0.28927 0.27838 0.81475 0.0
H1056 H 0.23698 0.26635 0.89103 0.0
H1057 H 0.21607 0.24843 0.84233 0.0
H1058 H 0.2556 0.28973 0.73648 0.0
H1059 H 0.27339 0.27637 0.70468 0.0
H1060 H 0.28427 0.28844 0.74543 0.0
H1061 H 0.30166 0.25178 0.76324 0.0
H1062 H 0.29086 0.23961 0.72253 0.0
H1063 H 0.28489 0.228 0.76642 0.0
H1064 H 0.20067 0.23228 0.78559 0.0
H1065 H 0.19202 0.21792 0.72478 0.0
H1066 H 0.25467 0.23942 0.68516 0.0
C1067 C 0.27335 0.27211 0.82111 0.0
C1068 C 0.26476 0.27373 0.85673 0.0
C1069 C 0.24399 0.26506 0.86408 0.0
C1070 C 0.23194 0.25498 0.83655 0.0
C1071 C 0.24089 0.25361 0.8018 0.0
C1072 C 0.26114 0.26186 0.79396 0.0
C1073 C 0.26711 0.25789 0.75444 0.0
C1074 C 0.27027 0.27939 0.73406 0.0
C1075 C 0.28733 0.24346 0.7515 0.0
C1076 C 0.24703 0.24615 0.7413 0.0
C1077 C 0.23211 0.24394 0.76908 0.0
C1078 C 0.21229 0.23377 0.76368 0.0
C1079 C 0.2076 0.2255 0.72903 0.0
C1080 C 0.22273 0.22727 0.7001 0.0
C1081 C 0.24267 0.23789 0.7065 0.0
H1082 H 0.75233 0.29172 0.82234 0.0
H1083 H 0.71186 0.23887 0.86043 0.0
H1084 H 0.7238 0.21663 0.80864 0.0
H1085 H 0.74088 0.28364 0.72693 0.0
H1086 H 0.76783 0.29066 0.71234 0.0
H1087 H 0.75688 0.30228 0.7534 0.0
H1088 H 0.78981 0.28798 0.78988 0.0
H1089 H 0.80086 0.2763 0.74894 0.0
H1090 H 0.79632 0.25955 0.78838 0.0
H1091 H 0.74009 0.19989 0.75298 0.0
H1092 H 0.75869 0.19034 0.6956 0.0
H1093 H 0.78702 0.2545 0.69147 0.0
C1094 C 0.74581 0.27554 0.81977 0.0
C1095 C 0.7313 0.26706 0.846 0.0
C1096 C 0.72341 0.24567 0.84146 0.0
C1097 C 0.72995 0.23291 0.81187 0.0
C1098 C 0.74424 0.24177 0.78669 0.0
C1099 C 0.75198 0.26263 0.79013 0.0
C1100 C 0.7668 0.26838 0.75867 0.0
C1101 C 0.75754 0.28736 0.73653 0.0
C1102 C 0.78981 0.27334 0.77229 0.0
C1103 C 0.76618 0.24748 0.73708 0.0
C1104 C 0.75316 0.2323 0.75389 0.0
C1105 C 0.7503 0.21164 0.73951 0.0
C1106 C 0.76099 0.20633 0.70704 0.0
C1107 C 0.77427 0.22167 0.68913 0.0
C1108 C 0.7768 0.24253 0.7044 0.0
H1109 H 0.72423 0.7589 0.83294 0.0
H1110 H 0.76144 0.69933 0.83829 0.0
H1111 H 0.78039 0.70932 0.78177 0.0
H1112 H 0.71778 0.75999 0.73622 0.0
H1113 H 0.7208 0.7889 0.73226 0.0
H1114 H 0.71021 0.77736 0.7736 0.0
H1115 H 0.74012 0.79665 0.81089 0.0
H1116 H 0.75076 0.80831 0.76965 0.0
H1117 H 0.76812 0.79257 0.79889 0.0
H1118 H 0.79486 0.72512 0.72439 0.0
H1119 H 0.80462 0.74627 0.66997 0.0
H1120 H 0.75861 0.79604 0.70139 0.0
C1121 C 0.73653 0.74807 0.82244 0.0
C1122 C 0.74118 0.72821 0.83999 0.0
C1123 C 0.75726 0.71442 0.82506 0.0
C1124 C 0.76824 0.72001 0.79307 0.0
C1125 C 0.7631 0.73953 0.77628 0.0
C1126 C 0.74772 0.75343 0.79045 0.0
C1127 C 0.74522 0.77337 0.76669 0.0
C1128 C 0.72213 0.77499 0.75128 0.0
C1129 C 0.75143 0.79394 0.78779 0.0
C1130 C 0.76153 0.76841 0.73693 0.0
C1131 C 0.77162 0.74879 0.74307 0.0
C1132 C 0.78707 0.7405 0.71924 0.0
C1133 C 0.79239 0.75258 0.68825 0.0
C1134 C 0.7823 0.77276 0.68123 0.0
C1135 C 0.76672 0.78076 0.70611 0.0
loop_
_geom_bond_atom_site_label_1
_geom_bond_atom_site_label_2
_geom_bond_distance
_geom_bond_site_symmetry_2
_ccdc_geom_bond_type
Li0 N17 1.990 . S
Li0 O60 1.956 . S
Li0 O61 1.981 . S
Li0 O62 1.955 1_554 S
Li1 N25 1.991 . S
Li1 O60 1.960 1_556 S
Li1 O61 1.956 1_556 S
Li1 O63 1.971 . S
Li2 N47 1.991 . S
Li2 O60 1.976 . S
Li2 O62 1.956 1_554 S
Li2 O63 1.955 1_554 S
Li3 N53 1.990 . S
Li3 O61 1.950 1_556 S
Li3 O62 1.976 . S
Li3 O63 1.956 . S
C4 C6 1.348 . S
C4 C7 1.356 . S
C4 O60 1.325 . S
N5 C8 1.314 . S
N5 C9 1.279 . S
C6 C4 1.348 . S
C6 C8 1.353 . S
C6 H64 0.929 . S
C7 C4 1.356 . S
C7 C9 1.358 . S
C7 H65 0.930 . S
C8 N5 1.314 . S
C8 C6 1.353 . S
C8 H66 0.930 . S
C9 N5 1.279 . S
C9 C7 1.358 . S
C9 H67 0.930 . S
C10 C13 1.345 . S
C10 C14 1.358 1_554 S
C10 O61 1.325 . S
C11 N12 1.279 . S
C11 C14 1.358 . S
C11 H68 0.930 . S
N12 C11 1.279 . S
N12 C15 1.314 1_556 S
C13 C10 1.345 . S
C13 C15 1.353 . S
C13 H69 0.929 . S
C14 C10 1.358 1_556 S
C14 C11 1.358 . S
C14 H70 0.930 . S
C15 N12 1.314 1_554 S
C15 C13 1.353 . S
C15 H71 0.930 . S
C16 N17 1.314 . S
C16 C21 1.353 . S
C16 H22 0.930 . S
N17 Li0 1.990 . S
N17 C16 1.314 . S
N17 C19 1.279 . S
C18 C19 1.358 . S
C18 C20 1.356 . S
C18 H72 0.930 . S
C19 N17 1.279 . S
C19 C18 1.358 . S
C19 H23 0.930 . S
C20 C18 1.356 . S
C20 C21 1.348 . S
C21 C16 1.353 . S
C21 C20 1.348 . S
C21 H73 0.929 . S
H22 C16 0.930 . S
H23 C19 0.930 . S
C24 N25 1.314 . S
C24 C26 1.353 . S
C24 H30 0.930 . S
N25 Li1 1.991 . S
N25 C24 1.314 . S
N25 C28 1.279 1_556 S
C26 C24 1.353 . S
C26 C29 1.346 1_556 S
C26 H74 0.929 . S
C27 C28 1.358 . S
C27 C29 1.357 . S
C27 H75 0.930 . S
C28 N25 1.279 1_554 S
C28 C27 1.358 . S
C28 H31 0.930 . S
C29 C26 1.346 1_554 S
C29 C27 1.357 . S
H30 C24 0.930 . S
H31 C28 0.930 . S
C32 C34 1.345 1_554 S
C32 C35 1.358 . S
C32 O62 1.325 1_554 S
N33 C36 1.314 1_554 S
N33 C37 1.279 . S
C34 C32 1.345 1_556 S
C34 C36 1.353 . S
C34 H76 0.929 . S
C35 C32 1.358 . S
C35 C37 1.358 . S
C35 H77 0.930 . S
C36 N33 1.314 1_556 S
C36 C34 1.353 . S
C36 H78 0.930 . S
C37 N33 1.279 . S
C37 C35 1.358 . S
C37 H79 0.930 . S
C38 C39 1.348 . S
C38 C40 1.356 . S
C38 O63 1.325 . S
C39 C38 1.348 . S
C39 C41 1.353 . S
C39 H80 0.929 . S
C40 C38 1.356 . S
C40 C42 1.358 . S
C40 H81 0.930 . S
C41 C39 1.353 . S
C41 N43 1.314 . S
C41 H82 0.930 . S
C42 C40 1.358 . S
C42 N43 1.279 . S
C42 H83 0.930 . S
N43 C41 1.314 . S
N43 C42 1.279 . S
C44 C46 1.353 . S
C44 N47 1.314 . S
C44 H50 0.930 . S
C45 N47 1.279 1_556 S
C45 C48 1.358 . S
C45 H51 0.930 . S
C46 C44 1.353 . S
C46 C49 1.348 1_554 S
C46 H84 0.929 . S
N47 Li2 1.991 . S
N47 C44 1.314 . S
N47 C45 1.279 1_554 S
C48 C45 1.358 . S
C48 C49 1.356 . S
C48 H85 0.930 . S
C49 C46 1.348 1_556 S
C49 C48 1.356 . S
H50 C44 0.930 . S
H51 C45 0.930 . S
C52 N53 1.314 . S
C52 C54 1.353 . S
C52 H58 0.930 . S
N53 Li3 1.990 . S
N53 C52 1.314 . S
N53 C56 1.279 . S
C54 C52 1.353 . S
C54 C57 1.348 . S
C54 H86 0.929 . S
C55 C56 1.358 . S
C55 C57 1.356 . S
C55 H87 0.930 . S
C56 N53 1.279 . S
C56 C55 1.358 . S
C56 H59 0.930 . S
C57 C54 1.348 . S
C57 C55 1.356 . S
H58 C52 0.930 . S
H59 C56 0.930 . S
O60 Li0 1.956 . S
O60 Li1 1.960 1_554 S
O60 Li2 1.976 . S
O60 C4 1.325 . S
O61 Li0 1.981 . S
O61 Li1 1.956 1_554 S
O61 Li3 1.950 1_554 S
O61 C10 1.325 . S
O62 Li0 1.955 1_556 S
O62 Li2 1.956 1_556 S
O62 Li3 1.976 . S
O62 C32 1.325 1_556 S
O63 Li1 1.971 . S
O63 Li2 1.955 1_556 S
O63 Li3 1.956 . S
O63 C38 1.325 . S
H64 C6 0.929 . S
H65 C7 0.930 . S
H66 C8 0.930 . S
H67 C9 0.930 . S
H68 C11 0.930 . S
H69 C13 0.929 . S
H70 C14 0.930 . S
H71 C15 0.930 . S
H72 C18 0.930 . S
H73 C21 0.929 . S
H74 C26 0.929 . S
H75 C27 0.930 . S
H76 C34 0.929 . S
H77 C35 0.930 . S
H78 C36 0.930 . S
H79 C37 0.930 . S
H80 C39 0.929 . S
H81 C40 0.930 . S
H82 C41 0.930 . S
H83 C42 0.930 . S
H84 C46 0.929 . S
H85 C48 0.930 . S
H86 C54 0.929 . S
H87 C55 0.930 . S
Li88 N105 1.991 . S
Li88 O148 1.956 1_556 S
Li88 O149 1.960 1_556 S
Li88 O150 1.971 . S
Li89 N113 1.990 . S
Li89 O148 1.981 . S
Li89 O149 1.956 . S
Li89 O151 1.955 1_554 S
Li90 N135 1.990 . S
Li90 O148 1.950 1_556 S
Li90 O150 1.956 . S
Li90 O151 1.976 . S
Li91 N141 1.991 . S
Li91 O149 1.976 . S
Li91 O150 1.955 1_554 S
Li91 O151 1.956 1_554 S
C92 C94 1.345 . S
C92 C95 1.358 1_554 S
C92 O148 1.325 . S
N93 C96 1.314 1_556 S
N93 C97 1.279 . S
C94 C92 1.345 . S
C94 C96 1.353 . S
C94 H152 0.929 . S
C95 C92 1.358 1_556 S
C95 C97 1.358 . S
C95 H153 0.930 . S
C96 N93 1.314 1_554 S
C96 C94 1.353 . S
C96 H154 0.930 . S
C97 N93 1.279 . S
C97 C95 1.358 . S
C97 H155 0.930 . S
C98 C101 1.348 . S
C98 C102 1.356 . S
C98 O149 1.325 . S
C99 N100 1.279 . S
C99 C102 1.358 . S
C99 H156 0.930 . S
N100 C99 1.279 . S
N100 C103 1.314 . S
C101 C98 1.348 . S
C101 C103 1.353 . S
C101 H157 0.929 . S
C102 C98 1.356 . S
C102 C99 1.358 . S
C102 H158 0.930 . S
C103 N100 1.314 . S
C103 C101 1.353 . S
C103 H159 0.930 . S
C104 N105 1.314 . S
C104 C109 1.353 . S
C104 H110 0.930 . S
N105 Li88 1.991 . S
N105 C104 1.314 . S
N105 C107 1.279 1_556 S
C106 C107 1.358 . S
C106 C108 1.357 . S
C106 H160 0.930 . S
C107 N105 1.279 1_554 S
C107 C106 1.358 . S
C107 H111 0.930 . S
C108 C106 1.357 . S
C108 C109 1.346 1_554 S
C109 C104 1.353 . S
C109 C108 1.346 1_556 S
C109 H161 0.929 . S
H110 C104 0.930 . S
H111 C107 0.930 . S
C112 N113 1.314 . S
C112 C114 1.353 . S
C112 H118 0.930 . S
N113 Li89 1.990 . S
N113 C112 1.314 . S
N113 C116 1.279 . S
C114 C112 1.353 . S
C114 C117 1.348 . S
C114 H162 0.929 . S
C115 C116 1.358 . S
C115 C117 1.356 . S
C115 H163 0.930 . S
C116 N113 1.279 . S
C116 C115 1.358 . S
C116 H119 0.930 . S
C117 C114 1.348 . S
C117 C115 1.356 . S
H118 C112 0.930 . S
H119 C116 0.930 . S
C120 C122 1.348 . S
C120 C123 1.356 . S
C120 O150 1.325 . S
N121 C124 1.314 . S
N121 C125 1.279 . S
C122 C120 1.348 . S
C122 C124 1.353 . S
C122 H164 0.929 . S
C123 C120 1.356 . S
C123 C125 1.358 . S
C123 H165 0.930 . S
C124 N121 1.314 . S
C124 C122 1.353 . S
C124 H166 0.930 . S
C125 N121 1.279 . S
C125 C123 1.358 . S
C125 H167 0.930 . S
C126 C127 1.345 1_554 S
C126 C128 1.358 . S
C126 O151 1.325 1_554 S
C127 C126 1.345 1_556 S
C127 C129 1.353 . S
C127 H168 0.929 . S
C128 C126 1.358 . S
C128 C130 1.358 . S
C128 H169 0.930 . S
C129 C127 1.353 . S
C129 N131 1.314 1_556 S
C129 H170 0.930 . S
C130 C128 1.358 . S
C130 N131 1.279 . S
C130 H171 0.930 . S
N131 C129 1.314 1_554 S
N131 C130 1.279 . S
C132 C134 1.353 . S
C132 N135 1.314 . S
C132 H138 0.930 . S
C133 N135 1.279 . S
C133 C136 1.358 . S
C133 H139 0.930 . S
C134 C132 1.353 . S
C134 C137 1.348 . S
C134 H172 0.929 . S
N135 Li90 1.990 . S
N135 C132 1.314 . S
N135 C133 1.279 . S
C136 C133 1.358 . S
C136 C137 1.356 . S
C136 H173 0.930 . S
C137 C134 1.348 . S
C137 C136 1.356 . S
H138 C132 0.930 . S
H139 C133 0.930 . S
C140 N141 1.314 . S
C140 C142 1.353 . S
C140 H146 0.930 . S
N141 Li91 1.991 . S
N141 C140 1.314 . S
N141 C144 1.279 1_554 S
C142 C140 1.353 . S
C142 C145 1.348 1_554 S
C142 H174 0.929 . S
C143 C144 1.358 . S
C143 C145 1.356 . S
C143 H175 0.930 . S
C144 N141 1.279 1_556 S
C144 C143 1.358 . S
C144 H147 0.930 . S
C145 C142 1.348 1_556 S
C145 C143 1.356 . S
H146 C140 0.930 . S
H147 C144 0.930 . S
O148 Li88 1.956 1_554 S
O148 Li89 1.981 . S
O148 Li90 1.950 1_554 S
O148 C92 1.325 . S
O149 Li88 1.960 1_554 S
O149 Li89 1.956 . S
O149 Li91 1.976 . S
O149 C98 1.325 . S
O150 Li88 1.971 . S
O150 Li90 1.956 . S
O150 Li91 1.955 1_556 S
O150 C120 1.325 . S
O151 Li89 1.955 1_556 S
O151 Li90 1.976 . S
O151 Li91 1.956 1_556 S
O151 C126 1.325 1_556 S
H152 C94 0.929 . S
H153 C95 0.930 . S
H154 C96 0.930 . S
H155 C97 0.930 . S
H156 C99 0.930 . S
H157 C101 0.929 . S
H158 C102 0.930 . S
H159 C103 0.930 . S
H160 C106 0.930 . S
H161 C109 0.929 . S
H162 C114 0.929 . S
H163 C115 0.930 . S
H164 C122 0.929 . S
H165 C123 0.930 . S
H166 C124 0.930 . S
H167 C125 0.930 . S
H168 C127 0.929 . S
H169 C128 0.930 . S
H170 C129 0.930 . S
H171 C130 0.930 . S
H172 C134 0.929 . S
H173 C136 0.930 . S
H174 C142 0.929 . S
H175 C143 0.930 . S
Li176 N193 1.991 . S
Li176 O236 1.956 1_556 S
Li176 O237 1.960 1_556 S
Li176 O238 1.971 . S
Li177 N201 1.990 . S
Li177 O236 1.981 . S
Li177 O237 1.956 . S
Li177 O239 1.955 1_554 S
Li178 N223 1.990 . S
Li178 O236 1.950 1_556 S
Li178 O238 1.956 . S
Li178 O239 1.976 . S
Li179 N229 1.991 . S
Li179 O237 1.976 . S
Li179 O238 1.955 1_554 S
Li179 O239 1.956 1_554 S
C180 C182 1.345 . S
C180 C183 1.358 1_554 S
C180 O236 1.325 . S
N181 C184 1.314 1_556 S
N181 C185 1.279 . S
C182 C180 1.345 . S
C182 C184 1.353 . S
C182 H240 0.929 . S
C183 C180 1.358 1_556 S
C183 C185 1.358 . S
C183 H241 0.930 . S
C184 N181 1.314 1_554 S
C184 C182 1.353 . S
C184 H242 0.930 . S
C185 N181 1.279 . S
C185 C183 1.358 . S
C185 H243 0.930 . S
C186 C189 1.348 . S
C186 C190 1.356 . S
C186 O237 1.325 . S
C187 N188 1.279 . S
C187 C190 1.358 . S
C187 H244 0.930 . S
N188 C187 1.279 . S
N188 C191 1.314 . S
C189 C186 1.348 . S
C189 C191 1.353 . S
C189 H245 0.929 . S
C190 C186 1.356 . S
C190 C187 1.358 . S
C190 H246 0.930 . S
C191 N188 1.314 . S
C191 C189 1.353 . S
C191 H247 0.930 . S
C192 N193 1.314 . S
C192 C197 1.353 . S
C192 H198 0.930 . S
N193 Li176 1.991 . S
N193 C192 1.314 . S
N193 C195 1.279 1_556 S
C194 C195 1.358 . S
C194 C196 1.357 . S
C194 H248 0.930 . S
C195 N193 1.279 1_554 S
C195 C194 1.358 . S
C195 H199 0.930 . S
C196 C194 1.357 . S
C196 C197 1.346 1_554 S
C197 C192 1.353 . S
C197 C196 1.346 1_556 S
C197 H249 0.929 . S
H198 C192 0.930 . S
H199 C195 0.930 . S
C200 N201 1.314 . S
C200 C202 1.353 . S
C200 H206 0.930 . S
N201 Li177 1.990 . S
N201 C200 1.314 . S
N201 C204 1.279 . S
C202 C200 1.353 . S
C202 C205 1.348 . S
C202 H250 0.929 . S
C203 C204 1.358 . S
C203 C205 1.356 . S
C203 H251 0.930 . S
C204 N201 1.279 . S
C204 C203 1.358 . S
C204 H207 0.930 . S
C205 C202 1.348 . S
C205 C203 1.356 . S
H206 C200 0.930 . S
H207 C204 0.930 . S
C208 C210 1.348 . S
C208 C211 1.356 . S
C208 O238 1.325 . S
N209 C212 1.314 . S
N209 C213 1.279 . S
C210 C208 1.348 . S
C210 C212 1.353 . S
C210 H252 0.929 . S
C211 C208 1.356 . S
C211 C213 1.358 . S
C211 H253 0.930 . S
C212 N209 1.314 . S
C212 C210 1.353 . S
C212 H254 0.930 . S
C213 N209 1.279 . S
C213 C211 1.358 . S
C213 H255 0.930 . S
C214 C215 1.345 1_554 S
C214 C216 1.358 . S
C214 O239 1.325 1_554 S
C215 C214 1.345 1_556 S
C215 C217 1.353 . S
C215 H256 0.929 . S
C216 C214 1.358 . S
C216 C218 1.358 . S
C216 H257 0.930 . S
C217 C215 1.353 . S
C217 N219 1.314 1_556 S
C217 H258 0.930 . S
C218 C216 1.358 . S
C218 N219 1.279 . S
C218 H259 0.930 . S
N219 C217 1.314 1_554 S
N219 C218 1.279 . S
C220 C222 1.353 . S
C220 N223 1.314 . S
C220 H226 0.930 . S
C221 N223 1.279 . S
C221 C224 1.358 . S
C221 H227 0.930 . S
C222 C220 1.353 . S
C222 C225 1.348 . S
C222 H260 0.929 . S
N223 Li178 1.990 . S
N223 C220 1.314 . S
N223 C221 1.279 . S
C224 C221 1.358 . S
C224 C225 1.356 . S
C224 H261 0.930 . S
C225 C222 1.348 . S
C225 C224 1.356 . S
H226 C220 0.930 . S
H227 C221 0.930 . S
C228 N229 1.314 . S
C228 C230 1.353 . S
C228 H234 0.930 . S
N229 Li179 1.991 . S
N229 C228 1.314 . S
N229 C232 1.279 1_554 S
C230 C228 1.353 . S
C230 C233 1.348 1_554 S
C230 H262 0.929 . S
C231 C232 1.358 . S
C231 C233 1.356 . S
C231 H263 0.930 . S
C232 N229 1.279 1_556 S
C232 C231 1.358 . S
C232 H235 0.930 . S
C233 C230 1.348 1_556 S
C233 C231 1.356 . S
H234 C228 0.930 . S
H235 C232 0.930 . S
O236 Li176 1.956 1_554 S
O236 Li177 1.981 . S
O236 Li178 1.950 1_554 S
O236 C180 1.325 . S
O237 Li176 1.960 1_554 S
O237 Li177 1.956 . S
O237 Li179 1.976 . S
O237 C186 1.325 . S
O238 Li176 1.971 . S
O238 Li178 1.956 . S
O238 Li179 1.955 1_556 S
O238 C208 1.325 . S
O239 Li177 1.955 1_556 S
O239 Li178 1.976 . S
O239 Li179 1.956 1_556 S
O239 C214 1.325 1_556 S
H240 C182 0.929 . S
H241 C183 0.930 . S
H242 C184 0.930 . S
H243 C185 0.930 . S
H244 C187 0.930 . S
H245 C189 0.929 . S
H246 C190 0.930 . S
H247 C191 0.930 . S
H248 C194 0.930 . S
H249 C197 0.929 . S
H250 C202 0.929 . S
H251 C203 0.930 . S
H252 C210 0.929 . S
H253 C211 0.930 . S
H254 C212 0.930 . S
H255 C213 0.930 . S
H256 C215 0.929 . S
H257 C216 0.930 . S
H258 C217 0.930 . S
H259 C218 0.930 . S
H260 C222 0.929 . S
H261 C224 0.930 . S
H262 C230 0.929 . S
H263 C231 0.930 . S
Li264 N281 1.991 . S
Li264 O324 1.956 1_556 S
Li264 O325 1.960 1_556 S
Li264 O326 1.971 . S
Li265 N289 1.990 . S
Li265 O324 1.981 . S
Li265 O325 1.956 . S
Li265 O327 1.955 1_554 S
Li266 N311 1.990 . S
Li266 O324 1.950 1_556 S
Li266 O326 1.956 . S
Li266 O327 1.976 . S
Li267 N317 1.991 . S
Li267 O325 1.976 . S
Li267 O326 1.955 1_554 S
Li267 O327 1.956 1_554 S
C268 C270 1.345 . S
C268 C271 1.358 1_554 S
C268 O324 1.325 . S
N269 C272 1.314 1_556 S
N269 C273 1.279 . S
C270 C268 1.345 . S
C270 C272 1.353 . S
C270 H328 0.929 . S
C271 C268 1.358 1_556 S
C271 C273 1.358 . S
C271 H329 0.930 . S
C272 N269 1.314 1_554 S
C272 C270 1.353 . S
C272 H330 0.930 . S
C273 N269 1.279 . S
C273 C271 1.358 . S
C273 H331 0.930 . S
C274 C277 1.348 . S
C274 C278 1.356 . S
C274 O325 1.325 . S
C275 N276 1.279 . S
C275 C278 1.358 . S
C275 H332 0.930 . S
N276 C275 1.279 . S
N276 C279 1.314 . S
C277 C274 1.348 . S
C277 C279 1.353 . S
C277 H333 0.929 . S
C278 C274 1.356 . S
C278 C275 1.358 . S
C278 H334 0.930 . S
C279 N276 1.314 . S
C279 C277 1.353 . S
C279 H335 0.930 . S
C280 N281 1.314 . S
C280 C285 1.353 . S
C280 H286 0.930 . S
N281 Li264 1.991 . S
N281 C280 1.314 . S
N281 C283 1.279 1_556 S
C282 C283 1.358 . S
C282 C284 1.357 . S
C282 H336 0.930 . S
C283 N281 1.279 1_554 S
C283 C282 1.358 . S
C283 H287 0.930 . S
C284 C282 1.357 . S
C284 C285 1.346 1_554 S
C285 C280 1.353 . S
C285 C284 1.346 1_556 S
C285 H337 0.929 . S
H286 C280 0.930 . S
H287 C283 0.930 . S
C288 N289 1.314 . S
C288 C290 1.353 . S
C288 H294 0.930 . S
N289 Li265 1.990 . S
N289 C288 1.314 . S
N289 C292 1.279 . S
C290 C288 1.353 . S
C290 C293 1.348 . S
C290 H338 0.929 . S
C291 C292 1.358 . S
C291 C293 1.356 . S
C291 H339 0.930 . S
C292 N289 1.279 . S
C292 C291 1.358 . S
C292 H295 0.930 . S
C293 C290 1.348 . S
C293 C291 1.356 . S
H294 C288 0.930 . S
H295 C292 0.930 . S
C296 C298 1.348 . S
C296 C299 1.356 . S
C296 O326 1.325 . S
N297 C300 1.314 . S
N297 C301 1.279 . S
C298 C296 1.348 . S
C298 C300 1.353 . S
C298 H340 0.929 . S
C299 C296 1.356 . S
C299 C301 1.358 . S
C299 H341 0.930 . S
C300 N297 1.314 . S
C300 C298 1.353 . S
C300 H342 0.930 . S
C301 N297 1.279 . S
C301 C299 1.358 . S
C301 H343 0.930 . S
C302 C303 1.345 1_554 S
C302 C304 1.358 . S
C302 O327 1.325 1_554 S
C303 C302 1.345 1_556 S
C303 C305 1.353 . S
C303 H344 0.929 . S
C304 C302 1.358 . S
C304 C306 1.358 . S
C304 H345 0.930 . S
C305 C303 1.353 . S
C305 N307 1.314 1_556 S
C305 H346 0.930 . S
C306 C304 1.358 . S
C306 N307 1.279 . S
C306 H347 0.930 . S
N307 C305 1.314 1_554 S
N307 C306 1.279 . S
C308 C310 1.353 . S
C308 N311 1.314 . S
C308 H314 0.930 . S
C309 N311 1.279 . S
C309 C312 1.358 . S
C309 H315 0.930 . S
C310 C308 1.353 . S
C310 C313 1.348 . S
C310 H348 0.929 . S
N311 Li266 1.990 . S
N311 C308 1.314 . S
N311 C309 1.279 . S
C312 C309 1.358 . S
C312 C313 1.356 . S
C312 H349 0.930 . S
C313 C310 1.348 . S
C313 C312 1.356 . S
H314 C308 0.930 . S
H315 C309 0.930 . S
C316 N317 1.314 . S
C316 C318 1.353 . S
C316 H322 0.930 . S
N317 Li267 1.991 . S
N317 C316 1.314 . S
N317 C320 1.279 1_554 S
C318 C316 1.353 . S
C318 C321 1.348 1_554 S
C318 H350 0.929 . S
C319 C320 1.358 . S
C319 C321 1.356 . S
C319 H351 0.930 . S
C320 N317 1.279 1_556 S
C320 C319 1.358 . S
C320 H323 0.930 . S
C321 C318 1.348 1_556 S
C321 C319 1.356 . S
H322 C316 0.930 . S
H323 C320 0.930 . S
O324 Li264 1.956 1_554 S
O324 Li265 1.981 . S
O324 Li266 1.950 1_554 S
O324 C268 1.325 . S
O325 Li264 1.960 1_554 S
O325 Li265 1.956 . S
O325 Li267 1.976 . S
O325 C274 1.325 . S
O326 Li264 1.971 . S
O326 Li266 1.956 . S
O326 Li267 1.955 1_556 S
O326 C296 1.325 . S
O327 Li265 1.955 1_556 S
O327 Li266 1.976 . S
O327 Li267 1.956 1_556 S
O327 C302 1.325 1_556 S
H328 C270 0.929 . S
H329 C271 0.930 . S
H330 C272 0.930 . S
H331 C273 0.930 . S
H332 C275 0.930 . S
H333 C277 0.929 . S
H334 C278 0.930 . S
H335 C279 0.930 . S
H336 C282 0.930 . S
H337 C285 0.929 . S
H338 C290 0.929 . S
H339 C291 0.930 . S
H340 C298 0.929 . S
H341 C299 0.930 . S
H342 C300 0.930 . S
H343 C301 0.930 . S
H344 C303 0.929 . S
H345 C304 0.930 . S
H346 C305 0.930 . S
H347 C306 0.930 . S
H348 C310 0.929 . S
H349 C312 0.930 . S
H350 C318 0.929 . S
H351 C319 0.930 . S
Li352 N369 1.990 . S
Li352 O412 1.956 . S
Li352 O413 1.970 . S
Li352 O414 1.961 . S
Li353 N377 1.990 . S
Li353 O412 1.970 . S
Li353 O413 1.956 . S
Li353 O415 1.961 . S
Li354 N399 1.990 . S
Li354 O412 1.961 . S
Li354 O414 1.956 . S
Li354 O415 1.970 . S
Li355 N405 1.990 . S
Li355 O413 1.961 . S
Li355 O414 1.970 . S
Li355 O415 1.956 . S
C356 C358 1.348 . S
C356 C359 1.356 . S
C356 O412 1.325 . S
N357 C360 1.314 . S
N357 C361 1.279 . S
C358 C356 1.348 . S
C358 C360 1.353 . S
C358 H416 0.929 . S
C359 C356 1.356 . S
C359 C361 1.358 . S
C359 H417 0.930 . S
C360 N357 1.314 . S
C360 C358 1.353 . S
C360 H418 0.930 . S
C361 N357 1.279 . S
C361 C359 1.358 . S
C361 H419 0.930 . S
C362 C365 1.348 . S
C362 C366 1.356 . S
C362 O413 1.325 . S
C363 N364 1.279 . S
C363 C366 1.358 . S
C363 H420 0.930 . S
N364 C363 1.279 . S
N364 C367 1.314 . S
C365 C362 1.348 . S
C365 C367 1.353 . S
C365 H421 0.929 . S
C366 C362 1.356 . S
C366 C363 1.358 . S
C366 H422 0.930 . S
C367 N364 1.314 . S
C367 C365 1.353 . S
C367 H423 0.930 . S
C368 N369 1.314 . S
C368 C373 1.353 . S
C368 H374 0.930 . S
N369 Li352 1.990 . S
N369 C368 1.314 . S
N369 C371 1.279 . S
C370 C371 1.358 . S
C370 C372 1.356 . S
C370 H424 0.930 . S
C371 N369 1.279 . S
C371 C370 1.358 . S
C371 H375 0.930 . S
C372 C370 1.356 . S
C372 C373 1.348 . S
C373 C368 1.353 . S
C373 C372 1.348 . S
C373 H425 0.929 . S
H374 C368 0.930 . S
H375 C371 0.930 . S
C376 N377 1.314 . S
C376 C378 1.353 . S
C376 H382 0.930 . S
N377 Li353 1.990 . S
N377 C376 1.314 . S
N377 C380 1.279 . S
C378 C376 1.353 . S
C378 C381 1.348 . S
C378 H426 0.929 . S
C379 C380 1.358 . S
C379 C381 1.356 . S
C379 H427 0.930 . S
C380 N377 1.279 . S
C380 C379 1.358 . S
C380 H383 0.930 . S
C381 C378 1.348 . S
C381 C379 1.356 . S
H382 C376 0.930 . S
H383 C380 0.930 . S
C384 C386 1.348 . S
C384 C387 1.356 . S
C384 O414 1.325 . S
N385 C388 1.314 . S
N385 C389 1.279 . S
C386 C384 1.348 . S
C386 C388 1.353 . S
C386 H428 0.929 . S
C387 C384 1.356 . S
C387 C389 1.358 . S
C387 H429 0.930 . S
C388 N385 1.314 . S
C388 C386 1.353 . S
C388 H430 0.930 . S
C389 N385 1.279 . S
C389 C387 1.358 . S
C389 H431 0.930 . S
C390 C391 1.348 . S
C390 C392 1.356 . S
C390 O415 1.325 . S
C391 C390 1.348 . S
C391 C393 1.353 . S
C391 H432 0.929 . S
C392 C390 1.356 . S
C392 C394 1.358 . S
C392 H433 0.930 . S
C393 C391 1.353 . S
C393 N395 1.314 . S
C393 H434 0.930 . S
C394 C392 1.358 . S
C394 N395 1.279 . S
C394 H435 0.930 . S
N395 C393 1.314 . S
N395 C394 1.279 . S
C396 C398 1.353 . S
C396 N399 1.314 . S
C396 H402 0.930 . S
C397 N399 1.279 . S
C397 C400 1.358 . S
C397 H403 0.930 . S
C398 C396 1.353 . S
C398 C401 1.348 . S
C398 H436 0.929 . S
N399 Li354 1.990 . S
N399 C396 1.314 . S
N399 C397 1.279 . S
C400 C397 1.358 . S
C400 C401 1.356 . S
C400 H437 0.930 . S
C401 C398 1.348 . S
C401 C400 1.356 . S
H402 C396 0.930 . S
H403 C397 0.930 . S
C404 N405 1.314 . S
C404 C406 1.353 . S
C404 H410 0.930 . S
N405 Li355 1.990 . S
N405 C404 1.314 . S
N405 C408 1.279 . S
C406 C404 1.353 . S
C406 C409 1.348 . S
C406 H438 0.929 . S
C407 C408 1.358 . S
C407 C409 1.356 . S
C407 H439 0.930 . S
C408 N405 1.279 . S
C408 C407 1.358 . S
C408 H411 0.930 . S
C409 C406 1.348 . S
C409 C407 1.356 . S
H410 C404 0.930 . S
H411 C408 0.930 . S
O412 Li352 1.956 . S
O412 Li353 1.970 . S
O412 Li354 1.961 . S
O412 C356 1.325 . S
O413 Li352 1.970 . S
O413 Li353 1.956 . S
O413 Li355 1.961 . S
O413 C362 1.325 . S
O414 Li352 1.961 . S
O414 Li354 1.956 . S
O414 Li355 1.970 . S
O414 C384 1.325 . S
O415 Li353 1.961 . S
O415 Li354 1.970 . S
O415 Li355 1.956 . S
O415 C390 1.325 . S
H416 C358 0.929 . S
H417 C359 0.930 . S
H418 C360 0.930 . S
H419 C361 0.930 . S
H420 C363 0.930 . S
H421 C365 0.929 . S
H422 C366 0.930 . S
H423 C367 0.930 . S
H424 C370 0.930 . S
H425 C373 0.929 . S
H426 C378 0.929 . S
H427 C379 0.930 . S
H428 C386 0.929 . S
H429 C387 0.930 . S
H430 C388 0.930 . S
H431 C389 0.930 . S
H432 C391 0.929 . S
H433 C392 0.930 . S
H434 C393 0.930 . S
H435 C394 0.930 . S
H436 C398 0.929 . S
H437 C400 0.930 . S
H438 C406 0.929 . S
H439 C407 0.930 . S
Li440 N457 1.990 . S
Li440 O500 1.956 . S
Li440 O501 1.970 . S
Li440 O502 1.961 . S
Li441 N465 1.990 . S
Li441 O500 1.970 . S
Li441 O501 1.956 . S
Li441 O503 1.961 . S
Li442 N487 1.990 . S
Li442 O500 1.961 . S
Li442 O502 1.956 . S
Li442 O503 1.970 . S
Li443 N493 1.990 . S
Li443 O501 1.961 . S
Li443 O502 1.970 . S
Li443 O503 1.956 . S
C444 C446 1.348 . S
C444 C447 1.356 . S
C444 O500 1.325 . S
N445 C448 1.314 . S
N445 C449 1.279 . S
C446 C444 1.348 . S
C446 C448 1.353 . S
C446 H504 0.929 . S
C447 C444 1.356 . S
C447 C449 1.358 . S
C447 H505 0.930 . S
C448 N445 1.314 . S
C448 C446 1.353 . S
C448 H506 0.930 . S
C449 N445 1.279 . S
C449 C447 1.358 . S
C449 H507 0.930 . S
C450 C453 1.348 . S
C450 C454 1.356 . S
C450 O501 1.325 . S
C451 N452 1.279 . S
C451 C454 1.358 . S
C451 H508 0.930 . S
N452 C451 1.279 . S
N452 C455 1.314 . S
C453 C450 1.348 . S
C453 C455 1.353 . S
C453 H509 0.929 . S
C454 C450 1.356 . S
C454 C451 1.358 . S
C454 H510 0.930 . S
C455 N452 1.314 . S
C455 C453 1.353 . S
C455 H511 0.930 . S
C456 N457 1.314 . S
C456 C461 1.353 . S
C456 H462 0.930 . S
N457 Li440 1.990 . S
N457 C456 1.314 . S
N457 C459 1.279 . S
C458 C459 1.358 . S
C458 C460 1.356 . S
C458 H512 0.930 . S
C459 N457 1.279 . S
C459 C458 1.358 . S
C459 H463 0.930 . S
C460 C458 1.356 . S
C460 C461 1.348 . S
C461 C456 1.353 . S
C461 C460 1.348 . S
C461 H513 0.929 . S
H462 C456 0.930 . S
H463 C459 0.930 . S
C464 N465 1.314 . S
C464 C466 1.353 . S
C464 H470 0.930 . S
N465 Li441 1.990 . S
N465 C464 1.314 . S
N465 C468 1.279 . S
C466 C464 1.353 . S
C466 C469 1.348 . S
C466 H514 0.929 . S
C467 C468 1.358 . S
C467 C469 1.356 . S
C467 H515 0.930 . S
C468 N465 1.279 . S
C468 C467 1.358 . S
C468 H471 0.930 . S
C469 C466 1.348 . S
C469 C467 1.356 . S
H470 C464 0.930 . S
H471 C468 0.930 . S
C472 C474 1.348 . S
C472 C475 1.356 . S
C472 O502 1.325 . S
N473 C476 1.314 . S
N473 C477 1.279 . S
C474 C472 1.348 . S
C474 C476 1.353 . S
C474 H516 0.929 . S
C475 C472 1.356 . S
C475 C477 1.358 . S
C475 H517 0.930 . S
C476 N473 1.314 . S
C476 C474 1.353 . S
C476 H518 0.930 . S
C477 N473 1.279 . S
C477 C475 1.358 . S
C477 H519 0.930 . S
C478 C479 1.348 . S
C478 C480 1.356 . S
C478 O503 1.325 . S
C479 C478 1.348 . S
C479 C481 1.353 . S
C479 H520 0.929 . S
C480 C478 1.356 . S
C480 C482 1.358 . S
C480 H521 0.930 . S
C481 C479 1.353 . S
C481 N483 1.314 . S
C481 H522 0.930 . S
C482 C480 1.358 . S
C482 N483 1.279 . S
C482 H523 0.930 . S
N483 C481 1.314 . S
N483 C482 1.279 . S
C484 C486 1.353 . S
C484 N487 1.314 . S
C484 H490 0.930 . S
C485 N487 1.279 . S
C485 C488 1.358 . S
C485 H491 0.930 . S
C486 C484 1.353 . S
C486 C489 1.348 . S
C486 H524 0.929 . S
N487 Li442 1.990 . S
N487 C484 1.314 . S
N487 C485 1.279 . S
C488 C485 1.358 . S
C488 C489 1.356 . S
C488 H525 0.930 . S
C489 C486 1.348 . S
C489 C488 1.356 . S
H490 C484 0.930 . S
H491 C485 0.930 . S
C492 N493 1.314 . S
C492 C494 1.353 . S
C492 H498 0.930 . S
N493 Li443 1.990 . S
N493 C492 1.314 . S
N493 C496 1.279 . S
C494 C492 1.353 . S
C494 C497 1.348 . S
C494 H526 0.929 . S
C495 C496 1.358 . S
C495 C497 1.356 . S
C495 H527 0.930 . S
C496 N493 1.279 . S
C496 C495 1.358 . S
C496 H499 0.930 . S
C497 C494 1.348 . S
C497 C495 1.356 . S
H498 C492 0.930 . S
H499 C496 0.930 . S
O500 Li440 1.956 . S
O500 Li441 1.970 . S
O500 Li442 1.961 . S
O500 C444 1.325 . S
O501 Li440 1.970 . S
O501 Li441 1.956 . S
O501 Li443 1.961 . S
O501 C450 1.325 . S
O502 Li440 1.961 . S
O502 Li442 1.956 . S
O502 Li443 1.970 . S
O502 C472 1.325 . S
O503 Li441 1.961 . S
O503 Li442 1.970 . S
O503 Li443 1.956 . S
O503 C478 1.325 . S
H504 C446 0.929 . S
H505 C447 0.930 . S
H506 C448 0.930 . S
H507 C449 0.930 . S
H508 C451 0.930 . S
H509 C453 0.929 . S
H510 C454 0.930 . S
H511 C455 0.930 . S
H512 C458 0.930 . S
H513 C461 0.929 . S
H514 C466 0.929 . S
H515 C467 0.930 . S
H516 C474 0.929 . S
H517 C475 0.930 . S
H518 C476 0.930 . S
H519 C477 0.930 . S
H520 C479 0.929 . S
H521 C480 0.930 . S
H522 C481 0.930 . S
H523 C482 0.930 . S
H524 C486 0.929 . S
H525 C488 0.930 . S
H526 C494 0.929 . S
H527 C495 0.930 . S
Li528 N545 1.990 . S
Li528 O588 1.956 . S
Li528 O589 1.970 . S
Li528 O590 1.961 . S
Li529 N553 1.990 . S
Li529 O588 1.970 . S
Li529 O589 1.956 . S
Li529 O591 1.961 . S
Li530 N575 1.990 . S
Li530 O588 1.961 . S
Li530 O590 1.956 . S
Li530 O591 1.970 . S
Li531 N581 1.990 . S
Li531 O589 1.961 . S
Li531 O590 1.970 . S
Li531 O591 1.956 . S
C532 C534 1.348 . S
C532 C535 1.356 . S
C532 O588 1.325 . S
N533 C536 1.314 . S
N533 C537 1.279 . S
C534 C532 1.348 . S
C534 C536 1.353 . S
C534 H592 0.929 . S
C535 C532 1.356 . S
C535 C537 1.358 . S
C535 H593 0.930 . S
C536 N533 1.314 . S
C536 C534 1.353 . S
C536 H594 0.930 . S
C537 N533 1.279 . S
C537 C535 1.358 . S
C537 H595 0.930 . S
C538 C541 1.348 . S
C538 C542 1.356 . S
C538 O589 1.325 . S
C539 N540 1.279 . S
C539 C542 1.358 . S
C539 H596 0.930 . S
N540 C539 1.279 . S
N540 C543 1.314 . S
C541 C538 1.348 . S
C541 C543 1.353 . S
C541 H597 0.929 . S
C542 C538 1.356 . S
C542 C539 1.358 . S
C542 H598 0.930 . S
C543 N540 1.314 . S
C543 C541 1.353 . S
C543 H599 0.930 . S
C544 N545 1.314 . S
C544 C549 1.353 . S
C544 H550 0.930 . S
N545 Li528 1.990 . S
N545 C544 1.314 . S
N545 C547 1.279 . S
C546 C547 1.358 . S
C546 C548 1.356 . S
C546 H600 0.930 . S
C547 N545 1.279 . S
C547 C546 1.358 . S
C547 H551 0.930 . S
C548 C546 1.356 . S
C548 C549 1.348 . S
C549 C544 1.353 . S
C549 C548 1.348 . S
C549 H601 0.929 . S
H550 C544 0.930 . S
H551 C547 0.930 . S
C552 N553 1.314 . S
C552 C554 1.353 . S
C552 H558 0.930 . S
N553 Li529 1.990 . S
N553 C552 1.314 . S
N553 C556 1.279 . S
C554 C552 1.353 . S
C554 C557 1.348 . S
C554 H602 0.929 . S
C555 C556 1.358 . S
C555 C557 1.356 . S
C555 H603 0.930 . S
C556 N553 1.279 . S
C556 C555 1.358 . S
C556 H559 0.930 . S
C557 C554 1.348 . S
C557 C555 1.356 . S
H558 C552 0.930 . S
H559 C556 0.930 . S
C560 C562 1.348 . S
C560 C563 1.356 . S
C560 O590 1.325 . S
N561 C564 1.314 . S
N561 C565 1.279 . S
C562 C560 1.348 . S
C562 C564 1.353 . S
C562 H604 0.929 . S
C563 C560 1.356 . S
C563 C565 1.358 . S
C563 H605 0.930 . S
C564 N561 1.314 . S
C564 C562 1.353 . S
C564 H606 0.930 . S
C565 N561 1.279 . S
C565 C563 1.358 . S
C565 H607 0.930 . S
C566 C567 1.348 . S
C566 C568 1.356 . S
C566 O591 1.325 . S
C567 C566 1.348 . S
C567 C569 1.353 . S
C567 H608 0.929 . S
C568 C566 1.356 . S
C568 C570 1.358 . S
C568 H609 0.930 . S
C569 C567 1.353 . S
C569 N571 1.314 . S
C569 H610 0.930 . S
C570 C568 1.358 . S
C570 N571 1.279 . S
C570 H611 0.930 . S
N571 C569 1.314 . S
N571 C570 1.279 . S
C572 C574 1.353 . S
C572 N575 1.314 . S
C572 H578 0.930 . S
C573 N575 1.279 . S
C573 C576 1.358 . S
C573 H579 0.930 . S
C574 C572 1.353 . S
C574 C577 1.348 . S
C574 H612 0.929 . S
N575 Li530 1.990 . S
N575 C572 1.314 . S
N575 C573 1.279 . S
C576 C573 1.358 . S
C576 C577 1.356 . S
C576 H613 0.930 . S
C577 C574 1.348 . S
C577 C576 1.356 . S
H578 C572 0.930 . S
H579 C573 0.930 . S
C580 N581 1.314 . S
C580 C582 1.353 . S
C580 H586 0.930 . S
N581 Li531 1.990 . S
N581 C580 1.314 . S
N581 C584 1.279 . S
C582 C580 1.353 . S
C582 C585 1.348 . S
C582 H614 0.929 . S
C583 C584 1.358 . S
C583 C585 1.356 . S
C583 H615 0.930 . S
C584 N581 1.279 . S
C584 C583 1.358 . S
C584 H587 0.930 . S
C585 C582 1.348 . S
C585 C583 1.356 . S
H586 C580 0.930 . S
H587 C584 0.930 . S
O588 Li528 1.956 . S
O588 Li529 1.970 . S
O588 Li530 1.961 . S
O588 C532 1.325 . S
O589 Li528 1.970 . S
O589 Li529 1.956 . S
O589 Li531 1.961 . S
O589 C538 1.325 . S
O590 Li528 1.961 . S
O590 Li530 1.956 . S
O590 Li531 1.970 . S
O590 C560 1.325 . S
O591 Li529 1.961 . S
O591 Li530 1.970 . S
O591 Li531 1.956 . S
O591 C566 1.325 . S
H592 C534 0.929 . S
H593 C535 0.930 . S
H594 C536 0.930 . S
H595 C537 0.930 . S
H596 C539 0.930 . S
H597 C541 0.929 . S
H598 C542 0.930 . S
H599 C543 0.930 . S
H600 C546 0.930 . S
H601 C549 0.929 . S
H602 C554 0.929 . S
H603 C555 0.930 . S
H604 C562 0.929 . S
H605 C563 0.930 . S
H606 C564 0.930 . S
H607 C565 0.930 . S
H608 C567 0.929 . S
H609 C568 0.930 . S
H610 C569 0.930 . S
H611 C570 0.930 . S
H612 C574 0.929 . S
H613 C576 0.930 . S
H614 C582 0.929 . S
H615 C583 0.930 . S
Li616 N633 1.990 . S
Li616 O676 1.956 . S
Li616 O677 1.970 . S
Li616 O678 1.961 . S
Li617 N641 1.990 . S
Li617 O676 1.970 . S
Li617 O677 1.956 . S
Li617 O679 1.961 . S
Li618 N663 1.990 . S
Li618 O676 1.961 . S
Li618 O678 1.956 . S
Li618 O679 1.970 . S
Li619 N669 1.990 . S
Li619 O677 1.961 . S
Li619 O678 1.970 . S
Li619 O679 1.956 . S
C620 C622 1.348 . S
C620 C623 1.356 . S
C620 O676 1.325 . S
N621 C624 1.314 . S
N621 C625 1.279 . S
C622 C620 1.348 . S
C622 C624 1.353 . S
C622 H680 0.929 . S
C623 C620 1.356 . S
C623 C625 1.358 . S
C623 H681 0.930 . S
C624 N621 1.314 . S
C624 C622 1.353 . S
C624 H682 0.930 . S
C625 N621 1.279 . S
C625 C623 1.358 . S
C625 H683 0.930 . S
C626 C629 1.348 . S
C626 C630 1.356 . S
C626 O677 1.325 . S
C627 N628 1.279 . S
C627 C630 1.358 . S
C627 H684 0.930 . S
N628 C627 1.279 . S
N628 C631 1.314 . S
C629 C626 1.348 . S
C629 C631 1.353 . S
C629 H685 0.929 . S
C630 C626 1.356 . S
C630 C627 1.358 . S
C630 H686 0.930 . S
C631 N628 1.314 . S
C631 C629 1.353 . S
C631 H687 0.930 . S
C632 N633 1.314 . S
C632 C637 1.353 . S
C632 H638 0.930 . S
N633 Li616 1.990 . S
N633 C632 1.314 . S
N633 C635 1.279 . S
C634 C635 1.358 . S
C634 C636 1.356 . S
C634 H688 0.930 . S
C635 N633 1.279 . S
C635 C634 1.358 . S
C635 H639 0.930 . S
C636 C634 1.356 . S
C636 C637 1.348 . S
C637 C632 1.353 . S
C637 C636 1.348 . S
C637 H689 0.929 . S
H638 C632 0.930 . S
H639 C635 0.930 . S
C640 N641 1.314 . S
C640 C642 1.353 . S
C640 H646 0.930 . S
N641 Li617 1.990 . S
N641 C640 1.314 . S
N641 C644 1.279 . S
C642 C640 1.353 . S
C642 C645 1.348 . S
C642 H690 0.929 . S
C643 C644 1.358 . S
C643 C645 1.356 . S
C643 H691 0.930 . S
C644 N641 1.279 . S
C644 C643 1.358 . S
C644 H647 0.930 . S
C645 C642 1.348 . S
C645 C643 1.356 . S
H646 C640 0.930 . S
H647 C644 0.930 . S
C648 C650 1.348 . S
C648 C651 1.356 . S
C648 O678 1.325 . S
N649 C652 1.314 . S
N649 C653 1.279 . S
C650 C648 1.348 . S
C650 C652 1.353 . S
C650 H692 0.929 . S
C651 C648 1.356 . S
C651 C653 1.358 . S
C651 H693 0.930 . S
C652 N649 1.314 . S
C652 C650 1.353 . S
C652 H694 0.930 . S
C653 N649 1.279 . S
C653 C651 1.358 . S
C653 H695 0.930 . S
C654 C655 1.348 . S
C654 C656 1.356 . S
C654 O679 1.325 . S
C655 C654 1.348 . S
C655 C657 1.353 . S
C655 H696 0.929 . S
C656 C654 1.356 . S
C656 C658 1.358 . S
C656 H697 0.930 . S
C657 C655 1.353 . S
C657 N659 1.314 . S
C657 H698 0.930 . S
C658 C656 1.358 . S
C658 N659 1.279 . S
C658 H699 0.930 . S
N659 C657 1.314 . S
N659 C658 1.279 . S
C660 C662 1.353 . S
C660 N663 1.314 . S
C660 H666 0.930 . S
C661 N663 1.279 . S
C661 C664 1.358 . S
C661 H667 0.930 . S
C662 C660 1.353 . S
C662 C665 1.348 . S
C662 H700 0.929 . S
N663 Li618 1.990 . S
N663 C660 1.314 . S
N663 C661 1.279 . S
C664 C661 1.358 . S
C664 C665 1.356 . S
C664 H701 0.930 . S
C665 C662 1.348 . S
C665 C664 1.356 . S
H666 C660 0.930 . S
H667 C661 0.930 . S
C668 N669 1.314 . S
C668 C670 1.353 . S
C668 H674 0.930 . S
N669 Li619 1.990 . S
N669 C668 1.314 . S
N669 C672 1.279 . S
C670 C668 1.353 . S
C670 C673 1.348 . S
C670 H702 0.929 . S
C671 C672 1.358 . S
C671 C673 1.356 . S
C671 H703 0.930 . S
C672 N669 1.279 . S
C672 C671 1.358 . S
C672 H675 0.930 . S
C673 C670 1.348 . S
C673 C671 1.356 . S
H674 C668 0.930 . S
H675 C672 0.930 . S
O676 Li616 1.956 . S
O676 Li617 1.970 . S
O676 Li618 1.961 . S
O676 C620 1.325 . S
O677 Li616 1.970 . S
O677 Li617 1.956 . S
O677 Li619 1.961 . S
O677 C626 1.325 . S
O678 Li616 1.961 . S
O678 Li618 1.956 . S
O678 Li619 1.970 . S
O678 C648 1.325 . S
O679 Li617 1.961 . S
O679 Li618 1.970 . S
O679 Li619 1.956 . S
O679 C654 1.325 . S
H680 C622 0.929 . S
H681 C623 0.930 . S
H682 C624 0.930 . S
H683 C625 0.930 . S
H684 C627 0.930 . S
H685 C629 0.929 . S
H686 C630 0.930 . S
H687 C631 0.930 . S
H688 C634 0.930 . S
H689 C637 0.929 . S
H690 C642 0.929 . S
H691 C643 0.930 . S
H692 C650 0.929 . S
H693 C651 0.930 . S
H694 C652 0.930 . S
H695 C653 0.930 . S
H696 C655 0.929 . S
H697 C656 0.930 . S
H698 C657 0.930 . S
H699 C658 0.930 . S
H700 C662 0.929 . S
H701 C664 0.930 . S
H702 C670 0.929 . S
H703 C671 0.930 . S
H704 C716 0.930 . S
H705 C718 0.930 . S
H706 C719 0.930 . S
H707 C723 0.959 . S
H708 C723 0.959 . S
H709 C723 0.961 . S
H710 C724 0.960 . S
H711 C724 0.961 . S
H712 C724 0.959 . S
H713 C727 0.929 . S
H714 C728 0.931 . S
H715 C730 0.930 . S
C716 H704 0.930 . S
C716 C717 1.399 1_554 S
C716 C721 1.399 . S
C717 C716 1.399 1_556 S
C717 C718 1.376 . S
C718 H705 0.930 . S
C718 C717 1.376 . S
C718 C719 1.388 . S
C719 H706 0.930 . S
C719 C718 1.388 . S
C719 C720 1.390 . S
C720 C719 1.390 . S
C720 C721 1.394 1_556 S
C720 C726 1.465 . S
C721 C716 1.399 . S
C721 C720 1.394 1_554 S
C721 C722 1.516 . S
C722 C721 1.516 . S
C722 C723 1.502 . S
C722 C724 1.561 . S
C722 C725 1.526 . S
C723 H707 0.959 . S
C723 H708 0.959 . S
C723 H709 0.961 . S
C723 C722 1.502 . S
C724 H710 0.960 . S
C724 H711 0.961 . S
C724 H712 0.959 . S
C724 C722 1.561 . S
C725 C722 1.526 . S
C725 C726 1.396 1_554 S
C725 C730 1.390 . S
C726 C720 1.465 . S
C726 C725 1.396 1_556 S
C726 C727 1.399 . S
C727 H713 0.929 . S
C727 C726 1.399 . S
C727 C728 1.385 . S
C728 H714 0.931 . S
C728 C727 1.385 . S
C728 C729 1.389 . S
C729 C728 1.389 . S
C729 C730 1.387 1_556 S
C730 H715 0.930 . S
C730 C725 1.390 . S
C730 C729 1.387 1_554 S
H731 C743 0.930 . S
H732 C745 0.930 . S
H733 C746 0.930 . S
H734 C750 0.959 . S
H735 C750 0.959 . S
H736 C750 0.961 . S
H737 C751 0.960 . S
H738 C751 0.961 . S
H739 C751 0.959 . S
H740 C754 0.929 . S
H741 C755 0.931 . S
H742 C757 0.930 . S
C743 H731 0.930 . S
C743 C744 1.399 1_556 S
C743 C748 1.399 . S
C744 C743 1.399 1_554 S
C744 C745 1.376 . S
C745 H732 0.930 . S
C745 C744 1.376 . S
C745 C746 1.388 . S
C746 H733 0.930 . S
C746 C745 1.388 . S
C746 C747 1.390 . S
C747 C746 1.390 . S
C747 C748 1.394 1_554 S
C747 C753 1.465 . S
C748 C743 1.399 . S
C748 C747 1.394 1_556 S
C748 C749 1.516 . S
C749 C748 1.516 . S
C749 C750 1.502 . S
C749 C751 1.561 1_556 S
C749 C752 1.526 . S
C750 H734 0.959 . S
C750 H735 0.959 . S
C750 H736 0.961 . S
C750 C749 1.502 . S
C751 H737 0.960 . S
C751 H738 0.961 . S
C751 H739 0.959 . S
C751 C749 1.561 1_554 S
C752 C749 1.526 . S
C752 C753 1.396 1_556 S
C752 C757 1.390 . S
C753 C747 1.465 . S
C753 C752 1.396 1_554 S
C753 C754 1.399 . S
C754 H740 0.929 . S
C754 C753 1.399 . S
C754 C755 1.385 . S
C755 H741 0.931 . S
C755 C754 1.385 . S
C755 C756 1.389 . S
C756 C755 1.389 . S
C756 C757 1.387 1_554 S
C757 H742 0.930 . S
C757 C752 1.390 . S
C757 C756 1.387 1_556 S
H758 C770 0.930 . S
H759 C772 0.930 . S
H760 C773 0.930 . S
H761 C777 0.959 . S
H762 C777 0.959 . S
H763 C777 0.961 . S
H764 C778 0.960 . S
H765 C778 0.961 . S
H766 C778 0.959 . S
H767 C781 0.929 . S
H768 C782 0.931 . S
H769 C784 0.930 . S
C770 H758 0.930 . S
C770 C771 1.399 1_554 S
C770 C775 1.399 . S
C771 C770 1.399 1_556 S
C771 C772 1.376 . S
C772 H759 0.930 . S
C772 C771 1.376 . S
C772 C773 1.388 . S
C773 H760 0.930 . S
C773 C772 1.388 . S
C773 C774 1.390 . S
C774 C773 1.390 . S
C774 C775 1.394 1_556 S
C774 C780 1.465 . S
C775 C770 1.399 . S
C775 C774 1.394 1_554 S
C775 C776 1.516 . S
C776 C775 1.516 . S
C776 C777 1.502 . S
C776 C778 1.561 . S
C776 C779 1.526 . S
C777 H761 0.959 . S
C777 H762 0.959 . S
C777 H763 0.961 . S
C777 C776 1.502 . S
C778 H764 0.960 . S
C778 H765 0.961 . S
C778 H766 0.959 . S
C778 C776 1.561 . S
C779 C776 1.526 . S
C779 C780 1.396 1_554 S
C779 C784 1.390 . S
C780 C774 1.465 . S
C780 C779 1.396 1_556 S
C780 C781 1.399 . S
C781 H767 0.929 . S
C781 C780 1.399 . S
C781 C782 1.385 . S
C782 H768 0.931 . S
C782 C781 1.385 . S
C782 C783 1.389 . S
C783 C782 1.389 . S
C783 C784 1.387 1_556 S
C784 H769 0.930 . S
C784 C779 1.390 . S
C784 C783 1.387 1_554 S
H785 C797 0.930 . S
H786 C799 0.930 . S
H787 C800 0.930 . S
H788 C804 0.959 . S
H789 C804 0.959 . S
H790 C804 0.961 . S
H791 C805 0.960 . S
H792 C805 0.961 . S
H793 C805 0.959 . S
H794 C808 0.929 . S
H795 C809 0.931 . S
H796 C811 0.930 . S
C797 H785 0.930 . S
C797 C798 1.399 1_554 S
C797 C802 1.399 . S
C798 C797 1.399 1_556 S
C798 C799 1.376 . S
C799 H786 0.930 . S
C799 C798 1.376 . S
C799 C800 1.388 . S
C800 H787 0.930 . S
C800 C799 1.388 . S
C800 C801 1.390 . S
C801 C800 1.390 . S
C801 C802 1.394 1_556 S
C801 C807 1.465 . S
C802 C797 1.399 . S
C802 C801 1.394 1_554 S
C802 C803 1.516 . S
C803 C802 1.516 . S
C803 C804 1.502 . S
C803 C805 1.561 1_554 S
C803 C806 1.526 . S
C804 H788 0.959 . S
C804 H789 0.959 . S
C804 H790 0.961 . S
C804 C803 1.502 . S
C805 H791 0.960 . S
C805 H792 0.961 . S
C805 H793 0.959 . S
C805 C803 1.561 1_556 S
C806 C803 1.526 . S
C806 C807 1.396 1_554 S
C806 C811 1.390 . S
C807 C801 1.465 . S
C807 C806 1.396 1_556 S
C807 C808 1.399 . S
C808 H794 0.929 . S
C808 C807 1.399 . S
C808 C809 1.385 . S
C809 H795 0.931 . S
C809 C808 1.385 . S
C809 C810 1.389 . S
C810 C809 1.389 . S
C810 C811 1.387 1_556 S
C811 H796 0.930 . S
C811 C806 1.390 . S
C811 C810 1.387 1_554 S
H812 C824 0.930 . S
H813 C826 0.930 . S
H814 C827 0.930 . S
H815 C831 0.961 . S
H816 C831 0.969 . S
H817 C831 0.950 1_565 S
H818 C832 0.961 . S
H819 C832 0.960 1_545 S
H820 C832 0.959 1_545 S
H821 C835 0.929 . S
H822 C836 0.931 . S
H823 C838 0.930 . S
C824 H812 0.930 . S
C824 C825 1.399 . S
C824 C829 1.399 . S
C825 C824 1.399 . S
C825 C826 1.376 . S
C826 H813 0.930 . S
C826 C825 1.376 . S
C826 C827 1.388 . S
C827 H814 0.930 . S
C827 C826 1.388 . S
C827 C828 1.390 . S
C828 C827 1.390 . S
C828 C829 1.394 . S
C828 C834 1.465 1_565 S
C829 C824 1.399 . S
C829 C828 1.394 . S
C829 C830 1.515 . S
C830 C829 1.515 . S
C830 C831 1.502 1_565 S
C830 C832 1.561 . S
C830 C833 1.527 1_565 S
C831 H815 0.961 . S
C831 H816 0.969 . S
C831 H817 0.950 1_545 S
C831 C830 1.502 1_545 S
C832 H818 0.961 . S
C832 H819 0.960 1_565 S
C832 H820 0.959 1_565 S
C832 C830 1.561 . S
C833 C830 1.527 1_545 S
C833 C834 1.396 . S
C833 C838 1.390 . S
C834 C828 1.465 1_545 S
C834 C833 1.396 . S
C834 C835 1.399 . S
C835 H821 0.929 . S
C835 C834 1.399 . S
C835 C836 1.385 . S
C836 H822 0.931 . S
C836 C835 1.385 . S
C836 C837 1.389 . S
C837 C836 1.389 . S
C837 C838 1.387 . S
C838 H823 0.930 . S
C838 C833 1.390 . S
C838 C837 1.387 . S
H839 C851 0.930 . S
H840 C853 0.930 . S
H841 C854 0.930 . S
H842 C858 0.961 . S
H843 C858 0.972 . S
H844 C858 0.947 1_455 S
H845 C859 0.953 1_455 S
H846 C859 0.967 . S
H847 C859 0.960 . S
H848 C862 0.929 . S
H849 C863 0.931 . S
H850 C865 0.930 . S
C851 H839 0.930 . S
C851 C852 1.399 . S
C851 C856 1.399 . S
C852 C851 1.399 . S
C852 C853 1.376 . S
C853 H840 0.930 . S
C853 C852 1.376 . S
C853 C854 1.388 . S
C854 H841 0.930 . S
C854 C853 1.388 . S
C854 C855 1.390 . S
C855 C854 1.390 . S
C855 C856 1.394 . S
C855 C861 1.465 1_455 S
C856 C851 1.399 . S
C856 C855 1.394 . S
C856 C857 1.518 1_455 S
C857 C856 1.518 1_655 S
C857 C858 1.502 . S
C857 C859 1.561 . S
C857 C860 1.524 . S
C858 H842 0.961 . S
C858 H843 0.972 . S
C858 H844 0.947 1_655 S
C858 C857 1.502 . S
C859 H845 0.953 1_655 S
C859 H846 0.967 . S
C859 H847 0.960 . S
C859 C857 1.561 . S
C860 C857 1.524 . S
C860 C861 1.396 . S
C860 C865 1.390 . S
C861 C855 1.465 1_655 S
C861 C860 1.396 . S
C861 C862 1.399 . S
C862 H848 0.929 . S
C862 C861 1.399 . S
C862 C863 1.385 . S
C863 H849 0.931 . S
C863 C862 1.385 . S
C863 C864 1.389 . S
C864 C863 1.389 . S
C864 C865 1.387 . S
C865 H850 0.930 . S
C865 C860 1.390 . S
C865 C864 1.387 . S
H866 C878 0.930 . S
H867 C880 0.930 . S
H868 C881 0.930 . S
H869 C885 0.961 . S
H870 C885 0.969 . S
H871 C885 0.950 1_545 S
H872 C886 0.961 . S
H873 C886 0.960 1_565 S
H874 C886 0.959 1_565 S
H875 C889 0.929 . S
H876 C890 0.931 . S
H877 C892 0.930 . S
C878 H866 0.930 . S
C878 C879 1.399 . S
C878 C883 1.399 . S
C879 C878 1.399 . S
C879 C880 1.376 . S
C880 H867 0.930 . S
C880 C879 1.376 . S
C880 C881 1.388 . S
C881 H868 0.930 . S
C881 C880 1.388 . S
C881 C882 1.390 . S
C882 C881 1.390 . S
C882 C883 1.394 . S
C882 C888 1.465 1_545 S
C883 C878 1.399 . S
C883 C882 1.394 . S
C883 C884 1.515 . S
C884 C883 1.515 . S
C884 C885 1.502 1_545 S
C884 C886 1.561 . S
C884 C887 1.527 1_545 S
C885 H869 0.961 . S
C885 H870 0.969 . S
C885 H871 0.950 1_565 S
C885 C884 1.502 1_565 S
C886 H872 0.961 . S
C886 H873 0.960 1_545 S
C886 H874 0.959 1_545 S
C886 C884 1.561 . S
C887 C884 1.527 1_565 S
C887 C888 1.396 . S
C887 C892 1.390 . S
C888 C882 1.465 1_565 S
C888 C887 1.396 . S
C888 C889 1.399 . S
C889 H875 0.929 . S
C889 C888 1.399 . S
C889 C890 1.385 . S
C890 H876 0.931 . S
C890 C889 1.385 . S
C890 C891 1.389 . S
C891 C890 1.389 . S
C891 C892 1.387 . S
C892 H877 0.930 . S
C892 C887 1.390 . S
C892 C891 1.387 . S
H893 C905 0.930 . S
H894 C907 0.930 . S
H895 C908 0.930 . S
H896 C912 0.963 . S
H897 C912 0.986 . S
H898 C912 0.933 1_655 S
H899 C913 0.944 1_655 S
H900 C913 0.975 . S
H901 C913 0.961 . S
H902 C916 0.929 . S
H903 C917 0.931 . S
H904 C919 0.930 . S
C905 H893 0.930 . S
C905 C906 1.399 . S
C905 C910 1.399 . S
C906 C905 1.399 . S
C906 C907 1.376 . S
C907 H894 0.930 . S
C907 C906 1.376 . S
C907 C908 1.388 . S
C908 H895 0.930 . S
C908 C907 1.388 . S
C908 C909 1.390 . S
C909 C908 1.390 . S
C909 C910 1.394 . S
C909 C915 1.465 1_655 S
C910 C905 1.399 . S
C910 C909 1.394 . S
C910 C911 1.511 1_655 S
C911 C910 1.511 1_455 S
C911 C912 1.501 . S
C911 C913 1.561 . S
C911 C914 1.531 . S
C912 H896 0.963 . S
C912 H897 0.986 . S
C912 H898 0.933 1_455 S
C912 C911 1.501 . S
C913 H899 0.944 1_455 S
C913 H900 0.975 . S
C913 H901 0.961 . S
C913 C911 1.561 . S
C914 C911 1.531 . S
C914 C915 1.396 . S
C914 C919 1.390 . S
C915 C909 1.465 1_455 S
C915 C914 1.396 . S
C915 C916 1.399 . S
C916 H902 0.929 . S
C916 C915 1.399 . S
C916 C917 1.385 . S
C917 H903 0.931 . S
C917 C916 1.385 . S
C917 C918 1.389 . S
C918 C917 1.389 . S
C918 C919 1.387 . S
C919 H904 0.930 . S
C919 C914 1.390 . S
C919 C918 1.387 . S
H920 C932 0.930 . S
H921 C934 0.930 . S
H922 C935 0.930 . S
H923 C939 0.959 . S
H924 C939 0.959 . S
H925 C939 0.961 . S
H926 C940 0.960 . S
H927 C940 0.961 . S
H928 C940 0.959 . S
H929 C943 0.929 . S
H930 C944 0.931 . S
H931 C946 0.930 . S
C932 H920 0.930 . S
C932 C933 1.399 . S
C932 C937 1.399 . S
C933 C932 1.399 . S
C933 C934 1.376 . S
C934 H921 0.930 . S
C934 C933 1.376 . S
C934 C935 1.388 . S
C935 H922 0.930 . S
C935 C934 1.388 . S
C935 C936 1.390 . S
C936 C935 1.390 . S
C936 C937 1.394 . S
C936 C942 1.465 . S
C937 C932 1.399 . S
C937 C936 1.394 . S
C937 C938 1.516 . S
C938 C937 1.516 . S
C938 C939 1.502 . S
C938 C940 1.561 . S
C938 C941 1.526 . S
C939 H923 0.959 . S
C939 H924 0.959 . S
C939 H925 0.961 . S
C939 C938 1.502 . S
C940 H926 0.960 . S
C940 H927 0.961 . S
C940 H928 0.959 . S
C940 C938 1.561 . S
C941 C938 1.526 . S
C941 C942 1.396 . S
C941 C946 1.390 . S
C942 C936 1.465 . S
C942 C941 1.396 . S
C942 C943 1.399 . S
C943 H929 0.929 . S
C943 C942 1.399 . S
C943 C944 1.385 . S
C944 H930 0.931 . S
C944 C943 1.385 . S
C944 C945 1.389 . S
C945 C944 1.389 . S
C945 C946 1.387 . S
C946 H931 0.930 . S
C946 C941 1.390 . S
C946 C945 1.387 . S
H947 C959 0.930 . S
H948 C961 0.930 . S
H949 C962 0.930 . S
H950 C966 0.959 . S
H951 C966 0.959 . S
H952 C966 0.961 . S
H953 C967 0.960 . S
H954 C967 0.961 . S
H955 C967 0.959 . S
H956 C970 0.929 . S
H957 C971 0.931 . S
H958 C973 0.930 . S
C959 H947 0.930 . S
C959 C960 1.399 . S
C959 C964 1.399 . S
C960 C959 1.399 . S
C960 C961 1.376 . S
C961 H948 0.930 . S
C961 C960 1.376 . S
C961 C962 1.388 . S
C962 H949 0.930 . S
C962 C961 1.388 . S
C962 C963 1.390 . S
C963 C962 1.390 . S
C963 C964 1.394 . S
C963 C969 1.465 . S
C964 C959 1.399 . S
C964 C963 1.394 . S
C964 C965 1.516 . S
C965 C964 1.516 . S
C965 C966 1.502 . S
C965 C967 1.561 . S
C965 C968 1.526 . S
C966 H950 0.959 . S
C966 H951 0.959 . S
C966 H952 0.961 . S
C966 C965 1.502 . S
C967 H953 0.960 . S
C967 H954 0.961 . S
C967 H955 0.959 . S
C967 C965 1.561 . S
C968 C965 1.526 . S
C968 C969 1.396 . S
C968 C973 1.390 . S
C969 C963 1.465 . S
C969 C968 1.396 . S
C969 C970 1.399 . S
C970 H956 0.929 . S
C970 C969 1.399 . S
C970 C971 1.385 . S
C971 H957 0.931 . S
C971 C970 1.385 . S
C971 C972 1.389 . S
C972 C971 1.389 . S
C972 C973 1.387 . S
C973 H958 0.930 . S
C973 C968 1.390 . S
C973 C972 1.387 . S
H974 C986 0.930 . S
H975 C988 0.930 . S
H976 C989 0.930 . S
H977 C993 0.959 . S
H978 C993 0.959 . S
H979 C993 0.961 . S
H980 C994 0.960 . S
H981 C994 0.961 . S
H982 C994 0.959 . S
H983 C997 0.929 . S
H984 C998 0.931 . S
H985 C1000 0.930 . S
C986 H974 0.930 . S
C986 C987 1.399 . S
C986 C991 1.399 . S
C987 C986 1.399 . S
C987 C988 1.376 . S
C988 H975 0.930 . S
C988 C987 1.376 . S
C988 C989 1.388 . S
C989 H976 0.930 . S
C989 C988 1.388 . S
C989 C990 1.390 . S
C990 C989 1.390 . S
C990 C991 1.394 . S
C990 C996 1.465 . S
C991 C986 1.399 . S
C991 C990 1.394 . S
C991 C992 1.516 . S
C992 C991 1.516 . S
C992 C993 1.502 . S
C992 C994 1.561 . S
C992 C995 1.526 . S
C993 H977 0.959 . S
C993 H978 0.959 . S
C993 H979 0.961 . S
C993 C992 1.502 . S
C994 H980 0.960 . S
C994 H981 0.961 . S
C994 H982 0.959 . S
C994 C992 1.561 . S
C995 C992 1.526 . S
C995 C996 1.396 . S
C995 C1000 1.390 . S
C996 C990 1.465 . S
C996 C995 1.396 . S
C996 C997 1.399 . S
C997 H983 0.929 . S
C997 C996 1.399 . S
C997 C998 1.385 . S
C998 H984 0.931 . S
C998 C997 1.385 . S
C998 C999 1.389 . S
C999 C998 1.389 . S
C999 C1000 1.387 . S
C1000 H985 0.930 . S
C1000 C995 1.390 . S
C1000 C999 1.387 . S
H1001 C1013 0.930 . S
H1002 C1015 0.930 . S
H1003 C1016 0.930 . S
H1004 C1020 0.959 . S
H1005 C1020 0.959 . S
H1006 C1020 0.961 . S
H1007 C1021 0.960 . S
H1008 C1021 0.961 . S
H1009 C1021 0.959 . S
H1010 C1024 0.929 . S
H1011 C1025 0.931 . S
H1012 C1027 0.930 . S
C1013 H1001 0.930 . S
C1013 C1014 1.399 . S
C1013 C1018 1.399 . S
C1014 C1013 1.399 . S
C1014 C1015 1.376 . S
C1015 H1002 0.930 . S
C1015 C1014 1.376 . S
C1015 C1016 1.388 . S
C1016 H1003 0.930 . S
C1016 C1015 1.388 . S
C1016 C1017 1.390 . S
C1017 C1016 1.390 . S
C1017 C1018 1.394 . S
C1017 C1023 1.465 . S
C1018 C1013 1.399 . S
C1018 C1017 1.394 . S
C1018 C1019 1.516 . S
C1019 C1018 1.516 . S
C1019 C1020 1.502 . S
C1019 C1021 1.561 . S
C1019 C1022 1.526 . S
C1020 H1004 0.959 . S
C1020 H1005 0.959 . S
C1020 H1006 0.961 . S
C1020 C1019 1.502 . S
C1021 H1007 0.960 . S
C1021 H1008 0.961 . S
C1021 H1009 0.959 . S
C1021 C1019 1.561 . S
C1022 C1019 1.526 . S
C1022 C1023 1.396 . S
C1022 C1027 1.390 . S
C1023 C1017 1.465 . S
C1023 C1022 1.396 . S
C1023 C1024 1.399 . S
C1024 H1010 0.929 . S
C1024 C1023 1.399 . S
C1024 C1025 1.385 . S
C1025 H1011 0.931 . S
C1025 C1024 1.385 . S
C1025 C1026 1.389 . S
C1026 C1025 1.389 . S
C1026 C1027 1.387 . S
C1027 H1012 0.930 . S
C1027 C1022 1.390 . S
C1027 C1026 1.387 . S
H1028 C1040 0.930 . S
H1029 C1042 0.930 . S
H1030 C1043 0.930 . S
H1031 C1047 0.959 . S
H1032 C1047 0.959 . S
H1033 C1047 0.961 . S
H1034 C1048 0.960 . S
H1035 C1048 0.961 . S
H1036 C1048 0.959 . S
H1037 C1051 0.929 . S
H1038 C1052 0.931 . S
H1039 C1054 0.930 . S
C1040 H1028 0.930 . S
C1040 C1041 1.399 . S
C1040 C1045 1.399 . S
C1041 C1040 1.399 . S
C1041 C1042 1.376 . S
C1042 H1029 0.930 . S
C1042 C1041 1.376 . S
C1042 C1043 1.388 . S
C1043 H1030 0.930 . S
C1043 C1042 1.388 . S
C1043 C1044 1.390 . S
C1044 C1043 1.390 . S
C1044 C1045 1.394 . S
C1044 C1050 1.465 . S
C1045 C1040 1.399 . S
C1045 C1044 1.394 . S
C1045 C1046 1.516 . S
C1046 C1045 1.516 . S
C1046 C1047 1.502 . S
C1046 C1048 1.561 . S
C1046 C1049 1.526 . S
C1047 H1031 0.959 . S
C1047 H1032 0.959 . S
C1047 H1033 0.961 . S
C1047 C1046 1.502 . S
C1048 H1034 0.960 . S
C1048 H1035 0.961 . S
C1048 H1036 0.959 . S
C1048 C1046 1.561 . S
C1049 C1046 1.526 . S
C1049 C1050 1.396 . S
C1049 C1054 1.390 . S
C1050 C1044 1.465 . S
C1050 C1049 1.396 . S
C1050 C1051 1.399 . S
C1051 H1037 0.929 . S
C1051 C1050 1.399 . S
C1051 C1052 1.385 . S
C1052 H1038 0.931 . S
C1052 C1051 1.385 . S
C1052 C1053 1.389 . S
C1053 C1052 1.389 . S
C1053 C1054 1.387 . S
C1054 H1039 0.930 . S
C1054 C1049 1.390 . S
C1054 C1053 1.387 . S
H1055 C1067 0.930 . S
H1056 C1069 0.930 . S
H1057 C1070 0.930 . S
H1058 C1074 0.959 . S
H1059 C1074 0.959 . S
H1060 C1074 0.961 . S
H1061 C1075 0.960 . S
H1062 C1075 0.961 . S
H1063 C1075 0.959 . S
H1064 C1078 0.929 . S
H1065 C1079 0.931 . S
H1066 C1081 0.930 . S
C1067 H1055 0.930 . S
C1067 C1068 1.399 . S
C1067 C1072 1.399 . S
C1068 C1067 1.399 . S
C1068 C1069 1.376 . S
C1069 H1056 0.930 . S
C1069 C1068 1.376 . S
C1069 C1070 1.388 . S
C1070 H1057 0.930 . S
C1070 C1069 1.388 . S
C1070 C1071 1.390 . S
C1071 C1070 1.390 . S
C1071 C1072 1.394 . S
C1071 C1077 1.465 . S
C1072 C1067 1.399 . S
C1072 C1071 1.394 . S
C1072 C1073 1.516 . S
C1073 C1072 1.516 . S
C1073 C1074 1.502 . S
C1073 C1075 1.561 . S
C1073 C1076 1.526 . S
C1074 H1058 0.959 . S
C1074 H1059 0.959 . S
C1074 H1060 0.961 . S
C1074 C1073 1.502 . S
C1075 H1061 0.960 . S
C1075 H1062 0.961 . S
C1075 H1063 0.959 . S
C1075 C1073 1.561 . S
C1076 C1073 1.526 . S
C1076 C1077 1.396 . S
C1076 C1081 1.390 . S
C1077 C1071 1.465 . S
C1077 C1076 1.396 . S
C1077 C1078 1.399 . S
C1078 H1064 0.929 . S
C1078 C1077 1.399 . S
C1078 C1079 1.385 . S
C1079 H1065 0.931 . S
C1079 C1078 1.385 . S
C1079 C1080 1.389 . S
C1080 C1079 1.389 . S
C1080 C1081 1.387 . S
C1081 H1066 0.930 . S
C1081 C1076 1.390 . S
C1081 C1080 1.387 . S
H1082 C1094 0.930 . S
H1083 C1096 0.930 . S
H1084 C1097 0.930 . S
H1085 C1101 0.959 . S
H1086 C1101 0.959 . S
H1087 C1101 0.961 . S
H1088 C1102 0.960 . S
H1089 C1102 0.961 . S
H1090 C1102 0.959 . S
H1091 C1105 0.929 . S
H1092 C1106 0.931 . S
H1093 C1108 0.930 . S
C1094 H1082 0.930 . S
C1094 C1095 1.399 . S
C1094 C1099 1.399 . S
C1095 C1094 1.399 . S
C1095 C1096 1.376 . S
C1096 H1083 0.930 . S
C1096 C1095 1.376 . S
C1096 C1097 1.388 . S
C1097 H1084 0.930 . S
C1097 C1096 1.388 . S
C1097 C1098 1.390 . S
C1098 C1097 1.390 . S
C1098 C1099 1.394 . S
C1098 C1104 1.465 . S
C1099 C1094 1.399 . S
C1099 C1098 1.394 . S
C1099 C1100 1.516 . S
C1100 C1099 1.516 . S
C1100 C1101 1.502 . S
C1100 C1102 1.561 . S
C1100 C1103 1.526 . S
C1101 H1085 0.959 . S
C1101 H1086 0.959 . S
C1101 H1087 0.961 . S
C1101 C1100 1.502 . S
C1102 H1088 0.960 . S
C1102 H1089 0.961 . S
C1102 H1090 0.959 . S
C1102 C1100 1.561 . S
C1103 C1100 1.526 . S
C1103 C1104 1.396 . S
C1103 C1108 1.390 . S
C1104 C1098 1.465 . S
C1104 C1103 1.396 . S
C1104 C1105 1.399 . S
C1105 H1091 0.929 . S
C1105 C1104 1.399 . S
C1105 C1106 1.385 . S
C1106 H1092 0.931 . S
C1106 C1105 1.385 . S
C1106 C1107 1.389 . S
C1107 C1106 1.389 . S
C1107 C1108 1.387 . S
C1108 H1093 0.930 . S
C1108 C1103 1.390 . S
C1108 C1107 1.387 . S
H1109 C1121 0.930 . S
H1110 C1123 0.930 . S
H1111 C1124 0.930 . S
H1112 C1128 0.959 . S
H1113 C1128 0.959 . S
H1114 C1128 0.961 . S
H1115 C1129 0.960 . S
H1116 C1129 0.961 . S
H1117 C1129 0.959 . S
H1118 C1132 0.929 . S
H1119 C1133 0.931 . S
H1120 C1135 0.930 . S
C1121 H1109 0.930 . S
C1121 C1122 1.399 . S
C1121 C1126 1.399 . S
C1122 C1121 1.399 . S
C1122 C1123 1.376 . S
C1123 H1110 0.930 . S
C1123 C1122 1.376 . S
C1123 C1124 1.388 . S
C1124 H1111 0.930 . S
C1124 C1123 1.388 . S
C1124 C1125 1.390 . S
C1125 C1124 1.390 . S
C1125 C1126 1.394 . S
C1125 C1131 1.465 . S
C1126 C1121 1.399 . S
C1126 C1125 1.394 . S
C1126 C1127 1.516 . S
C1127 C1126 1.516 . S
C1127 C1128 1.502 . S
C1127 C1129 1.561 . S
C1127 C1130 1.526 . S
C1128 H1112 0.959 . S
C1128 H1113 0.959 . S
C1128 H1114 0.961 . S
C1128 C1127 1.502 . S
C1129 H1115 0.960 . S
C1129 H1116 0.961 . S
C1129 H1117 0.959 . S
C1129 C1127 1.561 . S
C1130 C1127 1.526 . S
C1130 C1131 1.396 . S
C1130 C1135 1.390 . S
C1131 C1125 1.465 . S
C1131 C1130 1.396 . S
C1131 C1132 1.399 . S
C1132 H1118 0.929 . S
C1132 C1131 1.399 . S
C1132 C1133 1.385 . S
C1133 H1119 0.931 . S
C1133 C1132 1.385 . S
C1133 C1134 1.389 . S
C1134 C1133 1.389 . S
C1134 C1135 1.387 . S
C1135 H1120 0.930 . S
C1135 C1130 1.390 . S
C1135 C1134 1.387 . S
C717 C49 1.490 . S
C729 C284 1.488 1_556 S
C744 C29 1.502 . S
C756 C145 1.501 1_554 S
C771 C108 1.499 1_556 S
C783 C233 1.500 . S
C798 C321 1.500 . S
C810 C196 1.500 1_556 S
C825 C401 1.487 . S
C837 C645 1.486 . S
C852 C497 1.502 . S
C864 C381 1.501 . S
C879 C577 1.486 . S
C891 C460 1.485 . S
C906 C665 1.500 . S
C918 C557 1.501 . S
C933 C585 1.352 . S
C945 C20 1.329 . S
C960 C117 1.339 . S
C972 C673 1.335 . S
C987 C409 1.341 . S
C999 C205 1.333 . S
C1014 C489 1.352 . S
C1026 C293 1.332 . S
C1041 C469 1.339 . S
C1053 C313 1.354 . S
C1068 C57 1.353 . S
C1080 C548 1.337 . S
C1095 C137 1.353 . S
C1107 C636 1.337 . S
C1122 C225 1.341 . S
C1134 C372 1.353 . S
