# Generated by pormake.
# Topology wjd, (6)-cn, num edge types: 1
# Building blocks:
#     Node 0, Type 0, BuildingBlock: GEDQOX_clean_sbu_0, # of connection points: 6
#     Node 1, Type 0, BuildingBlock: GEDQOX_clean_sbu_0, # of connection points: 6
#     Node 2, Type 0, BuildingBlock: GEDQOX_clean_sbu_0, # of connection points: 6
#     Node 3, Type 0, BuildingBlock: GEDQOX_clean_sbu_0, # of connection points: 6
#     Node 4, Type 0, BuildingBlock: GEDQOX_clean_sbu_0, # of connection points: 6
#     Node 5, Type 0, BuildingBlock: GEDQOX_clean_sbu_0, # of connection points: 6
#     Node 6, Type 0, BuildingBlock: GEDQOX_clean_sbu_0, # of connection points: 6
#     Node 7, Type 0, BuildingBlock: GEDQOX_clean_sbu_0, # of connection points: 6
#     Node 8, Type 0, BuildingBlock: GEDQOX_clean_sbu_0, # of connection points: 6
#     Node 9, Type 0, BuildingBlock: GEDQOX_clean_sbu_0, # of connection points: 6
#     Node 10, Type 0, BuildingBlock: GEDQOX_clean_sbu_0, # of connection points: 6
#     Node 11, Type 0, BuildingBlock: GEDQOX_clean_sbu_0, # of connection points: 6
#     Edge 12, Type (0, 0), BuildingBlock: TEMPAE_clean_linker_10, # of connection points: 2
#     Edge 13, Type (0, 0), BuildingBlock: TEMPAE_clean_linker_10, # of connection points: 2
#     Edge 14, Type (0, 0), BuildingBlock: TEMPAE_clean_linker_10, # of connection points: 2
#     Edge 15, Type (0, 0), BuildingBlock: TEMPAE_clean_linker_10, # of connection points: 2
#     Edge 16, Type (0, 0), BuildingBlock: TEMPAE_clean_linker_10, # of connection points: 2
#     Edge 17, Type (0, 0), BuildingBlock: TEMPAE_clean_linker_10, # of connection points: 2
#     Edge 18, Type (0, 0), BuildingBlock: TEMPAE_clean_linker_10, # of connection points: 2
#     Edge 19, Type (0, 0), BuildingBlock: TEMPAE_clean_linker_10, # of connection points: 2
#     Edge 20, Type (0, 0), BuildingBlock: TEMPAE_clean_linker_10, # of connection points: 2
#     Edge 21, Type (0, 0), BuildingBlock: TEMPAE_clean_linker_10, # of connection points: 2
#     Edge 22, Type (0, 0), BuildingBlock: TEMPAE_clean_linker_10, # of connection points: 2
#     Edge 23, Type (0, 0), BuildingBlock: TEMPAE_clean_linker_10, # of connection points: 2
#     Edge 24, Type (0, 0), BuildingBlock: TEMPAE_clean_linker_10, # of connection points: 2
#     Edge 25, Type (0, 0), BuildingBlock: TEMPAE_clean_linker_10, # of connection points: 2
#     Edge 26, Type (0, 0), BuildingBlock: TEMPAE_clean_linker_10, # of connection points: 2
#     Edge 27, Type (0, 0), BuildingBlock: TEMPAE_clean_linker_10, # of connection points: 2
#     Edge 28, Type (0, 0), BuildingBlock: TEMPAE_clean_linker_10, # of connection points: 2
#     Edge 29, Type (0, 0), BuildingBlock: TEMPAE_clean_linker_10, # of connection points: 2
#     Edge 30, Type (0, 0), BuildingBlock: TEMPAE_clean_linker_10, # of connection points: 2
#     Edge 31, Type (0, 0), BuildingBlock: TEMPAE_clean_linker_10, # of connection points: 2
#     Edge 32, Type (0, 0), BuildingBlock: TEMPAE_clean_linker_10, # of connection points: 2
#     Edge 33, Type (0, 0), BuildingBlock: TEMPAE_clean_linker_10, # of connection points: 2
#     Edge 34, Type (0, 0), BuildingBlock: TEMPAE_clean_linker_10, # of connection points: 2
#     Edge 35, Type (0, 0), BuildingBlock: TEMPAE_clean_linker_10, # of connection points: 2
#     Edge 36, Type (0, 0), BuildingBlock: TEMPAE_clean_linker_10, # of connection points: 2
#     Edge 37, Type (0, 0), BuildingBlock: TEMPAE_clean_linker_10, # of connection points: 2
#     Edge 38, Type (0, 0), BuildingBlock: TEMPAE_clean_linker_10, # of connection points: 2
#     Edge 39, Type (0, 0), BuildingBlock: TEMPAE_clean_linker_10, # of connection points: 2
#     Edge 40, Type (0, 0), BuildingBlock: TEMPAE_clean_linker_10, # of connection points: 2
#     Edge 41, Type (0, 0), BuildingBlock: TEMPAE_clean_linker_10, # of connection points: 2
#     Edge 42, Type (0, 0), BuildingBlock: TEMPAE_clean_linker_10, # of connection points: 2
#     Edge 43, Type (0, 0), BuildingBlock: TEMPAE_clean_linker_10, # of connection points: 2
#     Edge 44, Type (0, 0), BuildingBlock: TEMPAE_clean_linker_10, # of connection points: 2
#     Edge 45, Type (0, 0), BuildingBlock: TEMPAE_clean_linker_10, # of connection points: 2
#     Edge 46, Type (0, 0), BuildingBlock: TEMPAE_clean_linker_10, # of connection points: 2
#     Edge 47, Type (0, 0), BuildingBlock: TEMPAE_clean_linker_10, # of connection points: 2
# Relax obj value: 0.099
# Max RMSD: 0.218
# Mean RMSD: 0.218
data_MOF--net-wjd--node1-GEDQOX_clean_sbu_0--edge1-TEMPAE_clean_linker_10
_symmetry_space_group_name_H-M    P1
_symmetry_Int_Tables_number       1
_symmetry_cell_setting            triclinic
loop_
_symmetry_equiv_pos_as_xyz
'x, y, z'
_cell_length_a     40.687845
_cell_length_b     40.664195
_cell_length_c     53.714095
_cell_angle_alpha  89.97459
_cell_angle_beta   90.047148
_cell_angle_gamma 120.01721
loop_
_atom_site_label
_atom_site_type_symbol
_atom_site_fract_x
_atom_site_fract_y
_atom_site_fract_z
_atom_type_partial_charge
Nd0 Nd 0.38109 0.11577 0.13659 0.0
Nd1 Nd 0.33297 0.15536 0.12267 0.0
C2 C 0.43458 0.09878 0.14677 0.0
C3 C 0.47661 0.11667 0.14473 0.0
C4 C 0.50135 0.1406 0.16337 0.0
C5 C 0.54084 0.15649 0.16091 0.0
C6 C 0.5564 0.14894 0.13971 0.0
C7 C 0.53157 0.12496 0.12122 0.0
C8 C 0.49234 0.10891 0.12375 0.0
C9 C 0.33732 0.08853 0.09477 0.0
C10 C 0.42407 0.20596 0.11757 0.0
C11 C 0.28791 0.17666 0.10132 0.0
C12 C 0.25964 0.18794 0.10822 0.0
C13 C 0.22408 0.17034 0.09647 0.0
C14 C 0.19755 0.18172 0.10173 0.0
C15 C 0.20602 0.21123 0.1188 0.0
C16 C 0.24156 0.22852 0.1308 0.0
C17 C 0.26805 0.21699 0.1256 0.0
C18 C 0.35255 0.16599 0.17282 0.0
C19 C 0.29181 0.07052 0.14947 0.0
O20 O 0.41997 0.11081 0.16388 0.0
O21 O 0.4163 0.09121 0.12561 0.0
O22 O 0.34293 0.06815 0.11086 0.0
O23 O 0.35635 0.12388 0.10008 0.0
O24 O 0.42637 0.17828 0.12887 0.0
O25 O 0.39145 0.20168 0.10974 0.0
O26 O 0.27821 0.14095 0.10441 0.0
O27 O 0.32342 0.20021 0.10708 0.0
O28 O 0.33332 0.17972 0.16226 0.0
O29 O 0.36063 0.14917 0.1566 0.0
O30 O 0.28867 0.09508 0.13483 0.0
O31 O 0.32508 0.07453 0.15624 0.0
H32 H 0.49026 0.14699 0.17984 0.0
H33 H 0.55922 0.17491 0.17549 0.0
H34 H 0.54246 0.11791 0.10491 0.0
H35 H 0.47423 0.09013 0.1092 0.0
H36 H 0.21687 0.14787 0.08303 0.0
H37 H 0.17024 0.16716 0.0925 0.0
H38 H 0.24926 0.25149 0.14389 0.0
H39 H 0.29525 0.23114 0.135 0.0
Nd40 Nd 0.8658 0.71339 0.40816 0.0
Nd41 Nd 0.77678 0.65865 0.39865 0.0
C42 C 0.9334 0.75955 0.4276 0.0
C43 C 0.97229 0.78748 0.41943 0.0
C44 C 0.99087 0.82349 0.43057 0.0
C45 C 1.02788 0.85034 0.42363 0.0
C46 C 0.04728 0.84175 0.40541 0.0
C47 C 1.02863 0.80563 0.39421 0.0
C48 C 0.99142 0.77879 0.40107 0.0
C49 C 0.85264 0.69003 0.35895 0.0
C50 C 0.81608 0.75144 0.38839 0.0
C51 C 0.70643 0.61325 0.38295 0.0
C52 C 0.67846 0.57255 0.38623 0.0
C53 C 0.68795 0.54876 0.39959 0.0
C54 C 0.66122 0.51022 0.40285 0.0
C55 C 0.6244 0.49463 0.39281 0.0
C56 C 0.61514 0.51872 0.37942 0.0
C57 C 0.6419 0.55726 0.37619 0.0
C58 C 0.797 0.68378 0.44731 0.0
C59 C 0.82873 0.62215 0.41444 0.0
O60 O 0.90733 0.76908 0.42459 0.0
O61 O 0.92105 0.72364 0.42284 0.0
O62 O 0.88639 0.71225 0.36775 0.0
O63 O 0.8292 0.68139 0.37629 0.0
O64 O 0.84923 0.75687 0.39628 0.0
O65 O 0.7851 0.7173 0.38669 0.0
O66 O 0.73651 0.62112 0.36971 0.0
O67 O 0.71464 0.63435 0.40292 0.0
O68 O 0.77164 0.64919 0.44125 0.0
O69 O 0.81174 0.70231 0.42768 0.0
O70 O 0.79919 0.617 0.40114 0.0
O71 O 0.85248 0.65555 0.4244 0.0
H72 H 0.9768 0.83079 0.44484 0.0
H73 H 0.04158 0.87765 0.4329 0.0
H74 H 0.0427 0.79825 0.38 0.0
H75 H 0.97771 0.75127 0.39206 0.0
H76 H 0.71609 0.56002 0.40747 0.0
H77 H 0.66956 0.49252 0.41298 0.0
H78 H 0.58698 0.50789 0.37171 0.0
H79 H 0.63398 0.57519 0.36592 0.0
Nd80 Nd 0.92341 0.27958 0.13853 0.0
Nd81 Nd 0.88946 0.1874 0.12504 0.0
C82 C 0.93486 0.34319 0.15969 0.0
C83 C 0.92263 0.371 0.15383 0.0
C84 C 0.89139 0.36113 0.13815 0.0
C85 C 0.87961 0.38741 0.13285 0.0
C86 C 0.89895 0.4243 0.14299 0.0
C87 C 0.93049 0.43409 0.15852 0.0
C88 C 0.94214 0.4077 0.16389 0.0
C89 C 0.93269 0.26785 0.08868 0.0
C90 C 0.83282 0.22343 0.12246 0.0
C91 C 0.87001 0.12111 0.10435 0.0
C92 C 0.85924 0.08194 0.11213 0.0
C93 C 0.88118 0.06608 0.10424 0.0
C94 C 0.87092 0.02878 0.11064 0.0
C95 C 0.83822 1.0062 0.12498 0.0
C96 C 0.81645 0.02227 0.13308 0.0
C97 C 0.82683 0.05969 0.12675 0.0
C98 C 0.88739 0.20112 0.17551 0.0
C99 C 0.97942 0.24293 0.14068 0.0
O100 O 0.90794 0.30939 0.16658 0.0
O101 O 0.95914 0.3419 0.14425 0.0
O102 O 0.94286 0.30096 0.09822 0.0
O103 O 0.91497 0.24325 0.10523 0.0
O104 O 0.85938 0.2559 0.13225 0.0
O105 O 0.83928 0.19597 0.11528 0.0
O106 O 0.90543 0.14765 0.10783 0.0
O107 O 0.84581 0.13272 0.10893 0.0
O108 O 0.87443 0.16718 0.16645 0.0
O109 O 0.89973 0.22406 0.15776 0.0
O110 O 0.95343 0.21248 0.12867 0.0
O111 O 0.97366 0.27051 0.14911 0.0
H112 H 0.87595 0.33299 0.13008 0.0
H113 H 0.85496 0.37857 0.12109 0.0
H114 H 0.94651 0.46234 0.16636 0.0
H115 H 0.96645 0.416 0.1759 0.0
H116 H 0.90629 0.08255 0.09298 0.0
H117 H 0.88882 1.01772 0.10444 0.0
H118 H 0.79092 1.00572 0.14393 0.0
H119 H 0.80921 0.07099 0.13315 0.0
Nd120 Nd 0.33546 0.14918 0.41122 0.0
Nd121 Nd 0.39698 0.12613 0.39297 0.0
C122 C 0.2878 0.16315 0.43635 0.0
C123 C 0.26142 0.17717 0.43087 0.0
C124 C 0.24989 0.19246 0.45007 0.0
C125 C 0.22442 0.20536 0.44528 0.0
C126 C 0.2099 0.20319 0.42114 0.0
C127 C 0.22207 0.18834 0.40185 0.0
C128 C 0.24761 0.17549 0.40667 0.0
C129 C 0.34142 0.15107 0.35956 0.0
C130 C 0.30885 0.06268 0.39525 0.0
C131 C 0.45258 0.12113 0.37096 0.0
C132 C 0.49298 0.13464 0.37637 0.0
C133 C 0.51498 0.16771 0.3904 0.0
C134 C 0.55294 0.1795 0.396 0.0
C135 C 0.56966 0.15829 0.38784 0.0
C136 C 0.54732 0.12508 0.37385 0.0
C137 C 0.50945 0.11345 0.36817 0.0
C138 C 0.37384 0.10708 0.44132 0.0
C139 C 0.42558 0.21561 0.40862 0.0
O140 O 0.27863 0.12961 0.42751 0.0
O141 O 0.32401 0.18783 0.43408 0.0
O142 O 0.31793 0.15838 0.37126 0.0
O143 O 0.35889 0.14319 0.37539 0.0
O144 O 0.30562 0.08451 0.41211 0.0
O145 O 0.33921 0.07533 0.38069 0.0
O146 O 0.44355 0.14693 0.36524 0.0
O147 O 0.42804 0.09509 0.38595 0.0
O148 O 0.38776 0.0906 0.42781 0.0
O149 O 0.37769 0.13664 0.43052 0.0
O150 O 0.43467 0.18992 0.40163 0.0
O151 O 0.39033 0.20688 0.41381 0.0
H152 H 0.26047 0.19426 0.46883 0.0
H153 H 0.21613 0.21711 0.4605 0.0
H154 H 0.21118 0.18579 0.38312 0.0
H155 H 0.25625 0.16388 0.39155 0.0
H156 H 0.50278 0.18436 0.39713 0.0
H157 H 0.56927 0.20542 0.40654 0.0
H158 H 0.5589 0.10763 0.36761 0.0
H159 H 0.49287 0.08763 0.35756 0.0
Nd160 Nd 0.76826 0.65806 0.13739 0.0
Nd161 Nd 0.85469 0.71607 0.12258 0.0
C162 C 0.70281 0.60012 0.15252 0.0
C163 C 0.6805 0.55839 0.14844 0.0
C164 C 0.66515 0.5336 0.16877 0.0
C165 C 0.64134 0.49445 0.16501 0.0
C166 C 0.63201 0.47913 0.14077 0.0
C167 C 0.64835 0.50405 0.12047 0.0
C168 C 0.67237 0.54305 0.12424 0.0
C169 C 0.77806 0.69681 0.0939 0.0
C170 C 0.8241 0.62505 0.11797 0.0
C171 C 0.91912 0.76533 0.10086 0.0
C172 C 0.95786 0.79413 0.10888 0.0
C173 C 0.97498 0.83083 0.0988 0.0
C174 C 1.01184 0.85826 0.10578 0.0
C175 C 0.0326 0.84954 0.12294 0.0
C176 C 1.01519 0.81276 0.13318 0.0
C177 C 0.97822 0.78541 0.1263 0.0
C178 C 0.84834 0.7004 0.17327 0.0
C179 C 0.80224 0.74783 0.14724 0.0
O180 O 0.734 0.61373 0.16578 0.0
O181 O 0.70628 0.62148 0.13338 0.0
O182 O 0.74992 0.68675 0.1091 0.0
O183 O 0.79948 0.68383 0.10063 0.0
O184 O 0.79042 0.61787 0.12605 0.0
O185 O 0.85202 0.65986 0.11352 0.0
O186 O 0.89182 0.7727 0.1054 0.0
O187 O 0.90895 0.72968 0.10467 0.0
O188 O 0.88013 0.7243 0.16271 0.0
O189 O 0.82317 0.68726 0.15687 0.0
O190 O 0.82958 0.75391 0.13139 0.0
O191 O 0.77747 0.71348 0.15585 0.0
H192 H 0.67104 0.5446 0.1876 0.0
H193 H 0.63004 0.47624 0.18116 0.0
H194 H 0.64165 0.49369 0.10152 0.0
H195 H 0.68381 0.56131 0.10811 0.0
H196 H 0.95981 0.83831 0.08545 0.0
H197 H 1.02395 0.88644 0.09785 0.0
H198 H 0.03033 0.80484 0.14623 0.0
H199 H 0.96572 0.75737 0.13451 0.0
Nd200 Nd 0.8981 0.19471 0.40913 0.0
Nd201 Nd 0.93196 0.27863 0.40293 0.0
C202 C 0.86145 0.1215 0.42092 0.0
C203 C 0.85702 0.08408 0.4143 0.0
C204 C 0.88562 0.07512 0.4191 0.0
C205 C 0.87943 0.03859 0.41414 0.0
C206 C 0.84455 1.01026 0.40428 0.0
C207 C 0.81625 1.01952 0.39921 0.0
C208 C 0.82237 0.0559 0.40425 0.0
C209 C 0.90643 0.21719 0.36038 0.0
C210 C 0.98705 0.24072 0.3965 0.0
C211 C 0.95899 0.35112 0.3914 0.0
C212 C 0.94467 0.37824 0.3944 0.0
C213 C 0.93186 0.3898 0.37366 0.0
C214 C 0.91766 0.41472 0.37645 0.0
C215 C 0.91601 0.42889 0.40007 0.0
C216 C 0.92915 0.41753 0.42077 0.0
C217 C 0.94326 0.3926 0.41799 0.0
C218 C 0.93482 0.25768 0.45173 0.0
C219 C 0.84351 0.23112 0.41608 0.0
O220 O 0.89257 0.14667 0.43214 0.0
O221 O 0.84888 0.1367 0.40481 0.0
O222 O 0.91236 0.19067 0.3686 0.0
O223 O 0.8945 0.22991 0.37749 0.0
O224 O 0.95933 0.20891 0.40586 0.0
O225 O 0.98274 0.27037 0.39145 0.0
O226 O 0.94147 0.32354 0.37532 0.0
O227 O 0.96808 0.33981 0.41169 0.0
O228 O 0.9231 0.2809 0.4453 0.0
O229 O 0.94053 0.24389 0.43235 0.0
O230 O 0.86925 0.26116 0.40408 0.0
O231 O 0.85175 0.20582 0.42481 0.0
H232 H 0.91261 0.09613 0.42691 0.0
H233 H 0.90198 0.03251 0.41802 0.0
H234 H 0.78891 0.99831 0.39194 0.0
H235 H 0.79963 0.06183 0.40066 0.0
H236 H 0.9326 0.37934 0.35524 0.0
H237 H 0.90748 0.42247 0.3601 0.0
H238 H 0.92899 0.42828 0.43919 0.0
H239 H 0.95304 0.3846 0.43443 0.0
Nd240 Nd 0.16831 0.32997 0.62704 0.0
Nd241 Nd 0.13615 0.38663 0.63758 0.0
C242 C 0.18647 0.282 0.60641 0.0
C243 C 0.20246 0.25727 0.61218 0.0
C244 C 0.18422 0.2203 0.60254 0.0
C245 C 0.1982 0.19582 0.60741 0.0
C246 C 0.23103 0.20775 0.62198 0.0
C247 C 0.24921 0.24485 0.63183 0.0
C248 C 0.23505 0.26942 0.62697 0.0
C249 C 0.17804 0.35138 0.67667 0.0
C250 C 0.07892 0.29409 0.64401 0.0
C251 C 0.11523 0.43516 0.65323 0.0
C252 C 0.12829 0.47605 0.64871 0.0
C253 C 0.14332 0.50222 0.6684 0.0
C254 C 0.15646 0.54093 0.66442 0.0
C255 C 0.15474 0.55458 0.6406 0.0
C256 C 0.13948 0.52824 0.62092 0.0
C257 C 0.1265 0.48955 0.62489 0.0
C258 C 0.13206 0.36342 0.58842 0.0
C259 C 0.22501 0.42113 0.62222 0.0
O260 O 0.15298 0.27165 0.61567 0.0
O261 O 0.20923 0.3189 0.60655 0.0
O262 O 0.18924 0.32914 0.66744 0.0
O263 O 0.16397 0.36123 0.65951 0.0
O264 O 0.10556 0.28873 0.63398 0.0
O265 O 0.08433 0.3285 0.64918 0.0
O266 O 0.13824 0.42759 0.66585 0.0
O267 O 0.09857 0.41145 0.63478 0.0
O268 O 0.14113 0.39773 0.59507 0.0
O269 O 0.12747 0.34415 0.60777 0.0
O270 O 0.20065 0.42666 0.63528 0.0
O271 O 0.21526 0.3877 0.61229 0.0
H272 H 0.15891 0.21023 0.59123 0.0
H273 H 0.1829 0.16725 0.59997 0.0
H274 H 0.2746 0.25503 0.64304 0.0
H275 H 0.24957 0.29782 0.63473 0.0
H276 H 0.14517 0.49274 0.68694 0.0
H277 H 0.16847 0.56025 0.68 0.0
H278 H 0.13708 0.5374 0.60241 0.0
H279 H 0.1151 0.47027 0.60924 0.0
Nd280 Nd 0.28386 0.91493 0.89557 0.0
Nd281 Nd 0.19727 0.88734 0.91165 0.0
C282 C 0.34638 0.92236 0.87486 0.0
C283 C 0.37459 0.9104 0.88028 0.0
C284 C 0.38743 0.89646 0.86098 0.0
C285 C 0.41438 0.88533 0.8656 0.0
C286 C 0.42929 0.88802 0.88969 0.0
C287 C 0.41605 0.90173 0.90906 0.0
C288 C 0.38895 0.91268 0.90443 0.0
C289 C 0.2761 0.93262 0.94356 0.0
C290 C 0.22551 0.8244 0.90991 0.0
C291 C 0.13319 0.86986 0.935 0.0
C292 C 0.09251 0.85268 0.92873 0.0
C293 C 0.06522 0.8369 0.94763 0.0
C294 C 1.02659 0.82145 0.94216 0.0
C295 C 1.01441 0.8215 0.91761 0.0
C296 C 0.04193 0.83682 0.89862 0.0
C297 C 0.08057 0.85218 0.90412 0.0
C298 C 0.20412 0.8858 0.86022 0.0
C299 C 0.25505 0.97507 0.89651 0.0
O300 O 0.31226 0.89553 0.86871 0.0
O301 O 0.34607 0.94785 0.88958 0.0
O302 O 0.30711 0.95042 0.93073 0.0
O303 O 0.2518 0.90254 0.93245 0.0
O304 O 0.26028 0.85161 0.9042 0.0
O305 O 0.19728 0.83102 0.91406 0.0
O306 O 0.15604 0.90347 0.9256 0.0
O307 O 0.14748 0.8473 0.93432 0.0
O308 O 0.17226 0.8765 0.87119 0.0
O309 O 0.22906 0.89526 0.8766 0.0
O310 O 0.22933 0.95214 0.91269 0.0
O311 O 0.27484 0.9641 0.88263 0.0
H312 H 0.37659 0.89416 0.84224 0.0
H313 H 0.42326 0.87429 0.85028 0.0
H314 H 0.42707 0.90462 0.92778 0.0
H315 H 0.37941 0.92313 0.91974 0.0
H316 H 0.07383 0.83699 0.96674 0.0
H317 H 1.00634 0.81043 0.95731 0.0
H318 H 0.03359 0.83699 0.87949 0.0
H319 H 0.10114 0.86399 0.88919 0.0
Nd320 Nd 0.73693 0.85319 0.62405 0.0
Nd321 Nd 0.67542 0.76495 0.63223 0.0
C322 C 0.78836 0.91903 0.60473 0.0
C323 C 0.80716 0.96048 0.60842 0.0
C324 C 0.83908 0.98389 0.59396 0.0
C325 C 0.86072 0.02277 0.59888 0.0
C326 C 0.85088 0.03941 0.61838 0.0
C327 C 0.81808 1.01587 0.63246 0.0
C328 C 0.79649 0.97671 0.62758 0.0
C329 C 0.71449 0.84025 0.67336 0.0
C330 C 0.76638 0.79387 0.63929 0.0
C331 C 0.6252 0.69512 0.64653 0.0
C332 C 0.58409 0.66811 0.64254 0.0
C333 C 0.55977 0.65314 0.66313 0.0
C334 C 0.52091 0.62764 0.65984 0.0
C335 C 0.50532 0.61623 0.63582 0.0
C336 C 0.5298 0.6314 0.6152 0.0
C337 C 0.56864 0.65706 0.6185 0.0
C338 C 0.70166 0.78579 0.58376 0.0
C339 C 0.64553 0.82488 0.621 0.0
O340 O 0.79601 0.90037 0.62142 0.0
O341 O 0.75279 0.90085 0.5974 0.0
O342 O 0.73928 0.87338 0.66478 0.0
O343 O 0.70291 0.81689 0.6557 0.0
O344 O 0.77454 0.82682 0.62932 0.0
O345 O 0.73112 0.76657 0.64418 0.0
O346 O 0.63393 0.72527 0.65996 0.0
O347 O 0.64797 0.70252 0.6275 0.0
O348 O 0.66642 0.76217 0.58954 0.0
O349 O 0.72033 0.79839 0.6036 0.0
O350 O 0.63746 0.79154 0.63027 0.0
O351 O 0.68036 0.85061 0.614 0.0
H352 H 0.84812 0.97182 0.57934 0.0
H353 H 0.88611 0.03947 0.58795 0.0
H354 H 0.80935 0.02757 0.64747 0.0
H355 H 0.77209 0.959 0.63912 0.0
H356 H 0.57084 0.66128 0.68185 0.0
H357 H 0.50302 0.61717 0.67618 0.0
H358 H 0.51908 0.62303 0.59644 0.0
H359 H 0.58654 0.66811 0.6022 0.0
Nd360 Nd 0.12398 0.37458 0.89988 0.0
Nd361 Nd 0.15767 0.32085 0.91292 0.0
C362 C 0.10875 0.42864 0.88762 0.0
C363 C 0.12765 0.47037 0.88569 0.0
C364 C 0.10877 0.48699 0.87393 0.0
C365 C 0.12313 0.52623 0.87541 0.0
C366 C 0.15665 0.54965 0.88879 0.0
C367 C 0.17634 0.533 0.89969 0.0
C368 C 0.16196 0.49374 0.89816 0.0
C369 C 0.09836 0.3341 0.94327 0.0
C370 C 0.21486 0.412 0.91587 0.0
C371 C 0.17712 0.27406 0.93364 0.0
C372 C 0.18737 0.2457 0.92529 0.0
C373 C 0.17184 0.21059 0.9375 0.0
C374 C 0.18201 0.18378 0.93037 0.0
C375 C 0.20812 0.19163 0.91095 0.0
C376 C 0.22347 0.22676 0.89861 0.0
C377 C 0.21305 0.25346 0.90562 0.0
C378 C 0.16601 0.33815 0.86244 0.0
C379 C 0.07158 0.28454 0.88949 0.0
O380 O 0.11692 0.41013 0.87101 0.0
O381 O 0.10588 0.41545 0.91021 0.0
O382 O 0.07773 0.34089 0.92811 0.0
O383 O 0.1328 0.35002 0.93615 0.0
O384 O 0.18797 0.41695 0.90575 0.0
O385 O 0.2084 0.37837 0.92334 0.0
O386 O 0.14169 0.26537 0.93069 0.0
O387 O 0.20135 0.30968 0.92859 0.0
O388 O 0.17583 0.31537 0.87252 0.0
O389 O 0.15253 0.34937 0.87911 0.0
O390 O 0.09502 0.27981 0.90423 0.0
O391 O 0.07866 0.31857 0.88182 0.0
H392 H 0.08204 0.46941 0.86446 0.0
H393 H 0.10701 0.53794 0.86701 0.0
H394 H 0.20251 0.55023 0.90981 0.0
H395 H 0.17688 0.48146 0.90752 0.0
H396 H 0.15207 0.20402 0.95274 0.0
H397 H 0.17001 0.15717 0.94044 0.0
H398 H 0.24335 0.23349 0.88343 0.0
H399 H 0.22527 0.28024 0.89572 0.0
Nd400 Nd 0.2132 0.89705 0.62461 0.0
Nd401 Nd 0.29508 0.92437 0.6373 0.0
C402 C 0.14633 0.88676 0.60996 0.0
C403 C 0.10483 0.86303 0.61371 0.0
C404 C 0.08068 0.85224 0.59297 0.0
C405 C 0.04132 0.83499 0.59606 0.0
C406 C 1.02519 0.82834 0.62002 0.0
C407 C 0.04937 0.8374 0.64078 0.0
C408 C 0.08876 0.85455 0.63767 0.0
C409 C 0.22533 0.88412 0.67346 0.0
C410 C 0.26722 0.98486 0.64143 0.0
C411 C 0.36103 0.93483 0.65445 0.0
C412 C 0.38757 0.92039 0.65074 0.0
C413 C 0.37834 0.88889 0.63548 0.0
C414 C 0.40497 0.87712 0.63124 0.0
C415 C 0.44137 0.89665 0.64217 0.0
C416 C 0.45019 0.92806 0.65755 0.0
C417 C 0.42361 0.93974 0.66176 0.0
C418 C 0.28727 0.94856 0.5914 0.0
C419 C 0.23796 0.8339 0.62064 0.0
O420 O 0.16612 0.90892 0.62831 0.0
O421 O 0.16414 0.87214 0.59817 0.0
O422 O 0.19653 0.86023 0.66025 0.0
O423 O 0.24559 0.91376 0.66112 0.0
O424 O 0.24046 0.96175 0.62594 0.0
O425 O 0.28991 0.97473 0.65251 0.0
O426 O 0.32836 0.91216 0.665 0.0
O427 O 0.35794 0.95392 0.63596 0.0
O428 O 0.31582 0.96727 0.60614 0.0
O429 O 0.26466 0.91535 0.59976 0.0
O430 O 0.27075 0.85995 0.6302 0.0
O431 O 0.21172 0.84213 0.61411 0.0
H432 H 0.09236 0.85846 0.57431 0.0
H433 H 1.02358 0.82777 0.57963 0.0
H434 H 0.03808 0.833 0.65951 0.0
H435 H 0.1067 0.86254 0.65404 0.0
H436 H 0.3507 0.87364 0.62669 0.0
H437 H 0.39697 0.85259 0.61952 0.0
H438 H 0.478 0.94422 0.66597 0.0
H439 H 0.43145 0.96434 0.67339 0.0
Nd440 Nd 0.66297 0.75433 0.89742 0.0
Nd441 Nd 0.72001 0.84127 0.90687 0.0
C442 C 0.60984 0.69032 0.87715 0.0
C443 C 0.56937 0.66339 0.88263 0.0
C444 C 0.547 0.67533 0.89538 0.0
C445 C 0.50852 0.64984 0.90009 0.0
C446 C 0.4915 0.6117 0.89227 0.0
C447 C 0.51426 0.59986 0.87975 0.0
C448 C 0.55271 0.62543 0.87497 0.0
C449 C 0.67945 0.76509 0.94789 0.0
C450 C 0.63166 0.81408 0.91111 0.0
C451 C 0.77772 0.90994 0.91643 0.0
C452 C 0.79647 0.95015 0.90808 0.0
C453 C 0.82162 0.9625 0.88774 0.0
C454 C 0.84331 1.00111 0.88193 0.0
C455 C 0.84054 0.02851 0.89633 0.0
C456 C 0.81421 1.01603 0.91605 0.0
C457 C 0.79257 0.97733 0.92191 0.0
C458 C 0.69336 0.82076 0.8588 0.0
C459 C 0.75135 0.78113 0.90376 0.0
O460 O 0.61783 0.72408 0.86935 0.0
O461 O 0.63471 0.69155 0.8932 0.0
O462 O 0.65498 0.7329 0.93802 0.0
O463 O 0.69087 0.79022 0.93119 0.0
O464 O 0.62539 0.78213 0.90033 0.0
O465 O 0.66563 0.83959 0.91929 0.0
O466 O 0.77977 0.88557 0.90153 0.0
O467 O 0.7451 0.89562 0.9281 0.0
O468 O 0.69858 0.85153 0.86953 0.0
O469 O 0.7035 0.80289 0.87306 0.0
O470 O 0.75376 0.81132 0.91472 0.0
O471 O 0.72043 0.75664 0.89138 0.0
H472 H 0.55923 0.70449 0.90157 0.0
H473 H 0.49198 0.66022 0.90951 0.0
H474 H 0.50247 0.57065 0.87381 0.0
H475 H 0.56945 0.61554 0.86525 0.0
H476 H 0.82575 0.94249 0.87678 0.0
H477 H 0.86365 1.00955 0.86689 0.0
H478 H 0.81098 0.03626 0.92736 0.0
H479 H 0.77367 0.96882 0.93779 0.0
C480 C 1.01705 0.21094 0.14675 0.0
C481 C 1.01656 0.24499 0.14391 0.0
C482 C 0.05082 0.20988 0.1449 0.0
C483 C 0.0853 0.24379 0.14006 0.0
C484 C 0.08546 0.27875 0.13871 0.0
C485 C 0.05097 0.27897 0.14069 0.0
C486 C 0.04912 0.17195 0.14663 0.0
C487 C 0.12165 0.31555 0.13375 0.0
C488 C 0.17227 0.2328 0.14832 0.0
C489 C 0.17772 0.22362 0.12402 0.0
C490 C 0.14385 0.24187 0.15363 0.0
C491 C 0.11999 0.24143 0.13426 0.0
C492 C 0.12643 0.23386 0.10955 0.0
C493 C 0.15522 0.22522 0.10474 0.0
C494 C 0.13818 0.25012 0.18018 0.0
C495 C 0.1017 0.23308 0.0883 0.0
H496 H 0.99052 0.1846 0.14946 0.0
H497 H 0.05068 0.30529 0.13827 0.0
H498 H 0.05624 0.16463 0.12827 0.0
H499 H 0.07029 0.17339 0.16025 0.0
H500 H 1.0206 0.14871 0.15226 0.0
H501 H 0.11826 0.34062 0.13723 0.0
H502 H 0.14509 0.31779 0.14555 0.0
H503 H 0.13011 0.31629 0.11404 0.0
H504 H 0.18928 0.23154 0.16342 0.0
H505 H 0.15975 0.21917 0.08581 0.0
H506 H 0.11167 0.22592 0.18765 0.0
H507 H 0.13503 0.27567 0.18104 0.0
H508 H 0.16213 0.25465 0.1924 0.0
H509 H 0.07235 0.20909 0.0909 0.0
H510 H 0.11224 0.22977 0.06993 0.0
H511 H 0.1002 0.25958 0.08806 0.0
C512 C 0.26099 1.00663 0.3705 0.0
C513 C 0.27665 0.02342 0.39349 0.0
C514 C 0.22506 0.9734 0.3693 0.0
C515 C 0.20475 0.95682 0.39161 0.0
C516 C 0.22201 0.97225 0.41485 0.0
C517 C 0.25765 1.00529 0.41547 0.0
C518 C 0.20774 0.95768 0.34418 0.0
C519 C 0.20173 0.95548 0.43912 0.0
C520 C 0.09746 0.90862 0.39558 0.0
C521 C 0.08707 0.87038 0.39865 0.0
C522 C 0.13546 0.93671 0.39177 0.0
C523 C 0.16397 0.92642 0.39104 0.0
C524 C 0.15347 0.88762 0.39283 0.0
C525 C 0.11512 0.86004 0.3966 0.0
C526 C 0.14528 0.9777 0.38986 0.0
C527 C 0.18291 0.87544 0.3921 0.0
H528 H 0.27552 0.0208 0.35349 0.0
H529 H 0.26992 1.0181 0.43329 0.0
H530 H 0.19429 0.92628 0.34398 0.0
H531 H 0.18519 0.96473 0.34026 0.0
H532 H 0.22913 0.96966 0.32902 0.0
H533 H 0.21991 0.96971 0.45556 0.0
H534 H 0.17601 0.95828 0.44038 0.0
H535 H 0.19229 0.92476 0.43994 0.0
H536 H 0.07585 0.91674 0.39665 0.0
H537 H 0.10737 0.83057 0.39904 0.0
H538 H 0.16339 0.9913 0.37332 0.0
H539 H 0.16173 0.99351 0.40653 0.0
H540 H 0.11963 0.98065 0.38851 0.0
H541 H 0.20303 0.88956 0.37651 0.0
H542 H 0.16987 0.84419 0.39003 0.0
H543 H 0.19963 0.88416 0.40961 0.0
C544 C 0.81248 0.95074 0.15482 0.0
C545 C 0.82689 0.96603 0.13119 0.0
C546 C 0.80329 0.91344 0.16107 0.0
C547 C 0.80882 0.89088 0.14335 0.0
C548 C 0.82238 0.9058 0.11928 0.0
C549 C 0.83108 0.94298 0.1135 0.0
C550 C 0.78894 0.89868 0.1869 0.0
C551 C 0.82897 0.88292 0.0998 0.0
C552 C 0.83267 0.81485 0.16037 0.0
C553 C 0.7994 0.78159 0.1536 0.0
C554 C 0.8351 0.85044 0.15899 0.0
C555 C 0.80358 0.85293 0.15026 0.0
C556 C 0.76891 0.81908 0.14518 0.0
C557 C 0.76717 0.78364 0.14701 0.0
C558 C 0.87255 0.88556 0.16479 0.0
C559 C 0.73464 0.82053 0.13594 0.0
H560 H 0.80938 0.96829 0.16873 0.0
H561 H 0.84138 0.95409 0.09504 0.0
H562 H 0.76309 0.87021 0.18594 0.0
H563 H 0.81076 0.89547 0.19727 0.0
H564 H 0.78225 0.91799 0.19758 0.0
H565 H 0.8361 0.8971 0.08132 0.0
H566 H 0.85267 0.87861 0.10574 0.0
H567 H 0.80344 0.85444 0.09777 0.0
H568 H 0.85771 0.81323 0.16521 0.0
H569 H 0.74168 0.758 0.14128 0.0
H570 H 0.8682 0.90534 0.17668 0.0
H571 H 0.88593 0.90069 0.14721 0.0
H572 H 0.89256 0.87864 0.17435 0.0
H573 H 0.72832 0.83829 0.14852 0.0
H574 H 0.7091 0.79181 0.1346 0.0
H575 H 0.74063 0.83395 0.11726 0.0
C576 C 0.1516 0.20566 0.43336 0.0
C577 C 0.1811 0.21497 0.41631 0.0
C578 C 0.12299 0.21455 0.42857 0.0
C579 C 0.1237 0.23323 0.40613 0.0
C580 C 0.15392 0.24367 0.38913 0.0
C581 C 0.18222 0.2344 0.3944 0.0
C582 C 0.09136 0.20292 0.44726 0.0
C583 C 0.15578 0.26368 0.36506 0.0
C584 C 1.02577 0.21146 0.38533 0.0
C585 C 1.02433 0.24317 0.39403 0.0
C586 C 0.0588 0.20902 0.38777 0.0
C587 C 0.09104 0.23873 0.39972 0.0
C588 C 0.09034 0.27174 0.40746 0.0
C589 C 0.05696 0.27369 0.40436 0.0
C590 C 0.05829 0.17349 0.37899 0.0
C591 C 0.12389 0.30385 0.42052 0.0
H592 H 0.15015 0.19027 0.45019 0.0
H593 H 0.20519 0.24224 0.38128 0.0
H594 H 0.0897 0.22815 0.45319 0.0
H595 H 0.06374 0.18269 0.43858 0.0
H596 H 0.09537 0.18936 0.46405 0.0
H597 H 0.18251 0.27238 0.35469 0.0
H598 H 0.13146 0.24461 0.35301 0.0
H599 H 0.15344 0.28927 0.3688 0.0
H600 H 1.0004 0.18777 0.37746 0.0
H601 H 0.05559 0.29787 0.41157 0.0
H602 H 0.05917 0.15721 0.39531 0.0
H603 H 0.08369 0.18092 0.36747 0.0
H604 H 0.03249 0.15481 0.36791 0.0
H605 H 0.12664 0.29452 0.43944 0.0
H606 H 0.12082 0.3294 0.42237 0.0
H607 H 0.15055 0.31176 0.41035 0.0
C608 C 0.22288 0.03678 0.15852 0.0
C609 C 0.25608 0.03505 0.15486 0.0
C610 C 0.18695 1.00416 0.15665 0.0
C611 C 0.18411 0.96892 0.15067 0.0
C612 C 0.21762 0.96652 0.14876 0.0
C613 C 0.25334 0.99969 0.15101 0.0
C614 C 0.15211 1.0081 0.15911 0.0
C615 C 0.21586 0.92959 0.14225 0.0
C616 C 0.08509 0.88189 0.15463 0.0
C617 C 0.07223 0.8787 0.12997 0.0
C618 C 0.12192 0.91019 0.16154 0.0
C619 C 0.14647 0.93615 0.14343 0.0
C620 C 0.13401 0.9325 0.11841 0.0
C621 C 0.09721 0.90385 0.11201 0.0
C622 C 0.13417 0.91301 0.18835 0.0
C623 C 0.15908 0.95972 0.09848 0.0
H624 H 0.22499 0.06417 0.16143 0.0
H625 H 0.27895 0.99838 0.14772 0.0
H626 H 0.13883 1.00473 0.14054 0.0
H627 H 0.1308 0.98555 0.17136 0.0
H628 H 0.15894 0.0362 0.16677 0.0
H629 H 0.24361 0.93105 0.14512 0.0
H630 H 0.19399 0.90595 0.15358 0.0
H631 H 0.20768 0.92277 0.1224 0.0
H632 H 0.06602 0.8629 0.16875 0.0
H633 H 0.08797 0.90124 0.09282 0.0
H634 H 0.13802 0.93972 0.19661 0.0
H635 H 0.16193 0.9141 0.18951 0.0
H636 H 0.11313 0.88874 0.19971 0.0
H637 H 0.1621 0.98805 0.10175 0.0
H638 H 0.14733 0.95011 0.07949 0.0
H639 H 0.1879 0.96329 0.09925 0.0
C640 C 0.84522 0.81867 0.37473 0.0
C641 C 0.81366 0.78612 0.38429 0.0
C642 C 0.84758 0.85427 0.37574 0.0
C643 C 0.81792 0.85758 0.387 0.0
C644 C 0.78503 0.82443 0.39552 0.0
C645 C 0.78317 0.78896 0.3939 0.0
C646 C 0.88294 0.88868 0.36613 0.0
C647 C 0.75293 0.8267 0.40788 0.0
C648 C 0.84835 0.95302 0.41758 0.0
C649 C 0.83727 0.97094 0.39986 0.0
C650 C 0.84141 0.91588 0.41384 0.0
C651 C 0.82307 0.89608 0.39177 0.0
C652 C 0.8115 0.91384 0.3739 0.0
C653 C 0.81867 0.951 0.37816 0.0
C654 C 0.85391 0.89788 0.4335 0.0
C655 C 0.79206 0.89381 0.35009 0.0
H656 H 0.86888 0.81652 0.36734 0.0
H657 H 0.75905 0.76397 0.40174 0.0
H658 H 0.87534 0.90579 0.35383 0.0
H659 H 0.89937 0.90702 0.38202 0.0
H660 H 0.90153 0.88084 0.35562 0.0
H661 H 0.72739 0.79821 0.41031 0.0
H662 H 0.76227 0.83998 0.4265 0.0
H663 H 0.745 0.84477 0.39687 0.0
H664 H 0.86209 0.96791 0.43459 0.0
H665 H 0.81025 0.96472 0.36428 0.0
H666 H 0.87462 0.89064 0.42548 0.0
H667 H 0.82917 0.87102 0.44005 0.0
H668 H 0.86721 0.91678 0.44981 0.0
H669 H 0.81138 0.88771 0.339 0.0
H670 H 0.78346 0.9109 0.33853 0.0
H671 H 0.76647 0.86615 0.35439 0.0
C672 C 0.23624 0.02222 0.65099 0.0
C673 C 0.26983 0.02181 0.6461 0.0
C674 C 0.23497 0.05597 0.64986 0.0
C675 C 0.26804 0.09026 0.64322 0.0
C676 C 0.3027 0.09041 0.63968 0.0
C677 C 0.30324 0.05605 0.64129 0.0
C678 C 0.19744 0.05432 0.65399 0.0
C679 C 0.33852 0.12627 0.63249 0.0
C680 C 0.24442 0.15671 0.608 0.0
C681 C 0.24547 0.18105 0.62691 0.0
C682 C 0.25363 0.12836 0.61282 0.0
C683 C 0.26467 0.12431 0.63714 0.0
C684 C 0.26799 0.15018 0.65598 0.0
C685 C 0.25825 0.17817 0.65068 0.0
C686 C 0.24959 0.10144 0.59213 0.0
C687 C 0.2799 0.14703 0.68208 0.0
H688 H 0.21037 0.9956 0.6546 0.0
H689 H 0.32905 0.05558 0.63707 0.0
H690 H 0.20091 0.07692 0.66709 0.0
H691 H 0.18701 0.05928 0.63608 0.0
H692 H 0.17549 0.02642 0.66152 0.0
H693 H 0.36397 0.12301 0.63399 0.0
H694 H 0.3361 0.13374 0.61297 0.0
H695 H 0.34266 0.15033 0.64441 0.0
H696 H 0.23552 0.15927 0.58942 0.0
H697 H 0.25908 0.19671 0.66545 0.0
H698 H 0.2256 0.07264 0.59631 0.0
H699 H 0.27557 0.09922 0.59077 0.0
H700 H 0.2443 0.11055 0.57378 0.0
H701 H 0.25676 0.12143 0.69122 0.0
H702 H 0.28629 0.17224 0.69358 0.0
H703 H 0.30532 0.14365 0.68168 0.0
C704 C 0.96296 0.8281 0.8963 0.0
C705 C 0.97345 0.80748 0.91218 0.0
C706 C 0.92468 0.81778 0.89309 0.0
C707 C 0.89596 0.78592 0.90599 0.0
C708 C 0.90617 0.76371 0.92093 0.0
C709 C 0.94474 0.77482 0.92392 0.0
C710 C 0.91524 0.8426 0.8772 0.0
C711 C 0.87651 0.72927 0.93474 0.0
C712 C 0.81192 0.79647 0.92466 0.0
C713 C 0.78534 0.77661 0.90579 0.0
C714 C 0.84728 0.7985 0.92531 0.0
C715 C 0.85649 0.77969 0.90682 0.0
C716 C 0.82898 0.75756 0.88855 0.0
C717 C 0.79364 0.75633 0.88819 0.0
C718 C 0.87545 0.82228 0.94526 0.0
C719 C 0.83748 0.73655 0.86878 0.0
H720 H 0.98482 0.85355 0.88731 0.0
H721 H 0.95247 0.75826 0.93587 0.0
H722 H 0.89189 0.82502 0.86409 0.0
H723 H 0.90532 0.85801 0.88931 0.0
H724 H 0.9401 0.8638 0.86635 0.0
H725 H 0.88819 0.7118 0.94236 0.0
H726 H 0.8653 0.73845 0.95045 0.0
H727 H 0.85225 0.71128 0.92233 0.0
H728 H 0.80563 0.81171 0.93865 0.0
H729 H 0.77331 0.7409 0.87358 0.0
H730 H 0.90202 0.84472 0.9366 0.0
H731 H 0.8829 0.80426 0.95672 0.0
H732 H 0.86431 0.83619 0.95775 0.0
H733 H 0.85869 0.75725 0.85557 0.0
H734 H 0.81168 0.71661 0.85814 0.0
H735 H 0.84998 0.72039 0.87726 0.0
C736 C 0.89595 0.10718 0.60583 0.0
C737 C 0.87639 0.08049 0.62471 0.0
C738 C 0.92481 0.1443 0.61145 0.0
C739 C 0.93404 0.15556 0.63663 0.0
C740 C 0.9122 0.12992 0.65577 0.0
C741 C 0.88392 0.09265 0.64962 0.0
C742 C 0.94739 0.17045 0.59037 0.0
C743 C 0.92035 0.141 0.68283 0.0
C744 C 0.03886 0.22383 0.64709 0.0
C745 C 0.04103 0.25941 0.64694 0.0
C746 C 1.00411 0.18999 0.64478 0.0
C747 C 0.97014 0.19135 0.64265 0.0
C748 C 0.97169 0.22695 0.64426 0.0
C749 C 1.0072 0.26068 0.64626 0.0
C750 C 1.00413 0.15289 0.64311 0.0
C751 C 0.93608 0.22959 0.64261 0.0
H752 H 0.88971 0.09865 0.58651 0.0
H753 H 0.86921 0.07252 0.66446 0.0
H754 H 0.95093 0.19907 0.5931 0.0
H755 H 0.97616 0.17374 0.59009 0.0
H756 H 0.93386 0.1594 0.57197 0.0
H757 H 0.89673 0.12107 0.69508 0.0
H758 H 0.94648 0.14086 0.68856 0.0
H759 H 0.92537 0.17016 0.68581 0.0
H760 H 0.06473 0.22239 0.64797 0.0
H761 H 1.00854 0.28798 0.64606 0.0
H762 H 0.9939 0.14005 0.62446 0.0
H763 H 0.98451 0.13246 0.6571 0.0
H764 H 0.0328 0.15657 0.64612 0.0
H765 H 0.92589 0.2249 0.62307 0.0
H766 H 0.94107 0.25785 0.64867 0.0
H767 H 0.91318 0.2073 0.65419 0.0
C768 C 0.25812 0.17472 0.90051 0.0
C769 C 0.21971 0.16342 0.90403 0.0
C770 C 0.26958 0.14781 0.89616 0.0
C771 C 0.24196 0.10872 0.89521 0.0
C772 C 0.20301 0.09738 0.89757 0.0
C773 C 0.19241 0.12482 0.90202 0.0
C774 C 0.31135 0.16107 0.89384 0.0
C775 C 0.17256 0.05603 0.89654 0.0
C776 C 0.25998 0.03027 0.87252 0.0
C777 C 0.2612 1.01397 0.89521 0.0
C778 C 0.25603 0.06281 0.87205 0.0
C779 C 0.2535 0.07919 0.89478 0.0
C780 C 0.25776 0.06435 0.91763 0.0
C781 C 0.26141 0.03191 0.91753 0.0
C782 C 0.25173 0.07786 0.84733 0.0
C783 C 0.25567 0.08102 0.94231 0.0
H784 H 0.27941 0.2045 0.90216 0.0
H785 H 0.16264 0.11597 0.90429 0.0
H786 H 0.32108 0.15276 0.91077 0.0
H787 H 0.31659 0.14729 0.87771 0.0
H788 H 0.32873 0.19238 0.89165 0.0
H789 H 0.14354 0.05218 0.89647 0.0
H790 H 0.17606 0.0424 0.87964 0.0
H791 H 0.17524 0.04089 0.91293 0.0
H792 H 0.2594 1.01614 0.85527 0.0
H793 H 0.26257 1.01936 0.93509 0.0
H794 H 0.26898 0.1093 0.84684 0.0
H795 H 0.22162 0.07 0.84468 0.0
H796 H 0.26024 0.0661 0.83154 0.0
H797 H 0.26222 0.06785 0.95823 0.0
H798 H 0.22671 0.07663 0.945 0.0
H799 H 0.27578 0.11206 0.94259 0.0
C800 C 0.96255 0.78946 0.64229 0.0
C801 C 0.98393 0.81512 0.62333 0.0
C802 C 0.92453 0.7795 0.64667 0.0
C803 C 0.90746 0.79569 0.63183 0.0
C804 C 0.92854 0.82067 0.6122 0.0
C805 C 0.96635 0.83004 0.60822 0.0
C806 C 0.90302 0.75265 0.66768 0.0
C807 C 0.9116 0.83867 0.5959 0.0
C808 C 0.80119 0.75987 0.62843 0.0
C809 C 0.79872 0.78747 0.64258 0.0
C810 C 0.83605 0.76066 0.62586 0.0
C811 C 0.86892 0.78952 0.63793 0.0
C812 C 0.86565 0.8157 0.65367 0.0
C813 C 0.83071 0.8146 0.65554 0.0
C814 C 0.83828 0.73244 0.60873 0.0
C815 C 0.89971 0.8468 0.66702 0.0
H816 H 0.97567 0.7774 0.65389 0.0
H817 H 0.98263 0.85034 0.59379 0.0
H818 H 0.89717 0.76813 0.68243 0.0
H819 H 0.87521 0.7295 0.66094 0.0
H820 H 0.91902 0.73987 0.67607 0.0
H821 H 0.93108 0.85608 0.58071 0.0
H822 H 0.88479 0.81635 0.58747 0.0
H823 H 0.90465 0.8571 0.60732 0.0
H824 H 0.77665 0.73952 0.61787 0.0
H825 H 0.82884 0.83628 0.66618 0.0
H826 H 0.8546 0.72041 0.61758 0.0
H827 H 0.85344 0.74707 0.59143 0.0
H828 H 0.80969 0.70884 0.60355 0.0
H829 H 0.91546 0.83498 0.67689 0.0
H830 H 0.89161 0.86196 0.68072 0.0
H831 H 0.91936 0.86775 0.65325 0.0
C832 C 0.03354 0.21471 0.88362 0.0
C833 C 0.03507 0.24994 0.88358 0.0
C834 C 0.99885 0.18057 0.88274 0.0
C835 C 0.96454 0.18146 0.88187 0.0
C836 C 0.96588 0.21695 0.88031 0.0
C837 C 1.00125 0.2509 0.88114 0.0
C838 C 0.99897 0.14352 0.88424 0.0
C839 C 0.92998 0.21914 0.87924 0.0
C840 C 0.87923 0.08447 0.86808 0.0
C841 C 0.86768 0.06981 0.89221 0.0
C842 C 0.90905 0.12187 0.86427 0.0
C843 C 0.92781 0.14521 0.88505 0.0
C844 C 0.91453 0.13144 0.90935 0.0
C845 C 0.88479 0.09399 0.91263 0.0
C846 C 0.92195 0.13555 0.83805 0.0
C847 C 0.93356 0.15531 0.93205 0.0
H848 H 0.05964 0.21378 0.88525 0.0
H849 H 1.00224 0.27804 0.88128 0.0
H850 H 0.98631 0.12924 0.90217 0.0
H851 H 0.98143 0.12414 0.86908 0.0
H852 H 1.02806 0.14766 0.88292 0.0
H853 H 0.93572 0.24795 0.87394 0.0
H854 H 0.90957 0.1982 0.86576 0.0
H855 H 0.91618 0.21208 0.8978 0.0
H856 H 0.86572 0.06631 0.85214 0.0
H857 H 0.87649 0.08304 0.93136 0.0
H858 H 0.94932 0.13659 0.83451 0.0
H859 H 0.92682 0.16474 0.8355 0.0
H860 H 0.90102 0.11659 0.82397 0.0
H861 H 0.9622 0.15864 0.93419 0.0
H862 H 0.91719 0.14239 0.94936 0.0
H863 H 0.93727 0.1841 0.92987 0.0
C864 C 0.38141 0.16296 0.32162 0.0
C865 C 0.34585 0.15132 0.33229 0.0
C866 C 0.38626 0.16596 0.29561 0.0
C867 C 0.35446 0.1557 0.27998 0.0
C868 C 0.31821 0.14247 0.2908 0.0
C869 C 0.31452 0.14122 0.31683 0.0
C870 C 0.42558 0.18148 0.28493 0.0
C871 C 0.28331 0.12996 0.27489 0.0
C872 C 0.36142 0.19513 0.21482 0.0
C873 C 0.35829 0.16545 0.19994 0.0
C874 C 0.3627 0.19333 0.2409 0.0
C875 C 0.359 0.16026 0.25239 0.0
C876 C 0.35666 0.13051 0.23735 0.0
C877 C 0.35714 0.13384 0.21125 0.0
C878 C 0.36678 0.22635 0.25615 0.0
C879 C 0.35136 0.09424 0.24875 0.0
H880 H 0.4057 0.17121 0.33366 0.0
H881 H 0.28698 0.13199 0.32514 0.0
H882 H 0.42589 0.16152 0.271 0.0
H883 H 0.43403 0.20859 0.27511 0.0
H884 H 0.44704 0.18675 0.29951 0.0
H885 H 0.25684 0.1171 0.28611 0.0
H886 H 0.28553 0.15466 0.26463 0.0
H887 H 0.28108 0.10892 0.26085 0.0
H888 H 0.36251 0.21967 0.20603 0.0
H889 H 0.35446 0.11076 0.19975 0.0
H890 H 0.38895 0.23418 0.27063 0.0
H891 H 0.33969 0.21814 0.26584 0.0
H892 H 0.37432 0.25173 0.24449 0.0
H893 H 0.37339 0.10053 0.26305 0.0
H894 H 0.35251 0.0749 0.23461 0.0
H895 H 0.3234 0.07918 0.25824 0.0
C896 C 0.81351 0.68367 0.3215 0.0
C897 C 0.84389 0.68183 0.33228 0.0
C898 C 0.80934 0.68301 0.29544 0.0
C899 C 0.83544 0.67906 0.28001 0.0
C900 C 0.86438 0.67424 0.29108 0.0
C901 C 0.86877 0.67657 0.31706 0.0
C902 C 0.77886 0.68945 0.28448 0.0
C903 C 0.89197 0.66856 0.27545 0.0
C904 C 0.81683 0.65929 0.2104 0.0
C905 C 0.84243 0.69487 0.20037 0.0
C906 C 0.81369 0.65358 0.23637 0.0
C907 C 0.83568 0.68458 0.25251 0.0
C908 C 0.86015 0.72097 0.24228 0.0
C909 C 0.86379 0.72545 0.21635 0.0
C910 C 0.78826 0.61414 0.24645 0.0
C911 C 0.88313 0.75512 0.25871 0.0
H912 H 0.79455 0.6882 0.33333 0.0
H913 H 0.8922 0.67502 0.32548 0.0
H914 H 0.79226 0.71814 0.27595 0.0
H915 H 0.76326 0.66859 0.26952 0.0
H916 H 0.75821 0.68747 0.29876 0.0
H917 H 0.9089 0.65955 0.28684 0.0
H918 H 0.87664 0.64688 0.26084 0.0
H919 H 0.91183 0.69553 0.26593 0.0
H920 H 0.80052 0.63562 0.19794 0.0
H921 H 0.88331 0.75307 0.20853 0.0
H922 H 0.76901 0.6145 0.26091 0.0
H923 H 0.8059 0.60373 0.25546 0.0
H924 H 0.77088 0.59377 0.23162 0.0
H925 H 0.8646 0.75751 0.27288 0.0
H926 H 0.89753 0.782 0.24789 0.0
H927 H 0.90507 0.75176 0.26879 0.0
C928 C 0.86525 0.18105 0.21885 0.0
C929 C 0.8878 0.21017 0.20217 0.0
C930 C 0.86763 0.18762 0.24459 0.0
C931 C 0.89374 0.22412 0.25397 0.0
C932 C 0.91548 0.25411 0.2371 0.0
C933 C 0.91211 0.2468 0.21132 0.0
C934 C 0.84353 0.15491 0.2618 0.0
C935 C 0.94383 0.29332 0.24629 0.0
C936 C 0.88311 0.2373 0.32323 0.0
C937 C 0.90692 0.22518 0.33351 0.0
C938 C 0.87978 0.23906 0.29719 0.0
C939 C 0.90127 0.22908 0.2813 0.0
C940 C 0.92727 0.21944 0.29181 0.0
C941 C 0.92948 0.21727 0.31773 0.0
C942 C 0.85164 0.24929 0.28675 0.0
C943 C 0.95129 0.20929 0.27567 0.0
H944 H 0.84622 0.15276 0.21178 0.0
H945 H 0.92975 0.26929 0.19843 0.0
H946 H 0.86191 0.14678 0.27227 0.0
H947 H 0.82893 0.16343 0.27562 0.0
H948 H 0.82183 0.12957 0.25155 0.0
H949 H 0.95417 0.31463 0.23104 0.0
H950 H 0.93121 0.30255 0.26109 0.0
H951 H 0.96856 0.29277 0.25454 0.0
H952 H 0.86564 0.24343 0.33544 0.0
H953 H 0.94827 0.20834 0.3257 0.0
H954 H 0.82698 0.22346 0.27893 0.0
H955 H 0.86452 0.27008 0.27135 0.0
H956 H 0.84115 0.26135 0.30119 0.0
H957 H 0.93285 0.18186 0.26615 0.0
H958 H 0.97299 0.20659 0.28663 0.0
H959 H 0.9659 0.23113 0.26105 0.0
C960 C 0.20824 0.36447 0.71843 0.0
C961 C 0.1778 0.35913 0.70347 0.0
C962 C 0.2065 0.36643 0.74446 0.0
C963 C 0.17274 0.36106 0.75584 0.0
C964 C 0.14235 0.35695 0.74067 0.0
C965 C 0.14556 0.35677 0.71457 0.0
C966 C 0.24015 0.37235 0.7598 0.0
C967 C 0.10539 0.34983 0.75194 0.0
C968 C 0.15618 0.31382 0.81916 0.0
C969 C 0.16501 0.34401 0.83541 0.0
C970 C 0.15662 0.31867 0.79328 0.0
C971 C 0.16785 0.35508 0.78334 0.0
C972 C 0.17652 0.38569 0.79977 0.0
C973 C 0.17424 0.37958 0.8257 0.0
C974 C 0.14576 0.28487 0.77658 0.0
C975 C 0.1899 0.42519 0.79001 0.0
H976 H 0.23322 0.36642 0.70976 0.0
H977 H 0.12183 0.35217 0.70293 0.0
H978 H 0.24637 0.39369 0.77462 0.0
H979 H 0.23358 0.34534 0.76903 0.0
H980 H 0.266 0.38194 0.74824 0.0
H981 H 0.08633 0.35164 0.73788 0.0
H982 H 0.09057 0.32102 0.76034 0.0
H983 H 0.11056 0.37042 0.76706 0.0
H984 H 0.14868 0.28622 0.82674 0.0
H985 H 0.18129 0.40295 0.83837 0.0
H986 H 0.17112 0.28873 0.76635 0.0
H987 H 0.12462 0.2824 0.76253 0.0
H988 H 0.13366 0.25784 0.7872 0.0
H989 H 0.21785 0.43606 0.78078 0.0
H990 H 0.19289 0.44526 0.80505 0.0
H991 H 0.16993 0.42477 0.77578 0.0
C992 C 0.23949 0.88171 0.82338 0.0
C993 C 0.20953 0.88534 0.83307 0.0
C994 C 0.24395 0.87999 0.79753 0.0
C995 C 0.21834 0.88298 0.78105 0.0
C996 C 0.18831 0.88716 0.79085 0.0
C997 C 0.18396 0.88773 0.81675 0.0
C998 C 0.27574 0.87455 0.78787 0.0
C999 C 0.16095 0.89142 0.77398 0.0
C1000 C 0.24805 0.91647 0.7145 0.0
C1001 C 0.22638 0.88287 0.70097 0.0
C1002 C 0.24634 0.91676 0.7406 0.0
C1003 C 0.22311 0.88243 0.75354 0.0
C1004 C 0.20262 0.84808 0.73999 0.0
C1005 C 0.20414 0.84879 0.71382 0.0
C1006 C 0.26808 0.95411 0.75423 0.0
C1007 C 0.1783 0.81074 0.75312 0.0
H1008 H 0.25889 0.87928 0.83602 0.0
H1009 H 0.16081 0.89063 0.82426 0.0
H1010 H 0.26389 0.84851 0.77627 0.0
H1011 H 0.29486 0.89877 0.77579 0.0
H1012 H 0.29282 0.87209 0.80315 0.0
H1013 H 0.13977 0.89543 0.78456 0.0
H1014 H 0.1768 0.91616 0.76145 0.0
H1015 H 0.1456 0.8659 0.76204 0.0
H1016 H 0.26526 0.94294 0.70464 0.0
H1017 H 0.18757 0.82274 0.7034 0.0
H1018 H 0.28648 0.95225 0.76874 0.0
H1019 H 0.24788 0.96067 0.76382 0.0
H1020 H 0.28606 0.97801 0.74152 0.0
H1021 H 0.19481 0.80669 0.76805 0.0
H1022 H 0.16727 0.78621 0.74015 0.0
H1023 H 0.15383 0.81088 0.7621 0.0
C1024 C 0.73251 0.85688 0.71758 0.0
C1025 C 0.70653 0.83162 0.70015 0.0
C1026 C 0.72649 0.85011 0.7432 0.0
C1027 C 0.6931 0.81765 0.75175 0.0
C1028 C 0.66658 0.79197 0.73422 0.0
C1029 C 0.67382 0.79909 0.70853 0.0
C1030 C 0.75592 0.87792 0.76113 0.0
C1031 C 0.63029 0.75753 0.74259 0.0
C1032 C 0.7004 0.79288 0.819 0.0
C1033 C 0.68734 0.81424 0.83169 0.0
C1034 C 0.70037 0.79175 0.79282 0.0
C1035 C 0.68615 0.81177 0.77911 0.0
C1036 C 0.67018 0.83085 0.79198 0.0
C1037 C 0.67142 0.83225 0.81811 0.0
C1038 C 0.71815 0.77153 0.77991 0.0
C1039 C 0.6539 0.8518 0.77815 0.0
H1040 H 0.75798 0.88195 0.71116 0.0
H1041 H 0.65356 0.77974 0.69506 0.0
H1042 H 0.74339 0.89145 0.77271 0.0
H1043 H 0.76534 0.86281 0.77392 0.0
H1044 H 0.78122 0.90065 0.75142 0.0
H1045 H 0.61343 0.73947 0.72669 0.0
H1046 H 0.63664 0.74013 0.7555 0.0
H1047 H 0.61269 0.7667 0.75298 0.0
H1048 H 0.71269 0.77886 0.82948 0.0
H1049 H 0.66088 0.84842 0.82791 0.0
H1050 H 0.74564 0.79284 0.77159 0.0
H1051 H 0.69977 0.75354 0.76452 0.0
H1052 H 0.72346 0.75345 0.79292 0.0
H1053 H 0.67731 0.87797 0.76972 0.0
H1054 H 0.63744 0.86004 0.79061 0.0
H1055 H 0.63517 0.83407 0.7628 0.0
C1056 C 0.30335 0.95956 0.98458 0.0
C1057 C 0.27277 0.94724 0.96808 0.0
C1058 C 0.30768 0.98309 1.00488 0.0
C1059 C 0.28157 0.99614 1.00832 0.0
C1060 C 0.24987 0.98291 0.9921 0.0
C1061 C 0.24535 0.95782 0.97249 0.0
C1062 C 0.34097 0.99487 0.02223 0.0
C1063 C 0.22142 0.99616 0.99481 0.0
C1064 C 0.28617 0.03222 0.0739 0.0
C1065 C 0.31543 0.07018 0.07189 0.0
C1066 C 0.27259 1.00835 0.05304 0.0
C1067 C 0.28788 0.02302 0.02929 0.0
C1068 C 0.31426 0.06253 0.02677 0.0
C1069 C 0.32807 0.08571 0.0482 0.0
C1070 C 0.24434 0.96671 0.05681 0.0
C1071 C 0.33044 0.07969 1.00172 0.0
H1072 H 0.32483 0.95176 0.98105 0.0
H1073 H 0.22178 0.94864 0.95973 0.0
H1074 H 0.3606 0.02594 0.0208 0.0
H1075 H 0.33098 0.98854 0.0418 0.0
H1076 H 0.35712 0.98017 0.01797 0.0
H1077 H 0.20491 0.99171 0.97741 0.0
H1078 H 0.2012 0.97986 1.00991 0.0
H1079 H 0.23563 0.02671 0.99983 0.0
H1080 H 0.27594 1.02026 0.09224 0.0
H1081 H 0.35075 0.11494 0.04651 0.0
H1082 H 0.25517 0.94892 0.04858 0.0
H1083 H 0.21738 0.95937 0.04724 0.0
H1084 H 0.23819 0.95913 0.0768 0.0
H1085 H 0.35407 0.07452 0.99715 0.0
H1086 H 0.34177 0.11086 1.00168 0.0
H1087 H 0.30869 0.0665 0.98688 0.0
C1088 C 0.7983 0.74036 0.4669 0.0
C1089 C 0.78999 0.70247 0.46889 0.0
C1090 C 0.78568 0.75672 0.48487 0.0
C1091 C 0.76504 0.73511 0.50582 0.0
C1092 C 0.7583 0.69751 0.50861 0.0
C1093 C 0.7704 0.6815 0.48998 0.0
C1094 C 0.79306 0.7966 0.48082 0.0
C1095 C 0.73737 0.6738 0.53098 0.0
C1096 C 0.75702 0.78592 0.56325 0.0
C1097 C 0.71926 0.77811 0.56183 0.0
C1098 C 0.77235 0.77248 0.54511 0.0
C1099 C 0.74984 0.7515 0.52455 0.0
C1100 C 0.71239 0.74531 0.52227 0.0
C1101 C 0.69741 0.75829 0.54107 0.0
C1102 C 0.81206 0.77922 0.54868 0.0
C1103 C 0.68769 0.72392 0.50035 0.0
H1104 H 0.81309 0.75682 0.45058 0.0
H1105 H 0.76376 0.65223 0.49162 0.0
H1106 H 0.76568 0.79606 0.47857 0.0
H1107 H 0.80756 0.81456 0.49726 0.0
H1108 H 0.81074 0.8101 0.46406 0.0
H1109 H 0.73652 0.64607 0.53122 0.0
H1110 H 0.75109 0.68937 0.54837 0.0
H1111 H 0.7078 0.66839 0.531 0.0
H1112 H 0.77419 0.80096 0.57927 0.0
H1113 H 0.66824 0.75202 0.53984 0.0
H1114 H 0.82932 0.79204 0.53171 0.0
H1115 H 0.81089 0.75169 0.55187 0.0
H1116 H 0.82663 0.79812 0.56476 0.0
H1117 H 0.70283 0.73669 0.48267 0.0
H1118 H 0.66036 0.72388 0.50033 0.0
H1119 H 0.68148 0.69407 0.50076 0.0
C1120 C 0.04624 0.27898 0.96457 0.0
C1121 C 0.08166 0.31225 0.96636 0.0
C1122 C 1.02233 0.26385 0.98534 0.0
C1123 C 0.03372 0.28293 1.00848 0.0
C1124 C 0.07114 0.31435 1.01096 0.0
C1125 C 0.09478 0.3287 0.9898 0.0
C1126 C 0.98334 0.2299 0.98153 0.0
C1127 C 0.08483 0.33516 0.03537 0.0
C1128 C 0.95858 0.28985 0.04654 0.0
C1129 C 0.95152 0.26434 0.06606 0.0
C1130 C 0.98433 0.29513 0.02747 0.0
C1131 C 1.00447 0.27504 0.02812 0.0
C1132 C 0.99644 0.24807 0.04733 0.0
C1133 C 0.9697 0.24273 0.06597 0.0
C1134 C 0.991 0.32341 1.00707 0.0
C1135 C 1.01708 0.22596 0.04868 0.0
H1136 H 0.03591 0.26626 0.9464 0.0
H1137 H 0.12191 0.35473 0.9912 0.0
H1138 H 0.97181 0.21307 0.99881 0.0
H1139 H 0.96368 0.23979 0.97535 0.0
H1140 H 0.98403 0.2111 0.96684 0.0
H1141 H 0.11611 0.35433 0.03553 0.0
H1142 H 0.07115 0.35253 0.03857 0.0
H1143 H 0.0768 0.31482 0.05106 0.0
H1144 H 0.94492 0.30692 0.04672 0.0
H1145 H 0.96485 0.22342 0.08121 0.0
H1146 H 0.98595 0.30946 0.98861 0.0
H1147 H 1.02095 0.34681 1.00753 0.0
H1148 H 0.97225 0.33586 1.00886 0.0
H1149 H 1.01223 0.20936 0.03131 0.0
H1150 H 1.00782 0.20621 0.06481 0.0
H1151 H 0.04809 0.24581 0.05019 0.0
C1152 C 0.37495 0.07735 0.48098 0.0
C1153 C 0.35665 0.09133 0.46585 0.0
C1154 C 0.35648 0.05347 0.50125 0.0
C1155 C 0.31805 0.0421 0.50625 0.0
C1156 C 0.29956 0.05693 0.49142 0.0
C1157 C 0.31937 0.08203 0.47163 0.0
C1158 C 0.37796 0.03957 0.51692 0.0
C1159 C 0.25853 0.04519 0.49584 0.0
C1160 C 0.27511 0.95221 0.5457 0.0
C1161 C 0.28223 0.96794 0.56961 0.0
C1162 C 0.28289 0.97564 0.52451 0.0
C1163 C 0.29845 1.01549 0.52749 0.0
C1164 C 0.30203 0.03051 0.55172 0.0
C1165 C 0.29365 1.00653 0.57236 0.0
C1166 C 0.27792 0.95826 0.49902 0.0
C1167 C 0.31843 0.07257 0.55601 0.0
H1168 H 0.40365 0.08419 0.47639 0.0
H1169 H 0.30492 0.09236 0.45982 0.0
H1170 H 0.37713 0.04651 0.53681 0.0
H1171 H 0.36435 1.00824 0.51543 0.0
H1172 H 0.40813 0.05233 0.51117 0.0
H1173 H 0.24681 0.05494 0.4807 0.0
H1174 H 0.24104 1.01382 0.49738 0.0
H1175 H 0.25585 0.05735 0.51368 0.0
H1176 H 0.26657 0.9225 0.54345 0.0
H1177 H 0.29898 1.01874 0.59087 0.0
H1178 H 0.30561 0.96241 0.49248 0.0
H1179 H 0.26826 0.97215 0.48539 0.0
H1180 H 0.25724 0.92729 0.49931 0.0
H1181 H 0.34745 0.08858 0.54806 0.0
H1182 H 0.32012 0.07972 0.5761 0.0
H1183 H 0.30081 0.08248 0.54644 0.0
C1184 C 0.78707 0.71123 0.048 0.0
C1185 C 0.78223 0.72098 0.07215 0.0
C1186 C 0.77766 0.72614 0.02714 0.0
C1187 C 0.76281 0.75089 0.03073 0.0
C1188 C 0.76178 0.76366 0.05505 0.0
C1189 C 0.77169 0.74871 0.07536 0.0
C1190 C 0.78009 0.7125 1.00147 0.0
C1191 C 0.74643 0.79005 0.05993 0.0
C1192 C 0.73788 0.79389 0.97525 0.0
C1193 C 0.69969 0.76642 0.97124 0.0
C1194 C 0.75911 0.78944 0.99446 0.0
C1195 C 0.74148 0.75719 1.01026 0.0
C1196 C 0.70237 0.73063 1.00704 0.0
C1197 C 0.68216 0.73552 0.98761 0.0
C1198 C 0.80066 0.81835 0.99723 0.0
C1199 C 0.68191 0.69634 0.02378 0.0
H1200 H 0.79494 0.68962 0.04543 0.0
H1201 H 0.76819 0.75649 0.09408 0.0
H1202 H 0.75122 0.69098 0.99517 0.0
H1203 H 0.79142 0.73629 0.98793 0.0
H1204 H 0.79836 0.69938 1.00122 0.0
H1205 H 0.74819 0.79779 0.0799 0.0
H1206 H 0.76232 0.81641 0.04884 0.0
H1207 H 0.71624 0.77629 0.0541 0.0
H1208 H 0.75165 0.8179 0.96274 0.0
H1209 H 0.65265 0.71421 0.98466 0.0
H1210 H 0.81786 0.8045 0.99401 0.0
H1211 H 0.80675 0.82981 1.01645 0.0
H1212 H 0.80997 0.84236 0.98396 0.0
H1213 H 0.69509 0.67824 0.02216 0.0
H1214 H 0.65128 0.67883 0.01913 0.0
H1215 H 0.68451 0.70546 0.04349 0.0
C1216 C 0.10694 0.3675 0.54638 0.0
C1217 C 0.10718 0.34545 0.56638 0.0
C1218 C 0.07904 0.35156 0.5276 0.0
C1219 C 0.05011 0.31287 0.52914 0.0
C1220 C 0.05092 0.29026 0.54892 0.0
C1221 C 0.07965 0.30664 0.56704 0.0
C1222 C 0.07998 0.37639 0.5064 0.0
C1223 C 1.02045 0.24914 0.55164 0.0
C1224 C 0.95751 0.28502 0.49456 0.0
C1225 C 0.96114 0.26718 0.47327 0.0
C1226 C 0.98566 0.29896 0.51327 0.0
C1227 C 1.01883 0.29613 0.51023 0.0
C1228 C 1.02231 0.27767 0.48891 0.0
C1229 C 0.9932 0.26281 0.47102 0.0
C1230 C 0.9803 0.31747 0.53605 0.0
C1231 C 0.05739 0.27469 0.48448 0.0
H1232 H 0.12801 0.39745 0.54575 0.0
H1233 H 0.07934 0.28929 0.58247 0.0
H1234 H 0.07924 0.36285 0.48831 0.0
H1235 H 0.05451 0.37963 0.50718 0.0
H1236 H 0.10567 0.40507 0.50694 0.0
H1237 H 1.02588 0.23512 0.56759 0.0
H1238 H 0.99253 0.24724 0.55445 0.0
H1239 H 1.01833 0.23316 0.53442 0.0
H1240 H 0.93298 0.28865 0.49638 0.0
H1241 H 0.99658 0.24935 0.45458 0.0
H1242 H 1.00243 0.34793 0.53657 0.0
H1243 H 0.98361 0.30406 0.55315 0.0
H1244 H 0.95197 0.31529 0.53642 0.0
H1245 H 0.08314 0.30326 0.48537 0.0
H1246 H 0.05677 0.26189 0.4661 0.0
H1247 H 0.06008 0.25711 0.49924 0.0
C1248 C 0.78459 0.24427 0.12881 0.0
C1249 C 0.79304 0.21608 0.1216 0.0
C1250 C 0.74681 0.23626 0.13104 0.0
C1251 C 0.71657 0.19909 0.12613 0.0
C1252 C 0.72488 0.17087 0.11807 0.0
C1253 C 0.76288 0.17971 0.11582 0.0
C1254 C 0.73928 0.26734 0.13937 0.0
C1255 C 0.69357 0.13088 0.1126 0.0
C1256 C 0.62001 0.16371 0.15677 0.0
C1257 C 0.5982 0.1649 0.13692 0.0
C1258 C 0.65872 0.17551 0.15366 0.0
C1259 C 0.67624 0.18919 0.13018 0.0
C1260 C 0.65467 0.19169 0.11033 0.0
C1261 C 0.61597 0.17942 0.11391 0.0
C1262 C 0.68058 0.17219 0.1753 0.0
C1263 C 0.67225 0.20652 0.08511 0.0
H1264 H 0.8075 0.2725 0.13331 0.0
H1265 H 0.76884 0.15759 0.1103 0.0
H1266 H 0.71958 0.26982 0.12623 0.0
H1267 H 0.72536 0.26014 0.15788 0.0
H1268 H 0.76574 0.29535 0.1407 0.0
H1269 H 0.70466 0.11257 0.10565 0.0
H1270 H 0.67686 0.1179 0.12975 0.0
H1271 H 0.67382 0.13124 0.0985 0.0
H1272 H 0.60647 0.15223 0.17453 0.0
H1273 H 0.59946 0.18094 0.09856 0.0
H1274 H 0.70639 0.19997 0.17895 0.0
H1275 H 0.69009 0.15166 0.17065 0.0
H1276 H 0.66336 0.16254 0.1926 0.0
H1277 H 0.69807 0.23486 0.08703 0.0
H1278 H 0.65232 0.2089 0.07208 0.0
H1279 H 0.68117 0.18726 0.07678 0.0
C1280 C 0.57176 0.43219 0.37661 0.0
C1281 C 0.59582 0.45348 0.39625 0.0
C1282 C 0.54464 0.39351 0.37956 0.0
C1283 C 0.54132 0.37545 0.40274 0.0
C1284 C 0.56552 0.39671 0.42265 0.0
C1285 C 0.59243 0.43537 0.41917 0.0
C1286 C 0.51955 0.37194 0.35781 0.0
C1287 C 0.56285 0.37865 0.44768 0.0
C1288 C 0.44745 0.28482 0.41548 0.0
C1289 C 0.45603 0.25637 0.4093 0.0
C1290 C 0.47509 0.32357 0.41398 0.0
C1291 C 0.51237 0.33437 0.40609 0.0
C1292 C 0.52154 0.30585 0.40051 0.0
C1293 C 0.49335 0.26731 0.40217 0.0
C1294 C 0.46409 0.35299 0.42019 0.0
C1295 C 0.56092 0.31603 0.39212 0.0
H1296 H 0.57445 0.44566 0.35873 0.0
H1297 H 0.61047 0.4516 0.43458 0.0
H1298 H 0.5235 0.3476 0.35302 0.0
H1299 H 0.48929 0.36015 0.36292 0.0
H1300 H 0.52565 0.39006 0.34102 0.0
H1301 H 0.58394 0.39892 0.4612 0.0
H1302 H 0.534 0.36761 0.45553 0.0
H1303 H 0.56745 0.35411 0.44554 0.0
H1304 H 0.41882 0.27691 0.42103 0.0
H1305 H 0.50047 0.24578 0.3973 0.0
H1306 H 0.46674 0.36996 0.40334 0.0
H1307 H 0.4836 0.37294 0.43445 0.0
H1308 H 0.43452 0.34004 0.42723 0.0
H1309 H 0.56744 0.33144 0.37412 0.0
H1310 H 0.56406 0.2906 0.38973 0.0
H1311 H 0.58231 0.33532 0.40582 0.0
C1312 C 0.87326 0.45468 0.11365 0.0
C1313 C 0.88622 0.45235 0.1375 0.0
C1314 C 0.86142 0.48109 0.10828 0.0
C1315 C 0.86269 0.50604 0.12713 0.0
C1316 C 0.87555 0.50374 0.15125 0.0
C1317 C 0.88702 0.47697 0.15614 0.0
C1318 C 0.84791 0.48253 0.08234 0.0
C1319 C 0.87738 0.52974 0.17194 0.0
C1320 C 0.86916 0.60048 0.11121 0.0
C1321 C 0.83229 0.59316 0.11654 0.0
C1322 C 0.87905 0.57207 0.11372 0.0
C1323 C 0.85144 0.5352 0.12166 0.0
C1324 C 0.8137 0.52706 0.12584 0.0
C1325 C 0.8046 0.55607 0.12328 0.0
C1326 C 0.91959 0.58206 0.109 0.0
C1327 C 0.78324 0.48808 0.13409 0.0
H1328 H 0.87293 0.43623 0.09898 0.0
H1329 H 0.89629 0.47508 0.17473 0.0
H1330 H 0.81895 0.47873 0.08308 0.0
H1331 H 0.86678 0.51078 0.07393 0.0
H1332 H 0.84737 0.46037 0.06998 0.0
H1333 H 0.8878 0.52424 0.1897 0.0
H1334 H 0.8965 0.55978 0.16653 0.0
H1335 H 0.84883 0.52615 0.17515 0.0
H1336 H 0.8909 0.62891 0.10598 0.0
H1337 H 0.776 0.5499 0.12744 0.0
H1338 H 0.92047 0.56139 0.09595 0.0
H1339 H 0.93277 0.58045 0.12671 0.0
H1340 H 0.93698 0.61108 0.10117 0.0
H1341 H 0.78242 0.46601 0.12154 0.0
H1342 H 0.75467 0.48533 0.1344 0.0
H1343 H 0.78986 0.48224 0.15306 0.0
C1344 C 0.62551 0.18592 0.41734 0.0
C1345 C 0.61011 0.17059 0.39389 0.0
C1346 C 0.66343 0.19722 0.42326 0.0
C1347 C 0.6866 0.19295 0.40538 0.0
C1348 C 0.67128 0.17757 0.3817 0.0
C1349 C 0.6334 0.16675 0.37623 0.0
C1350 C 0.67865 0.21355 0.44869 0.0
C1351 C 0.69494 0.17249 0.36207 0.0
C1352 C 0.79459 0.25029 0.40806 0.0
C1353 C 0.80367 0.22333 0.41698 0.0
C1354 C 0.75662 0.24133 0.40522 0.0
C1355 C 0.72687 0.20441 0.41128 0.0
C1356 C 0.73583 0.17763 0.42137 0.0
C1357 C 0.77405 0.18744 0.42417 0.0
C1358 C 0.74839 0.27089 0.39469 0.0
C1359 C 0.70504 0.13795 0.42805 0.0
H1360 H 0.60773 0.18857 0.43127 0.0
H1361 H 0.62213 0.15559 0.35793 0.0
H1362 H 0.68788 0.19555 0.45853 0.0
H1363 H 0.70395 0.24227 0.44682 0.0
H1364 H 0.65724 0.21566 0.46035 0.0
H1365 H 0.67874 0.15978 0.34467 0.0
H1366 H 0.7201 0.20034 0.35751 0.0
H1367 H 0.70554 0.15393 0.36928 0.0
H1368 H 0.81717 0.27816 0.40253 0.0
H1369 H 0.78064 0.16632 0.43102 0.0
H1370 H 0.72761 0.27362 0.40659 0.0
H1371 H 0.73549 0.26193 0.37593 0.0
H1372 H 0.77441 0.29919 0.39306 0.0
H1373 H 0.68371 0.13898 0.44037 0.0
H1374 H 0.71649 0.12151 0.43753 0.0
H1375 H 0.69004 0.12253 0.4109 0.0
C1376 C 0.45717 0.27482 0.10499 0.0
C1377 C 0.45849 0.24456 0.11662 0.0
C1378 C 0.48723 0.31246 0.10738 0.0
C1379 C 0.51942 0.32028 0.12193 0.0
C1380 C 0.52175 0.28972 0.13273 0.0
C1381 C 0.49142 0.25231 0.12987 0.0
C1382 C 0.48376 0.34406 0.0952 0.0
C1383 C 0.55542 0.29666 0.14843 0.0
C1384 C 0.60853 0.41802 0.11651 0.0
C1385 C 0.60423 0.43779 0.13657 0.0
C1386 C 0.58141 0.37983 0.11158 0.0
C1387 C 0.54928 0.36053 0.12722 0.0
C1388 C 0.54516 0.37997 0.1478 0.0
C1389 C 0.57242 0.41825 0.15211 0.0
C1390 C 0.58687 0.36028 0.0894 0.0
C1391 C 0.51153 0.36046 0.16511 0.0
H1392 H 0.43205 0.26931 0.09463 0.0
H1393 H 0.49291 0.22932 0.13901 0.0
H1394 H 0.4812 0.36203 0.10973 0.0
H1395 H 0.50963 0.36256 0.08421 0.0
H1396 H 0.45866 0.33312 0.08273 0.0
H1397 H 0.55459 0.26981 0.15366 0.0
H1398 H 0.58229 0.31504 0.13835 0.0
H1399 H 0.5559 0.31181 0.16573 0.0
H1400 H 0.6332 0.43239 0.10458 0.0
H1401 H 0.56822 0.43313 0.1674 0.0
H1402 H 0.56266 0.35099 0.07634 0.0
H1403 H 0.58731 0.33444 0.09548 0.0
H1404 H 0.61359 0.37901 0.0792 0.0
H1405 H 0.48492 0.35191 0.15465 0.0
H1406 H 0.51324 0.37895 0.18086 0.0
H1407 H 0.50961 0.33421 0.17277 0.0
C1408 C 0.8716 0.59706 0.42724 0.0
C1409 C 0.83778 0.59088 0.41601 0.0
C1410 C 0.88307 0.56967 0.42591 0.0
C1411 C 0.86022 0.53511 0.41306 0.0
C1412 C 0.82531 0.52803 0.40257 0.0
C1413 C 0.81453 0.55591 0.40416 0.0
C1414 C 0.92038 0.57836 0.43751 0.0
C1415 C 0.79995 0.49154 0.38883 0.0
C1416 C 0.90957 0.48449 0.38567 0.0
C1417 C 0.90099 0.45561 0.40316 0.0
C1418 C 0.89625 0.51023 0.38858 0.0
C1419 C 0.87379 0.50728 0.40955 0.0
C1420 C 0.86478 0.47808 0.4272 0.0
C1421 C 0.87839 0.45265 0.42379 0.0
C1422 C 0.90657 0.5409 0.3693 0.0
C1423 C 0.84085 0.47379 0.44976 0.0
H1424 H 0.88988 0.62387 0.43643 0.0
H1425 H 0.78831 0.55067 0.39543 0.0
H1426 H 0.91617 0.55502 0.45019 0.0
H1427 H 0.94036 0.58041 0.42273 0.0
H1428 H 0.9337 0.6054 0.44817 0.0
H1429 H 0.77252 0.48915 0.3833 0.0
H1430 H 0.81458 0.49005 0.37181 0.0
H1431 H 0.79404 0.46672 0.40057 0.0
H1432 H 0.92737 0.48748 0.36986 0.0
H1433 H 0.87102 0.43015 0.43724 0.0
H1434 H 0.92304 0.56927 0.37813 0.0
H1435 H 0.88044 0.53893 0.3614 0.0
H1436 H 0.92364 0.53898 0.35384 0.0
H1437 H 0.85482 0.50011 0.4611 0.0
H1438 H 0.83612 0.44947 0.46168 0.0
H1439 H 0.81288 0.46961 0.44386 0.0
C1440 C 0.19337 0.76491 0.61093 0.0
C1441 C 0.22882 0.79346 0.61972 0.0
C1442 C 0.18233 0.7262 0.61287 0.0
C1443 C 0.20722 0.71549 0.62393 0.0
C1444 C 0.24361 0.74417 0.63197 0.0
C1445 C 0.25396 0.7827 0.62975 0.0
C1446 C 0.14342 0.69669 0.60385 0.0
C1447 C 0.27111 0.73414 0.64381 0.0
C1448 C 0.16259 0.61754 0.65431 0.0
C1449 C 0.16862 0.59598 0.63636 0.0
C1450 C 0.17529 0.65636 0.65058 0.0
C1451 C 0.19438 0.67435 0.62825 0.0
C1452 C 0.20063 0.65287 0.61005 0.0
C1453 C 0.18781 0.61411 0.61433 0.0
C1454 C 0.168 0.67809 0.67053 0.0
C1455 C 0.22079 0.67082 0.58598 0.0
H1456 H 0.17364 0.77269 0.60311 0.0
H1457 H 0.2814 0.80434 0.63664 0.0
H1458 H 0.14566 0.67666 0.5909 0.0
H1459 H 0.12591 0.67984 0.61989 0.0
H1460 H 0.12841 0.70957 0.59422 0.0
H1461 H 0.29924 0.75961 0.64743 0.0
H1462 H 0.25934 0.71931 0.66173 0.0
H1463 H 0.27516 0.71438 0.63167 0.0
H1464 H 0.14733 0.60392 0.67122 0.0
H1465 H 0.19324 0.59808 0.60045 0.0
H1466 H 0.15011 0.68923 0.66293 0.0
H1467 H 0.1952 0.70288 0.67661 0.0
H1468 H 0.15355 0.66026 0.68706 0.0
H1469 H 0.20513 0.68244 0.57576 0.0
H1470 H 0.22351 0.65033 0.57371 0.0
H1471 H 0.24958 0.69495 0.58996 0.0
C1472 C 0.45812 0.85788 0.9165 0.0
C1473 C 0.45867 0.87684 0.89448 0.0
C1474 C 0.48554 0.84714 0.92111 0.0
C1475 C 0.5142 0.85527 0.90323 0.0
C1476 C 0.51501 0.87447 0.88102 0.0
C1477 C 0.48743 0.8851 0.87697 0.0
C1478 C 0.48368 0.82681 0.94505 0.0
C1479 C 0.54502 0.88372 0.86144 0.0
C1480 C 0.60644 0.85798 0.92086 0.0
C1481 C 0.60029 0.82302 0.91165 0.0
C1482 C 0.5783 0.86837 0.91894 0.0
C1483 C 0.5431 0.8433 0.90746 0.0
C1484 C 0.53624 0.80746 0.89891 0.0
C1485 C 0.5648 0.79776 0.90113 0.0
C1486 C 0.58672 0.90673 0.92849 0.0
C1487 C 0.49917 0.77982 0.88657 0.0
H1488 H 0.43585 0.85085 0.93004 0.0
H1489 H 0.48868 0.90032 0.86011 0.0
H1490 H 0.47941 0.79822 0.94086 0.0
H1491 H 0.51092 0.84264 0.9553 0.0
H1492 H 0.46032 0.82353 0.95738 0.0
H1493 H 0.54177 0.89877 0.84519 0.0
H1494 H 0.57365 0.90177 0.86957 0.0
H1495 H 0.54359 0.85721 0.85478 0.0
H1496 H 0.63364 0.87777 0.92905 0.0
H1497 H 0.55955 0.77065 0.89394 0.0
H1498 H 0.56393 0.90353 0.94131 0.0
H1499 H 0.58739 0.92464 0.91269 0.0
H1500 H 0.61433 0.92185 0.93843 0.0
H1501 H 0.47495 0.77452 0.8987 0.0
H1502 H 0.49732 0.7522 0.88233 0.0
H1503 H 0.49602 0.7922 0.86893 0.0
C1504 C 0.44458 0.55771 0.64874 0.0
C1505 C 0.46385 0.58849 0.63235 0.0
C1506 C 0.40564 0.53152 0.64586 0.0
C1507 C 0.38519 0.53581 0.62596 0.0
C1508 C 0.40441 0.56661 0.60924 0.0
C1509 C 0.44336 0.59258 0.61267 0.0
C1510 C 0.38634 0.49916 0.66416 0.0
C1511 C 0.38378 0.57224 0.58777 0.0
C1512 C 0.2925 0.44695 0.60795 0.0
C1513 C 0.26538 0.45232 0.62067 0.0
C1514 C 0.33138 0.47439 0.60883 0.0
C1515 C 0.34368 0.50808 0.62286 0.0
C1516 C 0.31635 0.51429 0.63499 0.0
C1517 C 0.27765 0.48647 0.63371 0.0
C1518 C 0.35945 0.46672 0.59541 0.0
C1519 C 0.32811 0.54973 0.65015 0.0
H1520 H 0.46006 0.55374 0.66375 0.0
H1521 H 0.45765 0.61644 0.60006 0.0
H1522 H 0.36248 0.50021 0.67337 0.0
H1523 H 0.37418 0.47162 0.6542 0.0
H1524 H 0.40609 0.49993 0.67874 0.0
H1525 H 0.40288 0.59715 0.57612 0.0
H1526 H 0.37065 0.54655 0.57581 0.0
H1527 H 0.36047 0.57631 0.5949 0.0
H1528 H 0.28352 0.4208 0.59777 0.0
H1529 H 0.25712 0.49107 0.64364 0.0
H1530 H 0.37805 0.46357 0.60916 0.0
H1531 H 0.37799 0.49105 0.58321 0.0
H1532 H 0.34524 0.44055 0.58389 0.0
H1533 H 0.34533 0.55023 0.66633 0.0
H1534 H 0.30334 0.55147 0.65715 0.0
H1535 H 0.34615 0.57538 0.63884 0.0
C1536 C 0.24576 0.77584 0.90351 0.0
C1537 C 0.21735 0.78434 0.90994 0.0
C1538 C 0.23758 0.73808 0.90087 0.0
C1539 C 0.20007 0.7079 0.90476 0.0
C1540 C 0.17152 0.71619 0.912 0.0
C1541 C 0.18047 0.75422 0.91449 0.0
C1542 C 0.26889 0.73051 0.8932 0.0
C1543 C 0.1312 0.68487 0.91645 0.0
C1544 C 0.16791 0.61277 0.87297 0.0
C1545 C 0.16969 0.59078 0.89251 0.0
C1546 C 0.17811 0.65096 0.87664 0.0
C1547 C 0.19038 0.66771 0.90045 0.0
C1548 C 0.19276 0.64586 0.92017 0.0
C1549 C 0.18243 0.60774 0.91596 0.0
C1550 C 0.17537 0.6733 0.85507 0.0
C1551 C 0.20555 0.66254 0.94584 0.0
H1552 H 0.27437 0.79873 0.89991 0.0
H1553 H 0.15823 0.76028 0.91945 0.0
H1554 H 0.27107 0.71099 0.90666 0.0
H1555 H 0.26218 0.71632 0.87476 0.0
H1556 H 0.29691 0.75698 0.89201 0.0
H1557 H 0.11273 0.69591 0.92314 0.0
H1558 H 0.11905 0.66888 0.89893 0.0
H1559 H 0.13067 0.66446 0.93038 0.0
H1560 H 0.15853 0.60009 0.85473 0.0
H1561 H 0.18336 0.59088 0.93129 0.0
H1562 H 0.20333 0.69905 0.85175 0.0
H1563 H 0.15495 0.68297 0.85957 0.0
H1564 H 0.16602 0.65639 0.83762 0.0
H1565 H 0.23398 0.68843 0.94485 0.0
H1566 H 0.20695 0.64218 0.95899 0.0
H1567 H 0.18568 0.67121 0.95346 0.0
C1568 C 0.47485 0.8733 0.61369 0.0
C1569 C 0.47028 0.88479 0.6375 0.0
C1570 C 0.50276 0.86321 0.60902 0.0
C1571 C 0.52682 0.86458 0.62858 0.0
C1572 C 0.52219 0.8759 0.65266 0.0
C1573 C 0.49406 0.88575 0.65681 0.0
C1574 C 0.50665 0.85126 0.58309 0.0
C1575 C 0.54699 0.87758 0.67412 0.0
C1576 C 0.57703 0.80668 0.62598 0.0
C1577 C 0.61454 0.83443 0.62017 0.0
C1578 C 0.54806 0.81585 0.62795 0.0
C1579 C 0.55657 0.85377 0.62412 0.0
C1580 C 0.59404 0.88167 0.6174 0.0
C1581 C 0.62251 0.87169 0.61547 0.0
C1582 C 0.50853 0.78509 0.63497 0.0
C1583 C 0.6044 0.92243 0.61312 0.0
H1584 H 0.45704 0.87287 0.59854 0.0
H1585 H 0.49048 0.89394 0.67537 0.0
H1586 H 0.53558 0.87067 0.57585 0.0
H1587 H 0.5029 0.82231 0.58353 0.0
H1588 H 0.4856 0.85136 0.56995 0.0
H1589 H 0.5401 0.88733 0.69165 0.0
H1590 H 0.54359 0.84909 0.67735 0.0
H1591 H 0.57727 0.89716 0.66957 0.0
H1592 H 0.57031 0.77774 0.62954 0.0
H1593 H 0.65129 0.89343 0.61103 0.0
H1594 H 0.48753 0.78427 0.62143 0.0
H1595 H 0.50099 0.7914 0.65351 0.0
H1596 H 0.5059 0.75657 0.63568 0.0
H1597 H 0.58491 0.92388 0.59928 0.0
H1598 H 0.63404 0.94019 0.60643 0.0
H1599 H 0.60116 0.93476 0.63074 0.0
C1600 C 0.43309 0.5853 0.91954 0.0
C1601 C 0.45026 0.58444 0.89702 0.0
C1602 C 0.39448 0.55944 0.92429 0.0
C1603 C 0.37232 0.53179 0.90619 0.0
C1604 C 0.38934 0.531 0.88336 0.0
C1605 C 0.4279 0.55729 0.87904 0.0
C1606 C 0.37752 0.56138 0.94885 0.0
C1607 C 0.36686 0.50208 0.8635 0.0
C1608 C 0.28438 0.43893 0.92475 0.0
C1609 C 0.25472 0.44448 0.9165 0.0
C1610 C 0.32261 0.46749 0.92224 0.0
C1611 C 0.33172 0.50276 0.91132 0.0
C1612 C 0.30195 0.50925 0.90401 0.0
C1613 C 0.2639 0.48008 0.90661 0.0
C1614 C 0.35334 0.45926 0.93033 0.0
C1615 C 0.31028 0.54653 0.89254 0.0
H1616 H 0.45002 0.60577 0.93372 0.0
H1617 H 0.44049 0.55671 0.8614 0.0
H1618 H 0.35205 0.5641 0.94563 0.0
H1619 H 0.36816 0.53469 0.95941 0.0
H1620 H 0.39796 0.58563 0.96049 0.0
H1621 H 0.38403 0.50555 0.84661 0.0
H1622 H 0.35603 0.47299 0.87094 0.0
H1623 H 0.34186 0.50451 0.85803 0.0
H1624 H 0.27787 0.41168 0.93243 0.0
H1625 H 0.24141 0.48486 0.90014 0.0
H1626 H 0.37358 0.48185 0.94303 0.0
H1627 H 0.36965 0.45911 0.91382 0.0
H1628 H 0.34167 0.43143 0.93993 0.0
H1629 H 0.33055 0.5706 0.90432 0.0
H1630 H 0.28419 0.54846 0.89001 0.0
H1631 H 0.32383 0.54984 0.87408 0.0
loop_
_geom_bond_atom_site_label_1
_geom_bond_atom_site_label_2
_geom_bond_distance
_geom_bond_site_symmetry_2
_ccdc_geom_bond_type
Nd0 C2 2.836 . S
Nd0 O20 2.500 . S
Nd0 O21 2.492 . S
Nd0 O22 2.487 . S
Nd0 O23 2.682 . S
Nd0 O24 2.410 . S
Nd0 O29 2.414 . S
Nd0 O31 2.424 . S
Nd1 C11 2.836 . S
Nd1 O23 2.414 . S
Nd1 O25 2.424 . S
Nd1 O26 2.500 . S
Nd1 O27 2.492 . S
Nd1 O28 2.487 . S
Nd1 O29 2.682 . S
Nd1 O30 2.410 . S
C2 Nd0 2.836 . S
C2 C3 1.498 . S
C2 O20 1.258 . S
C2 O21 1.239 . S
C3 C2 1.498 . S
C3 C4 1.366 . S
C3 C8 1.407 . S
C4 C3 1.366 . S
C4 C5 1.392 . S
C4 H32 0.930 . S
C5 C4 1.392 . S
C5 C6 1.398 . S
C5 H33 0.929 . S
C6 C5 1.398 . S
C6 C7 1.352 . S
C7 C6 1.352 . S
C7 C8 1.384 . S
C7 H34 0.930 . S
C8 C3 1.407 . S
C8 C7 1.384 . S
C8 H35 0.929 . S
C9 O22 1.241 . S
C9 O23 1.273 . S
C10 O24 1.251 . S
C10 O25 1.268 . S
C11 Nd1 2.836 . S
C11 C12 1.498 . S
C11 O26 1.258 . S
C11 O27 1.239 . S
C12 C11 1.498 . S
C12 C13 1.366 . S
C12 C17 1.407 . S
C13 C12 1.366 . S
C13 C14 1.392 . S
C13 H36 0.930 . S
C14 C13 1.392 . S
C14 C15 1.398 . S
C14 H37 0.929 . S
C15 C14 1.398 . S
C15 C16 1.352 . S
C16 C15 1.352 . S
C16 C17 1.384 . S
C16 H38 0.930 . S
C17 C12 1.407 . S
C17 C16 1.384 . S
C17 H39 0.929 . S
C18 O28 1.241 . S
C18 O29 1.273 . S
C19 O30 1.251 . S
C19 O31 1.268 . S
O20 Nd0 2.500 . S
O20 C2 1.258 . S
O21 Nd0 2.492 . S
O21 C2 1.239 . S
O22 Nd0 2.487 . S
O22 C9 1.241 . S
O23 Nd0 2.682 . S
O23 Nd1 2.414 . S
O23 C9 1.273 . S
O24 Nd0 2.410 . S
O24 C10 1.251 . S
O25 Nd1 2.424 . S
O25 C10 1.268 . S
O26 Nd1 2.500 . S
O26 C11 1.258 . S
O27 Nd1 2.492 . S
O27 C11 1.239 . S
O28 Nd1 2.487 . S
O28 C18 1.241 . S
O29 Nd0 2.414 . S
O29 Nd1 2.682 . S
O29 C18 1.273 . S
O30 Nd1 2.410 . S
O30 C19 1.251 . S
O31 Nd0 2.424 . S
O31 C19 1.268 . S
H32 C4 0.930 . S
H33 C5 0.929 . S
H34 C7 0.930 . S
H35 C8 0.929 . S
H36 C13 0.930 . S
H37 C14 0.929 . S
H38 C16 0.930 . S
H39 C17 0.929 . S
Nd40 C42 2.836 . S
Nd40 O60 2.500 . S
Nd40 O61 2.492 . S
Nd40 O62 2.487 . S
Nd40 O63 2.682 . S
Nd40 O64 2.410 . S
Nd40 O69 2.414 . S
Nd40 O71 2.424 . S
Nd41 C51 2.836 . S
Nd41 O63 2.414 . S
Nd41 O65 2.424 . S
Nd41 O66 2.500 . S
Nd41 O67 2.492 . S
Nd41 O68 2.487 . S
Nd41 O69 2.682 . S
Nd41 O70 2.410 . S
C42 Nd40 2.836 . S
C42 C43 1.498 . S
C42 O60 1.258 . S
C42 O61 1.239 . S
C43 C42 1.498 . S
C43 C44 1.366 . S
C43 C48 1.407 . S
C44 C43 1.366 . S
C44 C45 1.392 . S
C44 H72 0.930 . S
C45 C44 1.392 . S
C45 C46 1.398 1_655 S
C45 H73 0.929 . S
C46 C45 1.398 1_455 S
C46 C47 1.352 . S
C47 C46 1.352 . S
C47 C48 1.384 1_455 S
C47 H74 0.930 . S
C48 C43 1.407 . S
C48 C47 1.384 1_655 S
C48 H75 0.929 . S
C49 O62 1.241 . S
C49 O63 1.273 . S
C50 O64 1.251 . S
C50 O65 1.268 . S
C51 Nd41 2.836 . S
C51 C52 1.498 . S
C51 O66 1.258 . S
C51 O67 1.239 . S
C52 C51 1.498 . S
C52 C53 1.366 . S
C52 C57 1.407 . S
C53 C52 1.366 . S
C53 C54 1.392 . S
C53 H76 0.930 . S
C54 C53 1.392 . S
C54 C55 1.398 . S
C54 H77 0.929 . S
C55 C54 1.398 . S
C55 C56 1.352 . S
C56 C55 1.352 . S
C56 C57 1.384 . S
C56 H78 0.930 . S
C57 C52 1.407 . S
C57 C56 1.384 . S
C57 H79 0.929 . S
C58 O68 1.241 . S
C58 O69 1.273 . S
C59 O70 1.251 . S
C59 O71 1.268 . S
O60 Nd40 2.500 . S
O60 C42 1.258 . S
O61 Nd40 2.492 . S
O61 C42 1.239 . S
O62 Nd40 2.487 . S
O62 C49 1.241 . S
O63 Nd40 2.682 . S
O63 Nd41 2.414 . S
O63 C49 1.273 . S
O64 Nd40 2.410 . S
O64 C50 1.251 . S
O65 Nd41 2.424 . S
O65 C50 1.268 . S
O66 Nd41 2.500 . S
O66 C51 1.258 . S
O67 Nd41 2.492 . S
O67 C51 1.239 . S
O68 Nd41 2.487 . S
O68 C58 1.241 . S
O69 Nd40 2.414 . S
O69 Nd41 2.682 . S
O69 C58 1.273 . S
O70 Nd41 2.410 . S
O70 C59 1.251 . S
O71 Nd40 2.424 . S
O71 C59 1.268 . S
H72 C44 0.930 . S
H73 C45 0.929 . S
H74 C47 0.930 . S
H75 C48 0.929 . S
H76 C53 0.930 . S
H77 C54 0.929 . S
H78 C56 0.930 . S
H79 C57 0.929 . S
Nd80 C82 2.836 . S
Nd80 O100 2.500 . S
Nd80 O101 2.492 . S
Nd80 O102 2.487 . S
Nd80 O103 2.682 . S
Nd80 O104 2.410 . S
Nd80 O109 2.414 . S
Nd80 O111 2.424 . S
Nd81 C91 2.836 . S
Nd81 O103 2.414 . S
Nd81 O105 2.424 . S
Nd81 O106 2.500 . S
Nd81 O107 2.492 . S
Nd81 O108 2.487 . S
Nd81 O109 2.682 . S
Nd81 O110 2.410 . S
C82 Nd80 2.836 . S
C82 C83 1.498 . S
C82 O100 1.258 . S
C82 O101 1.239 . S
C83 C82 1.498 . S
C83 C84 1.366 . S
C83 C88 1.407 . S
C84 C83 1.366 . S
C84 C85 1.392 . S
C84 H112 0.930 . S
C85 C84 1.392 . S
C85 C86 1.398 . S
C85 H113 0.929 . S
C86 C85 1.398 . S
C86 C87 1.352 . S
C87 C86 1.352 . S
C87 C88 1.384 . S
C87 H114 0.930 . S
C88 C83 1.407 . S
C88 C87 1.384 . S
C88 H115 0.929 . S
C89 O102 1.241 . S
C89 O103 1.273 . S
C90 O104 1.251 . S
C90 O105 1.268 . S
C91 Nd81 2.836 . S
C91 C92 1.498 . S
C91 O106 1.258 . S
C91 O107 1.239 . S
C92 C91 1.498 . S
C92 C93 1.366 . S
C92 C97 1.407 . S
C93 C92 1.366 . S
C93 C94 1.392 . S
C93 H116 0.930 . S
C94 C93 1.392 . S
C94 C95 1.398 1_545 S
C94 H117 0.929 . S
C95 C94 1.398 1_565 S
C95 C96 1.352 . S
C96 C95 1.352 . S
C96 C97 1.384 1_565 S
C96 H118 0.930 . S
C97 C92 1.407 . S
C97 C96 1.384 1_545 S
C97 H119 0.929 . S
C98 O108 1.241 . S
C98 O109 1.273 . S
C99 O110 1.251 . S
C99 O111 1.268 . S
O100 Nd80 2.500 . S
O100 C82 1.258 . S
O101 Nd80 2.492 . S
O101 C82 1.239 . S
O102 Nd80 2.487 . S
O102 C89 1.241 . S
O103 Nd80 2.682 . S
O103 Nd81 2.414 . S
O103 C89 1.273 . S
O104 Nd80 2.410 . S
O104 C90 1.251 . S
O105 Nd81 2.424 . S
O105 C90 1.268 . S
O106 Nd81 2.500 . S
O106 C91 1.258 . S
O107 Nd81 2.492 . S
O107 C91 1.239 . S
O108 Nd81 2.487 . S
O108 C98 1.241 . S
O109 Nd80 2.414 . S
O109 Nd81 2.682 . S
O109 C98 1.273 . S
O110 Nd81 2.410 . S
O110 C99 1.251 . S
O111 Nd80 2.424 . S
O111 C99 1.268 . S
H112 C84 0.930 . S
H113 C85 0.929 . S
H114 C87 0.930 . S
H115 C88 0.929 . S
H116 C93 0.930 . S
H117 C94 0.929 . S
H118 C96 0.930 . S
H119 C97 0.929 . S
Nd120 C122 2.836 . S
Nd120 O140 2.500 . S
Nd120 O141 2.492 . S
Nd120 O142 2.487 . S
Nd120 O143 2.682 . S
Nd120 O144 2.410 . S
Nd120 O149 2.414 . S
Nd120 O151 2.424 . S
Nd121 C131 2.836 . S
Nd121 O143 2.414 . S
Nd121 O145 2.424 . S
Nd121 O146 2.500 . S
Nd121 O147 2.492 . S
Nd121 O148 2.487 . S
Nd121 O149 2.682 . S
Nd121 O150 2.410 . S
C122 Nd120 2.836 . S
C122 C123 1.498 . S
C122 O140 1.258 . S
C122 O141 1.239 . S
C123 C122 1.498 . S
C123 C124 1.366 . S
C123 C128 1.407 . S
C124 C123 1.366 . S
C124 C125 1.392 . S
C124 H152 0.930 . S
C125 C124 1.392 . S
C125 C126 1.398 . S
C125 H153 0.929 . S
C126 C125 1.398 . S
C126 C127 1.352 . S
C127 C126 1.352 . S
C127 C128 1.384 . S
C127 H154 0.930 . S
C128 C123 1.407 . S
C128 C127 1.384 . S
C128 H155 0.929 . S
C129 O142 1.241 . S
C129 O143 1.273 . S
C130 O144 1.251 . S
C130 O145 1.268 . S
C131 Nd121 2.836 . S
C131 C132 1.498 . S
C131 O146 1.258 . S
C131 O147 1.239 . S
C132 C131 1.498 . S
C132 C133 1.366 . S
C132 C137 1.407 . S
C133 C132 1.366 . S
C133 C134 1.392 . S
C133 H156 0.930 . S
C134 C133 1.392 . S
C134 C135 1.398 . S
C134 H157 0.929 . S
C135 C134 1.398 . S
C135 C136 1.352 . S
C136 C135 1.352 . S
C136 C137 1.384 . S
C136 H158 0.930 . S
C137 C132 1.407 . S
C137 C136 1.384 . S
C137 H159 0.929 . S
C138 O148 1.241 . S
C138 O149 1.273 . S
C139 O150 1.251 . S
C139 O151 1.268 . S
O140 Nd120 2.500 . S
O140 C122 1.258 . S
O141 Nd120 2.492 . S
O141 C122 1.239 . S
O142 Nd120 2.487 . S
O142 C129 1.241 . S
O143 Nd120 2.682 . S
O143 Nd121 2.414 . S
O143 C129 1.273 . S
O144 Nd120 2.410 . S
O144 C130 1.251 . S
O145 Nd121 2.424 . S
O145 C130 1.268 . S
O146 Nd121 2.500 . S
O146 C131 1.258 . S
O147 Nd121 2.492 . S
O147 C131 1.239 . S
O148 Nd121 2.487 . S
O148 C138 1.241 . S
O149 Nd120 2.414 . S
O149 Nd121 2.682 . S
O149 C138 1.273 . S
O150 Nd121 2.410 . S
O150 C139 1.251 . S
O151 Nd120 2.424 . S
O151 C139 1.268 . S
H152 C124 0.930 . S
H153 C125 0.929 . S
H154 C127 0.930 . S
H155 C128 0.929 . S
H156 C133 0.930 . S
H157 C134 0.929 . S
H158 C136 0.930 . S
H159 C137 0.929 . S
Nd160 C162 2.836 . S
Nd160 O180 2.500 . S
Nd160 O181 2.492 . S
Nd160 O182 2.487 . S
Nd160 O183 2.682 . S
Nd160 O184 2.410 . S
Nd160 O189 2.414 . S
Nd160 O191 2.424 . S
Nd161 C171 2.836 . S
Nd161 O183 2.414 . S
Nd161 O185 2.424 . S
Nd161 O186 2.500 . S
Nd161 O187 2.492 . S
Nd161 O188 2.487 . S
Nd161 O189 2.682 . S
Nd161 O190 2.410 . S
C162 Nd160 2.836 . S
C162 C163 1.498 . S
C162 O180 1.258 . S
C162 O181 1.239 . S
C163 C162 1.498 . S
C163 C164 1.366 . S
C163 C168 1.407 . S
C164 C163 1.366 . S
C164 C165 1.392 . S
C164 H192 0.930 . S
C165 C164 1.392 . S
C165 C166 1.398 . S
C165 H193 0.929 . S
C166 C165 1.398 . S
C166 C167 1.352 . S
C167 C166 1.352 . S
C167 C168 1.384 . S
C167 H194 0.930 . S
C168 C163 1.407 . S
C168 C167 1.384 . S
C168 H195 0.929 . S
C169 O182 1.241 . S
C169 O183 1.273 . S
C170 O184 1.251 . S
C170 O185 1.268 . S
C171 Nd161 2.836 . S
C171 C172 1.498 . S
C171 O186 1.258 . S
C171 O187 1.239 . S
C172 C171 1.498 . S
C172 C173 1.366 . S
C172 C177 1.407 . S
C173 C172 1.366 . S
C173 C174 1.392 . S
C173 H196 0.930 . S
C174 C173 1.392 . S
C174 C175 1.398 1_655 S
C174 H197 0.929 . S
C175 C174 1.398 1_455 S
C175 C176 1.352 . S
C176 C175 1.352 . S
C176 C177 1.384 1_455 S
C176 H198 0.930 . S
C177 C172 1.407 . S
C177 C176 1.384 1_655 S
C177 H199 0.929 . S
C178 O188 1.241 . S
C178 O189 1.273 . S
C179 O190 1.251 . S
C179 O191 1.268 . S
O180 Nd160 2.500 . S
O180 C162 1.258 . S
O181 Nd160 2.492 . S
O181 C162 1.239 . S
O182 Nd160 2.487 . S
O182 C169 1.241 . S
O183 Nd160 2.682 . S
O183 Nd161 2.414 . S
O183 C169 1.273 . S
O184 Nd160 2.410 . S
O184 C170 1.251 . S
O185 Nd161 2.424 . S
O185 C170 1.268 . S
O186 Nd161 2.500 . S
O186 C171 1.258 . S
O187 Nd161 2.492 . S
O187 C171 1.239 . S
O188 Nd161 2.487 . S
O188 C178 1.241 . S
O189 Nd160 2.414 . S
O189 Nd161 2.682 . S
O189 C178 1.273 . S
O190 Nd161 2.410 . S
O190 C179 1.251 . S
O191 Nd160 2.424 . S
O191 C179 1.268 . S
H192 C164 0.930 . S
H193 C165 0.929 . S
H194 C167 0.930 . S
H195 C168 0.929 . S
H196 C173 0.930 . S
H197 C174 0.929 . S
H198 C176 0.930 . S
H199 C177 0.929 . S
Nd200 C202 2.836 . S
Nd200 O220 2.500 . S
Nd200 O221 2.492 . S
Nd200 O222 2.487 . S
Nd200 O223 2.682 . S
Nd200 O224 2.410 . S
Nd200 O229 2.414 . S
Nd200 O231 2.424 . S
Nd201 C211 2.836 . S
Nd201 O223 2.414 . S
Nd201 O225 2.424 . S
Nd201 O226 2.500 . S
Nd201 O227 2.492 . S
Nd201 O228 2.487 . S
Nd201 O229 2.682 . S
Nd201 O230 2.410 . S
C202 Nd200 2.836 . S
C202 C203 1.498 . S
C202 O220 1.258 . S
C202 O221 1.239 . S
C203 C202 1.498 . S
C203 C204 1.366 . S
C203 C208 1.407 . S
C204 C203 1.366 . S
C204 C205 1.392 . S
C204 H232 0.930 . S
C205 C204 1.392 . S
C205 C206 1.398 1_545 S
C205 H233 0.929 . S
C206 C205 1.398 1_565 S
C206 C207 1.352 . S
C207 C206 1.352 . S
C207 C208 1.384 1_565 S
C207 H234 0.930 . S
C208 C203 1.407 . S
C208 C207 1.384 1_545 S
C208 H235 0.929 . S
C209 O222 1.241 . S
C209 O223 1.273 . S
C210 O224 1.251 . S
C210 O225 1.268 . S
C211 Nd201 2.836 . S
C211 C212 1.498 . S
C211 O226 1.258 . S
C211 O227 1.239 . S
C212 C211 1.498 . S
C212 C213 1.366 . S
C212 C217 1.407 . S
C213 C212 1.366 . S
C213 C214 1.392 . S
C213 H236 0.930 . S
C214 C213 1.392 . S
C214 C215 1.398 . S
C214 H237 0.929 . S
C215 C214 1.398 . S
C215 C216 1.352 . S
C216 C215 1.352 . S
C216 C217 1.384 . S
C216 H238 0.930 . S
C217 C212 1.407 . S
C217 C216 1.384 . S
C217 H239 0.929 . S
C218 O228 1.241 . S
C218 O229 1.273 . S
C219 O230 1.251 . S
C219 O231 1.268 . S
O220 Nd200 2.500 . S
O220 C202 1.258 . S
O221 Nd200 2.492 . S
O221 C202 1.239 . S
O222 Nd200 2.487 . S
O222 C209 1.241 . S
O223 Nd200 2.682 . S
O223 Nd201 2.414 . S
O223 C209 1.273 . S
O224 Nd200 2.410 . S
O224 C210 1.251 . S
O225 Nd201 2.424 . S
O225 C210 1.268 . S
O226 Nd201 2.500 . S
O226 C211 1.258 . S
O227 Nd201 2.492 . S
O227 C211 1.239 . S
O228 Nd201 2.487 . S
O228 C218 1.241 . S
O229 Nd200 2.414 . S
O229 Nd201 2.682 . S
O229 C218 1.273 . S
O230 Nd201 2.410 . S
O230 C219 1.251 . S
O231 Nd200 2.424 . S
O231 C219 1.268 . S
H232 C204 0.930 . S
H233 C205 0.929 . S
H234 C207 0.930 . S
H235 C208 0.929 . S
H236 C213 0.930 . S
H237 C214 0.929 . S
H238 C216 0.930 . S
H239 C217 0.929 . S
Nd240 C242 2.836 . S
Nd240 O260 2.500 . S
Nd240 O261 2.492 . S
Nd240 O262 2.487 . S
Nd240 O263 2.682 . S
Nd240 O264 2.410 . S
Nd240 O269 2.414 . S
Nd240 O271 2.424 . S
Nd241 C251 2.836 . S
Nd241 O263 2.414 . S
Nd241 O265 2.424 . S
Nd241 O266 2.500 . S
Nd241 O267 2.492 . S
Nd241 O268 2.487 . S
Nd241 O269 2.682 . S
Nd241 O270 2.410 . S
C242 Nd240 2.836 . S
C242 C243 1.498 . S
C242 O260 1.258 . S
C242 O261 1.239 . S
C243 C242 1.498 . S
C243 C244 1.366 . S
C243 C248 1.407 . S
C244 C243 1.366 . S
C244 C245 1.392 . S
C244 H272 0.930 . S
C245 C244 1.392 . S
C245 C246 1.398 . S
C245 H273 0.929 . S
C246 C245 1.398 . S
C246 C247 1.352 . S
C247 C246 1.352 . S
C247 C248 1.384 . S
C247 H274 0.930 . S
C248 C243 1.407 . S
C248 C247 1.384 . S
C248 H275 0.929 . S
C249 O262 1.241 . S
C249 O263 1.273 . S
C250 O264 1.251 . S
C250 O265 1.268 . S
C251 Nd241 2.836 . S
C251 C252 1.498 . S
C251 O266 1.258 . S
C251 O267 1.239 . S
C252 C251 1.498 . S
C252 C253 1.366 . S
C252 C257 1.407 . S
C253 C252 1.366 . S
C253 C254 1.392 . S
C253 H276 0.930 . S
C254 C253 1.392 . S
C254 C255 1.398 . S
C254 H277 0.929 . S
C255 C254 1.398 . S
C255 C256 1.352 . S
C256 C255 1.352 . S
C256 C257 1.384 . S
C256 H278 0.930 . S
C257 C252 1.407 . S
C257 C256 1.384 . S
C257 H279 0.929 . S
C258 O268 1.241 . S
C258 O269 1.273 . S
C259 O270 1.251 . S
C259 O271 1.268 . S
O260 Nd240 2.500 . S
O260 C242 1.258 . S
O261 Nd240 2.492 . S
O261 C242 1.239 . S
O262 Nd240 2.487 . S
O262 C249 1.241 . S
O263 Nd240 2.682 . S
O263 Nd241 2.414 . S
O263 C249 1.273 . S
O264 Nd240 2.410 . S
O264 C250 1.251 . S
O265 Nd241 2.424 . S
O265 C250 1.268 . S
O266 Nd241 2.500 . S
O266 C251 1.258 . S
O267 Nd241 2.492 . S
O267 C251 1.239 . S
O268 Nd241 2.487 . S
O268 C258 1.241 . S
O269 Nd240 2.414 . S
O269 Nd241 2.682 . S
O269 C258 1.273 . S
O270 Nd241 2.410 . S
O270 C259 1.251 . S
O271 Nd240 2.424 . S
O271 C259 1.268 . S
H272 C244 0.930 . S
H273 C245 0.929 . S
H274 C247 0.930 . S
H275 C248 0.929 . S
H276 C253 0.930 . S
H277 C254 0.929 . S
H278 C256 0.930 . S
H279 C257 0.929 . S
Nd280 C282 2.836 . S
Nd280 O300 2.500 . S
Nd280 O301 2.492 . S
Nd280 O302 2.487 . S
Nd280 O303 2.682 . S
Nd280 O304 2.410 . S
Nd280 O309 2.414 . S
Nd280 O311 2.424 . S
Nd281 C291 2.836 . S
Nd281 O303 2.414 . S
Nd281 O305 2.424 . S
Nd281 O306 2.500 . S
Nd281 O307 2.492 . S
Nd281 O308 2.487 . S
Nd281 O309 2.682 . S
Nd281 O310 2.410 . S
C282 Nd280 2.836 . S
C282 C283 1.498 . S
C282 O300 1.258 . S
C282 O301 1.239 . S
C283 C282 1.498 . S
C283 C284 1.366 . S
C283 C288 1.407 . S
C284 C283 1.366 . S
C284 C285 1.392 . S
C284 H312 0.930 . S
C285 C284 1.392 . S
C285 C286 1.398 . S
C285 H313 0.929 . S
C286 C285 1.398 . S
C286 C287 1.352 . S
C287 C286 1.352 . S
C287 C288 1.384 . S
C287 H314 0.930 . S
C288 C283 1.407 . S
C288 C287 1.384 . S
C288 H315 0.929 . S
C289 O302 1.241 . S
C289 O303 1.273 . S
C290 O304 1.251 . S
C290 O305 1.268 . S
C291 Nd281 2.836 . S
C291 C292 1.498 . S
C291 O306 1.258 . S
C291 O307 1.239 . S
C292 C291 1.498 . S
C292 C293 1.366 . S
C292 C297 1.407 . S
C293 C292 1.366 . S
C293 C294 1.392 . S
C293 H316 0.930 . S
C294 C293 1.392 . S
C294 C295 1.398 1_455 S
C294 H317 0.929 . S
C295 C294 1.398 1_655 S
C295 C296 1.352 . S
C296 C295 1.352 . S
C296 C297 1.384 1_655 S
C296 H318 0.930 . S
C297 C292 1.407 . S
C297 C296 1.384 1_455 S
C297 H319 0.929 . S
C298 O308 1.241 . S
C298 O309 1.273 . S
C299 O310 1.251 . S
C299 O311 1.268 . S
O300 Nd280 2.500 . S
O300 C282 1.258 . S
O301 Nd280 2.492 . S
O301 C282 1.239 . S
O302 Nd280 2.487 . S
O302 C289 1.241 . S
O303 Nd280 2.682 . S
O303 Nd281 2.414 . S
O303 C289 1.273 . S
O304 Nd280 2.410 . S
O304 C290 1.251 . S
O305 Nd281 2.424 . S
O305 C290 1.268 . S
O306 Nd281 2.500 . S
O306 C291 1.258 . S
O307 Nd281 2.492 . S
O307 C291 1.239 . S
O308 Nd281 2.487 . S
O308 C298 1.241 . S
O309 Nd280 2.414 . S
O309 Nd281 2.682 . S
O309 C298 1.273 . S
O310 Nd281 2.410 . S
O310 C299 1.251 . S
O311 Nd280 2.424 . S
O311 C299 1.268 . S
H312 C284 0.930 . S
H313 C285 0.929 . S
H314 C287 0.930 . S
H315 C288 0.929 . S
H316 C293 0.930 . S
H317 C294 0.929 . S
H318 C296 0.930 . S
H319 C297 0.929 . S
Nd320 C322 2.836 . S
Nd320 O340 2.500 . S
Nd320 O341 2.492 . S
Nd320 O342 2.487 . S
Nd320 O343 2.682 . S
Nd320 O344 2.410 . S
Nd320 O349 2.414 . S
Nd320 O351 2.424 . S
Nd321 C331 2.836 . S
Nd321 O343 2.414 . S
Nd321 O345 2.424 . S
Nd321 O346 2.500 . S
Nd321 O347 2.492 . S
Nd321 O348 2.487 . S
Nd321 O349 2.682 . S
Nd321 O350 2.410 . S
C322 Nd320 2.836 . S
C322 C323 1.498 . S
C322 O340 1.258 . S
C322 O341 1.239 . S
C323 C322 1.498 . S
C323 C324 1.366 . S
C323 C328 1.407 . S
C324 C323 1.366 . S
C324 C325 1.392 . S
C324 H352 0.930 . S
C325 C324 1.392 . S
C325 C326 1.398 1_565 S
C325 H353 0.929 . S
C326 C325 1.398 1_545 S
C326 C327 1.352 . S
C327 C326 1.352 . S
C327 C328 1.384 1_545 S
C327 H354 0.930 . S
C328 C323 1.407 . S
C328 C327 1.384 1_565 S
C328 H355 0.929 . S
C329 O342 1.241 . S
C329 O343 1.273 . S
C330 O344 1.251 . S
C330 O345 1.268 . S
C331 Nd321 2.836 . S
C331 C332 1.498 . S
C331 O346 1.258 . S
C331 O347 1.239 . S
C332 C331 1.498 . S
C332 C333 1.366 . S
C332 C337 1.407 . S
C333 C332 1.366 . S
C333 C334 1.392 . S
C333 H356 0.930 . S
C334 C333 1.392 . S
C334 C335 1.398 . S
C334 H357 0.929 . S
C335 C334 1.398 . S
C335 C336 1.352 . S
C336 C335 1.352 . S
C336 C337 1.384 . S
C336 H358 0.930 . S
C337 C332 1.407 . S
C337 C336 1.384 . S
C337 H359 0.929 . S
C338 O348 1.241 . S
C338 O349 1.273 . S
C339 O350 1.251 . S
C339 O351 1.268 . S
O340 Nd320 2.500 . S
O340 C322 1.258 . S
O341 Nd320 2.492 . S
O341 C322 1.239 . S
O342 Nd320 2.487 . S
O342 C329 1.241 . S
O343 Nd320 2.682 . S
O343 Nd321 2.414 . S
O343 C329 1.273 . S
O344 Nd320 2.410 . S
O344 C330 1.251 . S
O345 Nd321 2.424 . S
O345 C330 1.268 . S
O346 Nd321 2.500 . S
O346 C331 1.258 . S
O347 Nd321 2.492 . S
O347 C331 1.239 . S
O348 Nd321 2.487 . S
O348 C338 1.241 . S
O349 Nd320 2.414 . S
O349 Nd321 2.682 . S
O349 C338 1.273 . S
O350 Nd321 2.410 . S
O350 C339 1.251 . S
O351 Nd320 2.424 . S
O351 C339 1.268 . S
H352 C324 0.930 . S
H353 C325 0.929 . S
H354 C327 0.930 . S
H355 C328 0.929 . S
H356 C333 0.930 . S
H357 C334 0.929 . S
H358 C336 0.930 . S
H359 C337 0.929 . S
Nd360 C362 2.836 . S
Nd360 O380 2.500 . S
Nd360 O381 2.492 . S
Nd360 O382 2.487 . S
Nd360 O383 2.682 . S
Nd360 O384 2.410 . S
Nd360 O389 2.414 . S
Nd360 O391 2.424 . S
Nd361 C371 2.836 . S
Nd361 O383 2.414 . S
Nd361 O385 2.424 . S
Nd361 O386 2.500 . S
Nd361 O387 2.492 . S
Nd361 O388 2.487 . S
Nd361 O389 2.682 . S
Nd361 O390 2.410 . S
C362 Nd360 2.836 . S
C362 C363 1.498 . S
C362 O380 1.258 . S
C362 O381 1.239 . S
C363 C362 1.498 . S
C363 C364 1.366 . S
C363 C368 1.407 . S
C364 C363 1.366 . S
C364 C365 1.392 . S
C364 H392 0.930 . S
C365 C364 1.392 . S
C365 C366 1.398 . S
C365 H393 0.929 . S
C366 C365 1.398 . S
C366 C367 1.352 . S
C367 C366 1.352 . S
C367 C368 1.384 . S
C367 H394 0.930 . S
C368 C363 1.407 . S
C368 C367 1.384 . S
C368 H395 0.929 . S
C369 O382 1.241 . S
C369 O383 1.273 . S
C370 O384 1.251 . S
C370 O385 1.268 . S
C371 Nd361 2.836 . S
C371 C372 1.498 . S
C371 O386 1.258 . S
C371 O387 1.239 . S
C372 C371 1.498 . S
C372 C373 1.366 . S
C372 C377 1.407 . S
C373 C372 1.366 . S
C373 C374 1.392 . S
C373 H396 0.930 . S
C374 C373 1.392 . S
C374 C375 1.398 . S
C374 H397 0.929 . S
C375 C374 1.398 . S
C375 C376 1.352 . S
C376 C375 1.352 . S
C376 C377 1.384 . S
C376 H398 0.930 . S
C377 C372 1.407 . S
C377 C376 1.384 . S
C377 H399 0.929 . S
C378 O388 1.241 . S
C378 O389 1.273 . S
C379 O390 1.251 . S
C379 O391 1.268 . S
O380 Nd360 2.500 . S
O380 C362 1.258 . S
O381 Nd360 2.492 . S
O381 C362 1.239 . S
O382 Nd360 2.487 . S
O382 C369 1.241 . S
O383 Nd360 2.682 . S
O383 Nd361 2.414 . S
O383 C369 1.273 . S
O384 Nd360 2.410 . S
O384 C370 1.251 . S
O385 Nd361 2.424 . S
O385 C370 1.268 . S
O386 Nd361 2.500 . S
O386 C371 1.258 . S
O387 Nd361 2.492 . S
O387 C371 1.239 . S
O388 Nd361 2.487 . S
O388 C378 1.241 . S
O389 Nd360 2.414 . S
O389 Nd361 2.682 . S
O389 C378 1.273 . S
O390 Nd361 2.410 . S
O390 C379 1.251 . S
O391 Nd360 2.424 . S
O391 C379 1.268 . S
H392 C364 0.930 . S
H393 C365 0.929 . S
H394 C367 0.930 . S
H395 C368 0.929 . S
H396 C373 0.930 . S
H397 C374 0.929 . S
H398 C376 0.930 . S
H399 C377 0.929 . S
Nd400 C402 2.836 . S
Nd400 O420 2.500 . S
Nd400 O421 2.492 . S
Nd400 O422 2.487 . S
Nd400 O423 2.682 . S
Nd400 O424 2.410 . S
Nd400 O429 2.414 . S
Nd400 O431 2.424 . S
Nd401 C411 2.836 . S
Nd401 O423 2.414 . S
Nd401 O425 2.424 . S
Nd401 O426 2.500 . S
Nd401 O427 2.492 . S
Nd401 O428 2.487 . S
Nd401 O429 2.682 . S
Nd401 O430 2.410 . S
C402 Nd400 2.836 . S
C402 C403 1.498 . S
C402 O420 1.258 . S
C402 O421 1.239 . S
C403 C402 1.498 . S
C403 C404 1.366 . S
C403 C408 1.407 . S
C404 C403 1.366 . S
C404 C405 1.392 . S
C404 H432 0.930 . S
C405 C404 1.392 . S
C405 C406 1.398 1_455 S
C405 H433 0.929 . S
C406 C405 1.398 1_655 S
C406 C407 1.352 . S
C407 C406 1.352 . S
C407 C408 1.384 1_655 S
C407 H434 0.930 . S
C408 C403 1.407 . S
C408 C407 1.384 1_455 S
C408 H435 0.929 . S
C409 O422 1.241 . S
C409 O423 1.273 . S
C410 O424 1.251 . S
C410 O425 1.268 . S
C411 Nd401 2.836 . S
C411 C412 1.498 . S
C411 O426 1.258 . S
C411 O427 1.239 . S
C412 C411 1.498 . S
C412 C413 1.366 . S
C412 C417 1.407 . S
C413 C412 1.366 . S
C413 C414 1.392 . S
C413 H436 0.930 . S
C414 C413 1.392 . S
C414 C415 1.398 . S
C414 H437 0.929 . S
C415 C414 1.398 . S
C415 C416 1.352 . S
C416 C415 1.352 . S
C416 C417 1.384 . S
C416 H438 0.930 . S
C417 C412 1.407 . S
C417 C416 1.384 . S
C417 H439 0.929 . S
C418 O428 1.241 . S
C418 O429 1.273 . S
C419 O430 1.251 . S
C419 O431 1.268 . S
O420 Nd400 2.500 . S
O420 C402 1.258 . S
O421 Nd400 2.492 . S
O421 C402 1.239 . S
O422 Nd400 2.487 . S
O422 C409 1.241 . S
O423 Nd400 2.682 . S
O423 Nd401 2.414 . S
O423 C409 1.273 . S
O424 Nd400 2.410 . S
O424 C410 1.251 . S
O425 Nd401 2.424 . S
O425 C410 1.268 . S
O426 Nd401 2.500 . S
O426 C411 1.258 . S
O427 Nd401 2.492 . S
O427 C411 1.239 . S
O428 Nd401 2.487 . S
O428 C418 1.241 . S
O429 Nd400 2.414 . S
O429 Nd401 2.682 . S
O429 C418 1.273 . S
O430 Nd401 2.410 . S
O430 C419 1.251 . S
O431 Nd400 2.424 . S
O431 C419 1.268 . S
H432 C404 0.930 . S
H433 C405 0.929 . S
H434 C407 0.930 . S
H435 C408 0.929 . S
H436 C413 0.930 . S
H437 C414 0.929 . S
H438 C416 0.930 . S
H439 C417 0.929 . S
Nd440 C442 2.836 . S
Nd440 O460 2.500 . S
Nd440 O461 2.492 . S
Nd440 O462 2.487 . S
Nd440 O463 2.682 . S
Nd440 O464 2.410 . S
Nd440 O469 2.414 . S
Nd440 O471 2.424 . S
Nd441 C451 2.836 . S
Nd441 O463 2.414 . S
Nd441 O465 2.424 . S
Nd441 O466 2.500 . S
Nd441 O467 2.492 . S
Nd441 O468 2.487 . S
Nd441 O469 2.682 . S
Nd441 O470 2.410 . S
C442 Nd440 2.836 . S
C442 C443 1.498 . S
C442 O460 1.258 . S
C442 O461 1.239 . S
C443 C442 1.498 . S
C443 C444 1.366 . S
C443 C448 1.407 . S
C444 C443 1.366 . S
C444 C445 1.392 . S
C444 H472 0.930 . S
C445 C444 1.392 . S
C445 C446 1.398 . S
C445 H473 0.929 . S
C446 C445 1.398 . S
C446 C447 1.352 . S
C447 C446 1.352 . S
C447 C448 1.384 . S
C447 H474 0.930 . S
C448 C443 1.407 . S
C448 C447 1.384 . S
C448 H475 0.929 . S
C449 O462 1.241 . S
C449 O463 1.273 . S
C450 O464 1.251 . S
C450 O465 1.268 . S
C451 Nd441 2.836 . S
C451 C452 1.498 . S
C451 O466 1.258 . S
C451 O467 1.239 . S
C452 C451 1.498 . S
C452 C453 1.366 . S
C452 C457 1.407 . S
C453 C452 1.366 . S
C453 C454 1.392 . S
C453 H476 0.930 . S
C454 C453 1.392 . S
C454 C455 1.398 1_565 S
C454 H477 0.929 . S
C455 C454 1.398 1_545 S
C455 C456 1.352 . S
C456 C455 1.352 . S
C456 C457 1.384 1_545 S
C456 H478 0.930 . S
C457 C452 1.407 . S
C457 C456 1.384 1_565 S
C457 H479 0.929 . S
C458 O468 1.241 . S
C458 O469 1.273 . S
C459 O470 1.251 . S
C459 O471 1.268 . S
O460 Nd440 2.500 . S
O460 C442 1.258 . S
O461 Nd440 2.492 . S
O461 C442 1.239 . S
O462 Nd440 2.487 . S
O462 C449 1.241 . S
O463 Nd440 2.682 . S
O463 Nd441 2.414 . S
O463 C449 1.273 . S
O464 Nd440 2.410 . S
O464 C450 1.251 . S
O465 Nd441 2.424 . S
O465 C450 1.268 . S
O466 Nd441 2.500 . S
O466 C451 1.258 . S
O467 Nd441 2.492 . S
O467 C451 1.239 . S
O468 Nd441 2.487 . S
O468 C458 1.241 . S
O469 Nd440 2.414 . S
O469 Nd441 2.682 . S
O469 C458 1.273 . S
O470 Nd441 2.410 . S
O470 C459 1.251 . S
O471 Nd440 2.424 . S
O471 C459 1.268 . S
H472 C444 0.930 . S
H473 C445 0.929 . S
H474 C447 0.930 . S
H475 C448 0.929 . S
H476 C453 0.930 . S
H477 C454 0.929 . S
H478 C456 0.930 . S
H479 C457 0.929 . S
C480 C481 1.391 . S
C480 C482 1.394 . S
C480 H496 0.931 . S
C481 C480 1.391 . S
C481 C485 1.376 . S
C482 C480 1.394 . S
C482 C483 1.369 1_655 S
C482 C486 1.531 . S
C483 C482 1.369 1_455 S
C483 C484 1.410 . S
C483 C491 1.503 . S
C484 C483 1.410 . S
C484 C485 1.392 1_455 S
C484 C487 1.511 . S
C485 C481 1.376 . S
C485 C484 1.392 1_655 S
C485 H497 0.929 . S
C486 C482 1.531 . S
C486 H498 0.960 . S
C486 H499 0.962 . S
C486 H500 0.960 . S
C487 C484 1.511 . S
C487 H501 0.961 . S
C487 H502 0.961 . S
C487 H503 0.961 . S
C488 C489 1.370 . S
C488 C490 1.363 . S
C488 H504 0.931 . S
C489 C488 1.370 . S
C489 C493 1.408 . S
C490 C488 1.363 . S
C490 C491 1.370 . S
C490 C494 1.524 . S
C491 C483 1.503 . S
C491 C490 1.370 . S
C491 C492 1.403 . S
C492 C491 1.403 . S
C492 C493 1.404 . S
C492 C495 1.539 . S
C493 C489 1.408 . S
C493 C492 1.404 . S
C493 H505 0.930 . S
C494 C490 1.524 . S
C494 H506 0.956 1_455 S
C494 H507 0.961 . S
C494 H508 0.961 . S
C495 C492 1.539 . S
C495 H509 0.958 . S
C495 H510 0.961 . S
C495 H511 0.960 . S
H496 C480 0.931 . S
H497 C485 0.929 . S
H498 C486 0.960 . S
H499 C486 0.962 . S
H500 C486 0.960 . S
H501 C487 0.961 . S
H502 C487 0.961 . S
H503 C487 0.961 . S
H504 C488 0.931 . S
H505 C493 0.930 . S
H506 C494 0.956 1_655 S
H507 C494 0.961 . S
H508 C494 0.961 . S
H509 C495 0.958 . S
H510 C495 0.961 . S
H511 C495 0.960 . S
C512 C513 1.391 . S
C512 C514 1.394 . S
C512 H528 0.931 . S
C513 C512 1.391 . S
C513 C517 1.376 . S
C514 C512 1.394 . S
C514 C515 1.369 1_545 S
C514 C518 1.531 . S
C515 C514 1.369 1_565 S
C515 C516 1.410 . S
C515 C523 1.503 . S
C516 C515 1.410 . S
C516 C517 1.392 1_565 S
C516 C519 1.511 . S
C517 C513 1.376 . S
C517 C516 1.392 1_545 S
C517 H529 0.929 . S
C518 C514 1.531 . S
C518 H530 0.960 1_545 S
C518 H531 0.962 . S
C518 H532 0.960 . S
C519 C516 1.511 . S
C519 H533 0.961 . S
C519 H534 0.961 . S
C519 H535 0.961 . S
C520 C521 1.370 . S
C520 C522 1.363 . S
C520 H536 0.931 . S
C521 C520 1.370 . S
C521 C525 1.408 . S
C522 C520 1.363 . S
C522 C523 1.370 . S
C522 C526 1.524 1_565 S
C523 C515 1.503 . S
C523 C522 1.370 . S
C523 C524 1.403 . S
C524 C523 1.403 . S
C524 C525 1.404 . S
C524 C527 1.539 . S
C525 C521 1.408 . S
C525 C524 1.404 . S
C525 H537 0.930 . S
C526 C522 1.524 1_545 S
C526 H538 0.956 . S
C526 H539 0.961 . S
C526 H540 0.961 . S
C527 C524 1.539 . S
C527 H541 0.958 . S
C527 H542 0.961 . S
C527 H543 0.960 . S
H528 C512 0.931 . S
H529 C517 0.929 . S
H530 C518 0.960 1_565 S
H531 C518 0.962 . S
H532 C518 0.960 . S
H533 C519 0.961 . S
H534 C519 0.961 . S
H535 C519 0.961 . S
H536 C520 0.931 . S
H537 C525 0.930 . S
H538 C526 0.956 . S
H539 C526 0.961 . S
H540 C526 0.961 . S
H541 C527 0.958 . S
H542 C527 0.961 . S
H543 C527 0.960 . S
C544 C545 1.391 . S
C544 C546 1.394 . S
C544 H560 0.931 . S
C545 C544 1.391 . S
C545 C549 1.376 . S
C546 C544 1.394 . S
C546 C547 1.369 . S
C546 C550 1.531 . S
C547 C546 1.369 . S
C547 C548 1.410 . S
C547 C555 1.503 . S
C548 C547 1.410 . S
C548 C549 1.392 . S
C548 C551 1.511 . S
C549 C545 1.376 . S
C549 C548 1.392 . S
C549 H561 0.929 . S
C550 C546 1.531 . S
C550 H562 0.960 . S
C550 H563 0.962 . S
C550 H564 0.960 . S
C551 C548 1.511 . S
C551 H565 0.961 . S
C551 H566 0.961 . S
C551 H567 0.961 . S
C552 C553 1.370 . S
C552 C554 1.363 . S
C552 H568 0.931 . S
C553 C552 1.370 . S
C553 C557 1.408 . S
C554 C552 1.363 . S
C554 C555 1.370 . S
C554 C558 1.524 . S
C555 C547 1.503 . S
C555 C554 1.370 . S
C555 C556 1.403 . S
C556 C555 1.403 . S
C556 C557 1.404 . S
C556 C559 1.539 . S
C557 C553 1.408 . S
C557 C556 1.404 . S
C557 H569 0.930 . S
C558 C554 1.524 . S
C558 H570 0.956 . S
C558 H571 0.961 . S
C558 H572 0.961 . S
C559 C556 1.539 . S
C559 H573 0.958 . S
C559 H574 0.961 . S
C559 H575 0.960 . S
H560 C544 0.931 . S
H561 C549 0.929 . S
H562 C550 0.960 . S
H563 C550 0.962 . S
H564 C550 0.960 . S
H565 C551 0.961 . S
H566 C551 0.961 . S
H567 C551 0.961 . S
H568 C552 0.931 . S
H569 C557 0.930 . S
H570 C558 0.956 . S
H571 C558 0.961 . S
H572 C558 0.961 . S
H573 C559 0.958 . S
H574 C559 0.961 . S
H575 C559 0.960 . S
C576 C577 1.391 . S
C576 C578 1.394 . S
C576 H592 0.931 . S
C577 C576 1.391 . S
C577 C581 1.376 . S
C578 C576 1.394 . S
C578 C579 1.369 . S
C578 C582 1.531 1_455 S
C579 C578 1.369 . S
C579 C580 1.410 . S
C579 C587 1.503 . S
C580 C579 1.410 . S
C580 C581 1.392 . S
C580 C583 1.511 . S
C581 C577 1.376 . S
C581 C580 1.392 . S
C581 H593 0.929 . S
C582 C578 1.531 1_655 S
C582 H594 0.960 . S
C582 H595 0.962 . S
C582 H596 0.960 1_655 S
C583 C580 1.511 . S
C583 H597 0.961 . S
C583 H598 0.961 . S
C583 H599 0.961 . S
C584 C585 1.370 . S
C584 C586 1.363 . S
C584 H600 0.931 . S
C585 C584 1.370 . S
C585 C589 1.408 . S
C586 C584 1.363 . S
C586 C587 1.370 1_655 S
C586 C590 1.524 . S
C587 C579 1.503 . S
C587 C586 1.370 1_455 S
C587 C588 1.403 . S
C588 C587 1.403 . S
C588 C589 1.404 1_455 S
C588 C591 1.539 . S
C589 C585 1.408 . S
C589 C588 1.404 1_655 S
C589 H601 0.930 . S
C590 C586 1.524 . S
C590 H602 0.956 . S
C590 H603 0.961 1_655 S
C590 H604 0.961 . S
C591 C588 1.539 . S
C591 H605 0.958 . S
C591 H606 0.961 . S
C591 H607 0.960 . S
H592 C576 0.931 . S
H593 C581 0.929 . S
H594 C582 0.960 . S
H595 C582 0.962 . S
H596 C582 0.960 1_455 S
H597 C583 0.961 . S
H598 C583 0.961 . S
H599 C583 0.961 . S
H600 C584 0.931 . S
H601 C589 0.930 . S
H602 C590 0.956 . S
H603 C590 0.961 1_455 S
H604 C590 0.961 . S
H605 C591 0.958 . S
H606 C591 0.961 . S
H607 C591 0.960 . S
C608 C609 1.391 . S
C608 C610 1.394 . S
C608 H624 0.931 . S
C609 C608 1.391 . S
C609 C613 1.376 . S
C610 C608 1.394 . S
C610 C611 1.369 1_545 S
C610 C614 1.531 . S
C611 C610 1.369 1_565 S
C611 C612 1.410 . S
C611 C619 1.503 . S
C612 C611 1.410 . S
C612 C613 1.392 1_565 S
C612 C615 1.511 . S
C613 C609 1.376 . S
C613 C612 1.392 1_545 S
C613 H625 0.929 . S
C614 C610 1.531 . S
C614 H626 0.960 . S
C614 H627 0.962 . S
C614 H628 0.960 . S
C615 C612 1.511 . S
C615 H629 0.961 . S
C615 H630 0.961 . S
C615 H631 0.961 . S
C616 C617 1.370 . S
C616 C618 1.363 . S
C616 H632 0.931 . S
C617 C616 1.370 . S
C617 C621 1.408 . S
C618 C616 1.363 . S
C618 C619 1.370 . S
C618 C622 1.524 . S
C619 C611 1.503 . S
C619 C618 1.370 . S
C619 C620 1.403 . S
C620 C619 1.403 . S
C620 C621 1.404 . S
C620 C623 1.539 . S
C621 C617 1.408 . S
C621 C620 1.404 . S
C621 H633 0.930 . S
C622 C618 1.524 . S
C622 H634 0.956 . S
C622 H635 0.961 . S
C622 H636 0.961 . S
C623 C620 1.539 . S
C623 H637 0.958 1_565 S
C623 H638 0.961 . S
C623 H639 0.960 . S
H624 C608 0.931 . S
H625 C613 0.929 . S
H626 C614 0.960 . S
H627 C614 0.962 . S
H628 C614 0.960 . S
H629 C615 0.961 . S
H630 C615 0.961 . S
H631 C615 0.961 . S
H632 C616 0.931 . S
H633 C621 0.930 . S
H634 C622 0.956 . S
H635 C622 0.961 . S
H636 C622 0.961 . S
H637 C623 0.958 1_545 S
H638 C623 0.961 . S
H639 C623 0.960 . S
C640 C641 1.391 . S
C640 C642 1.394 . S
C640 H656 0.931 . S
C641 C640 1.391 . S
C641 C645 1.376 . S
C642 C640 1.394 . S
C642 C643 1.369 . S
C642 C646 1.531 . S
C643 C642 1.369 . S
C643 C644 1.410 . S
C643 C651 1.503 . S
C644 C643 1.410 . S
C644 C645 1.392 . S
C644 C647 1.511 . S
C645 C641 1.376 . S
C645 C644 1.392 . S
C645 H657 0.929 . S
C646 C642 1.531 . S
C646 H658 0.960 . S
C646 H659 0.962 . S
C646 H660 0.960 . S
C647 C644 1.511 . S
C647 H661 0.961 . S
C647 H662 0.961 . S
C647 H663 0.961 . S
C648 C649 1.370 . S
C648 C650 1.363 . S
C648 H664 0.931 . S
C649 C648 1.370 . S
C649 C653 1.408 . S
C650 C648 1.363 . S
C650 C651 1.370 . S
C650 C654 1.524 . S
C651 C643 1.503 . S
C651 C650 1.370 . S
C651 C652 1.403 . S
C652 C651 1.403 . S
C652 C653 1.404 . S
C652 C655 1.539 . S
C653 C649 1.408 . S
C653 C652 1.404 . S
C653 H665 0.930 . S
C654 C650 1.524 . S
C654 H666 0.956 . S
C654 H667 0.961 . S
C654 H668 0.961 . S
C655 C652 1.539 . S
C655 H669 0.958 . S
C655 H670 0.961 . S
C655 H671 0.960 . S
H656 C640 0.931 . S
H657 C645 0.929 . S
H658 C646 0.960 . S
H659 C646 0.962 . S
H660 C646 0.960 . S
H661 C647 0.961 . S
H662 C647 0.961 . S
H663 C647 0.961 . S
H664 C648 0.931 . S
H665 C653 0.930 . S
H666 C654 0.956 . S
H667 C654 0.961 . S
H668 C654 0.961 . S
H669 C655 0.958 . S
H670 C655 0.961 . S
H671 C655 0.960 . S
C672 C673 1.391 . S
C672 C674 1.394 . S
C672 H688 0.931 . S
C673 C672 1.391 . S
C673 C677 1.376 . S
C674 C672 1.394 . S
C674 C675 1.369 1_565 S
C674 C678 1.531 . S
C675 C674 1.369 1_545 S
C675 C676 1.410 . S
C675 C683 1.503 . S
C676 C675 1.410 . S
C676 C677 1.392 1_545 S
C676 C679 1.511 . S
C677 C673 1.376 . S
C677 C676 1.392 1_565 S
C677 H689 0.929 . S
C678 C674 1.531 . S
C678 H690 0.960 . S
C678 H691 0.962 . S
C678 H692 0.960 . S
C679 C676 1.511 . S
C679 H693 0.961 . S
C679 H694 0.961 . S
C679 H695 0.961 . S
C680 C681 1.370 . S
C680 C682 1.363 . S
C680 H696 0.931 . S
C681 C680 1.370 . S
C681 C685 1.408 . S
C682 C680 1.363 . S
C682 C683 1.370 . S
C682 C686 1.524 . S
C683 C675 1.503 . S
C683 C682 1.370 . S
C683 C684 1.403 . S
C684 C683 1.403 . S
C684 C685 1.404 . S
C684 C687 1.539 . S
C685 C681 1.408 . S
C685 C684 1.404 . S
C685 H697 0.930 . S
C686 C682 1.524 . S
C686 H698 0.956 1_545 S
C686 H699 0.961 . S
C686 H700 0.961 . S
C687 C684 1.539 . S
C687 H701 0.958 . S
C687 H702 0.961 . S
C687 H703 0.960 . S
H688 C672 0.931 . S
H689 C677 0.929 . S
H690 C678 0.960 . S
H691 C678 0.962 . S
H692 C678 0.960 . S
H693 C679 0.961 . S
H694 C679 0.961 . S
H695 C679 0.961 . S
H696 C680 0.931 . S
H697 C685 0.930 . S
H698 C686 0.956 1_565 S
H699 C686 0.961 . S
H700 C686 0.961 . S
H701 C687 0.958 . S
H702 C687 0.961 . S
H703 C687 0.960 . S
C704 C705 1.391 . S
C704 C706 1.394 . S
C704 H720 0.931 . S
C705 C704 1.391 . S
C705 C709 1.376 . S
C706 C704 1.394 . S
C706 C707 1.369 . S
C706 C710 1.531 . S
C707 C706 1.369 . S
C707 C708 1.410 . S
C707 C715 1.503 . S
C708 C707 1.410 . S
C708 C709 1.392 . S
C708 C711 1.511 . S
C709 C705 1.376 . S
C709 C708 1.392 . S
C709 H721 0.929 . S
C710 C706 1.531 . S
C710 H722 0.960 . S
C710 H723 0.962 . S
C710 H724 0.960 . S
C711 C708 1.511 . S
C711 H725 0.961 . S
C711 H726 0.961 . S
C711 H727 0.961 . S
C712 C713 1.370 . S
C712 C714 1.363 . S
C712 H728 0.931 . S
C713 C712 1.370 . S
C713 C717 1.408 . S
C714 C712 1.363 . S
C714 C715 1.370 . S
C714 C718 1.524 . S
C715 C707 1.503 . S
C715 C714 1.370 . S
C715 C716 1.403 . S
C716 C715 1.403 . S
C716 C717 1.404 . S
C716 C719 1.539 . S
C717 C713 1.408 . S
C717 C716 1.404 . S
C717 H729 0.930 . S
C718 C714 1.524 . S
C718 H730 0.956 . S
C718 H731 0.961 . S
C718 H732 0.961 . S
C719 C716 1.539 . S
C719 H733 0.958 . S
C719 H734 0.961 . S
C719 H735 0.960 . S
H720 C704 0.931 . S
H721 C709 0.929 . S
H722 C710 0.960 . S
H723 C710 0.962 . S
H724 C710 0.960 . S
H725 C711 0.961 . S
H726 C711 0.961 . S
H727 C711 0.961 . S
H728 C712 0.931 . S
H729 C717 0.930 . S
H730 C718 0.956 . S
H731 C718 0.961 . S
H732 C718 0.961 . S
H733 C719 0.958 . S
H734 C719 0.961 . S
H735 C719 0.960 . S
C736 C737 1.391 . S
C736 C738 1.394 . S
C736 H752 0.931 . S
C737 C736 1.391 . S
C737 C741 1.376 . S
C738 C736 1.394 . S
C738 C739 1.369 . S
C738 C742 1.531 . S
C739 C738 1.369 . S
C739 C740 1.410 . S
C739 C747 1.503 . S
C740 C739 1.410 . S
C740 C741 1.392 . S
C740 C743 1.511 . S
C741 C737 1.376 . S
C741 C740 1.392 . S
C741 H753 0.929 . S
C742 C738 1.531 . S
C742 H754 0.960 . S
C742 H755 0.962 . S
C742 H756 0.960 . S
C743 C740 1.511 . S
C743 H757 0.961 . S
C743 H758 0.961 1_655 S
C743 H759 0.961 . S
C744 C745 1.370 . S
C744 C746 1.363 . S
C744 H760 0.931 . S
C745 C744 1.370 . S
C745 C749 1.408 . S
C746 C744 1.363 . S
C746 C747 1.370 1_455 S
C746 C750 1.524 . S
C747 C739 1.503 . S
C747 C746 1.370 1_655 S
C747 C748 1.403 . S
C748 C747 1.403 . S
C748 C749 1.404 1_655 S
C748 C751 1.539 . S
C749 C745 1.408 . S
C749 C748 1.404 1_455 S
C749 H761 0.930 . S
C750 C746 1.524 . S
C750 H762 0.956 . S
C750 H763 0.961 . S
C750 H764 0.961 . S
C751 C748 1.539 . S
C751 H765 0.958 . S
C751 H766 0.961 . S
C751 H767 0.960 . S
H752 C736 0.931 . S
H753 C741 0.929 . S
H754 C742 0.960 . S
H755 C742 0.962 . S
H756 C742 0.960 . S
H757 C743 0.961 . S
H758 C743 0.961 1_455 S
H759 C743 0.961 . S
H760 C744 0.931 . S
H761 C749 0.930 . S
H762 C750 0.956 . S
H763 C750 0.961 . S
H764 C750 0.961 . S
H765 C751 0.958 . S
H766 C751 0.961 . S
H767 C751 0.960 . S
C768 C769 1.391 . S
C768 C770 1.394 . S
C768 H784 0.931 . S
C769 C768 1.391 . S
C769 C773 1.376 . S
C770 C768 1.394 . S
C770 C771 1.369 . S
C770 C774 1.531 . S
C771 C770 1.369 . S
C771 C772 1.410 . S
C771 C779 1.503 . S
C772 C771 1.410 . S
C772 C773 1.392 . S
C772 C775 1.511 1_545 S
C773 C769 1.376 . S
C773 C772 1.392 . S
C773 H785 0.929 . S
C774 C770 1.531 . S
C774 H786 0.960 . S
C774 H787 0.962 . S
C774 H788 0.960 . S
C775 C772 1.511 1_565 S
C775 H789 0.961 . S
C775 H790 0.961 . S
C775 H791 0.961 . S
C776 C777 1.370 . S
C776 C778 1.363 . S
C776 H792 0.931 . S
C777 C776 1.370 . S
C777 C781 1.408 . S
C778 C776 1.363 . S
C778 C779 1.370 1_565 S
C778 C782 1.524 . S
C779 C771 1.503 . S
C779 C778 1.370 1_545 S
C779 C780 1.403 . S
C780 C779 1.403 . S
C780 C781 1.404 1_545 S
C780 C783 1.539 . S
C781 C777 1.408 . S
C781 C780 1.404 1_565 S
C781 H793 0.930 . S
C782 C778 1.524 . S
C782 H794 0.956 1_565 S
C782 H795 0.961 . S
C782 H796 0.961 . S
C783 C780 1.539 . S
C783 H797 0.958 . S
C783 H798 0.961 . S
C783 H799 0.960 . S
H784 C768 0.931 . S
H785 C773 0.929 . S
H786 C774 0.960 . S
H787 C774 0.962 . S
H788 C774 0.960 . S
H789 C775 0.961 . S
H790 C775 0.961 . S
H791 C775 0.961 . S
H792 C776 0.931 . S
H793 C781 0.930 . S
H794 C782 0.956 1_545 S
H795 C782 0.961 . S
H796 C782 0.961 . S
H797 C783 0.958 . S
H798 C783 0.961 . S
H799 C783 0.960 . S
C800 C801 1.391 . S
C800 C802 1.394 . S
C800 H816 0.931 . S
C801 C800 1.391 . S
C801 C805 1.376 . S
C802 C800 1.394 . S
C802 C803 1.369 . S
C802 C806 1.531 . S
C803 C802 1.369 . S
C803 C804 1.410 . S
C803 C811 1.503 . S
C804 C803 1.410 . S
C804 C805 1.392 . S
C804 C807 1.511 . S
C805 C801 1.376 . S
C805 C804 1.392 . S
C805 H817 0.929 . S
C806 C802 1.531 . S
C806 H818 0.960 . S
C806 H819 0.962 . S
C806 H820 0.960 . S
C807 C804 1.511 . S
C807 H821 0.961 . S
C807 H822 0.961 . S
C807 H823 0.961 . S
C808 C809 1.370 . S
C808 C810 1.363 . S
C808 H824 0.931 . S
C809 C808 1.370 . S
C809 C813 1.408 . S
C810 C808 1.363 . S
C810 C811 1.370 . S
C810 C814 1.524 . S
C811 C803 1.503 . S
C811 C810 1.370 . S
C811 C812 1.403 . S
C812 C811 1.403 . S
C812 C813 1.404 . S
C812 C815 1.539 . S
C813 C809 1.408 . S
C813 C812 1.404 . S
C813 H825 0.930 . S
C814 C810 1.524 . S
C814 H826 0.956 . S
C814 H827 0.961 . S
C814 H828 0.961 . S
C815 C812 1.539 . S
C815 H829 0.958 . S
C815 H830 0.961 . S
C815 H831 0.960 . S
H816 C800 0.931 . S
H817 C805 0.929 . S
H818 C806 0.960 . S
H819 C806 0.962 . S
H820 C806 0.960 . S
H821 C807 0.961 . S
H822 C807 0.961 . S
H823 C807 0.961 . S
H824 C808 0.931 . S
H825 C813 0.930 . S
H826 C814 0.956 . S
H827 C814 0.961 . S
H828 C814 0.961 . S
H829 C815 0.958 . S
H830 C815 0.961 . S
H831 C815 0.960 . S
C832 C833 1.391 . S
C832 C834 1.394 1_455 S
C832 H848 0.931 . S
C833 C832 1.391 . S
C833 C837 1.376 . S
C834 C832 1.394 1_655 S
C834 C835 1.369 . S
C834 C838 1.531 . S
C835 C834 1.369 . S
C835 C836 1.410 1_655 S
C835 C843 1.503 . S
C836 C835 1.410 1_455 S
C836 C837 1.392 . S
C836 C839 1.511 1_455 S
C837 C833 1.376 . S
C837 C836 1.392 . S
C837 H849 0.929 . S
C838 C834 1.531 . S
C838 H850 0.960 . S
C838 H851 0.962 . S
C838 H852 0.960 . S
C839 C836 1.511 1_655 S
C839 H853 0.961 1_655 S
C839 H854 0.961 . S
C839 H855 0.961 . S
C840 C841 1.370 . S
C840 C842 1.363 . S
C840 H856 0.931 . S
C841 C840 1.370 . S
C841 C845 1.408 . S
C842 C840 1.363 . S
C842 C843 1.370 . S
C842 C846 1.524 1_655 S
C843 C835 1.503 . S
C843 C842 1.370 . S
C843 C844 1.403 . S
C844 C843 1.403 . S
C844 C845 1.404 . S
C844 C847 1.539 . S
C845 C841 1.408 . S
C845 C844 1.404 . S
C845 H857 0.930 . S
C846 C842 1.524 1_455 S
C846 H858 0.956 . S
C846 H859 0.961 . S
C846 H860 0.961 . S
C847 C844 1.539 . S
C847 H861 0.958 . S
C847 H862 0.961 . S
C847 H863 0.960 . S
H848 C832 0.931 . S
H849 C837 0.929 . S
H850 C838 0.960 . S
H851 C838 0.962 . S
H852 C838 0.960 . S
H853 C839 0.961 1_455 S
H854 C839 0.961 . S
H855 C839 0.961 . S
H856 C840 0.931 . S
H857 C845 0.930 . S
H858 C846 0.956 . S
H859 C846 0.961 . S
H860 C846 0.961 . S
H861 C847 0.958 . S
H862 C847 0.961 . S
H863 C847 0.960 . S
C864 C865 1.391 . S
C864 C866 1.394 . S
C864 H880 0.931 . S
C865 C864 1.391 . S
C865 C869 1.376 . S
C866 C864 1.394 . S
C866 C867 1.369 . S
C866 C870 1.531 . S
C867 C866 1.369 . S
C867 C868 1.410 . S
C867 C875 1.503 . S
C868 C867 1.410 . S
C868 C869 1.392 . S
C868 C871 1.511 . S
C869 C865 1.376 . S
C869 C868 1.392 . S
C869 H881 0.929 . S
C870 C866 1.531 . S
C870 H882 0.960 . S
C870 H883 0.962 . S
C870 H884 0.960 . S
C871 C868 1.511 . S
C871 H885 0.961 . S
C871 H886 0.961 . S
C871 H887 0.961 . S
C872 C873 1.370 . S
C872 C874 1.363 . S
C872 H888 0.931 . S
C873 C872 1.370 . S
C873 C877 1.408 . S
C874 C872 1.363 . S
C874 C875 1.370 . S
C874 C878 1.524 . S
C875 C867 1.503 . S
C875 C874 1.370 . S
C875 C876 1.403 . S
C876 C875 1.403 . S
C876 C877 1.404 . S
C876 C879 1.539 . S
C877 C873 1.408 . S
C877 C876 1.404 . S
C877 H889 0.930 . S
C878 C874 1.524 . S
C878 H890 0.956 . S
C878 H891 0.961 . S
C878 H892 0.961 . S
C879 C876 1.539 . S
C879 H893 0.958 . S
C879 H894 0.961 . S
C879 H895 0.960 . S
H880 C864 0.931 . S
H881 C869 0.929 . S
H882 C870 0.960 . S
H883 C870 0.962 . S
H884 C870 0.960 . S
H885 C871 0.961 . S
H886 C871 0.961 . S
H887 C871 0.961 . S
H888 C872 0.931 . S
H889 C877 0.930 . S
H890 C878 0.956 . S
H891 C878 0.961 . S
H892 C878 0.961 . S
H893 C879 0.958 . S
H894 C879 0.961 . S
H895 C879 0.960 . S
C896 C897 1.391 . S
C896 C898 1.394 . S
C896 H912 0.931 . S
C897 C896 1.391 . S
C897 C901 1.376 . S
C898 C896 1.394 . S
C898 C899 1.369 . S
C898 C902 1.531 . S
C899 C898 1.369 . S
C899 C900 1.410 . S
C899 C907 1.503 . S
C900 C899 1.410 . S
C900 C901 1.392 . S
C900 C903 1.511 . S
C901 C897 1.376 . S
C901 C900 1.392 . S
C901 H913 0.929 . S
C902 C898 1.531 . S
C902 H914 0.960 . S
C902 H915 0.962 . S
C902 H916 0.960 . S
C903 C900 1.511 . S
C903 H917 0.961 . S
C903 H918 0.961 . S
C903 H919 0.961 . S
C904 C905 1.370 . S
C904 C906 1.363 . S
C904 H920 0.931 . S
C905 C904 1.370 . S
C905 C909 1.408 . S
C906 C904 1.363 . S
C906 C907 1.370 . S
C906 C910 1.524 . S
C907 C899 1.503 . S
C907 C906 1.370 . S
C907 C908 1.403 . S
C908 C907 1.403 . S
C908 C909 1.404 . S
C908 C911 1.539 . S
C909 C905 1.408 . S
C909 C908 1.404 . S
C909 H921 0.930 . S
C910 C906 1.524 . S
C910 H922 0.956 . S
C910 H923 0.961 . S
C910 H924 0.961 . S
C911 C908 1.539 . S
C911 H925 0.958 . S
C911 H926 0.961 . S
C911 H927 0.960 . S
H912 C896 0.931 . S
H913 C901 0.929 . S
H914 C902 0.960 . S
H915 C902 0.962 . S
H916 C902 0.960 . S
H917 C903 0.961 . S
H918 C903 0.961 . S
H919 C903 0.961 . S
H920 C904 0.931 . S
H921 C909 0.930 . S
H922 C910 0.956 . S
H923 C910 0.961 . S
H924 C910 0.961 . S
H925 C911 0.958 . S
H926 C911 0.961 . S
H927 C911 0.960 . S
C928 C929 1.391 . S
C928 C930 1.394 . S
C928 H944 0.931 . S
C929 C928 1.391 . S
C929 C933 1.376 . S
C930 C928 1.394 . S
C930 C931 1.369 . S
C930 C934 1.531 . S
C931 C930 1.369 . S
C931 C932 1.410 . S
C931 C939 1.503 . S
C932 C931 1.410 . S
C932 C933 1.392 . S
C932 C935 1.511 . S
C933 C929 1.376 . S
C933 C932 1.392 . S
C933 H945 0.929 . S
C934 C930 1.531 . S
C934 H946 0.960 . S
C934 H947 0.962 . S
C934 H948 0.960 . S
C935 C932 1.511 . S
C935 H949 0.961 . S
C935 H950 0.961 . S
C935 H951 0.961 . S
C936 C937 1.370 . S
C936 C938 1.363 . S
C936 H952 0.931 . S
C937 C936 1.370 . S
C937 C941 1.408 . S
C938 C936 1.363 . S
C938 C939 1.370 . S
C938 C942 1.524 . S
C939 C931 1.503 . S
C939 C938 1.370 . S
C939 C940 1.403 . S
C940 C939 1.403 . S
C940 C941 1.404 . S
C940 C943 1.539 . S
C941 C937 1.408 . S
C941 C940 1.404 . S
C941 H953 0.930 . S
C942 C938 1.524 . S
C942 H954 0.956 . S
C942 H955 0.961 . S
C942 H956 0.961 . S
C943 C940 1.539 . S
C943 H957 0.958 . S
C943 H958 0.961 . S
C943 H959 0.960 . S
H944 C928 0.931 . S
H945 C933 0.929 . S
H946 C934 0.960 . S
H947 C934 0.962 . S
H948 C934 0.960 . S
H949 C935 0.961 . S
H950 C935 0.961 . S
H951 C935 0.961 . S
H952 C936 0.931 . S
H953 C941 0.930 . S
H954 C942 0.956 . S
H955 C942 0.961 . S
H956 C942 0.961 . S
H957 C943 0.958 . S
H958 C943 0.961 . S
H959 C943 0.960 . S
C960 C961 1.391 . S
C960 C962 1.394 . S
C960 H976 0.931 . S
C961 C960 1.391 . S
C961 C965 1.376 . S
C962 C960 1.394 . S
C962 C963 1.369 . S
C962 C966 1.531 . S
C963 C962 1.369 . S
C963 C964 1.410 . S
C963 C971 1.503 . S
C964 C963 1.410 . S
C964 C965 1.392 . S
C964 C967 1.511 . S
C965 C961 1.376 . S
C965 C964 1.392 . S
C965 H977 0.929 . S
C966 C962 1.531 . S
C966 H978 0.960 . S
C966 H979 0.962 . S
C966 H980 0.960 . S
C967 C964 1.511 . S
C967 H981 0.961 . S
C967 H982 0.961 . S
C967 H983 0.961 . S
C968 C969 1.370 . S
C968 C970 1.363 . S
C968 H984 0.931 . S
C969 C968 1.370 . S
C969 C973 1.408 . S
C970 C968 1.363 . S
C970 C971 1.370 . S
C970 C974 1.524 . S
C971 C963 1.503 . S
C971 C970 1.370 . S
C971 C972 1.403 . S
C972 C971 1.403 . S
C972 C973 1.404 . S
C972 C975 1.539 . S
C973 C969 1.408 . S
C973 C972 1.404 . S
C973 H985 0.930 . S
C974 C970 1.524 . S
C974 H986 0.956 . S
C974 H987 0.961 . S
C974 H988 0.961 . S
C975 C972 1.539 . S
C975 H989 0.958 . S
C975 H990 0.961 . S
C975 H991 0.960 . S
H976 C960 0.931 . S
H977 C965 0.929 . S
H978 C966 0.960 . S
H979 C966 0.962 . S
H980 C966 0.960 . S
H981 C967 0.961 . S
H982 C967 0.961 . S
H983 C967 0.961 . S
H984 C968 0.931 . S
H985 C973 0.930 . S
H986 C974 0.956 . S
H987 C974 0.961 . S
H988 C974 0.961 . S
H989 C975 0.958 . S
H990 C975 0.961 . S
H991 C975 0.960 . S
C992 C993 1.391 . S
C992 C994 1.394 . S
C992 H1008 0.931 . S
C993 C992 1.391 . S
C993 C997 1.376 . S
C994 C992 1.394 . S
C994 C995 1.369 . S
C994 C998 1.531 . S
C995 C994 1.369 . S
C995 C996 1.410 . S
C995 C1003 1.503 . S
C996 C995 1.410 . S
C996 C997 1.392 . S
C996 C999 1.511 . S
C997 C993 1.376 . S
C997 C996 1.392 . S
C997 H1009 0.929 . S
C998 C994 1.531 . S
C998 H1010 0.960 . S
C998 H1011 0.962 . S
C998 H1012 0.960 . S
C999 C996 1.511 . S
C999 H1013 0.961 . S
C999 H1014 0.961 . S
C999 H1015 0.961 . S
C1000 C1001 1.370 . S
C1000 C1002 1.363 . S
C1000 H1016 0.931 . S
C1001 C1000 1.370 . S
C1001 C1005 1.408 . S
C1002 C1000 1.363 . S
C1002 C1003 1.370 . S
C1002 C1006 1.524 . S
C1003 C995 1.503 . S
C1003 C1002 1.370 . S
C1003 C1004 1.403 . S
C1004 C1003 1.403 . S
C1004 C1005 1.404 . S
C1004 C1007 1.539 . S
C1005 C1001 1.408 . S
C1005 C1004 1.404 . S
C1005 H1017 0.930 . S
C1006 C1002 1.524 . S
C1006 H1018 0.956 . S
C1006 H1019 0.961 . S
C1006 H1020 0.961 . S
C1007 C1004 1.539 . S
C1007 H1021 0.958 . S
C1007 H1022 0.961 . S
C1007 H1023 0.960 . S
H1008 C992 0.931 . S
H1009 C997 0.929 . S
H1010 C998 0.960 . S
H1011 C998 0.962 . S
H1012 C998 0.960 . S
H1013 C999 0.961 . S
H1014 C999 0.961 . S
H1015 C999 0.961 . S
H1016 C1000 0.931 . S
H1017 C1005 0.930 . S
H1018 C1006 0.956 . S
H1019 C1006 0.961 . S
H1020 C1006 0.961 . S
H1021 C1007 0.958 . S
H1022 C1007 0.961 . S
H1023 C1007 0.960 . S
C1024 C1025 1.391 . S
C1024 C1026 1.394 . S
C1024 H1040 0.931 . S
C1025 C1024 1.391 . S
C1025 C1029 1.376 . S
C1026 C1024 1.394 . S
C1026 C1027 1.369 . S
C1026 C1030 1.531 . S
C1027 C1026 1.369 . S
C1027 C1028 1.410 . S
C1027 C1035 1.503 . S
C1028 C1027 1.410 . S
C1028 C1029 1.392 . S
C1028 C1031 1.511 . S
C1029 C1025 1.376 . S
C1029 C1028 1.392 . S
C1029 H1041 0.929 . S
C1030 C1026 1.531 . S
C1030 H1042 0.960 . S
C1030 H1043 0.962 . S
C1030 H1044 0.960 . S
C1031 C1028 1.511 . S
C1031 H1045 0.961 . S
C1031 H1046 0.961 . S
C1031 H1047 0.961 . S
C1032 C1033 1.370 . S
C1032 C1034 1.363 . S
C1032 H1048 0.931 . S
C1033 C1032 1.370 . S
C1033 C1037 1.408 . S
C1034 C1032 1.363 . S
C1034 C1035 1.370 . S
C1034 C1038 1.524 . S
C1035 C1027 1.503 . S
C1035 C1034 1.370 . S
C1035 C1036 1.403 . S
C1036 C1035 1.403 . S
C1036 C1037 1.404 . S
C1036 C1039 1.539 . S
C1037 C1033 1.408 . S
C1037 C1036 1.404 . S
C1037 H1049 0.930 . S
C1038 C1034 1.524 . S
C1038 H1050 0.956 . S
C1038 H1051 0.961 . S
C1038 H1052 0.961 . S
C1039 C1036 1.539 . S
C1039 H1053 0.958 . S
C1039 H1054 0.961 . S
C1039 H1055 0.960 . S
H1040 C1024 0.931 . S
H1041 C1029 0.929 . S
H1042 C1030 0.960 . S
H1043 C1030 0.962 . S
H1044 C1030 0.960 . S
H1045 C1031 0.961 . S
H1046 C1031 0.961 . S
H1047 C1031 0.961 . S
H1048 C1032 0.931 . S
H1049 C1037 0.930 . S
H1050 C1038 0.956 . S
H1051 C1038 0.961 . S
H1052 C1038 0.961 . S
H1053 C1039 0.958 . S
H1054 C1039 0.961 . S
H1055 C1039 0.960 . S
C1056 C1057 1.391 . S
C1056 C1058 1.394 . S
C1056 H1072 0.931 . S
C1057 C1056 1.391 . S
C1057 C1061 1.376 . S
C1058 C1056 1.394 . S
C1058 C1059 1.369 . S
C1058 C1062 1.531 1_556 S
C1059 C1058 1.369 . S
C1059 C1060 1.410 . S
C1059 C1067 1.503 1_566 S
C1060 C1059 1.410 . S
C1060 C1061 1.392 . S
C1060 C1063 1.511 1_565 S
C1061 C1057 1.376 . S
C1061 C1060 1.392 . S
C1061 H1073 0.929 . S
C1062 C1058 1.531 1_554 S
C1062 H1074 0.960 . S
C1062 H1075 0.962 . S
C1062 H1076 0.960 1_554 S
C1063 C1060 1.511 1_545 S
C1063 H1077 0.961 1_545 S
C1063 H1078 0.961 . S
C1063 H1079 0.961 . S
C1064 C1065 1.370 . S
C1064 C1066 1.363 . S
C1064 H1080 0.931 . S
C1065 C1064 1.370 . S
C1065 C1069 1.408 . S
C1066 C1064 1.363 . S
C1066 C1067 1.370 . S
C1066 C1070 1.524 1_545 S
C1067 C1059 1.503 1_544 S
C1067 C1066 1.370 . S
C1067 C1068 1.403 1_554 S
C1068 C1067 1.403 1_556 S
C1068 C1069 1.404 1_556 S
C1068 C1071 1.539 . S
C1069 C1065 1.408 . S
C1069 C1068 1.404 1_554 S
C1069 H1081 0.930 . S
C1070 C1066 1.524 1_565 S
C1070 H1082 0.956 . S
C1070 H1083 0.961 . S
C1070 H1084 0.961 . S
C1071 C1068 1.539 . S
C1071 H1085 0.958 . S
C1071 H1086 0.961 . S
C1071 H1087 0.960 . S
H1072 C1056 0.931 . S
H1073 C1061 0.929 . S
H1074 C1062 0.960 . S
H1075 C1062 0.962 . S
H1076 C1062 0.960 1_556 S
H1077 C1063 0.961 1_565 S
H1078 C1063 0.961 . S
H1079 C1063 0.961 . S
H1080 C1064 0.931 . S
H1081 C1069 0.930 . S
H1082 C1070 0.956 . S
H1083 C1070 0.961 . S
H1084 C1070 0.961 . S
H1085 C1071 0.958 . S
H1086 C1071 0.961 . S
H1087 C1071 0.960 . S
C1088 C1089 1.391 . S
C1088 C1090 1.394 . S
C1088 H1104 0.931 . S
C1089 C1088 1.391 . S
C1089 C1093 1.376 . S
C1090 C1088 1.394 . S
C1090 C1091 1.369 . S
C1090 C1094 1.531 . S
C1091 C1090 1.369 . S
C1091 C1092 1.410 . S
C1091 C1099 1.503 . S
C1092 C1091 1.410 . S
C1092 C1093 1.392 . S
C1092 C1095 1.511 . S
C1093 C1089 1.376 . S
C1093 C1092 1.392 . S
C1093 H1105 0.929 . S
C1094 C1090 1.531 . S
C1094 H1106 0.960 . S
C1094 H1107 0.962 . S
C1094 H1108 0.960 . S
C1095 C1092 1.511 . S
C1095 H1109 0.961 . S
C1095 H1110 0.961 . S
C1095 H1111 0.961 . S
C1096 C1097 1.370 . S
C1096 C1098 1.363 . S
C1096 H1112 0.931 . S
C1097 C1096 1.370 . S
C1097 C1101 1.408 . S
C1098 C1096 1.363 . S
C1098 C1099 1.370 . S
C1098 C1102 1.524 . S
C1099 C1091 1.503 . S
C1099 C1098 1.370 . S
C1099 C1100 1.403 . S
C1100 C1099 1.403 . S
C1100 C1101 1.404 . S
C1100 C1103 1.539 . S
C1101 C1097 1.408 . S
C1101 C1100 1.404 . S
C1101 H1113 0.930 . S
C1102 C1098 1.524 . S
C1102 H1114 0.956 . S
C1102 H1115 0.961 . S
C1102 H1116 0.961 . S
C1103 C1100 1.539 . S
C1103 H1117 0.958 . S
C1103 H1118 0.961 . S
C1103 H1119 0.960 . S
H1104 C1088 0.931 . S
H1105 C1093 0.929 . S
H1106 C1094 0.960 . S
H1107 C1094 0.962 . S
H1108 C1094 0.960 . S
H1109 C1095 0.961 . S
H1110 C1095 0.961 . S
H1111 C1095 0.961 . S
H1112 C1096 0.931 . S
H1113 C1101 0.930 . S
H1114 C1102 0.956 . S
H1115 C1102 0.961 . S
H1116 C1102 0.961 . S
H1117 C1103 0.958 . S
H1118 C1103 0.961 . S
H1119 C1103 0.960 . S
C1120 C1121 1.391 . S
C1120 C1122 1.394 . S
C1120 H1136 0.931 . S
C1121 C1120 1.391 . S
C1121 C1125 1.376 . S
C1122 C1120 1.394 . S
C1122 C1123 1.369 . S
C1122 C1126 1.531 1_455 S
C1123 C1122 1.369 . S
C1123 C1124 1.410 1_556 S
C1123 C1131 1.503 1_456 S
C1124 C1123 1.410 1_554 S
C1124 C1125 1.392 1_554 S
C1124 C1127 1.511 . S
C1125 C1121 1.376 . S
C1125 C1124 1.392 1_556 S
C1125 H1137 0.929 . S
C1126 C1122 1.531 1_655 S
C1126 H1138 0.960 . S
C1126 H1139 0.962 . S
C1126 H1140 0.960 . S
C1127 C1124 1.511 . S
C1127 H1141 0.961 . S
C1127 H1142 0.961 . S
C1127 H1143 0.961 . S
C1128 C1129 1.370 . S
C1128 C1130 1.363 . S
C1128 H1144 0.931 . S
C1129 C1128 1.370 . S
C1129 C1133 1.408 . S
C1130 C1128 1.363 . S
C1130 C1131 1.370 . S
C1130 C1134 1.524 1_554 S
C1131 C1123 1.503 1_654 S
C1131 C1130 1.370 . S
C1131 C1132 1.403 . S
C1132 C1131 1.403 . S
C1132 C1133 1.404 . S
C1132 C1135 1.539 . S
C1133 C1129 1.408 . S
C1133 C1132 1.404 . S
C1133 H1145 0.930 . S
C1134 C1130 1.524 1_556 S
C1134 H1146 0.956 . S
C1134 H1147 0.961 1_656 S
C1134 H1148 0.961 1_556 S
C1135 C1132 1.539 . S
C1135 H1149 0.958 . S
C1135 H1150 0.961 . S
C1135 H1151 0.960 1_655 S
H1136 C1120 0.931 . S
H1137 C1125 0.929 . S
H1138 C1126 0.960 . S
H1139 C1126 0.962 . S
H1140 C1126 0.960 . S
H1141 C1127 0.961 . S
H1142 C1127 0.961 . S
H1143 C1127 0.961 . S
H1144 C1128 0.931 . S
H1145 C1133 0.930 . S
H1146 C1134 0.956 . S
H1147 C1134 0.961 1_454 S
H1148 C1134 0.961 1_554 S
H1149 C1135 0.958 . S
H1150 C1135 0.961 . S
H1151 C1135 0.960 1_455 S
C1152 C1153 1.391 . S
C1152 C1154 1.394 . S
C1152 H1168 0.931 . S
C1153 C1152 1.391 . S
C1153 C1157 1.376 . S
C1154 C1152 1.394 . S
C1154 C1155 1.369 . S
C1154 C1158 1.531 . S
C1155 C1154 1.369 . S
C1155 C1156 1.410 . S
C1155 C1163 1.503 1_545 S
C1156 C1155 1.410 . S
C1156 C1157 1.392 . S
C1156 C1159 1.511 . S
C1157 C1153 1.376 . S
C1157 C1156 1.392 . S
C1157 H1169 0.929 . S
C1158 C1154 1.531 . S
C1158 H1170 0.960 . S
C1158 H1171 0.962 . S
C1158 H1172 0.960 . S
C1159 C1156 1.511 . S
C1159 H1173 0.961 . S
C1159 H1174 0.961 1_545 S
C1159 H1175 0.961 . S
C1160 C1161 1.370 . S
C1160 C1162 1.363 . S
C1160 H1176 0.931 . S
C1161 C1160 1.370 . S
C1161 C1165 1.408 . S
C1162 C1160 1.363 . S
C1162 C1163 1.370 . S
C1162 C1166 1.524 . S
C1163 C1155 1.503 1_565 S
C1163 C1162 1.370 . S
C1163 C1164 1.403 . S
C1164 C1163 1.403 . S
C1164 C1165 1.404 . S
C1164 C1167 1.539 1_565 S
C1165 C1161 1.408 . S
C1165 C1164 1.404 . S
C1165 H1177 0.930 . S
C1166 C1162 1.524 . S
C1166 H1178 0.956 . S
C1166 H1179 0.961 . S
C1166 H1180 0.961 . S
C1167 C1164 1.539 1_545 S
C1167 H1181 0.958 . S
C1167 H1182 0.961 . S
C1167 H1183 0.960 . S
H1168 C1152 0.931 . S
H1169 C1157 0.929 . S
H1170 C1158 0.960 . S
H1171 C1158 0.962 . S
H1172 C1158 0.960 . S
H1173 C1159 0.961 . S
H1174 C1159 0.961 1_565 S
H1175 C1159 0.961 . S
H1176 C1160 0.931 . S
H1177 C1165 0.930 . S
H1178 C1166 0.956 . S
H1179 C1166 0.961 . S
H1180 C1166 0.961 . S
H1181 C1167 0.958 . S
H1182 C1167 0.961 . S
H1183 C1167 0.960 . S
C1184 C1185 1.391 . S
C1184 C1186 1.394 . S
C1184 H1200 0.931 . S
C1185 C1184 1.391 . S
C1185 C1189 1.376 . S
C1186 C1184 1.394 . S
C1186 C1187 1.369 . S
C1186 C1190 1.531 1_554 S
C1187 C1186 1.369 . S
C1187 C1188 1.410 . S
C1187 C1195 1.503 1_554 S
C1188 C1187 1.410 . S
C1188 C1189 1.392 . S
C1188 C1191 1.511 . S
C1189 C1185 1.376 . S
C1189 C1188 1.392 . S
C1189 H1201 0.929 . S
C1190 C1186 1.531 1_556 S
C1190 H1202 0.960 . S
C1190 H1203 0.962 . S
C1190 H1204 0.960 . S
C1191 C1188 1.511 . S
C1191 H1205 0.961 . S
C1191 H1206 0.961 . S
C1191 H1207 0.961 . S
C1192 C1193 1.370 . S
C1192 C1194 1.363 . S
C1192 H1208 0.931 . S
C1193 C1192 1.370 . S
C1193 C1197 1.408 . S
C1194 C1192 1.363 . S
C1194 C1195 1.370 . S
C1194 C1198 1.524 . S
C1195 C1187 1.503 1_556 S
C1195 C1194 1.370 . S
C1195 C1196 1.403 . S
C1196 C1195 1.403 . S
C1196 C1197 1.404 . S
C1196 C1199 1.539 1_556 S
C1197 C1193 1.408 . S
C1197 C1196 1.404 . S
C1197 H1209 0.930 . S
C1198 C1194 1.524 . S
C1198 H1210 0.956 . S
C1198 H1211 0.961 . S
C1198 H1212 0.961 . S
C1199 C1196 1.539 1_554 S
C1199 H1213 0.958 . S
C1199 H1214 0.961 . S
C1199 H1215 0.960 . S
H1200 C1184 0.931 . S
H1201 C1189 0.929 . S
H1202 C1190 0.960 . S
H1203 C1190 0.962 . S
H1204 C1190 0.960 . S
H1205 C1191 0.961 . S
H1206 C1191 0.961 . S
H1207 C1191 0.961 . S
H1208 C1192 0.931 . S
H1209 C1197 0.930 . S
H1210 C1198 0.956 . S
H1211 C1198 0.961 . S
H1212 C1198 0.961 . S
H1213 C1199 0.958 . S
H1214 C1199 0.961 . S
H1215 C1199 0.960 . S
C1216 C1217 1.391 . S
C1216 C1218 1.394 . S
C1216 H1232 0.931 . S
C1217 C1216 1.391 . S
C1217 C1221 1.376 . S
C1218 C1216 1.394 . S
C1218 C1219 1.369 . S
C1218 C1222 1.531 . S
C1219 C1218 1.369 . S
C1219 C1220 1.410 . S
C1219 C1227 1.503 1_455 S
C1220 C1219 1.410 . S
C1220 C1221 1.392 . S
C1220 C1223 1.511 . S
C1221 C1217 1.376 . S
C1221 C1220 1.392 . S
C1221 H1233 0.929 . S
C1222 C1218 1.531 . S
C1222 H1234 0.960 1_455 S
C1222 H1235 0.962 1_455 S
C1222 H1236 0.960 . S
C1223 C1220 1.511 . S
C1223 H1237 0.961 . S
C1223 H1238 0.961 . S
C1223 H1239 0.961 . S
C1224 C1225 1.370 . S
C1224 C1226 1.363 . S
C1224 H1240 0.931 . S
C1225 C1224 1.370 . S
C1225 C1229 1.408 . S
C1226 C1224 1.363 . S
C1226 C1227 1.370 . S
C1226 C1230 1.524 . S
C1227 C1219 1.503 1_655 S
C1227 C1226 1.370 . S
C1227 C1228 1.403 . S
C1228 C1227 1.403 . S
C1228 C1229 1.404 . S
C1228 C1231 1.539 1_655 S
C1229 C1225 1.408 . S
C1229 C1228 1.404 . S
C1229 H1241 0.930 . S
C1230 C1226 1.524 . S
C1230 H1242 0.956 . S
C1230 H1243 0.961 . S
C1230 H1244 0.961 . S
C1231 C1228 1.539 1_455 S
C1231 H1245 0.958 . S
C1231 H1246 0.961 . S
C1231 H1247 0.960 . S
H1232 C1216 0.931 . S
H1233 C1221 0.929 . S
H1234 C1222 0.960 1_655 S
H1235 C1222 0.962 1_655 S
H1236 C1222 0.960 . S
H1237 C1223 0.961 . S
H1238 C1223 0.961 . S
H1239 C1223 0.961 . S
H1240 C1224 0.931 . S
H1241 C1229 0.930 . S
H1242 C1230 0.956 . S
H1243 C1230 0.961 . S
H1244 C1230 0.961 . S
H1245 C1231 0.958 . S
H1246 C1231 0.961 . S
H1247 C1231 0.960 . S
C1248 C1249 1.391 . S
C1248 C1250 1.394 . S
C1248 H1264 0.931 . S
C1249 C1248 1.391 . S
C1249 C1253 1.376 . S
C1250 C1248 1.394 . S
C1250 C1251 1.369 . S
C1250 C1254 1.531 . S
C1251 C1250 1.369 . S
C1251 C1252 1.410 . S
C1251 C1259 1.503 . S
C1252 C1251 1.410 . S
C1252 C1253 1.392 . S
C1252 C1255 1.511 . S
C1253 C1249 1.376 . S
C1253 C1252 1.392 . S
C1253 H1265 0.929 . S
C1254 C1250 1.531 . S
C1254 H1266 0.960 . S
C1254 H1267 0.962 . S
C1254 H1268 0.960 . S
C1255 C1252 1.511 . S
C1255 H1269 0.961 . S
C1255 H1270 0.961 . S
C1255 H1271 0.961 . S
C1256 C1257 1.370 . S
C1256 C1258 1.363 . S
C1256 H1272 0.931 . S
C1257 C1256 1.370 . S
C1257 C1261 1.408 . S
C1258 C1256 1.363 . S
C1258 C1259 1.370 . S
C1258 C1262 1.524 . S
C1259 C1251 1.503 . S
C1259 C1258 1.370 . S
C1259 C1260 1.403 . S
C1260 C1259 1.403 . S
C1260 C1261 1.404 . S
C1260 C1263 1.539 . S
C1261 C1257 1.408 . S
C1261 C1260 1.404 . S
C1261 H1273 0.930 . S
C1262 C1258 1.524 . S
C1262 H1274 0.956 . S
C1262 H1275 0.961 . S
C1262 H1276 0.961 . S
C1263 C1260 1.539 . S
C1263 H1277 0.958 . S
C1263 H1278 0.961 . S
C1263 H1279 0.960 . S
H1264 C1248 0.931 . S
H1265 C1253 0.929 . S
H1266 C1254 0.960 . S
H1267 C1254 0.962 . S
H1268 C1254 0.960 . S
H1269 C1255 0.961 . S
H1270 C1255 0.961 . S
H1271 C1255 0.961 . S
H1272 C1256 0.931 . S
H1273 C1261 0.930 . S
H1274 C1262 0.956 . S
H1275 C1262 0.961 . S
H1276 C1262 0.961 . S
H1277 C1263 0.958 . S
H1278 C1263 0.961 . S
H1279 C1263 0.960 . S
C1280 C1281 1.391 . S
C1280 C1282 1.394 . S
C1280 H1296 0.931 . S
C1281 C1280 1.391 . S
C1281 C1285 1.376 . S
C1282 C1280 1.394 . S
C1282 C1283 1.369 . S
C1282 C1286 1.531 . S
C1283 C1282 1.369 . S
C1283 C1284 1.410 . S
C1283 C1291 1.503 . S
C1284 C1283 1.410 . S
C1284 C1285 1.392 . S
C1284 C1287 1.511 . S
C1285 C1281 1.376 . S
C1285 C1284 1.392 . S
C1285 H1297 0.929 . S
C1286 C1282 1.531 . S
C1286 H1298 0.960 . S
C1286 H1299 0.962 . S
C1286 H1300 0.960 . S
C1287 C1284 1.511 . S
C1287 H1301 0.961 . S
C1287 H1302 0.961 . S
C1287 H1303 0.961 . S
C1288 C1289 1.370 . S
C1288 C1290 1.363 . S
C1288 H1304 0.931 . S
C1289 C1288 1.370 . S
C1289 C1293 1.408 . S
C1290 C1288 1.363 . S
C1290 C1291 1.370 . S
C1290 C1294 1.524 . S
C1291 C1283 1.503 . S
C1291 C1290 1.370 . S
C1291 C1292 1.403 . S
C1292 C1291 1.403 . S
C1292 C1293 1.404 . S
C1292 C1295 1.539 . S
C1293 C1289 1.408 . S
C1293 C1292 1.404 . S
C1293 H1305 0.930 . S
C1294 C1290 1.524 . S
C1294 H1306 0.956 . S
C1294 H1307 0.961 . S
C1294 H1308 0.961 . S
C1295 C1292 1.539 . S
C1295 H1309 0.958 . S
C1295 H1310 0.961 . S
C1295 H1311 0.960 . S
H1296 C1280 0.931 . S
H1297 C1285 0.929 . S
H1298 C1286 0.960 . S
H1299 C1286 0.962 . S
H1300 C1286 0.960 . S
H1301 C1287 0.961 . S
H1302 C1287 0.961 . S
H1303 C1287 0.961 . S
H1304 C1288 0.931 . S
H1305 C1293 0.930 . S
H1306 C1294 0.956 . S
H1307 C1294 0.961 . S
H1308 C1294 0.961 . S
H1309 C1295 0.958 . S
H1310 C1295 0.961 . S
H1311 C1295 0.960 . S
C1312 C1313 1.391 . S
C1312 C1314 1.394 . S
C1312 H1328 0.931 . S
C1313 C1312 1.391 . S
C1313 C1317 1.376 . S
C1314 C1312 1.394 . S
C1314 C1315 1.369 . S
C1314 C1318 1.531 . S
C1315 C1314 1.369 . S
C1315 C1316 1.410 . S
C1315 C1323 1.503 . S
C1316 C1315 1.410 . S
C1316 C1317 1.392 . S
C1316 C1319 1.511 . S
C1317 C1313 1.376 . S
C1317 C1316 1.392 . S
C1317 H1329 0.929 . S
C1318 C1314 1.531 . S
C1318 H1330 0.960 . S
C1318 H1331 0.962 . S
C1318 H1332 0.960 . S
C1319 C1316 1.511 . S
C1319 H1333 0.961 . S
C1319 H1334 0.961 . S
C1319 H1335 0.961 . S
C1320 C1321 1.370 . S
C1320 C1322 1.363 . S
C1320 H1336 0.931 . S
C1321 C1320 1.370 . S
C1321 C1325 1.408 . S
C1322 C1320 1.363 . S
C1322 C1323 1.370 . S
C1322 C1326 1.524 . S
C1323 C1315 1.503 . S
C1323 C1322 1.370 . S
C1323 C1324 1.403 . S
C1324 C1323 1.403 . S
C1324 C1325 1.404 . S
C1324 C1327 1.539 . S
C1325 C1321 1.408 . S
C1325 C1324 1.404 . S
C1325 H1337 0.930 . S
C1326 C1322 1.524 . S
C1326 H1338 0.956 . S
C1326 H1339 0.961 . S
C1326 H1340 0.961 . S
C1327 C1324 1.539 . S
C1327 H1341 0.958 . S
C1327 H1342 0.961 . S
C1327 H1343 0.960 . S
H1328 C1312 0.931 . S
H1329 C1317 0.929 . S
H1330 C1318 0.960 . S
H1331 C1318 0.962 . S
H1332 C1318 0.960 . S
H1333 C1319 0.961 . S
H1334 C1319 0.961 . S
H1335 C1319 0.961 . S
H1336 C1320 0.931 . S
H1337 C1325 0.930 . S
H1338 C1326 0.956 . S
H1339 C1326 0.961 . S
H1340 C1326 0.961 . S
H1341 C1327 0.958 . S
H1342 C1327 0.961 . S
H1343 C1327 0.960 . S
C1344 C1345 1.391 . S
C1344 C1346 1.394 . S
C1344 H1360 0.931 . S
C1345 C1344 1.391 . S
C1345 C1349 1.376 . S
C1346 C1344 1.394 . S
C1346 C1347 1.369 . S
C1346 C1350 1.531 . S
C1347 C1346 1.369 . S
C1347 C1348 1.410 . S
C1347 C1355 1.503 . S
C1348 C1347 1.410 . S
C1348 C1349 1.392 . S
C1348 C1351 1.511 . S
C1349 C1345 1.376 . S
C1349 C1348 1.392 . S
C1349 H1361 0.929 . S
C1350 C1346 1.531 . S
C1350 H1362 0.960 . S
C1350 H1363 0.962 . S
C1350 H1364 0.960 . S
C1351 C1348 1.511 . S
C1351 H1365 0.961 . S
C1351 H1366 0.961 . S
C1351 H1367 0.961 . S
C1352 C1353 1.370 . S
C1352 C1354 1.363 . S
C1352 H1368 0.931 . S
C1353 C1352 1.370 . S
C1353 C1357 1.408 . S
C1354 C1352 1.363 . S
C1354 C1355 1.370 . S
C1354 C1358 1.524 . S
C1355 C1347 1.503 . S
C1355 C1354 1.370 . S
C1355 C1356 1.403 . S
C1356 C1355 1.403 . S
C1356 C1357 1.404 . S
C1356 C1359 1.539 . S
C1357 C1353 1.408 . S
C1357 C1356 1.404 . S
C1357 H1369 0.930 . S
C1358 C1354 1.524 . S
C1358 H1370 0.956 . S
C1358 H1371 0.961 . S
C1358 H1372 0.961 . S
C1359 C1356 1.539 . S
C1359 H1373 0.958 . S
C1359 H1374 0.961 . S
C1359 H1375 0.960 . S
H1360 C1344 0.931 . S
H1361 C1349 0.929 . S
H1362 C1350 0.960 . S
H1363 C1350 0.962 . S
H1364 C1350 0.960 . S
H1365 C1351 0.961 . S
H1366 C1351 0.961 . S
H1367 C1351 0.961 . S
H1368 C1352 0.931 . S
H1369 C1357 0.930 . S
H1370 C1358 0.956 . S
H1371 C1358 0.961 . S
H1372 C1358 0.961 . S
H1373 C1359 0.958 . S
H1374 C1359 0.961 . S
H1375 C1359 0.960 . S
C1376 C1377 1.391 . S
C1376 C1378 1.394 . S
C1376 H1392 0.931 . S
C1377 C1376 1.391 . S
C1377 C1381 1.376 . S
C1378 C1376 1.394 . S
C1378 C1379 1.369 . S
C1378 C1382 1.531 . S
C1379 C1378 1.369 . S
C1379 C1380 1.410 . S
C1379 C1387 1.503 . S
C1380 C1379 1.410 . S
C1380 C1381 1.392 . S
C1380 C1383 1.511 . S
C1381 C1377 1.376 . S
C1381 C1380 1.392 . S
C1381 H1393 0.929 . S
C1382 C1378 1.531 . S
C1382 H1394 0.960 . S
C1382 H1395 0.962 . S
C1382 H1396 0.960 . S
C1383 C1380 1.511 . S
C1383 H1397 0.961 . S
C1383 H1398 0.961 . S
C1383 H1399 0.961 . S
C1384 C1385 1.370 . S
C1384 C1386 1.363 . S
C1384 H1400 0.931 . S
C1385 C1384 1.370 . S
C1385 C1389 1.408 . S
C1386 C1384 1.363 . S
C1386 C1387 1.370 . S
C1386 C1390 1.524 . S
C1387 C1379 1.503 . S
C1387 C1386 1.370 . S
C1387 C1388 1.403 . S
C1388 C1387 1.403 . S
C1388 C1389 1.404 . S
C1388 C1391 1.539 . S
C1389 C1385 1.408 . S
C1389 C1388 1.404 . S
C1389 H1401 0.930 . S
C1390 C1386 1.524 . S
C1390 H1402 0.956 . S
C1390 H1403 0.961 . S
C1390 H1404 0.961 . S
C1391 C1388 1.539 . S
C1391 H1405 0.958 . S
C1391 H1406 0.961 . S
C1391 H1407 0.960 . S
H1392 C1376 0.931 . S
H1393 C1381 0.929 . S
H1394 C1382 0.960 . S
H1395 C1382 0.962 . S
H1396 C1382 0.960 . S
H1397 C1383 0.961 . S
H1398 C1383 0.961 . S
H1399 C1383 0.961 . S
H1400 C1384 0.931 . S
H1401 C1389 0.930 . S
H1402 C1390 0.956 . S
H1403 C1390 0.961 . S
H1404 C1390 0.961 . S
H1405 C1391 0.958 . S
H1406 C1391 0.961 . S
H1407 C1391 0.960 . S
C1408 C1409 1.391 . S
C1408 C1410 1.394 . S
C1408 H1424 0.931 . S
C1409 C1408 1.391 . S
C1409 C1413 1.376 . S
C1410 C1408 1.394 . S
C1410 C1411 1.369 . S
C1410 C1414 1.531 . S
C1411 C1410 1.369 . S
C1411 C1412 1.410 . S
C1411 C1419 1.503 . S
C1412 C1411 1.410 . S
C1412 C1413 1.392 . S
C1412 C1415 1.511 . S
C1413 C1409 1.376 . S
C1413 C1412 1.392 . S
C1413 H1425 0.929 . S
C1414 C1410 1.531 . S
C1414 H1426 0.960 . S
C1414 H1427 0.962 . S
C1414 H1428 0.960 . S
C1415 C1412 1.511 . S
C1415 H1429 0.961 . S
C1415 H1430 0.961 . S
C1415 H1431 0.961 . S
C1416 C1417 1.370 . S
C1416 C1418 1.363 . S
C1416 H1432 0.931 . S
C1417 C1416 1.370 . S
C1417 C1421 1.408 . S
C1418 C1416 1.363 . S
C1418 C1419 1.370 . S
C1418 C1422 1.524 . S
C1419 C1411 1.503 . S
C1419 C1418 1.370 . S
C1419 C1420 1.403 . S
C1420 C1419 1.403 . S
C1420 C1421 1.404 . S
C1420 C1423 1.539 . S
C1421 C1417 1.408 . S
C1421 C1420 1.404 . S
C1421 H1433 0.930 . S
C1422 C1418 1.524 . S
C1422 H1434 0.956 . S
C1422 H1435 0.961 . S
C1422 H1436 0.961 . S
C1423 C1420 1.539 . S
C1423 H1437 0.958 . S
C1423 H1438 0.961 . S
C1423 H1439 0.960 . S
H1424 C1408 0.931 . S
H1425 C1413 0.929 . S
H1426 C1414 0.960 . S
H1427 C1414 0.962 . S
H1428 C1414 0.960 . S
H1429 C1415 0.961 . S
H1430 C1415 0.961 . S
H1431 C1415 0.961 . S
H1432 C1416 0.931 . S
H1433 C1421 0.930 . S
H1434 C1422 0.956 . S
H1435 C1422 0.961 . S
H1436 C1422 0.961 . S
H1437 C1423 0.958 . S
H1438 C1423 0.961 . S
H1439 C1423 0.960 . S
C1440 C1441 1.391 . S
C1440 C1442 1.394 . S
C1440 H1456 0.931 . S
C1441 C1440 1.391 . S
C1441 C1445 1.376 . S
C1442 C1440 1.394 . S
C1442 C1443 1.369 . S
C1442 C1446 1.531 . S
C1443 C1442 1.369 . S
C1443 C1444 1.410 . S
C1443 C1451 1.503 . S
C1444 C1443 1.410 . S
C1444 C1445 1.392 . S
C1444 C1447 1.511 . S
C1445 C1441 1.376 . S
C1445 C1444 1.392 . S
C1445 H1457 0.929 . S
C1446 C1442 1.531 . S
C1446 H1458 0.960 . S
C1446 H1459 0.962 . S
C1446 H1460 0.960 . S
C1447 C1444 1.511 . S
C1447 H1461 0.961 . S
C1447 H1462 0.961 . S
C1447 H1463 0.961 . S
C1448 C1449 1.370 . S
C1448 C1450 1.363 . S
C1448 H1464 0.931 . S
C1449 C1448 1.370 . S
C1449 C1453 1.408 . S
C1450 C1448 1.363 . S
C1450 C1451 1.370 . S
C1450 C1454 1.524 . S
C1451 C1443 1.503 . S
C1451 C1450 1.370 . S
C1451 C1452 1.403 . S
C1452 C1451 1.403 . S
C1452 C1453 1.404 . S
C1452 C1455 1.539 . S
C1453 C1449 1.408 . S
C1453 C1452 1.404 . S
C1453 H1465 0.930 . S
C1454 C1450 1.524 . S
C1454 H1466 0.956 . S
C1454 H1467 0.961 . S
C1454 H1468 0.961 . S
C1455 C1452 1.539 . S
C1455 H1469 0.958 . S
C1455 H1470 0.961 . S
C1455 H1471 0.960 . S
H1456 C1440 0.931 . S
H1457 C1445 0.929 . S
H1458 C1446 0.960 . S
H1459 C1446 0.962 . S
H1460 C1446 0.960 . S
H1461 C1447 0.961 . S
H1462 C1447 0.961 . S
H1463 C1447 0.961 . S
H1464 C1448 0.931 . S
H1465 C1453 0.930 . S
H1466 C1454 0.956 . S
H1467 C1454 0.961 . S
H1468 C1454 0.961 . S
H1469 C1455 0.958 . S
H1470 C1455 0.961 . S
H1471 C1455 0.960 . S
C1472 C1473 1.391 . S
C1472 C1474 1.394 . S
C1472 H1488 0.931 . S
C1473 C1472 1.391 . S
C1473 C1477 1.376 . S
C1474 C1472 1.394 . S
C1474 C1475 1.369 . S
C1474 C1478 1.531 . S
C1475 C1474 1.369 . S
C1475 C1476 1.410 . S
C1475 C1483 1.503 . S
C1476 C1475 1.410 . S
C1476 C1477 1.392 . S
C1476 C1479 1.511 . S
C1477 C1473 1.376 . S
C1477 C1476 1.392 . S
C1477 H1489 0.929 . S
C1478 C1474 1.531 . S
C1478 H1490 0.960 . S
C1478 H1491 0.962 . S
C1478 H1492 0.960 . S
C1479 C1476 1.511 . S
C1479 H1493 0.961 . S
C1479 H1494 0.961 . S
C1479 H1495 0.961 . S
C1480 C1481 1.370 . S
C1480 C1482 1.363 . S
C1480 H1496 0.931 . S
C1481 C1480 1.370 . S
C1481 C1485 1.408 . S
C1482 C1480 1.363 . S
C1482 C1483 1.370 . S
C1482 C1486 1.524 . S
C1483 C1475 1.503 . S
C1483 C1482 1.370 . S
C1483 C1484 1.403 . S
C1484 C1483 1.403 . S
C1484 C1485 1.404 . S
C1484 C1487 1.539 . S
C1485 C1481 1.408 . S
C1485 C1484 1.404 . S
C1485 H1497 0.930 . S
C1486 C1482 1.524 . S
C1486 H1498 0.956 . S
C1486 H1499 0.961 . S
C1486 H1500 0.961 . S
C1487 C1484 1.539 . S
C1487 H1501 0.958 . S
C1487 H1502 0.961 . S
C1487 H1503 0.960 . S
H1488 C1472 0.931 . S
H1489 C1477 0.929 . S
H1490 C1478 0.960 . S
H1491 C1478 0.962 . S
H1492 C1478 0.960 . S
H1493 C1479 0.961 . S
H1494 C1479 0.961 . S
H1495 C1479 0.961 . S
H1496 C1480 0.931 . S
H1497 C1485 0.930 . S
H1498 C1486 0.956 . S
H1499 C1486 0.961 . S
H1500 C1486 0.961 . S
H1501 C1487 0.958 . S
H1502 C1487 0.961 . S
H1503 C1487 0.960 . S
C1504 C1505 1.391 . S
C1504 C1506 1.394 . S
C1504 H1520 0.931 . S
C1505 C1504 1.391 . S
C1505 C1509 1.376 . S
C1506 C1504 1.394 . S
C1506 C1507 1.369 . S
C1506 C1510 1.531 . S
C1507 C1506 1.369 . S
C1507 C1508 1.410 . S
C1507 C1515 1.503 . S
C1508 C1507 1.410 . S
C1508 C1509 1.392 . S
C1508 C1511 1.511 . S
C1509 C1505 1.376 . S
C1509 C1508 1.392 . S
C1509 H1521 0.929 . S
C1510 C1506 1.531 . S
C1510 H1522 0.960 . S
C1510 H1523 0.962 . S
C1510 H1524 0.960 . S
C1511 C1508 1.511 . S
C1511 H1525 0.961 . S
C1511 H1526 0.961 . S
C1511 H1527 0.961 . S
C1512 C1513 1.370 . S
C1512 C1514 1.363 . S
C1512 H1528 0.931 . S
C1513 C1512 1.370 . S
C1513 C1517 1.408 . S
C1514 C1512 1.363 . S
C1514 C1515 1.370 . S
C1514 C1518 1.524 . S
C1515 C1507 1.503 . S
C1515 C1514 1.370 . S
C1515 C1516 1.403 . S
C1516 C1515 1.403 . S
C1516 C1517 1.404 . S
C1516 C1519 1.539 . S
C1517 C1513 1.408 . S
C1517 C1516 1.404 . S
C1517 H1529 0.930 . S
C1518 C1514 1.524 . S
C1518 H1530 0.956 . S
C1518 H1531 0.961 . S
C1518 H1532 0.961 . S
C1519 C1516 1.539 . S
C1519 H1533 0.958 . S
C1519 H1534 0.961 . S
C1519 H1535 0.960 . S
H1520 C1504 0.931 . S
H1521 C1509 0.929 . S
H1522 C1510 0.960 . S
H1523 C1510 0.962 . S
H1524 C1510 0.960 . S
H1525 C1511 0.961 . S
H1526 C1511 0.961 . S
H1527 C1511 0.961 . S
H1528 C1512 0.931 . S
H1529 C1517 0.930 . S
H1530 C1518 0.956 . S
H1531 C1518 0.961 . S
H1532 C1518 0.961 . S
H1533 C1519 0.958 . S
H1534 C1519 0.961 . S
H1535 C1519 0.960 . S
C1536 C1537 1.391 . S
C1536 C1538 1.394 . S
C1536 H1552 0.931 . S
C1537 C1536 1.391 . S
C1537 C1541 1.376 . S
C1538 C1536 1.394 . S
C1538 C1539 1.369 . S
C1538 C1542 1.531 . S
C1539 C1538 1.369 . S
C1539 C1540 1.410 . S
C1539 C1547 1.503 . S
C1540 C1539 1.410 . S
C1540 C1541 1.392 . S
C1540 C1543 1.511 . S
C1541 C1537 1.376 . S
C1541 C1540 1.392 . S
C1541 H1553 0.929 . S
C1542 C1538 1.531 . S
C1542 H1554 0.960 . S
C1542 H1555 0.962 . S
C1542 H1556 0.960 . S
C1543 C1540 1.511 . S
C1543 H1557 0.961 . S
C1543 H1558 0.961 . S
C1543 H1559 0.961 . S
C1544 C1545 1.370 . S
C1544 C1546 1.363 . S
C1544 H1560 0.931 . S
C1545 C1544 1.370 . S
C1545 C1549 1.408 . S
C1546 C1544 1.363 . S
C1546 C1547 1.370 . S
C1546 C1550 1.524 . S
C1547 C1539 1.503 . S
C1547 C1546 1.370 . S
C1547 C1548 1.403 . S
C1548 C1547 1.403 . S
C1548 C1549 1.404 . S
C1548 C1551 1.539 . S
C1549 C1545 1.408 . S
C1549 C1548 1.404 . S
C1549 H1561 0.930 . S
C1550 C1546 1.524 . S
C1550 H1562 0.956 . S
C1550 H1563 0.961 . S
C1550 H1564 0.961 . S
C1551 C1548 1.539 . S
C1551 H1565 0.958 . S
C1551 H1566 0.961 . S
C1551 H1567 0.960 . S
H1552 C1536 0.931 . S
H1553 C1541 0.929 . S
H1554 C1542 0.960 . S
H1555 C1542 0.962 . S
H1556 C1542 0.960 . S
H1557 C1543 0.961 . S
H1558 C1543 0.961 . S
H1559 C1543 0.961 . S
H1560 C1544 0.931 . S
H1561 C1549 0.930 . S
H1562 C1550 0.956 . S
H1563 C1550 0.961 . S
H1564 C1550 0.961 . S
H1565 C1551 0.958 . S
H1566 C1551 0.961 . S
H1567 C1551 0.960 . S
C1568 C1569 1.391 . S
C1568 C1570 1.394 . S
C1568 H1584 0.931 . S
C1569 C1568 1.391 . S
C1569 C1573 1.376 . S
C1570 C1568 1.394 . S
C1570 C1571 1.369 . S
C1570 C1574 1.531 . S
C1571 C1570 1.369 . S
C1571 C1572 1.410 . S
C1571 C1579 1.503 . S
C1572 C1571 1.410 . S
C1572 C1573 1.392 . S
C1572 C1575 1.511 . S
C1573 C1569 1.376 . S
C1573 C1572 1.392 . S
C1573 H1585 0.929 . S
C1574 C1570 1.531 . S
C1574 H1586 0.960 . S
C1574 H1587 0.962 . S
C1574 H1588 0.960 . S
C1575 C1572 1.511 . S
C1575 H1589 0.961 . S
C1575 H1590 0.961 . S
C1575 H1591 0.961 . S
C1576 C1577 1.370 . S
C1576 C1578 1.363 . S
C1576 H1592 0.931 . S
C1577 C1576 1.370 . S
C1577 C1581 1.408 . S
C1578 C1576 1.363 . S
C1578 C1579 1.370 . S
C1578 C1582 1.524 . S
C1579 C1571 1.503 . S
C1579 C1578 1.370 . S
C1579 C1580 1.403 . S
C1580 C1579 1.403 . S
C1580 C1581 1.404 . S
C1580 C1583 1.539 . S
C1581 C1577 1.408 . S
C1581 C1580 1.404 . S
C1581 H1593 0.930 . S
C1582 C1578 1.524 . S
C1582 H1594 0.956 . S
C1582 H1595 0.961 . S
C1582 H1596 0.961 . S
C1583 C1580 1.539 . S
C1583 H1597 0.958 . S
C1583 H1598 0.961 . S
C1583 H1599 0.960 . S
H1584 C1568 0.931 . S
H1585 C1573 0.929 . S
H1586 C1574 0.960 . S
H1587 C1574 0.962 . S
H1588 C1574 0.960 . S
H1589 C1575 0.961 . S
H1590 C1575 0.961 . S
H1591 C1575 0.961 . S
H1592 C1576 0.931 . S
H1593 C1581 0.930 . S
H1594 C1582 0.956 . S
H1595 C1582 0.961 . S
H1596 C1582 0.961 . S
H1597 C1583 0.958 . S
H1598 C1583 0.961 . S
H1599 C1583 0.960 . S
C1600 C1601 1.391 . S
C1600 C1602 1.394 . S
C1600 H1616 0.931 . S
C1601 C1600 1.391 . S
C1601 C1605 1.376 . S
C1602 C1600 1.394 . S
C1602 C1603 1.369 . S
C1602 C1606 1.531 . S
C1603 C1602 1.369 . S
C1603 C1604 1.410 . S
C1603 C1611 1.503 . S
C1604 C1603 1.410 . S
C1604 C1605 1.392 . S
C1604 C1607 1.511 . S
C1605 C1601 1.376 . S
C1605 C1604 1.392 . S
C1605 H1617 0.929 . S
C1606 C1602 1.531 . S
C1606 H1618 0.960 . S
C1606 H1619 0.962 . S
C1606 H1620 0.960 . S
C1607 C1604 1.511 . S
C1607 H1621 0.961 . S
C1607 H1622 0.961 . S
C1607 H1623 0.961 . S
C1608 C1609 1.370 . S
C1608 C1610 1.363 . S
C1608 H1624 0.931 . S
C1609 C1608 1.370 . S
C1609 C1613 1.408 . S
C1610 C1608 1.363 . S
C1610 C1611 1.370 . S
C1610 C1614 1.524 . S
C1611 C1603 1.503 . S
C1611 C1610 1.370 . S
C1611 C1612 1.403 . S
C1612 C1611 1.403 . S
C1612 C1613 1.404 . S
C1612 C1615 1.539 . S
C1613 C1609 1.408 . S
C1613 C1612 1.404 . S
C1613 H1625 0.930 . S
C1614 C1610 1.524 . S
C1614 H1626 0.956 . S
C1614 H1627 0.961 . S
C1614 H1628 0.961 . S
C1615 C1612 1.539 . S
C1615 H1629 0.958 . S
C1615 H1630 0.961 . S
C1615 H1631 0.960 . S
H1616 C1600 0.931 . S
H1617 C1605 0.929 . S
H1618 C1606 0.960 . S
H1619 C1606 0.962 . S
H1620 C1606 0.960 . S
H1621 C1607 0.961 . S
H1622 C1607 0.961 . S
H1623 C1607 0.961 . S
H1624 C1608 0.931 . S
H1625 C1613 0.930 . S
H1626 C1614 0.956 . S
H1627 C1614 0.961 . S
H1628 C1614 0.961 . S
H1629 C1615 0.958 . S
H1630 C1615 0.961 . S
H1631 C1615 0.960 . S
C481 C99 1.406 . S
C489 C15 1.368 . S
C513 C130 1.412 . S
C521 C46 1.357 . S
C545 C95 1.345 . S
C553 C179 1.411 . S
C577 C126 1.355 . S
C585 C210 1.410 . S
C609 C19 1.399 . S
C617 C175 1.378 . S
C641 C50 1.407 . S
C649 C206 1.361 . S
C673 C410 1.407 . S
C681 C246 1.361 . S
C705 C295 1.342 . S
C713 C459 1.410 . S
C737 C326 1.336 . S
C745 C250 1.411 . S
C769 C375 1.364 . S
C777 C299 1.408 . S
C801 C406 1.362 . S
C809 C330 1.407 . S
C833 C379 1.413 . S
C841 C455 1.357 . S
C865 C129 1.774 . S
C873 C18 1.784 . S
C897 C49 1.762 . S
C905 C178 1.780 . S
C929 C98 1.762 . S
C937 C209 1.780 . S
C961 C249 1.806 . S
C969 C378 1.799 . S
C993 C298 1.775 . S
C1001 C409 1.784 . S
C1025 C329 1.780 . S
C1033 C458 1.789 . S
C1057 C289 2.070 . S
C1065 C9 2.121 . S
C1089 C58 2.106 . S
C1097 C338 2.096 . S
C1121 C369 2.132 . S
C1129 C89 2.112 . S
C1153 C138 2.141 . S
C1161 C418 2.104 . S
C1185 C169 2.072 . S
C1193 C449 2.114 . S
C1217 C258 2.129 . S
C1225 C218 2.097 . S
C1249 C90 1.677 . S
C1257 C6 1.695 . S
C1281 C55 1.703 . S
C1289 C139 1.687 . S
C1313 C86 1.704 . S
C1321 C170 1.683 . S
C1345 C135 1.686 . S
C1353 C219 1.680 . S
C1377 C10 1.666 . S
C1385 C166 1.702 . S
C1409 C59 1.688 . S
C1417 C215 1.695 . S
C1441 C419 1.685 . S
C1449 C255 1.695 . S
C1473 C286 1.699 . S
C1481 C450 1.689 . S
C1505 C335 1.701 . S
C1513 C259 1.689 . S
C1537 C290 1.666 . S
C1545 C366 1.697 . S
C1569 C415 1.685 . S
C1577 C339 1.681 . S
C1601 C446 1.704 . S
C1609 C370 1.681 . S
