# Generated by pormake.
# Topology mer, (4)-cn, num edge types: 1
# Building blocks:
#     Node 0, Type 0, BuildingBlock: QUQFOY_clean_sbu_1, # of connection points: 4
#     Node 1, Type 0, BuildingBlock: QUQFOY_clean_sbu_1, # of connection points: 4
#     Node 2, Type 0, BuildingBlock: QUQFOY_clean_sbu_1, # of connection points: 4
#     Node 3, Type 0, BuildingBlock: QUQFOY_clean_sbu_1, # of connection points: 4
#     Node 4, Type 0, BuildingBlock: QUQFOY_clean_sbu_1, # of connection points: 4
#     Node 5, Type 0, BuildingBlock: QUQFOY_clean_sbu_1, # of connection points: 4
#     Node 6, Type 0, BuildingBlock: QUQFOY_clean_sbu_1, # of connection points: 4
#     Node 7, Type 0, BuildingBlock: QUQFOY_clean_sbu_1, # of connection points: 4
#     Node 8, Type 0, BuildingBlock: QUQFOY_clean_sbu_1, # of connection points: 4
#     Node 9, Type 0, BuildingBlock: QUQFOY_clean_sbu_1, # of connection points: 4
#     Node 10, Type 0, BuildingBlock: QUQFOY_clean_sbu_1, # of connection points: 4
#     Node 11, Type 0, BuildingBlock: QUQFOY_clean_sbu_1, # of connection points: 4
#     Node 12, Type 0, BuildingBlock: QUQFOY_clean_sbu_1, # of connection points: 4
#     Node 13, Type 0, BuildingBlock: QUQFOY_clean_sbu_1, # of connection points: 4
#     Node 14, Type 0, BuildingBlock: QUQFOY_clean_sbu_1, # of connection points: 4
#     Node 15, Type 0, BuildingBlock: QUQFOY_clean_sbu_1, # of connection points: 4
#     Node 16, Type 0, BuildingBlock: QUQFOY_clean_sbu_1, # of connection points: 4
#     Node 17, Type 0, BuildingBlock: QUQFOY_clean_sbu_1, # of connection points: 4
#     Node 18, Type 0, BuildingBlock: QUQFOY_clean_sbu_1, # of connection points: 4
#     Node 19, Type 0, BuildingBlock: QUQFOY_clean_sbu_1, # of connection points: 4
#     Node 20, Type 0, BuildingBlock: QUQFOY_clean_sbu_1, # of connection points: 4
#     Node 21, Type 0, BuildingBlock: QUQFOY_clean_sbu_1, # of connection points: 4
#     Node 22, Type 0, BuildingBlock: QUQFOY_clean_sbu_1, # of connection points: 4
#     Node 23, Type 0, BuildingBlock: QUQFOY_clean_sbu_1, # of connection points: 4
#     Node 24, Type 0, BuildingBlock: QUQFOY_clean_sbu_1, # of connection points: 4
#     Node 25, Type 0, BuildingBlock: QUQFOY_clean_sbu_1, # of connection points: 4
#     Node 26, Type 0, BuildingBlock: QUQFOY_clean_sbu_1, # of connection points: 4
#     Node 27, Type 0, BuildingBlock: QUQFOY_clean_sbu_1, # of connection points: 4
#     Node 28, Type 0, BuildingBlock: QUQFOY_clean_sbu_1, # of connection points: 4
#     Node 29, Type 0, BuildingBlock: QUQFOY_clean_sbu_1, # of connection points: 4
#     Node 30, Type 0, BuildingBlock: QUQFOY_clean_sbu_1, # of connection points: 4
#     Node 31, Type 0, BuildingBlock: QUQFOY_clean_sbu_1, # of connection points: 4
#     Edge 32, Type (0, 0), BuildingBlock: EZIPEK_clean_linker_0, # of connection points: 2
#     Edge 33, Type (0, 0), BuildingBlock: EZIPEK_clean_linker_0, # of connection points: 2
#     Edge 34, Type (0, 0), BuildingBlock: EZIPEK_clean_linker_0, # of connection points: 2
#     Edge 35, Type (0, 0), BuildingBlock: EZIPEK_clean_linker_0, # of connection points: 2
#     Edge 36, Type (0, 0), BuildingBlock: EZIPEK_clean_linker_0, # of connection points: 2
#     Edge 37, Type (0, 0), BuildingBlock: EZIPEK_clean_linker_0, # of connection points: 2
#     Edge 38, Type (0, 0), BuildingBlock: EZIPEK_clean_linker_0, # of connection points: 2
#     Edge 39, Type (0, 0), BuildingBlock: EZIPEK_clean_linker_0, # of connection points: 2
#     Edge 40, Type (0, 0), BuildingBlock: EZIPEK_clean_linker_0, # of connection points: 2
#     Edge 41, Type (0, 0), BuildingBlock: EZIPEK_clean_linker_0, # of connection points: 2
#     Edge 42, Type (0, 0), BuildingBlock: EZIPEK_clean_linker_0, # of connection points: 2
#     Edge 43, Type (0, 0), BuildingBlock: EZIPEK_clean_linker_0, # of connection points: 2
#     Edge 44, Type (0, 0), BuildingBlock: EZIPEK_clean_linker_0, # of connection points: 2
#     Edge 45, Type (0, 0), BuildingBlock: EZIPEK_clean_linker_0, # of connection points: 2
#     Edge 46, Type (0, 0), BuildingBlock: EZIPEK_clean_linker_0, # of connection points: 2
#     Edge 47, Type (0, 0), BuildingBlock: EZIPEK_clean_linker_0, # of connection points: 2
#     Edge 48, Type (0, 0), BuildingBlock: EZIPEK_clean_linker_0, # of connection points: 2
#     Edge 49, Type (0, 0), BuildingBlock: EZIPEK_clean_linker_0, # of connection points: 2
#     Edge 50, Type (0, 0), BuildingBlock: EZIPEK_clean_linker_0, # of connection points: 2
#     Edge 51, Type (0, 0), BuildingBlock: EZIPEK_clean_linker_0, # of connection points: 2
#     Edge 52, Type (0, 0), BuildingBlock: EZIPEK_clean_linker_0, # of connection points: 2
#     Edge 53, Type (0, 0), BuildingBlock: EZIPEK_clean_linker_0, # of connection points: 2
#     Edge 54, Type (0, 0), BuildingBlock: EZIPEK_clean_linker_0, # of connection points: 2
#     Edge 55, Type (0, 0), BuildingBlock: EZIPEK_clean_linker_0, # of connection points: 2
#     Edge 56, Type (0, 0), BuildingBlock: EZIPEK_clean_linker_0, # of connection points: 2
#     Edge 57, Type (0, 0), BuildingBlock: EZIPEK_clean_linker_0, # of connection points: 2
#     Edge 58, Type (0, 0), BuildingBlock: EZIPEK_clean_linker_0, # of connection points: 2
#     Edge 59, Type (0, 0), BuildingBlock: EZIPEK_clean_linker_0, # of connection points: 2
#     Edge 60, Type (0, 0), BuildingBlock: EZIPEK_clean_linker_0, # of connection points: 2
#     Edge 61, Type (0, 0), BuildingBlock: EZIPEK_clean_linker_0, # of connection points: 2
#     Edge 62, Type (0, 0), BuildingBlock: EZIPEK_clean_linker_0, # of connection points: 2
#     Edge 63, Type (0, 0), BuildingBlock: EZIPEK_clean_linker_0, # of connection points: 2
#     Edge 64, Type (0, 0), BuildingBlock: EZIPEK_clean_linker_0, # of connection points: 2
#     Edge 65, Type (0, 0), BuildingBlock: EZIPEK_clean_linker_0, # of connection points: 2
#     Edge 66, Type (0, 0), BuildingBlock: EZIPEK_clean_linker_0, # of connection points: 2
#     Edge 67, Type (0, 0), BuildingBlock: EZIPEK_clean_linker_0, # of connection points: 2
#     Edge 68, Type (0, 0), BuildingBlock: EZIPEK_clean_linker_0, # of connection points: 2
#     Edge 69, Type (0, 0), BuildingBlock: EZIPEK_clean_linker_0, # of connection points: 2
#     Edge 70, Type (0, 0), BuildingBlock: EZIPEK_clean_linker_0, # of connection points: 2
#     Edge 71, Type (0, 0), BuildingBlock: EZIPEK_clean_linker_0, # of connection points: 2
#     Edge 72, Type (0, 0), BuildingBlock: EZIPEK_clean_linker_0, # of connection points: 2
#     Edge 73, Type (0, 0), BuildingBlock: EZIPEK_clean_linker_0, # of connection points: 2
#     Edge 74, Type (0, 0), BuildingBlock: EZIPEK_clean_linker_0, # of connection points: 2
#     Edge 75, Type (0, 0), BuildingBlock: EZIPEK_clean_linker_0, # of connection points: 2
#     Edge 76, Type (0, 0), BuildingBlock: EZIPEK_clean_linker_0, # of connection points: 2
#     Edge 77, Type (0, 0), BuildingBlock: EZIPEK_clean_linker_0, # of connection points: 2
#     Edge 78, Type (0, 0), BuildingBlock: EZIPEK_clean_linker_0, # of connection points: 2
#     Edge 79, Type (0, 0), BuildingBlock: EZIPEK_clean_linker_0, # of connection points: 2
#     Edge 80, Type (0, 0), BuildingBlock: EZIPEK_clean_linker_0, # of connection points: 2
#     Edge 81, Type (0, 0), BuildingBlock: EZIPEK_clean_linker_0, # of connection points: 2
#     Edge 82, Type (0, 0), BuildingBlock: EZIPEK_clean_linker_0, # of connection points: 2
#     Edge 83, Type (0, 0), BuildingBlock: EZIPEK_clean_linker_0, # of connection points: 2
#     Edge 84, Type (0, 0), BuildingBlock: EZIPEK_clean_linker_0, # of connection points: 2
#     Edge 85, Type (0, 0), BuildingBlock: EZIPEK_clean_linker_0, # of connection points: 2
#     Edge 86, Type (0, 0), BuildingBlock: EZIPEK_clean_linker_0, # of connection points: 2
#     Edge 87, Type (0, 0), BuildingBlock: EZIPEK_clean_linker_0, # of connection points: 2
#     Edge 88, Type (0, 0), BuildingBlock: EZIPEK_clean_linker_0, # of connection points: 2
#     Edge 89, Type (0, 0), BuildingBlock: EZIPEK_clean_linker_0, # of connection points: 2
#     Edge 90, Type (0, 0), BuildingBlock: EZIPEK_clean_linker_0, # of connection points: 2
#     Edge 91, Type (0, 0), BuildingBlock: EZIPEK_clean_linker_0, # of connection points: 2
#     Edge 92, Type (0, 0), BuildingBlock: EZIPEK_clean_linker_0, # of connection points: 2
#     Edge 93, Type (0, 0), BuildingBlock: EZIPEK_clean_linker_0, # of connection points: 2
#     Edge 94, Type (0, 0), BuildingBlock: EZIPEK_clean_linker_0, # of connection points: 2
#     Edge 95, Type (0, 0), BuildingBlock: EZIPEK_clean_linker_0, # of connection points: 2
# Relax obj value: 0.010
# Max RMSD: 0.049
# Mean RMSD: 0.049
data_MOF--net-mer--node1-QUQFOY_clean_sbu_1--edge1-EZIPEK_clean_linker_0
_symmetry_space_group_name_H-M    P1
_symmetry_Int_Tables_number       1
_symmetry_cell_setting            triclinic
loop_
_symmetry_equiv_pos_as_xyz
'x, y, z'
_cell_length_a     50.62062
_cell_length_b     50.69356
_cell_length_c     40.269963
_cell_angle_alpha  90.004787
_cell_angle_beta   90.037011
_cell_angle_gamma 89.960422
loop_
_atom_site_label
_atom_site_type_symbol
_atom_site_fract_x
_atom_site_fract_y
_atom_site_fract_z
_atom_type_partial_charge
O0 O 0.16444 0.25413 0.36738 0.0
Cd1 Cd 0.1485 0.29151 0.37086 0.0
Cd2 Cd 0.1057 0.2631 0.38816 0.0
O3 O 0.12826 0.23066 0.37543 0.0
O4 O 0.17324 0.31307 0.3437 0.0
O5 O 0.13091 0.30862 0.33142 0.0
C6 C 0.15395 0.31763 0.32357 0.0
C7 C 0.06189 0.26678 0.37102 0.0
C8 C 0.15287 0.23197 0.36946 0.0
C9 C 0.1313 0.29772 0.44051 0.0
O10 O 0.11439 0.28008 0.43344 0.0
O11 O 0.14645 0.30709 0.41827 0.0
O12 O 0.06883 0.25023 0.39368 0.0
O13 O 0.08003 0.28068 0.35683 0.0
O14 O 0.75448 0.16587 0.37453 0.0
Cd15 Cd 0.71774 0.148 0.37433 0.0
Cd16 Cd 0.74816 0.10631 0.38768 0.0
O17 O 0.77876 0.1298 0.37136 0.0
O18 O 0.69493 0.17416 0.35114 0.0
O19 O 0.70416 0.13472 0.33035 0.0
C20 C 0.69341 0.15768 0.32682 0.0
C21 C 0.74444 0.06256 0.37094 0.0
C22 C 0.77681 0.15477 0.37105 0.0
C23 C 0.71354 0.12784 0.44231 0.0
O24 O 0.73382 0.11437 0.43462 0.0
O25 O 0.70097 0.14063 0.42022 0.0
O26 O 0.76269 0.06995 0.39121 0.0
O27 O 0.72875 0.08023 0.35883 0.0
O28 O 0.84677 0.75633 0.36869 0.0
Cd29 Cd 0.86301 0.71901 0.37092 0.0
Cd30 Cd 0.9061 0.74745 0.38566 0.0
O31 O 0.88356 0.77957 0.37141 0.0
O32 O 0.83826 0.69724 0.34395 0.0
O33 O 0.88032 0.70267 0.33083 0.0
C34 C 0.85736 0.69325 0.32334 0.0
C35 C 0.94994 0.74332 0.36879 0.0
C36 C 0.8586 0.77841 0.36831 0.0
C37 C 0.88159 0.71357 0.43972 0.0
O38 O 0.89778 0.73166 0.43183 0.0
O39 O 0.8665 0.70329 0.41803 0.0
O40 O 0.94296 0.76056 0.39058 0.0
O41 O 0.93181 0.72897 0.35524 0.0
O42 O 0.25766 0.84427 0.37422 0.0
Cd43 Cd 0.29424 0.8624 0.37586 0.0
Cd44 Cd 0.26342 0.90348 0.39195 0.0
O45 O 0.23267 0.87995 0.37609 0.0
O46 O 0.31708 0.83719 0.3511 0.0
O47 O 0.30797 0.87741 0.33279 0.0
C48 C 0.31865 0.85459 0.32784 0.0
C49 C 0.26698 0.94718 0.37504 0.0
C50 C 0.23509 0.85516 0.37271 0.0
C51 C 0.29886 0.88103 0.44517 0.0
O52 O 0.27878 0.89504 0.43826 0.0
O53 O 0.31078 0.86821 0.4225 0.0
O54 O 0.24908 0.9399 0.39583 0.0
O55 O 0.28246 0.92945 0.36264 0.0
O56 O 0.16486 0.75434 0.64983 0.0
Cd57 Cd 0.14733 0.71763 0.6479 0.0
Cd58 Cd 0.10538 0.74776 0.63209 0.0
O59 O 0.12897 0.77901 0.64651 0.0
O60 O 0.17311 0.69508 0.67199 0.0
O61 O 0.13271 0.70304 0.6907 0.0
C62 C 0.1558 0.69278 0.69526 0.0
C63 C 0.06172 0.74399 0.64944 0.0
C64 C 0.15379 0.77681 0.65039 0.0
C65 C 0.12829 0.71241 0.57896 0.0
O66 O 0.1133 0.73169 0.5861 0.0
O67 O 0.14237 0.70143 0.60118 0.0
O68 O 0.06867 0.76137 0.62781 0.0
O69 O 0.07983 0.72939 0.66268 0.0
O70 O 0.25554 0.16337 0.65319 0.0
Cd71 Cd 0.29229 0.14575 0.65222 0.0
Cd72 Cd 0.26225 0.10367 0.63788 0.0
O73 O 0.23104 0.12735 0.65222 0.0
O74 O 0.31485 0.17176 0.67595 0.0
O75 O 0.30647 0.1318 0.69562 0.0
C76 C 0.3168 0.15487 0.69975 0.0
C77 C 0.26626 0.06028 0.65596 0.0
C78 C 0.23311 0.15225 0.65467 0.0
C79 C 0.29712 0.12566 0.58375 0.0
O80 O 0.27769 0.11103 0.5914 0.0
O81 O 0.3085 0.13975 0.60563 0.0
O82 O 0.24832 0.06705 0.63492 0.0
O83 O 0.28137 0.0784 0.66815 0.0
O84 O 0.8475 0.25594 0.65244 0.0
Cd85 Cd 0.86433 0.29308 0.65095 0.0
Cd86 Cd 0.90653 0.26388 0.63571 0.0
O87 O 0.88412 0.23236 0.65179 0.0
O88 O 0.83926 0.31482 0.67748 0.0
O89 O 0.88098 0.30881 0.6919 0.0
C90 C 0.85795 0.31836 0.6988 0.0
C91 C 0.95056 0.2681 0.65144 0.0
C92 C 0.85914 0.23378 0.65404 0.0
C93 C 0.88235 0.29809 0.582 0.0
O94 O 0.89735 0.27883 0.58933 0.0
O95 O 0.86881 0.30956 0.60434 0.0
O96 O 0.94316 0.25017 0.63078 0.0
O97 O 0.9328 0.28325 0.66439 0.0
O98 O 0.7537 0.84517 0.6532 0.0
Cd99 Cd 0.71733 0.86386 0.652 0.0
Cd100 Cd 0.74858 0.90453 0.63608 0.0
O101 O 0.77913 0.88051 0.65136 0.0
O102 O 0.69414 0.83922 0.67715 0.0
O103 O 0.70399 0.87936 0.69506 0.0
C104 C 0.69289 0.85679 0.70025 0.0
C105 C 0.74568 0.94831 0.65299 0.0
C106 C 0.77644 0.85572 0.65445 0.0
C107 C 0.71295 0.88253 0.58272 0.0
O108 O 0.73309 0.8964 0.58978 0.0
O109 O 0.70087 0.86979 0.60531 0.0
O110 O 0.7634 0.94075 0.6321 0.0
O111 O 0.73006 0.9308 0.66555 0.0
O112 O 0.84567 0.75304 0.65241 0.0
Cd113 Cd 0.86375 0.71653 0.65013 0.0
Cd114 Cd 0.90489 0.74696 0.63544 0.0
O115 O 0.88157 0.77767 0.65213 0.0
O116 O 0.84006 0.69372 0.67712 0.0
O117 O 0.88178 0.70122 0.69036 0.0
C118 C 0.85926 0.69083 0.69788 0.0
C119 C 0.94902 0.74345 0.65112 0.0
C120 C 0.85663 0.77551 0.6544 0.0
C121 C 0.88144 0.71291 0.58103 0.0
O122 O 0.89603 0.73237 0.58877 0.0
O123 O 0.86821 0.70082 0.60312 0.0
O124 O 0.94123 0.76153 0.63088 0.0
O125 O 0.93159 0.72779 0.66373 0.0
O126 O 0.25679 0.84437 0.65386 0.0
Cd127 Cd 0.29392 0.86132 0.65451 0.0
Cd128 Cd 0.2648 0.90412 0.64002 0.0
O129 O 0.23305 0.88094 0.65368 0.0
O130 O 0.31587 0.8356 0.67992 0.0
O131 O 0.30722 0.87594 0.69812 0.0
C132 C 0.31751 0.85295 0.70325 0.0
C133 C 0.26797 0.94794 0.65705 0.0
C134 C 0.23453 0.85594 0.65506 0.0
C135 C 0.29999 0.88131 0.58632 0.0
O136 O 0.28082 0.89634 0.59388 0.0
O137 O 0.31098 0.86697 0.60828 0.0
O138 O 0.25093 0.94066 0.63514 0.0
O139 O 0.28261 0.93009 0.67072 0.0
O140 O 0.16607 0.25531 0.65231 0.0
Cd141 Cd 0.14968 0.29261 0.65045 0.0
Cd142 Cd 0.10723 0.26407 0.63466 0.0
O143 O 0.12927 0.2321 0.65033 0.0
O144 O 0.17431 0.31397 0.678 0.0
O145 O 0.13222 0.30828 0.69082 0.0
C146 C 0.15517 0.31755 0.69866 0.0
C147 C 0.0632 0.26844 0.65049 0.0
C148 C 0.15422 0.23325 0.65331 0.0
C149 C 0.13235 0.29823 0.58139 0.0
O150 O 0.11671 0.27948 0.58861 0.0
O151 O 0.14626 0.30916 0.60378 0.0
O152 O 0.07042 0.25108 0.62897 0.0
O153 O 0.08116 0.2829 0.66421 0.0
O154 O 0.75767 0.16394 0.65289 0.0
Cd155 Cd 0.72081 0.14657 0.65192 0.0
Cd156 Cd 0.75083 0.10446 0.63642 0.0
O157 O 0.78227 0.12798 0.65041 0.0
O158 O 0.69861 0.17271 0.67593 0.0
O159 O 0.70662 0.13255 0.69524 0.0
C160 C 0.6965 0.1557 0.69956 0.0
C161 C 0.74707 0.06081 0.65361 0.0
C162 C 0.78015 0.15283 0.65362 0.0
C163 C 0.71511 0.12701 0.58333 0.0
O164 O 0.73457 0.11224 0.59048 0.0
O165 O 0.7041 0.14107 0.60552 0.0
O166 O 0.76439 0.0678 0.63191 0.0
O167 O 0.73262 0.07889 0.66712 0.0
O168 O 0.84572 0.25701 0.37133 0.0
Cd169 Cd 0.86329 0.2937 0.37234 0.0
Cd170 Cd 0.90553 0.26366 0.38722 0.0
O171 O 0.8818 0.23252 0.37293 0.0
O172 O 0.83745 0.31608 0.34798 0.0
O173 O 0.87774 0.30772 0.32916 0.0
C174 C 0.85466 0.31799 0.32453 0.0
C175 C 0.94931 0.26682 0.37011 0.0
C176 C 0.85688 0.2346 0.37019 0.0
C177 C 0.88298 0.29872 0.44094 0.0
O178 O 0.89782 0.2794 0.43345 0.0
O179 O 0.86885 0.30995 0.41896 0.0
O180 O 0.94196 0.24924 0.39126 0.0
O181 O 0.93156 0.28207 0.35727 0.0
O182 O 0.75651 0.84735 0.37086 0.0
Cd183 Cd 0.71952 0.86458 0.37244 0.0
Cd184 Cd 0.74907 0.90657 0.38888 0.0
O185 O 0.78076 0.88342 0.37481 0.0
O186 O 0.6973 0.83953 0.34654 0.0
O187 O 0.70569 0.88029 0.32975 0.0
C188 C 0.69547 0.85741 0.32388 0.0
C189 C 0.74506 0.95017 0.37158 0.0
C190 C 0.7789 0.85863 0.37071 0.0
C191 C 0.7137 0.88319 0.44169 0.0
O192 O 0.73281 0.89843 0.4347 0.0
O193 O 0.70297 0.86909 0.41928 0.0
O194 O 0.76233 0.94331 0.39345 0.0
O195 O 0.7307 0.93202 0.3581 0.0
O196 O 0.16584 0.75296 0.3689 0.0
Cd197 Cd 0.14807 0.71627 0.36947 0.0
Cd198 Cd 0.10655 0.74628 0.38416 0.0
O199 O 0.1298 0.77743 0.36888 0.0
O200 O 0.17274 0.69426 0.34272 0.0
O201 O 0.1312 0.70132 0.32823 0.0
C202 C 0.15404 0.69135 0.32126 0.0
C203 C 0.06257 0.74281 0.36786 0.0
C204 C 0.15478 0.77542 0.36731 0.0
C205 C 0.12958 0.71141 0.43804 0.0
O206 O 0.11508 0.73102 0.43056 0.0
O207 O 0.14296 0.69962 0.41583 0.0
O208 O 0.07009 0.76058 0.38866 0.0
O209 O 0.0802 0.72745 0.35502 0.0
O210 O 0.25453 0.16276 0.37416 0.0
Cd211 Cd 0.29164 0.14557 0.37425 0.0
Cd212 Cd 0.26172 0.10357 0.38914 0.0
O213 O 0.23048 0.12646 0.37319 0.0
O214 O 0.31375 0.17212 0.35076 0.0
O215 O 0.30566 0.13233 0.33041 0.0
C216 C 0.31583 0.15551 0.32667 0.0
C217 C 0.26606 0.05966 0.37319 0.0
C218 C 0.23224 0.15143 0.37172 0.0
C219 C 0.29682 0.12619 0.44269 0.0
O220 O 0.27674 0.11229 0.43554 0.0
O221 O 0.30882 0.13908 0.42022 0.0
O222 O 0.24824 0.06694 0.39411 0.0
O223 O 0.28081 0.07755 0.35985 0.0
O224 O 0.66607 0.76005 0.87242 0.0
Cd225 Cd 0.64632 0.79549 0.87469 0.0
Cd226 Cd 0.60436 0.76347 0.87958 0.0
O227 O 0.63145 0.73376 0.86845 0.0
O228 O 0.67107 0.82065 0.85298 0.0
O229 O 0.63228 0.80961 0.83141 0.0
C230 C 0.65471 0.82155 0.82841 0.0
C231 C 0.56173 0.76501 0.85768 0.0
C232 C 0.65638 0.73712 0.86896 0.0
C233 C 0.62043 0.79564 0.94029 0.0
O234 O 0.606 0.77779 0.92752 0.0
O235 O 0.63732 0.80781 0.92261 0.0
O236 O 0.56867 0.74689 0.87832 0.0
O237 O 0.57956 0.78125 0.84728 0.0
O238 O 0.25416 0.66229 0.86861 0.0
Cd239 Cd 0.21755 0.64451 0.86947 0.0
Cd240 Cd 0.24817 0.6035 0.88533 0.0
O241 O 0.27956 0.62697 0.87139 0.0
O242 O 0.19513 0.67073 0.8459 0.0
O243 O 0.20312 0.63074 0.82609 0.0
C244 C 0.19296 0.65391 0.82207 0.0
C245 C 0.24416 0.56004 0.86779 0.0
C246 C 0.27691 0.65173 0.86795 0.0
C247 C 0.21295 0.62623 0.93865 0.0
O248 O 0.23253 0.61161 0.93153 0.0
O249 O 0.20134 0.6396 0.91624 0.0
O250 O 0.26193 0.56689 0.88901 0.0
O251 O 0.2292 0.57811 0.85515 0.0
O252 O 0.3464 0.25473 0.87231 0.0
Cd253 Cd 0.36351 0.21779 0.87408 0.0
Cd254 Cd 0.40606 0.24727 0.88834 0.0
O255 O 0.38284 0.27863 0.87349 0.0
O256 O 0.33737 0.19539 0.85032 0.0
O257 O 0.37764 0.20311 0.83106 0.0
C258 C 0.35445 0.19303 0.82677 0.0
C259 C 0.44952 0.24303 0.8705 0.0
C260 C 0.35791 0.27694 0.8707 0.0
C261 C 0.3834 0.21311 0.94274 0.0
O262 O 0.39843 0.23218 0.93495 0.0
O263 O 0.36908 0.20191 0.92094 0.0
O264 O 0.44276 0.261 0.89146 0.0
O265 O 0.43137 0.22793 0.85835 0.0
O266 O 0.75431 0.34743 0.86703 0.0
Cd267 Cd 0.7914 0.36413 0.87009 0.0
Cd268 Cd 0.76183 0.40654 0.88625 0.0
O269 O 0.73003 0.38335 0.87283 0.0
O270 O 0.81343 0.33919 0.84374 0.0
O271 O 0.80812 0.38107 0.82998 0.0
C272 C 0.81751 0.35804 0.82287 0.0
C273 C 0.76513 0.45026 0.86922 0.0
C274 C 0.73189 0.35865 0.86796 0.0
C275 C 0.79674 0.38252 0.93941 0.0
O276 O 0.77833 0.39853 0.93198 0.0
O277 O 0.80694 0.36764 0.91745 0.0
O278 O 0.74788 0.44306 0.89088 0.0
O279 O 0.77996 0.43242 0.85587 0.0
O280 O 0.66458 0.25548 0.15149 0.0
Cd281 Cd 0.6467 0.21878 0.15137 0.0
Cd282 Cd 0.60543 0.24911 0.13467 0.0
O283 O 0.62886 0.28042 0.1487 0.0
O284 O 0.67257 0.1967 0.1761 0.0
O285 O 0.63235 0.20534 0.19491 0.0
C286 C 0.65539 0.195 0.19959 0.0
C287 C 0.56172 0.24547 0.15185 0.0
C288 C 0.65371 0.27807 0.15193 0.0
C289 C 0.62802 0.2128 0.08252 0.0
O290 O 0.61386 0.23284 0.08897 0.0
O291 O 0.64093 0.2013 0.10543 0.0
O292 O 0.56872 0.2626 0.12992 0.0
O293 O 0.5798 0.231 0.16538 0.0
O294 O 0.7562 0.66463 0.15427 0.0
Cd295 Cd 0.79286 0.64682 0.15129 0.0
Cd296 Cd 0.76147 0.60667 0.13255 0.0
O297 O 0.73017 0.63024 0.14676 0.0
O298 O 0.81506 0.67146 0.1779 0.0
O299 O 0.80917 0.62972 0.19169 0.0
C300 C 0.81873 0.65263 0.19891 0.0
C301 C 0.76521 0.56279 0.1487 0.0
C302 C 0.73323 0.6546 0.15301 0.0
C303 C 0.79767 0.63069 0.08094 0.0
O304 O 0.77815 0.61576 0.08723 0.0
O305 O 0.80888 0.64369 0.10402 0.0
O306 O 0.7479 0.57008 0.12709 0.0
O307 O 0.77979 0.58061 0.16251 0.0
O308 O 0.34825 0.75629 0.15364 0.0
Cd309 Cd 0.36582 0.79306 0.15312 0.0
Cd310 Cd 0.40878 0.76349 0.14764 0.0
O311 O 0.38438 0.73273 0.16176 0.0
O312 O 0.33981 0.81655 0.1755 0.0
O313 O 0.37911 0.80702 0.19682 0.0
C314 C 0.3562 0.81801 0.2 0.0
C315 C 0.45137 0.76815 0.16889 0.0
C316 C 0.35939 0.73429 0.15926 0.0
C317 C 0.39026 0.79487 0.08756 0.0
O318 O 0.40412 0.77608 0.09917 0.0
O319 O 0.3745 0.80751 0.10629 0.0
O320 O 0.44551 0.74937 0.14865 0.0
O321 O 0.43268 0.78369 0.17866 0.0
O322 O 0.25432 0.34646 0.15299 0.0
Cd323 Cd 0.2175 0.36395 0.1512 0.0
Cd324 Cd 0.24758 0.40556 0.13602 0.0
O325 O 0.27852 0.3826 0.15288 0.0
O326 O 0.19535 0.33936 0.17778 0.0
O327 O 0.20202 0.38097 0.192 0.0
C328 C 0.1922 0.35812 0.19906 0.0
C329 C 0.24445 0.44985 0.15088 0.0
C330 C 0.27667 0.35768 0.15502 0.0
C331 C 0.21328 0.38151 0.08212 0.0
O332 O 0.23274 0.39622 0.08957 0.0
O333 O 0.20136 0.36836 0.10442 0.0
O334 O 0.26231 0.44171 0.13055 0.0
O335 O 0.2287 0.43271 0.16394 0.0
O336 O 0.34573 0.25508 0.15348 0.0
Cd337 Cd 0.36362 0.21838 0.15269 0.0
Cd338 Cd 0.40515 0.24899 0.13721 0.0
O339 O 0.38161 0.27982 0.15269 0.0
O340 O 0.33753 0.19588 0.17639 0.0
O341 O 0.37748 0.20433 0.19623 0.0
C342 C 0.35441 0.19394 0.20024 0.0
C343 C 0.44908 0.2455 0.15355 0.0
C344 C 0.3567 0.27756 0.15521 0.0
C345 C 0.38283 0.21366 0.08385 0.0
O346 O 0.39673 0.23375 0.0909 0.0
O347 O 0.36996 0.20168 0.10637 0.0
O348 O 0.44154 0.26337 0.13286 0.0
O349 O 0.43146 0.23011 0.16632 0.0
O350 O 0.75637 0.34651 0.1486 0.0
Cd351 Cd 0.79319 0.36414 0.14882 0.0
Cd352 Cd 0.76298 0.40601 0.13405 0.0
O353 O 0.73219 0.38273 0.15047 0.0
O354 O 0.81562 0.33807 0.17277 0.0
O355 O 0.8067 0.37786 0.19267 0.0
C356 C 0.81721 0.35484 0.19675 0.0
C357 C 0.76636 0.45013 0.14952 0.0
C358 C 0.73405 0.35775 0.1514 0.0
C359 C 0.79791 0.3832 0.08037 0.0
O360 O 0.77779 0.39709 0.08755 0.0
O361 O 0.81016 0.3705 0.10283 0.0
O362 O 0.74834 0.44229 0.12923 0.0
O363 O 0.7821 0.43278 0.16225 0.0
O364 O 0.66712 0.76006 0.15116 0.0
Cd365 Cd 0.64945 0.79639 0.14889 0.0
Cd366 Cd 0.60515 0.76781 0.14693 0.0
O367 O 0.6308 0.73624 0.1559 0.0
O368 O 0.67489 0.82075 0.17074 0.0
O369 O 0.63556 0.81108 0.19185 0.0
C370 C 0.65837 0.82227 0.19509 0.0
C371 C 0.56306 0.77014 0.17054 0.0
C372 C 0.6559 0.73788 0.15484 0.0
C373 C 0.6217 0.79792 0.0847 0.0
O374 O 0.60542 0.78272 0.09918 0.0
O375 O 0.64082 0.80803 0.10078 0.0
O376 O 0.56887 0.75268 0.14851 0.0
O377 O 0.58177 0.78514 0.18136 0.0
O378 O 0.25718 0.66478 0.15301 0.0
Cd379 Cd 0.22029 0.64746 0.14917 0.0
Cd380 Cd 0.25088 0.60619 0.13223 0.0
O381 O 0.2822 0.62938 0.14732 0.0
O382 O 0.19783 0.67186 0.17573 0.0
O383 O 0.20385 0.63001 0.18911 0.0
C384 C 0.1941 0.65284 0.19646 0.0
C385 C 0.24659 0.56248 0.14898 0.0
C386 C 0.27981 0.65396 0.1527 0.0
C387 C 0.21553 0.62986 0.07941 0.0
O388 O 0.23481 0.61479 0.08642 0.0
O389 O 0.20447 0.6436 0.1019 0.0
O390 O 0.26414 0.56941 0.12752 0.0
O391 O 0.23212 0.5806 0.16235 0.0
O392 O 0.34595 0.75534 0.87513 0.0
Cd393 Cd 0.36448 0.7913 0.87783 0.0
Cd394 Cd 0.40742 0.76065 0.88316 0.0
O395 O 0.38143 0.73011 0.87153 0.0
O396 O 0.33909 0.81576 0.8558 0.0
O397 O 0.37843 0.80606 0.83484 0.0
C398 C 0.35565 0.8173 0.83152 0.0
C399 C 0.4496 0.76407 0.86007 0.0
C400 C 0.35642 0.73277 0.87146 0.0
C401 C 0.38991 0.79196 0.9439 0.0
O402 O 0.4053 0.77488 0.93125 0.0
O403 O 0.37262 0.80344 0.92603 0.0
O404 O 0.44398 0.74606 0.88149 0.0
O405 O 0.4307 0.77911 0.84974 0.0
O406 O 0.25593 0.3449 0.87044 0.0
Cd407 Cd 0.21866 0.36123 0.87247 0.0
Cd408 Cd 0.24708 0.40426 0.88613 0.0
O409 O 0.27915 0.38169 0.87176 0.0
O410 O 0.19695 0.33663 0.8453 0.0
O411 O 0.20279 0.37861 0.8322 0.0
C412 C 0.19339 0.3557 0.82454 0.0
C413 C 0.2431 0.44786 0.86862 0.0
C414 C 0.278 0.35674 0.8693 0.0
C415 C 0.21329 0.38038 0.94081 0.0
O416 O 0.23146 0.39637 0.93255 0.0
O417 O 0.20285 0.36515 0.91943 0.0
O418 O 0.26035 0.44102 0.8905 0.0
O419 O 0.22862 0.42971 0.85537 0.0
O420 O 0.66517 0.25579 0.87307 0.0
Cd421 Cd 0.64886 0.21846 0.87373 0.0
Cd422 Cd 0.60547 0.24699 0.88735 0.0
O423 O 0.62812 0.27879 0.87251 0.0
O424 O 0.67556 0.19664 0.8501 0.0
O425 O 0.63534 0.20399 0.83031 0.0
C426 C 0.6587 0.19418 0.8263 0.0
C427 C 0.56183 0.24267 0.86996 0.0
C428 C 0.65316 0.27773 0.87087 0.0
C429 C 0.62848 0.21267 0.94168 0.0
O430 O 0.6133 0.23164 0.93387 0.0
O431 O 0.6431 0.20179 0.91998 0.0
O432 O 0.56863 0.26021 0.89147 0.0
O433 O 0.58007 0.22816 0.8569 0.0
O434 O 0.75796 0.66426 0.86572 0.0
Cd435 Cd 0.79451 0.64653 0.86988 0.0
Cd436 Cd 0.76324 0.6063 0.88806 0.0
O437 O 0.73183 0.63028 0.87523 0.0
O438 O 0.81698 0.67066 0.84303 0.0
O439 O 0.8114 0.62863 0.83048 0.0
C440 C 0.82096 0.65143 0.8227 0.0
C441 C 0.76609 0.56267 0.8705 0.0
C442 C 0.73495 0.65446 0.86801 0.0
C443 C 0.79916 0.63028 0.94024 0.0
O444 O 0.78048 0.61447 0.93337 0.0
O445 O 0.80969 0.64437 0.91769 0.0
O446 O 0.74946 0.56977 0.89301 0.0
O447 O 0.78044 0.58061 0.85659 0.0
C448 C 0.19165 0.17139 0.3968 0.0
C449 C 0.2082 0.16795 0.3687 0.0
C450 C 0.183 0.20162 0.33837 0.0
C451 C 0.16913 0.20769 0.36798 0.0
N452 N 0.16151 0.20011 0.42642 0.0
N453 N 0.22002 0.17906 0.31251 0.0
C454 C 0.17339 0.19273 0.39734 0.0
C455 C 0.20384 0.18274 0.33929 0.0
N456 N 0.19371 0.15458 0.42323 0.0
N457 N 0.17584 0.21365 0.30933 0.0
H458 H 0.2342 0.16413 0.31157 0.0
H459 H 0.22021 0.19134 0.2918 0.0
H460 H 0.16047 0.22735 0.308 0.0
H461 H 0.18347 0.20859 0.28621 0.0
H462 H 0.18022 0.15416 0.44274 0.0
H463 H 0.20768 0.13951 0.42456 0.0
H464 H 0.16641 0.19223 0.44948 0.0
H465 H 0.14802 0.21559 0.42814 0.0
C466 C 0.80451 0.18714 0.33947 0.0
C467 C 0.8007 0.17147 0.36828 0.0
C468 C 0.8365 0.19488 0.39684 0.0
C469 C 0.84011 0.21076 0.36816 0.0
N470 N 0.83189 0.21898 0.31025 0.0
N471 N 0.81606 0.15643 0.42179 0.0
C472 C 0.82541 0.20591 0.33882 0.0
C473 C 0.81786 0.17391 0.39601 0.0
N474 N 0.78781 0.1843 0.31302 0.0
N475 N 0.84958 0.20098 0.42559 0.0
H476 H 0.8018 0.14165 0.42301 0.0
H477 H 0.82989 0.15524 0.44087 0.0
H478 H 0.86359 0.21599 0.42726 0.0
H479 H 0.84536 0.19245 0.44848 0.0
H480 H 0.78722 0.19716 0.29289 0.0
H481 H 0.77364 0.16938 0.31175 0.0
H482 H 0.82353 0.21499 0.28718 0.0
H483 H 0.84735 0.23256 0.30908 0.0
C484 C 0.83983 0.81904 0.39492 0.0
C485 C 0.84246 0.8028 0.36634 0.0
C486 C 0.80807 0.82852 0.3379 0.0
C487 C 0.80294 0.84211 0.36797 0.0
N488 N 0.81245 0.84966 0.4259 0.0
N489 N 0.82982 0.79181 0.31034 0.0
C490 C 0.81876 0.8376 0.39654 0.0
C491 C 0.8269 0.80763 0.33761 0.0
N492 N 0.85709 0.81637 0.42086 0.0
N493 N 0.79517 0.83599 0.30957 0.0
H494 H 0.84467 0.7776 0.30846 0.0
H495 H 0.81703 0.79197 0.2901 0.0
H496 H 0.78151 0.85142 0.30912 0.0
H497 H 0.79941 0.82854 0.28609 0.0
H498 H 0.85819 0.82963 0.44055 0.0
H499 H 0.87177 0.80199 0.42179 0.0
H500 H 0.82085 0.84468 0.44864 0.0
H501 H 0.79739 0.86359 0.42815 0.0
C502 C 0.17373 0.81555 0.39479 0.0
C503 C 0.17168 0.79928 0.36615 0.0
C504 C 0.20703 0.82452 0.3391 0.0
C505 C 0.21139 0.83828 0.36925 0.0
N506 N 0.2005 0.84608 0.42672 0.0
N507 N 0.18599 0.78769 0.31099 0.0
C508 C 0.19487 0.83394 0.39719 0.0
C509 C 0.18814 0.80373 0.33817 0.0
N510 N 0.15582 0.81309 0.42002 0.0
N511 N 0.22062 0.83182 0.31124 0.0
H512 H 0.1712 0.77349 0.30858 0.0
H513 H 0.19941 0.78762 0.29143 0.0
H514 H 0.23429 0.84723 0.31121 0.0
H515 H 0.21693 0.82426 0.28767 0.0
H516 H 0.1543 0.82643 0.43958 0.0
H517 H 0.14107 0.79878 0.42046 0.0
H518 H 0.1915 0.84126 0.44913 0.0
H519 H 0.2156 0.8599 0.42951 0.0
C520 C 0.18423 0.80512 0.68389 0.0
C521 C 0.1706 0.80056 0.65366 0.0
C522 C 0.19414 0.83745 0.62755 0.0
C523 C 0.21025 0.83962 0.65632 0.0
N524 N 0.22085 0.82644 0.71222 0.0
N525 N 0.16323 0.81087 0.59592 0.0
C526 C 0.20521 0.82381 0.68472 0.0
C527 C 0.17534 0.81665 0.62543 0.0
N528 N 0.17668 0.79181 0.71187 0.0
N529 N 0.19712 0.85496 0.60199 0.0
H530 H 0.14912 0.79603 0.59334 0.0
H531 H 0.1683 0.81951 0.57338 0.0
H532 H 0.21163 0.86952 0.60159 0.0
H533 H 0.18402 0.8564 0.58213 0.0
H534 H 0.18417 0.79558 0.73546 0.0
H535 H 0.16121 0.77822 0.71195 0.0
H536 H 0.22062 0.81347 0.73223 0.0
H537 H 0.23494 0.84134 0.71455 0.0
C538 C 0.20445 0.18377 0.68602 0.0
C539 C 0.20923 0.16904 0.65671 0.0
C540 C 0.17257 0.19163 0.62868 0.0
C541 C 0.17025 0.20886 0.65637 0.0
N542 N 0.1831 0.22153 0.71174 0.0
N543 N 0.19936 0.1595 0.59936 0.0
C544 C 0.18582 0.20483 0.68529 0.0
C545 C 0.19335 0.17273 0.62802 0.0
N546 N 0.21752 0.17723 0.7146 0.0
N547 N 0.15529 0.19368 0.60267 0.0
H548 H 0.21416 0.14525 0.59785 0.0
H549 H 0.19094 0.16377 0.57639 0.0
H550 H 0.14088 0.20828 0.60095 0.0
H551 H 0.15392 0.17976 0.58374 0.0
H552 H 0.21356 0.18557 0.73767 0.0
H553 H 0.23109 0.16174 0.71577 0.0
H554 H 0.1959 0.22191 0.73196 0.0
H555 H 0.16835 0.23589 0.71297 0.0
C556 C 0.80854 0.18423 0.68554 0.0
C557 C 0.80399 0.16965 0.65605 0.0
C558 C 0.8408 0.19244 0.62872 0.0
C559 C 0.84289 0.20952 0.65659 0.0
N560 N 0.82938 0.22205 0.71174 0.0
N561 N 0.81421 0.16059 0.59867 0.0
C562 C 0.82704 0.20538 0.6852 0.0
C563 C 0.82003 0.17355 0.62758 0.0
N564 N 0.79542 0.17743 0.71396 0.0
N565 N 0.8583 0.1946 0.60298 0.0
H566 H 0.79938 0.1464 0.59678 0.0
H567 H 0.82278 0.16504 0.57587 0.0
H568 H 0.87271 0.2092 0.60161 0.0
H569 H 0.85983 0.18077 0.58397 0.0
H570 H 0.79927 0.18565 0.73714 0.0
H571 H 0.782 0.16183 0.71489 0.0
H572 H 0.81634 0.22232 0.7317 0.0
H573 H 0.84398 0.23653 0.71325 0.0
C574 C 0.83707 0.81621 0.62897 0.0
C575 C 0.83965 0.79927 0.65691 0.0
C576 C 0.80483 0.82392 0.68596 0.0
C577 C 0.79999 0.83847 0.65652 0.0
N578 N 0.80967 0.84741 0.59895 0.0
N579 N 0.82632 0.78636 0.71199 0.0
C580 C 0.81591 0.83468 0.6279 0.0
C581 C 0.8237 0.80306 0.68552 0.0
N582 N 0.85449 0.81433 0.60312 0.0
N583 N 0.79172 0.83052 0.71446 0.0
H584 H 0.84113 0.77207 0.71341 0.0
H585 H 0.81327 0.78583 0.73193 0.0
H586 H 0.77806 0.84593 0.71549 0.0
H587 H 0.79581 0.82236 0.73761 0.0
H588 H 0.85568 0.82817 0.58408 0.0
H589 H 0.86917 0.79997 0.60163 0.0
H590 H 0.81821 0.843 0.57611 0.0
H591 H 0.79449 0.86123 0.59703 0.0
C592 C 0.6763 0.69678 0.84173 0.0
C593 C 0.6746 0.71408 0.86945 0.0
C594 C 0.7105 0.69004 0.89733 0.0
C595 C 0.71228 0.67289 0.86959 0.0
N596 N 0.69462 0.65646 0.81818 0.0
N597 N 0.68702 0.72485 0.9258 0.0
C598 C 0.69432 0.67509 0.84271 0.0
C599 C 0.69087 0.71003 0.89784 0.0
N600 N 0.66181 0.702 0.81383 0.0
N601 N 0.72808 0.6875 0.92301 0.0
H602 H 0.67402 0.74067 0.92682 0.0
H603 H 0.69545 0.72064 0.94878 0.0
H604 H 0.74099 0.67156 0.92534 0.0
H605 H 0.73076 0.70161 0.94148 0.0
H606 H 0.66401 0.69193 0.79149 0.0
H607 H 0.64862 0.71776 0.81219 0.0
H608 H 0.68053 0.65527 0.79942 0.0
H609 H 0.70805 0.64083 0.81795 0.0
C610 C 0.3171 0.67268 0.84224 0.0
C611 C 0.30025 0.66921 0.87001 0.0
C612 C 0.32386 0.7038 0.90043 0.0
C613 C 0.33885 0.70934 0.87142 0.0
N614 N 0.34953 0.70027 0.81428 0.0
N615 N 0.28748 0.68026 0.926 0.0
C616 C 0.33573 0.69382 0.8423 0.0
C617 C 0.30381 0.68429 0.89935 0.0
N618 N 0.31511 0.65583 0.81586 0.0
N619 N 0.32925 0.71695 0.9293 0.0
H620 H 0.27427 0.66452 0.92748 0.0
H621 H 0.28619 0.69289 0.94629 0.0
H622 H 0.34285 0.73224 0.93068 0.0
H623 H 0.32158 0.71187 0.95238 0.0
H624 H 0.32824 0.65555 0.79601 0.0
H625 H 0.30117 0.64069 0.81488 0.0
H626 H 0.34632 0.69171 0.79115 0.0
H627 H 0.36342 0.71545 0.81364 0.0
C628 C 0.32721 0.30571 0.83823 0.0
C629 C 0.34154 0.30103 0.8679 0.0
C630 C 0.31936 0.33844 0.89474 0.0
C631 C 0.30239 0.34066 0.86675 0.0
N632 N 0.29002 0.32735 0.81146 0.0
N633 N 0.35076 0.31152 0.92516 0.0
C634 C 0.30645 0.32468 0.83823 0.0
C635 C 0.33789 0.31735 0.89617 0.0
N636 N 0.33382 0.29221 0.81003 0.0
N637 N 0.31741 0.35612 0.92029 0.0
H638 H 0.36472 0.29648 0.92724 0.0
H639 H 0.34645 0.32034 0.94786 0.0
H640 H 0.30312 0.37088 0.92134 0.0
H641 H 0.33117 0.35748 0.93943 0.0
H642 H 0.32579 0.29604 0.78674 0.0
H643 H 0.34909 0.27837 0.8094 0.0
H644 H 0.28961 0.31433 0.7915 0.0
H645 H 0.27591 0.34231 0.80971 0.0
C646 C 0.67193 0.31906 0.89541 0.0
C647 C 0.66902 0.30214 0.86757 0.0
C648 C 0.7023 0.32769 0.83708 0.0
C649 C 0.7079 0.34199 0.8665 0.0
N650 N 0.69969 0.35033 0.92463 0.0
N651 N 0.68058 0.29006 0.81159 0.0
C652 C 0.69282 0.33782 0.89578 0.0
C653 C 0.68384 0.30653 0.83817 0.0
N654 N 0.65506 0.31687 0.92178 0.0
N655 N 0.71441 0.33473 0.80806 0.0
H656 H 0.66589 0.27564 0.81074 0.0
H657 H 0.69293 0.28991 0.79095 0.0
H658 H 0.72784 0.35031 0.80663 0.0
H659 H 0.70969 0.32674 0.78501 0.0
H660 H 0.65421 0.33051 0.94107 0.0
H661 H 0.64035 0.30255 0.92326 0.0
H662 H 0.69179 0.34561 0.94773 0.0
H663 H 0.71476 0.36429 0.92614 0.0
C664 C 0.68505 0.30688 0.1834 0.0
C665 C 0.67072 0.30176 0.15384 0.0
C666 C 0.69328 0.33841 0.12594 0.0
C667 C 0.71008 0.34113 0.15399 0.0
N668 N 0.7223 0.32877 0.20965 0.0
N669 N 0.66198 0.31103 0.0961 0.0
C670 C 0.70593 0.32568 0.18291 0.0
C671 C 0.67468 0.3174 0.12502 0.0
N672 N 0.67823 0.29407 0.21203 0.0
N673 N 0.69539 0.35565 0.09995 0.0
H674 H 0.64803 0.29597 0.09435 0.0
H675 H 0.66646 0.31938 0.07318 0.0
H676 H 0.70965 0.37044 0.0988 0.0
H677 H 0.68181 0.35665 0.08057 0.0
H678 H 0.68628 0.29829 0.2352 0.0
H679 H 0.66278 0.28047 0.21309 0.0
H680 H 0.72268 0.31605 0.22993 0.0
H681 H 0.73641 0.34373 0.21101 0.0
C682 C 0.70692 0.68897 0.12373 0.0
C683 C 0.7103 0.67273 0.15212 0.0
C684 C 0.67562 0.69727 0.18159 0.0
C685 C 0.67255 0.71377 0.15334 0.0
N686 N 0.68112 0.7223 0.09539 0.0
N687 N 0.69522 0.65767 0.20546 0.0
C688 C 0.68697 0.70865 0.12376 0.0
C689 C 0.69364 0.6756 0.18019 0.0
N690 N 0.72335 0.68598 0.09698 0.0
N691 N 0.6624 0.70321 0.21023 0.0
H692 H 0.70866 0.64206 0.20531 0.0
H693 H 0.68211 0.65702 0.22533 0.0
H694 H 0.64894 0.71874 0.21193 0.0
H695 H 0.66577 0.69385 0.23283 0.0
H696 H 0.72464 0.69945 0.07756 0.0
H697 H 0.7368 0.67047 0.09473 0.0
H698 H 0.68847 0.71749 0.07203 0.0
H699 H 0.66725 0.73743 0.09461 0.0
C700 C 0.30746 0.68467 0.18682 0.0
C701 C 0.30351 0.67087 0.15657 0.0
C702 C 0.34133 0.6939 0.13179 0.0
C703 C 0.34285 0.71021 0.16037 0.0
N704 N 0.32783 0.72178 0.21517 0.0
N705 N 0.315 0.66353 0.09912 0.0
C706 C 0.32615 0.70564 0.18805 0.0
C707 C 0.32029 0.67543 0.12889 0.0
N708 N 0.29365 0.67729 0.21447 0.0
N709 N 0.35978 0.69634 0.10718 0.0
H710 H 0.29984 0.64988 0.09581 0.0
H711 H 0.32433 0.66853 0.07698 0.0
H712 H 0.37485 0.71035 0.10774 0.0
H713 H 0.36152 0.68319 0.08745 0.0
H714 H 0.29715 0.68485 0.23809 0.0
H715 H 0.28003 0.66184 0.21431 0.0
H716 H 0.31418 0.7218 0.23448 0.0
H717 H 0.34249 0.7361 0.21771 0.0
C718 C 0.30417 0.32483 0.18629 0.0
C719 C 0.30064 0.34099 0.15782 0.0
C720 C 0.33644 0.31761 0.12911 0.0
C721 C 0.3398 0.30133 0.15749 0.0
N722 N 0.33122 0.29244 0.21514 0.0
N723 N 0.31636 0.35642 0.1046 0.0
C724 C 0.32497 0.30591 0.18677 0.0
C725 C 0.31794 0.33873 0.13018 0.0
N726 N 0.28725 0.32731 0.21258 0.0
N727 N 0.34958 0.31173 0.10034 0.0
H728 H 0.30204 0.37112 0.10312 0.0
H729 H 0.33043 0.3578 0.08583 0.0
H730 H 0.36347 0.29661 0.09847 0.0
H731 H 0.34549 0.32054 0.07757 0.0
H732 H 0.28651 0.31413 0.23237 0.0
H733 H 0.27304 0.34219 0.21404 0.0
H734 H 0.32283 0.29626 0.23822 0.0
H735 H 0.34656 0.27869 0.21617 0.0
C736 C 0.99169 0.29212 0.37553 0.0
C737 C 0.97778 0.27004 0.36266 0.0
C738 C 0.01958 0.24821 0.34879 0.0
C739 C 0.03351 0.26985 0.36271 0.0
N740 N 0.03354 0.31485 0.3822 0.0
N741 N 0.97756 0.23032 0.33008 0.0
C742 C 0.01976 0.29274 0.3734 0.0
C743 C 0.99151 0.24911 0.34699 0.0
N744 N 0.97823 0.31155 0.39196 0.0
N745 N 0.03327 0.22655 0.3381 0.0
H746 H 0.957 0.23079 0.32817 0.0
H747 H 0.98623 0.21566 0.31565 0.0
H748 H 0.05386 0.22605 0.33697 0.0
H749 H 0.02442 0.20879 0.33149 0.0
H750 H 0.98735 0.32637 0.4057 0.0
H751 H 0.9577 0.31207 0.39375 0.0
H752 H 0.02469 0.33303 0.38678 0.0
H753 H 0.0541 0.31572 0.38242 0.0
C754 C 0.71953 0.02013 0.37762 0.0
C755 C 0.74109 0.03413 0.3636 0.0
C756 C 0.76267 0.99251 0.34846 0.0
C757 C 0.74158 0.97849 0.36351 0.0
N758 N 0.69727 0.97821 0.38558 0.0
N759 N 0.7797 0.03458 0.32889 0.0
C760 C 0.71899 0.99209 0.37551 0.0
C761 C 0.76156 0.02054 0.34678 0.0
N762 N 0.70056 0.03347 0.39505 0.0
N763 N 0.78403 0.97896 0.33658 0.0
H764 H 0.77906 0.05511 0.32706 0.0
H765 H 0.79391 0.02601 0.31367 0.0
H766 H 0.7846 0.9584 0.3354 0.0
H767 H 0.80152 0.98789 0.32901 0.0
H768 H 0.68627 0.02431 0.40959 0.0
H769 H 0.69996 0.05398 0.39676 0.0
H770 H 0.6792 0.98693 0.39121 0.0
H771 H 0.69653 0.95767 0.38589 0.0
C772 C 0.0201 0.71803 0.37507 0.0
C773 C 0.03405 0.7395 0.36078 0.0
C774 C 0.9923 0.76089 0.34555 0.0
C775 C 0.97833 0.7399 0.36086 0.0
N776 N 0.97815 0.69585 0.38354 0.0
N777 N 0.03438 0.77791 0.32582 0.0
C778 C 0.99201 0.71746 0.37312 0.0
C779 C 0.02038 0.75984 0.34384 0.0
N780 N 0.03358 0.69916 0.39251 0.0
N781 N 0.97866 0.78211 0.33345 0.0
H782 H 0.05494 0.77734 0.324 0.0
H783 H 0.02576 0.79203 0.3105 0.0
H784 H 0.95807 0.78263 0.33232 0.0
H785 H 0.98754 0.79954 0.32564 0.0
H786 H 0.0245 0.68493 0.40721 0.0
H787 H 0.05413 0.69858 0.39401 0.0
H788 H 0.9869 0.67786 0.38943 0.0
H789 H 0.95759 0.69511 0.38392 0.0
C790 C 0.29155 0.98979 0.38171 0.0
C791 C 0.27025 0.97556 0.36738 0.0
C792 C 0.24888 0.01692 0.3507 0.0
C793 C 0.26968 0.03119 0.36607 0.0
N794 N 0.31347 0.03188 0.38976 0.0
N795 N 0.23214 0.97453 0.33178 0.0
C796 C 0.29203 0.0178 0.37914 0.0
C797 C 0.25001 0.98887 0.34974 0.0
N798 N 0.31032 0.97665 0.39975 0.0
N799 N 0.22776 0.03027 0.33779 0.0
H800 H 0.23278 0.95397 0.33053 0.0
H801 H 0.21814 0.98282 0.31601 0.0
H802 H 0.22722 0.05081 0.33605 0.0
H803 H 0.21042 0.02123 0.32987 0.0
H804 H 0.32439 0.98596 0.41449 0.0
H805 H 0.31097 0.95615 0.40166 0.0
H806 H 0.33144 0.02331 0.39622 0.0
H807 H 0.31413 0.05242 0.38981 0.0
C808 C 0.01939 0.76149 0.67298 0.0
C809 C 0.03334 0.74058 0.65742 0.0
C810 C 0.99154 0.71883 0.64317 0.0
C811 C 0.97761 0.74018 0.65781 0.0
N812 N 0.97738 0.77836 0.69319 0.0
N813 N 0.03347 0.69668 0.63424 0.0
C814 C 0.99133 0.76042 0.67487 0.0
C815 C 0.01963 0.71823 0.64498 0.0
N816 N 0.03304 0.78265 0.68517 0.0
N817 N 0.97804 0.70012 0.62551 0.0
H818 H 0.05403 0.69592 0.63367 0.0
H819 H 0.0247 0.67873 0.62825 0.0
H820 H 0.95749 0.69957 0.62402 0.0
H821 H 0.9871 0.68601 0.61057 0.0
H822 H 0.02416 0.80004 0.69316 0.0
H823 H 0.05364 0.78318 0.68618 0.0
H824 H 0.98606 0.79237 0.70861 0.0
H825 H 0.95683 0.77777 0.69516 0.0
C826 C 0.29329 0.9903 0.65321 0.0
C827 C 0.27083 0.97637 0.66493 0.0
C828 C 0.24971 0.01818 0.68052 0.0
C829 C 0.27011 0.03201 0.6639 0.0
N830 N 0.31107 0.03184 0.63333 0.0
N831 N 0.22806 0.97626 0.69104 0.0
C832 C 0.29217 0.0183 0.6506 0.0
C833 C 0.24926 0.99012 0.67933 0.0
N834 N 0.31545 0.97677 0.64387 0.0
N835 N 0.23101 0.03205 0.69773 0.0
H836 H 0.22795 0.95571 0.69261 0.0
H837 H 0.21028 0.98489 0.69812 0.0
H838 H 0.23117 0.05261 0.69917 0.0
H839 H 0.21677 0.02337 0.71278 0.0
H840 H 0.3334 0.98581 0.63851 0.0
H841 H 0.31665 0.95626 0.64395 0.0
H842 H 0.32576 0.02281 0.61927 0.0
H843 H 0.31123 0.05233 0.63122 0.0
C844 C 0.02092 0.29396 0.64594 0.0
C845 C 0.03476 0.27164 0.65826 0.0
C846 C 0.99288 0.25143 0.67542 0.0
C847 C 0.97905 0.27166 0.65845 0.0
N848 N 0.97918 0.31198 0.6267 0.0
N849 N 0.03475 0.22948 0.68582 0.0
C850 C 0.99283 0.29321 0.64409 0.0
C851 C 0.02095 0.25058 0.67366 0.0
N852 N 0.03463 0.31562 0.63539 0.0
N853 N 0.97903 0.23331 0.69353 0.0
H854 H 0.05534 0.2291 0.68696 0.0
H855 H 0.02599 0.212 0.69367 0.0
H856 H 0.95846 0.23374 0.69539 0.0
H857 H 0.98776 0.21928 0.70887 0.0
H858 H 0.02577 0.33354 0.62943 0.0
H859 H 0.0552 0.31647 0.63495 0.0
H860 H 0.98812 0.32629 0.61199 0.0
H861 H 0.95862 0.31242 0.62531 0.0
C862 C 0.76467 0.01812 0.67587 0.0
C863 C 0.74352 0.03242 0.66128 0.0
C864 C 0.72112 0.99103 0.64688 0.0
C865 C 0.74272 0.97677 0.66048 0.0
N866 N 0.78169 0.97576 0.69457 0.0
N867 N 0.69906 0.03315 0.63958 0.0
C868 C 0.76344 0.99008 0.67717 0.0
C869 C 0.72077 0.01905 0.64932 0.0
N870 N 0.78619 0.03143 0.6877 0.0
N871 N 0.70193 0.97794 0.62954 0.0
H872 H 0.69843 0.05369 0.6394 0.0
H873 H 0.68089 0.02459 0.63408 0.0
H874 H 0.7012 0.95745 0.62761 0.0
H875 H 0.68756 0.98729 0.61527 0.0
H876 H 0.80371 0.02233 0.69492 0.0
H877 H 0.78686 0.05197 0.68921 0.0
H878 H 0.79612 0.9841 0.7097 0.0
H879 H 0.781 0.95522 0.6961 0.0
C880 C 0.51969 0.7474 0.83372 0.0
C881 C 0.53335 0.76837 0.84938 0.0
C882 C 0.49123 0.79101 0.85971 0.0
C883 C 0.47754 0.76787 0.84973 0.0
N884 N 0.47799 0.72469 0.82491 0.0
N885 N 0.53246 0.80987 0.87887 0.0
C886 C 0.4916 0.74636 0.83565 0.0
C887 C 0.51928 0.79045 0.86205 0.0
N888 N 0.53372 0.72868 0.81682 0.0
N889 N 0.47751 0.81335 0.86779 0.0
H890 H 0.55295 0.81051 0.88116 0.0
H891 H 0.52307 0.82447 0.8927 0.0
H892 H 0.457 0.81445 0.86796 0.0
H893 H 0.48647 0.8316 0.87152 0.0
H894 H 0.52513 0.7139 0.80253 0.0
H895 H 0.55428 0.72934 0.81483 0.0
H896 H 0.4869 0.70698 0.81814 0.0
H897 H 0.4574 0.72422 0.82369 0.0
C898 C 0.21742 0.49008 0.87161 0.0
C899 C 0.23996 0.47614 0.8601 0.0
C900 C 0.26077 0.51785 0.84362 0.0
C901 C 0.24034 0.53174 0.86011 0.0
N902 N 0.19935 0.53178 0.8906 0.0
N903 N 0.28259 0.47589 0.83363 0.0
C904 C 0.21836 0.5181 0.87365 0.0
C905 C 0.26138 0.48981 0.84528 0.0
N906 N 0.19538 0.47653 0.88128 0.0
N907 N 0.27935 0.53162 0.82614 0.0
H908 H 0.2828 0.45533 0.83241 0.0
H909 H 0.30029 0.48451 0.82623 0.0
H910 H 0.27906 0.55216 0.82437 0.0
H911 H 0.29364 0.52286 0.8112 0.0
H912 H 0.17738 0.48552 0.88656 0.0
H913 H 0.19433 0.45601 0.88156 0.0
H914 H 0.18469 0.52288 0.90481 0.0
H915 H 0.19904 0.55231 0.89221 0.0
C916 C 0.49175 0.21757 0.87637 0.0
C917 C 0.47781 0.23925 0.8625 0.0
C918 C 0.51951 0.26029 0.84662 0.0
C919 C 0.5335 0.2392 0.86177 0.0
N920 N 0.53362 0.19502 0.88405 0.0
N921 N 0.47734 0.27769 0.82761 0.0
C922 C 0.5198 0.21679 0.874 0.0
C923 C 0.49143 0.25948 0.84534 0.0
N924 N 0.47833 0.19874 0.89389 0.0
N925 N 0.53318 0.28138 0.8343 0.0
H926 H 0.45676 0.27726 0.82611 0.0
H927 H 0.48587 0.29179 0.81221 0.0
H928 H 0.55376 0.28169 0.83283 0.0
H929 H 0.52435 0.29888 0.82659 0.0
H930 H 0.48746 0.18435 0.90832 0.0
H931 H 0.45779 0.19833 0.89572 0.0
H932 H 0.52481 0.17707 0.88992 0.0
H933 H 0.55418 0.1941 0.88409 0.0
C934 C 0.79082 0.49231 0.87474 0.0
C935 C 0.76857 0.47867 0.86186 0.0
C936 C 0.74706 0.52064 0.84819 0.0
C937 C 0.76887 0.53431 0.86216 0.0
N938 N 0.81393 0.53387 0.88176 0.0
N939 N 0.7287 0.47888 0.82946 0.0
C940 C 0.79168 0.52034 0.8728 0.0
C941 C 0.74769 0.49261 0.84632 0.0
N942 N 0.81023 0.47862 0.89098 0.0
N943 N 0.72551 0.53455 0.83751 0.0
H944 H 0.72896 0.45835 0.82752 0.0
H945 H 0.71403 0.48769 0.81513 0.0
H946 H 0.72522 0.55512 0.83642 0.0
H947 H 0.70764 0.52591 0.83084 0.0
H948 H 0.82517 0.48751 0.90476 0.0
H949 H 0.81059 0.45809 0.89253 0.0
H950 H 0.83207 0.52487 0.88626 0.0
H951 H 0.81498 0.55438 0.88225 0.0
C952 C 0.49143 0.26263 0.17692 0.0
C953 C 0.47762 0.24213 0.16051 0.0
C954 C 0.51954 0.21975 0.1483 0.0
C955 C 0.53334 0.2423 0.15999 0.0
N956 N 0.53325 0.28487 0.18651 0.0
N957 N 0.47785 0.20142 0.12951 0.0
C958 C 0.5195 0.26355 0.17496 0.0
C959 C 0.49145 0.22042 0.14654 0.0
N960 N 0.47757 0.28098 0.19471 0.0
N961 N 0.53327 0.19795 0.1382 0.0
H962 H 0.4573 0.2009 0.12811 0.0
H963 H 0.48684 0.18699 0.11499 0.0
H964 H 0.55383 0.19711 0.13757 0.0
H965 H 0.52443 0.17991 0.13282 0.0
H966 H 0.48631 0.29526 0.20966 0.0
H967 H 0.45702 0.2805 0.19673 0.0
H968 H 0.52444 0.30245 0.19398 0.0
H969 H 0.55384 0.28532 0.18751 0.0
C970 C 0.74964 0.5203 0.17382 0.0
C971 C 0.76903 0.53433 0.15555 0.0
C972 C 0.78964 0.49275 0.13819 0.0
C973 C 0.7698 0.47871 0.15572 0.0
N974 N 0.73473 0.47819 0.1959 0.0
N975 N 0.8105 0.53481 0.12614 0.0
C976 C 0.75101 0.49226 0.17543 0.0
C977 C 0.79016 0.5208 0.13986 0.0
N978 N 0.72954 0.53384 0.1888 0.0
N979 N 0.80697 0.47931 0.11833 0.0
H980 H 0.81107 0.55536 0.12588 0.0
H981 H 0.82777 0.52623 0.11723 0.0
H982 H 0.8077 0.45877 0.11723 0.0
H983 H 0.81967 0.48835 0.10152 0.0
H984 H 0.71305 0.52489 0.19931 0.0
H985 H 0.72887 0.55441 0.1896 0.0
H986 H 0.72203 0.48672 0.21313 0.0
H987 H 0.73552 0.45765 0.19754 0.0
C988 C 0.49316 0.75175 0.19474 0.0
C989 C 0.47934 0.77237 0.1785 0.0
C990 C 0.52101 0.79632 0.17064 0.0
C991 C 0.53506 0.77344 0.18077 0.0
N992 N 0.53521 0.73007 0.205 0.0
N993 N 0.4798 0.81421 0.14982 0.0
C994 C 0.52128 0.75147 0.19403 0.0
C995 C 0.49308 0.79499 0.16689 0.0
N996 N 0.47922 0.7326 0.21097 0.0
N997 N 0.53431 0.81912 0.16375 0.0
H998 H 0.45939 0.81423 0.14656 0.0
H999 H 0.48914 0.82929 0.1368 0.0
H1000 H 0.55476 0.82081 0.16514 0.0
H1001 H 0.52496 0.83714 0.15968 0.0
H1002 H 0.48788 0.71805 0.22561 0.0
H1003 H 0.45862 0.7327 0.21213 0.0
H1004 H 0.52662 0.71208 0.21117 0.0
H1005 H 0.55577 0.73016 0.20699 0.0
C1006 C 0.26191 0.49192 0.17457 0.0
C1007 C 0.24158 0.47848 0.15728 0.0
C1008 C 0.22041 0.52073 0.14378 0.0
C1009 C 0.24283 0.53412 0.15663 0.0
N1010 N 0.28468 0.53327 0.18507 0.0
N1011 N 0.20178 0.47938 0.1244 0.0
C1012 C 0.26341 0.51992 0.17258 0.0
C1013 C 0.22058 0.49266 0.14219 0.0
N1014 N 0.27951 0.47777 0.19322 0.0
N1015 N 0.19919 0.53485 0.13248 0.0
H1016 H 0.20091 0.45885 0.12316 0.0
H1017 H 0.18792 0.48854 0.10918 0.0
H1018 H 0.19879 0.55539 0.13175 0.0
H1019 H 0.18117 0.52637 0.12611 0.0
H1020 H 0.29352 0.48626 0.20881 0.0
H1021 H 0.27862 0.45726 0.19524 0.0
H1022 H 0.30188 0.52416 0.19339 0.0
H1023 H 0.28552 0.55382 0.18598 0.0
C1024 C 0.11332 0.31657 0.49318 0.0
C1025 C 0.13478 0.305 0.47589 0.0
C1026 C 0.15844 0.29869 0.52853 0.0
C1027 C 0.13511 0.30577 0.54596 0.0
N1028 N 0.09073 0.32284 0.54583 0.0
N1029 N 0.17749 0.28374 0.47667 0.0
C1030 C 0.11275 0.31546 0.52851 0.0
C1031 C 0.15758 0.2963 0.49334 0.0
N1032 N 0.09364 0.32868 0.4756 0.0
N1033 N 0.18124 0.29354 0.54557 0.0
H1034 H 0.1779 0.28162 0.45094 0.0
H1035 H 0.19284 0.27373 0.4884 0.0
H1036 H 0.18251 0.29382 0.57137 0.0
H1037 H 0.19952 0.29119 0.53412 0.0
H1038 H 0.07838 0.3394 0.48645 0.0
H1039 H 0.09387 0.32989 0.44972 0.0
H1040 H 0.0726 0.32704 0.53482 0.0
H1041 H 0.09039 0.32392 0.57171 0.0
C1042 C 0.7134 0.1531 0.53043 0.0
C1043 C 0.70742 0.12953 0.54795 0.0
C1044 C 0.69917 0.10645 0.49542 0.0
C1045 C 0.70614 0.12971 0.47789 0.0
N1046 N 0.71321 0.17685 0.47822 0.0
N1047 N 0.6886 0.08602 0.54845 0.0
C1048 C 0.71072 0.15366 0.49527 0.0
C1049 C 0.69827 0.10691 0.53077 0.0
N1050 N 0.72377 0.17428 0.547 0.0
N1051 N 0.69415 0.08377 0.47815 0.0
H1052 H 0.68756 0.08611 0.57434 0.0
H1053 H 0.67962 0.06965 0.5377 0.0
H1054 H 0.69289 0.08332 0.45228 0.0
H1055 H 0.6921 0.06532 0.48916 0.0
H1056 H 0.73195 0.1906 0.53519 0.0
H1057 H 0.726 0.17495 0.57271 0.0
H1058 H 0.71351 0.19526 0.48967 0.0
H1059 H 0.71273 0.1781 0.45243 0.0
C1060 C 0.85585 0.71438 0.49298 0.0
C1061 C 0.87889 0.70664 0.47532 0.0
C1062 C 0.90173 0.69729 0.52777 0.0
C1063 C 0.879 0.70581 0.54541 0.0
N1064 N 0.83241 0.71613 0.5454 0.0
N1065 N 0.92113 0.68496 0.47474 0.0
C1066 C 0.8553 0.71194 0.52817 0.0
C1067 C 0.901 0.69616 0.49245 0.0
N1068 N 0.83532 0.7261 0.47648 0.0
N1069 N 0.92419 0.69099 0.5449 0.0
H1070 H 0.92084 0.68372 0.44886 0.0
H1071 H 0.93693 0.67497 0.48549 0.0
H1072 H 0.92476 0.68989 0.57077 0.0
H1073 H 0.94245 0.68776 0.53374 0.0
H1074 H 0.81961 0.73542 0.48835 0.0
H1075 H 0.83469 0.72829 0.45077 0.0
H1076 H 0.81397 0.71767 0.5341 0.0
H1077 H 0.83132 0.71588 0.57121 0.0
C1078 C 0.31633 0.90125 0.53337 0.0
C1079 C 0.30713 0.87873 0.55072 0.0
C1080 C 0.30232 0.8549 0.49793 0.0
C1081 C 0.30697 0.87882 0.48055 0.0
N1082 N 0.31985 0.92452 0.48078 0.0
N1083 N 0.29001 0.83427 0.54993 0.0
C1084 C 0.31473 0.90187 0.49805 0.0
C1085 C 0.30038 0.85535 0.53319 0.0
N1086 N 0.32671 0.92189 0.55089 0.0
N1087 N 0.29905 0.83185 0.48078 0.0
H1088 H 0.28835 0.8335 0.57569 0.0
H1089 H 0.28131 0.81814 0.53826 0.0
H1090 H 0.29902 0.83074 0.45497 0.0
H1091 H 0.29862 0.81338 0.4921 0.0
H1092 H 0.33574 0.93815 0.53999 0.0
H1093 H 0.32825 0.92166 0.57675 0.0
H1094 H 0.32246 0.94288 0.49185 0.0
H1095 H 0.32063 0.92506 0.45489 0.0
C1096 C 0.10857 0.69597 0.49088 0.0
C1097 C 0.13168 0.70383 0.47354 0.0
C1098 C 0.15462 0.71173 0.52625 0.0
C1099 C 0.13115 0.70495 0.54357 0.0
N1100 N 0.08822 0.68476 0.54376 0.0
N1101 N 0.17859 0.71256 0.47419 0.0
C1102 C 0.1089 0.69508 0.52623 0.0
C1103 C 0.15542 0.70919 0.49109 0.0
N1104 N 0.08616 0.69011 0.47342 0.0
N1105 N 0.17543 0.72265 0.54306 0.0
H1106 H 0.17994 0.71217 0.44841 0.0
H1107 H 0.19697 0.71352 0.48575 0.0
H1108 H 0.17592 0.72474 0.56879 0.0
H1109 H 0.19158 0.73138 0.53144 0.0
H1110 H 0.06772 0.68735 0.48425 0.0
H1111 H 0.0859 0.6888 0.44755 0.0
H1112 H 0.07216 0.67529 0.53291 0.0
H1113 H 0.08822 0.68376 0.56966 0.0
C1114 C 0.31212 0.10503 0.49556 0.0
C1115 C 0.30476 0.12823 0.4781 0.0
C1116 C 0.29793 0.15162 0.53072 0.0
C1117 C 0.30428 0.12811 0.54819 0.0
N1118 N 0.32335 0.08469 0.54847 0.0
N1119 N 0.29737 0.17532 0.47846 0.0
C1120 C 0.31338 0.10552 0.5309 0.0
C1121 C 0.30021 0.15216 0.49551 0.0
N1122 N 0.31716 0.08238 0.47824 0.0
N1123 N 0.28763 0.17277 0.54743 0.0
H1124 H 0.29759 0.17653 0.45266 0.0
H1125 H 0.29704 0.19374 0.48988 0.0
H1126 H 0.28569 0.17345 0.57317 0.0
H1127 H 0.27921 0.18904 0.53574 0.0
H1128 H 0.31949 0.06395 0.48924 0.0
H1129 H 0.31818 0.08192 0.45236 0.0
H1130 H 0.33231 0.06834 0.53762 0.0
H1131 H 0.32464 0.0848 0.57434 0.0
C1132 C 0.85691 0.29844 0.49383 0.0
C1133 C 0.8802 0.30575 0.47648 0.0
C1134 C 0.90295 0.31423 0.5292 0.0
C1135 C 0.88004 0.30583 0.54656 0.0
N1136 N 0.83325 0.2964 0.54607 0.0
N1137 N 0.92295 0.32631 0.47639 0.0
C1138 C 0.85628 0.30039 0.52907 0.0
C1139 C 0.90245 0.31559 0.49387 0.0
N1140 N 0.83612 0.28759 0.47691 0.0
N1141 N 0.92536 0.32021 0.54662 0.0
H1142 H 0.9228 0.32764 0.45051 0.0
H1143 H 0.939 0.33577 0.48728 0.0
H1144 H 0.92573 0.32122 0.5725 0.0
H1145 H 0.94371 0.32338 0.53572 0.0
H1146 H 0.82014 0.27847 0.48842 0.0
H1147 H 0.83549 0.28599 0.45113 0.0
H1148 H 0.81482 0.2954 0.53465 0.0
H1149 H 0.83205 0.29624 0.57186 0.0
C1150 C 0.69756 0.90346 0.52969 0.0
C1151 C 0.70508 0.88036 0.54726 0.0
C1152 C 0.7124 0.857 0.49466 0.0
C1153 C 0.70598 0.88046 0.4771 0.0
N1154 N 0.68634 0.92362 0.47668 0.0
N1155 N 0.71291 0.83337 0.54701 0.0
C1156 C 0.69649 0.90293 0.49433 0.0
C1157 C 0.70994 0.85647 0.52988 0.0
N1158 N 0.69224 0.92608 0.54693 0.0
N1159 N 0.72294 0.83593 0.47805 0.0
H1160 H 0.71245 0.83221 0.57281 0.0
H1161 H 0.71355 0.81493 0.53564 0.0
H1162 H 0.72494 0.83525 0.45232 0.0
H1163 H 0.73141 0.81971 0.48981 0.0
H1164 H 0.6898 0.94448 0.53589 0.0
H1165 H 0.69111 0.92655 0.57281 0.0
H1166 H 0.67712 0.93985 0.48745 0.0
H1167 H 0.68516 0.92347 0.45079 0.0
C1168 C 0.62519 0.7741 0.03042 0.0
C1169 C 0.62177 0.79837 0.0477 0.0
C1170 C 0.61675 0.82152 0.9942 0.0
C1171 C 0.62149 0.79742 0.97721 0.0
N1172 N 0.63631 0.75208 0.97934 0.0
N1173 N 0.61729 0.84567 0.0465 0.0
C1174 C 0.6273 0.77411 0.9954 0.0
C1175 C 0.61864 0.8223 0.02969 0.0
N1176 N 0.62633 0.75067 0.04728 0.0
N1177 N 0.6093 0.8433 0.97652 0.0
H1178 H 0.61712 0.84675 0.07237 0.0
H1179 H 0.61784 0.86405 0.035 0.0
H1180 H 0.60769 0.84326 0.95069 0.0
H1181 H 0.60295 0.86083 0.98734 0.0
H1182 H 0.6242 0.73238 0.03577 0.0
H1183 H 0.62784 0.74905 0.07292 0.0
H1184 H 0.64473 0.73599 0.99148 0.0
H1185 H 0.63774 0.75056 0.95369 0.0
C1186 C 0.21358 0.65353 0.99056 0.0
C1187 C 0.20614 0.62986 0.97415 0.0
C1188 C 0.19824 0.60835 0.02777 0.0
C1189 C 0.207 0.63157 0.04418 0.0
N1190 N 0.21643 0.67822 0.04201 0.0
N1191 N 0.18558 0.5872 0.97586 0.0
C1192 C 0.21218 0.6549 0.02582 0.0
C1193 C 0.19648 0.60805 0.99246 0.0
N1194 N 0.22399 0.674 0.97268 0.0
N1195 N 0.19235 0.58642 0.04609 0.0
H1196 H 0.18397 0.58678 0.95002 0.0
H1197 H 0.17627 0.5714 0.98744 0.0
H1198 H 0.19164 0.58665 0.07199 0.0
H1199 H 0.18891 0.56787 0.03591 0.0
H1200 H 0.23326 0.69023 0.98339 0.0
H1201 H 0.22495 0.67416 0.94684 0.0
H1202 H 0.21738 0.69639 0.03003 0.0
H1203 H 0.21681 0.67992 0.06777 0.0
C1204 C 0.4039 0.19813 0.03104 0.0
C1205 C 0.38073 0.20571 0.04846 0.0
C1206 C 0.35739 0.21273 0.99579 0.0
C1207 C 0.38087 0.20612 0.97835 0.0
N1208 N 0.42416 0.1866 0.9782 0.0
N1209 N 0.33366 0.21357 0.04804 0.0
C1210 C 0.4034 0.19682 0.9957 0.0
C1211 C 0.35682 0.21048 0.03101 0.0
N1212 N 0.42654 0.19293 0.04839 0.0
N1213 N 0.33633 0.22323 0.97905 0.0
H1214 H 0.33246 0.21334 0.07384 0.0
H1215 H 0.31522 0.2141 0.03661 0.0
H1216 H 0.33569 0.22519 0.95331 0.0
H1217 H 0.32011 0.23181 0.99071 0.0
H1218 H 0.44498 0.19044 0.03742 0.0
H1219 H 0.42698 0.19194 0.07427 0.0
H1220 H 0.44042 0.1775 0.98911 0.0
H1221 H 0.42404 0.18526 0.95233 0.0
C1222 C 0.81356 0.40319 0.02699 0.0
C1223 C 0.80534 0.38054 0.0449 0.0
C1224 C 0.79698 0.35694 0.99278 0.0
C1225 C 0.80425 0.37995 0.97485 0.0
N1226 N 0.82543 0.42236 0.97367 0.0
N1227 N 0.79583 0.33387 0.04547 0.0
C1228 C 0.81457 0.40225 0.99167 0.0
C1229 C 0.79956 0.35667 0.02796 0.0
N1230 N 0.81965 0.42579 0.04386 0.0
N1231 N 0.78555 0.33614 0.97656 0.0
H1232 H 0.79631 0.33296 0.0713 0.0
H1233 H 0.7945 0.31535 0.0344 0.0
H1234 H 0.78334 0.3353 0.95086 0.0
H1235 H 0.77653 0.32039 0.98864 0.0
H1236 H 0.82269 0.44397 0.03251 0.0
H1237 H 0.82081 0.42647 0.06973 0.0
H1238 H 0.83524 0.43835 0.98418 0.0
H1239 H 0.82657 0.42189 0.94779 0.0
C1240 C 0.65454 0.20923 0.03018 0.0
C1241 C 0.63048 0.2045 0.0473 0.0
C1242 C 0.60818 0.19594 0.9942 0.0
C1243 C 0.63079 0.2054 0.97723 0.0
N1244 N 0.67533 0.22245 0.97867 0.0
N1245 N 0.5847 0.19175 0.04657 0.0
C1246 C 0.65418 0.2118 0.99501 0.0
C1247 C 0.60745 0.19703 0.02953 0.0
N1248 N 0.67761 0.21199 0.04749 0.0
N1249 N 0.58757 0.18581 0.97635 0.0
H1250 H 0.5841 0.19063 0.07244 0.0
H1251 H 0.56634 0.18933 0.03534 0.0
H1252 H 0.58786 0.18464 0.95046 0.0
H1253 H 0.57127 0.17661 0.98697 0.0
H1254 H 0.69612 0.21251 0.03623 0.0
H1255 H 0.67871 0.21141 0.07329 0.0
H1256 H 0.69147 0.23089 0.99068 0.0
H1257 H 0.67613 0.2247 0.95298 0.0
C1258 C 0.81535 0.61095 0.0284 0.0
C1259 C 0.80604 0.63348 0.04577 0.0
C1260 C 0.79872 0.65667 0.99304 0.0
C1261 C 0.8066 0.63357 0.97566 0.0
N1262 N 0.82854 0.59155 0.97565 0.0
N1263 N 0.79512 0.67983 0.0456 0.0
C1264 C 0.81701 0.61162 0.9931 0.0
C1265 C 0.80011 0.65712 0.02837 0.0
N1266 N 0.82178 0.58867 0.04577 0.0
N1267 N 0.78796 0.6774 0.97598 0.0
H1268 H 0.79473 0.68076 0.07143 0.0
H1269 H 0.79347 0.69829 0.03447 0.0
H1270 H 0.78723 0.67827 0.95016 0.0
H1271 H 0.77837 0.69319 0.98727 0.0
H1272 H 0.82566 0.5705 0.0348 0.0
H1273 H 0.82243 0.58821 0.07167 0.0
H1274 H 0.8384 0.57577 0.98659 0.0
H1275 H 0.83014 0.59189 0.9498 0.0
C1276 C 0.38012 0.77211 0.99957 0.0
C1277 C 0.38881 0.79425 0.98075 0.0
C1278 C 0.39735 0.81847 0.0327 0.0
C1279 C 0.38751 0.79666 0.05096 0.0
N1280 N 0.36234 0.75632 0.05159 0.0
N1281 N 0.40224 0.83983 0.97888 0.0
C1282 C 0.37668 0.77462 0.03428 0.0
C1283 C 0.39616 0.81798 0.99718 0.0
N1284 N 0.37578 0.7483 0.98461 0.0
N1285 N 0.40869 0.83908 0.04926 0.0
H1286 H 0.40272 0.83969 0.95298 0.0
H1287 H 0.40527 0.85842 0.98917 0.0
H1288 H 0.40926 0.84007 0.07514 0.0
H1289 H 0.41876 0.85436 0.03757 0.0
H1290 H 0.37266 0.73089 0.99779 0.0
H1291 H 0.37758 0.74517 0.95924 0.0
H1292 H 0.3515 0.74137 0.04022 0.0
H1293 H 0.35886 0.75769 0.07707 0.0
C1294 C 0.21439 0.35518 0.99444 0.0
C1295 C 0.20654 0.37802 0.97649 0.0
C1296 C 0.19742 0.40129 0.02866 0.0
C1297 C 0.20605 0.37877 0.04658 0.0
N1298 N 0.21644 0.33225 0.04717 0.0
N1299 N 0.18482 0.42019 0.97542 0.0
C1300 C 0.21213 0.35495 0.02965 0.0
C1301 C 0.19612 0.40025 0.99335 0.0
N1302 N 0.22604 0.33453 0.97816 0.0
N1303 N 0.19116 0.42387 0.04549 0.0
H1304 H 0.18346 0.41966 0.94955 0.0
H1305 H 0.17486 0.43606 0.98599 0.0
H1306 H 0.19018 0.42467 0.07136 0.0
H1307 H 0.18785 0.442 0.03408 0.0
H1308 H 0.23545 0.31896 0.99018 0.0
H1309 H 0.22808 0.33366 0.95244 0.0
H1310 H 0.21792 0.31373 0.03613 0.0
H1311 H 0.21638 0.33138 0.073 0.0
C1312 C 0.15626 0.33579 0.23125 0.0
C1313 C 0.17865 0.35261 0.2312 0.0
C1314 C 0.17685 0.35351 0.29201 0.0
C1315 C 0.159 0.33195 0.29184 0.0
N1316 N 0.13456 0.29983 0.25927 0.0
N1317 N 0.213 0.37432 0.26328 0.0
C1318 C 0.14908 0.3225 0.26097 0.0
C1319 C 0.18955 0.36101 0.26202 0.0
N1320 N 0.14172 0.33257 0.20296 0.0
N1321 N 0.18162 0.36696 0.32078 0.0
H1322 H 0.22423 0.37896 0.24247 0.0
H1323 H 0.22276 0.3783 0.28552 0.0
H1324 H 0.17179 0.36266 0.3429 0.0
H1325 H 0.19284 0.38419 0.3216 0.0
H1326 H 0.12394 0.3222 0.20246 0.0
H1327 H 0.14581 0.34287 0.18112 0.0
H1328 H 0.12941 0.291 0.2368 0.0
H1329 H 0.12997 0.28822 0.27975 0.0
C1330 C 0.65272 0.16225 0.24683 0.0
C1331 C 0.6637 0.18545 0.23277 0.0
C1332 C 0.69539 0.18846 0.27854 0.0
C1333 C 0.68309 0.1666 0.2942 0.0
N1334 N 0.64793 0.13461 0.29582 0.0
N1335 N 0.6912 0.22406 0.239 0.0
C1336 C 0.66116 0.15394 0.27903 0.0
C1337 C 0.68379 0.19954 0.24974 0.0
N1338 N 0.6349 0.14779 0.22901 0.0
N1339 N 0.71892 0.19796 0.29025 0.0
H1340 H 0.6829 0.23322 0.21828 0.0
H1341 H 0.7036 0.23644 0.25255 0.0
H1342 H 0.7286 0.19013 0.31086 0.0
H1343 H 0.73021 0.21186 0.27756 0.0
H1344 H 0.62823 0.12924 0.23625 0.0
H1345 H 0.62813 0.15358 0.20564 0.0
H1346 H 0.63021 0.12645 0.28768 0.0
H1347 H 0.65366 0.12809 0.31932 0.0
C1348 C 0.85444 0.67561 0.23087 0.0
C1349 C 0.83252 0.65817 0.23095 0.0
C1350 C 0.83496 0.65699 0.29175 0.0
C1351 C 0.85219 0.67905 0.29153 0.0
N1352 N 0.87535 0.71204 0.25892 0.0
N1353 N 0.79919 0.63523 0.26334 0.0
C1354 C 0.86151 0.68894 0.26061 0.0
C1355 C 0.82219 0.64927 0.26186 0.0
N1356 N 0.86863 0.67936 0.20243 0.0
N1357 N 0.83087 0.64326 0.32047 0.0
H1358 H 0.78792 0.63029 0.24267 0.0
H1359 H 0.78977 0.63087 0.28569 0.0
H1360 H 0.84078 0.64772 0.3425 0.0
H1361 H 0.82019 0.62569 0.32129 0.0
H1362 H 0.8861 0.69023 0.2018 0.0
H1363 H 0.86465 0.66904 0.18057 0.0
H1364 H 0.88004 0.72112 0.23646 0.0
H1365 H 0.87975 0.72369 0.27945 0.0
C1366 C 0.3254 0.81543 0.24826 0.0
C1367 C 0.34709 0.82812 0.23264 0.0
C1368 C 0.35126 0.85806 0.28042 0.0
C1369 C 0.32824 0.84667 0.2945 0.0
N1370 N 0.28989 0.81879 0.28808 0.0
N1371 N 0.37878 0.86351 0.23139 0.0
C1372 C 0.3143 0.8266 0.27731 0.0
C1373 C 0.35958 0.85001 0.24806 0.0
N1374 N 0.31613 0.79192 0.2363 0.0
N1375 N 0.36557 0.87591 0.29839 0.0
H1376 H 0.38531 0.85802 0.20781 0.0
H1377 H 0.38684 0.8812 0.23972 0.0
H1378 H 0.35978 0.88238 0.32188 0.0
H1379 H 0.38401 0.88292 0.29112 0.0
H1380 H 0.30243 0.78036 0.24894 0.0
H1381 H 0.32399 0.78253 0.2155 0.0
H1382 H 0.27758 0.80642 0.27439 0.0
H1383 H 0.28072 0.82671 0.30901 0.0
C1384 C 0.16058 0.65103 0.77428 0.0
C1385 C 0.1831 0.66276 0.78924 0.0
C1386 C 0.18479 0.69582 0.74504 0.0
C1387 C 0.16402 0.68263 0.7282 0.0
N1388 N 0.13388 0.64601 0.72444 0.0
N1389 N 0.22046 0.69221 0.78455 0.0
C1390 C 0.15228 0.65977 0.74219 0.0
C1391 C 0.19628 0.684 0.7734 0.0
N1392 N 0.14671 0.6322 0.79113 0.0
N1393 N 0.1929 0.72023 0.73474 0.0
H1394 H 0.23021 0.68351 0.80458 0.0
H1395 H 0.23213 0.70573 0.77174 0.0
H1396 H 0.18451 0.73009 0.7146 0.0
H1397 H 0.20597 0.73189 0.74829 0.0
H1398 H 0.1286 0.62481 0.78315 0.0
H1399 H 0.1524 0.62533 0.81448 0.0
H1400 H 0.12656 0.62771 0.73168 0.0
H1401 H 0.12728 0.65205 0.70109 0.0
C1402 C 0.31354 0.18465 0.74878 0.0
C1403 C 0.32672 0.16353 0.73265 0.0
C1404 C 0.35763 0.16019 0.77958 0.0
C1405 C 0.34592 0.18297 0.79389 0.0
N1406 N 0.31691 0.22057 0.78792 0.0
N1407 N 0.3631 0.13294 0.73034 0.0
C1408 C 0.32506 0.19624 0.7773 0.0
C1409 C 0.34927 0.15168 0.74743 0.0
N1410 N 0.28938 0.19299 0.73772 0.0
N1411 N 0.37609 0.14629 0.79712 0.0
H1412 H 0.35735 0.12621 0.70694 0.0
H1413 H 0.38123 0.12547 0.73816 0.0
H1414 H 0.3827 0.15214 0.82053 0.0
H1415 H 0.38341 0.12803 0.78964 0.0
H1416 H 0.27766 0.20637 0.75074 0.0
H1417 H 0.27969 0.18456 0.71747 0.0
H1418 H 0.30377 0.23232 0.77456 0.0
H1419 H 0.32531 0.2303 0.80815 0.0
C1420 C 0.83507 0.35431 0.73042 0.0
C1421 C 0.85224 0.33217 0.73072 0.0
C1422 C 0.85345 0.33488 0.79149 0.0
C1423 C 0.83164 0.35248 0.7911 0.0
N1424 N 0.79884 0.37581 0.75821 0.0
N1425 N 0.87456 0.29859 0.76338 0.0
C1426 C 0.82182 0.36172 0.76008 0.0
C1427 C 0.86093 0.32183 0.76172 0.0
N1428 N 0.83153 0.36842 0.70187 0.0
N1429 N 0.86717 0.33072 0.82022 0.0
H1430 H 0.87919 0.28712 0.74277 0.0
H1431 H 0.8788 0.28922 0.7858 0.0
H1432 H 0.86293 0.34085 0.84214 0.0
H1433 H 0.88457 0.31971 0.82112 0.0
H1434 H 0.82089 0.38603 0.70111 0.0
H1435 H 0.84182 0.36422 0.68006 0.0
H1436 H 0.78981 0.38047 0.73569 0.0
H1437 H 0.78718 0.38043 0.77865 0.0
C1438 C 0.69663 0.82895 0.75099 0.0
C1439 C 0.68313 0.84926 0.73368 0.0
C1440 C 0.65177 0.85338 0.78005 0.0
C1441 C 0.66384 0.83131 0.79561 0.0
N1442 N 0.69398 0.7944 0.7921 0.0
N1443 N 0.64643 0.87934 0.72963 0.0
C1444 C 0.68524 0.8181 0.78005 0.0
C1445 C 0.66032 0.8612 0.74768 0.0
N1446 N 0.72091 0.82062 0.74035 0.0
N1447 N 0.63268 0.86719 0.79657 0.0
H1448 H 0.65241 0.88563 0.70614 0.0
H1449 H 0.62816 0.88682 0.73683 0.0
H1450 H 0.6259 0.86173 0.82004 0.0
H1451 H 0.6249 0.885 0.78817 0.0
H1452 H 0.73293 0.80801 0.75412 0.0
H1453 H 0.7303 0.82833 0.71946 0.0
H1454 H 0.7075 0.78253 0.77955 0.0
H1455 H 0.6858 0.78517 0.81282 0.0
C1456 C 0.83808 0.65424 0.73005 0.0
C1457 C 0.85462 0.67682 0.72994 0.0
C1458 C 0.85659 0.67428 0.79066 0.0
C1459 C 0.83505 0.6564 0.79075 0.0
N1460 N 0.80265 0.632 0.75844 0.0
N1461 N 0.87671 0.71086 0.7621 0.0
C1462 C 0.82525 0.64667 0.75994 0.0
C1463 C 0.86351 0.68738 0.76073 0.0
N1464 N 0.83467 0.63992 0.70164 0.0
N1465 N 0.87053 0.67875 0.81916 0.0
H1466 H 0.88094 0.72237 0.74141 0.0
H1467 H 0.88101 0.72034 0.78442 0.0
H1468 H 0.86665 0.66861 0.84118 0.0
H1469 H 0.88775 0.69002 0.81973 0.0
H1470 H 0.82452 0.62203 0.70114 0.0
H1471 H 0.84466 0.64431 0.67967 0.0
H1472 H 0.79358 0.62703 0.73605 0.0
H1473 H 0.79131 0.62704 0.77902 0.0
C1474 C 0.32575 0.8134 0.7825 0.0
C1475 C 0.34658 0.82707 0.79864 0.0
C1476 C 0.34975 0.85741 0.75113 0.0
C1477 C 0.32735 0.84507 0.73659 0.0
N1478 N 0.29034 0.81536 0.74235 0.0
N1479 N 0.37667 0.86378 0.8006 0.0
C1480 C 0.31431 0.82422 0.75341 0.0
C1481 C 0.35817 0.84957 0.78357 0.0
N1482 N 0.31761 0.78936 0.79405 0.0
N1483 N 0.36346 0.87591 0.7335 0.0
H1484 H 0.38337 0.85832 0.82413 0.0
H1485 H 0.38397 0.88188 0.79258 0.0
H1486 H 0.35771 0.88212 0.70987 0.0
H1487 H 0.38148 0.8837 0.74114 0.0
H1488 H 0.30458 0.77723 0.78109 0.0
H1489 H 0.32586 0.78018 0.81479 0.0
H1490 H 0.27859 0.8023 0.75577 0.0
H1491 H 0.28084 0.82306 0.72151 0.0
C1492 C 0.17768 0.35297 0.73154 0.0
C1493 C 0.1603 0.33103 0.73095 0.0
C1494 C 0.15789 0.33318 0.79168 0.0
C1495 C 0.17988 0.35052 0.79226 0.0
N1496 N 0.21361 0.3737 0.76082 0.0
N1497 N 0.13698 0.29741 0.76234 0.0
C1498 C 0.19043 0.35992 0.76172 0.0
C1499 C 0.15087 0.3205 0.76148 0.0
N1500 N 0.18195 0.36729 0.70333 0.0
N1501 N 0.14357 0.32892 0.81989 0.0
H1502 H 0.13264 0.28618 0.74143 0.0
H1503 H 0.1322 0.28788 0.78448 0.0
H1504 H 0.14749 0.33878 0.8421 0.0
H1505 H 0.12605 0.31811 0.82006 0.0
H1506 H 0.19279 0.38477 0.70318 0.0
H1507 H 0.17205 0.36341 0.68112 0.0
H1508 H 0.22312 0.37846 0.73867 0.0
H1509 H 0.22494 0.37792 0.7817 0.0
C1510 C 0.70024 0.185 0.74896 0.0
C1511 C 0.68669 0.16429 0.73251 0.0
C1512 C 0.65542 0.16144 0.77903 0.0
C1513 C 0.66748 0.18392 0.79362 0.0
N1514 N 0.69748 0.22077 0.78835 0.0
N1515 N 0.64968 0.13454 0.72953 0.0
C1516 C 0.68881 0.19672 0.77744 0.0
C1517 C 0.6638 0.15289 0.74692 0.0
N1518 N 0.72464 0.19283 0.73818 0.0
N1519 N 0.63663 0.14781 0.79628 0.0
H1520 H 0.65547 0.12776 0.70618 0.0
H1521 H 0.63133 0.12749 0.73706 0.0
H1522 H 0.63006 0.1536 0.81972 0.0
H1523 H 0.62901 0.12975 0.78856 0.0
H1524 H 0.7366 0.20583 0.75144 0.0
H1525 H 0.73419 0.18433 0.71789 0.0
H1526 H 0.71098 0.23226 0.77524 0.0
H1527 H 0.68922 0.23061 0.80857 0.0
C1528 C 0.84923 0.35879 0.24479 0.0
C1529 C 0.82724 0.34621 0.22964 0.0
C1530 C 0.82613 0.31358 0.27445 0.0
C1531 C 0.84632 0.32758 0.29136 0.0
N1532 N 0.87539 0.36505 0.29488 0.0
N1533 N 0.79106 0.31529 0.23388 0.0
C1534 C 0.85751 0.35061 0.27712 0.0
C1535 C 0.81467 0.32461 0.24553 0.0
N1536 N 0.86269 0.37788 0.22786 0.0
N1537 N 0.81852 0.28915 0.28529 0.0
H1538 H 0.78148 0.32313 0.21318 0.0
H1539 H 0.7796 0.3016 0.2467 0.0
H1540 H 0.82674 0.27996 0.30604 0.0
H1541 H 0.80602 0.27684 0.27179 0.0
H1542 H 0.88046 0.38593 0.236 0.0
H1543 H 0.85708 0.3843 0.20427 0.0
H1544 H 0.88223 0.38349 0.28748 0.0
H1545 H 0.88201 0.35938 0.31837 0.0
C1546 C 0.65489 0.85393 0.24358 0.0
C1547 C 0.66741 0.83217 0.2279 0.0
C1548 C 0.70012 0.83025 0.27269 0.0
C1549 C 0.68608 0.85007 0.2902 0.0
N1550 N 0.64869 0.87926 0.29433 0.0
N1551 N 0.69815 0.79573 0.2315 0.0
C1552 C 0.66309 0.86163 0.27615 0.0
C1553 C 0.68901 0.81928 0.24351 0.0
N1554 N 0.63572 0.86761 0.227 0.0
N1555 N 0.7246 0.82246 0.28328 0.0
H1556 H 0.69007 0.78629 0.21085 0.0
H1557 H 0.71189 0.78413 0.24409 0.0
H1558 H 0.73385 0.83037 0.30418 0.0
H1559 H 0.73691 0.81021 0.2694 0.0
H1560 H 0.62762 0.88521 0.23557 0.0
H1561 H 0.62927 0.86232 0.20331 0.0
H1562 H 0.63028 0.88637 0.28704 0.0
H1563 H 0.65438 0.88546 0.31799 0.0
C1564 C 0.1508 0.68841 0.25827 0.0
C1565 C 0.15957 0.6778 0.2891 0.0
C1566 C 0.18991 0.64851 0.25922 0.0
C1567 C 0.18002 0.65801 0.22836 0.0
N1568 N 0.14429 0.67987 0.19973 0.0
N1569 N 0.18016 0.64114 0.31728 0.0
C1570 C 0.15816 0.67555 0.22832 0.0
C1571 C 0.17666 0.65559 0.289 0.0
N1572 N 0.13726 0.71171 0.25691 0.0
N1573 N 0.21294 0.63449 0.26088 0.0
H1574 H 0.16982 0.64507 0.33914 0.0
H1575 H 0.19079 0.62351 0.31771 0.0
H1576 H 0.22465 0.63015 0.24039 0.0
H1577 H 0.22196 0.62963 0.28334 0.0
H1578 H 0.13298 0.72122 0.23459 0.0
H1579 H 0.13279 0.72311 0.27763 0.0
H1580 H 0.12688 0.69087 0.19909 0.0
H1581 H 0.14842 0.66987 0.17769 0.0
C1582 C 0.31326 0.18588 0.27805 0.0
C1583 C 0.32608 0.16445 0.29404 0.0
C1584 C 0.35716 0.161 0.24733 0.0
C1585 C 0.34572 0.18393 0.23307 0.0
N1586 N 0.31698 0.22173 0.23884 0.0
N1587 N 0.36217 0.1335 0.29642 0.0
C1588 C 0.32494 0.19737 0.24957 0.0
C1589 C 0.34857 0.15243 0.27935 0.0
N1590 N 0.28925 0.19458 0.28916 0.0
N1591 N 0.37559 0.14702 0.22987 0.0
H1592 H 0.35632 0.12677 0.31977 0.0
H1593 H 0.38025 0.12589 0.28867 0.0
H1594 H 0.38242 0.15295 0.2066 0.0
H1595 H 0.38268 0.12866 0.23726 0.0
H1596 H 0.2777 0.20814 0.27619 0.0
H1597 H 0.27951 0.18635 0.30946 0.0
H1598 H 0.30398 0.23365 0.25214 0.0
H1599 H 0.32537 0.23128 0.21848 0.0
loop_
_geom_bond_atom_site_label_1
_geom_bond_atom_site_label_2
_geom_bond_distance
_geom_bond_site_symmetry_2
_ccdc_geom_bond_type
O0 Cd1 2.223 . S
O0 C8 1.315 . S
Cd1 O0 2.223 . S
Cd1 O4 2.297 . S
Cd1 O5 2.439 . S
Cd1 O11 2.240 . S
Cd2 O3 2.240 . S
Cd2 O10 2.223 . S
Cd2 O12 2.297 . S
Cd2 O13 2.439 . S
O3 Cd2 2.240 . S
O3 C8 1.279 . S
O4 Cd1 2.297 . S
O4 C6 1.247 . S
O5 Cd1 2.439 . S
O5 C6 1.208 . S
C6 O4 1.247 . S
C6 O5 1.208 . S
C7 O12 1.247 . S
C7 O13 1.208 . S
C8 O0 1.315 . S
C8 O3 1.279 . S
C9 O10 1.315 . S
C9 O11 1.279 . S
O10 Cd2 2.223 . S
O10 C9 1.315 . S
O11 Cd1 2.240 . S
O11 C9 1.279 . S
O12 Cd2 2.297 . S
O12 C7 1.247 . S
O13 Cd2 2.439 . S
O13 C7 1.208 . S
O14 Cd15 2.223 . S
O14 C22 1.315 . S
Cd15 O14 2.223 . S
Cd15 O18 2.297 . S
Cd15 O19 2.439 . S
Cd15 O25 2.240 . S
Cd16 O17 2.240 . S
Cd16 O24 2.223 . S
Cd16 O26 2.297 . S
Cd16 O27 2.439 . S
O17 Cd16 2.240 . S
O17 C22 1.279 . S
O18 Cd15 2.297 . S
O18 C20 1.247 . S
O19 Cd15 2.439 . S
O19 C20 1.208 . S
C20 O18 1.247 . S
C20 O19 1.208 . S
C21 O26 1.247 . S
C21 O27 1.208 . S
C22 O14 1.315 . S
C22 O17 1.279 . S
C23 O24 1.315 . S
C23 O25 1.279 . S
O24 Cd16 2.223 . S
O24 C23 1.315 . S
O25 Cd15 2.240 . S
O25 C23 1.279 . S
O26 Cd16 2.297 . S
O26 C21 1.247 . S
O27 Cd16 2.439 . S
O27 C21 1.208 . S
O28 Cd29 2.223 . S
O28 C36 1.315 . S
Cd29 O28 2.223 . S
Cd29 O32 2.297 . S
Cd29 O33 2.439 . S
Cd29 O39 2.240 . S
Cd30 O31 2.240 . S
Cd30 O38 2.223 . S
Cd30 O40 2.297 . S
Cd30 O41 2.439 . S
O31 Cd30 2.240 . S
O31 C36 1.279 . S
O32 Cd29 2.297 . S
O32 C34 1.247 . S
O33 Cd29 2.439 . S
O33 C34 1.208 . S
C34 O32 1.247 . S
C34 O33 1.208 . S
C35 O40 1.247 . S
C35 O41 1.208 . S
C36 O28 1.315 . S
C36 O31 1.279 . S
C37 O38 1.315 . S
C37 O39 1.279 . S
O38 Cd30 2.223 . S
O38 C37 1.315 . S
O39 Cd29 2.240 . S
O39 C37 1.279 . S
O40 Cd30 2.297 . S
O40 C35 1.247 . S
O41 Cd30 2.439 . S
O41 C35 1.208 . S
O42 Cd43 2.223 . S
O42 C50 1.315 . S
Cd43 O42 2.223 . S
Cd43 O46 2.297 . S
Cd43 O47 2.439 . S
Cd43 O53 2.240 . S
Cd44 O45 2.240 . S
Cd44 O52 2.223 . S
Cd44 O54 2.297 . S
Cd44 O55 2.439 . S
O45 Cd44 2.240 . S
O45 C50 1.279 . S
O46 Cd43 2.297 . S
O46 C48 1.247 . S
O47 Cd43 2.439 . S
O47 C48 1.208 . S
C48 O46 1.247 . S
C48 O47 1.208 . S
C49 O54 1.247 . S
C49 O55 1.208 . S
C50 O42 1.315 . S
C50 O45 1.279 . S
C51 O52 1.315 . S
C51 O53 1.279 . S
O52 Cd44 2.223 . S
O52 C51 1.315 . S
O53 Cd43 2.240 . S
O53 C51 1.279 . S
O54 Cd44 2.297 . S
O54 C49 1.247 . S
O55 Cd44 2.439 . S
O55 C49 1.208 . S
O56 Cd57 2.223 . S
O56 C64 1.315 . S
Cd57 O56 2.223 . S
Cd57 O60 2.297 . S
Cd57 O61 2.439 . S
Cd57 O67 2.240 . S
Cd58 O59 2.240 . S
Cd58 O66 2.223 . S
Cd58 O68 2.297 . S
Cd58 O69 2.439 . S
O59 Cd58 2.240 . S
O59 C64 1.279 . S
O60 Cd57 2.297 . S
O60 C62 1.247 . S
O61 Cd57 2.439 . S
O61 C62 1.208 . S
C62 O60 1.247 . S
C62 O61 1.208 . S
C63 O68 1.247 . S
C63 O69 1.208 . S
C64 O56 1.315 . S
C64 O59 1.279 . S
C65 O66 1.315 . S
C65 O67 1.279 . S
O66 Cd58 2.223 . S
O66 C65 1.315 . S
O67 Cd57 2.240 . S
O67 C65 1.279 . S
O68 Cd58 2.297 . S
O68 C63 1.247 . S
O69 Cd58 2.439 . S
O69 C63 1.208 . S
O70 Cd71 2.223 . S
O70 C78 1.315 . S
Cd71 O70 2.223 . S
Cd71 O74 2.297 . S
Cd71 O75 2.439 . S
Cd71 O81 2.240 . S
Cd72 O73 2.240 . S
Cd72 O80 2.223 . S
Cd72 O82 2.297 . S
Cd72 O83 2.439 . S
O73 Cd72 2.240 . S
O73 C78 1.279 . S
O74 Cd71 2.297 . S
O74 C76 1.247 . S
O75 Cd71 2.439 . S
O75 C76 1.208 . S
C76 O74 1.247 . S
C76 O75 1.208 . S
C77 O82 1.247 . S
C77 O83 1.208 . S
C78 O70 1.315 . S
C78 O73 1.279 . S
C79 O80 1.315 . S
C79 O81 1.279 . S
O80 Cd72 2.223 . S
O80 C79 1.315 . S
O81 Cd71 2.240 . S
O81 C79 1.279 . S
O82 Cd72 2.297 . S
O82 C77 1.247 . S
O83 Cd72 2.439 . S
O83 C77 1.208 . S
O84 Cd85 2.223 . S
O84 C92 1.315 . S
Cd85 O84 2.223 . S
Cd85 O88 2.297 . S
Cd85 O89 2.439 . S
Cd85 O95 2.240 . S
Cd86 O87 2.240 . S
Cd86 O94 2.223 . S
Cd86 O96 2.297 . S
Cd86 O97 2.439 . S
O87 Cd86 2.240 . S
O87 C92 1.279 . S
O88 Cd85 2.297 . S
O88 C90 1.247 . S
O89 Cd85 2.439 . S
O89 C90 1.208 . S
C90 O88 1.247 . S
C90 O89 1.208 . S
C91 O96 1.247 . S
C91 O97 1.208 . S
C92 O84 1.315 . S
C92 O87 1.279 . S
C93 O94 1.315 . S
C93 O95 1.279 . S
O94 Cd86 2.223 . S
O94 C93 1.315 . S
O95 Cd85 2.240 . S
O95 C93 1.279 . S
O96 Cd86 2.297 . S
O96 C91 1.247 . S
O97 Cd86 2.439 . S
O97 C91 1.208 . S
O98 Cd99 2.223 . S
O98 C106 1.315 . S
Cd99 O98 2.223 . S
Cd99 O102 2.297 . S
Cd99 O103 2.439 . S
Cd99 O109 2.240 . S
Cd100 O101 2.240 . S
Cd100 O108 2.223 . S
Cd100 O110 2.297 . S
Cd100 O111 2.439 . S
O101 Cd100 2.240 . S
O101 C106 1.279 . S
O102 Cd99 2.297 . S
O102 C104 1.247 . S
O103 Cd99 2.439 . S
O103 C104 1.208 . S
C104 O102 1.247 . S
C104 O103 1.208 . S
C105 O110 1.247 . S
C105 O111 1.208 . S
C106 O98 1.315 . S
C106 O101 1.279 . S
C107 O108 1.315 . S
C107 O109 1.279 . S
O108 Cd100 2.223 . S
O108 C107 1.315 . S
O109 Cd99 2.240 . S
O109 C107 1.279 . S
O110 Cd100 2.297 . S
O110 C105 1.247 . S
O111 Cd100 2.439 . S
O111 C105 1.208 . S
O112 Cd113 2.223 . S
O112 C120 1.315 . S
Cd113 O112 2.223 . S
Cd113 O116 2.297 . S
Cd113 O117 2.439 . S
Cd113 O123 2.240 . S
Cd114 O115 2.240 . S
Cd114 O122 2.223 . S
Cd114 O124 2.297 . S
Cd114 O125 2.439 . S
O115 Cd114 2.240 . S
O115 C120 1.279 . S
O116 Cd113 2.297 . S
O116 C118 1.247 . S
O117 Cd113 2.439 . S
O117 C118 1.208 . S
C118 O116 1.247 . S
C118 O117 1.208 . S
C119 O124 1.247 . S
C119 O125 1.208 . S
C120 O112 1.315 . S
C120 O115 1.279 . S
C121 O122 1.315 . S
C121 O123 1.279 . S
O122 Cd114 2.223 . S
O122 C121 1.315 . S
O123 Cd113 2.240 . S
O123 C121 1.279 . S
O124 Cd114 2.297 . S
O124 C119 1.247 . S
O125 Cd114 2.439 . S
O125 C119 1.208 . S
O126 Cd127 2.223 . S
O126 C134 1.315 . S
Cd127 O126 2.223 . S
Cd127 O130 2.297 . S
Cd127 O131 2.439 . S
Cd127 O137 2.240 . S
Cd128 O129 2.240 . S
Cd128 O136 2.223 . S
Cd128 O138 2.297 . S
Cd128 O139 2.439 . S
O129 Cd128 2.240 . S
O129 C134 1.279 . S
O130 Cd127 2.297 . S
O130 C132 1.247 . S
O131 Cd127 2.439 . S
O131 C132 1.208 . S
C132 O130 1.247 . S
C132 O131 1.208 . S
C133 O138 1.247 . S
C133 O139 1.208 . S
C134 O126 1.315 . S
C134 O129 1.279 . S
C135 O136 1.315 . S
C135 O137 1.279 . S
O136 Cd128 2.223 . S
O136 C135 1.315 . S
O137 Cd127 2.240 . S
O137 C135 1.279 . S
O138 Cd128 2.297 . S
O138 C133 1.247 . S
O139 Cd128 2.439 . S
O139 C133 1.208 . S
O140 Cd141 2.223 . S
O140 C148 1.315 . S
Cd141 O140 2.223 . S
Cd141 O144 2.297 . S
Cd141 O145 2.439 . S
Cd141 O151 2.240 . S
Cd142 O143 2.240 . S
Cd142 O150 2.223 . S
Cd142 O152 2.297 . S
Cd142 O153 2.439 . S
O143 Cd142 2.240 . S
O143 C148 1.279 . S
O144 Cd141 2.297 . S
O144 C146 1.247 . S
O145 Cd141 2.439 . S
O145 C146 1.208 . S
C146 O144 1.247 . S
C146 O145 1.208 . S
C147 O152 1.247 . S
C147 O153 1.208 . S
C148 O140 1.315 . S
C148 O143 1.279 . S
C149 O150 1.315 . S
C149 O151 1.279 . S
O150 Cd142 2.223 . S
O150 C149 1.315 . S
O151 Cd141 2.240 . S
O151 C149 1.279 . S
O152 Cd142 2.297 . S
O152 C147 1.247 . S
O153 Cd142 2.439 . S
O153 C147 1.208 . S
O154 Cd155 2.223 . S
O154 C162 1.315 . S
Cd155 O154 2.223 . S
Cd155 O158 2.297 . S
Cd155 O159 2.439 . S
Cd155 O165 2.240 . S
Cd156 O157 2.240 . S
Cd156 O164 2.223 . S
Cd156 O166 2.297 . S
Cd156 O167 2.439 . S
O157 Cd156 2.240 . S
O157 C162 1.279 . S
O158 Cd155 2.297 . S
O158 C160 1.247 . S
O159 Cd155 2.439 . S
O159 C160 1.208 . S
C160 O158 1.247 . S
C160 O159 1.208 . S
C161 O166 1.247 . S
C161 O167 1.208 . S
C162 O154 1.315 . S
C162 O157 1.279 . S
C163 O164 1.315 . S
C163 O165 1.279 . S
O164 Cd156 2.223 . S
O164 C163 1.315 . S
O165 Cd155 2.240 . S
O165 C163 1.279 . S
O166 Cd156 2.297 . S
O166 C161 1.247 . S
O167 Cd156 2.439 . S
O167 C161 1.208 . S
O168 Cd169 2.223 . S
O168 C176 1.315 . S
Cd169 O168 2.223 . S
Cd169 O172 2.297 . S
Cd169 O173 2.439 . S
Cd169 O179 2.240 . S
Cd170 O171 2.240 . S
Cd170 O178 2.223 . S
Cd170 O180 2.297 . S
Cd170 O181 2.439 . S
O171 Cd170 2.240 . S
O171 C176 1.279 . S
O172 Cd169 2.297 . S
O172 C174 1.247 . S
O173 Cd169 2.439 . S
O173 C174 1.208 . S
C174 O172 1.247 . S
C174 O173 1.208 . S
C175 O180 1.247 . S
C175 O181 1.208 . S
C176 O168 1.315 . S
C176 O171 1.279 . S
C177 O178 1.315 . S
C177 O179 1.279 . S
O178 Cd170 2.223 . S
O178 C177 1.315 . S
O179 Cd169 2.240 . S
O179 C177 1.279 . S
O180 Cd170 2.297 . S
O180 C175 1.247 . S
O181 Cd170 2.439 . S
O181 C175 1.208 . S
O182 Cd183 2.223 . S
O182 C190 1.315 . S
Cd183 O182 2.223 . S
Cd183 O186 2.297 . S
Cd183 O187 2.439 . S
Cd183 O193 2.240 . S
Cd184 O185 2.240 . S
Cd184 O192 2.223 . S
Cd184 O194 2.297 . S
Cd184 O195 2.439 . S
O185 Cd184 2.240 . S
O185 C190 1.279 . S
O186 Cd183 2.297 . S
O186 C188 1.247 . S
O187 Cd183 2.439 . S
O187 C188 1.208 . S
C188 O186 1.247 . S
C188 O187 1.208 . S
C189 O194 1.247 . S
C189 O195 1.208 . S
C190 O182 1.315 . S
C190 O185 1.279 . S
C191 O192 1.315 . S
C191 O193 1.279 . S
O192 Cd184 2.223 . S
O192 C191 1.315 . S
O193 Cd183 2.240 . S
O193 C191 1.279 . S
O194 Cd184 2.297 . S
O194 C189 1.247 . S
O195 Cd184 2.439 . S
O195 C189 1.208 . S
O196 Cd197 2.223 . S
O196 C204 1.315 . S
Cd197 O196 2.223 . S
Cd197 O200 2.297 . S
Cd197 O201 2.439 . S
Cd197 O207 2.240 . S
Cd198 O199 2.240 . S
Cd198 O206 2.223 . S
Cd198 O208 2.297 . S
Cd198 O209 2.439 . S
O199 Cd198 2.240 . S
O199 C204 1.279 . S
O200 Cd197 2.297 . S
O200 C202 1.247 . S
O201 Cd197 2.439 . S
O201 C202 1.208 . S
C202 O200 1.247 . S
C202 O201 1.208 . S
C203 O208 1.247 . S
C203 O209 1.208 . S
C204 O196 1.315 . S
C204 O199 1.279 . S
C205 O206 1.315 . S
C205 O207 1.279 . S
O206 Cd198 2.223 . S
O206 C205 1.315 . S
O207 Cd197 2.240 . S
O207 C205 1.279 . S
O208 Cd198 2.297 . S
O208 C203 1.247 . S
O209 Cd198 2.439 . S
O209 C203 1.208 . S
O210 Cd211 2.223 . S
O210 C218 1.315 . S
Cd211 O210 2.223 . S
Cd211 O214 2.297 . S
Cd211 O215 2.439 . S
Cd211 O221 2.240 . S
Cd212 O213 2.240 . S
Cd212 O220 2.223 . S
Cd212 O222 2.297 . S
Cd212 O223 2.439 . S
O213 Cd212 2.240 . S
O213 C218 1.279 . S
O214 Cd211 2.297 . S
O214 C216 1.247 . S
O215 Cd211 2.439 . S
O215 C216 1.208 . S
C216 O214 1.247 . S
C216 O215 1.208 . S
C217 O222 1.247 . S
C217 O223 1.208 . S
C218 O210 1.315 . S
C218 O213 1.279 . S
C219 O220 1.315 . S
C219 O221 1.279 . S
O220 Cd212 2.223 . S
O220 C219 1.315 . S
O221 Cd211 2.240 . S
O221 C219 1.279 . S
O222 Cd212 2.297 . S
O222 C217 1.247 . S
O223 Cd212 2.439 . S
O223 C217 1.208 . S
O224 Cd225 2.223 . S
O224 C232 1.315 . S
Cd225 O224 2.223 . S
Cd225 O228 2.297 . S
Cd225 O229 2.439 . S
Cd225 O235 2.240 . S
Cd226 O227 2.240 . S
Cd226 O234 2.223 . S
Cd226 O236 2.297 . S
Cd226 O237 2.439 . S
O227 Cd226 2.240 . S
O227 C232 1.279 . S
O228 Cd225 2.297 . S
O228 C230 1.247 . S
O229 Cd225 2.439 . S
O229 C230 1.208 . S
C230 O228 1.247 . S
C230 O229 1.208 . S
C231 O236 1.247 . S
C231 O237 1.208 . S
C232 O224 1.315 . S
C232 O227 1.279 . S
C233 O234 1.315 . S
C233 O235 1.279 . S
O234 Cd226 2.223 . S
O234 C233 1.315 . S
O235 Cd225 2.240 . S
O235 C233 1.279 . S
O236 Cd226 2.297 . S
O236 C231 1.247 . S
O237 Cd226 2.439 . S
O237 C231 1.208 . S
O238 Cd239 2.223 . S
O238 C246 1.315 . S
Cd239 O238 2.223 . S
Cd239 O242 2.297 . S
Cd239 O243 2.439 . S
Cd239 O249 2.240 . S
Cd240 O241 2.240 . S
Cd240 O248 2.223 . S
Cd240 O250 2.297 . S
Cd240 O251 2.439 . S
O241 Cd240 2.240 . S
O241 C246 1.279 . S
O242 Cd239 2.297 . S
O242 C244 1.247 . S
O243 Cd239 2.439 . S
O243 C244 1.208 . S
C244 O242 1.247 . S
C244 O243 1.208 . S
C245 O250 1.247 . S
C245 O251 1.208 . S
C246 O238 1.315 . S
C246 O241 1.279 . S
C247 O248 1.315 . S
C247 O249 1.279 . S
O248 Cd240 2.223 . S
O248 C247 1.315 . S
O249 Cd239 2.240 . S
O249 C247 1.279 . S
O250 Cd240 2.297 . S
O250 C245 1.247 . S
O251 Cd240 2.439 . S
O251 C245 1.208 . S
O252 Cd253 2.223 . S
O252 C260 1.315 . S
Cd253 O252 2.223 . S
Cd253 O256 2.297 . S
Cd253 O257 2.439 . S
Cd253 O263 2.240 . S
Cd254 O255 2.240 . S
Cd254 O262 2.223 . S
Cd254 O264 2.297 . S
Cd254 O265 2.439 . S
O255 Cd254 2.240 . S
O255 C260 1.279 . S
O256 Cd253 2.297 . S
O256 C258 1.247 . S
O257 Cd253 2.439 . S
O257 C258 1.208 . S
C258 O256 1.247 . S
C258 O257 1.208 . S
C259 O264 1.247 . S
C259 O265 1.208 . S
C260 O252 1.315 . S
C260 O255 1.279 . S
C261 O262 1.315 . S
C261 O263 1.279 . S
O262 Cd254 2.223 . S
O262 C261 1.315 . S
O263 Cd253 2.240 . S
O263 C261 1.279 . S
O264 Cd254 2.297 . S
O264 C259 1.247 . S
O265 Cd254 2.439 . S
O265 C259 1.208 . S
O266 Cd267 2.223 . S
O266 C274 1.315 . S
Cd267 O266 2.223 . S
Cd267 O270 2.297 . S
Cd267 O271 2.439 . S
Cd267 O277 2.240 . S
Cd268 O269 2.240 . S
Cd268 O276 2.223 . S
Cd268 O278 2.297 . S
Cd268 O279 2.439 . S
O269 Cd268 2.240 . S
O269 C274 1.279 . S
O270 Cd267 2.297 . S
O270 C272 1.247 . S
O271 Cd267 2.439 . S
O271 C272 1.208 . S
C272 O270 1.247 . S
C272 O271 1.208 . S
C273 O278 1.247 . S
C273 O279 1.208 . S
C274 O266 1.315 . S
C274 O269 1.279 . S
C275 O276 1.315 . S
C275 O277 1.279 . S
O276 Cd268 2.223 . S
O276 C275 1.315 . S
O277 Cd267 2.240 . S
O277 C275 1.279 . S
O278 Cd268 2.297 . S
O278 C273 1.247 . S
O279 Cd268 2.439 . S
O279 C273 1.208 . S
O280 Cd281 2.223 . S
O280 C288 1.315 . S
Cd281 O280 2.223 . S
Cd281 O284 2.297 . S
Cd281 O285 2.439 . S
Cd281 O291 2.240 . S
Cd282 O283 2.240 . S
Cd282 O290 2.223 . S
Cd282 O292 2.297 . S
Cd282 O293 2.439 . S
O283 Cd282 2.240 . S
O283 C288 1.279 . S
O284 Cd281 2.297 . S
O284 C286 1.247 . S
O285 Cd281 2.439 . S
O285 C286 1.208 . S
C286 O284 1.247 . S
C286 O285 1.208 . S
C287 O292 1.247 . S
C287 O293 1.208 . S
C288 O280 1.315 . S
C288 O283 1.279 . S
C289 O290 1.315 . S
C289 O291 1.279 . S
O290 Cd282 2.223 . S
O290 C289 1.315 . S
O291 Cd281 2.240 . S
O291 C289 1.279 . S
O292 Cd282 2.297 . S
O292 C287 1.247 . S
O293 Cd282 2.439 . S
O293 C287 1.208 . S
O294 Cd295 2.223 . S
O294 C302 1.315 . S
Cd295 O294 2.223 . S
Cd295 O298 2.297 . S
Cd295 O299 2.439 . S
Cd295 O305 2.240 . S
Cd296 O297 2.240 . S
Cd296 O304 2.223 . S
Cd296 O306 2.297 . S
Cd296 O307 2.439 . S
O297 Cd296 2.240 . S
O297 C302 1.279 . S
O298 Cd295 2.297 . S
O298 C300 1.247 . S
O299 Cd295 2.439 . S
O299 C300 1.208 . S
C300 O298 1.247 . S
C300 O299 1.208 . S
C301 O306 1.247 . S
C301 O307 1.208 . S
C302 O294 1.315 . S
C302 O297 1.279 . S
C303 O304 1.315 . S
C303 O305 1.279 . S
O304 Cd296 2.223 . S
O304 C303 1.315 . S
O305 Cd295 2.240 . S
O305 C303 1.279 . S
O306 Cd296 2.297 . S
O306 C301 1.247 . S
O307 Cd296 2.439 . S
O307 C301 1.208 . S
O308 Cd309 2.223 . S
O308 C316 1.315 . S
Cd309 O308 2.223 . S
Cd309 O312 2.297 . S
Cd309 O313 2.439 . S
Cd309 O319 2.240 . S
Cd310 O311 2.240 . S
Cd310 O318 2.223 . S
Cd310 O320 2.297 . S
Cd310 O321 2.439 . S
O311 Cd310 2.240 . S
O311 C316 1.279 . S
O312 Cd309 2.297 . S
O312 C314 1.247 . S
O313 Cd309 2.439 . S
O313 C314 1.208 . S
C314 O312 1.247 . S
C314 O313 1.208 . S
C315 O320 1.247 . S
C315 O321 1.208 . S
C316 O308 1.315 . S
C316 O311 1.279 . S
C317 O318 1.315 . S
C317 O319 1.279 . S
O318 Cd310 2.223 . S
O318 C317 1.315 . S
O319 Cd309 2.240 . S
O319 C317 1.279 . S
O320 Cd310 2.297 . S
O320 C315 1.247 . S
O321 Cd310 2.439 . S
O321 C315 1.208 . S
O322 Cd323 2.223 . S
O322 C330 1.315 . S
Cd323 O322 2.223 . S
Cd323 O326 2.297 . S
Cd323 O327 2.439 . S
Cd323 O333 2.240 . S
Cd324 O325 2.240 . S
Cd324 O332 2.223 . S
Cd324 O334 2.297 . S
Cd324 O335 2.439 . S
O325 Cd324 2.240 . S
O325 C330 1.279 . S
O326 Cd323 2.297 . S
O326 C328 1.247 . S
O327 Cd323 2.439 . S
O327 C328 1.208 . S
C328 O326 1.247 . S
C328 O327 1.208 . S
C329 O334 1.247 . S
C329 O335 1.208 . S
C330 O322 1.315 . S
C330 O325 1.279 . S
C331 O332 1.315 . S
C331 O333 1.279 . S
O332 Cd324 2.223 . S
O332 C331 1.315 . S
O333 Cd323 2.240 . S
O333 C331 1.279 . S
O334 Cd324 2.297 . S
O334 C329 1.247 . S
O335 Cd324 2.439 . S
O335 C329 1.208 . S
O336 Cd337 2.223 . S
O336 C344 1.315 . S
Cd337 O336 2.223 . S
Cd337 O340 2.297 . S
Cd337 O341 2.439 . S
Cd337 O347 2.240 . S
Cd338 O339 2.240 . S
Cd338 O346 2.223 . S
Cd338 O348 2.297 . S
Cd338 O349 2.439 . S
O339 Cd338 2.240 . S
O339 C344 1.279 . S
O340 Cd337 2.297 . S
O340 C342 1.247 . S
O341 Cd337 2.439 . S
O341 C342 1.208 . S
C342 O340 1.247 . S
C342 O341 1.208 . S
C343 O348 1.247 . S
C343 O349 1.208 . S
C344 O336 1.315 . S
C344 O339 1.279 . S
C345 O346 1.315 . S
C345 O347 1.279 . S
O346 Cd338 2.223 . S
O346 C345 1.315 . S
O347 Cd337 2.240 . S
O347 C345 1.279 . S
O348 Cd338 2.297 . S
O348 C343 1.247 . S
O349 Cd338 2.439 . S
O349 C343 1.208 . S
O350 Cd351 2.223 . S
O350 C358 1.315 . S
Cd351 O350 2.223 . S
Cd351 O354 2.297 . S
Cd351 O355 2.439 . S
Cd351 O361 2.240 . S
Cd352 O353 2.240 . S
Cd352 O360 2.223 . S
Cd352 O362 2.297 . S
Cd352 O363 2.439 . S
O353 Cd352 2.240 . S
O353 C358 1.279 . S
O354 Cd351 2.297 . S
O354 C356 1.247 . S
O355 Cd351 2.439 . S
O355 C356 1.208 . S
C356 O354 1.247 . S
C356 O355 1.208 . S
C357 O362 1.247 . S
C357 O363 1.208 . S
C358 O350 1.315 . S
C358 O353 1.279 . S
C359 O360 1.315 . S
C359 O361 1.279 . S
O360 Cd352 2.223 . S
O360 C359 1.315 . S
O361 Cd351 2.240 . S
O361 C359 1.279 . S
O362 Cd352 2.297 . S
O362 C357 1.247 . S
O363 Cd352 2.439 . S
O363 C357 1.208 . S
O364 Cd365 2.223 . S
O364 C372 1.315 . S
Cd365 O364 2.223 . S
Cd365 O368 2.297 . S
Cd365 O369 2.439 . S
Cd365 O375 2.240 . S
Cd366 O367 2.240 . S
Cd366 O374 2.223 . S
Cd366 O376 2.297 . S
Cd366 O377 2.439 . S
O367 Cd366 2.240 . S
O367 C372 1.279 . S
O368 Cd365 2.297 . S
O368 C370 1.247 . S
O369 Cd365 2.439 . S
O369 C370 1.208 . S
C370 O368 1.247 . S
C370 O369 1.208 . S
C371 O376 1.247 . S
C371 O377 1.208 . S
C372 O364 1.315 . S
C372 O367 1.279 . S
C373 O374 1.315 . S
C373 O375 1.279 . S
O374 Cd366 2.223 . S
O374 C373 1.315 . S
O375 Cd365 2.240 . S
O375 C373 1.279 . S
O376 Cd366 2.297 . S
O376 C371 1.247 . S
O377 Cd366 2.439 . S
O377 C371 1.208 . S
O378 Cd379 2.223 . S
O378 C386 1.315 . S
Cd379 O378 2.223 . S
Cd379 O382 2.297 . S
Cd379 O383 2.439 . S
Cd379 O389 2.240 . S
Cd380 O381 2.240 . S
Cd380 O388 2.223 . S
Cd380 O390 2.297 . S
Cd380 O391 2.439 . S
O381 Cd380 2.240 . S
O381 C386 1.279 . S
O382 Cd379 2.297 . S
O382 C384 1.247 . S
O383 Cd379 2.439 . S
O383 C384 1.208 . S
C384 O382 1.247 . S
C384 O383 1.208 . S
C385 O390 1.247 . S
C385 O391 1.208 . S
C386 O378 1.315 . S
C386 O381 1.279 . S
C387 O388 1.315 . S
C387 O389 1.279 . S
O388 Cd380 2.223 . S
O388 C387 1.315 . S
O389 Cd379 2.240 . S
O389 C387 1.279 . S
O390 Cd380 2.297 . S
O390 C385 1.247 . S
O391 Cd380 2.439 . S
O391 C385 1.208 . S
O392 Cd393 2.223 . S
O392 C400 1.315 . S
Cd393 O392 2.223 . S
Cd393 O396 2.297 . S
Cd393 O397 2.439 . S
Cd393 O403 2.240 . S
Cd394 O395 2.240 . S
Cd394 O402 2.223 . S
Cd394 O404 2.297 . S
Cd394 O405 2.439 . S
O395 Cd394 2.240 . S
O395 C400 1.279 . S
O396 Cd393 2.297 . S
O396 C398 1.247 . S
O397 Cd393 2.439 . S
O397 C398 1.208 . S
C398 O396 1.247 . S
C398 O397 1.208 . S
C399 O404 1.247 . S
C399 O405 1.208 . S
C400 O392 1.315 . S
C400 O395 1.279 . S
C401 O402 1.315 . S
C401 O403 1.279 . S
O402 Cd394 2.223 . S
O402 C401 1.315 . S
O403 Cd393 2.240 . S
O403 C401 1.279 . S
O404 Cd394 2.297 . S
O404 C399 1.247 . S
O405 Cd394 2.439 . S
O405 C399 1.208 . S
O406 Cd407 2.223 . S
O406 C414 1.315 . S
Cd407 O406 2.223 . S
Cd407 O410 2.297 . S
Cd407 O411 2.439 . S
Cd407 O417 2.240 . S
Cd408 O409 2.240 . S
Cd408 O416 2.223 . S
Cd408 O418 2.297 . S
Cd408 O419 2.439 . S
O409 Cd408 2.240 . S
O409 C414 1.279 . S
O410 Cd407 2.297 . S
O410 C412 1.247 . S
O411 Cd407 2.439 . S
O411 C412 1.208 . S
C412 O410 1.247 . S
C412 O411 1.208 . S
C413 O418 1.247 . S
C413 O419 1.208 . S
C414 O406 1.315 . S
C414 O409 1.279 . S
C415 O416 1.315 . S
C415 O417 1.279 . S
O416 Cd408 2.223 . S
O416 C415 1.315 . S
O417 Cd407 2.240 . S
O417 C415 1.279 . S
O418 Cd408 2.297 . S
O418 C413 1.247 . S
O419 Cd408 2.439 . S
O419 C413 1.208 . S
O420 Cd421 2.223 . S
O420 C428 1.315 . S
Cd421 O420 2.223 . S
Cd421 O424 2.297 . S
Cd421 O425 2.439 . S
Cd421 O431 2.240 . S
Cd422 O423 2.240 . S
Cd422 O430 2.223 . S
Cd422 O432 2.297 . S
Cd422 O433 2.439 . S
O423 Cd422 2.240 . S
O423 C428 1.279 . S
O424 Cd421 2.297 . S
O424 C426 1.247 . S
O425 Cd421 2.439 . S
O425 C426 1.208 . S
C426 O424 1.247 . S
C426 O425 1.208 . S
C427 O432 1.247 . S
C427 O433 1.208 . S
C428 O420 1.315 . S
C428 O423 1.279 . S
C429 O430 1.315 . S
C429 O431 1.279 . S
O430 Cd422 2.223 . S
O430 C429 1.315 . S
O431 Cd421 2.240 . S
O431 C429 1.279 . S
O432 Cd422 2.297 . S
O432 C427 1.247 . S
O433 Cd422 2.439 . S
O433 C427 1.208 . S
O434 Cd435 2.223 . S
O434 C442 1.315 . S
Cd435 O434 2.223 . S
Cd435 O438 2.297 . S
Cd435 O439 2.439 . S
Cd435 O445 2.240 . S
Cd436 O437 2.240 . S
Cd436 O444 2.223 . S
Cd436 O446 2.297 . S
Cd436 O447 2.439 . S
O437 Cd436 2.240 . S
O437 C442 1.279 . S
O438 Cd435 2.297 . S
O438 C440 1.247 . S
O439 Cd435 2.439 . S
O439 C440 1.208 . S
C440 O438 1.247 . S
C440 O439 1.208 . S
C441 O446 1.247 . S
C441 O447 1.208 . S
C442 O434 1.315 . S
C442 O437 1.279 . S
C443 O444 1.315 . S
C443 O445 1.279 . S
O444 Cd436 2.223 . S
O444 C443 1.315 . S
O445 Cd435 2.240 . S
O445 C443 1.279 . S
O446 Cd436 2.297 . S
O446 C441 1.247 . S
O447 Cd436 2.439 . S
O447 C441 1.208 . S
C448 C449 1.363 . S
C448 C454 1.379 . S
C448 N456 1.356 . S
C449 C448 1.363 . S
C449 C455 1.363 . S
C450 C451 1.363 . S
C450 C455 1.379 . S
C450 N457 1.356 . S
C451 C450 1.363 . S
C451 C454 1.363 . S
N452 C454 1.356 . S
N452 H464 0.984 . S
N452 H465 0.985 . S
N453 C455 1.356 . S
N453 H458 0.984 . S
N453 H459 0.985 . S
C454 C448 1.379 . S
C454 C451 1.363 . S
C454 N452 1.356 . S
C455 C449 1.363 . S
C455 C450 1.379 . S
C455 N453 1.356 . S
N456 C448 1.356 . S
N456 H462 0.984 . S
N456 H463 0.984 . S
N457 C450 1.356 . S
N457 H460 0.984 . S
N457 H461 0.985 . S
H458 N453 0.984 . S
H459 N453 0.985 . S
H460 N457 0.984 . S
H461 N457 0.985 . S
H462 N456 0.984 . S
H463 N456 0.984 . S
H464 N452 0.984 . S
H465 N452 0.985 . S
C466 C467 1.363 . S
C466 C472 1.379 . S
C466 N474 1.356 . S
C467 C466 1.363 . S
C467 C473 1.363 . S
C468 C469 1.363 . S
C468 C473 1.379 . S
C468 N475 1.356 . S
C469 C468 1.363 . S
C469 C472 1.363 . S
N470 C472 1.356 . S
N470 H482 0.984 . S
N470 H483 0.985 . S
N471 C473 1.356 . S
N471 H476 0.984 . S
N471 H477 0.985 . S
C472 C466 1.379 . S
C472 C469 1.363 . S
C472 N470 1.356 . S
C473 C467 1.363 . S
C473 C468 1.379 . S
C473 N471 1.356 . S
N474 C466 1.356 . S
N474 H480 0.984 . S
N474 H481 0.984 . S
N475 C468 1.356 . S
N475 H478 0.984 . S
N475 H479 0.985 . S
H476 N471 0.984 . S
H477 N471 0.985 . S
H478 N475 0.984 . S
H479 N475 0.985 . S
H480 N474 0.984 . S
H481 N474 0.984 . S
H482 N470 0.984 . S
H483 N470 0.985 . S
C484 C485 1.363 . S
C484 C490 1.379 . S
C484 N492 1.356 . S
C485 C484 1.363 . S
C485 C491 1.363 . S
C486 C487 1.363 . S
C486 C491 1.379 . S
C486 N493 1.356 . S
C487 C486 1.363 . S
C487 C490 1.363 . S
N488 C490 1.356 . S
N488 H500 0.984 . S
N488 H501 0.985 . S
N489 C491 1.356 . S
N489 H494 0.984 . S
N489 H495 0.985 . S
C490 C484 1.379 . S
C490 C487 1.363 . S
C490 N488 1.356 . S
C491 C485 1.363 . S
C491 C486 1.379 . S
C491 N489 1.356 . S
N492 C484 1.356 . S
N492 H498 0.984 . S
N492 H499 0.984 . S
N493 C486 1.356 . S
N493 H496 0.984 . S
N493 H497 0.985 . S
H494 N489 0.984 . S
H495 N489 0.985 . S
H496 N493 0.984 . S
H497 N493 0.985 . S
H498 N492 0.984 . S
H499 N492 0.984 . S
H500 N488 0.984 . S
H501 N488 0.985 . S
C502 C503 1.363 . S
C502 C508 1.379 . S
C502 N510 1.356 . S
C503 C502 1.363 . S
C503 C509 1.363 . S
C504 C505 1.363 . S
C504 C509 1.379 . S
C504 N511 1.356 . S
C505 C504 1.363 . S
C505 C508 1.363 . S
N506 C508 1.356 . S
N506 H518 0.984 . S
N506 H519 0.985 . S
N507 C509 1.356 . S
N507 H512 0.984 . S
N507 H513 0.985 . S
C508 C502 1.379 . S
C508 C505 1.363 . S
C508 N506 1.356 . S
C509 C503 1.363 . S
C509 C504 1.379 . S
C509 N507 1.356 . S
N510 C502 1.356 . S
N510 H516 0.984 . S
N510 H517 0.984 . S
N511 C504 1.356 . S
N511 H514 0.984 . S
N511 H515 0.985 . S
H512 N507 0.984 . S
H513 N507 0.985 . S
H514 N511 0.984 . S
H515 N511 0.985 . S
H516 N510 0.984 . S
H517 N510 0.984 . S
H518 N506 0.984 . S
H519 N506 0.985 . S
C520 C521 1.363 . S
C520 C526 1.379 . S
C520 N528 1.356 . S
C521 C520 1.363 . S
C521 C527 1.363 . S
C522 C523 1.363 . S
C522 C527 1.379 . S
C522 N529 1.356 . S
C523 C522 1.363 . S
C523 C526 1.363 . S
N524 C526 1.356 . S
N524 H536 0.984 . S
N524 H537 0.985 . S
N525 C527 1.356 . S
N525 H530 0.984 . S
N525 H531 0.985 . S
C526 C520 1.379 . S
C526 C523 1.363 . S
C526 N524 1.356 . S
C527 C521 1.363 . S
C527 C522 1.379 . S
C527 N525 1.356 . S
N528 C520 1.356 . S
N528 H534 0.984 . S
N528 H535 0.984 . S
N529 C522 1.356 . S
N529 H532 0.984 . S
N529 H533 0.985 . S
H530 N525 0.984 . S
H531 N525 0.985 . S
H532 N529 0.984 . S
H533 N529 0.985 . S
H534 N528 0.984 . S
H535 N528 0.984 . S
H536 N524 0.984 . S
H537 N524 0.985 . S
C538 C539 1.363 . S
C538 C544 1.379 . S
C538 N546 1.356 . S
C539 C538 1.363 . S
C539 C545 1.363 . S
C540 C541 1.363 . S
C540 C545 1.379 . S
C540 N547 1.356 . S
C541 C540 1.363 . S
C541 C544 1.363 . S
N542 C544 1.356 . S
N542 H554 0.984 . S
N542 H555 0.985 . S
N543 C545 1.356 . S
N543 H548 0.984 . S
N543 H549 0.985 . S
C544 C538 1.379 . S
C544 C541 1.363 . S
C544 N542 1.356 . S
C545 C539 1.363 . S
C545 C540 1.379 . S
C545 N543 1.356 . S
N546 C538 1.356 . S
N546 H552 0.984 . S
N546 H553 0.984 . S
N547 C540 1.356 . S
N547 H550 0.984 . S
N547 H551 0.985 . S
H548 N543 0.984 . S
H549 N543 0.985 . S
H550 N547 0.984 . S
H551 N547 0.985 . S
H552 N546 0.984 . S
H553 N546 0.984 . S
H554 N542 0.984 . S
H555 N542 0.985 . S
C556 C557 1.363 . S
C556 C562 1.379 . S
C556 N564 1.356 . S
C557 C556 1.363 . S
C557 C563 1.363 . S
C558 C559 1.363 . S
C558 C563 1.379 . S
C558 N565 1.356 . S
C559 C558 1.363 . S
C559 C562 1.363 . S
N560 C562 1.356 . S
N560 H572 0.984 . S
N560 H573 0.985 . S
N561 C563 1.356 . S
N561 H566 0.984 . S
N561 H567 0.985 . S
C562 C556 1.379 . S
C562 C559 1.363 . S
C562 N560 1.356 . S
C563 C557 1.363 . S
C563 C558 1.379 . S
C563 N561 1.356 . S
N564 C556 1.356 . S
N564 H570 0.984 . S
N564 H571 0.984 . S
N565 C558 1.356 . S
N565 H568 0.984 . S
N565 H569 0.985 . S
H566 N561 0.984 . S
H567 N561 0.985 . S
H568 N565 0.984 . S
H569 N565 0.985 . S
H570 N564 0.984 . S
H571 N564 0.984 . S
H572 N560 0.984 . S
H573 N560 0.985 . S
C574 C575 1.363 . S
C574 C580 1.379 . S
C574 N582 1.356 . S
C575 C574 1.363 . S
C575 C581 1.363 . S
C576 C577 1.363 . S
C576 C581 1.379 . S
C576 N583 1.356 . S
C577 C576 1.363 . S
C577 C580 1.363 . S
N578 C580 1.356 . S
N578 H590 0.984 . S
N578 H591 0.985 . S
N579 C581 1.356 . S
N579 H584 0.984 . S
N579 H585 0.985 . S
C580 C574 1.379 . S
C580 C577 1.363 . S
C580 N578 1.356 . S
C581 C575 1.363 . S
C581 C576 1.379 . S
C581 N579 1.356 . S
N582 C574 1.356 . S
N582 H588 0.984 . S
N582 H589 0.984 . S
N583 C576 1.356 . S
N583 H586 0.984 . S
N583 H587 0.985 . S
H584 N579 0.984 . S
H585 N579 0.985 . S
H586 N583 0.984 . S
H587 N583 0.985 . S
H588 N582 0.984 . S
H589 N582 0.984 . S
H590 N578 0.984 . S
H591 N578 0.985 . S
C592 C593 1.363 . S
C592 C598 1.379 . S
C592 N600 1.356 . S
C593 C592 1.363 . S
C593 C599 1.363 . S
C594 C595 1.363 . S
C594 C599 1.379 . S
C594 N601 1.356 . S
C595 C594 1.363 . S
C595 C598 1.363 . S
N596 C598 1.356 . S
N596 H608 0.984 . S
N596 H609 0.985 . S
N597 C599 1.356 . S
N597 H602 0.984 . S
N597 H603 0.985 . S
C598 C592 1.379 . S
C598 C595 1.363 . S
C598 N596 1.356 . S
C599 C593 1.363 . S
C599 C594 1.379 . S
C599 N597 1.356 . S
N600 C592 1.356 . S
N600 H606 0.984 . S
N600 H607 0.984 . S
N601 C594 1.356 . S
N601 H604 0.984 . S
N601 H605 0.985 . S
H602 N597 0.984 . S
H603 N597 0.985 . S
H604 N601 0.984 . S
H605 N601 0.985 . S
H606 N600 0.984 . S
H607 N600 0.984 . S
H608 N596 0.984 . S
H609 N596 0.985 . S
C610 C611 1.363 . S
C610 C616 1.379 . S
C610 N618 1.356 . S
C611 C610 1.363 . S
C611 C617 1.363 . S
C612 C613 1.363 . S
C612 C617 1.379 . S
C612 N619 1.356 . S
C613 C612 1.363 . S
C613 C616 1.363 . S
N614 C616 1.356 . S
N614 H626 0.984 . S
N614 H627 0.985 . S
N615 C617 1.356 . S
N615 H620 0.984 . S
N615 H621 0.985 . S
C616 C610 1.379 . S
C616 C613 1.363 . S
C616 N614 1.356 . S
C617 C611 1.363 . S
C617 C612 1.379 . S
C617 N615 1.356 . S
N618 C610 1.356 . S
N618 H624 0.984 . S
N618 H625 0.984 . S
N619 C612 1.356 . S
N619 H622 0.984 . S
N619 H623 0.985 . S
H620 N615 0.984 . S
H621 N615 0.985 . S
H622 N619 0.984 . S
H623 N619 0.985 . S
H624 N618 0.984 . S
H625 N618 0.984 . S
H626 N614 0.984 . S
H627 N614 0.985 . S
C628 C629 1.363 . S
C628 C634 1.379 . S
C628 N636 1.356 . S
C629 C628 1.363 . S
C629 C635 1.363 . S
C630 C631 1.363 . S
C630 C635 1.379 . S
C630 N637 1.356 . S
C631 C630 1.363 . S
C631 C634 1.363 . S
N632 C634 1.356 . S
N632 H644 0.984 . S
N632 H645 0.985 . S
N633 C635 1.356 . S
N633 H638 0.984 . S
N633 H639 0.985 . S
C634 C628 1.379 . S
C634 C631 1.363 . S
C634 N632 1.356 . S
C635 C629 1.363 . S
C635 C630 1.379 . S
C635 N633 1.356 . S
N636 C628 1.356 . S
N636 H642 0.984 . S
N636 H643 0.984 . S
N637 C630 1.356 . S
N637 H640 0.984 . S
N637 H641 0.985 . S
H638 N633 0.984 . S
H639 N633 0.985 . S
H640 N637 0.984 . S
H641 N637 0.985 . S
H642 N636 0.984 . S
H643 N636 0.984 . S
H644 N632 0.984 . S
H645 N632 0.985 . S
C646 C647 1.363 . S
C646 C652 1.379 . S
C646 N654 1.356 . S
C647 C646 1.363 . S
C647 C653 1.363 . S
C648 C649 1.363 . S
C648 C653 1.379 . S
C648 N655 1.356 . S
C649 C648 1.363 . S
C649 C652 1.363 . S
N650 C652 1.356 . S
N650 H662 0.984 . S
N650 H663 0.985 . S
N651 C653 1.356 . S
N651 H656 0.984 . S
N651 H657 0.985 . S
C652 C646 1.379 . S
C652 C649 1.363 . S
C652 N650 1.356 . S
C653 C647 1.363 . S
C653 C648 1.379 . S
C653 N651 1.356 . S
N654 C646 1.356 . S
N654 H660 0.984 . S
N654 H661 0.984 . S
N655 C648 1.356 . S
N655 H658 0.984 . S
N655 H659 0.985 . S
H656 N651 0.984 . S
H657 N651 0.985 . S
H658 N655 0.984 . S
H659 N655 0.985 . S
H660 N654 0.984 . S
H661 N654 0.984 . S
H662 N650 0.984 . S
H663 N650 0.985 . S
C664 C665 1.363 . S
C664 C670 1.379 . S
C664 N672 1.356 . S
C665 C664 1.363 . S
C665 C671 1.363 . S
C666 C667 1.363 . S
C666 C671 1.379 . S
C666 N673 1.356 . S
C667 C666 1.363 . S
C667 C670 1.363 . S
N668 C670 1.356 . S
N668 H680 0.984 . S
N668 H681 0.985 . S
N669 C671 1.356 . S
N669 H674 0.984 . S
N669 H675 0.985 . S
C670 C664 1.379 . S
C670 C667 1.363 . S
C670 N668 1.356 . S
C671 C665 1.363 . S
C671 C666 1.379 . S
C671 N669 1.356 . S
N672 C664 1.356 . S
N672 H678 0.984 . S
N672 H679 0.984 . S
N673 C666 1.356 . S
N673 H676 0.984 . S
N673 H677 0.985 . S
H674 N669 0.984 . S
H675 N669 0.985 . S
H676 N673 0.984 . S
H677 N673 0.985 . S
H678 N672 0.984 . S
H679 N672 0.984 . S
H680 N668 0.984 . S
H681 N668 0.985 . S
C682 C683 1.363 . S
C682 C688 1.379 . S
C682 N690 1.356 . S
C683 C682 1.363 . S
C683 C689 1.363 . S
C684 C685 1.363 . S
C684 C689 1.379 . S
C684 N691 1.356 . S
C685 C684 1.363 . S
C685 C688 1.363 . S
N686 C688 1.356 . S
N686 H698 0.984 . S
N686 H699 0.985 . S
N687 C689 1.356 . S
N687 H692 0.984 . S
N687 H693 0.985 . S
C688 C682 1.379 . S
C688 C685 1.363 . S
C688 N686 1.356 . S
C689 C683 1.363 . S
C689 C684 1.379 . S
C689 N687 1.356 . S
N690 C682 1.356 . S
N690 H696 0.984 . S
N690 H697 0.984 . S
N691 C684 1.356 . S
N691 H694 0.984 . S
N691 H695 0.985 . S
H692 N687 0.984 . S
H693 N687 0.985 . S
H694 N691 0.984 . S
H695 N691 0.985 . S
H696 N690 0.984 . S
H697 N690 0.984 . S
H698 N686 0.984 . S
H699 N686 0.985 . S
C700 C701 1.363 . S
C700 C706 1.379 . S
C700 N708 1.356 . S
C701 C700 1.363 . S
C701 C707 1.363 . S
C702 C703 1.363 . S
C702 C707 1.379 . S
C702 N709 1.356 . S
C703 C702 1.363 . S
C703 C706 1.363 . S
N704 C706 1.356 . S
N704 H716 0.984 . S
N704 H717 0.985 . S
N705 C707 1.356 . S
N705 H710 0.984 . S
N705 H711 0.985 . S
C706 C700 1.379 . S
C706 C703 1.363 . S
C706 N704 1.356 . S
C707 C701 1.363 . S
C707 C702 1.379 . S
C707 N705 1.356 . S
N708 C700 1.356 . S
N708 H714 0.984 . S
N708 H715 0.984 . S
N709 C702 1.356 . S
N709 H712 0.984 . S
N709 H713 0.985 . S
H710 N705 0.984 . S
H711 N705 0.985 . S
H712 N709 0.984 . S
H713 N709 0.985 . S
H714 N708 0.984 . S
H715 N708 0.984 . S
H716 N704 0.984 . S
H717 N704 0.985 . S
C718 C719 1.363 . S
C718 C724 1.379 . S
C718 N726 1.356 . S
C719 C718 1.363 . S
C719 C725 1.363 . S
C720 C721 1.363 . S
C720 C725 1.379 . S
C720 N727 1.356 . S
C721 C720 1.363 . S
C721 C724 1.363 . S
N722 C724 1.356 . S
N722 H734 0.984 . S
N722 H735 0.985 . S
N723 C725 1.356 . S
N723 H728 0.984 . S
N723 H729 0.985 . S
C724 C718 1.379 . S
C724 C721 1.363 . S
C724 N722 1.356 . S
C725 C719 1.363 . S
C725 C720 1.379 . S
C725 N723 1.356 . S
N726 C718 1.356 . S
N726 H732 0.984 . S
N726 H733 0.984 . S
N727 C720 1.356 . S
N727 H730 0.984 . S
N727 H731 0.985 . S
H728 N723 0.984 . S
H729 N723 0.985 . S
H730 N727 0.984 . S
H731 N727 0.985 . S
H732 N726 0.984 . S
H733 N726 0.984 . S
H734 N722 0.984 . S
H735 N722 0.985 . S
C736 C737 1.363 . S
C736 C742 1.379 1_655 S
C736 N744 1.356 . S
C737 C736 1.363 . S
C737 C743 1.363 . S
C738 C739 1.363 . S
C738 C743 1.379 1_455 S
C738 N745 1.356 . S
C739 C738 1.363 . S
C739 C742 1.363 . S
N740 C742 1.356 . S
N740 H752 0.984 . S
N740 H753 0.985 . S
N741 C743 1.356 . S
N741 H746 0.984 . S
N741 H747 0.985 . S
C742 C736 1.379 1_455 S
C742 C739 1.363 . S
C742 N740 1.356 . S
C743 C737 1.363 . S
C743 C738 1.379 1_655 S
C743 N741 1.356 . S
N744 C736 1.356 . S
N744 H750 0.984 . S
N744 H751 0.984 . S
N745 C738 1.356 . S
N745 H748 0.984 . S
N745 H749 0.985 . S
H746 N741 0.984 . S
H747 N741 0.985 . S
H748 N745 0.984 . S
H749 N745 0.985 . S
H750 N744 0.984 . S
H751 N744 0.984 . S
H752 N740 0.984 . S
H753 N740 0.985 . S
C754 C755 1.363 . S
C754 C760 1.379 1_545 S
C754 N762 1.356 . S
C755 C754 1.363 . S
C755 C761 1.363 . S
C756 C757 1.363 . S
C756 C761 1.379 1_565 S
C756 N763 1.356 . S
C757 C756 1.363 . S
C757 C760 1.363 . S
N758 C760 1.356 . S
N758 H770 0.984 . S
N758 H771 0.985 . S
N759 C761 1.356 . S
N759 H764 0.984 . S
N759 H765 0.985 . S
C760 C754 1.379 1_565 S
C760 C757 1.363 . S
C760 N758 1.356 . S
C761 C755 1.363 . S
C761 C756 1.379 1_545 S
C761 N759 1.356 . S
N762 C754 1.356 . S
N762 H768 0.984 . S
N762 H769 0.984 . S
N763 C756 1.356 . S
N763 H766 0.984 . S
N763 H767 0.985 . S
H764 N759 0.984 . S
H765 N759 0.985 . S
H766 N763 0.984 . S
H767 N763 0.985 . S
H768 N762 0.984 . S
H769 N762 0.984 . S
H770 N758 0.984 . S
H771 N758 0.985 . S
C772 C773 1.363 . S
C772 C778 1.379 1_455 S
C772 N780 1.356 . S
C773 C772 1.363 . S
C773 C779 1.363 . S
C774 C775 1.363 . S
C774 C779 1.379 1_655 S
C774 N781 1.356 . S
C775 C774 1.363 . S
C775 C778 1.363 . S
N776 C778 1.356 . S
N776 H788 0.984 . S
N776 H789 0.985 . S
N777 C779 1.356 . S
N777 H782 0.984 . S
N777 H783 0.985 . S
C778 C772 1.379 1_655 S
C778 C775 1.363 . S
C778 N776 1.356 . S
C779 C773 1.363 . S
C779 C774 1.379 1_455 S
C779 N777 1.356 . S
N780 C772 1.356 . S
N780 H786 0.984 . S
N780 H787 0.984 . S
N781 C774 1.356 . S
N781 H784 0.984 . S
N781 H785 0.985 . S
H782 N777 0.984 . S
H783 N777 0.985 . S
H784 N781 0.984 . S
H785 N781 0.985 . S
H786 N780 0.984 . S
H787 N780 0.984 . S
H788 N776 0.984 . S
H789 N776 0.985 . S
C790 C791 1.363 . S
C790 C796 1.379 1_565 S
C790 N798 1.356 . S
C791 C790 1.363 . S
C791 C797 1.363 . S
C792 C793 1.363 . S
C792 C797 1.379 1_545 S
C792 N799 1.356 . S
C793 C792 1.363 . S
C793 C796 1.363 . S
N794 C796 1.356 . S
N794 H806 0.984 . S
N794 H807 0.985 . S
N795 C797 1.356 . S
N795 H800 0.984 . S
N795 H801 0.985 . S
C796 C790 1.379 1_545 S
C796 C793 1.363 . S
C796 N794 1.356 . S
C797 C791 1.363 . S
C797 C792 1.379 1_565 S
C797 N795 1.356 . S
N798 C790 1.356 . S
N798 H804 0.984 . S
N798 H805 0.984 . S
N799 C792 1.356 . S
N799 H802 0.984 . S
N799 H803 0.985 . S
H800 N795 0.984 . S
H801 N795 0.985 . S
H802 N799 0.984 . S
H803 N799 0.985 . S
H804 N798 0.984 . S
H805 N798 0.984 . S
H806 N794 0.984 . S
H807 N794 0.985 . S
C808 C809 1.363 . S
C808 C814 1.379 1_455 S
C808 N816 1.356 . S
C809 C808 1.363 . S
C809 C815 1.363 . S
C810 C811 1.363 . S
C810 C815 1.379 1_655 S
C810 N817 1.356 . S
C811 C810 1.363 . S
C811 C814 1.363 . S
N812 C814 1.356 . S
N812 H824 0.984 . S
N812 H825 0.985 . S
N813 C815 1.356 . S
N813 H818 0.984 . S
N813 H819 0.985 . S
C814 C808 1.379 1_655 S
C814 C811 1.363 . S
C814 N812 1.356 . S
C815 C809 1.363 . S
C815 C810 1.379 1_455 S
C815 N813 1.356 . S
N816 C808 1.356 . S
N816 H822 0.984 . S
N816 H823 0.984 . S
N817 C810 1.356 . S
N817 H820 0.984 . S
N817 H821 0.985 . S
H818 N813 0.984 . S
H819 N813 0.985 . S
H820 N817 0.984 . S
H821 N817 0.985 . S
H822 N816 0.984 . S
H823 N816 0.984 . S
H824 N812 0.984 . S
H825 N812 0.985 . S
C826 C827 1.363 . S
C826 C832 1.379 1_565 S
C826 N834 1.356 . S
C827 C826 1.363 . S
C827 C833 1.363 . S
C828 C829 1.363 . S
C828 C833 1.379 1_545 S
C828 N835 1.356 . S
C829 C828 1.363 . S
C829 C832 1.363 . S
N830 C832 1.356 . S
N830 H842 0.984 . S
N830 H843 0.985 . S
N831 C833 1.356 . S
N831 H836 0.984 . S
N831 H837 0.985 . S
C832 C826 1.379 1_545 S
C832 C829 1.363 . S
C832 N830 1.356 . S
C833 C827 1.363 . S
C833 C828 1.379 1_565 S
C833 N831 1.356 . S
N834 C826 1.356 . S
N834 H840 0.984 . S
N834 H841 0.984 . S
N835 C828 1.356 . S
N835 H838 0.984 . S
N835 H839 0.985 . S
H836 N831 0.984 . S
H837 N831 0.985 . S
H838 N835 0.984 . S
H839 N835 0.985 . S
H840 N834 0.984 . S
H841 N834 0.984 . S
H842 N830 0.984 . S
H843 N830 0.985 . S
C844 C845 1.363 . S
C844 C850 1.379 1_455 S
C844 N852 1.356 . S
C845 C844 1.363 . S
C845 C851 1.363 . S
C846 C847 1.363 . S
C846 C851 1.379 1_655 S
C846 N853 1.356 . S
C847 C846 1.363 . S
C847 C850 1.363 . S
N848 C850 1.356 . S
N848 H860 0.984 . S
N848 H861 0.985 . S
N849 C851 1.356 . S
N849 H854 0.984 . S
N849 H855 0.985 . S
C850 C844 1.379 1_655 S
C850 C847 1.363 . S
C850 N848 1.356 . S
C851 C845 1.363 . S
C851 C846 1.379 1_455 S
C851 N849 1.356 . S
N852 C844 1.356 . S
N852 H858 0.984 . S
N852 H859 0.984 . S
N853 C846 1.356 . S
N853 H856 0.984 . S
N853 H857 0.985 . S
H854 N849 0.984 . S
H855 N849 0.985 . S
H856 N853 0.984 . S
H857 N853 0.985 . S
H858 N852 0.984 . S
H859 N852 0.984 . S
H860 N848 0.984 . S
H861 N848 0.985 . S
C862 C863 1.363 . S
C862 C868 1.379 1_545 S
C862 N870 1.356 . S
C863 C862 1.363 . S
C863 C869 1.363 . S
C864 C865 1.363 . S
C864 C869 1.379 1_565 S
C864 N871 1.356 . S
C865 C864 1.363 . S
C865 C868 1.363 . S
N866 C868 1.356 . S
N866 H878 0.984 . S
N866 H879 0.985 . S
N867 C869 1.356 . S
N867 H872 0.984 . S
N867 H873 0.985 . S
C868 C862 1.379 1_565 S
C868 C865 1.363 . S
C868 N866 1.356 . S
C869 C863 1.363 . S
C869 C864 1.379 1_545 S
C869 N867 1.356 . S
N870 C862 1.356 . S
N870 H876 0.984 . S
N870 H877 0.984 . S
N871 C864 1.356 . S
N871 H874 0.984 . S
N871 H875 0.985 . S
H872 N867 0.984 . S
H873 N867 0.985 . S
H874 N871 0.984 . S
H875 N871 0.985 . S
H876 N870 0.984 . S
H877 N870 0.984 . S
H878 N866 0.984 . S
H879 N866 0.985 . S
C880 C881 1.363 . S
C880 C886 1.379 . S
C880 N888 1.356 . S
C881 C880 1.363 . S
C881 C887 1.363 . S
C882 C883 1.363 . S
C882 C887 1.379 . S
C882 N889 1.356 . S
C883 C882 1.363 . S
C883 C886 1.363 . S
N884 C886 1.356 . S
N884 H896 0.984 . S
N884 H897 0.985 . S
N885 C887 1.356 . S
N885 H890 0.984 . S
N885 H891 0.985 . S
C886 C880 1.379 . S
C886 C883 1.363 . S
C886 N884 1.356 . S
C887 C881 1.363 . S
C887 C882 1.379 . S
C887 N885 1.356 . S
N888 C880 1.356 . S
N888 H894 0.984 . S
N888 H895 0.984 . S
N889 C882 1.356 . S
N889 H892 0.984 . S
N889 H893 0.985 . S
H890 N885 0.984 . S
H891 N885 0.985 . S
H892 N889 0.984 . S
H893 N889 0.985 . S
H894 N888 0.984 . S
H895 N888 0.984 . S
H896 N884 0.984 . S
H897 N884 0.985 . S
C898 C899 1.363 . S
C898 C904 1.379 . S
C898 N906 1.356 . S
C899 C898 1.363 . S
C899 C905 1.363 . S
C900 C901 1.363 . S
C900 C905 1.379 . S
C900 N907 1.356 . S
C901 C900 1.363 . S
C901 C904 1.363 . S
N902 C904 1.356 . S
N902 H914 0.984 . S
N902 H915 0.985 . S
N903 C905 1.356 . S
N903 H908 0.984 . S
N903 H909 0.985 . S
C904 C898 1.379 . S
C904 C901 1.363 . S
C904 N902 1.356 . S
C905 C899 1.363 . S
C905 C900 1.379 . S
C905 N903 1.356 . S
N906 C898 1.356 . S
N906 H912 0.984 . S
N906 H913 0.984 . S
N907 C900 1.356 . S
N907 H910 0.984 . S
N907 H911 0.985 . S
H908 N903 0.984 . S
H909 N903 0.985 . S
H910 N907 0.984 . S
H911 N907 0.985 . S
H912 N906 0.984 . S
H913 N906 0.984 . S
H914 N902 0.984 . S
H915 N902 0.985 . S
C916 C917 1.363 . S
C916 C922 1.379 . S
C916 N924 1.356 . S
C917 C916 1.363 . S
C917 C923 1.363 . S
C918 C919 1.363 . S
C918 C923 1.379 . S
C918 N925 1.356 . S
C919 C918 1.363 . S
C919 C922 1.363 . S
N920 C922 1.356 . S
N920 H932 0.984 . S
N920 H933 0.985 . S
N921 C923 1.356 . S
N921 H926 0.984 . S
N921 H927 0.985 . S
C922 C916 1.379 . S
C922 C919 1.363 . S
C922 N920 1.356 . S
C923 C917 1.363 . S
C923 C918 1.379 . S
C923 N921 1.356 . S
N924 C916 1.356 . S
N924 H930 0.984 . S
N924 H931 0.984 . S
N925 C918 1.356 . S
N925 H928 0.984 . S
N925 H929 0.985 . S
H926 N921 0.984 . S
H927 N921 0.985 . S
H928 N925 0.984 . S
H929 N925 0.985 . S
H930 N924 0.984 . S
H931 N924 0.984 . S
H932 N920 0.984 . S
H933 N920 0.985 . S
C934 C935 1.363 . S
C934 C940 1.379 . S
C934 N942 1.356 . S
C935 C934 1.363 . S
C935 C941 1.363 . S
C936 C937 1.363 . S
C936 C941 1.379 . S
C936 N943 1.356 . S
C937 C936 1.363 . S
C937 C940 1.363 . S
N938 C940 1.356 . S
N938 H950 0.984 . S
N938 H951 0.985 . S
N939 C941 1.356 . S
N939 H944 0.984 . S
N939 H945 0.985 . S
C940 C934 1.379 . S
C940 C937 1.363 . S
C940 N938 1.356 . S
C941 C935 1.363 . S
C941 C936 1.379 . S
C941 N939 1.356 . S
N942 C934 1.356 . S
N942 H948 0.984 . S
N942 H949 0.984 . S
N943 C936 1.356 . S
N943 H946 0.984 . S
N943 H947 0.985 . S
H944 N939 0.984 . S
H945 N939 0.985 . S
H946 N943 0.984 . S
H947 N943 0.985 . S
H948 N942 0.984 . S
H949 N942 0.984 . S
H950 N938 0.984 . S
H951 N938 0.985 . S
C952 C953 1.363 . S
C952 C958 1.379 . S
C952 N960 1.356 . S
C953 C952 1.363 . S
C953 C959 1.363 . S
C954 C955 1.363 . S
C954 C959 1.379 . S
C954 N961 1.356 . S
C955 C954 1.363 . S
C955 C958 1.363 . S
N956 C958 1.356 . S
N956 H968 0.984 . S
N956 H969 0.985 . S
N957 C959 1.356 . S
N957 H962 0.984 . S
N957 H963 0.985 . S
C958 C952 1.379 . S
C958 C955 1.363 . S
C958 N956 1.356 . S
C959 C953 1.363 . S
C959 C954 1.379 . S
C959 N957 1.356 . S
N960 C952 1.356 . S
N960 H966 0.984 . S
N960 H967 0.984 . S
N961 C954 1.356 . S
N961 H964 0.984 . S
N961 H965 0.985 . S
H962 N957 0.984 . S
H963 N957 0.985 . S
H964 N961 0.984 . S
H965 N961 0.985 . S
H966 N960 0.984 . S
H967 N960 0.984 . S
H968 N956 0.984 . S
H969 N956 0.985 . S
C970 C971 1.363 . S
C970 C976 1.379 . S
C970 N978 1.356 . S
C971 C970 1.363 . S
C971 C977 1.363 . S
C972 C973 1.363 . S
C972 C977 1.379 . S
C972 N979 1.356 . S
C973 C972 1.363 . S
C973 C976 1.363 . S
N974 C976 1.356 . S
N974 H986 0.984 . S
N974 H987 0.985 . S
N975 C977 1.356 . S
N975 H980 0.984 . S
N975 H981 0.985 . S
C976 C970 1.379 . S
C976 C973 1.363 . S
C976 N974 1.356 . S
C977 C971 1.363 . S
C977 C972 1.379 . S
C977 N975 1.356 . S
N978 C970 1.356 . S
N978 H984 0.984 . S
N978 H985 0.984 . S
N979 C972 1.356 . S
N979 H982 0.984 . S
N979 H983 0.985 . S
H980 N975 0.984 . S
H981 N975 0.985 . S
H982 N979 0.984 . S
H983 N979 0.985 . S
H984 N978 0.984 . S
H985 N978 0.984 . S
H986 N974 0.984 . S
H987 N974 0.985 . S
C988 C989 1.363 . S
C988 C994 1.379 . S
C988 N996 1.356 . S
C989 C988 1.363 . S
C989 C995 1.363 . S
C990 C991 1.363 . S
C990 C995 1.379 . S
C990 N997 1.356 . S
C991 C990 1.363 . S
C991 C994 1.363 . S
N992 C994 1.356 . S
N992 H1004 0.984 . S
N992 H1005 0.985 . S
N993 C995 1.356 . S
N993 H998 0.984 . S
N993 H999 0.985 . S
C994 C988 1.379 . S
C994 C991 1.363 . S
C994 N992 1.356 . S
C995 C989 1.363 . S
C995 C990 1.379 . S
C995 N993 1.356 . S
N996 C988 1.356 . S
N996 H1002 0.984 . S
N996 H1003 0.984 . S
N997 C990 1.356 . S
N997 H1000 0.984 . S
N997 H1001 0.985 . S
H998 N993 0.984 . S
H999 N993 0.985 . S
H1000 N997 0.984 . S
H1001 N997 0.985 . S
H1002 N996 0.984 . S
H1003 N996 0.984 . S
H1004 N992 0.984 . S
H1005 N992 0.985 . S
C1006 C1007 1.363 . S
C1006 C1012 1.379 . S
C1006 N1014 1.356 . S
C1007 C1006 1.363 . S
C1007 C1013 1.363 . S
C1008 C1009 1.363 . S
C1008 C1013 1.379 . S
C1008 N1015 1.356 . S
C1009 C1008 1.363 . S
C1009 C1012 1.363 . S
N1010 C1012 1.356 . S
N1010 H1022 0.984 . S
N1010 H1023 0.985 . S
N1011 C1013 1.356 . S
N1011 H1016 0.984 . S
N1011 H1017 0.985 . S
C1012 C1006 1.379 . S
C1012 C1009 1.363 . S
C1012 N1010 1.356 . S
C1013 C1007 1.363 . S
C1013 C1008 1.379 . S
C1013 N1011 1.356 . S
N1014 C1006 1.356 . S
N1014 H1020 0.984 . S
N1014 H1021 0.984 . S
N1015 C1008 1.356 . S
N1015 H1018 0.984 . S
N1015 H1019 0.985 . S
H1016 N1011 0.984 . S
H1017 N1011 0.985 . S
H1018 N1015 0.984 . S
H1019 N1015 0.985 . S
H1020 N1014 0.984 . S
H1021 N1014 0.984 . S
H1022 N1010 0.984 . S
H1023 N1010 0.985 . S
C1024 C1025 1.363 . S
C1024 C1030 1.379 . S
C1024 N1032 1.356 . S
C1025 C1024 1.363 . S
C1025 C1031 1.363 . S
C1026 C1027 1.363 . S
C1026 C1031 1.379 . S
C1026 N1033 1.356 . S
C1027 C1026 1.363 . S
C1027 C1030 1.363 . S
N1028 C1030 1.356 . S
N1028 H1040 0.984 . S
N1028 H1041 0.985 . S
N1029 C1031 1.356 . S
N1029 H1034 0.984 . S
N1029 H1035 0.985 . S
C1030 C1024 1.379 . S
C1030 C1027 1.363 . S
C1030 N1028 1.356 . S
C1031 C1025 1.363 . S
C1031 C1026 1.379 . S
C1031 N1029 1.356 . S
N1032 C1024 1.356 . S
N1032 H1038 0.984 . S
N1032 H1039 0.984 . S
N1033 C1026 1.356 . S
N1033 H1036 0.984 . S
N1033 H1037 0.985 . S
H1034 N1029 0.984 . S
H1035 N1029 0.985 . S
H1036 N1033 0.984 . S
H1037 N1033 0.985 . S
H1038 N1032 0.984 . S
H1039 N1032 0.984 . S
H1040 N1028 0.984 . S
H1041 N1028 0.985 . S
C1042 C1043 1.363 . S
C1042 C1048 1.379 . S
C1042 N1050 1.356 . S
C1043 C1042 1.363 . S
C1043 C1049 1.363 . S
C1044 C1045 1.363 . S
C1044 C1049 1.379 . S
C1044 N1051 1.356 . S
C1045 C1044 1.363 . S
C1045 C1048 1.363 . S
N1046 C1048 1.356 . S
N1046 H1058 0.984 . S
N1046 H1059 0.985 . S
N1047 C1049 1.356 . S
N1047 H1052 0.984 . S
N1047 H1053 0.985 . S
C1048 C1042 1.379 . S
C1048 C1045 1.363 . S
C1048 N1046 1.356 . S
C1049 C1043 1.363 . S
C1049 C1044 1.379 . S
C1049 N1047 1.356 . S
N1050 C1042 1.356 . S
N1050 H1056 0.984 . S
N1050 H1057 0.984 . S
N1051 C1044 1.356 . S
N1051 H1054 0.984 . S
N1051 H1055 0.985 . S
H1052 N1047 0.984 . S
H1053 N1047 0.985 . S
H1054 N1051 0.984 . S
H1055 N1051 0.985 . S
H1056 N1050 0.984 . S
H1057 N1050 0.984 . S
H1058 N1046 0.984 . S
H1059 N1046 0.985 . S
C1060 C1061 1.363 . S
C1060 C1066 1.379 . S
C1060 N1068 1.356 . S
C1061 C1060 1.363 . S
C1061 C1067 1.363 . S
C1062 C1063 1.363 . S
C1062 C1067 1.379 . S
C1062 N1069 1.356 . S
C1063 C1062 1.363 . S
C1063 C1066 1.363 . S
N1064 C1066 1.356 . S
N1064 H1076 0.984 . S
N1064 H1077 0.985 . S
N1065 C1067 1.356 . S
N1065 H1070 0.984 . S
N1065 H1071 0.985 . S
C1066 C1060 1.379 . S
C1066 C1063 1.363 . S
C1066 N1064 1.356 . S
C1067 C1061 1.363 . S
C1067 C1062 1.379 . S
C1067 N1065 1.356 . S
N1068 C1060 1.356 . S
N1068 H1074 0.984 . S
N1068 H1075 0.984 . S
N1069 C1062 1.356 . S
N1069 H1072 0.984 . S
N1069 H1073 0.985 . S
H1070 N1065 0.984 . S
H1071 N1065 0.985 . S
H1072 N1069 0.984 . S
H1073 N1069 0.985 . S
H1074 N1068 0.984 . S
H1075 N1068 0.984 . S
H1076 N1064 0.984 . S
H1077 N1064 0.985 . S
C1078 C1079 1.363 . S
C1078 C1084 1.379 . S
C1078 N1086 1.356 . S
C1079 C1078 1.363 . S
C1079 C1085 1.363 . S
C1080 C1081 1.363 . S
C1080 C1085 1.379 . S
C1080 N1087 1.356 . S
C1081 C1080 1.363 . S
C1081 C1084 1.363 . S
N1082 C1084 1.356 . S
N1082 H1094 0.984 . S
N1082 H1095 0.985 . S
N1083 C1085 1.356 . S
N1083 H1088 0.984 . S
N1083 H1089 0.985 . S
C1084 C1078 1.379 . S
C1084 C1081 1.363 . S
C1084 N1082 1.356 . S
C1085 C1079 1.363 . S
C1085 C1080 1.379 . S
C1085 N1083 1.356 . S
N1086 C1078 1.356 . S
N1086 H1092 0.984 . S
N1086 H1093 0.984 . S
N1087 C1080 1.356 . S
N1087 H1090 0.984 . S
N1087 H1091 0.985 . S
H1088 N1083 0.984 . S
H1089 N1083 0.985 . S
H1090 N1087 0.984 . S
H1091 N1087 0.985 . S
H1092 N1086 0.984 . S
H1093 N1086 0.984 . S
H1094 N1082 0.984 . S
H1095 N1082 0.985 . S
C1096 C1097 1.363 . S
C1096 C1102 1.379 . S
C1096 N1104 1.356 . S
C1097 C1096 1.363 . S
C1097 C1103 1.363 . S
C1098 C1099 1.363 . S
C1098 C1103 1.379 . S
C1098 N1105 1.356 . S
C1099 C1098 1.363 . S
C1099 C1102 1.363 . S
N1100 C1102 1.356 . S
N1100 H1112 0.984 . S
N1100 H1113 0.985 . S
N1101 C1103 1.356 . S
N1101 H1106 0.984 . S
N1101 H1107 0.985 . S
C1102 C1096 1.379 . S
C1102 C1099 1.363 . S
C1102 N1100 1.356 . S
C1103 C1097 1.363 . S
C1103 C1098 1.379 . S
C1103 N1101 1.356 . S
N1104 C1096 1.356 . S
N1104 H1110 0.984 . S
N1104 H1111 0.984 . S
N1105 C1098 1.356 . S
N1105 H1108 0.984 . S
N1105 H1109 0.985 . S
H1106 N1101 0.984 . S
H1107 N1101 0.985 . S
H1108 N1105 0.984 . S
H1109 N1105 0.985 . S
H1110 N1104 0.984 . S
H1111 N1104 0.984 . S
H1112 N1100 0.984 . S
H1113 N1100 0.985 . S
C1114 C1115 1.363 . S
C1114 C1120 1.379 . S
C1114 N1122 1.356 . S
C1115 C1114 1.363 . S
C1115 C1121 1.363 . S
C1116 C1117 1.363 . S
C1116 C1121 1.379 . S
C1116 N1123 1.356 . S
C1117 C1116 1.363 . S
C1117 C1120 1.363 . S
N1118 C1120 1.356 . S
N1118 H1130 0.984 . S
N1118 H1131 0.985 . S
N1119 C1121 1.356 . S
N1119 H1124 0.984 . S
N1119 H1125 0.985 . S
C1120 C1114 1.379 . S
C1120 C1117 1.363 . S
C1120 N1118 1.356 . S
C1121 C1115 1.363 . S
C1121 C1116 1.379 . S
C1121 N1119 1.356 . S
N1122 C1114 1.356 . S
N1122 H1128 0.984 . S
N1122 H1129 0.984 . S
N1123 C1116 1.356 . S
N1123 H1126 0.984 . S
N1123 H1127 0.985 . S
H1124 N1119 0.984 . S
H1125 N1119 0.985 . S
H1126 N1123 0.984 . S
H1127 N1123 0.985 . S
H1128 N1122 0.984 . S
H1129 N1122 0.984 . S
H1130 N1118 0.984 . S
H1131 N1118 0.985 . S
C1132 C1133 1.363 . S
C1132 C1138 1.379 . S
C1132 N1140 1.356 . S
C1133 C1132 1.363 . S
C1133 C1139 1.363 . S
C1134 C1135 1.363 . S
C1134 C1139 1.379 . S
C1134 N1141 1.356 . S
C1135 C1134 1.363 . S
C1135 C1138 1.363 . S
N1136 C1138 1.356 . S
N1136 H1148 0.984 . S
N1136 H1149 0.985 . S
N1137 C1139 1.356 . S
N1137 H1142 0.984 . S
N1137 H1143 0.985 . S
C1138 C1132 1.379 . S
C1138 C1135 1.363 . S
C1138 N1136 1.356 . S
C1139 C1133 1.363 . S
C1139 C1134 1.379 . S
C1139 N1137 1.356 . S
N1140 C1132 1.356 . S
N1140 H1146 0.984 . S
N1140 H1147 0.984 . S
N1141 C1134 1.356 . S
N1141 H1144 0.984 . S
N1141 H1145 0.985 . S
H1142 N1137 0.984 . S
H1143 N1137 0.985 . S
H1144 N1141 0.984 . S
H1145 N1141 0.985 . S
H1146 N1140 0.984 . S
H1147 N1140 0.984 . S
H1148 N1136 0.984 . S
H1149 N1136 0.985 . S
C1150 C1151 1.363 . S
C1150 C1156 1.379 . S
C1150 N1158 1.356 . S
C1151 C1150 1.363 . S
C1151 C1157 1.363 . S
C1152 C1153 1.363 . S
C1152 C1157 1.379 . S
C1152 N1159 1.356 . S
C1153 C1152 1.363 . S
C1153 C1156 1.363 . S
N1154 C1156 1.356 . S
N1154 H1166 0.984 . S
N1154 H1167 0.985 . S
N1155 C1157 1.356 . S
N1155 H1160 0.984 . S
N1155 H1161 0.985 . S
C1156 C1150 1.379 . S
C1156 C1153 1.363 . S
C1156 N1154 1.356 . S
C1157 C1151 1.363 . S
C1157 C1152 1.379 . S
C1157 N1155 1.356 . S
N1158 C1150 1.356 . S
N1158 H1164 0.984 . S
N1158 H1165 0.984 . S
N1159 C1152 1.356 . S
N1159 H1162 0.984 . S
N1159 H1163 0.985 . S
H1160 N1155 0.984 . S
H1161 N1155 0.985 . S
H1162 N1159 0.984 . S
H1163 N1159 0.985 . S
H1164 N1158 0.984 . S
H1165 N1158 0.984 . S
H1166 N1154 0.984 . S
H1167 N1154 0.985 . S
C1168 C1169 1.363 . S
C1168 C1174 1.379 1_554 S
C1168 N1176 1.356 . S
C1169 C1168 1.363 . S
C1169 C1175 1.363 . S
C1170 C1171 1.363 . S
C1170 C1175 1.379 1_556 S
C1170 N1177 1.356 . S
C1171 C1170 1.363 . S
C1171 C1174 1.363 . S
N1172 C1174 1.356 . S
N1172 H1184 0.984 . S
N1172 H1185 0.985 . S
N1173 C1175 1.356 . S
N1173 H1178 0.984 . S
N1173 H1179 0.985 . S
C1174 C1168 1.379 1_556 S
C1174 C1171 1.363 . S
C1174 N1172 1.356 . S
C1175 C1169 1.363 . S
C1175 C1170 1.379 1_554 S
C1175 N1173 1.356 . S
N1176 C1168 1.356 . S
N1176 H1182 0.984 . S
N1176 H1183 0.984 . S
N1177 C1170 1.356 . S
N1177 H1180 0.984 . S
N1177 H1181 0.985 . S
H1178 N1173 0.984 . S
H1179 N1173 0.985 . S
H1180 N1177 0.984 . S
H1181 N1177 0.985 . S
H1182 N1176 0.984 . S
H1183 N1176 0.984 . S
H1184 N1172 0.984 . S
H1185 N1172 0.985 . S
C1186 C1187 1.363 . S
C1186 C1192 1.379 1_556 S
C1186 N1194 1.356 . S
C1187 C1186 1.363 . S
C1187 C1193 1.363 . S
C1188 C1189 1.363 . S
C1188 C1193 1.379 1_554 S
C1188 N1195 1.356 . S
C1189 C1188 1.363 . S
C1189 C1192 1.363 . S
N1190 C1192 1.356 . S
N1190 H1202 0.984 . S
N1190 H1203 0.985 . S
N1191 C1193 1.356 . S
N1191 H1196 0.984 . S
N1191 H1197 0.985 . S
C1192 C1186 1.379 1_554 S
C1192 C1189 1.363 . S
C1192 N1190 1.356 . S
C1193 C1187 1.363 . S
C1193 C1188 1.379 1_556 S
C1193 N1191 1.356 . S
N1194 C1186 1.356 . S
N1194 H1200 0.984 . S
N1194 H1201 0.984 . S
N1195 C1188 1.356 . S
N1195 H1198 0.984 . S
N1195 H1199 0.985 . S
H1196 N1191 0.984 . S
H1197 N1191 0.985 . S
H1198 N1195 0.984 . S
H1199 N1195 0.985 . S
H1200 N1194 0.984 . S
H1201 N1194 0.984 . S
H1202 N1190 0.984 . S
H1203 N1190 0.985 . S
C1204 C1205 1.363 . S
C1204 C1210 1.379 1_554 S
C1204 N1212 1.356 . S
C1205 C1204 1.363 . S
C1205 C1211 1.363 . S
C1206 C1207 1.363 . S
C1206 C1211 1.379 1_556 S
C1206 N1213 1.356 . S
C1207 C1206 1.363 . S
C1207 C1210 1.363 . S
N1208 C1210 1.356 . S
N1208 H1220 0.984 . S
N1208 H1221 0.985 . S
N1209 C1211 1.356 . S
N1209 H1214 0.984 . S
N1209 H1215 0.985 . S
C1210 C1204 1.379 1_556 S
C1210 C1207 1.363 . S
C1210 N1208 1.356 . S
C1211 C1205 1.363 . S
C1211 C1206 1.379 1_554 S
C1211 N1209 1.356 . S
N1212 C1204 1.356 . S
N1212 H1218 0.984 . S
N1212 H1219 0.984 . S
N1213 C1206 1.356 . S
N1213 H1216 0.984 . S
N1213 H1217 0.985 . S
H1214 N1209 0.984 . S
H1215 N1209 0.985 . S
H1216 N1213 0.984 . S
H1217 N1213 0.985 . S
H1218 N1212 0.984 . S
H1219 N1212 0.984 . S
H1220 N1208 0.984 . S
H1221 N1208 0.985 . S
C1222 C1223 1.363 . S
C1222 C1228 1.379 1_554 S
C1222 N1230 1.356 . S
C1223 C1222 1.363 . S
C1223 C1229 1.363 . S
C1224 C1225 1.363 . S
C1224 C1229 1.379 1_556 S
C1224 N1231 1.356 . S
C1225 C1224 1.363 . S
C1225 C1228 1.363 . S
N1226 C1228 1.356 . S
N1226 H1238 0.984 . S
N1226 H1239 0.985 . S
N1227 C1229 1.356 . S
N1227 H1232 0.984 . S
N1227 H1233 0.985 . S
C1228 C1222 1.379 1_556 S
C1228 C1225 1.363 . S
C1228 N1226 1.356 . S
C1229 C1223 1.363 . S
C1229 C1224 1.379 1_554 S
C1229 N1227 1.356 . S
N1230 C1222 1.356 . S
N1230 H1236 0.984 . S
N1230 H1237 0.984 . S
N1231 C1224 1.356 . S
N1231 H1234 0.984 . S
N1231 H1235 0.985 . S
H1232 N1227 0.984 . S
H1233 N1227 0.985 . S
H1234 N1231 0.984 . S
H1235 N1231 0.985 . S
H1236 N1230 0.984 . S
H1237 N1230 0.984 . S
H1238 N1226 0.984 . S
H1239 N1226 0.985 . S
C1240 C1241 1.363 . S
C1240 C1246 1.379 1_554 S
C1240 N1248 1.356 . S
C1241 C1240 1.363 . S
C1241 C1247 1.363 . S
C1242 C1243 1.363 . S
C1242 C1247 1.379 1_556 S
C1242 N1249 1.356 . S
C1243 C1242 1.363 . S
C1243 C1246 1.363 . S
N1244 C1246 1.356 . S
N1244 H1256 0.984 . S
N1244 H1257 0.985 . S
N1245 C1247 1.356 . S
N1245 H1250 0.984 . S
N1245 H1251 0.985 . S
C1246 C1240 1.379 1_556 S
C1246 C1243 1.363 . S
C1246 N1244 1.356 . S
C1247 C1241 1.363 . S
C1247 C1242 1.379 1_554 S
C1247 N1245 1.356 . S
N1248 C1240 1.356 . S
N1248 H1254 0.984 . S
N1248 H1255 0.984 . S
N1249 C1242 1.356 . S
N1249 H1252 0.984 . S
N1249 H1253 0.985 . S
H1250 N1245 0.984 . S
H1251 N1245 0.985 . S
H1252 N1249 0.984 . S
H1253 N1249 0.985 . S
H1254 N1248 0.984 . S
H1255 N1248 0.984 . S
H1256 N1244 0.984 . S
H1257 N1244 0.985 . S
C1258 C1259 1.363 . S
C1258 C1264 1.379 1_554 S
C1258 N1266 1.356 . S
C1259 C1258 1.363 . S
C1259 C1265 1.363 . S
C1260 C1261 1.363 . S
C1260 C1265 1.379 1_556 S
C1260 N1267 1.356 . S
C1261 C1260 1.363 . S
C1261 C1264 1.363 . S
N1262 C1264 1.356 . S
N1262 H1274 0.984 . S
N1262 H1275 0.985 . S
N1263 C1265 1.356 . S
N1263 H1268 0.984 . S
N1263 H1269 0.985 . S
C1264 C1258 1.379 1_556 S
C1264 C1261 1.363 . S
C1264 N1262 1.356 . S
C1265 C1259 1.363 . S
C1265 C1260 1.379 1_554 S
C1265 N1263 1.356 . S
N1266 C1258 1.356 . S
N1266 H1272 0.984 . S
N1266 H1273 0.984 . S
N1267 C1260 1.356 . S
N1267 H1270 0.984 . S
N1267 H1271 0.985 . S
H1268 N1263 0.984 . S
H1269 N1263 0.985 . S
H1270 N1267 0.984 . S
H1271 N1267 0.985 . S
H1272 N1266 0.984 . S
H1273 N1266 0.984 . S
H1274 N1262 0.984 . S
H1275 N1262 0.985 . S
C1276 C1277 1.363 . S
C1276 C1282 1.379 1_556 S
C1276 N1284 1.356 . S
C1277 C1276 1.363 . S
C1277 C1283 1.363 . S
C1278 C1279 1.363 . S
C1278 C1283 1.379 1_554 S
C1278 N1285 1.356 . S
C1279 C1278 1.363 . S
C1279 C1282 1.363 . S
N1280 C1282 1.356 . S
N1280 H1292 0.984 . S
N1280 H1293 0.985 . S
N1281 C1283 1.356 . S
N1281 H1286 0.984 . S
N1281 H1287 0.985 . S
C1282 C1276 1.379 1_554 S
C1282 C1279 1.363 . S
C1282 N1280 1.356 . S
C1283 C1277 1.363 . S
C1283 C1278 1.379 1_556 S
C1283 N1281 1.356 . S
N1284 C1276 1.356 . S
N1284 H1290 0.984 . S
N1284 H1291 0.984 . S
N1285 C1278 1.356 . S
N1285 H1288 0.984 . S
N1285 H1289 0.985 . S
H1286 N1281 0.984 . S
H1287 N1281 0.985 . S
H1288 N1285 0.984 . S
H1289 N1285 0.985 . S
H1290 N1284 0.984 . S
H1291 N1284 0.984 . S
H1292 N1280 0.984 . S
H1293 N1280 0.985 . S
C1294 C1295 1.363 . S
C1294 C1300 1.379 1_556 S
C1294 N1302 1.356 . S
C1295 C1294 1.363 . S
C1295 C1301 1.363 . S
C1296 C1297 1.363 . S
C1296 C1301 1.379 1_554 S
C1296 N1303 1.356 . S
C1297 C1296 1.363 . S
C1297 C1300 1.363 . S
N1298 C1300 1.356 . S
N1298 H1310 0.984 . S
N1298 H1311 0.985 . S
N1299 C1301 1.356 . S
N1299 H1304 0.984 . S
N1299 H1305 0.985 . S
C1300 C1294 1.379 1_554 S
C1300 C1297 1.363 . S
C1300 N1298 1.356 . S
C1301 C1295 1.363 . S
C1301 C1296 1.379 1_556 S
C1301 N1299 1.356 . S
N1302 C1294 1.356 . S
N1302 H1308 0.984 . S
N1302 H1309 0.984 . S
N1303 C1296 1.356 . S
N1303 H1306 0.984 . S
N1303 H1307 0.985 . S
H1304 N1299 0.984 . S
H1305 N1299 0.985 . S
H1306 N1303 0.984 . S
H1307 N1303 0.985 . S
H1308 N1302 0.984 . S
H1309 N1302 0.984 . S
H1310 N1298 0.984 . S
H1311 N1298 0.985 . S
C1312 C1313 1.363 . S
C1312 C1318 1.379 . S
C1312 N1320 1.356 . S
C1313 C1312 1.363 . S
C1313 C1319 1.363 . S
C1314 C1315 1.363 . S
C1314 C1319 1.379 . S
C1314 N1321 1.356 . S
C1315 C1314 1.363 . S
C1315 C1318 1.363 . S
N1316 C1318 1.356 . S
N1316 H1328 0.984 . S
N1316 H1329 0.985 . S
N1317 C1319 1.356 . S
N1317 H1322 0.984 . S
N1317 H1323 0.985 . S
C1318 C1312 1.379 . S
C1318 C1315 1.363 . S
C1318 N1316 1.356 . S
C1319 C1313 1.363 . S
C1319 C1314 1.379 . S
C1319 N1317 1.356 . S
N1320 C1312 1.356 . S
N1320 H1326 0.984 . S
N1320 H1327 0.984 . S
N1321 C1314 1.356 . S
N1321 H1324 0.984 . S
N1321 H1325 0.985 . S
H1322 N1317 0.984 . S
H1323 N1317 0.985 . S
H1324 N1321 0.984 . S
H1325 N1321 0.985 . S
H1326 N1320 0.984 . S
H1327 N1320 0.984 . S
H1328 N1316 0.984 . S
H1329 N1316 0.985 . S
C1330 C1331 1.363 . S
C1330 C1336 1.379 . S
C1330 N1338 1.356 . S
C1331 C1330 1.363 . S
C1331 C1337 1.363 . S
C1332 C1333 1.363 . S
C1332 C1337 1.379 . S
C1332 N1339 1.356 . S
C1333 C1332 1.363 . S
C1333 C1336 1.363 . S
N1334 C1336 1.356 . S
N1334 H1346 0.984 . S
N1334 H1347 0.985 . S
N1335 C1337 1.356 . S
N1335 H1340 0.984 . S
N1335 H1341 0.985 . S
C1336 C1330 1.379 . S
C1336 C1333 1.363 . S
C1336 N1334 1.356 . S
C1337 C1331 1.363 . S
C1337 C1332 1.379 . S
C1337 N1335 1.356 . S
N1338 C1330 1.356 . S
N1338 H1344 0.984 . S
N1338 H1345 0.984 . S
N1339 C1332 1.356 . S
N1339 H1342 0.984 . S
N1339 H1343 0.985 . S
H1340 N1335 0.984 . S
H1341 N1335 0.985 . S
H1342 N1339 0.984 . S
H1343 N1339 0.985 . S
H1344 N1338 0.984 . S
H1345 N1338 0.984 . S
H1346 N1334 0.984 . S
H1347 N1334 0.985 . S
C1348 C1349 1.363 . S
C1348 C1354 1.379 . S
C1348 N1356 1.356 . S
C1349 C1348 1.363 . S
C1349 C1355 1.363 . S
C1350 C1351 1.363 . S
C1350 C1355 1.379 . S
C1350 N1357 1.356 . S
C1351 C1350 1.363 . S
C1351 C1354 1.363 . S
N1352 C1354 1.356 . S
N1352 H1364 0.984 . S
N1352 H1365 0.985 . S
N1353 C1355 1.356 . S
N1353 H1358 0.984 . S
N1353 H1359 0.985 . S
C1354 C1348 1.379 . S
C1354 C1351 1.363 . S
C1354 N1352 1.356 . S
C1355 C1349 1.363 . S
C1355 C1350 1.379 . S
C1355 N1353 1.356 . S
N1356 C1348 1.356 . S
N1356 H1362 0.984 . S
N1356 H1363 0.984 . S
N1357 C1350 1.356 . S
N1357 H1360 0.984 . S
N1357 H1361 0.985 . S
H1358 N1353 0.984 . S
H1359 N1353 0.985 . S
H1360 N1357 0.984 . S
H1361 N1357 0.985 . S
H1362 N1356 0.984 . S
H1363 N1356 0.984 . S
H1364 N1352 0.984 . S
H1365 N1352 0.985 . S
C1366 C1367 1.363 . S
C1366 C1372 1.379 . S
C1366 N1374 1.356 . S
C1367 C1366 1.363 . S
C1367 C1373 1.363 . S
C1368 C1369 1.363 . S
C1368 C1373 1.379 . S
C1368 N1375 1.356 . S
C1369 C1368 1.363 . S
C1369 C1372 1.363 . S
N1370 C1372 1.356 . S
N1370 H1382 0.984 . S
N1370 H1383 0.985 . S
N1371 C1373 1.356 . S
N1371 H1376 0.984 . S
N1371 H1377 0.985 . S
C1372 C1366 1.379 . S
C1372 C1369 1.363 . S
C1372 N1370 1.356 . S
C1373 C1367 1.363 . S
C1373 C1368 1.379 . S
C1373 N1371 1.356 . S
N1374 C1366 1.356 . S
N1374 H1380 0.984 . S
N1374 H1381 0.984 . S
N1375 C1368 1.356 . S
N1375 H1378 0.984 . S
N1375 H1379 0.985 . S
H1376 N1371 0.984 . S
H1377 N1371 0.985 . S
H1378 N1375 0.984 . S
H1379 N1375 0.985 . S
H1380 N1374 0.984 . S
H1381 N1374 0.984 . S
H1382 N1370 0.984 . S
H1383 N1370 0.985 . S
C1384 C1385 1.363 . S
C1384 C1390 1.379 . S
C1384 N1392 1.356 . S
C1385 C1384 1.363 . S
C1385 C1391 1.363 . S
C1386 C1387 1.363 . S
C1386 C1391 1.379 . S
C1386 N1393 1.356 . S
C1387 C1386 1.363 . S
C1387 C1390 1.363 . S
N1388 C1390 1.356 . S
N1388 H1400 0.984 . S
N1388 H1401 0.985 . S
N1389 C1391 1.356 . S
N1389 H1394 0.984 . S
N1389 H1395 0.985 . S
C1390 C1384 1.379 . S
C1390 C1387 1.363 . S
C1390 N1388 1.356 . S
C1391 C1385 1.363 . S
C1391 C1386 1.379 . S
C1391 N1389 1.356 . S
N1392 C1384 1.356 . S
N1392 H1398 0.984 . S
N1392 H1399 0.984 . S
N1393 C1386 1.356 . S
N1393 H1396 0.984 . S
N1393 H1397 0.985 . S
H1394 N1389 0.984 . S
H1395 N1389 0.985 . S
H1396 N1393 0.984 . S
H1397 N1393 0.985 . S
H1398 N1392 0.984 . S
H1399 N1392 0.984 . S
H1400 N1388 0.984 . S
H1401 N1388 0.985 . S
C1402 C1403 1.363 . S
C1402 C1408 1.379 . S
C1402 N1410 1.356 . S
C1403 C1402 1.363 . S
C1403 C1409 1.363 . S
C1404 C1405 1.363 . S
C1404 C1409 1.379 . S
C1404 N1411 1.356 . S
C1405 C1404 1.363 . S
C1405 C1408 1.363 . S
N1406 C1408 1.356 . S
N1406 H1418 0.984 . S
N1406 H1419 0.985 . S
N1407 C1409 1.356 . S
N1407 H1412 0.984 . S
N1407 H1413 0.985 . S
C1408 C1402 1.379 . S
C1408 C1405 1.363 . S
C1408 N1406 1.356 . S
C1409 C1403 1.363 . S
C1409 C1404 1.379 . S
C1409 N1407 1.356 . S
N1410 C1402 1.356 . S
N1410 H1416 0.984 . S
N1410 H1417 0.984 . S
N1411 C1404 1.356 . S
N1411 H1414 0.984 . S
N1411 H1415 0.985 . S
H1412 N1407 0.984 . S
H1413 N1407 0.985 . S
H1414 N1411 0.984 . S
H1415 N1411 0.985 . S
H1416 N1410 0.984 . S
H1417 N1410 0.984 . S
H1418 N1406 0.984 . S
H1419 N1406 0.985 . S
C1420 C1421 1.363 . S
C1420 C1426 1.379 . S
C1420 N1428 1.356 . S
C1421 C1420 1.363 . S
C1421 C1427 1.363 . S
C1422 C1423 1.363 . S
C1422 C1427 1.379 . S
C1422 N1429 1.356 . S
C1423 C1422 1.363 . S
C1423 C1426 1.363 . S
N1424 C1426 1.356 . S
N1424 H1436 0.984 . S
N1424 H1437 0.985 . S
N1425 C1427 1.356 . S
N1425 H1430 0.984 . S
N1425 H1431 0.985 . S
C1426 C1420 1.379 . S
C1426 C1423 1.363 . S
C1426 N1424 1.356 . S
C1427 C1421 1.363 . S
C1427 C1422 1.379 . S
C1427 N1425 1.356 . S
N1428 C1420 1.356 . S
N1428 H1434 0.984 . S
N1428 H1435 0.984 . S
N1429 C1422 1.356 . S
N1429 H1432 0.984 . S
N1429 H1433 0.985 . S
H1430 N1425 0.984 . S
H1431 N1425 0.985 . S
H1432 N1429 0.984 . S
H1433 N1429 0.985 . S
H1434 N1428 0.984 . S
H1435 N1428 0.984 . S
H1436 N1424 0.984 . S
H1437 N1424 0.985 . S
C1438 C1439 1.363 . S
C1438 C1444 1.379 . S
C1438 N1446 1.356 . S
C1439 C1438 1.363 . S
C1439 C1445 1.363 . S
C1440 C1441 1.363 . S
C1440 C1445 1.379 . S
C1440 N1447 1.356 . S
C1441 C1440 1.363 . S
C1441 C1444 1.363 . S
N1442 C1444 1.356 . S
N1442 H1454 0.984 . S
N1442 H1455 0.985 . S
N1443 C1445 1.356 . S
N1443 H1448 0.984 . S
N1443 H1449 0.985 . S
C1444 C1438 1.379 . S
C1444 C1441 1.363 . S
C1444 N1442 1.356 . S
C1445 C1439 1.363 . S
C1445 C1440 1.379 . S
C1445 N1443 1.356 . S
N1446 C1438 1.356 . S
N1446 H1452 0.984 . S
N1446 H1453 0.984 . S
N1447 C1440 1.356 . S
N1447 H1450 0.984 . S
N1447 H1451 0.985 . S
H1448 N1443 0.984 . S
H1449 N1443 0.985 . S
H1450 N1447 0.984 . S
H1451 N1447 0.985 . S
H1452 N1446 0.984 . S
H1453 N1446 0.984 . S
H1454 N1442 0.984 . S
H1455 N1442 0.985 . S
C1456 C1457 1.363 . S
C1456 C1462 1.379 . S
C1456 N1464 1.356 . S
C1457 C1456 1.363 . S
C1457 C1463 1.363 . S
C1458 C1459 1.363 . S
C1458 C1463 1.379 . S
C1458 N1465 1.356 . S
C1459 C1458 1.363 . S
C1459 C1462 1.363 . S
N1460 C1462 1.356 . S
N1460 H1472 0.984 . S
N1460 H1473 0.985 . S
N1461 C1463 1.356 . S
N1461 H1466 0.984 . S
N1461 H1467 0.985 . S
C1462 C1456 1.379 . S
C1462 C1459 1.363 . S
C1462 N1460 1.356 . S
C1463 C1457 1.363 . S
C1463 C1458 1.379 . S
C1463 N1461 1.356 . S
N1464 C1456 1.356 . S
N1464 H1470 0.984 . S
N1464 H1471 0.984 . S
N1465 C1458 1.356 . S
N1465 H1468 0.984 . S
N1465 H1469 0.985 . S
H1466 N1461 0.984 . S
H1467 N1461 0.985 . S
H1468 N1465 0.984 . S
H1469 N1465 0.985 . S
H1470 N1464 0.984 . S
H1471 N1464 0.984 . S
H1472 N1460 0.984 . S
H1473 N1460 0.985 . S
C1474 C1475 1.363 . S
C1474 C1480 1.379 . S
C1474 N1482 1.356 . S
C1475 C1474 1.363 . S
C1475 C1481 1.363 . S
C1476 C1477 1.363 . S
C1476 C1481 1.379 . S
C1476 N1483 1.356 . S
C1477 C1476 1.363 . S
C1477 C1480 1.363 . S
N1478 C1480 1.356 . S
N1478 H1490 0.984 . S
N1478 H1491 0.985 . S
N1479 C1481 1.356 . S
N1479 H1484 0.984 . S
N1479 H1485 0.985 . S
C1480 C1474 1.379 . S
C1480 C1477 1.363 . S
C1480 N1478 1.356 . S
C1481 C1475 1.363 . S
C1481 C1476 1.379 . S
C1481 N1479 1.356 . S
N1482 C1474 1.356 . S
N1482 H1488 0.984 . S
N1482 H1489 0.984 . S
N1483 C1476 1.356 . S
N1483 H1486 0.984 . S
N1483 H1487 0.985 . S
H1484 N1479 0.984 . S
H1485 N1479 0.985 . S
H1486 N1483 0.984 . S
H1487 N1483 0.985 . S
H1488 N1482 0.984 . S
H1489 N1482 0.984 . S
H1490 N1478 0.984 . S
H1491 N1478 0.985 . S
C1492 C1493 1.363 . S
C1492 C1498 1.379 . S
C1492 N1500 1.356 . S
C1493 C1492 1.363 . S
C1493 C1499 1.363 . S
C1494 C1495 1.363 . S
C1494 C1499 1.379 . S
C1494 N1501 1.356 . S
C1495 C1494 1.363 . S
C1495 C1498 1.363 . S
N1496 C1498 1.356 . S
N1496 H1508 0.984 . S
N1496 H1509 0.985 . S
N1497 C1499 1.356 . S
N1497 H1502 0.984 . S
N1497 H1503 0.985 . S
C1498 C1492 1.379 . S
C1498 C1495 1.363 . S
C1498 N1496 1.356 . S
C1499 C1493 1.363 . S
C1499 C1494 1.379 . S
C1499 N1497 1.356 . S
N1500 C1492 1.356 . S
N1500 H1506 0.984 . S
N1500 H1507 0.984 . S
N1501 C1494 1.356 . S
N1501 H1504 0.984 . S
N1501 H1505 0.985 . S
H1502 N1497 0.984 . S
H1503 N1497 0.985 . S
H1504 N1501 0.984 . S
H1505 N1501 0.985 . S
H1506 N1500 0.984 . S
H1507 N1500 0.984 . S
H1508 N1496 0.984 . S
H1509 N1496 0.985 . S
C1510 C1511 1.363 . S
C1510 C1516 1.379 . S
C1510 N1518 1.356 . S
C1511 C1510 1.363 . S
C1511 C1517 1.363 . S
C1512 C1513 1.363 . S
C1512 C1517 1.379 . S
C1512 N1519 1.356 . S
C1513 C1512 1.363 . S
C1513 C1516 1.363 . S
N1514 C1516 1.356 . S
N1514 H1526 0.984 . S
N1514 H1527 0.985 . S
N1515 C1517 1.356 . S
N1515 H1520 0.984 . S
N1515 H1521 0.985 . S
C1516 C1510 1.379 . S
C1516 C1513 1.363 . S
C1516 N1514 1.356 . S
C1517 C1511 1.363 . S
C1517 C1512 1.379 . S
C1517 N1515 1.356 . S
N1518 C1510 1.356 . S
N1518 H1524 0.984 . S
N1518 H1525 0.984 . S
N1519 C1512 1.356 . S
N1519 H1522 0.984 . S
N1519 H1523 0.985 . S
H1520 N1515 0.984 . S
H1521 N1515 0.985 . S
H1522 N1519 0.984 . S
H1523 N1519 0.985 . S
H1524 N1518 0.984 . S
H1525 N1518 0.984 . S
H1526 N1514 0.984 . S
H1527 N1514 0.985 . S
C1528 C1529 1.363 . S
C1528 C1534 1.379 . S
C1528 N1536 1.356 . S
C1529 C1528 1.363 . S
C1529 C1535 1.363 . S
C1530 C1531 1.363 . S
C1530 C1535 1.379 . S
C1530 N1537 1.356 . S
C1531 C1530 1.363 . S
C1531 C1534 1.363 . S
N1532 C1534 1.356 . S
N1532 H1544 0.984 . S
N1532 H1545 0.985 . S
N1533 C1535 1.356 . S
N1533 H1538 0.984 . S
N1533 H1539 0.985 . S
C1534 C1528 1.379 . S
C1534 C1531 1.363 . S
C1534 N1532 1.356 . S
C1535 C1529 1.363 . S
C1535 C1530 1.379 . S
C1535 N1533 1.356 . S
N1536 C1528 1.356 . S
N1536 H1542 0.984 . S
N1536 H1543 0.984 . S
N1537 C1530 1.356 . S
N1537 H1540 0.984 . S
N1537 H1541 0.985 . S
H1538 N1533 0.984 . S
H1539 N1533 0.985 . S
H1540 N1537 0.984 . S
H1541 N1537 0.985 . S
H1542 N1536 0.984 . S
H1543 N1536 0.984 . S
H1544 N1532 0.984 . S
H1545 N1532 0.985 . S
C1546 C1547 1.363 . S
C1546 C1552 1.379 . S
C1546 N1554 1.356 . S
C1547 C1546 1.363 . S
C1547 C1553 1.363 . S
C1548 C1549 1.363 . S
C1548 C1553 1.379 . S
C1548 N1555 1.356 . S
C1549 C1548 1.363 . S
C1549 C1552 1.363 . S
N1550 C1552 1.356 . S
N1550 H1562 0.984 . S
N1550 H1563 0.985 . S
N1551 C1553 1.356 . S
N1551 H1556 0.984 . S
N1551 H1557 0.985 . S
C1552 C1546 1.379 . S
C1552 C1549 1.363 . S
C1552 N1550 1.356 . S
C1553 C1547 1.363 . S
C1553 C1548 1.379 . S
C1553 N1551 1.356 . S
N1554 C1546 1.356 . S
N1554 H1560 0.984 . S
N1554 H1561 0.984 . S
N1555 C1548 1.356 . S
N1555 H1558 0.984 . S
N1555 H1559 0.985 . S
H1556 N1551 0.984 . S
H1557 N1551 0.985 . S
H1558 N1555 0.984 . S
H1559 N1555 0.985 . S
H1560 N1554 0.984 . S
H1561 N1554 0.984 . S
H1562 N1550 0.984 . S
H1563 N1550 0.985 . S
C1564 C1565 1.363 . S
C1564 C1570 1.379 . S
C1564 N1572 1.356 . S
C1565 C1564 1.363 . S
C1565 C1571 1.363 . S
C1566 C1567 1.363 . S
C1566 C1571 1.379 . S
C1566 N1573 1.356 . S
C1567 C1566 1.363 . S
C1567 C1570 1.363 . S
N1568 C1570 1.356 . S
N1568 H1580 0.984 . S
N1568 H1581 0.985 . S
N1569 C1571 1.356 . S
N1569 H1574 0.984 . S
N1569 H1575 0.985 . S
C1570 C1564 1.379 . S
C1570 C1567 1.363 . S
C1570 N1568 1.356 . S
C1571 C1565 1.363 . S
C1571 C1566 1.379 . S
C1571 N1569 1.356 . S
N1572 C1564 1.356 . S
N1572 H1578 0.984 . S
N1572 H1579 0.984 . S
N1573 C1566 1.356 . S
N1573 H1576 0.984 . S
N1573 H1577 0.985 . S
H1574 N1569 0.984 . S
H1575 N1569 0.985 . S
H1576 N1573 0.984 . S
H1577 N1573 0.985 . S
H1578 N1572 0.984 . S
H1579 N1572 0.984 . S
H1580 N1568 0.984 . S
H1581 N1568 0.985 . S
C1582 C1583 1.363 . S
C1582 C1588 1.379 . S
C1582 N1590 1.356 . S
C1583 C1582 1.363 . S
C1583 C1589 1.363 . S
C1584 C1585 1.363 . S
C1584 C1589 1.379 . S
C1584 N1591 1.356 . S
C1585 C1584 1.363 . S
C1585 C1588 1.363 . S
N1586 C1588 1.356 . S
N1586 H1598 0.984 . S
N1586 H1599 0.985 . S
N1587 C1589 1.356 . S
N1587 H1592 0.984 . S
N1587 H1593 0.985 . S
C1588 C1582 1.379 . S
C1588 C1585 1.363 . S
C1588 N1586 1.356 . S
C1589 C1583 1.363 . S
C1589 C1584 1.379 . S
C1589 N1587 1.356 . S
N1590 C1582 1.356 . S
N1590 H1596 0.984 . S
N1590 H1597 0.984 . S
N1591 C1584 1.356 . S
N1591 H1594 0.984 . S
N1591 H1595 0.985 . S
H1592 N1587 0.984 . S
H1593 N1587 0.985 . S
H1594 N1591 0.984 . S
H1595 N1591 0.985 . S
H1596 N1590 0.984 . S
H1597 N1590 0.984 . S
H1598 N1586 0.984 . S
H1599 N1586 0.985 . S
C449 C218 1.506 . S
C451 C8 1.506 . S
C467 C22 1.506 . S
C469 C176 1.506 . S
C485 C36 1.506 . S
C487 C190 1.506 . S
C503 C204 1.506 . S
C505 C50 1.506 . S
C521 C64 1.506 . S
C523 C134 1.506 . S
C539 C78 1.506 . S
C541 C148 1.506 . S
C557 C162 1.506 . S
C559 C92 1.506 . S
C575 C120 1.506 . S
C577 C106 1.506 . S
C593 C232 1.506 . S
C595 C442 1.506 . S
C611 C246 1.506 . S
C613 C400 1.506 . S
C629 C260 1.506 . S
C631 C414 1.506 . S
C647 C428 1.506 . S
C649 C274 1.506 . S
C665 C288 1.506 . S
C667 C358 1.506 . S
C683 C302 1.506 . S
C685 C372 1.506 . S
C701 C386 1.506 . S
C703 C316 1.506 . S
C719 C330 1.506 . S
C721 C344 1.506 . S
C737 C175 1.463 . S
C739 C7 1.463 . S
C755 C21 1.463 . S
C757 C189 1.463 . S
C773 C203 1.463 . S
C775 C35 1.463 . S
C791 C49 1.463 . S
C793 C217 1.463 . S
C809 C63 1.463 . S
C811 C119 1.463 . S
C827 C133 1.463 . S
C829 C77 1.463 . S
C845 C147 1.463 . S
C847 C91 1.463 . S
C863 C161 1.463 . S
C865 C105 1.463 . S
C881 C231 1.463 . S
C883 C399 1.463 . S
C899 C413 1.463 . S
C901 C245 1.463 . S
C917 C259 1.463 . S
C919 C427 1.463 . S
C935 C273 1.463 . S
C937 C441 1.463 . S
C953 C343 1.463 . S
C955 C287 1.463 . S
C971 C301 1.463 . S
C973 C357 1.463 . S
C989 C315 1.463 . S
C991 C371 1.463 . S
C1007 C329 1.463 . S
C1009 C385 1.463 . S
C1025 C9 1.398 . S
C1027 C149 1.398 . S
C1043 C163 1.398 . S
C1045 C23 1.398 . S
C1061 C37 1.398 . S
C1063 C121 1.398 . S
C1079 C135 1.398 . S
C1081 C51 1.398 . S
C1097 C205 1.398 . S
C1099 C65 1.398 . S
C1115 C219 1.398 . S
C1117 C79 1.398 . S
C1133 C177 1.398 . S
C1135 C93 1.398 . S
C1151 C107 1.398 . S
C1153 C191 1.398 . S
C1169 C373 1.398 . S
C1171 C233 1.398 . S
C1187 C247 1.398 . S
C1189 C387 1.398 . S
C1205 C345 1.398 . S
C1207 C261 1.398 . S
C1223 C359 1.398 . S
C1225 C275 1.398 . S
C1241 C289 1.398 . S
C1243 C429 1.398 . S
C1259 C303 1.398 . S
C1261 C443 1.398 . S
C1277 C401 1.398 . S
C1279 C317 1.398 . S
C1295 C415 1.398 . S
C1297 C331 1.398 . S
C1313 C328 1.430 . S
C1315 C6 1.430 . S
C1331 C286 1.430 . S
C1333 C20 1.430 . S
C1349 C300 1.430 . S
C1351 C34 1.430 . S
C1367 C314 1.430 . S
C1369 C48 1.430 . S
C1385 C244 1.430 . S
C1387 C62 1.430 . S
C1403 C76 1.430 . S
C1405 C258 1.430 . S
C1421 C90 1.430 . S
C1423 C272 1.430 . S
C1439 C104 1.430 . S
C1441 C230 1.430 . S
C1457 C118 1.430 . S
C1459 C440 1.430 . S
C1475 C398 1.430 . S
C1477 C132 1.430 . S
C1493 C146 1.430 . S
C1495 C412 1.430 . S
C1511 C160 1.430 . S
C1513 C426 1.430 . S
C1529 C356 1.430 . S
C1531 C174 1.430 . S
C1547 C370 1.430 . S
C1549 C188 1.430 . S
C1565 C202 1.430 . S
C1567 C384 1.430 . S
C1583 C216 1.430 . S
C1585 C342 1.430 . S
