# Generated by pormake.
# Topology umv, (4)-cn, num edge types: 1
# Building blocks:
#     Node 0, Type 0, BuildingBlock: GALJAG_clean_sbu_0, # of connection points: 4
#     Node 1, Type 0, BuildingBlock: GALJAG_clean_sbu_0, # of connection points: 4
#     Node 2, Type 0, BuildingBlock: GALJAG_clean_sbu_0, # of connection points: 4
#     Node 3, Type 0, BuildingBlock: GALJAG_clean_sbu_0, # of connection points: 4
#     Node 4, Type 0, BuildingBlock: GALJAG_clean_sbu_0, # of connection points: 4
#     Node 5, Type 0, BuildingBlock: GALJAG_clean_sbu_0, # of connection points: 4
#     Node 6, Type 0, BuildingBlock: GALJAG_clean_sbu_0, # of connection points: 4
#     Node 7, Type 0, BuildingBlock: GALJAG_clean_sbu_0, # of connection points: 4
#     Node 8, Type 0, BuildingBlock: GALJAG_clean_sbu_0, # of connection points: 4
#     Node 9, Type 0, BuildingBlock: GALJAG_clean_sbu_0, # of connection points: 4
#     Node 10, Type 0, BuildingBlock: GALJAG_clean_sbu_0, # of connection points: 4
#     Node 11, Type 0, BuildingBlock: GALJAG_clean_sbu_0, # of connection points: 4
#     Node 12, Type 0, BuildingBlock: GALJAG_clean_sbu_0, # of connection points: 4
#     Node 13, Type 0, BuildingBlock: GALJAG_clean_sbu_0, # of connection points: 4
#     Node 14, Type 0, BuildingBlock: GALJAG_clean_sbu_0, # of connection points: 4
#     Node 15, Type 0, BuildingBlock: GALJAG_clean_sbu_0, # of connection points: 4
#     Node 16, Type 0, BuildingBlock: GALJAG_clean_sbu_0, # of connection points: 4
#     Node 17, Type 0, BuildingBlock: GALJAG_clean_sbu_0, # of connection points: 4
#     Node 18, Type 0, BuildingBlock: GALJAG_clean_sbu_0, # of connection points: 4
#     Node 19, Type 0, BuildingBlock: GALJAG_clean_sbu_0, # of connection points: 4
#     Node 20, Type 0, BuildingBlock: GALJAG_clean_sbu_0, # of connection points: 4
#     Node 21, Type 0, BuildingBlock: GALJAG_clean_sbu_0, # of connection points: 4
#     Node 22, Type 0, BuildingBlock: GALJAG_clean_sbu_0, # of connection points: 4
#     Node 23, Type 0, BuildingBlock: GALJAG_clean_sbu_0, # of connection points: 4
#     Node 24, Type 0, BuildingBlock: GALJAG_clean_sbu_0, # of connection points: 4
#     Node 25, Type 0, BuildingBlock: GALJAG_clean_sbu_0, # of connection points: 4
#     Node 26, Type 0, BuildingBlock: GALJAG_clean_sbu_0, # of connection points: 4
#     Node 27, Type 0, BuildingBlock: GALJAG_clean_sbu_0, # of connection points: 4
#     Node 28, Type 0, BuildingBlock: GALJAG_clean_sbu_0, # of connection points: 4
#     Node 29, Type 0, BuildingBlock: GALJAG_clean_sbu_0, # of connection points: 4
#     Node 30, Type 0, BuildingBlock: GALJAG_clean_sbu_0, # of connection points: 4
#     Node 31, Type 0, BuildingBlock: GALJAG_clean_sbu_0, # of connection points: 4
#     Edge 32, Type (0, 0), BuildingBlock: TEMPAE_clean_linker_10, # of connection points: 2
#     Edge 33, Type (0, 0), BuildingBlock: TEMPAE_clean_linker_10, # of connection points: 2
#     Edge 34, Type (0, 0), BuildingBlock: TEMPAE_clean_linker_10, # of connection points: 2
#     Edge 35, Type (0, 0), BuildingBlock: TEMPAE_clean_linker_10, # of connection points: 2
#     Edge 36, Type (0, 0), BuildingBlock: TEMPAE_clean_linker_10, # of connection points: 2
#     Edge 37, Type (0, 0), BuildingBlock: TEMPAE_clean_linker_10, # of connection points: 2
#     Edge 38, Type (0, 0), BuildingBlock: TEMPAE_clean_linker_10, # of connection points: 2
#     Edge 39, Type (0, 0), BuildingBlock: TEMPAE_clean_linker_10, # of connection points: 2
#     Edge 40, Type (0, 0), BuildingBlock: TEMPAE_clean_linker_10, # of connection points: 2
#     Edge 41, Type (0, 0), BuildingBlock: TEMPAE_clean_linker_10, # of connection points: 2
#     Edge 42, Type (0, 0), BuildingBlock: TEMPAE_clean_linker_10, # of connection points: 2
#     Edge 43, Type (0, 0), BuildingBlock: TEMPAE_clean_linker_10, # of connection points: 2
#     Edge 44, Type (0, 0), BuildingBlock: TEMPAE_clean_linker_10, # of connection points: 2
#     Edge 45, Type (0, 0), BuildingBlock: TEMPAE_clean_linker_10, # of connection points: 2
#     Edge 46, Type (0, 0), BuildingBlock: TEMPAE_clean_linker_10, # of connection points: 2
#     Edge 47, Type (0, 0), BuildingBlock: TEMPAE_clean_linker_10, # of connection points: 2
#     Edge 48, Type (0, 0), BuildingBlock: TEMPAE_clean_linker_10, # of connection points: 2
#     Edge 49, Type (0, 0), BuildingBlock: TEMPAE_clean_linker_10, # of connection points: 2
#     Edge 50, Type (0, 0), BuildingBlock: TEMPAE_clean_linker_10, # of connection points: 2
#     Edge 51, Type (0, 0), BuildingBlock: TEMPAE_clean_linker_10, # of connection points: 2
#     Edge 52, Type (0, 0), BuildingBlock: TEMPAE_clean_linker_10, # of connection points: 2
#     Edge 53, Type (0, 0), BuildingBlock: TEMPAE_clean_linker_10, # of connection points: 2
#     Edge 54, Type (0, 0), BuildingBlock: TEMPAE_clean_linker_10, # of connection points: 2
#     Edge 55, Type (0, 0), BuildingBlock: TEMPAE_clean_linker_10, # of connection points: 2
#     Edge 56, Type (0, 0), BuildingBlock: TEMPAE_clean_linker_10, # of connection points: 2
#     Edge 57, Type (0, 0), BuildingBlock: TEMPAE_clean_linker_10, # of connection points: 2
#     Edge 58, Type (0, 0), BuildingBlock: TEMPAE_clean_linker_10, # of connection points: 2
#     Edge 59, Type (0, 0), BuildingBlock: TEMPAE_clean_linker_10, # of connection points: 2
#     Edge 60, Type (0, 0), BuildingBlock: TEMPAE_clean_linker_10, # of connection points: 2
#     Edge 61, Type (0, 0), BuildingBlock: TEMPAE_clean_linker_10, # of connection points: 2
#     Edge 62, Type (0, 0), BuildingBlock: TEMPAE_clean_linker_10, # of connection points: 2
#     Edge 63, Type (0, 0), BuildingBlock: TEMPAE_clean_linker_10, # of connection points: 2
#     Edge 64, Type (0, 0), BuildingBlock: TEMPAE_clean_linker_10, # of connection points: 2
#     Edge 65, Type (0, 0), BuildingBlock: TEMPAE_clean_linker_10, # of connection points: 2
#     Edge 66, Type (0, 0), BuildingBlock: TEMPAE_clean_linker_10, # of connection points: 2
#     Edge 67, Type (0, 0), BuildingBlock: TEMPAE_clean_linker_10, # of connection points: 2
#     Edge 68, Type (0, 0), BuildingBlock: TEMPAE_clean_linker_10, # of connection points: 2
#     Edge 69, Type (0, 0), BuildingBlock: TEMPAE_clean_linker_10, # of connection points: 2
#     Edge 70, Type (0, 0), BuildingBlock: TEMPAE_clean_linker_10, # of connection points: 2
#     Edge 71, Type (0, 0), BuildingBlock: TEMPAE_clean_linker_10, # of connection points: 2
#     Edge 72, Type (0, 0), BuildingBlock: TEMPAE_clean_linker_10, # of connection points: 2
#     Edge 73, Type (0, 0), BuildingBlock: TEMPAE_clean_linker_10, # of connection points: 2
#     Edge 74, Type (0, 0), BuildingBlock: TEMPAE_clean_linker_10, # of connection points: 2
#     Edge 75, Type (0, 0), BuildingBlock: TEMPAE_clean_linker_10, # of connection points: 2
#     Edge 76, Type (0, 0), BuildingBlock: TEMPAE_clean_linker_10, # of connection points: 2
#     Edge 77, Type (0, 0), BuildingBlock: TEMPAE_clean_linker_10, # of connection points: 2
#     Edge 78, Type (0, 0), BuildingBlock: TEMPAE_clean_linker_10, # of connection points: 2
#     Edge 79, Type (0, 0), BuildingBlock: TEMPAE_clean_linker_10, # of connection points: 2
#     Edge 80, Type (0, 0), BuildingBlock: TEMPAE_clean_linker_10, # of connection points: 2
#     Edge 81, Type (0, 0), BuildingBlock: TEMPAE_clean_linker_10, # of connection points: 2
#     Edge 82, Type (0, 0), BuildingBlock: TEMPAE_clean_linker_10, # of connection points: 2
#     Edge 83, Type (0, 0), BuildingBlock: TEMPAE_clean_linker_10, # of connection points: 2
#     Edge 84, Type (0, 0), BuildingBlock: TEMPAE_clean_linker_10, # of connection points: 2
#     Edge 85, Type (0, 0), BuildingBlock: TEMPAE_clean_linker_10, # of connection points: 2
#     Edge 86, Type (0, 0), BuildingBlock: TEMPAE_clean_linker_10, # of connection points: 2
#     Edge 87, Type (0, 0), BuildingBlock: TEMPAE_clean_linker_10, # of connection points: 2
#     Edge 88, Type (0, 0), BuildingBlock: TEMPAE_clean_linker_10, # of connection points: 2
#     Edge 89, Type (0, 0), BuildingBlock: TEMPAE_clean_linker_10, # of connection points: 2
#     Edge 90, Type (0, 0), BuildingBlock: TEMPAE_clean_linker_10, # of connection points: 2
#     Edge 91, Type (0, 0), BuildingBlock: TEMPAE_clean_linker_10, # of connection points: 2
#     Edge 92, Type (0, 0), BuildingBlock: TEMPAE_clean_linker_10, # of connection points: 2
#     Edge 93, Type (0, 0), BuildingBlock: TEMPAE_clean_linker_10, # of connection points: 2
#     Edge 94, Type (0, 0), BuildingBlock: TEMPAE_clean_linker_10, # of connection points: 2
#     Edge 95, Type (0, 0), BuildingBlock: TEMPAE_clean_linker_10, # of connection points: 2
# Relax obj value: 0.083
# Max RMSD: 0.091
# Mean RMSD: 0.091
data_MOF--net-umv--node1-GALJAG_clean_sbu_0--edge1-TEMPAE_clean_linker_10
_symmetry_space_group_name_H-M    P1
_symmetry_Int_Tables_number       1
_symmetry_cell_setting            triclinic
loop_
_symmetry_equiv_pos_as_xyz
'x, y, z'
_cell_length_a     107.49873
_cell_length_b     27.530233
_cell_length_c     51.052004
_cell_angle_alpha  89.999739
_cell_angle_beta   90.00515
_cell_angle_gamma 89.973197
loop_
_atom_site_label
_atom_site_type_symbol
_atom_site_fract_x
_atom_site_fract_y
_atom_site_fract_z
_atom_type_partial_charge
In0 In 0.06293 0.10107 0.29912 0.0
O1 O 0.0541 0.14547 0.33206 0.0
O2 O 0.07283 0.16048 0.32206 0.0
C3 C 0.05828 0.0117 0.31838 0.0
C4 C 0.04473 0.1402 0.26925 0.0
C5 C 0.08548 0.091 0.2761 0.0
O6 O 0.06172 0.04693 0.33246 0.0
O7 O 0.0569 0.02162 0.29435 0.0
O8 O 0.07638 0.10997 0.26429 0.0
O9 O 0.08299 0.07533 0.29865 0.0
C10 C 0.06353 0.17171 0.33578 0.0
O11 O 0.0554 0.15863 0.27141 0.0
O12 O 0.04343 0.09987 0.28073 0.0
In13 In 0.19802 0.15228 0.30355 0.0
O14 O 0.21123 0.14114 0.26863 0.0
O15 O 0.21837 0.13379 0.30728 0.0
C16 C 0.1749 0.1593 0.28381 0.0
C17 C 0.19447 0.06421 0.32488 0.0
C18 C 0.201 0.24083 0.32517 0.0
O19 O 0.18427 0.15322 0.26913 0.0
O20 O 0.17734 0.16329 0.30791 0.0
O21 O 0.20136 0.20214 0.33848 0.0
O22 O 0.1994 0.23485 0.30084 0.0
C23 C 0.22037 0.12982 0.28306 0.0
O24 O 0.19612 0.10155 0.33894 0.0
O25 O 0.19434 0.072 0.30057 0.0
In26 In 0.05984 0.09656 0.94125 0.0
O27 O 0.05819 0.04265 0.90732 0.0
O28 O 0.06581 0.0181 0.94348 0.0
C29 C 0.05549 0.18209 0.91715 0.0
C30 C 0.03889 0.07385 0.96746 0.0
C31 C 0.08347 0.11108 0.95686 0.0
O32 O 0.05825 0.14381 0.90479 0.0
O33 O 0.05481 0.17717 0.94173 0.0
O34 O 0.07452 0.11356 0.97297 0.0
O35 O 0.0803 0.10323 0.93347 0.0
C36 C 0.06281 0.00787 0.92028 0.0
O37 O 0.04929 0.07773 0.97891 0.0
O38 O 0.03905 0.08367 0.94335 0.0
In39 In 0.19578 0.14632 0.9355 0.0
O40 O 0.20967 0.15754 0.9692 0.0
O41 O 0.21574 0.16872 0.92991 0.0
C42 C 0.17391 0.13869 0.96103 0.0
C43 C 0.19297 0.2356 0.91565 0.0
C44 C 0.19744 0.06223 0.90827 0.0
O45 O 0.18373 0.1206 0.97063 0.0
O46 O 0.17522 0.15863 0.93906 0.0
O47 O 0.19193 0.09925 0.89947 0.0
O48 O 0.20219 0.06768 0.93067 0.0
C49 C 0.2183 0.17114 0.95397 0.0
O50 O 0.19487 0.19904 0.90107 0.0
O51 O 0.19235 0.22655 0.93986 0.0
In52 In 0.94524 0.85197 0.69021 0.0
O53 O 0.94665 0.79994 0.65516 0.0
O54 O 0.94494 0.77044 0.69355 0.0
C55 C 0.94871 0.93815 0.66596 0.0
C56 C 0.96467 0.83698 0.72261 0.0
C57 C 0.9208 0.85673 0.70166 0.0
O58 O 0.95162 0.89821 0.65538 0.0
O59 O 0.94432 0.93455 0.68882 0.0
O60 O 0.92902 0.87072 0.71773 0.0
O61 O 0.92497 0.84117 0.68014 0.0
C62 C 0.94608 0.76232 0.66939 0.0
O63 O 0.95352 0.83412 0.73027 0.0
O64 O 0.96597 0.85154 0.69935 0.0
In65 In 0.80484 0.88727 0.68238 0.0
O66 O 0.79955 0.94241 0.71365 0.0
O67 O 0.78694 0.88469 0.70689 0.0
C68 C 0.82859 0.8888 0.69955 0.0
C69 C 0.8027 0.95738 0.646 0.0
C70 C 0.80085 0.79813 0.66111 0.0
O71 O 0.82008 0.8678 0.71241 0.0
O72 O 0.82502 0.90858 0.6786 0.0
O73 O 0.79711 0.83677 0.65052 0.0
O74 O 0.8064 0.80423 0.68258 0.0
C75 C 0.78907 0.9242 0.71858 0.0
O76 O 0.81277 0.93507 0.65017 0.0
O77 O 0.79351 0.94193 0.6589 0.0
In78 In 0.94254 0.87245 0.06581 0.0
O79 O 0.93062 0.93838 0.07524 0.0
O80 O 0.9437 0.91559 0.10393 0.0
C81 C 0.94836 0.78724 0.08911 0.0
C82 C 0.96318 0.91079 0.0437 0.0
C83 C 0.92161 0.85656 0.03756 0.0
O84 O 0.95277 0.7994 0.06713 0.0
O85 O 0.94123 0.8183 0.09937 0.0
O86 O 0.92466 0.83147 0.05718 0.0
O87 O 0.92951 0.8883 0.03111 0.0
C88 C 0.93557 0.94632 0.0972 0.0
O89 O 0.95924 0.92222 0.06604 0.0
O90 O 0.95685 0.87855 0.03214 0.0
In91 In 0.80804 0.86663 0.06595 0.0
O92 O 0.794 0.85811 0.03215 0.0
O93 O 0.78824 0.84235 0.07117 0.0
C94 C 0.83097 0.88133 0.04663 0.0
C95 C 0.8132 0.77741 0.08406 0.0
C96 C 0.80414 0.95335 0.08883 0.0
O97 O 0.82176 0.87388 0.03162 0.0
O98 O 0.82842 0.88227 0.07077 0.0
O99 O 0.80447 0.91422 0.1018 0.0
O100 O 0.8055 0.94854 0.06438 0.0
C101 C 0.78549 0.84259 0.04718 0.0
O102 O 0.81102 0.81258 0.09941 0.0
O103 O 0.81301 0.78791 0.06002 0.0
In104 In 0.05746 0.60209 0.81182 0.0
O105 O 0.0569 0.64172 0.85102 0.0
O106 O 0.06937 0.6677 0.82199 0.0
C107 C 0.0543 0.51376 0.83394 0.0
C108 C 0.03583 0.64097 0.79474 0.0
C109 C 0.07715 0.59453 0.77898 0.0
O110 O 0.06156 0.54562 0.84291 0.0
O111 O 0.04835 0.52649 0.8137 0.0
O112 O 0.07525 0.56585 0.7978 0.0
O113 O 0.06863 0.62551 0.77559 0.0
C114 C 0.06477 0.67345 0.84448 0.0
O115 O 0.04224 0.61317 0.78031 0.0
O116 O 0.04003 0.64649 0.81752 0.0
In117 In 0.18859 0.64307 0.8038 0.0
O118 O 0.19707 0.59829 0.83704 0.0
O119 O 0.17882 0.58083 0.82438 0.0
C120 C 0.19344 0.73139 0.8243 0.0
C121 C 0.20646 0.60152 0.77402 0.0
C122 C 0.16585 0.6566 0.78234 0.0
O123 O 0.19012 0.69544 0.83793 0.0
O124 O 0.19467 0.72269 0.80011 0.0
O125 O 0.17519 0.64605 0.7684 0.0
O126 O 0.1682 0.66185 0.80632 0.0
C127 C 0.18781 0.57044 0.83914 0.0
O128 O 0.19563 0.58448 0.77612 0.0
O129 O 0.20806 0.64182 0.78536 0.0
In130 In 0.05409 0.59741 0.42946 0.0
O131 O 0.04073 0.58506 0.46388 0.0
O132 O 0.03372 0.5793 0.425 0.0
C133 C 0.07613 0.60779 0.45417 0.0
C134 C 0.05683 0.50734 0.4105 0.0
C135 C 0.05249 0.68043 0.40128 0.0
O136 O 0.06634 0.62684 0.46339 0.0
O137 O 0.07467 0.58515 0.43301 0.0
O138 O 0.05767 0.64257 0.39256 0.0
O139 O 0.04801 0.67625 0.42401 0.0
C140 C 0.03161 0.57487 0.44918 0.0
O141 O 0.05493 0.54338 0.39556 0.0
O142 O 0.05741 0.51726 0.43462 0.0
In143 In 0.19043 0.65434 0.43614 0.0
O144 O 0.19684 0.71023 0.46618 0.0
O145 O 0.20827 0.64846 0.46067 0.0
C146 C 0.16658 0.6467 0.45175 0.0
C147 C 0.19082 0.72884 0.40186 0.0
C148 C 0.19529 0.56623 0.41478 0.0
O149 O 0.17543 0.64539 0.46813 0.0
O150 O 0.16991 0.65044 0.42815 0.0
O151 O 0.19827 0.60551 0.40375 0.0
O152 O 0.19007 0.57125 0.43673 0.0
C153 C 0.20693 0.68927 0.47154 0.0
O154 O 0.20035 0.7034 0.40646 0.0
O155 O 0.18113 0.71509 0.4135 0.0
In156 In 0.94834 0.3661 0.18963 0.0
O157 O 0.96272 0.35188 0.2222 0.0
O158 O 0.96718 0.33194 0.18307 0.0
C159 C 0.92722 0.38952 0.21515 0.0
C160 C 0.94016 0.28345 0.16729 0.0
C161 C 0.95326 0.45136 0.16584 0.0
O162 O 0.93604 0.36765 0.22658 0.0
O163 O 0.92938 0.40088 0.19167 0.0
O164 O 0.94819 0.416 0.15421 0.0
O165 O 0.9562 0.44328 0.18944 0.0
C166 C 0.97045 0.33222 0.20676 0.0
O167 O 0.94559 0.31619 0.15423 0.0
O168 O 0.93868 0.29306 0.1912 0.0
In169 In 0.81404 0.37079 0.19262 0.0
O170 O 0.80654 0.43387 0.21658 0.0
O171 O 0.79593 0.36908 0.21663 0.0
C172 C 0.83689 0.35969 0.2136 0.0
C173 C 0.81616 0.43855 0.15465 0.0
C174 C 0.80794 0.28134 0.17505 0.0
O175 O 0.8279 0.37629 0.22685 0.0
O176 O 0.83419 0.34788 0.19041 0.0
O177 O 0.80611 0.31928 0.16171 0.0
O178 O 0.81256 0.28854 0.19745 0.0
C179 C 0.79667 0.413 0.22356 0.0
O180 O 0.80614 0.41614 0.15899 0.0
O181 O 0.82523 0.42448 0.16827 0.0
In182 In 0.94282 0.35374 0.55824 0.0
O183 O 0.94871 0.41028 0.52838 0.0
O184 O 0.96045 0.34893 0.53285 0.0
C185 C 0.91904 0.34789 0.54162 0.0
C186 C 0.94415 0.42509 0.59448 0.0
C187 C 0.94835 0.26364 0.57588 0.0
O188 O 0.92764 0.36398 0.52717 0.0
O189 O 0.92251 0.33363 0.56393 0.0
O190 O 0.95026 0.30149 0.58925 0.0
O191 O 0.94398 0.27125 0.55328 0.0
C192 C 0.95877 0.38986 0.52223 0.0
O193 O 0.93398 0.4086 0.58609 0.0
O194 O 0.95363 0.40338 0.58595 0.0
In195 In 0.80277 0.38406 0.55045 0.0
O196 O 0.79343 0.3671 0.51133 0.0
O197 O 0.78188 0.3784 0.54462 0.0
C198 C 0.82713 0.39107 0.53897 0.0
C199 C 0.80304 0.29483 0.57182 0.0
C200 C 0.79872 0.47241 0.57129 0.0
O201 O 0.81893 0.38879 0.52122 0.0
O202 O 0.82299 0.39075 0.5621 0.0
O203 O 0.79698 0.43358 0.58402 0.0
O204 O 0.80219 0.46657 0.54783 0.0
C205 C 0.78258 0.36613 0.52087 0.0
O206 O 0.80171 0.33241 0.58582 0.0
O207 O 0.80452 0.30289 0.54777 0.0
In208 In 0.55441 0.14686 0.80723 0.0
O209 O 0.54213 0.15507 0.77057 0.0
O210 O 0.53347 0.15079 0.80799 0.0
C211 C 0.57832 0.14756 0.79142 0.0
C212 C 0.55404 0.2383 0.82519 0.0
C213 C 0.55287 0.06032 0.83195 0.0
O214 O 0.56967 0.13448 0.77609 0.0
O215 O 0.57483 0.15892 0.81419 0.0
O216 O 0.55143 0.10029 0.84377 0.0
O217 O 0.55502 0.06406 0.8077 0.0
C218 C 0.53214 0.15753 0.78372 0.0
O219 O 0.55443 0.2022 0.84059 0.0
O220 O 0.55405 0.22787 0.80113 0.0
In221 In 0.69364 0.13117 0.80943 0.0
O222 O 0.6962 0.08158 0.84472 0.0
O223 O 0.69159 0.04984 0.80778 0.0
C224 C 0.69494 0.21765 0.8341 0.0
C225 C 0.71577 0.11273 0.78696 0.0
C226 C 0.6702 0.13188 0.79047 0.0
O227 O 0.69118 0.17951 0.84529 0.0
O228 O 0.69806 0.21227 0.81043 0.0
O229 O 0.67914 0.14886 0.77712 0.0
O230 O 0.67319 0.11605 0.81272 0.0
C231 C 0.69414 0.04329 0.83166 0.0
O232 O 0.70595 0.11676 0.77338 0.0
O233 O 0.71441 0.12166 0.811 0.0
In234 In 0.5582 0.13122 0.44748 0.0
O235 O 0.56934 0.08265 0.41994 0.0
O236 O 0.5497 0.0808 0.41681 0.0
C237 C 0.55688 0.21972 0.42471 0.0
C238 C 0.53853 0.09866 0.47558 0.0
C239 C 0.57893 0.13278 0.47767 0.0
O240 O 0.56247 0.18418 0.41443 0.0
O241 O 0.55179 0.21063 0.44651 0.0
O242 O 0.57327 0.1711 0.47113 0.0
O243 O 0.57373 0.09421 0.47022 0.0
C244 C 0.55996 0.06363 0.40931 0.0
O245 O 0.5496 0.08715 0.48072 0.0
O246 O 0.53739 0.12948 0.45747 0.0
In247 In 0.69151 0.11866 0.43459 0.0
O248 O 0.70441 0.13859 0.46921 0.0
O249 O 0.71018 0.15465 0.43029 0.0
C250 C 0.66895 0.10844 0.45708 0.0
C251 C 0.68715 0.19675 0.40472 0.0
C252 C 0.69597 0.02964 0.41457 0.0
O253 O 0.67849 0.11805 0.47068 0.0
O254 O 0.67104 0.1027 0.43301 0.0
O255 O 0.69047 0.06289 0.40225 0.0
O256 O 0.69954 0.04119 0.43733 0.0
C257 C 0.71241 0.15827 0.4544 0.0
O258 O 0.69295 0.16003 0.39631 0.0
O259 O 0.6832 0.19334 0.42793 0.0
In260 In 0.44314 0.86911 0.20297 0.0
O261 O 0.45302 0.84238 0.23998 0.0
O262 O 0.46394 0.85501 0.20592 0.0
C263 C 0.42043 0.89248 0.22118 0.0
C264 C 0.4385 0.78387 0.17884 0.0
C265 C 0.44856 0.95462 0.18024 0.0
O266 O 0.42903 0.87881 0.23642 0.0
O267 O 0.42348 0.89571 0.19742 0.0
O268 O 0.44495 0.91793 0.16744 0.0
O269 O 0.44969 0.94795 0.20467 0.0
C270 C 0.46359 0.84008 0.22924 0.0
O271 O 0.44482 0.81695 0.16806 0.0
O272 O 0.4344 0.79445 0.20118 0.0
In273 In 0.30737 0.87422 0.18665 0.0
O274 O 0.30128 0.93669 0.21251 0.0
O275 O 0.28853 0.87857 0.20813 0.0
C276 C 0.32989 0.86266 0.20896 0.0
C277 C 0.30955 0.94272 0.14912 0.0
C278 C 0.30161 0.78408 0.16933 0.0
O279 O 0.3206 0.87742 0.22189 0.0
O280 O 0.32767 0.85275 0.18528 0.0
O281 O 0.3006 0.82143 0.15516 0.0
O282 O 0.30504 0.79232 0.19256 0.0
C283 C 0.29059 0.92046 0.21728 0.0
O284 O 0.29938 0.92187 0.15409 0.0
O285 O 0.31872 0.92648 0.16174 0.0
In286 In 0.44193 0.88324 0.56026 0.0
O287 O 0.45571 0.89422 0.52611 0.0
O288 O 0.4615 0.9106 0.565 0.0
C289 C 0.41909 0.86615 0.54096 0.0
C290 C 0.43614 0.97108 0.57968 0.0
C291 C 0.44673 0.79629 0.58228 0.0
O292 O 0.42806 0.87784 0.52612 0.0
O293 O 0.42181 0.86223 0.56493 0.0
O294 O 0.44606 0.83495 0.5956 0.0
O295 O 0.44526 0.8017 0.55788 0.0
C296 C 0.46413 0.91106 0.54095 0.0
O297 O 0.4389 0.93578 0.59451 0.0
O298 O 0.43599 0.96125 0.55556 0.0
In299 In 0.30516 0.88182 0.56154 0.0
O300 O 0.31047 0.83499 0.597 0.0
O301 O 0.3064 0.80011 0.56076 0.0
C302 C 0.30057 0.96911 0.58311 0.0
C303 C 0.28259 0.86151 0.54147 0.0
C304 C 0.32803 0.8925 0.54078 0.0
O305 O 0.29996 0.93007 0.59608 0.0
O306 O 0.30333 0.96411 0.55919 0.0
O307 O 0.31891 0.87894 0.5269 0.0
O308 O 0.32546 0.90133 0.5644 0.0
C309 C 0.30937 0.79559 0.58448 0.0
O310 O 0.2917 0.87242 0.52682 0.0
O311 O 0.28484 0.86362 0.56567 0.0
In312 In 0.56112 0.63761 0.31519 0.0
O313 O 0.54708 0.64588 0.28149 0.0
O314 O 0.54106 0.65815 0.32078 0.0
C315 C 0.58409 0.63375 0.29425 0.0
C316 C 0.5632 0.72815 0.33386 0.0
C317 C 0.5588 0.55087 0.33957 0.0
O318 O 0.57457 0.6251 0.28037 0.0
O319 O 0.58188 0.64192 0.31807 0.0
O320 O 0.56223 0.5889 0.35136 0.0
O321 O 0.55646 0.55663 0.31552 0.0
C322 C 0.53841 0.65924 0.29673 0.0
O323 O 0.56179 0.69193 0.34892 0.0
O324 O 0.56377 0.71815 0.30975 0.0
In325 In 0.69789 0.61524 0.30437 0.0
O326 O 0.69846 0.56332 0.33899 0.0
O327 O 0.6934 0.5356 0.30135 0.0
C328 C 0.70002 0.70075 0.32959 0.0
C329 C 0.72034 0.59305 0.28425 0.0
C330 C 0.67472 0.62083 0.28464 0.0
O331 O 0.69675 0.66207 0.3409 0.0
O332 O 0.70225 0.69646 0.3054 0.0
O333 O 0.68403 0.63226 0.27067 0.0
O334 O 0.67724 0.60925 0.30789 0.0
C335 C 0.69515 0.52715 0.32537 0.0
O336 O 0.71099 0.60029 0.26961 0.0
O337 O 0.71837 0.59979 0.3083 0.0
In338 In 0.55376 0.63968 0.93867 0.0
O339 O 0.54824 0.58798 0.97135 0.0
O340 O 0.53526 0.64278 0.96129 0.0
C341 C 0.577 0.62715 0.95729 0.0
C342 C 0.55125 0.57411 0.89985 0.0
C343 C 0.5514 0.732 0.92017 0.0
O344 O 0.56911 0.65309 0.96924 0.0
O345 O 0.57313 0.60846 0.93627 0.0
O346 O 0.54587 0.69631 0.91006 0.0
O347 O 0.55788 0.72148 0.93991 0.0
C348 C 0.53755 0.60547 0.97483 0.0
O349 O 0.54261 0.58385 0.9157 0.0
O350 O 0.5609 0.59967 0.90257 0.0
In351 In 0.69274 0.63315 0.94501 0.0
O352 O 0.70023 0.67773 0.91044 0.0
O353 O 0.68697 0.70984 0.93613 0.0
C354 C 0.69504 0.5454 0.92204 0.0
C355 C 0.7115 0.66062 0.97681 0.0
C356 C 0.66878 0.62785 0.95996 0.0
O357 O 0.69202 0.58321 0.90962 0.0
O358 O 0.69713 0.55178 0.94616 0.0
O359 O 0.67741 0.61394 0.97514 0.0
O360 O 0.67236 0.64246 0.93785 0.0
C361 C 0.69379 0.71463 0.91626 0.0
O362 O 0.70023 0.66815 0.98243 0.0
O363 O 0.71322 0.63613 0.95626 0.0
In364 In 0.43902 0.37901 0.68711 0.0
O365 O 0.44665 0.31521 0.71036 0.0
O366 O 0.4574 0.37959 0.71046 0.0
C367 C 0.41655 0.39339 0.70942 0.0
C368 C 0.43566 0.31067 0.64982 0.0
C369 C 0.44524 0.46782 0.66867 0.0
O370 O 0.42548 0.37462 0.72201 0.0
O371 O 0.41913 0.40549 0.68622 0.0
O372 O 0.44671 0.42958 0.65535 0.0
O373 O 0.44104 0.46111 0.69147 0.0
C374 C 0.4566 0.33556 0.71717 0.0
O375 O 0.44585 0.33267 0.65277 0.0
O376 O 0.42702 0.32557 0.66439 0.0
In377 In 0.30283 0.38259 0.69277 0.0
O378 O 0.30809 0.42864 0.65704 0.0
O379 O 0.30522 0.46388 0.69373 0.0
C380 C 0.29813 0.29462 0.67218 0.0
C381 C 0.28041 0.40739 0.71208 0.0
C382 C 0.32571 0.36946 0.7129 0.0
O383 O 0.2977 0.3331 0.6587 0.0
O384 O 0.30061 0.30063 0.69617 0.0
O385 O 0.31668 0.38219 0.7273 0.0
O386 O 0.32304 0.36294 0.68912 0.0
C387 C 0.3078 0.46804 0.66977 0.0
O388 O 0.28935 0.39586 0.72708 0.0
O389 O 0.2827 0.40325 0.68796 0.0
In390 In 0.44676 0.37353 0.07441 0.0
O391 O 0.46047 0.38538 0.04023 0.0
O392 O 0.46531 0.4116 0.07793 0.0
C393 C 0.42674 0.36246 0.0429 0.0
C394 C 0.43952 0.44724 0.10573 0.0
C395 C 0.44999 0.28708 0.09837 0.0
O396 O 0.43009 0.33068 0.05924 0.0
O397 O 0.434 0.39833 0.04116 0.0
O398 O 0.44277 0.31959 0.10694 0.0
O399 O 0.45575 0.29824 0.07763 0.0
C400 C 0.46819 0.40854 0.05412 0.0
O401 O 0.43452 0.43841 0.08397 0.0
O402 O 0.44785 0.41742 0.11241 0.0
In403 In 0.311 0.3724 0.05713 0.0
O404 O 0.3024 0.35455 0.01738 0.0
O405 O 0.2902 0.36885 0.04922 0.0
C406 C 0.33524 0.38315 0.04536 0.0
C407 C 0.31182 0.28186 0.07712 0.0
C408 C 0.30629 0.45828 0.08053 0.0
O409 O 0.32685 0.38576 0.02801 0.0
O410 O 0.33132 0.37634 0.06839 0.0
O411 O 0.30419 0.41806 0.09165 0.0
O412 O 0.31057 0.45512 0.05753 0.0
C413 C 0.29134 0.35563 0.02571 0.0
O414 O 0.30977 0.31844 0.0915 0.0
O415 O 0.31362 0.29152 0.05334 0.0
C416 C 0.10209 0.13234 0.25012 0.0
C417 C 0.09847 0.09455 0.26687 0.0
C418 C 0.11474 0.14392 0.24681 0.0
C419 C 0.12388 0.11664 0.26035 0.0
C420 C 0.12026 0.07544 0.27513 0.0
C421 C 0.10759 0.06515 0.27836 0.0
C422 C 0.1182 0.18794 0.23079 0.0
C423 C 0.1297 0.04472 0.28948 0.0
C424 C 0.15887 0.13004 0.25186 0.0
C425 C 0.16191 0.15635 0.27449 0.0
C426 C 0.1464 0.11902 0.24594 0.0
C427 C 0.13684 0.13519 0.26293 0.0
C428 C 0.13986 0.16496 0.28465 0.0
C429 C 0.15236 0.17484 0.29025 0.0
C430 C 0.14356 0.08728 0.22261 0.0
C431 C 0.12996 0.18375 0.30306 0.0
H432 H 0.09505 0.15524 0.24123 0.0
H433 H 0.10481 0.03562 0.29114 0.0
H434 H 0.12033 0.21861 0.24416 0.0
H435 H 0.12664 0.18086 0.2189 0.0
H436 H 0.11052 0.19924 0.21757 0.0
H437 H 0.12559 0.01039 0.29695 0.0
H438 H 0.13764 0.03568 0.27648 0.0
H439 H 0.13344 0.06546 0.30638 0.0
H440 H 0.16625 0.11553 0.23969 0.0
H441 H 0.15469 0.19557 0.30763 0.0
H442 H 0.1353 0.10092 0.21186 0.0
H443 H 0.14138 0.04999 0.22946 0.0
H444 H 0.15156 0.08519 0.20886 0.0
H445 H 0.12233 0.20123 0.29187 0.0
H446 H 0.13372 0.21047 0.31732 0.0
H447 H 0.12588 0.15297 0.31415 0.0
C448 C 0.15666 0.09298 0.98268 0.0
C449 C 0.16156 0.13677 0.97337 0.0
C450 C 0.14377 0.08812 0.98686 0.0
C451 C 0.1358 0.12813 0.98177 0.0
C452 C 0.141 0.17386 0.97549 0.0
C453 C 0.15382 0.17744 0.97109 0.0
C454 C 0.1386 0.03887 0.99382 0.0
C455 C 0.13293 0.21771 0.97027 0.0
C456 C 0.10581 0.10622 0.94505 0.0
C457 C 0.09675 0.11444 0.96429 0.0
C458 C 0.11849 0.10878 0.95091 0.0
C459 C 0.12231 0.12013 0.97673 0.0
C460 C 0.11324 0.1275 0.99649 0.0
C461 C 0.10051 0.12454 0.99003 0.0
C462 C 0.1278 0.10053 0.92914 0.0
C463 C 0.11697 0.13966 0.02421 0.0
H464 H 0.16268 0.06152 0.98437 0.0
H465 H 0.15768 0.21146 0.9641 0.0
H466 H 0.13067 0.0422 0.0076 0.0
H467 H 0.13512 0.02095 0.97578 0.0
H468 H 0.14582 0.01512 0.00271 0.0
H469 H 0.13841 0.25193 0.97048 0.0
H470 H 0.12853 0.21399 0.9507 0.0
H471 H 0.12538 0.22054 0.98497 0.0
H472 H 0.10299 0.09792 0.92515 0.0
H473 H 0.09354 0.13059 0.00501 0.0
H474 H 0.13455 0.07194 0.93485 0.0
H475 H 0.13314 0.13437 0.92554 0.0
H476 H 0.12329 0.08947 0.9105 0.0
H477 H 0.12434 0.1145 0.03115 0.0
H478 H 0.10896 0.13788 0.03793 0.0
H479 H 0.12089 0.17692 0.02484 0.0
C480 C 0.90254 0.88672 0.72771 0.0
C481 C 0.9073 0.85896 0.70698 0.0
C482 C 0.88962 0.89195 0.7312 0.0
C483 C 0.88135 0.86852 0.71365 0.0
C484 C 0.88616 0.83856 0.69352 0.0
C485 C 0.89906 0.83438 0.69036 0.0
C486 C 0.88484 0.92427 0.75284 0.0
C487 C 0.87769 0.81255 0.67451 0.0
C488 C 0.84658 0.85322 0.72431 0.0
C489 C 0.84187 0.88813 0.70696 0.0
C490 C 0.85948 0.84812 0.72805 0.0
C491 C 0.86777 0.87893 0.71426 0.0
C492 C 0.86297 0.91636 0.69817 0.0
C493 C 0.85009 0.92032 0.69462 0.0
C494 C 0.86425 0.80782 0.74539 0.0
C495 C 0.87145 0.95036 0.68331 0.0
H496 H 0.90889 0.90567 0.74065 0.0
H497 H 0.90269 0.81239 0.67448 0.0
H498 H 0.88079 0.95774 0.74422 0.0
H499 H 0.87732 0.9058 0.76391 0.0
H500 H 0.89232 0.93492 0.76671 0.0
H501 H 0.88287 0.7874 0.66143 0.0
H502 H 0.87054 0.79147 0.68528 0.0
H503 H 0.87275 0.83954 0.66217 0.0
H504 H 0.84023 0.82832 0.7339 0.0
H505 H 0.84648 0.94777 0.68142 0.0
H506 H 0.8718 0.82121 0.75833 0.0
H507 H 0.86822 0.77852 0.73303 0.0
H508 H 0.85676 0.79201 0.75771 0.0
H509 H 0.87861 0.96575 0.69655 0.0
H510 H 0.86626 0.98075 0.67404 0.0
H511 H 0.87637 0.9299 0.66771 0.0
C512 C 0.90075 0.81789 0.03452 0.0
C513 C 0.90878 0.85553 0.0271 0.0
C514 C 0.88785 0.82229 0.03128 0.0
C515 C 0.88287 0.86553 0.0205 0.0
C516 C 0.89102 0.90137 0.01042 0.0
C517 C 0.90393 0.89591 0.01381 0.0
C518 C 0.87953 0.78277 0.04193 0.0
C519 C 0.8861 0.94763 0.99843 0.0
C520 C 0.8476 0.86626 0.013 0.0
C521 C 0.844 0.88451 0.0375 0.0
C522 C 0.86028 0.86216 0.00636 0.0
C523 C 0.86946 0.87678 0.02466 0.0
C524 C 0.86577 0.89815 0.04868 0.0
C525 C 0.85312 0.90162 0.05479 0.0
C526 C 0.86382 0.83965 0.98047 0.0
C527 C 0.87522 0.91482 0.06869 0.0
H528 H 0.90448 0.78633 0.04452 0.0
H529 H 0.91009 0.92507 0.00792 0.0
H530 H 0.87521 0.79532 0.06048 0.0
H531 H 0.87191 0.77457 0.02797 0.0
H532 H 0.88475 0.74877 0.04598 0.0
H533 H 0.89333 0.96653 0.98669 0.0
H534 H 0.87794 0.94022 0.98575 0.0
H535 H 0.88302 0.9725 0.01426 0.0
H536 H 0.84057 0.85297 -0.00043 0.0
H537 H 0.85037 0.91627 0.07363 0.0
H538 H 0.86697 0.80175 0.98376 0.0
H539 H 0.87165 0.85968 0.97132 0.0
H540 H 0.85586 0.83894 0.9666 0.0
H541 H 0.8804 0.88299 0.07636 0.0
H542 H 0.87082 0.93393 0.08548 0.0
H543 H 0.88208 0.93961 0.05951 0.0
C544 C 0.09278 0.6402 0.75228 0.0
C545 C 0.08954 0.59855 0.76657 0.0
C546 C 0.10533 0.65133 0.74728 0.0
C547 C 0.11476 0.62026 0.75701 0.0
C548 C 0.11142 0.57544 0.76869 0.0
C549 C 0.09884 0.56506 0.77323 0.0
C550 C 0.10848 0.69863 0.73393 0.0
C551 C 0.12115 0.54088 0.77912 0.0
C552 C 0.14972 0.63526 0.7486 0.0
C553 C 0.15287 0.65637 0.77271 0.0
C554 C 0.13719 0.62631 0.74209 0.0
C555 C 0.12772 0.6384 0.76026 0.0
C556 C 0.13086 0.66308 0.78368 0.0
C557 C 0.14337 0.67189 0.78953 0.0
C558 C 0.13422 0.60111 0.71662 0.0
C559 C 0.12108 0.67705 0.80361 0.0
H560 H 0.08563 0.66604 0.7468 0.0
H561 H 0.09638 0.53243 0.78394 0.0
H562 H 0.11082 0.72626 0.74897 0.0
H563 H 0.11669 0.6944 0.72095 0.0
H564 H 0.10053 0.7125 0.72221 0.0
H565 H 0.11713 0.505 0.78436 0.0
H566 H 0.12863 0.53524 0.7645 0.0
H567 H 0.12547 0.55671 0.79692 0.0
H568 H 0.15703 0.62335 0.73546 0.0
H569 H 0.14575 0.68878 0.80806 0.0
H570 H 0.12549 0.61541 0.70794 0.0
H571 H 0.13288 0.56175 0.72031 0.0
H572 H 0.14187 0.60532 0.70218 0.0
H573 H 0.11356 0.69832 0.79417 0.0
H574 H 0.12499 0.69888 0.81996 0.0
H575 H 0.11682 0.64375 0.81195 0.0
C576 C 0.09283 0.65649 0.47606 0.0
C577 C 0.08861 0.61232 0.4658 0.0
C578 C 0.10562 0.66414 0.48038 0.0
C579 C 0.11421 0.62655 0.47447 0.0
C580 C 0.10974 0.58026 0.46697 0.0
C581 C 0.097 0.57389 0.46251 0.0
C582 C 0.11001 0.71382 0.48871 0.0
C583 C 0.11849 0.53887 0.46082 0.0
C584 C 0.14433 0.65508 0.4397 0.0
C585 C 0.15325 0.64514 0.45898 0.0
C586 C 0.13161 0.6517 0.44507 0.0
C587 C 0.12762 0.63772 0.4704 0.0
C588 C 0.13656 0.62954 0.49035 0.0
C589 C 0.14932 0.6334 0.4844 0.0
C590 C 0.12244 0.66105 0.42316 0.0
C591 C 0.13267 0.61479 0.5176 0.0
H592 H 0.08632 0.68621 0.4786 0.0
H593 H 0.09368 0.53948 0.45487 0.0
H594 H 0.11789 0.71106 0.50265 0.0
H595 H 0.11333 0.73403 0.47125 0.0
H596 H 0.10241 0.73514 0.49795 0.0
H597 H 0.11353 0.50356 0.45947 0.0
H598 H 0.12313 0.54588 0.44177 0.0
H599 H 0.12585 0.53588 0.47596 0.0
H600 H 0.14729 0.66487 0.42009 0.0
H601 H 0.1562 0.62603 0.49941 0.0
H602 H 0.11532 0.68775 0.42948 0.0
H603 H 0.11753 0.62685 0.41814 0.0
H604 H 0.12703 0.67505 0.40518 0.0
H605 H 0.12472 0.63715 0.52443 0.0
H606 H 0.14043 0.61825 0.53185 0.0
H607 H 0.12956 0.57638 0.51739 0.0
C608 C 0.91021 0.3608 0.2448 0.0
C609 C 0.91454 0.39393 0.22605 0.0
C610 C 0.89739 0.35576 0.24962 0.0
C611 C 0.88882 0.38464 0.23537 0.0
C612 C 0.8933 0.42167 0.21859 0.0
C613 C 0.90611 0.42573 0.21409 0.0
C614 C 0.89301 0.31649 0.26802 0.0
C615 C 0.88453 0.45382 0.20328 0.0
C616 C 0.85885 0.33338 0.20856 0.0
C617 C 0.84991 0.35896 0.22295 0.0
C618 C 0.87156 0.3388 0.2138 0.0
C619 C 0.87545 0.37087 0.2339 0.0
C620 C 0.86642 0.39405 0.24981 0.0
C621 C 0.85371 0.38777 0.24415 0.0
C622 C 0.88083 0.31283 0.1965 0.0
C623 C 0.87018 0.42802 0.2716 0.0
H624 H 0.91672 0.33615 0.25412 0.0
H625 H 0.90945 0.45179 0.1998 0.0
H626 H 0.88486 0.32885 0.2796 0.0
H627 H 0.89007 0.28434 0.25647 0.0
H628 H 0.9005 0.30499 0.28168 0.0
H629 H 0.88944 0.48484 0.19396 0.0
H630 H 0.87999 0.43215 0.18765 0.0
H631 H 0.8771 0.46829 0.21616 0.0
H632 H 0.85594 0.3106 0.19235 0.0
H633 H 0.84681 0.40756 0.25538 0.0
H634 H 0.88792 0.29394 0.20859 0.0
H635 H 0.88578 0.3397 0.18409 0.0
H636 H 0.87632 0.28575 0.18348 0.0
H637 H 0.87821 0.41327 0.28269 0.0
H638 H 0.86238 0.43479 0.28541 0.0
H639 H 0.87307 0.46334 0.2631 0.0
C640 C 0.89721 0.3195 0.54668 0.0
C641 C 0.90575 0.35046 0.53448 0.0
C642 C 0.88437 0.3259 0.54324 0.0
C643 C 0.87998 0.36513 0.52783 0.0
C644 C 0.8886 0.39522 0.51452 0.0
C645 C 0.90142 0.38712 0.51776 0.0
C646 C 0.87551 0.29219 0.55725 0.0
C647 C 0.88431 0.43795 0.49834 0.0
C648 C 0.84538 0.36503 0.51207 0.0
C649 C 0.84061 0.39042 0.53364 0.0
C650 C 0.85827 0.35777 0.5093 0.0
C651 C 0.8665 0.37745 0.5282 0.0
C652 C 0.8617 0.40579 0.54904 0.0
C653 C 0.84881 0.41129 0.55172 0.0
C654 C 0.86299 0.32661 0.48711 0.0
C655 C 0.87016 0.42853 0.56924 0.0
H656 H 0.90057 0.29093 0.5595 0.0
H657 H 0.90803 0.41135 0.50847 0.0
H658 H 0.87084 0.31203 0.57341 0.0
H659 H 0.86816 0.27933 0.54364 0.0
H660 H 0.88034 0.2601 0.56566 0.0
H661 H 0.89201 0.45408 0.48673 0.0
H662 H 0.87674 0.42705 0.48479 0.0
H663 H 0.88049 0.46636 0.51151 0.0
H664 H 0.83902 0.34854 0.49821 0.0
H665 H 0.84511 0.4312 0.56831 0.0
H666 H 0.86655 0.29178 0.4951 0.0
H667 H 0.87085 0.34466 0.47695 0.0
H668 H 0.8556 0.31845 0.47255 0.0
H669 H 0.87448 0.39965 0.58137 0.0
H670 H 0.86509 0.4538 0.58243 0.0
H671 H 0.8778 0.44875 0.55951 0.0
C672 C 0.65223 0.16552 0.76458 0.0
C673 C 0.65708 0.13075 0.78182 0.0
C674 C 0.6393 0.16889 0.76034 0.0
C675 C 0.63116 0.13646 0.77351 0.0
C676 C 0.63619 0.09889 0.78919 0.0
C677 C 0.64905 0.09672 0.79325 0.0
C678 C 0.6343 0.20924 0.74335 0.0
C679 C 0.62794 0.06312 0.8034 0.0
C680 C 0.59991 0.17521 0.80006 0.0
C681 C 0.59163 0.14938 0.78406 0.0
C682 C 0.61275 0.17399 0.79557 0.0
C683 C 0.61752 0.14581 0.77466 0.0
C684 C 0.60917 0.12178 0.75749 0.0
C685 C 0.59627 0.12397 0.76235 0.0
C686 C 0.62126 0.20056 0.81428 0.0
C687 C 0.61388 0.09153 0.73494 0.0
H688 H 0.65843 0.19179 0.75566 0.0
H689 H 0.6528 0.06926 0.80629 0.0
H690 H 0.62664 0.19591 0.7307 0.0
H691 H 0.63045 0.23837 0.75599 0.0
H692 H 0.64167 0.22528 0.73078 0.0
H693 H 0.63332 0.03274 0.81215 0.0
H694 H 0.62288 0.08211 0.81935 0.0
H695 H 0.62089 0.04776 0.78988 0.0
H696 H 0.59637 0.19557 0.81664 0.0
H697 H 0.58989 0.10416 0.74986 0.0
H698 H 0.62812 0.22272 0.8033 0.0
H699 H 0.62654 0.17384 0.82617 0.0
H700 H 0.61606 0.22478 0.82781 0.0
H701 H 0.62138 0.11088 0.72426 0.0
H702 H 0.60633 0.08227 0.72093 0.0
H703 H 0.61789 0.05723 0.7426 0.0
C704 C 0.64624 0.10026 0.44985 0.0
C705 C 0.65607 0.10839 0.46735 0.0
C706 C 0.63385 0.105 0.45776 0.0
C707 C 0.63112 0.11757 0.48404 0.0
C708 C 0.64097 0.12392 0.50218 0.0
C709 C 0.65339 0.11962 0.49355 0.0
C710 C 0.62367 0.09785 0.43766 0.0
C711 C 0.63843 0.13651 0.53043 0.0
C712 C 0.59923 0.17423 0.48531 0.0
C713 C 0.59181 0.13266 0.48783 0.0
C714 C 0.61225 0.171 0.48699 0.0
C715 C 0.61789 0.12524 0.49159 0.0
C716 C 0.61033 0.08463 0.49755 0.0
C717 C 0.59736 0.08873 0.49539 0.0
C718 C 0.61994 0.21532 0.48067 0.0
C719 C 0.61594 0.03551 0.50329 0.0
H720 H 0.64821 0.09143 0.42958 0.0
H721 H 0.66096 0.12597 0.50715 0.0
H722 H 0.61727 0.06861 0.44406 0.0
H723 H 0.61812 0.13165 0.43572 0.0
H724 H 0.6274 0.08814 0.41804 0.0
H725 H 0.64686 0.13251 0.54282 0.0
H726 H 0.63519 0.17468 0.53176 0.0
H727 H 0.63094 0.11315 0.53849 0.0
H728 H 0.59499 0.20839 0.47965 0.0
H729 H 0.59164 0.05659 0.49776 0.0
H730 H 0.62348 0.21234 0.46031 0.0
H731 H 0.6281 0.21797 0.49388 0.0
H732 H 0.61441 0.2493 0.48226 0.0
H733 H 0.6189 0.01831 0.48464 0.0
H734 H 0.60916 0.011 0.51302 0.0
H735 H 0.62429 0.03903 0.51592 0.0
C736 C 0.35181 0.8347 0.20668 0.0
C737 C 0.34268 0.86219 0.21941 0.0
C738 C 0.36441 0.84004 0.21301 0.0
C739 C 0.36799 0.87442 0.23223 0.0
C740 C 0.35874 0.89997 0.2464 0.0
C741 C 0.34613 0.89329 0.23991 0.0
C742 C 0.37395 0.81127 0.19777 0.0
C743 C 0.36215 0.93695 0.26698 0.0
C744 C 0.40235 0.86697 0.24863 0.0
C745 C 0.4073 0.89715 0.22914 0.0
C746 C 0.3894 0.86174 0.25141 0.0
C747 C 0.38135 0.88785 0.23454 0.0
C748 C 0.38637 0.92198 0.21669 0.0
C749 C 0.3993 0.92584 0.21404 0.0
C750 C 0.38442 0.82507 0.2707 0.0
C751 C 0.37813 0.95139 0.1987 0.0
H752 H 0.34914 0.81025 0.191 0.0
H753 H 0.33907 0.91469 0.24975 0.0
H754 H 0.37911 0.83594 0.18445 0.0
H755 H 0.38082 0.79454 0.21125 0.0
H756 H 0.36962 0.7821 0.18581 0.0
H757 H 0.35405 0.94687 0.27939 0.0
H758 H 0.36973 0.92317 0.27973 0.0
H759 H 0.36561 0.97036 0.25725 0.0
H760 H 0.40855 0.84455 0.26024 0.0
H761 H 0.40315 0.94947 0.19909 0.0
H762 H 0.38172 0.79157 0.26003 0.0
H763 H 0.376 0.83907 0.28072 0.0
H764 H 0.39148 0.81521 0.28569 0.0
H765 H 0.37408 0.92722 0.18354 0.0
H766 H 0.38334 0.98086 0.18868 0.0
H767 H 0.37031 0.96777 0.20979 0.0
C768 C 0.3453 0.86084 0.51257 0.0
C769 C 0.34104 0.89374 0.5315 0.0
C770 C 0.35814 0.85485 0.50803 0.0
C771 C 0.36678 0.88293 0.52254 0.0
C772 C 0.36239 0.91912 0.53996 0.0
C773 C 0.34959 0.92372 0.54439 0.0
C774 C 0.36243 0.81593 0.4893 0.0
C775 C 0.37123 0.95056 0.5555 0.0
C776 C 0.39759 0.83542 0.54704 0.0
C777 C 0.40605 0.86234 0.53208 0.0
C778 C 0.38477 0.83865 0.54251 0.0
C779 C 0.38026 0.87034 0.52281 0.0
C780 C 0.38881 0.89492 0.50636 0.0
C781 C 0.40167 0.89037 0.51109 0.0
C782 C 0.37602 0.81098 0.56022 0.0
C783 C 0.3844 0.92901 0.48517 0.0
H784 H 0.33869 0.83747 0.50265 0.0
H785 H 0.34628 0.94953 0.55886 0.0
H786 H 0.37035 0.8289 0.47728 0.0
H787 H 0.3657 0.78398 0.50063 0.0
H788 H 0.35482 0.80396 0.47607 0.0
H789 H 0.36636 0.9808 0.56563 0.0
H790 H 0.37601 0.92808 0.57048 0.0
H791 H 0.37849 0.96612 0.54252 0.0
H792 H 0.40099 0.81333 0.56312 0.0
H793 H 0.4082 0.91136 0.49954 0.0
H794 H 0.36871 0.79254 0.54856 0.0
H795 H 0.37131 0.83672 0.5737 0.0
H796 H 0.38097 0.78333 0.57218 0.0
H797 H 0.37645 0.91317 0.47428 0.0
H798 H 0.39195 0.93786 0.47109 0.0
H799 H 0.38114 0.96334 0.49426 0.0
C800 C 0.65387 0.58382 0.28656 0.0
C801 C 0.66176 0.61849 0.27528 0.0
C802 C 0.64102 0.5854 0.28262 0.0
C803 C 0.63585 0.62305 0.2672 0.0
C804 C 0.64387 0.65555 0.25374 0.0
C805 C 0.65682 0.65281 0.2579 0.0
C806 C 0.63291 0.54954 0.29714 0.0
C807 C 0.63873 0.69562 0.23676 0.0
C808 C 0.60068 0.61125 0.26149 0.0
C809 C 0.59695 0.63623 0.28408 0.0
C810 C 0.61334 0.60951 0.25426 0.0
C811 C 0.62232 0.63355 0.26996 0.0
C812 C 0.61837 0.66185 0.29157 0.0
C813 C 0.60578 0.66258 0.29839 0.0
C814 C 0.61715 0.57946 0.23091 0.0
C815 C 0.62755 0.68857 0.30877 0.0
H816 H 0.65773 0.5566 0.29961 0.0
H817 H 0.66294 0.67944 0.24903 0.0
H818 H 0.62815 0.56833 0.31356 0.0
H819 H 0.62563 0.53462 0.28403 0.0
H820 H 0.63838 0.51885 0.30534 0.0
H821 H 0.64589 0.70998 0.22311 0.0
H822 H 0.63062 0.68274 0.22526 0.0
H823 H 0.63552 0.72593 0.2494 0.0
H824 H 0.59384 0.59122 0.25024 0.0
H825 H 0.6029 0.68287 0.31556 0.0
H826 H 0.62077 0.54391 0.23775 0.0
H827 H 0.62469 0.59759 0.21975 0.0
H828 H 0.60918 0.57258 0.21757 0.0
H829 H 0.63322 0.66193 0.31989 0.0
H830 H 0.62286 0.71299 0.32301 0.0
H831 H 0.634 0.71057 0.29667 0.0
C832 C 0.65055 0.59959 0.98692 0.0
C833 C 0.65545 0.62859 0.96687 0.0
C834 C 0.6376 0.59743 0.99116 0.0
C835 C 0.62953 0.62516 0.97505 0.0
C836 C 0.63457 0.65655 0.95585 0.0
C837 C 0.64742 0.6577 0.95197 0.0
C838 C 0.63256 0.56378 0.0119 0.0
C839 C 0.62635 0.68715 0.93836 0.0
C840 C 0.59756 0.58658 0.95333 0.0
C841 C 0.59003 0.62095 0.96592 0.0
C842 C 0.61038 0.58459 0.95805 0.0
C843 C 0.61582 0.61802 0.97571 0.0
C844 C 0.60812 0.65019 0.99009 0.0
C845 C 0.59526 0.65129 0.98502 0.0
C846 C 0.61821 0.54945 0.9424 0.0
C847 C 0.61355 0.68601 0.0093 0.0
H848 H 0.65675 0.57724 0.99855 0.0
H849 H 0.65119 0.68086 0.93674 0.0
H850 H 0.62509 0.58185 0.02333 0.0
H851 H 0.6284 0.53139 0.00239 0.0
H852 H 0.63994 0.55135 0.02557 0.0
H853 H 0.63179 0.71238 0.92584 0.0
H854 H 0.62076 0.66318 0.92544 0.0
H855 H 0.61975 0.70881 0.95031 0.0
H856 H 0.59352 0.56245 0.93885 0.0
H857 H 0.58944 0.67761 0.99498 0.0
H858 H 0.62502 0.53074 0.95523 0.0
H859 H 0.62355 0.56975 0.92735 0.0
H860 H 0.61246 0.52163 0.93231 0.0
H861 H 0.6209 0.66867 0.02138 0.0
H862 H 0.60633 0.70137 0.02247 0.0
H863 H 0.61793 0.71637 0.99838 0.0
C864 C 0.34319 0.39616 0.74209 0.0
C865 C 0.33874 0.36641 0.72188 0.0
C866 C 0.35606 0.40098 0.74654 0.0
C867 C 0.36455 0.37512 0.7305 0.0
C868 C 0.35999 0.34182 0.71168 0.0
C869 C 0.34715 0.33815 0.70751 0.0
C870 C 0.36055 0.43653 0.76693 0.0
C871 C 0.36866 0.31287 0.6944 0.0
C872 C 0.39507 0.42607 0.70663 0.0
C873 C 0.40367 0.39607 0.7194 0.0
C874 C 0.38232 0.42251 0.71188 0.0
C875 C 0.37803 0.38765 0.73017 0.0
C876 C 0.38675 0.35999 0.74469 0.0
C877 C 0.39953 0.36466 0.73918 0.0
C878 C 0.37338 0.45332 0.6962 0.0
C879 C 0.38258 0.32275 0.76449 0.0
H880 H 0.33669 0.41812 0.75321 0.0
H881 H 0.34371 0.31467 0.69206 0.0
H882 H 0.36864 0.42169 0.77781 0.0
H883 H 0.36363 0.47042 0.75712 0.0
H884 H 0.35309 0.44594 0.78112 0.0
H885 H 0.36367 0.28461 0.68297 0.0
H886 H 0.37339 0.33765 0.68044 0.0
H887 H 0.37597 0.29496 0.70632 0.0
H888 H 0.39826 0.45085 0.69155 0.0
H889 H 0.40617 0.34143 0.74914 0.0
H890 H 0.3663 0.46997 0.7092 0.0
H891 H 0.3684 0.43009 0.68186 0.0
H892 H 0.37821 0.4827 0.68529 0.0
H893 H 0.37477 0.33686 0.77649 0.0
H894 H 0.39029 0.31173 0.77771 0.0
H895 H 0.3792 0.28994 0.75407 0.0
C896 C 0.35722 0.39148 0.05976 0.0
C897 C 0.34868 0.38485 0.03937 0.0
C898 C 0.37005 0.38886 0.05521 0.0
C899 C 0.37447 0.37866 0.02965 0.0
C900 C 0.36591 0.37326 0.00878 0.0
C901 C 0.35307 0.37671 0.01387 0.0
C902 C 0.37886 0.39565 0.07799 0.0
C903 C 0.37027 0.36202 0.98135 0.0
C904 C 0.40876 0.40724 0.02371 0.0
C905 C 0.41401 0.36317 0.03196 0.0
C906 C 0.39583 0.412 0.02062 0.0
C907 C 0.38806 0.37152 0.02556 0.0
C908 C 0.39346 0.3257 0.03103 0.0
C909 C 0.40639 0.32214 0.03435 0.0
C910 C 0.39047 0.46148 0.01473 0.0
C911 C 0.38553 0.28137 0.03588 0.0
H912 H 0.35386 0.39809 0.07947 0.0
H913 H 0.34647 0.37132 0.99807 0.0
H914 H 0.38402 0.36141 0.08166 0.0
H915 H 0.38582 0.42413 0.07333 0.0
H916 H 0.37394 0.4061 0.09628 0.0
H917 H 0.36256 0.36372 0.96688 0.0
H918 H 0.37767 0.38776 0.9753 0.0
H919 H 0.37436 0.32502 0.98084 0.0
H920 H 0.4146 0.43912 0.0218 0.0
H921 H 0.41043 0.28788 0.04049 0.0
H922 H 0.3867 0.47745 0.03305 0.0
H923 H 0.38269 0.45881 0.00054 0.0
H924 H 0.39761 0.48664 0.00675 0.0
H925 H 0.38103 0.28445 0.05538 0.0
H926 H 0.3911 0.24738 0.0355 0.0
H927 H 0.37803 0.27863 0.02102 0.0
C928 C 0.03586 0.21556 0.24947 0.0
C929 C 0.03422 0.16717 0.25739 0.0
C930 C 0.02575 0.24387 0.24112 0.0
C931 C 0.0137 0.2232 0.24043 0.0
C932 C 0.01203 0.17396 0.24772 0.0
C933 C 0.02231 0.14657 0.25623 0.0
C934 C 0.02792 0.29624 0.23357 0.0
C935 C 0.99935 0.15045 0.24693 0.0
C936 C 0.98533 0.30616 0.24203 0.0
C937 C 0.98196 0.30741 0.21552 0.0
C938 C 0.99574 0.27936 0.25042 0.0
C939 C 0.00287 0.253 0.23186 0.0
C940 C 0.9996 0.2548 0.20504 0.0
C941 C 0.98923 0.28209 0.19721 0.0
C942 C 0.99903 0.27871 0.27916 0.0
C943 C 0.00692 0.22713 0.18465 0.0
H944 H 0.04502 0.23187 0.25049 0.0
H945 H 0.02097 0.10928 0.26244 0.0
H946 H 0.02468 0.3027 0.21324 0.0
H947 H 0.02243 0.32045 0.24656 0.0
H948 H 0.03788 0.30669 0.23494 0.0
H949 H 0.99966 0.11151 0.2526 0.0
H950 H 0.99294 0.16976 0.2604 0.0
H951 H 0.99537 0.15332 0.22694 0.0
H952 H 0.97973 0.32556 0.25626 0.0
H953 H 0.98667 0.28272 0.17667 0.0
H954 H 0.00876 0.29105 0.28197 0.0
H955 H 0.99842 0.24105 0.28679 0.0
H956 H 0.99278 0.30227 0.29097 0.0
H957 H 0.01681 0.2385 0.18508 0.0
H958 H 0.00325 0.23284 0.16454 0.0
H959 H 0.00666 0.1877 0.1891 0.0
C960 C 0.23345 0.09733 0.24629 0.0
C961 C 0.23176 0.10581 0.27312 0.0
C962 C 0.24334 0.06832 0.23728 0.0
C963 C 0.2516 0.04688 0.25559 0.0
C964 C 0.25013 0.05652 0.28262 0.0
C965 C 0.2403 0.08612 0.29102 0.0
C966 C 0.24476 0.05956 0.20825 0.0
C967 C 0.25868 0.03416 0.30278 0.0
C968 C 0.26904 0.93269 0.23497 0.0
C969 C 0.28085 0.95135 0.22923 0.0
C970 C 0.25945 0.96331 0.24384 0.0
C971 C 0.2617 0.01381 0.2466 0.0
C972 C 0.27365 0.03266 0.24108 0.0
C973 C 0.28309 0.00118 0.23268 0.0
C974 C 0.24687 0.94176 0.25 0.0
C975 C 0.27639 0.08628 0.24353 0.0
H976 H 0.22685 0.11229 0.23238 0.0
H977 H 0.23903 0.09228 0.31182 0.0
H978 H 0.25432 0.06903 0.20187 0.0
H979 H 0.24334 0.02047 0.20391 0.0
H980 H 0.23801 0.08104 0.19651 0.0
H981 H 0.25646 0.04625 0.32301 0.0
H982 H 0.25795 0.99398 0.30197 0.0
H983 H 0.26849 0.04371 0.29844 0.0
H984 H 0.26725 0.89428 0.23223 0.0
H985 H 0.29217 0.01598 0.22804 0.0
H986 H 0.23971 0.95789 0.23699 0.0
H987 H 0.24421 0.95054 0.27045 0.0
H988 H 0.24673 0.90167 0.24751 0.0
H989 H 0.27012 0.10723 0.23047 0.0
H990 H 0.28617 0.09516 0.23839 0.0
H991 H 0.27459 0.09866 0.26385 0.0
C992 C 0.01596 0.06068 0.96863 0.0
C993 C 0.02766 0.05416 0.98027 0.0
C994 C 0.00533 0.03809 0.9789 0.0
C995 C 0.00648 0.00737 0.00101 0.0
C996 C 0.01825 0.0011 0.01303 0.0
C997 C 0.02869 0.02503 0.00267 0.0
C998 C 0.9929 0.04673 0.96594 0.0
C999 C 0.01987 0.96812 0.03642 0.0
C1000 C 0.9779 0.9803 0.04204 0.0
C1001 C 0.97416 0.93502 0.0322 0.0
C1002 C 0.9883 0.00444 0.03185 0.0
C1003 C 0.99533 0.98225 0.01171 0.0
C1004 C 0.99164 0.93635 0.00176 0.0
C1005 C 0.98098 0.91349 0.01193 0.0
C1006 C 0.99172 0.05383 0.04254 0.0
C1007 C 0.99904 0.91121 0.98059 0.0
H1008 H 0.01514 0.08321 0.95129 0.0
H1009 H 0.03775 0.01946 0.01151 0.0
H1010 H 0.98917 0.01201 0.95821 0.0
H1011 H 0.98611 0.06056 0.98052 0.0
H1012 H 0.99352 0.07317 0.94955 0.0
H1013 H 0.02966 0.96687 0.04336 0.0
H1014 H 0.01388 0.98056 0.05278 0.0
H1015 H 0.01689 0.93072 0.03129 0.0
H1016 H 0.97258 0.99728 0.05759 0.0
H1017 H 0.97813 0.8784 0.0044 0.0
H1018 H 0.99194 0.08086 0.02643 0.0
H1019 H 0.00117 0.05266 0.05124 0.0
H1020 H 0.98508 0.0666 0.05773 0.0
H1021 H 0.99927 0.93405 0.96271 0.0
H1022 H 0.99511 0.87515 0.97542 0.0
H1023 H 0.0088 0.90622 0.98713 0.0
C1024 C 0.23523 0.23093 0.94716 0.0
C1025 C 0.2297 0.19561 0.96316 0.0
C1026 C 0.24532 0.25858 0.95603 0.0
C1027 C 0.25027 0.2496 0.98123 0.0
C1028 C 0.24498 0.21284 0.9972 0.0
C1029 C 0.23457 0.18682 0.98814 0.0
C1030 C 0.25043 0.29841 0.93875 0.0
C1031 C 0.25024 0.20128 0.02389 0.0
C1032 C 0.28313 0.29338 0.99504 0.0
C1033 C 0.28091 0.33344 0.01132 0.0
C1034 C 0.27324 0.26563 0.98515 0.0
C1035 C 0.26085 0.27932 0.99101 0.0
C1036 C 0.25857 0.32128 0.00635 0.0
C1037 C 0.26865 0.34734 0.01675 0.0
C1038 C 0.27606 0.22046 0.96945 0.0
C1039 C 0.24549 0.33805 0.01224 0.0
H1040 H 0.23135 0.23836 0.92797 0.0
H1041 H 0.23027 0.15957 0.00051 0.0
H1042 H 0.24966 0.33389 0.94895 0.0
H1043 H 0.26044 0.29207 0.93479 0.0
H1044 H 0.24545 0.30096 0.91974 0.0
H1045 H 0.24559 0.16956 0.03309 0.0
H1046 H 0.26035 0.19358 0.02232 0.0
H1047 H 0.24916 0.2331 0.03701 0.0
H1048 H 0.29262 0.28202 0.99128 0.0
H1049 H 0.26696 0.37817 0.02947 0.0
H1050 H 0.27147 0.22234 0.95003 0.0
H1051 H 0.27227 0.18815 0.97971 0.0
H1052 H 0.2862 0.21508 0.96643 0.0
H1053 H 0.24011 0.3417 0.9938 0.0
H1054 H 0.24533 0.37342 0.02271 0.0
H1055 H 0.24068 0.31063 0.02451 0.0
C1056 C 0.97271 0.7786 0.75584 0.0
C1057 C 0.9751 0.81487 0.73723 0.0
C1058 C 0.98239 0.75005 0.76604 0.0
C1059 C 0.99477 0.75878 0.75787 0.0
C1060 C 0.9973 0.79715 0.74017 0.0
C1061 C 0.98741 0.82437 0.72981 0.0
C1062 C 0.97929 0.7091 0.78461 0.0
C1063 C 0.01042 0.80849 0.73156 0.0
C1064 C 0.02097 0.70953 0.80001 0.0
C1065 C 0.02495 0.66907 0.7855 0.0
C1066 C 0.01122 0.73908 0.7912 0.0
C1067 C 0.00507 0.72734 0.76755 0.0
C1068 C 0.00885 0.68592 0.75305 0.0
C1069 C 0.01887 0.65753 0.76206 0.0
C1070 C 0.00766 0.78342 0.80695 0.0
C1071 C 0.00235 0.67176 0.72798 0.0
H1072 H 0.96318 0.77064 0.76134 0.0
H1073 H 0.98927 0.85229 0.71536 0.0
H1074 H 0.98191 0.67388 0.77557 0.0
H1075 H 0.98473 0.71271 0.80296 0.0
H1076 H 0.96924 0.70803 0.78964 0.0
H1077 H 0.01089 0.84166 0.71921 0.0
H1078 H 0.01651 0.81363 0.7489 0.0
H1079 H 0.01423 0.77752 0.7202 0.0
H1080 H 0.02572 0.71897 0.81804 0.0
H1081 H 0.02192 0.62631 0.75082 0.0
H1082 H 0.99775 0.78122 0.81286 0.0
H1083 H 0.00871 0.81653 0.79475 0.0
H1084 H 0.01343 0.78764 0.82485 0.0
H1085 H 0.99224 0.66726 0.7316 0.0
H1086 H 0.00607 0.63744 0.71962 0.0
H1087 H 0.00343 0.70103 0.71323 0.0
C1088 C 0.73661 0.07611 0.79474 0.0
C1089 C 0.72748 0.09151 0.77689 0.0
C1090 C 0.74701 0.04955 0.78644 0.0
C1091 C 0.74849 0.03889 0.75953 0.0
C1092 C 0.73959 0.05612 0.74123 0.0
C1093 C 0.72911 0.08185 0.75016 0.0
C1094 C 0.75617 0.03131 0.80663 0.0
C1095 C 0.74101 0.04637 0.71229 0.0
C1096 C 0.7806 0.00229 0.73558 0.0
C1097 C 0.77925 0.95196 0.73229 0.0
C1098 C 0.77067 0.03103 0.74442 0.0
C1099 C 0.7592 0.00875 0.75069 0.0
C1100 C 0.75795 0.95766 0.74849 0.0
C1101 C 0.76796 0.9299 0.73903 0.0
C1102 C 0.77233 0.08541 0.74615 0.0
C1103 C 0.74594 0.93245 0.75563 0.0
H1104 H 0.73538 0.08309 0.81547 0.0
H1105 H 0.72208 0.09357 0.73631 0.0
H1106 H 0.75632 0.991 0.80648 0.0
H1107 H 0.7657 0.04382 0.80178 0.0
H1108 H 0.75384 0.04377 0.82674 0.0
H1109 H 0.73374 0.06491 0.70047 0.0
H1110 H 0.75029 0.05869 0.70546 0.0
H1111 H 0.74043 0.00675 0.70855 0.0
H1112 H 0.78927 0.01968 0.73008 0.0
H1113 H 0.76687 0.89106 0.73641 0.0
H1114 H 0.77022 0.09825 0.76626 0.0
H1115 H 0.76569 0.10367 0.73272 0.0
H1116 H 0.78192 0.09699 0.74095 0.0
H1117 H 0.7432 0.94202 0.77594 0.0
H1118 H 0.74669 0.89229 0.75411 0.0
H1119 H 0.73838 0.94492 0.74247 0.0
C1120 C 0.73405 0.66808 0.98766 0.0
C1121 C 0.72185 0.68529 0.99037 0.0
C1122 C 0.74417 0.69462 0.99753 0.0
C1123 C 0.74204 0.74011 0.00971 0.0
C1124 C 0.72971 0.75737 0.01276 0.0
C1125 C 0.71975 0.72941 0.00335 0.0
C1126 C 0.75714 0.67428 0.9946 0.0
C1127 C 0.72709 0.80607 0.0252 0.0
C1128 C 0.76713 0.78954 0.05458 0.0
C1129 C 0.77382 0.82021 0.03773 0.0
C1130 C 0.75674 0.76357 0.04575 0.0
C1131 C 0.75272 0.76924 0.01956 0.0
C1132 C 0.75916 0.8015 0.00266 0.0
C1133 C 0.76976 0.82618 0.01186 0.0
C1134 C 0.75033 0.72877 0.06423 0.0
C1135 C 0.75496 0.80933 0.97476 0.0
H1136 H 0.73569 0.63405 0.97753 0.0
H1137 H 0.71033 0.7432 0.00508 0.0
H1138 H 0.7628 0.69864 0.98205 0.0
H1139 H 0.76177 0.67245 0.014 0.0
H1140 H 0.75715 0.6374 0.98577 0.0
H1141 H 0.71697 0.81427 0.02607 0.0
H1142 H 0.7309 0.80714 0.04537 0.0
H1143 H 0.73178 0.83518 0.01388 0.0
H1144 H 0.77028 0.78437 0.07456 0.0
H1145 H 0.7749 0.84984 0.9988 0.0
H1146 H 0.7509 0.69129 0.05632 0.0
H1147 H 0.74032 0.73805 0.06594 0.0
H1148 H 0.75451 0.7291 0.08413 0.0
H1149 H 0.75594 0.77505 0.96353 0.0
H1150 H 0.76042 0.8381 0.96474 0.0
H1151 H 0.74498 0.81955 0.97435 0.0
C1152 C 0.21518 0.52326 0.75755 0.0
C1153 C 0.21681 0.57295 0.76264 0.0
C1154 C 0.22521 0.49396 0.74974 0.0
C1155 C 0.23712 0.51499 0.7465 0.0
C1156 C 0.23875 0.56542 0.75095 0.0
C1157 C 0.22859 0.59373 0.75919 0.0
C1158 C 0.2231 0.44031 0.74546 0.0
C1159 C 0.25126 0.58935 0.74723 0.0
C1160 C 0.26624 0.43595 0.7481 0.0
C1161 C 0.26874 0.43035 0.72133 0.0
C1162 C 0.2558 0.46248 0.75663 0.0
C1163 C 0.24782 0.48445 0.73793 0.0
C1164 C 0.25019 0.478 0.71091 0.0
C1165 C 0.26054 0.45077 0.70296 0.0
C1166 C 0.25344 0.46785 0.78563 0.0
C1167 C 0.242 0.50114 0.69034 0.0
H1168 H 0.20613 0.50682 0.76048 0.0
H1169 H 0.2299 0.63206 0.7632 0.0
H1170 H 0.22563 0.43026 0.7251 0.0
H1171 H 0.22919 0.41903 0.75874 0.0
H1172 H 0.21329 0.42953 0.74901 0.0
H1173 H 0.25092 0.6291 0.75092 0.0
H1174 H 0.25817 0.57288 0.76071 0.0
H1175 H 0.25463 0.58316 0.72696 0.0
H1176 H 0.27255 0.42036 0.76237 0.0
H1177 H 0.26243 0.44687 0.68221 0.0
H1178 H 0.24384 0.456 0.79042 0.0
H1179 H 0.25423 0.50662 0.79131 0.0
H1180 H 0.26009 0.44637 0.79759 0.0
H1181 H 0.23221 0.48936 0.69297 0.0
H1182 H 0.24498 0.49184 0.67011 0.0
H1183 H 0.24219 0.54123 0.69255 0.0
C1184 C 0.01761 0.54864 0.48582 0.0
C1185 C 0.01994 0.55279 0.45891 0.0
C1186 C 0.00721 0.52281 0.49504 0.0
C1187 C 0.9991 0.50006 0.47692 0.0
C1188 C 0.00128 0.50501 0.44973 0.0
C1189 C 0.01162 0.5316 0.44107 0.0
C1190 C 0.00506 0.519 0.52419 0.0
C1191 C 0.99292 0.48097 0.4298 0.0
C1192 C 0.98011 0.39368 0.50264 0.0
C1193 C 0.96858 0.4157 0.50741 0.0
C1194 C 0.99005 0.42043 0.49207 0.0
C1195 C 0.98843 0.47044 0.48641 0.0
C1196 C 0.97668 0.49238 0.49037 0.0
C1197 C 0.96688 0.46469 0.50068 0.0
C1198 C 0.0024 0.39556 0.48771 0.0
C1199 C 0.97457 0.54559 0.48466 0.0
H1200 H 0.02402 0.56485 0.49967 0.0
H1201 H 0.01341 0.53434 0.42023 0.0
H1202 H 0.99554 0.5317 0.52912 0.0
H1203 H 0.00575 0.48048 0.5304 0.0
H1204 H 0.01188 0.54065 0.53563 0.0
H1205 H 0.99571 0.48946 0.40935 0.0
H1206 H 0.99318 0.44099 0.43249 0.0
H1207 H 0.98315 0.49274 0.43269 0.0
H1208 H 0.98149 0.35589 0.50786 0.0
H1209 H 0.958 0.48205 0.50442 0.0
H1210 H 0.00954 0.41178 0.50073 0.0
H1211 H 0.00555 0.40115 0.46723 0.0
H1212 H 0.00194 0.35591 0.49165 0.0
H1213 H 0.9806 0.56794 0.49754 0.0
H1214 H 0.96475 0.55665 0.48779 0.0
H1215 H 0.97718 0.55397 0.46413 0.0
C1216 C 0.22838 0.6902 0.49062 0.0
C1217 C 0.21717 0.71434 0.48545 0.0
C1218 C 0.23875 0.71551 0.50035 0.0
C1219 C 0.23791 0.76625 0.50469 0.0
C1220 C 0.22651 0.79054 0.50015 0.0
C1221 C 0.21625 0.76423 0.49076 0.0
C1222 C 0.25069 0.68816 0.5054 0.0
C1223 C 0.22525 0.8446 0.50442 0.0
C1224 C 0.26185 0.82404 0.54955 0.0
C1225 C 0.27065 0.84184 0.53163 0.0
C1226 C 0.2511 0.79994 0.54104 0.0
C1227 C 0.24899 0.7939 0.5139 0.0
C1228 C 0.2576 0.81326 0.49564 0.0
C1229 C 0.26839 0.83681 0.50473 0.0
C1230 C 0.2422 0.7796 0.56114 0.0
C1231 C 0.25557 0.8081 0.46652 0.0
H1232 H 0.22915 0.65169 0.48647 0.0
H1233 H 0.20764 0.78323 0.48659 0.0
H1234 H 0.25812 0.702 0.4923 0.0
H1235 H 0.25382 0.6942 0.52585 0.0
H1236 H 0.24966 0.64847 0.5021 0.0
H1237 H 0.21565 0.85781 0.5006 0.0
H1238 H 0.22783 0.85409 0.52482 0.0
H1239 H 0.23175 0.86424 0.49126 0.0
H1240 H 0.26354 0.8276 0.57039 0.0
H1241 H 0.27516 0.85039 0.49081 0.0
H1242 H 0.24177 0.73948 0.55926 0.0
H1243 H 0.23268 0.79376 0.55767 0.0
H1244 H 0.245 0.78874 0.5815 0.0
H1245 H 0.2557 0.7691 0.46105 0.0
H1246 H 0.26279 0.82734 0.45492 0.0
H1247 H 0.2463 0.82266 0.46106 0.0
C1248 C 0.78661 0.49107 0.23636 0.0
C1249 C 0.78615 0.44017 0.23516 0.0
C1250 C 0.77619 0.51829 0.24401 0.0
C1251 C 0.76508 0.49401 0.251 0.0
C1252 C 0.76467 0.44255 0.2506 0.0
C1253 C 0.77519 0.41622 0.24252 0.0
C1254 C 0.77699 0.57306 0.24402 0.0
C1255 C 0.75304 0.41536 0.25834 0.0
C1256 C 0.74148 0.56009 0.29321 0.0
C1257 C 0.73226 0.57242 0.27491 0.0
C1258 C 0.75225 0.53506 0.28563 0.0
C1259 C 0.75393 0.52244 0.25902 0.0
C1260 C 0.74487 0.53627 0.24026 0.0
C1261 C 0.73409 0.56095 0.24845 0.0
C1262 C 0.76165 0.52085 0.30626 0.0
C1263 C 0.74644 0.52402 0.21163 0.0
H1264 H 0.79502 0.50987 0.23047 0.0
H1265 H 0.77477 0.37692 0.24152 0.0
H1266 H 0.77 0.58831 0.2303 0.0
H1267 H 0.7748 0.58741 0.26379 0.0
H1268 H 0.78634 0.58636 0.23818 0.0
H1269 H 0.75434 0.37535 0.25765 0.0
H1270 H 0.7502 0.42579 0.27846 0.0
H1271 H 0.74529 0.4253 0.24502 0.0
H1272 H 0.74013 0.56871 0.31373 0.0
H1273 H 0.72698 0.57028 0.23425 0.0
H1274 H 0.77097 0.53521 0.30108 0.0
H1275 H 0.76244 0.48069 0.30716 0.0
H1276 H 0.7591 0.5345 0.32603 0.0
H1277 H 0.75549 0.538 0.20438 0.0
H1278 H 0.73888 0.53944 0.19935 0.0
H1279 H 0.74654 0.48401 0.20905 0.0
C1280 C 0.77438 0.30379 0.49016 0.0
C1281 C 0.77206 0.34208 0.50757 0.0
C1282 C 0.7647 0.27369 0.48142 0.0
C1283 C 0.75235 0.28308 0.48969 0.0
C1284 C 0.74989 0.32331 0.5062 0.0
C1285 C 0.75981 0.35184 0.51532 0.0
C1286 C 0.76775 0.23058 0.46429 0.0
C1287 C 0.7368 0.33556 0.5147 0.0
C1288 C 0.72662 0.22822 0.44837 0.0
C1289 C 0.72272 0.18902 0.46389 0.0
C1290 C 0.73605 0.25965 0.4568 0.0
C1291 C 0.74203 0.25079 0.48101 0.0
C1292 C 0.73822 0.21088 0.49669 0.0
C1293 C 0.72843 0.18088 0.48813 0.0
C1294 C 0.73952 0.3026 0.43989 0.0
C1295 C 0.7446 0.19961 0.52232 0.0
H1296 H 0.78388 0.29555 0.48456 0.0
H1297 H 0.75803 0.38127 0.52893 0.0
H1298 H 0.76493 0.19656 0.47431 0.0
H1299 H 0.76245 0.23259 0.44568 0.0
H1300 H 0.77782 0.22834 0.45959 0.0
H1301 H 0.73637 0.37006 0.52595 0.0
H1302 H 0.73064 0.33873 0.49734 0.0
H1303 H 0.73306 0.30594 0.52712 0.0
H1304 H 0.72207 0.23509 0.42977 0.0
H1305 H 0.72539 0.15061 0.50011 0.0
H1306 H 0.74934 0.29936 0.43346 0.0
H1307 H 0.73873 0.33671 0.45137 0.0
H1308 H 0.73353 0.30571 0.42223 0.0
H1309 H 0.75471 0.19433 0.51901 0.0
H1310 H 0.74079 0.16649 0.53181 0.0
H1311 H 0.74355 0.23062 0.536 0.0
C1312 C 0.47781 0.33146 0.73756 0.0
C1313 C 0.46706 0.30784 0.7287 0.0
C1314 C 0.48817 0.30477 0.74628 0.0
C1315 C 0.48784 0.25329 0.74568 0.0
C1316 C 0.47697 0.22932 0.7369 0.0
C1317 C 0.46669 0.25686 0.72875 0.0
C1318 C 0.49952 0.33164 0.75597 0.0
C1319 C 0.47628 0.17457 0.73567 0.0
C1320 C 0.51914 0.18827 0.74636 0.0
C1321 C 0.52022 0.17551 0.77284 0.0
C1322 C 0.50847 0.21238 0.73703 0.0
C1323 C 0.49878 0.22452 0.75469 0.0
C1324 C 0.49966 0.21022 0.78123 0.0
C1325 C 0.51031 0.1856 0.78992 0.0
C1326 C 0.50775 0.2262 0.70846 0.0
C1327 C 0.48959 0.22268 0.80074 0.0
H1328 H 0.47816 0.37081 0.73746 0.0
H1329 H 0.45846 0.23831 0.72165 0.0
H1330 H 0.50176 0.32015 0.77626 0.0
H1331 H 0.50767 0.32251 0.74357 0.0
H1332 H 0.4982 0.37167 0.75574 0.0
H1333 H 0.46719 0.16153 0.72811 0.0
H1334 H 0.48377 0.16041 0.7228 0.0
H1335 H 0.47779 0.1589 0.75543 0.0
H1336 H 0.52677 0.18072 0.73309 0.0
H1337 H 0.51108 0.17605 0.81045 0.0
H1338 H 0.50783 0.26634 0.70653 0.0
H1339 H 0.4989 0.21302 0.69984 0.0
H1340 H 0.51562 0.21114 0.69694 0.0
H1341 H 0.48874 0.26273 0.80245 0.0
H1342 H 0.49149 0.20747 0.82049 0.0
H1343 H 0.48047 0.20872 0.79388 0.0
C1344 C 0.47946 0.93076 0.50527 0.0
C1345 C 0.47554 0.93525 0.53133 0.0
C1346 C 0.48989 0.95657 0.49609 0.0
C1347 C 0.49632 0.98838 0.51325 0.0
C1348 C 0.49239 0.99288 0.53956 0.0
C1349 C 0.48216 0.9659 0.54832 0.0
C1350 C 0.494 0.95006 0.46804 0.0
C1351 C 0.49882 0.02702 0.55837 0.0
C1352 C 0.52955 0.02714 0.4988 0.0
C1353 C 0.52778 0.0726 0.48697 0.0
C1354 C 0.51939 0.99899 0.507 0.0
C1355 C 0.50716 0.01722 0.50384 0.0
C1356 C 0.50534 0.06367 0.4925 0.0
C1357 C 0.51567 0.09057 0.4839 0.0
C1358 C 0.52172 0.94937 0.51863 0.0
C1359 C 0.49247 0.0849 0.48942 0.0
H1360 H 0.47436 0.90719 0.49208 0.0
H1361 H 0.47911 0.97 0.56845 0.0
H1362 H 0.49326 0.98509 0.45743 0.0
H1363 H 0.50391 0.9388 0.46741 0.0
H1364 H 0.48833 0.92249 0.45754 0.0
H1365 H 0.49449 0.02674 0.57814 0.0
H1366 H 0.50876 0.01691 0.56037 0.0
H1367 H 0.4985 0.06465 0.5506 0.0
H1368 H 0.53889 0.01276 0.50088 0.0
H1369 H 0.51427 0.12561 0.47466 0.0
H1370 H 0.5167 0.92135 0.50713 0.0
H1371 H 0.51807 0.94788 0.53893 0.0
H1372 H 0.53177 0.93991 0.51902 0.0
H1373 H 0.48673 0.06104 0.47676 0.0
H1374 H 0.49265 0.12187 0.48071 0.0
H1375 H 0.4878 0.08687 0.50878 0.0
C1376 C 0.48646 0.8288 0.23431 0.0
C1377 C 0.47434 0.81569 0.24142 0.0
C1378 C 0.49675 0.80266 0.24368 0.0
C1379 C 0.49482 0.76134 0.25971 0.0
C1380 C 0.48257 0.74793 0.26689 0.0
C1381 C 0.47247 0.77582 0.258 0.0
C1382 C 0.50969 0.8192 0.23637 0.0
C1383 C 0.48011 0.7034 0.28336 0.0
C1384 C 0.52166 0.6711 0.26303 0.0
C1385 C 0.52679 0.68218 0.2875 0.0
C1386 C 0.51097 0.69549 0.25404 0.0
C1387 C 0.50565 0.73295 0.2695 0.0
C1388 C 0.51088 0.74426 0.29417 0.0
C1389 C 0.52124 0.71819 0.30304 0.0
C1390 C 0.50542 0.68145 0.22796 0.0
C1391 C 0.50577 0.78497 0.31088 0.0
H1392 H 0.48788 0.85956 0.22138 0.0
H1393 H 0.46307 0.76514 0.26309 0.0
H1394 H 0.51531 0.82511 0.25433 0.0
H1395 H 0.51442 0.79064 0.22473 0.0
H1396 H 0.5096 0.85335 0.22478 0.0
H1397 H 0.47001 0.69717 0.2866 0.0
H1398 H 0.48411 0.67088 0.27366 0.0
H1399 H 0.48472 0.70702 0.30268 0.0
H1400 H 0.52596 0.6433 0.25102 0.0
H1401 H 0.52532 0.72739 0.32183 0.0
H1402 H 0.50619 0.71224 0.21405 0.0
H1403 H 0.49537 0.67325 0.23029 0.0
H1404 H 0.5101 0.64931 0.21924 0.0
H1405 H 0.50616 0.81967 0.29984 0.0
H1406 H 0.51102 0.78948 0.32947 0.0
H1407 H 0.49587 0.77803 0.31567 0.0
C1408 C 0.48629 0.46396 0.05998 0.0
C1409 C 0.47913 0.43441 0.04341 0.0
C1410 C 0.49601 0.49253 0.05013 0.0
C1411 C 0.49873 0.49126 0.02304 0.0
C1412 C 0.49174 0.46062 0.00626 0.0
C1413 C 0.48197 0.43265 0.01664 0.0
C1414 C 0.50321 0.5248 0.06864 0.0
C1415 C 0.49447 0.45795 0.97729 0.0
C1416 C 0.51579 0.5975 0.99178 0.0
C1417 C 0.52793 0.57929 0.98999 0.0
C1418 C 0.50622 0.56957 0.00293 0.0
C1419 C 0.50886 0.5222 0.01228 0.0
C1420 C 0.52118 0.50423 0.01119 0.0
C1421 C 0.53057 0.53309 0.0002 0.0
C1422 C 0.49322 0.59023 0.00412 0.0
C1423 C 0.52437 0.4539 0.02089 0.0
H1424 H 0.48412 0.46567 0.0807 0.0
H1425 H 0.47645 0.40998 0.00376 0.0
H1426 H 0.51326 0.5159 0.06775 0.0
H1427 H 0.50218 0.56333 0.06264 0.0
H1428 H 0.50003 0.52111 0.08925 0.0
H1429 H 0.48842 0.4313 0.96704 0.0
H1430 H 0.49309 0.49418 0.96822 0.0
H1431 H 0.50433 0.4476 0.9741 0.0
H1432 H 0.51369 0.63309 0.98384 0.0
H1433 H 0.53993 0.51864 0.99875 0.0
H1434 H 0.48967 0.58895 0.02452 0.0
H1435 H 0.48687 0.56788 0.99194 0.0
H1436 H 0.49281 0.62838 0.99708 0.0
H1437 H 0.52153 0.44976 0.04165 0.0
H1438 H 0.53447 0.44585 0.01928 0.0
H1439 H 0.51916 0.42643 0.00939 0.0
C1440 C 0.06099 0.41965 0.41859 0.0
C1441 C 0.05822 0.45711 0.40089 0.0
C1442 C 0.06217 0.3715 0.41009 0.0
C1443 C 0.06049 0.3606 0.38327 0.0
C1444 C 0.05772 0.39827 0.36527 0.0
C1445 C 0.05664 0.44621 0.37432 0.0
C1446 C 0.06519 0.33229 0.42979 0.0
C1447 C 0.05583 0.38787 0.3365 0.0
C1448 C 0.07382 0.24555 0.3538 0.0
C1449 C 0.06316 0.2165 0.35159 0.0
C1450 C 0.07317 0.29202 0.36493 0.0
C1451 C 0.06158 0.30975 0.37395 0.0
C1452 C 0.05092 0.27967 0.37293 0.0
C1453 C 0.05184 0.23325 0.3618 0.0
C1454 C 0.08477 0.32291 0.36596 0.0
C1455 C 0.03841 0.29735 0.38247 0.0
H1456 H 0.06224 0.42793 0.43918 0.0
H1457 H 0.05448 0.47508 0.36061 0.0
H1458 H 0.05766 0.30475 0.43007 0.0
H1459 H 0.07388 0.31331 0.42408 0.0
H1460 H 0.06635 0.34697 0.44992 0.0
H1461 H 0.05375 0.42126 0.32509 0.0
H1462 H 0.0643 0.37065 0.32823 0.0
H1463 H 0.04805 0.36185 0.33389 0.0
H1464 H 0.08259 0.23268 0.34595 0.0
H1465 H 0.04358 0.21093 0.36007 0.0
H1466 H 0.0862 0.33723 0.38604 0.0
H1467 H 0.08368 0.35461 0.35273 0.0
H1468 H 0.09321 0.30242 0.35998 0.0
H1469 H 0.03916 0.31119 0.40281 0.0
H1470 H 0.03123 0.26835 0.38193 0.0
H1471 H 0.03522 0.32798 0.37003 0.0
C1472 C 0.18023 0.80136 0.38326 0.0
C1473 C 0.1912 0.77467 0.38695 0.0
C1474 C 0.18053 0.84804 0.37238 0.0
C1475 C 0.19209 0.86842 0.36502 0.0
C1476 C 0.20315 0.84098 0.3678 0.0
C1477 C 0.20258 0.79427 0.37875 0.0
C1478 C 0.16853 0.8761 0.36952 0.0
C1479 C 0.21563 0.86153 0.35998 0.0
C1480 C 0.19183 0.97529 0.31836 0.0
C1481 C 0.19342 0.01458 0.33553 0.0
C1482 C 0.19141 0.9275 0.32769 0.0
C1483 C 0.19259 0.91885 0.35486 0.0
C1484 C 0.19409 0.95836 0.37236 0.0
C1485 C 0.19449 0.0059 0.36246 0.0
C1486 C 0.18976 0.88629 0.30846 0.0
C1487 C 0.19534 0.95035 0.40151 0.0
H1488 H 0.17141 0.78631 0.38957 0.0
H1489 H 0.21108 0.77379 0.38167 0.0
H1490 H 0.16883 0.90908 0.382 0.0
H1491 H 0.16734 0.88838 0.34898 0.0
H1492 H 0.16027 0.85423 0.37519 0.0
H1493 H 0.22328 0.8347 0.36231 0.0
H1494 H 0.21539 0.87374 0.33928 0.0
H1495 H 0.21778 0.89382 0.37218 0.0
H1496 H 0.19102 0.9818 0.29748 0.0
H1497 H 0.19576 0.03619 0.37576 0.0
H1498 H 0.18128 0.86525 0.31337 0.0
H1499 H 0.19777 0.86098 0.3098 0.0
H1500 H 0.18898 0.89927 0.28792 0.0
H1501 H 0.187 0.93121 0.40907 0.0
H1502 H 0.19646 0.98495 0.41245 0.0
H1503 H 0.2035 0.92686 0.40559 0.0
C1504 C 0.07178 0.92473 0.92314 0.0
C1505 C 0.06446 0.9586 0.90958 0.0
C1506 C 0.0731 0.87706 0.91396 0.0
C1507 C 0.0668 0.86288 0.89089 0.0
C1508 C 0.05952 0.89711 0.87692 0.0
C1509 C 0.05851 0.94479 0.88636 0.0
C1510 C 0.08109 0.84173 0.92911 0.0
C1511 C 0.05258 0.88307 0.85234 0.0
C1512 C 0.07596 0.75139 0.85196 0.0
C1513 C 0.06675 0.7183 0.85963 0.0
C1514 C 0.07648 0.79802 0.86293 0.0
C1515 C 0.06747 0.81185 0.88171 0.0
C1516 C 0.05856 0.7777 0.89051 0.0
C1517 C 0.05837 0.7311 0.87948 0.0
C1518 C 0.08627 0.83321 0.85348 0.0
C1519 C 0.04877 0.79124 0.91044 0.0
H1520 H 0.07646 0.93545 0.94103 0.0
H1521 H 0.05283 0.97093 0.87591 0.0
H1522 H 0.07526 0.81162 0.9367 0.0
H1523 H 0.08819 0.82539 0.91603 0.0
H1524 H 0.0859 0.85927 0.94589 0.0
H1525 H 0.04746 0.91418 0.84363 0.0
H1526 H 0.05916 0.86862 0.83753 0.0
H1527 H 0.04582 0.85376 0.85682 0.0
H1528 H 0.08249 0.74147 0.83667 0.0
H1529 H 0.05121 0.70565 0.88537 0.0
H1530 H 0.091 0.85065 0.87034 0.0
H1531 H 0.0818 0.86248 0.84188 0.0
H1532 H 0.09339 0.81522 0.84102 0.0
H1533 H 0.05317 0.80722 0.9281 0.0
H1534 H 0.04307 0.75954 0.91652 0.0
H1535 H 0.0425 0.81921 0.90204 0.0
C1536 C 0.19924 0.50866 0.86555 0.0
C1537 C 0.18806 0.52537 0.8547 0.0
C1538 C 0.20002 0.46228 0.8768 0.0
C1539 C 0.18933 0.43228 0.87729 0.0
C1540 C 0.17788 0.44991 0.86748 0.0
C1541 C 0.17739 0.49627 0.85623 0.0
C1542 C 0.21238 0.44462 0.88714 0.0
C1543 C 0.16626 0.4191 0.86794 0.0
C1544 C 0.19385 0.29567 0.87902 0.0
C1545 C 0.19182 0.28556 0.90555 0.0
C1546 C 0.19312 0.34343 0.86956 0.0
C1547 C 0.19022 0.3817 0.88709 0.0
C1548 C 0.18808 0.37161 0.91385 0.0
C1549 C 0.18894 0.32362 0.92278 0.0
C1550 C 0.19549 0.35298 0.84086 0.0
C1551 C 0.18491 0.41148 0.93305 0.0
H1552 H 0.20752 0.531 0.86429 0.0
H1553 H 0.16872 0.50914 0.8479 0.0
H1554 H 0.21136 0.43141 0.90755 0.0
H1555 H 0.21567 0.41354 0.87515 0.0
H1556 H 0.21961 0.47345 0.88674 0.0
H1557 H 0.15793 0.43937 0.8611 0.0
H1558 H 0.16755 0.38688 0.85517 0.0
H1559 H 0.16447 0.40556 0.88806 0.0
H1560 H 0.19612 0.26633 0.86569 0.0
H1561 H 0.18735 0.31595 0.94334 0.0
H1562 H 0.20334 0.37879 0.83861 0.0
H1563 H 0.18719 0.37011 0.83185 0.0
H1564 H 0.19772 0.31924 0.82989 0.0
H1565 H 0.19248 0.43883 0.93351 0.0
H1566 H 0.18347 0.39744 0.95323 0.0
H1567 H 0.17632 0.4305 0.9267 0.0
C1568 C 0.94742 0.67312 0.67656 0.0
C1569 C 0.94657 0.71229 0.65906 0.0
C1570 C 0.94752 0.6251 0.66752 0.0
C1571 C 0.94668 0.61603 0.64033 0.0
C1572 C 0.946 0.65542 0.6225 0.0
C1573 C 0.946 0.70323 0.6321 0.0
C1574 C 0.94836 0.58409 0.6871 0.0
C1575 C 0.94508 0.64701 0.59334 0.0
C1576 C 0.95648 0.49335 0.61339 0.0
C1577 C 0.94493 0.47084 0.60946 0.0
C1578 C 0.95722 0.54039 0.62385 0.0
C1579 C 0.94614 0.56525 0.6306 0.0
C1580 C 0.9345 0.54191 0.62765 0.0
C1581 C 0.93403 0.49494 0.61708 0.0
C1582 C 0.9698 0.5641 0.62682 0.0
C1583 C 0.9225 0.56715 0.63486 0.0
H1584 H 0.94796 0.67995 0.69744 0.0
H1585 H 0.94535 0.73344 0.61855 0.0
H1586 H 0.93986 0.56137 0.68598 0.0
H1587 H 0.95638 0.56028 0.68238 0.0
H1588 H 0.94942 0.5974 0.70752 0.0
H1589 H 0.94495 0.68153 0.58208 0.0
H1590 H 0.95305 0.62472 0.58654 0.0
H1591 H 0.93647 0.62643 0.58882 0.0
H1592 H 0.96492 0.47496 0.60739 0.0
H1593 H 0.92508 0.4777 0.61403 0.0
H1594 H 0.97108 0.57718 0.6472 0.0
H1595 H 0.9704 0.59626 0.61378 0.0
H1596 H 0.97755 0.53896 0.62191 0.0
H1597 H 0.92284 0.57953 0.65553 0.0
H1598 H 0.91426 0.54325 0.63233 0.0
H1599 H 0.92125 0.59989 0.62246 0.0
C1600 C 0.79091 0.02773 0.62781 0.0
C1601 C 0.80222 0.00304 0.63096 0.0
C1602 C 0.7906 0.07481 0.61735 0.0
C1603 C 0.80187 0.09771 0.61014 0.0
C1604 C 0.81327 0.07227 0.6124 0.0
C1605 C 0.81329 0.02506 0.62265 0.0
C1606 C 0.77826 0.1006 0.61478 0.0
C1607 C 0.82548 0.0956 0.60494 0.0
C1608 C 0.80143 0.20593 0.56449 0.0
C1609 C 0.80255 0.24484 0.58208 0.0
C1610 C 0.80097 0.15791 0.57341 0.0
C1611 C 0.80181 0.14855 0.60056 0.0
C1612 C 0.80289 0.18767 0.61848 0.0
C1613 C 0.80317 0.23555 0.609 0.0
C1614 C 0.79964 0.1172 0.55376 0.0
C1615 C 0.80392 0.17887 0.64759 0.0
H1616 H 0.78234 0.01083 0.63427 0.0
H1617 H 0.82207 0.00621 0.62519 0.0
H1618 H 0.77806 0.13262 0.62797 0.0
H1619 H 0.77701 0.11416 0.59449 0.0
H1620 H 0.77028 0.07666 0.61978 0.0
H1621 H 0.83348 0.07037 0.60722 0.0
H1622 H 0.82515 0.1082 0.58431 0.0
H1623 H 0.82713 0.12801 0.61738 0.0
H1624 H 0.80083 0.21299 0.54364 0.0
H1625 H 0.80403 0.26561 0.62259 0.0
H1626 H 0.79139 0.09469 0.55857 0.0
H1627 H 0.8079 0.0931 0.55467 0.0
H1628 H 0.79865 0.13082 0.53338 0.0
H1629 H 0.79571 0.15825 0.65462 0.0
H1630 H 0.8046 0.21324 0.6589 0.0
H1631 H 0.81227 0.15646 0.65179 0.0
C1632 C 0.92948 0.20345 0.1709 0.0
C1633 C 0.93688 0.23557 0.15636 0.0
C1634 C 0.92752 0.15562 0.16242 0.0
C1635 C 0.93326 0.13948 0.13906 0.0
C1636 C 0.94035 0.17236 0.12378 0.0
C1637 C 0.942 0.22021 0.13255 0.0
C1638 C 0.91972 0.12188 0.17896 0.0
C1639 C 0.94667 0.15637 0.09881 0.0
C1640 C 0.94216 0.00736 0.13039 0.0
C1641 C 0.93357 0.99227 0.11144 0.0
C1642 C 0.94185 0.0548 0.14035 0.0
C1643 C 0.93261 0.08753 0.1314 0.0
C1644 C 0.9234 0.0714 0.11364 0.0
C1645 C 0.92404 0.02396 0.1037 0.0
C1646 C 0.95187 0.07072 0.15923 0.0
C1647 C 0.91326 0.10496 0.10407 0.0
H1648 H 0.92544 0.21537 0.18927 0.0
H1649 H 0.94775 0.24494 0.12131 0.0
H1650 H 0.91272 0.10298 0.16667 0.0
H1651 H 0.92575 0.09359 0.18782 0.0
H1652 H 0.91482 0.1414 0.19497 0.0
H1653 H 0.95134 0.18695 0.08858 0.0
H1654 H 0.95373 0.12818 0.10333 0.0
H1655 H 0.9398 0.13983 0.08527 0.0
H1656 H 0.94956 0.983 0.13635 0.0
H1657 H 0.91734 0.01229 0.08912 0.0
H1658 H 0.94766 0.08771 0.17683 0.0
H1659 H 0.95784 0.09851 0.14975 0.0
H1660 H 0.95786 0.04002 0.16561 0.0
H1661 H 0.90884 0.12407 0.1208 0.0
H1662 H 0.90595 0.08522 0.09296 0.0
H1663 H 0.91734 0.13307 0.09109 0.0
C1664 C 0.82789 0.50924 0.13683 0.0
C1665 C 0.81671 0.48325 0.13874 0.0
C1666 C 0.82813 0.55622 0.12624 0.0
C1667 C 0.81692 0.57758 0.11741 0.0
C1668 C 0.80574 0.55044 0.11789 0.0
C1669 C 0.80577 0.50347 0.12853 0.0
C1670 C 0.84026 0.58389 0.12579 0.0
C1671 C 0.79361 0.57193 0.10846 0.0
C1672 C 0.81359 0.71479 0.11952 0.0
C1673 C 0.81506 0.72699 0.09308 0.0
C1674 C 0.81438 0.66625 0.12777 0.0
C1675 C 0.81672 0.62925 0.1091 0.0
C1676 C 0.81852 0.64155 0.08249 0.0
C1677 C 0.81766 0.6903 0.07479 0.0
C1678 C 0.81241 0.65442 0.15636 0.0
C1679 C 0.82109 0.60314 0.06207 0.0
H1680 H 0.83638 0.49372 0.14468 0.0
H1681 H 0.79711 0.48354 0.13 0.0
H1682 H 0.84191 0.59956 0.10608 0.0
H1683 H 0.83978 0.61459 0.13983 0.0
H1684 H 0.84831 0.56061 0.13112 0.0
H1685 H 0.78595 0.54483 0.10831 0.0
H1686 H 0.79088 0.60248 0.12143 0.0
H1687 H 0.7947 0.58685 0.08841 0.0
H1688 H 0.81156 0.74303 0.13369 0.0
H1689 H 0.81883 0.69956 0.0543 0.0
H1690 H 0.82053 0.63405 0.16409 0.0
H1691 H 0.80413 0.63074 0.15859 0.0
H1692 H 0.81105 0.6875 0.16848 0.0
H1693 H 0.82927 0.58103 0.06785 0.0
H1694 H 0.82286 0.619 0.04241 0.0
H1695 H 0.81303 0.57812 0.06063 0.0
C1696 C 0.55518 0.30056 0.86073 0.0
C1697 C 0.55341 0.28909 0.83428 0.0
C1698 C 0.55462 0.34891 0.86935 0.0
C1699 C 0.55209 0.38641 0.85109 0.0
C1700 C 0.55019 0.37495 0.8244 0.0
C1701 C 0.55094 0.32641 0.81629 0.0
C1702 C 0.55678 0.35989 0.89797 0.0
C1703 C 0.54733 0.4139 0.80445 0.0
C1704 C 0.54 0.50299 0.88118 0.0
C1705 C 0.55092 0.53053 0.88307 0.0
C1706 C 0.54011 0.45676 0.86966 0.0
C1707 C 0.55145 0.43763 0.86006 0.0
C1708 C 0.56236 0.46641 0.86058 0.0
C1709 C 0.56194 0.51273 0.87197 0.0
C1710 C 0.52825 0.42743 0.86903 0.0
C1711 C 0.57462 0.4472 0.85052 0.0
H1712 H 0.55711 0.27179 0.87465 0.0
H1713 H 0.54948 0.31765 0.79581 0.0
H1714 H 0.56471 0.38535 0.90012 0.0
H1715 H 0.54847 0.37797 0.90639 0.0
H1716 H 0.55878 0.32664 0.90957 0.0
H1717 H 0.54597 0.3988 0.78448 0.0
H1718 H 0.53879 0.43386 0.81022 0.0
H1719 H 0.55503 0.4407 0.80378 0.0
H1720 H 0.53145 0.51671 0.88969 0.0
H1721 H 0.57043 0.53384 0.87346 0.0
H1722 H 0.52907 0.39617 0.88264 0.0
H1723 H 0.52665 0.4125 0.84913 0.0
H1724 H 0.52001 0.44931 0.87483 0.0
H1725 H 0.57775 0.41662 0.86307 0.0
H1726 H 0.58199 0.47547 0.85045 0.0
H1727 H 0.57355 0.43285 0.83035 0.0
C1728 C 0.68449 0.79409 0.9048 0.0
C1729 C 0.69419 0.76061 0.90165 0.0
C1730 C 0.68485 0.83938 0.89246 0.0
C1731 C 0.69526 0.85172 0.87693 0.0
C1732 C 0.70505 0.81788 0.87342 0.0
C1733 C 0.70435 0.77232 0.8857 0.0
C1734 C 0.67412 0.87418 0.89627 0.0
C1735 C 0.71636 0.83022 0.85719 0.0
C1736 C 0.69033 0.95441 0.82884 0.0
C1737 C 0.69479 0.99429 0.84309 0.0
C1738 C 0.69072 0.90748 0.83937 0.0
C1739 C 0.69583 0.90035 0.86459 0.0
C1740 C 0.70064 0.94031 0.87881 0.0
C1741 C 0.69998 0.98701 0.86794 0.0
C1742 C 0.68533 0.86581 0.82382 0.0
C1743 C 0.70627 0.93385 0.90569 0.0
H1744 H 0.67658 0.78489 0.91701 0.0
H1745 H 0.71188 0.74646 0.88342 0.0
H1746 H 0.67743 0.90769 0.9061 0.0
H1747 H 0.67025 0.88505 0.87699 0.0
H1748 H 0.66652 0.8582 0.90823 0.0
H1749 H 0.72306 0.79958 0.85608 0.0
H1750 H 0.71351 0.84027 0.83702 0.0
H1751 H 0.72116 0.86218 0.86574 0.0
H1752 H 0.68632 0.95996 0.80959 0.0
H1753 H 0.70354 0.01778 0.87886 0.0
H1754 H 0.67722 0.8504 0.83439 0.0
H1755 H 0.6923 0.83633 0.82177 0.0
H1756 H 0.68226 0.87715 0.80396 0.0
H1757 H 0.69902 0.92152 0.91963 0.0
H1758 H 0.71043 0.96799 0.91329 0.0
H1759 H 0.71358 0.90539 0.90516 0.0
C1760 C 0.56426 0.81712 0.32526 0.0
C1761 C 0.56354 0.77878 0.3433 0.0
C1762 C 0.56398 0.86559 0.33361 0.0
C1763 C 0.563 0.87587 0.36066 0.0
C1764 C 0.56245 0.83732 0.37902 0.0
C1765 C 0.56271 0.78913 0.37009 0.0
C1766 C 0.56455 0.90576 0.3135 0.0
C1767 C 0.56144 0.84699 0.40806 0.0
C1768 C 0.57246 0.99817 0.38823 0.0
C1769 C 0.56085 0.01968 0.39288 0.0
C1770 C 0.57333 0.95199 0.3768 0.0
C1771 C 0.56233 0.92693 0.36987 0.0
C1772 C 0.55061 0.94964 0.37316 0.0
C1773 C 0.55001 0.99584 0.38465 0.0
C1774 C 0.58599 0.92902 0.3734 0.0
C1775 C 0.53868 0.92416 0.36578 0.0
H1776 H 0.56487 0.80929 0.30449 0.0
H1777 H 0.56215 0.75959 0.38408 0.0
H1778 H 0.55593 0.92788 0.31442 0.0
H1779 H 0.57245 0.93038 0.31782 0.0
H1780 H 0.56562 0.89159 0.29325 0.0
H1781 H 0.56138 0.81298 0.41977 0.0
H1782 H 0.56934 0.86984 0.41464 0.0
H1783 H 0.55277 0.86745 0.41224 0.0
H1784 H 0.58087 0.0165 0.39456 0.0
H1785 H 0.54101 0.01235 0.38821 0.0
H1786 H 0.58713 0.91535 0.3531 0.0
H1787 H 0.58687 0.89738 0.38673 0.0
H1788 H 0.59366 0.95484 0.37772 0.0
H1789 H 0.5392 0.91058 0.34535 0.0
H1790 H 0.53044 0.9483 0.3676 0.0
H1791 H 0.53729 0.89218 0.37868 0.0
C1792 C 0.6783 0.27917 0.39773 0.0
C1793 C 0.68662 0.24264 0.39012 0.0
C1794 C 0.67884 0.32537 0.3863 0.0
C1795 C 0.6881 0.33522 0.36733 0.0
C1796 C 0.69627 0.29798 0.35903 0.0
C1797 C 0.69533 0.25183 0.37036 0.0
C1798 C 0.6698 0.36402 0.39513 0.0
C1799 C 0.70638 0.30746 0.33911 0.0
C1800 C 0.68554 0.44535 0.32341 0.0
C1801 C 0.69317 0.47864 0.33653 0.0
C1802 C 0.68357 0.39876 0.33354 0.0
C1803 C 0.68962 0.38503 0.35698 0.0
C1804 C 0.69735 0.41855 0.37031 0.0
C1805 C 0.69892 0.46535 0.36004 0.0
C1806 C 0.67506 0.36422 0.31914 0.0
C1807 C 0.70413 0.4047 0.39513 0.0
H1808 H 0.67154 0.27191 0.41299 0.0
H1809 H 0.70184 0.22365 0.36467 0.0
H1810 H 0.67488 0.39313 0.40567 0.0
H1811 H 0.66522 0.38101 0.37794 0.0
H1812 H 0.6625 0.34928 0.40834 0.0
H1813 H 0.71165 0.27404 0.33406 0.0
H1814 H 0.70232 0.32274 0.32091 0.0
H1815 H 0.71299 0.33477 0.34696 0.0
H1816 H 0.681 0.45592 0.30532 0.0
H1817 H 0.70486 0.49116 0.37008 0.0
H1818 H 0.66764 0.35109 0.33248 0.0
H1819 H 0.68038 0.33194 0.31253 0.0
H1820 H 0.67063 0.38138 0.30178 0.0
H1821 H 0.69737 0.39351 0.41038 0.0
H1822 H 0.70985 0.43499 0.40298 0.0
H1823 H 0.71031 0.37315 0.39135 0.0
C1824 C 0.42775 0.52441 0.1113 0.0
C1825 C 0.43715 0.49291 0.11993 0.0
C1826 C 0.42672 0.57153 0.12144 0.0
C1827 C 0.43534 0.58742 0.14053 0.0
C1828 C 0.44444 0.5549 0.15031 0.0
C1829 C 0.4452 0.50785 0.13993 0.0
C1830 C 0.41679 0.605 0.11082 0.0
C1831 C 0.45377 0.5706 0.17074 0.0
C1832 C 0.44326 0.72135 0.14486 0.0
C1833 C 0.4368 0.7351 0.16749 0.0
C1834 C 0.44265 0.67348 0.13555 0.0
C1835 C 0.43536 0.63885 0.14916 0.0
C1836 C 0.42847 0.65299 0.17147 0.0
C1837 C 0.4293 0.70099 0.18041 0.0
C1838 C 0.45011 0.65961 0.11162 0.0
C1839 C 0.42052 0.61714 0.18633 0.0
H1840 H 0.42147 0.51287 0.09588 0.0
H1841 H 0.45249 0.48361 0.14659 0.0
H1842 H 0.41157 0.62222 0.1271 0.0
H1843 H 0.42121 0.63459 0.09937 0.0
H1844 H 0.4101 0.58567 0.09792 0.0
H1845 H 0.45968 0.54 0.17754 0.0
H1846 H 0.45989 0.59922 0.16248 0.0
H1847 H 0.44893 0.5865 0.18791 0.0
H1848 H 0.44908 0.74763 0.13487 0.0
H1849 H 0.42425 0.71155 0.19789 0.0
H1850 H 0.44395 0.64309 0.09664 0.0
H1851 H 0.45718 0.63195 0.11699 0.0
H1852 H 0.45494 0.69125 0.10275 0.0
H1853 H 0.41394 0.59883 0.17283 0.0
H1854 H 0.41512 0.63472 0.20229 0.0
H1855 H 0.4265 0.58854 0.19504 0.0
C1856 C 0.29942 0.00971 0.12405 0.0
C1857 C 0.31028 0.988 0.13372 0.0
C1858 C 0.29966 0.05684 0.11361 0.0
C1859 C 0.31103 0.08269 0.11286 0.0
C1860 C 0.32213 0.06003 0.12144 0.0
C1861 C 0.32162 0.01287 0.13174 0.0
C1862 C 0.28766 0.0797 0.10439 0.0
C1863 C 0.33445 0.08634 0.12077 0.0
C1864 C 0.31362 0.19306 0.06888 0.0
C1865 C 0.31181 0.23125 0.08669 0.0
C1866 C 0.31337 0.14455 0.07712 0.0
C1867 C 0.31128 0.13395 0.10384 0.0
C1868 C 0.30949 0.17231 0.12198 0.0
C1869 C 0.30976 0.22063 0.11316 0.0
C1870 C 0.31529 0.10465 0.0572 0.0
C1871 C 0.30726 0.16225 0.15067 0.0
H1872 H 0.29062 0.99067 0.12561 0.0
H1873 H 0.33004 0.99627 0.13924 0.0
H1874 H 0.2853 0.11101 0.11715 0.0
H1875 H 0.28874 0.09386 0.08417 0.0
H1876 H 0.27976 0.05367 0.10471 0.0
H1877 H 0.34231 0.06265 0.12679 0.0
H1878 H 0.33632 0.10031 0.10077 0.0
H1879 H 0.33411 0.11814 0.1341 0.0
H1880 H 0.31518 0.20102 0.04835 0.0
H1881 H 0.30833 0.25004 0.12696 0.0
H1882 H 0.30708 0.08027 0.05689 0.0
H1883 H 0.32345 0.0822 0.06273 0.0
H1884 H 0.31679 0.11908 0.03713 0.0
H1885 H 0.29881 0.13956 0.15307 0.0
H1886 H 0.30607 0.19612 0.16224 0.0
H1887 H 0.31519 0.14146 0.15891 0.0
C1888 C 0.42321 0.23999 0.63421 0.0
C1889 C 0.4345 0.26551 0.6344 0.0
C1890 C 0.4225 0.19276 0.62403 0.0
C1891 C 0.43335 0.17064 0.6138 0.0
C1892 C 0.44461 0.19723 0.61263 0.0
C1893 C 0.44505 0.24445 0.62293 0.0
C1894 C 0.4103 0.16571 0.6254 0.0
C1895 C 0.45635 0.17496 0.60166 0.0
C1896 C 0.43647 0.03326 0.61541 0.0
C1897 C 0.43425 0.02122 0.58917 0.0
C1898 C 0.43594 0.08178 0.62382 0.0
C1899 C 0.4331 0.11892 0.60553 0.0
C1900 C 0.43045 0.10672 0.57922 0.0
C1901 C 0.43107 0.05801 0.57136 0.0
C1902 C 0.43878 0.09347 0.65209 0.0
C1903 C 0.42732 0.14525 0.55921 0.0
H1904 H 0.41503 0.25612 0.64306 0.0
H1905 H 0.4538 0.26398 0.62307 0.0
H1906 H 0.40795 0.15003 0.606 0.0
H1907 H 0.41114 0.13504 0.63939 0.0
H1908 H 0.40252 0.18941 0.63184 0.0
H1909 H 0.4641 0.20154 0.60052 0.0
H1910 H 0.45931 0.14419 0.61423 0.0
H1911 H 0.4546 0.16018 0.58178 0.0
H1912 H 0.43896 0.00496 0.62921 0.0
H1913 H 0.42931 0.04888 0.55103 0.0
H1914 H 0.43102 0.11451 0.66084 0.0
H1915 H 0.44724 0.11648 0.65323 0.0
H1916 H 0.44033 0.06029 0.66404 0.0
H1917 H 0.41947 0.16794 0.56622 0.0
H1918 H 0.42479 0.12945 0.53991 0.0
H1919 H 0.43542 0.16969 0.55647 0.0
C1920 C 0.30285 0.55569 0.66764 0.0
C1921 C 0.30943 0.51595 0.65759 0.0
C1922 C 0.30368 0.60145 0.65585 0.0
C1923 C 0.31164 0.60788 0.63405 0.0
C1924 C 0.31869 0.56819 0.62442 0.0
C1925 C 0.3173 0.52225 0.63604 0.0
C1926 C 0.29568 0.64238 0.66611 0.0
C1927 C 0.32755 0.57416 0.60173 0.0
C1928 C 0.3032 0.70922 0.5873 0.0
C1929 C 0.31052 0.74749 0.59671 0.0
C1930 C 0.30359 0.66342 0.59914 0.0
C1931 C 0.31183 0.65534 0.6203 0.0
C1932 C 0.3196 0.69347 0.62928 0.0
C1933 C 0.31866 0.73958 0.61765 0.0
C1934 C 0.29485 0.62426 0.58959 0.0
C1935 C 0.32877 0.68564 0.65127 0.0
H1936 H 0.29668 0.55058 0.68423 0.0
H1937 H 0.32247 0.49144 0.62849 0.0
H1938 H 0.30156 0.67372 0.67178 0.0
H1939 H 0.28928 0.65504 0.65048 0.0
H1940 H 0.29004 0.63132 0.68335 0.0
H1941 H 0.33324 0.54105 0.59834 0.0
H1942 H 0.32226 0.58227 0.58359 0.0
H1943 H 0.33388 0.6053 0.60533 0.0
H1944 H 0.29683 0.71559 0.57119 0.0
H1945 H 0.32439 0.76923 0.6247 0.0
H1946 H 0.2886 0.6129 0.60578 0.0
H1947 H 0.30018 0.59175 0.58342 0.0
H1948 H 0.28903 0.63654 0.57286 0.0
H1949 H 0.32371 0.67853 0.6698 0.0
H1950 H 0.33493 0.71754 0.6542 0.0
H1951 H 0.33461 0.65327 0.64716 0.0
C1952 C 0.06098 0.73594 0.36694 0.0
C1953 C 0.05222 0.72679 0.38665 0.0
C1954 C 0.06153 0.78141 0.35449 0.0
C1955 C 0.05291 0.81812 0.36148 0.0
C1956 C 0.04369 0.80823 0.38057 0.0
C1957 C 0.04357 0.7629 0.39319 0.0
C1958 C 0.07168 0.79083 0.33468 0.0
C1959 C 0.03415 0.84596 0.38814 0.0
C1960 C 0.0623 0.95016 0.35312 0.0
C1961 C 0.05664 0.96233 0.32927 0.0
C1962 C 0.06125 0.90326 0.36361 0.0
C1963 C 0.05409 0.86789 0.35026 0.0
C1964 C 0.04818 0.88018 0.32635 0.0
C1965 C 0.04966 0.92716 0.31594 0.0
C1966 C 0.06793 0.89143 0.38885 0.0
C1967 C 0.04023 0.84382 0.31188 0.0
H1968 H 0.06773 0.70816 0.36194 0.0
H1969 H 0.03672 0.75577 0.4083 0.0
H1970 H 0.06762 0.80406 0.31603 0.0
H1971 H 0.07796 0.81972 0.34209 0.0
H1972 H 0.07731 0.75785 0.33057 0.0
H1973 H 0.02689 0.83102 0.40137 0.0
H1974 H 0.03879 0.87668 0.39823 0.0
H1975 H 0.02956 0.86083 0.37039 0.0
H1976 H 0.06779 0.97715 0.36339 0.0
H1977 H 0.04523 0.93656 0.29755 0.0
H1978 H 0.07432 0.86026 0.3858 0.0
H1979 H 0.06112 0.88052 0.40407 0.0
H1980 H 0.07341 0.92266 0.39639 0.0
H1981 H 0.04592 0.81188 0.30622 0.0
H1982 H 0.03597 0.85948 0.29394 0.0
H1983 H 0.0327 0.83048 0.32489 0.0
C1984 C 0.20658 0.51142 0.38377 0.0
C1985 C 0.19715 0.51829 0.40236 0.0
C1986 C 0.20817 0.46632 0.37129 0.0
C1987 C 0.19985 0.42779 0.3769 0.0
C1988 C 0.19029 0.43471 0.39563 0.0
C1989 C 0.18919 0.47964 0.40845 0.0
C1990 C 0.21872 0.45992 0.35207 0.0
C1991 C 0.18101 0.39508 0.40165 0.0
C1992 C 0.19536 0.32872 0.32583 0.0
C1993 C 0.20153 0.28939 0.33744 0.0
C1994 C 0.1948 0.37406 0.3384 0.0
C1995 C 0.2009 0.3806 0.36274 0.0
C1996 C 0.20757 0.34143 0.37402 0.0
C1997 C 0.20762 0.29602 0.36144 0.0
C1998 C 0.18729 0.41442 0.32608 0.0
C1999 C 0.21453 0.34733 0.39951 0.0
H2000 H 0.21279 0.54123 0.37916 0.0
H2001 H 0.18182 0.48505 0.42266 0.0
H2002 H 0.22443 0.42793 0.35761 0.0
H2003 H 0.21495 0.4529 0.33221 0.0
H2004 H 0.22484 0.49237 0.35116 0.0
H2005 H 0.17401 0.40654 0.41643 0.0
H2006 H 0.17606 0.38436 0.38346 0.0
H2007 H 0.18589 0.36237 0.40908 0.0
H2008 H 0.19054 0.32349 0.30739 0.0
H2009 H 0.21245 0.26566 0.37037 0.0
H2010 H 0.19322 0.44683 0.32291 0.0
H2011 H 0.17966 0.42535 0.3395 0.0
H2012 H 0.18316 0.40354 0.30701 0.0
H2013 H 0.22083 0.37917 0.39841 0.0
H2014 H 0.22011 0.31465 0.40451 0.0
H2015 H 0.20786 0.35424 0.41566 0.0
C2016 C 0.04345 0.43382 0.83997 0.0
C2017 C 0.0534 0.46486 0.84579 0.0
C2018 C 0.04271 0.38727 0.85126 0.0
C2019 C 0.05229 0.37117 0.86824 0.0
C2020 C 0.06239 0.40239 0.87399 0.0
C2021 C 0.06275 0.44896 0.86293 0.0
C2022 C 0.03167 0.35537 0.84509 0.0
C2023 C 0.07293 0.38637 0.89158 0.0
C2024 C 0.04806 0.26822 0.91704 0.0
C2025 C 0.05377 0.22943 0.90393 0.0
C2026 C 0.04697 0.31406 0.90514 0.0
C2027 C 0.05198 0.32149 0.87979 0.0
C2028 C 0.05754 0.28213 0.86629 0.0
C2029 C 0.05825 0.23644 0.87842 0.0
C2030 C 0.04076 0.35484 0.91997 0.0
C2031 C 0.06321 0.28874 0.83946 0.0
H2032 H 0.03618 0.4461 0.82681 0.0
H2033 H 0.07051 0.47271 0.86736 0.0
H2034 H 0.03484 0.32167 0.83522 0.0
H2035 H 0.02697 0.34435 0.86351 0.0
H2036 H 0.0248 0.37387 0.83227 0.0
H2037 H 0.08019 0.41477 0.89375 0.0
H2038 H 0.0693 0.37717 0.9113 0.0
H2039 H 0.07733 0.35309 0.88353 0.0
H2040 H 0.04449 0.26283 0.93669 0.0
H2041 H 0.06271 0.20657 0.86825 0.0
H2042 H 0.03359 0.37248 0.90755 0.0
H2043 H 0.04774 0.38297 0.92504 0.0
H2044 H 0.0363 0.34202 0.93834 0.0
H2045 H 0.05629 0.30463 0.8258 0.0
H2046 H 0.06665 0.254 0.83108 0.0
H2047 H 0.07112 0.31455 0.84069 0.0
C2048 C 0.20688 0.98056 0.90034 0.0
C2049 C 0.19789 0.01554 0.89398 0.0
C2050 C 0.20705 0.93517 0.88778 0.0
C2051 C 0.1978 0.92407 0.86893 0.0
C2052 C 0.18881 0.95958 0.86221 0.0
C2053 C 0.18906 0.00513 0.87459 0.0
C2054 C 0.21697 0.89875 0.89505 0.0
C2055 C 0.17862 0.9488 0.84269 0.0
C2056 C 0.20166 0.81659 0.82259 0.0
C2057 C 0.195 0.78032 0.83579 0.0
C2058 C 0.20289 0.86338 0.83337 0.0
C2059 C 0.19704 0.87433 0.85754 0.0
C2060 C 0.19026 0.83778 0.87084 0.0
C2061 C 0.18947 0.79111 0.85996 0.0
C2062 C 0.21044 0.90105 0.81894 0.0
C2063 C 0.18366 0.84817 0.89636 0.0
H2064 H 0.21378 0.98867 0.9152 0.0
H2065 H 0.18207 0.03204 0.86973 0.0
H2066 H 0.21266 0.86719 0.90504 0.0
H2067 H 0.22163 0.88486 0.87716 0.0
H2068 H 0.22412 0.91452 0.90825 0.0
H2069 H 0.17259 0.98084 0.83897 0.0
H2070 H 0.18269 0.93672 0.82382 0.0
H2071 H 0.17274 0.91867 0.85009 0.0
H2072 H 0.20599 0.80827 0.80394 0.0
H2073 H 0.18422 0.76327 0.87014 0.0
H2074 H 0.21784 0.9155 0.83193 0.0
H2075 H 0.20441 0.93209 0.81336 0.0
H2076 H 0.21483 0.88619 0.80095 0.0
H2077 H 0.19046 0.86006 0.91138 0.0
H2078 H 0.17859 0.81596 0.90396 0.0
H2079 H 0.17692 0.87826 0.89363 0.0
C2080 C 0.94319 0.17522 0.5768 0.0
C2081 C 0.95006 0.21431 0.58679 0.0
C2082 C 0.9436 0.12937 0.58886 0.0
C2083 C 0.95132 0.12214 0.61102 0.0
C2084 C 0.95874 0.16095 0.62037 0.0
C2085 C 0.95788 0.20678 0.60838 0.0
C2086 C 0.93531 0.08934 0.57864 0.0
C2087 C 0.96734 0.15443 0.64349 0.0
C2088 C 0.94228 0.02449 0.6601 0.0
C2089 C 0.94976 0.98537 0.6523 0.0
C2090 C 0.94266 0.06901 0.64672 0.0
C2091 C 0.95098 0.07504 0.62545 0.0
C2092 C 0.95877 0.03596 0.61787 0.0
C2093 C 0.95793 0.9913 0.63115 0.0
C2094 C 0.93398 0.1093 0.65506 0.0
C2095 C 0.968 0.04138 0.59577 0.0
H2096 H 0.93706 0.18103 0.56023 0.0
H2097 H 0.96326 0.2369 0.61606 0.0
H2098 H 0.94089 0.05641 0.57429 0.0
H2099 H 0.92841 0.07926 0.59387 0.0
H2100 H 0.93023 0.10021 0.56063 0.0
H2101 H 0.97341 0.18657 0.64663 0.0
H2102 H 0.9618 0.14833 0.66151 0.0
H2103 H 0.97331 0.12195 0.64062 0.0
H2104 H 0.93587 0.01991 0.67631 0.0
H2105 H 0.96377 0.96116 0.62517 0.0
H2106 H 0.92802 0.12033 0.63832 0.0
H2107 H 0.93941 0.14166 0.66108 0.0
H2108 H 0.92788 0.09839 0.67161 0.0
H2109 H 0.96302 0.04906 0.5772 0.0
H2110 H 0.97377 0.00829 0.59306 0.0
H2111 H 0.97423 0.07268 0.59965 0.0
C2112 C 0.80409 0.56051 0.57292 0.0
C2113 C 0.79763 0.52091 0.58351 0.0
C2114 C 0.80409 0.60583 0.58553 0.0
C2115 C 0.79718 0.612 0.60893 0.0
C2116 C 0.79026 0.57257 0.61917 0.0
C2117 C 0.79071 0.52726 0.60652 0.0
C2118 C 0.81181 0.64662 0.57429 0.0
C2119 C 0.78254 0.57803 0.64369 0.0
C2120 C 0.80735 0.71169 0.65578 0.0
C2121 C 0.79942 0.74992 0.64873 0.0
C2122 C 0.80669 0.66658 0.64303 0.0
C2123 C 0.79766 0.65915 0.62323 0.0
C2124 C 0.78937 0.69722 0.61661 0.0
C2125 C 0.79046 0.74242 0.6292 0.0
C2126 C 0.81588 0.62731 0.65028 0.0
C2127 C 0.77941 0.69033 0.59609 0.0
H2128 H 0.80954 0.5556 0.55524 0.0
H2129 H 0.78566 0.49673 0.61468 0.0
H2130 H 0.80588 0.67881 0.57045 0.0
H2131 H 0.819 0.65775 0.5887 0.0
H2132 H 0.81652 0.6361 0.55577 0.0
H2133 H 0.77695 0.54503 0.64795 0.0
H2134 H 0.78868 0.58534 0.66068 0.0
H2135 H 0.77615 0.6095 0.64174 0.0
H2136 H 0.81435 0.7175 0.67075 0.0
H2137 H 0.78428 0.77188 0.62381 0.0
H2138 H 0.82146 0.61708 0.63282 0.0
H2139 H 0.81088 0.59426 0.65685 0.0
H2140 H 0.82234 0.6389 0.66608 0.0
H2141 H 0.78377 0.68357 0.57674 0.0
H2142 H 0.77321 0.72247 0.5944 0.0
H2143 H 0.77367 0.65804 0.60087 0.0
C2144 C 0.94812 0.50999 0.13019 0.0
C2145 C 0.95454 0.4997 0.15345 0.0
C2146 C 0.9481 0.55694 0.11951 0.0
C2147 C 0.95485 0.59439 0.13214 0.0
C2148 C 0.9618 0.58372 0.155 0.0
C2149 C 0.96147 0.53656 0.16555 0.0
C2150 C 0.94042 0.56691 0.09532 0.0
C2151 C 0.9693 0.62244 0.16873 0.0
C2152 C 0.96018 0.7089 0.09188 0.0
C2153 C 0.95068 0.73924 0.10121 0.0
C2154 C 0.96196 0.66223 0.10243 0.0
C2155 C 0.95389 0.64524 0.12235 0.0
C2156 C 0.94441 0.67608 0.13206 0.0
C2157 C 0.943 0.72284 0.12155 0.0
C2158 C 0.97233 0.63077 0.09193 0.0
C2159 C 0.93547 0.65913 0.15299 0.0
H2160 H 0.94271 0.48169 0.1208 0.0
H2161 H 0.96649 0.52872 0.18347 0.0
H2162 H 0.9329 0.59309 0.10011 0.0
H2163 H 0.94626 0.58376 0.0799 0.0
H2164 H 0.93612 0.53342 0.08725 0.0
H2165 H 0.97513 0.60728 0.18474 0.0
H2166 H 0.97543 0.64139 0.15454 0.0
H2167 H 0.96296 0.65006 0.17721 0.0
H2168 H 0.96618 0.72156 0.07625 0.0
H2169 H 0.93561 0.74608 0.12876 0.0
H2170 H 0.96836 0.59873 0.08176 0.0
H2171 H 0.97814 0.61696 0.10829 0.0
H2172 H 0.9784 0.65067 0.07796 0.0
H2173 H 0.93013 0.62734 0.14575 0.0
H2174 H 0.92878 0.68795 0.15883 0.0
H2175 H 0.94067 0.64722 0.17062 0.0
C2176 C 0.81362 0.19386 0.17202 0.0
C2177 C 0.80585 0.23219 0.1644 0.0
C2178 C 0.81267 0.14802 0.16016 0.0
C2179 C 0.80341 0.1399 0.1409 0.0
C2180 C 0.79514 0.17795 0.13407 0.0
C2181 C 0.79663 0.22399 0.14553 0.0
C2182 C 0.82192 0.10898 0.1674 0.0
C2183 C 0.78487 0.17027 0.11432 0.0
C2184 C 0.80934 0.04134 0.09033 0.0
C2185 C 0.80323 0.00145 0.10145 0.0
C2186 C 0.80945 0.08659 0.10297 0.0
C2187 C 0.8029 0.09251 0.12684 0.0
C2188 C 0.7963 0.05271 0.13763 0.0
C2189 C 0.79675 0.0073 0.12505 0.0
C2190 C 0.81694 0.12759 0.09123 0.0
C2191 C 0.78884 0.05802 0.16251 0.0
H2192 H 0.82084 0.20036 0.18644 0.0
H2193 H 0.79057 0.25362 0.13976 0.0
H2194 H 0.81701 0.07596 0.17426 0.0
H2195 H 0.82741 0.09857 0.14985 0.0
H2196 H 0.82846 0.12095 0.18297 0.0
H2197 H 0.77845 0.20182 0.11327 0.0
H2198 H 0.78894 0.16431 0.09462 0.0
H2199 H 0.77943 0.13733 0.11937 0.0
H2200 H 0.81445 0.03666 0.07219 0.0
H2201 H 0.79197 0.97645 0.13356 0.0
H2202 H 0.82411 0.13981 0.1054 0.0
H2203 H 0.81083 0.15914 0.08713 0.0
H2204 H 0.82164 0.11683 0.07274 0.0
H2205 H 0.79515 0.06578 0.17919 0.0
H2206 H 0.78341 0.02479 0.16712 0.0
H2207 H 0.78234 0.08918 0.1608 0.0
C2208 C 0.56015 0.81555 0.91498 0.0
C2209 C 0.5509 0.78151 0.90888 0.0
C2210 C 0.56033 0.86149 0.903 0.0
C2211 C 0.55086 0.87412 0.88494 0.0
C2212 C 0.54127 0.84038 0.87934 0.0
C2213 C 0.54149 0.79424 0.89113 0.0
C2214 C 0.57086 0.89599 0.9091 0.0
C2215 C 0.53086 0.85281 0.86066 0.0
C2216 C 0.54639 0.00856 0.8699 0.0
C2217 C 0.55223 0.01279 0.84545 0.0
C2218 C 0.54569 0.96351 0.8828 0.0
C2219 C 0.55122 0.92199 0.87126 0.0
C2220 C 0.55722 0.92624 0.84665 0.0
C2221 C 0.55752 0.97145 0.83391 0.0
C2222 C 0.53898 0.96028 0.90872 0.0
C2223 C 0.56346 0.88313 0.83391 0.0
H2224 H 0.56749 0.80572 0.92855 0.0
H2225 H 0.53429 0.76809 0.88646 0.0
H2226 H 0.5761 0.90425 0.89092 0.0
H2227 H 0.56712 0.93085 0.91663 0.0
H2228 H 0.57742 0.88088 0.9238 0.0
H2229 H 0.5237 0.82377 0.85968 0.0
H2230 H 0.52631 0.88719 0.86674 0.0
H2231 H 0.53466 0.85859 0.84071 0.0
H2232 H 0.54223 0.04039 0.87881 0.0
H2233 H 0.5621 0.97463 0.81507 0.0
H2234 H 0.5455 0.94826 0.92425 0.0
H2235 H 0.53146 0.93274 0.90752 0.0
H2236 H 0.53483 0.99557 0.91466 0.0
H2237 H 0.57064 0.86799 0.84724 0.0
H2238 H 0.56795 0.89272 0.81501 0.0
H2239 H 0.55655 0.85401 0.8303 0.0
C2240 C 0.68852 0.48828 0.88683 0.0
C2241 C 0.69558 0.49724 0.90939 0.0
C2242 C 0.68854 0.44237 0.87492 0.0
C2243 C 0.6961 0.40496 0.88537 0.0
C2244 C 0.70344 0.41413 0.90788 0.0
C2245 C 0.70294 0.46003 0.91989 0.0
C2246 C 0.68031 0.4337 0.85139 0.0
C2247 C 0.71187 0.37557 0.91917 0.0
C2248 C 0.68779 0.27421 0.86917 0.0
C2249 C 0.69549 0.26501 0.8476 0.0
C2250 C 0.68789 0.31963 0.88167 0.0
C2251 C 0.69617 0.35614 0.87284 0.0
C2252 C 0.70421 0.34652 0.85148 0.0
C2253 C 0.70363 0.30127 0.83884 0.0
C2254 C 0.67894 0.32891 0.9039 0.0
C2255 C 0.71338 0.38406 0.84193 0.0
H2256 H 0.68273 0.51693 0.87883 0.0
H2257 H 0.70846 0.46706 0.93726 0.0
H2258 H 0.68605 0.4232 0.83425 0.0
H2259 H 0.67385 0.40318 0.8554 0.0
H2260 H 0.67475 0.46629 0.8461 0.0
H2261 H 0.71737 0.38914 0.93607 0.0
H2262 H 0.70628 0.34397 0.92571 0.0
H2263 H 0.71838 0.36233 0.90388 0.0
H2264 H 0.68144 0.24626 0.87586 0.0
H2265 H 0.70967 0.29402 0.82228 0.0
H2266 H 0.67275 0.35981 0.89888 0.0
H2267 H 0.68411 0.33917 0.92185 0.0
H2268 H 0.67308 0.29671 0.90835 0.0
H2269 H 0.70833 0.41621 0.83428 0.0
H2270 H 0.71952 0.36979 0.82619 0.0
H2271 H 0.71928 0.39668 0.85843 0.0
C2272 C 0.56401 0.4948 0.37652 0.0
C2273 C 0.55785 0.50309 0.35273 0.0
C2274 C 0.56364 0.44901 0.38867 0.0
C2275 C 0.55671 0.41093 0.37704 0.0
C2276 C 0.55021 0.41952 0.35334 0.0
C2277 C 0.55098 0.46534 0.34131 0.0
C2278 C 0.5709 0.44107 0.41362 0.0
C2279 C 0.54252 0.38021 0.34059 0.0
C2280 C 0.56531 0.28018 0.39289 0.0
C2281 C 0.55665 0.26843 0.41243 0.0
C2282 C 0.56549 0.3265 0.38139 0.0
C2283 C 0.5566 0.36166 0.3892 0.0
C2284 C 0.54772 0.34975 0.40866 0.0
C2285 C 0.54794 0.30342 0.42027 0.0
C2286 C 0.57527 0.338 0.3611 0.0
C2287 C 0.53794 0.38586 0.41712 0.0
H2288 H 0.56938 0.52382 0.38535 0.0
H2289 H 0.54614 0.47171 0.32299 0.0
H2290 H 0.56461 0.42865 0.42946 0.0
H2291 H 0.57794 0.41209 0.41057 0.0
H2292 H 0.57575 0.47452 0.42026 0.0
H2293 H 0.53746 0.39354 0.32302 0.0
H2294 H 0.5486 0.3496 0.33464 0.0
H2295 H 0.53565 0.36565 0.35478 0.0
H2296 H 0.57212 0.25334 0.38688 0.0
H2297 H 0.5412 0.29439 0.43529 0.0
H2298 H 0.58085 0.36978 0.36749 0.0
H2299 H 0.57078 0.34787 0.34228 0.0
H2300 H 0.58167 0.30696 0.3576 0.0
H2301 H 0.54244 0.41857 0.42553 0.0
H2302 H 0.53147 0.3705 0.43193 0.0
H2303 H 0.53245 0.39792 0.39989 0.0
C2304 C 0.70665 0.94872 0.41252 0.0
C2305 C 0.69752 0.98071 0.40324 0.0
C2306 C 0.70812 0.90242 0.40127 0.0
C2307 C 0.70004 0.88764 0.38082 0.0
C2308 C 0.69073 0.91975 0.37167 0.0
C2309 C 0.68969 0.96607 0.38277 0.0
C2310 C 0.71833 0.8695 0.4111 0.0
C2311 C 0.68174 0.90502 0.35033 0.0
C2312 C 0.70763 0.78623 0.33306 0.0
C2313 C 0.70077 0.7476 0.34353 0.0
C2314 C 0.70802 0.83144 0.34576 0.0
C2315 C 0.7011 0.83839 0.36907 0.0
C2316 C 0.69432 0.79919 0.37994 0.0
C2317 C 0.69436 0.75407 0.36718 0.0
C2318 C 0.71557 0.8721 0.33389 0.0
C2319 C 0.68658 0.80545 0.40439 0.0
H2320 H 0.71275 0.96016 0.42826 0.0
H2321 H 0.68256 0.99064 0.37568 0.0
H2322 H 0.71426 0.83565 0.41918 0.0
H2323 H 0.72448 0.85886 0.39461 0.0
H2324 H 0.72407 0.88701 0.42653 0.0
H2325 H 0.67484 0.93393 0.34591 0.0
H2326 H 0.6869 0.89638 0.33211 0.0
H2327 H 0.67666 0.87171 0.35625 0.0
H2328 H 0.71269 0.78113 0.31489 0.0
H2329 H 0.68902 0.72424 0.37528 0.0
H2330 H 0.72167 0.88873 0.34895 0.0
H2331 H 0.70925 0.90099 0.32661 0.0
H2332 H 0.72143 0.85942 0.31732 0.0
H2333 H 0.69235 0.82028 0.42052 0.0
H2334 H 0.68234 0.77076 0.41102 0.0
H2335 H 0.67901 0.83197 0.40061 0.0
C2336 C 0.44194 0.22403 0.12899 0.0
C2337 C 0.45103 0.23895 0.11103 0.0
C2338 C 0.44233 0.17766 0.14032 0.0
C2339 C 0.45221 0.14574 0.13396 0.0
C2340 C 0.46162 0.16109 0.11638 0.0
C2341 C 0.46084 0.2074 0.10487 0.0
C2342 C 0.43199 0.1624 0.15858 0.0
C2343 C 0.47242 0.12842 0.10954 0.0
C2344 C 0.45654 0.04006 0.18107 0.0
C2345 C 0.45045 0.00247 0.16771 0.0
C2346 C 0.45766 0.08647 0.16984 0.0
C2347 C 0.45233 0.09564 0.14495 0.0
C2348 C 0.44638 0.0575 0.1312 0.0
C2349 C 0.44563 0.01127 0.14264 0.0
C2350 C 0.46429 0.12596 0.18487 0.0
C2351 C 0.44038 0.06595 0.10483 0.0
H2352 H 0.4343 0.24823 0.13371 0.0
H2353 H 0.46792 0.21894 0.09109 0.0
H2354 H 0.42714 0.13015 0.15047 0.0
H2355 H 0.43588 0.15177 0.17787 0.0
H2356 H 0.42504 0.19171 0.16168 0.0
H2357 H 0.47936 0.14689 0.09687 0.0
H2358 H 0.47712 0.11586 0.12766 0.0
H2359 H 0.46899 0.09565 0.09917 0.0
H2360 H 0.46034 0.0333 0.2004 0.0
H2361 H 0.44087 0.98236 0.13228 0.0
H2362 H 0.45754 0.15452 0.19065 0.0
H2363 H 0.47142 0.14347 0.1723 0.0
H2364 H 0.46888 0.1119 0.20283 0.0
H2365 H 0.43273 0.09277 0.10685 0.0
H2366 H 0.43652 0.03205 0.09629 0.0
H2367 H 0.44724 0.0814 0.09091 0.0
C2368 C 0.2931 0.72595 0.13622 0.0
C2369 C 0.30032 0.73443 0.15862 0.0
C2370 C 0.29288 0.67996 0.12427 0.0
C2371 C 0.30039 0.6421 0.13444 0.0
C2372 C 0.30749 0.65028 0.15742 0.0
C2373 C 0.30721 0.69615 0.16946 0.0
C2374 C 0.28488 0.6723 0.10032 0.0
C2375 C 0.31588 0.61139 0.16851 0.0
C2376 C 0.29569 0.5102 0.11407 0.0
C2377 C 0.30439 0.50548 0.09377 0.0
C2378 C 0.29401 0.55482 0.12702 0.0
C2379 C 0.30153 0.59511 0.12009 0.0
C2380 C 0.31038 0.59029 0.09968 0.0
C2381 C 0.31155 0.54577 0.0865 0.0
C2382 C 0.28421 0.5589 0.14808 0.0
C2383 C 0.31881 0.63187 0.09214 0.0
H2384 H 0.28773 0.75548 0.12787 0.0
H2385 H 0.3129 0.70276 0.18663 0.0
H2386 H 0.29088 0.66738 0.08285 0.0
H2387 H 0.27922 0.63883 0.10251 0.0
H2388 H 0.27854 0.70346 0.09668 0.0
H2389 H 0.32043 0.62291 0.18704 0.0
H2390 H 0.31052 0.5777 0.17229 0.0
H2391 H 0.32322 0.60229 0.15403 0.0
H2392 H 0.29009 0.47911 0.1196 0.0
H2393 H 0.31836 0.54207 0.07095 0.0
H2394 H 0.27781 0.5894 0.14357 0.0
H2395 H 0.28865 0.56706 0.16718 0.0
H2396 H 0.27867 0.52506 0.15011 0.0
H2397 H 0.31319 0.66332 0.08548 0.0
H2398 H 0.3254 0.62184 0.07627 0.0
H2399 H 0.32424 0.6439 0.10945 0.0
C2400 C 0.4393 0.55499 0.66547 0.0
C2401 C 0.44707 0.51685 0.65756 0.0
C2402 C 0.43995 0.60068 0.65334 0.0
C2403 C 0.44891 0.60896 0.6335 0.0
C2404 C 0.45717 0.57109 0.62629 0.0
C2405 C 0.45597 0.52511 0.63804 0.0
C2406 C 0.43068 0.63943 0.661 0.0
C2407 C 0.46715 0.57896 0.60594 0.0
C2408 C 0.44203 0.70779 0.58351 0.0
C2409 C 0.44809 0.74794 0.59448 0.0
C2410 C 0.44228 0.66231 0.59595 0.0
C2411 C 0.44916 0.65643 0.61941 0.0
C2412 C 0.45574 0.69651 0.62997 0.0
C2413 C 0.45491 0.74211 0.61766 0.0
C2414 C 0.43478 0.62107 0.5845 0.0
C2415 C 0.46355 0.69133 0.65438 0.0
H2416 H 0.43231 0.54845 0.68038 0.0
H2417 H 0.46202 0.49562 0.63201 0.0
H2418 H 0.4356 0.67251 0.66775 0.0
H2419 H 0.42503 0.64984 0.64369 0.0
H2420 H 0.42431 0.62718 0.6768 0.0
H2421 H 0.47361 0.54755 0.60452 0.0
H2422 H 0.46282 0.58481 0.58648 0.0
H2423 H 0.47261 0.61202 0.61066 0.0
H2424 H 0.43665 0.71244 0.56571 0.0
H2425 H 0.45966 0.77316 0.62606 0.0
H2426 H 0.42777 0.60862 0.59898 0.0
H2427 H 0.44091 0.58971 0.58015 0.0
H2428 H 0.42988 0.63169 0.56622 0.0
H2429 H 0.45748 0.68365 0.67145 0.0
H2430 H 0.46903 0.72462 0.65861 0.0
H2431 H 0.47004 0.6602 0.65232 0.0
C2432 C 0.30589 0.05683 0.58663 0.0
C2433 C 0.2989 0.01714 0.59539 0.0
C2434 C 0.30517 0.10191 0.59938 0.0
C2435 C 0.29689 0.10782 0.62075 0.0
C2436 C 0.28944 0.06823 0.62897 0.0
C2437 C 0.29072 0.023 0.61651 0.0
C2438 C 0.31357 0.14269 0.59055 0.0
C2439 C 0.28018 0.07356 0.65103 0.0
C2440 C 0.30403 0.20734 0.67004 0.0
C2441 C 0.29695 0.24603 0.66029 0.0
C2442 C 0.30405 0.16206 0.65741 0.0
C2443 C 0.29644 0.15488 0.63508 0.0
C2444 C 0.28884 0.19334 0.62588 0.0
C2445 C 0.28939 0.23884 0.63829 0.0
C2446 C 0.31259 0.12256 0.66734 0.0
C2447 C 0.28027 0.1866 0.60274 0.0
H2448 H 0.3123 0.05208 0.57044 0.0
H2449 H 0.28526 0.99228 0.62314 0.0
H2450 H 0.30795 0.17468 0.5847 0.0
H2451 H 0.31963 0.15422 0.60702 0.0
H2452 H 0.31957 0.13201 0.57379 0.0
H2453 H 0.27436 0.04056 0.65353 0.0
H2454 H 0.28515 0.08067 0.66967 0.0
H2455 H 0.274 0.1051 0.64732 0.0
H2456 H 0.30999 0.21313 0.68689 0.0
H2457 H 0.28388 0.26881 0.63085 0.0
H2458 H 0.31927 0.11222 0.65173 0.0
H2459 H 0.30716 0.08962 0.67234 0.0
H2460 H 0.31792 0.13402 0.68493 0.0
H2461 H 0.28582 0.18065 0.58471 0.0
H2462 H 0.27413 0.21854 0.59961 0.0
H2463 H 0.27438 0.15393 0.60562 0.0
loop_
_geom_bond_atom_site_label_1
_geom_bond_atom_site_label_2
_geom_bond_distance
_geom_bond_site_symmetry_2
_ccdc_geom_bond_type
In0 O1 2.294 . S
In0 O2 2.326 . S
In0 O6 2.266 . S
In0 O7 2.326 . S
In0 O8 2.266 . S
In0 O9 2.326 . S
In0 O11 2.294 . S
In0 O12 2.326 . S
O1 In0 2.294 . S
O1 C10 1.240 . S
O2 In0 2.326 . S
O2 C10 1.252 . S
C3 O6 1.252 . S
C3 O7 1.260 . S
C4 O11 1.240 . S
C4 O12 1.252 . S
C5 O8 1.252 . S
C5 O9 1.260 . S
O6 In0 2.266 . S
O6 C3 1.252 . S
O7 In0 2.326 . S
O7 C3 1.260 . S
O8 In0 2.266 . S
O8 C5 1.252 . S
O9 In0 2.326 . S
O9 C5 1.260 . S
C10 O1 1.240 . S
C10 O2 1.252 . S
O11 In0 2.294 . S
O11 C4 1.240 . S
O12 In0 2.326 . S
O12 C4 1.252 . S
In13 O14 2.294 . S
In13 O15 2.326 . S
In13 O19 2.266 . S
In13 O20 2.326 . S
In13 O21 2.266 . S
In13 O22 2.326 . S
In13 O24 2.294 . S
In13 O25 2.326 . S
O14 In13 2.294 . S
O14 C23 1.240 . S
O15 In13 2.326 . S
O15 C23 1.252 . S
C16 O19 1.252 . S
C16 O20 1.260 . S
C17 O24 1.240 . S
C17 O25 1.252 . S
C18 O21 1.252 . S
C18 O22 1.260 . S
O19 In13 2.266 . S
O19 C16 1.252 . S
O20 In13 2.326 . S
O20 C16 1.260 . S
O21 In13 2.266 . S
O21 C18 1.252 . S
O22 In13 2.326 . S
O22 C18 1.260 . S
C23 O14 1.240 . S
C23 O15 1.252 . S
O24 In13 2.294 . S
O24 C17 1.240 . S
O25 In13 2.326 . S
O25 C17 1.252 . S
In26 O27 2.294 . S
In26 O28 2.326 . S
In26 O32 2.266 . S
In26 O33 2.326 . S
In26 O34 2.266 . S
In26 O35 2.326 . S
In26 O37 2.294 . S
In26 O38 2.326 . S
O27 In26 2.294 . S
O27 C36 1.240 . S
O28 In26 2.326 . S
O28 C36 1.252 . S
C29 O32 1.252 . S
C29 O33 1.260 . S
C30 O37 1.240 . S
C30 O38 1.252 . S
C31 O34 1.252 . S
C31 O35 1.260 . S
O32 In26 2.266 . S
O32 C29 1.252 . S
O33 In26 2.326 . S
O33 C29 1.260 . S
O34 In26 2.266 . S
O34 C31 1.252 . S
O35 In26 2.326 . S
O35 C31 1.260 . S
C36 O27 1.240 . S
C36 O28 1.252 . S
O37 In26 2.294 . S
O37 C30 1.240 . S
O38 In26 2.326 . S
O38 C30 1.252 . S
In39 O40 2.294 . S
In39 O41 2.326 . S
In39 O45 2.266 . S
In39 O46 2.326 . S
In39 O47 2.266 . S
In39 O48 2.326 . S
In39 O50 2.294 . S
In39 O51 2.326 . S
O40 In39 2.294 . S
O40 C49 1.240 . S
O41 In39 2.326 . S
O41 C49 1.252 . S
C42 O45 1.252 . S
C42 O46 1.260 . S
C43 O50 1.240 . S
C43 O51 1.252 . S
C44 O47 1.252 . S
C44 O48 1.260 . S
O45 In39 2.266 . S
O45 C42 1.252 . S
O46 In39 2.326 . S
O46 C42 1.260 . S
O47 In39 2.266 . S
O47 C44 1.252 . S
O48 In39 2.326 . S
O48 C44 1.260 . S
C49 O40 1.240 . S
C49 O41 1.252 . S
O50 In39 2.294 . S
O50 C43 1.240 . S
O51 In39 2.326 . S
O51 C43 1.252 . S
In52 O53 2.294 . S
In52 O54 2.326 . S
In52 O58 2.266 . S
In52 O59 2.326 . S
In52 O60 2.266 . S
In52 O61 2.326 . S
In52 O63 2.294 . S
In52 O64 2.326 . S
O53 In52 2.294 . S
O53 C62 1.240 . S
O54 In52 2.326 . S
O54 C62 1.252 . S
C55 O58 1.252 . S
C55 O59 1.260 . S
C56 O63 1.240 . S
C56 O64 1.252 . S
C57 O60 1.252 . S
C57 O61 1.260 . S
O58 In52 2.266 . S
O58 C55 1.252 . S
O59 In52 2.326 . S
O59 C55 1.260 . S
O60 In52 2.266 . S
O60 C57 1.252 . S
O61 In52 2.326 . S
O61 C57 1.260 . S
C62 O53 1.240 . S
C62 O54 1.252 . S
O63 In52 2.294 . S
O63 C56 1.240 . S
O64 In52 2.326 . S
O64 C56 1.252 . S
In65 O66 2.294 . S
In65 O67 2.326 . S
In65 O71 2.266 . S
In65 O72 2.326 . S
In65 O73 2.266 . S
In65 O74 2.326 . S
In65 O76 2.294 . S
In65 O77 2.326 . S
O66 In65 2.294 . S
O66 C75 1.240 . S
O67 In65 2.326 . S
O67 C75 1.252 . S
C68 O71 1.252 . S
C68 O72 1.260 . S
C69 O76 1.240 . S
C69 O77 1.252 . S
C70 O73 1.252 . S
C70 O74 1.260 . S
O71 In65 2.266 . S
O71 C68 1.252 . S
O72 In65 2.326 . S
O72 C68 1.260 . S
O73 In65 2.266 . S
O73 C70 1.252 . S
O74 In65 2.326 . S
O74 C70 1.260 . S
C75 O66 1.240 . S
C75 O67 1.252 . S
O76 In65 2.294 . S
O76 C69 1.240 . S
O77 In65 2.326 . S
O77 C69 1.252 . S
In78 O79 2.294 . S
In78 O80 2.326 . S
In78 O84 2.266 . S
In78 O85 2.326 . S
In78 O86 2.266 . S
In78 O87 2.326 . S
In78 O89 2.294 . S
In78 O90 2.326 . S
O79 In78 2.294 . S
O79 C88 1.240 . S
O80 In78 2.326 . S
O80 C88 1.252 . S
C81 O84 1.252 . S
C81 O85 1.260 . S
C82 O89 1.240 . S
C82 O90 1.252 . S
C83 O86 1.252 . S
C83 O87 1.260 . S
O84 In78 2.266 . S
O84 C81 1.252 . S
O85 In78 2.326 . S
O85 C81 1.260 . S
O86 In78 2.266 . S
O86 C83 1.252 . S
O87 In78 2.326 . S
O87 C83 1.260 . S
C88 O79 1.240 . S
C88 O80 1.252 . S
O89 In78 2.294 . S
O89 C82 1.240 . S
O90 In78 2.326 . S
O90 C82 1.252 . S
In91 O92 2.294 . S
In91 O93 2.326 . S
In91 O97 2.266 . S
In91 O98 2.326 . S
In91 O99 2.266 . S
In91 O100 2.326 . S
In91 O102 2.294 . S
In91 O103 2.326 . S
O92 In91 2.294 . S
O92 C101 1.240 . S
O93 In91 2.326 . S
O93 C101 1.252 . S
C94 O97 1.252 . S
C94 O98 1.260 . S
C95 O102 1.240 . S
C95 O103 1.252 . S
C96 O99 1.252 . S
C96 O100 1.260 . S
O97 In91 2.266 . S
O97 C94 1.252 . S
O98 In91 2.326 . S
O98 C94 1.260 . S
O99 In91 2.266 . S
O99 C96 1.252 . S
O100 In91 2.326 . S
O100 C96 1.260 . S
C101 O92 1.240 . S
C101 O93 1.252 . S
O102 In91 2.294 . S
O102 C95 1.240 . S
O103 In91 2.326 . S
O103 C95 1.252 . S
In104 O105 2.294 . S
In104 O106 2.326 . S
In104 O110 2.266 . S
In104 O111 2.326 . S
In104 O112 2.266 . S
In104 O113 2.326 . S
In104 O115 2.294 . S
In104 O116 2.326 . S
O105 In104 2.294 . S
O105 C114 1.240 . S
O106 In104 2.326 . S
O106 C114 1.252 . S
C107 O110 1.252 . S
C107 O111 1.260 . S
C108 O115 1.240 . S
C108 O116 1.252 . S
C109 O112 1.252 . S
C109 O113 1.260 . S
O110 In104 2.266 . S
O110 C107 1.252 . S
O111 In104 2.326 . S
O111 C107 1.260 . S
O112 In104 2.266 . S
O112 C109 1.252 . S
O113 In104 2.326 . S
O113 C109 1.260 . S
C114 O105 1.240 . S
C114 O106 1.252 . S
O115 In104 2.294 . S
O115 C108 1.240 . S
O116 In104 2.326 . S
O116 C108 1.252 . S
In117 O118 2.294 . S
In117 O119 2.326 . S
In117 O123 2.266 . S
In117 O124 2.326 . S
In117 O125 2.266 . S
In117 O126 2.326 . S
In117 O128 2.294 . S
In117 O129 2.326 . S
O118 In117 2.294 . S
O118 C127 1.240 . S
O119 In117 2.326 . S
O119 C127 1.252 . S
C120 O123 1.252 . S
C120 O124 1.260 . S
C121 O128 1.240 . S
C121 O129 1.252 . S
C122 O125 1.252 . S
C122 O126 1.260 . S
O123 In117 2.266 . S
O123 C120 1.252 . S
O124 In117 2.326 . S
O124 C120 1.260 . S
O125 In117 2.266 . S
O125 C122 1.252 . S
O126 In117 2.326 . S
O126 C122 1.260 . S
C127 O118 1.240 . S
C127 O119 1.252 . S
O128 In117 2.294 . S
O128 C121 1.240 . S
O129 In117 2.326 . S
O129 C121 1.252 . S
In130 O131 2.294 . S
In130 O132 2.326 . S
In130 O136 2.266 . S
In130 O137 2.326 . S
In130 O138 2.266 . S
In130 O139 2.326 . S
In130 O141 2.294 . S
In130 O142 2.326 . S
O131 In130 2.294 . S
O131 C140 1.240 . S
O132 In130 2.326 . S
O132 C140 1.252 . S
C133 O136 1.252 . S
C133 O137 1.260 . S
C134 O141 1.240 . S
C134 O142 1.252 . S
C135 O138 1.252 . S
C135 O139 1.260 . S
O136 In130 2.266 . S
O136 C133 1.252 . S
O137 In130 2.326 . S
O137 C133 1.260 . S
O138 In130 2.266 . S
O138 C135 1.252 . S
O139 In130 2.326 . S
O139 C135 1.260 . S
C140 O131 1.240 . S
C140 O132 1.252 . S
O141 In130 2.294 . S
O141 C134 1.240 . S
O142 In130 2.326 . S
O142 C134 1.252 . S
In143 O144 2.294 . S
In143 O145 2.326 . S
In143 O149 2.266 . S
In143 O150 2.326 . S
In143 O151 2.266 . S
In143 O152 2.326 . S
In143 O154 2.294 . S
In143 O155 2.326 . S
O144 In143 2.294 . S
O144 C153 1.240 . S
O145 In143 2.326 . S
O145 C153 1.252 . S
C146 O149 1.252 . S
C146 O150 1.260 . S
C147 O154 1.240 . S
C147 O155 1.252 . S
C148 O151 1.252 . S
C148 O152 1.260 . S
O149 In143 2.266 . S
O149 C146 1.252 . S
O150 In143 2.326 . S
O150 C146 1.260 . S
O151 In143 2.266 . S
O151 C148 1.252 . S
O152 In143 2.326 . S
O152 C148 1.260 . S
C153 O144 1.240 . S
C153 O145 1.252 . S
O154 In143 2.294 . S
O154 C147 1.240 . S
O155 In143 2.326 . S
O155 C147 1.252 . S
In156 O157 2.294 . S
In156 O158 2.326 . S
In156 O162 2.266 . S
In156 O163 2.326 . S
In156 O164 2.266 . S
In156 O165 2.326 . S
In156 O167 2.294 . S
In156 O168 2.326 . S
O157 In156 2.294 . S
O157 C166 1.240 . S
O158 In156 2.326 . S
O158 C166 1.252 . S
C159 O162 1.252 . S
C159 O163 1.260 . S
C160 O167 1.240 . S
C160 O168 1.252 . S
C161 O164 1.252 . S
C161 O165 1.260 . S
O162 In156 2.266 . S
O162 C159 1.252 . S
O163 In156 2.326 . S
O163 C159 1.260 . S
O164 In156 2.266 . S
O164 C161 1.252 . S
O165 In156 2.326 . S
O165 C161 1.260 . S
C166 O157 1.240 . S
C166 O158 1.252 . S
O167 In156 2.294 . S
O167 C160 1.240 . S
O168 In156 2.326 . S
O168 C160 1.252 . S
In169 O170 2.294 . S
In169 O171 2.326 . S
In169 O175 2.266 . S
In169 O176 2.326 . S
In169 O177 2.266 . S
In169 O178 2.326 . S
In169 O180 2.294 . S
In169 O181 2.326 . S
O170 In169 2.294 . S
O170 C179 1.240 . S
O171 In169 2.326 . S
O171 C179 1.252 . S
C172 O175 1.252 . S
C172 O176 1.260 . S
C173 O180 1.240 . S
C173 O181 1.252 . S
C174 O177 1.252 . S
C174 O178 1.260 . S
O175 In169 2.266 . S
O175 C172 1.252 . S
O176 In169 2.326 . S
O176 C172 1.260 . S
O177 In169 2.266 . S
O177 C174 1.252 . S
O178 In169 2.326 . S
O178 C174 1.260 . S
C179 O170 1.240 . S
C179 O171 1.252 . S
O180 In169 2.294 . S
O180 C173 1.240 . S
O181 In169 2.326 . S
O181 C173 1.252 . S
In182 O183 2.294 . S
In182 O184 2.326 . S
In182 O188 2.266 . S
In182 O189 2.326 . S
In182 O190 2.266 . S
In182 O191 2.326 . S
In182 O193 2.294 . S
In182 O194 2.326 . S
O183 In182 2.294 . S
O183 C192 1.240 . S
O184 In182 2.326 . S
O184 C192 1.252 . S
C185 O188 1.252 . S
C185 O189 1.260 . S
C186 O193 1.240 . S
C186 O194 1.252 . S
C187 O190 1.252 . S
C187 O191 1.260 . S
O188 In182 2.266 . S
O188 C185 1.252 . S
O189 In182 2.326 . S
O189 C185 1.260 . S
O190 In182 2.266 . S
O190 C187 1.252 . S
O191 In182 2.326 . S
O191 C187 1.260 . S
C192 O183 1.240 . S
C192 O184 1.252 . S
O193 In182 2.294 . S
O193 C186 1.240 . S
O194 In182 2.326 . S
O194 C186 1.252 . S
In195 O196 2.294 . S
In195 O197 2.326 . S
In195 O201 2.266 . S
In195 O202 2.326 . S
In195 O203 2.266 . S
In195 O204 2.326 . S
In195 O206 2.294 . S
In195 O207 2.326 . S
O196 In195 2.294 . S
O196 C205 1.240 . S
O197 In195 2.326 . S
O197 C205 1.252 . S
C198 O201 1.252 . S
C198 O202 1.260 . S
C199 O206 1.240 . S
C199 O207 1.252 . S
C200 O203 1.252 . S
C200 O204 1.260 . S
O201 In195 2.266 . S
O201 C198 1.252 . S
O202 In195 2.326 . S
O202 C198 1.260 . S
O203 In195 2.266 . S
O203 C200 1.252 . S
O204 In195 2.326 . S
O204 C200 1.260 . S
C205 O196 1.240 . S
C205 O197 1.252 . S
O206 In195 2.294 . S
O206 C199 1.240 . S
O207 In195 2.326 . S
O207 C199 1.252 . S
In208 O209 2.294 . S
In208 O210 2.326 . S
In208 O214 2.266 . S
In208 O215 2.326 . S
In208 O216 2.266 . S
In208 O217 2.326 . S
In208 O219 2.294 . S
In208 O220 2.326 . S
O209 In208 2.294 . S
O209 C218 1.240 . S
O210 In208 2.326 . S
O210 C218 1.252 . S
C211 O214 1.252 . S
C211 O215 1.260 . S
C212 O219 1.240 . S
C212 O220 1.252 . S
C213 O216 1.252 . S
C213 O217 1.260 . S
O214 In208 2.266 . S
O214 C211 1.252 . S
O215 In208 2.326 . S
O215 C211 1.260 . S
O216 In208 2.266 . S
O216 C213 1.252 . S
O217 In208 2.326 . S
O217 C213 1.260 . S
C218 O209 1.240 . S
C218 O210 1.252 . S
O219 In208 2.294 . S
O219 C212 1.240 . S
O220 In208 2.326 . S
O220 C212 1.252 . S
In221 O222 2.294 . S
In221 O223 2.326 . S
In221 O227 2.266 . S
In221 O228 2.326 . S
In221 O229 2.266 . S
In221 O230 2.326 . S
In221 O232 2.294 . S
In221 O233 2.326 . S
O222 In221 2.294 . S
O222 C231 1.240 . S
O223 In221 2.326 . S
O223 C231 1.252 . S
C224 O227 1.252 . S
C224 O228 1.260 . S
C225 O232 1.240 . S
C225 O233 1.252 . S
C226 O229 1.252 . S
C226 O230 1.260 . S
O227 In221 2.266 . S
O227 C224 1.252 . S
O228 In221 2.326 . S
O228 C224 1.260 . S
O229 In221 2.266 . S
O229 C226 1.252 . S
O230 In221 2.326 . S
O230 C226 1.260 . S
C231 O222 1.240 . S
C231 O223 1.252 . S
O232 In221 2.294 . S
O232 C225 1.240 . S
O233 In221 2.326 . S
O233 C225 1.252 . S
In234 O235 2.294 . S
In234 O236 2.326 . S
In234 O240 2.266 . S
In234 O241 2.326 . S
In234 O242 2.266 . S
In234 O243 2.326 . S
In234 O245 2.294 . S
In234 O246 2.326 . S
O235 In234 2.294 . S
O235 C244 1.240 . S
O236 In234 2.326 . S
O236 C244 1.252 . S
C237 O240 1.252 . S
C237 O241 1.260 . S
C238 O245 1.240 . S
C238 O246 1.252 . S
C239 O242 1.252 . S
C239 O243 1.260 . S
O240 In234 2.266 . S
O240 C237 1.252 . S
O241 In234 2.326 . S
O241 C237 1.260 . S
O242 In234 2.266 . S
O242 C239 1.252 . S
O243 In234 2.326 . S
O243 C239 1.260 . S
C244 O235 1.240 . S
C244 O236 1.252 . S
O245 In234 2.294 . S
O245 C238 1.240 . S
O246 In234 2.326 . S
O246 C238 1.252 . S
In247 O248 2.294 . S
In247 O249 2.326 . S
In247 O253 2.266 . S
In247 O254 2.326 . S
In247 O255 2.266 . S
In247 O256 2.326 . S
In247 O258 2.294 . S
In247 O259 2.326 . S
O248 In247 2.294 . S
O248 C257 1.240 . S
O249 In247 2.326 . S
O249 C257 1.252 . S
C250 O253 1.252 . S
C250 O254 1.260 . S
C251 O258 1.240 . S
C251 O259 1.252 . S
C252 O255 1.252 . S
C252 O256 1.260 . S
O253 In247 2.266 . S
O253 C250 1.252 . S
O254 In247 2.326 . S
O254 C250 1.260 . S
O255 In247 2.266 . S
O255 C252 1.252 . S
O256 In247 2.326 . S
O256 C252 1.260 . S
C257 O248 1.240 . S
C257 O249 1.252 . S
O258 In247 2.294 . S
O258 C251 1.240 . S
O259 In247 2.326 . S
O259 C251 1.252 . S
In260 O261 2.294 . S
In260 O262 2.326 . S
In260 O266 2.266 . S
In260 O267 2.326 . S
In260 O268 2.266 . S
In260 O269 2.326 . S
In260 O271 2.294 . S
In260 O272 2.326 . S
O261 In260 2.294 . S
O261 C270 1.240 . S
O262 In260 2.326 . S
O262 C270 1.252 . S
C263 O266 1.252 . S
C263 O267 1.260 . S
C264 O271 1.240 . S
C264 O272 1.252 . S
C265 O268 1.252 . S
C265 O269 1.260 . S
O266 In260 2.266 . S
O266 C263 1.252 . S
O267 In260 2.326 . S
O267 C263 1.260 . S
O268 In260 2.266 . S
O268 C265 1.252 . S
O269 In260 2.326 . S
O269 C265 1.260 . S
C270 O261 1.240 . S
C270 O262 1.252 . S
O271 In260 2.294 . S
O271 C264 1.240 . S
O272 In260 2.326 . S
O272 C264 1.252 . S
In273 O274 2.294 . S
In273 O275 2.326 . S
In273 O279 2.266 . S
In273 O280 2.326 . S
In273 O281 2.266 . S
In273 O282 2.326 . S
In273 O284 2.294 . S
In273 O285 2.326 . S
O274 In273 2.294 . S
O274 C283 1.240 . S
O275 In273 2.326 . S
O275 C283 1.252 . S
C276 O279 1.252 . S
C276 O280 1.260 . S
C277 O284 1.240 . S
C277 O285 1.252 . S
C278 O281 1.252 . S
C278 O282 1.260 . S
O279 In273 2.266 . S
O279 C276 1.252 . S
O280 In273 2.326 . S
O280 C276 1.260 . S
O281 In273 2.266 . S
O281 C278 1.252 . S
O282 In273 2.326 . S
O282 C278 1.260 . S
C283 O274 1.240 . S
C283 O275 1.252 . S
O284 In273 2.294 . S
O284 C277 1.240 . S
O285 In273 2.326 . S
O285 C277 1.252 . S
In286 O287 2.294 . S
In286 O288 2.326 . S
In286 O292 2.266 . S
In286 O293 2.326 . S
In286 O294 2.266 . S
In286 O295 2.326 . S
In286 O297 2.294 . S
In286 O298 2.326 . S
O287 In286 2.294 . S
O287 C296 1.240 . S
O288 In286 2.326 . S
O288 C296 1.252 . S
C289 O292 1.252 . S
C289 O293 1.260 . S
C290 O297 1.240 . S
C290 O298 1.252 . S
C291 O294 1.252 . S
C291 O295 1.260 . S
O292 In286 2.266 . S
O292 C289 1.252 . S
O293 In286 2.326 . S
O293 C289 1.260 . S
O294 In286 2.266 . S
O294 C291 1.252 . S
O295 In286 2.326 . S
O295 C291 1.260 . S
C296 O287 1.240 . S
C296 O288 1.252 . S
O297 In286 2.294 . S
O297 C290 1.240 . S
O298 In286 2.326 . S
O298 C290 1.252 . S
In299 O300 2.294 . S
In299 O301 2.326 . S
In299 O305 2.266 . S
In299 O306 2.326 . S
In299 O307 2.266 . S
In299 O308 2.326 . S
In299 O310 2.294 . S
In299 O311 2.326 . S
O300 In299 2.294 . S
O300 C309 1.240 . S
O301 In299 2.326 . S
O301 C309 1.252 . S
C302 O305 1.252 . S
C302 O306 1.260 . S
C303 O310 1.240 . S
C303 O311 1.252 . S
C304 O307 1.252 . S
C304 O308 1.260 . S
O305 In299 2.266 . S
O305 C302 1.252 . S
O306 In299 2.326 . S
O306 C302 1.260 . S
O307 In299 2.266 . S
O307 C304 1.252 . S
O308 In299 2.326 . S
O308 C304 1.260 . S
C309 O300 1.240 . S
C309 O301 1.252 . S
O310 In299 2.294 . S
O310 C303 1.240 . S
O311 In299 2.326 . S
O311 C303 1.252 . S
In312 O313 2.294 . S
In312 O314 2.326 . S
In312 O318 2.266 . S
In312 O319 2.326 . S
In312 O320 2.266 . S
In312 O321 2.326 . S
In312 O323 2.294 . S
In312 O324 2.326 . S
O313 In312 2.294 . S
O313 C322 1.240 . S
O314 In312 2.326 . S
O314 C322 1.252 . S
C315 O318 1.252 . S
C315 O319 1.260 . S
C316 O323 1.240 . S
C316 O324 1.252 . S
C317 O320 1.252 . S
C317 O321 1.260 . S
O318 In312 2.266 . S
O318 C315 1.252 . S
O319 In312 2.326 . S
O319 C315 1.260 . S
O320 In312 2.266 . S
O320 C317 1.252 . S
O321 In312 2.326 . S
O321 C317 1.260 . S
C322 O313 1.240 . S
C322 O314 1.252 . S
O323 In312 2.294 . S
O323 C316 1.240 . S
O324 In312 2.326 . S
O324 C316 1.252 . S
In325 O326 2.294 . S
In325 O327 2.326 . S
In325 O331 2.266 . S
In325 O332 2.326 . S
In325 O333 2.266 . S
In325 O334 2.326 . S
In325 O336 2.294 . S
In325 O337 2.326 . S
O326 In325 2.294 . S
O326 C335 1.240 . S
O327 In325 2.326 . S
O327 C335 1.252 . S
C328 O331 1.252 . S
C328 O332 1.260 . S
C329 O336 1.240 . S
C329 O337 1.252 . S
C330 O333 1.252 . S
C330 O334 1.260 . S
O331 In325 2.266 . S
O331 C328 1.252 . S
O332 In325 2.326 . S
O332 C328 1.260 . S
O333 In325 2.266 . S
O333 C330 1.252 . S
O334 In325 2.326 . S
O334 C330 1.260 . S
C335 O326 1.240 . S
C335 O327 1.252 . S
O336 In325 2.294 . S
O336 C329 1.240 . S
O337 In325 2.326 . S
O337 C329 1.252 . S
In338 O339 2.294 . S
In338 O340 2.326 . S
In338 O344 2.266 . S
In338 O345 2.326 . S
In338 O346 2.266 . S
In338 O347 2.326 . S
In338 O349 2.294 . S
In338 O350 2.326 . S
O339 In338 2.294 . S
O339 C348 1.240 . S
O340 In338 2.326 . S
O340 C348 1.252 . S
C341 O344 1.252 . S
C341 O345 1.260 . S
C342 O349 1.240 . S
C342 O350 1.252 . S
C343 O346 1.252 . S
C343 O347 1.260 . S
O344 In338 2.266 . S
O344 C341 1.252 . S
O345 In338 2.326 . S
O345 C341 1.260 . S
O346 In338 2.266 . S
O346 C343 1.252 . S
O347 In338 2.326 . S
O347 C343 1.260 . S
C348 O339 1.240 . S
C348 O340 1.252 . S
O349 In338 2.294 . S
O349 C342 1.240 . S
O350 In338 2.326 . S
O350 C342 1.252 . S
In351 O352 2.294 . S
In351 O353 2.326 . S
In351 O357 2.266 . S
In351 O358 2.326 . S
In351 O359 2.266 . S
In351 O360 2.326 . S
In351 O362 2.294 . S
In351 O363 2.326 . S
O352 In351 2.294 . S
O352 C361 1.240 . S
O353 In351 2.326 . S
O353 C361 1.252 . S
C354 O357 1.252 . S
C354 O358 1.260 . S
C355 O362 1.240 . S
C355 O363 1.252 . S
C356 O359 1.252 . S
C356 O360 1.260 . S
O357 In351 2.266 . S
O357 C354 1.252 . S
O358 In351 2.326 . S
O358 C354 1.260 . S
O359 In351 2.266 . S
O359 C356 1.252 . S
O360 In351 2.326 . S
O360 C356 1.260 . S
C361 O352 1.240 . S
C361 O353 1.252 . S
O362 In351 2.294 . S
O362 C355 1.240 . S
O363 In351 2.326 . S
O363 C355 1.252 . S
In364 O365 2.294 . S
In364 O366 2.326 . S
In364 O370 2.266 . S
In364 O371 2.326 . S
In364 O372 2.266 . S
In364 O373 2.326 . S
In364 O375 2.294 . S
In364 O376 2.326 . S
O365 In364 2.294 . S
O365 C374 1.240 . S
O366 In364 2.326 . S
O366 C374 1.252 . S
C367 O370 1.252 . S
C367 O371 1.260 . S
C368 O375 1.240 . S
C368 O376 1.252 . S
C369 O372 1.252 . S
C369 O373 1.260 . S
O370 In364 2.266 . S
O370 C367 1.252 . S
O371 In364 2.326 . S
O371 C367 1.260 . S
O372 In364 2.266 . S
O372 C369 1.252 . S
O373 In364 2.326 . S
O373 C369 1.260 . S
C374 O365 1.240 . S
C374 O366 1.252 . S
O375 In364 2.294 . S
O375 C368 1.240 . S
O376 In364 2.326 . S
O376 C368 1.252 . S
In377 O378 2.294 . S
In377 O379 2.326 . S
In377 O383 2.266 . S
In377 O384 2.326 . S
In377 O385 2.266 . S
In377 O386 2.326 . S
In377 O388 2.294 . S
In377 O389 2.326 . S
O378 In377 2.294 . S
O378 C387 1.240 . S
O379 In377 2.326 . S
O379 C387 1.252 . S
C380 O383 1.252 . S
C380 O384 1.260 . S
C381 O388 1.240 . S
C381 O389 1.252 . S
C382 O385 1.252 . S
C382 O386 1.260 . S
O383 In377 2.266 . S
O383 C380 1.252 . S
O384 In377 2.326 . S
O384 C380 1.260 . S
O385 In377 2.266 . S
O385 C382 1.252 . S
O386 In377 2.326 . S
O386 C382 1.260 . S
C387 O378 1.240 . S
C387 O379 1.252 . S
O388 In377 2.294 . S
O388 C381 1.240 . S
O389 In377 2.326 . S
O389 C381 1.252 . S
In390 O391 2.294 . S
In390 O392 2.326 . S
In390 O396 2.266 . S
In390 O397 2.326 . S
In390 O398 2.266 . S
In390 O399 2.326 . S
In390 O401 2.294 . S
In390 O402 2.326 . S
O391 In390 2.294 . S
O391 C400 1.240 . S
O392 In390 2.326 . S
O392 C400 1.252 . S
C393 O396 1.252 . S
C393 O397 1.260 . S
C394 O401 1.240 . S
C394 O402 1.252 . S
C395 O398 1.252 . S
C395 O399 1.260 . S
O396 In390 2.266 . S
O396 C393 1.252 . S
O397 In390 2.326 . S
O397 C393 1.260 . S
O398 In390 2.266 . S
O398 C395 1.252 . S
O399 In390 2.326 . S
O399 C395 1.260 . S
C400 O391 1.240 . S
C400 O392 1.252 . S
O401 In390 2.294 . S
O401 C394 1.240 . S
O402 In390 2.326 . S
O402 C394 1.252 . S
In403 O404 2.294 . S
In403 O405 2.326 . S
In403 O409 2.266 . S
In403 O410 2.326 . S
In403 O411 2.266 . S
In403 O412 2.326 . S
In403 O414 2.294 . S
In403 O415 2.326 . S
O404 In403 2.294 . S
O404 C413 1.240 . S
O405 In403 2.326 . S
O405 C413 1.252 . S
C406 O409 1.252 . S
C406 O410 1.260 . S
C407 O414 1.240 . S
C407 O415 1.252 . S
C408 O411 1.252 . S
C408 O412 1.260 . S
O409 In403 2.266 . S
O409 C406 1.252 . S
O410 In403 2.326 . S
O410 C406 1.260 . S
O411 In403 2.266 . S
O411 C408 1.252 . S
O412 In403 2.326 . S
O412 C408 1.260 . S
C413 O404 1.240 . S
C413 O405 1.252 . S
O414 In403 2.294 . S
O414 C407 1.240 . S
O415 In403 2.326 . S
O415 C407 1.252 . S
C416 C417 1.391 . S
C416 C418 1.394 . S
C416 H432 0.931 . S
C417 C416 1.391 . S
C417 C421 1.376 . S
C418 C416 1.394 . S
C418 C419 1.369 . S
C418 C422 1.531 . S
C419 C418 1.369 . S
C419 C420 1.410 . S
C419 C427 1.503 . S
C420 C419 1.410 . S
C420 C421 1.392 . S
C420 C423 1.511 . S
C421 C417 1.376 . S
C421 C420 1.392 . S
C421 H433 0.929 . S
C422 C418 1.531 . S
C422 H434 0.960 . S
C422 H435 0.962 . S
C422 H436 0.960 . S
C423 C420 1.511 . S
C423 H437 0.961 . S
C423 H438 0.961 . S
C423 H439 0.961 . S
C424 C425 1.370 . S
C424 C426 1.363 . S
C424 H440 0.931 . S
C425 C424 1.370 . S
C425 C429 1.408 . S
C426 C424 1.363 . S
C426 C427 1.370 . S
C426 C430 1.524 . S
C427 C419 1.503 . S
C427 C426 1.370 . S
C427 C428 1.403 . S
C428 C427 1.403 . S
C428 C429 1.404 . S
C428 C431 1.539 . S
C429 C425 1.408 . S
C429 C428 1.404 . S
C429 H441 0.930 . S
C430 C426 1.524 . S
C430 H442 0.956 . S
C430 H443 0.961 . S
C430 H444 0.961 . S
C431 C428 1.539 . S
C431 H445 0.958 . S
C431 H446 0.961 . S
C431 H447 0.960 . S
H432 C416 0.931 . S
H433 C421 0.929 . S
H434 C422 0.960 . S
H435 C422 0.962 . S
H436 C422 0.960 . S
H437 C423 0.961 . S
H438 C423 0.961 . S
H439 C423 0.961 . S
H440 C424 0.931 . S
H441 C429 0.930 . S
H442 C430 0.956 . S
H443 C430 0.961 . S
H444 C430 0.961 . S
H445 C431 0.958 . S
H446 C431 0.961 . S
H447 C431 0.960 . S
C448 C449 1.391 . S
C448 C450 1.394 . S
C448 H464 0.931 . S
C449 C448 1.391 . S
C449 C453 1.376 . S
C450 C448 1.394 . S
C450 C451 1.369 . S
C450 C454 1.531 . S
C451 C450 1.369 . S
C451 C452 1.410 . S
C451 C459 1.503 . S
C452 C451 1.410 . S
C452 C453 1.392 . S
C452 C455 1.511 . S
C453 C449 1.376 . S
C453 C452 1.392 . S
C453 H465 0.929 . S
C454 C450 1.531 . S
C454 H466 0.960 . S
C454 H467 0.962 . S
C454 H468 0.960 . S
C455 C452 1.511 . S
C455 H469 0.961 . S
C455 H470 0.961 . S
C455 H471 0.961 . S
C456 C457 1.370 . S
C456 C458 1.363 . S
C456 H472 0.931 . S
C457 C456 1.370 . S
C457 C461 1.408 . S
C458 C456 1.363 . S
C458 C459 1.370 . S
C458 C462 1.524 . S
C459 C451 1.503 . S
C459 C458 1.370 . S
C459 C460 1.403 . S
C460 C459 1.403 . S
C460 C461 1.404 . S
C460 C463 1.539 . S
C461 C457 1.408 . S
C461 C460 1.404 . S
C461 H473 0.930 . S
C462 C458 1.524 . S
C462 H474 0.956 . S
C462 H475 0.961 . S
C462 H476 0.961 . S
C463 C460 1.539 . S
C463 H477 0.958 . S
C463 H478 0.961 1_556 S
C463 H479 0.960 . S
H464 C448 0.931 . S
H465 C453 0.929 . S
H466 C454 0.960 . S
H467 C454 0.962 . S
H468 C454 0.960 . S
H469 C455 0.961 . S
H470 C455 0.961 . S
H471 C455 0.961 . S
H472 C456 0.931 . S
H473 C461 0.930 . S
H474 C462 0.956 . S
H475 C462 0.961 . S
H476 C462 0.961 . S
H477 C463 0.958 . S
H478 C463 0.961 1_554 S
H479 C463 0.960 . S
C480 C481 1.391 . S
C480 C482 1.394 . S
C480 H496 0.931 . S
C481 C480 1.391 . S
C481 C485 1.376 . S
C482 C480 1.394 . S
C482 C483 1.369 . S
C482 C486 1.531 . S
C483 C482 1.369 . S
C483 C484 1.410 . S
C483 C491 1.503 . S
C484 C483 1.410 . S
C484 C485 1.392 . S
C484 C487 1.511 . S
C485 C481 1.376 . S
C485 C484 1.392 . S
C485 H497 0.929 . S
C486 C482 1.531 . S
C486 H498 0.960 . S
C486 H499 0.962 . S
C486 H500 0.960 . S
C487 C484 1.511 . S
C487 H501 0.961 . S
C487 H502 0.961 . S
C487 H503 0.961 . S
C488 C489 1.370 . S
C488 C490 1.363 . S
C488 H504 0.931 . S
C489 C488 1.370 . S
C489 C493 1.408 . S
C490 C488 1.363 . S
C490 C491 1.370 . S
C490 C494 1.524 . S
C491 C483 1.503 . S
C491 C490 1.370 . S
C491 C492 1.403 . S
C492 C491 1.403 . S
C492 C493 1.404 . S
C492 C495 1.539 . S
C493 C489 1.408 . S
C493 C492 1.404 . S
C493 H505 0.930 . S
C494 C490 1.524 . S
C494 H506 0.956 . S
C494 H507 0.961 . S
C494 H508 0.961 . S
C495 C492 1.539 . S
C495 H509 0.958 . S
C495 H510 0.961 . S
C495 H511 0.960 . S
H496 C480 0.931 . S
H497 C485 0.929 . S
H498 C486 0.960 . S
H499 C486 0.962 . S
H500 C486 0.960 . S
H501 C487 0.961 . S
H502 C487 0.961 . S
H503 C487 0.961 . S
H504 C488 0.931 . S
H505 C493 0.930 . S
H506 C494 0.956 . S
H507 C494 0.961 . S
H508 C494 0.961 . S
H509 C495 0.958 . S
H510 C495 0.961 . S
H511 C495 0.960 . S
C512 C513 1.391 . S
C512 C514 1.394 . S
C512 H528 0.931 . S
C513 C512 1.391 . S
C513 C517 1.376 . S
C514 C512 1.394 . S
C514 C515 1.369 . S
C514 C518 1.531 . S
C515 C514 1.369 . S
C515 C516 1.410 . S
C515 C523 1.503 . S
C516 C515 1.410 . S
C516 C517 1.392 . S
C516 C519 1.511 . S
C517 C513 1.376 . S
C517 C516 1.392 . S
C517 H529 0.929 . S
C518 C514 1.531 . S
C518 H530 0.960 . S
C518 H531 0.962 . S
C518 H532 0.960 . S
C519 C516 1.511 . S
C519 H533 0.961 . S
C519 H534 0.961 . S
C519 H535 0.961 . S
C520 C521 1.370 . S
C520 C522 1.363 . S
C520 H536 0.931 . S
C521 C520 1.370 . S
C521 C525 1.408 . S
C522 C520 1.363 . S
C522 C523 1.370 . S
C522 C526 1.524 . S
C523 C515 1.503 . S
C523 C522 1.370 . S
C523 C524 1.403 . S
C524 C523 1.403 . S
C524 C525 1.404 . S
C524 C527 1.539 . S
C525 C521 1.408 . S
C525 C524 1.404 . S
C525 H537 0.930 . S
C526 C522 1.524 . S
C526 H538 0.956 . S
C526 H539 0.961 . S
C526 H540 0.961 . S
C527 C524 1.539 . S
C527 H541 0.958 . S
C527 H542 0.961 . S
C527 H543 0.960 . S
H528 C512 0.931 . S
H529 C517 0.929 . S
H530 C518 0.960 . S
H531 C518 0.962 . S
H532 C518 0.960 . S
H533 C519 0.961 . S
H534 C519 0.961 . S
H535 C519 0.961 . S
H536 C520 0.931 . S
H537 C525 0.930 . S
H538 C526 0.956 . S
H539 C526 0.961 . S
H540 C526 0.961 . S
H541 C527 0.958 . S
H542 C527 0.961 . S
H543 C527 0.960 . S
C544 C545 1.391 . S
C544 C546 1.394 . S
C544 H560 0.931 . S
C545 C544 1.391 . S
C545 C549 1.376 . S
C546 C544 1.394 . S
C546 C547 1.369 . S
C546 C550 1.531 . S
C547 C546 1.369 . S
C547 C548 1.410 . S
C547 C555 1.503 . S
C548 C547 1.410 . S
C548 C549 1.392 . S
C548 C551 1.511 . S
C549 C545 1.376 . S
C549 C548 1.392 . S
C549 H561 0.929 . S
C550 C546 1.531 . S
C550 H562 0.960 . S
C550 H563 0.962 . S
C550 H564 0.960 . S
C551 C548 1.511 . S
C551 H565 0.961 . S
C551 H566 0.961 . S
C551 H567 0.961 . S
C552 C553 1.370 . S
C552 C554 1.363 . S
C552 H568 0.931 . S
C553 C552 1.370 . S
C553 C557 1.408 . S
C554 C552 1.363 . S
C554 C555 1.370 . S
C554 C558 1.524 . S
C555 C547 1.503 . S
C555 C554 1.370 . S
C555 C556 1.403 . S
C556 C555 1.403 . S
C556 C557 1.404 . S
C556 C559 1.539 . S
C557 C553 1.408 . S
C557 C556 1.404 . S
C557 H569 0.930 . S
C558 C554 1.524 . S
C558 H570 0.956 . S
C558 H571 0.961 . S
C558 H572 0.961 . S
C559 C556 1.539 . S
C559 H573 0.958 . S
C559 H574 0.961 . S
C559 H575 0.960 . S
H560 C544 0.931 . S
H561 C549 0.929 . S
H562 C550 0.960 . S
H563 C550 0.962 . S
H564 C550 0.960 . S
H565 C551 0.961 . S
H566 C551 0.961 . S
H567 C551 0.961 . S
H568 C552 0.931 . S
H569 C557 0.930 . S
H570 C558 0.956 . S
H571 C558 0.961 . S
H572 C558 0.961 . S
H573 C559 0.958 . S
H574 C559 0.961 . S
H575 C559 0.960 . S
C576 C577 1.391 . S
C576 C578 1.394 . S
C576 H592 0.931 . S
C577 C576 1.391 . S
C577 C581 1.376 . S
C578 C576 1.394 . S
C578 C579 1.369 . S
C578 C582 1.531 . S
C579 C578 1.369 . S
C579 C580 1.410 . S
C579 C587 1.503 . S
C580 C579 1.410 . S
C580 C581 1.392 . S
C580 C583 1.511 . S
C581 C577 1.376 . S
C581 C580 1.392 . S
C581 H593 0.929 . S
C582 C578 1.531 . S
C582 H594 0.960 . S
C582 H595 0.962 . S
C582 H596 0.960 . S
C583 C580 1.511 . S
C583 H597 0.961 . S
C583 H598 0.961 . S
C583 H599 0.961 . S
C584 C585 1.370 . S
C584 C586 1.363 . S
C584 H600 0.931 . S
C585 C584 1.370 . S
C585 C589 1.408 . S
C586 C584 1.363 . S
C586 C587 1.370 . S
C586 C590 1.524 . S
C587 C579 1.503 . S
C587 C586 1.370 . S
C587 C588 1.403 . S
C588 C587 1.403 . S
C588 C589 1.404 . S
C588 C591 1.539 . S
C589 C585 1.408 . S
C589 C588 1.404 . S
C589 H601 0.930 . S
C590 C586 1.524 . S
C590 H602 0.956 . S
C590 H603 0.961 . S
C590 H604 0.961 . S
C591 C588 1.539 . S
C591 H605 0.958 . S
C591 H606 0.961 . S
C591 H607 0.960 . S
H592 C576 0.931 . S
H593 C581 0.929 . S
H594 C582 0.960 . S
H595 C582 0.962 . S
H596 C582 0.960 . S
H597 C583 0.961 . S
H598 C583 0.961 . S
H599 C583 0.961 . S
H600 C584 0.931 . S
H601 C589 0.930 . S
H602 C590 0.956 . S
H603 C590 0.961 . S
H604 C590 0.961 . S
H605 C591 0.958 . S
H606 C591 0.961 . S
H607 C591 0.960 . S
C608 C609 1.391 . S
C608 C610 1.394 . S
C608 H624 0.931 . S
C609 C608 1.391 . S
C609 C613 1.376 . S
C610 C608 1.394 . S
C610 C611 1.369 . S
C610 C614 1.531 . S
C611 C610 1.369 . S
C611 C612 1.410 . S
C611 C619 1.503 . S
C612 C611 1.410 . S
C612 C613 1.392 . S
C612 C615 1.511 . S
C613 C609 1.376 . S
C613 C612 1.392 . S
C613 H625 0.929 . S
C614 C610 1.531 . S
C614 H626 0.960 . S
C614 H627 0.962 . S
C614 H628 0.960 . S
C615 C612 1.511 . S
C615 H629 0.961 . S
C615 H630 0.961 . S
C615 H631 0.961 . S
C616 C617 1.370 . S
C616 C618 1.363 . S
C616 H632 0.931 . S
C617 C616 1.370 . S
C617 C621 1.408 . S
C618 C616 1.363 . S
C618 C619 1.370 . S
C618 C622 1.524 . S
C619 C611 1.503 . S
C619 C618 1.370 . S
C619 C620 1.403 . S
C620 C619 1.403 . S
C620 C621 1.404 . S
C620 C623 1.539 . S
C621 C617 1.408 . S
C621 C620 1.404 . S
C621 H633 0.930 . S
C622 C618 1.524 . S
C622 H634 0.956 . S
C622 H635 0.961 . S
C622 H636 0.961 . S
C623 C620 1.539 . S
C623 H637 0.958 . S
C623 H638 0.961 . S
C623 H639 0.960 . S
H624 C608 0.931 . S
H625 C613 0.929 . S
H626 C614 0.960 . S
H627 C614 0.962 . S
H628 C614 0.960 . S
H629 C615 0.961 . S
H630 C615 0.961 . S
H631 C615 0.961 . S
H632 C616 0.931 . S
H633 C621 0.930 . S
H634 C622 0.956 . S
H635 C622 0.961 . S
H636 C622 0.961 . S
H637 C623 0.958 . S
H638 C623 0.961 . S
H639 C623 0.960 . S
C640 C641 1.391 . S
C640 C642 1.394 . S
C640 H656 0.931 . S
C641 C640 1.391 . S
C641 C645 1.376 . S
C642 C640 1.394 . S
C642 C643 1.369 . S
C642 C646 1.531 . S
C643 C642 1.369 . S
C643 C644 1.410 . S
C643 C651 1.503 . S
C644 C643 1.410 . S
C644 C645 1.392 . S
C644 C647 1.511 . S
C645 C641 1.376 . S
C645 C644 1.392 . S
C645 H657 0.929 . S
C646 C642 1.531 . S
C646 H658 0.960 . S
C646 H659 0.962 . S
C646 H660 0.960 . S
C647 C644 1.511 . S
C647 H661 0.961 . S
C647 H662 0.961 . S
C647 H663 0.961 . S
C648 C649 1.370 . S
C648 C650 1.363 . S
C648 H664 0.931 . S
C649 C648 1.370 . S
C649 C653 1.408 . S
C650 C648 1.363 . S
C650 C651 1.370 . S
C650 C654 1.524 . S
C651 C643 1.503 . S
C651 C650 1.370 . S
C651 C652 1.403 . S
C652 C651 1.403 . S
C652 C653 1.404 . S
C652 C655 1.539 . S
C653 C649 1.408 . S
C653 C652 1.404 . S
C653 H665 0.930 . S
C654 C650 1.524 . S
C654 H666 0.956 . S
C654 H667 0.961 . S
C654 H668 0.961 . S
C655 C652 1.539 . S
C655 H669 0.958 . S
C655 H670 0.961 . S
C655 H671 0.960 . S
H656 C640 0.931 . S
H657 C645 0.929 . S
H658 C646 0.960 . S
H659 C646 0.962 . S
H660 C646 0.960 . S
H661 C647 0.961 . S
H662 C647 0.961 . S
H663 C647 0.961 . S
H664 C648 0.931 . S
H665 C653 0.930 . S
H666 C654 0.956 . S
H667 C654 0.961 . S
H668 C654 0.961 . S
H669 C655 0.958 . S
H670 C655 0.961 . S
H671 C655 0.960 . S
C672 C673 1.391 . S
C672 C674 1.394 . S
C672 H688 0.931 . S
C673 C672 1.391 . S
C673 C677 1.376 . S
C674 C672 1.394 . S
C674 C675 1.369 . S
C674 C678 1.531 . S
C675 C674 1.369 . S
C675 C676 1.410 . S
C675 C683 1.503 . S
C676 C675 1.410 . S
C676 C677 1.392 . S
C676 C679 1.511 . S
C677 C673 1.376 . S
C677 C676 1.392 . S
C677 H689 0.929 . S
C678 C674 1.531 . S
C678 H690 0.960 . S
C678 H691 0.962 . S
C678 H692 0.960 . S
C679 C676 1.511 . S
C679 H693 0.961 . S
C679 H694 0.961 . S
C679 H695 0.961 . S
C680 C681 1.370 . S
C680 C682 1.363 . S
C680 H696 0.931 . S
C681 C680 1.370 . S
C681 C685 1.408 . S
C682 C680 1.363 . S
C682 C683 1.370 . S
C682 C686 1.524 . S
C683 C675 1.503 . S
C683 C682 1.370 . S
C683 C684 1.403 . S
C684 C683 1.403 . S
C684 C685 1.404 . S
C684 C687 1.539 . S
C685 C681 1.408 . S
C685 C684 1.404 . S
C685 H697 0.930 . S
C686 C682 1.524 . S
C686 H698 0.956 . S
C686 H699 0.961 . S
C686 H700 0.961 . S
C687 C684 1.539 . S
C687 H701 0.958 . S
C687 H702 0.961 . S
C687 H703 0.960 . S
H688 C672 0.931 . S
H689 C677 0.929 . S
H690 C678 0.960 . S
H691 C678 0.962 . S
H692 C678 0.960 . S
H693 C679 0.961 . S
H694 C679 0.961 . S
H695 C679 0.961 . S
H696 C680 0.931 . S
H697 C685 0.930 . S
H698 C686 0.956 . S
H699 C686 0.961 . S
H700 C686 0.961 . S
H701 C687 0.958 . S
H702 C687 0.961 . S
H703 C687 0.960 . S
C704 C705 1.391 . S
C704 C706 1.394 . S
C704 H720 0.931 . S
C705 C704 1.391 . S
C705 C709 1.376 . S
C706 C704 1.394 . S
C706 C707 1.369 . S
C706 C710 1.531 . S
C707 C706 1.369 . S
C707 C708 1.410 . S
C707 C715 1.503 . S
C708 C707 1.410 . S
C708 C709 1.392 . S
C708 C711 1.511 . S
C709 C705 1.376 . S
C709 C708 1.392 . S
C709 H721 0.929 . S
C710 C706 1.531 . S
C710 H722 0.960 . S
C710 H723 0.962 . S
C710 H724 0.960 . S
C711 C708 1.511 . S
C711 H725 0.961 . S
C711 H726 0.961 . S
C711 H727 0.961 . S
C712 C713 1.370 . S
C712 C714 1.363 . S
C712 H728 0.931 . S
C713 C712 1.370 . S
C713 C717 1.408 . S
C714 C712 1.363 . S
C714 C715 1.370 . S
C714 C718 1.524 . S
C715 C707 1.503 . S
C715 C714 1.370 . S
C715 C716 1.403 . S
C716 C715 1.403 . S
C716 C717 1.404 . S
C716 C719 1.539 . S
C717 C713 1.408 . S
C717 C716 1.404 . S
C717 H729 0.930 . S
C718 C714 1.524 . S
C718 H730 0.956 . S
C718 H731 0.961 . S
C718 H732 0.961 . S
C719 C716 1.539 . S
C719 H733 0.958 . S
C719 H734 0.961 . S
C719 H735 0.960 . S
H720 C704 0.931 . S
H721 C709 0.929 . S
H722 C710 0.960 . S
H723 C710 0.962 . S
H724 C710 0.960 . S
H725 C711 0.961 . S
H726 C711 0.961 . S
H727 C711 0.961 . S
H728 C712 0.931 . S
H729 C717 0.930 . S
H730 C718 0.956 . S
H731 C718 0.961 . S
H732 C718 0.961 . S
H733 C719 0.958 . S
H734 C719 0.961 . S
H735 C719 0.960 . S
C736 C737 1.391 . S
C736 C738 1.394 . S
C736 H752 0.931 . S
C737 C736 1.391 . S
C737 C741 1.376 . S
C738 C736 1.394 . S
C738 C739 1.369 . S
C738 C742 1.531 . S
C739 C738 1.369 . S
C739 C740 1.410 . S
C739 C747 1.503 . S
C740 C739 1.410 . S
C740 C741 1.392 . S
C740 C743 1.511 . S
C741 C737 1.376 . S
C741 C740 1.392 . S
C741 H753 0.929 . S
C742 C738 1.531 . S
C742 H754 0.960 . S
C742 H755 0.962 . S
C742 H756 0.960 . S
C743 C740 1.511 . S
C743 H757 0.961 . S
C743 H758 0.961 . S
C743 H759 0.961 . S
C744 C745 1.370 . S
C744 C746 1.363 . S
C744 H760 0.931 . S
C745 C744 1.370 . S
C745 C749 1.408 . S
C746 C744 1.363 . S
C746 C747 1.370 . S
C746 C750 1.524 . S
C747 C739 1.503 . S
C747 C746 1.370 . S
C747 C748 1.403 . S
C748 C747 1.403 . S
C748 C749 1.404 . S
C748 C751 1.539 . S
C749 C745 1.408 . S
C749 C748 1.404 . S
C749 H761 0.930 . S
C750 C746 1.524 . S
C750 H762 0.956 . S
C750 H763 0.961 . S
C750 H764 0.961 . S
C751 C748 1.539 . S
C751 H765 0.958 . S
C751 H766 0.961 . S
C751 H767 0.960 . S
H752 C736 0.931 . S
H753 C741 0.929 . S
H754 C742 0.960 . S
H755 C742 0.962 . S
H756 C742 0.960 . S
H757 C743 0.961 . S
H758 C743 0.961 . S
H759 C743 0.961 . S
H760 C744 0.931 . S
H761 C749 0.930 . S
H762 C750 0.956 . S
H763 C750 0.961 . S
H764 C750 0.961 . S
H765 C751 0.958 . S
H766 C751 0.961 . S
H767 C751 0.960 . S
C768 C769 1.391 . S
C768 C770 1.394 . S
C768 H784 0.931 . S
C769 C768 1.391 . S
C769 C773 1.376 . S
C770 C768 1.394 . S
C770 C771 1.369 . S
C770 C774 1.531 . S
C771 C770 1.369 . S
C771 C772 1.410 . S
C771 C779 1.503 . S
C772 C771 1.410 . S
C772 C773 1.392 . S
C772 C775 1.511 . S
C773 C769 1.376 . S
C773 C772 1.392 . S
C773 H785 0.929 . S
C774 C770 1.531 . S
C774 H786 0.960 . S
C774 H787 0.962 . S
C774 H788 0.960 . S
C775 C772 1.511 . S
C775 H789 0.961 . S
C775 H790 0.961 . S
C775 H791 0.961 . S
C776 C777 1.370 . S
C776 C778 1.363 . S
C776 H792 0.931 . S
C777 C776 1.370 . S
C777 C781 1.408 . S
C778 C776 1.363 . S
C778 C779 1.370 . S
C778 C782 1.524 . S
C779 C771 1.503 . S
C779 C778 1.370 . S
C779 C780 1.403 . S
C780 C779 1.403 . S
C780 C781 1.404 . S
C780 C783 1.539 . S
C781 C777 1.408 . S
C781 C780 1.404 . S
C781 H793 0.930 . S
C782 C778 1.524 . S
C782 H794 0.956 . S
C782 H795 0.961 . S
C782 H796 0.961 . S
C783 C780 1.539 . S
C783 H797 0.958 . S
C783 H798 0.961 . S
C783 H799 0.960 . S
H784 C768 0.931 . S
H785 C773 0.929 . S
H786 C774 0.960 . S
H787 C774 0.962 . S
H788 C774 0.960 . S
H789 C775 0.961 . S
H790 C775 0.961 . S
H791 C775 0.961 . S
H792 C776 0.931 . S
H793 C781 0.930 . S
H794 C782 0.956 . S
H795 C782 0.961 . S
H796 C782 0.961 . S
H797 C783 0.958 . S
H798 C783 0.961 . S
H799 C783 0.960 . S
C800 C801 1.391 . S
C800 C802 1.394 . S
C800 H816 0.931 . S
C801 C800 1.391 . S
C801 C805 1.376 . S
C802 C800 1.394 . S
C802 C803 1.369 . S
C802 C806 1.531 . S
C803 C802 1.369 . S
C803 C804 1.410 . S
C803 C811 1.503 . S
C804 C803 1.410 . S
C804 C805 1.392 . S
C804 C807 1.511 . S
C805 C801 1.376 . S
C805 C804 1.392 . S
C805 H817 0.929 . S
C806 C802 1.531 . S
C806 H818 0.960 . S
C806 H819 0.962 . S
C806 H820 0.960 . S
C807 C804 1.511 . S
C807 H821 0.961 . S
C807 H822 0.961 . S
C807 H823 0.961 . S
C808 C809 1.370 . S
C808 C810 1.363 . S
C808 H824 0.931 . S
C809 C808 1.370 . S
C809 C813 1.408 . S
C810 C808 1.363 . S
C810 C811 1.370 . S
C810 C814 1.524 . S
C811 C803 1.503 . S
C811 C810 1.370 . S
C811 C812 1.403 . S
C812 C811 1.403 . S
C812 C813 1.404 . S
C812 C815 1.539 . S
C813 C809 1.408 . S
C813 C812 1.404 . S
C813 H825 0.930 . S
C814 C810 1.524 . S
C814 H826 0.956 . S
C814 H827 0.961 . S
C814 H828 0.961 . S
C815 C812 1.539 . S
C815 H829 0.958 . S
C815 H830 0.961 . S
C815 H831 0.960 . S
H816 C800 0.931 . S
H817 C805 0.929 . S
H818 C806 0.960 . S
H819 C806 0.962 . S
H820 C806 0.960 . S
H821 C807 0.961 . S
H822 C807 0.961 . S
H823 C807 0.961 . S
H824 C808 0.931 . S
H825 C813 0.930 . S
H826 C814 0.956 . S
H827 C814 0.961 . S
H828 C814 0.961 . S
H829 C815 0.958 . S
H830 C815 0.961 . S
H831 C815 0.960 . S
C832 C833 1.391 . S
C832 C834 1.394 . S
C832 H848 0.931 . S
C833 C832 1.391 . S
C833 C837 1.376 . S
C834 C832 1.394 . S
C834 C835 1.369 . S
C834 C838 1.531 . S
C835 C834 1.369 . S
C835 C836 1.410 . S
C835 C843 1.503 . S
C836 C835 1.410 . S
C836 C837 1.392 . S
C836 C839 1.511 . S
C837 C833 1.376 . S
C837 C836 1.392 . S
C837 H849 0.929 . S
C838 C834 1.531 . S
C838 H850 0.960 . S
C838 H851 0.962 . S
C838 H852 0.960 . S
C839 C836 1.511 . S
C839 H853 0.961 . S
C839 H854 0.961 . S
C839 H855 0.961 . S
C840 C841 1.370 . S
C840 C842 1.363 . S
C840 H856 0.931 . S
C841 C840 1.370 . S
C841 C845 1.408 . S
C842 C840 1.363 . S
C842 C843 1.370 . S
C842 C846 1.524 . S
C843 C835 1.503 . S
C843 C842 1.370 . S
C843 C844 1.403 . S
C844 C843 1.403 . S
C844 C845 1.404 . S
C844 C847 1.539 . S
C845 C841 1.408 . S
C845 C844 1.404 . S
C845 H857 0.930 . S
C846 C842 1.524 . S
C846 H858 0.956 . S
C846 H859 0.961 . S
C846 H860 0.961 . S
C847 C844 1.539 . S
C847 H861 0.947 1_556 S
C847 H862 0.961 . S
C847 H863 0.960 . S
H848 C832 0.931 . S
H849 C837 0.929 . S
H850 C838 0.960 . S
H851 C838 0.962 . S
H852 C838 0.960 . S
H853 C839 0.961 . S
H854 C839 0.961 . S
H855 C839 0.961 . S
H856 C840 0.931 . S
H857 C845 0.930 . S
H858 C846 0.956 . S
H859 C846 0.961 . S
H860 C846 0.961 . S
H861 C847 0.947 1_554 S
H862 C847 0.961 . S
H863 C847 0.960 . S
C864 C865 1.391 . S
C864 C866 1.394 . S
C864 H880 0.931 . S
C865 C864 1.391 . S
C865 C869 1.376 . S
C866 C864 1.394 . S
C866 C867 1.369 . S
C866 C870 1.531 . S
C867 C866 1.369 . S
C867 C868 1.410 . S
C867 C875 1.503 . S
C868 C867 1.410 . S
C868 C869 1.392 . S
C868 C871 1.511 . S
C869 C865 1.376 . S
C869 C868 1.392 . S
C869 H881 0.929 . S
C870 C866 1.531 . S
C870 H882 0.960 . S
C870 H883 0.962 . S
C870 H884 0.960 . S
C871 C868 1.511 . S
C871 H885 0.961 . S
C871 H886 0.961 . S
C871 H887 0.961 . S
C872 C873 1.370 . S
C872 C874 1.363 . S
C872 H888 0.931 . S
C873 C872 1.370 . S
C873 C877 1.408 . S
C874 C872 1.363 . S
C874 C875 1.370 . S
C874 C878 1.524 . S
C875 C867 1.503 . S
C875 C874 1.370 . S
C875 C876 1.403 . S
C876 C875 1.403 . S
C876 C877 1.404 . S
C876 C879 1.539 . S
C877 C873 1.408 . S
C877 C876 1.404 . S
C877 H889 0.930 . S
C878 C874 1.524 . S
C878 H890 0.956 . S
C878 H891 0.961 . S
C878 H892 0.961 . S
C879 C876 1.539 . S
C879 H893 0.958 . S
C879 H894 0.961 . S
C879 H895 0.960 . S
H880 C864 0.931 . S
H881 C869 0.929 . S
H882 C870 0.960 . S
H883 C870 0.962 . S
H884 C870 0.960 . S
H885 C871 0.961 . S
H886 C871 0.961 . S
H887 C871 0.961 . S
H888 C872 0.931 . S
H889 C877 0.930 . S
H890 C878 0.956 . S
H891 C878 0.961 . S
H892 C878 0.961 . S
H893 C879 0.958 . S
H894 C879 0.961 . S
H895 C879 0.960 . S
C896 C897 1.391 . S
C896 C898 1.394 . S
C896 H912 0.931 . S
C897 C896 1.391 . S
C897 C901 1.376 . S
C898 C896 1.394 . S
C898 C899 1.369 . S
C898 C902 1.531 . S
C899 C898 1.369 . S
C899 C900 1.410 . S
C899 C907 1.503 . S
C900 C899 1.410 . S
C900 C901 1.392 . S
C900 C903 1.511 . S
C901 C897 1.376 . S
C901 C900 1.392 . S
C901 H913 0.929 . S
C902 C898 1.531 . S
C902 H914 0.960 . S
C902 H915 0.962 . S
C902 H916 0.960 . S
C903 C900 1.511 . S
C903 H917 0.961 . S
C903 H918 0.961 . S
C903 H919 0.961 . S
C904 C905 1.370 . S
C904 C906 1.363 . S
C904 H920 0.931 . S
C905 C904 1.370 . S
C905 C909 1.408 . S
C906 C904 1.363 . S
C906 C907 1.370 . S
C906 C910 1.524 . S
C907 C899 1.503 . S
C907 C906 1.370 . S
C907 C908 1.403 . S
C908 C907 1.403 . S
C908 C909 1.404 . S
C908 C911 1.539 . S
C909 C905 1.408 . S
C909 C908 1.404 . S
C909 H921 0.930 . S
C910 C906 1.524 . S
C910 H922 0.956 . S
C910 H923 0.961 . S
C910 H924 0.961 . S
C911 C908 1.539 . S
C911 H925 0.958 . S
C911 H926 0.961 1_554 S
C911 H927 0.960 . S
H912 C896 0.931 . S
H913 C901 0.929 . S
H914 C902 0.960 . S
H915 C902 0.962 . S
H916 C902 0.960 . S
H917 C903 0.961 . S
H918 C903 0.961 . S
H919 C903 0.961 . S
H920 C904 0.931 . S
H921 C909 0.930 . S
H922 C910 0.956 . S
H923 C910 0.961 . S
H924 C910 0.961 . S
H925 C911 0.958 . S
H926 C911 0.961 1_556 S
H927 C911 0.960 . S
C928 C929 1.391 . S
C928 C930 1.394 . S
C928 H944 0.931 . S
C929 C928 1.391 . S
C929 C933 1.376 . S
C930 C928 1.394 . S
C930 C931 1.369 . S
C930 C934 1.531 . S
C931 C930 1.369 . S
C931 C932 1.410 . S
C931 C939 1.503 1_455 S
C932 C931 1.410 . S
C932 C933 1.392 . S
C932 C935 1.511 1_455 S
C933 C929 1.376 . S
C933 C932 1.392 . S
C933 H945 0.929 . S
C934 C930 1.531 . S
C934 H946 0.960 . S
C934 H947 0.962 . S
C934 H948 0.960 . S
C935 C932 1.511 1_655 S
C935 H949 0.961 . S
C935 H950 0.961 . S
C935 H951 0.961 . S
C936 C937 1.370 . S
C936 C938 1.363 . S
C936 H952 0.931 . S
C937 C936 1.370 . S
C937 C941 1.408 . S
C938 C936 1.363 . S
C938 C939 1.370 . S
C938 C942 1.524 . S
C939 C931 1.503 1_655 S
C939 C938 1.370 . S
C939 C940 1.403 . S
C940 C939 1.403 . S
C940 C941 1.404 . S
C940 C943 1.539 . S
C941 C937 1.408 . S
C941 C940 1.404 . S
C941 H953 0.930 . S
C942 C938 1.524 . S
C942 H954 0.956 1_655 S
C942 H955 0.961 . S
C942 H956 0.961 . S
C943 C940 1.539 . S
C943 H957 0.958 . S
C943 H958 0.961 . S
C943 H959 0.960 . S
H944 C928 0.931 . S
H945 C933 0.929 . S
H946 C934 0.960 . S
H947 C934 0.962 . S
H948 C934 0.960 . S
H949 C935 0.961 . S
H950 C935 0.961 . S
H951 C935 0.961 . S
H952 C936 0.931 . S
H953 C941 0.930 . S
H954 C942 0.956 1_455 S
H955 C942 0.961 . S
H956 C942 0.961 . S
H957 C943 0.958 . S
H958 C943 0.961 . S
H959 C943 0.960 . S
C960 C961 1.391 . S
C960 C962 1.394 . S
C960 H976 0.931 . S
C961 C960 1.391 . S
C961 C965 1.376 . S
C962 C960 1.394 . S
C962 C963 1.369 . S
C962 C966 1.531 1_545 S
C963 C962 1.369 . S
C963 C964 1.410 . S
C963 C971 1.503 1_545 S
C964 C963 1.410 . S
C964 C965 1.392 . S
C964 C967 1.511 . S
C965 C961 1.376 . S
C965 C964 1.392 . S
C965 H977 0.929 . S
C966 C962 1.531 1_565 S
C966 H978 0.960 . S
C966 H979 0.962 . S
C966 H980 0.960 . S
C967 C964 1.511 . S
C967 H981 0.961 . S
C967 H982 0.961 . S
C967 H983 0.961 . S
C968 C969 1.370 . S
C968 C970 1.363 . S
C968 H984 0.931 . S
C969 C968 1.370 . S
C969 C973 1.408 . S
C970 C968 1.363 . S
C970 C971 1.370 . S
C970 C974 1.524 . S
C971 C963 1.503 1_565 S
C971 C970 1.370 . S
C971 C972 1.403 1_565 S
C972 C971 1.403 1_545 S
C972 C973 1.404 1_545 S
C972 C975 1.539 . S
C973 C969 1.408 . S
C973 C972 1.404 1_565 S
C973 H985 0.930 . S
C974 C970 1.524 . S
C974 H986 0.956 . S
C974 H987 0.961 . S
C974 H988 0.961 . S
C975 C972 1.539 . S
C975 H989 0.958 . S
C975 H990 0.961 . S
C975 H991 0.960 . S
H976 C960 0.931 . S
H977 C965 0.929 . S
H978 C966 0.960 . S
H979 C966 0.962 . S
H980 C966 0.960 . S
H981 C967 0.961 . S
H982 C967 0.961 . S
H983 C967 0.961 . S
H984 C968 0.931 . S
H985 C973 0.930 . S
H986 C974 0.956 . S
H987 C974 0.961 . S
H988 C974 0.961 . S
H989 C975 0.958 . S
H990 C975 0.961 . S
H991 C975 0.960 . S
C992 C993 1.391 . S
C992 C994 1.394 . S
C992 H1008 0.931 . S
C993 C992 1.391 . S
C993 C997 1.376 . S
C994 C992 1.394 . S
C994 C995 1.369 . S
C994 C998 1.531 1_455 S
C995 C994 1.369 . S
C995 C996 1.410 1_556 S
C995 C1003 1.503 1_446 S
C996 C995 1.410 1_554 S
C996 C997 1.392 1_554 S
C996 C999 1.511 1_545 S
C997 C993 1.376 . S
C997 C996 1.392 1_556 S
C997 H1009 0.929 1_556 S
C998 C994 1.531 1_655 S
C998 H1010 0.960 . S
C998 H1011 0.962 . S
C998 H1012 0.960 . S
C999 C996 1.511 1_565 S
C999 H1013 0.961 . S
C999 H1014 0.961 . S
C999 H1015 0.961 . S
C1000 C1001 1.370 . S
C1000 C1002 1.363 1_565 S
C1000 H1016 0.931 . S
C1001 C1000 1.370 . S
C1001 C1005 1.408 . S
C1002 C1000 1.363 1_545 S
C1002 C1003 1.370 1_545 S
C1002 C1006 1.524 . S
C1003 C995 1.503 1_664 S
C1003 C1002 1.370 1_565 S
C1003 C1004 1.403 1_554 S
C1004 C1003 1.403 1_556 S
C1004 C1005 1.404 1_556 S
C1004 C1007 1.484 1_655 S
C1005 C1001 1.408 . S
C1005 C1004 1.404 1_554 S
C1005 H1017 0.930 . S
C1006 C1002 1.524 . S
C1006 H1018 0.956 . S
C1006 H1019 1.048 . S
C1006 H1020 0.961 . S
C1007 C1004 1.484 1_455 S
C1007 H1021 0.929 1_455 S
C1007 H1022 0.967 . S
C1007 H1023 1.050 . S
H1008 C992 0.931 . S
H1009 C997 0.929 1_554 S
H1010 C998 0.960 . S
H1011 C998 0.962 . S
H1012 C998 0.960 . S
H1013 C999 0.961 . S
H1014 C999 0.961 . S
H1015 C999 0.961 . S
H1016 C1000 0.931 . S
H1017 C1005 0.930 . S
H1018 C1006 0.956 . S
H1019 C1006 1.048 . S
H1020 C1006 0.961 . S
H1021 C1007 0.929 1_655 S
H1022 C1007 0.967 . S
H1023 C1007 1.050 . S
C1024 C1025 1.391 . S
C1024 C1026 1.394 . S
C1024 H1040 0.931 . S
C1025 C1024 1.391 . S
C1025 C1029 1.376 . S
C1026 C1024 1.394 . S
C1026 C1027 1.369 . S
C1026 C1030 1.531 . S
C1027 C1026 1.369 . S
C1027 C1028 1.410 1_556 S
C1027 C1035 1.503 1_556 S
C1028 C1027 1.410 1_554 S
C1028 C1029 1.392 1_554 S
C1028 C1031 1.511 . S
C1029 C1025 1.376 . S
C1029 C1028 1.392 1_556 S
C1029 H1041 0.929 1_556 S
C1030 C1026 1.531 . S
C1030 H1042 0.960 . S
C1030 H1043 0.962 . S
C1030 H1044 0.960 . S
C1031 C1028 1.511 . S
C1031 H1045 0.961 . S
C1031 H1046 0.961 . S
C1031 H1047 0.961 . S
C1032 C1033 1.370 . S
C1032 C1034 1.363 1_554 S
C1032 H1048 0.932 . S
C1033 C1032 1.370 . S
C1033 C1037 1.408 . S
C1034 C1032 1.363 1_556 S
C1034 C1035 1.370 1_556 S
C1034 C1038 1.524 . S
C1035 C1027 1.503 1_554 S
C1035 C1034 1.370 1_554 S
C1035 C1036 1.403 . S
C1036 C1035 1.403 . S
C1036 C1037 1.404 . S
C1036 C1039 1.539 . S
C1037 C1033 1.408 . S
C1037 C1036 1.404 . S
C1037 H1049 0.930 . S
C1038 C1034 1.524 . S
C1038 H1050 0.956 . S
C1038 H1051 0.961 . S
C1038 H1052 0.961 . S
C1039 C1036 1.539 . S
C1039 H1053 0.958 . S
C1039 H1054 0.961 . S
C1039 H1055 0.960 . S
H1040 C1024 0.931 . S
H1041 C1029 0.929 1_554 S
H1042 C1030 0.960 . S
H1043 C1030 0.962 . S
H1044 C1030 0.960 . S
H1045 C1031 0.961 . S
H1046 C1031 0.961 . S
H1047 C1031 0.961 . S
H1048 C1032 0.932 . S
H1049 C1037 0.930 . S
H1050 C1038 0.956 . S
H1051 C1038 0.961 . S
H1052 C1038 0.961 . S
H1053 C1039 0.958 . S
H1054 C1039 0.961 . S
H1055 C1039 0.960 . S
C1056 C1057 1.391 . S
C1056 C1058 1.394 . S
C1056 H1072 0.931 . S
C1057 C1056 1.391 . S
C1057 C1061 1.376 . S
C1058 C1056 1.394 . S
C1058 C1059 1.369 . S
C1058 C1062 1.531 . S
C1059 C1058 1.369 . S
C1059 C1060 1.410 . S
C1059 C1067 1.503 1_655 S
C1060 C1059 1.410 . S
C1060 C1061 1.392 . S
C1060 C1063 1.511 1_655 S
C1061 C1057 1.376 . S
C1061 C1060 1.392 . S
C1061 H1073 0.929 . S
C1062 C1058 1.531 . S
C1062 H1074 0.960 . S
C1062 H1075 0.962 . S
C1062 H1076 0.960 . S
C1063 C1060 1.511 1_455 S
C1063 H1077 0.961 . S
C1063 H1078 0.961 . S
C1063 H1079 0.961 . S
C1064 C1065 1.370 . S
C1064 C1066 1.363 . S
C1064 H1080 0.931 . S
C1065 C1064 1.370 . S
C1065 C1069 1.408 . S
C1066 C1064 1.363 . S
C1066 C1067 1.370 . S
C1066 C1070 1.501 1_455 S
C1067 C1059 1.503 1_455 S
C1067 C1066 1.370 . S
C1067 C1068 1.403 . S
C1068 C1067 1.403 . S
C1068 C1069 1.404 . S
C1068 C1071 1.539 . S
C1069 C1065 1.408 . S
C1069 C1068 1.404 . S
C1069 H1081 0.930 . S
C1070 C1066 1.501 1_655 S
C1070 H1082 0.993 . S
C1070 H1083 0.960 . S
C1070 H1084 0.947 1_655 S
C1071 C1068 1.539 . S
C1071 H1085 0.958 . S
C1071 H1086 0.961 . S
C1071 H1087 0.960 . S
H1072 C1056 0.931 . S
H1073 C1061 0.929 . S
H1074 C1062 0.960 . S
H1075 C1062 0.962 . S
H1076 C1062 0.960 . S
H1077 C1063 0.961 . S
H1078 C1063 0.961 . S
H1079 C1063 0.961 . S
H1080 C1064 0.931 . S
H1081 C1069 0.930 . S
H1082 C1070 0.993 . S
H1083 C1070 0.960 . S
H1084 C1070 0.947 1_455 S
H1085 C1071 0.958 . S
H1086 C1071 0.961 . S
H1087 C1071 0.960 . S
C1088 C1089 1.391 . S
C1088 C1090 1.394 . S
C1088 H1104 0.931 . S
C1089 C1088 1.391 . S
C1089 C1093 1.376 . S
C1090 C1088 1.394 . S
C1090 C1091 1.369 . S
C1090 C1094 1.531 1_545 S
C1091 C1090 1.369 . S
C1091 C1092 1.410 . S
C1091 C1099 1.503 1_545 S
C1092 C1091 1.410 . S
C1092 C1093 1.392 . S
C1092 C1095 1.511 . S
C1093 C1089 1.376 . S
C1093 C1092 1.392 . S
C1093 H1105 0.929 . S
C1094 C1090 1.531 1_565 S
C1094 H1106 0.960 . S
C1094 H1107 0.972 . S
C1094 H1108 0.960 . S
C1095 C1092 1.511 . S
C1095 H1109 0.961 . S
C1095 H1110 0.961 . S
C1095 H1111 0.961 1_545 S
C1096 C1097 1.370 . S
C1096 C1098 1.363 1_565 S
C1096 H1112 0.931 . S
C1097 C1096 1.370 . S
C1097 C1101 1.408 . S
C1098 C1096 1.363 1_545 S
C1098 C1099 1.370 1_545 S
C1098 C1102 1.524 . S
C1099 C1091 1.503 1_565 S
C1099 C1098 1.370 1_565 S
C1099 C1100 1.403 . S
C1100 C1099 1.403 . S
C1100 C1101 1.404 . S
C1100 C1103 1.539 . S
C1101 C1097 1.408 . S
C1101 C1100 1.404 . S
C1101 H1113 0.930 . S
C1102 C1098 1.524 . S
C1102 H1114 0.956 . S
C1102 H1115 0.961 . S
C1102 H1116 0.961 . S
C1103 C1100 1.539 . S
C1103 H1117 0.958 . S
C1103 H1118 0.961 . S
C1103 H1119 0.960 . S
H1104 C1088 0.931 . S
H1105 C1093 0.929 . S
H1106 C1094 0.960 . S
H1107 C1094 0.972 . S
H1108 C1094 0.960 . S
H1109 C1095 0.961 . S
H1110 C1095 0.961 . S
H1111 C1095 0.961 1_565 S
H1112 C1096 0.931 . S
H1113 C1101 0.930 . S
H1114 C1102 0.956 . S
H1115 C1102 0.961 . S
H1116 C1102 0.961 . S
H1117 C1103 0.958 . S
H1118 C1103 0.961 . S
H1119 C1103 0.960 . S
C1120 C1121 1.391 . S
C1120 C1122 1.394 . S
C1120 H1136 0.931 . S
C1121 C1120 1.391 . S
C1121 C1125 1.376 . S
C1122 C1120 1.394 . S
C1122 C1123 1.369 . S
C1122 C1126 1.531 . S
C1123 C1122 1.369 . S
C1123 C1124 1.410 . S
C1123 C1131 1.503 1_556 S
C1124 C1123 1.410 . S
C1124 C1125 1.392 . S
C1124 C1127 1.511 1_556 S
C1125 C1121 1.376 . S
C1125 C1124 1.392 . S
C1125 H1137 0.929 . S
C1126 C1122 1.531 . S
C1126 H1138 0.960 . S
C1126 H1139 0.962 . S
C1126 H1140 0.960 . S
C1127 C1124 1.511 1_554 S
C1127 H1141 0.961 . S
C1127 H1142 0.961 . S
C1127 H1143 0.961 1_554 S
C1128 C1129 1.370 . S
C1128 C1130 1.363 . S
C1128 H1144 0.931 . S
C1129 C1128 1.370 . S
C1129 C1133 1.424 . S
C1130 C1128 1.363 . S
C1130 C1131 1.370 . S
C1130 C1134 1.524 . S
C1131 C1123 1.503 1_554 S
C1131 C1130 1.370 . S
C1131 C1132 1.403 1_554 S
C1132 C1131 1.403 1_556 S
C1132 C1133 1.396 1_556 S
C1132 C1135 1.539 . S
C1133 C1129 1.424 . S
C1133 C1132 1.396 1_554 S
C1133 H1145 0.922 1_554 S
C1134 C1130 1.524 . S
C1134 H1146 0.956 . S
C1134 H1147 0.961 . S
C1134 H1148 0.961 . S
C1135 C1132 1.539 . S
C1135 H1149 0.958 . S
C1135 H1150 0.961 . S
C1135 H1151 0.960 . S
H1136 C1120 0.931 . S
H1137 C1125 0.929 . S
H1138 C1126 0.960 . S
H1139 C1126 0.962 . S
H1140 C1126 0.960 . S
H1141 C1127 0.961 . S
H1142 C1127 0.961 . S
H1143 C1127 0.961 1_556 S
H1144 C1128 0.931 . S
H1145 C1133 0.922 1_556 S
H1146 C1134 0.956 . S
H1147 C1134 0.961 . S
H1148 C1134 0.961 . S
H1149 C1135 0.958 . S
H1150 C1135 0.961 . S
H1151 C1135 0.960 . S
C1152 C1153 1.391 . S
C1152 C1154 1.394 . S
C1152 H1168 0.931 . S
C1153 C1152 1.391 . S
C1153 C1157 1.376 . S
C1154 C1152 1.394 . S
C1154 C1155 1.369 . S
C1154 C1158 1.531 . S
C1155 C1154 1.369 . S
C1155 C1156 1.410 . S
C1155 C1163 1.503 . S
C1156 C1155 1.410 . S
C1156 C1157 1.392 . S
C1156 C1159 1.511 . S
C1157 C1153 1.376 . S
C1157 C1156 1.392 . S
C1157 H1169 0.929 . S
C1158 C1154 1.531 . S
C1158 H1170 0.960 . S
C1158 H1171 0.962 . S
C1158 H1172 0.960 . S
C1159 C1156 1.511 . S
C1159 H1173 0.961 . S
C1159 H1174 0.961 . S
C1159 H1175 0.961 . S
C1160 C1161 1.370 . S
C1160 C1162 1.363 . S
C1160 H1176 0.931 . S
C1161 C1160 1.370 . S
C1161 C1165 1.408 . S
C1162 C1160 1.363 . S
C1162 C1163 1.370 . S
C1162 C1166 1.524 . S
C1163 C1155 1.503 . S
C1163 C1162 1.370 . S
C1163 C1164 1.403 . S
C1164 C1163 1.403 . S
C1164 C1165 1.404 . S
C1164 C1167 1.539 . S
C1165 C1161 1.408 . S
C1165 C1164 1.404 . S
C1165 H1177 0.930 . S
C1166 C1162 1.524 . S
C1166 H1178 0.956 . S
C1166 H1179 0.961 . S
C1166 H1180 0.961 . S
C1167 C1164 1.539 . S
C1167 H1181 0.958 . S
C1167 H1182 0.961 . S
C1167 H1183 0.960 . S
H1168 C1152 0.931 . S
H1169 C1157 0.929 . S
H1170 C1158 0.960 . S
H1171 C1158 0.962 . S
H1172 C1158 0.960 . S
H1173 C1159 0.961 . S
H1174 C1159 0.961 . S
H1175 C1159 0.961 . S
H1176 C1160 0.931 . S
H1177 C1165 0.930 . S
H1178 C1166 0.956 . S
H1179 C1166 0.961 . S
H1180 C1166 0.961 . S
H1181 C1167 0.958 . S
H1182 C1167 0.961 . S
H1183 C1167 0.960 . S
C1184 C1185 1.391 . S
C1184 C1186 1.394 . S
C1184 H1200 0.931 . S
C1185 C1184 1.391 . S
C1185 C1189 1.376 . S
C1186 C1184 1.394 . S
C1186 C1187 1.369 . S
C1186 C1190 1.531 1_455 S
C1187 C1186 1.369 . S
C1187 C1188 1.410 . S
C1187 C1195 1.503 1_455 S
C1188 C1187 1.410 . S
C1188 C1189 1.392 . S
C1188 C1191 1.511 . S
C1189 C1185 1.376 . S
C1189 C1188 1.392 . S
C1189 H1201 0.929 . S
C1190 C1186 1.531 1_655 S
C1190 H1202 0.960 . S
C1190 H1203 0.977 . S
C1190 H1204 0.960 . S
C1191 C1188 1.511 . S
C1191 H1205 0.961 . S
C1191 H1206 0.961 . S
C1191 H1207 0.961 . S
C1192 C1193 1.370 . S
C1192 C1194 1.363 . S
C1192 H1208 0.931 . S
C1193 C1192 1.370 . S
C1193 C1197 1.408 . S
C1194 C1192 1.363 . S
C1194 C1195 1.370 . S
C1194 C1198 1.524 1_655 S
C1195 C1187 1.503 1_655 S
C1195 C1194 1.370 . S
C1195 C1196 1.403 . S
C1196 C1195 1.403 . S
C1196 C1197 1.404 . S
C1196 C1199 1.539 . S
C1197 C1193 1.408 . S
C1197 C1196 1.404 . S
C1197 H1209 0.930 . S
C1198 C1194 1.524 1_455 S
C1198 H1210 0.956 . S
C1198 H1211 0.961 . S
C1198 H1212 0.961 . S
C1199 C1196 1.539 . S
C1199 H1213 0.958 . S
C1199 H1214 0.961 . S
C1199 H1215 0.960 . S
H1200 C1184 0.931 . S
H1201 C1189 0.929 . S
H1202 C1190 0.960 . S
H1203 C1190 0.977 . S
H1204 C1190 0.960 . S
H1205 C1191 0.961 . S
H1206 C1191 0.961 . S
H1207 C1191 0.961 . S
H1208 C1192 0.931 . S
H1209 C1197 0.930 . S
H1210 C1198 0.956 . S
H1211 C1198 0.961 . S
H1212 C1198 0.961 . S
H1213 C1199 0.958 . S
H1214 C1199 0.961 . S
H1215 C1199 0.960 . S
C1216 C1217 1.391 . S
C1216 C1218 1.394 . S
C1216 H1232 0.931 . S
C1217 C1216 1.391 . S
C1217 C1221 1.376 . S
C1218 C1216 1.394 . S
C1218 C1219 1.369 . S
C1218 C1222 1.531 . S
C1219 C1218 1.369 . S
C1219 C1220 1.410 . S
C1219 C1227 1.503 . S
C1220 C1219 1.410 . S
C1220 C1221 1.392 . S
C1220 C1223 1.511 . S
C1221 C1217 1.376 . S
C1221 C1220 1.392 . S
C1221 H1233 0.929 . S
C1222 C1218 1.531 . S
C1222 H1234 0.960 . S
C1222 H1235 0.962 . S
C1222 H1236 0.960 . S
C1223 C1220 1.511 . S
C1223 H1237 0.961 . S
C1223 H1238 0.961 . S
C1223 H1239 0.961 . S
C1224 C1225 1.370 . S
C1224 C1226 1.363 . S
C1224 H1240 0.931 . S
C1225 C1224 1.370 . S
C1225 C1229 1.408 . S
C1226 C1224 1.363 . S
C1226 C1227 1.370 . S
C1226 C1230 1.524 . S
C1227 C1219 1.503 . S
C1227 C1226 1.370 . S
C1227 C1228 1.403 . S
C1228 C1227 1.403 . S
C1228 C1229 1.404 . S
C1228 C1231 1.539 . S
C1229 C1225 1.408 . S
C1229 C1228 1.404 . S
C1229 H1241 0.930 . S
C1230 C1226 1.524 . S
C1230 H1242 0.956 . S
C1230 H1243 0.961 . S
C1230 H1244 0.961 . S
C1231 C1228 1.539 . S
C1231 H1245 0.958 . S
C1231 H1246 0.961 . S
C1231 H1247 0.960 . S
H1232 C1216 0.931 . S
H1233 C1221 0.929 . S
H1234 C1222 0.960 . S
H1235 C1222 0.962 . S
H1236 C1222 0.960 . S
H1237 C1223 0.961 . S
H1238 C1223 0.961 . S
H1239 C1223 0.961 . S
H1240 C1224 0.931 . S
H1241 C1229 0.930 . S
H1242 C1230 0.956 . S
H1243 C1230 0.961 . S
H1244 C1230 0.961 . S
H1245 C1231 0.958 . S
H1246 C1231 0.961 . S
H1247 C1231 0.960 . S
C1248 C1249 1.391 . S
C1248 C1250 1.394 . S
C1248 H1264 0.931 . S
C1249 C1248 1.391 . S
C1249 C1253 1.376 . S
C1250 C1248 1.394 . S
C1250 C1251 1.369 . S
C1250 C1254 1.531 . S
C1251 C1250 1.369 . S
C1251 C1252 1.410 . S
C1251 C1259 1.503 . S
C1252 C1251 1.410 . S
C1252 C1253 1.392 . S
C1252 C1255 1.511 . S
C1253 C1249 1.376 . S
C1253 C1252 1.392 . S
C1253 H1265 0.929 . S
C1254 C1250 1.531 . S
C1254 H1266 0.960 . S
C1254 H1267 0.962 . S
C1254 H1268 0.960 . S
C1255 C1252 1.511 . S
C1255 H1269 0.961 . S
C1255 H1270 0.961 . S
C1255 H1271 0.961 . S
C1256 C1257 1.370 . S
C1256 C1258 1.363 . S
C1256 H1272 0.931 . S
C1257 C1256 1.370 . S
C1257 C1261 1.408 . S
C1258 C1256 1.363 . S
C1258 C1259 1.370 . S
C1258 C1262 1.524 . S
C1259 C1251 1.503 . S
C1259 C1258 1.370 . S
C1259 C1260 1.403 . S
C1260 C1259 1.403 . S
C1260 C1261 1.404 . S
C1260 C1263 1.539 . S
C1261 C1257 1.408 . S
C1261 C1260 1.404 . S
C1261 H1273 0.930 . S
C1262 C1258 1.524 . S
C1262 H1274 0.956 . S
C1262 H1275 0.961 . S
C1262 H1276 0.961 . S
C1263 C1260 1.539 . S
C1263 H1277 0.958 . S
C1263 H1278 0.961 . S
C1263 H1279 0.960 . S
H1264 C1248 0.931 . S
H1265 C1253 0.929 . S
H1266 C1254 0.960 . S
H1267 C1254 0.962 . S
H1268 C1254 0.960 . S
H1269 C1255 0.961 . S
H1270 C1255 0.961 . S
H1271 C1255 0.961 . S
H1272 C1256 0.931 . S
H1273 C1261 0.930 . S
H1274 C1262 0.956 . S
H1275 C1262 0.961 . S
H1276 C1262 0.961 . S
H1277 C1263 0.958 . S
H1278 C1263 0.961 . S
H1279 C1263 0.960 . S
C1280 C1281 1.391 . S
C1280 C1282 1.394 . S
C1280 H1296 0.931 . S
C1281 C1280 1.391 . S
C1281 C1285 1.376 . S
C1282 C1280 1.394 . S
C1282 C1283 1.369 . S
C1282 C1286 1.531 . S
C1283 C1282 1.369 . S
C1283 C1284 1.410 . S
C1283 C1291 1.503 . S
C1284 C1283 1.410 . S
C1284 C1285 1.392 . S
C1284 C1287 1.511 . S
C1285 C1281 1.376 . S
C1285 C1284 1.392 . S
C1285 H1297 0.929 . S
C1286 C1282 1.531 . S
C1286 H1298 0.960 . S
C1286 H1299 0.962 . S
C1286 H1300 0.960 . S
C1287 C1284 1.511 . S
C1287 H1301 0.961 . S
C1287 H1302 0.961 . S
C1287 H1303 0.961 . S
C1288 C1289 1.370 . S
C1288 C1290 1.363 . S
C1288 H1304 0.931 . S
C1289 C1288 1.370 . S
C1289 C1293 1.408 . S
C1290 C1288 1.363 . S
C1290 C1291 1.370 . S
C1290 C1294 1.524 . S
C1291 C1283 1.503 . S
C1291 C1290 1.370 . S
C1291 C1292 1.403 . S
C1292 C1291 1.403 . S
C1292 C1293 1.404 . S
C1292 C1295 1.539 . S
C1293 C1289 1.408 . S
C1293 C1292 1.404 . S
C1293 H1305 0.930 . S
C1294 C1290 1.524 . S
C1294 H1306 0.956 . S
C1294 H1307 0.961 . S
C1294 H1308 0.961 . S
C1295 C1292 1.539 . S
C1295 H1309 0.958 . S
C1295 H1310 0.961 . S
C1295 H1311 0.960 . S
H1296 C1280 0.931 . S
H1297 C1285 0.929 . S
H1298 C1286 0.960 . S
H1299 C1286 0.962 . S
H1300 C1286 0.960 . S
H1301 C1287 0.961 . S
H1302 C1287 0.961 . S
H1303 C1287 0.961 . S
H1304 C1288 0.931 . S
H1305 C1293 0.930 . S
H1306 C1294 0.956 . S
H1307 C1294 0.961 . S
H1308 C1294 0.961 . S
H1309 C1295 0.958 . S
H1310 C1295 0.961 . S
H1311 C1295 0.960 . S
C1312 C1313 1.391 . S
C1312 C1314 1.394 . S
C1312 H1328 0.931 . S
C1313 C1312 1.391 . S
C1313 C1317 1.376 . S
C1314 C1312 1.394 . S
C1314 C1315 1.369 . S
C1314 C1318 1.531 . S
C1315 C1314 1.369 . S
C1315 C1316 1.410 . S
C1315 C1323 1.503 . S
C1316 C1315 1.410 . S
C1316 C1317 1.392 . S
C1316 C1319 1.511 . S
C1317 C1313 1.376 . S
C1317 C1316 1.392 . S
C1317 H1329 0.929 . S
C1318 C1314 1.531 . S
C1318 H1330 0.960 . S
C1318 H1331 0.962 . S
C1318 H1332 0.960 . S
C1319 C1316 1.511 . S
C1319 H1333 0.961 . S
C1319 H1334 0.961 . S
C1319 H1335 0.961 . S
C1320 C1321 1.370 . S
C1320 C1322 1.363 . S
C1320 H1336 0.931 . S
C1321 C1320 1.370 . S
C1321 C1325 1.408 . S
C1322 C1320 1.363 . S
C1322 C1323 1.370 . S
C1322 C1326 1.524 . S
C1323 C1315 1.503 . S
C1323 C1322 1.370 . S
C1323 C1324 1.403 . S
C1324 C1323 1.403 . S
C1324 C1325 1.404 . S
C1324 C1327 1.539 . S
C1325 C1321 1.408 . S
C1325 C1324 1.404 . S
C1325 H1337 0.930 . S
C1326 C1322 1.524 . S
C1326 H1338 0.956 . S
C1326 H1339 0.961 . S
C1326 H1340 0.961 . S
C1327 C1324 1.539 . S
C1327 H1341 0.958 . S
C1327 H1342 0.961 . S
C1327 H1343 0.960 . S
H1328 C1312 0.931 . S
H1329 C1317 0.929 . S
H1330 C1318 0.960 . S
H1331 C1318 0.962 . S
H1332 C1318 0.960 . S
H1333 C1319 0.961 . S
H1334 C1319 0.961 . S
H1335 C1319 0.961 . S
H1336 C1320 0.931 . S
H1337 C1325 0.930 . S
H1338 C1326 0.956 . S
H1339 C1326 0.961 . S
H1340 C1326 0.961 . S
H1341 C1327 0.958 . S
H1342 C1327 0.961 . S
H1343 C1327 0.960 . S
C1344 C1345 1.391 . S
C1344 C1346 1.394 . S
C1344 H1360 0.931 . S
C1345 C1344 1.391 . S
C1345 C1349 1.376 . S
C1346 C1344 1.394 . S
C1346 C1347 1.369 . S
C1346 C1350 1.531 . S
C1347 C1346 1.369 . S
C1347 C1348 1.410 1_565 S
C1347 C1355 1.503 1_565 S
C1348 C1347 1.410 1_545 S
C1348 C1349 1.392 1_545 S
C1348 C1351 1.511 . S
C1349 C1345 1.376 . S
C1349 C1348 1.392 1_565 S
C1349 H1361 0.928 . S
C1350 C1346 1.531 . S
C1350 H1362 0.960 . S
C1350 H1363 0.962 . S
C1350 H1364 0.960 . S
C1351 C1348 1.511 . S
C1351 H1365 0.961 . S
C1351 H1366 0.961 . S
C1351 H1367 0.961 . S
C1352 C1353 1.370 . S
C1352 C1354 1.363 . S
C1352 H1368 0.931 . S
C1353 C1352 1.370 . S
C1353 C1357 1.408 . S
C1354 C1352 1.363 . S
C1354 C1355 1.370 . S
C1354 C1358 1.524 1_545 S
C1355 C1347 1.503 1_545 S
C1355 C1354 1.370 . S
C1355 C1356 1.403 . S
C1356 C1355 1.403 . S
C1356 C1357 1.404 . S
C1356 C1359 1.539 . S
C1357 C1353 1.408 . S
C1357 C1356 1.404 . S
C1357 H1369 0.930 . S
C1358 C1354 1.524 1_565 S
C1358 H1370 0.956 . S
C1358 H1371 0.961 1_565 S
C1358 H1372 0.961 1_565 S
C1359 C1356 1.539 . S
C1359 H1373 0.958 . S
C1359 H1374 0.961 . S
C1359 H1375 0.960 . S
H1360 C1344 0.931 . S
H1361 C1349 0.928 . S
H1362 C1350 0.960 . S
H1363 C1350 0.962 . S
H1364 C1350 0.960 . S
H1365 C1351 0.961 . S
H1366 C1351 0.961 . S
H1367 C1351 0.961 . S
H1368 C1352 0.931 . S
H1369 C1357 0.930 . S
H1370 C1358 0.956 . S
H1371 C1358 0.961 1_545 S
H1372 C1358 0.961 1_545 S
H1373 C1359 0.958 . S
H1374 C1359 0.961 . S
H1375 C1359 0.960 . S
C1376 C1377 1.391 . S
C1376 C1378 1.394 . S
C1376 H1392 0.931 . S
C1377 C1376 1.391 . S
C1377 C1381 1.376 . S
C1378 C1376 1.394 . S
C1378 C1379 1.369 . S
C1378 C1382 1.531 . S
C1379 C1378 1.369 . S
C1379 C1380 1.410 . S
C1379 C1387 1.503 . S
C1380 C1379 1.410 . S
C1380 C1381 1.392 . S
C1380 C1383 1.511 . S
C1381 C1377 1.376 . S
C1381 C1380 1.392 . S
C1381 H1393 0.929 . S
C1382 C1378 1.531 . S
C1382 H1394 0.960 . S
C1382 H1395 0.962 . S
C1382 H1396 0.960 . S
C1383 C1380 1.511 . S
C1383 H1397 0.961 . S
C1383 H1398 0.961 . S
C1383 H1399 0.961 . S
C1384 C1385 1.370 . S
C1384 C1386 1.363 . S
C1384 H1400 0.931 . S
C1385 C1384 1.370 . S
C1385 C1389 1.408 . S
C1386 C1384 1.363 . S
C1386 C1387 1.370 . S
C1386 C1390 1.524 . S
C1387 C1379 1.503 . S
C1387 C1386 1.370 . S
C1387 C1388 1.403 . S
C1388 C1387 1.403 . S
C1388 C1389 1.404 . S
C1388 C1391 1.539 . S
C1389 C1385 1.408 . S
C1389 C1388 1.404 . S
C1389 H1401 0.930 . S
C1390 C1386 1.524 . S
C1390 H1402 0.956 . S
C1390 H1403 0.961 . S
C1390 H1404 0.961 . S
C1391 C1388 1.539 . S
C1391 H1405 0.958 . S
C1391 H1406 0.961 . S
C1391 H1407 0.960 . S
H1392 C1376 0.931 . S
H1393 C1381 0.929 . S
H1394 C1382 0.960 . S
H1395 C1382 0.962 . S
H1396 C1382 0.960 . S
H1397 C1383 0.961 . S
H1398 C1383 0.961 . S
H1399 C1383 0.961 . S
H1400 C1384 0.931 . S
H1401 C1389 0.930 . S
H1402 C1390 0.956 . S
H1403 C1390 0.961 . S
H1404 C1390 0.961 . S
H1405 C1391 0.958 . S
H1406 C1391 0.961 . S
H1407 C1391 0.960 . S
C1408 C1409 1.391 . S
C1408 C1410 1.394 . S
C1408 H1424 0.931 . S
C1409 C1408 1.391 . S
C1409 C1413 1.387 . S
C1410 C1408 1.394 . S
C1410 C1411 1.369 . S
C1410 C1414 1.531 . S
C1411 C1410 1.369 . S
C1411 C1412 1.410 1_554 S
C1411 C1419 1.503 1_554 S
C1412 C1411 1.410 1_556 S
C1412 C1413 1.387 1_556 S
C1412 C1415 1.511 . S
C1413 C1409 1.387 . S
C1413 C1412 1.387 1_554 S
C1413 H1425 0.923 1_554 S
C1414 C1410 1.531 . S
C1414 H1426 0.960 . S
C1414 H1427 0.962 . S
C1414 H1428 0.960 . S
C1415 C1412 1.511 . S
C1415 H1429 0.961 . S
C1415 H1430 0.961 . S
C1415 H1431 0.961 . S
C1416 C1417 1.370 . S
C1416 C1418 1.363 . S
C1416 H1432 0.931 . S
C1417 C1416 1.370 . S
C1417 C1421 1.408 . S
C1418 C1416 1.363 . S
C1418 C1419 1.370 . S
C1418 C1422 1.524 1_556 S
C1419 C1411 1.503 1_556 S
C1419 C1418 1.370 . S
C1419 C1420 1.403 . S
C1420 C1419 1.403 . S
C1420 C1421 1.404 . S
C1420 C1423 1.539 . S
C1421 C1417 1.408 . S
C1421 C1420 1.404 . S
C1421 H1433 0.930 . S
C1422 C1418 1.524 1_554 S
C1422 H1434 0.956 . S
C1422 H1435 0.961 . S
C1422 H1436 0.961 . S
C1423 C1420 1.539 . S
C1423 H1437 0.958 . S
C1423 H1438 0.961 . S
C1423 H1439 0.960 . S
H1424 C1408 0.931 . S
H1425 C1413 0.923 1_556 S
H1426 C1414 0.960 . S
H1427 C1414 0.962 . S
H1428 C1414 0.960 . S
H1429 C1415 0.961 . S
H1430 C1415 0.961 . S
H1431 C1415 0.961 . S
H1432 C1416 0.931 . S
H1433 C1421 0.930 . S
H1434 C1422 0.956 . S
H1435 C1422 0.961 . S
H1436 C1422 0.961 . S
H1437 C1423 0.958 . S
H1438 C1423 0.961 . S
H1439 C1423 0.960 . S
C1440 C1441 1.391 . S
C1440 C1442 1.394 . S
C1440 H1456 0.931 . S
C1441 C1440 1.391 . S
C1441 C1445 1.376 . S
C1442 C1440 1.394 . S
C1442 C1443 1.369 . S
C1442 C1446 1.531 . S
C1443 C1442 1.369 . S
C1443 C1444 1.410 . S
C1443 C1451 1.503 . S
C1444 C1443 1.410 . S
C1444 C1445 1.392 . S
C1444 C1447 1.511 . S
C1445 C1441 1.376 . S
C1445 C1444 1.392 . S
C1445 H1457 0.929 . S
C1446 C1442 1.531 . S
C1446 H1458 0.960 . S
C1446 H1459 0.962 . S
C1446 H1460 0.960 . S
C1447 C1444 1.511 . S
C1447 H1461 0.961 . S
C1447 H1462 0.961 . S
C1447 H1463 0.961 . S
C1448 C1449 1.370 . S
C1448 C1450 1.363 . S
C1448 H1464 0.931 . S
C1449 C1448 1.370 . S
C1449 C1453 1.408 . S
C1450 C1448 1.363 . S
C1450 C1451 1.370 . S
C1450 C1454 1.524 . S
C1451 C1443 1.503 . S
C1451 C1450 1.370 . S
C1451 C1452 1.403 . S
C1452 C1451 1.403 . S
C1452 C1453 1.404 . S
C1452 C1455 1.539 . S
C1453 C1449 1.408 . S
C1453 C1452 1.404 . S
C1453 H1465 0.930 . S
C1454 C1450 1.524 . S
C1454 H1466 0.956 . S
C1454 H1467 0.961 . S
C1454 H1468 0.961 . S
C1455 C1452 1.539 . S
C1455 H1469 0.958 . S
C1455 H1470 0.961 . S
C1455 H1471 0.960 . S
H1456 C1440 0.931 . S
H1457 C1445 0.929 . S
H1458 C1446 0.960 . S
H1459 C1446 0.962 . S
H1460 C1446 0.960 . S
H1461 C1447 0.961 . S
H1462 C1447 0.961 . S
H1463 C1447 0.961 . S
H1464 C1448 0.931 . S
H1465 C1453 0.930 . S
H1466 C1454 0.956 . S
H1467 C1454 0.961 . S
H1468 C1454 0.961 . S
H1469 C1455 0.958 . S
H1470 C1455 0.961 . S
H1471 C1455 0.960 . S
C1472 C1473 1.391 . S
C1472 C1474 1.394 . S
C1472 H1488 0.931 . S
C1473 C1472 1.391 . S
C1473 C1477 1.376 . S
C1474 C1472 1.394 . S
C1474 C1475 1.369 . S
C1474 C1478 1.531 . S
C1475 C1474 1.369 . S
C1475 C1476 1.410 . S
C1475 C1483 1.503 . S
C1476 C1475 1.410 . S
C1476 C1477 1.392 . S
C1476 C1479 1.511 . S
C1477 C1473 1.376 . S
C1477 C1476 1.392 . S
C1477 H1489 0.929 . S
C1478 C1474 1.531 . S
C1478 H1490 0.960 . S
C1478 H1491 0.962 . S
C1478 H1492 0.960 . S
C1479 C1476 1.511 . S
C1479 H1493 0.961 . S
C1479 H1494 0.961 . S
C1479 H1495 0.961 . S
C1480 C1481 1.370 . S
C1480 C1482 1.363 . S
C1480 H1496 0.931 . S
C1481 C1480 1.370 . S
C1481 C1485 1.408 . S
C1482 C1480 1.363 . S
C1482 C1483 1.370 . S
C1482 C1486 1.524 . S
C1483 C1475 1.503 . S
C1483 C1482 1.370 . S
C1483 C1484 1.403 . S
C1484 C1483 1.403 . S
C1484 C1485 1.404 . S
C1484 C1487 1.539 . S
C1485 C1481 1.408 . S
C1485 C1484 1.404 . S
C1485 H1497 0.930 1_565 S
C1486 C1482 1.524 . S
C1486 H1498 0.956 . S
C1486 H1499 0.961 . S
C1486 H1500 0.961 . S
C1487 C1484 1.539 . S
C1487 H1501 0.958 . S
C1487 H1502 0.961 . S
C1487 H1503 0.960 . S
H1488 C1472 0.931 . S
H1489 C1477 0.929 . S
H1490 C1478 0.960 . S
H1491 C1478 0.962 . S
H1492 C1478 0.960 . S
H1493 C1479 0.961 . S
H1494 C1479 0.961 . S
H1495 C1479 0.961 . S
H1496 C1480 0.931 . S
H1497 C1485 0.930 1_545 S
H1498 C1486 0.956 . S
H1499 C1486 0.961 . S
H1500 C1486 0.961 . S
H1501 C1487 0.958 . S
H1502 C1487 0.961 . S
H1503 C1487 0.960 . S
C1504 C1505 1.391 . S
C1504 C1506 1.394 . S
C1504 H1520 0.931 . S
C1505 C1504 1.391 . S
C1505 C1509 1.376 . S
C1506 C1504 1.394 . S
C1506 C1507 1.369 . S
C1506 C1510 1.531 . S
C1507 C1506 1.369 . S
C1507 C1508 1.410 . S
C1507 C1515 1.503 . S
C1508 C1507 1.410 . S
C1508 C1509 1.392 . S
C1508 C1511 1.511 . S
C1509 C1505 1.376 . S
C1509 C1508 1.392 . S
C1509 H1521 0.929 1_565 S
C1510 C1506 1.531 . S
C1510 H1522 0.960 . S
C1510 H1523 0.962 . S
C1510 H1524 0.960 . S
C1511 C1508 1.511 . S
C1511 H1525 0.961 . S
C1511 H1526 0.961 . S
C1511 H1527 0.961 . S
C1512 C1513 1.370 . S
C1512 C1514 1.363 . S
C1512 H1528 0.931 . S
C1513 C1512 1.370 . S
C1513 C1517 1.408 . S
C1514 C1512 1.363 . S
C1514 C1515 1.370 . S
C1514 C1518 1.524 . S
C1515 C1507 1.503 . S
C1515 C1514 1.370 . S
C1515 C1516 1.403 . S
C1516 C1515 1.403 . S
C1516 C1517 1.404 . S
C1516 C1519 1.539 . S
C1517 C1513 1.408 . S
C1517 C1516 1.404 . S
C1517 H1529 0.930 . S
C1518 C1514 1.524 . S
C1518 H1530 0.956 . S
C1518 H1531 0.961 . S
C1518 H1532 0.961 . S
C1519 C1516 1.539 . S
C1519 H1533 0.958 . S
C1519 H1534 0.961 . S
C1519 H1535 0.960 . S
H1520 C1504 0.931 . S
H1521 C1509 0.929 1_545 S
H1522 C1510 0.960 . S
H1523 C1510 0.962 . S
H1524 C1510 0.960 . S
H1525 C1511 0.961 . S
H1526 C1511 0.961 . S
H1527 C1511 0.961 . S
H1528 C1512 0.931 . S
H1529 C1517 0.930 . S
H1530 C1518 0.956 . S
H1531 C1518 0.961 . S
H1532 C1518 0.961 . S
H1533 C1519 0.958 . S
H1534 C1519 0.961 . S
H1535 C1519 0.960 . S
C1536 C1537 1.391 . S
C1536 C1538 1.394 . S
C1536 H1552 0.931 . S
C1537 C1536 1.391 . S
C1537 C1541 1.376 . S
C1538 C1536 1.394 . S
C1538 C1539 1.369 . S
C1538 C1542 1.531 . S
C1539 C1538 1.369 . S
C1539 C1540 1.410 . S
C1539 C1547 1.503 . S
C1540 C1539 1.410 . S
C1540 C1541 1.392 . S
C1540 C1543 1.511 . S
C1541 C1537 1.376 . S
C1541 C1540 1.392 . S
C1541 H1553 0.929 . S
C1542 C1538 1.531 . S
C1542 H1554 0.960 . S
C1542 H1555 0.962 . S
C1542 H1556 0.960 . S
C1543 C1540 1.511 . S
C1543 H1557 0.961 . S
C1543 H1558 0.961 . S
C1543 H1559 0.961 . S
C1544 C1545 1.370 . S
C1544 C1546 1.363 . S
C1544 H1560 0.931 . S
C1545 C1544 1.370 . S
C1545 C1549 1.408 . S
C1546 C1544 1.363 . S
C1546 C1547 1.370 . S
C1546 C1550 1.524 . S
C1547 C1539 1.503 . S
C1547 C1546 1.370 . S
C1547 C1548 1.403 . S
C1548 C1547 1.403 . S
C1548 C1549 1.404 . S
C1548 C1551 1.539 . S
C1549 C1545 1.408 . S
C1549 C1548 1.404 . S
C1549 H1561 0.930 . S
C1550 C1546 1.524 . S
C1550 H1562 0.956 . S
C1550 H1563 0.961 . S
C1550 H1564 0.961 . S
C1551 C1548 1.539 . S
C1551 H1565 0.958 . S
C1551 H1566 0.961 . S
C1551 H1567 0.960 . S
H1552 C1536 0.931 . S
H1553 C1541 0.929 . S
H1554 C1542 0.960 . S
H1555 C1542 0.962 . S
H1556 C1542 0.960 . S
H1557 C1543 0.961 . S
H1558 C1543 0.961 . S
H1559 C1543 0.961 . S
H1560 C1544 0.931 . S
H1561 C1549 0.930 . S
H1562 C1550 0.956 . S
H1563 C1550 0.961 . S
H1564 C1550 0.961 . S
H1565 C1551 0.958 . S
H1566 C1551 0.961 . S
H1567 C1551 0.960 . S
C1568 C1569 1.391 . S
C1568 C1570 1.394 . S
C1568 H1584 0.931 . S
C1569 C1568 1.391 . S
C1569 C1573 1.376 . S
C1570 C1568 1.394 . S
C1570 C1571 1.369 . S
C1570 C1574 1.531 . S
C1571 C1570 1.369 . S
C1571 C1572 1.410 . S
C1571 C1579 1.503 . S
C1572 C1571 1.410 . S
C1572 C1573 1.392 . S
C1572 C1575 1.511 . S
C1573 C1569 1.376 . S
C1573 C1572 1.392 . S
C1573 H1585 0.929 . S
C1574 C1570 1.531 . S
C1574 H1586 0.960 . S
C1574 H1587 0.962 . S
C1574 H1588 0.960 . S
C1575 C1572 1.511 . S
C1575 H1589 0.961 . S
C1575 H1590 0.961 . S
C1575 H1591 0.961 . S
C1576 C1577 1.370 . S
C1576 C1578 1.363 . S
C1576 H1592 0.931 . S
C1577 C1576 1.370 . S
C1577 C1581 1.408 . S
C1578 C1576 1.363 . S
C1578 C1579 1.370 . S
C1578 C1582 1.524 . S
C1579 C1571 1.503 . S
C1579 C1578 1.370 . S
C1579 C1580 1.403 . S
C1580 C1579 1.403 . S
C1580 C1581 1.404 . S
C1580 C1583 1.539 . S
C1581 C1577 1.408 . S
C1581 C1580 1.404 . S
C1581 H1593 0.930 . S
C1582 C1578 1.524 . S
C1582 H1594 0.956 . S
C1582 H1595 0.961 . S
C1582 H1596 0.961 . S
C1583 C1580 1.539 . S
C1583 H1597 0.958 . S
C1583 H1598 0.961 . S
C1583 H1599 0.960 . S
H1584 C1568 0.931 . S
H1585 C1573 0.929 . S
H1586 C1574 0.960 . S
H1587 C1574 0.962 . S
H1588 C1574 0.960 . S
H1589 C1575 0.961 . S
H1590 C1575 0.961 . S
H1591 C1575 0.961 . S
H1592 C1576 0.931 . S
H1593 C1581 0.930 . S
H1594 C1582 0.956 . S
H1595 C1582 0.961 . S
H1596 C1582 0.961 . S
H1597 C1583 0.958 . S
H1598 C1583 0.961 . S
H1599 C1583 0.960 . S
C1600 C1601 1.391 . S
C1600 C1602 1.394 . S
C1600 H1616 0.931 . S
C1601 C1600 1.391 . S
C1601 C1605 1.376 . S
C1602 C1600 1.394 . S
C1602 C1603 1.369 . S
C1602 C1606 1.531 . S
C1603 C1602 1.369 . S
C1603 C1604 1.410 . S
C1603 C1611 1.503 . S
C1604 C1603 1.410 . S
C1604 C1605 1.392 . S
C1604 C1607 1.511 . S
C1605 C1601 1.376 . S
C1605 C1604 1.392 . S
C1605 H1617 0.929 1_545 S
C1606 C1602 1.531 . S
C1606 H1618 0.960 . S
C1606 H1619 0.962 . S
C1606 H1620 0.960 . S
C1607 C1604 1.511 . S
C1607 H1621 0.961 . S
C1607 H1622 0.961 . S
C1607 H1623 0.961 . S
C1608 C1609 1.370 . S
C1608 C1610 1.363 . S
C1608 H1624 0.931 . S
C1609 C1608 1.370 . S
C1609 C1613 1.408 . S
C1610 C1608 1.363 . S
C1610 C1611 1.370 . S
C1610 C1614 1.524 . S
C1611 C1603 1.503 . S
C1611 C1610 1.370 . S
C1611 C1612 1.403 . S
C1612 C1611 1.403 . S
C1612 C1613 1.404 . S
C1612 C1615 1.539 . S
C1613 C1609 1.408 . S
C1613 C1612 1.404 . S
C1613 H1625 0.930 . S
C1614 C1610 1.524 . S
C1614 H1626 0.956 . S
C1614 H1627 0.961 . S
C1614 H1628 0.961 . S
C1615 C1612 1.539 . S
C1615 H1629 0.958 . S
C1615 H1630 0.961 . S
C1615 H1631 0.960 . S
H1616 C1600 0.931 . S
H1617 C1605 0.929 1_565 S
H1618 C1606 0.960 . S
H1619 C1606 0.962 . S
H1620 C1606 0.960 . S
H1621 C1607 0.961 . S
H1622 C1607 0.961 . S
H1623 C1607 0.961 . S
H1624 C1608 0.931 . S
H1625 C1613 0.930 . S
H1626 C1614 0.956 . S
H1627 C1614 0.961 . S
H1628 C1614 0.961 . S
H1629 C1615 0.958 . S
H1630 C1615 0.961 . S
H1631 C1615 0.960 . S
C1632 C1633 1.391 . S
C1632 C1634 1.394 . S
C1632 H1648 0.931 . S
C1633 C1632 1.391 . S
C1633 C1637 1.376 . S
C1634 C1632 1.394 . S
C1634 C1635 1.369 . S
C1634 C1638 1.531 . S
C1635 C1634 1.369 . S
C1635 C1636 1.410 . S
C1635 C1643 1.503 . S
C1636 C1635 1.410 . S
C1636 C1637 1.392 . S
C1636 C1639 1.511 . S
C1637 C1633 1.376 . S
C1637 C1636 1.392 . S
C1637 H1649 0.929 . S
C1638 C1634 1.531 . S
C1638 H1650 0.960 . S
C1638 H1651 0.962 . S
C1638 H1652 0.960 . S
C1639 C1636 1.511 . S
C1639 H1653 0.961 . S
C1639 H1654 0.961 . S
C1639 H1655 0.961 . S
C1640 C1641 1.370 . S
C1640 C1642 1.363 . S
C1640 H1656 0.931 . S
C1641 C1640 1.370 . S
C1641 C1645 1.408 . S
C1642 C1640 1.363 . S
C1642 C1643 1.370 . S
C1642 C1646 1.524 . S
C1643 C1635 1.503 . S
C1643 C1642 1.370 . S
C1643 C1644 1.403 . S
C1644 C1643 1.403 . S
C1644 C1645 1.404 . S
C1644 C1647 1.539 . S
C1645 C1641 1.408 . S
C1645 C1644 1.404 . S
C1645 H1657 0.930 1_545 S
C1646 C1642 1.524 . S
C1646 H1658 0.956 . S
C1646 H1659 0.961 . S
C1646 H1660 0.961 . S
C1647 C1644 1.539 . S
C1647 H1661 0.958 . S
C1647 H1662 0.961 . S
C1647 H1663 0.960 . S
H1648 C1632 0.931 . S
H1649 C1637 0.929 . S
H1650 C1638 0.960 . S
H1651 C1638 0.962 . S
H1652 C1638 0.960 . S
H1653 C1639 0.961 . S
H1654 C1639 0.961 . S
H1655 C1639 0.961 . S
H1656 C1640 0.931 . S
H1657 C1645 0.930 1_565 S
H1658 C1646 0.956 . S
H1659 C1646 0.961 . S
H1660 C1646 0.961 . S
H1661 C1647 0.958 . S
H1662 C1647 0.961 . S
H1663 C1647 0.960 . S
C1664 C1665 1.391 . S
C1664 C1666 1.394 . S
C1664 H1680 0.931 . S
C1665 C1664 1.391 . S
C1665 C1669 1.376 . S
C1666 C1664 1.394 . S
C1666 C1667 1.369 . S
C1666 C1670 1.531 . S
C1667 C1666 1.369 . S
C1667 C1668 1.410 . S
C1667 C1675 1.503 . S
C1668 C1667 1.410 . S
C1668 C1669 1.392 . S
C1668 C1671 1.511 . S
C1669 C1665 1.376 . S
C1669 C1668 1.392 . S
C1669 H1681 0.929 . S
C1670 C1666 1.531 . S
C1670 H1682 0.960 . S
C1670 H1683 0.962 . S
C1670 H1684 0.960 . S
C1671 C1668 1.511 . S
C1671 H1685 0.961 . S
C1671 H1686 0.961 . S
C1671 H1687 0.961 . S
C1672 C1673 1.370 . S
C1672 C1674 1.363 . S
C1672 H1688 0.931 . S
C1673 C1672 1.370 . S
C1673 C1677 1.408 . S
C1674 C1672 1.363 . S
C1674 C1675 1.370 . S
C1674 C1678 1.524 . S
C1675 C1667 1.503 . S
C1675 C1674 1.370 . S
C1675 C1676 1.403 . S
C1676 C1675 1.403 . S
C1676 C1677 1.404 . S
C1676 C1679 1.539 . S
C1677 C1673 1.408 . S
C1677 C1676 1.404 . S
C1677 H1689 0.930 . S
C1678 C1674 1.524 . S
C1678 H1690 0.956 . S
C1678 H1691 0.961 . S
C1678 H1692 0.961 . S
C1679 C1676 1.539 . S
C1679 H1693 0.958 . S
C1679 H1694 0.961 . S
C1679 H1695 0.960 . S
H1680 C1664 0.931 . S
H1681 C1669 0.929 . S
H1682 C1670 0.960 . S
H1683 C1670 0.962 . S
H1684 C1670 0.960 . S
H1685 C1671 0.961 . S
H1686 C1671 0.961 . S
H1687 C1671 0.961 . S
H1688 C1672 0.931 . S
H1689 C1677 0.930 . S
H1690 C1678 0.956 . S
H1691 C1678 0.961 . S
H1692 C1678 0.961 . S
H1693 C1679 0.958 . S
H1694 C1679 0.961 . S
H1695 C1679 0.960 . S
C1696 C1697 1.391 . S
C1696 C1698 1.394 . S
C1696 H1712 0.931 . S
C1697 C1696 1.391 . S
C1697 C1701 1.376 . S
C1698 C1696 1.394 . S
C1698 C1699 1.369 . S
C1698 C1702 1.531 . S
C1699 C1698 1.369 . S
C1699 C1700 1.410 . S
C1699 C1707 1.503 . S
C1700 C1699 1.410 . S
C1700 C1701 1.392 . S
C1700 C1703 1.511 . S
C1701 C1697 1.376 . S
C1701 C1700 1.392 . S
C1701 H1713 0.929 . S
C1702 C1698 1.531 . S
C1702 H1714 0.960 . S
C1702 H1715 0.962 . S
C1702 H1716 0.960 . S
C1703 C1700 1.511 . S
C1703 H1717 0.961 . S
C1703 H1718 0.961 . S
C1703 H1719 0.961 . S
C1704 C1705 1.370 . S
C1704 C1706 1.363 . S
C1704 H1720 0.931 . S
C1705 C1704 1.370 . S
C1705 C1709 1.408 . S
C1706 C1704 1.363 . S
C1706 C1707 1.370 . S
C1706 C1710 1.524 . S
C1707 C1699 1.503 . S
C1707 C1706 1.370 . S
C1707 C1708 1.403 . S
C1708 C1707 1.403 . S
C1708 C1709 1.404 . S
C1708 C1711 1.539 . S
C1709 C1705 1.408 . S
C1709 C1708 1.404 . S
C1709 H1721 0.930 . S
C1710 C1706 1.524 . S
C1710 H1722 0.956 . S
C1710 H1723 0.961 . S
C1710 H1724 0.961 . S
C1711 C1708 1.539 . S
C1711 H1725 0.958 . S
C1711 H1726 0.961 . S
C1711 H1727 0.960 . S
H1712 C1696 0.931 . S
H1713 C1701 0.929 . S
H1714 C1702 0.960 . S
H1715 C1702 0.962 . S
H1716 C1702 0.960 . S
H1717 C1703 0.961 . S
H1718 C1703 0.961 . S
H1719 C1703 0.961 . S
H1720 C1704 0.931 . S
H1721 C1709 0.930 . S
H1722 C1710 0.956 . S
H1723 C1710 0.961 . S
H1724 C1710 0.961 . S
H1725 C1711 0.958 . S
H1726 C1711 0.961 . S
H1727 C1711 0.960 . S
C1728 C1729 1.391 . S
C1728 C1730 1.394 . S
C1728 H1744 0.931 . S
C1729 C1728 1.391 . S
C1729 C1733 1.376 . S
C1730 C1728 1.394 . S
C1730 C1731 1.369 . S
C1730 C1734 1.531 . S
C1731 C1730 1.369 . S
C1731 C1732 1.410 . S
C1731 C1739 1.503 . S
C1732 C1731 1.410 . S
C1732 C1733 1.392 . S
C1732 C1735 1.511 . S
C1733 C1729 1.376 . S
C1733 C1732 1.392 . S
C1733 H1745 0.929 . S
C1734 C1730 1.531 . S
C1734 H1746 0.960 . S
C1734 H1747 0.962 . S
C1734 H1748 0.960 . S
C1735 C1732 1.511 . S
C1735 H1749 0.961 . S
C1735 H1750 0.961 . S
C1735 H1751 0.961 . S
C1736 C1737 1.370 . S
C1736 C1738 1.363 . S
C1736 H1752 0.931 . S
C1737 C1736 1.370 . S
C1737 C1741 1.408 . S
C1738 C1736 1.363 . S
C1738 C1739 1.370 . S
C1738 C1742 1.524 . S
C1739 C1731 1.503 . S
C1739 C1738 1.370 . S
C1739 C1740 1.403 . S
C1740 C1739 1.403 . S
C1740 C1741 1.404 . S
C1740 C1743 1.539 . S
C1741 C1737 1.408 . S
C1741 C1740 1.404 . S
C1741 H1753 0.930 1_565 S
C1742 C1738 1.524 . S
C1742 H1754 0.956 . S
C1742 H1755 0.961 . S
C1742 H1756 0.961 . S
C1743 C1740 1.539 . S
C1743 H1757 0.958 . S
C1743 H1758 0.961 . S
C1743 H1759 0.960 . S
H1744 C1728 0.931 . S
H1745 C1733 0.929 . S
H1746 C1734 0.960 . S
H1747 C1734 0.962 . S
H1748 C1734 0.960 . S
H1749 C1735 0.961 . S
H1750 C1735 0.961 . S
H1751 C1735 0.961 . S
H1752 C1736 0.931 . S
H1753 C1741 0.930 1_545 S
H1754 C1742 0.956 . S
H1755 C1742 0.961 . S
H1756 C1742 0.961 . S
H1757 C1743 0.958 . S
H1758 C1743 0.961 . S
H1759 C1743 0.960 . S
C1760 C1761 1.391 . S
C1760 C1762 1.394 . S
C1760 H1776 0.931 . S
C1761 C1760 1.391 . S
C1761 C1765 1.376 . S
C1762 C1760 1.394 . S
C1762 C1763 1.369 . S
C1762 C1766 1.531 . S
C1763 C1762 1.369 . S
C1763 C1764 1.410 . S
C1763 C1771 1.503 . S
C1764 C1763 1.410 . S
C1764 C1765 1.392 . S
C1764 C1767 1.511 . S
C1765 C1761 1.376 . S
C1765 C1764 1.392 . S
C1765 H1777 0.929 . S
C1766 C1762 1.531 . S
C1766 H1778 0.960 . S
C1766 H1779 0.962 . S
C1766 H1780 0.960 . S
C1767 C1764 1.511 . S
C1767 H1781 0.961 . S
C1767 H1782 0.961 . S
C1767 H1783 0.961 . S
C1768 C1769 1.370 . S
C1768 C1770 1.363 . S
C1768 H1784 0.925 1_565 S
C1769 C1768 1.370 . S
C1769 C1773 1.408 . S
C1770 C1768 1.363 . S
C1770 C1771 1.370 . S
C1770 C1774 1.524 . S
C1771 C1763 1.503 . S
C1771 C1770 1.370 . S
C1771 C1772 1.403 . S
C1772 C1771 1.403 . S
C1772 C1773 1.404 . S
C1772 C1775 1.539 . S
C1773 C1769 1.408 . S
C1773 C1772 1.404 . S
C1773 H1785 0.930 . S
C1774 C1770 1.524 . S
C1774 H1786 0.956 . S
C1774 H1787 0.961 . S
C1774 H1788 0.961 . S
C1775 C1772 1.539 . S
C1775 H1789 0.958 . S
C1775 H1790 0.961 . S
C1775 H1791 0.960 . S
H1776 C1760 0.931 . S
H1777 C1765 0.929 . S
H1778 C1766 0.960 . S
H1779 C1766 0.962 . S
H1780 C1766 0.960 . S
H1781 C1767 0.961 . S
H1782 C1767 0.961 . S
H1783 C1767 0.961 . S
H1784 C1768 0.925 1_545 S
H1785 C1773 0.930 . S
H1786 C1774 0.956 . S
H1787 C1774 0.961 . S
H1788 C1774 0.961 . S
H1789 C1775 0.958 . S
H1790 C1775 0.961 . S
H1791 C1775 0.960 . S
C1792 C1793 1.391 . S
C1792 C1794 1.394 . S
C1792 H1808 0.931 . S
C1793 C1792 1.391 . S
C1793 C1797 1.376 . S
C1794 C1792 1.394 . S
C1794 C1795 1.369 . S
C1794 C1798 1.531 . S
C1795 C1794 1.369 . S
C1795 C1796 1.410 . S
C1795 C1803 1.503 . S
C1796 C1795 1.410 . S
C1796 C1797 1.392 . S
C1796 C1799 1.511 . S
C1797 C1793 1.376 . S
C1797 C1796 1.392 . S
C1797 H1809 0.929 . S
C1798 C1794 1.531 . S
C1798 H1810 0.960 . S
C1798 H1811 0.962 . S
C1798 H1812 0.960 . S
C1799 C1796 1.511 . S
C1799 H1813 0.961 . S
C1799 H1814 0.961 . S
C1799 H1815 0.961 . S
C1800 C1801 1.370 . S
C1800 C1802 1.363 . S
C1800 H1816 0.931 . S
C1801 C1800 1.370 . S
C1801 C1805 1.408 . S
C1802 C1800 1.363 . S
C1802 C1803 1.370 . S
C1802 C1806 1.524 . S
C1803 C1795 1.503 . S
C1803 C1802 1.370 . S
C1803 C1804 1.403 . S
C1804 C1803 1.403 . S
C1804 C1805 1.404 . S
C1804 C1807 1.539 . S
C1805 C1801 1.408 . S
C1805 C1804 1.404 . S
C1805 H1817 0.930 . S
C1806 C1802 1.524 . S
C1806 H1818 0.956 . S
C1806 H1819 0.961 . S
C1806 H1820 0.961 . S
C1807 C1804 1.539 . S
C1807 H1821 0.958 . S
C1807 H1822 0.961 . S
C1807 H1823 0.960 . S
H1808 C1792 0.931 . S
H1809 C1797 0.929 . S
H1810 C1798 0.960 . S
H1811 C1798 0.962 . S
H1812 C1798 0.960 . S
H1813 C1799 0.961 . S
H1814 C1799 0.961 . S
H1815 C1799 0.961 . S
H1816 C1800 0.931 . S
H1817 C1805 0.930 . S
H1818 C1806 0.956 . S
H1819 C1806 0.961 . S
H1820 C1806 0.961 . S
H1821 C1807 0.958 . S
H1822 C1807 0.961 . S
H1823 C1807 0.960 . S
C1824 C1825 1.391 . S
C1824 C1826 1.394 . S
C1824 H1840 0.931 . S
C1825 C1824 1.391 . S
C1825 C1829 1.376 . S
C1826 C1824 1.394 . S
C1826 C1827 1.369 . S
C1826 C1830 1.531 . S
C1827 C1826 1.369 . S
C1827 C1828 1.410 . S
C1827 C1835 1.503 . S
C1828 C1827 1.410 . S
C1828 C1829 1.392 . S
C1828 C1831 1.511 . S
C1829 C1825 1.376 . S
C1829 C1828 1.392 . S
C1829 H1841 0.929 . S
C1830 C1826 1.531 . S
C1830 H1842 0.960 . S
C1830 H1843 0.962 . S
C1830 H1844 0.960 . S
C1831 C1828 1.511 . S
C1831 H1845 0.961 . S
C1831 H1846 0.961 . S
C1831 H1847 0.961 . S
C1832 C1833 1.370 . S
C1832 C1834 1.363 . S
C1832 H1848 0.931 . S
C1833 C1832 1.370 . S
C1833 C1837 1.408 . S
C1834 C1832 1.363 . S
C1834 C1835 1.370 . S
C1834 C1838 1.524 . S
C1835 C1827 1.503 . S
C1835 C1834 1.370 . S
C1835 C1836 1.403 . S
C1836 C1835 1.403 . S
C1836 C1837 1.404 . S
C1836 C1839 1.539 . S
C1837 C1833 1.408 . S
C1837 C1836 1.404 . S
C1837 H1849 0.930 . S
C1838 C1834 1.524 . S
C1838 H1850 0.956 . S
C1838 H1851 0.961 . S
C1838 H1852 0.961 . S
C1839 C1836 1.539 . S
C1839 H1853 0.958 . S
C1839 H1854 0.961 . S
C1839 H1855 0.960 . S
H1840 C1824 0.931 . S
H1841 C1829 0.929 . S
H1842 C1830 0.960 . S
H1843 C1830 0.962 . S
H1844 C1830 0.960 . S
H1845 C1831 0.961 . S
H1846 C1831 0.961 . S
H1847 C1831 0.961 . S
H1848 C1832 0.931 . S
H1849 C1837 0.930 . S
H1850 C1838 0.956 . S
H1851 C1838 0.961 . S
H1852 C1838 0.961 . S
H1853 C1839 0.958 . S
H1854 C1839 0.961 . S
H1855 C1839 0.960 . S
C1856 C1857 1.391 . S
C1856 C1858 1.394 . S
C1856 H1872 0.931 . S
C1857 C1856 1.391 . S
C1857 C1861 1.376 . S
C1858 C1856 1.394 . S
C1858 C1859 1.369 . S
C1858 C1862 1.531 . S
C1859 C1858 1.369 . S
C1859 C1860 1.410 . S
C1859 C1867 1.503 . S
C1860 C1859 1.410 . S
C1860 C1861 1.392 . S
C1860 C1863 1.511 . S
C1861 C1857 1.376 . S
C1861 C1860 1.392 . S
C1861 H1873 0.929 . S
C1862 C1858 1.531 . S
C1862 H1874 0.960 . S
C1862 H1875 0.962 . S
C1862 H1876 0.960 . S
C1863 C1860 1.511 . S
C1863 H1877 0.961 . S
C1863 H1878 0.961 . S
C1863 H1879 0.961 . S
C1864 C1865 1.370 . S
C1864 C1866 1.363 . S
C1864 H1880 0.931 . S
C1865 C1864 1.370 . S
C1865 C1869 1.408 . S
C1866 C1864 1.363 . S
C1866 C1867 1.370 . S
C1866 C1870 1.524 . S
C1867 C1859 1.503 . S
C1867 C1866 1.370 . S
C1867 C1868 1.403 . S
C1868 C1867 1.403 . S
C1868 C1869 1.404 . S
C1868 C1871 1.539 . S
C1869 C1865 1.408 . S
C1869 C1868 1.404 . S
C1869 H1881 0.930 . S
C1870 C1866 1.524 . S
C1870 H1882 0.956 . S
C1870 H1883 0.961 . S
C1870 H1884 0.961 . S
C1871 C1868 1.539 . S
C1871 H1885 0.958 . S
C1871 H1886 0.961 . S
C1871 H1887 0.960 . S
H1872 C1856 0.931 . S
H1873 C1861 0.929 . S
H1874 C1862 0.960 . S
H1875 C1862 0.962 . S
H1876 C1862 0.960 . S
H1877 C1863 0.961 . S
H1878 C1863 0.961 . S
H1879 C1863 0.961 . S
H1880 C1864 0.931 . S
H1881 C1869 0.930 . S
H1882 C1870 0.956 . S
H1883 C1870 0.961 . S
H1884 C1870 0.961 . S
H1885 C1871 0.958 . S
H1886 C1871 0.961 . S
H1887 C1871 0.960 . S
C1888 C1889 1.391 . S
C1888 C1890 1.394 . S
C1888 H1904 0.931 . S
C1889 C1888 1.391 . S
C1889 C1893 1.376 . S
C1890 C1888 1.394 . S
C1890 C1891 1.369 . S
C1890 C1894 1.531 . S
C1891 C1890 1.369 . S
C1891 C1892 1.410 . S
C1891 C1899 1.503 . S
C1892 C1891 1.410 . S
C1892 C1893 1.392 . S
C1892 C1895 1.511 . S
C1893 C1889 1.376 . S
C1893 C1892 1.392 . S
C1893 H1905 0.929 . S
C1894 C1890 1.531 . S
C1894 H1906 0.960 . S
C1894 H1907 0.962 . S
C1894 H1908 0.960 . S
C1895 C1892 1.511 . S
C1895 H1909 0.961 . S
C1895 H1910 0.961 . S
C1895 H1911 0.961 . S
C1896 C1897 1.370 . S
C1896 C1898 1.363 . S
C1896 H1912 0.931 1_545 S
C1897 C1896 1.370 . S
C1897 C1901 1.408 . S
C1898 C1896 1.363 . S
C1898 C1899 1.370 . S
C1898 C1902 1.524 . S
C1899 C1891 1.503 . S
C1899 C1898 1.370 . S
C1899 C1900 1.403 . S
C1900 C1899 1.403 . S
C1900 C1901 1.404 . S
C1900 C1903 1.539 . S
C1901 C1897 1.408 . S
C1901 C1900 1.404 . S
C1901 H1913 0.930 . S
C1902 C1898 1.524 . S
C1902 H1914 0.956 . S
C1902 H1915 0.961 . S
C1902 H1916 0.961 . S
C1903 C1900 1.539 . S
C1903 H1917 0.958 . S
C1903 H1918 0.961 . S
C1903 H1919 0.960 . S
H1904 C1888 0.931 . S
H1905 C1893 0.929 . S
H1906 C1894 0.960 . S
H1907 C1894 0.962 . S
H1908 C1894 0.960 . S
H1909 C1895 0.961 . S
H1910 C1895 0.961 . S
H1911 C1895 0.961 . S
H1912 C1896 0.931 1_565 S
H1913 C1901 0.930 . S
H1914 C1902 0.956 . S
H1915 C1902 0.961 . S
H1916 C1902 0.961 . S
H1917 C1903 0.958 . S
H1918 C1903 0.961 . S
H1919 C1903 0.960 . S
C1920 C1921 1.391 . S
C1920 C1922 1.394 . S
C1920 H1936 0.931 . S
C1921 C1920 1.391 . S
C1921 C1925 1.376 . S
C1922 C1920 1.394 . S
C1922 C1923 1.369 . S
C1922 C1926 1.531 . S
C1923 C1922 1.369 . S
C1923 C1924 1.410 . S
C1923 C1931 1.503 . S
C1924 C1923 1.410 . S
C1924 C1925 1.392 . S
C1924 C1927 1.511 . S
C1925 C1921 1.376 . S
C1925 C1924 1.392 . S
C1925 H1937 0.929 . S
C1926 C1922 1.531 . S
C1926 H1938 0.960 . S
C1926 H1939 0.962 . S
C1926 H1940 0.960 . S
C1927 C1924 1.511 . S
C1927 H1941 0.961 . S
C1927 H1942 0.961 . S
C1927 H1943 0.961 . S
C1928 C1929 1.370 . S
C1928 C1930 1.363 . S
C1928 H1944 0.931 . S
C1929 C1928 1.370 . S
C1929 C1933 1.408 . S
C1930 C1928 1.363 . S
C1930 C1931 1.370 . S
C1930 C1934 1.524 . S
C1931 C1923 1.503 . S
C1931 C1930 1.370 . S
C1931 C1932 1.403 . S
C1932 C1931 1.403 . S
C1932 C1933 1.404 . S
C1932 C1935 1.539 . S
C1933 C1929 1.408 . S
C1933 C1932 1.404 . S
C1933 H1945 0.930 . S
C1934 C1930 1.524 . S
C1934 H1946 0.956 . S
C1934 H1947 0.961 . S
C1934 H1948 0.961 . S
C1935 C1932 1.539 . S
C1935 H1949 0.958 . S
C1935 H1950 0.961 . S
C1935 H1951 0.960 . S
H1936 C1920 0.931 . S
H1937 C1925 0.929 . S
H1938 C1926 0.960 . S
H1939 C1926 0.962 . S
H1940 C1926 0.960 . S
H1941 C1927 0.961 . S
H1942 C1927 0.961 . S
H1943 C1927 0.961 . S
H1944 C1928 0.931 . S
H1945 C1933 0.930 . S
H1946 C1934 0.956 . S
H1947 C1934 0.961 . S
H1948 C1934 0.961 . S
H1949 C1935 0.958 . S
H1950 C1935 0.961 . S
H1951 C1935 0.960 . S
C1952 C1953 1.391 . S
C1952 C1954 1.394 . S
C1952 H1968 0.931 . S
C1953 C1952 1.391 . S
C1953 C1957 1.376 . S
C1954 C1952 1.394 . S
C1954 C1955 1.369 . S
C1954 C1958 1.531 . S
C1955 C1954 1.369 . S
C1955 C1956 1.410 . S
C1955 C1963 1.503 . S
C1956 C1955 1.410 . S
C1956 C1957 1.392 . S
C1956 C1959 1.511 . S
C1957 C1953 1.376 . S
C1957 C1956 1.392 . S
C1957 H1969 0.929 . S
C1958 C1954 1.531 . S
C1958 H1970 0.960 . S
C1958 H1971 0.962 . S
C1958 H1972 0.960 . S
C1959 C1956 1.511 . S
C1959 H1973 0.961 . S
C1959 H1974 0.961 . S
C1959 H1975 0.961 . S
C1960 C1961 1.370 . S
C1960 C1962 1.363 . S
C1960 H1976 0.931 1_565 S
C1961 C1960 1.370 . S
C1961 C1965 1.408 . S
C1962 C1960 1.363 . S
C1962 C1963 1.370 . S
C1962 C1966 1.524 . S
C1963 C1955 1.503 . S
C1963 C1962 1.370 . S
C1963 C1964 1.403 . S
C1964 C1963 1.403 . S
C1964 C1965 1.404 . S
C1964 C1967 1.539 . S
C1965 C1961 1.408 . S
C1965 C1964 1.404 . S
C1965 H1977 0.930 . S
C1966 C1962 1.524 . S
C1966 H1978 0.956 . S
C1966 H1979 0.961 . S
C1966 H1980 0.961 . S
C1967 C1964 1.539 . S
C1967 H1981 0.958 . S
C1967 H1982 0.961 . S
C1967 H1983 0.960 . S
H1968 C1952 0.931 . S
H1969 C1957 0.929 . S
H1970 C1958 0.960 . S
H1971 C1958 0.962 . S
H1972 C1958 0.960 . S
H1973 C1959 0.961 . S
H1974 C1959 0.961 . S
H1975 C1959 0.961 . S
H1976 C1960 0.931 1_545 S
H1977 C1965 0.930 . S
H1978 C1966 0.956 . S
H1979 C1966 0.961 . S
H1980 C1966 0.961 . S
H1981 C1967 0.958 . S
H1982 C1967 0.961 . S
H1983 C1967 0.960 . S
C1984 C1985 1.391 . S
C1984 C1986 1.394 . S
C1984 H2000 0.931 . S
C1985 C1984 1.391 . S
C1985 C1989 1.376 . S
C1986 C1984 1.394 . S
C1986 C1987 1.369 . S
C1986 C1990 1.531 . S
C1987 C1986 1.369 . S
C1987 C1988 1.410 . S
C1987 C1995 1.503 . S
C1988 C1987 1.410 . S
C1988 C1989 1.392 . S
C1988 C1991 1.511 . S
C1989 C1985 1.376 . S
C1989 C1988 1.392 . S
C1989 H2001 0.929 . S
C1990 C1986 1.531 . S
C1990 H2002 0.960 . S
C1990 H2003 0.962 . S
C1990 H2004 0.960 . S
C1991 C1988 1.511 . S
C1991 H2005 0.961 . S
C1991 H2006 0.961 . S
C1991 H2007 0.961 . S
C1992 C1993 1.370 . S
C1992 C1994 1.363 . S
C1992 H2008 0.931 . S
C1993 C1992 1.370 . S
C1993 C1997 1.408 . S
C1994 C1992 1.363 . S
C1994 C1995 1.370 . S
C1994 C1998 1.524 . S
C1995 C1987 1.503 . S
C1995 C1994 1.370 . S
C1995 C1996 1.403 . S
C1996 C1995 1.403 . S
C1996 C1997 1.404 . S
C1996 C1999 1.539 . S
C1997 C1993 1.408 . S
C1997 C1996 1.404 . S
C1997 H2009 0.930 . S
C1998 C1994 1.524 . S
C1998 H2010 0.956 . S
C1998 H2011 0.961 . S
C1998 H2012 0.961 . S
C1999 C1996 1.539 . S
C1999 H2013 0.958 . S
C1999 H2014 0.961 . S
C1999 H2015 0.960 . S
H2000 C1984 0.931 . S
H2001 C1989 0.929 . S
H2002 C1990 0.960 . S
H2003 C1990 0.962 . S
H2004 C1990 0.960 . S
H2005 C1991 0.961 . S
H2006 C1991 0.961 . S
H2007 C1991 0.961 . S
H2008 C1992 0.931 . S
H2009 C1997 0.930 . S
H2010 C1998 0.956 . S
H2011 C1998 0.961 . S
H2012 C1998 0.961 . S
H2013 C1999 0.958 . S
H2014 C1999 0.961 . S
H2015 C1999 0.960 . S
C2016 C2017 1.391 . S
C2016 C2018 1.394 . S
C2016 H2032 0.931 . S
C2017 C2016 1.391 . S
C2017 C2021 1.376 . S
C2018 C2016 1.394 . S
C2018 C2019 1.369 . S
C2018 C2022 1.531 . S
C2019 C2018 1.369 . S
C2019 C2020 1.410 . S
C2019 C2027 1.503 . S
C2020 C2019 1.410 . S
C2020 C2021 1.392 . S
C2020 C2023 1.511 . S
C2021 C2017 1.376 . S
C2021 C2020 1.392 . S
C2021 H2033 0.929 . S
C2022 C2018 1.531 . S
C2022 H2034 0.960 . S
C2022 H2035 0.962 . S
C2022 H2036 0.960 . S
C2023 C2020 1.511 . S
C2023 H2037 0.961 . S
C2023 H2038 0.961 . S
C2023 H2039 0.961 . S
C2024 C2025 1.370 . S
C2024 C2026 1.363 . S
C2024 H2040 0.931 . S
C2025 C2024 1.370 . S
C2025 C2029 1.408 . S
C2026 C2024 1.363 . S
C2026 C2027 1.370 . S
C2026 C2030 1.524 . S
C2027 C2019 1.503 . S
C2027 C2026 1.370 . S
C2027 C2028 1.403 . S
C2028 C2027 1.403 . S
C2028 C2029 1.404 . S
C2028 C2031 1.539 . S
C2029 C2025 1.408 . S
C2029 C2028 1.404 . S
C2029 H2041 0.930 . S
C2030 C2026 1.524 . S
C2030 H2042 0.956 . S
C2030 H2043 0.961 . S
C2030 H2044 0.961 . S
C2031 C2028 1.539 . S
C2031 H2045 0.958 . S
C2031 H2046 0.961 . S
C2031 H2047 0.960 . S
H2032 C2016 0.931 . S
H2033 C2021 0.929 . S
H2034 C2022 0.960 . S
H2035 C2022 0.962 . S
H2036 C2022 0.960 . S
H2037 C2023 0.961 . S
H2038 C2023 0.961 . S
H2039 C2023 0.961 . S
H2040 C2024 0.931 . S
H2041 C2029 0.930 . S
H2042 C2030 0.956 . S
H2043 C2030 0.961 . S
H2044 C2030 0.961 . S
H2045 C2031 0.958 . S
H2046 C2031 0.961 . S
H2047 C2031 0.960 . S
C2048 C2049 1.391 . S
C2048 C2050 1.394 . S
C2048 H2064 0.931 . S
C2049 C2048 1.391 . S
C2049 C2053 1.376 . S
C2050 C2048 1.394 . S
C2050 C2051 1.369 . S
C2050 C2054 1.531 . S
C2051 C2050 1.369 . S
C2051 C2052 1.410 . S
C2051 C2059 1.503 . S
C2052 C2051 1.410 . S
C2052 C2053 1.392 . S
C2052 C2055 1.511 . S
C2053 C2049 1.376 . S
C2053 C2052 1.392 . S
C2053 H2065 0.929 . S
C2054 C2050 1.531 . S
C2054 H2066 0.960 . S
C2054 H2067 0.962 . S
C2054 H2068 0.960 . S
C2055 C2052 1.511 . S
C2055 H2069 0.961 . S
C2055 H2070 0.961 . S
C2055 H2071 0.961 . S
C2056 C2057 1.370 . S
C2056 C2058 1.363 . S
C2056 H2072 0.931 . S
C2057 C2056 1.370 . S
C2057 C2061 1.408 . S
C2058 C2056 1.363 . S
C2058 C2059 1.370 . S
C2058 C2062 1.524 . S
C2059 C2051 1.503 . S
C2059 C2058 1.370 . S
C2059 C2060 1.403 . S
C2060 C2059 1.403 . S
C2060 C2061 1.404 . S
C2060 C2063 1.539 . S
C2061 C2057 1.408 . S
C2061 C2060 1.404 . S
C2061 H2073 0.930 . S
C2062 C2058 1.524 . S
C2062 H2074 0.956 . S
C2062 H2075 0.961 . S
C2062 H2076 0.961 . S
C2063 C2060 1.539 . S
C2063 H2077 0.958 . S
C2063 H2078 0.961 . S
C2063 H2079 0.960 . S
H2064 C2048 0.931 . S
H2065 C2053 0.929 . S
H2066 C2054 0.960 . S
H2067 C2054 0.962 . S
H2068 C2054 0.960 . S
H2069 C2055 0.961 . S
H2070 C2055 0.961 . S
H2071 C2055 0.961 . S
H2072 C2056 0.931 . S
H2073 C2061 0.930 . S
H2074 C2062 0.956 . S
H2075 C2062 0.961 . S
H2076 C2062 0.961 . S
H2077 C2063 0.958 . S
H2078 C2063 0.961 . S
H2079 C2063 0.960 . S
C2080 C2081 1.391 . S
C2080 C2082 1.394 . S
C2080 H2096 0.931 . S
C2081 C2080 1.391 . S
C2081 C2085 1.376 . S
C2082 C2080 1.394 . S
C2082 C2083 1.369 . S
C2082 C2086 1.531 . S
C2083 C2082 1.369 . S
C2083 C2084 1.410 . S
C2083 C2091 1.503 . S
C2084 C2083 1.410 . S
C2084 C2085 1.392 . S
C2084 C2087 1.511 . S
C2085 C2081 1.376 . S
C2085 C2084 1.392 . S
C2085 H2097 0.929 . S
C2086 C2082 1.531 . S
C2086 H2098 0.960 . S
C2086 H2099 0.962 . S
C2086 H2100 0.960 . S
C2087 C2084 1.511 . S
C2087 H2101 0.961 . S
C2087 H2102 0.961 . S
C2087 H2103 0.961 . S
C2088 C2089 1.370 . S
C2088 C2090 1.363 . S
C2088 H2104 0.931 . S
C2089 C2088 1.370 . S
C2089 C2093 1.408 . S
C2090 C2088 1.363 . S
C2090 C2091 1.370 . S
C2090 C2094 1.524 . S
C2091 C2083 1.503 . S
C2091 C2090 1.370 . S
C2091 C2092 1.403 . S
C2092 C2091 1.403 . S
C2092 C2093 1.404 . S
C2092 C2095 1.539 . S
C2093 C2089 1.408 . S
C2093 C2092 1.404 . S
C2093 H2105 0.930 1_545 S
C2094 C2090 1.524 . S
C2094 H2106 0.956 . S
C2094 H2107 0.961 . S
C2094 H2108 0.961 . S
C2095 C2092 1.539 . S
C2095 H2109 0.958 . S
C2095 H2110 0.961 . S
C2095 H2111 0.960 . S
H2096 C2080 0.931 . S
H2097 C2085 0.929 . S
H2098 C2086 0.960 . S
H2099 C2086 0.962 . S
H2100 C2086 0.960 . S
H2101 C2087 0.961 . S
H2102 C2087 0.961 . S
H2103 C2087 0.961 . S
H2104 C2088 0.931 . S
H2105 C2093 0.930 1_565 S
H2106 C2094 0.956 . S
H2107 C2094 0.961 . S
H2108 C2094 0.961 . S
H2109 C2095 0.958 . S
H2110 C2095 0.961 . S
H2111 C2095 0.960 . S
C2112 C2113 1.391 . S
C2112 C2114 1.394 . S
C2112 H2128 0.931 . S
C2113 C2112 1.391 . S
C2113 C2117 1.376 . S
C2114 C2112 1.394 . S
C2114 C2115 1.369 . S
C2114 C2118 1.531 . S
C2115 C2114 1.369 . S
C2115 C2116 1.410 . S
C2115 C2123 1.503 . S
C2116 C2115 1.410 . S
C2116 C2117 1.392 . S
C2116 C2119 1.511 . S
C2117 C2113 1.376 . S
C2117 C2116 1.392 . S
C2117 H2129 0.929 . S
C2118 C2114 1.531 . S
C2118 H2130 0.960 . S
C2118 H2131 0.962 . S
C2118 H2132 0.960 . S
C2119 C2116 1.511 . S
C2119 H2133 0.961 . S
C2119 H2134 0.961 . S
C2119 H2135 0.961 . S
C2120 C2121 1.370 . S
C2120 C2122 1.363 . S
C2120 H2136 0.931 . S
C2121 C2120 1.370 . S
C2121 C2125 1.408 . S
C2122 C2120 1.363 . S
C2122 C2123 1.370 . S
C2122 C2126 1.524 . S
C2123 C2115 1.503 . S
C2123 C2122 1.370 . S
C2123 C2124 1.403 . S
C2124 C2123 1.403 . S
C2124 C2125 1.404 . S
C2124 C2127 1.539 . S
C2125 C2121 1.408 . S
C2125 C2124 1.404 . S
C2125 H2137 0.930 . S
C2126 C2122 1.524 . S
C2126 H2138 0.956 . S
C2126 H2139 0.961 . S
C2126 H2140 0.961 . S
C2127 C2124 1.539 . S
C2127 H2141 0.958 . S
C2127 H2142 0.961 . S
C2127 H2143 0.960 . S
H2128 C2112 0.931 . S
H2129 C2117 0.929 . S
H2130 C2118 0.960 . S
H2131 C2118 0.962 . S
H2132 C2118 0.960 . S
H2133 C2119 0.961 . S
H2134 C2119 0.961 . S
H2135 C2119 0.961 . S
H2136 C2120 0.931 . S
H2137 C2125 0.930 . S
H2138 C2126 0.956 . S
H2139 C2126 0.961 . S
H2140 C2126 0.961 . S
H2141 C2127 0.958 . S
H2142 C2127 0.961 . S
H2143 C2127 0.960 . S
C2144 C2145 1.391 . S
C2144 C2146 1.394 . S
C2144 H2160 0.931 . S
C2145 C2144 1.391 . S
C2145 C2149 1.376 . S
C2146 C2144 1.394 . S
C2146 C2147 1.369 . S
C2146 C2150 1.531 . S
C2147 C2146 1.369 . S
C2147 C2148 1.410 . S
C2147 C2155 1.503 . S
C2148 C2147 1.410 . S
C2148 C2149 1.392 . S
C2148 C2151 1.511 . S
C2149 C2145 1.376 . S
C2149 C2148 1.392 . S
C2149 H2161 0.929 . S
C2150 C2146 1.531 . S
C2150 H2162 0.960 . S
C2150 H2163 0.962 . S
C2150 H2164 0.960 . S
C2151 C2148 1.511 . S
C2151 H2165 0.961 . S
C2151 H2166 0.961 . S
C2151 H2167 0.961 . S
C2152 C2153 1.370 . S
C2152 C2154 1.363 . S
C2152 H2168 0.931 . S
C2153 C2152 1.370 . S
C2153 C2157 1.408 . S
C2154 C2152 1.363 . S
C2154 C2155 1.370 . S
C2154 C2158 1.524 . S
C2155 C2147 1.503 . S
C2155 C2154 1.370 . S
C2155 C2156 1.403 . S
C2156 C2155 1.403 . S
C2156 C2157 1.404 . S
C2156 C2159 1.539 . S
C2157 C2153 1.408 . S
C2157 C2156 1.404 . S
C2157 H2169 0.930 . S
C2158 C2154 1.524 . S
C2158 H2170 0.956 . S
C2158 H2171 0.961 . S
C2158 H2172 0.961 . S
C2159 C2156 1.539 . S
C2159 H2173 0.958 . S
C2159 H2174 0.961 . S
C2159 H2175 0.960 . S
H2160 C2144 0.931 . S
H2161 C2149 0.929 . S
H2162 C2150 0.960 . S
H2163 C2150 0.962 . S
H2164 C2150 0.960 . S
H2165 C2151 0.961 . S
H2166 C2151 0.961 . S
H2167 C2151 0.961 . S
H2168 C2152 0.931 . S
H2169 C2157 0.930 . S
H2170 C2158 0.956 . S
H2171 C2158 0.961 . S
H2172 C2158 0.961 . S
H2173 C2159 0.958 . S
H2174 C2159 0.961 . S
H2175 C2159 0.960 . S
C2176 C2177 1.391 . S
C2176 C2178 1.394 . S
C2176 H2192 0.931 . S
C2177 C2176 1.391 . S
C2177 C2181 1.376 . S
C2178 C2176 1.394 . S
C2178 C2179 1.369 . S
C2178 C2182 1.531 . S
C2179 C2178 1.369 . S
C2179 C2180 1.410 . S
C2179 C2187 1.503 . S
C2180 C2179 1.410 . S
C2180 C2181 1.392 . S
C2180 C2183 1.511 . S
C2181 C2177 1.376 . S
C2181 C2180 1.392 . S
C2181 H2193 0.929 . S
C2182 C2178 1.531 . S
C2182 H2194 0.960 . S
C2182 H2195 0.962 . S
C2182 H2196 0.960 . S
C2183 C2180 1.511 . S
C2183 H2197 0.961 . S
C2183 H2198 0.961 . S
C2183 H2199 0.961 . S
C2184 C2185 1.370 . S
C2184 C2186 1.363 . S
C2184 H2200 0.931 . S
C2185 C2184 1.370 . S
C2185 C2189 1.408 . S
C2186 C2184 1.363 . S
C2186 C2187 1.370 . S
C2186 C2190 1.524 . S
C2187 C2179 1.503 . S
C2187 C2186 1.370 . S
C2187 C2188 1.403 . S
C2188 C2187 1.403 . S
C2188 C2189 1.404 . S
C2188 C2191 1.539 . S
C2189 C2185 1.408 . S
C2189 C2188 1.404 . S
C2189 H2201 0.930 1_545 S
C2190 C2186 1.524 . S
C2190 H2202 0.956 . S
C2190 H2203 0.961 . S
C2190 H2204 0.961 . S
C2191 C2188 1.539 . S
C2191 H2205 0.958 . S
C2191 H2206 0.961 . S
C2191 H2207 0.960 . S
H2192 C2176 0.931 . S
H2193 C2181 0.929 . S
H2194 C2182 0.960 . S
H2195 C2182 0.962 . S
H2196 C2182 0.960 . S
H2197 C2183 0.961 . S
H2198 C2183 0.961 . S
H2199 C2183 0.961 . S
H2200 C2184 0.931 . S
H2201 C2189 0.930 1_565 S
H2202 C2190 0.956 . S
H2203 C2190 0.961 . S
H2204 C2190 0.961 . S
H2205 C2191 0.958 . S
H2206 C2191 0.961 . S
H2207 C2191 0.960 . S
C2208 C2209 1.391 . S
C2208 C2210 1.394 . S
C2208 H2224 0.931 . S
C2209 C2208 1.391 . S
C2209 C2213 1.376 . S
C2210 C2208 1.394 . S
C2210 C2211 1.369 . S
C2210 C2214 1.531 . S
C2211 C2210 1.369 . S
C2211 C2212 1.410 . S
C2211 C2219 1.503 . S
C2212 C2211 1.410 . S
C2212 C2213 1.392 . S
C2212 C2215 1.511 . S
C2213 C2209 1.376 . S
C2213 C2212 1.392 . S
C2213 H2225 0.929 . S
C2214 C2210 1.531 . S
C2214 H2226 0.960 . S
C2214 H2227 0.962 . S
C2214 H2228 0.960 . S
C2215 C2212 1.511 . S
C2215 H2229 0.961 . S
C2215 H2230 0.961 . S
C2215 H2231 0.961 . S
C2216 C2217 1.370 . S
C2216 C2218 1.363 . S
C2216 H2232 0.931 1_565 S
C2217 C2216 1.370 . S
C2217 C2221 1.408 . S
C2218 C2216 1.363 . S
C2218 C2219 1.370 . S
C2218 C2222 1.524 . S
C2219 C2211 1.503 . S
C2219 C2218 1.370 . S
C2219 C2220 1.403 . S
C2220 C2219 1.403 . S
C2220 C2221 1.404 . S
C2220 C2223 1.539 . S
C2221 C2217 1.408 . S
C2221 C2220 1.404 . S
C2221 H2233 0.930 . S
C2222 C2218 1.524 . S
C2222 H2234 0.956 . S
C2222 H2235 0.961 . S
C2222 H2236 0.961 . S
C2223 C2220 1.539 . S
C2223 H2237 0.958 . S
C2223 H2238 0.961 . S
C2223 H2239 0.960 . S
H2224 C2208 0.931 . S
H2225 C2213 0.929 . S
H2226 C2214 0.960 . S
H2227 C2214 0.962 . S
H2228 C2214 0.960 . S
H2229 C2215 0.961 . S
H2230 C2215 0.961 . S
H2231 C2215 0.961 . S
H2232 C2216 0.931 1_545 S
H2233 C2221 0.930 . S
H2234 C2222 0.956 . S
H2235 C2222 0.961 . S
H2236 C2222 0.961 . S
H2237 C2223 0.958 . S
H2238 C2223 0.961 . S
H2239 C2223 0.960 . S
C2240 C2241 1.391 . S
C2240 C2242 1.394 . S
C2240 H2256 0.931 . S
C2241 C2240 1.391 . S
C2241 C2245 1.376 . S
C2242 C2240 1.394 . S
C2242 C2243 1.369 . S
C2242 C2246 1.531 . S
C2243 C2242 1.369 . S
C2243 C2244 1.410 . S
C2243 C2251 1.503 . S
C2244 C2243 1.410 . S
C2244 C2245 1.392 . S
C2244 C2247 1.511 . S
C2245 C2241 1.376 . S
C2245 C2244 1.392 . S
C2245 H2257 0.929 . S
C2246 C2242 1.531 . S
C2246 H2258 0.960 . S
C2246 H2259 0.962 . S
C2246 H2260 0.960 . S
C2247 C2244 1.511 . S
C2247 H2261 0.961 . S
C2247 H2262 0.961 . S
C2247 H2263 0.961 . S
C2248 C2249 1.370 . S
C2248 C2250 1.363 . S
C2248 H2264 0.931 . S
C2249 C2248 1.370 . S
C2249 C2253 1.408 . S
C2250 C2248 1.363 . S
C2250 C2251 1.370 . S
C2250 C2254 1.524 . S
C2251 C2243 1.503 . S
C2251 C2250 1.370 . S
C2251 C2252 1.403 . S
C2252 C2251 1.403 . S
C2252 C2253 1.404 . S
C2252 C2255 1.539 . S
C2253 C2249 1.408 . S
C2253 C2252 1.404 . S
C2253 H2265 0.930 . S
C2254 C2250 1.524 . S
C2254 H2266 0.956 . S
C2254 H2267 0.961 . S
C2254 H2268 0.961 . S
C2255 C2252 1.539 . S
C2255 H2269 0.958 . S
C2255 H2270 0.961 . S
C2255 H2271 0.960 . S
H2256 C2240 0.931 . S
H2257 C2245 0.929 . S
H2258 C2246 0.960 . S
H2259 C2246 0.962 . S
H2260 C2246 0.960 . S
H2261 C2247 0.961 . S
H2262 C2247 0.961 . S
H2263 C2247 0.961 . S
H2264 C2248 0.931 . S
H2265 C2253 0.930 . S
H2266 C2254 0.956 . S
H2267 C2254 0.961 . S
H2268 C2254 0.961 . S
H2269 C2255 0.958 . S
H2270 C2255 0.961 . S
H2271 C2255 0.960 . S
C2272 C2273 1.391 . S
C2272 C2274 1.394 . S
C2272 H2288 0.931 . S
C2273 C2272 1.391 . S
C2273 C2277 1.376 . S
C2274 C2272 1.394 . S
C2274 C2275 1.369 . S
C2274 C2278 1.531 . S
C2275 C2274 1.369 . S
C2275 C2276 1.410 . S
C2275 C2283 1.503 . S
C2276 C2275 1.410 . S
C2276 C2277 1.392 . S
C2276 C2279 1.511 . S
C2277 C2273 1.376 . S
C2277 C2276 1.392 . S
C2277 H2289 0.929 . S
C2278 C2274 1.531 . S
C2278 H2290 0.960 . S
C2278 H2291 0.962 . S
C2278 H2292 0.960 . S
C2279 C2276 1.511 . S
C2279 H2293 0.961 . S
C2279 H2294 0.961 . S
C2279 H2295 0.961 . S
C2280 C2281 1.370 . S
C2280 C2282 1.363 . S
C2280 H2296 0.931 . S
C2281 C2280 1.370 . S
C2281 C2285 1.408 . S
C2282 C2280 1.363 . S
C2282 C2283 1.370 . S
C2282 C2286 1.524 . S
C2283 C2275 1.503 . S
C2283 C2282 1.370 . S
C2283 C2284 1.403 . S
C2284 C2283 1.403 . S
C2284 C2285 1.404 . S
C2284 C2287 1.539 . S
C2285 C2281 1.408 . S
C2285 C2284 1.404 . S
C2285 H2297 0.930 . S
C2286 C2282 1.524 . S
C2286 H2298 0.956 . S
C2286 H2299 0.961 . S
C2286 H2300 0.961 . S
C2287 C2284 1.539 . S
C2287 H2301 0.958 . S
C2287 H2302 0.961 . S
C2287 H2303 0.960 . S
H2288 C2272 0.931 . S
H2289 C2277 0.929 . S
H2290 C2278 0.960 . S
H2291 C2278 0.962 . S
H2292 C2278 0.960 . S
H2293 C2279 0.961 . S
H2294 C2279 0.961 . S
H2295 C2279 0.961 . S
H2296 C2280 0.931 . S
H2297 C2285 0.930 . S
H2298 C2286 0.956 . S
H2299 C2286 0.961 . S
H2300 C2286 0.961 . S
H2301 C2287 0.958 . S
H2302 C2287 0.961 . S
H2303 C2287 0.960 . S
C2304 C2305 1.391 . S
C2304 C2306 1.394 . S
C2304 H2320 0.931 . S
C2305 C2304 1.391 . S
C2305 C2309 1.376 . S
C2306 C2304 1.394 . S
C2306 C2307 1.369 . S
C2306 C2310 1.531 . S
C2307 C2306 1.369 . S
C2307 C2308 1.410 . S
C2307 C2315 1.503 . S
C2308 C2307 1.410 . S
C2308 C2309 1.392 . S
C2308 C2311 1.511 . S
C2309 C2305 1.376 . S
C2309 C2308 1.392 . S
C2309 H2321 0.929 . S
C2310 C2306 1.531 . S
C2310 H2322 0.960 . S
C2310 H2323 0.962 . S
C2310 H2324 0.960 . S
C2311 C2308 1.511 . S
C2311 H2325 0.961 . S
C2311 H2326 0.961 . S
C2311 H2327 0.961 . S
C2312 C2313 1.370 . S
C2312 C2314 1.363 . S
C2312 H2328 0.931 . S
C2313 C2312 1.370 . S
C2313 C2317 1.408 . S
C2314 C2312 1.363 . S
C2314 C2315 1.370 . S
C2314 C2318 1.524 . S
C2315 C2307 1.503 . S
C2315 C2314 1.370 . S
C2315 C2316 1.403 . S
C2316 C2315 1.403 . S
C2316 C2317 1.404 . S
C2316 C2319 1.539 . S
C2317 C2313 1.408 . S
C2317 C2316 1.404 . S
C2317 H2329 0.930 . S
C2318 C2314 1.524 . S
C2318 H2330 0.956 . S
C2318 H2331 0.961 . S
C2318 H2332 0.961 . S
C2319 C2316 1.539 . S
C2319 H2333 0.958 . S
C2319 H2334 0.961 . S
C2319 H2335 0.960 . S
H2320 C2304 0.931 . S
H2321 C2309 0.929 . S
H2322 C2310 0.960 . S
H2323 C2310 0.962 . S
H2324 C2310 0.960 . S
H2325 C2311 0.961 . S
H2326 C2311 0.961 . S
H2327 C2311 0.961 . S
H2328 C2312 0.931 . S
H2329 C2317 0.930 . S
H2330 C2318 0.956 . S
H2331 C2318 0.961 . S
H2332 C2318 0.961 . S
H2333 C2319 0.958 . S
H2334 C2319 0.961 . S
H2335 C2319 0.960 . S
C2336 C2337 1.391 . S
C2336 C2338 1.394 . S
C2336 H2352 0.931 . S
C2337 C2336 1.391 . S
C2337 C2341 1.376 . S
C2338 C2336 1.394 . S
C2338 C2339 1.369 . S
C2338 C2342 1.531 . S
C2339 C2338 1.369 . S
C2339 C2340 1.410 . S
C2339 C2347 1.503 . S
C2340 C2339 1.410 . S
C2340 C2341 1.392 . S
C2340 C2343 1.511 . S
C2341 C2337 1.376 . S
C2341 C2340 1.392 . S
C2341 H2353 0.929 . S
C2342 C2338 1.531 . S
C2342 H2354 0.960 . S
C2342 H2355 0.962 . S
C2342 H2356 0.960 . S
C2343 C2340 1.511 . S
C2343 H2357 0.961 . S
C2343 H2358 0.961 . S
C2343 H2359 0.961 . S
C2344 C2345 1.370 . S
C2344 C2346 1.363 . S
C2344 H2360 0.931 . S
C2345 C2344 1.370 . S
C2345 C2349 1.408 . S
C2346 C2344 1.363 . S
C2346 C2347 1.370 . S
C2346 C2350 1.524 . S
C2347 C2339 1.503 . S
C2347 C2346 1.370 . S
C2347 C2348 1.403 . S
C2348 C2347 1.403 . S
C2348 C2349 1.404 . S
C2348 C2351 1.539 . S
C2349 C2345 1.408 . S
C2349 C2348 1.404 . S
C2349 H2361 0.930 1_545 S
C2350 C2346 1.524 . S
C2350 H2362 0.956 . S
C2350 H2363 0.961 . S
C2350 H2364 0.961 . S
C2351 C2348 1.539 . S
C2351 H2365 0.958 . S
C2351 H2366 0.961 . S
C2351 H2367 0.960 . S
H2352 C2336 0.931 . S
H2353 C2341 0.929 . S
H2354 C2342 0.960 . S
H2355 C2342 0.962 . S
H2356 C2342 0.960 . S
H2357 C2343 0.961 . S
H2358 C2343 0.961 . S
H2359 C2343 0.961 . S
H2360 C2344 0.931 . S
H2361 C2349 0.930 1_565 S
H2362 C2350 0.956 . S
H2363 C2350 0.961 . S
H2364 C2350 0.961 . S
H2365 C2351 0.958 . S
H2366 C2351 0.961 . S
H2367 C2351 0.960 . S
C2368 C2369 1.391 . S
C2368 C2370 1.394 . S
C2368 H2384 0.931 . S
C2369 C2368 1.391 . S
C2369 C2373 1.376 . S
C2370 C2368 1.394 . S
C2370 C2371 1.369 . S
C2370 C2374 1.531 . S
C2371 C2370 1.369 . S
C2371 C2372 1.410 . S
C2371 C2379 1.503 . S
C2372 C2371 1.410 . S
C2372 C2373 1.392 . S
C2372 C2375 1.511 . S
C2373 C2369 1.376 . S
C2373 C2372 1.392 . S
C2373 H2385 0.929 . S
C2374 C2370 1.531 . S
C2374 H2386 0.960 . S
C2374 H2387 0.962 . S
C2374 H2388 0.960 . S
C2375 C2372 1.511 . S
C2375 H2389 0.961 . S
C2375 H2390 0.961 . S
C2375 H2391 0.961 . S
C2376 C2377 1.370 . S
C2376 C2378 1.363 . S
C2376 H2392 0.931 . S
C2377 C2376 1.370 . S
C2377 C2381 1.408 . S
C2378 C2376 1.363 . S
C2378 C2379 1.370 . S
C2378 C2382 1.524 . S
C2379 C2371 1.503 . S
C2379 C2378 1.370 . S
C2379 C2380 1.403 . S
C2380 C2379 1.403 . S
C2380 C2381 1.404 . S
C2380 C2383 1.539 . S
C2381 C2377 1.408 . S
C2381 C2380 1.404 . S
C2381 H2393 0.930 . S
C2382 C2378 1.524 . S
C2382 H2394 0.956 . S
C2382 H2395 0.961 . S
C2382 H2396 0.961 . S
C2383 C2380 1.539 . S
C2383 H2397 0.958 . S
C2383 H2398 0.961 . S
C2383 H2399 0.960 . S
H2384 C2368 0.931 . S
H2385 C2373 0.929 . S
H2386 C2374 0.960 . S
H2387 C2374 0.962 . S
H2388 C2374 0.960 . S
H2389 C2375 0.961 . S
H2390 C2375 0.961 . S
H2391 C2375 0.961 . S
H2392 C2376 0.931 . S
H2393 C2381 0.930 . S
H2394 C2382 0.956 . S
H2395 C2382 0.961 . S
H2396 C2382 0.961 . S
H2397 C2383 0.958 . S
H2398 C2383 0.961 . S
H2399 C2383 0.960 . S
C2400 C2401 1.391 . S
C2400 C2402 1.394 . S
C2400 H2416 0.931 . S
C2401 C2400 1.391 . S
C2401 C2405 1.376 . S
C2402 C2400 1.394 . S
C2402 C2403 1.369 . S
C2402 C2406 1.531 . S
C2403 C2402 1.369 . S
C2403 C2404 1.410 . S
C2403 C2411 1.503 . S
C2404 C2403 1.410 . S
C2404 C2405 1.392 . S
C2404 C2407 1.511 . S
C2405 C2401 1.376 . S
C2405 C2404 1.392 . S
C2405 H2417 0.929 . S
C2406 C2402 1.531 . S
C2406 H2418 0.960 . S
C2406 H2419 0.962 . S
C2406 H2420 0.960 . S
C2407 C2404 1.511 . S
C2407 H2421 0.961 . S
C2407 H2422 0.961 . S
C2407 H2423 0.961 . S
C2408 C2409 1.370 . S
C2408 C2410 1.363 . S
C2408 H2424 0.931 . S
C2409 C2408 1.370 . S
C2409 C2413 1.408 . S
C2410 C2408 1.363 . S
C2410 C2411 1.370 . S
C2410 C2414 1.524 . S
C2411 C2403 1.503 . S
C2411 C2410 1.370 . S
C2411 C2412 1.403 . S
C2412 C2411 1.403 . S
C2412 C2413 1.404 . S
C2412 C2415 1.539 . S
C2413 C2409 1.408 . S
C2413 C2412 1.404 . S
C2413 H2425 0.930 . S
C2414 C2410 1.524 . S
C2414 H2426 0.956 . S
C2414 H2427 0.961 . S
C2414 H2428 0.961 . S
C2415 C2412 1.539 . S
C2415 H2429 0.958 . S
C2415 H2430 0.961 . S
C2415 H2431 0.960 . S
H2416 C2400 0.931 . S
H2417 C2405 0.929 . S
H2418 C2406 0.960 . S
H2419 C2406 0.962 . S
H2420 C2406 0.960 . S
H2421 C2407 0.961 . S
H2422 C2407 0.961 . S
H2423 C2407 0.961 . S
H2424 C2408 0.931 . S
H2425 C2413 0.930 . S
H2426 C2414 0.956 . S
H2427 C2414 0.961 . S
H2428 C2414 0.961 . S
H2429 C2415 0.958 . S
H2430 C2415 0.961 . S
H2431 C2415 0.960 . S
C2432 C2433 1.391 . S
C2432 C2434 1.394 . S
C2432 H2448 0.931 . S
C2433 C2432 1.391 . S
C2433 C2437 1.376 . S
C2434 C2432 1.394 . S
C2434 C2435 1.369 . S
C2434 C2438 1.531 . S
C2435 C2434 1.369 . S
C2435 C2436 1.410 . S
C2435 C2443 1.503 . S
C2436 C2435 1.410 . S
C2436 C2437 1.392 . S
C2436 C2439 1.511 . S
C2437 C2433 1.376 . S
C2437 C2436 1.392 . S
C2437 H2449 0.929 . S
C2438 C2434 1.531 . S
C2438 H2450 0.960 . S
C2438 H2451 0.962 . S
C2438 H2452 0.960 . S
C2439 C2436 1.511 . S
C2439 H2453 0.961 . S
C2439 H2454 0.961 . S
C2439 H2455 0.961 . S
C2440 C2441 1.370 . S
C2440 C2442 1.363 . S
C2440 H2456 0.931 . S
C2441 C2440 1.370 . S
C2441 C2445 1.408 . S
C2442 C2440 1.363 . S
C2442 C2443 1.370 . S
C2442 C2446 1.524 . S
C2443 C2435 1.503 . S
C2443 C2442 1.370 . S
C2443 C2444 1.403 . S
C2444 C2443 1.403 . S
C2444 C2445 1.404 . S
C2444 C2447 1.539 . S
C2445 C2441 1.408 . S
C2445 C2444 1.404 . S
C2445 H2457 0.930 . S
C2446 C2442 1.524 . S
C2446 H2458 0.956 . S
C2446 H2459 0.961 . S
C2446 H2460 0.961 . S
C2447 C2444 1.539 . S
C2447 H2461 0.958 . S
C2447 H2462 0.961 . S
C2447 H2463 0.960 . S
H2448 C2432 0.931 . S
H2449 C2437 0.929 . S
H2450 C2438 0.960 . S
H2451 C2438 0.962 . S
H2452 C2438 0.960 . S
H2453 C2439 0.961 . S
H2454 C2439 0.961 . S
H2455 C2439 0.961 . S
H2456 C2440 0.931 . S
H2457 C2445 0.930 . S
H2458 C2446 0.956 . S
H2459 C2446 0.961 . S
H2460 C2446 0.961 . S
H2461 C2447 0.958 . S
H2462 C2447 0.961 . S
H2463 C2447 0.960 . S
C417 C5 1.452 . S
C425 C16 1.473 . S
C449 C42 1.477 . S
C457 C31 1.475 . S
C481 C57 1.480 . S
C489 C68 1.466 . S
C513 C83 1.454 . S
C521 C94 1.467 . S
C545 C109 1.456 . S
C553 C122 1.465 . S
C577 C133 1.475 . S
C585 C146 1.475 . S
C609 C159 1.482 . S
C617 C172 1.469 . S
C641 C185 1.450 . S
C649 C198 1.470 . S
C673 C226 1.476 . S
C681 C211 1.476 . S
C705 C250 1.455 . S
C713 C239 1.465 . S
C737 C276 1.450 . S
C745 C263 1.472 . S
C769 C304 1.482 . S
C777 C289 1.468 . S
C801 C330 1.458 . S
C809 C315 1.464 . S
C833 C356 1.470 . S
C841 C341 1.477 . S
C865 C382 1.482 . S
C873 C367 1.469 . S
C897 C406 1.472 . S
C905 C393 1.475 . S
C929 C4 1.451 . S
C937 C166 1.420 . S
C961 C23 1.451 . S
C969 C283 1.420 . S
C993 C30 1.402 . S
C1001 C82 1.440 . S
C1025 C49 1.424 . S
C1033 C413 1.430 . S
C1057 C56 1.407 . S
C1065 C108 1.438 . S
C1089 C225 1.409 . S
C1097 C75 1.436 . S
C1121 C355 1.403 . S
C1129 C101 1.440 . S
C1153 C121 1.451 . S
C1161 C381 1.420 . S
C1185 C140 1.423 . S
C1193 C192 1.433 . S
C1217 C153 1.420 . S
C1225 C303 1.435 . S
C1249 C179 1.407 . S
C1257 C329 1.437 . S
C1281 C205 1.418 . S
C1289 C257 1.432 . S
C1313 C374 1.436 . S
C1321 C218 1.428 . S
C1345 C296 1.433 . S
C1353 C238 1.429 . S
C1377 C270 1.437 . S
C1385 C322 1.428 . S
C1409 C400 1.450 . S
C1417 C348 1.420 . S
C1441 C134 0.825 . S
C1449 C10 0.816 . S
C1473 C147 0.810 . S
C1481 C17 0.821 1_565 S
C1505 C36 0.810 1_565 S
C1513 C114 0.821 . S
C1537 C127 0.827 . S
C1545 C43 0.812 . S
C1569 C62 0.805 . S
C1577 C186 0.818 . S
C1601 C69 0.805 1_545 S
C1609 C199 0.817 . S
C1633 C160 0.807 . S
C1641 C88 0.816 1_545 S
C1665 C173 0.827 . S
C1673 C95 0.813 . S
C1697 C212 0.811 . S
C1705 C342 0.815 . S
C1729 C361 0.806 . S
C1737 C231 0.822 1_565 S
C1761 C316 0.827 . S
C1769 C244 0.814 1_565 S
C1793 C251 0.810 . S
C1801 C335 0.821 . S
C1825 C394 0.828 . S
C1833 C264 0.815 . S
C1857 C277 0.804 1_545 S
C1865 C407 0.820 . S
C1889 C368 0.826 . S
C1897 C290 0.812 1_545 S
C1921 C387 0.804 . S
C1929 C309 0.819 . S
C1953 C135 1.740 . S
C1961 C3 1.748 1_565 S
C1985 C148 1.747 . S
C1993 C18 1.745 . S
C2017 C107 1.742 . S
C2025 C29 1.743 . S
C2049 C44 1.742 1_565 S
C2057 C120 1.743 . S
C2081 C187 1.747 . S
C2089 C55 1.746 1_545 S
C2113 C200 1.746 . S
C2121 C70 1.745 . S
C2145 C161 1.736 . S
C2153 C81 1.742 . S
C2177 C174 1.748 . S
C2185 C96 1.747 1_545 S
C2209 C343 1.735 . S
C2217 C213 1.746 1_565 S
C2241 C354 1.742 . S
C2249 C224 1.748 . S
C2273 C317 1.743 . S
C2281 C237 1.748 . S
C2305 C252 1.741 1_565 S
C2313 C328 1.743 . S
C2337 C395 1.740 . S
C2345 C265 1.743 1_545 S
C2369 C278 1.735 . S
C2377 C408 1.745 . S
C2401 C369 1.747 . S
C2409 C291 1.746 . S
C2433 C302 1.746 1_545 S
C2441 C380 1.745 . S
