# Generated by pormake.
# Topology sxc, (6)-cn, num edge types: 1
# Building blocks:
#     Node 0, Type 0, BuildingBlock: MIDCAF_clean_sbu_0, # of connection points: 6
#     Node 1, Type 0, BuildingBlock: MIDCAF_clean_sbu_0, # of connection points: 6
#     Node 2, Type 0, BuildingBlock: MIDCAF_clean_sbu_0, # of connection points: 6
#     Edge 3, Type (0, 0), BuildingBlock: MIFKUJ_clean_linker_0, # of connection points: 2
#     Edge 4, Type (0, 0), BuildingBlock: MIFKUJ_clean_linker_0, # of connection points: 2
#     Edge 5, Type (0, 0), BuildingBlock: MIFKUJ_clean_linker_0, # of connection points: 2
#     Edge 6, Type (0, 0), BuildingBlock: MIFKUJ_clean_linker_0, # of connection points: 2
#     Edge 7, Type (0, 0), BuildingBlock: MIFKUJ_clean_linker_0, # of connection points: 2
#     Edge 8, Type (0, 0), BuildingBlock: MIFKUJ_clean_linker_0, # of connection points: 2
#     Edge 9, Type (0, 0), BuildingBlock: MIFKUJ_clean_linker_0, # of connection points: 2
#     Edge 10, Type (0, 0), BuildingBlock: MIFKUJ_clean_linker_0, # of connection points: 2
#     Edge 11, Type (0, 0), BuildingBlock: MIFKUJ_clean_linker_0, # of connection points: 2
# Relax obj value: 0.324
# Max RMSD: 0.265
# Mean RMSD: 0.264
data_MOF--net-sxc--node1-MIDCAF_clean_sbu_0--edge1-MIFKUJ_clean_linker_0
_symmetry_space_group_name_H-M    P1
_symmetry_Int_Tables_number       1
_symmetry_cell_setting            triclinic
loop_
_symmetry_equiv_pos_as_xyz
'x, y, z'
_cell_length_a     18.870174
_cell_length_b     18.807967
_cell_length_c     58.450801
_cell_angle_alpha  91.946183
_cell_angle_beta   91.956461
_cell_angle_gamma 120.3895
loop_
_atom_site_label
_atom_site_type_symbol
_atom_site_fract_x
_atom_site_fract_y
_atom_site_fract_z
_atom_type_partial_charge
Zn0 Zn 0.18603 0.29355 1.0024 0.0
Zn1 Zn 0.52197 0.36847 0.06667 0.0
Zn2 Zn 0.31757 0.32819 0.02668 0.0
C3 C 0.45672 0.27777 0.02812 0.0
C4 C 0.3284 0.28852 0.07999 0.0
O5 O 0.32343 0.44512 0.02176 0.0
O6 O 0.21014 0.40736 1.00037 0.0
C7 C 0.26586 0.23594 0.97611 0.0
O8 O 0.42426 0.3219 0.03236 0.0
O9 O 0.52069 0.29414 0.04023 0.0
O10 O 0.4064 0.31919 0.0807 0.0
O11 O 0.28511 0.28024 0.06126 0.0
O12 O 0.19862 0.23516 0.9755 0.0
O13 O 0.31665 0.26907 0.99359 0.0
O14 O 0.21239 0.24499 0.04649 0.0
O15 O 0.10674 0.22911 0.02454 0.0
C16 C 0.13456 0.21512 0.04265 0.0
O17 O 0.43856 0.41035 0.04128 0.0
O18 O 0.56132 0.48509 0.0581 0.0
C19 C 0.27493 0.46323 0.01102 0.0
C20 C 0.50248 0.48151 0.04601 0.0
Zn21 Zn 0.20726 0.37181 0.38499 0.0
Zn22 Zn 0.95909 0.11731 0.34253 0.0
Zn23 Zn 0.08391 0.2466 0.36287 0.0
C24 C -0.01511 0.06518 0.38293 0.0
C25 C 0.08478 0.16858 0.31239 0.0
O26 O 0.04982 0.34023 0.36921 0.0
O27 O 0.16201 0.44446 0.38695 0.0
C28 C 0.15572 0.24897 0.41534 0.0
O29 O 0.04575 0.14011 0.38397 0.0
O30 O 0.93214 0.03804 0.36626 0.0
O31 O 0.01331 0.10909 0.31505 0.0
O32 O 0.1224 0.22584 0.32858 0.0
O33 O 0.21373 0.32206 0.41361 0.0
O34 O 0.1033 0.2108 0.3981 0.0
O35 O 0.19215 0.28926 0.34192 0.0
O36 O 0.28899 0.39872 0.36244 0.0
C37 C 0.26624 0.35127 0.3446 0.0
O38 O -0.01373 0.27613 0.35518 0.0
O39 O 0.88587 0.16094 0.33776 0.0
C40 C 0.08908 0.41357 0.37884 0.0
C41 C 0.91399 0.23478 0.34499 0.0
Zn42 Zn 0.05445 0.18525 0.71033 0.0
Zn43 Zn 0.97888 0.82374 0.6695 0.0
Zn44 Zn 0.02623 0.04637 0.69423 0.0
C45 C 0.09052 0.91769 0.70147 0.0
C46 C 0.04468 0.96442 0.6432 0.0
O47 O 0.90672 0.03665 0.69975 0.0
O48 O 0.94185 0.16087 0.71446 0.0
C49 C 0.12959 0.12756 0.74106 0.0
O50 O 0.04908 0.95005 0.69468 0.0
O51 O 0.06755 0.84521 0.69369 0.0
O52 O 0.02508 0.88905 0.64134 0.0
O53 O 0.03776 -0.005 0.66229 0.0
O54 O 0.12538 0.19124 0.73737 0.0
O55 O 0.094 0.06491 0.72672 0.0
O56 O 0.09544 0.13147 0.6685 0.0
O57 O 0.10417 0.24518 0.68312 0.0
C58 C 0.11795 0.20769 0.6672 0.0
O59 O 0.89558 0.9602 0.69247 0.0
O60 O 0.88455 0.83945 0.68033 0.0
C61 C 0.88699 0.08856 0.70769 0.0
C62 C 0.85332 0.88146 0.6877 0.0
H63 H 0.15938 0.50687 0.01277 0.0
H64 H 0.1781 0.6447 0.011 0.0
H65 H 0.43986 0.74776 0.00849 0.0
H66 H 0.42131 0.60907 0.0097 0.0
H67 H 0.40028 0.83747 0.03807 0.0
H68 H 0.32648 0.72287 0.96018 0.0
H69 H 0.24024 0.617 0.92963 0.0
H70 H 0.03461 0.64472 0.94544 0.0
H71 H 0.11938 0.75003 0.9763 0.0
H72 H 0.52573 0.21905 0.99931 0.0
H73 H 0.47411 0.07288 0.99002 0.0
H74 H 0.24309 0.01078 0.01833 0.0
H75 H 0.29524 0.15754 0.0281 0.0
H76 H 0.25969 0.89946 0.97507 0.0
H77 H 0.32662 -0.00072 0.05586 0.0
H78 H 0.41157 0.10573 0.08642 0.0
H79 H 0.6261 0.10286 0.06544 0.0
H80 H 0.54241 -0.0026 0.03444 0.0
C81 C 0.22113 0.55906 0.0119 0.0
C82 C 0.2893 0.54775 0.01168 0.0
C83 C 0.23159 0.6376 0.01082 0.0
C84 C 0.31034 0.70623 0.00928 0.0
C85 C 0.37879 0.69544 0.00963 0.0
C86 C 0.36834 0.61655 0.01065 0.0
C87 C 0.32087 0.78914 0.00725 0.0
C88 C 0.36995 0.85094 0.0242 0.0
C89 C 0.27975 0.80622 0.98941 0.0
C90 C 0.22907 0.7438 0.97066 0.0
C91 C 0.26272 0.706 0.95723 0.0
C92 C 0.21413 0.64616 0.93985 0.0
C93 C 0.13195 0.62401 0.93563 0.0
C94 C 0.09826 0.66188 0.94874 0.0
C95 C 0.14657 0.72173 0.96616 0.0
C96 C 0.46244 0.17456 1.00246 0.0
C97 C 0.41441 0.19908 0.01441 0.0
C98 C 0.43309 0.09121 0.99716 0.0
C99 C 0.35541 0.03158 0.00376 0.0
C100 C 0.30312 0.05636 0.01303 0.0
C101 C 0.33279 0.14011 0.0185 0.0
C102 C 0.33844 0.94665 0.00592 0.0
C103 C 0.28899 0.8851 0.989 0.0
C104 C 0.37828 0.9291 0.0239 0.0
C105 C 0.42859 0.99153 0.04266 0.0
C106 C 0.39208 0.02208 0.05761 0.0
C107 C 0.43993 0.08208 0.07503 0.0
C108 C 0.52427 0.11131 0.07781 0.0
C109 C 0.56082 0.08035 0.06322 0.0
C110 C 0.51322 0.02049 0.04572 0.0
H111 H 0.56124 0.15774 0.09131 0.0
H112 H 0.09441 0.57762 0.92218 0.0
H113 H 0.27876 0.23131 0.32088 0.0
H114 H 0.40974 0.24479 0.31161 0.0
H115 H 0.5321 0.50773 0.32687 0.0
H116 H 0.40056 0.49529 0.33497 0.0
H117 H 0.62528 0.45498 0.29924 0.0
H118 H 0.49719 0.41197 0.37164 0.0
H119 H 0.37762 0.34599 0.3956 0.0
H120 H 0.3478 0.10839 0.37815 0.0
H121 H 0.46657 0.17294 0.35384 0.0
H122 H 0.95813 0.39747 0.34167 0.0
H123 H 0.86528 0.45315 0.33991 0.0
H124 H 0.65691 0.20406 0.33603 0.0
H125 H 0.74845 0.15029 0.34085 0.0
H126 H 0.62868 0.29254 0.36405 0.0
H127 H 0.75172 0.34496 0.28625 0.0
H128 H 0.87433 0.41979 0.26372 0.0
H129 H 0.92198 0.65072 0.29521 0.0
H130 H 0.79993 0.57711 0.31796 0.0
C131 C 0.33234 0.29256 0.32066 0.0
C132 C 0.33043 0.36197 0.32926 0.0
C133 C 0.40733 0.3003 0.31541 0.0
C134 C 0.4804 0.37685 0.31945 0.0
C135 C 0.47633 0.44813 0.32394 0.0
C136 C 0.40117 0.44068 0.32875 0.0
C137 C 0.55677 0.37784 0.32612 0.0
C138 C 0.62643 0.41962 0.31338 0.0
C139 C 0.55955 0.3358 0.34543 0.0
C140 C 0.49035 0.29721 0.36082 0.0
C141 C 0.46498 0.34564 0.37289 0.0
C142 C 0.39735 0.30851 0.38651 0.0
C143 C 0.35499 0.22303 0.38835 0.0
C144 C 0.38059 0.17458 0.37669 0.0
C145 C 0.44814 0.21141 0.36302 0.0
C146 C 0.89252 0.35548 0.34148 0.0
C147 C 0.86053 0.27016 0.34246 0.0
C148 C 0.8395 0.38698 0.33979 0.0
C149 C 0.75394 0.33275 0.33781 0.0
C150 C 0.7226 0.24736 0.33789 0.0
C151 C 0.7751 0.21652 0.34042 0.0
C152 C 0.69448 0.36166 0.33558 0.0
C153 C 0.62818 0.32799 0.34984 0.0
C154 C 0.69576 0.41205 0.31795 0.0
C155 C 0.76717 0.45569 0.30376 0.0
C156 C 0.78839 0.41168 0.28829 0.0
C157 C 0.85776 0.45385 0.27552 0.0
C158 C 0.90592 0.53994 0.27804 0.0
C159 C 0.88463 0.58408 0.29326 0.0
C160 C 0.81533 0.54223 0.30605 0.0
H161 H 0.95971 0.57243 0.26819 0.0
H162 H 0.30244 0.19438 0.39883 0.0
H163 H 0.76446 0.74322 0.70954 0.0
H164 H 0.62039 0.64061 0.69981 0.0
H165 H 0.59801 0.8118 0.6572 0.0
H166 H 0.74339 0.91526 0.66689 0.0
H167 H 0.44588 0.66249 0.68906 0.0
H168 H 0.64462 0.72909 0.62653 0.0
H169 H 0.78451 0.76176 0.61758 0.0
H170 H 0.74268 0.53744 0.64628 0.0
H171 H 0.60339 0.50458 0.6559 0.0
H172 H 0.10851 0.31905 0.6411 0.0
H173 H 0.23008 0.45213 0.63501 0.0
H174 H 0.38537 0.35365 0.65355 0.0
H175 H 0.26427 0.22117 0.65966 0.0
H176 H 0.46726 0.4831 0.62859 0.0
H177 H 0.31999 0.41759 0.69556 0.0
H178 H 0.20164 0.36888 0.71983 0.0
H179 H 0.16136 0.56201 0.69825 0.0
H180 H 0.28009 0.61229 0.67375 0.0
C181 C 0.72759 0.76024 0.69901 0.0
C182 C 0.76411 0.83629 0.68884 0.0
C183 C 0.6456 0.7018 0.69348 0.0
C184 C 0.59974 0.71879 0.67759 0.0
C185 C 0.63309 0.79822 0.66952 0.0
C186 C 0.71565 0.85708 0.67509 0.0
C187 C 0.52534 0.64885 0.66615 0.0
C188 C 0.44936 0.62487 0.67514 0.0
C189 C 0.53222 0.59724 0.64927 0.0
C190 C 0.61372 0.61453 0.64195 0.0
C191 C 0.66536 0.68687 0.63095 0.0
C192 C 0.7446 0.70549 0.62581 0.0
C193 C 0.77248 0.65173 0.63137 0.0
C194 C 0.72102 0.57902 0.64197 0.0
C195 C 0.64193 0.56035 0.64725 0.0
C196 C 0.16841 0.32422 0.64226 0.0
C197 C 0.1773 0.26026 0.65098 0.0
C198 C 0.23788 0.4006 0.63906 0.0
C199 C 0.31649 0.4133 0.64464 0.0
C200 C 0.32515 0.34527 0.64934 0.0
C201 C 0.25564 0.2689 0.65254 0.0
C202 C 0.38604 0.49757 0.6508 0.0
C203 C 0.46191 0.5232 0.64132 0.0
C204 C 0.38029 0.54816 0.66838 0.0
C205 C 0.30765 0.51753 0.68246 0.0
C206 C 0.28531 0.44913 0.69576 0.0
C207 C 0.21854 0.42158 0.70965 0.0
C208 C 0.17378 0.46214 0.71045 0.0
C209 C 0.19611 0.53071 0.69749 0.0
C210 C 0.26314 0.55881 0.68362 0.0
H211 H 0.12202 0.44067 0.72119 0.0
H212 H 0.83392 0.6664 0.62744 0.0
H213 H 0.82456 0.18193 0.69448 0.0
H214 H 0.68576 0.15649 0.69926 0.0
H215 H 0.61736 0.92238 0.7273 0.0
H216 H 0.75752 0.94816 0.72261 0.0
H217 H 0.49567 0.92463 0.69505 0.0
H218 H 0.66387 0.07182 0.76413 0.0
H219 H 0.79128 0.1842 0.78388 0.0
H220 H 0.74658 0.36411 0.75381 0.0
H221 H 0.6194 0.25274 0.73365 0.0
H222 H 0.14055 0.86025 0.73618 0.0
H223 H 0.28431 0.90675 0.74651 0.0
H224 H 0.36004 0.12084 0.70712 0.0
H225 H 0.21567 0.07399 0.69654 0.0
H226 H 0.47789 0.12602 0.74846 0.0
H227 H 0.34131 -0.00325 0.67379 0.0
H228 H 0.21804 0.89696 0.64977 0.0
H229 H 0.20845 0.69743 0.68573 0.0
H230 H 0.33116 0.79629 0.71024 0.0
C231 C 0.77955 0.12465 0.70143 0.0
C232 C 0.80093 0.0668 0.70819 0.0
C233 C 0.70063 0.11026 0.70414 0.0
C234 C 0.64232 0.03837 0.71397 0.0
C235 C 0.66208 0.97835 0.71975 0.0
C236 C 0.74152 -0.00723 0.71696 0.0
C237 C 0.56254 0.02921 0.71926 0.0
C238 C 0.49152 0.96741 0.70709 0.0
C239 C 0.55805 0.08714 0.73438 0.0
C240 C 0.63225 0.15399 0.74737 0.0
C241 C 0.68127 0.13536 0.76173 0.0
C242 C 0.75347 0.19886 0.77297 0.0
C243 C 0.77703 0.28124 0.77009 0.0
C244 C 0.72819 0.30028 0.75605 0.0
C245 C 0.65593 0.23699 0.74476 0.0
C246 C 0.18777 0.91961 0.73083 0.0
C247 C 0.16795 0.96312 0.71536 0.0
C248 C 0.2697 0.94624 0.73681 0.0
C249 C 0.33208 0.01617 0.72719 0.0
C250 C 0.31224 0.06677 0.7147 0.0
C251 C 0.22989 0.04 0.70867 0.0
C252 C 0.41156 0.02128 0.72438 0.0
C253 C 0.48213 0.08231 0.73683 0.0
C254 C 0.41636 0.96407 0.70909 0.0
C255 C 0.34462 0.90383 0.69397 0.0
C256 C 0.31259 0.93155 0.67664 0.0
C257 C 0.24294 0.8752 0.66294 0.0
C258 C 0.20538 0.79082 0.66626 0.0
C259 C 0.23768 0.76272 0.68322 0.0
C260 C 0.30726 0.81887 0.69702 0.0
H261 H 0.15133 0.74721 0.65568 0.0
H262 H 0.83311 0.33034 0.77874 0.0
H263 H 0.0202 0.22981 0.0653 0.0
H264 H 0.88394 0.11212 0.07143 0.0
H265 H 0.97152 0.94573 0.05503 0.0
H266 H 0.10814 0.06326 0.04941 0.0
H267 H 0.83507 0.98253 0.02351 0.0
H268 H 0.91472 0.88615 0.09306 0.0
H269 H 0.97245 0.91616 0.13305 0.0
H270 H 0.78928 0.97405 0.15269 0.0
H271 H 0.73145 0.94573 0.11264 0.0
H272 H 0.58726 0.56202 0.01068 0.0
H273 H 0.67077 0.71074 0.01226 0.0
H274 H 0.5299 0.72748 0.06677 0.0
H275 H 0.44953 0.57653 0.06606 0.0
H276 H 0.67543 0.78975 0.08239 0.0
H277 H 0.57623 0.85616 0.01452 0.0
H278 H 0.52033 0.83337 0.97434 0.0
H279 H 0.73894 0.84441 0.95109 0.0
H280 H 0.79516 0.86587 0.99109 0.0
C281 C 0.0116 0.16826 0.06459 0.0
C282 C 0.07403 0.1549 0.0571 0.0
C283 C 0.93379 0.10128 0.06788 0.0
C284 C 0.91827 0.02086 0.06359 0.0
C285 C 0.98314 0.0077 0.05871 0.0
C286 C 0.06119 0.0747 0.05569 0.0
C287 C 0.8332 0.95303 0.05882 0.0
C288 C 0.79949 0.94011 0.03629 0.0
C289 C 0.78666 0.90074 0.07577 0.0
C290 C 0.81946 0.91479 0.09988 0.0
C291 C 0.88724 0.90594 0.10588 0.0
C292 C 0.91991 0.92253 0.12854 0.0
C293 C 0.88476 0.94729 0.14539 0.0
C294 C 0.81655 0.95503 0.13961 0.0
C295 C 0.78379 0.93868 0.11694 0.0
C296 C 0.57058 0.59759 0.02192 0.0
C297 C 0.51231 0.55849 0.0382 0.0
C298 C 0.61856 0.68334 0.02286 0.0
C299 C 0.60746 0.73124 0.03979 0.0
C300 C 0.54027 0.69202 0.05371 0.0
C301 C 0.49346 0.60581 0.0531 0.0
C302 C 0.67679 0.81575 0.04649 0.0
C303 C 0.70859 0.83282 0.0695 0.0
C304 C 0.72155 0.87244 0.0299 0.0
C305 C 0.68913 0.86147 0.00577 0.0
C306 C 0.6117 0.8527 1.0008 0.0
C307 C 0.58017 0.84032 0.97808 0.0
C308 C 0.6259 0.83705 0.96019 0.0
C309 C 0.70351 0.84681 0.96496 0.0
C310 C 0.73531 0.85935 0.98765 0.0
H311 H 0.60133 0.82724 0.94262 0.0
H312 H 0.91025 0.96029 0.16293 0.0
H313 H 0.14807 0.56453 0.36345 0.0
H314 H 0.10009 0.6606 0.37225 0.0
H315 H 0.89946 0.47299 0.40783 0.0
H316 H 0.94662 0.3754 0.39848 0.0
H317 H 0.87352 0.59304 0.37758 0.0
H318 H 0.05479 0.58724 0.44015 0.0
H319 H 0.18352 0.58902 0.45066 0.0
H320 H 0.32367 0.82201 0.42043 0.0
H321 H 0.19589 0.82105 0.40947 0.0
H322 H 0.85313 0.94138 0.40235 0.0
H323 H 0.84583 0.81504 0.41488 0.0
H324 H 0.10735 0.92573 0.40726 0.0
H325 H 0.1153 0.05306 0.39696 0.0
H326 H 0.07351 0.81747 0.43294 0.0
H327 H 0.94495 0.8252 0.36134 0.0
H328 H 0.84656 0.83433 0.33448 0.0
H329 H 0.64589 0.62339 0.36259 0.0
H330 H 0.7431 0.61426 0.38999 0.0
C331 C 0.09262 0.54349 0.37266 0.0
C332 C 0.051 0.46381 0.38055 0.0
C333 C 0.06534 0.59794 0.37762 0.0
C334 C -0.00243 0.57369 0.39103 0.0
C335 C 0.95222 0.49219 0.39757 0.0
C336 C 0.97906 0.43703 0.39231 0.0
C337 C 0.98114 0.63698 0.4002 0.0
C338 C 0.91532 0.64123 0.39021 0.0
C339 C 0.03882 0.70095 0.41578 0.0
C340 C 0.11572 0.70426 0.42415 0.0
C341 C 0.1131 0.63903 0.43588 0.0
C342 C 0.18591 0.63978 0.44183 0.0
C343 C 0.26172 0.70565 0.43626 0.0
C344 C 0.26497 0.77118 0.42483 0.0
C345 C 0.1924 0.77069 0.41881 0.0
C346 C 0.9094 0.93955 0.40461 0.0
C347 C -0.01554 0.00535 0.39826 0.0
C348 C 0.90515 0.8673 0.4115 0.0
C349 C 0.97509 0.85929 0.41087 0.0
C350 C 0.05197 0.92948 0.40762 0.0
C351 C 0.05672 0.00261 0.40167 0.0
C352 C 0.96766 0.77699 0.40944 0.0
C353 C 0.02883 0.76818 0.42107 0.0
C354 C 0.90992 0.71227 0.39371 0.0
C355 C 0.85104 0.72041 0.37811 0.0
C356 C 0.87972 0.78167 0.36205 0.0
C357 C 0.8242 0.7867 0.34669 0.0
C358 C 0.73997 0.72984 0.34694 0.0
C359 C 0.71108 0.66783 0.36256 0.0
C360 C 0.76631 0.66293 0.37807 0.0
H361 H 0.69712 0.73354 0.33495 0.0
H362 H 0.31795 0.70587 0.44077 0.0
H363 H 0.20882 0.30566 0.2936 0.0
H364 H 0.24797 0.31873 0.25395 0.0
H365 H 0.06362 0.063 0.23816 0.0
H366 H 0.03129 0.0475 0.27823 0.0
H367 H 0.1759 0.09174 0.21282 0.0
H368 H 0.0354 0.23836 0.22803 0.0
H369 H 0.00843 0.33859 0.24838 0.0
H370 H 0.24408 0.53735 0.2316 0.0
H371 H 0.27286 0.43819 0.21138 0.0
H372 H 0.18227 0.15464 0.09183 0.0
H373 H 0.12804 0.12773 0.13032 0.0
H374 H 0.33864 0.35709 0.15708 0.0
H375 H 0.391 0.38455 0.11892 0.0
H376 H 0.19668 0.33313 0.17496 0.0
H377 H 0.33286 0.17252 0.16141 0.0
H378 H 0.34667 0.06666 0.13918 0.0
H379 H 0.0965 0.88557 0.15073 0.0
H380 H 0.08104 0.99069 0.1728 0.0
C381 C 0.17948 0.2513 0.28198 0.0
C382 C 0.11796 0.1753 0.28934 0.0
C383 C 0.20022 0.25929 0.25904 0.0
C384 C 0.1569 0.19257 0.24267 0.0
C385 C 0.0979 0.11579 0.25023 0.0
C386 C 0.07919 0.10712 0.27326 0.0
C387 C 0.17033 0.20313 0.21763 0.0
C388 C 0.17919 0.14407 0.20459 0.0
C389 C 0.17411 0.2708 0.2065 0.0
C390 C 0.15651 0.33077 0.21834 0.0
C391 C 0.08158 0.30342 0.22876 0.0
C392 C 0.06598 0.36003 0.24027 0.0
C393 C 0.12457 0.44426 0.24132 0.0
C394 C 0.19878 0.47208 0.23079 0.0
C395 C 0.21472 0.41572 0.21927 0.0
C396 C 0.21538 0.19996 0.10583 0.0
C397 C 0.29031 0.2718 0.10236 0.0
C398 C 0.18511 0.18426 0.12786 0.0
C399 C 0.22964 0.24032 0.14665 0.0
C400 C 0.30308 0.31307 0.14292 0.0
C401 C 0.3332 0.32838 0.1211 0.0
C402 C 0.20362 0.22282 0.17054 0.0
C403 C 0.19233 0.28052 0.18331 0.0
C404 C 0.19541 0.15293 0.18124 0.0
C405 C 0.2057 0.08942 0.16863 0.0
C406 C 0.28082 0.11013 0.15917 0.0
C407 C 0.28892 0.05031 0.14659 0.0
C408 C 0.22248 0.96946 0.14353 0.0
C409 C 0.14792 0.94819 0.15312 0.0
C410 C 0.13948 0.00782 0.16569 0.0
H411 H 0.22881 0.92327 0.13375 0.0
H412 H 0.11241 0.48797 0.25026 0.0
H413 H 0.01615 0.1212 0.43225 0.0
H414 H -0.00242 0.07561 0.47135 0.0
H415 H 0.24954 0.26158 0.49049 0.0
H416 H 0.27045 0.3008 0.45102 0.0
H417 H 0.22074 0.14201 0.5128 0.0
H418 H 0.06709 0.27907 0.50076 0.0
H419 H 0.96374 0.3041 0.48168 0.0
H420 H 0.77176 0.06127 0.49622 0.0
H421 H 0.87412 0.03442 0.51514 0.0
H422 H 0.17469 0.10948 0.63158 0.0
H423 H 0.19153 0.17398 0.59475 0.0
H424 H 0.95213 0.97349 0.57002 0.0
H425 H 0.93369 0.91341 0.60734 0.0
H426 H 0.97787 0.10976 0.55194 0.0
H427 H 0.14057 0.97489 0.56207 0.0
H428 H 0.24644 0.95895 0.58338 0.0
H429 H 0.4259 0.2124 0.57421 0.0
H430 H 0.32079 0.22999 0.55307 0.0
C431 C 0.06856 0.14961 0.44448 0.0
C432 C 0.14525 0.21333 0.4382 0.0
C433 C 0.05729 0.12523 0.46713 0.0
C434 C 0.12149 0.1665 0.48426 0.0
C435 C 0.19866 0.22855 0.47781 0.0
C436 C 0.21051 0.25118 0.45512 0.0
C437 C 0.10893 0.14653 0.50891 0.0
C438 C 0.16801 0.1362 0.52131 0.0
C439 C 0.0401 0.1382 0.52034 0.0
C440 C 0.97839 0.15447 0.50915 0.0
C441 C 0.00289 0.23086 0.49976 0.0
C442 C 0.94448 0.24538 0.48899 0.0
C443 C 0.86127 0.18422 0.48768 0.0
C444 C 0.83625 0.10853 0.49721 0.0
C445 C 0.89442 0.09365 0.50798 0.0
C446 C 0.12494 0.08162 0.6185 0.0
C447 C 0.05324 0.00736 0.62211 0.0
C448 C 0.13476 0.11738 0.59736 0.0
C449 C 0.0739 0.07742 0.57931 0.0
C450 C 0.00022 0.00531 0.58352 0.0
C451 C -0.00997 0.97057 0.60473 0.0
C452 C 0.08927 0.10503 0.55548 0.0
C453 C 0.03073 0.11645 0.5433 0.0
C454 C 0.15911 0.11564 0.54432 0.0
C455 C 0.22292 0.10376 0.55605 0.0
C456 C 0.20269 0.02709 0.56456 0.0
C457 C 0.26247 0.01784 0.57665 0.0
C458 C 0.34283 0.08463 0.58015 0.0
C459 C 0.36366 0.16072 0.57148 0.0
C460 C 0.30407 0.17033 0.55941 0.0
H461 H 0.38897 0.07741 0.58957 0.0
H462 H 0.81616 0.19556 0.47931 0.0
H463 H 0.10548 0.99201 0.76384 0.0
H464 H 0.15139 0.99184 0.80369 0.0
H465 H 0.28665 0.25818 0.80813 0.0
H466 H 0.24183 0.25874 0.76861 0.0
H467 H 0.36944 0.1988 0.83185 0.0
H468 H 0.09289 0.1535 0.82531 0.0
H469 H 0.94688 0.08 0.81135 0.0
H470 H 0.91049 0.85931 0.84124 0.0
H471 H 0.05671 0.93135 0.85512 0.0
H472 H 0.36735 0.33663 0.94564 0.0
H473 H 0.36532 0.30078 0.90508 0.0
H474 H 0.20846 0.0427 0.91711 0.0
H475 H 0.20642 0.08006 0.95762 0.0
H476 H 0.14198 0.07589 0.8845 0.0
H477 H 0.41989 0.13678 0.89751 0.0
H478 H 0.56462 0.21959 0.91239 0.0
H479 H 0.59942 0.41821 0.87114 0.0
H480 H 0.45468 0.33709 0.85624 0.0
C481 C 0.14674 0.05037 0.77315 0.0
C482 C 0.16925 0.12535 0.76316 0.0
C483 C 0.17254 0.05026 0.79596 0.0
C484 C 0.22151 0.12508 0.80905 0.0
C485 C 0.24882 0.1997 0.79847 0.0
C486 C 0.22277 0.19986 0.77584 0.0
C487 C 0.2382 0.12704 0.83423 0.0
C488 C 0.31987 0.17167 0.84343 0.0
C489 C 0.17365 0.09076 0.84934 0.0
C490 C 0.08588 0.04741 0.84097 0.0
C491 C 0.0539 0.08909 0.82872 0.0
C492 C 0.9711 0.04775 0.82086 0.0
C493 C 0.91951 0.96494 0.82533 0.0
C494 C 0.95058 0.92338 0.83773 0.0
C495 C 0.03339 0.96442 0.8456 0.0
C496 C 0.33559 0.27201 0.93977 0.0
C497 C 0.28848 0.2109 0.95475 0.0
C498 C 0.33426 0.25129 0.91649 0.0
C499 C 0.28741 0.16861 0.90779 0.0
C500 C 0.24515 0.10688 0.92324 0.0
C501 C 0.24485 0.12797 0.94646 0.0
C502 C 0.27376 0.14832 0.88244 0.0
C503 C 0.19225 0.10085 0.87312 0.0
C504 C 0.3386 0.18266 0.86728 0.0
C505 C 0.42628 0.23083 0.87581 0.0
C506 C 0.45834 0.1982 0.89166 0.0
C507 C 0.54039 0.24487 0.90011 0.0
C508 C 0.59116 0.32412 0.89273 0.0
C509 C 0.56006 0.35678 0.87683 0.0
C510 C 0.47807 0.31039 0.86833 0.0
H511 H 0.65461 0.36021 0.89932 0.0
H512 H 0.85541 0.93306 0.81924 0.0
loop_
_geom_bond_atom_site_label_1
_geom_bond_atom_site_label_2
_geom_bond_distance
_geom_bond_site_symmetry_2
_ccdc_geom_bond_type
Zn0 O6 1.920 . S
Zn0 O12 1.898 . S
Zn0 O15 1.905 1_556 S
Zn1 O9 1.905 . S
Zn1 O10 1.898 . S
Zn1 O18 1.920 . S
Zn2 O5 2.080 . S
Zn2 O8 2.114 . S
Zn2 O11 2.120 . S
Zn2 O13 2.120 1_554 S
Zn2 O14 2.114 . S
Zn2 O17 2.080 . S
C3 O8 1.166 . S
C3 O9 1.182 . S
C4 O10 1.167 . S
C4 O11 1.299 . S
O5 Zn2 2.080 . S
O5 C19 1.305 . S
O6 Zn0 1.920 . S
O6 C19 1.234 1_556 S
C7 O12 1.167 . S
C7 O13 1.299 . S
O8 Zn2 2.114 . S
O8 C3 1.166 . S
O9 Zn1 1.905 . S
O9 C3 1.182 . S
O10 Zn1 1.898 . S
O10 C4 1.167 . S
O11 Zn2 2.120 . S
O11 C4 1.299 . S
O12 Zn0 1.898 . S
O12 C7 1.167 . S
O13 Zn2 2.120 1_556 S
O13 C7 1.299 . S
O14 Zn2 2.114 . S
O14 C16 1.166 . S
O15 Zn0 1.905 1_554 S
O15 C16 1.182 . S
C16 O14 1.166 . S
C16 O15 1.182 . S
O17 Zn2 2.080 . S
O17 C20 1.305 . S
O18 Zn1 1.920 . S
O18 C20 1.234 . S
C19 O5 1.305 . S
C19 O6 1.234 1_554 S
C20 O17 1.305 . S
C20 O18 1.234 . S
Zn21 O27 1.920 . S
Zn21 O33 1.898 . S
Zn21 O36 1.905 . S
Zn22 O30 1.905 . S
Zn22 O31 1.898 1_655 S
Zn22 O39 1.920 . S
Zn23 O26 2.080 . S
Zn23 O29 2.114 . S
Zn23 O32 2.120 . S
Zn23 O34 2.120 . S
Zn23 O35 2.114 . S
Zn23 O38 2.080 1_455 S
C24 O29 1.166 . S
C24 O30 1.182 1_455 S
C25 O31 1.167 . S
C25 O32 1.299 . S
O26 Zn23 2.080 . S
O26 C40 1.305 . S
O27 Zn21 1.920 . S
O27 C40 1.234 . S
C28 O33 1.167 . S
C28 O34 1.299 . S
O29 Zn23 2.114 . S
O29 C24 1.166 . S
O30 Zn22 1.905 . S
O30 C24 1.182 1_655 S
O31 Zn22 1.898 1_455 S
O31 C25 1.167 . S
O32 Zn23 2.120 . S
O32 C25 1.299 . S
O33 Zn21 1.898 . S
O33 C28 1.167 . S
O34 Zn23 2.120 . S
O34 C28 1.299 . S
O35 Zn23 2.114 . S
O35 C37 1.166 . S
O36 Zn21 1.905 . S
O36 C37 1.182 . S
C37 O35 1.166 . S
C37 O36 1.182 . S
O38 Zn23 2.080 1_655 S
O38 C41 1.305 . S
O39 Zn22 1.920 . S
O39 C41 1.234 . S
C40 O26 1.305 . S
C40 O27 1.234 . S
C41 O38 1.305 . S
C41 O39 1.234 . S
Zn42 O48 1.920 1_455 S
Zn42 O54 1.898 . S
Zn42 O57 1.905 . S
Zn43 O51 1.905 . S
Zn43 O52 1.898 . S
Zn43 O60 1.920 1_455 S
Zn44 O47 2.080 1_455 S
Zn44 O50 2.114 . S
Zn44 O53 2.120 . S
Zn44 O55 2.120 . S
Zn44 O56 2.114 . S
Zn44 O59 2.080 1_445 S
C45 O50 1.166 1_565 S
C45 O51 1.182 . S
C46 O52 1.167 1_545 S
C46 O53 1.299 . S
O47 Zn44 2.080 1_655 S
O47 C61 1.305 . S
O48 Zn42 1.920 1_655 S
O48 C61 1.234 . S
C49 O54 1.167 . S
C49 O55 1.299 . S
O50 Zn44 2.114 . S
O50 C45 1.166 1_545 S
O51 Zn43 1.905 . S
O51 C45 1.182 . S
O52 Zn43 1.898 . S
O52 C46 1.167 1_565 S
O53 Zn44 2.120 . S
O53 C46 1.299 . S
O54 Zn42 1.898 . S
O54 C49 1.167 . S
O55 Zn44 2.120 . S
O55 C49 1.299 . S
O56 Zn44 2.114 . S
O56 C58 1.166 . S
O57 Zn42 1.905 . S
O57 C58 1.182 . S
C58 O56 1.166 . S
C58 O57 1.182 . S
O59 Zn44 2.080 1_665 S
O59 C62 1.305 . S
O60 Zn43 1.920 1_655 S
O60 C62 1.234 . S
C61 O47 1.305 . S
C61 O48 1.234 . S
C62 O59 1.305 . S
C62 O60 1.234 . S
H63 C81 0.951 . S
H64 C83 0.951 . S
H65 C85 0.950 . S
H66 C86 0.950 . S
H67 C88 0.950 . S
H68 C91 0.950 . S
H69 C92 0.950 . S
H70 C94 0.950 . S
H71 C95 0.950 . S
H72 C96 0.951 . S
H73 C98 0.951 . S
H74 C100 0.950 1_565 S
H75 C101 0.950 . S
H76 C103 0.950 1_556 S
H77 C106 0.945 . S
H78 C107 0.950 . S
H79 C109 0.950 . S
H80 C110 0.950 . S
C81 H63 0.951 . S
C81 C82 1.366 . S
C81 C83 1.388 . S
C82 C81 1.366 . S
C82 C86 1.385 . S
C83 H64 0.951 . S
C83 C81 1.388 . S
C83 C84 1.366 . S
C84 C83 1.366 . S
C84 C85 1.414 . S
C84 C87 1.499 . S
C85 H65 0.950 . S
C85 C84 1.414 . S
C85 C86 1.374 . S
C86 H66 0.950 . S
C86 C82 1.385 . S
C86 C85 1.374 . S
C87 C84 1.499 . S
C87 C88 1.373 . S
C87 C89 1.389 . S
C88 H67 0.950 . S
C88 C87 1.373 . S
C88 C104 1.377 . S
C89 C87 1.389 . S
C89 C90 1.524 1_554 S
C89 C103 1.377 . S
C90 C89 1.524 1_556 S
C90 C91 1.397 . S
C90 C95 1.363 . S
C91 H68 0.950 . S
C91 C90 1.397 . S
C91 C92 1.334 . S
C92 H69 0.950 . S
C92 C91 1.334 . S
C92 C93 1.287 . S
C93 C92 1.287 . S
C93 C94 1.524 . S
C93 H112 0.913 . S
C94 H70 0.950 . S
C94 C93 1.524 . S
C94 C95 1.415 . S
C95 H71 0.950 . S
C95 C90 1.363 . S
C95 C94 1.415 . S
C96 H72 0.951 . S
C96 C97 1.366 . S
C96 C98 1.388 . S
C97 C96 1.366 . S
C97 C101 1.385 . S
C98 H73 0.951 . S
C98 C96 1.388 . S
C98 C99 1.366 . S
C99 C98 1.366 . S
C99 C100 1.414 . S
C99 C102 1.499 1_545 S
C100 H74 0.950 1_545 S
C100 C99 1.414 . S
C100 C101 1.374 . S
C101 H75 0.950 . S
C101 C97 1.385 . S
C101 C100 1.374 . S
C102 C99 1.499 1_565 S
C102 C103 1.373 . S
C102 C104 1.389 . S
C103 H76 0.950 1_554 S
C103 C89 1.377 . S
C103 C102 1.373 . S
C104 C88 1.377 . S
C104 C102 1.389 . S
C104 C105 1.524 . S
C105 C104 1.524 . S
C105 C106 1.406 . S
C105 C110 1.363 . S
C106 H77 0.945 . S
C106 C105 1.406 . S
C106 C107 1.329 1_565 S
C107 H78 0.950 . S
C107 C106 1.329 1_545 S
C107 C108 1.287 . S
C108 C107 1.287 . S
C108 C109 1.524 . S
C108 H111 0.999 . S
C109 H79 0.950 . S
C109 C108 1.524 . S
C109 C110 1.415 1_545 S
C110 H80 0.950 . S
C110 C105 1.363 . S
C110 C109 1.415 1_565 S
H111 C108 0.999 . S
H112 C93 0.913 . S
H113 C131 0.951 . S
H114 C133 0.951 . S
H115 C135 0.950 . S
H116 C136 0.950 . S
H117 C138 0.950 . S
H118 C141 0.950 . S
H119 C142 0.950 . S
H120 C144 0.950 1_565 S
H121 C145 0.950 . S
H122 C146 0.951 . S
H123 C148 0.951 . S
H124 C150 0.950 . S
H125 C151 0.950 . S
H126 C153 0.950 . S
H127 C156 0.950 . S
H128 C157 0.950 . S
H129 C159 0.950 . S
H130 C160 0.950 . S
C131 H113 0.951 . S
C131 C132 1.366 . S
C131 C133 1.388 . S
C132 C131 1.366 . S
C132 C136 1.385 . S
C133 H114 0.951 . S
C133 C131 1.388 . S
C133 C134 1.366 . S
C134 C133 1.366 . S
C134 C135 1.414 . S
C134 C137 1.499 . S
C135 H115 0.950 . S
C135 C134 1.414 . S
C135 C136 1.374 . S
C136 H116 0.950 . S
C136 C132 1.385 . S
C136 C135 1.374 . S
C137 C134 1.499 . S
C137 C138 1.373 . S
C137 C139 1.389 . S
C138 H117 0.950 . S
C138 C137 1.373 . S
C138 C154 1.377 . S
C139 C137 1.389 . S
C139 C140 1.524 . S
C139 C153 1.377 . S
C140 C139 1.524 . S
C140 C141 1.397 . S
C140 C145 1.363 . S
C141 H118 0.950 . S
C141 C140 1.397 . S
C141 C142 1.334 . S
C142 H119 0.950 . S
C142 C141 1.334 . S
C142 C143 1.287 . S
C143 C142 1.287 . S
C143 C144 1.524 . S
C143 H162 0.913 . S
C144 H120 0.950 1_545 S
C144 C143 1.524 . S
C144 C145 1.415 . S
C145 H121 0.950 . S
C145 C140 1.363 . S
C145 C144 1.415 . S
C146 H122 0.951 . S
C146 C147 1.366 . S
C146 C148 1.388 . S
C147 C146 1.366 . S
C147 C151 1.385 . S
C148 H123 0.951 . S
C148 C146 1.388 . S
C148 C149 1.366 . S
C149 C148 1.366 . S
C149 C150 1.414 . S
C149 C152 1.499 . S
C150 H124 0.950 . S
C150 C149 1.414 . S
C150 C151 1.374 . S
C151 H125 0.950 . S
C151 C147 1.385 . S
C151 C150 1.374 . S
C152 C149 1.499 . S
C152 C153 1.373 . S
C152 C154 1.389 . S
C153 H126 0.950 . S
C153 C139 1.377 . S
C153 C152 1.373 . S
C154 C138 1.377 . S
C154 C152 1.389 . S
C154 C155 1.524 . S
C155 C154 1.524 . S
C155 C156 1.397 . S
C155 C160 1.363 . S
C156 H127 0.950 . S
C156 C155 1.397 . S
C156 C157 1.334 . S
C157 H128 0.950 . S
C157 C156 1.334 . S
C157 C158 1.287 . S
C158 C157 1.287 . S
C158 C159 1.524 . S
C158 H161 0.999 . S
C159 H129 0.950 . S
C159 C158 1.524 . S
C159 C160 1.415 . S
C160 H130 0.950 . S
C160 C155 1.363 . S
C160 C159 1.415 . S
H161 C158 0.999 . S
H162 C143 0.913 . S
H163 C181 0.951 . S
H164 C183 0.951 . S
H165 C185 0.950 . S
H166 C186 0.950 . S
H167 C188 0.950 . S
H168 C191 0.950 . S
H169 C192 0.950 . S
H170 C194 0.950 . S
H171 C195 0.950 . S
H172 C196 0.951 . S
H173 C198 0.951 . S
H174 C200 0.950 . S
H175 C201 0.950 . S
H176 C203 0.950 . S
H177 C206 0.950 . S
H178 C207 0.950 . S
H179 C209 0.950 . S
H180 C210 0.950 . S
C181 H163 0.951 . S
C181 C182 1.366 . S
C181 C183 1.388 . S
C182 C181 1.366 . S
C182 C186 1.385 . S
C183 H164 0.951 . S
C183 C181 1.388 . S
C183 C184 1.366 . S
C184 C183 1.366 . S
C184 C185 1.414 . S
C184 C187 1.499 . S
C185 H165 0.950 . S
C185 C184 1.414 . S
C185 C186 1.374 . S
C186 H166 0.950 . S
C186 C182 1.385 . S
C186 C185 1.374 . S
C187 C184 1.499 . S
C187 C188 1.373 . S
C187 C189 1.389 . S
C188 H167 0.950 . S
C188 C187 1.373 . S
C188 C204 1.377 . S
C189 C187 1.389 . S
C189 C190 1.524 . S
C189 C203 1.377 . S
C190 C189 1.524 . S
C190 C191 1.397 . S
C190 C195 1.363 . S
C191 H168 0.950 . S
C191 C190 1.397 . S
C191 C192 1.334 . S
C192 H169 0.950 . S
C192 C191 1.334 . S
C192 C193 1.287 . S
C193 C192 1.287 . S
C193 C194 1.524 . S
C193 H212 0.913 . S
C194 H170 0.950 . S
C194 C193 1.524 . S
C194 C195 1.415 . S
C195 H171 0.950 . S
C195 C190 1.363 . S
C195 C194 1.415 . S
C196 H172 0.951 . S
C196 C197 1.366 . S
C196 C198 1.388 . S
C197 C196 1.366 . S
C197 C201 1.385 . S
C198 H173 0.951 . S
C198 C196 1.388 . S
C198 C199 1.366 . S
C199 C198 1.366 . S
C199 C200 1.414 . S
C199 C202 1.499 . S
C200 H174 0.950 . S
C200 C199 1.414 . S
C200 C201 1.374 . S
C201 H175 0.950 . S
C201 C197 1.385 . S
C201 C200 1.374 . S
C202 C199 1.499 . S
C202 C203 1.373 . S
C202 C204 1.389 . S
C203 H176 0.950 . S
C203 C189 1.377 . S
C203 C202 1.373 . S
C204 C188 1.377 . S
C204 C202 1.389 . S
C204 C205 1.524 . S
C205 C204 1.524 . S
C205 C206 1.397 . S
C205 C210 1.363 . S
C206 H177 0.950 . S
C206 C205 1.397 . S
C206 C207 1.334 . S
C207 H178 0.950 . S
C207 C206 1.334 . S
C207 C208 1.287 . S
C208 C207 1.287 . S
C208 C209 1.524 . S
C208 H211 0.999 . S
C209 H179 0.950 . S
C209 C208 1.524 . S
C209 C210 1.415 . S
C210 H180 0.950 . S
C210 C205 1.363 . S
C210 C209 1.415 . S
H211 C208 0.999 . S
H212 C193 0.913 . S
H213 C231 0.951 . S
H214 C233 0.951 . S
H215 C235 0.950 . S
H216 C236 0.950 1_565 S
H217 C238 0.950 . S
H218 C241 0.950 . S
H219 C242 0.950 . S
H220 C244 0.950 . S
H221 C245 0.950 . S
H222 C246 0.951 . S
H223 C248 0.951 . S
H224 C250 0.950 . S
H225 C251 0.950 . S
H226 C253 0.950 . S
H227 C256 0.950 . S
H228 C257 0.950 . S
H229 C259 0.950 . S
H230 C260 0.950 . S
C231 H213 0.951 . S
C231 C232 1.366 . S
C231 C233 1.388 . S
C232 C231 1.366 . S
C232 C236 1.385 . S
C233 H214 0.951 . S
C233 C231 1.388 . S
C233 C234 1.366 . S
C234 C233 1.366 . S
C234 C235 1.414 1_545 S
C234 C237 1.499 . S
C235 H215 0.950 . S
C235 C234 1.414 1_565 S
C235 C236 1.374 1_565 S
C236 H216 0.950 1_545 S
C236 C232 1.385 . S
C236 C235 1.374 1_545 S
C237 C234 1.499 . S
C237 C238 1.373 1_545 S
C237 C239 1.389 . S
C238 H217 0.950 . S
C238 C237 1.373 1_565 S
C238 C254 1.377 . S
C239 C237 1.389 . S
C239 C240 1.524 . S
C239 C253 1.377 . S
C240 C239 1.524 . S
C240 C241 1.397 . S
C240 C245 1.363 . S
C241 H218 0.950 . S
C241 C240 1.397 . S
C241 C242 1.334 . S
C242 H219 0.950 . S
C242 C241 1.334 . S
C242 C243 1.287 . S
C243 C242 1.287 . S
C243 C244 1.524 . S
C243 H262 0.913 . S
C244 H220 0.950 . S
C244 C243 1.524 . S
C244 C245 1.415 . S
C245 H221 0.950 . S
C245 C240 1.363 . S
C245 C244 1.415 . S
C246 H222 0.951 . S
C246 C247 1.366 . S
C246 C248 1.388 . S
C247 C246 1.366 . S
C247 C251 1.385 1_565 S
C248 H223 0.951 . S
C248 C246 1.388 . S
C248 C249 1.366 1_565 S
C249 C248 1.366 1_545 S
C249 C250 1.414 . S
C249 C252 1.499 . S
C250 H224 0.950 . S
C250 C249 1.414 . S
C250 C251 1.374 . S
C251 H225 0.950 . S
C251 C247 1.385 1_545 S
C251 C250 1.374 . S
C252 C249 1.499 . S
C252 C253 1.373 . S
C252 C254 1.389 1_545 S
C253 H226 0.950 . S
C253 C239 1.377 . S
C253 C252 1.373 . S
C254 C238 1.377 . S
C254 C252 1.389 1_565 S
C254 C255 1.524 . S
C255 C254 1.524 . S
C255 C256 1.397 . S
C255 C260 1.363 . S
C256 H227 0.950 . S
C256 C255 1.397 . S
C256 C257 1.334 . S
C257 H228 0.950 . S
C257 C256 1.334 . S
C257 C258 1.287 . S
C258 C257 1.287 . S
C258 C259 1.524 . S
C258 H261 0.999 . S
C259 H229 0.950 . S
C259 C258 1.524 . S
C259 C260 1.415 . S
C260 H230 0.950 . S
C260 C255 1.363 . S
C260 C259 1.415 . S
H261 C258 0.999 . S
H262 C243 0.913 . S
H263 C281 0.951 . S
H264 C283 0.951 . S
H265 C285 0.963 . S
H266 C286 0.950 . S
H267 C288 0.993 . S
H268 C291 0.949 . S
H269 C292 0.950 1_545 S
H270 C294 0.950 . S
H271 C295 0.950 . S
H272 C296 0.951 . S
H273 C298 0.951 . S
H274 C300 0.950 . S
H275 C301 0.950 . S
H276 C303 0.950 . S
H277 C306 0.928 1_554 S
H278 C307 0.950 . S
H279 C309 0.950 . S
H280 C310 0.950 . S
C281 H263 0.951 . S
C281 C282 1.366 . S
C281 C283 1.388 1_455 S
C282 C281 1.366 . S
C282 C286 1.385 . S
C283 H264 0.951 . S
C283 C281 1.388 1_655 S
C283 C284 1.366 . S
C284 C283 1.366 . S
C284 C285 1.414 1_655 S
C284 C287 1.499 1_545 S
C285 H265 0.963 . S
C285 C284 1.414 1_455 S
C285 C286 1.374 . S
C286 H266 0.950 . S
C286 C282 1.385 . S
C286 C285 1.374 . S
C287 C284 1.499 1_565 S
C287 C288 1.373 . S
C287 C289 1.389 . S
C288 H267 0.993 . S
C288 C287 1.373 . S
C288 C304 1.377 . S
C289 C287 1.389 . S
C289 C290 1.524 . S
C289 C303 1.377 . S
C290 C289 1.524 . S
C290 C291 1.397 . S
C290 C295 1.363 . S
C291 H268 0.949 . S
C291 C290 1.397 . S
C291 C292 1.334 1_655 S
C292 H269 0.950 1_565 S
C292 C291 1.334 1_455 S
C292 C293 1.287 1_455 S
C293 C292 1.287 1_655 S
C293 C294 1.524 . S
C293 H312 0.913 1_665 S
C294 H270 0.950 . S
C294 C293 1.524 . S
C294 C295 1.415 . S
C295 H271 0.950 . S
C295 C290 1.363 . S
C295 C294 1.415 . S
C296 H272 0.951 . S
C296 C297 1.366 . S
C296 C298 1.388 . S
C297 C296 1.366 . S
C297 C301 1.385 . S
C298 H273 0.951 . S
C298 C296 1.388 . S
C298 C299 1.366 . S
C299 C298 1.366 . S
C299 C300 1.414 . S
C299 C302 1.499 . S
C300 H274 0.950 . S
C300 C299 1.414 . S
C300 C301 1.374 . S
C301 H275 0.950 . S
C301 C297 1.385 . S
C301 C300 1.374 . S
C302 C299 1.499 . S
C302 C303 1.373 . S
C302 C304 1.389 . S
C303 H276 0.950 . S
C303 C289 1.377 . S
C303 C302 1.373 . S
C304 C288 1.377 . S
C304 C302 1.389 . S
C304 C305 1.524 1_554 S
C305 C304 1.524 1_556 S
C305 C306 1.397 . S
C305 C310 1.363 . S
C306 H277 0.928 1_556 S
C306 C305 1.397 . S
C306 C307 1.334 . S
C307 H278 0.950 . S
C307 C306 1.334 . S
C307 C308 1.287 . S
C308 C307 1.287 . S
C308 C309 1.524 . S
C308 H311 0.999 . S
C309 H279 0.950 . S
C309 C308 1.524 . S
C309 C310 1.415 . S
C310 H280 0.950 . S
C310 C305 1.363 . S
C310 C309 1.415 . S
H311 C308 0.999 . S
H312 C293 0.913 1_445 S
H313 C331 0.951 . S
H314 C333 0.951 . S
H315 C335 0.950 1_655 S
H316 C336 0.950 . S
H317 C338 0.950 1_655 S
H318 C341 0.950 . S
H319 C342 0.950 . S
H320 C344 0.950 . S
H321 C345 0.950 . S
H322 C346 0.951 . S
H323 C348 0.951 . S
H324 C350 0.950 . S
H325 C351 0.950 . S
H326 C353 0.950 . S
H327 C356 0.950 . S
H328 C357 0.950 . S
H329 C359 0.950 . S
H330 C360 0.950 . S
C331 H313 0.951 . S
C331 C332 1.366 . S
C331 C333 1.388 . S
C332 C331 1.366 . S
C332 C336 1.385 . S
C333 H314 0.951 . S
C333 C331 1.388 . S
C333 C334 1.366 . S
C334 C333 1.366 . S
C334 C335 1.414 . S
C334 C337 1.499 . S
C335 H315 0.950 1_455 S
C335 C334 1.414 . S
C335 C336 1.374 . S
C336 H316 0.950 . S
C336 C332 1.385 . S
C336 C335 1.374 . S
C337 C334 1.499 . S
C337 C338 1.373 . S
C337 C339 1.389 . S
C338 H317 0.950 1_455 S
C338 C337 1.373 . S
C338 C354 1.377 1_455 S
C339 C337 1.389 . S
C339 C340 1.524 . S
C339 C353 1.377 . S
C340 C339 1.524 . S
C340 C341 1.397 . S
C340 C345 1.363 . S
C341 H318 0.950 . S
C341 C340 1.397 . S
C341 C342 1.334 . S
C342 H319 0.950 . S
C342 C341 1.334 . S
C342 C343 1.287 . S
C343 C342 1.287 . S
C343 C344 1.524 . S
C343 H362 0.913 . S
C344 H320 0.950 . S
C344 C343 1.524 . S
C344 C345 1.415 . S
C345 H321 0.950 . S
C345 C340 1.363 . S
C345 C344 1.415 . S
C346 H322 0.951 . S
C346 C347 1.366 1_665 S
C346 C348 1.388 . S
C347 C346 1.366 1_445 S
C347 C351 1.385 . S
C348 H323 0.951 . S
C348 C346 1.388 . S
C348 C349 1.366 1_655 S
C349 C348 1.366 1_455 S
C349 C350 1.414 . S
C349 C352 1.499 . S
C350 H324 0.950 . S
C350 C349 1.414 . S
C350 C351 1.374 1_565 S
C351 H325 0.950 . S
C351 C347 1.385 . S
C351 C350 1.374 1_545 S
C352 C349 1.499 . S
C352 C353 1.373 . S
C352 C354 1.389 1_455 S
C353 H326 0.950 . S
C353 C339 1.377 . S
C353 C352 1.373 . S
C354 C338 1.377 1_655 S
C354 C352 1.389 1_655 S
C354 C355 1.524 . S
C355 C354 1.524 . S
C355 C356 1.397 . S
C355 C360 1.363 . S
C356 H327 0.950 . S
C356 C355 1.397 . S
C356 C357 1.334 . S
C357 H328 0.950 . S
C357 C356 1.334 . S
C357 C358 1.287 . S
C358 C357 1.287 . S
C358 C359 1.524 . S
C358 H361 0.999 . S
C359 H329 0.950 . S
C359 C358 1.524 . S
C359 C360 1.415 . S
C360 H330 0.950 . S
C360 C355 1.363 . S
C360 C359 1.415 . S
H361 C358 0.999 . S
H362 C343 0.913 . S
H363 C381 0.951 . S
H364 C383 0.951 . S
H365 C385 0.950 . S
H366 C386 0.950 . S
H367 C388 0.950 . S
H368 C391 0.950 . S
H369 C392 0.950 . S
H370 C394 0.950 . S
H371 C395 0.950 . S
H372 C396 0.951 . S
H373 C398 0.951 . S
H374 C400 0.950 . S
H375 C401 0.950 . S
H376 C403 0.950 . S
H377 C406 0.950 . S
H378 C407 0.950 . S
H379 C409 0.950 . S
H380 C410 0.950 . S
C381 H363 0.951 . S
C381 C382 1.366 . S
C381 C383 1.388 . S
C382 C381 1.366 . S
C382 C386 1.385 . S
C383 H364 0.951 . S
C383 C381 1.388 . S
C383 C384 1.366 . S
C384 C383 1.366 . S
C384 C385 1.414 . S
C384 C387 1.499 . S
C385 H365 0.950 . S
C385 C384 1.414 . S
C385 C386 1.374 . S
C386 H366 0.950 . S
C386 C382 1.385 . S
C386 C385 1.374 . S
C387 C384 1.499 . S
C387 C388 1.373 . S
C387 C389 1.389 . S
C388 H367 0.950 . S
C388 C387 1.373 . S
C388 C404 1.377 . S
C389 C387 1.389 . S
C389 C390 1.524 . S
C389 C403 1.377 . S
C390 C389 1.524 . S
C390 C391 1.397 . S
C390 C395 1.363 . S
C391 H368 0.950 . S
C391 C390 1.397 . S
C391 C392 1.334 . S
C392 H369 0.950 . S
C392 C391 1.334 . S
C392 C393 1.287 . S
C393 C392 1.287 . S
C393 C394 1.524 . S
C393 H412 0.913 . S
C394 H370 0.950 . S
C394 C393 1.524 . S
C394 C395 1.415 . S
C395 H371 0.950 . S
C395 C390 1.363 . S
C395 C394 1.415 . S
C396 H372 0.951 . S
C396 C397 1.366 . S
C396 C398 1.388 . S
C397 C396 1.366 . S
C397 C401 1.385 . S
C398 H373 0.951 . S
C398 C396 1.388 . S
C398 C399 1.366 . S
C399 C398 1.366 . S
C399 C400 1.414 . S
C399 C402 1.499 . S
C400 H374 0.950 . S
C400 C399 1.414 . S
C400 C401 1.374 . S
C401 H375 0.950 . S
C401 C397 1.385 . S
C401 C400 1.374 . S
C402 C399 1.499 . S
C402 C403 1.373 . S
C402 C404 1.389 . S
C403 H376 0.950 . S
C403 C389 1.377 . S
C403 C402 1.373 . S
C404 C388 1.377 . S
C404 C402 1.389 . S
C404 C405 1.524 . S
C405 C404 1.524 . S
C405 C406 1.397 . S
C405 C410 1.363 . S
C406 H377 0.950 . S
C406 C405 1.397 . S
C406 C407 1.334 . S
C407 H378 0.950 . S
C407 C406 1.334 . S
C407 C408 1.287 . S
C408 C407 1.287 . S
C408 C409 1.524 1_545 S
C408 H411 0.999 1_545 S
C409 H379 0.950 . S
C409 C408 1.524 1_565 S
C409 C410 1.415 1_565 S
C410 H380 0.950 . S
C410 C405 1.363 . S
C410 C409 1.415 1_545 S
H411 C408 0.999 1_565 S
H412 C393 0.913 . S
H413 C431 0.951 . S
H414 C433 0.951 . S
H415 C435 0.950 . S
H416 C436 0.950 . S
H417 C438 0.950 . S
H418 C441 0.950 . S
H419 C442 0.950 . S
H420 C444 0.950 1_565 S
H421 C445 0.950 . S
H422 C446 0.951 . S
H423 C448 0.951 . S
H424 C450 0.950 1_665 S
H425 C451 0.950 1_665 S
H426 C453 0.950 1_655 S
H427 C456 0.950 . S
H428 C457 0.950 . S
H429 C459 0.950 . S
H430 C460 0.950 . S
C431 H413 0.951 . S
C431 C432 1.366 . S
C431 C433 1.388 . S
C432 C431 1.366 . S
C432 C436 1.385 . S
C433 H414 0.951 . S
C433 C431 1.388 . S
C433 C434 1.366 . S
C434 C433 1.366 . S
C434 C435 1.414 . S
C434 C437 1.499 . S
C435 H415 0.950 . S
C435 C434 1.414 . S
C435 C436 1.374 . S
C436 H416 0.950 . S
C436 C432 1.385 . S
C436 C435 1.374 . S
C437 C434 1.499 . S
C437 C438 1.373 . S
C437 C439 1.389 . S
C438 H417 0.950 . S
C438 C437 1.373 . S
C438 C454 1.377 . S
C439 C437 1.389 . S
C439 C440 1.524 1_455 S
C439 C453 1.377 . S
C440 C439 1.524 1_655 S
C440 C441 1.397 . S
C440 C445 1.363 . S
C441 H418 0.950 . S
C441 C440 1.397 . S
C441 C442 1.334 . S
C442 H419 0.950 . S
C442 C441 1.334 . S
C442 C443 1.287 . S
C443 C442 1.287 . S
C443 C444 1.524 . S
C443 H462 0.913 . S
C444 H420 0.950 1_545 S
C444 C443 1.524 . S
C444 C445 1.415 . S
C445 H421 0.950 . S
C445 C440 1.363 . S
C445 C444 1.415 . S
C446 H422 0.951 . S
C446 C447 1.366 . S
C446 C448 1.388 . S
C447 C446 1.366 . S
C447 C451 1.385 . S
C448 H423 0.951 . S
C448 C446 1.388 . S
C448 C449 1.366 . S
C449 C448 1.366 . S
C449 C450 1.414 . S
C449 C452 1.499 . S
C450 H424 0.950 1_445 S
C450 C449 1.414 . S
C450 C451 1.374 . S
C451 H425 0.950 1_445 S
C451 C447 1.385 . S
C451 C450 1.374 . S
C452 C449 1.499 . S
C452 C453 1.373 . S
C452 C454 1.389 . S
C453 H426 0.950 1_455 S
C453 C439 1.377 . S
C453 C452 1.373 . S
C454 C438 1.377 . S
C454 C452 1.389 . S
C454 C455 1.524 . S
C455 C454 1.524 . S
C455 C456 1.397 . S
C455 C460 1.363 . S
C456 H427 0.950 . S
C456 C455 1.397 . S
C456 C457 1.334 . S
C457 H428 0.950 . S
C457 C456 1.334 . S
C457 C458 1.287 . S
C458 C457 1.287 . S
C458 C459 1.524 . S
C458 H461 0.999 . S
C459 H429 0.950 . S
C459 C458 1.524 . S
C459 C460 1.415 . S
C460 H430 0.950 . S
C460 C455 1.363 . S
C460 C459 1.415 . S
H461 C458 0.999 . S
H462 C443 0.913 . S
H463 C481 0.951 1_565 S
H464 C483 0.951 . S
H465 C485 0.950 . S
H466 C486 0.950 . S
H467 C488 0.950 . S
H468 C491 0.950 1_455 S
H469 C492 0.950 . S
H470 C494 0.950 . S
H471 C495 0.950 1_455 S
H472 C496 0.951 . S
H473 C498 0.951 . S
H474 C500 0.950 . S
H475 C501 0.950 . S
H476 C503 0.950 . S
H477 C506 0.950 . S
H478 C507 0.950 . S
H479 C509 0.950 . S
H480 C510 0.950 . S
C481 H463 0.951 1_545 S
C481 C482 1.366 . S
C481 C483 1.388 . S
C482 C481 1.366 . S
C482 C486 1.385 . S
C483 H464 0.951 . S
C483 C481 1.388 . S
C483 C484 1.366 . S
C484 C483 1.366 . S
C484 C485 1.414 . S
C484 C487 1.499 . S
C485 H465 0.950 . S
C485 C484 1.414 . S
C485 C486 1.374 . S
C486 H466 0.950 . S
C486 C482 1.385 . S
C486 C485 1.374 . S
C487 C484 1.499 . S
C487 C488 1.373 . S
C487 C489 1.389 . S
C488 H467 0.950 . S
C488 C487 1.373 . S
C488 C504 1.377 . S
C489 C487 1.389 . S
C489 C490 1.524 . S
C489 C503 1.377 . S
C490 C489 1.524 . S
C490 C491 1.397 1_455 S
C490 C495 1.363 1_445 S
C491 H468 0.950 1_655 S
C491 C490 1.397 1_655 S
C491 C492 1.334 . S
C492 H469 0.950 . S
C492 C491 1.334 . S
C492 C493 1.287 1_545 S
C493 C492 1.287 1_565 S
C493 C494 1.524 . S
C493 H512 0.913 . S
C494 H470 0.950 . S
C494 C493 1.524 . S
C494 C495 1.415 . S
C495 H471 0.950 1_655 S
C495 C490 1.363 1_665 S
C495 C494 1.415 . S
C496 H472 0.951 . S
C496 C497 1.366 . S
C496 C498 1.388 . S
C497 C496 1.366 . S
C497 C501 1.385 . S
C498 H473 0.951 . S
C498 C496 1.388 . S
C498 C499 1.366 . S
C499 C498 1.366 . S
C499 C500 1.414 . S
C499 C502 1.499 . S
C500 H474 0.950 . S
C500 C499 1.414 . S
C500 C501 1.374 . S
C501 H475 0.950 . S
C501 C497 1.385 . S
C501 C500 1.374 . S
C502 C499 1.499 . S
C502 C503 1.373 . S
C502 C504 1.389 . S
C503 H476 0.950 . S
C503 C489 1.377 . S
C503 C502 1.373 . S
C504 C488 1.377 . S
C504 C502 1.389 . S
C504 C505 1.524 . S
C505 C504 1.524 . S
C505 C506 1.397 . S
C505 C510 1.363 . S
C506 H477 0.950 . S
C506 C505 1.397 . S
C506 C507 1.334 . S
C507 H478 0.950 . S
C507 C506 1.334 . S
C507 C508 1.287 . S
C508 C507 1.287 . S
C508 C509 1.524 . S
C508 H511 0.999 . S
C509 H479 0.950 . S
C509 C508 1.524 . S
C509 C510 1.415 . S
C510 H480 0.950 . S
C510 C505 1.363 . S
C510 C509 1.415 . S
H511 C508 0.999 . S
H512 C493 0.913 . S
C82 C19 0.890 . S
C97 C3 0.873 . S
C132 C37 0.896 . S
C147 C41 0.913 . S
C182 C62 0.917 . S
C197 C58 0.893 . S
C232 C61 0.890 . S
C247 C45 0.873 . S
C282 C16 0.891 . S
C297 C20 0.915 . S
C332 C40 0.914 . S
C347 C24 0.896 . S
C382 C25 1.356 . S
C397 C4 1.380 . S
C432 C28 1.356 . S
C447 C46 1.380 . S
C482 C49 1.342 . S
C497 C7 1.341 . S
