# Generated by pormake.
# Topology sxa, (6)-cn, num edge types: 1
# Building blocks:
#     Node 0, Type 0, BuildingBlock: MIFKUJ_clean_sbu_0, # of connection points: 6
#     Node 1, Type 0, BuildingBlock: MIFKUJ_clean_sbu_0, # of connection points: 6
#     Node 2, Type 0, BuildingBlock: MIFKUJ_clean_sbu_0, # of connection points: 6
#     Node 3, Type 0, BuildingBlock: MIFKUJ_clean_sbu_0, # of connection points: 6
#     Edge 4, Type (0, 0), BuildingBlock: CIFDUS_clean_linker_0, # of connection points: 2
#     Edge 5, Type (0, 0), BuildingBlock: CIFDUS_clean_linker_0, # of connection points: 2
#     Edge 6, Type (0, 0), BuildingBlock: CIFDUS_clean_linker_0, # of connection points: 2
#     Edge 7, Type (0, 0), BuildingBlock: CIFDUS_clean_linker_0, # of connection points: 2
#     Edge 8, Type (0, 0), BuildingBlock: CIFDUS_clean_linker_0, # of connection points: 2
#     Edge 9, Type (0, 0), BuildingBlock: CIFDUS_clean_linker_0, # of connection points: 2
#     Edge 10, Type (0, 0), BuildingBlock: CIFDUS_clean_linker_0, # of connection points: 2
#     Edge 11, Type (0, 0), BuildingBlock: CIFDUS_clean_linker_0, # of connection points: 2
#     Edge 12, Type (0, 0), BuildingBlock: CIFDUS_clean_linker_0, # of connection points: 2
#     Edge 13, Type (0, 0), BuildingBlock: CIFDUS_clean_linker_0, # of connection points: 2
#     Edge 14, Type (0, 0), BuildingBlock: CIFDUS_clean_linker_0, # of connection points: 2
#     Edge 15, Type (0, 0), BuildingBlock: CIFDUS_clean_linker_0, # of connection points: 2
# Relax obj value: 0.128
# Max RMSD: 0.258
# Mean RMSD: 0.258
data_MOF--net-sxa--node1-MIFKUJ_clean_sbu_0--edge1-CIFDUS_clean_linker_0
_symmetry_space_group_name_H-M    P1
_symmetry_Int_Tables_number       1
_symmetry_cell_setting            triclinic
loop_
_symmetry_equiv_pos_as_xyz
'x, y, z'
_cell_length_a     28.664888
_cell_length_b     22.636728
_cell_length_c     12.42207
_cell_angle_alpha  95.680122
_cell_angle_beta   88.580665
_cell_angle_gamma 90.205212
loop_
_atom_site_label
_atom_site_type_symbol
_atom_site_fract_x
_atom_site_fract_y
_atom_site_fract_z
_atom_type_partial_charge
Zn0 Zn 0.92442 0.78998 0.21799 0.0
Zn1 Zn 0.03434 0.80825 0.29156 0.0
C2 C 0.88154 0.73394 0.38372 0.0
O3 O 0.88788 0.69057 0.3063 0.0
C4 C 0.09195 0.84374 0.12043 0.0
O5 O 0.08858 0.89574 0.17727 0.0
O6 O 0.86398 0.7745 0.14942 0.0
O7 O 0.94477 0.8677 0.17726 0.0
O8 O 0.00092 0.88945 0.29339 0.0
C9 C 0.82937 0.80168 0.19657 0.0
O10 O 0.83662 0.84628 0.27034 0.0
O11 O 0.90305 0.7828 0.37476 0.0
C12 C 0.12276 0.78042 0.377 0.0
O13 O 0.12055 0.73874 0.29577 0.0
O14 O 0.08826 0.81573 0.39612 0.0
O15 O 0.0063 0.72456 0.29568 0.0
O16 O 0.9653 0.72664 0.14965 0.0
O17 O 0.06784 0.80075 0.14948 0.0
C18 C 0.97379 0.90424 0.22074 0.0
C19 C -0.00664 0.69997 0.20464 0.0
Zn20 Zn 0.43233 0.26394 0.21476 0.0
Zn21 Zn 0.56012 0.28872 0.25989 0.0
C22 C 0.36845 0.23856 0.37791 0.0
O23 O 0.36822 0.18961 0.31154 0.0
C24 C 0.57463 0.28902 1.02746 0.0
O25 O 0.53755 0.25492 1.01655 0.0
O26 O 0.37947 0.24478 0.11818 0.0
O27 O 0.46106 0.33488 0.15689 0.0
O28 O 0.51129 0.3547 0.28609 0.0
C29 C 0.34416 0.27837 0.13307 0.0
O30 O 0.34651 0.32648 0.20122 0.0
O31 O 0.39923 0.27791 0.36249 0.0
C32 C 0.65291 0.2792 0.34767 0.0
O33 O 0.6596 0.2449 0.25696 0.0
O34 O 0.61257 0.30175 0.36892 0.0
O35 O 0.54567 0.1992 0.22952 0.0
O36 O 0.47061 0.19111 0.19276 0.0
O37 O 0.58861 0.30715 0.1213 0.0
C38 C 0.49118 0.36917 0.20224 0.0
C39 C 0.51051 0.16788 0.19852 0.0
Zn40 Zn 0.92463 0.29268 0.86807 0.0
Zn41 Zn 0.03031 0.26992 0.7871 0.0
C42 C 0.88881 0.32828 0.67939 0.0
O43 O 0.88547 0.37668 0.74691 0.0
C44 C 0.08834 0.22275 0.93179 0.0
O45 O 0.08479 0.17744 0.85767 0.0
O46 O 0.85991 0.30834 0.92056 0.0
O47 O 0.94487 0.22061 0.92858 0.0
O48 O -0.0099 0.19354 0.7872 0.0
C49 C 0.82901 0.27608 0.8724 0.0
O50 O 0.8418 0.22891 0.80839 0.0
O51 O 0.91482 0.28645 0.7049 0.0
C52 C 0.12107 0.28423 0.68901 0.0
O53 O 0.12348 0.32497 0.77173 0.0
O54 O 0.08298 0.25557 0.67391 0.0
O55 O 0.01095 0.35828 0.79227 0.0
O56 O 0.96117 0.36023 0.92998 0.0
O57 O 0.06396 0.26865 0.92397 0.0
C58 C 0.96939 0.18153 0.87451 0.0
C59 C -0.00712 0.38497 0.87836 0.0
Zn60 Zn 0.42182 0.74034 0.8266 0.0
Zn61 Zn 0.55734 0.72958 0.82265 0.0
C62 C 0.36945 0.77828 0.66562 0.0
O63 O 0.37202 0.82432 0.73851 0.0
C64 C 0.60627 0.65983 0.96003 0.0
O65 O 0.60647 0.62072 0.87446 0.0
O66 O 0.36191 0.75034 0.90854 0.0
O67 O 0.44993 0.66857 0.88079 0.0
O68 O 0.51283 0.66211 0.77578 0.0
C69 C 0.33034 0.71202 0.88556 0.0
O70 O 0.34066 0.66339 0.82292 0.0
O71 O 0.3962 0.73414 0.67451 0.0
C72 C 0.64484 0.77324 0.74268 0.0
O73 O 0.63589 0.81376 0.82371 0.0
O74 O 0.615 0.73204 0.72128 0.0
O75 O 0.53336 0.81443 0.86563 0.0
O76 O 0.45591 0.81585 0.86804 0.0
O77 O 0.58315 0.70734 0.95809 0.0
C78 C 0.48717 0.64182 0.84877 0.0
C79 C 0.49482 0.84212 0.88228 0.0
H80 H 0.00368 0.42524 0.08672 0.0
H81 H 0.01219 0.48019 0.7643 0.0
H82 H 0.01914 0.5842 0.83986 0.0
H83 H 0.01161 0.65915 0.99739 0.0
H84 H 0.0035 0.60393 0.3197 0.0
H85 H 0.00839 0.49964 0.24464 0.0
C86 C 0.00789 0.46003 0.0331 0.0
C87 C 0.0067 0.44558 0.92024 0.0
C88 C 0.01161 0.51926 0.0772 0.0
C89 C 0.01296 0.4905 0.85128 0.0
C90 C 0.01659 0.54982 0.89457 0.0
C91 C 0.0118 0.62418 0.05116 0.0
C92 C 0.00649 0.63876 0.16373 0.0
C93 C 0.01428 0.56472 1.00728 0.0
C94 C 0.00753 0.59355 0.23295 0.0
C95 C 0.00995 0.53407 0.18992 0.0
H96 H 0.50801 0.3846 0.992 0.0
H97 H 0.49492 0.48079 0.30834 0.0
H98 H 0.49569 0.5751 0.22611 0.0
H99 H 0.49117 0.62887 0.06231 0.0
H100 H 0.51007 0.533 0.74707 0.0
H101 H 0.51678 0.43956 0.83043 0.0
C102 C 0.5064 0.42633 0.04299 0.0
C103 C 0.50106 0.42592 0.15604 0.0
C104 C 0.50755 0.48014 0.9951 0.0
C105 C 0.49921 0.48011 0.22134 0.0
C106 C 0.49931 0.53392 0.17417 0.0
C107 C 0.49754 0.58752 1.01222 0.0
C108 C 0.49956 0.58742 0.8987 0.0
C109 C 0.50209 0.53432 0.06098 0.0
C110 C 0.50841 0.53398 0.83445 0.0
C111 C 0.51197 0.48064 0.88215 0.0
H112 H 0.56414 0.90788 0.98936 0.0
H113 H 0.42225 0.91841 0.88295 0.0
H114 H 0.41451 1.01723 0.97649 0.0
H115 H 0.44612 0.09955 0.09038 0.0
H116 H 0.58835 0.09514 0.19552 0.0
H117 H 0.59745 0.99477 0.10217 0.0
C118 C 0.5318 0.93219 0.98551 0.0
C119 C 0.4938 0.90529 0.929 0.0
C120 C 0.52726 0.9897 0.04077 0.0
C121 C 0.45204 0.93749 0.92583 0.0
C122 C 0.44743 0.99412 0.97978 0.0
C123 C 0.47922 0.07685 0.09422 0.0
C124 C 0.51633 0.10503 0.15138 0.0
C125 C 0.48449 0.02028 0.03846 0.0
C126 C 0.55896 0.07453 0.15329 0.0
C127 C 0.56426 1.01723 0.09919 0.0
H128 H 0.97612 0.92059 1.00963 0.0
H129 H -0.01544 1.01562 0.32686 0.0
H130 H -0.01425 0.11034 0.24551 0.0
H131 H 0.97904 0.16536 0.0847 0.0
H132 H 0.97538 0.06998 0.76687 0.0
H133 H 0.97813 0.97538 0.84776 0.0
C134 C 0.97841 0.96215 0.06087 0.0
C135 C 0.97934 0.96153 0.17418 0.0
C136 C 0.97983 1.01588 1.01335 0.0
C137 C 0.98351 1.01525 0.23969 0.0
C138 C 0.98403 0.0692 0.19311 0.0
C139 C 0.97906 0.12377 0.03316 0.0
C140 C 0.97612 0.12433 0.92007 0.0
C141 C 0.98133 0.06997 0.08024 0.0
C142 C 0.97735 0.07046 0.85392 0.0
C143 C 0.97874 1.01655 0.90028 0.0
H144 H 0.29196 0.84688 0.68221 0.0
H145 H 0.35381 0.69615 0.49157 0.0
H146 H 0.28277 0.68365 0.38549 0.0
H147 H 0.20249 0.7144 0.3503 0.0
H148 H 0.14064 0.86331 0.54665 0.0
H149 H 0.2124 0.87715 0.6481 0.0
C150 C 0.29035 0.81165 0.61655 0.0
C151 C 0.32855 0.77289 0.59406 0.0
C152 C 0.24915 0.80399 0.55788 0.0
C153 C 0.32517 0.72687 0.51003 0.0
C154 C 0.28446 0.71959 0.44975 0.0
C155 C 0.2046 0.74988 0.41539 0.0
C156 C 0.166 0.78775 0.44073 0.0
C157 C 0.24608 0.75761 0.4736 0.0
C158 C 0.16959 0.83345 0.52534 0.0
C159 C 0.21071 0.84151 0.58325 0.0
H160 H 0.20737 0.33513 0.70596 0.0
H161 H 0.13026 0.19886 0.51769 0.0
H162 H 0.20052 0.17141 0.40925 0.0
H163 H 0.28345 0.18598 0.36747 0.0
H164 H 0.36055 0.32414 0.55031 0.0
H165 H 0.29065 0.35055 0.66229 0.0
C166 C 0.20581 0.2995 0.64103 0.0
C167 C 0.16337 0.26916 0.62014 0.0
C168 C 0.24643 0.28392 0.57877 0.0
C169 C 0.16224 0.2231 0.53562 0.0
C170 C 0.20249 0.20722 0.47371 0.0
C171 C 0.28527 0.22144 0.43269 0.0
C172 C 0.32747 0.25254 0.45143 0.0
C173 C 0.24477 0.23715 0.49487 0.0
C174 C 0.3287 0.29921 0.53472 0.0
C175 C 0.28867 0.31443 0.59844 0.0
H176 H 0.80243 0.37664 0.68711 0.0
H177 H 0.88922 0.24784 0.49825 0.0
H178 H 0.82382 0.22124 0.37883 0.0
H179 H 0.74144 0.23372 0.33062 0.0
H180 H 0.65422 0.35827 0.52914 0.0
H181 H 0.72021 0.38637 0.64386 0.0
C182 C 0.80742 0.34329 0.61891 0.0
C183 C 0.85109 0.31506 0.60038 0.0
C184 C 0.7693 0.32684 0.55342 0.0
C185 C 0.85626 0.27077 0.51344 0.0
C186 C 0.81876 0.25536 0.44563 0.0
C187 C 0.73679 0.26704 0.39895 0.0
C188 C 0.69275 0.29407 0.42047 0.0
C189 C 0.775 0.28287 0.46527 0.0
C190 C 0.68752 0.33677 0.51016 0.0
C191 C 0.72536 0.35309 0.57567 0.0
H192 H 0.83987 0.82403 0.51686 0.0
H193 H 0.82898 0.63659 0.41598 0.0
H194 H 0.75446 0.63226 0.51333 0.0
H195 H 0.69027 0.68207 0.62231 0.0
H196 H 0.70194 0.86868 0.72811 0.0
H197 H 0.77746 0.87283 0.63377 0.0
C198 C 0.82167 0.78201 0.51781 0.0
C199 C 0.84042 0.73075 0.45898 0.0
C200 C 0.77829 0.77973 0.57375 0.0
C201 C 0.81576 0.67686 0.46054 0.0
C202 C 0.7728 0.67431 0.51577 0.0
C203 C 0.70923 0.72369 0.62419 0.0
C204 C 0.69009 0.77507 0.68146 0.0
C205 C 0.7533 0.7256 0.57134 0.0
C206 C 0.71564 0.82842 0.68443 0.0
C207 C 0.759 0.83085 0.63062 0.0
H208 H 0.29353 0.82151 0.92379 0.0
H209 H 0.25776 0.63552 0.90568 0.0
H210 H 0.17691 0.66105 0.95858 0.0
H211 H 0.11953 0.73573 1.02776 0.0
H212 H 0.15639 0.92175 0.05162 0.0
H213 H 0.23367 0.8966 0.97385 0.0
C214 C 0.26804 0.78657 0.93184 0.0
C215 C 0.28155 0.72676 0.91427 0.0
C216 C 0.22195 0.80157 0.96156 0.0
C217 C 0.24807 0.68186 0.92089 0.0
C218 C 0.20196 0.69644 0.95058 0.0
C219 C 0.14408 0.77097 1.01408 0.0
C220 C 0.13268 0.83046 0.04765 0.0
C221 C 0.18886 0.75611 0.9734 0.0
C222 C 0.16459 0.87556 1.02773 0.0
C223 C 0.20888 0.8612 0.98421 0.0
H224 H 0.1706 0.16754 0.8906 0.0
H225 H 0.09903 0.2941 0.11916 0.0
H226 H 0.17299 0.3216 0.20488 0.0
H227 H 0.25836 0.31668 0.20176 0.0
H228 H 0.32983 0.19362 0.96623 0.0
H229 H 0.25517 0.1583 0.89448 0.0
C230 C 0.171 0.20001 0.96095 0.0
C231 C 0.1297 0.22883 0.99888 0.0
C232 C 0.21362 0.21737 1.00621 0.0
C233 C 0.13065 0.2714 0.08903 0.0
C234 C 0.17285 0.2875 0.13716 0.0
C235 C 0.25756 0.2824 0.13431 0.0
C236 C 0.29935 0.25847 0.08791 0.0
C237 C 0.21466 0.26225 0.09384 0.0
C238 C 0.29796 0.2131 1.00234 0.0
C239 C 0.25538 0.19268 0.96173 0.0
H240 H 0.63292 0.37884 1.00096 0.0
H241 H 0.59252 0.20598 0.8565 0.0
H242 H 0.67056 0.19092 0.77472 0.0
H243 H 0.75397 0.2151 0.79126 0.0
H244 H 0.79497 0.38237 0.96072 0.0
H245 H 0.71353 0.41113 0.98766 0.0
C246 C 0.64087 0.33891 0.94785 0.0
C247 C 0.6082 0.29267 0.93771 0.0
C248 C 0.68659 0.32848 0.91021 0.0
C249 C 0.61768 0.24182 0.86658 0.0
C250 C 0.66257 0.23271 0.82181 0.0
C251 C 0.74502 0.25805 0.83308 0.0
C252 C 0.78013 0.29544 0.87824 0.0
C253 C 0.69808 0.2736 0.85113 0.0
C254 C 0.76834 0.35181 0.92904 0.0
C255 C 0.72184 0.3686 0.94346 0.0
H256 H 0.80748 0.69275 0.103 0.0
H257 H 0.74652 0.85255 0.2659 0.0
H258 H 0.66844 0.81189 0.23432 0.0
H259 H 0.61907 0.73923 0.13383 0.0
H260 H 0.68075 0.58412 0.95603 0.0
H261 H 0.75705 0.61276 1.02681 0.0
C262 C 0.77711 0.71872 0.13168 0.0
C263 C 0.78247 0.77646 0.18279 0.0
C264 C 0.73263 0.69538 0.11248 0.0
C265 C 0.74304 0.80864 0.22351 0.0
C266 C 0.69851 0.78526 0.20631 0.0
C267 C 0.64899 0.71079 0.11277 0.0
C268 C 0.64485 0.66117 0.03605 0.0
C269 C 0.69302 0.72971 0.14721 0.0
C270 C 0.68333 0.62342 1.01289 0.0
C271 C 0.72708 0.64025 0.05197 0.0
loop_
_geom_bond_atom_site_label_1
_geom_bond_atom_site_label_2
_geom_bond_distance
_geom_bond_site_symmetry_2
_ccdc_geom_bond_type
Zn0 O6 1.969 . S
Zn0 O7 1.965 . S
Zn0 O11 2.024 . S
Zn0 O16 1.969 . S
Zn1 O8 1.969 . S
Zn1 O14 1.969 . S
Zn1 O15 1.965 . S
Zn1 O17 2.024 . S
C2 O3 1.229 . S
C2 O11 1.058 . S
O3 C2 1.229 . S
C4 O5 1.229 . S
C4 O17 1.058 . S
O5 C4 1.229 . S
O6 Zn0 1.969 . S
O6 C9 1.267 . S
O7 Zn0 1.965 . S
O7 C18 1.260 1_655 S
O8 Zn1 1.969 . S
O8 C18 1.258 . S
C9 O6 1.267 . S
C9 O10 1.228 . S
O10 C9 1.228 . S
O11 Zn0 2.024 . S
O11 C2 1.058 . S
C12 O13 1.228 . S
C12 O14 1.267 . S
O13 C12 1.228 . S
O14 Zn1 1.969 . S
O14 C12 1.267 . S
O15 Zn1 1.965 . S
O15 C19 1.260 . S
O16 Zn0 1.969 . S
O16 C19 1.257 1_655 S
O17 Zn1 2.024 . S
O17 C4 1.058 . S
C18 O7 1.260 1_455 S
C18 O8 1.258 . S
C19 O15 1.260 . S
C19 O16 1.257 1_455 S
Zn20 O26 1.969 . S
Zn20 O27 1.965 . S
Zn20 O31 2.024 . S
Zn20 O36 1.969 . S
Zn21 O28 1.969 . S
Zn21 O34 1.969 . S
Zn21 O35 1.965 . S
Zn21 O37 2.024 . S
C22 O23 1.229 . S
C22 O31 1.058 . S
O23 C22 1.229 . S
C24 O25 1.229 . S
C24 O37 1.058 . S
O25 C24 1.229 . S
O26 Zn20 1.969 . S
O26 C29 1.267 . S
O27 Zn20 1.965 . S
O27 C38 1.260 . S
O28 Zn21 1.969 . S
O28 C38 1.258 . S
C29 O26 1.267 . S
C29 O30 1.228 . S
O30 C29 1.228 . S
O31 Zn20 2.024 . S
O31 C22 1.058 . S
C32 O33 1.228 . S
C32 O34 1.267 . S
O33 C32 1.228 . S
O34 Zn21 1.969 . S
O34 C32 1.267 . S
O35 Zn21 1.965 . S
O35 C39 1.260 . S
O36 Zn20 1.969 . S
O36 C39 1.258 . S
O37 Zn21 2.024 . S
O37 C24 1.058 . S
C38 O27 1.260 . S
C38 O28 1.258 . S
C39 O35 1.260 . S
C39 O36 1.258 . S
Zn40 O46 1.969 . S
Zn40 O47 1.965 . S
Zn40 O51 2.024 . S
Zn40 O56 1.969 . S
Zn41 O48 1.969 . S
Zn41 O54 1.969 . S
Zn41 O55 1.965 . S
Zn41 O57 2.024 . S
C42 O43 1.229 . S
C42 O51 1.058 . S
O43 C42 1.229 . S
C44 O45 1.229 . S
C44 O57 1.058 . S
O45 C44 1.229 . S
O46 Zn40 1.969 . S
O46 C49 1.267 . S
O47 Zn40 1.965 . S
O47 C58 1.260 1_655 S
O48 Zn41 1.969 . S
O48 C58 1.258 . S
C49 O46 1.267 . S
C49 O50 1.228 . S
O50 C49 1.228 . S
O51 Zn40 2.024 . S
O51 C42 1.058 . S
C52 O53 1.228 . S
C52 O54 1.267 . S
O53 C52 1.228 . S
O54 Zn41 1.969 . S
O54 C52 1.267 . S
O55 Zn41 1.965 . S
O55 C59 1.261 . S
O56 Zn40 1.969 . S
O56 C59 1.257 1_655 S
O57 Zn41 2.024 . S
O57 C44 1.058 . S
C58 O47 1.260 1_455 S
C58 O48 1.258 . S
C59 O55 1.261 . S
C59 O56 1.257 1_455 S
Zn60 O66 1.969 . S
Zn60 O67 1.965 . S
Zn60 O71 2.024 . S
Zn60 O76 1.969 . S
Zn61 O68 1.969 . S
Zn61 O74 1.969 . S
Zn61 O75 1.965 . S
Zn61 O77 2.024 . S
C62 O63 1.229 . S
C62 O71 1.058 . S
O63 C62 1.229 . S
C64 O65 1.229 . S
C64 O77 1.058 . S
O65 C64 1.229 . S
O66 Zn60 1.969 . S
O66 C69 1.267 . S
O67 Zn60 1.965 . S
O67 C78 1.260 . S
O68 Zn61 1.969 . S
O68 C78 1.258 . S
C69 O66 1.267 . S
C69 O70 1.228 . S
O70 C69 1.228 . S
O71 Zn60 2.024 . S
O71 C62 1.058 . S
C72 O73 1.228 . S
C72 O74 1.267 . S
O73 C72 1.228 . S
O74 Zn61 1.969 . S
O74 C72 1.267 . S
O75 Zn61 1.965 . S
O75 C79 1.260 . S
O76 Zn60 1.969 . S
O76 C79 1.258 . S
O77 Zn61 2.024 . S
O77 C64 1.058 . S
C78 O67 1.260 . S
C78 O68 1.258 . S
C79 O75 1.260 . S
C79 O76 1.258 . S
H80 C86 0.930 1_554 S
H81 C89 0.930 . S
H82 C90 0.930 . S
H83 C91 0.930 1_556 S
H84 C94 0.930 . S
H85 C95 0.930 . S
C86 H80 0.930 1_556 S
C86 C87 1.355 . S
C86 C88 1.415 1_556 S
C87 C86 1.355 . S
C87 C89 1.419 . S
C88 C86 1.415 1_554 S
C88 C93 1.425 1_554 S
C88 C95 1.409 . S
C89 H81 0.930 . S
C89 C87 1.419 . S
C89 C90 1.362 . S
C90 H82 0.930 . S
C90 C89 1.362 . S
C90 C93 1.409 . S
C91 H83 0.930 1_554 S
C91 C92 1.355 . S
C91 C93 1.415 1_554 S
C92 C91 1.355 . S
C92 C94 1.419 . S
C93 C88 1.425 1_556 S
C93 C90 1.409 . S
C93 C91 1.415 1_556 S
C94 H84 0.930 . S
C94 C92 1.419 . S
C94 C95 1.362 . S
C95 H85 0.930 . S
C95 C88 1.409 . S
C95 C94 1.362 . S
H96 C102 0.930 1_556 S
H97 C105 0.930 . S
H98 C106 0.930 . S
H99 C107 0.930 1_554 S
H100 C110 0.930 . S
H101 C111 0.930 . S
C102 H96 0.930 1_554 S
C102 C103 1.355 . S
C102 C104 1.415 1_554 S
C103 C102 1.355 . S
C103 C105 1.419 . S
C104 C102 1.415 1_556 S
C104 C109 1.425 1_556 S
C104 C111 1.409 . S
C105 H97 0.930 . S
C105 C103 1.419 . S
C105 C106 1.362 . S
C106 H98 0.930 . S
C106 C105 1.362 . S
C106 C109 1.409 . S
C107 H99 0.930 1_556 S
C107 C108 1.355 . S
C107 C109 1.415 1_556 S
C108 C107 1.355 . S
C108 C110 1.419 . S
C109 C104 1.425 1_554 S
C109 C106 1.409 . S
C109 C107 1.415 1_554 S
C110 H100 0.930 . S
C110 C108 1.419 . S
C110 C111 1.362 . S
C111 H101 0.930 . S
C111 C104 1.409 . S
C111 C110 1.362 . S
H112 C118 0.930 . S
H113 C121 0.930 . S
H114 C122 0.930 . S
H115 C123 0.930 . S
H116 C126 0.930 . S
H117 C127 0.930 . S
C118 H112 0.930 . S
C118 C119 1.355 . S
C118 C120 1.415 . S
C119 C118 1.355 . S
C119 C121 1.419 . S
C120 C118 1.415 . S
C120 C125 1.425 1_566 S
C120 C127 1.409 1_565 S
C121 H113 0.930 . S
C121 C119 1.419 . S
C121 C122 1.362 1_556 S
C122 H114 0.930 . S
C122 C121 1.362 1_554 S
C122 C125 1.409 1_565 S
C123 H115 0.930 . S
C123 C124 1.355 . S
C123 C125 1.415 . S
C124 C123 1.355 . S
C124 C126 1.419 . S
C125 C120 1.425 1_544 S
C125 C122 1.409 1_545 S
C125 C123 1.415 . S
C126 H116 0.930 . S
C126 C124 1.419 . S
C126 C127 1.362 1_554 S
C127 H117 0.930 . S
C127 C120 1.409 1_545 S
C127 C126 1.362 1_556 S
H128 C134 0.930 1_556 S
H129 C137 0.930 . S
H130 C138 0.930 . S
H131 C139 0.930 1_554 S
H132 C142 0.930 . S
H133 C143 0.930 . S
C134 H128 0.930 1_554 S
C134 C135 1.355 1_455 S
C134 C136 1.415 1_554 S
C135 C134 1.355 1_655 S
C135 C137 1.419 . S
C136 C134 1.415 1_556 S
C136 C141 1.425 1_466 S
C136 C143 1.409 . S
C137 H129 0.930 . S
C137 C135 1.419 . S
C137 C138 1.362 1_565 S
C138 H130 0.930 . S
C138 C137 1.362 1_545 S
C138 C141 1.409 . S
C139 H131 0.930 1_556 S
C139 C140 1.355 . S
C139 C141 1.415 1_556 S
C140 C139 1.355 . S
C140 C142 1.419 1_655 S
C141 C136 1.425 1_644 S
C141 C138 1.409 . S
C141 C139 1.415 1_554 S
C142 H132 0.930 . S
C142 C140 1.419 1_455 S
C142 C143 1.362 1_545 S
C143 H133 0.930 . S
C143 C136 1.409 . S
C143 C142 1.362 1_565 S
H144 C150 0.930 . S
H145 C153 0.930 . S
H146 C154 0.930 . S
H147 C155 0.930 . S
H148 C158 0.930 . S
H149 C159 0.930 . S
C150 H144 0.930 . S
C150 C151 1.355 . S
C150 C152 1.415 . S
C151 C150 1.355 . S
C151 C153 1.419 . S
C152 C150 1.415 . S
C152 C157 1.425 . S
C152 C159 1.409 . S
C153 H145 0.930 . S
C153 C151 1.419 . S
C153 C154 1.362 . S
C154 H146 0.930 . S
C154 C153 1.362 . S
C154 C157 1.409 . S
C155 H147 0.930 . S
C155 C156 1.355 . S
C155 C157 1.415 . S
C156 C155 1.355 . S
C156 C158 1.419 . S
C157 C152 1.425 . S
C157 C154 1.409 . S
C157 C155 1.415 . S
C158 H148 0.930 . S
C158 C156 1.419 . S
C158 C159 1.362 . S
C159 H149 0.930 . S
C159 C152 1.409 . S
C159 C158 1.362 . S
H160 C166 0.930 . S
H161 C169 0.930 . S
H162 C170 0.930 . S
H163 C171 0.930 . S
H164 C174 0.930 . S
H165 C175 0.930 . S
C166 H160 0.930 . S
C166 C167 1.355 . S
C166 C168 1.415 . S
C167 C166 1.355 . S
C167 C169 1.419 . S
C168 C166 1.415 . S
C168 C173 1.425 . S
C168 C175 1.409 . S
C169 H161 0.930 . S
C169 C167 1.419 . S
C169 C170 1.362 . S
C170 H162 0.930 . S
C170 C169 1.362 . S
C170 C173 1.409 . S
C171 H163 0.930 . S
C171 C172 1.355 . S
C171 C173 1.415 . S
C172 C171 1.355 . S
C172 C174 1.419 . S
C173 C168 1.425 . S
C173 C170 1.409 . S
C173 C171 1.415 . S
C174 H164 0.930 . S
C174 C172 1.419 . S
C174 C175 1.362 . S
C175 H165 0.930 . S
C175 C168 1.409 . S
C175 C174 1.362 . S
H176 C182 0.930 . S
H177 C185 0.930 . S
H178 C186 0.930 . S
H179 C187 0.930 . S
H180 C190 0.930 . S
H181 C191 0.930 . S
C182 H176 0.930 . S
C182 C183 1.355 . S
C182 C184 1.415 . S
C183 C182 1.355 . S
C183 C185 1.419 . S
C184 C182 1.415 . S
C184 C189 1.425 . S
C184 C191 1.409 . S
C185 H177 0.930 . S
C185 C183 1.419 . S
C185 C186 1.362 . S
C186 H178 0.930 . S
C186 C185 1.362 . S
C186 C189 1.409 . S
C187 H179 0.930 . S
C187 C188 1.355 . S
C187 C189 1.415 . S
C188 C187 1.355 . S
C188 C190 1.419 . S
C189 C184 1.425 . S
C189 C186 1.409 . S
C189 C187 1.415 . S
C190 H180 0.930 . S
C190 C188 1.419 . S
C190 C191 1.362 . S
C191 H181 0.930 . S
C191 C184 1.409 . S
C191 C190 1.362 . S
H192 C198 0.930 . S
H193 C201 0.930 . S
H194 C202 0.930 . S
H195 C203 0.930 . S
H196 C206 0.930 . S
H197 C207 0.930 . S
C198 H192 0.930 . S
C198 C199 1.355 . S
C198 C200 1.415 . S
C199 C198 1.355 . S
C199 C201 1.419 . S
C200 C198 1.415 . S
C200 C205 1.425 . S
C200 C207 1.409 . S
C201 H193 0.930 . S
C201 C199 1.419 . S
C201 C202 1.362 . S
C202 H194 0.930 . S
C202 C201 1.362 . S
C202 C205 1.409 . S
C203 H195 0.930 . S
C203 C204 1.355 . S
C203 C205 1.415 . S
C204 C203 1.355 . S
C204 C206 1.419 . S
C205 C200 1.425 . S
C205 C202 1.409 . S
C205 C203 1.415 . S
C206 H196 0.930 . S
C206 C204 1.419 . S
C206 C207 1.362 . S
C207 H197 0.930 . S
C207 C200 1.409 . S
C207 C206 1.362 . S
H208 C214 0.930 . S
H209 C217 0.930 . S
H210 C218 0.930 . S
H211 C219 0.930 . S
H212 C222 0.930 . S
H213 C223 0.930 . S
C214 H208 0.930 . S
C214 C215 1.355 1_556 S
C214 C216 1.415 . S
C215 C214 1.355 1_554 S
C215 C217 1.419 . S
C216 C214 1.415 . S
C216 C221 1.425 1_556 S
C216 C223 1.409 . S
C217 H209 0.930 . S
C217 C215 1.419 . S
C217 C218 1.362 . S
C218 H210 0.930 . S
C218 C217 1.362 . S
C218 C221 1.409 . S
C219 H211 0.930 . S
C219 C220 1.355 1_554 S
C219 C221 1.415 . S
C220 C219 1.355 1_556 S
C220 C222 1.419 . S
C221 C216 1.425 1_554 S
C221 C218 1.409 . S
C221 C219 1.415 . S
C222 H212 0.930 . S
C222 C220 1.419 . S
C222 C223 1.362 . S
C223 H213 0.930 . S
C223 C216 1.409 . S
C223 C222 1.362 . S
H224 C230 0.930 . S
H225 C233 0.930 . S
H226 C234 0.930 . S
H227 C235 0.930 . S
H228 C238 0.930 . S
H229 C239 0.930 . S
C230 H224 0.930 . S
C230 C231 1.355 . S
C230 C232 1.415 . S
C231 C230 1.355 . S
C231 C233 1.419 1_554 S
C232 C230 1.415 . S
C232 C237 1.425 1_554 S
C232 C239 1.409 . S
C233 H225 0.930 . S
C233 C231 1.419 1_556 S
C233 C234 1.362 . S
C234 H226 0.930 . S
C234 C233 1.362 . S
C234 C237 1.409 . S
C235 H227 0.930 . S
C235 C236 1.355 . S
C235 C237 1.415 . S
C236 C235 1.355 . S
C236 C238 1.419 1_556 S
C237 C232 1.425 1_556 S
C237 C234 1.409 . S
C237 C235 1.415 . S
C238 H228 0.930 . S
C238 C236 1.419 1_554 S
C238 C239 1.362 . S
C239 H229 0.930 . S
C239 C232 1.409 . S
C239 C238 1.362 . S
H240 C246 0.930 . S
H241 C249 0.930 . S
H242 C250 0.930 . S
H243 C251 0.930 . S
H244 C254 0.930 . S
H245 C255 0.930 . S
C246 H240 0.930 . S
C246 C247 1.355 1_556 S
C246 C248 1.415 . S
C247 C246 1.355 1_554 S
C247 C249 1.419 . S
C248 C246 1.415 . S
C248 C253 1.425 1_556 S
C248 C255 1.409 . S
C249 H241 0.930 . S
C249 C247 1.419 . S
C249 C250 1.362 . S
C250 H242 0.930 . S
C250 C249 1.362 . S
C250 C253 1.409 . S
C251 H243 0.930 . S
C251 C252 1.355 . S
C251 C253 1.415 . S
C252 C251 1.355 . S
C252 C254 1.419 1_554 S
C253 C248 1.425 1_554 S
C253 C250 1.409 . S
C253 C251 1.415 . S
C254 H244 0.930 . S
C254 C252 1.419 1_556 S
C254 C255 1.362 . S
C255 H245 0.930 . S
C255 C248 1.409 . S
C255 C254 1.362 . S
H256 C262 0.930 . S
H257 C265 0.930 1_554 S
H258 C266 0.930 . S
H259 C267 0.930 . S
H260 C270 0.930 . S
H261 C271 0.930 . S
C262 H256 0.930 . S
C262 C263 1.355 . S
C262 C264 1.415 . S
C263 C262 1.355 . S
C263 C265 1.419 . S
C264 C262 1.415 . S
C264 C269 1.425 1_556 S
C264 C271 1.409 . S
C265 H257 0.930 1_556 S
C265 C263 1.419 . S
C265 C266 1.362 1_556 S
C266 H258 0.930 . S
C266 C265 1.362 1_554 S
C266 C269 1.409 . S
C267 H259 0.930 . S
C267 C268 1.355 . S
C267 C269 1.415 . S
C268 C267 1.355 . S
C268 C270 1.419 1_554 S
C269 C264 1.425 1_554 S
C269 C266 1.409 . S
C269 C267 1.415 . S
C270 H260 0.930 . S
C270 C268 1.419 1_556 S
C270 C271 1.362 . S
C271 H261 0.930 . S
C271 C264 1.409 . S
C271 C270 1.362 . S
C87 C59 1.854 . S
C92 C19 1.866 . S
C103 C38 2.170 . S
C108 C78 2.173 . S
C119 C79 1.808 . S
C124 C39 1.832 . S
C135 C18 2.170 1_655 S
C140 C58 2.173 1_655 S
C151 C62 1.484 . S
C156 C12 1.522 . S
C167 C52 1.482 . S
C172 C22 1.425 . S
C183 C42 1.409 . S
C188 C32 1.470 . S
C199 C2 1.392 . S
C204 C72 1.457 . S
C215 C69 1.051 1_554 S
C220 C4 1.002 1_556 S
C231 C44 0.924 1_554 S
C236 C29 0.978 1_556 S
C247 C24 0.829 . S
C252 C49 0.898 1_554 S
C263 C9 0.989 1_556 S
C268 C64 0.930 1_554 S
