# Generated by pormake.
# Topology whw, (6)-cn, num edge types: 1
# Building blocks:
#     Node 0, Type 0, BuildingBlock: INOVEN_clean_sbu_0, # of connection points: 6
#     Node 1, Type 0, BuildingBlock: INOVEN_clean_sbu_0, # of connection points: 6
#     Node 2, Type 0, BuildingBlock: INOVEN_clean_sbu_0, # of connection points: 6
#     Node 3, Type 0, BuildingBlock: INOVEN_clean_sbu_0, # of connection points: 6
#     Node 4, Type 0, BuildingBlock: INOVEN_clean_sbu_0, # of connection points: 6
#     Node 5, Type 0, BuildingBlock: INOVEN_clean_sbu_0, # of connection points: 6
#     Node 6, Type 0, BuildingBlock: INOVEN_clean_sbu_0, # of connection points: 6
#     Node 7, Type 0, BuildingBlock: INOVEN_clean_sbu_0, # of connection points: 6
#     Node 8, Type 0, BuildingBlock: INOVEN_clean_sbu_0, # of connection points: 6
#     Node 9, Type 0, BuildingBlock: INOVEN_clean_sbu_0, # of connection points: 6
#     Node 10, Type 0, BuildingBlock: INOVEN_clean_sbu_0, # of connection points: 6
#     Node 11, Type 0, BuildingBlock: INOVEN_clean_sbu_0, # of connection points: 6
#     Node 12, Type 0, BuildingBlock: INOVEN_clean_sbu_0, # of connection points: 6
#     Node 13, Type 0, BuildingBlock: INOVEN_clean_sbu_0, # of connection points: 6
#     Node 14, Type 0, BuildingBlock: INOVEN_clean_sbu_0, # of connection points: 6
#     Node 15, Type 0, BuildingBlock: INOVEN_clean_sbu_0, # of connection points: 6
#     Edge 16, Type (0, 0), BuildingBlock: MIFKUJ_clean_linker_0, # of connection points: 2
#     Edge 17, Type (0, 0), BuildingBlock: MIFKUJ_clean_linker_0, # of connection points: 2
#     Edge 18, Type (0, 0), BuildingBlock: MIFKUJ_clean_linker_0, # of connection points: 2
#     Edge 19, Type (0, 0), BuildingBlock: MIFKUJ_clean_linker_0, # of connection points: 2
#     Edge 20, Type (0, 0), BuildingBlock: MIFKUJ_clean_linker_0, # of connection points: 2
#     Edge 21, Type (0, 0), BuildingBlock: MIFKUJ_clean_linker_0, # of connection points: 2
#     Edge 22, Type (0, 0), BuildingBlock: MIFKUJ_clean_linker_0, # of connection points: 2
#     Edge 23, Type (0, 0), BuildingBlock: MIFKUJ_clean_linker_0, # of connection points: 2
#     Edge 24, Type (0, 0), BuildingBlock: MIFKUJ_clean_linker_0, # of connection points: 2
#     Edge 25, Type (0, 0), BuildingBlock: MIFKUJ_clean_linker_0, # of connection points: 2
#     Edge 26, Type (0, 0), BuildingBlock: MIFKUJ_clean_linker_0, # of connection points: 2
#     Edge 27, Type (0, 0), BuildingBlock: MIFKUJ_clean_linker_0, # of connection points: 2
#     Edge 28, Type (0, 0), BuildingBlock: MIFKUJ_clean_linker_0, # of connection points: 2
#     Edge 29, Type (0, 0), BuildingBlock: MIFKUJ_clean_linker_0, # of connection points: 2
#     Edge 30, Type (0, 0), BuildingBlock: MIFKUJ_clean_linker_0, # of connection points: 2
#     Edge 31, Type (0, 0), BuildingBlock: MIFKUJ_clean_linker_0, # of connection points: 2
#     Edge 32, Type (0, 0), BuildingBlock: MIFKUJ_clean_linker_0, # of connection points: 2
#     Edge 33, Type (0, 0), BuildingBlock: MIFKUJ_clean_linker_0, # of connection points: 2
#     Edge 34, Type (0, 0), BuildingBlock: MIFKUJ_clean_linker_0, # of connection points: 2
#     Edge 35, Type (0, 0), BuildingBlock: MIFKUJ_clean_linker_0, # of connection points: 2
#     Edge 36, Type (0, 0), BuildingBlock: MIFKUJ_clean_linker_0, # of connection points: 2
#     Edge 37, Type (0, 0), BuildingBlock: MIFKUJ_clean_linker_0, # of connection points: 2
#     Edge 38, Type (0, 0), BuildingBlock: MIFKUJ_clean_linker_0, # of connection points: 2
#     Edge 39, Type (0, 0), BuildingBlock: MIFKUJ_clean_linker_0, # of connection points: 2
#     Edge 40, Type (0, 0), BuildingBlock: MIFKUJ_clean_linker_0, # of connection points: 2
#     Edge 41, Type (0, 0), BuildingBlock: MIFKUJ_clean_linker_0, # of connection points: 2
#     Edge 42, Type (0, 0), BuildingBlock: MIFKUJ_clean_linker_0, # of connection points: 2
#     Edge 43, Type (0, 0), BuildingBlock: MIFKUJ_clean_linker_0, # of connection points: 2
#     Edge 44, Type (0, 0), BuildingBlock: MIFKUJ_clean_linker_0, # of connection points: 2
#     Edge 45, Type (0, 0), BuildingBlock: MIFKUJ_clean_linker_0, # of connection points: 2
#     Edge 46, Type (0, 0), BuildingBlock: MIFKUJ_clean_linker_0, # of connection points: 2
#     Edge 47, Type (0, 0), BuildingBlock: MIFKUJ_clean_linker_0, # of connection points: 2
#     Edge 48, Type (0, 0), BuildingBlock: MIFKUJ_clean_linker_0, # of connection points: 2
#     Edge 49, Type (0, 0), BuildingBlock: MIFKUJ_clean_linker_0, # of connection points: 2
#     Edge 50, Type (0, 0), BuildingBlock: MIFKUJ_clean_linker_0, # of connection points: 2
#     Edge 51, Type (0, 0), BuildingBlock: MIFKUJ_clean_linker_0, # of connection points: 2
#     Edge 52, Type (0, 0), BuildingBlock: MIFKUJ_clean_linker_0, # of connection points: 2
#     Edge 53, Type (0, 0), BuildingBlock: MIFKUJ_clean_linker_0, # of connection points: 2
#     Edge 54, Type (0, 0), BuildingBlock: MIFKUJ_clean_linker_0, # of connection points: 2
#     Edge 55, Type (0, 0), BuildingBlock: MIFKUJ_clean_linker_0, # of connection points: 2
#     Edge 56, Type (0, 0), BuildingBlock: MIFKUJ_clean_linker_0, # of connection points: 2
#     Edge 57, Type (0, 0), BuildingBlock: MIFKUJ_clean_linker_0, # of connection points: 2
#     Edge 58, Type (0, 0), BuildingBlock: MIFKUJ_clean_linker_0, # of connection points: 2
#     Edge 59, Type (0, 0), BuildingBlock: MIFKUJ_clean_linker_0, # of connection points: 2
#     Edge 60, Type (0, 0), BuildingBlock: MIFKUJ_clean_linker_0, # of connection points: 2
#     Edge 61, Type (0, 0), BuildingBlock: MIFKUJ_clean_linker_0, # of connection points: 2
#     Edge 62, Type (0, 0), BuildingBlock: MIFKUJ_clean_linker_0, # of connection points: 2
#     Edge 63, Type (0, 0), BuildingBlock: MIFKUJ_clean_linker_0, # of connection points: 2
# Relax obj value: 0.353
# Max RMSD: 0.212
# Mean RMSD: 0.197
data_MOF--net-whw--node1-INOVEN_clean_sbu_0--edge1-MIFKUJ_clean_linker_0
_symmetry_space_group_name_H-M    P1
_symmetry_Int_Tables_number       1
_symmetry_cell_setting            triclinic
loop_
_symmetry_equiv_pos_as_xyz
'x, y, z'
_cell_length_a     60.277927
_cell_length_b     59.906264
_cell_length_c     42.347374
_cell_angle_alpha  90.114679
_cell_angle_beta   80.943483
_cell_angle_gamma 98.024396
loop_
_atom_site_label
_atom_site_type_symbol
_atom_site_fract_x
_atom_site_fract_y
_atom_site_fract_z
_atom_type_partial_charge
Gd0 Gd 0.04557 0.12566 0.16196 0.0
Gd1 Gd 0.02437 0.13848 0.09929 0.0
C2 C -0.00738 0.13294 0.16928 0.0
C3 C 0.06027 0.12514 0.21747 0.0
C4 C 0.06187 0.13397 0.25101 0.0
C5 C 0.0745 0.15498 0.25601 0.0
C6 C 0.05351 0.12011 0.27842 0.0
C7 C 0.07076 0.14781 0.31443 0.0
C8 C 0.05783 0.12683 0.30932 0.0
C9 C 0.07866 0.16183 0.28686 0.0
C10 C 0.03608 0.09093 0.12207 0.0
C11 C 0.07686 0.13243 0.09297 0.0
C12 C 0.00203 0.14281 0.0515 0.0
C13 C -0.00122 0.15347 1.02023 0.0
C14 C 0.98332 0.16915 1.02041 0.0
C15 C 0.00837 0.14626 0.99 0.0
C16 C 0.98673 0.16976 0.9614 0.0
C17 C 0.00261 0.15433 0.96125 0.0
C18 C 0.97743 0.17707 0.99183 0.0
C19 C 0.04964 0.17206 0.12635 0.0
O20 O 0.01061 0.13137 0.18292 0.0
O21 O -0.00668 0.13418 0.13786 0.0
O22 O 0.04213 0.11212 0.21128 0.0
O23 O 0.07042 0.13761 0.19261 0.0
O24 O 0.05136 0.09203 0.14074 0.0
O25 O 0.02465 0.10716 0.12785 0.0
O26 O 0.05843 0.12889 0.07908 0.0
O27 O 0.07617 0.13556 0.12415 0.0
O28 O 0.0 0.15461 0.07764 0.0
O29 O 0.01618 0.12803 0.0521 0.0
O30 O 0.04702 0.17249 0.09655 0.0
O31 O 0.03657 0.15579 0.1406 0.0
H32 H 0.08164 0.1661 0.23587 0.0
H33 H 0.04416 0.10358 0.27586 0.0
H34 H 0.05152 0.11503 0.32903 0.0
H35 H 0.08817 0.17833 0.2888 0.0
H36 H 0.97506 0.17485 0.04296 0.0
H37 H 0.02009 0.13401 0.98848 0.0
H38 H 0.01069 0.1483 0.93886 0.0
H39 H 0.96487 0.18845 0.99398 0.0
Gd40 Gd 0.13292 0.74152 0.45165 0.0
Gd41 Gd 0.12803 0.6933 0.42966 0.0
C42 C 0.12876 0.69993 0.50528 0.0
C43 C 0.13545 0.77945 0.48111 0.0
C44 C 0.13241 0.78705 0.51431 0.0
C45 C 0.14207 0.80882 0.52126 0.0
C46 C 0.12109 0.77246 0.5394 0.0
C47 C 0.12853 0.80152 0.57792 0.0
C48 C 0.11891 0.77972 0.57093 0.0
C49 C 0.14029 0.81598 0.5529 0.0
C50 C 0.16833 0.73187 0.40849 0.0
C51 C 0.11526 0.73352 0.38413 0.0
C52 C 0.13664 0.65807 0.39763 0.0
C53 C 0.1466 0.65544 0.36411 0.0
C54 C 0.16276 0.64075 0.35623 0.0
C55 C 0.14181 0.66938 0.34021 0.0
C56 C 0.17002 0.65496 0.30137 0.0
C57 C 0.15357 0.66931 0.30923 0.0
C58 C 0.17422 0.64029 0.32485 0.0
C59 C 0.09089 0.70346 0.46661 0.0
O60 O 0.12895 0.72168 0.4991 0.0
O61 O 0.13093 0.68544 0.48153 0.0
O62 O 0.15278 0.76858 0.47296 0.0
O63 O 0.11719 0.77035 0.47006 0.0
O64 O 0.16056 0.75091 0.41005 0.0
O65 O 0.15802 0.71888 0.43154 0.0
O66 O 0.12113 0.71294 0.38609 0.0
O67 O 0.11611 0.74746 0.40854 0.0
O68 O 0.11651 0.66459 0.40247 0.0
O69 O 0.1506 0.66871 0.41524 0.0
O70 O 0.09554 0.68293 0.46407 0.0
O71 O 0.10396 0.71641 0.44619 0.0
H72 H 0.15116 0.82021 0.50222 0.0
H73 H 0.11419 0.75538 0.53478 0.0
H74 H 0.11003 0.7682 0.58993 0.0
H75 H 0.14781 0.83287 0.55782 0.0
H76 H 0.16678 0.62997 0.37442 0.0
H77 H 0.12949 0.68088 0.34564 0.0
H78 H 0.1497 0.68043 0.29131 0.0
H79 H 0.1866 0.62883 0.31906 0.0
Gd80 Gd 0.48455 0.84479 0.63665 0.0
Gd81 Gd 0.53101 0.85063 0.65031 0.0
C82 C 0.5251 0.82845 0.58308 0.0
C83 C 0.44748 0.8493 0.61557 0.0
C84 C 0.43851 0.85457 0.58668 0.0
C85 C 0.41879 0.84129 0.58025 0.0
C86 C 0.44877 0.87265 0.56594 0.0
C87 C 0.41944 0.86394 0.53254 0.0
C88 C 0.43925 0.87733 0.53906 0.0
C89 C 0.40938 0.84584 0.5534 0.0
C90 C 0.49162 0.8094 0.67098 0.0
C91 C 0.48953 0.85146 0.71124 0.0
C92 C 0.5682 0.85522 0.67402 0.0
C93 C 0.57213 0.85131 0.70668 0.0
C94 C 0.58775 0.86632 0.7203 0.0
C95 C 0.55785 0.83448 0.72587 0.0
C96 C 0.57341 0.84855 0.77253 0.0
C97 C 0.55858 0.83293 0.75839 0.0
C98 C 0.58841 0.86495 0.75308 0.0
C99 C 0.52218 0.88461 0.61328 0.0
O100 O 0.50454 0.8349 0.58866 0.0
O101 O 0.53829 0.83073 0.60543 0.0
O102 O 0.45537 0.83007 0.61606 0.0
O103 O 0.45956 0.86575 0.62833 0.0
O104 O 0.47212 0.81626 0.67148 0.0
O105 O 0.50615 0.82012 0.64934 0.0
O106 O 0.51105 0.84915 0.70129 0.0
O107 O 0.47598 0.8533 0.68975 0.0
O108 O 0.55672 0.87187 0.67115 0.0
O109 O 0.56124 0.83729 0.65853 0.0
O110 O 0.54031 0.87508 0.60852 0.0
O111 O 0.50916 0.87578 0.63793 0.0
H112 H 0.41068 0.82726 0.596 0.0
H113 H 0.46404 0.88315 0.57052 0.0
H114 H 0.44727 0.89147 0.52353 0.0
H115 H 0.39443 0.83488 0.54871 0.0
H116 H 0.59865 0.8797 0.70591 0.0
H117 H 0.54535 0.82322 0.71596 0.0
H118 H 0.547 0.81993 0.77257 0.0
H119 H 0.59992 0.87734 0.76338 0.0
Gd120 Gd 0.40209 0.23529 0.87033 0.0
Gd121 Gd 0.3942 0.27985 0.84415 0.0
C122 C 0.39266 0.27593 0.92168 0.0
C123 C 0.40807 0.19923 0.89971 0.0
C124 C 0.40547 0.19187 0.93317 0.0
C125 C 0.40294 0.16887 0.94104 0.0
C126 C 0.40343 0.20759 0.95752 0.0
C127 C 0.39671 0.17749 0.9977 0.0
C128 C 0.39864 0.20048 0.98941 0.0
C129 C 0.39877 0.16171 0.9731 0.0
C130 C 0.36265 0.23597 0.84694 0.0
C131 C 0.41783 0.24281 0.7952 0.0
C132 C 0.3739 0.30776 0.81689 0.0
C133 C 0.36067 0.30613 0.79051 0.0
C134 C 0.34594 0.32184 0.78749 0.0
C135 C 0.36288 0.28912 0.76794 0.0
C136 C 0.33858 0.30581 0.73658 0.0
C137 C 0.35203 0.28901 0.74114 0.0
C138 C 0.33485 0.32161 0.76084 0.0
C139 C 0.43368 0.28394 0.866 0.0
O140 O 0.3975 0.25518 0.9164 0.0
O141 O 0.38899 0.28869 0.89771 0.0
O142 O 0.3891 0.20196 0.89008 0.0
O143 O 0.42452 0.21554 0.88989 0.0
O144 O 0.37559 0.22053 0.84054 0.0
O145 O 0.3714 0.25032 0.86473 0.0
O146 O 0.40542 0.25979 0.79848 0.0
O147 O 0.42175 0.23241 0.8209 0.0
O148 O 0.39562 0.30645 0.80912 0.0
O149 O 0.36441 0.29592 0.84261 0.0
O150 O 0.42309 0.30083 0.86126 0.0
O151 O 0.42489 0.2664 0.85293 0.0
H152 H 0.40408 0.15646 0.92242 0.0
H153 H 0.40553 0.22538 0.95189 0.0
H154 H 0.39715 0.21317 1.00752 0.0
H155 H 0.39702 0.14384 0.97859 0.0
H156 H 0.3436 0.33475 0.80519 0.0
H157 H 0.37376 0.27649 0.7703 0.0
H158 H 0.35552 0.27663 0.72304 0.0
H159 H 0.32418 0.33444 0.75855 0.0
Gd160 Gd 0.00929 0.84764 0.95258 0.0
Gd161 Gd 0.98911 0.85715 0.88758 0.0
C162 C 0.95697 0.8534 0.9559 0.0
C163 C 0.03095 0.84321 1.00097 0.0
C164 C 0.03251 0.83162 0.03236 0.0
C165 C 0.04463 0.81308 0.03252 0.0
C166 C 0.02477 0.84043 0.06239 0.0
C167 C 0.04173 0.81286 0.09141 0.0
C168 C 0.02916 0.83119 0.09126 0.0
C169 C 0.0491 0.80392 0.06125 0.0
C170 C 0.98336 0.81282 0.92931 0.0
C171 C 0.04086 0.84772 0.88326 0.0
C172 C 0.97388 0.85581 0.83248 0.0
C173 C 0.97073 0.84668 0.79953 0.0
C174 C 0.95077 0.83234 0.79522 0.0
C175 C 0.98573 0.85453 0.77146 0.0
C176 C 0.96065 0.83457 0.73618 0.0
C177 C 0.98092 0.84847 0.74055 0.0
C178 C 0.94584 0.82645 0.76435 0.0
C179 C -0.00065 0.89392 0.92415 0.0
O180 O 0.9751 0.85826 0.97035 0.0
O181 O 0.95832 0.84901 0.925 0.0
O182 O 0.03326 0.83153 0.97474 0.0
O183 O 0.01733 0.85848 0.99977 0.0
O184 O 0.98508 0.81502 0.95929 0.0
O185 O -0.0031 0.82795 0.91313 0.0
O186 O 0.02279 0.84672 0.86901 0.0
O187 O 0.04045 0.85117 0.91425 0.0
O188 O 0.96326 0.84466 0.85841 0.0
O189 O -0.00712 0.86808 0.83722 0.0
O190 O 0.98432 0.89217 0.9051 0.0
O191 O 0.01014 0.87718 0.92031 0.0
H192 H 0.05141 0.80596 1.01013 0.0
H193 H 0.01567 0.85485 0.06364 0.0
H194 H 0.02268 0.83862 0.11351 0.0
H195 H 0.05913 0.79021 0.05945 0.0
H196 H 0.93848 0.82607 0.81585 0.0
H197 H 0.00101 0.86598 0.77324 0.0
H198 H -0.00715 0.85543 0.71996 0.0
H199 H 0.93021 0.81549 0.76267 0.0
Gd200 Gd 0.39049 0.77764 0.115 0.0
Gd201 Gd 0.38485 0.72864 0.09785 0.0
C202 C 0.40109 0.73988 0.16579 0.0
C203 C 0.38482 0.81643 0.13901 0.0
C204 C 0.37532 0.82561 0.16953 0.0
C205 C 0.38857 0.84283 0.18334 0.0
C206 C 0.35366 0.81695 0.18567 0.0
C207 C 0.35952 0.84125 0.23045 0.0
C208 C 0.34598 0.82445 0.2161 0.0
C209 C 0.38074 0.85063 0.21348 0.0
C210 C 0.42762 0.7642 0.08112 0.0
C211 C 0.39144 0.76798 0.0402 0.0
C212 C 0.38161 0.68924 0.07238 0.0
C213 C 0.38651 0.67945 0.04062 0.0
C214 C 0.37805 0.65687 0.03616 0.0
C215 C 0.3984 0.69262 1.01438 0.0
C216 C 0.39285 0.66072 0.97922 0.0
C217 C 0.40151 0.68335 0.9839 0.0
C218 C 0.38124 0.64755 1.00577 0.0
C219 C 0.34965 0.74043 0.13959 0.0
O220 O 0.39484 0.76014 0.16193 0.0
O221 O 0.40137 0.7252 0.1421 0.0
O222 O 0.40347 0.80749 0.13891 0.0
O223 O 0.37038 0.8048 0.12298 0.0
O224 O 0.42323 0.78473 0.07949 0.0
O225 O 0.41395 0.75323 0.10281 0.0
O226 O 0.3925 0.74674 0.04827 0.0
O227 O 0.38683 0.78272 0.06284 0.0
O228 O 0.36525 0.70173 0.07588 0.0
O229 O 0.39906 0.69784 0.08558 0.0
O230 O 0.3571 0.72129 0.13985 0.0
O231 O 0.35993 0.75228 0.11534 0.0
H232 H 0.40528 0.8498 0.17118 0.0
H233 H 0.34288 0.80401 0.17516 0.0
H234 H 0.32975 0.81669 0.22869 0.0
H235 H 0.39186 0.8632 0.22415 0.0
H236 H 0.36867 0.64651 0.05615 0.0
H237 H 0.40511 0.71009 1.01739 0.0
H238 H 0.41082 0.69386 0.96403 0.0
H239 H 0.37418 0.63015 1.00294 0.0
Gd240 Gd 0.50251 0.12878 0.41403 0.0
Gd241 Gd 0.54963 0.14113 0.42619 0.0
C242 C 0.54426 0.13698 0.3513 0.0
C243 C 0.46341 0.11961 0.39538 0.0
C244 C 0.45374 0.1249 0.3671 0.0
C245 C 0.43024 0.12447 0.36922 0.0
C246 C 0.46793 0.13086 0.338 0.0
C247 C 0.43539 0.13684 0.31362 0.0
C248 C 0.45887 0.13695 0.31155 0.0
C249 C 0.42106 0.13017 0.34249 0.0
C250 C 0.51654 0.09719 0.44967 0.0
C251 C 0.50808 0.1517 0.48202 0.0
C252 C 0.5886 0.14003 0.44357 0.0
C253 C 0.59875 0.13085 0.46903 0.0
C254 C 0.58816 0.13004 0.50101 0.0
C255 C 0.61954 0.12269 0.46093 0.0
C256 C 0.61999 0.1143 0.51689 0.0
C257 C 0.63007 0.11442 0.48462 0.0
C258 C 0.59876 0.12193 0.52478 0.0
C259 C 0.53437 0.17491 0.39756 0.0
O260 O 0.52207 0.13365 0.36206 0.0
O261 O 0.55873 0.13791 0.37201 0.0
O262 O 0.4791 0.10637 0.39076 0.0
O263 O 0.46846 0.13665 0.41352 0.0
O264 O 0.49685 0.10375 0.45456 0.0
O265 O 0.52845 0.10751 0.42515 0.0
O266 O 0.52926 0.14684 0.47592 0.0
O267 O 0.49492 0.14879 0.45948 0.0
O268 O 0.57654 0.15647 0.45087 0.0
O269 O 0.57968 0.12511 0.42488 0.0
O270 O 0.55568 0.17267 0.39466 0.0
O271 O 0.52309 0.16102 0.41819 0.0
H272 H 0.41905 0.11988 0.39156 0.0
H273 H 0.48606 0.13108 0.33576 0.0
H274 H 0.47024 0.14163 0.28939 0.0
H275 H 0.40289 0.12993 0.34457 0.0
H276 H 0.57196 0.13605 0.50767 0.0
H277 H 0.62778 0.12294 0.43623 0.0
H278 H 0.64621 0.10835 0.47769 0.0
H279 H 0.59065 0.12237 0.54944 0.0
Gd280 Gd 0.12704 0.2123 0.7092 0.0
Gd281 Gd 0.11997 0.25938 0.69101 0.0
C282 C 0.10748 0.24713 0.76539 0.0
C283 C 0.14608 0.18022 0.72924 0.0
C284 C 0.15975 0.17775 0.75434 0.0
C285 C 0.16371 0.19522 0.77572 0.0
C286 C 0.16827 0.15748 0.75769 0.0
C287 C 0.1818 0.17085 0.80649 0.0
C288 C 0.17931 0.15407 0.78352 0.0
C289 C 0.17466 0.19181 0.80164 0.0
C290 C 0.08584 0.21309 0.69376 0.0
C291 C 0.12507 0.22216 0.63355 0.0
C292 C 0.11383 0.29816 0.66966 0.0
C293 C 0.11309 0.30926 0.63917 0.0
C294 C 0.11929 0.33266 0.63595 0.0
C295 C 0.10829 0.29669 0.61257 0.0
C296 C 0.11664 0.33089 0.57931 0.0
C297 C 0.10999 0.30741 0.58287 0.0
C298 C 0.12102 0.34343 0.60628 0.0
C299 C 0.15992 0.25529 0.71123 0.0
O300 O 0.11844 0.2293 0.7585 0.0
O301 O 0.1032 0.25982 0.74216 0.0
O302 O 0.12481 0.18255 0.73907 0.0
O303 O 0.15579 0.19408 0.7057 0.0
O304 O 0.096 0.19523 0.69192 0.0
O305 O 0.09678 0.22853 0.70805 0.0
O306 O 0.1202 0.24236 0.64272 0.0
O307 O 0.13045 0.20793 0.65443 0.0
O308 O 0.13367 0.29294 0.67292 0.0
O309 O 0.0971 0.2823 0.68037 0.0
O310 O 0.14782 0.27107 0.71989 0.0
O311 O 0.15039 0.24253 0.69213 0.0
H312 H 0.15747 0.21112 0.77312 0.0
H313 H 0.16565 0.14399 0.74101 0.0
H314 H 0.18492 0.13788 0.78637 0.0
H315 H 0.17612 0.20503 0.819 0.0
H316 H 0.12331 0.34256 0.65628 0.0
H317 H 0.10354 0.27861 0.61471 0.0
H318 H 0.10598 0.2973 0.56276 0.0
H319 H 0.12636 0.36146 0.60434 0.0
Gd320 Gd 0.8896 0.28112 0.62482 0.0
Gd321 Gd 0.89273 0.23529 0.60108 0.0
C322 C 0.90908 0.24554 0.66893 0.0
C323 C 0.87543 0.318 0.64593 0.0
C324 C 0.88018 0.33465 0.67047 0.0
C325 C 0.90209 0.34633 0.67044 0.0
C326 C 0.86259 0.33853 0.69481 0.0
C327 C 0.88908 0.36408 0.72034 0.0
C328 C 0.86699 0.35305 0.71958 0.0
C329 C 0.90646 0.36098 0.69508 0.0
C330 C 0.93234 0.27469 0.60464 0.0
C331 C 0.8922 0.27493 0.54717 0.0
C332 C 0.89531 0.19917 0.56842 0.0
C333 C 0.90006 0.19498 0.53392 0.0
C334 C 0.88849 0.17588 0.52149 0.0
C335 C 0.91403 0.21106 0.51287 0.0
C336 C 0.90412 0.18931 0.4672 0.0
C337 C 0.91609 0.20822 0.4798 0.0
C338 C 0.89051 0.17304 0.48843 0.0
C339 C 0.85529 0.23847 0.64557 0.0
O340 O 0.89822 0.26355 0.66903 0.0
O341 O 0.91224 0.23346 0.64262 0.0
O342 O 0.89134 0.3173 0.62127 0.0
O343 O 0.86554 0.29795 0.65642 0.0
O344 O 0.92659 0.28679 0.62939 0.0
O345 O 0.91546 0.2672 0.59179 0.0
O346 O 0.89288 0.25337 0.55326 0.0
O347 O 0.88961 0.28897 0.57143 0.0
O348 O 0.87623 0.20716 0.57756 0.0
O349 O 0.91221 0.20916 0.58181 0.0
O350 O 0.86777 0.22257 0.64453 0.0
O351 O 0.8629 0.25221 0.62224 0.0
H352 H 0.91599 0.34381 0.65182 0.0
H353 H 0.84555 0.3298 0.69517 0.0
H354 H 0.85328 0.35477 0.73888 0.0
H355 H 0.92359 0.36947 0.69476 0.0
H356 H 0.87747 0.16341 0.53735 0.0
H357 H 0.92287 0.22611 0.52192 0.0
H358 H 0.92653 0.22116 0.46409 0.0
H359 H 0.88136 0.15812 0.4795 0.0
Gd360 Gd 0.63581 0.71841 0.20708 0.0
Gd361 Gd 0.63272 0.76683 0.18892 0.0
C362 C 0.61784 0.75403 0.26327 0.0
C363 C 0.65241 0.68644 0.23183 0.0
C364 C 0.66334 0.68691 0.26049 0.0
C365 C 0.66857 0.66714 0.27329 0.0
C366 C 0.66737 0.7073 0.27634 0.0
C367 C 0.67916 0.68778 0.31971 0.0
C368 C 0.67514 0.70777 0.30565 0.0
C369 C 0.67659 0.66759 0.3026 0.0
C370 C 0.59515 0.723 0.19305 0.0
C371 C 0.63383 0.72844 0.13199 0.0
C372 C 0.62803 0.80601 0.16748 0.0
C373 C 0.61777 0.81536 0.14235 0.0
C374 C 0.61548 0.83833 0.14223 0.0
C375 C 0.61013 0.80149 0.11849 0.0
C376 C 0.59801 0.83344 0.09447 0.0
C377 C 0.60007 0.81042 0.09486 0.0
C378 C 0.60585 0.84742 0.11812 0.0
C379 C 0.67177 0.75992 0.20966 0.0
O380 O 0.62627 0.73481 0.25628 0.0
O381 O 0.6165 0.76847 0.24031 0.0
O382 O 0.63076 0.68833 0.23717 0.0
O383 O 0.66363 0.6993 0.20799 0.0
O384 O 0.60358 0.70406 0.18987 0.0
O385 O 0.60764 0.73757 0.20644 0.0
O386 O 0.62948 0.74877 0.14158 0.0
O387 O 0.6393 0.71395 0.15245 0.0
O388 O 0.64573 0.79587 0.15786 0.0
O389 O 0.61377 0.79507 0.19064 0.0
O390 O 0.66161 0.7773 0.21648 0.0
O391 O 0.66132 0.74757 0.19105 0.0
H392 H 0.66578 0.6513 0.26117 0.0
H393 H 0.66364 0.72278 0.26667 0.0
H394 H 0.67663 0.72359 0.31806 0.0
H395 H 0.67998 0.65196 0.31239 0.0
H396 H 0.62142 0.84925 0.1605 0.0
H397 H 0.61218 0.78386 0.11796 0.0
H398 H 0.59453 0.79952 0.07631 0.0
H399 H 0.60471 0.86531 0.11771 0.0
Gd400 Gd 0.63382 0.25106 0.95573 0.0
Gd401 Gd 0.62454 0.20422 0.93335 0.0
C402 C 0.62568 0.20964 1.01065 0.0
C403 C 0.63849 0.28826 0.98602 0.0
C404 C 0.63471 0.295 1.01964 0.0
C405 C 0.64981 0.31233 0.03002 0.0
C406 C 0.61697 0.28367 0.04183 0.0
C407 C 0.62933 0.30732 0.08449 0.0
C408 C 0.61423 0.28984 0.07393 0.0
C409 C 0.64721 0.3184 0.06211 0.0
C410 C 0.66608 0.24103 0.90715 0.0
C411 C 0.6153 0.24424 0.8876 0.0
C412 C 0.63045 0.16424 0.91425 0.0
C413 C 0.63895 0.1562 0.88273 0.0
C414 C 0.64741 0.17188 0.85773 0.0
C415 C 0.63787 0.13307 0.877 0.0
C416 C 0.65206 0.14135 0.82075 0.0
C417 C 0.64451 0.12564 0.84608 0.0
C418 C 0.6539 0.16451 0.82694 0.0
C419 C 0.58751 0.22234 0.95665 0.0
O420 O 0.63317 0.23132 1.0033 0.0
O421 O 0.62054 0.1958 0.98738 0.0
O422 O 0.65501 0.27615 0.97847 0.0
O423 O 0.62036 0.28121 0.97311 0.0
O424 O 0.65882 0.26023 0.91118 0.0
O425 O 0.65685 0.22781 0.93053 0.0
O426 O 0.62205 0.22395 0.88792 0.0
O427 O 0.61517 0.25695 0.91359 0.0
O428 O 0.61095 0.17181 0.91649 0.0
O429 O 0.64542 0.1775 0.92736 0.0
O430 O 0.58815 0.20922 0.93208 0.0
O431 O 0.60575 0.22421 0.9675 0.0
H432 H 0.6638 0.32104 1.01332 0.0
H433 H 0.60528 0.27002 0.03439 0.0
H434 H 0.6001 0.2811 0.09034 0.0
H435 H 0.65942 0.33162 0.06942 0.0
H436 H 0.64846 0.18983 0.86191 0.0
H437 H 0.63139 0.12083 0.8962 0.0
H438 H 0.64285 0.10771 0.84172 0.0
H439 H 0.65989 0.1769 0.80779 0.0
Gd440 Gd 0.91663 0.73542 0.35563 0.0
Gd441 Gd 0.90169 0.77927 0.33886 0.0
C442 C 0.9076 0.77159 0.41343 0.0
C443 C 0.93156 0.70051 0.37623 0.0
C444 C 0.92812 0.68764 0.40634 0.0
C445 C 0.93664 0.66712 0.40727 0.0
C446 C 0.91629 0.69569 0.43421 0.0
C447 C 0.92225 0.66307 0.46424 0.0
C448 C 0.91339 0.68352 0.46294 0.0
C449 C 0.93374 0.6549 0.43603 0.0
C450 C 0.87307 0.73262 0.34431 0.0
C451 C 0.92344 0.74664 0.28162 0.0
C452 C 0.87935 0.80846 0.31822 0.0
C453 C 0.86742 0.81044 0.29073 0.0
C454 C 0.87527 0.82809 0.26838 0.0
C455 C 0.84907 0.79441 0.28554 0.0
C456 C 0.84795 0.81245 0.23464 0.0
C457 C 0.83934 0.79545 0.25787 0.0
C458 C 0.86576 0.82902 0.24054 0.0
C459 C 0.94496 0.78418 0.34812 0.0
O460 O 0.91499 0.75251 0.40374 0.0
O461 O 0.89937 0.7843 0.39342 0.0
O462 O 0.91398 0.69918 0.36155 0.0
O463 O 0.9421 0.72105 0.3766 0.0
O464 O 0.88664 0.71829 0.33454 0.0
O465 O 0.88299 0.74757 0.36028 0.0
O466 O 0.9088 0.76135 0.28985 0.0
O467 O 0.93236 0.73732 0.304 0.0
O468 O 0.90143 0.80964 0.3114 0.0
O469 O 0.87023 0.79297 0.34002 0.0
O470 O 0.932 0.7998 0.35381 0.0
O471 O 0.93492 0.76769 0.3347 0.0
H472 H 0.94569 0.66066 0.38582 0.0
H473 H 0.90955 0.7115 0.43383 0.0
H474 H 0.90484 0.69051 0.48433 0.0
H475 H 0.94062 0.63914 0.43626 0.0
H476 H 0.88936 0.8407 0.27186 0.0
H477 H 0.84264 0.78072 0.30237 0.0
H478 H 0.82548 0.78265 0.25428 0.0
H479 H 0.87321 0.84214 0.22296 0.0
Gd480 Gd 0.54026 0.63638 0.66597 0.0
Gd481 Gd 0.5127 0.64626 0.60752 0.0
C482 C 0.48602 0.62163 0.67255 0.0
C483 C 0.56346 0.64204 0.71423 0.0
C484 C 0.56646 0.64971 0.74787 0.0
C485 C 0.57161 0.63439 0.77001 0.0
C486 C 0.56699 0.6724 0.75735 0.0
C487 C 0.57776 0.66401 0.80976 0.0
C488 C 0.57218 0.67934 0.78782 0.0
C489 C 0.57715 0.64134 0.80014 0.0
C490 C 0.53224 0.60148 0.6258 0.0
C491 C 0.56843 0.65945 0.60037 0.0
C492 C 0.49837 0.65395 0.55386 0.0
C493 C 0.4902 0.66004 0.52315 0.0
C494 C 0.489 0.68274 0.51552 0.0
C495 C 0.48365 0.64373 0.50102 0.0
C496 C 0.47499 0.67273 0.46486 0.0
C497 C 0.47631 0.64995 0.4724 0.0
C498 C 0.48153 0.68892 0.48718 0.0
C499 C 0.50756 0.67234 0.65966 0.0
O500 O 0.50347 0.62915 0.68714 0.0
O501 O 0.4865 0.62294 0.64099 0.0
O502 O 0.56458 0.65701 0.69133 0.0
O503 O 0.54986 0.6236 0.70996 0.0
O504 O 0.53614 0.5992 0.65494 0.0
O505 O 0.53578 0.62221 0.61796 0.0
O506 O 0.54928 0.66004 0.58878 0.0
O507 O 0.56929 0.6499 0.62823 0.0
O508 O 0.50701 0.66972 0.5717 0.0
O509 O 0.49753 0.63333 0.56531 0.0
O510 O 0.49247 0.66846 0.64087 0.0
O511 O 0.52505 0.66407 0.64813 0.0
H512 H 0.57187 0.61689 0.76369 0.0
H513 H 0.56375 0.68499 0.74099 0.0
H514 H 0.57254 0.69697 0.79371 0.0
H515 H 0.58102 0.62878 0.816 0.0
H516 H 0.49388 0.69596 0.5316 0.0
H517 H 0.48424 0.62608 0.50575 0.0
H518 H 0.47132 0.63675 0.45637 0.0
H519 H 0.48125 0.70664 0.48258 0.0
Gd520 Gd 0.98035 0.3413 0.13801 0.0
Gd521 Gd 0.02681 0.35608 0.14929 0.0
C522 C 0.02307 0.33247 0.08202 0.0
C523 C 0.94254 0.33875 0.1161 0.0
C524 C 0.93712 0.34623 0.08576 0.0
C525 C 0.91457 0.34408 0.08051 0.0
C526 C 0.95459 0.35648 0.06231 0.0
C527 C 0.92702 0.36215 1.02815 0.0
C528 C 0.9496 0.36428 0.03367 0.0
C529 C 0.90952 0.35206 0.05185 0.0
C530 C -0.00169 0.30966 0.16726 0.0
C531 C 0.98496 0.34855 0.21192 0.0
C532 C 0.06448 0.36825 0.17034 0.0
C533 C 0.07126 0.36884 0.20213 0.0
C534 C 0.08524 0.38778 0.21073 0.0
C535 C 0.06239 0.35166 0.22488 0.0
C536 C 0.08166 0.37232 0.26478 0.0
C537 C 0.06765 0.35328 0.25575 0.0
C538 C 0.09027 0.38961 0.24178 0.0
C539 C 0.01159 0.38579 0.11225 0.0
O540 O 0.00133 0.33546 0.0888 0.0
O541 O 0.03657 0.33704 0.10385 0.0
O542 O 0.95473 0.32221 0.11433 0.0
O543 O 0.94967 0.35513 0.13412 0.0
O544 O 0.97687 0.31162 0.17305 0.0
O545 O 0.00801 0.32298 0.14498 0.0
O546 O 0.0072 0.35158 0.2013 0.0
O547 O 0.97057 0.34681 0.19113 0.0
O548 O 0.05036 0.38225 0.16608 0.0
O549 O 0.05926 0.34832 0.15854 0.0
O550 O 0.0314 0.37943 0.10711 0.0
O551 O -1e-05 0.37596 0.1375 0.0
H552 H 0.90092 0.33634 0.09858 0.0
H553 H 0.97207 0.35862 0.06628 0.0
H554 H 0.96339 0.37225 1.016 0.0
H555 H 0.892 0.35008 0.04803 0.0
H556 H 0.09184 0.40144 0.19361 0.0
H557 H 0.05114 0.3371 0.21897 0.0
H558 H 0.0608 0.33937 0.27227 0.0
H559 H 0.10052 0.40485 0.24774 0.0
Gd560 Gd 0.50294 0.3583 0.4557 0.0
Gd561 Gd 0.48304 0.36967 0.39026 0.0
C562 C 0.45023 0.36435 0.45679 0.0
C563 C 0.51242 0.35332 0.51385 0.0
C564 C 0.52333 0.34284 0.53943 0.0
C565 C 0.51343 0.32218 0.55514 0.0
C566 C 0.54188 0.35483 0.55177 0.0
C567 C 0.53998 0.32612 0.59472 0.0
C568 C 0.55004 0.34666 0.57862 0.0
C569 C 0.5216 0.31399 0.58196 0.0
C570 C 0.491 0.32414 0.41698 0.0
C571 C 0.53739 0.36525 0.38954 0.0
C572 C 0.47076 0.36326 0.3335 0.0
C573 C 0.46428 0.35854 0.3003 0.0
C574 C 0.44945 0.37081 0.28701 0.0
C575 C 0.47255 0.34103 0.28156 0.0
C576 C 0.45155 0.34818 0.23755 0.0
C577 C 0.46634 0.33603 0.25112 0.0
C578 C 0.44325 0.36578 0.25639 0.0
C579 C 0.49458 0.40605 0.42602 0.0
O580 O 0.46853 0.36954 0.47066 0.0
O581 O 0.45167 0.35924 0.4261 0.0
O582 O 0.49548 0.34151 0.50262 0.0
O583 O 0.52411 0.36841 0.49287 0.0
O584 O 0.50712 0.32417 0.43405 0.0
O585 O 0.4813 0.34112 0.42318 0.0
O586 O 0.52019 0.36751 0.37422 0.0
O587 O 0.53566 0.36295 0.42107 0.0
O588 O 0.46221 0.3776 0.35389 0.0
O589 O 0.4864 0.35345 0.34388 0.0
O590 O 0.48141 0.40598 0.40429 0.0
O591 O 0.50378 0.38819 0.42389 0.0
H592 H 0.49882 0.31249 0.54728 0.0
H593 H 0.54985 0.37095 0.54108 0.0
H594 H 0.56435 0.35666 0.58675 0.0
H595 H 0.51285 0.29836 0.59333 0.0
H596 H 0.44256 0.38441 0.30031 0.0
H597 H 0.48389 0.33095 0.29049 0.0
H598 H 0.47288 0.32217 0.23837 0.0
H599 H 0.43206 0.37598 0.24741 0.0
Gd600 Gd -0.00074 0.62485 0.90291 0.0
Gd601 Gd 0.04378 0.64358 0.91864 0.0
C602 C 0.04298 0.63293 0.84326 0.0
C603 C 0.96272 0.6126 0.87914 0.0
C604 C 0.9562 0.61432 0.84728 0.0
C605 C 0.93413 0.61798 0.84438 0.0
C606 C 0.97202 0.61277 0.81956 0.0
C607 C 0.94368 0.61802 0.78631 0.0
C608 C 0.96586 0.61464 0.78943 0.0
C609 C 0.92789 0.61982 0.81412 0.0
C610 C 0.0136 0.59788 0.94506 0.0
C611 C 0.00135 0.65009 0.97085 0.0
C612 C 0.08564 0.64956 0.92774 0.0
C613 C 0.09946 0.65047 0.95324 0.0
C614 C 0.09037 0.64164 0.98389 0.0
C615 C 0.12229 0.65998 0.94645 0.0
C616 C 0.12715 0.65169 1.00081 0.0
C617 C 0.13606 0.66063 0.97007 0.0
C618 C 0.10416 0.64221 1.00755 0.0
C619 C 0.01943 0.67402 0.89841 0.0
O620 O 0.0213 0.62428 0.85255 0.0
O621 O 0.05507 0.64171 0.86491 0.0
O622 O 0.97773 0.59911 0.88181 0.0
O623 O 0.96639 0.63168 0.89393 0.0
O624 O -0.00674 0.60265 0.94669 0.0
O625 O 0.02607 0.60775 0.92056 0.0
O626 O 0.02241 0.64524 0.96751 0.0
O627 O 0.98968 0.64682 0.94653 0.0
O628 O 0.0738 0.66608 0.92625 0.0
O629 O 0.07448 0.62986 0.92286 0.0
O630 O 0.03089 0.67792 0.9219 0.0
O631 O 0.02208 0.65507 0.88761 0.0
H632 H 0.92172 0.61937 0.86552 0.0
H633 H 0.98918 0.61008 0.8211 0.0
H634 H 0.9786 0.61368 0.76854 0.0
H635 H 0.91066 0.62237 0.81251 0.0
H636 H 0.07269 0.63431 0.98946 0.0
H637 H 0.12951 0.66679 0.92278 0.0
H638 H 0.15373 0.66788 0.96419 0.0
H639 H 0.09678 0.63551 0.0312 0.0
H640 H 0.08755 0.11005 0.03824 0.0
H641 H 0.12246 0.11709 0.99957 0.0
H642 H 0.15084 0.16703 0.06109 0.0
H643 H 0.11589 0.15966 0.10044 0.0
H644 H 0.14909 0.18249 0.99797 0.0
H645 H 0.17883 0.12508 0.04697 0.0
H646 H 0.17829 0.08818 0.07293 0.0
H647 H 0.16405 0.05465 0.98716 0.0
H648 H 0.16416 0.09131 0.9608 0.0
H649 H 0.20895 0.19706 0.84306 0.0
H650 H 0.20951 0.19123 0.90017 0.0
H651 H 0.1679 0.12673 0.89793 0.0
H652 H 0.16743 0.13222 0.84153 0.0
H653 H 0.19267 0.12528 0.94307 0.0
H654 H 0.14398 0.17919 0.91009 0.0
H655 H 0.1402 0.2142 0.88189 0.0
H656 H 0.18671 0.25213 0.93578 0.0
H657 H 0.19087 0.21727 0.96407 0.0
C658 C 0.10142 0.12217 0.04384 0.0
C659 C 0.09907 0.13438 0.07217 0.0
C660 C 0.12142 0.12605 1.02188 0.0
C661 C 0.13929 0.14245 1.02763 0.0
C662 C 0.13732 0.15415 0.05644 0.0
C663 C 0.11741 0.14991 0.07883 0.0
C664 C 0.15826 0.14918 1.00129 0.0
C665 C 0.15935 0.17032 0.98653 0.0
C666 C 0.17141 0.13321 0.98632 0.0
C667 C 0.17154 0.11102 1.00187 0.0
C668 C 0.17548 0.10985 0.03366 0.0
C669 C 0.17526 0.08896 0.04846 0.0
C670 C 0.17115 0.06909 0.0317 0.0
C671 C 0.16728 0.07006 1.00009 0.0
C672 C 0.16748 0.09091 0.98518 0.0
C673 C 0.20053 0.18135 0.85462 0.0
C674 C 0.18781 0.16528 0.8379 0.0
C675 C 0.20097 0.17801 0.8872 0.0
C676 C 0.18835 0.1588 0.90353 0.0
C677 C 0.17778 0.14172 0.88599 0.0
C678 C 0.17752 0.14491 0.85353 0.0
C679 C 0.18217 0.15791 0.93889 0.0
C680 C 0.18346 0.13791 0.95535 0.0
C681 C 0.17076 0.17472 0.95525 0.0
C682 C 0.16779 0.19571 0.93903 0.0
C683 C 0.15333 0.19503 0.91593 0.0
C684 C 0.15117 0.21481 0.8999 0.0
C685 C 0.16323 0.23536 0.90703 0.0
C686 C 0.1774 0.23619 0.93029 0.0
C687 C 0.17965 0.21645 0.94634 0.0
H688 H 0.16159 0.25064 0.89455 0.0
H689 H 0.17096 0.05293 0.0432 0.0
H690 H 0.10681 0.70863 0.33088 0.0
H691 H 0.09358 0.7205 0.28268 0.0
H692 H 0.09248 0.78745 0.31953 0.0
H693 H 0.10494 0.77543 0.36839 0.0
H694 H 0.05564 0.77616 0.29257 0.0
H695 H 0.1357 0.77169 0.25557 0.0
H696 H 0.16897 0.75132 0.24858 0.0
H697 H 0.13397 0.70028 0.19584 0.0
H698 H 0.10064 0.72041 0.20228 0.0
H699 H 0.04784 0.83491 0.14832 0.0
H700 H 0.0583 0.82041 0.1969 0.0
H701 H 0.06078 0.75524 0.15449 0.0
H702 H 0.04962 0.76934 0.10612 0.0
H703 H 0.09588 0.76364 0.18401 0.0
H704 H 0.0179 0.76554 0.21663 0.0
H705 H 0.98077 0.77916 0.22787 0.0
H706 H 0.00699 0.82842 0.29135 0.0
H707 H 0.04439 0.81529 0.2802 0.0
C708 C 0.10384 0.72593 0.32889 0.0
C709 C 0.10723 0.74096 0.35399 0.0
C710 C 0.0963 0.73281 0.30091 0.0
C711 C 0.09211 0.75514 0.29659 0.0
C712 C 0.09533 0.77013 0.32178 0.0
C713 C 0.10268 0.7632 0.34989 0.0
C714 C 0.08421 0.76284 0.2663 0.0
C715 C 0.06481 0.77385 0.26891 0.0
C716 C 0.09516 0.75894 0.23487 0.0
C717 C 0.11564 0.74747 0.22962 0.0
C718 C 0.13516 0.75615 0.24241 0.0
C719 C 0.15404 0.74467 0.2385 0.0
C720 C 0.15362 0.72453 0.22175 0.0
C721 C 0.13437 0.71592 0.20867 0.0
C722 C 0.1155 0.72741 0.21233 0.0
C723 C 0.05013 0.81735 0.14918 0.0
C724 C 0.04768 0.80358 0.12237 0.0
C725 C 0.05629 0.809 0.17736 0.0
C726 C 0.06037 0.7865 0.18014 0.0
C727 C 0.05797 0.77268 0.15351 0.0
C728 C 0.05161 0.78095 0.1254 0.0
C729 C 0.06763 0.77767 0.21027 0.0
C730 C 0.08685 0.76632 0.20764 0.0
C731 C 0.05618 0.78082 0.24171 0.0
C732 C 0.0341 0.78966 0.24714 0.0
C733 C 0.01588 0.77953 0.23257 0.0
C734 C -0.00526 0.78709 0.23904 0.0
C735 C 0.99155 0.80472 0.26019 0.0
C736 C 0.00951 0.81483 0.27488 0.0
C737 C 0.03069 0.80734 0.26848 0.0
H738 H 0.97514 0.81047 0.2653 0.0
H739 H 0.1682 0.71561 0.21897 0.0
H740 H 0.364 0.88305 0.25677 0.0
H741 H 0.36573 0.89065 0.31308 0.0
H742 H 0.34219 0.82051 0.33704 0.0
H743 H 0.34113 0.81261 0.28076 0.0
H744 H 0.34198 0.88399 0.37588 0.0
H745 H 0.38246 0.80259 0.37448 0.0
H746 H 0.39931 0.7766 0.33533 0.0
H747 H 0.42 0.831 0.26645 0.0
H748 H 0.4037 0.85733 0.30536 0.0
H749 H 0.37462 0.86171 0.52678 0.0
H750 H 0.35856 0.86221 0.47742 0.0
H751 H 0.426 0.87645 0.42318 0.0
H752 H 0.44222 0.87484 0.4723 0.0
H753 H 0.40306 0.84201 0.39962 0.0
H754 H 0.3886 0.91596 0.43182 0.0
H755 H 0.37401 0.94457 0.46831 0.0
H756 H 0.30609 0.91032 0.47225 0.0
H757 H 0.32031 0.88133 0.43611 0.0
C758 C 0.35857 0.86938 0.27418 0.0
C759 C 0.35319 0.84713 0.2643 0.0
C760 C 0.35931 0.8738 0.30637 0.0
C761 C 0.35464 0.85602 0.32892 0.0
C762 C 0.34612 0.83438 0.31977 0.0
C763 C 0.34549 0.82991 0.28757 0.0
C764 C 0.36339 0.85906 0.35951 0.0
C765 C 0.35516 0.87472 0.38136 0.0
C766 C 0.38113 0.84743 0.36594 0.0
C767 C 0.39161 0.83184 0.34271 0.0
C768 C 0.39071 0.809 0.35103 0.0
C769 C 0.40017 0.79422 0.32889 0.0
C770 C 0.41066 0.80214 0.2984 0.0
C771 C 0.41183 0.82487 0.29004 0.0
C772 C 0.40249 0.83973 0.31213 0.0
C773 C 0.38603 0.86506 0.50434 0.0
C774 C 0.4097 0.86792 0.50338 0.0
C775 C 0.37681 0.86562 0.4762 0.0
C776 C 0.39108 0.8694 0.44665 0.0
C777 C 0.41469 0.87346 0.44578 0.0
C778 C 0.42394 0.87273 0.47389 0.0
C779 C 0.38157 0.8669 0.41649 0.0
C780 C 0.38972 0.85124 0.39453 0.0
C781 C 0.36415 0.87891 0.4098 0.0
C782 C 0.35555 0.89636 0.43148 0.0
C783 C 0.37057 0.91443 0.44066 0.0
C784 C 0.36237 0.93073 0.46125 0.0
C785 C 0.33915 0.92923 0.47266 0.0
C786 C 0.32408 0.91145 0.46343 0.0
C787 C 0.3322 0.89509 0.44286 0.0
H788 H 0.33283 0.94187 0.48859 0.0
H789 H 0.41796 0.7907 0.28128 0.0
H790 H 0.44748 0.21173 0.78047 0.0
H791 H 0.4624 0.19744 0.72853 0.0
H792 H 0.42498 0.24019 0.68211 0.0
H793 H 0.40979 0.2546 0.73448 0.0
H794 H 0.42198 0.19872 0.65514 0.0
H795 H 0.48404 0.25103 0.68191 0.0
H796 H 0.51131 0.26621 0.71682 0.0
H797 H 0.53953 0.20415 0.71171 0.0
H798 H 0.51184 0.1882 0.67767 0.0
H799 H 0.47317 0.17726 0.49627 0.0
H800 H 0.45893 0.19371 0.54692 0.0
H801 H 0.50721 0.16401 0.59253 0.0
H802 H 0.52256 0.14886 0.54101 0.0
H803 H 0.50455 0.19965 0.62036 0.0
H804 H 0.44281 0.1452 0.60038 0.0
H805 H 0.41401 0.12601 0.57035 0.0
H806 H 0.38493 0.18722 0.56635 0.0
H807 H 0.41372 0.20685 0.59605 0.0
C808 C 0.44237 0.2183 0.75935 0.0
C809 C 0.42734 0.23461 0.7623 0.0
C810 C 0.45111 0.21006 0.72927 0.0
C811 C 0.44529 0.21772 0.70058 0.0
C812 C 0.43004 0.23384 0.70342 0.0
C813 C 0.42137 0.24223 0.73362 0.0
C814 C 0.45494 0.2088 0.66804 0.0
C815 C 0.44009 0.19929 0.64744 0.0
C816 C 0.47858 0.20851 0.65775 0.0
C817 C 0.49565 0.21832 0.6775 0.0
C818 C 0.49592 0.24052 0.68843 0.0
C819 C 0.51143 0.24926 0.70815 0.0
C820 C 0.52713 0.23618 0.71655 0.0
C821 C 0.52734 0.21428 0.70523 0.0
C822 C 0.51168 0.20534 0.6858 0.0
C823 C 0.4808 0.17411 0.51704 0.0
C824 C 0.49906 0.16142 0.51405 0.0
C825 C 0.47238 0.18345 0.54653 0.0
C826 C 0.48122 0.17986 0.57486 0.0
C827 C 0.49967 0.16729 0.57175 0.0
C828 C 0.5085 0.15843 0.54198 0.0
C829 C 0.47159 0.18935 0.60723 0.0
C830 C 0.48643 0.19902 0.62787 0.0
C831 C 0.44789 0.18927 0.61798 0.0
C832 C 0.43056 0.17755 0.60014 0.0
C833 C 0.43035 0.1546 0.59292 0.0
C834 C 0.41403 0.14364 0.57598 0.0
C835 C 0.39769 0.1554 0.56637 0.0
C836 C 0.39761 0.17814 0.57376 0.0
C837 C 0.41392 0.18919 0.59067 0.0
H838 H 0.38507 0.14689 0.55325 0.0
H839 H 0.53916 0.24302 0.73176 0.0
H840 H 0.84222 0.84784 0.1976 0.0
H841 H 0.84327 0.84764 0.14043 0.0
H842 H 0.8363 0.77483 0.14202 0.0
H843 H 0.83721 0.77516 0.19923 0.0
H844 H 0.86981 0.78648 0.10448 0.0
H845 H 0.79931 0.80805 0.10413 0.0
H846 H 0.7651 0.82625 0.11964 0.0
H847 H 0.80376 0.89104 0.09303 0.0
H848 H 0.83829 0.87332 0.07792 0.0
H849 H 0.91984 0.82562 0.94307 0.0
H850 H 0.88527 0.81261 0.98062 0.0
H851 H 0.9082 0.85888 0.05067 0.0
H852 H 0.9434 0.8712 1.0139 0.0
H853 H 0.8538 0.84835 0.03758 0.0
H854 H 0.92406 0.81852 0.0662 0.0
H855 H 0.95629 0.79763 0.0491 0.0
H856 H 0.91116 0.74342 1.01738 0.0
H857 H 0.8787 0.76425 0.03375 0.0
C858 C 0.84043 0.83173 0.18591 0.0
C859 C 0.84055 0.81164 0.20279 0.0
C860 C 0.84049 0.83155 0.15304 0.0
C861 C 0.83991 0.81117 0.13642 0.0
C862 C 0.83695 0.79082 0.15407 0.0
C863 C 0.83735 0.79103 0.18696 0.0
C864 C 0.8478 0.81181 0.10126 0.0
C865 C 0.86546 0.79942 0.08962 0.0
C866 C 0.84217 0.82827 0.08098 0.0
C867 C 0.82145 0.83925 0.08982 0.0
C868 C 0.80057 0.82618 0.10175 0.0
C869 C 0.7811 0.83643 0.11047 0.0
C870 C 0.78225 0.85978 0.1073 0.0
C871 C 0.80288 0.87293 0.09538 0.0
C872 C 0.8224 0.86277 0.08663 0.0
C873 C 0.91732 0.83339 0.96623 0.0
C874 C 0.93442 0.84922 0.97583 0.0
C875 C 0.89751 0.82599 0.98749 0.0
C876 C 0.89429 0.83491 1.01815 0.0
C877 C 0.91046 0.85201 1.02687 0.0
C878 C 0.93056 0.85892 1.006 0.0
C879 C 0.87619 0.82423 0.04308 0.0
C880 C 0.85688 0.83468 0.0523 0.0
C881 C 0.87964 0.80544 0.06068 0.0
C882 C 0.89909 0.79302 0.05077 0.0
C883 C 0.92108 0.80225 0.05526 0.0
C884 C 0.93935 0.79042 0.04575 0.0
C885 C 0.93576 0.76924 0.03205 0.0
C886 C 0.91389 0.75987 1.02782 0.0
C887 C 0.89557 0.77169 0.03716 0.0
H888 H 0.94991 0.76007 1.02477 0.0
H889 H 0.76717 0.86769 0.11409 0.0
H890 H 0.90868 0.26675 0.72759 0.0
H891 H 0.92205 0.2546 0.77577 0.0
H892 H 0.94237 0.19577 0.7271 0.0
H893 H 0.92897 0.20777 0.67905 0.0
H894 H 0.92317 0.18319 0.78579 0.0
H895 H 0.98149 0.24305 0.74365 0.0
H896 H -0.00263 0.28154 0.72375 0.0
H897 H 0.97108 0.30848 0.8138 0.0
H898 H 0.9548 0.27014 0.83411 0.0
H899 H 0.98643 0.14852 0.90226 0.0
H900 H 0.97469 0.16147 0.85368 0.0
H901 H 0.95775 0.22205 0.90069 0.0
H902 H 0.97025 0.20962 0.94885 0.0
H903 H 0.97528 0.23386 0.84263 0.0
H904 H 0.91662 0.17427 0.88474 0.0
H905 H 0.90036 0.13589 0.90473 0.0
H906 H 0.9267 0.10859 0.81499 0.0
H907 H 0.94337 0.14681 0.79459 0.0
C908 C 0.91606 0.25125 0.72696 0.0
C909 C 0.91767 0.23842 0.69885 0.0
C910 C 0.92388 0.24428 0.75475 0.0
C911 C 0.93363 0.22418 0.75566 0.0
C912 C 0.93504 0.2113 0.72766 0.0
C913 C 0.92737 0.21831 0.69985 0.0
C914 C 0.94208 0.21644 0.78554 0.0
C915 C 0.93482 0.19429 0.79783 0.0
C916 C 0.95695 0.2307 0.80239 0.0
C917 C 0.96672 0.25375 0.79027 0.0
C918 C 0.97895 0.2572 0.75912 0.0
C919 C 0.98805 0.27898 0.74779 0.0
C920 C 0.98518 0.29745 0.76747 0.0
C921 C 0.97326 0.29416 0.79856 0.0
C922 C 0.96411 0.27241 0.81001 0.0
C923 C 0.98053 0.16477 0.90251 0.0
C924 C 0.97957 0.17783 0.93049 0.0
C925 C 0.9734 0.17211 0.87439 0.0
C926 C 0.96474 0.19278 0.8729 0.0
C927 C 0.96414 0.20601 0.90052 0.0
C928 C 0.97126 0.19869 0.92859 0.0
C929 C 0.95636 0.20058 0.84294 0.0
C930 C 0.96363 0.22275 0.83062 0.0
C931 C 0.94144 0.18635 0.8261 0.0
C932 C 0.93144 0.16337 0.83827 0.0
C933 C 0.91908 0.16006 0.86935 0.0
C934 C 0.90977 0.13834 0.88074 0.0
C935 C 0.91255 0.11981 0.86117 0.0
C936 C 0.9246 0.12296 0.83014 0.0
C937 C 0.93397 0.14465 0.81864 0.0
H938 H 0.90532 0.103 0.87003 0.0
H939 H 0.99224 0.3143 0.75865 0.0
H940 H 0.67857 0.10992 0.79576 0.0
H941 H 0.68583 0.09889 0.73939 0.0
H942 H 0.6409 0.14424 0.71573 0.0
H943 H 0.6342 0.15561 0.77119 0.0
H944 H 0.65864 0.07991 0.69894 0.0
H945 H 0.65985 0.17088 0.64754 0.0
H946 H 0.671 0.20975 0.66398 0.0
H947 H 0.7179 0.1868 0.71873 0.0
H948 H 0.70782 0.14789 0.70152 0.0
H949 H 0.60239 0.09057 0.57245 0.0
H950 H 0.62095 0.0873 0.61879 0.0
H951 H 0.68434 0.11928 0.56534 0.0
H952 H 0.66543 0.124 0.51948 0.0
H953 H 0.67588 0.14076 0.61579 0.0
H954 H 0.67887 0.06415 0.59873 0.0
H955 H 0.66644 0.02494 0.58472 0.0
H956 H 0.61349 0.01857 0.66618 0.0
H957 H 0.62534 0.05783 0.68046 0.0
C958 C 0.67036 0.11747 0.77832 0.0
C959 C 0.65617 0.13386 0.78747 0.0
C960 C 0.67449 0.11119 0.74632 0.0
C961 C 0.66436 0.12119 0.72335 0.0
C962 C 0.64946 0.13685 0.73289 0.0
C963 C 0.64561 0.14331 0.76455 0.0
C964 C 0.66876 0.11543 0.68922 0.0
C965 C 0.66275 0.09306 0.68055 0.0
C966 C 0.67522 0.13257 0.66527 0.0
C967 C 0.68297 0.15633 0.67328 0.0
C968 C 0.6729 0.17412 0.66252 0.0
C969 C 0.67902 0.19619 0.67201 0.0
C970 C 0.69503 0.20071 0.69253 0.0
C971 C 0.70543 0.18326 0.70292 0.0
C972 C 0.69961 0.16121 0.69315 0.0
C973 C 0.62033 0.09669 0.57041 0.0
C974 C 0.63227 0.10796 0.54249 0.0
C975 C 0.63109 0.0944 0.59678 0.0
C976 C 0.65415 0.10291 0.59556 0.0
C977 C 0.66656 0.11254 0.56683 0.0
C978 C 0.65571 0.11511 0.54054 0.0
C979 C 0.66376 0.10547 0.62571 0.0
C980 C 0.6726 0.12732 0.63373 0.0
C981 C 0.66024 0.0878 0.64888 0.0
C982 C 0.65306 0.06401 0.64069 0.0
C983 C 0.66451 0.05444 0.61361 0.0
C984 C 0.65757 0.03218 0.60561 0.0
C985 C 0.6392 0.01927 0.62456 0.0
C986 C 0.62776 0.02858 0.65157 0.0
C987 C 0.63463 0.05083 0.65968 0.0
H988 H 0.63384 0.00205 0.61831 0.0
H989 H 0.69932 0.21771 0.70044 0.0
H990 H 0.56882 0.82136 0.55872 0.0
H991 H 0.58334 0.80664 0.50672 0.0
H992 H 0.51571 0.79701 0.4831 0.0
H993 H 0.50135 0.81277 0.53447 0.0
H994 H 0.57969 0.76964 0.47501 0.0
H995 H 0.51559 0.79829 0.40401 0.0
H996 H 0.48871 0.82602 0.40749 0.0
H997 H 0.53255 0.87125 0.45704 0.0
H998 H 0.55986 0.84393 0.45333 0.0
H999 H 0.60022 0.72522 0.3154 0.0
H1000 H 0.58307 0.73504 0.36923 0.0
H1001 H 0.5986 0.80562 0.34269 0.0
H1002 H 0.61427 0.79574 0.2886 0.0
H1003 H 0.56019 0.80119 0.37646 0.0
H1004 H 0.62906 0.77173 0.39321 0.0
H1005 H 0.65257 0.7409 0.38666 0.0
H1006 H 0.59943 0.69682 0.44454 0.0
H1007 H 0.5754 0.72718 0.45075 0.0
C1008 C 0.55696 0.81624 0.54246 0.0
C1009 C 0.53381 0.81869 0.5511 0.0
C1010 C 0.56535 0.80762 0.51249 0.0
C1011 C 0.55096 0.80095 0.4899 0.0
C1012 C 0.52763 0.80257 0.49908 0.0
C1013 C 0.51929 0.81156 0.52884 0.0
C1014 C 0.56048 0.79308 0.45675 0.0
C1015 C 0.57543 0.7767 0.45355 0.0
C1016 C 0.55511 0.80178 0.42806 0.0
C1017 C 0.53964 0.81899 0.42865 0.0
C1018 C 0.51959 0.81426 0.41534 0.0
C1019 C 0.50426 0.82988 0.4174 0.0
C1020 C 0.50885 0.85034 0.43259 0.0
C1021 C 0.52897 0.85538 0.44532 0.0
C1022 C 0.54441 0.83985 0.4432 0.0
C1023 C 0.60011 0.74284 0.3211 0.0
C1024 C 0.60885 0.75962 0.29735 0.0
C1025 C 0.59033 0.74855 0.35219 0.0
C1026 C 0.58969 0.77129 0.36104 0.0
C1027 C 0.59861 0.78796 0.33719 0.0
C1028 C 0.6078 0.78225 0.30602 0.0
C1029 C 0.5797 0.77803 0.39456 0.0
C1030 C 0.56464 0.79423 0.39785 0.0
C1031 C 0.58499 0.76911 0.42321 0.0
C1032 C 0.60033 0.75167 0.42215 0.0
C1033 C 0.62241 0.75547 0.40457 0.0
C1034 C 0.63575 0.73803 0.40069 0.0
C1035 C 0.62736 0.71684 0.41482 0.0
C1036 C 0.6058 0.71317 0.43333 0.0
C1037 C 0.59232 0.73049 0.43706 0.0
H1038 H 0.63765 0.70335 0.41171 0.0
H1039 H 0.49676 0.86221 0.43452 0.0
H1040 H 0.70343 0.7205 0.3518 0.0
H1041 H 0.70246 0.72291 0.40956 0.0
H1042 H 0.66149 0.65756 0.42214 0.0
H1043 H 0.66205 0.65518 0.36522 0.0
H1044 H 0.67041 0.72689 0.45229 0.0
H1045 H 0.66317 0.62899 0.48336 0.0
H1046 H 0.685 0.59812 0.46606 0.0
H1047 H 0.74298 0.64615 0.42912 0.0
H1048 H 0.72168 0.67736 0.44672 0.0
H1049 H 0.57383 0.683 0.54398 0.0
H1050 H 0.609 0.69666 0.50912 0.0
H1051 H 0.64732 0.67253 0.57667 0.0
H1052 H 0.6119 0.65839 0.6118 0.0
H1053 H 0.66205 0.65869 0.52164 0.0
H1054 H 0.65371 0.72795 0.55923 0.0
H1055 H 0.63693 0.76111 0.5806 0.0
H1056 H 0.62062 0.77555 0.4884 0.0
H1057 H 0.63695 0.74242 0.46665 0.0
C1058 C 0.6947 0.7064 0.36681 0.0
C1059 C 0.68288 0.68759 0.35363 0.0
C1060 C 0.69432 0.70777 0.39988 0.0
C1061 C 0.68243 0.69023 0.42035 0.0
C1062 C 0.67159 0.671 0.407 0.0
C1063 C 0.67188 0.66966 0.37415 0.0
C1064 C 0.67798 0.69293 0.45558 0.0
C1065 C 0.66888 0.71217 0.4677 0.0
C1066 C 0.67784 0.67455 0.47657 0.0
C1067 C 0.69079 0.65562 0.46654 0.0
C1068 C 0.68066 0.63304 0.47195 0.0
C1069 C 0.69293 0.61544 0.46196 0.0
C1070 C 0.71537 0.62016 0.44653 0.0
C1071 C 0.7256 0.6425 0.44107 0.0
C1072 C 0.71342 0.66016 0.45103 0.0
C1073 C 0.58968 0.68077 0.55172 0.0
C1074 C 0.58999 0.66933 0.58053 0.0
C1075 C 0.60988 0.6889 0.53189 0.0
C1076 C 0.63088 0.68591 0.54045 0.0
C1077 C 0.63132 0.67514 0.56969 0.0
C1078 C 0.61104 0.66701 0.58966 0.0
C1079 C 0.65169 0.6913 0.51646 0.0
C1080 C 0.66424 0.67376 0.50673 0.0
C1081 C 0.65603 0.71177 0.49848 0.0
C1082 C 0.6464 0.73227 0.51119 0.0
C1083 C 0.64636 0.73802 0.54348 0.0
C1084 C 0.63694 0.7569 0.55573 0.0
C1085 C 0.6276 0.77037 0.53593 0.0
C1086 C 0.62778 0.76506 0.5038 0.0
C1087 C 0.63716 0.74619 0.49147 0.0
H1088 H 0.62029 0.78497 0.54546 0.0
H1089 H 0.72482 0.60651 0.43879 0.0
H1090 H 0.59889 0.21945 0.83882 0.0
H1091 H 0.58556 0.23245 0.79144 0.0
H1092 H 0.60153 0.30138 0.81925 0.0
H1093 H 0.61319 0.28814 0.86808 0.0
H1094 H 0.56795 0.30213 0.79376 0.0
H1095 H 0.63432 0.26839 0.75135 0.0
H1096 H 0.65772 0.23748 0.7454 0.0
H1097 H 0.60473 0.19496 0.70841 0.0
H1098 H 0.58095 0.22554 0.71436 0.0
H1099 H 0.55987 0.35078 0.64185 0.0
H1100 H 0.57288 0.33746 0.6892 0.0
H1101 H 0.55178 0.26878 0.66496 0.0
H1102 H 0.53938 0.28194 0.61694 0.0
H1103 H 0.58774 0.2678 0.68839 0.0
H1104 H 0.52233 0.30348 0.72917 0.0
H1105 H 0.49907 0.3343 0.73761 0.0
H1106 H 0.55191 0.37457 0.77797 0.0
H1107 H 0.57557 0.344 0.76946 0.0
C1108 C 0.59965 0.23742 0.83493 0.0
C1109 C 0.60745 0.2526 0.85769 0.0
C1110 C 0.59218 0.24501 0.80721 0.0
C1111 C 0.593 0.26824 0.80008 0.0
C1112 C 0.60059 0.2834 0.82315 0.0
C1113 C 0.60746 0.27576 0.85139 0.0
C1114 C 0.58571 0.27672 0.76934 0.0
C1115 C 0.57274 0.29473 0.77074 0.0
C1116 C 0.59108 0.26718 0.7386 0.0
C1117 C 0.60577 0.24917 0.73363 0.0
C1118 C 0.62767 0.25244 0.74195 0.0
C1119 C 0.64098 0.23498 0.73861 0.0
C1120 C 0.63264 0.21423 0.72676 0.0
C1121 C 0.61112 0.21101 0.71772 0.0
C1122 C 0.59774 0.22841 0.72101 0.0
C1123 C 0.55801 0.33277 0.64618 0.0
C1124 C 0.5482 0.3177 0.62471 0.0
C1125 C 0.56526 0.32506 0.67404 0.0
C1126 C 0.56289 0.30186 0.6822 0.0
C1127 C 0.55362 0.28676 0.6604 0.0
C1128 C 0.5463 0.29445 0.63257 0.0
C1129 C 0.5702 0.29335 0.71283 0.0
C1130 C 0.58311 0.27529 0.71139 0.0
C1131 C 0.565 0.30303 0.74348 0.0
C1132 C 0.5508 0.32146 0.74841 0.0
C1133 C 0.52904 0.31891 0.73969 0.0
C1134 C 0.51577 0.33636 0.7445 0.0
C1135 C 0.52402 0.35641 0.75826 0.0
C1136 C 0.54554 0.35904 0.76728 0.0
C1137 C 0.55888 0.34165 0.76248 0.0
H1138 H 0.51373 0.3699 0.76198 0.0
H1139 H 0.64282 0.20062 0.72463 0.0
H1140 H 0.89393 0.38726 1.01876 0.0
H1141 H 0.88613 0.40083 0.96749 0.0
H1142 H 0.94109 0.36895 0.91769 0.0
H1143 H 0.94887 0.35538 0.96851 0.0
H1144 H 0.94074 0.41174 0.89377 0.0
H1145 H 0.88728 0.34303 0.9254 0.0
H1146 H 0.85613 0.32058 0.96166 0.0
H1147 H 0.81333 0.37134 0.95432 0.0
H1148 H 0.84437 0.39421 0.91829 0.0
H1149 H 0.92596 0.36325 0.74981 0.0
H1150 H 0.9315 0.37782 0.80184 0.0
H1151 H 0.86941 0.40703 0.8093 0.0
H1152 H 0.86383 0.39259 0.75651 0.0
H1153 H 0.8686 0.37953 0.85824 0.0
H1154 H 0.91994 0.44131 0.81142 0.0
H1155 H 0.95131 0.46209 0.77372 0.0
H1156 H -0.00145 0.42435 0.80796 0.0
H1157 H 0.96746 0.40307 0.84551 0.0
C1158 C 0.90423 0.38311 0.9968 0.0
C1159 C 0.92195 0.37023 0.9975 0.0
C1160 C 0.89989 0.39101 0.96766 0.0
C1161 C 0.91311 0.38595 0.93892 0.0
C1162 C 0.93088 0.37325 0.93967 0.0
C1163 C 0.93524 0.36543 0.96867 0.0
C1164 C 0.90778 0.39236 0.90762 0.0
C1165 C 0.92495 0.40487 0.88587 0.0
C1166 C 0.8868 0.38418 0.89795 0.0
C1167 C 0.8682 0.37045 0.91957 0.0
C1168 C 0.87128 0.34947 0.93175 0.0
C1169 C 0.85364 0.33667 0.95221 0.0
C1170 C 0.83279 0.34457 0.96039 0.0
C1171 C 0.82951 0.36527 0.94804 0.0
C1172 C 0.84712 0.37816 0.92761 0.0
C1173 C 0.91389 0.37351 0.76182 0.0
C1174 C 0.89436 0.37663 0.74907 0.0
C1175 C 0.91712 0.38191 0.79168 0.0
C1176 C 0.90096 0.39369 0.80938 0.0
C1177 C 0.88212 0.39804 0.79595 0.0
C1178 C 0.87888 0.38965 0.76594 0.0
C1179 C 0.9021 0.39783 0.84358 0.0
C1180 C 0.8841 0.38731 0.86612 0.0
C1181 C 0.92239 0.40777 0.85385 0.0
C1182 C 0.94128 0.42055 0.83133 0.0
C1183 C 0.93699 0.43733 0.8108 0.0
C1184 C 0.95474 0.44922 0.78946 0.0
C1185 C 0.97691 0.44454 0.78844 0.0
C1186 C 0.98137 0.42798 0.8088 0.0
C1187 C 0.96369 0.41603 0.83019 0.0
H1188 H 0.99062 0.45376 0.77189 0.0
H1189 H 0.81915 0.33463 0.97621 0.0
H1190 H 0.91287 0.76272 0.2242 0.0
H1191 H 0.92507 0.75043 0.16936 0.0
H1192 H 0.96141 0.702 0.20656 0.0
H1193 H 0.95005 0.71453 0.2604 0.0
H1194 H 0.98684 0.72049 0.15651 0.0
H1195 H 0.9044 0.69113 0.17595 0.0
H1196 H 0.86439 0.69774 0.18671 0.0
H1197 H 0.87535 0.74113 0.10345 0.0
H1198 H 0.91543 0.73491 0.0924 0.0
H1199 H 0.01223 0.64631 0.03113 0.0
H1200 H -0.00173 0.66487 0.08014 0.0
H1201 H 0.95582 0.69888 0.02898 0.0
H1202 H 0.96872 0.67893 0.9803 0.0
H1203 H 0.93361 0.69378 0.08204 0.0
H1204 H 0.01019 0.72488 0.05695 0.0
H1205 H 0.05185 0.72842 0.04325 0.0
H1206 H 0.05508 0.69424 0.13108 0.0
H1207 H 0.01341 0.69018 0.1451 0.0
C1208 C 0.92346 0.74946 0.22069 0.0
C1209 C 0.93032 0.73975 0.24729 0.0
C1210 C 0.93036 0.74224 0.1891 0.0
C1211 C 0.94409 0.72483 0.18312 0.0
C1212 C 0.95093 0.71537 0.20978 0.0
C1213 C 0.94426 0.72264 0.241 0.0
C1214 C 0.95192 0.71634 0.14974 0.0
C1215 C 0.97505 0.71431 0.14052 0.0
C1216 C 0.93716 0.70963 0.12725 0.0
C1217 C 0.91291 0.71266 0.13349 0.0
C1218 C 0.89825 0.70208 0.15998 0.0
C1219 C 0.87558 0.70577 0.16614 0.0
C1220 C 0.86734 0.71988 0.14582 0.0
C1221 C 0.88173 0.73022 0.11918 0.0
C1222 C 0.90441 0.72659 0.11294 0.0
C1223 C -0.00018 0.65765 0.03025 0.0
C1224 C 0.99172 0.66097 1.00139 0.0
C1225 C 0.99196 0.66865 0.0585 0.0
C1226 C 0.97628 0.68418 0.05894 0.0
C1227 C 0.96789 0.68723 0.03008 0.0
C1228 C 0.97534 0.67573 1.00193 0.0
C1229 C 0.96853 0.69674 0.0894 0.0
C1230 C 0.9455 0.69974 0.09796 0.0
C1231 C 0.9836 0.70539 0.11073 0.0
C1232 C 0.00861 0.70697 0.10187 0.0
C1233 C 0.01975 0.71786 0.07316 0.0
C1234 C 0.04338 0.72001 0.06538 0.0
C1235 C 0.0561 0.71147 0.08621 0.0
C1236 C 0.04521 0.70077 0.1149 0.0
C1237 C 0.02158 0.69854 0.12277 0.0
H1238 H 0.07439 0.7132 0.08017 0.0
H1239 H 0.84981 0.72278 0.1507 0.0
H1240 H 0.44022 0.37811 0.51804 0.0
H1241 H 0.40604 0.36551 0.55604 0.0
H1242 H 0.37535 0.33044 0.48136 0.0
H1243 H 0.40971 0.3429 0.44281 0.0
H1244 H 0.34641 0.35706 0.54226 0.0
H1245 H 0.39026 0.29501 0.50922 0.0
H1246 H 0.42729 0.2818 0.49287 0.0
H1247 H 0.44845 0.30501 0.5809 0.0
H1248 H 0.41163 0.31862 0.59755 0.0
H1249 H 0.32478 0.27351 0.69439 0.0
H1250 H 0.32723 0.27937 0.63673 0.0
H1251 H 0.34002 0.35128 0.64871 0.0
H1252 H 0.33845 0.34568 0.7055 0.0
H1253 H 0.36776 0.29669 0.60674 0.0
H1254 H 0.3316 0.38061 0.58761 0.0
H1255 H 0.29652 0.39698 0.60528 0.0
H1256 H 0.25916 0.33066 0.62369 0.0
H1257 H 0.29397 0.31385 0.6058 0.0
C1258 C 0.42603 0.36822 0.50938 0.0
C1259 C 0.42784 0.36115 0.47754 0.0
C1260 C 0.40644 0.36118 0.53111 0.0
C1261 C 0.38833 0.34701 0.52142 0.0
C1262 C 0.38917 0.34151 0.48911 0.0
C1263 C 0.40886 0.34858 0.46722 0.0
C1264 C 0.37099 0.33488 0.54628 0.0
C1265 C 0.35065 0.34353 0.55617 0.0
C1266 C 0.37654 0.31699 0.56381 0.0
C1267 C 0.39824 0.30785 0.55456 0.0
C1268 C 0.40283 0.29731 0.52504 0.0
C1269 C 0.42378 0.28977 0.51572 0.0
C1270 C 0.44022 0.29257 0.53583 0.0
C1271 C 0.43569 0.30282 0.56537 0.0
C1272 C 0.41477 0.3104 0.57479 0.0
C1273 C 0.32751 0.2906 0.68483 0.0
C1274 C 0.33209 0.30907 0.70457 0.0
C1275 C 0.32866 0.29391 0.6519 0.0
C1276 C 0.33391 0.31575 0.63832 0.0
C1277 C 0.3356 0.33427 0.65855 0.0
C1278 C 0.33472 0.33099 0.69131 0.0
C1279 C 0.34313 0.31924 0.60383 0.0
C1280 C 0.36248 0.30928 0.59223 0.0
C1281 C 0.33651 0.33586 0.58489 0.0
C1282 C 0.31546 0.34594 0.59537 0.0
C1283 C 0.31589 0.36948 0.59518 0.0
C1284 C 0.29605 0.37886 0.60534 0.0
C1285 C 0.27563 0.36487 0.61566 0.0
C1286 C 0.275 0.34147 0.61582 0.0
C1287 C 0.2948 0.33201 0.60574 0.0
H1288 H 0.26029 0.37216 0.6235 0.0
H1289 H 0.45645 0.2868 0.52853 0.0
H1290 H 0.44981 0.70701 0.45525 0.0
H1291 H 0.43766 0.71879 0.4062 0.0
H1292 H 0.46908 0.66631 0.35485 0.0
H1293 H 0.48171 0.65466 0.40384 0.0
H1294 H 0.47768 0.70437 0.3181 0.0
H1295 H 0.40944 0.6635 0.37817 0.0
H1296 H 0.37949 0.65499 0.42507 0.0
H1297 H 0.36191 0.72176 0.41946 0.0
H1298 H 0.39197 0.73076 0.37277 0.0
H1299 H 0.42545 0.70584 0.17769 0.0
H1300 H 0.43765 0.69568 0.22763 0.0
H1301 H 0.40542 0.74889 0.27571 0.0
H1302 H 0.39351 0.75946 0.22546 0.0
H1303 H 0.39721 0.71185 0.31456 0.0
H1304 H 0.46286 0.75412 0.25763 0.0
H1305 H 0.49317 0.76625 0.21238 0.0
H1306 H 0.51632 0.7017 0.21383 0.0
H1307 H 0.48591 0.68905 0.25882 0.0
C1308 C 0.45436 0.69793 0.43361 0.0
C1309 C 0.46692 0.67969 0.43421 0.0
C1310 C 0.44711 0.70463 0.4053 0.0
C1311 C 0.45206 0.69345 0.3762 0.0
C1312 C 0.46478 0.67539 0.3766 0.0
C1313 C 0.4719 0.66854 0.405 0.0
C1314 C 0.44412 0.70058 0.3456 0.0
C1315 C 0.45998 0.70557 0.31738 0.0
C1316 C 0.42118 0.70327 0.34416 0.0
C1317 C 0.4031 0.69787 0.37218 0.0
C1318 C 0.3993 0.67642 0.38709 0.0
C1319 C 0.38228 0.6715 0.41361 0.0
C1320 C 0.36885 0.68784 0.42529 0.0
C1321 C 0.37236 0.70913 0.41042 0.0
C1322 C 0.38937 0.71414 0.38392 0.0
C1323 C 0.42092 0.71549 0.19879 0.0
C1324 C 0.40843 0.73361 0.19702 0.0
C1325 C 0.42806 0.70967 0.22758 0.0
C1326 C 0.42279 0.72152 0.25602 0.0
C1327 C 0.40995 0.73938 0.25447 0.0
C1328 C 0.40314 0.74549 0.22547 0.0
C1329 C 0.4307 0.71524 0.287 0.0
C1330 C 0.41488 0.71051 0.31525 0.0
C1331 C 0.45374 0.71321 0.28866 0.0
C1332 C 0.47194 0.72054 0.26138 0.0
C1333 C 0.47427 0.74242 0.24809 0.0
C1334 C 0.49149 0.74942 0.22253 0.0
C1335 C 0.50664 0.73477 0.21021 0.0
C1336 C 0.50458 0.71305 0.22338 0.0
C1337 C 0.48734 0.70595 0.24893 0.0
H1338 H 0.52002 0.74034 0.19056 0.0
H1339 H 0.35568 0.684 0.44582 0.0
H1340 H 0.17198 0.6191 0.26227 0.0
H1341 H 0.18082 0.62091 0.20403 0.0
H1342 H 0.20345 0.69242 0.20735 0.0
H1343 H 0.19314 0.6908 0.26542 0.0
H1344 H 0.17024 0.68594 0.17738 0.0
H1345 H 0.23817 0.65432 0.1682 0.0
H1346 H 0.26424 0.62815 0.17929 0.0
H1347 H 0.22205 0.57318 0.14368 0.0
H1348 H 0.19549 0.59892 0.13285 0.0
H1349 H 0.15702 0.68734 1.01527 0.0
H1350 H 0.17861 0.68995 0.05978 0.0
H1351 H 0.1513 0.62117 0.0879 0.0
H1352 H 0.12998 0.6183 0.04309 0.0
H1353 H 0.1969 0.6322 0.09578 0.0
H1354 H 0.12522 0.66172 0.12064 0.0
H1355 H 0.09675 0.68662 0.1149 0.0
H1356 H 0.14532 0.74473 0.1253 0.0
H1357 H 0.17423 0.72013 0.13052 0.0
C1358 C 0.17962 0.635 0.25055 0.0
C1359 C 0.18161 0.65485 0.26808 0.0
C1360 C 0.18489 0.63603 0.21724 0.0
C1361 C 0.19271 0.65686 0.20121 0.0
C1362 C 0.19727 0.67621 0.21916 0.0
C1363 C 0.19137 0.67529 0.25232 0.0
C1364 C 0.19074 0.65928 0.16699 0.0
C1365 C 0.1768 0.67471 0.15929 0.0
C1366 C 0.19876 0.64422 0.14355 0.0
C1367 C 0.21477 0.62861 0.14977 0.0
C1368 C 0.23435 0.63663 0.1629 0.0
C1369 C 0.24923 0.62186 0.16913 0.0
C1370 C 0.2448 0.59902 0.1622 0.0
C1371 C 0.22548 0.5909 0.14899 0.0
C1372 C 0.21052 0.60559 0.14274 0.0
C1373 C 0.15601 0.67263 0.03053 0.0
C1374 C 0.14165 0.65269 1.026 0.0
C1375 C 0.16833 0.67416 0.05591 0.0
C1376 C 0.16642 0.65578 0.0771 0.0
C1377 C 0.15303 0.63549 0.07166 0.0
C1378 C 0.14065 0.63397 0.04637 0.0
C1379 C 0.17605 0.65843 0.10704 0.0
C1380 C 0.19121 0.64395 0.11376 0.0
C1381 C 0.16907 0.67427 0.1299 0.0
C1382 C 0.15201 0.68911 0.12533 0.0
C1383 C 0.12994 0.67982 0.12117 0.0
C1384 C 0.1137 0.69388 0.11814 0.0
C1385 C 0.11924 0.71726 0.11959 0.0
C1386 C 0.14108 0.72662 0.12398 0.0
C1387 C 0.15742 0.71264 0.1269 0.0
H1388 H 0.10659 0.7281 0.11747 0.0
H1389 H 0.25634 0.58761 0.16705 0.0
H1390 H 0.09712 0.28831 0.7862 0.0
H1391 H 0.08411 0.30033 0.84022 0.0
H1392 H 0.08684 0.23409 0.8773 0.0
H1393 H 0.10053 0.22192 0.82274 0.0
H1394 H 0.04517 0.25318 0.90357 0.0
H1395 H 0.12563 0.27267 0.89188 0.0
H1396 H 0.16354 0.28948 0.86488 0.0
H1397 H 0.1422 0.35501 0.86876 0.0
H1398 H 0.10403 0.33854 0.8953 0.0
H1399 H 0.06549 0.3201 0.06142 0.0
H1400 H 0.07995 0.30401 1.01032 0.0
H1401 H 0.01638 0.30791 0.97768 0.0
H1402 H 0.00166 0.32342 0.02906 0.0
H1403 H 0.08984 0.31669 0.9512 0.0
H1404 H 0.00514 0.27194 0.92387 0.0
H1405 H 0.96812 0.25446 0.9531 0.0
H1406 H 0.00048 0.23568 0.03048 0.0
H1407 H 0.03763 0.25341 1.0019 0.0
C1408 C 0.09504 0.27613 0.80567 0.0
C1409 C 0.09997 0.25398 0.79956 0.0
C1410 C 0.08754 0.28314 0.83684 0.0
C1411 C 0.08427 0.26827 0.86336 0.0
C1412 C 0.08902 0.24603 0.85751 0.0
C1413 C 0.09701 0.23907 0.82617 0.0
C1414 C 0.07627 0.27635 0.89679 0.0
C1415 C 0.05503 0.26703 0.9139 0.0
C1416 C 0.08894 0.29432 0.91105 0.0
C1417 C 0.11191 0.30434 0.89533 0.0
C1418 C 0.12897 0.29064 0.88674 0.0
C1419 C 0.15051 0.30011 0.87156 0.0
C1420 C 0.15526 0.32329 0.86506 0.0
C1421 C 0.13849 0.33705 0.87379 0.0
C1422 C 0.1169 0.32766 0.88892 0.0
C1423 C 0.05448 0.31751 0.04347 0.0
C1424 C 0.03222 0.32309 0.04994 0.0
C1425 C 0.06286 0.30826 1.01393 0.0
C1426 C 0.04935 0.30413 0.9896 0.0
C1427 C 0.02723 0.31013 0.99585 0.0
C1428 C 0.01879 0.31927 1.02545 0.0
C1429 C 0.05846 0.29386 0.9579 0.0
C1430 C 0.07994 0.30281 0.941 0.0
C1431 C 0.04614 0.27537 0.94402 0.0
C1432 C 0.02408 0.26406 0.96084 0.0
C1433 C 0.00434 0.26402 0.94708 0.0
C1434 C 0.98333 0.25424 0.96364 0.0
C1435 C 0.98194 0.24405 0.99369 0.0
C1436 C 0.00156 0.24366 1.00727 0.0
C1437 C 0.02258 0.25368 0.99099 0.0
H1438 H 0.96567 0.23634 1.00636 0.0
H1439 H 0.17195 0.33059 0.8533 0.0
H1440 H 0.04181 0.30339 0.15445 0.0
H1441 H 0.06457 0.28915 0.18886 0.0
H1442 H 0.00684 0.27929 0.26514 0.0
H1443 H 0.98378 0.29398 0.22942 0.0
H1444 H 0.02303 0.24586 0.27097 0.0
H1445 H 0.1057 0.29737 0.19313 0.0
H1446 H 0.13123 0.33198 0.20153 0.0
H1447 H 0.10406 0.32908 0.30167 0.0
H1448 H 0.07765 0.29504 0.29366 0.0
H1449 H 0.04068 0.21506 0.12882 0.0
H1450 H 0.04975 0.24205 0.16997 0.0
H1451 H 0.09192 0.19794 0.20388 0.0
H1452 H 0.08396 0.17148 0.16107 0.0
H1453 H 0.10013 0.25693 0.20715 0.0
H1454 H 0.04767 0.20171 0.29333 0.0
H1455 H 0.02476 0.16421 0.30409 0.0
H1456 H -0.00264 0.17024 0.21735 0.0
H1457 H 0.01963 0.20761 0.20654 0.0
C1458 C 0.03403 0.29852 0.17874 0.0
C1459 C 0.01107 0.2997 0.18919 0.0
C1460 C 0.04728 0.29069 0.19906 0.0
C1461 C 0.03801 0.28358 0.23074 0.0
C1462 C 0.01487 0.28509 0.24137 0.0
C1463 C 0.00151 0.29308 0.22075 0.0
C1464 C 0.05114 0.2701 0.24892 0.0
C1465 C 0.04019 0.24832 0.25797 0.0
C1466 C 0.07488 0.27218 0.23899 0.0
C1467 C 0.08961 0.29364 0.24277 0.0
C1468 C 0.105 0.3042 0.2169 0.0
C1469 C 0.11956 0.32381 0.22156 0.0
C1470 C 0.11926 0.33275 0.25211 0.0
C1471 C 0.1042 0.32224 0.27799 0.0
C1472 C 0.08919 0.30298 0.2733 0.0
C1473 C 0.0526 0.21155 0.14419 0.0
C1474 C 0.06069 0.19075 0.14323 0.0
C1475 C 0.05777 0.2269 0.16768 0.0
C1476 C 0.07069 0.22132 0.19067 0.0
C1477 C 0.08113 0.20189 0.18715 0.0
C1478 C 0.07629 0.18673 0.16319 0.0
C1479 C 0.06922 0.23389 0.2206 0.0
C1480 C 0.08341 0.2544 0.22155 0.0
C1481 C 0.04901 0.22985 0.24304 0.0
C1482 C 0.03581 0.20716 0.24868 0.0
C1483 C 0.03685 0.19487 0.27647 0.0
C1484 C 0.02389 0.17364 0.28265 0.0
C1485 C 0.00986 0.16459 0.26116 0.0
C1486 C 0.00857 0.17688 0.23366 0.0
C1487 C 0.0214 0.19811 0.22746 0.0
H1488 H -0.00012 0.14815 0.26598 0.0
H1489 H 0.13067 0.34783 0.25572 0.0
H1490 H 0.9593 0.81367 0.39193 0.0
H1491 H 0.98208 0.80602 0.43257 0.0
H1492 H -0.0064 0.74298 0.38804 0.0
H1493 H 0.97199 0.75123 0.34597 0.0
H1494 H 0.96855 0.74691 0.46223 0.0
H1495 H 0.03433 0.7718 0.37846 0.0
H1496 H 0.05636 0.80106 0.34082 0.0
H1497 H 0.06412 0.84611 0.41853 0.0
H1498 H 0.04125 0.81741 0.45653 0.0
H1499 H 0.04757 0.68342 0.46841 0.0
H1500 H 0.01491 0.70348 0.47949 0.0
H1501 H 0.05579 0.75815 0.5193 0.0
H1502 H 0.08867 0.73852 0.50593 0.0
H1503 H 0.0498 0.77121 0.46624 0.0
H1504 H 0.00108 0.7395 0.55095 0.0
H1505 H 0.9759 0.71662 0.59384 0.0
H1506 H 0.93175 0.69179 0.52794 0.0
H1507 H 0.95756 0.71234 0.48374 0.0
C1508 C 0.96729 0.79851 0.39019 0.0
C1509 C 0.96325 0.78249 0.36667 0.0
C1510 C 0.98012 0.79415 0.41352 0.0
C1511 C 0.98879 0.77371 0.41355 0.0
C1512 C 0.98648 0.75863 0.38853 0.0
C1513 C 0.97418 0.76329 0.3647 0.0
C1514 C -0.00084 0.7673 0.44058 0.0
C1515 C 0.98623 0.75204 0.46367 0.0
C1516 C 0.02175 0.77558 0.44311 0.0
C1517 C 0.03572 0.79263 0.42024 0.0
C1518 C 0.04042 0.78806 0.38747 0.0
C1519 C 0.05313 0.80451 0.36608 0.0
C1520 C 0.06167 0.82541 0.37726 0.0
C1521 C 0.05746 0.82992 0.40988 0.0
C1522 C 0.04455 0.81361 0.43134 0.0
C1523 C 0.0492 0.6992 0.48097 0.0
C1524 C 0.07054 0.71006 0.48535 0.0
C1525 C 0.03044 0.71063 0.48776 0.0
C1526 C 0.03316 0.73283 0.49902 0.0
C1527 C 0.05346 0.74131 0.50983 0.0
C1528 C 0.07232 0.73023 0.50201 0.0
C1529 C 0.01958 0.74887 0.48736 0.0
C1530 C 0.03173 0.76639 0.46667 0.0
C1531 C -0.00404 0.74308 0.48796 0.0
C1532 C 0.98142 0.72806 0.51365 0.0
C1533 C 0.98636 0.72875 0.54514 0.0
C1534 C 0.97194 0.71607 0.56979 0.0
C1535 C 0.95212 0.70304 0.56363 0.0
C1536 C 0.94713 0.7019 0.53258 0.0
C1537 C 0.96179 0.71398 0.50761 0.0
H1538 H 0.94057 0.69389 0.58295 0.0
H1539 H 0.07157 0.8381 0.36065 0.0
H1540 H 0.52574 0.66268 0.71199 0.0
H1541 H 0.52176 0.68113 0.76365 0.0
H1542 H 0.47503 0.72092 0.73113 0.0
H1543 H 0.47832 0.70163 0.68031 0.0
H1544 H 0.53821 0.72142 0.76957 0.0
H1545 H 0.44349 0.74418 0.78391 0.0
H1546 H 0.40491 0.72329 0.79322 0.0
H1547 H 0.43083 0.66433 0.82061 0.0
H1548 H 0.4695 0.68494 0.81275 0.0
H1549 H 0.46412 0.8016 0.72748 0.0
H1550 H 0.47221 0.78703 0.77615 0.0
H1551 H 0.53726 0.77312 0.72686 0.0
H1552 H 0.52986 0.79058 0.67844 0.0
H1553 H 0.47304 0.76017 0.81042 0.0
H1554 H 0.53676 0.78405 0.8276 0.0
H1555 H 0.57454 0.8027 0.83518 0.0
H1556 H 0.60522 0.76952 0.75318 0.0
H1557 H 0.56775 0.74992 0.7457 0.0
C1558 C 0.51459 0.67523 0.71609 0.0
C1559 C 0.50312 0.68144 0.69189 0.0
C1560 C 0.51204 0.68548 0.74572 0.0
C1561 C 0.49831 0.70249 0.7513 0.0
C1562 C 0.48543 0.70749 0.72786 0.0
C1563 C 0.48762 0.6968 0.6985 0.0
C1564 C 0.50149 0.71871 0.77702 0.0
C1565 C 0.52362 0.72994 0.77721 0.0
C1566 C 0.48301 0.72875 0.79279 0.0
C1567 C 0.45954 0.71634 0.79826 0.0
C1568 C 0.44101 0.72691 0.79266 0.0
C1569 C 0.41905 0.71503 0.79754 0.0
C1570 C 0.41537 0.69249 0.80773 0.0
C1571 C 0.43364 0.68177 0.81294 0.0
C1572 C 0.45561 0.69357 0.80833 0.0
C1573 C 0.48034 0.79566 0.72701 0.0
C1574 C 0.49651 0.79753 0.69912 0.0
C1575 C 0.48503 0.78715 0.75533 0.0
C1576 C 0.50541 0.77854 0.75655 0.0
C1577 C 0.52148 0.77988 0.72799 0.0
C1578 C 0.51712 0.78945 0.69971 0.0
C1579 C 0.50749 0.76436 0.78509 0.0
C1580 C 0.48705 0.75172 0.79982 0.0
C1581 C 0.52666 0.75311 0.78328 0.0
C1582 C 0.54931 0.76557 0.78601 0.0
C1583 C 0.55152 0.78083 0.81099 0.0
C1584 C 0.57292 0.79148 0.81539 0.0
C1585 C 0.59225 0.78753 0.79447 0.0
C1586 C 0.59023 0.77261 0.76934 0.0
C1587 C 0.56891 0.7615 0.76524 0.0
H1588 H 0.60878 0.79592 0.79784 0.0
H1589 H 0.39837 0.68335 0.81155 0.0
H1590 H 0.57738 0.24017 1.01485 0.0
H1591 H 0.55072 0.26736 0.03004 0.0
H1592 H 0.53513 0.2662 0.93387 0.0
H1593 H 0.56115 0.23883 0.91899 0.0
H1594 H 0.50311 0.25549 1.02177 0.0
H1595 H 0.55689 0.31752 1.00647 0.0
H1596 H 0.59307 0.34109 0.98566 0.0
H1597 H 0.57326 0.34318 0.89279 0.0
H1598 H 0.53716 0.3193 0.91274 0.0
H1599 H 0.44249 0.31952 0.90352 0.0
H1600 H 0.46011 0.32105 0.95132 0.0
H1601 H 0.47158 0.25191 0.93823 0.0
H1602 H 0.45312 0.2501 0.89054 0.0
H1603 H 0.50202 0.31885 0.94735 0.0
H1604 H 0.47076 0.22788 0.98721 0.0
H1605 H 0.44024 0.20245 1.02033 0.0
H1606 H 0.41915 0.25875 0.07411 0.0
H1607 H 0.44967 0.28428 0.04123 0.0
C1608 C 0.5682 0.2459 0.9971 0.0
C1609 C 0.57082 0.2374 0.96596 0.0
C1610 C 0.55335 0.26154 1.00567 0.0
C1611 C 0.54162 0.26916 0.98281 0.0
C1612 C 0.54462 0.2609 0.95155 0.0
C1613 C 0.55902 0.24496 0.94323 0.0
C1614 C 0.523 0.2823 0.9918 0.0
C1615 C 0.50269 0.26984 1.00635 0.0
C1616 C 0.52257 0.30194 0.97384 0.0
C1617 C 0.54406 0.31679 0.96134 0.0
C1618 C 0.5602 0.32301 0.9816 0.0
C1619 C 0.58075 0.3364 0.96992 0.0
C1620 C 0.58541 0.34372 0.93796 0.0
C1621 C 0.56955 0.33762 0.9176 0.0
C1622 C 0.54897 0.32421 0.92914 0.0
C1623 C 0.44842 0.30442 0.91102 0.0
C1624 C 0.44616 0.28447 0.89342 0.0
C1625 C 0.45815 0.30529 0.93875 0.0
C1626 C 0.46647 0.28642 0.94917 0.0
C1627 C 0.46426 0.2664 0.93167 0.0
C1628 C 0.45414 0.26543 0.90401 0.0
C1629 C 0.48257 0.28925 0.97231 0.0
C1630 C 0.50207 0.3053 0.96424 0.0
C1631 C 0.48236 0.27282 0.99623 0.0
C1632 C 0.46167 0.25815 1.01089 0.0
C1633 C 0.45904 0.23489 1.0053 0.0
C1634 C 0.44193 0.22042 1.02425 0.0
C1635 C 0.42756 0.22904 0.04901 0.0
C1636 C 0.43008 0.25213 0.05463 0.0
C1637 C 0.44706 0.26664 0.0356 0.0
H1638 H 0.41467 0.21785 0.06417 0.0
H1639 H 0.60134 0.35407 0.92895 0.0
H1640 H 0.97708 0.80579 0.86771 0.0
H1641 H 0.94701 0.78139 0.84878 0.0
H1642 H 0.9164 0.76469 0.9474 0.0
H1643 H 0.94611 0.7898 0.9652 0.0
H1644 H 0.9258 0.75175 0.83387 0.0
H1645 H 0.90204 0.71259 0.97038 0.0
H1646 H 0.86987 0.71585 1.01239 0.0
H1647 H 0.84047 0.75454 0.94898 0.0
H1648 H 0.87213 0.75109 0.90585 0.0
H1649 H 6e-05 0.70705 0.93293 0.0
H1650 H 0.96518 0.72156 0.92526 0.0
H1651 H 0.95924 0.67806 0.84467 0.0
H1652 H -0.00525 0.66485 0.85085 0.0
H1653 H 0.92019 0.69992 0.92587 0.0
H1654 H 0.9313 0.69374 0.80438 0.0
H1655 H 0.95654 0.69085 0.75302 0.0
H1656 H 0.00409 0.7452 0.77947 0.0
H1657 H 0.97915 0.74819 0.83111 0.0
C1658 C 0.9636 0.797 0.8851 0.0
C1659 C 0.96431 0.79894 0.9178 0.0
C1660 C 0.94608 0.78277 0.87437 0.0
C1661 C 0.92935 0.76917 0.89616 0.0
C1662 C 0.92904 0.77339 0.92912 0.0
C1663 C 0.94642 0.78782 0.93971 0.0
C1664 C 0.91659 0.74771 0.88519 0.0
C1665 C 0.92492 0.74072 0.8544 0.0
C1666 C 0.90917 0.72995 0.90811 0.0
C1667 C 0.88961 0.73122 0.93422 0.0
C1668 C 0.88858 0.72132 0.96472 0.0
C1669 C 0.87039 0.72334 0.989 0.0
C1670 C 0.85309 0.7353 0.98333 0.0
C1671 C 0.85388 0.74524 0.95333 0.0
C1672 C 0.87197 0.74324 0.92891 0.0
C1673 C 0.99155 0.70105 0.91319 0.0
C1674 C 0.00013 0.68503 0.89239 0.0
C1675 C 0.97143 0.70896 0.90911 0.0
C1676 C 0.95952 0.70084 0.88436 0.0
C1677 C 0.96821 0.6849 0.86351 0.0
C1678 C 0.98852 0.67736 0.86717 0.0
C1679 C 0.93901 0.71062 0.87974 0.0
C1680 C 0.92209 0.71199 0.90634 0.0
C1681 C 0.93829 0.72324 0.85181 0.0
C1682 C 0.95354 0.72107 0.82146 0.0
C1683 C 0.94718 0.705 0.79917 0.0
C1684 C 0.96141 0.70336 0.77006 0.0
C1685 C 0.98188 0.71791 0.76294 0.0
C1686 C 0.98824 0.73397 0.78502 0.0
C1687 C 0.97411 0.73561 0.81422 0.0
H1688 H -0.00717 0.71674 0.74032 0.0
H1689 H 0.83911 0.73695 1.00225 0.0
H1690 H 0.55825 0.69453 0.18158 0.0
H1691 H 0.53296 0.70107 0.1437 0.0
H1692 H 0.57011 0.76783 0.12313 0.0
H1693 H 0.59196 0.76269 0.16536 0.0
H1694 H 0.53265 0.77065 0.11737 0.0
H1695 H 0.57619 0.70983 0.08393 0.0
H1696 H 0.58626 0.67232 0.09381 0.0
H1697 H 0.51815 0.64234 0.08751 0.0
H1698 H 0.50767 0.67985 0.07873 0.0
H1699 H 0.45846 0.78431 0.03088 0.0
H1700 H 0.49608 0.77304 1.01396 0.0
H1701 H 0.47528 0.71173 0.07047 0.0
H1702 H 0.4382 0.72234 0.08629 0.0
H1703 H 0.51698 0.71155 0.03858 0.0
H1704 H 0.48018 0.76657 0.12348 0.0
H1705 H 0.45932 0.79937 0.13072 0.0
H1706 H 0.50324 0.83314 0.05013 0.0
H1707 H 0.52439 0.80034 0.04262 0.0
C1708 C 0.56041 0.7108 0.1695 0.0
C1709 C 0.57743 0.72799 0.17541 0.0
C1710 C 0.54643 0.71434 0.14724 0.0
C1711 C 0.55076 0.73434 0.12859 0.0
C1712 C 0.56678 0.75198 0.13637 0.0
C1713 C 0.57939 0.74906 0.16042 0.0
C1714 C 0.53855 0.73744 0.10145 0.0
C1715 C 0.53003 0.75789 0.09958 0.0
C1716 C 0.53441 0.7206 0.07849 0.0
C1717 C 0.54135 0.6978 0.08028 0.0
C1718 C 0.56361 0.69523 0.08391 0.0
C1719 C 0.56922 0.67399 0.09001 0.0
C1720 C 0.55282 0.65493 0.09133 0.0
C1721 C 0.53084 0.65712 0.08647 0.0
C1722 C 0.52506 0.67843 0.0811 0.0
C1723 C 0.46176 0.76799 0.03845 0.0
C1724 C 0.44625 0.75484 0.06168 0.0
C1725 C 0.4831 0.76142 0.02846 0.0
C1726 C 0.48894 0.74264 0.04346 0.0
C1727 C 0.47152 0.72691 0.05979 0.0
C1728 C 0.45027 0.73321 0.06942 0.0
C1729 C 0.51075 0.74424 0.05565 0.0
C1730 C 0.52126 0.72474 0.0551 0.0
C1731 C 0.51592 0.76135 0.07762 0.0
C1732 C 0.50378 0.78122 0.08246 0.0
C1733 C 0.48547 0.78111 0.10752 0.0
C1734 C 0.47359 0.79962 0.11163 0.0
C1735 C 0.48 0.81835 0.09092 0.0
C1736 C 0.4984 0.81865 0.0662 0.0
C1737 C 0.51038 0.8002 0.06209 0.0
H1738 H 0.4707 0.8326 0.09399 0.0
H1739 H 0.55713 0.63847 0.09614 0.0
H1740 H 0.55261 0.2139 0.36558 0.0
H1741 H 0.5355 0.23449 0.32849 0.0
H1742 H 0.47986 0.17996 0.3333 0.0
H1743 H 0.49507 0.16173 0.37476 0.0
H1744 H 0.52169 0.23558 0.27576 0.0
H1745 H 0.43364 0.20097 0.31636 0.0
H1746 H 0.40754 0.17525 0.3554 0.0
H1747 H 0.4478 0.19587 0.42829 0.0
H1748 H 0.4738 0.22212 0.38974 0.0
H1749 H 0.45559 0.31819 0.3837 0.0
H1750 H 0.45283 0.2963 0.33512 0.0
H1751 H 0.51991 0.27908 0.33712 0.0
H1752 H 0.52251 0.30079 0.38494 0.0
H1753 H 0.45025 0.25411 0.33798 0.0
H1754 H 0.54735 0.27061 0.28168 0.0
H1755 H 0.57254 0.29945 0.24647 0.0
H1756 H 0.5148 0.32112 0.2142 0.0
H1757 H 0.48932 0.29192 0.24885 0.0
C1758 C 0.53657 0.20655 0.35894 0.0
C1759 C 0.52478 0.18656 0.3736 0.0
C1760 C 0.52696 0.21801 0.33711 0.0
C1761 C 0.50586 0.20907 0.32845 0.0
C1762 C 0.49555 0.18773 0.34043 0.0
C1763 C 0.5043 0.17722 0.36406 0.0
C1764 C 0.4933 0.22417 0.31245 0.0
C1765 C 0.50596 0.23961 0.28924 0.0
C1766 C 0.47137 0.22847 0.32672 0.0
C1767 C 0.4559 0.21294 0.35006 0.0
C1768 C 0.43695 0.19986 0.34067 0.0
C1769 C 0.42214 0.1853 0.36273 0.0
C1770 C 0.42617 0.1837 0.39421 0.0
C1771 C 0.44479 0.197 0.40385 0.0
C1772 C 0.45947 0.21181 0.38199 0.0
C1773 C 0.46982 0.30994 0.37325 0.0
C1774 C 0.48928 0.31106 0.38792 0.0
C1775 C 0.46841 0.29785 0.34519 0.0
C1776 C 0.48635 0.28646 0.33163 0.0
C1777 C 0.50611 0.28837 0.34595 0.0
C1778 C 0.50745 0.30037 0.37389 0.0
C1779 C 0.48231 0.26742 0.30988 0.0
C1780 C 0.46557 0.25001 0.32336 0.0
C1781 C 0.50075 0.26165 0.28803 0.0
C1782 C 0.51636 0.27923 0.26786 0.0
C1783 C 0.54001 0.28143 0.26696 0.0
C1784 C 0.55436 0.29784 0.24713 0.0
C1785 C 0.54526 0.31206 0.22805 0.0
C1786 C 0.52181 0.31011 0.22903 0.0
C1787 C 0.50742 0.29374 0.24883 0.0
H1788 H 0.55633 0.32455 0.2124 0.0
H1789 H 0.41479 0.17227 0.41116 0.0
H1790 H 0.0757 0.18605 0.64516 0.0
H1791 H 0.06228 0.19721 0.59773 0.0
H1792 H 0.0488 0.26025 0.64163 0.0
H1793 H 0.06382 0.24938 0.68869 0.0
H1794 H 0.06944 0.27013 0.58573 0.0
H1795 H 0.04723 0.19399 0.52978 0.0
H1796 H 0.03762 0.15261 0.53604 0.0
H1797 H -0.00666 0.16051 0.62409 0.0
H1798 H 0.00276 0.20197 0.61824 0.0
H1799 H 0.9461 0.2602 0.54474 0.0
H1800 H 0.98485 0.25605 0.52055 0.0
H1801 H 0.00924 0.28575 0.60403 0.0
H1802 H 0.97092 0.29036 0.62748 0.0
H1803 H 0.00397 0.22755 0.54466 0.0
H1804 H 0.05692 0.30463 0.60131 0.0
H1805 H 0.06475 0.34565 0.59217 0.0
H1806 H 0.04577 0.33798 0.49884 0.0
H1807 H 0.03769 0.29683 0.5073 0.0
C1808 C 0.06937 0.2021 0.64501 0.0
C1809 C 0.07148 0.21728 0.67008 0.0
C1810 C 0.06144 0.20845 0.61771 0.0
C1811 C 0.05481 0.22984 0.61538 0.0
C1812 C 0.0547 0.24399 0.64207 0.0
C1813 C 0.06305 0.23779 0.66914 0.0
C1814 C 0.04808 0.23815 0.58572 0.0
C1815 C 0.05505 0.26095 0.57671 0.0
C1816 C 0.03167 0.22551 0.5699 0.0
C1817 C 0.02573 0.20086 0.57368 0.0
C1818 C 0.03539 0.18682 0.55039 0.0
C1819 C 0.03003 0.1634 0.55389 0.0
C1820 C 0.0149 0.15393 0.58047 0.0
C1821 C 0.00507 0.16787 0.60356 0.0
C1822 C 0.0104 0.19131 0.60019 0.0
C1823 C 0.95992 0.26633 0.55744 0.0
C1824 C 0.95567 0.27501 0.58834 0.0
C1825 C 0.98205 0.26428 0.54335 0.0
C1826 C 0.00013 0.27066 0.56017 0.0
C1827 C -0.00414 0.28117 0.58991 0.0
C1828 C 0.97382 0.28338 0.60381 0.0
C1829 C 0.02138 0.26065 0.55256 0.0
C1830 C 0.0187 0.237 0.55266 0.0
C1831 C 0.04175 0.27254 0.55996 0.0
C1832 C 0.04707 0.29741 0.55473 0.0
C1833 C 0.05472 0.31154 0.57859 0.0
C1834 C 0.05898 0.3349 0.57365 0.0
C1835 C 0.0558 0.34442 0.5449 0.0
C1836 C 0.04826 0.33059 0.52107 0.0
C1837 C 0.04375 0.30723 0.52598 0.0
H1838 H 0.05916 0.36252 0.54111 0.0
H1839 H 0.01077 0.1358 0.58316 0.0
H1840 H 0.00282 0.08224 0.08326 0.0
H1841 H -0.00354 0.04944 0.04895 0.0
H1842 H 0.05324 0.02304 0.07818 0.0
H1843 H 0.05986 0.05571 0.11153 0.0
H1844 H 0.05497 0.01674 1.01755 0.0
H1845 H -0.00445 0.00229 0.10832 0.0
H1846 H 0.96247 0.01048 0.14648 0.0
H1847 H 0.92438 0.0137 0.06943 0.0
H1848 H 0.95735 0.0058 0.03075 0.0
H1849 H 0.03201 0.90317 0.96363 0.0
H1850 H 0.03819 0.93651 0.99699 0.0
H1851 H 0.98221 0.9627 0.96506 0.0
H1852 H 0.97587 0.92955 0.93237 0.0
H1853 H 0.97989 0.96933 1.02649 0.0
H1854 H 0.03925 0.98323 0.93584 0.0
H1855 H 0.07236 0.97499 0.89779 0.0
H1856 H 0.11064 0.97275 0.97482 0.0
H1857 H 0.07763 0.98069 1.0134 0.0
C1858 C 0.01395 0.06945 0.08224 0.0
C1859 C 0.03178 0.07162 0.10034 0.0
C1860 C 0.01024 0.05058 0.06273 0.0
C1861 C 0.02418 0.03336 0.06106 0.0
C1862 C 0.04218 0.03587 0.0788 0.0
C1863 C 0.0459 0.05463 0.09808 0.0
C1864 C 0.02025 0.01268 0.04119 0.0
C1865 C 0.03857 0.00628 1.01986 0.0
C1866 C -0.00117 -0.001 0.04342 0.0
C1867 C 0.97899 0.00369 0.06662 0.0
C1868 C 0.98017 0.0049 0.0995 0.0
C1869 C 0.96144 0.00947 0.12122 0.0
C1870 C 0.94136 0.01267 0.11037 0.0
C1871 C 0.93996 0.01125 0.07779 0.0
C1872 C 0.95866 0.00672 0.05596 0.0
C1873 C 0.02104 0.91605 0.96381 0.0
C1874 C 0.00352 0.91368 0.94516 0.0
C1875 C 0.02463 0.93521 0.9828 0.0
C1876 C 0.01083 0.95248 0.98347 0.0
C1877 C -0.00685 0.94981 0.96517 0.0
C1878 C 0.98959 0.93078 0.9463 0.0
C1879 C 0.01463 0.97337 1.00296 0.0
C1880 C -0.00371 0.9798 1.02419 0.0
C1881 C 0.03604 0.98706 1.00067 0.0
C1882 C 0.05589 0.98231 0.97754 0.0
C1883 C 0.05467 0.9808 0.94469 0.0
C1884 C 0.07342 0.97622 0.92303 0.0
C1885 C 0.09356 0.97328 0.93389 0.0
C1886 C 0.09501 0.97499 0.96644 0.0
C1887 C 0.07629 0.97954 0.98822 0.0
H1888 H 0.10807 0.96974 0.91708 0.0
H1889 H 0.92687 0.0162 0.12723 0.0
H1890 H 0.17309 0.70053 0.3617 0.0
H1891 H 0.20369 0.70191 0.31581 0.0
H1892 H 0.24071 0.75861 0.35694 0.0
H1893 H 0.20945 0.75777 0.40154 0.0
H1894 H 0.24341 0.76912 0.30063 0.0
H1895 H 0.25375 0.69986 0.34818 0.0
H1896 H 0.24358 0.66093 0.36961 0.0
H1897 H 0.22969 0.63782 0.27774 0.0
H1898 H 0.23943 0.67663 0.25586 0.0
H1899 H 0.34947 0.76683 0.19221 0.0
H1900 H 0.31866 0.76638 0.2379 0.0
H1901 H 0.27518 0.72041 0.18814 0.0
H1902 H 0.30583 0.72139 0.14235 0.0
H1903 H 0.27605 0.70463 0.24774 0.0
H1904 H 0.26652 0.77512 0.2015 0.0
H1905 H 0.2768 0.81445 0.18176 0.0
H1906 H 0.29171 0.83523 0.27414 0.0
H1907 H 0.2822 0.79591 0.2942 0.0
C1908 C 0.1881 0.71273 0.36129 0.0
C1909 C 0.18904 0.72863 0.3856 0.0
C1910 C 0.20568 0.7137 0.33485 0.0
C1911 C 0.22496 0.73039 0.33235 0.0
C1912 C 0.2262 0.74563 0.35763 0.0
C1913 C 0.20841 0.74494 0.38354 0.0
C1914 C 0.24309 0.73311 0.3029 0.0
C1915 C 0.25079 0.75493 0.28961 0.0
C1916 C 0.25257 0.71474 0.28737 0.0
C1917 C 0.24684 0.69131 0.30054 0.0
C1918 C 0.24827 0.68654 0.33262 0.0
C1919 C 0.24264 0.66446 0.34484 0.0
C1920 C 0.23588 0.64693 0.3251 0.0
C1921 C 0.23486 0.65142 0.29305 0.0
C1922 C 0.24039 0.67347 0.28075 0.0
C1923 C 0.33294 0.75765 0.19038 0.0
C1924 C 0.32974 0.74511 0.16294 0.0
C1925 C 0.31538 0.75706 0.21677 0.0
C1926 C 0.29434 0.74342 0.21669 0.0
C1927 C 0.29108 0.73118 0.18898 0.0
C1928 C 0.30853 0.73198 0.16255 0.0
C1929 C 0.27636 0.74054 0.24603 0.0
C1930 C 0.2687 0.71872 0.25913 0.0
C1931 C 0.26724 0.75892 0.26176 0.0
C1932 C 0.27385 0.78246 0.24927 0.0
C1933 C 0.27232 0.78799 0.21749 0.0
C1934 C 0.27795 0.81032 0.20626 0.0
C1935 C 0.28484 0.82734 0.2267 0.0
C1936 C 0.28625 0.82205 0.25837 0.0
C1937 C 0.28086 0.79972 0.26963 0.0
H1938 H 0.28916 0.84461 0.21797 0.0
H1939 H 0.2315 0.62985 0.33462 0.0
H1940 H 0.49238 0.07855 0.50462 0.0
H1941 H 0.49508 0.04346 0.53144 0.0
H1942 H 0.55265 0.03335 0.46119 0.0
H1943 H 0.54971 0.0689 0.43356 0.0
H1944 H 0.52343 0.99469 0.47222 0.0
H1945 H 0.55784 0.04803 0.53923 0.0
H1946 H 0.56118 0.08212 0.57177 0.0
H1947 H 0.5015 0.05463 0.63651 0.0
H1948 H 0.49738 0.02061 0.60386 0.0
H1949 H 0.54937 0.90256 0.55952 0.0
H1950 H 0.54934 0.93819 0.53184 0.0
H1951 H 0.49131 0.95127 0.5991 0.0
H1952 H 0.49138 0.91526 0.62728 0.0
H1953 H 0.52251 0.98879 0.58923 0.0
H1954 H 0.48754 0.93611 0.51984 0.0
H1955 H 0.48301 0.90382 0.48399 0.0
H1956 H 0.54472 0.93074 0.42304 0.0
H1957 H 0.54984 0.96302 0.45867 0.0
C1958 C 0.50583 0.06906 0.49486 0.0
C1959 C 0.52083 0.07669 0.46679 0.0
C1960 C 0.50741 0.04889 0.51046 0.0
C1961 C 0.52421 0.03557 0.49881 0.0
C1962 C 0.53952 0.04322 0.4709 0.0
C1963 C 0.53796 0.06365 0.45516 0.0
C1964 C 0.52489 0.0134 0.51535 0.0
C1965 C 0.5237 0.9935 0.49771 0.0
C1966 C 0.52457 0.0115 0.54889 0.0
C1967 C 0.5272 0.0318 0.56892 0.0
C1968 C 0.54532 0.04929 0.56028 0.0
C1969 C 0.54737 0.06861 0.57876 0.0
C1970 C 0.53159 0.07053 0.60621 0.0
C1971 C 0.51372 0.05312 0.61524 0.0
C1972 C 0.51151 0.03382 0.59673 0.0
C1973 C 0.53642 0.91288 0.56842 0.0
C1974 C 0.52038 0.90592 0.59579 0.0
C1975 C 0.53638 0.93334 0.55234 0.0
C1976 C 0.52023 0.94764 0.56295 0.0
C1977 C 0.504 0.94068 0.59022 0.0
C1978 C 0.50396 0.92 0.60631 0.0
C1979 C 0.52091 0.97001 0.54608 0.0
C1980 C 0.52236 0.98997 0.56371 0.0
C1981 C 0.52161 0.97198 0.51247 0.0
C1982 C 0.51916 0.95192 0.49206 0.0
C1983 C 0.50031 0.93499 0.49903 0.0
C1984 C 0.49759 0.91673 0.4787 0.0
C1985 C 0.51353 0.91531 0.45125 0.0
C1986 C 0.53237 0.93193 0.44428 0.0
C1987 C 0.53519 0.95019 0.46452 0.0
H1988 H 0.51123 0.90143 0.43522 0.0
H1989 H 0.53322 0.0855 0.62049 0.0
H1990 H 0.32982 0.26283 0.8653 0.0
H1991 H 0.29545 0.26517 0.84194 0.0
H1992 H 0.31396 0.21489 0.77353 0.0
H1993 H 0.34845 0.21271 0.79661 0.0
H1994 H 0.2992 0.24941 0.74514 0.0
H1995 H 0.27304 0.20147 0.83828 0.0
H1996 H 0.26788 0.19131 0.89563 0.0
H1997 H 0.23119 0.24722 0.91857 0.0
H1998 H 0.2364 0.25791 0.86138 0.0
H1999 H 0.19166 0.22736 0.69034 0.0
H2000 H 0.22588 0.22275 0.71308 0.0
H2001 H 0.20898 0.2712 0.78521 0.0
H2002 H 0.1748 0.27559 0.76289 0.0
H2003 H 0.22284 0.23627 0.81143 0.0
H2004 H 0.25126 0.2861 0.72034 0.0
H2005 H 0.25708 0.29781 0.66349 0.0
H2006 H 0.28929 0.23941 0.63741 0.0
H2007 H 0.28356 0.22731 0.69415 0.0
C2008 C 0.32662 0.25239 0.84515 0.0
C2009 C 0.34186 0.2376 0.83278 0.0
C2010 C 0.30687 0.25361 0.83195 0.0
C2011 C 0.30188 0.24001 0.80615 0.0
C2012 C 0.31732 0.2255 0.79347 0.0
C2013 C 0.337 0.2242 0.80677 0.0
C2014 C 0.28067 0.24092 0.79229 0.0
C2015 C 0.2825 0.24619 0.75958 0.0
C2016 C 0.2588 0.23725 0.81116 0.0
C2017 C 0.25544 0.2307 0.84556 0.0
C2018 C 0.26408 0.21174 0.85557 0.0
C2019 C 0.26113 0.20587 0.88806 0.0
C2020 C 0.2494 0.21874 0.91075 0.0
C2021 C 0.2404 0.23736 0.90098 0.0
C2022 C 0.24333 0.24331 0.86853 0.0
C2023 C 0.19519 0.23688 0.71117 0.0
C2024 C 0.18052 0.25184 0.72479 0.0
C2025 C 0.21486 0.23438 0.72403 0.0
C2026 C 0.22025 0.24683 0.75073 0.0
C2027 C 0.20532 0.26144 0.76461 0.0
C2028 C 0.1858 0.26401 0.75171 0.0
C2029 C 0.24139 0.24482 0.7643 0.0
C2030 C 0.23954 0.23935 0.79696 0.0
C2031 C 0.26325 0.24843 0.74547 0.0
C2032 C 0.26669 0.25564 0.71139 0.0
C2033 C 0.25941 0.27567 0.70244 0.0
C2034 C 0.26275 0.2824 0.67026 0.0
C2035 C 0.27339 0.26927 0.64683 0.0
C2036 C 0.28091 0.24948 0.65557 0.0
C2037 C 0.27768 0.24271 0.68773 0.0
H2038 H 0.2759 0.27446 0.62191 0.0
H2039 H 0.24708 0.21413 0.93588 0.0
H2040 H 0.69294 0.20619 0.89629 0.0
H2041 H 0.72376 0.20355 0.85099 0.0
H2042 H 0.70998 0.26496 0.80991 0.0
H2043 H 0.67957 0.26749 0.85423 0.0
H2044 H 0.71897 0.23733 0.76326 0.0
H2045 H 0.75495 0.26305 0.85354 0.0
H2046 H 0.76385 0.26055 0.90821 0.0
H2047 H 0.79044 0.19853 0.88579 0.0
H2048 H 0.78144 0.20055 0.83108 0.0
H2049 H 0.82371 0.26898 0.65432 0.0
H2050 H 0.79096 0.26828 0.69755 0.0
H2051 H 0.80815 0.20798 0.7374 0.0
H2052 H 0.84072 0.20893 0.69526 0.0
H2053 H 0.79693 0.23347 0.78436 0.0
H2054 H 0.76303 0.2089 0.69287 0.0
H2055 H 0.7542 0.21147 0.63822 0.0
H2056 H 0.72368 0.27112 0.66248 0.0
H2057 H 0.73262 0.26909 0.71721 0.0
C2058 C 0.69644 0.219 0.87747 0.0
C2059 C 0.68386 0.23721 0.87931 0.0
C2060 C 0.71417 0.21757 0.85155 0.0
C2061 C 0.71965 0.23426 0.82684 0.0
C2062 C 0.70641 0.25185 0.82831 0.0
C2063 C 0.68896 0.25332 0.85402 0.0
C2064 C 0.73946 0.23426 0.79996 0.0
C2065 C 0.73604 0.23666 0.76801 0.0
C2066 C 0.76186 0.23305 0.80554 0.0
C2067 C 0.76729 0.23182 0.83837 0.0
C2068 C 0.76254 0.2488 0.86036 0.0
C2069 C 0.76763 0.24748 0.89133 0.0
C2070 C 0.77764 0.22936 0.9005 0.0
C2071 C 0.78264 0.21254 0.87868 0.0
C2072 C 0.77756 0.21376 0.84768 0.0
C2073 C 0.82048 0.25563 0.67234 0.0
C2074 C 0.83496 0.23902 0.67107 0.0
C2075 C 0.80162 0.25513 0.69707 0.0
C2076 C 0.79667 0.2379 0.721 0.0
C2077 C 0.81132 0.22151 0.71963 0.0
C2078 C 0.83003 0.22205 0.69519 0.0
C2079 C 0.77652 0.23667 0.74761 0.0
C2080 C 0.77987 0.23405 0.77953 0.0
C2081 C 0.75407 0.23769 0.74195 0.0
C2082 C 0.74873 0.23899 0.70905 0.0
C2083 C 0.75467 0.22272 0.68646 0.0
C2084 C 0.74961 0.22406 0.65547 0.0
C2085 C 0.73848 0.24151 0.64683 0.0
C2086 C 0.73236 0.25765 0.66918 0.0
C2087 C 0.7374 0.2564 0.7002 0.0
H2088 H 0.73452 0.24248 0.62287 0.0
H2089 H 0.78158 0.22837 0.92448 0.0
H2090 H 0.83825 0.75609 0.3688 0.0
H2091 H 0.80301 0.75819 0.34749 0.0
H2092 H 0.82263 0.71186 0.27352 0.0
H2093 H 0.85789 0.71019 0.29434 0.0
H2094 H 0.80839 0.74334 0.24683 0.0
H2095 H 0.77479 0.69698 0.33989 0.0
H2096 H 0.76753 0.6866 0.39738 0.0
H2097 H 0.74236 0.74934 0.41955 0.0
H2098 H 0.74915 0.7599 0.36216 0.0
H2099 H 0.70121 0.72934 0.1902 0.0
H2100 H 0.73445 0.72246 0.21383 0.0
H2101 H 0.7214 0.77374 0.28323 0.0
H2102 H 0.68817 0.78032 0.26011 0.0
H2103 H 0.73182 0.73816 0.31165 0.0
H2104 H 0.76432 0.78356 0.21772 0.0
H2105 H 0.77122 0.79321 0.16009 0.0
H2106 H 0.79932 0.73177 0.13951 0.0
H2107 H 0.79237 0.72165 0.19702 0.0
C2108 C 0.83491 0.74627 0.34813 0.0
C2109 C 0.85096 0.73317 0.33309 0.0
C2110 C 0.81457 0.74721 0.33614 0.0
C2111 C 0.80984 0.73506 0.30883 0.0
C2112 C 0.82574 0.72156 0.29439 0.0
C2113 C 0.84594 0.72055 0.30642 0.0
C2114 C 0.7891 0.73729 0.29417 0.0
C2115 C 0.79162 0.74184 0.26108 0.0
C2116 C 0.76709 0.73573 0.31244 0.0
C2117 C 0.76267 0.7293 0.34684 0.0
C2118 C 0.76775 0.70856 0.35707 0.0
C2119 C 0.76365 0.70262 0.3896 0.0
C2120 C 0.7546 0.71735 0.4121 0.0
C2121 C 0.74945 0.73798 0.4021 0.0
C2122 C 0.75325 0.74387 0.36957 0.0
C2123 C 0.70538 0.73901 0.21061 0.0
C2124 C 0.69202 0.75534 0.2233 0.0
C2125 C 0.7245 0.73521 0.22398 0.0
C2126 C 0.73069 0.74774 0.25022 0.0
C2127 C 0.71712 0.76385 0.26303 0.0
C2128 C 0.69815 0.76768 0.24965 0.0
C2129 C 0.75117 0.74421 0.26455 0.0
C2130 C 0.74858 0.73946 0.29752 0.0
C2131 C 0.7731 0.74551 0.24615 0.0
C2132 C 0.77746 0.75167 0.21161 0.0
C2133 C 0.77176 0.77201 0.20087 0.0
C2134 C 0.7757 0.77757 0.16823 0.0
C2135 C 0.78546 0.76298 0.14612 0.0
C2136 C 0.79156 0.74294 0.15664 0.0
C2137 C 0.78767 0.73731 0.18926 0.0
H2138 H 0.78849 0.76729 0.12086 0.0
H2139 H 0.75152 0.71278 0.43728 0.0
H2140 H 0.52861 0.60215 0.56151 0.0
H2141 H 0.5232 0.56962 0.52656 0.0
H2142 H 0.52236 0.52454 0.60612 0.0
H2143 H 0.52773 0.55681 0.64086 0.0
H2144 H 0.54833 0.51142 0.55324 0.0
H2145 H 0.47299 0.53298 0.57845 0.0
H2146 H 0.44571 0.56029 0.58085 0.0
H2147 H 0.46156 0.57045 0.47899 0.0
H2148 H 0.48911 0.54336 0.47604 0.0
H2149 H 0.5079 0.40724 0.48546 0.0
H2150 H 0.51441 0.44024 0.51896 0.0
H2151 H 0.50122 0.48307 0.44417 0.0
H2152 H 0.49327 0.44998 0.41192 0.0
H2153 H 0.48314 0.49831 0.49406 0.0
H2154 H 0.5579 0.4782 0.46636 0.0
H2155 H 0.5874 0.45314 0.46146 0.0
H2156 H 0.57587 0.44275 0.56336 0.0
H2157 H 0.54612 0.46757 0.56883 0.0
C2158 C 0.52712 0.5853 0.57153 0.0
C2159 C 0.5285 0.58213 0.60405 0.0
C2160 C 0.52403 0.56666 0.55154 0.0
C2161 C 0.52222 0.54443 0.56361 0.0
C2162 C 0.52375 0.54138 0.59604 0.0
C2163 C 0.52674 0.55992 0.61597 0.0
C2164 C 0.51863 0.52428 0.54283 0.0
C2165 C 0.53395 0.50844 0.54053 0.0
C2166 C 0.50027 0.52054 0.5254 0.0
C2167 C 0.48322 0.53628 0.52706 0.0
C2168 C 0.4707 0.5411 0.55658 0.0
C2169 C 0.45519 0.55653 0.55804 0.0
C2170 C 0.45194 0.56713 0.5301 0.0
C2171 C 0.4641 0.56223 0.50062 0.0
C2172 C 0.47963 0.54681 0.49903 0.0
C2173 C 0.50664 0.42374 0.47615 0.0
C2174 C 0.50029 0.42598 0.44591 0.0
C2175 C 0.51046 0.44274 0.49527 0.0
C2176 C 0.50881 0.46459 0.48416 0.0
C2177 C 0.50262 0.46666 0.45371 0.0
C2178 C 0.4982 0.44765 0.43508 0.0
C2179 C 0.51294 0.48522 0.50419 0.0
C2180 C 0.49766 0.50119 0.50651 0.0
C2181 C 0.53163 0.48931 0.52114 0.0
C2182 C 0.54965 0.47457 0.51796 0.0
C2183 C 0.56158 0.47048 0.4877 0.0
C2184 C 0.57835 0.45633 0.48482 0.0
C2185 C 0.58346 0.44632 0.51207 0.0
C2186 C 0.57187 0.4505 0.54227 0.0
C2187 C 0.55507 0.46462 0.54528 0.0
H2188 H 0.59643 0.43535 0.5098 0.0
H2189 H 0.43998 0.57912 0.53128 0.0
H2190 H -0.00635 0.58484 1.00489 0.0
H2191 H -0.00608 0.54954 0.03337 0.0
H2192 H 0.0418 0.52942 0.95566 0.0
H2193 H 0.04157 0.56519 0.92684 0.0
H2194 H 0.00652 0.49554 0.97351 0.0
H2195 H 0.05741 0.54292 0.02877 0.0
H2196 H 0.07047 0.57638 0.05844 0.0
H2197 H 0.01388 0.55943 0.13364 0.0
H2198 H 0.00026 0.52604 0.10419 0.0
H2199 H 0.02967 0.39895 0.05186 0.0
H2200 H 0.02963 0.43461 1.02451 0.0
H2201 H 0.98494 0.45564 0.10534 0.0
H2202 H 0.98522 0.4195 0.13329 0.0
H2203 H 0.01861 0.48933 0.08616 0.0
H2204 H 0.96655 0.44356 0.0304 0.0
H2205 H 0.9517 0.41147 0.99976 0.0
H2206 H 0.00949 0.42571 0.92573 0.0
H2207 H 0.02466 0.45807 0.95592 0.0
C2208 C 0.00467 0.57314 0.99407 0.0
C2209 C 0.01774 0.57803 0.96363 0.0
C2210 C 0.0048 0.55285 1.01048 0.0
C2211 C 0.01794 0.53658 0.99699 0.0
C2212 C 0.03151 0.5416 0.9668 0.0
C2213 C 0.03158 0.56218 0.95041 0.0
C2214 C 0.01635 0.51405 1.01382 0.0
C2215 C 0.0096 0.49422 0.99795 0.0
C2216 C 0.01948 0.51208 0.04621 0.0
C2217 C 0.0277 0.53207 0.06411 0.0
C2218 C 0.04764 0.54641 0.05152 0.0
C2219 C 0.05516 0.56536 0.06832 0.0
C2220 C 0.04298 0.57006 0.09787 0.0
C2221 C 0.02328 0.55578 0.11073 0.0
C2222 C 0.01566 0.53683 0.094 0.0
C2223 C 0.01943 0.41094 0.06372 0.0
C2224 C 0.00734 0.40617 0.0948 0.0
C2225 C 0.01938 0.43146 0.04788 0.0
C2226 C 0.00717 0.4481 0.06244 0.0
C2227 C -0.00547 0.44321 0.09332 0.0
C2228 C -0.00554 0.42241 0.10924 0.0
C2229 C 0.00878 0.47076 0.04582 0.0
C2230 C 0.01554 0.49063 0.06171 0.0
C2231 C 0.00558 0.47282 1.01345 0.0
C2232 C -0.00316 0.45308 0.99558 0.0
C2233 C 0.97619 0.43973 1.00773 0.0
C2234 C 0.96768 0.42152 0.99037 0.0
C2235 C 0.97971 0.41643 0.96089 0.0
C2236 C 0.00022 0.42964 0.94861 0.0
C2237 C 0.00874 0.44796 0.96577 0.0
H2238 H 0.97314 0.40233 0.94747 0.0
H2239 H 0.04883 0.58473 0.11084 0.0
H2240 H 0.10694 0.17805 0.33063 0.0
H2241 H 0.11551 0.1895 0.38309 0.0
H2242 H 0.05705 0.14483 0.42823 0.0
H2243 H 0.04765 0.13384 0.37578 0.0
H2244 H 0.0933 0.21054 0.43173 0.0
H2245 H 0.067 0.12781 0.50407 0.0
H2246 H 0.06328 0.08676 0.49577 0.0
H2247 H 0.11513 0.09696 0.41305 0.0
H2248 H 0.11936 0.13803 0.4211 0.0
H2249 H 0.1027 0.24212 0.59219 0.0
H2250 H 0.09061 0.22845 0.54356 0.0
H2251 H 0.12993 0.1736 0.54463 0.0
H2252 H 0.13822 0.18513 0.59768 0.0
H2253 H 0.10258 0.15699 0.51598 0.0
H2254 H 0.137 0.23866 0.48662 0.0
H2255 H 0.13692 0.27968 0.4932 0.0
H2256 H 0.06567 0.27156 0.48791 0.0
H2257 H 0.06532 0.23068 0.48163 0.0
C2258 C 0.09548 0.17072 0.35138 0.0
C2259 C 0.07633 0.15482 0.34774 0.0
C2260 C 0.10065 0.17727 0.38187 0.0
C2261 C 0.08723 0.16804 0.41041 0.0
C2262 C 0.06815 0.15213 0.40708 0.0
C2263 C 0.06279 0.14573 0.37654 0.0
C2264 C 0.09293 0.17566 0.44318 0.0
C2265 C 0.09556 0.19875 0.44999 0.0
C2266 C 0.09551 0.16065 0.46791 0.0
C2267 C 0.09331 0.136 0.46302 0.0
C2268 C 0.07765 0.12128 0.48417 0.0
C2269 C 0.07545 0.09801 0.4795 0.0
C2270 C 0.08891 0.08927 0.45383 0.0
C2271 C 0.10465 0.10376 0.43284 0.0
C2272 C 0.10693 0.12704 0.43743 0.0
C2273 C 0.10896 0.22713 0.58227 0.0
C2274 C 0.12148 0.21488 0.59981 0.0
C2275 C 0.10244 0.21946 0.55307 0.0
C2276 C 0.11001 0.20028 0.53768 0.0
C2277 C 0.12338 0.1884 0.55478 0.0
C2278 C 0.12855 0.19524 0.5854 0.0
C2279 C 0.10382 0.19237 0.50477 0.0
C2280 C 0.10086 0.16905 0.49781 0.0
C2281 C 0.10055 0.20719 0.47987 0.0
C2282 C 0.10115 0.23172 0.48379 0.0
C2283 C 0.12136 0.24571 0.48694 0.0
C2284 C 0.12134 0.26891 0.49072 0.0
C2285 C 0.10124 0.27819 0.49118 0.0
C2286 C 0.08117 0.26437 0.48775 0.0
C2287 C 0.08108 0.24123 0.48401 0.0
H2288 H 0.10109 0.29608 0.49403 0.0
H2289 H 0.08716 0.07125 0.45025 0.0
H2290 H 0.16201 0.81805 0.6118 0.0
H2291 H 0.15738 0.82927 0.6682 0.0
H2292 H 0.08473 0.81369 0.67481 0.0
H2293 H 0.0893 0.80197 0.61897 0.0
H2294 H 0.10232 0.85753 0.70051 0.0
H2295 H 0.10678 0.77675 0.70285 0.0
H2296 H 0.12575 0.74333 0.68882 0.0
H2297 H 0.18277 0.77252 0.73171 0.0
H2298 H 0.16423 0.80627 0.74558 0.0
H2299 H 0.04756 0.80872 0.85509 0.0
H2300 H 0.07526 0.80403 0.80794 0.0
H2301 H 0.10798 0.87206 0.81694 0.0
H2302 H 0.07984 0.87677 0.86443 0.0
H2303 H 0.12022 0.80777 0.78383 0.0
H2304 H 0.11459 0.896 0.74002 0.0
H2305 H 0.09304 0.92771 0.75433 0.0
H2306 H 0.03467 0.88122 0.79442 0.0
H2307 H 0.05557 0.84922 0.7793 0.0
C2308 C 0.1451 0.81717 0.62539 0.0
C2309 C 0.12598 0.80915 0.6113 0.0
C2310 C 0.14249 0.82353 0.65744 0.0
C2311 C 0.12073 0.82233 0.67546 0.0
C2312 C 0.10164 0.81479 0.66116 0.0
C2313 C 0.10425 0.80802 0.62943 0.0
C2314 C 0.1175 0.82822 0.70959 0.0
C2315 C 0.10664 0.84695 0.71875 0.0
C2316 C 0.12316 0.81437 0.73323 0.0
C2317 C 0.13429 0.79414 0.72483 0.0
C2318 C 0.12347 0.77614 0.70896 0.0
C2319 C 0.13411 0.75712 0.70112 0.0
C2320 C 0.15548 0.75585 0.70927 0.0
C2321 C 0.16624 0.77357 0.72534 0.0
C2322 C 0.15568 0.79263 0.7332 0.0
C2323 C 0.06131 0.82229 0.84783 0.0
C2324 C 0.06171 0.84307 0.86313 0.0
C2325 C 0.07718 0.8196 0.82092 0.0
C2326 C 0.09347 0.83781 0.8086 0.0
C2327 C 0.09544 0.85785 0.82598 0.0
C2328 C 0.0795 0.86051 0.85314 0.0
C2329 C 0.10462 0.83691 0.77491 0.0
C2330 C 0.11683 0.819 0.76565 0.0
C2331 C 0.09993 0.85136 0.75107 0.0
C2332 C 0.08676 0.8703 0.75898 0.0
C2333 C 0.09709 0.89257 0.75166 0.0
C2334 C 0.08497 0.91057 0.75982 0.0
C2335 C 0.06249 0.90647 0.77527 0.0
C2336 C 0.05202 0.88434 0.7823 0.0
C2337 C 0.06397 0.86627 0.77387 0.0
H2338 H 0.05318 0.92042 0.78178 0.0
H2339 H 0.16368 0.74111 0.70325 0.0
H2340 H 0.42174 0.75076 0.99367 0.0
H2341 H 0.4388 0.76654 0.94038 0.0
H2342 H 0.3984 0.82058 0.95486 0.0
H2343 H 0.38193 0.80537 1.00874 0.0
H2344 H 0.40057 0.79423 0.88991 0.0
H2345 H 0.44765 0.83245 0.96299 0.0
H2346 H 0.47351 0.83326 1.00274 0.0
H2347 H 0.52161 0.804 0.93534 0.0
H2348 H 0.49564 0.80205 0.89561 0.0
H2349 H 0.44576 0.85378 0.74356 0.0
H2350 H 0.42963 0.8427 0.79877 0.0
H2351 H 0.49437 0.82575 0.81437 0.0
H2352 H 0.51088 0.83925 0.76053 0.0
H2353 H 0.47965 0.83298 0.86639 0.0
H2354 H 0.43613 0.78251 0.80402 0.0
H2355 H 0.41299 0.77127 0.76192 0.0
H2356 H 0.36264 0.81097 0.80504 0.0
H2357 H 0.38581 0.82266 0.84701 0.0
C2358 C 0.41619 0.76587 0.98552 0.0
C2359 C 0.40002 0.77647 1.0059 0.0
C2360 C 0.42621 0.77505 0.95488 0.0
C2361 C 0.42014 0.79497 0.94302 0.0
C2362 C 0.40359 0.80527 0.96299 0.0
C2363 C 0.39404 0.79645 0.99399 0.0
C2364 C 0.43077 0.8049 0.90996 0.0
C2365 C 0.4178 0.80296 0.88494 0.0
C2366 C 0.45374 0.81532 0.90235 0.0
C2367 C 0.46938 0.81669 0.92642 0.0
C2368 C 0.4635 0.82575 0.95679 0.0
C2369 C 0.47822 0.82642 0.97935 0.0
C2370 C 0.49909 0.81848 0.97167 0.0
C2371 C 0.50534 0.80994 0.94137 0.0
C2372 C 0.49058 0.80899 0.91885 0.0
C2373 C 0.45673 0.84812 0.7589 0.0
C2374 C 0.47981 0.84746 0.74675 0.0
C2375 C 0.44724 0.84107 0.79078 0.0
C2376 C 0.46008 0.83199 0.81174 0.0
C2377 C 0.48345 0.83241 0.79987 0.0
C2378 C 0.49309 0.84022 0.76844 0.0
C2379 C 0.44952 0.82228 0.84551 0.0
C2380 C 0.46244 0.82425 0.8709 0.0
C2381 C 0.42693 0.81058 0.85313 0.0
C2382 C 0.41296 0.80385 0.82803 0.0
C2383 C 0.42034 0.78911 0.80407 0.0
C2384 C 0.40717 0.78258 0.78038 0.0
C2385 C 0.38642 0.79054 0.78066 0.0
C2386 C 0.37876 0.80491 0.80476 0.0
C2387 C 0.39191 0.81148 0.82851 0.0
H2388 H 0.37621 0.78547 0.76232 0.0
H2389 H 0.51053 0.81916 0.98907 0.0
H2390 H 0.44999 0.17421 0.27582 0.0
H2391 H 0.43796 0.18308 0.22542 0.0
H2392 H 0.38895 0.12261 0.23638 0.0
H2393 H 0.40042 0.11418 0.28752 0.0
H2394 H 0.4436 0.16048 0.17471 0.0
H2395 H 0.34665 0.1271 0.19304 0.0
H2396 H 0.3133 0.12551 0.23545 0.0
H2397 H 0.34614 0.18227 0.28066 0.0
H2398 H 0.37953 0.18442 0.23832 0.0
H2399 H 0.41686 0.1449 1.02274 0.0
H2400 H 0.41796 0.13739 0.07881 0.0
H2401 H 0.37468 0.18813 0.10607 0.0
H2402 H 0.37167 0.19417 0.05005 0.0
H2403 H 0.36567 0.15799 0.1495 0.0
H2404 H 0.43846 0.20199 0.10417 0.0
H2405 H 0.47349 0.21093 0.06471 0.0
H2406 H 0.48947 0.14416 0.07673 0.0
H2407 H 0.45496 0.13514 0.11705 0.0
C2408 C 0.43633 0.16308 0.26772 0.0
C2409 C 0.42615 0.14349 0.28535 0.0
C2410 C 0.4295 0.16812 0.23895 0.0
C2411 C 0.41258 0.1535 0.22707 0.0
C2412 C 0.40178 0.13433 0.24529 0.0
C2413 C 0.40838 0.12948 0.27442 0.0
C2414 C 0.40798 0.15712 0.19425 0.0
C2415 C 0.42652 0.16005 0.16935 0.0
C2416 C 0.38578 0.15686 0.18714 0.0
C2417 C 0.3657 0.15574 0.21266 0.0
C2418 C 0.34673 0.13928 0.21198 0.0
C2419 C 0.32781 0.13828 0.23601 0.0
C2420 C 0.32763 0.15373 0.26079 0.0
C2421 C 0.34634 0.17025 0.26154 0.0
C2422 C 0.36528 0.17134 0.23755 0.0
C2423 C 0.40696 0.15398 0.04062 0.0
C2424 C 0.39452 0.17048 0.03179 0.0
C2425 C 0.408 0.14999 0.07274 0.0
C2426 C 0.39726 0.16292 0.09661 0.0
C2427 C 0.38344 0.17818 0.08808 0.0
C2428 C 0.38191 0.18177 0.05597 0.0
C2429 C 0.40129 0.16124 0.13013 0.0
C2430 C 0.3827 0.15853 0.15507 0.0
C2431 C 0.42351 0.16261 0.1376 0.0
C2432 C 0.44404 0.16781 0.11313 0.0
C2433 C 0.44939 0.1892 0.09816 0.0
C2434 C 0.46917 0.1943 0.07578 0.0
C2435 C 0.48348 0.17802 0.06785 0.0
C2436 C 0.47826 0.1567 0.08269 0.0
C2437 C 0.45874 0.15166 0.10553 0.0
H2438 H 0.49875 0.182 0.05047 0.0
H2439 H 0.31297 0.15292 0.27937 0.0
H2440 H 0.88256 0.7973 0.45825 0.0
H2441 H 0.88955 0.80749 0.51241 0.0
H2442 H 0.95011 0.77552 0.4971 0.0
H2443 H 0.94122 0.76314 0.44512 0.0
H2444 H 0.94071 0.76957 0.55139 0.0
H2445 H 0.94302 0.84072 0.50076 0.0
H2446 H 0.93037 0.87076 0.47116 0.0
H2447 H 0.87311 0.87243 0.54521 0.0
H2448 H 0.8853 0.84221 0.57509 0.0
H2449 H 0.98933 0.82741 0.67967 0.0
H2450 H 0.9799 0.81855 0.62643 0.0
H2451 H 0.90922 0.81981 0.66216 0.0
H2452 H 0.91852 0.82902 0.71546 0.0
H2453 H 0.92377 0.84192 0.59966 0.0
H2454 H 0.92706 0.76588 0.6461 0.0
H2455 H 0.94908 0.74384 0.67579 0.0
H2456 H 0.00797 0.76134 0.60437 0.0
H2457 H 0.98612 0.783 0.57393 0.0
C2458 C 0.89731 0.79239 0.46652 0.0
C2459 C 0.91141 0.77936 0.44676 0.0
C2460 C 0.90164 0.79856 0.49776 0.0
C2461 C 0.92096 0.79305 0.50995 0.0
C2462 C 0.93497 0.78016 0.4897 0.0
C2463 C 0.93003 0.77317 0.45937 0.0
C2464 C 0.92662 0.80006 0.54334 0.0
C2465 C 0.93706 0.78562 0.56116 0.0
C2466 C 0.92241 0.82098 0.55783 0.0
C2467 C 0.91492 0.83902 0.53995 0.0
C2468 C 0.92765 0.8474 0.51061 0.0
C2469 C 0.92057 0.86446 0.49381 0.0
C2470 C 0.90091 0.87344 0.50624 0.0
C2471 C 0.88831 0.86542 0.53557 0.0
C2472 C 0.8953 0.84833 0.55246 0.0
C2473 C 0.97173 0.82599 0.67644 0.0
C2474 C 0.95482 0.82895 0.70274 0.0
C2475 C 0.96628 0.82068 0.64565 0.0
C2476 C 0.94367 0.81817 0.63959 0.0
C2477 C 0.9268 0.82151 0.6656 0.0
C2478 C 0.9322 0.82662 0.69648 0.0
C2479 C 0.93764 0.81153 0.60665 0.0
C2480 C 0.92718 0.82595 0.58926 0.0
C2481 C 0.94287 0.79126 0.59176 0.0
C2482 C 0.95498 0.77591 0.60776 0.0
C2483 C 0.9446 0.76466 0.63652 0.0
C2484 C 0.95706 0.75231 0.65349 0.0
C2485 C 0.97994 0.75131 0.64204 0.0
C2486 C 0.99026 0.7622 0.61324 0.0
C2487 C 0.97779 0.77429 0.59593 0.0
H2488 H 0.9897 0.74216 0.6555 0.0
H2489 H 0.89546 0.88666 0.4932 0.0
H2490 H 0.86987 0.17545 0.43296 0.0
H2491 H 0.87318 0.16857 0.3755 0.0
H2492 H 0.9454 0.18989 0.3647 0.0
H2493 H 0.94219 0.19687 0.42196 0.0
H2494 H 0.92823 0.20512 0.31509 0.0
H2495 H 0.92207 0.13361 0.37363 0.0
H2496 H 0.90261 0.10405 0.41284 0.0
H2497 H 0.84517 0.09517 0.36328 0.0
H2498 H 0.86423 0.1249 0.32398 0.0
H2499 H 0.98003 0.1148 0.22863 0.0
H2500 H 0.95263 0.12698 0.2708 0.0
H2501 H 0.92912 0.16797 0.20271 0.0
H2502 H 0.95813 0.15695 0.16032 0.0
H2503 H 0.90842 0.12575 0.2846 0.0
H2504 H 0.91467 0.20158 0.22877 0.0
H2505 H 0.93505 0.23267 0.19264 0.0
H2506 H -0.00662 0.23402 0.23934 0.0
H2507 H 0.97358 0.2024 0.27514 0.0
C2508 C 0.88645 0.17869 0.4183 0.0
C2509 C 0.90582 0.18646 0.43206 0.0
C2510 C 0.88829 0.17487 0.38545 0.0
C2511 C 0.90957 0.17851 0.36583 0.0
C2512 C 0.92878 0.18707 0.37933 0.0
C2513 C 0.92694 0.19101 0.4121 0.0
C2514 C 0.91239 0.17189 0.33177 0.0
C2515 C 0.9237 0.1878 0.30833 0.0
C2516 C 0.90581 0.14951 0.32264 0.0
C2517 C 0.89441 0.13165 0.34618 0.0
C2518 C 0.90522 0.12546 0.37126 0.0
C2519 C 0.89428 0.10867 0.39347 0.0
C2520 C 0.87263 0.0978 0.39063 0.0
C2521 C 0.86191 0.10365 0.3655 0.0
C2522 C 0.87277 0.12047 0.34327 0.0
C2523 C 0.96882 0.12617 0.22242 0.0
C2524 C 0.97154 0.13528 0.19132 0.0
C2525 C 0.95307 0.13316 0.24664 0.0
C2526 C 0.9393 0.14915 0.24037 0.0
C2527 C 0.94029 0.15652 0.20858 0.0
C2528 C 0.95647 0.14975 0.18417 0.0
C2529 C 0.92558 0.15863 0.26819 0.0
C2530 C 0.91212 0.1433 0.2909 0.0
C2531 C 0.93026 0.18152 0.27665 0.0
C2532 C 0.94295 0.19917 0.25379 0.0
C2533 C 0.93204 0.20819 0.23082 0.0
C2534 C 0.94347 0.2259 0.21048 0.0
C2535 C 0.96564 0.23509 0.21345 0.0
C2536 C 0.97637 0.2266 0.2368 0.0
C2537 C 0.96512 0.20869 0.25694 0.0
H2538 H 0.97442 0.24892 0.19786 0.0
H2539 H 0.86419 0.0848 0.40783 0.0
H2540 H 0.59484 0.173 0.03645 0.0
H2541 H 0.5814 0.16173 0.09271 0.0
H2542 H 0.62715 0.21656 0.1222 0.0
H2543 H 0.64 0.22856 0.06583 0.0
H2544 H 0.62572 0.1699 0.15455 0.0
H2545 H 0.57797 0.22364 0.13267 0.0
H2546 H 0.55074 0.23978 0.10494 0.0
H2547 H 0.50146 0.18115 0.13069 0.0
H2548 H 0.52877 0.16412 0.15716 0.0
H2549 H 0.58664 0.15824 0.32343 0.0
H2550 H 0.60028 0.17101 0.26824 0.0
H2551 H 0.53617 0.14274 0.24191 0.0
H2552 H 0.52204 0.13113 0.29787 0.0
H2553 H 0.54745 0.1765 0.20689 0.0
H2554 H 0.59422 0.12043 0.2225 0.0
H2555 H 0.62067 0.1016 0.24849 0.0
H2556 H 0.6701 0.16112 0.23354 0.0
H2557 H 0.64383 0.18039 0.20778 0.0
C2558 C 0.60229 0.18268 0.05472 0.0
C2559 C 0.6189 0.2017 0.04578 0.0
C2560 C 0.5944 0.1762 0.08728 0.0
C2561 C 0.60307 0.18808 0.11255 0.0
C2562 C 0.62 0.20683 0.10373 0.0
C2563 C 0.62746 0.21372 0.07114 0.0
C2564 C 0.59442 0.18101 0.14778 0.0
C2565 C 0.60866 0.17165 0.16599 0.0
C2566 C 0.57188 0.18239 0.16325 0.0
C2567 C 0.55565 0.19238 0.14645 0.0
C2568 C 0.56154 0.21392 0.1318 0.0
C2569 C 0.54605 0.22326 0.1163 0.0
C2570 C 0.52444 0.21141 0.11575 0.0
C2571 C 0.51829 0.1902 0.13072 0.0
C2572 C 0.5338 0.18066 0.1459 0.0
C2573 C 0.5754 0.15438 0.30597 0.0
C2574 C 0.55316 0.14308 0.31587 0.0
C2575 C 0.58339 0.16169 0.27377 0.0
C2576 C 0.56984 0.15754 0.24932 0.0
C2577 C 0.54749 0.14635 0.25932 0.0
C2578 C 0.53932 0.13944 0.29175 0.0
C2579 C 0.57869 0.16511 0.21399 0.0
C2580 C 0.5645 0.1746 0.19562 0.0
C2581 C 0.60115 0.16343 0.19809 0.0
C2582 C 0.61698 0.15191 0.21351 0.0
C2583 C 0.61068 0.12954 0.22494 0.0
C2584 C 0.62564 0.11878 0.2396 0.0
C2585 C 0.64703 0.13018 0.24274 0.0
C2586 C 0.65352 0.15233 0.23114 0.0
C2587 C 0.63861 0.16317 0.21648 0.0
H2588 H 0.65858 0.12182 0.25411 0.0
H2589 H 0.51242 0.21872 0.10392 0.0
H2590 H 0.53563 0.84166 0.81836 0.0
H2591 H 0.53409 0.84017 0.87632 0.0
H2592 H 0.60719 0.85422 0.86387 0.0
H2593 H 0.60892 0.85464 0.80588 0.0
H2594 H 0.59061 0.82024 0.90636 0.0
H2595 H 0.57269 0.8953 0.88452 0.0
H2596 H 0.54951 0.92086 0.86347 0.0
H2597 H 0.49043 0.88989 0.92658 0.0
H2598 H 0.51328 0.86415 0.94789 0.0
H2599 H 0.62382 0.85786 0.04556 0.0
H2600 H 0.61316 0.86406 0.99315 0.0
H2601 H 0.54405 0.8363 0.02903 0.0
H2602 H 0.55483 0.8289 0.08145 0.0
H2603 H 0.55178 0.87353 0.97796 0.0
H2604 H 0.56809 0.79996 1.00181 0.0
H2605 H 0.58991 0.77384 1.02437 0.0
H2606 H 0.6492 0.79921 0.95735 0.0
H2607 H 0.62782 0.82592 0.9349 0.0
C2608 C 0.55139 0.84421 0.82797 0.0
C2609 C 0.57244 0.84825 0.8076 0.0
C2610 C 0.55044 0.84357 0.86107 0.0
C2611 C 0.57051 0.84732 0.87427 0.0
C2612 C 0.59151 0.85135 0.85403 0.0
C2613 C 0.59248 0.85182 0.82097 0.0
C2614 C 0.56993 0.84696 0.90919 0.0
C2615 C 0.58218 0.83193 0.92195 0.0
C2616 C 0.55813 0.86163 0.92967 0.0
C2617 C 0.54461 0.8776 0.9175 0.0
C2618 C 0.55474 0.89389 0.89379 0.0
C2619 C 0.54167 0.90844 0.88185 0.0
C2620 C 0.5185 0.90695 0.89359 0.0
C2621 C 0.50837 0.89101 0.91745 0.0
C2622 C 0.52137 0.87645 0.9295 0.0
C2623 C 0.6062 0.85382 0.04253 0.0
C2624 C 0.5901 0.84287 0.06709 0.0
C2625 C 0.60013 0.85738 1.01275 0.0
C2626 C 0.57787 0.85022 1.00748 0.0
C2627 C 0.56124 0.84161 0.03301 0.0
C2628 C 0.5674 0.83749 0.06267 0.0
C2629 C 0.57335 0.84757 0.97447 0.0
C2630 C 0.55995 0.86171 0.96229 0.0
C2631 C 0.58374 0.83181 0.95447 0.0
C2632 C 0.59647 0.81523 0.96708 0.0
C2633 C 0.58585 0.80016 0.99213 0.0
C2634 C 0.59813 0.78523 1.00488 0.0
C2635 C 0.621 0.78503 0.99252 0.0
C2636 C 0.63153 0.79951 0.96705 0.0
C2637 C 0.61933 0.81456 0.95432 0.0
H2638 H 0.63057 0.77361 1.0026 0.0
H2639 H 0.5084 0.9182 0.88427 0.0
H2640 H 0.56048 0.695 0.85302 0.0
H2641 H 0.57102 0.70584 0.90506 0.0
H2642 H 0.62222 0.66165 0.89189 0.0
H2643 H 0.61101 0.6501 0.84067 0.0
H2644 H 0.60728 0.65755 0.9489 0.0
H2645 H 0.63072 0.72692 0.88785 0.0
H2646 H 0.62594 0.75912 0.85448 0.0
H2647 H 0.57419 0.77738 0.92768 0.0
H2648 H 0.57863 0.7453 0.96146 0.0
H2649 H 0.64899 0.69302 0.09492 0.0
H2650 H 0.64381 0.68325 0.04059 0.0
H2651 H 0.60385 0.73745 0.03762 0.0
H2652 H 0.61143 0.74858 0.09017 0.0
H2653 H 0.6156 0.73628 0.98512 0.0
H2654 H 0.58394 0.65603 0.03254 0.0
H2655 H 0.58849 0.62223 0.06324 0.0
H2656 H 0.65612 0.62368 1.01217 0.0
H2657 H 0.65189 0.6576 0.98178 0.0
C2658 C 0.57411 0.68764 0.861 0.0
C2659 C 0.58471 0.67149 0.84196 0.0
C2660 C 0.58035 0.69405 0.89108 0.0
C2661 C 0.59796 0.68511 0.90323 0.0
C2662 C 0.60857 0.66904 0.88403 0.0
C2663 C 0.60206 0.66234 0.8543 0.0
C2664 C 0.60493 0.69172 0.9359 0.0
C2665 C 0.60917 0.67491 0.95656 0.0
C2666 C 0.60743 0.7142 0.94724 0.0
C2667 C 0.60486 0.73357 0.92703 0.0
C2668 C 0.61826 0.73776 0.89676 0.0
C2669 C 0.61565 0.75602 0.87782 0.0
C2670 C 0.59978 0.77028 0.88896 0.0
C2671 C 0.58651 0.76635 0.9191 0.0
C2672 C 0.5891 0.74816 0.93818 0.0
C2673 C 0.63913 0.70292 0.08263 0.0
C2674 C 0.63065 0.72168 0.09784 0.0
C2675 C 0.63554 0.69689 0.05106 0.0
C2676 C 0.62234 0.70863 0.03346 0.0
C2677 C 0.61434 0.72769 0.04886 0.0
C2678 C 0.61854 0.73411 0.07986 0.0
C2679 C 0.61702 0.70199 0.9995 0.0
C2680 C 0.61331 0.71886 0.97816 0.0
C2681 C 0.61503 0.67955 0.98743 0.0
C2682 C 0.61794 0.65983 1.00629 0.0
C2683 C 0.59994 0.64946 0.0288 0.0
C2684 C 0.60239 0.63021 0.04582 0.0
C2685 C 0.62271 0.62104 0.04004 0.0
C2686 C 0.64049 0.63094 1.01691 0.0
C2687 C 0.63806 0.65014 0.99979 0.0
H2688 H 0.62457 0.60613 0.05321 0.0
H2689 H 0.59778 0.78439 0.87424 0.0
H2690 H 0.56552 0.39745 0.35218 0.0
H2691 H 0.59155 0.39012 0.30403 0.0
H2692 H 0.57991 0.31913 0.329 0.0
H2693 H 0.55585 0.32697 0.37866 0.0
H2694 H 0.61855 0.32681 0.29374 0.0
H2695 H 0.5452 0.34557 0.28443 0.0
H2696 H 0.51409 0.36857 0.29002 0.0
H2697 H 0.55687 0.42134 0.23229 0.0
H2698 H 0.58855 0.39885 0.22683 0.0
H2699 H 0.61555 0.28049 0.13866 0.0
H2700 H 0.6083 0.29255 0.19405 0.0
H2701 H 0.62973 0.36181 0.16295 0.0
H2702 H 0.6358 0.35009 0.10752 0.0
H2703 H 0.59057 0.35739 0.20099 0.0
H2704 H 0.66245 0.33217 0.20519 0.0
H2705 H 0.68982 0.30486 0.19803 0.0
H2706 H 0.64431 0.25843 0.26342 0.0
H2707 H 0.61654 0.28535 0.27067 0.0
C2708 C 0.56964 0.38053 0.34819 0.0
C2709 C 0.55877 0.36273 0.3689 0.0
C2710 C 0.58417 0.37624 0.32042 0.0
C2711 C 0.58693 0.35393 0.31213 0.0
C2712 C 0.57793 0.33647 0.33458 0.0
C2713 C 0.56415 0.34093 0.36299 0.0
C2714 C 0.59624 0.34843 0.27876 0.0
C2715 C 0.61236 0.33344 0.27348 0.0
C2716 C 0.58827 0.35703 0.25211 0.0
C2717 C 0.56933 0.37066 0.25558 0.0
C2718 C 0.54805 0.36215 0.27313 0.0
C2719 C 0.53029 0.37508 0.27623 0.0
C2720 C 0.53344 0.39639 0.26157 0.0
C2721 C 0.55444 0.40485 0.24371 0.0
C2722 C 0.57233 0.39204 0.24063 0.0
C2723 C 0.61866 0.2983 0.14357 0.0
C2724 C 0.62622 0.31431 0.1185 0.0
C2725 C 0.61487 0.30514 0.17534 0.0
C2726 C 0.61885 0.32807 0.18274 0.0
C2727 C 0.62675 0.34401 0.15785 0.0
C2728 C 0.63036 0.33724 0.12612 0.0
C2729 C 0.61274 0.33571 0.21595 0.0
C2730 C 0.59713 0.35111 0.22119 0.0
C2731 C 0.6206 0.32683 0.24242 0.0
C2732 C 0.63738 0.31074 0.23834 0.0
C2733 C 0.65823 0.31609 0.21791 0.0
C2734 C 0.67382 0.30069 0.21385 0.0
C2735 C 0.6688 0.27992 0.23023 0.0
C2736 C 0.64819 0.27453 0.25076 0.0
C2737 C 0.63253 0.28987 0.2549 0.0
H2738 H 0.68088 0.26801 0.22704 0.0
H2739 H 0.5196 0.40632 0.264 0.0
H2740 H 0.00495 0.35912 0.26661 0.0
H2741 H 0.98973 0.3487 0.32268 0.0
H2742 H 0.92982 0.31205 0.29319 0.0
H2743 H 0.94409 0.32419 0.23808 0.0
H2744 H 0.91426 0.32519 0.34294 0.0
H2745 H 0.98347 0.29202 0.32197 0.0
H2746 H 0.02437 0.28862 0.31082 0.0
H2747 H 0.03568 0.32852 0.39244 0.0
H2748 H -0.00455 0.33337 0.40301 0.0
H2749 H 0.89189 0.25149 0.49057 0.0
H2750 H 0.90704 0.26485 0.43547 0.0
H2751 H 0.92517 0.33153 0.46963 0.0
H2752 H 0.90951 0.31844 0.52471 0.0
H2753 H 0.96148 0.30315 0.42006 0.0
H2754 H 0.89132 0.33751 0.43627 0.0
H2755 H 0.84978 0.33514 0.45083 0.0
H2756 H 0.84046 0.28544 0.37911 0.0
H2757 H 0.88198 0.28729 0.36447 0.0
C2758 C 0.98837 0.34909 0.27212 0.0
C2759 C 0.97577 0.34295 0.24721 0.0
C2760 C 0.97968 0.34267 0.30457 0.0
C2761 C 0.95842 0.3289 0.31347 0.0
C2762 C 0.94604 0.32274 0.28827 0.0
C2763 C 0.95435 0.32977 0.25618 0.0
C2764 C 0.94859 0.32126 0.34838 0.0
C2765 C 0.92496 0.32021 0.35922 0.0
C2766 C 0.96177 0.31477 0.37129 0.0
C2767 C 0.9864 0.31337 0.36299 0.0
C2768 C -0.00521 0.30057 0.33703 0.0
C2769 C 0.01791 0.29848 0.3307 0.0
C2770 C 0.0327 0.30871 0.35046 0.0
C2771 C 0.02443 0.32109 0.37658 0.0
C2772 C 0.00149 0.32362 0.38267 0.0
C2773 C 0.89872 0.26912 0.48648 0.0
C2774 C 0.899 0.28381 0.51269 0.0
C2775 C 0.90755 0.27677 0.45468 0.0
C2776 C 0.91744 0.29935 0.44775 0.0
C2777 C 0.91769 0.31407 0.47381 0.0
C2778 C 0.90846 0.30654 0.50555 0.0
C2779 C 0.92779 0.30738 0.41365 0.0
C2780 C 0.95125 0.30828 0.4032 0.0
C2781 C 0.91459 0.31334 0.39092 0.0
C2782 C 0.88971 0.31233 0.39958 0.0
C2783 C 0.8804 0.3259 0.42387 0.0
C2784 C 0.85687 0.3247 0.43206 0.0
C2785 C 0.84249 0.31009 0.41598 0.0
C2786 C 0.85162 0.29671 0.39159 0.0
C2787 C 0.87514 0.29784 0.38332 0.0
H2788 H 0.82427 0.30919 0.42235 0.0
H2789 H 0.05052 0.30687 0.34571 0.0
H2790 H 0.95539 0.59297 0.7339 0.0
H2791 H 0.94909 0.59919 0.67918 0.0
H2792 H 0.91034 0.65256 0.71094 0.0
H2793 H 0.91776 0.64749 0.76558 0.0
H2794 H 0.89793 0.60479 0.66144 0.0
H2795 H 0.93816 0.67948 0.67992 0.0
H2796 H 0.96842 0.70755 0.69472 0.0
H2797 H 0.01814 0.67812 0.63027 0.0
H2798 H 0.98816 0.64928 0.61594 0.0
H2799 H 0.88622 0.65614 0.51312 0.0
H2800 H 0.88694 0.64375 0.56784 0.0
H2801 H 0.95599 0.63098 0.54045 0.0
H2802 H 0.95574 0.64429 0.48617 0.0
H2803 H 0.95295 0.65796 0.58847 0.0
H2804 H 0.91187 0.58797 0.56411 0.0
H2805 H 0.88129 0.56264 0.5446 0.0
H2806 H 0.83192 0.58673 0.61601 0.0
H2807 H 0.86217 0.61247 0.63569 0.0
C2808 C 0.94567 0.60616 0.72926 0.0
C2809 C 0.9374 0.61999 0.75402 0.0
C2810 C 0.94207 0.60965 0.69802 0.0
C2811 C 0.92992 0.62679 0.69102 0.0
C2812 C 0.92039 0.63972 0.71585 0.0
C2813 C 0.92432 0.63653 0.7471 0.0
C2814 C 0.92696 0.6306 0.65766 0.0
C2815 C 0.90958 0.61681 0.64553 0.0
C2816 C 0.94269 0.64574 0.63687 0.0
C2817 C 0.96096 0.6616 0.64789 0.0
C2818 C 0.95559 0.6784 0.66985 0.0
C2819 C 0.9727 0.69462 0.6779 0.0
C2820 C -0.00477 0.69448 0.66372 0.0
C2821 C 0.00069 0.67815 0.64136 0.0
C2822 C 0.98366 0.66176 0.63345 0.0
C2823 C 0.90144 0.65036 0.51868 0.0
C2824 C 0.921 0.65139 0.49541 0.0
C2825 C 0.90174 0.64305 0.54987 0.0
C2826 C 0.9215 0.63639 0.5582 0.0
C2827 C 0.94055 0.63602 0.53449 0.0
C2828 C 0.94032 0.64346 0.50339 0.0
C2829 C 0.92341 0.63282 0.59219 0.0
C2830 C 0.94089 0.64632 0.60438 0.0
C2831 C 0.90753 0.61777 0.61297 0.0
C2832 C 0.88929 0.60232 0.60118 0.0
C2833 C 0.89448 0.58803 0.57548 0.0
C2834 C 0.8772 0.57356 0.56443 0.0
C2835 C 0.85467 0.57312 0.579 0.0
C2836 C 0.84938 0.58711 0.60472 0.0
C2837 C 0.86659 0.60162 0.61586 0.0
H2838 H 0.84132 0.5619 0.57041 0.0
H2839 H 0.00844 0.70708 0.66995 0.0
H2840 H 0.47583 0.3289 0.18488 0.0
H2841 H 0.46473 0.31813 0.13347 0.0
H2842 H 0.40136 0.34372 0.16094 0.0
H2843 H 0.41183 0.35355 0.21325 0.0
H2844 H 0.39211 0.30726 0.13034 0.0
H2845 H 0.45238 0.37048 0.10393 0.0
H2846 H 0.4913 0.39062 0.10069 0.0
H2847 H 0.51765 0.33671 0.04664 0.0
H2848 H 0.47901 0.31611 0.05001 0.0
H2849 H 0.40352 0.32048 0.93997 0.0
H2850 H 0.41214 0.33425 0.99214 0.0
H2851 H 0.39406 0.26676 0.03151 0.0
H2852 H 0.38627 0.25302 0.97964 0.0
H2853 H 0.44317 0.32708 1.02773 0.0
H2854 H 0.37845 0.26532 0.11105 0.0
H2855 H 0.34004 0.24428 0.11274 0.0
H2856 H 0.3235 0.29451 0.05155 0.0
H2857 H 0.36174 0.31594 0.04975 0.0
C2858 C 0.45936 0.33216 0.18053 0.0
C2859 C 0.44491 0.34228 0.20439 0.0
C2860 C 0.45309 0.32619 0.15034 0.0
C2861 C 0.43216 0.33026 0.14208 0.0
C2862 C 0.41766 0.34028 0.16583 0.0
C2863 C 0.42388 0.3462 0.19611 0.0
C2864 C 0.42516 0.32381 0.1094 0.0
C2865 C 0.40349 0.31163 0.10807 0.0
C2866 C 0.43952 0.32923 0.07943 0.0
C2867 C 0.46277 0.34165 0.07756 0.0
C2868 C 0.46649 0.36285 0.0916 0.0
C2869 C 0.48852 0.37435 0.08971 0.0
C2870 C 0.50694 0.36492 0.07358 0.0
C2871 C 0.50339 0.34398 0.05923 0.0
C2872 C 0.48142 0.33238 0.06113 0.0
C2873 C 0.40114 0.30856 0.95981 0.0
C2874 C 0.39433 0.28543 0.95489 0.0
C2875 C 0.40631 0.31648 0.98988 0.0
C2876 C 0.40411 0.30176 1.01664 0.0
C2877 C 0.39628 0.27883 1.01195 0.0
C2878 C 0.39174 0.27085 0.98182 0.0
C2879 C 0.41045 0.31007 0.0489 0.0
C2880 C 0.43186 0.32276 0.05008 0.0
C2881 C 0.39612 0.30467 0.07875 0.0
C2882 C 0.37298 0.29215 0.08014 0.0
C2883 C 0.36657 0.27193 0.09811 0.0
C2884 C 0.34485 0.25992 0.09904 0.0
C2885 C 0.32935 0.26804 0.08222 0.0
C2886 C 0.33553 0.28821 0.0645 0.0
C2887 C 0.35724 0.30028 0.06348 0.0
H2888 H 0.31255 0.25871 0.08296 0.0
H2889 H 0.52397 0.37387 0.07213 0.0
H2890 H 0.38802 0.67991 0.9225 0.0
H2891 H 0.39478 0.66436 0.86901 0.0
H2892 H 0.41103 0.60365 0.90907 0.0
H2893 H 0.40464 0.61927 0.96264 0.0
H2894 H 0.44295 0.62021 0.86156 0.0
H2895 H 0.36315 0.60378 0.87702 0.0
H2896 H 0.3234 0.61043 0.89058 0.0
H2897 H 0.33282 0.65746 0.81164 0.0
H2898 H 0.3727 0.65133 0.79776 0.0
H2899 H 0.47293 0.58345 0.70855 0.0
H2900 H 0.44711 0.58094 0.75961 0.0
H2901 H 0.42779 0.64544 0.73927 0.0
H2902 H 0.45285 0.6474 0.68767 0.0
H2903 H 0.39333 0.61924 0.7784 0.0
H2904 H 0.47472 0.64282 0.77426 0.0
H2905 H 0.51496 0.63722 0.76126 0.0
H2906 H 0.50149 0.57705 0.81987 0.0
H2907 H 0.46114 0.58208 0.83297 0.0
C2908 C 0.393 0.66323 0.91992 0.0
C2909 C 0.39592 0.65088 0.94682 0.0
C2910 C 0.39658 0.65424 0.88935 0.0
C2911 C 0.40319 0.63272 0.885 0.0
C2912 C 0.40577 0.62021 0.91186 0.0
C2913 C 0.40206 0.62914 0.94247 0.0
C2914 C 0.40963 0.62433 0.85224 0.0
C2915 C 0.43183 0.61941 0.84366 0.0
C2916 C 0.3953 0.62376 0.82861 0.0
C2917 C 0.37116 0.62739 0.83668 0.0
C2918 C 0.35687 0.61576 0.86274 0.0
C2919 C 0.33425 0.61938 0.87044 0.0
C2920 C 0.32562 0.63445 0.8521 0.0
C2921 C 0.33955 0.64585 0.82592 0.0
C2922 C 0.36219 0.6423 0.81812 0.0
C2923 C 0.46206 0.59634 0.71416 0.0
C2924 C 0.4645 0.6154 0.69408 0.0
C2925 C 0.44755 0.59508 0.74351 0.0
C2926 C 0.43593 0.61327 0.7536 0.0
C2927 C 0.43654 0.6312 0.73201 0.0
C2928 C 0.45073 0.63223 0.70239 0.0
C2929 C 0.42665 0.61561 0.78792 0.0
C2930 C 0.40409 0.61951 0.79668 0.0
C2931 C 0.44062 0.61545 0.81186 0.0
C2932 C 0.46491 0.61266 0.80427 0.0
C2933 C 0.48034 0.62833 0.78422 0.0
C2934 C 0.50314 0.62528 0.77686 0.0
C2935 C 0.51073 0.60678 0.78961 0.0
C2936 C 0.49557 0.59134 0.80994 0.0
C2937 C 0.47275 0.59427 0.81735 0.0
H2938 H 0.52835 0.60439 0.78379 0.0
H2939 H 0.3081 0.63723 0.85809 0.0
H2940 H 0.13297 0.72337 0.56106 0.0
H2941 H 0.11953 0.71066 0.6168 0.0
H2942 H 0.09489 0.645 0.58458 0.0
H2943 H 0.10892 0.65742 0.5288 0.0
H2944 H 0.06213 0.66491 0.63393 0.0
H2945 H 0.13977 0.64863 0.61713 0.0
H2946 H 0.18117 0.65871 0.60197 0.0
H2947 H 0.18149 0.7092 0.67403 0.0
H2948 H 0.13999 0.69967 0.68931 0.0
H2949 H 0.02914 0.61229 0.78883 0.0
H2950 H 0.04478 0.62101 0.73246 0.0
H2951 H 0.09396 0.67337 0.76094 0.0
H2952 H 0.07946 0.66358 0.8169 0.0
H2953 H 0.11453 0.65989 0.71208 0.0
H2954 H 0.0412 0.68199 0.7276 0.0
H2955 H -3e-05 0.67648 0.74639 0.0
H2956 H 0.99104 0.62289 0.68018 0.0
H2957 H 0.03234 0.6277 0.66145 0.0
C2958 C 0.12501 0.7061 0.56569 0.0
C2959 C 0.12248 0.69144 0.53988 0.0
C2960 C 0.11717 0.69882 0.59785 0.0
C2961 C 0.10598 0.67674 0.60553 0.0
C2962 C 0.10335 0.66211 0.5798 0.0
C2963 C 0.11165 0.66922 0.54767 0.0
C2964 C 0.0972 0.66899 0.64014 0.0
C2965 C 0.07368 0.6635 0.6508 0.0
C2966 C 0.11183 0.66791 0.66317 0.0
C2967 C 0.13676 0.67356 0.65416 0.0
C2968 C 0.14864 0.66201 0.62957 0.0
C2969 C 0.17212 0.66761 0.62098 0.0
C2970 C 0.18393 0.68464 0.63697 0.0
C2971 C 0.17229 0.69606 0.66164 0.0
C2972 C 0.1488 0.69055 0.67029 0.0
C2973 C 0.04341 0.62553 0.78315 0.0
C2974 C 0.05287 0.63707 0.80803 0.0
C2975 C 0.05232 0.63081 0.75053 0.0
C2976 C 0.07049 0.64848 0.74134 0.0
C2977 C 0.08009 0.65969 0.76637 0.0
C2978 C 0.07161 0.65403 0.79884 0.0
C2979 C 0.0793 0.65559 0.70619 0.0
C2980 C 0.10285 0.66113 0.69536 0.0
C2981 C 0.06467 0.65753 0.68327 0.0
C2982 C 0.0398 0.65517 0.6932 0.0
C2983 C 0.03042 0.66903 0.71704 0.0
C2984 C 0.00707 0.66601 0.72774 0.0
C2985 C -0.0071 0.6495 0.71435 0.0
C2986 C 0.00205 0.63568 0.69057 0.0
C2987 C 0.02543 0.63858 0.6798 0.0
H2988 H 0.97482 0.64773 0.72214 0.0
H2989 H 0.20212 0.68894 0.6303 0.0
H2990 H 0.05609 0.3539 0.32074 0.0
H2991 H 0.06695 0.35373 0.37318 0.0
H2992 H 0.12928 0.39704 0.33856 0.0
H2993 H 0.12042 0.39433 0.28457 0.0
H2994 H 0.13904 0.37092 0.37596 0.0
H2995 H 0.07895 0.41531 0.39051 0.0
H2996 H 0.04119 0.42523 0.38594 0.0
H2997 H 0.00936 0.36631 0.44174 0.0
H2998 H 0.0469 0.35589 0.44623 0.0
H2999 H 0.10473 0.37201 0.56548 0.0
H3000 H 0.10482 0.38833 0.51268 0.0
H3001 H 0.13205 0.33073 0.4688 0.0
H3002 H 0.13389 0.31552 0.5213 0.0
H3003 H 0.08092 0.37468 0.47199 0.0
H3004 H 0.15729 0.33885 0.3954 0.0
H3005 H 0.19648 0.33355 0.40012 0.0
H3006 H 0.19925 0.38585 0.46945 0.0
H3007 H 0.1602 0.39169 0.46485 0.0
C3008 C 0.07238 0.36303 0.32378 0.0
C3009 C 0.08734 0.37403 0.29785 0.0
C3010 C 0.07826 0.36344 0.35429 0.0
C3011 C 0.09852 0.37601 0.36039 0.0
C3012 C 0.11339 0.38736 0.33476 0.0
C3013 C 0.10804 0.38611 0.3038 0.0
C3014 C 0.10455 0.37612 0.39317 0.0
C3015 C 0.12641 0.37209 0.39693 0.0
C3016 C 0.0884 0.37836 0.42079 0.0
C3017 C 0.06576 0.38486 0.41879 0.0
C3018 C 0.06389 0.40448 0.4018 0.0
C3019 C 0.04253 0.41017 0.39917 0.0
C3020 C 0.02289 0.39642 0.41355 0.0
C3021 C 0.02458 0.37699 0.43068 0.0
C3022 C 0.0459 0.37122 0.43338 0.0
C3023 C 0.11141 0.36318 0.54456 0.0
C3024 C 0.1188 0.34214 0.54756 0.0
C3025 C 0.11126 0.37245 0.51434 0.0
C3026 C 0.11844 0.36083 0.48659 0.0
C3027 C 0.12678 0.34033 0.48965 0.0
C3028 C 0.12735 0.33134 0.51977 0.0
C3029 C 0.11518 0.36881 0.45465 0.0
C3030 C 0.09379 0.37424 0.45106 0.0
C3031 C 0.13208 0.36885 0.42732 0.0
C3032 C 0.15574 0.36564 0.42986 0.0
C3033 C 0.1663 0.34934 0.41148 0.0
C3034 C 0.18849 0.3462 0.41419 0.0
C3035 C 0.20033 0.35933 0.4351 0.0
C3036 C 0.19004 0.37565 0.45331 0.0
C3037 C 0.16786 0.37886 0.4507 0.0
H3038 H 0.2175 0.35686 0.43718 0.0
H3039 H 0.00637 0.40082 0.41141 0.0
loop_
_geom_bond_atom_site_label_1
_geom_bond_atom_site_label_2
_geom_bond_distance
_geom_bond_site_symmetry_2
_ccdc_geom_bond_type
Gd0 C3 2.818 . S
Gd0 O20 2.377 . S
Gd0 O22 2.448 . S
Gd0 O23 2.506 . S
Gd0 O24 2.435 . S
Gd0 O25 2.717 . S
Gd0 O27 2.395 . S
Gd0 O31 2.327 . S
Gd1 C12 2.818 . S
Gd1 O21 2.395 . S
Gd1 O25 2.327 1_655 S
Gd1 O26 2.377 1_655 S
Gd1 O28 2.448 . S
Gd1 O29 2.506 . S
Gd1 O30 2.435 1_655 S
Gd1 O31 2.717 1_655 S
C2 O20 1.240 . S
C2 O21 1.240 1_455 S
C3 Gd0 2.818 . S
C3 C4 1.510 . S
C3 O22 1.249 . S
C3 O23 1.252 . S
C4 C3 1.510 . S
C4 C5 1.404 . S
C4 C6 1.352 . S
C5 C4 1.404 . S
C5 C9 1.389 . S
C5 H32 0.930 . S
C6 C4 1.352 . S
C6 C8 1.374 . S
C6 H33 0.931 . S
C7 C8 1.359 . S
C7 C9 1.364 . S
C8 C6 1.374 . S
C8 C7 1.359 . S
C8 H34 0.931 . S
C9 C5 1.389 . S
C9 C7 1.364 . S
C9 H35 0.931 . S
C10 O24 1.256 . S
C10 O25 1.257 . S
C11 O26 1.240 . S
C11 O27 1.240 . S
C12 Gd1 2.818 . S
C12 C13 1.510 . S
C12 O28 1.249 . S
C12 O29 1.252 . S
C13 C12 1.510 . S
C13 C14 1.404 . S
C13 C15 1.352 1_554 S
C14 C13 1.404 . S
C14 C18 1.389 1_554 S
C14 H36 0.930 . S
C15 C13 1.352 1_556 S
C15 C17 1.374 . S
C15 H37 0.931 . S
C16 C17 1.359 . S
C16 C18 1.364 . S
C17 C15 1.374 . S
C17 C16 1.359 . S
C17 H38 0.931 . S
C18 C14 1.389 1_556 S
C18 C16 1.364 . S
C18 H39 0.931 . S
C19 O30 1.256 . S
C19 O31 1.257 . S
O20 Gd0 2.377 . S
O20 C2 1.240 . S
O21 Gd1 2.395 . S
O21 C2 1.240 1_655 S
O22 Gd0 2.448 . S
O22 C3 1.249 . S
O23 Gd0 2.506 . S
O23 C3 1.252 . S
O24 Gd0 2.435 . S
O24 C10 1.256 . S
O25 Gd0 2.717 . S
O25 Gd1 2.327 1_455 S
O25 C10 1.257 . S
O26 Gd1 2.377 1_455 S
O26 C11 1.240 . S
O27 Gd0 2.395 . S
O27 C11 1.240 . S
O28 Gd1 2.448 . S
O28 C12 1.249 . S
O29 Gd1 2.506 . S
O29 C12 1.252 . S
O30 Gd1 2.435 1_455 S
O30 C19 1.256 . S
O31 Gd0 2.327 . S
O31 Gd1 2.717 1_455 S
O31 C19 1.257 . S
H32 C5 0.930 . S
H33 C6 0.931 . S
H34 C8 0.931 . S
H35 C9 0.931 . S
H36 C14 0.930 . S
H37 C15 0.931 . S
H38 C17 0.931 . S
H39 C18 0.931 . S
Gd40 C43 2.818 . S
Gd40 O60 2.377 . S
Gd40 O62 2.448 . S
Gd40 O63 2.506 . S
Gd40 O64 2.435 . S
Gd40 O65 2.717 . S
Gd40 O67 2.395 . S
Gd40 O71 2.327 . S
Gd41 C52 2.818 . S
Gd41 O61 2.395 . S
Gd41 O65 2.327 . S
Gd41 O66 2.377 . S
Gd41 O68 2.448 . S
Gd41 O69 2.506 . S
Gd41 O70 2.435 . S
Gd41 O71 2.717 . S
C42 O60 1.240 . S
C42 O61 1.240 . S
C43 Gd40 2.818 . S
C43 C44 1.510 . S
C43 O62 1.249 . S
C43 O63 1.252 . S
C44 C43 1.510 . S
C44 C45 1.404 . S
C44 C46 1.352 . S
C45 C44 1.404 . S
C45 C49 1.389 . S
C45 H72 0.930 . S
C46 C44 1.352 . S
C46 C48 1.374 . S
C46 H73 0.931 . S
C47 C48 1.359 . S
C47 C49 1.364 . S
C48 C46 1.374 . S
C48 C47 1.359 . S
C48 H74 0.931 . S
C49 C45 1.389 . S
C49 C47 1.364 . S
C49 H75 0.931 . S
C50 O64 1.256 . S
C50 O65 1.257 . S
C51 O66 1.240 . S
C51 O67 1.240 . S
C52 Gd41 2.818 . S
C52 C53 1.510 . S
C52 O68 1.249 . S
C52 O69 1.252 . S
C53 C52 1.510 . S
C53 C54 1.404 . S
C53 C55 1.352 . S
C54 C53 1.404 . S
C54 C58 1.389 . S
C54 H76 0.930 . S
C55 C53 1.352 . S
C55 C57 1.374 . S
C55 H77 0.931 . S
C56 C57 1.359 . S
C56 C58 1.364 . S
C57 C55 1.374 . S
C57 C56 1.359 . S
C57 H78 0.931 . S
C58 C54 1.389 . S
C58 C56 1.364 . S
C58 H79 0.931 . S
C59 O70 1.256 . S
C59 O71 1.257 . S
O60 Gd40 2.377 . S
O60 C42 1.240 . S
O61 Gd41 2.395 . S
O61 C42 1.240 . S
O62 Gd40 2.448 . S
O62 C43 1.249 . S
O63 Gd40 2.506 . S
O63 C43 1.252 . S
O64 Gd40 2.435 . S
O64 C50 1.256 . S
O65 Gd40 2.717 . S
O65 Gd41 2.327 . S
O65 C50 1.257 . S
O66 Gd41 2.377 . S
O66 C51 1.240 . S
O67 Gd40 2.395 . S
O67 C51 1.240 . S
O68 Gd41 2.448 . S
O68 C52 1.249 . S
O69 Gd41 2.506 . S
O69 C52 1.252 . S
O70 Gd41 2.435 . S
O70 C59 1.256 . S
O71 Gd40 2.327 . S
O71 Gd41 2.717 . S
O71 C59 1.257 . S
H72 C45 0.930 . S
H73 C46 0.931 . S
H74 C48 0.931 . S
H75 C49 0.931 . S
H76 C54 0.930 . S
H77 C55 0.931 . S
H78 C57 0.931 . S
H79 C58 0.931 . S
Gd80 C83 2.818 . S
Gd80 O100 2.377 . S
Gd80 O102 2.448 . S
Gd80 O103 2.506 . S
Gd80 O104 2.435 . S
Gd80 O105 2.717 . S
Gd80 O107 2.395 . S
Gd80 O111 2.327 . S
Gd81 C92 2.818 . S
Gd81 O101 2.395 . S
Gd81 O105 2.327 . S
Gd81 O106 2.377 . S
Gd81 O108 2.448 . S
Gd81 O109 2.506 . S
Gd81 O110 2.435 . S
Gd81 O111 2.717 . S
C82 O100 1.240 . S
C82 O101 1.240 . S
C83 Gd80 2.818 . S
C83 C84 1.510 . S
C83 O102 1.249 . S
C83 O103 1.252 . S
C84 C83 1.510 . S
C84 C85 1.404 . S
C84 C86 1.352 . S
C85 C84 1.404 . S
C85 C89 1.389 . S
C85 H112 0.930 . S
C86 C84 1.352 . S
C86 C88 1.374 . S
C86 H113 0.931 . S
C87 C88 1.359 . S
C87 C89 1.364 . S
C88 C86 1.374 . S
C88 C87 1.359 . S
C88 H114 0.931 . S
C89 C85 1.389 . S
C89 C87 1.364 . S
C89 H115 0.931 . S
C90 O104 1.256 . S
C90 O105 1.257 . S
C91 O106 1.240 . S
C91 O107 1.240 . S
C92 Gd81 2.818 . S
C92 C93 1.510 . S
C92 O108 1.249 . S
C92 O109 1.252 . S
C93 C92 1.510 . S
C93 C94 1.404 . S
C93 C95 1.352 . S
C94 C93 1.404 . S
C94 C98 1.389 . S
C94 H116 0.930 . S
C95 C93 1.352 . S
C95 C97 1.374 . S
C95 H117 0.931 . S
C96 C97 1.359 . S
C96 C98 1.364 . S
C97 C95 1.374 . S
C97 C96 1.359 . S
C97 H118 0.931 . S
C98 C94 1.389 . S
C98 C96 1.364 . S
C98 H119 0.931 . S
C99 O110 1.256 . S
C99 O111 1.257 . S
O100 Gd80 2.377 . S
O100 C82 1.240 . S
O101 Gd81 2.395 . S
O101 C82 1.240 . S
O102 Gd80 2.448 . S
O102 C83 1.249 . S
O103 Gd80 2.506 . S
O103 C83 1.252 . S
O104 Gd80 2.435 . S
O104 C90 1.256 . S
O105 Gd80 2.717 . S
O105 Gd81 2.327 . S
O105 C90 1.257 . S
O106 Gd81 2.377 . S
O106 C91 1.240 . S
O107 Gd80 2.395 . S
O107 C91 1.240 . S
O108 Gd81 2.448 . S
O108 C92 1.249 . S
O109 Gd81 2.506 . S
O109 C92 1.252 . S
O110 Gd81 2.435 . S
O110 C99 1.256 . S
O111 Gd80 2.327 . S
O111 Gd81 2.717 . S
O111 C99 1.257 . S
H112 C85 0.930 . S
H113 C86 0.931 . S
H114 C88 0.931 . S
H115 C89 0.931 . S
H116 C94 0.930 . S
H117 C95 0.931 . S
H118 C97 0.931 . S
H119 C98 0.931 . S
Gd120 C123 2.818 . S
Gd120 O140 2.377 . S
Gd120 O142 2.448 . S
Gd120 O143 2.506 . S
Gd120 O144 2.435 . S
Gd120 O145 2.717 . S
Gd120 O147 2.395 . S
Gd120 O151 2.327 . S
Gd121 C132 2.818 . S
Gd121 O141 2.395 . S
Gd121 O145 2.327 . S
Gd121 O146 2.377 . S
Gd121 O148 2.448 . S
Gd121 O149 2.506 . S
Gd121 O150 2.435 . S
Gd121 O151 2.717 . S
C122 O140 1.240 . S
C122 O141 1.240 . S
C123 Gd120 2.818 . S
C123 C124 1.510 . S
C123 O142 1.249 . S
C123 O143 1.252 . S
C124 C123 1.510 . S
C124 C125 1.404 . S
C124 C126 1.352 . S
C125 C124 1.404 . S
C125 C129 1.389 . S
C125 H152 0.930 . S
C126 C124 1.352 . S
C126 C128 1.344 1_556 S
C126 H153 0.931 . S
C127 C128 1.368 . S
C127 C129 1.364 1_554 S
C128 C126 1.344 1_554 S
C128 C127 1.368 . S
C128 H154 0.952 . S
C129 C125 1.389 . S
C129 C127 1.364 1_556 S
C129 H155 0.931 1_556 S
C130 O144 1.256 . S
C130 O145 1.257 . S
C131 O146 1.240 . S
C131 O147 1.240 . S
C132 Gd121 2.818 . S
C132 C133 1.510 . S
C132 O148 1.249 . S
C132 O149 1.252 . S
C133 C132 1.510 . S
C133 C134 1.404 . S
C133 C135 1.352 . S
C134 C133 1.404 . S
C134 C138 1.389 . S
C134 H156 0.930 . S
C135 C133 1.352 . S
C135 C137 1.374 . S
C135 H157 0.931 . S
C136 C137 1.359 . S
C136 C138 1.364 . S
C137 C135 1.374 . S
C137 C136 1.359 . S
C137 H158 0.931 . S
C138 C134 1.389 . S
C138 C136 1.364 . S
C138 H159 0.931 . S
C139 O150 1.256 . S
C139 O151 1.257 . S
O140 Gd120 2.377 . S
O140 C122 1.240 . S
O141 Gd121 2.395 . S
O141 C122 1.240 . S
O142 Gd120 2.448 . S
O142 C123 1.249 . S
O143 Gd120 2.506 . S
O143 C123 1.252 . S
O144 Gd120 2.435 . S
O144 C130 1.256 . S
O145 Gd120 2.717 . S
O145 Gd121 2.327 . S
O145 C130 1.257 . S
O146 Gd121 2.377 . S
O146 C131 1.240 . S
O147 Gd120 2.395 . S
O147 C131 1.240 . S
O148 Gd121 2.448 . S
O148 C132 1.249 . S
O149 Gd121 2.506 . S
O149 C132 1.252 . S
O150 Gd121 2.435 . S
O150 C139 1.256 . S
O151 Gd120 2.327 . S
O151 Gd121 2.717 . S
O151 C139 1.257 . S
H152 C125 0.930 . S
H153 C126 0.931 . S
H154 C128 0.952 . S
H155 C129 0.931 1_554 S
H156 C134 0.930 . S
H157 C135 0.931 . S
H158 C137 0.931 . S
H159 C138 0.931 . S
Gd160 C163 2.818 . S
Gd160 O180 2.377 . S
Gd160 O182 2.448 . S
Gd160 O183 2.506 . S
Gd160 O184 2.435 . S
Gd160 O185 2.717 . S
Gd160 O187 2.395 . S
Gd160 O191 2.327 . S
Gd161 C172 2.818 . S
Gd161 O181 2.395 . S
Gd161 O185 2.327 1_655 S
Gd161 O186 2.377 1_655 S
Gd161 O188 2.448 . S
Gd161 O189 2.506 . S
Gd161 O190 2.435 . S
Gd161 O191 2.717 1_655 S
C162 O180 1.240 1_655 S
C162 O181 1.240 . S
C163 Gd160 2.818 . S
C163 C164 1.510 . S
C163 O182 1.249 . S
C163 O183 1.252 . S
C164 C163 1.510 . S
C164 C165 1.404 . S
C164 C166 1.352 1_556 S
C165 C164 1.404 . S
C165 C169 1.389 1_556 S
C165 H192 0.930 . S
C166 C164 1.352 1_554 S
C166 C168 1.374 . S
C166 H193 0.931 . S
C167 C168 1.359 . S
C167 C169 1.364 . S
C168 C166 1.374 . S
C168 C167 1.359 . S
C168 H194 0.931 . S
C169 C165 1.389 1_554 S
C169 C167 1.364 . S
C169 H195 0.931 . S
C170 O184 1.256 . S
C170 O185 1.257 . S
C171 O186 1.240 . S
C171 O187 1.240 . S
C172 Gd161 2.818 . S
C172 C173 1.510 . S
C172 O188 1.249 . S
C172 O189 1.252 . S
C173 C172 1.510 . S
C173 C174 1.404 . S
C173 C175 1.352 . S
C174 C173 1.404 . S
C174 C178 1.389 . S
C174 H196 0.930 . S
C175 C173 1.352 . S
C175 C177 1.374 . S
C175 H197 0.931 . S
C176 C177 1.359 . S
C176 C178 1.364 . S
C177 C175 1.374 . S
C177 C176 1.359 . S
C177 H198 0.931 . S
C178 C174 1.389 . S
C178 C176 1.364 . S
C178 H199 0.931 . S
C179 O190 1.256 1_455 S
C179 O191 1.257 . S
O180 Gd160 2.377 . S
O180 C162 1.240 1_455 S
O181 Gd161 2.395 . S
O181 C162 1.240 . S
O182 Gd160 2.448 . S
O182 C163 1.249 . S
O183 Gd160 2.506 . S
O183 C163 1.252 . S
O184 Gd160 2.435 . S
O184 C170 1.256 . S
O185 Gd160 2.717 . S
O185 Gd161 2.327 1_455 S
O185 C170 1.257 . S
O186 Gd161 2.377 1_455 S
O186 C171 1.240 . S
O187 Gd160 2.395 . S
O187 C171 1.240 . S
O188 Gd161 2.448 . S
O188 C172 1.249 . S
O189 Gd161 2.506 . S
O189 C172 1.252 . S
O190 Gd161 2.435 . S
O190 C179 1.256 1_655 S
O191 Gd160 2.327 . S
O191 Gd161 2.717 1_455 S
O191 C179 1.257 . S
H192 C165 0.930 . S
H193 C166 0.931 . S
H194 C168 0.931 . S
H195 C169 0.931 . S
H196 C174 0.930 . S
H197 C175 0.931 . S
H198 C177 0.931 . S
H199 C178 0.931 . S
Gd200 C203 2.818 . S
Gd200 O220 2.377 . S
Gd200 O222 2.448 . S
Gd200 O223 2.506 . S
Gd200 O224 2.435 . S
Gd200 O225 2.717 . S
Gd200 O227 2.395 . S
Gd200 O231 2.327 . S
Gd201 C212 2.818 . S
Gd201 O221 2.395 . S
Gd201 O225 2.327 . S
Gd201 O226 2.377 . S
Gd201 O228 2.448 . S
Gd201 O229 2.506 . S
Gd201 O230 2.435 . S
Gd201 O231 2.717 . S
C202 O220 1.240 . S
C202 O221 1.240 . S
C203 Gd200 2.818 . S
C203 C204 1.510 . S
C203 O222 1.249 . S
C203 O223 1.252 . S
C204 C203 1.510 . S
C204 C205 1.404 . S
C204 C206 1.352 . S
C205 C204 1.404 . S
C205 C209 1.389 . S
C205 H232 0.930 . S
C206 C204 1.352 . S
C206 C208 1.374 . S
C206 H233 0.931 . S
C207 C208 1.359 . S
C207 C209 1.364 . S
C208 C206 1.374 . S
C208 C207 1.359 . S
C208 H234 0.931 . S
C209 C205 1.389 . S
C209 C207 1.364 . S
C209 H235 0.931 . S
C210 O224 1.256 . S
C210 O225 1.257 . S
C211 O226 1.240 . S
C211 O227 1.240 . S
C212 Gd201 2.818 . S
C212 C213 1.510 1_554 S
C212 O228 1.249 . S
C212 O229 1.252 . S
C213 C212 1.510 1_556 S
C213 C214 1.404 . S
C213 C215 1.352 . S
C214 C213 1.404 . S
C214 C218 1.389 . S
C214 H236 0.930 1_556 S
C215 C213 1.352 . S
C215 C217 1.374 . S
C215 H237 0.931 . S
C216 C217 1.359 . S
C216 C218 1.364 . S
C217 C215 1.374 . S
C217 C216 1.359 . S
C217 H238 0.931 . S
C218 C214 1.389 . S
C218 C216 1.364 . S
C218 H239 0.931 . S
C219 O230 1.256 . S
C219 O231 1.257 . S
O220 Gd200 2.377 . S
O220 C202 1.240 . S
O221 Gd201 2.395 . S
O221 C202 1.240 . S
O222 Gd200 2.448 . S
O222 C203 1.249 . S
O223 Gd200 2.506 . S
O223 C203 1.252 . S
O224 Gd200 2.435 . S
O224 C210 1.256 . S
O225 Gd200 2.717 . S
O225 Gd201 2.327 . S
O225 C210 1.257 . S
O226 Gd201 2.377 . S
O226 C211 1.240 . S
O227 Gd200 2.395 . S
O227 C211 1.240 . S
O228 Gd201 2.448 . S
O228 C212 1.249 . S
O229 Gd201 2.506 . S
O229 C212 1.252 . S
O230 Gd201 2.435 . S
O230 C219 1.256 . S
O231 Gd200 2.327 . S
O231 Gd201 2.717 . S
O231 C219 1.257 . S
H232 C205 0.930 . S
H233 C206 0.931 . S
H234 C208 0.931 . S
H235 C209 0.931 . S
H236 C214 0.930 1_554 S
H237 C215 0.931 . S
H238 C217 0.931 . S
H239 C218 0.931 . S
Gd240 C243 2.818 . S
Gd240 O260 2.377 . S
Gd240 O262 2.448 . S
Gd240 O263 2.506 . S
Gd240 O264 2.435 . S
Gd240 O265 2.717 . S
Gd240 O267 2.395 . S
Gd240 O271 2.327 . S
Gd241 C252 2.818 . S
Gd241 O261 2.395 . S
Gd241 O265 2.327 . S
Gd241 O266 2.377 . S
Gd241 O268 2.448 . S
Gd241 O269 2.506 . S
Gd241 O270 2.435 . S
Gd241 O271 2.717 . S
C242 O260 1.240 . S
C242 O261 1.240 . S
C243 Gd240 2.818 . S
C243 C244 1.510 . S
C243 O262 1.249 . S
C243 O263 1.252 . S
C244 C243 1.510 . S
C244 C245 1.404 . S
C244 C246 1.352 . S
C245 C244 1.404 . S
C245 C249 1.389 . S
C245 H272 0.930 . S
C246 C244 1.352 . S
C246 C248 1.374 . S
C246 H273 0.931 . S
C247 C248 1.359 . S
C247 C249 1.364 . S
C248 C246 1.374 . S
C248 C247 1.359 . S
C248 H274 0.931 . S
C249 C245 1.389 . S
C249 C247 1.364 . S
C249 H275 0.931 . S
C250 O264 1.256 . S
C250 O265 1.257 . S
C251 O266 1.240 . S
C251 O267 1.240 . S
C252 Gd241 2.818 . S
C252 C253 1.510 . S
C252 O268 1.249 . S
C252 O269 1.252 . S
C253 C252 1.510 . S
C253 C254 1.404 . S
C253 C255 1.352 . S
C254 C253 1.404 . S
C254 C258 1.389 . S
C254 H276 0.930 . S
C255 C253 1.352 . S
C255 C257 1.374 . S
C255 H277 0.931 . S
C256 C257 1.359 . S
C256 C258 1.364 . S
C257 C255 1.374 . S
C257 C256 1.359 . S
C257 H278 0.931 . S
C258 C254 1.389 . S
C258 C256 1.364 . S
C258 H279 0.931 . S
C259 O270 1.256 . S
C259 O271 1.257 . S
O260 Gd240 2.377 . S
O260 C242 1.240 . S
O261 Gd241 2.395 . S
O261 C242 1.240 . S
O262 Gd240 2.448 . S
O262 C243 1.249 . S
O263 Gd240 2.506 . S
O263 C243 1.252 . S
O264 Gd240 2.435 . S
O264 C250 1.256 . S
O265 Gd240 2.717 . S
O265 Gd241 2.327 . S
O265 C250 1.257 . S
O266 Gd241 2.377 . S
O266 C251 1.240 . S
O267 Gd240 2.395 . S
O267 C251 1.240 . S
O268 Gd241 2.448 . S
O268 C252 1.249 . S
O269 Gd241 2.506 . S
O269 C252 1.252 . S
O270 Gd241 2.435 . S
O270 C259 1.256 . S
O271 Gd240 2.327 . S
O271 Gd241 2.717 . S
O271 C259 1.257 . S
H272 C245 0.930 . S
H273 C246 0.931 . S
H274 C248 0.931 . S
H275 C249 0.931 . S
H276 C254 0.930 . S
H277 C255 0.931 . S
H278 C257 0.931 . S
H279 C258 0.931 . S
Gd280 C283 2.818 . S
Gd280 O300 2.377 . S
Gd280 O302 2.448 . S
Gd280 O303 2.506 . S
Gd280 O304 2.435 . S
Gd280 O305 2.717 . S
Gd280 O307 2.395 . S
Gd280 O311 2.327 . S
Gd281 C292 2.818 . S
Gd281 O301 2.395 . S
Gd281 O305 2.327 . S
Gd281 O306 2.377 . S
Gd281 O308 2.448 . S
Gd281 O309 2.506 . S
Gd281 O310 2.435 . S
Gd281 O311 2.717 . S
C282 O300 1.240 . S
C282 O301 1.240 . S
C283 Gd280 2.818 . S
C283 C284 1.510 . S
C283 O302 1.249 . S
C283 O303 1.252 . S
C284 C283 1.510 . S
C284 C285 1.404 . S
C284 C286 1.352 . S
C285 C284 1.404 . S
C285 C289 1.389 . S
C285 H312 0.930 . S
C286 C284 1.352 . S
C286 C288 1.374 . S
C286 H313 0.931 . S
C287 C288 1.359 . S
C287 C289 1.364 . S
C288 C286 1.374 . S
C288 C287 1.359 . S
C288 H314 0.931 . S
C289 C285 1.389 . S
C289 C287 1.364 . S
C289 H315 0.931 . S
C290 O304 1.256 . S
C290 O305 1.257 . S
C291 O306 1.240 . S
C291 O307 1.240 . S
C292 Gd281 2.818 . S
C292 C293 1.510 . S
C292 O308 1.249 . S
C292 O309 1.252 . S
C293 C292 1.510 . S
C293 C294 1.404 . S
C293 C295 1.352 . S
C294 C293 1.404 . S
C294 C298 1.389 . S
C294 H316 0.930 . S
C295 C293 1.352 . S
C295 C297 1.374 . S
C295 H317 0.931 . S
C296 C297 1.359 . S
C296 C298 1.364 . S
C297 C295 1.374 . S
C297 C296 1.359 . S
C297 H318 0.931 . S
C298 C294 1.389 . S
C298 C296 1.364 . S
C298 H319 0.931 . S
C299 O310 1.256 . S
C299 O311 1.257 . S
O300 Gd280 2.377 . S
O300 C282 1.240 . S
O301 Gd281 2.395 . S
O301 C282 1.240 . S
O302 Gd280 2.448 . S
O302 C283 1.249 . S
O303 Gd280 2.506 . S
O303 C283 1.252 . S
O304 Gd280 2.435 . S
O304 C290 1.256 . S
O305 Gd280 2.717 . S
O305 Gd281 2.327 . S
O305 C290 1.257 . S
O306 Gd281 2.377 . S
O306 C291 1.240 . S
O307 Gd280 2.395 . S
O307 C291 1.240 . S
O308 Gd281 2.448 . S
O308 C292 1.249 . S
O309 Gd281 2.506 . S
O309 C292 1.252 . S
O310 Gd281 2.435 . S
O310 C299 1.256 . S
O311 Gd280 2.327 . S
O311 Gd281 2.717 . S
O311 C299 1.257 . S
H312 C285 0.930 . S
H313 C286 0.931 . S
H314 C288 0.931 . S
H315 C289 0.931 . S
H316 C294 0.930 . S
H317 C295 0.931 . S
H318 C297 0.931 . S
H319 C298 0.931 . S
Gd320 C323 2.818 . S
Gd320 O340 2.377 . S
Gd320 O342 2.448 . S
Gd320 O343 2.506 . S
Gd320 O344 2.435 . S
Gd320 O345 2.717 . S
Gd320 O347 2.395 . S
Gd320 O351 2.327 . S
Gd321 C332 2.818 . S
Gd321 O341 2.395 . S
Gd321 O345 2.327 . S
Gd321 O346 2.377 . S
Gd321 O348 2.448 . S
Gd321 O349 2.506 . S
Gd321 O350 2.435 . S
Gd321 O351 2.717 . S
C322 O340 1.240 . S
C322 O341 1.240 . S
C323 Gd320 2.818 . S
C323 C324 1.510 . S
C323 O342 1.249 . S
C323 O343 1.252 . S
C324 C323 1.510 . S
C324 C325 1.404 . S
C324 C326 1.352 . S
C325 C324 1.404 . S
C325 C329 1.389 . S
C325 H352 0.930 . S
C326 C324 1.352 . S
C326 C328 1.374 . S
C326 H353 0.931 . S
C327 C328 1.359 . S
C327 C329 1.364 . S
C328 C326 1.374 . S
C328 C327 1.359 . S
C328 H354 0.931 . S
C329 C325 1.389 . S
C329 C327 1.364 . S
C329 H355 0.931 . S
C330 O344 1.256 . S
C330 O345 1.257 . S
C331 O346 1.240 . S
C331 O347 1.240 . S
C332 Gd321 2.818 . S
C332 C333 1.510 . S
C332 O348 1.249 . S
C332 O349 1.252 . S
C333 C332 1.510 . S
C333 C334 1.404 . S
C333 C335 1.352 . S
C334 C333 1.404 . S
C334 C338 1.389 . S
C334 H356 0.930 . S
C335 C333 1.352 . S
C335 C337 1.374 . S
C335 H357 0.931 . S
C336 C337 1.359 . S
C336 C338 1.364 . S
C337 C335 1.374 . S
C337 C336 1.359 . S
C337 H358 0.931 . S
C338 C334 1.389 . S
C338 C336 1.364 . S
C338 H359 0.931 . S
C339 O350 1.256 . S
C339 O351 1.257 . S
O340 Gd320 2.377 . S
O340 C322 1.240 . S
O341 Gd321 2.395 . S
O341 C322 1.240 . S
O342 Gd320 2.448 . S
O342 C323 1.249 . S
O343 Gd320 2.506 . S
O343 C323 1.252 . S
O344 Gd320 2.435 . S
O344 C330 1.256 . S
O345 Gd320 2.717 . S
O345 Gd321 2.327 . S
O345 C330 1.257 . S
O346 Gd321 2.377 . S
O346 C331 1.240 . S
O347 Gd320 2.395 . S
O347 C331 1.240 . S
O348 Gd321 2.448 . S
O348 C332 1.249 . S
O349 Gd321 2.506 . S
O349 C332 1.252 . S
O350 Gd321 2.435 . S
O350 C339 1.256 . S
O351 Gd320 2.327 . S
O351 Gd321 2.717 . S
O351 C339 1.257 . S
H352 C325 0.930 . S
H353 C326 0.931 . S
H354 C328 0.931 . S
H355 C329 0.931 . S
H356 C334 0.930 . S
H357 C335 0.931 . S
H358 C337 0.931 . S
H359 C338 0.931 . S
Gd360 C363 2.818 . S
Gd360 O380 2.377 . S
Gd360 O382 2.448 . S
Gd360 O383 2.506 . S
Gd360 O384 2.435 . S
Gd360 O385 2.717 . S
Gd360 O387 2.395 . S
Gd360 O391 2.327 . S
Gd361 C372 2.818 . S
Gd361 O381 2.395 . S
Gd361 O385 2.327 . S
Gd361 O386 2.377 . S
Gd361 O388 2.448 . S
Gd361 O389 2.506 . S
Gd361 O390 2.435 . S
Gd361 O391 2.717 . S
C362 O380 1.240 . S
C362 O381 1.240 . S
C363 Gd360 2.818 . S
C363 C364 1.510 . S
C363 O382 1.249 . S
C363 O383 1.252 . S
C364 C363 1.510 . S
C364 C365 1.404 . S
C364 C366 1.352 . S
C365 C364 1.404 . S
C365 C369 1.389 . S
C365 H392 0.930 . S
C366 C364 1.352 . S
C366 C368 1.374 . S
C366 H393 0.931 . S
C367 C368 1.359 . S
C367 C369 1.364 . S
C368 C366 1.374 . S
C368 C367 1.359 . S
C368 H394 0.931 . S
C369 C365 1.389 . S
C369 C367 1.364 . S
C369 H395 0.931 . S
C370 O384 1.256 . S
C370 O385 1.257 . S
C371 O386 1.240 . S
C371 O387 1.240 . S
C372 Gd361 2.818 . S
C372 C373 1.510 . S
C372 O388 1.249 . S
C372 O389 1.252 . S
C373 C372 1.510 . S
C373 C374 1.404 . S
C373 C375 1.352 . S
C374 C373 1.404 . S
C374 C378 1.389 . S
C374 H396 0.930 . S
C375 C373 1.352 . S
C375 C377 1.344 1_554 S
C375 H397 0.931 . S
C376 C377 1.368 . S
C376 C378 1.364 1_556 S
C377 C375 1.344 1_556 S
C377 C376 1.368 . S
C377 H398 0.951 . S
C378 C374 1.389 . S
C378 C376 1.364 1_554 S
C378 H399 0.931 1_554 S
C379 O390 1.256 . S
C379 O391 1.257 . S
O380 Gd360 2.377 . S
O380 C362 1.240 . S
O381 Gd361 2.395 . S
O381 C362 1.240 . S
O382 Gd360 2.448 . S
O382 C363 1.249 . S
O383 Gd360 2.506 . S
O383 C363 1.252 . S
O384 Gd360 2.435 . S
O384 C370 1.256 . S
O385 Gd360 2.717 . S
O385 Gd361 2.327 . S
O385 C370 1.257 . S
O386 Gd361 2.377 . S
O386 C371 1.240 . S
O387 Gd360 2.395 . S
O387 C371 1.240 . S
O388 Gd361 2.448 . S
O388 C372 1.249 . S
O389 Gd361 2.506 . S
O389 C372 1.252 . S
O390 Gd361 2.435 . S
O390 C379 1.256 . S
O391 Gd360 2.327 . S
O391 Gd361 2.717 . S
O391 C379 1.257 . S
H392 C365 0.930 . S
H393 C366 0.931 . S
H394 C368 0.931 . S
H395 C369 0.931 . S
H396 C374 0.930 . S
H397 C375 0.931 . S
H398 C377 0.951 . S
H399 C378 0.931 1_556 S
Gd400 C403 2.818 . S
Gd400 O420 2.377 . S
Gd400 O422 2.448 . S
Gd400 O423 2.506 . S
Gd400 O424 2.435 . S
Gd400 O425 2.717 . S
Gd400 O427 2.395 . S
Gd400 O431 2.327 . S
Gd401 C412 2.818 . S
Gd401 O421 2.395 . S
Gd401 O425 2.327 . S
Gd401 O426 2.377 . S
Gd401 O428 2.448 . S
Gd401 O429 2.506 . S
Gd401 O430 2.435 . S
Gd401 O431 2.717 . S
C402 O420 1.240 . S
C402 O421 1.240 . S
C403 Gd400 2.818 . S
C403 C404 1.510 1_556 S
C403 O422 1.249 . S
C403 O423 1.252 . S
C404 C403 1.510 1_554 S
C404 C405 1.404 . S
C404 C406 1.352 . S
C405 C404 1.404 . S
C405 C409 1.389 . S
C405 H432 0.930 1_554 S
C406 C404 1.352 . S
C406 C408 1.374 . S
C406 H433 0.931 . S
C407 C408 1.359 . S
C407 C409 1.364 . S
C408 C406 1.374 . S
C408 C407 1.359 . S
C408 H434 0.931 . S
C409 C405 1.389 . S
C409 C407 1.364 . S
C409 H435 0.931 . S
C410 O424 1.256 . S
C410 O425 1.257 . S
C411 O426 1.240 . S
C411 O427 1.240 . S
C412 Gd401 2.818 . S
C412 C413 1.510 . S
C412 O428 1.249 . S
C412 O429 1.252 . S
C413 C412 1.510 . S
C413 C414 1.404 . S
C413 C415 1.352 . S
C414 C413 1.404 . S
C414 C418 1.389 . S
C414 H436 0.930 . S
C415 C413 1.352 . S
C415 C417 1.374 . S
C415 H437 0.931 . S
C416 C417 1.359 . S
C416 C418 1.364 . S
C417 C415 1.374 . S
C417 C416 1.359 . S
C417 H438 0.931 . S
C418 C414 1.389 . S
C418 C416 1.364 . S
C418 H439 0.931 . S
C419 O430 1.256 . S
C419 O431 1.257 . S
O420 Gd400 2.377 . S
O420 C402 1.240 . S
O421 Gd401 2.395 . S
O421 C402 1.240 . S
O422 Gd400 2.448 . S
O422 C403 1.249 . S
O423 Gd400 2.506 . S
O423 C403 1.252 . S
O424 Gd400 2.435 . S
O424 C410 1.256 . S
O425 Gd400 2.717 . S
O425 Gd401 2.327 . S
O425 C410 1.257 . S
O426 Gd401 2.377 . S
O426 C411 1.240 . S
O427 Gd400 2.395 . S
O427 C411 1.240 . S
O428 Gd401 2.448 . S
O428 C412 1.249 . S
O429 Gd401 2.506 . S
O429 C412 1.252 . S
O430 Gd401 2.435 . S
O430 C419 1.256 . S
O431 Gd400 2.327 . S
O431 Gd401 2.717 . S
O431 C419 1.257 . S
H432 C405 0.930 1_556 S
H433 C406 0.931 . S
H434 C408 0.931 . S
H435 C409 0.931 . S
H436 C414 0.930 . S
H437 C415 0.931 . S
H438 C417 0.931 . S
H439 C418 0.931 . S
Gd440 C443 2.818 . S
Gd440 O460 2.377 . S
Gd440 O462 2.448 . S
Gd440 O463 2.506 . S
Gd440 O464 2.435 . S
Gd440 O465 2.717 . S
Gd440 O467 2.395 . S
Gd440 O471 2.327 . S
Gd441 C452 2.818 . S
Gd441 O461 2.395 . S
Gd441 O465 2.327 . S
Gd441 O466 2.377 . S
Gd441 O468 2.448 . S
Gd441 O469 2.506 . S
Gd441 O470 2.435 . S
Gd441 O471 2.717 . S
C442 O460 1.240 . S
C442 O461 1.240 . S
C443 Gd440 2.818 . S
C443 C444 1.510 . S
C443 O462 1.249 . S
C443 O463 1.252 . S
C444 C443 1.510 . S
C444 C445 1.404 . S
C444 C446 1.352 . S
C445 C444 1.404 . S
C445 C449 1.389 . S
C445 H472 0.930 . S
C446 C444 1.352 . S
C446 C448 1.374 . S
C446 H473 0.931 . S
C447 C448 1.359 . S
C447 C449 1.364 . S
C448 C446 1.374 . S
C448 C447 1.359 . S
C448 H474 0.931 . S
C449 C445 1.389 . S
C449 C447 1.364 . S
C449 H475 0.931 . S
C450 O464 1.256 . S
C450 O465 1.257 . S
C451 O466 1.240 . S
C451 O467 1.240 . S
C452 Gd441 2.818 . S
C452 C453 1.510 . S
C452 O468 1.249 . S
C452 O469 1.252 . S
C453 C452 1.510 . S
C453 C454 1.404 . S
C453 C455 1.352 . S
C454 C453 1.404 . S
C454 C458 1.389 . S
C454 H476 0.930 . S
C455 C453 1.352 . S
C455 C457 1.374 . S
C455 H477 0.931 . S
C456 C457 1.359 . S
C456 C458 1.364 . S
C457 C455 1.374 . S
C457 C456 1.359 . S
C457 H478 0.931 . S
C458 C454 1.389 . S
C458 C456 1.364 . S
C458 H479 0.931 . S
C459 O470 1.256 . S
C459 O471 1.257 . S
O460 Gd440 2.377 . S
O460 C442 1.240 . S
O461 Gd441 2.395 . S
O461 C442 1.240 . S
O462 Gd440 2.448 . S
O462 C443 1.249 . S
O463 Gd440 2.506 . S
O463 C443 1.252 . S
O464 Gd440 2.435 . S
O464 C450 1.256 . S
O465 Gd440 2.717 . S
O465 Gd441 2.327 . S
O465 C450 1.257 . S
O466 Gd441 2.377 . S
O466 C451 1.240 . S
O467 Gd440 2.395 . S
O467 C451 1.240 . S
O468 Gd441 2.448 . S
O468 C452 1.249 . S
O469 Gd441 2.506 . S
O469 C452 1.252 . S
O470 Gd441 2.435 . S
O470 C459 1.256 . S
O471 Gd440 2.327 . S
O471 Gd441 2.717 . S
O471 C459 1.257 . S
H472 C445 0.930 . S
H473 C446 0.931 . S
H474 C448 0.931 . S
H475 C449 0.931 . S
H476 C454 0.930 . S
H477 C455 0.931 . S
H478 C457 0.931 . S
H479 C458 0.931 . S
Gd480 C483 2.818 . S
Gd480 O500 2.377 . S
Gd480 O502 2.448 . S
Gd480 O503 2.506 . S
Gd480 O504 2.435 . S
Gd480 O505 2.717 . S
Gd480 O507 2.395 . S
Gd480 O511 2.327 . S
Gd481 C492 2.818 . S
Gd481 O501 2.395 . S
Gd481 O505 2.327 . S
Gd481 O506 2.377 . S
Gd481 O508 2.448 . S
Gd481 O509 2.506 . S
Gd481 O510 2.435 . S
Gd481 O511 2.717 . S
C482 O500 1.240 . S
C482 O501 1.240 . S
C483 Gd480 2.818 . S
C483 C484 1.510 . S
C483 O502 1.249 . S
C483 O503 1.252 . S
C484 C483 1.510 . S
C484 C485 1.404 . S
C484 C486 1.352 . S
C485 C484 1.404 . S
C485 C489 1.389 . S
C485 H512 0.930 . S
C486 C484 1.352 . S
C486 C488 1.374 . S
C486 H513 0.931 . S
C487 C488 1.359 . S
C487 C489 1.364 . S
C488 C486 1.374 . S
C488 C487 1.359 . S
C488 H514 0.931 . S
C489 C485 1.389 . S
C489 C487 1.364 . S
C489 H515 0.931 . S
C490 O504 1.256 . S
C490 O505 1.257 . S
C491 O506 1.240 . S
C491 O507 1.240 . S
C492 Gd481 2.818 . S
C492 C493 1.510 . S
C492 O508 1.249 . S
C492 O509 1.252 . S
C493 C492 1.510 . S
C493 C494 1.404 . S
C493 C495 1.352 . S
C494 C493 1.404 . S
C494 C498 1.389 . S
C494 H516 0.930 . S
C495 C493 1.352 . S
C495 C497 1.374 . S
C495 H517 0.931 . S
C496 C497 1.359 . S
C496 C498 1.364 . S
C497 C495 1.374 . S
C497 C496 1.359 . S
C497 H518 0.931 . S
C498 C494 1.389 . S
C498 C496 1.364 . S
C498 H519 0.931 . S
C499 O510 1.256 . S
C499 O511 1.257 . S
O500 Gd480 2.377 . S
O500 C482 1.240 . S
O501 Gd481 2.395 . S
O501 C482 1.240 . S
O502 Gd480 2.448 . S
O502 C483 1.249 . S
O503 Gd480 2.506 . S
O503 C483 1.252 . S
O504 Gd480 2.435 . S
O504 C490 1.256 . S
O505 Gd480 2.717 . S
O505 Gd481 2.327 . S
O505 C490 1.257 . S
O506 Gd481 2.377 . S
O506 C491 1.240 . S
O507 Gd480 2.395 . S
O507 C491 1.240 . S
O508 Gd481 2.448 . S
O508 C492 1.249 . S
O509 Gd481 2.506 . S
O509 C492 1.252 . S
O510 Gd481 2.435 . S
O510 C499 1.256 . S
O511 Gd480 2.327 . S
O511 Gd481 2.717 . S
O511 C499 1.257 . S
H512 C485 0.930 . S
H513 C486 0.931 . S
H514 C488 0.931 . S
H515 C489 0.931 . S
H516 C494 0.930 . S
H517 C495 0.931 . S
H518 C497 0.931 . S
H519 C498 0.931 . S
Gd520 C523 2.818 1_455 S
Gd520 O540 2.377 . S
Gd520 O542 2.448 1_455 S
Gd520 O543 2.506 1_455 S
Gd520 O544 2.435 . S
Gd520 O545 2.717 . S
Gd520 O547 2.395 1_455 S
Gd520 O551 2.327 . S
Gd521 C532 2.818 . S
Gd521 O541 2.395 . S
Gd521 O545 2.327 . S
Gd521 O546 2.377 . S
Gd521 O548 2.448 . S
Gd521 O549 2.506 . S
Gd521 O550 2.435 . S
Gd521 O551 2.717 . S
C522 O540 1.240 . S
C522 O541 1.240 . S
C523 Gd520 2.818 1_655 S
C523 C524 1.510 . S
C523 O542 1.249 . S
C523 O543 1.252 . S
C524 C523 1.510 . S
C524 C525 1.417 . S
C524 C526 1.352 1_554 S
C525 C524 1.417 . S
C525 C529 1.356 1_554 S
C525 H552 0.951 . S
C526 C524 1.352 1_556 S
C526 C528 1.374 . S
C526 H553 0.931 . S
C527 C528 1.359 . S
C527 C529 1.364 . S
C528 C526 1.374 . S
C528 C527 1.359 . S
C528 H554 0.931 . S
C529 C525 1.356 1_556 S
C529 C527 1.364 . S
C529 H555 0.931 . S
C530 O544 1.256 . S
C530 O545 1.257 . S
C531 O546 1.240 . S
C531 O547 1.240 1_455 S
C532 Gd521 2.818 . S
C532 C533 1.510 . S
C532 O548 1.249 . S
C532 O549 1.252 . S
C533 C532 1.510 . S
C533 C534 1.404 . S
C533 C535 1.352 . S
C534 C533 1.404 . S
C534 C538 1.389 . S
C534 H556 0.930 . S
C535 C533 1.352 . S
C535 C537 1.374 . S
C535 H557 0.931 . S
C536 C537 1.359 . S
C536 C538 1.364 . S
C537 C535 1.374 . S
C537 C536 1.359 . S
C537 H558 0.931 . S
C538 C534 1.389 . S
C538 C536 1.364 . S
C538 H559 0.931 . S
C539 O550 1.256 . S
C539 O551 1.257 . S
O540 Gd520 2.377 . S
O540 C522 1.240 . S
O541 Gd521 2.395 . S
O541 C522 1.240 . S
O542 Gd520 2.448 1_655 S
O542 C523 1.249 . S
O543 Gd520 2.506 1_655 S
O543 C523 1.252 . S
O544 Gd520 2.435 . S
O544 C530 1.256 . S
O545 Gd520 2.717 . S
O545 Gd521 2.327 . S
O545 C530 1.257 . S
O546 Gd521 2.377 . S
O546 C531 1.240 . S
O547 Gd520 2.395 1_655 S
O547 C531 1.240 1_655 S
O548 Gd521 2.448 . S
O548 C532 1.249 . S
O549 Gd521 2.506 . S
O549 C532 1.252 . S
O550 Gd521 2.435 . S
O550 C539 1.256 . S
O551 Gd520 2.327 . S
O551 Gd521 2.717 . S
O551 C539 1.257 . S
H552 C525 0.951 . S
H553 C526 0.931 . S
H554 C528 0.931 . S
H555 C529 0.931 . S
H556 C534 0.930 . S
H557 C535 0.931 . S
H558 C537 0.931 . S
H559 C538 0.931 . S
Gd560 C563 2.818 . S
Gd560 O580 2.377 . S
Gd560 O582 2.448 . S
Gd560 O583 2.506 . S
Gd560 O584 2.435 . S
Gd560 O585 2.717 . S
Gd560 O587 2.395 . S
Gd560 O591 2.327 . S
Gd561 C572 2.818 . S
Gd561 O581 2.395 . S
Gd561 O585 2.327 . S
Gd561 O586 2.377 . S
Gd561 O588 2.448 . S
Gd561 O589 2.506 . S
Gd561 O590 2.435 . S
Gd561 O591 2.717 . S
C562 O580 1.240 . S
C562 O581 1.240 . S
C563 Gd560 2.818 . S
C563 C564 1.510 . S
C563 O582 1.249 . S
C563 O583 1.252 . S
C564 C563 1.510 . S
C564 C565 1.404 . S
C564 C566 1.352 . S
C565 C564 1.404 . S
C565 C569 1.389 . S
C565 H592 0.930 . S
C566 C564 1.352 . S
C566 C568 1.374 . S
C566 H593 0.931 . S
C567 C568 1.359 . S
C567 C569 1.364 . S
C568 C566 1.374 . S
C568 C567 1.359 . S
C568 H594 0.931 . S
C569 C565 1.389 . S
C569 C567 1.364 . S
C569 H595 0.931 . S
C570 O584 1.256 . S
C570 O585 1.257 . S
C571 O586 1.240 . S
C571 O587 1.240 . S
C572 Gd561 2.818 . S
C572 C573 1.510 . S
C572 O588 1.249 . S
C572 O589 1.252 . S
C573 C572 1.510 . S
C573 C574 1.404 . S
C573 C575 1.352 . S
C574 C573 1.404 . S
C574 C578 1.389 . S
C574 H596 0.930 . S
C575 C573 1.352 . S
C575 C577 1.374 . S
C575 H597 0.931 . S
C576 C577 1.359 . S
C576 C578 1.364 . S
C577 C575 1.374 . S
C577 C576 1.359 . S
C577 H598 0.931 . S
C578 C574 1.389 . S
C578 C576 1.364 . S
C578 H599 0.931 . S
C579 O590 1.256 . S
C579 O591 1.257 . S
O580 Gd560 2.377 . S
O580 C562 1.240 . S
O581 Gd561 2.395 . S
O581 C562 1.240 . S
O582 Gd560 2.448 . S
O582 C563 1.249 . S
O583 Gd560 2.506 . S
O583 C563 1.252 . S
O584 Gd560 2.435 . S
O584 C570 1.256 . S
O585 Gd560 2.717 . S
O585 Gd561 2.327 . S
O585 C570 1.257 . S
O586 Gd561 2.377 . S
O586 C571 1.240 . S
O587 Gd560 2.395 . S
O587 C571 1.240 . S
O588 Gd561 2.448 . S
O588 C572 1.249 . S
O589 Gd561 2.506 . S
O589 C572 1.252 . S
O590 Gd561 2.435 . S
O590 C579 1.256 . S
O591 Gd560 2.327 . S
O591 Gd561 2.717 . S
O591 C579 1.257 . S
H592 C565 0.930 . S
H593 C566 0.931 . S
H594 C568 0.931 . S
H595 C569 0.931 . S
H596 C574 0.930 . S
H597 C575 0.931 . S
H598 C577 0.931 . S
H599 C578 0.931 . S
Gd600 C603 2.818 . S
Gd600 O620 2.377 1_655 S
Gd600 O622 2.448 . S
Gd600 O623 2.506 . S
Gd600 O624 2.435 . S
Gd600 O625 2.717 1_655 S
Gd600 O627 2.395 . S
Gd600 O631 2.327 1_655 S
Gd601 C612 2.818 . S
Gd601 O621 2.395 . S
Gd601 O625 2.327 . S
Gd601 O626 2.377 . S
Gd601 O628 2.448 . S
Gd601 O629 2.506 . S
Gd601 O630 2.435 . S
Gd601 O631 2.717 . S
C602 O620 1.240 . S
C602 O621 1.240 . S
C603 Gd600 2.818 . S
C603 C604 1.510 . S
C603 O622 1.249 . S
C603 O623 1.252 . S
C604 C603 1.510 . S
C604 C605 1.404 . S
C604 C606 1.352 . S
C605 C604 1.404 . S
C605 C609 1.389 . S
C605 H632 0.930 . S
C606 C604 1.352 . S
C606 C608 1.374 . S
C606 H633 0.931 . S
C607 C608 1.359 . S
C607 C609 1.364 . S
C608 C606 1.374 . S
C608 C607 1.359 . S
C608 H634 0.931 . S
C609 C605 1.389 . S
C609 C607 1.364 . S
C609 H635 0.931 . S
C610 O624 1.256 1_455 S
C610 O625 1.257 . S
C611 O626 1.240 1_655 S
C611 O627 1.240 . S
C612 Gd601 2.818 . S
C612 C613 1.510 . S
C612 O628 1.249 . S
C612 O629 1.252 . S
C613 C612 1.510 . S
C613 C614 1.417 . S
C613 C615 1.352 1_556 S
C614 C613 1.417 . S
C614 C618 1.356 1_556 S
C614 H636 0.950 . S
C615 C613 1.352 1_554 S
C615 C617 1.374 . S
C615 H637 0.931 . S
C616 C617 1.359 . S
C616 C618 1.364 . S
C617 C615 1.374 . S
C617 C616 1.359 . S
C617 H638 0.931 . S
C618 C614 1.356 1_554 S
C618 C616 1.364 . S
C618 H639 0.931 . S
C619 O630 1.256 . S
C619 O631 1.257 . S
O620 Gd600 2.377 1_455 S
O620 C602 1.240 . S
O621 Gd601 2.395 . S
O621 C602 1.240 . S
O622 Gd600 2.448 . S
O622 C603 1.249 . S
O623 Gd600 2.506 . S
O623 C603 1.252 . S
O624 Gd600 2.435 . S
O624 C610 1.256 1_655 S
O625 Gd600 2.717 1_455 S
O625 Gd601 2.327 . S
O625 C610 1.257 . S
O626 Gd601 2.377 . S
O626 C611 1.240 1_455 S
O627 Gd600 2.395 . S
O627 C611 1.240 . S
O628 Gd601 2.448 . S
O628 C612 1.249 . S
O629 Gd601 2.506 . S
O629 C612 1.252 . S
O630 Gd601 2.435 . S
O630 C619 1.256 . S
O631 Gd600 2.327 1_455 S
O631 Gd601 2.717 . S
O631 C619 1.257 . S
H632 C605 0.930 . S
H633 C606 0.931 . S
H634 C608 0.931 . S
H635 C609 0.931 . S
H636 C614 0.950 . S
H637 C615 0.931 . S
H638 C617 0.931 . S
H639 C618 0.931 . S
H640 C658 0.951 . S
H641 C660 0.951 1_556 S
H642 C662 0.950 . S
H643 C663 0.950 . S
H644 C665 0.950 . S
H645 C668 0.950 . S
H646 C669 0.950 1_554 S
H647 C671 0.950 . S
H648 C672 0.950 . S
H649 C673 0.951 . S
H650 C675 0.951 . S
H651 C677 0.950 . S
H652 C678 0.950 . S
H653 C680 0.950 . S
H654 C683 0.950 . S
H655 C684 0.950 . S
H656 C686 0.950 . S
H657 C687 0.950 . S
C658 H640 0.951 . S
C658 C659 1.366 . S
C658 C660 1.388 . S
C659 C658 1.366 . S
C659 C663 1.385 . S
C660 H641 0.951 1_554 S
C660 C658 1.388 . S
C660 C661 1.366 . S
C661 C660 1.366 . S
C661 C662 1.414 . S
C661 C664 1.499 1_554 S
C662 H642 0.950 . S
C662 C661 1.414 . S
C662 C663 1.374 . S
C663 H643 0.950 . S
C663 C659 1.385 . S
C663 C662 1.374 . S
C664 C661 1.499 1_556 S
C664 C665 1.373 . S
C664 C666 1.389 . S
C665 H644 0.950 . S
C665 C664 1.373 . S
C665 C681 1.377 . S
C666 C664 1.389 . S
C666 C667 1.524 . S
C666 C680 1.377 . S
C667 C666 1.524 . S
C667 C668 1.397 . S
C667 C672 1.363 . S
C668 H645 0.950 . S
C668 C667 1.397 . S
C668 C669 1.334 . S
C669 H646 0.950 1_556 S
C669 C668 1.334 . S
C669 C670 1.287 . S
C670 C669 1.287 . S
C670 C671 1.524 . S
C670 H689 0.913 . S
C671 H647 0.950 . S
C671 C670 1.524 . S
C671 C672 1.415 . S
C672 H648 0.950 . S
C672 C667 1.363 . S
C672 C671 1.415 . S
C673 H649 0.951 . S
C673 C674 1.366 . S
C673 C675 1.388 . S
C674 C673 1.366 . S
C674 C678 1.385 . S
C675 H650 0.951 . S
C675 C673 1.388 . S
C675 C676 1.366 . S
C676 C675 1.366 . S
C676 C677 1.414 . S
C676 C679 1.499 . S
C677 H651 0.950 . S
C677 C676 1.414 . S
C677 C678 1.374 . S
C678 H652 0.950 . S
C678 C674 1.385 . S
C678 C677 1.374 . S
C679 C676 1.499 . S
C679 C680 1.373 . S
C679 C681 1.389 . S
C680 H653 0.950 . S
C680 C666 1.377 . S
C680 C679 1.373 . S
C681 C665 1.377 . S
C681 C679 1.389 . S
C681 C682 1.524 . S
C682 C681 1.524 . S
C682 C683 1.397 . S
C682 C687 1.363 . S
C683 H654 0.950 . S
C683 C682 1.397 . S
C683 C684 1.334 . S
C684 H655 0.950 . S
C684 C683 1.334 . S
C684 C685 1.287 . S
C685 C684 1.287 . S
C685 C686 1.524 . S
C685 H688 0.999 . S
C686 H656 0.950 . S
C686 C685 1.524 . S
C686 C687 1.415 . S
C687 H657 0.950 . S
C687 C682 1.363 . S
C687 C686 1.415 . S
H688 C685 0.999 . S
H689 C670 0.913 . S
H690 C708 0.951 . S
H691 C710 0.951 . S
H692 C712 0.950 . S
H693 C713 0.950 . S
H694 C715 0.950 . S
H695 C718 0.950 . S
H696 C719 0.950 . S
H697 C721 0.950 . S
H698 C722 0.950 . S
H699 C723 0.951 . S
H700 C725 0.951 . S
H701 C727 0.950 . S
H702 C728 0.950 . S
H703 C730 0.950 . S
H704 C733 0.950 . S
H705 C734 0.950 . S
H706 C736 0.950 . S
H707 C737 0.950 . S
C708 H690 0.951 . S
C708 C709 1.366 . S
C708 C710 1.388 . S
C709 C708 1.366 . S
C709 C713 1.385 . S
C710 H691 0.951 . S
C710 C708 1.388 . S
C710 C711 1.366 . S
C711 C710 1.366 . S
C711 C712 1.414 . S
C711 C714 1.499 . S
C712 H692 0.950 . S
C712 C711 1.414 . S
C712 C713 1.374 . S
C713 H693 0.950 . S
C713 C709 1.385 . S
C713 C712 1.374 . S
C714 C711 1.499 . S
C714 C715 1.373 . S
C714 C716 1.389 . S
C715 H694 0.950 . S
C715 C714 1.373 . S
C715 C731 1.377 . S
C716 C714 1.389 . S
C716 C717 1.524 . S
C716 C730 1.377 . S
C717 C716 1.524 . S
C717 C718 1.397 . S
C717 C722 1.363 . S
C718 H695 0.950 . S
C718 C717 1.397 . S
C718 C719 1.334 . S
C719 H696 0.950 . S
C719 C718 1.334 . S
C719 C720 1.287 . S
C720 C719 1.287 . S
C720 C721 1.524 . S
C720 H739 0.913 . S
C721 H697 0.950 . S
C721 C720 1.524 . S
C721 C722 1.415 . S
C722 H698 0.950 . S
C722 C717 1.363 . S
C722 C721 1.415 . S
C723 H699 0.951 . S
C723 C724 1.366 . S
C723 C725 1.388 . S
C724 C723 1.366 . S
C724 C728 1.385 . S
C725 H700 0.951 . S
C725 C723 1.388 . S
C725 C726 1.366 . S
C726 C725 1.366 . S
C726 C727 1.414 . S
C726 C729 1.499 . S
C727 H701 0.950 . S
C727 C726 1.414 . S
C727 C728 1.374 . S
C728 H702 0.950 . S
C728 C724 1.385 . S
C728 C727 1.374 . S
C729 C726 1.499 . S
C729 C730 1.373 . S
C729 C731 1.389 . S
C730 H703 0.950 . S
C730 C716 1.377 . S
C730 C729 1.373 . S
C731 C715 1.377 . S
C731 C729 1.389 . S
C731 C732 1.524 . S
C732 C731 1.524 . S
C732 C733 1.397 . S
C732 C737 1.363 . S
C733 H704 0.950 . S
C733 C732 1.397 . S
C733 C734 1.334 . S
C734 H705 0.950 . S
C734 C733 1.334 . S
C734 C735 1.287 . S
C735 C734 1.287 . S
C735 C736 1.524 . S
C735 H738 0.999 . S
C736 H706 0.950 . S
C736 C735 1.524 . S
C736 C737 1.415 . S
C737 H707 0.950 . S
C737 C732 1.363 . S
C737 C736 1.415 . S
H738 C735 0.999 . S
H739 C720 0.913 . S
H740 C758 0.951 . S
H741 C760 0.951 . S
H742 C762 0.950 . S
H743 C763 0.950 . S
H744 C765 0.950 . S
H745 C768 0.950 . S
H746 C769 0.950 . S
H747 C771 0.950 . S
H748 C772 0.950 . S
H749 C773 0.951 . S
H750 C775 0.951 . S
H751 C777 0.950 . S
H752 C778 0.950 . S
H753 C780 0.950 . S
H754 C783 0.950 . S
H755 C784 0.950 . S
H756 C786 0.950 . S
H757 C787 0.950 . S
C758 H740 0.951 . S
C758 C759 1.366 . S
C758 C760 1.388 . S
C759 C758 1.366 . S
C759 C763 1.385 . S
C760 H741 0.951 . S
C760 C758 1.388 . S
C760 C761 1.366 . S
C761 C760 1.366 . S
C761 C762 1.414 . S
C761 C764 1.499 . S
C762 H742 0.950 . S
C762 C761 1.414 . S
C762 C763 1.374 . S
C763 H743 0.950 . S
C763 C759 1.385 . S
C763 C762 1.374 . S
C764 C761 1.499 . S
C764 C765 1.373 . S
C764 C766 1.389 . S
C765 H744 0.950 . S
C765 C764 1.373 . S
C765 C781 1.377 . S
C766 C764 1.389 . S
C766 C767 1.524 . S
C766 C780 1.377 . S
C767 C766 1.524 . S
C767 C768 1.397 . S
C767 C772 1.363 . S
C768 H745 0.950 . S
C768 C767 1.397 . S
C768 C769 1.334 . S
C769 H746 0.950 . S
C769 C768 1.334 . S
C769 C770 1.287 . S
C770 C769 1.287 . S
C770 C771 1.524 . S
C770 H789 0.913 . S
C771 H747 0.950 . S
C771 C770 1.524 . S
C771 C772 1.415 . S
C772 H748 0.950 . S
C772 C767 1.363 . S
C772 C771 1.415 . S
C773 H749 0.951 . S
C773 C774 1.366 . S
C773 C775 1.388 . S
C774 C773 1.366 . S
C774 C778 1.385 . S
C775 H750 0.951 . S
C775 C773 1.388 . S
C775 C776 1.366 . S
C776 C775 1.366 . S
C776 C777 1.414 . S
C776 C779 1.499 . S
C777 H751 0.950 . S
C777 C776 1.414 . S
C777 C778 1.374 . S
C778 H752 0.950 . S
C778 C774 1.385 . S
C778 C777 1.374 . S
C779 C776 1.499 . S
C779 C780 1.373 . S
C779 C781 1.389 . S
C780 H753 0.950 . S
C780 C766 1.377 . S
C780 C779 1.373 . S
C781 C765 1.377 . S
C781 C779 1.389 . S
C781 C782 1.524 . S
C782 C781 1.524 . S
C782 C783 1.397 . S
C782 C787 1.363 . S
C783 H754 0.950 . S
C783 C782 1.397 . S
C783 C784 1.334 . S
C784 H755 0.950 . S
C784 C783 1.334 . S
C784 C785 1.287 . S
C785 C784 1.287 . S
C785 C786 1.524 . S
C785 H788 0.999 . S
C786 H756 0.950 . S
C786 C785 1.524 . S
C786 C787 1.415 . S
C787 H757 0.950 . S
C787 C782 1.363 . S
C787 C786 1.415 . S
H788 C785 0.999 . S
H789 C770 0.913 . S
H790 C808 0.951 . S
H791 C810 0.951 . S
H792 C812 0.950 . S
H793 C813 0.950 . S
H794 C815 0.950 . S
H795 C818 0.950 . S
H796 C819 0.950 . S
H797 C821 0.950 . S
H798 C822 0.950 . S
H799 C823 0.951 . S
H800 C825 0.951 . S
H801 C827 0.950 . S
H802 C828 0.950 . S
H803 C830 0.950 . S
H804 C833 0.950 . S
H805 C834 0.950 . S
H806 C836 0.950 . S
H807 C837 0.950 . S
C808 H790 0.951 . S
C808 C809 1.366 . S
C808 C810 1.388 . S
C809 C808 1.366 . S
C809 C813 1.385 . S
C810 H791 0.951 . S
C810 C808 1.388 . S
C810 C811 1.366 . S
C811 C810 1.366 . S
C811 C812 1.414 . S
C811 C814 1.499 . S
C812 H792 0.950 . S
C812 C811 1.414 . S
C812 C813 1.374 . S
C813 H793 0.950 . S
C813 C809 1.385 . S
C813 C812 1.374 . S
C814 C811 1.499 . S
C814 C815 1.373 . S
C814 C816 1.389 . S
C815 H794 0.950 . S
C815 C814 1.373 . S
C815 C831 1.377 . S
C816 C814 1.389 . S
C816 C817 1.524 . S
C816 C830 1.377 . S
C817 C816 1.524 . S
C817 C818 1.397 . S
C817 C822 1.363 . S
C818 H795 0.950 . S
C818 C817 1.397 . S
C818 C819 1.334 . S
C819 H796 0.950 . S
C819 C818 1.334 . S
C819 C820 1.287 . S
C820 C819 1.287 . S
C820 C821 1.524 . S
C820 H839 0.913 . S
C821 H797 0.950 . S
C821 C820 1.524 . S
C821 C822 1.415 . S
C822 H798 0.950 . S
C822 C817 1.363 . S
C822 C821 1.415 . S
C823 H799 0.951 . S
C823 C824 1.366 . S
C823 C825 1.388 . S
C824 C823 1.366 . S
C824 C828 1.385 . S
C825 H800 0.951 . S
C825 C823 1.388 . S
C825 C826 1.366 . S
C826 C825 1.366 . S
C826 C827 1.414 . S
C826 C829 1.499 . S
C827 H801 0.950 . S
C827 C826 1.414 . S
C827 C828 1.374 . S
C828 H802 0.950 . S
C828 C824 1.385 . S
C828 C827 1.374 . S
C829 C826 1.499 . S
C829 C830 1.373 . S
C829 C831 1.389 . S
C830 H803 0.950 . S
C830 C816 1.377 . S
C830 C829 1.373 . S
C831 C815 1.377 . S
C831 C829 1.389 . S
C831 C832 1.524 . S
C832 C831 1.524 . S
C832 C833 1.397 . S
C832 C837 1.363 . S
C833 H804 0.950 . S
C833 C832 1.397 . S
C833 C834 1.334 . S
C834 H805 0.950 . S
C834 C833 1.334 . S
C834 C835 1.287 . S
C835 C834 1.287 . S
C835 C836 1.524 . S
C835 H838 0.999 . S
C836 H806 0.950 . S
C836 C835 1.524 . S
C836 C837 1.415 . S
C837 H807 0.950 . S
C837 C832 1.363 . S
C837 C836 1.415 . S
H838 C835 0.999 . S
H839 C820 0.913 . S
H840 C858 0.951 . S
H841 C860 0.951 . S
H842 C862 0.950 . S
H843 C863 0.950 . S
H844 C865 0.950 . S
H845 C868 0.950 . S
H846 C869 0.950 . S
H847 C871 0.950 . S
H848 C872 0.950 . S
H849 C873 0.951 . S
H850 C875 0.951 . S
H851 C877 0.957 1_554 S
H852 C878 0.950 . S
H853 C880 0.950 . S
H854 C883 0.943 1_554 S
H855 C884 0.950 1_455 S
H856 C886 0.950 . S
H857 C887 0.950 . S
C858 H840 0.951 . S
C858 C859 1.366 . S
C858 C860 1.388 . S
C859 C858 1.366 . S
C859 C863 1.385 . S
C860 H841 0.951 . S
C860 C858 1.388 . S
C860 C861 1.366 . S
C861 C860 1.366 . S
C861 C862 1.414 . S
C861 C864 1.499 . S
C862 H842 0.950 . S
C862 C861 1.414 . S
C862 C863 1.374 . S
C863 H843 0.950 . S
C863 C859 1.385 . S
C863 C862 1.374 . S
C864 C861 1.499 . S
C864 C865 1.373 . S
C864 C866 1.389 . S
C865 H844 0.950 . S
C865 C864 1.373 . S
C865 C881 1.377 . S
C866 C864 1.389 . S
C866 C867 1.524 . S
C866 C880 1.377 . S
C867 C866 1.524 . S
C867 C868 1.397 . S
C867 C872 1.363 . S
C868 H845 0.950 . S
C868 C867 1.397 . S
C868 C869 1.334 . S
C869 H846 0.950 . S
C869 C868 1.334 . S
C869 C870 1.287 . S
C870 C869 1.287 . S
C870 C871 1.524 . S
C870 H889 0.913 . S
C871 H847 0.950 . S
C871 C870 1.524 . S
C871 C872 1.415 . S
C872 H848 0.950 . S
C872 C867 1.363 . S
C872 C871 1.415 . S
C873 H849 0.951 . S
C873 C874 1.366 . S
C873 C875 1.388 . S
C874 C873 1.366 . S
C874 C878 1.385 1_655 S
C875 H850 0.951 . S
C875 C873 1.388 . S
C875 C876 1.366 . S
C876 C875 1.366 . S
C876 C877 1.414 . S
C876 C879 1.499 1_556 S
C877 H851 0.957 1_556 S
C877 C876 1.414 . S
C877 C878 1.374 1_655 S
C878 H852 0.950 . S
C878 C874 1.385 1_455 S
C878 C877 1.374 1_455 S
C879 C876 1.499 1_554 S
C879 C880 1.373 . S
C879 C881 1.389 . S
C880 H853 0.950 . S
C880 C866 1.377 . S
C880 C879 1.373 . S
C881 C865 1.377 . S
C881 C879 1.389 . S
C881 C882 1.524 . S
C882 C881 1.524 . S
C882 C883 1.393 1_554 S
C882 C887 1.363 . S
C883 H854 0.943 1_556 S
C883 C882 1.393 1_556 S
C883 C884 1.345 . S
C884 H855 0.950 1_655 S
C884 C883 1.345 . S
C884 C885 1.287 . S
C885 C884 1.287 . S
C885 C886 1.524 . S
C885 H888 0.999 . S
C886 H856 0.950 . S
C886 C885 1.524 . S
C886 C887 1.415 1_556 S
C887 H857 0.950 . S
C887 C882 1.363 . S
C887 C886 1.415 1_554 S
H888 C885 0.999 . S
H889 C870 0.913 . S
H890 C908 0.951 . S
H891 C910 0.951 . S
H892 C912 0.950 . S
H893 C913 0.950 . S
H894 C915 0.950 . S
H895 C918 0.950 . S
H896 C919 0.950 . S
H897 C921 0.950 . S
H898 C922 0.950 . S
H899 C923 0.951 . S
H900 C925 0.951 . S
H901 C927 0.950 . S
H902 C928 0.950 . S
H903 C930 0.950 . S
H904 C933 0.950 . S
H905 C934 0.950 . S
H906 C936 0.950 . S
H907 C937 0.950 . S
C908 H890 0.951 . S
C908 C909 1.366 . S
C908 C910 1.388 . S
C909 C908 1.366 . S
C909 C913 1.385 . S
C910 H891 0.951 . S
C910 C908 1.388 . S
C910 C911 1.366 . S
C911 C910 1.366 . S
C911 C912 1.414 . S
C911 C914 1.499 . S
C912 H892 0.950 . S
C912 C911 1.414 . S
C912 C913 1.374 . S
C913 H893 0.950 . S
C913 C909 1.385 . S
C913 C912 1.374 . S
C914 C911 1.499 . S
C914 C915 1.373 . S
C914 C916 1.389 . S
C915 H894 0.950 . S
C915 C914 1.373 . S
C915 C931 1.377 . S
C916 C914 1.389 . S
C916 C917 1.524 . S
C916 C930 1.377 . S
C917 C916 1.524 . S
C917 C918 1.397 . S
C917 C922 1.363 . S
C918 H895 0.950 . S
C918 C917 1.397 . S
C918 C919 1.334 . S
C919 H896 0.950 . S
C919 C918 1.334 . S
C919 C920 1.287 . S
C920 C919 1.287 . S
C920 C921 1.524 . S
C920 H939 0.913 . S
C921 H897 0.950 . S
C921 C920 1.524 . S
C921 C922 1.415 . S
C922 H898 0.950 . S
C922 C917 1.363 . S
C922 C921 1.415 . S
C923 H899 0.951 . S
C923 C924 1.366 . S
C923 C925 1.388 . S
C924 C923 1.366 . S
C924 C928 1.385 . S
C925 H900 0.951 . S
C925 C923 1.388 . S
C925 C926 1.366 . S
C926 C925 1.366 . S
C926 C927 1.414 . S
C926 C929 1.499 . S
C927 H901 0.950 . S
C927 C926 1.414 . S
C927 C928 1.374 . S
C928 H902 0.950 . S
C928 C924 1.385 . S
C928 C927 1.374 . S
C929 C926 1.499 . S
C929 C930 1.373 . S
C929 C931 1.389 . S
C930 H903 0.950 . S
C930 C916 1.377 . S
C930 C929 1.373 . S
C931 C915 1.377 . S
C931 C929 1.389 . S
C931 C932 1.524 . S
C932 C931 1.524 . S
C932 C933 1.397 . S
C932 C937 1.363 . S
C933 H904 0.950 . S
C933 C932 1.397 . S
C933 C934 1.334 . S
C934 H905 0.950 . S
C934 C933 1.334 . S
C934 C935 1.287 . S
C935 C934 1.287 . S
C935 C936 1.524 . S
C935 H938 0.999 . S
C936 H906 0.950 . S
C936 C935 1.524 . S
C936 C937 1.415 . S
C937 H907 0.950 . S
C937 C932 1.363 . S
C937 C936 1.415 . S
H938 C935 0.999 . S
H939 C920 0.913 . S
H940 C958 0.951 . S
H941 C960 0.951 . S
H942 C962 0.950 . S
H943 C963 0.950 . S
H944 C965 0.950 . S
H945 C968 0.950 . S
H946 C969 0.950 . S
H947 C971 0.950 . S
H948 C972 0.950 . S
H949 C973 0.951 . S
H950 C975 0.951 . S
H951 C977 0.950 . S
H952 C978 0.950 . S
H953 C980 0.950 . S
H954 C983 0.950 . S
H955 C984 0.950 . S
H956 C986 0.950 . S
H957 C987 0.950 . S
C958 H940 0.951 . S
C958 C959 1.366 . S
C958 C960 1.388 . S
C959 C958 1.366 . S
C959 C963 1.385 . S
C960 H941 0.951 . S
C960 C958 1.388 . S
C960 C961 1.366 . S
C961 C960 1.366 . S
C961 C962 1.414 . S
C961 C964 1.499 . S
C962 H942 0.950 . S
C962 C961 1.414 . S
C962 C963 1.374 . S
C963 H943 0.950 . S
C963 C959 1.385 . S
C963 C962 1.374 . S
C964 C961 1.499 . S
C964 C965 1.373 . S
C964 C966 1.389 . S
C965 H944 0.950 . S
C965 C964 1.373 . S
C965 C981 1.377 . S
C966 C964 1.389 . S
C966 C967 1.524 . S
C966 C980 1.377 . S
C967 C966 1.524 . S
C967 C968 1.397 . S
C967 C972 1.363 . S
C968 H945 0.950 . S
C968 C967 1.397 . S
C968 C969 1.334 . S
C969 H946 0.950 . S
C969 C968 1.334 . S
C969 C970 1.287 . S
C970 C969 1.287 . S
C970 C971 1.524 . S
C970 H989 0.913 . S
C971 H947 0.950 . S
C971 C970 1.524 . S
C971 C972 1.415 . S
C972 H948 0.950 . S
C972 C967 1.363 . S
C972 C971 1.415 . S
C973 H949 0.951 . S
C973 C974 1.366 . S
C973 C975 1.388 . S
C974 C973 1.366 . S
C974 C978 1.385 . S
C975 H950 0.951 . S
C975 C973 1.388 . S
C975 C976 1.366 . S
C976 C975 1.366 . S
C976 C977 1.414 . S
C976 C979 1.499 . S
C977 H951 0.950 . S
C977 C976 1.414 . S
C977 C978 1.374 . S
C978 H952 0.950 . S
C978 C974 1.385 . S
C978 C977 1.374 . S
C979 C976 1.499 . S
C979 C980 1.373 . S
C979 C981 1.389 . S
C980 H953 0.950 . S
C980 C966 1.377 . S
C980 C979 1.373 . S
C981 C965 1.377 . S
C981 C979 1.389 . S
C981 C982 1.524 . S
C982 C981 1.524 . S
C982 C983 1.397 . S
C982 C987 1.363 . S
C983 H954 0.950 . S
C983 C982 1.397 . S
C983 C984 1.334 . S
C984 H955 0.950 . S
C984 C983 1.334 . S
C984 C985 1.287 . S
C985 C984 1.287 . S
C985 C986 1.524 . S
C985 H988 0.999 . S
C986 H956 0.950 . S
C986 C985 1.524 . S
C986 C987 1.415 . S
C987 H957 0.950 . S
C987 C982 1.363 . S
C987 C986 1.415 . S
H988 C985 0.999 . S
H989 C970 0.913 . S
H990 C1008 0.951 . S
H991 C1010 0.951 . S
H992 C1012 0.950 . S
H993 C1013 0.950 . S
H994 C1015 0.950 . S
H995 C1018 0.950 . S
H996 C1019 0.950 . S
H997 C1021 0.950 . S
H998 C1022 0.950 . S
H999 C1023 0.951 . S
H1000 C1025 0.951 . S
H1001 C1027 0.950 . S
H1002 C1028 0.950 . S
H1003 C1030 0.950 . S
H1004 C1033 0.950 . S
H1005 C1034 0.950 . S
H1006 C1036 0.950 . S
H1007 C1037 0.950 . S
C1008 H990 0.951 . S
C1008 C1009 1.366 . S
C1008 C1010 1.388 . S
C1009 C1008 1.366 . S
C1009 C1013 1.385 . S
C1010 H991 0.951 . S
C1010 C1008 1.388 . S
C1010 C1011 1.366 . S
C1011 C1010 1.366 . S
C1011 C1012 1.414 . S
C1011 C1014 1.499 . S
C1012 H992 0.950 . S
C1012 C1011 1.414 . S
C1012 C1013 1.374 . S
C1013 H993 0.950 . S
C1013 C1009 1.385 . S
C1013 C1012 1.374 . S
C1014 C1011 1.499 . S
C1014 C1015 1.373 . S
C1014 C1016 1.389 . S
C1015 H994 0.950 . S
C1015 C1014 1.373 . S
C1015 C1031 1.377 . S
C1016 C1014 1.389 . S
C1016 C1017 1.524 . S
C1016 C1030 1.377 . S
C1017 C1016 1.524 . S
C1017 C1018 1.397 . S
C1017 C1022 1.363 . S
C1018 H995 0.950 . S
C1018 C1017 1.397 . S
C1018 C1019 1.334 . S
C1019 H996 0.950 . S
C1019 C1018 1.334 . S
C1019 C1020 1.287 . S
C1020 C1019 1.287 . S
C1020 C1021 1.524 . S
C1020 H1039 0.913 . S
C1021 H997 0.950 . S
C1021 C1020 1.524 . S
C1021 C1022 1.415 . S
C1022 H998 0.950 . S
C1022 C1017 1.363 . S
C1022 C1021 1.415 . S
C1023 H999 0.951 . S
C1023 C1024 1.366 . S
C1023 C1025 1.388 . S
C1024 C1023 1.366 . S
C1024 C1028 1.385 . S
C1025 H1000 0.951 . S
C1025 C1023 1.388 . S
C1025 C1026 1.366 . S
C1026 C1025 1.366 . S
C1026 C1027 1.414 . S
C1026 C1029 1.499 . S
C1027 H1001 0.950 . S
C1027 C1026 1.414 . S
C1027 C1028 1.374 . S
C1028 H1002 0.950 . S
C1028 C1024 1.385 . S
C1028 C1027 1.374 . S
C1029 C1026 1.499 . S
C1029 C1030 1.373 . S
C1029 C1031 1.389 . S
C1030 H1003 0.950 . S
C1030 C1016 1.377 . S
C1030 C1029 1.373 . S
C1031 C1015 1.377 . S
C1031 C1029 1.389 . S
C1031 C1032 1.524 . S
C1032 C1031 1.524 . S
C1032 C1033 1.397 . S
C1032 C1037 1.363 . S
C1033 H1004 0.950 . S
C1033 C1032 1.397 . S
C1033 C1034 1.334 . S
C1034 H1005 0.950 . S
C1034 C1033 1.334 . S
C1034 C1035 1.287 . S
C1035 C1034 1.287 . S
C1035 C1036 1.524 . S
C1035 H1038 0.999 . S
C1036 H1006 0.950 . S
C1036 C1035 1.524 . S
C1036 C1037 1.415 . S
C1037 H1007 0.950 . S
C1037 C1032 1.363 . S
C1037 C1036 1.415 . S
H1038 C1035 0.999 . S
H1039 C1020 0.913 . S
H1040 C1058 0.951 . S
H1041 C1060 0.951 . S
H1042 C1062 0.950 . S
H1043 C1063 0.950 . S
H1044 C1065 0.950 . S
H1045 C1068 0.950 . S
H1046 C1069 0.950 . S
H1047 C1071 0.950 . S
H1048 C1072 0.950 . S
H1049 C1073 0.951 . S
H1050 C1075 0.951 . S
H1051 C1077 0.950 . S
H1052 C1078 0.950 . S
H1053 C1080 0.950 . S
H1054 C1083 0.950 . S
H1055 C1084 0.950 . S
H1056 C1086 0.950 . S
H1057 C1087 0.950 . S
C1058 H1040 0.951 . S
C1058 C1059 1.366 . S
C1058 C1060 1.388 . S
C1059 C1058 1.366 . S
C1059 C1063 1.385 . S
C1060 H1041 0.951 . S
C1060 C1058 1.388 . S
C1060 C1061 1.366 . S
C1061 C1060 1.366 . S
C1061 C1062 1.414 . S
C1061 C1064 1.499 . S
C1062 H1042 0.950 . S
C1062 C1061 1.414 . S
C1062 C1063 1.374 . S
C1063 H1043 0.950 . S
C1063 C1059 1.385 . S
C1063 C1062 1.374 . S
C1064 C1061 1.499 . S
C1064 C1065 1.373 . S
C1064 C1066 1.389 . S
C1065 H1044 0.950 . S
C1065 C1064 1.373 . S
C1065 C1081 1.377 . S
C1066 C1064 1.389 . S
C1066 C1067 1.524 . S
C1066 C1080 1.377 . S
C1067 C1066 1.524 . S
C1067 C1068 1.397 . S
C1067 C1072 1.363 . S
C1068 H1045 0.950 . S
C1068 C1067 1.397 . S
C1068 C1069 1.334 . S
C1069 H1046 0.950 . S
C1069 C1068 1.334 . S
C1069 C1070 1.287 . S
C1070 C1069 1.287 . S
C1070 C1071 1.524 . S
C1070 H1089 0.913 . S
C1071 H1047 0.950 . S
C1071 C1070 1.524 . S
C1071 C1072 1.415 . S
C1072 H1048 0.950 . S
C1072 C1067 1.363 . S
C1072 C1071 1.415 . S
C1073 H1049 0.951 . S
C1073 C1074 1.366 . S
C1073 C1075 1.388 . S
C1074 C1073 1.366 . S
C1074 C1078 1.385 . S
C1075 H1050 0.951 . S
C1075 C1073 1.388 . S
C1075 C1076 1.366 . S
C1076 C1075 1.366 . S
C1076 C1077 1.414 . S
C1076 C1079 1.499 . S
C1077 H1051 0.950 . S
C1077 C1076 1.414 . S
C1077 C1078 1.374 . S
C1078 H1052 0.950 . S
C1078 C1074 1.385 . S
C1078 C1077 1.374 . S
C1079 C1076 1.499 . S
C1079 C1080 1.373 . S
C1079 C1081 1.389 . S
C1080 H1053 0.950 . S
C1080 C1066 1.377 . S
C1080 C1079 1.373 . S
C1081 C1065 1.377 . S
C1081 C1079 1.389 . S
C1081 C1082 1.524 . S
C1082 C1081 1.524 . S
C1082 C1083 1.397 . S
C1082 C1087 1.363 . S
C1083 H1054 0.950 . S
C1083 C1082 1.397 . S
C1083 C1084 1.334 . S
C1084 H1055 0.950 . S
C1084 C1083 1.334 . S
C1084 C1085 1.287 . S
C1085 C1084 1.287 . S
C1085 C1086 1.524 . S
C1085 H1088 0.999 . S
C1086 H1056 0.950 . S
C1086 C1085 1.524 . S
C1086 C1087 1.415 . S
C1087 H1057 0.950 . S
C1087 C1082 1.363 . S
C1087 C1086 1.415 . S
H1088 C1085 0.999 . S
H1089 C1070 0.913 . S
H1090 C1108 0.951 . S
H1091 C1110 0.951 . S
H1092 C1112 0.950 . S
H1093 C1113 0.950 . S
H1094 C1115 0.950 . S
H1095 C1118 0.950 . S
H1096 C1119 0.950 . S
H1097 C1121 0.950 . S
H1098 C1122 0.950 . S
H1099 C1123 0.951 . S
H1100 C1125 0.951 . S
H1101 C1127 0.950 . S
H1102 C1128 0.950 . S
H1103 C1130 0.950 . S
H1104 C1133 0.950 . S
H1105 C1134 0.950 . S
H1106 C1136 0.950 . S
H1107 C1137 0.950 . S
C1108 H1090 0.951 . S
C1108 C1109 1.366 . S
C1108 C1110 1.388 . S
C1109 C1108 1.366 . S
C1109 C1113 1.385 . S
C1110 H1091 0.951 . S
C1110 C1108 1.388 . S
C1110 C1111 1.366 . S
C1111 C1110 1.366 . S
C1111 C1112 1.414 . S
C1111 C1114 1.499 . S
C1112 H1092 0.950 . S
C1112 C1111 1.414 . S
C1112 C1113 1.374 . S
C1113 H1093 0.950 . S
C1113 C1109 1.385 . S
C1113 C1112 1.374 . S
C1114 C1111 1.499 . S
C1114 C1115 1.373 . S
C1114 C1116 1.389 . S
C1115 H1094 0.950 . S
C1115 C1114 1.373 . S
C1115 C1131 1.377 . S
C1116 C1114 1.389 . S
C1116 C1117 1.524 . S
C1116 C1130 1.377 . S
C1117 C1116 1.524 . S
C1117 C1118 1.397 . S
C1117 C1122 1.363 . S
C1118 H1095 0.950 . S
C1118 C1117 1.397 . S
C1118 C1119 1.334 . S
C1119 H1096 0.950 . S
C1119 C1118 1.334 . S
C1119 C1120 1.287 . S
C1120 C1119 1.287 . S
C1120 C1121 1.524 . S
C1120 H1139 0.913 . S
C1121 H1097 0.950 . S
C1121 C1120 1.524 . S
C1121 C1122 1.415 . S
C1122 H1098 0.950 . S
C1122 C1117 1.363 . S
C1122 C1121 1.415 . S
C1123 H1099 0.951 . S
C1123 C1124 1.366 . S
C1123 C1125 1.388 . S
C1124 C1123 1.366 . S
C1124 C1128 1.385 . S
C1125 H1100 0.951 . S
C1125 C1123 1.388 . S
C1125 C1126 1.366 . S
C1126 C1125 1.366 . S
C1126 C1127 1.414 . S
C1126 C1129 1.499 . S
C1127 H1101 0.950 . S
C1127 C1126 1.414 . S
C1127 C1128 1.374 . S
C1128 H1102 0.950 . S
C1128 C1124 1.385 . S
C1128 C1127 1.374 . S
C1129 C1126 1.499 . S
C1129 C1130 1.373 . S
C1129 C1131 1.389 . S
C1130 H1103 0.950 . S
C1130 C1116 1.377 . S
C1130 C1129 1.373 . S
C1131 C1115 1.377 . S
C1131 C1129 1.389 . S
C1131 C1132 1.524 . S
C1132 C1131 1.524 . S
C1132 C1133 1.397 . S
C1132 C1137 1.363 . S
C1133 H1104 0.950 . S
C1133 C1132 1.397 . S
C1133 C1134 1.334 . S
C1134 H1105 0.950 . S
C1134 C1133 1.334 . S
C1134 C1135 1.287 . S
C1135 C1134 1.287 . S
C1135 C1136 1.524 . S
C1135 H1138 0.999 . S
C1136 H1106 0.950 . S
C1136 C1135 1.524 . S
C1136 C1137 1.415 . S
C1137 H1107 0.950 . S
C1137 C1132 1.363 . S
C1137 C1136 1.415 . S
H1138 C1135 0.999 . S
H1139 C1120 0.913 . S
H1140 C1158 0.951 . S
H1141 C1160 0.951 . S
H1142 C1162 0.950 . S
H1143 C1163 0.950 . S
H1144 C1165 0.950 . S
H1145 C1168 0.950 . S
H1146 C1169 0.950 . S
H1147 C1171 0.950 . S
H1148 C1172 0.950 . S
H1149 C1173 0.951 . S
H1150 C1175 0.951 . S
H1151 C1177 0.950 . S
H1152 C1178 0.950 . S
H1153 C1180 0.950 . S
H1154 C1183 0.950 . S
H1155 C1184 0.950 . S
H1156 C1186 0.950 . S
H1157 C1187 0.950 . S
C1158 H1140 0.951 . S
C1158 C1159 1.366 . S
C1158 C1160 1.388 . S
C1159 C1158 1.366 . S
C1159 C1163 1.385 . S
C1160 H1141 0.951 . S
C1160 C1158 1.388 . S
C1160 C1161 1.366 . S
C1161 C1160 1.366 . S
C1161 C1162 1.414 . S
C1161 C1164 1.499 . S
C1162 H1142 0.950 . S
C1162 C1161 1.414 . S
C1162 C1163 1.374 . S
C1163 H1143 0.950 . S
C1163 C1159 1.385 . S
C1163 C1162 1.374 . S
C1164 C1161 1.499 . S
C1164 C1165 1.373 . S
C1164 C1166 1.389 . S
C1165 H1144 0.950 . S
C1165 C1164 1.373 . S
C1165 C1181 1.377 . S
C1166 C1164 1.389 . S
C1166 C1167 1.524 . S
C1166 C1180 1.377 . S
C1167 C1166 1.524 . S
C1167 C1168 1.397 . S
C1167 C1172 1.363 . S
C1168 H1145 0.950 . S
C1168 C1167 1.397 . S
C1168 C1169 1.334 . S
C1169 H1146 0.950 . S
C1169 C1168 1.334 . S
C1169 C1170 1.287 . S
C1170 C1169 1.287 . S
C1170 C1171 1.524 . S
C1170 H1189 0.913 . S
C1171 H1147 0.950 . S
C1171 C1170 1.524 . S
C1171 C1172 1.415 . S
C1172 H1148 0.950 . S
C1172 C1167 1.363 . S
C1172 C1171 1.415 . S
C1173 H1149 0.951 . S
C1173 C1174 1.366 . S
C1173 C1175 1.388 . S
C1174 C1173 1.366 . S
C1174 C1178 1.385 . S
C1175 H1150 0.951 . S
C1175 C1173 1.388 . S
C1175 C1176 1.366 . S
C1176 C1175 1.366 . S
C1176 C1177 1.414 . S
C1176 C1179 1.499 . S
C1177 H1151 0.950 . S
C1177 C1176 1.414 . S
C1177 C1178 1.374 . S
C1178 H1152 0.950 . S
C1178 C1174 1.385 . S
C1178 C1177 1.374 . S
C1179 C1176 1.499 . S
C1179 C1180 1.373 . S
C1179 C1181 1.389 . S
C1180 H1153 0.950 . S
C1180 C1166 1.377 . S
C1180 C1179 1.373 . S
C1181 C1165 1.377 . S
C1181 C1179 1.389 . S
C1181 C1182 1.524 . S
C1182 C1181 1.524 . S
C1182 C1183 1.397 . S
C1182 C1187 1.363 . S
C1183 H1154 0.950 . S
C1183 C1182 1.397 . S
C1183 C1184 1.334 . S
C1184 H1155 0.950 . S
C1184 C1183 1.334 . S
C1184 C1185 1.287 . S
C1185 C1184 1.287 . S
C1185 C1186 1.524 1_655 S
C1185 H1188 0.999 1_655 S
C1186 H1156 0.950 . S
C1186 C1185 1.524 1_455 S
C1186 C1187 1.415 1_455 S
C1187 H1157 0.950 . S
C1187 C1182 1.363 . S
C1187 C1186 1.415 1_655 S
H1188 C1185 0.999 1_455 S
H1189 C1170 0.913 . S
H1190 C1208 0.951 . S
H1191 C1210 0.951 . S
H1192 C1212 0.950 . S
H1193 C1213 0.950 . S
H1194 C1215 0.950 . S
H1195 C1218 0.950 . S
H1196 C1219 0.950 . S
H1197 C1221 0.950 . S
H1198 C1222 0.950 . S
H1199 C1223 0.951 . S
H1200 C1225 0.951 . S
H1201 C1227 0.950 . S
H1202 C1228 0.950 1_556 S
H1203 C1230 0.950 . S
H1204 C1233 0.950 . S
H1205 C1234 0.950 1_455 S
H1206 C1236 0.950 . S
H1207 C1237 0.950 . S
C1208 H1190 0.951 . S
C1208 C1209 1.366 . S
C1208 C1210 1.388 . S
C1209 C1208 1.366 . S
C1209 C1213 1.385 . S
C1210 H1191 0.951 . S
C1210 C1208 1.388 . S
C1210 C1211 1.366 . S
C1211 C1210 1.366 . S
C1211 C1212 1.414 . S
C1211 C1214 1.499 . S
C1212 H1192 0.950 . S
C1212 C1211 1.414 . S
C1212 C1213 1.374 . S
C1213 H1193 0.950 . S
C1213 C1209 1.385 . S
C1213 C1212 1.374 . S
C1214 C1211 1.499 . S
C1214 C1215 1.373 . S
C1214 C1216 1.389 . S
C1215 H1194 0.950 . S
C1215 C1214 1.373 . S
C1215 C1231 1.377 . S
C1216 C1214 1.389 . S
C1216 C1217 1.524 . S
C1216 C1230 1.377 . S
C1217 C1216 1.524 . S
C1217 C1218 1.397 . S
C1217 C1222 1.363 . S
C1218 H1195 0.950 . S
C1218 C1217 1.397 . S
C1218 C1219 1.334 . S
C1219 H1196 0.950 . S
C1219 C1218 1.334 . S
C1219 C1220 1.287 . S
C1220 C1219 1.287 . S
C1220 C1221 1.524 . S
C1220 H1239 0.913 . S
C1221 H1197 0.950 . S
C1221 C1220 1.524 . S
C1221 C1222 1.415 . S
C1222 H1198 0.950 . S
C1222 C1217 1.363 . S
C1222 C1221 1.415 . S
C1223 H1199 0.951 . S
C1223 C1224 1.365 . S
C1223 C1225 1.388 . S
C1224 C1223 1.365 . S
C1224 C1228 1.384 . S
C1225 H1200 0.951 . S
C1225 C1223 1.388 . S
C1225 C1226 1.366 . S
C1226 C1225 1.366 . S
C1226 C1227 1.414 . S
C1226 C1229 1.499 . S
C1227 H1201 0.950 . S
C1227 C1226 1.414 . S
C1227 C1228 1.374 . S
C1228 H1202 0.950 1_554 S
C1228 C1224 1.384 . S
C1228 C1227 1.374 . S
C1229 C1226 1.499 . S
C1229 C1230 1.373 . S
C1229 C1231 1.389 . S
C1230 H1203 0.950 . S
C1230 C1216 1.377 . S
C1230 C1229 1.373 . S
C1231 C1215 1.377 . S
C1231 C1229 1.389 . S
C1231 C1232 1.524 . S
C1232 C1231 1.524 . S
C1232 C1233 1.397 . S
C1232 C1237 1.363 . S
C1233 H1204 0.950 . S
C1233 C1232 1.397 . S
C1233 C1234 1.334 . S
C1234 H1205 0.950 1_655 S
C1234 C1233 1.334 . S
C1234 C1235 1.287 . S
C1235 C1234 1.287 . S
C1235 C1236 1.524 . S
C1235 H1238 0.999 . S
C1236 H1206 0.950 . S
C1236 C1235 1.524 . S
C1236 C1237 1.415 . S
C1237 H1207 0.950 . S
C1237 C1232 1.363 . S
C1237 C1236 1.415 . S
H1238 C1235 0.999 . S
H1239 C1220 0.913 . S
H1240 C1258 0.951 . S
H1241 C1260 0.951 . S
H1242 C1262 0.950 . S
H1243 C1263 0.950 . S
H1244 C1265 0.950 . S
H1245 C1268 0.950 . S
H1246 C1269 0.950 . S
H1247 C1271 0.950 . S
H1248 C1272 0.950 . S
H1249 C1273 0.951 . S
H1250 C1275 0.951 . S
H1251 C1277 0.950 . S
H1252 C1278 0.950 . S
H1253 C1280 0.950 . S
H1254 C1283 0.950 . S
H1255 C1284 0.950 . S
H1256 C1286 0.950 . S
H1257 C1287 0.950 . S
C1258 H1240 0.951 . S
C1258 C1259 1.366 . S
C1258 C1260 1.388 . S
C1259 C1258 1.366 . S
C1259 C1263 1.385 . S
C1260 H1241 0.951 . S
C1260 C1258 1.388 . S
C1260 C1261 1.366 . S
C1261 C1260 1.366 . S
C1261 C1262 1.414 . S
C1261 C1264 1.499 . S
C1262 H1242 0.950 . S
C1262 C1261 1.414 . S
C1262 C1263 1.374 . S
C1263 H1243 0.950 . S
C1263 C1259 1.385 . S
C1263 C1262 1.374 . S
C1264 C1261 1.499 . S
C1264 C1265 1.373 . S
C1264 C1266 1.389 . S
C1265 H1244 0.950 . S
C1265 C1264 1.373 . S
C1265 C1281 1.377 . S
C1266 C1264 1.389 . S
C1266 C1267 1.524 . S
C1266 C1280 1.377 . S
C1267 C1266 1.524 . S
C1267 C1268 1.397 . S
C1267 C1272 1.363 . S
C1268 H1245 0.950 . S
C1268 C1267 1.397 . S
C1268 C1269 1.334 . S
C1269 H1246 0.950 . S
C1269 C1268 1.334 . S
C1269 C1270 1.287 . S
C1270 C1269 1.287 . S
C1270 C1271 1.524 . S
C1270 H1289 0.913 . S
C1271 H1247 0.950 . S
C1271 C1270 1.524 . S
C1271 C1272 1.415 . S
C1272 H1248 0.950 . S
C1272 C1267 1.363 . S
C1272 C1271 1.415 . S
C1273 H1249 0.951 . S
C1273 C1274 1.366 . S
C1273 C1275 1.388 . S
C1274 C1273 1.366 . S
C1274 C1278 1.385 . S
C1275 H1250 0.951 . S
C1275 C1273 1.388 . S
C1275 C1276 1.366 . S
C1276 C1275 1.366 . S
C1276 C1277 1.414 . S
C1276 C1279 1.499 . S
C1277 H1251 0.950 . S
C1277 C1276 1.414 . S
C1277 C1278 1.374 . S
C1278 H1252 0.950 . S
C1278 C1274 1.385 . S
C1278 C1277 1.374 . S
C1279 C1276 1.499 . S
C1279 C1280 1.373 . S
C1279 C1281 1.389 . S
C1280 H1253 0.950 . S
C1280 C1266 1.377 . S
C1280 C1279 1.373 . S
C1281 C1265 1.377 . S
C1281 C1279 1.389 . S
C1281 C1282 1.524 . S
C1282 C1281 1.524 . S
C1282 C1283 1.397 . S
C1282 C1287 1.363 . S
C1283 H1254 0.950 . S
C1283 C1282 1.397 . S
C1283 C1284 1.334 . S
C1284 H1255 0.950 . S
C1284 C1283 1.334 . S
C1284 C1285 1.287 . S
C1285 C1284 1.287 . S
C1285 C1286 1.524 . S
C1285 H1288 0.999 . S
C1286 H1256 0.950 . S
C1286 C1285 1.524 . S
C1286 C1287 1.415 . S
C1287 H1257 0.950 . S
C1287 C1282 1.363 . S
C1287 C1286 1.415 . S
H1288 C1285 0.999 . S
H1289 C1270 0.913 . S
H1290 C1308 0.951 . S
H1291 C1310 0.951 . S
H1292 C1312 0.950 . S
H1293 C1313 0.950 . S
H1294 C1315 0.950 . S
H1295 C1318 0.950 . S
H1296 C1319 0.950 . S
H1297 C1321 0.950 . S
H1298 C1322 0.950 . S
H1299 C1323 0.951 . S
H1300 C1325 0.951 . S
H1301 C1327 0.950 . S
H1302 C1328 0.950 . S
H1303 C1330 0.950 . S
H1304 C1333 0.950 . S
H1305 C1334 0.950 . S
H1306 C1336 0.950 . S
H1307 C1337 0.950 . S
C1308 H1290 0.951 . S
C1308 C1309 1.366 . S
C1308 C1310 1.388 . S
C1309 C1308 1.366 . S
C1309 C1313 1.385 . S
C1310 H1291 0.951 . S
C1310 C1308 1.388 . S
C1310 C1311 1.366 . S
C1311 C1310 1.366 . S
C1311 C1312 1.414 . S
C1311 C1314 1.499 . S
C1312 H1292 0.950 . S
C1312 C1311 1.414 . S
C1312 C1313 1.374 . S
C1313 H1293 0.950 . S
C1313 C1309 1.385 . S
C1313 C1312 1.374 . S
C1314 C1311 1.499 . S
C1314 C1315 1.373 . S
C1314 C1316 1.389 . S
C1315 H1294 0.950 . S
C1315 C1314 1.373 . S
C1315 C1331 1.377 . S
C1316 C1314 1.389 . S
C1316 C1317 1.524 . S
C1316 C1330 1.377 . S
C1317 C1316 1.524 . S
C1317 C1318 1.397 . S
C1317 C1322 1.363 . S
C1318 H1295 0.950 . S
C1318 C1317 1.397 . S
C1318 C1319 1.334 . S
C1319 H1296 0.950 . S
C1319 C1318 1.334 . S
C1319 C1320 1.287 . S
C1320 C1319 1.287 . S
C1320 C1321 1.524 . S
C1320 H1339 0.913 . S
C1321 H1297 0.950 . S
C1321 C1320 1.524 . S
C1321 C1322 1.415 . S
C1322 H1298 0.950 . S
C1322 C1317 1.363 . S
C1322 C1321 1.415 . S
C1323 H1299 0.951 . S
C1323 C1324 1.366 . S
C1323 C1325 1.388 . S
C1324 C1323 1.366 . S
C1324 C1328 1.385 . S
C1325 H1300 0.951 . S
C1325 C1323 1.388 . S
C1325 C1326 1.366 . S
C1326 C1325 1.366 . S
C1326 C1327 1.414 . S
C1326 C1329 1.499 . S
C1327 H1301 0.950 . S
C1327 C1326 1.414 . S
C1327 C1328 1.374 . S
C1328 H1302 0.950 . S
C1328 C1324 1.385 . S
C1328 C1327 1.374 . S
C1329 C1326 1.499 . S
C1329 C1330 1.373 . S
C1329 C1331 1.389 . S
C1330 H1303 0.950 . S
C1330 C1316 1.377 . S
C1330 C1329 1.373 . S
C1331 C1315 1.377 . S
C1331 C1329 1.389 . S
C1331 C1332 1.524 . S
C1332 C1331 1.524 . S
C1332 C1333 1.397 . S
C1332 C1337 1.363 . S
C1333 H1304 0.950 . S
C1333 C1332 1.397 . S
C1333 C1334 1.334 . S
C1334 H1305 0.950 . S
C1334 C1333 1.334 . S
C1334 C1335 1.287 . S
C1335 C1334 1.287 . S
C1335 C1336 1.524 . S
C1335 H1338 0.999 . S
C1336 H1306 0.950 . S
C1336 C1335 1.524 . S
C1336 C1337 1.415 . S
C1337 H1307 0.950 . S
C1337 C1332 1.363 . S
C1337 C1336 1.415 . S
H1338 C1335 0.999 . S
H1339 C1320 0.913 . S
H1340 C1358 0.951 . S
H1341 C1360 0.951 . S
H1342 C1362 0.950 . S
H1343 C1363 0.950 . S
H1344 C1365 0.950 . S
H1345 C1368 0.950 . S
H1346 C1369 0.950 . S
H1347 C1371 0.950 . S
H1348 C1372 0.950 . S
H1349 C1373 0.951 . S
H1350 C1375 0.951 . S
H1351 C1377 0.950 . S
H1352 C1378 0.950 . S
H1353 C1380 0.950 . S
H1354 C1383 0.950 . S
H1355 C1384 0.950 . S
H1356 C1386 0.950 . S
H1357 C1387 0.950 . S
C1358 H1340 0.951 . S
C1358 C1359 1.366 . S
C1358 C1360 1.388 . S
C1359 C1358 1.366 . S
C1359 C1363 1.385 . S
C1360 H1341 0.951 . S
C1360 C1358 1.388 . S
C1360 C1361 1.366 . S
C1361 C1360 1.366 . S
C1361 C1362 1.414 . S
C1361 C1364 1.499 . S
C1362 H1342 0.950 . S
C1362 C1361 1.414 . S
C1362 C1363 1.374 . S
C1363 H1343 0.950 . S
C1363 C1359 1.385 . S
C1363 C1362 1.374 . S
C1364 C1361 1.499 . S
C1364 C1365 1.373 . S
C1364 C1366 1.389 . S
C1365 H1344 0.950 . S
C1365 C1364 1.373 . S
C1365 C1381 1.377 . S
C1366 C1364 1.389 . S
C1366 C1367 1.524 . S
C1366 C1380 1.377 . S
C1367 C1366 1.524 . S
C1367 C1368 1.397 . S
C1367 C1372 1.363 . S
C1368 H1345 0.950 . S
C1368 C1367 1.397 . S
C1368 C1369 1.334 . S
C1369 H1346 0.950 . S
C1369 C1368 1.334 . S
C1369 C1370 1.287 . S
C1370 C1369 1.287 . S
C1370 C1371 1.524 . S
C1370 H1389 0.913 . S
C1371 H1347 0.950 . S
C1371 C1370 1.524 . S
C1371 C1372 1.415 . S
C1372 H1348 0.950 . S
C1372 C1367 1.363 . S
C1372 C1371 1.415 . S
C1373 H1349 0.951 . S
C1373 C1374 1.366 . S
C1373 C1375 1.388 . S
C1374 C1373 1.366 . S
C1374 C1378 1.385 . S
C1375 H1350 0.951 . S
C1375 C1373 1.388 . S
C1375 C1376 1.366 . S
C1376 C1375 1.366 . S
C1376 C1377 1.414 . S
C1376 C1379 1.499 . S
C1377 H1351 0.950 . S
C1377 C1376 1.414 . S
C1377 C1378 1.374 . S
C1378 H1352 0.950 . S
C1378 C1374 1.385 . S
C1378 C1377 1.374 . S
C1379 C1376 1.499 . S
C1379 C1380 1.373 . S
C1379 C1381 1.389 . S
C1380 H1353 0.950 . S
C1380 C1366 1.377 . S
C1380 C1379 1.373 . S
C1381 C1365 1.377 . S
C1381 C1379 1.389 . S
C1381 C1382 1.524 . S
C1382 C1381 1.524 . S
C1382 C1383 1.397 . S
C1382 C1387 1.363 . S
C1383 H1354 0.950 . S
C1383 C1382 1.397 . S
C1383 C1384 1.334 . S
C1384 H1355 0.950 . S
C1384 C1383 1.334 . S
C1384 C1385 1.287 . S
C1385 C1384 1.287 . S
C1385 C1386 1.524 . S
C1385 H1388 0.999 . S
C1386 H1356 0.950 . S
C1386 C1385 1.524 . S
C1386 C1387 1.415 . S
C1387 H1357 0.950 . S
C1387 C1382 1.363 . S
C1387 C1386 1.415 . S
H1388 C1385 0.999 . S
H1389 C1370 0.913 . S
H1390 C1408 0.951 . S
H1391 C1410 0.951 . S
H1392 C1412 0.950 . S
H1393 C1413 0.950 . S
H1394 C1415 0.950 . S
H1395 C1418 0.950 . S
H1396 C1419 0.950 . S
H1397 C1421 0.950 . S
H1398 C1422 0.950 . S
H1399 C1423 0.951 1_554 S
H1400 C1425 0.951 . S
H1401 C1427 0.950 . S
H1402 C1428 0.950 . S
H1403 C1430 0.950 . S
H1404 C1433 0.950 . S
H1405 C1434 0.950 . S
H1406 C1436 0.950 . S
H1407 C1437 0.950 . S
C1408 H1390 0.951 . S
C1408 C1409 1.366 . S
C1408 C1410 1.388 . S
C1409 C1408 1.366 . S
C1409 C1413 1.385 . S
C1410 H1391 0.951 . S
C1410 C1408 1.388 . S
C1410 C1411 1.366 . S
C1411 C1410 1.366 . S
C1411 C1412 1.414 . S
C1411 C1414 1.499 . S
C1412 H1392 0.950 . S
C1412 C1411 1.414 . S
C1412 C1413 1.374 . S
C1413 H1393 0.950 . S
C1413 C1409 1.385 . S
C1413 C1412 1.374 . S
C1414 C1411 1.499 . S
C1414 C1415 1.373 . S
C1414 C1416 1.389 . S
C1415 H1394 0.950 . S
C1415 C1414 1.373 . S
C1415 C1431 1.377 . S
C1416 C1414 1.389 . S
C1416 C1417 1.524 . S
C1416 C1430 1.377 . S
C1417 C1416 1.524 . S
C1417 C1418 1.397 . S
C1417 C1422 1.363 . S
C1418 H1395 0.950 . S
C1418 C1417 1.397 . S
C1418 C1419 1.334 . S
C1419 H1396 0.950 . S
C1419 C1418 1.334 . S
C1419 C1420 1.287 . S
C1420 C1419 1.287 . S
C1420 C1421 1.524 . S
C1420 H1439 0.913 . S
C1421 H1397 0.950 . S
C1421 C1420 1.524 . S
C1421 C1422 1.415 . S
C1422 H1398 0.950 . S
C1422 C1417 1.363 . S
C1422 C1421 1.415 . S
C1423 H1399 0.951 1_556 S
C1423 C1424 1.366 . S
C1423 C1425 1.388 . S
C1424 C1423 1.366 . S
C1424 C1428 1.384 . S
C1425 H1400 0.951 . S
C1425 C1423 1.388 . S
C1425 C1426 1.366 . S
C1426 C1425 1.366 . S
C1426 C1427 1.414 . S
C1426 C1429 1.499 . S
C1427 H1401 0.950 . S
C1427 C1426 1.414 . S
C1427 C1428 1.374 . S
C1428 H1402 0.950 . S
C1428 C1424 1.384 . S
C1428 C1427 1.374 . S
C1429 C1426 1.499 . S
C1429 C1430 1.373 . S
C1429 C1431 1.389 . S
C1430 H1403 0.950 . S
C1430 C1416 1.377 . S
C1430 C1429 1.373 . S
C1431 C1415 1.377 . S
C1431 C1429 1.389 . S
C1431 C1432 1.524 . S
C1432 C1431 1.524 . S
C1432 C1433 1.397 . S
C1432 C1437 1.363 . S
C1433 H1404 0.950 . S
C1433 C1432 1.397 . S
C1433 C1434 1.334 . S
C1434 H1405 0.950 . S
C1434 C1433 1.334 . S
C1434 C1435 1.287 . S
C1435 C1434 1.287 . S
C1435 C1436 1.524 . S
C1435 H1438 0.999 . S
C1436 H1406 0.950 . S
C1436 C1435 1.524 . S
C1436 C1437 1.415 . S
C1437 H1407 0.950 . S
C1437 C1432 1.363 . S
C1437 C1436 1.415 . S
H1438 C1435 0.999 . S
H1439 C1420 0.913 . S
H1440 C1458 0.951 . S
H1441 C1460 0.951 . S
H1442 C1462 0.942 1_655 S
H1443 C1463 0.950 . S
H1444 C1465 0.950 . S
H1445 C1468 0.950 . S
H1446 C1469 0.950 . S
H1447 C1471 0.950 . S
H1448 C1472 0.950 . S
H1449 C1473 0.951 1_655 S
H1450 C1475 0.951 1_655 S
H1451 C1477 0.950 . S
H1452 C1478 0.950 . S
H1453 C1480 0.950 . S
H1454 C1483 0.950 . S
H1455 C1484 0.950 . S
H1456 C1486 0.950 . S
H1457 C1487 0.950 . S
C1458 H1440 0.951 . S
C1458 C1459 1.366 . S
C1458 C1460 1.388 . S
C1459 C1458 1.366 . S
C1459 C1463 1.385 . S
C1460 H1441 0.951 . S
C1460 C1458 1.388 . S
C1460 C1461 1.366 . S
C1461 C1460 1.366 . S
C1461 C1462 1.414 . S
C1461 C1464 1.499 . S
C1462 H1442 0.942 1_455 S
C1462 C1461 1.414 . S
C1462 C1463 1.374 . S
C1463 H1443 0.950 . S
C1463 C1459 1.385 . S
C1463 C1462 1.374 . S
C1464 C1461 1.499 . S
C1464 C1465 1.373 . S
C1464 C1466 1.389 . S
C1465 H1444 0.950 . S
C1465 C1464 1.373 . S
C1465 C1481 1.377 . S
C1466 C1464 1.389 . S
C1466 C1467 1.524 . S
C1466 C1480 1.377 . S
C1467 C1466 1.524 . S
C1467 C1468 1.397 . S
C1467 C1472 1.363 . S
C1468 H1445 0.950 . S
C1468 C1467 1.397 . S
C1468 C1469 1.334 . S
C1469 H1446 0.950 . S
C1469 C1468 1.334 . S
C1469 C1470 1.287 . S
C1470 C1469 1.287 . S
C1470 C1471 1.524 . S
C1470 H1489 0.913 . S
C1471 H1447 0.950 . S
C1471 C1470 1.524 . S
C1471 C1472 1.415 . S
C1472 H1448 0.950 . S
C1472 C1467 1.363 . S
C1472 C1471 1.415 . S
C1473 H1449 0.951 1_455 S
C1473 C1474 1.366 . S
C1473 C1475 1.388 . S
C1474 C1473 1.366 . S
C1474 C1478 1.385 . S
C1475 H1450 0.951 1_455 S
C1475 C1473 1.388 . S
C1475 C1476 1.366 . S
C1476 C1475 1.366 . S
C1476 C1477 1.414 . S
C1476 C1479 1.499 . S
C1477 H1451 0.950 . S
C1477 C1476 1.414 . S
C1477 C1478 1.374 . S
C1478 H1452 0.950 . S
C1478 C1474 1.385 . S
C1478 C1477 1.374 . S
C1479 C1476 1.499 . S
C1479 C1480 1.373 . S
C1479 C1481 1.389 . S
C1480 H1453 0.950 . S
C1480 C1466 1.377 . S
C1480 C1479 1.373 . S
C1481 C1465 1.377 . S
C1481 C1479 1.389 . S
C1481 C1482 1.524 1_455 S
C1482 C1481 1.524 1_655 S
C1482 C1483 1.397 1_655 S
C1482 C1487 1.363 . S
C1483 H1454 0.950 . S
C1483 C1482 1.397 1_455 S
C1483 C1484 1.334 1_455 S
C1484 H1455 0.950 . S
C1484 C1483 1.334 1_655 S
C1484 C1485 1.287 . S
C1485 C1484 1.287 . S
C1485 C1486 1.524 . S
C1485 H1488 0.999 . S
C1486 H1456 0.950 . S
C1486 C1485 1.524 . S
C1486 C1487 1.415 . S
C1487 H1457 0.950 . S
C1487 C1482 1.363 . S
C1487 C1486 1.415 . S
H1488 C1485 0.999 . S
H1489 C1470 0.913 . S
H1490 C1508 0.951 . S
H1491 C1510 0.951 . S
H1492 C1512 0.950 . S
H1493 C1513 0.950 . S
H1494 C1515 0.953 . S
H1495 C1518 0.950 . S
H1496 C1519 0.957 . S
H1497 C1521 0.950 . S
H1498 C1522 0.950 . S
H1499 C1523 0.951 . S
H1500 C1525 0.951 . S
H1501 C1527 0.950 . S
H1502 C1528 0.950 . S
H1503 C1530 0.950 . S
H1504 C1533 0.950 . S
H1505 C1534 0.950 . S
H1506 C1536 0.950 . S
H1507 C1537 0.950 . S
C1508 H1490 0.951 . S
C1508 C1509 1.366 . S
C1508 C1510 1.388 . S
C1509 C1508 1.366 . S
C1509 C1513 1.385 . S
C1510 H1491 0.951 . S
C1510 C1508 1.388 . S
C1510 C1511 1.366 . S
C1511 C1510 1.366 . S
C1511 C1512 1.414 . S
C1511 C1514 1.499 . S
C1512 H1492 0.950 . S
C1512 C1511 1.414 . S
C1512 C1513 1.374 . S
C1513 H1493 0.950 . S
C1513 C1509 1.385 . S
C1513 C1512 1.374 . S
C1514 C1511 1.499 . S
C1514 C1515 1.376 . S
C1514 C1516 1.389 1_655 S
C1515 H1494 0.953 . S
C1515 C1514 1.376 . S
C1515 C1531 1.371 1_655 S
C1516 C1514 1.389 1_455 S
C1516 C1517 1.524 . S
C1516 C1530 1.377 . S
C1517 C1516 1.524 . S
C1517 C1518 1.397 . S
C1517 C1522 1.363 . S
C1518 H1495 0.950 . S
C1518 C1517 1.397 . S
C1518 C1519 1.328 1_455 S
C1519 H1496 0.957 . S
C1519 C1518 1.328 1_655 S
C1519 C1520 1.286 1_655 S
C1520 C1519 1.286 1_455 S
C1520 C1521 1.524 . S
C1520 H1539 0.914 1_455 S
C1521 H1497 0.950 . S
C1521 C1520 1.524 . S
C1521 C1522 1.415 . S
C1522 H1498 0.950 . S
C1522 C1517 1.363 . S
C1522 C1521 1.415 . S
C1523 H1499 0.951 . S
C1523 C1524 1.366 . S
C1523 C1525 1.388 . S
C1524 C1523 1.366 . S
C1524 C1528 1.385 . S
C1525 H1500 0.951 . S
C1525 C1523 1.388 . S
C1525 C1526 1.366 . S
C1526 C1525 1.366 . S
C1526 C1527 1.414 . S
C1526 C1529 1.499 . S
C1527 H1501 0.950 . S
C1527 C1526 1.414 . S
C1527 C1528 1.374 . S
C1528 H1502 0.950 . S
C1528 C1524 1.385 . S
C1528 C1527 1.374 . S
C1529 C1526 1.499 . S
C1529 C1530 1.373 . S
C1529 C1531 1.389 . S
C1530 H1503 0.950 . S
C1530 C1516 1.377 . S
C1530 C1529 1.373 . S
C1531 C1515 1.371 1_455 S
C1531 C1529 1.389 . S
C1531 C1532 1.524 . S
C1532 C1531 1.524 . S
C1532 C1533 1.397 . S
C1532 C1537 1.363 . S
C1533 H1504 0.950 . S
C1533 C1532 1.397 . S
C1533 C1534 1.334 . S
C1534 H1505 0.950 . S
C1534 C1533 1.334 . S
C1534 C1535 1.287 . S
C1535 C1534 1.287 . S
C1535 C1536 1.524 . S
C1535 H1538 0.999 . S
C1536 H1506 0.950 . S
C1536 C1535 1.524 . S
C1536 C1537 1.415 . S
C1537 H1507 0.950 . S
C1537 C1532 1.363 . S
C1537 C1536 1.415 . S
H1538 C1535 0.999 . S
H1539 C1520 0.914 1_655 S
H1540 C1558 0.951 . S
H1541 C1560 0.951 . S
H1542 C1562 0.950 . S
H1543 C1563 0.950 . S
H1544 C1565 0.950 . S
H1545 C1568 0.950 . S
H1546 C1569 0.950 . S
H1547 C1571 0.950 . S
H1548 C1572 0.950 . S
H1549 C1573 0.951 . S
H1550 C1575 0.951 . S
H1551 C1577 0.950 . S
H1552 C1578 0.950 . S
H1553 C1580 0.950 . S
H1554 C1583 0.950 . S
H1555 C1584 0.950 . S
H1556 C1586 0.950 . S
H1557 C1587 0.950 . S
C1558 H1540 0.951 . S
C1558 C1559 1.366 . S
C1558 C1560 1.388 . S
C1559 C1558 1.366 . S
C1559 C1563 1.385 . S
C1560 H1541 0.951 . S
C1560 C1558 1.388 . S
C1560 C1561 1.366 . S
C1561 C1560 1.366 . S
C1561 C1562 1.414 . S
C1561 C1564 1.499 . S
C1562 H1542 0.950 . S
C1562 C1561 1.414 . S
C1562 C1563 1.374 . S
C1563 H1543 0.950 . S
C1563 C1559 1.385 . S
C1563 C1562 1.374 . S
C1564 C1561 1.499 . S
C1564 C1565 1.373 . S
C1564 C1566 1.389 . S
C1565 H1544 0.950 . S
C1565 C1564 1.373 . S
C1565 C1581 1.377 . S
C1566 C1564 1.389 . S
C1566 C1567 1.524 . S
C1566 C1580 1.377 . S
C1567 C1566 1.524 . S
C1567 C1568 1.397 . S
C1567 C1572 1.363 . S
C1568 H1545 0.950 . S
C1568 C1567 1.397 . S
C1568 C1569 1.334 . S
C1569 H1546 0.950 . S
C1569 C1568 1.334 . S
C1569 C1570 1.287 . S
C1570 C1569 1.287 . S
C1570 C1571 1.524 . S
C1570 H1589 0.913 . S
C1571 H1547 0.950 . S
C1571 C1570 1.524 . S
C1571 C1572 1.415 . S
C1572 H1548 0.950 . S
C1572 C1567 1.363 . S
C1572 C1571 1.415 . S
C1573 H1549 0.951 . S
C1573 C1574 1.366 . S
C1573 C1575 1.388 . S
C1574 C1573 1.366 . S
C1574 C1578 1.385 . S
C1575 H1550 0.951 . S
C1575 C1573 1.388 . S
C1575 C1576 1.366 . S
C1576 C1575 1.366 . S
C1576 C1577 1.414 . S
C1576 C1579 1.499 . S
C1577 H1551 0.950 . S
C1577 C1576 1.414 . S
C1577 C1578 1.374 . S
C1578 H1552 0.950 . S
C1578 C1574 1.385 . S
C1578 C1577 1.374 . S
C1579 C1576 1.499 . S
C1579 C1580 1.373 . S
C1579 C1581 1.389 . S
C1580 H1553 0.950 . S
C1580 C1566 1.377 . S
C1580 C1579 1.373 . S
C1581 C1565 1.377 . S
C1581 C1579 1.389 . S
C1581 C1582 1.524 . S
C1582 C1581 1.524 . S
C1582 C1583 1.397 . S
C1582 C1587 1.363 . S
C1583 H1554 0.950 . S
C1583 C1582 1.397 . S
C1583 C1584 1.334 . S
C1584 H1555 0.950 . S
C1584 C1583 1.334 . S
C1584 C1585 1.287 . S
C1585 C1584 1.287 . S
C1585 C1586 1.524 . S
C1585 H1588 0.999 . S
C1586 H1556 0.950 . S
C1586 C1585 1.524 . S
C1586 C1587 1.415 . S
C1587 H1557 0.950 . S
C1587 C1582 1.363 . S
C1587 C1586 1.415 . S
H1588 C1585 0.999 . S
H1589 C1570 0.913 . S
H1590 C1608 0.951 . S
H1591 C1610 0.951 . S
H1592 C1612 0.950 . S
H1593 C1613 0.950 . S
H1594 C1615 0.950 . S
H1595 C1618 0.950 . S
H1596 C1619 0.950 . S
H1597 C1621 0.950 . S
H1598 C1622 0.950 . S
H1599 C1623 0.951 . S
H1600 C1625 0.951 . S
H1601 C1627 0.950 . S
H1602 C1628 0.950 . S
H1603 C1630 0.950 . S
H1604 C1633 0.950 . S
H1605 C1634 0.950 . S
H1606 C1636 0.950 . S
H1607 C1637 0.950 . S
C1608 H1590 0.951 . S
C1608 C1609 1.366 . S
C1608 C1610 1.388 . S
C1609 C1608 1.366 . S
C1609 C1613 1.385 . S
C1610 H1591 0.951 . S
C1610 C1608 1.388 . S
C1610 C1611 1.366 . S
C1611 C1610 1.366 . S
C1611 C1612 1.414 . S
C1611 C1614 1.499 . S
C1612 H1592 0.950 . S
C1612 C1611 1.414 . S
C1612 C1613 1.374 . S
C1613 H1593 0.950 . S
C1613 C1609 1.385 . S
C1613 C1612 1.374 . S
C1614 C1611 1.499 . S
C1614 C1615 1.373 . S
C1614 C1616 1.389 . S
C1615 H1594 0.950 . S
C1615 C1614 1.373 . S
C1615 C1631 1.377 . S
C1616 C1614 1.389 . S
C1616 C1617 1.524 . S
C1616 C1630 1.377 . S
C1617 C1616 1.524 . S
C1617 C1618 1.397 . S
C1617 C1622 1.363 . S
C1618 H1595 0.950 . S
C1618 C1617 1.397 . S
C1618 C1619 1.334 . S
C1619 H1596 0.950 . S
C1619 C1618 1.334 . S
C1619 C1620 1.287 . S
C1620 C1619 1.287 . S
C1620 C1621 1.524 . S
C1620 H1639 0.913 . S
C1621 H1597 0.950 . S
C1621 C1620 1.524 . S
C1621 C1622 1.415 . S
C1622 H1598 0.950 . S
C1622 C1617 1.363 . S
C1622 C1621 1.415 . S
C1623 H1599 0.951 . S
C1623 C1624 1.366 . S
C1623 C1625 1.388 . S
C1624 C1623 1.366 . S
C1624 C1628 1.385 . S
C1625 H1600 0.951 . S
C1625 C1623 1.388 . S
C1625 C1626 1.366 . S
C1626 C1625 1.366 . S
C1626 C1627 1.414 . S
C1626 C1629 1.499 . S
C1627 H1601 0.950 . S
C1627 C1626 1.414 . S
C1627 C1628 1.374 . S
C1628 H1602 0.950 . S
C1628 C1624 1.385 . S
C1628 C1627 1.374 . S
C1629 C1626 1.499 . S
C1629 C1630 1.373 . S
C1629 C1631 1.389 . S
C1630 H1603 0.950 . S
C1630 C1616 1.377 . S
C1630 C1629 1.373 . S
C1631 C1615 1.377 . S
C1631 C1629 1.389 . S
C1631 C1632 1.524 . S
C1632 C1631 1.524 . S
C1632 C1633 1.397 . S
C1632 C1637 1.363 . S
C1633 H1604 0.950 . S
C1633 C1632 1.397 . S
C1633 C1634 1.334 . S
C1634 H1605 0.950 . S
C1634 C1633 1.334 . S
C1634 C1635 1.287 . S
C1635 C1634 1.287 . S
C1635 C1636 1.524 . S
C1635 H1638 0.999 . S
C1636 H1606 0.950 . S
C1636 C1635 1.524 . S
C1636 C1637 1.415 . S
C1637 H1607 0.950 . S
C1637 C1632 1.363 . S
C1637 C1636 1.415 . S
H1638 C1635 0.999 . S
H1639 C1620 0.913 . S
H1640 C1658 0.951 . S
H1641 C1660 0.951 . S
H1642 C1662 0.950 . S
H1643 C1663 0.950 . S
H1644 C1665 0.950 . S
H1645 C1668 0.950 . S
H1646 C1669 0.950 . S
H1647 C1671 0.950 . S
H1648 C1672 0.950 . S
H1649 C1673 0.951 1_655 S
H1650 C1675 0.950 1_655 S
H1651 C1677 0.950 . S
H1652 C1678 0.950 . S
H1653 C1680 0.950 . S
H1654 C1683 0.950 . S
H1655 C1684 0.950 . S
H1656 C1686 0.950 . S
H1657 C1687 0.950 . S
C1658 H1640 0.951 . S
C1658 C1659 1.366 . S
C1658 C1660 1.388 . S
C1659 C1658 1.366 . S
C1659 C1663 1.385 . S
C1660 H1641 0.951 . S
C1660 C1658 1.388 . S
C1660 C1661 1.366 . S
C1661 C1660 1.366 . S
C1661 C1662 1.414 . S
C1661 C1664 1.499 . S
C1662 H1642 0.950 . S
C1662 C1661 1.414 . S
C1662 C1663 1.374 . S
C1663 H1643 0.950 . S
C1663 C1659 1.385 . S
C1663 C1662 1.374 . S
C1664 C1661 1.499 . S
C1664 C1665 1.373 . S
C1664 C1666 1.389 1_455 S
C1665 H1644 0.950 . S
C1665 C1664 1.373 . S
C1665 C1681 1.377 . S
C1666 C1664 1.389 1_655 S
C1666 C1667 1.524 . S
C1666 C1680 1.377 . S
C1667 C1666 1.524 . S
C1667 C1668 1.397 . S
C1667 C1672 1.363 . S
C1668 H1645 0.950 . S
C1668 C1667 1.397 . S
C1668 C1669 1.334 . S
C1669 H1646 0.950 . S
C1669 C1668 1.334 . S
C1669 C1670 1.287 . S
C1670 C1669 1.287 . S
C1670 C1671 1.524 . S
C1670 H1689 0.913 . S
C1671 H1647 0.950 . S
C1671 C1670 1.524 . S
C1671 C1672 1.415 . S
C1672 H1648 0.950 . S
C1672 C1667 1.363 . S
C1672 C1671 1.415 . S
C1673 H1649 0.951 1_455 S
C1673 C1674 1.366 . S
C1673 C1675 1.388 . S
C1674 C1673 1.366 . S
C1674 C1678 1.385 . S
C1675 H1650 0.950 1_455 S
C1675 C1673 1.388 . S
C1675 C1676 1.366 . S
C1676 C1675 1.366 . S
C1676 C1677 1.414 . S
C1676 C1679 1.499 . S
C1677 H1651 0.950 . S
C1677 C1676 1.414 . S
C1677 C1678 1.374 . S
C1678 H1652 0.950 . S
C1678 C1674 1.385 . S
C1678 C1677 1.374 . S
C1679 C1676 1.499 . S
C1679 C1680 1.373 1_455 S
C1679 C1681 1.389 . S
C1680 H1653 0.950 . S
C1680 C1666 1.377 . S
C1680 C1679 1.373 1_655 S
C1681 C1665 1.377 . S
C1681 C1679 1.389 . S
C1681 C1682 1.524 . S
C1682 C1681 1.524 . S
C1682 C1683 1.397 . S
C1682 C1687 1.363 . S
C1683 H1654 0.950 . S
C1683 C1682 1.397 . S
C1683 C1684 1.334 . S
C1684 H1655 0.950 . S
C1684 C1683 1.334 . S
C1684 C1685 1.287 . S
C1685 C1684 1.287 . S
C1685 C1686 1.524 . S
C1685 H1688 0.999 . S
C1686 H1656 0.950 . S
C1686 C1685 1.524 . S
C1686 C1687 1.415 . S
C1687 H1657 0.950 . S
C1687 C1682 1.363 . S
C1687 C1686 1.415 . S
H1688 C1685 0.999 . S
H1689 C1670 0.913 . S
H1690 C1708 0.951 . S
H1691 C1710 0.951 . S
H1692 C1712 0.950 . S
H1693 C1713 0.950 . S
H1694 C1715 0.950 . S
H1695 C1718 0.950 . S
H1696 C1719 0.950 . S
H1697 C1721 0.950 . S
H1698 C1722 0.950 . S
H1699 C1723 0.951 . S
H1700 C1725 0.951 . S
H1701 C1727 0.950 . S
H1702 C1728 0.950 . S
H1703 C1730 0.950 . S
H1704 C1733 0.950 . S
H1705 C1734 0.950 . S
H1706 C1736 0.950 . S
H1707 C1737 0.950 . S
C1708 H1690 0.951 . S
C1708 C1709 1.366 . S
C1708 C1710 1.388 . S
C1709 C1708 1.366 . S
C1709 C1713 1.385 . S
C1710 H1691 0.951 . S
C1710 C1708 1.388 . S
C1710 C1711 1.366 . S
C1711 C1710 1.366 . S
C1711 C1712 1.414 . S
C1711 C1714 1.499 . S
C1712 H1692 0.950 . S
C1712 C1711 1.414 . S
C1712 C1713 1.374 . S
C1713 H1693 0.950 . S
C1713 C1709 1.385 . S
C1713 C1712 1.374 . S
C1714 C1711 1.499 . S
C1714 C1715 1.373 . S
C1714 C1716 1.389 . S
C1715 H1694 0.950 . S
C1715 C1714 1.373 . S
C1715 C1731 1.377 . S
C1716 C1714 1.389 . S
C1716 C1717 1.524 . S
C1716 C1730 1.377 . S
C1717 C1716 1.524 . S
C1717 C1718 1.397 . S
C1717 C1722 1.363 . S
C1718 H1695 0.950 . S
C1718 C1717 1.397 . S
C1718 C1719 1.334 . S
C1719 H1696 0.950 . S
C1719 C1718 1.334 . S
C1719 C1720 1.287 . S
C1720 C1719 1.287 . S
C1720 C1721 1.524 . S
C1720 H1739 0.913 . S
C1721 H1697 0.950 . S
C1721 C1720 1.524 . S
C1721 C1722 1.415 . S
C1722 H1698 0.950 . S
C1722 C1717 1.363 . S
C1722 C1721 1.415 . S
C1723 H1699 0.951 . S
C1723 C1724 1.366 . S
C1723 C1725 1.388 . S
C1724 C1723 1.366 . S
C1724 C1728 1.385 . S
C1725 H1700 0.951 . S
C1725 C1723 1.388 . S
C1725 C1726 1.366 . S
C1726 C1725 1.366 . S
C1726 C1727 1.414 . S
C1726 C1729 1.499 . S
C1727 H1701 0.950 . S
C1727 C1726 1.414 . S
C1727 C1728 1.374 . S
C1728 H1702 0.950 . S
C1728 C1724 1.385 . S
C1728 C1727 1.374 . S
C1729 C1726 1.499 . S
C1729 C1730 1.373 . S
C1729 C1731 1.389 . S
C1730 H1703 0.950 . S
C1730 C1716 1.377 . S
C1730 C1729 1.373 . S
C1731 C1715 1.377 . S
C1731 C1729 1.389 . S
C1731 C1732 1.524 . S
C1732 C1731 1.524 . S
C1732 C1733 1.397 . S
C1732 C1737 1.363 . S
C1733 H1704 0.950 . S
C1733 C1732 1.397 . S
C1733 C1734 1.334 . S
C1734 H1705 0.950 . S
C1734 C1733 1.334 . S
C1734 C1735 1.287 . S
C1735 C1734 1.287 . S
C1735 C1736 1.524 . S
C1735 H1738 0.999 . S
C1736 H1706 0.950 . S
C1736 C1735 1.524 . S
C1736 C1737 1.415 . S
C1737 H1707 0.950 . S
C1737 C1732 1.363 . S
C1737 C1736 1.415 . S
H1738 C1735 0.999 . S
H1739 C1720 0.913 . S
H1740 C1758 0.951 . S
H1741 C1760 0.951 . S
H1742 C1762 0.950 . S
H1743 C1763 0.950 . S
H1744 C1765 0.950 . S
H1745 C1768 0.950 . S
H1746 C1769 0.950 . S
H1747 C1771 0.950 . S
H1748 C1772 0.950 . S
H1749 C1773 0.951 . S
H1750 C1775 0.951 . S
H1751 C1777 0.950 . S
H1752 C1778 0.950 . S
H1753 C1780 0.950 . S
H1754 C1783 0.950 . S
H1755 C1784 0.950 . S
H1756 C1786 0.950 . S
H1757 C1787 0.950 . S
C1758 H1740 0.951 . S
C1758 C1759 1.366 . S
C1758 C1760 1.388 . S
C1759 C1758 1.366 . S
C1759 C1763 1.385 . S
C1760 H1741 0.951 . S
C1760 C1758 1.388 . S
C1760 C1761 1.366 . S
C1761 C1760 1.366 . S
C1761 C1762 1.414 . S
C1761 C1764 1.499 . S
C1762 H1742 0.950 . S
C1762 C1761 1.414 . S
C1762 C1763 1.374 . S
C1763 H1743 0.950 . S
C1763 C1759 1.385 . S
C1763 C1762 1.374 . S
C1764 C1761 1.499 . S
C1764 C1765 1.373 . S
C1764 C1766 1.389 . S
C1765 H1744 0.950 . S
C1765 C1764 1.373 . S
C1765 C1781 1.377 . S
C1766 C1764 1.389 . S
C1766 C1767 1.524 . S
C1766 C1780 1.377 . S
C1767 C1766 1.524 . S
C1767 C1768 1.397 . S
C1767 C1772 1.363 . S
C1768 H1745 0.950 . S
C1768 C1767 1.397 . S
C1768 C1769 1.334 . S
C1769 H1746 0.950 . S
C1769 C1768 1.334 . S
C1769 C1770 1.287 . S
C1770 C1769 1.287 . S
C1770 C1771 1.524 . S
C1770 H1789 0.913 . S
C1771 H1747 0.950 . S
C1771 C1770 1.524 . S
C1771 C1772 1.415 . S
C1772 H1748 0.950 . S
C1772 C1767 1.363 . S
C1772 C1771 1.415 . S
C1773 H1749 0.951 . S
C1773 C1774 1.366 . S
C1773 C1775 1.388 . S
C1774 C1773 1.366 . S
C1774 C1778 1.385 . S
C1775 H1750 0.951 . S
C1775 C1773 1.388 . S
C1775 C1776 1.366 . S
C1776 C1775 1.366 . S
C1776 C1777 1.414 . S
C1776 C1779 1.499 . S
C1777 H1751 0.950 . S
C1777 C1776 1.414 . S
C1777 C1778 1.374 . S
C1778 H1752 0.950 . S
C1778 C1774 1.385 . S
C1778 C1777 1.374 . S
C1779 C1776 1.499 . S
C1779 C1780 1.373 . S
C1779 C1781 1.389 . S
C1780 H1753 0.950 . S
C1780 C1766 1.377 . S
C1780 C1779 1.373 . S
C1781 C1765 1.377 . S
C1781 C1779 1.389 . S
C1781 C1782 1.524 . S
C1782 C1781 1.524 . S
C1782 C1783 1.397 . S
C1782 C1787 1.363 . S
C1783 H1754 0.950 . S
C1783 C1782 1.397 . S
C1783 C1784 1.334 . S
C1784 H1755 0.950 . S
C1784 C1783 1.334 . S
C1784 C1785 1.287 . S
C1785 C1784 1.287 . S
C1785 C1786 1.524 . S
C1785 H1788 0.999 . S
C1786 H1756 0.950 . S
C1786 C1785 1.524 . S
C1786 C1787 1.415 . S
C1787 H1757 0.950 . S
C1787 C1782 1.363 . S
C1787 C1786 1.415 . S
H1788 C1785 0.999 . S
H1789 C1770 0.913 . S
H1790 C1808 0.951 . S
H1791 C1810 0.951 . S
H1792 C1812 0.950 . S
H1793 C1813 0.950 . S
H1794 C1815 0.950 . S
H1795 C1818 0.950 . S
H1796 C1819 0.950 . S
H1797 C1821 0.950 . S
H1798 C1822 0.950 . S
H1799 C1823 0.951 . S
H1800 C1825 0.951 . S
H1801 C1827 0.950 . S
H1802 C1828 0.950 . S
H1803 C1830 0.950 1_655 S
H1804 C1833 0.950 1_655 S
H1805 C1834 0.950 1_655 S
H1806 C1836 0.950 . S
H1807 C1837 0.950 . S
C1808 H1790 0.951 . S
C1808 C1809 1.366 . S
C1808 C1810 1.388 . S
C1809 C1808 1.366 . S
C1809 C1813 1.385 . S
C1810 H1791 0.951 . S
C1810 C1808 1.388 . S
C1810 C1811 1.366 . S
C1811 C1810 1.366 . S
C1811 C1812 1.414 . S
C1811 C1814 1.499 . S
C1812 H1792 0.950 . S
C1812 C1811 1.414 . S
C1812 C1813 1.374 . S
C1813 H1793 0.950 . S
C1813 C1809 1.385 . S
C1813 C1812 1.374 . S
C1814 C1811 1.499 . S
C1814 C1815 1.373 . S
C1814 C1816 1.389 . S
C1815 H1794 0.950 . S
C1815 C1814 1.373 . S
C1815 C1831 1.377 . S
C1816 C1814 1.389 . S
C1816 C1817 1.524 . S
C1816 C1830 1.377 . S
C1817 C1816 1.524 . S
C1817 C1818 1.397 . S
C1817 C1822 1.363 . S
C1818 H1795 0.950 . S
C1818 C1817 1.397 . S
C1818 C1819 1.334 . S
C1819 H1796 0.950 . S
C1819 C1818 1.334 . S
C1819 C1820 1.287 . S
C1820 C1819 1.287 . S
C1820 C1821 1.524 . S
C1820 H1839 0.913 . S
C1821 H1797 0.950 . S
C1821 C1820 1.524 . S
C1821 C1822 1.415 . S
C1822 H1798 0.950 . S
C1822 C1817 1.363 . S
C1822 C1821 1.415 . S
C1823 H1799 0.951 . S
C1823 C1824 1.366 . S
C1823 C1825 1.388 . S
C1824 C1823 1.366 . S
C1824 C1828 1.385 . S
C1825 H1800 0.951 . S
C1825 C1823 1.388 . S
C1825 C1826 1.366 . S
C1826 C1825 1.366 . S
C1826 C1827 1.414 . S
C1826 C1829 1.499 1_655 S
C1827 H1801 0.950 . S
C1827 C1826 1.414 . S
C1827 C1828 1.374 . S
C1828 H1802 0.950 . S
C1828 C1824 1.385 . S
C1828 C1827 1.374 . S
C1829 C1826 1.499 1_455 S
C1829 C1830 1.373 . S
C1829 C1831 1.389 . S
C1830 H1803 0.950 1_455 S
C1830 C1816 1.377 . S
C1830 C1829 1.373 . S
C1831 C1815 1.377 . S
C1831 C1829 1.389 . S
C1831 C1832 1.524 . S
C1832 C1831 1.524 . S
C1832 C1833 1.397 . S
C1832 C1837 1.363 . S
C1833 H1804 0.950 1_455 S
C1833 C1832 1.397 . S
C1833 C1834 1.334 . S
C1834 H1805 0.950 1_455 S
C1834 C1833 1.334 . S
C1834 C1835 1.287 . S
C1835 C1834 1.287 . S
C1835 C1836 1.524 . S
C1835 H1838 0.999 . S
C1836 H1806 0.950 . S
C1836 C1835 1.524 . S
C1836 C1837 1.415 . S
C1837 H1807 0.950 . S
C1837 C1832 1.363 . S
C1837 C1836 1.415 . S
H1838 C1835 0.999 . S
H1839 C1820 0.913 . S
H1840 C1858 0.951 1_655 S
H1841 C1860 0.951 1_655 S
H1842 C1862 0.950 . S
H1843 C1863 0.950 . S
H1844 C1865 0.950 . S
H1845 C1868 0.932 1_455 S
H1846 C1869 0.950 . S
H1847 C1871 0.950 . S
H1848 C1872 0.950 . S
H1849 C1873 0.951 . S
H1850 C1875 0.951 . S
H1851 C1877 0.910 1_655 S
H1852 C1878 0.935 1_655 S
H1853 C1880 0.950 1_655 S
H1854 C1883 0.950 . S
H1855 C1884 0.950 . S
H1856 C1886 0.950 . S
H1857 C1887 0.950 . S
C1858 H1840 0.951 1_455 S
C1858 C1859 1.366 . S
C1858 C1860 1.388 . S
C1859 C1858 1.366 . S
C1859 C1863 1.385 . S
C1860 H1841 0.951 1_455 S
C1860 C1858 1.388 . S
C1860 C1861 1.366 . S
C1861 C1860 1.366 . S
C1861 C1862 1.414 . S
C1861 C1864 1.499 . S
C1862 H1842 0.950 . S
C1862 C1861 1.414 . S
C1862 C1863 1.374 . S
C1863 H1843 0.950 . S
C1863 C1859 1.385 . S
C1863 C1862 1.374 . S
C1864 C1861 1.499 . S
C1864 C1865 1.373 . S
C1864 C1866 1.376 1_545 S
C1865 H1844 0.950 . S
C1865 C1864 1.373 . S
C1865 C1881 1.392 1_554 S
C1866 C1864 1.376 1_565 S
C1866 C1867 1.525 1_455 S
C1866 C1880 1.392 1_554 S
C1867 C1866 1.525 1_655 S
C1867 C1868 1.397 . S
C1867 C1872 1.363 . S
C1868 H1845 0.932 1_655 S
C1868 C1867 1.397 . S
C1868 C1869 1.334 . S
C1869 H1846 0.950 . S
C1869 C1868 1.334 . S
C1869 C1870 1.287 . S
C1870 C1869 1.287 . S
C1870 C1871 1.524 . S
C1870 H1889 0.913 . S
C1871 H1847 0.950 . S
C1871 C1870 1.524 . S
C1871 C1872 1.415 . S
C1872 H1848 0.950 . S
C1872 C1867 1.363 . S
C1872 C1871 1.415 . S
C1873 H1849 0.951 . S
C1873 C1874 1.366 . S
C1873 C1875 1.388 . S
C1874 C1873 1.366 . S
C1874 C1878 1.399 . S
C1875 H1850 0.951 . S
C1875 C1873 1.388 . S
C1875 C1876 1.366 . S
C1876 C1875 1.366 . S
C1876 C1877 1.456 . S
C1876 C1879 1.499 . S
C1877 H1851 0.910 1_455 S
C1877 C1876 1.456 . S
C1877 C1878 1.373 . S
C1878 H1852 0.935 1_455 S
C1878 C1874 1.399 . S
C1878 C1877 1.373 . S
C1879 C1876 1.499 . S
C1879 C1880 1.373 . S
C1879 C1881 1.376 1_565 S
C1880 H1853 0.950 1_455 S
C1880 C1866 1.392 1_556 S
C1880 C1879 1.373 . S
C1881 C1865 1.392 1_556 S
C1881 C1879 1.376 1_545 S
C1881 C1882 1.525 . S
C1882 C1881 1.525 . S
C1882 C1883 1.397 . S
C1882 C1887 1.363 . S
C1883 H1854 0.950 . S
C1883 C1882 1.397 . S
C1883 C1884 1.334 . S
C1884 H1855 0.950 . S
C1884 C1883 1.334 . S
C1884 C1885 1.287 . S
C1885 C1884 1.287 . S
C1885 C1886 1.524 . S
C1885 H1888 0.999 . S
C1886 H1856 0.950 . S
C1886 C1885 1.524 . S
C1886 C1887 1.415 . S
C1887 H1857 0.950 . S
C1887 C1882 1.363 . S
C1887 C1886 1.415 . S
H1888 C1885 0.999 . S
H1889 C1870 0.913 . S
H1890 C1908 0.951 . S
H1891 C1910 0.951 . S
H1892 C1912 0.950 . S
H1893 C1913 0.950 . S
H1894 C1915 0.950 . S
H1895 C1918 0.950 . S
H1896 C1919 0.950 . S
H1897 C1921 0.950 . S
H1898 C1922 0.950 . S
H1899 C1923 0.951 . S
H1900 C1925 0.951 . S
H1901 C1927 0.950 . S
H1902 C1928 0.950 . S
H1903 C1930 0.950 . S
H1904 C1933 0.950 . S
H1905 C1934 0.950 . S
H1906 C1936 0.950 . S
H1907 C1937 0.950 . S
C1908 H1890 0.951 . S
C1908 C1909 1.366 . S
C1908 C1910 1.388 . S
C1909 C1908 1.366 . S
C1909 C1913 1.385 . S
C1910 H1891 0.951 . S
C1910 C1908 1.388 . S
C1910 C1911 1.366 . S
C1911 C1910 1.366 . S
C1911 C1912 1.414 . S
C1911 C1914 1.499 . S
C1912 H1892 0.950 . S
C1912 C1911 1.414 . S
C1912 C1913 1.374 . S
C1913 H1893 0.950 . S
C1913 C1909 1.385 . S
C1913 C1912 1.374 . S
C1914 C1911 1.499 . S
C1914 C1915 1.373 . S
C1914 C1916 1.389 . S
C1915 H1894 0.950 . S
C1915 C1914 1.373 . S
C1915 C1931 1.377 . S
C1916 C1914 1.389 . S
C1916 C1917 1.524 . S
C1916 C1930 1.377 . S
C1917 C1916 1.524 . S
C1917 C1918 1.397 . S
C1917 C1922 1.363 . S
C1918 H1895 0.950 . S
C1918 C1917 1.397 . S
C1918 C1919 1.334 . S
C1919 H1896 0.950 . S
C1919 C1918 1.334 . S
C1919 C1920 1.287 . S
C1920 C1919 1.287 . S
C1920 C1921 1.524 . S
C1920 H1939 0.913 . S
C1921 H1897 0.950 . S
C1921 C1920 1.524 . S
C1921 C1922 1.415 . S
C1922 H1898 0.950 . S
C1922 C1917 1.363 . S
C1922 C1921 1.415 . S
C1923 H1899 0.951 . S
C1923 C1924 1.366 . S
C1923 C1925 1.388 . S
C1924 C1923 1.366 . S
C1924 C1928 1.385 . S
C1925 H1900 0.951 . S
C1925 C1923 1.388 . S
C1925 C1926 1.366 . S
C1926 C1925 1.366 . S
C1926 C1927 1.414 . S
C1926 C1929 1.499 . S
C1927 H1901 0.950 . S
C1927 C1926 1.414 . S
C1927 C1928 1.374 . S
C1928 H1902 0.950 . S
C1928 C1924 1.385 . S
C1928 C1927 1.374 . S
C1929 C1926 1.499 . S
C1929 C1930 1.373 . S
C1929 C1931 1.389 . S
C1930 H1903 0.950 . S
C1930 C1916 1.377 . S
C1930 C1929 1.373 . S
C1931 C1915 1.377 . S
C1931 C1929 1.389 . S
C1931 C1932 1.524 . S
C1932 C1931 1.524 . S
C1932 C1933 1.397 . S
C1932 C1937 1.363 . S
C1933 H1904 0.950 . S
C1933 C1932 1.397 . S
C1933 C1934 1.334 . S
C1934 H1905 0.950 . S
C1934 C1933 1.334 . S
C1934 C1935 1.287 . S
C1935 C1934 1.287 . S
C1935 C1936 1.524 . S
C1935 H1938 0.999 . S
C1936 H1906 0.950 . S
C1936 C1935 1.524 . S
C1936 C1937 1.415 . S
C1937 H1907 0.950 . S
C1937 C1932 1.363 . S
C1937 C1936 1.415 . S
H1938 C1935 0.999 . S
H1939 C1920 0.913 . S
H1940 C1958 0.951 . S
H1941 C1960 0.951 . S
H1942 C1962 0.950 . S
H1943 C1963 0.950 . S
H1944 C1965 0.950 . S
H1945 C1968 0.950 . S
H1946 C1969 0.950 . S
H1947 C1971 0.950 . S
H1948 C1972 0.950 . S
H1949 C1973 0.951 . S
H1950 C1975 0.951 . S
H1951 C1977 0.950 . S
H1952 C1978 0.950 . S
H1953 C1980 0.950 . S
H1954 C1983 0.950 . S
H1955 C1984 0.950 . S
H1956 C1986 0.950 . S
H1957 C1987 0.950 . S
C1958 H1940 0.951 . S
C1958 C1959 1.366 . S
C1958 C1960 1.388 . S
C1959 C1958 1.366 . S
C1959 C1963 1.385 . S
C1960 H1941 0.951 . S
C1960 C1958 1.388 . S
C1960 C1961 1.366 . S
C1961 C1960 1.366 . S
C1961 C1962 1.414 . S
C1961 C1964 1.499 . S
C1962 H1942 0.950 . S
C1962 C1961 1.414 . S
C1962 C1963 1.374 . S
C1963 H1943 0.950 . S
C1963 C1959 1.385 . S
C1963 C1962 1.374 . S
C1964 C1961 1.499 . S
C1964 C1965 1.373 1_545 S
C1964 C1966 1.389 . S
C1965 H1944 0.950 . S
C1965 C1964 1.373 1_565 S
C1965 C1981 1.377 . S
C1966 C1964 1.389 . S
C1966 C1967 1.524 . S
C1966 C1980 1.377 . S
C1967 C1966 1.524 . S
C1967 C1968 1.397 . S
C1967 C1972 1.363 . S
C1968 H1945 0.950 . S
C1968 C1967 1.397 . S
C1968 C1969 1.334 . S
C1969 H1946 0.950 . S
C1969 C1968 1.334 . S
C1969 C1970 1.287 . S
C1970 C1969 1.287 . S
C1970 C1971 1.524 . S
C1970 H1989 0.913 . S
C1971 H1947 0.950 . S
C1971 C1970 1.524 . S
C1971 C1972 1.415 . S
C1972 H1948 0.950 . S
C1972 C1967 1.363 . S
C1972 C1971 1.415 . S
C1973 H1949 0.951 . S
C1973 C1974 1.366 . S
C1973 C1975 1.388 . S
C1974 C1973 1.366 . S
C1974 C1978 1.385 . S
C1975 H1950 0.951 . S
C1975 C1973 1.388 . S
C1975 C1976 1.366 . S
C1976 C1975 1.366 . S
C1976 C1977 1.414 . S
C1976 C1979 1.499 . S
C1977 H1951 0.950 . S
C1977 C1976 1.414 . S
C1977 C1978 1.374 . S
C1978 H1952 0.950 . S
C1978 C1974 1.385 . S
C1978 C1977 1.374 . S
C1979 C1976 1.499 . S
C1979 C1980 1.373 1_565 S
C1979 C1981 1.389 . S
C1980 H1953 0.950 . S
C1980 C1966 1.377 . S
C1980 C1979 1.373 1_545 S
C1981 C1965 1.377 . S
C1981 C1979 1.389 . S
C1981 C1982 1.524 . S
C1982 C1981 1.524 . S
C1982 C1983 1.397 . S
C1982 C1987 1.363 . S
C1983 H1954 0.950 . S
C1983 C1982 1.397 . S
C1983 C1984 1.334 . S
C1984 H1955 0.950 . S
C1984 C1983 1.334 . S
C1984 C1985 1.287 . S
C1985 C1984 1.287 . S
C1985 C1986 1.524 . S
C1985 H1988 0.999 . S
C1986 H1956 0.950 . S
C1986 C1985 1.524 . S
C1986 C1987 1.415 . S
C1987 H1957 0.950 . S
C1987 C1982 1.363 . S
C1987 C1986 1.415 . S
H1988 C1985 0.999 . S
H1989 C1970 0.913 . S
H1990 C2008 0.951 . S
H1991 C2010 0.951 . S
H1992 C2012 0.950 . S
H1993 C2013 0.950 . S
H1994 C2015 0.950 . S
H1995 C2018 0.950 . S
H1996 C2019 0.950 . S
H1997 C2021 0.950 . S
H1998 C2022 0.950 . S
H1999 C2023 0.951 . S
H2000 C2025 0.951 . S
H2001 C2027 0.950 . S
H2002 C2028 0.950 . S
H2003 C2030 0.950 . S
H2004 C2033 0.950 . S
H2005 C2034 0.950 . S
H2006 C2036 0.950 . S
H2007 C2037 0.950 . S
C2008 H1990 0.951 . S
C2008 C2009 1.366 . S
C2008 C2010 1.388 . S
C2009 C2008 1.366 . S
C2009 C2013 1.385 . S
C2010 H1991 0.951 . S
C2010 C2008 1.388 . S
C2010 C2011 1.366 . S
C2011 C2010 1.366 . S
C2011 C2012 1.414 . S
C2011 C2014 1.499 . S
C2012 H1992 0.950 . S
C2012 C2011 1.414 . S
C2012 C2013 1.374 . S
C2013 H1993 0.950 . S
C2013 C2009 1.385 . S
C2013 C2012 1.374 . S
C2014 C2011 1.499 . S
C2014 C2015 1.373 . S
C2014 C2016 1.389 . S
C2015 H1994 0.950 . S
C2015 C2014 1.373 . S
C2015 C2031 1.377 . S
C2016 C2014 1.389 . S
C2016 C2017 1.524 . S
C2016 C2030 1.377 . S
C2017 C2016 1.524 . S
C2017 C2018 1.397 . S
C2017 C2022 1.363 . S
C2018 H1995 0.950 . S
C2018 C2017 1.397 . S
C2018 C2019 1.334 . S
C2019 H1996 0.950 . S
C2019 C2018 1.334 . S
C2019 C2020 1.287 . S
C2020 C2019 1.287 . S
C2020 C2021 1.524 . S
C2020 H2039 0.913 . S
C2021 H1997 0.950 . S
C2021 C2020 1.524 . S
C2021 C2022 1.415 . S
C2022 H1998 0.950 . S
C2022 C2017 1.363 . S
C2022 C2021 1.415 . S
C2023 H1999 0.951 . S
C2023 C2024 1.366 . S
C2023 C2025 1.388 . S
C2024 C2023 1.366 . S
C2024 C2028 1.385 . S
C2025 H2000 0.951 . S
C2025 C2023 1.388 . S
C2025 C2026 1.366 . S
C2026 C2025 1.366 . S
C2026 C2027 1.414 . S
C2026 C2029 1.499 . S
C2027 H2001 0.950 . S
C2027 C2026 1.414 . S
C2027 C2028 1.374 . S
C2028 H2002 0.950 . S
C2028 C2024 1.385 . S
C2028 C2027 1.374 . S
C2029 C2026 1.499 . S
C2029 C2030 1.373 . S
C2029 C2031 1.389 . S
C2030 H2003 0.950 . S
C2030 C2016 1.377 . S
C2030 C2029 1.373 . S
C2031 C2015 1.377 . S
C2031 C2029 1.389 . S
C2031 C2032 1.524 . S
C2032 C2031 1.524 . S
C2032 C2033 1.397 . S
C2032 C2037 1.363 . S
C2033 H2004 0.950 . S
C2033 C2032 1.397 . S
C2033 C2034 1.334 . S
C2034 H2005 0.950 . S
C2034 C2033 1.334 . S
C2034 C2035 1.287 . S
C2035 C2034 1.287 . S
C2035 C2036 1.524 . S
C2035 H2038 0.999 . S
C2036 H2006 0.950 . S
C2036 C2035 1.524 . S
C2036 C2037 1.415 . S
C2037 H2007 0.950 . S
C2037 C2032 1.363 . S
C2037 C2036 1.415 . S
H2038 C2035 0.999 . S
H2039 C2020 0.913 . S
H2040 C2058 0.951 . S
H2041 C2060 0.951 . S
H2042 C2062 0.950 . S
H2043 C2063 0.950 . S
H2044 C2065 0.950 . S
H2045 C2068 0.950 . S
H2046 C2069 0.950 . S
H2047 C2071 0.950 . S
H2048 C2072 0.950 . S
H2049 C2073 0.951 . S
H2050 C2075 0.951 . S
H2051 C2077 0.950 . S
H2052 C2078 0.950 . S
H2053 C2080 0.950 . S
H2054 C2083 0.950 . S
H2055 C2084 0.950 . S
H2056 C2086 0.950 . S
H2057 C2087 0.950 . S
C2058 H2040 0.951 . S
C2058 C2059 1.366 . S
C2058 C2060 1.388 . S
C2059 C2058 1.366 . S
C2059 C2063 1.385 . S
C2060 H2041 0.951 . S
C2060 C2058 1.388 . S
C2060 C2061 1.366 . S
C2061 C2060 1.366 . S
C2061 C2062 1.414 . S
C2061 C2064 1.499 . S
C2062 H2042 0.950 . S
C2062 C2061 1.414 . S
C2062 C2063 1.374 . S
C2063 H2043 0.950 . S
C2063 C2059 1.385 . S
C2063 C2062 1.374 . S
C2064 C2061 1.499 . S
C2064 C2065 1.373 . S
C2064 C2066 1.389 . S
C2065 H2044 0.950 . S
C2065 C2064 1.373 . S
C2065 C2081 1.377 . S
C2066 C2064 1.389 . S
C2066 C2067 1.524 . S
C2066 C2080 1.377 . S
C2067 C2066 1.524 . S
C2067 C2068 1.397 . S
C2067 C2072 1.363 . S
C2068 H2045 0.950 . S
C2068 C2067 1.397 . S
C2068 C2069 1.334 . S
C2069 H2046 0.950 . S
C2069 C2068 1.334 . S
C2069 C2070 1.287 . S
C2070 C2069 1.287 . S
C2070 C2071 1.524 . S
C2070 H2089 0.913 . S
C2071 H2047 0.950 . S
C2071 C2070 1.524 . S
C2071 C2072 1.415 . S
C2072 H2048 0.950 . S
C2072 C2067 1.363 . S
C2072 C2071 1.415 . S
C2073 H2049 0.951 . S
C2073 C2074 1.366 . S
C2073 C2075 1.388 . S
C2074 C2073 1.366 . S
C2074 C2078 1.385 . S
C2075 H2050 0.951 . S
C2075 C2073 1.388 . S
C2075 C2076 1.366 . S
C2076 C2075 1.366 . S
C2076 C2077 1.414 . S
C2076 C2079 1.499 . S
C2077 H2051 0.950 . S
C2077 C2076 1.414 . S
C2077 C2078 1.374 . S
C2078 H2052 0.950 . S
C2078 C2074 1.385 . S
C2078 C2077 1.374 . S
C2079 C2076 1.499 . S
C2079 C2080 1.373 . S
C2079 C2081 1.389 . S
C2080 H2053 0.950 . S
C2080 C2066 1.377 . S
C2080 C2079 1.373 . S
C2081 C2065 1.377 . S
C2081 C2079 1.389 . S
C2081 C2082 1.524 . S
C2082 C2081 1.524 . S
C2082 C2083 1.397 . S
C2082 C2087 1.363 . S
C2083 H2054 0.950 . S
C2083 C2082 1.397 . S
C2083 C2084 1.334 . S
C2084 H2055 0.950 . S
C2084 C2083 1.334 . S
C2084 C2085 1.287 . S
C2085 C2084 1.287 . S
C2085 C2086 1.524 . S
C2085 H2088 0.999 . S
C2086 H2056 0.950 . S
C2086 C2085 1.524 . S
C2086 C2087 1.415 . S
C2087 H2057 0.950 . S
C2087 C2082 1.363 . S
C2087 C2086 1.415 . S
H2088 C2085 0.999 . S
H2089 C2070 0.913 . S
H2090 C2108 0.951 . S
H2091 C2110 0.951 . S
H2092 C2112 0.950 . S
H2093 C2113 0.950 . S
H2094 C2115 0.950 . S
H2095 C2118 0.950 . S
H2096 C2119 0.950 . S
H2097 C2121 0.950 . S
H2098 C2122 0.950 . S
H2099 C2123 0.951 . S
H2100 C2125 0.951 . S
H2101 C2127 0.950 . S
H2102 C2128 0.950 . S
H2103 C2130 0.950 . S
H2104 C2133 0.950 . S
H2105 C2134 0.950 . S
H2106 C2136 0.950 . S
H2107 C2137 0.950 . S
C2108 H2090 0.951 . S
C2108 C2109 1.366 . S
C2108 C2110 1.388 . S
C2109 C2108 1.366 . S
C2109 C2113 1.385 . S
C2110 H2091 0.951 . S
C2110 C2108 1.388 . S
C2110 C2111 1.366 . S
C2111 C2110 1.366 . S
C2111 C2112 1.414 . S
C2111 C2114 1.499 . S
C2112 H2092 0.950 . S
C2112 C2111 1.414 . S
C2112 C2113 1.374 . S
C2113 H2093 0.950 . S
C2113 C2109 1.385 . S
C2113 C2112 1.374 . S
C2114 C2111 1.499 . S
C2114 C2115 1.373 . S
C2114 C2116 1.389 . S
C2115 H2094 0.950 . S
C2115 C2114 1.373 . S
C2115 C2131 1.377 . S
C2116 C2114 1.389 . S
C2116 C2117 1.524 . S
C2116 C2130 1.377 . S
C2117 C2116 1.524 . S
C2117 C2118 1.397 . S
C2117 C2122 1.363 . S
C2118 H2095 0.950 . S
C2118 C2117 1.397 . S
C2118 C2119 1.334 . S
C2119 H2096 0.950 . S
C2119 C2118 1.334 . S
C2119 C2120 1.287 . S
C2120 C2119 1.287 . S
C2120 C2121 1.524 . S
C2120 H2139 0.913 . S
C2121 H2097 0.950 . S
C2121 C2120 1.524 . S
C2121 C2122 1.415 . S
C2122 H2098 0.950 . S
C2122 C2117 1.363 . S
C2122 C2121 1.415 . S
C2123 H2099 0.951 . S
C2123 C2124 1.366 . S
C2123 C2125 1.388 . S
C2124 C2123 1.366 . S
C2124 C2128 1.385 . S
C2125 H2100 0.951 . S
C2125 C2123 1.388 . S
C2125 C2126 1.366 . S
C2126 C2125 1.366 . S
C2126 C2127 1.414 . S
C2126 C2129 1.499 . S
C2127 H2101 0.950 . S
C2127 C2126 1.414 . S
C2127 C2128 1.374 . S
C2128 H2102 0.950 . S
C2128 C2124 1.385 . S
C2128 C2127 1.374 . S
C2129 C2126 1.499 . S
C2129 C2130 1.373 . S
C2129 C2131 1.389 . S
C2130 H2103 0.950 . S
C2130 C2116 1.377 . S
C2130 C2129 1.373 . S
C2131 C2115 1.377 . S
C2131 C2129 1.389 . S
C2131 C2132 1.524 . S
C2132 C2131 1.524 . S
C2132 C2133 1.397 . S
C2132 C2137 1.363 . S
C2133 H2104 0.950 . S
C2133 C2132 1.397 . S
C2133 C2134 1.334 . S
C2134 H2105 0.950 . S
C2134 C2133 1.334 . S
C2134 C2135 1.287 . S
C2135 C2134 1.287 . S
C2135 C2136 1.524 . S
C2135 H2138 0.999 . S
C2136 H2106 0.950 . S
C2136 C2135 1.524 . S
C2136 C2137 1.415 . S
C2137 H2107 0.950 . S
C2137 C2132 1.363 . S
C2137 C2136 1.415 . S
H2138 C2135 0.999 . S
H2139 C2120 0.913 . S
H2140 C2158 0.951 . S
H2141 C2160 0.951 . S
H2142 C2162 0.950 . S
H2143 C2163 0.950 . S
H2144 C2165 0.950 . S
H2145 C2168 0.950 . S
H2146 C2169 0.950 . S
H2147 C2171 0.950 . S
H2148 C2172 0.950 . S
H2149 C2173 0.951 . S
H2150 C2175 0.951 . S
H2151 C2177 0.950 . S
H2152 C2178 0.950 . S
H2153 C2180 0.950 . S
H2154 C2183 0.950 . S
H2155 C2184 0.950 . S
H2156 C2186 0.950 . S
H2157 C2187 0.950 . S
C2158 H2140 0.951 . S
C2158 C2159 1.366 . S
C2158 C2160 1.388 . S
C2159 C2158 1.366 . S
C2159 C2163 1.385 . S
C2160 H2141 0.951 . S
C2160 C2158 1.388 . S
C2160 C2161 1.366 . S
C2161 C2160 1.366 . S
C2161 C2162 1.414 . S
C2161 C2164 1.499 . S
C2162 H2142 0.950 . S
C2162 C2161 1.414 . S
C2162 C2163 1.374 . S
C2163 H2143 0.950 . S
C2163 C2159 1.385 . S
C2163 C2162 1.374 . S
C2164 C2161 1.499 . S
C2164 C2165 1.373 . S
C2164 C2166 1.389 . S
C2165 H2144 0.950 . S
C2165 C2164 1.373 . S
C2165 C2181 1.377 . S
C2166 C2164 1.389 . S
C2166 C2167 1.524 . S
C2166 C2180 1.377 . S
C2167 C2166 1.524 . S
C2167 C2168 1.397 . S
C2167 C2172 1.363 . S
C2168 H2145 0.950 . S
C2168 C2167 1.397 . S
C2168 C2169 1.334 . S
C2169 H2146 0.950 . S
C2169 C2168 1.334 . S
C2169 C2170 1.287 . S
C2170 C2169 1.287 . S
C2170 C2171 1.524 . S
C2170 H2189 0.913 . S
C2171 H2147 0.950 . S
C2171 C2170 1.524 . S
C2171 C2172 1.415 . S
C2172 H2148 0.950 . S
C2172 C2167 1.363 . S
C2172 C2171 1.415 . S
C2173 H2149 0.951 . S
C2173 C2174 1.366 . S
C2173 C2175 1.388 . S
C2174 C2173 1.366 . S
C2174 C2178 1.385 . S
C2175 H2150 0.951 . S
C2175 C2173 1.388 . S
C2175 C2176 1.366 . S
C2176 C2175 1.366 . S
C2176 C2177 1.414 . S
C2176 C2179 1.499 . S
C2177 H2151 0.950 . S
C2177 C2176 1.414 . S
C2177 C2178 1.374 . S
C2178 H2152 0.950 . S
C2178 C2174 1.385 . S
C2178 C2177 1.374 . S
C2179 C2176 1.499 . S
C2179 C2180 1.373 . S
C2179 C2181 1.389 . S
C2180 H2153 0.950 . S
C2180 C2166 1.377 . S
C2180 C2179 1.373 . S
C2181 C2165 1.377 . S
C2181 C2179 1.389 . S
C2181 C2182 1.524 . S
C2182 C2181 1.524 . S
C2182 C2183 1.397 . S
C2182 C2187 1.363 . S
C2183 H2154 0.950 . S
C2183 C2182 1.397 . S
C2183 C2184 1.334 . S
C2184 H2155 0.950 . S
C2184 C2183 1.334 . S
C2184 C2185 1.287 . S
C2185 C2184 1.287 . S
C2185 C2186 1.524 . S
C2185 H2188 0.999 . S
C2186 H2156 0.950 . S
C2186 C2185 1.524 . S
C2186 C2187 1.415 . S
C2187 H2157 0.950 . S
C2187 C2182 1.363 . S
C2187 C2186 1.415 . S
H2188 C2185 0.999 . S
H2189 C2170 0.913 . S
H2190 C2208 0.951 . S
H2191 C2210 0.938 1_655 S
H2192 C2212 0.950 . S
H2193 C2213 0.950 . S
H2194 C2215 0.950 . S
H2195 C2218 0.950 . S
H2196 C2219 0.950 1_556 S
H2197 C2221 0.950 . S
H2198 C2222 0.950 . S
H2199 C2223 0.951 . S
H2200 C2225 0.951 . S
H2201 C2227 0.950 . S
H2202 C2228 0.950 . S
H2203 C2230 0.950 . S
H2204 C2233 0.950 . S
H2205 C2234 0.950 1_554 S
H2206 C2236 0.950 . S
H2207 C2237 0.950 . S
C2208 H2190 0.951 . S
C2208 C2209 1.366 1_655 S
C2208 C2210 1.377 1_655 S
C2209 C2208 1.366 1_455 S
C2209 C2213 1.385 . S
C2210 H2191 0.938 1_455 S
C2210 C2208 1.377 1_455 S
C2210 C2211 1.390 . S
C2211 C2210 1.390 . S
C2211 C2212 1.414 . S
C2211 C2214 1.499 . S
C2212 H2192 0.950 . S
C2212 C2211 1.414 . S
C2212 C2213 1.374 . S
C2213 H2193 0.950 . S
C2213 C2209 1.385 . S
C2213 C2212 1.374 . S
C2214 C2211 1.499 . S
C2214 C2215 1.373 . S
C2214 C2216 1.389 1_556 S
C2215 H2194 0.950 . S
C2215 C2214 1.373 . S
C2215 C2231 1.377 . S
C2216 C2214 1.389 1_554 S
C2216 C2217 1.524 . S
C2216 C2230 1.377 . S
C2217 C2216 1.524 . S
C2217 C2218 1.397 1_554 S
C2217 C2222 1.363 . S
C2218 H2195 0.950 . S
C2218 C2217 1.397 1_556 S
C2218 C2219 1.334 1_556 S
C2219 H2196 0.950 1_554 S
C2219 C2218 1.334 1_554 S
C2219 C2220 1.287 . S
C2220 C2219 1.287 . S
C2220 C2221 1.524 . S
C2220 H2239 0.913 . S
C2221 H2197 0.950 . S
C2221 C2220 1.524 . S
C2221 C2222 1.415 . S
C2222 H2198 0.950 . S
C2222 C2217 1.363 . S
C2222 C2221 1.415 . S
C2223 H2199 0.951 . S
C2223 C2224 1.366 . S
C2223 C2225 1.388 . S
C2224 C2223 1.366 . S
C2224 C2228 1.385 . S
C2225 H2200 0.951 . S
C2225 C2223 1.388 . S
C2225 C2226 1.366 . S
C2226 C2225 1.366 . S
C2226 C2227 1.414 . S
C2226 C2229 1.499 . S
C2227 H2201 0.950 . S
C2227 C2226 1.414 . S
C2227 C2228 1.374 . S
C2228 H2202 0.950 . S
C2228 C2224 1.385 . S
C2228 C2227 1.374 . S
C2229 C2226 1.499 . S
C2229 C2230 1.373 . S
C2229 C2231 1.389 1_554 S
C2230 H2203 0.950 . S
C2230 C2216 1.377 . S
C2230 C2229 1.373 . S
C2231 C2215 1.377 . S
C2231 C2229 1.389 1_556 S
C2231 C2232 1.524 . S
C2232 C2231 1.524 . S
C2232 C2233 1.397 1_456 S
C2232 C2237 1.363 . S
C2233 H2204 0.950 . S
C2233 C2232 1.397 1_654 S
C2233 C2234 1.334 1_554 S
C2234 H2205 0.950 1_556 S
C2234 C2233 1.334 1_556 S
C2234 C2235 1.287 1_655 S
C2235 C2234 1.287 1_455 S
C2235 C2236 1.524 . S
C2235 H2238 1.002 . S
C2236 H2206 0.950 . S
C2236 C2235 1.524 . S
C2236 C2237 1.415 . S
C2237 H2207 0.950 . S
C2237 C2232 1.363 . S
C2237 C2236 1.415 . S
H2238 C2235 1.002 . S
H2239 C2220 0.913 . S
H2240 C2258 0.951 . S
H2241 C2260 0.951 . S
H2242 C2262 0.950 . S
H2243 C2263 0.950 . S
H2244 C2265 0.950 . S
H2245 C2268 0.950 . S
H2246 C2269 0.950 . S
H2247 C2271 0.950 . S
H2248 C2272 0.950 . S
H2249 C2273 0.951 . S
H2250 C2275 0.951 . S
H2251 C2277 0.950 . S
H2252 C2278 0.950 . S
H2253 C2280 0.950 . S
H2254 C2283 0.950 . S
H2255 C2284 0.950 . S
H2256 C2286 0.950 . S
H2257 C2287 0.950 . S
C2258 H2240 0.951 . S
C2258 C2259 1.366 . S
C2258 C2260 1.388 . S
C2259 C2258 1.366 . S
C2259 C2263 1.385 . S
C2260 H2241 0.951 . S
C2260 C2258 1.388 . S
C2260 C2261 1.366 . S
C2261 C2260 1.366 . S
C2261 C2262 1.414 . S
C2261 C2264 1.499 . S
C2262 H2242 0.950 . S
C2262 C2261 1.414 . S
C2262 C2263 1.374 . S
C2263 H2243 0.950 . S
C2263 C2259 1.385 . S
C2263 C2262 1.374 . S
C2264 C2261 1.499 . S
C2264 C2265 1.373 . S
C2264 C2266 1.389 . S
C2265 H2244 0.950 . S
C2265 C2264 1.373 . S
C2265 C2281 1.377 . S
C2266 C2264 1.389 . S
C2266 C2267 1.524 . S
C2266 C2280 1.377 . S
C2267 C2266 1.524 . S
C2267 C2268 1.397 . S
C2267 C2272 1.363 . S
C2268 H2245 0.950 . S
C2268 C2267 1.397 . S
C2268 C2269 1.334 . S
C2269 H2246 0.950 . S
C2269 C2268 1.334 . S
C2269 C2270 1.287 . S
C2270 C2269 1.287 . S
C2270 C2271 1.524 . S
C2270 H2289 0.913 . S
C2271 H2247 0.950 . S
C2271 C2270 1.524 . S
C2271 C2272 1.415 . S
C2272 H2248 0.950 . S
C2272 C2267 1.363 . S
C2272 C2271 1.415 . S
C2273 H2249 0.951 . S
C2273 C2274 1.366 . S
C2273 C2275 1.388 . S
C2274 C2273 1.366 . S
C2274 C2278 1.385 . S
C2275 H2250 0.951 . S
C2275 C2273 1.388 . S
C2275 C2276 1.366 . S
C2276 C2275 1.366 . S
C2276 C2277 1.414 . S
C2276 C2279 1.499 . S
C2277 H2251 0.950 . S
C2277 C2276 1.414 . S
C2277 C2278 1.374 . S
C2278 H2252 0.950 . S
C2278 C2274 1.385 . S
C2278 C2277 1.374 . S
C2279 C2276 1.499 . S
C2279 C2280 1.373 . S
C2279 C2281 1.389 . S
C2280 H2253 0.950 . S
C2280 C2266 1.377 . S
C2280 C2279 1.373 . S
C2281 C2265 1.377 . S
C2281 C2279 1.389 . S
C2281 C2282 1.524 . S
C2282 C2281 1.524 . S
C2282 C2283 1.397 . S
C2282 C2287 1.363 . S
C2283 H2254 0.950 . S
C2283 C2282 1.397 . S
C2283 C2284 1.334 . S
C2284 H2255 0.950 . S
C2284 C2283 1.334 . S
C2284 C2285 1.287 . S
C2285 C2284 1.287 . S
C2285 C2286 1.524 . S
C2285 H2288 0.999 . S
C2286 H2256 0.950 . S
C2286 C2285 1.524 . S
C2286 C2287 1.415 . S
C2287 H2257 0.950 . S
C2287 C2282 1.363 . S
C2287 C2286 1.415 . S
H2288 C2285 0.999 . S
H2289 C2270 0.913 . S
H2290 C2308 0.951 . S
H2291 C2310 0.951 . S
H2292 C2312 0.950 . S
H2293 C2313 0.950 . S
H2294 C2315 0.950 . S
H2295 C2318 0.950 . S
H2296 C2319 0.950 . S
H2297 C2321 0.950 . S
H2298 C2322 0.950 . S
H2299 C2323 0.951 . S
H2300 C2325 0.951 . S
H2301 C2327 0.950 . S
H2302 C2328 0.950 . S
H2303 C2330 0.950 . S
H2304 C2333 0.950 . S
H2305 C2334 0.950 . S
H2306 C2336 0.950 . S
H2307 C2337 0.950 . S
C2308 H2290 0.951 . S
C2308 C2309 1.366 . S
C2308 C2310 1.388 . S
C2309 C2308 1.366 . S
C2309 C2313 1.385 . S
C2310 H2291 0.951 . S
C2310 C2308 1.388 . S
C2310 C2311 1.366 . S
C2311 C2310 1.366 . S
C2311 C2312 1.414 . S
C2311 C2314 1.499 . S
C2312 H2292 0.950 . S
C2312 C2311 1.414 . S
C2312 C2313 1.374 . S
C2313 H2293 0.950 . S
C2313 C2309 1.385 . S
C2313 C2312 1.374 . S
C2314 C2311 1.499 . S
C2314 C2315 1.373 . S
C2314 C2316 1.389 . S
C2315 H2294 0.950 . S
C2315 C2314 1.373 . S
C2315 C2331 1.377 . S
C2316 C2314 1.389 . S
C2316 C2317 1.524 . S
C2316 C2330 1.377 . S
C2317 C2316 1.524 . S
C2317 C2318 1.397 . S
C2317 C2322 1.363 . S
C2318 H2295 0.950 . S
C2318 C2317 1.397 . S
C2318 C2319 1.334 . S
C2319 H2296 0.950 . S
C2319 C2318 1.334 . S
C2319 C2320 1.287 . S
C2320 C2319 1.287 . S
C2320 C2321 1.524 . S
C2320 H2339 0.913 . S
C2321 H2297 0.950 . S
C2321 C2320 1.524 . S
C2321 C2322 1.415 . S
C2322 H2298 0.950 . S
C2322 C2317 1.363 . S
C2322 C2321 1.415 . S
C2323 H2299 0.951 . S
C2323 C2324 1.366 . S
C2323 C2325 1.388 . S
C2324 C2323 1.366 . S
C2324 C2328 1.385 . S
C2325 H2300 0.951 . S
C2325 C2323 1.388 . S
C2325 C2326 1.366 . S
C2326 C2325 1.366 . S
C2326 C2327 1.414 . S
C2326 C2329 1.499 . S
C2327 H2301 0.950 . S
C2327 C2326 1.414 . S
C2327 C2328 1.374 . S
C2328 H2302 0.950 . S
C2328 C2324 1.385 . S
C2328 C2327 1.374 . S
C2329 C2326 1.499 . S
C2329 C2330 1.373 . S
C2329 C2331 1.389 . S
C2330 H2303 0.950 . S
C2330 C2316 1.377 . S
C2330 C2329 1.373 . S
C2331 C2315 1.377 . S
C2331 C2329 1.389 . S
C2331 C2332 1.524 . S
C2332 C2331 1.524 . S
C2332 C2333 1.397 . S
C2332 C2337 1.363 . S
C2333 H2304 0.950 . S
C2333 C2332 1.397 . S
C2333 C2334 1.334 . S
C2334 H2305 0.950 . S
C2334 C2333 1.334 . S
C2334 C2335 1.287 . S
C2335 C2334 1.287 . S
C2335 C2336 1.524 . S
C2335 H2338 0.999 . S
C2336 H2306 0.950 . S
C2336 C2335 1.524 . S
C2336 C2337 1.415 . S
C2337 H2307 0.950 . S
C2337 C2332 1.363 . S
C2337 C2336 1.415 . S
H2338 C2335 0.999 . S
H2339 C2320 0.913 . S
H2340 C2358 0.951 . S
H2341 C2360 0.951 . S
H2342 C2362 0.950 . S
H2343 C2363 0.950 . S
H2344 C2365 0.950 . S
H2345 C2368 0.950 . S
H2346 C2369 0.950 . S
H2347 C2371 0.950 . S
H2348 C2372 0.950 . S
H2349 C2373 0.951 . S
H2350 C2375 0.951 . S
H2351 C2377 0.950 . S
H2352 C2378 0.950 . S
H2353 C2380 0.950 . S
H2354 C2383 0.950 . S
H2355 C2384 0.950 . S
H2356 C2386 0.950 . S
H2357 C2387 0.950 . S
C2358 H2340 0.951 . S
C2358 C2359 1.366 . S
C2358 C2360 1.388 . S
C2359 C2358 1.366 . S
C2359 C2363 1.385 . S
C2360 H2341 0.951 . S
C2360 C2358 1.388 . S
C2360 C2361 1.366 . S
C2361 C2360 1.366 . S
C2361 C2362 1.414 . S
C2361 C2364 1.499 . S
C2362 H2342 0.950 . S
C2362 C2361 1.414 . S
C2362 C2363 1.374 . S
C2363 H2343 0.950 . S
C2363 C2359 1.385 . S
C2363 C2362 1.374 . S
C2364 C2361 1.499 . S
C2364 C2365 1.373 . S
C2364 C2366 1.389 . S
C2365 H2344 0.950 . S
C2365 C2364 1.373 . S
C2365 C2381 1.377 . S
C2366 C2364 1.389 . S
C2366 C2367 1.524 . S
C2366 C2380 1.377 . S
C2367 C2366 1.524 . S
C2367 C2368 1.397 . S
C2367 C2372 1.363 . S
C2368 H2345 0.950 . S
C2368 C2367 1.397 . S
C2368 C2369 1.334 . S
C2369 H2346 0.950 . S
C2369 C2368 1.334 . S
C2369 C2370 1.287 . S
C2370 C2369 1.287 . S
C2370 C2371 1.524 . S
C2370 H2389 0.913 . S
C2371 H2347 0.950 . S
C2371 C2370 1.524 . S
C2371 C2372 1.415 . S
C2372 H2348 0.950 . S
C2372 C2367 1.363 . S
C2372 C2371 1.415 . S
C2373 H2349 0.951 . S
C2373 C2374 1.366 . S
C2373 C2375 1.388 . S
C2374 C2373 1.366 . S
C2374 C2378 1.385 . S
C2375 H2350 0.951 . S
C2375 C2373 1.388 . S
C2375 C2376 1.366 . S
C2376 C2375 1.366 . S
C2376 C2377 1.414 . S
C2376 C2379 1.499 . S
C2377 H2351 0.950 . S
C2377 C2376 1.414 . S
C2377 C2378 1.374 . S
C2378 H2352 0.950 . S
C2378 C2374 1.385 . S
C2378 C2377 1.374 . S
C2379 C2376 1.499 . S
C2379 C2380 1.373 . S
C2379 C2381 1.389 . S
C2380 H2353 0.950 . S
C2380 C2366 1.377 . S
C2380 C2379 1.373 . S
C2381 C2365 1.377 . S
C2381 C2379 1.389 . S
C2381 C2382 1.524 . S
C2382 C2381 1.524 . S
C2382 C2383 1.397 . S
C2382 C2387 1.363 . S
C2383 H2354 0.950 . S
C2383 C2382 1.397 . S
C2383 C2384 1.334 . S
C2384 H2355 0.950 . S
C2384 C2383 1.334 . S
C2384 C2385 1.287 . S
C2385 C2384 1.287 . S
C2385 C2386 1.524 . S
C2385 H2388 0.999 . S
C2386 H2356 0.950 . S
C2386 C2385 1.524 . S
C2386 C2387 1.415 . S
C2387 H2357 0.950 . S
C2387 C2382 1.363 . S
C2387 C2386 1.415 . S
H2388 C2385 0.999 . S
H2389 C2370 0.913 . S
H2390 C2408 0.951 . S
H2391 C2410 0.951 . S
H2392 C2412 0.950 . S
H2393 C2413 0.950 . S
H2394 C2415 0.950 . S
H2395 C2418 0.950 . S
H2396 C2419 0.950 . S
H2397 C2421 0.950 . S
H2398 C2422 0.950 . S
H2399 C2423 0.951 . S
H2400 C2425 0.951 . S
H2401 C2427 0.950 . S
H2402 C2428 0.950 . S
H2403 C2430 0.950 . S
H2404 C2433 0.950 . S
H2405 C2434 0.950 . S
H2406 C2436 0.950 . S
H2407 C2437 0.950 . S
C2408 H2390 0.951 . S
C2408 C2409 1.366 . S
C2408 C2410 1.388 . S
C2409 C2408 1.366 . S
C2409 C2413 1.385 . S
C2410 H2391 0.951 . S
C2410 C2408 1.388 . S
C2410 C2411 1.366 . S
C2411 C2410 1.366 . S
C2411 C2412 1.414 . S
C2411 C2414 1.499 . S
C2412 H2392 0.950 . S
C2412 C2411 1.414 . S
C2412 C2413 1.374 . S
C2413 H2393 0.950 . S
C2413 C2409 1.385 . S
C2413 C2412 1.374 . S
C2414 C2411 1.499 . S
C2414 C2415 1.373 . S
C2414 C2416 1.389 . S
C2415 H2394 0.950 . S
C2415 C2414 1.373 . S
C2415 C2431 1.377 . S
C2416 C2414 1.389 . S
C2416 C2417 1.524 . S
C2416 C2430 1.377 . S
C2417 C2416 1.524 . S
C2417 C2418 1.397 . S
C2417 C2422 1.363 . S
C2418 H2395 0.950 . S
C2418 C2417 1.397 . S
C2418 C2419 1.334 . S
C2419 H2396 0.950 . S
C2419 C2418 1.334 . S
C2419 C2420 1.287 . S
C2420 C2419 1.287 . S
C2420 C2421 1.524 . S
C2420 H2439 0.913 . S
C2421 H2397 0.950 . S
C2421 C2420 1.524 . S
C2421 C2422 1.415 . S
C2422 H2398 0.950 . S
C2422 C2417 1.363 . S
C2422 C2421 1.415 . S
C2423 H2399 0.951 . S
C2423 C2424 1.366 . S
C2423 C2425 1.388 . S
C2424 C2423 1.366 . S
C2424 C2428 1.385 . S
C2425 H2400 0.951 . S
C2425 C2423 1.388 . S
C2425 C2426 1.366 . S
C2426 C2425 1.366 . S
C2426 C2427 1.414 . S
C2426 C2429 1.499 . S
C2427 H2401 0.950 . S
C2427 C2426 1.414 . S
C2427 C2428 1.374 . S
C2428 H2402 0.950 . S
C2428 C2424 1.385 . S
C2428 C2427 1.374 . S
C2429 C2426 1.499 . S
C2429 C2430 1.373 . S
C2429 C2431 1.389 . S
C2430 H2403 0.950 . S
C2430 C2416 1.377 . S
C2430 C2429 1.373 . S
C2431 C2415 1.377 . S
C2431 C2429 1.389 . S
C2431 C2432 1.524 . S
C2432 C2431 1.524 . S
C2432 C2433 1.397 . S
C2432 C2437 1.363 . S
C2433 H2404 0.950 . S
C2433 C2432 1.397 . S
C2433 C2434 1.334 . S
C2434 H2405 0.950 . S
C2434 C2433 1.334 . S
C2434 C2435 1.287 . S
C2435 C2434 1.287 . S
C2435 C2436 1.524 . S
C2435 H2438 0.999 1_554 S
C2436 H2406 0.950 . S
C2436 C2435 1.524 . S
C2436 C2437 1.415 . S
C2437 H2407 0.950 . S
C2437 C2432 1.363 . S
C2437 C2436 1.415 . S
H2438 C2435 0.999 1_556 S
H2439 C2420 0.913 . S
H2440 C2458 0.951 . S
H2441 C2460 0.951 . S
H2442 C2462 0.950 . S
H2443 C2463 0.950 . S
H2444 C2465 0.950 . S
H2445 C2468 0.950 . S
H2446 C2469 0.950 . S
H2447 C2471 0.950 . S
H2448 C2472 0.950 . S
H2449 C2473 0.951 . S
H2450 C2475 0.951 . S
H2451 C2477 0.950 . S
H2452 C2478 0.950 . S
H2453 C2480 0.950 . S
H2454 C2483 0.950 . S
H2455 C2484 0.950 . S
H2456 C2486 0.950 1_455 S
H2457 C2487 0.950 . S
C2458 H2440 0.951 . S
C2458 C2459 1.366 . S
C2458 C2460 1.388 . S
C2459 C2458 1.366 . S
C2459 C2463 1.385 . S
C2460 H2441 0.951 . S
C2460 C2458 1.388 . S
C2460 C2461 1.366 . S
C2461 C2460 1.366 . S
C2461 C2462 1.414 . S
C2461 C2464 1.499 . S
C2462 H2442 0.950 . S
C2462 C2461 1.414 . S
C2462 C2463 1.374 . S
C2463 H2443 0.950 . S
C2463 C2459 1.385 . S
C2463 C2462 1.374 . S
C2464 C2461 1.499 . S
C2464 C2465 1.373 . S
C2464 C2466 1.389 . S
C2465 H2444 0.950 . S
C2465 C2464 1.373 . S
C2465 C2481 1.377 . S
C2466 C2464 1.389 . S
C2466 C2467 1.524 . S
C2466 C2480 1.377 . S
C2467 C2466 1.524 . S
C2467 C2468 1.397 . S
C2467 C2472 1.363 . S
C2468 H2445 0.950 . S
C2468 C2467 1.397 . S
C2468 C2469 1.334 . S
C2469 H2446 0.950 . S
C2469 C2468 1.334 . S
C2469 C2470 1.287 . S
C2470 C2469 1.287 . S
C2470 C2471 1.524 . S
C2470 H2489 0.913 . S
C2471 H2447 0.950 . S
C2471 C2470 1.524 . S
C2471 C2472 1.415 . S
C2472 H2448 0.950 . S
C2472 C2467 1.363 . S
C2472 C2471 1.415 . S
C2473 H2449 0.951 . S
C2473 C2474 1.366 . S
C2473 C2475 1.388 . S
C2474 C2473 1.366 . S
C2474 C2478 1.385 . S
C2475 H2450 0.951 . S
C2475 C2473 1.388 . S
C2475 C2476 1.366 . S
C2476 C2475 1.366 . S
C2476 C2477 1.414 . S
C2476 C2479 1.499 . S
C2477 H2451 0.950 . S
C2477 C2476 1.414 . S
C2477 C2478 1.374 . S
C2478 H2452 0.950 . S
C2478 C2474 1.385 . S
C2478 C2477 1.374 . S
C2479 C2476 1.499 . S
C2479 C2480 1.373 . S
C2479 C2481 1.389 . S
C2480 H2453 0.950 . S
C2480 C2466 1.377 . S
C2480 C2479 1.373 . S
C2481 C2465 1.377 . S
C2481 C2479 1.389 . S
C2481 C2482 1.524 . S
C2482 C2481 1.524 . S
C2482 C2483 1.397 . S
C2482 C2487 1.363 . S
C2483 H2454 0.950 . S
C2483 C2482 1.397 . S
C2483 C2484 1.334 . S
C2484 H2455 0.950 . S
C2484 C2483 1.334 . S
C2484 C2485 1.287 . S
C2485 C2484 1.287 . S
C2485 C2486 1.524 . S
C2485 H2488 0.999 1_655 S
C2486 H2456 0.950 1_655 S
C2486 C2485 1.524 . S
C2486 C2487 1.415 . S
C2487 H2457 0.950 . S
C2487 C2482 1.363 . S
C2487 C2486 1.415 . S
H2488 C2485 0.999 1_455 S
H2489 C2470 0.913 . S
H2490 C2508 0.951 . S
H2491 C2510 0.951 . S
H2492 C2512 0.950 . S
H2493 C2513 0.950 . S
H2494 C2515 0.950 . S
H2495 C2518 0.950 . S
H2496 C2519 0.950 . S
H2497 C2521 0.950 . S
H2498 C2522 0.950 . S
H2499 C2523 0.951 . S
H2500 C2525 0.951 1_455 S
H2501 C2527 0.950 . S
H2502 C2528 0.950 . S
H2503 C2530 0.950 . S
H2504 C2533 0.950 . S
H2505 C2534 0.950 . S
H2506 C2536 0.950 . S
H2507 C2537 0.950 . S
C2508 H2490 0.951 . S
C2508 C2509 1.366 . S
C2508 C2510 1.388 . S
C2509 C2508 1.366 . S
C2509 C2513 1.385 . S
C2510 H2491 0.951 . S
C2510 C2508 1.388 . S
C2510 C2511 1.366 . S
C2511 C2510 1.366 . S
C2511 C2512 1.414 . S
C2511 C2514 1.499 . S
C2512 H2492 0.950 . S
C2512 C2511 1.414 . S
C2512 C2513 1.374 . S
C2513 H2493 0.950 . S
C2513 C2509 1.385 . S
C2513 C2512 1.374 . S
C2514 C2511 1.499 . S
C2514 C2515 1.373 . S
C2514 C2516 1.389 . S
C2515 H2494 0.950 . S
C2515 C2514 1.373 . S
C2515 C2531 1.377 . S
C2516 C2514 1.389 . S
C2516 C2517 1.524 . S
C2516 C2530 1.377 . S
C2517 C2516 1.524 . S
C2517 C2518 1.397 . S
C2517 C2522 1.363 . S
C2518 H2495 0.950 . S
C2518 C2517 1.397 . S
C2518 C2519 1.334 . S
C2519 H2496 0.950 . S
C2519 C2518 1.334 . S
C2519 C2520 1.287 . S
C2520 C2519 1.287 . S
C2520 C2521 1.524 . S
C2520 H2539 0.913 . S
C2521 H2497 0.950 . S
C2521 C2520 1.524 . S
C2521 C2522 1.415 . S
C2522 H2498 0.950 . S
C2522 C2517 1.363 . S
C2522 C2521 1.415 . S
C2523 H2499 0.951 . S
C2523 C2524 1.366 1_455 S
C2523 C2525 1.388 1_455 S
C2524 C2523 1.366 1_655 S
C2524 C2528 1.385 . S
C2525 H2500 0.951 1_655 S
C2525 C2523 1.388 1_655 S
C2525 C2526 1.366 . S
C2526 C2525 1.366 . S
C2526 C2527 1.414 . S
C2526 C2529 1.499 . S
C2527 H2501 0.950 . S
C2527 C2526 1.414 . S
C2527 C2528 1.374 . S
C2528 H2502 0.950 . S
C2528 C2524 1.385 . S
C2528 C2527 1.374 . S
C2529 C2526 1.499 . S
C2529 C2530 1.373 . S
C2529 C2531 1.389 . S
C2530 H2503 0.950 . S
C2530 C2516 1.377 . S
C2530 C2529 1.373 . S
C2531 C2515 1.377 . S
C2531 C2529 1.389 . S
C2531 C2532 1.524 . S
C2532 C2531 1.524 . S
C2532 C2533 1.397 . S
C2532 C2537 1.363 1_655 S
C2533 H2504 0.950 . S
C2533 C2532 1.397 . S
C2533 C2534 1.334 1_655 S
C2534 H2505 0.950 . S
C2534 C2533 1.334 1_455 S
C2534 C2535 1.287 . S
C2535 C2534 1.287 . S
C2535 C2536 1.524 . S
C2535 H2538 0.999 . S
C2536 H2506 0.950 . S
C2536 C2535 1.524 . S
C2536 C2537 1.415 . S
C2537 H2507 0.950 . S
C2537 C2532 1.363 1_455 S
C2537 C2536 1.415 . S
H2538 C2535 0.999 . S
H2539 C2520 0.913 . S
H2540 C2558 0.951 . S
H2541 C2560 0.951 . S
H2542 C2562 0.950 . S
H2543 C2563 0.950 . S
H2544 C2565 0.950 . S
H2545 C2568 0.950 . S
H2546 C2569 0.950 . S
H2547 C2571 0.950 . S
H2548 C2572 0.950 . S
H2549 C2573 0.951 . S
H2550 C2575 0.951 . S
H2551 C2577 0.950 . S
H2552 C2578 0.950 . S
H2553 C2580 0.950 . S
H2554 C2583 0.950 . S
H2555 C2584 0.950 . S
H2556 C2586 0.950 . S
H2557 C2587 0.950 . S
C2558 H2540 0.951 . S
C2558 C2559 1.366 . S
C2558 C2560 1.388 . S
C2559 C2558 1.366 . S
C2559 C2563 1.385 . S
C2560 H2541 0.951 . S
C2560 C2558 1.388 . S
C2560 C2561 1.366 . S
C2561 C2560 1.366 . S
C2561 C2562 1.414 . S
C2561 C2564 1.499 . S
C2562 H2542 0.950 . S
C2562 C2561 1.414 . S
C2562 C2563 1.374 . S
C2563 H2543 0.950 . S
C2563 C2559 1.385 . S
C2563 C2562 1.374 . S
C2564 C2561 1.499 . S
C2564 C2565 1.373 . S
C2564 C2566 1.389 . S
C2565 H2544 0.950 . S
C2565 C2564 1.373 . S
C2565 C2581 1.377 . S
C2566 C2564 1.389 . S
C2566 C2567 1.524 . S
C2566 C2580 1.377 . S
C2567 C2566 1.524 . S
C2567 C2568 1.397 . S
C2567 C2572 1.363 . S
C2568 H2545 0.950 . S
C2568 C2567 1.397 . S
C2568 C2569 1.334 . S
C2569 H2546 0.950 . S
C2569 C2568 1.334 . S
C2569 C2570 1.287 . S
C2570 C2569 1.287 . S
C2570 C2571 1.524 . S
C2570 H2589 0.913 . S
C2571 H2547 0.950 . S
C2571 C2570 1.524 . S
C2571 C2572 1.415 . S
C2572 H2548 0.950 . S
C2572 C2567 1.363 . S
C2572 C2571 1.415 . S
C2573 H2549 0.951 . S
C2573 C2574 1.366 . S
C2573 C2575 1.388 . S
C2574 C2573 1.366 . S
C2574 C2578 1.385 . S
C2575 H2550 0.951 . S
C2575 C2573 1.388 . S
C2575 C2576 1.366 . S
C2576 C2575 1.366 . S
C2576 C2577 1.414 . S
C2576 C2579 1.499 . S
C2577 H2551 0.950 . S
C2577 C2576 1.414 . S
C2577 C2578 1.374 . S
C2578 H2552 0.950 . S
C2578 C2574 1.385 . S
C2578 C2577 1.374 . S
C2579 C2576 1.499 . S
C2579 C2580 1.373 . S
C2579 C2581 1.389 . S
C2580 H2553 0.950 . S
C2580 C2566 1.377 . S
C2580 C2579 1.373 . S
C2581 C2565 1.377 . S
C2581 C2579 1.389 . S
C2581 C2582 1.524 . S
C2582 C2581 1.524 . S
C2582 C2583 1.397 . S
C2582 C2587 1.363 . S
C2583 H2554 0.950 . S
C2583 C2582 1.397 . S
C2583 C2584 1.334 . S
C2584 H2555 0.950 . S
C2584 C2583 1.334 . S
C2584 C2585 1.287 . S
C2585 C2584 1.287 . S
C2585 C2586 1.524 . S
C2585 H2588 0.999 . S
C2586 H2556 0.950 . S
C2586 C2585 1.524 . S
C2586 C2587 1.415 . S
C2587 H2557 0.950 . S
C2587 C2582 1.363 . S
C2587 C2586 1.415 . S
H2588 C2585 0.999 . S
H2589 C2570 0.913 . S
H2590 C2608 0.951 . S
H2591 C2610 0.951 . S
H2592 C2612 0.950 . S
H2593 C2613 0.950 . S
H2594 C2615 0.950 . S
H2595 C2618 0.950 . S
H2596 C2619 0.950 . S
H2597 C2621 0.950 . S
H2598 C2622 0.950 . S
H2599 C2623 0.951 . S
H2600 C2625 0.951 . S
H2601 C2627 0.950 . S
H2602 C2628 0.945 1_554 S
H2603 C2630 0.950 . S
H2604 C2633 0.950 . S
H2605 C2634 0.950 . S
H2606 C2636 0.950 . S
H2607 C2637 0.950 . S
C2608 H2590 0.951 . S
C2608 C2609 1.366 . S
C2608 C2610 1.388 . S
C2609 C2608 1.366 . S
C2609 C2613 1.385 . S
C2610 H2591 0.951 . S
C2610 C2608 1.388 . S
C2610 C2611 1.366 . S
C2611 C2610 1.366 . S
C2611 C2612 1.414 . S
C2611 C2614 1.499 . S
C2612 H2592 0.950 . S
C2612 C2611 1.414 . S
C2612 C2613 1.374 . S
C2613 H2593 0.950 . S
C2613 C2609 1.385 . S
C2613 C2612 1.374 . S
C2614 C2611 1.499 . S
C2614 C2615 1.373 . S
C2614 C2616 1.389 . S
C2615 H2594 0.950 . S
C2615 C2614 1.373 . S
C2615 C2631 1.377 . S
C2616 C2614 1.389 . S
C2616 C2617 1.524 . S
C2616 C2630 1.377 . S
C2617 C2616 1.524 . S
C2617 C2618 1.397 . S
C2617 C2622 1.363 . S
C2618 H2595 0.950 . S
C2618 C2617 1.397 . S
C2618 C2619 1.334 . S
C2619 H2596 0.950 . S
C2619 C2618 1.334 . S
C2619 C2620 1.287 . S
C2620 C2619 1.287 . S
C2620 C2621 1.524 . S
C2620 H2639 0.913 . S
C2621 H2597 0.950 . S
C2621 C2620 1.524 . S
C2621 C2622 1.415 . S
C2622 H2598 0.950 . S
C2622 C2617 1.363 . S
C2622 C2621 1.415 . S
C2623 H2599 0.951 . S
C2623 C2624 1.366 . S
C2623 C2625 1.388 . S
C2624 C2623 1.366 . S
C2624 C2628 1.385 . S
C2625 H2600 0.951 . S
C2625 C2623 1.388 . S
C2625 C2626 1.366 . S
C2626 C2625 1.366 . S
C2626 C2627 1.414 . S
C2626 C2629 1.499 . S
C2627 H2601 0.950 . S
C2627 C2626 1.414 . S
C2627 C2628 1.374 . S
C2628 H2602 0.945 1_556 S
C2628 C2624 1.385 . S
C2628 C2627 1.374 . S
C2629 C2626 1.499 . S
C2629 C2630 1.373 . S
C2629 C2631 1.389 . S
C2630 H2603 0.950 . S
C2630 C2616 1.377 . S
C2630 C2629 1.373 . S
C2631 C2615 1.377 . S
C2631 C2629 1.389 . S
C2631 C2632 1.524 . S
C2632 C2631 1.524 . S
C2632 C2633 1.397 . S
C2632 C2637 1.363 . S
C2633 H2604 0.950 . S
C2633 C2632 1.397 . S
C2633 C2634 1.334 . S
C2634 H2605 0.950 . S
C2634 C2633 1.334 . S
C2634 C2635 1.287 . S
C2635 C2634 1.287 . S
C2635 C2636 1.524 . S
C2635 H2638 0.999 . S
C2636 H2606 0.950 . S
C2636 C2635 1.524 . S
C2636 C2637 1.415 . S
C2637 H2607 0.950 . S
C2637 C2632 1.363 . S
C2637 C2636 1.415 . S
H2638 C2635 0.999 . S
H2639 C2620 0.913 . S
H2640 C2658 0.951 . S
H2641 C2660 0.951 . S
H2642 C2662 0.950 . S
H2643 C2663 0.950 . S
H2644 C2665 0.950 . S
H2645 C2668 0.950 . S
H2646 C2669 0.950 . S
H2647 C2671 0.950 . S
H2648 C2672 0.950 . S
H2649 C2673 0.951 . S
H2650 C2675 0.951 . S
H2651 C2677 0.950 . S
H2652 C2678 0.950 . S
H2653 C2680 0.950 . S
H2654 C2683 0.942 1_556 S
H2655 C2684 0.950 . S
H2656 C2686 0.950 . S
H2657 C2687 0.950 . S
C2658 H2640 0.951 . S
C2658 C2659 1.366 . S
C2658 C2660 1.388 . S
C2659 C2658 1.366 . S
C2659 C2663 1.385 . S
C2660 H2641 0.951 . S
C2660 C2658 1.388 . S
C2660 C2661 1.366 . S
C2661 C2660 1.366 . S
C2661 C2662 1.414 . S
C2661 C2664 1.499 . S
C2662 H2642 0.950 . S
C2662 C2661 1.414 . S
C2662 C2663 1.374 . S
C2663 H2643 0.950 . S
C2663 C2659 1.385 . S
C2663 C2662 1.374 . S
C2664 C2661 1.499 . S
C2664 C2665 1.373 . S
C2664 C2666 1.389 . S
C2665 H2644 0.950 . S
C2665 C2664 1.373 . S
C2665 C2681 1.377 . S
C2666 C2664 1.389 . S
C2666 C2667 1.524 . S
C2666 C2680 1.377 . S
C2667 C2666 1.524 . S
C2667 C2668 1.397 . S
C2667 C2672 1.363 . S
C2668 H2645 0.950 . S
C2668 C2667 1.397 . S
C2668 C2669 1.334 . S
C2669 H2646 0.950 . S
C2669 C2668 1.334 . S
C2669 C2670 1.287 . S
C2670 C2669 1.287 . S
C2670 C2671 1.524 . S
C2670 H2689 0.913 . S
C2671 H2647 0.950 . S
C2671 C2670 1.524 . S
C2671 C2672 1.415 . S
C2672 H2648 0.950 . S
C2672 C2667 1.363 . S
C2672 C2671 1.415 . S
C2673 H2649 0.951 . S
C2673 C2674 1.366 . S
C2673 C2675 1.388 . S
C2674 C2673 1.366 . S
C2674 C2678 1.385 . S
C2675 H2650 0.951 . S
C2675 C2673 1.388 . S
C2675 C2676 1.366 1_554 S
C2676 C2675 1.366 1_556 S
C2676 C2677 1.414 . S
C2676 C2679 1.499 . S
C2677 H2651 0.950 . S
C2677 C2676 1.414 . S
C2677 C2678 1.374 1_556 S
C2678 H2652 0.950 . S
C2678 C2674 1.385 . S
C2678 C2677 1.374 1_554 S
C2679 C2676 1.499 . S
C2679 C2680 1.373 . S
C2679 C2681 1.389 . S
C2680 H2653 0.950 . S
C2680 C2666 1.377 . S
C2680 C2679 1.373 . S
C2681 C2665 1.377 . S
C2681 C2679 1.389 . S
C2681 C2682 1.524 . S
C2682 C2681 1.524 . S
C2682 C2683 1.388 1_556 S
C2682 C2687 1.363 . S
C2683 H2654 0.942 1_554 S
C2683 C2682 1.388 1_554 S
C2683 C2684 1.350 . S
C2684 H2655 0.950 . S
C2684 C2683 1.350 . S
C2684 C2685 1.287 . S
C2685 C2684 1.287 . S
C2685 C2686 1.524 . S
C2685 H2688 0.999 . S
C2686 H2656 0.950 . S
C2686 C2685 1.524 . S
C2686 C2687 1.415 1_554 S
C2687 H2657 0.950 . S
C2687 C2682 1.363 . S
C2687 C2686 1.415 1_556 S
H2688 C2685 0.999 . S
H2689 C2670 0.913 . S
H2690 C2708 0.951 . S
H2691 C2710 0.951 . S
H2692 C2712 0.950 . S
H2693 C2713 0.950 . S
H2694 C2715 0.950 . S
H2695 C2718 0.950 . S
H2696 C2719 0.950 . S
H2697 C2721 0.950 . S
H2698 C2722 0.950 . S
H2699 C2723 0.951 . S
H2700 C2725 0.951 . S
H2701 C2727 0.950 . S
H2702 C2728 0.950 . S
H2703 C2730 0.950 . S
H2704 C2733 0.950 . S
H2705 C2734 0.950 . S
H2706 C2736 0.950 . S
H2707 C2737 0.950 . S
C2708 H2690 0.951 . S
C2708 C2709 1.366 . S
C2708 C2710 1.388 . S
C2709 C2708 1.366 . S
C2709 C2713 1.385 . S
C2710 H2691 0.951 . S
C2710 C2708 1.388 . S
C2710 C2711 1.366 . S
C2711 C2710 1.366 . S
C2711 C2712 1.414 . S
C2711 C2714 1.499 . S
C2712 H2692 0.950 . S
C2712 C2711 1.414 . S
C2712 C2713 1.374 . S
C2713 H2693 0.950 . S
C2713 C2709 1.385 . S
C2713 C2712 1.374 . S
C2714 C2711 1.499 . S
C2714 C2715 1.373 . S
C2714 C2716 1.389 . S
C2715 H2694 0.950 . S
C2715 C2714 1.373 . S
C2715 C2731 1.377 . S
C2716 C2714 1.389 . S
C2716 C2717 1.524 . S
C2716 C2730 1.377 . S
C2717 C2716 1.524 . S
C2717 C2718 1.397 . S
C2717 C2722 1.363 . S
C2718 H2695 0.950 . S
C2718 C2717 1.397 . S
C2718 C2719 1.334 . S
C2719 H2696 0.950 . S
C2719 C2718 1.334 . S
C2719 C2720 1.287 . S
C2720 C2719 1.287 . S
C2720 C2721 1.524 . S
C2720 H2739 0.913 . S
C2721 H2697 0.950 . S
C2721 C2720 1.524 . S
C2721 C2722 1.415 . S
C2722 H2698 0.950 . S
C2722 C2717 1.363 . S
C2722 C2721 1.415 . S
C2723 H2699 0.951 . S
C2723 C2724 1.366 . S
C2723 C2725 1.388 . S
C2724 C2723 1.366 . S
C2724 C2728 1.385 . S
C2725 H2700 0.951 . S
C2725 C2723 1.388 . S
C2725 C2726 1.366 . S
C2726 C2725 1.366 . S
C2726 C2727 1.414 . S
C2726 C2729 1.499 . S
C2727 H2701 0.950 . S
C2727 C2726 1.414 . S
C2727 C2728 1.374 . S
C2728 H2702 0.950 . S
C2728 C2724 1.385 . S
C2728 C2727 1.374 . S
C2729 C2726 1.499 . S
C2729 C2730 1.373 . S
C2729 C2731 1.389 . S
C2730 H2703 0.950 . S
C2730 C2716 1.377 . S
C2730 C2729 1.373 . S
C2731 C2715 1.377 . S
C2731 C2729 1.389 . S
C2731 C2732 1.524 . S
C2732 C2731 1.524 . S
C2732 C2733 1.397 . S
C2732 C2737 1.363 . S
C2733 H2704 0.950 . S
C2733 C2732 1.397 . S
C2733 C2734 1.334 . S
C2734 H2705 0.950 . S
C2734 C2733 1.334 . S
C2734 C2735 1.287 . S
C2735 C2734 1.287 . S
C2735 C2736 1.524 . S
C2735 H2738 0.999 . S
C2736 H2706 0.950 . S
C2736 C2735 1.524 . S
C2736 C2737 1.415 . S
C2737 H2707 0.950 . S
C2737 C2732 1.363 . S
C2737 C2736 1.415 . S
H2738 C2735 0.999 . S
H2739 C2720 0.913 . S
H2740 C2758 0.951 1_455 S
H2741 C2760 0.951 . S
H2742 C2762 0.950 . S
H2743 C2763 0.950 . S
H2744 C2765 0.950 . S
H2745 C2768 0.950 . S
H2746 C2769 0.950 . S
H2747 C2771 0.950 . S
H2748 C2772 0.950 . S
H2749 C2773 0.951 . S
H2750 C2775 0.951 . S
H2751 C2777 0.950 . S
H2752 C2778 0.950 . S
H2753 C2780 0.950 . S
H2754 C2783 0.950 . S
H2755 C2784 0.950 . S
H2756 C2786 0.950 . S
H2757 C2787 0.950 . S
C2758 H2740 0.951 1_655 S
C2758 C2759 1.366 . S
C2758 C2760 1.388 . S
C2759 C2758 1.366 . S
C2759 C2763 1.385 . S
C2760 H2741 0.951 . S
C2760 C2758 1.388 . S
C2760 C2761 1.366 . S
C2761 C2760 1.366 . S
C2761 C2762 1.414 . S
C2761 C2764 1.499 . S
C2762 H2742 0.950 . S
C2762 C2761 1.414 . S
C2762 C2763 1.374 . S
C2763 H2743 0.950 . S
C2763 C2759 1.385 . S
C2763 C2762 1.374 . S
C2764 C2761 1.499 . S
C2764 C2765 1.373 . S
C2764 C2766 1.389 . S
C2765 H2744 0.950 . S
C2765 C2764 1.373 . S
C2765 C2781 1.377 . S
C2766 C2764 1.389 . S
C2766 C2767 1.524 1_655 S
C2766 C2780 1.377 . S
C2767 C2766 1.524 1_455 S
C2767 C2768 1.397 . S
C2767 C2772 1.363 . S
C2768 H2745 0.950 . S
C2768 C2767 1.397 . S
C2768 C2769 1.334 . S
C2769 H2746 0.950 . S
C2769 C2768 1.334 . S
C2769 C2770 1.287 . S
C2770 C2769 1.287 . S
C2770 C2771 1.524 . S
C2770 H2789 0.913 . S
C2771 H2747 0.950 . S
C2771 C2770 1.524 . S
C2771 C2772 1.415 . S
C2772 H2748 0.950 . S
C2772 C2767 1.363 . S
C2772 C2771 1.415 . S
C2773 H2749 0.951 . S
C2773 C2774 1.366 . S
C2773 C2775 1.388 . S
C2774 C2773 1.366 . S
C2774 C2778 1.385 . S
C2775 H2750 0.951 . S
C2775 C2773 1.388 . S
C2775 C2776 1.366 . S
C2776 C2775 1.366 . S
C2776 C2777 1.414 . S
C2776 C2779 1.499 . S
C2777 H2751 0.950 . S
C2777 C2776 1.414 . S
C2777 C2778 1.374 . S
C2778 H2752 0.950 . S
C2778 C2774 1.385 . S
C2778 C2777 1.374 . S
C2779 C2776 1.499 . S
C2779 C2780 1.373 . S
C2779 C2781 1.389 . S
C2780 H2753 0.950 . S
C2780 C2766 1.377 . S
C2780 C2779 1.373 . S
C2781 C2765 1.377 . S
C2781 C2779 1.389 . S
C2781 C2782 1.524 . S
C2782 C2781 1.524 . S
C2782 C2783 1.397 . S
C2782 C2787 1.363 . S
C2783 H2754 0.950 . S
C2783 C2782 1.397 . S
C2783 C2784 1.334 . S
C2784 H2755 0.950 . S
C2784 C2783 1.334 . S
C2784 C2785 1.287 . S
C2785 C2784 1.287 . S
C2785 C2786 1.524 . S
C2785 H2788 0.999 . S
C2786 H2756 0.950 . S
C2786 C2785 1.524 . S
C2786 C2787 1.415 . S
C2787 H2757 0.950 . S
C2787 C2782 1.363 . S
C2787 C2786 1.415 . S
H2788 C2785 0.999 . S
H2789 C2770 0.913 . S
H2790 C2808 0.951 . S
H2791 C2810 0.951 . S
H2792 C2812 0.950 . S
H2793 C2813 0.950 . S
H2794 C2815 0.950 . S
H2795 C2818 0.950 . S
H2796 C2819 0.950 . S
H2797 C2821 0.950 1_455 S
H2798 C2822 0.950 . S
H2799 C2823 0.951 . S
H2800 C2825 0.951 . S
H2801 C2827 0.950 . S
H2802 C2828 0.950 . S
H2803 C2830 0.950 . S
H2804 C2833 0.950 . S
H2805 C2834 0.950 . S
H2806 C2836 0.950 . S
H2807 C2837 0.950 . S
C2808 H2790 0.951 . S
C2808 C2809 1.366 . S
C2808 C2810 1.388 . S
C2809 C2808 1.366 . S
C2809 C2813 1.385 . S
C2810 H2791 0.951 . S
C2810 C2808 1.388 . S
C2810 C2811 1.366 . S
C2811 C2810 1.366 . S
C2811 C2812 1.414 . S
C2811 C2814 1.499 . S
C2812 H2792 0.950 . S
C2812 C2811 1.414 . S
C2812 C2813 1.374 . S
C2813 H2793 0.950 . S
C2813 C2809 1.385 . S
C2813 C2812 1.374 . S
C2814 C2811 1.499 . S
C2814 C2815 1.373 . S
C2814 C2816 1.389 . S
C2815 H2794 0.950 . S
C2815 C2814 1.373 . S
C2815 C2831 1.377 . S
C2816 C2814 1.389 . S
C2816 C2817 1.524 . S
C2816 C2830 1.377 . S
C2817 C2816 1.524 . S
C2817 C2818 1.397 . S
C2817 C2822 1.363 . S
C2818 H2795 0.950 . S
C2818 C2817 1.397 . S
C2818 C2819 1.334 . S
C2819 H2796 0.950 . S
C2819 C2818 1.334 . S
C2819 C2820 1.287 . S
C2820 C2819 1.287 . S
C2820 C2821 1.524 . S
C2820 H2839 0.913 1_655 S
C2821 H2797 0.950 1_655 S
C2821 C2820 1.524 . S
C2821 C2822 1.415 . S
C2822 H2798 0.950 . S
C2822 C2817 1.363 . S
C2822 C2821 1.415 . S
C2823 H2799 0.951 . S
C2823 C2824 1.366 . S
C2823 C2825 1.388 . S
C2824 C2823 1.366 . S
C2824 C2828 1.385 . S
C2825 H2800 0.951 . S
C2825 C2823 1.388 . S
C2825 C2826 1.366 . S
C2826 C2825 1.366 . S
C2826 C2827 1.414 . S
C2826 C2829 1.499 . S
C2827 H2801 0.950 . S
C2827 C2826 1.414 . S
C2827 C2828 1.374 . S
C2828 H2802 0.950 . S
C2828 C2824 1.385 . S
C2828 C2827 1.374 . S
C2829 C2826 1.499 . S
C2829 C2830 1.373 . S
C2829 C2831 1.389 . S
C2830 H2803 0.950 . S
C2830 C2816 1.377 . S
C2830 C2829 1.373 . S
C2831 C2815 1.377 . S
C2831 C2829 1.389 . S
C2831 C2832 1.524 . S
C2832 C2831 1.524 . S
C2832 C2833 1.397 . S
C2832 C2837 1.363 . S
C2833 H2804 0.950 . S
C2833 C2832 1.397 . S
C2833 C2834 1.334 . S
C2834 H2805 0.950 . S
C2834 C2833 1.334 . S
C2834 C2835 1.287 . S
C2835 C2834 1.287 . S
C2835 C2836 1.524 . S
C2835 H2838 0.999 . S
C2836 H2806 0.950 . S
C2836 C2835 1.524 . S
C2836 C2837 1.415 . S
C2837 H2807 0.950 . S
C2837 C2832 1.363 . S
C2837 C2836 1.415 . S
H2838 C2835 0.999 . S
H2839 C2820 0.913 1_455 S
H2840 C2858 0.951 . S
H2841 C2860 0.951 . S
H2842 C2862 0.950 . S
H2843 C2863 0.950 . S
H2844 C2865 0.950 . S
H2845 C2868 0.950 . S
H2846 C2869 0.950 . S
H2847 C2871 0.950 . S
H2848 C2872 0.950 . S
H2849 C2873 0.951 . S
H2850 C2875 0.965 . S
H2851 C2877 0.955 . S
H2852 C2878 0.950 . S
H2853 C2880 0.950 . S
H2854 C2883 0.950 . S
H2855 C2884 0.950 . S
H2856 C2886 0.950 . S
H2857 C2887 0.950 . S
C2858 H2840 0.951 . S
C2858 C2859 1.366 . S
C2858 C2860 1.388 . S
C2859 C2858 1.366 . S
C2859 C2863 1.385 . S
C2860 H2841 0.951 . S
C2860 C2858 1.388 . S
C2860 C2861 1.366 . S
C2861 C2860 1.366 . S
C2861 C2862 1.414 . S
C2861 C2864 1.499 . S
C2862 H2842 0.950 . S
C2862 C2861 1.414 . S
C2862 C2863 1.374 . S
C2863 H2843 0.950 . S
C2863 C2859 1.385 . S
C2863 C2862 1.374 . S
C2864 C2861 1.499 . S
C2864 C2865 1.373 . S
C2864 C2866 1.389 . S
C2865 H2844 0.950 . S
C2865 C2864 1.373 . S
C2865 C2881 1.377 . S
C2866 C2864 1.389 . S
C2866 C2867 1.524 . S
C2866 C2880 1.377 . S
C2867 C2866 1.524 . S
C2867 C2868 1.397 . S
C2867 C2872 1.363 . S
C2868 H2845 0.950 . S
C2868 C2867 1.397 . S
C2868 C2869 1.334 . S
C2869 H2846 0.950 . S
C2869 C2868 1.334 . S
C2869 C2870 1.287 . S
C2870 C2869 1.287 . S
C2870 C2871 1.524 . S
C2870 H2889 0.913 . S
C2871 H2847 0.950 . S
C2871 C2870 1.524 . S
C2871 C2872 1.415 . S
C2872 H2848 0.950 . S
C2872 C2867 1.363 . S
C2872 C2871 1.415 . S
C2873 H2849 0.951 . S
C2873 C2874 1.366 . S
C2873 C2875 1.388 . S
C2874 C2873 1.366 . S
C2874 C2878 1.385 . S
C2875 H2850 0.965 . S
C2875 C2873 1.388 . S
C2875 C2876 1.366 1_556 S
C2876 C2875 1.366 1_554 S
C2876 C2877 1.414 1_554 S
C2876 C2879 1.499 . S
C2877 H2851 0.955 . S
C2877 C2876 1.414 1_556 S
C2877 C2878 1.374 . S
C2878 H2852 0.950 . S
C2878 C2874 1.385 . S
C2878 C2877 1.374 . S
C2879 C2876 1.499 . S
C2879 C2880 1.373 . S
C2879 C2881 1.389 . S
C2880 H2853 0.950 . S
C2880 C2866 1.377 . S
C2880 C2879 1.373 . S
C2881 C2865 1.377 . S
C2881 C2879 1.389 . S
C2881 C2882 1.524 . S
C2882 C2881 1.524 . S
C2882 C2883 1.397 . S
C2882 C2887 1.363 . S
C2883 H2854 0.950 . S
C2883 C2882 1.397 . S
C2883 C2884 1.334 . S
C2884 H2855 0.950 . S
C2884 C2883 1.334 . S
C2884 C2885 1.287 . S
C2885 C2884 1.287 . S
C2885 C2886 1.524 . S
C2885 H2888 0.999 . S
C2886 H2856 0.950 . S
C2886 C2885 1.524 . S
C2886 C2887 1.415 . S
C2887 H2857 0.950 . S
C2887 C2882 1.363 . S
C2887 C2886 1.415 . S
H2888 C2885 0.999 . S
H2889 C2870 0.913 . S
H2890 C2908 0.951 . S
H2891 C2910 0.951 . S
H2892 C2912 0.950 . S
H2893 C2913 0.950 . S
H2894 C2915 0.950 . S
H2895 C2918 0.950 . S
H2896 C2919 0.950 . S
H2897 C2921 0.950 . S
H2898 C2922 0.950 . S
H2899 C2923 0.951 . S
H2900 C2925 0.951 . S
H2901 C2927 0.950 . S
H2902 C2928 0.950 . S
H2903 C2930 0.950 . S
H2904 C2933 0.950 . S
H2905 C2934 0.950 . S
H2906 C2936 0.950 . S
H2907 C2937 0.950 . S
C2908 H2890 0.951 . S
C2908 C2909 1.366 . S
C2908 C2910 1.388 . S
C2909 C2908 1.366 . S
C2909 C2913 1.385 . S
C2910 H2891 0.951 . S
C2910 C2908 1.388 . S
C2910 C2911 1.366 . S
C2911 C2910 1.366 . S
C2911 C2912 1.414 . S
C2911 C2914 1.499 . S
C2912 H2892 0.950 . S
C2912 C2911 1.414 . S
C2912 C2913 1.374 . S
C2913 H2893 0.950 . S
C2913 C2909 1.385 . S
C2913 C2912 1.374 . S
C2914 C2911 1.499 . S
C2914 C2915 1.373 . S
C2914 C2916 1.389 . S
C2915 H2894 0.950 . S
C2915 C2914 1.373 . S
C2915 C2931 1.377 . S
C2916 C2914 1.389 . S
C2916 C2917 1.524 . S
C2916 C2930 1.377 . S
C2917 C2916 1.524 . S
C2917 C2918 1.397 . S
C2917 C2922 1.363 . S
C2918 H2895 0.950 . S
C2918 C2917 1.397 . S
C2918 C2919 1.334 . S
C2919 H2896 0.950 . S
C2919 C2918 1.334 . S
C2919 C2920 1.287 . S
C2920 C2919 1.287 . S
C2920 C2921 1.524 . S
C2920 H2939 0.913 . S
C2921 H2897 0.950 . S
C2921 C2920 1.524 . S
C2921 C2922 1.415 . S
C2922 H2898 0.950 . S
C2922 C2917 1.363 . S
C2922 C2921 1.415 . S
C2923 H2899 0.951 . S
C2923 C2924 1.366 . S
C2923 C2925 1.388 . S
C2924 C2923 1.366 . S
C2924 C2928 1.385 . S
C2925 H2900 0.951 . S
C2925 C2923 1.388 . S
C2925 C2926 1.366 . S
C2926 C2925 1.366 . S
C2926 C2927 1.414 . S
C2926 C2929 1.499 . S
C2927 H2901 0.950 . S
C2927 C2926 1.414 . S
C2927 C2928 1.374 . S
C2928 H2902 0.950 . S
C2928 C2924 1.385 . S
C2928 C2927 1.374 . S
C2929 C2926 1.499 . S
C2929 C2930 1.373 . S
C2929 C2931 1.389 . S
C2930 H2903 0.950 . S
C2930 C2916 1.377 . S
C2930 C2929 1.373 . S
C2931 C2915 1.377 . S
C2931 C2929 1.389 . S
C2931 C2932 1.524 . S
C2932 C2931 1.524 . S
C2932 C2933 1.397 . S
C2932 C2937 1.363 . S
C2933 H2904 0.950 . S
C2933 C2932 1.397 . S
C2933 C2934 1.334 . S
C2934 H2905 0.950 . S
C2934 C2933 1.334 . S
C2934 C2935 1.287 . S
C2935 C2934 1.287 . S
C2935 C2936 1.524 . S
C2935 H2938 0.999 . S
C2936 H2906 0.950 . S
C2936 C2935 1.524 . S
C2936 C2937 1.415 . S
C2937 H2907 0.950 . S
C2937 C2932 1.363 . S
C2937 C2936 1.415 . S
H2938 C2935 0.999 . S
H2939 C2920 0.913 . S
H2940 C2958 0.951 . S
H2941 C2960 0.951 . S
H2942 C2962 0.950 . S
H2943 C2963 0.950 . S
H2944 C2965 0.950 . S
H2945 C2968 0.950 . S
H2946 C2969 0.950 . S
H2947 C2971 0.950 . S
H2948 C2972 0.950 . S
H2949 C2973 0.951 . S
H2950 C2975 0.951 . S
H2951 C2977 0.950 . S
H2952 C2978 0.950 . S
H2953 C2980 0.950 . S
H2954 C2983 0.950 . S
H2955 C2984 0.950 . S
H2956 C2986 0.978 . S
H2957 C2987 0.950 . S
C2958 H2940 0.951 . S
C2958 C2959 1.366 . S
C2958 C2960 1.388 . S
C2959 C2958 1.366 . S
C2959 C2963 1.385 . S
C2960 H2941 0.951 . S
C2960 C2958 1.388 . S
C2960 C2961 1.366 . S
C2961 C2960 1.366 . S
C2961 C2962 1.414 . S
C2961 C2964 1.499 . S
C2962 H2942 0.950 . S
C2962 C2961 1.414 . S
C2962 C2963 1.374 . S
C2963 H2943 0.950 . S
C2963 C2959 1.385 . S
C2963 C2962 1.374 . S
C2964 C2961 1.499 . S
C2964 C2965 1.373 . S
C2964 C2966 1.389 . S
C2965 H2944 0.950 . S
C2965 C2964 1.373 . S
C2965 C2981 1.377 . S
C2966 C2964 1.389 . S
C2966 C2967 1.524 . S
C2966 C2980 1.377 . S
C2967 C2966 1.524 . S
C2967 C2968 1.397 . S
C2967 C2972 1.363 . S
C2968 H2945 0.950 . S
C2968 C2967 1.397 . S
C2968 C2969 1.334 . S
C2969 H2946 0.950 . S
C2969 C2968 1.334 . S
C2969 C2970 1.287 . S
C2970 C2969 1.287 . S
C2970 C2971 1.524 . S
C2970 H2989 0.913 . S
C2971 H2947 0.950 . S
C2971 C2970 1.524 . S
C2971 C2972 1.415 . S
C2972 H2948 0.950 . S
C2972 C2967 1.363 . S
C2972 C2971 1.415 . S
C2973 H2949 0.951 . S
C2973 C2974 1.366 . S
C2973 C2975 1.388 . S
C2974 C2973 1.366 . S
C2974 C2978 1.385 . S
C2975 H2950 0.951 . S
C2975 C2973 1.388 . S
C2975 C2976 1.366 . S
C2976 C2975 1.366 . S
C2976 C2977 1.414 . S
C2976 C2979 1.499 . S
C2977 H2951 0.950 . S
C2977 C2976 1.414 . S
C2977 C2978 1.374 . S
C2978 H2952 0.950 . S
C2978 C2974 1.385 . S
C2978 C2977 1.374 . S
C2979 C2976 1.499 . S
C2979 C2980 1.373 . S
C2979 C2981 1.389 . S
C2980 H2953 0.950 . S
C2980 C2966 1.377 . S
C2980 C2979 1.373 . S
C2981 C2965 1.377 . S
C2981 C2979 1.389 . S
C2981 C2982 1.524 . S
C2982 C2981 1.524 . S
C2982 C2983 1.397 . S
C2982 C2987 1.363 . S
C2983 H2954 0.950 . S
C2983 C2982 1.397 . S
C2983 C2984 1.334 . S
C2984 H2955 0.950 . S
C2984 C2983 1.334 . S
C2984 C2985 1.287 1_455 S
C2985 C2984 1.287 1_655 S
C2985 C2986 1.528 . S
C2985 H2988 0.999 . S
C2986 H2956 0.978 . S
C2986 C2985 1.528 . S
C2986 C2987 1.380 1_655 S
C2987 H2957 0.950 . S
C2987 C2982 1.363 . S
C2987 C2986 1.380 1_455 S
H2988 C2985 0.999 . S
H2989 C2970 0.913 . S
H2990 C3008 0.951 . S
H2991 C3010 0.951 . S
H2992 C3012 0.950 . S
H2993 C3013 0.950 . S
H2994 C3015 0.950 . S
H2995 C3018 0.950 . S
H2996 C3019 0.950 . S
H2997 C3021 0.950 . S
H2998 C3022 0.950 . S
H2999 C3023 0.951 . S
H3000 C3025 0.951 . S
H3001 C3027 0.950 . S
H3002 C3028 0.950 . S
H3003 C3030 0.950 . S
H3004 C3033 0.950 . S
H3005 C3034 0.950 . S
H3006 C3036 0.950 . S
H3007 C3037 0.950 . S
C3008 H2990 0.951 . S
C3008 C3009 1.366 . S
C3008 C3010 1.388 . S
C3009 C3008 1.366 . S
C3009 C3013 1.385 . S
C3010 H2991 0.951 . S
C3010 C3008 1.388 . S
C3010 C3011 1.366 . S
C3011 C3010 1.366 . S
C3011 C3012 1.414 . S
C3011 C3014 1.499 . S
C3012 H2992 0.950 . S
C3012 C3011 1.414 . S
C3012 C3013 1.374 . S
C3013 H2993 0.950 . S
C3013 C3009 1.385 . S
C3013 C3012 1.374 . S
C3014 C3011 1.499 . S
C3014 C3015 1.373 . S
C3014 C3016 1.389 . S
C3015 H2994 0.950 . S
C3015 C3014 1.373 . S
C3015 C3031 1.377 . S
C3016 C3014 1.389 . S
C3016 C3017 1.524 . S
C3016 C3030 1.377 . S
C3017 C3016 1.524 . S
C3017 C3018 1.397 . S
C3017 C3022 1.363 . S
C3018 H2995 0.950 . S
C3018 C3017 1.397 . S
C3018 C3019 1.334 . S
C3019 H2996 0.950 . S
C3019 C3018 1.334 . S
C3019 C3020 1.287 . S
C3020 C3019 1.287 . S
C3020 C3021 1.524 . S
C3020 H3039 0.913 . S
C3021 H2997 0.950 . S
C3021 C3020 1.524 . S
C3021 C3022 1.415 . S
C3022 H2998 0.950 . S
C3022 C3017 1.363 . S
C3022 C3021 1.415 . S
C3023 H2999 0.951 . S
C3023 C3024 1.366 . S
C3023 C3025 1.388 . S
C3024 C3023 1.366 . S
C3024 C3028 1.385 . S
C3025 H3000 0.951 . S
C3025 C3023 1.388 . S
C3025 C3026 1.366 . S
C3026 C3025 1.366 . S
C3026 C3027 1.414 . S
C3026 C3029 1.499 . S
C3027 H3001 0.950 . S
C3027 C3026 1.414 . S
C3027 C3028 1.374 . S
C3028 H3002 0.950 . S
C3028 C3024 1.385 . S
C3028 C3027 1.374 . S
C3029 C3026 1.499 . S
C3029 C3030 1.373 . S
C3029 C3031 1.389 . S
C3030 H3003 0.950 . S
C3030 C3016 1.377 . S
C3030 C3029 1.373 . S
C3031 C3015 1.377 . S
C3031 C3029 1.389 . S
C3031 C3032 1.524 . S
C3032 C3031 1.524 . S
C3032 C3033 1.397 . S
C3032 C3037 1.363 . S
C3033 H3004 0.950 . S
C3033 C3032 1.397 . S
C3033 C3034 1.334 . S
C3034 H3005 0.950 . S
C3034 C3033 1.334 . S
C3034 C3035 1.287 . S
C3035 C3034 1.287 . S
C3035 C3036 1.524 . S
C3035 H3038 0.999 . S
C3036 H3006 0.950 . S
C3036 C3035 1.524 . S
C3036 C3037 1.415 . S
C3037 H3007 0.950 . S
C3037 C3032 1.363 . S
C3037 C3036 1.415 . S
H3038 C3035 0.999 . S
H3039 C3020 0.913 . S
C659 C11 0.416 . S
C674 C287 0.392 . S
C709 C51 1.971 . S
C724 C167 1.990 . S
C759 C207 0.878 . S
C774 C87 0.834 . S
C809 C131 2.704 . S
C824 C251 2.674 . S
C859 C456 0.390 . S
C874 C162 0.419 . S
C909 C322 1.972 . S
C924 C16 1.989 . S
C959 C416 0.877 . S
C974 C256 0.834 . S
C1009 C82 2.674 . S
C1024 C362 2.703 . S
C1059 C367 0.391 . S
C1074 C491 0.418 . S
C1109 C411 1.973 . S
C1124 C567 1.990 . S
C1159 C527 0.835 . S
C1174 C327 0.878 . S
C1209 C451 2.703 . S
C1224 C611 2.675 1_554 S
C1259 C562 0.418 . S
C1274 C136 0.389 . S
C1309 C496 1.991 . S
C1324 C202 1.973 . S
C1359 C56 0.878 . S
C1374 C616 0.835 . S
C1409 C282 2.703 . S
C1424 C522 2.675 1_556 S
C1459 C530 0.877 . S
C1474 C19 0.853 . S
C1509 C459 0.494 . S
C1524 C59 0.870 . S
C1559 C499 0.852 . S
C1574 C90 0.878 . S
C1609 C419 0.871 . S
C1624 C139 0.492 . S
C1659 C170 0.852 . S
C1674 C619 0.878 . S
C1709 C370 0.493 . S
C1724 C210 0.872 . S
C1759 C259 0.878 . S
C1774 C570 0.852 . S
C1809 C290 0.495 . S
C1824 C330 0.871 . S
C1859 C10 1.358 . S
C1874 C179 1.358 . S
C1909 C50 1.712 . S
C1924 C219 1.712 . S
C1959 C250 1.256 . S
C1974 C99 1.256 . S
C2009 C130 1.048 . S
C2024 C299 1.048 . S
C2059 C410 1.712 . S
C2074 C339 1.712 . S
C2109 C450 1.048 . S
C2124 C379 1.048 . S
C2159 C490 1.359 . S
C2174 C579 1.359 . S
C2209 C610 1.256 . S
C2224 C539 1.256 . S
C2259 C7 2.769 . S
C2274 C291 2.823 . S
C2309 C47 0.908 . S
C2324 C171 0.930 . S
C2359 C211 3.575 1_556 S
C2374 C91 3.559 . S
C2409 C247 0.505 . S
C2424 C127 0.517 . S
C2459 C442 2.823 . S
C2474 C176 2.770 . S
C2509 C336 0.908 . S
C2524 C2 0.930 1_655 S
C2559 C402 3.575 1_554 S
C2574 C242 3.559 . S
C2609 C96 0.504 . S
C2624 C376 0.516 . S
C2659 C487 2.768 . S
C2674 C371 2.822 . S
C2709 C571 0.929 . S
C2724 C407 0.908 . S
C2759 C531 3.560 1_655 S
C2774 C331 3.576 . S
C2809 C607 0.507 . S
C2824 C447 0.515 . S
C2859 C576 2.768 . S
C2874 C122 2.822 . S
C2909 C216 0.907 . S
C2924 C482 0.929 . S
C2959 C42 3.576 . S
C2974 C602 3.560 . S
C3009 C536 0.505 . S
C3024 C296 0.514 . S
