# Generated by pormake.
# Topology smk, (6)-cn, num edge types: 1
# Building blocks:
#     Node 0, Type 0, BuildingBlock: UKALOJ_clean_sbu_0, # of connection points: 6
#     Node 1, Type 0, BuildingBlock: UKALOJ_clean_sbu_0, # of connection points: 6
#     Node 2, Type 0, BuildingBlock: UKALOJ_clean_sbu_0, # of connection points: 6
#     Node 3, Type 0, BuildingBlock: UKALOJ_clean_sbu_0, # of connection points: 6
#     Node 4, Type 0, BuildingBlock: UKALOJ_clean_sbu_0, # of connection points: 6
#     Node 5, Type 0, BuildingBlock: UKALOJ_clean_sbu_0, # of connection points: 6
#     Edge 6, Type (0, 0), BuildingBlock: UKIBIB_clean_linker_0, # of connection points: 2
#     Edge 7, Type (0, 0), BuildingBlock: UKIBIB_clean_linker_0, # of connection points: 2
#     Edge 8, Type (0, 0), BuildingBlock: UKIBIB_clean_linker_0, # of connection points: 2
#     Edge 9, Type (0, 0), BuildingBlock: UKIBIB_clean_linker_0, # of connection points: 2
#     Edge 10, Type (0, 0), BuildingBlock: UKIBIB_clean_linker_0, # of connection points: 2
#     Edge 11, Type (0, 0), BuildingBlock: UKIBIB_clean_linker_0, # of connection points: 2
#     Edge 12, Type (0, 0), BuildingBlock: UKIBIB_clean_linker_0, # of connection points: 2
#     Edge 13, Type (0, 0), BuildingBlock: UKIBIB_clean_linker_0, # of connection points: 2
#     Edge 14, Type (0, 0), BuildingBlock: UKIBIB_clean_linker_0, # of connection points: 2
#     Edge 15, Type (0, 0), BuildingBlock: UKIBIB_clean_linker_0, # of connection points: 2
#     Edge 16, Type (0, 0), BuildingBlock: UKIBIB_clean_linker_0, # of connection points: 2
#     Edge 17, Type (0, 0), BuildingBlock: UKIBIB_clean_linker_0, # of connection points: 2
#     Edge 18, Type (0, 0), BuildingBlock: UKIBIB_clean_linker_0, # of connection points: 2
#     Edge 19, Type (0, 0), BuildingBlock: UKIBIB_clean_linker_0, # of connection points: 2
#     Edge 20, Type (0, 0), BuildingBlock: UKIBIB_clean_linker_0, # of connection points: 2
#     Edge 21, Type (0, 0), BuildingBlock: UKIBIB_clean_linker_0, # of connection points: 2
#     Edge 22, Type (0, 0), BuildingBlock: UKIBIB_clean_linker_0, # of connection points: 2
#     Edge 23, Type (0, 0), BuildingBlock: UKIBIB_clean_linker_0, # of connection points: 2
# Relax obj value: 0.278
# Max RMSD: 0.213
# Mean RMSD: 0.213
data_MOF--net-smk--node1-UKALOJ_clean_sbu_0--edge1-UKIBIB_clean_linker_0
_symmetry_space_group_name_H-M    P1
_symmetry_Int_Tables_number       1
_symmetry_cell_setting            triclinic
loop_
_symmetry_equiv_pos_as_xyz
'x, y, z'
_cell_length_a     60.989853
_cell_length_b     61.216964
_cell_length_c     19.851097
_cell_angle_alpha  90.289616
_cell_angle_beta   89.74679
_cell_angle_gamma 120.1041
loop_
_atom_site_label
_atom_site_type_symbol
_atom_site_fract_x
_atom_site_fract_y
_atom_site_fract_z
_atom_type_partial_charge
Zn0 Zn 0.41989 0.2232 0.54789 0.0
O1 O 0.3926 0.18581 0.55967 0.0
C2 C 0.43175 0.2194 0.67858 0.0
Zn3 Zn 0.45094 0.21078 0.55817 0.0
C4 C 0.39932 0.16953 0.56976 0.0
O5 O 0.42225 0.1751 0.56619 0.0
C6 C 0.47444 0.26494 0.53726 0.0
O7 O 0.45086 0.20869 0.45813 0.0
O8 O 0.42051 0.21885 0.45174 0.0
N9 N 0.47973 0.19959 0.57696 0.0
C10 C 0.50133 0.20333 0.5452 0.0
C11 C 0.50076 0.1883 0.64333 0.0
N12 N 0.47973 0.18999 0.63757 0.0
N13 N 0.51516 0.1965 0.58662 0.0
C14 C 0.37076 0.23019 0.56687 0.0
C15 C 0.38454 0.26578 0.51946 0.0
N16 N 0.39366 0.23657 0.53914 0.0
N17 N 0.4018 0.25866 0.50932 0.0
N18 N 0.36472 0.24831 0.55523 0.0
H19 H 0.35781 0.19117 0.58875 0.0
H20 H 0.33404 0.20016 0.59499 0.0
H21 H 0.35771 0.20965 0.66042 0.0
C22 C 0.35418 0.20631 0.60467 0.0
C23 C 0.50762 0.2125 0.47286 0.0
H24 H 0.49043 0.20861 0.44437 0.0
H25 H 0.51689 0.20326 0.44635 0.0
H26 H 0.52085 0.23307 0.47304 0.0
O27 O 0.47867 0.24718 0.55064 0.0
O28 O 0.45177 0.26088 0.53541 0.0
C29 C 0.43657 0.21427 0.42449 0.0
O30 O 0.41933 0.22662 0.6435 0.0
O31 O 0.44738 0.21376 0.65355 0.0
Zn32 Zn 0.20544 0.41408 0.71585 0.0
O33 O 0.21558 0.3868 0.72453 0.0
C34 C 0.22133 0.42396 0.84752 0.0
Zn35 Zn 0.24888 0.44498 0.72661 0.0
C36 C 0.23887 0.39371 0.73156 0.0
O37 O 0.25597 0.41668 0.72945 0.0
C38 C 0.21799 0.46841 0.70718 0.0
O39 O 0.25069 0.446 0.62708 0.0
O40 O 0.21017 0.41544 0.61966 0.0
N41 N 0.28883 0.47332 0.74442 0.0
C42 C 0.30674 0.49507 0.71379 0.0
C43 C 0.32141 0.49321 0.81028 0.0
N44 N 0.29855 0.47253 0.80403 0.0
N45 N 0.32761 0.50844 0.75535 0.0
C46 C 0.14949 0.3651 0.73667 0.0
C47 C 0.12705 0.37883 0.69213 0.0
N48 N 0.16573 0.3879 0.70854 0.0
N49 N 0.1514 0.39601 0.68067 0.0
N50 N 0.12523 0.35919 0.72687 0.0
H51 H 0.17589 0.35231 0.75758 0.0
H52 H 0.14308 0.32848 0.76292 0.0
H53 H 0.15705 0.35171 0.82939 0.0
C54 C 0.15701 0.34852 0.77344 0.0
C55 C 0.30382 0.50165 0.64182 0.0
H56 H 0.29089 0.48457 0.61238 0.0
H57 H 0.32242 0.51138 0.6157 0.0
H58 H 0.29583 0.51435 0.64274 0.0
O59 O 0.24011 0.47319 0.72285 0.0
O60 O 0.19977 0.44565 0.70421 0.0
C61 C 0.23083 0.43179 0.59329 0.0
O62 O 0.2016 0.41281 0.81204 0.0
O63 O 0.24272 0.43993 0.82385 0.0
Zn64 Zn 0.79718 0.19958 0.88623 0.0
O65 O 0.83415 0.20953 0.89769 0.0
C66 C 0.80035 0.21524 9e-05 0.0
Zn67 Zn 0.80911 0.24292 0.89534 0.0
C68 C 0.85052 0.23272 0.90478 0.0
O69 O 0.84482 0.24993 0.90178 0.0
C70 C 0.75526 0.21233 0.87462 0.0
O71 O 0.81118 0.24513 0.79629 0.0
O72 O 0.80215 0.20504 0.79082 0.0
N73 N 0.82052 0.28291 0.915 0.0
C74 C 0.8169 0.30077 0.88364 0.0
C75 C 0.83225 0.3153 0.98156 0.0
N76 N 0.8303 0.29254 0.97555 0.0
N77 N 0.82404 0.32155 0.92514 0.0
C78 C 0.7898 0.14351 0.90655 0.0
C79 C 0.75342 0.12125 0.86234 0.0
N80 N 0.78345 0.15978 0.87779 0.0
N81 N 0.76085 0.14553 0.85013 0.0
N82 N 0.77116 0.11934 0.89763 0.0
H83 H 0.82913 0.16974 0.92726 0.0
H84 H 0.82007 0.13703 0.93266 0.0
H85 H 0.81076 0.15144 -0.01745 0.0
C86 C 0.81399 0.15098 0.94322 0.0
C87 C 0.80751 0.29778 0.81148 0.0
H88 H 0.81167 0.28479 0.78237 0.0
H89 H 0.81648 0.31628 0.78537 0.0
H90 H 0.78678 0.28992 0.812 0.0
O91 O 0.77269 0.23442 0.88901 0.0
O92 O 0.75983 0.19413 0.87209 0.0
C93 C 0.80627 0.22534 0.76301 0.0
O94 O 0.79329 0.19515 0.982 0.0
O95 O 0.80595 0.23626 -0.02598 0.0
Zn96 Zn 0.60521 0.79122 0.03944 0.0
O97 O 0.63227 0.8281 0.04869 0.0
C98 C 0.59518 0.79651 0.17022 0.0
Zn99 Zn 0.57443 0.80343 0.04938 0.0
C100 C 0.62575 0.84462 0.05632 0.0
O101 O 0.60286 0.83922 0.05366 0.0
C102 C 0.55108 0.74896 0.02977 0.0
O103 O 0.57357 0.80396 0.96611 0.0
O104 O 0.60417 0.79414 0.95964 0.0
N105 N 0.54588 0.81461 0.06771 0.0
C106 C 0.52431 0.81092 0.03629 0.0
C107 C 0.5254 0.82663 0.13394 0.0
N108 N 0.5462 0.8246 0.12805 0.0
N109 N 0.51074 0.81819 0.07773 0.0
C110 C 0.65413 0.78409 0.06232 0.0
C111 C 0.63729 0.74767 0.01885 0.0
N112 N 0.63163 0.77894 0.03372 0.0
N113 N 0.62168 0.75636 0.00652 0.0
N114 N 0.65802 0.76417 0.05406 0.0
H115 H 0.66804 0.82349 0.08214 0.0
H116 H 0.69162 0.81409 0.08427 0.0
H117 H 0.6694 0.80575 0.15357 0.0
C118 C 0.6718 0.80836 0.09733 0.0
C119 C 0.51795 0.8011 0.98075 0.0
H120 H 0.53512 0.80541 0.95132 0.0
H121 H 0.50814 0.80982 0.95486 0.0
H122 H 0.50525 0.78042 0.98128 0.0
O123 O 0.54617 0.7662 0.04477 0.0
O124 O 0.57393 0.75368 0.0271 0.0
C125 C 0.58796 0.79842 0.93263 0.0
O126 O 0.60658 0.78833 0.1345 0.0
O127 O 0.57938 0.80209 0.14657 0.0
Zn128 Zn 0.77712 0.56901 0.21896 0.0
O129 O 0.77476 0.56825 0.11907 0.0
C130 C 0.80754 0.54549 0.19888 0.0
Zn131 Zn 0.82027 0.60001 0.2093 0.0
C132 C 0.79471 0.58257 0.08567 0.0
O133 O 0.81539 0.59842 0.113 0.0
C134 C 0.80452 0.58964 0.3397 0.0
O135 O 0.81051 0.62793 0.21892 0.0
O136 O 0.77054 0.59731 0.22588 0.0
N137 N 0.85969 0.62572 0.20189 0.0
C138 C 0.87596 0.64813 0.23204 0.0
C139 C 0.89814 0.63386 0.18779 0.0
N140 N 0.87383 0.61727 0.17419 0.0
N141 N 0.90004 0.65316 0.22489 0.0
C142 C 0.71987 0.51839 0.20694 0.0
C143 C 0.70639 0.51913 0.30661 0.0
N144 N 0.73752 0.54042 0.23726 0.0
N145 N 0.72849 0.54053 0.2987 0.0
N146 N 0.70004 0.50414 0.25097 0.0
H147 H 0.73475 0.52954 0.10456 0.0
H148 H 0.70321 0.50275 0.10912 0.0
H149 H 0.72991 0.4995 0.13169 0.0
C150 C 0.72207 0.5123 0.13366 0.0
C151 C 0.86871 0.66546 0.26622 0.0
H152 H 0.85018 0.66211 0.24883 0.0
H153 H 0.88309 0.68529 0.25506 0.0
H154 H 0.86818 0.66278 0.32245 0.0
O155 O 0.82436 0.60148 0.30493 0.0
O156 O 0.78339 0.5736 0.31498 0.0
C157 C 0.78716 0.62046 0.22741 0.0
O158 O 0.78537 0.54081 0.21304 0.0
O159 O 0.82587 0.56822 0.19723 0.0
Zn160 Zn 0.22881 0.81401 0.37785 0.0
O161 O 0.19157 0.80399 0.38851 0.0
C162 C 0.22308 0.79826 0.50913 0.0
Zn163 Zn 0.21601 0.77055 0.38893 0.0
C164 C 0.17499 0.78104 0.39804 0.0
O165 O 0.18018 0.76347 0.39452 0.0
C166 C 0.27053 0.80155 0.3683 0.0
O167 O 0.21503 0.76887 0.2886 0.0
O168 O 0.22526 0.80934 0.28142 0.0
N169 N 0.20476 0.73062 0.40671 0.0
C170 C 0.20865 0.71283 0.37532 0.0
C171 C 0.19293 0.69831 0.47287 0.0
N172 N 0.19476 0.72097 0.46697 0.0
N173 N 0.20156 0.6921 0.41685 0.0
C174 C 0.23631 0.86992 0.40183 0.0
C175 C 0.27286 0.89175 0.35794 0.0
N176 N 0.24237 0.85353 0.37179 0.0
N177 N 0.26504 0.86751 0.34436 0.0
N178 N 0.25548 0.89395 0.3947 0.0
H179 H 0.19658 0.84399 0.41852 0.0
H180 H 0.20594 0.87682 0.42389 0.0
H181 H 0.21379 0.86241 0.49195 0.0
C182 C 0.21161 0.86267 0.43565 0.0
C183 C 0.21813 0.71587 0.30308 0.0
H184 H 0.21395 0.72885 0.27433 0.0
H185 H 0.20923 0.69739 0.27665 0.0
H186 H 0.23887 0.7238 0.30349 0.0
O187 O 0.25313 0.7795 0.38359 0.0
O188 O 0.26601 0.81972 0.36526 0.0
C189 C 0.22081 0.7887 0.25484 0.0
O190 O 0.23162 0.81784 0.47351 0.0
O191 O 0.21756 0.77686 0.48569 0.0
C192 C 0.4379 0.23671 0.32165 0.0
C193 C 0.4393 0.21698 0.35296 0.0
C194 C 0.43651 0.23712 0.25101 0.0
C195 C 0.42868 0.19701 0.78151 0.0
C196 C 0.42776 0.21676 0.74923 0.0
C197 C 0.43023 0.1971 0.85188 0.0
H198 H 0.44152 0.18322 0.33994 0.0
H199 H 0.43953 0.18418 0.21488 0.0
H200 H 0.42573 0.25078 0.75989 0.0
H201 H 0.42739 0.25034 0.88521 0.0
C202 C 0.44061 0.19852 0.31517 0.0
C203 C 0.43917 0.19892 0.2446 0.0
C204 C 0.42637 0.23549 0.78562 0.0
C205 C 0.42771 0.23543 0.85623 0.0
C206 C 0.43689 0.21804 0.2125 0.0
C207 C 0.43526 0.21815 0.13965 0.0
C208 C 0.43394 0.21773 0.07835 0.0
C209 C 0.42999 0.21644 0.88923 0.0
C210 C 0.43157 0.21651 0.96196 0.0
C211 C 0.43275 0.21725 0.00659 0.0
H212 H 0.43709 0.2512 0.35163 0.0
H213 H 0.43488 0.25202 0.22639 0.0
H214 H 0.4294 0.18228 0.75249 0.0
H215 H 0.43181 0.1823 0.87729 0.0
C216 C 0.22931 0.45137 0.48811 0.0
C217 C 0.23175 0.4328 0.52207 0.0
C218 C 0.22744 0.45023 0.41724 0.0
C219 C 0.22074 0.40299 0.95185 0.0
C220 C 0.21884 0.42188 0.91803 0.0
C221 C 0.22218 0.40431 0.00612 0.0
H222 H 0.23273 0.3982 0.51561 0.0
H223 H 0.22971 0.39629 0.39063 0.0
H224 H 0.21747 0.45628 0.92439 0.0
H225 H 0.21985 0.45825 0.03258 0.0
C226 C 0.23161 0.4129 0.48796 0.0
C227 C 0.22969 0.41173 0.41754 0.0
C228 C 0.21837 0.44145 0.95205 0.0
C229 C 0.21993 0.44284 0.00572 0.0
C230 C 0.22774 0.43042 0.38195 0.0
C231 C 0.22641 0.42935 0.30888 0.0
C232 C 0.22529 0.42846 0.24747 0.0
C233 C 0.22188 0.42416 0.04128 0.0
C234 C 0.22323 0.42544 0.11425 0.0
C235 C 0.22433 0.42708 0.17556 0.0
H236 H 0.22855 0.46629 0.51599 0.0
H237 H 0.2257 0.4646 0.38991 0.0
H238 H 0.22173 0.38822 0.92384 0.0
H239 H 0.22383 0.38991 0.03354 0.0
C240 C 0.81955 0.23713 0.10452 0.0
C241 C 0.80329 0.21453 0.07133 0.0
C242 C 0.81917 0.23818 0.17479 0.0
C243 C 0.78677 0.20176 0.65976 0.0
C244 C 0.80313 0.22478 0.69138 0.0
C245 C 0.78654 0.20013 0.58926 0.0
H246 H 0.77617 0.17473 0.08161 0.0
H247 H 0.7766 0.17642 0.2071 0.0
H248 H 0.83002 0.26439 0.67826 0.0
H249 H 0.82894 0.26161 0.55318 0.0
C250 C 0.78854 0.19233 0.10748 0.0
C251 C 0.78853 0.19336 0.1783 0.0
C252 C 0.81756 0.24653 0.65362 0.0
C253 C 0.81716 0.24489 0.58298 0.0
C254 C 0.80351 0.2164 0.21169 0.0
C255 C 0.80334 0.21773 0.28432 0.0
C256 C 0.8031 0.21871 0.3455 0.0
C257 C 0.80196 0.22165 0.55094 0.0
C258 C 0.80205 0.22006 0.47828 0.0
C259 C 0.80262 0.21943 0.41708 0.0
H260 H 0.83168 0.25426 0.07652 0.0
H261 H 0.831 0.25594 0.20054 0.0
H262 H 0.77493 0.18491 0.68923 0.0
H263 H 0.77456 0.18218 0.56457 0.0
C264 C 0.61764 0.81508 0.27453 0.0
C265 C 0.59704 0.79578 0.24058 0.0
C266 C 0.61691 0.81576 0.34542 0.0
C267 C 0.56687 0.77841 0.82718 0.0
C268 C 0.58714 0.79811 0.86119 0.0
C269 C 0.56767 0.7774 0.75625 0.0
H270 H 0.56013 0.76252 0.2466 0.0
H271 H 0.55894 0.76356 0.37151 0.0
H272 H 0.62428 0.83106 0.85444 0.0
H273 H 0.62557 0.82952 0.7294 0.0
C274 C 0.57613 0.77715 0.2744 0.0
C275 C 0.57537 0.77789 0.34472 0.0
C276 C 0.60836 0.81625 0.82689 0.0
C277 C 0.60914 0.81526 0.7564 0.0
C278 C 0.5957 0.79716 0.3804 0.0
C279 C 0.5947 0.79742 0.45334 0.0
C280 C 0.59307 0.79692 0.51462 0.0
C281 C 0.58878 0.79598 0.72086 0.0
C282 C 0.58964 0.79564 0.64777 0.0
C283 C 0.59112 0.79604 0.58641 0.0
H284 H 0.63356 0.82974 0.24668 0.0
H285 H 0.6326 0.83074 0.37298 0.0
H286 H 0.55081 0.76396 0.85506 0.0
H287 H 0.55198 0.76232 0.72895 0.0
C288 C 0.80013 0.56884 0.4438 0.0
C289 C 0.80648 0.59107 0.4103 0.0
C290 C 0.79863 0.56821 0.51393 0.0
C291 C 0.80113 0.60443 -0.01958 0.0
C292 C 0.79418 0.58199 0.01402 0.0
C293 C 0.80301 0.60485 0.92661 0.0
H294 H 0.81609 0.63009 0.41714 0.0
H295 H 0.81415 0.62924 0.54365 0.0
H296 H 0.78501 0.54314 0.00624 0.0
H297 H 0.78765 0.54393 0.89664 0.0
C298 C 0.81169 0.61306 0.44467 0.0
C299 C 0.8103 0.61244 0.51562 0.0
C300 C 0.78957 0.56027 -0.02096 0.0
C301 C 0.79139 0.56069 0.92468 0.0
C302 C 0.80373 0.58992 0.55005 0.0
C303 C 0.80249 0.58879 0.62289 0.0
C304 C 0.8012 0.58689 0.68405 0.0
C305 C 0.79792 0.58317 0.89021 0.0
C306 C 0.7991 0.5842 0.81716 0.0
C307 C 0.80008 0.58505 0.75577 0.0
H308 H 0.79586 0.55184 0.41586 0.0
H309 H 0.79349 0.55081 0.5403 0.0
H310 H 0.80523 0.62134 0.0085 0.0
H311 H 0.80821 0.62229 0.90031 0.0
C312 C 0.24247 0.79071 0.14945 0.0
C313 C 0.22114 0.78789 0.18345 0.0
C314 C 0.24339 0.79264 0.07852 0.0
C315 C 0.20262 0.79864 0.61387 0.0
C316 C 0.2236 0.80088 0.57946 0.0
C317 C 0.20213 0.79704 0.6847 0.0
H318 H 0.18524 0.78648 0.17685 0.0
H319 H 0.18664 0.78954 0.05199 0.0
H320 H 0.25974 0.80275 0.58451 0.0
H321 H 0.25901 0.80016 0.70933 0.0
C322 C 0.20129 0.78782 0.14926 0.0
C323 C 0.20221 0.78977 0.07886 0.0
C324 C 0.24389 0.80163 0.61272 0.0
C325 C 0.24332 0.79987 0.68299 0.0
C326 C 0.22311 0.792 0.04321 0.0
C327 C 0.22329 0.79335 -0.02991 0.0
C328 C 0.2228 0.79408 0.92538 0.0
C329 C 0.22251 0.79762 0.71918 0.0
C330 C 0.22239 0.79627 0.79212 0.0
C331 C 0.22228 0.79513 0.8535 0.0
H332 H 0.25824 0.7917 0.17737 0.0
H333 H 0.25973 0.79465 0.0512 0.0
H334 H 0.18665 0.79739 0.58638 0.0
H335 H 0.18594 0.79514 0.71261 0.0
C336 C 0.37166 0.12702 0.61599 0.0
C337 C 0.3812 0.14373 0.56081 0.0
C338 C 0.35757 0.10135 0.60225 0.0
C339 C 0.26899 0.93724 0.36725 0.0
C340 C 0.25929 0.91801 0.41642 0.0
C341 C 0.283 0.96231 0.38658 0.0
H342 H 0.38561 0.1483 0.45087 0.0
H343 H 0.36113 0.10348 0.42713 0.0
H344 H 0.25489 0.91016 0.52536 0.0
H345 H 0.27759 0.95494 0.55982 0.0
C346 C 0.37735 0.13529 0.49329 0.0
C347 C 0.36379 0.10994 0.47982 0.0
C348 C 0.26161 0.92458 0.48638 0.0
C349 C 0.27509 0.94999 0.50593 0.0
C350 C 0.35388 0.0931 0.53401 0.0
C351 C 0.33995 0.06733 0.51792 0.0
C352 C 0.32819 0.04558 0.50439 0.0
C353 C 0.28629 0.96865 0.45576 0.0
C354 C 0.30101 0.99437 0.47452 0.0
C355 C 0.3143 0.02027 0.48818 0.0
H356 H 0.37554 0.13373 0.66842 0.0
H357 H 0.34997 0.08806 0.64415 0.0
H358 H 0.26776 0.93258 0.31332 0.0
H359 H 0.29159 0.97666 0.34744 0.0
C360 C 0.35952 0.27547 0.63618 0.0
C361 C 0.34821 0.25457 0.59201 0.0
C362 C 0.34757 0.28903 0.65174 0.0
C363 C 0.23339 0.35307 0.69757 0.0
C364 C 0.24699 0.37551 0.73405 0.0
C365 C 0.24472 0.33904 0.68203 0.0
H366 H 0.31458 0.23029 0.53372 0.0
H367 H 0.29232 0.25305 0.56653 0.0
H368 H 0.28167 0.40019 0.78902 0.0
H369 H 0.30132 0.37495 0.7625 0.0
C370 C 0.32343 0.24597 0.56904 0.0
C371 C 0.31107 0.25926 0.58631 0.0
C372 C 0.27105 0.38285 0.76033 0.0
C373 C 0.28233 0.36878 0.74473 0.0
C374 C 0.32356 0.28114 0.6261 0.0
C375 C 0.31204 0.29569 0.64146 0.0
C376 C 0.30236 0.30788 0.65432 0.0
C377 C 0.26924 0.34724 0.70455 0.0
C378 C 0.28096 0.33337 0.68627 0.0
C379 C 0.29096 0.32176 0.67102 0.0
H380 H 0.37876 0.28265 0.65326 0.0
H381 H 0.35735 0.30594 0.6826 0.0
H382 H 0.21492 0.34739 0.67659 0.0
H383 H 0.23465 0.32221 0.65105 0.0
C384 C 0.88491 0.23048 0.85198 0.0
C385 C 0.87665 0.2404 0.90361 0.0
C386 C 0.91026 0.24218 0.83641 0.0
C387 C 0.09415 0.34967 0.81673 0.0
C388 C 0.10238 0.34133 0.76043 0.0
C389 C 0.06862 0.33794 0.8335 0.0
H390 H 0.88714 0.2692 0.98163 0.0
H391 H 0.93253 0.28924 0.95608 0.0
H392 H 0.09074 0.31356 0.67978 0.0
H393 H 0.04574 0.29179 0.71194 0.0
C394 C 0.89368 0.26126 0.94242 0.0
C395 C 0.91921 0.27276 0.92739 0.0
C396 C 0.08485 0.31976 0.72456 0.0
C397 C 0.05926 0.30781 0.74177 0.0
C398 C 0.92719 0.26328 0.87377 0.0
C399 C 0.95284 0.27517 0.85616 0.0
C400 C 0.97451 0.28523 0.84133 0.0
C401 C 0.05122 0.3173 0.79507 0.0
C402 C 0.02525 0.30621 0.81132 0.0
C403 C 0.99975 0.29662 0.82416 0.0
H404 H 0.87168 0.21481 0.82059 0.0
H405 H 0.9166 0.23504 0.79458 0.0
H406 H 0.10728 0.36674 0.84347 0.0
H407 H 0.06245 0.34542 0.8749 0.0
C408 C 0.64164 0.8875 0.09736 0.0
C409 C 0.64452 0.87054 0.05553 0.0
C410 C 0.65556 0.91298 0.08294 0.0
C411 C 0.76943 0.07873 0.89107 0.0
C412 C 0.76635 0.09635 0.92969 0.0
C413 C 0.75591 0.05319 0.90781 0.0
H414 H 0.66353 0.8656 -0.03181 0.0
H415 H 0.68798 0.9101 0.95926 0.0
H416 H 0.74741 0.10162 0.00066 0.0
H417 H 0.7243 0.05688 0.03161 0.0
C418 C 0.6618 0.87879 0.00162 0.0
C419 C 0.67519 0.9041 -0.01365 0.0
C420 C 0.75068 0.08847 -0.02844 0.0
C421 C 0.73708 0.06297 -0.01183 0.0
C422 C 0.67194 0.92105 0.02704 0.0
C423 C 0.68538 0.94666 0.0088 0.0
C424 C 0.69706 0.96849 -0.00409 0.0
C425 C 0.73943 0.04517 0.96382 0.0
C426 C 0.72472 0.01912 0.97957 0.0
C427 C 0.71112 0.99365 -0.0222 0.0
H428 H 0.62786 0.88095 0.1385 0.0
H429 H 0.6531 0.92624 0.11411 0.0
H430 H 0.78066 0.08455 0.8447 0.0
H431 H 0.75768 0.03971 0.87577 0.0
C432 C 0.78611 0.65931 0.25832 0.0
C433 C 0.77775 0.63738 0.21935 0.0
C434 C 0.77513 0.67411 0.24689 0.0
C435 C 0.67404 0.73523 0.04129 0.0
C436 C 0.67658 0.757 0.07364 0.0
C437 C 0.6858 0.72277 0.06514 0.0
H438 H 0.75203 0.61315 0.14023 0.0
H439 H 0.73317 0.63886 0.12132 0.0
H440 H 0.69743 0.78448 0.15402 0.0
H441 H 0.72162 0.7638 0.18981 0.0
C442 C 0.75857 0.63008 0.17078 0.0
C443 C 0.74783 0.64462 0.1597 0.0
C444 C 0.69449 0.76777 0.12744 0.0
C445 C 0.70796 0.75576 0.14873 0.0
C446 C 0.75622 0.66661 0.19709 0.0
C447 C 0.74527 0.68134 0.18215 0.0
C448 C 0.73505 0.69259 0.16632 0.0
C449 C 0.70278 0.73289 0.11823 0.0
C450 C 0.7149 0.71943 0.13816 0.0
C451 C 0.7238 0.70655 0.15027 0.0
H452 H 0.80069 0.66472 0.2967 0.0
H453 H 0.78138 0.69127 0.27601 0.0
H454 H 0.66172 0.72662 -0.00215 0.0
H455 H 0.68196 0.70533 0.04049 0.0
C456 C 0.94265 0.68552 0.19916 0.0
C457 C 0.92377 0.67324 0.24866 0.0
C458 C 0.96797 0.69676 0.21664 0.0
C459 C 0.13247 0.76333 0.44648 0.0
C460 C 0.14922 0.7738 0.39145 0.0
C461 C 0.10671 0.75162 0.4337 0.0
H462 H 0.91645 0.6645 0.35669 0.0
H463 H 0.96154 0.68649 0.38889 0.0
H464 H 0.15389 0.77982 0.28198 0.0
H465 H 0.10874 0.7591 0.25967 0.0
C466 C 0.9307 0.6745 0.31795 0.0
C467 C 0.95627 0.68638 0.33589 0.0
C468 C 0.14078 0.77253 0.32468 0.0
C469 C 0.11529 0.76051 0.3119 0.0
C470 C 0.97471 0.69689 0.28467 0.0
C471 C 1.00061 0.70794 0.30162 0.0
C472 C 0.02586 0.71714 0.3168 0.0
C473 C 0.09841 0.75017 0.36625 0.0
C474 C 0.07249 0.73812 0.35162 0.0
C475 C 0.05093 0.72824 0.33571 0.0
H476 H 0.93762 0.68416 0.14556 0.0
H477 H 0.98219 0.70484 0.17677 0.0
H478 H 0.13923 0.76363 0.49789 0.0
H479 H 0.0934 0.74334 0.47558 0.0
C480 C 0.51465 0.28688 0.47303 0.0
C481 C 0.49588 0.28845 0.511 0.0
C482 C 0.53478 0.30826 0.44412 0.0
C483 C 0.65568 0.47924 0.28734 0.0
C484 C 0.67626 0.4798 0.25237 0.0
C485 C 0.63595 0.45724 0.31588 0.0
H486 H 0.48352 0.31367 0.54881 0.0
H487 H 0.51954 0.35168 0.49894 0.0
H488 H 0.69022 0.45544 0.21687 0.0
H489 H 0.65365 0.41593 0.2606 0.0
C490 C 0.49774 0.31198 0.51994 0.0
C491 C 0.51825 0.33359 0.49147 0.0
C492 C 0.67478 0.4562 0.24166 0.0
C493 C 0.65409 0.43361 0.26829 0.0
C494 C 0.53677 0.33177 0.45308 0.0
C495 C 0.55783 0.35382 0.42238 0.0
C496 C 0.57544 0.37228 0.39673 0.0
C497 C 0.6349 0.4342 0.30732 0.0
C498 C 0.61404 0.41171 0.33864 0.0
C499 C 0.59629 0.39368 0.36583 0.0
H500 H 0.5135 0.26893 0.46411 0.0
H501 H 0.54877 0.3064 0.41451 0.0
H502 H 0.65591 0.49669 0.29757 0.0
H503 H 0.62154 0.45841 0.34539 0.0
C504 C 0.20156 0.48652 0.62079 0.0
C505 C 0.2149 0.48928 0.68171 0.0
C506 C 0.20116 0.50718 0.59186 0.0
C507 C 0.22267 0.67354 0.48222 0.0
C508 C 0.20867 0.67253 0.42347 0.0
C509 C 0.2226 0.65224 0.50871 0.0
H510 H 0.23893 0.51583 0.7588 0.0
H511 H 0.23738 0.55181 0.70949 0.0
H512 H 0.18381 0.64665 0.34598 0.0
H513 H 0.18569 0.6096 0.38886 0.0
C514 C 0.22803 0.5131 0.71271 0.0
C515 C 0.22729 0.53368 0.68431 0.0
C516 C 0.19561 0.64889 0.38964 0.0
C517 C 0.1962 0.62744 0.41531 0.0
C518 C 0.21392 0.53091 0.62349 0.0
C519 C 0.21318 0.55224 0.59323 0.0
C520 C 0.21206 0.56952 0.56623 0.0
C521 C 0.2093 0.62888 0.47618 0.0
C522 C 0.20951 0.60699 0.5061 0.0
C523 C 0.21052 0.58967 0.53376 0.0
H524 H 0.19202 0.46855 0.59454 0.0
H525 H 0.19092 0.50464 0.5446 0.0
H526 H 0.23237 0.69087 0.51127 0.0
H527 H 0.2328 0.65411 0.55565 0.0
C528 C 0.72429 0.22739 0.86904 0.0
C529 C 0.73098 0.20925 0.85129 0.0
C530 C 0.70305 0.22665 0.84002 0.0
C531 C 0.54852 0.18449 0.57092 0.0
C532 C 0.54158 0.20251 0.58981 0.0
C533 C 0.57039 0.18526 0.59834 0.0
H534 H 0.72117 0.17667 0.78767 0.0
H535 H 0.68382 0.1753 0.73736 0.0
H536 H 0.5528 0.23502 0.65443 0.0
H537 H 0.59066 0.23653 0.70106 0.0
C538 C 0.71607 0.19043 0.8038 0.0
C539 C 0.69491 0.18982 0.77447 0.0
C540 C 0.55792 0.22155 0.63581 0.0
C541 C 0.57938 0.22208 0.66395 0.0
C542 C 0.68827 0.20791 0.79229 0.0
C543 C 0.66627 0.20708 0.76142 0.0
C544 C 0.64779 0.20594 0.73485 0.0
C545 C 0.58574 0.20382 0.64624 0.0
C546 C 0.60776 0.20434 0.67771 0.0
C547 C 0.62606 0.20475 0.70383 0.0
H548 H 0.73567 0.24239 0.90469 0.0
H549 H 0.69831 0.24084 0.85434 0.0
H550 H 0.53608 0.16883 0.53849 0.0
H551 H 0.57472 0.1708 0.58383 0.0
C552 C 0.53221 0.7162 0.95467 0.0
C553 C 0.53035 0.72498 0.00374 0.0
C554 C 0.51145 0.69505 0.92595 0.0
C555 C 0.34713 0.54652 0.82751 0.0
C556 C 0.34697 0.53514 0.76414 0.0
C557 C 0.36863 0.56774 0.85308 0.0
H558 H 0.50561 0.71879 0.08987 0.0
H559 H 0.46947 0.68098 0.04063 0.0
H560 H 0.37075 0.53942 0.67653 0.0
H561 H 0.40803 0.57878 0.71852 0.0
C562 C 0.50751 0.71218 0.03988 0.0
C563 C 0.48687 0.69076 0.01161 0.0
C564 C 0.36943 0.54758 0.72449 0.0
C565 C 0.39102 0.56984 0.74938 0.0
C566 C 0.48876 0.68194 0.96264 0.0
C567 C 0.46742 0.65987 0.93258 0.0
C568 C 0.45013 0.64154 0.90531 0.0
C569 C 0.39084 0.57967 0.81483 0.0
C570 C 0.4128 0.60182 0.84402 0.0
C571 C 0.43006 0.62004 0.87221 0.0
H572 H 0.5494 0.72631 0.9249 0.0
H573 H 0.51311 0.68896 0.87501 0.0
H574 H 0.33067 0.53768 0.86039 0.0
H575 H 0.3678 0.57473 0.90351 0.0
C576 C 0.82667 0.52802 0.11834 0.0
C577 C 0.81061 0.52451 0.17393 0.0
C578 C 0.8272 0.50746 0.0889 0.0
C579 C 0.80065 0.33929 0.98363 0.0
C580 C 0.81727 0.34135 0.93026 0.0
C581 C 0.80022 0.36066 -0.00533 0.0
H582 H 0.78192 0.49678 0.24084 0.0
H583 H 0.78352 0.46089 0.19052 0.0
H584 H 0.8466 0.3687 0.86391 0.0
H585 H 0.84445 0.40546 0.90841 0.0
C586 C 0.7949 0.50006 0.19905 0.0
C587 C 0.79567 0.47955 0.17008 0.0
C588 C 0.83279 0.36579 0.90288 0.0
C589 C 0.83199 0.38701 0.92962 0.0
C590 C 0.81178 0.48311 0.11463 0.0
C591 C 0.81265 0.46197 0.08381 0.0
C592 C 0.81388 0.44475 0.05677 0.0
C593 C 0.81599 0.38479 -0.03136 0.0
C594 C 0.81553 0.40636 -0.00027 0.0
C595 C 0.81516 0.4243 0.02554 0.0
H596 H 0.83829 0.54653 0.0964 0.0
H597 H 0.83959 0.51056 0.04573 0.0
H598 H 0.78898 0.32158 -0.00857 0.0
H599 H 0.78787 0.35799 0.03763 0.0
C600 C 0.47374 0.82454 0.05198 0.0
C601 C 0.48401 0.81096 0.08403 0.0
C602 C 0.45164 0.8238 0.07835 0.0
C603 C 0.30488 0.79102 0.37269 0.0
C604 C 0.29458 0.80467 0.34306 0.0
C605 C 0.32627 0.79182 0.34392 0.0
H606 H 0.47822 0.78618 0.16903 0.0
H607 H 0.44087 0.78551 0.2149 0.0
H608 H 0.29744 0.82862 0.25827 0.0
H609 H 0.33482 0.82986 0.20773 0.0
C610 C 0.47072 0.79625 0.14145 0.0
C611 C 0.44948 0.79621 0.16878 0.0
C612 C 0.3056 0.81865 0.28339 0.0
C613 C 0.32673 0.81915 0.25412 0.0
C614 C 0.43974 0.81002 0.13807 0.0
C615 C 0.4177 0.80957 0.16895 0.0
C616 C 0.39936 0.8092 0.1946 0.0
C617 C 0.33725 0.80583 0.28428 0.0
C618 C 0.35928 0.80668 0.25356 0.0
C619 C 0.37769 0.80789 0.22629 0.0
H620 H 0.48363 0.83684 0.00943 0.0
H621 H 0.44448 0.8347 0.05354 0.0
H622 H 0.29633 0.77965 0.41784 0.0
H623 H 0.33407 0.78132 0.36776 0.0
loop_
_geom_bond_atom_site_label_1
_geom_bond_atom_site_label_2
_geom_bond_distance
_geom_bond_site_symmetry_2
_ccdc_geom_bond_type
Zn0 O1 2.055 . S
Zn0 O8 2.046 . S
Zn0 N16 2.036 . S
Zn0 O28 2.053 . S
Zn0 O30 2.066 . S
O1 Zn0 2.055 . S
O1 C4 1.259 . S
C2 O30 1.256 . S
C2 O31 1.244 . S
Zn3 O5 2.046 . S
Zn3 O7 2.055 . S
Zn3 N9 2.036 . S
Zn3 O27 2.066 . S
Zn3 O31 2.053 . S
C4 O1 1.259 . S
C4 O5 1.254 . S
O5 Zn3 2.046 . S
O5 C4 1.254 . S
C6 O27 1.256 . S
C6 O28 1.244 . S
O7 Zn3 2.055 . S
O7 C29 1.259 . S
O8 Zn0 2.046 . S
O8 C29 1.254 . S
N9 Zn3 2.036 . S
N9 C10 1.298 . S
N9 N12 1.398 . S
C10 N9 1.298 . S
C10 N13 1.367 . S
C10 C23 1.481 . S
C11 N12 1.299 . S
C11 N13 1.379 . S
N12 N9 1.398 . S
N12 C11 1.299 . S
N13 C10 1.367 . S
N13 C11 1.379 . S
C14 N16 1.298 . S
C14 N18 1.367 . S
C14 C22 1.481 . S
C15 N17 1.299 . S
C15 N18 1.379 . S
N16 Zn0 2.036 . S
N16 C14 1.298 . S
N16 N17 1.398 . S
N17 C15 1.299 . S
N17 N16 1.398 . S
N18 C14 1.367 . S
N18 C15 1.379 . S
H19 C22 0.980 . S
H20 C22 0.981 . S
H21 C22 0.981 . S
C22 C14 1.481 . S
C22 H19 0.980 . S
C22 H20 0.981 . S
C22 H21 0.981 . S
C23 C10 1.481 . S
C23 H24 0.980 . S
C23 H25 0.981 . S
C23 H26 0.981 . S
H24 C23 0.980 . S
H25 C23 0.981 . S
H26 C23 0.981 . S
O27 Zn3 2.066 . S
O27 C6 1.256 . S
O28 Zn0 2.053 . S
O28 C6 1.244 . S
C29 O7 1.259 . S
C29 O8 1.254 . S
O30 Zn0 2.066 . S
O30 C2 1.256 . S
O31 C2 1.244 . S
O31 Zn3 2.053 . S
Zn32 O33 2.055 . S
Zn32 O40 2.046 . S
Zn32 N48 2.036 . S
Zn32 O60 2.053 . S
Zn32 O62 2.066 . S
O33 Zn32 2.055 . S
O33 C36 1.259 . S
C34 O62 1.256 . S
C34 O63 1.244 . S
Zn35 O37 2.046 . S
Zn35 O39 2.055 . S
Zn35 N41 2.036 . S
Zn35 O59 2.066 . S
Zn35 O63 2.053 . S
C36 O33 1.259 . S
C36 O37 1.254 . S
O37 Zn35 2.046 . S
O37 C36 1.254 . S
C38 O59 1.256 . S
C38 O60 1.244 . S
O39 Zn35 2.055 . S
O39 C61 1.259 . S
O40 Zn32 2.046 . S
O40 C61 1.254 . S
N41 Zn35 2.036 . S
N41 C42 1.298 . S
N41 N44 1.398 . S
C42 N41 1.298 . S
C42 N45 1.367 . S
C42 C55 1.481 . S
C43 N44 1.299 . S
C43 N45 1.379 . S
N44 N41 1.398 . S
N44 C43 1.299 . S
N45 C42 1.367 . S
N45 C43 1.379 . S
C46 N48 1.298 . S
C46 N50 1.367 . S
C46 C54 1.481 . S
C47 N49 1.299 . S
C47 N50 1.379 . S
N48 Zn32 2.036 . S
N48 C46 1.298 . S
N48 N49 1.398 . S
N49 C47 1.299 . S
N49 N48 1.398 . S
N50 C46 1.367 . S
N50 C47 1.379 . S
H51 C54 0.980 . S
H52 C54 0.981 . S
H53 C54 0.981 . S
C54 C46 1.481 . S
C54 H51 0.980 . S
C54 H52 0.981 . S
C54 H53 0.981 . S
C55 C42 1.481 . S
C55 H56 0.980 . S
C55 H57 0.981 . S
C55 H58 0.981 . S
H56 C55 0.980 . S
H57 C55 0.981 . S
H58 C55 0.981 . S
O59 Zn35 2.066 . S
O59 C38 1.256 . S
O60 Zn32 2.053 . S
O60 C38 1.244 . S
C61 O39 1.259 . S
C61 O40 1.254 . S
O62 Zn32 2.066 . S
O62 C34 1.256 . S
O63 C34 1.244 . S
O63 Zn35 2.053 . S
Zn64 O65 2.055 . S
Zn64 O72 2.046 . S
Zn64 N80 2.036 . S
Zn64 O92 2.053 . S
Zn64 O94 2.066 1_556 S
O65 Zn64 2.055 . S
O65 C68 1.259 . S
C66 O94 1.256 . S
C66 O95 1.244 . S
Zn67 O69 2.046 . S
Zn67 O71 2.055 . S
Zn67 N73 2.036 . S
Zn67 O91 2.066 . S
Zn67 O95 2.053 1_556 S
C68 O65 1.259 . S
C68 O69 1.254 . S
O69 Zn67 2.046 . S
O69 C68 1.254 . S
C70 O91 1.256 . S
C70 O92 1.244 . S
O71 Zn67 2.055 . S
O71 C93 1.259 . S
O72 Zn64 2.046 . S
O72 C93 1.254 . S
N73 Zn67 2.036 . S
N73 C74 1.298 . S
N73 N76 1.398 . S
C74 N73 1.298 . S
C74 N77 1.367 . S
C74 C87 1.481 . S
C75 N76 1.299 . S
C75 N77 1.379 . S
N76 N73 1.398 . S
N76 C75 1.299 . S
N77 C74 1.367 . S
N77 C75 1.379 . S
C78 N80 1.298 . S
C78 N82 1.367 . S
C78 C86 1.481 . S
C79 N81 1.299 . S
C79 N82 1.379 . S
N80 Zn64 2.036 . S
N80 C78 1.298 . S
N80 N81 1.398 . S
N81 C79 1.299 . S
N81 N80 1.398 . S
N82 C78 1.367 . S
N82 C79 1.379 . S
H83 C86 0.980 . S
H84 C86 0.981 . S
H85 C86 0.981 1_554 S
C86 C78 1.481 . S
C86 H83 0.980 . S
C86 H84 0.981 . S
C86 H85 0.981 1_556 S
C87 C74 1.481 . S
C87 H88 0.980 . S
C87 H89 0.981 . S
C87 H90 0.981 . S
H88 C87 0.980 . S
H89 C87 0.981 . S
H90 C87 0.981 . S
O91 Zn67 2.066 . S
O91 C70 1.256 . S
O92 Zn64 2.053 . S
O92 C70 1.244 . S
C93 O71 1.259 . S
C93 O72 1.254 . S
O94 Zn64 2.066 1_554 S
O94 C66 1.256 . S
O95 C66 1.244 . S
O95 Zn67 2.053 1_554 S
Zn96 O97 2.055 . S
Zn96 O104 2.046 1_554 S
Zn96 N112 2.036 . S
Zn96 O124 2.053 . S
Zn96 O126 2.066 . S
O97 Zn96 2.055 . S
O97 C100 1.259 . S
C98 O126 1.256 . S
C98 O127 1.244 . S
Zn99 O101 2.046 . S
Zn99 O103 2.055 1_554 S
Zn99 N105 2.036 . S
Zn99 O123 2.066 . S
Zn99 O127 2.053 . S
C100 O97 1.259 . S
C100 O101 1.254 . S
O101 Zn99 2.046 . S
O101 C100 1.254 . S
C102 O123 1.256 . S
C102 O124 1.244 . S
O103 Zn99 2.055 1_556 S
O103 C125 1.259 . S
O104 Zn96 2.046 1_556 S
O104 C125 1.254 . S
N105 Zn99 2.036 . S
N105 C106 1.298 . S
N105 N108 1.398 . S
C106 N105 1.298 . S
C106 N109 1.367 . S
C106 C119 1.481 1_554 S
C107 N108 1.299 . S
C107 N109 1.379 . S
N108 N105 1.398 . S
N108 C107 1.299 . S
N109 C106 1.367 . S
N109 C107 1.379 . S
C110 N112 1.298 . S
C110 N114 1.367 . S
C110 C118 1.481 . S
C111 N113 1.299 . S
C111 N114 1.379 . S
N112 Zn96 2.036 . S
N112 C110 1.298 . S
N112 N113 1.398 . S
N113 C111 1.299 . S
N113 N112 1.398 . S
N114 C110 1.367 . S
N114 C111 1.379 . S
H115 C118 0.980 . S
H116 C118 0.981 . S
H117 C118 0.981 . S
C118 C110 1.481 . S
C118 H115 0.980 . S
C118 H116 0.981 . S
C118 H117 0.981 . S
C119 C106 1.481 1_556 S
C119 H120 0.980 . S
C119 H121 0.981 . S
C119 H122 0.981 . S
H120 C119 0.980 . S
H121 C119 0.981 . S
H122 C119 0.981 . S
O123 Zn99 2.066 . S
O123 C102 1.256 . S
O124 Zn96 2.053 . S
O124 C102 1.244 . S
C125 O103 1.259 . S
C125 O104 1.254 . S
O126 Zn96 2.066 . S
O126 C98 1.256 . S
O127 C98 1.244 . S
O127 Zn99 2.053 . S
Zn128 O129 2.055 . S
Zn128 O136 2.046 . S
Zn128 N144 2.036 . S
Zn128 O156 2.053 . S
Zn128 O158 2.066 . S
O129 Zn128 2.055 . S
O129 C132 1.259 . S
C130 O158 1.256 . S
C130 O159 1.244 . S
Zn131 O133 2.046 . S
Zn131 O135 2.055 . S
Zn131 N137 2.036 . S
Zn131 O155 2.066 . S
Zn131 O159 2.053 . S
C132 O129 1.259 . S
C132 O133 1.254 . S
O133 Zn131 2.046 . S
O133 C132 1.254 . S
C134 O155 1.256 . S
C134 O156 1.244 . S
O135 Zn131 2.055 . S
O135 C157 1.259 . S
O136 Zn128 2.046 . S
O136 C157 1.254 . S
N137 Zn131 2.036 . S
N137 C138 1.298 . S
N137 N140 1.398 . S
C138 N137 1.298 . S
C138 N141 1.367 . S
C138 C151 1.481 . S
C139 N140 1.299 . S
C139 N141 1.379 . S
N140 N137 1.398 . S
N140 C139 1.299 . S
N141 C138 1.367 . S
N141 C139 1.379 . S
C142 N144 1.298 . S
C142 N146 1.367 . S
C142 C150 1.481 . S
C143 N145 1.299 . S
C143 N146 1.379 . S
N144 Zn128 2.036 . S
N144 C142 1.298 . S
N144 N145 1.398 . S
N145 C143 1.299 . S
N145 N144 1.398 . S
N146 C142 1.367 . S
N146 C143 1.379 . S
H147 C150 0.980 . S
H148 C150 0.981 . S
H149 C150 0.981 . S
C150 C142 1.481 . S
C150 H147 0.980 . S
C150 H148 0.981 . S
C150 H149 0.981 . S
C151 C138 1.481 . S
C151 H152 0.980 . S
C151 H153 0.981 . S
C151 H154 0.981 . S
H152 C151 0.980 . S
H153 C151 0.981 . S
H154 C151 0.981 . S
O155 Zn131 2.066 . S
O155 C134 1.256 . S
O156 Zn128 2.053 . S
O156 C134 1.244 . S
C157 O135 1.259 . S
C157 O136 1.254 . S
O158 Zn128 2.066 . S
O158 C130 1.256 . S
O159 C130 1.244 . S
O159 Zn131 2.053 . S
Zn160 O161 2.055 . S
Zn160 O168 2.046 . S
Zn160 N176 2.036 . S
Zn160 O188 2.053 . S
Zn160 O190 2.066 . S
O161 Zn160 2.055 . S
O161 C164 1.259 . S
C162 O190 1.256 . S
C162 O191 1.244 . S
Zn163 O165 2.046 . S
Zn163 O167 2.055 . S
Zn163 N169 2.036 . S
Zn163 O187 2.066 . S
Zn163 O191 2.053 . S
C164 O161 1.259 . S
C164 O165 1.254 . S
O165 Zn163 2.046 . S
O165 C164 1.254 . S
C166 O187 1.256 . S
C166 O188 1.244 . S
O167 Zn163 2.055 . S
O167 C189 1.259 . S
O168 Zn160 2.046 . S
O168 C189 1.254 . S
N169 Zn163 2.036 . S
N169 C170 1.298 . S
N169 N172 1.398 . S
C170 N169 1.298 . S
C170 N173 1.367 . S
C170 C183 1.481 . S
C171 N172 1.299 . S
C171 N173 1.379 . S
N172 N169 1.398 . S
N172 C171 1.299 . S
N173 C170 1.367 . S
N173 C171 1.379 . S
C174 N176 1.298 . S
C174 N178 1.367 . S
C174 C182 1.481 . S
C175 N177 1.299 . S
C175 N178 1.379 . S
N176 Zn160 2.036 . S
N176 C174 1.298 . S
N176 N177 1.398 . S
N177 C175 1.299 . S
N177 N176 1.398 . S
N178 C174 1.367 . S
N178 C175 1.379 . S
H179 C182 0.980 . S
H180 C182 0.981 . S
H181 C182 0.981 . S
C182 C174 1.481 . S
C182 H179 0.980 . S
C182 H180 0.981 . S
C182 H181 0.981 . S
C183 C170 1.481 . S
C183 H184 0.980 . S
C183 H185 0.981 . S
C183 H186 0.981 . S
H184 C183 0.980 . S
H185 C183 0.981 . S
H186 C183 0.981 . S
O187 Zn163 2.066 . S
O187 C166 1.256 . S
O188 Zn160 2.053 . S
O188 C166 1.244 . S
C189 O167 1.259 . S
C189 O168 1.254 . S
O190 Zn160 2.066 . S
O190 C162 1.256 . S
O191 C162 1.244 . S
O191 Zn163 2.053 . S
C192 C193 1.332 . S
C192 C194 1.345 . S
C192 H212 0.932 . S
C193 C192 1.332 . S
C193 C202 1.332 . S
C194 C192 1.345 . S
C194 C206 1.334 . S
C194 H213 0.928 . S
C195 C196 1.332 . S
C195 C197 1.345 . S
C195 H214 0.932 . S
C196 C195 1.332 . S
C196 C204 1.332 . S
C197 C195 1.345 . S
C197 C209 1.334 . S
C197 H215 0.928 . S
H198 C202 0.932 . S
H199 C203 0.928 . S
H200 C204 0.932 . S
H201 C205 0.928 . S
C202 C193 1.332 . S
C202 H198 0.932 . S
C202 C203 1.345 . S
C203 H199 0.928 . S
C203 C202 1.345 . S
C203 C206 1.334 . S
C204 C196 1.332 . S
C204 H200 0.932 . S
C204 C205 1.345 . S
C205 H201 0.928 . S
C205 C204 1.345 . S
C205 C209 1.334 . S
C206 C194 1.334 . S
C206 C203 1.334 . S
C206 C207 1.487 . S
C207 C206 1.487 . S
C207 C208 1.185 . S
C208 C207 1.185 . S
C208 C211 1.482 . S
C209 C197 1.334 . S
C209 C205 1.334 . S
C209 C210 1.487 . S
C210 C209 1.487 . S
C210 C211 1.185 1_556 S
C211 C208 1.482 . S
C211 C210 1.185 1_554 S
H212 C192 0.932 . S
H213 C194 0.928 . S
H214 C195 0.932 . S
H215 C197 0.928 . S
C216 C217 1.332 . S
C216 C218 1.345 . S
C216 H236 0.932 . S
C217 C216 1.332 . S
C217 C226 1.332 . S
C218 C216 1.345 . S
C218 C230 1.334 . S
C218 H237 0.928 . S
C219 C220 1.332 . S
C219 C221 1.345 1_556 S
C219 H238 0.932 . S
C220 C219 1.332 . S
C220 C228 1.332 . S
C221 C219 1.345 1_554 S
C221 C233 1.334 . S
C221 H239 0.928 . S
H222 C226 0.932 . S
H223 C227 0.928 . S
H224 C228 0.932 . S
H225 C229 0.928 . S
C226 C217 1.332 . S
C226 H222 0.932 . S
C226 C227 1.345 . S
C227 H223 0.928 . S
C227 C226 1.345 . S
C227 C230 1.334 . S
C228 C220 1.332 . S
C228 H224 0.932 . S
C228 C229 1.345 1_556 S
C229 H225 0.928 . S
C229 C228 1.345 1_554 S
C229 C233 1.334 . S
C230 C218 1.334 . S
C230 C227 1.334 . S
C230 C231 1.487 . S
C231 C230 1.487 . S
C231 C232 1.185 . S
C232 C231 1.185 . S
C232 C235 1.482 . S
C233 C221 1.334 . S
C233 C229 1.334 . S
C233 C234 1.487 . S
C234 C233 1.487 . S
C234 C235 1.185 . S
C235 C232 1.482 . S
C235 C234 1.185 . S
H236 C216 0.932 . S
H237 C218 0.928 . S
H238 C219 0.932 . S
H239 C221 0.928 . S
C240 C241 1.332 . S
C240 C242 1.345 . S
C240 H260 0.932 . S
C241 C240 1.332 . S
C241 C250 1.332 . S
C242 C240 1.345 . S
C242 C254 1.334 . S
C242 H261 0.928 . S
C243 C244 1.332 . S
C243 C245 1.345 . S
C243 H262 0.932 . S
C244 C243 1.332 . S
C244 C252 1.332 . S
C245 C243 1.345 . S
C245 C257 1.334 . S
C245 H263 0.928 . S
H246 C250 0.932 . S
H247 C251 0.928 . S
H248 C252 0.932 . S
H249 C253 0.928 . S
C250 C241 1.332 . S
C250 H246 0.932 . S
C250 C251 1.345 . S
C251 H247 0.928 . S
C251 C250 1.345 . S
C251 C254 1.334 . S
C252 C244 1.332 . S
C252 H248 0.932 . S
C252 C253 1.345 . S
C253 H249 0.928 . S
C253 C252 1.345 . S
C253 C257 1.334 . S
C254 C242 1.334 . S
C254 C251 1.334 . S
C254 C255 1.487 . S
C255 C254 1.487 . S
C255 C256 1.185 . S
C256 C255 1.185 . S
C256 C259 1.482 . S
C257 C245 1.334 . S
C257 C253 1.334 . S
C257 C258 1.487 . S
C258 C257 1.487 . S
C258 C259 1.185 . S
C259 C256 1.482 . S
C259 C258 1.185 . S
H260 C240 0.932 . S
H261 C242 0.928 . S
H262 C243 0.932 . S
H263 C245 0.928 . S
C264 C265 1.332 . S
C264 C266 1.345 . S
C264 H284 0.932 . S
C265 C264 1.332 . S
C265 C274 1.332 . S
C266 C264 1.345 . S
C266 C278 1.334 . S
C266 H285 0.928 . S
C267 C268 1.332 . S
C267 C269 1.345 . S
C267 H286 0.932 . S
C268 C267 1.332 . S
C268 C276 1.332 . S
C269 C267 1.345 . S
C269 C281 1.334 . S
C269 H287 0.928 . S
H270 C274 0.932 . S
H271 C275 0.928 . S
H272 C276 0.932 . S
H273 C277 0.928 . S
C274 C265 1.332 . S
C274 H270 0.932 . S
C274 C275 1.345 . S
C275 H271 0.928 . S
C275 C274 1.345 . S
C275 C278 1.334 . S
C276 C268 1.332 . S
C276 H272 0.932 . S
C276 C277 1.345 . S
C277 H273 0.928 . S
C277 C276 1.345 . S
C277 C281 1.334 . S
C278 C266 1.334 . S
C278 C275 1.334 . S
C278 C279 1.487 . S
C279 C278 1.487 . S
C279 C280 1.185 . S
C280 C279 1.185 . S
C280 C283 1.482 . S
C281 C269 1.334 . S
C281 C277 1.334 . S
C281 C282 1.487 . S
C282 C281 1.487 . S
C282 C283 1.185 . S
C283 C280 1.482 . S
C283 C282 1.185 . S
H284 C264 0.932 . S
H285 C266 0.928 . S
H286 C267 0.932 . S
H287 C269 0.928 . S
C288 C289 1.332 . S
C288 C290 1.345 . S
C288 H308 0.932 . S
C289 C288 1.332 . S
C289 C298 1.332 . S
C290 C288 1.345 . S
C290 C302 1.334 . S
C290 H309 0.928 . S
C291 C292 1.332 . S
C291 C293 1.345 1_554 S
C291 H310 0.932 . S
C292 C291 1.332 . S
C292 C300 1.332 . S
C293 C291 1.345 1_556 S
C293 C305 1.334 . S
C293 H311 0.928 . S
H294 C298 0.932 . S
H295 C299 0.928 . S
H296 C300 0.932 . S
H297 C301 0.928 . S
C298 C289 1.332 . S
C298 H294 0.932 . S
C298 C299 1.345 . S
C299 H295 0.928 . S
C299 C298 1.345 . S
C299 C302 1.334 . S
C300 C292 1.332 . S
C300 H296 0.932 . S
C300 C301 1.345 1_554 S
C301 H297 0.928 . S
C301 C300 1.345 1_556 S
C301 C305 1.334 . S
C302 C290 1.334 . S
C302 C299 1.334 . S
C302 C303 1.487 . S
C303 C302 1.487 . S
C303 C304 1.185 . S
C304 C303 1.185 . S
C304 C307 1.482 . S
C305 C293 1.334 . S
C305 C301 1.334 . S
C305 C306 1.487 . S
C306 C305 1.487 . S
C306 C307 1.185 . S
C307 C304 1.482 . S
C307 C306 1.185 . S
H308 C288 0.932 . S
H309 C290 0.928 . S
H310 C291 0.932 . S
H311 C293 0.928 . S
C312 C313 1.332 . S
C312 C314 1.345 . S
C312 H332 0.932 . S
C313 C312 1.332 . S
C313 C322 1.332 . S
C314 C312 1.345 . S
C314 C326 1.334 . S
C314 H333 0.928 . S
C315 C316 1.332 . S
C315 C317 1.345 . S
C315 H334 0.932 . S
C316 C315 1.332 . S
C316 C324 1.332 . S
C317 C315 1.345 . S
C317 C329 1.334 . S
C317 H335 0.928 . S
H318 C322 0.932 . S
H319 C323 0.928 . S
H320 C324 0.932 . S
H321 C325 0.928 . S
C322 C313 1.332 . S
C322 H318 0.932 . S
C322 C323 1.345 . S
C323 H319 0.928 . S
C323 C322 1.345 . S
C323 C326 1.334 . S
C324 C316 1.332 . S
C324 H320 0.932 . S
C324 C325 1.345 . S
C325 H321 0.928 . S
C325 C324 1.345 . S
C325 C329 1.334 . S
C326 C314 1.334 . S
C326 C323 1.334 . S
C326 C327 1.487 . S
C327 C326 1.487 . S
C327 C328 1.185 1_554 S
C328 C327 1.185 1_556 S
C328 C331 1.482 . S
C329 C317 1.334 . S
C329 C325 1.334 . S
C329 C330 1.487 . S
C330 C329 1.487 . S
C330 C331 1.185 . S
C331 C328 1.482 . S
C331 C330 1.185 . S
H332 C312 0.932 . S
H333 C314 0.928 . S
H334 C315 0.932 . S
H335 C317 0.928 . S
C336 C337 1.332 . S
C336 C338 1.345 . S
C336 H356 0.932 . S
C337 C336 1.332 . S
C337 C346 1.332 . S
C338 C336 1.345 . S
C338 C350 1.334 . S
C338 H357 0.928 . S
C339 C340 1.332 . S
C339 C341 1.345 . S
C339 H358 0.932 . S
C340 C339 1.332 . S
C340 C348 1.332 . S
C341 C339 1.345 . S
C341 C353 1.334 . S
C341 H359 0.928 . S
H342 C346 0.932 . S
H343 C347 0.928 . S
H344 C348 0.932 . S
H345 C349 0.928 . S
C346 C337 1.332 . S
C346 H342 0.932 . S
C346 C347 1.345 . S
C347 H343 0.928 . S
C347 C346 1.345 . S
C347 C350 1.334 . S
C348 C340 1.332 . S
C348 H344 0.932 . S
C348 C349 1.345 . S
C349 H345 0.928 . S
C349 C348 1.345 . S
C349 C353 1.334 . S
C350 C338 1.334 . S
C350 C347 1.334 . S
C350 C351 1.487 . S
C351 C350 1.487 . S
C351 C352 1.185 . S
C352 C351 1.185 . S
C352 C355 1.482 . S
C353 C341 1.334 . S
C353 C349 1.334 . S
C353 C354 1.487 . S
C354 C353 1.487 . S
C354 C355 1.185 1_565 S
C355 C352 1.482 . S
C355 C354 1.185 1_545 S
H356 C336 0.932 . S
H357 C338 0.928 . S
H358 C339 0.932 . S
H359 C341 0.928 . S
C360 C361 1.332 . S
C360 C362 1.345 . S
C360 H380 0.932 . S
C361 C360 1.332 . S
C361 C370 1.332 . S
C362 C360 1.345 . S
C362 C374 1.334 . S
C362 H381 0.928 . S
C363 C364 1.332 . S
C363 C365 1.345 . S
C363 H382 0.932 . S
C364 C363 1.332 . S
C364 C372 1.332 . S
C365 C363 1.345 . S
C365 C377 1.334 . S
C365 H383 0.928 . S
H366 C370 0.932 . S
H367 C371 0.928 . S
H368 C372 0.932 . S
H369 C373 0.928 . S
C370 C361 1.332 . S
C370 H366 0.932 . S
C370 C371 1.345 . S
C371 H367 0.928 . S
C371 C370 1.345 . S
C371 C374 1.334 . S
C372 C364 1.332 . S
C372 H368 0.932 . S
C372 C373 1.345 . S
C373 H369 0.928 . S
C373 C372 1.345 . S
C373 C377 1.334 . S
C374 C362 1.334 . S
C374 C371 1.334 . S
C374 C375 1.487 . S
C375 C374 1.487 . S
C375 C376 1.185 . S
C376 C375 1.185 . S
C376 C379 1.482 . S
C377 C365 1.334 . S
C377 C373 1.334 . S
C377 C378 1.487 . S
C378 C377 1.487 . S
C378 C379 1.185 . S
C379 C376 1.482 . S
C379 C378 1.185 . S
H380 C360 0.932 . S
H381 C362 0.928 . S
H382 C363 0.932 . S
H383 C365 0.928 . S
C384 C385 1.332 . S
C384 C386 1.345 . S
C384 H404 0.932 . S
C385 C384 1.332 . S
C385 C394 1.332 . S
C386 C384 1.345 . S
C386 C398 1.334 . S
C386 H405 0.928 . S
C387 C388 1.332 . S
C387 C389 1.345 . S
C387 H406 0.932 . S
C388 C387 1.332 . S
C388 C396 1.332 . S
C389 C387 1.345 . S
C389 C401 1.334 . S
C389 H407 0.928 . S
H390 C394 0.932 . S
H391 C395 0.928 . S
H392 C396 0.932 . S
H393 C397 0.928 . S
C394 C385 1.332 . S
C394 H390 0.932 . S
C394 C395 1.345 . S
C395 H391 0.928 . S
C395 C394 1.345 . S
C395 C398 1.334 . S
C396 C388 1.332 . S
C396 H392 0.932 . S
C396 C397 1.345 . S
C397 H393 0.928 . S
C397 C396 1.345 . S
C397 C401 1.334 . S
C398 C386 1.334 . S
C398 C395 1.334 . S
C398 C399 1.487 . S
C399 C398 1.487 . S
C399 C400 1.185 . S
C400 C399 1.185 . S
C400 C403 1.482 . S
C401 C389 1.334 . S
C401 C397 1.334 . S
C401 C402 1.487 . S
C402 C401 1.487 . S
C402 C403 1.185 1_455 S
C403 C400 1.482 . S
C403 C402 1.185 1_655 S
H404 C384 0.932 . S
H405 C386 0.928 . S
H406 C387 0.932 . S
H407 C389 0.928 . S
C408 C409 1.332 . S
C408 C410 1.345 . S
C408 H428 0.932 . S
C409 C408 1.332 . S
C409 C418 1.332 . S
C410 C408 1.345 . S
C410 C422 1.334 . S
C410 H429 0.928 . S
C411 C412 1.332 . S
C411 C413 1.345 . S
C411 H430 0.932 . S
C412 C411 1.332 . S
C412 C420 1.332 1_556 S
C413 C411 1.345 . S
C413 C425 1.334 . S
C413 H431 0.928 . S
H414 C418 0.932 . S
H415 C419 0.928 1_556 S
H416 C420 0.932 . S
H417 C421 0.928 . S
C418 C409 1.332 . S
C418 H414 0.932 . S
C418 C419 1.345 . S
C419 H415 0.928 1_554 S
C419 C418 1.345 . S
C419 C422 1.334 . S
C420 C412 1.332 1_554 S
C420 H416 0.932 . S
C420 C421 1.345 . S
C421 H417 0.928 . S
C421 C420 1.345 . S
C421 C425 1.334 1_554 S
C422 C410 1.334 . S
C422 C419 1.334 . S
C422 C423 1.487 . S
C423 C422 1.487 . S
C423 C424 1.185 . S
C424 C423 1.185 . S
C424 C427 1.482 . S
C425 C413 1.334 . S
C425 C421 1.334 1_556 S
C425 C426 1.487 . S
C426 C425 1.487 . S
C426 C427 1.185 1_546 S
C427 C424 1.482 . S
C427 C426 1.185 1_564 S
H428 C408 0.932 . S
H429 C410 0.928 . S
H430 C411 0.932 . S
H431 C413 0.928 . S
C432 C433 1.332 . S
C432 C434 1.345 . S
C432 H452 0.932 . S
C433 C432 1.332 . S
C433 C442 1.332 . S
C434 C432 1.345 . S
C434 C446 1.334 . S
C434 H453 0.928 . S
C435 C436 1.332 . S
C435 C437 1.345 . S
C435 H454 0.932 . S
C436 C435 1.332 . S
C436 C444 1.332 . S
C437 C435 1.345 . S
C437 C449 1.334 . S
C437 H455 0.928 . S
H438 C442 0.932 . S
H439 C443 0.928 . S
H440 C444 0.932 . S
H441 C445 0.928 . S
C442 C433 1.332 . S
C442 H438 0.932 . S
C442 C443 1.345 . S
C443 H439 0.928 . S
C443 C442 1.345 . S
C443 C446 1.334 . S
C444 C436 1.332 . S
C444 H440 0.932 . S
C444 C445 1.345 . S
C445 H441 0.928 . S
C445 C444 1.345 . S
C445 C449 1.334 . S
C446 C434 1.334 . S
C446 C443 1.334 . S
C446 C447 1.487 . S
C447 C446 1.487 . S
C447 C448 1.185 . S
C448 C447 1.185 . S
C448 C451 1.482 . S
C449 C437 1.334 . S
C449 C445 1.334 . S
C449 C450 1.487 . S
C450 C449 1.487 . S
C450 C451 1.185 . S
C451 C448 1.482 . S
C451 C450 1.185 . S
H452 C432 0.932 . S
H453 C434 0.928 . S
H454 C435 0.932 . S
H455 C437 0.928 . S
C456 C457 1.332 . S
C456 C458 1.345 . S
C456 H476 0.932 . S
C457 C456 1.332 . S
C457 C466 1.332 . S
C458 C456 1.345 . S
C458 C470 1.334 . S
C458 H477 0.928 . S
C459 C460 1.332 . S
C459 C461 1.345 . S
C459 H478 0.932 . S
C460 C459 1.332 . S
C460 C468 1.332 . S
C461 C459 1.345 . S
C461 C473 1.334 . S
C461 H479 0.928 . S
H462 C466 0.932 . S
H463 C467 0.928 . S
H464 C468 0.932 . S
H465 C469 0.928 . S
C466 C457 1.332 . S
C466 H462 0.932 . S
C466 C467 1.345 . S
C467 H463 0.928 . S
C467 C466 1.345 . S
C467 C470 1.334 . S
C468 C460 1.332 . S
C468 H464 0.932 . S
C468 C469 1.345 . S
C469 H465 0.928 . S
C469 C468 1.345 . S
C469 C473 1.334 . S
C470 C458 1.334 . S
C470 C467 1.334 . S
C470 C471 1.487 . S
C471 C470 1.487 . S
C471 C472 1.185 1_655 S
C472 C471 1.185 1_455 S
C472 C475 1.482 . S
C473 C461 1.334 . S
C473 C469 1.334 . S
C473 C474 1.487 . S
C474 C473 1.487 . S
C474 C475 1.185 . S
C475 C472 1.482 . S
C475 C474 1.185 . S
H476 C456 0.932 . S
H477 C458 0.928 . S
H478 C459 0.932 . S
H479 C461 0.928 . S
C480 C481 1.332 . S
C480 C482 1.345 . S
C480 H500 0.932 . S
C481 C480 1.332 . S
C481 C490 1.332 . S
C482 C480 1.345 . S
C482 C494 1.334 . S
C482 H501 0.928 . S
C483 C484 1.332 . S
C483 C485 1.345 . S
C483 H502 0.932 . S
C484 C483 1.332 . S
C484 C492 1.332 . S
C485 C483 1.345 . S
C485 C497 1.334 . S
C485 H503 0.928 . S
H486 C490 0.932 . S
H487 C491 0.928 . S
H488 C492 0.932 . S
H489 C493 0.928 . S
C490 C481 1.332 . S
C490 H486 0.932 . S
C490 C491 1.345 . S
C491 H487 0.928 . S
C491 C490 1.345 . S
C491 C494 1.334 . S
C492 C484 1.332 . S
C492 H488 0.932 . S
C492 C493 1.345 . S
C493 H489 0.928 . S
C493 C492 1.345 . S
C493 C497 1.334 . S
C494 C482 1.334 . S
C494 C491 1.334 . S
C494 C495 1.487 . S
C495 C494 1.487 . S
C495 C496 1.185 . S
C496 C495 1.185 . S
C496 C499 1.482 . S
C497 C485 1.334 . S
C497 C493 1.334 . S
C497 C498 1.487 . S
C498 C497 1.487 . S
C498 C499 1.185 . S
C499 C496 1.482 . S
C499 C498 1.185 . S
H500 C480 0.932 . S
H501 C482 0.928 . S
H502 C483 0.932 . S
H503 C485 0.928 . S
C504 C505 1.332 . S
C504 C506 1.345 . S
C504 H524 0.932 . S
C505 C504 1.332 . S
C505 C514 1.332 . S
C506 C504 1.345 . S
C506 C518 1.334 . S
C506 H525 0.928 . S
C507 C508 1.332 . S
C507 C509 1.345 . S
C507 H526 0.932 . S
C508 C507 1.332 . S
C508 C516 1.332 . S
C509 C507 1.345 . S
C509 C521 1.334 . S
C509 H527 0.928 . S
H510 C514 0.932 . S
H511 C515 0.928 . S
H512 C516 0.932 . S
H513 C517 0.928 . S
C514 C505 1.332 . S
C514 H510 0.932 . S
C514 C515 1.345 . S
C515 H511 0.928 . S
C515 C514 1.345 . S
C515 C518 1.334 . S
C516 C508 1.332 . S
C516 H512 0.932 . S
C516 C517 1.345 . S
C517 H513 0.928 . S
C517 C516 1.345 . S
C517 C521 1.334 . S
C518 C506 1.334 . S
C518 C515 1.334 . S
C518 C519 1.487 . S
C519 C518 1.487 . S
C519 C520 1.185 . S
C520 C519 1.185 . S
C520 C523 1.482 . S
C521 C509 1.334 . S
C521 C517 1.334 . S
C521 C522 1.487 . S
C522 C521 1.487 . S
C522 C523 1.185 . S
C523 C520 1.482 . S
C523 C522 1.185 . S
H524 C504 0.932 . S
H525 C506 0.928 . S
H526 C507 0.932 . S
H527 C509 0.928 . S
C528 C529 1.332 . S
C528 C530 1.345 . S
C528 H548 0.932 . S
C529 C528 1.332 . S
C529 C538 1.332 . S
C530 C528 1.345 . S
C530 C542 1.334 . S
C530 H549 0.928 . S
C531 C532 1.332 . S
C531 C533 1.345 . S
C531 H550 0.932 . S
C532 C531 1.332 . S
C532 C540 1.332 . S
C533 C531 1.345 . S
C533 C545 1.334 . S
C533 H551 0.928 . S
H534 C538 0.932 . S
H535 C539 0.928 . S
H536 C540 0.932 . S
H537 C541 0.928 . S
C538 C529 1.332 . S
C538 H534 0.932 . S
C538 C539 1.345 . S
C539 H535 0.928 . S
C539 C538 1.345 . S
C539 C542 1.334 . S
C540 C532 1.332 . S
C540 H536 0.932 . S
C540 C541 1.345 . S
C541 H537 0.928 . S
C541 C540 1.345 . S
C541 C545 1.334 . S
C542 C530 1.334 . S
C542 C539 1.334 . S
C542 C543 1.487 . S
C543 C542 1.487 . S
C543 C544 1.185 . S
C544 C543 1.185 . S
C544 C547 1.482 . S
C545 C533 1.334 . S
C545 C541 1.334 . S
C545 C546 1.487 . S
C546 C545 1.487 . S
C546 C547 1.185 . S
C547 C544 1.482 . S
C547 C546 1.185 . S
H548 C528 0.932 . S
H549 C530 0.928 . S
H550 C531 0.932 . S
H551 C533 0.928 . S
C552 C553 1.332 1_556 S
C552 C554 1.345 . S
C552 H572 0.932 . S
C553 C552 1.332 1_554 S
C553 C562 1.332 . S
C554 C552 1.345 . S
C554 C566 1.334 . S
C554 H573 0.928 . S
C555 C556 1.332 . S
C555 C557 1.345 . S
C555 H574 0.932 . S
C556 C555 1.332 . S
C556 C564 1.332 . S
C557 C555 1.345 . S
C557 C569 1.334 . S
C557 H575 0.928 . S
H558 C562 0.932 . S
H559 C563 0.928 . S
H560 C564 0.932 . S
H561 C565 0.928 . S
C562 C553 1.332 . S
C562 H558 0.932 . S
C562 C563 1.345 . S
C563 H559 0.928 . S
C563 C562 1.345 . S
C563 C566 1.334 1_554 S
C564 C556 1.332 . S
C564 H560 0.932 . S
C564 C565 1.345 . S
C565 H561 0.928 . S
C565 C564 1.345 . S
C565 C569 1.334 . S
C566 C554 1.334 . S
C566 C563 1.334 1_556 S
C566 C567 1.487 . S
C567 C566 1.487 . S
C567 C568 1.185 . S
C568 C567 1.185 . S
C568 C571 1.482 . S
C569 C557 1.334 . S
C569 C565 1.334 . S
C569 C570 1.487 . S
C570 C569 1.487 . S
C570 C571 1.185 . S
C571 C568 1.482 . S
C571 C570 1.185 . S
H572 C552 0.932 . S
H573 C554 0.928 . S
H574 C555 0.932 . S
H575 C557 0.928 . S
C576 C577 1.332 . S
C576 C578 1.345 . S
C576 H596 0.932 . S
C577 C576 1.332 . S
C577 C586 1.332 . S
C578 C576 1.345 . S
C578 C590 1.334 . S
C578 H597 0.928 . S
C579 C580 1.332 1_554 S
C579 C581 1.345 . S
C579 H598 0.932 . S
C580 C579 1.332 1_556 S
C580 C588 1.332 . S
C581 C579 1.345 . S
C581 C593 1.334 . S
C581 H599 0.928 . S
H582 C586 0.932 . S
H583 C587 0.928 . S
H584 C588 0.932 . S
H585 C589 0.928 . S
C586 C577 1.332 . S
C586 H582 0.932 . S
C586 C587 1.345 . S
C587 H583 0.928 . S
C587 C586 1.345 . S
C587 C590 1.334 . S
C588 C580 1.332 . S
C588 H584 0.932 . S
C588 C589 1.345 . S
C589 H585 0.928 . S
C589 C588 1.345 . S
C589 C593 1.334 1_556 S
C590 C578 1.334 . S
C590 C587 1.334 . S
C590 C591 1.487 . S
C591 C590 1.487 . S
C591 C592 1.185 . S
C592 C591 1.185 . S
C592 C595 1.482 . S
C593 C581 1.334 . S
C593 C589 1.334 1_554 S
C593 C594 1.487 . S
C594 C593 1.487 . S
C594 C595 1.185 . S
C595 C592 1.482 . S
C595 C594 1.185 . S
H596 C576 0.932 . S
H597 C578 0.928 . S
H598 C579 0.932 . S
H599 C581 0.928 . S
C600 C601 1.332 . S
C600 C602 1.345 . S
C600 H620 0.932 . S
C601 C600 1.332 . S
C601 C610 1.332 . S
C602 C600 1.345 . S
C602 C614 1.334 . S
C602 H621 0.928 . S
C603 C604 1.332 . S
C603 C605 1.345 . S
C603 H622 0.932 . S
C604 C603 1.332 . S
C604 C612 1.332 . S
C605 C603 1.345 . S
C605 C617 1.334 . S
C605 H623 0.928 . S
H606 C610 0.932 . S
H607 C611 0.928 . S
H608 C612 0.932 . S
H609 C613 0.928 . S
C610 C601 1.332 . S
C610 H606 0.932 . S
C610 C611 1.345 . S
C611 H607 0.928 . S
C611 C610 1.345 . S
C611 C614 1.334 . S
C612 C604 1.332 . S
C612 H608 0.932 . S
C612 C613 1.345 . S
C613 H609 0.928 . S
C613 C612 1.345 . S
C613 C617 1.334 . S
C614 C602 1.334 . S
C614 C611 1.334 . S
C614 C615 1.487 . S
C615 C614 1.487 . S
C615 C616 1.185 . S
C616 C615 1.185 . S
C616 C619 1.482 . S
C617 C605 1.334 . S
C617 C613 1.334 . S
C617 C618 1.487 . S
C618 C617 1.487 . S
C618 C619 1.185 . S
C619 C616 1.482 . S
C619 C618 1.185 . S
H620 C600 0.932 . S
H621 C602 0.928 . S
H622 C603 0.932 . S
H623 C605 0.928 . S
C193 C29 0.831 . S
C196 C2 0.832 . S
C217 C61 0.831 . S
C220 C34 0.832 . S
C241 C66 0.832 . S
C244 C93 0.831 . S
C265 C98 0.832 . S
C268 C125 0.831 . S
C289 C134 0.832 . S
C292 C132 0.831 . S
C313 C189 0.831 . S
C316 C162 0.832 . S
C337 C4 1.452 . S
C340 N178 1.437 . S
C361 N18 1.437 . S
C364 C36 1.452 . S
C385 C68 1.452 . S
C388 N50 1.437 . S
C409 C100 1.452 . S
C412 N82 1.437 . S
C433 C157 1.452 . S
C436 N114 1.437 . S
C457 N141 1.437 . S
C460 C164 1.452 . S
C481 C6 1.932 . S
C484 N146 1.843 . S
C505 C38 1.932 . S
C508 N173 1.843 . S
C529 C70 1.932 . S
C532 N13 1.843 . S
C553 C102 1.932 . S
C556 N45 1.843 . S
C577 C130 1.932 . S
C580 N77 1.843 . S
C601 N109 1.843 . S
C604 C166 1.932 . S
