# Generated by pormake.
# Topology mer, (4)-cn, num edge types: 1
# Building blocks:
#     Node 0, Type 0, BuildingBlock: KUFVIS_clean_sbu_0, # of connection points: 4
#     Node 1, Type 0, BuildingBlock: KUFVIS_clean_sbu_0, # of connection points: 4
#     Node 2, Type 0, BuildingBlock: KUFVIS_clean_sbu_0, # of connection points: 4
#     Node 3, Type 0, BuildingBlock: KUFVIS_clean_sbu_0, # of connection points: 4
#     Node 4, Type 0, BuildingBlock: KUFVIS_clean_sbu_0, # of connection points: 4
#     Node 5, Type 0, BuildingBlock: KUFVIS_clean_sbu_0, # of connection points: 4
#     Node 6, Type 0, BuildingBlock: KUFVIS_clean_sbu_0, # of connection points: 4
#     Node 7, Type 0, BuildingBlock: KUFVIS_clean_sbu_0, # of connection points: 4
#     Node 8, Type 0, BuildingBlock: KUFVIS_clean_sbu_0, # of connection points: 4
#     Node 9, Type 0, BuildingBlock: KUFVIS_clean_sbu_0, # of connection points: 4
#     Node 10, Type 0, BuildingBlock: KUFVIS_clean_sbu_0, # of connection points: 4
#     Node 11, Type 0, BuildingBlock: KUFVIS_clean_sbu_0, # of connection points: 4
#     Node 12, Type 0, BuildingBlock: KUFVIS_clean_sbu_0, # of connection points: 4
#     Node 13, Type 0, BuildingBlock: KUFVIS_clean_sbu_0, # of connection points: 4
#     Node 14, Type 0, BuildingBlock: KUFVIS_clean_sbu_0, # of connection points: 4
#     Node 15, Type 0, BuildingBlock: KUFVIS_clean_sbu_0, # of connection points: 4
#     Node 16, Type 0, BuildingBlock: KUFVIS_clean_sbu_0, # of connection points: 4
#     Node 17, Type 0, BuildingBlock: KUFVIS_clean_sbu_0, # of connection points: 4
#     Node 18, Type 0, BuildingBlock: KUFVIS_clean_sbu_0, # of connection points: 4
#     Node 19, Type 0, BuildingBlock: KUFVIS_clean_sbu_0, # of connection points: 4
#     Node 20, Type 0, BuildingBlock: KUFVIS_clean_sbu_0, # of connection points: 4
#     Node 21, Type 0, BuildingBlock: KUFVIS_clean_sbu_0, # of connection points: 4
#     Node 22, Type 0, BuildingBlock: KUFVIS_clean_sbu_0, # of connection points: 4
#     Node 23, Type 0, BuildingBlock: KUFVIS_clean_sbu_0, # of connection points: 4
#     Node 24, Type 0, BuildingBlock: KUFVIS_clean_sbu_0, # of connection points: 4
#     Node 25, Type 0, BuildingBlock: KUFVIS_clean_sbu_0, # of connection points: 4
#     Node 26, Type 0, BuildingBlock: KUFVIS_clean_sbu_0, # of connection points: 4
#     Node 27, Type 0, BuildingBlock: KUFVIS_clean_sbu_0, # of connection points: 4
#     Node 28, Type 0, BuildingBlock: KUFVIS_clean_sbu_0, # of connection points: 4
#     Node 29, Type 0, BuildingBlock: KUFVIS_clean_sbu_0, # of connection points: 4
#     Node 30, Type 0, BuildingBlock: KUFVIS_clean_sbu_0, # of connection points: 4
#     Node 31, Type 0, BuildingBlock: KUFVIS_clean_sbu_0, # of connection points: 4
#     Edge 32, Type (0, 0), BuildingBlock: CIFDUS_clean_linker_0, # of connection points: 2
#     Edge 33, Type (0, 0), BuildingBlock: CIFDUS_clean_linker_0, # of connection points: 2
#     Edge 34, Type (0, 0), BuildingBlock: CIFDUS_clean_linker_0, # of connection points: 2
#     Edge 35, Type (0, 0), BuildingBlock: CIFDUS_clean_linker_0, # of connection points: 2
#     Edge 36, Type (0, 0), BuildingBlock: CIFDUS_clean_linker_0, # of connection points: 2
#     Edge 37, Type (0, 0), BuildingBlock: CIFDUS_clean_linker_0, # of connection points: 2
#     Edge 38, Type (0, 0), BuildingBlock: CIFDUS_clean_linker_0, # of connection points: 2
#     Edge 39, Type (0, 0), BuildingBlock: CIFDUS_clean_linker_0, # of connection points: 2
#     Edge 40, Type (0, 0), BuildingBlock: CIFDUS_clean_linker_0, # of connection points: 2
#     Edge 41, Type (0, 0), BuildingBlock: CIFDUS_clean_linker_0, # of connection points: 2
#     Edge 42, Type (0, 0), BuildingBlock: CIFDUS_clean_linker_0, # of connection points: 2
#     Edge 43, Type (0, 0), BuildingBlock: CIFDUS_clean_linker_0, # of connection points: 2
#     Edge 44, Type (0, 0), BuildingBlock: CIFDUS_clean_linker_0, # of connection points: 2
#     Edge 45, Type (0, 0), BuildingBlock: CIFDUS_clean_linker_0, # of connection points: 2
#     Edge 46, Type (0, 0), BuildingBlock: CIFDUS_clean_linker_0, # of connection points: 2
#     Edge 47, Type (0, 0), BuildingBlock: CIFDUS_clean_linker_0, # of connection points: 2
#     Edge 48, Type (0, 0), BuildingBlock: CIFDUS_clean_linker_0, # of connection points: 2
#     Edge 49, Type (0, 0), BuildingBlock: CIFDUS_clean_linker_0, # of connection points: 2
#     Edge 50, Type (0, 0), BuildingBlock: CIFDUS_clean_linker_0, # of connection points: 2
#     Edge 51, Type (0, 0), BuildingBlock: CIFDUS_clean_linker_0, # of connection points: 2
#     Edge 52, Type (0, 0), BuildingBlock: CIFDUS_clean_linker_0, # of connection points: 2
#     Edge 53, Type (0, 0), BuildingBlock: CIFDUS_clean_linker_0, # of connection points: 2
#     Edge 54, Type (0, 0), BuildingBlock: CIFDUS_clean_linker_0, # of connection points: 2
#     Edge 55, Type (0, 0), BuildingBlock: CIFDUS_clean_linker_0, # of connection points: 2
#     Edge 56, Type (0, 0), BuildingBlock: CIFDUS_clean_linker_0, # of connection points: 2
#     Edge 57, Type (0, 0), BuildingBlock: CIFDUS_clean_linker_0, # of connection points: 2
#     Edge 58, Type (0, 0), BuildingBlock: CIFDUS_clean_linker_0, # of connection points: 2
#     Edge 59, Type (0, 0), BuildingBlock: CIFDUS_clean_linker_0, # of connection points: 2
#     Edge 60, Type (0, 0), BuildingBlock: CIFDUS_clean_linker_0, # of connection points: 2
#     Edge 61, Type (0, 0), BuildingBlock: CIFDUS_clean_linker_0, # of connection points: 2
#     Edge 62, Type (0, 0), BuildingBlock: CIFDUS_clean_linker_0, # of connection points: 2
#     Edge 63, Type (0, 0), BuildingBlock: CIFDUS_clean_linker_0, # of connection points: 2
#     Edge 64, Type (0, 0), BuildingBlock: CIFDUS_clean_linker_0, # of connection points: 2
#     Edge 65, Type (0, 0), BuildingBlock: CIFDUS_clean_linker_0, # of connection points: 2
#     Edge 66, Type (0, 0), BuildingBlock: CIFDUS_clean_linker_0, # of connection points: 2
#     Edge 67, Type (0, 0), BuildingBlock: CIFDUS_clean_linker_0, # of connection points: 2
#     Edge 68, Type (0, 0), BuildingBlock: CIFDUS_clean_linker_0, # of connection points: 2
#     Edge 69, Type (0, 0), BuildingBlock: CIFDUS_clean_linker_0, # of connection points: 2
#     Edge 70, Type (0, 0), BuildingBlock: CIFDUS_clean_linker_0, # of connection points: 2
#     Edge 71, Type (0, 0), BuildingBlock: CIFDUS_clean_linker_0, # of connection points: 2
#     Edge 72, Type (0, 0), BuildingBlock: CIFDUS_clean_linker_0, # of connection points: 2
#     Edge 73, Type (0, 0), BuildingBlock: CIFDUS_clean_linker_0, # of connection points: 2
#     Edge 74, Type (0, 0), BuildingBlock: CIFDUS_clean_linker_0, # of connection points: 2
#     Edge 75, Type (0, 0), BuildingBlock: CIFDUS_clean_linker_0, # of connection points: 2
#     Edge 76, Type (0, 0), BuildingBlock: CIFDUS_clean_linker_0, # of connection points: 2
#     Edge 77, Type (0, 0), BuildingBlock: CIFDUS_clean_linker_0, # of connection points: 2
#     Edge 78, Type (0, 0), BuildingBlock: CIFDUS_clean_linker_0, # of connection points: 2
#     Edge 79, Type (0, 0), BuildingBlock: CIFDUS_clean_linker_0, # of connection points: 2
#     Edge 80, Type (0, 0), BuildingBlock: CIFDUS_clean_linker_0, # of connection points: 2
#     Edge 81, Type (0, 0), BuildingBlock: CIFDUS_clean_linker_0, # of connection points: 2
#     Edge 82, Type (0, 0), BuildingBlock: CIFDUS_clean_linker_0, # of connection points: 2
#     Edge 83, Type (0, 0), BuildingBlock: CIFDUS_clean_linker_0, # of connection points: 2
#     Edge 84, Type (0, 0), BuildingBlock: CIFDUS_clean_linker_0, # of connection points: 2
#     Edge 85, Type (0, 0), BuildingBlock: CIFDUS_clean_linker_0, # of connection points: 2
#     Edge 86, Type (0, 0), BuildingBlock: CIFDUS_clean_linker_0, # of connection points: 2
#     Edge 87, Type (0, 0), BuildingBlock: CIFDUS_clean_linker_0, # of connection points: 2
#     Edge 88, Type (0, 0), BuildingBlock: CIFDUS_clean_linker_0, # of connection points: 2
#     Edge 89, Type (0, 0), BuildingBlock: CIFDUS_clean_linker_0, # of connection points: 2
#     Edge 90, Type (0, 0), BuildingBlock: CIFDUS_clean_linker_0, # of connection points: 2
#     Edge 91, Type (0, 0), BuildingBlock: CIFDUS_clean_linker_0, # of connection points: 2
#     Edge 92, Type (0, 0), BuildingBlock: CIFDUS_clean_linker_0, # of connection points: 2
#     Edge 93, Type (0, 0), BuildingBlock: CIFDUS_clean_linker_0, # of connection points: 2
#     Edge 94, Type (0, 0), BuildingBlock: CIFDUS_clean_linker_0, # of connection points: 2
#     Edge 95, Type (0, 0), BuildingBlock: CIFDUS_clean_linker_0, # of connection points: 2
# Relax obj value: 0.090
# Max RMSD: 0.140
# Mean RMSD: 0.135
data_MOF--net-mer--node1-KUFVIS_clean_sbu_0--edge1-CIFDUS_clean_linker_0
_symmetry_space_group_name_H-M    P1
_symmetry_Int_Tables_number       1
_symmetry_cell_setting            triclinic
loop_
_symmetry_equiv_pos_as_xyz
'x, y, z'
_cell_length_a     56.348471
_cell_length_b     55.738837
_cell_length_c     45.314572
_cell_angle_alpha  89.990781
_cell_angle_beta   89.968955
_cell_angle_gamma 90.049027
loop_
_atom_site_label
_atom_site_type_symbol
_atom_site_fract_x
_atom_site_fract_y
_atom_site_fract_z
_atom_type_partial_charge
Mn0 Mn 0.11381 0.28009 0.36574 0.0
Mn1 Mn 0.16523 0.30811 0.38169 0.0
C2 C 0.12567 0.28441 0.41516 0.0
C3 C 0.07298 0.28088 0.3555 0.0
C4 C 0.16226 0.25732 0.3573 0.0
O5 O 0.12205 0.29787 0.32699 0.0
O6 O 0.15237 0.32021 0.3441 0.0
C7 C 0.14839 0.35788 0.39103 0.0
N8 N 0.16095 0.33846 0.4003 0.0
C9 C 0.18073 0.36156 0.4377 0.0
C10 C 0.16806 0.38192 0.42859 0.0
C11 C 0.15152 0.37997 0.40546 0.0
C12 C 0.17586 0.33983 0.42353 0.0
H13 H 0.13632 0.35648 0.37261 0.0
C14 C 0.13722 0.31485 0.32421 0.0
O15 O 0.0864 0.26335 0.34686 0.0
O16 O 0.08339 0.29834 0.36942 0.0
N17 N 0.18041 0.29868 0.41752 0.0
C18 C 0.18998 0.27702 0.42469 0.0
C19 C 0.20675 0.27563 0.44755 0.0
C20 C 0.21415 0.29664 0.46201 0.0
C21 C 0.20398 0.31872 0.45432 0.0
C22 C 0.18664 0.31881 0.43222 0.0
H23 H 0.18535 0.26103 0.41255 0.0
O24 O 0.11024 0.26831 0.4074 0.0
O25 O 0.13334 0.298 0.39393 0.0
O26 O 0.13981 0.25514 0.35853 0.0
O27 O 0.17289 0.27695 0.36317 0.0
C28 C 0.21028 0.34067 0.46774 0.0
C29 C 0.19833 0.36202 0.45982 0.0
H30 H 0.17095 0.39913 0.43911 0.0
H31 H 0.14168 0.39558 0.3983 0.0
H32 H 0.2145 0.25851 0.45337 0.0
H33 H 0.22749 0.29557 0.47917 0.0
H34 H 0.2237 0.34121 0.48484 0.0
H35 H 0.20279 0.37864 0.47089 0.0
Mn36 Mn 0.72792 0.12831 0.3504 0.0
Mn37 Mn 0.78399 0.10943 0.36383 0.0
C38 C 0.75906 0.15527 0.3452 0.0
C39 C 0.69656 0.13203 0.31705 0.0
C40 C 0.7494 0.12339 0.41255 0.0
O41 O 0.7242 0.09217 0.35157 0.0
O42 O 0.7622 0.08139 0.35832 0.0
C43 C 0.7928 0.08796 0.30508 0.0
N44 N 0.79949 0.10312 0.32714 0.0
C45 C 0.83543 0.11355 0.30148 0.0
C46 C 0.82906 0.09784 0.27863 0.0
C47 C 0.80759 0.08509 0.28039 0.0
C48 C 0.81998 0.11566 0.32553 0.0
H49 H 0.7763 0.07815 0.30633 0.0
C50 C 0.74026 0.0763 0.35432 0.0
O51 O 0.69274 0.13269 0.34531 0.0
O52 O 0.71823 0.12885 0.30841 0.0
N53 N 0.80779 0.13357 0.36935 0.0
C54 C 0.81034 0.14956 0.39186 0.0
C55 C 0.83061 0.16419 0.39306 0.0
C56 C 0.84815 0.16217 0.37119 0.0
C57 C 0.84509 0.14573 0.34807 0.0
C58 C 0.8246 0.13148 0.34819 0.0
H59 H 0.79664 0.15166 0.40815 0.0
O60 O 0.73729 0.16242 0.34778 0.0
O61 O 0.76217 0.13201 0.34436 0.0
O62 O 0.73176 0.12872 0.39593 0.0
O63 O 0.76945 0.11612 0.40269 0.0
C64 C 0.86119 0.14347 0.32444 0.0
C65 C 0.85634 0.12744 0.30112 0.0
H66 H 0.8404 0.09561 0.25952 0.0
H67 H 0.80246 0.07306 0.26276 0.0
H68 H 0.83259 0.17717 0.41065 0.0
H69 H 0.86362 0.1737 0.37199 0.0
H70 H 0.87716 0.1543 0.32372 0.0
H71 H 0.86867 0.12613 0.28284 0.0
Mn72 Mn 0.88728 0.71895 0.37269 0.0
Mn73 Mn 0.83357 0.69838 0.39331 0.0
C74 C 0.876 0.72191 0.42214 0.0
C75 C 0.92725 0.71047 0.36246 0.0
C76 C 0.84132 0.74583 0.36142 0.0
O77 O 0.87638 0.69904 0.33705 0.0
O78 O 0.84435 0.68154 0.35733 0.0
C79 C 0.84427 0.64792 0.40845 0.0
N80 N 0.83489 0.66958 0.4159 0.0
C81 C 0.81328 0.65233 0.45645 0.0
C82 C 0.82277 0.62979 0.44934 0.0
C83 C 0.83863 0.62765 0.42552 0.0
C84 C 0.82052 0.67203 0.43956 0.0
H85 H 0.85557 0.64611 0.38931 0.0
C86 C 0.85956 0.68369 0.33656 0.0
O87 O 0.91679 0.72909 0.35115 0.0
O88 O 0.91442 0.69679 0.37924 0.0
N89 N 0.82013 0.71264 0.4278 0.0
C90 C 0.81318 0.73578 0.43213 0.0
C91 C 0.79797 0.74125 0.45575 0.0
C92 C 0.7892 0.72275 0.47379 0.0
C93 C 0.79631 0.69902 0.46859 0.0
C94 C 0.81248 0.69485 0.44569 0.0
H95 H 0.81886 0.74987 0.4174 0.0
O96 O 0.89336 0.73455 0.41158 0.0
O97 O 0.86633 0.70677 0.40383 0.0
O98 O 0.86398 0.74615 0.36195 0.0
O99 O 0.82909 0.72808 0.3706 0.0
C100 C 0.78792 0.67928 0.48509 0.0
C101 C 0.79659 0.65598 0.47922 0.0
H102 H 0.81794 0.61401 0.46195 0.0
H103 H 0.84595 0.61031 0.41982 0.0
H104 H 0.79244 0.75959 0.45948 0.0
H105 H 0.77699 0.72695 0.49151 0.0
H106 H 0.77526 0.6819 0.5028 0.0
H107 H 0.79042 0.64103 0.49245 0.0
Mn108 Mn 0.27692 0.87035 0.34882 0.0
Mn109 Mn 0.2198 0.8859 0.36132 0.0
C110 C 0.24852 0.84062 0.3509 0.0
C111 C 0.3077 0.8658 0.31517 0.0
C112 C 0.25583 0.87989 0.41035 0.0
O113 O 0.27751 0.90641 0.3438 0.0
O114 O 0.23924 0.91511 0.35199 0.0
C115 C 0.20986 0.90063 0.2998 0.0
N116 N 0.20441 0.88694 0.32376 0.0
C117 C 0.17137 0.86893 0.29843 0.0
C118 C 0.17654 0.88297 0.27356 0.0
C119 C 0.19592 0.89883 0.27422 0.0
C120 C 0.18599 0.87141 0.32323 0.0
H121 H 0.22477 0.91281 0.30018 0.0
C122 C 0.26061 0.92138 0.34611 0.0
O123 O 0.31218 0.86876 0.34306 0.0
O124 O 0.28568 0.86581 0.30701 0.0
N125 N 0.19795 0.86063 0.37055 0.0
C126 C 0.19512 0.84857 0.39648 0.0
C127 C 0.17641 0.8321 0.39955 0.0
C128 C 0.16048 0.82853 0.37615 0.0
C129 C 0.16334 0.84158 0.34993 0.0
C130 C 0.1823 0.85781 0.3482 0.0
H131 H 0.20735 0.85111 0.41444 0.0
O132 O 0.27089 0.8356 0.35289 0.0
O133 O 0.24324 0.8631 0.34554 0.0
O134 O 0.27365 0.8748 0.39387 0.0
O135 O 0.23493 0.88421 0.40051 0.0
C136 C 0.14827 0.83895 0.32534 0.0
C137 C 0.15236 0.85252 0.29956 0.0
H138 H 0.16579 0.88166 0.2538 0.0
H139 H 0.20008 0.90966 0.25507 0.0
H140 H 0.17434 0.8221 0.41986 0.0
H141 H 0.14618 0.81566 0.37849 0.0
H142 H 0.13359 0.8264 0.32596 0.0
H143 H 0.14075 0.85022 0.28072 0.0
Mn144 Mn 0.12046 0.72595 0.6291 0.0
Mn145 Mn 0.17376 0.7027 0.61224 0.0
C146 C 0.1323 0.72524 0.57988 0.0
C147 C 0.08046 0.71887 0.63969 0.0
C148 C 0.16671 0.7522 0.63928 0.0
O149 O 0.13058 0.70867 0.66688 0.0
O150 O 0.16205 0.68837 0.64956 0.0
C151 C 0.16224 0.65166 0.60168 0.0
N152 N 0.17208 0.67264 0.59234 0.0
C153 C 0.19343 0.65261 0.55358 0.0
C154 C 0.18341 0.63075 0.56261 0.0
C155 C 0.16747 0.63034 0.5865 0.0
C156 C 0.18663 0.67339 0.56867 0.0
H157 H 0.15088 0.65121 0.6209 0.0
C158 C 0.14681 0.69292 0.66971 0.0
O159 O 0.09112 0.7381 0.64904 0.0
O160 O 0.09309 0.70386 0.62451 0.0
N161 N 0.18799 0.71455 0.57685 0.0
C162 C 0.19546 0.73722 0.5705 0.0
C163 C 0.21088 0.74097 0.54657 0.0
C164 C 0.21926 0.72128 0.53027 0.0
C165 C 0.21159 0.69807 0.53751 0.0
C166 C 0.19528 0.6956 0.56064 0.0
H167 H 0.19002 0.75227 0.58387 0.0
O168 O 0.11508 0.73889 0.58872 0.0
O169 O 0.14142 0.71119 0.59989 0.0
O170 O 0.14414 0.75324 0.63747 0.0
O171 O 0.1786 0.73359 0.63234 0.0
C172 C 0.21948 0.67726 0.52276 0.0
C173 C 0.21022 0.65456 0.5306 0.0
H174 H 0.1879 0.61418 0.55145 0.0
H175 H 0.15978 0.61353 0.59369 0.0
H176 H 0.21683 0.75892 0.54124 0.0
H177 H 0.2316 0.72417 0.51228 0.0
H178 H 0.2322 0.67857 0.5049 0.0
H179 H 0.21602 0.63876 0.51871 0.0
Mn180 Mn 0.27281 0.12242 0.64837 0.0
Mn181 Mn 0.21496 0.11003 0.63552 0.0
C182 C 0.24515 0.15289 0.65171 0.0
C183 C 0.30408 0.12303 0.68179 0.0
C184 C 0.25128 0.11731 0.58658 0.0
O185 O 0.27194 0.08612 0.64952 0.0
O186 O 0.23285 0.07984 0.64371 0.0
C187 C 0.20284 0.09308 0.69559 0.0
N188 N 0.19853 0.10793 0.67233 0.0
C189 C 0.16469 0.12516 0.69679 0.0
C190 C 0.16864 0.10991 0.72091 0.0
C191 C 0.18786 0.09387 0.72034 0.0
C192 C 0.18023 0.12358 0.67275 0.0
H193 H 0.2176 0.08074 0.69524 0.0
C194 C 0.25402 0.07228 0.64815 0.0
O195 O 0.30816 0.12238 0.65357 0.0
O196 O 0.28216 0.12324 0.69034 0.0
N197 N 0.19474 0.13688 0.62754 0.0
C198 C 0.19424 0.15143 0.60339 0.0
C199 C 0.17628 0.16875 0.60069 0.0
C200 C 0.15892 0.17085 0.62277 0.0
C201 C 0.15975 0.15568 0.64743 0.0
C202 C 0.17797 0.13862 0.64878 0.0
H203 H 0.2078 0.15028 0.58673 0.0
O204 O 0.26754 0.15763 0.64879 0.0
O205 O 0.23946 0.13024 0.65377 0.0
O206 O 0.26925 0.12158 0.60306 0.0
O207 O 0.23053 0.1126 0.59657 0.0
C208 C 0.1436 0.15725 0.6711 0.0
C209 C 0.14612 0.14206 0.69581 0.0
H210 H 0.15713 0.11048 0.74006 0.0
H211 H 0.1911 0.08213 0.73893 0.0
H212 H 0.17597 0.18061 0.58179 0.0
H213 H 0.14528 0.18444 0.6208 0.0
H214 H 0.1294 0.17033 0.67073 0.0
H215 H 0.13379 0.14366 0.71405 0.0
Mn216 Mn 0.89629 0.28717 0.64046 0.0
Mn217 Mn 0.84563 0.31137 0.61474 0.0
C218 C 0.88895 0.28654 0.58981 0.0
C219 C 0.93554 0.29317 0.65515 0.0
C220 C 0.84813 0.26252 0.64452 0.0
O221 O 0.88376 0.30665 0.67568 0.0
O222 O 0.85383 0.32582 0.65299 0.0
C223 C 0.86299 0.36083 0.60485 0.0
N224 N 0.85243 0.34054 0.59443 0.0
C225 C 0.84949 0.35721 0.54573 0.0
C226 C 0.85998 0.37844 0.55596 0.0
C227 C 0.86675 0.38026 0.58569 0.0
C228 C 0.84576 0.33861 0.56597 0.0
H229 H 0.86873 0.36209 0.62752 0.0
C230 C 0.86744 0.32254 0.67512 0.0
O231 O 0.92353 0.27474 0.66443 0.0
O232 O 0.9246 0.30812 0.63802 0.0
N233 N 0.83535 0.29926 0.57762 0.0
C234 C 0.82616 0.27726 0.57107 0.0
C235 C 0.8191 0.27226 0.54204 0.0
C236 C 0.82166 0.28989 0.52018 0.0
C237 C 0.83045 0.31262 0.52778 0.0
C238 C 0.83647 0.31682 0.55717 0.0
H239 H 0.82451 0.26351 0.5877 0.0
O240 O 0.90471 0.2725 0.60142 0.0
O241 O 0.87842 0.30107 0.60812 0.0
O242 O 0.87071 0.26127 0.64703 0.0
O243 O 0.83733 0.28107 0.63474 0.0
C244 C 0.83503 0.33072 0.50704 0.0
C245 C 0.84387 0.35323 0.51594 0.0
H246 H 0.86333 0.39328 0.54108 0.0
H247 H 0.87513 0.39647 0.59372 0.0
H248 H 0.81223 0.25472 0.5364 0.0
H249 H 0.81724 0.28558 0.49758 0.0
H250 H 0.83391 0.32664 0.48399 0.0
H251 H 0.84765 0.36677 0.49945 0.0
Mn252 Mn 0.72932 0.87763 0.65215 0.0
Mn253 Mn 0.78673 0.89244 0.64014 0.0
C254 C 0.75732 0.84763 0.65106 0.0
C255 C 0.69862 0.87424 0.68637 0.0
C256 C 0.75117 0.88581 0.59057 0.0
O257 O 0.72907 0.91371 0.65619 0.0
O258 O 0.7675 0.92187 0.64842 0.0
C259 C 0.79601 0.90806 0.70149 0.0
N260 N 0.80174 0.89405 0.67791 0.0
C261 C 0.83481 0.87686 0.70395 0.0
C262 C 0.82937 0.89123 0.72844 0.0
C263 C 0.80982 0.90683 0.72723 0.0
C264 C 0.82029 0.87874 0.679 0.0
H265 H 0.781 0.92007 0.70068 0.0
C266 C 0.74617 0.92844 0.65386 0.0
O267 O 0.69397 0.87652 0.6584 0.0
O268 O 0.72069 0.87409 0.69415 0.0
N269 N 0.80859 0.86695 0.63194 0.0
C270 C 0.81156 0.85433 0.60645 0.0
C271 C 0.83049 0.83809 0.60392 0.0
C272 C 0.84646 0.83526 0.62742 0.0
C273 C 0.84336 0.84875 0.65324 0.0
C274 C 0.82421 0.86475 0.65443 0.0
H275 H 0.79924 0.85618 0.5885 0.0
O276 O 0.73492 0.84277 0.64911 0.0
O277 O 0.76286 0.87011 0.65593 0.0
O278 O 0.73298 0.88123 0.60678 0.0
O279 O 0.77195 0.89013 0.60083 0.0
C280 C 0.85838 0.84676 0.67797 0.0
C281 C 0.85402 0.8607 0.70337 0.0
H282 H 0.84003 0.89038 0.7483 0.0
H283 H 0.80545 0.9179 0.74607 0.0
H284 H 0.83267 0.82767 0.58395 0.0
H285 H 0.8609 0.82255 0.6255 0.0
H286 H 0.87321 0.8344 0.67777 0.0
H287 H 0.86558 0.85887 0.72234 0.0
Mn288 Mn 0.89982 0.71787 0.64635 0.0
Mn289 Mn 0.85096 0.68789 0.62426 0.0
C290 C 0.89157 0.71426 0.59631 0.0
C291 C 0.93997 0.71889 0.65903 0.0
C292 C 0.84947 0.73935 0.64456 0.0
O293 O 0.8904 0.70004 0.68396 0.0
O294 O 0.85679 0.68343 0.66701 0.0
C295 C 0.87154 0.6396 0.63403 0.0
N296 N 0.86125 0.65593 0.61568 0.0
C297 C 0.8646 0.62904 0.57436 0.0
C298 C 0.87505 0.61189 0.59286 0.0
C299 C 0.8785 0.61719 0.62284 0.0
C300 C 0.85774 0.65095 0.58687 0.0
H301 H 0.87455 0.64363 0.65701 0.0
C302 C 0.87158 0.68769 0.68773 0.0
O303 O 0.92549 0.73563 0.66758 0.0
O304 O 0.93086 0.70114 0.64443 0.0
N305 N 0.84274 0.68977 0.58355 0.0
C306 C 0.83171 0.70795 0.56893 0.0
C307 C 0.82771 0.7058 0.53853 0.0
C308 C 0.83483 0.68485 0.52382 0.0
C309 C 0.84412 0.66557 0.53974 0.0
C310 C 0.84771 0.66877 0.56996 0.0
H311 H 0.82693 0.72431 0.58013 0.0
O312 O 0.90543 0.73104 0.60596 0.0
O313 O 0.88327 0.69947 0.6162 0.0
O314 O 0.87132 0.7404 0.6521 0.0
O315 O 0.83989 0.721 0.63232 0.0
C316 C 0.85104 0.64378 0.52656 0.0
C317 C 0.86114 0.62545 0.54391 0.0
H318 H 0.88066 0.59467 0.58424 0.0
H319 H 0.88668 0.6041 0.63725 0.0
H320 H 0.82024 0.72064 0.5263 0.0
H321 H 0.83414 0.68407 0.50013 0.0
H322 H 0.84892 0.64103 0.50308 0.0
H323 H 0.86644 0.60878 0.53354 0.0
Mn324 Mn 0.29143 0.8949 0.63067 0.0
Mn325 Mn 0.31887 0.8468 0.60077 0.0
C326 C 0.28924 0.88865 0.58056 0.0
C327 C 0.29216 0.93481 0.64594 0.0
C328 C 0.27231 0.84379 0.63444 0.0
O329 O 0.3136 0.88362 0.66329 0.0
O330 O 0.33348 0.85426 0.63965 0.0
C331 C 0.36623 0.86802 0.59 0.0
N332 N 0.34654 0.85665 0.57963 0.0
C333 C 0.3628 0.85476 0.53059 0.0
C334 C 0.38334 0.86632 0.54077 0.0
C335 C 0.38503 0.87304 0.57059 0.0
C336 C 0.3447 0.85016 0.55098 0.0
H337 H 0.36754 0.87322 0.61291 0.0
C338 C 0.32967 0.86746 0.66232 0.0
O339 O 0.27669 0.91976 0.6564 0.0
O340 O 0.308 0.92635 0.62796 0.0
N341 N 0.30665 0.83727 0.56317 0.0
C342 C 0.28516 0.82737 0.55661 0.0
C343 C 0.2803 0.8203 0.52748 0.0
C344 C 0.29767 0.82318 0.50552 0.0
C345 C 0.31979 0.83304 0.5129 0.0
C346 C 0.32365 0.83967 0.54232 0.0
H347 H 0.27176 0.82507 0.57341 0.0
O348 O 0.27403 0.90238 0.59378 0.0
O349 O 0.30584 0.87934 0.59697 0.0
O350 O 0.2693 0.86624 0.63847 0.0
O351 O 0.29044 0.83488 0.62155 0.0
C352 C 0.33795 0.83708 0.4921 0.0
C353 C 0.35943 0.84797 0.50092 0.0
H354 H 0.39784 0.87031 0.52584 0.0
H355 H 0.40077 0.88206 0.57858 0.0
H356 H 0.26319 0.81272 0.52196 0.0
H357 H 0.29377 0.81793 0.48302 0.0
H358 H 0.33545 0.83222 0.46916 0.0
H359 H 0.37313 0.85129 0.48465 0.0
Mn360 Mn 0.11429 0.28821 0.64149 0.0
Mn361 Mn 0.15886 0.32152 0.61355 0.0
C362 C 0.11864 0.29039 0.59078 0.0
C363 C 0.07557 0.28643 0.65977 0.0
C364 C 0.16563 0.27004 0.63201 0.0
O365 O 0.12564 0.30659 0.67752 0.0
O366 O 0.15677 0.32511 0.65714 0.0
C367 C 0.135 0.36756 0.62752 0.0
N368 N 0.14506 0.35251 0.60739 0.0
C369 C 0.13621 0.37978 0.56772 0.0
C370 C 0.12589 0.3956 0.58805 0.0
C371 C 0.12529 0.38945 0.61809 0.0
C372 C 0.14568 0.35825 0.57848 0.0
H373 H 0.13426 0.36292 0.65061 0.0
C374 C 0.14395 0.31981 0.67945 0.0
O375 O 0.09099 0.26993 0.6664 0.0
O376 O 0.08294 0.30399 0.64347 0.0
N377 N 0.16387 0.32114 0.57196 0.0
C378 C 0.17584 0.30469 0.55553 0.0
C379 C 0.17755 0.3079 0.52495 0.0
C380 C 0.16771 0.32845 0.51191 0.0
C381 C 0.15738 0.34615 0.52952 0.0
C382 C 0.1559 0.34179 0.55981 0.0
H383 H 0.18299 0.28872 0.56548 0.0
O384 O 0.10572 0.27396 0.60292 0.0
O385 O 0.12746 0.30659 0.60877 0.0
O386 O 0.14473 0.26729 0.64297 0.0
O387 O 0.17274 0.28932 0.61919 0.0
C388 C 0.14782 0.36756 0.51806 0.0
C389 C 0.13729 0.38442 0.53719 0.0
H390 H 0.1183 0.41246 0.58083 0.0
H391 H 0.11728 0.40152 0.63393 0.0
H392 H 0.1855 0.29409 0.51147 0.0
H393 H 0.16696 0.33001 0.48827 0.0
H394 H 0.14846 0.37121 0.49459 0.0
H395 H 0.13001 0.40084 0.52819 0.0
Mn396 Mn 0.73309 0.11126 0.63644 0.0
Mn397 Mn 0.69635 0.15507 0.61265 0.0
C398 C 0.72863 0.11757 0.58629 0.0
C399 C 0.73863 0.07149 0.65153 0.0
C400 C 0.74581 0.1647 0.63671 0.0
O401 O 0.71411 0.11977 0.67322 0.0
O402 O 0.68856 0.14672 0.65436 0.0
C403 C 0.65155 0.12737 0.61275 0.0
N404 N 0.66773 0.14106 0.59808 0.0
C405 C 0.64485 0.13923 0.55333 0.0
C406 C 0.62784 0.12524 0.568 0.0
C407 C 0.63124 0.11924 0.59783 0.0
C408 C 0.66469 0.14687 0.56938 0.0
H409 H 0.65416 0.1227 0.63566 0.0
C410 C 0.69671 0.13427 0.67588 0.0
O411 O 0.75347 0.08829 0.65899 0.0
O412 O 0.72023 0.078 0.63636 0.0
N413 N 0.70158 0.16542 0.57293 0.0
C414 C 0.72008 0.17831 0.56176 0.0
C415 C 0.71974 0.18528 0.53198 0.0
C416 C 0.70024 0.17926 0.51414 0.0
C417 C 0.68119 0.16642 0.5263 0.0
C418 C 0.68249 0.16002 0.55614 0.0
H419 H 0.73508 0.18303 0.5754 0.0
O420 O 0.74671 0.10589 0.59656 0.0
O421 O 0.71304 0.12466 0.60573 0.0
O422 O 0.75197 0.14285 0.64069 0.0
O423 O 0.72549 0.1709 0.62673 0.0
C424 C 0.6612 0.15924 0.50983 0.0
C425 C 0.64307 0.14562 0.52332 0.0
H426 H 0.6122 0.11886 0.55654 0.0
H427 H 0.61825 0.10835 0.60926 0.0
H428 H 0.7345 0.19521 0.52277 0.0
H429 H 0.70015 0.18448 0.49112 0.0
H430 H 0.65974 0.16384 0.48667 0.0
H431 H 0.62793 0.13998 0.51034 0.0
Mn432 Mn 0.89017 0.29335 0.36657 0.0
Mn433 Mn 0.84088 0.32526 0.38163 0.0
C434 C 0.87826 0.29792 0.41551 0.0
C435 C 0.93148 0.29452 0.35861 0.0
C436 C 0.83955 0.27273 0.36305 0.0
O437 O 0.88402 0.3098 0.32718 0.0
O438 O 0.85174 0.33025 0.34069 0.0
C439 C 0.86414 0.37281 0.37756 0.0
N440 N 0.84974 0.35716 0.39213 0.0
C441 C 0.83616 0.38802 0.42503 0.0
C442 C 0.85093 0.40454 0.41055 0.0
C443 C 0.86521 0.39682 0.38693 0.0
C444 C 0.83685 0.36412 0.41568 0.0
H445 H 0.87444 0.36704 0.35875 0.0
C446 C 0.86731 0.32439 0.32163 0.0
O447 O 0.91885 0.27641 0.34949 0.0
O448 O 0.92005 0.31161 0.37151 0.0
N449 N 0.82636 0.32388 0.41973 0.0
C450 C 0.81319 0.30569 0.43127 0.0
C451 C 0.79538 0.31081 0.45207 0.0
C452 C 0.7918 0.33455 0.46155 0.0
C453 C 0.80655 0.35284 0.4507 0.0
C454 C 0.82349 0.3467 0.42934 0.0
H455 H 0.81611 0.2875 0.42429 0.0
O456 O 0.89278 0.28119 0.40745 0.0
O457 O 0.87169 0.31277 0.39476 0.0
O458 O 0.86195 0.26989 0.35898 0.0
O459 O 0.83033 0.29255 0.37157 0.0
C460 C 0.80509 0.3769 0.46012 0.0
C461 C 0.82028 0.39439 0.44775 0.0
H462 H 0.85124 0.42321 0.41715 0.0
H463 H 0.87655 0.40947 0.37553 0.0
H464 H 0.7845 0.29648 0.46085 0.0
H465 H 0.77824 0.33839 0.47783 0.0
H466 H 0.79248 0.38211 0.47698 0.0
H467 H 0.81916 0.41278 0.45533 0.0
Mn468 Mn 0.72286 0.89416 0.36746 0.0
Mn469 Mn 0.69235 0.84862 0.39907 0.0
C470 C 0.72383 0.88936 0.41804 0.0
C471 C 0.7254 0.93379 0.35067 0.0
C472 C 0.73904 0.84181 0.36645 0.0
O473 O 0.70017 0.88341 0.33487 0.0
O474 O 0.67883 0.85561 0.3595 0.0
C475 C 0.64599 0.87253 0.40747 0.0
N476 N 0.66488 0.86051 0.41892 0.0
C477 C 0.64759 0.86073 0.46748 0.0
C478 C 0.62786 0.873 0.45618 0.0
C479 C 0.62709 0.87897 0.42606 0.0
C480 C 0.66583 0.8547 0.44786 0.0
H481 H 0.64537 0.87714 0.38433 0.0
C482 C 0.68334 0.86801 0.33634 0.0
O483 O 0.73961 0.91723 0.341 0.0
O484 O 0.70873 0.92699 0.36859 0.0
N485 N 0.70344 0.83972 0.43744 0.0
C486 C 0.72436 0.82918 0.44512 0.0
C487 C 0.72835 0.8228 0.47468 0.0
C488 C 0.71069 0.82704 0.49595 0.0
C489 C 0.68917 0.83758 0.48743 0.0
C490 C 0.68617 0.84349 0.45763 0.0
H491 H 0.73797 0.82584 0.42885 0.0
O492 O 0.74023 0.90146 0.40455 0.0
O493 O 0.70699 0.88057 0.40158 0.0
O494 O 0.74321 0.8639 0.36114 0.0
O495 O 0.7204 0.83443 0.3797 0.0
C496 C 0.67082 0.84304 0.50747 0.0
C497 C 0.65006 0.85464 0.49751 0.0
H498 H 0.61329 0.87809 0.47047 0.0
H499 H 0.61197 0.88852 0.41722 0.0
H500 H 0.74501 0.81469 0.48108 0.0
H501 H 0.71393 0.82231 0.51878 0.0
H502 H 0.67266 0.83876 0.53067 0.0
H503 H 0.63624 0.85906 0.5132 0.0
Mn504 Mn 0.10827 0.70766 0.3565 0.0
Mn505 Mn 0.15711 0.67995 0.3828 0.0
C506 C 0.11577 0.70727 0.40706 0.0
C507 C 0.06808 0.70758 0.3431 0.0
C508 C 0.15829 0.73026 0.3581 0.0
O509 O 0.11855 0.68748 0.32079 0.0
O510 O 0.152 0.67277 0.34055 0.0
C511 C 0.13695 0.63099 0.37699 0.0
N512 N 0.14697 0.64844 0.39401 0.0
C513 C 0.14323 0.62401 0.43754 0.0
C514 C 0.13312 0.60572 0.42044 0.0
C515 C 0.12998 0.60924 0.39001 0.0
C516 C 0.15007 0.64521 0.42326 0.0
H517 H 0.13413 0.63364 0.35369 0.0
C518 C 0.1376 0.67516 0.31899 0.0
O519 O 0.08264 0.72377 0.33318 0.0
O520 O 0.07719 0.69077 0.3593 0.0
N521 N 0.16475 0.68428 0.42343 0.0
C522 C 0.17591 0.70315 0.43651 0.0
C523 C 0.17994 0.70264 0.46702 0.0
C524 C 0.17268 0.6826 0.48346 0.0
C525 C 0.16327 0.66254 0.46917 0.0
C526 C 0.15976 0.66406 0.43873 0.0
H527 H 0.18087 0.71879 0.42398 0.0
O528 O 0.10188 0.72318 0.39551 0.0
O529 O 0.12453 0.69145 0.38882 0.0
O530 O 0.13664 0.73032 0.34951 0.0
O531 O 0.16786 0.71277 0.37214 0.0
C532 C 0.15632 0.64151 0.48412 0.0
C533 C 0.14642 0.62219 0.46828 0.0
H534 H 0.12753 0.589 0.43046 0.0
H535 H 0.12203 0.59528 0.37666 0.0
H536 H 0.18759 0.71806 0.47798 0.0
H537 H 0.17343 0.68309 0.50715 0.0
H538 H 0.15831 0.64009 0.50779 0.0
H539 H 0.14112 0.60611 0.48 0.0
Mn540 Mn 0.27566 0.10423 0.3641 0.0
Mn541 Mn 0.31195 0.14752 0.39074 0.0
C542 C 0.27823 0.10997 0.41436 0.0
C543 C 0.27015 0.06453 0.34824 0.0
C544 C 0.26345 0.15794 0.36452 0.0
O545 O 0.29615 0.11293 0.32881 0.0
O546 O 0.3209 0.13998 0.34917 0.0
C547 C 0.35645 0.11942 0.39185 0.0
N548 N 0.34003 0.13303 0.40616 0.0
C549 C 0.36176 0.13049 0.45173 0.0
C550 C 0.37902 0.11657 0.43745 0.0
C551 C 0.37632 0.11096 0.4074 0.0
C552 C 0.34239 0.13845 0.43508 0.0
H553 H 0.35438 0.11506 0.36877 0.0
C554 C 0.31351 0.12761 0.32718 0.0
O555 O 0.25587 0.08158 0.34009 0.0
O556 O 0.28808 0.07076 0.36443 0.0
N557 N 0.30572 0.15723 0.43048 0.0
C558 C 0.28704 0.17009 0.44118 0.0
C559 C 0.28669 0.17668 0.47109 0.0
C560 C 0.30572 0.17036 0.48953 0.0
C561 C 0.32498 0.15757 0.47786 0.0
C562 C 0.32437 0.15153 0.44787 0.0
H563 H 0.27242 0.17507 0.42706 0.0
O564 O 0.26045 0.09857 0.40285 0.0
O565 O 0.29472 0.11712 0.39609 0.0
O566 O 0.25733 0.1362 0.35937 0.0
O567 O 0.28339 0.1638 0.37587 0.0
C568 C 0.3445 0.15008 0.49495 0.0
C569 C 0.36286 0.1365 0.48191 0.0
H570 H 0.39433 0.10995 0.44938 0.0
H571 H 0.38951 0.10014 0.39626 0.0
H572 H 0.27178 0.18657 0.47992 0.0
H573 H 0.30528 0.17529 0.51264 0.0
H574 H 0.34543 0.15439 0.51823 0.0
H575 H 0.37763 0.13061 0.49535 0.0
Mn576 Mn 0.60683 0.78421 0.86084 0.0
Mn577 Mn 0.6525 0.81947 0.88167 0.0
C578 C 0.61519 0.78791 0.91084 0.0
C579 C 0.56649 0.78305 0.84823 0.0
C580 C 0.65902 0.76823 0.85991 0.0
O581 O 0.61504 0.80209 0.82281 0.0
O582 O 0.64362 0.82616 0.84026 0.0
C583 C 0.62626 0.86542 0.87923 0.0
N584 N 0.63971 0.84941 0.89457 0.0
C585 C 0.63832 0.87397 0.93812 0.0
C586 C 0.62469 0.89088 0.92272 0.0
C587 C 0.61862 0.88656 0.89313 0.0
C588 C 0.64568 0.85339 0.92296 0.0
H589 H 0.62131 0.86205 0.85659 0.0
C590 C 0.63016 0.81885 0.81947 0.0
O591 O 0.58078 0.76598 0.83996 0.0
O592 O 0.57582 0.80054 0.86291 0.0
N593 N 0.66353 0.81573 0.92106 0.0
C594 C 0.67614 0.79727 0.93294 0.0
C595 C 0.68186 0.79788 0.96302 0.0
C596 C 0.67507 0.81773 0.98005 0.0
C597 C 0.66416 0.83748 0.96676 0.0
C598 C 0.65849 0.83566 0.93689 0.0
H599 H 0.68079 0.78175 0.91991 0.0
O600 O 0.60171 0.77089 0.90106 0.0
O601 O 0.62244 0.80339 0.89104 0.0
O602 O 0.637 0.76308 0.85581 0.0
O603 O 0.66633 0.7887 0.86908 0.0
C604 C 0.65707 0.85808 0.98248 0.0
C605 C 0.64433 0.87642 0.96812 0.0
H606 H 0.61856 0.90708 0.93348 0.0
H607 H 0.60795 0.89941 0.88114 0.0
H608 H 0.69048 0.78269 0.97331 0.0
H609 H 0.67664 0.81693 0.0036 0.0
H610 H 0.66054 0.8596 0.00586 0.0
H611 H 0.63869 0.892 0.98055 0.0
Mn612 Mn 0.23638 0.62886 0.8408 0.0
Mn613 Mn 0.29288 0.61536 0.85945 0.0
C614 C 0.26467 0.6588 0.83948 0.0
C615 C 0.20789 0.63021 0.8035 0.0
C616 C 0.25391 0.62427 0.90472 0.0
O617 O 0.23628 0.59266 0.84087 0.0
O618 O 0.27471 0.58535 0.85049 0.0
C619 C 0.30842 0.59683 0.80138 0.0
N620 N 0.31163 0.612 0.82459 0.0
C621 C 0.34787 0.6273 0.80369 0.0
C622 C 0.34507 0.61168 0.77967 0.0
C623 C 0.32521 0.59645 0.77846 0.0
C624 C 0.33059 0.62682 0.8259 0.0
H625 H 0.29317 0.58511 0.80039 0.0
C626 C 0.25357 0.57836 0.84454 0.0
O627 O 0.20152 0.6299 0.8311 0.0
O628 O 0.23036 0.6292 0.7979 0.0
N629 N 0.31321 0.64186 0.86863 0.0
C630 C 0.31203 0.65749 0.8917 0.0
C631 C 0.33014 0.67451 0.89561 0.0
C632 C 0.34935 0.67522 0.87587 0.0
C633 C 0.35012 0.65907 0.85216 0.0
C634 C 0.33163 0.64239 0.8495 0.0
H635 H 0.29707 0.65739 0.90648 0.0
O636 O 0.24223 0.66373 0.83998 0.0
O637 O 0.27021 0.63602 0.83851 0.0
O638 O 0.23693 0.62868 0.88665 0.0
O639 O 0.27502 0.61904 0.89654 0.0
C640 C 0.36804 0.65944 0.83047 0.0
C641 C 0.36689 0.6436 0.80622 0.0
H642 H 0.35794 0.61139 0.76191 0.0
H643 H 0.32285 0.58445 0.75992 0.0
H644 H 0.32919 0.68719 0.91365 0.0
H645 H 0.36313 0.68857 0.87875 0.0
H646 H 0.38253 0.67217 0.8319 0.0
H647 H 0.38056 0.64434 0.78942 0.0
Mn648 Mn 0.39513 0.20813 0.85769 0.0
Mn649 Mn 0.34538 0.17686 0.87216 0.0
C650 C 0.38222 0.20507 0.90645 0.0
C651 C 0.43586 0.20654 0.84857 0.0
C652 C 0.34533 0.2278 0.84805 0.0
O653 O 0.38824 0.19086 0.81879 0.0
O654 O 0.35856 0.16693 0.83371 0.0
C655 C 0.36744 0.12901 0.87869 0.0
N656 N 0.35367 0.14696 0.88977 0.0
C657 C 0.3465 0.12487 0.93439 0.0
C658 C 0.36042 0.10602 0.92343 0.0
C659 C 0.37099 0.10814 0.89547 0.0
C660 C 0.34357 0.1452 0.91666 0.0
H661 H 0.37569 0.13065 0.85727 0.0
C662 C 0.37352 0.17388 0.81435 0.0
O663 O 0.42322 0.22457 0.8394 0.0
O664 O 0.4248 0.18971 0.86271 0.0
N665 N 0.33016 0.18416 0.90853 0.0
C666 C 0.31779 0.20424 0.91609 0.0
C667 C 0.30647 0.20525 0.9436 0.0
C668 C 0.30768 0.18549 0.96269 0.0
C669 C 0.32 0.16479 0.95408 0.0
C670 C 0.33082 0.16477 0.92639 0.0
H671 H 0.31675 0.21944 0.9014 0.0
O672 O 0.39797 0.22083 0.89877 0.0
O673 O 0.37552 0.19045 0.88555 0.0
O674 O 0.36774 0.2316 0.84924 0.0
O675 O 0.33567 0.20771 0.85467 0.0
C676 C 0.32246 0.14439 0.97208 0.0
C677 C 0.33571 0.12446 0.96238 0.0
H678 H 0.36325 0.08993 0.93638 0.0
H679 H 0.38188 0.09375 0.8869 0.0
H680 H 0.2969 0.22122 0.9501 0.0
H681 H 0.29912 0.18654 0.98386 0.0
H682 H 0.31465 0.14402 0.9936 0.0
H683 H 0.33766 0.10905 0.97674 0.0
Mn684 Mn 0.78272 0.37569 0.85664 0.0
Mn685 Mn 0.72668 0.39346 0.87213 0.0
C686 C 0.75227 0.3478 0.85658 0.0
C687 C 0.813 0.36958 0.8227 0.0
C688 C 0.76418 0.38515 0.91905 0.0
O689 O 0.78503 0.41195 0.85301 0.0
O690 O 0.74692 0.42168 0.86183 0.0
C691 C 0.71391 0.40991 0.81209 0.0
N692 N 0.70923 0.39602 0.83612 0.0
C693 C 0.67354 0.3807 0.81388 0.0
C694 C 0.67786 0.39501 0.78899 0.0
C695 C 0.69819 0.40962 0.78806 0.0
C696 C 0.68983 0.38177 0.83716 0.0
H697 H 0.72955 0.42111 0.81125 0.0
C698 C 0.7684 0.4273 0.85552 0.0
O699 O 0.81766 0.37181 0.85062 0.0
O700 O 0.79104 0.37164 0.81455 0.0
N701 N 0.70462 0.36864 0.88228 0.0
C702 C 0.70373 0.35488 0.90711 0.0
C703 C 0.68476 0.33887 0.91121 0.0
C704 C 0.66675 0.33733 0.88988 0.0
C705 C 0.66792 0.3518 0.86461 0.0
C706 C 0.6872 0.36753 0.86182 0.0
H707 H 0.71765 0.35574 0.92333 0.0
O708 O 0.7742 0.34117 0.85915 0.0
O709 O 0.74861 0.37076 0.85327 0.0
O710 O 0.78094 0.37906 0.90163 0.0
O711 O 0.74327 0.39068 0.91042 0.0
C712 C 0.65105 0.35077 0.8417 0.0
C713 C 0.6539 0.36516 0.81632 0.0
H714 H 0.66581 0.39479 0.77039 0.0
H715 H 0.70172 0.42061 0.76886 0.0
H716 H 0.68411 0.32761 0.93065 0.0
H717 H 0.6523 0.32475 0.89295 0.0
H718 H 0.63602 0.33871 0.84318 0.0
H719 H 0.64098 0.36397 0.79868 0.0
Mn720 Mn 0.60664 0.22085 0.14011 0.0
Mn721 Mn 0.65886 0.19256 0.12972 0.0
C722 C 0.62101 0.2148 0.0922 0.0
C723 C 0.56537 0.21991 0.14713 0.0
C724 C 0.65474 0.24448 0.14983 0.0
O725 O 0.61313 0.20541 0.18062 0.0
O726 O 0.64504 0.18343 0.16808 0.0
C727 C 0.64191 0.14237 0.12572 0.0
N728 N 0.65467 0.16098 0.11444 0.0
C729 C 0.67383 0.13527 0.07919 0.0
C730 C 0.66084 0.11577 0.09027 0.0
C731 C 0.64456 0.1194 0.11339 0.0
C732 C 0.6695 0.1579 0.09136 0.0
H733 H 0.63007 0.14505 0.14419 0.0
C734 C 0.62892 0.18963 0.18637 0.0
O735 O 0.57816 0.23798 0.1557 0.0
O736 O 0.57665 0.20203 0.13528 0.0
N737 N 0.67512 0.19919 0.09366 0.0
C738 C 0.68551 0.22009 0.08486 0.0
C739 C 0.70252 0.21965 0.06222 0.0
C740 C 0.70935 0.19765 0.04971 0.0
C741 C 0.69844 0.17637 0.05917 0.0
C742 C 0.68087 0.17807 0.08089 0.0
H743 H 0.68129 0.23686 0.09555 0.0
O744 O 0.60502 0.2309 0.09774 0.0
O745 O 0.62762 0.20196 0.11467 0.0
O746 O 0.63226 0.24622 0.14775 0.0
O747 O 0.66591 0.22496 0.14504 0.0
C748 C 0.70409 0.15355 0.04767 0.0
C749 C 0.69138 0.1331 0.05716 0.0
H750 H 0.66336 0.09791 0.08138 0.0
H751 H 0.63455 0.10443 0.12215 0.0
H752 H 0.71088 0.23614 0.05504 0.0
H753 H 0.72287 0.19731 0.03271 0.0
H754 H 0.7176 0.15165 0.03082 0.0
H755 H 0.6954 0.11577 0.04759 0.0
Mn756 Mn 0.77964 0.63083 0.1544 0.0
Mn757 Mn 0.72171 0.61678 0.14529 0.0
C758 C 0.75206 0.66127 0.15391 0.0
C759 C 0.81104 0.63511 0.18752 0.0
C760 C 0.75612 0.6219 0.09397 0.0
O761 O 0.77952 0.59477 0.15912 0.0
O762 O 0.74062 0.5873 0.15417 0.0
C763 C 0.71339 0.603 0.20751 0.0
N764 N 0.70748 0.61652 0.18358 0.0
C765 C 0.67552 0.63534 0.21008 0.0
C766 C 0.68114 0.62149 0.23494 0.0
C767 C 0.70022 0.60531 0.23368 0.0
C768 C 0.68938 0.63237 0.18469 0.0
H769 H 0.72806 0.59057 0.20666 0.0
C770 C 0.762 0.5804 0.1585 0.0
O771 O 0.81514 0.63211 0.15951 0.0
O772 O 0.78914 0.6349 0.19599 0.0
N773 N 0.70022 0.64249 0.13671 0.0
C774 C 0.69694 0.65443 0.11078 0.0
C775 C 0.67842 0.67115 0.10828 0.0
C776 C 0.66315 0.67512 0.13226 0.0
C777 C 0.66652 0.66229 0.15854 0.0
C778 C 0.68524 0.64578 0.15969 0.0
H779 H 0.70873 0.65168 0.09242 0.0
O780 O 0.77448 0.66569 0.15103 0.0
O781 O 0.7463 0.63894 0.15934 0.0
O782 O 0.77482 0.6268 0.10913 0.0
O783 O 0.73571 0.61775 0.10546 0.0
C784 C 0.65218 0.66541 0.18372 0.0
C785 C 0.65676 0.65204 0.20953 0.0
H786 H 0.67099 0.62318 0.25514 0.0
H787 H 0.70474 0.59463 0.25281 0.0
H788 H 0.67601 0.68104 0.08795 0.0
H789 H 0.64901 0.68819 0.13034 0.0
H790 H 0.6377 0.67818 0.18355 0.0
H791 H 0.64572 0.65472 0.22883 0.0
Mn792 Mn 0.3965 0.77474 0.13883 0.0
Mn793 Mn 0.34678 0.80594 0.12391 0.0
C794 C 0.38561 0.78068 0.08969 0.0
C795 C 0.43723 0.77647 0.14944 0.0
C796 C 0.34634 0.75341 0.14252 0.0
O797 O 0.38826 0.79 0.17872 0.0
O798 O 0.3578 0.81302 0.16423 0.0
C799 C 0.36893 0.85409 0.12476 0.0
N800 N 0.35569 0.83715 0.11064 0.0
C801 C 0.35234 0.86194 0.06752 0.0
C802 C 0.36549 0.87988 0.08177 0.0
C803 C 0.37385 0.87591 0.11054 0.0
C804 C 0.34763 0.84072 0.083 0.0
H805 H 0.37591 0.85088 0.14657 0.0
C806 C 0.37266 0.80604 0.18363 0.0
O807 O 0.42455 0.75791 0.15688 0.0
O808 O 0.42615 0.79386 0.13652 0.0
N809 N 0.3337 0.80141 0.08567 0.0
C810 C 0.32206 0.78191 0.07471 0.0
C811 C 0.31343 0.78253 0.04575 0.0
C812 C 0.31672 0.80322 0.02861 0.0
C813 C 0.32782 0.82341 0.04085 0.0
C814 C 0.33571 0.82189 0.06993 0.0
H815 H 0.31982 0.76585 0.08773 0.0
O816 O 0.40094 0.76441 0.0969 0.0
O817 O 0.37779 0.7938 0.11147 0.0
O818 O 0.36891 0.75034 0.14371 0.0
O819 O 0.33667 0.77366 0.13672 0.0
C820 C 0.33266 0.84446 0.02483 0.0
C821 C 0.34459 0.86384 0.03814 0.0
H822 H 0.36963 0.89657 0.07065 0.0
H823 H 0.38431 0.8895 0.12157 0.0
H824 H 0.30474 0.76695 0.03643 0.0
H825 H 0.31108 0.80313 0.00597 0.0
H826 H 0.32868 0.84532 0.0018 0.0
H827 H 0.34847 0.87973 0.02524 0.0
Mn828 Mn 0.21956 0.37485 0.14514 0.0
Mn829 Mn 0.2753 0.3955 0.13391 0.0
C830 C 0.2513 0.34836 0.14588 0.0
C831 C 0.18849 0.36585 0.17742 0.0
C832 C 0.24071 0.38578 0.08397 0.0
O833 O 0.21528 0.41106 0.14959 0.0
O834 O 0.25306 0.42264 0.14204 0.0
C835 C 0.28294 0.41231 0.19516 0.0
N836 N 0.28984 0.39854 0.17186 0.0
C837 C 0.32296 0.38286 0.19923 0.0
C838 C 0.31633 0.39704 0.22342 0.0
C839 C 0.29619 0.41179 0.22138 0.0
C840 C 0.30904 0.38411 0.17369 0.0
H841 H 0.26739 0.42355 0.1938 0.0
C842 C 0.2312 0.42729 0.14738 0.0
O843 O 0.18461 0.36868 0.14938 0.0
O844 O 0.20995 0.36927 0.1867 0.0
N845 N 0.29926 0.37197 0.12609 0.0
C846 C 0.30372 0.35992 0.10053 0.0
C847 C 0.3234 0.34453 0.09879 0.0
C848 C 0.33851 0.34195 0.1232 0.0
C849 C 0.33402 0.3551 0.14897 0.0
C850 C 0.31424 0.37032 0.14931 0.0
H851 H 0.29209 0.36164 0.08185 0.0
O852 O 0.22983 0.34077 0.14197 0.0
O853 O 0.25369 0.37137 0.1503 0.0
O854 O 0.22325 0.37934 0.10024 0.0
O855 O 0.26112 0.39181 0.0941 0.0
C856 C 0.34835 0.35364 0.17437 0.0
C857 C 0.34277 0.36745 0.19953 0.0
H858 H 0.3265 0.39668 0.24369 0.0
H859 H 0.29088 0.42269 0.24 0.0
H860 H 0.32678 0.33453 0.07876 0.0
H861 H 0.35352 0.32988 0.12189 0.0
H862 H 0.36366 0.34191 0.17483 0.0
H863 H 0.35386 0.3661 0.21897 0.0
Mn864 Mn 0.38289 0.20865 0.12645 0.0
Mn865 Mn 0.33054 0.18034 0.1171 0.0
C866 C 0.36883 0.20083 0.0789 0.0
C867 C 0.42413 0.20654 0.13377 0.0
C868 C 0.33434 0.23398 0.12762 0.0
O869 O 0.37666 0.19569 0.16795 0.0
O870 O 0.34141 0.17903 0.15845 0.0
C871 C 0.35083 0.1323 0.12928 0.0
N872 N 0.33747 0.14705 0.11202 0.0
C873 C 0.32529 0.11408 0.08145 0.0
C874 C 0.33864 0.09845 0.0991 0.0
C875 C 0.35174 0.10767 0.1229 0.0
C876 C 0.32594 0.13859 0.08814 0.0
H877 H 0.36069 0.13926 0.14781 0.0
C878 C 0.35831 0.18412 0.17602 0.0
O879 O 0.41218 0.22564 0.14081 0.0
O880 O 0.41208 0.18879 0.12303 0.0
N881 N 0.31622 0.17853 0.07894 0.0
C882 C 0.30306 0.19572 0.06527 0.0
C883 C 0.28751 0.18931 0.04246 0.0
C884 C 0.28518 0.16514 0.03429 0.0
C885 C 0.29877 0.14766 0.04865 0.0
C886 C 0.31404 0.15516 0.07117 0.0
H887 H 0.30356 0.21399 0.07264 0.0
O888 O 0.38496 0.21693 0.08378 0.0
O889 O 0.36203 0.18857 0.10188 0.0
O890 O 0.35681 0.2345 0.13191 0.0
O891 O 0.32275 0.21485 0.12132 0.0
C892 C 0.29719 0.12298 0.04204 0.0
C893 C 0.31089 0.10626 0.05796 0.0
H894 H 0.33888 0.07936 0.09465 0.0
H895 H 0.36219 0.09577 0.13657 0.0
H896 H 0.27688 0.20289 0.03169 0.0
H897 H 0.27286 0.1602 0.01697 0.0
H898 H 0.2856 0.1167 0.02461 0.0
H899 H 0.30977 0.08739 0.05244 0.0
Mn900 Mn 0.76773 0.39729 0.14411 0.0
Mn901 Mn 0.80114 0.35277 0.11504 0.0
C902 C 0.76542 0.38957 0.09438 0.0
C903 C 0.76463 0.43737 0.15883 0.0
C904 C 0.75512 0.34393 0.14827 0.0
O905 O 0.79118 0.38959 0.17669 0.0
O906 O 0.81424 0.36223 0.15418 0.0
C907 C 0.84516 0.38056 0.10499 0.0
N908 N 0.82747 0.36633 0.09437 0.0
C909 C 0.8448 0.36612 0.04584 0.0
C910 C 0.86331 0.38066 0.05628 0.0
C911 C 0.86344 0.38797 0.08596 0.0
C912 C 0.82706 0.35936 0.06581 0.0
H913 H 0.84531 0.38618 0.1278 0.0
C914 C 0.80893 0.37541 0.17636 0.0
O915 O 0.7507 0.42099 0.16967 0.0
O916 O 0.7807 0.43031 0.14032 0.0
N917 N 0.79101 0.34124 0.07731 0.0
C918 C 0.77146 0.32792 0.07052 0.0
C919 C 0.76831 0.31968 0.0415 0.0
C920 C 0.78549 0.32479 0.01992 0.0
C921 C 0.80574 0.33803 0.0276 0.0
C922 C 0.8079 0.3458 0.05687 0.0
H923 H 0.75827 0.32379 0.08706 0.0
O924 O 0.74907 0.4019 0.10759 0.0
O925 O 0.78351 0.38298 0.11044 0.0
O926 O 0.7495 0.36588 0.15273 0.0
O927 O 0.77418 0.33738 0.13526 0.0
C928 C 0.82365 0.34419 0.00725 0.0
C929 C 0.84313 0.3583 0.01634 0.0
H930 H 0.87743 0.38642 0.04167 0.0
H931 H 0.87761 0.39927 0.09415 0.0
H932 H 0.75267 0.3094 0.03578 0.0
H933 H 0.78292 0.31853 0.99752 0.0
H934 H 0.82242 0.33852 0.98444 0.0
H935 H 0.8566 0.36322 1.00039 0.0
Mn936 Mn 0.61786 0.79861 0.13464 0.0
Mn937 Mn 0.66987 0.824 0.11464 0.0
C938 C 0.62955 0.79893 0.08509 0.0
C939 C 0.57695 0.80042 0.14373 0.0
C940 C 0.6663 0.77418 0.14102 0.0
O941 O 0.62572 0.81856 0.17123 0.0
O942 O 0.66024 0.83356 0.15487 0.0
C943 C 0.65246 0.87414 0.11299 0.0
N944 N 0.66435 0.85565 0.10011 0.0
C945 C 0.68043 0.88162 0.06278 0.0
C946 C 0.6683 0.901 0.07552 0.0
C947 C 0.65399 0.89717 0.10051 0.0
C948 C 0.67714 0.85891 0.07525 0.0
H949 H 0.64218 0.87135 0.13283 0.0
C950 C 0.64417 0.83154 0.17457 0.0
O951 O 0.59001 0.7835 0.15483 0.0
O952 O 0.5878 0.81665 0.12822 0.0
N953 N 0.68287 0.81761 0.07646 0.0
C954 C 0.6931 0.79698 0.06671 0.0
C955 C 0.70987 0.79788 0.04379 0.0
C956 C 0.71599 0.82006 0.03112 0.0
C957 C 0.70424 0.84094 0.04038 0.0
C958 C 0.68778 0.83888 0.06341 0.0
H959 H 0.68883 0.78009 0.07685 0.0
O960 O 0.61443 0.78339 0.09508 0.0
O961 O 0.63735 0.81446 0.10422 0.0
O962 O 0.644 0.77457 0.14566 0.0
O963 O 0.67764 0.79135 0.12875 0.0
C964 C 0.70839 0.86374 0.0279 0.0
C965 C 0.69616 0.88401 0.03875 0.0
H966 H 0.67003 0.91891 0.06649 0.0
H967 H 0.64466 0.91204 0.11057 0.0
H968 H 0.71832 0.78157 0.03621 0.0
H969 H 0.72903 0.82072 0.01356 0.0
H970 H 0.7208 0.86584 0.00981 0.0
H971 H 0.69928 0.90139 0.02878 0.0
Mn972 Mn 0.22024 0.6102 0.12662 0.0
Mn973 Mn 0.1906 0.65635 0.095 0.0
C974 C 0.22133 0.61504 0.07581 0.0
C975 C 0.2216 0.57044 0.14407 0.0
C976 C 0.23778 0.66236 0.12684 0.0
O977 O 0.19801 0.62168 0.15953 0.0
O978 O 0.17728 0.64979 0.13482 0.0
C979 C 0.14391 0.63279 0.08752 0.0
N980 N 0.1628 0.64463 0.07568 0.0
C981 C 0.1451 0.64415 0.02738 0.0
C982 C 0.12538 0.63207 0.03908 0.0
C983 C 0.12483 0.6263 0.06926 0.0
C984 C 0.16358 0.65015 0.04665 0.0
H985 H 0.14346 0.62833 0.11072 0.0
C986 C 0.18156 0.63747 0.15809 0.0
O987 O 0.23636 0.58671 0.15322 0.0
O988 O 0.2052 0.57755 0.12598 0.0
N989 N 0.20132 0.66514 0.05641 0.0
C990 C 0.22193 0.67622 0.04848 0.0
C991 C 0.22551 0.68284 0.0189 0.0
C992 C 0.20773 0.67836 0.9979 0.0
C993 C 0.18645 0.66742 0.00671 0.0
C994 C 0.18386 0.66131 0.03652 0.0
H995 H 0.23562 0.67983 0.06455 0.0
O996 O 0.23726 0.60234 0.08928 0.0
O997 O 0.20474 0.62419 0.09237 0.0
O998 O 0.24139 0.64018 0.13249 0.0
O999 O 0.21917 0.67004 0.11377 0.0
C1000 C 0.16791 0.6619 0.98699 0.0
C1001 C 0.14728 0.65021 0.9973 0.0
H1002 H 0.11065 0.62699 0.02506 0.0
H1003 H 0.10971 0.6169 0.07843 0.0
H1004 H 0.24196 0.69131 0.01229 0.0
H1005 H 0.21065 0.68327 0.97506 0.0
H1006 H 0.16946 0.6663 0.96378 0.0
H1007 H 0.13327 0.64581 0.98186 0.0
Mn1008 Mn 0.38571 0.80094 0.8686 0.0
Mn1009 Mn 0.33652 0.83242 0.8858 0.0
C1010 C 0.37349 0.80338 0.91778 0.0
C1011 C 0.42654 0.80086 0.8591 0.0
C1012 C 0.33522 0.78136 0.86211 0.0
O1013 O 0.37958 0.81967 0.83069 0.0
O1014 O 0.34816 0.84077 0.84604 0.0
C1015 C 0.3594 0.88025 0.88823 0.0
N1016 N 0.34511 0.86327 0.90054 0.0
C1017 C 0.33109 0.8909 0.93727 0.0
C1018 C 0.34574 0.90874 0.92517 0.0
C1019 C 0.36019 0.90329 0.90075 0.0
C1020 C 0.33204 0.86798 0.92477 0.0
H1021 H 0.36981 0.87627 0.86881 0.0
C1022 C 0.36366 0.83549 0.82663 0.0
O1023 O 0.41296 0.78375 0.84935 0.0
O1024 O 0.41636 0.81776 0.87409 0.0
N1025 N 0.32175 0.82759 0.92321 0.0
C1026 C 0.30894 0.80826 0.93232 0.0
C1027 C 0.29169 0.81112 0.95437 0.0
C1028 C 0.28808 0.83376 0.96725 0.0
C1029 C 0.30204 0.85326 0.95822 0.0
C1030 C 0.31882 0.84932 0.93599 0.0
H1031 H 0.31159 0.79093 0.92238 0.0
O1032 O 0.38805 0.78692 0.90883 0.0
O1033 O 0.36725 0.81911 0.89794 0.0
O1034 O 0.35762 0.77847 0.85931 0.0
O1035 O 0.32581 0.80081 0.87142 0.0
C1036 C 0.30018 0.87639 0.97064 0.0
C1037 C 0.3151 0.89506 0.96063 0.0
H1038 H 0.34585 0.92673 0.93423 0.0
H1039 H 0.37144 0.91698 0.89118 0.0
H1040 H 0.28119 0.7959 0.96147 0.0
H1041 H 0.27485 0.83586 0.98441 0.0
H1042 H 0.28761 0.8799 0.98821 0.0
H1043 H 0.31376 0.91267 0.97061 0.0
Mn1044 Mn 0.24769 0.39557 0.85809 0.0
Mn1045 Mn 0.21625 0.34871 0.88495 0.0
C1046 C 0.2476 0.38847 0.90822 0.0
C1047 C 0.24983 0.43547 0.84296 0.0
C1048 C 0.26458 0.3435 0.85608 0.0
O1049 O 0.22677 0.3859 0.82345 0.0
O1050 O 0.20487 0.35679 0.84448 0.0
C1051 C 0.16969 0.37283 0.89025 0.0
N1052 N 0.18776 0.36027 0.90282 0.0
C1053 C 0.16775 0.35943 0.94972 0.0
C1054 C 0.14884 0.37224 0.93724 0.0
C1055 C 0.14985 0.37903 0.9074 0.0
C1056 C 0.18705 0.3538 0.93155 0.0
H1057 H 0.17042 0.37806 0.86731 0.0
C1058 C 0.21029 0.37019 0.82251 0.0
O1059 O 0.26494 0.41961 0.83362 0.0
O1060 O 0.23285 0.42789 0.85995 0.0
N1061 N 0.22491 0.3384 0.92376 0.0
C1062 C 0.24493 0.32673 0.93262 0.0
C1063 C 0.24699 0.31918 0.96208 0.0
C1064 C 0.22829 0.32327 0.98196 0.0
C1065 C 0.20763 0.33479 0.97215 0.0
C1066 C 0.2066 0.34194 0.94255 0.0
H1067 H 0.2593 0.3234 0.9174 0.0
O1068 O 0.2638 0.40176 0.89616 0.0
O1069 O 0.23102 0.3804 0.89068 0.0
O1070 O 0.26845 0.36578 0.85167 0.0
O1071 O 0.24551 0.33529 0.8676 0.0
C1072 C 0.18821 0.33987 0.99072 0.0
C1073 C 0.16831 0.35224 0.97953 0.0
H1074 H 0.13352 0.37707 0.9504 0.0
H1075 H 0.13537 0.38899 0.89764 0.0
H1076 H 0.26295 0.31022 0.96945 0.0
H1077 H 0.23001 0.31757 0.00471 0.0
H1078 H 0.18854 0.33466 0.01375 0.0
H1079 H 0.15363 0.35633 0.99412 0.0
Mn1080 Mn 0.61503 0.21731 0.86695 0.0
Mn1081 Mn 0.65965 0.1824 0.89133 0.0
C1082 C 0.62043 0.21321 0.91721 0.0
C1083 C 0.57596 0.21968 0.85007 0.0
C1084 C 0.66683 0.23451 0.87542 0.0
O1085 O 0.6252 0.19998 0.82972 0.0
O1086 O 0.65647 0.18013 0.8476 0.0
C1087 C 0.63482 0.13713 0.87601 0.0
N1088 N 0.64552 0.15141 0.8965 0.0
C1089 C 0.63687 0.12312 0.93516 0.0
C1090 C 0.62591 0.10808 0.91446 0.0
C1091 C 0.6249 0.11513 0.88474 0.0
C1092 C 0.64658 0.14478 0.9251 0.0
H1093 H 0.63374 0.14246 0.85318 0.0
C1094 C 0.64304 0.18638 0.82624 0.0
O1095 O 0.59121 0.23647 0.8438 0.0
O1096 O 0.58363 0.20171 0.86539 0.0
N1097 N 0.66551 0.18141 0.93277 0.0
C1098 C 0.67782 0.19728 0.94969 0.0
C1099 C 0.67985 0.19319 0.98008 0.0
C1100 C 0.6699 0.17239 0.99241 0.0
C1101 C 0.65917 0.1553 0.97426 0.0
C1102 C 0.6574 0.16052 0.9442 0.0
H1103 H 0.68497 0.21347 0.94032 0.0
O1104 O 0.60752 0.23027 0.90646 0.0
O1105 O 0.62865 0.1976 0.89805 0.0
O1106 O 0.64573 0.238 0.86541 0.0
O1107 O 0.6739 0.21462 0.88676 0.0
C1108 C 0.6494 0.13373 0.98503 0.0
C1109 C 0.63831 0.11759 0.96545 0.0
H1110 H 0.61813 0.09116 0.92115 0.0
H1111 H 0.61638 0.10368 0.86862 0.0
H1112 H 0.68817 0.20649 0.99403 0.0
H1113 H 0.66926 0.1702 0.01591 0.0
H1114 H 0.65028 0.12943 0.00832 0.0
H1115 H 0.63086 0.10105 0.97392 0.0
Mn1116 Mn 0.77273 0.60991 0.86935 0.0
Mn1117 Mn 0.80159 0.65887 0.89498 0.0
C1118 C 0.77548 0.616 0.91961 0.0
C1119 C 0.77218 0.57011 0.85311 0.0
C1120 C 0.75173 0.66055 0.86942 0.0
O1121 O 0.79143 0.6216 0.83365 0.0
O1122 O 0.81231 0.65187 0.85395 0.0
C1123 C 0.8503 0.63919 0.89754 0.0
N1124 N 0.83156 0.64988 0.91121 0.0
C1125 C 0.85289 0.65217 0.95711 0.0
C1126 C 0.87249 0.64133 0.94348 0.0
C1127 C 0.87116 0.63476 0.91358 0.0
C1128 C 0.83263 0.65623 0.93997 0.0
H1129 H 0.84932 0.63409 0.87458 0.0
C1130 C 0.80706 0.63818 0.83217 0.0
O1131 O 0.75585 0.5853 0.84552 0.0
O1132 O 0.78956 0.57835 0.86898 0.0
N1133 N 0.79324 0.6679 0.93439 0.0
C1134 C 0.77235 0.67699 0.94461 0.0
C1135 C 0.77045 0.68376 0.97437 0.0
C1136 C 0.79012 0.68143 0.99319 0.0
C1137 C 0.81154 0.67239 0.98205 0.0
C1138 C 0.8124 0.666 0.95217 0.0
H1139 H 0.75719 0.67887 0.93026 0.0
O1140 O 0.75933 0.60201 0.90866 0.0
O1141 O 0.79011 0.62578 0.90078 0.0
O1142 O 0.74942 0.63805 0.86527 0.0
O1143 O 0.77073 0.67011 0.87938 0.0
C1144 C 0.83189 0.66889 0.99958 0.0
C1145 C 0.85253 0.65875 0.98713 0.0
H1146 H 0.88858 0.63779 0.9558 0.0
H1147 H 0.88618 0.62629 0.90295 0.0
H1148 H 0.75385 0.6907 0.98281 0.0
H1149 H 0.78851 0.68646 0.01619 0.0
H1150 H 0.83173 0.67359 0.02278 0.0
H1151 H 0.86796 0.65585 0.00094 0.0
H1152 H 0.2147 0.15696 0.35924 0.0
H1153 H 0.27535 0.20423 0.35404 0.0
H1154 H 0.24937 0.23858 0.34802 0.0
H1155 H 0.20987 0.25588 0.34867 0.0
H1156 H 0.14847 0.20988 0.3555 0.0
H1157 H 0.17423 0.17453 0.35578 0.0
C1158 C 0.22218 0.17474 0.35636 0.0
C1159 C 0.24698 0.17795 0.35751 0.0
C1160 C 0.20701 0.19475 0.35327 0.0
C1161 C 0.25636 0.20117 0.35374 0.0
C1162 C 0.24151 0.22091 0.35021 0.0
C1163 C 0.20198 0.23815 0.34984 0.0
C1164 C 0.17721 0.23568 0.35233 0.0
C1165 C 0.21685 0.218 0.35065 0.0
C1166 C 0.16746 0.21243 0.35357 0.0
C1167 C 0.18221 0.19216 0.35393 0.0
H1168 H 0.76024 0.19426 0.37837 0.0
H1169 H 0.79792 0.15951 0.30785 0.0
H1170 H 0.82784 0.19187 0.3081 0.0
H1171 H 0.84306 0.23077 0.32957 0.0
H1172 H 0.79696 0.26835 0.39017 0.0
H1173 H 0.77093 0.2344 0.39288 0.0
C1174 C 0.77513 0.19362 0.36317 0.0
C1175 C 0.7779 0.17375 0.3446 0.0
C1176 C 0.79094 0.21292 0.36197 0.0
C1177 C 0.79643 0.17386 0.32383 0.0
C1178 C 0.81325 0.19258 0.32364 0.0
C1179 C 0.82735 0.23144 0.34336 0.0
C1180 C 0.82298 0.25187 0.36103 0.0
C1181 C 0.81083 0.21223 0.34296 0.0
C1182 C 0.80188 0.25268 0.37769 0.0
C1183 C 0.78657 0.23325 0.37898 0.0
H1184 H 0.79617 0.74762 0.34212 0.0
H1185 H 0.85525 0.7932 0.36483 0.0
H1186 H 0.8289 0.82826 0.36484 0.0
H1187 H 0.78774 0.84468 0.36574 0.0
H1188 H 0.72912 0.79722 0.34689 0.0
H1189 H 0.75653 0.76425 0.33817 0.0
C1190 C 0.80345 0.76529 0.34653 0.0
C1191 C 0.82762 0.76772 0.35376 0.0
C1192 C 0.7881 0.78502 0.34773 0.0
C1193 C 0.83675 0.7908 0.35906 0.0
C1194 C 0.8216 0.81082 0.35943 0.0
C1195 C 0.78109 0.82723 0.35916 0.0
C1196 C 0.75641 0.82333 0.35725 0.0
C1197 C 0.79704 0.80799 0.35493 0.0
C1198 C 0.748 0.8006 0.34887 0.0
C1199 C 0.76366 0.78173 0.34383 0.0
H1200 H 0.19339 0.74867 0.3921 0.0
H1201 H 0.15565 0.76067 0.31075 0.0
H1202 H 0.18005 0.79623 0.30088 0.0
H1203 H 0.21284 0.82375 0.31542 0.0
H1204 H 0.24794 0.81262 0.39875 0.0
H1205 H 0.22396 0.77689 0.40785 0.0
C1206 C 0.19049 0.75899 0.37219 0.0
C1207 C 0.17289 0.75186 0.35209 0.0
C1208 C 0.20408 0.77969 0.36712 0.0
C1209 C 0.16915 0.76574 0.32657 0.0
C1210 C 0.18312 0.78604 0.32089 0.0
C1211 C 0.21475 0.81374 0.3358 0.0
C1212 C 0.2315 0.82116 0.35688 0.0
C1213 C 0.20065 0.79324 0.34105 0.0
C1214 C 0.23469 0.80749 0.3826 0.0
C1215 C 0.22108 0.78703 0.38776 0.0
H1216 H 0.21071 0.75343 0.66216 0.0
H1217 H 0.15476 0.79965 0.63099 0.0
H1218 H 0.18232 0.83377 0.63064 0.0
H1219 H 0.22401 0.84863 0.63174 0.0
H1220 H 0.2797 0.80042 0.65901 0.0
H1221 H 0.25064 0.76894 0.66834 0.0
C1222 C 0.20437 0.77107 0.65581 0.0
C1223 C 0.18081 0.77393 0.64625 0.0
C1224 C 0.22046 0.79019 0.65452 0.0
C1225 C 0.17281 0.79696 0.63851 0.0
C1226 C 0.18865 0.81641 0.63798 0.0
C1227 C 0.2296 0.83139 0.64036 0.0
C1228 C 0.25395 0.82672 0.64446 0.0
C1229 C 0.21277 0.813 0.64481 0.0
C1230 C 0.26108 0.80429 0.6554 0.0
C1231 C 0.24448 0.7863 0.66074 0.0
H1232 H 0.243 0.18972 0.61429 0.0
H1233 H 0.21128 0.16191 0.69361 0.0
H1234 H 0.18347 0.19589 0.69489 0.0
H1235 H 0.16736 0.23291 0.67176 0.0
H1236 H 0.20212 0.26137 0.59433 0.0
H1237 H 0.22925 0.22767 0.59368 0.0
C1238 C 0.22989 0.19111 0.63176 0.0
C1239 C 0.22821 0.17291 0.65297 0.0
C1240 C 0.2144 0.21073 0.63249 0.0
C1241 C 0.21198 0.17526 0.67627 0.0
C1242 C 0.1963 0.19477 0.67712 0.0
C1243 C 0.18088 0.23169 0.65478 0.0
C1244 C 0.18242 0.24959 0.63289 0.0
C1245 C 0.19705 0.21242 0.65497 0.0
C1246 C 0.20031 0.24791 0.61133 0.0
C1247 C 0.21594 0.2286 0.61093 0.0
H1248 H 0.7946 0.16296 0.6412 0.0
H1249 H 0.73472 0.21099 0.64838 0.0
H1250 H 0.76127 0.24478 0.65533 0.0
H1251 H 0.80098 0.26149 0.65483 0.0
H1252 H 0.86169 0.215 0.64566 0.0
H1253 H 0.83542 0.17989 0.64489 0.0
C1254 C 0.78741 0.18077 0.64466 0.0
C1255 C 0.76265 0.18438 0.6438 0.0
C1256 C 0.80292 0.20047 0.64832 0.0
C1257 C 0.75366 0.20764 0.64839 0.0
C1258 C 0.76883 0.22705 0.6525 0.0
C1259 C 0.80859 0.24367 0.65304 0.0
C1260 C 0.83327 0.24095 0.65002 0.0
C1261 C 0.79343 0.22377 0.65179 0.0
C1262 C 0.84275 0.21766 0.64811 0.0
C1263 C 0.8277 0.19758 0.64738 0.0
H1264 H 0.81377 0.75633 0.61059 0.0
H1265 H 0.8517 0.77005 0.6914 0.0
H1266 H 0.82629 0.80479 0.70133 0.0
H1267 H 0.79296 0.8314 0.68672 0.0
H1268 H 0.75757 0.81882 0.60389 0.0
H1269 H 0.78214 0.78349 0.59504 0.0
C1270 C 0.81645 0.76689 0.63037 0.0
C1271 C 0.83444 0.76057 0.6503 0.0
C1272 C 0.80228 0.78714 0.63548 0.0
C1273 C 0.83794 0.77463 0.67569 0.0
C1274 C 0.82338 0.79442 0.68143 0.0
C1275 C 0.79108 0.82112 0.66653 0.0
C1276 C 0.77417 0.82805 0.64546 0.0
C1277 C 0.80554 0.80094 0.6614 0.0
C1278 C 0.77097 0.81406 0.62 0.0
C1279 C 0.78493 0.79385 0.61498 0.0
H1280 H 0.65531 0.71883 0.86211 0.0
H1281 H 0.70526 0.77644 0.84743 0.0
H1282 H 0.73793 0.74814 0.84752 0.0
H1283 H 0.75303 0.70781 0.85597 0.0
H1284 H 0.70423 0.64931 0.87004 0.0
H1285 H 0.67061 0.67699 0.86571 0.0
C1286 C 0.67329 0.72507 0.85837 0.0
C1287 C 0.67774 0.74983 0.85518 0.0
C1288 C 0.69233 0.70857 0.85865 0.0
C1289 C 0.70123 0.75758 0.8504 0.0
C1290 C 0.72003 0.7414 0.85045 0.0
C1291 C 0.73504 0.70104 0.85789 0.0
C1292 C 0.7312 0.67658 0.86365 0.0
C1293 C 0.71588 0.71699 0.85533 0.0
C1294 C 0.70772 0.66808 0.86561 0.0
C1295 C 0.68847 0.68394 0.86325 0.0
H1296 H 0.26011 0.69855 0.87103 0.0
H1297 H 0.30448 0.66601 0.80505 0.0
H1298 H 0.33138 0.70087 0.80657 0.0
H1299 H 0.34235 0.74062 0.82853 0.0
H1300 H 0.29089 0.77567 0.88461 0.0
H1301 H 0.26662 0.73998 0.88503 0.0
C1302 C 0.2758 0.69899 0.85712 0.0
C1303 C 0.28151 0.67904 0.83972 0.0
C1304 C 0.28986 0.71963 0.85648 0.0
C1305 C 0.30092 0.68044 0.82038 0.0
C1306 C 0.31594 0.70056 0.82083 0.0
C1307 C 0.32576 0.74045 0.84067 0.0
C1308 C 0.31917 0.76054 0.85774 0.0
C1309 C 0.31076 0.72019 0.83924 0.0
C1310 C 0.29713 0.76028 0.87238 0.0
C1311 C 0.28301 0.73986 0.87249 0.0
H1312 H 0.35416 0.27621 0.85045 0.0
H1313 H 0.2993 0.2244 0.83087 0.0
H1314 H 0.26986 0.25614 0.82908 0.0
H1315 H 0.25872 0.29765 0.83873 0.0
H1316 H 0.31272 0.35016 0.85808 0.0
H1317 H 0.34344 0.31922 0.85391 0.0
C1318 C 0.33587 0.27195 0.84515 0.0
C1319 C 0.32895 0.24786 0.84131 0.0
C1320 C 0.31878 0.29038 0.84443 0.0
C1321 C 0.30513 0.2427 0.83439 0.0
C1322 C 0.2882 0.26085 0.83339 0.0
C1323 C 0.27725 0.30238 0.84168 0.0
C1324 C 0.28344 0.32601 0.84908 0.0
C1325 C 0.29468 0.28458 0.83935 0.0
C1326 C 0.30753 0.33203 0.85237 0.0
C1327 C 0.32507 0.31432 0.85015 0.0
H1328 H 0.66949 0.27262 0.83697 0.0
H1329 H 0.70335 0.24165 0.91344 0.0
H1330 H 0.73169 0.27428 0.91483 0.0
H1331 H 0.74748 0.31149 0.89447 0.0
H1332 H 0.71716 0.34139 0.81553 0.0
H1333 H 0.68716 0.30932 0.81453 0.0
C1334 C 0.68304 0.2731 0.85394 0.0
C1335 C 0.68402 0.25472 0.87528 0.0
C1336 C 0.70001 0.29173 0.8541 0.0
C1337 C 0.70195 0.25546 0.89684 0.0
C1338 C 0.71829 0.27417 0.89767 0.0
C1339 C 0.73415 0.31103 0.87719 0.0
C1340 C 0.73363 0.32928 0.85596 0.0
C1341 C 0.71751 0.29235 0.87646 0.0
C1342 C 0.71704 0.32806 0.83292 0.0
C1343 C 0.7001 0.30961 0.8322 0.0
H1344 H 0.70124 0.24664 0.16489 0.0
H1345 H 0.64068 0.2917 0.14704 0.0
H1346 H 0.6661 0.3273 0.14871 0.0
H1347 H 0.70651 0.34505 0.14937 0.0
H1348 H 0.76663 0.29894 0.16537 0.0
H1349 H 0.74039 0.26448 0.17054 0.0
C1350 C 0.69346 0.26425 0.1617 0.0
C1351 C 0.6691 0.26638 0.15547 0.0
C1352 C 0.70819 0.28453 0.16219 0.0
C1353 C 0.65938 0.28945 0.1518 0.0
C1354 C 0.67394 0.30984 0.15261 0.0
C1355 C 0.71375 0.32756 0.15469 0.0
C1356 C 0.7385 0.32453 0.15676 0.0
C1357 C 0.69852 0.30754 0.15697 0.0
C1358 C 0.74766 0.30171 0.16339 0.0
C1359 C 0.73268 0.28196 0.1663 0.0
H1360 H 0.71685 0.68015 0.18884 0.0
H1361 H 0.75229 0.68755 0.10497 0.0
H1362 H 0.72991 0.72391 0.09448 0.0
H1363 H 0.70109 0.75367 0.1092 0.0
H1364 H 0.66133 0.74516 0.18968 0.0
H1365 H 0.6845 0.70907 0.20169 0.0
C1366 C 0.71911 0.68948 0.16803 0.0
C1367 C 0.73559 0.68091 0.14725 0.0
C1368 C 0.70571 0.71024 0.1618 0.0
C1369 C 0.73926 0.69363 0.12091 0.0
C1370 C 0.72658 0.71443 0.11496 0.0
C1371 C 0.69731 0.74396 0.12927 0.0
C1372 C 0.67966 0.75219 0.14856 0.0
C1373 C 0.70987 0.72292 0.13526 0.0
C1374 C 0.67492 0.73916 0.17447 0.0
C1375 C 0.68817 0.71859 0.18134 0.0
H1376 H 0.28636 0.65731 0.13208 0.0
H1377 H 0.22953 0.70878 0.14059 0.0
H1378 H 0.25811 0.74064 0.14945 0.0
H1379 H 0.29877 0.75476 0.1507 0.0
H1380 H 0.35666 0.70491 0.13992 0.0
H1381 H 0.32823 0.67162 0.13669 0.0
C1382 C 0.28029 0.67544 0.13632 0.0
C1383 C 0.25577 0.68062 0.13541 0.0
C1384 C 0.29701 0.69404 0.1409 0.0
C1385 C 0.24823 0.70427 0.14079 0.0
C1386 C 0.26458 0.72256 0.14592 0.0
C1387 C 0.30535 0.73661 0.14793 0.0
C1388 C 0.32993 0.7325 0.14531 0.0
C1389 C 0.28896 0.71777 0.14536 0.0
C1390 C 0.3379 0.70871 0.14206 0.0
C1391 C 0.3216 0.68966 0.14 0.0
H1392 H 0.26359 0.31855 0.10231 0.0
H1393 H 0.28106 0.33761 0.19169 0.0
H1394 H 0.30963 0.30429 0.19417 0.0
H1395 H 0.32792 0.26791 0.17111 0.0
H1396 H 0.31198 0.25206 0.08021 0.0
H1397 H 0.28485 0.2859 0.07786 0.0
C1398 C 0.27396 0.31557 0.12216 0.0
C1399 C 0.27076 0.3307 0.14651 0.0
C1400 C 0.29045 0.29674 0.12317 0.0
C1401 C 0.28381 0.32648 0.17239 0.0
C1402 C 0.29999 0.30736 0.17384 0.0
C1403 C 0.31866 0.27212 0.15079 0.0
C1404 C 0.32109 0.25686 0.1262 0.0
C1405 C 0.30332 0.29217 0.1494 0.0
C1406 C 0.30937 0.26271 0.09984 0.0
C1407 C 0.29406 0.28226 0.09837 0.0
H1408 H 0.96299 0.25998 0.33932 0.0
H1409 H 0.95929 0.33242 0.3728 0.0
H1410 H 1.00229 0.33494 0.37363 0.0
H1411 H 0.04119 0.31622 0.36752 0.0
H1412 H 0.04591 0.24401 0.33389 0.0
H1413 H 0.00263 0.24189 0.33032 0.0
C1414 C 0.97162 0.27636 0.3465 0.0
C1415 C 0.95778 0.29588 0.35616 0.0
C1416 C 0.99667 0.27777 0.34708 0.0
C1417 C 0.96935 0.317 0.36539 0.0
C1418 C 0.99404 0.31851 0.36592 0.0
C1419 C 0.03279 0.30006 0.35921 0.0
C1420 C 0.04683 0.28029 0.35116 0.0
C1421 C 0.0079 0.29893 0.35725 0.0
C1422 C 0.03557 0.25954 0.34029 0.0
C1423 C 0.01077 0.25827 0.3383 0.0
H1424 H 0.76652 0.03835 0.33516 0.0
H1425 H 0.69781 0.05677 0.37049 0.0
H1426 H 0.68644 0.01443 0.37072 0.0
H1427 H 0.69683 0.9719 0.36337 0.0
H1428 H 0.76489 0.95372 0.3259 0.0
H1429 H 0.77549 0.99615 0.32354 0.0
C1430 C 0.74904 0.03309 0.34284 0.0
C1431 C 0.73315 0.05068 0.35312 0.0
C1432 C 0.74244 0.00873 0.34239 0.0
C1433 C 0.71041 0.0436 0.36252 0.0
C1434 C 0.70389 0.01937 0.36269 0.0
C1435 C 0.71385 0.97724 0.35431 0.0
C1436 C 0.73008 0.9596 0.345 0.0
C1437 C 0.71985 1.00175 0.35297 0.0
C1438 C 0.75201 0.96687 0.33317 0.0
C1439 C 0.75818 0.99117 0.332 0.0
H1440 H 0.03424 0.67726 0.36381 0.0
H1441 H 0.04313 0.74297 0.31472 0.0
H1442 H 1.00012 0.74913 0.31479 0.0
H1443 H 0.9601 0.73732 0.33223 0.0
H1444 H 0.95205 0.67189 0.38226 0.0
H1445 H 0.99446 0.66422 0.37832 0.0
C1446 C 0.02679 0.69279 0.35276 0.0
C1447 C 0.04196 0.70966 0.33938 0.0
C1448 C 1.00211 0.69641 0.35331 0.0
C1449 C 0.03192 0.72966 0.32518 0.0
C1450 C 0.0073 0.73327 0.32534 0.0
C1451 C 0.96761 0.72129 0.34203 0.0
C1452 C 0.95285 0.70532 0.35771 0.0
C1453 C 0.99223 0.71701 0.33989 0.0
C1454 C 0.96292 0.68459 0.37021 0.0
C1455 C 0.98723 0.68015 0.36798 0.0
H1456 H 0.23056 0.95891 0.33416 0.0
H1457 H 0.30389 0.94246 0.35291 0.0
H1458 H 0.31351 0.98505 0.35346 0.0
H1459 H 0.30084 0.02713 0.35185 0.0
H1460 H 0.22807 0.04418 0.33138 0.0
H1461 H 0.21862 1.00138 0.32794 0.0
C1462 C 0.24867 0.96465 0.33818 0.0
C1463 C 0.26639 0.94739 0.34375 0.0
C1464 C 0.25422 0.98935 0.33818 0.0
C1465 C 0.28983 0.95522 0.34854 0.0
C1466 C 0.29539 0.97964 0.34896 0.0
C1467 C 0.28297 0.02149 0.3463 0.0
C1468 C 0.26516 0.03885 0.34209 0.0
C1469 C 0.27769 0.99687 0.34426 0.0
C1470 C 0.24214 0.03122 0.33466 0.0
C1471 C 0.23668 0.00672 0.33287 0.0
H1472 H 0.04808 0.74827 0.66659 0.0
H1473 H 0.05533 0.67914 0.62456 0.0
H1474 H 0.01286 0.67222 0.62944 0.0
H1475 H 0.97335 0.68676 0.64227 0.0
H1476 H 0.96518 0.75615 0.68318 0.0
H1477 H 0.00827 0.76182 0.68253 0.0
C1478 C 0.04038 0.73162 0.65875 0.0
C1479 C 0.05489 0.71436 0.645 0.0
C1480 C 0.01575 0.72778 0.66139 0.0
C1481 C 0.04461 0.69283 0.63504 0.0
C1482 C 0.02028 0.68882 0.63782 0.0
C1483 C 0.98096 0.70302 0.6514 0.0
C1484 C 0.96603 0.72105 0.6626 0.0
C1485 C 0.00564 0.70632 0.65048 0.0
C1486 C 0.97626 0.74197 0.67441 0.0
C1487 C 1.0009 0.74528 0.6739 0.0
H1488 H 0.25252 0.95941 0.66102 0.0
H1489 H 0.32666 0.9688 0.64035 0.0
H1490 H 0.3217 0.01239 0.64108 0.0
H1491 H 0.29564 0.04764 0.64372 0.0
H1492 H 0.22087 0.03797 0.66095 0.0
H1493 H 0.22671 0.99474 0.66529 0.0
C1494 C 0.26768 0.97102 0.65725 0.0
C1495 C 0.28996 0.96093 0.65081 0.0
C1496 C 0.26449 0.99602 0.65661 0.0
C1497 C 0.30935 0.97617 0.64544 0.0
C1498 C 0.30649 1.00108 0.6457 0.0
C1499 C 0.28064 0.03612 0.64864 0.0
C1500 C 0.25782 0.0461 0.65181 0.0
C1501 C 0.28403 0.01119 0.65061 0.0
C1502 C 0.23858 0.03081 0.65809 0.0
C1503 C 0.24192 0.00606 0.66069 0.0
H1504 H 0.04303 0.32166 0.65663 0.0
H1505 H 0.05093 0.24709 0.67993 0.0
H1506 H 0.00769 0.24307 0.68402 0.0
H1507 H 0.96753 0.25983 0.67491 0.0
H1508 H 0.96085 0.33419 0.64957 0.0
H1509 H 0.00367 0.33923 0.65255 0.0
C1510 C 0.03535 0.30458 0.66302 0.0
C1511 C 0.05013 0.28463 0.66762 0.0
C1512 C 0.01063 0.30232 0.6647 0.0
C1513 C 0.03992 0.26271 0.67623 0.0
C1514 C 0.01519 0.26038 0.67838 0.0
C1515 C 0.97546 0.27722 0.67061 0.0
C1516 C 0.96104 0.29654 0.66171 0.0
C1517 C 1.00032 0.27991 0.67177 0.0
C1518 C 0.97155 0.31896 0.65614 0.0
C1519 C 0.99606 0.32188 0.65781 0.0
H1520 H 0.7074 0.03456 0.64834 0.0
H1521 H 0.78064 0.05066 0.6676 0.0
H1522 H 0.78949 0.00775 0.671 0.0
H1523 H 0.77684 0.96551 0.66518 0.0
H1524 H 0.70313 0.94999 0.6473 0.0
H1525 H 0.69412 0.9927 0.64683 0.0
C1526 C 0.72526 0.0287 0.65359 0.0
C1527 C 0.74336 0.04578 0.65748 0.0
C1528 C 0.73019 0.00404 0.65555 0.0
C1529 C 0.76636 0.03789 0.66454 0.0
C1530 C 0.77146 0.01333 0.66632 0.0
C1531 C 0.75879 0.97148 0.66133 0.0
C1532 C 0.74077 0.95448 0.65599 0.0
C1533 C 0.7536 0.99622 0.66131 0.0
C1534 C 0.7174 0.96258 0.65146 0.0
C1535 C 0.7122 0.98706 0.65109 0.0
H1536 H 0.53635 0.8198 0.85591 0.0
H1537 H 0.53808 0.74534 0.83024 0.0
H1538 H 0.49445 0.74446 0.82925 0.0
H1539 H 0.45574 0.76444 0.83985 0.0
H1540 H 0.45583 0.83866 0.86726 0.0
H1541 H 0.49879 0.83998 0.86342 0.0
C1542 C 0.52727 0.80335 0.84983 0.0
C1543 C 0.54046 0.7826 0.8434 0.0
C1544 C 0.50243 0.80291 0.84989 0.0
C1545 C 0.52834 0.76157 0.83527 0.0
C1546 C 0.5034 0.76105 0.83489 0.0
C1547 C 0.4652 0.78092 0.84467 0.0
C1548 C 0.45254 0.80137 0.8541 0.0
C1549 C 0.49022 0.78153 0.84279 0.0
C1550 C 0.46506 0.8226 0.86027 0.0
C1551 C 0.48968 0.82341 0.85804 0.0
H1552 H 0.2179 0.47124 0.85128 0.0
H1553 H 0.28969 0.45786 0.82261 0.0
H1554 H 0.29723 0.50101 0.82005 0.0
H1555 H 0.28414 0.54258 0.82915 0.0
H1556 H 0.21181 0.55571 0.85599 0.0
H1557 H 0.2038 0.5127 0.85607 0.0
C1558 C 0.23511 0.47778 0.84414 0.0
C1559 C 0.25324 0.46139 0.83736 0.0
C1560 C 0.23931 0.50259 0.84267 0.0
C1561 C 0.2754 0.47011 0.8279 0.0
C1562 C 0.27978 0.49479 0.82662 0.0
C1563 C 0.26663 0.53599 0.83492 0.0
C1564 C 0.24869 0.55231 0.84285 0.0
C1565 C 0.262 0.51119 0.83451 0.0
C1566 C 0.22595 0.54354 0.84982 0.0
C1567 C 0.22135 0.51893 0.84993 0.0
H1568 H 0.46698 0.2426 0.83384 0.0
H1569 H 0.46308 0.16693 0.85381 0.0
H1570 H 0.50609 0.1641 0.85266 0.0
H1571 H 0.54463 0.18339 0.8507 0.0
H1572 H 0.55007 0.25914 0.83259 0.0
H1573 H 0.50671 0.26161 0.82775 0.0
C1574 C 0.4756 0.22548 0.83751 0.0
C1575 C 0.46184 0.20507 0.84424 0.0
C1576 C 0.50059 0.22399 0.83729 0.0
C1577 C 0.47322 0.18298 0.84895 0.0
C1578 C 0.49785 0.1813 0.84827 0.0
C1579 C 0.53641 0.20045 0.84537 0.0
C1580 C 0.55049 0.2211 0.84234 0.0
C1581 C 0.51167 0.20176 0.84322 0.0
C1582 C 0.53958 0.24297 0.83505 0.0
C1583 C 0.51479 0.2444 0.83248 0.0
H1584 H 0.73911 0.463 0.83736 0.0
H1585 H 0.81071 0.44957 0.8666 0.0
H1586 H 0.81893 0.49269 0.86651 0.0
H1587 H 0.80465 0.53442 0.86189 0.0
H1588 H 0.73335 0.54735 0.83098 0.0
H1589 H 0.72628 0.50429 0.82762 0.0
C1590 C 0.75658 0.46949 0.84348 0.0
C1591 C 0.77418 0.45312 0.85231 0.0
C1592 C 0.76123 0.49426 0.84314 0.0
C1593 C 0.79684 0.46179 0.85973 0.0
C1594 C 0.80152 0.48646 0.8598 0.0
C1595 C 0.78768 0.5278 0.85404 0.0
C1596 C 0.76949 0.54412 0.84699 0.0
C1597 C 0.78371 0.5029 0.85208 0.0
C1598 C 0.74767 0.53524 0.83662 0.0
C1599 C 0.74355 0.51057 0.83482 0.0
H1600 H 0.45494 0.2404 0.15538 0.0
H1601 H 0.45246 0.16906 0.11847 0.0
H1602 H 0.49557 0.16649 0.12045 0.0
H1603 H 0.53426 0.1849 0.13079 0.0
H1604 H 0.53719 0.25617 0.16773 0.0
H1605 H 0.49387 0.25824 0.16777 0.0
C1606 C 0.46383 0.22426 0.14792 0.0
C1607 C 0.45038 0.20501 0.13667 0.0
C1608 C 0.48882 0.22285 0.14908 0.0
C1609 C 0.46226 0.1842 0.12718 0.0
C1610 C 0.48699 0.18269 0.12827 0.0
C1611 C 0.52544 0.20083 0.13906 0.0
C1612 C 0.53904 0.22036 0.14915 0.0
C1613 C 0.50048 0.20196 0.13891 0.0
C1614 C 0.52723 0.24085 0.15981 0.0
C1615 C 0.50241 0.24208 0.15978 0.0
H1616 H 0.73132 0.54469 0.17485 0.0
H1617 H 0.80375 0.55739 0.14786 0.0
H1618 H 0.81131 0.51436 0.14744 0.0
H1619 H 0.79673 0.47302 0.15128 0.0
H1620 H 0.7249 0.45978 0.17985 0.0
H1621 H 0.71782 0.50304 0.18344 0.0
C1622 C 0.74879 0.53803 0.16907 0.0
C1623 C 0.76685 0.5543 0.1611 0.0
C1624 C 0.75314 0.51315 0.16911 0.0
C1625 C 0.7895 0.54535 0.15408 0.0
C1626 C 0.79384 0.5207 0.15373 0.0
C1627 C 0.7796 0.4796 0.15861 0.0
C1628 C 0.7613 0.46324 0.16504 0.0
C1629 C 0.77571 0.50443 0.16071 0.0
C1630 C 0.73929 0.47201 0.17482 0.0
C1631 C 0.73519 0.49675 0.17669 0.0
H1632 H 0.46613 0.8138 0.13651 0.0
H1633 H 0.46706 0.74198 0.172 0.0
H1634 H 0.51047 0.7436 0.17533 0.0
H1635 H 0.54835 0.76473 0.16526 0.0
H1636 H 0.54654 0.83613 0.12839 0.0
H1637 H 0.5033 0.83537 0.12869 0.0
C1638 C 0.47575 0.7985 0.14518 0.0
C1639 C 0.46332 0.77774 0.15385 0.0
C1640 C 0.50061 0.79948 0.14671 0.0
C1641 C 0.47616 0.75817 0.16513 0.0
C1642 C 0.501 0.75908 0.16698 0.0
C1643 C 0.53847 0.78022 0.15762 0.0
C1644 C 0.55073 0.80045 0.14673 0.0
C1645 C 0.51345 0.77954 0.15743 0.0
C1646 C 0.53763 0.82031 0.13678 0.0
C1647 C 0.51286 0.81988 0.1369 0.0
H1648 H 0.25826 0.46488 0.1658 0.0
H1649 H 0.18843 0.44758 0.13322 0.0
H1650 H 0.17861 0.49033 0.13079 0.0
H1651 H 0.19108 0.53289 0.13436 0.0
H1652 H 0.26043 0.54969 0.16907 0.0
H1653 H 0.26907 0.50704 0.17447 0.0
C1654 C 0.2408 0.47044 0.15844 0.0
C1655 C 0.22419 0.453 0.14944 0.0
C1656 C 0.2352 0.49505 0.15737 0.0
C1657 C 0.20155 0.46056 0.14033 0.0
C1658 C 0.19596 0.48505 0.13878 0.0
C1659 C 0.20795 0.52722 0.14347 0.0
C1660 C 0.22514 0.54457 0.15105 0.0
C1661 C 0.21281 0.5025 0.14673 0.0
C1662 C 0.24685 0.53683 0.16302 0.0
C1663 C 0.25188 0.51238 0.166 0.0
H1664 H 0.1398 0.25623 0.46053 0.0
H1665 H 0.11374 0.32686 0.44014 0.0
H1666 H 0.10751 0.33495 0.49278 0.0
H1667 H 0.10875 0.32134 0.54515 0.0
H1668 H 0.13851 0.25205 0.5651 0.0
H1669 H 0.14412 0.24399 0.51255 0.0
C1670 C 0.13336 0.2736 0.46778 0.0
C1671 C 0.12756 0.29105 0.44665 0.0
C1672 C 0.13031 0.27826 0.4981 0.0
C1673 C 0.11881 0.31335 0.45613 0.0
C1674 C 0.11486 0.31781 0.48619 0.0
C1675 C 0.11689 0.30473 0.53789 0.0
C1676 C 0.12408 0.28769 0.55898 0.0
C1677 C 0.12043 0.30035 0.50745 0.0
C1678 C 0.13354 0.26573 0.54927 0.0
C1679 C 0.13667 0.26107 0.51923 0.0
H1680 H 0.76229 0.13362 0.55007 0.0
H1681 H 0.6912 0.10552 0.55047 0.0
H1682 H 0.69007 0.10715 0.49622 0.0
H1683 H 0.71074 0.11468 0.44829 0.0
H1684 H 0.78404 0.13714 0.4504 0.0
H1685 H 0.7828 0.14005 0.50354 0.0
C1686 C 0.74642 0.12822 0.53821 0.0
C1687 C 0.72647 0.12058 0.55407 0.0
C1688 C 0.74636 0.12826 0.5073 0.0
C1689 C 0.70636 0.11258 0.53861 0.0
C1690 C 0.70586 0.11324 0.50763 0.0
C1691 C 0.72628 0.1205 0.46044 0.0
C1692 C 0.74733 0.12616 0.44506 0.0
C1693 C 0.72588 0.12093 0.49164 0.0
C1694 C 0.76749 0.1331 0.46126 0.0
C1695 C 0.76688 0.13462 0.49188 0.0
H1696 H 0.8876 0.68682 0.46071 0.0
H1697 H 0.85905 0.75828 0.4553 0.0
H1698 H 0.86209 0.76264 0.50896 0.0
H1699 H 0.87474 0.74678 0.55734 0.0
H1700 H 0.90389 0.67558 0.56303 0.0
H1701 H 0.90022 0.67087 0.50934 0.0
C1702 C 0.88146 0.70304 0.4715 0.0
C1703 C 0.8722 0.72188 0.45434 0.0
C1704 C 0.88439 0.70582 0.50223 0.0
C1705 C 0.86535 0.74326 0.46828 0.0
C1706 C 0.86754 0.74591 0.49885 0.0
C1707 C 0.88007 0.73018 0.54674 0.0
C1708 C 0.88864 0.71115 0.56409 0.0
C1709 C 0.87736 0.72746 0.51601 0.0
C1710 C 0.8964 0.69009 0.55014 0.0
C1711 C 0.89441 0.68746 0.51947 0.0
H1712 H 0.25064 0.87821 0.54919 0.0
H1713 H 0.32448 0.8965 0.54035 0.0
H1714 H 0.32121 0.8943 0.48633 0.0
H1715 H 0.29675 0.88735 0.44166 0.0
H1716 H 0.2217 0.87392 0.45216 0.0
H1717 H 0.22604 0.87371 0.50532 0.0
C1718 C 0.26603 0.88145 0.53532 0.0
C1719 C 0.28802 0.88625 0.54838 0.0
C1720 C 0.26376 0.88094 0.5046 0.0
C1721 C 0.30767 0.89155 0.5305 0.0
C1722 C 0.3057 0.89058 0.49972 0.0
C1723 C 0.2814 0.88428 0.45561 0.0
C1724 C 0.25901 0.88022 0.44277 0.0
C1725 C 0.28381 0.88513 0.4865 0.0
C1726 C 0.23921 0.87674 0.46122 0.0
C1727 C 0.24162 0.87671 0.49175 0.0
H1728 H 0.13295 0.74199 0.44291 0.0
H1729 H 0.10288 0.67099 0.44388 0.0
H1730 H 0.10669 0.66945 0.49783 0.0
H1731 H 0.1199 0.68804 0.54479 0.0
H1732 H 0.15025 0.75892 0.54341 0.0
H1733 H 0.14651 0.76031 0.4896 0.0
C1734 C 0.12739 0.72617 0.45504 0.0
C1735 C 0.11848 0.70626 0.43952 0.0
C1736 C 0.13035 0.72518 0.4859 0.0
C1737 C 0.11055 0.68616 0.45538 0.0
C1738 C 0.11265 0.68534 0.4862 0.0
C1739 C 0.12632 0.70344 0.53251 0.0
C1740 C 0.13625 0.72298 0.54782 0.0
C1741 C 0.12309 0.7045 0.50165 0.0
C1742 C 0.14345 0.74332 0.5319 0.0
C1743 C 0.14083 0.74432 0.50123 0.0
H1744 H 0.24285 0.12519 0.44833 0.0
H1745 H 0.3142 0.09805 0.45236 0.0
H1746 H 0.31316 0.09977 0.50659 0.0
H1747 H 0.29081 0.10776 0.55302 0.0
H1748 H 0.21718 0.12862 0.54666 0.0
H1749 H 0.22027 0.13088 0.4935 0.0
C1750 C 0.25828 0.11998 0.46116 0.0
C1751 C 0.279 0.11274 0.44663 0.0
C1752 C 0.25706 0.11993 0.492 0.0
C1753 C 0.29851 0.10491 0.46327 0.0
C1754 C 0.29776 0.10559 0.49421 0.0
C1755 C 0.27555 0.11298 0.53995 0.0
C1756 C 0.25394 0.11856 0.55405 0.0
C1757 C 0.27704 0.11304 0.50887 0.0
C1758 C 0.23417 0.12471 0.5367 0.0
C1759 C 0.23583 0.12589 0.50613 0.0
H1760 H 0.8672 0.26491 0.45596 0.0
H1761 H 0.88709 0.33906 0.44636 0.0
H1762 H 0.89491 0.34164 0.49965 0.0
H1763 H 0.89505 0.32262 0.54956 0.0
H1764 H 0.87573 0.24814 0.5578 0.0
H1765 H 0.86864 0.24574 0.50461 0.0
C1766 C 0.87242 0.28187 0.46577 0.0
C1767 C 0.87568 0.30202 0.44752 0.0
C1768 C 0.87716 0.28303 0.49616 0.0
C1769 C 0.8835 0.32361 0.46018 0.0
C1770 C 0.88855 0.32487 0.4905 0.0
C1771 C 0.88908 0.30599 0.53959 0.0
C1772 C 0.88477 0.28584 0.55761 0.0
C1773 C 0.8852 0.30474 0.50882 0.0
C1774 C 0.87832 0.26403 0.54441 0.0
C1775 C 0.87432 0.26267 0.51404 0.0
H1776 H 0.71132 0.89325 0.55665 0.0
H1777 H 0.78636 0.87815 0.55071 0.0
H1778 H 0.78383 0.87603 0.4976 0.0
H1779 H 0.76096 0.87927 0.45227 0.0
H1780 H 0.6876 0.90025 0.45587 0.0
H1781 H 0.68877 0.89975 0.5101 0.0
C1782 C 0.72705 0.88939 0.5437 0.0
C1783 C 0.74886 0.88522 0.55796 0.0
C1784 C 0.72579 0.88938 0.51261 0.0
C1785 C 0.76919 0.88084 0.5407 0.0
C1786 C 0.76786 0.87979 0.51012 0.0
C1787 C 0.7452 0.88351 0.46503 0.0
C1788 C 0.7239 0.88847 0.45045 0.0
C1789 C 0.74633 0.88405 0.49586 0.0
C1790 C 0.70385 0.8951 0.46692 0.0
C1791 C 0.70462 0.89509 0.49783 0.0
H1792 H 0.64101 0.76611 0.04373 0.0
H1793 H 0.61818 0.83921 0.05476 0.0
H1794 H 0.60928 0.84197 0.0019 0.0
H1795 H 0.60804 0.82329 0.95202 0.0
H1796 H 0.63391 0.75115 0.9411 0.0
H1797 H 0.64177 0.74825 0.99402 0.0
C1798 C 0.63485 0.78287 0.03428 0.0
C1799 C 0.63076 0.8026 0.05287 0.0
C1800 C 0.63023 0.78442 0.00383 0.0
C1801 C 0.62213 0.82403 0.04066 0.0
C1802 C 0.61665 0.82545 0.01054 0.0
C1803 C 0.61584 0.80718 0.96126 0.0
C1804 C 0.62143 0.78785 0.94256 0.0
C1805 C 0.62067 0.80577 0.99182 0.0
C1806 C 0.63026 0.76655 0.95497 0.0
C1807 C 0.63469 0.76485 0.98523 0.0
H1808 H 0.21302 0.61476 0.9363 0.0
H1809 H 0.28643 0.63557 0.94643 0.0
H1810 H 0.28223 0.63578 0.99947 0.0
H1811 H 0.25871 0.62842 0.04361 0.0
H1812 H 0.18655 0.60409 0.03581 0.0
H1813 H 0.1893 0.60624 0.98168 0.0
C1814 C 0.22796 0.61959 0.95017 0.0
C1815 C 0.2499 0.62555 0.93711 0.0
C1816 C 0.22576 0.6187 0.98123 0.0
C1817 C 0.26922 0.63128 0.95553 0.0
C1818 C 0.26694 0.63122 0.98607 0.0
C1819 C 0.24355 0.62381 0.02997 0.0
C1820 C 0.2222 0.61712 0.04341 0.0
C1821 C 0.24544 0.62473 0.99916 0.0
C1822 C 0.20289 0.61026 0.02573 0.0
C1823 C 0.20454 0.61131 0.99484 0.0
H1824 H 0.35492 0.23154 0.03676 0.0
H1825 H 0.372 0.15728 0.05148 0.0
H1826 H 0.37667 0.15115 0.9981 0.0
H1827 H 0.38194 0.16896 0.94789 0.0
H1828 H 0.36353 0.24313 0.93413 0.0
H1829 H 0.35368 0.24745 0.98634 0.0
C1830 C 0.35879 0.21381 0.02813 0.0
C1831 C 0.36304 0.19489 0.04791 0.0
C1832 C 0.3618 0.2106 0.99758 0.0
C1833 C 0.3683 0.17204 0.03661 0.0
C1834 C 0.37138 0.16866 0.00612 0.0
C1835 C 0.37502 0.18579 0.95624 0.0
C1836 C 0.37288 0.20557 0.93704 0.0
C1837 C 0.36911 0.18808 0.98646 0.0
C1838 C 0.36492 0.22758 0.94839 0.0
C1839 C 0.35928 0.23005 0.97823 0.0
H1840 H 0.79738 0.39959 0.05113 0.0
H1841 H 0.72708 0.37196 0.06688 0.0
H1842 H 0.72029 0.36847 0.01381 0.0
H1843 H 0.73395 0.37419 0.96332 0.0
H1844 H 0.80533 0.39845 0.94648 0.0
H1845 H 0.8123 0.40232 0.99969 0.0
C1846 C 0.78088 0.39222 0.04278 0.0
C1847 C 0.76303 0.38521 0.06262 0.0
C1848 C 0.77726 0.38993 0.01222 0.0
C1849 C 0.74122 0.37687 0.05181 0.0
C1850 C 0.73732 0.37494 0.02157 0.0
C1851 C 0.75112 0.38005 0.97121 0.0
C1852 C 0.76906 0.38605 0.95103 0.0
C1853 C 0.75517 0.3815 0.00161 0.0
C1854 C 0.79126 0.39364 0.96167 0.0
C1855 C 0.7952 0.39595 0.99203 0.0
H1856 H 0.63852 0.24326 0.04921 0.0
H1857 H 0.61199 0.1721 0.0657 0.0
H1858 H 0.6087 0.16485 0.01242 0.0
H1859 H 0.6107 0.18025 0.96076 0.0
H1860 H 0.64078 0.25019 0.9451 0.0
H1861 H 0.64538 0.25652 0.99812 0.0
C1862 C 0.63274 0.22592 0.04103 0.0
C1863 C 0.62571 0.20816 0.06119 0.0
C1864 C 0.63123 0.22183 0.01045 0.0
C1865 C 0.61789 0.18587 0.05049 0.0
C1866 C 0.61564 0.18189 0.02005 0.0
C1867 C 0.61882 0.19655 0.96904 0.0
C1868 C 0.62615 0.21441 0.94903 0.0
C1869 C 0.62182 0.19993 0.99976 0.0
C1870 C 0.63563 0.23594 0.96008 0.0
C1871 C 0.6382 0.23961 0.99038 0.0
H1872 H 0.79511 0.61716 0.05725 0.0
H1873 H 0.71887 0.62581 0.05632 0.0
H1874 H 0.71888 0.62706 0.00319 0.0
H1875 H 0.7397 0.62452 0.95641 0.0
H1876 H 0.8146 0.60997 0.95484 0.0
H1877 H 0.81601 0.61186 0.00907 0.0
C1878 C 0.77856 0.61942 0.04539 0.0
C1879 C 0.75712 0.62198 0.06116 0.0
C1880 C 0.77841 0.61898 0.01421 0.0
C1881 C 0.73578 0.62437 0.04522 0.0
C1882 C 0.73565 0.62492 0.0146 0.0
C1883 C 0.75637 0.62204 0.96802 0.0
C1884 C 0.77722 0.6184 0.95189 0.0
C1885 C 0.75677 0.62219 0.99889 0.0
C1886 C 0.79855 0.61407 0.96698 0.0
C1887 C 0.79926 0.61484 0.99793 0.0
H1888 H 0.3601 0.76857 0.95509 0.0
H1889 H 0.38075 0.84287 0.95229 0.0
H1890 H 0.38722 0.84258 0.00589 0.0
H1891 H 0.38956 0.81995 0.05339 0.0
H1892 H 0.36797 0.74581 0.05518 0.0
H1893 H 0.35934 0.74712 0.00235 0.0
C1894 C 0.36517 0.78493 0.96645 0.0
C1895 C 0.36957 0.80581 0.94991 0.0
C1896 C 0.36898 0.7845 0.9971 0.0
C1897 C 0.37667 0.82676 0.96467 0.0
C1898 C 0.38082 0.82642 0.99523 0.0
C1899 C 0.38245 0.80431 0.04223 0.0
C1900 C 0.37851 0.78303 0.05833 0.0
C1901 C 0.3774 0.80526 0.01166 0.0
C1902 C 0.37049 0.76253 0.04338 0.0
C1903 C 0.36557 0.76328 0.01318 0.0
H1904 H 0.2128 0.39632 0.94905 0.0
H1905 H 0.28555 0.37401 0.93904 0.0
H1906 H 0.29003 0.37166 0.99256 0.0
H1907 H 0.27368 0.3769 0.04187 0.0
H1908 H 0.20012 0.39594 0.05314 0.0
H1909 H 0.19537 0.39857 0.99943 0.0
C1910 C 0.22937 0.39035 0.95872 0.0
C1911 C 0.2486 0.38453 0.9403 0.0
C1912 C 0.23172 0.38873 0.98961 0.0
C1913 C 0.27038 0.37799 0.95293 0.0
C1914 C 0.27297 0.37672 0.98346 0.0
C1915 C 0.25654 0.3814 0.03271 0.0
C1916 C 0.23734 0.38628 0.05154 0.0
C1917 C 0.25381 0.38216 0.00199 0.0
C1918 C 0.2152 0.39205 0.03911 0.0
C1919 C 0.21251 0.39363 0.00842 0.0
H1920 H 0.17509 0.38528 0.22898 0.0
H1921 H 0.16269 0.32475 0.17216 0.0
H1922 H 0.14167 0.30387 0.21215 0.0
H1923 H 0.13311 0.30056 0.26609 0.0
H1924 H 0.1454 0.36233 0.32139 0.0
H1925 H 0.15941 0.38516 0.27928 0.0
C1926 C 0.16706 0.36785 0.22514 0.0
C1927 C 0.17039 0.3565 0.1979 0.0
C1928 C 0.15513 0.35606 0.24815 0.0
C1929 C 0.16008 0.33389 0.19302 0.0
C1930 C 0.14828 0.32187 0.21597 0.0
C1931 C 0.13806 0.31924 0.26862 0.0
C1932 C 0.1386 0.32956 0.29699 0.0
C1933 C 0.14653 0.3324 0.24407 0.0
C1934 C 0.14514 0.35382 0.29993 0.0
C1935 C 0.15328 0.36693 0.27584 0.0
H1936 H 0.64251 0.14468 0.19881 0.0
H1937 H 0.62115 0.21068 0.2405 0.0
H1938 H 0.63692 0.19627 0.28783 0.0
H1939 H 0.66383 0.16805 0.31437 0.0
H1940 H 0.68825 0.10449 0.26954 0.0
H1941 H 0.66417 0.11454 0.22656 0.0
C1942 C 0.64071 0.15567 0.21845 0.0
C1943 C 0.63095 0.17881 0.21612 0.0
C1944 C 0.65078 0.14775 0.24496 0.0
C1945 C 0.62851 0.19276 0.24175 0.0
C1946 C 0.63783 0.18463 0.26871 0.0
C1947 C 0.66318 0.15611 0.2955 0.0
C1948 C 0.6777 0.13555 0.29496 0.0
C1949 C 0.65004 0.16263 0.27021 0.0
C1950 C 0.67718 0.12037 0.2703 0.0
C1951 C 0.6635 0.12617 0.24572 0.0
H1952 H 0.81548 0.61639 0.24148 0.0
H1953 H 0.84685 0.66806 0.18263 0.0
H1954 H 0.86824 0.68643 0.22412 0.0
H1955 H 0.87184 0.69191 0.27854 0.0
H1956 H 0.8391 0.63982 0.33624 0.0
H1957 H 0.82485 0.61733 0.29396 0.0
C1958 C 0.82766 0.63116 0.23765 0.0
C1959 C 0.82959 0.64096 0.20927 0.0
C1960 C 0.83934 0.64183 0.26157 0.0
C1961 C 0.84533 0.6601 0.20436 0.0
C1962 C 0.85729 0.67078 0.22816 0.0
C1963 C 0.86214 0.67531 0.28177 0.0
C1964 C 0.85608 0.6679 0.31056 0.0
C1965 C 0.85355 0.66247 0.25711 0.0
C1966 C 0.84359 0.64625 0.31437 0.0
C1967 C 0.8354 0.63331 0.29018 0.0
H1968 H 0.3588 0.85098 0.19586 0.0
H1969 H 0.37971 0.78493 0.23786 0.0
H1970 H 0.36499 0.80004 0.28539 0.0
H1971 H 0.33943 0.82919 0.31233 0.0
H1972 H 0.31604 0.89318 0.26765 0.0
H1973 H 0.33878 0.88203 0.22389 0.0
C1974 C 0.36066 0.84007 0.21553 0.0
C1975 C 0.36996 0.81675 0.21331 0.0
C1976 C 0.3515 0.84853 0.24226 0.0
C1977 C 0.37257 0.80294 0.23904 0.0
C1978 C 0.36395 0.81151 0.26613 0.0
C1979 C 0.34011 0.84099 0.29331 0.0
C1980 C 0.32631 0.86202 0.293 0.0
C1981 C 0.35242 0.83386 0.26769 0.0
C1982 C 0.32672 0.87702 0.26821 0.0
C1983 C 0.33956 0.87056 0.24319 0.0
H1984 H 0.17146 0.6622 0.79961 0.0
H1985 H 0.20827 0.60675 0.7517 0.0
H1986 H 0.18919 0.61928 0.70594 0.0
H1987 H 0.16775 0.64995 0.67853 0.0
H1988 H 0.13266 0.70739 0.72498 0.0
H1989 H 0.14495 0.69004 0.77226 0.0
C1990 C 0.17455 0.6524 0.77929 0.0
C1991 C 0.19118 0.63359 0.77888 0.0
C1992 C 0.16422 0.6604 0.75271 0.0
C1993 C 0.19549 0.62125 0.75242 0.0
C1994 C 0.18473 0.62853 0.72623 0.0
C1995 C 0.16244 0.6585 0.69901 0.0
C1996 C 0.14971 0.68018 0.69822 0.0
C1997 C 0.16998 0.64874 0.72592 0.0
C1998 C 0.14258 0.69075 0.72496 0.0
C1999 C 0.14972 0.6809 0.75201 0.0
H2000 H 0.33996 0.15551 0.68527 0.0
H2001 H 0.30934 0.09402 0.72859 0.0
H2002 H 0.33331 0.10169 0.77244 0.0
H2003 H 0.35649 0.13001 0.8013 0.0
H2004 H 0.38405 0.19418 0.76063 0.0
H2005 H 0.36851 0.18113 0.71274 0.0
C2006 C 0.33927 0.14341 0.70399 0.0
C2007 C 0.32304 0.12424 0.70394 0.0
C2008 C 0.3523 0.14866 0.72972 0.0
C2009 C 0.32181 0.10884 0.72835 0.0
C2010 C 0.33539 0.1133 0.75342 0.0
C2011 C 0.35961 0.14089 0.78182 0.0
C2012 C 0.37096 0.16324 0.7846 0.0
C2013 C 0.34974 0.13381 0.75485 0.0
C2014 C 0.37527 0.17694 0.7591 0.0
C2015 C 0.36615 0.16958 0.73177 0.0
H2016 H 0.87676 0.31317 0.73369 0.0
H2017 H 0.84676 0.36625 0.67513 0.0
H2018 H 0.82997 0.38762 0.71671 0.0
H2019 H 0.8181 0.38763 0.76839 0.0
H2020 H 0.8477 0.33576 0.8283 0.0
H2021 H 0.87059 0.31776 0.78782 0.0
C2022 C 0.86708 0.32973 0.73018 0.0
C2023 C 0.86252 0.33769 0.70125 0.0
C2024 C 0.85712 0.34202 0.75441 0.0
C2025 C 0.8501 0.35935 0.69707 0.0
C2026 C 0.84044 0.37166 0.72086 0.0
C2027 C 0.83008 0.37278 0.77265 0.0
C2028 C 0.83114 0.36281 0.80095 0.0
C2029 C 0.84292 0.36257 0.74941 0.0
C2030 C 0.84676 0.34372 0.80652 0.0
C2031 C 0.85964 0.33332 0.78335 0.0
H2032 H 0.66413 0.84007 0.69 0.0
H2033 H 0.69342 0.90161 0.73455 0.0
H2034 H 0.67091 0.89185 0.77899 0.0
H2035 H 0.64866 0.86241 0.80739 0.0
H2036 H 0.62145 0.79882 0.76504 0.0
H2037 H 0.63686 0.81288 0.71746 0.0
C2038 C 0.66483 0.8517 0.70916 0.0
C2039 C 0.68022 0.87159 0.70916 0.0
C2040 C 0.65256 0.84534 0.73516 0.0
C2041 C 0.68153 0.88632 0.73418 0.0
C2042 C 0.66882 0.88064 0.75962 0.0
C2043 C 0.6457 0.85179 0.78767 0.0
C2044 C 0.63431 0.8294 0.78986 0.0
C2045 C 0.65516 0.85964 0.76075 0.0
C2046 C 0.63025 0.81608 0.764 0.0
C2047 C 0.63923 0.82405 0.73682 0.0
H2048 H 0.84092 0.65176 0.70063 0.0
H2049 H 0.88788 0.70299 0.74179 0.0
H2050 H 0.87299 0.69112 0.79049 0.0
H2051 H 0.84428 0.66848 0.82082 0.0
H2052 H 0.7972 0.6177 0.77871 0.0
H2053 H 0.8146 0.6272 0.73091 0.0
C2054 C 0.84808 0.66027 0.72023 0.0
C2055 C 0.86532 0.67847 0.71749 0.0
C2056 C 0.83927 0.65358 0.74799 0.0
C2057 C 0.87462 0.68896 0.74322 0.0
C2058 C 0.86599 0.68227 0.77105 0.0
C2059 C 0.83787 0.65936 0.80124 0.0
C2060 C 0.81917 0.64257 0.80348 0.0
C2061 C 0.84792 0.66498 0.77364 0.0
C2062 C 0.81141 0.63077 0.7778 0.0
C2063 C 0.82135 0.63621 0.75037 0.0
H2064 H 0.37838 0.8196 0.77252 0.0
H2065 H 0.3434 0.87876 0.81592 0.0
H2066 H 0.33225 0.89561 0.76838 0.0
H2067 H 0.32778 0.89081 0.71512 0.0
H2068 H 0.36176 0.83122 0.67127 0.0
H2069 H 0.37816 0.81765 0.71811 0.0
C2070 C 0.3688 0.83645 0.77151 0.0
C2071 C 0.3614 0.84765 0.79773 0.0
C2072 C 0.36196 0.84589 0.74398 0.0
C2073 C 0.34899 0.86952 0.79606 0.0
C2074 C 0.34256 0.8792 0.76887 0.0
C2075 C 0.33907 0.87506 0.71565 0.0
C2076 C 0.34308 0.86187 0.68969 0.0
C2077 C 0.34818 0.86708 0.74275 0.0
C2078 C 0.35807 0.84166 0.69089 0.0
C2079 C 0.36745 0.83379 0.71775 0.0
H2080 H 0.17621 0.35497 0.69112 0.0
H2081 H 0.12871 0.30514 0.73407 0.0
H2082 H 0.1439 0.31755 0.78222 0.0
H2083 H 0.17256 0.3405 0.81188 0.0
H2084 H 0.22009 0.3902 0.76861 0.0
H2085 H 0.20278 0.37996 0.72096 0.0
C2086 C 0.16905 0.34686 0.71099 0.0
C2087 C 0.15149 0.32891 0.70884 0.0
C2088 C 0.17792 0.35401 0.73862 0.0
C2089 C 0.14225 0.31893 0.73495 0.0
C2090 C 0.15099 0.32597 0.76253 0.0
C2091 C 0.17905 0.34928 0.79209 0.0
C2092 C 0.19784 0.36596 0.79399 0.0
C2093 C 0.16912 0.34319 0.7646 0.0
C2094 C 0.20575 0.37725 0.768 0.0
C2095 C 0.19591 0.37134 0.74063 0.0
H2096 H 0.66046 0.16438 0.69111 0.0
H2097 H 0.71074 0.11441 0.72846 0.0
H2098 H 0.69795 0.12549 0.77804 0.0
H2099 H 0.67442 0.15121 0.81093 0.0
H2100 H 0.62435 0.20134 0.77357 0.0
H2101 H 0.63519 0.18827 0.72397 0.0
C2102 C 0.6685 0.15568 0.71002 0.0
C2103 C 0.68673 0.13867 0.70584 0.0
C2104 C 0.66126 0.16233 0.73859 0.0
C2105 C 0.69675 0.12759 0.73081 0.0
C2106 C 0.68951 0.13399 0.75927 0.0
C2107 C 0.66581 0.15928 0.79198 0.0
C2108 C 0.64874 0.17746 0.79612 0.0
C2109 C 0.67213 0.15168 0.76343 0.0
C2110 C 0.63759 0.1874 0.77118 0.0
C2111 C 0.6438 0.17994 0.74274 0.0
H2112 H 0.8435 0.34228 0.18814 0.0
H2113 H 0.80548 0.40173 0.22706 0.0
H2114 H 0.8231 0.39284 0.27484 0.0
H2115 H 0.84504 0.36543 0.30666 0.0
H2116 H 0.88208 0.30505 0.26896 0.0
H2117 H 0.86948 0.31743 0.21947 0.0
C2118 C 0.83933 0.35357 0.20693 0.0
C2119 C 0.82279 0.37242 0.20399 0.0
C2120 C 0.84924 0.34811 0.23462 0.0
C2121 C 0.81785 0.38692 0.22863 0.0
C2122 C 0.82791 0.38185 0.25605 0.0
C2123 C 0.85065 0.35512 0.28758 0.0
C2124 C 0.86413 0.33412 0.2915 0.0
C2125 C 0.84295 0.36203 0.25946 0.0
C2126 C 0.87165 0.32125 0.26654 0.0
C2127 C 0.86429 0.32823 0.23828 0.0
H2128 H 0.62845 0.82026 0.23016 0.0
H2129 H 0.67013 0.87205 0.18182 0.0
H2130 H 0.68395 0.88974 0.22775 0.0
H2131 H 0.68818 0.8875 0.28135 0.0
H2132 H 0.64726 0.83535 0.33022 0.0
H2133 H 0.62911 0.82121 0.28467 0.0
C2134 C 0.64012 0.83573 0.22974 0.0
C2135 C 0.64849 0.84454 0.20259 0.0
C2136 C 0.64846 0.84566 0.2564 0.0
C2137 C 0.66367 0.86463 0.20242 0.0
C2138 C 0.67165 0.8748 0.2287 0.0
C2139 C 0.67503 0.8733 0.28218 0.0
C2140 C 0.66951 0.86232 0.30925 0.0
C2141 C 0.66481 0.86496 0.25581 0.0
C2142 C 0.65218 0.84405 0.30973 0.0
C2143 C 0.64175 0.83585 0.28362 0.0
H2144 H 0.12306 0.6849 0.26217 0.0
H2145 H 0.1678 0.63755 0.31303 0.0
H2146 H 0.18374 0.62024 0.26807 0.0
H2147 H 0.18799 0.62086 0.21435 0.0
H2148 H 0.14388 0.66833 0.16285 0.0
H2149 H 0.12476 0.68282 0.20764 0.0
C2150 C 0.13599 0.67054 0.26338 0.0
C2151 C 0.14436 0.66286 0.29107 0.0
C2152 C 0.14549 0.66069 0.23719 0.0
C2153 C 0.1612 0.64417 0.29211 0.0
C2154 C 0.17039 0.63416 0.26634 0.0
C2155 C 0.17397 0.63412 0.2128 0.0
C2156 C 0.16772 0.6436 0.18512 0.0
C2157 C 0.16314 0.64267 0.23875 0.0
C2158 C 0.14936 0.66077 0.18378 0.0
C2159 C 0.13836 0.66916 0.20947 0.0
H2160 H 0.34607 0.16216 0.31196 0.0
H2161 H 0.30443 0.10407 0.27557 0.0
H2162 H 0.31625 0.11574 0.226 0.0
H2163 H 0.33485 0.1444 0.19288 0.0
H2164 H 0.37674 0.20269 0.22764 0.0
H2165 H 0.36845 0.18881 0.27812 0.0
C2166 C 0.33986 0.15179 0.29325 0.0
C2167 C 0.32405 0.13241 0.29766 0.0
C2168 C 0.34653 0.15877 0.26454 0.0
C2169 C 0.31637 0.11918 0.27302 0.0
C2170 C 0.32307 0.12587 0.24457 0.0
C2171 C 0.34238 0.15405 0.21145 0.0
C2172 C 0.3561 0.17479 0.20654 0.0
C2173 C 0.33754 0.146 0.24008 0.0
C2174 C 0.36605 0.18674 0.23085 0.0
C2175 C 0.36122 0.17884 0.25967 0.0
loop_
_geom_bond_atom_site_label_1
_geom_bond_atom_site_label_2
_geom_bond_distance
_geom_bond_site_symmetry_2
_ccdc_geom_bond_type
Mn0 O5 2.095 . S
Mn0 O15 2.162 . S
Mn0 O16 2.297 . S
Mn0 O24 2.385 . S
Mn0 O25 2.209 . S
Mn0 O26 2.094 . S
Mn1 O6 2.121 . S
Mn1 N8 2.257 . S
Mn1 N17 2.282 . S
Mn1 O25 2.215 . S
Mn1 O27 2.117 . S
C2 O24 1.234 . S
C2 O25 1.283 . S
C3 O15 1.281 . S
C3 O16 1.236 . S
C4 O26 1.240 . S
C4 O27 1.264 . S
O5 Mn0 2.095 . S
O5 C14 1.250 . S
O6 Mn1 2.121 . S
O6 C14 1.258 . S
C7 N8 1.326 . S
C7 C11 1.460 . S
C7 H13 0.929 . S
N8 Mn1 2.257 . S
N8 C7 1.326 . S
N8 C12 1.362 . S
C9 C10 1.258 . S
C9 C12 1.431 . S
C9 C29 1.449 . S
C10 C9 1.258 . S
C10 C11 1.477 . S
C10 H30 0.931 . S
C11 C7 1.460 . S
C11 C10 1.477 . S
C11 H31 0.930 . S
C12 N8 1.362 . S
C12 C9 1.431 . S
C12 C22 1.476 . S
H13 C7 0.929 . S
C14 O5 1.250 . S
C14 O6 1.258 . S
O15 Mn0 2.162 . S
O15 C3 1.281 . S
O16 Mn0 2.297 . S
O16 C3 1.236 . S
N17 Mn1 2.282 . S
N17 C18 1.328 . S
N17 C22 1.318 . S
C18 N17 1.328 . S
C18 C19 1.457 . S
C18 H23 0.929 . S
C19 C18 1.457 . S
C19 C20 1.291 . S
C19 H32 0.931 . S
C20 C19 1.291 . S
C20 C21 1.373 . S
C20 H33 0.929 . S
C21 C20 1.373 . S
C21 C22 1.396 . S
C21 C28 1.403 . S
C22 C12 1.476 . S
C22 N17 1.318 . S
C22 C21 1.396 . S
H23 C18 0.929 . S
O24 Mn0 2.385 . S
O24 C2 1.234 . S
O25 Mn0 2.209 . S
O25 Mn1 2.215 . S
O25 C2 1.283 . S
O26 Mn0 2.094 . S
O26 C4 1.240 . S
O27 Mn1 2.117 . S
O27 C4 1.264 . S
C28 C21 1.403 . S
C28 C29 1.399 . S
C28 H34 0.929 . S
C29 C9 1.449 . S
C29 C28 1.399 . S
C29 H35 0.930 . S
H30 C10 0.931 . S
H31 C11 0.930 . S
H32 C19 0.931 . S
H33 C20 0.929 . S
H34 C28 0.929 . S
H35 C29 0.930 . S
Mn36 O41 2.095 . S
Mn36 O51 2.162 . S
Mn36 O52 2.297 . S
Mn36 O60 2.385 . S
Mn36 O61 2.209 . S
Mn36 O62 2.094 . S
Mn37 O42 2.121 . S
Mn37 N44 2.257 . S
Mn37 N53 2.282 . S
Mn37 O61 2.215 . S
Mn37 O63 2.117 . S
C38 O60 1.234 . S
C38 O61 1.283 . S
C39 O51 1.281 . S
C39 O52 1.236 . S
C40 O62 1.240 . S
C40 O63 1.264 . S
O41 Mn36 2.095 . S
O41 C50 1.250 . S
O42 Mn37 2.121 . S
O42 C50 1.258 . S
C43 N44 1.326 . S
C43 C47 1.460 . S
C43 H49 0.929 . S
N44 Mn37 2.257 . S
N44 C43 1.326 . S
N44 C48 1.362 . S
C45 C46 1.258 . S
C45 C48 1.431 . S
C45 C65 1.449 . S
C46 C45 1.258 . S
C46 C47 1.477 . S
C46 H66 0.931 . S
C47 C43 1.460 . S
C47 C46 1.477 . S
C47 H67 0.930 . S
C48 N44 1.362 . S
C48 C45 1.431 . S
C48 C58 1.476 . S
H49 C43 0.929 . S
C50 O41 1.250 . S
C50 O42 1.258 . S
O51 Mn36 2.162 . S
O51 C39 1.281 . S
O52 Mn36 2.297 . S
O52 C39 1.236 . S
N53 Mn37 2.282 . S
N53 C54 1.328 . S
N53 C58 1.318 . S
C54 N53 1.328 . S
C54 C55 1.457 . S
C54 H59 0.929 . S
C55 C54 1.457 . S
C55 C56 1.291 . S
C55 H68 0.931 . S
C56 C55 1.291 . S
C56 C57 1.373 . S
C56 H69 0.929 . S
C57 C56 1.373 . S
C57 C58 1.396 . S
C57 C64 1.403 . S
C58 C48 1.476 . S
C58 N53 1.318 . S
C58 C57 1.396 . S
H59 C54 0.929 . S
O60 Mn36 2.385 . S
O60 C38 1.234 . S
O61 Mn36 2.209 . S
O61 Mn37 2.215 . S
O61 C38 1.283 . S
O62 Mn36 2.094 . S
O62 C40 1.240 . S
O63 Mn37 2.117 . S
O63 C40 1.264 . S
C64 C57 1.403 . S
C64 C65 1.399 . S
C64 H70 0.929 . S
C65 C45 1.449 . S
C65 C64 1.399 . S
C65 H71 0.930 . S
H66 C46 0.931 . S
H67 C47 0.930 . S
H68 C55 0.931 . S
H69 C56 0.929 . S
H70 C64 0.929 . S
H71 C65 0.930 . S
Mn72 O77 2.095 . S
Mn72 O87 2.162 . S
Mn72 O88 2.297 . S
Mn72 O96 2.385 . S
Mn72 O97 2.209 . S
Mn72 O98 2.094 . S
Mn73 O78 2.121 . S
Mn73 N80 2.257 . S
Mn73 N89 2.282 . S
Mn73 O97 2.215 . S
Mn73 O99 2.117 . S
C74 O96 1.234 . S
C74 O97 1.283 . S
C75 O87 1.281 . S
C75 O88 1.236 . S
C76 O98 1.240 . S
C76 O99 1.264 . S
O77 Mn72 2.095 . S
O77 C86 1.250 . S
O78 Mn73 2.121 . S
O78 C86 1.258 . S
C79 N80 1.326 . S
C79 C83 1.460 . S
C79 H85 0.929 . S
N80 Mn73 2.257 . S
N80 C79 1.326 . S
N80 C84 1.362 . S
C81 C82 1.258 . S
C81 C84 1.431 . S
C81 C101 1.449 . S
C82 C81 1.258 . S
C82 C83 1.477 . S
C82 H102 0.931 . S
C83 C79 1.460 . S
C83 C82 1.477 . S
C83 H103 0.930 . S
C84 N80 1.362 . S
C84 C81 1.431 . S
C84 C94 1.476 . S
H85 C79 0.929 . S
C86 O77 1.250 . S
C86 O78 1.258 . S
O87 Mn72 2.162 . S
O87 C75 1.281 . S
O88 Mn72 2.297 . S
O88 C75 1.236 . S
N89 Mn73 2.282 . S
N89 C90 1.328 . S
N89 C94 1.318 . S
C90 N89 1.328 . S
C90 C91 1.457 . S
C90 H95 0.929 . S
C91 C90 1.457 . S
C91 C92 1.291 . S
C91 H104 0.931 . S
C92 C91 1.291 . S
C92 C93 1.373 . S
C92 H105 0.929 . S
C93 C92 1.373 . S
C93 C94 1.396 . S
C93 C100 1.403 . S
C94 C84 1.476 . S
C94 N89 1.318 . S
C94 C93 1.396 . S
H95 C90 0.929 . S
O96 Mn72 2.385 . S
O96 C74 1.234 . S
O97 Mn72 2.209 . S
O97 Mn73 2.215 . S
O97 C74 1.283 . S
O98 Mn72 2.094 . S
O98 C76 1.240 . S
O99 Mn73 2.117 . S
O99 C76 1.264 . S
C100 C93 1.403 . S
C100 C101 1.399 . S
C100 H106 0.929 . S
C101 C81 1.449 . S
C101 C100 1.399 . S
C101 H107 0.930 . S
H102 C82 0.931 . S
H103 C83 0.930 . S
H104 C91 0.931 . S
H105 C92 0.929 . S
H106 C100 0.929 . S
H107 C101 0.930 . S
Mn108 O113 2.095 . S
Mn108 O123 2.162 . S
Mn108 O124 2.297 . S
Mn108 O132 2.385 . S
Mn108 O133 2.209 . S
Mn108 O134 2.094 . S
Mn109 O114 2.121 . S
Mn109 N116 2.257 . S
Mn109 N125 2.282 . S
Mn109 O133 2.215 . S
Mn109 O135 2.117 . S
C110 O132 1.234 . S
C110 O133 1.283 . S
C111 O123 1.281 . S
C111 O124 1.236 . S
C112 O134 1.240 . S
C112 O135 1.264 . S
O113 Mn108 2.095 . S
O113 C122 1.250 . S
O114 Mn109 2.121 . S
O114 C122 1.258 . S
C115 N116 1.326 . S
C115 C119 1.460 . S
C115 H121 0.929 . S
N116 Mn109 2.257 . S
N116 C115 1.326 . S
N116 C120 1.362 . S
C117 C118 1.258 . S
C117 C120 1.431 . S
C117 C137 1.449 . S
C118 C117 1.258 . S
C118 C119 1.477 . S
C118 H138 0.931 . S
C119 C115 1.460 . S
C119 C118 1.477 . S
C119 H139 0.930 . S
C120 N116 1.362 . S
C120 C117 1.431 . S
C120 C130 1.476 . S
H121 C115 0.929 . S
C122 O113 1.250 . S
C122 O114 1.258 . S
O123 Mn108 2.162 . S
O123 C111 1.281 . S
O124 Mn108 2.297 . S
O124 C111 1.236 . S
N125 Mn109 2.282 . S
N125 C126 1.328 . S
N125 C130 1.318 . S
C126 N125 1.328 . S
C126 C127 1.457 . S
C126 H131 0.929 . S
C127 C126 1.457 . S
C127 C128 1.291 . S
C127 H140 0.931 . S
C128 C127 1.291 . S
C128 C129 1.373 . S
C128 H141 0.929 . S
C129 C128 1.373 . S
C129 C130 1.396 . S
C129 C136 1.403 . S
C130 C120 1.476 . S
C130 N125 1.318 . S
C130 C129 1.396 . S
H131 C126 0.929 . S
O132 Mn108 2.385 . S
O132 C110 1.234 . S
O133 Mn108 2.209 . S
O133 Mn109 2.215 . S
O133 C110 1.283 . S
O134 Mn108 2.094 . S
O134 C112 1.240 . S
O135 Mn109 2.117 . S
O135 C112 1.264 . S
C136 C129 1.403 . S
C136 C137 1.399 . S
C136 H142 0.929 . S
C137 C117 1.449 . S
C137 C136 1.399 . S
C137 H143 0.930 . S
H138 C118 0.931 . S
H139 C119 0.930 . S
H140 C127 0.931 . S
H141 C128 0.929 . S
H142 C136 0.929 . S
H143 C137 0.930 . S
Mn144 O149 2.095 . S
Mn144 O159 2.162 . S
Mn144 O160 2.297 . S
Mn144 O168 2.385 . S
Mn144 O169 2.209 . S
Mn144 O170 2.094 . S
Mn145 O150 2.121 . S
Mn145 N152 2.257 . S
Mn145 N161 2.282 . S
Mn145 O169 2.215 . S
Mn145 O171 2.117 . S
C146 O168 1.234 . S
C146 O169 1.283 . S
C147 O159 1.281 . S
C147 O160 1.236 . S
C148 O170 1.240 . S
C148 O171 1.264 . S
O149 Mn144 2.095 . S
O149 C158 1.250 . S
O150 Mn145 2.121 . S
O150 C158 1.258 . S
C151 N152 1.326 . S
C151 C155 1.460 . S
C151 H157 0.929 . S
N152 Mn145 2.257 . S
N152 C151 1.326 . S
N152 C156 1.362 . S
C153 C154 1.258 . S
C153 C156 1.431 . S
C153 C173 1.449 . S
C154 C153 1.258 . S
C154 C155 1.477 . S
C154 H174 0.931 . S
C155 C151 1.460 . S
C155 C154 1.477 . S
C155 H175 0.930 . S
C156 N152 1.362 . S
C156 C153 1.431 . S
C156 C166 1.476 . S
H157 C151 0.929 . S
C158 O149 1.250 . S
C158 O150 1.258 . S
O159 Mn144 2.162 . S
O159 C147 1.281 . S
O160 Mn144 2.297 . S
O160 C147 1.236 . S
N161 Mn145 2.282 . S
N161 C162 1.328 . S
N161 C166 1.318 . S
C162 N161 1.328 . S
C162 C163 1.457 . S
C162 H167 0.929 . S
C163 C162 1.457 . S
C163 C164 1.291 . S
C163 H176 0.931 . S
C164 C163 1.291 . S
C164 C165 1.373 . S
C164 H177 0.929 . S
C165 C164 1.373 . S
C165 C166 1.396 . S
C165 C172 1.403 . S
C166 C156 1.476 . S
C166 N161 1.318 . S
C166 C165 1.396 . S
H167 C162 0.929 . S
O168 Mn144 2.385 . S
O168 C146 1.234 . S
O169 Mn144 2.209 . S
O169 Mn145 2.215 . S
O169 C146 1.283 . S
O170 Mn144 2.094 . S
O170 C148 1.240 . S
O171 Mn145 2.117 . S
O171 C148 1.264 . S
C172 C165 1.403 . S
C172 C173 1.399 . S
C172 H178 0.929 . S
C173 C153 1.449 . S
C173 C172 1.399 . S
C173 H179 0.930 . S
H174 C154 0.931 . S
H175 C155 0.930 . S
H176 C163 0.931 . S
H177 C164 0.929 . S
H178 C172 0.929 . S
H179 C173 0.930 . S
Mn180 O185 2.095 . S
Mn180 O195 2.162 . S
Mn180 O196 2.297 . S
Mn180 O204 2.385 . S
Mn180 O205 2.209 . S
Mn180 O206 2.094 . S
Mn181 O186 2.121 . S
Mn181 N188 2.257 . S
Mn181 N197 2.282 . S
Mn181 O205 2.215 . S
Mn181 O207 2.117 . S
C182 O204 1.234 . S
C182 O205 1.283 . S
C183 O195 1.281 . S
C183 O196 1.236 . S
C184 O206 1.240 . S
C184 O207 1.264 . S
O185 Mn180 2.095 . S
O185 C194 1.250 . S
O186 Mn181 2.121 . S
O186 C194 1.258 . S
C187 N188 1.326 . S
C187 C191 1.460 . S
C187 H193 0.929 . S
N188 Mn181 2.257 . S
N188 C187 1.326 . S
N188 C192 1.362 . S
C189 C190 1.258 . S
C189 C192 1.431 . S
C189 C209 1.449 . S
C190 C189 1.258 . S
C190 C191 1.477 . S
C190 H210 0.931 . S
C191 C187 1.460 . S
C191 C190 1.477 . S
C191 H211 0.930 . S
C192 N188 1.362 . S
C192 C189 1.431 . S
C192 C202 1.476 . S
H193 C187 0.929 . S
C194 O185 1.250 . S
C194 O186 1.258 . S
O195 Mn180 2.162 . S
O195 C183 1.281 . S
O196 Mn180 2.297 . S
O196 C183 1.236 . S
N197 Mn181 2.282 . S
N197 C198 1.328 . S
N197 C202 1.318 . S
C198 N197 1.328 . S
C198 C199 1.457 . S
C198 H203 0.929 . S
C199 C198 1.457 . S
C199 C200 1.291 . S
C199 H212 0.931 . S
C200 C199 1.291 . S
C200 C201 1.373 . S
C200 H213 0.929 . S
C201 C200 1.373 . S
C201 C202 1.396 . S
C201 C208 1.403 . S
C202 C192 1.476 . S
C202 N197 1.318 . S
C202 C201 1.396 . S
H203 C198 0.929 . S
O204 Mn180 2.385 . S
O204 C182 1.234 . S
O205 Mn180 2.209 . S
O205 Mn181 2.215 . S
O205 C182 1.283 . S
O206 Mn180 2.094 . S
O206 C184 1.240 . S
O207 Mn181 2.117 . S
O207 C184 1.264 . S
C208 C201 1.403 . S
C208 C209 1.399 . S
C208 H214 0.929 . S
C209 C189 1.449 . S
C209 C208 1.399 . S
C209 H215 0.930 . S
H210 C190 0.931 . S
H211 C191 0.930 . S
H212 C199 0.931 . S
H213 C200 0.929 . S
H214 C208 0.929 . S
H215 C209 0.930 . S
Mn216 O221 2.095 . S
Mn216 O231 2.162 . S
Mn216 O232 2.297 . S
Mn216 O240 2.385 . S
Mn216 O241 2.209 . S
Mn216 O242 2.094 . S
Mn217 O222 2.121 . S
Mn217 N224 2.257 . S
Mn217 N233 2.282 . S
Mn217 O241 2.215 . S
Mn217 O243 2.117 . S
C218 O240 1.234 . S
C218 O241 1.283 . S
C219 O231 1.281 . S
C219 O232 1.236 . S
C220 O242 1.240 . S
C220 O243 1.264 . S
O221 Mn216 2.095 . S
O221 C230 1.250 . S
O222 Mn217 2.121 . S
O222 C230 1.258 . S
C223 N224 1.326 . S
C223 C227 1.460 . S
C223 H229 0.929 . S
N224 Mn217 2.257 . S
N224 C223 1.326 . S
N224 C228 1.362 . S
C225 C226 1.258 . S
C225 C228 1.431 . S
C225 C245 1.449 . S
C226 C225 1.258 . S
C226 C227 1.477 . S
C226 H246 0.931 . S
C227 C223 1.460 . S
C227 C226 1.477 . S
C227 H247 0.930 . S
C228 N224 1.362 . S
C228 C225 1.431 . S
C228 C238 1.476 . S
H229 C223 0.929 . S
C230 O221 1.250 . S
C230 O222 1.258 . S
O231 Mn216 2.162 . S
O231 C219 1.281 . S
O232 Mn216 2.297 . S
O232 C219 1.236 . S
N233 Mn217 2.282 . S
N233 C234 1.328 . S
N233 C238 1.318 . S
C234 N233 1.328 . S
C234 C235 1.457 . S
C234 H239 0.929 . S
C235 C234 1.457 . S
C235 C236 1.291 . S
C235 H248 0.931 . S
C236 C235 1.291 . S
C236 C237 1.373 . S
C236 H249 0.929 . S
C237 C236 1.373 . S
C237 C238 1.396 . S
C237 C244 1.403 . S
C238 C228 1.476 . S
C238 N233 1.318 . S
C238 C237 1.396 . S
H239 C234 0.929 . S
O240 Mn216 2.385 . S
O240 C218 1.234 . S
O241 Mn216 2.209 . S
O241 Mn217 2.215 . S
O241 C218 1.283 . S
O242 Mn216 2.094 . S
O242 C220 1.240 . S
O243 Mn217 2.117 . S
O243 C220 1.264 . S
C244 C237 1.403 . S
C244 C245 1.399 . S
C244 H250 0.929 . S
C245 C225 1.449 . S
C245 C244 1.399 . S
C245 H251 0.930 . S
H246 C226 0.931 . S
H247 C227 0.930 . S
H248 C235 0.931 . S
H249 C236 0.929 . S
H250 C244 0.929 . S
H251 C245 0.930 . S
Mn252 O257 2.095 . S
Mn252 O267 2.162 . S
Mn252 O268 2.297 . S
Mn252 O276 2.385 . S
Mn252 O277 2.209 . S
Mn252 O278 2.094 . S
Mn253 O258 2.121 . S
Mn253 N260 2.257 . S
Mn253 N269 2.282 . S
Mn253 O277 2.215 . S
Mn253 O279 2.117 . S
C254 O276 1.234 . S
C254 O277 1.283 . S
C255 O267 1.281 . S
C255 O268 1.236 . S
C256 O278 1.240 . S
C256 O279 1.264 . S
O257 Mn252 2.095 . S
O257 C266 1.250 . S
O258 Mn253 2.121 . S
O258 C266 1.258 . S
C259 N260 1.326 . S
C259 C263 1.460 . S
C259 H265 0.929 . S
N260 Mn253 2.257 . S
N260 C259 1.326 . S
N260 C264 1.362 . S
C261 C262 1.258 . S
C261 C264 1.431 . S
C261 C281 1.449 . S
C262 C261 1.258 . S
C262 C263 1.477 . S
C262 H282 0.931 . S
C263 C259 1.460 . S
C263 C262 1.477 . S
C263 H283 0.930 . S
C264 N260 1.362 . S
C264 C261 1.431 . S
C264 C274 1.476 . S
H265 C259 0.929 . S
C266 O257 1.250 . S
C266 O258 1.258 . S
O267 Mn252 2.162 . S
O267 C255 1.281 . S
O268 Mn252 2.297 . S
O268 C255 1.236 . S
N269 Mn253 2.282 . S
N269 C270 1.328 . S
N269 C274 1.318 . S
C270 N269 1.328 . S
C270 C271 1.457 . S
C270 H275 0.929 . S
C271 C270 1.457 . S
C271 C272 1.291 . S
C271 H284 0.931 . S
C272 C271 1.291 . S
C272 C273 1.373 . S
C272 H285 0.929 . S
C273 C272 1.373 . S
C273 C274 1.396 . S
C273 C280 1.403 . S
C274 C264 1.476 . S
C274 N269 1.318 . S
C274 C273 1.396 . S
H275 C270 0.929 . S
O276 Mn252 2.385 . S
O276 C254 1.234 . S
O277 Mn252 2.209 . S
O277 Mn253 2.215 . S
O277 C254 1.283 . S
O278 Mn252 2.094 . S
O278 C256 1.240 . S
O279 Mn253 2.117 . S
O279 C256 1.264 . S
C280 C273 1.403 . S
C280 C281 1.399 . S
C280 H286 0.929 . S
C281 C261 1.449 . S
C281 C280 1.399 . S
C281 H287 0.930 . S
H282 C262 0.931 . S
H283 C263 0.930 . S
H284 C271 0.931 . S
H285 C272 0.929 . S
H286 C280 0.929 . S
H287 C281 0.930 . S
Mn288 O293 2.095 . S
Mn288 O303 2.162 . S
Mn288 O304 2.297 . S
Mn288 O312 2.385 . S
Mn288 O313 2.209 . S
Mn288 O314 2.094 . S
Mn289 O294 2.121 . S
Mn289 N296 2.257 . S
Mn289 N305 2.282 . S
Mn289 O313 2.215 . S
Mn289 O315 2.117 . S
C290 O312 1.234 . S
C290 O313 1.283 . S
C291 O303 1.281 . S
C291 O304 1.236 . S
C292 O314 1.240 . S
C292 O315 1.264 . S
O293 Mn288 2.095 . S
O293 C302 1.250 . S
O294 Mn289 2.121 . S
O294 C302 1.258 . S
C295 N296 1.326 . S
C295 C299 1.460 . S
C295 H301 0.929 . S
N296 Mn289 2.257 . S
N296 C295 1.326 . S
N296 C300 1.362 . S
C297 C298 1.258 . S
C297 C300 1.431 . S
C297 C317 1.449 . S
C298 C297 1.258 . S
C298 C299 1.477 . S
C298 H318 0.931 . S
C299 C295 1.460 . S
C299 C298 1.477 . S
C299 H319 0.930 . S
C300 N296 1.362 . S
C300 C297 1.431 . S
C300 C310 1.476 . S
H301 C295 0.929 . S
C302 O293 1.250 . S
C302 O294 1.258 . S
O303 Mn288 2.162 . S
O303 C291 1.281 . S
O304 Mn288 2.297 . S
O304 C291 1.236 . S
N305 Mn289 2.282 . S
N305 C306 1.328 . S
N305 C310 1.318 . S
C306 N305 1.328 . S
C306 C307 1.457 . S
C306 H311 0.929 . S
C307 C306 1.457 . S
C307 C308 1.291 . S
C307 H320 0.931 . S
C308 C307 1.291 . S
C308 C309 1.373 . S
C308 H321 0.929 . S
C309 C308 1.373 . S
C309 C310 1.396 . S
C309 C316 1.403 . S
C310 C300 1.476 . S
C310 N305 1.318 . S
C310 C309 1.396 . S
H311 C306 0.929 . S
O312 Mn288 2.385 . S
O312 C290 1.234 . S
O313 Mn288 2.209 . S
O313 Mn289 2.215 . S
O313 C290 1.283 . S
O314 Mn288 2.094 . S
O314 C292 1.240 . S
O315 Mn289 2.117 . S
O315 C292 1.264 . S
C316 C309 1.403 . S
C316 C317 1.399 . S
C316 H322 0.929 . S
C317 C297 1.449 . S
C317 C316 1.399 . S
C317 H323 0.930 . S
H318 C298 0.931 . S
H319 C299 0.930 . S
H320 C307 0.931 . S
H321 C308 0.929 . S
H322 C316 0.929 . S
H323 C317 0.930 . S
Mn324 O329 2.095 . S
Mn324 O339 2.162 . S
Mn324 O340 2.297 . S
Mn324 O348 2.385 . S
Mn324 O349 2.209 . S
Mn324 O350 2.094 . S
Mn325 O330 2.121 . S
Mn325 N332 2.257 . S
Mn325 N341 2.282 . S
Mn325 O349 2.215 . S
Mn325 O351 2.117 . S
C326 O348 1.234 . S
C326 O349 1.283 . S
C327 O339 1.281 . S
C327 O340 1.236 . S
C328 O350 1.240 . S
C328 O351 1.264 . S
O329 Mn324 2.095 . S
O329 C338 1.250 . S
O330 Mn325 2.121 . S
O330 C338 1.258 . S
C331 N332 1.326 . S
C331 C335 1.460 . S
C331 H337 0.929 . S
N332 Mn325 2.257 . S
N332 C331 1.326 . S
N332 C336 1.362 . S
C333 C334 1.258 . S
C333 C336 1.431 . S
C333 C353 1.449 . S
C334 C333 1.258 . S
C334 C335 1.477 . S
C334 H354 0.931 . S
C335 C331 1.460 . S
C335 C334 1.477 . S
C335 H355 0.930 . S
C336 N332 1.362 . S
C336 C333 1.431 . S
C336 C346 1.476 . S
H337 C331 0.929 . S
C338 O329 1.250 . S
C338 O330 1.258 . S
O339 Mn324 2.162 . S
O339 C327 1.281 . S
O340 Mn324 2.297 . S
O340 C327 1.236 . S
N341 Mn325 2.282 . S
N341 C342 1.328 . S
N341 C346 1.318 . S
C342 N341 1.328 . S
C342 C343 1.457 . S
C342 H347 0.929 . S
C343 C342 1.457 . S
C343 C344 1.291 . S
C343 H356 0.931 . S
C344 C343 1.291 . S
C344 C345 1.373 . S
C344 H357 0.929 . S
C345 C344 1.373 . S
C345 C346 1.396 . S
C345 C352 1.403 . S
C346 C336 1.476 . S
C346 N341 1.318 . S
C346 C345 1.396 . S
H347 C342 0.929 . S
O348 Mn324 2.385 . S
O348 C326 1.234 . S
O349 Mn324 2.209 . S
O349 Mn325 2.215 . S
O349 C326 1.283 . S
O350 Mn324 2.094 . S
O350 C328 1.240 . S
O351 Mn325 2.117 . S
O351 C328 1.264 . S
C352 C345 1.403 . S
C352 C353 1.399 . S
C352 H358 0.929 . S
C353 C333 1.449 . S
C353 C352 1.399 . S
C353 H359 0.930 . S
H354 C334 0.931 . S
H355 C335 0.930 . S
H356 C343 0.931 . S
H357 C344 0.929 . S
H358 C352 0.929 . S
H359 C353 0.930 . S
Mn360 O365 2.095 . S
Mn360 O375 2.162 . S
Mn360 O376 2.297 . S
Mn360 O384 2.385 . S
Mn360 O385 2.209 . S
Mn360 O386 2.094 . S
Mn361 O366 2.121 . S
Mn361 N368 2.257 . S
Mn361 N377 2.282 . S
Mn361 O385 2.215 . S
Mn361 O387 2.117 . S
C362 O384 1.234 . S
C362 O385 1.283 . S
C363 O375 1.281 . S
C363 O376 1.236 . S
C364 O386 1.240 . S
C364 O387 1.264 . S
O365 Mn360 2.095 . S
O365 C374 1.250 . S
O366 Mn361 2.121 . S
O366 C374 1.258 . S
C367 N368 1.326 . S
C367 C371 1.460 . S
C367 H373 0.929 . S
N368 Mn361 2.257 . S
N368 C367 1.326 . S
N368 C372 1.362 . S
C369 C370 1.258 . S
C369 C372 1.431 . S
C369 C389 1.449 . S
C370 C369 1.258 . S
C370 C371 1.477 . S
C370 H390 0.931 . S
C371 C367 1.460 . S
C371 C370 1.477 . S
C371 H391 0.930 . S
C372 N368 1.362 . S
C372 C369 1.431 . S
C372 C382 1.476 . S
H373 C367 0.929 . S
C374 O365 1.250 . S
C374 O366 1.258 . S
O375 Mn360 2.162 . S
O375 C363 1.281 . S
O376 Mn360 2.297 . S
O376 C363 1.236 . S
N377 Mn361 2.282 . S
N377 C378 1.328 . S
N377 C382 1.318 . S
C378 N377 1.328 . S
C378 C379 1.457 . S
C378 H383 0.929 . S
C379 C378 1.457 . S
C379 C380 1.291 . S
C379 H392 0.931 . S
C380 C379 1.291 . S
C380 C381 1.373 . S
C380 H393 0.929 . S
C381 C380 1.373 . S
C381 C382 1.396 . S
C381 C388 1.403 . S
C382 C372 1.476 . S
C382 N377 1.318 . S
C382 C381 1.396 . S
H383 C378 0.929 . S
O384 Mn360 2.385 . S
O384 C362 1.234 . S
O385 Mn360 2.209 . S
O385 Mn361 2.215 . S
O385 C362 1.283 . S
O386 Mn360 2.094 . S
O386 C364 1.240 . S
O387 Mn361 2.117 . S
O387 C364 1.264 . S
C388 C381 1.403 . S
C388 C389 1.399 . S
C388 H394 0.929 . S
C389 C369 1.449 . S
C389 C388 1.399 . S
C389 H395 0.930 . S
H390 C370 0.931 . S
H391 C371 0.930 . S
H392 C379 0.931 . S
H393 C380 0.929 . S
H394 C388 0.929 . S
H395 C389 0.930 . S
Mn396 O401 2.095 . S
Mn396 O411 2.162 . S
Mn396 O412 2.297 . S
Mn396 O420 2.385 . S
Mn396 O421 2.209 . S
Mn396 O422 2.094 . S
Mn397 O402 2.121 . S
Mn397 N404 2.257 . S
Mn397 N413 2.282 . S
Mn397 O421 2.215 . S
Mn397 O423 2.117 . S
C398 O420 1.234 . S
C398 O421 1.283 . S
C399 O411 1.281 . S
C399 O412 1.236 . S
C400 O422 1.240 . S
C400 O423 1.264 . S
O401 Mn396 2.095 . S
O401 C410 1.250 . S
O402 Mn397 2.121 . S
O402 C410 1.258 . S
C403 N404 1.326 . S
C403 C407 1.460 . S
C403 H409 0.929 . S
N404 Mn397 2.257 . S
N404 C403 1.326 . S
N404 C408 1.362 . S
C405 C406 1.258 . S
C405 C408 1.431 . S
C405 C425 1.449 . S
C406 C405 1.258 . S
C406 C407 1.477 . S
C406 H426 0.931 . S
C407 C403 1.460 . S
C407 C406 1.477 . S
C407 H427 0.930 . S
C408 N404 1.362 . S
C408 C405 1.431 . S
C408 C418 1.476 . S
H409 C403 0.929 . S
C410 O401 1.250 . S
C410 O402 1.258 . S
O411 Mn396 2.162 . S
O411 C399 1.281 . S
O412 Mn396 2.297 . S
O412 C399 1.236 . S
N413 Mn397 2.282 . S
N413 C414 1.328 . S
N413 C418 1.318 . S
C414 N413 1.328 . S
C414 C415 1.457 . S
C414 H419 0.929 . S
C415 C414 1.457 . S
C415 C416 1.291 . S
C415 H428 0.931 . S
C416 C415 1.291 . S
C416 C417 1.373 . S
C416 H429 0.929 . S
C417 C416 1.373 . S
C417 C418 1.396 . S
C417 C424 1.403 . S
C418 C408 1.476 . S
C418 N413 1.318 . S
C418 C417 1.396 . S
H419 C414 0.929 . S
O420 Mn396 2.385 . S
O420 C398 1.234 . S
O421 Mn396 2.209 . S
O421 Mn397 2.215 . S
O421 C398 1.283 . S
O422 Mn396 2.094 . S
O422 C400 1.240 . S
O423 Mn397 2.117 . S
O423 C400 1.264 . S
C424 C417 1.403 . S
C424 C425 1.399 . S
C424 H430 0.929 . S
C425 C405 1.449 . S
C425 C424 1.399 . S
C425 H431 0.930 . S
H426 C406 0.931 . S
H427 C407 0.930 . S
H428 C415 0.931 . S
H429 C416 0.929 . S
H430 C424 0.929 . S
H431 C425 0.930 . S
Mn432 O437 2.095 . S
Mn432 O447 2.162 . S
Mn432 O448 2.297 . S
Mn432 O456 2.385 . S
Mn432 O457 2.209 . S
Mn432 O458 2.094 . S
Mn433 O438 2.121 . S
Mn433 N440 2.257 . S
Mn433 N449 2.282 . S
Mn433 O457 2.215 . S
Mn433 O459 2.117 . S
C434 O456 1.234 . S
C434 O457 1.283 . S
C435 O447 1.281 . S
C435 O448 1.236 . S
C436 O458 1.240 . S
C436 O459 1.264 . S
O437 Mn432 2.095 . S
O437 C446 1.250 . S
O438 Mn433 2.121 . S
O438 C446 1.258 . S
C439 N440 1.326 . S
C439 C443 1.460 . S
C439 H445 0.929 . S
N440 Mn433 2.257 . S
N440 C439 1.326 . S
N440 C444 1.362 . S
C441 C442 1.258 . S
C441 C444 1.431 . S
C441 C461 1.449 . S
C442 C441 1.258 . S
C442 C443 1.477 . S
C442 H462 0.931 . S
C443 C439 1.460 . S
C443 C442 1.477 . S
C443 H463 0.930 . S
C444 N440 1.362 . S
C444 C441 1.431 . S
C444 C454 1.476 . S
H445 C439 0.929 . S
C446 O437 1.250 . S
C446 O438 1.258 . S
O447 Mn432 2.162 . S
O447 C435 1.281 . S
O448 Mn432 2.297 . S
O448 C435 1.236 . S
N449 Mn433 2.282 . S
N449 C450 1.328 . S
N449 C454 1.318 . S
C450 N449 1.328 . S
C450 C451 1.457 . S
C450 H455 0.929 . S
C451 C450 1.457 . S
C451 C452 1.291 . S
C451 H464 0.931 . S
C452 C451 1.291 . S
C452 C453 1.373 . S
C452 H465 0.929 . S
C453 C452 1.373 . S
C453 C454 1.396 . S
C453 C460 1.403 . S
C454 C444 1.476 . S
C454 N449 1.318 . S
C454 C453 1.396 . S
H455 C450 0.929 . S
O456 Mn432 2.385 . S
O456 C434 1.234 . S
O457 Mn432 2.209 . S
O457 Mn433 2.215 . S
O457 C434 1.283 . S
O458 Mn432 2.094 . S
O458 C436 1.240 . S
O459 Mn433 2.117 . S
O459 C436 1.264 . S
C460 C453 1.403 . S
C460 C461 1.399 . S
C460 H466 0.929 . S
C461 C441 1.449 . S
C461 C460 1.399 . S
C461 H467 0.930 . S
H462 C442 0.931 . S
H463 C443 0.930 . S
H464 C451 0.931 . S
H465 C452 0.929 . S
H466 C460 0.929 . S
H467 C461 0.930 . S
Mn468 O473 2.095 . S
Mn468 O483 2.162 . S
Mn468 O484 2.297 . S
Mn468 O492 2.385 . S
Mn468 O493 2.209 . S
Mn468 O494 2.094 . S
Mn469 O474 2.121 . S
Mn469 N476 2.257 . S
Mn469 N485 2.282 . S
Mn469 O493 2.215 . S
Mn469 O495 2.117 . S
C470 O492 1.234 . S
C470 O493 1.283 . S
C471 O483 1.281 . S
C471 O484 1.236 . S
C472 O494 1.240 . S
C472 O495 1.264 . S
O473 Mn468 2.095 . S
O473 C482 1.250 . S
O474 Mn469 2.121 . S
O474 C482 1.258 . S
C475 N476 1.326 . S
C475 C479 1.460 . S
C475 H481 0.929 . S
N476 Mn469 2.257 . S
N476 C475 1.326 . S
N476 C480 1.362 . S
C477 C478 1.258 . S
C477 C480 1.431 . S
C477 C497 1.449 . S
C478 C477 1.258 . S
C478 C479 1.477 . S
C478 H498 0.931 . S
C479 C475 1.460 . S
C479 C478 1.477 . S
C479 H499 0.930 . S
C480 N476 1.362 . S
C480 C477 1.431 . S
C480 C490 1.476 . S
H481 C475 0.929 . S
C482 O473 1.250 . S
C482 O474 1.258 . S
O483 Mn468 2.162 . S
O483 C471 1.281 . S
O484 Mn468 2.297 . S
O484 C471 1.236 . S
N485 Mn469 2.282 . S
N485 C486 1.328 . S
N485 C490 1.318 . S
C486 N485 1.328 . S
C486 C487 1.457 . S
C486 H491 0.929 . S
C487 C486 1.457 . S
C487 C488 1.291 . S
C487 H500 0.931 . S
C488 C487 1.291 . S
C488 C489 1.373 . S
C488 H501 0.929 . S
C489 C488 1.373 . S
C489 C490 1.396 . S
C489 C496 1.403 . S
C490 C480 1.476 . S
C490 N485 1.318 . S
C490 C489 1.396 . S
H491 C486 0.929 . S
O492 Mn468 2.385 . S
O492 C470 1.234 . S
O493 Mn468 2.209 . S
O493 Mn469 2.215 . S
O493 C470 1.283 . S
O494 Mn468 2.094 . S
O494 C472 1.240 . S
O495 Mn469 2.117 . S
O495 C472 1.264 . S
C496 C489 1.403 . S
C496 C497 1.399 . S
C496 H502 0.929 . S
C497 C477 1.449 . S
C497 C496 1.399 . S
C497 H503 0.930 . S
H498 C478 0.931 . S
H499 C479 0.930 . S
H500 C487 0.931 . S
H501 C488 0.929 . S
H502 C496 0.929 . S
H503 C497 0.930 . S
Mn504 O509 2.095 . S
Mn504 O519 2.162 . S
Mn504 O520 2.297 . S
Mn504 O528 2.385 . S
Mn504 O529 2.209 . S
Mn504 O530 2.094 . S
Mn505 O510 2.121 . S
Mn505 N512 2.257 . S
Mn505 N521 2.282 . S
Mn505 O529 2.215 . S
Mn505 O531 2.117 . S
C506 O528 1.234 . S
C506 O529 1.283 . S
C507 O519 1.281 . S
C507 O520 1.236 . S
C508 O530 1.240 . S
C508 O531 1.264 . S
O509 Mn504 2.095 . S
O509 C518 1.250 . S
O510 Mn505 2.121 . S
O510 C518 1.258 . S
C511 N512 1.326 . S
C511 C515 1.460 . S
C511 H517 0.929 . S
N512 Mn505 2.257 . S
N512 C511 1.326 . S
N512 C516 1.362 . S
C513 C514 1.258 . S
C513 C516 1.431 . S
C513 C533 1.449 . S
C514 C513 1.258 . S
C514 C515 1.477 . S
C514 H534 0.931 . S
C515 C511 1.460 . S
C515 C514 1.477 . S
C515 H535 0.930 . S
C516 N512 1.362 . S
C516 C513 1.431 . S
C516 C526 1.476 . S
H517 C511 0.929 . S
C518 O509 1.250 . S
C518 O510 1.258 . S
O519 Mn504 2.162 . S
O519 C507 1.281 . S
O520 Mn504 2.297 . S
O520 C507 1.236 . S
N521 Mn505 2.282 . S
N521 C522 1.328 . S
N521 C526 1.318 . S
C522 N521 1.328 . S
C522 C523 1.457 . S
C522 H527 0.929 . S
C523 C522 1.457 . S
C523 C524 1.291 . S
C523 H536 0.931 . S
C524 C523 1.291 . S
C524 C525 1.373 . S
C524 H537 0.929 . S
C525 C524 1.373 . S
C525 C526 1.396 . S
C525 C532 1.403 . S
C526 C516 1.476 . S
C526 N521 1.318 . S
C526 C525 1.396 . S
H527 C522 0.929 . S
O528 Mn504 2.385 . S
O528 C506 1.234 . S
O529 Mn504 2.209 . S
O529 Mn505 2.215 . S
O529 C506 1.283 . S
O530 Mn504 2.094 . S
O530 C508 1.240 . S
O531 Mn505 2.117 . S
O531 C508 1.264 . S
C532 C525 1.403 . S
C532 C533 1.399 . S
C532 H538 0.929 . S
C533 C513 1.449 . S
C533 C532 1.399 . S
C533 H539 0.930 . S
H534 C514 0.931 . S
H535 C515 0.930 . S
H536 C523 0.931 . S
H537 C524 0.929 . S
H538 C532 0.929 . S
H539 C533 0.930 . S
Mn540 O545 2.095 . S
Mn540 O555 2.162 . S
Mn540 O556 2.297 . S
Mn540 O564 2.385 . S
Mn540 O565 2.209 . S
Mn540 O566 2.094 . S
Mn541 O546 2.121 . S
Mn541 N548 2.257 . S
Mn541 N557 2.282 . S
Mn541 O565 2.215 . S
Mn541 O567 2.117 . S
C542 O564 1.234 . S
C542 O565 1.283 . S
C543 O555 1.281 . S
C543 O556 1.236 . S
C544 O566 1.240 . S
C544 O567 1.264 . S
O545 Mn540 2.095 . S
O545 C554 1.250 . S
O546 Mn541 2.121 . S
O546 C554 1.258 . S
C547 N548 1.326 . S
C547 C551 1.460 . S
C547 H553 0.929 . S
N548 Mn541 2.257 . S
N548 C547 1.326 . S
N548 C552 1.362 . S
C549 C550 1.258 . S
C549 C552 1.431 . S
C549 C569 1.449 . S
C550 C549 1.258 . S
C550 C551 1.477 . S
C550 H570 0.931 . S
C551 C547 1.460 . S
C551 C550 1.477 . S
C551 H571 0.930 . S
C552 N548 1.362 . S
C552 C549 1.431 . S
C552 C562 1.476 . S
H553 C547 0.929 . S
C554 O545 1.250 . S
C554 O546 1.258 . S
O555 Mn540 2.162 . S
O555 C543 1.281 . S
O556 Mn540 2.297 . S
O556 C543 1.236 . S
N557 Mn541 2.282 . S
N557 C558 1.328 . S
N557 C562 1.318 . S
C558 N557 1.328 . S
C558 C559 1.457 . S
C558 H563 0.929 . S
C559 C558 1.457 . S
C559 C560 1.291 . S
C559 H572 0.931 . S
C560 C559 1.291 . S
C560 C561 1.373 . S
C560 H573 0.929 . S
C561 C560 1.373 . S
C561 C562 1.396 . S
C561 C568 1.403 . S
C562 C552 1.476 . S
C562 N557 1.318 . S
C562 C561 1.396 . S
H563 C558 0.929 . S
O564 Mn540 2.385 . S
O564 C542 1.234 . S
O565 Mn540 2.209 . S
O565 Mn541 2.215 . S
O565 C542 1.283 . S
O566 Mn540 2.094 . S
O566 C544 1.240 . S
O567 Mn541 2.117 . S
O567 C544 1.264 . S
C568 C561 1.403 . S
C568 C569 1.399 . S
C568 H574 0.929 . S
C569 C549 1.449 . S
C569 C568 1.399 . S
C569 H575 0.930 . S
H570 C550 0.931 . S
H571 C551 0.930 . S
H572 C559 0.931 . S
H573 C560 0.929 . S
H574 C568 0.929 . S
H575 C569 0.930 . S
Mn576 O581 2.095 . S
Mn576 O591 2.162 . S
Mn576 O592 2.297 . S
Mn576 O600 2.385 . S
Mn576 O601 2.209 . S
Mn576 O602 2.094 . S
Mn577 O582 2.121 . S
Mn577 N584 2.257 . S
Mn577 N593 2.282 . S
Mn577 O601 2.215 . S
Mn577 O603 2.117 . S
C578 O600 1.234 . S
C578 O601 1.283 . S
C579 O591 1.281 . S
C579 O592 1.236 . S
C580 O602 1.240 . S
C580 O603 1.264 . S
O581 Mn576 2.095 . S
O581 C590 1.250 . S
O582 Mn577 2.121 . S
O582 C590 1.258 . S
C583 N584 1.326 . S
C583 C587 1.460 . S
C583 H589 0.929 . S
N584 Mn577 2.257 . S
N584 C583 1.326 . S
N584 C588 1.362 . S
C585 C586 1.258 . S
C585 C588 1.431 . S
C585 C605 1.449 . S
C586 C585 1.258 . S
C586 C587 1.477 . S
C586 H606 0.931 . S
C587 C583 1.460 . S
C587 C586 1.477 . S
C587 H607 0.930 . S
C588 N584 1.362 . S
C588 C585 1.431 . S
C588 C598 1.476 . S
H589 C583 0.929 . S
C590 O581 1.250 . S
C590 O582 1.258 . S
O591 Mn576 2.162 . S
O591 C579 1.281 . S
O592 Mn576 2.297 . S
O592 C579 1.236 . S
N593 Mn577 2.282 . S
N593 C594 1.328 . S
N593 C598 1.318 . S
C594 N593 1.328 . S
C594 C595 1.457 . S
C594 H599 0.929 . S
C595 C594 1.457 . S
C595 C596 1.291 . S
C595 H608 0.931 . S
C596 C595 1.291 . S
C596 C597 1.373 . S
C596 H609 0.929 . S
C597 C596 1.373 . S
C597 C598 1.396 . S
C597 C604 1.403 . S
C598 C588 1.476 . S
C598 N593 1.318 . S
C598 C597 1.396 . S
H599 C594 0.929 . S
O600 Mn576 2.385 . S
O600 C578 1.234 . S
O601 Mn576 2.209 . S
O601 Mn577 2.215 . S
O601 C578 1.283 . S
O602 Mn576 2.094 . S
O602 C580 1.240 . S
O603 Mn577 2.117 . S
O603 C580 1.264 . S
C604 C597 1.403 . S
C604 C605 1.399 . S
C604 H610 0.929 1_556 S
C605 C585 1.449 . S
C605 C604 1.399 . S
C605 H611 0.930 . S
H606 C586 0.931 . S
H607 C587 0.930 . S
H608 C595 0.931 . S
H609 C596 0.929 . S
H610 C604 0.929 1_554 S
H611 C605 0.930 . S
Mn612 O617 2.095 . S
Mn612 O627 2.162 . S
Mn612 O628 2.297 . S
Mn612 O636 2.385 . S
Mn612 O637 2.209 . S
Mn612 O638 2.094 . S
Mn613 O618 2.121 . S
Mn613 N620 2.257 . S
Mn613 N629 2.282 . S
Mn613 O637 2.215 . S
Mn613 O639 2.117 . S
C614 O636 1.234 . S
C614 O637 1.283 . S
C615 O627 1.281 . S
C615 O628 1.236 . S
C616 O638 1.240 . S
C616 O639 1.264 . S
O617 Mn612 2.095 . S
O617 C626 1.250 . S
O618 Mn613 2.121 . S
O618 C626 1.258 . S
C619 N620 1.326 . S
C619 C623 1.460 . S
C619 H625 0.929 . S
N620 Mn613 2.257 . S
N620 C619 1.326 . S
N620 C624 1.362 . S
C621 C622 1.258 . S
C621 C624 1.431 . S
C621 C641 1.449 . S
C622 C621 1.258 . S
C622 C623 1.477 . S
C622 H642 0.931 . S
C623 C619 1.460 . S
C623 C622 1.477 . S
C623 H643 0.930 . S
C624 N620 1.362 . S
C624 C621 1.431 . S
C624 C634 1.476 . S
H625 C619 0.929 . S
C626 O617 1.250 . S
C626 O618 1.258 . S
O627 Mn612 2.162 . S
O627 C615 1.281 . S
O628 Mn612 2.297 . S
O628 C615 1.236 . S
N629 Mn613 2.282 . S
N629 C630 1.328 . S
N629 C634 1.318 . S
C630 N629 1.328 . S
C630 C631 1.457 . S
C630 H635 0.929 . S
C631 C630 1.457 . S
C631 C632 1.291 . S
C631 H644 0.931 . S
C632 C631 1.291 . S
C632 C633 1.373 . S
C632 H645 0.929 . S
C633 C632 1.373 . S
C633 C634 1.396 . S
C633 C640 1.403 . S
C634 C624 1.476 . S
C634 N629 1.318 . S
C634 C633 1.396 . S
H635 C630 0.929 . S
O636 Mn612 2.385 . S
O636 C614 1.234 . S
O637 Mn612 2.209 . S
O637 Mn613 2.215 . S
O637 C614 1.283 . S
O638 Mn612 2.094 . S
O638 C616 1.240 . S
O639 Mn613 2.117 . S
O639 C616 1.264 . S
C640 C633 1.403 . S
C640 C641 1.399 . S
C640 H646 0.929 . S
C641 C621 1.449 . S
C641 C640 1.399 . S
C641 H647 0.930 . S
H642 C622 0.931 . S
H643 C623 0.930 . S
H644 C631 0.931 . S
H645 C632 0.929 . S
H646 C640 0.929 . S
H647 C641 0.930 . S
Mn648 O653 2.095 . S
Mn648 O663 2.162 . S
Mn648 O664 2.297 . S
Mn648 O672 2.385 . S
Mn648 O673 2.209 . S
Mn648 O674 2.094 . S
Mn649 O654 2.121 . S
Mn649 N656 2.257 . S
Mn649 N665 2.282 . S
Mn649 O673 2.215 . S
Mn649 O675 2.117 . S
C650 O672 1.234 . S
C650 O673 1.283 . S
C651 O663 1.281 . S
C651 O664 1.236 . S
C652 O674 1.240 . S
C652 O675 1.264 . S
O653 Mn648 2.095 . S
O653 C662 1.250 . S
O654 Mn649 2.121 . S
O654 C662 1.258 . S
C655 N656 1.326 . S
C655 C659 1.460 . S
C655 H661 0.929 . S
N656 Mn649 2.257 . S
N656 C655 1.326 . S
N656 C660 1.362 . S
C657 C658 1.258 . S
C657 C660 1.431 . S
C657 C677 1.449 . S
C658 C657 1.258 . S
C658 C659 1.477 . S
C658 H678 0.931 . S
C659 C655 1.460 . S
C659 C658 1.477 . S
C659 H679 0.930 . S
C660 N656 1.362 . S
C660 C657 1.431 . S
C660 C670 1.476 . S
H661 C655 0.929 . S
C662 O653 1.250 . S
C662 O654 1.258 . S
O663 Mn648 2.162 . S
O663 C651 1.281 . S
O664 Mn648 2.297 . S
O664 C651 1.236 . S
N665 Mn649 2.282 . S
N665 C666 1.328 . S
N665 C670 1.318 . S
C666 N665 1.328 . S
C666 C667 1.457 . S
C666 H671 0.929 . S
C667 C666 1.457 . S
C667 C668 1.291 . S
C667 H680 0.931 . S
C668 C667 1.291 . S
C668 C669 1.373 . S
C668 H681 0.929 . S
C669 C668 1.373 . S
C669 C670 1.396 . S
C669 C676 1.403 . S
C670 C660 1.476 . S
C670 N665 1.318 . S
C670 C669 1.396 . S
H671 C666 0.929 . S
O672 Mn648 2.385 . S
O672 C650 1.234 . S
O673 Mn648 2.209 . S
O673 Mn649 2.215 . S
O673 C650 1.283 . S
O674 Mn648 2.094 . S
O674 C652 1.240 . S
O675 Mn649 2.117 . S
O675 C652 1.264 . S
C676 C669 1.403 . S
C676 C677 1.399 . S
C676 H682 0.929 1_556 S
C677 C657 1.449 . S
C677 C676 1.399 . S
C677 H683 0.930 . S
H678 C658 0.931 . S
H679 C659 0.930 . S
H680 C667 0.931 . S
H681 C668 0.929 . S
H682 C676 0.929 1_554 S
H683 C677 0.930 . S
Mn684 O689 2.095 . S
Mn684 O699 2.162 . S
Mn684 O700 2.297 . S
Mn684 O708 2.385 . S
Mn684 O709 2.209 . S
Mn684 O710 2.094 . S
Mn685 O690 2.121 . S
Mn685 N692 2.257 . S
Mn685 N701 2.282 . S
Mn685 O709 2.215 . S
Mn685 O711 2.117 . S
C686 O708 1.234 . S
C686 O709 1.283 . S
C687 O699 1.281 . S
C687 O700 1.236 . S
C688 O710 1.240 . S
C688 O711 1.264 . S
O689 Mn684 2.095 . S
O689 C698 1.250 . S
O690 Mn685 2.121 . S
O690 C698 1.258 . S
C691 N692 1.326 . S
C691 C695 1.460 . S
C691 H697 0.929 . S
N692 Mn685 2.257 . S
N692 C691 1.326 . S
N692 C696 1.362 . S
C693 C694 1.258 . S
C693 C696 1.431 . S
C693 C713 1.449 . S
C694 C693 1.258 . S
C694 C695 1.477 . S
C694 H714 0.931 . S
C695 C691 1.460 . S
C695 C694 1.477 . S
C695 H715 0.930 . S
C696 N692 1.362 . S
C696 C693 1.431 . S
C696 C706 1.476 . S
H697 C691 0.929 . S
C698 O689 1.250 . S
C698 O690 1.258 . S
O699 Mn684 2.162 . S
O699 C687 1.281 . S
O700 Mn684 2.297 . S
O700 C687 1.236 . S
N701 Mn685 2.282 . S
N701 C702 1.328 . S
N701 C706 1.318 . S
C702 N701 1.328 . S
C702 C703 1.457 . S
C702 H707 0.929 . S
C703 C702 1.457 . S
C703 C704 1.291 . S
C703 H716 0.931 . S
C704 C703 1.291 . S
C704 C705 1.373 . S
C704 H717 0.929 . S
C705 C704 1.373 . S
C705 C706 1.396 . S
C705 C712 1.403 . S
C706 C696 1.476 . S
C706 N701 1.318 . S
C706 C705 1.396 . S
H707 C702 0.929 . S
O708 Mn684 2.385 . S
O708 C686 1.234 . S
O709 Mn684 2.209 . S
O709 Mn685 2.215 . S
O709 C686 1.283 . S
O710 Mn684 2.094 . S
O710 C688 1.240 . S
O711 Mn685 2.117 . S
O711 C688 1.264 . S
C712 C705 1.403 . S
C712 C713 1.399 . S
C712 H718 0.929 . S
C713 C693 1.449 . S
C713 C712 1.399 . S
C713 H719 0.930 . S
H714 C694 0.931 . S
H715 C695 0.930 . S
H716 C703 0.931 . S
H717 C704 0.929 . S
H718 C712 0.929 . S
H719 C713 0.930 . S
Mn720 O725 2.095 . S
Mn720 O735 2.162 . S
Mn720 O736 2.297 . S
Mn720 O744 2.385 . S
Mn720 O745 2.209 . S
Mn720 O746 2.094 . S
Mn721 O726 2.121 . S
Mn721 N728 2.257 . S
Mn721 N737 2.282 . S
Mn721 O745 2.215 . S
Mn721 O747 2.117 . S
C722 O744 1.234 . S
C722 O745 1.283 . S
C723 O735 1.281 . S
C723 O736 1.236 . S
C724 O746 1.240 . S
C724 O747 1.264 . S
O725 Mn720 2.095 . S
O725 C734 1.250 . S
O726 Mn721 2.121 . S
O726 C734 1.258 . S
C727 N728 1.326 . S
C727 C731 1.460 . S
C727 H733 0.929 . S
N728 Mn721 2.257 . S
N728 C727 1.326 . S
N728 C732 1.362 . S
C729 C730 1.258 . S
C729 C732 1.431 . S
C729 C749 1.449 . S
C730 C729 1.258 . S
C730 C731 1.477 . S
C730 H750 0.931 . S
C731 C727 1.460 . S
C731 C730 1.477 . S
C731 H751 0.930 . S
C732 N728 1.362 . S
C732 C729 1.431 . S
C732 C742 1.476 . S
H733 C727 0.929 . S
C734 O725 1.250 . S
C734 O726 1.258 . S
O735 Mn720 2.162 . S
O735 C723 1.281 . S
O736 Mn720 2.297 . S
O736 C723 1.236 . S
N737 Mn721 2.282 . S
N737 C738 1.328 . S
N737 C742 1.318 . S
C738 N737 1.328 . S
C738 C739 1.457 . S
C738 H743 0.929 . S
C739 C738 1.457 . S
C739 C740 1.291 . S
C739 H752 0.931 . S
C740 C739 1.291 . S
C740 C741 1.373 . S
C740 H753 0.929 . S
C741 C740 1.373 . S
C741 C742 1.396 . S
C741 C748 1.403 . S
C742 C732 1.476 . S
C742 N737 1.318 . S
C742 C741 1.396 . S
H743 C738 0.929 . S
O744 Mn720 2.385 . S
O744 C722 1.234 . S
O745 Mn720 2.209 . S
O745 Mn721 2.215 . S
O745 C722 1.283 . S
O746 Mn720 2.094 . S
O746 C724 1.240 . S
O747 Mn721 2.117 . S
O747 C724 1.264 . S
C748 C741 1.403 . S
C748 C749 1.399 . S
C748 H754 0.929 1_554 S
C749 C729 1.449 . S
C749 C748 1.399 . S
C749 H755 0.930 . S
H750 C730 0.931 . S
H751 C731 0.930 . S
H752 C739 0.931 . S
H753 C740 0.929 . S
H754 C748 0.929 1_556 S
H755 C749 0.930 . S
Mn756 O761 2.095 . S
Mn756 O771 2.162 . S
Mn756 O772 2.297 . S
Mn756 O780 2.385 . S
Mn756 O781 2.209 . S
Mn756 O782 2.094 . S
Mn757 O762 2.121 . S
Mn757 N764 2.257 . S
Mn757 N773 2.282 . S
Mn757 O781 2.215 . S
Mn757 O783 2.117 . S
C758 O780 1.234 . S
C758 O781 1.283 . S
C759 O771 1.281 . S
C759 O772 1.236 . S
C760 O782 1.240 . S
C760 O783 1.264 . S
O761 Mn756 2.095 . S
O761 C770 1.250 . S
O762 Mn757 2.121 . S
O762 C770 1.258 . S
C763 N764 1.326 . S
C763 C767 1.460 . S
C763 H769 0.929 . S
N764 Mn757 2.257 . S
N764 C763 1.326 . S
N764 C768 1.362 . S
C765 C766 1.258 . S
C765 C768 1.431 . S
C765 C785 1.449 . S
C766 C765 1.258 . S
C766 C767 1.477 . S
C766 H786 0.931 . S
C767 C763 1.460 . S
C767 C766 1.477 . S
C767 H787 0.930 . S
C768 N764 1.362 . S
C768 C765 1.431 . S
C768 C778 1.476 . S
H769 C763 0.929 . S
C770 O761 1.250 . S
C770 O762 1.258 . S
O771 Mn756 2.162 . S
O771 C759 1.281 . S
O772 Mn756 2.297 . S
O772 C759 1.236 . S
N773 Mn757 2.282 . S
N773 C774 1.328 . S
N773 C778 1.318 . S
C774 N773 1.328 . S
C774 C775 1.457 . S
C774 H779 0.929 . S
C775 C774 1.457 . S
C775 C776 1.291 . S
C775 H788 0.931 . S
C776 C775 1.291 . S
C776 C777 1.373 . S
C776 H789 0.929 . S
C777 C776 1.373 . S
C777 C778 1.396 . S
C777 C784 1.403 . S
C778 C768 1.476 . S
C778 N773 1.318 . S
C778 C777 1.396 . S
H779 C774 0.929 . S
O780 Mn756 2.385 . S
O780 C758 1.234 . S
O781 Mn756 2.209 . S
O781 Mn757 2.215 . S
O781 C758 1.283 . S
O782 Mn756 2.094 . S
O782 C760 1.240 . S
O783 Mn757 2.117 . S
O783 C760 1.264 . S
C784 C777 1.403 . S
C784 C785 1.399 . S
C784 H790 0.929 . S
C785 C765 1.449 . S
C785 C784 1.399 . S
C785 H791 0.930 . S
H786 C766 0.931 . S
H787 C767 0.930 . S
H788 C775 0.931 . S
H789 C776 0.929 . S
H790 C784 0.929 . S
H791 C785 0.930 . S
Mn792 O797 2.095 . S
Mn792 O807 2.162 . S
Mn792 O808 2.297 . S
Mn792 O816 2.385 . S
Mn792 O817 2.209 . S
Mn792 O818 2.094 . S
Mn793 O798 2.121 . S
Mn793 N800 2.257 . S
Mn793 N809 2.282 . S
Mn793 O817 2.215 . S
Mn793 O819 2.117 . S
C794 O816 1.234 . S
C794 O817 1.283 . S
C795 O807 1.281 . S
C795 O808 1.236 . S
C796 O818 1.240 . S
C796 O819 1.264 . S
O797 Mn792 2.095 . S
O797 C806 1.250 . S
O798 Mn793 2.121 . S
O798 C806 1.258 . S
C799 N800 1.326 . S
C799 C803 1.460 . S
C799 H805 0.929 . S
N800 Mn793 2.257 . S
N800 C799 1.326 . S
N800 C804 1.362 . S
C801 C802 1.258 . S
C801 C804 1.431 . S
C801 C821 1.449 . S
C802 C801 1.258 . S
C802 C803 1.477 . S
C802 H822 0.931 . S
C803 C799 1.460 . S
C803 C802 1.477 . S
C803 H823 0.930 . S
C804 N800 1.362 . S
C804 C801 1.431 . S
C804 C814 1.476 . S
H805 C799 0.929 . S
C806 O797 1.250 . S
C806 O798 1.258 . S
O807 Mn792 2.162 . S
O807 C795 1.281 . S
O808 Mn792 2.297 . S
O808 C795 1.236 . S
N809 Mn793 2.282 . S
N809 C810 1.328 . S
N809 C814 1.318 . S
C810 N809 1.328 . S
C810 C811 1.457 . S
C810 H815 0.929 . S
C811 C810 1.457 . S
C811 C812 1.291 . S
C811 H824 0.931 . S
C812 C811 1.291 . S
C812 C813 1.373 . S
C812 H825 0.929 . S
C813 C812 1.373 . S
C813 C814 1.396 . S
C813 C820 1.403 . S
C814 C804 1.476 . S
C814 N809 1.318 . S
C814 C813 1.396 . S
H815 C810 0.929 . S
O816 Mn792 2.385 . S
O816 C794 1.234 . S
O817 Mn792 2.209 . S
O817 Mn793 2.215 . S
O817 C794 1.283 . S
O818 Mn792 2.094 . S
O818 C796 1.240 . S
O819 Mn793 2.117 . S
O819 C796 1.264 . S
C820 C813 1.403 . S
C820 C821 1.399 . S
C820 H826 0.929 1_554 S
C821 C801 1.449 . S
C821 C820 1.399 . S
C821 H827 0.930 . S
H822 C802 0.931 . S
H823 C803 0.930 . S
H824 C811 0.931 . S
H825 C812 0.929 . S
H826 C820 0.929 1_556 S
H827 C821 0.930 . S
Mn828 O833 2.095 . S
Mn828 O843 2.162 . S
Mn828 O844 2.297 . S
Mn828 O852 2.385 . S
Mn828 O853 2.209 . S
Mn828 O854 2.094 . S
Mn829 O834 2.121 . S
Mn829 N836 2.257 . S
Mn829 N845 2.282 . S
Mn829 O853 2.215 . S
Mn829 O855 2.117 . S
C830 O852 1.234 . S
C830 O853 1.283 . S
C831 O843 1.281 . S
C831 O844 1.236 . S
C832 O854 1.240 . S
C832 O855 1.264 . S
O833 Mn828 2.095 . S
O833 C842 1.250 . S
O834 Mn829 2.121 . S
O834 C842 1.258 . S
C835 N836 1.326 . S
C835 C839 1.460 . S
C835 H841 0.929 . S
N836 Mn829 2.257 . S
N836 C835 1.326 . S
N836 C840 1.362 . S
C837 C838 1.258 . S
C837 C840 1.431 . S
C837 C857 1.449 . S
C838 C837 1.258 . S
C838 C839 1.477 . S
C838 H858 0.931 . S
C839 C835 1.460 . S
C839 C838 1.477 . S
C839 H859 0.930 . S
C840 N836 1.362 . S
C840 C837 1.431 . S
C840 C850 1.476 . S
H841 C835 0.929 . S
C842 O833 1.250 . S
C842 O834 1.258 . S
O843 Mn828 2.162 . S
O843 C831 1.281 . S
O844 Mn828 2.297 . S
O844 C831 1.236 . S
N845 Mn829 2.282 . S
N845 C846 1.328 . S
N845 C850 1.318 . S
C846 N845 1.328 . S
C846 C847 1.457 . S
C846 H851 0.929 . S
C847 C846 1.457 . S
C847 C848 1.291 . S
C847 H860 0.931 . S
C848 C847 1.291 . S
C848 C849 1.373 . S
C848 H861 0.929 . S
C849 C848 1.373 . S
C849 C850 1.396 . S
C849 C856 1.403 . S
C850 C840 1.476 . S
C850 N845 1.318 . S
C850 C849 1.396 . S
H851 C846 0.929 . S
O852 Mn828 2.385 . S
O852 C830 1.234 . S
O853 Mn828 2.209 . S
O853 Mn829 2.215 . S
O853 C830 1.283 . S
O854 Mn828 2.094 . S
O854 C832 1.240 . S
O855 Mn829 2.117 . S
O855 C832 1.264 . S
C856 C849 1.403 . S
C856 C857 1.399 . S
C856 H862 0.929 . S
C857 C837 1.449 . S
C857 C856 1.399 . S
C857 H863 0.930 . S
H858 C838 0.931 . S
H859 C839 0.930 . S
H860 C847 0.931 . S
H861 C848 0.929 . S
H862 C856 0.929 . S
H863 C857 0.930 . S
Mn864 O869 2.095 . S
Mn864 O879 2.162 . S
Mn864 O880 2.297 . S
Mn864 O888 2.385 . S
Mn864 O889 2.209 . S
Mn864 O890 2.094 . S
Mn865 O870 2.121 . S
Mn865 N872 2.257 . S
Mn865 N881 2.282 . S
Mn865 O889 2.215 . S
Mn865 O891 2.117 . S
C866 O888 1.234 . S
C866 O889 1.283 . S
C867 O879 1.281 . S
C867 O880 1.236 . S
C868 O890 1.240 . S
C868 O891 1.264 . S
O869 Mn864 2.095 . S
O869 C878 1.250 . S
O870 Mn865 2.121 . S
O870 C878 1.258 . S
C871 N872 1.326 . S
C871 C875 1.460 . S
C871 H877 0.929 . S
N872 Mn865 2.257 . S
N872 C871 1.326 . S
N872 C876 1.362 . S
C873 C874 1.258 . S
C873 C876 1.431 . S
C873 C893 1.449 . S
C874 C873 1.258 . S
C874 C875 1.477 . S
C874 H894 0.931 . S
C875 C871 1.460 . S
C875 C874 1.477 . S
C875 H895 0.930 . S
C876 N872 1.362 . S
C876 C873 1.431 . S
C876 C886 1.476 . S
H877 C871 0.929 . S
C878 O869 1.250 . S
C878 O870 1.258 . S
O879 Mn864 2.162 . S
O879 C867 1.281 . S
O880 Mn864 2.297 . S
O880 C867 1.236 . S
N881 Mn865 2.282 . S
N881 C882 1.328 . S
N881 C886 1.318 . S
C882 N881 1.328 . S
C882 C883 1.457 . S
C882 H887 0.929 . S
C883 C882 1.457 . S
C883 C884 1.291 . S
C883 H896 0.931 . S
C884 C883 1.291 . S
C884 C885 1.373 . S
C884 H897 0.929 1_554 S
C885 C884 1.373 . S
C885 C886 1.396 . S
C885 C892 1.403 . S
C886 C876 1.476 . S
C886 N881 1.318 . S
C886 C885 1.396 . S
H887 C882 0.929 . S
O888 Mn864 2.385 . S
O888 C866 1.234 . S
O889 Mn864 2.209 . S
O889 Mn865 2.215 . S
O889 C866 1.283 . S
O890 Mn864 2.094 . S
O890 C868 1.240 . S
O891 Mn865 2.117 . S
O891 C868 1.264 . S
C892 C885 1.403 . S
C892 C893 1.399 . S
C892 H898 0.929 1_554 S
C893 C873 1.449 . S
C893 C892 1.399 . S
C893 H899 0.930 . S
H894 C874 0.931 . S
H895 C875 0.930 . S
H896 C883 0.931 . S
H897 C884 0.929 1_556 S
H898 C892 0.929 1_556 S
H899 C893 0.930 . S
Mn900 O905 2.095 . S
Mn900 O915 2.162 . S
Mn900 O916 2.297 . S
Mn900 O924 2.385 . S
Mn900 O925 2.209 . S
Mn900 O926 2.094 . S
Mn901 O906 2.121 . S
Mn901 N908 2.257 . S
Mn901 N917 2.282 . S
Mn901 O925 2.215 . S
Mn901 O927 2.117 . S
C902 O924 1.234 . S
C902 O925 1.283 . S
C903 O915 1.281 . S
C903 O916 1.236 . S
C904 O926 1.240 . S
C904 O927 1.264 . S
O905 Mn900 2.095 . S
O905 C914 1.250 . S
O906 Mn901 2.121 . S
O906 C914 1.258 . S
C907 N908 1.326 . S
C907 C911 1.460 . S
C907 H913 0.929 . S
N908 Mn901 2.257 . S
N908 C907 1.326 . S
N908 C912 1.362 . S
C909 C910 1.258 . S
C909 C912 1.431 . S
C909 C929 1.449 . S
C910 C909 1.258 . S
C910 C911 1.477 . S
C910 H930 0.931 . S
C911 C907 1.460 . S
C911 C910 1.477 . S
C911 H931 0.930 . S
C912 N908 1.362 . S
C912 C909 1.431 . S
C912 C922 1.476 . S
H913 C907 0.929 . S
C914 O905 1.250 . S
C914 O906 1.258 . S
O915 Mn900 2.162 . S
O915 C903 1.281 . S
O916 Mn900 2.297 . S
O916 C903 1.236 . S
N917 Mn901 2.282 . S
N917 C918 1.328 . S
N917 C922 1.318 . S
C918 N917 1.328 . S
C918 C919 1.457 . S
C918 H923 0.929 . S
C919 C918 1.457 . S
C919 C920 1.291 . S
C919 H932 0.931 . S
C920 C919 1.291 . S
C920 C921 1.373 . S
C920 H933 0.929 . S
C921 C920 1.373 . S
C921 C922 1.396 . S
C921 C928 1.403 . S
C922 C912 1.476 . S
C922 N917 1.318 . S
C922 C921 1.396 . S
H923 C918 0.929 . S
O924 Mn900 2.385 . S
O924 C902 1.234 . S
O925 Mn900 2.209 . S
O925 Mn901 2.215 . S
O925 C902 1.283 . S
O926 Mn900 2.094 . S
O926 C904 1.240 . S
O927 Mn901 2.117 . S
O927 C904 1.264 . S
C928 C921 1.403 . S
C928 C929 1.399 . S
C928 H934 0.929 . S
C929 C909 1.449 . S
C929 C928 1.399 . S
C929 H935 0.930 . S
H930 C910 0.931 . S
H931 C911 0.930 . S
H932 C919 0.931 . S
H933 C920 0.929 . S
H934 C928 0.929 . S
H935 C929 0.930 . S
Mn936 O941 2.095 . S
Mn936 O951 2.162 . S
Mn936 O952 2.297 . S
Mn936 O960 2.385 . S
Mn936 O961 2.209 . S
Mn936 O962 2.094 . S
Mn937 O942 2.121 . S
Mn937 N944 2.257 . S
Mn937 N953 2.282 . S
Mn937 O961 2.215 . S
Mn937 O963 2.117 . S
C938 O960 1.234 . S
C938 O961 1.283 . S
C939 O951 1.281 . S
C939 O952 1.236 . S
C940 O962 1.240 . S
C940 O963 1.264 . S
O941 Mn936 2.095 . S
O941 C950 1.250 . S
O942 Mn937 2.121 . S
O942 C950 1.258 . S
C943 N944 1.326 . S
C943 C947 1.460 . S
C943 H949 0.929 . S
N944 Mn937 2.257 . S
N944 C943 1.326 . S
N944 C948 1.362 . S
C945 C946 1.258 . S
C945 C948 1.431 . S
C945 C965 1.449 . S
C946 C945 1.258 . S
C946 C947 1.477 . S
C946 H966 0.931 . S
C947 C943 1.460 . S
C947 C946 1.477 . S
C947 H967 0.930 . S
C948 N944 1.362 . S
C948 C945 1.431 . S
C948 C958 1.476 . S
H949 C943 0.929 . S
C950 O941 1.250 . S
C950 O942 1.258 . S
O951 Mn936 2.162 . S
O951 C939 1.281 . S
O952 Mn936 2.297 . S
O952 C939 1.236 . S
N953 Mn937 2.282 . S
N953 C954 1.328 . S
N953 C958 1.318 . S
C954 N953 1.328 . S
C954 C955 1.457 . S
C954 H959 0.929 . S
C955 C954 1.457 . S
C955 C956 1.291 . S
C955 H968 0.931 . S
C956 C955 1.291 . S
C956 C957 1.373 . S
C956 H969 0.929 1_554 S
C957 C956 1.373 . S
C957 C958 1.396 . S
C957 C964 1.403 . S
C958 C948 1.476 . S
C958 N953 1.318 . S
C958 C957 1.396 . S
H959 C954 0.929 . S
O960 Mn936 2.385 . S
O960 C938 1.234 . S
O961 Mn936 2.209 . S
O961 Mn937 2.215 . S
O961 C938 1.283 . S
O962 Mn936 2.094 . S
O962 C940 1.240 . S
O963 Mn937 2.117 . S
O963 C940 1.264 . S
C964 C957 1.403 . S
C964 C965 1.399 . S
C964 H970 0.929 1_554 S
C965 C945 1.449 . S
C965 C964 1.399 . S
C965 H971 0.930 . S
H966 C946 0.931 . S
H967 C947 0.930 . S
H968 C955 0.931 . S
H969 C956 0.929 1_556 S
H970 C964 0.929 1_556 S
H971 C965 0.930 . S
Mn972 O977 2.095 . S
Mn972 O987 2.162 . S
Mn972 O988 2.297 . S
Mn972 O996 2.385 . S
Mn972 O997 2.209 . S
Mn972 O998 2.094 . S
Mn973 O978 2.121 . S
Mn973 N980 2.257 . S
Mn973 N989 2.282 . S
Mn973 O997 2.215 . S
Mn973 O999 2.117 . S
C974 O996 1.234 . S
C974 O997 1.283 . S
C975 O987 1.281 . S
C975 O988 1.236 . S
C976 O998 1.240 . S
C976 O999 1.264 . S
O977 Mn972 2.095 . S
O977 C986 1.250 . S
O978 Mn973 2.121 . S
O978 C986 1.258 . S
C979 N980 1.326 . S
C979 C983 1.460 . S
C979 H985 0.929 . S
N980 Mn973 2.257 . S
N980 C979 1.326 . S
N980 C984 1.362 . S
C981 C982 1.258 . S
C981 C984 1.431 . S
C981 C1001 1.449 . S
C982 C981 1.258 . S
C982 C983 1.477 . S
C982 H1002 0.931 . S
C983 C979 1.460 . S
C983 C982 1.477 . S
C983 H1003 0.930 . S
C984 N980 1.362 . S
C984 C981 1.431 . S
C984 C994 1.476 . S
H985 C979 0.929 . S
C986 O977 1.250 . S
C986 O978 1.258 . S
O987 Mn972 2.162 . S
O987 C975 1.281 . S
O988 Mn972 2.297 . S
O988 C975 1.236 . S
N989 Mn973 2.282 . S
N989 C990 1.328 . S
N989 C994 1.318 . S
C990 N989 1.328 . S
C990 C991 1.457 . S
C990 H995 0.929 . S
C991 C990 1.457 . S
C991 C992 1.291 . S
C991 H1004 0.931 . S
C992 C991 1.291 . S
C992 C993 1.373 . S
C992 H1005 0.929 . S
C993 C992 1.373 . S
C993 C994 1.396 . S
C993 C1000 1.403 . S
C994 C984 1.476 . S
C994 N989 1.318 . S
C994 C993 1.396 . S
H995 C990 0.929 . S
O996 Mn972 2.385 . S
O996 C974 1.234 . S
O997 Mn972 2.209 . S
O997 Mn973 2.215 . S
O997 C974 1.283 . S
O998 Mn972 2.094 . S
O998 C976 1.240 . S
O999 Mn973 2.117 . S
O999 C976 1.264 . S
C1000 C993 1.403 . S
C1000 C1001 1.399 . S
C1000 H1006 0.929 . S
C1001 C981 1.449 . S
C1001 C1000 1.399 . S
C1001 H1007 0.930 . S
H1002 C982 0.931 . S
H1003 C983 0.930 . S
H1004 C991 0.931 . S
H1005 C992 0.929 . S
H1006 C1000 0.929 . S
H1007 C1001 0.930 . S
Mn1008 O1013 2.095 . S
Mn1008 O1023 2.162 . S
Mn1008 O1024 2.297 . S
Mn1008 O1032 2.385 . S
Mn1008 O1033 2.209 . S
Mn1008 O1034 2.094 . S
Mn1009 O1014 2.121 . S
Mn1009 N1016 2.257 . S
Mn1009 N1025 2.282 . S
Mn1009 O1033 2.215 . S
Mn1009 O1035 2.117 . S
C1010 O1032 1.234 . S
C1010 O1033 1.283 . S
C1011 O1023 1.281 . S
C1011 O1024 1.236 . S
C1012 O1034 1.240 . S
C1012 O1035 1.264 . S
O1013 Mn1008 2.095 . S
O1013 C1022 1.250 . S
O1014 Mn1009 2.121 . S
O1014 C1022 1.258 . S
C1015 N1016 1.326 . S
C1015 C1019 1.460 . S
C1015 H1021 0.929 . S
N1016 Mn1009 2.257 . S
N1016 C1015 1.326 . S
N1016 C1020 1.362 . S
C1017 C1018 1.258 . S
C1017 C1020 1.431 . S
C1017 C1037 1.449 . S
C1018 C1017 1.258 . S
C1018 C1019 1.477 . S
C1018 H1038 0.931 . S
C1019 C1015 1.460 . S
C1019 C1018 1.477 . S
C1019 H1039 0.930 . S
C1020 N1016 1.362 . S
C1020 C1017 1.431 . S
C1020 C1030 1.476 . S
H1021 C1015 0.929 . S
C1022 O1013 1.250 . S
C1022 O1014 1.258 . S
O1023 Mn1008 2.162 . S
O1023 C1011 1.281 . S
O1024 Mn1008 2.297 . S
O1024 C1011 1.236 . S
N1025 Mn1009 2.282 . S
N1025 C1026 1.328 . S
N1025 C1030 1.318 . S
C1026 N1025 1.328 . S
C1026 C1027 1.457 . S
C1026 H1031 0.929 . S
C1027 C1026 1.457 . S
C1027 C1028 1.291 . S
C1027 H1040 0.931 . S
C1028 C1027 1.291 . S
C1028 C1029 1.373 . S
C1028 H1041 0.929 1_556 S
C1029 C1028 1.373 . S
C1029 C1030 1.396 . S
C1029 C1036 1.403 . S
C1030 C1020 1.476 . S
C1030 N1025 1.318 . S
C1030 C1029 1.396 . S
H1031 C1026 0.929 . S
O1032 Mn1008 2.385 . S
O1032 C1010 1.234 . S
O1033 Mn1008 2.209 . S
O1033 Mn1009 2.215 . S
O1033 C1010 1.283 . S
O1034 Mn1008 2.094 . S
O1034 C1012 1.240 . S
O1035 Mn1009 2.117 . S
O1035 C1012 1.264 . S
C1036 C1029 1.403 . S
C1036 C1037 1.399 . S
C1036 H1042 0.929 1_556 S
C1037 C1017 1.449 . S
C1037 C1036 1.399 . S
C1037 H1043 0.930 . S
H1038 C1018 0.931 . S
H1039 C1019 0.930 . S
H1040 C1027 0.931 . S
H1041 C1028 0.929 1_554 S
H1042 C1036 0.929 1_554 S
H1043 C1037 0.930 . S
Mn1044 O1049 2.095 . S
Mn1044 O1059 2.162 . S
Mn1044 O1060 2.297 . S
Mn1044 O1068 2.385 . S
Mn1044 O1069 2.209 . S
Mn1044 O1070 2.094 . S
Mn1045 O1050 2.121 . S
Mn1045 N1052 2.257 . S
Mn1045 N1061 2.282 . S
Mn1045 O1069 2.215 . S
Mn1045 O1071 2.117 . S
C1046 O1068 1.234 . S
C1046 O1069 1.283 . S
C1047 O1059 1.281 . S
C1047 O1060 1.236 . S
C1048 O1070 1.240 . S
C1048 O1071 1.264 . S
O1049 Mn1044 2.095 . S
O1049 C1058 1.250 . S
O1050 Mn1045 2.121 . S
O1050 C1058 1.258 . S
C1051 N1052 1.326 . S
C1051 C1055 1.460 . S
C1051 H1057 0.929 . S
N1052 Mn1045 2.257 . S
N1052 C1051 1.326 . S
N1052 C1056 1.362 . S
C1053 C1054 1.258 . S
C1053 C1056 1.431 . S
C1053 C1073 1.449 . S
C1054 C1053 1.258 . S
C1054 C1055 1.477 . S
C1054 H1074 0.931 . S
C1055 C1051 1.460 . S
C1055 C1054 1.477 . S
C1055 H1075 0.930 . S
C1056 N1052 1.362 . S
C1056 C1053 1.431 . S
C1056 C1066 1.476 . S
H1057 C1051 0.929 . S
C1058 O1049 1.250 . S
C1058 O1050 1.258 . S
O1059 Mn1044 2.162 . S
O1059 C1047 1.281 . S
O1060 Mn1044 2.297 . S
O1060 C1047 1.236 . S
N1061 Mn1045 2.282 . S
N1061 C1062 1.328 . S
N1061 C1066 1.318 . S
C1062 N1061 1.328 . S
C1062 C1063 1.457 . S
C1062 H1067 0.929 . S
C1063 C1062 1.457 . S
C1063 C1064 1.291 . S
C1063 H1076 0.931 . S
C1064 C1063 1.291 . S
C1064 C1065 1.373 . S
C1064 H1077 0.929 . S
C1065 C1064 1.373 . S
C1065 C1066 1.396 . S
C1065 C1072 1.403 . S
C1066 C1056 1.476 . S
C1066 N1061 1.318 . S
C1066 C1065 1.396 . S
H1067 C1062 0.929 . S
O1068 Mn1044 2.385 . S
O1068 C1046 1.234 . S
O1069 Mn1044 2.209 . S
O1069 Mn1045 2.215 . S
O1069 C1046 1.283 . S
O1070 Mn1044 2.094 . S
O1070 C1048 1.240 . S
O1071 Mn1045 2.117 . S
O1071 C1048 1.264 . S
C1072 C1065 1.403 . S
C1072 C1073 1.399 . S
C1072 H1078 0.929 . S
C1073 C1053 1.449 . S
C1073 C1072 1.399 . S
C1073 H1079 0.930 . S
H1074 C1054 0.931 . S
H1075 C1055 0.930 . S
H1076 C1063 0.931 . S
H1077 C1064 0.929 . S
H1078 C1072 0.929 . S
H1079 C1073 0.930 . S
Mn1080 O1085 2.095 . S
Mn1080 O1095 2.162 . S
Mn1080 O1096 2.297 . S
Mn1080 O1104 2.385 . S
Mn1080 O1105 2.209 . S
Mn1080 O1106 2.094 . S
Mn1081 O1086 2.121 . S
Mn1081 N1088 2.257 . S
Mn1081 N1097 2.282 . S
Mn1081 O1105 2.215 . S
Mn1081 O1107 2.117 . S
C1082 O1104 1.234 . S
C1082 O1105 1.283 . S
C1083 O1095 1.281 . S
C1083 O1096 1.236 . S
C1084 O1106 1.240 . S
C1084 O1107 1.264 . S
O1085 Mn1080 2.095 . S
O1085 C1094 1.250 . S
O1086 Mn1081 2.121 . S
O1086 C1094 1.258 . S
C1087 N1088 1.326 . S
C1087 C1091 1.460 . S
C1087 H1093 0.929 . S
N1088 Mn1081 2.257 . S
N1088 C1087 1.326 . S
N1088 C1092 1.362 . S
C1089 C1090 1.258 . S
C1089 C1092 1.431 . S
C1089 C1109 1.449 . S
C1090 C1089 1.258 . S
C1090 C1091 1.477 . S
C1090 H1110 0.931 . S
C1091 C1087 1.460 . S
C1091 C1090 1.477 . S
C1091 H1111 0.930 . S
C1092 N1088 1.362 . S
C1092 C1089 1.431 . S
C1092 C1102 1.476 . S
H1093 C1087 0.929 . S
C1094 O1085 1.250 . S
C1094 O1086 1.258 . S
O1095 Mn1080 2.162 . S
O1095 C1083 1.281 . S
O1096 Mn1080 2.297 . S
O1096 C1083 1.236 . S
N1097 Mn1081 2.282 . S
N1097 C1098 1.328 . S
N1097 C1102 1.318 . S
C1098 N1097 1.328 . S
C1098 C1099 1.457 . S
C1098 H1103 0.929 . S
C1099 C1098 1.457 . S
C1099 C1100 1.291 . S
C1099 H1112 0.931 . S
C1100 C1099 1.291 . S
C1100 C1101 1.373 . S
C1100 H1113 0.929 1_556 S
C1101 C1100 1.373 . S
C1101 C1102 1.396 . S
C1101 C1108 1.403 . S
C1102 C1092 1.476 . S
C1102 N1097 1.318 . S
C1102 C1101 1.396 . S
H1103 C1098 0.929 . S
O1104 Mn1080 2.385 . S
O1104 C1082 1.234 . S
O1105 Mn1080 2.209 . S
O1105 Mn1081 2.215 . S
O1105 C1082 1.283 . S
O1106 Mn1080 2.094 . S
O1106 C1084 1.240 . S
O1107 Mn1081 2.117 . S
O1107 C1084 1.264 . S
C1108 C1101 1.403 . S
C1108 C1109 1.399 . S
C1108 H1114 0.929 1_556 S
C1109 C1089 1.449 . S
C1109 C1108 1.399 . S
C1109 H1115 0.930 . S
H1110 C1090 0.931 . S
H1111 C1091 0.930 . S
H1112 C1099 0.931 . S
H1113 C1100 0.929 1_554 S
H1114 C1108 0.929 1_554 S
H1115 C1109 0.930 . S
Mn1116 O1121 2.095 . S
Mn1116 O1131 2.162 . S
Mn1116 O1132 2.297 . S
Mn1116 O1140 2.385 . S
Mn1116 O1141 2.209 . S
Mn1116 O1142 2.094 . S
Mn1117 O1122 2.121 . S
Mn1117 N1124 2.257 . S
Mn1117 N1133 2.282 . S
Mn1117 O1141 2.215 . S
Mn1117 O1143 2.117 . S
C1118 O1140 1.234 . S
C1118 O1141 1.283 . S
C1119 O1131 1.281 . S
C1119 O1132 1.236 . S
C1120 O1142 1.240 . S
C1120 O1143 1.264 . S
O1121 Mn1116 2.095 . S
O1121 C1130 1.250 . S
O1122 Mn1117 2.121 . S
O1122 C1130 1.258 . S
C1123 N1124 1.326 . S
C1123 C1127 1.460 . S
C1123 H1129 0.929 . S
N1124 Mn1117 2.257 . S
N1124 C1123 1.326 . S
N1124 C1128 1.362 . S
C1125 C1126 1.258 . S
C1125 C1128 1.431 . S
C1125 C1145 1.449 . S
C1126 C1125 1.258 . S
C1126 C1127 1.477 . S
C1126 H1146 0.931 . S
C1127 C1123 1.460 . S
C1127 C1126 1.477 . S
C1127 H1147 0.930 . S
C1128 N1124 1.362 . S
C1128 C1125 1.431 . S
C1128 C1138 1.476 . S
H1129 C1123 0.929 . S
C1130 O1121 1.250 . S
C1130 O1122 1.258 . S
O1131 Mn1116 2.162 . S
O1131 C1119 1.281 . S
O1132 Mn1116 2.297 . S
O1132 C1119 1.236 . S
N1133 Mn1117 2.282 . S
N1133 C1134 1.328 . S
N1133 C1138 1.318 . S
C1134 N1133 1.328 . S
C1134 C1135 1.457 . S
C1134 H1139 0.929 . S
C1135 C1134 1.457 . S
C1135 C1136 1.291 . S
C1135 H1148 0.931 . S
C1136 C1135 1.291 . S
C1136 C1137 1.373 . S
C1136 H1149 0.929 . S
C1137 C1136 1.373 . S
C1137 C1138 1.396 . S
C1137 C1144 1.403 . S
C1138 C1128 1.476 . S
C1138 N1133 1.318 . S
C1138 C1137 1.396 . S
H1139 C1134 0.929 . S
O1140 Mn1116 2.385 . S
O1140 C1118 1.234 . S
O1141 Mn1116 2.209 . S
O1141 Mn1117 2.215 . S
O1141 C1118 1.283 . S
O1142 Mn1116 2.094 . S
O1142 C1120 1.240 . S
O1143 Mn1117 2.117 . S
O1143 C1120 1.264 . S
C1144 C1137 1.403 . S
C1144 C1145 1.399 . S
C1144 H1150 0.929 . S
C1145 C1125 1.449 . S
C1145 C1144 1.399 . S
C1145 H1151 0.930 . S
H1146 C1126 0.931 . S
H1147 C1127 0.930 . S
H1148 C1135 0.931 . S
H1149 C1136 0.929 . S
H1150 C1144 0.929 . S
H1151 C1145 0.930 . S
H1152 C1158 0.930 . S
H1153 C1161 0.930 . S
H1154 C1162 0.930 . S
H1155 C1163 0.930 . S
H1156 C1166 0.930 . S
H1157 C1167 0.930 . S
C1158 H1152 0.930 . S
C1158 C1159 1.355 . S
C1158 C1160 1.415 . S
C1159 C1158 1.355 . S
C1159 C1161 1.419 . S
C1160 C1158 1.415 . S
C1160 C1165 1.425 . S
C1160 C1167 1.409 . S
C1161 H1153 0.930 . S
C1161 C1159 1.419 . S
C1161 C1162 1.362 . S
C1162 H1154 0.930 . S
C1162 C1161 1.362 . S
C1162 C1165 1.409 . S
C1163 H1155 0.930 . S
C1163 C1164 1.355 . S
C1163 C1165 1.415 . S
C1164 C1163 1.355 . S
C1164 C1166 1.419 . S
C1165 C1160 1.425 . S
C1165 C1162 1.409 . S
C1165 C1163 1.415 . S
C1166 H1156 0.930 . S
C1166 C1164 1.419 . S
C1166 C1167 1.362 . S
C1167 H1157 0.930 . S
C1167 C1160 1.409 . S
C1167 C1166 1.362 . S
H1168 C1174 0.930 . S
H1169 C1177 0.930 . S
H1170 C1178 0.930 . S
H1171 C1179 0.930 . S
H1172 C1182 0.930 . S
H1173 C1183 0.930 . S
C1174 H1168 0.930 . S
C1174 C1175 1.355 . S
C1174 C1176 1.415 . S
C1175 C1174 1.355 . S
C1175 C1177 1.419 . S
C1176 C1174 1.415 . S
C1176 C1181 1.425 . S
C1176 C1183 1.409 . S
C1177 H1169 0.930 . S
C1177 C1175 1.419 . S
C1177 C1178 1.362 . S
C1178 H1170 0.930 . S
C1178 C1177 1.362 . S
C1178 C1181 1.409 . S
C1179 H1171 0.930 . S
C1179 C1180 1.355 . S
C1179 C1181 1.415 . S
C1180 C1179 1.355 . S
C1180 C1182 1.419 . S
C1181 C1176 1.425 . S
C1181 C1178 1.409 . S
C1181 C1179 1.415 . S
C1182 H1172 0.930 . S
C1182 C1180 1.419 . S
C1182 C1183 1.362 . S
C1183 H1173 0.930 . S
C1183 C1176 1.409 . S
C1183 C1182 1.362 . S
H1184 C1190 0.930 . S
H1185 C1193 0.930 . S
H1186 C1194 0.930 . S
H1187 C1195 0.930 . S
H1188 C1198 0.930 . S
H1189 C1199 0.930 . S
C1190 H1184 0.930 . S
C1190 C1191 1.355 . S
C1190 C1192 1.415 . S
C1191 C1190 1.355 . S
C1191 C1193 1.419 . S
C1192 C1190 1.415 . S
C1192 C1197 1.425 . S
C1192 C1199 1.409 . S
C1193 H1185 0.930 . S
C1193 C1191 1.419 . S
C1193 C1194 1.362 . S
C1194 H1186 0.930 . S
C1194 C1193 1.362 . S
C1194 C1197 1.409 . S
C1195 H1187 0.930 . S
C1195 C1196 1.355 . S
C1195 C1197 1.415 . S
C1196 C1195 1.355 . S
C1196 C1198 1.419 . S
C1197 C1192 1.425 . S
C1197 C1194 1.409 . S
C1197 C1195 1.415 . S
C1198 H1188 0.930 . S
C1198 C1196 1.419 . S
C1198 C1199 1.362 . S
C1199 H1189 0.930 . S
C1199 C1192 1.409 . S
C1199 C1198 1.362 . S
H1200 C1206 0.930 . S
H1201 C1209 0.930 . S
H1202 C1210 0.930 . S
H1203 C1211 0.930 . S
H1204 C1214 0.930 . S
H1205 C1215 0.930 . S
C1206 H1200 0.930 . S
C1206 C1207 1.355 . S
C1206 C1208 1.415 . S
C1207 C1206 1.355 . S
C1207 C1209 1.419 . S
C1208 C1206 1.415 . S
C1208 C1213 1.425 . S
C1208 C1215 1.409 . S
C1209 H1201 0.930 . S
C1209 C1207 1.419 . S
C1209 C1210 1.362 . S
C1210 H1202 0.930 . S
C1210 C1209 1.362 . S
C1210 C1213 1.409 . S
C1211 H1203 0.930 . S
C1211 C1212 1.355 . S
C1211 C1213 1.415 . S
C1212 C1211 1.355 . S
C1212 C1214 1.419 . S
C1213 C1208 1.425 . S
C1213 C1210 1.409 . S
C1213 C1211 1.415 . S
C1214 H1204 0.930 . S
C1214 C1212 1.419 . S
C1214 C1215 1.362 . S
C1215 H1205 0.930 . S
C1215 C1208 1.409 . S
C1215 C1214 1.362 . S
H1216 C1222 0.930 . S
H1217 C1225 0.930 . S
H1218 C1226 0.930 . S
H1219 C1227 0.930 . S
H1220 C1230 0.930 . S
H1221 C1231 0.930 . S
C1222 H1216 0.930 . S
C1222 C1223 1.355 . S
C1222 C1224 1.415 . S
C1223 C1222 1.355 . S
C1223 C1225 1.419 . S
C1224 C1222 1.415 . S
C1224 C1229 1.425 . S
C1224 C1231 1.409 . S
C1225 H1217 0.930 . S
C1225 C1223 1.419 . S
C1225 C1226 1.362 . S
C1226 H1218 0.930 . S
C1226 C1225 1.362 . S
C1226 C1229 1.409 . S
C1227 H1219 0.930 . S
C1227 C1228 1.355 . S
C1227 C1229 1.415 . S
C1228 C1227 1.355 . S
C1228 C1230 1.419 . S
C1229 C1224 1.425 . S
C1229 C1226 1.409 . S
C1229 C1227 1.415 . S
C1230 H1220 0.930 . S
C1230 C1228 1.419 . S
C1230 C1231 1.362 . S
C1231 H1221 0.930 . S
C1231 C1224 1.409 . S
C1231 C1230 1.362 . S
H1232 C1238 0.930 . S
H1233 C1241 0.930 . S
H1234 C1242 0.930 . S
H1235 C1243 0.930 . S
H1236 C1246 0.930 . S
H1237 C1247 0.930 . S
C1238 H1232 0.930 . S
C1238 C1239 1.355 . S
C1238 C1240 1.415 . S
C1239 C1238 1.355 . S
C1239 C1241 1.419 . S
C1240 C1238 1.415 . S
C1240 C1245 1.425 . S
C1240 C1247 1.409 . S
C1241 H1233 0.930 . S
C1241 C1239 1.419 . S
C1241 C1242 1.362 . S
C1242 H1234 0.930 . S
C1242 C1241 1.362 . S
C1242 C1245 1.409 . S
C1243 H1235 0.930 . S
C1243 C1244 1.355 . S
C1243 C1245 1.415 . S
C1244 C1243 1.355 . S
C1244 C1246 1.419 . S
C1245 C1240 1.425 . S
C1245 C1242 1.409 . S
C1245 C1243 1.415 . S
C1246 H1236 0.930 . S
C1246 C1244 1.419 . S
C1246 C1247 1.362 . S
C1247 H1237 0.930 . S
C1247 C1240 1.409 . S
C1247 C1246 1.362 . S
H1248 C1254 0.930 . S
H1249 C1257 0.930 . S
H1250 C1258 0.930 . S
H1251 C1259 0.930 . S
H1252 C1262 0.930 . S
H1253 C1263 0.930 . S
C1254 H1248 0.930 . S
C1254 C1255 1.355 . S
C1254 C1256 1.415 . S
C1255 C1254 1.355 . S
C1255 C1257 1.419 . S
C1256 C1254 1.415 . S
C1256 C1261 1.425 . S
C1256 C1263 1.409 . S
C1257 H1249 0.930 . S
C1257 C1255 1.419 . S
C1257 C1258 1.362 . S
C1258 H1250 0.930 . S
C1258 C1257 1.362 . S
C1258 C1261 1.409 . S
C1259 H1251 0.930 . S
C1259 C1260 1.355 . S
C1259 C1261 1.415 . S
C1260 C1259 1.355 . S
C1260 C1262 1.419 . S
C1261 C1256 1.425 . S
C1261 C1258 1.409 . S
C1261 C1259 1.415 . S
C1262 H1252 0.930 . S
C1262 C1260 1.419 . S
C1262 C1263 1.362 . S
C1263 H1253 0.930 . S
C1263 C1256 1.409 . S
C1263 C1262 1.362 . S
H1264 C1270 0.930 . S
H1265 C1273 0.930 . S
H1266 C1274 0.930 . S
H1267 C1275 0.930 . S
H1268 C1278 0.930 . S
H1269 C1279 0.930 . S
C1270 H1264 0.930 . S
C1270 C1271 1.355 . S
C1270 C1272 1.415 . S
C1271 C1270 1.355 . S
C1271 C1273 1.419 . S
C1272 C1270 1.415 . S
C1272 C1277 1.425 . S
C1272 C1279 1.409 . S
C1273 H1265 0.930 . S
C1273 C1271 1.419 . S
C1273 C1274 1.362 . S
C1274 H1266 0.930 . S
C1274 C1273 1.362 . S
C1274 C1277 1.409 . S
C1275 H1267 0.930 . S
C1275 C1276 1.355 . S
C1275 C1277 1.415 . S
C1276 C1275 1.355 . S
C1276 C1278 1.419 . S
C1277 C1272 1.425 . S
C1277 C1274 1.409 . S
C1277 C1275 1.415 . S
C1278 H1268 0.930 . S
C1278 C1276 1.419 . S
C1278 C1279 1.362 . S
C1279 H1269 0.930 . S
C1279 C1272 1.409 . S
C1279 C1278 1.362 . S
H1280 C1286 0.930 . S
H1281 C1289 0.930 . S
H1282 C1290 0.930 . S
H1283 C1291 0.930 . S
H1284 C1294 0.930 . S
H1285 C1295 0.930 . S
C1286 H1280 0.930 . S
C1286 C1287 1.355 . S
C1286 C1288 1.415 . S
C1287 C1286 1.355 . S
C1287 C1289 1.419 . S
C1288 C1286 1.415 . S
C1288 C1293 1.425 . S
C1288 C1295 1.409 . S
C1289 H1281 0.930 . S
C1289 C1287 1.419 . S
C1289 C1290 1.362 . S
C1290 H1282 0.930 . S
C1290 C1289 1.362 . S
C1290 C1293 1.409 . S
C1291 H1283 0.930 . S
C1291 C1292 1.355 . S
C1291 C1293 1.415 . S
C1292 C1291 1.355 . S
C1292 C1294 1.419 . S
C1293 C1288 1.425 . S
C1293 C1290 1.409 . S
C1293 C1291 1.415 . S
C1294 H1284 0.930 . S
C1294 C1292 1.419 . S
C1294 C1295 1.362 . S
C1295 H1285 0.930 . S
C1295 C1288 1.409 . S
C1295 C1294 1.362 . S
H1296 C1302 0.930 . S
H1297 C1305 0.930 . S
H1298 C1306 0.930 . S
H1299 C1307 0.930 . S
H1300 C1310 0.930 . S
H1301 C1311 0.930 . S
C1302 H1296 0.930 . S
C1302 C1303 1.355 . S
C1302 C1304 1.415 . S
C1303 C1302 1.355 . S
C1303 C1305 1.419 . S
C1304 C1302 1.415 . S
C1304 C1309 1.425 . S
C1304 C1311 1.409 . S
C1305 H1297 0.930 . S
C1305 C1303 1.419 . S
C1305 C1306 1.362 . S
C1306 H1298 0.930 . S
C1306 C1305 1.362 . S
C1306 C1309 1.409 . S
C1307 H1299 0.930 . S
C1307 C1308 1.355 . S
C1307 C1309 1.415 . S
C1308 C1307 1.355 . S
C1308 C1310 1.419 . S
C1309 C1304 1.425 . S
C1309 C1306 1.409 . S
C1309 C1307 1.415 . S
C1310 H1300 0.930 . S
C1310 C1308 1.419 . S
C1310 C1311 1.362 . S
C1311 H1301 0.930 . S
C1311 C1304 1.409 . S
C1311 C1310 1.362 . S
H1312 C1318 0.930 . S
H1313 C1321 0.930 . S
H1314 C1322 0.930 . S
H1315 C1323 0.930 . S
H1316 C1326 0.930 . S
H1317 C1327 0.930 . S
C1318 H1312 0.930 . S
C1318 C1319 1.355 . S
C1318 C1320 1.415 . S
C1319 C1318 1.355 . S
C1319 C1321 1.419 . S
C1320 C1318 1.415 . S
C1320 C1325 1.425 . S
C1320 C1327 1.409 . S
C1321 H1313 0.930 . S
C1321 C1319 1.419 . S
C1321 C1322 1.362 . S
C1322 H1314 0.930 . S
C1322 C1321 1.362 . S
C1322 C1325 1.409 . S
C1323 H1315 0.930 . S
C1323 C1324 1.355 . S
C1323 C1325 1.415 . S
C1324 C1323 1.355 . S
C1324 C1326 1.419 . S
C1325 C1320 1.425 . S
C1325 C1322 1.409 . S
C1325 C1323 1.415 . S
C1326 H1316 0.930 . S
C1326 C1324 1.419 . S
C1326 C1327 1.362 . S
C1327 H1317 0.930 . S
C1327 C1320 1.409 . S
C1327 C1326 1.362 . S
H1328 C1334 0.930 . S
H1329 C1337 0.930 . S
H1330 C1338 0.930 . S
H1331 C1339 0.930 . S
H1332 C1342 0.930 . S
H1333 C1343 0.930 . S
C1334 H1328 0.930 . S
C1334 C1335 1.355 . S
C1334 C1336 1.415 . S
C1335 C1334 1.355 . S
C1335 C1337 1.419 . S
C1336 C1334 1.415 . S
C1336 C1341 1.425 . S
C1336 C1343 1.409 . S
C1337 H1329 0.930 . S
C1337 C1335 1.419 . S
C1337 C1338 1.362 . S
C1338 H1330 0.930 . S
C1338 C1337 1.362 . S
C1338 C1341 1.409 . S
C1339 H1331 0.930 . S
C1339 C1340 1.355 . S
C1339 C1341 1.415 . S
C1340 C1339 1.355 . S
C1340 C1342 1.419 . S
C1341 C1336 1.425 . S
C1341 C1338 1.409 . S
C1341 C1339 1.415 . S
C1342 H1332 0.930 . S
C1342 C1340 1.419 . S
C1342 C1343 1.362 . S
C1343 H1333 0.930 . S
C1343 C1336 1.409 . S
C1343 C1342 1.362 . S
H1344 C1350 0.930 . S
H1345 C1353 0.930 . S
H1346 C1354 0.930 . S
H1347 C1355 0.930 . S
H1348 C1358 0.930 . S
H1349 C1359 0.930 . S
C1350 H1344 0.930 . S
C1350 C1351 1.355 . S
C1350 C1352 1.415 . S
C1351 C1350 1.355 . S
C1351 C1353 1.419 . S
C1352 C1350 1.415 . S
C1352 C1357 1.425 . S
C1352 C1359 1.409 . S
C1353 H1345 0.930 . S
C1353 C1351 1.419 . S
C1353 C1354 1.362 . S
C1354 H1346 0.930 . S
C1354 C1353 1.362 . S
C1354 C1357 1.409 . S
C1355 H1347 0.930 . S
C1355 C1356 1.355 . S
C1355 C1357 1.415 . S
C1356 C1355 1.355 . S
C1356 C1358 1.419 . S
C1357 C1352 1.425 . S
C1357 C1354 1.409 . S
C1357 C1355 1.415 . S
C1358 H1348 0.930 . S
C1358 C1356 1.419 . S
C1358 C1359 1.362 . S
C1359 H1349 0.930 . S
C1359 C1352 1.409 . S
C1359 C1358 1.362 . S
H1360 C1366 0.930 . S
H1361 C1369 0.930 . S
H1362 C1370 0.930 . S
H1363 C1371 0.930 . S
H1364 C1374 0.930 . S
H1365 C1375 0.930 . S
C1366 H1360 0.930 . S
C1366 C1367 1.355 . S
C1366 C1368 1.415 . S
C1367 C1366 1.355 . S
C1367 C1369 1.419 . S
C1368 C1366 1.415 . S
C1368 C1373 1.425 . S
C1368 C1375 1.409 . S
C1369 H1361 0.930 . S
C1369 C1367 1.419 . S
C1369 C1370 1.362 . S
C1370 H1362 0.930 . S
C1370 C1369 1.362 . S
C1370 C1373 1.409 . S
C1371 H1363 0.930 . S
C1371 C1372 1.355 . S
C1371 C1373 1.415 . S
C1372 C1371 1.355 . S
C1372 C1374 1.419 . S
C1373 C1368 1.425 . S
C1373 C1370 1.409 . S
C1373 C1371 1.415 . S
C1374 H1364 0.930 . S
C1374 C1372 1.419 . S
C1374 C1375 1.362 . S
C1375 H1365 0.930 . S
C1375 C1368 1.409 . S
C1375 C1374 1.362 . S
H1376 C1382 0.930 . S
H1377 C1385 0.930 . S
H1378 C1386 0.930 . S
H1379 C1387 0.930 . S
H1380 C1390 0.930 . S
H1381 C1391 0.930 . S
C1382 H1376 0.930 . S
C1382 C1383 1.355 . S
C1382 C1384 1.415 . S
C1383 C1382 1.355 . S
C1383 C1385 1.419 . S
C1384 C1382 1.415 . S
C1384 C1389 1.425 . S
C1384 C1391 1.409 . S
C1385 H1377 0.930 . S
C1385 C1383 1.419 . S
C1385 C1386 1.362 . S
C1386 H1378 0.930 . S
C1386 C1385 1.362 . S
C1386 C1389 1.409 . S
C1387 H1379 0.930 . S
C1387 C1388 1.355 . S
C1387 C1389 1.415 . S
C1388 C1387 1.355 . S
C1388 C1390 1.419 . S
C1389 C1384 1.425 . S
C1389 C1386 1.409 . S
C1389 C1387 1.415 . S
C1390 H1380 0.930 . S
C1390 C1388 1.419 . S
C1390 C1391 1.362 . S
C1391 H1381 0.930 . S
C1391 C1384 1.409 . S
C1391 C1390 1.362 . S
H1392 C1398 0.930 . S
H1393 C1401 0.930 . S
H1394 C1402 0.930 . S
H1395 C1403 0.930 . S
H1396 C1406 0.930 . S
H1397 C1407 0.930 . S
C1398 H1392 0.930 . S
C1398 C1399 1.355 . S
C1398 C1400 1.415 . S
C1399 C1398 1.355 . S
C1399 C1401 1.419 . S
C1400 C1398 1.415 . S
C1400 C1405 1.425 . S
C1400 C1407 1.409 . S
C1401 H1393 0.930 . S
C1401 C1399 1.419 . S
C1401 C1402 1.362 . S
C1402 H1394 0.930 . S
C1402 C1401 1.362 . S
C1402 C1405 1.409 . S
C1403 H1395 0.930 . S
C1403 C1404 1.355 . S
C1403 C1405 1.415 . S
C1404 C1403 1.355 . S
C1404 C1406 1.419 . S
C1405 C1400 1.425 . S
C1405 C1402 1.409 . S
C1405 C1403 1.415 . S
C1406 H1396 0.930 . S
C1406 C1404 1.419 . S
C1406 C1407 1.362 . S
C1407 H1397 0.930 . S
C1407 C1400 1.409 . S
C1407 C1406 1.362 . S
H1408 C1414 0.930 . S
H1409 C1417 0.930 . S
H1410 C1418 0.930 . S
H1411 C1419 0.930 . S
H1412 C1422 0.930 . S
H1413 C1423 0.930 . S
C1414 H1408 0.930 . S
C1414 C1415 1.355 . S
C1414 C1416 1.415 . S
C1415 C1414 1.355 . S
C1415 C1417 1.419 . S
C1416 C1414 1.415 . S
C1416 C1421 1.437 . S
C1416 C1423 1.409 1_655 S
C1417 H1409 0.930 . S
C1417 C1415 1.419 . S
C1417 C1418 1.362 . S
C1418 H1410 0.930 . S
C1418 C1417 1.362 . S
C1418 C1421 1.431 . S
C1419 H1411 0.930 . S
C1419 C1420 1.355 . S
C1419 C1421 1.383 1_455 S
C1420 C1419 1.355 . S
C1420 C1422 1.419 . S
C1421 C1416 1.437 . S
C1421 C1418 1.431 . S
C1421 C1419 1.383 1_655 S
C1422 H1412 0.930 . S
C1422 C1420 1.419 . S
C1422 C1423 1.362 . S
C1423 H1413 0.930 . S
C1423 C1416 1.409 1_455 S
C1423 C1422 1.362 . S
H1424 C1430 0.930 . S
H1425 C1433 0.930 . S
H1426 C1434 0.930 . S
H1427 C1435 0.930 . S
H1428 C1438 0.930 . S
H1429 C1439 0.930 1_545 S
C1430 H1424 0.930 . S
C1430 C1431 1.355 . S
C1430 C1432 1.415 . S
C1431 C1430 1.355 . S
C1431 C1433 1.419 . S
C1432 C1430 1.415 . S
C1432 C1437 1.425 . S
C1432 C1439 1.409 1_545 S
C1433 H1425 0.930 . S
C1433 C1431 1.419 . S
C1433 C1434 1.362 . S
C1434 H1426 0.930 . S
C1434 C1433 1.362 . S
C1434 C1437 1.409 . S
C1435 H1427 0.930 . S
C1435 C1436 1.355 . S
C1435 C1437 1.415 1_565 S
C1436 C1435 1.355 . S
C1436 C1438 1.419 . S
C1437 C1432 1.425 . S
C1437 C1434 1.409 . S
C1437 C1435 1.415 1_545 S
C1438 H1428 0.930 . S
C1438 C1436 1.419 . S
C1438 C1439 1.362 . S
C1439 H1429 0.930 1_565 S
C1439 C1432 1.409 1_565 S
C1439 C1438 1.362 . S
H1440 C1446 0.930 . S
H1441 C1449 0.930 . S
H1442 C1450 0.930 . S
H1443 C1451 0.930 . S
H1444 C1454 0.930 . S
H1445 C1455 0.930 . S
C1446 H1440 0.930 . S
C1446 C1447 1.355 . S
C1446 C1448 1.415 . S
C1447 C1446 1.355 . S
C1447 C1449 1.419 . S
C1448 C1446 1.415 . S
C1448 C1453 1.442 . S
C1448 C1455 1.409 1_455 S
C1449 H1441 0.930 . S
C1449 C1447 1.419 . S
C1449 C1450 1.362 . S
C1450 H1442 0.930 . S
C1450 C1449 1.362 . S
C1450 C1453 1.443 . S
C1451 H1443 0.930 . S
C1451 C1452 1.355 . S
C1451 C1453 1.366 1_655 S
C1452 C1451 1.355 . S
C1452 C1454 1.419 . S
C1453 C1448 1.442 . S
C1453 C1450 1.443 . S
C1453 C1451 1.366 1_455 S
C1454 H1444 0.930 . S
C1454 C1452 1.419 . S
C1454 C1455 1.362 . S
C1455 H1445 0.930 . S
C1455 C1448 1.409 1_655 S
C1455 C1454 1.362 . S
H1456 C1462 0.930 . S
H1457 C1465 0.930 . S
H1458 C1466 0.930 . S
H1459 C1467 0.930 . S
H1460 C1470 0.930 . S
H1461 C1471 0.932 1_565 S
C1462 H1456 0.930 . S
C1462 C1463 1.355 . S
C1462 C1464 1.415 . S
C1463 C1462 1.355 . S
C1463 C1465 1.419 . S
C1464 C1462 1.415 . S
C1464 C1469 1.425 . S
C1464 C1471 1.409 1_565 S
C1465 H1457 0.930 . S
C1465 C1463 1.419 . S
C1465 C1466 1.362 . S
C1466 H1458 0.930 . S
C1466 C1465 1.362 . S
C1466 C1469 1.409 . S
C1467 H1459 0.930 . S
C1467 C1468 1.355 . S
C1467 C1469 1.415 1_545 S
C1468 C1467 1.355 . S
C1468 C1470 1.419 . S
C1469 C1464 1.425 . S
C1469 C1466 1.409 . S
C1469 C1467 1.415 1_565 S
C1470 H1460 0.930 . S
C1470 C1468 1.419 . S
C1470 C1471 1.362 . S
C1471 H1461 0.932 1_545 S
C1471 C1464 1.409 1_545 S
C1471 C1470 1.362 . S
H1472 C1478 0.930 . S
H1473 C1481 0.930 . S
H1474 C1482 0.930 . S
H1475 C1483 0.930 . S
H1476 C1486 0.930 . S
H1477 C1487 0.930 . S
C1478 H1472 0.930 . S
C1478 C1479 1.355 . S
C1478 C1480 1.415 1_455 S
C1479 C1478 1.355 . S
C1479 C1481 1.419 . S
C1480 C1478 1.415 1_655 S
C1480 C1485 1.425 . S
C1480 C1487 1.409 . S
C1481 H1473 0.930 . S
C1481 C1479 1.419 . S
C1481 C1482 1.362 . S
C1482 H1474 0.930 . S
C1482 C1481 1.362 . S
C1482 C1485 1.409 1_455 S
C1483 H1475 0.930 . S
C1483 C1484 1.355 . S
C1483 C1485 1.415 . S
C1484 C1483 1.355 . S
C1484 C1486 1.419 . S
C1485 C1480 1.425 . S
C1485 C1482 1.409 1_655 S
C1485 C1483 1.415 . S
C1486 H1476 0.930 . S
C1486 C1484 1.419 . S
C1486 C1487 1.362 . S
C1487 H1477 0.930 . S
C1487 C1480 1.409 . S
C1487 C1486 1.362 . S
H1488 C1494 0.930 . S
H1489 C1497 0.930 . S
H1490 C1498 0.930 . S
H1491 C1499 0.930 . S
H1492 C1502 0.930 . S
H1493 C1503 0.930 . S
C1494 H1488 0.930 . S
C1494 C1495 1.355 . S
C1494 C1496 1.415 1_565 S
C1495 C1494 1.355 . S
C1495 C1497 1.419 . S
C1496 C1494 1.415 1_545 S
C1496 C1501 1.425 . S
C1496 C1503 1.409 . S
C1497 H1489 0.930 . S
C1497 C1495 1.419 . S
C1497 C1498 1.362 . S
C1498 H1490 0.930 . S
C1498 C1497 1.362 . S
C1498 C1501 1.409 1_565 S
C1499 H1491 0.930 . S
C1499 C1500 1.355 . S
C1499 C1501 1.415 . S
C1500 C1499 1.355 . S
C1500 C1502 1.419 . S
C1501 C1496 1.425 . S
C1501 C1498 1.409 1_545 S
C1501 C1499 1.415 . S
C1502 H1492 0.930 . S
C1502 C1500 1.419 . S
C1502 C1503 1.362 . S
C1503 H1493 0.930 . S
C1503 C1496 1.409 . S
C1503 C1502 1.362 . S
H1504 C1510 0.930 . S
H1505 C1513 0.930 . S
H1506 C1514 0.930 . S
H1507 C1515 0.930 . S
H1508 C1518 0.930 . S
H1509 C1519 0.930 . S
C1510 H1504 0.930 . S
C1510 C1511 1.355 . S
C1510 C1512 1.415 . S
C1511 C1510 1.355 . S
C1511 C1513 1.419 . S
C1512 C1510 1.415 . S
C1512 C1517 1.425 . S
C1512 C1519 1.409 1_455 S
C1513 H1505 0.930 . S
C1513 C1511 1.419 . S
C1513 C1514 1.362 . S
C1514 H1506 0.930 . S
C1514 C1513 1.362 . S
C1514 C1517 1.409 . S
C1515 H1507 0.930 . S
C1515 C1516 1.355 . S
C1515 C1517 1.415 1_655 S
C1516 C1515 1.355 . S
C1516 C1518 1.419 . S
C1517 C1512 1.425 . S
C1517 C1514 1.409 . S
C1517 C1515 1.415 1_455 S
C1518 H1508 0.930 . S
C1518 C1516 1.419 . S
C1518 C1519 1.362 . S
C1519 H1509 0.930 . S
C1519 C1512 1.409 1_655 S
C1519 C1518 1.362 . S
H1520 C1526 0.930 . S
H1521 C1529 0.930 . S
H1522 C1530 0.930 1_565 S
H1523 C1531 0.930 . S
H1524 C1534 0.930 . S
H1525 C1535 0.930 . S
C1526 H1520 0.930 . S
C1526 C1527 1.355 . S
C1526 C1528 1.415 1_545 S
C1527 C1526 1.355 . S
C1527 C1529 1.419 . S
C1528 C1526 1.415 1_565 S
C1528 C1533 1.425 . S
C1528 C1535 1.409 . S
C1529 H1521 0.930 . S
C1529 C1527 1.419 . S
C1529 C1530 1.362 . S
C1530 H1522 0.930 1_545 S
C1530 C1529 1.362 . S
C1530 C1533 1.409 1_545 S
C1531 H1523 0.930 . S
C1531 C1532 1.355 . S
C1531 C1533 1.415 . S
C1532 C1531 1.355 . S
C1532 C1534 1.419 . S
C1533 C1528 1.425 . S
C1533 C1530 1.409 1_565 S
C1533 C1531 1.415 . S
C1534 H1524 0.930 . S
C1534 C1532 1.419 . S
C1534 C1535 1.362 . S
C1535 H1525 0.930 . S
C1535 C1528 1.409 . S
C1535 C1534 1.362 . S
H1536 C1542 0.930 . S
H1537 C1545 0.930 . S
H1538 C1546 0.930 . S
H1539 C1547 0.930 . S
H1540 C1550 0.930 . S
H1541 C1551 0.930 . S
C1542 H1536 0.930 . S
C1542 C1543 1.355 . S
C1542 C1544 1.415 . S
C1543 C1542 1.355 . S
C1543 C1545 1.419 . S
C1544 C1542 1.415 . S
C1544 C1549 1.425 . S
C1544 C1551 1.409 . S
C1545 H1537 0.930 . S
C1545 C1543 1.419 . S
C1545 C1546 1.362 . S
C1546 H1538 0.930 . S
C1546 C1545 1.362 . S
C1546 C1549 1.409 . S
C1547 H1539 0.930 . S
C1547 C1548 1.355 . S
C1547 C1549 1.415 . S
C1548 C1547 1.355 . S
C1548 C1550 1.419 . S
C1549 C1544 1.425 . S
C1549 C1546 1.409 . S
C1549 C1547 1.415 . S
C1550 H1540 0.930 . S
C1550 C1548 1.419 . S
C1550 C1551 1.362 . S
C1551 H1541 0.930 . S
C1551 C1544 1.409 . S
C1551 C1550 1.362 . S
H1552 C1558 0.930 . S
H1553 C1561 0.930 . S
H1554 C1562 0.930 . S
H1555 C1563 0.930 . S
H1556 C1566 0.930 . S
H1557 C1567 0.930 . S
C1558 H1552 0.930 . S
C1558 C1559 1.355 . S
C1558 C1560 1.415 . S
C1559 C1558 1.355 . S
C1559 C1561 1.419 . S
C1560 C1558 1.415 . S
C1560 C1565 1.425 . S
C1560 C1567 1.409 . S
C1561 H1553 0.930 . S
C1561 C1559 1.419 . S
C1561 C1562 1.362 . S
C1562 H1554 0.930 . S
C1562 C1561 1.362 . S
C1562 C1565 1.409 . S
C1563 H1555 0.930 . S
C1563 C1564 1.355 . S
C1563 C1565 1.415 . S
C1564 C1563 1.355 . S
C1564 C1566 1.419 . S
C1565 C1560 1.425 . S
C1565 C1562 1.409 . S
C1565 C1563 1.415 . S
C1566 H1556 0.930 . S
C1566 C1564 1.419 . S
C1566 C1567 1.362 . S
C1567 H1557 0.930 . S
C1567 C1560 1.409 . S
C1567 C1566 1.362 . S
H1568 C1574 0.930 . S
H1569 C1577 0.930 . S
H1570 C1578 0.930 . S
H1571 C1579 0.930 . S
H1572 C1582 0.930 . S
H1573 C1583 0.930 . S
C1574 H1568 0.930 . S
C1574 C1575 1.355 . S
C1574 C1576 1.415 . S
C1575 C1574 1.355 . S
C1575 C1577 1.419 . S
C1576 C1574 1.415 . S
C1576 C1581 1.425 . S
C1576 C1583 1.409 . S
C1577 H1569 0.930 . S
C1577 C1575 1.419 . S
C1577 C1578 1.362 . S
C1578 H1570 0.930 . S
C1578 C1577 1.362 . S
C1578 C1581 1.409 . S
C1579 H1571 0.930 . S
C1579 C1580 1.355 . S
C1579 C1581 1.415 . S
C1580 C1579 1.355 . S
C1580 C1582 1.419 . S
C1581 C1576 1.425 . S
C1581 C1578 1.409 . S
C1581 C1579 1.415 . S
C1582 H1572 0.930 . S
C1582 C1580 1.419 . S
C1582 C1583 1.362 . S
C1583 H1573 0.930 . S
C1583 C1576 1.409 . S
C1583 C1582 1.362 . S
H1584 C1590 0.930 . S
H1585 C1593 0.930 . S
H1586 C1594 0.930 . S
H1587 C1595 0.930 . S
H1588 C1598 0.930 . S
H1589 C1599 0.930 . S
C1590 H1584 0.930 . S
C1590 C1591 1.355 . S
C1590 C1592 1.415 . S
C1591 C1590 1.355 . S
C1591 C1593 1.419 . S
C1592 C1590 1.415 . S
C1592 C1597 1.425 . S
C1592 C1599 1.409 . S
C1593 H1585 0.930 . S
C1593 C1591 1.419 . S
C1593 C1594 1.362 . S
C1594 H1586 0.930 . S
C1594 C1593 1.362 . S
C1594 C1597 1.409 . S
C1595 H1587 0.930 . S
C1595 C1596 1.355 . S
C1595 C1597 1.415 . S
C1596 C1595 1.355 . S
C1596 C1598 1.419 . S
C1597 C1592 1.425 . S
C1597 C1594 1.409 . S
C1597 C1595 1.415 . S
C1598 H1588 0.930 . S
C1598 C1596 1.419 . S
C1598 C1599 1.362 . S
C1599 H1589 0.930 . S
C1599 C1592 1.409 . S
C1599 C1598 1.362 . S
H1600 C1606 0.930 . S
H1601 C1609 0.930 . S
H1602 C1610 0.930 . S
H1603 C1611 0.930 . S
H1604 C1614 0.930 . S
H1605 C1615 0.930 . S
C1606 H1600 0.930 . S
C1606 C1607 1.355 . S
C1606 C1608 1.415 . S
C1607 C1606 1.355 . S
C1607 C1609 1.419 . S
C1608 C1606 1.415 . S
C1608 C1613 1.425 . S
C1608 C1615 1.409 . S
C1609 H1601 0.930 . S
C1609 C1607 1.419 . S
C1609 C1610 1.362 . S
C1610 H1602 0.930 . S
C1610 C1609 1.362 . S
C1610 C1613 1.409 . S
C1611 H1603 0.930 . S
C1611 C1612 1.355 . S
C1611 C1613 1.415 . S
C1612 C1611 1.355 . S
C1612 C1614 1.419 . S
C1613 C1608 1.425 . S
C1613 C1610 1.409 . S
C1613 C1611 1.415 . S
C1614 H1604 0.930 . S
C1614 C1612 1.419 . S
C1614 C1615 1.362 . S
C1615 H1605 0.930 . S
C1615 C1608 1.409 . S
C1615 C1614 1.362 . S
H1616 C1622 0.930 . S
H1617 C1625 0.930 . S
H1618 C1626 0.930 . S
H1619 C1627 0.930 . S
H1620 C1630 0.930 . S
H1621 C1631 0.930 . S
C1622 H1616 0.930 . S
C1622 C1623 1.355 . S
C1622 C1624 1.415 . S
C1623 C1622 1.355 . S
C1623 C1625 1.419 . S
C1624 C1622 1.415 . S
C1624 C1629 1.425 . S
C1624 C1631 1.409 . S
C1625 H1617 0.930 . S
C1625 C1623 1.419 . S
C1625 C1626 1.362 . S
C1626 H1618 0.930 . S
C1626 C1625 1.362 . S
C1626 C1629 1.409 . S
C1627 H1619 0.930 . S
C1627 C1628 1.355 . S
C1627 C1629 1.415 . S
C1628 C1627 1.355 . S
C1628 C1630 1.419 . S
C1629 C1624 1.425 . S
C1629 C1626 1.409 . S
C1629 C1627 1.415 . S
C1630 H1620 0.930 . S
C1630 C1628 1.419 . S
C1630 C1631 1.362 . S
C1631 H1621 0.930 . S
C1631 C1624 1.409 . S
C1631 C1630 1.362 . S
H1632 C1638 0.930 . S
H1633 C1641 0.930 . S
H1634 C1642 0.930 . S
H1635 C1643 0.930 . S
H1636 C1646 0.930 . S
H1637 C1647 0.930 . S
C1638 H1632 0.930 . S
C1638 C1639 1.355 . S
C1638 C1640 1.415 . S
C1639 C1638 1.355 . S
C1639 C1641 1.419 . S
C1640 C1638 1.415 . S
C1640 C1645 1.425 . S
C1640 C1647 1.409 . S
C1641 H1633 0.930 . S
C1641 C1639 1.419 . S
C1641 C1642 1.362 . S
C1642 H1634 0.930 . S
C1642 C1641 1.362 . S
C1642 C1645 1.409 . S
C1643 H1635 0.930 . S
C1643 C1644 1.355 . S
C1643 C1645 1.415 . S
C1644 C1643 1.355 . S
C1644 C1646 1.419 . S
C1645 C1640 1.425 . S
C1645 C1642 1.409 . S
C1645 C1643 1.415 . S
C1646 H1636 0.930 . S
C1646 C1644 1.419 . S
C1646 C1647 1.362 . S
C1647 H1637 0.930 . S
C1647 C1640 1.409 . S
C1647 C1646 1.362 . S
H1648 C1654 0.930 . S
H1649 C1657 0.930 . S
H1650 C1658 0.930 . S
H1651 C1659 0.930 . S
H1652 C1662 0.930 . S
H1653 C1663 0.930 . S
C1654 H1648 0.930 . S
C1654 C1655 1.355 . S
C1654 C1656 1.415 . S
C1655 C1654 1.355 . S
C1655 C1657 1.419 . S
C1656 C1654 1.415 . S
C1656 C1661 1.425 . S
C1656 C1663 1.409 . S
C1657 H1649 0.930 . S
C1657 C1655 1.419 . S
C1657 C1658 1.362 . S
C1658 H1650 0.930 . S
C1658 C1657 1.362 . S
C1658 C1661 1.409 . S
C1659 H1651 0.930 . S
C1659 C1660 1.355 . S
C1659 C1661 1.415 . S
C1660 C1659 1.355 . S
C1660 C1662 1.419 . S
C1661 C1656 1.425 . S
C1661 C1658 1.409 . S
C1661 C1659 1.415 . S
C1662 H1652 0.930 . S
C1662 C1660 1.419 . S
C1662 C1663 1.362 . S
C1663 H1653 0.930 . S
C1663 C1656 1.409 . S
C1663 C1662 1.362 . S
H1664 C1670 0.930 . S
H1665 C1673 0.930 . S
H1666 C1674 0.930 . S
H1667 C1675 0.930 . S
H1668 C1678 0.930 . S
H1669 C1679 0.930 . S
C1670 H1664 0.930 . S
C1670 C1671 1.355 . S
C1670 C1672 1.415 . S
C1671 C1670 1.355 . S
C1671 C1673 1.419 . S
C1672 C1670 1.415 . S
C1672 C1677 1.425 . S
C1672 C1679 1.409 . S
C1673 H1665 0.930 . S
C1673 C1671 1.419 . S
C1673 C1674 1.362 . S
C1674 H1666 0.930 . S
C1674 C1673 1.362 . S
C1674 C1677 1.409 . S
C1675 H1667 0.930 . S
C1675 C1676 1.355 . S
C1675 C1677 1.415 . S
C1676 C1675 1.355 . S
C1676 C1678 1.419 . S
C1677 C1672 1.425 . S
C1677 C1674 1.409 . S
C1677 C1675 1.415 . S
C1678 H1668 0.930 . S
C1678 C1676 1.419 . S
C1678 C1679 1.362 . S
C1679 H1669 0.930 . S
C1679 C1672 1.409 . S
C1679 C1678 1.362 . S
H1680 C1686 0.930 . S
H1681 C1689 0.930 . S
H1682 C1690 0.930 . S
H1683 C1691 0.930 . S
H1684 C1694 0.930 . S
H1685 C1695 0.930 . S
C1686 H1680 0.930 . S
C1686 C1687 1.355 . S
C1686 C1688 1.415 . S
C1687 C1686 1.355 . S
C1687 C1689 1.419 . S
C1688 C1686 1.415 . S
C1688 C1693 1.425 . S
C1688 C1695 1.409 . S
C1689 H1681 0.930 . S
C1689 C1687 1.419 . S
C1689 C1690 1.362 . S
C1690 H1682 0.930 . S
C1690 C1689 1.362 . S
C1690 C1693 1.409 . S
C1691 H1683 0.930 . S
C1691 C1692 1.355 . S
C1691 C1693 1.415 . S
C1692 C1691 1.355 . S
C1692 C1694 1.419 . S
C1693 C1688 1.425 . S
C1693 C1690 1.409 . S
C1693 C1691 1.415 . S
C1694 H1684 0.930 . S
C1694 C1692 1.419 . S
C1694 C1695 1.362 . S
C1695 H1685 0.930 . S
C1695 C1688 1.409 . S
C1695 C1694 1.362 . S
H1696 C1702 0.930 . S
H1697 C1705 0.930 . S
H1698 C1706 0.930 . S
H1699 C1707 0.930 . S
H1700 C1710 0.930 . S
H1701 C1711 0.930 . S
C1702 H1696 0.930 . S
C1702 C1703 1.355 . S
C1702 C1704 1.415 . S
C1703 C1702 1.355 . S
C1703 C1705 1.419 . S
C1704 C1702 1.415 . S
C1704 C1709 1.425 . S
C1704 C1711 1.409 . S
C1705 H1697 0.930 . S
C1705 C1703 1.419 . S
C1705 C1706 1.362 . S
C1706 H1698 0.930 . S
C1706 C1705 1.362 . S
C1706 C1709 1.409 . S
C1707 H1699 0.930 . S
C1707 C1708 1.355 . S
C1707 C1709 1.415 . S
C1708 C1707 1.355 . S
C1708 C1710 1.419 . S
C1709 C1704 1.425 . S
C1709 C1706 1.409 . S
C1709 C1707 1.415 . S
C1710 H1700 0.930 . S
C1710 C1708 1.419 . S
C1710 C1711 1.362 . S
C1711 H1701 0.930 . S
C1711 C1704 1.409 . S
C1711 C1710 1.362 . S
H1712 C1718 0.930 . S
H1713 C1721 0.930 . S
H1714 C1722 0.930 . S
H1715 C1723 0.930 . S
H1716 C1726 0.930 . S
H1717 C1727 0.930 . S
C1718 H1712 0.930 . S
C1718 C1719 1.355 . S
C1718 C1720 1.415 . S
C1719 C1718 1.355 . S
C1719 C1721 1.419 . S
C1720 C1718 1.415 . S
C1720 C1725 1.425 . S
C1720 C1727 1.409 . S
C1721 H1713 0.930 . S
C1721 C1719 1.419 . S
C1721 C1722 1.362 . S
C1722 H1714 0.930 . S
C1722 C1721 1.362 . S
C1722 C1725 1.409 . S
C1723 H1715 0.930 . S
C1723 C1724 1.355 . S
C1723 C1725 1.415 . S
C1724 C1723 1.355 . S
C1724 C1726 1.419 . S
C1725 C1720 1.425 . S
C1725 C1722 1.409 . S
C1725 C1723 1.415 . S
C1726 H1716 0.930 . S
C1726 C1724 1.419 . S
C1726 C1727 1.362 . S
C1727 H1717 0.930 . S
C1727 C1720 1.409 . S
C1727 C1726 1.362 . S
H1728 C1734 0.930 . S
H1729 C1737 0.930 . S
H1730 C1738 0.930 . S
H1731 C1739 0.930 . S
H1732 C1742 0.930 . S
H1733 C1743 0.930 . S
C1734 H1728 0.930 . S
C1734 C1735 1.355 . S
C1734 C1736 1.415 . S
C1735 C1734 1.355 . S
C1735 C1737 1.419 . S
C1736 C1734 1.415 . S
C1736 C1741 1.425 . S
C1736 C1743 1.409 . S
C1737 H1729 0.930 . S
C1737 C1735 1.419 . S
C1737 C1738 1.362 . S
C1738 H1730 0.930 . S
C1738 C1737 1.362 . S
C1738 C1741 1.409 . S
C1739 H1731 0.930 . S
C1739 C1740 1.355 . S
C1739 C1741 1.415 . S
C1740 C1739 1.355 . S
C1740 C1742 1.419 . S
C1741 C1736 1.425 . S
C1741 C1738 1.409 . S
C1741 C1739 1.415 . S
C1742 H1732 0.930 . S
C1742 C1740 1.419 . S
C1742 C1743 1.362 . S
C1743 H1733 0.930 . S
C1743 C1736 1.409 . S
C1743 C1742 1.362 . S
H1744 C1750 0.930 . S
H1745 C1753 0.930 . S
H1746 C1754 0.930 . S
H1747 C1755 0.930 . S
H1748 C1758 0.930 . S
H1749 C1759 0.930 . S
C1750 H1744 0.930 . S
C1750 C1751 1.355 . S
C1750 C1752 1.415 . S
C1751 C1750 1.355 . S
C1751 C1753 1.419 . S
C1752 C1750 1.415 . S
C1752 C1757 1.425 . S
C1752 C1759 1.409 . S
C1753 H1745 0.930 . S
C1753 C1751 1.419 . S
C1753 C1754 1.362 . S
C1754 H1746 0.930 . S
C1754 C1753 1.362 . S
C1754 C1757 1.409 . S
C1755 H1747 0.930 . S
C1755 C1756 1.355 . S
C1755 C1757 1.415 . S
C1756 C1755 1.355 . S
C1756 C1758 1.419 . S
C1757 C1752 1.425 . S
C1757 C1754 1.409 . S
C1757 C1755 1.415 . S
C1758 H1748 0.930 . S
C1758 C1756 1.419 . S
C1758 C1759 1.362 . S
C1759 H1749 0.930 . S
C1759 C1752 1.409 . S
C1759 C1758 1.362 . S
H1760 C1766 0.930 . S
H1761 C1769 0.930 . S
H1762 C1770 0.930 . S
H1763 C1771 0.930 . S
H1764 C1774 0.930 . S
H1765 C1775 0.930 . S
C1766 H1760 0.930 . S
C1766 C1767 1.355 . S
C1766 C1768 1.415 . S
C1767 C1766 1.355 . S
C1767 C1769 1.419 . S
C1768 C1766 1.415 . S
C1768 C1773 1.425 . S
C1768 C1775 1.409 . S
C1769 H1761 0.930 . S
C1769 C1767 1.419 . S
C1769 C1770 1.362 . S
C1770 H1762 0.930 . S
C1770 C1769 1.362 . S
C1770 C1773 1.409 . S
C1771 H1763 0.930 . S
C1771 C1772 1.355 . S
C1771 C1773 1.415 . S
C1772 C1771 1.355 . S
C1772 C1774 1.419 . S
C1773 C1768 1.425 . S
C1773 C1770 1.409 . S
C1773 C1771 1.415 . S
C1774 H1764 0.930 . S
C1774 C1772 1.419 . S
C1774 C1775 1.362 . S
C1775 H1765 0.930 . S
C1775 C1768 1.409 . S
C1775 C1774 1.362 . S
H1776 C1782 0.930 . S
H1777 C1785 0.930 . S
H1778 C1786 0.930 . S
H1779 C1787 0.930 . S
H1780 C1790 0.930 . S
H1781 C1791 0.930 . S
C1782 H1776 0.930 . S
C1782 C1783 1.355 . S
C1782 C1784 1.415 . S
C1783 C1782 1.355 . S
C1783 C1785 1.419 . S
C1784 C1782 1.415 . S
C1784 C1789 1.425 . S
C1784 C1791 1.409 . S
C1785 H1777 0.930 . S
C1785 C1783 1.419 . S
C1785 C1786 1.362 . S
C1786 H1778 0.930 . S
C1786 C1785 1.362 . S
C1786 C1789 1.409 . S
C1787 H1779 0.930 . S
C1787 C1788 1.355 . S
C1787 C1789 1.415 . S
C1788 C1787 1.355 . S
C1788 C1790 1.419 . S
C1789 C1784 1.425 . S
C1789 C1786 1.409 . S
C1789 C1787 1.415 . S
C1790 H1780 0.930 . S
C1790 C1788 1.419 . S
C1790 C1791 1.362 . S
C1791 H1781 0.930 . S
C1791 C1784 1.409 . S
C1791 C1790 1.362 . S
H1792 C1798 0.930 . S
H1793 C1801 0.930 . S
H1794 C1802 0.930 . S
H1795 C1803 0.930 . S
H1796 C1806 0.930 . S
H1797 C1807 0.930 . S
C1798 H1792 0.930 . S
C1798 C1799 1.355 . S
C1798 C1800 1.415 . S
C1799 C1798 1.355 . S
C1799 C1801 1.419 . S
C1800 C1798 1.415 . S
C1800 C1805 1.425 1_554 S
C1800 C1807 1.409 1_554 S
C1801 H1793 0.930 . S
C1801 C1799 1.419 . S
C1801 C1802 1.362 . S
C1802 H1794 0.930 . S
C1802 C1801 1.362 . S
C1802 C1805 1.409 1_554 S
C1803 H1795 0.930 . S
C1803 C1804 1.355 . S
C1803 C1805 1.415 . S
C1804 C1803 1.355 . S
C1804 C1806 1.419 . S
C1805 C1800 1.425 1_556 S
C1805 C1802 1.409 1_556 S
C1805 C1803 1.415 . S
C1806 H1796 0.930 . S
C1806 C1804 1.419 . S
C1806 C1807 1.362 . S
C1807 H1797 0.930 . S
C1807 C1800 1.409 1_556 S
C1807 C1806 1.362 . S
H1808 C1814 0.930 . S
H1809 C1817 0.930 . S
H1810 C1818 0.929 1_554 S
H1811 C1819 0.930 . S
H1812 C1822 0.930 . S
H1813 C1823 0.930 . S
C1814 H1808 0.930 . S
C1814 C1815 1.355 . S
C1814 C1816 1.415 1_556 S
C1815 C1814 1.355 . S
C1815 C1817 1.419 . S
C1816 C1814 1.415 1_554 S
C1816 C1821 1.425 . S
C1816 C1823 1.409 . S
C1817 H1809 0.930 . S
C1817 C1815 1.419 . S
C1817 C1818 1.362 . S
C1818 H1810 0.929 1_556 S
C1818 C1817 1.362 . S
C1818 C1821 1.409 1_556 S
C1819 H1811 0.930 . S
C1819 C1820 1.355 . S
C1819 C1821 1.415 . S
C1820 C1819 1.355 . S
C1820 C1822 1.419 . S
C1821 C1816 1.425 . S
C1821 C1818 1.409 1_554 S
C1821 C1819 1.415 . S
C1822 H1812 0.930 . S
C1822 C1820 1.419 . S
C1822 C1823 1.362 . S
C1823 H1813 0.930 . S
C1823 C1816 1.409 . S
C1823 C1822 1.362 . S
H1824 C1830 0.930 . S
H1825 C1833 0.930 . S
H1826 C1834 0.930 . S
H1827 C1835 0.930 . S
H1828 C1838 0.930 . S
H1829 C1839 0.930 . S
C1830 H1824 0.930 . S
C1830 C1831 1.355 . S
C1830 C1832 1.415 . S
C1831 C1830 1.355 . S
C1831 C1833 1.419 . S
C1832 C1830 1.415 . S
C1832 C1837 1.425 1_554 S
C1832 C1839 1.409 1_554 S
C1833 H1825 0.930 . S
C1833 C1831 1.419 . S
C1833 C1834 1.362 . S
C1834 H1826 0.930 . S
C1834 C1833 1.362 . S
C1834 C1837 1.409 1_554 S
C1835 H1827 0.930 . S
C1835 C1836 1.355 . S
C1835 C1837 1.415 . S
C1836 C1835 1.355 . S
C1836 C1838 1.419 . S
C1837 C1832 1.425 1_556 S
C1837 C1834 1.409 1_556 S
C1837 C1835 1.415 . S
C1838 H1828 0.930 . S
C1838 C1836 1.419 . S
C1838 C1839 1.362 . S
C1839 H1829 0.930 . S
C1839 C1832 1.409 1_556 S
C1839 C1838 1.362 . S
H1840 C1846 0.930 . S
H1841 C1849 0.930 . S
H1842 C1850 0.930 . S
H1843 C1851 0.930 . S
H1844 C1854 0.930 . S
H1845 C1855 0.930 . S
C1846 H1840 0.930 . S
C1846 C1847 1.355 . S
C1846 C1848 1.415 . S
C1847 C1846 1.355 . S
C1847 C1849 1.419 . S
C1848 C1846 1.415 . S
C1848 C1853 1.425 . S
C1848 C1855 1.409 . S
C1849 H1841 0.930 . S
C1849 C1847 1.419 . S
C1849 C1850 1.362 . S
C1850 H1842 0.930 . S
C1850 C1849 1.362 . S
C1850 C1853 1.409 . S
C1851 H1843 0.930 . S
C1851 C1852 1.355 . S
C1851 C1853 1.415 1_556 S
C1852 C1851 1.355 . S
C1852 C1854 1.419 . S
C1853 C1848 1.425 . S
C1853 C1850 1.409 . S
C1853 C1851 1.415 1_554 S
C1854 H1844 0.930 . S
C1854 C1852 1.419 . S
C1854 C1855 1.362 1_556 S
C1855 H1845 0.930 . S
C1855 C1848 1.409 . S
C1855 C1854 1.362 1_554 S
H1856 C1862 0.930 . S
H1857 C1865 0.930 . S
H1858 C1866 0.930 . S
H1859 C1867 0.930 . S
H1860 C1870 0.930 . S
H1861 C1871 0.930 . S
C1862 H1856 0.930 . S
C1862 C1863 1.355 . S
C1862 C1864 1.415 . S
C1863 C1862 1.355 . S
C1863 C1865 1.419 . S
C1864 C1862 1.415 . S
C1864 C1869 1.425 1_554 S
C1864 C1871 1.409 1_554 S
C1865 H1857 0.930 . S
C1865 C1863 1.419 . S
C1865 C1866 1.362 . S
C1866 H1858 0.930 . S
C1866 C1865 1.362 . S
C1866 C1869 1.409 1_554 S
C1867 H1859 0.930 . S
C1867 C1868 1.355 . S
C1867 C1869 1.415 . S
C1868 C1867 1.355 . S
C1868 C1870 1.419 . S
C1869 C1864 1.425 1_556 S
C1869 C1866 1.409 1_556 S
C1869 C1867 1.415 . S
C1870 H1860 0.930 . S
C1870 C1868 1.419 . S
C1870 C1871 1.362 . S
C1871 H1861 0.930 . S
C1871 C1864 1.409 1_556 S
C1871 C1870 1.362 . S
H1872 C1878 0.930 . S
H1873 C1881 0.930 . S
H1874 C1882 0.930 1_556 S
H1875 C1883 0.930 . S
H1876 C1886 0.930 . S
H1877 C1887 0.930 . S
C1878 H1872 0.930 . S
C1878 C1879 1.355 . S
C1878 C1880 1.415 1_554 S
C1879 C1878 1.355 . S
C1879 C1881 1.419 . S
C1880 C1878 1.415 1_556 S
C1880 C1885 1.425 . S
C1880 C1887 1.409 . S
C1881 H1873 0.930 . S
C1881 C1879 1.419 . S
C1881 C1882 1.362 . S
C1882 H1874 0.930 1_554 S
C1882 C1881 1.362 . S
C1882 C1885 1.409 1_554 S
C1883 H1875 0.930 . S
C1883 C1884 1.355 . S
C1883 C1885 1.415 . S
C1884 C1883 1.355 . S
C1884 C1886 1.419 . S
C1885 C1880 1.425 . S
C1885 C1882 1.409 1_556 S
C1885 C1883 1.415 . S
C1886 H1876 0.930 . S
C1886 C1884 1.419 . S
C1886 C1887 1.362 . S
C1887 H1877 0.930 . S
C1887 C1880 1.409 . S
C1887 C1886 1.362 . S
H1888 C1894 0.930 . S
H1889 C1897 0.930 . S
H1890 C1898 0.930 . S
H1891 C1899 0.930 . S
H1892 C1902 0.930 . S
H1893 C1903 0.930 . S
C1894 H1888 0.930 . S
C1894 C1895 1.355 . S
C1894 C1896 1.415 . S
C1895 C1894 1.355 . S
C1895 C1897 1.419 . S
C1896 C1894 1.415 . S
C1896 C1901 1.425 1_556 S
C1896 C1903 1.409 1_556 S
C1897 H1889 0.930 . S
C1897 C1895 1.419 . S
C1897 C1898 1.362 . S
C1898 H1890 0.930 . S
C1898 C1897 1.362 . S
C1898 C1901 1.409 1_556 S
C1899 H1891 0.930 . S
C1899 C1900 1.355 . S
C1899 C1901 1.415 . S
C1900 C1899 1.355 . S
C1900 C1902 1.419 . S
C1901 C1896 1.425 1_554 S
C1901 C1898 1.409 1_554 S
C1901 C1899 1.415 . S
C1902 H1892 0.930 . S
C1902 C1900 1.419 . S
C1902 C1903 1.362 . S
C1903 H1893 0.930 . S
C1903 C1896 1.409 1_554 S
C1903 C1902 1.362 . S
H1904 C1910 0.930 . S
H1905 C1913 0.930 . S
H1906 C1914 0.930 . S
H1907 C1915 0.930 . S
H1908 C1918 0.930 . S
H1909 C1919 0.930 . S
C1910 H1904 0.930 . S
C1910 C1911 1.355 . S
C1910 C1912 1.415 . S
C1911 C1910 1.355 . S
C1911 C1913 1.419 . S
C1912 C1910 1.415 . S
C1912 C1917 1.425 . S
C1912 C1919 1.409 . S
C1913 H1905 0.930 . S
C1913 C1911 1.419 . S
C1913 C1914 1.362 . S
C1914 H1906 0.930 . S
C1914 C1913 1.362 . S
C1914 C1917 1.409 . S
C1915 H1907 0.930 . S
C1915 C1916 1.355 . S
C1915 C1917 1.415 1_554 S
C1916 C1915 1.355 . S
C1916 C1918 1.419 . S
C1917 C1912 1.425 . S
C1917 C1914 1.409 . S
C1917 C1915 1.415 1_556 S
C1918 H1908 0.930 . S
C1918 C1916 1.419 . S
C1918 C1919 1.362 1_554 S
C1919 H1909 0.930 . S
C1919 C1912 1.409 . S
C1919 C1918 1.362 1_556 S
H1920 C1926 0.930 . S
H1921 C1929 0.930 . S
H1922 C1930 0.930 . S
H1923 C1931 0.930 . S
H1924 C1934 0.930 . S
H1925 C1935 0.930 . S
C1926 H1920 0.930 . S
C1926 C1927 1.355 . S
C1926 C1928 1.415 . S
C1927 C1926 1.355 . S
C1927 C1929 1.419 . S
C1928 C1926 1.415 . S
C1928 C1933 1.425 . S
C1928 C1935 1.409 . S
C1929 H1921 0.930 . S
C1929 C1927 1.419 . S
C1929 C1930 1.362 . S
C1930 H1922 0.930 . S
C1930 C1929 1.362 . S
C1930 C1933 1.409 . S
C1931 H1923 0.930 . S
C1931 C1932 1.355 . S
C1931 C1933 1.415 . S
C1932 C1931 1.355 . S
C1932 C1934 1.419 . S
C1933 C1928 1.425 . S
C1933 C1930 1.409 . S
C1933 C1931 1.415 . S
C1934 H1924 0.930 . S
C1934 C1932 1.419 . S
C1934 C1935 1.362 . S
C1935 H1925 0.930 . S
C1935 C1928 1.409 . S
C1935 C1934 1.362 . S
H1936 C1942 0.930 . S
H1937 C1945 0.930 . S
H1938 C1946 0.930 . S
H1939 C1947 0.930 . S
H1940 C1950 0.930 . S
H1941 C1951 0.930 . S
C1942 H1936 0.930 . S
C1942 C1943 1.355 . S
C1942 C1944 1.415 . S
C1943 C1942 1.355 . S
C1943 C1945 1.419 . S
C1944 C1942 1.415 . S
C1944 C1949 1.425 . S
C1944 C1951 1.409 . S
C1945 H1937 0.930 . S
C1945 C1943 1.419 . S
C1945 C1946 1.362 . S
C1946 H1938 0.930 . S
C1946 C1945 1.362 . S
C1946 C1949 1.409 . S
C1947 H1939 0.930 . S
C1947 C1948 1.355 . S
C1947 C1949 1.415 . S
C1948 C1947 1.355 . S
C1948 C1950 1.419 . S
C1949 C1944 1.425 . S
C1949 C1946 1.409 . S
C1949 C1947 1.415 . S
C1950 H1940 0.930 . S
C1950 C1948 1.419 . S
C1950 C1951 1.362 . S
C1951 H1941 0.930 . S
C1951 C1944 1.409 . S
C1951 C1950 1.362 . S
H1952 C1958 0.930 . S
H1953 C1961 0.930 . S
H1954 C1962 0.930 . S
H1955 C1963 0.930 . S
H1956 C1966 0.930 . S
H1957 C1967 0.930 . S
C1958 H1952 0.930 . S
C1958 C1959 1.355 . S
C1958 C1960 1.415 . S
C1959 C1958 1.355 . S
C1959 C1961 1.419 . S
C1960 C1958 1.415 . S
C1960 C1965 1.425 . S
C1960 C1967 1.409 . S
C1961 H1953 0.930 . S
C1961 C1959 1.419 . S
C1961 C1962 1.362 . S
C1962 H1954 0.930 . S
C1962 C1961 1.362 . S
C1962 C1965 1.409 . S
C1963 H1955 0.930 . S
C1963 C1964 1.355 . S
C1963 C1965 1.415 . S
C1964 C1963 1.355 . S
C1964 C1966 1.419 . S
C1965 C1960 1.425 . S
C1965 C1962 1.409 . S
C1965 C1963 1.415 . S
C1966 H1956 0.930 . S
C1966 C1964 1.419 . S
C1966 C1967 1.362 . S
C1967 H1957 0.930 . S
C1967 C1960 1.409 . S
C1967 C1966 1.362 . S
H1968 C1974 0.930 . S
H1969 C1977 0.930 . S
H1970 C1978 0.930 . S
H1971 C1979 0.930 . S
H1972 C1982 0.930 . S
H1973 C1983 0.930 . S
C1974 H1968 0.930 . S
C1974 C1975 1.355 . S
C1974 C1976 1.415 . S
C1975 C1974 1.355 . S
C1975 C1977 1.419 . S
C1976 C1974 1.415 . S
C1976 C1981 1.425 . S
C1976 C1983 1.409 . S
C1977 H1969 0.930 . S
C1977 C1975 1.419 . S
C1977 C1978 1.362 . S
C1978 H1970 0.930 . S
C1978 C1977 1.362 . S
C1978 C1981 1.409 . S
C1979 H1971 0.930 . S
C1979 C1980 1.355 . S
C1979 C1981 1.415 . S
C1980 C1979 1.355 . S
C1980 C1982 1.419 . S
C1981 C1976 1.425 . S
C1981 C1978 1.409 . S
C1981 C1979 1.415 . S
C1982 H1972 0.930 . S
C1982 C1980 1.419 . S
C1982 C1983 1.362 . S
C1983 H1973 0.930 . S
C1983 C1976 1.409 . S
C1983 C1982 1.362 . S
H1984 C1990 0.930 . S
H1985 C1993 0.930 . S
H1986 C1994 0.930 . S
H1987 C1995 0.930 . S
H1988 C1998 0.930 . S
H1989 C1999 0.930 . S
C1990 H1984 0.930 . S
C1990 C1991 1.355 . S
C1990 C1992 1.415 . S
C1991 C1990 1.355 . S
C1991 C1993 1.419 . S
C1992 C1990 1.415 . S
C1992 C1997 1.425 . S
C1992 C1999 1.409 . S
C1993 H1985 0.930 . S
C1993 C1991 1.419 . S
C1993 C1994 1.362 . S
C1994 H1986 0.930 . S
C1994 C1993 1.362 . S
C1994 C1997 1.409 . S
C1995 H1987 0.930 . S
C1995 C1996 1.355 . S
C1995 C1997 1.415 . S
C1996 C1995 1.355 . S
C1996 C1998 1.419 . S
C1997 C1992 1.425 . S
C1997 C1994 1.409 . S
C1997 C1995 1.415 . S
C1998 H1988 0.930 . S
C1998 C1996 1.419 . S
C1998 C1999 1.362 . S
C1999 H1989 0.930 . S
C1999 C1992 1.409 . S
C1999 C1998 1.362 . S
H2000 C2006 0.930 . S
H2001 C2009 0.930 . S
H2002 C2010 0.930 . S
H2003 C2011 0.930 . S
H2004 C2014 0.930 . S
H2005 C2015 0.930 . S
C2006 H2000 0.930 . S
C2006 C2007 1.355 . S
C2006 C2008 1.415 . S
C2007 C2006 1.355 . S
C2007 C2009 1.419 . S
C2008 C2006 1.415 . S
C2008 C2013 1.425 . S
C2008 C2015 1.409 . S
C2009 H2001 0.930 . S
C2009 C2007 1.419 . S
C2009 C2010 1.362 . S
C2010 H2002 0.930 . S
C2010 C2009 1.362 . S
C2010 C2013 1.409 . S
C2011 H2003 0.930 . S
C2011 C2012 1.355 . S
C2011 C2013 1.415 . S
C2012 C2011 1.355 . S
C2012 C2014 1.419 . S
C2013 C2008 1.425 . S
C2013 C2010 1.409 . S
C2013 C2011 1.415 . S
C2014 H2004 0.930 . S
C2014 C2012 1.419 . S
C2014 C2015 1.362 . S
C2015 H2005 0.930 . S
C2015 C2008 1.409 . S
C2015 C2014 1.362 . S
H2016 C2022 0.930 . S
H2017 C2025 0.930 . S
H2018 C2026 0.930 . S
H2019 C2027 0.930 . S
H2020 C2030 0.930 . S
H2021 C2031 0.930 . S
C2022 H2016 0.930 . S
C2022 C2023 1.355 . S
C2022 C2024 1.415 . S
C2023 C2022 1.355 . S
C2023 C2025 1.419 . S
C2024 C2022 1.415 . S
C2024 C2029 1.425 . S
C2024 C2031 1.409 . S
C2025 H2017 0.930 . S
C2025 C2023 1.419 . S
C2025 C2026 1.362 . S
C2026 H2018 0.930 . S
C2026 C2025 1.362 . S
C2026 C2029 1.409 . S
C2027 H2019 0.930 . S
C2027 C2028 1.355 . S
C2027 C2029 1.415 . S
C2028 C2027 1.355 . S
C2028 C2030 1.419 . S
C2029 C2024 1.425 . S
C2029 C2026 1.409 . S
C2029 C2027 1.415 . S
C2030 H2020 0.930 . S
C2030 C2028 1.419 . S
C2030 C2031 1.362 . S
C2031 H2021 0.930 . S
C2031 C2024 1.409 . S
C2031 C2030 1.362 . S
H2032 C2038 0.930 . S
H2033 C2041 0.930 . S
H2034 C2042 0.930 . S
H2035 C2043 0.930 . S
H2036 C2046 0.930 . S
H2037 C2047 0.930 . S
C2038 H2032 0.930 . S
C2038 C2039 1.355 . S
C2038 C2040 1.415 . S
C2039 C2038 1.355 . S
C2039 C2041 1.419 . S
C2040 C2038 1.415 . S
C2040 C2045 1.425 . S
C2040 C2047 1.409 . S
C2041 H2033 0.930 . S
C2041 C2039 1.419 . S
C2041 C2042 1.362 . S
C2042 H2034 0.930 . S
C2042 C2041 1.362 . S
C2042 C2045 1.409 . S
C2043 H2035 0.930 . S
C2043 C2044 1.355 . S
C2043 C2045 1.415 . S
C2044 C2043 1.355 . S
C2044 C2046 1.419 . S
C2045 C2040 1.425 . S
C2045 C2042 1.409 . S
C2045 C2043 1.415 . S
C2046 H2036 0.930 . S
C2046 C2044 1.419 . S
C2046 C2047 1.362 . S
C2047 H2037 0.930 . S
C2047 C2040 1.409 . S
C2047 C2046 1.362 . S
H2048 C2054 0.930 . S
H2049 C2057 0.930 . S
H2050 C2058 0.930 . S
H2051 C2059 0.930 . S
H2052 C2062 0.930 . S
H2053 C2063 0.930 . S
C2054 H2048 0.930 . S
C2054 C2055 1.355 . S
C2054 C2056 1.415 . S
C2055 C2054 1.355 . S
C2055 C2057 1.419 . S
C2056 C2054 1.415 . S
C2056 C2061 1.425 . S
C2056 C2063 1.409 . S
C2057 H2049 0.930 . S
C2057 C2055 1.419 . S
C2057 C2058 1.362 . S
C2058 H2050 0.930 . S
C2058 C2057 1.362 . S
C2058 C2061 1.409 . S
C2059 H2051 0.930 . S
C2059 C2060 1.355 . S
C2059 C2061 1.415 . S
C2060 C2059 1.355 . S
C2060 C2062 1.419 . S
C2061 C2056 1.425 . S
C2061 C2058 1.409 . S
C2061 C2059 1.415 . S
C2062 H2052 0.930 . S
C2062 C2060 1.419 . S
C2062 C2063 1.362 . S
C2063 H2053 0.930 . S
C2063 C2056 1.409 . S
C2063 C2062 1.362 . S
H2064 C2070 0.930 . S
H2065 C2073 0.930 . S
H2066 C2074 0.930 . S
H2067 C2075 0.930 . S
H2068 C2078 0.930 . S
H2069 C2079 0.930 . S
C2070 H2064 0.930 . S
C2070 C2071 1.355 . S
C2070 C2072 1.415 . S
C2071 C2070 1.355 . S
C2071 C2073 1.419 . S
C2072 C2070 1.415 . S
C2072 C2077 1.425 . S
C2072 C2079 1.409 . S
C2073 H2065 0.930 . S
C2073 C2071 1.419 . S
C2073 C2074 1.362 . S
C2074 H2066 0.930 . S
C2074 C2073 1.362 . S
C2074 C2077 1.409 . S
C2075 H2067 0.930 . S
C2075 C2076 1.355 . S
C2075 C2077 1.415 . S
C2076 C2075 1.355 . S
C2076 C2078 1.419 . S
C2077 C2072 1.425 . S
C2077 C2074 1.409 . S
C2077 C2075 1.415 . S
C2078 H2068 0.930 . S
C2078 C2076 1.419 . S
C2078 C2079 1.362 . S
C2079 H2069 0.930 . S
C2079 C2072 1.409 . S
C2079 C2078 1.362 . S
H2080 C2086 0.930 . S
H2081 C2089 0.930 . S
H2082 C2090 0.930 . S
H2083 C2091 0.930 . S
H2084 C2094 0.930 . S
H2085 C2095 0.930 . S
C2086 H2080 0.930 . S
C2086 C2087 1.355 . S
C2086 C2088 1.415 . S
C2087 C2086 1.355 . S
C2087 C2089 1.419 . S
C2088 C2086 1.415 . S
C2088 C2093 1.425 . S
C2088 C2095 1.409 . S
C2089 H2081 0.930 . S
C2089 C2087 1.419 . S
C2089 C2090 1.362 . S
C2090 H2082 0.930 . S
C2090 C2089 1.362 . S
C2090 C2093 1.409 . S
C2091 H2083 0.930 . S
C2091 C2092 1.355 . S
C2091 C2093 1.415 . S
C2092 C2091 1.355 . S
C2092 C2094 1.419 . S
C2093 C2088 1.425 . S
C2093 C2090 1.409 . S
C2093 C2091 1.415 . S
C2094 H2084 0.930 . S
C2094 C2092 1.419 . S
C2094 C2095 1.362 . S
C2095 H2085 0.930 . S
C2095 C2088 1.409 . S
C2095 C2094 1.362 . S
H2096 C2102 0.930 . S
H2097 C2105 0.930 . S
H2098 C2106 0.930 . S
H2099 C2107 0.930 . S
H2100 C2110 0.930 . S
H2101 C2111 0.930 . S
C2102 H2096 0.930 . S
C2102 C2103 1.355 . S
C2102 C2104 1.415 . S
C2103 C2102 1.355 . S
C2103 C2105 1.419 . S
C2104 C2102 1.415 . S
C2104 C2109 1.425 . S
C2104 C2111 1.409 . S
C2105 H2097 0.930 . S
C2105 C2103 1.419 . S
C2105 C2106 1.362 . S
C2106 H2098 0.930 . S
C2106 C2105 1.362 . S
C2106 C2109 1.409 . S
C2107 H2099 0.930 . S
C2107 C2108 1.355 . S
C2107 C2109 1.415 . S
C2108 C2107 1.355 . S
C2108 C2110 1.419 . S
C2109 C2104 1.425 . S
C2109 C2106 1.409 . S
C2109 C2107 1.415 . S
C2110 H2100 0.930 . S
C2110 C2108 1.419 . S
C2110 C2111 1.362 . S
C2111 H2101 0.930 . S
C2111 C2104 1.409 . S
C2111 C2110 1.362 . S
H2112 C2118 0.930 . S
H2113 C2121 0.930 . S
H2114 C2122 0.930 . S
H2115 C2123 0.930 . S
H2116 C2126 0.930 . S
H2117 C2127 0.930 . S
C2118 H2112 0.930 . S
C2118 C2119 1.355 . S
C2118 C2120 1.415 . S
C2119 C2118 1.355 . S
C2119 C2121 1.419 . S
C2120 C2118 1.415 . S
C2120 C2125 1.425 . S
C2120 C2127 1.409 . S
C2121 H2113 0.930 . S
C2121 C2119 1.419 . S
C2121 C2122 1.362 . S
C2122 H2114 0.930 . S
C2122 C2121 1.362 . S
C2122 C2125 1.409 . S
C2123 H2115 0.930 . S
C2123 C2124 1.355 . S
C2123 C2125 1.415 . S
C2124 C2123 1.355 . S
C2124 C2126 1.419 . S
C2125 C2120 1.425 . S
C2125 C2122 1.409 . S
C2125 C2123 1.415 . S
C2126 H2116 0.930 . S
C2126 C2124 1.419 . S
C2126 C2127 1.362 . S
C2127 H2117 0.930 . S
C2127 C2120 1.409 . S
C2127 C2126 1.362 . S
H2128 C2134 0.930 . S
H2129 C2137 0.930 . S
H2130 C2138 0.930 . S
H2131 C2139 0.930 . S
H2132 C2142 0.930 . S
H2133 C2143 0.930 . S
C2134 H2128 0.930 . S
C2134 C2135 1.355 . S
C2134 C2136 1.415 . S
C2135 C2134 1.355 . S
C2135 C2137 1.419 . S
C2136 C2134 1.415 . S
C2136 C2141 1.425 . S
C2136 C2143 1.409 . S
C2137 H2129 0.930 . S
C2137 C2135 1.419 . S
C2137 C2138 1.362 . S
C2138 H2130 0.930 . S
C2138 C2137 1.362 . S
C2138 C2141 1.409 . S
C2139 H2131 0.930 . S
C2139 C2140 1.355 . S
C2139 C2141 1.415 . S
C2140 C2139 1.355 . S
C2140 C2142 1.419 . S
C2141 C2136 1.425 . S
C2141 C2138 1.409 . S
C2141 C2139 1.415 . S
C2142 H2132 0.930 . S
C2142 C2140 1.419 . S
C2142 C2143 1.362 . S
C2143 H2133 0.930 . S
C2143 C2136 1.409 . S
C2143 C2142 1.362 . S
H2144 C2150 0.930 . S
H2145 C2153 0.930 . S
H2146 C2154 0.930 . S
H2147 C2155 0.930 . S
H2148 C2158 0.930 . S
H2149 C2159 0.930 . S
C2150 H2144 0.930 . S
C2150 C2151 1.355 . S
C2150 C2152 1.415 . S
C2151 C2150 1.355 . S
C2151 C2153 1.419 . S
C2152 C2150 1.415 . S
C2152 C2157 1.425 . S
C2152 C2159 1.409 . S
C2153 H2145 0.930 . S
C2153 C2151 1.419 . S
C2153 C2154 1.362 . S
C2154 H2146 0.930 . S
C2154 C2153 1.362 . S
C2154 C2157 1.409 . S
C2155 H2147 0.930 . S
C2155 C2156 1.355 . S
C2155 C2157 1.415 . S
C2156 C2155 1.355 . S
C2156 C2158 1.419 . S
C2157 C2152 1.425 . S
C2157 C2154 1.409 . S
C2157 C2155 1.415 . S
C2158 H2148 0.930 . S
C2158 C2156 1.419 . S
C2158 C2159 1.362 . S
C2159 H2149 0.930 . S
C2159 C2152 1.409 . S
C2159 C2158 1.362 . S
H2160 C2166 0.930 . S
H2161 C2169 0.930 . S
H2162 C2170 0.930 . S
H2163 C2171 0.930 . S
H2164 C2174 0.930 . S
H2165 C2175 0.930 . S
C2166 H2160 0.930 . S
C2166 C2167 1.355 . S
C2166 C2168 1.415 . S
C2167 C2166 1.355 . S
C2167 C2169 1.419 . S
C2168 C2166 1.415 . S
C2168 C2173 1.425 . S
C2168 C2175 1.409 . S
C2169 H2161 0.930 . S
C2169 C2167 1.419 . S
C2169 C2170 1.362 . S
C2170 H2162 0.930 . S
C2170 C2169 1.362 . S
C2170 C2173 1.409 . S
C2171 H2163 0.930 . S
C2171 C2172 1.355 . S
C2171 C2173 1.415 . S
C2172 C2171 1.355 . S
C2172 C2174 1.419 . S
C2173 C2168 1.425 . S
C2173 C2170 1.409 . S
C2173 C2171 1.415 . S
C2174 H2164 0.930 . S
C2174 C2172 1.419 . S
C2174 C2175 1.362 . S
C2175 H2165 0.930 . S
C2175 C2168 1.409 . S
C2175 C2174 1.362 . S
C1159 C544 1.323 . S
C1164 C4 1.377 . S
C1175 C38 1.526 . S
C1180 C436 1.488 . S
C1191 C76 1.346 . S
C1196 C472 1.365 . S
C1207 C508 1.519 . S
C1212 C110 1.489 . S
C1223 C148 1.367 . S
C1228 C328 1.339 . S
C1239 C182 1.505 . S
C1244 C364 1.504 . S
C1255 C400 1.326 . S
C1260 C220 1.376 . S
C1271 C292 1.514 . S
C1276 C254 1.494 . S
C1287 C580 1.336 . S
C1292 C1120 1.371 . S
C1303 C614 1.524 . S
C1308 C1012 1.491 . S
C1319 C652 1.336 . S
C1324 C1048 1.371 . S
C1335 C1084 1.501 . S
C1340 C686 1.514 . S
C1351 C724 1.373 . S
C1356 C904 1.331 . S
C1367 C758 1.482 . S
C1372 C940 1.528 . S
C1383 C976 1.352 . S
C1388 C796 1.357 . S
C1399 C830 1.508 . S
C1404 C868 1.501 . S
C1415 C435 1.355 . S
C1420 C3 1.360 . S
C1431 C50 1.269 . S
C1436 C471 1.330 . S
C1447 C507 1.357 . S
C1452 C75 1.361 . S
C1463 C122 1.316 . S
C1468 C543 1.316 . S
C1479 C147 1.360 . S
C1484 C291 1.359 . S
C1495 C327 1.325 . S
C1500 C194 1.258 . S
C1511 C363 1.361 . S
C1516 C219 1.359 . S
C1527 C399 1.335 . S
C1532 C266 1.228 . S
C1543 C579 1.358 . S
C1548 C1011 1.359 . S
C1559 C1047 1.329 . S
C1564 C626 1.276 . S
C1575 C651 1.363 . S
C1580 C1083 1.352 . S
C1591 C698 1.249 . S
C1596 C1119 1.334 . S
C1607 C867 1.358 . S
C1612 C723 1.359 . S
C1623 C770 1.315 . S
C1628 C903 1.315 . S
C1639 C795 1.355 . S
C1644 C939 1.365 . S
C1655 C842 1.308 . S
C1660 C975 1.320 . S
C1671 C2 1.365 . S
C1676 C362 1.313 . S
C1687 C398 1.318 . S
C1692 C40 1.315 . S
C1703 C74 1.342 . S
C1708 C290 1.334 . S
C1719 C326 1.348 . S
C1724 C112 1.286 . S
C1735 C506 1.367 . S
C1740 C146 1.314 . S
C1751 C542 1.325 . S
C1756 C184 1.317 . S
C1767 C434 1.362 . S
C1772 C218 1.320 . S
C1783 C256 1.294 . S
C1788 C470 1.345 . S
C1799 C938 1.359 . S
C1804 C578 1.320 . S
C1815 C616 1.284 . S
C1820 C974 1.351 . S
C1831 C866 1.360 . S
C1836 C650 1.319 . S
C1847 C902 1.293 . S
C1852 C688 1.345 . S
C1863 C722 1.372 . S
C1868 C1082 1.304 . S
C1879 C760 1.301 . S
C1884 C1118 1.332 . S
C1895 C1010 1.336 . S
C1900 C794 1.345 . S
C1911 C1046 1.299 . S
C1916 C832 1.337 . S
C1927 C831 1.219 . S
C1932 C14 1.205 . S
C1943 C734 1.214 . S
C1948 C39 1.201 . S
C1959 C759 1.215 . S
C1964 C86 1.213 . S
C1975 C806 1.132 . S
C1980 C111 1.233 . S
C1991 C615 1.202 . S
C1996 C158 1.200 . S
C2007 C183 1.235 . S
C2012 C662 1.138 . S
C2023 C230 1.151 . S
C2028 C687 1.234 . S
C2039 C255 1.232 . S
C2044 C590 1.163 . S
C2055 C302 1.213 . S
C2060 C1130 1.252 . S
C2071 C1022 1.186 . S
C2076 C338 1.228 . S
C2087 C374 1.215 . S
C2092 C1058 1.251 . S
C2103 C410 1.169 . S
C2108 C1094 1.266 . S
C2119 C914 1.173 . S
C2124 C446 1.267 . S
C2135 C950 1.197 . S
C2140 C482 1.210 . S
C2151 C518 1.262 . S
C2156 C986 1.163 . S
C2167 C554 1.229 . S
C2172 C878 1.239 . S
