# Generated by pormake.
# Topology mmt, (4)-cn, num edge types: 1
# Building blocks:
#     Node 0, Type 0, BuildingBlock: UXUYUI_clean_sbu_0, # of connection points: 4
#     Node 1, Type 0, BuildingBlock: UXUYUI_clean_sbu_0, # of connection points: 4
#     Node 2, Type 0, BuildingBlock: UXUYUI_clean_sbu_0, # of connection points: 4
#     Node 3, Type 0, BuildingBlock: UXUYUI_clean_sbu_0, # of connection points: 4
#     Node 4, Type 0, BuildingBlock: UXUYUI_clean_sbu_0, # of connection points: 4
#     Node 5, Type 0, BuildingBlock: UXUYUI_clean_sbu_0, # of connection points: 4
#     Node 6, Type 0, BuildingBlock: UXUYUI_clean_sbu_0, # of connection points: 4
#     Node 7, Type 0, BuildingBlock: UXUYUI_clean_sbu_0, # of connection points: 4
#     Edge 8, Type (0, 0), BuildingBlock: OJICUG_clean_linker_0, # of connection points: 2
#     Edge 9, Type (0, 0), BuildingBlock: OJICUG_clean_linker_0, # of connection points: 2
#     Edge 10, Type (0, 0), BuildingBlock: OJICUG_clean_linker_0, # of connection points: 2
#     Edge 11, Type (0, 0), BuildingBlock: OJICUG_clean_linker_0, # of connection points: 2
#     Edge 12, Type (0, 0), BuildingBlock: OJICUG_clean_linker_0, # of connection points: 2
#     Edge 13, Type (0, 0), BuildingBlock: OJICUG_clean_linker_0, # of connection points: 2
#     Edge 14, Type (0, 0), BuildingBlock: OJICUG_clean_linker_0, # of connection points: 2
#     Edge 15, Type (0, 0), BuildingBlock: OJICUG_clean_linker_0, # of connection points: 2
#     Edge 16, Type (0, 0), BuildingBlock: OJICUG_clean_linker_0, # of connection points: 2
#     Edge 17, Type (0, 0), BuildingBlock: OJICUG_clean_linker_0, # of connection points: 2
#     Edge 18, Type (0, 0), BuildingBlock: OJICUG_clean_linker_0, # of connection points: 2
#     Edge 19, Type (0, 0), BuildingBlock: OJICUG_clean_linker_0, # of connection points: 2
#     Edge 20, Type (0, 0), BuildingBlock: OJICUG_clean_linker_0, # of connection points: 2
#     Edge 21, Type (0, 0), BuildingBlock: OJICUG_clean_linker_0, # of connection points: 2
#     Edge 22, Type (0, 0), BuildingBlock: OJICUG_clean_linker_0, # of connection points: 2
#     Edge 23, Type (0, 0), BuildingBlock: OJICUG_clean_linker_0, # of connection points: 2
# Relax obj value: 0.161
# Max RMSD: 0.176
# Mean RMSD: 0.176
data_MOF--net-mmt--node1-UXUYUI_clean_sbu_0--edge1-OJICUG_clean_linker_0
_symmetry_space_group_name_H-M    P1
_symmetry_Int_Tables_number       1
_symmetry_cell_setting            triclinic
loop_
_symmetry_equiv_pos_as_xyz
'x, y, z'
_cell_length_a     25.931706
_cell_length_b     46.963077
_cell_length_c     52.006224
_cell_angle_alpha  90.008342
_cell_angle_beta   89.984701
_cell_angle_gamma 90.017298
loop_
_atom_site_label
_atom_site_type_symbol
_atom_site_fract_x
_atom_site_fract_y
_atom_site_fract_z
_atom_type_partial_charge
Li0 Li 0.09243 0.56617 0.33287 0.0
Li1 Li 0.11581 0.55857 0.37677 0.0
Li2 Li 0.14993 0.60036 0.35187 0.0
Li3 Li 0.17767 0.55086 0.34188 0.0
C4 C 0.0288 0.60097 0.36061 0.0
N5 N 0.92789 0.61926 0.35662 0.0
C6 C 0.98825 0.58185 0.3645 0.0
C7 C 0.01809 0.62944 0.35489 0.0
C8 C 0.93748 0.59149 0.36233 0.0
C9 C 0.96679 0.63826 0.35291 0.0
C10 C 0.12496 0.50384 0.35907 0.0
C11 C 0.1763 0.47415 0.38694 0.0
N12 N 0.14801 0.45112 0.37969 0.0
C13 C 0.0964 0.47988 0.35191 0.0
C14 C 0.16525 0.50098 0.37676 0.0
C15 C 0.10864 0.45341 0.36254 0.0
C16 C 0.04454 0.53305 0.29681 0.0
N17 N 0.03979 0.55918 0.30773 0.0
C18 C 0.96491 0.56883 0.28226 0.0
C19 C 0.00172 0.5774 0.30037 0.0
C20 C 0.96785 0.54143 0.27142 0.0
C21 C 0.00907 0.52373 0.27858 0.0
H22 H 0.07613 0.51934 0.3023 0.0
H23 H 0.99958 0.59848 0.30856 0.0
C24 C 0.11336 0.5541 0.43163 0.0
N25 N 0.09139 0.5454 0.40924 0.0
C26 C 0.09448 0.54415 0.4552 0.0
C27 C 0.0307 0.51666 0.43214 0.0
C28 C 0.05097 0.52698 0.4091 0.0
C29 C 0.05244 0.52517 0.45568 0.0
H30 H 0.14552 0.56874 0.43117 0.0
H31 H 0.03432 0.52031 0.39102 0.0
C32 C 0.13869 0.59287 0.29555 0.0
N33 N 0.09852 0.61449 0.25037 0.0
C34 C 0.14672 0.5786 0.27231 0.0
C35 C 0.11042 0.61821 0.29578 0.0
C36 C 0.12603 0.58985 0.24968 0.0
C37 C 0.09042 0.62879 0.27275 0.0
C38 C 0.23829 0.58231 0.37769 0.0
C39 C 0.26732 0.59031 0.35622 0.0
C40 C 0.25978 0.5846 0.40224 0.0
C41 C 0.31745 0.60049 0.35968 0.0
C42 C 0.31007 0.59488 0.4049 0.0
N43 N 0.33762 0.60256 0.38375 0.0
C44 C 0.15824 0.65646 0.3729 0.0
C45 C 0.20603 0.64788 0.33485 0.0
C46 C 0.17667 0.68447 0.37398 0.0
N47 N 0.17312 0.63889 0.3535 0.0
C48 C 0.2257 0.67551 0.3353 0.0
C49 C 0.21098 0.69436 0.35498 0.0
H50 H 0.13202 0.64872 0.38749 0.0
H51 H 0.21742 0.63347 0.31967 0.0
C52 C 0.21941 0.51535 0.30531 0.0
N53 N 0.23109 0.52725 0.32839 0.0
C54 C 0.25646 0.49998 0.29173 0.0
C55 C 0.31619 0.50778 0.32669 0.0
C56 C 0.27776 0.52295 0.33967 0.0
C57 C 0.30607 0.49661 0.30211 0.0
H58 H 0.18145 0.51841 0.2972 0.0
H59 H 0.28564 0.53171 0.35847 0.0
O60 O 0.07875 0.59205 0.3628 0.0
O61 O 0.11299 0.52987 0.34883 0.0
O62 O 0.15726 0.58184 0.31808 0.0
O63 O 0.18878 0.5727 0.37487 0.0
H64 H 0.99589 0.55974 0.36879 0.0
H65 H 0.04907 0.64455 0.35199 0.0
H66 H 0.9057 0.57689 0.36511 0.0
H67 H 0.95791 0.66021 0.34842 0.0
H68 H 0.20736 0.47164 0.40064 0.0
H69 H 0.06495 0.48173 0.33832 0.0
H70 H 0.18777 0.51919 0.38265 0.0
H71 H 0.08682 0.4347 0.35717 0.0
H72 H 0.93392 0.58325 0.27726 0.0
H73 H 0.01395 0.5028 0.27019 0.0
H74 H 0.11297 0.55104 0.47279 0.0
H75 H 0.99781 0.50248 0.43145 0.0
H76 H 0.16862 0.55904 0.27168 0.0
H77 H 0.10334 0.62939 0.3136 0.0
H78 H 0.13182 0.57897 0.23157 0.0
H79 H 0.06822 0.64829 0.2727 0.0
H80 H 0.25155 0.58844 0.33706 0.0
H81 H 0.23783 0.57854 0.41907 0.0
H82 H 0.34035 0.60672 0.34322 0.0
H83 H 0.32719 0.59677 0.42379 0.0
H84 H 0.1637 0.69827 0.38935 0.0
H85 H 0.25274 0.68185 0.3205 0.0
H86 H 0.24689 0.49184 0.27284 0.0
H87 H 0.3536 0.50514 0.33563 0.0
Li88 Li 0.32418 0.95308 0.34427 0.0
Li89 Li 0.35559 0.90327 0.3531 0.0
Li90 Li 0.39153 0.94697 0.37579 0.0
Li91 Li 0.41027 0.93883 0.33168 0.0
C92 C 0.27053 0.93505 0.38476 0.0
N93 N 0.16927 0.94418 0.39913 0.0
C94 C 0.23436 0.91309 0.38276 0.0
C95 C 0.25533 0.96154 0.39438 0.0
C96 C 0.18332 0.91815 0.39005 0.0
C97 C 0.20393 0.96577 0.40145 0.0
C98 C 0.35222 0.91782 0.29481 0.0
C99 C 0.38317 0.8881 0.26032 0.0
N100 N 0.37391 0.90956 0.24337 0.0
C101 C 0.34274 0.93954 0.27708 0.0
C102 C 0.37242 0.89185 0.28642 0.0
C103 C 0.35408 0.93497 0.25114 0.0
C104 C 0.26833 1.00039 0.32452 0.0
N105 N 0.26521 0.97266 0.33186 0.0
C106 C 0.18144 0.96841 0.31323 0.0
C107 C 0.22278 0.9567 0.32669 0.0
C108 C 0.18426 0.99667 0.30443 0.0
C109 C 0.2279 0.01296 0.31082 0.0
H110 H 0.3033 0.0123 0.32803 0.0
H111 H 0.22209 0.93443 0.33193 0.0
C112 C 0.34982 0.84621 0.3729 0.0
N113 N 0.33225 0.86489 0.35496 0.0
C114 C 0.33067 0.81835 0.37361 0.0
C115 C 0.27483 0.82987 0.3379 0.0
C116 C 0.29535 0.85732 0.33773 0.0
C117 C 0.29266 0.8098 0.35588 0.0
H118 H 0.37893 0.85291 0.38652 0.0
H119 H 0.28138 0.8728 0.324 0.0
C120 C 0.40686 0.99904 0.35863 0.0
N121 N 0.44535 0.04716 0.38246 0.0
C122 C 0.4591 0.00598 0.35639 0.0
C123 C 0.37412 0.01674 0.37278 0.0
C124 C 0.47783 0.03036 0.36862 0.0
C125 C 0.39434 0.04091 0.38475 0.0
C126 C 0.47408 0.90073 0.35353 0.0
C127 C 0.52012 0.91623 0.35383 0.0
C128 C 0.47457 0.87226 0.34567 0.0
C129 C 0.56591 0.90296 0.34628 0.0
C130 C 0.52117 0.85974 0.33831 0.0
N131 N 0.56549 0.87522 0.33876 0.0
C132 C 0.38729 0.96273 0.42883 0.0
C133 C 0.46894 0.96822 0.40904 0.0
C134 C 0.40662 0.97346 0.45201 0.0
N135 N 0.41844 0.96054 0.40788 0.0
C136 C 0.48966 0.97939 0.43164 0.0
C137 C 0.45836 0.98221 0.45349 0.0
H138 H 0.34739 0.95624 0.42755 0.0
H139 H 0.49313 0.96605 0.39232 0.0
C140 C 0.45943 0.97228 0.29498 0.0
N141 N 0.45844 0.94512 0.30402 0.0
C142 C 0.49318 0.97997 0.27532 0.0
C143 C 0.523 0.9313 0.27357 0.0
C144 C 0.48823 0.92449 0.29319 0.0
C145 C 0.52613 0.95946 0.2646 0.0
H146 H 0.43404 0.98812 0.30313 0.0
H147 H 0.4851 0.90273 0.29965 0.0
O148 O 0.32057 0.93061 0.37742 0.0
O149 O 0.34286 0.92219 0.32035 0.0
O150 O 0.38788 0.97505 0.34704 0.0
O151 O 0.42892 0.91316 0.36126 0.0
H152 H 0.24546 0.89239 0.37558 0.0
H153 H 0.28289 0.97865 0.39633 0.0
H154 H 0.15487 0.90139 0.38847 0.0
H155 H 0.1916 0.98621 0.4088 0.0
H156 H 0.39911 0.86818 0.25355 0.0
H157 H 0.32734 0.95981 0.28335 0.0
H158 H 0.38036 0.87492 0.29999 0.0
H159 H 0.34725 0.95164 0.2372 0.0
H160 H 0.14837 0.95514 0.30899 0.0
H161 H 0.23209 0.03465 0.30407 0.0
H162 H 0.34601 0.8036 0.38766 0.0
H163 H 0.24479 0.82461 0.32425 0.0
H164 H 0.48514 0.99241 0.3457 0.0
H165 H 0.33354 0.01188 0.3745 0.0
H166 H 0.51825 0.03586 0.36722 0.0
H167 H 0.36945 0.05473 0.39585 0.0
H168 H 0.52046 0.93839 0.35932 0.0
H169 H 0.43937 0.85997 0.34505 0.0
H170 H 0.60174 0.91476 0.34628 0.0
H171 H 0.52206 0.83774 0.33216 0.0
H172 H 0.38118 0.97536 0.46844 0.0
H173 H 0.52993 0.9855 0.43207 0.0
H174 H 0.49433 0.00195 0.26904 0.0
H175 H 0.54701 0.91472 0.26544 0.0
Li176 Li 0.6781 0.45128 0.15972 0.0
Li177 Li 0.65051 0.4027 0.14931 0.0
Li178 Li 0.61343 0.4456 0.12621 0.0
Li179 Li 0.58805 0.43508 0.17064 0.0
C180 C 0.73327 0.43862 0.1176 0.0
N181 N 0.82997 0.45492 0.10077 0.0
C182 C 0.77424 0.41931 0.11821 0.0
C183 C 0.74129 0.46606 0.10802 0.0
C184 C 0.8229 0.42799 0.10973 0.0
C185 C 0.7905 0.47395 0.09972 0.0
C186 C 0.66321 0.40198 0.20322 0.0
C187 C 0.63158 0.36579 0.23213 0.0
N188 N 0.67923 0.3638 0.24289 0.0
C189 C 0.71166 0.39989 0.21485 0.0
C190 C 0.62267 0.38505 0.21216 0.0
C191 C 0.71908 0.38033 0.23475 0.0
C192 C 0.72853 0.49903 0.18208 0.0
N193 N 0.73498 0.47206 0.17312 0.0
C194 C 0.8202 0.47017 0.19037 0.0
C195 C 0.77995 0.45775 0.1766 0.0
C196 C 0.81396 0.49752 0.20086 0.0
C197 C 0.76796 0.51235 0.19596 0.0
H198 H 0.69191 0.50966 0.17959 0.0
H199 H 0.78361 0.43609 0.16983 0.0
C200 C 0.6501 0.344 0.13358 0.0
N201 N 0.6757 0.36453 0.14691 0.0
C202 C 0.66923 0.31615 0.13282 0.0
C203 C 0.74144 0.33136 0.15876 0.0
C204 C 0.72097 0.35881 0.159 0.0
C205 C 0.7153 0.30947 0.14576 0.0
H206 H 0.61468 0.34919 0.12367 0.0
H207 H 0.74152 0.37571 0.16867 0.0
C208 C 0.5914 0.49711 0.14802 0.0
N209 N 0.54922 0.54773 0.13093 0.0
C210 C 0.53973 0.50348 0.15308 0.0
C211 C 0.62183 0.51672 0.13467 0.0
C212 C 0.51906 0.52911 0.14417 0.0
C213 C 0.59975 0.54212 0.12607 0.0
C214 C 0.53345 0.3948 0.14096 0.0
C215 C 0.48974 0.4024 0.12681 0.0
C216 C 0.5323 0.37034 0.15625 0.0
C217 C 0.4452 0.38579 0.1287 0.0
C218 C 0.48704 0.35427 0.15764 0.0
N219 N 0.44475 0.36229 0.14398 0.0
C220 C 0.61749 0.45934 0.07281 0.0
C221 C 0.53898 0.47076 0.09369 0.0
C222 C 0.59866 0.47003 0.04952 0.0
N223 N 0.58767 0.46006 0.09431 0.0
C224 C 0.51875 0.4818 0.07092 0.0
C225 C 0.54869 0.48157 0.04841 0.0
H226 H 0.65585 0.45041 0.07369 0.0
H227 H 0.51562 0.47056 0.11088 0.0
C228 C 0.55119 0.44568 0.22018 0.0
N229 N 0.53529 0.4393 0.19595 0.0
C230 C 0.5153 0.45203 0.23934 0.0
C231 C 0.4471 0.44499 0.20833 0.0
C232 C 0.48436 0.43867 0.18978 0.0
C233 C 0.46243 0.4522 0.23344 0.0
H234 H 0.59197 0.44656 0.22446 0.0
H235 H 0.47263 0.43455 0.17024 0.0
O236 O 0.68547 0.43062 0.1261 0.0
O237 O 0.65531 0.42102 0.18365 0.0
O238 O 0.61218 0.472 0.15642 0.0
O239 O 0.5774 0.41087 0.13931 0.0
H240 H 0.76864 0.39787 0.12523 0.0
H241 H 0.70983 0.48106 0.10693 0.0
H242 H 0.85502 0.41332 0.11025 0.0
H243 H 0.79727 0.49517 0.09238 0.0
H244 H 0.60052 0.35252 0.23916 0.0
H245 H 0.74336 0.41306 0.20849 0.0
H246 H 0.58453 0.38702 0.20406 0.0
H247 H 0.75651 0.37834 0.24375 0.0
H248 H 0.85522 0.4581 0.19353 0.0
H249 H 0.76139 0.53332 0.20397 0.0
H250 H 0.64772 0.29994 0.12261 0.0
H251 H 0.77768 0.3274 0.16847 0.0
H252 H 0.51568 0.48868 0.16353 0.0
H253 H 0.66213 0.51247 0.13109 0.0
H254 H 0.47901 0.53419 0.14776 0.0
H255 H 0.62282 0.55742 0.1156 0.0
H256 H 0.49006 0.42098 0.11457 0.0
H257 H 0.56614 0.36358 0.16668 0.0
H258 H 0.411 0.39156 0.118 0.0
H259 H 0.48563 0.33535 0.16947 0.0
H260 H 0.62316 0.46955 0.03266 0.0
H261 H 0.47972 0.49 0.07085 0.0
H262 H 0.5289 0.45722 0.25846 0.0
H263 H 0.40689 0.44544 0.20274 0.0
Li264 Li 0.82285 0.04978 0.15837 0.0
Li265 Li 0.85353 0.09969 0.1505 0.0
Li266 Li 0.88994 0.05846 0.12618 0.0
Li267 Li 0.90826 0.06401 0.17125 0.0
C268 C 0.76924 0.07378 0.11664 0.0
N269 N 0.66973 0.07533 0.09768 0.0
C270 C 0.73292 0.09225 0.1274 0.0
C271 C 0.75517 0.05642 0.09596 0.0
C272 C 0.68274 0.09262 0.11764 0.0
C273 C 0.70462 0.05743 0.08672 0.0
C274 C 0.85079 0.08214 0.20888 0.0
C275 C 0.88885 0.10735 0.24452 0.0
N276 N 0.87428 0.08591 0.26054 0.0
C277 C 0.83603 0.0604 0.22568 0.0
C278 C 0.87727 0.10586 0.21832 0.0
C279 C 0.84831 0.0627 0.25175 0.0
C280 C 0.76581 1.00022 0.17443 0.0
N281 N 0.76407 0.02879 0.17011 0.0
C282 C 0.68129 0.03171 0.19024 0.0
C283 C 0.72288 0.04455 0.17776 0.0
C284 C 0.6823 0.00231 0.19527 0.0
C285 C 0.72497 0.98647 0.18678 0.0
H286 H 0.7997 0.98815 0.16946 0.0
H287 H 0.72351 0.0674 0.17543 0.0
C288 C 0.84235 0.1547 0.12827 0.0
N289 N 0.83199 0.13836 0.14921 0.0
C290 C 0.82437 0.18277 0.12704 0.0
C291 C 0.78567 0.17652 0.16896 0.0
C292 C 0.80426 0.14865 0.16935 0.0
C293 C 0.79556 0.19402 0.14759 0.0
H294 H 0.86428 0.14586 0.11247 0.0
H295 H 0.79582 0.13501 0.18556 0.0
C296 C 0.88591 0.00231 0.14272 0.0
N297 N 0.883 0.94908 0.12017 0.0
C298 C 0.92115 0.98137 0.15015 0.0
C299 C 0.84939 0.99625 0.12376 0.0
C300 C 0.919 0.95456 0.13854 0.0
C301 C 0.84846 0.9692 0.11261 0.0
C302 C 0.97813 0.09064 0.13613 0.0
C303 C 0.00824 0.0664 0.14028 0.0
C304 C 0.99997 0.11451 0.12436 0.0
C305 C 0.05984 0.06644 0.13256 0.0
C306 C 0.05173 0.11373 0.11692 0.0
N307 N 0.08034 0.08991 0.12114 0.0
C308 C 0.89882 0.05753 0.07153 0.0
C309 C 0.95609 0.02687 0.09371 0.0
C310 C 0.91879 0.0486 0.04786 0.0
N311 N 0.91763 0.04654 0.09382 0.0
C312 C 0.97711 0.01738 0.07059 0.0
C313 C 0.95858 0.02825 0.04719 0.0
H314 H 0.86833 0.07322 0.07216 0.0
H315 H 0.97043 0.01835 0.11161 0.0
C316 C 0.95177 0.03093 0.20923 0.0
N317 N 0.9573 0.05668 0.1977 0.0
C318 C 0.9869 0.02199 0.22777 0.0
C319 C 0.03229 0.06665 0.22289 0.0
C320 C 0.996 0.07479 0.20437 0.0
C321 C 0.02845 0.03967 0.23449 0.0
H322 H 0.92019 0.01716 0.20375 0.0
H323 H 0.9993 0.09523 0.19492 0.0
O324 O 0.81869 0.07322 0.12582 0.0
O325 O 0.84047 0.0799 0.18319 0.0
O326 O 0.88852 0.0289 0.15337 0.0
O327 O 0.92741 0.09111 0.14333 0.0
H328 H 0.74316 0.10595 0.14329 0.0
H329 H 0.78304 0.04245 0.08698 0.0
H330 H 0.65415 0.10665 0.12593 0.0
H331 H 0.69316 0.04405 0.07078 0.0
H332 H 0.9096 0.12549 0.25209 0.0
H333 H 0.81578 0.04182 0.21861 0.0
H334 H 0.88933 0.12273 0.20547 0.0
H335 H 0.83737 0.04598 0.26498 0.0
H336 H 0.64997 0.04496 0.19704 0.0
H337 H 0.72746 0.96377 0.19026 0.0
H338 H 0.83329 0.19557 0.1103 0.0
H339 H 0.7629 0.18409 0.18502 0.0
H340 H 0.95009 0.98584 0.16459 0.0
H341 H 0.82196 0.01224 0.11784 0.0
H342 H 0.94604 0.93814 0.14408 0.0
H343 H 0.8203 0.96421 0.09794 0.0
H344 H 0.99193 0.04766 0.14923 0.0
H345 H 0.9771 0.13343 0.12098 0.0
H346 H 0.08354 0.0478 0.13562 0.0
H347 H 0.06915 0.13205 0.10777 0.0
H348 H 0.90365 0.05776 0.03031 0.0
H349 H 0.00707 1.00133 0.07105 0.0
H350 H 0.98184 1.00129 0.23659 0.0
H351 H 0.06387 0.08087 0.22744 0.0
Li352 Li 0.83355 0.4509 0.66249 0.0
Li353 Li 0.91899 0.43726 0.67428 0.0
Li354 Li 0.89443 0.44782 0.62776 0.0
Li355 Li 0.86026 0.40472 0.65102 0.0
C356 C 0.88889 0.50081 0.66431 0.0
N357 N 0.87072 0.55682 0.6777 0.0
C358 C 0.88369 0.50839 0.69016 0.0
C359 C 0.88531 0.52171 0.64526 0.0
C360 C 0.87434 0.53682 0.69654 0.0
C361 C 0.87603 0.54992 0.65243 0.0
C362 C 0.86631 0.3993 0.70377 0.0
C363 C 0.91754 0.35865 0.71613 0.0
N364 N 0.89184 0.35741 0.73889 0.0
C365 C 0.84052 0.39765 0.72734 0.0
C366 C 0.9053 0.37968 0.69816 0.0
C367 C 0.85395 0.37632 0.74482 0.0
C368 C 0.74923 0.45645 0.69469 0.0
N369 N 0.77543 0.47119 0.67641 0.0
C370 C 0.7244 0.51269 0.68459 0.0
C371 C 0.76245 0.49849 0.67046 0.0
C372 C 0.69916 0.49846 0.70478 0.0
C373 C 0.71086 0.46967 0.70913 0.0
H374 H 0.75893 0.4345 0.69847 0.0
H375 H 0.78254 0.5096 0.65531 0.0
C376 C 0.02194 0.44266 0.69245 0.0
N377 N 0.97135 0.44233 0.69925 0.0
C378 C 0.05949 0.45039 0.71045 0.0
C379 C 0.99207 0.45659 0.74209 0.0
C380 C 0.95599 0.44859 0.72359 0.0
C381 C 0.04447 0.45814 0.73547 0.0
H382 H 0.03288 0.43803 0.67282 0.0
H383 H 0.91541 0.44845 0.72837 0.0
C384 C 0.77665 0.44367 0.62285 0.0
N385 N 0.68177 0.46817 0.6133 0.0
C386 C 0.73148 0.42985 0.63054 0.0
C387 C 0.77364 0.46987 0.61021 0.0
C388 C 0.68386 0.44262 0.62557 0.0
C389 C 0.72527 0.48191 0.60556 0.0
C390 C 0.96137 0.39697 0.6271 0.0
C391 C 0.94597 0.39291 0.60162 0.0
C392 C 0.00531 0.38313 0.63633 0.0
C393 C 0.97488 0.37499 0.58574 0.0
C394 C 0.03313 0.36533 0.61987 0.0
N395 N 0.01749 0.36168 0.59512 0.0
C396 C 0.96535 0.47825 0.59753 0.0
C397 C 0.89678 0.45773 0.57375 0.0
C398 C 0.98737 0.48908 0.57503 0.0
N399 N 0.92098 0.46288 0.59646 0.0
C400 C 0.91773 0.4679 0.55075 0.0
C401 C 0.96373 0.48374 0.55121 0.0
H402 H 0.98379 0.48191 0.61589 0.0
H403 H 0.86153 0.44541 0.57347 0.0
C404 C 0.79302 0.36062 0.66235 0.0
N405 N 0.83624 0.36617 0.6484 0.0
C406 C 0.7713 0.33343 0.66239 0.0
C407 C 0.83849 0.318 0.63339 0.0
C408 C 0.85926 0.34548 0.63413 0.0
C409 C 0.794 0.3117 0.64772 0.0
H410 H 0.77543 0.37742 0.67355 0.0
H411 H 0.89378 0.35004 0.62339 0.0
O412 O 0.89816 0.47314 0.65763 0.0
O413 O 0.85351 0.42027 0.68658 0.0
O414 O 0.82366 0.43187 0.62807 0.0
O415 O 0.93429 0.41483 0.64287 0.0
H416 H 0.88613 0.49245 0.7051 0.0
H417 H 0.88927 0.51616 0.62516 0.0
H418 H 0.86984 0.54298 0.71646 0.0
H419 H 0.87292 0.56631 0.63791 0.0
H420 H 0.94752 0.34331 0.71197 0.0
H421 H 0.8106 0.41278 0.73217 0.0
H422 H 0.92587 0.3805 0.68015 0.0
H423 H 0.83429 0.37483 0.76312 0.0
H424 H 0.71638 0.53483 0.68042 0.0
H425 H 0.69117 0.45754 0.72388 0.0
H426 H 0.09946 0.45163 0.70451 0.0
H427 H 0.97898 0.46218 0.76122 0.0
H428 H 0.7332 0.4096 0.6404 0.0
H429 H 0.8083 0.48098 0.60439 0.0
H430 H 0.64858 0.43224 0.63152 0.0
H431 H 0.72234 0.50226 0.59592 0.0
H432 H 0.9115 0.40301 0.59434 0.0
H433 H 0.01775 0.38609 0.65602 0.0
H434 H 0.96329 0.37156 0.566 0.0
H435 H 0.06719 0.35445 0.62676 0.0
H436 H 0.02307 0.50098 0.57621 0.0
H437 H 0.89801 0.46355 0.53282 0.0
H438 H 0.73673 0.32955 0.67355 0.0
H439 H 0.85752 0.30174 0.62208 0.0
Li440 Li 0.58248 0.07166 0.6697 0.0
Li441 Li 0.67019 0.05562 0.66144 0.0
Li442 Li 0.64379 0.1048 0.64994 0.0
Li443 Li 0.61198 0.06342 0.62494 0.0
C444 C 0.64833 0.08708 0.71051 0.0
N445 N 0.65011 0.08722 0.76365 0.0
C446 C 0.65002 0.06142 0.72408 0.0
C447 C 0.64804 0.11284 0.72399 0.0
C448 C 0.6508 0.06192 0.75093 0.0
C449 C 0.64879 0.11246 0.75085 0.0
C450 C 0.60147 0.00752 0.65781 0.0
C451 C 0.60192 0.95898 0.64259 0.0
N452 N 0.5941 0.94969 0.66705 0.0
C453 C 0.59274 0.99749 0.68274 0.0
C454 C 0.60545 0.98812 0.6375 0.0
C455 C 0.58939 0.96819 0.68704 0.0
C456 C 0.49325 0.04441 0.68549 0.0
N457 N 0.52525 0.06611 0.69209 0.0
C458 C 0.48081 0.07239 0.73198 0.0
C459 C 0.51868 0.08079 0.71441 0.0
C460 C 0.44945 0.04879 0.72638 0.0
C461 C 0.45505 0.03529 0.70244 0.0
H462 H 0.49874 0.03344 0.66741 0.0
H463 H 0.54375 0.0984 0.71901 0.0
C464 C 0.75757 0.04989 0.69125 0.0
N465 N 0.72569 0.03438 0.67595 0.0
C466 C 0.79481 0.03641 0.70621 0.0
C467 C 0.76883 0.99134 0.68784 0.0
C468 C 0.73132 0.00569 0.67351 0.0
C469 C 0.80004 0.00673 0.70496 0.0
H470 H 0.75261 0.0727 0.6926 0.0
H471 H 0.70598 0.99378 0.66105 0.0
C472 C 0.5385 0.11822 0.64492 0.0
N473 N 0.47179 0.16194 0.65739 0.0
C474 C 0.49667 0.12442 0.62895 0.0
C475 C 0.54639 0.13422 0.66723 0.0
C476 C 0.46337 0.14663 0.63558 0.0
C477 C 0.51225 0.15624 0.6732 0.0
C478 C 0.72002 0.06409 0.61348 0.0
C479 C 0.75727 0.08023 0.60065 0.0
C480 C 0.71911 0.03456 0.6104 0.0
C481 C 0.79296 0.06647 0.5848 0.0
C482 C 0.75545 0.02159 0.59441 0.0
N483 N 0.79132 0.03768 0.58203 0.0
C484 C 0.70437 0.15049 0.66602 0.0
C485 C 0.65093 0.16153 0.63041 0.0
C486 C 0.72447 0.17804 0.66614 0.0
N487 N 0.6681 0.14289 0.64847 0.0
C488 C 0.67038 0.18932 0.62967 0.0
C489 C 0.70752 0.19787 0.64779 0.0
H490 H 0.71791 0.13502 0.67987 0.0
H491 H 0.62224 0.15481 0.61659 0.0
C492 C 0.53994 0.03818 0.59315 0.0
N493 N 0.58793 0.04978 0.59269 0.0
C494 C 0.51795 0.02728 0.57073 0.0
C495 C 0.59524 0.04048 0.54765 0.0
C496 C 0.6156 0.05135 0.57053 0.0
C497 C 0.54571 0.02818 0.54752 0.0
H498 H 0.51871 0.03746 0.61106 0.0
H499 H 0.65343 0.06099 0.57055 0.0
O500 O 0.64751 0.0871 0.68418 0.0
O501 O 0.60466 0.03616 0.65312 0.0
O502 O 0.57123 0.09646 0.6387 0.0
O503 O 0.68482 0.07728 0.62902 0.0
H504 H 0.65125 0.04134 0.71402 0.0
H505 H 0.64683 0.13294 0.71384 0.0
H506 H 0.65209 0.0422 0.76165 0.0
H507 H 0.64831 0.13224 0.76152 0.0
H508 H 0.60527 0.94374 0.62708 0.0
H509 H 0.58798 0.01211 0.69859 0.0
H510 H 0.61126 0.99544 0.61799 0.0
H511 H 0.58279 0.96015 0.70626 0.0
H512 H 0.47766 0.08346 0.75018 0.0
H513 H 0.43084 0.01745 0.69708 0.0
H514 H 0.81879 0.049 0.71893 0.0
H515 H 0.772 0.9684 0.68636 0.0
H516 H 0.49002 0.11217 0.61163 0.0
H517 H 0.5785 0.12971 0.6798 0.0
H518 H 0.43082 0.15167 0.6234 0.0
H519 H 0.51792 0.16879 0.69042 0.0
H520 H 0.75848 0.10314 0.60288 0.0
H521 H 0.69061 0.02184 0.62021 0.0
H522 H 0.82197 0.07869 0.5747 0.0
H523 H 0.75512 0.99873 0.59184 0.0
H524 H 0.7536 0.18363 0.68018 0.0
H525 H 0.65611 0.20403 0.6153 0.0
H526 H 0.47934 0.01856 0.57157 0.0
H527 H 0.61838 0.04141 0.53034 0.0
Li528 Li 0.39434 0.56147 0.87648 0.0
Li529 Li 0.35957 0.60402 0.85348 0.0
Li530 Li 0.33422 0.55755 0.84147 0.0
Li531 Li 0.41932 0.57255 0.83081 0.0
C532 C 0.27755 0.56273 0.8817 0.0
N533 N 0.18631 0.53476 0.89242 0.0
C534 C 0.23033 0.57615 0.87719 0.0
C535 C 0.27841 0.53513 0.89176 0.0
C536 C 0.18461 0.56163 0.88269 0.0
C537 C 0.23185 0.52135 0.89705 0.0
C538 C 0.45269 0.61127 0.88225 0.0
C539 C 0.52123 0.63891 0.90119 0.0
N540 N 0.49184 0.6429 0.92256 0.0
C541 C 0.42315 0.61562 0.9044 0.0
C542 C 0.50214 0.62294 0.88062 0.0
C543 C 0.44365 0.63167 0.92457 0.0
C544 C 0.46806 0.53448 0.90741 0.0
N545 N 0.42044 0.54652 0.90787 0.0
C546 C 0.41329 0.53806 0.95305 0.0
C547 C 0.39295 0.54856 0.93005 0.0
C548 C 0.46253 0.52549 0.95325 0.0
C549 C 0.48996 0.52377 0.92997 0.0
H550 H 0.48918 0.53342 0.88949 0.0
H551 H 0.35532 0.55847 0.92989 0.0
C552 C 0.28703 0.64651 0.84612 0.0
N553 N 0.33503 0.64241 0.85593 0.0
C554 C 0.26465 0.67353 0.84629 0.0
C555 C 0.34178 0.69189 0.86638 0.0
C556 C 0.36288 0.66451 0.86562 0.0
C557 C 0.292 0.69666 0.85664 0.0
H558 H 0.26629 0.62873 0.8379 0.0
H559 H 0.40167 0.66118 0.87243 0.0
C560 C 0.39527 0.50897 0.83808 0.0
N561 N 0.38683 0.45362 0.82067 0.0
C562 C 0.3894 0.50351 0.81184 0.0
C563 C 0.39712 0.48632 0.85548 0.0
C564 C 0.38509 0.47536 0.80342 0.0
C565 C 0.39274 0.45847 0.84629 0.0
C566 C 0.36556 0.61007 0.80101 0.0
C567 C 0.33684 0.61317 0.77845 0.0
C568 C 0.40626 0.62883 0.80603 0.0
C569 C 0.34921 0.63503 0.7613 0.0
C570 C 0.41737 0.65042 0.78841 0.0
N571 N 0.38887 0.65305 0.7666 0.0
C572 C 0.24628 0.55203 0.81161 0.0
C573 C 0.26787 0.50859 0.83211 0.0
C574 C 0.20587 0.53891 0.79849 0.0
N575 N 0.27697 0.5367 0.82762 0.0
C576 C 0.22821 0.49448 0.8191 0.0
C577 C 0.19707 0.50966 0.8018 0.0
H578 H 0.25379 0.57444 0.8087 0.0
H579 H 0.29165 0.49694 0.84549 0.0
C580 C 0.52282 0.56735 0.81492 0.0
N581 N 0.47327 0.56821 0.80653 0.0
C582 C 0.56243 0.55976 0.79805 0.0
C583 C 0.49932 0.55503 0.7641 0.0
C584 C 0.46103 0.56288 0.78158 0.0
C585 C 0.55072 0.55266 0.7724 0.0
H586 H 0.53128 0.5715 0.83494 0.0
H587 H 0.42117 0.56343 0.77552 0.0
O588 O 0.32275 0.57627 0.87586 0.0
O589 O 0.43393 0.59522 0.86241 0.0
O590 O 0.3993 0.53632 0.84681 0.0
O591 O 0.35355 0.58872 0.81793 0.0
H592 H 0.22893 0.5975 0.86946 0.0
H593 H 0.31463 0.52428 0.89501 0.0
H594 H 0.14777 0.57172 0.87921 0.0
H595 H 0.23193 0.49993 0.90468 0.0
H596 H 0.55943 0.64811 0.90018 0.0
H597 H 0.3847 0.60688 0.90596 0.0
H598 H 0.52551 0.61968 0.86361 0.0
H599 H 0.42122 0.63524 0.94181 0.0
H600 H 0.39044 0.53956 0.97042 0.0
H601 H 0.5283 0.5147 0.92922 0.0
H602 H 0.22617 0.67625 0.83858 0.0
H603 H 0.3646 0.70926 0.87402 0.0
H604 H 0.38726 0.52082 0.79819 0.0
H605 H 0.40161 0.49025 0.87588 0.0
H606 H 0.38017 0.47081 0.78317 0.0
H607 H 0.39394 0.44072 0.85953 0.0
H608 H 0.30536 0.5988 0.77419 0.0
H609 H 0.4291 0.62687 0.82329 0.0
H610 H 0.32728 0.63766 0.74376 0.0
H611 H 0.44869 0.66509 0.79208 0.0
H612 H 0.1828 0.55136 0.78526 0.0
H613 H 0.22204 0.47198 0.82247 0.0
H614 H 0.60158 0.55868 0.80521 0.0
H615 H 0.48827 0.54943 0.74467 0.0
Li616 Li 0.10928 0.94519 0.87519 0.0
Li617 Li 0.14097 0.90399 0.85368 0.0
Li618 Li 0.17221 0.95408 0.84174 0.0
Li619 Li 0.08181 0.93661 0.8314 0.0
C620 C 0.19909 0.93539 0.89853 0.0
N621 N 0.23163 0.9429 0.94863 0.0
C622 C 0.17861 0.91854 0.91819 0.0
C623 C 0.23644 0.95588 0.90427 0.0
C624 C 0.19543 0.92274 0.94342 0.0
C625 C 0.25233 0.95938 0.92975 0.0
C626 C 0.0437 0.88737 0.86484 0.0
C627 C 0.00049 0.84667 0.8465 0.0
N628 N 0.99577 0.83517 0.87039 0.0
C629 C 0.03798 0.87528 0.88923 0.0
C630 C 0.02443 0.87309 0.84332 0.0
C631 C 0.01383 0.84881 0.89162 0.0
C632 C 0.03805 0.95121 0.91599 0.0
N633 N 0.08447 0.9605 0.9072 0.0
C634 C 0.09136 0.99317 0.94233 0.0
C635 C 0.11103 0.98124 0.91978 0.0
C636 C 0.04364 0.98384 0.952 0.0
C637 C 0.01692 0.96254 0.93847 0.0
H638 H 0.017 0.93524 0.90532 0.0
H639 H 0.14709 0.98894 0.91204 0.0
C640 C 0.19184 0.8554 0.83495 0.0
N641 N 0.16511 0.8654 0.85555 0.0
C642 C 0.21155 0.82776 0.83494 0.0
C643 C 0.17765 0.82131 0.8778 0.0
C644 C 0.15831 0.84909 0.87691 0.0
C645 C 0.20449 0.81028 0.85654 0.0
H646 H 0.19874 0.86902 0.81861 0.0
H647 H 0.13838 0.85765 0.8934 0.0
C648 C 0.08335 0.99625 0.85739 0.0
N649 N 0.03812 0.0422 0.88166 0.0
C650 C 0.03006 0.99678 0.86135 0.0
C651 C 0.11363 0.01915 0.86555 0.0
C652 C 0.00793 0.02018 0.87374 0.0
C653 C 0.09001 0.04218 0.87782 0.0
C654 C 0.14837 0.91441 0.79387 0.0
C655 C 0.17478 0.93085 0.77573 0.0
C656 C 0.12117 0.89028 0.78588 0.0
C657 C 0.17281 0.92311 0.74981 0.0
C658 C 0.12015 0.88324 0.75979 0.0
N659 N 0.14572 0.89968 0.74244 0.0
C660 C 0.27557 0.96506 0.82852 0.0
C661 C 0.21505 0.99949 0.81432 0.0
C662 C 0.31479 0.97834 0.81457 0.0
N663 N 0.22681 0.97555 0.82775 0.0
C664 C 0.25305 0.01346 0.8001 0.0
C665 C 0.30344 0.00249 0.79961 0.0
H666 H 0.28347 0.94574 0.83914 0.0
H667 H 0.1756 0.00693 0.81365 0.0
C668 C 0.97845 0.93718 0.81358 0.0
N669 N 0.02839 0.94186 0.80682 0.0
C670 C 0.9386 0.94434 0.79669 0.0
C671 C 0.00241 0.96028 0.766 0.0
C672 C 0.04088 0.95332 0.78363 0.0
C673 C 0.95052 0.95625 0.77264 0.0
H674 H 0.96952 0.92883 0.83245 0.0
H675 H 0.08056 0.95816 0.77919 0.0
O676 O 0.18295 0.93175 0.87374 0.0
O677 O 0.06727 0.91327 0.86215 0.0
O678 O 0.10586 0.97322 0.84591 0.0
O679 O 0.14988 0.9217 0.81935 0.0
H680 H 0.14939 0.90277 0.91406 0.0
H681 H 0.25269 0.96904 0.88922 0.0
H682 H 0.1796 0.91002 0.95887 0.0
H683 H 0.28105 0.97523 0.93452 0.0
H684 H 0.98553 0.83536 0.82999 0.0
H685 H 0.0526 0.88605 0.90612 0.0
H686 H 0.02762 0.88235 0.82438 0.0
H687 H 0.00949 0.83911 0.91036 0.0
H688 H 0.11286 0.00992 0.95181 0.0
H689 H 0.98021 0.95452 0.94527 0.0
H690 H 0.23308 0.82038 0.81838 0.0
H691 H 0.17139 0.80855 0.89486 0.0
H692 H 0.00618 0.97913 0.85525 0.0
H693 H 0.15499 0.01895 0.86275 0.0
H694 H 0.96679 0.0208 0.87713 0.0
H695 H 0.11297 0.05998 0.8844 0.0
H696 H 0.19635 0.94946 0.78155 0.0
H697 H 0.10154 0.87696 0.79969 0.0
H698 H 0.19284 0.93572 0.73555 0.0
H699 H 0.09919 0.86465 0.75335 0.0
H700 H 0.35325 0.96937 0.81493 0.0
H701 H 0.24243 0.03174 0.78857 0.0
H702 H 0.89893 0.94115 0.80254 0.0
H703 H 0.01302 0.97007 0.74789 0.0
C704 C 0.39693 0.49559 0.28565 0.0
C705 C 0.3476 0.48323 0.28654 0.0
H706 H 0.47135 0.49584 0.26801 0.0
C707 C 0.33736 0.45938 0.271 0.0
H708 H 0.40586 0.51425 0.29705 0.0
C709 C 0.37503 0.44875 0.25431 0.0
C710 C 0.4238 0.46174 0.25277 0.0
H711 H 0.29996 0.44912 0.2715 0.0
H712 H 0.36577 0.43051 0.24243 0.0
C713 C 0.43453 0.485 0.26896 0.0
C714 C 0.08624 1.00099 0.25059 0.0
C715 C 0.06855 0.02918 0.25254 0.0
H716 H 0.13677 0.96892 0.265 0.0
C717 C 0.08947 0.0469 0.27169 0.0
H718 H 0.07186 0.98698 0.23567 0.0
C719 C 0.12683 0.03644 0.28872 0.0
C720 C 0.14398 0.00808 0.28688 0.0
H721 H 0.0764 0.06868 0.27376 0.0
H722 H 0.14179 0.05043 0.3035 0.0
C723 C 0.12343 0.9906 0.26749 0.0
C724 C 0.87478 0.49165 0.2377 0.0
C725 C 0.85333 0.50925 0.21867 0.0
H726 H 0.92626 0.48814 0.26951 0.0
C727 C 0.86886 0.5379 0.21737 0.0
H728 H 0.86264 0.46968 0.23965 0.0
C729 C 0.90589 0.54854 0.2345 0.0
C730 C 0.92779 0.53075 0.25334 0.0
H731 H 0.85298 0.55194 0.20288 0.0
H732 H 0.91796 0.57052 0.23269 0.0
C733 C 0.91134 0.50227 0.25484 0.0
C734 C 0.58943 0.99737 0.20849 0.0
C735 C 0.64116 0.98891 0.21113 0.0
H736 H 0.51234 0.99432 0.22301 0.0
C737 C 0.65385 0.96893 0.23027 0.0
H738 H 0.57818 0.01234 0.19368 0.0
C739 C 0.61607 0.95849 0.24697 0.0
C740 C 0.56482 0.96791 0.245 0.0
H741 H 0.6934 0.96225 0.23313 0.0
H742 H 0.62748 0.94404 0.26217 0.0
C743 C 0.55171 0.98703 0.22526 0.0
C744 C 0.62729 0.5212 0.76485 0.0
C745 C 0.59082 0.54051 0.7551 0.0
H746 H 0.69026 0.49332 0.75682 0.0
C747 C 0.59129 0.54667 0.72861 0.0
H748 H 0.62771 0.51558 0.78504 0.0
C749 C 0.62674 0.53336 0.71222 0.0
C750 C 0.66239 0.51357 0.72198 0.0
H751 H 0.56405 0.56164 0.72049 0.0
H752 H 0.62542 0.53809 0.69185 0.0
C753 C 0.66268 0.50801 0.74854 0.0
C754 C 0.87336 0.97297 0.7126 0.0
C755 C 0.8365 0.99205 0.72231 0.0
H756 H 0.93888 0.94667 0.72108 0.0
C757 C 0.83542 0.99781 0.74881 0.0
H758 H 0.8749 0.96825 0.69223 0.0
C759 C 0.87125 0.98522 0.76527 0.0
C760 C 0.90933 0.96694 0.75549 0.0
H761 H 0.80703 0.01227 0.75676 0.0
H762 H 0.87032 0.99058 0.78553 0.0
C763 C 0.90987 0.96074 0.72904 0.0
C764 C 0.10774 0.50742 0.78369 0.0
C765 C 0.15673 0.49508 0.78649 0.0
H766 H 0.03399 0.50537 0.7654 0.0
C767 C 0.16785 0.46964 0.77337 0.0
H768 H 0.09806 0.52694 0.79369 0.0
C769 C 0.13118 0.45729 0.75707 0.0
C770 C 0.08251 0.46996 0.7539 0.0
H771 H 0.20548 0.45981 0.77503 0.0
H772 H 0.141 0.43797 0.74681 0.0
C773 C 0.07097 0.49494 0.76766 0.0
C774 C 0.34703 0.04434 0.77851 0.0
C775 C 0.34263 0.01473 0.78194 0.0
H776 H 0.38406 0.0784 0.75816 0.0
C777 C 0.37424 0.99661 0.76733 0.0
H778 H 0.32339 0.05886 0.7896 0.0
C779 C 0.40892 0.00775 0.74947 0.0
C780 C 0.41287 0.03731 0.74574 0.0
H781 H 0.37136 0.97369 0.76922 0.0
H782 H 0.43281 0.99315 0.7386 0.0
C783 C 0.38196 0.05554 0.76065 0.0
C784 C 0.02791 0.53218 0.50219 0.0
C785 C 0.03097 0.5144 0.48046 0.0
H786 H 0.00398 0.53654 0.54146 0.0
C787 C 0.01239 0.48631 0.48243 0.0
H788 H 0.04106 0.55405 0.50133 0.0
C789 C 0.99057 0.47645 0.50534 0.0
C790 C 0.98721 0.49429 0.52695 0.0
H791 H 0.01504 0.47178 0.46633 0.0
H792 H 0.97689 0.45467 0.50623 0.0
C793 C 0.00647 0.52221 0.52519 0.0
C794 C 0.47045 0.98095 0.50135 0.0
C795 C 0.47987 0.9942 0.47761 0.0
H796 H 0.48495 0.98066 0.54181 0.0
C797 C 0.5108 0.01877 0.47698 0.0
H798 H 0.44731 0.96177 0.50237 0.0
C799 C 0.53191 0.02985 0.49959 0.0
C800 C 0.52299 0.01647 0.52339 0.0
H801 H 0.51817 0.02965 0.45898 0.0
H802 H 0.55468 0.04913 0.49842 0.0
C803 C 0.49198 0.99185 0.52395 0.0
C804 C 0.53528 0.47859 1.0006 0.0
C805 C 0.52755 0.49307 0.02394 0.0
H806 H 0.52004 0.47704 0.96018 0.0
C807 C 0.49876 0.51843 0.02381 0.0
H808 H 0.55667 0.45879 1.0001 0.0
C809 C 0.47794 0.52898 1.00093 0.0
C810 C 0.48522 0.51438 0.97758 0.0
H811 H 0.49277 0.53033 0.04141 0.0
H812 H 0.45665 0.5488 1.0015 0.0
C813 C 0.51428 0.48908 0.97771 0.0
C814 C 0.96882 1.00171 0.97831 0.0
C815 C 0.02195 0.99615 0.97606 0.0
H816 H 0.90714 0.01603 0.00245 0.0
C817 C 0.05418 0.00211 0.99711 0.0
H818 H 0.94299 0.99774 0.96235 0.0
C819 C 0.03372 0.01294 0.01997 0.0
C820 C 0.98049 0.01806 0.02239 0.0
H821 H 0.09519 0.99789 0.99614 0.0
H822 H 0.05972 0.0173 0.03578 0.0
C823 C 0.94834 0.01255 1.0012 0.0
C824 C 0.24382 0.73756 0.3788 0.0
C825 C 0.23132 0.72406 0.35546 0.0
H826 H 0.27224 0.77513 0.39735 0.0
C827 C 0.23913 0.73907 0.33237 0.0
H828 H 0.23889 0.72659 0.39695 0.0
C829 C 0.25934 0.76663 0.33257 0.0
C830 C 0.27179 0.78019 0.35588 0.0
H831 H 0.2293 0.72962 0.31403 0.0
H832 H 0.26565 0.77718 0.31433 0.0
C833 C 0.26371 0.76529 0.37901 0.0
C834 C 0.77688 0.24081 0.16905 0.0
C835 C 0.77562 0.22373 0.14685 0.0
H836 H 0.75837 0.28091 0.18619 0.0
C837 C 0.75444 0.23511 0.12417 0.0
H838 H 0.79337 0.23284 0.18677 0.0
C839 C 0.7347 0.26286 0.12378 0.0
C840 C 0.73593 0.2799 0.14602 0.0
H841 H 0.75241 0.22244 0.10681 0.0
H842 H 0.71895 0.27106 0.10598 0.0
C843 C 0.7573 0.26851 0.16864 0.0
C844 C 0.74422 0.24013 0.62445 0.0
C845 C 0.72882 0.22723 0.6476 0.0
H846 H 0.77715 0.27691 0.60634 0.0
C847 C 0.73478 0.24237 0.67072 0.0
H848 H 0.74047 0.22888 0.60636 0.0
C849 C 0.75569 0.2698 0.67071 0.0
C850 C 0.77155 0.28261 0.64761 0.0
H851 H 0.72291 0.23308 0.68885 0.0
H852 H 0.76009 0.28085 0.68887 0.0
C853 C 0.76566 0.26748 0.62447 0.0
C854 C 0.2428 0.73599 0.83511 0.0
C855 C 0.26903 0.72563 0.85683 0.0
H856 H 0.20164 0.77069 0.81807 0.0
C857 C 0.2732 0.74317 0.87864 0.0
H858 H 0.23931 0.72309 0.81793 0.0
C859 C 0.25163 0.77047 0.87872 0.0
C860 C 0.22587 0.78092 0.85689 0.0
H861 H 0.29281 0.73568 0.89574 0.0
H862 H 0.25595 0.7836 0.89571 0.0
C863 C 0.22161 0.76334 0.83512 0.0
loop_
_geom_bond_atom_site_label_1
_geom_bond_atom_site_label_2
_geom_bond_distance
_geom_bond_site_symmetry_2
_ccdc_geom_bond_type
Li0 N17 1.990 . S
Li0 O60 1.956 . S
Li0 O61 1.970 . S
Li0 O62 1.961 . S
Li1 N25 1.990 . S
Li1 O60 1.970 . S
Li1 O61 1.956 . S
Li1 O63 1.961 . S
Li2 N47 1.990 . S
Li2 O60 1.961 . S
Li2 O62 1.956 . S
Li2 O63 1.970 . S
Li3 N53 1.990 . S
Li3 O61 1.961 . S
Li3 O62 1.970 . S
Li3 O63 1.956 . S
C4 C6 1.348 . S
C4 C7 1.356 . S
C4 O60 1.325 . S
N5 C8 1.314 . S
N5 C9 1.279 . S
C6 C4 1.348 . S
C6 C8 1.353 1_455 S
C6 H64 0.929 . S
C7 C4 1.356 . S
C7 C9 1.358 1_455 S
C7 H65 0.930 . S
C8 N5 1.314 . S
C8 C6 1.353 1_655 S
C8 H66 0.930 . S
C9 N5 1.279 . S
C9 C7 1.358 1_655 S
C9 H67 0.930 . S
C10 C13 1.348 . S
C10 C14 1.356 . S
C10 O61 1.325 . S
C11 N12 1.279 . S
C11 C14 1.358 . S
C11 H68 0.930 . S
N12 C11 1.279 . S
N12 C15 1.314 . S
C13 C10 1.348 . S
C13 C15 1.353 . S
C13 H69 0.929 . S
C14 C10 1.356 . S
C14 C11 1.358 . S
C14 H70 0.930 . S
C15 N12 1.314 . S
C15 C13 1.353 . S
C15 H71 0.930 . S
C16 N17 1.314 . S
C16 C21 1.353 1_455 S
C16 H22 0.930 . S
N17 Li0 1.990 . S
N17 C16 1.314 . S
N17 C19 1.279 1_455 S
C18 C19 1.358 . S
C18 C20 1.356 . S
C18 H72 0.930 . S
C19 N17 1.279 1_655 S
C19 C18 1.358 . S
C19 H23 0.930 . S
C20 C18 1.356 . S
C20 C21 1.348 . S
C21 C16 1.353 1_655 S
C21 C20 1.348 . S
C21 H73 0.929 . S
H22 C16 0.930 . S
H23 C19 0.930 . S
C24 N25 1.314 . S
C24 C26 1.353 . S
C24 H30 0.930 . S
N25 Li1 1.990 . S
N25 C24 1.314 . S
N25 C28 1.279 . S
C26 C24 1.353 . S
C26 C29 1.348 . S
C26 H74 0.929 . S
C27 C28 1.358 . S
C27 C29 1.356 . S
C27 H75 0.930 . S
C28 N25 1.279 . S
C28 C27 1.358 . S
C28 H31 0.930 . S
C29 C26 1.348 . S
C29 C27 1.356 . S
H30 C24 0.930 . S
H31 C28 0.930 . S
C32 C34 1.348 . S
C32 C35 1.356 . S
C32 O62 1.325 . S
N33 C36 1.314 . S
N33 C37 1.279 . S
C34 C32 1.348 . S
C34 C36 1.353 . S
C34 H76 0.929 . S
C35 C32 1.356 . S
C35 C37 1.358 . S
C35 H77 0.930 . S
C36 N33 1.314 . S
C36 C34 1.353 . S
C36 H78 0.930 . S
C37 N33 1.279 . S
C37 C35 1.358 . S
C37 H79 0.930 . S
C38 C39 1.348 . S
C38 C40 1.356 . S
C38 O63 1.325 . S
C39 C38 1.348 . S
C39 C41 1.353 . S
C39 H80 0.929 . S
C40 C38 1.356 . S
C40 C42 1.358 . S
C40 H81 0.930 . S
C41 C39 1.353 . S
C41 N43 1.314 . S
C41 H82 0.930 . S
C42 C40 1.358 . S
C42 N43 1.279 . S
C42 H83 0.930 . S
N43 C41 1.314 . S
N43 C42 1.279 . S
C44 C46 1.353 . S
C44 N47 1.314 . S
C44 H50 0.930 . S
C45 N47 1.279 . S
C45 C48 1.358 . S
C45 H51 0.930 . S
C46 C44 1.353 . S
C46 C49 1.348 . S
C46 H84 0.929 . S
N47 Li2 1.990 . S
N47 C44 1.314 . S
N47 C45 1.279 . S
C48 C45 1.358 . S
C48 C49 1.356 . S
C48 H85 0.930 . S
C49 C46 1.348 . S
C49 C48 1.356 . S
H50 C44 0.930 . S
H51 C45 0.930 . S
C52 N53 1.314 . S
C52 C54 1.353 . S
C52 H58 0.930 . S
N53 Li3 1.990 . S
N53 C52 1.314 . S
N53 C56 1.279 . S
C54 C52 1.353 . S
C54 C57 1.348 . S
C54 H86 0.929 . S
C55 C56 1.358 . S
C55 C57 1.356 . S
C55 H87 0.930 . S
C56 N53 1.279 . S
C56 C55 1.358 . S
C56 H59 0.930 . S
C57 C54 1.348 . S
C57 C55 1.356 . S
H58 C52 0.930 . S
H59 C56 0.930 . S
O60 Li0 1.956 . S
O60 Li1 1.970 . S
O60 Li2 1.961 . S
O60 C4 1.325 . S
O61 Li0 1.970 . S
O61 Li1 1.956 . S
O61 Li3 1.961 . S
O61 C10 1.325 . S
O62 Li0 1.961 . S
O62 Li2 1.956 . S
O62 Li3 1.970 . S
O62 C32 1.325 . S
O63 Li1 1.961 . S
O63 Li2 1.970 . S
O63 Li3 1.956 . S
O63 C38 1.325 . S
H64 C6 0.929 . S
H65 C7 0.930 . S
H66 C8 0.930 . S
H67 C9 0.930 . S
H68 C11 0.930 . S
H69 C13 0.929 . S
H70 C14 0.930 . S
H71 C15 0.930 . S
H72 C18 0.930 . S
H73 C21 0.929 . S
H74 C26 0.929 . S
H75 C27 0.930 . S
H76 C34 0.929 . S
H77 C35 0.930 . S
H78 C36 0.930 . S
H79 C37 0.930 . S
H80 C39 0.929 . S
H81 C40 0.930 . S
H82 C41 0.930 . S
H83 C42 0.930 . S
H84 C46 0.929 . S
H85 C48 0.930 . S
H86 C54 0.929 . S
H87 C55 0.930 . S
Li88 N105 1.990 . S
Li88 O148 1.956 . S
Li88 O149 1.970 . S
Li88 O150 1.961 . S
Li89 N113 1.990 . S
Li89 O148 1.970 . S
Li89 O149 1.956 . S
Li89 O151 1.961 . S
Li90 N135 1.990 . S
Li90 O148 1.961 . S
Li90 O150 1.956 . S
Li90 O151 1.970 . S
Li91 N141 1.990 . S
Li91 O149 1.961 . S
Li91 O150 1.970 . S
Li91 O151 1.956 . S
C92 C94 1.348 . S
C92 C95 1.356 . S
C92 O148 1.325 . S
N93 C96 1.314 . S
N93 C97 1.279 . S
C94 C92 1.348 . S
C94 C96 1.353 . S
C94 H152 0.929 . S
C95 C92 1.356 . S
C95 C97 1.358 . S
C95 H153 0.930 . S
C96 N93 1.314 . S
C96 C94 1.353 . S
C96 H154 0.930 . S
C97 N93 1.279 . S
C97 C95 1.358 . S
C97 H155 0.930 . S
C98 C101 1.348 . S
C98 C102 1.356 . S
C98 O149 1.325 . S
C99 N100 1.279 . S
C99 C102 1.358 . S
C99 H156 0.930 . S
N100 C99 1.279 . S
N100 C103 1.314 . S
C101 C98 1.348 . S
C101 C103 1.353 . S
C101 H157 0.929 . S
C102 C98 1.356 . S
C102 C99 1.358 . S
C102 H158 0.930 . S
C103 N100 1.314 . S
C103 C101 1.353 . S
C103 H159 0.930 . S
C104 N105 1.314 . S
C104 C109 1.353 1_565 S
C104 H110 0.930 . S
N105 Li88 1.990 . S
N105 C104 1.314 . S
N105 C107 1.279 . S
C106 C107 1.358 . S
C106 C108 1.356 . S
C106 H160 0.930 . S
C107 N105 1.279 . S
C107 C106 1.358 . S
C107 H111 0.930 . S
C108 C106 1.356 . S
C108 C109 1.348 1_565 S
C109 C104 1.353 1_545 S
C109 C108 1.348 1_545 S
C109 H161 0.929 . S
H110 C104 0.930 . S
H111 C107 0.930 . S
C112 N113 1.314 . S
C112 C114 1.353 . S
C112 H118 0.930 . S
N113 Li89 1.990 . S
N113 C112 1.314 . S
N113 C116 1.279 . S
C114 C112 1.353 . S
C114 C117 1.348 . S
C114 H162 0.929 . S
C115 C116 1.358 . S
C115 C117 1.356 . S
C115 H163 0.930 . S
C116 N113 1.279 . S
C116 C115 1.358 . S
C116 H119 0.930 . S
C117 C114 1.348 . S
C117 C115 1.356 . S
H118 C112 0.930 . S
H119 C116 0.930 . S
C120 C122 1.348 1_565 S
C120 C123 1.356 1_565 S
C120 O150 1.325 . S
N121 C124 1.314 . S
N121 C125 1.279 . S
C122 C120 1.348 1_545 S
C122 C124 1.353 . S
C122 H164 0.929 1_545 S
C123 C120 1.356 1_545 S
C123 C125 1.358 . S
C123 H165 0.930 . S
C124 N121 1.314 . S
C124 C122 1.353 . S
C124 H166 0.930 . S
C125 N121 1.279 . S
C125 C123 1.358 . S
C125 H167 0.930 . S
C126 C127 1.348 . S
C126 C128 1.356 . S
C126 O151 1.325 . S
C127 C126 1.348 . S
C127 C129 1.353 . S
C127 H168 0.929 . S
C128 C126 1.356 . S
C128 C130 1.358 . S
C128 H169 0.930 . S
C129 C127 1.353 . S
C129 N131 1.314 . S
C129 H170 0.930 . S
C130 C128 1.358 . S
C130 N131 1.279 . S
C130 H171 0.930 . S
N131 C129 1.314 . S
N131 C130 1.279 . S
C132 C134 1.353 . S
C132 N135 1.314 . S
C132 H138 0.930 . S
C133 N135 1.279 . S
C133 C136 1.358 . S
C133 H139 0.930 . S
C134 C132 1.353 . S
C134 C137 1.348 . S
C134 H172 0.929 . S
N135 Li90 1.990 . S
N135 C132 1.314 . S
N135 C133 1.279 . S
C136 C133 1.358 . S
C136 C137 1.356 . S
C136 H173 0.930 1_565 S
C137 C134 1.348 . S
C137 C136 1.356 . S
H138 C132 0.930 . S
H139 C133 0.930 . S
C140 N141 1.314 . S
C140 C142 1.353 . S
C140 H146 0.930 . S
N141 Li91 1.990 . S
N141 C140 1.314 . S
N141 C144 1.279 . S
C142 C140 1.353 . S
C142 C145 1.348 . S
C142 H174 0.929 . S
C143 C144 1.358 . S
C143 C145 1.356 . S
C143 H175 0.930 . S
C144 N141 1.279 . S
C144 C143 1.358 . S
C144 H147 0.930 . S
C145 C142 1.348 . S
C145 C143 1.356 . S
H146 C140 0.930 . S
H147 C144 0.930 . S
O148 Li88 1.956 . S
O148 Li89 1.970 . S
O148 Li90 1.961 . S
O148 C92 1.325 . S
O149 Li88 1.970 . S
O149 Li89 1.956 . S
O149 Li91 1.961 . S
O149 C98 1.325 . S
O150 Li88 1.961 . S
O150 Li90 1.956 . S
O150 Li91 1.970 . S
O150 C120 1.325 . S
O151 Li89 1.961 . S
O151 Li90 1.970 . S
O151 Li91 1.956 . S
O151 C126 1.325 . S
H152 C94 0.929 . S
H153 C95 0.930 . S
H154 C96 0.930 . S
H155 C97 0.930 . S
H156 C99 0.930 . S
H157 C101 0.929 . S
H158 C102 0.930 . S
H159 C103 0.930 . S
H160 C106 0.930 . S
H161 C109 0.929 . S
H162 C114 0.929 . S
H163 C115 0.930 . S
H164 C122 0.929 1_565 S
H165 C123 0.930 . S
H166 C124 0.930 . S
H167 C125 0.930 . S
H168 C127 0.929 . S
H169 C128 0.930 . S
H170 C129 0.930 . S
H171 C130 0.930 . S
H172 C134 0.929 . S
H173 C136 0.930 1_545 S
H174 C142 0.929 . S
H175 C143 0.930 . S
Li176 N193 1.990 . S
Li176 O236 1.956 . S
Li176 O237 1.970 . S
Li176 O238 1.961 . S
Li177 N201 1.990 . S
Li177 O236 1.970 . S
Li177 O237 1.956 . S
Li177 O239 1.961 . S
Li178 N223 1.990 . S
Li178 O236 1.961 . S
Li178 O238 1.956 . S
Li178 O239 1.970 . S
Li179 N229 1.990 . S
Li179 O237 1.961 . S
Li179 O238 1.970 . S
Li179 O239 1.956 . S
C180 C182 1.348 . S
C180 C183 1.356 . S
C180 O236 1.325 . S
N181 C184 1.314 . S
N181 C185 1.279 . S
C182 C180 1.348 . S
C182 C184 1.353 . S
C182 H240 0.929 . S
C183 C180 1.356 . S
C183 C185 1.358 . S
C183 H241 0.930 . S
C184 N181 1.314 . S
C184 C182 1.353 . S
C184 H242 0.930 . S
C185 N181 1.279 . S
C185 C183 1.358 . S
C185 H243 0.930 . S
C186 C189 1.348 . S
C186 C190 1.356 . S
C186 O237 1.325 . S
C187 N188 1.279 . S
C187 C190 1.358 . S
C187 H244 0.930 . S
N188 C187 1.279 . S
N188 C191 1.314 . S
C189 C186 1.348 . S
C189 C191 1.353 . S
C189 H245 0.929 . S
C190 C186 1.356 . S
C190 C187 1.358 . S
C190 H246 0.930 . S
C191 N188 1.314 . S
C191 C189 1.353 . S
C191 H247 0.930 . S
C192 N193 1.314 . S
C192 C197 1.353 . S
C192 H198 0.930 . S
N193 Li176 1.990 . S
N193 C192 1.314 . S
N193 C195 1.279 . S
C194 C195 1.358 . S
C194 C196 1.356 . S
C194 H248 0.930 . S
C195 N193 1.279 . S
C195 C194 1.358 . S
C195 H199 0.930 . S
C196 C194 1.356 . S
C196 C197 1.348 . S
C197 C192 1.353 . S
C197 C196 1.348 . S
C197 H249 0.929 . S
H198 C192 0.930 . S
H199 C195 0.930 . S
C200 N201 1.314 . S
C200 C202 1.353 . S
C200 H206 0.930 . S
N201 Li177 1.990 . S
N201 C200 1.314 . S
N201 C204 1.279 . S
C202 C200 1.353 . S
C202 C205 1.348 . S
C202 H250 0.929 . S
C203 C204 1.358 . S
C203 C205 1.356 . S
C203 H251 0.930 . S
C204 N201 1.279 . S
C204 C203 1.358 . S
C204 H207 0.930 . S
C205 C202 1.348 . S
C205 C203 1.356 . S
H206 C200 0.930 . S
H207 C204 0.930 . S
C208 C210 1.348 . S
C208 C211 1.356 . S
C208 O238 1.325 . S
N209 C212 1.314 . S
N209 C213 1.279 . S
C210 C208 1.348 . S
C210 C212 1.353 . S
C210 H252 0.929 . S
C211 C208 1.356 . S
C211 C213 1.358 . S
C211 H253 0.930 . S
C212 N209 1.314 . S
C212 C210 1.353 . S
C212 H254 0.930 . S
C213 N209 1.279 . S
C213 C211 1.358 . S
C213 H255 0.930 . S
C214 C215 1.348 . S
C214 C216 1.356 . S
C214 O239 1.325 . S
C215 C214 1.348 . S
C215 C217 1.353 . S
C215 H256 0.929 . S
C216 C214 1.356 . S
C216 C218 1.358 . S
C216 H257 0.930 . S
C217 C215 1.353 . S
C217 N219 1.314 . S
C217 H258 0.930 . S
C218 C216 1.358 . S
C218 N219 1.279 . S
C218 H259 0.930 . S
N219 C217 1.314 . S
N219 C218 1.279 . S
C220 C222 1.353 . S
C220 N223 1.314 . S
C220 H226 0.930 . S
C221 N223 1.279 . S
C221 C224 1.358 . S
C221 H227 0.930 . S
C222 C220 1.353 . S
C222 C225 1.348 . S
C222 H260 0.929 . S
N223 Li178 1.990 . S
N223 C220 1.314 . S
N223 C221 1.279 . S
C224 C221 1.358 . S
C224 C225 1.356 . S
C224 H261 0.930 . S
C225 C222 1.348 . S
C225 C224 1.356 . S
H226 C220 0.930 . S
H227 C221 0.930 . S
C228 N229 1.314 . S
C228 C230 1.353 . S
C228 H234 0.930 . S
N229 Li179 1.990 . S
N229 C228 1.314 . S
N229 C232 1.279 . S
C230 C228 1.353 . S
C230 C233 1.348 . S
C230 H262 0.929 . S
C231 C232 1.358 . S
C231 C233 1.356 . S
C231 H263 0.930 . S
C232 N229 1.279 . S
C232 C231 1.358 . S
C232 H235 0.930 . S
C233 C230 1.348 . S
C233 C231 1.356 . S
H234 C228 0.930 . S
H235 C232 0.930 . S
O236 Li176 1.956 . S
O236 Li177 1.970 . S
O236 Li178 1.961 . S
O236 C180 1.325 . S
O237 Li176 1.970 . S
O237 Li177 1.956 . S
O237 Li179 1.961 . S
O237 C186 1.325 . S
O238 Li176 1.961 . S
O238 Li178 1.956 . S
O238 Li179 1.970 . S
O238 C208 1.325 . S
O239 Li177 1.961 . S
O239 Li178 1.970 . S
O239 Li179 1.956 . S
O239 C214 1.325 . S
H240 C182 0.929 . S
H241 C183 0.930 . S
H242 C184 0.930 . S
H243 C185 0.930 . S
H244 C187 0.930 . S
H245 C189 0.929 . S
H246 C190 0.930 . S
H247 C191 0.930 . S
H248 C194 0.930 . S
H249 C197 0.929 . S
H250 C202 0.929 . S
H251 C203 0.930 . S
H252 C210 0.929 . S
H253 C211 0.930 . S
H254 C212 0.930 . S
H255 C213 0.930 . S
H256 C215 0.929 . S
H257 C216 0.930 . S
H258 C217 0.930 . S
H259 C218 0.930 . S
H260 C222 0.929 . S
H261 C224 0.930 . S
H262 C230 0.929 . S
H263 C231 0.930 . S
Li264 N281 1.990 . S
Li264 O324 1.956 . S
Li264 O325 1.970 . S
Li264 O326 1.961 . S
Li265 N289 1.990 . S
Li265 O324 1.970 . S
Li265 O325 1.956 . S
Li265 O327 1.961 . S
Li266 N311 1.990 . S
Li266 O324 1.961 . S
Li266 O326 1.956 . S
Li266 O327 1.970 . S
Li267 N317 1.990 . S
Li267 O325 1.961 . S
Li267 O326 1.970 . S
Li267 O327 1.956 . S
C268 C270 1.348 . S
C268 C271 1.356 . S
C268 O324 1.325 . S
N269 C272 1.314 . S
N269 C273 1.279 . S
C270 C268 1.348 . S
C270 C272 1.353 . S
C270 H328 0.929 . S
C271 C268 1.356 . S
C271 C273 1.358 . S
C271 H329 0.930 . S
C272 N269 1.314 . S
C272 C270 1.353 . S
C272 H330 0.930 . S
C273 N269 1.279 . S
C273 C271 1.358 . S
C273 H331 0.930 . S
C274 C277 1.348 . S
C274 C278 1.356 . S
C274 O325 1.325 . S
C275 N276 1.279 . S
C275 C278 1.358 . S
C275 H332 0.930 . S
N276 C275 1.279 . S
N276 C279 1.314 . S
C277 C274 1.348 . S
C277 C279 1.353 . S
C277 H333 0.929 . S
C278 C274 1.356 . S
C278 C275 1.358 . S
C278 H334 0.930 . S
C279 N276 1.314 . S
C279 C277 1.353 . S
C279 H335 0.930 . S
C280 N281 1.314 . S
C280 C285 1.353 1_545 S
C280 H286 0.930 . S
N281 Li264 1.990 . S
N281 C280 1.314 . S
N281 C283 1.279 . S
C282 C283 1.358 . S
C282 C284 1.356 . S
C282 H336 0.930 . S
C283 N281 1.279 . S
C283 C282 1.358 . S
C283 H287 0.930 . S
C284 C282 1.356 . S
C284 C285 1.348 1_545 S
C285 C280 1.353 1_565 S
C285 C284 1.348 1_565 S
C285 H337 0.929 . S
H286 C280 0.930 . S
H287 C283 0.930 . S
C288 N289 1.314 . S
C288 C290 1.353 . S
C288 H294 0.930 . S
N289 Li265 1.990 . S
N289 C288 1.314 . S
N289 C292 1.279 . S
C290 C288 1.353 . S
C290 C293 1.348 . S
C290 H338 0.929 . S
C291 C292 1.358 . S
C291 C293 1.356 . S
C291 H339 0.930 . S
C292 N289 1.279 . S
C292 C291 1.358 . S
C292 H295 0.930 . S
C293 C290 1.348 . S
C293 C291 1.356 . S
H294 C288 0.930 . S
H295 C292 0.930 . S
C296 C298 1.348 1_545 S
C296 C299 1.356 1_545 S
C296 O326 1.325 . S
N297 C300 1.314 . S
N297 C301 1.279 . S
C298 C296 1.348 1_565 S
C298 C300 1.353 . S
C298 H340 0.929 1_565 S
C299 C296 1.356 1_565 S
C299 C301 1.358 . S
C299 H341 0.930 . S
C300 N297 1.314 . S
C300 C298 1.353 . S
C300 H342 0.930 . S
C301 N297 1.279 . S
C301 C299 1.358 . S
C301 H343 0.930 . S
C302 C303 1.348 . S
C302 C304 1.356 . S
C302 O327 1.325 . S
C303 C302 1.348 . S
C303 C305 1.353 1_655 S
C303 H344 0.929 . S
C304 C302 1.356 . S
C304 C306 1.358 1_655 S
C304 H345 0.930 . S
C305 C303 1.353 1_455 S
C305 N307 1.314 . S
C305 H346 0.930 . S
C306 C304 1.358 1_455 S
C306 N307 1.279 . S
C306 H347 0.930 . S
N307 C305 1.314 . S
N307 C306 1.279 . S
C308 C310 1.353 . S
C308 N311 1.314 . S
C308 H314 0.930 . S
C309 N311 1.279 . S
C309 C312 1.358 . S
C309 H315 0.930 . S
C310 C308 1.353 . S
C310 C313 1.348 . S
C310 H348 0.929 . S
N311 Li266 1.990 . S
N311 C308 1.314 . S
N311 C309 1.279 . S
C312 C309 1.358 . S
C312 C313 1.356 . S
C312 H349 0.930 1_545 S
C313 C310 1.348 . S
C313 C312 1.356 . S
H314 C308 0.930 . S
H315 C309 0.930 . S
C316 N317 1.314 . S
C316 C318 1.353 1_655 S
C316 H322 0.930 . S
N317 Li267 1.990 . S
N317 C316 1.314 . S
N317 C320 1.279 1_655 S
C318 C316 1.353 1_455 S
C318 C321 1.348 . S
C318 H350 0.929 . S
C319 C320 1.358 . S
C319 C321 1.356 . S
C319 H351 0.930 . S
C320 N317 1.279 1_455 S
C320 C319 1.358 . S
C320 H323 0.930 . S
C321 C318 1.348 . S
C321 C319 1.356 . S
H322 C316 0.930 . S
H323 C320 0.930 . S
O324 Li264 1.956 . S
O324 Li265 1.970 . S
O324 Li266 1.961 . S
O324 C268 1.325 . S
O325 Li264 1.970 . S
O325 Li265 1.956 . S
O325 Li267 1.961 . S
O325 C274 1.325 . S
O326 Li264 1.961 . S
O326 Li266 1.956 . S
O326 Li267 1.970 . S
O326 C296 1.325 . S
O327 Li265 1.961 . S
O327 Li266 1.970 . S
O327 Li267 1.956 . S
O327 C302 1.325 . S
H328 C270 0.929 . S
H329 C271 0.930 . S
H330 C272 0.930 . S
H331 C273 0.930 . S
H332 C275 0.930 . S
H333 C277 0.929 . S
H334 C278 0.930 . S
H335 C279 0.930 . S
H336 C282 0.930 . S
H337 C285 0.929 . S
H338 C290 0.929 . S
H339 C291 0.930 . S
H340 C298 0.929 1_545 S
H341 C299 0.930 . S
H342 C300 0.930 . S
H343 C301 0.930 . S
H344 C303 0.929 . S
H345 C304 0.930 . S
H346 C305 0.930 . S
H347 C306 0.930 . S
H348 C310 0.929 . S
H349 C312 0.930 1_565 S
H350 C318 0.929 . S
H351 C319 0.930 . S
Li352 N369 1.990 . S
Li352 O412 1.956 . S
Li352 O413 1.970 . S
Li352 O414 1.961 . S
Li353 N377 1.990 . S
Li353 O412 1.970 . S
Li353 O413 1.956 . S
Li353 O415 1.961 . S
Li354 N399 1.990 . S
Li354 O412 1.961 . S
Li354 O414 1.956 . S
Li354 O415 1.970 . S
Li355 N405 1.990 . S
Li355 O413 1.961 . S
Li355 O414 1.970 . S
Li355 O415 1.956 . S
C356 C358 1.348 . S
C356 C359 1.356 . S
C356 O412 1.325 . S
N357 C360 1.314 . S
N357 C361 1.279 . S
C358 C356 1.348 . S
C358 C360 1.353 . S
C358 H416 0.929 . S
C359 C356 1.356 . S
C359 C361 1.358 . S
C359 H417 0.930 . S
C360 N357 1.314 . S
C360 C358 1.353 . S
C360 H418 0.930 . S
C361 N357 1.279 . S
C361 C359 1.358 . S
C361 H419 0.930 . S
C362 C365 1.348 . S
C362 C366 1.356 . S
C362 O413 1.325 . S
C363 N364 1.279 . S
C363 C366 1.358 . S
C363 H420 0.930 . S
N364 C363 1.279 . S
N364 C367 1.314 . S
C365 C362 1.348 . S
C365 C367 1.353 . S
C365 H421 0.929 . S
C366 C362 1.356 . S
C366 C363 1.358 . S
C366 H422 0.930 . S
C367 N364 1.314 . S
C367 C365 1.353 . S
C367 H423 0.930 . S
C368 N369 1.314 . S
C368 C373 1.353 . S
C368 H374 0.930 . S
N369 Li352 1.990 . S
N369 C368 1.314 . S
N369 C371 1.279 . S
C370 C371 1.358 . S
C370 C372 1.356 . S
C370 H424 0.930 . S
C371 N369 1.279 . S
C371 C370 1.358 . S
C371 H375 0.930 . S
C372 C370 1.356 . S
C372 C373 1.348 . S
C373 C368 1.353 . S
C373 C372 1.348 . S
C373 H425 0.929 . S
H374 C368 0.930 . S
H375 C371 0.930 . S
C376 N377 1.314 1_455 S
C376 C378 1.353 . S
C376 H382 0.930 . S
N377 Li353 1.990 . S
N377 C376 1.314 1_655 S
N377 C380 1.279 . S
C378 C376 1.353 . S
C378 C381 1.348 . S
C378 H426 0.929 . S
C379 C380 1.358 1_455 S
C379 C381 1.356 . S
C379 H427 0.930 . S
C380 N377 1.279 . S
C380 C379 1.358 1_655 S
C380 H383 0.930 . S
C381 C378 1.348 . S
C381 C379 1.356 . S
H382 C376 0.930 . S
H383 C380 0.930 . S
C384 C386 1.348 . S
C384 C387 1.356 . S
C384 O414 1.325 . S
N385 C388 1.314 . S
N385 C389 1.279 . S
C386 C384 1.348 . S
C386 C388 1.353 . S
C386 H428 0.929 . S
C387 C384 1.356 . S
C387 C389 1.358 . S
C387 H429 0.930 . S
C388 N385 1.314 . S
C388 C386 1.353 . S
C388 H430 0.930 . S
C389 N385 1.279 . S
C389 C387 1.358 . S
C389 H431 0.930 . S
C390 C391 1.348 . S
C390 C392 1.356 1_655 S
C390 O415 1.325 . S
C391 C390 1.348 . S
C391 C393 1.353 1_655 S
C391 H432 0.929 . S
C392 C390 1.356 1_455 S
C392 C394 1.358 . S
C392 H433 0.930 1_455 S
C393 C391 1.353 1_455 S
C393 N395 1.314 . S
C393 H434 0.930 . S
C394 C392 1.358 . S
C394 N395 1.279 . S
C394 H435 0.930 . S
N395 C393 1.314 . S
N395 C394 1.279 . S
C396 C398 1.353 . S
C396 N399 1.314 . S
C396 H402 0.930 . S
C397 N399 1.279 . S
C397 C400 1.358 . S
C397 H403 0.930 . S
C398 C396 1.353 . S
C398 C401 1.348 . S
C398 H436 0.929 . S
N399 Li354 1.990 . S
N399 C396 1.314 . S
N399 C397 1.279 . S
C400 C397 1.358 . S
C400 C401 1.356 . S
C400 H437 0.930 . S
C401 C398 1.348 . S
C401 C400 1.356 . S
H402 C396 0.930 . S
H403 C397 0.930 . S
C404 N405 1.314 . S
C404 C406 1.353 . S
C404 H410 0.930 . S
N405 Li355 1.990 . S
N405 C404 1.314 . S
N405 C408 1.279 . S
C406 C404 1.353 . S
C406 C409 1.348 . S
C406 H438 0.929 . S
C407 C408 1.358 . S
C407 C409 1.356 . S
C407 H439 0.930 . S
C408 N405 1.279 . S
C408 C407 1.358 . S
C408 H411 0.930 . S
C409 C406 1.348 . S
C409 C407 1.356 . S
H410 C404 0.930 . S
H411 C408 0.930 . S
O412 Li352 1.956 . S
O412 Li353 1.970 . S
O412 Li354 1.961 . S
O412 C356 1.325 . S
O413 Li352 1.970 . S
O413 Li353 1.956 . S
O413 Li355 1.961 . S
O413 C362 1.325 . S
O414 Li352 1.961 . S
O414 Li354 1.956 . S
O414 Li355 1.970 . S
O414 C384 1.325 . S
O415 Li353 1.961 . S
O415 Li354 1.970 . S
O415 Li355 1.956 . S
O415 C390 1.325 . S
H416 C358 0.929 . S
H417 C359 0.930 . S
H418 C360 0.930 . S
H419 C361 0.930 . S
H420 C363 0.930 . S
H421 C365 0.929 . S
H422 C366 0.930 . S
H423 C367 0.930 . S
H424 C370 0.930 . S
H425 C373 0.929 . S
H426 C378 0.929 . S
H427 C379 0.930 . S
H428 C386 0.929 . S
H429 C387 0.930 . S
H430 C388 0.930 . S
H431 C389 0.930 . S
H432 C391 0.929 . S
H433 C392 0.930 1_655 S
H434 C393 0.930 . S
H435 C394 0.930 . S
H436 C398 0.929 . S
H437 C400 0.930 . S
H438 C406 0.929 . S
H439 C407 0.930 . S
Li440 N457 1.990 . S
Li440 O500 1.956 . S
Li440 O501 1.970 . S
Li440 O502 1.961 . S
Li441 N465 1.990 . S
Li441 O500 1.970 . S
Li441 O501 1.956 . S
Li441 O503 1.961 . S
Li442 N487 1.990 . S
Li442 O500 1.961 . S
Li442 O502 1.956 . S
Li442 O503 1.970 . S
Li443 N493 1.990 . S
Li443 O501 1.961 . S
Li443 O502 1.970 . S
Li443 O503 1.956 . S
C444 C446 1.348 . S
C444 C447 1.356 . S
C444 O500 1.325 . S
N445 C448 1.314 . S
N445 C449 1.279 . S
C446 C444 1.348 . S
C446 C448 1.353 . S
C446 H504 0.929 . S
C447 C444 1.356 . S
C447 C449 1.358 . S
C447 H505 0.930 . S
C448 N445 1.314 . S
C448 C446 1.353 . S
C448 H506 0.930 . S
C449 N445 1.279 . S
C449 C447 1.358 . S
C449 H507 0.930 . S
C450 C453 1.348 1_545 S
C450 C454 1.356 1_545 S
C450 O501 1.325 . S
C451 N452 1.279 . S
C451 C454 1.358 . S
C451 H508 0.930 . S
N452 C451 1.279 . S
N452 C455 1.314 . S
C453 C450 1.348 1_565 S
C453 C455 1.353 . S
C453 H509 0.947 . S
C454 C450 1.356 1_565 S
C454 C451 1.358 . S
C454 H510 0.930 . S
C455 N452 1.314 . S
C455 C453 1.353 . S
C455 H511 0.930 . S
C456 N457 1.314 . S
C456 C461 1.353 . S
C456 H462 0.930 . S
N457 Li440 1.990 . S
N457 C456 1.314 . S
N457 C459 1.279 . S
C458 C459 1.358 . S
C458 C460 1.356 . S
C458 H512 0.930 . S
C459 N457 1.279 . S
C459 C458 1.358 . S
C459 H463 0.930 . S
C460 C458 1.356 . S
C460 C461 1.348 . S
C461 C456 1.353 . S
C461 C460 1.348 . S
C461 H513 0.929 . S
H462 C456 0.930 . S
H463 C459 0.930 . S
C464 N465 1.314 . S
C464 C466 1.353 . S
C464 H470 0.930 . S
N465 Li441 1.990 . S
N465 C464 1.314 . S
N465 C468 1.279 . S
C466 C464 1.353 . S
C466 C469 1.348 . S
C466 H514 0.929 . S
C467 C468 1.358 1_565 S
C467 C469 1.356 1_565 S
C467 H515 0.930 . S
C468 N465 1.279 . S
C468 C467 1.358 1_545 S
C468 H471 0.930 1_545 S
C469 C466 1.348 . S
C469 C467 1.356 1_545 S
H470 C464 0.930 . S
H471 C468 0.930 1_565 S
C472 C474 1.348 . S
C472 C475 1.356 . S
C472 O502 1.325 . S
N473 C476 1.314 . S
N473 C477 1.279 . S
C474 C472 1.348 . S
C474 C476 1.353 . S
C474 H516 0.929 . S
C475 C472 1.356 . S
C475 C477 1.358 . S
C475 H517 0.930 . S
C476 N473 1.314 . S
C476 C474 1.353 . S
C476 H518 0.930 . S
C477 N473 1.279 . S
C477 C475 1.358 . S
C477 H519 0.930 . S
C478 C479 1.348 . S
C478 C480 1.356 . S
C478 O503 1.325 . S
C479 C478 1.348 . S
C479 C481 1.353 . S
C479 H520 0.929 . S
C480 C478 1.356 . S
C480 C482 1.358 . S
C480 H521 0.930 . S
C481 C479 1.353 . S
C481 N483 1.314 . S
C481 H522 0.930 . S
C482 C480 1.358 . S
C482 N483 1.279 . S
C482 H523 0.930 . S
N483 C481 1.314 . S
N483 C482 1.279 . S
C484 C486 1.353 . S
C484 N487 1.314 . S
C484 H490 0.930 . S
C485 N487 1.279 . S
C485 C488 1.358 . S
C485 H491 0.930 . S
C486 C484 1.353 . S
C486 C489 1.348 . S
C486 H524 0.929 . S
N487 Li442 1.990 . S
N487 C484 1.314 . S
N487 C485 1.279 . S
C488 C485 1.358 . S
C488 C489 1.356 . S
C488 H525 0.930 . S
C489 C486 1.348 . S
C489 C488 1.356 . S
H490 C484 0.930 . S
H491 C485 0.930 . S
C492 N493 1.314 . S
C492 C494 1.353 . S
C492 H498 0.930 . S
N493 Li443 1.990 . S
N493 C492 1.314 . S
N493 C496 1.279 . S
C494 C492 1.353 . S
C494 C497 1.348 . S
C494 H526 0.929 1_545 S
C495 C496 1.358 . S
C495 C497 1.356 . S
C495 H527 0.930 . S
C496 N493 1.279 . S
C496 C495 1.358 . S
C496 H499 0.930 . S
C497 C494 1.348 . S
C497 C495 1.356 . S
H498 C492 0.930 . S
H499 C496 0.930 . S
O500 Li440 1.956 . S
O500 Li441 1.970 . S
O500 Li442 1.961 . S
O500 C444 1.325 . S
O501 Li440 1.970 . S
O501 Li441 1.956 . S
O501 Li443 1.961 . S
O501 C450 1.325 . S
O502 Li440 1.961 . S
O502 Li442 1.956 . S
O502 Li443 1.970 . S
O502 C472 1.325 . S
O503 Li441 1.961 . S
O503 Li442 1.970 . S
O503 Li443 1.956 . S
O503 C478 1.325 . S
H504 C446 0.929 . S
H505 C447 0.930 . S
H506 C448 0.930 . S
H507 C449 0.930 . S
H508 C451 0.930 . S
H509 C453 0.947 . S
H510 C454 0.930 . S
H511 C455 0.930 . S
H512 C458 0.930 . S
H513 C461 0.929 . S
H514 C466 0.929 . S
H515 C467 0.930 . S
H516 C474 0.929 . S
H517 C475 0.930 . S
H518 C476 0.930 . S
H519 C477 0.930 . S
H520 C479 0.929 . S
H521 C480 0.930 . S
H522 C481 0.930 . S
H523 C482 0.930 . S
H524 C486 0.929 . S
H525 C488 0.930 . S
H526 C494 0.929 1_565 S
H527 C495 0.930 . S
Li528 N545 1.990 . S
Li528 O588 1.956 . S
Li528 O589 1.970 . S
Li528 O590 1.961 . S
Li529 N553 1.990 . S
Li529 O588 1.970 . S
Li529 O589 1.956 . S
Li529 O591 1.961 . S
Li530 N575 1.990 . S
Li530 O588 1.961 . S
Li530 O590 1.956 . S
Li530 O591 1.970 . S
Li531 N581 1.990 . S
Li531 O589 1.961 . S
Li531 O590 1.970 . S
Li531 O591 1.956 . S
C532 C534 1.348 . S
C532 C535 1.356 . S
C532 O588 1.325 . S
N533 C536 1.314 . S
N533 C537 1.279 . S
C534 C532 1.348 . S
C534 C536 1.353 . S
C534 H592 0.929 . S
C535 C532 1.356 . S
C535 C537 1.358 . S
C535 H593 0.930 . S
C536 N533 1.314 . S
C536 C534 1.353 . S
C536 H594 0.930 . S
C537 N533 1.279 . S
C537 C535 1.358 . S
C537 H595 0.930 . S
C538 C541 1.348 . S
C538 C542 1.356 . S
C538 O589 1.325 . S
C539 N540 1.279 . S
C539 C542 1.358 . S
C539 H596 0.930 . S
N540 C539 1.279 . S
N540 C543 1.314 . S
C541 C538 1.348 . S
C541 C543 1.353 . S
C541 H597 0.929 . S
C542 C538 1.356 . S
C542 C539 1.358 . S
C542 H598 0.930 . S
C543 N540 1.314 . S
C543 C541 1.353 . S
C543 H599 0.930 . S
C544 N545 1.314 . S
C544 C549 1.353 . S
C544 H550 0.930 . S
N545 Li528 1.990 . S
N545 C544 1.314 . S
N545 C547 1.279 . S
C546 C547 1.358 . S
C546 C548 1.356 . S
C546 H600 0.930 . S
C547 N545 1.279 . S
C547 C546 1.358 . S
C547 H551 0.930 . S
C548 C546 1.356 . S
C548 C549 1.348 . S
C549 C544 1.353 . S
C549 C548 1.348 . S
C549 H601 0.929 . S
H550 C544 0.930 . S
H551 C547 0.930 . S
C552 N553 1.314 . S
C552 C554 1.353 . S
C552 H558 0.930 . S
N553 Li529 1.990 . S
N553 C552 1.314 . S
N553 C556 1.279 . S
C554 C552 1.353 . S
C554 C557 1.348 . S
C554 H602 0.929 . S
C555 C556 1.358 . S
C555 C557 1.356 . S
C555 H603 0.930 . S
C556 N553 1.279 . S
C556 C555 1.358 . S
C556 H559 0.930 . S
C557 C554 1.348 . S
C557 C555 1.356 . S
H558 C552 0.930 . S
H559 C556 0.930 . S
C560 C562 1.348 . S
C560 C563 1.356 . S
C560 O590 1.325 . S
N561 C564 1.314 . S
N561 C565 1.279 . S
C562 C560 1.348 . S
C562 C564 1.353 . S
C562 H604 0.929 . S
C563 C560 1.356 . S
C563 C565 1.358 . S
C563 H605 0.930 . S
C564 N561 1.314 . S
C564 C562 1.353 . S
C564 H606 0.930 . S
C565 N561 1.279 . S
C565 C563 1.358 . S
C565 H607 0.930 . S
C566 C567 1.348 . S
C566 C568 1.356 . S
C566 O591 1.325 . S
C567 C566 1.348 . S
C567 C569 1.353 . S
C567 H608 0.929 . S
C568 C566 1.356 . S
C568 C570 1.358 . S
C568 H609 0.930 . S
C569 C567 1.353 . S
C569 N571 1.314 . S
C569 H610 0.930 . S
C570 C568 1.358 . S
C570 N571 1.279 . S
C570 H611 0.930 . S
N571 C569 1.314 . S
N571 C570 1.279 . S
C572 C574 1.353 . S
C572 N575 1.314 . S
C572 H578 0.930 . S
C573 N575 1.279 . S
C573 C576 1.358 . S
C573 H579 0.930 . S
C574 C572 1.353 . S
C574 C577 1.348 . S
C574 H612 0.929 . S
N575 Li530 1.990 . S
N575 C572 1.314 . S
N575 C573 1.279 . S
C576 C573 1.358 . S
C576 C577 1.356 . S
C576 H613 0.930 . S
C577 C574 1.348 . S
C577 C576 1.356 . S
H578 C572 0.930 . S
H579 C573 0.930 . S
C580 N581 1.314 . S
C580 C582 1.353 . S
C580 H586 0.930 . S
N581 Li531 1.990 . S
N581 C580 1.314 . S
N581 C584 1.279 . S
C582 C580 1.353 . S
C582 C585 1.348 . S
C582 H614 0.929 . S
C583 C584 1.358 . S
C583 C585 1.356 . S
C583 H615 0.930 . S
C584 N581 1.279 . S
C584 C583 1.358 . S
C584 H587 0.930 . S
C585 C582 1.348 . S
C585 C583 1.356 . S
H586 C580 0.930 . S
H587 C584 0.930 . S
O588 Li528 1.956 . S
O588 Li529 1.970 . S
O588 Li530 1.961 . S
O588 C532 1.325 . S
O589 Li528 1.970 . S
O589 Li529 1.956 . S
O589 Li531 1.961 . S
O589 C538 1.325 . S
O590 Li528 1.961 . S
O590 Li530 1.956 . S
O590 Li531 1.970 . S
O590 C560 1.325 . S
O591 Li529 1.961 . S
O591 Li530 1.970 . S
O591 Li531 1.956 . S
O591 C566 1.325 . S
H592 C534 0.929 . S
H593 C535 0.930 . S
H594 C536 0.930 . S
H595 C537 0.930 . S
H596 C539 0.930 . S
H597 C541 0.929 . S
H598 C542 0.930 . S
H599 C543 0.930 . S
H600 C546 0.930 . S
H601 C549 0.929 . S
H602 C554 0.929 . S
H603 C555 0.930 . S
H604 C562 0.929 . S
H605 C563 0.930 . S
H606 C564 0.930 . S
H607 C565 0.930 . S
H608 C567 0.929 . S
H609 C568 0.930 . S
H610 C569 0.930 . S
H611 C570 0.930 . S
H612 C574 0.929 . S
H613 C576 0.930 . S
H614 C582 0.929 . S
H615 C583 0.930 . S
Li616 N633 1.990 . S
Li616 O676 1.956 . S
Li616 O677 1.970 . S
Li616 O678 1.961 . S
Li617 N641 1.990 . S
Li617 O676 1.970 . S
Li617 O677 1.956 . S
Li617 O679 1.961 . S
Li618 N663 1.990 . S
Li618 O676 1.961 . S
Li618 O678 1.956 . S
Li618 O679 1.970 . S
Li619 N669 1.990 . S
Li619 O677 1.961 . S
Li619 O678 1.970 . S
Li619 O679 1.956 . S
C620 C622 1.348 . S
C620 C623 1.356 . S
C620 O676 1.325 . S
N621 C624 1.314 . S
N621 C625 1.279 . S
C622 C620 1.348 . S
C622 C624 1.353 . S
C622 H680 0.929 . S
C623 C620 1.356 . S
C623 C625 1.358 . S
C623 H681 0.930 . S
C624 N621 1.314 . S
C624 C622 1.353 . S
C624 H682 0.930 . S
C625 N621 1.279 . S
C625 C623 1.358 . S
C625 H683 0.930 . S
C626 C629 1.348 . S
C626 C630 1.356 1_455 S
C626 O677 1.325 . S
C627 N628 1.279 . S
C627 C630 1.358 . S
C627 H684 0.930 . S
N628 C627 1.279 . S
N628 C631 1.314 . S
C629 C626 1.348 . S
C629 C631 1.353 1_455 S
C629 H685 0.929 . S
C630 C626 1.356 1_655 S
C630 C627 1.358 . S
C630 H686 0.930 1_655 S
C631 N628 1.314 . S
C631 C629 1.353 1_655 S
C631 H687 0.930 . S
C632 N633 1.314 . S
C632 C637 1.353 . S
C632 H638 0.930 . S
N633 Li616 1.990 . S
N633 C632 1.314 . S
N633 C635 1.279 . S
C634 C635 1.358 . S
C634 C636 1.356 . S
C634 H688 0.930 . S
C635 N633 1.279 . S
C635 C634 1.358 . S
C635 H639 0.930 . S
C636 C634 1.356 . S
C636 C637 1.348 . S
C637 C632 1.353 . S
C637 C636 1.348 . S
C637 H689 0.929 1_565 S
H638 C632 0.930 . S
H639 C635 0.930 . S
C640 N641 1.314 . S
C640 C642 1.353 . S
C640 H646 0.930 . S
N641 Li617 1.990 . S
N641 C640 1.314 . S
N641 C644 1.279 . S
C642 C640 1.353 . S
C642 C645 1.348 . S
C642 H690 0.929 . S
C643 C644 1.358 . S
C643 C645 1.356 . S
C643 H691 0.930 . S
C644 N641 1.279 . S
C644 C643 1.358 . S
C644 H647 0.930 . S
C645 C642 1.348 . S
C645 C643 1.356 . S
H646 C640 0.930 . S
H647 C644 0.930 . S
C648 C650 1.348 1_565 S
C648 C651 1.356 1_565 S
C648 O678 1.325 . S
N649 C652 1.314 . S
N649 C653 1.279 . S
C650 C648 1.348 1_545 S
C650 C652 1.353 . S
C650 H692 0.947 . S
C651 C648 1.356 1_545 S
C651 C653 1.358 . S
C651 H693 0.930 . S
C652 N649 1.314 . S
C652 C650 1.353 . S
C652 H694 0.930 . S
C653 N649 1.279 . S
C653 C651 1.358 . S
C653 H695 0.930 . S
C654 C655 1.348 . S
C654 C656 1.356 . S
C654 O679 1.325 . S
C655 C654 1.348 . S
C655 C657 1.353 . S
C655 H696 0.929 . S
C656 C654 1.356 . S
C656 C658 1.358 . S
C656 H697 0.930 . S
C657 C655 1.353 . S
C657 N659 1.314 . S
C657 H698 0.930 . S
C658 C656 1.358 . S
C658 N659 1.279 . S
C658 H699 0.930 . S
N659 C657 1.314 . S
N659 C658 1.279 . S
C660 C662 1.353 . S
C660 N663 1.314 . S
C660 H666 0.930 . S
C661 N663 1.279 . S
C661 C664 1.358 1_565 S
C661 H667 0.930 1_565 S
C662 C660 1.353 . S
C662 C665 1.348 . S
C662 H700 0.929 . S
N663 Li618 1.990 . S
N663 C660 1.314 . S
N663 C661 1.279 . S
C664 C661 1.358 1_545 S
C664 C665 1.356 1_545 S
C664 H701 0.930 . S
C665 C662 1.348 . S
C665 C664 1.356 1_565 S
H666 C660 0.930 . S
H667 C661 0.930 1_545 S
C668 N669 1.314 1_655 S
C668 C670 1.353 . S
C668 H674 0.930 . S
N669 Li619 1.990 . S
N669 C668 1.314 1_455 S
N669 C672 1.279 . S
C670 C668 1.353 . S
C670 C673 1.348 . S
C670 H702 0.929 . S
C671 C672 1.358 1_655 S
C671 C673 1.356 . S
C671 H703 0.930 . S
C672 N669 1.279 . S
C672 C671 1.358 1_455 S
C672 H675 0.930 . S
C673 C670 1.348 . S
C673 C671 1.356 . S
H674 C668 0.930 . S
H675 C672 0.930 . S
O676 Li616 1.956 . S
O676 Li617 1.970 . S
O676 Li618 1.961 . S
O676 C620 1.325 . S
O677 Li616 1.970 . S
O677 Li617 1.956 . S
O677 Li619 1.961 . S
O677 C626 1.325 . S
O678 Li616 1.961 . S
O678 Li618 1.956 . S
O678 Li619 1.970 . S
O678 C648 1.325 . S
O679 Li617 1.961 . S
O679 Li618 1.970 . S
O679 Li619 1.956 . S
O679 C654 1.325 . S
H680 C622 0.929 . S
H681 C623 0.930 . S
H682 C624 0.930 . S
H683 C625 0.930 . S
H684 C627 0.930 . S
H685 C629 0.929 . S
H686 C630 0.930 1_455 S
H687 C631 0.930 . S
H688 C634 0.930 . S
H689 C637 0.929 1_545 S
H690 C642 0.929 . S
H691 C643 0.930 . S
H692 C650 0.947 . S
H693 C651 0.930 . S
H694 C652 0.930 . S
H695 C653 0.930 . S
H696 C655 0.929 . S
H697 C656 0.930 . S
H698 C657 0.930 . S
H699 C658 0.930 . S
H700 C662 0.929 . S
H701 C664 0.930 . S
H702 C670 0.929 . S
H703 C671 0.930 . S
C704 C705 1.387 . S
C704 H708 0.950 . S
C704 C713 1.390 . S
C705 C704 1.387 . S
C705 C707 1.387 . S
H706 C713 0.950 . S
C707 C705 1.387 . S
C707 C709 1.390 . S
C707 H711 0.950 . S
H708 C704 0.950 . S
C709 C707 1.390 . S
C709 C710 1.387 . S
C709 H712 0.950 . S
C710 C709 1.387 . S
C710 C713 1.387 . S
H711 C707 0.950 . S
H712 C709 0.950 . S
C713 C704 1.390 . S
C713 H706 0.950 . S
C713 C710 1.387 . S
C714 C715 1.387 . S
C714 H718 0.950 1_545 S
C714 C723 1.390 1_545 S
C715 C714 1.387 . S
C715 C717 1.387 . S
H716 C723 0.950 . S
C717 C715 1.387 . S
C717 C719 1.390 . S
C717 H721 0.950 . S
H718 C714 0.950 1_565 S
C719 C717 1.390 . S
C719 C720 1.387 . S
C719 H722 0.950 . S
C720 C719 1.387 . S
C720 C723 1.387 1_545 S
H721 C717 0.950 . S
H722 C719 0.950 . S
C723 C714 1.390 1_565 S
C723 H716 0.950 . S
C723 C720 1.387 1_565 S
C724 C725 1.387 . S
C724 H728 0.950 . S
C724 C733 1.390 . S
C725 C724 1.387 . S
C725 C727 1.387 . S
H726 C733 0.950 . S
C727 C725 1.387 . S
C727 C729 1.390 . S
C727 H731 0.950 . S
H728 C724 0.950 . S
C729 C727 1.390 . S
C729 C730 1.387 . S
C729 H732 0.950 . S
C730 C729 1.387 . S
C730 C733 1.387 . S
H731 C727 0.950 . S
H732 C729 0.950 . S
C733 C724 1.390 . S
C733 H726 0.950 . S
C733 C730 1.387 . S
C734 C735 1.387 . S
C734 H738 0.950 . S
C734 C743 1.390 . S
C735 C734 1.387 . S
C735 C737 1.387 . S
H736 C743 0.950 . S
C737 C735 1.387 . S
C737 C739 1.390 . S
C737 H741 0.950 . S
H738 C734 0.950 . S
C739 C737 1.390 . S
C739 C740 1.387 . S
C739 H742 0.950 . S
C740 C739 1.387 . S
C740 C743 1.387 . S
H741 C737 0.950 . S
H742 C739 0.950 . S
C743 C734 1.390 . S
C743 H736 0.950 . S
C743 C740 1.387 . S
C744 C745 1.387 . S
C744 H748 0.950 . S
C744 C753 1.390 . S
C745 C744 1.387 . S
C745 C747 1.387 . S
H746 C753 0.950 . S
C747 C745 1.387 . S
C747 C749 1.390 . S
C747 H751 0.950 . S
H748 C744 0.950 . S
C749 C747 1.390 . S
C749 C750 1.387 . S
C749 H752 0.950 . S
C750 C749 1.387 . S
C750 C753 1.387 . S
H751 C747 0.950 . S
H752 C749 0.950 . S
C753 C744 1.390 . S
C753 H746 0.950 . S
C753 C750 1.387 . S
C754 C755 1.387 . S
C754 H758 0.950 . S
C754 C763 1.390 . S
C755 C754 1.387 . S
C755 C757 1.387 1_565 S
H756 C763 0.950 . S
C757 C755 1.387 1_545 S
C757 C759 1.390 1_545 S
C757 H761 0.950 . S
H758 C754 0.950 . S
C759 C757 1.390 1_565 S
C759 C760 1.387 . S
C759 H762 0.950 1_565 S
C760 C759 1.387 . S
C760 C763 1.387 . S
H761 C757 0.950 . S
H762 C759 0.950 1_545 S
C763 C754 1.390 . S
C763 H756 0.950 . S
C763 C760 1.387 . S
C764 C765 1.387 . S
C764 H768 0.950 . S
C764 C773 1.390 . S
C765 C764 1.387 . S
C765 C767 1.387 . S
H766 C773 0.950 . S
C767 C765 1.387 . S
C767 C769 1.390 . S
C767 H771 0.950 . S
H768 C764 0.950 . S
C769 C767 1.390 . S
C769 C770 1.387 . S
C769 H772 0.950 . S
C770 C769 1.387 . S
C770 C773 1.387 . S
H771 C767 0.950 . S
H772 C769 0.950 . S
C773 C764 1.390 . S
C773 H766 0.950 . S
C773 C770 1.387 . S
C774 C775 1.387 . S
C774 H778 0.950 . S
C774 C783 1.390 . S
C775 C774 1.387 . S
C775 C777 1.387 1_545 S
H776 C783 0.950 . S
C777 C775 1.387 1_565 S
C777 C779 1.390 1_565 S
C777 H781 0.950 . S
H778 C774 0.950 . S
C779 C777 1.390 1_545 S
C779 C780 1.387 . S
C779 H782 0.950 1_545 S
C780 C779 1.387 . S
C780 C783 1.387 . S
H781 C777 0.950 . S
H782 C779 0.950 1_565 S
C783 C774 1.390 . S
C783 H776 0.950 . S
C783 C780 1.387 . S
C784 C785 1.387 . S
C784 H788 0.950 . S
C784 C793 1.390 1_455 S
C785 C784 1.387 . S
C785 C787 1.387 . S
H786 C793 0.950 . S
C787 C785 1.387 . S
C787 C789 1.390 1_455 S
C787 H791 0.950 . S
H788 C784 0.950 . S
C789 C787 1.390 1_655 S
C789 C790 1.387 . S
C789 H792 0.950 . S
C790 C789 1.387 . S
C790 C793 1.387 . S
H791 C787 0.950 . S
H792 C789 0.950 . S
C793 C784 1.390 1_655 S
C793 H786 0.950 . S
C793 C790 1.387 . S
C794 C795 1.387 . S
C794 H798 0.950 . S
C794 C803 1.390 . S
C795 C794 1.387 . S
C795 C797 1.387 1_565 S
H796 C803 0.950 . S
C797 C795 1.387 1_545 S
C797 C799 1.390 . S
C797 H801 0.950 . S
H798 C794 0.950 . S
C799 C797 1.390 . S
C799 C800 1.387 . S
C799 H802 0.950 . S
C800 C799 1.387 . S
C800 C803 1.387 1_545 S
H801 C797 0.950 . S
H802 C799 0.950 . S
C803 C794 1.390 . S
C803 H796 0.950 . S
C803 C800 1.387 1_565 S
C804 C805 1.387 1_556 S
C804 H808 0.950 . S
C804 C813 1.390 . S
C805 C804 1.387 1_554 S
C805 C807 1.387 . S
H806 C813 0.950 . S
C807 C805 1.387 . S
C807 C809 1.390 . S
C807 H811 0.950 . S
H808 C804 0.950 . S
C809 C807 1.390 . S
C809 C810 1.387 1_554 S
C809 H812 0.950 . S
C810 C809 1.387 1_556 S
C810 C813 1.387 . S
H811 C807 0.950 . S
H812 C809 0.950 . S
C813 C804 1.390 . S
C813 H806 0.950 . S
C813 C810 1.387 . S
C814 C815 1.386 1_645 S
C814 H818 0.950 1_655 S
C814 C823 1.391 . S
C815 C814 1.386 1_465 S
C815 C817 1.387 1_556 S
H816 C823 0.950 . S
C817 C815 1.387 1_554 S
C817 C819 1.390 1_455 S
C817 H821 0.950 . S
H818 C814 0.950 1_455 S
C819 C817 1.390 1_655 S
C819 C820 1.387 1_565 S
C819 H822 0.950 . S
C820 C819 1.387 1_545 S
C820 C823 1.387 1_554 S
H821 C817 0.950 . S
H822 C819 0.950 . S
C823 C814 1.391 . S
C823 H816 0.950 . S
C823 C820 1.387 1_556 S
C824 C825 1.387 . S
C824 H828 0.950 . S
C824 C833 1.390 . S
C825 C824 1.387 . S
C825 C827 1.387 . S
H826 C833 0.950 . S
C827 C825 1.387 . S
C827 C829 1.390 . S
C827 H831 0.950 . S
H828 C824 0.950 . S
C829 C827 1.390 . S
C829 C830 1.387 . S
C829 H832 0.950 . S
C830 C829 1.387 . S
C830 C833 1.387 . S
H831 C827 0.950 . S
H832 C829 0.950 . S
C833 C824 1.390 . S
C833 H826 0.950 . S
C833 C830 1.387 . S
C834 C835 1.387 . S
C834 H838 0.950 . S
C834 C843 1.390 . S
C835 C834 1.387 . S
C835 C837 1.387 . S
H836 C843 0.950 . S
C837 C835 1.387 . S
C837 C839 1.390 . S
C837 H841 0.950 . S
H838 C834 0.950 . S
C839 C837 1.390 . S
C839 C840 1.387 . S
C839 H842 0.950 . S
C840 C839 1.387 . S
C840 C843 1.387 . S
H841 C837 0.950 . S
H842 C839 0.950 . S
C843 C834 1.390 . S
C843 H836 0.950 . S
C843 C840 1.387 . S
C844 C845 1.387 . S
C844 H848 0.950 . S
C844 C853 1.390 . S
C845 C844 1.387 . S
C845 C847 1.387 . S
H846 C853 0.950 . S
C847 C845 1.387 . S
C847 C849 1.390 . S
C847 H851 0.950 . S
H848 C844 0.950 . S
C849 C847 1.390 . S
C849 C850 1.387 . S
C849 H852 0.950 . S
C850 C849 1.387 . S
C850 C853 1.387 . S
H851 C847 0.950 . S
H852 C849 0.950 . S
C853 C844 1.390 . S
C853 H846 0.950 . S
C853 C850 1.387 . S
C854 C855 1.387 . S
C854 H858 0.950 . S
C854 C863 1.390 . S
C855 C854 1.387 . S
C855 C857 1.387 . S
H856 C863 0.950 . S
C857 C855 1.387 . S
C857 C859 1.390 . S
C857 H861 0.950 . S
H858 C854 0.950 . S
C859 C857 1.390 . S
C859 C860 1.387 . S
C859 H862 0.950 . S
C860 C859 1.387 . S
C860 C863 1.387 . S
H861 C857 0.950 . S
H862 C859 0.950 . S
C863 C854 1.390 . S
C863 H856 0.950 . S
C863 C860 1.387 . S
C705 C57 1.139 . S
C710 C233 1.148 . S
C715 C321 1.146 . S
C720 C108 1.138 1_545 S
C725 C196 1.138 . S
C730 C20 1.147 . S
C735 C284 1.139 1_565 S
C740 C145 1.149 . S
C745 C585 1.142 . S
C750 C372 1.135 . S
C755 C469 1.132 1_565 S
C760 C673 1.139 . S
C765 C577 1.135 . S
C770 C381 1.141 . S
C775 C665 1.131 1_545 S
C780 C460 1.139 . S
C785 C29 1.800 . S
C790 C401 1.806 . S
C795 C137 1.800 . S
C800 C497 1.805 . S
C805 C225 1.800 . S
C810 C548 1.806 . S
C815 C636 1.805 . S
C820 C313 1.799 . S
C825 C49 1.793 . S
C830 C117 1.793 . S
C835 C293 1.790 . S
C840 C205 1.790 . S
C845 C489 1.801 . S
C850 C409 1.801 . S
C855 C557 1.804 . S
C860 C645 1.804 . S
