# Generated by pormake.
# Topology nbo, (4)-cn, num edge types: 1
# Building blocks:
#     Node 0, Type 0, BuildingBlock: NAWXER_clean_sbu_0, # of connection points: 4
#     Node 1, Type 0, BuildingBlock: NAWXER_clean_sbu_0, # of connection points: 4
#     Node 2, Type 0, BuildingBlock: NAWXER_clean_sbu_0, # of connection points: 4
#     Node 3, Type 0, BuildingBlock: NAWXER_clean_sbu_0, # of connection points: 4
#     Node 4, Type 0, BuildingBlock: NAWXER_clean_sbu_0, # of connection points: 4
#     Node 5, Type 0, BuildingBlock: NAWXER_clean_sbu_0, # of connection points: 4
#     Edge 6, Type (0, 0), BuildingBlock: MIFKUJ_clean_linker_0, # of connection points: 2
#     Edge 7, Type (0, 0), BuildingBlock: MIFKUJ_clean_linker_0, # of connection points: 2
#     Edge 8, Type (0, 0), BuildingBlock: MIFKUJ_clean_linker_0, # of connection points: 2
#     Edge 9, Type (0, 0), BuildingBlock: MIFKUJ_clean_linker_0, # of connection points: 2
#     Edge 10, Type (0, 0), BuildingBlock: MIFKUJ_clean_linker_0, # of connection points: 2
#     Edge 11, Type (0, 0), BuildingBlock: MIFKUJ_clean_linker_0, # of connection points: 2
#     Edge 12, Type (0, 0), BuildingBlock: MIFKUJ_clean_linker_0, # of connection points: 2
#     Edge 13, Type (0, 0), BuildingBlock: MIFKUJ_clean_linker_0, # of connection points: 2
#     Edge 14, Type (0, 0), BuildingBlock: MIFKUJ_clean_linker_0, # of connection points: 2
#     Edge 15, Type (0, 0), BuildingBlock: MIFKUJ_clean_linker_0, # of connection points: 2
#     Edge 16, Type (0, 0), BuildingBlock: MIFKUJ_clean_linker_0, # of connection points: 2
#     Edge 17, Type (0, 0), BuildingBlock: MIFKUJ_clean_linker_0, # of connection points: 2
# Relax obj value: 0.000
# Max RMSD: 0.000
# Mean RMSD: 0.000
data_MOF--net-nbo--node1-NAWXER_clean_sbu_0--edge1-MIFKUJ_clean_linker_0
_symmetry_space_group_name_H-M    P1
_symmetry_Int_Tables_number       1
_symmetry_cell_setting            triclinic
loop_
_symmetry_equiv_pos_as_xyz
'x, y, z'
_cell_length_a     38.385369
_cell_length_b     38.387299
_cell_length_c     38.291586
_cell_angle_alpha  97.275851
_cell_angle_beta   97.332608
_cell_angle_gamma 97.07521
loop_
_atom_site_label
_atom_site_type_symbol
_atom_site_fract_x
_atom_site_fract_y
_atom_site_fract_z
_atom_type_partial_charge
C0 C 0.01569 0.0647 0.48439 0.0
C1 C 0.00969 0.93671 0.48689 0.0
O2 O 1.00774 0.04038 0.45772 0.0
Zn3 Zn 1.00846 0.99954 0.48368 0.0
O4 O 0.01977 0.05635 0.51581 0.0
Zn5 Zn 0.01714 0.01009 0.54088 0.0
O6 O 0.06496 0.01632 0.56734 0.0
O7 O 0.06259 1.00427 0.50888 0.0
O8 O 0.01401 0.95551 0.51769 0.0
O9 O 1.00384 0.95122 0.45895 0.0
O10 O 0.96111 0.99735 0.5069 0.0
O11 O 0.97513 0.01116 0.56506 0.0
C12 C 0.08048 0.00995 0.5402 0.0
C13 C 0.9516 1.0023 0.53778 0.0
C14 C 0.53949 0.07614 0.01084 0.0
C15 C 0.52985 0.9458 0.99968 0.0
O16 O 0.56534 0.05827 0.01063 0.0
Zn17 Zn 0.53681 0.01159 1.00702 0.0
O18 O 0.50783 0.06006 0.00862 0.0
Zn19 Zn 0.48003 1.00743 1.00256 0.0
O20 O 0.45817 0.00828 0.04605 0.0
O21 O 0.51662 0.01532 0.05698 0.0
O22 O 0.49991 0.95755 0.99828 0.0
O23 O 0.55829 0.96782 1.00493 0.0
O24 O 0.50949 0.00809 0.95411 0.0
O25 O 0.45199 1.0061 0.95566 0.0
C26 C 0.48653 0.01364 0.06837 0.0
C27 C 0.47792 1.00685 0.93793 0.0
C28 C 0.07095 0.48525 0.01063 0.0
C29 C 0.94228 0.48131 1.00618 0.0
O30 O 0.04791 0.45758 1.00363 0.0
Zn31 Zn 1.00602 0.48129 1.00481 0.0
O32 O 0.06097 0.51602 0.01438 0.0
Zn33 Zn 0.01228 0.53834 0.01209 0.0
O34 O 0.01687 0.5652 0.05973 0.0
O35 O 0.01302 0.50711 0.05903 0.0
O36 O 0.95959 0.51255 0.00963 0.0
O37 O 0.95851 0.45447 1.0014 0.0
O38 O 1.00287 0.50336 0.95649 0.0
O39 O 0.00969 0.56155 0.96908 0.0
C40 C 0.01615 0.53845 0.0764 0.0
C41 C 1.00449 0.53382 0.946 0.0
C42 C 0.51795 0.56577 0.97952 0.0
C43 C 0.50427 0.4353 0.97146 0.0
O44 O 0.51308 0.54333 0.95129 0.0
Zn45 Zn 0.50941 0.49968 0.97332 0.0
O46 O 0.51876 0.55452 0.00966 0.0
Zn47 Zn 0.51416 0.50551 0.03029 0.0
O48 O 0.56078 0.50775 0.05856 0.0
O49 O 0.5615 0.49977 1.00048 0.0
O50 O 0.50694 0.45183 1.00317 0.0
O51 O 0.5044 0.45268 0.94521 0.0
O52 O 0.45997 0.49809 0.99415 0.0
O53 O 0.47159 0.5063 0.05279 0.0
C54 C 0.57765 0.50255 0.03228 0.0
C55 C 0.44908 0.50095 0.02456 0.0
C56 C 0.03312 0.57072 0.50678 0.0
C57 C 0.02718 0.44176 0.50045 0.0
O58 O 0.05961 0.55405 0.51177 0.0
Zn59 Zn 0.03198 0.50687 0.5073 0.0
O60 O 1.00161 0.55392 0.50279 0.0
Zn61 Zn 0.97504 0.50135 0.49977 0.0
O62 O 0.95149 0.50362 0.54246 0.0
O63 O 0.00961 0.50961 0.55553 0.0
O64 O 0.99661 0.45227 0.49717 0.0
O65 O 0.05504 0.46457 0.50743 0.0
O66 O 1.00648 0.50108 0.45301 0.0
O67 O 0.9484 0.49747 0.45213 0.0
C68 C 0.97904 0.5082 0.56575 0.0
C69 C 0.97521 0.49839 0.43557 0.0
C70 C 0.57426 0.99407 0.51677 0.0
C71 C 0.4459 0.99109 0.51364 0.0
O72 O 0.55087 0.96668 0.51041 0.0
Zn73 Zn 0.50911 0.9908 0.51095 0.0
O74 O 0.56451 0.02495 0.51962 0.0
Zn75 Zn 0.51613 0.04755 0.51651 0.0
O76 O 0.52122 0.07616 0.56335 0.0
O77 O 0.51656 0.01831 0.56468 0.0
O78 O 0.46301 0.0223 0.51564 0.0
O79 O 0.46207 0.96416 0.50933 0.0
O80 O 0.5041 0.01102 0.46142 0.0
O81 O 0.51454 0.06933 0.47269 0.0
C82 C 0.52011 0.05013 0.58101 0.0
C83 C 0.50698 0.04116 0.45024 0.0
H84 H 0.97945 0.09865 0.43543 0.0
H85 H 0.98433 0.16285 0.43439 0.0
H86 H 0.06989 0.18005 0.52241 0.0
H87 H 0.06345 0.11646 0.52476 0.0
H88 H 0.02947 0.22389 0.5364 0.0
H89 H 0.07979 0.1911 0.43105 0.0
H90 H 0.08279 0.15837 0.37204 0.0
H91 H 0.98999 0.19878 0.32793 0.0
H92 H 0.98616 0.2314 0.38681 0.0
H93 H 0.08216 0.40752 0.52484 0.0
H94 H 0.08359 0.3432 0.51827 0.0
H95 H 0.9789 0.32489 0.45734 0.0
H96 H 0.97694 0.3888 0.46436 0.0
H97 H 0.03075 0.28308 0.42863 0.0
H98 H 0.98191 0.31437 0.5374 0.0
H99 H 0.98301 0.34848 0.5967 0.0
H100 H 0.08007 0.31139 0.63431 0.0
H101 H 0.07981 0.27747 0.57502 0.0
C102 C 0.99952 0.11623 0.45418 0.0
C103 C 0.02098 0.10268 0.48024 0.0
C104 C 1.00247 0.15295 0.45353 0.0
C105 C 0.02772 0.17661 0.47819 0.0
C106 C 0.04999 0.16265 0.50327 0.0
C107 C 0.04641 0.12623 0.50451 0.0
C108 C 0.02975 0.21591 0.47958 0.0
C109 C 0.0304 0.23667 0.51277 0.0
C110 C 0.03029 0.23301 0.44886 0.0
C111 C 0.03249 0.21341 0.41343 0.0
C112 C 0.05987 0.19279 0.40883 0.0
C113 C 0.06174 0.1743 0.37539 0.0
C114 C 0.03654 0.17642 0.34628 0.0
C115 C 0.00946 0.19712 0.35052 0.0
C116 C 1.00744 0.21565 0.38391 0.0
C117 C 0.05957 0.38977 0.50989 0.0
C118 C 0.02934 0.4032 0.49536 0.0
C119 C 0.06042 0.35309 0.50615 0.0
C120 C 0.03132 0.32935 0.48732 0.0
C121 C 1.00164 0.34277 0.47186 0.0
C122 C 1.0005 0.37929 0.47613 0.0
C123 C 0.03088 0.29042 0.48527 0.0
C124 C 0.03024 0.26994 0.45207 0.0
C125 C 0.03104 0.27357 0.51599 0.0
C126 C 0.03105 0.29372 0.55169 0.0
C127 C 1.00365 0.31375 0.55823 0.0
C128 C 1.00409 0.333 0.59185 0.0
C129 C 0.03165 0.33219 0.61923 0.0
C130 C 0.05877 0.31204 0.61306 0.0
C131 C 0.05848 0.29279 0.57947 0.0
H132 H 0.03194 0.34711 0.64525 0.0
H133 H 0.03805 0.16208 0.32041 0.0
H134 H 0.90006 0.95609 0.49492 0.0
H135 H 0.83617 0.95059 0.49512 0.0
H136 H 0.85201 0.03305 0.58573 0.0
H137 H 0.91657 0.03722 0.58673 0.0
H138 H 0.79928 0.98687 0.59243 0.0
H139 H 0.82762 0.04857 0.497 0.0
H140 H 0.85392 0.05927 0.44316 0.0
H141 H 0.79036 0.96499 0.38473 0.0
H142 H 0.76403 0.95345 0.43838 0.0
H143 H 0.62795 0.04266 0.55402 0.0
H144 H 0.69163 0.03928 0.56113 0.0
H145 H 0.67151 0.9361 0.49725 0.0
H146 H 0.60734 0.93886 0.49073 0.0
H147 H 0.72519 0.9916 0.47747 0.0
H148 H 0.69496 0.93401 0.57666 0.0
H149 H 0.66803 0.92941 0.6313 0.0
H150 H 0.73483 0.02456 0.68341 0.0
H151 H 0.76179 0.03003 0.62886 0.0
C152 C 0.88995 0.97285 0.51512 0.0
C153 C 0.91325 0.99737 0.54059 0.0
C154 C 0.85335 0.96985 0.51507 0.0
C155 C 0.83899 0.99216 0.53972 0.0
C156 C 0.86232 0.0157 0.56621 0.0
C157 C 0.8992 0.01811 0.56679 0.0
C158 C 0.79975 0.9915 0.53696 0.0
C159 C 0.78323 0.9883 0.56734 0.0
C160 C 0.77844 0.99306 0.50419 0.0
C161 C 0.79411 0.99997 0.47181 0.0
C162 C 0.81943 0.02999 0.47274 0.0
C163 C 0.83432 0.03622 0.44224 0.0
C164 C 0.82388 0.01277 0.41057 0.0
C165 C 0.79846 0.9831 0.4093 0.0
C166 C 0.78352 0.97671 0.43973 0.0
C167 C 0.63701 0.01913 0.54161 0.0
C168 C 0.61264 0.99104 0.52171 0.0
C169 C 0.67339 0.01721 0.54584 0.0
C170 C 0.68622 0.98743 0.52981 0.0
C171 C 0.66205 0.95927 0.50991 0.0
C172 C 0.62547 0.96084 0.50628 0.0
C173 C 0.72502 0.98664 0.53273 0.0
C174 C 0.74139 0.98988 0.50241 0.0
C175 C 0.74616 0.98599 0.56566 0.0
C176 C 0.73015 0.98261 0.59855 0.0
C177 C 0.70368 0.95414 0.59966 0.0
C178 C 0.68846 0.95133 0.63064 0.0
C179 C 0.69964 0.97673 0.66078 0.0
C180 C 0.72615 1.00493 0.66003 0.0
C181 C 0.74144 1.00788 0.62909 0.0
H182 H 0.68782 0.97451 0.68474 0.0
H183 H 0.83544 0.01765 0.38699 0.0
H184 H 0.08827 0.6237 0.53597 0.0
H185 H 0.09148 0.68727 0.53021 0.0
H186 H 0.99093 0.66588 0.46132 0.0
H187 H 0.98729 0.60322 0.46734 0.0
H188 H 0.04333 0.71289 0.4373 0.0
H189 H 0.991 0.69393 0.54447 0.0
H190 H 0.99144 0.676 0.60415 0.0
H191 H 0.08489 0.7512 0.64342 0.0
H192 H 0.08531 0.76919 0.58382 0.0
H193 H 0.97695 0.8787 0.4389 0.0
H194 H 0.98691 0.81673 0.43967 0.0
H195 H 0.06902 0.85008 0.5301 0.0
H196 H 0.05762 0.91103 0.53061 0.0
H197 H 0.03228 0.79705 0.54341 0.0
H198 H 0.08454 0.8209 0.44095 0.0
H199 H 0.0884 0.83976 0.38219 0.0
H200 H 1.00328 0.7576 0.33448 0.0
H201 H 0.99851 0.73859 0.39306 0.0
C202 C 0.06708 0.63268 0.51945 0.0
C203 C 0.03736 0.60866 0.50248 0.0
C204 C 0.06891 0.66885 0.51618 0.0
C205 C 0.04136 0.68117 0.49537 0.0
C206 C 0.01246 0.65692 0.47741 0.0
C207 C 0.01033 0.62116 0.48116 0.0
C208 C 0.04104 0.71945 0.49356 0.0
C209 C 0.04089 0.73144 0.46041 0.0
C210 C 0.03868 0.74363 0.5239 0.0
C211 C 0.03844 0.73259 0.55961 0.0
C212 C 0.01185 0.70637 0.56574 0.0
C213 C 0.0119 0.69625 0.59957 0.0
C214 C 0.03823 0.71241 0.62753 0.0
C215 C 0.06456 0.73868 0.62172 0.0
C216 C 0.06466 0.74884 0.58794 0.0
C217 C 0.99713 0.87259 0.45877 0.0
C218 C 0.01619 0.89946 0.48493 0.0
C219 C 1.00305 0.83726 0.45909 0.0
C220 C 0.02898 0.82855 0.48484 0.0
C221 C 0.04866 0.85581 0.51018 0.0
C222 C 0.04211 0.89072 0.51043 0.0
C223 C 0.03457 0.79106 0.48693 0.0
C224 C 0.03539 0.77899 0.52019 0.0
C225 C 0.03832 0.76707 0.45676 0.0
C226 C 0.04094 0.77855 0.42149 0.0
C227 C 0.06643 0.80705 0.41799 0.0
C228 C 0.06881 0.81774 0.3847 0.0
C229 C 0.04603 0.79995 0.35464 0.0
C230 C 0.02086 0.77139 0.3578 0.0
C231 C 0.01832 0.76064 0.39104 0.0
H232 H 0.04794 0.80825 0.32889 0.0
H233 H 0.03816 0.70472 0.65374 0.0
H234 H 0.41421 0.0405 0.54968 0.0
H235 H 0.35239 0.03718 0.55904 0.0
H236 H 0.33034 0.93129 0.50075 0.0
H237 H 0.393 0.93418 0.49166 0.0
H238 H 0.28385 0.98061 0.47806 0.0
H239 H 0.3263 0.9367 0.58556 0.0
H240 H 0.36599 0.93659 0.64151 0.0
H241 H 0.34288 0.03951 0.68169 0.0
H242 H 0.30277 0.04009 0.62605 0.0
H243 H 0.10697 0.95667 0.50496 0.0
H244 H 0.16887 0.94825 0.50546 0.0
H245 H 0.20097 0.04294 0.58225 0.0
H246 H 0.13818 0.05027 0.58323 0.0
H247 H 0.24284 0.99585 0.59615 0.0
H248 H 0.2029 0.04241 0.4903 0.0
H249 H 0.16338 0.04524 0.43496 0.0
H250 H 0.18434 0.94275 0.39069 0.0
H251 H 0.22365 0.93911 0.44597 0.0
C252 C 0.39631 0.01638 0.53885 0.0
C253 C 0.40837 0.98769 0.51955 0.0
C254 C 0.36104 0.01446 0.54455 0.0
C255 C 0.33688 0.98394 0.53081 0.0
C256 C 0.34872 0.95502 0.51171 0.0
C257 C 0.3844 0.95669 0.50651 0.0
C258 C 0.2989 0.98374 0.53454 0.0
C259 C 0.27465 0.98313 0.50378 0.0
C260 C 0.28736 0.98858 0.56824 0.0
C261 C 0.31172 0.98853 0.60156 0.0
C262 C 0.32986 0.95941 0.60624 0.0
C263 C 0.35234 0.95921 0.63794 0.0
C264 C 0.35707 0.98809 0.66508 0.0
C265 C 0.33919 0.01716 0.66064 0.0
C266 C 0.31645 0.01736 0.6291 0.0
C267 C 0.12724 0.97555 0.5222 0.0
C268 C 0.118 1.00442 0.5437 0.0
C269 C 0.16264 0.97081 0.52233 0.0
C270 C 0.18976 0.99556 0.543 0.0
C271 C 0.18053 0.02365 0.56581 0.0
C272 C 0.14477 0.0279 0.56636 0.0
C273 C 0.22752 0.99257 0.53956 0.0
C274 C 0.25182 0.99292 0.57034 0.0
C275 C 0.23932 0.98809 0.50583 0.0
C276 C 0.21596 0.99036 0.4724 0.0
C277 C 0.19891 0.02039 0.46884 0.0
C278 C 0.17657 0.02214 0.43748 0.0
C279 C 0.17129 0.99416 0.40936 0.0
C280 C 0.18843 0.96439 0.41251 0.0
C281 C 0.21077 0.96248 0.44384 0.0
H282 H 0.15397 0.99556 0.38511 0.0
H283 H 0.37453 0.98791 0.68958 0.0
H284 H 0.46149 0.99579 0.39966 0.0
H285 H 0.45456 0.99427 0.33527 0.0
H286 H 0.53492 0.08591 0.34793 0.0
H287 H 0.54006 0.08883 0.41287 0.0
H288 H 0.49026 0.09154 0.29557 0.0
H289 H 0.55027 0.99525 0.32333 0.0
H290 H 0.56132 0.94159 0.34975 0.0
H291 H 0.46514 0.88424 0.28865 0.0
H292 H 0.45325 0.93773 0.26221 0.0
H293 H 0.53862 0.04822 0.12065 0.0
H294 H 0.53846 0.05579 0.18505 0.0
H295 H 0.43297 0.9975 0.16929 0.0
H296 H 0.43252 0.99059 0.10444 0.0
H297 H 0.49004 0.97548 0.22181 0.0
H298 H 0.43537 0.07751 0.19221 0.0
H299 H 0.43333 0.13188 0.16436 0.0
H300 H 0.53195 0.1791 0.22834 0.0
H301 H 0.53482 0.1248 0.25624 0.0
C302 C 0.47748 0.01581 0.38872 0.0
C303 C 0.50153 0.04226 0.41132 0.0
C304 C 0.47374 0.01475 0.35177 0.0
C305 C 0.49501 0.03925 0.33627 0.0
C306 C 0.51829 0.06648 0.35895 0.0
C307 C 0.52128 0.06815 0.39611 0.0
C308 C 0.49331 0.03591 0.29659 0.0
C309 C 0.49059 0.06615 0.27966 0.0
C310 C 0.49366 1.00287 0.27526 0.0
C311 C 0.50069 0.97061 0.29107 0.0
C312 C 0.53134 0.97127 0.31572 0.0
C313 C 0.53777 0.94087 0.33067 0.0
C314 C 0.5139 0.90955 0.32095 0.0
C315 C 0.48358 0.90854 0.29619 0.0
C316 C 0.47699 0.93888 0.28119 0.0
C317 C 0.51528 0.0371 0.13081 0.0
C318 C 0.48558 0.01871 0.10738 0.0
C319 C 0.51522 0.04157 0.16765 0.0
C320 C 0.48571 0.02727 0.18196 0.0
C321 C 0.456 0.0088 0.15875 0.0
C322 C 0.45573 1.00495 0.12174 0.0
C323 C 0.48654 0.03083 0.22124 0.0
C324 C 0.48941 1.00068 0.23797 0.0
C325 C 0.48753 0.06406 0.24236 0.0
C326 C 0.48546 0.09696 0.22608 0.0
C327 C 0.45675 0.09939 0.20016 0.0
C328 C 0.45542 0.13021 0.1844 0.0
C329 C 0.48254 0.15889 0.1945 0.0
C330 C 0.51098 0.15686 0.22052 0.0
C331 C 0.51244 0.12608 0.23635 0.0
H332 H 0.48151 0.18272 0.18223 0.0
H333 H 0.51893 0.88605 0.33255 0.0
H334 H 0.98324 0.58435 0.11741 0.0
H335 H 0.97188 0.58042 0.17855 0.0
H336 H 0.03612 0.49595 0.18363 0.0
H337 H 0.04601 0.49881 0.12232 0.0
H338 H 0.97803 0.47594 0.20485 0.0
H339 H 0.06051 0.58401 0.2316 0.0
H340 H 0.08429 0.64574 0.22729 0.0
H341 H 0.98998 0.68122 0.25973 0.0
H342 H 0.9654 0.61959 0.26372 0.0
H343 H 0.01711 0.47188 0.39003 0.0
H344 H 0.0181 0.48082 0.3281 0.0
H345 H 0.92846 0.53802 0.33182 0.0
H346 H 0.92688 0.52846 0.39406 0.0
H347 H 0.99069 0.57365 0.30555 0.0
H348 H 0.91218 0.46346 0.28392 0.0
H349 H 0.89283 0.40146 0.29121 0.0
H350 H 0.98561 0.36995 0.25151 0.0
H351 H 1.0058 0.43186 0.24446 0.0
C352 C 0.99562 0.56562 0.13201 0.0
C353 C 0.01556 0.54193 0.11522 0.0
C354 C 0.98907 0.5633 0.16695 0.0
C355 C 1.00305 0.53778 0.18591 0.0
C356 C 0.02465 0.51559 0.16962 0.0
C357 C 0.03056 0.51742 0.13464 0.0
C358 C 0.99348 0.53215 0.2216 0.0
C359 C 0.9812 0.49739 0.22686 0.0
C360 C 0.99634 0.56012 0.25027 0.0
C361 C 0.01092 0.59712 0.2475 0.0
C362 C 0.04468 0.60492 0.23745 0.0
C363 C 0.05834 0.6399 0.23514 0.0
C364 C 0.03861 0.66737 0.2431 0.0
C365 C 1.0052 0.65991 0.25347 0.0
C366 C 0.99139 0.62496 0.25577 0.0
C367 C 0.99716 0.48578 0.37748 0.0
C368 C 0.97177 0.49928 0.39677 0.0
C369 C 0.99781 0.49093 0.34212 0.0
C370 C 0.97343 0.51015 0.3254 0.0
C371 C 0.94751 0.52312 0.34429 0.0
C372 C 0.94641 0.51734 0.37964 0.0
C373 C 0.97634 0.51752 0.28864 0.0
C374 C 0.98723 0.55246 0.28324 0.0
C375 C 0.9728 0.48971 0.25993 0.0
C376 C 0.96062 0.45238 0.2639 0.0
C377 C 0.9286 0.44336 0.277 0.0
C378 C 0.91746 0.40822 0.28104 0.0
C379 C 0.93801 0.38179 0.27189 0.0
C380 C 0.96972 0.39045 0.2586 0.0
C381 C 0.981 0.42556 0.25453 0.0
H382 H 0.92934 0.3546 0.27504 0.0
H383 H 0.04924 0.69444 0.24134 0.0
H384 H 0.55146 0.01393 0.62944 0.0
H385 H 0.53925 0.01151 0.69017 0.0
H386 H 0.47113 0.09218 0.68001 0.0
H387 H 0.48469 0.09572 0.61937 0.0
H388 H 0.50306 0.09904 0.74701 0.0
H389 H 0.43799 1.00541 0.66415 0.0
H390 H 0.42784 0.95582 0.6148 0.0
H391 H 0.48973 0.89501 0.67883 0.0
H392 H 0.50125 0.94469 0.72826 0.0
H393 H 0.42967 0.03977 0.89917 0.0
H394 H 0.43003 0.05131 0.83731 0.0
H395 H 0.51695 0.99104 0.82841 0.0
H396 H 0.51707 0.98004 0.88982 0.0
H397 H 0.46318 0.97657 0.7683 0.0
H398 H 0.53147 0.07869 0.84926 0.0
H399 H 0.53762 0.13048 0.89604 0.0
H400 H 0.46005 0.17618 0.83221 0.0
H401 H 0.4528 0.12429 0.78542 0.0
C402 C 0.53469 0.03187 0.64053 0.0
C403 C 0.51899 0.05497 0.61975 0.0
C404 C 0.52744 0.03027 0.67514 0.0
C405 C 0.50336 0.05086 0.68936 0.0
C406 C 0.48956 0.07582 0.66957 0.0
C407 C 0.49744 0.07796 0.635 0.0
C408 C 0.49094 0.04413 0.7236 0.0
C409 C 0.49379 0.07234 0.75147 0.0
C410 C 0.47815 0.00935 0.72936 0.0
C411 C 0.47066 0.97896 0.69994 0.0
C412 C 0.44967 0.98158 0.66768 0.0
C413 C 0.44372 0.95346 0.63964 0.0
C414 C 0.45811 0.92227 0.64369 0.0
C415 C 0.47857 0.91919 0.67576 0.0
C416 C 0.48486 0.94736 0.70379 0.0
C417 C 0.44828 0.0284 0.88367 0.0
C418 C 0.4733 0.00894 0.89926 0.0
C419 C 0.44868 0.03526 0.8485 0.0
C420 C 0.47376 0.0223 0.82835 0.0
C421 C 0.49743 1.00137 0.84342 0.0
C422 C 0.49745 0.99507 0.87853 0.0
C423 C 0.47684 0.0312 0.79206 0.0
C424 C 0.47199 1.00331 0.76364 0.0
C425 C 0.48682 0.06636 0.78563 0.0
C426 C 0.49118 0.09732 0.81406 0.0
C427 C 0.51538 0.09954 0.84538 0.0
C428 C 0.51912 0.12897 0.87187 0.0
C429 C 0.4991 0.1565 0.86712 0.0
C430 C 0.4754 0.15475 0.83589 0.0
C431 C 0.47144 0.12533 0.80942 0.0
H432 H 0.50192 0.17924 0.88755 0.0
H433 H 0.45339 0.90049 0.62198 0.0
H434 H 0.91995 0.5133 0.59945 0.0
H435 H 0.91811 0.52321 0.66384 0.0
H436 H 0.03113 0.52244 0.68396 0.0
H437 H 0.03328 0.51324 0.62032 0.0
H438 H 0.93336 0.48693 0.7169 0.0
H439 H 0.06904 0.58042 0.75522 0.0
H440 H 0.10435 0.626 0.72927 0.0
H441 H 0.01005 0.64509 0.66557 0.0
H442 H 0.97414 0.60027 0.69164 0.0
H443 H 1.00419 0.48011 0.89219 0.0
H444 H 0.99403 0.48124 0.8284 0.0
H445 H 0.98258 0.59217 0.84693 0.0
H446 H 0.99374 0.59144 0.91148 0.0
H447 H 0.019 0.58152 0.79443 0.0
H448 H 0.90934 0.5275 0.81877 0.0
H449 H 0.86819 0.48654 0.84417 0.0
H450 H 0.89952 0.39755 0.78221 0.0
H451 H 0.94125 0.43793 0.7568 0.0
C452 C 0.94436 0.51523 0.61763 0.0
C453 C 0.97677 0.51272 0.60458 0.0
C454 C 0.94329 0.52086 0.65445 0.0
C455 C 0.97459 0.52423 0.6789 0.0
C456 C 1.00672 0.5208 0.6658 0.0
C457 C 1.00784 0.51533 0.62923 0.0
C458 C 0.97418 0.53104 0.71812 0.0
C459 C 0.95196 0.5077 0.73382 0.0
C460 C 0.99748 0.55899 0.74032 0.0
C461 C 0.01892 0.58672 0.72522 0.0
C462 C 0.0558 0.59454 0.73588 0.0
C463 C 0.07594 0.62025 0.72112 0.0
C464 C 0.05949 0.6384 0.69573 0.0
C465 C 0.02283 0.63102 0.68519 0.0
C466 C 1.00256 0.60544 0.69994 0.0
C467 C 0.99953 0.50487 0.88287 0.0
C468 C 0.99957 0.53567 0.90711 0.0
C469 C 0.99347 0.50538 0.84621 0.0
C470 C 0.98667 0.53656 0.83261 0.0
C471 C 0.98748 0.56768 0.85668 0.0
C472 C 0.99387 0.56726 0.89359 0.0
C473 C 0.97941 0.53631 0.79328 0.0
C474 C 1.00015 0.56094 0.77754 0.0
C475 C 0.95387 0.51028 0.77104 0.0
C476 C 0.92861 0.48579 0.78602 0.0
C477 C 0.90762 0.49919 0.81071 0.0
C478 C 0.88417 0.47607 0.8251 0.0
C479 C 0.88129 0.43947 0.81485 0.0
C480 C 0.90179 0.42591 0.79012 0.0
C481 C 0.92531 0.44891 0.77567 0.0
H482 H 0.86312 0.42162 0.82603 0.0
H483 H 0.07515 0.65821 0.68426 0.0
H484 H 0.12142 0.52281 0.06195 0.0
H485 H 0.18542 0.52209 0.06845 0.0
H486 H 0.17127 0.44333 0.97477 0.0
H487 H 0.10671 0.44213 0.97004 0.0
H488 H 0.22162 0.42916 0.01664 0.0
H489 H 0.19852 0.53824 0.97649 0.0
H490 H 0.1744 0.59495 0.97732 0.0
H491 H 0.23648 0.63371 0.07937 0.0
H492 H 0.26064 0.57704 0.07935 0.0
H493 H 0.39539 0.47174 0.97148 0.0
H494 H 0.33155 0.4663 0.97306 0.0
H495 H 0.35089 0.51695 0.08217 0.0
H496 H 0.41518 0.52204 0.08103 0.0
H497 H 0.2994 0.5451 0.03454 0.0
H498 H 0.32514 0.43324 0.06907 0.0
H499 H 0.35011 0.37701 0.06188 0.0
H500 H 0.28341 0.34445 0.96125 0.0
H501 H 0.2584 0.40074 0.9676 0.0
C502 C 0.13204 0.50511 0.04297 0.0
C503 C 0.10929 0.48272 0.01534 0.0
C504 C 0.16868 0.50493 0.04648 0.0
C505 C 0.18359 0.48355 0.02142 0.0
C506 C 0.16065 0.46029 0.99437 0.0
C507 C 0.12377 0.45961 0.99159 0.0
C508 C 0.22297 0.48598 0.02311 0.0
C509 C 0.23844 0.45458 0.02014 0.0
C510 C 0.2454 0.51907 0.02809 0.0
C511 C 0.23111 0.55328 0.02807 0.0
C512 C 0.20686 0.55879 0.9992 0.0
C513 C 0.1932 0.59093 0.99951 0.0
C514 C 0.20383 0.61788 0.02842 0.0
C515 C 0.22823 0.61279 0.05702 0.0
C516 C 0.24194 0.58068 0.05686 0.0
C517 C 0.38615 0.48168 0.9959 0.0
C518 C 0.4104 0.49738 0.02615 0.0
C519 C 0.34963 0.47839 0.99677 0.0
C520 C 0.3365 0.49104 0.02777 0.0
C521 C 0.36053 0.50693 0.05801 0.0
C522 C 0.39721 0.50974 0.05735 0.0
C523 C 0.29762 0.48844 0.02807 0.0
C524 C 0.28236 0.51981 0.03126 0.0
C525 C 0.2754 0.45538 0.02232 0.0
C526 C 0.29011 0.42134 0.01869 0.0
C527 C 0.31599 0.41421 0.04529 0.0
C528 C 0.33011 0.3823 0.04138 0.0
C529 C 0.31841 0.35721 0.01109 0.0
C530 C 0.29247 0.36393 0.98469 0.0
C531 C 0.27828 0.39581 0.98845 0.0
H532 H 0.32939 0.33253 0.00811 0.0
H533 H 0.19321 0.64274 0.02861 0.0
H534 H 0.54342 0.39648 0.93065 0.0
H535 H 0.55469 0.33559 0.93542 0.0
H536 H 0.47781 0.32638 0.00803 0.0
H537 H 0.46812 0.3876 1.00465 0.0
H538 H 0.5328 0.30596 0.03601 0.0
H539 H 0.46728 0.27962 0.91844 0.0
H540 H 0.45135 0.28272 0.85458 0.0
H541 H 0.55255 0.2545 0.83459 0.0
H542 H 0.56932 0.25177 0.89845 0.0
H543 H 0.4971 0.12194 0.0356 0.0
H544 H 0.49811 0.18408 0.02821 0.0
H545 H 0.59243 0.18085 0.97822 0.0
H546 H 0.59149 0.11792 0.98558 0.0
H547 H 0.53934 0.20918 0.93937 0.0
H548 H 0.59836 0.22842 0.05941 0.0
H549 H 0.60657 0.2186 0.12217 0.0
H550 H 0.50697 0.25461 0.13587 0.0
H551 H 0.49793 0.26426 0.07308 0.0
C552 C 0.52825 0.38098 0.94676 0.0
C553 C 0.50475 0.39657 0.96712 0.0
C554 C 0.53474 0.34616 0.94959 0.0
C555 C 0.5172 0.32612 0.97219 0.0
C556 C 0.49206 0.34121 0.99072 0.0
C557 C 0.48623 0.37611 0.98853 0.0
C558 C 0.52674 0.29074 0.97909 0.0
C559 C 0.53365 0.28474 0.01468 0.0
C560 C 0.52928 0.26315 0.95154 0.0
C561 C 0.51979 0.2661 0.91335 0.0
C562 C 0.48635 0.27459 0.90053 0.0
C563 C 0.47712 0.27615 0.8643 0.0
C564 C 0.50098 0.26897 0.84057 0.0
C565 C 0.53414 0.2602 0.85302 0.0
C566 C 0.54353 0.25867 0.88923 0.0
C567 C 0.51849 0.13456 0.02361 0.0
C568 C 0.5443 0.11507 0.01126 0.0
C569 C 0.51909 0.17017 0.01949 0.0
C570 C 0.54548 0.18727 1.0029 0.0
C571 C 0.57192 0.16821 0.99128 0.0
C572 C 0.57154 0.1324 0.99575 0.0
C573 C 0.54352 0.22425 0.99584 0.0
C574 C 0.53846 0.23063 0.96041 0.0
C575 C 0.54163 0.25188 0.02339 0.0
C576 C 0.54742 0.24693 0.06145 0.0
C577 C 0.57814 0.23412 0.07576 0.0
C578 C 0.58294 0.2286 0.11135 0.0
C579 C 0.55728 0.23593 0.13298 0.0
C580 C 0.52683 0.24897 0.11909 0.0
C581 C 0.5219 0.25455 0.08352 0.0
H582 H 0.56101 0.23154 0.1605 0.0
H583 H 0.49374 0.27008 0.81252 0.0
H584 H 0.8906 0.42264 0.98736 0.0
H585 H 0.82768 0.41935 0.99558 0.0
H586 H 0.8463 0.52881 0.04446 0.0
H587 H 0.90825 0.53244 0.03619 0.0
H588 H 0.80584 0.48456 0.08165 0.0
H589 H 0.81098 0.51023 0.96114 0.0
H590 H 0.82535 0.49744 0.90026 0.0
H591 H 0.75653 0.39798 0.88412 0.0
H592 H 0.74218 0.40997 0.94515 0.0
H593 H 0.63628 0.54359 0.07238 0.0
H594 H 0.69834 0.53406 0.07164 0.0
H595 H 0.66326 0.43472 1.00226 0.0
H596 H 0.60181 0.44544 1.00137 0.0
H597 H 0.7122 0.46708 0.9766 0.0
H598 H 0.70209 0.44261 0.09471 0.0
H599 H 0.68857 0.45366 0.15607 0.0
H600 H 0.76631 0.5471 0.17789 0.0
H601 H 0.77998 0.53688 0.11652 0.0
C602 C 0.88117 0.44589 0.99987 0.0
C603 C 0.90433 0.47785 0.01077 0.0
C604 C 0.84534 0.444 1.00458 0.0
C605 C 0.83242 0.47389 0.02066 0.0
C606 C 0.85572 0.50543 0.03215 0.0
C607 C 0.89113 0.50748 0.02707 0.0
C608 C 0.79443 0.47337 0.02453 0.0
C609 C 0.78524 0.48077 0.05875 0.0
C610 C 0.76763 0.46774 0.99467 0.0
C611 C 0.77585 0.4608 0.95783 0.0
C612 C 0.79913 0.48551 0.9447 0.0
C613 C 0.80724 0.47843 0.91016 0.0
C614 C 0.79196 0.44686 0.88838 0.0
C615 C 0.76841 0.42238 0.90105 0.0
C616 C 0.76027 0.42931 0.9356 0.0
C617 C 0.64204 0.51953 0.05755 0.0
C618 C 0.61455 0.49522 0.03698 0.0
C619 C 0.67744 0.51395 0.05717 0.0
C620 C 0.68569 0.48343 0.03707 0.0
C621 C 0.65782 0.45854 0.01778 0.0
C622 C 0.62271 0.46457 0.01744 0.0
C623 C 0.72316 0.4784 0.03397 0.0
C624 C 0.7324 0.4702 0.99976 0.0
C625 C 0.74994 0.48294 0.06394 0.0
C626 C 0.74185 0.48912 0.10091 0.0
C627 C 0.71613 0.46565 0.11252 0.0
C628 C 0.70847 0.47174 0.14732 0.0
C629 C 0.72651 0.5011 0.17084 0.0
C630 C 0.75233 0.52439 0.15963 0.0
C631 C 0.76008 0.51843 0.12486 0.0
H632 H 0.72054 0.50578 0.19776 0.0
H633 H 0.79831 0.44141 0.86166 0.0
H634 H 0.53639 0.61879 0.03577 0.0
H635 H 0.54043 0.68254 0.03567 0.0
H636 H 0.51282 0.66569 0.92148 0.0
H637 H 0.50929 0.60128 0.92126 0.0
H638 H 0.56394 0.72277 0.94295 0.0
H639 H 0.45056 0.68294 0.97426 0.0
H640 H 0.40891 0.65172 0.00778 0.0
H641 H 0.45874 0.71753 0.10471 0.0
H642 H 0.50103 0.74883 0.07182 0.0
H643 H 0.47331 0.89327 0.98175 0.0
H644 H 0.47321 0.82935 0.97453 0.0
H645 H 0.58728 0.84514 1.00035 0.0
H646 H 0.58765 0.90963 1.0069 0.0
H647 H 0.49089 0.78771 0.01939 0.0
H648 H 0.62042 0.77365 0.9596 0.0
H649 H 0.65776 0.80406 0.92157 0.0
H650 H 0.56736 0.84528 0.87314 0.0
H651 H 0.52941 0.81475 0.91052 0.0
C652 C 0.53128 0.62846 0.01049 0.0
C653 C 0.52214 0.60472 0.9785 0.0
C654 C 0.53356 0.66508 0.01053 0.0
C655 C 0.52636 0.67905 0.97866 0.0
C656 C 0.51839 0.65558 0.94646 0.0
C657 C 0.51627 0.61874 0.94636 0.0
C658 C 0.52594 0.71799 0.97946 0.0
C659 C 0.54798 0.73699 0.95965 0.0
C660 C 0.50469 0.73662 1.00077 0.0
C661 C 0.47915 0.71802 0.02061 0.0
C662 C 0.45279 0.69059 1.00276 0.0
C663 C 0.42905 0.6729 0.02164 0.0
C664 C 0.43123 0.68258 0.05836 0.0
C665 C 0.45711 0.71004 0.07627 0.0
C666 C 0.48095 0.72779 0.05751 0.0
C667 C 0.49849 0.88331 0.9858 0.0
C668 C 0.53052 0.90676 0.99496 0.0
C669 C 0.49836 0.84658 0.9817 0.0
C670 C 0.5302 0.83216 0.98667 0.0
C671 C 0.56234 0.85547 0.99581 0.0
C672 C 0.56251 0.89239 0.99973 0.0
C673 C 0.52928 0.7928 0.98326 0.0
C674 C 0.50696 0.77364 1.00269 0.0
C675 C 0.5497 0.77405 0.96103 0.0
C676 C 0.57219 0.79222 0.93815 0.0
C677 C 0.60851 0.78911 0.94075 0.0
C678 C 0.62977 0.80638 0.91932 0.0
C679 C 0.61497 0.82669 0.89504 0.0
C680 C 0.57883 0.82966 0.89205 0.0
C681 C 0.55744 0.81242 0.91339 0.0
H682 H 0.63148 0.84006 0.87849 0.0
H683 H 0.41283 0.66885 0.07294 0.0
loop_
_geom_bond_atom_site_label_1
_geom_bond_atom_site_label_2
_geom_bond_distance
_geom_bond_site_symmetry_2
_ccdc_geom_bond_type
C0 O2 1.247 1_455 S
C0 O4 1.258 . S
C1 O8 1.247 1_655 S
C1 O9 1.258 . S
O2 C0 1.247 1_655 S
O2 Zn3 2.028 1_545 S
Zn3 O2 2.028 1_565 S
Zn3 O7 2.035 1_655 S
Zn3 O9 2.035 . S
Zn3 O10 2.028 . S
O4 C0 1.258 . S
O4 Zn5 2.035 . S
Zn5 O4 2.035 . S
Zn5 O6 2.028 . S
Zn5 O8 2.028 1_545 S
Zn5 O11 2.035 1_455 S
O6 Zn5 2.028 . S
O6 C12 1.247 . S
O7 Zn3 2.035 1_455 S
O7 C12 1.258 1_565 S
O8 C1 1.247 1_455 S
O8 Zn5 2.028 1_565 S
O9 C1 1.258 . S
O9 Zn3 2.035 . S
O10 Zn3 2.028 . S
O10 C13 1.247 . S
O11 Zn5 2.035 1_655 S
O11 C13 1.258 1_545 S
C12 O6 1.247 . S
C12 O7 1.258 1_545 S
C13 O10 1.247 . S
C13 O11 1.258 1_565 S
C14 O16 1.247 . S
C14 O18 1.258 1_554 S
C15 O22 1.247 . S
C15 O23 1.258 1_556 S
O16 C14 1.247 . S
O16 Zn17 2.028 . S
Zn17 O16 2.028 . S
Zn17 O21 2.035 . S
Zn17 O23 2.035 1_545 S
Zn17 O24 2.028 1_554 S
O18 C14 1.258 1_556 S
O18 Zn19 2.035 1_545 S
Zn19 O18 2.035 1_565 S
Zn19 O20 2.028 1_556 S
Zn19 O22 2.028 . S
Zn19 O25 2.035 . S
O20 Zn19 2.028 1_554 S
O20 C26 1.247 1_565 S
O21 Zn17 2.035 . S
O21 C26 1.258 . S
O22 C15 1.247 . S
O22 Zn19 2.028 . S
O23 C15 1.258 1_554 S
O23 Zn17 2.035 1_565 S
O24 Zn17 2.028 1_556 S
O24 C27 1.247 1_545 S
O25 Zn19 2.035 . S
O25 C27 1.258 . S
C26 O20 1.247 1_545 S
C26 O21 1.258 . S
C27 O24 1.247 1_565 S
C27 O25 1.258 . S
C28 O30 1.247 1_554 S
C28 O32 1.258 . S
C29 O36 1.247 1_556 S
C29 O37 1.258 . S
O30 C28 1.247 1_556 S
O30 Zn31 2.028 1_455 S
Zn31 O30 2.028 1_655 S
Zn31 O35 2.035 1_556 S
Zn31 O37 2.035 . S
Zn31 O38 2.028 . S
O32 C28 1.258 . S
O32 Zn33 2.035 . S
Zn33 O32 2.035 . S
Zn33 O34 2.028 . S
Zn33 O36 2.028 1_455 S
Zn33 O39 2.035 1_554 S
O34 Zn33 2.028 . S
O34 C40 1.247 . S
O35 Zn31 2.035 1_554 S
O35 C40 1.258 1_655 S
O36 C29 1.247 1_554 S
O36 Zn33 2.028 1_655 S
O37 C29 1.258 . S
O37 Zn31 2.035 . S
O38 Zn31 2.028 . S
O38 C41 1.247 . S
O39 Zn33 2.035 1_556 S
O39 C41 1.258 1_455 S
C40 O34 1.247 . S
C40 O35 1.258 1_455 S
C41 O38 1.247 . S
C41 O39 1.258 1_655 S
C42 O44 1.244 . S
C42 O46 1.261 1_556 S
C43 O50 1.251 . S
C43 O51 1.254 1_554 S
O44 C42 1.244 . S
O44 Zn45 2.028 . S
Zn45 O44 2.028 . S
Zn45 O49 2.035 . S
Zn45 O51 2.035 . S
Zn45 O52 2.028 . S
O46 C42 1.261 1_554 S
O46 Zn47 2.035 . S
Zn47 O46 2.035 . S
Zn47 O48 2.028 . S
Zn47 O50 2.028 . S
Zn47 O53 2.035 . S
O48 Zn47 2.028 . S
O48 C54 1.251 . S
O49 Zn45 2.035 . S
O49 C54 1.254 1_556 S
O50 C43 1.251 . S
O50 Zn47 2.028 . S
O51 C43 1.254 1_556 S
O51 Zn45 2.035 . S
O52 Zn45 2.028 . S
O52 C55 1.244 . S
O53 Zn47 2.035 . S
O53 C55 1.260 1_554 S
C54 O48 1.251 . S
C54 O49 1.254 1_554 S
C55 O52 1.244 . S
C55 O53 1.260 1_556 S
C56 O58 1.251 . S
C56 O60 1.254 1_455 S
C57 O64 1.244 . S
C57 O65 1.260 1_655 S
O58 C56 1.251 . S
O58 Zn59 2.028 . S
Zn59 O58 2.028 . S
Zn59 O63 2.035 . S
Zn59 O65 2.035 . S
Zn59 O66 2.028 . S
O60 C56 1.254 1_655 S
O60 Zn61 2.035 . S
Zn61 O60 2.035 . S
Zn61 O62 2.028 . S
Zn61 O64 2.028 . S
Zn61 O67 2.035 . S
O62 Zn61 2.028 . S
O62 C68 1.244 . S
O63 Zn59 2.035 . S
O63 C68 1.261 1_455 S
O64 C57 1.244 . S
O64 Zn61 2.028 . S
O65 C57 1.260 1_455 S
O65 Zn59 2.035 . S
O66 Zn59 2.028 . S
O66 C69 1.251 . S
O67 Zn61 2.035 . S
O67 C69 1.254 1_655 S
C68 O62 1.244 . S
C68 O63 1.261 1_655 S
C69 O66 1.251 . S
C69 O67 1.254 1_455 S
C70 O72 1.244 . S
C70 O74 1.261 1_565 S
C71 O78 1.251 . S
C71 O79 1.254 1_545 S
O72 C70 1.244 . S
O72 Zn73 2.028 . S
Zn73 O72 2.028 . S
Zn73 O77 2.035 . S
Zn73 O79 2.035 . S
Zn73 O80 2.028 . S
O74 C70 1.261 1_545 S
O74 Zn75 2.035 . S
Zn75 O74 2.035 . S
Zn75 O76 2.028 . S
Zn75 O78 2.028 . S
Zn75 O81 2.035 . S
O76 Zn75 2.028 . S
O76 C82 1.251 . S
O77 Zn73 2.035 . S
O77 C82 1.254 1_565 S
O78 C71 1.251 . S
O78 Zn75 2.028 . S
O79 C71 1.254 1_565 S
O79 Zn73 2.035 . S
O80 Zn73 2.028 . S
O80 C83 1.244 . S
O81 Zn75 2.035 . S
O81 C83 1.260 1_545 S
C82 O76 1.251 . S
C82 O77 1.254 1_545 S
C83 O80 1.244 . S
C83 O81 1.260 1_565 S
H84 C102 0.951 . S
H85 C104 0.951 . S
H86 C106 0.950 . S
H87 C107 0.950 . S
H88 C109 0.950 . S
H89 C112 0.950 . S
H90 C113 0.950 . S
H91 C115 0.950 . S
H92 C116 0.950 . S
H93 C117 0.951 . S
H94 C119 0.951 . S
H95 C121 0.950 . S
H96 C122 0.950 . S
H97 C124 0.950 . S
H98 C127 0.950 . S
H99 C128 0.950 . S
H100 C130 0.950 . S
H101 C131 0.950 . S
C102 H84 0.951 . S
C102 C103 1.366 1_655 S
C102 C104 1.388 . S
C103 C102 1.366 1_455 S
C103 C107 1.384 . S
C104 H85 0.951 . S
C104 C102 1.388 . S
C104 C105 1.345 1_655 S
C105 C104 1.345 1_455 S
C105 C106 1.438 . S
C105 C108 1.496 . S
C106 H86 0.950 . S
C106 C105 1.438 . S
C106 C107 1.374 . S
C107 H87 0.950 . S
C107 C103 1.384 . S
C107 C106 1.374 . S
C108 C105 1.496 . S
C108 C109 1.373 . S
C108 C110 1.389 1_455 S
C109 H88 0.950 . S
C109 C108 1.373 . S
C109 C125 1.377 . S
C110 C108 1.389 1_655 S
C110 C111 1.524 . S
C110 C124 1.377 . S
C111 C110 1.524 . S
C111 C112 1.397 1_655 S
C111 C116 1.363 . S
C112 H89 0.950 . S
C112 C111 1.397 1_455 S
C112 C113 1.334 . S
C113 H90 0.950 . S
C113 C112 1.334 . S
C113 C114 1.287 1_455 S
C114 C113 1.287 1_655 S
C114 C115 1.524 . S
C114 H133 0.913 . S
C115 H91 0.950 . S
C115 C114 1.524 . S
C115 C116 1.415 . S
C116 H92 0.950 . S
C116 C111 1.363 . S
C116 C115 1.415 . S
C117 H93 0.951 . S
C117 C118 1.366 . S
C117 C119 1.388 . S
C118 C117 1.366 . S
C118 C122 1.384 1_455 S
C119 H94 0.951 . S
C119 C117 1.388 . S
C119 C120 1.350 1_455 S
C120 C119 1.350 1_655 S
C120 C121 1.432 . S
C120 C123 1.496 . S
C121 H95 0.950 . S
C121 C120 1.432 . S
C121 C122 1.374 . S
C122 H96 0.950 . S
C122 C118 1.384 1_655 S
C122 C121 1.374 . S
C123 C120 1.496 . S
C123 C124 1.373 . S
C123 C125 1.389 1_655 S
C124 H97 0.950 . S
C124 C110 1.377 . S
C124 C123 1.373 . S
C125 C109 1.377 . S
C125 C123 1.389 1_455 S
C125 C126 1.524 . S
C126 C125 1.524 . S
C126 C127 1.397 1_455 S
C126 C131 1.363 . S
C127 H98 0.950 . S
C127 C126 1.397 1_655 S
C127 C128 1.334 . S
C128 H99 0.950 . S
C128 C127 1.334 . S
C128 C129 1.287 1_655 S
C129 C128 1.287 1_455 S
C129 C130 1.524 . S
C129 H132 0.999 . S
C130 H100 0.950 . S
C130 C129 1.524 . S
C130 C131 1.415 . S
C131 H101 0.950 . S
C131 C126 1.363 . S
C131 C130 1.415 . S
H132 C129 0.999 . S
H133 C114 0.913 . S
H134 C152 0.951 . S
H135 C154 0.951 . S
H136 C156 0.950 . S
H137 C157 0.950 . S
H138 C159 0.950 . S
H139 C162 0.950 . S
H140 C163 0.950 . S
H141 C165 0.950 . S
H142 C166 0.950 . S
H143 C167 0.951 . S
H144 C169 0.951 . S
H145 C171 0.950 . S
H146 C172 0.950 . S
H147 C174 0.950 . S
H148 C177 0.950 . S
H149 C178 0.950 . S
H150 C180 0.950 . S
H151 C181 0.950 . S
C152 H134 0.951 . S
C152 C153 1.366 1_565 S
C152 C154 1.388 . S
C153 C152 1.366 1_545 S
C153 C157 1.384 . S
C154 H135 0.951 . S
C154 C152 1.388 . S
C154 C155 1.366 1_565 S
C155 C154 1.366 1_545 S
C155 C156 1.414 . S
C155 C158 1.499 . S
C156 H136 0.950 . S
C156 C155 1.414 . S
C156 C157 1.374 . S
C157 H137 0.950 . S
C157 C153 1.384 . S
C157 C156 1.374 . S
C158 C155 1.499 . S
C158 C159 1.373 . S
C158 C160 1.389 . S
C159 H138 0.950 . S
C159 C158 1.373 . S
C159 C175 1.379 1_545 S
C160 C158 1.389 . S
C160 C161 1.524 . S
C160 C174 1.377 1_545 S
C161 C160 1.524 . S
C161 C162 1.397 . S
C161 C166 1.363 1_545 S
C162 H139 0.950 . S
C162 C161 1.397 . S
C162 C163 1.334 . S
C163 H140 0.950 . S
C163 C162 1.334 . S
C163 C164 1.287 . S
C164 C163 1.287 . S
C164 C165 1.524 1_545 S
C164 H183 0.913 . S
C165 H141 0.950 . S
C165 C164 1.524 1_565 S
C165 C166 1.415 . S
C166 H142 0.950 . S
C166 C161 1.363 1_565 S
C166 C165 1.415 . S
C167 H143 0.951 . S
C167 C168 1.366 . S
C167 C169 1.388 . S
C168 C167 1.366 . S
C168 C172 1.384 1_545 S
C169 H144 0.951 . S
C169 C167 1.388 . S
C169 C170 1.366 1_545 S
C170 C169 1.366 1_565 S
C170 C171 1.414 . S
C170 C173 1.499 . S
C171 H145 0.950 . S
C171 C170 1.414 . S
C171 C172 1.374 . S
C172 H146 0.950 . S
C172 C168 1.384 1_565 S
C172 C171 1.374 . S
C173 C170 1.499 . S
C173 C174 1.373 . S
C173 C175 1.384 . S
C174 H147 0.950 . S
C174 C160 1.377 1_565 S
C174 C173 1.373 . S
C175 C159 1.379 1_565 S
C175 C173 1.384 . S
C175 C176 1.530 . S
C176 C175 1.530 . S
C176 C177 1.397 . S
C176 C181 1.363 1_565 S
C177 H148 0.950 . S
C177 C176 1.397 . S
C177 C178 1.334 . S
C178 H149 0.950 . S
C178 C177 1.334 . S
C178 C179 1.287 . S
C179 C178 1.287 . S
C179 C180 1.524 1_565 S
C179 H182 0.999 . S
C180 H150 0.950 . S
C180 C179 1.524 1_545 S
C180 C181 1.415 . S
C181 H151 0.950 . S
C181 C176 1.363 1_545 S
C181 C180 1.415 . S
H182 C179 0.999 . S
H183 C164 0.913 . S
H184 C202 0.951 . S
H185 C204 0.951 . S
H186 C206 0.950 . S
H187 C207 0.950 . S
H188 C209 0.950 . S
H189 C212 0.950 . S
H190 C213 0.950 . S
H191 C215 0.950 . S
H192 C216 0.950 . S
H193 C217 0.951 . S
H194 C219 0.951 . S
H195 C221 0.950 . S
H196 C222 0.950 . S
H197 C224 0.950 . S
H198 C227 0.950 . S
H199 C228 0.950 . S
H200 C230 0.950 . S
H201 C231 0.950 . S
C202 H184 0.951 . S
C202 C203 1.366 . S
C202 C204 1.388 . S
C203 C202 1.366 . S
C203 C207 1.384 1_455 S
C204 H185 0.951 . S
C204 C202 1.388 . S
C204 C205 1.341 1_455 S
C205 C204 1.341 1_655 S
C205 C206 1.433 . S
C205 C208 1.504 . S
C206 H186 0.950 . S
C206 C205 1.433 . S
C206 C207 1.374 . S
C207 H187 0.950 . S
C207 C203 1.384 1_655 S
C207 C206 1.374 . S
C208 C205 1.504 . S
C208 C209 1.373 . S
C208 C210 1.389 1_655 S
C209 H188 0.950 . S
C209 C208 1.373 . S
C209 C225 1.377 . S
C210 C208 1.389 1_455 S
C210 C211 1.524 . S
C210 C224 1.377 . S
C211 C210 1.524 . S
C211 C212 1.397 1_455 S
C211 C216 1.363 . S
C212 H189 0.950 . S
C212 C211 1.397 1_655 S
C212 C213 1.334 . S
C213 H190 0.950 . S
C213 C212 1.334 . S
C213 C214 1.287 . S
C214 C213 1.287 . S
C214 C215 1.524 1_655 S
C214 H233 0.913 . S
C215 H191 0.950 . S
C215 C214 1.524 1_455 S
C215 C216 1.415 . S
C216 H192 0.950 . S
C216 C211 1.363 . S
C216 C215 1.415 . S
C217 H193 0.951 . S
C217 C218 1.366 1_655 S
C217 C219 1.388 . S
C218 C217 1.366 1_455 S
C218 C222 1.384 . S
C219 H194 0.951 . S
C219 C217 1.388 . S
C219 C220 1.366 1_655 S
C220 C219 1.366 1_455 S
C220 C221 1.414 . S
C220 C223 1.499 . S
C221 H195 0.950 . S
C221 C220 1.414 . S
C221 C222 1.374 . S
C222 H196 0.950 . S
C222 C218 1.384 . S
C222 C221 1.374 . S
C223 C220 1.499 . S
C223 C224 1.373 . S
C223 C225 1.389 1_455 S
C224 H197 0.950 . S
C224 C210 1.377 . S
C224 C223 1.373 . S
C225 C209 1.377 . S
C225 C223 1.389 1_655 S
C225 C226 1.524 . S
C226 C225 1.524 . S
C226 C227 1.397 1_655 S
C226 C231 1.363 . S
C227 H198 0.950 . S
C227 C226 1.397 1_455 S
C227 C228 1.334 . S
C228 H199 0.950 . S
C228 C227 1.334 . S
C228 C229 1.287 . S
C229 C228 1.287 . S
C229 C230 1.524 1_455 S
C229 H232 0.999 . S
C230 H200 0.950 . S
C230 C229 1.524 1_655 S
C230 C231 1.415 . S
C231 H201 0.950 . S
C231 C226 1.363 . S
C231 C230 1.415 . S
H232 C229 0.999 . S
H233 C214 0.913 . S
H234 C252 0.951 . S
H235 C254 0.951 . S
H236 C256 0.950 . S
H237 C257 0.950 . S
H238 C259 0.950 . S
H239 C262 0.950 . S
H240 C263 0.950 . S
H241 C265 0.950 . S
H242 C266 0.950 . S
H243 C267 0.951 . S
H244 C269 0.951 . S
H245 C271 0.950 . S
H246 C272 0.950 . S
H247 C274 0.950 . S
H248 C277 0.950 . S
H249 C278 0.950 . S
H250 C280 0.950 . S
H251 C281 0.950 . S
C252 H234 0.951 . S
C252 C253 1.366 . S
C252 C254 1.388 . S
C253 C252 1.366 . S
C253 C257 1.384 1_545 S
C254 H235 0.951 . S
C254 C252 1.388 . S
C254 C255 1.347 1_545 S
C255 C254 1.347 1_565 S
C255 C256 1.436 . S
C255 C258 1.496 . S
C256 H236 0.950 . S
C256 C255 1.436 . S
C256 C257 1.374 . S
C257 H237 0.950 . S
C257 C253 1.384 1_565 S
C257 C256 1.374 . S
C258 C255 1.496 . S
C258 C259 1.373 . S
C258 C260 1.389 1_565 S
C259 H238 0.950 . S
C259 C258 1.373 . S
C259 C275 1.377 . S
C260 C258 1.389 1_545 S
C260 C261 1.524 . S
C260 C274 1.377 . S
C261 C260 1.524 . S
C261 C262 1.397 1_545 S
C261 C266 1.363 . S
C262 H239 0.950 . S
C262 C261 1.397 1_565 S
C262 C263 1.334 . S
C263 H240 0.950 . S
C263 C262 1.334 . S
C263 C264 1.287 1_565 S
C264 C263 1.287 1_545 S
C264 C265 1.524 . S
C264 H283 0.913 . S
C265 H241 0.950 . S
C265 C264 1.524 . S
C265 C266 1.415 . S
C266 H242 0.950 . S
C266 C261 1.363 . S
C266 C265 1.415 . S
C267 H243 0.951 . S
C267 C268 1.366 1_565 S
C267 C269 1.388 . S
C268 C267 1.366 1_545 S
C268 C272 1.384 . S
C269 H244 0.951 . S
C269 C267 1.388 . S
C269 C270 1.366 1_565 S
C270 C269 1.366 1_545 S
C270 C271 1.414 . S
C270 C273 1.499 . S
C271 H245 0.950 . S
C271 C270 1.414 . S
C271 C272 1.374 . S
C272 H246 0.950 . S
C272 C268 1.384 . S
C272 C271 1.374 . S
C273 C270 1.499 . S
C273 C274 1.373 . S
C273 C275 1.389 1_545 S
C274 H247 0.950 . S
C274 C260 1.377 . S
C274 C273 1.373 . S
C275 C259 1.377 . S
C275 C273 1.389 1_565 S
C275 C276 1.524 . S
C276 C275 1.524 . S
C276 C277 1.397 1_565 S
C276 C281 1.363 . S
C277 H248 0.950 . S
C277 C276 1.397 1_545 S
C277 C278 1.334 . S
C278 H249 0.950 . S
C278 C277 1.334 . S
C278 C279 1.287 1_545 S
C279 C278 1.287 1_565 S
C279 C280 1.524 . S
C279 H282 0.999 . S
C280 H250 0.950 . S
C280 C279 1.524 . S
C280 C281 1.415 . S
C281 H251 0.950 . S
C281 C276 1.363 . S
C281 C280 1.415 . S
H282 C279 0.999 . S
H283 C264 0.913 . S
H284 C302 0.951 . S
H285 C304 0.951 . S
H286 C306 0.950 . S
H287 C307 0.950 . S
H288 C309 0.950 . S
H289 C312 0.950 . S
H290 C313 0.950 . S
H291 C315 0.950 . S
H292 C316 0.950 . S
H293 C317 0.951 . S
H294 C319 0.951 . S
H295 C321 0.950 . S
H296 C322 0.950 . S
H297 C324 0.950 . S
H298 C327 0.950 . S
H299 C328 0.950 . S
H300 C330 0.950 . S
H301 C331 0.950 . S
C302 H284 0.951 . S
C302 C303 1.365 1_565 S
C302 C304 1.388 . S
C303 C302 1.365 1_545 S
C303 C307 1.386 . S
C304 H285 0.951 . S
C304 C302 1.388 . S
C304 C305 1.386 . S
C305 C304 1.386 . S
C305 C306 1.397 1_565 S
C305 C308 1.494 . S
C306 H286 0.950 . S
C306 C305 1.397 1_545 S
C306 C307 1.374 . S
C307 H287 0.950 . S
C307 C303 1.386 . S
C307 C306 1.374 . S
C308 C305 1.494 . S
C308 C309 1.375 1_565 S
C308 C310 1.388 . S
C309 H288 0.950 . S
C309 C308 1.375 1_545 S
C309 C325 1.377 . S
C310 C308 1.388 . S
C310 C311 1.524 . S
C310 C324 1.377 . S
C311 C310 1.524 . S
C311 C312 1.397 . S
C311 C316 1.363 . S
C312 H289 0.950 . S
C312 C311 1.397 . S
C312 C313 1.334 . S
C313 H290 0.950 . S
C313 C312 1.334 . S
C313 C314 1.287 . S
C314 C313 1.287 . S
C314 C315 1.524 . S
C314 H333 0.913 . S
C315 H291 0.950 . S
C315 C314 1.524 . S
C315 C316 1.415 . S
C316 H292 0.950 . S
C316 C311 1.363 . S
C316 C315 1.415 . S
C317 H293 0.951 . S
C317 C318 1.365 . S
C317 C319 1.388 . S
C318 C317 1.365 . S
C318 C322 1.386 1_545 S
C319 H294 0.951 . S
C319 C317 1.388 . S
C319 C320 1.366 . S
C320 C319 1.366 . S
C320 C321 1.414 1_545 S
C320 C323 1.499 . S
C321 H295 0.950 . S
C321 C320 1.414 1_565 S
C321 C322 1.374 . S
C322 H296 0.950 . S
C322 C318 1.386 1_565 S
C322 C321 1.374 . S
C323 C320 1.499 . S
C323 C324 1.368 1_545 S
C323 C325 1.394 . S
C324 H297 0.950 . S
C324 C310 1.377 . S
C324 C323 1.368 1_565 S
C325 C309 1.377 . S
C325 C323 1.394 . S
C325 C326 1.524 . S
C326 C325 1.524 . S
C326 C327 1.397 . S
C326 C331 1.363 . S
C327 H298 0.950 . S
C327 C326 1.397 . S
C327 C328 1.334 . S
C328 H299 0.950 . S
C328 C327 1.334 . S
C328 C329 1.287 . S
C329 C328 1.287 . S
C329 C330 1.524 . S
C329 H332 0.999 . S
C330 H300 0.950 . S
C330 C329 1.524 . S
C330 C331 1.415 . S
C331 H301 0.950 . S
C331 C326 1.363 . S
C331 C330 1.415 . S
H332 C329 0.999 . S
H333 C314 0.913 . S
H334 C352 0.951 . S
H335 C354 0.951 . S
H336 C356 0.950 . S
H337 C357 0.950 . S
H338 C359 0.950 . S
H339 C362 0.950 . S
H340 C363 0.950 . S
H341 C365 0.950 1_655 S
H342 C366 0.972 . S
H343 C367 0.951 . S
H344 C369 0.951 . S
H345 C371 0.950 . S
H346 C372 0.950 . S
H347 C374 0.950 . S
H348 C377 0.950 . S
H349 C378 0.950 . S
H350 C380 0.950 1_455 S
H351 C381 0.979 . S
C352 H334 0.951 . S
C352 C353 1.367 1_655 S
C352 C354 1.388 . S
C353 C352 1.367 1_455 S
C353 C357 1.384 . S
C354 H335 0.951 . S
C354 C352 1.388 . S
C354 C355 1.366 1_655 S
C355 C354 1.366 1_455 S
C355 C356 1.414 . S
C355 C358 1.499 . S
C356 H336 0.950 . S
C356 C355 1.414 . S
C356 C357 1.374 . S
C357 H337 0.950 . S
C357 C353 1.384 . S
C357 C356 1.374 . S
C358 C355 1.499 . S
C358 C359 1.373 1_455 S
C358 C360 1.389 . S
C359 H338 0.950 . S
C359 C358 1.373 1_655 S
C359 C375 1.377 . S
C360 C358 1.389 . S
C360 C361 1.524 . S
C360 C374 1.377 . S
C361 C360 1.524 . S
C361 C362 1.397 . S
C361 C366 1.347 1_455 S
C362 H339 0.950 . S
C362 C361 1.397 . S
C362 C363 1.334 . S
C363 H340 0.950 . S
C363 C362 1.334 . S
C363 C364 1.287 . S
C364 C363 1.287 . S
C364 C365 1.524 . S
C364 H383 0.913 . S
C365 H341 0.950 1_455 S
C365 C364 1.524 . S
C365 C366 1.410 1_455 S
C366 H342 0.972 . S
C366 C361 1.347 1_655 S
C366 C365 1.410 1_655 S
C367 H343 0.951 . S
C367 C368 1.367 . S
C367 C369 1.388 . S
C368 C367 1.367 . S
C368 C372 1.384 1_455 S
C369 H344 0.951 . S
C369 C367 1.388 . S
C369 C370 1.366 1_455 S
C370 C369 1.366 1_655 S
C370 C371 1.414 . S
C370 C373 1.499 . S
C371 H345 0.950 . S
C371 C370 1.414 . S
C371 C372 1.374 . S
C372 H346 0.950 . S
C372 C368 1.384 1_655 S
C372 C371 1.374 . S
C373 C370 1.499 . S
C373 C374 1.373 1_655 S
C373 C375 1.389 . S
C374 H347 0.950 . S
C374 C360 1.377 . S
C374 C373 1.373 1_455 S
C375 C359 1.377 . S
C375 C373 1.389 . S
C375 C376 1.524 . S
C376 C375 1.524 . S
C376 C377 1.397 . S
C376 C381 1.342 1_655 S
C377 H348 0.950 . S
C377 C376 1.397 . S
C377 C378 1.334 . S
C378 H349 0.950 . S
C378 C377 1.334 . S
C378 C379 1.287 . S
C379 C378 1.287 . S
C379 C380 1.524 . S
C379 H382 0.999 . S
C380 H350 0.950 1_655 S
C380 C379 1.524 . S
C380 C381 1.409 1_655 S
C381 H351 0.979 . S
C381 C376 1.342 1_455 S
C381 C380 1.409 1_455 S
H382 C379 0.999 . S
H383 C364 0.913 . S
H384 C402 0.951 . S
H385 C404 0.951 . S
H386 C406 0.950 . S
H387 C407 0.950 . S
H388 C409 0.950 . S
H389 C412 0.950 . S
H390 C413 0.950 . S
H391 C415 0.950 . S
H392 C416 0.950 . S
H393 C417 0.951 . S
H394 C419 0.951 . S
H395 C421 0.950 . S
H396 C422 0.950 . S
H397 C424 0.950 . S
H398 C427 0.950 . S
H399 C428 0.950 . S
H400 C430 0.950 . S
H401 C431 0.950 . S
C402 H384 0.951 . S
C402 C403 1.365 1_565 S
C402 C404 1.388 . S
C403 C402 1.365 1_545 S
C403 C407 1.385 . S
C404 H385 0.951 . S
C404 C402 1.388 . S
C404 C405 1.366 . S
C405 C404 1.366 . S
C405 C406 1.414 1_565 S
C405 C408 1.499 . S
C406 H386 0.950 . S
C406 C405 1.414 1_545 S
C406 C407 1.374 . S
C407 H387 0.950 . S
C407 C403 1.385 . S
C407 C406 1.374 . S
C408 C405 1.499 . S
C408 C409 1.373 1_565 S
C408 C410 1.389 . S
C409 H388 0.950 . S
C409 C408 1.373 1_545 S
C409 C425 1.377 . S
C410 C408 1.389 . S
C410 C411 1.524 . S
C410 C424 1.377 . S
C411 C410 1.524 . S
C411 C412 1.397 . S
C411 C416 1.363 . S
C412 H389 0.950 . S
C412 C411 1.397 . S
C412 C413 1.334 . S
C413 H390 0.950 . S
C413 C412 1.334 . S
C413 C414 1.287 . S
C414 C413 1.287 . S
C414 C415 1.524 . S
C414 H433 0.913 . S
C415 H391 0.950 . S
C415 C414 1.524 . S
C415 C416 1.415 . S
C416 H392 0.950 . S
C416 C411 1.363 . S
C416 C415 1.415 . S
C417 H393 0.951 . S
C417 C418 1.365 . S
C417 C419 1.388 . S
C418 C417 1.365 . S
C418 C422 1.385 1_545 S
C419 H394 0.951 . S
C419 C417 1.388 . S
C419 C420 1.366 . S
C420 C419 1.366 . S
C420 C421 1.414 1_545 S
C420 C423 1.499 . S
C421 H395 0.950 . S
C421 C420 1.414 1_565 S
C421 C422 1.374 . S
C422 H396 0.950 . S
C422 C418 1.385 1_565 S
C422 C421 1.374 . S
C423 C420 1.499 . S
C423 C424 1.373 1_545 S
C423 C425 1.389 . S
C424 H397 0.950 . S
C424 C410 1.377 . S
C424 C423 1.373 1_565 S
C425 C409 1.377 . S
C425 C423 1.389 . S
C425 C426 1.524 . S
C426 C425 1.524 . S
C426 C427 1.397 . S
C426 C431 1.363 . S
C427 H398 0.950 . S
C427 C426 1.397 . S
C427 C428 1.334 . S
C428 H399 0.950 . S
C428 C427 1.334 . S
C428 C429 1.287 . S
C429 C428 1.287 . S
C429 C430 1.524 . S
C429 H432 0.999 . S
C430 H400 0.950 . S
C430 C429 1.524 . S
C430 C431 1.415 . S
C431 H401 0.950 . S
C431 C426 1.363 . S
C431 C430 1.415 . S
H432 C429 0.999 . S
H433 C414 0.913 . S
H434 C452 0.951 . S
H435 C454 0.951 . S
H436 C456 0.950 . S
H437 C457 0.950 . S
H438 C459 0.950 . S
H439 C462 0.950 . S
H440 C463 0.950 . S
H441 C465 0.950 . S
H442 C466 0.950 . S
H443 C467 0.951 . S
H444 C469 0.951 . S
H445 C471 0.950 . S
H446 C472 0.950 . S
H447 C474 0.950 . S
H448 C477 0.950 . S
H449 C478 0.950 . S
H450 C480 0.950 . S
H451 C481 0.950 . S
C452 H434 0.951 . S
C452 C453 1.367 1_655 S
C452 C454 1.388 . S
C453 C452 1.367 1_455 S
C453 C457 1.384 . S
C454 H435 0.951 . S
C454 C452 1.388 . S
C454 C455 1.366 1_655 S
C455 C454 1.366 1_455 S
C455 C456 1.414 . S
C455 C458 1.499 . S
C456 H436 0.950 . S
C456 C455 1.414 . S
C456 C457 1.374 . S
C457 H437 0.950 . S
C457 C453 1.384 . S
C457 C456 1.374 . S
C458 C455 1.499 . S
C458 C459 1.373 1_455 S
C458 C460 1.389 . S
C459 H438 0.950 . S
C459 C458 1.373 1_655 S
C459 C475 1.377 . S
C460 C458 1.389 . S
C460 C461 1.524 . S
C460 C474 1.377 . S
C461 C460 1.524 . S
C461 C462 1.397 . S
C461 C466 1.363 . S
C462 H439 0.950 . S
C462 C461 1.397 . S
C462 C463 1.334 . S
C463 H440 0.950 . S
C463 C462 1.334 . S
C463 C464 1.287 . S
C464 C463 1.287 . S
C464 C465 1.524 . S
C464 H483 0.913 . S
C465 H441 0.950 . S
C465 C464 1.524 . S
C465 C466 1.415 . S
C466 H442 0.950 . S
C466 C461 1.363 . S
C466 C465 1.415 . S
C467 H443 0.951 . S
C467 C468 1.367 . S
C467 C469 1.388 . S
C468 C467 1.367 . S
C468 C472 1.384 1_455 S
C469 H444 0.951 . S
C469 C467 1.388 . S
C469 C470 1.366 1_455 S
C470 C469 1.366 1_655 S
C470 C471 1.414 . S
C470 C473 1.499 . S
C471 H445 0.950 . S
C471 C470 1.414 . S
C471 C472 1.374 . S
C472 H446 0.950 . S
C472 C468 1.384 1_655 S
C472 C471 1.374 . S
C473 C470 1.499 . S
C473 C474 1.373 1_655 S
C473 C475 1.389 . S
C474 H447 0.950 . S
C474 C460 1.377 . S
C474 C473 1.373 1_455 S
C475 C459 1.377 . S
C475 C473 1.389 . S
C475 C476 1.524 . S
C476 C475 1.524 . S
C476 C477 1.397 . S
C476 C481 1.363 . S
C477 H448 0.950 . S
C477 C476 1.397 . S
C477 C478 1.334 . S
C478 H449 0.950 . S
C478 C477 1.334 . S
C478 C479 1.287 . S
C479 C478 1.287 . S
C479 C480 1.524 . S
C479 H482 0.999 . S
C480 H450 0.950 . S
C480 C479 1.524 . S
C480 C481 1.415 . S
C481 H451 0.950 . S
C481 C476 1.363 . S
C481 C480 1.415 . S
H482 C479 0.999 . S
H483 C464 0.913 . S
H484 C502 0.951 . S
H485 C504 0.951 . S
H486 C506 0.950 . S
H487 C507 0.950 . S
H488 C509 0.950 . S
H489 C512 0.924 1_556 S
H490 C513 0.950 . S
H491 C515 0.950 . S
H492 C516 0.950 . S
H493 C517 0.951 . S
H494 C519 0.951 . S
H495 C521 0.950 . S
H496 C522 0.950 . S
H497 C524 0.950 . S
H498 C527 0.950 1_554 S
H499 C528 0.950 . S
H500 C530 0.950 . S
H501 C531 0.950 . S
C502 H484 0.951 . S
C502 C503 1.365 . S
C502 C504 1.388 . S
C503 C502 1.365 . S
C503 C507 1.385 1_554 S
C504 H485 0.951 . S
C504 C502 1.388 . S
C504 C505 1.364 . S
C505 C504 1.364 . S
C505 C506 1.416 1_554 S
C505 C508 1.499 1_554 S
C506 H486 0.950 . S
C506 C505 1.416 1_556 S
C506 C507 1.374 . S
C507 H487 0.950 . S
C507 C503 1.385 1_556 S
C507 C506 1.374 . S
C508 C505 1.499 1_556 S
C508 C509 1.373 . S
C508 C510 1.389 1_556 S
C509 H488 0.950 . S
C509 C508 1.373 . S
C509 C525 1.377 . S
C510 C508 1.389 1_554 S
C510 C511 1.524 . S
C510 C524 1.377 . S
C511 C510 1.524 . S
C511 C512 1.397 . S
C511 C516 1.363 . S
C512 H489 0.924 1_554 S
C512 C511 1.397 . S
C512 C513 1.334 . S
C513 H490 0.950 . S
C513 C512 1.334 . S
C513 C514 1.287 . S
C514 C513 1.287 . S
C514 C515 1.524 . S
C514 H533 0.913 . S
C515 H491 0.950 . S
C515 C514 1.524 . S
C515 C516 1.415 . S
C516 H492 0.950 . S
C516 C511 1.363 . S
C516 C515 1.415 . S
C517 H493 0.951 . S
C517 C518 1.365 1_556 S
C517 C519 1.388 . S
C518 C517 1.365 1_554 S
C518 C522 1.385 . S
C519 H494 0.951 . S
C519 C517 1.388 . S
C519 C520 1.364 1_556 S
C520 C519 1.364 1_554 S
C520 C521 1.416 . S
C520 C523 1.499 . S
C521 H495 0.950 . S
C521 C520 1.416 . S
C521 C522 1.374 . S
C522 H496 0.950 . S
C522 C518 1.385 . S
C522 C521 1.374 . S
C523 C520 1.499 . S
C523 C524 1.373 . S
C523 C525 1.389 1_554 S
C524 H497 0.950 . S
C524 C510 1.377 . S
C524 C523 1.373 . S
C525 C509 1.377 . S
C525 C523 1.389 1_556 S
C525 C526 1.524 . S
C526 C525 1.524 . S
C526 C527 1.397 . S
C526 C531 1.363 . S
C527 H498 0.950 1_556 S
C527 C526 1.397 . S
C527 C528 1.334 . S
C528 H499 0.950 . S
C528 C527 1.334 . S
C528 C529 1.287 . S
C529 C528 1.287 . S
C529 C530 1.524 . S
C529 H532 0.999 . S
C530 H500 0.950 . S
C530 C529 1.524 . S
C530 C531 1.415 . S
C531 H501 0.950 . S
C531 C526 1.363 . S
C531 C530 1.415 . S
H532 C529 0.999 . S
H533 C514 0.913 . S
H534 C552 0.951 . S
H535 C554 0.951 . S
H536 C556 0.950 . S
H537 C557 0.950 . S
H538 C559 0.950 . S
H539 C562 0.950 . S
H540 C563 0.950 . S
H541 C565 0.950 . S
H542 C566 0.950 . S
H543 C567 0.951 . S
H544 C569 0.951 . S
H545 C571 0.950 . S
H546 C572 0.950 . S
H547 C574 0.950 . S
H548 C577 0.950 . S
H549 C578 0.950 . S
H550 C580 0.950 . S
H551 C581 0.950 . S
C552 H534 0.951 . S
C552 C553 1.365 1_556 S
C552 C554 1.388 . S
C553 C552 1.365 1_554 S
C553 C557 1.385 . S
C554 H535 0.951 . S
C554 C552 1.388 . S
C554 C555 1.366 . S
C555 C554 1.366 . S
C555 C556 1.414 1_556 S
C555 C558 1.499 . S
C556 H536 0.950 . S
C556 C555 1.414 1_554 S
C556 C557 1.374 . S
C557 H537 0.950 . S
C557 C553 1.385 . S
C557 C556 1.374 . S
C558 C555 1.499 . S
C558 C559 1.373 1_556 S
C558 C560 1.389 . S
C559 H538 0.950 . S
C559 C558 1.373 1_554 S
C559 C575 1.377 . S
C560 C558 1.389 . S
C560 C561 1.524 . S
C560 C574 1.377 . S
C561 C560 1.524 . S
C561 C562 1.397 . S
C561 C566 1.363 . S
C562 H539 0.950 . S
C562 C561 1.397 . S
C562 C563 1.334 . S
C563 H540 0.950 . S
C563 C562 1.334 . S
C563 C564 1.287 . S
C564 C563 1.287 . S
C564 C565 1.524 . S
C564 H583 0.913 . S
C565 H541 0.950 . S
C565 C564 1.524 . S
C565 C566 1.415 . S
C566 H542 0.950 . S
C566 C561 1.363 . S
C566 C565 1.415 . S
C567 H543 0.951 . S
C567 C568 1.365 . S
C567 C569 1.388 . S
C568 C567 1.365 . S
C568 C572 1.385 1_554 S
C569 H544 0.951 . S
C569 C567 1.388 . S
C569 C570 1.366 . S
C570 C569 1.366 . S
C570 C571 1.414 1_554 S
C570 C573 1.499 . S
C571 H545 0.950 . S
C571 C570 1.414 1_556 S
C571 C572 1.374 . S
C572 H546 0.950 . S
C572 C568 1.385 1_556 S
C572 C571 1.374 . S
C573 C570 1.499 . S
C573 C574 1.373 1_554 S
C573 C575 1.389 . S
C574 H547 0.950 . S
C574 C560 1.377 . S
C574 C573 1.373 1_556 S
C575 C559 1.377 . S
C575 C573 1.389 . S
C575 C576 1.524 . S
C576 C575 1.524 . S
C576 C577 1.397 . S
C576 C581 1.363 . S
C577 H548 0.950 . S
C577 C576 1.397 . S
C577 C578 1.334 . S
C578 H549 0.950 . S
C578 C577 1.334 . S
C578 C579 1.287 . S
C579 C578 1.287 . S
C579 C580 1.524 . S
C579 H582 0.999 . S
C580 H550 0.950 . S
C580 C579 1.524 . S
C580 C581 1.415 . S
C581 H551 0.950 . S
C581 C576 1.363 . S
C581 C580 1.415 . S
H582 C579 0.999 . S
H583 C564 0.913 . S
H584 C602 0.951 . S
H585 C604 0.951 . S
H586 C606 0.950 . S
H587 C607 0.950 . S
H588 C609 0.950 . S
H589 C612 0.950 . S
H590 C613 0.950 . S
H591 C615 0.950 . S
H592 C616 0.950 . S
H593 C617 0.951 . S
H594 C619 0.951 . S
H595 C621 0.950 . S
H596 C622 0.950 . S
H597 C624 0.950 . S
H598 C627 0.950 . S
H599 C628 0.950 . S
H600 C630 0.950 . S
H601 C631 0.950 . S
C602 H584 0.951 . S
C602 C603 1.366 1_556 S
C602 C604 1.388 . S
C603 C602 1.366 1_554 S
C603 C607 1.385 . S
C604 H585 0.951 . S
C604 C602 1.388 . S
C604 C605 1.366 . S
C605 C604 1.366 . S
C605 C606 1.414 1_556 S
C605 C608 1.499 . S
C606 H586 0.950 . S
C606 C605 1.414 1_554 S
C606 C607 1.374 . S
C607 H587 0.950 . S
C607 C603 1.385 . S
C607 C606 1.374 . S
C608 C605 1.499 . S
C608 C609 1.373 1_556 S
C608 C610 1.389 . S
C609 H588 0.950 . S
C609 C608 1.373 1_554 S
C609 C625 1.377 . S
C610 C608 1.389 . S
C610 C611 1.524 . S
C610 C624 1.377 . S
C611 C610 1.524 . S
C611 C612 1.397 . S
C611 C616 1.363 . S
C612 H589 0.950 . S
C612 C611 1.397 . S
C612 C613 1.334 . S
C613 H590 0.950 . S
C613 C612 1.334 . S
C613 C614 1.287 . S
C614 C613 1.287 . S
C614 C615 1.524 . S
C614 H633 0.913 . S
C615 H591 0.950 . S
C615 C614 1.524 . S
C615 C616 1.415 . S
C616 H592 0.950 . S
C616 C611 1.363 . S
C616 C615 1.415 . S
C617 H593 0.951 . S
C617 C618 1.366 . S
C617 C619 1.388 . S
C618 C617 1.366 . S
C618 C622 1.385 1_554 S
C619 H594 0.951 . S
C619 C617 1.388 . S
C619 C620 1.366 . S
C620 C619 1.366 . S
C620 C621 1.414 1_554 S
C620 C623 1.499 . S
C621 H595 0.950 . S
C621 C620 1.414 1_556 S
C621 C622 1.374 . S
C622 H596 0.950 . S
C622 C618 1.385 1_556 S
C622 C621 1.374 . S
C623 C620 1.499 . S
C623 C624 1.373 1_554 S
C623 C625 1.389 . S
C624 H597 0.950 . S
C624 C610 1.377 . S
C624 C623 1.373 1_556 S
C625 C609 1.377 . S
C625 C623 1.389 . S
C625 C626 1.524 . S
C626 C625 1.524 . S
C626 C627 1.397 . S
C626 C631 1.363 . S
C627 H598 0.950 . S
C627 C626 1.397 . S
C627 C628 1.334 . S
C628 H599 0.950 . S
C628 C627 1.334 . S
C628 C629 1.287 . S
C629 C628 1.287 . S
C629 C630 1.524 . S
C629 H632 0.999 . S
C630 H600 0.950 . S
C630 C629 1.524 . S
C630 C631 1.415 . S
C631 H601 0.950 . S
C631 C626 1.363 . S
C631 C630 1.415 . S
H632 C629 0.999 . S
H633 C614 0.913 . S
H634 C652 0.951 . S
H635 C654 0.951 . S
H636 C656 0.950 . S
H637 C657 0.950 . S
H638 C659 0.950 . S
H639 C662 0.950 . S
H640 C663 0.950 . S
H641 C665 0.950 . S
H642 C666 0.950 . S
H643 C667 0.951 . S
H644 C669 0.951 . S
H645 C671 0.950 . S
H646 C672 0.950 . S
H647 C674 0.950 . S
H648 C677 0.950 . S
H649 C678 0.950 . S
H650 C680 0.950 . S
H651 C681 0.950 . S
C652 H634 0.951 . S
C652 C653 1.365 . S
C652 C654 1.388 . S
C653 C652 1.365 . S
C653 C657 1.385 1_554 S
C654 H635 0.951 . S
C654 C652 1.388 . S
C654 C655 1.368 . S
C655 C654 1.368 . S
C655 C656 1.412 1_554 S
C655 C658 1.494 1_554 S
C656 H636 0.950 . S
C656 C655 1.412 1_556 S
C656 C657 1.374 . S
C657 H637 0.950 . S
C657 C653 1.385 1_556 S
C657 C656 1.374 . S
C658 C655 1.494 1_556 S
C658 C659 1.396 . S
C658 C660 1.371 1_556 S
C659 H638 0.950 . S
C659 C658 1.396 . S
C659 C675 1.377 . S
C660 C658 1.371 1_554 S
C660 C661 1.524 . S
C660 C674 1.377 . S
C661 C660 1.524 . S
C661 C662 1.397 . S
C661 C666 1.363 . S
C662 H639 0.950 . S
C662 C661 1.397 . S
C662 C663 1.334 . S
C663 H640 0.950 . S
C663 C662 1.334 . S
C663 C664 1.287 . S
C664 C663 1.287 . S
C664 C665 1.524 . S
C664 H683 0.913 . S
C665 H641 0.950 . S
C665 C664 1.524 . S
C665 C666 1.415 . S
C666 H642 0.950 . S
C666 C661 1.363 . S
C666 C665 1.415 . S
C667 H643 0.951 . S
C667 C668 1.365 1_556 S
C667 C669 1.388 . S
C668 C667 1.365 1_554 S
C668 C672 1.385 . S
C669 H644 0.951 . S
C669 C667 1.388 . S
C669 C670 1.368 1_556 S
C670 C669 1.368 1_554 S
C670 C671 1.412 . S
C670 C673 1.498 . S
C671 H645 0.950 . S
C671 C670 1.412 . S
C671 C672 1.374 . S
C672 H646 0.950 . S
C672 C668 1.385 . S
C672 C671 1.374 . S
C673 C670 1.498 . S
C673 C674 1.373 . S
C673 C675 1.389 1_554 S
C674 H647 0.950 . S
C674 C660 1.377 . S
C674 C673 1.373 . S
C675 C659 1.377 . S
C675 C673 1.389 1_556 S
C675 C676 1.524 . S
C676 C675 1.524 . S
C676 C677 1.397 . S
C676 C681 1.363 . S
C677 H648 0.950 . S
C677 C676 1.397 . S
C677 C678 1.334 . S
C678 H649 0.950 . S
C678 C677 1.334 . S
C678 C679 1.287 . S
C679 C678 1.287 . S
C679 C680 1.524 . S
C679 H682 0.999 . S
C680 H650 0.950 . S
C680 C679 1.524 . S
C680 C681 1.415 . S
C681 H651 0.950 . S
C681 C676 1.363 . S
C681 C680 1.415 . S
H682 C679 0.999 . S
H683 C664 0.913 . S
C103 C0 1.498 . S
C118 C57 1.495 1_455 S
C153 C13 1.499 1_545 S
C168 C70 1.502 1_545 S
C203 C56 1.498 . S
C218 C1 1.502 1_455 S
C253 C71 1.499 . S
C268 C12 1.494 . S
C303 C83 1.499 1_545 S
C318 C26 1.494 . S
C353 C40 1.498 . S
C368 C69 1.495 . S
C403 C82 1.498 . S
C418 C27 1.503 1_545 S
C453 C68 1.498 1_455 S
C468 C41 1.502 1_455 S
C503 C28 1.498 . S
C518 C55 1.495 1_554 S
C553 C43 1.499 . S
C568 C14 1.494 . S
C603 C29 1.498 1_554 S
C618 C54 1.501 . S
C653 C42 1.498 1_554 S
C668 C15 1.502 1_554 S
