# Generated by pormake.
# Topology uoy, (4)-cn, num edge types: 1
# Building blocks:
#     Node 0, Type 0, BuildingBlock: QUQFOY_clean_sbu_3, # of connection points: 4
#     Node 1, Type 0, BuildingBlock: QUQFOY_clean_sbu_3, # of connection points: 4
#     Node 2, Type 0, BuildingBlock: QUQFOY_clean_sbu_3, # of connection points: 4
#     Node 3, Type 0, BuildingBlock: QUQFOY_clean_sbu_3, # of connection points: 4
#     Node 4, Type 0, BuildingBlock: QUQFOY_clean_sbu_3, # of connection points: 4
#     Node 5, Type 0, BuildingBlock: QUQFOY_clean_sbu_3, # of connection points: 4
#     Node 6, Type 0, BuildingBlock: QUQFOY_clean_sbu_3, # of connection points: 4
#     Node 7, Type 0, BuildingBlock: QUQFOY_clean_sbu_3, # of connection points: 4
#     Node 8, Type 0, BuildingBlock: QUQFOY_clean_sbu_3, # of connection points: 4
#     Node 9, Type 0, BuildingBlock: QUQFOY_clean_sbu_3, # of connection points: 4
#     Node 10, Type 0, BuildingBlock: QUQFOY_clean_sbu_3, # of connection points: 4
#     Node 11, Type 0, BuildingBlock: QUQFOY_clean_sbu_3, # of connection points: 4
#     Node 12, Type 0, BuildingBlock: QUQFOY_clean_sbu_3, # of connection points: 4
#     Node 13, Type 0, BuildingBlock: QUQFOY_clean_sbu_3, # of connection points: 4
#     Node 14, Type 0, BuildingBlock: QUQFOY_clean_sbu_3, # of connection points: 4
#     Node 15, Type 0, BuildingBlock: QUQFOY_clean_sbu_3, # of connection points: 4
#     Edge 16, Type (0, 0), BuildingBlock: CIFDUS_clean_linker_0, # of connection points: 2
#     Edge 17, Type (0, 0), BuildingBlock: CIFDUS_clean_linker_0, # of connection points: 2
#     Edge 18, Type (0, 0), BuildingBlock: CIFDUS_clean_linker_0, # of connection points: 2
#     Edge 19, Type (0, 0), BuildingBlock: CIFDUS_clean_linker_0, # of connection points: 2
#     Edge 20, Type (0, 0), BuildingBlock: CIFDUS_clean_linker_0, # of connection points: 2
#     Edge 21, Type (0, 0), BuildingBlock: CIFDUS_clean_linker_0, # of connection points: 2
#     Edge 22, Type (0, 0), BuildingBlock: CIFDUS_clean_linker_0, # of connection points: 2
#     Edge 23, Type (0, 0), BuildingBlock: CIFDUS_clean_linker_0, # of connection points: 2
#     Edge 24, Type (0, 0), BuildingBlock: CIFDUS_clean_linker_0, # of connection points: 2
#     Edge 25, Type (0, 0), BuildingBlock: CIFDUS_clean_linker_0, # of connection points: 2
#     Edge 26, Type (0, 0), BuildingBlock: CIFDUS_clean_linker_0, # of connection points: 2
#     Edge 27, Type (0, 0), BuildingBlock: CIFDUS_clean_linker_0, # of connection points: 2
#     Edge 28, Type (0, 0), BuildingBlock: CIFDUS_clean_linker_0, # of connection points: 2
#     Edge 29, Type (0, 0), BuildingBlock: CIFDUS_clean_linker_0, # of connection points: 2
#     Edge 30, Type (0, 0), BuildingBlock: CIFDUS_clean_linker_0, # of connection points: 2
#     Edge 31, Type (0, 0), BuildingBlock: CIFDUS_clean_linker_0, # of connection points: 2
#     Edge 32, Type (0, 0), BuildingBlock: CIFDUS_clean_linker_0, # of connection points: 2
#     Edge 33, Type (0, 0), BuildingBlock: CIFDUS_clean_linker_0, # of connection points: 2
#     Edge 34, Type (0, 0), BuildingBlock: CIFDUS_clean_linker_0, # of connection points: 2
#     Edge 35, Type (0, 0), BuildingBlock: CIFDUS_clean_linker_0, # of connection points: 2
#     Edge 36, Type (0, 0), BuildingBlock: CIFDUS_clean_linker_0, # of connection points: 2
#     Edge 37, Type (0, 0), BuildingBlock: CIFDUS_clean_linker_0, # of connection points: 2
#     Edge 38, Type (0, 0), BuildingBlock: CIFDUS_clean_linker_0, # of connection points: 2
#     Edge 39, Type (0, 0), BuildingBlock: CIFDUS_clean_linker_0, # of connection points: 2
#     Edge 40, Type (0, 0), BuildingBlock: CIFDUS_clean_linker_0, # of connection points: 2
#     Edge 41, Type (0, 0), BuildingBlock: CIFDUS_clean_linker_0, # of connection points: 2
#     Edge 42, Type (0, 0), BuildingBlock: CIFDUS_clean_linker_0, # of connection points: 2
#     Edge 43, Type (0, 0), BuildingBlock: CIFDUS_clean_linker_0, # of connection points: 2
#     Edge 44, Type (0, 0), BuildingBlock: CIFDUS_clean_linker_0, # of connection points: 2
#     Edge 45, Type (0, 0), BuildingBlock: CIFDUS_clean_linker_0, # of connection points: 2
#     Edge 46, Type (0, 0), BuildingBlock: CIFDUS_clean_linker_0, # of connection points: 2
#     Edge 47, Type (0, 0), BuildingBlock: CIFDUS_clean_linker_0, # of connection points: 2
# Relax obj value: 0.036
# Max RMSD: 0.062
# Mean RMSD: 0.062
data_MOF--net-uoy--node1-QUQFOY_clean_sbu_3--edge1-CIFDUS_clean_linker_0
_symmetry_space_group_name_H-M    P1
_symmetry_Int_Tables_number       1
_symmetry_cell_setting            triclinic
loop_
_symmetry_equiv_pos_as_xyz
'x, y, z'
_cell_length_a     25.186727
_cell_length_b     24.979159
_cell_length_c     99.737245
_cell_angle_alpha  89.979544
_cell_angle_beta   89.816701
_cell_angle_gamma 90.06382
loop_
_atom_site_label
_atom_site_type_symbol
_atom_site_fract_x
_atom_site_fract_y
_atom_site_fract_z
_atom_type_partial_charge
C0 C 0.23272 0.19883 0.19202 0.0
O1 O 0.26313 0.22554 0.18435 0.0
Cd2 Cd 0.27647 0.20866 0.16095 0.0
O3 O 0.2052 0.16012 0.18744 0.0
Cd4 Cd 0.18983 0.1152 0.16563 0.0
C5 C 0.3188 0.07795 0.16247 0.0
O6 O 0.1913 0.19386 0.15136 0.0
O7 O 0.19468 0.11773 0.14122 0.0
O8 O 0.09428 0.10664 0.16886 0.0
C9 C 0.19251 0.16831 0.14038 0.0
O10 O 0.32911 0.12676 0.1598 0.0
C11 C 0.09393 0.05582 0.16854 0.0
O12 O 0.27199 0.06342 0.16572 0.0
O13 O 0.13848 0.03263 0.16722 0.0
C14 C 0.78347 0.72672 0.43682 0.0
O15 O 0.75207 0.75171 0.42909 0.0
Cd16 Cd 0.76721 0.76738 0.40581 0.0
O17 O 0.82579 0.70523 0.43231 0.0
Cd18 Cd 0.87426 0.69111 0.41103 0.0
C19 C 0.89184 0.8263 0.40882 0.0
O20 O 0.7972 0.68451 0.39727 0.0
O21 O 0.87094 0.69233 0.38648 0.0
O22 O 0.88404 0.5966 0.41599 0.0
C23 C 0.82084 0.6874 0.38608 0.0
O24 O 0.8424 0.82905 0.40619 0.0
C25 C 0.93427 0.59565 0.415 0.0
O26 O 0.9139 0.78149 0.41147 0.0
O27 O 0.95734 0.63998 0.41258 0.0
C28 C 0.25832 0.28933 0.6891 0.0
O29 O 0.2281 0.26051 0.68192 0.0
Cd30 Cd 0.21303 0.27353 0.65851 0.0
O31 O 0.28597 0.32664 0.68384 0.0
Cd32 Cd 0.30441 0.36523 0.66139 0.0
C33 C 0.17601 0.40685 0.6595 0.0
O34 O 0.29706 0.28475 0.64804 0.0
O35 O 0.29598 0.35905 0.63705 0.0
O36 O 0.3999 0.36115 0.66489 0.0
C37 C 0.29509 0.3083 0.6368 0.0
O38 O 0.16438 0.35779 0.65758 0.0
C39 C 0.40821 0.41096 0.66349 0.0
O40 O 0.22382 0.42119 0.6618 0.0
O41 O 0.36777 0.44026 0.66142 0.0
C42 C 0.69596 0.73826 0.93838 0.0
O43 O 0.72315 0.70809 0.93077 0.0
Cd44 Cd 0.70489 0.69628 0.9075 0.0
O45 O 0.65814 0.76633 0.93369 0.0
Cd46 Cd 0.61526 0.78643 0.91213 0.0
C47 C 0.57366 0.65764 0.91007 0.0
O48 O 0.69392 0.78353 0.89826 0.0
O49 O 0.61924 0.78372 0.88773 0.0
O50 O 0.61718 0.88136 0.91739 0.0
C51 C 0.66952 0.78489 0.88718 0.0
O52 O 0.62178 0.64605 0.90738 0.0
C53 C 0.56781 0.8889 0.91575 0.0
O54 O 0.56013 0.70561 0.91277 0.0
O55 O 0.53991 0.84812 0.91283 0.0
C56 C 0.30145 0.25752 0.01435 0.0
O57 O 0.33209 0.22687 0.02088 0.0
Cd58 Cd 0.34744 0.24216 0.04439 0.0
O59 O 0.27666 0.29494 0.0203 0.0
Cd60 Cd 0.263 0.33222 0.04272 0.0
C61 C 0.39159 0.37202 0.04399 0.0
O62 O 0.26345 0.2497 0.05592 0.0
O63 O 0.26717 0.32468 0.0668 0.0
O64 O 0.16864 0.33001 0.0382 0.0
C65 C 0.26149 0.27423 0.06707 0.0
O66 O 0.40237 0.32266 0.04563 0.0
C67 C 0.16055 0.37962 0.03992 0.0
O68 O 0.34385 0.38712 0.04211 0.0
O69 O 0.20077 0.40829 0.04273 0.0
C70 C 0.72152 0.81749 0.26412 0.0
O71 O 0.75644 0.84325 0.27062 0.0
Cd72 Cd 0.7448 0.85832 0.2942 0.0
O73 O 0.68169 0.7971 0.2701 0.0
Cd74 Cd 0.64101 0.78255 0.29201 0.0
C75 C 0.62044 0.91736 0.29357 0.0
O76 O 0.72382 0.77354 0.30407 0.0
O77 O 0.65225 0.78045 0.31606 0.0
O78 O 0.63914 0.6899 0.28507 0.0
C79 C 0.70185 0.77184 0.31553 0.0
O80 O 0.6705 0.92049 0.29518 0.0
C81 C 0.59076 0.68084 0.28776 0.0
O82 O 0.59799 0.87203 0.29172 0.0
O83 O 0.56363 0.72034 0.29205 0.0
C84 C 0.16438 0.21192 0.5136 0.0
O85 O 0.1331 0.24147 0.52031 0.0
Cd86 Cd 0.1185 0.22506 0.54377 0.0
O87 O 0.18979 0.17441 0.51932 0.0
Cd88 Cd 0.20386 0.13479 0.54151 0.0
C89 C 0.07487 0.09504 0.54292 0.0
O90 O 0.20395 0.2176 0.55445 0.0
O91 O 0.20254 0.14347 0.56571 0.0
O92 O 0.2978 0.13621 0.53616 0.0
C93 C 0.20756 0.194 0.56569 0.0
O94 O 0.06393 0.14425 0.54474 0.0
C95 C 0.30595 0.08669 0.53802 0.0
O96 O 0.1227 0.08017 0.54098 0.0
O97 O 0.26593 0.05839 0.54129 0.0
C98 C 0.75765 0.70512 0.7612 0.0
O99 O 0.722 0.68061 0.76782 0.0
Cd100 Cd 0.73401 0.66456 0.79135 0.0
O101 O 0.79776 0.72494 0.76711 0.0
Cd102 Cd 0.838 0.74024 0.78894 0.0
C103 C 0.85866 0.60569 0.78984 0.0
O104 O 0.75688 0.74727 0.80194 0.0
O105 O 0.83012 0.73717 0.81301 0.0
O106 O 0.83821 0.83374 0.78275 0.0
C107 C 0.78047 0.74572 0.81316 0.0
O108 O 0.80867 0.60258 0.7917 0.0
C109 C 0.88689 0.84269 0.78505 0.0
O110 O 0.88116 0.65106 0.78802 0.0
O111 O 0.91472 0.80283 0.78878 0.0
C112 C 0.82062 0.7064 0.6834 0.0
O113 O 0.85385 0.73395 0.67672 0.0
Cd114 Cd 0.87075 0.71509 0.65358 0.0
O115 O 0.79521 0.66827 0.6779 0.0
Cd116 Cd 0.78254 0.62321 0.65637 0.0
C117 C 0.91225 0.58426 0.65562 0.0
O118 O 0.78381 0.70649 0.64401 0.0
O119 O 0.78013 0.6342 0.63212 0.0
O120 O 0.68928 0.6237 0.66249 0.0
C121 C 0.77803 0.68491 0.63262 0.0
O122 O 0.92364 0.63327 0.65359 0.0
C123 C 0.68086 0.57433 0.66047 0.0
O124 O 0.86421 0.56961 0.65736 0.0
O125 O 0.72045 0.54642 0.65673 0.0
C126 C 0.27476 0.29881 0.93578 0.0
O127 O 0.24581 0.33078 0.92915 0.0
Cd128 Cd 0.26668 0.34978 0.90602 0.0
O129 O 0.31311 0.27474 0.93009 0.0
Cd130 Cd 0.3561 0.26349 0.90831 0.0
C131 C 0.39572 0.39276 0.90872 0.0
O132 O 0.27846 0.26728 0.8938 0.0
O133 O 0.35561 0.27195 0.88419 0.0
O134 O 0.35314 0.16789 0.91213 0.0
C135 C 0.30563 0.26794 0.88304 0.0
O136 O 0.3473 0.40425 0.90648 0.0
C137 C 0.40288 0.1605 0.91152 0.0
O138 O 0.41007 0.34433 0.9104 0.0
O139 O 0.43169 0.20154 0.90943 0.0
C140 C 0.67396 0.78948 0.18593 0.0
O141 O 0.64237 0.75916 0.17956 0.0
Cd142 Cd 0.62695 0.77106 0.15606 0.0
O143 O 0.69882 0.82691 0.17994 0.0
Cd144 Cd 0.71152 0.86681 0.15779 0.0
C145 C 0.58087 0.90012 0.15614 0.0
O146 O 0.71466 0.78084 0.14669 0.0
O147 O 0.71712 0.8503 0.13377 0.0
O148 O 0.80364 0.87985 0.16424 0.0
C149 C 0.72014 0.79986 0.135 0.0
O150 O 0.57035 0.85055 0.15477 0.0
C151 C 0.80493 0.92947 0.16152 0.0
O152 O 0.62844 0.91596 0.15773 0.0
O153 O 0.76251 0.95015 0.15702 0.0
C154 C 0.19942 0.18042 0.43494 0.0
O155 O 0.23362 0.15485 0.42812 0.0
Cd156 Cd 0.21754 0.13596 0.40482 0.0
O157 O 0.15764 0.19827 0.4294 0.0
Cd158 Cd 0.11343 0.20528 0.40767 0.0
C159 C 0.09773 0.07039 0.40723 0.0
O160 O 0.19204 0.21774 0.39377 0.0
O161 O 0.11808 0.20267 0.38341 0.0
O162 O 0.10129 0.29877 0.41319 0.0
C163 C 0.16684 0.21519 0.38278 0.0
O164 O 0.14747 0.06829 0.40495 0.0
C165 C 0.05131 0.29951 0.41174 0.0
O166 O 0.07473 0.11522 0.40914 0.0
O167 O 0.02918 0.25553 0.40853 0.0
C168 C 0.72724 0.79453 0.51319 0.0
O169 O 0.7582 0.76779 0.52066 0.0
Cd170 Cd 0.77322 0.78395 0.54381 0.0
O171 O 0.69943 0.83276 0.51795 0.0
Cd172 Cd 0.68111 0.87674 0.53975 0.0
C173 C 0.81024 0.91755 0.5417 0.0
O174 O 0.68663 0.79608 0.55254 0.0
O175 O 0.68503 0.86806 0.56435 0.0
O176 O 0.58644 0.87361 0.53519 0.0
C177 C 0.68621 0.81731 0.56403 0.0
O178 O 0.82167 0.86871 0.54401 0.0
C179 C 0.57823 0.92333 0.53671 0.0
O180 O 0.76251 0.93169 0.53926 0.0
O181 O 0.61845 0.95227 0.53933 0.0
C182 C 0.18302 0.25695 0.76602 0.0
O183 O 0.21295 0.2843 0.77363 0.0
Cd184 Cd 0.18915 0.3065 0.79624 0.0
O185 O 0.13989 0.23693 0.77048 0.0
Cd186 Cd 0.08674 0.22665 0.79118 0.0
C187 C 0.0645 0.36136 0.79029 0.0
O188 O 0.15913 0.22675 0.8068 0.0
O189 O 0.08108 0.23455 0.81561 0.0
O190 O 0.09089 0.13138 0.7872 0.0
C191 C 0.13088 0.23115 0.81729 0.0
O192 O 0.11334 0.36562 0.79342 0.0
C193 C 0.0413 0.12266 0.78724 0.0
O194 O 0.04333 0.31543 0.78833 0.0
O195 O 0.01124 0.16324 0.78876 0.0
C196 C 0.74131 0.66863 0.0151 0.0
O197 O 0.71028 0.69656 0.02231 0.0
Cd198 Cd 0.69443 0.68224 0.04554 0.0
O199 O 0.76844 0.63071 0.02019 0.0
Cd200 Cd 0.78555 0.58957 0.04234 0.0
C201 C 0.65653 0.54901 0.04425 0.0
O202 O 0.78113 0.67222 0.05437 0.0
O203 O 0.78257 0.60201 0.06687 0.0
O204 O 0.87979 0.59189 0.03725 0.0
C205 C 0.78245 0.65269 0.06605 0.0
O206 O 0.64503 0.59807 0.0462 0.0
C207 C 0.88816 0.54253 0.03932 0.0
O208 O 0.70439 0.5346 0.04208 0.0
O209 O 0.84818 0.51408 0.04253 0.0
C210 C 0.29795 0.25949 0.26839 0.0
O211 O 0.26761 0.23349 0.27624 0.0
Cd212 Cd 0.28764 0.2148 0.29922 0.0
O213 O 0.34038 0.28126 0.27272 0.0
Cd214 Cd 0.39123 0.29665 0.29361 0.0
C215 C 0.41416 0.1616 0.29401 0.0
O216 O 0.31758 0.29579 0.3088 0.0
O217 O 0.39453 0.29182 0.31816 0.0
O218 O 0.38658 0.39176 0.28917 0.0
C219 C 0.34442 0.29275 0.31949 0.0
O220 O 0.3651 0.15731 0.29703 0.0
C221 C 0.43613 0.40078 0.28936 0.0
O222 O 0.4352 0.20745 0.29175 0.0
O223 O 0.4663 0.36044 0.29109 0.0
H224 H 0.24052 0.31886 0.09122 0.0
H225 H 0.25482 0.16632 0.0712 0.0
H226 H 0.23256 0.12003 0.09208 0.0
H227 H 0.20993 0.12309 0.11602 0.0
H228 H 0.19554 0.27591 0.13592 0.0
H229 H 0.2164 0.32199 0.11498 0.0
C230 C 0.23897 0.27547 0.09142 0.0
C231 C 0.24954 0.24603 0.07971 0.0
C232 C 0.22578 0.24924 0.10339 0.0
C233 C 0.24696 0.18987 0.08011 0.0
C234 C 0.23414 0.1634 0.09202 0.0
C235 C 0.21103 0.16648 0.11576 0.0
C236 C 0.2013 0.19604 0.12751 0.0
C237 C 0.22346 0.19271 0.10372 0.0
C238 C 0.2029 0.25223 0.12701 0.0
C239 C 0.21498 0.27862 0.11506 0.0
H240 H 0.86111 0.71024 0.36148 0.0
H241 H 0.71357 0.68776 0.38294 0.0
H242 H 0.66373 0.71277 0.36298 0.0
H243 H 0.66212 0.74369 0.33973 0.0
H244 H 0.80936 0.76574 0.31814 0.0
H245 H 0.85939 0.73865 0.33796 0.0
C246 C 0.81805 0.7104 0.36176 0.0
C247 C 0.79106 0.6974 0.37366 0.0
C248 C 0.78966 0.72528 0.3503 0.0
C249 C 0.73527 0.69769 0.37388 0.0
C250 C 0.70673 0.71219 0.3625 0.0
C251 C 0.70517 0.74279 0.33938 0.0
C252 C 0.73207 0.757 0.32756 0.0
C253 C 0.73355 0.72669 0.35072 0.0
C254 C 0.7878 0.75508 0.32717 0.0
C255 C 0.81641 0.73951 0.33847 0.0
H256 H 0.23172 0.152 0.58997 0.0
H257 H 0.21591 0.30212 0.5689 0.0
H258 H 0.24346 0.35066 0.58897 0.0
H259 H 0.27214 0.35036 0.61242 0.0
H260 H 0.28786 0.20021 0.63349 0.0
H261 H 0.26078 0.15167 0.61339 0.0
C262 C 0.23403 0.19536 0.58978 0.0
C263 C 0.22167 0.22344 0.57799 0.0
C264 C 0.2503 0.22293 0.6013 0.0
C265 C 0.22516 0.27958 0.57788 0.0
C266 C 0.24103 0.30736 0.58932 0.0
C267 C 0.26993 0.30699 0.6126 0.0
C268 C 0.282 0.27891 0.62441 0.0
C269 C 0.25389 0.27941 0.60107 0.0
C270 C 0.2788 0.22275 0.6245 0.0
C271 C 0.26317 0.19498 0.61304 0.0
H272 H 0.82277 0.75471 0.83792 0.0
H273 H 0.67346 0.75525 0.81678 0.0
H274 H 0.62589 0.76908 0.83788 0.0
H275 H 0.62689 0.77978 0.86231 0.0
H276 H 0.77647 0.77936 0.88335 0.0
H277 H 0.82391 0.76709 0.86222 0.0
C278 C 0.77981 0.75776 0.83793 0.0
C279 C 0.75162 0.75375 0.82585 0.0
C280 C 0.75285 0.76591 0.85004 0.0
C281 C 0.69602 0.75814 0.82598 0.0
C282 C 0.66882 0.76607 0.83802 0.0
C283 C 0.66988 0.77721 0.86226 0.0
C284 C 0.69814 0.78029 0.87435 0.0
C285 C 0.69686 0.76991 0.8501 0.0
C286 C 0.75382 0.77703 0.87416 0.0
C287 C 0.78097 0.76991 0.86209 0.0
H288 H 0.7157 0.85367 0.58854 0.0
H289 H 0.68548 0.7089 0.56618 0.0
H290 H 0.71281 0.65496 0.58535 0.0
H291 H 0.74657 0.64894 0.60828 0.0
H292 H 0.77737 0.79363 0.63062 0.0
H293 H 0.74914 0.84762 0.61154 0.0
C294 C 0.71468 0.81033 0.58791 0.0
C295 C 0.69859 0.78528 0.576 0.0
C296 C 0.73111 0.77958 0.59888 0.0
C297 C 0.69777 0.7291 0.57527 0.0
C298 C 0.71355 0.69822 0.5862 0.0
C299 C 0.74742 0.69228 0.60894 0.0
C300 C 0.76412 0.71726 0.6208 0.0
C301 C 0.73073 0.72305 0.598 0.0
C302 C 0.7647 0.77345 0.62156 0.0
C303 C 0.74841 0.80437 0.61069 0.0
H304 H 0.20042 0.25865 0.87755 0.0
H305 H 0.35495 0.26485 0.85873 0.0
H306 H 0.31437 0.2533 0.83676 0.0
H307 H 0.2354 0.24091 0.82293 0.0
H308 H 0.08056 0.23552 0.84155 0.0
H309 H 0.12098 0.24711 0.86361 0.0
C310 C 0.22518 0.25759 0.86864 0.0
C311 C 0.28057 0.26254 0.86977 0.0
C312 C 0.20162 0.25089 0.85603 0.0
C313 C 0.31217 0.26114 0.85813 0.0
C314 C 0.28904 0.25445 0.84557 0.0
C315 C 0.21048 0.24211 0.83181 0.0
C316 C 0.15514 0.23723 0.83063 0.0
C317 C 0.23388 0.24912 0.84441 0.0
C318 C 0.12333 0.23918 0.84222 0.0
C319 C 0.14638 0.24583 0.85482 0.0
H320 H 0.76438 0.62153 0.09176 0.0
H321 H 0.78321 0.76139 0.06673 0.0
H322 H 0.76532 0.8193 0.08587 0.0
H323 H 0.74244 0.83027 0.10955 0.0
H324 H 0.72298 0.69076 0.13465 0.0
H325 H 0.74273 0.63263 0.11561 0.0
C326 C 0.76489 0.66467 0.09053 0.0
C327 C 0.77496 0.68715 0.07787 0.0
C328 C 0.75409 0.69778 0.10154 0.0
C329 C 0.77541 0.74311 0.07639 0.0
C330 C 0.7651 0.77629 0.08731 0.0
C331 C 0.74241 0.78715 0.11084 0.0
C332 C 0.73112 0.76484 0.12345 0.0
C333 C 0.75394 0.75404 0.0999 0.0
C334 C 0.73149 0.70891 0.12501 0.0
C335 C 0.74285 0.67563 0.11415 0.0
H336 H 0.27003 0.24189 0.37851 0.0
H337 H 0.12093 0.21819 0.35809 0.0
H338 H 0.1625 0.24206 0.33679 0.0
H339 H 0.24101 0.26908 0.32396 0.0
H340 H 0.39069 0.29117 0.34419 0.0
H341 H 0.34885 0.26887 0.36563 0.0
C342 C 0.24666 0.24188 0.3694 0.0
C343 C 0.19252 0.22827 0.36988 0.0
C344 C 0.27079 0.25558 0.35718 0.0
C345 C 0.16274 0.22841 0.35799 0.0
C346 C 0.18641 0.24217 0.3458 0.0
C347 C 0.26443 0.26935 0.33307 0.0
C348 C 0.31879 0.28185 0.33252 0.0
C349 C 0.24035 0.25586 0.34529 0.0
C350 C 0.34872 0.28165 0.34438 0.0
C351 C 0.32488 0.26884 0.35662 0.0
H352 H 0.29425 0.27032 0.20541 0.0
H353 H 0.17043 0.15287 0.2114 0.0
H354 H 0.17644 0.16516 0.23563 0.0
H355 H 0.22187 0.20358 0.25507 0.0
H356 H 0.34812 0.31834 0.24902 0.0
H357 H 0.33566 0.313 0.22482 0.0
C358 C 0.26812 0.24778 0.21198 0.0
C359 C 0.23229 0.21037 0.20658 0.0
C360 C 0.27238 0.25433 0.2259 0.0
C361 C 0.19866 0.18167 0.21528 0.0
C362 C 0.20209 0.18861 0.22914 0.0
C363 C 0.24625 0.22797 0.24848 0.0
C364 C 0.28617 0.26096 0.25387 0.0
C365 C 0.23959 0.22399 0.23456 0.0
C366 C 0.31735 0.29228 0.24516 0.0
C367 C 0.31032 0.28923 0.23131 0.0
H368 H 0.71015 0.78528 0.45036 0.0
H369 H 0.83422 0.66823 0.45603 0.0
H370 H 0.82446 0.67602 0.48029 0.0
H371 H 0.78612 0.72128 0.49971 0.0
H372 H 0.66471 0.84118 0.49409 0.0
H373 H 0.66791 0.82667 0.4699 0.0
C374 C 0.7346 0.76091 0.45688 0.0
C375 C 0.77314 0.72655 0.45139 0.0
C376 C 0.7296 0.76639 0.4708 0.0
C377 C 0.80451 0.6953 0.46 0.0
C378 C 0.79903 0.69978 0.47387 0.0
C379 C 0.75997 0.74398 0.49323 0.0
C380 C 0.72561 0.78264 0.4987 0.0
C381 C 0.76258 0.73608 0.47936 0.0
C382 C 0.69184 0.81145 0.49014 0.0
C383 C 0.69364 0.80321 0.47631 0.0
H384 H 0.19533 0.22282 0.70367 0.0
H385 H 0.31923 0.34135 0.7077 0.0
H386 H 0.30992 0.33824 0.73207 0.0
H387 H 0.26121 0.30779 0.75203 0.0
H388 H 0.1349 0.192 0.74773 0.0
H389 H 0.15089 0.18803 0.72364 0.0
C390 C 0.22082 0.24755 0.70985 0.0
C391 C 0.25758 0.28262 0.70384 0.0
C392 C 0.21456 0.2464 0.72381 0.0
C393 C 0.29034 0.31422 0.71205 0.0
C394 C 0.28498 0.31258 0.72599 0.0
C395 C 0.23758 0.28121 0.74585 0.0
C396 C 0.19659 0.25065 0.75167 0.0
C397 C 0.24635 0.27974 0.73196 0.0
C398 C 0.1664 0.21636 0.74351 0.0
C399 C 0.17549 0.21403 0.72972 0.0
H400 H 0.69053 0.74659 0.00126 0.0
H401 H 0.79904 0.61423 -0.00377 0.0
H402 H 0.79821 0.62745 0.97199 0.0
H403 H 0.76151 0.67214 0.95223 0.0
H404 H 0.65093 0.80271 0.95735 0.0
H405 H 0.65831 0.79481 -0.01837 0.0
C406 C 0.71432 0.72078 -0.00511 0.0
C407 C 0.74433 0.67912 0.00055 0.0
C408 C 0.71324 0.72817 -0.01901 0.0
C409 C 0.77528 0.6464 -0.00786 0.0
C410 C 0.77482 0.65389 -0.02173 0.0
C411 C 0.7395 0.69933 0.95864 0.0
C412 C 0.70535 0.73761 0.95298 0.0
C413 C 0.74318 0.69402 0.97259 0.0
C414 C 0.6772 0.77258 0.96144 0.0
C415 C 0.6813 0.76807 0.97533 0.0
H416 H 0.2359 0.31335 -0.00204 0.0
H417 H 0.35636 0.19036 -0.00235 0.0
H418 H 0.35505 0.18933 0.97317 0.0
H419 H 0.32523 0.22849 0.95203 0.0
H420 H 0.20646 0.35311 0.95231 0.0
H421 H 0.20128 0.34786 -0.02326 0.0
C422 C 0.26161 0.28595 -0.00744 0.0
C423 C 0.29666 0.25242 -0.00036 0.0
C424 C 0.26113 0.28602 -0.02148 0.0
C425 C 0.32922 0.21679 -0.00753 0.0
C426 C 0.3286 0.21627 -0.02153 0.0
C427 C 0.29783 0.25427 0.9574 0.0
C428 C 0.26674 0.29162 0.95036 0.0
C429 C 0.29557 0.25154 0.97142 0.0
C430 C 0.23103 0.3242 0.95748 0.0
C431 C 0.22817 0.32134 0.97145 0.0
H432 H 0.66175 0.7542 0.24818 0.0
H433 H 0.78916 0.87005 0.24706 0.0
H434 H 0.78783 0.86857 0.22256 0.0
H435 H 0.74596 0.83954 0.20169 0.0
H436 H 0.61746 0.72488 0.20291 0.0
H437 H 0.62406 0.7206 0.2273 0.0
C438 C 0.68951 0.77895 0.2426 0.0
C439 C 0.72505 0.81272 0.24941 0.0
C440 C 0.68814 0.77832 0.22859 0.0
C441 C 0.76126 0.84389 0.24204 0.0
C442 C 0.76039 0.8432 0.22805 0.0
C443 C 0.71953 0.81336 0.20727 0.0
C444 C 0.68081 0.78308 0.20051 0.0
C445 C 0.72325 0.8114 0.22125 0.0
C446 C 0.64741 0.74882 0.20787 0.0
C447 C 0.65107 0.74642 0.22181 0.0
H448 H 0.14131 0.24385 0.4514 0.0
H449 H 0.27184 0.13186 0.45134 0.0
H450 H 0.27499 0.13521 0.47581 0.0
H451 H 0.23577 0.16399 0.49712 0.0
H452 H 0.10437 0.27497 0.49713 0.0
H453 H 0.10683 0.27821 0.47267 0.0
C454 C 0.17077 0.22044 0.45671 0.0
C455 C 0.20583 0.18709 0.44956 0.0
C456 C 0.17202 0.22216 0.47074 0.0
C457 C 0.24423 0.15767 0.4566 0.0
C458 C 0.24593 0.15941 0.47059 0.0
C459 C 0.20788 0.18924 0.49179 0.0
C460 C 0.16947 0.21865 0.49894 0.0
C461 C 0.20922 0.19057 0.47775 0.0
C462 C 0.13415 0.25171 0.49188 0.0
C463 C 0.13543 0.25348 0.47789 0.0
H464 H 0.74285 0.66571 0.69923 0.0
H465 H 0.87755 0.77294 0.6997 0.0
H466 H 0.86601 0.78614 0.72378 0.0
H467 H 0.82234 0.76169 0.74478 0.0
H468 H 0.68898 0.6528 0.74447 0.0
H469 H 0.69488 0.64655 0.72006 0.0
C470 C 0.76961 0.69217 0.70457 0.0
C471 C 0.81149 0.71771 0.69773 0.0
C472 C 0.76296 0.69931 0.71839 0.0
C473 C 0.84524 0.75252 0.70476 0.0
C474 C 0.8387 0.76006 0.71852 0.0
C475 C 0.79417 0.73693 0.73939 0.0
C476 C 0.75572 0.70717 0.74644 0.0
C477 C 0.79836 0.73282 0.72545 0.0
C478 C 0.7191 0.67592 0.73928 0.0
C479 C 0.72262 0.67212 0.72534 0.0
H480 H -0.00583 0.09422 0.16524 0.0
H481 H 0.08148 0.94847 0.17241 0.0
H482 H -0.00083 0.8968 0.17144 0.0
H483 H 0.90317 0.89262 0.16759 0.0
H484 H 0.81636 0.03785 0.15941 0.0
H485 H 0.89782 0.09019 0.16174 0.0
C486 C -0.00489 0.05121 0.16672 0.0
C487 C 0.04379 0.02519 0.1689 0.0
C488 C 0.94783 0.02166 0.16588 0.0
C489 C 0.04448 0.96941 0.17068 0.0
C490 C -0.00253 0.93983 0.17012 0.0
C491 C 0.90201 0.93576 0.16638 0.0
C492 C 0.85384 0.96131 0.16331 0.0
C493 C 0.94904 0.96548 0.16756 0.0
C494 C 0.853 0.0172 0.16173 0.0
C495 C 0.89953 0.04716 0.16308 0.0
H496 H 0.09137 0.3994 0.41493 0.0
H497 H 0.94347 0.31285 0.41189 0.0
H498 H 0.89419 0.39696 0.41349 0.0
H499 H 0.89343 0.49513 0.4148 0.0
H500 H 0.0416 0.58173 0.4168 0.0
H501 H 0.09058 0.49728 0.41665 0.0
C502 C 0.04832 0.39883 0.4147 0.0
C503 C 0.0211 0.34991 0.41328 0.0
C504 C 0.02038 0.4473 0.41542 0.0
C505 C 0.96536 0.34995 0.41294 0.0
C506 C 0.93719 0.39802 0.41386 0.0
C507 C 0.93644 0.49555 0.41533 0.0
C508 C 0.96386 0.54466 0.41582 0.0
C509 C 0.96432 0.44694 0.41497 0.0
C510 C 0.01957 0.5445 0.4164 0.0
C511 C 0.04758 0.49624 0.41629 0.0
H512 H 0.43753 0.51572 0.66464 0.0
H513 H 0.50144 0.35569 0.66275 0.0
H514 H 0.59151 0.39173 0.6618 0.0
H515 H 0.65226 0.46896 0.66081 0.0
H516 H 0.58812 0.62879 0.66341 0.0
H517 H 0.49835 0.5926 0.66481 0.0
C518 C 0.47118 0.48875 0.66407 0.0
C519 C 0.46272 0.43316 0.66369 0.0
C520 C 0.52295 0.50971 0.66362 0.0
C521 C 0.5068 0.3987 0.66306 0.0
C522 C 0.55837 0.41926 0.66248 0.0
C523 C 0.61862 0.4958 0.66173 0.0
C524 C 0.62692 0.55146 0.66193 0.0
C525 C 0.56694 0.47472 0.66265 0.0
C526 C 0.58292 0.58574 0.66323 0.0
C527 C 0.53148 0.56512 0.66401 0.0
H528 H 0.50666 0.13364 0.91488 0.0
H529 H 0.34969 0.06567 0.91136 0.0
H530 H 0.38656 0.97566 0.91289 0.0
H531 H 0.46357 0.91607 0.91443 0.0
H532 H 0.6205 0.98373 0.91839 0.0
H533 H 0.5834 0.0739 0.9176 0.0
C534 C 0.48057 0.09911 0.91447 0.0
C535 C 0.42562 0.10632 0.91291 0.0
C536 C 0.50197 0.04737 0.91546 0.0
C537 C 0.3922 0.06122 0.91253 0.0
C538 C 0.41321 0.00969 0.91339 0.0
C539 C 0.48961 0.95053 0.91522 0.0
C540 C 0.54468 0.94318 0.9164 0.0
C541 C 0.46806 0.00228 0.91476 0.0
C542 C 0.5779 0.98826 0.91747 0.0
C543 C 0.55677 0.03988 0.91698 0.0
H544 H 0.13202 0.4846 0.03863 0.0
H545 H 0.06733 0.32456 0.03943 0.0
H546 H 0.97738 0.36056 0.03912 0.0
H547 H 0.91682 0.43755 0.03924 0.0
H548 H 0.98135 0.59756 0.03769 0.0
H549 H 0.07136 0.56155 0.03761 0.0
C550 C 0.09821 0.45766 0.0387 0.0
C551 C 0.10637 0.40206 0.03913 0.0
C552 C 0.04648 0.47859 0.0384 0.0
C553 C 0.06217 0.36759 0.0391 0.0
C554 C 0.01066 0.3881 0.03895 0.0
C555 C 0.95059 0.46449 0.03884 0.0
C556 C 0.94238 0.5201 0.03855 0.0
C557 C 0.00231 0.44354 0.03869 0.0
C558 C 0.98655 0.55453 0.03792 0.0
C559 C 0.03809 0.53401 0.03791 0.0
H560 H 0.48707 0.64881 0.28971 0.0
H561 H 0.64587 0.58885 0.28346 0.0
H562 H 0.61253 0.49729 0.28315 0.0
H563 H 0.53867 0.43336 0.2855 0.0
H564 H 0.37944 0.49326 0.29096 0.0
H565 H 0.41243 0.58504 0.29067 0.0
C566 C 0.51428 0.61572 0.2882 0.0
C567 C 0.56888 0.62583 0.28668 0.0
C568 C 0.4948 0.56284 0.28793 0.0
C569 C 0.60358 0.58239 0.28465 0.0
C570 C 0.58461 0.52984 0.28451 0.0
C571 C 0.51121 0.46652 0.28656 0.0
C572 C 0.45675 0.4563 0.28832 0.0
C573 C 0.53037 0.51948 0.28627 0.0
C574 C 0.42162 0.49984 0.28958 0.0
C575 C 0.44044 0.55248 0.28945 0.0
H576 H 0.54954 0.02828 0.53586 0.0
H577 H 0.48485 0.86823 0.53612 0.0
H578 H 0.39486 0.90433 0.53638 0.0
H579 H 0.33431 0.98149 0.53726 0.0
H580 H 0.39915 0.14145 0.53629 0.0
H581 H 0.489 0.10529 0.53554 0.0
C582 C 0.51574 0.00134 0.53591 0.0
C583 C 0.52393 0.94571 0.53604 0.0
C584 C 0.46401 0.02233 0.53597 0.0
C585 C 0.47969 0.91128 0.53602 0.0
C586 C 0.42816 0.93186 0.5362 0.0
C587 C 0.36812 0.00837 0.53684 0.0
C588 C 0.36002 0.06402 0.53691 0.0
C589 C 0.41982 0.98732 0.53629 0.0
C590 C 0.40423 0.09839 0.53625 0.0
C591 C 0.4557 0.07778 0.53584 0.0
H592 H 0.93863 0.09036 0.78355 0.0
H593 H 0.09786 0.03012 0.78855 0.0
H594 H 0.06489 0.93841 0.788 0.0
H595 H -0.0096 0.87476 0.78688 0.0
H596 H 0.83146 0.93487 0.78122 0.0
H597 H 0.86471 0.02651 0.78117 0.0
C598 C 0.96608 0.05715 0.78446 0.0
C599 C 0.02055 0.06724 0.78616 0.0
C600 C 0.94692 0.0042 0.78403 0.0
C601 C 0.05567 0.02364 0.78723 0.0
C602 C 0.03688 0.97104 0.78694 0.0
C603 C 0.96313 0.9079 0.78555 0.0
C604 C 0.90854 0.89782 0.78412 0.0
C605 C 0.98253 0.96077 0.78546 0.0
C606 C 0.87375 0.94132 0.78234 0.0
C607 C 0.89267 -0.0061 0.78235 0.0
H608 H 0.47526 0.88087 0.15943 0.0
H609 H 0.58878 0.00856 0.15365 0.0
H610 H 0.51767 0.07454 0.15502 0.0
H611 H 0.42384 0.09616 0.15821 0.0
H612 H 0.31023 0.96898 0.1646 0.0
H613 H 0.381 0.90267 0.16269 0.0
C614 C 0.48441 0.92311 0.15838 0.0
C615 C 0.53726 0.93971 0.15641 0.0
C616 C 0.44342 0.96096 0.15937 0.0
C617 C 0.54847 -0.00535 0.15519 0.0
C618 C 0.50784 0.03245 0.15598 0.0
C619 C 0.41443 0.05395 0.15918 0.0
C620 C 0.36174 0.03766 0.16155 0.0
C621 C 0.45526 0.01607 0.15814 0.0
C622 C 0.35043 0.98274 0.16282 0.0
C623 C 0.39087 0.94473 0.1617 0.0
H624 H -0.00019 0.8372 0.40895 0.0
H625 H 0.85438 0.9286 0.40871 0.0
H626 H 0.90491 0.01172 0.40841 0.0
H627 H -0.0098 0.05892 0.40797 0.0
H628 H 0.13588 0.96801 0.4076 0.0
H629 H 0.08546 0.88465 0.40837 0.0
C630 C 0.97919 0.87529 0.40888 0.0
C631 C 0.92336 0.87647 0.40885 0.0
C632 C 0.00851 0.92323 0.40857 0.0
C633 C 0.89732 0.92631 0.40868 0.0
C634 C 0.92617 0.97401 0.40852 0.0
C635 C 0.01097 0.02091 0.40809 0.0
C636 C 0.06676 0.0199 0.40773 0.0
C637 C 0.98176 0.97299 0.40842 0.0
C638 C 0.09294 0.97013 0.40782 0.0
C639 C 0.06415 0.92232 0.40829 0.0
H640 H 0.06985 0.38828 0.65819 0.0
H641 H 0.18504 0.5163 0.65971 0.0
H642 H 0.11359 0.58226 0.65846 0.0
H643 H 0.01858 0.60345 0.65687 0.0
H644 H 0.90364 0.4751 0.65582 0.0
H645 H 0.97514 0.40935 0.65693 0.0
C646 C 0.07951 0.4306 0.65824 0.0
C647 C 0.13289 0.44722 0.65901 0.0
C648 C 0.03829 0.46825 0.65758 0.0
C649 C 0.1444 0.5023 0.65915 0.0
C650 C 0.10354 0.54006 0.65841 0.0
C651 C 0.00908 0.5611 0.65684 0.0
C652 C 0.9557 0.54431 0.65621 0.0
C653 C 0.05037 0.52347 0.6576 0.0
C654 C 0.94426 0.48922 0.6563 0.0
C655 C 0.98515 0.45156 0.65693 0.0
H656 H 0.37749 0.50004 0.9097 0.0
H657 H 0.50381 0.38328 0.90891 0.0
H658 H 0.56965 0.455 0.90923 0.0
H659 H 0.59139 0.5505 0.90951 0.0
H660 H 0.46541 0.66752 0.91081 0.0
H661 H 0.39934 0.5958 0.91053 0.0
C662 C 0.41942 0.49021 0.90959 0.0
C663 C 0.43562 0.43629 0.90923 0.0
C664 C 0.45711 0.53163 0.90986 0.0
C665 C 0.49016 0.42437 0.9092 0.0
C666 C 0.52788 0.46537 0.90936 0.0
C667 C 0.54948 0.56044 0.90971 0.0
C668 C 0.53341 0.61438 0.91011 0.0
C669 C 0.51178 0.51909 0.90965 0.0
C670 C 0.47892 0.62638 0.9105 0.0
C671 C 0.4411 0.5854 0.91033 0.0
H672 H 0.55027 0.56781 0.04468 0.0
H673 H 0.66513 0.43961 0.04384 0.0
H674 H 0.59328 0.37376 0.04385 0.0
H675 H 0.498 0.35268 0.044 0.0
H676 H 0.38344 0.4812 0.04432 0.0
H677 H 0.4553 0.54684 0.04461 0.0
C678 C 0.55975 0.52548 0.04454 0.0
C679 C 0.61316 0.50877 0.0443 0.0
C680 C 0.51831 0.48787 0.04443 0.0
C681 C 0.62447 0.45368 0.04402 0.0
C682 C 0.58338 0.41597 0.04403 0.0
C683 C 0.48865 0.39504 0.04416 0.0
C684 C 0.43526 0.41189 0.04416 0.0
C685 C 0.53017 0.43263 0.04423 0.0
C686 C 0.42406 0.46701 0.04429 0.0
C687 C 0.46515 0.50462 0.04447 0.0
H688 H 0.52246 0.15087 0.2941 0.0
H689 H 0.37708 0.05951 0.29215 0.0
H690 H 0.42736 0.97644 0.29171 0.0
H691 H 0.51254 0.92887 0.29228 0.0
H692 H 0.65805 0.01984 0.29476 0.0
H693 H 0.60794 0.1031 0.29461 0.0
C694 C 0.50184 0.11281 0.2935 0.0
C695 C 0.44604 0.1117 0.29318 0.0
C696 C 0.53102 0.06473 0.29341 0.0
C697 C 0.42 0.06182 0.29249 0.0
C698 C 0.44871 0.01408 0.29222 0.0
C699 C 0.53332 0.96686 0.29278 0.0
C700 C 0.58904 0.96774 0.29355 0.0
C701 C 0.50424 0.01494 0.29277 0.0
C702 C 0.61517 0.0176 0.2942 0.0
C703 C 0.58655 0.06548 0.29409 0.0
H704 H 0.91646 0.89899 0.54265 0.0
H705 H 0.80153 0.02694 0.54092 0.0
H706 H 0.87325 0.09294 0.54134 0.0
H707 H 0.96847 0.11421 0.5422 0.0
H708 H 0.08313 0.98589 0.54338 0.0
H709 H 0.01137 0.92012 0.54319 0.0
C710 C 0.90693 0.9413 0.54239 0.0
C711 C 0.85353 0.95789 0.5418 0.0
C712 C 0.94831 0.97898 0.54254 0.0
C713 C 0.84218 0.01296 0.54136 0.0
C714 C 0.88319 0.05075 0.54162 0.0
C715 C 0.97785 0.07186 0.54245 0.0
C716 C 0.03124 0.0551 0.54285 0.0
C717 C 0.93639 0.0342 0.54222 0.0
C718 C 0.04251 -0.0 0.54307 0.0
C719 C 0.00147 0.96232 0.54297 0.0
H720 H 0.96649 0.59408 0.78809 0.0
H721 H 0.82091 0.50327 0.79098 0.0
H722 H 0.87093 0.41997 0.79075 0.0
H723 H 0.95633 0.37218 0.79026 0.0
H724 H 0.10184 0.46324 0.78791 0.0
H725 H 0.05163 0.54639 0.78731 0.0
C726 C 0.94567 0.55611 0.78865 0.0
C727 C 0.88997 0.55529 0.7896 0.0
C728 C 0.97471 0.508 0.78859 0.0
C729 C 0.86378 0.50546 0.79031 0.0
C730 C 0.89235 0.45756 0.79015 0.0
C731 C 0.977 0.41018 0.78951 0.0
C732 C 0.03279 0.41123 0.78916 0.0
C733 C 0.94786 0.45827 0.78935 0.0
C734 C 0.0589 0.46103 0.78828 0.0
C735 C 0.03024 0.50879 0.78793 0.0
loop_
_geom_bond_atom_site_label_1
_geom_bond_atom_site_label_2
_geom_bond_distance
_geom_bond_site_symmetry_2
_ccdc_geom_bond_type
C0 O1 1.306 . S
C0 O3 1.160 . S
O1 C0 1.306 . S
O1 Cd2 2.228 . S
Cd2 O1 2.228 . S
Cd2 O6 2.273 . S
Cd2 O10 2.277 . S
O3 C0 1.160 . S
O3 Cd4 2.203 . S
Cd4 O3 2.203 . S
Cd4 O6 2.411 . S
Cd4 O7 2.333 . S
Cd4 O8 2.352 . S
Cd4 O12 2.277 . S
Cd4 O13 2.356 . S
C5 O10 1.209 . S
C5 O12 1.226 . S
O6 Cd2 2.273 . S
O6 Cd4 2.411 . S
O6 C9 1.320 . S
O7 Cd4 2.333 . S
O7 C9 1.214 . S
O8 Cd4 2.352 . S
O8 C11 1.258 . S
C9 O6 1.320 . S
C9 O7 1.214 . S
O10 Cd2 2.277 . S
O10 C5 1.209 . S
C11 O8 1.258 . S
C11 O13 1.282 . S
O12 Cd4 2.277 . S
O12 C5 1.226 . S
O13 Cd4 2.356 . S
O13 C11 1.282 . S
C14 O15 1.306 . S
C14 O17 1.160 . S
O15 C14 1.306 . S
O15 Cd16 2.228 . S
Cd16 O15 2.228 . S
Cd16 O20 2.273 . S
Cd16 O24 2.277 . S
O17 C14 1.160 . S
O17 Cd18 2.203 . S
Cd18 O17 2.203 . S
Cd18 O20 2.411 . S
Cd18 O21 2.333 . S
Cd18 O22 2.352 . S
Cd18 O26 2.277 . S
Cd18 O27 2.356 . S
C19 O24 1.209 . S
C19 O26 1.226 . S
O20 Cd16 2.273 . S
O20 Cd18 2.411 . S
O20 C23 1.320 . S
O21 Cd18 2.333 . S
O21 C23 1.214 . S
O22 Cd18 2.352 . S
O22 C25 1.258 . S
C23 O20 1.320 . S
C23 O21 1.214 . S
O24 Cd16 2.277 . S
O24 C19 1.209 . S
C25 O22 1.258 . S
C25 O27 1.282 . S
O26 Cd18 2.277 . S
O26 C19 1.226 . S
O27 Cd18 2.356 . S
O27 C25 1.282 . S
C28 O29 1.306 . S
C28 O31 1.160 . S
O29 C28 1.306 . S
O29 Cd30 2.228 . S
Cd30 O29 2.228 . S
Cd30 O34 2.273 . S
Cd30 O38 2.277 . S
O31 C28 1.160 . S
O31 Cd32 2.203 . S
Cd32 O31 2.203 . S
Cd32 O34 2.411 . S
Cd32 O35 2.333 . S
Cd32 O36 2.352 . S
Cd32 O40 2.277 . S
Cd32 O41 2.356 . S
C33 O38 1.209 . S
C33 O40 1.226 . S
O34 Cd30 2.273 . S
O34 Cd32 2.411 . S
O34 C37 1.320 . S
O35 Cd32 2.333 . S
O35 C37 1.214 . S
O36 Cd32 2.352 . S
O36 C39 1.258 . S
C37 O34 1.320 . S
C37 O35 1.214 . S
O38 Cd30 2.277 . S
O38 C33 1.209 . S
C39 O36 1.258 . S
C39 O41 1.282 . S
O40 Cd32 2.277 . S
O40 C33 1.226 . S
O41 Cd32 2.356 . S
O41 C39 1.282 . S
C42 O43 1.306 . S
C42 O45 1.160 . S
O43 C42 1.306 . S
O43 Cd44 2.228 . S
Cd44 O43 2.228 . S
Cd44 O48 2.273 . S
Cd44 O52 2.277 . S
O45 C42 1.160 . S
O45 Cd46 2.203 . S
Cd46 O45 2.203 . S
Cd46 O48 2.411 . S
Cd46 O49 2.333 . S
Cd46 O50 2.352 . S
Cd46 O54 2.277 . S
Cd46 O55 2.356 . S
C47 O52 1.209 . S
C47 O54 1.226 . S
O48 Cd44 2.273 . S
O48 Cd46 2.411 . S
O48 C51 1.320 . S
O49 Cd46 2.333 . S
O49 C51 1.214 . S
O50 Cd46 2.352 . S
O50 C53 1.258 . S
C51 O48 1.320 . S
C51 O49 1.214 . S
O52 Cd44 2.277 . S
O52 C47 1.209 . S
C53 O50 1.258 . S
C53 O55 1.282 . S
O54 Cd46 2.277 . S
O54 C47 1.226 . S
O55 Cd46 2.356 . S
O55 C53 1.282 . S
C56 O57 1.306 . S
C56 O59 1.160 . S
O57 C56 1.306 . S
O57 Cd58 2.228 . S
Cd58 O57 2.228 . S
Cd58 O62 2.273 . S
Cd58 O66 2.277 . S
O59 C56 1.160 . S
O59 Cd60 2.203 . S
Cd60 O59 2.203 . S
Cd60 O62 2.411 . S
Cd60 O63 2.333 . S
Cd60 O64 2.352 . S
Cd60 O68 2.277 . S
Cd60 O69 2.356 . S
C61 O66 1.209 . S
C61 O68 1.226 . S
O62 Cd58 2.273 . S
O62 Cd60 2.411 . S
O62 C65 1.320 . S
O63 Cd60 2.333 . S
O63 C65 1.214 . S
O64 Cd60 2.352 . S
O64 C67 1.258 . S
C65 O62 1.320 . S
C65 O63 1.214 . S
O66 Cd58 2.277 . S
O66 C61 1.209 . S
C67 O64 1.258 . S
C67 O69 1.282 . S
O68 Cd60 2.277 . S
O68 C61 1.226 . S
O69 Cd60 2.356 . S
O69 C67 1.282 . S
C70 O71 1.306 . S
C70 O73 1.160 . S
O71 C70 1.306 . S
O71 Cd72 2.228 . S
Cd72 O71 2.228 . S
Cd72 O76 2.273 . S
Cd72 O80 2.277 . S
O73 C70 1.160 . S
O73 Cd74 2.203 . S
Cd74 O73 2.203 . S
Cd74 O76 2.411 . S
Cd74 O77 2.333 . S
Cd74 O78 2.352 . S
Cd74 O82 2.277 . S
Cd74 O83 2.356 . S
C75 O80 1.209 . S
C75 O82 1.226 . S
O76 Cd72 2.273 . S
O76 Cd74 2.411 . S
O76 C79 1.320 . S
O77 Cd74 2.333 . S
O77 C79 1.214 . S
O78 Cd74 2.352 . S
O78 C81 1.258 . S
C79 O76 1.320 . S
C79 O77 1.214 . S
O80 Cd72 2.277 . S
O80 C75 1.209 . S
C81 O78 1.258 . S
C81 O83 1.282 . S
O82 Cd74 2.277 . S
O82 C75 1.226 . S
O83 Cd74 2.356 . S
O83 C81 1.282 . S
C84 O85 1.306 . S
C84 O87 1.160 . S
O85 C84 1.306 . S
O85 Cd86 2.228 . S
Cd86 O85 2.228 . S
Cd86 O90 2.273 . S
Cd86 O94 2.277 . S
O87 C84 1.160 . S
O87 Cd88 2.203 . S
Cd88 O87 2.203 . S
Cd88 O90 2.411 . S
Cd88 O91 2.333 . S
Cd88 O92 2.352 . S
Cd88 O96 2.277 . S
Cd88 O97 2.356 . S
C89 O94 1.209 . S
C89 O96 1.226 . S
O90 Cd86 2.273 . S
O90 Cd88 2.411 . S
O90 C93 1.320 . S
O91 Cd88 2.333 . S
O91 C93 1.214 . S
O92 Cd88 2.352 . S
O92 C95 1.258 . S
C93 O90 1.320 . S
C93 O91 1.214 . S
O94 Cd86 2.277 . S
O94 C89 1.209 . S
C95 O92 1.258 . S
C95 O97 1.282 . S
O96 Cd88 2.277 . S
O96 C89 1.226 . S
O97 Cd88 2.356 . S
O97 C95 1.282 . S
C98 O99 1.306 . S
C98 O101 1.160 . S
O99 C98 1.306 . S
O99 Cd100 2.228 . S
Cd100 O99 2.228 . S
Cd100 O104 2.273 . S
Cd100 O108 2.277 . S
O101 C98 1.160 . S
O101 Cd102 2.203 . S
Cd102 O101 2.203 . S
Cd102 O104 2.411 . S
Cd102 O105 2.333 . S
Cd102 O106 2.352 . S
Cd102 O110 2.277 . S
Cd102 O111 2.356 . S
C103 O108 1.209 . S
C103 O110 1.226 . S
O104 Cd100 2.273 . S
O104 Cd102 2.411 . S
O104 C107 1.320 . S
O105 Cd102 2.333 . S
O105 C107 1.214 . S
O106 Cd102 2.352 . S
O106 C109 1.258 . S
C107 O104 1.320 . S
C107 O105 1.214 . S
O108 Cd100 2.277 . S
O108 C103 1.209 . S
C109 O106 1.258 . S
C109 O111 1.282 . S
O110 Cd102 2.277 . S
O110 C103 1.226 . S
O111 Cd102 2.356 . S
O111 C109 1.282 . S
C112 O113 1.306 . S
C112 O115 1.160 . S
O113 C112 1.306 . S
O113 Cd114 2.228 . S
Cd114 O113 2.228 . S
Cd114 O118 2.273 . S
Cd114 O122 2.277 . S
O115 C112 1.160 . S
O115 Cd116 2.203 . S
Cd116 O115 2.203 . S
Cd116 O118 2.411 . S
Cd116 O119 2.333 . S
Cd116 O120 2.352 . S
Cd116 O124 2.277 . S
Cd116 O125 2.356 . S
C117 O122 1.209 . S
C117 O124 1.226 . S
O118 Cd114 2.273 . S
O118 Cd116 2.411 . S
O118 C121 1.320 . S
O119 Cd116 2.333 . S
O119 C121 1.214 . S
O120 Cd116 2.352 . S
O120 C123 1.258 . S
C121 O118 1.320 . S
C121 O119 1.214 . S
O122 Cd114 2.277 . S
O122 C117 1.209 . S
C123 O120 1.258 . S
C123 O125 1.282 . S
O124 Cd116 2.277 . S
O124 C117 1.226 . S
O125 Cd116 2.356 . S
O125 C123 1.282 . S
C126 O127 1.306 . S
C126 O129 1.160 . S
O127 C126 1.306 . S
O127 Cd128 2.228 . S
Cd128 O127 2.228 . S
Cd128 O132 2.273 . S
Cd128 O136 2.277 . S
O129 C126 1.160 . S
O129 Cd130 2.203 . S
Cd130 O129 2.203 . S
Cd130 O132 2.411 . S
Cd130 O133 2.333 . S
Cd130 O134 2.352 . S
Cd130 O138 2.277 . S
Cd130 O139 2.356 . S
C131 O136 1.209 . S
C131 O138 1.226 . S
O132 Cd128 2.273 . S
O132 Cd130 2.411 . S
O132 C135 1.320 . S
O133 Cd130 2.333 . S
O133 C135 1.214 . S
O134 Cd130 2.352 . S
O134 C137 1.258 . S
C135 O132 1.320 . S
C135 O133 1.214 . S
O136 Cd128 2.277 . S
O136 C131 1.209 . S
C137 O134 1.258 . S
C137 O139 1.282 . S
O138 Cd130 2.277 . S
O138 C131 1.226 . S
O139 Cd130 2.356 . S
O139 C137 1.282 . S
C140 O141 1.306 . S
C140 O143 1.160 . S
O141 C140 1.306 . S
O141 Cd142 2.228 . S
Cd142 O141 2.228 . S
Cd142 O146 2.273 . S
Cd142 O150 2.277 . S
O143 C140 1.160 . S
O143 Cd144 2.203 . S
Cd144 O143 2.203 . S
Cd144 O146 2.411 . S
Cd144 O147 2.333 . S
Cd144 O148 2.352 . S
Cd144 O152 2.277 . S
Cd144 O153 2.356 . S
C145 O150 1.209 . S
C145 O152 1.226 . S
O146 Cd142 2.273 . S
O146 Cd144 2.411 . S
O146 C149 1.320 . S
O147 Cd144 2.333 . S
O147 C149 1.214 . S
O148 Cd144 2.352 . S
O148 C151 1.258 . S
C149 O146 1.320 . S
C149 O147 1.214 . S
O150 Cd142 2.277 . S
O150 C145 1.209 . S
C151 O148 1.258 . S
C151 O153 1.282 . S
O152 Cd144 2.277 . S
O152 C145 1.226 . S
O153 Cd144 2.356 . S
O153 C151 1.282 . S
C154 O155 1.306 . S
C154 O157 1.160 . S
O155 C154 1.306 . S
O155 Cd156 2.228 . S
Cd156 O155 2.228 . S
Cd156 O160 2.273 . S
Cd156 O164 2.277 . S
O157 C154 1.160 . S
O157 Cd158 2.203 . S
Cd158 O157 2.203 . S
Cd158 O160 2.411 . S
Cd158 O161 2.333 . S
Cd158 O162 2.352 . S
Cd158 O166 2.277 . S
Cd158 O167 2.356 . S
C159 O164 1.209 . S
C159 O166 1.226 . S
O160 Cd156 2.273 . S
O160 Cd158 2.411 . S
O160 C163 1.320 . S
O161 Cd158 2.333 . S
O161 C163 1.214 . S
O162 Cd158 2.352 . S
O162 C165 1.258 . S
C163 O160 1.320 . S
C163 O161 1.214 . S
O164 Cd156 2.277 . S
O164 C159 1.209 . S
C165 O162 1.258 . S
C165 O167 1.282 . S
O166 Cd158 2.277 . S
O166 C159 1.226 . S
O167 Cd158 2.356 . S
O167 C165 1.282 . S
C168 O169 1.306 . S
C168 O171 1.160 . S
O169 C168 1.306 . S
O169 Cd170 2.228 . S
Cd170 O169 2.228 . S
Cd170 O174 2.273 . S
Cd170 O178 2.277 . S
O171 C168 1.160 . S
O171 Cd172 2.203 . S
Cd172 O171 2.203 . S
Cd172 O174 2.411 . S
Cd172 O175 2.333 . S
Cd172 O176 2.352 . S
Cd172 O180 2.277 . S
Cd172 O181 2.356 . S
C173 O178 1.209 . S
C173 O180 1.226 . S
O174 Cd170 2.273 . S
O174 Cd172 2.411 . S
O174 C177 1.320 . S
O175 Cd172 2.333 . S
O175 C177 1.214 . S
O176 Cd172 2.352 . S
O176 C179 1.258 . S
C177 O174 1.320 . S
C177 O175 1.214 . S
O178 Cd170 2.277 . S
O178 C173 1.209 . S
C179 O176 1.258 . S
C179 O181 1.282 . S
O180 Cd172 2.277 . S
O180 C173 1.226 . S
O181 Cd172 2.356 . S
O181 C179 1.282 . S
C182 O183 1.306 . S
C182 O185 1.160 . S
O183 C182 1.306 . S
O183 Cd184 2.228 . S
Cd184 O183 2.228 . S
Cd184 O188 2.273 . S
Cd184 O192 2.277 . S
O185 C182 1.160 . S
O185 Cd186 2.203 . S
Cd186 O185 2.203 . S
Cd186 O188 2.411 . S
Cd186 O189 2.333 . S
Cd186 O190 2.352 . S
Cd186 O194 2.277 . S
Cd186 O195 2.356 . S
C187 O192 1.209 . S
C187 O194 1.226 . S
O188 Cd184 2.273 . S
O188 Cd186 2.411 . S
O188 C191 1.320 . S
O189 Cd186 2.333 . S
O189 C191 1.214 . S
O190 Cd186 2.352 . S
O190 C193 1.258 . S
C191 O188 1.320 . S
C191 O189 1.214 . S
O192 Cd184 2.277 . S
O192 C187 1.209 . S
C193 O190 1.258 . S
C193 O195 1.282 . S
O194 Cd186 2.277 . S
O194 C187 1.226 . S
O195 Cd186 2.356 . S
O195 C193 1.282 . S
C196 O197 1.306 . S
C196 O199 1.160 . S
O197 C196 1.306 . S
O197 Cd198 2.228 . S
Cd198 O197 2.228 . S
Cd198 O202 2.273 . S
Cd198 O206 2.277 . S
O199 C196 1.160 . S
O199 Cd200 2.203 . S
Cd200 O199 2.203 . S
Cd200 O202 2.411 . S
Cd200 O203 2.333 . S
Cd200 O204 2.352 . S
Cd200 O208 2.277 . S
Cd200 O209 2.356 . S
C201 O206 1.209 . S
C201 O208 1.226 . S
O202 Cd198 2.273 . S
O202 Cd200 2.411 . S
O202 C205 1.320 . S
O203 Cd200 2.333 . S
O203 C205 1.214 . S
O204 Cd200 2.352 . S
O204 C207 1.258 . S
C205 O202 1.320 . S
C205 O203 1.214 . S
O206 Cd198 2.277 . S
O206 C201 1.209 . S
C207 O204 1.258 . S
C207 O209 1.282 . S
O208 Cd200 2.277 . S
O208 C201 1.226 . S
O209 Cd200 2.356 . S
O209 C207 1.282 . S
C210 O211 1.306 . S
C210 O213 1.160 . S
O211 C210 1.306 . S
O211 Cd212 2.228 . S
Cd212 O211 2.228 . S
Cd212 O216 2.273 . S
Cd212 O220 2.277 . S
O213 C210 1.160 . S
O213 Cd214 2.203 . S
Cd214 O213 2.203 . S
Cd214 O216 2.411 . S
Cd214 O217 2.333 . S
Cd214 O218 2.352 . S
Cd214 O222 2.277 . S
Cd214 O223 2.356 . S
C215 O220 1.209 . S
C215 O222 1.226 . S
O216 Cd212 2.273 . S
O216 Cd214 2.411 . S
O216 C219 1.320 . S
O217 Cd214 2.333 . S
O217 C219 1.214 . S
O218 Cd214 2.352 . S
O218 C221 1.258 . S
C219 O216 1.320 . S
C219 O217 1.214 . S
O220 Cd212 2.277 . S
O220 C215 1.209 . S
C221 O218 1.258 . S
C221 O223 1.282 . S
O222 Cd214 2.277 . S
O222 C215 1.226 . S
O223 Cd214 2.356 . S
O223 C221 1.282 . S
H224 C230 0.930 . S
H225 C233 0.930 . S
H226 C234 0.930 . S
H227 C235 0.930 . S
H228 C238 0.930 . S
H229 C239 0.930 . S
C230 H224 0.930 . S
C230 C231 1.355 . S
C230 C232 1.415 . S
C231 C230 1.355 . S
C231 C233 1.419 . S
C232 C230 1.415 . S
C232 C237 1.425 . S
C232 C239 1.409 . S
C233 H225 0.930 . S
C233 C231 1.419 . S
C233 C234 1.362 . S
C234 H226 0.930 . S
C234 C233 1.362 . S
C234 C237 1.409 . S
C235 H227 0.930 . S
C235 C236 1.355 . S
C235 C237 1.415 . S
C236 C235 1.355 . S
C236 C238 1.419 . S
C237 C232 1.425 . S
C237 C234 1.409 . S
C237 C235 1.415 . S
C238 H228 0.930 . S
C238 C236 1.419 . S
C238 C239 1.362 . S
C239 H229 0.930 . S
C239 C232 1.409 . S
C239 C238 1.362 . S
H240 C246 0.930 . S
H241 C249 0.930 . S
H242 C250 0.930 . S
H243 C251 0.930 . S
H244 C254 0.930 . S
H245 C255 0.930 . S
C246 H240 0.930 . S
C246 C247 1.355 . S
C246 C248 1.415 . S
C247 C246 1.355 . S
C247 C249 1.419 . S
C248 C246 1.415 . S
C248 C253 1.425 . S
C248 C255 1.409 . S
C249 H241 0.930 . S
C249 C247 1.419 . S
C249 C250 1.362 . S
C250 H242 0.930 . S
C250 C249 1.362 . S
C250 C253 1.409 . S
C251 H243 0.930 . S
C251 C252 1.355 . S
C251 C253 1.415 . S
C252 C251 1.355 . S
C252 C254 1.419 . S
C253 C248 1.425 . S
C253 C250 1.409 . S
C253 C251 1.415 . S
C254 H244 0.930 . S
C254 C252 1.419 . S
C254 C255 1.362 . S
C255 H245 0.930 . S
C255 C248 1.409 . S
C255 C254 1.362 . S
H256 C262 0.930 . S
H257 C265 0.930 . S
H258 C266 0.930 . S
H259 C267 0.930 . S
H260 C270 0.930 . S
H261 C271 0.930 . S
C262 H256 0.930 . S
C262 C263 1.355 . S
C262 C264 1.415 . S
C263 C262 1.355 . S
C263 C265 1.419 . S
C264 C262 1.415 . S
C264 C269 1.425 . S
C264 C271 1.409 . S
C265 H257 0.930 . S
C265 C263 1.419 . S
C265 C266 1.362 . S
C266 H258 0.930 . S
C266 C265 1.362 . S
C266 C269 1.409 . S
C267 H259 0.930 . S
C267 C268 1.355 . S
C267 C269 1.415 . S
C268 C267 1.355 . S
C268 C270 1.419 . S
C269 C264 1.425 . S
C269 C266 1.409 . S
C269 C267 1.415 . S
C270 H260 0.930 . S
C270 C268 1.419 . S
C270 C271 1.362 . S
C271 H261 0.930 . S
C271 C264 1.409 . S
C271 C270 1.362 . S
H272 C278 0.930 . S
H273 C281 0.930 . S
H274 C282 0.930 . S
H275 C283 0.930 . S
H276 C286 0.930 . S
H277 C287 0.930 . S
C278 H272 0.930 . S
C278 C279 1.355 . S
C278 C280 1.415 . S
C279 C278 1.355 . S
C279 C281 1.419 . S
C280 C278 1.415 . S
C280 C285 1.425 . S
C280 C287 1.409 . S
C281 H273 0.930 . S
C281 C279 1.419 . S
C281 C282 1.362 . S
C282 H274 0.930 . S
C282 C281 1.362 . S
C282 C285 1.409 . S
C283 H275 0.930 . S
C283 C284 1.355 . S
C283 C285 1.415 . S
C284 C283 1.355 . S
C284 C286 1.419 . S
C285 C280 1.425 . S
C285 C282 1.409 . S
C285 C283 1.415 . S
C286 H276 0.930 . S
C286 C284 1.419 . S
C286 C287 1.362 . S
C287 H277 0.930 . S
C287 C280 1.409 . S
C287 C286 1.362 . S
H288 C294 0.930 . S
H289 C297 0.930 . S
H290 C298 0.930 . S
H291 C299 0.930 . S
H292 C302 0.930 . S
H293 C303 0.930 . S
C294 H288 0.930 . S
C294 C295 1.355 . S
C294 C296 1.415 . S
C295 C294 1.355 . S
C295 C297 1.419 . S
C296 C294 1.415 . S
C296 C301 1.425 . S
C296 C303 1.409 . S
C297 H289 0.930 . S
C297 C295 1.419 . S
C297 C298 1.362 . S
C298 H290 0.930 . S
C298 C297 1.362 . S
C298 C301 1.409 . S
C299 H291 0.930 . S
C299 C300 1.355 . S
C299 C301 1.415 . S
C300 C299 1.355 . S
C300 C302 1.419 . S
C301 C296 1.425 . S
C301 C298 1.409 . S
C301 C299 1.415 . S
C302 H292 0.930 . S
C302 C300 1.419 . S
C302 C303 1.362 . S
C303 H293 0.930 . S
C303 C296 1.409 . S
C303 C302 1.362 . S
H304 C310 0.930 . S
H305 C313 0.930 . S
H306 C314 0.930 . S
H307 C315 0.930 . S
H308 C318 0.930 . S
H309 C319 0.930 . S
C310 H304 0.930 . S
C310 C311 1.355 . S
C310 C312 1.415 . S
C311 C310 1.355 . S
C311 C313 1.419 . S
C312 C310 1.415 . S
C312 C317 1.425 . S
C312 C319 1.409 . S
C313 H305 0.930 . S
C313 C311 1.419 . S
C313 C314 1.362 . S
C314 H306 0.930 . S
C314 C313 1.362 . S
C314 C317 1.409 . S
C315 H307 0.930 . S
C315 C316 1.355 . S
C315 C317 1.415 . S
C316 C315 1.355 . S
C316 C318 1.419 . S
C317 C312 1.425 . S
C317 C314 1.409 . S
C317 C315 1.415 . S
C318 H308 0.930 . S
C318 C316 1.419 . S
C318 C319 1.362 . S
C319 H309 0.930 . S
C319 C312 1.409 . S
C319 C318 1.362 . S
H320 C326 0.930 . S
H321 C329 0.930 . S
H322 C330 0.930 . S
H323 C331 0.930 . S
H324 C334 0.930 . S
H325 C335 0.930 . S
C326 H320 0.930 . S
C326 C327 1.355 . S
C326 C328 1.415 . S
C327 C326 1.355 . S
C327 C329 1.419 . S
C328 C326 1.415 . S
C328 C333 1.425 . S
C328 C335 1.409 . S
C329 H321 0.930 . S
C329 C327 1.419 . S
C329 C330 1.362 . S
C330 H322 0.930 . S
C330 C329 1.362 . S
C330 C333 1.409 . S
C331 H323 0.930 . S
C331 C332 1.355 . S
C331 C333 1.415 . S
C332 C331 1.355 . S
C332 C334 1.419 . S
C333 C328 1.425 . S
C333 C330 1.409 . S
C333 C331 1.415 . S
C334 H324 0.930 . S
C334 C332 1.419 . S
C334 C335 1.362 . S
C335 H325 0.930 . S
C335 C328 1.409 . S
C335 C334 1.362 . S
H336 C342 0.930 . S
H337 C345 0.930 . S
H338 C346 0.930 . S
H339 C347 0.930 . S
H340 C350 0.930 . S
H341 C351 0.930 . S
C342 H336 0.930 . S
C342 C343 1.355 . S
C342 C344 1.415 . S
C343 C342 1.355 . S
C343 C345 1.419 . S
C344 C342 1.415 . S
C344 C349 1.425 . S
C344 C351 1.409 . S
C345 H337 0.930 . S
C345 C343 1.419 . S
C345 C346 1.362 . S
C346 H338 0.930 . S
C346 C345 1.362 . S
C346 C349 1.409 . S
C347 H339 0.930 . S
C347 C348 1.355 . S
C347 C349 1.415 . S
C348 C347 1.355 . S
C348 C350 1.419 . S
C349 C344 1.425 . S
C349 C346 1.409 . S
C349 C347 1.415 . S
C350 H340 0.930 . S
C350 C348 1.419 . S
C350 C351 1.362 . S
C351 H341 0.930 . S
C351 C344 1.409 . S
C351 C350 1.362 . S
H352 C358 0.930 . S
H353 C361 0.930 . S
H354 C362 0.930 . S
H355 C363 0.930 . S
H356 C366 0.930 . S
H357 C367 0.930 . S
C358 H352 0.930 . S
C358 C359 1.355 . S
C358 C360 1.415 . S
C359 C358 1.355 . S
C359 C361 1.419 . S
C360 C358 1.415 . S
C360 C365 1.425 . S
C360 C367 1.409 . S
C361 H353 0.930 . S
C361 C359 1.419 . S
C361 C362 1.362 . S
C362 H354 0.930 . S
C362 C361 1.362 . S
C362 C365 1.409 . S
C363 H355 0.930 . S
C363 C364 1.355 . S
C363 C365 1.415 . S
C364 C363 1.355 . S
C364 C366 1.419 . S
C365 C360 1.425 . S
C365 C362 1.409 . S
C365 C363 1.415 . S
C366 H356 0.930 . S
C366 C364 1.419 . S
C366 C367 1.362 . S
C367 H357 0.930 . S
C367 C360 1.409 . S
C367 C366 1.362 . S
H368 C374 0.930 . S
H369 C377 0.930 . S
H370 C378 0.930 . S
H371 C379 0.930 . S
H372 C382 0.930 . S
H373 C383 0.930 . S
C374 H368 0.930 . S
C374 C375 1.355 . S
C374 C376 1.415 . S
C375 C374 1.355 . S
C375 C377 1.419 . S
C376 C374 1.415 . S
C376 C381 1.425 . S
C376 C383 1.409 . S
C377 H369 0.930 . S
C377 C375 1.419 . S
C377 C378 1.362 . S
C378 H370 0.930 . S
C378 C377 1.362 . S
C378 C381 1.409 . S
C379 H371 0.930 . S
C379 C380 1.355 . S
C379 C381 1.415 . S
C380 C379 1.355 . S
C380 C382 1.419 . S
C381 C376 1.425 . S
C381 C378 1.409 . S
C381 C379 1.415 . S
C382 H372 0.930 . S
C382 C380 1.419 . S
C382 C383 1.362 . S
C383 H373 0.930 . S
C383 C376 1.409 . S
C383 C382 1.362 . S
H384 C390 0.930 . S
H385 C393 0.930 . S
H386 C394 0.930 . S
H387 C395 0.930 . S
H388 C398 0.930 . S
H389 C399 0.930 . S
C390 H384 0.930 . S
C390 C391 1.355 . S
C390 C392 1.415 . S
C391 C390 1.355 . S
C391 C393 1.419 . S
C392 C390 1.415 . S
C392 C397 1.425 . S
C392 C399 1.409 . S
C393 H385 0.930 . S
C393 C391 1.419 . S
C393 C394 1.362 . S
C394 H386 0.930 . S
C394 C393 1.362 . S
C394 C397 1.409 . S
C395 H387 0.930 . S
C395 C396 1.355 . S
C395 C397 1.415 . S
C396 C395 1.355 . S
C396 C398 1.419 . S
C397 C392 1.425 . S
C397 C394 1.409 . S
C397 C395 1.415 . S
C398 H388 0.930 . S
C398 C396 1.419 . S
C398 C399 1.362 . S
C399 H389 0.930 . S
C399 C392 1.409 . S
C399 C398 1.362 . S
H400 C406 0.930 . S
H401 C409 0.930 . S
H402 C410 0.930 1_556 S
H403 C411 0.930 . S
H404 C414 0.930 . S
H405 C415 0.930 1_554 S
C406 H400 0.930 . S
C406 C407 1.355 . S
C406 C408 1.415 . S
C407 C406 1.355 . S
C407 C409 1.419 . S
C408 C406 1.415 . S
C408 C413 1.425 1_554 S
C408 C415 1.409 1_554 S
C409 H401 0.930 . S
C409 C407 1.419 . S
C409 C410 1.362 . S
C410 H402 0.930 1_554 S
C410 C409 1.362 . S
C410 C413 1.409 1_554 S
C411 H403 0.930 . S
C411 C412 1.355 . S
C411 C413 1.415 . S
C412 C411 1.355 . S
C412 C414 1.419 . S
C413 C408 1.425 1_556 S
C413 C410 1.409 1_556 S
C413 C411 1.415 . S
C414 H404 0.930 . S
C414 C412 1.419 . S
C414 C415 1.362 . S
C415 H405 0.930 1_556 S
C415 C408 1.409 1_556 S
C415 C414 1.362 . S
H416 C422 0.930 . S
H417 C425 0.930 . S
H418 C426 0.930 . S
H419 C427 0.930 . S
H420 C430 0.930 . S
H421 C431 0.930 . S
C422 H416 0.930 . S
C422 C423 1.355 . S
C422 C424 1.420 . S
C423 C422 1.355 . S
C423 C425 1.419 . S
C424 C422 1.420 . S
C424 C429 1.425 1_554 S
C424 C431 1.404 1_554 S
C425 H417 0.930 . S
C425 C423 1.419 . S
C425 C426 1.362 . S
C426 H418 0.930 . S
C426 C425 1.362 . S
C426 C429 1.404 1_554 S
C427 H419 0.930 . S
C427 C428 1.355 . S
C427 C429 1.420 . S
C428 C427 1.355 . S
C428 C430 1.419 . S
C429 C424 1.425 1_556 S
C429 C426 1.404 1_556 S
C429 C427 1.420 . S
C430 H420 0.930 . S
C430 C428 1.419 . S
C430 C431 1.362 . S
C431 H421 0.930 . S
C431 C424 1.404 1_556 S
C431 C430 1.362 . S
H432 C438 0.930 . S
H433 C441 0.930 . S
H434 C442 0.930 . S
H435 C443 0.930 . S
H436 C446 0.930 . S
H437 C447 0.930 . S
C438 H432 0.930 . S
C438 C439 1.355 . S
C438 C440 1.415 . S
C439 C438 1.355 . S
C439 C441 1.419 . S
C440 C438 1.415 . S
C440 C445 1.425 . S
C440 C447 1.409 . S
C441 H433 0.930 . S
C441 C439 1.419 . S
C441 C442 1.362 . S
C442 H434 0.930 . S
C442 C441 1.362 . S
C442 C445 1.409 . S
C443 H435 0.930 . S
C443 C444 1.355 . S
C443 C445 1.415 . S
C444 C443 1.355 . S
C444 C446 1.419 . S
C445 C440 1.425 . S
C445 C442 1.409 . S
C445 C443 1.415 . S
C446 H436 0.930 . S
C446 C444 1.419 . S
C446 C447 1.362 . S
C447 H437 0.930 . S
C447 C440 1.409 . S
C447 C446 1.362 . S
H448 C454 0.930 . S
H449 C457 0.930 . S
H450 C458 0.930 . S
H451 C459 0.930 . S
H452 C462 0.930 . S
H453 C463 0.930 . S
C454 H448 0.930 . S
C454 C455 1.355 . S
C454 C456 1.415 . S
C455 C454 1.355 . S
C455 C457 1.419 . S
C456 C454 1.415 . S
C456 C461 1.425 . S
C456 C463 1.409 . S
C457 H449 0.930 . S
C457 C455 1.419 . S
C457 C458 1.362 . S
C458 H450 0.930 . S
C458 C457 1.362 . S
C458 C461 1.409 . S
C459 H451 0.930 . S
C459 C460 1.355 . S
C459 C461 1.415 . S
C460 C459 1.355 . S
C460 C462 1.419 . S
C461 C456 1.425 . S
C461 C458 1.409 . S
C461 C459 1.415 . S
C462 H452 0.930 . S
C462 C460 1.419 . S
C462 C463 1.362 . S
C463 H453 0.930 . S
C463 C456 1.409 . S
C463 C462 1.362 . S
H464 C470 0.930 . S
H465 C473 0.930 . S
H466 C474 0.930 . S
H467 C475 0.930 . S
H468 C478 0.930 . S
H469 C479 0.930 . S
C470 H464 0.930 . S
C470 C471 1.355 . S
C470 C472 1.415 . S
C471 C470 1.355 . S
C471 C473 1.419 . S
C472 C470 1.415 . S
C472 C477 1.425 . S
C472 C479 1.409 . S
C473 H465 0.930 . S
C473 C471 1.419 . S
C473 C474 1.362 . S
C474 H466 0.930 . S
C474 C473 1.362 . S
C474 C477 1.409 . S
C475 H467 0.930 . S
C475 C476 1.355 . S
C475 C477 1.415 . S
C476 C475 1.355 . S
C476 C478 1.419 . S
C477 C472 1.425 . S
C477 C474 1.409 . S
C477 C475 1.415 . S
C478 H468 0.930 . S
C478 C476 1.419 . S
C478 C479 1.362 . S
C479 H469 0.930 . S
C479 C472 1.409 . S
C479 C478 1.362 . S
H480 C486 0.930 . S
H481 C489 0.930 . S
H482 C490 0.930 . S
H483 C491 0.930 . S
H484 C494 0.930 . S
H485 C495 0.930 . S
C486 H480 0.930 . S
C486 C487 1.355 . S
C486 C488 1.415 1_455 S
C487 C486 1.355 . S
C487 C489 1.419 1_545 S
C488 C486 1.415 1_655 S
C488 C493 1.425 1_645 S
C488 C495 1.409 . S
C489 H481 0.930 . S
C489 C487 1.419 1_565 S
C489 C490 1.362 . S
C490 H482 0.930 . S
C490 C489 1.362 . S
C490 C493 1.409 . S
C491 H483 0.930 . S
C491 C492 1.355 . S
C491 C493 1.415 1_655 S
C492 C491 1.355 . S
C492 C494 1.419 1_565 S
C493 C488 1.425 1_465 S
C493 C490 1.409 . S
C493 C491 1.415 1_455 S
C494 H484 0.930 . S
C494 C492 1.419 1_545 S
C494 C495 1.362 . S
C495 H485 0.930 . S
C495 C488 1.409 . S
C495 C494 1.362 . S
H496 C502 0.930 . S
H497 C505 0.930 . S
H498 C506 0.930 . S
H499 C507 0.930 . S
H500 C510 0.930 . S
H501 C511 0.930 . S
C502 H496 0.930 . S
C502 C503 1.355 . S
C502 C504 1.415 1_455 S
C503 C502 1.355 . S
C503 C505 1.419 . S
C504 C502 1.415 1_655 S
C504 C509 1.425 1_655 S
C504 C511 1.409 . S
C505 H497 0.930 . S
C505 C503 1.419 . S
C505 C506 1.362 . S
C506 H498 0.930 . S
C506 C505 1.362 . S
C506 C509 1.409 . S
C507 H499 0.930 . S
C507 C508 1.355 . S
C507 C509 1.415 1_655 S
C508 C507 1.355 . S
C508 C510 1.419 . S
C509 C504 1.425 1_455 S
C509 C506 1.409 . S
C509 C507 1.415 1_455 S
C510 H500 0.930 . S
C510 C508 1.419 . S
C510 C511 1.362 . S
C511 H501 0.930 . S
C511 C504 1.409 . S
C511 C510 1.362 . S
H512 C518 0.930 . S
H513 C521 0.930 . S
H514 C522 0.930 . S
H515 C523 0.930 . S
H516 C526 0.930 . S
H517 C527 0.930 . S
C518 H512 0.930 . S
C518 C519 1.355 . S
C518 C520 1.415 . S
C519 C518 1.355 . S
C519 C521 1.419 . S
C520 C518 1.415 . S
C520 C525 1.425 . S
C520 C527 1.409 . S
C521 H513 0.930 . S
C521 C519 1.419 . S
C521 C522 1.362 . S
C522 H514 0.930 . S
C522 C521 1.362 . S
C522 C525 1.409 . S
C523 H515 0.930 . S
C523 C524 1.355 . S
C523 C525 1.415 . S
C524 C523 1.355 . S
C524 C526 1.419 . S
C525 C520 1.425 . S
C525 C522 1.409 . S
C525 C523 1.415 . S
C526 H516 0.930 . S
C526 C524 1.419 . S
C526 C527 1.362 . S
C527 H517 0.930 . S
C527 C520 1.409 . S
C527 C526 1.362 . S
H528 C534 0.930 . S
H529 C537 0.930 . S
H530 C538 0.930 . S
H531 C539 0.930 . S
H532 C542 0.930 . S
H533 C543 0.930 . S
C534 H528 0.930 . S
C534 C535 1.355 . S
C534 C536 1.415 . S
C535 C534 1.355 . S
C535 C537 1.419 . S
C536 C534 1.415 . S
C536 C541 1.425 1_545 S
C536 C543 1.409 . S
C537 H529 0.930 . S
C537 C535 1.419 . S
C537 C538 1.362 1_545 S
C538 H530 0.930 . S
C538 C537 1.362 1_565 S
C538 C541 1.409 . S
C539 H531 0.930 . S
C539 C540 1.355 . S
C539 C541 1.415 . S
C540 C539 1.355 . S
C540 C542 1.419 . S
C541 C536 1.425 1_565 S
C541 C538 1.409 . S
C541 C539 1.415 . S
C542 H532 0.930 . S
C542 C540 1.419 . S
C542 C543 1.362 1_565 S
C543 H533 0.930 . S
C543 C536 1.409 . S
C543 C542 1.362 1_545 S
H544 C550 0.930 . S
H545 C553 0.930 . S
H546 C554 0.930 . S
H547 C555 0.930 . S
H548 C558 0.930 . S
H549 C559 0.930 . S
C550 H544 0.930 . S
C550 C551 1.355 . S
C550 C552 1.415 . S
C551 C550 1.355 . S
C551 C553 1.419 . S
C552 C550 1.415 . S
C552 C557 1.425 1_455 S
C552 C559 1.409 . S
C553 H545 0.930 . S
C553 C551 1.419 . S
C553 C554 1.362 1_455 S
C554 H546 0.930 . S
C554 C553 1.362 1_655 S
C554 C557 1.409 . S
C555 H547 0.930 . S
C555 C556 1.355 . S
C555 C557 1.415 . S
C556 C555 1.355 . S
C556 C558 1.419 . S
C557 C552 1.425 1_655 S
C557 C554 1.409 . S
C557 C555 1.415 . S
C558 H548 0.930 . S
C558 C556 1.419 . S
C558 C559 1.362 1_655 S
C559 H549 0.930 . S
C559 C552 1.409 . S
C559 C558 1.362 1_455 S
H560 C566 0.930 . S
H561 C569 0.930 . S
H562 C570 0.930 . S
H563 C571 0.930 . S
H564 C574 0.930 . S
H565 C575 0.930 . S
C566 H560 0.930 . S
C566 C567 1.355 . S
C566 C568 1.415 . S
C567 C566 1.355 . S
C567 C569 1.419 . S
C568 C566 1.415 . S
C568 C573 1.425 . S
C568 C575 1.409 . S
C569 H561 0.930 . S
C569 C567 1.419 . S
C569 C570 1.362 . S
C570 H562 0.930 . S
C570 C569 1.362 . S
C570 C573 1.409 . S
C571 H563 0.930 . S
C571 C572 1.355 . S
C571 C573 1.415 . S
C572 C571 1.355 . S
C572 C574 1.419 . S
C573 C568 1.425 . S
C573 C570 1.409 . S
C573 C571 1.415 . S
C574 H564 0.930 . S
C574 C572 1.419 . S
C574 C575 1.362 . S
C575 H565 0.930 . S
C575 C568 1.409 . S
C575 C574 1.362 . S
H576 C582 0.930 1_545 S
H577 C585 0.930 . S
H578 C586 0.930 . S
H579 C587 0.930 1_565 S
H580 C590 0.930 . S
H581 C591 0.930 . S
C582 H576 0.930 1_565 S
C582 C583 1.353 . S
C582 C584 1.415 1_565 S
C583 C582 1.353 . S
C583 C585 1.419 . S
C584 C582 1.415 1_545 S
C584 C589 1.425 1_545 S
C584 C591 1.409 . S
C585 H577 0.930 . S
C585 C583 1.419 . S
C585 C586 1.362 . S
C586 H578 0.930 . S
C586 C585 1.362 . S
C586 C589 1.409 . S
C587 H579 0.930 1_545 S
C587 C588 1.355 . S
C587 C589 1.415 1_545 S
C588 C587 1.355 . S
C588 C590 1.419 . S
C589 C584 1.425 1_565 S
C589 C586 1.409 . S
C589 C587 1.415 1_565 S
C590 H580 0.930 . S
C590 C588 1.419 . S
C590 C591 1.362 . S
C591 H581 0.930 . S
C591 C584 1.409 . S
C591 C590 1.362 . S
H592 C598 0.930 1_655 S
H593 C601 0.930 . S
H594 C602 0.930 . S
H595 C603 0.930 1_455 S
H596 C606 0.930 . S
H597 C607 0.930 . S
C598 H592 0.930 1_455 S
C598 C599 1.355 . S
C598 C600 1.415 1_455 S
C599 C598 1.355 . S
C599 C601 1.419 . S
C600 C598 1.415 1_655 S
C600 C605 1.425 1_645 S
C600 C607 1.409 . S
C601 H593 0.930 . S
C601 C599 1.419 . S
C601 C602 1.362 1_545 S
C602 H594 0.930 . S
C602 C601 1.362 1_565 S
C602 C605 1.409 . S
C603 H595 0.930 1_655 S
C603 C604 1.355 . S
C603 C605 1.415 1_655 S
C604 C603 1.355 . S
C604 C606 1.419 . S
C605 C600 1.425 1_465 S
C605 C602 1.409 . S
C605 C603 1.415 1_455 S
C606 H596 0.930 . S
C606 C604 1.419 . S
C606 C607 1.362 1_565 S
C607 H597 0.930 . S
C607 C600 1.409 . S
C607 C606 1.362 1_545 S
H608 C614 0.930 . S
H609 C617 0.930 . S
H610 C618 0.930 . S
H611 C619 0.930 . S
H612 C622 0.930 . S
H613 C623 0.930 . S
C614 H608 0.930 . S
C614 C615 1.355 . S
C614 C616 1.415 . S
C615 C614 1.355 . S
C615 C617 1.419 1_565 S
C616 C614 1.415 . S
C616 C621 1.425 1_565 S
C616 C623 1.409 . S
C617 H609 0.930 . S
C617 C615 1.419 1_545 S
C617 C618 1.362 . S
C618 H610 0.930 . S
C618 C617 1.362 . S
C618 C621 1.409 . S
C619 H611 0.930 . S
C619 C620 1.355 . S
C619 C621 1.415 . S
C620 C619 1.355 . S
C620 C622 1.419 1_545 S
C621 C616 1.425 1_545 S
C621 C618 1.409 . S
C621 C619 1.415 . S
C622 H612 0.930 . S
C622 C620 1.419 1_565 S
C622 C623 1.362 . S
C623 H613 0.930 . S
C623 C616 1.409 . S
C623 C622 1.362 . S
H624 C630 0.923 1_455 S
H625 C633 0.930 . S
H626 C634 0.930 1_545 S
H627 C635 0.923 1_655 S
H628 C638 0.930 . S
H629 C639 0.930 1_565 S
C630 H624 0.923 1_655 S
C630 C631 1.355 . S
C630 C632 1.415 1_655 S
C631 C630 1.355 . S
C631 C633 1.419 . S
C632 C630 1.415 1_455 S
C632 C637 1.425 1_465 S
C632 C639 1.409 1_565 S
C633 H625 0.930 . S
C633 C631 1.419 . S
C633 C634 1.362 . S
C634 H626 0.930 1_565 S
C634 C633 1.362 . S
C634 C637 1.409 1_565 S
C635 H627 0.923 1_455 S
C635 C636 1.355 . S
C635 C637 1.415 1_455 S
C636 C635 1.355 . S
C636 C638 1.419 . S
C637 C632 1.425 1_645 S
C637 C634 1.409 1_545 S
C637 C635 1.415 1_655 S
C638 H628 0.930 . S
C638 C636 1.419 . S
C638 C639 1.362 . S
C639 H629 0.930 1_545 S
C639 C632 1.409 1_545 S
C639 C638 1.362 . S
H640 C646 0.930 . S
H641 C649 0.930 . S
H642 C650 0.930 . S
H643 C651 0.930 . S
H644 C654 0.930 . S
H645 C655 0.930 . S
C646 H640 0.930 . S
C646 C647 1.355 . S
C646 C648 1.415 1_455 S
C647 C646 1.355 . S
C647 C649 1.419 . S
C648 C646 1.415 1_655 S
C648 C653 1.425 1_655 S
C648 C655 1.409 . S
C649 H641 0.930 . S
C649 C647 1.419 . S
C649 C650 1.362 . S
C650 H642 0.930 . S
C650 C649 1.362 . S
C650 C653 1.409 . S
C651 H643 0.930 . S
C651 C652 1.355 . S
C651 C653 1.415 1_655 S
C652 C651 1.355 . S
C652 C654 1.419 . S
C653 C648 1.425 1_455 S
C653 C650 1.409 . S
C653 C651 1.415 1_455 S
C654 H644 0.930 . S
C654 C652 1.419 . S
C654 C655 1.362 . S
C655 H645 0.930 . S
C655 C648 1.409 . S
C655 C654 1.362 . S
H656 C662 0.930 . S
H657 C665 0.930 . S
H658 C666 0.930 . S
H659 C667 0.930 . S
H660 C670 0.930 . S
H661 C671 0.930 . S
C662 H656 0.930 . S
C662 C663 1.355 . S
C662 C664 1.415 . S
C663 C662 1.355 . S
C663 C665 1.419 . S
C664 C662 1.415 . S
C664 C669 1.425 . S
C664 C671 1.409 . S
C665 H657 0.930 . S
C665 C663 1.419 . S
C665 C666 1.362 . S
C666 H658 0.930 . S
C666 C665 1.362 . S
C666 C669 1.409 . S
C667 H659 0.930 . S
C667 C668 1.355 . S
C667 C669 1.415 . S
C668 C667 1.355 . S
C668 C670 1.419 . S
C669 C664 1.425 . S
C669 C666 1.409 . S
C669 C667 1.415 . S
C670 H660 0.930 . S
C670 C668 1.419 . S
C670 C671 1.362 . S
C671 H661 0.930 . S
C671 C664 1.409 . S
C671 C670 1.362 . S
H672 C678 0.930 . S
H673 C681 0.930 . S
H674 C682 0.930 . S
H675 C683 0.930 . S
H676 C686 0.930 . S
H677 C687 0.930 . S
C678 H672 0.930 . S
C678 C679 1.355 . S
C678 C680 1.415 . S
C679 C678 1.355 . S
C679 C681 1.419 . S
C680 C678 1.415 . S
C680 C685 1.425 . S
C680 C687 1.409 . S
C681 H673 0.930 . S
C681 C679 1.419 . S
C681 C682 1.362 . S
C682 H674 0.930 . S
C682 C681 1.362 . S
C682 C685 1.409 . S
C683 H675 0.930 . S
C683 C684 1.355 . S
C683 C685 1.415 . S
C684 C683 1.355 . S
C684 C686 1.419 . S
C685 C680 1.425 . S
C685 C682 1.409 . S
C685 C683 1.415 . S
C686 H676 0.930 . S
C686 C684 1.419 . S
C686 C687 1.362 . S
C687 H677 0.930 . S
C687 C680 1.409 . S
C687 C686 1.362 . S
H688 C694 0.930 . S
H689 C697 0.930 . S
H690 C698 0.930 . S
H691 C699 0.930 . S
H692 C702 0.930 . S
H693 C703 0.930 . S
C694 H688 0.930 . S
C694 C695 1.355 . S
C694 C696 1.415 . S
C695 C694 1.355 . S
C695 C697 1.419 . S
C696 C694 1.415 . S
C696 C701 1.425 1_545 S
C696 C703 1.409 . S
C697 H689 0.930 . S
C697 C695 1.419 . S
C697 C698 1.362 1_545 S
C698 H690 0.930 . S
C698 C697 1.362 1_565 S
C698 C701 1.409 . S
C699 H691 0.930 . S
C699 C700 1.355 . S
C699 C701 1.415 . S
C700 C699 1.355 . S
C700 C702 1.419 . S
C701 C696 1.425 1_565 S
C701 C698 1.409 . S
C701 C699 1.415 . S
C702 H692 0.930 . S
C702 C700 1.419 . S
C702 C703 1.362 1_565 S
C703 H693 0.930 . S
C703 C696 1.409 . S
C703 C702 1.362 1_545 S
H704 C710 0.930 . S
H705 C713 0.930 . S
H706 C714 0.930 . S
H707 C715 0.930 . S
H708 C718 0.930 . S
H709 C719 0.930 . S
C710 H704 0.930 . S
C710 C711 1.355 . S
C710 C712 1.415 1_655 S
C711 C710 1.355 . S
C711 C713 1.419 1_565 S
C712 C710 1.415 1_455 S
C712 C717 1.425 1_465 S
C712 C719 1.409 . S
C713 H705 0.930 . S
C713 C711 1.419 1_545 S
C713 C714 1.362 . S
C714 H706 0.930 . S
C714 C713 1.362 . S
C714 C717 1.409 . S
C715 H707 0.930 . S
C715 C716 1.355 . S
C715 C717 1.415 1_455 S
C716 C715 1.355 . S
C716 C718 1.419 1_545 S
C717 C712 1.425 1_645 S
C717 C714 1.409 . S
C717 C715 1.415 1_655 S
C718 H708 0.930 . S
C718 C716 1.419 1_565 S
C718 C719 1.362 . S
C719 H709 0.930 . S
C719 C712 1.409 . S
C719 C718 1.362 . S
H720 C726 0.930 . S
H721 C729 0.930 . S
H722 C730 0.930 . S
H723 C731 0.930 . S
H724 C734 0.930 . S
H725 C735 0.930 . S
C726 H720 0.930 . S
C726 C727 1.355 . S
C726 C728 1.415 1_655 S
C727 C726 1.355 . S
C727 C729 1.419 . S
C728 C726 1.415 1_455 S
C728 C733 1.425 1_455 S
C728 C735 1.409 . S
C729 H721 0.930 . S
C729 C727 1.419 . S
C729 C730 1.362 . S
C730 H722 0.930 . S
C730 C729 1.362 . S
C730 C733 1.409 . S
C731 H723 0.930 . S
C731 C732 1.355 . S
C731 C733 1.415 1_455 S
C732 C731 1.355 . S
C732 C734 1.419 . S
C733 C728 1.425 1_655 S
C733 C730 1.409 . S
C733 C731 1.415 1_655 S
C734 H724 0.930 . S
C734 C732 1.419 . S
C734 C735 1.362 . S
C735 H725 0.930 . S
C735 C728 1.409 . S
C735 C734 1.362 . S
C231 C65 1.375 . S
C236 C9 1.365 . S
C247 C23 1.365 . S
C252 C79 1.375 . S
C263 C93 1.363 . S
C268 C37 1.350 . S
C279 C107 1.372 . S
C284 C51 1.377 . S
C295 C177 1.366 . S
C300 C121 1.375 . S
C311 C135 1.345 . S
C316 C191 1.355 . S
C327 C205 1.374 . S
C332 C149 1.377 . S
C343 C163 1.352 . S
C348 C219 1.343 . S
C359 C0 1.399 . S
C364 C210 1.428 . S
C375 C14 1.397 . S
C380 C168 1.426 . S
C391 C28 1.425 . S
C396 C182 1.423 . S
C407 C196 1.409 . S
C412 C42 1.431 . S
C423 C56 1.406 . S
C428 C126 1.394 . S
C439 C70 1.402 . S
C444 C140 1.397 . S
C455 C154 1.416 . S
C460 C84 1.392 . S
C471 C112 1.392 . S
C476 C98 1.414 . S
C487 C11 1.567 . S
C492 C151 1.561 . S
C503 C165 1.585 . S
C508 C25 1.579 . S
C519 C39 1.578 . S
C524 C123 1.585 . S
C535 C137 1.587 . S
C540 C53 1.587 . S
C551 C67 1.586 . S
C556 C207 1.588 . S
C567 C81 1.586 . S
C572 C221 1.580 . S
C583 C179 1.584 . S
C588 C95 1.588 . S
C599 C193 1.588 . S
C604 C109 1.586 . S
C615 C145 1.416 . S
C620 C5 1.413 . S
C631 C19 1.417 . S
C636 C159 1.409 . S
C647 C33 1.418 . S
C652 C117 1.411 . S
C663 C131 1.421 . S
C668 C47 1.406 . S
C679 C201 1.420 . S
C684 C61 1.408 . S
C695 C215 1.414 . S
C700 C75 1.411 . S
C711 C173 1.417 . S
C716 C89 1.412 . S
C727 C103 1.417 . S
C732 C187 1.409 . S
