# Generated by pormake.
# Topology yfl, (5)-cn, num edge types: 1
# Building blocks:
#     Node 0, Type 0, BuildingBlock: BEQFEK_clean_sbu_0, # of connection points: 5
#     Node 1, Type 0, BuildingBlock: BEQFEK_clean_sbu_0, # of connection points: 5
#     Node 2, Type 0, BuildingBlock: BEQFEK_clean_sbu_0, # of connection points: 5
#     Node 3, Type 0, BuildingBlock: BEQFEK_clean_sbu_0, # of connection points: 5
#     Node 4, Type 0, BuildingBlock: BEQFEK_clean_sbu_0, # of connection points: 5
#     Node 5, Type 0, BuildingBlock: BEQFEK_clean_sbu_0, # of connection points: 5
#     Node 6, Type 0, BuildingBlock: BEQFEK_clean_sbu_0, # of connection points: 5
#     Node 7, Type 0, BuildingBlock: BEQFEK_clean_sbu_0, # of connection points: 5
#     Node 8, Type 0, BuildingBlock: BEQFEK_clean_sbu_0, # of connection points: 5
#     Node 9, Type 0, BuildingBlock: BEQFEK_clean_sbu_0, # of connection points: 5
#     Node 10, Type 0, BuildingBlock: BEQFEK_clean_sbu_0, # of connection points: 5
#     Node 11, Type 0, BuildingBlock: BEQFEK_clean_sbu_0, # of connection points: 5
#     Node 12, Type 0, BuildingBlock: BEQFEK_clean_sbu_0, # of connection points: 5
#     Node 13, Type 0, BuildingBlock: BEQFEK_clean_sbu_0, # of connection points: 5
#     Node 14, Type 0, BuildingBlock: BEQFEK_clean_sbu_0, # of connection points: 5
#     Node 15, Type 0, BuildingBlock: BEQFEK_clean_sbu_0, # of connection points: 5
#     Edge 16, Type (0, 0), BuildingBlock: KIFKEQ_clean_linker_1, # of connection points: 2
#     Edge 17, Type (0, 0), BuildingBlock: KIFKEQ_clean_linker_1, # of connection points: 2
#     Edge 18, Type (0, 0), BuildingBlock: KIFKEQ_clean_linker_1, # of connection points: 2
#     Edge 19, Type (0, 0), BuildingBlock: KIFKEQ_clean_linker_1, # of connection points: 2
#     Edge 20, Type (0, 0), BuildingBlock: KIFKEQ_clean_linker_1, # of connection points: 2
#     Edge 21, Type (0, 0), BuildingBlock: KIFKEQ_clean_linker_1, # of connection points: 2
#     Edge 22, Type (0, 0), BuildingBlock: KIFKEQ_clean_linker_1, # of connection points: 2
#     Edge 23, Type (0, 0), BuildingBlock: KIFKEQ_clean_linker_1, # of connection points: 2
#     Edge 24, Type (0, 0), BuildingBlock: KIFKEQ_clean_linker_1, # of connection points: 2
#     Edge 25, Type (0, 0), BuildingBlock: KIFKEQ_clean_linker_1, # of connection points: 2
#     Edge 26, Type (0, 0), BuildingBlock: KIFKEQ_clean_linker_1, # of connection points: 2
#     Edge 27, Type (0, 0), BuildingBlock: KIFKEQ_clean_linker_1, # of connection points: 2
#     Edge 28, Type (0, 0), BuildingBlock: KIFKEQ_clean_linker_1, # of connection points: 2
#     Edge 29, Type (0, 0), BuildingBlock: KIFKEQ_clean_linker_1, # of connection points: 2
#     Edge 30, Type (0, 0), BuildingBlock: KIFKEQ_clean_linker_1, # of connection points: 2
#     Edge 31, Type (0, 0), BuildingBlock: KIFKEQ_clean_linker_1, # of connection points: 2
#     Edge 32, Type (0, 0), BuildingBlock: KIFKEQ_clean_linker_1, # of connection points: 2
#     Edge 33, Type (0, 0), BuildingBlock: KIFKEQ_clean_linker_1, # of connection points: 2
#     Edge 34, Type (0, 0), BuildingBlock: KIFKEQ_clean_linker_1, # of connection points: 2
#     Edge 35, Type (0, 0), BuildingBlock: KIFKEQ_clean_linker_1, # of connection points: 2
#     Edge 36, Type (0, 0), BuildingBlock: KIFKEQ_clean_linker_1, # of connection points: 2
#     Edge 37, Type (0, 0), BuildingBlock: KIFKEQ_clean_linker_1, # of connection points: 2
#     Edge 38, Type (0, 0), BuildingBlock: KIFKEQ_clean_linker_1, # of connection points: 2
#     Edge 39, Type (0, 0), BuildingBlock: KIFKEQ_clean_linker_1, # of connection points: 2
#     Edge 40, Type (0, 0), BuildingBlock: KIFKEQ_clean_linker_1, # of connection points: 2
#     Edge 41, Type (0, 0), BuildingBlock: KIFKEQ_clean_linker_1, # of connection points: 2
#     Edge 42, Type (0, 0), BuildingBlock: KIFKEQ_clean_linker_1, # of connection points: 2
#     Edge 43, Type (0, 0), BuildingBlock: KIFKEQ_clean_linker_1, # of connection points: 2
#     Edge 44, Type (0, 0), BuildingBlock: KIFKEQ_clean_linker_1, # of connection points: 2
#     Edge 45, Type (0, 0), BuildingBlock: KIFKEQ_clean_linker_1, # of connection points: 2
#     Edge 46, Type (0, 0), BuildingBlock: KIFKEQ_clean_linker_1, # of connection points: 2
#     Edge 47, Type (0, 0), BuildingBlock: KIFKEQ_clean_linker_1, # of connection points: 2
#     Edge 48, Type (0, 0), BuildingBlock: KIFKEQ_clean_linker_1, # of connection points: 2
#     Edge 49, Type (0, 0), BuildingBlock: KIFKEQ_clean_linker_1, # of connection points: 2
#     Edge 50, Type (0, 0), BuildingBlock: KIFKEQ_clean_linker_1, # of connection points: 2
#     Edge 51, Type (0, 0), BuildingBlock: KIFKEQ_clean_linker_1, # of connection points: 2
#     Edge 52, Type (0, 0), BuildingBlock: KIFKEQ_clean_linker_1, # of connection points: 2
#     Edge 53, Type (0, 0), BuildingBlock: KIFKEQ_clean_linker_1, # of connection points: 2
#     Edge 54, Type (0, 0), BuildingBlock: KIFKEQ_clean_linker_1, # of connection points: 2
#     Edge 55, Type (0, 0), BuildingBlock: KIFKEQ_clean_linker_1, # of connection points: 2
# Relax obj value: 0.265
# Max RMSD: 0.177
# Mean RMSD: 0.177
data_MOF--net-yfl--node1-BEQFEK_clean_sbu_0--edge1-KIFKEQ_clean_linker_1
_symmetry_space_group_name_H-M    P1
_symmetry_Int_Tables_number       1
_symmetry_cell_setting            triclinic
loop_
_symmetry_equiv_pos_as_xyz
'x, y, z'
_cell_length_a     30.704208
_cell_length_b     30.663096
_cell_length_c     115.70625
_cell_angle_alpha  89.924807
_cell_angle_beta   89.980411
_cell_angle_gamma 89.98326
loop_
_atom_site_label
_atom_site_type_symbol
_atom_site_fract_x
_atom_site_fract_y
_atom_site_fract_z
_atom_type_partial_charge
Co0 Co 0.00651 0.26918 0.29193 0.0
Co1 Co 0.09128 0.27245 0.30699 0.0
C2 C 0.02349 0.34369 0.30759 0.0
O3 O -0.00106 0.3239 0.30047 0.0
O4 O 0.0601 0.32782 0.31063 0.0
C5 C 0.91677 0.27417 0.28453 0.0
O6 O 0.91 0.29326 0.29453 0.0
C7 C 0.13943 0.27147 0.32892 0.0
C8 C 0.20589 0.2546 0.3231 0.0
C9 C 0.18142 0.2636 0.33287 0.0
N10 N 0.13908 0.26665 0.31737 0.0
N11 N 0.17892 0.2567 0.31395 0.0
C12 C 0.10063 0.28505 0.3359 0.0
H13 H 0.07614 0.30156 0.33043 0.0
H14 H 0.08499 0.2558 0.33971 0.0
H15 H 0.11063 0.30701 0.34304 0.0
C16 C -0.00322 0.18484 0.30371 0.0
N17 N 0.01748 0.22298 0.30216 0.0
N18 N 0.05369 0.22323 0.30825 0.0
C19 C 0.05761 0.18455 0.3137 0.0
C20 C 0.02141 0.15924 0.31112 0.0
C21 C 0.95735 0.17146 0.29698 0.0
H22 H 0.96433 0.17438 0.28761 0.0
H23 H 0.93014 0.19399 0.29902 0.0
H24 H 0.94724 0.13753 0.29893 0.0
O25 O 0.05487 0.27544 0.2808 0.0
O26 O 0.11559 0.27674 0.29114 0.0
H27 H 0.12672 0.17767 0.31552 0.0
H28 H 0.09558 0.1358 0.32287 0.0
C29 C 0.0967 0.17086 0.32054 0.0
H30 H 0.09803 0.18997 0.32864 0.0
H31 H 0.18769 0.25128 0.30535 0.0
O32 O 0.95446 0.25948 0.28222 0.0
C33 C 0.09616 0.27783 0.28143 0.0
Co34 Co 0.27545 0.98563 0.70287 0.0
Co35 Co 0.27526 0.89829 0.68877 0.0
C36 C 0.34913 0.96259 0.68728 0.0
O37 O 0.33026 0.98876 0.69416 0.0
O38 O 0.33192 0.92621 0.68459 0.0
C39 C 0.28936 0.07509 0.70893 0.0
O40 O 0.31415 0.07507 0.69968 0.0
C41 C 0.27013 0.84807 0.66732 0.0
C42 C 0.25345 0.78219 0.67368 0.0
C43 C 0.26117 0.80587 0.66368 0.0
N44 N 0.26713 0.84931 0.6789 0.0
N45 N 0.25727 0.80982 0.68266 0.0
C46 C 0.28307 0.88632 0.66001 0.0
H47 H 0.30014 0.91123 0.66522 0.0
H48 H 0.25352 0.90178 0.65633 0.0
H49 H 0.30425 0.87565 0.65277 0.0
C50 C 0.19077 0.99602 0.69146 0.0
N51 N 0.22862 0.97469 0.69288 0.0
N52 N 0.22727 0.93743 0.68726 0.0
C53 C 0.18772 0.9334 0.6823 0.0
C54 C 0.16356 0.97064 0.68468 0.0
C55 C 0.17906 0.03673 0.69788 0.0
H56 H 0.18059 0.03024 0.70731 0.0
H57 H 0.20327 0.0625 0.69587 0.0
H58 H 0.146 0.04858 0.69563 0.0
O59 O 0.28 0.93892 0.71467 0.0
O60 O 0.27931 0.87668 0.7049 0.0
H61 H 0.17948 0.86401 0.68177 0.0
H62 H 0.13628 0.89423 0.67472 0.0
C63 C 0.17181 0.893 0.6764 0.0
H64 H 0.1887 0.88948 0.66801 0.0
H65 H 0.25311 0.80174 0.69135 0.0
O66 O 0.26799 0.04095 0.71152 0.0
C67 C 0.28117 0.89739 0.71442 0.0
Co68 Co 0.97263 0.72606 0.29065 0.0
Co69 Co 0.88661 0.72828 0.30523 0.0
C70 C 0.95248 0.65514 0.30711 0.0
O71 O 0.97815 0.67301 0.2999 0.0
O72 O 0.91609 0.67252 0.30973 0.0
C73 C 0.06255 0.71735 0.28371 0.0
O74 O 0.06783 0.69863 0.29383 0.0
C75 C 0.84002 0.73628 0.32717 0.0
C76 C 0.77193 0.74504 0.32145 0.0
C77 C 0.79777 0.74175 0.33124 0.0
N78 N 0.83905 0.73666 0.31556 0.0
N79 N 0.7983 0.74206 0.31219 0.0
C80 C 0.8804 0.728 0.33409 0.0
H81 H 0.90641 0.71392 0.32862 0.0
H82 H 0.89264 0.75927 0.33762 0.0
H83 H 0.87324 0.7058 0.34144 0.0
C84 C 0.98438 0.81177 0.3013 0.0
N85 N 0.96233 0.77428 0.30017 0.0
N86 N 0.92535 0.77686 0.30588 0.0
C87 C 0.92212 0.81702 0.31056 0.0
C88 C 0.95954 0.84038 0.30782 0.0
C89 C 0.02815 0.81993 0.29602 0.0
H90 H 0.02451 0.82369 0.28653 0.0
H91 H 0.0496 0.79153 0.29767 0.0
H92 H 0.04377 0.84953 0.29964 0.0
O93 O 0.9246 0.71929 0.27944 0.0
O94 O 0.86289 0.72178 0.28938 0.0
H95 H 0.85245 0.82084 0.31192 0.0
H96 H 0.88047 0.87065 0.31564 0.0
C97 C 0.88177 0.83454 0.31615 0.0
H98 H 0.88144 0.8249 0.32539 0.0
H99 H 0.78842 0.74311 0.30356 0.0
O100 O 0.02553 0.73295 0.28107 0.0
C101 C 0.88318 0.71833 0.27983 0.0
Co102 Co 0.72919 0.01946 0.70647 0.0
Co103 Co 0.72998 0.10236 0.69061 0.0
C104 C 0.65971 0.03485 0.68883 0.0
O105 O 0.67691 0.01227 0.69685 0.0
O106 O 0.67673 0.07059 0.68548 0.0
C107 C 0.72087 0.9297 0.7134 0.0
O108 O 0.70435 0.92435 0.70303 0.0
C109 C 0.73427 0.14921 0.66871 0.0
C110 C 0.75807 0.21422 0.67398 0.0
C111 C 0.74576 0.1899 0.66444 0.0
N112 N 0.73939 0.14956 0.68023 0.0
N113 N 0.75336 0.18857 0.68335 0.0
C114 C 0.72197 0.10942 0.662 0.0
H115 H 0.73151 0.07955 0.6668 0.0
H116 H 0.73773 0.10953 0.65336 0.0
H117 H 0.68611 0.10893 0.6608 0.0
C118 C 0.81647 0.00843 0.6966 0.0
N119 N 0.77824 0.02951 0.69723 0.0
N120 N 0.77983 0.065 0.69084 0.0
C121 C 0.81981 0.06796 0.68604 0.0
C122 C 0.84433 0.03219 0.68956 0.0
C123 C 0.82584 0.96641 0.70272 0.0
H124 H 0.79895 0.94313 0.70109 0.0
H125 H 0.85678 0.95148 0.69975 0.0
H126 H 0.82746 0.97243 0.71216 0.0
O127 O 0.72105 0.06855 0.71729 0.0
O128 O 0.71867 0.12754 0.70614 0.0
H129 H 0.8265 0.13693 0.68385 0.0
H130 H 0.87127 0.10591 0.67802 0.0
C131 C 0.83548 0.1065 0.67927 0.0
H132 H 0.81934 0.10672 0.6707 0.0
H133 H 0.76029 0.19746 0.69186 0.0
O134 O 0.73536 0.96696 0.71628 0.0
C135 C 0.71683 0.10956 0.71605 0.0
Co136 Co 0.0179 0.22022 0.95506 0.0
Co137 Co 0.10235 0.22358 0.93977 0.0
C138 C 0.03887 0.14912 0.93841 0.0
O139 O 0.0143 0.16634 0.94597 0.0
O140 O 0.07407 0.16749 0.93523 0.0
C141 C 0.92986 0.20413 0.96192 0.0
O142 O 0.929 0.18102 0.95237 0.0
C143 C 0.14654 0.23396 0.91762 0.0
C144 C 0.21515 0.24311 0.92282 0.0
C145 C 0.18821 0.24029 0.91323 0.0
N146 N 0.14888 0.23342 0.92921 0.0
N147 N 0.18993 0.23906 0.93228 0.0
C148 C 0.10541 0.22576 0.91102 0.0
H149 H 0.0924 0.25716 0.90774 0.0
H150 H 0.11188 0.20416 0.90352 0.0
H151 H 0.08022 0.21103 0.91665 0.0
C152 C 0.00353 0.30562 0.94446 0.0
N153 N 0.02621 0.26837 0.94536 0.0
N154 N 0.06275 0.27176 0.93949 0.0
C155 C 0.06517 0.31233 0.93498 0.0
C156 C 0.0276 0.33509 0.93797 0.0
C157 C 0.95996 0.3127 0.94996 0.0
H158 H 0.93933 0.28347 0.94864 0.0
H159 H 0.94308 0.34148 0.94625 0.0
H160 H 0.96428 0.31741 0.9594 0.0
O161 O 0.06683 0.21598 0.96618 0.0
O162 O 0.12703 0.21584 0.95547 0.0
H163 H 0.13475 0.31667 0.93336 0.0
H164 H 0.10632 0.36682 0.93024 0.0
C165 C 0.10511 0.33081 0.92938 0.0
H166 H 0.10491 0.32254 0.92006 0.0
H167 H 0.2008 0.23954 0.94082 0.0
O168 O 0.96404 0.22542 0.96446 0.0
C169 C 0.10812 0.21404 0.96525 0.0
Co170 Co 0.22201 0.97595 0.04193 0.0
Co171 Co 0.22087 0.89009 0.05683 0.0
C172 C 0.14784 0.95551 0.05768 0.0
O173 O 0.16718 0.98073 0.05062 0.0
O174 O 0.16456 0.91923 0.06069 0.0
C175 C 0.20959 0.06519 0.03546 0.0
O176 O 0.18648 0.06644 0.04501 0.0
C177 C 0.22368 0.84078 0.07865 0.0
C178 C 0.24483 0.77565 0.07272 0.0
C179 C 0.23436 0.79924 0.08254 0.0
N180 N 0.22849 0.84182 0.06709 0.0
N181 N 0.24088 0.80271 0.0636 0.0
C182 C 0.20786 0.87853 0.08571 0.0
H183 H 0.18844 0.9013 0.0804 0.0
H184 H 0.23616 0.89683 0.08915 0.0
H185 H 0.18792 0.86693 0.0931 0.0
C186 C 0.30689 0.98631 0.05325 0.0
N187 N 0.2689 0.96517 0.05192 0.0
N188 N 0.26943 0.92888 0.05801 0.0
C189 C 0.30844 0.92548 0.0633 0.0
C190 C 0.33326 0.96193 0.06054 0.0
C191 C 0.31919 0.02613 0.0465 0.0
H192 H 0.31473 0.01961 0.03714 0.0
H193 H 0.29706 0.05329 0.04888 0.0
H194 H 0.35338 0.03611 0.04805 0.0
O195 O 0.21659 0.92818 0.03056 0.0
O196 O 0.21628 0.86696 0.04083 0.0
H197 H 0.31752 0.85665 0.06537 0.0
H198 H 0.35708 0.88944 0.07305 0.0
C199 C 0.32252 0.88706 0.07037 0.0
H200 H 0.30234 0.88525 0.07828 0.0
H201 H 0.247 0.79458 0.055 0.0
O202 O 0.22974 0.03036 0.03284 0.0
C203 C 0.21465 0.88674 0.03114 0.0
Co204 Co 0.97688 0.76528 0.95517 0.0
Co205 Co 0.89529 0.76881 0.93893 0.0
C206 C 0.96328 0.83843 0.93828 0.0
O207 O 0.98502 0.81956 0.94622 0.0
O208 O 0.92772 0.82239 0.93453 0.0
C209 C 0.06658 0.77024 0.96255 0.0
O210 O 0.07356 0.78717 0.95228 0.0
C211 C 0.8466 0.76954 0.91719 0.0
C212 C 0.78305 0.74241 0.92257 0.0
C213 C 0.80581 0.75777 0.91305 0.0
N214 N 0.84773 0.76148 0.9286 0.0
N215 N 0.80956 0.74562 0.93179 0.0
C216 C 0.88534 0.7843 0.91038 0.0
H217 H 0.91588 0.77525 0.91492 0.0
H218 H 0.88517 0.76969 0.90161 0.0
H219 H 0.88437 0.82033 0.90952 0.0
C220 C 0.9876 0.67974 0.94405 0.0
N221 N 0.96698 0.71815 0.9452 0.0
N222 N 0.93225 0.7187 0.93853 0.0
C223 C 0.92952 0.68016 0.93298 0.0
C224 C 0.96467 0.65442 0.93623 0.0
C225 C 0.02563 0.6662 0.95132 0.0
H226 H 0.01808 0.67213 0.96056 0.0
H227 H 0.0542 0.68656 0.94901 0.0
H228 H 0.034 0.63133 0.95012 0.0
O229 O 0.92753 0.77185 0.96596 0.0
O230 O 0.86977 0.77761 0.95453 0.0
H231 H 0.86169 0.6702 0.92971 0.0
H232 H 0.89713 0.63387 0.92173 0.0
C233 C 0.89315 0.66755 0.92505 0.0
H234 H 0.89238 0.69028 0.91761 0.0
H235 H 0.8019 0.73623 0.94022 0.0
O236 O 0.02863 0.75684 0.96511 0.0
C237 C 0.8868 0.77713 0.96455 0.0
Co238 Co 0.76212 0.01342 0.04059 0.0
Co239 Co 0.76462 0.09615 0.05651 0.0
C240 C 0.83574 0.03028 0.05725 0.0
O241 O 0.81692 0.00788 0.04946 0.0
O242 O 0.81909 0.06559 0.06098 0.0
C243 C 0.77435 0.92444 0.03399 0.0
O244 O 0.7957 0.92236 0.04381 0.0
C245 C 0.76655 0.1469 0.07784 0.0
C246 C 0.73566 0.2088 0.07247 0.0
C247 C 0.75379 0.18753 0.08189 0.0
N248 N 0.75651 0.14442 0.06656 0.0
N249 N 0.73836 0.18161 0.06337 0.0
C250 C 0.78408 0.10935 0.08469 0.0
H251 H 0.7748 0.07801 0.08058 0.0
H252 H 0.77169 0.11012 0.09369 0.0
H253 H 0.82016 0.11137 0.08488 0.0
C254 C 0.67676 0.00252 0.0517 0.0
N255 N 0.71493 0.02344 0.05052 0.0
N256 N 0.71534 0.05816 0.0572 0.0
C257 C 0.67708 0.06033 0.0629 0.0
C258 C 0.65146 0.0251 0.05963 0.0
C259 C 0.66353 0.96444 0.04442 0.0
H260 H 0.67156 0.97119 0.03524 0.0
H261 H 0.6824 0.93531 0.04714 0.0
H262 H 0.62824 0.95731 0.04513 0.0
O263 O 0.7675 0.06189 0.02948 0.0
O264 O 0.77276 0.12036 0.04071 0.0
H265 H 0.66439 0.12742 0.06664 0.0
H266 H 0.63308 0.08965 0.07535 0.0
C267 C 0.66515 0.09567 0.07123 0.0
H268 H 0.69017 0.09754 0.0781 0.0
H269 H 0.72717 0.18812 0.05503 0.0
O270 O 0.75503 0.95963 0.03126 0.0
C271 C 0.77234 0.1028 0.03075 0.0
Co272 Co 0.51088 0.76941 0.79116 0.0
Co273 Co 0.5964 0.7699 0.806 0.0
C274 C 0.53088 0.84334 0.8067 0.0
O275 O 0.50445 0.82375 0.80003 0.0
O276 O 0.56769 0.82698 0.80933 0.0
C277 C 0.42114 0.77753 0.784 0.0
O278 O 0.41543 0.79625 0.79409 0.0
C279 C 0.64532 0.76885 0.82787 0.0
C280 C 0.71066 0.74819 0.82201 0.0
C281 C 0.68706 0.7594 0.83178 0.0
N282 N 0.64426 0.76281 0.81636 0.0
N283 N 0.68346 0.75062 0.81292 0.0
C284 C 0.60745 0.78493 0.83483 0.0
H285 H 0.5837 0.80224 0.8293 0.0
H286 H 0.59044 0.7568 0.83882 0.0
H287 H 0.61874 0.8069 0.84183 0.0
C288 C 0.5 0.68414 0.80246 0.0
N289 N 0.52128 0.72209 0.80109 0.0
N290 N 0.55728 0.72159 0.80726 0.0
C291 C 0.5603 0.68272 0.81268 0.0
C292 C 0.52394 0.65788 0.80989 0.0
C293 C 0.46037 0.67185 0.79567 0.0
H294 H 0.46658 0.67754 0.78635 0.0
H295 H 0.43286 0.69314 0.79828 0.0
H296 H 0.45112 0.63724 0.79697 0.0
O297 O 0.55933 0.77563 0.77999 0.0
O298 O 0.62046 0.77324 0.79017 0.0
H299 H 0.62879 0.67294 0.81502 0.0
H300 H 0.59513 0.63482 0.823 0.0
C301 C 0.59815 0.66901 0.81999 0.0
H302 H 0.59994 0.69028 0.82769 0.0
H303 H 0.69163 0.74389 0.80435 0.0
O304 O 0.45824 0.76173 0.78151 0.0
C305 C 0.60074 0.77618 0.78052 0.0
Co306 Co 0.76915 0.4803 0.20386 0.0
Co307 Co 0.77273 0.39485 0.18908 0.0
C308 C 0.84375 0.46298 0.18826 0.0
O309 O 0.82388 0.48786 0.1953 0.0
O310 O 0.82795 0.42618 0.18536 0.0
C311 C 0.77246 0.57075 0.21079 0.0
O312 O 0.79098 0.57731 0.2007 0.0
C313 C 0.77129 0.34674 0.16718 0.0
C314 C 0.75583 0.27986 0.17302 0.0
C315 C 0.76377 0.30465 0.16322 0.0
N316 N 0.76725 0.34683 0.17875 0.0
N317 N 0.75819 0.30673 0.18219 0.0
C318 C 0.78376 0.38595 0.16018 0.0
H319 H 0.80069 0.41036 0.16558 0.0
H320 H 0.75401 0.40157 0.15666 0.0
H321 H 0.80496 0.37638 0.15284 0.0
C322 C 0.68463 0.48909 0.19217 0.0
N323 N 0.72298 0.46877 0.19368 0.0
N324 N 0.72328 0.43216 0.18776 0.0
C325 C 0.68442 0.42756 0.18247 0.0
C326 C 0.65894 0.46376 0.18497 0.0
C327 C 0.67111 0.52881 0.19877 0.0
H328 H 0.67416 0.52228 0.20817 0.0
H329 H 0.69339 0.5561 0.19661 0.0
H330 H 0.63714 0.53865 0.19683 0.0
O331 O 0.77551 0.43227 0.21514 0.0
O332 O 0.777 0.37101 0.20499 0.0
H333 H 0.67862 0.35811 0.18106 0.0
H334 H 0.6353 0.38807 0.17397 0.0
C335 C 0.67062 0.38771 0.17597 0.0
H336 H 0.68865 0.38617 0.1677 0.0
H337 H 0.75345 0.29774 0.1908 0.0
O338 O 0.759 0.5328 0.21336 0.0
C339 C 0.778 0.39088 0.21464 0.0
Co340 Co 0.47023 0.22951 0.79075 0.0
Co341 Co 0.38387 0.22911 0.80531 0.0
C342 C 0.44721 0.15533 0.80651 0.0
O343 O 0.47307 0.17427 0.79955 0.0
O344 O 0.41103 0.17233 0.80942 0.0
C345 C 0.55943 0.21449 0.78472 0.0
O346 O 0.55924 0.19082 0.79419 0.0
C347 C 0.33236 0.22781 0.82643 0.0
C348 C 0.27119 0.26 0.82108 0.0
C349 C 0.29214 0.24159 0.83051 0.0
N350 N 0.33497 0.2376 0.81514 0.0
N351 N 0.29817 0.25643 0.81195 0.0
C352 C 0.36968 0.21002 0.8333 0.0
H353 H 0.40104 0.21804 0.82903 0.0
H354 H 0.36956 0.22339 0.84221 0.0
H355 H 0.36671 0.17401 0.8338 0.0
C356 C 0.4814 0.31404 0.80222 0.0
N357 N 0.45975 0.27642 0.80071 0.0
N358 N 0.42366 0.27687 0.80685 0.0
C359 C 0.42129 0.31522 0.81253 0.0
C360 C 0.45783 0.33995 0.8098 0.0
C361 C 0.52102 0.32643 0.79542 0.0
H362 H 0.51521 0.31982 0.78612 0.0
H363 H 0.54881 0.30585 0.79823 0.0
H364 H 0.52964 0.36128 0.79648 0.0
O365 O 0.4234 0.22612 0.77905 0.0
O366 O 0.36202 0.22439 0.78924 0.0
H367 H 0.35368 0.32899 0.8151 0.0
H368 H 0.38969 0.36075 0.82418 0.0
C369 C 0.38427 0.32835 0.82019 0.0
H370 H 0.38057 0.30403 0.8272 0.0
H371 H 0.29191 0.26777 0.8036 0.0
O372 O 0.52552 0.23594 0.782 0.0
C373 C 0.38205 0.22395 0.7796 0.0
Co374 Co 0.22496 0.5129 0.20547 0.0
Co375 Co 0.2282 0.59822 0.19059 0.0
C376 C 0.15522 0.53269 0.18856 0.0
O377 O 0.17249 0.50743 0.19598 0.0
O378 O 0.1729 0.56886 0.18581 0.0
C379 C 0.2149 0.4233 0.21278 0.0
O380 O 0.19633 0.41761 0.20266 0.0
C381 C 0.23207 0.64498 0.16875 0.0
C382 C 0.25538 0.71027 0.17392 0.0
C383 C 0.24288 0.68578 0.16441 0.0
N384 N 0.23769 0.64547 0.18025 0.0
N385 N 0.25144 0.68461 0.18331 0.0
C386 C 0.21973 0.60499 0.16212 0.0
H387 H 0.22934 0.57526 0.16697 0.0
H388 H 0.23539 0.6049 0.15347 0.0
H389 H 0.18386 0.60442 0.16096 0.0
C390 C 0.31134 0.50047 0.19521 0.0
N391 N 0.27387 0.52267 0.19617 0.0
N392 N 0.27652 0.55911 0.19019 0.0
C393 C 0.31651 0.56166 0.1854 0.0
C394 C 0.3399 0.52453 0.18845 0.0
C395 C 0.31947 0.45723 0.20083 0.0
H396 H 0.29123 0.43551 0.1993 0.0
H397 H 0.34921 0.44132 0.1974 0.0
H398 H 0.32284 0.46188 0.2103 0.0
O399 O 0.21753 0.56132 0.21651 0.0
O400 O 0.22054 0.62258 0.20634 0.0
H401 H 0.36933 0.60023 0.17826 0.0
H402 H 0.31839 0.60278 0.1705 0.0
C403 C 0.33341 0.60107 0.17921 0.0
H404 H 0.32414 0.63088 0.18402 0.0
H405 H 0.25852 0.69365 0.1918 0.0
O406 O 0.23094 0.46032 0.21525 0.0
C407 C 0.21651 0.60276 0.21596 0.0
Co408 Co 0.5188 0.73033 0.45663 0.0
Co409 Co 0.59878 0.72713 0.43968 0.0
C410 C 0.53228 0.65611 0.44009 0.0
O411 O 0.51091 0.67534 0.44801 0.0
O412 O 0.56709 0.6725 0.43597 0.0
C413 C 0.42964 0.72402 0.46404 0.0
O414 O 0.42311 0.70852 0.4536 0.0
C415 C 0.64673 0.72537 0.41763 0.0
C416 C 0.7087 0.75706 0.42252 0.0
C417 C 0.68646 0.73938 0.41323 0.0
N418 N 0.64532 0.73522 0.42895 0.0
N419 N 0.6826 0.75379 0.43183 0.0
C420 C 0.61133 0.70127 0.41143 0.0
H421 H 0.60279 0.67148 0.41635 0.0
H422 H 0.58179 0.72206 0.41098 0.0
H423 H 0.62127 0.69131 0.40262 0.0
C424 C 0.5058 0.81528 0.44531 0.0
N425 N 0.52709 0.77722 0.44644 0.0
N426 N 0.56064 0.7765 0.43935 0.0
C427 C 0.56164 0.81442 0.43343 0.0
C428 C 0.52687 0.84012 0.43699 0.0
C429 C 0.46874 0.82889 0.45291 0.0
H430 H 0.47624 0.82051 0.46202 0.0
H431 H 0.43909 0.81061 0.45035 0.0
H432 H 0.46212 0.86436 0.45228 0.0
O433 O 0.56924 0.72497 0.46704 0.0
O434 O 0.62586 0.71961 0.45517 0.0
H435 H 0.62783 0.82701 0.42875 0.0
H436 H 0.58849 0.85778 0.42042 0.0
C437 C 0.59532 0.82592 0.42459 0.0
H438 H 0.59598 0.80046 0.41781 0.0
H439 H 0.68998 0.76479 0.44013 0.0
O440 O 0.46737 0.73757 0.46677 0.0
C441 C 0.60987 0.72022 0.46532 0.0
Co442 Co 0.72615 0.47255 0.54045 0.0
Co443 Co 0.72776 0.38861 0.55609 0.0
C444 C 0.65563 0.45451 0.55759 0.0
O445 O 0.67299 0.47796 0.54979 0.0
O446 O 0.67314 0.41893 0.56088 0.0
C447 C 0.7126 0.56116 0.53355 0.0
O448 O 0.69039 0.56302 0.54324 0.0
C449 C 0.73724 0.34227 0.57812 0.0
C450 C 0.74849 0.2745 0.57238 0.0
C451 C 0.74455 0.30018 0.58219 0.0
N452 N 0.73727 0.34133 0.5665 0.0
N453 N 0.74409 0.30076 0.56313 0.0
C454 C 0.72802 0.38249 0.58503 0.0
H455 H 0.75907 0.39602 0.58835 0.0
H456 H 0.7067 0.37466 0.5925 0.0
H457 H 0.71255 0.40791 0.57962 0.0
C458 C 0.81239 0.48466 0.55066 0.0
N459 N 0.77452 0.46302 0.54996 0.0
N460 N 0.77691 0.42687 0.55607 0.0
C461 C 0.8173 0.42378 0.56061 0.0
C462 C 0.84103 0.46039 0.55734 0.0
C463 C 0.82084 0.52743 0.54482 0.0
H464 H 0.82438 0.52207 0.53539 0.0
H465 H 0.79271 0.54948 0.54621 0.0
H466 H 0.85063 0.54338 0.54821 0.0
O467 O 0.71986 0.42354 0.52946 0.0
O468 O 0.71817 0.36399 0.54045 0.0
H469 H 0.82125 0.35425 0.56251 0.0
H470 H 0.87059 0.38276 0.56631 0.0
C471 C 0.83451 0.38407 0.56661 0.0
H472 H 0.82409 0.38463 0.57578 0.0
H473 H 0.74539 0.29094 0.5545 0.0
O474 O 0.73238 0.52612 0.53092 0.0
C475 C 0.71653 0.38236 0.53058 0.0
Co476 Co 0.4739 0.26635 0.45529 0.0
Co477 Co 0.38969 0.27026 0.4399 0.0
C478 C 0.45457 0.34311 0.44006 0.0
O479 O 0.47853 0.32301 0.44728 0.0
O480 O 0.41909 0.32657 0.43646 0.0
C481 C 0.56316 0.27735 0.46144 0.0
O482 O 0.56433 0.29961 0.45174 0.0
C483 C 0.34092 0.26994 0.41807 0.0
C484 C 0.27517 0.25047 0.4239 0.0
C485 C 0.2991 0.26115 0.41415 0.0
N486 N 0.34173 0.26402 0.42959 0.0
N487 N 0.3023 0.25254 0.43302 0.0
C488 C 0.37907 0.28537 0.4111 0.0
H489 H 0.40322 0.30208 0.41662 0.0
H490 H 0.39548 0.25701 0.40707 0.0
H491 H 0.36816 0.30771 0.40412 0.0
C492 C 0.48507 0.18314 0.44315 0.0
N493 N 0.46405 0.22111 0.44472 0.0
N494 N 0.42814 0.22149 0.43851 0.0
C495 C 0.42484 0.18306 0.43291 0.0
C496 C 0.46101 0.15775 0.43558 0.0
C497 C 0.52425 0.16971 0.44999 0.0
H498 H 0.51716 0.17323 0.45934 0.0
H499 H 0.55173 0.19184 0.44788 0.0
H500 H 0.53403 0.13556 0.44821 0.0
O501 O 0.42567 0.26881 0.46661 0.0
O502 O 0.36599 0.27416 0.45582 0.0
H503 H 0.35607 0.17496 0.43067 0.0
H504 H 0.38865 0.13524 0.42295 0.0
C505 C 0.38656 0.16978 0.42571 0.0
H506 H 0.3853 0.19037 0.41786 0.0
H507 H 0.29394 0.24601 0.44159 0.0
O508 O 0.52821 0.25794 0.46431 0.0
C509 C 0.38453 0.27253 0.46566 0.0
Co510 Co 0.27267 0.50823 0.5424 0.0
Co511 Co 0.27285 0.59376 0.55729 0.0
C512 C 0.3455 0.52819 0.55858 0.0
O513 O 0.3268 0.50333 0.55134 0.0
O514 O 0.32864 0.56445 0.56154 0.0
C515 C 0.28517 0.41892 0.53603 0.0
O516 O 0.30837 0.41767 0.54556 0.0
C517 C 0.26803 0.64299 0.57899 0.0
C518 C 0.25088 0.709 0.57279 0.0
C519 C 0.25908 0.68507 0.58273 0.0
N520 N 0.26463 0.64206 0.5674 0.0
N521 N 0.25444 0.68163 0.56375 0.0
C522 C 0.2814 0.60463 0.5862 0.0
H523 H 0.29804 0.57971 0.5809 0.0
H524 H 0.25207 0.58924 0.59002 0.0
H525 H 0.30309 0.61519 0.59334 0.0
C526 C 0.18739 0.49748 0.5535 0.0
N527 N 0.22536 0.51874 0.55227 0.0
N528 N 0.2243 0.55515 0.55827 0.0
C529 C 0.18488 0.55866 0.56333 0.0
C530 C 0.16047 0.52198 0.56059 0.0
C531 C 0.1755 0.45758 0.54676 0.0
H532 H 0.17853 0.46465 0.53739 0.0
H533 H 0.19875 0.43103 0.54887 0.0
H534 H 0.14187 0.44645 0.54863 0.0
O535 O 0.27883 0.55609 0.53098 0.0
O536 O 0.27864 0.61692 0.54135 0.0
H537 H 0.17657 0.62781 0.56481 0.0
H538 H 0.1343 0.59625 0.57185 0.0
C539 C 0.1696 0.59788 0.56988 0.0
H540 H 0.18752 0.59994 0.57815 0.0
H541 H 0.24998 0.68996 0.55509 0.0
O542 O 0.26518 0.4538 0.53336 0.0
C543 C 0.28084 0.59752 0.53164 0.0
H544 H 0.06495 0.28182 0.25939 0.0
H545 H 0.18416 0.29166 0.27909 0.0
H546 H 0.10294 0.30623 0.24224 0.0
H547 H 0.22277 0.31501 0.2617 0.0
H548 H 0.24309 0.42854 0.23509 0.0
H549 H 0.22186 0.38216 0.25111 0.0
H550 H 0.15601 0.29553 0.22742 0.0
H551 H 0.17609 0.34303 0.21135 0.0
C552 C 0.09955 0.28828 0.26002 0.0
C553 C 0.12129 0.28558 0.27069 0.0
C554 C 0.12153 0.30189 0.25011 0.0
C555 C 0.16592 0.31297 0.25059 0.0
C556 C 0.1884 0.30742 0.26108 0.0
C557 C 0.16631 0.29388 0.27104 0.0
C558 C 0.22481 0.39916 0.23324 0.0
C559 C 0.21038 0.39004 0.22197 0.0
C560 C 0.21291 0.37226 0.24245 0.0
C561 C 0.18657 0.33544 0.24059 0.0
C562 C 0.17549 0.32421 0.22918 0.0
C563 C 0.18719 0.35131 0.21996 0.0
H564 H 0.42553 0.74742 0.76183 0.0
H565 H 0.34283 0.82026 0.78508 0.0
H566 H 0.38082 0.77004 0.74561 0.0
H567 H 0.29714 0.84196 0.76881 0.0
H568 H 0.28802 0.93097 0.73619 0.0
H569 H 0.31114 0.89353 0.7536 0.0
H570 H 0.31333 0.77127 0.73507 0.0
H571 H 0.29115 0.80911 0.71746 0.0
C572 C 0.39708 0.76732 0.76353 0.0
C573 C 0.38832 0.78283 0.77473 0.0
C574 C 0.37117 0.78007 0.75421 0.0
C575 C 0.33575 0.80845 0.75587 0.0
C576 C 0.32476 0.82083 0.76721 0.0
C577 C 0.3508 0.80817 0.77655 0.0
C578 C 0.29275 0.89599 0.73583 0.0
C579 C 0.28844 0.87321 0.72536 0.0
C580 C 0.30565 0.87437 0.74588 0.0
C581 C 0.31444 0.82937 0.74574 0.0
C582 C 0.30748 0.80607 0.73543 0.0
C583 C 0.29461 0.82776 0.72535 0.0
H584 H 0.80888 0.65219 0.20948 0.0
H585 H 0.74218 0.56499 0.23292 0.0
H586 H 0.82672 0.70001 0.22563 0.0
H587 H 0.76111 0.6118 0.24902 0.0
H588 H 0.79552 0.7033 0.27714 0.0
H589 H 0.75832 0.67929 0.2596 0.0
H590 H 0.87932 0.68918 0.24067 0.0
H591 H 0.91593 0.71407 0.25797 0.0
C592 C 0.79728 0.64364 0.21803 0.0
C593 C 0.77496 0.6043 0.21995 0.0
C594 C 0.80771 0.67092 0.2273 0.0
C595 C 0.79613 0.65931 0.23866 0.0
C596 C 0.77044 0.62195 0.2404 0.0
C597 C 0.75986 0.59482 0.23115 0.0
C598 C 0.81391 0.70117 0.26917 0.0
C599 C 0.85886 0.70992 0.269 0.0
C600 C 0.79263 0.68728 0.25913 0.0
C601 C 0.81587 0.68194 0.24874 0.0
C602 C 0.86018 0.69338 0.24846 0.0
C603 C 0.88137 0.70724 0.25845 0.0
H604 H 0.61576 0.14655 0.78295 0.0
H605 H 0.5814 0.26896 0.7669 0.0
H606 H 0.6622 0.12902 0.76676 0.0
H607 H 0.63062 0.25303 0.7509 0.0
H608 H 0.65958 0.17697 0.7173 0.0
H609 H 0.63023 0.20988 0.73474 0.0
H610 H 0.722 0.13581 0.75532 0.0
H611 H 0.74853 0.10047 0.73784 0.0
C612 C 0.61935 0.17046 0.77612 0.0
C613 C 0.59448 0.20883 0.77612 0.0
C614 C 0.64639 0.16055 0.76679 0.0
C615 C 0.65006 0.18929 0.75733 0.0
C616 C 0.62777 0.22942 0.75782 0.0
C617 C 0.59985 0.23884 0.76705 0.0
C618 C 0.67387 0.16841 0.72556 0.0
C619 C 0.70577 0.13581 0.72629 0.0
C620 C 0.65726 0.18747 0.73561 0.0
C621 C 0.67305 0.1751 0.74658 0.0
C622 C 0.70781 0.14516 0.74712 0.0
C623 C 0.72342 0.12516 0.7371 0.0
H624 H 0.26525 0.08633 0.01787 0.0
H625 H 0.14167 0.12106 0.03307 0.0
H626 H 0.25029 0.13443 0.00154 0.0
H627 H 0.12497 0.16615 0.01654 0.0
H628 H 0.09635 0.24801 0.98673 0.0
H629 H 0.13098 0.22439 0.0046 0.0
H630 H 0.20911 0.13247 0.98517 0.0
H631 H 0.177 0.15917 0.96735 0.0
C632 C 0.23506 0.10464 0.01775 0.0
C633 C 0.20446 0.09971 0.02667 0.0
C634 C 0.22618 0.13189 0.00833 0.0
C635 C 0.18593 0.1538 0.00748 0.0
C636 C 0.1566 0.15064 0.01682 0.0
C637 C 0.16602 0.12438 0.02635 0.0
C638 C 0.1218 0.22357 0.98633 0.0
C639 C 0.13384 0.20509 0.97573 0.0
C640 C 0.1414 0.20959 0.99658 0.0
C641 C 0.17224 0.17553 0.99649 0.0
C642 C 0.18598 0.15901 0.98572 0.0
C643 C 0.16736 0.17408 0.97544 0.0
H644 H 0.1477 0.80711 0.96111 0.0
H645 H 0.06011 0.7432 0.98497 0.0
H646 H 0.19521 0.82681 0.97718 0.0
H647 H 0.10668 0.76392 0.00098 0.0
H648 H 0.19897 0.79897 0.02882 0.0
H649 H 0.17423 0.76098 0.01149 0.0
H650 H 0.1855 0.88072 0.99198 0.0
H651 H 0.21115 0.91817 0.00909 0.0
C652 C 0.13897 0.79656 0.96974 0.0
C653 C 0.09968 0.77434 0.97178 0.0
C654 C 0.16608 0.80806 0.97896 0.0
C655 C 0.1544 0.79765 0.9904 0.0
C656 C 0.11691 0.77231 0.9923 0.0
C657 C 0.08994 0.7607 0.9831 0.0
C658 C 0.19703 0.81693 0.02077 0.0
C659 C 0.20638 0.8618 0.0204 0.0
C660 C 0.18267 0.79519 0.01085 0.0
C661 C 0.17741 0.81786 0.00036 0.0
C662 C 0.18955 0.86202 -0.00015 0.0
C663 C 0.2039 0.88368 0.00973 0.0
H664 H 0.81956 0.83444 0.96596 0.0
H665 H 0.8939 0.74236 0.98611 0.0
H666 H 0.78488 0.86118 0.98343 0.0
H667 H 0.85672 0.76624 0.00358 0.0
H668 H 0.84204 0.86791 0.03229 0.0
H669 H 0.8616 0.82389 0.01579 0.0
H670 H 0.74002 0.85852 -0.00082 0.0
H671 H 0.72222 0.90544 0.01552 0.0
C672 C 0.8273 0.81892 0.97413 0.0
C673 C 0.85978 0.78687 0.97475 0.0
C674 C 0.80718 0.83401 0.98419 0.0
C675 C 0.81832 0.81653 0.99508 0.0
C676 C 0.84826 0.78171 0.99547 0.0
C677 C 0.86933 0.76762 0.98545 0.0
C678 C 0.81909 0.86544 0.02521 0.0
C679 C 0.7809 0.89054 0.02512 0.0
C680 C 0.83016 0.83983 0.0157 0.0
C681 C 0.80277 0.8378 0.00594 0.0
C682 C 0.76269 0.86018 0.00632 0.0
C683 C 0.75217 0.88675 0.01574 0.0
H684 H 0.82922 0.17033 0.02933 0.0
H685 H 0.73944 0.09405 0.00904 0.0
H686 H 0.85842 0.20274 0.01182 0.0
H687 H 0.76591 0.12897 0.99147 0.0
H688 H 0.90864 0.25952 0.97955 0.0
H689 H 0.85875 0.24515 0.99552 0.0
H690 H 0.82591 0.12077 0.98013 0.0
H691 H 0.87304 0.13681 0.96396 0.0
C692 C 0.81465 0.16177 0.02111 0.0
C693 C 0.78263 0.12928 0.02048 0.0
C694 C 0.8312 0.18056 0.01102 0.0
C695 C 0.81527 0.168 9e-05 0.0
C696 C 0.78021 0.1384 -0.00036 0.0
C697 C 0.76463 0.11866 0.00971 0.0
C698 C 0.88982 0.22963 0.97951 0.0
C699 C 0.89498 0.19909 0.97059 0.0
C700 C 0.86148 0.22113 0.98871 0.0
C701 C 0.83859 0.18136 0.98932 0.0
C702 C 0.84216 0.15206 0.98 0.0
C703 C 0.86961 0.16108 0.97069 0.0
H704 H 0.56948 0.78293 0.75852 0.0
H705 H 0.68888 0.7886 0.77826 0.0
H706 H 0.60782 0.80929 0.74159 0.0
H707 H 0.72768 0.81409 0.76112 0.0
H708 H 0.74771 0.93238 0.73587 0.0
H709 H 0.72608 0.88368 0.75138 0.0
H710 H 0.66177 0.79996 0.72669 0.0
H711 H 0.68246 0.84957 0.71113 0.0
C712 C 0.60417 0.78886 0.75919 0.0
C713 C 0.6259 0.78447 0.76982 0.0
C714 C 0.62632 0.80361 0.74942 0.0
C715 C 0.67079 0.81423 0.75002 0.0
C716 C 0.69325 0.80686 0.76043 0.0
C717 C 0.67104 0.79209 0.77024 0.0
C718 C 0.7297 0.90315 0.7337 0.0
C719 C 0.71596 0.89537 0.7223 0.0
C720 C 0.71759 0.87494 0.74261 0.0
C721 C 0.69161 0.83821 0.74031 0.0
C722 C 0.68106 0.82846 0.72877 0.0
C723 C 0.69309 0.85679 0.71985 0.0
H724 H 0.78114 0.42299 0.23659 0.0
H725 H 0.79173 0.30284 0.21728 0.0
H726 H 0.80393 0.38538 0.25397 0.0
H727 H 0.81351 0.26466 0.23489 0.0
H728 H 0.83637 0.31289 0.28531 0.0
H729 H 0.79086 0.33269 0.26884 0.0
H730 H 0.87948 0.26526 0.24598 0.0
H731 H 0.92393 0.24434 0.2624 0.0
C732 C 0.78747 0.38829 0.23609 0.0
C733 C 0.78535 0.36613 0.22548 0.0
C734 C 0.80013 0.36653 0.24613 0.0
C735 C 0.81085 0.32196 0.24584 0.0
C736 C 0.80611 0.29914 0.23537 0.0
C737 C 0.79349 0.321 0.22529 0.0
C738 C 0.84547 0.30132 0.2768 0.0
C739 C 0.88427 0.27785 0.27514 0.0
C740 C 0.81953 0.3129 0.26735 0.0
C741 C 0.83198 0.30137 0.25605 0.0
C742 C 0.86871 0.27461 0.25454 0.0
C743 C 0.89447 0.26286 0.26398 0.0
H744 H 0.23083 0.09899 0.72556 0.0
H745 H 0.35797 0.12966 0.71188 0.0
H746 H 0.24378 0.14788 0.74181 0.0
H747 H 0.37254 0.17556 0.72838 0.0
H748 H 0.3979 0.25768 0.75824 0.0
H749 H 0.36563 0.23464 0.74002 0.0
H750 H 0.28208 0.14514 0.75868 0.0
H751 H 0.31196 0.17117 0.7768 0.0
C752 C 0.26138 0.1166 0.72599 0.0
C753 C 0.29356 0.11026 0.71754 0.0
C754 C 0.26908 0.14431 0.73536 0.0
C755 C 0.30965 0.16524 0.73665 0.0
C756 C 0.34064 0.16079 0.72774 0.0
C757 C 0.33244 0.13406 0.71824 0.0
C758 C 0.37177 0.23394 0.75839 0.0
C759 C 0.35762 0.21586 0.76887 0.0
C760 C 0.35351 0.2203 0.74794 0.0
C761 C 0.32186 0.18703 0.74773 0.0
C762 C 0.30593 0.17108 0.75836 0.0
C763 C 0.32326 0.18578 0.76881 0.0
H764 H 0.21061 0.57101 0.23791 0.0
H765 H 0.20091 0.69061 0.21824 0.0
H766 H 0.18382 0.6083 0.2549 0.0
H767 H 0.17501 0.72852 0.23549 0.0
H768 H 0.05846 0.74577 0.26137 0.0
H769 H 0.10667 0.7259 0.24563 0.0
H770 H 0.19266 0.66157 0.26981 0.0
H771 H 0.14344 0.68031 0.2856 0.0
C772 C 0.20362 0.60556 0.23726 0.0
C773 C 0.20714 0.62761 0.22664 0.0
C774 C 0.18866 0.62714 0.24708 0.0
C775 C 0.17694 0.67141 0.24656 0.0
C776 C 0.18316 0.69424 0.23613 0.0
C777 C 0.19815 0.67255 0.22626 0.0
C778 C 0.08807 0.72813 0.26339 0.0
C779 C 0.09658 0.7137 0.2747 0.0
C780 C 0.116 0.71702 0.25434 0.0
C781 C 0.15322 0.69148 0.25642 0.0
C782 C 0.16373 0.68045 0.26789 0.0
C783 C 0.13563 0.69136 0.27695 0.0
H784 H 0.76712 0.57994 0.51552 0.0
H785 H 0.64757 0.62078 0.53189 0.0
H786 H 0.75334 0.63024 0.49958 0.0
H787 H 0.63201 0.66839 0.51577 0.0
H788 H 0.60535 0.75482 0.48692 0.0
H789 H 0.64144 0.72786 0.50426 0.0
H790 H 0.70957 0.63202 0.48357 0.0
H791 H 0.67608 0.66168 0.46626 0.0
C792 C 0.73807 0.59999 0.51574 0.0
C793 C 0.7082 0.59618 0.52487 0.0
C794 C 0.7299 0.62859 0.50656 0.0
C795 C 0.6911 0.65312 0.50618 0.0
C796 C 0.66259 0.65086 0.51571 0.0
C797 C 0.67131 0.62313 0.52499 0.0
C798 C 0.62908 0.72883 0.48612 0.0
C799 C 0.63772 0.71 0.47532 0.0
C800 C 0.64945 0.71295 0.49606 0.0
C801 C 0.67766 0.67677 0.49546 0.0
C802 C 0.68847 0.66007 0.48448 0.0
C803 C 0.66908 0.6769 0.4745 0.0
H804 H 0.58436 0.22288 0.4793 0.0
H805 H 0.61969 0.34495 0.46324 0.0
H806 H 0.63314 0.23871 0.49539 0.0
H807 H 0.6655 0.36257 0.47954 0.0
H808 H 0.74924 0.39228 0.50889 0.0
H809 H 0.72416 0.35675 0.4913 0.0
H810 H 0.63222 0.2814 0.51151 0.0
H811 H 0.66028 0.31437 0.52905 0.0
C812 C 0.60295 0.25291 0.47918 0.0
C813 C 0.59802 0.28284 0.47009 0.0
C814 C 0.6306 0.2623 0.48846 0.0
C815 C 0.6529 0.30243 0.489 0.0
C816 C 0.64969 0.33105 0.47949 0.0
C817 C 0.62302 0.3211 0.4701 0.0
C818 C 0.72443 0.36726 0.50952 0.0
C819 C 0.70637 0.35624 0.52026 0.0
C820 C 0.70963 0.34715 0.49943 0.0
C821 C 0.67521 0.31677 0.49983 0.0
C822 C 0.65902 0.3041 0.51074 0.0
C823 C 0.67487 0.32324 0.52085 0.0
H824 H 0.22847 0.39721 0.51878 0.0
H825 H 0.35301 0.36305 0.53351 0.0
H826 H 0.24258 0.34888 0.50248 0.0
H827 H 0.36885 0.31771 0.51698 0.0
H828 H 0.39676 0.237 0.487 0.0
H829 H 0.36243 0.25951 0.50501 0.0
H830 H 0.28313 0.35177 0.48599 0.0
H831 H 0.31497 0.32635 0.46805 0.0
C832 C 0.25868 0.37896 0.51856 0.0
C833 C 0.28982 0.38415 0.52732 0.0
C834 C 0.26706 0.35156 0.50916 0.0
C835 C 0.30735 0.32983 0.50816 0.0
C836 C 0.3372 0.33313 0.51738 0.0
C837 C 0.32827 0.35953 0.52689 0.0
C838 C 0.37109 0.26124 0.48672 0.0
C839 C 0.35874 0.28028 0.47619 0.0
C840 C 0.35167 0.27457 0.49705 0.0
C841 C 0.32062 0.30844 0.49711 0.0
C842 C 0.30644 0.32535 0.48642 0.0
C843 C 0.32492 0.31099 0.47607 0.0
H844 H 0.29428 0.68572 0.52964 0.0
H845 H 0.28801 0.56711 0.50954 0.0
H846 H 0.31947 0.72534 0.5126 0.0
H847 H 0.314 0.60635 0.49268 0.0
H848 H 0.34995 0.68448 0.46221 0.0
H849 H 0.30274 0.66139 0.47804 0.0
H850 H 0.38824 0.7249 0.50243 0.0
H851 H 0.43463 0.74882 0.48666 0.0
C852 C 0.29765 0.66819 0.52157 0.0
C853 C 0.28974 0.62306 0.52101 0.0
C854 C 0.31225 0.6909 0.51181 0.0
C855 C 0.31918 0.66898 0.5013 0.0
C856 C 0.30863 0.62445 0.50059 0.0
C857 C 0.29405 0.60179 0.51032 0.0
C858 C 0.35808 0.69442 0.47092 0.0
C859 C 0.3965 0.7178 0.47319 0.0
C860 C 0.33114 0.68096 0.48 0.0
C861 C 0.34208 0.69064 0.49152 0.0
C862 C 0.37862 0.71702 0.49368 0.0
C863 C 0.40548 0.73051 0.48461 0.0
H864 H 0.07427 0.09477 0.3037 0.0
H865 H 0.95524 0.11875 0.32246 0.0
H866 H 0.06005 0.01638 0.30431 0.0
H867 H 0.94059 0.03998 0.32302 0.0
H868 H 0.95491 0.88729 0.32786 0.0
H869 H 0.97187 0.96516 0.33038 0.0
H870 H -0.00101 0.97573 0.29385 0.0
H871 H 0.98124 0.89897 0.29134 0.0
C872 C 0.04559 0.08298 0.30819 0.0
C873 C 0.01584 0.11225 0.31308 0.0
C874 C 0.03729 0.03837 0.30846 0.0
C875 C -0.00093 0.0224 0.31363 0.0
C876 C 0.97039 0.05158 0.31905 0.0
C877 C 0.97863 0.09639 0.31871 0.0
C878 C 0.96427 0.90659 0.32041 0.0
C879 C 0.96767 0.88729 0.30946 0.0
C880 C 0.97398 0.95084 0.32185 0.0
C881 C 0.98751 0.97599 0.31234 0.0
C882 C 0.98971 0.95674 0.30136 0.0
C883 C 0.9796 0.9129 0.29993 0.0
H884 H 0.1006 0.92198 0.69461 0.0
H885 H 0.12104 0.03317 0.6724 0.0
H886 H 0.02229 0.93655 0.69474 0.0
H887 H 0.04235 0.04805 0.67251 0.0
H888 H 0.88959 0.02958 0.66923 0.0
H889 H 0.96746 0.01319 0.6667 0.0
H890 H 0.98146 0.00088 0.7037 0.0
H891 H 0.90452 0.0181 0.70619 0.0
C892 C 0.08801 0.94901 0.68958 0.0
C893 C 0.11629 0.9764 0.68344 0.0
C894 C 0.04345 0.95754 0.68971 0.0
C895 C 0.02651 0.99357 0.6837 0.0
C896 C 0.05467 0.01993 0.67715 0.0
C897 C 0.09944 0.01155 0.6771 0.0
C898 C 0.90964 0.02372 0.67677 0.0
C899 C 0.89129 0.02447 0.68788 0.0
C900 C 0.95392 0.01433 0.67534 0.0
C901 C 0.98009 0.00515 0.685 0.0
C902 C 0.96174 0.00693 0.6961 0.0
C903 C 0.91783 0.01677 0.69753 0.0
H904 H 0.03452 0.61518 0.9262 0.0
H905 H 0.90963 0.58902 0.94181 0.0
H906 H 0.04917 0.53644 0.92518 0.0
H907 H 0.92418 0.51062 0.94088 0.0
H908 H 0.00312 0.39211 0.95462 0.0
H909 H 0.98499 0.46898 0.95242 0.0
H910 H 0.01686 0.46225 0.91612 0.0
H911 H 0.03354 0.38412 0.91825 0.0
C912 C 0.00998 0.5924 0.92918 0.0
C913 C 0.97102 0.60762 0.93406 0.0
C914 C 0.01823 0.54762 0.92857 0.0
C915 C 0.98784 0.51777 0.93301 0.0
C916 C 0.94814 0.53314 0.93746 0.0
C917 C 0.93973 0.57776 0.93794 0.0
C918 C 0.00551 0.40678 0.94613 0.0
C919 C 0.01875 0.38211 0.93655 0.0
C920 C 0.9953 0.45073 0.94488 0.0
C921 C -0.00105 0.47114 0.93407 0.0
C922 C 0.01364 0.44699 0.92453 0.0
C923 C 0.02323 0.40258 0.92575 0.0
H924 H 0.6158 0.95049 0.06805 0.0
H925 H 0.58374 0.08115 0.05714 0.0
H926 H 0.53825 0.93424 0.07052 0.0
H927 H 0.50636 0.06517 0.0595 0.0
H928 H 0.37008 0.03194 0.07105 0.0
H929 H 0.44798 0.0475 0.07315 0.0
H930 H 0.47831 0.9244 0.05684 0.0
H931 H 0.40068 0.90909 0.05487 0.0
C932 C 0.59202 0.97581 0.06634 0.0
C933 C 0.60536 0.01697 0.06242 0.0
C934 C 0.54779 0.96655 0.0677 0.0
C935 C 0.51621 -0.00163 0.06516 0.0
C936 C 0.52988 0.04016 0.06169 0.0
C937 C 0.57409 0.04933 0.06032 0.0
C938 C 0.39365 0.00812 0.06809 0.0
C939 C 0.37981 0.96931 0.06287 0.0
C940 C 0.43806 0.01701 0.06924 0.0
C941 C 0.46926 0.98717 0.06516 0.0
C942 C 0.45514 0.9477 0.06026 0.0
C943 C 0.41078 0.93893 0.0591 0.0
H944 H 0.40361 0.40841 0.8061 0.0
H945 H 0.53088 0.37521 0.8192 0.0
H946 H 0.42011 0.48578 0.80836 0.0
H947 H 0.54772 0.45283 0.8215 0.0
H948 H 0.57714 0.5895 0.80521 0.0
H949 H 0.5609 0.51202 0.80748 0.0
H950 H 0.43575 0.54457 0.82226 0.0
H951 H 0.45233 0.62228 0.81993 0.0
C952 C 0.43474 0.41782 0.80973 0.0
C953 C 0.46602 0.38619 0.81251 0.0
C954 C 0.4442 0.46203 0.81104 0.0
C955 C 0.48526 0.47537 0.81509 0.0
C956 C 0.51598 0.44351 0.81826 0.0
C957 C 0.50639 0.39924 0.81698 0.0
C958 C 0.54665 0.57995 0.80919 0.0
C959 C 0.51599 0.61149 0.81246 0.0
C960 C 0.53733 0.53569 0.81051 0.0
C961 C 0.49702 0.52223 0.81504 0.0
C962 C 0.46691 0.554 0.81864 0.0
C963 C 0.47636 0.5983 0.81736 0.0
H964 H 0.59532 0.41172 0.19329 0.0
H965 H 0.6174 0.52809 0.17315 0.0
H966 H 0.51687 0.42535 0.19285 0.0
H967 H 0.53859 0.54207 0.17271 0.0
H968 H 0.38634 0.52543 0.16828 0.0
H969 H 0.46418 0.50857 0.16584 0.0
H970 H 0.4755 0.48769 0.20264 0.0
H971 H 0.39872 0.50544 0.20506 0.0
C972 C 0.58309 0.43966 0.18855 0.0
C973 C 0.61185 0.46882 0.1832 0.0
C974 C 0.53844 0.44763 0.18836 0.0
C975 C 0.52192 0.48489 0.18281 0.0
C976 C 0.5506 0.51298 0.17697 0.0
C977 C 0.59543 0.50512 0.17724 0.0
C978 C 0.40579 0.5175 0.1758 0.0
C979 C 0.38673 0.51605 0.18682 0.0
C980 C 0.45003 0.50783 0.17442 0.0
C981 C 0.47543 0.49616 0.18404 0.0
C982 C 0.45636 0.49562 0.19506 0.0
C983 C 0.41252 0.50574 0.19644 0.0
H984 H 0.58233 0.90863 0.43857 0.0
H985 H 0.45095 0.87438 0.42906 0.0
H986 H 0.56522 0.98571 0.43596 0.0
H987 H 0.43359 0.95162 0.42624 0.0
H988 H 0.4083 0.09021 0.44124 0.0
H989 H 0.42393 0.01254 0.43931 0.0
H990 H 0.54599 0.04331 0.42253 0.0
H991 H 0.53026 0.12122 0.42468 0.0
C992 C 0.55008 0.91774 0.43563 0.0
C993 C 0.51788 0.88595 0.434 0.0
C994 C 0.54024 0.96179 0.43411 0.0
C995 C 0.49797 0.97481 0.43092 0.0
C996 C 0.46628 0.94266 0.42884 0.0
C997 C 0.47616 0.89858 0.4304 0.0
C998 C 0.43795 0.08016 0.43691 0.0
C999 C 0.46807 0.11125 0.43305 0.0
C1000 C 0.44692 0.03577 0.43577 0.0
C1001 C 0.48626 0.02174 0.43078 0.0
C1002 C 0.51564 0.0531 0.42653 0.0
C1003 C 0.50664 0.09754 0.42769 0.0
H1004 H 0.09631 0.57288 0.55207 0.0
H1005 H 0.11948 0.45643 0.57209 0.0
H1006 H 0.01803 0.55826 0.55239 0.0
H1007 H 0.04083 0.44146 0.57241 0.0
H1008 H 0.88864 0.4581 0.57728 0.0
H1009 H 0.96668 0.47434 0.57946 0.0
H1010 H 0.97629 0.49629 0.54267 0.0
H1011 H 0.89926 0.47919 0.5405 0.0
C1012 C 0.08435 0.54463 0.55673 0.0
C1013 C 0.11337 0.5158 0.56211 0.0
C1014 C 0.0398 0.5361 0.55685 0.0
C1015 C 0.02362 0.49861 0.56236 0.0
C1016 C 0.05258 0.47071 0.56817 0.0
C1017 C 0.09731 0.47913 0.56797 0.0
C1018 C 0.90774 0.46613 0.5697 0.0
C1019 C 0.88809 0.46822 0.55876 0.0
C1020 C 0.95213 0.47542 0.57093 0.0
C1021 C 0.9771 0.48726 0.56125 0.0
C1022 C 0.95748 0.48824 0.5503 0.0
C1023 C 0.91348 0.47853 0.54906 0.0
H1024 H 0.03156 0.61505 0.30629 0.0
H1025 H 0.89915 0.5963 0.318 0.0
H1026 H 0.04733 0.53889 0.31016 0.0
H1027 H 0.91529 0.5197 0.32204 0.0
H1028 H 0.072 0.40213 0.32005 0.0
H1029 H 0.05417 0.47831 0.32397 0.0
H1030 H 0.9281 0.46037 0.3081 0.0
H1031 H 0.94546 0.38449 0.30434 0.0
C1032 C 0.00604 0.59488 0.30994 0.0
C1033 C 0.96385 0.61149 0.31162 0.0
C1034 C 0.01524 0.55124 0.31227 0.0
C1035 C 0.98242 0.52318 0.3163 0.0
C1036 C 0.94106 0.54051 0.3188 0.0
C1037 C 0.93189 0.58437 0.31653 0.0
C1038 C 0.04014 0.41423 0.31761 0.0
C1039 C 0.01047 0.38748 0.31168 0.0
C1040 C 0.02999 0.45786 0.31985 0.0
C1041 C 0.98992 0.47542 0.31625 0.0
C1042 C 0.9591 0.44779 0.31108 0.0
C1043 C 0.96928 0.40432 0.30881 0.0
H1044 H 0.40911 0.90853 0.6771 0.0
H1045 H 0.3895 0.04161 0.68823 0.0
H1046 H 0.48594 0.92447 0.67346 0.0
H1047 H 0.46582 0.05721 0.68475 0.0
H1048 H 0.60277 0.08213 0.67552 0.0
H1049 H 0.52714 0.0636 0.67115 0.0
H1050 H 0.54449 0.93814 0.68755 0.0
H1051 H 0.61976 0.95622 0.69177 0.0
C1052 C 0.42092 0.94135 0.67854 0.0
C1053 C 0.3934 0.97359 0.68315 0.0
C1054 C 0.46492 0.95043 0.67649 0.0
C1055 C 0.48202 0.99198 0.67891 0.0
C1056 C 0.45368 0.02498 0.68269 0.0
C1057 C 0.40992 0.01587 0.68481 0.0
C1058 C 0.59071 0.0502 0.67794 0.0
C1059 C 0.61701 0.02099 0.68419 0.0
C1060 C 0.54738 0.03966 0.67547 0.0
C1061 C 0.52972 -0.00037 0.67912 0.0
C1062 C 0.55711 0.96912 0.68454 0.0
C1063 C 0.60024 0.9797 0.68706 0.0
H1064 H 0.09271 0.08925 0.92815 0.0
H1065 H 0.9596 0.10956 0.93903 0.0
H1066 H 0.07632 0.0125 0.92433 0.0
H1067 H 0.94347 0.03336 0.93531 0.0
H1068 H 0.91815 0.8971 0.925 0.0
H1069 H 0.93777 0.97295 0.92116 0.0
H1070 H 0.06073 0.95342 0.93853 0.0
H1071 H 0.0415 0.87785 0.94229 0.0
C1072 C 0.05977 0.07763 0.92947 0.0
C1073 C 0.02762 0.10524 0.93407 0.0
C1074 C 0.05046 0.0337 0.92732 0.0
C1075 C 0.00872 0.01687 0.9296 0.0
C1076 C 0.97584 0.04536 0.93337 0.0
C1077 C 0.98522 0.089 0.93561 0.0
C1078 C 0.94977 0.90873 0.92777 0.0
C1079 C 0.97793 0.88168 0.93414 0.0
C1080 C 0.96093 0.95217 0.92559 0.0
C1081 C 0.00059 0.96921 0.92964 0.0
C1082 C 0.03008 0.94121 0.93522 0.0
C1083 C 0.01884 0.89794 0.93747 0.0
H1084 H 0.89489 0.07766 0.06978 0.0
H1085 H 0.87585 0.95211 0.05359 0.0
H1086 H 0.97107 0.05905 0.07343 0.0
H1087 H 0.95164 0.93385 0.05717 0.0
H1088 H 0.1081 0.0348 0.05604 0.0
H1089 H 0.03178 0.05147 0.05938 0.0
H1090 H 0.01035 0.91993 0.0715 0.0
H1091 H 0.08709 0.90295 0.06808 0.0
C1092 C 0.90666 0.04581 0.06721 0.0
C1093 C 0.87948 0.01664 0.06123 0.0
C1094 C 0.9503 0.03524 0.06927 0.0
C1095 C 0.9674 0.99514 0.06551 0.0
C1096 C 0.93939 0.96484 0.06027 0.0
C1097 C 0.89597 0.97551 0.05812 0.0
C1098 C 0.08738 0.00958 0.05961 0.0
C1099 C 0.10353 0.96733 0.06161 0.0
C1100 C 0.04365 0.01929 0.06163 0.0
C1101 C 0.015 0.98691 0.06562 0.0
C1102 C 0.03165 0.94539 0.06831 0.0
C1103 C 0.0756 0.93574 0.06638 0.0
H1104 H 0.52477 0.12545 0.8146 0.0
H1105 H 0.39384 0.08516 0.80654 0.0
H1106 H 0.5451 0.04997 0.81831 0.0
H1107 H 0.41449 0.00944 0.80901 0.0
H1108 H 0.45354 0.87328 0.81497 0.0
H1109 H 0.43326 0.94883 0.81859 0.0
H1110 H 0.56333 0.98936 0.80872 0.0
H1111 H 0.58398 0.91367 0.80633 0.0
C1112 C 0.50035 0.10018 0.81368 0.0
C1113 C 0.45785 0.11081 0.8103 0.0
C1114 C 0.51203 0.05674 0.81564 0.0
C1115 C 0.48191 0.02275 0.81374 0.0
C1116 C 0.43876 0.03408 0.81079 0.0
C1117 C 0.42675 0.07765 0.80927 0.0
C1118 C 0.47786 0.89857 0.8139 0.0
C1119 C 0.52022 0.88795 0.81038 0.0
C1120 C 0.4662 0.94204 0.81581 0.0
C1121 C 0.49618 0.97604 0.81374 0.0
C1122 C 0.53919 0.96473 0.81065 0.0
C1123 C 0.55119 0.92115 0.80917 0.0
H1124 H 0.88485 0.54101 0.19141 0.0
H1125 H 0.90204 0.41398 0.17588 0.0
H1126 H 0.96075 0.55798 0.18761 0.0
H1127 H 0.9782 0.43139 0.17193 0.0
H1128 H 0.11492 0.45368 0.18947 0.0
H1129 H 0.03875 0.43822 0.18569 0.0
H1130 H 0.02015 0.57028 0.17361 0.0
H1131 H 0.09678 0.58609 0.17753 0.0
C1132 C 0.90457 0.517 0.18697 0.0
C1133 C 0.88758 0.47578 0.18416 0.0
C1134 C 0.94806 0.52694 0.18468 0.0
C1135 C 0.97557 0.49588 0.17955 0.0
C1136 C 0.95786 0.45577 0.17602 0.0
C1137 C 0.91423 0.44586 0.17827 0.0
C1138 C 0.09488 0.47924 0.18578 0.0
C1139 C 0.11168 0.52136 0.18401 0.0
C1140 C 0.05123 0.47023 0.18351 0.0
C1141 C 0.02332 0.50317 0.17946 0.0
C1142 C 0.04082 0.54442 0.17687 0.0
C1143 C 0.08472 0.5534 0.17907 0.0
H1144 H 0.57921 0.59529 0.42804 0.0
H1145 H 0.4538 0.61711 0.44402 0.0
H1146 H 0.56003 0.51887 0.4249 0.0
H1147 H 0.43489 0.54097 0.44091 0.0
H1148 H 0.53339 0.38281 0.44276 0.0
H1149 H 0.55085 0.45925 0.4396 0.0
H1150 H 0.42126 0.48162 0.42637 0.0
H1151 H 0.40353 0.40478 0.42954 0.0
C1152 C 0.54725 0.58406 0.43067 0.0
C1153 C 0.51825 0.61211 0.43642 0.0
C1154 C 0.53638 0.5403 0.42891 0.0
C1155 C 0.49612 0.52394 0.43273 0.0
C1156 C 0.46602 0.5527 0.43778 0.0
C1157 C 0.47702 0.59627 0.43964 0.0
C1158 C 0.50878 0.40378 0.43899 0.0
C1159 C 0.46689 0.38782 0.43654 0.0
C1160 C 0.51894 0.44755 0.4371 0.0
C1161 C 0.48734 0.47642 0.43279 0.0
C1162 C 0.44611 0.46009 0.42978 0.0
C1163 C 0.43606 0.4161 0.43156 0.0
H1164 H 0.40496 0.57962 0.56984 0.0
H1165 H 0.38524 0.44901 0.55683 0.0
H1166 H 0.48133 0.5623 0.57366 0.0
H1167 H 0.46116 0.43208 0.5605 0.0
H1168 H 0.61578 0.53347 0.5554 0.0
H1169 H 0.54034 0.55099 0.55953 0.0
H1170 H 0.52178 0.42276 0.57425 0.0
H1171 H 0.59768 0.40484 0.56995 0.0
C1172 C 0.41662 0.547 0.56802 0.0
C1173 C 0.38926 0.51595 0.56282 0.0
C1174 C 0.46036 0.53715 0.57018 0.0
C1175 C 0.47734 0.49598 0.56728 0.0
C1176 C 0.44907 0.46398 0.56292 0.0
C1177 C 0.40556 0.47387 0.5607 0.0
C1178 C 0.59594 0.50921 0.55971 0.0
C1179 C 0.6125 0.46744 0.56214 0.0
C1180 C 0.55272 0.51946 0.5622 0.0
C1181 C 0.52499 0.48812 0.56713 0.0
C1182 C 0.54233 0.44738 0.57032 0.0
C1183 C 0.58579 0.43719 0.56789 0.0
H1184 H 0.21884 0.28726 0.40712 0.0
H1185 H 0.3402 0.23522 0.39425 0.0
H1186 H 0.19001 0.28879 0.38745 0.0
H1187 H 0.31179 0.23742 0.37464 0.0
H1188 H 0.26087 0.2911 0.34011 0.0
H1189 H 0.28952 0.29139 0.35981 0.0
H1190 H 0.16893 0.23596 0.37223 0.0
H1191 H 0.14069 0.23501 0.35259 0.0
C1192 C 0.23942 0.2764 0.40009 0.0
C1193 C 0.28221 0.26232 0.40219 0.0
C1194 C 0.2229 0.27716 0.38884 0.0
C1195 C 0.24882 0.26363 0.3795 0.0
C1196 C 0.29143 0.24904 0.38163 0.0
C1197 C 0.30785 0.24813 0.39288 0.0
C1198 C 0.24049 0.27909 0.34707 0.0
C1199 C 0.19808 0.26419 0.34485 0.0
C1200 C 0.25691 0.27915 0.35833 0.0
C1201 C 0.23129 0.26407 0.36757 0.0
C1202 C 0.18904 0.24874 0.36532 0.0
C1203 C 0.17271 0.24854 0.35406 0.0
H1204 H 0.23103 0.84567 0.64397 0.0
H1205 H 0.28664 0.72537 0.65663 0.0
H1206 H 0.23094 0.81661 0.62441 0.0
H1207 H 0.28568 0.69583 0.63702 0.0
H1208 H 0.23033 0.64491 0.60255 0.0
H1209 H 0.23126 0.67381 0.62213 0.0
H1210 H 0.28477 0.79488 0.60935 0.0
H1211 H 0.28472 0.76552 0.58974 0.0
C1212 C 0.24415 0.81341 0.64256 0.0
C1213 C 0.26018 0.78832 0.65179 0.0
C1214 C 0.24372 0.79661 0.63135 0.0
C1215 C 0.25869 0.75413 0.62918 0.0
C1216 C 0.27376 0.72863 0.63845 0.0
C1217 C 0.27441 0.74556 0.64966 0.0
C1218 C 0.24341 0.6772 0.60393 0.0
C1219 C 0.25877 0.70243 0.59464 0.0
C1220 C 0.24356 0.69391 0.61514 0.0
C1221 C 0.25845 0.73644 0.61728 0.0
C1222 C 0.2729 0.76204 0.60795 0.0
C1223 C 0.27297 0.74522 0.59674 0.0
H1224 H 0.83676 0.77662 0.35052 0.0
H1225 H 0.72136 0.70863 0.33914 0.0
H1226 H 0.81003 0.77499 0.37033 0.0
H1227 H 0.69423 0.70759 0.35897 0.0
H1228 H 0.64096 0.75903 0.3936 0.0
H1229 H 0.66786 0.75923 0.37375 0.0
H1230 H 0.79553 0.7218 0.38594 0.0
H1231 H 0.76832 0.72119 0.4058 0.0
C1232 C 0.80616 0.76049 0.35226 0.0
C1233 C 0.78174 0.74166 0.3433 0.0
C1234 C 0.79067 0.75986 0.36362 0.0
C1235 C 0.75019 0.74085 0.36622 0.0
C1236 C 0.72542 0.72273 0.35722 0.0
C1237 C 0.74099 0.72325 0.34588 0.0
C1238 C 0.67446 0.74978 0.392 0.0
C1239 C 0.70226 0.73874 0.40118 0.0
C1240 C 0.68995 0.7502 0.38065 0.0
C1241 C 0.73372 0.7402 0.37828 0.0
C1242 C 0.76169 0.72989 0.3875 0.0
C1243 C 0.74613 0.72934 0.39885 0.0
H1244 H 0.68477 0.17518 0.6477 0.0
H1245 H 0.80714 0.24003 0.65403 0.0
H1246 H 0.68522 0.20161 0.62784 0.0
H1247 H 0.80848 0.26563 0.63407 0.0
H1248 H 0.77561 0.34174 0.60163 0.0
H1249 H 0.77444 0.3154 0.62139 0.0
H1250 H 0.72058 0.1929 0.60971 0.0
H1251 H 0.71881 0.22068 0.58999 0.0
C1252 C 0.7122 0.19439 0.64476 0.0
C1253 C 0.74626 0.20504 0.65233 0.0
C1254 C 0.7125 0.20959 0.63338 0.0
C1255 C 0.747 0.23563 0.6293 0.0
C1256 C 0.78106 0.24622 0.63693 0.0
C1257 C 0.78048 0.23139 0.64835 0.0
C1258 C 0.76227 0.30975 0.60328 0.0
C1259 C 0.74584 0.28396 0.59425 0.0
C1260 C 0.76253 0.29417 0.61462 0.0
C1261 C 0.74714 0.25206 0.6172 0.0
C1262 C 0.73182 0.22583 0.6081 0.0
C1263 C 0.7312 0.2416 0.59677 0.0
H1264 H 0.26447 0.20948 0.9046 0.0
H1265 H 0.14606 0.27494 0.89435 0.0
H1266 H 0.28925 0.21003 0.88459 0.0
H1267 H 0.16947 0.27315 0.8743 0.0
H1268 H 0.24643 0.30494 0.84151 0.0
H1269 H 0.22133 0.30539 0.86151 0.0
H1270 H 0.27397 0.17585 0.86634 0.0
H1271 H 0.29957 0.17591 0.8464 0.0
C1272 C 0.24352 0.2236 0.89806 0.0
C1273 C 0.20276 0.24109 0.90104 0.0
C1274 C 0.25752 0.22353 0.88657 0.0
C1275 C 0.23112 0.24114 0.8778 0.0
C1276 C 0.19067 0.25936 0.88083 0.0
C1277 C 0.1768 0.2596 0.89233 0.0
C1278 C 0.25247 0.27657 0.84686 0.0
C1279 C 0.27566 0.24075 0.84249 0.0
C1280 C 0.23799 0.27672 0.85831 0.0
C1281 C 0.24591 0.24077 0.86557 0.0
C1282 C 0.26823 0.2045 0.86107 0.0
C1283 C 0.28294 0.2045 0.84965 0.0
H1284 H 0.30135 0.73904 0.15391 0.0
H1285 H 0.18194 0.66856 0.14777 0.0
H1286 H 0.30045 0.76546 0.13402 0.0
H1287 H 0.1805 0.69535 0.12794 0.0
H1288 H 0.21389 0.7176 0.08993 0.0
H1289 H 0.21713 0.68893 0.10961 0.0
H1290 H 0.26139 0.81448 0.12183 0.0
H1291 H 0.26061 0.84206 0.10215 0.0
C1292 C 0.27492 0.72922 0.14829 0.0
C1293 C 0.2422 0.7011 0.15231 0.0
C1294 C 0.27424 0.74449 0.13691 0.0
C1295 C 0.24044 0.73244 0.12936 0.0
C1296 C 0.20751 0.70451 0.13344 0.0
C1297 C 0.20838 0.68904 0.1448 0.0
C1298 C 0.22433 0.73898 0.09685 0.0
C1299 C 0.23573 0.78247 0.09453 0.0
C1300 C 0.22587 0.72269 0.10813 0.0
C1301 C 0.23914 0.7495 0.11733 0.0
C1302 C 0.25118 0.79283 0.11496 0.0
C1303 C 0.24982 0.809 0.10368 0.0
H1304 H 0.75351 0.69797 0.90285 0.0
H1305 H 0.81974 0.81972 0.89633 0.0
H1306 H 0.72538 0.69829 0.88316 0.0
H1307 H 0.79133 0.8204 0.87664 0.0
H1308 H 0.76824 0.78303 0.8387 0.0
H1309 H 0.79785 0.78255 0.85829 0.0
H1310 H 0.6741 0.73676 0.87133 0.0
H1311 H 0.64553 0.73502 0.85177 0.0
C1312 C 0.76201 0.72483 0.89719 0.0
C1313 C 0.78943 0.7584 0.90105 0.0
C1314 C 0.74575 0.72515 0.88593 0.0
C1315 C 0.75614 0.75936 0.87832 0.0
C1316 C 0.78338 0.79314 0.88222 0.0
C1317 C 0.7998 0.79269 0.89348 0.0
C1318 C 0.74743 0.77292 0.84578 0.0
C1319 C 0.70419 0.76018 0.84372 0.0
C1320 C 0.76426 0.77296 0.857 0.0
C1321 C 0.73825 0.75991 0.86639 0.0
C1322 C 0.6951 0.74682 0.86429 0.0
C1323 C 0.67837 0.74668 0.85308 0.0
H1324 H 0.81987 0.1782 0.09759 0.0
H1325 H 0.69343 0.23714 0.09283 0.0
H1326 H 0.82274 0.20672 0.11724 0.0
H1327 H 0.69595 0.26537 0.1125 0.0
H1328 H 0.73325 0.34578 0.14377 0.0
H1329 H 0.73316 0.31839 0.12408 0.0
H1330 H 0.78868 0.19683 0.13598 0.0
H1331 H 0.79095 0.22538 0.15566 0.0
C1332 C 0.79238 0.19662 0.10082 0.0
C1333 C 0.75606 0.20479 0.09378 0.0
C1334 C 0.79406 0.21308 0.11206 0.0
C1335 C 0.75949 0.23815 0.11647 0.0
C1336 C 0.72337 0.24664 0.10934 0.0
C1337 C 0.72182 0.23035 0.09809 0.0
C1338 C 0.74664 0.31375 0.14216 0.0
C1339 C 0.76337 0.28825 0.15122 0.0
C1340 C 0.74576 0.29766 0.13089 0.0
C1341 C 0.76107 0.25546 0.12844 0.0
C1342 C 0.77734 0.22975 0.13754 0.0
C1343 C 0.77832 0.24594 0.14881 0.0
loop_
_geom_bond_atom_site_label_1
_geom_bond_atom_site_label_2
_geom_bond_distance
_geom_bond_site_symmetry_2
_ccdc_geom_bond_type
Co0 O3 1.970 . S
Co0 N17 1.989 . S
Co0 O25 1.967 . S
Co0 O32 1.920 1_455 S
Co1 O4 1.966 . S
Co1 N10 2.022 . S
Co1 N18 1.993 . S
Co1 O26 1.941 . S
C2 O3 1.258 . S
C2 O4 1.263 . S
O3 Co0 1.970 . S
O3 C2 1.258 . S
O4 Co1 1.966 . S
O4 C2 1.263 . S
C5 O6 1.235 . S
C5 O32 1.289 . S
O6 C5 1.235 . S
C7 C9 1.400 . S
C7 N10 1.351 . S
C7 C12 1.501 . S
C8 C9 1.387 . S
C8 N11 1.341 . S
C9 C7 1.400 . S
C9 C8 1.387 . S
N10 Co1 2.022 . S
N10 C7 1.351 . S
N10 N11 1.365 . S
N11 C8 1.341 . S
N11 N10 1.365 . S
N11 H31 0.862 . S
C12 C7 1.501 . S
C12 H13 0.961 . S
C12 H14 0.961 . S
C12 H15 0.960 . S
H13 C12 0.961 . S
H14 C12 0.961 . S
H15 C12 0.960 . S
C16 N17 1.342 . S
C16 C20 1.401 . S
C16 C21 1.499 1_455 S
N17 Co0 1.989 . S
N17 C16 1.342 . S
N17 N18 1.388 . S
N18 Co1 1.993 . S
N18 N17 1.388 . S
N18 C19 1.346 . S
C19 N18 1.346 . S
C19 C20 1.396 . S
C19 C29 1.510 . S
C20 C16 1.401 . S
C20 C19 1.396 . S
C21 C16 1.499 1_655 S
C21 H22 0.959 . S
C21 H23 0.960 . S
C21 H24 0.961 . S
H22 C21 0.959 . S
H23 C21 0.960 . S
H24 C21 0.961 . S
O25 Co0 1.967 . S
O25 C33 1.258 . S
O26 Co1 1.941 . S
O26 C33 1.266 . S
H27 C29 0.959 . S
H28 C29 0.961 . S
C29 C19 1.510 . S
C29 H27 0.959 . S
C29 H28 0.961 . S
C29 H30 0.960 . S
H30 C29 0.960 . S
H31 N11 0.862 . S
O32 Co0 1.920 1_655 S
O32 C5 1.289 . S
C33 O25 1.258 . S
C33 O26 1.266 . S
Co34 O37 1.970 . S
Co34 N51 1.989 . S
Co34 O59 1.967 . S
Co34 O66 1.920 1_565 S
Co35 O38 1.966 . S
Co35 N44 2.022 . S
Co35 N52 1.993 . S
Co35 O60 1.941 . S
C36 O37 1.258 . S
C36 O38 1.263 . S
O37 Co34 1.970 . S
O37 C36 1.258 . S
O38 Co35 1.966 . S
O38 C36 1.263 . S
C39 O40 1.235 . S
C39 O66 1.289 . S
O40 C39 1.235 . S
C41 C43 1.400 . S
C41 N44 1.351 . S
C41 C46 1.501 . S
C42 C43 1.387 . S
C42 N45 1.341 . S
C43 C41 1.400 . S
C43 C42 1.387 . S
N44 Co35 2.022 . S
N44 C41 1.351 . S
N44 N45 1.365 . S
N45 C42 1.341 . S
N45 N44 1.365 . S
N45 H65 0.862 . S
C46 C41 1.501 . S
C46 H47 0.961 . S
C46 H48 0.961 . S
C46 H49 0.960 . S
H47 C46 0.961 . S
H48 C46 0.961 . S
H49 C46 0.960 . S
C50 N51 1.342 . S
C50 C54 1.401 . S
C50 C55 1.499 1_565 S
N51 Co34 1.989 . S
N51 C50 1.342 . S
N51 N52 1.388 . S
N52 Co35 1.993 . S
N52 N51 1.388 . S
N52 C53 1.346 . S
C53 N52 1.346 . S
C53 C54 1.396 . S
C53 C63 1.510 . S
C54 C50 1.401 . S
C54 C53 1.396 . S
C55 C50 1.499 1_545 S
C55 H56 0.959 . S
C55 H57 0.960 . S
C55 H58 0.961 . S
H56 C55 0.959 . S
H57 C55 0.960 . S
H58 C55 0.961 . S
O59 Co34 1.967 . S
O59 C67 1.258 . S
O60 Co35 1.941 . S
O60 C67 1.266 . S
H61 C63 0.959 . S
H62 C63 0.961 . S
C63 C53 1.510 . S
C63 H61 0.959 . S
C63 H62 0.961 . S
C63 H64 0.960 . S
H64 C63 0.960 . S
H65 N45 0.862 . S
O66 Co34 1.920 1_545 S
O66 C39 1.289 . S
C67 O59 1.258 . S
C67 O60 1.266 . S
Co68 O71 1.970 . S
Co68 N85 1.989 . S
Co68 O93 1.967 . S
Co68 O100 1.920 1_655 S
Co69 O72 1.966 . S
Co69 N78 2.022 . S
Co69 N86 1.993 . S
Co69 O94 1.941 . S
C70 O71 1.258 . S
C70 O72 1.263 . S
O71 Co68 1.970 . S
O71 C70 1.258 . S
O72 Co69 1.966 . S
O72 C70 1.263 . S
C73 O74 1.235 . S
C73 O100 1.289 . S
O74 C73 1.235 . S
C75 C77 1.400 . S
C75 N78 1.351 . S
C75 C80 1.501 . S
C76 C77 1.387 . S
C76 N79 1.341 . S
C77 C75 1.400 . S
C77 C76 1.387 . S
N78 Co69 2.022 . S
N78 C75 1.351 . S
N78 N79 1.365 . S
N79 C76 1.341 . S
N79 N78 1.365 . S
N79 H99 0.862 . S
C80 C75 1.501 . S
C80 H81 0.961 . S
C80 H82 0.961 . S
C80 H83 0.960 . S
H81 C80 0.961 . S
H82 C80 0.961 . S
H83 C80 0.960 . S
C84 N85 1.342 . S
C84 C88 1.401 . S
C84 C89 1.499 1_655 S
N85 Co68 1.989 . S
N85 C84 1.342 . S
N85 N86 1.388 . S
N86 Co69 1.993 . S
N86 N85 1.388 . S
N86 C87 1.346 . S
C87 N86 1.346 . S
C87 C88 1.396 . S
C87 C97 1.510 . S
C88 C84 1.401 . S
C88 C87 1.396 . S
C89 C84 1.499 1_455 S
C89 H90 0.959 . S
C89 H91 0.960 . S
C89 H92 0.961 . S
H90 C89 0.959 . S
H91 C89 0.960 . S
H92 C89 0.961 . S
O93 Co68 1.967 . S
O93 C101 1.258 . S
O94 Co69 1.941 . S
O94 C101 1.266 . S
H95 C97 0.959 . S
H96 C97 0.961 . S
C97 C87 1.510 . S
C97 H95 0.959 . S
C97 H96 0.961 . S
C97 H98 0.960 . S
H98 C97 0.960 . S
H99 N79 0.862 . S
O100 Co68 1.920 1_455 S
O100 C73 1.289 . S
C101 O93 1.258 . S
C101 O94 1.266 . S
Co102 O105 1.970 . S
Co102 N119 1.989 . S
Co102 O127 1.967 . S
Co102 O134 1.920 1_545 S
Co103 O106 1.966 . S
Co103 N112 2.022 . S
Co103 N120 1.993 . S
Co103 O128 1.941 . S
C104 O105 1.258 . S
C104 O106 1.263 . S
O105 Co102 1.970 . S
O105 C104 1.258 . S
O106 Co103 1.966 . S
O106 C104 1.263 . S
C107 O108 1.235 . S
C107 O134 1.289 . S
O108 C107 1.235 . S
C109 C111 1.400 . S
C109 N112 1.351 . S
C109 C114 1.501 . S
C110 C111 1.387 . S
C110 N113 1.341 . S
C111 C109 1.400 . S
C111 C110 1.387 . S
N112 Co103 2.022 . S
N112 C109 1.351 . S
N112 N113 1.365 . S
N113 C110 1.341 . S
N113 N112 1.365 . S
N113 H133 0.862 . S
C114 C109 1.501 . S
C114 H115 0.961 . S
C114 H116 0.961 . S
C114 H117 0.960 . S
H115 C114 0.961 . S
H116 C114 0.961 . S
H117 C114 0.960 . S
C118 N119 1.342 . S
C118 C122 1.401 . S
C118 C123 1.499 1_545 S
N119 Co102 1.989 . S
N119 C118 1.342 . S
N119 N120 1.388 . S
N120 Co103 1.993 . S
N120 N119 1.388 . S
N120 C121 1.346 . S
C121 N120 1.346 . S
C121 C122 1.396 . S
C121 C131 1.510 . S
C122 C118 1.401 . S
C122 C121 1.396 . S
C123 C118 1.499 1_565 S
C123 H124 0.959 . S
C123 H125 0.960 . S
C123 H126 0.961 . S
H124 C123 0.959 . S
H125 C123 0.960 . S
H126 C123 0.961 . S
O127 Co102 1.967 . S
O127 C135 1.258 . S
O128 Co103 1.941 . S
O128 C135 1.266 . S
H129 C131 0.959 . S
H130 C131 0.961 . S
C131 C121 1.510 . S
C131 H129 0.959 . S
C131 H130 0.961 . S
C131 H132 0.960 . S
H132 C131 0.960 . S
H133 N113 0.862 . S
O134 Co102 1.920 1_565 S
O134 C107 1.289 . S
C135 O127 1.258 . S
C135 O128 1.266 . S
Co136 O139 1.970 . S
Co136 N153 1.989 . S
Co136 O161 1.967 . S
Co136 O168 1.920 1_455 S
Co137 O140 1.966 . S
Co137 N146 2.022 . S
Co137 N154 1.993 . S
Co137 O162 1.941 . S
C138 O139 1.258 . S
C138 O140 1.263 . S
O139 Co136 1.970 . S
O139 C138 1.258 . S
O140 Co137 1.966 . S
O140 C138 1.263 . S
C141 O142 1.235 . S
C141 O168 1.289 . S
O142 C141 1.235 . S
C143 C145 1.400 . S
C143 N146 1.351 . S
C143 C148 1.501 . S
C144 C145 1.387 . S
C144 N147 1.341 . S
C145 C143 1.400 . S
C145 C144 1.387 . S
N146 Co137 2.022 . S
N146 C143 1.351 . S
N146 N147 1.365 . S
N147 C144 1.341 . S
N147 N146 1.365 . S
N147 H167 0.862 . S
C148 C143 1.501 . S
C148 H149 0.961 . S
C148 H150 0.961 . S
C148 H151 0.960 . S
H149 C148 0.961 . S
H150 C148 0.961 . S
H151 C148 0.960 . S
C152 N153 1.342 . S
C152 C156 1.401 . S
C152 C157 1.499 1_455 S
N153 Co136 1.989 . S
N153 C152 1.342 . S
N153 N154 1.388 . S
N154 Co137 1.993 . S
N154 N153 1.388 . S
N154 C155 1.346 . S
C155 N154 1.346 . S
C155 C156 1.396 . S
C155 C165 1.510 . S
C156 C152 1.401 . S
C156 C155 1.396 . S
C157 C152 1.499 1_655 S
C157 H158 0.959 . S
C157 H159 0.960 . S
C157 H160 0.961 . S
H158 C157 0.959 . S
H159 C157 0.960 . S
H160 C157 0.961 . S
O161 Co136 1.967 . S
O161 C169 1.258 . S
O162 Co137 1.941 . S
O162 C169 1.266 . S
H163 C165 0.959 . S
H164 C165 0.961 . S
C165 C155 1.510 . S
C165 H163 0.959 . S
C165 H164 0.961 . S
C165 H166 0.960 . S
H166 C165 0.960 . S
H167 N147 0.862 . S
O168 Co136 1.920 1_655 S
O168 C141 1.289 . S
C169 O161 1.258 . S
C169 O162 1.266 . S
Co170 O173 1.970 . S
Co170 N187 1.989 . S
Co170 O195 1.967 . S
Co170 O202 1.920 1_565 S
Co171 O174 1.966 . S
Co171 N180 2.022 . S
Co171 N188 1.993 . S
Co171 O196 1.941 . S
C172 O173 1.258 . S
C172 O174 1.263 . S
O173 Co170 1.970 . S
O173 C172 1.258 . S
O174 Co171 1.966 . S
O174 C172 1.263 . S
C175 O176 1.235 . S
C175 O202 1.289 . S
O176 C175 1.235 . S
C177 C179 1.400 . S
C177 N180 1.351 . S
C177 C182 1.501 . S
C178 C179 1.387 . S
C178 N181 1.341 . S
C179 C177 1.400 . S
C179 C178 1.387 . S
N180 Co171 2.022 . S
N180 C177 1.351 . S
N180 N181 1.365 . S
N181 C178 1.341 . S
N181 N180 1.365 . S
N181 H201 0.862 . S
C182 C177 1.501 . S
C182 H183 0.961 . S
C182 H184 0.961 . S
C182 H185 0.960 . S
H183 C182 0.961 . S
H184 C182 0.961 . S
H185 C182 0.960 . S
C186 N187 1.342 . S
C186 C190 1.401 . S
C186 C191 1.499 1_565 S
N187 Co170 1.989 . S
N187 C186 1.342 . S
N187 N188 1.388 . S
N188 Co171 1.993 . S
N188 N187 1.388 . S
N188 C189 1.346 . S
C189 N188 1.346 . S
C189 C190 1.396 . S
C189 C199 1.510 . S
C190 C186 1.401 . S
C190 C189 1.396 . S
C191 C186 1.499 1_545 S
C191 H192 0.959 . S
C191 H193 0.960 . S
C191 H194 0.961 . S
H192 C191 0.959 . S
H193 C191 0.960 . S
H194 C191 0.961 . S
O195 Co170 1.967 . S
O195 C203 1.258 . S
O196 Co171 1.941 . S
O196 C203 1.266 . S
H197 C199 0.959 . S
H198 C199 0.961 . S
C199 C189 1.510 . S
C199 H197 0.959 . S
C199 H198 0.961 . S
C199 H200 0.960 . S
H200 C199 0.960 . S
H201 N181 0.862 . S
O202 Co170 1.920 1_545 S
O202 C175 1.289 . S
C203 O195 1.258 . S
C203 O196 1.266 . S
Co204 O207 1.970 . S
Co204 N221 1.989 . S
Co204 O229 1.967 . S
Co204 O236 1.920 1_655 S
Co205 O208 1.966 . S
Co205 N214 2.022 . S
Co205 N222 1.993 . S
Co205 O230 1.941 . S
C206 O207 1.258 . S
C206 O208 1.263 . S
O207 Co204 1.970 . S
O207 C206 1.258 . S
O208 Co205 1.966 . S
O208 C206 1.263 . S
C209 O210 1.235 . S
C209 O236 1.289 . S
O210 C209 1.235 . S
C211 C213 1.400 . S
C211 N214 1.351 . S
C211 C216 1.501 . S
C212 C213 1.387 . S
C212 N215 1.341 . S
C213 C211 1.400 . S
C213 C212 1.387 . S
N214 Co205 2.022 . S
N214 C211 1.351 . S
N214 N215 1.365 . S
N215 C212 1.341 . S
N215 N214 1.365 . S
N215 H235 0.862 . S
C216 C211 1.501 . S
C216 H217 0.961 . S
C216 H218 0.961 . S
C216 H219 0.960 . S
H217 C216 0.961 . S
H218 C216 0.961 . S
H219 C216 0.960 . S
C220 N221 1.342 . S
C220 C224 1.401 . S
C220 C225 1.499 1_655 S
N221 Co204 1.989 . S
N221 C220 1.342 . S
N221 N222 1.388 . S
N222 Co205 1.993 . S
N222 N221 1.388 . S
N222 C223 1.346 . S
C223 N222 1.346 . S
C223 C224 1.396 . S
C223 C233 1.510 . S
C224 C220 1.401 . S
C224 C223 1.396 . S
C225 C220 1.499 1_455 S
C225 H226 0.959 . S
C225 H227 0.960 . S
C225 H228 0.961 . S
H226 C225 0.959 . S
H227 C225 0.960 . S
H228 C225 0.961 . S
O229 Co204 1.967 . S
O229 C237 1.258 . S
O230 Co205 1.941 . S
O230 C237 1.266 . S
H231 C233 0.959 . S
H232 C233 0.961 . S
C233 C223 1.510 . S
C233 H231 0.959 . S
C233 H232 0.961 . S
C233 H234 0.960 . S
H234 C233 0.960 . S
H235 N215 0.862 . S
O236 Co204 1.920 1_455 S
O236 C209 1.289 . S
C237 O229 1.258 . S
C237 O230 1.266 . S
Co238 O241 1.970 . S
Co238 N255 1.989 . S
Co238 O263 1.967 . S
Co238 O270 1.920 1_545 S
Co239 O242 1.966 . S
Co239 N248 2.022 . S
Co239 N256 1.993 . S
Co239 O264 1.941 . S
C240 O241 1.258 . S
C240 O242 1.263 . S
O241 Co238 1.970 . S
O241 C240 1.258 . S
O242 Co239 1.966 . S
O242 C240 1.263 . S
C243 O244 1.235 . S
C243 O270 1.289 . S
O244 C243 1.235 . S
C245 C247 1.400 . S
C245 N248 1.351 . S
C245 C250 1.501 . S
C246 C247 1.387 . S
C246 N249 1.341 . S
C247 C245 1.400 . S
C247 C246 1.387 . S
N248 Co239 2.022 . S
N248 C245 1.351 . S
N248 N249 1.365 . S
N249 C246 1.341 . S
N249 N248 1.365 . S
N249 H269 0.862 . S
C250 C245 1.501 . S
C250 H251 0.961 . S
C250 H252 0.961 . S
C250 H253 0.960 . S
H251 C250 0.961 . S
H252 C250 0.961 . S
H253 C250 0.960 . S
C254 N255 1.342 . S
C254 C258 1.401 . S
C254 C259 1.499 1_545 S
N255 Co238 1.989 . S
N255 C254 1.342 . S
N255 N256 1.388 . S
N256 Co239 1.993 . S
N256 N255 1.388 . S
N256 C257 1.346 . S
C257 N256 1.346 . S
C257 C258 1.396 . S
C257 C267 1.510 . S
C258 C254 1.401 . S
C258 C257 1.396 . S
C259 C254 1.499 1_565 S
C259 H260 0.959 . S
C259 H261 0.960 . S
C259 H262 0.961 . S
H260 C259 0.959 . S
H261 C259 0.960 . S
H262 C259 0.961 . S
O263 Co238 1.967 . S
O263 C271 1.258 . S
O264 Co239 1.941 . S
O264 C271 1.266 . S
H265 C267 0.959 . S
H266 C267 0.961 . S
C267 C257 1.510 . S
C267 H265 0.959 . S
C267 H266 0.961 . S
C267 H268 0.960 . S
H268 C267 0.960 . S
H269 N249 0.862 . S
O270 Co238 1.920 1_565 S
O270 C243 1.289 . S
C271 O263 1.258 . S
C271 O264 1.266 . S
Co272 O275 1.970 . S
Co272 N289 1.989 . S
Co272 O297 1.967 . S
Co272 O304 1.920 . S
Co273 O276 1.966 . S
Co273 N282 2.022 . S
Co273 N290 1.993 . S
Co273 O298 1.941 . S
C274 O275 1.258 . S
C274 O276 1.263 . S
O275 Co272 1.970 . S
O275 C274 1.258 . S
O276 Co273 1.966 . S
O276 C274 1.263 . S
C277 O278 1.235 . S
C277 O304 1.289 . S
O278 C277 1.235 . S
C279 C281 1.400 . S
C279 N282 1.351 . S
C279 C284 1.501 . S
C280 C281 1.387 . S
C280 N283 1.341 . S
C281 C279 1.400 . S
C281 C280 1.387 . S
N282 Co273 2.022 . S
N282 C279 1.351 . S
N282 N283 1.365 . S
N283 C280 1.341 . S
N283 N282 1.365 . S
N283 H303 0.862 . S
C284 C279 1.501 . S
C284 H285 0.961 . S
C284 H286 0.961 . S
C284 H287 0.960 . S
H285 C284 0.961 . S
H286 C284 0.961 . S
H287 C284 0.960 . S
C288 N289 1.342 . S
C288 C292 1.401 . S
C288 C293 1.499 . S
N289 Co272 1.989 . S
N289 C288 1.342 . S
N289 N290 1.388 . S
N290 Co273 1.993 . S
N290 N289 1.388 . S
N290 C291 1.346 . S
C291 N290 1.346 . S
C291 C292 1.396 . S
C291 C301 1.510 . S
C292 C288 1.401 . S
C292 C291 1.396 . S
C293 C288 1.499 . S
C293 H294 0.959 . S
C293 H295 0.960 . S
C293 H296 0.961 . S
H294 C293 0.959 . S
H295 C293 0.960 . S
H296 C293 0.961 . S
O297 Co272 1.967 . S
O297 C305 1.258 . S
O298 Co273 1.941 . S
O298 C305 1.266 . S
H299 C301 0.959 . S
H300 C301 0.961 . S
C301 C291 1.510 . S
C301 H299 0.959 . S
C301 H300 0.961 . S
C301 H302 0.960 . S
H302 C301 0.960 . S
H303 N283 0.862 . S
O304 Co272 1.920 . S
O304 C277 1.289 . S
C305 O297 1.258 . S
C305 O298 1.266 . S
Co306 O309 1.970 . S
Co306 N323 1.989 . S
Co306 O331 1.967 . S
Co306 O338 1.920 . S
Co307 O310 1.966 . S
Co307 N316 2.022 . S
Co307 N324 1.993 . S
Co307 O332 1.941 . S
C308 O309 1.258 . S
C308 O310 1.263 . S
O309 Co306 1.970 . S
O309 C308 1.258 . S
O310 Co307 1.966 . S
O310 C308 1.263 . S
C311 O312 1.235 . S
C311 O338 1.289 . S
O312 C311 1.235 . S
C313 C315 1.400 . S
C313 N316 1.351 . S
C313 C318 1.501 . S
C314 C315 1.387 . S
C314 N317 1.341 . S
C315 C313 1.400 . S
C315 C314 1.387 . S
N316 Co307 2.022 . S
N316 C313 1.351 . S
N316 N317 1.365 . S
N317 C314 1.341 . S
N317 N316 1.365 . S
N317 H337 0.862 . S
C318 C313 1.501 . S
C318 H319 0.961 . S
C318 H320 0.961 . S
C318 H321 0.960 . S
H319 C318 0.961 . S
H320 C318 0.961 . S
H321 C318 0.960 . S
C322 N323 1.342 . S
C322 C326 1.401 . S
C322 C327 1.499 . S
N323 Co306 1.989 . S
N323 C322 1.342 . S
N323 N324 1.388 . S
N324 Co307 1.993 . S
N324 N323 1.388 . S
N324 C325 1.346 . S
C325 N324 1.346 . S
C325 C326 1.396 . S
C325 C335 1.510 . S
C326 C322 1.401 . S
C326 C325 1.396 . S
C327 C322 1.499 . S
C327 H328 0.959 . S
C327 H329 0.960 . S
C327 H330 0.961 . S
H328 C327 0.959 . S
H329 C327 0.960 . S
H330 C327 0.961 . S
O331 Co306 1.967 . S
O331 C339 1.258 . S
O332 Co307 1.941 . S
O332 C339 1.266 . S
H333 C335 0.959 . S
H334 C335 0.961 . S
C335 C325 1.510 . S
C335 H333 0.959 . S
C335 H334 0.961 . S
C335 H336 0.960 . S
H336 C335 0.960 . S
H337 N317 0.862 . S
O338 Co306 1.920 . S
O338 C311 1.289 . S
C339 O331 1.258 . S
C339 O332 1.266 . S
Co340 O343 1.970 . S
Co340 N357 1.989 . S
Co340 O365 1.967 . S
Co340 O372 1.920 . S
Co341 O344 1.966 . S
Co341 N350 2.022 . S
Co341 N358 1.993 . S
Co341 O366 1.941 . S
C342 O343 1.258 . S
C342 O344 1.263 . S
O343 Co340 1.970 . S
O343 C342 1.258 . S
O344 Co341 1.966 . S
O344 C342 1.263 . S
C345 O346 1.235 . S
C345 O372 1.289 . S
O346 C345 1.235 . S
C347 C349 1.400 . S
C347 N350 1.351 . S
C347 C352 1.501 . S
C348 C349 1.387 . S
C348 N351 1.341 . S
C349 C347 1.400 . S
C349 C348 1.387 . S
N350 Co341 2.022 . S
N350 C347 1.351 . S
N350 N351 1.365 . S
N351 C348 1.341 . S
N351 N350 1.365 . S
N351 H371 0.862 . S
C352 C347 1.501 . S
C352 H353 0.961 . S
C352 H354 0.961 . S
C352 H355 0.960 . S
H353 C352 0.961 . S
H354 C352 0.961 . S
H355 C352 0.960 . S
C356 N357 1.342 . S
C356 C360 1.401 . S
C356 C361 1.499 . S
N357 Co340 1.989 . S
N357 C356 1.342 . S
N357 N358 1.388 . S
N358 Co341 1.993 . S
N358 N357 1.388 . S
N358 C359 1.346 . S
C359 N358 1.346 . S
C359 C360 1.396 . S
C359 C369 1.510 . S
C360 C356 1.401 . S
C360 C359 1.396 . S
C361 C356 1.499 . S
C361 H362 0.959 . S
C361 H363 0.960 . S
C361 H364 0.961 . S
H362 C361 0.959 . S
H363 C361 0.960 . S
H364 C361 0.961 . S
O365 Co340 1.967 . S
O365 C373 1.258 . S
O366 Co341 1.941 . S
O366 C373 1.266 . S
H367 C369 0.959 . S
H368 C369 0.961 . S
C369 C359 1.510 . S
C369 H367 0.959 . S
C369 H368 0.961 . S
C369 H370 0.960 . S
H370 C369 0.960 . S
H371 N351 0.862 . S
O372 Co340 1.920 . S
O372 C345 1.289 . S
C373 O365 1.258 . S
C373 O366 1.266 . S
Co374 O377 1.970 . S
Co374 N391 1.989 . S
Co374 O399 1.967 . S
Co374 O406 1.920 . S
Co375 O378 1.966 . S
Co375 N384 2.022 . S
Co375 N392 1.993 . S
Co375 O400 1.941 . S
C376 O377 1.258 . S
C376 O378 1.263 . S
O377 Co374 1.970 . S
O377 C376 1.258 . S
O378 Co375 1.966 . S
O378 C376 1.263 . S
C379 O380 1.235 . S
C379 O406 1.289 . S
O380 C379 1.235 . S
C381 C383 1.400 . S
C381 N384 1.351 . S
C381 C386 1.501 . S
C382 C383 1.387 . S
C382 N385 1.341 . S
C383 C381 1.400 . S
C383 C382 1.387 . S
N384 Co375 2.022 . S
N384 C381 1.351 . S
N384 N385 1.365 . S
N385 C382 1.341 . S
N385 N384 1.365 . S
N385 H405 0.862 . S
C386 C381 1.501 . S
C386 H387 0.961 . S
C386 H388 0.961 . S
C386 H389 0.960 . S
H387 C386 0.961 . S
H388 C386 0.961 . S
H389 C386 0.960 . S
C390 N391 1.342 . S
C390 C394 1.401 . S
C390 C395 1.499 . S
N391 Co374 1.989 . S
N391 C390 1.342 . S
N391 N392 1.388 . S
N392 Co375 1.993 . S
N392 N391 1.388 . S
N392 C393 1.346 . S
C393 N392 1.346 . S
C393 C394 1.396 . S
C393 C403 1.510 . S
C394 C390 1.401 . S
C394 C393 1.396 . S
C395 C390 1.499 . S
C395 H396 0.959 . S
C395 H397 0.960 . S
C395 H398 0.961 . S
H396 C395 0.959 . S
H397 C395 0.960 . S
H398 C395 0.961 . S
O399 Co374 1.967 . S
O399 C407 1.258 . S
O400 Co375 1.941 . S
O400 C407 1.266 . S
H401 C403 0.959 . S
H402 C403 0.961 . S
C403 C393 1.510 . S
C403 H401 0.959 . S
C403 H402 0.961 . S
C403 H404 0.960 . S
H404 C403 0.960 . S
H405 N385 0.862 . S
O406 Co374 1.920 . S
O406 C379 1.289 . S
C407 O399 1.258 . S
C407 O400 1.266 . S
Co408 O411 1.970 . S
Co408 N425 1.989 . S
Co408 O433 1.967 . S
Co408 O440 1.920 . S
Co409 O412 1.966 . S
Co409 N418 2.022 . S
Co409 N426 1.993 . S
Co409 O434 1.941 . S
C410 O411 1.258 . S
C410 O412 1.263 . S
O411 Co408 1.970 . S
O411 C410 1.258 . S
O412 Co409 1.966 . S
O412 C410 1.263 . S
C413 O414 1.235 . S
C413 O440 1.289 . S
O414 C413 1.235 . S
C415 C417 1.400 . S
C415 N418 1.351 . S
C415 C420 1.501 . S
C416 C417 1.387 . S
C416 N419 1.341 . S
C417 C415 1.400 . S
C417 C416 1.387 . S
N418 Co409 2.022 . S
N418 C415 1.351 . S
N418 N419 1.365 . S
N419 C416 1.341 . S
N419 N418 1.365 . S
N419 H439 0.862 . S
C420 C415 1.501 . S
C420 H421 0.961 . S
C420 H422 0.961 . S
C420 H423 0.960 . S
H421 C420 0.961 . S
H422 C420 0.961 . S
H423 C420 0.960 . S
C424 N425 1.342 . S
C424 C428 1.401 . S
C424 C429 1.499 . S
N425 Co408 1.989 . S
N425 C424 1.342 . S
N425 N426 1.388 . S
N426 Co409 1.993 . S
N426 N425 1.388 . S
N426 C427 1.346 . S
C427 N426 1.346 . S
C427 C428 1.396 . S
C427 C437 1.510 . S
C428 C424 1.401 . S
C428 C427 1.396 . S
C429 C424 1.499 . S
C429 H430 0.959 . S
C429 H431 0.960 . S
C429 H432 0.961 . S
H430 C429 0.959 . S
H431 C429 0.960 . S
H432 C429 0.961 . S
O433 Co408 1.967 . S
O433 C441 1.258 . S
O434 Co409 1.941 . S
O434 C441 1.266 . S
H435 C437 0.959 . S
H436 C437 0.961 . S
C437 C427 1.510 . S
C437 H435 0.959 . S
C437 H436 0.961 . S
C437 H438 0.960 . S
H438 C437 0.960 . S
H439 N419 0.862 . S
O440 Co408 1.920 . S
O440 C413 1.289 . S
C441 O433 1.258 . S
C441 O434 1.266 . S
Co442 O445 1.970 . S
Co442 N459 1.989 . S
Co442 O467 1.967 . S
Co442 O474 1.920 . S
Co443 O446 1.966 . S
Co443 N452 2.022 . S
Co443 N460 1.993 . S
Co443 O468 1.941 . S
C444 O445 1.258 . S
C444 O446 1.263 . S
O445 Co442 1.970 . S
O445 C444 1.258 . S
O446 Co443 1.966 . S
O446 C444 1.263 . S
C447 O448 1.235 . S
C447 O474 1.289 . S
O448 C447 1.235 . S
C449 C451 1.400 . S
C449 N452 1.351 . S
C449 C454 1.501 . S
C450 C451 1.387 . S
C450 N453 1.341 . S
C451 C449 1.400 . S
C451 C450 1.387 . S
N452 Co443 2.022 . S
N452 C449 1.351 . S
N452 N453 1.365 . S
N453 C450 1.341 . S
N453 N452 1.365 . S
N453 H473 0.862 . S
C454 C449 1.501 . S
C454 H455 0.961 . S
C454 H456 0.961 . S
C454 H457 0.960 . S
H455 C454 0.961 . S
H456 C454 0.961 . S
H457 C454 0.960 . S
C458 N459 1.342 . S
C458 C462 1.401 . S
C458 C463 1.499 . S
N459 Co442 1.989 . S
N459 C458 1.342 . S
N459 N460 1.388 . S
N460 Co443 1.993 . S
N460 N459 1.388 . S
N460 C461 1.346 . S
C461 N460 1.346 . S
C461 C462 1.396 . S
C461 C471 1.510 . S
C462 C458 1.401 . S
C462 C461 1.396 . S
C463 C458 1.499 . S
C463 H464 0.959 . S
C463 H465 0.960 . S
C463 H466 0.961 . S
H464 C463 0.959 . S
H465 C463 0.960 . S
H466 C463 0.961 . S
O467 Co442 1.967 . S
O467 C475 1.258 . S
O468 Co443 1.941 . S
O468 C475 1.266 . S
H469 C471 0.959 . S
H470 C471 0.961 . S
C471 C461 1.510 . S
C471 H469 0.959 . S
C471 H470 0.961 . S
C471 H472 0.960 . S
H472 C471 0.960 . S
H473 N453 0.862 . S
O474 Co442 1.920 . S
O474 C447 1.289 . S
C475 O467 1.258 . S
C475 O468 1.266 . S
Co476 O479 1.970 . S
Co476 N493 1.989 . S
Co476 O501 1.967 . S
Co476 O508 1.920 . S
Co477 O480 1.966 . S
Co477 N486 2.022 . S
Co477 N494 1.993 . S
Co477 O502 1.941 . S
C478 O479 1.258 . S
C478 O480 1.263 . S
O479 Co476 1.970 . S
O479 C478 1.258 . S
O480 Co477 1.966 . S
O480 C478 1.263 . S
C481 O482 1.235 . S
C481 O508 1.289 . S
O482 C481 1.235 . S
C483 C485 1.400 . S
C483 N486 1.351 . S
C483 C488 1.501 . S
C484 C485 1.387 . S
C484 N487 1.341 . S
C485 C483 1.400 . S
C485 C484 1.387 . S
N486 Co477 2.022 . S
N486 C483 1.351 . S
N486 N487 1.365 . S
N487 C484 1.341 . S
N487 N486 1.365 . S
N487 H507 0.862 . S
C488 C483 1.501 . S
C488 H489 0.961 . S
C488 H490 0.961 . S
C488 H491 0.960 . S
H489 C488 0.961 . S
H490 C488 0.961 . S
H491 C488 0.960 . S
C492 N493 1.342 . S
C492 C496 1.401 . S
C492 C497 1.499 . S
N493 Co476 1.989 . S
N493 C492 1.342 . S
N493 N494 1.388 . S
N494 Co477 1.993 . S
N494 N493 1.388 . S
N494 C495 1.346 . S
C495 N494 1.346 . S
C495 C496 1.396 . S
C495 C505 1.510 . S
C496 C492 1.401 . S
C496 C495 1.396 . S
C497 C492 1.499 . S
C497 H498 0.959 . S
C497 H499 0.960 . S
C497 H500 0.961 . S
H498 C497 0.959 . S
H499 C497 0.960 . S
H500 C497 0.961 . S
O501 Co476 1.967 . S
O501 C509 1.258 . S
O502 Co477 1.941 . S
O502 C509 1.266 . S
H503 C505 0.959 . S
H504 C505 0.961 . S
C505 C495 1.510 . S
C505 H503 0.959 . S
C505 H504 0.961 . S
C505 H506 0.960 . S
H506 C505 0.960 . S
H507 N487 0.862 . S
O508 Co476 1.920 . S
O508 C481 1.289 . S
C509 O501 1.258 . S
C509 O502 1.266 . S
Co510 O513 1.970 . S
Co510 N527 1.989 . S
Co510 O535 1.967 . S
Co510 O542 1.920 . S
Co511 O514 1.966 . S
Co511 N520 2.022 . S
Co511 N528 1.993 . S
Co511 O536 1.941 . S
C512 O513 1.258 . S
C512 O514 1.263 . S
O513 Co510 1.970 . S
O513 C512 1.258 . S
O514 Co511 1.966 . S
O514 C512 1.263 . S
C515 O516 1.235 . S
C515 O542 1.289 . S
O516 C515 1.235 . S
C517 C519 1.400 . S
C517 N520 1.351 . S
C517 C522 1.501 . S
C518 C519 1.387 . S
C518 N521 1.341 . S
C519 C517 1.400 . S
C519 C518 1.387 . S
N520 Co511 2.022 . S
N520 C517 1.351 . S
N520 N521 1.365 . S
N521 C518 1.341 . S
N521 N520 1.365 . S
N521 H541 0.862 . S
C522 C517 1.501 . S
C522 H523 0.961 . S
C522 H524 0.961 . S
C522 H525 0.960 . S
H523 C522 0.961 . S
H524 C522 0.961 . S
H525 C522 0.960 . S
C526 N527 1.342 . S
C526 C530 1.401 . S
C526 C531 1.499 . S
N527 Co510 1.989 . S
N527 C526 1.342 . S
N527 N528 1.388 . S
N528 Co511 1.993 . S
N528 N527 1.388 . S
N528 C529 1.346 . S
C529 N528 1.346 . S
C529 C530 1.396 . S
C529 C539 1.510 . S
C530 C526 1.401 . S
C530 C529 1.396 . S
C531 C526 1.499 . S
C531 H532 0.959 . S
C531 H533 0.960 . S
C531 H534 0.961 . S
H532 C531 0.959 . S
H533 C531 0.960 . S
H534 C531 0.961 . S
O535 Co510 1.967 . S
O535 C543 1.258 . S
O536 Co511 1.941 . S
O536 C543 1.266 . S
H537 C539 0.959 . S
H538 C539 0.961 . S
C539 C529 1.510 . S
C539 H537 0.959 . S
C539 H538 0.961 . S
C539 H540 0.960 . S
H540 C539 0.960 . S
H541 N521 0.862 . S
O542 Co510 1.920 . S
O542 C515 1.289 . S
C543 O535 1.258 . S
C543 O536 1.266 . S
H544 C552 0.950 . S
H545 C557 0.950 . S
H546 C554 0.950 . S
H547 C556 0.950 . S
H548 C558 0.950 . S
H549 C560 0.950 . S
H550 C562 0.950 . S
H551 C563 0.950 . S
C552 H544 0.950 . S
C552 C553 1.386 . S
C552 C554 1.391 . S
C553 C552 1.386 . S
C553 C557 1.393 . S
C554 H546 0.950 . S
C554 C552 1.391 . S
C554 C555 1.400 . S
C555 C554 1.400 . S
C555 C556 1.398 . S
C555 C561 1.491 . S
C556 H547 0.950 . S
C556 C555 1.398 . S
C556 C557 1.391 . S
C557 H545 0.950 . S
C557 C553 1.393 . S
C557 C556 1.391 . S
C558 H548 0.950 . S
C558 C559 1.386 . S
C558 C560 1.391 . S
C559 C558 1.386 . S
C559 C563 1.393 . S
C560 H549 0.950 . S
C560 C558 1.391 . S
C560 C561 1.400 . S
C561 C555 1.491 . S
C561 C560 1.400 . S
C561 C562 1.398 . S
C562 H550 0.950 . S
C562 C561 1.398 . S
C562 C563 1.391 . S
C563 H551 0.950 . S
C563 C559 1.393 . S
C563 C562 1.391 . S
H564 C572 0.950 . S
H565 C577 0.950 . S
H566 C574 0.950 . S
H567 C576 0.950 . S
H568 C578 0.950 . S
H569 C580 0.950 . S
H570 C582 0.950 . S
H571 C583 0.950 . S
C572 H564 0.950 . S
C572 C573 1.386 . S
C572 C574 1.391 . S
C573 C572 1.386 . S
C573 C577 1.393 . S
C574 H566 0.950 . S
C574 C572 1.391 . S
C574 C575 1.400 . S
C575 C574 1.400 . S
C575 C576 1.398 . S
C575 C581 1.491 . S
C576 H567 0.950 . S
C576 C575 1.398 . S
C576 C577 1.391 . S
C577 H565 0.950 . S
C577 C573 1.393 . S
C577 C576 1.391 . S
C578 H568 0.950 . S
C578 C579 1.386 . S
C578 C580 1.391 . S
C579 C578 1.386 . S
C579 C583 1.393 . S
C580 H569 0.950 . S
C580 C578 1.391 . S
C580 C581 1.400 . S
C581 C575 1.491 . S
C581 C580 1.400 . S
C581 C582 1.398 . S
C582 H570 0.950 . S
C582 C581 1.398 . S
C582 C583 1.391 . S
C583 H571 0.950 . S
C583 C579 1.393 . S
C583 C582 1.391 . S
H584 C592 0.950 . S
H585 C597 0.950 . S
H586 C594 0.950 . S
H587 C596 0.950 . S
H588 C598 0.950 . S
H589 C600 0.950 . S
H590 C602 0.950 . S
H591 C603 0.950 . S
C592 H584 0.950 . S
C592 C593 1.386 . S
C592 C594 1.391 . S
C593 C592 1.386 . S
C593 C597 1.393 . S
C594 H586 0.950 . S
C594 C592 1.391 . S
C594 C595 1.400 . S
C595 C594 1.400 . S
C595 C596 1.398 . S
C595 C601 1.491 . S
C596 H587 0.950 . S
C596 C595 1.398 . S
C596 C597 1.391 . S
C597 H585 0.950 . S
C597 C593 1.393 . S
C597 C596 1.391 . S
C598 H588 0.950 . S
C598 C599 1.386 . S
C598 C600 1.391 . S
C599 C598 1.386 . S
C599 C603 1.393 . S
C600 H589 0.950 . S
C600 C598 1.391 . S
C600 C601 1.400 . S
C601 C595 1.491 . S
C601 C600 1.400 . S
C601 C602 1.398 . S
C602 H590 0.950 . S
C602 C601 1.398 . S
C602 C603 1.391 . S
C603 H591 0.950 . S
C603 C599 1.393 . S
C603 C602 1.391 . S
H604 C612 0.950 . S
H605 C617 0.950 . S
H606 C614 0.950 . S
H607 C616 0.950 . S
H608 C618 0.950 . S
H609 C620 0.950 . S
H610 C622 0.950 . S
H611 C623 0.950 . S
C612 H604 0.950 . S
C612 C613 1.386 . S
C612 C614 1.391 . S
C613 C612 1.386 . S
C613 C617 1.393 . S
C614 H606 0.950 . S
C614 C612 1.391 . S
C614 C615 1.400 . S
C615 C614 1.400 . S
C615 C616 1.398 . S
C615 C621 1.491 . S
C616 H607 0.950 . S
C616 C615 1.398 . S
C616 C617 1.391 . S
C617 H605 0.950 . S
C617 C613 1.393 . S
C617 C616 1.391 . S
C618 H608 0.950 . S
C618 C619 1.386 . S
C618 C620 1.391 . S
C619 C618 1.386 . S
C619 C623 1.393 . S
C620 H609 0.950 . S
C620 C618 1.391 . S
C620 C621 1.400 . S
C621 C615 1.491 . S
C621 C620 1.400 . S
C621 C622 1.398 . S
C622 H610 0.950 . S
C622 C621 1.398 . S
C622 C623 1.391 . S
C623 H611 0.950 . S
C623 C619 1.393 . S
C623 C622 1.391 . S
H624 C632 0.950 . S
H625 C637 0.950 . S
H626 C634 0.867 1_556 S
H627 C636 0.950 . S
H628 C638 0.950 . S
H629 C640 1.028 . S
H630 C642 0.950 . S
H631 C643 0.950 . S
C632 H624 0.950 . S
C632 C633 1.386 . S
C632 C634 1.470 . S
C633 C632 1.386 . S
C633 C637 1.393 . S
C634 H626 0.867 1_554 S
C634 C632 1.470 . S
C634 C635 1.409 . S
C635 C634 1.409 . S
C635 C636 1.398 . S
C635 C641 1.491 1_554 S
C636 H627 0.950 . S
C636 C635 1.398 . S
C636 C637 1.391 . S
C637 H625 0.950 . S
C637 C633 1.393 . S
C637 C636 1.391 . S
C638 H628 0.950 . S
C638 C639 1.386 . S
C638 C640 1.391 . S
C639 C638 1.386 . S
C639 C643 1.393 . S
C640 H629 1.028 . S
C640 C638 1.391 . S
C640 C641 1.400 . S
C641 C635 1.491 1_556 S
C641 C640 1.400 . S
C641 C642 1.398 . S
C642 H630 0.950 . S
C642 C641 1.398 . S
C642 C643 1.391 . S
C643 H631 0.950 . S
C643 C639 1.393 . S
C643 C642 1.391 . S
H644 C652 0.950 . S
H645 C657 0.950 . S
H646 C654 0.950 . S
H647 C656 0.950 . S
H648 C658 0.950 . S
H649 C660 0.950 . S
H650 C662 0.950 . S
H651 C663 0.950 . S
C652 H644 0.950 . S
C652 C653 1.386 . S
C652 C654 1.391 . S
C653 C652 1.386 . S
C653 C657 1.393 . S
C654 H646 0.950 . S
C654 C652 1.391 . S
C654 C655 1.400 . S
C655 C654 1.400 . S
C655 C656 1.398 . S
C655 C661 1.491 1_556 S
C656 H647 0.950 . S
C656 C655 1.398 . S
C656 C657 1.391 . S
C657 H645 0.950 . S
C657 C653 1.393 . S
C657 C656 1.391 . S
C658 H648 0.950 . S
C658 C659 1.386 . S
C658 C660 1.391 . S
C659 C658 1.386 . S
C659 C663 1.393 . S
C660 H649 0.950 . S
C660 C658 1.391 . S
C660 C661 1.400 . S
C661 C655 1.491 1_554 S
C661 C660 1.400 . S
C661 C662 1.398 . S
C662 H650 0.950 . S
C662 C661 1.398 . S
C662 C663 1.391 . S
C663 H651 0.950 . S
C663 C659 1.393 . S
C663 C662 1.391 . S
H664 C672 0.950 . S
H665 C677 0.950 . S
H666 C674 0.950 . S
H667 C676 0.950 . S
H668 C678 0.950 . S
H669 C680 0.950 . S
H670 C682 0.950 1_556 S
H671 C683 0.950 . S
C672 H664 0.950 . S
C672 C673 1.386 . S
C672 C674 1.391 . S
C673 C672 1.386 . S
C673 C677 1.393 . S
C674 H666 0.950 . S
C674 C672 1.391 . S
C674 C675 1.400 . S
C675 C674 1.400 . S
C675 C676 1.398 . S
C675 C681 1.491 1_556 S
C676 H667 0.950 . S
C676 C675 1.398 . S
C676 C677 1.391 . S
C677 H665 0.950 . S
C677 C673 1.393 . S
C677 C676 1.391 . S
C678 H668 0.950 . S
C678 C679 1.386 . S
C678 C680 1.391 . S
C679 C678 1.386 . S
C679 C683 1.393 . S
C680 H669 0.950 . S
C680 C678 1.391 . S
C680 C681 1.400 . S
C681 C675 1.491 1_554 S
C681 C680 1.400 . S
C681 C682 1.398 . S
C682 H670 0.950 1_554 S
C682 C681 1.398 . S
C682 C683 1.391 . S
C683 H671 0.950 . S
C683 C679 1.393 . S
C683 C682 1.391 . S
H684 C692 0.950 . S
H685 C697 0.950 . S
H686 C694 0.950 . S
H687 C696 0.950 . S
H688 C698 0.950 . S
H689 C700 0.950 . S
H690 C702 0.950 . S
H691 C703 0.950 . S
C692 H684 0.950 . S
C692 C693 1.386 . S
C692 C694 1.391 . S
C693 C692 1.386 . S
C693 C697 1.393 . S
C694 H686 0.950 . S
C694 C692 1.391 . S
C694 C695 1.400 . S
C695 C694 1.400 . S
C695 C696 1.398 . S
C695 C701 1.491 1_554 S
C696 H687 0.950 . S
C696 C695 1.398 . S
C696 C697 1.391 . S
C697 H685 0.950 . S
C697 C693 1.393 . S
C697 C696 1.391 . S
C698 H688 0.950 . S
C698 C699 1.386 . S
C698 C700 1.391 . S
C699 C698 1.386 . S
C699 C703 1.393 . S
C700 H689 0.950 . S
C700 C698 1.391 . S
C700 C701 1.400 . S
C701 C695 1.491 1_556 S
C701 C700 1.400 . S
C701 C702 1.398 . S
C702 H690 0.950 . S
C702 C701 1.398 . S
C702 C703 1.391 . S
C703 H691 0.950 . S
C703 C699 1.393 . S
C703 C702 1.391 . S
H704 C712 0.950 . S
H705 C717 0.950 . S
H706 C714 0.950 . S
H707 C716 0.950 . S
H708 C718 0.950 . S
H709 C720 0.950 . S
H710 C722 0.950 . S
H711 C723 0.950 . S
C712 H704 0.950 . S
C712 C713 1.386 . S
C712 C714 1.391 . S
C713 C712 1.386 . S
C713 C717 1.393 . S
C714 H706 0.950 . S
C714 C712 1.391 . S
C714 C715 1.400 . S
C715 C714 1.400 . S
C715 C716 1.398 . S
C715 C721 1.491 . S
C716 H707 0.950 . S
C716 C715 1.398 . S
C716 C717 1.391 . S
C717 H705 0.950 . S
C717 C713 1.393 . S
C717 C716 1.391 . S
C718 H708 0.950 . S
C718 C719 1.386 . S
C718 C720 1.391 . S
C719 C718 1.386 . S
C719 C723 1.393 . S
C720 H709 0.950 . S
C720 C718 1.391 . S
C720 C721 1.400 . S
C721 C715 1.491 . S
C721 C720 1.400 . S
C721 C722 1.398 . S
C722 H710 0.950 . S
C722 C721 1.398 . S
C722 C723 1.391 . S
C723 H711 0.950 . S
C723 C719 1.393 . S
C723 C722 1.391 . S
H724 C732 0.950 . S
H725 C737 0.950 . S
H726 C734 0.950 . S
H727 C736 0.950 . S
H728 C738 0.950 . S
H729 C740 0.950 . S
H730 C742 0.950 . S
H731 C743 0.950 . S
C732 H724 0.950 . S
C732 C733 1.386 . S
C732 C734 1.391 . S
C733 C732 1.386 . S
C733 C737 1.393 . S
C734 H726 0.950 . S
C734 C732 1.391 . S
C734 C735 1.400 . S
C735 C734 1.400 . S
C735 C736 1.398 . S
C735 C741 1.491 . S
C736 H727 0.950 . S
C736 C735 1.398 . S
C736 C737 1.391 . S
C737 H725 0.950 . S
C737 C733 1.393 . S
C737 C736 1.391 . S
C738 H728 0.950 . S
C738 C739 1.386 . S
C738 C740 1.391 . S
C739 C738 1.386 . S
C739 C743 1.393 . S
C740 H729 0.950 . S
C740 C738 1.391 . S
C740 C741 1.400 . S
C741 C735 1.491 . S
C741 C740 1.400 . S
C741 C742 1.398 . S
C742 H730 0.950 . S
C742 C741 1.398 . S
C742 C743 1.391 . S
C743 H731 0.950 . S
C743 C739 1.393 . S
C743 C742 1.391 . S
H744 C752 0.950 . S
H745 C757 0.950 . S
H746 C754 0.950 . S
H747 C756 0.950 . S
H748 C758 0.950 . S
H749 C760 0.950 . S
H750 C762 0.950 . S
H751 C763 0.950 . S
C752 H744 0.950 . S
C752 C753 1.386 . S
C752 C754 1.391 . S
C753 C752 1.386 . S
C753 C757 1.393 . S
C754 H746 0.950 . S
C754 C752 1.391 . S
C754 C755 1.400 . S
C755 C754 1.400 . S
C755 C756 1.398 . S
C755 C761 1.491 . S
C756 H747 0.950 . S
C756 C755 1.398 . S
C756 C757 1.391 . S
C757 H745 0.950 . S
C757 C753 1.393 . S
C757 C756 1.391 . S
C758 H748 0.950 . S
C758 C759 1.386 . S
C758 C760 1.391 . S
C759 C758 1.386 . S
C759 C763 1.393 . S
C760 H749 0.950 . S
C760 C758 1.391 . S
C760 C761 1.400 . S
C761 C755 1.491 . S
C761 C760 1.400 . S
C761 C762 1.398 . S
C762 H750 0.950 . S
C762 C761 1.398 . S
C762 C763 1.391 . S
C763 H751 0.950 . S
C763 C759 1.393 . S
C763 C762 1.391 . S
H764 C772 0.950 . S
H765 C777 0.950 . S
H766 C774 0.950 . S
H767 C776 0.950 . S
H768 C778 0.950 . S
H769 C780 0.950 . S
H770 C782 0.950 . S
H771 C783 0.950 . S
C772 H764 0.950 . S
C772 C773 1.386 . S
C772 C774 1.391 . S
C773 C772 1.386 . S
C773 C777 1.393 . S
C774 H766 0.950 . S
C774 C772 1.391 . S
C774 C775 1.400 . S
C775 C774 1.400 . S
C775 C776 1.398 . S
C775 C781 1.491 . S
C776 H767 0.950 . S
C776 C775 1.398 . S
C776 C777 1.391 . S
C777 H765 0.950 . S
C777 C773 1.393 . S
C777 C776 1.391 . S
C778 H768 0.950 . S
C778 C779 1.386 . S
C778 C780 1.391 . S
C779 C778 1.386 . S
C779 C783 1.393 . S
C780 H769 0.950 . S
C780 C778 1.391 . S
C780 C781 1.400 . S
C781 C775 1.491 . S
C781 C780 1.400 . S
C781 C782 1.398 . S
C782 H770 0.950 . S
C782 C781 1.398 . S
C782 C783 1.391 . S
C783 H771 0.950 . S
C783 C779 1.393 . S
C783 C782 1.391 . S
H784 C792 0.950 . S
H785 C797 0.950 . S
H786 C794 0.950 . S
H787 C796 0.950 . S
H788 C798 0.950 . S
H789 C800 0.950 . S
H790 C802 0.950 . S
H791 C803 0.950 . S
C792 H784 0.950 . S
C792 C793 1.386 . S
C792 C794 1.391 . S
C793 C792 1.386 . S
C793 C797 1.393 . S
C794 H786 0.950 . S
C794 C792 1.391 . S
C794 C795 1.400 . S
C795 C794 1.400 . S
C795 C796 1.398 . S
C795 C801 1.491 . S
C796 H787 0.950 . S
C796 C795 1.398 . S
C796 C797 1.391 . S
C797 H785 0.950 . S
C797 C793 1.393 . S
C797 C796 1.391 . S
C798 H788 0.950 . S
C798 C799 1.386 . S
C798 C800 1.391 . S
C799 C798 1.386 . S
C799 C803 1.393 . S
C800 H789 0.950 . S
C800 C798 1.391 . S
C800 C801 1.400 . S
C801 C795 1.491 . S
C801 C800 1.400 . S
C801 C802 1.398 . S
C802 H790 0.950 . S
C802 C801 1.398 . S
C802 C803 1.391 . S
C803 H791 0.950 . S
C803 C799 1.393 . S
C803 C802 1.391 . S
H804 C812 0.950 . S
H805 C817 0.950 . S
H806 C814 0.950 . S
H807 C816 0.950 . S
H808 C818 0.950 . S
H809 C820 0.950 . S
H810 C822 0.950 . S
H811 C823 0.950 . S
C812 H804 0.950 . S
C812 C813 1.386 . S
C812 C814 1.391 . S
C813 C812 1.386 . S
C813 C817 1.393 . S
C814 H806 0.950 . S
C814 C812 1.391 . S
C814 C815 1.400 . S
C815 C814 1.400 . S
C815 C816 1.398 . S
C815 C821 1.491 . S
C816 H807 0.950 . S
C816 C815 1.398 . S
C816 C817 1.391 . S
C817 H805 0.950 . S
C817 C813 1.393 . S
C817 C816 1.391 . S
C818 H808 0.950 . S
C818 C819 1.386 . S
C818 C820 1.391 . S
C819 C818 1.386 . S
C819 C823 1.393 . S
C820 H809 0.950 . S
C820 C818 1.391 . S
C820 C821 1.400 . S
C821 C815 1.491 . S
C821 C820 1.400 . S
C821 C822 1.398 . S
C822 H810 0.950 . S
C822 C821 1.398 . S
C822 C823 1.391 . S
C823 H811 0.950 . S
C823 C819 1.393 . S
C823 C822 1.391 . S
H824 C832 0.950 . S
H825 C837 0.950 . S
H826 C834 0.950 . S
H827 C836 0.950 . S
H828 C838 0.950 . S
H829 C840 0.950 . S
H830 C842 0.950 . S
H831 C843 0.950 . S
C832 H824 0.950 . S
C832 C833 1.386 . S
C832 C834 1.391 . S
C833 C832 1.386 . S
C833 C837 1.393 . S
C834 H826 0.950 . S
C834 C832 1.391 . S
C834 C835 1.400 . S
C835 C834 1.400 . S
C835 C836 1.398 . S
C835 C841 1.491 . S
C836 H827 0.950 . S
C836 C835 1.398 . S
C836 C837 1.391 . S
C837 H825 0.950 . S
C837 C833 1.393 . S
C837 C836 1.391 . S
C838 H828 0.950 . S
C838 C839 1.386 . S
C838 C840 1.391 . S
C839 C838 1.386 . S
C839 C843 1.393 . S
C840 H829 0.950 . S
C840 C838 1.391 . S
C840 C841 1.400 . S
C841 C835 1.491 . S
C841 C840 1.400 . S
C841 C842 1.398 . S
C842 H830 0.950 . S
C842 C841 1.398 . S
C842 C843 1.391 . S
C843 H831 0.950 . S
C843 C839 1.393 . S
C843 C842 1.391 . S
H844 C852 0.950 . S
H845 C857 0.950 . S
H846 C854 0.950 . S
H847 C856 0.950 . S
H848 C858 0.950 . S
H849 C860 0.950 . S
H850 C862 0.950 . S
H851 C863 0.950 . S
C852 H844 0.950 . S
C852 C853 1.386 . S
C852 C854 1.391 . S
C853 C852 1.386 . S
C853 C857 1.393 . S
C854 H846 0.950 . S
C854 C852 1.391 . S
C854 C855 1.400 . S
C855 C854 1.400 . S
C855 C856 1.398 . S
C855 C861 1.491 . S
C856 H847 0.950 . S
C856 C855 1.398 . S
C856 C857 1.391 . S
C857 H845 0.950 . S
C857 C853 1.393 . S
C857 C856 1.391 . S
C858 H848 0.950 . S
C858 C859 1.386 . S
C858 C860 1.391 . S
C859 C858 1.386 . S
C859 C863 1.393 . S
C860 H849 0.950 . S
C860 C858 1.391 . S
C860 C861 1.400 . S
C861 C855 1.491 . S
C861 C860 1.400 . S
C861 C862 1.398 . S
C862 H850 0.950 . S
C862 C861 1.398 . S
C862 C863 1.391 . S
C863 H851 0.950 . S
C863 C859 1.393 . S
C863 C862 1.391 . S
H864 C872 0.950 . S
H865 C877 0.950 . S
H866 C874 0.950 . S
H867 C876 0.950 . S
H868 C878 0.950 . S
H869 C880 0.950 . S
H870 C882 0.950 . S
H871 C883 0.950 . S
C872 H864 0.950 . S
C872 C873 1.386 . S
C872 C874 1.391 . S
C873 C872 1.386 . S
C873 C877 1.393 . S
C874 H866 0.950 . S
C874 C872 1.391 . S
C874 C875 1.400 . S
C875 C874 1.400 . S
C875 C876 1.398 . S
C875 C881 1.491 1_445 S
C876 H867 0.950 . S
C876 C875 1.398 . S
C876 C877 1.391 . S
C877 H865 0.950 . S
C877 C873 1.393 . S
C877 C876 1.391 . S
C878 H868 0.950 . S
C878 C879 1.386 . S
C878 C880 1.391 . S
C879 C878 1.386 . S
C879 C883 1.393 . S
C880 H869 0.950 . S
C880 C878 1.391 . S
C880 C881 1.400 . S
C881 C875 1.491 1_665 S
C881 C880 1.400 . S
C881 C882 1.398 . S
C882 H870 0.950 . S
C882 C881 1.398 . S
C882 C883 1.391 . S
C883 H871 0.950 . S
C883 C879 1.393 . S
C883 C882 1.391 . S
H884 C892 0.950 . S
H885 C897 0.950 . S
H886 C894 0.950 . S
H887 C896 0.950 . S
H888 C898 0.950 . S
H889 C900 0.950 . S
H890 C902 0.950 . S
H891 C903 0.950 . S
C892 H884 0.950 . S
C892 C893 1.386 . S
C892 C894 1.391 . S
C893 C892 1.386 . S
C893 C897 1.393 . S
C894 H886 0.950 . S
C894 C892 1.391 . S
C894 C895 1.400 . S
C895 C894 1.400 . S
C895 C896 1.398 1_565 S
C895 C901 1.491 1_465 S
C896 H887 0.950 . S
C896 C895 1.398 1_545 S
C896 C897 1.391 1_545 S
C897 H885 0.950 . S
C897 C893 1.393 . S
C897 C896 1.391 1_565 S
C898 H888 0.950 . S
C898 C899 1.386 . S
C898 C900 1.391 . S
C899 C898 1.386 . S
C899 C903 1.393 . S
C900 H889 0.950 . S
C900 C898 1.391 . S
C900 C901 1.400 . S
C901 C895 1.491 1_645 S
C901 C900 1.400 . S
C901 C902 1.398 1_545 S
C902 H890 0.950 . S
C902 C901 1.398 1_565 S
C902 C903 1.391 1_565 S
C903 H891 0.950 . S
C903 C899 1.393 . S
C903 C902 1.391 1_545 S
H904 C912 0.950 . S
H905 C917 0.950 . S
H906 C914 0.950 . S
H907 C916 0.950 . S
H908 C918 0.950 . S
H909 C920 0.950 . S
H910 C922 0.950 . S
H911 C923 0.950 . S
C912 H904 0.950 . S
C912 C913 1.386 . S
C912 C914 1.391 1_655 S
C913 C912 1.386 . S
C913 C917 1.393 . S
C914 H906 0.950 . S
C914 C912 1.391 1_455 S
C914 C915 1.400 1_455 S
C915 C914 1.400 1_655 S
C915 C916 1.398 . S
C915 C921 1.491 1_655 S
C916 H907 0.950 . S
C916 C915 1.398 . S
C916 C917 1.391 . S
C917 H905 0.950 . S
C917 C913 1.393 . S
C917 C916 1.391 . S
C918 H908 0.950 . S
C918 C919 1.386 . S
C918 C920 1.391 1_455 S
C919 C918 1.386 . S
C919 C923 1.393 . S
C920 H909 0.950 . S
C920 C918 1.391 1_655 S
C920 C921 1.400 1_655 S
C921 C915 1.491 1_455 S
C921 C920 1.400 1_455 S
C921 C922 1.398 . S
C922 H910 0.950 . S
C922 C921 1.398 . S
C922 C923 1.391 . S
C923 H911 0.950 . S
C923 C919 1.393 . S
C923 C922 1.391 . S
H924 C932 0.950 . S
H925 C937 0.950 . S
H926 C934 0.950 . S
H927 C936 0.950 . S
H928 C938 0.950 . S
H929 C940 0.950 . S
H930 C942 0.950 . S
H931 C943 0.950 . S
C932 H924 0.950 . S
C932 C933 1.386 1_565 S
C932 C934 1.391 . S
C933 C932 1.386 1_545 S
C933 C937 1.393 . S
C934 H926 0.950 . S
C934 C932 1.391 . S
C934 C935 1.400 1_565 S
C935 C934 1.400 1_545 S
C935 C936 1.398 . S
C935 C941 1.491 1_545 S
C936 H927 0.950 . S
C936 C935 1.398 . S
C936 C937 1.391 . S
C937 H925 0.950 . S
C937 C933 1.393 . S
C937 C936 1.391 . S
C938 H928 0.950 . S
C938 C939 1.386 1_545 S
C938 C940 1.391 . S
C939 C938 1.386 1_565 S
C939 C943 1.393 . S
C940 H929 0.950 . S
C940 C938 1.391 . S
C940 C941 1.400 1_545 S
C941 C935 1.491 1_565 S
C941 C940 1.400 1_565 S
C941 C942 1.398 . S
C942 H930 0.950 . S
C942 C941 1.398 . S
C942 C943 1.391 . S
C943 H931 0.950 . S
C943 C939 1.393 . S
C943 C942 1.391 . S
H944 C952 0.950 . S
H945 C957 0.950 . S
H946 C954 0.950 . S
H947 C956 0.950 . S
H948 C958 0.950 . S
H949 C960 0.950 . S
H950 C962 0.950 . S
H951 C963 0.950 . S
C952 H944 0.950 . S
C952 C953 1.386 . S
C952 C954 1.391 . S
C953 C952 1.386 . S
C953 C957 1.393 . S
C954 H946 0.950 . S
C954 C952 1.391 . S
C954 C955 1.400 . S
C955 C954 1.400 . S
C955 C956 1.398 . S
C955 C961 1.491 . S
C956 H947 0.950 . S
C956 C955 1.398 . S
C956 C957 1.391 . S
C957 H945 0.950 . S
C957 C953 1.393 . S
C957 C956 1.391 . S
C958 H948 0.950 . S
C958 C959 1.386 . S
C958 C960 1.391 . S
C959 C958 1.386 . S
C959 C963 1.393 . S
C960 H949 0.950 . S
C960 C958 1.391 . S
C960 C961 1.400 . S
C961 C955 1.491 . S
C961 C960 1.400 . S
C961 C962 1.398 . S
C962 H950 0.950 . S
C962 C961 1.398 . S
C962 C963 1.391 . S
C963 H951 0.950 . S
C963 C959 1.393 . S
C963 C962 1.391 . S
H964 C972 0.950 . S
H965 C977 0.950 . S
H966 C974 0.950 . S
H967 C976 0.950 . S
H968 C978 0.950 . S
H969 C980 0.950 . S
H970 C982 0.950 . S
H971 C983 0.950 . S
C972 H964 0.950 . S
C972 C973 1.386 . S
C972 C974 1.391 . S
C973 C972 1.386 . S
C973 C977 1.393 . S
C974 H966 0.950 . S
C974 C972 1.391 . S
C974 C975 1.400 . S
C975 C974 1.400 . S
C975 C976 1.398 . S
C975 C981 1.491 . S
C976 H967 0.950 . S
C976 C975 1.398 . S
C976 C977 1.391 . S
C977 H965 0.950 . S
C977 C973 1.393 . S
C977 C976 1.391 . S
C978 H968 0.950 . S
C978 C979 1.386 . S
C978 C980 1.391 . S
C979 C978 1.386 . S
C979 C983 1.393 . S
C980 H969 0.950 . S
C980 C978 1.391 . S
C980 C981 1.400 . S
C981 C975 1.491 . S
C981 C980 1.400 . S
C981 C982 1.398 . S
C982 H970 0.950 . S
C982 C981 1.398 . S
C982 C983 1.391 . S
C983 H971 0.950 . S
C983 C979 1.393 . S
C983 C982 1.391 . S
H984 C992 0.950 . S
H985 C997 0.950 . S
H986 C994 0.950 . S
H987 C996 0.950 . S
H988 C998 0.950 . S
H989 C1000 0.950 . S
H990 C1002 0.950 . S
H991 C1003 0.950 . S
C992 H984 0.950 . S
C992 C993 1.386 . S
C992 C994 1.391 . S
C993 C992 1.386 . S
C993 C997 1.393 . S
C994 H986 0.950 . S
C994 C992 1.391 . S
C994 C995 1.400 . S
C995 C994 1.400 . S
C995 C996 1.398 . S
C995 C1001 1.491 1_565 S
C996 H987 0.950 . S
C996 C995 1.398 . S
C996 C997 1.391 . S
C997 H985 0.950 . S
C997 C993 1.393 . S
C997 C996 1.391 . S
C998 H988 0.950 . S
C998 C999 1.386 . S
C998 C1000 1.391 . S
C999 C998 1.386 . S
C999 C1003 1.393 . S
C1000 H989 0.950 . S
C1000 C998 1.391 . S
C1000 C1001 1.400 . S
C1001 C995 1.491 1_545 S
C1001 C1000 1.400 . S
C1001 C1002 1.398 . S
C1002 H990 0.950 . S
C1002 C1001 1.398 . S
C1002 C1003 1.391 . S
C1003 H991 0.950 . S
C1003 C999 1.393 . S
C1003 C1002 1.391 . S
H1004 C1012 0.950 . S
H1005 C1017 0.950 . S
H1006 C1014 0.950 . S
H1007 C1016 0.950 . S
H1008 C1018 0.950 . S
H1009 C1020 0.950 . S
H1010 C1022 0.950 . S
H1011 C1023 0.950 . S
C1012 H1004 0.950 . S
C1012 C1013 1.386 . S
C1012 C1014 1.391 . S
C1013 C1012 1.386 . S
C1013 C1017 1.393 . S
C1014 H1006 0.950 . S
C1014 C1012 1.391 . S
C1014 C1015 1.400 . S
C1015 C1014 1.400 . S
C1015 C1016 1.398 . S
C1015 C1021 1.491 1_455 S
C1016 H1007 0.950 . S
C1016 C1015 1.398 . S
C1016 C1017 1.391 . S
C1017 H1005 0.950 . S
C1017 C1013 1.393 . S
C1017 C1016 1.391 . S
C1018 H1008 0.950 . S
C1018 C1019 1.386 . S
C1018 C1020 1.391 . S
C1019 C1018 1.386 . S
C1019 C1023 1.393 . S
C1020 H1009 0.950 . S
C1020 C1018 1.391 . S
C1020 C1021 1.400 . S
C1021 C1015 1.491 1_655 S
C1021 C1020 1.400 . S
C1021 C1022 1.398 . S
C1022 H1010 0.950 . S
C1022 C1021 1.398 . S
C1022 C1023 1.391 . S
C1023 H1011 0.950 . S
C1023 C1019 1.393 . S
C1023 C1022 1.391 . S
H1024 C1032 0.950 . S
H1025 C1037 0.950 . S
H1026 C1034 0.950 . S
H1027 C1036 0.950 . S
H1028 C1038 0.950 . S
H1029 C1040 0.950 . S
H1030 C1042 0.950 . S
H1031 C1043 0.950 . S
C1032 H1024 0.950 . S
C1032 C1033 1.386 1_455 S
C1032 C1034 1.391 . S
C1033 C1032 1.386 1_655 S
C1033 C1037 1.393 . S
C1034 H1026 0.950 . S
C1034 C1032 1.391 . S
C1034 C1035 1.400 1_455 S
C1035 C1034 1.400 1_655 S
C1035 C1036 1.398 . S
C1035 C1041 1.491 1_655 S
C1036 H1027 0.950 . S
C1036 C1035 1.398 . S
C1036 C1037 1.391 . S
C1037 H1025 0.950 . S
C1037 C1033 1.393 . S
C1037 C1036 1.391 . S
C1038 H1028 0.950 . S
C1038 C1039 1.386 1_655 S
C1038 C1040 1.391 . S
C1039 C1038 1.386 1_455 S
C1039 C1043 1.393 . S
C1040 H1029 0.950 . S
C1040 C1038 1.391 . S
C1040 C1041 1.400 1_655 S
C1041 C1035 1.491 1_455 S
C1041 C1040 1.400 1_455 S
C1041 C1042 1.398 . S
C1042 H1030 0.950 . S
C1042 C1041 1.398 . S
C1042 C1043 1.391 . S
C1043 H1031 0.950 . S
C1043 C1039 1.393 . S
C1043 C1042 1.391 . S
H1044 C1052 0.950 . S
H1045 C1057 0.950 . S
H1046 C1054 0.950 . S
H1047 C1056 0.950 . S
H1048 C1058 0.950 . S
H1049 C1060 0.950 . S
H1050 C1062 0.950 . S
H1051 C1063 0.950 . S
C1052 H1044 0.950 . S
C1052 C1053 1.386 . S
C1052 C1054 1.391 . S
C1053 C1052 1.386 . S
C1053 C1057 1.393 1_565 S
C1054 H1046 0.950 . S
C1054 C1052 1.391 . S
C1054 C1055 1.400 . S
C1055 C1054 1.400 . S
C1055 C1056 1.398 1_565 S
C1055 C1061 1.491 1_565 S
C1056 H1047 0.950 . S
C1056 C1055 1.398 1_545 S
C1056 C1057 1.391 . S
C1057 H1045 0.950 . S
C1057 C1053 1.393 1_545 S
C1057 C1056 1.391 . S
C1058 H1048 0.950 . S
C1058 C1059 1.386 . S
C1058 C1060 1.391 . S
C1059 C1058 1.386 . S
C1059 C1063 1.393 1_545 S
C1060 H1049 0.950 . S
C1060 C1058 1.391 . S
C1060 C1061 1.400 . S
C1061 C1055 1.491 1_545 S
C1061 C1060 1.400 . S
C1061 C1062 1.398 1_545 S
C1062 H1050 0.950 . S
C1062 C1061 1.398 1_565 S
C1062 C1063 1.391 . S
C1063 H1051 0.950 . S
C1063 C1059 1.393 1_565 S
C1063 C1062 1.391 . S
H1064 C1072 0.950 . S
H1065 C1077 0.950 . S
H1066 C1074 0.950 . S
H1067 C1076 0.950 . S
H1068 C1078 0.950 . S
H1069 C1080 0.950 . S
H1070 C1082 0.950 . S
H1071 C1083 0.950 . S
C1072 H1064 0.950 . S
C1072 C1073 1.386 . S
C1072 C1074 1.391 . S
C1073 C1072 1.386 . S
C1073 C1077 1.393 1_455 S
C1074 H1066 0.950 . S
C1074 C1072 1.391 . S
C1074 C1075 1.400 . S
C1075 C1074 1.400 . S
C1075 C1076 1.398 1_455 S
C1075 C1081 1.491 1_445 S
C1076 H1067 0.950 . S
C1076 C1075 1.398 1_655 S
C1076 C1077 1.391 . S
C1077 H1065 0.950 . S
C1077 C1073 1.393 1_655 S
C1077 C1076 1.391 . S
C1078 H1068 0.950 . S
C1078 C1079 1.386 . S
C1078 C1080 1.391 . S
C1079 C1078 1.386 . S
C1079 C1083 1.393 1_655 S
C1080 H1069 0.950 . S
C1080 C1078 1.391 . S
C1080 C1081 1.400 . S
C1081 C1075 1.491 1_665 S
C1081 C1080 1.400 . S
C1081 C1082 1.398 1_655 S
C1082 H1070 0.950 . S
C1082 C1081 1.398 1_455 S
C1082 C1083 1.391 . S
C1083 H1071 0.950 . S
C1083 C1079 1.393 1_455 S
C1083 C1082 1.391 . S
H1084 C1092 0.950 . S
H1085 C1097 0.950 . S
H1086 C1094 0.950 . S
H1087 C1096 0.950 . S
H1088 C1098 0.950 . S
H1089 C1100 0.950 . S
H1090 C1102 0.950 . S
H1091 C1103 0.950 . S
C1092 H1084 0.950 . S
C1092 C1093 1.386 . S
C1092 C1094 1.391 . S
C1093 C1092 1.386 . S
C1093 C1097 1.393 1_545 S
C1094 H1086 0.950 . S
C1094 C1092 1.391 . S
C1094 C1095 1.400 . S
C1095 C1094 1.400 . S
C1095 C1096 1.398 1_545 S
C1095 C1101 1.491 1_645 S
C1096 H1087 0.950 . S
C1096 C1095 1.398 1_565 S
C1096 C1097 1.391 . S
C1097 H1085 0.950 . S
C1097 C1093 1.393 1_565 S
C1097 C1096 1.391 . S
C1098 H1088 0.950 . S
C1098 C1099 1.386 . S
C1098 C1100 1.391 . S
C1099 C1098 1.386 . S
C1099 C1103 1.393 1_565 S
C1100 H1089 0.950 . S
C1100 C1098 1.391 . S
C1100 C1101 1.400 . S
C1101 C1095 1.491 1_465 S
C1101 C1100 1.400 . S
C1101 C1102 1.398 1_565 S
C1102 H1090 0.950 . S
C1102 C1101 1.398 1_545 S
C1102 C1103 1.391 . S
C1103 H1091 0.950 . S
C1103 C1099 1.393 1_545 S
C1103 C1102 1.391 . S
H1104 C1112 0.950 . S
H1105 C1117 0.950 . S
H1106 C1114 0.950 . S
H1107 C1116 0.950 . S
H1108 C1118 0.950 . S
H1109 C1120 0.950 . S
H1110 C1122 0.950 . S
H1111 C1123 0.950 . S
C1112 H1104 0.950 . S
C1112 C1113 1.386 . S
C1112 C1114 1.391 . S
C1113 C1112 1.386 . S
C1113 C1117 1.393 . S
C1114 H1106 0.950 . S
C1114 C1112 1.391 . S
C1114 C1115 1.400 . S
C1115 C1114 1.400 . S
C1115 C1116 1.398 . S
C1115 C1121 1.491 1_545 S
C1116 H1107 0.950 . S
C1116 C1115 1.398 . S
C1116 C1117 1.391 . S
C1117 H1105 0.950 . S
C1117 C1113 1.393 . S
C1117 C1116 1.391 . S
C1118 H1108 0.950 . S
C1118 C1119 1.386 . S
C1118 C1120 1.391 . S
C1119 C1118 1.386 . S
C1119 C1123 1.393 . S
C1120 H1109 0.950 . S
C1120 C1118 1.391 . S
C1120 C1121 1.400 . S
C1121 C1115 1.491 1_565 S
C1121 C1120 1.400 . S
C1121 C1122 1.398 . S
C1122 H1110 0.950 . S
C1122 C1121 1.398 . S
C1122 C1123 1.391 . S
C1123 H1111 0.950 . S
C1123 C1119 1.393 . S
C1123 C1122 1.391 . S
H1124 C1132 0.950 . S
H1125 C1137 0.950 . S
H1126 C1134 0.950 . S
H1127 C1136 0.950 . S
H1128 C1138 0.950 . S
H1129 C1140 0.950 . S
H1130 C1142 0.950 . S
H1131 C1143 0.950 . S
C1132 H1124 0.950 . S
C1132 C1133 1.386 . S
C1132 C1134 1.391 . S
C1133 C1132 1.386 . S
C1133 C1137 1.393 . S
C1134 H1126 0.950 . S
C1134 C1132 1.391 . S
C1134 C1135 1.400 . S
C1135 C1134 1.400 . S
C1135 C1136 1.398 . S
C1135 C1141 1.491 1_655 S
C1136 H1127 0.950 . S
C1136 C1135 1.398 . S
C1136 C1137 1.391 . S
C1137 H1125 0.950 . S
C1137 C1133 1.393 . S
C1137 C1136 1.391 . S
C1138 H1128 0.950 . S
C1138 C1139 1.386 . S
C1138 C1140 1.391 . S
C1139 C1138 1.386 . S
C1139 C1143 1.393 . S
C1140 H1129 0.950 . S
C1140 C1138 1.391 . S
C1140 C1141 1.400 . S
C1141 C1135 1.491 1_455 S
C1141 C1140 1.400 . S
C1141 C1142 1.398 . S
C1142 H1130 0.950 . S
C1142 C1141 1.398 . S
C1142 C1143 1.391 . S
C1143 H1131 0.950 . S
C1143 C1139 1.393 . S
C1143 C1142 1.391 . S
H1144 C1152 0.950 . S
H1145 C1157 0.950 . S
H1146 C1154 0.950 . S
H1147 C1156 0.950 . S
H1148 C1158 0.950 . S
H1149 C1160 0.950 . S
H1150 C1162 0.950 . S
H1151 C1163 0.950 . S
C1152 H1144 0.950 . S
C1152 C1153 1.386 . S
C1152 C1154 1.391 . S
C1153 C1152 1.386 . S
C1153 C1157 1.393 . S
C1154 H1146 0.950 . S
C1154 C1152 1.391 . S
C1154 C1155 1.400 . S
C1155 C1154 1.400 . S
C1155 C1156 1.398 . S
C1155 C1161 1.491 . S
C1156 H1147 0.950 . S
C1156 C1155 1.398 . S
C1156 C1157 1.391 . S
C1157 H1145 0.950 . S
C1157 C1153 1.393 . S
C1157 C1156 1.391 . S
C1158 H1148 0.950 . S
C1158 C1159 1.386 . S
C1158 C1160 1.391 . S
C1159 C1158 1.386 . S
C1159 C1163 1.393 . S
C1160 H1149 0.950 . S
C1160 C1158 1.391 . S
C1160 C1161 1.400 . S
C1161 C1155 1.491 . S
C1161 C1160 1.400 . S
C1161 C1162 1.398 . S
C1162 H1150 0.950 . S
C1162 C1161 1.398 . S
C1162 C1163 1.391 . S
C1163 H1151 0.950 . S
C1163 C1159 1.393 . S
C1163 C1162 1.391 . S
H1164 C1172 0.950 . S
H1165 C1177 0.950 . S
H1166 C1174 0.950 . S
H1167 C1176 0.950 . S
H1168 C1178 0.950 . S
H1169 C1180 0.950 . S
H1170 C1182 0.950 . S
H1171 C1183 0.950 . S
C1172 H1164 0.950 . S
C1172 C1173 1.386 . S
C1172 C1174 1.391 . S
C1173 C1172 1.386 . S
C1173 C1177 1.393 . S
C1174 H1166 0.950 . S
C1174 C1172 1.391 . S
C1174 C1175 1.400 . S
C1175 C1174 1.400 . S
C1175 C1176 1.398 . S
C1175 C1181 1.491 . S
C1176 H1167 0.950 . S
C1176 C1175 1.398 . S
C1176 C1177 1.391 . S
C1177 H1165 0.950 . S
C1177 C1173 1.393 . S
C1177 C1176 1.391 . S
C1178 H1168 0.950 . S
C1178 C1179 1.386 . S
C1178 C1180 1.391 . S
C1179 C1178 1.386 . S
C1179 C1183 1.393 . S
C1180 H1169 0.950 . S
C1180 C1178 1.391 . S
C1180 C1181 1.400 . S
C1181 C1175 1.491 . S
C1181 C1180 1.400 . S
C1181 C1182 1.398 . S
C1182 H1170 0.950 . S
C1182 C1181 1.398 . S
C1182 C1183 1.391 . S
C1183 H1171 0.950 . S
C1183 C1179 1.393 . S
C1183 C1182 1.391 . S
H1184 C1192 0.950 . S
H1185 C1197 0.950 . S
H1186 C1194 0.950 . S
H1187 C1196 0.950 . S
H1188 C1198 0.950 . S
H1189 C1200 0.950 . S
H1190 C1202 0.950 . S
H1191 C1203 0.950 . S
C1192 H1184 0.950 . S
C1192 C1193 1.386 . S
C1192 C1194 1.391 . S
C1193 C1192 1.386 . S
C1193 C1197 1.393 . S
C1194 H1186 0.950 . S
C1194 C1192 1.391 . S
C1194 C1195 1.400 . S
C1195 C1194 1.400 . S
C1195 C1196 1.398 . S
C1195 C1201 1.491 . S
C1196 H1187 0.950 . S
C1196 C1195 1.398 . S
C1196 C1197 1.391 . S
C1197 H1185 0.950 . S
C1197 C1193 1.393 . S
C1197 C1196 1.391 . S
C1198 H1188 0.950 . S
C1198 C1199 1.386 . S
C1198 C1200 1.391 . S
C1199 C1198 1.386 . S
C1199 C1203 1.393 . S
C1200 H1189 0.950 . S
C1200 C1198 1.391 . S
C1200 C1201 1.400 . S
C1201 C1195 1.491 . S
C1201 C1200 1.400 . S
C1201 C1202 1.398 . S
C1202 H1190 0.950 . S
C1202 C1201 1.398 . S
C1202 C1203 1.391 . S
C1203 H1191 0.950 . S
C1203 C1199 1.393 . S
C1203 C1202 1.391 . S
H1204 C1212 0.950 . S
H1205 C1217 0.950 . S
H1206 C1214 0.950 . S
H1207 C1216 0.950 . S
H1208 C1218 0.950 . S
H1209 C1220 0.950 . S
H1210 C1222 0.950 . S
H1211 C1223 0.950 . S
C1212 H1204 0.950 . S
C1212 C1213 1.386 . S
C1212 C1214 1.391 . S
C1213 C1212 1.386 . S
C1213 C1217 1.393 . S
C1214 H1206 0.950 . S
C1214 C1212 1.391 . S
C1214 C1215 1.400 . S
C1215 C1214 1.400 . S
C1215 C1216 1.398 . S
C1215 C1221 1.491 . S
C1216 H1207 0.950 . S
C1216 C1215 1.398 . S
C1216 C1217 1.391 . S
C1217 H1205 0.950 . S
C1217 C1213 1.393 . S
C1217 C1216 1.391 . S
C1218 H1208 0.950 . S
C1218 C1219 1.386 . S
C1218 C1220 1.391 . S
C1219 C1218 1.386 . S
C1219 C1223 1.393 . S
C1220 H1209 0.950 . S
C1220 C1218 1.391 . S
C1220 C1221 1.400 . S
C1221 C1215 1.491 . S
C1221 C1220 1.400 . S
C1221 C1222 1.398 . S
C1222 H1210 0.950 . S
C1222 C1221 1.398 . S
C1222 C1223 1.391 . S
C1223 H1211 0.950 . S
C1223 C1219 1.393 . S
C1223 C1222 1.391 . S
H1224 C1232 0.950 . S
H1225 C1237 0.950 . S
H1226 C1234 0.950 . S
H1227 C1236 0.950 . S
H1228 C1238 0.950 . S
H1229 C1240 0.950 . S
H1230 C1242 0.950 . S
H1231 C1243 0.950 . S
C1232 H1224 0.950 . S
C1232 C1233 1.386 . S
C1232 C1234 1.391 . S
C1233 C1232 1.386 . S
C1233 C1237 1.393 . S
C1234 H1226 0.950 . S
C1234 C1232 1.391 . S
C1234 C1235 1.400 . S
C1235 C1234 1.400 . S
C1235 C1236 1.398 . S
C1235 C1241 1.491 . S
C1236 H1227 0.950 . S
C1236 C1235 1.398 . S
C1236 C1237 1.391 . S
C1237 H1225 0.950 . S
C1237 C1233 1.393 . S
C1237 C1236 1.391 . S
C1238 H1228 0.950 . S
C1238 C1239 1.386 . S
C1238 C1240 1.391 . S
C1239 C1238 1.386 . S
C1239 C1243 1.393 . S
C1240 H1229 0.950 . S
C1240 C1238 1.391 . S
C1240 C1241 1.400 . S
C1241 C1235 1.491 . S
C1241 C1240 1.400 . S
C1241 C1242 1.398 . S
C1242 H1230 0.950 . S
C1242 C1241 1.398 . S
C1242 C1243 1.391 . S
C1243 H1231 0.950 . S
C1243 C1239 1.393 . S
C1243 C1242 1.391 . S
H1244 C1252 0.950 . S
H1245 C1257 0.950 . S
H1246 C1254 0.950 . S
H1247 C1256 0.950 . S
H1248 C1258 0.950 . S
H1249 C1260 0.950 . S
H1250 C1262 0.950 . S
H1251 C1263 0.950 . S
C1252 H1244 0.950 . S
C1252 C1253 1.386 . S
C1252 C1254 1.391 . S
C1253 C1252 1.386 . S
C1253 C1257 1.393 . S
C1254 H1246 0.950 . S
C1254 C1252 1.391 . S
C1254 C1255 1.400 . S
C1255 C1254 1.400 . S
C1255 C1256 1.398 . S
C1255 C1261 1.491 . S
C1256 H1247 0.950 . S
C1256 C1255 1.398 . S
C1256 C1257 1.391 . S
C1257 H1245 0.950 . S
C1257 C1253 1.393 . S
C1257 C1256 1.391 . S
C1258 H1248 0.950 . S
C1258 C1259 1.386 . S
C1258 C1260 1.391 . S
C1259 C1258 1.386 . S
C1259 C1263 1.393 . S
C1260 H1249 0.950 . S
C1260 C1258 1.391 . S
C1260 C1261 1.400 . S
C1261 C1255 1.491 . S
C1261 C1260 1.400 . S
C1261 C1262 1.398 . S
C1262 H1250 0.950 . S
C1262 C1261 1.398 . S
C1262 C1263 1.391 . S
C1263 H1251 0.950 . S
C1263 C1259 1.393 . S
C1263 C1262 1.391 . S
H1264 C1272 0.950 . S
H1265 C1277 0.950 . S
H1266 C1274 0.950 . S
H1267 C1276 0.950 . S
H1268 C1278 0.950 . S
H1269 C1280 0.950 . S
H1270 C1282 0.950 . S
H1271 C1283 0.950 . S
C1272 H1264 0.950 . S
C1272 C1273 1.386 . S
C1272 C1274 1.391 . S
C1273 C1272 1.386 . S
C1273 C1277 1.393 . S
C1274 H1266 0.950 . S
C1274 C1272 1.391 . S
C1274 C1275 1.400 . S
C1275 C1274 1.400 . S
C1275 C1276 1.398 . S
C1275 C1281 1.491 . S
C1276 H1267 0.950 . S
C1276 C1275 1.398 . S
C1276 C1277 1.391 . S
C1277 H1265 0.950 . S
C1277 C1273 1.393 . S
C1277 C1276 1.391 . S
C1278 H1268 0.950 . S
C1278 C1279 1.386 . S
C1278 C1280 1.391 . S
C1279 C1278 1.386 . S
C1279 C1283 1.393 . S
C1280 H1269 0.950 . S
C1280 C1278 1.391 . S
C1280 C1281 1.400 . S
C1281 C1275 1.491 . S
C1281 C1280 1.400 . S
C1281 C1282 1.398 . S
C1282 H1270 0.950 . S
C1282 C1281 1.398 . S
C1282 C1283 1.391 . S
C1283 H1271 0.950 . S
C1283 C1279 1.393 . S
C1283 C1282 1.391 . S
H1284 C1292 0.950 . S
H1285 C1297 0.950 . S
H1286 C1294 0.950 . S
H1287 C1296 0.950 . S
H1288 C1298 0.950 . S
H1289 C1300 0.950 . S
H1290 C1302 0.950 . S
H1291 C1303 0.950 . S
C1292 H1284 0.950 . S
C1292 C1293 1.386 . S
C1292 C1294 1.391 . S
C1293 C1292 1.386 . S
C1293 C1297 1.393 . S
C1294 H1286 0.950 . S
C1294 C1292 1.391 . S
C1294 C1295 1.400 . S
C1295 C1294 1.400 . S
C1295 C1296 1.398 . S
C1295 C1301 1.491 . S
C1296 H1287 0.950 . S
C1296 C1295 1.398 . S
C1296 C1297 1.391 . S
C1297 H1285 0.950 . S
C1297 C1293 1.393 . S
C1297 C1296 1.391 . S
C1298 H1288 0.950 . S
C1298 C1299 1.386 . S
C1298 C1300 1.391 . S
C1299 C1298 1.386 . S
C1299 C1303 1.393 . S
C1300 H1289 0.950 . S
C1300 C1298 1.391 . S
C1300 C1301 1.400 . S
C1301 C1295 1.491 . S
C1301 C1300 1.400 . S
C1301 C1302 1.398 . S
C1302 H1290 0.950 . S
C1302 C1301 1.398 . S
C1302 C1303 1.391 . S
C1303 H1291 0.950 . S
C1303 C1299 1.393 . S
C1303 C1302 1.391 . S
H1304 C1312 0.950 . S
H1305 C1317 0.950 . S
H1306 C1314 0.950 . S
H1307 C1316 0.950 . S
H1308 C1318 0.950 . S
H1309 C1320 0.950 . S
H1310 C1322 0.950 . S
H1311 C1323 0.950 . S
C1312 H1304 0.950 . S
C1312 C1313 1.386 . S
C1312 C1314 1.391 . S
C1313 C1312 1.386 . S
C1313 C1317 1.393 . S
C1314 H1306 0.950 . S
C1314 C1312 1.391 . S
C1314 C1315 1.400 . S
C1315 C1314 1.400 . S
C1315 C1316 1.398 . S
C1315 C1321 1.491 . S
C1316 H1307 0.950 . S
C1316 C1315 1.398 . S
C1316 C1317 1.391 . S
C1317 H1305 0.950 . S
C1317 C1313 1.393 . S
C1317 C1316 1.391 . S
C1318 H1308 0.950 . S
C1318 C1319 1.386 . S
C1318 C1320 1.391 . S
C1319 C1318 1.386 . S
C1319 C1323 1.393 . S
C1320 H1309 0.950 . S
C1320 C1318 1.391 . S
C1320 C1321 1.400 . S
C1321 C1315 1.491 . S
C1321 C1320 1.400 . S
C1321 C1322 1.398 . S
C1322 H1310 0.950 . S
C1322 C1321 1.398 . S
C1322 C1323 1.391 . S
C1323 H1311 0.950 . S
C1323 C1319 1.393 . S
C1323 C1322 1.391 . S
H1324 C1332 0.950 . S
H1325 C1337 0.950 . S
H1326 C1334 0.950 . S
H1327 C1336 0.950 . S
H1328 C1338 0.950 . S
H1329 C1340 0.950 . S
H1330 C1342 0.950 . S
H1331 C1343 0.950 . S
C1332 H1324 0.950 . S
C1332 C1333 1.386 . S
C1332 C1334 1.391 . S
C1333 C1332 1.386 . S
C1333 C1337 1.393 . S
C1334 H1326 0.950 . S
C1334 C1332 1.391 . S
C1334 C1335 1.400 . S
C1335 C1334 1.400 . S
C1335 C1336 1.398 . S
C1335 C1341 1.491 . S
C1336 H1327 0.950 . S
C1336 C1335 1.398 . S
C1336 C1337 1.391 . S
C1337 H1325 0.950 . S
C1337 C1333 1.393 . S
C1337 C1336 1.391 . S
C1338 H1328 0.950 . S
C1338 C1339 1.386 . S
C1338 C1340 1.391 . S
C1339 C1338 1.386 . S
C1339 C1343 1.393 . S
C1340 H1329 0.950 . S
C1340 C1338 1.391 . S
C1340 C1341 1.400 . S
C1341 C1335 1.491 . S
C1341 C1340 1.400 . S
C1341 C1342 1.398 . S
C1342 H1330 0.950 . S
C1342 C1341 1.398 . S
C1342 C1343 1.391 . S
C1343 H1331 0.950 . S
C1343 C1339 1.393 . S
C1343 C1342 1.391 . S
C553 C33 0.810 . S
C559 C379 0.833 . S
C573 C277 0.832 . S
C579 C67 0.811 . S
C593 C311 0.824 . S
C599 C101 0.816 . S
C613 C345 0.804 . S
C619 C135 0.834 . S
C633 C175 0.804 . S
C639 C169 0.834 . S
C653 C209 0.829 . S
C659 C203 0.819 . S
C673 C237 0.834 . S
C679 C243 0.804 . S
C693 C271 0.820 . S
C699 C141 0.827 . S
C713 C305 0.814 . S
C719 C107 0.828 . S
C733 C339 0.815 . S
C739 C5 0.833 . S
C753 C39 0.809 . S
C759 C373 0.833 . S
C773 C407 0.824 . S
C779 C73 0.823 . S
C793 C447 0.812 . S
C799 C441 0.831 . S
C813 C481 0.836 . S
C819 C475 0.809 . S
C833 C515 0.817 . S
C839 C509 0.828 . S
C853 C543 0.819 . S
C859 C413 0.820 . S
C873 C20 1.352 . S
C879 C88 1.352 . S
C893 C54 1.344 . S
C899 C122 1.345 . S
C913 C224 1.344 . S
C919 C156 1.345 . S
C933 C258 1.352 . S
C939 C190 1.349 . S
C953 C360 1.349 . S
C959 C292 1.345 . S
C973 C326 1.344 . S
C979 C394 1.345 . S
C993 C428 1.346 . S
C999 C496 1.344 . S
C1013 C530 1.344 . S
C1019 C462 1.344 . S
C1033 C70 1.154 . S
C1039 C2 1.139 . S
C1053 C36 1.156 . S
C1059 C104 1.134 . S
C1073 C138 1.131 . S
C1079 C206 1.155 . S
C1093 C240 1.152 . S
C1099 C172 1.141 . S
C1113 C342 1.156 . S
C1119 C274 1.136 . S
C1133 C308 1.132 . S
C1139 C376 1.156 . S
C1153 C410 1.136 . S
C1159 C478 1.146 . S
C1173 C512 1.137 . S
C1179 C444 1.155 . S
C1193 C485 1.494 . S
C1199 C9 1.494 . S
C1213 C43 1.489 . S
C1219 C519 1.488 . S
C1233 C77 1.484 . S
C1239 C417 1.485 . S
C1253 C111 1.474 . S
C1259 C451 1.473 . S
C1273 C145 1.500 . S
C1279 C349 1.500 . S
C1293 C383 1.499 . S
C1299 C179 1.499 . S
C1313 C213 1.478 . S
C1319 C281 1.477 . S
C1333 C247 1.478 . S
C1339 C315 1.478 . S
