# Generated by pormake.
# Topology unv, (4)-cn, num edge types: 1
# Building blocks:
#     Node 0, Type 0, BuildingBlock: GALJAG_clean_sbu_0, # of connection points: 4
#     Node 1, Type 0, BuildingBlock: GALJAG_clean_sbu_0, # of connection points: 4
#     Node 2, Type 0, BuildingBlock: GALJAG_clean_sbu_0, # of connection points: 4
#     Node 3, Type 0, BuildingBlock: GALJAG_clean_sbu_0, # of connection points: 4
#     Node 4, Type 0, BuildingBlock: GALJAG_clean_sbu_0, # of connection points: 4
#     Node 5, Type 0, BuildingBlock: GALJAG_clean_sbu_0, # of connection points: 4
#     Node 6, Type 0, BuildingBlock: GALJAG_clean_sbu_0, # of connection points: 4
#     Node 7, Type 0, BuildingBlock: GALJAG_clean_sbu_0, # of connection points: 4
#     Node 8, Type 0, BuildingBlock: GALJAG_clean_sbu_0, # of connection points: 4
#     Node 9, Type 0, BuildingBlock: GALJAG_clean_sbu_0, # of connection points: 4
#     Node 10, Type 0, BuildingBlock: GALJAG_clean_sbu_0, # of connection points: 4
#     Node 11, Type 0, BuildingBlock: GALJAG_clean_sbu_0, # of connection points: 4
#     Node 12, Type 0, BuildingBlock: GALJAG_clean_sbu_0, # of connection points: 4
#     Node 13, Type 0, BuildingBlock: GALJAG_clean_sbu_0, # of connection points: 4
#     Node 14, Type 0, BuildingBlock: GALJAG_clean_sbu_0, # of connection points: 4
#     Node 15, Type 0, BuildingBlock: GALJAG_clean_sbu_0, # of connection points: 4
#     Node 16, Type 0, BuildingBlock: GALJAG_clean_sbu_0, # of connection points: 4
#     Node 17, Type 0, BuildingBlock: GALJAG_clean_sbu_0, # of connection points: 4
#     Node 18, Type 0, BuildingBlock: GALJAG_clean_sbu_0, # of connection points: 4
#     Node 19, Type 0, BuildingBlock: GALJAG_clean_sbu_0, # of connection points: 4
#     Node 20, Type 0, BuildingBlock: GALJAG_clean_sbu_0, # of connection points: 4
#     Node 21, Type 0, BuildingBlock: GALJAG_clean_sbu_0, # of connection points: 4
#     Node 22, Type 0, BuildingBlock: GALJAG_clean_sbu_0, # of connection points: 4
#     Node 23, Type 0, BuildingBlock: GALJAG_clean_sbu_0, # of connection points: 4
#     Edge 24, Type (0, 0), BuildingBlock: EZIPEK_clean_linker_0, # of connection points: 2
#     Edge 25, Type (0, 0), BuildingBlock: EZIPEK_clean_linker_0, # of connection points: 2
#     Edge 26, Type (0, 0), BuildingBlock: EZIPEK_clean_linker_0, # of connection points: 2
#     Edge 27, Type (0, 0), BuildingBlock: EZIPEK_clean_linker_0, # of connection points: 2
#     Edge 28, Type (0, 0), BuildingBlock: EZIPEK_clean_linker_0, # of connection points: 2
#     Edge 29, Type (0, 0), BuildingBlock: EZIPEK_clean_linker_0, # of connection points: 2
#     Edge 30, Type (0, 0), BuildingBlock: EZIPEK_clean_linker_0, # of connection points: 2
#     Edge 31, Type (0, 0), BuildingBlock: EZIPEK_clean_linker_0, # of connection points: 2
#     Edge 32, Type (0, 0), BuildingBlock: EZIPEK_clean_linker_0, # of connection points: 2
#     Edge 33, Type (0, 0), BuildingBlock: EZIPEK_clean_linker_0, # of connection points: 2
#     Edge 34, Type (0, 0), BuildingBlock: EZIPEK_clean_linker_0, # of connection points: 2
#     Edge 35, Type (0, 0), BuildingBlock: EZIPEK_clean_linker_0, # of connection points: 2
#     Edge 36, Type (0, 0), BuildingBlock: EZIPEK_clean_linker_0, # of connection points: 2
#     Edge 37, Type (0, 0), BuildingBlock: EZIPEK_clean_linker_0, # of connection points: 2
#     Edge 38, Type (0, 0), BuildingBlock: EZIPEK_clean_linker_0, # of connection points: 2
#     Edge 39, Type (0, 0), BuildingBlock: EZIPEK_clean_linker_0, # of connection points: 2
#     Edge 40, Type (0, 0), BuildingBlock: EZIPEK_clean_linker_0, # of connection points: 2
#     Edge 41, Type (0, 0), BuildingBlock: EZIPEK_clean_linker_0, # of connection points: 2
#     Edge 42, Type (0, 0), BuildingBlock: EZIPEK_clean_linker_0, # of connection points: 2
#     Edge 43, Type (0, 0), BuildingBlock: EZIPEK_clean_linker_0, # of connection points: 2
#     Edge 44, Type (0, 0), BuildingBlock: EZIPEK_clean_linker_0, # of connection points: 2
#     Edge 45, Type (0, 0), BuildingBlock: EZIPEK_clean_linker_0, # of connection points: 2
#     Edge 46, Type (0, 0), BuildingBlock: EZIPEK_clean_linker_0, # of connection points: 2
#     Edge 47, Type (0, 0), BuildingBlock: EZIPEK_clean_linker_0, # of connection points: 2
#     Edge 48, Type (0, 0), BuildingBlock: EZIPEK_clean_linker_0, # of connection points: 2
#     Edge 49, Type (0, 0), BuildingBlock: EZIPEK_clean_linker_0, # of connection points: 2
#     Edge 50, Type (0, 0), BuildingBlock: EZIPEK_clean_linker_0, # of connection points: 2
#     Edge 51, Type (0, 0), BuildingBlock: EZIPEK_clean_linker_0, # of connection points: 2
#     Edge 52, Type (0, 0), BuildingBlock: EZIPEK_clean_linker_0, # of connection points: 2
#     Edge 53, Type (0, 0), BuildingBlock: EZIPEK_clean_linker_0, # of connection points: 2
#     Edge 54, Type (0, 0), BuildingBlock: EZIPEK_clean_linker_0, # of connection points: 2
#     Edge 55, Type (0, 0), BuildingBlock: EZIPEK_clean_linker_0, # of connection points: 2
#     Edge 56, Type (0, 0), BuildingBlock: EZIPEK_clean_linker_0, # of connection points: 2
#     Edge 57, Type (0, 0), BuildingBlock: EZIPEK_clean_linker_0, # of connection points: 2
#     Edge 58, Type (0, 0), BuildingBlock: EZIPEK_clean_linker_0, # of connection points: 2
#     Edge 59, Type (0, 0), BuildingBlock: EZIPEK_clean_linker_0, # of connection points: 2
#     Edge 60, Type (0, 0), BuildingBlock: EZIPEK_clean_linker_0, # of connection points: 2
#     Edge 61, Type (0, 0), BuildingBlock: EZIPEK_clean_linker_0, # of connection points: 2
#     Edge 62, Type (0, 0), BuildingBlock: EZIPEK_clean_linker_0, # of connection points: 2
#     Edge 63, Type (0, 0), BuildingBlock: EZIPEK_clean_linker_0, # of connection points: 2
#     Edge 64, Type (0, 0), BuildingBlock: EZIPEK_clean_linker_0, # of connection points: 2
#     Edge 65, Type (0, 0), BuildingBlock: EZIPEK_clean_linker_0, # of connection points: 2
#     Edge 66, Type (0, 0), BuildingBlock: EZIPEK_clean_linker_0, # of connection points: 2
#     Edge 67, Type (0, 0), BuildingBlock: EZIPEK_clean_linker_0, # of connection points: 2
#     Edge 68, Type (0, 0), BuildingBlock: EZIPEK_clean_linker_0, # of connection points: 2
#     Edge 69, Type (0, 0), BuildingBlock: EZIPEK_clean_linker_0, # of connection points: 2
#     Edge 70, Type (0, 0), BuildingBlock: EZIPEK_clean_linker_0, # of connection points: 2
#     Edge 71, Type (0, 0), BuildingBlock: EZIPEK_clean_linker_0, # of connection points: 2
# Relax obj value: 0.403
# Max RMSD: 0.239
# Mean RMSD: 0.210
data_MOF--net-unv--node1-GALJAG_clean_sbu_0--edge1-EZIPEK_clean_linker_0
_symmetry_space_group_name_H-M    P1
_symmetry_Int_Tables_number       1
_symmetry_cell_setting            triclinic
loop_
_symmetry_equiv_pos_as_xyz
'x, y, z'
_cell_length_a     35.538654
_cell_length_b     35.53915
_cell_length_c     35.533337
_cell_angle_alpha  90.016391
_cell_angle_beta   90.017592
_cell_angle_gamma 90.013327
loop_
_atom_site_label
_atom_site_type_symbol
_atom_site_fract_x
_atom_site_fract_y
_atom_site_fract_z
_atom_type_partial_charge
In0 In 0.03733 0.10104 0.38493 0.0
O1 O 0.0806 0.06707 0.35152 0.0
O2 O 0.02693 0.07651 0.3268 0.0
C3 C 0.07794 0.11062 0.44843 0.0
C4 C 0.02263 0.17262 0.3654 0.0
C5 C 0.98778 0.05081 0.41158 0.0
O6 O 0.09272 0.10316 0.41695 0.0
O7 O 0.04263 0.11408 0.4472 0.0
O8 O 0.97717 0.0821 0.3985 0.0
O9 O 0.0228 0.04551 0.41181 0.0
C10 C 0.05842 0.06039 0.32467 0.0
O11 O 0.99706 0.14922 0.37293 0.0
O12 O 0.05563 0.15959 0.36604 0.0
In13 In 0.00693 0.40608 0.3774 0.0
O14 O 0.03453 0.34878 0.37595 0.0
O15 O 0.98123 0.35442 0.34892 0.0
C16 C 0.06841 0.44588 0.39701 0.0
C17 C 0.9857 0.45177 0.32112 0.0
C18 C 0.96316 0.40149 0.43891 0.0
O19 O 0.06931 0.42172 0.37108 0.0
O20 O 0.0376 0.44819 0.41423 0.0
O21 O 0.95441 0.4207 0.41034 0.0
O22 O 0.99352 0.38334 0.43593 0.0
C23 C 0.00804 0.3331 0.35833 0.0
O24 O 0.96883 0.45106 0.35228 0.0
O25 O 0.01143 0.42763 0.31726 0.0
In26 In 0.02461 0.90797 0.15313 0.0
O27 O 0.99688 0.85109 0.1625 0.0
O28 O 0.05633 0.85463 0.16952 0.0
C29 C 0.96508 0.95251 0.14056 0.0
C30 C 0.05257 0.94797 0.21059 0.0
C31 C 0.04971 0.90861 0.08196 0.0
O32 O 0.96128 0.92091 0.15646 0.0
O33 O 0.99818 0.9612 0.13164 0.0
O34 O 0.06799 0.92315 0.10875 0.0
O35 O 0.02006 0.8916 0.09142 0.0
C36 C 0.02734 0.83411 0.16903 0.0
O37 O 0.07107 0.94249 0.18078 0.0
O38 O 0.02154 0.93083 0.21263 0.0
In39 In 0.01065 0.59924 0.14323 0.0
O40 O 0.96534 0.57249 0.18014 0.0
O41 O 0.02117 0.57635 0.20171 0.0
C42 C 0.9727 0.60382 0.07777 0.0
C43 C 0.02082 0.67212 0.1606 0.0
C44 C 0.06198 0.54753 0.12271 0.0
O45 O 0.96053 0.58586 0.10589 0.0
O46 O 0.00316 0.6211 0.08333 0.0
O47 O 0.07174 0.5791 0.13582 0.0
O48 O 0.02711 0.54271 0.11927 0.0
C49 C 0.98817 0.56412 0.20604 0.0
O50 O 0.04737 0.65121 0.14963 0.0
O51 O 0.98935 0.65599 0.16427 0.0
In52 In 0.34806 0.04874 0.08983 0.0
O53 O 0.35028 0.01777 0.14502 0.0
O54 O 0.31886 0.06899 0.14368 0.0
C55 C 0.37807 0.9877 0.05679 0.0
C56 C 0.28655 0.06252 0.04782 0.0
C57 C 0.40868 0.09432 0.08608 0.0
O58 O 0.35377 0.98471 0.08248 0.0
O59 O 0.3875 0.02084 0.04877 0.0
O60 O 0.3867 0.08906 0.05873 0.0
O61 O 0.39833 0.07925 0.11648 0.0
C62 C 0.33048 0.04125 0.16269 0.0
O63 O 0.30645 0.08895 0.06076 0.0
O64 O 0.29626 0.03006 0.05797 0.0
In65 In 0.64097 0.48176 0.10326 0.0
O66 O 0.67822 0.44245 0.06831 0.0
O67 O 0.6947 0.49986 0.07415 0.0
C68 C 0.58871 0.42688 0.10169 0.0
C69 C 0.66163 0.49366 0.17519 0.0
C70 C 0.60387 0.53449 0.06261 0.0
O71 O 0.61096 0.43306 0.07474 0.0
O72 O 0.59519 0.44591 0.13097 0.0
O73 O 0.58744 0.50894 0.08067 0.0
O74 O 0.63885 0.53586 0.06781 0.0
C75 C 0.70105 0.46821 0.05943 0.0
O76 O 0.63939 0.5153 0.15794 0.0
O77 O 0.67482 0.4671 0.1557 0.0
In78 In 0.36086 0.96953 0.38293 0.0
O79 O 0.34214 0.01774 0.34542 0.0
O80 O 0.34274 0.96278 0.32167 0.0
C81 C 0.39182 0.01004 0.43833 0.0
C82 C 0.30051 0.94332 0.42054 0.0
C83 C 0.42466 0.93199 0.36499 0.0
O84 O 0.38087 0.02508 0.40808 0.0
O85 O 0.38735 0.97493 0.44046 0.0
O86 O 0.39478 0.91548 0.37501 0.0
O87 O 0.42162 0.96731 0.36356 0.0
C88 C 0.33757 0.99755 0.31664 0.0
O89 O 0.32422 0.92138 0.40578 0.0
O90 O 0.30581 0.97771 0.41397 0.0
In91 In 0.62193 0.52747 0.39959 0.0
O92 O 0.64982 0.56929 0.44027 0.0
O93 O 0.67521 0.51554 0.43236 0.0
C94 C 0.55942 0.56509 0.37787 0.0
C95 C 0.6573 0.51571 0.33309 0.0
C96 C 0.58897 0.47747 0.44519 0.0
O97 O 0.58755 0.5814 0.39246 0.0
O98 O 0.5637 0.53012 0.37384 0.0
O99 O 0.60901 0.46689 0.41777 0.0
O100 O 0.58522 0.51251 0.44883 0.0
C101 C 0.67563 0.54662 0.44934 0.0
O102 O 0.64007 0.49029 0.35096 0.0
O103 O 0.65558 0.54755 0.3487 0.0
In104 In 0.10744 0.35313 0.02242 0.0
O105 O 0.0665 0.32071 0.06 0.0
O106 O 0.07686 0.30033 0.00448 0.0
C107 C 0.12023 0.41369 0.06687 0.0
C108 C 0.17749 0.32519 0.0194 0.0
C109 C 0.06662 0.38512 0.96775 0.0
O110 O 0.10338 0.38451 0.07831 0.0
O111 O 0.13018 0.41191 0.03287 0.0
O112 O 0.09459 0.36453 0.96004 0.0
O113 O 0.06018 0.38986 0.00228 0.0
C114 C 0.05902 0.29665 0.03493 0.0
O115 O 0.16383 0.34523 0.99352 0.0
O116 O 0.15536 0.31774 0.0461 0.0
In117 In 0.10042 0.64066 0.47873 0.0
O118 O 0.0634 0.65738 0.42868 0.0
O119 O 0.06054 0.6905 0.47852 0.0
C120 C 0.12757 0.57738 0.44651 0.0
C121 C 0.16434 0.67912 0.49487 0.0
C122 C 0.05158 0.61314 0.52926 0.0
O123 O 0.11552 0.60504 0.42768 0.0
O124 O 0.12641 0.58239 0.48165 0.0
O125 O 0.07386 0.63958 0.53763 0.0
O126 O 0.05536 0.59993 0.49659 0.0
C127 C 0.04813 0.68439 0.44588 0.0
O128 O 0.14713 0.6589 0.5184 0.0
O129 O 0.14914 0.67951 0.46279 0.0
In130 In 0.90399 0.8438 0.47717 0.0
O131 O 0.84825 0.83783 0.50824 0.0
O132 O 0.8469 0.84265 0.44841 0.0
C133 C 0.95534 0.84348 0.53268 0.0
C134 C 0.92865 0.78244 0.43997 0.0
C135 C 0.91494 0.91594 0.45811 0.0
O136 O 0.92112 0.83622 0.5393 0.0
O137 O 0.96311 0.84943 0.49867 0.0
O138 O 0.92111 0.88916 0.43559 0.0
O139 O 0.90099 0.90655 0.48935 0.0
C140 C 0.82861 0.83993 0.47871 0.0
O141 O 0.93106 0.81528 0.42677 0.0
O142 O 0.91223 0.78074 0.47147 0.0
In143 In 0.39122 0.64667 0.49837 0.0
O144 O 0.3329 0.65562 0.47359 0.0
O145 O 0.34591 0.68333 0.52511 0.0
C146 C 0.43065 0.62321 0.43809 0.0
C147 C 0.43987 0.70047 0.5193 0.0
C148 C 0.3804 0.58226 0.53656 0.0
O149 O 0.40444 0.64701 0.43495 0.0
O150 O 0.43543 0.61027 0.4707 0.0
O151 O 0.40397 0.60687 0.54668 0.0
O152 O 0.36113 0.5908 0.50802 0.0
C153 C 0.32155 0.67604 0.50033 0.0
O154 O 0.4297 0.67489 0.54179 0.0
O155 O 0.42448 0.69964 0.48735 0.0
In156 In 0.47417 0.59386 0.87849 0.0
O157 O 0.44491 0.65049 0.88357 0.0
O158 O 0.49303 0.64691 0.84807 0.0
C159 C 0.42002 0.55006 0.90774 0.0
C160 C 0.48747 0.54868 0.81945 0.0
C161 C 0.5253 0.59431 0.93404 0.0
O162 O 0.41231 0.57398 0.88259 0.0
O163 O 0.45366 0.54984 0.91843 0.0
O164 O 0.53421 0.58849 0.90009 0.0
O165 O 0.49122 0.6027 0.93944 0.0
C166 C 0.46735 0.66712 0.86176 0.0
O167 O 0.50962 0.55082 0.84702 0.0
O168 O 0.45952 0.57049 0.82062 0.0
In169 In 0.47012 0.90313 0.86807 0.0
O170 O 0.49829 0.84707 0.85771 0.0
O171 O 0.43836 0.84834 0.85747 0.0
C172 C 0.53142 0.94541 0.87916 0.0
C173 C 0.44524 0.94165 0.80828 0.0
C174 C 0.44198 0.90879 0.93777 0.0
O175 O 0.53396 0.9121 0.8671 0.0
O176 O 0.49861 0.95684 0.88587 0.0
O177 O 0.42467 0.92047 0.90905 0.0
O178 O 0.47261 0.89215 0.9312 0.0
C179 C 0.46796 0.82887 0.85527 0.0
O180 O 0.42547 0.93765 0.83745 0.0
O181 O 0.47545 0.92313 0.80783 0.0
In182 In 0.47536 0.40509 0.63426 0.0
O183 O 0.44455 0.34956 0.64267 0.0
O184 O 0.50419 0.34999 0.64935 0.0
C185 C 0.42099 0.45175 0.61065 0.0
C186 C 0.4898 0.44066 0.69916 0.0
C187 C 0.5145 0.41029 0.56981 0.0
O188 O 0.41401 0.41745 0.61713 0.0
O189 O 0.45441 0.46179 0.61645 0.0
O190 O 0.52713 0.4223 0.60078 0.0
O191 O 0.48337 0.39336 0.57177 0.0
C192 C 0.47415 0.33109 0.64928 0.0
O193 O 0.51484 0.43563 0.67448 0.0
O194 O 0.45854 0.42522 0.69247 0.0
In195 In 0.48344 0.09438 0.63814 0.0
O196 O 0.50644 0.14994 0.66172 0.0
O197 O 0.4521 0.15008 0.63693 0.0
C198 C 0.54899 0.05829 0.62401 0.0
C199 C 0.45472 0.05449 0.6951 0.0
C200 C 0.4539 0.0783 0.57066 0.0
O201 O 0.54269 0.09155 0.61331 0.0
O202 O 0.52274 0.04427 0.64324 0.0
O203 O 0.43573 0.07387 0.6008 0.0
O204 O 0.4862 0.09241 0.57428 0.0
C205 C 0.47804 0.16882 0.65205 0.0
O206 O 0.43773 0.0582 0.66417 0.0
O207 O 0.48471 0.07334 0.69844 0.0
In208 In 0.85159 0.51425 0.59778 0.0
O209 O 0.81346 0.56034 0.57399 0.0
O210 O 0.79422 0.50373 0.57137 0.0
C211 C 0.91784 0.5506 0.59188 0.0
C212 C 0.83744 0.50853 0.67189 0.0
C213 C 0.87571 0.45592 0.55596 0.0
O214 O 0.88839 0.56183 0.57555 0.0
O215 O 0.91343 0.52241 0.61293 0.0
O216 O 0.86747 0.45205 0.59027 0.0
O217 O 0.8705 0.48841 0.54287 0.0
C218 C 0.78873 0.53762 0.56253 0.0
O219 O 0.8349 0.4809 0.64978 0.0
O220 O 0.84481 0.5396 0.65641 0.0
In221 In 0.14209 0.95234 0.59156 0.0
O222 O 0.13194 0.97894 0.64872 0.0
O223 O 0.17536 0.93777 0.64472 0.0
C224 C 0.12948 0.02028 0.56087 0.0
C225 C 0.19128 0.9311 0.53766 0.0
C226 C 0.08449 0.9033 0.59369 0.0
O227 O 0.15798 0.01381 0.58097 0.0
O228 O 0.10667 0.99329 0.55789 0.0
O229 O 0.11764 0.89357 0.60213 0.0
O230 O 0.08056 0.93772 0.58594 0.0
C231 C 0.15736 0.96055 0.66522 0.0
O232 O 0.1571 0.92191 0.5369 0.0
O233 O 0.20141 0.9483 0.56699 0.0
In234 In 0.87609 0.49412 0.9052 0.0
O235 O 0.86781 0.52526 0.84984 0.0
O236 O 0.84978 0.46818 0.85274 0.0
C237 C 0.89966 0.54991 0.95024 0.0
C238 C 0.81607 0.47454 0.94645 0.0
C239 C 0.94198 0.45689 0.90286 0.0
O240 O 0.88579 0.55689 0.91824 0.0
O241 O 0.90129 0.51567 0.95904 0.0
O242 O 0.91321 0.44382 0.91899 0.0
O243 O 0.93691 0.48746 0.88562 0.0
C244 C 0.85377 0.49738 0.83297 0.0
O245 O 0.84045 0.45076 0.93637 0.0
O246 O 0.82054 0.50729 0.93347 0.0
In247 In 0.12341 0.01356 0.88822 0.0
O248 O 0.15066 0.063 0.91962 0.0
O249 O 0.17684 0.00931 0.92313 0.0
C250 C 0.05882 0.05008 0.87096 0.0
C251 C 0.15416 0.99263 0.82142 0.0
C252 C 0.09826 0.96574 0.94083 0.0
O253 O 0.08908 0.06694 0.87901 0.0
O254 O 0.06205 0.01474 0.87013 0.0
O255 O 0.11963 0.9548 0.91462 0.0
O256 O 0.08886 -0.00013 0.93948 0.0
C257 C 0.17669 0.04322 0.9334 0.0
O258 O 0.13411 0.97124 0.84135 0.0
O259 O 0.15701 0.02546 0.8346 0.0
In260 In 0.59423 0.87349 0.49647 0.0
O261 O 0.64738 0.86982 0.46111 0.0
O262 O 0.65026 0.85177 0.5184 0.0
C263 C 0.55517 0.88625 0.43289 0.0
C264 C 0.55253 0.81496 0.52077 0.0
C265 C 0.59687 0.93537 0.54044 0.0
O266 O 0.57674 0.85825 0.43625 0.0
O267 O 0.55564 0.90891 0.46014 0.0
O268 O 0.5788 0.90622 0.54963 0.0
O269 O 0.61464 0.93271 0.50992 0.0
C270 C 0.66731 0.8571 0.48768 0.0
O271 O 0.53886 0.84694 0.51424 0.0
O272 O 0.58784 0.81295 0.51773 0.0
In273 In 0.59598 0.13688 0.96257 0.0
O274 O 0.54851 0.15242 0.92304 0.0
O275 O 0.58527 0.19596 0.94021 0.0
C276 C 0.60571 0.07088 0.92619 0.0
C277 C 0.66809 0.14932 0.98145 0.0
C278 C 0.54566 0.13431 0.01887 0.0
O279 O 0.6022 0.1019 0.90924 0.0
O280 O 0.60346 0.07351 0.96153 0.0
O281 O 0.56637 0.16273 0.01382 0.0
O282 O 0.55196 0.10694 0.99723 0.0
C283 C 0.55628 0.18697 0.92162 0.0
O284 O 0.64386 0.13838 0.00494 0.0
O285 O 0.65564 0.15605 0.94891 0.0
In286 In 0.40691 0.34023 0.98804 0.0
O287 O 0.42938 0.31891 0.9318 0.0
O288 O 0.4364 0.2841 0.97999 0.0
C289 C 0.39005 0.41061 0.96599 0.0
C290 C 0.33716 0.31599 0.00352 0.0
C291 C 0.461 0.35756 0.0381 0.0
O292 O 0.40861 0.38801 0.94582 0.0
O293 O 0.37906 0.39736 0.997 0.0
O294 O 0.43359 0.33677 0.04689 0.0
O295 O 0.46084 0.36957 0.00483 0.0
C296 C 0.44306 0.28927 0.94557 0.0
O297 O 0.36278 0.31682 0.02809 0.0
O298 O 0.34757 0.32419 0.97059 0.0
In299 In 0.90116 0.12255 0.01446 0.0
O300 O 0.84614 0.11544 0.98293 0.0
O301 O 0.84698 0.15345 0.02938 0.0
C302 C 0.93801 0.1038 0.95098 0.0
C303 C 0.94622 0.18075 0.03177 0.0
C304 C 0.89499 0.06899 0.06858 0.0
O305 O 0.91538 0.13115 0.95214 0.0
O306 O 0.94068 0.08516 0.98104 0.0
O307 O 0.90622 0.10199 0.07523 0.0
O308 O 0.88826 0.06303 0.0343 0.0
C309 C 0.82817 0.13811 0.00349 0.0
O310 O 0.9578 0.14725 0.03101 0.0
O311 O 0.91148 0.1848 0.02565 0.0
C312 C 0.08972 0.07612 0.54601 0.0
C313 C 0.1236 0.05582 0.54016 0.0
C314 C 0.13632 0.09311 0.48372 0.0
C315 C 0.09859 0.10545 0.48459 0.0
N316 N 0.04857 0.12653 0.52467 0.0
N317 N 0.18166 0.04725 0.50554 0.0
C318 C 0.07813 0.10279 0.51858 0.0
C319 C 0.14835 0.06585 0.51034 0.0
N320 N 0.06807 0.06854 0.57687 0.0
N321 N 0.1604 0.10807 0.45784 0.0
H322 H 0.19192 0.02747 0.52456 0.0
H323 H 0.19835 0.04995 0.48162 0.0
H324 H 0.15205 0.12982 0.43993 0.0
H325 H 0.18913 0.10237 0.45716 0.0
H326 H 0.04097 0.07892 0.58071 0.0
H327 H 0.07718 0.0508 0.59844 0.0
H328 H 0.0333 0.12761 0.54962 0.0
H329 H 0.04222 0.14824 0.50591 0.0
C330 C 0.95556 0.40836 0.50961 0.0
C331 C 0.93959 0.40197 0.47337 0.0
C332 C 0.87705 0.41731 0.49761 0.0
C333 C 0.8935 0.42647 0.53266 0.0
N334 N 0.94396 0.41562 0.57651 0.0
N335 N 0.88434 0.38589 0.43747 0.0
C336 C 0.93119 0.41634 0.54028 0.0
C337 C 0.89991 0.40153 0.46896 0.0
N338 N 0.99368 0.41024 0.51447 0.0
N339 N 0.83994 0.42511 0.49142 0.0
H340 H 0.90063 0.37288 0.41677 0.0
H341 H 0.85549 0.38229 0.43383 0.0
H342 H 0.82221 0.4346 0.51286 0.0
H343 H 0.82725 0.42347 0.46505 0.0
H344 H 0.00624 0.41911 0.53943 0.0
H345 H 0.0132 0.40579 0.49318 0.0
H346 H 0.9704 0.40539 0.58398 0.0
H347 H 0.92664 0.42136 0.59944 0.0
C348 C 0.09805 0.90855 0.03104 0.0
C349 C 0.06034 0.91501 0.04226 0.0
C350 C 0.04641 0.94081 0.97997 0.0
C351 C 0.08537 0.94154 0.97197 0.0
N352 N 0.14937 0.92842 0.99103 0.0
N353 N -0.00099 0.94181 0.02845 0.0
C354 C 0.11157 0.92541 0.99744 0.0
C355 C 0.03429 0.93169 0.01683 0.0
N356 N 0.1208 0.88611 0.05242 0.0
N357 N 0.02105 0.94923 0.95229 0.0
H358 H 0.98883 0.93734 0.05552 0.0
H359 H 0.98083 0.958 0.01213 0.0
H360 H 0.02929 0.95568 0.92483 0.0
H361 H 0.9921 0.94592 0.9555 0.0
H362 H 0.14753 0.87763 0.04389 0.0
H363 H 0.11139 0.87282 0.07686 0.0
H364 H 0.16961 0.92139 0.01104 0.0
H365 H 0.16068 0.94046 0.96683 0.0
C366 C 0.91335 0.60315 0.0402 0.0
C367 C 0.95331 0.60229 0.04077 0.0
C368 C 0.95302 0.58769 0.97339 0.0
C369 C 0.91452 0.57868 0.97605 0.0
N370 N 0.85649 0.57953 0.01066 0.0
N371 N 0.01184 0.59118 0.0069 0.0
C372 C 0.89403 0.58758 0.00891 0.0
C373 C 0.97355 0.59495 0.00687 0.0
N374 N 0.89409 0.61903 0.06943 0.0
N375 N 0.97007 0.58787 0.93898 0.0
H376 H 0.02866 0.59409 0.03063 0.0
H377 H 0.02692 0.58169 0.98363 0.0
H378 H 0.95521 0.58213 0.91428 0.0
H379 H 0.99753 0.59723 0.93476 0.0
H380 H 0.86504 0.62288 0.06931 0.0
H381 H 0.90772 0.632 0.092 0.0
H382 H 0.84084 0.58103 0.03539 0.0
H383 H 0.84148 0.5698 0.98733 0.0
C384 C 0.44821 0.14605 0.06025 0.0
C385 C 0.44621 0.11165 0.08034 0.0
C386 C 0.51435 0.10386 0.07309 0.0
C387 C 0.51435 0.13304 0.04613 0.0
N388 N 0.48162 0.18297 0.01366 0.0
N389 N 0.47797 0.05651 0.10528 0.0
C390 C 0.48162 0.15514 0.04022 0.0
C391 C 0.47957 0.09063 0.08757 0.0
N392 N 0.41793 0.16972 0.06023 0.0
N393 N 0.54778 0.08856 0.08435 0.0
H394 H 0.45364 0.04522 0.1169 0.0
H395 H 0.50061 0.03794 0.10636 0.0
H396 H 0.57359 0.09804 0.07397 0.0
H397 H 0.55013 0.06954 0.10653 0.0
H398 H 0.41852 0.19668 0.04875 0.0
H399 H 0.39336 0.16366 0.07515 0.0
H400 H 0.45735 0.19677 0.00474 0.0
H401 H 0.50563 0.19101 -0.00111 0.0
C402 C 0.518 0.41947 0.10133 0.0
C403 C 0.55451 0.40353 0.09633 0.0
C404 C 0.52729 0.35135 0.06038 0.0
C405 C 0.49133 0.36802 0.06436 0.0
N406 N 0.45036 0.41067 0.09711 0.0
N407 N 0.59236 0.34951 0.08116 0.0
C408 C 0.48602 0.39944 0.08809 0.0
C409 C 0.55856 0.36773 0.0792 0.0
N410 N 0.51377 0.45501 0.11549 0.0
N411 N 0.53166 0.32077 0.03745 0.0
H412 H 0.61541 0.36075 0.09551 0.0
H413 H 0.59651 0.32204 0.07186 0.0
H414 H 0.50891 0.30708 0.02486 0.0
H415 H 0.55775 0.31002 0.0296 0.0
H416 H 0.48846 0.46974 0.11461 0.0
H417 H 0.53571 0.47129 0.12588 0.0
H418 H 0.44454 0.43111 0.11729 0.0
H419 H 0.42644 0.39693 0.08703 0.0
C420 C 0.5279 0.92465 0.38085 0.0
C421 C 0.52776 0.89072 0.40187 0.0
C422 C 0.46542 0.87539 0.3767 0.0
C423 C 0.46217 0.91299 0.36431 0.0
N424 N 0.49519 0.96446 0.33574 0.0
N425 N 0.49753 0.83172 0.41786 0.0
C426 C 0.49517 0.93489 0.36024 0.0
C427 C 0.4974 0.86481 0.39825 0.0
N428 N 0.55865 0.94769 0.3822 0.0
N429 N 0.43847 0.84986 0.36687 0.0
H430 H 0.52045 0.82231 0.43346 0.0
H431 H 0.47407 0.81433 0.42025 0.0
H432 H 0.41659 0.85686 0.34856 0.0
H433 H 0.4404 0.8212 0.37267 0.0
H434 H 0.55913 0.97489 0.37136 0.0
H435 H 0.58369 0.93967 0.39531 0.0
H436 H 0.51881 0.98066 0.32965 0.0
H437 H 0.47225 0.96991 0.3182 0.0
C438 C 0.45677 0.57513 0.39434 0.0
C439 C 0.45649 0.61282 0.40725 0.0
C440 C 0.51886 0.62313 0.37972 0.0
C441 C 0.52187 0.58378 0.37441 0.0
N442 N 0.4876 0.52858 0.35514 0.0
N443 N 0.48301 0.67522 0.40603 0.0
C444 C 0.48876 0.5616 0.3747 0.0
C445 C 0.48586 0.63795 0.39703 0.0
N446 N 0.42721 0.55195 0.40245 0.0
N447 N 0.54732 0.64582 0.36742 0.0
H448 H 0.45862 0.68684 0.41742 0.0
H449 H 0.50459 0.69469 0.40279 0.0
H450 H 0.57003 0.63505 0.35219 0.0
H451 H 0.54714 0.67502 0.36908 0.0
H452 H 0.42781 0.52295 0.39819 0.0
H453 H 0.40251 0.56182 0.41494 0.0
H454 H 0.46349 0.51212 0.35263 0.0
H455 H 0.50934 0.52048 0.33716 0.0
C456 C 0.10543 0.45059 0.12547 0.0
C457 C 0.12087 0.44961 0.0888 0.0
C458 C 0.11107 0.5174 0.08208 0.0
C459 C 0.08855 0.5166 0.11497 0.0
N460 N 0.06752 0.4846 0.17098 0.0
N461 N 0.15732 0.48481 0.04388 0.0
C462 C 0.08733 0.48396 0.13801 0.0
C463 C 0.12979 0.48398 0.07063 0.0
N464 N 0.10986 0.42023 0.14859 0.0
N465 N 0.11255 0.54923 0.06057 0.0
H466 H 0.17421 0.46145 0.03832 0.0
H467 H 0.16685 0.50945 0.03121 0.0
H468 H 0.09989 0.57445 0.06867 0.0
H469 H 0.12453 0.55007 0.03385 0.0
H470 H 0.10132 0.4196 0.17659 0.0
H471 H 0.12633 0.39719 0.14082 0.0
H472 H 0.06136 0.46072 0.18677 0.0
H473 H 0.05606 0.50926 0.18203 0.0
C474 C 0.11483 0.47413 0.44128 0.0
C475 C 0.09911 0.47279 0.40461 0.0
C476 C 0.12613 0.53453 0.39061 0.0
C477 C 0.13271 0.53934 0.42949 0.0
N478 N 0.15372 0.50865 0.48584 0.0
N479 N 0.0928 0.49977 0.34241 0.0
C480 C 0.13379 0.5073 0.45304 0.0
C481 C 0.10679 0.50184 0.37818 0.0
N482 N 0.10976 0.44447 0.4652 0.0
N483 N 0.13894 0.56103 0.36597 0.0
H484 H 0.07919 0.47605 0.33187 0.0
H485 H 0.09313 0.52223 0.32362 0.0
H486 H 0.15512 0.58383 0.37505 0.0
H487 H 0.13745 0.55822 0.33684 0.0
H488 H 0.11648 0.44522 0.4937 0.0
H489 H 0.09763 0.41918 0.45642 0.0
H490 H 0.15741 0.48571 0.50366 0.0
H491 H 0.17028 0.53191 0.4928 0.0
C492 C 0.95382 0.97284 0.47372 0.0
C493 C 0.92734 0.95472 0.44978 0.0
C494 C 0.93583 0.00378 0.40218 0.0
C495 C 0.96188 0.02197 0.42635 0.0
N496 N 0.98705 0.03047 0.48868 0.0
N497 N 0.88566 0.95784 0.39641 0.0
C498 C 0.96786 0.00869 0.4634 0.0
C499 C 0.91586 0.97188 0.41566 0.0
N500 N 0.96786 0.95487 0.50474 0.0
N501 N 0.93188 0.01535 0.36571 0.0
H502 H 0.87018 0.93478 0.40596 0.0
H503 H 0.87376 0.97119 0.37318 0.0
H504 H 0.94582 0.03868 0.3547 0.0
H505 H 0.91678 0.00028 0.3456 0.0
H506 H 0.99046 0.96511 0.52036 0.0
H507 H 0.95948 0.92814 0.51324 0.0
H508 H 0.98936 0.02384 0.51715 0.0
H509 H 0.99728 0.05717 0.48195 0.0
C510 C 0.37605 0.54545 0.59604 0.0
C511 C 0.37737 0.54559 0.55616 0.0
C512 C 0.38507 0.47707 0.55663 0.0
C513 C 0.39376 0.47903 0.59533 0.0
N514 N 0.39433 0.51343 0.65351 0.0
N515 N 0.3839 0.51085 0.49768 0.0
C516 C 0.38747 0.51264 0.61569 0.0
C517 C 0.38093 0.51108 0.53605 0.0
N518 N 0.36386 0.57668 0.61486 0.0
N519 N 0.38239 0.44284 0.53942 0.0
H520 H 0.38223 0.53486 0.48107 0.0
H521 H 0.39099 0.48696 0.48226 0.0
H522 H 0.38565 0.41767 0.55414 0.0
H523 H 0.37318 0.43939 0.5118 0.0
H524 H 0.35961 0.57743 0.64384 0.0
H525 H 0.35441 0.60072 0.60087 0.0
H526 H 0.39501 0.53807 0.66936 0.0
H527 H 0.40077 0.4891 0.66869 0.0
C528 C 0.57642 0.52706 0.99875 0.0
C529 C 0.58619 0.55131 0.02898 0.0
C530 C 0.56204 0.60544 0.99359 0.0
C531 C 0.54878 0.58043 0.96538 0.0
N532 N 0.53752 0.51652 0.94434 0.0
N533 N 0.58707 0.61292 0.05697 0.0
C534 C 0.55457 0.54106 0.96869 0.0
C535 C 0.57891 0.59046 0.02683 0.0
N536 N 0.589 0.49069 0.99802 0.0
N537 N 0.55902 0.64337 0.98817 0.0
H538 H 0.59997 0.60268 0.08128 0.0
H539 H 0.57915 0.64104 0.05895 0.0
H540 H 0.54669 0.65486 0.96415 0.0
H541 H 0.571 0.66339 0.00586 0.0
H542 H 0.58697 0.47341 0.97442 0.0
H543 H 0.60491 0.47869 0.01942 0.0
H544 H 0.53618 0.48761 0.94899 0.0
H545 H 0.52192 0.52478 0.92101 0.0
C546 C 0.4343 0.9543 0.0339 0.0
C547 C 0.39467 0.95564 0.03639 0.0
C548 C 0.38997 0.91102 0.98434 0.0
C549 C 0.4284 0.91763 0.97604 0.0
N550 N 0.4879 0.94663 0.99303 0.0
N551 N 0.3338 0.93414 0.01517 0.0
C552 C 0.4512 0.93865 0.00137 0.0
C553 C 0.37213 0.93285 0.01264 0.0
N554 N 0.45555 0.96886 0.06245 0.0
N555 N 0.37068 0.88408 0.96483 0.0
H556 H 0.31967 0.94901 0.0361 0.0
H557 H 0.31594 0.92193 0.9954 0.0
H558 H 0.38355 0.86742 0.94431 0.0
H559 H 0.34341 0.87572 0.97155 0.0
H560 H 0.4847 0.96612 0.06388 0.0
H561 H 0.44333 0.98013 0.08669 0.0
H562 H 0.50397 0.96587 0.00824 0.0
H563 H 0.50191 0.93633 0.96952 0.0
C564 C 0.57112 0.41262 0.52798 0.0
C565 C 0.53236 0.42032 0.53356 0.0
C566 C 0.53015 0.45315 0.47303 0.0
C567 C 0.56981 0.4515 0.47116 0.0
N568 N 0.6291 0.43136 0.49725 0.0
N569 N 0.47572 0.45262 0.51337 0.0
C570 C 0.59067 0.43115 0.49838 0.0
C571 C 0.51177 0.44124 0.5063 0.0
N572 N 0.58903 0.38735 0.55075 0.0
N573 N 0.51015 0.46656 0.44302 0.0
H574 H 0.46124 0.44614 0.53792 0.0
H575 H 0.4613 0.47169 0.49642 0.0
H576 H 0.52309 0.47535 0.41815 0.0
H577 H 0.48091 0.46532 0.44131 0.0
H578 H 0.61641 0.37802 0.54604 0.0
H579 H 0.5752 0.37298 0.57231 0.0
H580 H 0.64591 0.421 0.51891 0.0
H581 H 0.64431 0.44403 0.47559 0.0
C582 C 0.4596 0.03447 0.51605 0.0
C583 C 0.43996 0.06404 0.53437 0.0
C584 C 0.38891 0.05962 0.48842 0.0
C585 C 0.40951 0.03141 0.46908 0.0
N586 N 0.46805 0.99862 0.45875 0.0
N587 N 0.39039 0.11028 0.53414 0.0
C588 C 0.44604 0.02094 0.4811 0.0
C589 C 0.40595 0.07837 0.51932 0.0
N590 N 0.48983 0.01771 0.53299 0.0
N591 N 0.35244 0.06707 0.47865 0.0
H592 H 0.40237 0.12478 0.5567 0.0
H593 H 0.36768 0.12424 0.52199 0.0
H594 H 0.33879 0.05384 0.4563 0.0
H595 H 0.33473 0.0842 0.4945 0.0
H596 H 0.50234 0.99321 0.52287 0.0
H597 H 0.50038 0.02603 0.55906 0.0
H598 H 0.4963 0.99315 0.46436 0.0
H599 H 0.4592 0.98864 0.43258 0.0
C600 C 0.99241 0.62251 0.56713 0.0
C601 C 0.02193 0.5987 0.55452 0.0
C602 C 0.98456 0.54308 0.56962 0.0
C603 C 0.95528 0.5667 0.58325 0.0
N604 N 0.93546 0.628 0.60433 0.0
N605 N 0.05073 0.53744 0.55445 0.0
C606 C 0.96061 0.60619 0.5851 0.0
C607 C 0.01953 0.55933 0.55961 0.0
N608 N 0.99337 0.66025 0.55981 0.0
N609 N 0.97824 0.50571 0.56312 0.0
H610 H 0.07693 0.54878 0.54747 0.0
H611 H 0.05152 0.50887 0.561 0.0
H612 H 0.95256 0.49258 0.56801 0.0
H613 H 0.99737 0.4885 0.5491 0.0
H614 H 0.97043 0.67799 0.56411 0.0
H615 H 0.01602 0.67357 0.54685 0.0
H616 H 0.93971 0.65653 0.6096 0.0
H617 H 0.91221 0.61673 0.61828 0.0
C618 C 0.01925 0.82818 0.55508 0.0
C619 C 0.98497 0.84728 0.56164 0.0
C620 C 0.01718 0.88926 0.60555 0.0
C621 C 0.05213 0.87705 0.59078 0.0
N622 N 0.08709 0.83247 0.55279 0.0
N623 N 0.95006 0.89478 0.59539 0.0
C624 C 0.05357 0.845 0.56684 0.0
C625 C 0.98328 0.87676 0.58846 0.0
N626 N 0.01868 0.79445 0.53664 0.0
N627 N 0.01672 0.91324 0.63559 0.0
H628 H 0.92441 0.88572 0.5845 0.0
H629 H 0.94818 0.91972 0.61067 0.0
H630 H 0.04146 0.92216 0.64875 0.0
H631 H 0.99222 0.92099 0.64967 0.0
H632 H 0.04226 0.77734 0.53345 0.0
H633 H 0.99352 0.78198 0.52789 0.0
H634 H 0.0891 0.81262 0.53133 0.0
H635 H 0.11309 0.84292 0.56118 0.0
C636 C 0.01671 0.38302 0.91786 0.0
C637 C 0.04299 0.40396 0.93935 0.0
C638 C 0.00731 0.46167 0.92933 0.0
C639 C 0.97971 0.44058 0.90936 0.0
N640 N 0.96283 0.38435 0.87567 0.0
N641 N 0.07069 0.46362 0.95462 0.0
C642 C 0.98611 0.4022 0.90054 0.0
C643 C 0.0408 0.44356 0.94103 0.0
N644 N 0.01983 0.34477 0.91589 0.0
N645 N 0.00031 0.49791 0.94014 0.0
H646 H 0.09556 0.45061 0.96334 0.0
H647 H 0.07232 0.49286 0.95358 0.0
H648 H 0.97598 0.51245 0.93303 0.0
H649 H 0.01736 0.51275 0.95881 0.0
H650 H -0.00087 0.32734 0.90464 0.0
H651 H 0.04267 0.33019 0.92713 0.0
H652 H 0.96753 0.35724 0.86563 0.0
H653 H 0.94048 0.3981 0.86245 0.0
C654 C 0.01984 0.10765 0.88277 0.0
C655 C 0.02139 0.06907 0.87335 0.0
C656 C 0.95904 0.05937 0.90066 0.0
C657 C 0.96197 0.09522 0.91805 0.0
N658 N 0.99381 0.15511 0.92409 0.0
N659 N 0.98483 0.0154 0.85492 0.0
C660 C 0.99133 0.1204 0.90771 0.0
C661 C 0.98835 0.04708 0.87635 0.0
N662 N 0.04524 0.13184 0.86716 0.0
N663 N 0.92908 0.03668 0.90877 0.0
H664 H 0.00479 0.00834 0.83456 0.0
H665 H 0.9607 -0.00118 0.85402 0.0
H666 H 0.90621 0.04593 0.92472 0.0
H667 H 0.9273 0.00856 0.90077 0.0
H668 H 0.04421 0.16091 0.87061 0.0
H669 H 0.0646 0.12282 0.84697 0.0
H670 H 0.01707 0.1727 0.92123 0.0
H671 H 0.97354 0.16567 0.94241 0.0
C672 C 0.58751 -0.00066 0.62519 0.0
C673 C 0.57847 0.03374 0.60722 0.0
C674 C 0.58985 0.00597 0.54575 0.0
C675 C 0.59586 0.97039 0.56316 0.0
N676 N 0.61395 0.93661 0.61923 0.0
N677 N 0.59242 0.07347 0.55416 0.0
C678 C 0.59915 0.96814 0.60296 0.0
C679 C 0.58714 0.03838 0.56875 0.0
N680 N 0.58399 0.99654 0.66334 0.0
N681 N 0.58346 0.0089 0.50794 0.0
H682 H 0.5937 0.09731 0.57124 0.0
H683 H 0.60092 0.07802 0.52646 0.0
H684 H 0.58224 0.98599 0.48976 0.0
H685 H 0.57514 0.034 0.49525 0.0
H686 H 0.5854 0.97121 0.67798 0.0
H687 H 0.57882 0.0201 0.68014 0.0
H688 H 0.61954 0.93429 0.6479 0.0
H689 H 0.62418 0.91405 0.60346 0.0
C690 C 0.59173 0.03152 0.86907 0.0
C691 C 0.60439 0.03375 0.90672 0.0
C692 C 0.58488 0.96882 0.91789 0.0
C693 C 0.56387 0.97051 0.88407 0.0
N694 N 0.54997 0.00049 0.82486 0.0
N695 N 0.63116 -0.00082 0.95816 0.0
C696 C 0.56882 0.00063 0.85839 0.0
C697 C 0.60696 0.00043 0.92837 0.0
N698 N 0.60276 0.05805 0.8436 0.0
N699 N 0.58148 0.93829 0.941 0.0
H700 H 0.64932 0.02149 0.96407 0.0
H701 H 0.63626 0.97516 0.97409 0.0
H702 H 0.56641 0.9143 0.93326 0.0
H703 H 0.59238 0.93714 0.96816 0.0
H704 H 0.59616 0.05688 0.81508 0.0
H705 H 0.62274 0.07849 0.85029 0.0
H706 H 0.5485 0.02366 0.80701 0.0
H707 H 0.53447 0.9773 0.81562 0.0
C708 C 0.38162 0.49183 0.89929 0.0
C709 C 0.39383 0.52163 0.92272 0.0
C710 C 0.39241 0.48078 0.97785 0.0
C711 C 0.38331 0.44995 0.95395 0.0
N712 N 0.35521 0.42898 0.8959 0.0
N713 N 0.3959 0.54875 0.98433 0.0
C714 C 0.373 0.45655 0.91593 0.0
C715 C 0.39339 0.51746 0.96219 0.0
N716 N 0.38105 0.49627 0.86113 0.0
N717 N 0.4036 0.47513 0.01423 0.0
H718 H 0.39716 0.57573 0.9727 0.0
H719 H 0.39285 0.54816 0.01348 0.0
H720 H 0.40441 0.44896 0.02724 0.0
H721 H 0.41488 0.49638 0.03099 0.0
H722 H 0.37757 0.47399 0.84238 0.0
H723 H 0.3855 0.52217 0.84816 0.0
H724 H 0.34444 0.43307 0.86895 0.0
H725 H 0.34778 0.40323 0.90794 0.0
C726 C 0.88857 0.0006 0.08557 0.0
C727 C 0.89667 0.03793 0.09687 0.0
C728 C 0.93397 0.01442 0.1495 0.0
C729 C 0.9338 0.9784 0.1323 0.0
N730 N 0.90828 0.93531 0.08649 0.0
N731 N 0.90801 0.07769 0.15041 0.0
C732 C 0.90935 0.97057 0.10177 0.0
C733 C 0.91336 0.04414 0.13249 0.0
N734 N 0.86024 0.99409 0.06046 0.0
N735 N 0.95539 0.02038 0.1809 0.0
H736 H 0.8896 0.09801 0.13993 0.0
H737 H 0.91775 0.08352 0.17741 0.0
H738 H 0.96895 0.99846 0.195 0.0
H739 H 0.96066 0.04686 0.19226 0.0
H740 H 0.85116 0.9673 0.05282 0.0
H741 H 0.84272 0.0157 0.05104 0.0
H742 H 0.89485 0.92906 0.0612 0.0
H743 H 0.92237 0.91249 0.09837 0.0
C744 C 0.02942 0.23265 0.32878 0.0
C745 C 0.01491 0.21323 0.36053 0.0
C746 C 0.9868 0.27168 0.38375 0.0
C747 C 0.00607 0.29181 0.35529 0.0
N748 N 0.04723 0.29274 0.30153 0.0
N749 N 0.98546 0.21557 0.42195 0.0
C750 C 0.02773 0.27264 0.32787 0.0
C751 C 0.99464 0.23293 0.38882 0.0
N752 N 0.04381 0.2128 0.29913 0.0
N753 N 0.96144 0.28972 0.40639 0.0
H754 H 0.99235 0.18776 0.42815 0.0
H755 H 0.97449 0.22985 0.44507 0.0
H756 H 0.95551 0.31835 0.40414 0.0
H757 H 0.94367 0.27561 0.42495 0.0
H758 H 0.05166 0.22512 0.27373 0.0
H759 H 0.04472 0.18346 0.29861 0.0
H760 H 0.06701 0.28082 0.28351 0.0
H761 H 0.045 0.32192 0.29907 0.0
C762 C 0.01538 0.73168 0.19845 0.0
C763 C 0.02513 0.71341 0.16427 0.0
C764 C 0.04298 0.77397 0.13649 0.0
C765 C 0.02938 0.79258 0.1691 0.0
N766 N -9e-05 0.7903 0.23008 0.0
N767 N 0.04139 0.71772 0.09833 0.0
C768 C 0.01475 0.77175 0.19983 0.0
C769 C 0.03751 0.73462 0.13274 0.0
N770 N 0.008 0.7107 0.22984 0.0
N771 N 0.0607 0.7939 0.10871 0.0
H772 H 0.03649 0.68922 0.09365 0.0
H773 H 0.04583 0.73255 0.07346 0.0
H774 H 0.06336 0.82308 0.10887 0.0
H775 H 0.07538 0.78122 0.08674 0.0
H776 H 0.0043 0.7222 0.25653 0.0
H777 H 0.00871 0.68135 0.22988 0.0
H778 H 0.9849 0.77702 0.25145 0.0
H779 H 0.00081 0.81952 0.2328 0.0
C780 C 0.29991 0.00964 0.2175 0.0
C781 C 0.32486 0.03742 0.20357 0.0
C782 C 0.35628 0.04131 0.2645 0.0
C783 C 0.33102 0.01378 0.27889 0.0
N784 N 0.2734 0.9786 0.27226 0.0
N785 N 0.36937 0.08702 0.21565 0.0
C786 C 0.30105 6e-05 0.25634 0.0
C787 C 0.35029 0.05596 0.22789 0.0
N788 N 0.27593 0.99176 0.19332 0.0
N789 N 0.38782 0.05118 0.28429 0.0
H790 H 0.36596 0.0981 0.18868 0.0
H791 H 0.38556 0.10391 0.23332 0.0
H792 H 0.39485 0.03987 0.31039 0.0
H793 H 0.4092 0.06785 0.27317 0.0
H794 H 0.26022 0.96813 0.20063 0.0
H795 H 0.27306 -0.00029 0.16518 0.0
H796 H 0.24906 0.97049 0.2581 0.0
H797 H 0.27314 0.97176 0.30082 0.0
C798 C 0.68179 0.53333 0.23014 0.0
C799 C 0.66967 0.49799 0.21589 0.0
C800 C 0.67144 0.47227 0.27958 0.0
C801 C 0.67276 0.50919 0.29434 0.0
N802 N 0.6915 0.57375 0.2844 0.0
N803 N 0.65037 0.43366 0.22808 0.0
C804 C 0.68197 0.53951 0.26985 0.0
C805 C 0.66447 0.46714 0.24074 0.0
N806 N 0.69444 0.56025 0.20571 0.0
N807 N 0.67793 0.44217 0.30253 0.0
H808 H 0.64285 0.42869 0.20019 0.0
H809 H 0.64258 0.41192 0.24617 0.0
H810 H 0.68648 0.44552 0.33044 0.0
H811 H 0.68 0.41466 0.29254 0.0
H812 H 0.70631 0.58569 0.214 0.0
H813 H 0.69593 0.55587 0.17671 0.0
H814 H 0.69237 0.59848 0.26875 0.0
H815 H 0.70014 0.5771 0.31222 0.0
C816 C 0.27384 0.28694 0.99341 0.0
C817 C 0.29683 0.31285 0.01324 0.0
C818 C 0.24122 0.33825 0.04514 0.0
C819 C 0.21805 0.31664 0.02091 0.0
N820 N 0.21112 0.27075 0.97156 0.0
N821 N 0.30187 0.36725 0.05421 0.0
C822 C 0.23403 0.29084 0.99504 0.0
C823 C 0.28055 0.33914 0.03869 0.0
N824 N 0.2902 0.25829 0.97363 0.0
N825 N 0.22566 0.35879 0.07375 0.0
H826 H 0.33066 0.37025 0.04997 0.0
H827 H 0.29043 0.38999 0.06873 0.0
H828 H 0.1968 0.36087 0.07837 0.0
H829 H 0.24158 0.37128 0.09497 0.0
H830 H 0.27512 0.23646 0.96121 0.0
H831 H 0.31931 0.25451 0.97253 0.0
H832 H 0.22097 0.25474 0.94908 0.0
H833 H 0.18183 0.27153 0.97354 0.0
C834 C 0.2242 0.71063 0.47271 0.0
C835 C 0.20299 0.69411 0.50213 0.0
C836 C 0.26036 0.6775 0.53581 0.0
C837 C 0.28171 0.68784 0.50355 0.0
N838 N 0.28566 0.71981 0.44386 0.0
N839 N 0.20129 0.68444 0.56902 0.0
C840 C 0.26413 0.70664 0.4729 0.0
C841 C 0.22122 0.68489 0.53621 0.0
N842 N 0.20614 0.73173 0.44616 0.0
N843 N 0.27643 0.65777 0.56467 0.0
H844 H 0.17327 0.69318 0.5702 0.0
H845 H 0.21373 0.68067 0.59531 0.0
H846 H 0.30471 0.65022 0.56551 0.0
H847 H 0.26081 0.64589 0.58646 0.0
H848 H 0.21952 0.74587 0.42433 0.0
H849 H 0.17766 0.73846 0.44855 0.0
H850 H 0.27482 0.73027 0.41877 0.0
H851 H 0.31501 0.71981 0.44472 0.0
C852 C 0.73138 0.88394 0.47663 0.0
C853 C 0.70846 0.85212 0.48416 0.0
C854 C 0.76461 0.81239 0.49012 0.0
C855 C 0.78723 0.84364 0.47989 0.0
N856 N 0.79259 0.90817 0.45911 0.0
N857 N 0.70195 0.78518 0.49278 0.0
C858 C 0.7707 0.87904 0.47158 0.0
C859 C 0.72471 0.81607 0.48962 0.0
N860 N 0.71593 0.91923 0.47663 0.0
N861 N 0.78129 0.77929 0.50045 0.0
H862 H 0.67265 0.78685 0.49218 0.0
H863 H 0.71186 0.75763 0.49295 0.0
H864 H 0.8103 0.77498 0.4992 0.0
H865 H 0.76675 0.75683 0.51235 0.0
H866 H 0.73175 0.94387 0.47581 0.0
H867 H 0.68737 0.92431 0.48087 0.0
H868 H 0.78163 0.93287 0.44779 0.0
H869 H 0.82186 0.90701 0.45781 0.0
C870 C 0.44865 0.76671 0.82756 0.0
C871 C 0.46742 0.7874 0.85612 0.0
C872 C 0.48952 0.72902 0.88498 0.0
C873 C 0.46801 0.70834 0.8586 0.0
N874 N 0.42373 0.7063 0.80734 0.0
N875 N 0.49813 0.78833 0.9169 0.0
C876 C 0.44649 0.72683 0.8306 0.0
C877 C 0.48593 0.76862 0.88613 0.0
N878 N 0.43422 0.78502 0.79696 0.0
N879 N 0.51371 0.71086 0.90878 0.0
H880 H 0.49461 0.81728 0.91995 0.0
H881 H 0.50814 0.77551 0.94128 0.0
H882 H 0.51659 0.68168 0.90943 0.0
H883 H 0.53329 0.72484 0.92554 0.0
H884 H 0.42354 0.77126 0.7734 0.0
H885 H 0.43563 0.81416 0.79374 0.0
H886 H 0.40429 0.71831 0.78901 0.0
H887 H 0.42255 0.67697 0.80817 0.0
C888 C 0.4804 0.27076 0.68551 0.0
C889 C 0.47446 0.2896 0.65081 0.0
C890 C 0.47541 0.22953 0.61716 0.0
C891 C 0.47766 0.21039 0.65214 0.0
N892 N 0.47831 0.2117 0.71992 0.0
N893 N 0.46188 0.28741 0.58402 0.0
C894 C 0.47929 0.23069 0.68648 0.0
C895 C 0.47044 0.2691 0.61679 0.0
N896 N 0.48732 0.2912 0.71737 0.0
N897 N 0.48025 0.21015 0.5842 0.0
H898 H 0.46017 0.3166 0.5818 0.0
H899 H 0.45385 0.27356 0.55946 0.0
H900 H 0.48522 0.18125 0.58308 0.0
H901 H 0.48315 0.22309 0.55809 0.0
H902 H 0.4959 0.27931 0.74272 0.0
H903 H 0.48672 0.32056 0.71788 0.0
H904 H 0.47549 0.22479 0.74596 0.0
H905 H 0.47757 0.18239 0.72154 0.0
C906 C 0.87138 0.47687 0.76815 0.0
C907 C 0.847 0.4977 0.79193 0.0
C908 C 0.81282 0.52158 0.73682 0.0
C909 C 0.83939 0.50357 0.71314 0.0
N910 N 0.89781 0.46947 0.70587 0.0
N911 N 0.79607 0.54174 0.79998 0.0
C912 C 0.86948 0.4823 0.72864 0.0
C913 C 0.81813 0.52065 0.77656 0.0
N914 N 0.89683 0.45223 0.78326 0.0
N915 N 0.782 0.53855 0.72125 0.0
H916 H 0.79771 0.54001 0.82925 0.0
H917 H 0.77745 0.5623 0.79061 0.0
H918 H 0.7774 0.53958 0.69226 0.0
H919 H 0.75957 0.54906 0.73686 0.0
H920 H 0.91166 0.43263 0.76729 0.0
H921 H 0.90155 0.44936 0.81205 0.0
H922 H 0.92275 0.45794 0.71599 0.0
H923 H 0.89828 0.47333 0.67681 0.0
C924 C 0.15862 0.93667 0.73162 0.0
C925 C 0.16563 0.96613 0.70561 0.0
C926 C 0.18207 0.00852 0.75761 0.0
C927 C 0.16818 0.98131 0.78327 0.0
N928 N 0.16478 0.91488 0.79593 0.0
N929 N 0.18655 0.02942 0.69275 0.0
C930 C 0.16301 0.9438 0.77069 0.0
C931 C 0.1785 0.00179 0.71829 0.0
N932 N 0.14542 0.9027 0.71928 0.0
N933 N 0.20136 0.03906 0.77076 0.0
H934 H 0.18704 0.02468 0.66378 0.0
H935 H 0.19114 0.05741 0.70009 0.0
H936 H 0.20925 0.04165 0.79889 0.0
H937 H 0.21431 0.05885 0.75351 0.0
H938 H 0.13536 0.88188 0.73728 0.0
H939 H 0.14189 0.89619 0.69089 0.0
H940 H 0.16418 0.88662 0.78821 0.0
H941 H 0.17227 0.91915 0.824 0.0
C942 C 0.77109 0.1773 0.98935 0.0
C943 C 0.78707 0.14243 0.00039 0.0
C944 C 0.72534 0.11235 0.99824 0.0
C945 C 0.7088 0.14764 0.98943 0.0
N946 N 0.71437 0.21481 0.98233 0.0
N947 N 0.77888 0.07939 0.0242 0.0
C948 C 0.73124 0.18052 0.98663 0.0
C949 C 0.76402 0.11074 0.0075 0.0
N950 N 0.79402 0.20679 0.98018 0.0
N951 N 0.70465 0.07998 0.99578 0.0
H952 H 0.8071 0.07728 0.032 0.0
H953 H 0.76255 0.05701 0.03376 0.0
H954 H 0.6763 0.07951 0.98842 0.0
H955 H 0.71644 0.0532 0.99752 0.0
H956 H 0.78436 0.23164 0.96805 0.0
H957 H 0.82328 0.20544 0.98226 0.0
H958 H 0.72879 0.24026 0.98385 0.0
H959 H 0.68525 0.218 0.98026 0.0
C960 C 0.07009 0.96585 0.27609 0.0
C961 C 0.06306 0.97688 0.23852 0.0
C962 C 0.06557 0.04327 0.25714 0.0
C963 C 0.06619 0.03203 0.2953 0.0
N964 N 0.06687 0.98252 0.34203 0.0
N965 N 0.05173 0.02599 0.19276 0.0
C966 C 0.06858 0.9933 0.30513 0.0
C967 C 0.06081 0.01561 0.2287 0.0
N968 N 0.07837 0.9291 0.28384 0.0
N969 N 0.06977 0.08045 0.24823 0.0
H970 H 0.04841 0.00687 0.1708 0.0
H971 H 0.04488 0.05343 0.18515 0.0
H972 H 0.07345 0.10125 0.26866 0.0
H973 H 0.07322 0.09021 0.22081 0.0
H974 H 0.08741 0.91976 0.3101 0.0
H975 H 0.07962 0.90848 0.26294 0.0
H976 H 0.06362 0.95468 0.35057 0.0
H977 H 0.06615 0.00147 0.36436 0.0
C978 C 0.96827 0.4718 0.25614 0.0
C979 C 0.97944 0.48172 0.29304 0.0
C980 C 0.98468 0.54782 0.27408 0.0
C981 C 0.97933 0.53691 0.23616 0.0
N982 N 0.97014 0.48759 0.19003 0.0
N983 N 0.00247 0.5285 0.33687 0.0
C984 C 0.97164 0.49874 0.22684 0.0
C985 C 0.98828 0.51966 0.30218 0.0
N986 N 0.95414 0.4367 0.24924 0.0
N987 N 0.98615 0.58518 0.28312 0.0
H988 H 0.00616 0.50884 0.3583 0.0
H989 H 0.01364 0.55478 0.34348 0.0
H990 H 0.98342 0.60639 0.26297 0.0
H991 H 0.98638 0.5951 0.3107 0.0
H992 H 0.94195 0.42899 0.22371 0.0
H993 H 0.95133 0.41636 0.27024 0.0
H994 H 0.97255 0.50606 0.16741 0.0
H995 H 0.96949 0.45948 0.18177 0.0
C996 C 0.23445 0.07691 0.9556 0.0
C997 C 0.2013 0.05659 0.96412 0.0
C998 C 0.21951 0.05366 0.03056 0.0
C999 C 0.25539 0.06785 0.02081 0.0
N1000 N 0.29822 0.09258 0.97418 0.0
N1001 N 0.16084 0.02616 0.00935 0.0
C1002 C 0.263 0.08023 0.98352 0.0
C1003 C 0.19319 0.04552 0.00164 0.0
N1004 N 0.23872 0.09254 0.92072 0.0
N1005 N 0.21068 0.04845 0.06765 0.0
H1006 H 0.13975 0.02191 0.98943 0.0
H1007 H 0.15552 0.01289 0.03491 0.0
H1008 H 0.22946 0.05483 0.08934 0.0
H1009 H 0.18394 0.04125 0.07716 0.0
H1010 H 0.26057 0.11075 0.91371 0.0
H1011 H 0.21851 0.08977 0.89959 0.0
H1012 H 0.30688 0.09752 0.94664 0.0
H1013 H 0.31977 0.09596 0.99377 0.0
C1014 C 0.76475 0.44817 0.03695 0.0
C1015 C 0.72907 0.46391 0.02905 0.0
C1016 C 0.7483 0.47584 0.96393 0.0
C1017 C 0.78565 0.46595 0.97352 0.0
N1018 N 0.83085 0.44657 0.02069 0.0
N1019 N 0.68716 0.49569 0.986 0.0
C1020 C 0.79428 0.45251 0.01027 0.0
C1021 C 0.72082 0.47838 0.99272 0.0
N1022 N 0.77051 0.42957 0.07011 0.0
N1023 N 0.73899 0.48203 0.9271 0.0
H1024 H 0.66593 0.4974 0.00607 0.0
H1025 H 0.68129 0.51072 0.96153 0.0
H1026 H 0.75842 0.47952 0.90522 0.0
H1027 H 0.71145 0.4858 0.91783 0.0
H1028 H 0.79476 0.41416 0.07588 0.0
H1029 H 0.74963 0.42685 0.09057 0.0
H1030 H 0.83902 0.44103 0.04828 0.0
H1031 H 0.85361 0.45023 0.00261 0.0
C1032 C 0.28031 0.91417 0.48187 0.0
C1033 C 0.27068 0.93097 0.44685 0.0
C1034 C 0.20713 0.944 0.46987 0.0
C1035 C 0.21655 0.92679 0.50479 0.0
N1036 N 0.25804 0.88679 0.54033 0.0
N1037 N 0.22278 0.95187 0.4039 0.0
C1038 C 0.25186 0.90896 0.50952 0.0
C1039 C 0.23325 0.94243 0.43969 0.0
N1040 N 0.31694 0.90557 0.48987 0.0
N1041 N 0.17461 0.96426 0.46618 0.0
H1042 H 0.24143 0.95065 0.38122 0.0
H1043 H 0.19501 0.95704 0.39609 0.0
H1044 H 0.15485 0.96731 0.48759 0.0
H1045 H 0.16872 0.98103 0.44288 0.0
H1046 H 0.32614 0.89776 0.51658 0.0
H1047 H 0.33884 0.90874 0.47066 0.0
H1048 H 0.28189 0.87008 0.54359 0.0
H1049 H 0.23754 0.88225 0.56087 0.0
C1050 C 0.72058 0.54198 0.54598 0.0
C1051 C 0.75859 0.54843 0.53593 0.0
C1052 C 0.73904 0.56591 0.47202 0.0
C1053 C 0.70222 0.55354 0.48048 0.0
N1054 N 0.65695 0.52925 0.52475 0.0
N1055 N 0.80506 0.56389 0.48859 0.0
C1056 C 0.69254 0.54192 0.51743 0.0
C1057 C 0.76813 0.56043 0.49892 0.0
N1058 N 0.71142 0.53637 0.58291 0.0
N1059 N 0.74609 0.58262 0.43811 0.0
H1060 H 0.82746 0.55991 0.50707 0.0
H1061 H 0.81376 0.568 0.46093 0.0
H1062 H 0.72518 0.58658 0.41785 0.0
H1063 H 0.7715 0.59559 0.43145 0.0
H1064 H 0.68387 0.53486 0.59274 0.0
H1065 H 0.7315 0.53658 0.60436 0.0
H1066 H 0.64929 0.51587 0.54965 0.0
H1067 H 0.63528 0.53048 0.50499 0.0
C1068 C 0.99734 0.27264 0.01265 0.0
C1069 C 0.02767 0.26965 0.0383 0.0
C1070 C -0.00103 0.21334 0.06561 0.0
C1071 C 0.97235 0.21291 0.03577 0.0
N1072 N 0.95066 0.23921 0.97663 0.0
N1073 N 0.05936 0.23612 0.08798 0.0
C1074 C 0.97242 0.24193 0.00827 0.0
C1075 C 0.02894 0.23988 0.06476 0.0
N1076 N 0.9918 0.30526 0.99305 0.0
N1077 N 0.99498 0.18911 0.09521 0.0
H1078 H 0.08154 0.25535 0.08838 0.0
H1079 H 0.06387 0.21262 0.10489 0.0
H1080 H 0.97275 0.17003 0.0972 0.0
H1081 H 0.01145 0.19042 0.11942 0.0
H1082 H 0.96794 0.31026 0.97673 0.0
H1083 H 0.0089 0.32888 0.99643 0.0
H1084 H 0.95315 0.25766 0.95397 0.0
H1085 H 0.93294 0.21658 0.97094 0.0
C1086 C 0.01599 0.7347 0.40841 0.0
C1087 C 0.0136 0.7029 0.43225 0.0
C1088 C 0.94644 0.71454 0.44214 0.0
C1089 C 0.95119 0.75023 0.42532 0.0
N1090 N 0.9819 0.78372 0.37515 0.0
N1091 N 0.97605 0.65809 0.46669 0.0
C1092 C 0.98331 0.75705 0.40272 0.0
C1093 C 0.97836 0.69097 0.44688 0.0
N1094 N 0.04977 0.74451 0.39294 0.0
N1095 N 0.9112 0.70339 0.45261 0.0
H1096 H 0.99844 0.63924 0.46849 0.0
H1097 H 0.95249 0.64966 0.48186 0.0
H1098 H 0.88756 0.71987 0.44682 0.0
H1099 H 0.90478 0.67698 0.46347 0.0
H1100 H 0.05439 0.76981 0.37891 0.0
H1101 H 0.07378 0.72781 0.39569 0.0
H1102 H 0.00368 0.78862 0.3562 0.0
H1103 H 0.95687 0.79736 0.36814 0.0
C1104 C 0.49848 0.78341 0.55317 0.0
C1105 C 0.528 0.78173 0.52626 0.0
C1106 C 0.50513 0.72032 0.50523 0.0
C1107 C 0.47207 0.72559 0.52672 0.0
N1108 N 0.4361 0.76192 0.5711 0.0
N1109 N 0.55606 0.75056 0.47233 0.0
C1110 C 0.46855 0.75684 0.55114 0.0
C1111 C 0.53092 0.75044 0.50148 0.0
N1112 N 0.49944 0.81007 0.58087 0.0
N1113 N 0.51191 0.68637 0.48848 0.0
H1114 H 0.57461 0.77254 0.46687 0.0
H1115 H 0.55596 0.73031 0.45111 0.0
H1116 H 0.49362 0.66354 0.49106 0.0
H1117 H 0.53732 0.67976 0.47542 0.0
H1118 H 0.48051 0.81083 0.60321 0.0
H1119 H 0.52147 0.82934 0.58347 0.0
H1120 H 0.43001 0.78635 0.58608 0.0
H1121 H 0.4142 0.74235 0.5709 0.0
C1122 C 0.50168 0.53251 0.75272 0.0
C1123 C 0.49216 0.52051 0.78943 0.0
C1124 C 0.48937 0.45501 0.76799 0.0
C1125 C 0.49433 0.46758 0.7305 0.0
N1126 N 0.49999 0.51897 0.68611 0.0
N1127 N 0.47294 0.47133 0.83218 0.0
C1128 C 0.49949 0.50648 0.72252 0.0
C1129 C 0.4852 0.48195 0.79726 0.0
N1130 N 0.51342 0.56869 0.74686 0.0
N1131 N 0.48941 0.4173 0.77561 0.0
H1132 H 0.46979 0.49015 0.85449 0.0
H1133 H 0.46315 0.44442 0.83836 0.0
H1134 H 0.49263 0.39691 0.75471 0.0
H1135 H 0.48964 0.4063 0.80277 0.0
H1136 H 0.52471 0.57804 0.72148 0.0
H1137 H 0.51503 0.58859 0.7684 0.0
H1138 H 0.49881 0.54732 0.67881 0.0
H1139 H 0.49853 0.5012 0.66287 0.0
C1140 C 0.43917 0.00949 0.78979 0.0
C1141 C 0.43773 0.97077 0.77967 0.0
C1142 C 0.44302 0.9872 0.71316 0.0
C1143 C 0.44374 0.02597 0.72321 0.0
N1144 N 0.4325 0.07424 0.76934 0.0
N1145 N 0.4281 0.92342 0.73236 0.0
C1146 C 0.43842 0.03715 0.76102 0.0
C1147 C 0.43611 0.95992 0.74146 0.0
N1148 N 0.44403 0.01997 0.82651 0.0
N1149 N 0.45175 0.97608 0.67735 0.0
H1150 H 0.42283 0.90294 0.75275 0.0
H1151 H 0.42298 0.91443 0.70493 0.0
H1152 H 0.45799 0.9947 0.65562 0.0
H1153 H 0.45601 0.94808 0.66984 0.0
H1154 H 0.45024 0.04743 0.83467 0.0
H1155 H 0.4447 0.00104 0.84884 0.0
H1156 H 0.4248 0.0837 0.79599 0.0
H1157 H 0.43163 0.09511 0.74868 0.0
C1158 C 0.46153 0.22961 0.91329 0.0
C1159 C 0.47108 0.26633 0.92547 0.0
C1160 C 0.5375 0.25404 0.91214 0.0
C1161 C 0.5286 0.21554 0.90836 0.0
N1162 N 0.48317 0.17173 0.88404 0.0
N1163 N 0.51747 0.31543 0.93388 0.0
C1164 C 0.49076 0.2048 0.90202 0.0
C1165 C 0.50878 0.27954 0.92304 0.0
N1166 N 0.42487 0.21807 0.91424 0.0
N1167 N 0.57322 0.26588 0.90447 0.0
H1168 H 0.49717 0.33529 0.94119 0.0
H1169 H 0.54488 0.32511 0.93741 0.0
H1170 H 0.59363 0.24737 0.89423 0.0
H1171 H 0.58137 0.29401 0.90406 0.0
H1172 H 0.41653 0.1903 0.91002 0.0
H1173 H 0.40281 0.23629 0.92088 0.0
H1174 H 0.4562 0.16311 0.87653 0.0
H1175 H 0.50454 0.15529 0.87239 0.0
loop_
_geom_bond_atom_site_label_1
_geom_bond_atom_site_label_2
_geom_bond_distance
_geom_bond_site_symmetry_2
_ccdc_geom_bond_type
In0 O1 2.294 . S
In0 O2 2.326 1_455 S
In0 O6 2.266 . S
In0 O7 2.325 . S
In0 O8 2.266 1_455 S
In0 O9 2.326 1_455 S
In0 O11 2.294 1_455 S
In0 O12 2.326 . S
O1 In0 2.294 . S
O1 C10 1.240 1_455 S
O2 In0 2.326 1_655 S
O2 C10 1.252 . S
C3 O6 1.252 . S
C3 O7 1.260 . S
C4 O11 1.240 . S
C4 O12 1.252 1_655 S
C5 O8 1.252 . S
C5 O9 1.260 . S
O6 In0 2.266 . S
O6 C3 1.252 . S
O7 In0 2.325 . S
O7 C3 1.260 . S
O8 In0 2.266 1_655 S
O8 C5 1.252 . S
O9 In0 2.326 1_655 S
O9 C5 1.260 . S
C10 O1 1.240 1_655 S
C10 O2 1.252 . S
O11 In0 2.294 1_655 S
O11 C4 1.240 . S
O12 In0 2.326 . S
O12 C4 1.252 1_455 S
In13 O14 2.294 1_655 S
In13 O15 2.326 . S
In13 O19 2.266 1_655 S
In13 O20 2.326 1_655 S
In13 O21 2.266 . S
In13 O22 2.325 . S
In13 O24 2.294 . S
In13 O25 2.326 1_655 S
O14 In13 2.294 1_455 S
O14 C23 1.240 . S
O15 In13 2.326 . S
O15 C23 1.252 1_655 S
C16 O19 1.252 . S
C16 O20 1.260 . S
C17 O24 1.225 1_455 S
C17 O25 1.268 . S
C18 O21 1.252 . S
C18 O22 1.260 . S
O19 In13 2.266 1_455 S
O19 C16 1.252 . S
O20 In13 2.326 1_455 S
O20 C16 1.260 . S
O21 In13 2.266 . S
O21 C18 1.252 . S
O22 In13 2.325 . S
O22 C18 1.260 . S
C23 O14 1.240 . S
C23 O15 1.252 1_455 S
O24 In13 2.294 . S
O24 C17 1.225 1_655 S
O25 In13 2.326 1_455 S
O25 C17 1.268 . S
In26 O27 2.294 1_455 S
In26 O28 2.326 . S
In26 O32 2.266 1_455 S
In26 O33 2.326 1_455 S
In26 O34 2.266 . S
In26 O35 2.325 . S
In26 O37 2.294 . S
In26 O38 2.326 1_455 S
O27 In26 2.294 1_655 S
O27 C36 1.240 . S
O28 In26 2.326 . S
O28 C36 1.252 1_455 S
C29 O32 1.252 . S
C29 O33 1.260 . S
C30 O37 1.255 . S
C30 O38 1.237 1_455 S
C31 O34 1.252 . S
C31 O35 1.260 . S
O32 In26 2.266 1_655 S
O32 C29 1.252 . S
O33 In26 2.326 1_655 S
O33 C29 1.260 . S
O34 In26 2.266 . S
O34 C31 1.252 . S
O35 In26 2.325 . S
O35 C31 1.260 . S
C36 O27 1.240 . S
C36 O28 1.252 1_655 S
O37 In26 2.294 . S
O37 C30 1.255 . S
O38 In26 2.326 1_655 S
O38 C30 1.237 1_655 S
In39 O40 2.294 . S
In39 O41 2.326 1_655 S
In39 O45 2.266 . S
In39 O46 2.325 . S
In39 O47 2.266 1_655 S
In39 O48 2.326 1_655 S
In39 O50 2.294 1_655 S
In39 O51 2.326 . S
O40 In39 2.294 . S
O40 C49 1.240 . S
O41 In39 2.326 1_455 S
O41 C49 1.252 1_455 S
C42 O45 1.252 . S
C42 O46 1.260 . S
C43 O50 1.240 . S
C43 O51 1.252 1_455 S
C44 O47 1.252 . S
C44 O48 1.260 . S
O45 In39 2.266 . S
O45 C42 1.252 . S
O46 In39 2.325 . S
O46 C42 1.260 . S
O47 In39 2.266 1_455 S
O47 C44 1.252 . S
O48 In39 2.326 1_455 S
O48 C44 1.260 . S
C49 O40 1.240 . S
C49 O41 1.252 1_655 S
O50 In39 2.294 1_455 S
O50 C43 1.240 . S
O51 In39 2.326 . S
O51 C43 1.252 1_655 S
In52 O53 2.294 1_545 S
In52 O54 2.326 . S
In52 O58 2.266 1_545 S
In52 O59 2.326 1_545 S
In52 O60 2.266 . S
In52 O61 2.325 . S
In52 O63 2.294 . S
In52 O64 2.326 1_545 S
O53 In52 2.294 1_565 S
O53 C62 1.240 . S
O54 In52 2.326 . S
O54 C62 1.252 1_545 S
C55 O58 1.252 . S
C55 O59 1.260 . S
C56 O63 1.240 1_565 S
C56 O64 1.252 . S
C57 O60 1.252 . S
C57 O61 1.260 . S
O58 In52 2.266 1_565 S
O58 C55 1.252 . S
O59 In52 2.326 1_565 S
O59 C55 1.260 . S
O60 In52 2.266 . S
O60 C57 1.252 . S
O61 In52 2.325 . S
O61 C57 1.260 . S
C62 O53 1.240 . S
C62 O54 1.252 1_565 S
O63 In52 2.294 . S
O63 C56 1.240 1_545 S
O64 In52 2.326 1_565 S
O64 C56 1.252 . S
In65 O66 2.294 . S
In65 O67 2.326 . S
In65 O71 2.266 . S
In65 O72 2.326 . S
In65 O73 2.266 . S
In65 O74 2.326 . S
In65 O76 2.294 . S
In65 O77 2.326 . S
O66 In65 2.294 . S
O66 C75 1.240 . S
O67 In65 2.326 . S
O67 C75 1.252 . S
C68 O71 1.252 . S
C68 O72 1.260 . S
C69 O76 1.240 . S
C69 O77 1.252 . S
C70 O73 1.252 . S
C70 O74 1.260 . S
O71 In65 2.266 . S
O71 C68 1.252 . S
O72 In65 2.326 . S
O72 C68 1.260 . S
O73 In65 2.266 . S
O73 C70 1.252 . S
O74 In65 2.326 . S
O74 C70 1.260 . S
C75 O66 1.240 . S
C75 O67 1.252 . S
O76 In65 2.294 . S
O76 C69 1.240 . S
O77 In65 2.326 . S
O77 C69 1.252 . S
In78 O79 2.294 1_565 S
In78 O80 2.326 . S
In78 O84 2.266 1_565 S
In78 O85 2.326 1_565 S
In78 O86 2.266 . S
In78 O87 2.325 . S
In78 O89 2.294 . S
In78 O90 2.326 1_565 S
O79 In78 2.294 1_545 S
O79 C88 1.240 . S
O80 In78 2.326 . S
O80 C88 1.252 1_565 S
C81 O84 1.252 . S
C81 O85 1.260 . S
C82 O89 1.225 1_545 S
C82 O90 1.268 . S
C83 O86 1.252 . S
C83 O87 1.260 . S
O84 In78 2.266 1_545 S
O84 C81 1.252 . S
O85 In78 2.326 1_545 S
O85 C81 1.260 . S
O86 In78 2.266 . S
O86 C83 1.252 . S
O87 In78 2.325 . S
O87 C83 1.260 . S
C88 O79 1.240 . S
C88 O80 1.252 1_545 S
O89 In78 2.294 . S
O89 C82 1.225 1_565 S
O90 In78 2.326 1_545 S
O90 C82 1.268 . S
In91 O92 2.294 . S
In91 O93 2.326 . S
In91 O97 2.266 . S
In91 O98 2.326 . S
In91 O99 2.266 . S
In91 O100 2.326 . S
In91 O102 2.294 . S
In91 O103 2.326 . S
O92 In91 2.294 . S
O92 C101 1.240 . S
O93 In91 2.326 . S
O93 C101 1.252 . S
C94 O97 1.252 . S
C94 O98 1.260 . S
C95 O102 1.240 . S
C95 O103 1.252 . S
C96 O99 1.252 . S
C96 O100 1.260 . S
O97 In91 2.266 . S
O97 C94 1.252 . S
O98 In91 2.326 . S
O98 C94 1.260 . S
O99 In91 2.266 . S
O99 C96 1.252 . S
O100 In91 2.326 . S
O100 C96 1.260 . S
C101 O92 1.240 . S
C101 O93 1.252 . S
O102 In91 2.294 . S
O102 C95 1.240 . S
O103 In91 2.326 . S
O103 C95 1.252 . S
In104 O105 2.294 . S
In104 O106 2.326 1_554 S
In104 O110 2.266 . S
In104 O111 2.325 . S
In104 O112 2.266 1_554 S
In104 O113 2.326 1_554 S
In104 O115 2.294 1_554 S
In104 O116 2.326 . S
O105 In104 2.294 . S
O105 C114 1.240 1_554 S
O106 In104 2.326 1_556 S
O106 C114 1.252 . S
C107 O110 1.252 . S
C107 O111 1.260 . S
C108 O115 1.240 . S
C108 O116 1.252 1_556 S
C109 O112 1.252 . S
C109 O113 1.260 . S
O110 In104 2.266 . S
O110 C107 1.252 . S
O111 In104 2.325 . S
O111 C107 1.260 . S
O112 In104 2.266 1_556 S
O112 C109 1.252 . S
O113 In104 2.326 1_556 S
O113 C109 1.260 . S
C114 O105 1.240 1_556 S
C114 O106 1.252 . S
O115 In104 2.294 1_556 S
O115 C108 1.240 . S
O116 In104 2.326 . S
O116 C108 1.252 1_554 S
In117 O118 2.294 . S
In117 O119 2.326 . S
In117 O123 2.266 . S
In117 O124 2.326 . S
In117 O125 2.266 . S
In117 O126 2.326 . S
In117 O128 2.294 . S
In117 O129 2.326 . S
O118 In117 2.294 . S
O118 C127 1.240 . S
O119 In117 2.326 . S
O119 C127 1.252 . S
C120 O123 1.252 . S
C120 O124 1.260 . S
C121 O128 1.240 . S
C121 O129 1.252 . S
C122 O125 1.252 . S
C122 O126 1.260 . S
O123 In117 2.266 . S
O123 C120 1.252 . S
O124 In117 2.326 . S
O124 C120 1.260 . S
O125 In117 2.266 . S
O125 C122 1.252 . S
O126 In117 2.326 . S
O126 C122 1.260 . S
C127 O118 1.240 . S
C127 O119 1.252 . S
O128 In117 2.294 . S
O128 C121 1.240 . S
O129 In117 2.326 . S
O129 C121 1.252 . S
In130 O131 2.294 . S
In130 O132 2.326 . S
In130 O136 2.266 . S
In130 O137 2.326 . S
In130 O138 2.266 . S
In130 O139 2.326 . S
In130 O141 2.294 . S
In130 O142 2.326 . S
O131 In130 2.294 . S
O131 C140 1.240 . S
O132 In130 2.326 . S
O132 C140 1.252 . S
C133 O136 1.252 . S
C133 O137 1.260 . S
C134 O141 1.240 . S
C134 O142 1.252 . S
C135 O138 1.252 . S
C135 O139 1.260 . S
O136 In130 2.266 . S
O136 C133 1.252 . S
O137 In130 2.326 . S
O137 C133 1.260 . S
O138 In130 2.266 . S
O138 C135 1.252 . S
O139 In130 2.326 . S
O139 C135 1.260 . S
C140 O131 1.240 . S
C140 O132 1.252 . S
O141 In130 2.294 . S
O141 C134 1.240 . S
O142 In130 2.326 . S
O142 C134 1.252 . S
In143 O144 2.294 . S
In143 O145 2.326 . S
In143 O149 2.266 . S
In143 O150 2.326 . S
In143 O151 2.266 . S
In143 O152 2.326 . S
In143 O154 2.294 . S
In143 O155 2.326 . S
O144 In143 2.294 . S
O144 C153 1.240 . S
O145 In143 2.326 . S
O145 C153 1.252 . S
C146 O149 1.252 . S
C146 O150 1.260 . S
C147 O154 1.240 . S
C147 O155 1.252 . S
C148 O151 1.252 . S
C148 O152 1.260 . S
O149 In143 2.266 . S
O149 C146 1.252 . S
O150 In143 2.326 . S
O150 C146 1.260 . S
O151 In143 2.266 . S
O151 C148 1.252 . S
O152 In143 2.326 . S
O152 C148 1.260 . S
C153 O144 1.240 . S
C153 O145 1.252 . S
O154 In143 2.294 . S
O154 C147 1.240 . S
O155 In143 2.326 . S
O155 C147 1.252 . S
In156 O157 2.294 . S
In156 O158 2.326 . S
In156 O162 2.266 . S
In156 O163 2.326 . S
In156 O164 2.266 . S
In156 O165 2.326 . S
In156 O167 2.294 . S
In156 O168 2.326 . S
O157 In156 2.294 . S
O157 C166 1.240 . S
O158 In156 2.326 . S
O158 C166 1.252 . S
C159 O162 1.252 . S
C159 O163 1.260 . S
C160 O167 1.240 . S
C160 O168 1.252 . S
C161 O164 1.252 . S
C161 O165 1.260 . S
O162 In156 2.266 . S
O162 C159 1.252 . S
O163 In156 2.326 . S
O163 C159 1.260 . S
O164 In156 2.266 . S
O164 C161 1.252 . S
O165 In156 2.326 . S
O165 C161 1.260 . S
C166 O157 1.240 . S
C166 O158 1.252 . S
O167 In156 2.294 . S
O167 C160 1.240 . S
O168 In156 2.326 . S
O168 C160 1.252 . S
In169 O170 2.294 . S
In169 O171 2.326 . S
In169 O175 2.266 . S
In169 O176 2.326 . S
In169 O177 2.266 . S
In169 O178 2.326 . S
In169 O180 2.294 . S
In169 O181 2.326 . S
O170 In169 2.294 . S
O170 C179 1.240 . S
O171 In169 2.326 . S
O171 C179 1.252 . S
C172 O175 1.252 . S
C172 O176 1.260 . S
C173 O180 1.240 . S
C173 O181 1.252 . S
C174 O177 1.252 . S
C174 O178 1.260 . S
O175 In169 2.266 . S
O175 C172 1.252 . S
O176 In169 2.326 . S
O176 C172 1.260 . S
O177 In169 2.266 . S
O177 C174 1.252 . S
O178 In169 2.326 . S
O178 C174 1.260 . S
C179 O170 1.240 . S
C179 O171 1.252 . S
O180 In169 2.294 . S
O180 C173 1.240 . S
O181 In169 2.326 . S
O181 C173 1.252 . S
In182 O183 2.294 . S
In182 O184 2.326 . S
In182 O188 2.266 . S
In182 O189 2.326 . S
In182 O190 2.266 . S
In182 O191 2.326 . S
In182 O193 2.294 . S
In182 O194 2.326 . S
O183 In182 2.294 . S
O183 C192 1.240 . S
O184 In182 2.326 . S
O184 C192 1.252 . S
C185 O188 1.252 . S
C185 O189 1.260 . S
C186 O193 1.240 . S
C186 O194 1.252 . S
C187 O190 1.252 . S
C187 O191 1.260 . S
O188 In182 2.266 . S
O188 C185 1.252 . S
O189 In182 2.326 . S
O189 C185 1.260 . S
O190 In182 2.266 . S
O190 C187 1.252 . S
O191 In182 2.326 . S
O191 C187 1.260 . S
C192 O183 1.240 . S
C192 O184 1.252 . S
O193 In182 2.294 . S
O193 C186 1.240 . S
O194 In182 2.326 . S
O194 C186 1.252 . S
In195 O196 2.294 . S
In195 O197 2.326 . S
In195 O201 2.266 . S
In195 O202 2.326 . S
In195 O203 2.266 . S
In195 O204 2.326 . S
In195 O206 2.294 . S
In195 O207 2.326 . S
O196 In195 2.294 . S
O196 C205 1.240 . S
O197 In195 2.326 . S
O197 C205 1.252 . S
C198 O201 1.252 . S
C198 O202 1.260 . S
C199 O206 1.240 . S
C199 O207 1.252 . S
C200 O203 1.252 . S
C200 O204 1.260 . S
O201 In195 2.266 . S
O201 C198 1.252 . S
O202 In195 2.326 . S
O202 C198 1.260 . S
O203 In195 2.266 . S
O203 C200 1.252 . S
O204 In195 2.326 . S
O204 C200 1.260 . S
C205 O196 1.240 . S
C205 O197 1.252 . S
O206 In195 2.294 . S
O206 C199 1.240 . S
O207 In195 2.326 . S
O207 C199 1.252 . S
In208 O209 2.294 . S
In208 O210 2.326 . S
In208 O214 2.266 . S
In208 O215 2.326 . S
In208 O216 2.266 . S
In208 O217 2.326 . S
In208 O219 2.294 . S
In208 O220 2.326 . S
O209 In208 2.294 . S
O209 C218 1.240 . S
O210 In208 2.326 . S
O210 C218 1.252 . S
C211 O214 1.252 . S
C211 O215 1.260 . S
C212 O219 1.240 . S
C212 O220 1.252 . S
C213 O216 1.252 . S
C213 O217 1.260 . S
O214 In208 2.266 . S
O214 C211 1.252 . S
O215 In208 2.326 . S
O215 C211 1.260 . S
O216 In208 2.266 . S
O216 C213 1.252 . S
O217 In208 2.326 . S
O217 C213 1.260 . S
C218 O209 1.240 . S
C218 O210 1.252 . S
O219 In208 2.294 . S
O219 C212 1.240 . S
O220 In208 2.326 . S
O220 C212 1.252 . S
In221 O222 2.294 1_565 S
In221 O223 2.326 . S
In221 O227 2.266 1_565 S
In221 O228 2.326 1_565 S
In221 O229 2.266 . S
In221 O230 2.325 . S
In221 O232 2.294 . S
In221 O233 2.326 1_565 S
O222 In221 2.294 1_545 S
O222 C231 1.240 . S
O223 In221 2.326 . S
O223 C231 1.252 1_565 S
C224 O227 1.252 . S
C224 O228 1.260 . S
C225 O232 1.240 . S
C225 O233 1.252 1_565 S
C226 O229 1.252 . S
C226 O230 1.260 . S
O227 In221 2.266 1_545 S
O227 C224 1.252 . S
O228 In221 2.326 1_545 S
O228 C224 1.260 . S
O229 In221 2.266 . S
O229 C226 1.252 . S
O230 In221 2.325 . S
O230 C226 1.260 . S
C231 O222 1.240 . S
C231 O223 1.252 1_545 S
O232 In221 2.294 . S
O232 C225 1.240 . S
O233 In221 2.326 1_545 S
O233 C225 1.252 1_545 S
In234 O235 2.294 . S
In234 O236 2.326 . S
In234 O240 2.266 . S
In234 O241 2.326 . S
In234 O242 2.266 . S
In234 O243 2.326 . S
In234 O245 2.294 . S
In234 O246 2.326 . S
O235 In234 2.294 . S
O235 C244 1.240 . S
O236 In234 2.326 . S
O236 C244 1.252 . S
C237 O240 1.252 . S
C237 O241 1.260 . S
C238 O245 1.240 . S
C238 O246 1.252 . S
C239 O242 1.252 . S
C239 O243 1.260 . S
O240 In234 2.266 . S
O240 C237 1.252 . S
O241 In234 2.326 . S
O241 C237 1.260 . S
O242 In234 2.266 . S
O242 C239 1.252 . S
O243 In234 2.326 . S
O243 C239 1.260 . S
C244 O235 1.240 . S
C244 O236 1.252 . S
O245 In234 2.294 . S
O245 C238 1.240 . S
O246 In234 2.326 . S
O246 C238 1.252 . S
In247 O248 2.294 . S
In247 O249 2.326 1_545 S
In247 O253 2.266 . S
In247 O254 2.325 . S
In247 O255 2.266 1_545 S
In247 O256 2.326 1_545 S
In247 O258 2.294 1_545 S
In247 O259 2.326 . S
O248 In247 2.294 . S
O248 C257 1.255 . S
O249 In247 2.326 1_565 S
O249 C257 1.237 1_565 S
C250 O253 1.252 . S
C250 O254 1.260 . S
C251 O258 1.240 . S
C251 O259 1.252 1_565 S
C252 O255 1.252 . S
C252 O256 1.260 . S
O253 In247 2.266 . S
O253 C250 1.252 . S
O254 In247 2.325 . S
O254 C250 1.260 . S
O255 In247 2.266 1_565 S
O255 C252 1.252 . S
O256 In247 2.326 1_565 S
O256 C252 1.260 . S
C257 O248 1.255 . S
C257 O249 1.237 1_545 S
O258 In247 2.294 1_565 S
O258 C251 1.240 . S
O259 In247 2.326 . S
O259 C251 1.252 1_545 S
In260 O261 2.294 . S
In260 O262 2.326 . S
In260 O266 2.266 . S
In260 O267 2.326 . S
In260 O268 2.266 . S
In260 O269 2.326 . S
In260 O271 2.294 . S
In260 O272 2.326 . S
O261 In260 2.294 . S
O261 C270 1.240 . S
O262 In260 2.326 . S
O262 C270 1.252 . S
C263 O266 1.252 . S
C263 O267 1.260 . S
C264 O271 1.240 . S
C264 O272 1.252 . S
C265 O268 1.252 . S
C265 O269 1.260 . S
O266 In260 2.266 . S
O266 C263 1.252 . S
O267 In260 2.326 . S
O267 C263 1.260 . S
O268 In260 2.266 . S
O268 C265 1.252 . S
O269 In260 2.326 . S
O269 C265 1.260 . S
C270 O261 1.240 . S
C270 O262 1.252 . S
O271 In260 2.294 . S
O271 C264 1.240 . S
O272 In260 2.326 . S
O272 C264 1.252 . S
In273 O274 2.294 . S
In273 O275 2.326 1_556 S
In273 O279 2.266 . S
In273 O280 2.325 . S
In273 O281 2.266 1_556 S
In273 O282 2.326 1_556 S
In273 O284 2.294 1_556 S
In273 O285 2.326 . S
O274 In273 2.294 . S
O274 C283 1.240 . S
O275 In273 2.326 1_554 S
O275 C283 1.252 1_554 S
C276 O279 1.252 . S
C276 O280 1.260 . S
C277 O284 1.240 . S
C277 O285 1.252 1_554 S
C278 O281 1.252 . S
C278 O282 1.260 . S
O279 In273 2.266 . S
O279 C276 1.252 . S
O280 In273 2.325 . S
O280 C276 1.260 . S
O281 In273 2.266 1_554 S
O281 C278 1.252 . S
O282 In273 2.326 1_554 S
O282 C278 1.260 . S
C283 O274 1.240 . S
C283 O275 1.252 1_556 S
O284 In273 2.294 1_554 S
O284 C277 1.240 . S
O285 In273 2.326 . S
O285 C277 1.252 1_556 S
In286 O287 2.294 . S
In286 O288 2.326 1_556 S
In286 O292 2.266 . S
In286 O293 2.325 . S
In286 O294 2.266 1_556 S
In286 O295 2.326 1_556 S
In286 O297 2.294 1_556 S
In286 O298 2.326 . S
O287 In286 2.294 . S
O287 C296 1.225 1_556 S
O288 In286 2.326 1_554 S
O288 C296 1.268 . S
C289 O292 1.252 . S
C289 O293 1.260 . S
C290 O297 1.240 . S
C290 O298 1.252 1_554 S
C291 O294 1.252 . S
C291 O295 1.260 . S
O292 In286 2.266 . S
O292 C289 1.252 . S
O293 In286 2.325 . S
O293 C289 1.260 . S
O294 In286 2.266 1_554 S
O294 C291 1.252 . S
O295 In286 2.326 1_554 S
O295 C291 1.260 . S
C296 O287 1.225 1_554 S
C296 O288 1.268 . S
O297 In286 2.294 1_554 S
O297 C290 1.240 . S
O298 In286 2.326 . S
O298 C290 1.252 1_556 S
In299 O300 2.294 1_554 S
In299 O301 2.326 . S
In299 O305 2.266 1_554 S
In299 O306 2.326 1_554 S
In299 O307 2.266 . S
In299 O308 2.325 . S
In299 O310 2.294 . S
In299 O311 2.326 1_554 S
O300 In299 2.294 1_556 S
O300 C309 1.240 . S
O301 In299 2.326 . S
O301 C309 1.252 1_554 S
C302 O305 1.252 . S
C302 O306 1.260 . S
C303 O310 1.255 . S
C303 O311 1.237 1_554 S
C304 O307 1.252 . S
C304 O308 1.260 . S
O305 In299 2.266 1_556 S
O305 C302 1.252 . S
O306 In299 2.326 1_556 S
O306 C302 1.260 . S
O307 In299 2.266 . S
O307 C304 1.252 . S
O308 In299 2.325 . S
O308 C304 1.260 . S
C309 O300 1.240 . S
C309 O301 1.252 1_556 S
O310 In299 2.294 . S
O310 C303 1.255 . S
O311 In299 2.326 1_556 S
O311 C303 1.237 1_556 S
C312 C313 1.363 . S
C312 C318 1.379 . S
C312 N320 1.356 . S
C313 C312 1.363 . S
C313 C319 1.363 . S
C314 C315 1.363 . S
C314 C319 1.379 . S
C314 N321 1.356 . S
C315 C314 1.363 . S
C315 C318 1.363 . S
N316 C318 1.356 . S
N316 H328 0.984 . S
N316 H329 0.985 . S
N317 C319 1.356 . S
N317 H322 0.984 . S
N317 H323 0.985 1_545 S
C318 C312 1.379 . S
C318 C315 1.363 . S
C318 N316 1.356 . S
C319 C313 1.363 . S
C319 C314 1.379 . S
C319 N317 1.356 . S
N320 C312 1.356 . S
N320 H326 0.984 . S
N320 H327 0.984 . S
N321 C314 1.356 . S
N321 H324 0.984 . S
N321 H325 0.985 . S
H322 N317 0.984 . S
H323 N317 0.985 1_565 S
H324 N321 0.984 . S
H325 N321 0.985 . S
H326 N320 0.984 . S
H327 N320 0.984 . S
H328 N316 0.984 . S
H329 N316 0.985 . S
C330 C331 1.363 . S
C330 C336 1.379 . S
C330 N338 1.356 . S
C331 C330 1.363 . S
C331 C337 1.363 . S
C332 C333 1.363 . S
C332 C337 1.379 . S
C332 N339 1.356 . S
C333 C332 1.363 . S
C333 C336 1.363 . S
N334 C336 1.356 . S
N334 H346 0.984 . S
N334 H347 0.985 . S
N335 C337 1.356 . S
N335 H340 0.984 . S
N335 H341 0.985 . S
C336 C330 1.379 . S
C336 C333 1.363 . S
C336 N334 1.356 . S
C337 C331 1.363 . S
C337 C332 1.379 . S
C337 N335 1.356 . S
N338 C330 1.356 . S
N338 H344 0.984 . S
N338 H345 0.984 . S
N339 C332 1.356 . S
N339 H342 0.984 . S
N339 H343 0.985 . S
H340 N335 0.984 . S
H341 N335 0.985 . S
H342 N339 0.984 . S
H343 N339 0.985 . S
H344 N338 0.984 . S
H345 N338 0.984 . S
H346 N334 0.984 . S
H347 N334 0.985 . S
C348 C349 1.363 . S
C348 C354 1.379 . S
C348 N356 1.356 . S
C349 C348 1.363 . S
C349 C355 1.363 . S
C350 C351 1.363 1_554 S
C350 C355 1.379 . S
C350 N357 1.356 1_554 S
C351 C350 1.363 1_556 S
C351 C354 1.363 1_556 S
N352 C354 1.356 1_556 S
N352 H364 0.984 . S
N352 H365 0.985 . S
N353 C355 1.356 . S
N353 H358 0.984 . S
N353 H359 0.985 . S
C354 C348 1.379 . S
C354 C351 1.363 1_554 S
C354 N352 1.356 1_554 S
C355 C349 1.363 . S
C355 C350 1.379 . S
C355 N353 1.356 . S
N356 C348 1.356 . S
N356 H362 0.984 . S
N356 H363 0.984 . S
N357 C350 1.356 1_556 S
N357 H360 0.984 . S
N357 H361 0.985 1_565 S
H358 N353 0.984 . S
H359 N353 0.985 . S
H360 N357 0.984 . S
H361 N357 0.985 1_545 S
H362 N356 0.984 . S
H363 N356 0.984 . S
H364 N352 0.984 . S
H365 N352 0.985 . S
C366 C367 1.363 . S
C366 C372 1.379 . S
C366 N374 1.356 . S
C367 C366 1.363 . S
C367 C373 1.363 . S
C368 C369 1.363 . S
C368 C373 1.379 1_556 S
C368 N375 1.356 . S
C369 C368 1.363 . S
C369 C372 1.363 1_556 S
N370 C372 1.356 1_556 S
N370 H382 0.984 1_556 S
N370 H383 0.985 . S
N371 C373 1.356 . S
N371 H376 0.984 . S
N371 H377 0.985 . S
C372 C366 1.379 . S
C372 C369 1.363 1_554 S
C372 N370 1.356 1_554 S
C373 C367 1.363 . S
C373 C368 1.379 1_554 S
C373 N371 1.356 . S
N374 C366 1.356 . S
N374 H380 0.984 . S
N374 H381 0.984 . S
N375 C368 1.356 . S
N375 H378 0.984 . S
N375 H379 0.985 . S
H376 N371 0.984 . S
H377 N371 0.985 . S
H378 N375 0.984 . S
H379 N375 0.985 . S
H380 N374 0.984 . S
H381 N374 0.984 . S
H382 N370 0.984 1_554 S
H383 N370 0.985 . S
C384 C385 1.363 . S
C384 C390 1.379 . S
C384 N392 1.356 . S
C385 C384 1.363 . S
C385 C391 1.363 . S
C386 C387 1.363 . S
C386 C391 1.379 . S
C386 N393 1.356 . S
C387 C386 1.363 . S
C387 C390 1.363 . S
N388 C390 1.356 . S
N388 H400 0.984 . S
N388 H401 0.985 . S
N389 C391 1.356 . S
N389 H394 0.984 . S
N389 H395 0.985 1_545 S
C390 C384 1.379 . S
C390 C387 1.363 . S
C390 N388 1.356 . S
C391 C385 1.363 . S
C391 C386 1.379 . S
C391 N389 1.356 . S
N392 C384 1.356 . S
N392 H398 0.984 . S
N392 H399 0.984 . S
N393 C386 1.356 . S
N393 H396 0.984 . S
N393 H397 0.985 . S
H394 N389 0.984 . S
H395 N389 0.985 1_565 S
H396 N393 0.984 . S
H397 N393 0.985 . S
H398 N392 0.984 . S
H399 N392 0.984 . S
H400 N388 0.984 . S
H401 N388 0.985 . S
C402 C403 1.363 . S
C402 C408 1.379 . S
C402 N410 1.356 . S
C403 C402 1.363 . S
C403 C409 1.363 . S
C404 C405 1.363 . S
C404 C409 1.379 . S
C404 N411 1.356 . S
C405 C404 1.363 . S
C405 C408 1.363 . S
N406 C408 1.356 . S
N406 H418 0.984 . S
N406 H419 0.985 . S
N407 C409 1.356 . S
N407 H412 0.984 . S
N407 H413 0.985 . S
C408 C402 1.379 . S
C408 C405 1.363 . S
C408 N406 1.356 . S
C409 C403 1.363 . S
C409 C404 1.379 . S
C409 N407 1.356 . S
N410 C402 1.356 . S
N410 H416 0.984 . S
N410 H417 0.984 . S
N411 C404 1.356 . S
N411 H414 0.984 . S
N411 H415 0.985 . S
H412 N407 0.984 . S
H413 N407 0.985 . S
H414 N411 0.984 . S
H415 N411 0.985 . S
H416 N410 0.984 . S
H417 N410 0.984 . S
H418 N406 0.984 . S
H419 N406 0.985 . S
C420 C421 1.363 . S
C420 C426 1.379 . S
C420 N428 1.356 . S
C421 C420 1.363 . S
C421 C427 1.363 . S
C422 C423 1.363 . S
C422 C427 1.379 . S
C422 N429 1.356 . S
C423 C422 1.363 . S
C423 C426 1.363 . S
N424 C426 1.356 . S
N424 H436 0.984 1_565 S
N424 H437 0.985 . S
N425 C427 1.356 . S
N425 H430 0.984 . S
N425 H431 0.985 . S
C426 C420 1.379 . S
C426 C423 1.363 . S
C426 N424 1.356 . S
C427 C421 1.363 . S
C427 C422 1.379 . S
C427 N425 1.356 . S
N428 C420 1.356 . S
N428 H434 0.984 . S
N428 H435 0.984 . S
N429 C422 1.356 . S
N429 H432 0.984 . S
N429 H433 0.985 . S
H430 N425 0.984 . S
H431 N425 0.985 . S
H432 N429 0.984 . S
H433 N429 0.985 . S
H434 N428 0.984 . S
H435 N428 0.984 . S
H436 N424 0.984 1_545 S
H437 N424 0.985 . S
C438 C439 1.363 . S
C438 C444 1.379 . S
C438 N446 1.356 . S
C439 C438 1.363 . S
C439 C445 1.363 . S
C440 C441 1.363 . S
C440 C445 1.379 . S
C440 N447 1.356 . S
C441 C440 1.363 . S
C441 C444 1.363 . S
N442 C444 1.356 . S
N442 H454 0.984 . S
N442 H455 0.985 . S
N443 C445 1.356 . S
N443 H448 0.984 . S
N443 H449 0.985 . S
C444 C438 1.379 . S
C444 C441 1.363 . S
C444 N442 1.356 . S
C445 C439 1.363 . S
C445 C440 1.379 . S
C445 N443 1.356 . S
N446 C438 1.356 . S
N446 H452 0.984 . S
N446 H453 0.984 . S
N447 C440 1.356 . S
N447 H450 0.984 . S
N447 H451 0.985 . S
H448 N443 0.984 . S
H449 N443 0.985 . S
H450 N447 0.984 . S
H451 N447 0.985 . S
H452 N446 0.984 . S
H453 N446 0.984 . S
H454 N442 0.984 . S
H455 N442 0.985 . S
C456 C457 1.363 . S
C456 C462 1.379 . S
C456 N464 1.356 . S
C457 C456 1.363 . S
C457 C463 1.363 . S
C458 C459 1.363 . S
C458 C463 1.379 . S
C458 N465 1.356 . S
C459 C458 1.363 . S
C459 C462 1.363 . S
N460 C462 1.356 . S
N460 H472 0.984 . S
N460 H473 0.985 . S
N461 C463 1.356 . S
N461 H466 0.984 . S
N461 H467 0.985 1_554 S
C462 C456 1.379 . S
C462 C459 1.363 . S
C462 N460 1.356 . S
C463 C457 1.363 . S
C463 C458 1.379 . S
C463 N461 1.356 . S
N464 C456 1.356 . S
N464 H470 0.984 . S
N464 H471 0.984 . S
N465 C458 1.356 . S
N465 H468 0.984 . S
N465 H469 0.985 . S
H466 N461 0.984 . S
H467 N461 0.985 1_556 S
H468 N465 0.984 . S
H469 N465 0.985 . S
H470 N464 0.984 . S
H471 N464 0.984 . S
H472 N460 0.984 . S
H473 N460 0.985 . S
C474 C475 1.363 . S
C474 C480 1.379 . S
C474 N482 1.356 . S
C475 C474 1.363 . S
C475 C481 1.363 . S
C476 C477 1.363 . S
C476 C481 1.379 . S
C476 N483 1.356 . S
C477 C476 1.363 . S
C477 C480 1.363 . S
N478 C480 1.356 . S
N478 H490 0.984 . S
N478 H491 0.985 . S
N479 C481 1.356 . S
N479 H484 0.984 . S
N479 H485 0.985 . S
C480 C474 1.379 . S
C480 C477 1.363 . S
C480 N478 1.356 . S
C481 C475 1.363 . S
C481 C476 1.379 . S
C481 N479 1.356 . S
N482 C474 1.356 . S
N482 H488 0.984 1_455 S
N482 H489 0.984 . S
N483 C476 1.356 . S
N483 H486 0.984 . S
N483 H487 0.985 . S
H484 N479 0.984 . S
H485 N479 0.985 . S
H486 N483 0.984 . S
H487 N483 0.985 . S
H488 N482 0.984 1_655 S
H489 N482 0.984 . S
H490 N478 0.984 . S
H491 N478 0.985 . S
C492 C493 1.363 . S
C492 C498 1.379 1_565 S
C492 N500 1.356 . S
C493 C492 1.363 . S
C493 C499 1.363 . S
C494 C495 1.363 1_565 S
C494 C499 1.379 . S
C494 N501 1.356 . S
C495 C494 1.363 1_545 S
C495 C498 1.363 . S
N496 C498 1.356 . S
N496 H508 0.984 . S
N496 H509 0.985 . S
N497 C499 1.356 . S
N497 H502 0.984 . S
N497 H503 0.985 . S
C498 C492 1.379 1_545 S
C498 C495 1.363 . S
C498 N496 1.356 . S
C499 C493 1.363 . S
C499 C494 1.379 . S
C499 N497 1.356 . S
N500 C492 1.356 . S
N500 H506 0.984 . S
N500 H507 0.984 . S
N501 C494 1.356 . S
N501 H504 0.984 1_565 S
N501 H505 0.985 . S
H502 N497 0.984 . S
H503 N497 0.985 . S
H504 N501 0.984 1_545 S
H505 N501 0.985 . S
H506 N500 0.984 . S
H507 N500 0.984 . S
H508 N496 0.984 . S
H509 N496 0.985 . S
C510 C511 1.363 . S
C510 C516 1.379 . S
C510 N518 1.356 . S
C511 C510 1.363 . S
C511 C517 1.363 . S
C512 C513 1.363 . S
C512 C517 1.379 . S
C512 N519 1.356 . S
C513 C512 1.363 . S
C513 C516 1.363 . S
N514 C516 1.356 . S
N514 H526 0.984 . S
N514 H527 0.985 . S
N515 C517 1.356 . S
N515 H520 0.984 . S
N515 H521 0.985 . S
C516 C510 1.379 . S
C516 C513 1.363 . S
C516 N514 1.356 . S
C517 C511 1.363 . S
C517 C512 1.379 . S
C517 N515 1.356 . S
N518 C510 1.356 . S
N518 H524 0.984 . S
N518 H525 0.984 . S
N519 C512 1.356 . S
N519 H522 0.984 . S
N519 H523 0.985 . S
H520 N515 0.984 . S
H521 N515 0.985 . S
H522 N519 0.984 . S
H523 N519 0.985 . S
H524 N518 0.984 . S
H525 N518 0.984 . S
H526 N514 0.984 . S
H527 N514 0.985 . S
C528 C529 1.363 1_556 S
C528 C534 1.379 . S
C528 N536 1.356 1_556 S
C529 C528 1.363 1_554 S
C529 C535 1.354 1_554 S
C530 C531 1.363 . S
C530 C535 1.402 . S
C530 N537 1.356 . S
C531 C530 1.363 . S
C531 C534 1.363 . S
N532 C534 1.356 . S
N532 H544 0.984 . S
N532 H545 0.985 . S
N533 C535 1.336 1_554 S
N533 H538 0.984 . S
N533 H539 0.985 . S
C534 C528 1.379 . S
C534 C531 1.363 . S
C534 N532 1.356 . S
C535 C529 1.354 1_556 S
C535 C530 1.402 . S
C535 N533 1.336 1_556 S
N536 C528 1.356 1_554 S
N536 H542 0.995 . S
N536 H543 0.984 . S
N537 C530 1.356 . S
N537 H540 0.984 . S
N537 H541 0.985 . S
H538 N533 0.984 . S
H539 N533 0.985 . S
H540 N537 0.984 . S
H541 N537 0.985 . S
H542 N536 0.995 . S
H543 N536 0.984 . S
H544 N532 0.984 . S
H545 N532 0.985 . S
C546 C547 1.363 . S
C546 C552 1.379 1_554 S
C546 N554 1.356 . S
C547 C546 1.363 . S
C547 C553 1.363 1_554 S
C548 C549 1.363 . S
C548 C553 1.379 . S
C548 N555 1.356 . S
C549 C548 1.363 . S
C549 C552 1.363 . S
N550 C552 1.356 . S
N550 H562 0.984 . S
N550 H563 0.985 . S
N551 C553 1.356 . S
N551 H556 0.984 1_556 S
N551 H557 0.985 . S
C552 C546 1.379 1_556 S
C552 C549 1.363 . S
C552 N550 1.356 . S
C553 C547 1.363 1_556 S
C553 C548 1.379 . S
C553 N551 1.356 . S
N554 C546 1.356 . S
N554 H560 0.984 . S
N554 H561 0.984 . S
N555 C548 1.356 . S
N555 H558 0.984 . S
N555 H559 0.985 . S
H556 N551 0.984 1_554 S
H557 N551 0.985 . S
H558 N555 0.984 . S
H559 N555 0.985 . S
H560 N554 0.984 . S
H561 N554 0.984 . S
H562 N550 0.984 . S
H563 N550 0.985 . S
C564 C565 1.363 . S
C564 C570 1.379 . S
C564 N572 1.356 . S
C565 C564 1.363 . S
C565 C571 1.363 . S
C566 C567 1.363 . S
C566 C571 1.379 . S
C566 N573 1.356 . S
C567 C566 1.363 . S
C567 C570 1.363 . S
N568 C570 1.356 . S
N568 H580 0.984 . S
N568 H581 0.985 . S
N569 C571 1.356 . S
N569 H574 0.984 . S
N569 H575 0.985 . S
C570 C564 1.379 . S
C570 C567 1.363 . S
C570 N568 1.356 . S
C571 C565 1.363 . S
C571 C566 1.379 . S
C571 N569 1.356 . S
N572 C564 1.356 . S
N572 H578 0.984 . S
N572 H579 0.984 . S
N573 C566 1.356 . S
N573 H576 0.984 . S
N573 H577 0.985 . S
H574 N569 0.984 . S
H575 N569 0.985 . S
H576 N573 0.984 . S
H577 N573 0.985 . S
H578 N572 0.984 . S
H579 N572 0.984 . S
H580 N568 0.984 . S
H581 N568 0.985 . S
C582 C583 1.363 . S
C582 C588 1.379 . S
C582 N590 1.356 . S
C583 C582 1.363 . S
C583 C589 1.363 . S
C584 C585 1.363 . S
C584 C589 1.379 . S
C584 N591 1.356 . S
C585 C584 1.363 . S
C585 C588 1.363 . S
N586 C588 1.356 1_565 S
N586 H598 0.984 . S
N586 H599 0.984 1_565 S
N587 C589 1.356 . S
N587 H592 0.984 . S
N587 H593 0.985 . S
C588 C582 1.379 . S
C588 C585 1.363 . S
C588 N586 1.356 1_545 S
C589 C583 1.363 . S
C589 C584 1.379 . S
C589 N587 1.356 . S
N590 C582 1.356 . S
N590 H596 0.984 1_545 S
N590 H597 0.984 . S
N591 C584 1.356 . S
N591 H594 0.984 . S
N591 H595 0.985 . S
H592 N587 0.984 . S
H593 N587 0.985 . S
H594 N591 0.984 . S
H595 N591 0.985 . S
H596 N590 0.984 1_565 S
H597 N590 0.984 . S
H598 N586 0.984 . S
H599 N586 0.984 1_545 S
C600 C601 1.363 1_655 S
C600 C606 1.379 . S
C600 N608 1.356 1_655 S
C601 C600 1.363 1_455 S
C601 C607 1.363 1_455 S
C602 C603 1.363 . S
C602 C607 1.379 . S
C602 N609 1.356 . S
C603 C602 1.363 . S
C603 C606 1.363 . S
N604 C606 1.356 . S
N604 H616 0.984 . S
N604 H617 0.985 . S
N605 C607 1.356 1_455 S
N605 H610 0.984 . S
N605 H611 0.985 . S
C606 C600 1.379 . S
C606 C603 1.363 . S
C606 N604 1.356 . S
C607 C601 1.363 1_655 S
C607 C602 1.379 . S
C607 N605 1.356 1_655 S
N608 C600 1.356 1_455 S
N608 H614 0.984 . S
N608 H615 0.984 . S
N609 C602 1.356 . S
N609 H612 0.984 . S
N609 H613 0.985 . S
H610 N605 0.984 . S
H611 N605 0.985 . S
H612 N609 0.984 . S
H613 N609 0.985 . S
H614 N608 0.984 . S
H615 N608 0.984 . S
H616 N604 0.984 . S
H617 N604 0.985 . S
C618 C619 1.363 1_455 S
C618 C624 1.379 . S
C618 N626 1.356 1_455 S
C619 C618 1.363 1_655 S
C619 C625 1.357 1_655 S
C620 C621 1.363 . S
C620 C625 1.394 . S
C620 N627 1.356 . S
C621 C620 1.363 . S
C621 C624 1.363 . S
N622 C624 1.356 . S
N622 H634 0.984 . S
N622 H635 0.985 . S
N623 C625 1.344 1_655 S
N623 H628 0.984 . S
N623 H629 0.985 . S
C624 C618 1.379 . S
C624 C621 1.363 . S
C624 N622 1.356 . S
C625 C619 1.357 1_455 S
C625 C620 1.394 . S
C625 N623 1.344 1_455 S
N626 C618 1.356 1_655 S
N626 H632 0.984 . S
N626 H633 0.984 . S
N627 C620 1.356 . S
N627 H630 0.984 . S
N627 H631 0.985 . S
H628 N623 0.984 . S
H629 N623 0.985 . S
H630 N627 0.984 . S
H631 N627 0.985 . S
H632 N626 0.984 . S
H633 N626 0.984 . S
H634 N622 0.984 . S
H635 N622 0.985 . S
C636 C637 1.363 1_655 S
C636 C642 1.379 . S
C636 N644 1.356 . S
C637 C636 1.363 1_455 S
C637 C643 1.363 . S
C638 C639 1.363 . S
C638 C643 1.379 1_655 S
C638 N645 1.356 . S
C639 C638 1.363 . S
C639 C642 1.363 . S
N640 C642 1.356 . S
N640 H652 0.984 . S
N640 H653 0.985 . S
N641 C643 1.356 . S
N641 H646 0.984 . S
N641 H647 0.985 . S
C642 C636 1.379 . S
C642 C639 1.363 . S
C642 N640 1.356 . S
C643 C637 1.363 . S
C643 C638 1.379 1_455 S
C643 N641 1.356 . S
N644 C636 1.356 . S
N644 H650 0.984 . S
N644 H651 0.984 1_655 S
N645 C638 1.356 . S
N645 H648 0.984 . S
N645 H649 0.985 . S
H646 N641 0.984 . S
H647 N641 0.985 . S
H648 N645 0.984 . S
H649 N645 0.985 . S
H650 N644 0.984 . S
H651 N644 0.984 1_455 S
H652 N640 0.984 . S
H653 N640 0.985 . S
C654 C655 1.363 . S
C654 C660 1.379 . S
C654 N662 1.356 . S
C655 C654 1.363 . S
C655 C661 1.363 . S
C656 C657 1.363 . S
C656 C661 1.379 1_655 S
C656 N663 1.356 . S
C657 C656 1.363 . S
C657 C660 1.363 1_655 S
N658 C660 1.356 . S
N658 H670 0.984 . S
N658 H671 0.985 1_455 S
N659 C661 1.356 . S
N659 H664 0.984 . S
N659 H665 0.985 1_545 S
C660 C654 1.379 . S
C660 C657 1.363 1_455 S
C660 N658 1.356 . S
C661 C655 1.363 . S
C661 C656 1.379 1_455 S
C661 N659 1.356 . S
N662 C654 1.356 . S
N662 H668 0.984 . S
N662 H669 0.984 . S
N663 C656 1.356 . S
N663 H666 0.984 . S
N663 H667 0.985 . S
H664 N659 0.984 . S
H665 N659 0.985 1_565 S
H666 N663 0.984 . S
H667 N663 0.985 . S
H668 N662 0.984 . S
H669 N662 0.984 . S
H670 N658 0.984 . S
H671 N658 0.985 1_655 S
C672 C673 1.363 1_565 S
C672 C678 1.379 . S
C672 N680 1.356 . S
C673 C672 1.363 1_545 S
C673 C679 1.363 . S
C674 C675 1.363 . S
C674 C679 1.379 1_565 S
C674 N681 1.356 . S
C675 C674 1.363 . S
C675 C678 1.363 . S
N676 C678 1.356 . S
N676 H688 0.984 . S
N676 H689 0.985 . S
N677 C679 1.356 . S
N677 H682 0.984 . S
N677 H683 0.985 . S
C678 C672 1.379 . S
C678 C675 1.363 . S
C678 N676 1.356 . S
C679 C673 1.363 . S
C679 C674 1.379 1_545 S
C679 N677 1.356 . S
N680 C672 1.356 . S
N680 H686 0.984 . S
N680 H687 0.984 1_565 S
N681 C674 1.356 . S
N681 H684 0.984 . S
N681 H685 0.985 . S
H682 N677 0.984 . S
H683 N677 0.985 . S
H684 N681 0.984 . S
H685 N681 0.985 . S
H686 N680 0.984 . S
H687 N680 0.984 1_545 S
H688 N676 0.984 . S
H689 N676 0.985 . S
C690 C691 1.363 . S
C690 C696 1.379 . S
C690 N698 1.356 . S
C691 C690 1.363 . S
C691 C697 1.363 . S
C692 C693 1.363 . S
C692 C697 1.379 1_565 S
C692 N699 1.356 . S
C693 C692 1.363 . S
C693 C696 1.363 1_565 S
N694 C696 1.356 1_565 S
N694 H706 0.984 1_565 S
N694 H707 0.985 . S
N695 C697 1.356 . S
N695 H700 0.984 . S
N695 H701 0.985 1_556 S
C696 C690 1.379 . S
C696 C693 1.363 1_545 S
C696 N694 1.356 1_545 S
C697 C691 1.363 . S
C697 C692 1.379 1_545 S
C697 N695 1.356 . S
N698 C690 1.356 . S
N698 H704 0.984 . S
N698 H705 0.984 . S
N699 C692 1.356 . S
N699 H702 0.984 . S
N699 H703 0.985 . S
H700 N695 0.984 . S
H701 N695 0.985 1_554 S
H702 N699 0.984 . S
H703 N699 0.985 . S
H704 N698 0.984 . S
H705 N698 0.984 . S
H706 N694 0.984 1_545 S
H707 N694 0.985 . S
C708 C709 1.363 . S
C708 C714 1.379 . S
C708 N716 1.356 . S
C709 C708 1.363 . S
C709 C715 1.363 . S
C710 C711 1.363 . S
C710 C715 1.379 . S
C710 N717 1.356 . S
C711 C710 1.363 . S
C711 C714 1.363 . S
N712 C714 1.356 . S
N712 H724 0.984 . S
N712 H725 0.985 . S
N713 C715 1.356 . S
N713 H718 0.984 . S
N713 H719 0.985 . S
C714 C708 1.379 . S
C714 C711 1.363 . S
C714 N712 1.356 . S
C715 C709 1.363 . S
C715 C710 1.379 . S
C715 N713 1.356 . S
N716 C708 1.356 . S
N716 H722 0.984 . S
N716 H723 0.984 . S
N717 C710 1.356 . S
N717 H720 0.984 . S
N717 H721 0.985 1_556 S
H718 N713 0.984 . S
H719 N713 0.985 . S
H720 N717 0.984 . S
H721 N717 0.985 1_554 S
H722 N716 0.984 . S
H723 N716 0.984 . S
H724 N712 0.984 . S
H725 N712 0.985 . S
C726 C727 1.363 . S
C726 C732 1.379 1_545 S
C726 N734 1.356 . S
C727 C726 1.363 . S
C727 C733 1.363 . S
C728 C729 1.363 1_545 S
C728 C733 1.379 . S
C728 N735 1.356 . S
C729 C728 1.363 1_565 S
C729 C732 1.363 . S
N730 C732 1.356 . S
N730 H742 0.984 . S
N730 H743 0.985 . S
N731 C733 1.356 . S
N731 H736 0.984 . S
N731 H737 0.985 . S
C732 C726 1.379 1_565 S
C732 C729 1.363 . S
C732 N730 1.356 . S
C733 C727 1.363 . S
C733 C728 1.379 . S
C733 N731 1.356 . S
N734 C726 1.356 . S
N734 H740 0.984 . S
N734 H741 0.984 . S
N735 C728 1.356 . S
N735 H738 0.984 1_545 S
N735 H739 0.985 1_655 S
H736 N731 0.984 . S
H737 N731 0.985 . S
H738 N735 0.984 1_565 S
H739 N735 0.985 1_455 S
H740 N734 0.984 . S
H741 N734 0.984 . S
H742 N730 0.984 . S
H743 N730 0.985 . S
C744 C745 1.363 1_455 S
C744 C750 1.379 . S
C744 N752 1.356 . S
C745 C744 1.363 1_655 S
C745 C751 1.363 . S
C746 C747 1.363 1_655 S
C746 C751 1.379 . S
C746 N753 1.356 . S
C747 C746 1.363 1_455 S
C747 C750 1.363 . S
N748 C750 1.356 . S
N748 H760 0.984 . S
N748 H761 0.985 . S
N749 C751 1.356 . S
N749 H754 0.984 . S
N749 H755 0.985 . S
C750 C744 1.379 . S
C750 C747 1.363 . S
C750 N748 1.356 . S
C751 C745 1.363 . S
C751 C746 1.379 . S
C751 N749 1.356 . S
N752 C744 1.356 . S
N752 H758 0.984 . S
N752 H759 0.984 . S
N753 C746 1.356 . S
N753 H756 0.984 . S
N753 H757 0.985 . S
H754 N749 0.984 . S
H755 N749 0.985 . S
H756 N753 0.984 . S
H757 N753 0.985 . S
H758 N752 0.984 . S
H759 N752 0.984 . S
H760 N748 0.984 . S
H761 N748 0.985 . S
C762 C763 1.363 1_655 S
C762 C768 1.379 . S
C762 N770 1.356 . S
C763 C762 1.363 1_455 S
C763 C769 1.363 . S
C764 C765 1.363 1_455 S
C764 C769 1.379 . S
C764 N771 1.356 . S
C765 C764 1.363 1_655 S
C765 C768 1.363 . S
N766 C768 1.356 . S
N766 H778 0.984 . S
N766 H779 0.985 . S
N767 C769 1.356 . S
N767 H772 0.984 . S
N767 H773 0.985 . S
C768 C762 1.379 . S
C768 C765 1.363 . S
C768 N766 1.356 . S
C769 C763 1.363 . S
C769 C764 1.379 . S
C769 N767 1.356 . S
N770 C762 1.356 . S
N770 H776 0.984 . S
N770 H777 0.984 . S
N771 C764 1.356 . S
N771 H774 0.984 . S
N771 H775 0.985 . S
H772 N767 0.984 . S
H773 N767 0.985 . S
H774 N771 0.984 . S
H775 N771 0.985 . S
H776 N770 0.984 . S
H777 N770 0.984 . S
H778 N766 0.984 . S
H779 N766 0.985 . S
C780 C781 1.363 . S
C780 C786 1.379 . S
C780 N788 1.356 . S
C781 C780 1.363 . S
C781 C787 1.363 1_565 S
C782 C783 1.363 . S
C782 C787 1.379 . S
C782 N789 1.356 . S
C783 C782 1.363 . S
C783 C786 1.363 1_545 S
N784 C786 1.356 . S
N784 H796 0.984 . S
N784 H797 0.985 . S
N785 C787 1.356 . S
N785 H790 0.984 . S
N785 H791 0.985 . S
C786 C780 1.379 . S
C786 C783 1.363 1_565 S
C786 N784 1.356 . S
C787 C781 1.363 1_545 S
C787 C782 1.379 . S
C787 N785 1.356 . S
N788 C780 1.356 . S
N788 H794 0.984 . S
N788 H795 0.984 . S
N789 C782 1.356 . S
N789 H792 0.984 . S
N789 H793 0.985 . S
H790 N785 0.984 . S
H791 N785 0.985 . S
H792 N789 0.984 . S
H793 N789 0.985 . S
H794 N788 0.984 . S
H795 N788 0.984 . S
H796 N784 0.984 . S
H797 N784 0.985 . S
C798 C799 1.363 . S
C798 C804 1.379 . S
C798 N806 1.356 . S
C799 C798 1.363 . S
C799 C805 1.363 . S
C800 C801 1.363 . S
C800 C805 1.379 . S
C800 N807 1.356 . S
C801 C800 1.363 . S
C801 C804 1.363 . S
N802 C804 1.356 . S
N802 H814 0.984 . S
N802 H815 0.985 . S
N803 C805 1.356 . S
N803 H808 0.984 . S
N803 H809 0.985 . S
C804 C798 1.379 . S
C804 C801 1.363 . S
C804 N802 1.356 . S
C805 C799 1.363 . S
C805 C800 1.379 . S
C805 N803 1.356 . S
N806 C798 1.356 . S
N806 H812 0.984 . S
N806 H813 0.984 . S
N807 C800 1.356 . S
N807 H810 0.984 . S
N807 H811 0.985 . S
H808 N803 0.984 . S
H809 N803 0.985 . S
H810 N807 0.984 . S
H811 N807 0.985 . S
H812 N806 0.984 . S
H813 N806 0.984 . S
H814 N802 0.984 . S
H815 N802 0.985 . S
C816 C817 1.363 1_556 S
C816 C822 1.379 . S
C816 N824 1.356 . S
C817 C816 1.363 1_554 S
C817 C823 1.363 . S
C818 C819 1.363 1_554 S
C818 C823 1.379 . S
C818 N825 1.356 . S
C819 C818 1.363 1_556 S
C819 C822 1.363 . S
N820 C822 1.356 . S
N820 H832 0.984 . S
N820 H833 0.985 . S
N821 C823 1.356 . S
N821 H826 0.984 . S
N821 H827 0.985 . S
C822 C816 1.379 . S
C822 C819 1.363 . S
C822 N820 1.356 . S
C823 C817 1.363 . S
C823 C818 1.379 . S
C823 N821 1.356 . S
N824 C816 1.356 . S
N824 H830 0.984 . S
N824 H831 0.984 . S
N825 C818 1.356 . S
N825 H828 0.984 . S
N825 H829 0.985 . S
H826 N821 0.984 . S
H827 N821 0.985 . S
H828 N825 0.984 . S
H829 N825 0.985 . S
H830 N824 0.984 . S
H831 N824 0.984 . S
H832 N820 0.984 . S
H833 N820 0.985 . S
C834 C835 1.363 . S
C834 C840 1.379 . S
C834 N842 1.356 . S
C835 C834 1.363 . S
C835 C841 1.363 . S
C836 C837 1.363 . S
C836 C841 1.379 . S
C836 N843 1.356 . S
C837 C836 1.363 . S
C837 C840 1.363 . S
N838 C840 1.356 . S
N838 H850 0.984 . S
N838 H851 0.985 . S
N839 C841 1.356 . S
N839 H844 0.984 . S
N839 H845 0.985 . S
C840 C834 1.379 . S
C840 C837 1.363 . S
C840 N838 1.356 . S
C841 C835 1.363 . S
C841 C836 1.379 . S
C841 N839 1.356 . S
N842 C834 1.356 . S
N842 H848 0.984 . S
N842 H849 0.984 . S
N843 C836 1.356 . S
N843 H846 0.984 . S
N843 H847 0.985 . S
H844 N839 0.984 . S
H845 N839 0.985 . S
H846 N843 0.984 . S
H847 N843 0.985 . S
H848 N842 0.984 . S
H849 N842 0.984 . S
H850 N838 0.984 . S
H851 N838 0.985 . S
C852 C853 1.363 . S
C852 C858 1.379 . S
C852 N860 1.356 . S
C853 C852 1.363 . S
C853 C859 1.363 . S
C854 C855 1.363 . S
C854 C859 1.379 . S
C854 N861 1.356 . S
C855 C854 1.363 . S
C855 C858 1.363 . S
N856 C858 1.356 . S
N856 H868 0.984 . S
N856 H869 0.985 . S
N857 C859 1.356 . S
N857 H862 0.984 . S
N857 H863 0.985 . S
C858 C852 1.379 . S
C858 C855 1.363 . S
C858 N856 1.356 . S
C859 C853 1.363 . S
C859 C854 1.379 . S
C859 N857 1.356 . S
N860 C852 1.356 . S
N860 H866 0.984 . S
N860 H867 0.984 . S
N861 C854 1.356 . S
N861 H864 0.984 . S
N861 H865 0.985 . S
H862 N857 0.984 . S
H863 N857 0.985 . S
H864 N861 0.984 . S
H865 N861 0.985 . S
H866 N860 0.984 . S
H867 N860 0.984 . S
H868 N856 0.984 . S
H869 N856 0.985 . S
C870 C871 1.363 . S
C870 C876 1.379 . S
C870 N878 1.356 . S
C871 C870 1.363 . S
C871 C877 1.363 . S
C872 C873 1.363 . S
C872 C877 1.379 . S
C872 N879 1.356 . S
C873 C872 1.363 . S
C873 C876 1.363 . S
N874 C876 1.356 . S
N874 H886 0.984 . S
N874 H887 0.985 . S
N875 C877 1.356 . S
N875 H880 0.984 . S
N875 H881 0.985 . S
C876 C870 1.379 . S
C876 C873 1.363 . S
C876 N874 1.356 . S
C877 C871 1.363 . S
C877 C872 1.379 . S
C877 N875 1.356 . S
N878 C870 1.356 . S
N878 H884 0.984 . S
N878 H885 0.984 . S
N879 C872 1.356 . S
N879 H882 0.984 . S
N879 H883 0.985 . S
H880 N875 0.984 . S
H881 N875 0.985 . S
H882 N879 0.984 . S
H883 N879 0.985 . S
H884 N878 0.984 . S
H885 N878 0.984 . S
H886 N874 0.984 . S
H887 N874 0.985 . S
C888 C889 1.363 . S
C888 C894 1.379 . S
C888 N896 1.356 . S
C889 C888 1.363 . S
C889 C895 1.363 . S
C890 C891 1.363 . S
C890 C895 1.379 . S
C890 N897 1.356 . S
C891 C890 1.363 . S
C891 C894 1.363 . S
N892 C894 1.356 . S
N892 H904 0.984 . S
N892 H905 0.985 . S
N893 C895 1.356 . S
N893 H898 0.984 . S
N893 H899 0.985 . S
C894 C888 1.379 . S
C894 C891 1.363 . S
C894 N892 1.356 . S
C895 C889 1.363 . S
C895 C890 1.379 . S
C895 N893 1.356 . S
N896 C888 1.356 . S
N896 H902 0.984 . S
N896 H903 0.984 . S
N897 C890 1.356 . S
N897 H900 0.984 . S
N897 H901 0.985 . S
H898 N893 0.984 . S
H899 N893 0.985 . S
H900 N897 0.984 . S
H901 N897 0.985 . S
H902 N896 0.984 . S
H903 N896 0.984 . S
H904 N892 0.984 . S
H905 N892 0.985 . S
C906 C907 1.363 . S
C906 C912 1.379 . S
C906 N914 1.356 . S
C907 C906 1.363 . S
C907 C913 1.363 . S
C908 C909 1.363 . S
C908 C913 1.379 . S
C908 N915 1.356 . S
C909 C908 1.363 . S
C909 C912 1.363 . S
N910 C912 1.356 . S
N910 H922 0.984 . S
N910 H923 0.985 . S
N911 C913 1.356 . S
N911 H916 0.984 . S
N911 H917 0.985 . S
C912 C906 1.379 . S
C912 C909 1.363 . S
C912 N910 1.356 . S
C913 C907 1.363 . S
C913 C908 1.379 . S
C913 N911 1.356 . S
N914 C906 1.356 . S
N914 H920 0.984 . S
N914 H921 0.984 . S
N915 C908 1.356 . S
N915 H918 0.984 . S
N915 H919 0.985 . S
H916 N911 0.984 . S
H917 N911 0.985 . S
H918 N915 0.984 . S
H919 N915 0.985 . S
H920 N914 0.984 . S
H921 N914 0.984 . S
H922 N910 0.984 . S
H923 N910 0.985 . S
C924 C925 1.363 1_565 S
C924 C930 1.379 . S
C924 N932 1.356 . S
C925 C924 1.363 1_545 S
C925 C931 1.363 . S
C926 C927 1.363 1_545 S
C926 C931 1.379 . S
C926 N933 1.356 . S
C927 C926 1.363 1_565 S
C927 C930 1.363 . S
N928 C930 1.356 . S
N928 H940 0.984 . S
N928 H941 0.985 . S
N929 C931 1.356 . S
N929 H934 0.984 . S
N929 H935 0.985 . S
C930 C924 1.379 . S
C930 C927 1.363 . S
C930 N928 1.356 . S
C931 C925 1.363 . S
C931 C926 1.379 . S
C931 N929 1.356 . S
N932 C924 1.356 . S
N932 H938 0.984 . S
N932 H939 0.984 . S
N933 C926 1.356 . S
N933 H936 0.984 . S
N933 H937 0.985 . S
H934 N929 0.984 . S
H935 N929 0.985 . S
H936 N933 0.984 . S
H937 N933 0.985 . S
H938 N932 0.984 . S
H939 N932 0.984 . S
H940 N928 0.984 . S
H941 N928 0.985 . S
C942 C943 1.363 1_554 S
C942 C948 1.379 . S
C942 N950 1.356 . S
C943 C942 1.363 1_556 S
C943 C949 1.363 . S
C944 C945 1.363 1_556 S
C944 C949 1.379 . S
C944 N951 1.356 . S
C945 C944 1.363 1_554 S
C945 C948 1.363 . S
N946 C948 1.356 . S
N946 H958 0.984 . S
N946 H959 0.985 . S
N947 C949 1.356 . S
N947 H952 0.984 . S
N947 H953 0.985 . S
C948 C942 1.379 . S
C948 C945 1.363 . S
C948 N946 1.356 . S
C949 C943 1.363 . S
C949 C944 1.379 . S
C949 N947 1.356 . S
N950 C942 1.356 . S
N950 H956 0.984 . S
N950 H957 0.984 . S
N951 C944 1.356 . S
N951 H954 0.984 . S
N951 H955 0.985 . S
H952 N947 0.984 . S
H953 N947 0.985 . S
H954 N951 0.984 . S
H955 N951 0.985 . S
H956 N950 0.984 . S
H957 N950 0.984 . S
H958 N946 0.984 . S
H959 N946 0.985 . S
C960 C961 1.362 1_655 S
C960 C966 1.379 1_565 S
C960 N968 1.356 . S
C961 C960 1.362 1_455 S
C961 C967 1.364 . S
C962 C963 1.363 1_455 S
C962 C967 1.379 1_545 S
C962 N969 1.356 . S
C963 C962 1.363 1_655 S
C963 C966 1.363 . S
N964 C966 1.356 . S
N964 H976 0.984 . S
N964 H977 0.985 . S
N965 C967 1.356 . S
N965 H970 0.984 . S
N965 H971 0.985 . S
C966 C960 1.379 1_545 S
C966 C963 1.363 . S
C966 N964 1.356 . S
C967 C961 1.364 . S
C967 C962 1.379 1_565 S
C967 N965 1.356 . S
N968 C960 1.356 . S
N968 H974 0.984 . S
N968 H975 0.984 . S
N969 C962 1.356 . S
N969 H972 0.984 . S
N969 H973 0.985 . S
H970 N965 0.984 . S
H971 N965 0.985 . S
H972 N969 0.984 . S
H973 N969 0.985 . S
H974 N968 0.984 . S
H975 N968 0.984 . S
H976 N964 0.984 . S
H977 N964 0.985 . S
C978 C979 1.363 . S
C978 C984 1.379 . S
C978 N986 1.356 . S
C979 C978 1.363 . S
C979 C985 1.363 1_455 S
C980 C981 1.363 . S
C980 C985 1.379 . S
C980 N987 1.356 . S
C981 C980 1.363 . S
C981 C984 1.363 1_655 S
N982 C984 1.356 . S
N982 H994 0.984 . S
N982 H995 0.985 . S
N983 C985 1.356 . S
N983 H988 0.984 . S
N983 H989 0.985 . S
C984 C978 1.379 . S
C984 C981 1.363 1_455 S
C984 N982 1.356 . S
C985 C979 1.363 1_655 S
C985 C980 1.379 . S
C985 N983 1.356 . S
N986 C978 1.356 . S
N986 H992 0.984 . S
N986 H993 0.984 . S
N987 C980 1.356 . S
N987 H990 0.984 . S
N987 H991 0.985 . S
H988 N983 0.984 . S
H989 N983 0.985 . S
H990 N987 0.984 . S
H991 N987 0.985 . S
H992 N986 0.984 . S
H993 N986 0.984 . S
H994 N982 0.984 . S
H995 N982 0.985 . S
C996 C997 1.365 . S
C996 C1002 1.379 1_556 S
C996 N1004 1.356 . S
C997 C996 1.365 . S
C997 C1003 1.361 1_545 S
C998 C999 1.363 . S
C998 C1003 1.379 1_554 S
C998 N1005 1.356 . S
C999 C998 1.363 . S
C999 C1002 1.363 1_565 S
N1000 C1002 1.356 . S
N1000 H1012 0.984 . S
N1000 H1013 0.985 . S
N1001 C1003 1.356 . S
N1001 H1006 0.984 . S
N1001 H1007 0.985 . S
C1002 C996 1.379 1_554 S
C1002 C999 1.363 1_545 S
C1002 N1000 1.356 . S
C1003 C997 1.361 1_565 S
C1003 C998 1.379 1_556 S
C1003 N1001 1.356 . S
N1004 C996 1.356 . S
N1004 H1010 0.984 . S
N1004 H1011 0.984 . S
N1005 C998 1.356 . S
N1005 H1008 0.984 . S
N1005 H1009 0.985 . S
H1006 N1001 0.984 . S
H1007 N1001 0.985 . S
H1008 N1005 0.984 . S
H1009 N1005 0.985 . S
H1010 N1004 0.984 . S
H1011 N1004 0.984 . S
H1012 N1000 0.984 . S
H1013 N1000 0.985 . S
C1014 C1015 1.363 . S
C1014 C1020 1.379 1_554 S
C1014 N1022 1.356 . S
C1015 C1014 1.363 . S
C1015 C1021 1.363 . S
C1016 C1017 1.363 . S
C1016 C1021 1.379 1_556 S
C1016 N1023 1.356 . S
C1017 C1016 1.363 . S
C1017 C1020 1.363 . S
N1018 C1020 1.356 . S
N1018 H1030 0.984 . S
N1018 H1031 0.985 . S
N1019 C1021 1.356 . S
N1019 H1024 0.984 . S
N1019 H1025 0.985 . S
C1020 C1014 1.379 1_556 S
C1020 C1017 1.363 . S
C1020 N1018 1.356 . S
C1021 C1015 1.363 . S
C1021 C1016 1.379 1_554 S
C1021 N1019 1.356 . S
N1022 C1014 1.356 . S
N1022 H1028 0.984 . S
N1022 H1029 0.984 . S
N1023 C1016 1.356 . S
N1023 H1026 0.984 . S
N1023 H1027 0.985 . S
H1024 N1019 0.984 . S
H1025 N1019 0.985 . S
H1026 N1023 0.984 . S
H1027 N1023 0.985 . S
H1028 N1022 0.984 . S
H1029 N1022 0.984 . S
H1030 N1018 0.984 . S
H1031 N1018 0.985 . S
C1032 C1033 1.363 . S
C1032 C1038 1.379 . S
C1032 N1040 1.356 . S
C1033 C1032 1.363 . S
C1033 C1039 1.363 1_545 S
C1034 C1035 1.363 . S
C1034 C1039 1.379 . S
C1034 N1041 1.356 . S
C1035 C1034 1.363 . S
C1035 C1038 1.363 1_565 S
N1036 C1038 1.356 . S
N1036 H1048 0.984 . S
N1036 H1049 0.985 . S
N1037 C1039 1.356 . S
N1037 H1042 0.984 . S
N1037 H1043 0.985 . S
C1038 C1032 1.379 . S
C1038 C1035 1.363 1_545 S
C1038 N1036 1.356 . S
C1039 C1033 1.363 1_565 S
C1039 C1034 1.379 . S
C1039 N1037 1.356 . S
N1040 C1032 1.356 . S
N1040 H1046 0.984 . S
N1040 H1047 0.984 . S
N1041 C1034 1.356 . S
N1041 H1044 0.984 . S
N1041 H1045 0.985 . S
H1042 N1037 0.984 . S
H1043 N1037 0.985 . S
H1044 N1041 0.984 . S
H1045 N1041 0.985 . S
H1046 N1040 0.984 . S
H1047 N1040 0.984 . S
H1048 N1036 0.984 . S
H1049 N1036 0.985 . S
C1050 C1051 1.363 . S
C1050 C1056 1.379 . S
C1050 N1058 1.356 . S
C1051 C1050 1.363 . S
C1051 C1057 1.363 . S
C1052 C1053 1.363 . S
C1052 C1057 1.379 . S
C1052 N1059 1.356 . S
C1053 C1052 1.363 . S
C1053 C1056 1.363 . S
N1054 C1056 1.356 . S
N1054 H1066 0.984 . S
N1054 H1067 0.985 . S
N1055 C1057 1.356 . S
N1055 H1060 0.984 . S
N1055 H1061 0.985 . S
C1056 C1050 1.379 . S
C1056 C1053 1.363 . S
C1056 N1054 1.356 . S
C1057 C1051 1.363 . S
C1057 C1052 1.379 . S
C1057 N1055 1.356 . S
N1058 C1050 1.356 . S
N1058 H1064 0.984 . S
N1058 H1065 0.984 . S
N1059 C1052 1.356 . S
N1059 H1062 0.984 . S
N1059 H1063 0.985 . S
H1060 N1055 0.984 . S
H1061 N1055 0.985 . S
H1062 N1059 0.984 . S
H1063 N1059 0.985 . S
H1064 N1058 0.984 . S
H1065 N1058 0.984 . S
H1066 N1054 0.984 . S
H1067 N1054 0.985 . S
C1068 C1069 1.363 . S
C1068 C1074 1.379 1_455 S
C1068 N1076 1.356 . S
C1069 C1068 1.363 . S
C1069 C1075 1.363 1_556 S
C1070 C1071 1.365 . S
C1070 C1075 1.379 1_655 S
C1070 N1077 1.356 . S
C1071 C1070 1.365 . S
C1071 C1074 1.361 1_554 S
N1072 C1074 1.356 . S
N1072 H1084 0.984 . S
N1072 H1085 0.985 . S
N1073 C1075 1.356 . S
N1073 H1078 0.984 . S
N1073 H1079 0.985 . S
C1074 C1068 1.379 1_655 S
C1074 C1071 1.361 1_556 S
C1074 N1072 1.356 . S
C1075 C1069 1.363 1_554 S
C1075 C1070 1.379 1_455 S
C1075 N1073 1.356 . S
N1076 C1068 1.356 . S
N1076 H1082 0.984 . S
N1076 H1083 0.984 . S
N1077 C1070 1.356 . S
N1077 H1080 0.984 . S
N1077 H1081 0.985 . S
H1078 N1073 0.984 . S
H1079 N1073 0.985 . S
H1080 N1077 0.984 . S
H1081 N1077 0.985 . S
H1082 N1076 0.984 . S
H1083 N1076 0.984 . S
H1084 N1072 0.984 . S
H1085 N1072 0.985 . S
C1086 C1087 1.363 . S
C1086 C1092 1.379 1_455 S
C1086 N1094 1.356 . S
C1087 C1086 1.363 . S
C1087 C1093 1.363 . S
C1088 C1089 1.363 . S
C1088 C1093 1.379 1_655 S
C1088 N1095 1.356 . S
C1089 C1088 1.363 . S
C1089 C1092 1.363 . S
N1090 C1092 1.356 . S
N1090 H1102 0.984 . S
N1090 H1103 0.985 . S
N1091 C1093 1.356 . S
N1091 H1096 0.984 . S
N1091 H1097 0.985 . S
C1092 C1086 1.379 1_655 S
C1092 C1089 1.363 . S
C1092 N1090 1.356 . S
C1093 C1087 1.363 . S
C1093 C1088 1.379 1_455 S
C1093 N1091 1.356 . S
N1094 C1086 1.356 . S
N1094 H1100 0.984 . S
N1094 H1101 0.984 . S
N1095 C1088 1.356 . S
N1095 H1098 0.984 . S
N1095 H1099 0.985 . S
H1096 N1091 0.984 . S
H1097 N1091 0.985 . S
H1098 N1095 0.984 . S
H1099 N1095 0.985 . S
H1100 N1094 0.984 . S
H1101 N1094 0.984 . S
H1102 N1090 0.984 . S
H1103 N1090 0.985 . S
C1104 C1105 1.363 . S
C1104 C1110 1.379 . S
C1104 N1112 1.356 . S
C1105 C1104 1.363 . S
C1105 C1111 1.363 . S
C1106 C1107 1.363 . S
C1106 C1111 1.379 . S
C1106 N1113 1.356 . S
C1107 C1106 1.363 . S
C1107 C1110 1.363 . S
N1108 C1110 1.356 . S
N1108 H1120 0.984 . S
N1108 H1121 0.985 . S
N1109 C1111 1.356 . S
N1109 H1114 0.984 . S
N1109 H1115 0.985 . S
C1110 C1104 1.379 . S
C1110 C1107 1.363 . S
C1110 N1108 1.356 . S
C1111 C1105 1.363 . S
C1111 C1106 1.379 . S
C1111 N1109 1.356 . S
N1112 C1104 1.356 . S
N1112 H1118 0.984 . S
N1112 H1119 0.984 . S
N1113 C1106 1.356 . S
N1113 H1116 0.984 . S
N1113 H1117 0.985 . S
H1114 N1109 0.984 . S
H1115 N1109 0.985 . S
H1116 N1113 0.984 . S
H1117 N1113 0.985 . S
H1118 N1112 0.984 . S
H1119 N1112 0.984 . S
H1120 N1108 0.984 . S
H1121 N1108 0.985 . S
C1122 C1123 1.363 . S
C1122 C1128 1.379 . S
C1122 N1130 1.356 . S
C1123 C1122 1.363 . S
C1123 C1129 1.363 . S
C1124 C1125 1.363 . S
C1124 C1129 1.379 . S
C1124 N1131 1.356 . S
C1125 C1124 1.363 . S
C1125 C1128 1.363 . S
N1126 C1128 1.356 . S
N1126 H1138 0.984 . S
N1126 H1139 0.985 . S
N1127 C1129 1.356 . S
N1127 H1132 0.984 . S
N1127 H1133 0.985 . S
C1128 C1122 1.379 . S
C1128 C1125 1.363 . S
C1128 N1126 1.356 . S
C1129 C1123 1.363 . S
C1129 C1124 1.379 . S
C1129 N1127 1.356 . S
N1130 C1122 1.356 . S
N1130 H1136 0.984 . S
N1130 H1137 0.984 . S
N1131 C1124 1.356 . S
N1131 H1134 0.984 . S
N1131 H1135 0.985 . S
H1132 N1127 0.984 . S
H1133 N1127 0.985 . S
H1134 N1131 0.984 . S
H1135 N1131 0.985 . S
H1136 N1130 0.984 . S
H1137 N1130 0.984 . S
H1138 N1126 0.984 . S
H1139 N1126 0.985 . S
C1140 C1141 1.363 . S
C1140 C1146 1.379 1_565 S
C1140 N1148 1.356 . S
C1141 C1140 1.363 . S
C1141 C1147 1.363 . S
C1142 C1143 1.363 . S
C1142 C1147 1.379 1_545 S
C1142 N1149 1.356 . S
C1143 C1142 1.363 . S
C1143 C1146 1.363 . S
N1144 C1146 1.356 . S
N1144 H1156 0.984 . S
N1144 H1157 0.985 . S
N1145 C1147 1.356 . S
N1145 H1150 0.984 . S
N1145 H1151 0.985 . S
C1146 C1140 1.379 1_545 S
C1146 C1143 1.363 . S
C1146 N1144 1.356 . S
C1147 C1141 1.363 . S
C1147 C1142 1.379 1_565 S
C1147 N1145 1.356 . S
N1148 C1140 1.356 . S
N1148 H1154 0.984 . S
N1148 H1155 0.984 . S
N1149 C1142 1.356 . S
N1149 H1152 0.984 . S
N1149 H1153 0.985 . S
H1150 N1145 0.984 . S
H1151 N1145 0.985 . S
H1152 N1149 0.984 . S
H1153 N1149 0.985 . S
H1154 N1148 0.984 . S
H1155 N1148 0.984 . S
H1156 N1144 0.984 . S
H1157 N1144 0.985 . S
C1158 C1159 1.363 1_556 S
C1158 C1164 1.379 . S
C1158 N1166 1.356 . S
C1159 C1158 1.363 1_554 S
C1159 C1165 1.363 . S
C1160 C1161 1.363 1_554 S
C1160 C1165 1.379 . S
C1160 N1167 1.356 . S
C1161 C1160 1.363 1_556 S
C1161 C1164 1.363 . S
N1162 C1164 1.356 . S
N1162 H1174 0.984 . S
N1162 H1175 0.985 . S
N1163 C1165 1.356 . S
N1163 H1168 0.984 . S
N1163 H1169 0.985 . S
C1164 C1158 1.379 . S
C1164 C1161 1.363 . S
C1164 N1162 1.356 . S
C1165 C1159 1.363 . S
C1165 C1160 1.379 . S
C1165 N1163 1.356 . S
N1166 C1158 1.356 . S
N1166 H1172 0.984 . S
N1166 H1173 0.984 . S
N1167 C1160 1.356 . S
N1167 H1170 0.984 . S
N1167 H1171 0.985 . S
H1168 N1163 0.984 . S
H1169 N1163 0.985 . S
H1170 N1167 0.984 . S
H1171 N1167 0.985 . S
H1172 N1166 0.984 . S
H1173 N1166 0.984 . S
H1174 N1162 0.984 . S
H1175 N1162 0.985 . S
C313 C224 0.792 . S
C315 C3 0.791 . S
C331 C18 0.886 . S
C333 C213 0.857 . S
C349 C31 0.927 . S
C351 C252 0.923 . S
C367 C42 1.016 . S
C369 C237 0.969 . S
C385 C57 0.793 . S
C387 C278 0.793 . S
C403 C68 0.883 . S
C405 C291 0.878 . S
C421 C263 0.859 . S
C423 C83 0.883 . S
C439 C146 0.930 . S
C441 C94 0.974 . S
C457 C107 0.793 . S
C459 C44 0.793 . S
C475 C16 0.876 . S
C477 C120 0.884 . S
C493 C135 1.020 . S
C495 C5 1.009 . S
C511 C148 0.974 . S
C513 C185 0.930 . S
C529 C70 1.048 . S
C531 C161 1.109 . S
C547 C55 1.007 . S
C549 C174 1.021 . S
C565 C187 0.974 . S
C567 C96 0.930 . S
C583 C200 0.883 . S
C585 C81 0.878 . S
C601 C122 1.048 . S
C603 C211 1.109 . S
C619 C133 0.971 . S
C621 C226 1.014 . S
C637 C109 1.007 . S
C639 C239 1.021 . S
C655 C250 0.927 . S
C657 C302 0.923 . S
C673 C198 1.048 . S
C675 C265 1.109 . S
C691 C276 1.016 . S
C693 C172 0.969 . S
C709 C159 0.859 . S
C711 C289 0.883 . S
C727 C304 0.927 . S
C729 C29 0.923 . S
C745 C4 1.908 . S
C747 C23 1.894 . S
C763 C43 1.837 . S
C765 C36 1.850 . S
C781 C62 1.908 . S
C783 C88 1.894 . S
C799 C69 2.100 . S
C801 C95 2.081 . S
C817 C290 1.894 . S
C819 C108 1.908 . S
C835 C121 2.100 . S
C837 C153 2.081 . S
C853 C270 2.023 . S
C855 C140 2.042 . S
C871 C179 2.042 . S
C873 C166 2.023 . S
C889 C192 2.081 . S
C891 C205 2.100 . S
C907 C244 2.042 . S
C909 C212 2.023 . S
C925 C231 1.837 . S
C927 C251 1.850 . S
C943 C309 1.850 . S
C945 C277 1.836 . S
C961 C30 1.558 . S
C963 C10 1.562 . S
C979 C17 1.746 . S
C981 C49 1.740 . S
C997 C257 1.558 . S
C999 C56 1.562 . S
C1015 C75 1.673 . S
C1017 C238 1.671 . S
C1033 C82 1.746 . S
C1035 C225 1.740 . S
C1051 C218 1.852 . S
C1053 C101 1.857 . S
C1069 C114 1.562 . S
C1071 C303 1.558 . S
C1087 C127 1.673 . S
C1089 C134 1.671 . S
C1105 C264 1.852 . S
C1107 C147 1.857 . S
C1123 C160 1.852 . S
C1125 C186 1.857 . S
C1141 C173 1.671 . S
C1143 C199 1.673 . S
C1159 C296 1.746 . S
C1161 C283 1.740 . S
