# Generated by pormake.
# Topology zff, (5)-cn, num edge types: 1
# Building blocks:
#     Node 0, Type 0, BuildingBlock: BEQFEK_clean_sbu_0, # of connection points: 5
#     Node 1, Type 0, BuildingBlock: BEQFEK_clean_sbu_0, # of connection points: 5
#     Node 2, Type 0, BuildingBlock: BEQFEK_clean_sbu_0, # of connection points: 5
#     Node 3, Type 0, BuildingBlock: BEQFEK_clean_sbu_0, # of connection points: 5
#     Node 4, Type 0, BuildingBlock: BEQFEK_clean_sbu_0, # of connection points: 5
#     Node 5, Type 0, BuildingBlock: BEQFEK_clean_sbu_0, # of connection points: 5
#     Node 6, Type 0, BuildingBlock: BEQFEK_clean_sbu_0, # of connection points: 5
#     Node 7, Type 0, BuildingBlock: BEQFEK_clean_sbu_0, # of connection points: 5
#     Node 8, Type 0, BuildingBlock: BEQFEK_clean_sbu_0, # of connection points: 5
#     Node 9, Type 0, BuildingBlock: BEQFEK_clean_sbu_0, # of connection points: 5
#     Node 10, Type 0, BuildingBlock: BEQFEK_clean_sbu_0, # of connection points: 5
#     Node 11, Type 0, BuildingBlock: BEQFEK_clean_sbu_0, # of connection points: 5
#     Node 12, Type 0, BuildingBlock: BEQFEK_clean_sbu_0, # of connection points: 5
#     Node 13, Type 0, BuildingBlock: BEQFEK_clean_sbu_0, # of connection points: 5
#     Node 14, Type 0, BuildingBlock: BEQFEK_clean_sbu_0, # of connection points: 5
#     Node 15, Type 0, BuildingBlock: BEQFEK_clean_sbu_0, # of connection points: 5
#     Edge 16, Type (0, 0), BuildingBlock: AJUNOK_clean_linker_0, # of connection points: 2
#     Edge 17, Type (0, 0), BuildingBlock: AJUNOK_clean_linker_0, # of connection points: 2
#     Edge 18, Type (0, 0), BuildingBlock: AJUNOK_clean_linker_0, # of connection points: 2
#     Edge 19, Type (0, 0), BuildingBlock: AJUNOK_clean_linker_0, # of connection points: 2
#     Edge 20, Type (0, 0), BuildingBlock: AJUNOK_clean_linker_0, # of connection points: 2
#     Edge 21, Type (0, 0), BuildingBlock: AJUNOK_clean_linker_0, # of connection points: 2
#     Edge 22, Type (0, 0), BuildingBlock: AJUNOK_clean_linker_0, # of connection points: 2
#     Edge 23, Type (0, 0), BuildingBlock: AJUNOK_clean_linker_0, # of connection points: 2
#     Edge 24, Type (0, 0), BuildingBlock: AJUNOK_clean_linker_0, # of connection points: 2
#     Edge 25, Type (0, 0), BuildingBlock: AJUNOK_clean_linker_0, # of connection points: 2
#     Edge 26, Type (0, 0), BuildingBlock: AJUNOK_clean_linker_0, # of connection points: 2
#     Edge 27, Type (0, 0), BuildingBlock: AJUNOK_clean_linker_0, # of connection points: 2
#     Edge 28, Type (0, 0), BuildingBlock: AJUNOK_clean_linker_0, # of connection points: 2
#     Edge 29, Type (0, 0), BuildingBlock: AJUNOK_clean_linker_0, # of connection points: 2
#     Edge 30, Type (0, 0), BuildingBlock: AJUNOK_clean_linker_0, # of connection points: 2
#     Edge 31, Type (0, 0), BuildingBlock: AJUNOK_clean_linker_0, # of connection points: 2
#     Edge 32, Type (0, 0), BuildingBlock: AJUNOK_clean_linker_0, # of connection points: 2
#     Edge 33, Type (0, 0), BuildingBlock: AJUNOK_clean_linker_0, # of connection points: 2
#     Edge 34, Type (0, 0), BuildingBlock: AJUNOK_clean_linker_0, # of connection points: 2
#     Edge 35, Type (0, 0), BuildingBlock: AJUNOK_clean_linker_0, # of connection points: 2
#     Edge 36, Type (0, 0), BuildingBlock: AJUNOK_clean_linker_0, # of connection points: 2
#     Edge 37, Type (0, 0), BuildingBlock: AJUNOK_clean_linker_0, # of connection points: 2
#     Edge 38, Type (0, 0), BuildingBlock: AJUNOK_clean_linker_0, # of connection points: 2
#     Edge 39, Type (0, 0), BuildingBlock: AJUNOK_clean_linker_0, # of connection points: 2
#     Edge 40, Type (0, 0), BuildingBlock: AJUNOK_clean_linker_0, # of connection points: 2
#     Edge 41, Type (0, 0), BuildingBlock: AJUNOK_clean_linker_0, # of connection points: 2
#     Edge 42, Type (0, 0), BuildingBlock: AJUNOK_clean_linker_0, # of connection points: 2
#     Edge 43, Type (0, 0), BuildingBlock: AJUNOK_clean_linker_0, # of connection points: 2
#     Edge 44, Type (0, 0), BuildingBlock: AJUNOK_clean_linker_0, # of connection points: 2
#     Edge 45, Type (0, 0), BuildingBlock: AJUNOK_clean_linker_0, # of connection points: 2
#     Edge 46, Type (0, 0), BuildingBlock: AJUNOK_clean_linker_0, # of connection points: 2
#     Edge 47, Type (0, 0), BuildingBlock: AJUNOK_clean_linker_0, # of connection points: 2
#     Edge 48, Type (0, 0), BuildingBlock: AJUNOK_clean_linker_0, # of connection points: 2
#     Edge 49, Type (0, 0), BuildingBlock: AJUNOK_clean_linker_0, # of connection points: 2
#     Edge 50, Type (0, 0), BuildingBlock: AJUNOK_clean_linker_0, # of connection points: 2
#     Edge 51, Type (0, 0), BuildingBlock: AJUNOK_clean_linker_0, # of connection points: 2
#     Edge 52, Type (0, 0), BuildingBlock: AJUNOK_clean_linker_0, # of connection points: 2
#     Edge 53, Type (0, 0), BuildingBlock: AJUNOK_clean_linker_0, # of connection points: 2
#     Edge 54, Type (0, 0), BuildingBlock: AJUNOK_clean_linker_0, # of connection points: 2
#     Edge 55, Type (0, 0), BuildingBlock: AJUNOK_clean_linker_0, # of connection points: 2
# Relax obj value: 0.055
# Max RMSD: 0.093
# Mean RMSD: 0.093
data_MOF--net-zff--node1-BEQFEK_clean_sbu_0--edge1-AJUNOK_clean_linker_0
_symmetry_space_group_name_H-M    P1
_symmetry_Int_Tables_number       1
_symmetry_cell_setting            triclinic
loop_
_symmetry_equiv_pos_as_xyz
'x, y, z'
_cell_length_a     27.99505
_cell_length_b     27.990874
_cell_length_c     58.034673
_cell_angle_alpha  90.20514
_cell_angle_beta   90.125388
_cell_angle_gamma 90.1499
loop_
_atom_site_label
_atom_site_type_symbol
_atom_site_fract_x
_atom_site_fract_y
_atom_site_fract_z
_atom_type_partial_charge
Co0 Co 0.02447 0.26239 0.42214 0.0
Co1 Co 0.02699 0.27219 0.36758 0.0
C2 C 0.09482 0.20835 0.39395 0.0
O3 O 0.07814 0.21997 0.41365 0.0
O4 O 0.07794 0.2259 0.3754 0.0
C5 C 0.01252 0.23319 0.46983 0.0
O6 O 0.02135 0.19011 0.46188 0.0
C7 C 0.07255 0.30477 0.32455 0.0
C8 C 0.0109 0.30987 0.30091 0.0
C9 C 0.05959 0.3184 0.30239 0.0
N10 N 0.03331 0.28899 0.33559 0.0
N11 N -0.00324 0.29139 0.32119 0.0
C12 C 0.12014 0.31126 0.33591 0.0
H13 H 0.11585 0.31471 0.35485 0.0
H14 H 0.13882 0.34313 0.32896 0.0
H15 H 0.14242 0.27935 0.33238 0.0
C16 C 0.02989 0.36645 0.41888 0.0
N17 N 0.03189 0.32303 0.40898 0.0
N18 N 0.03158 0.32771 0.3864 0.0
C19 C 0.02893 0.37452 0.38126 0.0
C20 C 0.02803 0.4004 0.40168 0.0
C21 C 0.02555 0.37489 0.44426 0.0
H22 H 0.98974 0.36292 0.45008 0.0
H23 H 0.05283 0.35356 0.4535 0.0
H24 H 0.03027 0.41325 0.44864 0.0
O25 O 0.96512 0.23398 0.41064 0.0
O26 O 0.96385 0.2408 0.37255 0.0
H27 H 0.99257 0.37124 0.34874 0.0
H28 H 0.0071 0.43107 0.358 0.0
C29 C 0.01979 0.39357 0.35757 0.0
H30 H 0.05334 0.39224 0.3475 0.0
H31 H 0.96173 0.28232 0.32554 0.0
O32 O 0.01444 0.2685 0.45614 0.0
C33 C 0.94437 0.22777 0.39137 0.0
Co34 Co 0.7241 0.03073 0.41869 0.0
Co35 Co 0.72085 0.03194 0.36397 0.0
C36 C 0.78022 0.10157 0.39235 0.0
O37 O 0.7662 0.08525 0.41167 0.0
O38 O 0.76574 0.08355 0.37336 0.0
C39 C 0.74947 0.01218 0.4659 0.0
O40 O 0.79314 0.01257 0.45766 0.0
C41 C 0.68864 0.07938 0.32166 0.0
C42 C 0.68657 0.02018 0.29647 0.0
C43 C 0.67469 0.06794 0.29924 0.0
N44 N 0.7062 0.03989 0.33176 0.0
N45 N 0.70568 0.00484 0.31645 0.0
C46 C 0.68639 0.127 0.33343 0.0
H47 H 0.72014 0.1337 0.34293 0.0
H48 H 0.65706 0.12672 0.34626 0.0
H49 H 0.68067 0.15628 0.32089 0.0
C50 C 0.6204 0.0353 0.41221 0.0
N51 N 0.66502 0.03716 0.40375 0.0
N52 N 0.66323 0.03538 0.38109 0.0
C53 C 0.61722 0.03131 0.37448 0.0
C54 C 0.58885 0.03162 0.39398 0.0
C55 C 0.60846 0.03224 0.43724 0.0
H56 H 0.63106 0.05748 0.44725 0.0
H57 H 0.57021 0.04042 0.4403 0.0
H58 H 0.61576 -0.00458 0.44325 0.0
O59 O 0.75472 0.97183 0.40794 0.0
O60 O 0.75216 0.96908 0.36971 0.0
H61 H 0.62615 -0.00691 0.34268 0.0
H62 H 0.56468 0.00354 0.35033 0.0
C63 C 0.60119 0.01906 0.35054 0.0
H64 H 0.6008 0.05193 0.34001 0.0
H65 H 0.71647 0.96994 0.31993 0.0
O66 O 0.7148 0.02162 0.45248 0.0
C67 C 0.76344 0.95051 0.38903 0.0
Co68 Co 0.96157 0.73343 0.42048 0.0
Co69 Co 0.95385 0.72051 0.36609 0.0
C70 C 0.88842 0.7857 0.39335 0.0
O71 O 0.90668 0.77476 0.41279 0.0
O72 O 0.90394 0.76768 0.3746 0.0
C73 C 0.94977 0.73669 0.47144 0.0
O74 O 0.90369 0.74224 0.46814 0.0
C75 C 0.90521 0.686 0.32349 0.0
C76 C 0.96633 0.67835 0.29986 0.0
C77 C 0.91746 0.67056 0.30137 0.0
N78 N 0.94509 0.70112 0.33442 0.0
N79 N 0.9813 0.69701 0.32002 0.0
C80 C 0.85669 0.68648 0.33426 0.0
H81 H 0.85428 0.71528 0.34734 0.0
H82 H 0.85039 0.65197 0.34311 0.0
H83 H 0.82857 0.69162 0.32099 0.0
C84 C 0.96037 0.62901 0.41828 0.0
N85 N 0.95403 0.67174 0.40822 0.0
N86 N 0.95179 0.66605 0.38568 0.0
C87 C 0.9568 0.61929 0.38077 0.0
C88 C 0.9627 0.59455 0.40121 0.0
C89 C 0.97176 0.62259 0.44328 0.0
H90 H 0.00597 0.64094 0.44732 0.0
H91 H 0.94332 0.63932 0.45382 0.0
H92 H 0.97484 0.58429 0.4479 0.0
O93 O 0.0191 0.76106 0.40721 0.0
O94 O 0.01766 0.75204 0.36922 0.0
H95 H 0.99092 0.61744 0.3478 0.0
H96 H 0.96815 0.56014 0.35709 0.0
C97 C 0.96136 0.59916 0.35693 0.0
H98 H 0.92776 0.60538 0.34734 0.0
H99 H 0.0166 0.70562 0.32419 0.0
O100 O 0.97702 0.73218 0.4541 0.0
C101 C 0.03852 0.76597 0.38762 0.0
Co102 Co 0.25817 0.96145 0.41578 0.0
Co103 Co 0.2614 0.96231 0.36126 0.0
C104 C 0.20294 0.891 0.38838 0.0
O105 O 0.2173 0.90637 0.40789 0.0
O106 O 0.21668 0.91028 0.36968 0.0
C107 C 0.23281 0.96587 0.46379 0.0
O108 O 0.1898 0.95558 0.45612 0.0
C109 C 0.28968 0.91694 0.31759 0.0
C110 C 0.29624 0.97873 0.29432 0.0
C111 C 0.30412 0.92986 0.29552 0.0
N112 N 0.27544 0.95645 0.32896 0.0
N113 N 0.27856 -0.0069 0.31476 0.0
C114 C 0.29011 0.86809 0.32805 0.0
H115 H 0.25863 0.86322 0.3393 0.0
H116 H 0.32257 0.86409 0.33887 0.0
H117 H 0.28968 0.8399 0.31457 0.0
C118 C 0.36156 0.96366 0.4098 0.0
N119 N 0.31742 0.95792 0.40104 0.0
N120 N 0.31937 0.95888 0.37838 0.0
C121 C 0.3652 0.96528 0.37201 0.0
C122 C 0.39313 0.96896 0.39169 0.0
C123 C 0.37175 0.97162 0.43486 0.0
H124 H 0.35365 0.00479 0.44062 0.0
H125 H 0.35702 0.94141 0.44495 0.0
H126 H 0.41054 0.97501 0.4384 0.0
O127 O 0.22655 0.02029 0.40612 0.0
O128 O 0.22968 0.02481 0.36795 0.0
H129 H 0.36204 0.00158 0.33962 0.0
H130 H 0.4206 0.97849 0.34664 0.0
C131 C 0.38164 0.97157 0.34767 0.0
H132 H 0.37405 0.93855 0.33778 0.0
H133 H 0.27065 0.02829 0.31936 0.0
O134 O 0.26721 0.96813 0.4496 0.0
C135 C 0.21802 0.04241 0.38748 0.0
Co136 Co 0.02827 0.72773 0.61443 0.0
Co137 Co 0.03021 0.71622 0.66877 0.0
C138 C 0.10275 0.77575 0.64281 0.0
O139 O 0.0857 0.76539 0.62296 0.0
O140 O 0.08407 0.75973 0.66126 0.0
C141 C 0.03681 0.73889 0.56322 0.0
O142 O 0.07991 0.75679 0.56588 0.0
C143 C 0.07567 0.68167 0.71123 0.0
C144 C 0.01491 0.67783 0.73535 0.0
C145 C 0.06332 0.66837 0.73347 0.0
N146 N 0.03642 0.69828 0.70052 0.0
N147 N 0.00038 0.69655 0.71516 0.0
C148 C 0.1226 0.67435 0.69947 0.0
H149 H 0.11721 0.66967 0.68064 0.0
H150 H 0.14149 0.64291 0.70667 0.0
H151 H 0.14523 0.70647 0.70222 0.0
C152 C 0.0282 0.62308 0.6168 0.0
N153 N 0.03115 0.66618 0.627 0.0
N154 N 0.03091 0.66088 0.64954 0.0
C155 C 0.02741 0.61395 0.65436 0.0
C156 C 0.02595 0.58862 0.63377 0.0
C157 C 0.02536 0.61548 0.59131 0.0
H158 H 0.05309 0.63737 0.58266 0.0
H159 H 0.03034 0.57731 0.58669 0.0
H160 H 0.98991 0.62749 0.58503 0.0
O161 O 0.97199 0.76042 0.62649 0.0
O162 O 0.96927 0.75161 0.66439 0.0
H163 H 0.00567 0.55704 0.67739 0.0
H164 H 0.05387 0.59429 0.68755 0.0
C165 C 0.01953 0.59418 0.678 0.0
H166 H -0.00629 0.6168 0.68747 0.0
H167 H 0.96545 0.7065 0.7111 0.0
O168 O 0.0138 0.72475 0.58077 0.0
C169 C 0.95146 0.76743 0.64569 0.0
Co170 Co 0.25054 0.01431 0.60939 0.0
Co171 Co 0.27217 0.02932 0.66227 0.0
C172 C 0.20029 0.08877 0.63876 0.0
O173 O 0.20923 0.06856 0.61949 0.0
O174 O 0.22168 0.07647 0.65716 0.0
C175 C 0.2636 0.02591 0.55906 0.0
O176 O 0.29285 0.06154 0.56355 0.0
C177 C 0.30368 0.07481 0.70646 0.0
C178 C 0.33679 0.01301 0.72377 0.0
C179 C 0.32848 0.06152 0.72626 0.0
N180 N 0.29831 0.03595 0.69286 0.0
N181 N 0.31776 -0.00085 0.7035 0.0
C182 C 0.28378 0.12304 0.70093 0.0
H183 H 0.24677 0.11925 0.69436 0.0
H184 H 0.30545 0.13993 0.68721 0.0
H185 H 0.28349 0.14664 0.71633 0.0
C186 C 0.35573 0.00808 0.60936 0.0
N187 N 0.31415 0.02126 0.61903 0.0
N188 N 0.32208 0.03709 0.63998 0.0
C189 C 0.36945 0.04075 0.64326 0.0
C190 C 0.39316 0.02095 0.62425 0.0
C191 C 0.35715 0.97379 0.58947 0.0
H192 H 0.32278 0.95412 0.58812 0.0
H193 H 0.36227 -0.00624 0.5732 0.0
H194 H 0.38642 0.9475 0.59158 0.0
O195 O 0.22711 0.95645 0.62265 0.0
O196 O 0.24298 0.96262 0.66003 0.0
H197 H 0.39342 0.04083 0.67841 0.0
H198 H 0.42683 0.08019 0.65965 0.0
C199 C 0.39084 0.06584 0.66369 0.0
H200 H 0.36758 0.0959 0.66892 0.0
H201 H 0.31909 0.96464 0.69664 0.0
O202 O 0.244 0.00379 0.57562 0.0
C203 C 0.22705 0.93899 0.64274 0.0
Co204 Co 0.95505 0.25149 0.61456 0.0
Co205 Co 0.95828 0.26472 0.66892 0.0
C206 C 0.8822 0.20616 0.64502 0.0
O207 O 0.89762 0.21614 0.62492 0.0
O208 O 0.90303 0.22168 0.66309 0.0
C209 C 0.93928 0.26007 0.5631 0.0
O210 O 0.89804 0.28129 0.56634 0.0
C211 C 0.91759 0.30098 0.71235 0.0
C212 C 0.98174 0.30959 0.73417 0.0
C213 C 0.93293 0.31778 0.73367 0.0
N214 N 0.95567 0.28434 0.70069 0.0
N215 N -0.00628 0.28867 0.71406 0.0
C216 C 0.86878 0.30597 0.70212 0.0
H217 H 0.87054 0.30461 0.68303 0.0
H218 H 0.85208 0.33998 0.70776 0.0
H219 H 0.84605 0.27605 0.70819 0.0
C220 C 0.96514 0.35665 0.61657 0.0
N221 N 0.95684 0.31413 0.62665 0.0
N222 N 0.95737 0.31962 0.64924 0.0
C223 C 0.96536 0.36606 0.65414 0.0
C224 C 0.97087 0.39073 0.63368 0.0
C225 C 0.97418 0.36321 0.59138 0.0
H226 H -0.00164 0.33476 0.58505 0.0
H227 H 0.93983 0.36034 0.58194 0.0
H228 H 0.9903 0.39862 0.58771 0.0
O229 O 0.01178 0.2188 0.62572 0.0
O230 O 0.01884 0.22846 0.66349 0.0
H231 H 0.00026 0.36816 0.68699 0.0
H232 H 0.97725 0.42528 0.67781 0.0
C233 C 0.97048 0.38624 0.67796 0.0
H234 H 0.93706 0.37999 0.68762 0.0
H235 H 0.02828 0.27942 0.70903 0.0
O236 O 0.96423 0.24754 0.58037 0.0
C237 C 0.03465 0.21254 0.64435 0.0
Co238 Co 0.73778 0.96755 0.61098 0.0
Co239 Co 0.71318 0.95237 0.66342 0.0
C240 C 0.7875 0.89406 0.64115 0.0
O241 O 0.77949 0.91378 0.6217 0.0
O242 O 0.76432 0.90598 0.65906 0.0
C243 C 0.7213 0.95451 0.56143 0.0
O244 O 0.69026 0.92147 0.5673 0.0
C245 C 0.67964 0.90466 0.70606 0.0
C246 C 0.64676 0.96509 0.72472 0.0
C247 C 0.65441 0.91631 0.72591 0.0
N248 N 0.68576 0.94467 0.69354 0.0
N249 N 0.66639 0.98066 0.70495 0.0
C250 C 0.70009 0.85709 0.69962 0.0
H251 H 0.73939 0.86053 0.69826 0.0
H252 H 0.68658 0.84593 0.68245 0.0
H253 H 0.69186 0.82933 0.71262 0.0
C254 C 0.6326 0.97554 0.61014 0.0
N255 N 0.67361 0.9606 0.61986 0.0
N256 N 0.66469 0.94377 0.64045 0.0
C257 C 0.61718 0.94097 0.64328 0.0
C258 C 0.59448 0.96256 0.62447 0.0
C259 C 0.63248 0.01176 0.59117 0.0
H260 H 0.6675 0.03038 0.59042 0.0
H261 H 0.62677 -0.00633 0.57436 0.0
H262 H 0.60403 0.03872 0.59388 0.0
O263 O 0.75995 0.02605 0.62459 0.0
O264 O 0.74176 0.01937 0.66172 0.0
H265 H 0.59205 0.93899 0.67818 0.0
H266 H 0.55846 0.90168 0.65837 0.0
C267 C 0.59461 0.91497 0.66302 0.0
H268 H 0.61701 0.88404 0.66788 0.0
H269 H 0.66568 0.01581 0.69898 0.0
O270 O 0.74474 0.9763 0.57704 0.0
C271 C 0.7585 0.04329 0.6448 0.0
Co272 Co 0.52988 0.76062 0.91884 0.0
Co273 Co 0.52983 0.76632 0.86429 0.0
C274 C 0.59957 0.70542 0.89134 0.0
O275 O 0.58404 0.71859 0.91101 0.0
O276 O 0.58112 0.72103 0.87277 0.0
C277 C 0.52727 0.73519 0.96727 0.0
O278 O 0.54577 0.69453 0.96036 0.0
C279 C 0.57439 0.7973 0.82074 0.0
C280 C 0.51367 0.79366 0.79648 0.0
C281 C 0.56145 0.80653 0.79801 0.0
N282 N 0.53588 0.78061 0.83206 0.0
N283 N 0.49989 0.77797 0.81735 0.0
C284 C 0.62259 0.80372 0.83157 0.0
H285 H 0.62755 0.77805 0.84585 0.0
H286 H 0.62553 0.84025 0.8389 0.0
H287 H 0.65125 0.7989 0.81859 0.0
C288 C 0.53244 0.86446 0.91378 0.0
N289 N 0.53586 0.82043 0.90463 0.0
N290 N 0.53379 0.82326 0.882 0.0
C291 C 0.52803 0.86933 0.87606 0.0
C292 C 0.5272 0.89675 0.89599 0.0
C293 C 0.52651 0.87418 0.93899 0.0
H294 H 0.49187 0.85912 0.94479 0.0
H295 H 0.55542 0.85615 0.94873 0.0
H296 H 0.52716 0.91299 0.94289 0.0
O297 O 0.47052 0.73067 0.9082 0.0
O298 O 0.46703 0.73523 0.87007 0.0
H299 H 0.49002 0.86365 0.84404 0.0
H300 H 0.50728 0.92413 0.85153 0.0
C301 C 0.51827 0.88614 0.85202 0.0
H302 H 0.55114 0.88267 0.84161 0.0
H303 H 0.46554 0.76657 0.8217 0.0
O304 O 0.52024 0.76817 0.95267 0.0
C305 C 0.44869 0.72322 0.88931 0.0
Co306 Co 0.23508 0.52247 0.92016 0.0
Co307 Co 0.22269 0.52933 0.86577 0.0
C308 C 0.28414 0.59808 0.89306 0.0
O309 O 0.2741 0.57915 0.91244 0.0
O310 O 0.26683 0.58187 0.87425 0.0
C311 C 0.23565 0.53558 0.9712 0.0
O312 O 0.23894 0.58186 0.96787 0.0
C313 C 0.18883 0.57531 0.82299 0.0
C314 C 0.18096 0.51321 0.7997 0.0
C315 C 0.17347 0.56204 0.80108 0.0
N316 N 0.20438 0.53604 0.83402 0.0
N317 N 0.20042 0.49925 0.8198 0.0
C318 C 0.1837 0.62312 0.8343 0.0
H319 H 0.18057 0.61901 0.85326 0.0
H320 H 0.15212 0.64234 0.82744 0.0
H321 H 0.21607 0.64478 0.8307 0.0
C322 C 0.13067 0.52001 0.9176 0.0
N323 N 0.17343 0.52701 0.90764 0.0
N324 N 0.16797 0.52923 0.8851 0.0
C325 C 0.12134 0.52371 0.88006 0.0
C326 C 0.09651 0.51731 0.90043 0.0
C327 C 0.12396 0.50922 0.94261 0.0
H328 H 0.14389 0.47627 0.94702 0.0
H329 H 0.13886 0.53898 0.95307 0.0
H330 H 0.08574 0.50418 0.94702 0.0
O331 O 0.26568 0.4662 0.90705 0.0
O332 O 0.2569 0.46761 0.86909 0.0
H333 H 0.11922 0.49145 0.84656 0.0
H334 H 0.06218 0.51417 0.85617 0.0
C335 C 0.10129 0.52063 0.85615 0.0
H336 H 0.108 0.55471 0.84711 0.0
H337 H 0.20902 0.46415 0.8242 0.0
O338 O 0.23345 0.50781 0.95385 0.0
C339 C 0.27195 0.4474 0.88734 0.0
Co340 Co 0.46892 0.2315 0.91603 0.0
Co341 Co 0.46552 0.21933 0.86171 0.0
C342 C 0.39813 0.28378 0.88801 0.0
O343 O 0.41493 0.27257 0.90769 0.0
O344 O 0.41511 0.26611 0.86953 0.0
C345 C 0.45272 0.23112 0.96671 0.0
O346 O 0.40658 0.22746 0.96288 0.0
C347 C 0.41666 0.18216 0.82036 0.0
C348 C 0.47357 0.18485 0.79411 0.0
C349 C 0.4266 0.17083 0.79751 0.0
N350 N 0.45622 0.20097 0.83006 0.0
N351 N 0.48994 0.20294 0.81419 0.0
C352 C 0.37001 0.17708 0.83269 0.0
H353 H 0.37211 0.14675 0.84489 0.0
H354 H 0.34013 0.17095 0.82042 0.0
H355 H 0.36286 0.20973 0.84297 0.0
C356 C 0.46463 0.12703 0.91372 0.0
N357 N 0.46159 0.17006 0.90365 0.0
N358 N 0.46206 0.16467 0.88107 0.0
C359 C 0.46614 0.11784 0.87613 0.0
C360 C 0.46744 0.09269 0.89662 0.0
C361 C 0.46948 0.11954 0.93913 0.0
H362 H 0.43919 0.13699 0.94806 0.0
H363 H 0.46987 0.081 0.94354 0.0
H364 H 0.50302 0.13656 0.94529 0.0
O365 O 0.5276 0.25878 0.90364 0.0
O366 O 0.5291 0.25063 0.86559 0.0
H367 H 0.49361 0.06243 0.85356 0.0
H368 H 0.44335 0.09509 0.84268 0.0
C369 C 0.47699 0.09831 0.85264 0.0
H370 H 0.50146 0.12279 0.84341 0.0
H371 H 0.52445 0.21581 0.81718 0.0
O372 O 0.48142 0.23168 0.9498 0.0
C373 C 0.54855 0.26402 0.88444 0.0
Co374 Co 0.76172 0.46168 0.91917 0.0
Co375 Co 0.77356 0.46094 0.86468 0.0
C376 C 0.71121 0.39018 0.89017 0.0
O377 O 0.72161 0.40632 0.91019 0.0
O378 O 0.72841 0.40867 0.87193 0.0
C379 C 0.7354 0.46784 0.96838 0.0
O380 O 0.69395 0.44927 0.96253 0.0
C381 C 0.80975 0.41622 0.82221 0.0
C382 C 0.81401 0.47752 0.79848 0.0
C383 C 0.82459 0.42932 0.80031 0.0
N384 N 0.79177 0.45496 0.8329 0.0
N385 N 0.79363 0.49128 0.81843 0.0
C386 C 0.81717 0.36906 0.83368 0.0
H387 H 0.81393 0.37267 0.85267 0.0
H388 H 0.85275 0.35438 0.82916 0.0
H389 H 0.78961 0.34354 0.82743 0.0
C390 C 0.86593 0.45653 0.91659 0.0
N391 N 0.82283 0.45591 0.90637 0.0
N392 N 0.82831 0.45738 0.88385 0.0
C393 C 0.87531 0.45979 0.87909 0.0
C394 C 0.90041 0.45889 0.89967 0.0
C395 C 0.87378 0.45798 0.94209 0.0
H396 H 0.85031 0.43138 0.95058 0.0
H397 H 0.91159 0.45043 0.94654 0.0
H398 H 0.86432 0.49398 0.94866 0.0
O399 O 0.73165 0.52013 0.90763 0.0
O400 O 0.74072 0.52294 0.8697 0.0
H401 H 0.9323 0.48453 0.8568 0.0
H402 H 0.89668 0.43623 0.8456 0.0
C403 C 0.89551 0.46988 0.85571 0.0
H404 H 0.87264 0.49588 0.84654 0.0
H405 H 0.78292 0.52598 0.82254 0.0
O406 O 0.76757 0.47278 0.95314 0.0
C407 C 0.72569 0.54122 0.88847 0.0
Co408 Co 0.51269 0.22684 0.11087 0.0
Co409 Co 0.52121 0.21401 0.16504 0.0
C410 C 0.58236 0.28386 0.13839 0.0
O411 O 0.56421 0.27171 0.11907 0.0
O412 O 0.56873 0.26452 0.15714 0.0
C413 C 0.52417 0.24284 0.06121 0.0
O414 O 0.5632 0.2664 0.0667 0.0
C415 C 0.5716 0.1812 0.20714 0.0
C416 C 0.51164 0.1726 0.23137 0.0
C417 C 0.56066 0.1663 0.22947 0.0
N418 N 0.53096 0.19483 0.19654 0.0
N419 N 0.4954 0.19001 0.21126 0.0
C420 C 0.61967 0.18324 0.19595 0.0
H421 H 0.6202 0.21057 0.1822 0.0
H422 H 0.62752 0.14818 0.18785 0.0
H423 H 0.64786 0.19149 0.20885 0.0
C424 C 0.52448 0.12346 0.11205 0.0
N425 N 0.52503 0.16615 0.12268 0.0
N426 N 0.52697 0.15994 0.14514 0.0
C427 C 0.52701 0.11267 0.14948 0.0
C428 C 0.52566 0.0882 0.12863 0.0
C429 C 0.51845 0.11674 0.08662 0.0
H430 H 0.54391 0.14021 0.07736 0.0
H431 H 0.52466 0.07905 0.08144 0.0
H432 H 0.48167 0.1272 0.08159 0.0
O433 O 0.45332 0.25087 0.12394 0.0
O434 O 0.45599 0.24228 0.16189 0.0
H435 H 0.4924 0.11162 0.18239 0.0
H436 H 0.50974 0.0534 0.17209 0.0
C437 C 0.52032 0.09157 0.17295 0.0
H438 H 0.55427 0.09442 0.18271 0.0
H439 H 0.45977 0.19757 0.20739 0.0
O440 O 0.49977 0.2236 0.07712 0.0
C441 C 0.43419 0.25538 0.14365 0.0
Co442 Co 0.75092 0.52686 0.11276 0.0
Co443 Co 0.76116 0.5261 0.16741 0.0
C444 C 0.70487 0.60099 0.14123 0.0
O445 O 0.71604 0.5852 0.12133 0.0
O446 O 0.71903 0.5804 0.15952 0.0
C447 C 0.7597 0.54177 0.06198 0.0
O448 O 0.77419 0.58567 0.06607 0.0
C449 C 0.79416 0.57391 0.20991 0.0
C450 C 0.80368 0.51363 0.23388 0.0
C451 C 0.81066 0.56249 0.23185 0.0
N452 N 0.77968 0.53348 0.19929 0.0
N453 N 0.78469 0.49773 0.2139 0.0
C454 C 0.79106 0.62238 0.19919 0.0
H455 H 0.75426 0.62832 0.19276 0.0
H456 H 0.81549 0.62412 0.18418 0.0
H457 H 0.79983 0.65117 0.21168 0.0
C458 C 0.85572 0.51963 0.11606 0.0
N459 N 0.81251 0.52614 0.12568 0.0
N460 N 0.81678 0.52548 0.14832 0.0
C461 C 0.86307 0.51875 0.15374 0.0
C462 C 0.88899 0.51475 0.13354 0.0
C463 C 0.86386 0.51224 0.09082 0.0
H464 H 0.83828 0.48523 0.08412 0.0
H465 H 0.85736 0.54631 0.08167 0.0
H466 H 0.90081 0.50019 0.08717 0.0
O467 O 0.71639 0.47225 0.12492 0.0
O468 O 0.72418 0.46535 0.16273 0.0
H469 H 0.8634 0.48443 0.18663 0.0
H470 H 0.92101 0.5078 0.17814 0.0
C471 C 0.88195 0.51419 0.17778 0.0
H472 H 0.87491 0.5477 0.18733 0.0
H473 H 0.77672 0.46217 0.20995 0.0
O474 O 0.74962 0.51455 0.07877 0.0
C475 C 0.70813 0.44993 0.14347 0.0
Co476 Co 0.46321 0.75221 0.1113 0.0
Co477 Co 0.45772 0.77015 0.16523 0.0
C478 C 0.39331 0.70006 0.14044 0.0
O479 O 0.40977 0.71008 0.12055 0.0
O480 O 0.40947 0.72039 0.15848 0.0
C481 C 0.45007 0.75434 0.0601 0.0
O482 O 0.40545 0.76749 0.06296 0.0
C483 C 0.40669 0.80635 0.20606 0.0
C484 C 0.46572 0.81957 0.23057 0.0
C485 C 0.41686 0.82512 0.22776 0.0
N486 N 0.44785 0.79199 0.19629 0.0
N487 N 0.48285 0.7993 0.21121 0.0
C488 C 0.35883 0.80127 0.19473 0.0
H489 H 0.35572 0.76563 0.18654 0.0
H490 H 0.35542 0.82834 0.1809 0.0
H491 H 0.32939 0.80565 0.20732 0.0
C492 C 0.46202 0.85732 0.11128 0.0
N493 N 0.45542 0.81523 0.12201 0.0
N494 N 0.453 0.82261 0.14444 0.0
C495 C 0.45739 0.86976 0.14857 0.0
C496 C 0.4635 0.89303 0.12779 0.0
C497 C 0.47511 0.86221 0.08642 0.0
H498 H 0.50486 0.83757 0.08227 0.0
H499 H 0.44391 0.85221 0.07564 0.0
H500 H 0.48587 0.89932 0.08214 0.0
O501 O 0.52209 0.72824 0.12478 0.0
O502 O 0.52256 0.74111 0.16254 0.0
H503 H 0.4919 0.87471 0.18146 0.0
H504 H 0.46831 0.93082 0.17123 0.0
C505 C 0.46199 0.89173 0.17205 0.0
H506 H 0.42855 0.88573 0.18175 0.0
H507 H 0.51871 0.79179 0.2079 0.0
O508 O 0.47652 0.74776 0.07761 0.0
C509 C 0.54282 0.72624 0.14422 0.0
Co510 Co 0.22608 0.45863 0.11435 0.0
Co511 Co 0.21487 0.45714 0.16881 0.0
C512 C 0.27311 0.38389 0.14233 0.0
O513 O 0.2631 0.40108 0.12254 0.0
O514 O 0.25707 0.40275 0.16077 0.0
C515 C 0.23645 0.44993 0.06311 0.0
O516 O 0.2536 0.40663 0.06572 0.0
C517 C 0.18008 0.4121 0.21149 0.0
C518 C 0.17706 0.47336 0.23551 0.0
C519 C 0.16701 0.42498 0.23376 0.0
N520 N 0.19706 0.45106 0.20066 0.0
N521 N 0.19584 0.48737 0.21527 0.0
C522 C 0.17233 0.36492 0.19988 0.0
H523 H 0.1678 0.36986 0.18103 0.0
H524 H 0.14068 0.34638 0.20714 0.0
H525 H 0.2042 0.34219 0.20273 0.0
C526 C 0.12174 0.4594 0.11702 0.0
N527 N 0.16478 0.4561 0.12715 0.0
N528 N 0.15962 0.45707 0.1497 0.0
C529 C 0.11286 0.46157 0.1546 0.0
C530 C 0.08752 0.46309 0.13407 0.0
C531 C 0.11404 0.46096 0.09151 0.0
H532 H 0.13537 0.43248 0.0831 0.0
H533 H 0.07575 0.45625 0.08703 0.0
H534 H 0.12668 0.49588 0.08485 0.0
O535 O 0.25927 0.51465 0.1266 0.0
O536 O 0.25102 0.51793 0.16452 0.0
H537 H 0.05646 0.4842 0.17777 0.0
H538 H 0.09332 0.43599 0.18792 0.0
C539 C 0.09344 0.47011 0.17828 0.0
H540 H 0.11649 0.496 0.18761 0.0
H541 H 0.20616 0.52217 0.21113 0.0
O542 O 0.22291 0.4733 0.08072 0.0
C543 C 0.2667 0.53547 0.14575 0.0
C544 C 0.95412 0.51007 0.41352 0.0
C545 C 0.98198 0.54616 0.40357 0.0
C546 C 0.97033 0.46282 0.41381 0.0
C547 C 0.01473 0.45078 0.40417 0.0
H548 H 0.9191 0.51819 0.42038 0.0
H549 H 0.94727 0.4353 0.42077 0.0
S550 S 0.10252 0.53335 0.37813 0.0
N551 N 0.05726 0.56783 0.38557 0.0
N552 N 0.0874 0.4786 0.38583 0.0
C553 C 0.04363 0.4869 0.39507 0.0
C554 C 0.02732 0.53487 0.39488 0.0
C555 C 0.52509 0.97414 0.40463 0.0
C556 C 0.53833 0.01819 0.39502 0.0
C557 C 0.47765 0.95849 0.40368 0.0
C558 C 0.44244 0.98663 0.3932 0.0
H559 H 0.55179 0.95113 0.41228 0.0
H560 H 0.46855 0.92391 0.4108 0.0
S561 S 0.45889 0.10627 0.36718 0.0
N562 N 0.51297 0.09043 0.3756 0.0
N563 N 0.42314 0.0618 0.3745 0.0
C564 C 0.45507 0.03145 0.38426 0.0
C565 C 0.50336 0.04705 0.38498 0.0
C566 C 0.95933 0.47438 0.62042 0.0
C567 C 0.98826 0.44002 0.63107 0.0
C568 C 0.97288 0.52261 0.62037 0.0
C569 C 0.01565 0.53743 0.63095 0.0
H570 H 0.92529 0.46418 0.61295 0.0
H571 H 0.94888 0.54866 0.61292 0.0
S572 S 0.1062 0.46024 0.65852 0.0
N573 N 0.06345 0.42305 0.65033 0.0
N574 N 0.08854 0.51396 0.65053 0.0
C575 C 0.04591 0.50305 0.64055 0.0
C576 C 0.03232 0.45411 0.64049 0.0
C577 C 0.51797 0.98617 0.64362 0.0
C578 C 0.54311 0.97729 0.62313 0.0
C579 C 0.46965 -0.00249 0.64356 0.0
C580 C 0.44487 0.00739 0.62305 0.0
H581 H 0.5352 0.98453 0.66021 0.0
H582 H 0.4521 -0.00192 0.66005 0.0
S583 S 0.4948 -0.0053 0.56407 0.0
N584 N 0.53782 0.97589 0.58123 0.0
N585 N 0.4513 0.01214 0.58126 0.0
C586 C 0.47029 0.00212 0.60223 0.0
C587 C 0.51828 0.98427 0.60223 0.0
C588 C 0.46537 0.95904 0.89066 0.0
C589 C 0.51144 0.94645 0.89806 0.0
C590 C 0.45063 0.00666 0.89101 0.0
C591 C 0.48131 0.04261 0.89915 0.0
H592 H 0.4411 0.932 0.88409 0.0
H593 H 0.41551 0.01562 0.88446 0.0
S594 S 0.60483 0.0276 0.92086 0.0
N595 N 0.58718 0.97294 0.91407 0.0
N596 N 0.55923 0.06291 0.91497 0.0
C597 C 0.5269 0.03031 0.90721 0.0
C598 C 0.54202 0.9819 0.90667 0.0
C599 C 0.96498 0.51268 0.9135 0.0
C600 C 0.95119 0.4698 0.9027 0.0
C601 C 0.01279 0.52726 0.91348 0.0
C602 C 0.04764 0.49921 0.90267 0.0
H603 H 0.93841 0.53599 0.92107 0.0
H604 H 0.02231 0.56133 0.92115 0.0
S605 S 0.03001 0.38173 0.8743 0.0
N606 N 0.97595 0.39801 0.8825 0.0
N607 N 0.0663 0.42499 0.88281 0.0
C608 C 0.03459 0.45512 0.89294 0.0
C609 C 0.98605 0.4405 0.89283 0.0
C610 C 0.45358 0.97738 0.11572 0.0
C611 C 0.48256 0.94146 0.12496 0.0
C612 C 0.46888 0.025 0.11595 0.0
C613 C 0.51348 0.03761 0.1254 0.0
H614 H 0.41825 0.96885 0.10922 0.0
H615 H 0.44487 0.05234 0.10967 0.0
S616 S 0.60395 0.95569 0.14957 0.0
N617 N 0.55898 0.92057 0.14205 0.0
N618 N 0.58757 0.01048 0.14266 0.0
C619 C 0.54358 0.00166 0.13364 0.0
C620 C 0.52815 0.95331 0.13332 0.0
C621 C 0.95406 0.45677 0.14101 0.0
C622 C 0.9391 0.50019 0.13136 0.0
C623 C 0.00231 0.44414 0.14109 0.0
C624 C 0.0367 0.4744 0.13133 0.0
H625 H 0.92841 0.43307 0.14904 0.0
H626 H 0.01299 0.41111 0.14929 0.0
S627 S 0.01526 0.59126 0.10344 0.0
N628 N 0.96166 0.57277 0.11135 0.0
N629 N 0.05282 0.54901 0.11147 0.0
C630 C 0.02199 0.51715 0.12098 0.0
C631 C 0.97289 0.53005 0.12096 0.0
C632 C 0.07165 0.38841 0.27658 0.0
C633 C 0.08833 0.3445 0.28506 0.0
C634 C 0.09765 0.41421 0.26013 0.0
C635 C 0.14069 0.39648 0.2511 0.0
H636 H 0.03846 0.40325 0.28293 0.0
H637 H 0.08362 0.44806 0.25421 0.0
S638 S 0.19949 0.28294 0.26735 0.0
N639 N 0.15051 0.28426 0.28318 0.0
N640 N 0.1991 0.33249 0.25195 0.0
C641 C 0.15765 0.35246 0.25928 0.0
C642 C 0.13155 0.32654 0.27637 0.0
C643 C 0.63145 0.11621 0.24169 0.0
C644 C 0.59191 0.14478 0.24761 0.0
C645 C 0.65874 0.09292 0.25858 0.0
C646 C 0.64755 0.09675 0.28213 0.0
H647 H 0.64053 0.10986 0.22387 0.0
H648 H 0.68841 0.07088 0.2531 0.0
S649 S 0.54476 0.16299 0.3068 0.0
N650 N 0.54206 0.17397 0.27891 0.0
N651 N 0.59148 0.12797 0.31032 0.0
C652 C 0.60756 0.12428 0.28832 0.0
C653 C 0.5802 0.14864 0.27116 0.0
C654 C 0.82482 0.58921 0.27253 0.0
C655 C 0.83592 0.59312 0.249 0.0
C656 C 0.85025 0.61517 0.28935 0.0
C657 C 0.88778 0.64637 0.28331 0.0
H658 H 0.79665 0.56526 0.27805 0.0
H659 H 0.84147 0.60897 0.3072 0.0
S660 S 0.9339 0.66593 0.2241 0.0
N661 N 0.88974 0.62738 0.22068 0.0
N662 N 0.93578 0.67801 0.25195 0.0
C663 C 0.89945 0.65017 0.25977 0.0
C664 C 0.87396 0.62325 0.24271 0.0
C665 C 0.39006 0.84096 0.26805 0.0
C666 C 0.38497 0.84987 0.24435 0.0
C667 C 0.36318 0.86609 0.28444 0.0
C668 C 0.32961 0.90089 0.27783 0.0
H669 H 0.41571 0.81484 0.27402 0.0
H670 H 0.37037 0.8593 0.30244 0.0
S671 S 0.30628 0.94132 0.21803 0.0
N672 N 0.34712 0.89929 0.21521 0.0
N673 N 0.2947 0.94462 0.24587 0.0
C674 C 0.32465 0.91059 0.25416 0.0
C675 C 0.35258 0.88546 0.23747 0.0
C676 C 0.1021 0.57349 0.77597 0.0
C677 C 0.14638 0.59057 0.78405 0.0
C678 C 0.07537 0.59927 0.7598 0.0
C679 C 0.09248 0.6425 0.75069 0.0
H680 H 0.08771 0.54014 0.78241 0.0
H681 H 0.04132 0.58489 0.75413 0.0
S682 S 0.20653 0.70238 0.76598 0.0
N683 N 0.20627 0.65329 0.78171 0.0
N684 N 0.15618 0.7016 0.75107 0.0
C685 C 0.1368 0.6599 0.75851 0.0
C686 C 0.16371 0.63397 0.77528 0.0
C687 C 0.39482 0.16154 0.75743 0.0
C688 C 0.39671 0.14513 0.7803 0.0
C689 C 0.37081 0.13549 0.74019 0.0
C690 C 0.34809 0.0918 0.74514 0.0
H691 H 0.41288 0.19436 0.75273 0.0
H692 H 0.37198 0.14866 0.72268 0.0
S693 S 0.34436 0.03211 0.80209 0.0
N694 N 0.37511 0.08161 0.80678 0.0
N695 N 0.32941 0.03314 0.77455 0.0
C696 C 0.34953 0.07517 0.76798 0.0
C697 C 0.37385 0.10173 0.78552 0.0
C698 C 0.83622 0.3558 0.77599 0.0
C699 C 0.85254 0.40082 0.78352 0.0
C700 C 0.86208 0.32913 0.75965 0.0
C701 C 0.90561 0.34616 0.75075 0.0
H702 H 0.8029 0.34148 0.78247 0.0
H703 H 0.84824 0.29476 0.75414 0.0
S704 S 0.96403 0.46153 0.76525 0.0
N705 N 0.91482 0.46113 0.7809 0.0
N706 N 0.96383 0.41069 0.75072 0.0
C707 C 0.92247 0.39084 0.75838 0.0
C708 C 0.89577 0.4183 0.7746 0.0
C709 C 0.6185 0.87025 0.78479 0.0
C710 C 0.5892 0.83068 0.77956 0.0
C711 C 0.6407 0.89676 0.76732 0.0
C712 C 0.63476 0.88458 0.74397 0.0
H713 H 0.62266 0.88237 0.8024 0.0
H714 H 0.66193 0.92768 0.77209 0.0
S715 S 0.56025 0.78554 0.72096 0.0
N716 N 0.55503 0.78112 0.74921 0.0
N717 N 0.596 0.83156 0.71643 0.0
C718 C 0.60575 0.84511 0.73845 0.0
C719 C 0.5831 0.81812 0.75623 0.0
C720 C 0.1401 0.14771 0.37093 0.0
C721 C 0.13146 0.17029 0.39228 0.0
C722 C 0.16969 0.10753 0.36929 0.0
C723 C 0.19188 0.08838 0.38893 0.0
H724 H 0.12241 0.1599 0.35542 0.0
H725 H 0.17365 0.09035 0.35265 0.0
S726 S 0.18689 0.13856 0.44834 0.0
N727 N 0.15174 0.17353 0.43305 0.0
N728 N 0.20754 0.09845 0.43003 0.0
C729 C 0.18594 0.11242 0.41015 0.0
C730 C 0.15571 0.15322 0.41181 0.0
C731 C 0.88237 0.17878 0.37094 0.0
C732 C 0.89823 0.20177 0.39113 0.0
C733 C 0.84269 0.14819 0.37127 0.0
C734 C 0.81738 0.13939 0.3918 0.0
H735 H 0.90197 0.18265 0.35497 0.0
H736 H 0.83318 0.12975 0.35546 0.0
S737 S 0.83956 0.19737 0.44849 0.0
N738 N 0.88189 0.21848 0.43159 0.0
N739 N 0.80762 0.16087 0.4322 0.0
C740 C 0.83092 0.16474 0.41175 0.0
C741 C 0.87124 0.19593 0.41141 0.0
C742 C 0.84187 0.84643 0.37112 0.0
C743 C 0.85135 0.82339 0.3922 0.0
C744 C 0.81178 0.8863 0.37 0.0
C745 C 0.78985 0.90464 0.38992 0.0
H746 H 0.85934 0.83488 0.35543 0.0
H747 H 0.80723 0.9039 0.35355 0.0
S748 S 0.79695 0.85278 0.44878 0.0
N749 N 0.83213 0.8187 0.43299 0.0
N750 N 0.77536 0.89318 0.43096 0.0
C751 C 0.79661 0.88005 0.41087 0.0
C752 C 0.82738 0.83959 0.41199 0.0
C753 C 0.09867 0.81621 0.3669 0.0
C754 C 0.08504 0.79103 0.38672 0.0
C755 C 0.13851 0.84665 0.36721 0.0
C756 C 0.16607 0.853 0.38738 0.0
H757 H 0.07707 0.81437 0.3514 0.0
H758 H 0.14627 0.86707 0.35184 0.0
S759 S 0.15043 0.78806 0.44252 0.0
N760 N 0.10609 0.76914 0.42605 0.0
N761 N 0.18057 0.82651 0.42666 0.0
C762 C 0.15486 0.8252 0.40675 0.0
C763 C 0.11447 0.79418 0.40642 0.0
C764 C 0.17642 0.88066 0.66451 0.0
C765 C 0.2048 0.89137 0.64528 0.0
C766 C 0.14554 0.84101 0.66421 0.0
C767 C 0.14196 0.81112 0.64464 0.0
H768 H 0.17551 0.90478 0.67914 0.0
H769 H 0.12213 0.83565 0.67882 0.0
S770 S 0.21637 0.81835 0.592 0.0
N771 N 0.23327 0.86457 0.60779 0.0
N772 N 0.17482 0.79083 0.60716 0.0
C773 C 0.17333 0.81913 0.62623 0.0
C774 C 0.20492 0.85904 0.62661 0.0
C775 C 0.13917 0.13394 0.6615 0.0
C776 C 0.16161 0.12465 0.64022 0.0
C777 C 0.09907 0.16374 0.66295 0.0
C778 C 0.08 0.1854 0.64317 0.0
H779 H 0.15152 0.11669 0.67709 0.0
H780 H 0.08198 0.16842 0.67953 0.0
S781 S 0.13013 0.17858 0.58391 0.0
N782 N 0.16487 0.1436 0.59941 0.0
N783 N 0.09005 0.19982 0.60202 0.0
C784 C 0.10384 0.17857 0.622 0.0
C785 C 0.14446 0.14815 0.62055 0.0
C786 C 0.81015 0.10074 0.66678 0.0
C787 C 0.7799 0.09112 0.64799 0.0
C788 C 0.84098 0.14045 0.66651 0.0
C789 C 0.84259 0.17142 0.64739 0.0
H790 H 0.8127 0.07562 0.68088 0.0
H791 H 0.86604 0.14486 0.68061 0.0
S792 S 0.76265 0.16727 0.5964 0.0
N793 N 0.7475 0.12001 0.6117 0.0
N794 N 0.80568 0.19402 0.6111 0.0
C795 C 0.80918 0.16459 0.62961 0.0
C796 C 0.77772 0.12459 0.62996 0.0
C797 C 0.88494 0.80706 0.62447 0.0
C798 C 0.90698 0.79609 0.64567 0.0
C799 C 0.84567 0.83766 0.62328 0.0
C800 C 0.8265 0.85857 0.64324 0.0
H801 H 0.8986 0.7926 0.60845 0.0
H802 H 0.8307 0.84549 0.60648 0.0
S803 S 0.86964 0.84017 0.70322 0.0
N804 N 0.90552 0.80722 0.68723 0.0
N805 N 0.83184 0.86516 0.68507 0.0
C806 C 0.84716 0.84679 0.66469 0.0
C807 C 0.88729 0.81545 0.66589 0.0
C808 C 0.65148 0.6448 0.91031 0.0
C809 C 0.63679 0.66786 0.89004 0.0
C810 C 0.68156 0.60512 0.90955 0.0
C811 C 0.69839 0.58659 0.88846 0.0
H812 H 0.6384 0.65632 0.92698 0.0
H813 H 0.69046 0.58808 0.92572 0.0
S814 S 0.67566 0.63764 0.83052 0.0
N815 N 0.64519 0.67213 0.84829 0.0
N816 N 0.70172 0.59723 0.84689 0.0
C817 C 0.68625 0.61088 0.8681 0.0
C818 C 0.6555 0.65153 0.86888 0.0
C819 C 0.38408 0.67576 0.86998 0.0
C820 C 0.40242 0.69746 0.89001 0.0
C821 C 0.34406 0.64572 0.87094 0.0
C822 C 0.32092 0.63613 0.89198 0.0
H823 H 0.40192 0.68022 0.85358 0.0
H824 H 0.33269 0.62815 0.85519 0.0
S825 S 0.34971 0.69091 0.9487 0.0
N826 N 0.3905 0.71236 0.93103 0.0
N827 N 0.31563 0.65563 0.93278 0.0
C828 C 0.33685 0.66028 0.91185 0.0
C829 C 0.37749 0.69099 0.91088 0.0
C830 C 0.34191 0.33986 0.90719 0.0
C831 C 0.36085 0.32113 0.88667 0.0
C832 C 0.31174 0.37938 0.90697 0.0
C833 C 0.29912 0.40213 0.88623 0.0
H834 H 0.35153 0.32488 0.92374 0.0
H835 H 0.29936 0.3929 0.92341 0.0
S836 S 0.33405 0.36353 0.8274 0.0
N837 N 0.36109 0.32547 0.84471 0.0
N838 N 0.30425 0.40025 0.84438 0.0
C839 C 0.31536 0.38214 0.86542 0.0
C840 C 0.34623 0.34156 0.86562 0.0
C841 C 0.6481 0.34809 0.86724 0.0
C842 C 0.67489 0.35205 0.88777 0.0
C843 C 0.60876 0.31717 0.86566 0.0
C844 C 0.59499 0.28916 0.88454 0.0
H845 H 0.65597 0.37078 0.85265 0.0
H846 H 0.58754 0.31725 0.85003 0.0
S847 S 0.65925 0.27896 0.94038 0.0
N848 N 0.68904 0.32025 0.92609 0.0
N849 N 0.61543 0.26187 0.92313 0.0
C850 C 0.62381 0.28994 0.90448 0.0
C851 C 0.66367 0.32148 0.90611 0.0
C852 C 0.63466 0.34096 0.16063 0.0
C853 C 0.61764 0.32361 0.13927 0.0
C854 C 0.66463 0.3812 0.16195 0.0
C855 C 0.67878 0.40567 0.14196 0.0
H856 H 0.62398 0.32401 0.17656 0.0
H857 H 0.67599 0.39366 0.17878 0.0
S858 S 0.64696 0.37271 0.08154 0.0
N859 N 0.61947 0.33277 0.09758 0.0
N860 N 0.67541 0.40772 0.0999 0.0
C861 C 0.66325 0.38766 0.12041 0.0
C862 C 0.63285 0.34685 0.11911 0.0
C863 C 0.60406 0.67694 0.16454 0.0
C864 C 0.59001 0.70289 0.14503 0.0
C865 C 0.64352 0.64626 0.16365 0.0
C866 C 0.6701 0.64051 0.1432 0.0
H867 H 0.58274 0.6779 0.18009 0.0
H868 H 0.65132 0.62479 0.17868 0.0
S869 S 0.65391 0.70876 0.08906 0.0
N870 N 0.61025 0.72706 0.10596 0.0
N871 N 0.68406 0.66923 0.10427 0.0
C872 C 0.65896 0.66968 0.1243 0.0
C873 C 0.61899 0.70093 0.12523 0.0
C874 C 0.30867 0.59983 0.12412 0.0
C875 C 0.29529 0.58019 0.1455 0.0
C876 C 0.33886 0.63946 0.12276 0.0
C877 C 0.35713 0.66148 0.14272 0.0
H878 H 0.29655 0.58396 0.10808 0.0
H879 H 0.34875 0.65216 0.10581 0.0
S880 S 0.32982 0.62684 0.20312 0.0
N881 N 0.30014 0.58778 0.1872 0.0
N882 N 0.35707 0.66255 0.18476 0.0
C883 C 0.34244 0.64363 0.16432 0.0
C884 C 0.31152 0.60299 0.16568 0.0
C885 C 0.32524 0.32305 0.12364 0.0
C886 C 0.30808 0.34425 0.14396 0.0
C887 C 0.36403 0.29185 0.12405 0.0
C888 C 0.38767 0.28056 0.1448 0.0
H889 H 0.30999 0.3321 0.10705 0.0
H890 H 0.37682 0.27821 0.1077 0.0
S891 S 0.3516 0.31978 0.20336 0.0
N892 N 0.3136 0.34661 0.18591 0.0
N893 N 0.3871 0.28813 0.18656 0.0
C894 C 0.36849 0.29826 0.1655 0.0
C895 C 0.3286 0.33006 0.1651 0.0
C896 C 0.96413 0.27774 0.49919 0.0
C897 C -0.00441 0.24007 0.49387 0.0
C898 C 0.94541 0.28348 0.52148 0.0
C899 C 0.95825 0.25245 0.53946 0.0
H900 H 0.95308 0.30249 0.48591 0.0
H901 H 0.92119 0.31287 0.5247 0.0
S902 S 0.04017 0.1487 0.53472 0.0
N903 N 0.03882 0.17135 0.50849 0.0
N904 N 0.0048 0.18281 0.55044 0.0
C905 C 0.99019 0.21502 0.53444 0.0
C906 C 0.0085 0.20864 0.51165 0.0
C907 C 0.77093 0.98863 0.5296 0.0
C908 C 0.72748 0.96845 0.53697 0.0
C909 C 0.77764 0.00268 0.50663 0.0
C910 C 0.74082 -0.00188 0.49022 0.0
H911 H 0.80028 -0.00685 0.54162 0.0
H912 H 0.81191 0.01758 0.50177 0.0
S913 S 0.61969 0.94849 0.50085 0.0
N914 N 0.64684 0.94507 0.52606 0.0
N915 N 0.65914 0.97205 0.48307 0.0
C916 C 0.69699 0.97847 0.49744 0.0
C917 C 0.69042 0.96343 0.52074 0.0
C918 C 0.04157 0.74206 0.52002 0.0
C919 C 0.0138 0.73718 0.54005 0.0
C920 C 0.02057 0.74135 0.49802 0.0
C921 C 0.97076 0.7364 0.49507 0.0
H922 H 0.07996 0.74631 0.52129 0.0
H923 H 0.04371 0.7453 0.4832 0.0
S924 S 0.88177 0.72272 0.54194 0.0
N925 N 0.93353 0.72713 0.55545 0.0
N926 N 0.89425 0.72635 0.51422 0.0
C927 C 0.94252 0.73154 0.51495 0.0
C928 C 0.96396 0.73174 0.53736 0.0
C929 C 0.28601 0.0244 0.51725 0.0
C930 C 0.25498 0.00989 0.53495 0.0
C931 C 0.27915 0.0091 0.49442 0.0
C932 C 0.24055 0.97925 0.48829 0.0
H933 H 0.31613 0.04752 0.52103 0.0
H934 H 0.30389 0.02153 0.48141 0.0
S935 S 0.14937 0.93023 0.5281 0.0
N936 N 0.18449 0.96299 0.54474 0.0
N937 N 0.1714 0.93495 0.50184 0.0
C938 C 0.2093 0.96433 0.50578 0.0
C939 C 0.21658 0.97942 0.52909 0.0
C940 C 0.46994 0.77022 0.99573 0.0
C941 C 0.50955 0.74071 0.99121 0.0
C942 C 0.45052 0.77392 0.01796 0.0
C943 C 0.47056 0.74907 0.03664 0.0
H944 H 0.45309 0.78989 0.98189 0.0
H945 H 0.41986 0.79684 0.02054 0.0
S946 S 0.57546 0.66815 0.0341 0.0
N947 N 0.56843 0.68658 1.00731 0.0
N948 N 0.53285 0.69435 0.04914 0.0
C949 C 0.51068 0.72002 0.03241 0.0
C950 C 0.52989 0.7156 1.0097 0.0
C951 C 0.23999 0.44459 0.01992 0.0
C952 C 0.23491 0.47264 0.03992 0.0
C953 C 0.2397 0.46525 0.9979 0.0
C954 C 0.23489 0.515 0.99488 0.0
H955 H 0.24413 0.40623 0.02122 0.0
H956 H 0.24379 0.44186 0.98313 0.0
S957 S 0.22065 0.60467 0.04167 0.0
N958 N 0.22475 0.55311 0.05523 0.0
N959 N 0.22468 0.59178 1.01397 0.0
C960 C 0.22973 0.54353 1.01473 0.0
C961 C 0.22957 0.52243 0.03718 0.0
C962 C 0.46263 0.21882 0.0318 0.0
C963 C 0.50731 0.23983 0.03689 0.0
C964 C 0.44508 0.21647 1.00915 0.0
C965 C 0.47172 0.23444 0.99058 0.0
H966 H 0.44068 0.20427 0.04544 0.0
H967 H 0.41056 0.19998 1.00616 0.0
S968 S 0.59022 0.29405 0.99444 0.0
N969 N 0.57736 0.2798 0.02129 0.0
N970 N 0.5447 0.27489 0.9788 0.0
C971 C 0.51647 0.25547 0.99536 0.0
C972 C 0.53415 0.2583 0.01846 0.0
C973 C 0.71644 0.46826 1.01064 0.0
C974 C 0.74341 0.48629 0.99217 0.0
C975 C 0.72239 0.48605 0.03313 0.0
C976 C 0.7548 0.52339 0.03801 0.0
H977 H 0.69062 0.43995 1.00775 0.0
H978 H 0.70081 0.47087 0.04676 0.0
S979 S 0.83411 0.58323 0.99582 0.0
N980 N 0.80416 0.54354 0.98038 0.0
N981 N 0.81464 0.57737 0.0225 0.0
C982 C 0.78194 0.54183 0.01972 0.0
C983 C 0.77648 0.52316 0.99687 0.0
loop_
_geom_bond_atom_site_label_1
_geom_bond_atom_site_label_2
_geom_bond_distance
_geom_bond_site_symmetry_2
_ccdc_geom_bond_type
Co0 O3 1.970 . S
Co0 N17 1.989 . S
Co0 O25 1.967 1_455 S
Co0 O32 1.920 . S
Co1 O4 1.966 . S
Co1 N10 2.022 . S
Co1 N18 1.993 . S
Co1 O26 1.941 1_455 S
C2 O3 1.258 . S
C2 O4 1.263 . S
O3 Co0 1.970 . S
O3 C2 1.258 . S
O4 Co1 1.966 . S
O4 C2 1.263 . S
C5 O6 1.235 . S
C5 O32 1.289 . S
O6 C5 1.235 . S
C7 C9 1.400 . S
C7 N10 1.351 . S
C7 C12 1.501 . S
C8 C9 1.387 . S
C8 N11 1.341 . S
C9 C7 1.400 . S
C9 C8 1.387 . S
N10 Co1 2.022 . S
N10 C7 1.351 . S
N10 N11 1.365 . S
N11 C8 1.341 . S
N11 N10 1.365 . S
N11 H31 0.862 1_455 S
C12 C7 1.501 . S
C12 H13 0.961 . S
C12 H14 0.961 . S
C12 H15 0.960 . S
H13 C12 0.961 . S
H14 C12 0.961 . S
H15 C12 0.960 . S
C16 N17 1.342 . S
C16 C20 1.401 . S
C16 C21 1.499 . S
N17 Co0 1.989 . S
N17 C16 1.342 . S
N17 N18 1.388 . S
N18 Co1 1.993 . S
N18 N17 1.388 . S
N18 C19 1.346 . S
C19 N18 1.346 . S
C19 C20 1.396 . S
C19 C29 1.510 . S
C20 C16 1.401 . S
C20 C19 1.396 . S
C21 C16 1.499 . S
C21 H22 0.959 . S
C21 H23 0.960 . S
C21 H24 0.961 1_455 S
H22 C21 0.959 . S
H23 C21 0.960 . S
H24 C21 0.961 1_655 S
O25 Co0 1.967 1_655 S
O25 C33 1.258 . S
O26 Co1 1.941 1_655 S
O26 C33 1.266 . S
H27 C29 0.959 . S
H28 C29 0.961 . S
C29 C19 1.510 . S
C29 H27 0.959 . S
C29 H28 0.961 . S
C29 H30 0.960 . S
H30 C29 0.960 . S
H31 N11 0.862 1_655 S
O32 Co0 1.920 . S
O32 C5 1.289 . S
C33 O25 1.258 . S
C33 O26 1.266 . S
Co34 O37 1.970 . S
Co34 N51 1.989 . S
Co34 O59 1.967 1_545 S
Co34 O66 1.920 . S
Co35 O38 1.966 . S
Co35 N44 2.022 . S
Co35 N52 1.993 . S
Co35 O60 1.941 1_545 S
C36 O37 1.258 . S
C36 O38 1.263 . S
O37 Co34 1.970 . S
O37 C36 1.258 . S
O38 Co35 1.966 . S
O38 C36 1.263 . S
C39 O40 1.235 . S
C39 O66 1.289 . S
O40 C39 1.235 . S
C41 C43 1.400 . S
C41 N44 1.351 . S
C41 C46 1.501 . S
C42 C43 1.387 . S
C42 N45 1.341 . S
C43 C41 1.400 . S
C43 C42 1.387 . S
N44 Co35 2.022 . S
N44 C41 1.351 . S
N44 N45 1.365 . S
N45 C42 1.341 . S
N45 N44 1.365 . S
N45 H65 0.862 1_545 S
C46 C41 1.501 . S
C46 H47 0.961 . S
C46 H48 0.961 . S
C46 H49 0.960 . S
H47 C46 0.961 . S
H48 C46 0.961 . S
H49 C46 0.960 . S
C50 N51 1.342 . S
C50 C54 1.401 . S
C50 C55 1.499 . S
N51 Co34 1.989 . S
N51 C50 1.342 . S
N51 N52 1.388 . S
N52 Co35 1.993 . S
N52 N51 1.388 . S
N52 C53 1.346 . S
C53 N52 1.346 . S
C53 C54 1.396 . S
C53 C63 1.510 . S
C54 C50 1.401 . S
C54 C53 1.396 . S
C55 C50 1.499 . S
C55 H56 0.959 . S
C55 H57 0.960 . S
C55 H58 0.961 1_545 S
H56 C55 0.959 . S
H57 C55 0.960 . S
H58 C55 0.961 1_565 S
O59 Co34 1.967 1_565 S
O59 C67 1.258 . S
O60 Co35 1.941 1_565 S
O60 C67 1.266 . S
H61 C63 0.959 . S
H62 C63 0.961 . S
C63 C53 1.510 . S
C63 H61 0.959 . S
C63 H62 0.961 . S
C63 H64 0.960 . S
H64 C63 0.960 . S
H65 N45 0.862 1_565 S
O66 Co34 1.920 . S
O66 C39 1.289 . S
C67 O59 1.258 . S
C67 O60 1.266 . S
Co68 O71 1.970 . S
Co68 N85 1.989 . S
Co68 O93 1.967 1_655 S
Co68 O100 1.920 . S
Co69 O72 1.966 . S
Co69 N78 2.022 . S
Co69 N86 1.993 . S
Co69 O94 1.941 1_655 S
C70 O71 1.258 . S
C70 O72 1.263 . S
O71 Co68 1.970 . S
O71 C70 1.258 . S
O72 Co69 1.966 . S
O72 C70 1.263 . S
C73 O74 1.235 . S
C73 O100 1.289 . S
O74 C73 1.235 . S
C75 C77 1.400 . S
C75 N78 1.351 . S
C75 C80 1.501 . S
C76 C77 1.387 . S
C76 N79 1.341 . S
C77 C75 1.400 . S
C77 C76 1.387 . S
N78 Co69 2.022 . S
N78 C75 1.351 . S
N78 N79 1.365 . S
N79 C76 1.341 . S
N79 N78 1.365 . S
N79 H99 0.862 1_655 S
C80 C75 1.501 . S
C80 H81 0.961 . S
C80 H82 0.961 . S
C80 H83 0.960 . S
H81 C80 0.961 . S
H82 C80 0.961 . S
H83 C80 0.960 . S
C84 N85 1.342 . S
C84 C88 1.401 . S
C84 C89 1.499 . S
N85 Co68 1.989 . S
N85 C84 1.342 . S
N85 N86 1.388 . S
N86 Co69 1.993 . S
N86 N85 1.388 . S
N86 C87 1.346 . S
C87 N86 1.346 . S
C87 C88 1.396 . S
C87 C97 1.510 . S
C88 C84 1.401 . S
C88 C87 1.396 . S
C89 C84 1.499 . S
C89 H90 0.959 . S
C89 H91 0.960 . S
C89 H92 0.961 1_655 S
H90 C89 0.959 . S
H91 C89 0.960 . S
H92 C89 0.961 1_455 S
O93 Co68 1.967 1_455 S
O93 C101 1.258 . S
O94 Co69 1.941 1_455 S
O94 C101 1.266 . S
H95 C97 0.959 . S
H96 C97 0.961 . S
C97 C87 1.510 . S
C97 H95 0.959 . S
C97 H96 0.961 . S
C97 H98 0.960 . S
H98 C97 0.960 . S
H99 N79 0.862 1_455 S
O100 Co68 1.920 . S
O100 C73 1.289 . S
C101 O93 1.258 . S
C101 O94 1.266 . S
Co102 O105 1.970 . S
Co102 N119 1.989 . S
Co102 O127 1.967 1_565 S
Co102 O134 1.920 . S
Co103 O106 1.966 . S
Co103 N112 2.022 . S
Co103 N120 1.993 . S
Co103 O128 1.941 1_565 S
C104 O105 1.258 . S
C104 O106 1.263 . S
O105 Co102 1.970 . S
O105 C104 1.258 . S
O106 Co103 1.966 . S
O106 C104 1.263 . S
C107 O108 1.235 . S
C107 O134 1.289 . S
O108 C107 1.235 . S
C109 C111 1.400 . S
C109 N112 1.351 . S
C109 C114 1.501 . S
C110 C111 1.387 . S
C110 N113 1.341 . S
C111 C109 1.400 . S
C111 C110 1.387 . S
N112 Co103 2.022 . S
N112 C109 1.351 . S
N112 N113 1.365 . S
N113 C110 1.341 . S
N113 N112 1.365 . S
N113 H133 0.862 1_565 S
C114 C109 1.501 . S
C114 H115 0.961 . S
C114 H116 0.961 . S
C114 H117 0.960 . S
H115 C114 0.961 . S
H116 C114 0.961 . S
H117 C114 0.960 . S
C118 N119 1.342 . S
C118 C122 1.401 . S
C118 C123 1.499 . S
N119 Co102 1.989 . S
N119 C118 1.342 . S
N119 N120 1.388 . S
N120 Co103 1.993 . S
N120 N119 1.388 . S
N120 C121 1.346 . S
C121 N120 1.346 . S
C121 C122 1.396 . S
C121 C131 1.510 . S
C122 C118 1.401 . S
C122 C121 1.396 . S
C123 C118 1.499 . S
C123 H124 0.959 . S
C123 H125 0.960 . S
C123 H126 0.961 1_565 S
H124 C123 0.959 . S
H125 C123 0.960 . S
H126 C123 0.961 1_545 S
O127 Co102 1.967 1_545 S
O127 C135 1.258 . S
O128 Co103 1.941 1_545 S
O128 C135 1.266 . S
H129 C131 0.959 . S
H130 C131 0.961 . S
C131 C121 1.510 . S
C131 H129 0.959 . S
C131 H130 0.961 . S
C131 H132 0.960 . S
H132 C131 0.960 . S
H133 N113 0.862 1_545 S
O134 Co102 1.920 . S
O134 C107 1.289 . S
C135 O127 1.258 . S
C135 O128 1.266 . S
Co136 O139 1.970 . S
Co136 N153 1.989 . S
Co136 O161 1.967 1_455 S
Co136 O168 1.920 . S
Co137 O140 1.966 . S
Co137 N146 2.022 . S
Co137 N154 1.993 . S
Co137 O162 1.941 1_455 S
C138 O139 1.258 . S
C138 O140 1.263 . S
O139 Co136 1.970 . S
O139 C138 1.258 . S
O140 Co137 1.966 . S
O140 C138 1.263 . S
C141 O142 1.235 . S
C141 O168 1.289 . S
O142 C141 1.235 . S
C143 C145 1.400 . S
C143 N146 1.351 . S
C143 C148 1.501 . S
C144 C145 1.387 . S
C144 N147 1.341 . S
C145 C143 1.400 . S
C145 C144 1.387 . S
N146 Co137 2.022 . S
N146 C143 1.351 . S
N146 N147 1.365 . S
N147 C144 1.341 . S
N147 N146 1.365 . S
N147 H167 0.862 1_455 S
C148 C143 1.501 . S
C148 H149 0.961 . S
C148 H150 0.961 . S
C148 H151 0.960 . S
H149 C148 0.961 . S
H150 C148 0.961 . S
H151 C148 0.960 . S
C152 N153 1.342 . S
C152 C156 1.401 . S
C152 C157 1.499 . S
N153 Co136 1.989 . S
N153 C152 1.342 . S
N153 N154 1.388 . S
N154 Co137 1.993 . S
N154 N153 1.388 . S
N154 C155 1.346 . S
C155 N154 1.346 . S
C155 C156 1.396 . S
C155 C165 1.510 . S
C156 C152 1.401 . S
C156 C155 1.396 . S
C157 C152 1.499 . S
C157 H158 0.959 . S
C157 H159 0.960 . S
C157 H160 0.961 1_455 S
H158 C157 0.959 . S
H159 C157 0.960 . S
H160 C157 0.961 1_655 S
O161 Co136 1.967 1_655 S
O161 C169 1.258 . S
O162 Co137 1.941 1_655 S
O162 C169 1.266 . S
H163 C165 0.959 . S
H164 C165 0.961 . S
C165 C155 1.510 . S
C165 H163 0.959 . S
C165 H164 0.961 . S
C165 H166 0.960 . S
H166 C165 0.960 . S
H167 N147 0.862 1_655 S
O168 Co136 1.920 . S
O168 C141 1.289 . S
C169 O161 1.258 . S
C169 O162 1.266 . S
Co170 O173 1.970 . S
Co170 N187 1.989 . S
Co170 O195 1.967 1_545 S
Co170 O202 1.920 . S
Co171 O174 1.966 . S
Co171 N180 2.022 . S
Co171 N188 1.993 . S
Co171 O196 1.941 1_545 S
C172 O173 1.258 . S
C172 O174 1.263 . S
O173 Co170 1.970 . S
O173 C172 1.258 . S
O174 Co171 1.966 . S
O174 C172 1.263 . S
C175 O176 1.235 . S
C175 O202 1.289 . S
O176 C175 1.235 . S
C177 C179 1.400 . S
C177 N180 1.351 . S
C177 C182 1.501 . S
C178 C179 1.387 . S
C178 N181 1.341 . S
C179 C177 1.400 . S
C179 C178 1.387 . S
N180 Co171 2.022 . S
N180 C177 1.351 . S
N180 N181 1.365 . S
N181 C178 1.341 . S
N181 N180 1.365 . S
N181 H201 0.862 1_545 S
C182 C177 1.501 . S
C182 H183 0.961 . S
C182 H184 0.961 . S
C182 H185 0.960 . S
H183 C182 0.961 . S
H184 C182 0.961 . S
H185 C182 0.960 . S
C186 N187 1.342 . S
C186 C190 1.401 . S
C186 C191 1.499 . S
N187 Co170 1.989 . S
N187 C186 1.342 . S
N187 N188 1.388 . S
N188 Co171 1.993 . S
N188 N187 1.388 . S
N188 C189 1.346 . S
C189 N188 1.346 . S
C189 C190 1.396 . S
C189 C199 1.510 . S
C190 C186 1.401 . S
C190 C189 1.396 . S
C191 C186 1.499 . S
C191 H192 0.959 . S
C191 H193 0.960 . S
C191 H194 0.961 1_545 S
H192 C191 0.959 . S
H193 C191 0.960 . S
H194 C191 0.961 1_565 S
O195 Co170 1.967 1_565 S
O195 C203 1.258 . S
O196 Co171 1.941 1_565 S
O196 C203 1.266 . S
H197 C199 0.959 . S
H198 C199 0.961 . S
C199 C189 1.510 . S
C199 H197 0.959 . S
C199 H198 0.961 . S
C199 H200 0.960 . S
H200 C199 0.960 . S
H201 N181 0.862 1_565 S
O202 Co170 1.920 . S
O202 C175 1.289 . S
C203 O195 1.258 . S
C203 O196 1.266 . S
Co204 O207 1.970 . S
Co204 N221 1.989 . S
Co204 O229 1.967 1_655 S
Co204 O236 1.920 . S
Co205 O208 1.966 . S
Co205 N214 2.022 . S
Co205 N222 1.993 . S
Co205 O230 1.941 1_655 S
C206 O207 1.258 . S
C206 O208 1.263 . S
O207 Co204 1.970 . S
O207 C206 1.258 . S
O208 Co205 1.966 . S
O208 C206 1.263 . S
C209 O210 1.235 . S
C209 O236 1.289 . S
O210 C209 1.235 . S
C211 C213 1.400 . S
C211 N214 1.351 . S
C211 C216 1.501 . S
C212 C213 1.387 . S
C212 N215 1.341 . S
C213 C211 1.400 . S
C213 C212 1.387 . S
N214 Co205 2.022 . S
N214 C211 1.351 . S
N214 N215 1.365 . S
N215 C212 1.341 . S
N215 N214 1.365 . S
N215 H235 0.862 1_655 S
C216 C211 1.501 . S
C216 H217 0.961 . S
C216 H218 0.961 . S
C216 H219 0.960 . S
H217 C216 0.961 . S
H218 C216 0.961 . S
H219 C216 0.960 . S
C220 N221 1.342 . S
C220 C224 1.401 . S
C220 C225 1.499 . S
N221 Co204 1.989 . S
N221 C220 1.342 . S
N221 N222 1.388 . S
N222 Co205 1.993 . S
N222 N221 1.388 . S
N222 C223 1.346 . S
C223 N222 1.346 . S
C223 C224 1.396 . S
C223 C233 1.510 . S
C224 C220 1.401 . S
C224 C223 1.396 . S
C225 C220 1.499 . S
C225 H226 0.959 . S
C225 H227 0.960 . S
C225 H228 0.961 1_655 S
H226 C225 0.959 . S
H227 C225 0.960 . S
H228 C225 0.961 1_455 S
O229 Co204 1.967 1_455 S
O229 C237 1.258 . S
O230 Co205 1.941 1_455 S
O230 C237 1.266 . S
H231 C233 0.959 . S
H232 C233 0.961 . S
C233 C223 1.510 . S
C233 H231 0.959 . S
C233 H232 0.961 . S
C233 H234 0.960 . S
H234 C233 0.960 . S
H235 N215 0.862 1_455 S
O236 Co204 1.920 . S
O236 C209 1.289 . S
C237 O229 1.258 . S
C237 O230 1.266 . S
Co238 O241 1.970 . S
Co238 N255 1.989 . S
Co238 O263 1.967 1_565 S
Co238 O270 1.920 . S
Co239 O242 1.966 . S
Co239 N248 2.022 . S
Co239 N256 1.993 . S
Co239 O264 1.941 1_565 S
C240 O241 1.258 . S
C240 O242 1.263 . S
O241 Co238 1.970 . S
O241 C240 1.258 . S
O242 Co239 1.966 . S
O242 C240 1.263 . S
C243 O244 1.235 . S
C243 O270 1.289 . S
O244 C243 1.235 . S
C245 C247 1.400 . S
C245 N248 1.351 . S
C245 C250 1.501 . S
C246 C247 1.387 . S
C246 N249 1.341 . S
C247 C245 1.400 . S
C247 C246 1.387 . S
N248 Co239 2.022 . S
N248 C245 1.351 . S
N248 N249 1.365 . S
N249 C246 1.341 . S
N249 N248 1.365 . S
N249 H269 0.862 1_565 S
C250 C245 1.501 . S
C250 H251 0.961 . S
C250 H252 0.961 . S
C250 H253 0.960 . S
H251 C250 0.961 . S
H252 C250 0.961 . S
H253 C250 0.960 . S
C254 N255 1.342 . S
C254 C258 1.401 . S
C254 C259 1.499 . S
N255 Co238 1.989 . S
N255 C254 1.342 . S
N255 N256 1.388 . S
N256 Co239 1.993 . S
N256 N255 1.388 . S
N256 C257 1.346 . S
C257 N256 1.346 . S
C257 C258 1.396 . S
C257 C267 1.510 . S
C258 C254 1.401 . S
C258 C257 1.396 . S
C259 C254 1.499 . S
C259 H260 0.959 . S
C259 H261 0.960 . S
C259 H262 0.961 1_565 S
H260 C259 0.959 . S
H261 C259 0.960 . S
H262 C259 0.961 1_545 S
O263 Co238 1.967 1_545 S
O263 C271 1.258 . S
O264 Co239 1.941 1_545 S
O264 C271 1.266 . S
H265 C267 0.959 . S
H266 C267 0.961 . S
C267 C257 1.510 . S
C267 H265 0.959 . S
C267 H266 0.961 . S
C267 H268 0.960 . S
H268 C267 0.960 . S
H269 N249 0.862 1_545 S
O270 Co238 1.920 . S
O270 C243 1.289 . S
C271 O263 1.258 . S
C271 O264 1.266 . S
Co272 O275 1.970 . S
Co272 N289 1.989 . S
Co272 O297 1.967 . S
Co272 O304 1.920 . S
Co273 O276 1.966 . S
Co273 N282 2.022 . S
Co273 N290 1.993 . S
Co273 O298 1.941 . S
C274 O275 1.258 . S
C274 O276 1.263 . S
O275 Co272 1.970 . S
O275 C274 1.258 . S
O276 Co273 1.966 . S
O276 C274 1.263 . S
C277 O278 1.235 . S
C277 O304 1.289 . S
O278 C277 1.235 . S
C279 C281 1.400 . S
C279 N282 1.351 . S
C279 C284 1.501 . S
C280 C281 1.387 . S
C280 N283 1.341 . S
C281 C279 1.400 . S
C281 C280 1.387 . S
N282 Co273 2.022 . S
N282 C279 1.351 . S
N282 N283 1.365 . S
N283 C280 1.341 . S
N283 N282 1.365 . S
N283 H303 0.862 . S
C284 C279 1.501 . S
C284 H285 0.961 . S
C284 H286 0.961 . S
C284 H287 0.960 . S
H285 C284 0.961 . S
H286 C284 0.961 . S
H287 C284 0.960 . S
C288 N289 1.342 . S
C288 C292 1.401 . S
C288 C293 1.499 . S
N289 Co272 1.989 . S
N289 C288 1.342 . S
N289 N290 1.388 . S
N290 Co273 1.993 . S
N290 N289 1.388 . S
N290 C291 1.346 . S
C291 N290 1.346 . S
C291 C292 1.396 . S
C291 C301 1.510 . S
C292 C288 1.401 . S
C292 C291 1.396 . S
C293 C288 1.499 . S
C293 H294 0.959 . S
C293 H295 0.960 . S
C293 H296 0.961 . S
H294 C293 0.959 . S
H295 C293 0.960 . S
H296 C293 0.961 . S
O297 Co272 1.967 . S
O297 C305 1.258 . S
O298 Co273 1.941 . S
O298 C305 1.266 . S
H299 C301 0.959 . S
H300 C301 0.961 . S
C301 C291 1.510 . S
C301 H299 0.959 . S
C301 H300 0.961 . S
C301 H302 0.960 . S
H302 C301 0.960 . S
H303 N283 0.862 . S
O304 Co272 1.920 . S
O304 C277 1.289 . S
C305 O297 1.258 . S
C305 O298 1.266 . S
Co306 O309 1.970 . S
Co306 N323 1.989 . S
Co306 O331 1.967 . S
Co306 O338 1.920 . S
Co307 O310 1.966 . S
Co307 N316 2.022 . S
Co307 N324 1.993 . S
Co307 O332 1.941 . S
C308 O309 1.258 . S
C308 O310 1.263 . S
O309 Co306 1.970 . S
O309 C308 1.258 . S
O310 Co307 1.966 . S
O310 C308 1.263 . S
C311 O312 1.235 . S
C311 O338 1.289 . S
O312 C311 1.235 . S
C313 C315 1.400 . S
C313 N316 1.351 . S
C313 C318 1.501 . S
C314 C315 1.387 . S
C314 N317 1.341 . S
C315 C313 1.400 . S
C315 C314 1.387 . S
N316 Co307 2.022 . S
N316 C313 1.351 . S
N316 N317 1.365 . S
N317 C314 1.341 . S
N317 N316 1.365 . S
N317 H337 0.862 . S
C318 C313 1.501 . S
C318 H319 0.961 . S
C318 H320 0.961 . S
C318 H321 0.960 . S
H319 C318 0.961 . S
H320 C318 0.961 . S
H321 C318 0.960 . S
C322 N323 1.342 . S
C322 C326 1.401 . S
C322 C327 1.499 . S
N323 Co306 1.989 . S
N323 C322 1.342 . S
N323 N324 1.388 . S
N324 Co307 1.993 . S
N324 N323 1.388 . S
N324 C325 1.346 . S
C325 N324 1.346 . S
C325 C326 1.396 . S
C325 C335 1.510 . S
C326 C322 1.401 . S
C326 C325 1.396 . S
C327 C322 1.499 . S
C327 H328 0.959 . S
C327 H329 0.960 . S
C327 H330 0.961 . S
H328 C327 0.959 . S
H329 C327 0.960 . S
H330 C327 0.961 . S
O331 Co306 1.967 . S
O331 C339 1.258 . S
O332 Co307 1.941 . S
O332 C339 1.266 . S
H333 C335 0.959 . S
H334 C335 0.961 . S
C335 C325 1.510 . S
C335 H333 0.959 . S
C335 H334 0.961 . S
C335 H336 0.960 . S
H336 C335 0.960 . S
H337 N317 0.862 . S
O338 Co306 1.920 . S
O338 C311 1.289 . S
C339 O331 1.258 . S
C339 O332 1.266 . S
Co340 O343 1.970 . S
Co340 N357 1.989 . S
Co340 O365 1.967 . S
Co340 O372 1.920 . S
Co341 O344 1.966 . S
Co341 N350 2.022 . S
Co341 N358 1.993 . S
Co341 O366 1.941 . S
C342 O343 1.258 . S
C342 O344 1.263 . S
O343 Co340 1.970 . S
O343 C342 1.258 . S
O344 Co341 1.966 . S
O344 C342 1.263 . S
C345 O346 1.235 . S
C345 O372 1.289 . S
O346 C345 1.235 . S
C347 C349 1.400 . S
C347 N350 1.351 . S
C347 C352 1.501 . S
C348 C349 1.387 . S
C348 N351 1.341 . S
C349 C347 1.400 . S
C349 C348 1.387 . S
N350 Co341 2.022 . S
N350 C347 1.351 . S
N350 N351 1.365 . S
N351 C348 1.341 . S
N351 N350 1.365 . S
N351 H371 0.862 . S
C352 C347 1.501 . S
C352 H353 0.961 . S
C352 H354 0.961 . S
C352 H355 0.960 . S
H353 C352 0.961 . S
H354 C352 0.961 . S
H355 C352 0.960 . S
C356 N357 1.342 . S
C356 C360 1.401 . S
C356 C361 1.499 . S
N357 Co340 1.989 . S
N357 C356 1.342 . S
N357 N358 1.388 . S
N358 Co341 1.993 . S
N358 N357 1.388 . S
N358 C359 1.346 . S
C359 N358 1.346 . S
C359 C360 1.396 . S
C359 C369 1.510 . S
C360 C356 1.401 . S
C360 C359 1.396 . S
C361 C356 1.499 . S
C361 H362 0.959 . S
C361 H363 0.960 . S
C361 H364 0.961 . S
H362 C361 0.959 . S
H363 C361 0.960 . S
H364 C361 0.961 . S
O365 Co340 1.967 . S
O365 C373 1.258 . S
O366 Co341 1.941 . S
O366 C373 1.266 . S
H367 C369 0.959 . S
H368 C369 0.961 . S
C369 C359 1.510 . S
C369 H367 0.959 . S
C369 H368 0.961 . S
C369 H370 0.960 . S
H370 C369 0.960 . S
H371 N351 0.862 . S
O372 Co340 1.920 . S
O372 C345 1.289 . S
C373 O365 1.258 . S
C373 O366 1.266 . S
Co374 O377 1.970 . S
Co374 N391 1.989 . S
Co374 O399 1.967 . S
Co374 O406 1.920 . S
Co375 O378 1.966 . S
Co375 N384 2.022 . S
Co375 N392 1.993 . S
Co375 O400 1.941 . S
C376 O377 1.258 . S
C376 O378 1.263 . S
O377 Co374 1.970 . S
O377 C376 1.258 . S
O378 Co375 1.966 . S
O378 C376 1.263 . S
C379 O380 1.235 . S
C379 O406 1.289 . S
O380 C379 1.235 . S
C381 C383 1.400 . S
C381 N384 1.351 . S
C381 C386 1.501 . S
C382 C383 1.387 . S
C382 N385 1.341 . S
C383 C381 1.400 . S
C383 C382 1.387 . S
N384 Co375 2.022 . S
N384 C381 1.351 . S
N384 N385 1.365 . S
N385 C382 1.341 . S
N385 N384 1.365 . S
N385 H405 0.862 . S
C386 C381 1.501 . S
C386 H387 0.961 . S
C386 H388 0.961 . S
C386 H389 0.960 . S
H387 C386 0.961 . S
H388 C386 0.961 . S
H389 C386 0.960 . S
C390 N391 1.342 . S
C390 C394 1.401 . S
C390 C395 1.499 . S
N391 Co374 1.989 . S
N391 C390 1.342 . S
N391 N392 1.388 . S
N392 Co375 1.993 . S
N392 N391 1.388 . S
N392 C393 1.346 . S
C393 N392 1.346 . S
C393 C394 1.396 . S
C393 C403 1.510 . S
C394 C390 1.401 . S
C394 C393 1.396 . S
C395 C390 1.499 . S
C395 H396 0.959 . S
C395 H397 0.960 . S
C395 H398 0.961 . S
H396 C395 0.959 . S
H397 C395 0.960 . S
H398 C395 0.961 . S
O399 Co374 1.967 . S
O399 C407 1.258 . S
O400 Co375 1.941 . S
O400 C407 1.266 . S
H401 C403 0.959 . S
H402 C403 0.961 . S
C403 C393 1.510 . S
C403 H401 0.959 . S
C403 H402 0.961 . S
C403 H404 0.960 . S
H404 C403 0.960 . S
H405 N385 0.862 . S
O406 Co374 1.920 . S
O406 C379 1.289 . S
C407 O399 1.258 . S
C407 O400 1.266 . S
Co408 O411 1.970 . S
Co408 N425 1.989 . S
Co408 O433 1.967 . S
Co408 O440 1.920 . S
Co409 O412 1.966 . S
Co409 N418 2.022 . S
Co409 N426 1.993 . S
Co409 O434 1.941 . S
C410 O411 1.258 . S
C410 O412 1.263 . S
O411 Co408 1.970 . S
O411 C410 1.258 . S
O412 Co409 1.966 . S
O412 C410 1.263 . S
C413 O414 1.235 . S
C413 O440 1.289 . S
O414 C413 1.235 . S
C415 C417 1.400 . S
C415 N418 1.351 . S
C415 C420 1.501 . S
C416 C417 1.387 . S
C416 N419 1.341 . S
C417 C415 1.400 . S
C417 C416 1.387 . S
N418 Co409 2.022 . S
N418 C415 1.351 . S
N418 N419 1.365 . S
N419 C416 1.341 . S
N419 N418 1.365 . S
N419 H439 0.862 . S
C420 C415 1.501 . S
C420 H421 0.961 . S
C420 H422 0.961 . S
C420 H423 0.960 . S
H421 C420 0.961 . S
H422 C420 0.961 . S
H423 C420 0.960 . S
C424 N425 1.342 . S
C424 C428 1.401 . S
C424 C429 1.499 . S
N425 Co408 1.989 . S
N425 C424 1.342 . S
N425 N426 1.388 . S
N426 Co409 1.993 . S
N426 N425 1.388 . S
N426 C427 1.346 . S
C427 N426 1.346 . S
C427 C428 1.396 . S
C427 C437 1.510 . S
C428 C424 1.401 . S
C428 C427 1.396 . S
C429 C424 1.499 . S
C429 H430 0.959 . S
C429 H431 0.960 . S
C429 H432 0.961 . S
H430 C429 0.959 . S
H431 C429 0.960 . S
H432 C429 0.961 . S
O433 Co408 1.967 . S
O433 C441 1.258 . S
O434 Co409 1.941 . S
O434 C441 1.266 . S
H435 C437 0.959 . S
H436 C437 0.961 . S
C437 C427 1.510 . S
C437 H435 0.959 . S
C437 H436 0.961 . S
C437 H438 0.960 . S
H438 C437 0.960 . S
H439 N419 0.862 . S
O440 Co408 1.920 . S
O440 C413 1.289 . S
C441 O433 1.258 . S
C441 O434 1.266 . S
Co442 O445 1.970 . S
Co442 N459 1.989 . S
Co442 O467 1.967 . S
Co442 O474 1.920 . S
Co443 O446 1.966 . S
Co443 N452 2.022 . S
Co443 N460 1.993 . S
Co443 O468 1.941 . S
C444 O445 1.258 . S
C444 O446 1.263 . S
O445 Co442 1.970 . S
O445 C444 1.258 . S
O446 Co443 1.966 . S
O446 C444 1.263 . S
C447 O448 1.235 . S
C447 O474 1.289 . S
O448 C447 1.235 . S
C449 C451 1.400 . S
C449 N452 1.351 . S
C449 C454 1.501 . S
C450 C451 1.387 . S
C450 N453 1.341 . S
C451 C449 1.400 . S
C451 C450 1.387 . S
N452 Co443 2.022 . S
N452 C449 1.351 . S
N452 N453 1.365 . S
N453 C450 1.341 . S
N453 N452 1.365 . S
N453 H473 0.862 . S
C454 C449 1.501 . S
C454 H455 0.961 . S
C454 H456 0.961 . S
C454 H457 0.960 . S
H455 C454 0.961 . S
H456 C454 0.961 . S
H457 C454 0.960 . S
C458 N459 1.342 . S
C458 C462 1.401 . S
C458 C463 1.499 . S
N459 Co442 1.989 . S
N459 C458 1.342 . S
N459 N460 1.388 . S
N460 Co443 1.993 . S
N460 N459 1.388 . S
N460 C461 1.346 . S
C461 N460 1.346 . S
C461 C462 1.396 . S
C461 C471 1.510 . S
C462 C458 1.401 . S
C462 C461 1.396 . S
C463 C458 1.499 . S
C463 H464 0.959 . S
C463 H465 0.960 . S
C463 H466 0.961 . S
H464 C463 0.959 . S
H465 C463 0.960 . S
H466 C463 0.961 . S
O467 Co442 1.967 . S
O467 C475 1.258 . S
O468 Co443 1.941 . S
O468 C475 1.266 . S
H469 C471 0.959 . S
H470 C471 0.961 . S
C471 C461 1.510 . S
C471 H469 0.959 . S
C471 H470 0.961 . S
C471 H472 0.960 . S
H472 C471 0.960 . S
H473 N453 0.862 . S
O474 Co442 1.920 . S
O474 C447 1.289 . S
C475 O467 1.258 . S
C475 O468 1.266 . S
Co476 O479 1.970 . S
Co476 N493 1.989 . S
Co476 O501 1.967 . S
Co476 O508 1.920 . S
Co477 O480 1.966 . S
Co477 N486 2.022 . S
Co477 N494 1.993 . S
Co477 O502 1.941 . S
C478 O479 1.258 . S
C478 O480 1.263 . S
O479 Co476 1.970 . S
O479 C478 1.258 . S
O480 Co477 1.966 . S
O480 C478 1.263 . S
C481 O482 1.235 . S
C481 O508 1.289 . S
O482 C481 1.235 . S
C483 C485 1.400 . S
C483 N486 1.351 . S
C483 C488 1.501 . S
C484 C485 1.387 . S
C484 N487 1.341 . S
C485 C483 1.400 . S
C485 C484 1.387 . S
N486 Co477 2.022 . S
N486 C483 1.351 . S
N486 N487 1.365 . S
N487 C484 1.341 . S
N487 N486 1.365 . S
N487 H507 0.862 . S
C488 C483 1.501 . S
C488 H489 0.961 . S
C488 H490 0.961 . S
C488 H491 0.960 . S
H489 C488 0.961 . S
H490 C488 0.961 . S
H491 C488 0.960 . S
C492 N493 1.342 . S
C492 C496 1.401 . S
C492 C497 1.499 . S
N493 Co476 1.989 . S
N493 C492 1.342 . S
N493 N494 1.388 . S
N494 Co477 1.993 . S
N494 N493 1.388 . S
N494 C495 1.346 . S
C495 N494 1.346 . S
C495 C496 1.396 . S
C495 C505 1.510 . S
C496 C492 1.401 . S
C496 C495 1.396 . S
C497 C492 1.499 . S
C497 H498 0.959 . S
C497 H499 0.960 . S
C497 H500 0.961 . S
H498 C497 0.959 . S
H499 C497 0.960 . S
H500 C497 0.961 . S
O501 Co476 1.967 . S
O501 C509 1.258 . S
O502 Co477 1.941 . S
O502 C509 1.266 . S
H503 C505 0.959 . S
H504 C505 0.961 . S
C505 C495 1.510 . S
C505 H503 0.959 . S
C505 H504 0.961 . S
C505 H506 0.960 . S
H506 C505 0.960 . S
H507 N487 0.862 . S
O508 Co476 1.920 . S
O508 C481 1.289 . S
C509 O501 1.258 . S
C509 O502 1.266 . S
Co510 O513 1.970 . S
Co510 N527 1.989 . S
Co510 O535 1.967 . S
Co510 O542 1.920 . S
Co511 O514 1.966 . S
Co511 N520 2.022 . S
Co511 N528 1.993 . S
Co511 O536 1.941 . S
C512 O513 1.258 . S
C512 O514 1.263 . S
O513 Co510 1.970 . S
O513 C512 1.258 . S
O514 Co511 1.966 . S
O514 C512 1.263 . S
C515 O516 1.235 . S
C515 O542 1.289 . S
O516 C515 1.235 . S
C517 C519 1.400 . S
C517 N520 1.351 . S
C517 C522 1.501 . S
C518 C519 1.387 . S
C518 N521 1.341 . S
C519 C517 1.400 . S
C519 C518 1.387 . S
N520 Co511 2.022 . S
N520 C517 1.351 . S
N520 N521 1.365 . S
N521 C518 1.341 . S
N521 N520 1.365 . S
N521 H541 0.862 . S
C522 C517 1.501 . S
C522 H523 0.961 . S
C522 H524 0.961 . S
C522 H525 0.960 . S
H523 C522 0.961 . S
H524 C522 0.961 . S
H525 C522 0.960 . S
C526 N527 1.342 . S
C526 C530 1.401 . S
C526 C531 1.499 . S
N527 Co510 1.989 . S
N527 C526 1.342 . S
N527 N528 1.388 . S
N528 Co511 1.993 . S
N528 N527 1.388 . S
N528 C529 1.346 . S
C529 N528 1.346 . S
C529 C530 1.396 . S
C529 C539 1.510 . S
C530 C526 1.401 . S
C530 C529 1.396 . S
C531 C526 1.499 . S
C531 H532 0.959 . S
C531 H533 0.960 . S
C531 H534 0.961 . S
H532 C531 0.959 . S
H533 C531 0.960 . S
H534 C531 0.961 . S
O535 Co510 1.967 . S
O535 C543 1.258 . S
O536 Co511 1.941 . S
O536 C543 1.266 . S
H537 C539 0.959 . S
H538 C539 0.961 . S
C539 C529 1.510 . S
C539 H537 0.959 . S
C539 H538 0.961 . S
C539 H540 0.960 . S
H540 C539 0.960 . S
H541 N521 0.862 . S
O542 Co510 1.920 . S
O542 C515 1.289 . S
C543 O535 1.258 . S
C543 O536 1.266 . S
C544 C545 1.369 . S
C544 C546 1.419 . S
C544 H548 0.930 . S
C545 C544 1.369 . S
C545 C554 1.429 1_655 S
C546 C544 1.419 . S
C546 C547 1.363 1_655 S
C546 H549 0.929 . S
C547 C546 1.363 1_455 S
C547 C553 1.428 . S
H548 C544 0.930 . S
H549 C546 0.929 . S
S550 N551 1.613 . S
S550 N552 1.610 . S
N551 S550 1.613 . S
N551 C554 1.350 . S
N552 S550 1.610 . S
N552 C553 1.351 . S
C553 C547 1.428 . S
C553 N552 1.351 . S
C553 C554 1.434 . S
C554 C545 1.429 1_455 S
C554 N551 1.350 . S
C554 C553 1.434 . S
C555 C556 1.369 1_565 S
C555 C557 1.419 . S
C555 H559 0.930 . S
C556 C555 1.369 1_545 S
C556 C565 1.429 . S
C557 C555 1.419 . S
C557 C558 1.363 . S
C557 H560 0.929 . S
C558 C557 1.363 . S
C558 C564 1.428 1_565 S
H559 C555 0.930 . S
H560 C557 0.929 . S
S561 N562 1.613 . S
S561 N563 1.610 . S
N562 S561 1.613 . S
N562 C565 1.350 . S
N563 S561 1.610 . S
N563 C564 1.351 . S
C564 C558 1.428 1_545 S
C564 N563 1.351 . S
C564 C565 1.434 . S
C565 C556 1.429 . S
C565 N562 1.350 . S
C565 C564 1.434 . S
C566 C567 1.369 . S
C566 C568 1.419 . S
C566 H570 0.930 . S
C567 C566 1.369 . S
C567 C576 1.429 1_655 S
C568 C566 1.419 . S
C568 C569 1.363 1_655 S
C568 H571 0.929 . S
C569 C568 1.363 1_455 S
C569 C575 1.428 . S
H570 C566 0.930 . S
H571 C568 0.929 . S
S572 N573 1.613 . S
S572 N574 1.610 . S
N573 S572 1.613 . S
N573 C576 1.350 . S
N574 S572 1.610 . S
N574 C575 1.351 . S
C575 C569 1.428 . S
C575 N574 1.351 . S
C575 C576 1.434 . S
C576 C567 1.429 1_455 S
C576 N573 1.350 . S
C576 C575 1.434 . S
C577 C578 1.369 . S
C577 C579 1.419 1_565 S
C577 H581 0.930 . S
C578 C577 1.369 . S
C578 C587 1.429 . S
C579 C577 1.419 1_545 S
C579 C580 1.363 . S
C579 H582 0.929 . S
C580 C579 1.363 . S
C580 C586 1.428 . S
H581 C577 0.930 . S
H582 C579 0.929 . S
S583 N584 1.613 1_545 S
S583 N585 1.610 . S
N584 S583 1.613 1_565 S
N584 C587 1.350 . S
N585 S583 1.610 . S
N585 C586 1.351 . S
C586 C580 1.428 . S
C586 N585 1.351 . S
C586 C587 1.434 1_545 S
C587 C578 1.429 . S
C587 N584 1.350 . S
C587 C586 1.434 1_565 S
C588 C589 1.369 . S
C588 C590 1.419 1_565 S
C588 H592 0.930 . S
C589 C588 1.369 . S
C589 C598 1.429 . S
C590 C588 1.419 1_545 S
C590 C591 1.363 . S
C590 H593 0.929 . S
C591 C590 1.363 . S
C591 C597 1.428 . S
H592 C588 0.930 . S
H593 C590 0.929 . S
S594 N595 1.613 1_545 S
S594 N596 1.610 . S
N595 S594 1.613 1_565 S
N595 C598 1.350 . S
N596 S594 1.610 . S
N596 C597 1.351 . S
C597 C591 1.428 . S
C597 N596 1.351 . S
C597 C598 1.434 1_545 S
C598 C589 1.429 . S
C598 N595 1.350 . S
C598 C597 1.434 1_565 S
C599 C600 1.369 . S
C599 C601 1.419 1_655 S
C599 H603 0.930 . S
C600 C599 1.369 . S
C600 C609 1.429 . S
C601 C599 1.419 1_455 S
C601 C602 1.363 . S
C601 H604 0.929 . S
C602 C601 1.363 . S
C602 C608 1.428 . S
H603 C599 0.930 . S
H604 C601 0.929 . S
S605 N606 1.613 1_455 S
S605 N607 1.610 . S
N606 S605 1.613 1_655 S
N606 C609 1.350 . S
N607 S605 1.610 . S
N607 C608 1.351 . S
C608 C602 1.428 . S
C608 N607 1.351 . S
C608 C609 1.434 1_455 S
C609 C600 1.429 . S
C609 N606 1.350 . S
C609 C608 1.434 1_655 S
C610 C611 1.369 . S
C610 C612 1.419 1_565 S
C610 H614 0.930 . S
C611 C610 1.369 . S
C611 C620 1.429 . S
C612 C610 1.419 1_545 S
C612 C613 1.363 . S
C612 H615 0.929 . S
C613 C612 1.363 . S
C613 C619 1.428 . S
H614 C610 0.930 . S
H615 C612 0.929 . S
S616 N617 1.613 . S
S616 N618 1.610 1_565 S
N617 S616 1.613 . S
N617 C620 1.350 . S
N618 S616 1.610 1_545 S
N618 C619 1.351 . S
C619 C613 1.428 . S
C619 N618 1.351 . S
C619 C620 1.434 1_545 S
C620 C611 1.429 . S
C620 N617 1.350 . S
C620 C619 1.434 1_565 S
C621 C622 1.369 . S
C621 C623 1.419 1_655 S
C621 H625 0.930 . S
C622 C621 1.369 . S
C622 C631 1.429 . S
C623 C621 1.419 1_455 S
C623 C624 1.363 . S
C623 H626 0.929 . S
C624 C623 1.363 . S
C624 C630 1.428 . S
H625 C621 0.930 . S
H626 C623 0.929 . S
S627 N628 1.613 1_455 S
S627 N629 1.610 . S
N628 S627 1.613 1_655 S
N628 C631 1.350 . S
N629 S627 1.610 . S
N629 C630 1.351 . S
C630 C624 1.428 . S
C630 N629 1.351 . S
C630 C631 1.434 1_455 S
C631 C622 1.429 . S
C631 N628 1.350 . S
C631 C630 1.434 1_655 S
C632 C633 1.369 . S
C632 C634 1.419 . S
C632 H636 0.930 . S
C633 C632 1.369 . S
C633 C642 1.429 . S
C634 C632 1.419 . S
C634 C635 1.363 . S
C634 H637 0.929 . S
C635 C634 1.363 . S
C635 C641 1.428 . S
H636 C632 0.930 . S
H637 C634 0.929 . S
S638 N639 1.613 . S
S638 N640 1.610 . S
N639 S638 1.613 . S
N639 C642 1.350 . S
N640 S638 1.610 . S
N640 C641 1.351 . S
C641 C635 1.428 . S
C641 N640 1.351 . S
C641 C642 1.434 . S
C642 C633 1.429 . S
C642 N639 1.350 . S
C642 C641 1.434 . S
C643 C644 1.369 . S
C643 C645 1.419 . S
C643 H647 0.930 . S
C644 C643 1.369 . S
C644 C653 1.429 . S
C645 C643 1.419 . S
C645 C646 1.363 . S
C645 H648 0.929 . S
C646 C645 1.363 . S
C646 C652 1.428 . S
H647 C643 0.930 . S
H648 C645 0.929 . S
S649 N650 1.613 . S
S649 N651 1.610 . S
N650 S649 1.613 . S
N650 C653 1.350 . S
N651 S649 1.610 . S
N651 C652 1.351 . S
C652 C646 1.428 . S
C652 N651 1.351 . S
C652 C653 1.434 . S
C653 C644 1.429 . S
C653 N650 1.350 . S
C653 C652 1.434 . S
C654 C655 1.369 . S
C654 C656 1.419 . S
C654 H658 0.930 . S
C655 C654 1.369 . S
C655 C664 1.429 . S
C656 C654 1.419 . S
C656 C657 1.363 . S
C656 H659 0.929 . S
C657 C656 1.363 . S
C657 C663 1.428 . S
H658 C654 0.930 . S
H659 C656 0.929 . S
S660 N661 1.613 . S
S660 N662 1.610 . S
N661 S660 1.613 . S
N661 C664 1.350 . S
N662 S660 1.610 . S
N662 C663 1.351 . S
C663 C657 1.428 . S
C663 N662 1.351 . S
C663 C664 1.434 . S
C664 C655 1.429 . S
C664 N661 1.350 . S
C664 C663 1.434 . S
C665 C666 1.369 . S
C665 C667 1.419 . S
C665 H669 0.930 . S
C666 C665 1.369 . S
C666 C675 1.429 . S
C667 C665 1.419 . S
C667 C668 1.363 . S
C667 H670 0.929 . S
C668 C667 1.363 . S
C668 C674 1.428 . S
H669 C665 0.930 . S
H670 C667 0.929 . S
S671 N672 1.613 . S
S671 N673 1.610 . S
N672 S671 1.613 . S
N672 C675 1.350 . S
N673 S671 1.610 . S
N673 C674 1.351 . S
C674 C668 1.428 . S
C674 N673 1.351 . S
C674 C675 1.434 . S
C675 C666 1.429 . S
C675 N672 1.350 . S
C675 C674 1.434 . S
C676 C677 1.369 . S
C676 C678 1.419 . S
C676 H680 0.930 . S
C677 C676 1.369 . S
C677 C686 1.429 . S
C678 C676 1.419 . S
C678 C679 1.363 . S
C678 H681 0.929 . S
C679 C678 1.363 . S
C679 C685 1.428 . S
H680 C676 0.930 . S
H681 C678 0.929 . S
S682 N683 1.613 . S
S682 N684 1.610 . S
N683 S682 1.613 . S
N683 C686 1.350 . S
N684 S682 1.610 . S
N684 C685 1.351 . S
C685 C679 1.428 . S
C685 N684 1.351 . S
C685 C686 1.434 . S
C686 C677 1.429 . S
C686 N683 1.350 . S
C686 C685 1.434 . S
C687 C688 1.369 . S
C687 C689 1.419 . S
C687 H691 0.930 . S
C688 C687 1.369 . S
C688 C697 1.429 . S
C689 C687 1.419 . S
C689 C690 1.363 . S
C689 H692 0.929 . S
C690 C689 1.363 . S
C690 C696 1.428 . S
H691 C687 0.930 . S
H692 C689 0.929 . S
S693 N694 1.613 . S
S693 N695 1.610 . S
N694 S693 1.613 . S
N694 C697 1.350 . S
N695 S693 1.610 . S
N695 C696 1.351 . S
C696 C690 1.428 . S
C696 N695 1.351 . S
C696 C697 1.434 . S
C697 C688 1.429 . S
C697 N694 1.350 . S
C697 C696 1.434 . S
C698 C699 1.369 . S
C698 C700 1.419 . S
C698 H702 0.930 . S
C699 C698 1.369 . S
C699 C708 1.429 . S
C700 C698 1.419 . S
C700 C701 1.363 . S
C700 H703 0.929 . S
C701 C700 1.363 . S
C701 C707 1.428 . S
H702 C698 0.930 . S
H703 C700 0.929 . S
S704 N705 1.613 . S
S704 N706 1.610 . S
N705 S704 1.613 . S
N705 C708 1.350 . S
N706 S704 1.610 . S
N706 C707 1.351 . S
C707 C701 1.428 . S
C707 N706 1.351 . S
C707 C708 1.434 . S
C708 C699 1.429 . S
C708 N705 1.350 . S
C708 C707 1.434 . S
C709 C710 1.369 . S
C709 C711 1.419 . S
C709 H713 0.930 . S
C710 C709 1.369 . S
C710 C719 1.429 . S
C711 C709 1.419 . S
C711 C712 1.363 . S
C711 H714 0.929 . S
C712 C711 1.363 . S
C712 C718 1.428 . S
H713 C709 0.930 . S
H714 C711 0.929 . S
S715 N716 1.613 . S
S715 N717 1.610 . S
N716 S715 1.613 . S
N716 C719 1.350 . S
N717 S715 1.610 . S
N717 C718 1.351 . S
C718 C712 1.428 . S
C718 N717 1.351 . S
C718 C719 1.434 . S
C719 C710 1.429 . S
C719 N716 1.350 . S
C719 C718 1.434 . S
C720 C721 1.369 . S
C720 C722 1.419 . S
C720 H724 0.930 . S
C721 C720 1.369 . S
C721 C730 1.429 . S
C722 C720 1.419 . S
C722 C723 1.363 . S
C722 H725 0.929 . S
C723 C722 1.363 . S
C723 C729 1.428 . S
H724 C720 0.930 . S
H725 C722 0.929 . S
S726 N727 1.613 . S
S726 N728 1.610 . S
N727 S726 1.613 . S
N727 C730 1.350 . S
N728 S726 1.610 . S
N728 C729 1.351 . S
C729 C723 1.428 . S
C729 N728 1.351 . S
C729 C730 1.434 . S
C730 C721 1.429 . S
C730 N727 1.350 . S
C730 C729 1.434 . S
C731 C732 1.369 . S
C731 C733 1.419 . S
C731 H735 0.930 . S
C732 C731 1.369 . S
C732 C741 1.429 . S
C733 C731 1.419 . S
C733 C734 1.363 . S
C733 H736 0.929 . S
C734 C733 1.363 . S
C734 C740 1.428 . S
H735 C731 0.930 . S
H736 C733 0.929 . S
S737 N738 1.613 . S
S737 N739 1.610 . S
N738 S737 1.613 . S
N738 C741 1.350 . S
N739 S737 1.610 . S
N739 C740 1.351 . S
C740 C734 1.428 . S
C740 N739 1.351 . S
C740 C741 1.434 . S
C741 C732 1.429 . S
C741 N738 1.350 . S
C741 C740 1.434 . S
C742 C743 1.369 . S
C742 C744 1.419 . S
C742 H746 0.930 . S
C743 C742 1.369 . S
C743 C752 1.429 . S
C744 C742 1.419 . S
C744 C745 1.363 . S
C744 H747 0.929 . S
C745 C744 1.363 . S
C745 C751 1.428 . S
H746 C742 0.930 . S
H747 C744 0.929 . S
S748 N749 1.613 . S
S748 N750 1.610 . S
N749 S748 1.613 . S
N749 C752 1.350 . S
N750 S748 1.610 . S
N750 C751 1.351 . S
C751 C745 1.428 . S
C751 N750 1.351 . S
C751 C752 1.434 . S
C752 C743 1.429 . S
C752 N749 1.350 . S
C752 C751 1.434 . S
C753 C754 1.369 . S
C753 C755 1.419 . S
C753 H757 0.930 . S
C754 C753 1.369 . S
C754 C763 1.429 . S
C755 C753 1.419 . S
C755 C756 1.363 . S
C755 H758 0.929 . S
C756 C755 1.363 . S
C756 C762 1.428 . S
H757 C753 0.930 . S
H758 C755 0.929 . S
S759 N760 1.613 . S
S759 N761 1.610 . S
N760 S759 1.613 . S
N760 C763 1.350 . S
N761 S759 1.610 . S
N761 C762 1.351 . S
C762 C756 1.428 . S
C762 N761 1.351 . S
C762 C763 1.434 . S
C763 C754 1.429 . S
C763 N760 1.350 . S
C763 C762 1.434 . S
C764 C765 1.369 . S
C764 C766 1.419 . S
C764 H768 0.930 . S
C765 C764 1.369 . S
C765 C774 1.429 . S
C766 C764 1.419 . S
C766 C767 1.363 . S
C766 H769 0.929 . S
C767 C766 1.363 . S
C767 C773 1.428 . S
H768 C764 0.930 . S
H769 C766 0.929 . S
S770 N771 1.613 . S
S770 N772 1.610 . S
N771 S770 1.613 . S
N771 C774 1.350 . S
N772 S770 1.610 . S
N772 C773 1.351 . S
C773 C767 1.428 . S
C773 N772 1.351 . S
C773 C774 1.434 . S
C774 C765 1.429 . S
C774 N771 1.350 . S
C774 C773 1.434 . S
C775 C776 1.369 . S
C775 C777 1.419 . S
C775 H779 0.930 . S
C776 C775 1.369 . S
C776 C785 1.429 . S
C777 C775 1.419 . S
C777 C778 1.363 . S
C777 H780 0.929 . S
C778 C777 1.363 . S
C778 C784 1.428 . S
H779 C775 0.930 . S
H780 C777 0.929 . S
S781 N782 1.613 . S
S781 N783 1.610 . S
N782 S781 1.613 . S
N782 C785 1.350 . S
N783 S781 1.610 . S
N783 C784 1.351 . S
C784 C778 1.428 . S
C784 N783 1.351 . S
C784 C785 1.434 . S
C785 C776 1.429 . S
C785 N782 1.350 . S
C785 C784 1.434 . S
C786 C787 1.369 . S
C786 C788 1.419 . S
C786 H790 0.930 . S
C787 C786 1.369 . S
C787 C796 1.429 . S
C788 C786 1.419 . S
C788 C789 1.363 . S
C788 H791 0.929 . S
C789 C788 1.363 . S
C789 C795 1.428 . S
H790 C786 0.930 . S
H791 C788 0.929 . S
S792 N793 1.613 . S
S792 N794 1.610 . S
N793 S792 1.613 . S
N793 C796 1.350 . S
N794 S792 1.610 . S
N794 C795 1.351 . S
C795 C789 1.428 . S
C795 N794 1.351 . S
C795 C796 1.434 . S
C796 C787 1.429 . S
C796 N793 1.350 . S
C796 C795 1.434 . S
C797 C798 1.369 . S
C797 C799 1.419 . S
C797 H801 0.930 . S
C798 C797 1.369 . S
C798 C807 1.429 . S
C799 C797 1.419 . S
C799 C800 1.363 . S
C799 H802 0.929 . S
C800 C799 1.363 . S
C800 C806 1.428 . S
H801 C797 0.930 . S
H802 C799 0.929 . S
S803 N804 1.613 . S
S803 N805 1.610 . S
N804 S803 1.613 . S
N804 C807 1.350 . S
N805 S803 1.610 . S
N805 C806 1.351 . S
C806 C800 1.428 . S
C806 N805 1.351 . S
C806 C807 1.434 . S
C807 C798 1.429 . S
C807 N804 1.350 . S
C807 C806 1.434 . S
C808 C809 1.369 . S
C808 C810 1.419 . S
C808 H812 0.930 . S
C809 C808 1.369 . S
C809 C818 1.429 . S
C810 C808 1.419 . S
C810 C811 1.363 . S
C810 H813 0.929 . S
C811 C810 1.363 . S
C811 C817 1.428 . S
H812 C808 0.930 . S
H813 C810 0.929 . S
S814 N815 1.613 . S
S814 N816 1.610 . S
N815 S814 1.613 . S
N815 C818 1.350 . S
N816 S814 1.610 . S
N816 C817 1.351 . S
C817 C811 1.428 . S
C817 N816 1.351 . S
C817 C818 1.434 . S
C818 C809 1.429 . S
C818 N815 1.350 . S
C818 C817 1.434 . S
C819 C820 1.369 . S
C819 C821 1.419 . S
C819 H823 0.930 . S
C820 C819 1.369 . S
C820 C829 1.429 . S
C821 C819 1.419 . S
C821 C822 1.363 . S
C821 H824 0.929 . S
C822 C821 1.363 . S
C822 C828 1.428 . S
H823 C819 0.930 . S
H824 C821 0.929 . S
S825 N826 1.613 . S
S825 N827 1.610 . S
N826 S825 1.613 . S
N826 C829 1.350 . S
N827 S825 1.610 . S
N827 C828 1.351 . S
C828 C822 1.428 . S
C828 N827 1.351 . S
C828 C829 1.434 . S
C829 C820 1.429 . S
C829 N826 1.350 . S
C829 C828 1.434 . S
C830 C831 1.369 . S
C830 C832 1.419 . S
C830 H834 0.930 . S
C831 C830 1.369 . S
C831 C840 1.429 . S
C832 C830 1.419 . S
C832 C833 1.363 . S
C832 H835 0.929 . S
C833 C832 1.363 . S
C833 C839 1.428 . S
H834 C830 0.930 . S
H835 C832 0.929 . S
S836 N837 1.613 . S
S836 N838 1.610 . S
N837 S836 1.613 . S
N837 C840 1.350 . S
N838 S836 1.610 . S
N838 C839 1.351 . S
C839 C833 1.428 . S
C839 N838 1.351 . S
C839 C840 1.434 . S
C840 C831 1.429 . S
C840 N837 1.350 . S
C840 C839 1.434 . S
C841 C842 1.369 . S
C841 C843 1.419 . S
C841 H845 0.930 . S
C842 C841 1.369 . S
C842 C851 1.429 . S
C843 C841 1.419 . S
C843 C844 1.363 . S
C843 H846 0.929 . S
C844 C843 1.363 . S
C844 C850 1.428 . S
H845 C841 0.930 . S
H846 C843 0.929 . S
S847 N848 1.613 . S
S847 N849 1.610 . S
N848 S847 1.613 . S
N848 C851 1.350 . S
N849 S847 1.610 . S
N849 C850 1.351 . S
C850 C844 1.428 . S
C850 N849 1.351 . S
C850 C851 1.434 . S
C851 C842 1.429 . S
C851 N848 1.350 . S
C851 C850 1.434 . S
C852 C853 1.369 . S
C852 C854 1.419 . S
C852 H856 0.930 . S
C853 C852 1.369 . S
C853 C862 1.429 . S
C854 C852 1.419 . S
C854 C855 1.363 . S
C854 H857 0.929 . S
C855 C854 1.363 . S
C855 C861 1.428 . S
H856 C852 0.930 . S
H857 C854 0.929 . S
S858 N859 1.613 . S
S858 N860 1.610 . S
N859 S858 1.613 . S
N859 C862 1.350 . S
N860 S858 1.610 . S
N860 C861 1.351 . S
C861 C855 1.428 . S
C861 N860 1.351 . S
C861 C862 1.434 . S
C862 C853 1.429 . S
C862 N859 1.350 . S
C862 C861 1.434 . S
C863 C864 1.369 . S
C863 C865 1.419 . S
C863 H867 0.930 . S
C864 C863 1.369 . S
C864 C873 1.429 . S
C865 C863 1.419 . S
C865 C866 1.363 . S
C865 H868 0.929 . S
C866 C865 1.363 . S
C866 C872 1.428 . S
H867 C863 0.930 . S
H868 C865 0.929 . S
S869 N870 1.613 . S
S869 N871 1.610 . S
N870 S869 1.613 . S
N870 C873 1.350 . S
N871 S869 1.610 . S
N871 C872 1.351 . S
C872 C866 1.428 . S
C872 N871 1.351 . S
C872 C873 1.434 . S
C873 C864 1.429 . S
C873 N870 1.350 . S
C873 C872 1.434 . S
C874 C875 1.369 . S
C874 C876 1.419 . S
C874 H878 0.930 . S
C875 C874 1.369 . S
C875 C884 1.429 . S
C876 C874 1.419 . S
C876 C877 1.363 . S
C876 H879 0.929 . S
C877 C876 1.363 . S
C877 C883 1.428 . S
H878 C874 0.930 . S
H879 C876 0.929 . S
S880 N881 1.613 . S
S880 N882 1.610 . S
N881 S880 1.613 . S
N881 C884 1.350 . S
N882 S880 1.610 . S
N882 C883 1.351 . S
C883 C877 1.428 . S
C883 N882 1.351 . S
C883 C884 1.434 . S
C884 C875 1.429 . S
C884 N881 1.350 . S
C884 C883 1.434 . S
C885 C886 1.369 . S
C885 C887 1.419 . S
C885 H889 0.930 . S
C886 C885 1.369 . S
C886 C895 1.429 . S
C887 C885 1.419 . S
C887 C888 1.363 . S
C887 H890 0.929 . S
C888 C887 1.363 . S
C888 C894 1.428 . S
H889 C885 0.930 . S
H890 C887 0.929 . S
S891 N892 1.613 . S
S891 N893 1.610 . S
N892 S891 1.613 . S
N892 C895 1.350 . S
N893 S891 1.610 . S
N893 C894 1.351 . S
C894 C888 1.428 . S
C894 N893 1.351 . S
C894 C895 1.434 . S
C895 C886 1.429 . S
C895 N892 1.350 . S
C895 C894 1.434 . S
C896 C897 1.369 1_655 S
C896 C898 1.419 . S
C896 H900 0.930 . S
C897 C896 1.369 1_455 S
C897 C906 1.429 . S
C898 C896 1.419 . S
C898 C899 1.363 . S
C898 H901 0.929 . S
C899 C898 1.363 . S
C899 C905 1.428 1_655 S
H900 C896 0.930 . S
H901 C898 0.929 . S
S902 N903 1.613 . S
S902 N904 1.610 . S
N903 S902 1.613 . S
N903 C906 1.350 . S
N904 S902 1.610 . S
N904 C905 1.351 . S
C905 C899 1.428 1_455 S
C905 N904 1.351 . S
C905 C906 1.434 . S
C906 C897 1.429 . S
C906 N903 1.350 . S
C906 C905 1.434 . S
C907 C908 1.369 . S
C907 C909 1.419 1_565 S
C907 H911 0.930 . S
C908 C907 1.369 . S
C908 C917 1.429 . S
C909 C907 1.419 1_545 S
C909 C910 1.363 . S
C909 H912 0.929 . S
C910 C909 1.363 . S
C910 C916 1.428 . S
H911 C907 0.930 . S
H912 C909 0.929 . S
S913 N914 1.613 . S
S913 N915 1.610 1_565 S
N914 S913 1.613 . S
N914 C917 1.350 . S
N915 S913 1.610 1_545 S
N915 C916 1.351 . S
C916 C910 1.428 . S
C916 N915 1.351 . S
C916 C917 1.434 1_545 S
C917 C908 1.429 . S
C917 N914 1.350 . S
C917 C916 1.434 1_565 S
C918 C919 1.369 . S
C918 C920 1.419 . S
C918 H922 0.930 . S
C919 C918 1.369 . S
C919 C928 1.429 1_455 S
C920 C918 1.419 . S
C920 C921 1.363 1_455 S
C920 H923 0.929 . S
C921 C920 1.363 1_655 S
C921 C927 1.428 . S
H922 C918 0.930 . S
H923 C920 0.929 . S
S924 N925 1.613 . S
S924 N926 1.610 . S
N925 S924 1.613 . S
N925 C928 1.350 . S
N926 S924 1.610 . S
N926 C927 1.351 . S
C927 C921 1.428 . S
C927 N926 1.351 . S
C927 C928 1.434 . S
C928 C919 1.429 1_655 S
C928 N925 1.350 . S
C928 C927 1.434 . S
C929 C930 1.369 . S
C929 C931 1.419 . S
C929 H933 0.930 . S
C930 C929 1.369 . S
C930 C939 1.429 1_545 S
C931 C929 1.419 . S
C931 C932 1.363 1_545 S
C931 H934 0.929 . S
C932 C931 1.363 1_565 S
C932 C938 1.428 . S
H933 C929 0.930 . S
H934 C931 0.929 . S
S935 N936 1.613 . S
S935 N937 1.610 . S
N936 S935 1.613 . S
N936 C939 1.350 . S
N937 S935 1.610 . S
N937 C938 1.351 . S
C938 C932 1.428 . S
C938 N937 1.351 . S
C938 C939 1.434 . S
C939 C930 1.429 1_565 S
C939 N936 1.350 . S
C939 C938 1.434 . S
C940 C941 1.369 . S
C940 C942 1.419 1_556 S
C940 H944 0.930 . S
C941 C940 1.369 . S
C941 C950 1.429 . S
C942 C940 1.419 1_554 S
C942 C943 1.363 . S
C942 H945 0.929 . S
C943 C942 1.363 . S
C943 C949 1.428 . S
H944 C940 0.930 . S
H945 C942 0.929 . S
S946 N947 1.613 1_554 S
S946 N948 1.610 . S
N947 S946 1.613 1_556 S
N947 C950 1.350 . S
N948 S946 1.610 . S
N948 C949 1.351 . S
C949 C943 1.428 . S
C949 N948 1.351 . S
C949 C950 1.434 1_554 S
C950 C941 1.429 . S
C950 N947 1.350 . S
C950 C949 1.434 1_556 S
C951 C952 1.369 . S
C951 C953 1.419 1_554 S
C951 H955 0.930 . S
C952 C951 1.369 . S
C952 C961 1.429 . S
C953 C951 1.419 1_556 S
C953 C954 1.363 . S
C953 H956 0.929 . S
C954 C953 1.363 . S
C954 C960 1.428 . S
H955 C951 0.930 . S
H956 C953 0.929 . S
S957 N958 1.613 . S
S957 N959 1.610 1_554 S
N958 S957 1.613 . S
N958 C961 1.350 . S
N959 S957 1.610 1_556 S
N959 C960 1.351 . S
C960 C954 1.428 . S
C960 N959 1.351 . S
C960 C961 1.434 1_556 S
C961 C952 1.429 . S
C961 N958 1.350 . S
C961 C960 1.434 1_554 S
C962 C963 1.369 . S
C962 C964 1.419 1_554 S
C962 H966 0.930 . S
C963 C962 1.369 . S
C963 C972 1.429 . S
C964 C962 1.419 1_556 S
C964 C965 1.363 . S
C964 H967 0.929 . S
C965 C964 1.363 . S
C965 C971 1.428 . S
H966 C962 0.930 . S
H967 C964 0.929 . S
S968 N969 1.613 1_556 S
S968 N970 1.610 . S
N969 S968 1.613 1_554 S
N969 C972 1.350 . S
N970 S968 1.610 . S
N970 C971 1.351 . S
C971 C965 1.428 . S
C971 N970 1.351 . S
C971 C972 1.434 1_556 S
C972 C963 1.429 . S
C972 N969 1.350 . S
C972 C971 1.434 1_554 S
C973 C974 1.369 . S
C973 C975 1.419 1_556 S
C973 H977 0.930 . S
C974 C973 1.369 . S
C974 C983 1.429 . S
C975 C973 1.419 1_554 S
C975 C976 1.363 . S
C975 H978 0.929 . S
C976 C975 1.363 . S
C976 C982 1.428 . S
H977 C973 0.930 . S
H978 C975 0.929 . S
S979 N980 1.613 . S
S979 N981 1.610 1_556 S
N980 S979 1.613 . S
N980 C983 1.350 . S
N981 S979 1.610 1_554 S
N981 C982 1.351 . S
C982 C976 1.428 . S
C982 N981 1.351 . S
C982 C983 1.434 1_554 S
C983 C974 1.429 . S
C983 N980 1.350 . S
C983 C982 1.434 1_556 S
C545 C88 1.143 . S
C547 C20 1.145 . S
C556 C54 1.145 . S
C558 C122 1.143 . S
C567 C224 1.143 . S
C569 C156 1.144 . S
C578 C258 1.143 . S
C580 C190 1.144 . S
C589 C292 1.144 . S
C591 C360 1.144 . S
C600 C394 1.145 . S
C602 C326 1.143 . S
C611 C496 1.143 . S
C613 C428 1.145 . S
C622 C462 1.144 . S
C624 C530 1.144 . S
C633 C9 1.586 . S
C635 C519 1.586 . S
C644 C417 1.583 . S
C646 C43 1.585 . S
C655 C451 1.583 . S
C657 C77 1.581 . S
C666 C485 1.584 . S
C668 C111 1.582 . S
C677 C315 1.586 . S
C679 C145 1.585 . S
C688 C349 1.583 . S
C690 C179 1.581 . S
C699 C383 1.580 . S
C701 C213 1.581 . S
C710 C281 1.585 . S
C712 C247 1.585 . S
C721 C2 1.457 . S
C723 C135 1.460 . S
C732 C33 1.460 . S
C734 C36 1.457 . S
C743 C70 1.456 . S
C745 C67 1.461 . S
C754 C101 1.460 . S
C756 C104 1.457 . S
C765 C203 1.460 . S
C767 C138 1.457 . S
C776 C172 1.457 . S
C778 C237 1.460 . S
C787 C271 1.460 . S
C789 C206 1.457 . S
C798 C169 1.463 . S
C800 C240 1.455 . S
C809 C274 1.457 . S
C811 C407 1.462 . S
C820 C305 1.461 . S
C822 C308 1.455 . S
C831 C342 1.455 . S
C833 C339 1.463 . S
C842 C376 1.457 . S
C844 C373 1.461 . S
C853 C410 1.455 . S
C855 C475 1.461 . S
C864 C509 1.460 . S
C866 C444 1.457 . S
C875 C543 1.461 . S
C877 C478 1.457 . S
C886 C512 1.455 . S
C888 C441 1.463 . S
C897 C5 1.625 . S
C899 C209 1.625 . S
C908 C243 1.624 . S
C910 C39 1.623 . S
C919 C141 1.623 . S
C921 C73 1.624 . S
C930 C175 1.624 . S
C932 C107 1.625 . S
C941 C277 1.625 . S
C943 C481 1.624 . S
C952 C515 1.623 . S
C954 C311 1.624 . S
C963 C413 1.625 . S
C965 C345 1.624 . S
C974 C379 1.623 . S
C976 C447 1.623 . S
