# Generated by pormake.
# Topology hcp, (12)-cn, num edge types: 1
# Building blocks:
#     Node 0, Type 0, BuildingBlock: QEWDON_clean_sbu_0, # of connection points: 12
#     Node 1, Type 0, BuildingBlock: QEWDON_clean_sbu_0, # of connection points: 12
#     Edge 2, Type (0, 0), BuildingBlock: XIVTED_clean_linker_0, # of connection points: 2
#     Edge 3, Type (0, 0), BuildingBlock: XIVTED_clean_linker_0, # of connection points: 2
#     Edge 4, Type (0, 0), BuildingBlock: XIVTED_clean_linker_0, # of connection points: 2
#     Edge 5, Type (0, 0), BuildingBlock: XIVTED_clean_linker_0, # of connection points: 2
#     Edge 6, Type (0, 0), BuildingBlock: XIVTED_clean_linker_0, # of connection points: 2
#     Edge 7, Type (0, 0), BuildingBlock: XIVTED_clean_linker_0, # of connection points: 2
#     Edge 8, Type (0, 0), BuildingBlock: XIVTED_clean_linker_0, # of connection points: 2
#     Edge 9, Type (0, 0), BuildingBlock: XIVTED_clean_linker_0, # of connection points: 2
#     Edge 10, Type (0, 0), BuildingBlock: XIVTED_clean_linker_0, # of connection points: 2
#     Edge 11, Type (0, 0), BuildingBlock: XIVTED_clean_linker_0, # of connection points: 2
#     Edge 12, Type (0, 0), BuildingBlock: XIVTED_clean_linker_0, # of connection points: 2
#     Edge 13, Type (0, 0), BuildingBlock: XIVTED_clean_linker_0, # of connection points: 2
# Relax obj value: 0.193
# Max RMSD: 0.273
# Mean RMSD: 0.273
data_MOF--net-hcp--node1-QEWDON_clean_sbu_0--edge1-XIVTED_clean_linker_0
_symmetry_space_group_name_H-M    P1
_symmetry_Int_Tables_number       1
_symmetry_cell_setting            triclinic
loop_
_symmetry_equiv_pos_as_xyz
'x, y, z'
_cell_length_a     20.657932
_cell_length_b     18.974012
_cell_length_c     32.050175
_cell_angle_alpha  88.133529
_cell_angle_beta   88.733974
_cell_angle_gamma 124.34694
loop_
_atom_site_label
_atom_site_type_symbol
_atom_site_fract_x
_atom_site_fract_y
_atom_site_fract_z
_atom_type_partial_charge
Zn0 Zn 0.70793 0.24024 0.26393 0.0
Zn1 Zn 0.79505 0.40479 0.2008 0.0
O2 O 0.71907 0.35086 0.25025 0.0
H3 H 0.70089 0.37625 0.26845 0.0
C4 C 0.53122 0.05105 0.24303 0.0
O5 O 0.4889 0.05511 0.27283 0.0
Zn6 Zn 0.52974 0.4931 0.22745 0.0
Zn7 Zn 0.43625 0.3323 0.29222 0.0
O8 O 0.48965 0.36907 0.23374 0.0
H9 H 0.47175 0.3299 0.21152 0.0
Zn10 Zn 0.5039 0.16683 0.19252 0.0
O11 O 0.58182 0.29511 0.18828 0.0
Zn12 Zn 0.57123 0.34015 0.13332 0.0
H13 H 0.60056 0.32928 0.21241 0.0
Zn14 Zn 0.59103 0.39549 0.36232 0.0
O15 O 0.62963 0.43723 0.30281 0.0
H16 H 0.60474 0.40432 0.27884 0.0
Zn17 Zn 0.73909 0.54167 0.30366 0.0
C18 C 0.43213 0.25281 0.39351 0.0
O19 O 0.36811 0.17489 0.39451 0.0
O20 O 0.81511 0.26148 0.25215 0.0
O21 O 0.86292 0.35875 0.19882 0.0
O22 O 0.38928 0.40021 0.3049 0.0
O23 O 0.44812 0.50483 0.25523 0.0
O24 O 0.44718 0.12508 0.13834 0.0
O25 O 0.49085 0.24383 0.09906 0.0
C26 C 0.86424 0.57103 0.23512 0.0
O27 O 0.68378 0.43692 0.40002 0.0
O28 O 0.7855 0.53722 0.35871 0.0
O29 O 0.34841 0.20261 0.30096 0.0
C30 C 0.86914 0.31013 0.2245 0.0
O31 O 0.64806 0.17361 0.31964 0.0
C32 C 0.53974 0.48452 0.13778 0.0
O33 O 0.54633 0.09405 0.20872 0.0
C34 C 0.39635 0.46358 0.28498 0.0
O35 O 0.49125 0.27134 0.37063 0.0
C36 C 0.73402 0.4125 0.11387 0.0
O37 O 0.87275 0.52971 0.20775 0.0
O38 O 0.79921 0.53278 0.25621 0.0
C39 C 0.44995 0.16247 0.10399 0.0
O40 O 0.53403 0.52652 0.16598 0.0
O41 O 0.55156 0.42824 0.14939 0.0
C42 C 0.67491 0.62915 0.27245 0.0
O43 O 0.67187 0.39737 0.09812 0.0
O44 O 0.73014 0.39117 0.15227 0.0
C45 C 0.75714 0.49272 0.39334 0.0
O46 O 0.73083 0.64274 0.29476 0.0
O47 O 0.63373 0.55753 0.25579 0.0
C48 C 0.3511 0.14713 0.28142 0.0
O49 O 0.41392 0.17184 0.25776 0.0
C50 C 0.64047 0.21115 0.34959 0.0
O51 O 0.67033 0.29322 0.3449 0.0
Zn52 Zn 0.39985 0.53865 0.75925 0.0
Zn53 Zn 0.4581 0.68359 0.68254 0.0
O54 O 0.37571 0.6189 0.72983 0.0
H55 H 0.35385 0.64337 0.74609 0.0
C56 C 0.21815 0.35315 0.69238 0.0
O57 O 0.15584 0.34259 0.71117 0.0
Zn58 Zn 0.22962 0.8099 0.68126 0.0
Zn59 Zn 0.1089 0.63275 0.72292 0.0
O60 O 0.17987 0.68748 0.67008 0.0
H61 H 0.14354 0.65148 0.69295 0.0
Zn62 Zn 0.22237 0.49836 0.65475 0.0
O63 O 0.27256 0.6172 0.6801 0.0
Zn64 Zn 0.27822 0.66298 0.62248 0.0
H65 H 0.25165 0.62628 0.70504 0.0
Zn66 Zn 0.30008 0.66449 0.84828 0.0
O67 O 0.29472 0.72206 0.79507 0.0
H68 H 0.25066 0.69854 0.77729 0.0
Zn69 Zn 0.40006 0.83328 0.78497 0.0
C70 C 0.16837 0.63757 0.89512 0.0
O71 O 0.1976 0.71231 0.87558 0.0
O72 O 0.51208 0.57459 0.74551 0.0
O73 O 0.54736 0.67473 0.69537 0.0
O74 O 0.08427 0.71448 0.74758 0.0
O75 O 0.14502 0.82451 0.70063 0.0
O76 O 0.13007 0.46155 0.61581 0.0
O77 O 0.17085 0.59563 0.60032 0.0
C78 C 0.51163 0.85364 0.71135 0.0
O79 O 0.38854 0.75561 0.88229 0.0
O80 O 0.45982 0.86818 0.83762 0.0
O81 O 0.00711 0.50854 0.72147 0.0
C82 C 0.56345 0.63302 0.71969 0.0
O83 O 0.38019 0.51076 0.82354 0.0
C84 C 0.32846 0.86077 0.60882 0.0
O85 O 0.25966 0.41719 0.66667 0.0
C86 C 0.09521 0.78276 0.73118 0.0
O87 O 0.19926 0.59713 0.88735 0.0
C88 C 0.39372 0.62496 0.58985 0.0
O89 O 0.51807 0.81177 0.68338 0.0
O90 O 0.45053 0.81508 0.7357 0.0
C91 C 0.12014 0.51587 0.5985 0.0
O92 O 0.29669 0.88705 0.63221 0.0
O93 O 0.30842 0.78421 0.61456 0.0
C94 C 0.33621 0.91185 0.74387 0.0
O95 O 0.3401 0.63778 0.58529 0.0
O96 O 0.42973 0.63986 0.62372 0.0
C97 C 0.44528 0.83316 0.87437 0.0
O98 O 0.38392 0.92642 0.77177 0.0
O99 O 0.30307 0.84122 0.7264 0.0
C100 C 0.00647 0.44124 0.72466 0.0
O101 O 0.07324 0.4485 0.72806 0.0
C102 C 0.41753 0.57306 0.8471 0.0
O103 O 0.45669 0.65136 0.83021 0.0
H104 H 0.5319 1.00843 0.8722 0.0
H105 H 0.35932 0.98842 0.10052 0.0
H106 H 0.41987 0.7859 0.95791 0.0
H107 H 0.49585 0.22121 0.02227 0.0
H108 H 0.37163 0.91099 0.04529 0.0
H109 H 0.524 0.08964 0.927 0.0
C110 C 0.50799 0.97717 0.9029 0.0
C111 C 0.47404 0.88922 0.90997 0.0
C112 C 0.39823 0.97888 0.04003 0.0
C113 C 0.46258 0.98126 0.97228 0.0
C114 C 0.38993 0.0229 0.07126 0.0
C115 C 0.4283 0.11192 0.0665 0.0
C116 C 0.44474 0.0241 0.0037 0.0
C117 C 0.4662 0.15282 0.02764 0.0
C118 C 0.50215 0.02333 0.93396 0.0
C119 C 0.44498 0.85295 0.95064 0.0
N120 N 0.47478 0.10883 -0.00202 0.0
N121 N 0.43816 0.89859 0.97998 0.0
H122 H 0.3176 0.56838 0.51706 0.0
H123 H 0.54956 0.36846 0.44115 0.0
H124 H 0.50588 0.58977 0.58492 0.0
H125 H 0.31875 0.28308 0.40263 0.0
H126 H 0.54966 0.47252 0.48471 0.0
H127 H 0.33381 0.48755 0.46529 0.0
C128 C 0.36301 0.55701 0.52092 0.0
C129 C 0.40992 0.58525 0.55578 0.0
C130 C 0.49936 0.4316 0.4664 0.0
C131 C 0.42839 0.49228 0.49643 0.0
C132 C 0.49968 0.37304 0.44128 0.0
C133 C 0.43445 0.31819 0.41811 0.0
C134 C 0.43345 0.43545 0.46799 0.0
C135 C 0.37003 0.32431 0.42024 0.0
C136 C 0.3719 0.51046 0.49137 0.0
C137 C 0.46797 0.56871 0.55879 0.0
N138 N 0.37118 0.3821 0.44472 0.0
N139 N 0.47529 0.52286 0.5296 0.0
H140 H 0.85938 0.39857 0.11869 0.0
H141 H 0.07335 0.69228 0.90907 0.0
H142 H 0.77321 0.52382 0.04771 0.0
H143 H 0.1212 0.51159 0.9569 0.0
H144 H -0.02546 0.6453 0.96581 0.0
H145 H -0.03056 0.45616 0.06654 0.0
C146 C 0.86464 0.43963 0.09272 0.0
C147 C 0.80735 0.45656 0.08747 0.0
C148 C 0.00653 0.61576 0.96392 0.0
C149 C 0.93153 0.52134 0.02775 0.0
C150 C 0.06291 0.64249 0.93147 0.0
C151 C 0.10532 0.60552 0.92811 0.0
C152 C -0.00723 0.55209 -0.00636 0.0
C153 C 0.08931 0.54128 0.95813 0.0
C154 C 0.92671 0.47155 0.06274 0.0
C155 C 0.81595 0.50887 0.05285 0.0
N156 N 0.03443 0.51674 0.98979 0.0
N157 N 0.8766 0.53917 0.02434 0.0
H158 H 0.38898 0.81587 0.54653 0.0
H159 H 0.60006 0.26634 0.41712 0.0
H160 H 0.38436 0.02758 0.58764 0.0
H161 H 0.58666 0.0463 0.37291 0.0
H162 H 0.52724 0.18334 0.48145 0.0
H163 H 0.46802 0.90288 0.4845 0.0
C164 C 0.40487 0.88082 0.54261 0.0
C165 C 0.3796 0.91432 0.5722 0.0
C166 C 0.5401 0.15317 0.45762 0.0
C167 C 0.47019 0.01442 0.50113 0.0
C168 C 0.58164 0.20053 0.42084 0.0
C169 C 0.59831 0.16276 0.3892 0.0
C170 C 0.51575 0.06763 0.46296 0.0
C171 C 0.57378 0.07752 0.39603 0.0
C172 C 0.44991 0.93046 0.5071 0.0
C173 C 0.40215 0.99899 0.56548 0.0
N174 N 0.53369 0.03286 0.43209 0.0
N175 N 0.44604 0.0461 0.53058 0.0
H176 H 0.51787 0.38781 0.07038 0.0
H177 H 0.47427 0.68714 0.90872 0.0
H178 H 0.53509 0.61561 0.10465 0.0
H179 H 0.38909 0.42617 0.88563 0.0
H180 H 0.50701 0.66681 0.97891 0.0
H181 H 0.48418 0.40701 -0.00011 0.0
C182 C 0.51532 0.44215 0.06303 0.0
C183 C 0.52887 0.49974 0.0936 0.0
C184 C 0.48068 0.61378 0.9586 0.0
C185 C 0.49034 0.52221 0.01317 0.0
C186 C 0.46169 0.62527 0.91855 0.0
C187 C 0.42866 0.55822 0.89126 0.0
C188 C 0.46781 0.53507 0.97133 0.0
C189 C 0.414 0.47949 0.90571 0.0
C190 C 0.49556 0.45281 0.0229 0.0
C191 C 0.52481 0.56928 0.08222 0.0
N192 N 0.43434 0.47031 0.94461 0.0
N193 N 0.50594 0.5785 0.04303 0.0
H194 H 0.90801 0.53972 0.38086 0.0
H195 H -0.00685 0.5182 0.61799 0.0
H196 H 0.72625 0.45574 0.47744 0.0
H197 H 0.10122 0.46276 0.5198 0.0
H198 H 0.90022 0.50954 0.56828 0.0
H199 H -0.01039 0.53202 0.43266 0.0
C200 C 0.88583 0.521 0.41308 0.0
C201 C 0.81051 0.49868 0.425 0.0
C202 C 0.94314 0.49736 0.5579 0.0
C203 C 0.90302 0.48928 0.48406 0.0
C204 C -0.00461 0.5015 0.58622 0.0
C205 C 0.0531 0.48912 0.57286 0.0
C206 C 0.95088 0.4837 0.51582 0.0
C207 C 0.05605 0.47065 0.53123 0.0
C208 C 0.9319 0.51554 0.44243 0.0
C209 C 0.78409 0.47353 0.46704 0.0
N210 N 0.00626 0.46968 0.5039 0.0
N211 N 0.83055 0.47003 0.49519 0.0
H212 H 0.5901 1.0017 0.18208 0.0
H213 H 0.68842 0.73671 0.33134 0.0
H214 H 0.52737 0.96412 0.31416 0.0
H215 H 0.61726 0.66574 0.20568 0.0
H216 H 0.65433 0.84134 0.32497 0.0
H217 H 0.62548 0.89895 0.18952 0.0
C218 C 0.58449 0.97257 0.21276 0.0
C219 C 0.55619 0.992 0.24771 0.0
C220 C 0.64597 0.80249 0.29892 0.0
C221 C 0.59732 0.87516 0.25628 0.0
C222 C 0.66565 0.74328 0.30242 0.0
C223 C 0.65477 0.69218 0.26904 0.0
C224 C 0.61731 0.81202 0.2614 0.0
C225 C 0.62512 0.70295 0.23228 0.0
C226 C 0.60431 0.91366 0.21686 0.0
C227 C 0.54968 0.95168 0.28657 0.0
N228 N 0.60801 0.76231 0.22925 0.0
N229 N 0.57064 0.8955 0.28992 0.0
H230 H -0.00475 0.72492 0.80015 0.0
H231 H 0.68855 0.75438 0.66914 0.0
H232 H 0.05587 0.87446 0.68372 0.0
H233 H 0.62748 0.58421 0.77807 0.0
H234 H 0.82696 0.81794 0.68011 0.0
H235 H 0.86643 0.70116 0.80143 0.0
C236 C -0.01769 0.755 0.77549 0.0
C237 C 0.035 0.79894 0.74094 0.0
C238 C 0.78324 0.76679 0.70163 0.0
C239 C 0.88753 0.77029 0.74171 0.0
C240 C 0.70416 0.72974 0.69514 0.0
C241 C 0.64626 0.66333 0.72256 0.0
C242 C 0.80463 0.73728 0.73576 0.0
C243 C 0.67003 0.63461 0.75588 0.0
C244 C 0.90843 0.74061 0.77601 0.0
C245 C 0.01615 0.83837 0.71044 0.0
N246 N 0.74749 0.6718 0.76153 0.0
N247 N 0.94284 0.82111 0.71091 0.0
H248 H 0.20928 0.0748 0.32495 0.0
H249 H 0.00247 0.66273 0.19 0.0
H250 H 0.33057 0.0182 0.2351 0.0
H251 H 0.8836 0.67748 0.29846 0.0
H252 H 0.12014 0.79848 0.2048 0.0
H253 H 0.08834 0.93386 0.3159 0.0
C254 C 0.21075 0.03251 0.30365 0.0
C255 C 0.28014 0.05874 0.28044 0.0
C256 C 0.06858 0.77247 0.22551 0.0
C257 C 0.14192 0.89821 0.26971 0.0
C258 C 0.00076 0.69473 0.21696 0.0
C259 C 0.93257 0.65807 0.2431 0.0
C260 C 0.06908 0.81531 0.2604 0.0
C261 C 0.93459 0.7034 0.2774 0.0
C262 C 0.14165 0.9522 0.29851 0.0
C263 C 0.2786 1.00117 0.25348 0.0
N264 N 0.00197 0.77996 0.28511 0.0
N265 N 0.21056 0.92415 0.24863 0.0
H266 H 0.14275 0.21311 0.74703 0.0
H267 H 0.4032 0.03827 0.68162 0.0
H268 H 0.33603 0.34618 0.65503 0.0
H269 H 0.22983 0.92945 0.78392 0.0
H270 H 0.37608 0.14768 0.66825 0.0
H271 H 0.17059 0.10528 0.75816 0.0
C272 C 0.19128 0.2199 0.72919 0.0
C273 C 0.23706 0.28907 0.70002 0.0
C274 C 0.34368 0.09964 0.69348 0.0
C275 C 0.2693 0.16478 0.71261 0.0
C276 C 0.35889 0.0372 0.70092 0.0
C277 C 0.31787 0.97474 0.73355 0.0
C278 C 0.28701 0.09921 0.71892 0.0
C279 C 0.26206 0.97638 0.75823 0.0
C280 C 0.20718 0.15808 0.73559 0.0
C281 C 0.29919 0.29406 0.67787 0.0
N282 N 0.24805 0.03737 0.75034 0.0
N283 N 0.31337 0.23267 0.68455 0.0
H284 H 0.36912 0.56317 0.23463 0.0
H285 H 0.90928 0.22891 0.27935 0.0
H286 H 0.26625 0.37549 0.33856 0.0
H287 H 0.00864 0.4337 0.18358 0.0
H288 H 0.04094 0.28261 0.30093 0.0
H289 H 0.23887 0.52656 0.21925 0.0
C290 C 0.31964 0.51622 0.2551 0.0
C291 C 0.32843 0.47018 0.28707 0.0
C292 C 0.03402 0.31563 0.27506 0.0
C293 C 0.17914 0.42647 0.26882 0.0
C294 C -0.04121 0.28418 0.26224 0.0
C295 C 0.94758 0.32717 0.22976 0.0
C296 C 0.09873 0.39037 0.25514 0.0
C297 C 0.01426 0.39846 0.20883 0.0
C298 C 0.24501 0.49444 0.24586 0.0
C299 C 0.26215 0.41111 0.31288 0.0
N300 N 0.08701 0.42822 0.22211 0.0
N301 N 0.18999 0.38939 0.30254 0.0
H302 H 0.85627 0.40211 0.7239 0.0
H303 H 0.6614 0.90306 0.70637 0.0
H304 H -0.01548 0.28483 0.7271 0.0
H305 H 0.52115 1.00142 0.73076 0.0
H306 H 0.77967 0.04489 0.71235 0.0
H307 H 0.73305 0.25946 0.72464 0.0
C308 C 0.85863 0.3465 0.72479 0.0
C309 C 0.93111 0.35564 0.72526 0.0
C310 C 0.72333 0.03603 0.71668 0.0
C311 C 0.79025 0.19241 0.72612 0.0
C312 C 0.65554 0.9549 0.71311 0.0
C313 C 0.58122 0.94046 0.71796 0.0
C314 C 0.71758 0.10458 0.72462 0.0
C315 C 0.57726 1.00976 0.72716 0.0
C316 C 0.78819 0.26513 0.72539 0.0
C317 C 0.93036 0.28124 0.72657 0.0
N318 N 0.64475 0.08938 0.72978 0.0
N319 N 0.86127 0.20312 0.72677 0.0
loop_
_geom_bond_atom_site_label_1
_geom_bond_atom_site_label_2
_geom_bond_distance
_geom_bond_site_symmetry_2
_ccdc_geom_bond_type
Zn0 O2 1.933 . S
Zn0 O20 1.985 . S
Zn0 O31 1.955 . S
Zn1 O2 1.911 . S
Zn1 O21 1.970 . S
Zn1 O37 1.945 . S
Zn1 O44 1.981 . S
O2 Zn0 1.933 . S
O2 Zn1 1.911 . S
O2 H3 0.841 . S
H3 O2 0.841 . S
C4 O5 1.246 . S
C4 O33 1.276 . S
O5 C4 1.246 . S
Zn6 O8 1.911 . S
Zn6 O23 1.970 . S
Zn6 O40 1.945 . S
Zn6 O47 1.981 . S
Zn7 O8 1.933 . S
Zn7 O22 1.985 . S
Zn7 O29 1.955 . S
O8 Zn6 1.911 . S
O8 Zn7 1.933 . S
O8 H9 0.841 . S
H9 O8 0.841 . S
Zn10 O11 1.933 . S
Zn10 O24 1.985 . S
Zn10 O33 1.955 . S
O11 Zn10 1.933 . S
O11 Zn12 1.911 . S
O11 H13 0.841 . S
Zn12 O11 1.911 . S
Zn12 O25 1.970 . S
Zn12 O41 1.981 . S
Zn12 O43 1.945 . S
H13 O11 0.841 . S
Zn14 O15 1.933 . S
Zn14 O27 1.985 . S
Zn14 O35 1.955 . S
O15 Zn14 1.933 . S
O15 H16 0.841 . S
O15 Zn17 1.911 . S
H16 O15 0.841 . S
Zn17 O15 1.911 . S
Zn17 O28 1.970 . S
Zn17 O38 1.981 . S
Zn17 O46 1.945 . S
C18 O19 1.246 . S
C18 O35 1.276 . S
O19 C18 1.246 . S
O20 Zn0 1.985 . S
O20 C30 1.245 . S
O21 Zn1 1.970 . S
O21 C30 1.263 . S
O22 Zn7 1.985 . S
O22 C34 1.245 . S
O23 Zn6 1.970 . S
O23 C34 1.263 . S
O24 Zn10 1.985 . S
O24 C39 1.245 . S
O25 Zn12 1.970 . S
O25 C39 1.263 . S
C26 O37 1.262 . S
C26 O38 1.245 . S
O27 Zn14 1.985 . S
O27 C45 1.245 . S
O28 Zn17 1.970 . S
O28 C45 1.263 . S
O29 Zn7 1.955 . S
O29 C48 1.276 . S
C30 O20 1.245 . S
C30 O21 1.263 . S
O31 Zn0 1.955 . S
O31 C50 1.276 . S
C32 O40 1.262 . S
C32 O41 1.245 . S
O33 C4 1.276 . S
O33 Zn10 1.955 . S
C34 O22 1.245 . S
C34 O23 1.263 . S
O35 Zn14 1.955 . S
O35 C18 1.276 . S
C36 O43 1.262 . S
C36 O44 1.245 . S
O37 Zn1 1.945 . S
O37 C26 1.262 . S
O38 Zn17 1.981 . S
O38 C26 1.245 . S
C39 O24 1.245 . S
C39 O25 1.263 . S
O40 Zn6 1.945 . S
O40 C32 1.262 . S
O41 Zn12 1.981 . S
O41 C32 1.245 . S
C42 O46 1.262 . S
C42 O47 1.245 . S
O43 Zn12 1.945 . S
O43 C36 1.262 . S
O44 Zn1 1.981 . S
O44 C36 1.245 . S
C45 O27 1.245 . S
C45 O28 1.263 . S
O46 Zn17 1.945 . S
O46 C42 1.262 . S
O47 Zn6 1.981 . S
O47 C42 1.245 . S
C48 O29 1.276 . S
C48 O49 1.246 . S
O49 C48 1.246 . S
C50 O31 1.276 . S
C50 O51 1.246 . S
O51 C50 1.246 . S
Zn52 O54 1.933 . S
Zn52 O72 1.985 . S
Zn52 O83 1.955 . S
Zn53 O54 1.911 . S
Zn53 O73 1.970 . S
Zn53 O89 1.945 . S
Zn53 O96 1.981 . S
O54 Zn52 1.933 . S
O54 Zn53 1.911 . S
O54 H55 0.841 . S
H55 O54 0.841 . S
C56 O57 1.246 . S
C56 O85 1.276 . S
O57 C56 1.246 . S
Zn58 O60 1.911 . S
Zn58 O75 1.970 . S
Zn58 O92 1.945 . S
Zn58 O99 1.981 . S
Zn59 O60 1.933 . S
Zn59 O74 1.985 . S
Zn59 O81 1.955 . S
O60 Zn58 1.911 . S
O60 Zn59 1.933 . S
O60 H61 0.841 . S
H61 O60 0.841 . S
Zn62 O63 1.933 . S
Zn62 O76 1.985 . S
Zn62 O85 1.955 . S
O63 Zn62 1.933 . S
O63 Zn64 1.911 . S
O63 H65 0.841 . S
Zn64 O63 1.911 . S
Zn64 O77 1.970 . S
Zn64 O93 1.981 . S
Zn64 O95 1.945 . S
H65 O63 0.841 . S
Zn66 O67 1.933 . S
Zn66 O79 1.985 . S
Zn66 O87 1.955 . S
O67 Zn66 1.933 . S
O67 H68 0.841 . S
O67 Zn69 1.911 . S
H68 O67 0.841 . S
Zn69 O67 1.911 . S
Zn69 O80 1.970 . S
Zn69 O90 1.981 . S
Zn69 O98 1.945 . S
C70 O71 1.246 . S
C70 O87 1.276 . S
O71 C70 1.246 . S
O72 Zn52 1.985 . S
O72 C82 1.245 . S
O73 Zn53 1.970 . S
O73 C82 1.263 . S
O74 Zn59 1.985 . S
O74 C86 1.245 . S
O75 Zn58 1.970 . S
O75 C86 1.263 . S
O76 Zn62 1.985 . S
O76 C91 1.245 . S
O77 Zn64 1.970 . S
O77 C91 1.263 . S
C78 O89 1.262 . S
C78 O90 1.245 . S
O79 Zn66 1.985 . S
O79 C97 1.245 . S
O80 Zn69 1.970 . S
O80 C97 1.263 . S
O81 Zn59 1.955 . S
O81 C100 1.276 . S
C82 O72 1.245 . S
C82 O73 1.263 . S
O83 Zn52 1.955 . S
O83 C102 1.276 . S
C84 O92 1.262 . S
C84 O93 1.245 . S
O85 C56 1.276 . S
O85 Zn62 1.955 . S
C86 O74 1.245 . S
C86 O75 1.263 . S
O87 Zn66 1.955 . S
O87 C70 1.276 . S
C88 O95 1.262 . S
C88 O96 1.245 . S
O89 Zn53 1.945 . S
O89 C78 1.262 . S
O90 Zn69 1.981 . S
O90 C78 1.245 . S
C91 O76 1.245 . S
C91 O77 1.263 . S
O92 Zn58 1.945 . S
O92 C84 1.262 . S
O93 Zn64 1.981 . S
O93 C84 1.245 . S
C94 O98 1.262 . S
C94 O99 1.245 . S
O95 Zn64 1.945 . S
O95 C88 1.262 . S
O96 Zn53 1.981 . S
O96 C88 1.245 . S
C97 O79 1.245 . S
C97 O80 1.263 . S
O98 Zn69 1.945 . S
O98 C94 1.262 . S
O99 Zn58 1.981 . S
O99 C94 1.245 . S
C100 O81 1.276 . S
C100 O101 1.246 . S
O101 C100 1.246 . S
C102 O83 1.276 . S
C102 O103 1.246 . S
O103 C102 1.246 . S
H104 C110 0.930 . S
H105 C114 0.930 . S
H106 C119 0.929 . S
H107 C117 0.929 . S
H108 C112 0.929 . S
H109 C118 0.929 . S
C110 H104 0.930 . S
C110 C111 1.367 . S
C110 C118 1.378 1_565 S
C111 C110 1.367 . S
C111 C119 1.433 . S
C112 H108 0.929 . S
C112 C114 1.378 1_565 S
C112 C116 1.350 1_565 S
C113 C116 1.463 1_566 S
C113 C118 1.350 1_565 S
C113 N121 1.427 . S
C114 H105 0.930 . S
C114 C112 1.378 1_545 S
C114 C115 1.367 . S
C115 C114 1.367 . S
C115 C117 1.433 . S
C116 C112 1.350 1_545 S
C116 C113 1.463 1_544 S
C116 N120 1.427 . S
C117 H107 0.929 . S
C117 C115 1.433 . S
C117 N120 1.384 . S
C118 H109 0.929 . S
C118 C110 1.378 1_545 S
C118 C113 1.350 1_545 S
C119 H106 0.929 . S
C119 C111 1.433 . S
C119 N121 1.384 . S
N120 C116 1.427 . S
N120 C117 1.384 . S
N121 C113 1.427 . S
N121 C119 1.384 . S
H122 C128 0.930 . S
H123 C132 0.930 . S
H124 C137 0.929 . S
H125 C135 0.929 . S
H126 C130 0.929 . S
H127 C136 0.929 . S
C128 H122 0.930 . S
C128 C129 1.367 . S
C128 C136 1.378 . S
C129 C128 1.367 . S
C129 C137 1.433 . S
C130 H126 0.929 . S
C130 C132 1.378 . S
C130 C134 1.350 . S
C131 C134 1.463 . S
C131 C136 1.350 . S
C131 N139 1.427 . S
C132 H123 0.930 . S
C132 C130 1.378 . S
C132 C133 1.367 . S
C133 C132 1.367 . S
C133 C135 1.433 . S
C134 C130 1.350 . S
C134 C131 1.463 . S
C134 N138 1.427 . S
C135 H125 0.929 . S
C135 C133 1.433 . S
C135 N138 1.384 . S
C136 H127 0.929 . S
C136 C128 1.378 . S
C136 C131 1.350 . S
C137 H124 0.929 . S
C137 C129 1.433 . S
C137 N139 1.384 . S
N138 C134 1.427 . S
N138 C135 1.384 . S
N139 C131 1.427 . S
N139 C137 1.384 . S
H140 C146 0.930 . S
H141 C150 0.930 . S
H142 C155 0.929 . S
H143 C153 0.929 . S
H144 C148 0.929 . S
H145 C154 0.929 . S
C146 H140 0.930 . S
C146 C147 1.367 . S
C146 C154 1.378 1_655 S
C147 C146 1.367 . S
C147 C155 1.433 . S
C148 H144 0.929 . S
C148 C150 1.378 1_655 S
C148 C152 1.350 1_655 S
C149 C152 1.463 1_654 S
C149 C154 1.350 1_655 S
C149 N157 1.427 . S
C150 H141 0.930 . S
C150 C148 1.378 1_455 S
C150 C151 1.367 . S
C151 C150 1.367 . S
C151 C153 1.433 . S
C152 C148 1.350 1_455 S
C152 C149 1.463 1_456 S
C152 N156 1.427 . S
C153 H143 0.929 . S
C153 C151 1.433 . S
C153 N156 1.384 . S
C154 H145 0.929 . S
C154 C146 1.378 1_455 S
C154 C149 1.350 1_455 S
C155 H142 0.929 . S
C155 C147 1.433 . S
C155 N157 1.384 . S
N156 C152 1.427 . S
N156 C153 1.384 . S
N157 C149 1.427 . S
N157 C155 1.384 . S
H158 C164 0.930 . S
H159 C168 0.930 . S
H160 C173 0.929 . S
H161 C171 0.929 . S
H162 C166 0.929 . S
H163 C172 0.929 . S
C164 H158 0.930 . S
C164 C165 1.367 . S
C164 C172 1.378 . S
C165 C164 1.367 . S
C165 C173 1.433 . S
C166 H162 0.929 . S
C166 C168 1.378 . S
C166 C170 1.350 . S
C167 C170 1.463 1_565 S
C167 C172 1.350 . S
C167 N175 1.427 . S
C168 H159 0.930 . S
C168 C166 1.378 . S
C168 C169 1.367 . S
C169 C168 1.367 . S
C169 C171 1.433 . S
C170 C166 1.350 . S
C170 C167 1.463 1_545 S
C170 N174 1.427 . S
C171 H161 0.929 . S
C171 C169 1.433 . S
C171 N174 1.384 . S
C172 H163 0.929 . S
C172 C164 1.378 . S
C172 C167 1.350 . S
C173 H160 0.929 . S
C173 C165 1.433 . S
C173 N175 1.384 . S
N174 C170 1.427 . S
N174 C171 1.384 . S
N175 C167 1.427 . S
N175 C173 1.384 . S
H176 C182 0.930 . S
H177 C186 0.930 . S
H178 C191 0.929 . S
H179 C189 0.929 . S
H180 C184 0.929 1_554 S
H181 C190 0.929 1_556 S
C182 H176 0.930 . S
C182 C183 1.367 . S
C182 C190 1.378 . S
C183 C182 1.367 . S
C183 C191 1.433 . S
C184 H180 0.929 1_556 S
C184 C186 1.378 . S
C184 C188 1.350 . S
C185 C188 1.463 1_554 S
C185 C190 1.350 . S
C185 N193 1.427 . S
C186 H177 0.930 . S
C186 C184 1.378 . S
C186 C187 1.367 . S
C187 C186 1.367 . S
C187 C189 1.433 . S
C188 C184 1.350 . S
C188 C185 1.463 1_556 S
C188 N192 1.427 . S
C189 H179 0.929 . S
C189 C187 1.433 . S
C189 N192 1.384 . S
C190 H181 0.929 1_554 S
C190 C182 1.378 . S
C190 C185 1.350 . S
C191 H178 0.929 . S
C191 C183 1.433 . S
C191 N193 1.384 . S
N192 C188 1.427 . S
N192 C189 1.384 . S
N193 C185 1.427 . S
N193 C191 1.384 . S
H194 C200 0.930 . S
H195 C204 0.930 . S
H196 C209 0.929 . S
H197 C207 0.929 . S
H198 C202 0.929 . S
H199 C208 0.929 . S
C200 H194 0.930 . S
C200 C201 1.367 . S
C200 C208 1.378 . S
C201 C200 1.367 . S
C201 C209 1.433 . S
C202 H198 0.929 . S
C202 C204 1.378 . S
C202 C206 1.350 . S
C203 C206 1.463 1_655 S
C203 C208 1.350 . S
C203 N211 1.427 . S
C204 H195 0.930 . S
C204 C202 1.378 . S
C204 C205 1.367 . S
C205 C204 1.367 . S
C205 C207 1.433 . S
C206 C202 1.350 . S
C206 C203 1.463 1_455 S
C206 N210 1.427 . S
C207 H197 0.929 . S
C207 C205 1.433 . S
C207 N210 1.384 . S
C208 H199 0.929 . S
C208 C200 1.378 . S
C208 C203 1.350 . S
C209 H196 0.929 . S
C209 C201 1.433 . S
C209 N211 1.384 . S
N210 C206 1.427 . S
N210 C207 1.384 . S
N211 C203 1.427 . S
N211 C209 1.384 . S
H212 C218 0.930 1_545 S
H213 C222 0.930 . S
H214 C227 0.924 1_545 S
H215 C225 0.929 . S
H216 C220 0.929 . S
H217 C226 0.929 . S
C218 H212 0.930 1_565 S
C218 C219 1.367 1_565 S
C218 C226 1.378 . S
C219 C218 1.367 1_545 S
C219 C227 1.433 1_545 S
C220 H216 0.929 . S
C220 C222 1.378 . S
C220 C224 1.350 . S
C221 C224 1.463 . S
C221 C226 1.350 . S
C221 N229 1.427 . S
C222 H213 0.930 . S
C222 C220 1.378 . S
C222 C223 1.367 . S
C223 C222 1.367 . S
C223 C225 1.433 . S
C224 C220 1.350 . S
C224 C221 1.463 . S
C224 N228 1.427 . S
C225 H215 0.929 . S
C225 C223 1.433 . S
C225 N228 1.384 . S
C226 H217 0.929 . S
C226 C218 1.378 . S
C226 C221 1.350 . S
C227 H214 0.924 1_565 S
C227 C219 1.433 1_565 S
C227 N229 1.384 . S
N228 C224 1.427 . S
N228 C225 1.384 . S
N229 C221 1.427 . S
N229 C227 1.384 . S
H230 C236 0.930 1_455 S
H231 C240 0.930 . S
H232 C245 0.929 . S
H233 C243 0.929 . S
H234 C238 0.929 . S
H235 C244 0.929 . S
C236 H230 0.930 1_655 S
C236 C237 1.367 1_655 S
C236 C244 1.378 . S
C237 C236 1.367 1_455 S
C237 C245 1.433 . S
C238 H234 0.929 . S
C238 C240 1.378 . S
C238 C242 1.350 . S
C239 C242 1.463 . S
C239 C244 1.350 . S
C239 N247 1.427 . S
C240 H231 0.930 . S
C240 C238 1.378 . S
C240 C241 1.367 . S
C241 C240 1.367 . S
C241 C243 1.433 . S
C242 C238 1.350 . S
C242 C239 1.463 . S
C242 N246 1.427 . S
C243 H233 0.929 . S
C243 C241 1.433 . S
C243 N246 1.384 . S
C244 H235 0.929 . S
C244 C236 1.378 . S
C244 C239 1.350 . S
C245 H232 0.929 . S
C245 C237 1.433 . S
C245 N247 1.384 1_455 S
N246 C242 1.427 . S
N246 C243 1.384 . S
N247 C239 1.427 . S
N247 C245 1.384 1_655 S
H248 C254 0.930 . S
H249 C258 0.930 . S
H250 C263 0.929 . S
H251 C261 0.929 . S
H252 C256 0.929 . S
H253 C262 0.929 . S
C254 H248 0.930 . S
C254 C255 1.367 . S
C254 C262 1.378 1_545 S
C255 C254 1.367 . S
C255 C263 1.433 1_545 S
C256 H252 0.929 . S
C256 C258 1.378 . S
C256 C260 1.350 . S
C257 C260 1.463 . S
C257 C262 1.350 . S
C257 N265 1.427 . S
C258 H249 0.930 . S
C258 C256 1.378 . S
C258 C259 1.367 1_455 S
C259 C258 1.367 1_655 S
C259 C261 1.433 . S
C260 C256 1.350 . S
C260 C257 1.463 . S
C260 N264 1.427 . S
C261 H251 0.929 . S
C261 C259 1.433 . S
C261 N264 1.384 1_655 S
C262 H253 0.929 . S
C262 C254 1.378 1_565 S
C262 C257 1.350 . S
C263 H250 0.929 . S
C263 C255 1.433 1_565 S
C263 N265 1.384 . S
N264 C260 1.427 . S
N264 C261 1.384 1_455 S
N265 C257 1.427 . S
N265 C263 1.384 . S
H266 C272 0.930 . S
H267 C276 0.930 . S
H268 C281 0.929 . S
H269 C279 0.929 . S
H270 C274 0.929 . S
H271 C280 0.929 . S
C272 H266 0.930 . S
C272 C273 1.367 . S
C272 C280 1.378 . S
C273 C272 1.367 . S
C273 C281 1.433 . S
C274 H270 0.929 . S
C274 C276 1.378 . S
C274 C278 1.350 . S
C275 C278 1.463 . S
C275 C280 1.350 . S
C275 N283 1.427 . S
C276 H267 0.930 . S
C276 C274 1.378 . S
C276 C277 1.367 1_545 S
C277 C276 1.367 1_565 S
C277 C279 1.433 . S
C278 C274 1.350 . S
C278 C275 1.463 . S
C278 N282 1.427 . S
C279 H269 0.929 . S
C279 C277 1.433 . S
C279 N282 1.384 1_565 S
C280 H271 0.929 . S
C280 C272 1.378 . S
C280 C275 1.350 . S
C281 H268 0.929 . S
C281 C273 1.433 . S
C281 N283 1.384 . S
N282 C278 1.427 . S
N282 C279 1.384 1_545 S
N283 C275 1.427 . S
N283 C281 1.384 . S
H284 C290 0.930 . S
H285 C294 0.930 . S
H286 C299 0.929 . S
H287 C297 0.929 1_655 S
H288 C292 0.929 . S
H289 C298 0.929 . S
C290 H284 0.930 . S
C290 C291 1.367 . S
C290 C298 1.378 . S
C291 C290 1.367 . S
C291 C299 1.433 . S
C292 H288 0.929 . S
C292 C294 1.378 1_455 S
C292 C296 1.350 . S
C293 C296 1.463 . S
C293 C298 1.350 . S
C293 N301 1.427 . S
C294 H285 0.930 . S
C294 C292 1.378 1_655 S
C294 C295 1.367 . S
C295 C294 1.367 . S
C295 C297 1.433 1_655 S
C296 C292 1.350 . S
C296 C293 1.463 . S
C296 N300 1.427 . S
C297 H287 0.929 1_455 S
C297 C295 1.433 1_455 S
C297 N300 1.384 . S
C298 H289 0.929 . S
C298 C290 1.378 . S
C298 C293 1.350 . S
C299 H286 0.929 . S
C299 C291 1.433 . S
C299 N301 1.384 . S
N300 C296 1.427 . S
N300 C297 1.384 . S
N301 C293 1.427 . S
N301 C299 1.384 . S
H302 C308 0.930 . S
H303 C312 0.930 . S
H304 C317 0.929 . S
H305 C315 0.929 . S
H306 C310 0.929 . S
H307 C316 0.929 . S
C308 H302 0.930 . S
C308 C309 1.367 1_655 S
C308 C316 1.378 . S
C309 C308 1.367 1_455 S
C309 C317 1.433 . S
C310 H306 0.929 . S
C310 C312 1.378 1_545 S
C310 C314 1.350 . S
C311 C314 1.463 . S
C311 C316 1.350 . S
C311 N319 1.427 . S
C312 H303 0.930 . S
C312 C310 1.378 1_565 S
C312 C313 1.367 . S
C313 C312 1.367 . S
C313 C315 1.433 1_565 S
C314 C310 1.350 . S
C314 C311 1.463 . S
C314 N318 1.427 . S
C315 H305 0.929 . S
C315 C313 1.433 1_545 S
C315 N318 1.384 . S
C316 H307 0.929 . S
C316 C308 1.378 . S
C316 C311 1.350 . S
C317 H304 0.929 . S
C317 C309 1.433 . S
C317 N319 1.384 1_455 S
N318 C314 1.427 . S
N318 C315 1.384 . S
N319 C311 1.427 . S
N319 C317 1.384 1_655 S
C111 C97 0.656 . S
C115 C39 0.655 . S
C129 C88 2.445 . S
C133 C18 2.416 . S
C147 C36 1.800 . S
C151 C70 1.787 . S
C165 C84 2.817 . S
C169 C50 2.819 . S
C183 C32 1.796 . S
C187 C102 1.782 . S
C201 C45 1.851 . S
C205 C91 1.852 . S
C219 C4 1.332 . S
C223 C42 1.341 . S
C237 C86 0.764 . S
C241 C82 0.764 . S
C255 C48 1.388 . S
C259 C26 1.398 . S
C273 C56 1.348 . S
C277 C94 1.357 . S
C291 C34 0.781 . S
C295 C30 0.781 . S
C309 C100 1.386 . S
C313 C78 1.395 . S
