# Generated by pormake.
# Topology smt, (6)-cn, num edge types: 1
# Building blocks:
#     Node 0, Type 0, BuildingBlock: VOLQOD_clean_sbu_1, # of connection points: 6
#     Node 1, Type 0, BuildingBlock: VOLQOD_clean_sbu_1, # of connection points: 6
#     Node 2, Type 0, BuildingBlock: VOLQOD_clean_sbu_1, # of connection points: 6
#     Node 3, Type 0, BuildingBlock: VOLQOD_clean_sbu_1, # of connection points: 6
#     Node 4, Type 0, BuildingBlock: VOLQOD_clean_sbu_1, # of connection points: 6
#     Node 5, Type 0, BuildingBlock: VOLQOD_clean_sbu_1, # of connection points: 6
#     Edge 6, Type (0, 0), BuildingBlock: EZIPEK_clean_linker_0, # of connection points: 2
#     Edge 7, Type (0, 0), BuildingBlock: EZIPEK_clean_linker_0, # of connection points: 2
#     Edge 8, Type (0, 0), BuildingBlock: EZIPEK_clean_linker_0, # of connection points: 2
#     Edge 9, Type (0, 0), BuildingBlock: EZIPEK_clean_linker_0, # of connection points: 2
#     Edge 10, Type (0, 0), BuildingBlock: EZIPEK_clean_linker_0, # of connection points: 2
#     Edge 11, Type (0, 0), BuildingBlock: EZIPEK_clean_linker_0, # of connection points: 2
#     Edge 12, Type (0, 0), BuildingBlock: EZIPEK_clean_linker_0, # of connection points: 2
#     Edge 13, Type (0, 0), BuildingBlock: EZIPEK_clean_linker_0, # of connection points: 2
#     Edge 14, Type (0, 0), BuildingBlock: EZIPEK_clean_linker_0, # of connection points: 2
#     Edge 15, Type (0, 0), BuildingBlock: EZIPEK_clean_linker_0, # of connection points: 2
#     Edge 16, Type (0, 0), BuildingBlock: EZIPEK_clean_linker_0, # of connection points: 2
#     Edge 17, Type (0, 0), BuildingBlock: EZIPEK_clean_linker_0, # of connection points: 2
#     Edge 18, Type (0, 0), BuildingBlock: EZIPEK_clean_linker_0, # of connection points: 2
#     Edge 19, Type (0, 0), BuildingBlock: EZIPEK_clean_linker_0, # of connection points: 2
#     Edge 20, Type (0, 0), BuildingBlock: EZIPEK_clean_linker_0, # of connection points: 2
#     Edge 21, Type (0, 0), BuildingBlock: EZIPEK_clean_linker_0, # of connection points: 2
#     Edge 22, Type (0, 0), BuildingBlock: EZIPEK_clean_linker_0, # of connection points: 2
#     Edge 23, Type (0, 0), BuildingBlock: EZIPEK_clean_linker_0, # of connection points: 2
# Relax obj value: 0.336
# Max RMSD: 0.251
# Mean RMSD: 0.251
data_MOF--net-smt--node1-VOLQOD_clean_sbu_1--edge1-EZIPEK_clean_linker_0
_symmetry_space_group_name_H-M    P1
_symmetry_Int_Tables_number       1
_symmetry_cell_setting            triclinic
loop_
_symmetry_equiv_pos_as_xyz
'x, y, z'
_cell_length_a     28.225607
_cell_length_b     28.644977
_cell_length_c     20.808062
_cell_angle_alpha  89.884981
_cell_angle_beta   90.062481
_cell_angle_gamma 120.51776
loop_
_atom_site_label
_atom_site_type_symbol
_atom_site_fract_x
_atom_site_fract_y
_atom_site_fract_z
_atom_type_partial_charge
O0 O 0.47261 0.01997 0.08162 0.0
Zn1 Zn 0.4939 0.06708 0.0014 0.0
O2 O 0.44454 0.09403 -0.00846 0.0
Zn3 Zn 0.41622 0.08254 0.90611 0.0
Zn4 Zn 0.3844 0.05668 0.04828 0.0
Zn5 Zn 0.47942 0.16841 0.01309 0.0
O6 O 0.42782 0.15195 0.86665 0.0
O7 O 0.49571 0.2097 0.93128 0.0
O8 O 0.49763 0.03006 0.91964 0.0
O9 O 0.45944 0.06165 0.85173 0.0
O10 O 0.34069 0.01461 0.90173 0.0
O11 O 0.32948 -0.00969 0.00479 0.0
O12 O 0.35214 0.10201 0.07107 0.0
O13 O 0.56919 0.12949 0.02056 0.0
O14 O 0.42571 0.18432 0.05886 0.0
O15 O 0.55087 0.1909 0.06015 0.0
C16 C 0.44152 0.01594 0.1285 0.0
C17 C 0.46806 0.19915 0.87952 0.0
C18 C 0.31593 0.97968 0.94612 0.0
C19 C 0.48564 0.03729 0.86272 0.0
C20 C 0.37547 0.15328 0.07455 0.0
C21 C 0.58365 0.17295 0.05173 0.0
O22 O 0.40837 0.03362 0.12533 0.0
O23 O 0.42387 0.44974 0.27582 0.0
Zn24 Zn 0.40365 0.4715 0.19241 0.0
O25 O 0.32593 0.42509 0.17553 0.0
Zn26 Zn 0.31391 0.39857 0.08851 0.0
Zn27 Zn 0.29581 0.36481 0.23364 0.0
Zn28 Zn 0.28888 0.46416 0.1915 0.0
O29 O 0.26504 0.41923 0.03902 0.0
O30 O 0.2648 0.47805 0.10856 0.0
O31 O 0.45093 0.48113 0.11475 0.0
O32 O 0.3849 0.4392 0.04165 0.0
O33 O 0.29215 0.31896 0.08764 0.0
O34 O 0.29459 0.30236 0.19109 0.0
O35 O 0.21856 0.34237 0.2589 0.0
O36 O 0.42002 0.54602 0.21284 0.0
O37 O 0.21976 0.41947 0.2408 0.0
O38 O 0.33805 0.53576 0.23408 0.0
C39 C 0.39304 0.41952 0.32116 0.0
C40 C 0.25438 0.4563 0.05323 0.0
C41 C 0.289 0.28713 0.1328 0.0
C42 C 0.4353 0.4686 0.05665 0.0
C43 C 0.19557 0.3707 0.2605 0.0
C44 C 0.3903 0.56431 0.23355 0.0
O45 O 0.34209 0.38586 0.31289 0.0
O46 O 0.94011 0.42926 0.45346 0.0
Zn47 Zn 0.89758 0.41686 0.37029 0.0
O48 O 0.86501 0.34229 0.34304 0.0
Zn49 Zn 0.89006 0.33673 0.25909 0.0
Zn50 Zn 0.88733 0.30641 0.40277 0.0
Zn51 Zn 0.78634 0.30597 0.34251 0.0
O52 O 0.82737 0.28784 0.1995 0.0
O53 O 0.7595 0.2894 0.25221 0.0
O54 O 0.93919 0.46874 0.29617 0.0
O55 O 0.92365 0.40898 0.21857 0.0
O56 O 0.952 0.32112 0.26619 0.0
O57 O 0.9555 0.31013 0.37172 0.0
O58 O 0.8293 0.22905 0.41124 0.0
O59 O 0.83762 0.43031 0.39727 0.0
O60 O 0.75463 0.23267 0.38572 0.0
O61 O 0.75951 0.35261 0.38157 0.0
C62 C 0.93091 0.39481 0.4979 0.0
C63 C 0.77829 0.2789 0.20224 0.0
C64 C -0.0247 0.31531 0.31561 0.0
C65 C 0.94235 0.45729 0.23759 0.0
C66 C 0.77744 0.20655 0.40542 0.0
C67 C 0.78547 0.40167 0.40066 0.0
O68 O 0.90429 0.34399 0.48761 0.0
O69 O 0.48539 0.95061 0.57394 0.0
Zn70 Zn 0.45623 0.89442 0.50244 0.0
O71 O 0.50317 0.8649 0.49088 0.0
Zn72 Zn 0.53513 0.87803 0.40693 0.0
Zn73 Zn 0.56091 0.90227 0.54981 0.0
Zn74 Zn 0.46874 0.79017 0.51084 0.0
O75 O 0.52026 0.80835 0.36468 0.0
O76 O 0.45282 0.74976 0.42903 0.0
O77 O 0.44688 0.92477 0.41861 0.0
O78 O 0.49654 0.90526 0.35243 0.0
O79 O 0.6145 0.94024 0.40841 0.0
O80 O 0.61496 0.97043 0.50693 0.0
O81 O 0.59506 0.85813 0.57169 0.0
O82 O 0.38311 0.83453 0.53426 0.0
O83 O 0.52323 0.77513 0.55648 0.0
O84 O 0.39675 0.76583 0.5566 0.0
C85 C 0.50774 0.94715 0.62569 0.0
C86 C 0.48007 0.76099 0.37699 0.0
C87 C 0.63429 0.9781 0.45023 0.0
C88 C 0.46501 0.92402 0.36272 0.0
C89 C 0.57302 0.80686 0.57348 0.0
C90 C 0.36664 0.7873 0.55678 0.0
O91 O 0.53309 0.92101 0.62753 0.0
O92 O 0.52405 0.5108 0.77549 0.0
Zn93 Zn 0.54452 0.48863 0.69275 0.0
O94 O 0.62222 0.53512 0.67561 0.0
Zn95 Zn 0.6341 0.56158 0.58844 0.0
Zn96 Zn 0.65219 0.59534 0.73348 0.0
Zn97 Zn 0.65947 0.49623 0.69205 0.0
O98 O 0.68121 0.53888 0.53861 0.0
O99 O 0.68168 0.4804 0.60884 0.0
O100 O 0.49706 0.47825 0.61498 0.0
O101 O 0.56286 0.52164 0.54201 0.0
O102 O 0.6569 0.64167 0.58712 0.0
O103 O 0.65308 0.65757 0.69051 0.0
O104 O 0.72965 0.61827 0.75861 0.0
O105 O 0.5285 0.41439 0.71448 0.0
O106 O 0.72944 0.5418 0.73977 0.0
O107 O 0.61064 0.42554 0.73719 0.0
C108 C 0.55489 0.54075 0.82089 0.0
C109 C 0.69119 0.50132 0.55296 0.0
C110 C 0.65944 0.67318 0.63224 0.0
C111 C 0.51254 0.49157 0.55696 0.0
C112 C 0.75324 0.59048 0.75962 0.0
C113 C 0.55837 0.39678 0.73681 0.0
O114 O 0.60597 0.57405 0.81283 0.0
O115 O 0.00235 0.53084 0.95367 0.0
Zn116 Zn 0.0452 0.54166 0.87089 0.0
O117 O 0.08015 0.61619 0.8437 0.0
Zn118 Zn 0.05817 0.62481 0.75948 0.0
Zn119 Zn 0.06109 0.65449 0.90323 0.0
Zn120 Zn 0.15778 0.64824 0.84067 0.0
O121 O 0.12384 0.67775 0.70479 0.0
O122 O 0.18338 0.65903 0.75079 0.0
O123 O 0.00353 0.492 0.79532 0.0
O124 O 0.02507 0.5532 0.71708 0.0
O125 O -0.00356 0.64065 0.76667 0.0
O126 O -0.00577 0.65374 0.87188 0.0
O127 O 0.12244 0.73068 0.91147 0.0
O128 O 0.10312 0.52514 0.89918 0.0
O129 O 0.19326 0.72369 0.87687 0.0
O130 O 0.18237 0.60159 0.88316 0.0
C131 C 0.01355 0.56566 -0.00181 0.0
C132 C 0.16971 0.679 0.70486 0.0
C133 C 0.97402 0.64793 0.81582 0.0
C134 C 0.00342 0.50442 0.73626 0.0
C135 C 0.17344 0.75148 0.89964 0.0
C136 C 0.15534 0.55279 0.90294 0.0
O137 O 0.04256 0.61641 0.98792 0.0
C138 C 0.29616 0.88476 0.95102 0.0
C139 C 0.28046 0.92205 0.92919 0.0
C140 C 0.19891 0.84777 0.87862 0.0
C141 C 0.21032 0.81015 0.90947 0.0
N142 N 0.26513 0.79292 0.98439 0.0
N143 N 0.21424 0.93911 0.87765 0.0
C144 C 0.25774 0.82861 0.94815 0.0
C145 C 0.23115 0.90369 0.8942 0.0
N146 N 0.34855 0.90282 0.97226 0.0
N147 N 0.15899 0.83051 0.83249 0.0
H148 H 0.23714 -0.0196 0.8881 0.0
H149 H 0.17564 0.92685 0.8582 0.0
H150 H 0.13577 0.79019 0.81791 0.0
H151 H 0.1527 0.85689 0.80414 0.0
H152 H 0.36343 0.87691 0.98221 0.0
H153 H 0.37908 0.94367 0.973 0.0
H154 H 0.29623 0.80526 0.01858 0.0
H155 H 0.2371 0.75134 0.9852 0.0
C156 C 0.29988 0.20897 0.16778 0.0
C157 C 0.28918 0.23598 0.1176 0.0
C158 C 0.31562 0.18951 0.0392 0.0
C159 C 0.34148 0.17732 0.08983 0.0
N160 N 0.35533 0.17147 0.20325 0.0
N161 N 0.26601 0.23446 0.00594 0.0
C162 C 0.33228 0.18531 0.15455 0.0
C163 C 0.29028 0.22054 0.05306 0.0
N164 N 0.27634 0.20319 0.22673 0.0
N165 N 0.31435 0.17024 0.97874 0.0
H166 H 0.23863 0.24769 0.01662 0.0
H167 H 0.27106 0.23118 0.95697 0.0
H168 H 0.33214 0.14701 0.96761 0.0
H169 H 0.29363 0.17465 0.94003 0.0
H170 H 0.27987 0.18071 0.26388 0.0
H171 H 0.24683 0.21419 0.23497 0.0
H172 H 0.35466 0.18195 0.25104 0.0
H173 H 0.37816 0.15259 0.19526 0.0
C174 C 0.07555 0.36568 0.34253 0.0
C175 C 0.03073 0.32282 0.30881 0.0
C176 C 0.09436 0.3053 0.24841 0.0
C177 C 0.1387 0.34698 0.28377 0.0
N178 N 0.17032 0.4051 0.37645 0.0
N179 N -0.00414 0.24349 0.24197 0.0
C180 C 0.12872 0.37304 0.3351 0.0
C181 C 0.03963 0.28981 0.2657 0.0
N182 N 0.06847 0.40204 0.37765 0.0
N183 N 0.10439 0.28286 0.19606 0.0
H184 H 0.95527 0.23092 0.25432 0.0
H185 H 0.0 0.2151 0.21515 0.0
H186 H 0.1438 0.29277 0.18176 0.0
H187 H 0.07383 0.25713 0.1641 0.0
H188 H 0.10108 0.43709 0.39734 0.0
H189 H 0.03102 0.40067 0.38191 0.0
H190 H 0.16417 0.42112 0.41841 0.0
H191 H 0.20979 0.41082 0.37222 0.0
C192 C 0.74893 0.12253 0.47118 0.0
C193 C 0.74352 0.14724 0.4147 0.0
C194 C 0.66836 0.05977 0.3779 0.0
C195 C 0.67637 0.03418 0.43211 0.0
N196 N 0.73445 0.0396 0.52034 0.0
N197 N 0.71038 0.13597 0.30541 0.0
C198 C 0.72006 0.06514 0.47554 0.0
C199 C 0.7071 0.11484 0.36525 0.0
N200 N 0.77928 0.15358 0.52191 0.0
N201 N 0.62232 0.03325 0.34052 0.0
H202 H 0.73982 0.17553 0.29284 0.0
H203 H 0.68802 0.11221 0.26642 0.0
H204 H 0.5909 -0.00625 0.34874 0.0
H205 H 0.61251 0.05255 0.30486 0.0
H206 H 0.77997 0.13731 0.56649 0.0
H207 H 0.79932 0.19579 0.5217 0.0
H208 H 0.76902 0.06004 0.54961 0.0
H209 H 0.71529 -0.00253 0.52321 0.0
C210 C 0.6185 0.77705 0.65351 0.0
C211 C 0.608 0.7838 0.58874 0.0
C212 C 0.65883 0.74009 0.55236 0.0
C213 C 0.65956 0.72448 0.61689 0.0
N214 N 0.67366 0.75774 0.72566 0.0
N215 N 0.62906 0.78492 0.47632 0.0
C216 C 0.64987 0.75223 0.66687 0.0
C217 C 0.63207 0.76978 0.53787 0.0
N218 N 0.59708 0.79262 0.70217 0.0
N219 N 0.68638 0.72912 0.50649 0.0
H220 H 0.61202 0.80885 0.46512 0.0
H221 H 0.64271 0.77387 0.43597 0.0
H222 H 0.71286 0.71506 0.51855 0.0
H223 H 0.68749 0.73817 0.45794 0.0
H224 H 0.59829 0.78292 0.7502 0.0
H225 H 0.57506 0.81233 0.69405 0.0
H226 H 0.67109 0.78077 0.7627 0.0
H227 H 0.70247 0.7458 0.73386 0.0
C228 C 0.87379 0.597 0.84273 0.0
C229 C 0.91846 0.6402 0.80912 0.0
C230 C 0.85436 0.65675 0.74793 0.0
C231 C 0.81015 0.61462 0.78307 0.0
N232 N 0.77873 0.55639 0.87589 0.0
N233 N 0.9528 0.71927 0.74165 0.0
C234 C 0.82036 0.58887 0.83473 0.0
C235 C 0.90922 0.67283 0.76556 0.0
N236 N 0.8813 0.56101 0.87828 0.0
N237 N 0.8441 0.6791 0.69551 0.0
H238 H -0.00657 0.73212 0.75418 0.0
H239 H 0.94846 0.74742 0.71443 0.0
H240 H 0.80458 0.66877 0.68109 0.0
H241 H 0.87459 0.70523 0.66368 0.0
H242 H 0.84889 0.52571 0.89787 0.0
H243 H 0.91902 0.56299 0.88309 0.0
H244 H 0.78498 0.54059 0.91809 0.0
H245 H 0.73905 0.55007 0.87126 0.0
C246 C 0.42029 0.93525 0.19565 0.0
C247 C 0.44544 -0.00772 0.18971 0.0
C248 C 0.47773 0.00454 0.30118 0.0
C249 C 0.45173 0.94741 0.30737 0.0
N250 N 0.39014 0.85789 0.26677 0.0
N251 N 0.4922 0.08153 0.23702 0.0
C252 C 0.42054 0.91259 0.25631 0.0
C253 C 0.47208 0.02702 0.24276 0.0
N254 N 0.39689 0.90299 0.14304 0.0
N255 N 0.51018 0.03724 0.34986 0.0
H256 H 0.49245 0.10013 0.19377 0.0
H257 H 0.50611 0.10826 0.27564 0.0
H258 H 0.51438 0.02235 0.39395 0.0
H259 H 0.53582 0.07899 0.34564 0.0
H260 H 0.38317 0.86173 0.14208 0.0
H261 H 0.39402 0.91812 0.09851 0.0
H262 H 0.36265 0.83021 0.23364 0.0
H263 H 0.38889 0.84036 0.31123 0.0
C264 C 0.40111 0.45669 0.43209 0.0
C265 C 0.41591 0.42899 0.38685 0.0
C266 C 0.48148 0.42904 0.46362 0.0
C267 C 0.47339 0.46441 0.50381 0.0
N268 N 0.42767 0.51408 0.5267 0.0
N269 N 0.47001 0.38884 0.3581 0.0
C270 C 0.43305 0.47807 0.48885 0.0
C271 C 0.45587 0.41487 0.40238 0.0
N272 N 0.35726 0.46344 0.42037 0.0
N273 N 0.51282 0.40818 0.48495 0.0
H274 H 0.44966 0.37495 0.31425 0.0
H275 H 0.50358 0.38339 0.36329 0.0
H276 H 0.5309 0.41675 0.53043 0.0
H277 H 0.51663 0.37855 0.46059 0.0
H278 H 0.34083 0.47774 0.45457 0.0
H279 H 0.33476 0.45168 0.37778 0.0
H280 H 0.40413 0.53126 0.51411 0.0
H281 H 0.4497 0.52958 0.56927 0.0
C282 C 0.01258 0.44756 0.65244 0.0
C283 C -0.02143 0.46225 0.68641 0.0
C284 C 0.91017 0.42627 0.60022 0.0
C285 C 0.94548 0.41404 0.56471 0.0
N286 N 0.02347 0.40133 0.56074 0.0
N287 N 0.891 0.45541 0.70178 0.0
C288 C -0.00555 0.42063 0.59229 0.0
C289 C 0.92578 0.44793 0.6632 0.0
N290 N 0.0633 0.46194 0.67647 0.0
N291 N 0.86264 0.41862 0.5728 0.0
H292 H 0.90188 0.47101 0.74824 0.0
H293 H 0.85025 0.44238 0.69042 0.0
H294 H 0.84864 0.40045 0.528 0.0
H295 H 0.83797 0.43212 0.59278 0.0
H296 H 0.09316 0.45859 0.65105 0.0
H297 H 0.07636 0.47926 0.72187 0.0
H298 H 0.05683 0.40035 0.58052 0.0
H299 H 0.01186 0.3827 0.51584 0.0
C300 C 0.4502 0.95547 0.7116 0.0
C301 C 0.50306 0.97225 0.68571 0.0
C302 C 0.54648 0.0306 0.77987 0.0
C303 C 0.4937 0.01017 0.80728 0.0
N304 N 0.39666 0.94497 0.80683 0.0
N305 N 0.60212 0.0243 0.69534 0.0
C306 C 0.44602 0.97016 0.77528 0.0
C307 C 0.55146 0.00908 0.72023 0.0
N308 N 0.40374 0.92636 0.67549 0.0
N309 N 0.59132 0.07231 0.80929 0.0
H310 H 0.60785 0.01463 0.6488 0.0
H311 H 0.63854 0.04518 0.72136 0.0
H312 H 0.58903 0.08777 0.85379 0.0
H313 H 0.63016 0.0936 0.78845 0.0
H314 H 0.36536 0.91983 0.68925 0.0
H315 H 0.40322 0.91127 0.62996 0.0
H316 H 0.36145 0.91135 0.78884 0.0
H317 H 0.39223 0.95427 0.85403 0.0
C318 C 0.51331 0.47997 0.98756 0.0
C319 C 0.47463 0.49555 0.00359 0.0
C320 C 0.49365 0.54683 0.90306 0.0
C321 C 0.53202 0.5309 0.88657 0.0
N322 N 0.58777 0.49258 0.91811 0.0
N323 N 0.43822 0.55464 0.98659 0.0
C324 C 0.54529 0.50123 0.9308 0.0
C325 C 0.4681 0.53253 0.96436 0.0
N326 N 0.51702 0.44238 0.02441 0.0
N327 N 0.48089 0.57464 0.85961 0.0
H328 H 0.42004 0.54582 0.03203 0.0
H329 H 0.43567 0.58537 0.963 0.0
H330 H 0.50118 0.58839 0.81568 0.0
H331 H 0.44844 0.58171 0.86548 0.0
H332 H 0.53911 0.4239 0.01092 0.0
H333 H 0.49501 0.42696 0.06702 0.0
H334 H 0.60317 0.47659 0.95156 0.0
H335 H 0.61024 0.50445 0.87549 0.0
C336 C 0.94843 0.53774 0.09122 0.0
C337 C -0.00127 0.54668 0.06513 0.0
C338 C 0.01995 0.51661 0.16591 0.0
C339 C 0.96617 0.49971 0.18774 0.0
N340 N 0.87871 0.49398 0.17401 0.0
N341 N 0.08374 0.54641 0.07618 0.0
C342 C 0.93057 0.51117 0.15169 0.0
C343 C 0.03532 0.53733 0.10244 0.0
N344 N 0.91801 0.5547 0.0581 0.0
N345 N 0.05584 0.5123 0.20619 0.0
H346 H 0.09721 0.56332 0.03066 0.0
H347 H 0.10952 0.53492 0.0978 0.0
H348 H 0.04505 0.49735 0.25298 0.0
H349 H 0.09718 0.52747 0.19578 0.0
H350 H 0.88342 0.55391 0.07677 0.0
H351 H 0.92973 0.57341 0.01318 0.0
H352 H 0.84807 0.49469 0.14693 0.0
H353 H 0.86561 0.47684 0.21954 0.0
C354 C 0.51689 0.25247 0.78166 0.0
C355 C 0.48269 0.24451 0.83535 0.0
C356 C 0.49759 0.33578 0.82378 0.0
C357 C 0.53093 0.34361 0.76903 0.0
N358 N 0.56368 0.30693 0.6878 0.0
N359 N 0.43083 0.27252 0.89979 0.0
C360 C 0.53801 0.30113 0.74545 0.0
C361 C 0.46979 0.28427 0.85366 0.0
N362 N 0.53093 0.21452 0.76707 0.0
N363 N 0.49509 0.37837 0.84957 0.0
H364 H 0.41068 0.23531 0.92347 0.0
H365 H 0.41501 0.29745 0.9106 0.0
H366 H 0.51539 0.41718 0.82994 0.0
H367 H 0.47672 0.37663 0.89356 0.0
H368 H 0.56093 0.22075 0.73351 0.0
H369 H 0.5146 0.17757 0.79126 0.0
H370 H 0.56543 0.27557 0.66488 0.0
H371 H 0.57949 0.3421 0.66008 0.0
C372 C 0.22842 0.55955 0.978 0.0
C373 C 0.18482 0.52841 0.93454 0.0
C374 C 0.1879 0.44722 0.96502 0.0
C375 C 0.2344 0.47975 0.00415 0.0
N376 N 0.31069 0.56962 0.02623 0.0
N377 N 0.13546 0.44596 0.87231 0.0
C378 C 0.2587 0.53689 0.00311 0.0
C379 C 0.16835 0.47319 0.92339 0.0
N380 N 0.23864 0.60884 -0.00032 0.0
N381 N 0.16053 0.39204 0.96962 0.0
H382 H 0.12301 0.46449 0.83848 0.0
H383 H 0.12611 0.40703 0.85949 0.0
H384 H 0.17242 0.37121 0.00055 0.0
H385 H 0.1231 0.36723 0.94669 0.0
H386 H 0.26746 0.63022 0.03553 0.0
H387 H 0.21397 0.62515 0.98872 0.0
H388 H 0.33128 0.61173 0.02204 0.0
H389 H 0.33526 0.55444 0.04244 0.0
C390 C 0.65808 0.17087 0.11613 0.0
C391 C 0.639 0.20122 0.08179 0.0
C392 C 0.72126 0.28544 0.11493 0.0
C393 C 0.74018 0.25455 0.14763 0.0
N394 N 0.73735 0.16963 0.15819 0.0
N395 N 0.66067 0.28648 0.03303 0.0
C396 C 0.7124 0.19783 0.14049 0.0
C397 C 0.67316 0.25839 0.0763 0.0
N398 N 0.62329 0.11746 0.13073 0.0
N399 N 0.74872 0.34046 0.12197 0.0
H400 H 0.62708 0.26765 0.00199 0.0
H401 H 0.68664 0.32753 0.02331 0.0
H402 H 0.78601 0.36152 0.14666 0.0
H403 H 0.73338 0.36466 0.10579 0.0
H404 H 0.63455 0.09541 0.16052 0.0
H405 H 0.58145 0.09684 0.12003 0.0
H406 H 0.72044 0.12848 0.14854 0.0
H407 H 0.7773 0.18864 0.17641 0.0
C408 C 0.43581 0.70995 0.27607 0.0
C409 C 0.46608 0.71579 0.33293 0.0
C410 C 0.44742 0.62304 0.32354 0.0
C411 C 0.41787 0.61722 0.26597 0.0
N412 N 0.39215 0.65678 0.18039 0.0
N413 N 0.51086 0.68359 0.40378 0.0
C414 C 0.41456 0.66127 0.23997 0.0
C415 C 0.47528 0.67409 0.35416 0.0
N416 N 0.42533 0.74984 0.25839 0.0
N417 N 0.4462 0.57901 0.35103 0.0
H418 H 0.53076 0.72031 0.42832 0.0
H419 H 0.5243 0.65716 0.41705 0.0
H420 H 0.42586 0.54051 0.33066 0.0
H421 H 0.46146 0.57936 0.39669 0.0
H422 H 0.39812 0.74551 0.22192 0.0
H423 H 0.4418 0.78667 0.28268 0.0
H424 H 0.39325 0.68905 0.15594 0.0
H425 H 0.37602 0.62146 0.15303 0.0
C426 C 0.77166 0.48073 0.41922 0.0
C427 C 0.75533 0.42567 0.43145 0.0
C428 C 0.68435 0.41917 0.50367 0.0
C429 C 0.70925 0.47644 0.50346 0.0
N430 N 0.78232 0.56312 0.46476 0.0
N431 N 0.70282 0.34618 0.49877 0.0
C432 C 0.7542 0.50785 0.46173 0.0
C433 C 0.71307 0.39548 0.47685 0.0
N434 N 0.80278 0.5068 0.36649 0.0
N435 N 0.63321 0.38727 0.52945 0.0
H436 H 0.72617 0.32885 0.48609 0.0
H437 H 0.67536 0.32566 0.53615 0.0
H438 H 0.60967 0.4031 0.54706 0.0
H439 H 0.61199 0.3451 0.52619 0.0
H440 H 0.81195 0.54556 0.35291 0.0
H441 H 0.81378 0.48736 0.33237 0.0
H442 H 0.81881 0.58716 0.43968 0.0
H443 H 0.7723 0.58485 0.49648 0.0
C444 C 0.26501 0.72023 0.56094 0.0
C445 C 0.31389 0.76021 0.59155 0.0
C446 C 0.261 0.75833 0.68495 0.0
C447 C 0.2138 0.71289 0.6591 0.0
N448 N 0.17001 0.64782 0.57428 0.0
N449 N 0.36014 0.80906 0.68776 0.0
C450 C 0.21526 0.69328 0.59712 0.0
C451 C 0.3124 0.77722 0.65491 0.0
N452 N 0.26624 0.70829 0.49766 0.0
N453 N 0.25637 0.78332 0.73843 0.0
H454 H 0.39896 0.82296 0.66777 0.0
H455 H 0.36115 0.81782 0.7365 0.0
H456 H 0.21845 0.77119 0.75994 0.0
H457 H 0.28875 0.81926 0.75672 0.0
H458 H 0.23109 0.68328 0.47098 0.0
H459 H 0.30241 0.72632 0.47066 0.0
H460 H 0.17019 0.62778 0.53267 0.0
H461 H 0.13267 0.62867 0.59902 0.0
loop_
_geom_bond_atom_site_label_1
_geom_bond_atom_site_label_2
_geom_bond_distance
_geom_bond_site_symmetry_2
_ccdc_geom_bond_type
O0 Zn1 1.953 . S
O0 C16 1.225 . S
Zn1 O0 1.953 . S
Zn1 O2 1.949 . S
Zn1 O8 1.919 1_554 S
Zn1 O13 1.924 . S
O2 Zn1 1.949 . S
O2 Zn3 1.923 1_554 S
O2 Zn4 1.950 . S
O2 Zn5 1.945 . S
Zn3 O2 1.923 1_556 S
Zn3 O6 1.933 . S
Zn3 O9 1.941 . S
Zn3 O10 1.965 . S
Zn4 O2 1.950 . S
Zn4 O11 1.938 . S
Zn4 O12 1.906 . S
Zn4 O22 1.953 . S
Zn5 O2 1.945 . S
Zn5 O7 1.932 1_554 S
Zn5 O14 1.977 . S
Zn5 O15 1.910 . S
O6 Zn3 1.933 . S
O6 C17 1.226 . S
O7 Zn5 1.932 1_556 S
O7 C17 1.307 . S
O8 Zn1 1.919 1_556 S
O8 C19 1.253 . S
O9 Zn3 1.941 . S
O9 C19 1.283 . S
O10 Zn3 1.965 . S
O10 C18 1.303 . S
O11 Zn4 1.938 . S
O11 C18 1.247 1_554 S
O12 Zn4 1.906 . S
O12 C20 1.304 . S
O13 Zn1 1.924 . S
O13 C21 1.311 . S
O14 Zn5 1.977 . S
O14 C20 1.272 . S
O15 Zn5 1.910 . S
O15 C21 1.231 . S
C16 O0 1.225 . S
C16 O22 1.298 . S
C17 O6 1.226 . S
C17 O7 1.307 . S
C18 O10 1.303 . S
C18 O11 1.247 1_556 S
C19 O8 1.253 . S
C19 O9 1.283 . S
C20 O12 1.304 . S
C20 O14 1.272 . S
C21 O13 1.311 . S
C21 O15 1.231 . S
O22 Zn4 1.953 . S
O22 C16 1.298 . S
O23 Zn24 1.953 . S
O23 C39 1.225 . S
Zn24 O23 1.953 . S
Zn24 O25 1.949 . S
Zn24 O31 1.919 . S
Zn24 O36 1.924 . S
O25 Zn24 1.949 . S
O25 Zn26 1.923 . S
O25 Zn27 1.950 . S
O25 Zn28 1.945 . S
Zn26 O25 1.923 . S
Zn26 O29 1.933 . S
Zn26 O32 1.941 . S
Zn26 O33 1.965 . S
Zn27 O25 1.950 . S
Zn27 O34 1.938 . S
Zn27 O35 1.906 . S
Zn27 O45 1.953 . S
Zn28 O25 1.945 . S
Zn28 O30 1.932 . S
Zn28 O37 1.977 . S
Zn28 O38 1.910 . S
O29 Zn26 1.933 . S
O29 C40 1.226 . S
O30 Zn28 1.932 . S
O30 C40 1.307 . S
O31 Zn24 1.919 . S
O31 C42 1.253 . S
O32 Zn26 1.941 . S
O32 C42 1.283 . S
O33 Zn26 1.965 . S
O33 C41 1.303 . S
O34 Zn27 1.938 . S
O34 C41 1.247 . S
O35 Zn27 1.906 . S
O35 C43 1.304 . S
O36 Zn24 1.924 . S
O36 C44 1.311 . S
O37 Zn28 1.977 . S
O37 C43 1.272 . S
O38 Zn28 1.910 . S
O38 C44 1.231 . S
C39 O23 1.225 . S
C39 O45 1.298 . S
C40 O29 1.226 . S
C40 O30 1.307 . S
C41 O33 1.303 . S
C41 O34 1.247 . S
C42 O31 1.253 . S
C42 O32 1.283 . S
C43 O35 1.304 . S
C43 O37 1.272 . S
C44 O36 1.311 . S
C44 O38 1.231 . S
O45 Zn27 1.953 . S
O45 C39 1.298 . S
O46 Zn47 1.953 . S
O46 C62 1.225 . S
Zn47 O46 1.953 . S
Zn47 O48 1.949 . S
Zn47 O54 1.919 . S
Zn47 O59 1.924 . S
O48 Zn47 1.949 . S
O48 Zn49 1.923 . S
O48 Zn50 1.950 . S
O48 Zn51 1.945 . S
Zn49 O48 1.923 . S
Zn49 O52 1.933 . S
Zn49 O55 1.941 . S
Zn49 O56 1.965 . S
Zn50 O48 1.950 . S
Zn50 O57 1.938 . S
Zn50 O58 1.906 . S
Zn50 O68 1.953 . S
Zn51 O48 1.945 . S
Zn51 O53 1.932 . S
Zn51 O60 1.977 . S
Zn51 O61 1.910 . S
O52 Zn49 1.933 . S
O52 C63 1.226 . S
O53 Zn51 1.932 . S
O53 C63 1.307 . S
O54 Zn47 1.919 . S
O54 C65 1.253 . S
O55 Zn49 1.941 . S
O55 C65 1.283 . S
O56 Zn49 1.965 . S
O56 C64 1.303 . S
O57 Zn50 1.938 . S
O57 C64 1.247 . S
O58 Zn50 1.906 . S
O58 C66 1.304 . S
O59 Zn47 1.924 . S
O59 C67 1.311 . S
O60 Zn51 1.977 . S
O60 C66 1.272 . S
O61 Zn51 1.910 . S
O61 C67 1.231 . S
C62 O46 1.225 . S
C62 O68 1.298 . S
C63 O52 1.226 . S
C63 O53 1.307 . S
C64 O56 1.303 . S
C64 O57 1.247 . S
C65 O54 1.253 . S
C65 O55 1.283 . S
C66 O58 1.304 . S
C66 O60 1.272 . S
C67 O59 1.311 . S
C67 O61 1.231 . S
O68 Zn50 1.953 . S
O68 C62 1.298 . S
O69 Zn70 1.953 . S
O69 C85 1.225 . S
Zn70 O69 1.953 . S
Zn70 O71 1.949 . S
Zn70 O77 1.919 . S
Zn70 O82 1.924 . S
O71 Zn70 1.949 . S
O71 Zn72 1.923 . S
O71 Zn73 1.950 . S
O71 Zn74 1.945 . S
Zn72 O71 1.923 . S
Zn72 O75 1.933 . S
Zn72 O78 1.941 . S
Zn72 O79 1.965 . S
Zn73 O71 1.950 . S
Zn73 O80 1.938 . S
Zn73 O81 1.906 . S
Zn73 O91 1.953 . S
Zn74 O71 1.945 . S
Zn74 O76 1.932 . S
Zn74 O83 1.977 . S
Zn74 O84 1.910 . S
O75 Zn72 1.933 . S
O75 C86 1.226 . S
O76 Zn74 1.932 . S
O76 C86 1.307 . S
O77 Zn70 1.919 . S
O77 C88 1.253 . S
O78 Zn72 1.941 . S
O78 C88 1.283 . S
O79 Zn72 1.965 . S
O79 C87 1.303 . S
O80 Zn73 1.938 . S
O80 C87 1.247 . S
O81 Zn73 1.906 . S
O81 C89 1.304 . S
O82 Zn70 1.924 . S
O82 C90 1.311 . S
O83 Zn74 1.977 . S
O83 C89 1.272 . S
O84 Zn74 1.910 . S
O84 C90 1.231 . S
C85 O69 1.225 . S
C85 O91 1.298 . S
C86 O75 1.226 . S
C86 O76 1.307 . S
C87 O79 1.303 . S
C87 O80 1.247 . S
C88 O77 1.253 . S
C88 O78 1.283 . S
C89 O81 1.304 . S
C89 O83 1.272 . S
C90 O82 1.311 . S
C90 O84 1.231 . S
O91 Zn73 1.953 . S
O91 C85 1.298 . S
O92 Zn93 1.953 . S
O92 C108 1.225 . S
Zn93 O92 1.953 . S
Zn93 O94 1.949 . S
Zn93 O100 1.919 . S
Zn93 O105 1.924 . S
O94 Zn93 1.949 . S
O94 Zn95 1.923 . S
O94 Zn96 1.950 . S
O94 Zn97 1.945 . S
Zn95 O94 1.923 . S
Zn95 O98 1.933 . S
Zn95 O101 1.941 . S
Zn95 O102 1.965 . S
Zn96 O94 1.950 . S
Zn96 O103 1.938 . S
Zn96 O104 1.906 . S
Zn96 O114 1.953 . S
Zn97 O94 1.945 . S
Zn97 O99 1.932 . S
Zn97 O106 1.977 . S
Zn97 O107 1.910 . S
O98 Zn95 1.933 . S
O98 C109 1.226 . S
O99 Zn97 1.932 . S
O99 C109 1.307 . S
O100 Zn93 1.919 . S
O100 C111 1.253 . S
O101 Zn95 1.941 . S
O101 C111 1.283 . S
O102 Zn95 1.965 . S
O102 C110 1.303 . S
O103 Zn96 1.938 . S
O103 C110 1.247 . S
O104 Zn96 1.906 . S
O104 C112 1.304 . S
O105 Zn93 1.924 . S
O105 C113 1.311 . S
O106 Zn97 1.977 . S
O106 C112 1.272 . S
O107 Zn97 1.910 . S
O107 C113 1.231 . S
C108 O92 1.225 . S
C108 O114 1.298 . S
C109 O98 1.226 . S
C109 O99 1.307 . S
C110 O102 1.303 . S
C110 O103 1.247 . S
C111 O100 1.253 . S
C111 O101 1.283 . S
C112 O104 1.304 . S
C112 O106 1.272 . S
C113 O105 1.311 . S
C113 O107 1.231 . S
O114 Zn96 1.953 . S
O114 C108 1.298 . S
O115 Zn116 1.953 . S
O115 C131 1.225 . S
Zn116 O115 1.953 . S
Zn116 O117 1.949 . S
Zn116 O123 1.919 . S
Zn116 O128 1.924 . S
O117 Zn116 1.949 . S
O117 Zn118 1.923 . S
O117 Zn119 1.950 . S
O117 Zn120 1.945 . S
Zn118 O117 1.923 . S
Zn118 O121 1.933 . S
Zn118 O124 1.941 . S
Zn118 O125 1.965 . S
Zn119 O117 1.950 . S
Zn119 O126 1.938 . S
Zn119 O127 1.906 . S
Zn119 O137 1.953 . S
Zn120 O117 1.945 . S
Zn120 O122 1.932 . S
Zn120 O129 1.977 . S
Zn120 O130 1.910 . S
O121 Zn118 1.933 . S
O121 C132 1.226 . S
O122 Zn120 1.932 . S
O122 C132 1.307 . S
O123 Zn116 1.919 . S
O123 C134 1.253 . S
O124 Zn118 1.941 . S
O124 C134 1.283 . S
O125 Zn118 1.965 . S
O125 C133 1.303 . S
O126 Zn119 1.938 . S
O126 C133 1.247 . S
O127 Zn119 1.906 . S
O127 C135 1.304 . S
O128 Zn116 1.924 . S
O128 C136 1.311 . S
O129 Zn120 1.977 . S
O129 C135 1.272 . S
O130 Zn120 1.910 . S
O130 C136 1.231 . S
C131 O115 1.225 . S
C131 O137 1.298 . S
C132 O121 1.226 . S
C132 O122 1.307 . S
C133 O125 1.303 . S
C133 O126 1.247 . S
C134 O123 1.253 . S
C134 O124 1.283 . S
C135 O127 1.304 . S
C135 O129 1.272 . S
C136 O128 1.311 . S
C136 O130 1.231 . S
O137 Zn119 1.953 . S
O137 C131 1.298 . S
C138 C139 1.363 1_554 S
C138 C144 1.379 1_554 S
C138 N146 1.356 . S
C139 C138 1.363 1_556 S
C139 C145 1.363 . S
C140 C141 1.363 . S
C140 C145 1.379 . S
C140 N147 1.356 . S
C141 C140 1.363 . S
C141 C144 1.363 . S
N142 C144 1.356 1_554 S
N142 H154 0.984 . S
N142 H155 0.985 . S
N143 C145 1.356 . S
N143 H148 0.984 1_565 S
N143 H149 0.985 . S
C144 C138 1.379 1_556 S
C144 C141 1.363 . S
C144 N142 1.356 1_556 S
C145 C139 1.363 . S
C145 C140 1.379 . S
C145 N143 1.356 . S
N146 C138 1.356 . S
N146 H152 0.984 . S
N146 H153 0.984 . S
N147 C140 1.356 . S
N147 H150 0.984 . S
N147 H151 0.985 . S
H148 N143 0.984 1_545 S
H149 N143 0.985 . S
H150 N147 0.984 . S
H151 N147 0.985 . S
H152 N146 0.984 . S
H153 N146 0.984 . S
H154 N142 0.984 . S
H155 N142 0.985 . S
C156 C157 1.363 . S
C156 C162 1.379 . S
C156 N164 1.356 . S
C157 C156 1.363 . S
C157 C163 1.363 . S
C158 C159 1.363 . S
C158 C163 1.379 . S
C158 N165 1.356 . S
C159 C158 1.363 . S
C159 C162 1.363 . S
N160 C162 1.356 . S
N160 H172 0.984 . S
N160 H173 0.985 . S
N161 C163 1.356 . S
N161 H166 0.984 . S
N161 H167 0.985 1_554 S
C162 C156 1.379 . S
C162 C159 1.363 . S
C162 N160 1.356 . S
C163 C157 1.363 . S
C163 C158 1.379 . S
C163 N161 1.356 . S
N164 C156 1.356 . S
N164 H170 0.984 . S
N164 H171 0.984 . S
N165 C158 1.356 . S
N165 H168 0.984 . S
N165 H169 0.985 1_554 S
H166 N161 0.984 . S
H167 N161 0.985 1_556 S
H168 N165 0.984 . S
H169 N165 0.985 1_556 S
H170 N164 0.984 . S
H171 N164 0.984 . S
H172 N160 0.984 . S
H173 N160 0.985 . S
C174 C175 1.363 . S
C174 C180 1.379 . S
C174 N182 1.356 . S
C175 C174 1.363 . S
C175 C181 1.363 . S
C176 C177 1.363 . S
C176 C181 1.379 . S
C176 N183 1.356 . S
C177 C176 1.363 . S
C177 C180 1.363 . S
N178 C180 1.356 . S
N178 H190 0.984 . S
N178 H191 0.985 . S
N179 C181 1.356 . S
N179 H184 0.984 1_455 S
N179 H185 0.985 . S
C180 C174 1.379 . S
C180 C177 1.363 . S
C180 N178 1.356 . S
C181 C175 1.363 . S
C181 C176 1.379 . S
C181 N179 1.356 . S
N182 C174 1.356 . S
N182 H188 0.984 . S
N182 H189 0.984 . S
N183 C176 1.356 . S
N183 H186 0.984 . S
N183 H187 0.985 . S
H184 N179 0.984 1_655 S
H185 N179 0.985 . S
H186 N183 0.984 . S
H187 N183 0.985 . S
H188 N182 0.984 . S
H189 N182 0.984 . S
H190 N178 0.984 . S
H191 N178 0.985 . S
C192 C193 1.363 . S
C192 C198 1.379 . S
C192 N200 1.356 . S
C193 C192 1.363 . S
C193 C199 1.363 . S
C194 C195 1.363 . S
C194 C199 1.379 . S
C194 N201 1.356 . S
C195 C194 1.363 . S
C195 C198 1.363 . S
N196 C198 1.356 . S
N196 H208 0.984 . S
N196 H209 1.001 . S
N197 C199 1.356 . S
N197 H202 0.984 . S
N197 H203 0.985 . S
C198 C192 1.379 . S
C198 C195 1.363 . S
C198 N196 1.356 . S
C199 C193 1.363 . S
C199 C194 1.379 . S
C199 N197 1.356 . S
N200 C192 1.356 . S
N200 H206 0.984 . S
N200 H207 0.984 . S
N201 C194 1.356 . S
N201 H204 0.984 1_545 S
N201 H205 0.985 . S
H202 N197 0.984 . S
H203 N197 0.985 . S
H204 N201 0.984 1_565 S
H205 N201 0.985 . S
H206 N200 0.984 . S
H207 N200 0.984 . S
H208 N196 0.984 . S
H209 N196 1.001 . S
C210 C211 1.363 . S
C210 C216 1.379 . S
C210 N218 1.356 . S
C211 C210 1.363 . S
C211 C217 1.363 . S
C212 C213 1.363 . S
C212 C217 1.379 . S
C212 N219 1.356 . S
C213 C212 1.363 . S
C213 C216 1.363 . S
N214 C216 1.356 . S
N214 H226 0.984 . S
N214 H227 0.985 . S
N215 C217 1.356 . S
N215 H220 0.984 . S
N215 H221 0.985 . S
C216 C210 1.379 . S
C216 C213 1.363 . S
C216 N214 1.356 . S
C217 C211 1.363 . S
C217 C212 1.379 . S
C217 N215 1.356 . S
N218 C210 1.356 . S
N218 H224 0.984 . S
N218 H225 0.984 . S
N219 C212 1.356 . S
N219 H222 0.984 . S
N219 H223 0.985 . S
H220 N215 0.984 . S
H221 N215 0.985 . S
H222 N219 0.984 . S
H223 N219 0.985 . S
H224 N218 0.984 . S
H225 N218 0.984 . S
H226 N214 0.984 . S
H227 N214 0.985 . S
C228 C229 1.363 . S
C228 C234 1.379 . S
C228 N236 1.356 . S
C229 C228 1.363 . S
C229 C235 1.363 . S
C230 C231 1.363 . S
C230 C235 1.379 . S
C230 N237 1.356 . S
C231 C230 1.363 . S
C231 C234 1.363 . S
N232 C234 1.356 . S
N232 H244 0.984 . S
N232 H245 0.985 . S
N233 C235 1.356 . S
N233 H238 0.984 1_655 S
N233 H239 0.985 . S
C234 C228 1.379 . S
C234 C231 1.363 . S
C234 N232 1.356 . S
C235 C229 1.363 . S
C235 C230 1.379 . S
C235 N233 1.356 . S
N236 C228 1.356 . S
N236 H242 0.984 . S
N236 H243 0.984 . S
N237 C230 1.356 . S
N237 H240 0.984 . S
N237 H241 0.985 . S
H238 N233 0.984 1_455 S
H239 N233 0.985 . S
H240 N237 0.984 . S
H241 N237 0.985 . S
H242 N236 0.984 . S
H243 N236 0.984 . S
H244 N232 0.984 . S
H245 N232 0.985 . S
C246 C247 1.363 . S
C246 C252 1.379 . S
C246 N254 1.356 . S
C247 C246 1.363 . S
C247 C253 1.363 1_565 S
C248 C249 1.363 . S
C248 C253 1.379 1_565 S
C248 N255 1.351 1_565 S
C249 C248 1.363 . S
C249 C252 1.363 . S
N250 C252 1.356 . S
N250 H262 0.984 . S
N250 H263 0.985 . S
N251 C253 1.356 . S
N251 H256 0.984 . S
N251 H257 0.985 . S
C252 C246 1.379 . S
C252 C249 1.363 . S
C252 N250 1.356 . S
C253 C247 1.363 1_545 S
C253 C248 1.379 1_545 S
C253 N251 1.356 . S
N254 C246 1.356 . S
N254 H260 0.984 . S
N254 H261 0.984 . S
N255 C248 1.351 1_545 S
N255 H258 0.970 1_545 S
N255 H259 1.005 . S
H256 N251 0.984 . S
H257 N251 0.985 . S
H258 N255 0.970 1_565 S
H259 N255 1.005 . S
H260 N254 0.984 . S
H261 N254 0.984 . S
H262 N250 0.984 . S
H263 N250 0.985 . S
C264 C265 1.363 . S
C264 C270 1.379 . S
C264 N272 1.356 . S
C265 C264 1.363 . S
C265 C271 1.363 . S
C266 C267 1.363 . S
C266 C271 1.379 . S
C266 N273 1.356 . S
C267 C266 1.363 . S
C267 C270 1.363 . S
N268 C270 1.356 . S
N268 H280 0.984 . S
N268 H281 0.985 . S
N269 C271 1.356 . S
N269 H274 0.984 . S
N269 H275 0.985 . S
C270 C264 1.379 . S
C270 C267 1.363 . S
C270 N268 1.356 . S
C271 C265 1.363 . S
C271 C266 1.379 . S
C271 N269 1.356 . S
N272 C264 1.356 . S
N272 H278 0.984 . S
N272 H279 0.984 . S
N273 C266 1.356 . S
N273 H276 0.984 . S
N273 H277 0.985 . S
H274 N269 0.984 . S
H275 N269 0.985 . S
H276 N273 0.984 . S
H277 N273 0.985 . S
H278 N272 0.984 . S
H279 N272 0.984 . S
H280 N268 0.984 . S
H281 N268 0.985 . S
C282 C283 1.363 . S
C282 C288 1.379 . S
C282 N290 1.356 . S
C283 C282 1.363 . S
C283 C289 1.363 1_455 S
C284 C285 1.363 1_655 S
C284 C289 1.379 . S
C284 N291 1.356 . S
C285 C284 1.363 1_455 S
C285 C288 1.363 . S
N286 C288 1.356 . S
N286 H298 0.984 . S
N286 H299 0.985 . S
N287 C289 1.356 . S
N287 H292 0.984 . S
N287 H293 0.985 . S
C288 C282 1.379 . S
C288 C285 1.363 . S
C288 N286 1.356 . S
C289 C283 1.363 1_655 S
C289 C284 1.379 . S
C289 N287 1.356 . S
N290 C282 1.356 . S
N290 H296 0.984 . S
N290 H297 0.984 . S
N291 C284 1.356 . S
N291 H294 0.984 . S
N291 H295 0.985 . S
H292 N287 0.984 . S
H293 N287 0.985 . S
H294 N291 0.984 . S
H295 N291 0.985 . S
H296 N290 0.984 . S
H297 N290 0.984 . S
H298 N286 0.984 . S
H299 N286 0.985 . S
C300 C301 1.363 1_565 S
C300 C306 1.379 . S
C300 N308 1.356 . S
C301 C300 1.363 1_545 S
C301 C307 1.363 . S
C302 C303 1.363 . S
C302 C307 1.379 . S
C302 N309 1.356 . S
C303 C302 1.363 . S
C303 C306 1.363 1_545 S
N304 C306 1.356 . S
N304 H316 0.984 . S
N304 H317 0.985 . S
N305 C307 1.356 . S
N305 H310 0.984 . S
N305 H311 0.985 . S
C306 C300 1.379 . S
C306 C303 1.363 1_565 S
C306 N304 1.356 . S
C307 C301 1.363 . S
C307 C302 1.379 . S
C307 N305 1.356 . S
N308 C300 1.356 . S
N308 H314 0.984 . S
N308 H315 0.984 . S
N309 C302 1.356 . S
N309 H312 0.984 . S
N309 H313 0.985 . S
H310 N305 0.984 . S
H311 N305 0.985 . S
H312 N309 0.984 . S
H313 N309 0.985 . S
H314 N308 0.984 . S
H315 N308 0.984 . S
H316 N304 0.984 . S
H317 N304 0.985 . S
C318 C319 1.363 . S
C318 C324 1.379 . S
C318 N326 1.356 1_556 S
C319 C318 1.363 . S
C319 C325 1.363 . S
C320 C321 1.363 . S
C320 C325 1.379 . S
C320 N327 1.356 . S
C321 C320 1.363 . S
C321 C324 1.363 . S
N322 C324 1.356 . S
N322 H334 0.984 . S
N322 H335 0.985 . S
N323 C325 1.356 1_554 S
N323 H328 0.984 . S
N323 H329 0.986 . S
C324 C318 1.379 . S
C324 C321 1.363 . S
C324 N322 1.356 . S
C325 C319 1.363 . S
C325 C320 1.379 . S
C325 N323 1.356 1_556 S
N326 C318 1.356 1_554 S
N326 H332 0.987 . S
N326 H333 0.984 . S
N327 C320 1.356 . S
N327 H330 0.984 . S
N327 H331 0.985 . S
H328 N323 0.984 . S
H329 N323 0.986 . S
H330 N327 0.984 . S
H331 N327 0.985 . S
H332 N326 0.987 . S
H333 N326 0.984 . S
H334 N322 0.984 . S
H335 N322 0.985 . S
C336 C337 1.363 . S
C336 C342 1.379 . S
C336 N344 1.356 1_554 S
C337 C336 1.363 . S
C337 C343 1.363 1_655 S
C338 C339 1.363 1_455 S
C338 C343 1.379 . S
C338 N345 1.356 . S
C339 C338 1.363 1_655 S
C339 C342 1.363 . S
N340 C342 1.356 . S
N340 H352 0.984 . S
N340 H353 0.985 . S
N341 C343 1.356 . S
N341 H346 0.984 . S
N341 H347 0.985 . S
C342 C336 1.379 . S
C342 C339 1.363 . S
C342 N340 1.356 . S
C343 C337 1.363 1_455 S
C343 C338 1.379 . S
C343 N341 1.356 . S
N344 C336 1.356 1_556 S
N344 H350 0.984 . S
N344 H351 0.984 . S
N345 C338 1.356 . S
N345 H348 0.984 . S
N345 H349 0.985 . S
H346 N341 0.984 . S
H347 N341 0.985 . S
H348 N345 0.984 . S
H349 N345 0.985 . S
H350 N344 0.984 . S
H351 N344 0.984 . S
H352 N340 0.984 . S
H353 N340 0.985 . S
C354 C355 1.363 . S
C354 C360 1.379 . S
C354 N362 1.356 . S
C355 C354 1.363 . S
C355 C361 1.363 . S
C356 C357 1.363 . S
C356 C361 1.379 . S
C356 N363 1.356 . S
C357 C356 1.363 . S
C357 C360 1.363 . S
N358 C360 1.356 . S
N358 H370 0.984 . S
N358 H371 0.985 . S
N359 C361 1.356 . S
N359 H364 0.984 . S
N359 H365 0.985 . S
C360 C354 1.379 . S
C360 C357 1.363 . S
C360 N358 1.356 . S
C361 C355 1.363 . S
C361 C356 1.379 . S
C361 N359 1.356 . S
N362 C354 1.356 . S
N362 H368 0.984 . S
N362 H369 0.984 . S
N363 C356 1.356 . S
N363 H366 0.984 . S
N363 H367 0.985 . S
H364 N359 0.984 . S
H365 N359 0.985 . S
H366 N363 0.984 . S
H367 N363 0.985 . S
H368 N362 0.984 . S
H369 N362 0.984 . S
H370 N358 0.984 . S
H371 N358 0.985 . S
C372 C373 1.363 . S
C372 C378 1.379 1_556 S
C372 N380 1.356 . S
C373 C372 1.363 . S
C373 C379 1.363 . S
C374 C375 1.363 1_556 S
C374 C379 1.379 . S
C374 N381 1.356 . S
C375 C374 1.363 1_554 S
C375 C378 1.363 . S
N376 C378 1.356 . S
N376 H388 0.984 . S
N376 H389 0.985 . S
N377 C379 1.356 . S
N377 H382 0.984 . S
N377 H383 0.985 . S
C378 C372 1.379 1_554 S
C378 C375 1.363 . S
C378 N376 1.356 . S
C379 C373 1.363 . S
C379 C374 1.379 . S
C379 N377 1.356 . S
N380 C372 1.356 . S
N380 H386 0.984 1_556 S
N380 H387 0.984 . S
N381 C374 1.356 . S
N381 H384 0.984 1_556 S
N381 H385 0.985 . S
H382 N377 0.984 . S
H383 N377 0.985 . S
H384 N381 0.984 1_554 S
H385 N381 0.985 . S
H386 N380 0.984 1_554 S
H387 N380 0.984 . S
H388 N376 0.984 . S
H389 N376 0.985 . S
C390 C391 1.363 . S
C390 C396 1.379 . S
C390 N398 1.356 . S
C391 C390 1.363 . S
C391 C397 1.363 . S
C392 C393 1.363 . S
C392 C397 1.379 . S
C392 N399 1.356 . S
C393 C392 1.363 . S
C393 C396 1.363 . S
N394 C396 1.356 . S
N394 H406 0.984 . S
N394 H407 0.985 . S
N395 C397 1.356 . S
N395 H400 0.984 . S
N395 H401 0.985 1_554 S
C396 C390 1.379 . S
C396 C393 1.363 . S
C396 N394 1.356 . S
C397 C391 1.363 . S
C397 C392 1.379 . S
C397 N395 1.356 . S
N398 C390 1.356 . S
N398 H404 0.984 . S
N398 H405 0.984 . S
N399 C392 1.356 . S
N399 H402 0.984 . S
N399 H403 0.985 . S
H400 N395 0.984 . S
H401 N395 0.985 1_556 S
H402 N399 0.984 . S
H403 N399 0.985 . S
H404 N398 0.984 . S
H405 N398 0.984 . S
H406 N394 0.984 . S
H407 N394 0.985 . S
C408 C409 1.363 . S
C408 C414 1.379 . S
C408 N416 1.356 . S
C409 C408 1.363 . S
C409 C415 1.363 . S
C410 C411 1.363 . S
C410 C415 1.379 . S
C410 N417 1.356 . S
C411 C410 1.363 . S
C411 C414 1.363 . S
N412 C414 1.356 . S
N412 H424 0.984 . S
N412 H425 0.985 . S
N413 C415 1.356 . S
N413 H418 0.984 . S
N413 H419 0.985 . S
C414 C408 1.379 . S
C414 C411 1.363 . S
C414 N412 1.356 . S
C415 C409 1.363 . S
C415 C410 1.379 . S
C415 N413 1.356 . S
N416 C408 1.356 . S
N416 H422 0.984 . S
N416 H423 0.984 . S
N417 C410 1.356 . S
N417 H420 0.984 . S
N417 H421 0.985 . S
H418 N413 0.984 . S
H419 N413 0.985 . S
H420 N417 0.984 . S
H421 N417 0.985 . S
H422 N416 0.984 . S
H423 N416 0.984 . S
H424 N412 0.984 . S
H425 N412 0.985 . S
C426 C427 1.363 . S
C426 C432 1.379 . S
C426 N434 1.356 . S
C427 C426 1.363 . S
C427 C433 1.363 . S
C428 C429 1.363 . S
C428 C433 1.379 . S
C428 N435 1.356 . S
C429 C428 1.363 . S
C429 C432 1.363 . S
N430 C432 1.356 . S
N430 H442 0.984 . S
N430 H443 0.985 . S
N431 C433 1.356 . S
N431 H436 0.984 . S
N431 H437 0.985 . S
C432 C426 1.379 . S
C432 C429 1.363 . S
C432 N430 1.356 . S
C433 C427 1.363 . S
C433 C428 1.379 . S
C433 N431 1.356 . S
N434 C426 1.356 . S
N434 H440 0.984 . S
N434 H441 0.984 . S
N435 C428 1.356 . S
N435 H438 0.984 . S
N435 H439 0.985 . S
H436 N431 0.984 . S
H437 N431 0.985 . S
H438 N435 0.984 . S
H439 N435 0.985 . S
H440 N434 0.984 . S
H441 N434 0.984 . S
H442 N430 0.984 . S
H443 N430 0.985 . S
C444 C445 1.363 . S
C444 C450 1.379 . S
C444 N452 1.356 . S
C445 C444 1.363 . S
C445 C451 1.363 . S
C446 C447 1.363 . S
C446 C451 1.379 . S
C446 N453 1.356 . S
C447 C446 1.363 . S
C447 C450 1.363 . S
N448 C450 1.356 . S
N448 H460 0.984 . S
N448 H461 0.985 . S
N449 C451 1.356 . S
N449 H454 0.984 . S
N449 H455 0.985 . S
C450 C444 1.379 . S
C450 C447 1.363 . S
C450 N448 1.356 . S
C451 C445 1.363 . S
C451 C446 1.379 . S
C451 N449 1.356 . S
N452 C444 1.356 . S
N452 H458 0.984 . S
N452 H459 0.984 . S
N453 C446 1.356 . S
N453 H456 0.984 . S
N453 H457 0.985 . S
H454 N449 0.984 . S
H455 N449 0.985 . S
H456 N453 0.984 . S
H457 N453 0.985 . S
H458 N452 0.984 . S
H459 N452 0.984 . S
H460 N448 0.984 . S
H461 N448 0.985 . S
C139 C18 1.246 1_565 S
C141 C135 1.251 . S
C157 C41 1.246 . S
C159 C20 1.252 . S
C175 C64 1.246 1_455 S
C177 C43 1.251 . S
C193 C66 1.251 . S
C195 C87 1.246 1_545 S
C211 C89 1.251 . S
C213 C110 1.246 . S
C229 C133 1.246 1_655 S
C231 C112 1.251 . S
C247 C16 1.590 1_565 S
C249 C88 1.609 . S
C265 C39 1.590 . S
C267 C111 1.609 . S
C283 C134 1.609 . S
C285 C62 1.590 1_455 S
C301 C85 1.590 1_545 S
C303 C19 1.609 . S
C319 C42 1.609 1_556 S
C321 C108 1.590 . S
C337 C131 1.590 1_654 S
C339 C65 1.609 . S
C355 C17 1.393 . S
C357 C113 1.419 . S
C373 C136 1.419 . S
C375 C40 1.393 . S
C391 C21 1.419 . S
C393 C63 1.393 . S
C409 C86 1.393 . S
C411 C44 1.419 . S
C427 C67 1.419 . S
C429 C109 1.393 . S
C445 C90 1.419 . S
C447 C132 1.393 . S
