# Generated by pormake.
# Topology uop, (4)-cn, num edge types: 1
# Building blocks:
#     Node 0, Type 0, BuildingBlock: ICAMEG_clean_sbu_1, # of connection points: 4
#     Node 1, Type 0, BuildingBlock: ICAMEG_clean_sbu_1, # of connection points: 4
#     Node 2, Type 0, BuildingBlock: ICAMEG_clean_sbu_1, # of connection points: 4
#     Node 3, Type 0, BuildingBlock: ICAMEG_clean_sbu_1, # of connection points: 4
#     Node 4, Type 0, BuildingBlock: ICAMEG_clean_sbu_1, # of connection points: 4
#     Node 5, Type 0, BuildingBlock: ICAMEG_clean_sbu_1, # of connection points: 4
#     Node 6, Type 0, BuildingBlock: ICAMEG_clean_sbu_1, # of connection points: 4
#     Node 7, Type 0, BuildingBlock: ICAMEG_clean_sbu_1, # of connection points: 4
#     Node 8, Type 0, BuildingBlock: ICAMEG_clean_sbu_1, # of connection points: 4
#     Node 9, Type 0, BuildingBlock: ICAMEG_clean_sbu_1, # of connection points: 4
#     Node 10, Type 0, BuildingBlock: ICAMEG_clean_sbu_1, # of connection points: 4
#     Node 11, Type 0, BuildingBlock: ICAMEG_clean_sbu_1, # of connection points: 4
#     Edge 12, Type (0, 0), BuildingBlock: UVAHIK_clean_linker_0, # of connection points: 2
#     Edge 13, Type (0, 0), BuildingBlock: UVAHIK_clean_linker_0, # of connection points: 2
#     Edge 14, Type (0, 0), BuildingBlock: UVAHIK_clean_linker_0, # of connection points: 2
#     Edge 15, Type (0, 0), BuildingBlock: UVAHIK_clean_linker_0, # of connection points: 2
#     Edge 16, Type (0, 0), BuildingBlock: UVAHIK_clean_linker_0, # of connection points: 2
#     Edge 17, Type (0, 0), BuildingBlock: UVAHIK_clean_linker_0, # of connection points: 2
#     Edge 18, Type (0, 0), BuildingBlock: UVAHIK_clean_linker_0, # of connection points: 2
#     Edge 19, Type (0, 0), BuildingBlock: UVAHIK_clean_linker_0, # of connection points: 2
#     Edge 20, Type (0, 0), BuildingBlock: UVAHIK_clean_linker_0, # of connection points: 2
#     Edge 21, Type (0, 0), BuildingBlock: UVAHIK_clean_linker_0, # of connection points: 2
#     Edge 22, Type (0, 0), BuildingBlock: UVAHIK_clean_linker_0, # of connection points: 2
#     Edge 23, Type (0, 0), BuildingBlock: UVAHIK_clean_linker_0, # of connection points: 2
#     Edge 24, Type (0, 0), BuildingBlock: UVAHIK_clean_linker_0, # of connection points: 2
#     Edge 25, Type (0, 0), BuildingBlock: UVAHIK_clean_linker_0, # of connection points: 2
#     Edge 26, Type (0, 0), BuildingBlock: UVAHIK_clean_linker_0, # of connection points: 2
#     Edge 27, Type (0, 0), BuildingBlock: UVAHIK_clean_linker_0, # of connection points: 2
#     Edge 28, Type (0, 0), BuildingBlock: UVAHIK_clean_linker_0, # of connection points: 2
#     Edge 29, Type (0, 0), BuildingBlock: UVAHIK_clean_linker_0, # of connection points: 2
#     Edge 30, Type (0, 0), BuildingBlock: UVAHIK_clean_linker_0, # of connection points: 2
#     Edge 31, Type (0, 0), BuildingBlock: UVAHIK_clean_linker_0, # of connection points: 2
#     Edge 32, Type (0, 0), BuildingBlock: UVAHIK_clean_linker_0, # of connection points: 2
#     Edge 33, Type (0, 0), BuildingBlock: UVAHIK_clean_linker_0, # of connection points: 2
#     Edge 34, Type (0, 0), BuildingBlock: UVAHIK_clean_linker_0, # of connection points: 2
#     Edge 35, Type (0, 0), BuildingBlock: UVAHIK_clean_linker_0, # of connection points: 2
# Relax obj value: 0.105
# Max RMSD: 0.103
# Mean RMSD: 0.103
data_MOF--net-uop--node1-ICAMEG_clean_sbu_1--edge1-UVAHIK_clean_linker_0
_symmetry_space_group_name_H-M    P1
_symmetry_Int_Tables_number       1
_symmetry_cell_setting            triclinic
loop_
_symmetry_equiv_pos_as_xyz
'x, y, z'
_cell_length_a     45.288267
_cell_length_b     45.335062
_cell_length_c     55.868895
_cell_angle_alpha  89.980214
_cell_angle_beta   89.999324
_cell_angle_gamma 119.98839
loop_
_atom_site_label
_atom_site_type_symbol
_atom_site_fract_x
_atom_site_fract_y
_atom_site_fract_z
_atom_type_partial_charge
Co0 Co 0.259 0.43644 0.23907 0.0
Co1 Co 0.24774 0.37536 0.19752 0.0
O2 O 0.23854 0.41014 0.21011 0.0
C3 C 0.27565 0.4883 0.2018 0.0
O4 O 0.28408 0.47033 0.18791 0.0
C5 C 0.1736 0.33966 0.20473 0.0
O6 O 0.18026 0.35205 0.22654 0.0
O7 O 0.24039 0.3533 0.22947 0.0
O8 O 0.25386 0.39546 0.25589 0.0
H9 H 0.30114 0.30129 0.19675 0.0
H10 H 0.20071 0.43812 0.21641 0.0
O11 O 0.26465 0.47816 0.22289 0.0
H12 H 0.16183 0.39351 0.29783 0.0
H13 H 0.27844 0.52462 0.30132 0.0
H14 H 0.30985 0.44041 0.27424 0.0
H15 H 0.22001 0.40989 0.28462 0.0
H16 H 0.2523 0.49021 0.2651 0.0
O17 O 0.19792 0.34608 0.19032 0.0
H18 H 0.29019 0.34572 0.21261 0.0
H19 H 0.2224 0.32951 0.1551 0.0
H20 H 0.33642 0.47407 0.31069 0.0
H21 H 0.14238 0.42226 0.22894 0.0
H22 H 0.32072 0.51653 0.32444 0.0
H23 H 0.12257 0.39966 0.2699 0.0
O24 O 0.30527 0.448 0.22806 0.0
H25 H 0.21897 0.4279 0.12868 0.0
H26 H 0.30194 0.39747 0.16029 0.0
H27 H 0.31237 0.42604 0.12109 0.0
H28 H 0.27068 0.44142 0.10504 0.0
H29 H 0.20969 0.39957 0.16789 0.0
H30 H 0.23239 0.28469 0.13871 0.0
H31 H 0.27213 0.27045 0.15953 0.0
O32 O 0.29764 0.40429 0.20467 0.0
C33 C 0.24533 0.36483 0.25079 0.0
C34 C 0.28387 0.30736 0.18747 0.0
C35 C 0.24525 0.29801 0.15491 0.0
N36 N 0.25597 0.34041 0.18465 0.0
C37 C 0.27767 0.33257 0.19631 0.0
C38 C 0.23965 0.32336 0.16429 0.0
C39 C 0.26756 0.29004 0.1666 0.0
C40 C 0.19238 0.42864 0.23434 0.0
N41 N 0.21379 0.42512 0.2498 0.0
C42 C 0.15928 0.41956 0.2413 0.0
C43 C 0.14817 0.40684 0.26427 0.0
C44 C 0.17018 0.40336 0.27995 0.0
C45 C 0.20308 0.41264 0.27235 0.0
C46 C 0.28544 0.50615 0.29554 0.0
C47 C 0.30276 0.4587 0.28021 0.0
C48 C 0.27077 0.48664 0.27502 0.0
N49 N 0.27935 0.46314 0.2677 0.0
C50 C 0.31794 0.47774 0.30081 0.0
C51 C 0.30915 0.50159 0.3085 0.0
C52 C 0.31667 0.43226 0.21563 0.0
C53 C 0.23727 0.42124 0.13546 0.0
C54 C 0.28373 0.40415 0.15345 0.0
C55 C 0.28973 0.42026 0.13122 0.0
C56 C 0.26632 0.42886 0.12222 0.0
N57 N 0.25516 0.39673 0.16632 0.0
C58 C 0.23208 0.40506 0.1576 0.0
Co59 Co 0.84247 0.26794 0.54958 0.0
Co60 Co 0.87665 0.24752 0.50161 0.0
O61 O 0.83847 0.23985 0.52205 0.0
C62 C 0.78895 0.26826 0.52022 0.0
O63 O 0.80928 0.27445 0.50183 0.0
C64 C 0.84772 0.17731 0.51835 0.0
O65 O 0.85006 0.18965 0.53995 0.0
O66 O 0.90455 0.24995 0.52978 0.0
O67 O 0.88704 0.2723 0.5587 0.0
H68 H -0.00077 0.30474 0.47567 0.0
H69 H 0.77952 0.20126 0.5431 0.0
O70 O 0.79805 0.26446 0.541 0.0
H71 H 0.82691 0.19331 0.62073 0.0
H72 H 0.79749 0.30101 0.62091 0.0
H73 H 0.89849 0.33097 0.57102 0.0
H74 H 0.85541 0.24624 0.59701 0.0
H75 H 0.79357 0.26527 0.58641 0.0
O76 O 0.85762 0.19715 0.50029 0.0
H77 H 0.95119 0.29576 0.50145 0.0
H78 H 0.88231 0.21274 0.4581 0.0
H79 H 0.90362 0.36728 0.60546 0.0
H80 H 0.75003 0.14792 0.56634 0.0
H81 H 0.85286 0.35236 0.63068 0.0
H82 H 0.77382 0.14367 0.60541 0.0
O83 O 0.86661 0.3098 0.52998 0.0
H84 H 0.77041 0.19676 0.45139 0.0
H85 H 0.88917 0.29072 0.45831 0.0
H86 H 0.85448 0.2889 0.4237 0.0
H87 H 0.79465 0.24164 0.42008 0.0
H88 H 0.8059 0.19974 0.48581 0.0
H89 H 0.92963 0.2206 0.43196 0.0
H90 H 0.98857 0.26698 0.44063 0.0
O91 O 0.89635 0.29816 0.503 0.0
C92 C 0.90713 0.26271 0.55049 0.0
C93 C 0.97364 0.28453 0.47164 0.0
C94 C 0.93459 0.23728 0.44713 0.0
N95 N 0.91397 0.25403 0.48111 0.0
C96 C 0.94634 0.27942 0.48612 0.0
C97 C 0.90791 0.23292 0.46201 0.0
C98 C 0.96765 0.26331 0.452 0.0
C99 C 0.78979 0.19973 0.56022 0.0
N100 N 0.81902 0.22688 0.56875 0.0
C101 C 0.77307 0.16941 0.57324 0.0
C102 C 0.78647 0.16703 0.59515 0.0
C103 C 0.81627 0.19486 0.60375 0.0
C104 C 0.83232 0.22475 0.59022 0.0
C105 C 0.8198 0.30773 0.61009 0.0
C106 C 0.87635 0.3242 0.58201 0.0
C107 C 0.81772 0.28763 0.59052 0.0
N108 N 0.84584 0.29588 0.57685 0.0
C109 C 0.87938 0.34491 0.60144 0.0
C110 C 0.85088 0.33654 0.61557 0.0
C111 C 0.88887 0.31863 0.51347 0.0
C112 C 0.79647 0.21743 0.45273 0.0
C113 C 0.86313 0.27013 0.45689 0.0
C114 C 0.84363 0.26919 0.43723 0.0
C115 C 0.81007 0.24265 0.43519 0.0
N116 N 0.84961 0.24529 0.47401 0.0
C117 C 0.81674 0.21917 0.47213 0.0
Co118 Co 0.55511 0.82157 0.91173 0.0
Co119 Co 0.59874 0.85653 0.85897 0.0
O120 O 0.57077 0.81807 0.87991 0.0
C121 C 0.49296 0.77829 0.88435 0.0
O122 O 0.50643 0.80098 0.86718 0.0
C123 C 0.63911 0.82307 0.8667 0.0
O124 O 0.6323 0.82311 0.88952 0.0
O125 O 0.63019 0.88264 0.88565 0.0
O126 O 0.60106 0.86027 0.91979 0.0
H127 H 0.66362 0.97993 0.83526 0.0
H128 H 0.54527 0.75549 0.89423 0.0
O129 O 0.50881 0.78269 0.90402 0.0
H130 H 0.61458 0.78075 0.96747 0.0
H131 H 0.48952 0.77402 0.98825 0.0
H132 H 0.56472 0.87856 0.94295 0.0
H133 H 0.59503 0.81979 0.95362 0.0
H134 H 0.51055 0.77065 0.94818 0.0
O135 O 0.62761 0.8357 0.85142 0.0
H136 H 0.62792 0.93137 0.86172 0.0
H137 H 0.63008 0.86269 0.81101 0.0
H138 H 0.54451 0.88312 0.98305 0.0
H139 H 0.56401 0.71556 0.90753 0.0
H140 H 0.50663 0.83057 0.00597 0.0
H141 H 0.59905 0.72817 0.94435 0.0
O142 O 0.54088 0.85419 0.90016 0.0
H143 H 0.52891 0.75287 0.80832 0.0
H144 H 0.56227 0.87312 0.8216 0.0
H145 H 0.52185 0.84088 0.78923 0.0
H146 H 0.50492 0.7803 0.78243 0.0
H147 H 0.56909 0.78598 0.84057 0.0
H148 H 0.66603 0.91054 0.78407 0.0
H149 H 0.68291 0.96965 0.79611 0.0
O150 O 0.57049 0.87786 0.86643 0.0
C151 C 0.62768 0.88167 0.90842 0.0
C152 C 0.65634 0.95429 0.82977 0.0
C153 C 0.65773 0.91534 0.80106 0.0
N154 N 0.62672 0.89424 0.83782 0.0
C155 C 0.63605 0.92668 0.84465 0.0
C156 C 0.63744 0.88837 0.8164 0.0
C157 C 0.66719 0.9485 0.80782 0.0
C158 C 0.56025 0.761 0.91039 0.0
N159 N 0.56901 0.78992 0.92316 0.0
C160 C 0.5709 0.73836 0.91778 0.0
C161 C 0.59059 0.74547 0.93842 0.0
C162 C 0.59934 0.77498 0.95139 0.0
C163 C 0.58829 0.79705 0.94343 0.0
C164 C 0.50607 0.79709 0.97846 0.0
C165 C 0.54842 0.8556 0.95289 0.0
C166 C 0.51799 0.79534 0.95575 0.0
N167 N 0.53904 0.82439 0.94334 0.0
C168 C 0.53697 0.85833 0.97555 0.0
C169 C 0.51569 0.82884 0.98839 0.0
C170 C 0.54931 0.87494 0.88263 0.0
C171 C 0.53619 0.77928 0.81105 0.0
C172 C 0.55502 0.84677 0.81875 0.0
C173 C 0.53216 0.82866 0.80037 0.0
C174 C 0.52269 0.79467 0.79656 0.0
N175 N 0.56816 0.83149 0.83287 0.0
C176 C 0.55904 0.7982 0.82922 0.0
Co177 Co 0.73478 0.56017 0.24114 0.0
Co178 Co 0.75034 0.62029 0.19753 0.0
O179 O 0.75588 0.5838 0.2114 0.0
C180 C 0.71138 0.50592 0.20516 0.0
O181 O 0.70467 0.52529 0.19136 0.0
C182 C 0.82413 0.65071 0.20461 0.0
O183 O 0.81664 0.63853 0.22646 0.0
O184 O 0.75978 0.64433 0.2288 0.0
O185 O 0.74532 0.60378 0.25678 0.0
H186 H 0.70681 0.70266 0.19363 0.0
H187 H 0.78801 0.54993 0.21823 0.0
O188 O 0.7238 0.51599 0.22597 0.0
H189 H 0.83302 0.59665 0.29826 0.0
H190 H 0.70836 0.47285 0.30564 0.0
H191 H 0.68862 0.56441 0.27683 0.0
H192 H 0.77629 0.58598 0.28572 0.0
H193 H 0.73534 0.50388 0.26837 0.0
O194 O 0.80039 0.64588 0.1901 0.0
H195 H 0.71303 0.65604 0.21105 0.0
H196 H 0.77833 0.66342 0.15397 0.0
H197 H 0.66136 0.53425 0.31431 0.0
H198 H 0.84478 0.55997 0.23011 0.0
H199 H 0.67118 0.48811 0.32894 0.0
H200 H 0.86766 0.58361 0.27036 0.0
O201 O 0.68968 0.55293 0.23079 0.0
H202 H 0.77173 0.55853 0.13114 0.0
H203 H 0.69651 0.6004 0.16027 0.0
H204 H 0.68336 0.56915 0.12203 0.0
H205 H 0.72112 0.54798 0.10724 0.0
H206 H 0.7838 0.5897 0.16936 0.0
H207 H 0.77304 0.71031 0.13601 0.0
H208 H 0.73695 0.73012 0.15583 0.0
O209 O 0.70029 0.5952 0.20492 0.0
C210 C 0.75562 0.63445 0.25053 0.0
C211 C 0.72249 0.69416 0.18477 0.0
C212 C 0.75971 0.69849 0.15245 0.0
N213 N 0.74572 0.65682 0.1834 0.0
C214 C 0.72602 0.66771 0.1945 0.0
C215 C 0.76265 0.67198 0.16272 0.0
C216 C 0.73945 0.70958 0.16358 0.0
C217 C 0.79767 0.5599 0.23586 0.0
N218 N 0.77879 0.56718 0.25131 0.0
C219 C 0.82988 0.56567 0.24245 0.0
C220 C 0.84273 0.57897 0.26502 0.0
C221 C 0.82331 0.58632 0.28068 0.0
C222 C 0.79123 0.58027 0.27347 0.0
C223 C 0.70394 0.49296 0.29948 0.0
C224 C 0.69317 0.5445 0.28318 0.0
C225 C 0.71909 0.51056 0.27837 0.0
N226 N 0.71377 0.53611 0.27057 0.0
C227 C 0.6776 0.52745 0.30436 0.0
C228 C 0.68309 0.50154 0.31255 0.0
C229 C 0.67996 0.56913 0.21727 0.0
C230 C 0.75514 0.56772 0.13736 0.0
C231 C 0.71305 0.59125 0.15396 0.0
C232 C 0.7055 0.57361 0.13228 0.0
C233 C 0.72671 0.56176 0.12398 0.0
N234 N 0.74099 0.597 0.16698 0.0
C235 C 0.76194 0.58551 0.15894 0.0
Co236 Co 0.16674 0.72369 0.56342 0.0
Co237 Co 0.12969 0.74922 0.52013 0.0
O238 O 0.16928 0.75188 0.53623 0.0
C239 C 0.20582 0.71035 0.52728 0.0
O240 O 0.18285 0.70717 0.51157 0.0
C241 C 0.1687 0.82003 0.53651 0.0
O242 O 0.17082 0.80778 0.55732 0.0
O243 O 0.10862 0.75017 0.55115 0.0
O244 O 0.13014 0.72956 0.57836 0.0
H245 H 0.00494 0.70547 0.50635 0.0
H246 H 0.23339 0.78234 0.54927 0.0
O247 O 0.20344 0.71728 0.54902 0.0
H248 H 0.21486 0.80571 0.63245 0.0
H249 H 0.2162 0.68223 0.62693 0.0
H250 H 0.1105 0.66884 0.5914 0.0
H251 H 0.17263 0.75301 0.61219 0.0
H252 H 0.2186 0.71809 0.59292 0.0
O253 O 0.15346 0.80001 0.51909 0.0
H254 H 0.05475 0.7082 0.52647 0.0
H255 H 0.1216 0.78698 0.47936 0.0
H256 H 0.10691 0.63264 0.62554 0.0
H257 H 0.27644 0.83524 0.56892 0.0
H258 H 0.16004 0.63923 0.64353 0.0
H259 H 0.26723 0.84724 0.61079 0.0
O260 O 0.13207 0.68175 0.54688 0.0
H261 H 0.22556 0.78903 0.46084 0.0
H262 H 0.10469 0.70569 0.47645 0.0
H263 H 0.13086 0.70323 0.43833 0.0
H264 H 0.19172 0.74512 0.43033 0.0
H265 H 0.19844 0.79042 0.49879 0.0
H266 H 0.07254 0.78532 0.45885 0.0
H267 H 0.0137 0.74423 0.47227 0.0
O268 O 0.1051 0.69845 0.5211 0.0
C269 C 0.11047 0.74085 0.57235 0.0
C270 C 0.03044 0.72338 0.50026 0.0
C271 C 0.06839 0.76823 0.47362 0.0
N272 N 0.09099 0.74744 0.50391 0.0
C273 C 0.05873 0.72495 0.51153 0.0
C274 C 0.09606 0.76908 0.48532 0.0
C275 C 0.03538 0.74516 0.48116 0.0
C276 C 0.22937 0.78724 0.56756 0.0
N277 N 0.20062 0.76454 0.5796 0.0
C278 C 0.25376 0.8173 0.57857 0.0
C279 C 0.24856 0.82404 0.60205 0.0
C280 C 0.21917 0.80076 0.61421 0.0
C281 C 0.19531 0.77099 0.60263 0.0
C282 C 0.19288 0.67916 0.61928 0.0
C283 C 0.13372 0.67198 0.59924 0.0
C284 C 0.19408 0.69934 0.59999 0.0
N285 N 0.16472 0.69571 0.59032 0.0
C286 C 0.13153 0.65136 0.61852 0.0
C287 C 0.16136 0.65505 0.62859 0.0
C288 C 0.109 0.67552 0.53139 0.0
C289 C 0.199 0.7707 0.46409 0.0
C290 C 0.1312 0.72398 0.47311 0.0
C291 C 0.14586 0.72249 0.45148 0.0
C292 C 0.18001 0.74602 0.447 0.0
N293 N 0.14999 0.74827 0.48978 0.0
C294 C 0.18347 0.77145 0.4855 0.0
Co295 Co 0.42733 0.172 0.90147 0.0
Co296 Co 0.37178 0.12805 0.85527 0.0
O297 O 0.4058 0.16994 0.87082 0.0
C298 C 0.48424 0.20539 0.86752 0.0
O299 O 0.46634 0.17991 0.85291 0.0
C300 C 0.33704 0.16729 0.8624 0.0
O301 O 0.34868 0.17205 0.8844 0.0
O302 O 0.3457 0.11022 0.88562 0.0
O303 O 0.38283 0.13773 0.91537 0.0
H304 H 0.29551 0.00155 0.84681 0.0
H305 H 0.43803 0.23566 0.87865 0.0
O306 O 0.47243 0.20637 0.88799 0.0
H307 H 0.38443 0.23019 0.95661 0.0
H308 H 0.5091 0.23217 0.9691 0.0
H309 H 0.42146 0.12102 0.93726 0.0
H310 H 0.39721 0.18535 0.94476 0.0
H311 H 0.48067 0.2286 0.93066 0.0
O312 O 0.3442 0.1503 0.84769 0.0
H313 H 0.33888 0.05434 0.8664 0.0
H314 H 0.33127 0.11357 0.81041 0.0
H315 H 0.44903 0.12344 0.97587 0.0
H316 H 0.42593 0.2812 0.88986 0.0
H317 H 0.4932 0.17933 0.99202 0.0
H318 H 0.39885 0.27857 0.92907 0.0
O319 O 0.43632 0.13498 0.89183 0.0
H320 H 0.43464 0.2167 0.79214 0.0
H321 H 0.39707 0.09909 0.81792 0.0
H322 H 0.43078 0.12115 0.78088 0.0
H323 H 0.4498 0.18036 0.76778 0.0
H324 H 0.40108 0.19368 0.82915 0.0
H325 H 0.28761 0.06143 0.79029 0.0
H326 H 0.26957 0.00491 0.80847 0.0
O327 O 0.3986 0.10515 0.86286 0.0
C328 C 0.35335 0.11582 0.90776 0.0
C329 C 0.30325 0.02601 0.83867 0.0
C330 C 0.29878 0.05963 0.80696 0.0
N331 N 0.33779 0.08695 0.83944 0.0
C332 C 0.32786 0.05598 0.84964 0.0
C333 C 0.32346 0.08906 0.81845 0.0
C334 C 0.28868 0.02793 0.81717 0.0
C335 C 0.42654 0.23452 0.89583 0.0
N336 N 0.41852 0.208 0.91108 0.0
C337 C 0.41962 0.2603 0.90205 0.0
C338 C 0.40438 0.25878 0.92403 0.0
C339 C 0.39627 0.23164 0.93949 0.0
C340 C 0.40352 0.20629 0.93266 0.0
C341 C 0.48984 0.20768 0.96228 0.0
C342 C 0.4405 0.14545 0.94426 0.0
C343 C 0.47371 0.20549 0.9405 0.0
N344 N 0.44924 0.17466 0.93185 0.0
C345 C 0.45609 0.14665 0.96609 0.0
C346 C 0.4809 0.17802 0.97513 0.0
C347 C 0.42278 0.11023 0.87707 0.0
C348 C 0.42642 0.19082 0.79763 0.0
C349 C 0.40528 0.12489 0.81234 0.0
C350 C 0.42431 0.13722 0.79134 0.0
C351 C 0.43495 0.17044 0.78399 0.0
N352 N 0.39699 0.14504 0.82561 0.0
C353 C 0.40729 0.17761 0.81851 0.0
Co354 Co 0.57178 0.73163 0.43391 0.0
Co355 Co 0.62673 0.74614 0.48114 0.0
O356 O 0.59292 0.75311 0.46421 0.0
C357 C 0.51382 0.71183 0.46652 0.0
O358 O 0.53061 0.70484 0.48256 0.0
C359 C 0.6611 0.81923 0.47158 0.0
O360 O 0.64975 0.81065 0.44962 0.0
O361 O 0.65342 0.75262 0.45134 0.0
O362 O 0.61616 0.73967 0.42118 0.0
H363 H 0.70318 0.69683 0.49412 0.0
H364 H 0.56241 0.78736 0.45306 0.0
O365 O 0.52677 0.72313 0.44601 0.0
H366 H 0.61799 0.82822 0.37459 0.0
H367 H 0.49218 0.70661 0.36424 0.0
H368 H 0.57698 0.68288 0.4013 0.0
H369 H 0.60335 0.77119 0.38927 0.0
H370 H 0.51999 0.73406 0.40228 0.0
O371 O 0.65408 0.79628 0.48729 0.0
H372 H 0.66013 0.70504 0.47278 0.0
H373 H 0.66626 0.77462 0.5261 0.0
H374 H 0.55002 0.6551 0.36313 0.0
H375 H 0.57634 0.84447 0.43898 0.0
H376 H 0.50729 0.66693 0.34436 0.0
H377 H 0.60445 0.86528 0.39952 0.0
O378 O 0.56137 0.68627 0.44614 0.0
H379 H 0.56287 0.77558 0.54116 0.0
H380 H 0.60067 0.69405 0.51999 0.0
H381 H 0.56636 0.68456 0.55647 0.0
H382 H 0.54723 0.72552 0.56726 0.0
H383 H 0.59701 0.78396 0.50475 0.0
H384 H 0.70958 0.76738 0.54795 0.0
H385 H 0.72821 0.72814 0.532 0.0
O386 O 0.60004 0.69608 0.47494 0.0
C387 C 0.64574 0.7483 0.42918 0.0
C388 C 0.69517 0.71389 0.50131 0.0
C389 C 0.6988 0.75353 0.5315 0.0
N390 N 0.66044 0.73998 0.49833 0.0
C391 C 0.67072 0.71854 0.48935 0.0
C392 C 0.6743 0.75756 0.51904 0.0
C393 C 0.70923 0.7315 0.52254 0.0
C394 C 0.57432 0.79611 0.43576 0.0
N395 N 0.58191 0.7759 0.42196 0.0
C396 C 0.58229 0.82852 0.42793 0.0
C397 C 0.5981 0.8402 0.4058 0.0
C398 C 0.60572 0.81943 0.39181 0.0
C399 C 0.59743 0.78718 0.40024 0.0
C400 C 0.51081 0.7013 0.37222 0.0
C401 C 0.55855 0.68829 0.39316 0.0
C402 C 0.52658 0.71671 0.39378 0.0
N403 N 0.55026 0.71026 0.40389 0.0
C404 C 0.54331 0.67242 0.37158 0.0
C405 C 0.5193 0.67905 0.36107 0.0
C406 C 0.57512 0.67613 0.46157 0.0
C407 C 0.57113 0.75761 0.53668 0.0
C408 C 0.59241 0.71196 0.52455 0.0
C409 C 0.57304 0.70649 0.54525 0.0
C410 C 0.56233 0.72949 0.5513 0.0
N411 N 0.60096 0.73962 0.51032 0.0
C412 C 0.59059 0.7623 0.51615 0.0
Co413 Co 0.82374 0.5663 0.76307 0.0
Co414 Co 0.8665 0.62529 0.80768 0.0
O415 O 0.82489 0.59041 0.79222 0.0
C416 C 0.78624 0.51179 0.79822 0.0
O417 O 0.81058 0.52996 0.81358 0.0
C418 C 0.82744 0.65929 0.79683 0.0
O419 O 0.82454 0.64728 0.77506 0.0
O420 O 0.8856 0.64913 0.77675 0.0
O421 O 0.86013 0.60906 0.74843 0.0
H422 H 0.9929 0.70158 0.81751 0.0
H423 H 0.75988 0.56012 0.78219 0.0
O424 O 0.78723 0.52281 0.77711 0.0
H425 H 0.77256 0.60837 0.70121 0.0
H426 H 0.76577 0.48077 0.69709 0.0
H427 H 0.87615 0.56744 0.73069 0.0
H428 H 0.81472 0.59396 0.71685 0.0
H429 H 0.76797 0.51229 0.73367 0.0
O430 O 0.84407 0.65331 0.81263 0.0
H431 H 0.9406 0.65707 0.79805 0.0
H432 H 0.8797 0.66891 0.85072 0.0
H433 H 0.87513 0.53675 0.69396 0.0
H434 H 0.71696 0.57393 0.7672 0.0
H435 H 0.81963 0.49306 0.67693 0.0
H436 H 0.72324 0.59836 0.72646 0.0
O437 O 0.85859 0.55623 0.77609 0.0
H438 H 0.77562 0.56764 0.87032 0.0
H439 H 0.89388 0.60245 0.8477 0.0
H440 H 0.87048 0.57168 0.88564 0.0
H441 H 0.81094 0.55408 0.89717 0.0
H442 H 0.79995 0.59822 0.83245 0.0
H443 H 0.93133 0.71374 0.87066 0.0
H444 H 0.98844 0.73024 0.85409 0.0
O445 O 0.8893 0.59764 0.80277 0.0
C446 C 0.88151 0.63926 0.75503 0.0
C447 C 0.96817 0.69452 0.82495 0.0
C448 C 0.93361 0.70138 0.85477 0.0
N449 N 0.90719 0.66019 0.82339 0.0
C450 C 0.93849 0.66926 0.81406 0.0
C451 C 0.90448 0.67603 0.84339 0.0
C452 C 0.96564 0.71062 0.84546 0.0
C453 C 0.76259 0.57043 0.76436 0.0
N454 N 0.78968 0.57609 0.75038 0.0
C455 C 0.73829 0.57833 0.756 0.0
C456 C 0.74186 0.59208 0.73316 0.0
C457 C 0.76953 0.59772 0.71899 0.0
C458 C 0.79336 0.58957 0.72795 0.0
C459 C 0.7901 0.49979 0.70431 0.0
C460 C 0.8519 0.54861 0.7233 0.0
C461 C 0.79151 0.51766 0.72504 0.0
N462 N 0.82215 0.54185 0.73418 0.0
C463 C 0.85148 0.53125 0.70254 0.0
C464 C 0.82033 0.50671 0.693 0.0
C465 C 0.88323 0.57116 0.79084 0.0
C466 C 0.80163 0.57526 0.86553 0.0
C467 C 0.86794 0.59483 0.85257 0.0
C468 C 0.85484 0.57747 0.8741 0.0
C469 C 0.82144 0.56762 0.88057 0.0
N470 N 0.84835 0.60226 0.83793 0.0
C471 C 0.81559 0.59272 0.84416 0.0
Co472 Co 0.26192 0.82847 0.0893 0.0
Co473 Co 0.24861 0.87184 0.13495 0.0
O474 O 0.24147 0.83014 0.11956 0.0
C475 C 0.28278 0.79319 0.12347 0.0
O476 O 0.29094 0.81882 0.13806 0.0
C477 C 0.17457 0.83076 0.12823 0.0
O478 O 0.18149 0.82749 0.1059 0.0
O479 O 0.23938 0.88871 0.10459 0.0
O480 O 0.25343 0.86397 0.07533 0.0
H481 H 0.29565 -0.00204 0.14267 0.0
H482 H 0.20671 0.76477 0.11062 0.0
O483 O 0.27076 0.79284 0.10281 0.0
H484 H 0.16326 0.77439 0.03178 0.0
H485 H 0.28463 0.7691 0.02171 0.0
H486 H 0.30955 0.88004 0.05482 0.0
H487 H 0.22087 0.81761 0.04501 0.0
H488 H 0.2585 0.77216 0.0597 0.0
O489 O 0.19873 0.84822 0.14286 0.0
H490 H 0.28744 0.94549 0.12329 0.0
H491 H 0.22237 0.88578 0.1799 0.0
H492 H 0.33601 0.87816 0.01667 0.0
H493 H 0.14904 0.72084 0.09802 0.0
H494 H 0.32358 0.82237 0.99988 0.0
H495 H 0.12693 0.72557 0.05837 0.0
O496 O 0.30772 0.86422 0.10029 0.0
H497 H 0.22587 0.78461 0.19857 0.0
H498 H 0.30333 0.90244 0.1719 0.0
H499 H 0.31628 0.88156 0.20898 0.0
H500 H 0.27739 0.82224 0.22253 0.0
H501 H 0.21401 0.80644 0.16152 0.0
H502 H 0.22964 0.93758 0.19982 0.0
H503 H 0.26662 0.99418 0.18123 0.0
O504 O 0.29851 0.89593 0.12705 0.0
C505 C 0.24375 0.88445 0.08259 0.0
C506 C 0.27959 0.97346 0.151 0.0
C507 C 0.2425 0.93956 0.18306 0.0
N508 N 0.25476 0.91269 0.1506 0.0
C509 C 0.27495 0.94369 0.14016 0.0
C510 C 0.23844 0.91033 0.17169 0.0
C511 C 0.26326 0.97132 0.17262 0.0
C512 C 0.1974 0.76681 0.09324 0.0
N513 N 0.2172 0.79361 0.07852 0.0
C514 C 0.16467 0.74194 0.08624 0.0
C515 C 0.15226 0.74463 0.06401 0.0
C516 C 0.17263 0.77203 0.04909 0.0
C517 C 0.2052 0.79645 0.05669 0.0
C518 C 0.29019 0.79355 0.02881 0.0
C519 C 0.30387 0.85567 0.04754 0.0
C520 C 0.27553 0.79544 0.05033 0.0
N521 N 0.28229 0.82623 0.05934 0.0
C522 C 0.319 0.85476 0.02597 0.0
C523 C 0.31204 0.82346 0.01657 0.0
C524 C 0.31821 0.88978 0.11425 0.0
C525 C 0.24294 0.81054 0.19289 0.0
C526 C 0.2863 0.87658 0.17767 0.0
C527 C 0.29373 0.86492 0.1987 0.0
C528 C 0.27189 0.83165 0.2063 0.0
N529 N 0.25785 0.85572 0.16462 0.0
C530 C 0.23628 0.82309 0.17198 0.0
Co531 Co 0.41847 0.2522 0.44753 0.0
Co532 Co 0.36407 0.24735 0.49258 0.0
O533 O 0.39429 0.23367 0.4775 0.0
C534 C 0.47286 0.26296 0.48148 0.0
O535 O 0.45889 0.27395 0.49709 0.0
C536 C 0.32155 0.17417 0.48478 0.0
O537 O 0.332 0.18073 0.4625 0.0
O538 O 0.3397 0.24299 0.46192 0.0
O539 O 0.37815 0.25199 0.43336 0.0
H540 H 0.30159 0.31247 0.50009 0.0
H541 H 0.41482 0.19031 0.46828 0.0
O542 O 0.45956 0.25284 0.46091 0.0
H543 H 0.36065 0.1554 0.38889 0.0
H544 H 0.4967 0.26232 0.38006 0.0
H545 H 0.42516 0.30575 0.41386 0.0
H546 H 0.38461 0.21469 0.40267 0.0
H547 H 0.46495 0.23862 0.41765 0.0
O548 O 0.33145 0.19834 0.49987 0.0
H549 H 0.34023 0.29586 0.48096 0.0
H550 H 0.32207 0.22545 0.53699 0.0
H551 H 0.45625 0.32998 0.37612 0.0
H552 H 0.39137 0.13078 0.45515 0.0
H553 H 0.49234 0.30824 0.35898 0.0
H554 H 0.36394 0.11297 0.41523 0.0
O555 O 0.43593 0.29948 0.45918 0.0
H556 H 0.41555 0.20952 0.55686 0.0
H557 H 0.39474 0.30121 0.53004 0.0
H558 H 0.42609 0.3081 0.56765 0.0
H559 H 0.43664 0.26201 0.58129 0.0
H560 H 0.38458 0.2038 0.51927 0.0
H561 H 0.28301 0.24108 0.55665 0.0
H562 H 0.27268 0.28499 0.53822 0.0
O563 O 0.39643 0.29632 0.48521 0.0
C564 C 0.34915 0.24702 0.4401 0.0
C565 C 0.30599 0.2934 0.50835 0.0
C566 C 0.29553 0.2533 0.54007 0.0
N567 N 0.33367 0.26001 0.508 0.0
C568 C 0.32793 0.284 0.49765 0.0
C569 C 0.31762 0.24452 0.52885 0.0
C570 C 0.28975 0.27795 0.52972 0.0
C571 C 0.40324 0.18283 0.45078 0.0
N572 N 0.40125 0.20599 0.43621 0.0
C573 C 0.38988 0.14906 0.44348 0.0
C574 C 0.37444 0.13907 0.4211 0.0
C575 C 0.37258 0.16286 0.40632 0.0
C576 C 0.38615 0.19639 0.41423 0.0
C577 C 0.48101 0.27196 0.38732 0.0
C578 C 0.44066 0.29603 0.40643 0.0
C579 C 0.46304 0.25869 0.40862 0.0
N580 N 0.44303 0.27063 0.41783 0.0
C581 C 0.45827 0.30991 0.3851 0.0
C582 C 0.47854 0.29772 0.3755 0.0
C583 C 0.42368 0.31316 0.47296 0.0
C584 C 0.41103 0.22973 0.55113 0.0
C585 C 0.39931 0.28108 0.53583 0.0
C586 C 0.41701 0.28509 0.55716 0.0
C587 C 0.4229 0.25921 0.56482 0.0
N588 N 0.3877 0.25206 0.52253 0.0
C589 C 0.39338 0.22658 0.52992 0.0
Co590 Co 0.15742 0.42549 0.77619 0.0
Co591 Co 0.10185 0.35736 0.81084 0.0
O592 O 0.14768 0.39255 0.80159 0.0
C593 C 0.1948 0.46838 0.8177 0.0
O594 O 0.16745 0.45048 0.83081 0.0
C595 C 0.13716 0.3202 0.79842 0.0
O596 O 0.14391 0.33632 0.77787 0.0
O597 O 0.08901 0.34274 0.777 0.0
O598 O 0.12036 0.39062 0.75593 0.0
H599 H 0.97402 0.29023 0.8058 0.0
H600 H 0.21294 0.416 0.79573 0.0
O601 O 0.195 0.46133 0.79568 0.0
H602 H 0.20721 0.38872 0.70982 0.0
H603 H 0.23454 0.52352 0.72271 0.0
H604 H 0.11534 0.44245 0.74469 0.0
H605 H 0.16893 0.40714 0.72709 0.0
H606 H 0.22137 0.48059 0.75425 0.0
O607 O 0.11942 0.3248 0.81412 0.0
H608 H 0.03169 0.33528 0.79409 0.0
H609 H 0.07544 0.30267 0.84776 0.0
H610 H 0.12733 0.48479 0.71291 0.0
H611 H 0.25185 0.39787 0.77917 0.0
H612 H 0.18731 0.52571 0.70174 0.0
H613 H 0.24903 0.38397 0.73593 0.0
O614 O 0.12512 0.43813 0.79037 0.0
H615 H 0.17734 0.39042 0.88344 0.0
H616 H 0.06895 0.37396 0.85078 0.0
H617 H 0.08461 0.39317 0.89253 0.0
H618 H 0.13913 0.40146 0.90912 0.0
H619 H 0.16085 0.37155 0.84173 0.0
H620 H 0.01826 0.25706 0.85995 0.0
H621 H 0.96705 0.25074 0.83897 0.0
O622 O 0.08418 0.38988 0.80747 0.0
C623 C 0.09718 0.35949 0.75746 0.0
C624 C -0.00388 0.29281 0.81515 0.0
C625 C 0.02096 0.27416 0.84551 0.0
N626 N 0.05682 0.32179 0.8204 0.0
C627 C 0.02882 0.31834 0.80865 0.0
C628 C 0.05326 0.29998 0.83851 0.0
C629 C 0.99224 0.27064 0.83374 0.0
C630 C 0.21183 0.41036 0.77685 0.0
N631 N 0.18882 0.41282 0.76238 0.0
C632 C 0.23382 0.39996 0.76759 0.0
C633 C 0.23218 0.39211 0.74334 0.0
C634 C 0.20871 0.39475 0.72868 0.0
C635 C 0.18707 0.40516 0.73857 0.0
C636 C 0.2083 0.50579 0.72739 0.0
C637 C 0.14149 0.46006 0.73983 0.0
C638 C 0.20069 0.48147 0.74526 0.0
N639 N 0.16761 0.45888 0.75116 0.0
C640 C 0.14813 0.48402 0.72186 0.0
C641 C 0.18179 0.50699 0.71562 0.0
C642 C 0.09628 0.42075 0.80066 0.0
C643 C 0.15348 0.38681 0.87643 0.0
C644 C 0.09277 0.37762 0.85785 0.0
C645 C 0.10146 0.38842 0.88152 0.0
C646 C 0.13205 0.39304 0.89082 0.0
N647 N 0.11389 0.37149 0.84387 0.0
C648 C 0.14393 0.37599 0.85286 0.0
Co649 Co 0.74015 0.17764 0.0894 0.0
Co650 Co 0.75005 0.12989 0.13367 0.0
O651 O 0.75885 0.17303 0.11967 0.0
C652 C 0.71671 0.20942 0.12486 0.0
O653 O 0.70942 0.18357 0.13904 0.0
C654 C 0.82423 0.16892 0.12676 0.0
O655 O 0.81755 0.1745 0.10491 0.0
O656 O 0.75765 0.11342 0.10249 0.0
O657 O 0.75032 0.14417 0.07391 0.0
H658 H 0.69736 0.00271 0.1383 0.0
H659 H 0.79353 0.23862 0.11452 0.0
O660 O 0.72963 0.21131 0.10429 0.0
H661 H 0.84205 0.2397 0.03529 0.0
H662 H 0.72034 0.24306 0.02462 0.0
H663 H 0.69549 0.12952 0.05212 0.0
H664 H 0.78381 0.1947 0.04581 0.0
H665 H 0.74441 0.23652 0.06254 0.0
O666 O 0.79991 0.15107 0.14118 0.0
H667 H 0.70795 0.05699 0.12056 0.0
H668 H 0.77553 0.11204 0.17735 0.0
H669 H 0.67114 0.13492 0.01396 0.0
H670 H 0.85177 0.28431 0.10469 0.0
H671 H 0.68354 0.19202 -0.0 0.0
H672 H 0.87645 0.28494 0.06486 0.0
O673 O 0.69369 0.1405 0.09829 0.0
H674 H 0.77756 0.21483 0.19984 0.0
H675 H 0.69567 0.09953 0.17087 0.0
H676 H 0.68466 0.11966 0.20904 0.0
H677 H 0.72579 0.17769 0.22375 0.0
H678 H 0.78745 0.19378 0.16168 0.0
H679 H 0.7659 0.05837 0.19563 0.0
H680 H 0.72646 0.0032 0.17612 0.0
O681 O 0.70033 0.10835 0.12615 0.0
C682 C 0.75666 0.12104 0.08064 0.0
C683 C 0.71451 0.02658 0.14702 0.0
C684 C 0.75301 0.05783 0.17918 0.0
N685 N 0.74208 0.08759 0.14803 0.0
C686 C 0.72051 0.05738 0.1371 0.0
C687 C 0.75842 0.08812 0.16873 0.0
C688 C 0.73087 0.02688 0.16823 0.0
C689 C 0.80401 0.23888 0.09708 0.0
N690 N 0.78532 0.214 0.08076 0.0
C691 C 0.83703 0.26475 0.09165 0.0
C692 C 0.85087 0.26507 0.06931 0.0
C693 C 0.83161 0.23968 0.05272 0.0
C694 C 0.79869 0.21419 0.05879 0.0
C695 C 0.71481 0.21805 0.03049 0.0
C696 C 0.70117 0.15447 0.04606 0.0
C697 C 0.72829 0.21418 0.05197 0.0
N698 N 0.72156 0.1827 0.05941 0.0
C699 C 0.68723 0.15736 0.02449 0.0
C700 C 0.69417 0.18941 0.01668 0.0
C701 C 0.68184 0.11504 0.11249 0.0
C702 C 0.7595 0.18945 0.19365 0.0
C703 C 0.71367 0.12483 0.17714 0.0
C704 C 0.70732 0.13607 0.19879 0.0
C705 C 0.73043 0.16862 0.20704 0.0
N706 N 0.74227 0.1454 0.16413 0.0
C707 C 0.76504 0.17734 0.17211 0.0
C708 C 0.29013 0.75905 0.15562 0.0
C709 C 0.28594 0.76384 0.13129 0.0
C710 C 0.29111 0.73016 0.16309 0.0
C711 C 0.30737 0.66275 0.14276 0.0
H712 H 0.24752 0.61074 0.195 0.0
C713 C 0.28252 0.52865 0.16878 0.0
C714 C 0.27893 0.52056 0.19325 0.0
C715 C 0.28462 0.55893 0.16092 0.0
C716 C 0.26479 0.62519 0.18063 0.0
H717 H 0.28049 0.74276 0.09561 0.0
H718 H 0.28256 0.69247 0.10871 0.0
H719 H 0.25031 0.66342 0.18228 0.0
H720 H 0.27578 0.5382 0.22877 0.0
H721 H 0.28042 0.5912 0.2152 0.0
H722 H 0.32226 0.62481 0.14129 0.0
C723 C 0.28502 0.71103 0.12195 0.0
C724 C 0.2663 0.65532 0.17334 0.0
C725 C 0.28364 0.73969 0.11451 0.0
C726 C 0.27812 0.54353 0.20974 0.0
C727 C 0.28059 0.57386 0.20194 0.0
C728 C 0.30615 0.63274 0.15022 0.0
C729 C 0.28833 0.7058 0.14633 0.0
C730 C 0.28756 0.67435 0.15434 0.0
C731 C 0.28349 0.5818 0.17743 0.0
C732 C 0.28483 0.61361 0.16926 0.0
H733 H 0.2919 0.77721 0.16896 0.0
H734 H 0.29394 0.72679 0.18199 0.0
H735 H 0.32413 0.67713 0.12813 0.0
H736 H 0.28306 0.51132 0.15567 0.0
H737 H 0.28643 0.56407 0.14188 0.0
C738 C 0.74298 0.26587 0.49409 0.0
C739 C 0.75592 0.26684 0.51708 0.0
C740 C 0.71213 0.26541 0.49121 0.0
C741 C 0.63365 0.24824 0.52363 0.0
H742 H 0.62584 0.30053 0.47157 0.0
C743 C 0.51802 0.26927 0.51048 0.0
C744 C 0.5049 0.26335 0.48708 0.0
C745 C 0.54872 0.27002 0.5153 0.0
C746 C 0.62765 0.28572 0.48613 0.0
H747 H 0.74668 0.26796 0.55511 0.0
H748 H 0.69332 0.26795 0.55006 0.0
H749 H 0.67931 0.30099 0.47763 0.0
H750 H 0.51355 0.25345 0.45044 0.0
H751 H 0.56691 0.25502 0.45887 0.0
H752 H 0.58188 0.23334 0.53217 0.0
C753 C 0.7066 0.26688 0.53425 0.0
C754 C 0.65819 0.28581 0.48953 0.0
C755 C 0.73729 0.26705 0.53714 0.0
C756 C 0.52293 0.25809 0.46868 0.0
C757 C 0.55363 0.25919 0.47344 0.0
C758 C 0.60314 0.24839 0.52033 0.0
C759 C 0.69373 0.26622 0.51125 0.0
C760 C 0.66145 0.26676 0.50814 0.0
C761 C 0.56691 0.2653 0.49674 0.0
C762 C 0.59977 0.2668 0.50136 0.0
H763 H 0.75662 0.26538 0.4783 0.0
H764 H 0.70261 0.26423 0.47325 0.0
H765 H 0.63518 0.23299 0.53798 0.0
H766 H 0.50461 0.27329 0.52503 0.0
H767 H 0.55854 0.27486 0.53342 0.0
C768 C 0.44948 0.73541 0.85673 0.0
C769 C 0.46089 0.74618 0.88018 0.0
C770 C 0.42059 0.70379 0.85264 0.0
C771 C 0.34103 0.63851 0.87814 0.0
H772 H 0.35044 0.57909 0.83268 0.0
C773 C 0.22816 0.50539 0.85243 0.0
C774 C 0.2255 0.49778 0.82787 0.0
C775 C 0.25737 0.53383 0.86147 0.0
C776 C 0.34728 0.59545 0.84529 0.0
H777 H 0.4505 0.73296 0.91778 0.0
H778 H 0.39929 0.67779 0.91051 0.0
H779 H 0.39999 0.63359 0.84299 0.0
H780 H 0.2513 0.51411 0.79356 0.0
H781 H 0.30125 0.56355 0.80908 0.0
H782 H 0.28796 0.60103 0.87967 0.0
C783 C 0.41301 0.69378 0.8954 0.0
C784 C 0.37567 0.62656 0.8512 0.0
C785 C 0.44228 0.72521 0.8995 0.0
C786 C 0.25254 0.51901 0.81261 0.0
C787 C 0.28142 0.54733 0.82156 0.0
C788 C 0.3124 0.60746 0.87196 0.0
C789 C 0.40231 0.68262 0.87192 0.0
C790 C 0.37265 0.64863 0.8673 0.0
C791 C 0.28432 0.55509 0.84608 0.0
C792 C 0.3151 0.58596 0.85503 0.0
H793 H 0.46338 0.75096 0.84149 0.0
H794 H 0.41257 0.69577 0.83437 0.0
H795 H 0.33818 0.6552 0.89062 0.0
H796 H 0.20776 0.48942 0.86463 0.0
H797 H 0.25895 0.53903 0.88049 0.0
C798 C 0.70676 0.44946 0.21236 0.0
C799 C 0.70582 0.47289 0.19636 0.0
C800 C 0.7032 0.41887 0.20401 0.0
C801 C 0.71875 0.38225 0.15113 0.0
H802 H 0.66287 0.29582 0.18319 0.0
C803 C 0.70996 0.25949 0.11573 0.0
C804 C 0.71056 0.23691 0.13267 0.0
C805 C 0.70558 0.28646 0.12296 0.0
C806 C 0.67885 0.31982 0.17419 0.0
H807 H 0.69977 0.48247 0.15913 0.0
H808 H 0.6939 0.42898 0.14449 0.0
H809 H 0.66168 0.34643 0.1968 0.0
H810 H 0.70656 0.22446 0.17043 0.0
H811 H 0.69993 0.27231 0.18322 0.0
H812 H 0.73693 0.35629 0.12908 0.0
C813 C 0.69738 0.43439 0.16349 0.0
C814 C 0.67803 0.3487 0.18192 0.0
C815 C 0.70058 0.46487 0.17188 0.0
C816 C 0.70607 0.24143 0.15698 0.0
C817 C 0.70208 0.26873 0.16427 0.0
C818 C 0.71983 0.35351 0.14356 0.0
C819 C 0.69896 0.41128 0.17947 0.0
C820 C 0.6981 0.38019 0.17051 0.0
C821 C 0.70216 0.29177 0.14734 0.0
C822 C 0.7 0.32197 0.15505 0.0
H823 H 0.71062 0.45488 0.23135 0.0
H824 H 0.70483 0.40163 0.21667 0.0
H825 H 0.7349 0.40635 0.14229 0.0
H826 H 0.71292 0.25638 0.09681 0.0
H827 H 0.70499 0.30324 0.1094 0.0
C828 C 0.46786 0.70199 0.49577 0.0
C829 C 0.47997 0.7073 0.47213 0.0
C830 C 0.43635 0.69918 0.50096 0.0
C831 C 0.37474 0.72189 0.47618 0.0
H832 H 0.31453 0.65967 0.52466 0.0
C833 C 0.24194 0.70489 0.49562 0.0
C834 C 0.23486 0.70629 0.51993 0.0
C835 C 0.27022 0.70219 0.48888 0.0
C836 C 0.33119 0.67723 0.51113 0.0
H837 H 0.46817 0.71266 0.43528 0.0
H838 H 0.41311 0.70706 0.44425 0.0
H839 H 0.36721 0.66004 0.51468 0.0
H840 H 0.25136 0.70522 0.55627 0.0
H841 H 0.30056 0.70053 0.54448 0.0
H842 H 0.33875 0.73911 0.47268 0.0
C843 C 0.42819 0.7059 0.45888 0.0
C844 C 0.36137 0.67754 0.50548 0.0
C845 C 0.4597 0.70895 0.45373 0.0
C846 C 0.25618 0.7043 0.53737 0.0
C847 C 0.28422 0.70134 0.53064 0.0
C848 C 0.34449 0.72143 0.48173 0.0
C849 C 0.41631 0.7014 0.48257 0.0
C850 C 0.38363 0.70008 0.48807 0.0
C851 C 0.29169 0.70054 0.50636 0.0
C852 C 0.32259 0.69933 0.49941 0.0
H853 H 0.483 0.70074 0.51033 0.0
H854 H 0.42811 0.69612 0.51944 0.0
H855 H 0.39159 0.73998 0.46298 0.0
H856 H 0.22596 0.70637 0.48179 0.0
H857 H 0.27531 0.70139 0.47002 0.0
C858 C 0.52746 0.23808 0.83584 0.0
C859 C 0.51758 0.23385 0.86 0.0
C860 C 0.55821 0.26623 0.82867 0.0
C861 C 0.64186 0.33272 0.85054 0.0
H862 H 0.63775 0.38554 0.79738 0.0
C863 C 0.75072 0.46885 0.82934 0.0
C864 C 0.75741 0.47838 0.80517 0.0
C865 C 0.72262 0.43756 0.83572 0.0
C866 C 0.63955 0.37083 0.812 0.0
H867 H 0.53253 0.25511 0.8957 0.0
H868 H 0.58623 0.30408 0.88314 0.0
H869 H 0.58701 0.33262 0.80866 0.0
H870 H 0.74073 0.46224 0.76868 0.0
H871 H 0.69244 0.40749 0.77974 0.0
H872 H 0.69444 0.37084 0.85386 0.0
C873 C 0.57026 0.28566 0.86979 0.0
C874 C 0.61044 0.34053 0.81846 0.0
C875 C 0.53941 0.25775 0.87693 0.0
C876 C 0.73599 0.45579 0.7875 0.0
C877 C 0.70819 0.42444 0.79384 0.0
C878 C 0.67111 0.36291 0.84395 0.0
C879 C 0.57974 0.29039 0.84557 0.0
C880 C 0.61124 0.32135 0.8379 0.0
C881 C 0.7009 0.4151 0.81803 0.0
C882 C 0.67022 0.38245 0.8247 0.0
H883 H 0.51113 0.22009 0.8224 0.0
H884 H 0.5651 0.26922 0.80989 0.0
H885 H 0.64319 0.31819 0.86548 0.0
H886 H 0.76675 0.48584 0.84335 0.0
H887 H 0.7175 0.43135 0.85454 0.0
C888 C 0.63059 0.57835 0.20947 0.0
C889 C 0.64294 0.55634 0.21544 0.0
C890 C 0.59548 0.5661 0.20829 0.0
C891 C 0.51411 0.49058 0.19676 0.0
H892 H 0.47421 0.53029 0.2378 0.0
C893 C 0.36846 0.42675 0.20927 0.0
C894 C 0.35406 0.44734 0.21385 0.0
C895 C 0.40385 0.44091 0.20843 0.0
C896 C 0.48483 0.51925 0.22581 0.0
H897 H 0.62826 0.50415 0.22425 0.0
H898 H 0.56698 0.48268 0.22146 0.0
H899 H 0.53582 0.55414 0.23742 0.0
H900 H 0.36539 0.49911 0.22032 0.0
H901 H 0.42692 0.52409 0.21771 0.0
H902 H 0.46363 0.45636 0.18447 0.0
C903 C 0.5845 0.50942 0.21804 0.0
C904 C 0.52017 0.53288 0.22575 0.0
C905 C 0.61952 0.52177 0.21976 0.0
C906 C 0.37576 0.48251 0.21704 0.0
C907 C 0.41113 0.49679 0.21571 0.0
C908 C 0.47884 0.47737 0.19641 0.0
C909 C 0.57218 0.53151 0.21247 0.0
C910 C 0.53504 0.51839 0.21144 0.0
C911 C 0.42576 0.47617 0.21165 0.0
C912 C 0.46359 0.49122 0.21117 0.0
H913 H 0.64804 0.60511 0.20609 0.0
H914 H 0.58649 0.58355 0.2039 0.0
H915 H 0.52512 0.47918 0.18542 0.0
H916 H 0.3524 0.39951 0.2069 0.0
H917 H 0.41394 0.42397 0.20575 0.0
C918 C 0.0527 0.62968 0.51619 0.0
C919 C 0.08555 0.63972 0.52483 0.0
C920 C 0.03007 0.59557 0.51077 0.0
C921 C 0.02349 0.51596 0.4929 0.0
H922 H 0.9409 0.47163 0.53091 0.0
C923 C 0.94339 0.37013 0.50177 0.0
C924 C 0.90868 0.35509 0.5075 0.0
C925 C 0.96345 0.40548 0.49975 0.0
C926 C 0.9633 0.48357 0.51961 0.0
H927 H 0.12093 0.62228 0.53373 0.0
H928 H 0.08146 0.56265 0.52362 0.0
H929 H 0.97902 0.53266 0.53471 0.0
H930 H 0.86698 0.3646 0.51376 0.0
H931 H 0.90138 0.42607 0.50883 0.0
H932 H 0.00774 0.46725 0.47736 0.0
C933 C 0.07328 0.58123 0.52135 0.0
C934 C 0.98524 0.51855 0.52199 0.0
C935 C 0.09568 0.6152 0.52729 0.0
C936 C 0.89385 0.37571 0.50963 0.0
C937 C 0.91368 0.41096 0.50702 0.0
C938 C 0.00116 0.48104 0.49008 0.0
C939 C 0.04021 0.57114 0.51334 0.0
C940 C 0.01577 0.53484 0.50901 0.0
C941 C 0.94902 0.42646 0.5029 0.0
C942 C 0.97107 0.46421 0.50378 0.0
H943 H 0.04419 0.64802 0.51414 0.0
H944 H 0.00461 0.58821 0.50464 0.0
H945 H 0.04688 0.52822 0.48259 0.0
H946 H 0.9555 0.35479 0.5002 0.0
H947 H 0.99055 0.41628 0.4969 0.0
C948 C 0.46255 0.09063 0.89164 0.0
C949 C 0.43556 0.08583 0.87663 0.0
C950 C 0.47393 0.06713 0.8918 0.0
C951 C 0.47884 0.00354 0.89935 0.0
H952 H 0.487 0.96373 0.84008 0.0
C953 C 0.51037 0.89499 0.89833 0.0
C954 C 0.53404 0.89718 0.8811 0.0
C955 C 0.49699 0.91686 0.89734 0.0
C956 C 0.48505 0.97476 0.85678 0.0
H957 H 0.39953 0.05244 0.84989 0.0
H958 H 0.41921 0.01134 0.85039 0.0
H959 H 0.46748 0.00503 0.83911 0.0
H960 H 0.56187 0.92401 0.84915 0.0
H961 H 0.53888 0.9623 0.84768 0.0
H962 H 0.49725 0.974 0.91697 0.0
C963 C 0.43183 0.03354 0.86182 0.0
C964 C 0.47349 -0.00185 0.85625 0.0
C965 C 0.42045 0.05707 0.86163 0.0
C966 C 0.54364 0.92148 0.8627 0.0
C967 C 0.5303 0.94336 0.86175 0.0
C968 C 0.4904 0.98019 0.89988 0.0
C969 C 0.4586 0.0382 0.877 0.0
C970 C 0.4704 0.01294 0.87753 0.0
C971 C 0.50698 0.94147 0.87915 0.0
C972 C 0.49377 0.9656 0.87859 0.0
H973 H 0.4749 0.11251 0.90339 0.0
H974 H 0.49497 0.07179 0.90342 0.0
H975 H 0.47633 0.01411 0.91611 0.0
H976 H 0.50228 0.87653 0.91271 0.0
H977 H 0.47871 0.91441 0.91083 0.0
C978 C 0.52749 0.61608 0.45728 0.0
C979 C 0.56116 0.63911 0.46429 0.0
C980 C 0.51423 0.58107 0.45992 0.0
C981 C 0.5302 0.5145 0.45511 0.0
H982 H 0.46492 0.46474 0.50536 0.0
C983 C 0.476 0.37029 0.4678 0.0
C984 C 0.44153 0.3507 0.47434 0.0
C985 C 0.49244 0.40583 0.46833 0.0
C986 C 0.48277 0.4781 0.49103 0.0
H987 H 0.60741 0.64352 0.47933 0.0
H988 H 0.58423 0.58196 0.48324 0.0
H989 H 0.48958 0.5264 0.50226 0.0
H990 H 0.39726 0.35298 0.48657 0.0
H991 H 0.42531 0.41468 0.48649 0.0
H992 H 0.52244 0.4665 0.44293 0.0
C993 C 0.56823 0.59133 0.47606 0.0
C994 C 0.49703 0.51337 0.48945 0.0
C995 C 0.58135 0.62641 0.47386 0.0
C996 C 0.42392 0.36735 0.4816 0.0
C997 C 0.44015 0.40283 0.48171 0.0
C998 C 0.51553 0.47915 0.45639 0.0
C999 C 0.5346 0.56857 0.46919 0.0
C1000 C 0.52069 0.53167 0.47144 0.0
C1001 C 0.47461 0.42259 0.475 0.0
C1002 C 0.49145 0.46042 0.4743 0.0
H1003 H 0.51128 0.62512 0.44999 0.0
H1004 H 0.48818 0.56371 0.45452 0.0
H1005 H 0.54833 0.52837 0.441 0.0
H1006 H 0.49034 0.35816 0.46236 0.0
H1007 H 0.51915 0.42011 0.46353 0.0
C1008 C 0.93909 0.57695 0.80318 0.0
C1009 C 0.90568 0.55661 0.79456 0.0
C1010 C 0.96046 0.56321 0.80616 0.0
C1011 C 0.9608 0.48427 0.81678 0.0
H1012 H 0.04752 0.52698 0.78352 0.0
C1013 C 0.03962 0.41709 0.80564 0.0
C1014 C 0.07526 0.43698 0.80401 0.0
C1015 C 0.01958 0.43254 0.80673 0.0
C1016 C 0.02378 0.51504 0.79339 0.0
H1017 H 0.86819 0.50574 0.78292 0.0
H1018 H 0.90538 0.48165 0.78869 0.0
H1019 H 0.01156 0.55275 0.78177 0.0
H1020 H 0.118 0.48864 0.80352 0.0
H1021 H 0.08329 0.51561 0.80657 0.0
H1022 H 0.97305 0.44697 0.82893 0.0
C1023 C 0.91502 0.50826 0.79288 0.0
C1024 C 0.00312 0.52978 0.79223 0.0
C1025 C 0.89388 0.52212 0.78944 0.0
C1026 C 0.09054 0.47262 0.80445 0.0
C1027 C 0.07056 0.48808 0.80602 0.0
C1028 C 0.98173 0.46984 0.81834 0.0
C1029 C 0.94856 0.52874 0.80107 0.0
C1030 C 0.97128 0.51427 0.80364 0.0
C1031 C 0.03475 0.46828 0.80669 0.0
C1032 C 0.01332 0.48476 0.80638 0.0
H1033 H 0.94892 0.60361 0.80725 0.0
H1034 H 0.98624 0.57945 0.81256 0.0
H1035 H 0.93643 0.47205 0.82592 0.0
H1036 H 0.02708 0.38955 0.80518 0.0
H1037 H 0.99214 0.41634 0.80684 0.0
C1038 C 0.37826 0.90161 0.11133 0.0
C1039 C 0.35537 0.91343 0.11573 0.0
C1040 C 0.41342 0.92394 0.11234 0.0
C1041 C 0.47814 0.00986 0.10139 0.0
H1042 H 0.53531 0.99449 0.14537 0.0
C1043 C 0.62255 0.10506 0.1081 0.0
C1044 C 0.64445 0.09242 0.11351 0.0
C1045 C 0.5872 0.08385 0.10935 0.0
C1046 C 0.51994 -0.00106 0.13264 0.0
H1047 H 0.35131 0.95787 0.12451 0.0
H1048 H 0.41307 -0.00279 0.12539 0.0
H1049 H 0.47381 0.95591 0.14546 0.0
H1050 H 0.64654 0.04754 0.12412 0.0
H1051 H 0.58507 0.01005 0.12503 0.0
H1052 H 0.52389 0.05164 0.08754 0.0
C1053 C 0.40357 0.97053 0.12155 0.0
C1054 C 0.48466 0.97695 0.13291 0.0
C1055 C 0.36835 0.94804 0.12112 0.0
C1056 C 0.63029 0.05806 0.12002 0.0
C1057 C 0.59493 0.03663 0.12073 0.0
C1058 C 0.51349 0.03141 0.10071 0.0
C1059 C 0.42632 0.9586 0.11722 0.0
C1060 C 0.46352 0.9823 0.11733 0.0
C1061 C 0.5728 0.04922 0.11552 0.0
C1062 C 0.53498 0.02633 0.11635 0.0
H1063 H 0.36898 0.87504 0.10726 0.0
H1064 H 0.43057 0.91426 0.10887 0.0
H1065 H 0.46226 0.01421 0.08904 0.0
H1066 H 0.63276 0.13157 0.10331 0.0
H1067 H 0.57126 0.09486 0.10575 0.0
C1068 C 0.25052 0.35498 0.29414 0.0
C1069 C 0.24128 0.34182 0.27086 0.0
C1070 C 0.24892 0.33416 0.313 0.0
C1071 C 0.23609 0.28501 0.35276 0.0
H1072 H 0.27539 0.22841 0.33796 0.0
C1073 C 0.29286 0.24014 0.42695 0.0
C1074 C 0.3256 0.24591 0.42131 0.0
C1075 C 0.27173 0.24098 0.40899 0.0
C1076 C 0.26423 0.24398 0.34242 0.0
H1077 H 0.22127 0.29589 0.24939 0.0
H1078 H 0.21793 0.25925 0.28256 0.0
H1079 H 0.25748 0.25161 0.3056 0.0
H1080 H 0.36128 0.25603 0.39218 0.0
H1081 H 0.32528 0.25843 0.36142 0.0
H1082 H 0.24596 0.28008 0.38949 0.0
C1083 C 0.22708 0.28593 0.28608 0.0
C1084 C 0.25347 0.25693 0.32383 0.0
C1085 C 0.22897 0.30692 0.26707 0.0
C1086 C 0.33627 0.25147 0.39729 0.0
C1087 C 0.31533 0.25243 0.37948 0.0
C1088 C 0.24736 0.2725 0.37134 0.0
C1089 C 0.23768 0.29948 0.30919 0.0
C1090 C 0.24089 0.27903 0.32874 0.0
C1091 C 0.28298 0.24764 0.38508 0.0
C1092 C 0.26318 0.25331 0.36627 0.0
H1093 H 0.26008 0.38171 0.2978 0.0
H1094 H 0.25803 0.34579 0.33036 0.0
H1095 H 0.22551 0.30111 0.3572 0.0
H1096 H 0.28376 0.23555 0.44526 0.0
H1097 H 0.24685 0.23697 0.41387 0.0
C1098 C 0.93548 0.23714 0.57384 0.0
C1099 C 0.9342 0.26605 0.56642 0.0
C1100 C 0.95771 0.23981 0.5922 0.0
C1101 C 0.03453 0.29818 0.6246 0.0
H1102 H 0.98602 0.25737 0.68362 0.0
C1103 C 0.08576 0.36137 0.71406 0.0
C1104 C 0.0803 0.34208 0.73497 0.0
C1105 C 0.07126 0.34555 0.69246 0.0
C1106 C 0.0002 0.2682 0.66726 0.0
H1107 H 0.95551 0.32032 0.57106 0.0
H1108 H 0.99546 0.32534 0.60241 0.0
H1109 H 0.95569 0.24039 0.64546 0.0
H1110 H 0.05525 0.29084 0.74954 0.0
H1111 H 0.02983 0.26299 0.71144 0.0
H1112 H 0.07879 0.32677 0.64621 0.0
C1113 C 0.97924 0.30068 0.59429 0.0
C1114 C 0.98281 0.25846 0.64546 0.0
C1115 C 0.95645 0.29785 0.57649 0.0
C1116 C 0.05979 0.30643 0.73376 0.0
C1117 C 0.0453 0.29049 0.71196 0.0
C1118 C 0.05203 0.30752 0.6463 0.0
C1119 C 0.97941 0.27158 0.60269 0.0
C1120 C -0.00046 0.27458 0.62416 0.0
C1121 C 0.05106 0.30995 0.69106 0.0
C1122 C 0.03463 0.294 0.66798 0.0
H1123 H 0.91805 0.21232 0.5664 0.0
H1124 H 0.95734 0.21709 0.59864 0.0
H1125 H 0.04786 0.31076 0.6083 0.0
H1126 H 0.10117 0.38889 0.71429 0.0
H1127 H 0.07539 0.36145 0.67692 0.0
C1128 C 0.68215 0.93746 0.912 0.0
C1129 C 0.65684 0.90714 0.92259 0.0
C1130 C 0.70719 0.96327 0.92616 0.0
C1131 C 0.72919 0.0188 0.96386 0.0
H1132 H 0.7697 0.0042 0.02054 0.0
C1133 C 0.77397 0.11579 0.03918 0.0
C1134 C 0.76207 0.10139 0.06187 0.0
C1135 C 0.77461 0.09591 0.02038 0.0
C1136 C 0.75864 0.00875 0.00477 0.0
H1137 H 0.63955 0.87911 0.95599 0.0
H1138 H 0.68305 0.92389 0.98049 0.0
H1139 H 0.74586 0.96042 0.98949 0.0
H1140 H 0.74365 0.05555 0.08316 0.0
H1141 H 0.74317 0.02036 0.05018 0.0
H1142 H 0.73922 0.06562 0.97965 0.0
C1143 C 0.68365 0.92779 0.96133 0.0
C1144 C 0.74522 0.98379 0.98696 0.0
C1145 C 0.65845 0.90224 0.94728 0.0
C1146 C 0.75287 0.06729 0.06582 0.0
C1147 C 0.75289 0.0472 0.0469 0.0
C1148 C 0.74225 0.04354 0.98172 0.0
C1149 C 0.7076 0.95894 0.95104 0.0
C1150 C 0.72918 0.98807 0.96681 0.0
C1151 C 0.76267 0.061 0.02374 0.0
C1152 C 0.75589 0.03822 0.00284 0.0
H1153 H 0.68169 0.94195 0.893 0.0
H1154 H 0.72545 0.98707 0.91781 0.0
H1155 H 0.71663 0.02263 0.94866 0.0
H1156 H 0.78191 0.14222 0.03574 0.0
H1157 H 0.78315 0.1076 0.00295 0.0
C1158 C 0.66412 0.74845 0.38709 0.0
C1159 C 0.67227 0.75346 0.41156 0.0
C1160 C 0.68792 0.75068 0.37041 0.0
C1161 C 0.76007 0.73662 0.36657 0.0
H1162 H 0.75137 0.75415 0.29978 0.0
C1163 C 0.75485 0.64879 0.29355 0.0
C1164 C 0.7627 0.65964 0.26967 0.0
C1165 C 0.75853 0.67166 0.31149 0.0
C1166 C 0.75513 0.7499 0.31832 0.0
H1167 H 0.71267 0.76669 0.43752 0.0
H1168 H 0.75453 0.77072 0.40814 0.0
H1169 H 0.73136 0.77766 0.33053 0.0
H1170 H 0.78294 0.70366 0.24619 0.0
H1171 H 0.78984 0.74385 0.27774 0.0
H1172 H 0.78349 0.70852 0.35434 0.0
C1173 C 0.72943 0.76468 0.402 0.0
C1174 C 0.74318 0.76304 0.33599 0.0
C1175 C 0.70545 0.76235 0.41882 0.0
C1176 C 0.77619 0.69437 0.26437 0.0
C1177 C 0.78015 0.71741 0.28244 0.0
C1178 C 0.77261 0.724 0.34892 0.0
C1179 C 0.72066 0.75815 0.37765 0.0
C1180 C 0.74325 0.75442 0.36016 0.0
C1181 C 0.77048 0.70612 0.30612 0.0
C1182 C 0.76799 0.72841 0.32455 0.0
H1183 H 0.6389 0.74167 0.38076 0.0
H1184 H 0.67987 0.74472 0.35193 0.0
H1185 H 0.76089 0.72973 0.38502 0.0
H1186 H 0.74456 0.62229 0.29837 0.0
H1187 H 0.75013 0.66174 0.32936 0.0
C1188 C 0.08966 0.7322 0.61455 0.0
C1189 C 0.08938 0.74392 0.59131 0.0
C1190 C 0.06945 0.73428 0.63247 0.0
C1191 C 0.99023 0.73555 0.64032 0.0
H1192 H 0.01688 0.74179 0.70691 0.0
C1193 C 0.89829 0.65341 0.71221 0.0
C1194 C 0.90302 0.66364 0.73631 0.0
C1195 C 0.92039 0.67474 0.69462 0.0
C1196 C 0.00905 0.74083 0.68848 0.0
H1197 H 0.06833 0.76807 0.56891 0.0
H1198 H 0.03292 0.77174 0.60044 0.0
H1199 H 0.05999 0.76022 0.6758 0.0
H1200 H 0.93355 0.70534 0.76059 0.0
H1201 H 0.97227 0.74282 0.72964 0.0
H1202 H 0.9392 0.71558 0.653 0.0
C1203 C 0.04868 0.76069 0.60462 0.0
C1204 C 0.03375 0.75096 0.6706 0.0
C1205 C 0.06893 0.75854 0.58658 0.0
C1206 C 0.92937 0.69654 0.74221 0.0
C1207 C 0.95157 0.71801 0.7245 0.0
C1208 C 0.96557 0.72579 0.65821 0.0
C1209 C 0.0485 0.74827 0.62772 0.0
C1210 C 0.0243 0.7465 0.64633 0.0
C1211 C 0.9478 0.70696 0.70059 0.0
C1212 C 0.97445 0.7264 0.68241 0.0
H1213 H 0.10503 0.72076 0.6189 0.0
H1214 H 0.06936 0.72368 0.64986 0.0
H1215 H 0.98206 0.73195 0.62181 0.0
H1216 H 0.87824 0.62834 0.70691 0.0
H1217 H 0.917 0.66504 0.67652 0.0
C1218 C 0.2456 0.90286 0.04026 0.0
C1219 C 0.23773 0.90451 0.06437 0.0
C1220 C 0.24269 0.92363 0.0232 0.0
C1221 C 0.22882 0.96425 0.9876 0.0
H1222 H 0.27104 0.05833 0.00807 0.0
C1223 C 0.29373 0.07103 0.9189 0.0
C1224 C 0.32706 0.09533 0.92577 0.0
C1225 C 0.27025 0.04937 0.93593 0.0
C1226 C 0.25903 0.03215 0.00203 0.0
H1227 H 0.21852 0.92782 0.08918 0.0
H1228 H 0.21298 0.96389 0.05916 0.0
H1229 H 0.25188 0.01353 0.03786 0.0
H1230 H 0.36111 0.11733 0.95618 0.0
H1231 H 0.3211 0.07916 0.98538 0.0
H1232 H 0.23938 0.98305 0.95182 0.0
C1233 C 0.22204 0.94692 0.0536 0.0
C1234 C 0.24754 0.00633 0.01916 0.0
C1235 C 0.2252 0.92623 0.07079 0.0
C1236 C 0.33576 0.09878 0.95015 0.0
C1237 C 0.3125 0.07705 0.96706 0.0
C1238 C 0.2409 0.9901 0.97048 0.0
C1239 C 0.23153 0.94643 0.02969 0.0
C1240 C 0.23419 0.97224 0.01211 0.0
C1241 C 0.27974 0.05144 0.96012 0.0
C1242 C 0.25802 0.02445 0.97755 0.0
H1243 H 0.25521 0.88639 0.03459 0.0
H1244 H 0.25096 0.92296 0.00513 0.0
H1245 H 0.21755 0.93812 0.98157 0.0
H1246 H 0.28605 0.06801 0.90028 0.0
H1247 H 0.24507 0.03027 0.93002 0.0
C1248 C 0.86802 0.18469 0.15904 0.0
C1249 C 0.86002 0.18407 0.13468 0.0
C1250 C 0.90199 0.20003 0.16647 0.0
C1251 C 0.98972 0.26162 0.14604 0.0
H1252 H 0.01609 0.22469 0.19919 0.0
C1253 C 0.13021 0.31191 0.17223 0.0
C1254 C 0.13785 0.3194 0.19663 0.0
C1255 C 0.09636 0.29401 0.16451 0.0
C1256 C 0.009 0.23533 0.18439 0.0
H1257 H 0.88131 0.19829 0.09896 0.0
H1258 H 0.94036 0.22401 0.11179 0.0
H1259 H 0.95683 0.19567 0.18583 0.0
H1260 H 0.11601 0.31344 0.2321 0.0
H1261 H 0.05689 0.2818 0.21856 0.0
H1262 H 0.04208 0.30097 0.14443 0.0
C1263 C 0.92055 0.21355 0.12528 0.0
C1264 C 0.97506 0.21882 0.17678 0.0
C1265 C 0.88664 0.19858 0.11789 0.0
C1266 C 0.11096 0.30807 0.21318 0.0
C1267 C 0.07712 0.28982 0.20547 0.0
C1268 C 0.02369 0.27786 0.15347 0.0
C1269 C 0.92871 0.21477 0.14969 0.0
C1270 C 0.96494 0.23186 0.15757 0.0
C1271 C 0.0695 0.28291 0.18104 0.0
C1272 C 0.03363 0.26498 0.17278 0.0
H1273 H 0.84805 0.17388 0.17242 0.0
H1274 H 0.90728 0.20092 0.18544 0.0
H1275 H 0.98283 0.27282 0.13151 0.0
H1276 H 0.15037 0.32033 0.15904 0.0
H1277 H 0.09115 0.28878 0.14558 0.0
C1278 C 0.82648 0.12648 0.49171 0.0
C1279 C 0.83237 0.14027 0.51489 0.0
C1280 C 0.81072 0.09134 0.48841 0.0
C1281 C 0.75448 0.01034 0.51903 0.0
H1282 H 0.78117 0.97237 0.46674 0.0
C1283 C 0.69225 0.8655 0.50171 0.0
C1284 C 0.68244 0.8555 0.47787 0.0
C1285 C 0.7126 0.89992 0.50748 0.0
C1286 C 0.77341 0.98268 0.48136 0.0
H1287 H 0.82703 0.12816 0.55279 0.0
H1288 H 0.80004 0.0668 0.547 0.0
H1289 H 0.81396 0.03336 0.47477 0.0
H1290 H 0.68622 0.87365 0.4414 0.0
H1291 H 0.72177 0.9336 0.45152 0.0
H1292 H 0.71384 0.95954 0.52552 0.0
C1293 C 0.80708 0.08312 0.53139 0.0
C1294 C 0.7921 0.01756 0.48593 0.0
C1295 C 0.82271 0.11828 0.5347 0.0
C1296 C 0.6934 0.88052 0.45993 0.0
C1297 C 0.71394 0.91483 0.46568 0.0
C1298 C 0.73593 0.9754 0.51455 0.0
C1299 C 0.80067 0.06925 0.50821 0.0
C1300 C 0.7825 0.03187 0.50456 0.0
C1301 C 0.72371 0.92485 0.48948 0.0
C1302 C 0.7449 0.96136 0.49543 0.0
H1303 H 0.8335 0.14275 0.47608 0.0
H1304 H 0.80565 0.08147 0.47032 0.0
H1305 H 0.74615 0.02061 0.53333 0.0
H1306 H 0.68417 0.84678 0.51592 0.0
H1307 H 0.71993 0.90702 0.52596 0.0
C1308 C 0.79393 0.68739 0.78556 0.0
C1309 C 0.81032 0.67866 0.80322 0.0
C1310 C 0.77694 0.70489 0.79168 0.0
C1311 C 0.76941 0.75699 0.83988 0.0
H1312 H 0.6824 0.73006 0.80974 0.0
C1313 C 0.67533 0.79717 0.87565 0.0
C1314 C 0.65989 0.80812 0.85875 0.0
C1315 C 0.69489 0.78291 0.86822 0.0
C1316 C 0.70685 0.7381 0.8181 0.0
H1317 H 0.82178 0.68144 0.84114 0.0
H1318 H 0.79153 0.71131 0.85188 0.0
H1319 H 0.71443 0.70228 0.79804 0.0
H1320 H 0.65277 0.81264 0.82078 0.0
H1321 H 0.68684 0.78749 0.80784 0.0
H1322 H 0.76133 0.79229 0.86031 0.0
C1323 C 0.79238 0.70528 0.83323 0.0
C1324 C 0.72525 0.72226 0.81138 0.0
C1325 C 0.80956 0.68797 0.82709 0.0
C1326 C 0.66436 0.80446 0.83425 0.0
C1327 C 0.68372 0.78994 0.82682 0.0
C1328 C 0.75088 0.77264 0.84671 0.0
C1329 C 0.77575 0.71384 0.81561 0.0
C1330 C 0.75669 0.73141 0.82227 0.0
C1331 C 0.69919 0.77906 0.84375 0.0
C1332 C 0.71935 0.76323 0.83597 0.0
H1333 H 0.79416 0.68068 0.76698 0.0
H1334 H 0.76485 0.71154 0.77761 0.0
H1335 H 0.79381 0.76508 0.84831 0.0
H1336 H 0.67233 0.79957 0.89467 0.0
H1337 H 0.70621 0.77437 0.88166 0.0
C1338 C 0.86853 0.67813 0.17267 0.0
C1339 C 0.86013 0.66991 0.19689 0.0
C1340 C 0.90262 0.69604 0.16543 0.0
C1341 C 0.98983 0.71943 0.18561 0.0
H1342 H 0.01745 0.78624 0.13469 0.0
C1343 C 0.13091 0.81129 0.16092 0.0
C1344 C 0.13876 0.81358 0.1364 0.0
C1345 C 0.09698 0.79431 0.16857 0.0
C1346 C 0.01002 0.76751 0.14884 0.0
H1347 H 0.88086 0.67435 0.23257 0.0
H1348 H 0.94019 0.7064 0.22009 0.0
H1349 H 0.95807 0.75574 0.14764 0.0
H1350 H 0.11721 0.80018 0.10069 0.0
H1351 H 0.05802 0.77094 0.11409 0.0
H1352 H 0.04206 0.73178 0.18701 0.0
C1353 C 0.92055 0.69833 0.20655 0.0
C1354 C 0.97599 0.74991 0.15621 0.0
C1355 C 0.88649 0.68013 0.21374 0.0
C1356 C 0.11202 0.79888 0.1197 0.0
C1357 C 0.07812 0.78228 0.12734 0.0
C1358 C 0.02392 0.7373 0.17841 0.0
C1359 C 0.92909 0.70643 0.18229 0.0
C1360 C 0.96541 0.72551 0.17462 0.0
C1361 C 0.07028 0.77968 0.15184 0.0
C1362 C 0.0343 0.76138 0.15988 0.0
H1363 H 0.84878 0.6704 0.15923 0.0
H1364 H 0.90819 0.7013 0.14655 0.0
H1365 H 0.98256 0.70041 0.19954 0.0
H1366 H 0.15097 0.8223 0.17423 0.0
H1367 H 0.0916 0.79286 0.18756 0.0
C1368 C 0.18234 0.87025 0.51081 0.0
C1369 C 0.18259 0.85695 0.53346 0.0
C1370 C 0.19436 0.90495 0.50792 0.0
C1371 C 0.24951 0.98833 0.53588 0.0
H1372 H 0.20379 0.01758 0.49107 0.0
C1373 C 0.29572 0.1302 0.51706 0.0
C1374 C 0.30037 0.13855 0.49259 0.0
C1375 C 0.27787 0.09615 0.52429 0.0
C1376 C 0.21675 0.00973 0.50366 0.0
H1377 H 0.19575 0.86956 0.57086 0.0
H1378 H 0.21638 0.93026 0.56584 0.0
H1379 H 0.17943 0.9571 0.4998 0.0
H1380 H 0.28908 0.11799 0.45655 0.0
H1381 H 0.25773 0.05869 0.4692 0.0
H1382 H 0.28699 0.04109 0.5395 0.0
C1383 C 0.20723 0.91387 0.55028 0.0
C1384 C 0.20294 0.97515 0.50858 0.0
C1385 C 0.19534 0.8791 0.55316 0.0
C1386 C 0.28594 0.11235 0.47553 0.0
C1387 C 0.26782 0.07841 0.48276 0.0
C1388 C 0.26319 0.02297 0.53108 0.0
C1389 C 0.20672 0.92712 0.52763 0.0
C1390 C 0.2196 0.96401 0.5243 0.0
C1391 C 0.26402 0.06998 0.50718 0.0
C1392 C 0.24732 0.03387 0.51451 0.0
H1393 H 0.17288 0.85389 0.49523 0.0
H1394 H 0.19432 0.91446 0.49014 0.0
H1395 H 0.26312 0.98056 0.54791 0.0
H1396 H 0.30663 0.14988 0.53062 0.0
H1397 H 0.27512 0.09025 0.54324 0.0
C1398 C 0.15441 0.28986 0.82773 0.0
C1399 C 0.15276 0.29919 0.80401 0.0
C1400 C 0.17194 0.27265 0.83321 0.0
C1401 C 0.23909 0.25736 0.80873 0.0
H1402 H 0.21064 0.19145 0.8603 0.0
C1403 C 0.30664 0.18095 0.8307 0.0
C1404 C 0.31489 0.18089 0.85494 0.0
C1405 C 0.28544 0.1936 0.82377 0.0
C1406 C 0.21889 0.20991 0.84591 0.0
H1407 H 0.16681 0.29654 0.76729 0.0
H1408 H 0.19633 0.26553 0.77671 0.0
H1409 H 0.17483 0.21539 0.84913 0.0
H1410 H 0.30728 0.19385 0.89094 0.0
H1411 H 0.26999 0.21561 0.87879 0.0
H1412 H 0.28299 0.25149 0.80541 0.0
C1413 C 0.18504 0.27237 0.79121 0.0
C1414 C 0.19848 0.22372 0.83955 0.0
C1415 C 0.16789 0.28992 0.78578 0.0
C1416 C 0.30142 0.19358 0.87211 0.0
C1417 C 0.2799 0.20582 0.86521 0.0
C1418 C 0.25926 0.24324 0.81491 0.0
C1419 C 0.18786 0.26408 0.81505 0.0
C1420 C 0.20851 0.2479 0.82103 0.0
C1421 C 0.27177 0.20601 0.84098 0.0
C1422 C 0.24953 0.21968 0.83371 0.0
H1423 H 0.14317 0.29685 0.84219 0.0
H1424 H 0.17395 0.26712 0.8518 0.0
H1425 H 0.248 0.27638 0.79469 0.0
H1426 H 0.31666 0.17135 0.81705 0.0
H1427 H 0.27941 0.19334 0.80498 0.0
loop_
_geom_bond_atom_site_label_1
_geom_bond_atom_site_label_2
_geom_bond_distance
_geom_bond_site_symmetry_2
_ccdc_geom_bond_type
Co0 O2 2.143 . S
Co0 O8 2.074 . S
Co0 O11 2.093 . S
Co0 O24 2.097 . S
Co0 N41 2.151 . S
Co0 N49 2.214 . S
Co1 O2 2.160 . S
Co1 O7 2.058 . S
Co1 O17 2.057 . S
Co1 O32 2.037 . S
Co1 N36 2.145 . S
Co1 N57 2.257 . S
O2 Co0 2.143 . S
O2 Co1 2.160 . S
C3 O4 1.278 . S
C3 O11 1.224 . S
O4 C3 1.278 . S
C5 O6 1.245 . S
C5 O17 1.232 . S
O6 C5 1.245 . S
O7 Co1 2.058 . S
O7 C33 1.269 . S
O8 Co0 2.074 . S
O8 C33 1.257 . S
H9 C34 0.930 . S
H10 C40 0.930 . S
O11 Co0 2.093 . S
O11 C3 1.224 . S
H12 C44 0.929 . S
H13 C46 0.930 . S
H14 C47 0.930 . S
H15 C45 0.929 . S
H16 C48 0.928 . S
O17 Co1 2.057 . S
O17 C5 1.232 . S
H18 C37 0.929 . S
H19 C38 0.929 . S
H20 C50 0.931 . S
H21 C42 0.929 . S
H22 C51 0.930 . S
H23 C43 0.931 . S
O24 Co0 2.097 . S
O24 C52 1.214 . S
H25 C53 0.929 . S
H26 C54 0.929 . S
H27 C55 0.930 . S
H28 C56 0.929 . S
H29 C58 0.930 . S
H30 C35 0.930 . S
H31 C39 0.930 . S
O32 Co1 2.037 . S
O32 C52 1.234 . S
C33 O7 1.269 . S
C33 O8 1.257 . S
C34 H9 0.930 . S
C34 C37 1.388 . S
C34 C39 1.418 . S
C35 H30 0.930 . S
C35 C38 1.404 . S
C35 C39 1.353 . S
N36 Co1 2.145 . S
N36 C37 1.397 . S
N36 C38 1.334 . S
C37 H18 0.929 . S
C37 C34 1.388 . S
C37 N36 1.397 . S
C38 H19 0.929 . S
C38 C35 1.404 . S
C38 N36 1.334 . S
C39 H31 0.930 . S
C39 C34 1.418 . S
C39 C35 1.353 . S
C40 H10 0.930 . S
C40 N41 1.330 . S
C40 C42 1.446 . S
N41 Co0 2.151 . S
N41 C40 1.330 . S
N41 C45 1.418 . S
C42 H21 0.929 . S
C42 C40 1.446 . S
C42 C43 1.332 . S
C43 H23 0.931 . S
C43 C42 1.332 . S
C43 C44 1.267 . S
C44 H12 0.929 . S
C44 C43 1.267 . S
C44 C45 1.251 . S
C45 H15 0.929 . S
C45 N41 1.418 . S
C45 C44 1.251 . S
C46 H13 0.930 . S
C46 C48 1.406 . S
C46 C51 1.261 . S
C47 H14 0.930 . S
C47 N49 1.325 . S
C47 C50 1.357 . S
C48 H16 0.928 . S
C48 C46 1.406 . S
C48 N49 1.261 . S
N49 Co0 2.214 . S
N49 C47 1.325 . S
N49 C48 1.261 . S
C50 H20 0.931 . S
C50 C47 1.357 . S
C50 C51 1.312 . S
C51 H22 0.930 . S
C51 C46 1.261 . S
C51 C50 1.312 . S
C52 O24 1.214 . S
C52 O32 1.234 . S
C53 H25 0.929 . S
C53 C56 1.391 . S
C53 C58 1.391 . S
C54 H26 0.929 . S
C54 C55 1.390 . S
C54 N57 1.391 . S
C55 H27 0.930 . S
C55 C54 1.390 . S
C55 C56 1.392 . S
C56 H28 0.929 . S
C56 C53 1.391 . S
C56 C55 1.392 . S
N57 Co1 2.257 . S
N57 C54 1.391 . S
N57 C58 1.388 . S
C58 H29 0.930 . S
C58 C53 1.391 . S
C58 N57 1.388 . S
Co59 O61 2.143 . S
Co59 O67 2.074 . S
Co59 O70 2.093 . S
Co59 O83 2.097 . S
Co59 N100 2.151 . S
Co59 N108 2.214 . S
Co60 O61 2.160 . S
Co60 O66 2.058 . S
Co60 O76 2.057 . S
Co60 O91 2.037 . S
Co60 N95 2.145 . S
Co60 N116 2.257 . S
O61 Co59 2.143 . S
O61 Co60 2.160 . S
C62 O63 1.278 . S
C62 O70 1.224 . S
O63 C62 1.278 . S
C64 O65 1.245 . S
C64 O76 1.232 . S
O65 C64 1.245 . S
O66 Co60 2.058 . S
O66 C92 1.269 . S
O67 Co59 2.074 . S
O67 C92 1.257 . S
H68 C93 0.930 . S
H69 C99 0.930 . S
O70 Co59 2.093 . S
O70 C62 1.224 . S
H71 C103 0.929 . S
H72 C105 0.930 . S
H73 C106 0.930 . S
H74 C104 0.929 . S
H75 C107 0.928 . S
O76 Co60 2.057 . S
O76 C64 1.232 . S
H77 C96 0.929 . S
H78 C97 0.929 . S
H79 C109 0.931 . S
H80 C101 0.929 . S
H81 C110 0.930 . S
H82 C102 0.931 . S
O83 Co59 2.097 . S
O83 C111 1.214 . S
H84 C112 0.929 . S
H85 C113 0.929 . S
H86 C114 0.930 . S
H87 C115 0.929 . S
H88 C117 0.930 . S
H89 C94 0.930 . S
H90 C98 0.930 . S
O91 Co60 2.037 . S
O91 C111 1.234 . S
C92 O66 1.269 . S
C92 O67 1.257 . S
C93 H68 0.930 . S
C93 C96 1.388 1_455 S
C93 C98 1.418 . S
C94 H89 0.930 . S
C94 C97 1.404 . S
C94 C98 1.353 1_655 S
N95 Co60 2.145 . S
N95 C96 1.397 . S
N95 C97 1.334 . S
C96 H77 0.929 . S
C96 C93 1.388 1_655 S
C96 N95 1.397 . S
C97 H78 0.929 . S
C97 C94 1.404 . S
C97 N95 1.334 . S
C98 H90 0.930 . S
C98 C93 1.418 . S
C98 C94 1.353 1_455 S
C99 H69 0.930 . S
C99 N100 1.330 . S
C99 C101 1.446 . S
N100 Co59 2.151 . S
N100 C99 1.330 . S
N100 C104 1.418 . S
C101 H80 0.929 . S
C101 C99 1.446 . S
C101 C102 1.332 . S
C102 H82 0.931 . S
C102 C101 1.332 . S
C102 C103 1.267 . S
C103 H71 0.929 . S
C103 C102 1.267 . S
C103 C104 1.251 . S
C104 H74 0.929 . S
C104 N100 1.418 . S
C104 C103 1.251 . S
C105 H72 0.930 . S
C105 C107 1.406 . S
C105 C110 1.261 . S
C106 H73 0.930 . S
C106 N108 1.325 . S
C106 C109 1.357 . S
C107 H75 0.928 . S
C107 C105 1.406 . S
C107 N108 1.261 . S
N108 Co59 2.214 . S
N108 C106 1.325 . S
N108 C107 1.261 . S
C109 H79 0.931 . S
C109 C106 1.357 . S
C109 C110 1.312 . S
C110 H81 0.930 . S
C110 C105 1.261 . S
C110 C109 1.312 . S
C111 O83 1.214 . S
C111 O91 1.234 . S
C112 H84 0.929 . S
C112 C115 1.391 . S
C112 C117 1.391 . S
C113 H85 0.929 . S
C113 C114 1.390 . S
C113 N116 1.391 . S
C114 H86 0.930 . S
C114 C113 1.390 . S
C114 C115 1.392 . S
C115 H87 0.929 . S
C115 C112 1.391 . S
C115 C114 1.392 . S
N116 Co60 2.257 . S
N116 C113 1.391 . S
N116 C117 1.388 . S
C117 H88 0.930 . S
C117 C112 1.391 . S
C117 N116 1.388 . S
Co118 O120 2.143 . S
Co118 O126 2.074 . S
Co118 O129 2.093 . S
Co118 O142 2.097 . S
Co118 N159 2.151 . S
Co118 N167 2.214 . S
Co119 O120 2.160 . S
Co119 O125 2.058 . S
Co119 O135 2.057 . S
Co119 O150 2.037 . S
Co119 N154 2.145 . S
Co119 N175 2.257 . S
O120 Co118 2.143 . S
O120 Co119 2.160 . S
C121 O122 1.278 . S
C121 O129 1.224 . S
O122 C121 1.278 . S
C123 O124 1.245 . S
C123 O135 1.232 . S
O124 C123 1.245 . S
O125 Co119 2.058 . S
O125 C151 1.269 . S
O126 Co118 2.074 . S
O126 C151 1.257 . S
H127 C152 0.930 . S
H128 C158 0.930 . S
O129 Co118 2.093 . S
O129 C121 1.224 . S
H130 C162 0.929 . S
H131 C164 0.930 . S
H132 C165 0.930 . S
H133 C163 0.929 . S
H134 C166 0.928 . S
O135 Co119 2.057 . S
O135 C123 1.232 . S
H136 C155 0.929 . S
H137 C156 0.929 . S
H138 C168 0.931 . S
H139 C160 0.929 . S
H140 C169 0.930 . S
H141 C161 0.931 . S
O142 Co118 2.097 . S
O142 C170 1.214 . S
H143 C171 0.929 . S
H144 C172 0.929 . S
H145 C173 0.930 . S
H146 C174 0.929 . S
H147 C176 0.930 . S
H148 C153 0.930 . S
H149 C157 0.930 . S
O150 Co119 2.037 . S
O150 C170 1.234 . S
C151 O125 1.269 . S
C151 O126 1.257 . S
C152 H127 0.930 . S
C152 C155 1.388 1_545 S
C152 C157 1.418 . S
C153 H148 0.930 . S
C153 C156 1.404 . S
C153 C157 1.353 1_565 S
N154 Co119 2.145 . S
N154 C155 1.397 . S
N154 C156 1.334 . S
C155 H136 0.929 . S
C155 C152 1.388 1_565 S
C155 N154 1.397 . S
C156 H137 0.929 . S
C156 C153 1.404 . S
C156 N154 1.334 . S
C157 H149 0.930 . S
C157 C152 1.418 . S
C157 C153 1.353 1_545 S
C158 H128 0.930 . S
C158 N159 1.330 . S
C158 C160 1.446 . S
N159 Co118 2.151 . S
N159 C158 1.330 . S
N159 C163 1.418 . S
C160 H139 0.929 . S
C160 C158 1.446 . S
C160 C161 1.332 . S
C161 H141 0.931 . S
C161 C160 1.332 . S
C161 C162 1.267 . S
C162 H130 0.929 . S
C162 C161 1.267 . S
C162 C163 1.251 . S
C163 H133 0.929 . S
C163 N159 1.418 . S
C163 C162 1.251 . S
C164 H131 0.930 . S
C164 C166 1.406 . S
C164 C169 1.261 . S
C165 H132 0.930 . S
C165 N167 1.325 . S
C165 C168 1.357 . S
C166 H134 0.928 . S
C166 C164 1.406 . S
C166 N167 1.261 . S
N167 Co118 2.214 . S
N167 C165 1.325 . S
N167 C166 1.261 . S
C168 H138 0.931 . S
C168 C165 1.357 . S
C168 C169 1.312 . S
C169 H140 0.930 . S
C169 C164 1.261 . S
C169 C168 1.312 . S
C170 O142 1.214 . S
C170 O150 1.234 . S
C171 H143 0.929 . S
C171 C174 1.391 . S
C171 C176 1.391 . S
C172 H144 0.929 . S
C172 C173 1.390 . S
C172 N175 1.391 . S
C173 H145 0.930 . S
C173 C172 1.390 . S
C173 C174 1.392 . S
C174 H146 0.929 . S
C174 C171 1.391 . S
C174 C173 1.392 . S
N175 Co119 2.257 . S
N175 C172 1.391 . S
N175 C176 1.388 . S
C176 H147 0.930 . S
C176 C171 1.391 . S
C176 N175 1.388 . S
Co177 O179 2.143 . S
Co177 O185 2.074 . S
Co177 O188 2.093 . S
Co177 O201 2.097 . S
Co177 N218 2.151 . S
Co177 N226 2.214 . S
Co178 O179 2.160 . S
Co178 O184 2.058 . S
Co178 O194 2.057 . S
Co178 O209 2.037 . S
Co178 N213 2.145 . S
Co178 N234 2.257 . S
O179 Co177 2.143 . S
O179 Co178 2.160 . S
C180 O181 1.278 . S
C180 O188 1.224 . S
O181 C180 1.278 . S
C182 O183 1.245 . S
C182 O194 1.232 . S
O183 C182 1.245 . S
O184 Co178 2.058 . S
O184 C210 1.269 . S
O185 Co177 2.074 . S
O185 C210 1.257 . S
H186 C211 0.930 . S
H187 C217 0.930 . S
O188 Co177 2.093 . S
O188 C180 1.224 . S
H189 C221 0.929 . S
H190 C223 0.930 . S
H191 C224 0.930 . S
H192 C222 0.929 . S
H193 C225 0.928 . S
O194 Co178 2.057 . S
O194 C182 1.232 . S
H195 C214 0.929 . S
H196 C215 0.929 . S
H197 C227 0.931 . S
H198 C219 0.929 . S
H199 C228 0.930 . S
H200 C220 0.931 . S
O201 Co177 2.097 . S
O201 C229 1.214 . S
H202 C230 0.929 . S
H203 C231 0.929 . S
H204 C232 0.930 . S
H205 C233 0.929 . S
H206 C235 0.930 . S
H207 C212 0.930 . S
H208 C216 0.930 . S
O209 Co178 2.037 . S
O209 C229 1.234 . S
C210 O184 1.269 . S
C210 O185 1.257 . S
C211 H186 0.930 . S
C211 C214 1.388 . S
C211 C216 1.418 . S
C212 H207 0.930 . S
C212 C215 1.404 . S
C212 C216 1.353 . S
N213 Co178 2.145 . S
N213 C214 1.397 . S
N213 C215 1.334 . S
C214 H195 0.929 . S
C214 C211 1.388 . S
C214 N213 1.397 . S
C215 H196 0.929 . S
C215 C212 1.404 . S
C215 N213 1.334 . S
C216 H208 0.930 . S
C216 C211 1.418 . S
C216 C212 1.353 . S
C217 H187 0.930 . S
C217 N218 1.330 . S
C217 C219 1.446 . S
N218 Co177 2.151 . S
N218 C217 1.330 . S
N218 C222 1.418 . S
C219 H198 0.929 . S
C219 C217 1.446 . S
C219 C220 1.332 . S
C220 H200 0.931 . S
C220 C219 1.332 . S
C220 C221 1.267 . S
C221 H189 0.929 . S
C221 C220 1.267 . S
C221 C222 1.251 . S
C222 H192 0.929 . S
C222 N218 1.418 . S
C222 C221 1.251 . S
C223 H190 0.930 . S
C223 C225 1.406 . S
C223 C228 1.261 . S
C224 H191 0.930 . S
C224 N226 1.325 . S
C224 C227 1.357 . S
C225 H193 0.928 . S
C225 C223 1.406 . S
C225 N226 1.261 . S
N226 Co177 2.214 . S
N226 C224 1.325 . S
N226 C225 1.261 . S
C227 H197 0.931 . S
C227 C224 1.357 . S
C227 C228 1.312 . S
C228 H199 0.930 . S
C228 C223 1.261 . S
C228 C227 1.312 . S
C229 O201 1.214 . S
C229 O209 1.234 . S
C230 H202 0.929 . S
C230 C233 1.391 . S
C230 C235 1.391 . S
C231 H203 0.929 . S
C231 C232 1.390 . S
C231 N234 1.391 . S
C232 H204 0.930 . S
C232 C231 1.390 . S
C232 C233 1.392 . S
C233 H205 0.929 . S
C233 C230 1.391 . S
C233 C232 1.392 . S
N234 Co178 2.257 . S
N234 C231 1.391 . S
N234 C235 1.388 . S
C235 H206 0.930 . S
C235 C230 1.391 . S
C235 N234 1.388 . S
Co236 O238 2.143 . S
Co236 O244 2.074 . S
Co236 O247 2.093 . S
Co236 O260 2.097 . S
Co236 N277 2.151 . S
Co236 N285 2.214 . S
Co237 O238 2.160 . S
Co237 O243 2.058 . S
Co237 O253 2.057 . S
Co237 O268 2.037 . S
Co237 N272 2.145 . S
Co237 N293 2.257 . S
O238 Co236 2.143 . S
O238 Co237 2.160 . S
C239 O240 1.278 . S
C239 O247 1.224 . S
O240 C239 1.278 . S
C241 O242 1.245 . S
C241 O253 1.232 . S
O242 C241 1.245 . S
O243 Co237 2.058 . S
O243 C269 1.269 . S
O244 Co236 2.074 . S
O244 C269 1.257 . S
H245 C270 0.930 . S
H246 C276 0.930 . S
O247 Co236 2.093 . S
O247 C239 1.224 . S
H248 C280 0.929 . S
H249 C282 0.930 . S
H250 C283 0.930 . S
H251 C281 0.929 . S
H252 C284 0.928 . S
O253 Co237 2.057 . S
O253 C241 1.232 . S
H254 C273 0.929 . S
H255 C274 0.929 . S
H256 C286 0.931 . S
H257 C278 0.929 . S
H258 C287 0.930 . S
H259 C279 0.931 . S
O260 Co236 2.097 . S
O260 C288 1.214 . S
H261 C289 0.929 . S
H262 C290 0.929 . S
H263 C291 0.930 . S
H264 C292 0.929 . S
H265 C294 0.930 . S
H266 C271 0.930 . S
H267 C275 0.930 . S
O268 Co237 2.037 . S
O268 C288 1.234 . S
C269 O243 1.269 . S
C269 O244 1.257 . S
C270 H245 0.930 . S
C270 C273 1.388 1_655 S
C270 C275 1.418 . S
C271 H266 0.930 . S
C271 C274 1.404 . S
C271 C275 1.353 1_455 S
N272 Co237 2.145 . S
N272 C273 1.397 . S
N272 C274 1.334 . S
C273 H254 0.929 . S
C273 C270 1.388 1_455 S
C273 N272 1.397 . S
C274 H255 0.929 . S
C274 C271 1.404 . S
C274 N272 1.334 . S
C275 H267 0.930 . S
C275 C270 1.418 . S
C275 C271 1.353 1_655 S
C276 H246 0.930 . S
C276 N277 1.330 . S
C276 C278 1.446 . S
N277 Co236 2.151 . S
N277 C276 1.330 . S
N277 C281 1.418 . S
C278 H257 0.929 . S
C278 C276 1.446 . S
C278 C279 1.332 . S
C279 H259 0.931 . S
C279 C278 1.332 . S
C279 C280 1.267 . S
C280 H248 0.929 . S
C280 C279 1.267 . S
C280 C281 1.251 . S
C281 H251 0.929 . S
C281 N277 1.418 . S
C281 C280 1.251 . S
C282 H249 0.930 . S
C282 C284 1.406 . S
C282 C287 1.261 . S
C283 H250 0.930 . S
C283 N285 1.325 . S
C283 C286 1.357 . S
C284 H252 0.928 . S
C284 C282 1.406 . S
C284 N285 1.261 . S
N285 Co236 2.214 . S
N285 C283 1.325 . S
N285 C284 1.261 . S
C286 H256 0.931 . S
C286 C283 1.357 . S
C286 C287 1.312 . S
C287 H258 0.930 . S
C287 C282 1.261 . S
C287 C286 1.312 . S
C288 O260 1.214 . S
C288 O268 1.234 . S
C289 H261 0.929 . S
C289 C292 1.391 . S
C289 C294 1.391 . S
C290 H262 0.929 . S
C290 C291 1.390 . S
C290 N293 1.391 . S
C291 H263 0.930 . S
C291 C290 1.390 . S
C291 C292 1.392 . S
C292 H264 0.929 . S
C292 C289 1.391 . S
C292 C291 1.392 . S
N293 Co237 2.257 . S
N293 C290 1.391 . S
N293 C294 1.388 . S
C294 H265 0.930 . S
C294 C289 1.391 . S
C294 N293 1.388 . S
Co295 O297 2.143 . S
Co295 O303 2.074 . S
Co295 O306 2.093 . S
Co295 O319 2.097 . S
Co295 N336 2.151 . S
Co295 N344 2.214 . S
Co296 O297 2.160 . S
Co296 O302 2.058 . S
Co296 O312 2.057 . S
Co296 O327 2.037 . S
Co296 N331 2.145 . S
Co296 N352 2.257 . S
O297 Co295 2.143 . S
O297 Co296 2.160 . S
C298 O299 1.278 . S
C298 O306 1.224 . S
O299 C298 1.278 . S
C300 O301 1.245 . S
C300 O312 1.232 . S
O301 C300 1.245 . S
O302 Co296 2.058 . S
O302 C328 1.269 . S
O303 Co295 2.074 . S
O303 C328 1.257 . S
H304 C329 0.930 . S
H305 C335 0.930 . S
O306 Co295 2.093 . S
O306 C298 1.224 . S
H307 C339 0.929 . S
H308 C341 0.930 . S
H309 C342 0.930 . S
H310 C340 0.929 . S
H311 C343 0.928 . S
O312 Co296 2.057 . S
O312 C300 1.232 . S
H313 C332 0.929 . S
H314 C333 0.929 . S
H315 C345 0.931 . S
H316 C337 0.929 . S
H317 C346 0.930 . S
H318 C338 0.931 . S
O319 Co295 2.097 . S
O319 C347 1.214 . S
H320 C348 0.929 . S
H321 C349 0.929 . S
H322 C350 0.930 . S
H323 C351 0.929 . S
H324 C353 0.930 . S
H325 C330 0.930 . S
H326 C334 0.930 . S
O327 Co296 2.037 . S
O327 C347 1.234 . S
C328 O302 1.269 . S
C328 O303 1.257 . S
C329 H304 0.930 . S
C329 C332 1.388 1_565 S
C329 C334 1.418 . S
C330 H325 0.930 . S
C330 C333 1.404 . S
C330 C334 1.353 1_545 S
N331 Co296 2.145 . S
N331 C332 1.397 . S
N331 C333 1.334 . S
C332 H313 0.929 . S
C332 C329 1.388 1_545 S
C332 N331 1.397 . S
C333 H314 0.929 . S
C333 C330 1.404 . S
C333 N331 1.334 . S
C334 H326 0.930 . S
C334 C329 1.418 . S
C334 C330 1.353 1_565 S
C335 H305 0.930 . S
C335 N336 1.330 . S
C335 C337 1.446 . S
N336 Co295 2.151 . S
N336 C335 1.330 . S
N336 C340 1.418 . S
C337 H316 0.929 . S
C337 C335 1.446 . S
C337 C338 1.332 . S
C338 H318 0.931 . S
C338 C337 1.332 . S
C338 C339 1.267 . S
C339 H307 0.929 . S
C339 C338 1.267 . S
C339 C340 1.251 . S
C340 H310 0.929 . S
C340 N336 1.418 . S
C340 C339 1.251 . S
C341 H308 0.930 . S
C341 C343 1.406 . S
C341 C346 1.261 . S
C342 H309 0.930 . S
C342 N344 1.325 . S
C342 C345 1.357 . S
C343 H311 0.928 . S
C343 C341 1.406 . S
C343 N344 1.261 . S
N344 Co295 2.214 . S
N344 C342 1.325 . S
N344 C343 1.261 . S
C345 H315 0.931 . S
C345 C342 1.357 . S
C345 C346 1.312 . S
C346 H317 0.930 . S
C346 C341 1.261 . S
C346 C345 1.312 . S
C347 O319 1.214 . S
C347 O327 1.234 . S
C348 H320 0.929 . S
C348 C351 1.391 . S
C348 C353 1.391 . S
C349 H321 0.929 . S
C349 C350 1.390 . S
C349 N352 1.391 . S
C350 H322 0.930 . S
C350 C349 1.390 . S
C350 C351 1.392 . S
C351 H323 0.929 . S
C351 C348 1.391 . S
C351 C350 1.392 . S
N352 Co296 2.257 . S
N352 C349 1.391 . S
N352 C353 1.388 . S
C353 H324 0.930 . S
C353 C348 1.391 . S
C353 N352 1.388 . S
Co354 O356 2.143 . S
Co354 O362 2.074 . S
Co354 O365 2.093 . S
Co354 O378 2.097 . S
Co354 N395 2.151 . S
Co354 N403 2.214 . S
Co355 O356 2.160 . S
Co355 O361 2.058 . S
Co355 O371 2.057 . S
Co355 O386 2.037 . S
Co355 N390 2.145 . S
Co355 N411 2.257 . S
O356 Co354 2.143 . S
O356 Co355 2.160 . S
C357 O358 1.278 . S
C357 O365 1.224 . S
O358 C357 1.278 . S
C359 O360 1.245 . S
C359 O371 1.232 . S
O360 C359 1.245 . S
O361 Co355 2.058 . S
O361 C387 1.269 . S
O362 Co354 2.074 . S
O362 C387 1.257 . S
H363 C388 0.930 . S
H364 C394 0.930 . S
O365 Co354 2.093 . S
O365 C357 1.224 . S
H366 C398 0.929 . S
H367 C400 0.930 . S
H368 C401 0.930 . S
H369 C399 0.929 . S
H370 C402 0.928 . S
O371 Co355 2.057 . S
O371 C359 1.232 . S
H372 C391 0.929 . S
H373 C392 0.929 . S
H374 C404 0.931 . S
H375 C396 0.929 . S
H376 C405 0.930 . S
H377 C397 0.931 . S
O378 Co354 2.097 . S
O378 C406 1.214 . S
H379 C407 0.929 . S
H380 C408 0.929 . S
H381 C409 0.930 . S
H382 C410 0.929 . S
H383 C412 0.930 . S
H384 C389 0.930 . S
H385 C393 0.930 . S
O386 Co355 2.037 . S
O386 C406 1.234 . S
C387 O361 1.269 . S
C387 O362 1.257 . S
C388 H363 0.930 . S
C388 C391 1.388 . S
C388 C393 1.418 . S
C389 H384 0.930 . S
C389 C392 1.404 . S
C389 C393 1.353 . S
N390 Co355 2.145 . S
N390 C391 1.397 . S
N390 C392 1.334 . S
C391 H372 0.929 . S
C391 C388 1.388 . S
C391 N390 1.397 . S
C392 H373 0.929 . S
C392 C389 1.404 . S
C392 N390 1.334 . S
C393 H385 0.930 . S
C393 C388 1.418 . S
C393 C389 1.353 . S
C394 H364 0.930 . S
C394 N395 1.330 . S
C394 C396 1.446 . S
N395 Co354 2.151 . S
N395 C394 1.330 . S
N395 C399 1.418 . S
C396 H375 0.929 . S
C396 C394 1.446 . S
C396 C397 1.332 . S
C397 H377 0.931 . S
C397 C396 1.332 . S
C397 C398 1.267 . S
C398 H366 0.929 . S
C398 C397 1.267 . S
C398 C399 1.251 . S
C399 H369 0.929 . S
C399 N395 1.418 . S
C399 C398 1.251 . S
C400 H367 0.930 . S
C400 C402 1.406 . S
C400 C405 1.261 . S
C401 H368 0.930 . S
C401 N403 1.325 . S
C401 C404 1.357 . S
C402 H370 0.928 . S
C402 C400 1.406 . S
C402 N403 1.261 . S
N403 Co354 2.214 . S
N403 C401 1.325 . S
N403 C402 1.261 . S
C404 H374 0.931 . S
C404 C401 1.357 . S
C404 C405 1.312 . S
C405 H376 0.930 . S
C405 C400 1.261 . S
C405 C404 1.312 . S
C406 O378 1.214 . S
C406 O386 1.234 . S
C407 H379 0.929 . S
C407 C410 1.391 . S
C407 C412 1.391 . S
C408 H380 0.929 . S
C408 C409 1.390 . S
C408 N411 1.391 . S
C409 H381 0.930 . S
C409 C408 1.390 . S
C409 C410 1.392 . S
C410 H382 0.929 . S
C410 C407 1.391 . S
C410 C409 1.392 . S
N411 Co355 2.257 . S
N411 C408 1.391 . S
N411 C412 1.388 . S
C412 H383 0.930 . S
C412 C407 1.391 . S
C412 N411 1.388 . S
Co413 O415 2.143 . S
Co413 O421 2.074 . S
Co413 O424 2.093 . S
Co413 O437 2.097 . S
Co413 N454 2.151 . S
Co413 N462 2.214 . S
Co414 O415 2.160 . S
Co414 O420 2.058 . S
Co414 O430 2.057 . S
Co414 O445 2.037 . S
Co414 N449 2.145 . S
Co414 N470 2.257 . S
O415 Co413 2.143 . S
O415 Co414 2.160 . S
C416 O417 1.278 . S
C416 O424 1.224 . S
O417 C416 1.278 . S
C418 O419 1.245 . S
C418 O430 1.232 . S
O419 C418 1.245 . S
O420 Co414 2.058 . S
O420 C446 1.269 . S
O421 Co413 2.074 . S
O421 C446 1.257 . S
H422 C447 0.930 . S
H423 C453 0.930 . S
O424 Co413 2.093 . S
O424 C416 1.224 . S
H425 C457 0.929 . S
H426 C459 0.930 . S
H427 C460 0.930 . S
H428 C458 0.929 . S
H429 C461 0.928 . S
O430 Co414 2.057 . S
O430 C418 1.232 . S
H431 C450 0.929 . S
H432 C451 0.929 . S
H433 C463 0.931 . S
H434 C455 0.929 . S
H435 C464 0.930 . S
H436 C456 0.931 . S
O437 Co413 2.097 . S
O437 C465 1.214 . S
H438 C466 0.929 . S
H439 C467 0.929 . S
H440 C468 0.930 . S
H441 C469 0.929 . S
H442 C471 0.930 . S
H443 C448 0.930 . S
H444 C452 0.930 . S
O445 Co414 2.037 . S
O445 C465 1.234 . S
C446 O420 1.269 . S
C446 O421 1.257 . S
C447 H422 0.930 . S
C447 C450 1.388 1_455 S
C447 C452 1.418 . S
C448 H443 0.930 . S
C448 C451 1.404 . S
C448 C452 1.353 1_655 S
N449 Co414 2.145 . S
N449 C450 1.397 . S
N449 C451 1.334 . S
C450 H431 0.929 . S
C450 C447 1.388 1_655 S
C450 N449 1.397 . S
C451 H432 0.929 . S
C451 C448 1.404 . S
C451 N449 1.334 . S
C452 H444 0.930 . S
C452 C447 1.418 . S
C452 C448 1.353 1_455 S
C453 H423 0.930 . S
C453 N454 1.330 . S
C453 C455 1.446 . S
N454 Co413 2.151 . S
N454 C453 1.330 . S
N454 C458 1.418 . S
C455 H434 0.929 . S
C455 C453 1.446 . S
C455 C456 1.332 . S
C456 H436 0.931 . S
C456 C455 1.332 . S
C456 C457 1.267 . S
C457 H425 0.929 . S
C457 C456 1.267 . S
C457 C458 1.251 . S
C458 H428 0.929 . S
C458 N454 1.418 . S
C458 C457 1.251 . S
C459 H426 0.930 . S
C459 C461 1.406 . S
C459 C464 1.261 . S
C460 H427 0.930 . S
C460 N462 1.325 . S
C460 C463 1.357 . S
C461 H429 0.928 . S
C461 C459 1.406 . S
C461 N462 1.261 . S
N462 Co413 2.214 . S
N462 C460 1.325 . S
N462 C461 1.261 . S
C463 H433 0.931 . S
C463 C460 1.357 . S
C463 C464 1.312 . S
C464 H435 0.930 . S
C464 C459 1.261 . S
C464 C463 1.312 . S
C465 O437 1.214 . S
C465 O445 1.234 . S
C466 H438 0.929 . S
C466 C469 1.391 . S
C466 C471 1.391 . S
C467 H439 0.929 . S
C467 C468 1.390 . S
C467 N470 1.391 . S
C468 H440 0.930 . S
C468 C467 1.390 . S
C468 C469 1.392 . S
C469 H441 0.929 . S
C469 C466 1.391 . S
C469 C468 1.392 . S
N470 Co414 2.257 . S
N470 C467 1.391 . S
N470 C471 1.388 . S
C471 H442 0.930 . S
C471 C466 1.391 . S
C471 N470 1.388 . S
Co472 O474 2.143 . S
Co472 O480 2.074 . S
Co472 O483 2.093 . S
Co472 O496 2.097 . S
Co472 N513 2.151 . S
Co472 N521 2.214 . S
Co473 O474 2.160 . S
Co473 O479 2.058 . S
Co473 O489 2.057 . S
Co473 O504 2.037 . S
Co473 N508 2.145 . S
Co473 N529 2.257 . S
O474 Co472 2.143 . S
O474 Co473 2.160 . S
C475 O476 1.278 . S
C475 O483 1.224 . S
O476 C475 1.278 . S
C477 O478 1.245 . S
C477 O489 1.232 . S
O478 C477 1.245 . S
O479 Co473 2.058 . S
O479 C505 1.269 . S
O480 Co472 2.074 . S
O480 C505 1.257 . S
H481 C506 0.930 . S
H482 C512 0.930 . S
O483 Co472 2.093 . S
O483 C475 1.224 . S
H484 C516 0.929 . S
H485 C518 0.930 . S
H486 C519 0.930 . S
H487 C517 0.929 . S
H488 C520 0.928 . S
O489 Co473 2.057 . S
O489 C477 1.232 . S
H490 C509 0.929 . S
H491 C510 0.929 . S
H492 C522 0.931 . S
H493 C514 0.929 . S
H494 C523 0.930 . S
H495 C515 0.931 . S
O496 Co472 2.097 . S
O496 C524 1.214 . S
H497 C525 0.929 . S
H498 C526 0.929 . S
H499 C527 0.930 . S
H500 C528 0.929 . S
H501 C530 0.930 . S
H502 C507 0.930 . S
H503 C511 0.930 . S
O504 Co473 2.037 . S
O504 C524 1.234 . S
C505 O479 1.269 . S
C505 O480 1.257 . S
C506 H481 0.930 . S
C506 C509 1.388 1_545 S
C506 C511 1.418 . S
C507 H502 0.930 . S
C507 C510 1.404 . S
C507 C511 1.353 1_565 S
N508 Co473 2.145 . S
N508 C509 1.397 . S
N508 C510 1.334 . S
C509 H490 0.929 . S
C509 C506 1.388 1_565 S
C509 N508 1.397 . S
C510 H491 0.929 . S
C510 C507 1.404 . S
C510 N508 1.334 . S
C511 H503 0.930 . S
C511 C506 1.418 . S
C511 C507 1.353 1_545 S
C512 H482 0.930 . S
C512 N513 1.330 . S
C512 C514 1.446 . S
N513 Co472 2.151 . S
N513 C512 1.330 . S
N513 C517 1.418 . S
C514 H493 0.929 . S
C514 C512 1.446 . S
C514 C515 1.332 . S
C515 H495 0.931 . S
C515 C514 1.332 . S
C515 C516 1.267 . S
C516 H484 0.929 . S
C516 C515 1.267 . S
C516 C517 1.251 . S
C517 H487 0.929 . S
C517 N513 1.418 . S
C517 C516 1.251 . S
C518 H485 0.930 . S
C518 C520 1.406 . S
C518 C523 1.261 . S
C519 H486 0.930 . S
C519 N521 1.325 . S
C519 C522 1.357 . S
C520 H488 0.928 . S
C520 C518 1.406 . S
C520 N521 1.261 . S
N521 Co472 2.214 . S
N521 C519 1.325 . S
N521 C520 1.261 . S
C522 H492 0.931 . S
C522 C519 1.357 . S
C522 C523 1.312 . S
C523 H494 0.930 . S
C523 C518 1.261 . S
C523 C522 1.312 . S
C524 O496 1.214 . S
C524 O504 1.234 . S
C525 H497 0.929 . S
C525 C528 1.391 . S
C525 C530 1.391 . S
C526 H498 0.929 . S
C526 C527 1.390 . S
C526 N529 1.391 . S
C527 H499 0.930 . S
C527 C526 1.390 . S
C527 C528 1.392 . S
C528 H500 0.929 . S
C528 C525 1.391 . S
C528 C527 1.392 . S
N529 Co473 2.257 . S
N529 C526 1.391 . S
N529 C530 1.388 . S
C530 H501 0.930 . S
C530 C525 1.391 . S
C530 N529 1.388 . S
Co531 O533 2.143 . S
Co531 O539 2.074 . S
Co531 O542 2.093 . S
Co531 O555 2.097 . S
Co531 N572 2.151 . S
Co531 N580 2.214 . S
Co532 O533 2.160 . S
Co532 O538 2.058 . S
Co532 O548 2.057 . S
Co532 O563 2.037 . S
Co532 N567 2.145 . S
Co532 N588 2.257 . S
O533 Co531 2.143 . S
O533 Co532 2.160 . S
C534 O535 1.278 . S
C534 O542 1.224 . S
O535 C534 1.278 . S
C536 O537 1.245 . S
C536 O548 1.232 . S
O537 C536 1.245 . S
O538 Co532 2.058 . S
O538 C564 1.269 . S
O539 Co531 2.074 . S
O539 C564 1.257 . S
H540 C565 0.930 . S
H541 C571 0.930 . S
O542 Co531 2.093 . S
O542 C534 1.224 . S
H543 C575 0.929 . S
H544 C577 0.930 . S
H545 C578 0.930 . S
H546 C576 0.929 . S
H547 C579 0.928 . S
O548 Co532 2.057 . S
O548 C536 1.232 . S
H549 C568 0.929 . S
H550 C569 0.929 . S
H551 C581 0.931 . S
H552 C573 0.929 . S
H553 C582 0.930 . S
H554 C574 0.931 . S
O555 Co531 2.097 . S
O555 C583 1.214 . S
H556 C584 0.929 . S
H557 C585 0.929 . S
H558 C586 0.930 . S
H559 C587 0.929 . S
H560 C589 0.930 . S
H561 C566 0.930 . S
H562 C570 0.930 . S
O563 Co532 2.037 . S
O563 C583 1.234 . S
C564 O538 1.269 . S
C564 O539 1.257 . S
C565 H540 0.930 . S
C565 C568 1.388 . S
C565 C570 1.418 . S
C566 H561 0.930 . S
C566 C569 1.404 . S
C566 C570 1.353 . S
N567 Co532 2.145 . S
N567 C568 1.397 . S
N567 C569 1.334 . S
C568 H549 0.929 . S
C568 C565 1.388 . S
C568 N567 1.397 . S
C569 H550 0.929 . S
C569 C566 1.404 . S
C569 N567 1.334 . S
C570 H562 0.930 . S
C570 C565 1.418 . S
C570 C566 1.353 . S
C571 H541 0.930 . S
C571 N572 1.330 . S
C571 C573 1.446 . S
N572 Co531 2.151 . S
N572 C571 1.330 . S
N572 C576 1.418 . S
C573 H552 0.929 . S
C573 C571 1.446 . S
C573 C574 1.332 . S
C574 H554 0.931 . S
C574 C573 1.332 . S
C574 C575 1.267 . S
C575 H543 0.929 . S
C575 C574 1.267 . S
C575 C576 1.251 . S
C576 H546 0.929 . S
C576 N572 1.418 . S
C576 C575 1.251 . S
C577 H544 0.930 . S
C577 C579 1.406 . S
C577 C582 1.261 . S
C578 H545 0.930 . S
C578 N580 1.325 . S
C578 C581 1.357 . S
C579 H547 0.928 . S
C579 C577 1.406 . S
C579 N580 1.261 . S
N580 Co531 2.214 . S
N580 C578 1.325 . S
N580 C579 1.261 . S
C581 H551 0.931 . S
C581 C578 1.357 . S
C581 C582 1.312 . S
C582 H553 0.930 . S
C582 C577 1.261 . S
C582 C581 1.312 . S
C583 O555 1.214 . S
C583 O563 1.234 . S
C584 H556 0.929 . S
C584 C587 1.391 . S
C584 C589 1.391 . S
C585 H557 0.929 . S
C585 C586 1.390 . S
C585 N588 1.391 . S
C586 H558 0.930 . S
C586 C585 1.390 . S
C586 C587 1.392 . S
C587 H559 0.929 . S
C587 C584 1.391 . S
C587 C586 1.392 . S
N588 Co532 2.257 . S
N588 C585 1.391 . S
N588 C589 1.388 . S
C589 H560 0.930 . S
C589 C584 1.391 . S
C589 N588 1.388 . S
Co590 O592 2.143 . S
Co590 O598 2.074 . S
Co590 O601 2.093 . S
Co590 O614 2.097 . S
Co590 N631 2.151 . S
Co590 N639 2.214 . S
Co591 O592 2.160 . S
Co591 O597 2.058 . S
Co591 O607 2.057 . S
Co591 O622 2.037 . S
Co591 N626 2.145 . S
Co591 N647 2.257 . S
O592 Co590 2.143 . S
O592 Co591 2.160 . S
C593 O594 1.278 . S
C593 O601 1.224 . S
O594 C593 1.278 . S
C595 O596 1.245 . S
C595 O607 1.232 . S
O596 C595 1.245 . S
O597 Co591 2.058 . S
O597 C623 1.269 . S
O598 Co590 2.074 . S
O598 C623 1.257 . S
H599 C624 0.930 . S
H600 C630 0.930 . S
O601 Co590 2.093 . S
O601 C593 1.224 . S
H602 C634 0.929 . S
H603 C636 0.930 . S
H604 C637 0.930 . S
H605 C635 0.929 . S
H606 C638 0.928 . S
O607 Co591 2.057 . S
O607 C595 1.232 . S
H608 C627 0.929 . S
H609 C628 0.929 . S
H610 C640 0.931 . S
H611 C632 0.929 . S
H612 C641 0.930 . S
H613 C633 0.931 . S
O614 Co590 2.097 . S
O614 C642 1.214 . S
H615 C643 0.929 . S
H616 C644 0.929 . S
H617 C645 0.930 . S
H618 C646 0.929 . S
H619 C648 0.930 . S
H620 C625 0.930 . S
H621 C629 0.930 . S
O622 Co591 2.037 . S
O622 C642 1.234 . S
C623 O597 1.269 . S
C623 O598 1.257 . S
C624 H599 0.930 . S
C624 C627 1.388 1_655 S
C624 C629 1.418 . S
C625 H620 0.930 . S
C625 C628 1.404 . S
C625 C629 1.353 1_455 S
N626 Co591 2.145 . S
N626 C627 1.397 . S
N626 C628 1.334 . S
C627 H608 0.929 . S
C627 C624 1.388 1_455 S
C627 N626 1.397 . S
C628 H609 0.929 . S
C628 C625 1.404 . S
C628 N626 1.334 . S
C629 H621 0.930 . S
C629 C624 1.418 . S
C629 C625 1.353 1_655 S
C630 H600 0.930 . S
C630 N631 1.330 . S
C630 C632 1.446 . S
N631 Co590 2.151 . S
N631 C630 1.330 . S
N631 C635 1.418 . S
C632 H611 0.929 . S
C632 C630 1.446 . S
C632 C633 1.332 . S
C633 H613 0.931 . S
C633 C632 1.332 . S
C633 C634 1.267 . S
C634 H602 0.929 . S
C634 C633 1.267 . S
C634 C635 1.251 . S
C635 H605 0.929 . S
C635 N631 1.418 . S
C635 C634 1.251 . S
C636 H603 0.930 . S
C636 C638 1.406 . S
C636 C641 1.261 . S
C637 H604 0.930 . S
C637 N639 1.325 . S
C637 C640 1.357 . S
C638 H606 0.928 . S
C638 C636 1.406 . S
C638 N639 1.261 . S
N639 Co590 2.214 . S
N639 C637 1.325 . S
N639 C638 1.261 . S
C640 H610 0.931 . S
C640 C637 1.357 . S
C640 C641 1.312 . S
C641 H612 0.930 . S
C641 C636 1.261 . S
C641 C640 1.312 . S
C642 O614 1.214 . S
C642 O622 1.234 . S
C643 H615 0.929 . S
C643 C646 1.391 . S
C643 C648 1.391 . S
C644 H616 0.929 . S
C644 C645 1.390 . S
C644 N647 1.391 . S
C645 H617 0.930 . S
C645 C644 1.390 . S
C645 C646 1.392 . S
C646 H618 0.929 . S
C646 C643 1.391 . S
C646 C645 1.392 . S
N647 Co591 2.257 . S
N647 C644 1.391 . S
N647 C648 1.388 . S
C648 H619 0.930 . S
C648 C643 1.391 . S
C648 N647 1.388 . S
Co649 O651 2.143 . S
Co649 O657 2.074 . S
Co649 O660 2.093 . S
Co649 O673 2.097 . S
Co649 N690 2.151 . S
Co649 N698 2.214 . S
Co650 O651 2.160 . S
Co650 O656 2.058 . S
Co650 O666 2.057 . S
Co650 O681 2.037 . S
Co650 N685 2.145 . S
Co650 N706 2.257 . S
O651 Co649 2.143 . S
O651 Co650 2.160 . S
C652 O653 1.278 . S
C652 O660 1.224 . S
O653 C652 1.278 . S
C654 O655 1.245 . S
C654 O666 1.232 . S
O655 C654 1.245 . S
O656 Co650 2.058 . S
O656 C682 1.269 . S
O657 Co649 2.074 . S
O657 C682 1.257 . S
H658 C683 0.930 . S
H659 C689 0.930 . S
O660 Co649 2.093 . S
O660 C652 1.224 . S
H661 C693 0.929 . S
H662 C695 0.930 . S
H663 C696 0.930 . S
H664 C694 0.929 . S
H665 C697 0.928 . S
O666 Co650 2.057 . S
O666 C654 1.232 . S
H667 C686 0.929 . S
H668 C687 0.929 . S
H669 C699 0.931 . S
H670 C691 0.929 . S
H671 C700 0.930 . S
H672 C692 0.931 . S
O673 Co649 2.097 . S
O673 C701 1.214 . S
H674 C702 0.929 . S
H675 C703 0.929 . S
H676 C704 0.930 . S
H677 C705 0.929 . S
H678 C707 0.930 . S
H679 C684 0.930 . S
H680 C688 0.930 . S
O681 Co650 2.037 . S
O681 C701 1.234 . S
C682 O656 1.269 . S
C682 O657 1.257 . S
C683 H658 0.930 . S
C683 C686 1.388 1_565 S
C683 C688 1.418 . S
C684 H679 0.930 . S
C684 C687 1.404 . S
C684 C688 1.353 1_545 S
N685 Co650 2.145 . S
N685 C686 1.397 . S
N685 C687 1.334 . S
C686 H667 0.929 . S
C686 C683 1.388 1_545 S
C686 N685 1.397 . S
C687 H668 0.929 . S
C687 C684 1.404 . S
C687 N685 1.334 . S
C688 H680 0.930 . S
C688 C683 1.418 . S
C688 C684 1.353 1_565 S
C689 H659 0.930 . S
C689 N690 1.330 . S
C689 C691 1.446 . S
N690 Co649 2.151 . S
N690 C689 1.330 . S
N690 C694 1.418 . S
C691 H670 0.929 . S
C691 C689 1.446 . S
C691 C692 1.332 . S
C692 H672 0.931 . S
C692 C691 1.332 . S
C692 C693 1.267 . S
C693 H661 0.929 . S
C693 C692 1.267 . S
C693 C694 1.251 . S
C694 H664 0.929 . S
C694 N690 1.418 . S
C694 C693 1.251 . S
C695 H662 0.930 . S
C695 C697 1.406 . S
C695 C700 1.261 . S
C696 H663 0.930 . S
C696 N698 1.325 . S
C696 C699 1.357 . S
C697 H665 0.928 . S
C697 C695 1.406 . S
C697 N698 1.261 . S
N698 Co649 2.214 . S
N698 C696 1.325 . S
N698 C697 1.261 . S
C699 H669 0.931 . S
C699 C696 1.357 . S
C699 C700 1.312 . S
C700 H671 0.930 . S
C700 C695 1.261 . S
C700 C699 1.312 . S
C701 O673 1.214 . S
C701 O681 1.234 . S
C702 H674 0.929 . S
C702 C705 1.391 . S
C702 C707 1.391 . S
C703 H675 0.929 . S
C703 C704 1.390 . S
C703 N706 1.391 . S
C704 H676 0.930 . S
C704 C703 1.390 . S
C704 C705 1.392 . S
C705 H677 0.929 . S
C705 C702 1.391 . S
C705 C704 1.392 . S
N706 Co650 2.257 . S
N706 C703 1.391 . S
N706 C707 1.388 . S
C707 H678 0.930 . S
C707 C702 1.391 . S
C707 N706 1.388 . S
C708 C709 1.349 . S
C708 C710 1.327 . S
C708 H733 0.950 . S
C709 C708 1.349 . S
C709 C725 1.349 . S
C710 C708 1.327 . S
C710 C729 1.429 . S
C710 H734 0.950 . S
C711 C728 1.574 . S
C711 C730 1.368 . S
C711 H735 0.949 . S
H712 C716 0.949 . S
C713 C714 1.349 . S
C713 C715 1.327 . S
C713 H736 0.950 . S
C714 C713 1.349 . S
C714 C726 1.349 . S
C715 C713 1.327 . S
C715 C731 1.429 . S
C715 H737 0.950 . S
C716 H712 0.949 . S
C716 C724 1.574 . S
C716 C732 1.368 . S
H717 C725 0.950 . S
H718 C723 0.950 . S
H719 C724 0.949 . S
H720 C726 0.950 . S
H721 C727 0.950 . S
H722 C728 0.949 . S
C723 H718 0.950 . S
C723 C725 1.327 . S
C723 C729 1.429 . S
C724 C716 1.574 . S
C724 H719 0.949 . S
C724 C730 1.368 . S
C725 C709 1.349 . S
C725 H717 0.950 . S
C725 C723 1.327 . S
C726 C714 1.349 . S
C726 H720 0.950 . S
C726 C727 1.327 . S
C727 H721 0.950 . S
C727 C726 1.327 . S
C727 C731 1.429 . S
C728 C711 1.574 . S
C728 H722 0.949 . S
C728 C732 1.368 . S
C729 C710 1.429 . S
C729 C723 1.429 . S
C729 C730 1.523 . S
C730 C711 1.368 . S
C730 C724 1.368 . S
C730 C729 1.523 . S
C731 C715 1.429 . S
C731 C727 1.429 . S
C731 C732 1.523 . S
C732 C716 1.368 . S
C732 C728 1.368 . S
C732 C731 1.523 . S
H733 C708 0.950 . S
H734 C710 0.950 . S
H735 C711 0.949 . S
H736 C713 0.950 . S
H737 C715 0.950 . S
C738 C739 1.349 . S
C738 C740 1.327 . S
C738 H763 0.950 . S
C739 C738 1.349 . S
C739 C755 1.349 . S
C740 C738 1.327 . S
C740 C759 1.429 . S
C740 H764 0.950 . S
C741 C758 1.574 . S
C741 C760 1.368 . S
C741 H765 0.949 . S
H742 C746 0.949 . S
C743 C744 1.349 . S
C743 C745 1.327 . S
C743 H766 0.950 . S
C744 C743 1.349 . S
C744 C756 1.349 . S
C745 C743 1.327 . S
C745 C761 1.429 . S
C745 H767 0.950 . S
C746 H742 0.949 . S
C746 C754 1.574 . S
C746 C762 1.368 . S
H747 C755 0.950 . S
H748 C753 0.950 . S
H749 C754 0.949 . S
H750 C756 0.950 . S
H751 C757 0.950 . S
H752 C758 0.949 . S
C753 H748 0.950 . S
C753 C755 1.327 . S
C753 C759 1.429 . S
C754 C746 1.574 . S
C754 H749 0.949 . S
C754 C760 1.368 . S
C755 C739 1.349 . S
C755 H747 0.950 . S
C755 C753 1.327 . S
C756 C744 1.349 . S
C756 H750 0.950 . S
C756 C757 1.327 . S
C757 H751 0.950 . S
C757 C756 1.327 . S
C757 C761 1.429 . S
C758 C741 1.574 . S
C758 H752 0.949 . S
C758 C762 1.368 . S
C759 C740 1.429 . S
C759 C753 1.429 . S
C759 C760 1.523 . S
C760 C741 1.368 . S
C760 C754 1.368 . S
C760 C759 1.523 . S
C761 C745 1.429 . S
C761 C757 1.429 . S
C761 C762 1.523 . S
C762 C746 1.368 . S
C762 C758 1.368 . S
C762 C761 1.523 . S
H763 C738 0.950 . S
H764 C740 0.950 . S
H765 C741 0.949 . S
H766 C743 0.950 . S
H767 C745 0.950 . S
C768 C769 1.349 . S
C768 C770 1.327 . S
C768 H793 0.950 . S
C769 C768 1.349 . S
C769 C785 1.349 . S
C770 C768 1.327 . S
C770 C789 1.429 . S
C770 H794 0.950 . S
C771 C788 1.574 . S
C771 C790 1.368 . S
C771 H795 0.949 . S
H772 C776 0.949 . S
C773 C774 1.349 . S
C773 C775 1.327 . S
C773 H796 0.950 . S
C774 C773 1.349 . S
C774 C786 1.349 . S
C775 C773 1.327 . S
C775 C791 1.429 . S
C775 H797 0.950 . S
C776 H772 0.949 . S
C776 C784 1.574 . S
C776 C792 1.368 . S
H777 C785 0.950 . S
H778 C783 0.950 . S
H779 C784 0.949 . S
H780 C786 0.950 . S
H781 C787 0.950 . S
H782 C788 0.949 . S
C783 H778 0.950 . S
C783 C785 1.327 . S
C783 C789 1.429 . S
C784 C776 1.574 . S
C784 H779 0.949 . S
C784 C790 1.368 . S
C785 C769 1.349 . S
C785 H777 0.950 . S
C785 C783 1.327 . S
C786 C774 1.349 . S
C786 H780 0.950 . S
C786 C787 1.327 . S
C787 H781 0.950 . S
C787 C786 1.327 . S
C787 C791 1.429 . S
C788 C771 1.574 . S
C788 H782 0.949 . S
C788 C792 1.368 . S
C789 C770 1.429 . S
C789 C783 1.429 . S
C789 C790 1.523 . S
C790 C771 1.368 . S
C790 C784 1.368 . S
C790 C789 1.523 . S
C791 C775 1.429 . S
C791 C787 1.429 . S
C791 C792 1.523 . S
C792 C776 1.368 . S
C792 C788 1.368 . S
C792 C791 1.523 . S
H793 C768 0.950 . S
H794 C770 0.950 . S
H795 C771 0.949 . S
H796 C773 0.950 . S
H797 C775 0.950 . S
C798 C799 1.349 . S
C798 C800 1.327 . S
C798 H823 0.950 . S
C799 C798 1.349 . S
C799 C815 1.349 . S
C800 C798 1.327 . S
C800 C819 1.429 . S
C800 H824 0.950 . S
C801 C818 1.574 . S
C801 C820 1.368 . S
C801 H825 0.949 . S
H802 C806 0.949 . S
C803 C804 1.349 . S
C803 C805 1.327 . S
C803 H826 0.950 . S
C804 C803 1.349 . S
C804 C816 1.349 . S
C805 C803 1.327 . S
C805 C821 1.429 . S
C805 H827 0.950 . S
C806 H802 0.949 . S
C806 C814 1.574 . S
C806 C822 1.368 . S
H807 C815 0.950 . S
H808 C813 0.950 . S
H809 C814 0.949 . S
H810 C816 0.950 . S
H811 C817 0.950 . S
H812 C818 0.949 . S
C813 H808 0.950 . S
C813 C815 1.327 . S
C813 C819 1.429 . S
C814 C806 1.574 . S
C814 H809 0.949 . S
C814 C820 1.368 . S
C815 C799 1.349 . S
C815 H807 0.950 . S
C815 C813 1.327 . S
C816 C804 1.349 . S
C816 H810 0.950 . S
C816 C817 1.327 . S
C817 H811 0.950 . S
C817 C816 1.327 . S
C817 C821 1.429 . S
C818 C801 1.574 . S
C818 H812 0.949 . S
C818 C822 1.368 . S
C819 C800 1.429 . S
C819 C813 1.429 . S
C819 C820 1.523 . S
C820 C801 1.368 . S
C820 C814 1.368 . S
C820 C819 1.523 . S
C821 C805 1.429 . S
C821 C817 1.429 . S
C821 C822 1.523 . S
C822 C806 1.368 . S
C822 C818 1.368 . S
C822 C821 1.523 . S
H823 C798 0.950 . S
H824 C800 0.950 . S
H825 C801 0.949 . S
H826 C803 0.950 . S
H827 C805 0.950 . S
C828 C829 1.349 . S
C828 C830 1.327 . S
C828 H853 0.950 . S
C829 C828 1.349 . S
C829 C845 1.349 . S
C830 C828 1.327 . S
C830 C849 1.429 . S
C830 H854 0.950 . S
C831 C848 1.574 . S
C831 C850 1.368 . S
C831 H855 0.949 . S
H832 C836 0.949 . S
C833 C834 1.349 . S
C833 C835 1.327 . S
C833 H856 0.950 . S
C834 C833 1.349 . S
C834 C846 1.349 . S
C835 C833 1.327 . S
C835 C851 1.429 . S
C835 H857 0.950 . S
C836 H832 0.949 . S
C836 C844 1.574 . S
C836 C852 1.368 . S
H837 C845 0.950 . S
H838 C843 0.950 . S
H839 C844 0.949 . S
H840 C846 0.950 . S
H841 C847 0.950 . S
H842 C848 0.949 . S
C843 H838 0.950 . S
C843 C845 1.327 . S
C843 C849 1.429 . S
C844 C836 1.574 . S
C844 H839 0.949 . S
C844 C850 1.368 . S
C845 C829 1.349 . S
C845 H837 0.950 . S
C845 C843 1.327 . S
C846 C834 1.349 . S
C846 H840 0.950 . S
C846 C847 1.327 . S
C847 H841 0.950 . S
C847 C846 1.327 . S
C847 C851 1.429 . S
C848 C831 1.574 . S
C848 H842 0.949 . S
C848 C852 1.368 . S
C849 C830 1.429 . S
C849 C843 1.429 . S
C849 C850 1.523 . S
C850 C831 1.368 . S
C850 C844 1.368 . S
C850 C849 1.523 . S
C851 C835 1.429 . S
C851 C847 1.429 . S
C851 C852 1.523 . S
C852 C836 1.368 . S
C852 C848 1.368 . S
C852 C851 1.523 . S
H853 C828 0.950 . S
H854 C830 0.950 . S
H855 C831 0.949 . S
H856 C833 0.950 . S
H857 C835 0.950 . S
C858 C859 1.349 . S
C858 C860 1.327 . S
C858 H883 0.950 . S
C859 C858 1.349 . S
C859 C875 1.349 . S
C860 C858 1.327 . S
C860 C879 1.429 . S
C860 H884 0.950 . S
C861 C878 1.574 . S
C861 C880 1.368 . S
C861 H885 0.949 . S
H862 C866 0.949 . S
C863 C864 1.349 . S
C863 C865 1.327 . S
C863 H886 0.950 . S
C864 C863 1.349 . S
C864 C876 1.349 . S
C865 C863 1.327 . S
C865 C881 1.429 . S
C865 H887 0.950 . S
C866 H862 0.949 . S
C866 C874 1.574 . S
C866 C882 1.368 . S
H867 C875 0.950 . S
H868 C873 0.950 . S
H869 C874 0.949 . S
H870 C876 0.950 . S
H871 C877 0.950 . S
H872 C878 0.949 . S
C873 H868 0.950 . S
C873 C875 1.327 . S
C873 C879 1.429 . S
C874 C866 1.574 . S
C874 H869 0.949 . S
C874 C880 1.368 . S
C875 C859 1.349 . S
C875 H867 0.950 . S
C875 C873 1.327 . S
C876 C864 1.349 . S
C876 H870 0.950 . S
C876 C877 1.327 . S
C877 H871 0.950 . S
C877 C876 1.327 . S
C877 C881 1.429 . S
C878 C861 1.574 . S
C878 H872 0.949 . S
C878 C882 1.368 . S
C879 C860 1.429 . S
C879 C873 1.429 . S
C879 C880 1.523 . S
C880 C861 1.368 . S
C880 C874 1.368 . S
C880 C879 1.523 . S
C881 C865 1.429 . S
C881 C877 1.429 . S
C881 C882 1.523 . S
C882 C866 1.368 . S
C882 C878 1.368 . S
C882 C881 1.523 . S
H883 C858 0.950 . S
H884 C860 0.950 . S
H885 C861 0.949 . S
H886 C863 0.950 . S
H887 C865 0.950 . S
C888 C889 1.349 . S
C888 C890 1.327 . S
C888 H913 0.950 . S
C889 C888 1.349 . S
C889 C905 1.349 . S
C890 C888 1.327 . S
C890 C909 1.429 . S
C890 H914 0.950 . S
C891 C908 1.574 . S
C891 C910 1.368 . S
C891 H915 0.949 . S
H892 C896 0.949 . S
C893 C894 1.349 . S
C893 C895 1.327 . S
C893 H916 0.950 . S
C894 C893 1.349 . S
C894 C906 1.349 . S
C895 C893 1.327 . S
C895 C911 1.429 . S
C895 H917 0.950 . S
C896 H892 0.949 . S
C896 C904 1.574 . S
C896 C912 1.368 . S
H897 C905 0.950 . S
H898 C903 0.950 . S
H899 C904 0.949 . S
H900 C906 0.950 . S
H901 C907 0.950 . S
H902 C908 0.949 . S
C903 H898 0.950 . S
C903 C905 1.327 . S
C903 C909 1.429 . S
C904 C896 1.574 . S
C904 H899 0.949 . S
C904 C910 1.368 . S
C905 C889 1.349 . S
C905 H897 0.950 . S
C905 C903 1.327 . S
C906 C894 1.349 . S
C906 H900 0.950 . S
C906 C907 1.327 . S
C907 H901 0.950 . S
C907 C906 1.327 . S
C907 C911 1.429 . S
C908 C891 1.574 . S
C908 H902 0.949 . S
C908 C912 1.368 . S
C909 C890 1.429 . S
C909 C903 1.429 . S
C909 C910 1.523 . S
C910 C891 1.368 . S
C910 C904 1.368 . S
C910 C909 1.523 . S
C911 C895 1.429 . S
C911 C907 1.429 . S
C911 C912 1.523 . S
C912 C896 1.368 . S
C912 C908 1.368 . S
C912 C911 1.523 . S
H913 C888 0.950 . S
H914 C890 0.950 . S
H915 C891 0.949 . S
H916 C893 0.950 . S
H917 C895 0.950 . S
C918 C919 1.349 . S
C918 C920 1.327 . S
C918 H943 0.950 . S
C919 C918 1.349 . S
C919 C935 1.349 . S
C920 C918 1.327 . S
C920 C939 1.429 . S
C920 H944 0.950 . S
C921 C938 1.574 . S
C921 C940 1.368 . S
C921 H945 0.949 . S
H922 C926 0.949 . S
C923 C924 1.349 . S
C923 C925 1.327 . S
C923 H946 0.950 . S
C924 C923 1.349 . S
C924 C936 1.349 . S
C925 C923 1.327 . S
C925 C941 1.429 . S
C925 H947 0.950 . S
C926 H922 0.949 . S
C926 C934 1.574 . S
C926 C942 1.368 . S
H927 C935 0.950 . S
H928 C933 0.950 . S
H929 C934 0.949 . S
H930 C936 0.950 . S
H931 C937 0.950 . S
H932 C938 0.949 . S
C933 H928 0.950 . S
C933 C935 1.327 . S
C933 C939 1.429 . S
C934 C926 1.574 . S
C934 H929 0.949 . S
C934 C940 1.368 1_655 S
C935 C919 1.349 . S
C935 H927 0.950 . S
C935 C933 1.327 . S
C936 C924 1.349 . S
C936 H930 0.950 . S
C936 C937 1.327 . S
C937 H931 0.950 . S
C937 C936 1.327 . S
C937 C941 1.429 . S
C938 C921 1.574 . S
C938 H932 0.949 . S
C938 C942 1.368 1_455 S
C939 C920 1.429 . S
C939 C933 1.429 . S
C939 C940 1.523 . S
C940 C921 1.368 . S
C940 C934 1.368 1_455 S
C940 C939 1.523 . S
C941 C925 1.429 . S
C941 C937 1.429 . S
C941 C942 1.523 . S
C942 C926 1.368 . S
C942 C938 1.368 1_655 S
C942 C941 1.523 . S
H943 C918 0.950 . S
H944 C920 0.950 . S
H945 C921 0.949 . S
H946 C923 0.950 . S
H947 C925 0.950 . S
C948 C949 1.349 . S
C948 C950 1.327 . S
C948 H973 0.950 . S
C949 C948 1.349 . S
C949 C965 1.349 . S
C950 C948 1.327 . S
C950 C969 1.429 . S
C950 H974 0.950 . S
C951 C968 1.574 . S
C951 C970 1.368 1_565 S
C951 H975 0.949 . S
H952 C956 0.949 . S
C953 C954 1.349 . S
C953 C955 1.327 . S
C953 H976 0.950 . S
C954 C953 1.349 . S
C954 C966 1.349 . S
C955 C953 1.327 . S
C955 C971 1.429 . S
C955 H977 0.950 . S
C956 H952 0.949 . S
C956 C964 1.574 . S
C956 C972 1.368 1_545 S
H957 C965 0.950 . S
H958 C963 0.950 . S
H959 C964 0.949 . S
H960 C966 0.950 . S
H961 C967 0.950 . S
H962 C968 0.949 . S
C963 H958 0.950 . S
C963 C965 1.327 . S
C963 C969 1.429 . S
C964 C956 1.574 . S
C964 H959 0.949 . S
C964 C970 1.368 . S
C965 C949 1.349 . S
C965 H957 0.950 . S
C965 C963 1.327 . S
C966 C954 1.349 . S
C966 H960 0.950 . S
C966 C967 1.327 . S
C967 H961 0.950 . S
C967 C966 1.327 . S
C967 C971 1.429 . S
C968 C951 1.574 . S
C968 H962 0.949 . S
C968 C972 1.368 . S
C969 C950 1.429 . S
C969 C963 1.429 . S
C969 C970 1.523 . S
C970 C951 1.368 1_545 S
C970 C964 1.368 . S
C970 C969 1.523 . S
C971 C955 1.429 . S
C971 C967 1.429 . S
C971 C972 1.523 . S
C972 C956 1.368 1_565 S
C972 C968 1.368 . S
C972 C971 1.523 . S
H973 C948 0.950 . S
H974 C950 0.950 . S
H975 C951 0.949 . S
H976 C953 0.950 . S
H977 C955 0.950 . S
C978 C979 1.349 . S
C978 C980 1.327 . S
C978 H1003 0.950 . S
C979 C978 1.349 . S
C979 C995 1.349 . S
C980 C978 1.327 . S
C980 C999 1.429 . S
C980 H1004 0.950 . S
C981 C998 1.574 . S
C981 C1000 1.368 . S
C981 H1005 0.949 . S
H982 C986 0.949 . S
C983 C984 1.349 . S
C983 C985 1.327 . S
C983 H1006 0.950 . S
C984 C983 1.349 . S
C984 C996 1.349 . S
C985 C983 1.327 . S
C985 C1001 1.429 . S
C985 H1007 0.950 . S
C986 H982 0.949 . S
C986 C994 1.574 . S
C986 C1002 1.368 . S
H987 C995 0.950 . S
H988 C993 0.950 . S
H989 C994 0.949 . S
H990 C996 0.950 . S
H991 C997 0.950 . S
H992 C998 0.949 . S
C993 H988 0.950 . S
C993 C995 1.327 . S
C993 C999 1.429 . S
C994 C986 1.574 . S
C994 H989 0.949 . S
C994 C1000 1.368 . S
C995 C979 1.349 . S
C995 H987 0.950 . S
C995 C993 1.327 . S
C996 C984 1.349 . S
C996 H990 0.950 . S
C996 C997 1.327 . S
C997 H991 0.950 . S
C997 C996 1.327 . S
C997 C1001 1.429 . S
C998 C981 1.574 . S
C998 H992 0.949 . S
C998 C1002 1.368 . S
C999 C980 1.429 . S
C999 C993 1.429 . S
C999 C1000 1.523 . S
C1000 C981 1.368 . S
C1000 C994 1.368 . S
C1000 C999 1.523 . S
C1001 C985 1.429 . S
C1001 C997 1.429 . S
C1001 C1002 1.523 . S
C1002 C986 1.368 . S
C1002 C998 1.368 . S
C1002 C1001 1.523 . S
H1003 C978 0.950 . S
H1004 C980 0.950 . S
H1005 C981 0.949 . S
H1006 C983 0.950 . S
H1007 C985 0.950 . S
C1008 C1009 1.349 . S
C1008 C1010 1.327 . S
C1008 H1033 0.950 . S
C1009 C1008 1.349 . S
C1009 C1025 1.349 . S
C1010 C1008 1.327 . S
C1010 C1029 1.429 . S
C1010 H1034 0.950 . S
C1011 C1028 1.574 . S
C1011 C1030 1.368 . S
C1011 H1035 0.949 . S
H1012 C1016 0.949 . S
C1013 C1014 1.349 . S
C1013 C1015 1.327 . S
C1013 H1036 0.950 . S
C1014 C1013 1.349 . S
C1014 C1026 1.349 . S
C1015 C1013 1.327 . S
C1015 C1031 1.429 . S
C1015 H1037 0.950 . S
C1016 H1012 0.949 . S
C1016 C1024 1.574 . S
C1016 C1032 1.368 . S
H1017 C1025 0.950 . S
H1018 C1023 0.950 . S
H1019 C1024 0.949 . S
H1020 C1026 0.950 . S
H1021 C1027 0.950 . S
H1022 C1028 0.949 . S
C1023 H1018 0.950 . S
C1023 C1025 1.327 . S
C1023 C1029 1.429 . S
C1024 C1016 1.574 . S
C1024 H1019 0.949 . S
C1024 C1030 1.368 1_455 S
C1025 C1009 1.349 . S
C1025 H1017 0.950 . S
C1025 C1023 1.327 . S
C1026 C1014 1.349 . S
C1026 H1020 0.950 . S
C1026 C1027 1.327 . S
C1027 H1021 0.950 . S
C1027 C1026 1.327 . S
C1027 C1031 1.429 . S
C1028 C1011 1.574 . S
C1028 H1022 0.949 . S
C1028 C1032 1.368 1_655 S
C1029 C1010 1.429 . S
C1029 C1023 1.429 . S
C1029 C1030 1.523 . S
C1030 C1011 1.368 . S
C1030 C1024 1.368 1_655 S
C1030 C1029 1.523 . S
C1031 C1015 1.429 . S
C1031 C1027 1.429 . S
C1031 C1032 1.523 . S
C1032 C1016 1.368 . S
C1032 C1028 1.368 1_455 S
C1032 C1031 1.523 . S
H1033 C1008 0.950 . S
H1034 C1010 0.950 . S
H1035 C1011 0.949 . S
H1036 C1013 0.950 . S
H1037 C1015 0.950 . S
C1038 C1039 1.349 . S
C1038 C1040 1.327 . S
C1038 H1063 0.950 . S
C1039 C1038 1.349 . S
C1039 C1055 1.349 . S
C1040 C1038 1.327 . S
C1040 C1059 1.429 . S
C1040 H1064 0.950 . S
C1041 C1058 1.574 . S
C1041 C1060 1.368 1_545 S
C1041 H1065 0.949 . S
H1042 C1046 0.949 . S
C1043 C1044 1.349 . S
C1043 C1045 1.327 . S
C1043 H1066 0.950 . S
C1044 C1043 1.349 . S
C1044 C1056 1.349 . S
C1045 C1043 1.327 . S
C1045 C1061 1.429 . S
C1045 H1067 0.950 . S
C1046 H1042 0.949 . S
C1046 C1054 1.574 . S
C1046 C1062 1.368 1_565 S
H1047 C1055 0.950 . S
H1048 C1053 0.950 . S
H1049 C1054 0.949 . S
H1050 C1056 0.950 . S
H1051 C1057 0.950 . S
H1052 C1058 0.949 . S
C1053 H1048 0.950 . S
C1053 C1055 1.327 . S
C1053 C1059 1.429 . S
C1054 C1046 1.574 . S
C1054 H1049 0.949 . S
C1054 C1060 1.368 . S
C1055 C1039 1.349 . S
C1055 H1047 0.950 . S
C1055 C1053 1.327 . S
C1056 C1044 1.349 . S
C1056 H1050 0.950 . S
C1056 C1057 1.327 . S
C1057 H1051 0.950 . S
C1057 C1056 1.327 . S
C1057 C1061 1.429 . S
C1058 C1041 1.574 . S
C1058 H1052 0.949 . S
C1058 C1062 1.368 . S
C1059 C1040 1.429 . S
C1059 C1053 1.429 . S
C1059 C1060 1.523 . S
C1060 C1041 1.368 1_565 S
C1060 C1054 1.368 . S
C1060 C1059 1.523 . S
C1061 C1045 1.429 . S
C1061 C1057 1.429 . S
C1061 C1062 1.523 . S
C1062 C1046 1.368 1_545 S
C1062 C1058 1.368 . S
C1062 C1061 1.523 . S
H1063 C1038 0.950 . S
H1064 C1040 0.950 . S
H1065 C1041 0.949 . S
H1066 C1043 0.950 . S
H1067 C1045 0.950 . S
C1068 C1069 1.349 . S
C1068 C1070 1.327 . S
C1068 H1093 0.950 . S
C1069 C1068 1.349 . S
C1069 C1085 1.349 . S
C1070 C1068 1.327 . S
C1070 C1089 1.429 . S
C1070 H1094 0.950 . S
C1071 C1088 1.574 . S
C1071 C1090 1.368 . S
C1071 H1095 0.949 . S
H1072 C1076 0.949 . S
C1073 C1074 1.349 . S
C1073 C1075 1.327 . S
C1073 H1096 0.950 . S
C1074 C1073 1.349 . S
C1074 C1086 1.349 . S
C1075 C1073 1.327 . S
C1075 C1091 1.429 . S
C1075 H1097 0.950 . S
C1076 H1072 0.949 . S
C1076 C1084 1.574 . S
C1076 C1092 1.368 . S
H1077 C1085 0.950 . S
H1078 C1083 0.950 . S
H1079 C1084 0.949 . S
H1080 C1086 0.950 . S
H1081 C1087 0.950 . S
H1082 C1088 0.949 . S
C1083 H1078 0.950 . S
C1083 C1085 1.327 . S
C1083 C1089 1.429 . S
C1084 C1076 1.574 . S
C1084 H1079 0.949 . S
C1084 C1090 1.368 . S
C1085 C1069 1.349 . S
C1085 H1077 0.950 . S
C1085 C1083 1.327 . S
C1086 C1074 1.349 . S
C1086 H1080 0.950 . S
C1086 C1087 1.327 . S
C1087 H1081 0.950 . S
C1087 C1086 1.327 . S
C1087 C1091 1.429 . S
C1088 C1071 1.574 . S
C1088 H1082 0.949 . S
C1088 C1092 1.368 . S
C1089 C1070 1.429 . S
C1089 C1083 1.429 . S
C1089 C1090 1.523 . S
C1090 C1071 1.368 . S
C1090 C1084 1.368 . S
C1090 C1089 1.523 . S
C1091 C1075 1.429 . S
C1091 C1087 1.429 . S
C1091 C1092 1.523 . S
C1092 C1076 1.368 . S
C1092 C1088 1.368 . S
C1092 C1091 1.523 . S
H1093 C1068 0.950 . S
H1094 C1070 0.950 . S
H1095 C1071 0.949 . S
H1096 C1073 0.950 . S
H1097 C1075 0.950 . S
C1098 C1099 1.349 . S
C1098 C1100 1.327 . S
C1098 H1123 0.950 . S
C1099 C1098 1.349 . S
C1099 C1115 1.349 . S
C1100 C1098 1.327 . S
C1100 C1119 1.429 . S
C1100 H1124 0.950 . S
C1101 C1118 1.574 . S
C1101 C1120 1.368 1_455 S
C1101 H1125 0.949 . S
H1102 C1106 0.949 . S
C1103 C1104 1.349 . S
C1103 C1105 1.327 . S
C1103 H1126 0.950 . S
C1104 C1103 1.349 . S
C1104 C1116 1.349 . S
C1105 C1103 1.327 . S
C1105 C1121 1.429 . S
C1105 H1127 0.950 . S
C1106 H1102 0.949 . S
C1106 C1114 1.574 . S
C1106 C1122 1.368 1_655 S
H1107 C1115 0.950 . S
H1108 C1113 0.950 . S
H1109 C1114 0.949 . S
H1110 C1116 0.950 . S
H1111 C1117 0.950 . S
H1112 C1118 0.949 . S
C1113 H1108 0.950 . S
C1113 C1115 1.327 . S
C1113 C1119 1.429 . S
C1114 C1106 1.574 . S
C1114 H1109 0.949 . S
C1114 C1120 1.368 . S
C1115 C1099 1.349 . S
C1115 H1107 0.950 . S
C1115 C1113 1.327 . S
C1116 C1104 1.349 . S
C1116 H1110 0.950 . S
C1116 C1117 1.327 . S
C1117 H1111 0.950 . S
C1117 C1116 1.327 . S
C1117 C1121 1.429 . S
C1118 C1101 1.574 . S
C1118 H1112 0.949 . S
C1118 C1122 1.368 . S
C1119 C1100 1.429 . S
C1119 C1113 1.429 . S
C1119 C1120 1.523 . S
C1120 C1101 1.368 1_655 S
C1120 C1114 1.368 . S
C1120 C1119 1.523 . S
C1121 C1105 1.429 . S
C1121 C1117 1.429 . S
C1121 C1122 1.523 . S
C1122 C1106 1.368 1_455 S
C1122 C1118 1.368 . S
C1122 C1121 1.523 . S
H1123 C1098 0.950 . S
H1124 C1100 0.950 . S
H1125 C1101 0.949 . S
H1126 C1103 0.950 . S
H1127 C1105 0.950 . S
C1128 C1129 1.349 . S
C1128 C1130 1.327 . S
C1128 H1153 0.950 . S
C1129 C1128 1.349 . S
C1129 C1145 1.349 . S
C1130 C1128 1.327 . S
C1130 C1149 1.429 . S
C1130 H1154 0.950 . S
C1131 C1148 1.574 1_556 S
C1131 C1150 1.368 1_545 S
C1131 H1155 0.949 . S
H1132 C1136 0.949 . S
C1133 C1134 1.349 . S
C1133 C1135 1.327 . S
C1133 H1156 0.950 . S
C1134 C1133 1.349 . S
C1134 C1146 1.349 . S
C1135 C1133 1.327 . S
C1135 C1151 1.429 . S
C1135 H1157 0.950 . S
C1136 H1132 0.949 . S
C1136 C1144 1.574 1_554 S
C1136 C1152 1.368 1_565 S
H1137 C1145 0.950 . S
H1138 C1143 0.950 1_545 S
H1139 C1144 0.949 . S
H1140 C1146 0.950 . S
H1141 C1147 0.950 1_565 S
H1142 C1148 0.949 . S
C1143 H1138 0.950 1_565 S
C1143 C1145 1.327 . S
C1143 C1149 1.429 . S
C1144 C1136 1.574 1_556 S
C1144 H1139 0.949 . S
C1144 C1150 1.368 . S
C1145 C1129 1.349 . S
C1145 H1137 0.950 . S
C1145 C1143 1.327 . S
C1146 C1134 1.349 . S
C1146 H1140 0.950 . S
C1146 C1147 1.327 . S
C1147 H1141 0.950 1_545 S
C1147 C1146 1.327 . S
C1147 C1151 1.429 . S
C1148 C1131 1.574 1_554 S
C1148 H1142 0.949 . S
C1148 C1152 1.368 . S
C1149 C1130 1.429 . S
C1149 C1143 1.429 . S
C1149 C1150 1.523 . S
C1150 C1131 1.368 1_565 S
C1150 C1144 1.368 . S
C1150 C1149 1.523 . S
C1151 C1135 1.429 . S
C1151 C1147 1.429 . S
C1151 C1152 1.523 . S
C1152 C1136 1.368 1_545 S
C1152 C1148 1.368 . S
C1152 C1151 1.523 . S
H1153 C1128 0.950 . S
H1154 C1130 0.950 . S
H1155 C1131 0.949 . S
H1156 C1133 0.950 . S
H1157 C1135 0.950 . S
C1158 C1159 1.349 . S
C1158 C1160 1.327 . S
C1158 H1183 0.950 . S
C1159 C1158 1.349 . S
C1159 C1175 1.349 . S
C1160 C1158 1.327 . S
C1160 C1179 1.429 . S
C1160 H1184 0.950 . S
C1161 C1178 1.574 . S
C1161 C1180 1.368 . S
C1161 H1185 0.949 . S
H1162 C1166 0.949 . S
C1163 C1164 1.349 . S
C1163 C1165 1.327 . S
C1163 H1186 0.950 . S
C1164 C1163 1.349 . S
C1164 C1176 1.349 . S
C1165 C1163 1.327 . S
C1165 C1181 1.429 . S
C1165 H1187 0.950 . S
C1166 H1162 0.949 . S
C1166 C1174 1.574 . S
C1166 C1182 1.368 . S
H1167 C1175 0.950 . S
H1168 C1173 0.950 . S
H1169 C1174 0.949 . S
H1170 C1176 0.950 . S
H1171 C1177 0.950 . S
H1172 C1178 0.949 . S
C1173 H1168 0.950 . S
C1173 C1175 1.327 . S
C1173 C1179 1.429 . S
C1174 C1166 1.574 . S
C1174 H1169 0.949 . S
C1174 C1180 1.368 . S
C1175 C1159 1.349 . S
C1175 H1167 0.950 . S
C1175 C1173 1.327 . S
C1176 C1164 1.349 . S
C1176 H1170 0.950 . S
C1176 C1177 1.327 . S
C1177 H1171 0.950 . S
C1177 C1176 1.327 . S
C1177 C1181 1.429 . S
C1178 C1161 1.574 . S
C1178 H1172 0.949 . S
C1178 C1182 1.368 . S
C1179 C1160 1.429 . S
C1179 C1173 1.429 . S
C1179 C1180 1.523 . S
C1180 C1161 1.368 . S
C1180 C1174 1.368 . S
C1180 C1179 1.523 . S
C1181 C1165 1.429 . S
C1181 C1177 1.429 . S
C1181 C1182 1.523 . S
C1182 C1166 1.368 . S
C1182 C1178 1.368 . S
C1182 C1181 1.523 . S
H1183 C1158 0.950 . S
H1184 C1160 0.950 . S
H1185 C1161 0.949 . S
H1186 C1163 0.950 . S
H1187 C1165 0.950 . S
C1188 C1189 1.349 . S
C1188 C1190 1.327 . S
C1188 H1213 0.950 . S
C1189 C1188 1.349 . S
C1189 C1205 1.349 . S
C1190 C1188 1.327 . S
C1190 C1209 1.429 . S
C1190 H1214 0.950 . S
C1191 C1208 1.574 1_455 S
C1191 C1210 1.368 . S
C1191 H1215 0.949 . S
H1192 C1196 0.949 . S
C1193 C1194 1.349 . S
C1193 C1195 1.327 . S
C1193 H1216 0.950 . S
C1194 C1193 1.349 . S
C1194 C1206 1.349 . S
C1195 C1193 1.327 . S
C1195 C1211 1.429 . S
C1195 H1217 0.950 . S
C1196 H1192 0.949 . S
C1196 C1204 1.574 1_655 S
C1196 C1212 1.368 . S
H1197 C1205 0.950 . S
H1198 C1203 0.950 . S
H1199 C1204 0.949 . S
H1200 C1206 0.950 . S
H1201 C1207 0.950 . S
H1202 C1208 0.949 . S
C1203 H1198 0.950 . S
C1203 C1205 1.327 . S
C1203 C1209 1.429 . S
C1204 C1196 1.574 1_455 S
C1204 H1199 0.949 . S
C1204 C1210 1.368 . S
C1205 C1189 1.349 . S
C1205 H1197 0.950 . S
C1205 C1203 1.327 . S
C1206 C1194 1.349 . S
C1206 H1200 0.950 . S
C1206 C1207 1.327 . S
C1207 H1201 0.950 . S
C1207 C1206 1.327 . S
C1207 C1211 1.429 . S
C1208 C1191 1.574 1_655 S
C1208 H1202 0.949 . S
C1208 C1212 1.368 . S
C1209 C1190 1.429 . S
C1209 C1203 1.429 . S
C1209 C1210 1.523 . S
C1210 C1191 1.368 . S
C1210 C1204 1.368 . S
C1210 C1209 1.523 . S
C1211 C1195 1.429 . S
C1211 C1207 1.429 . S
C1211 C1212 1.523 . S
C1212 C1196 1.368 . S
C1212 C1208 1.368 . S
C1212 C1211 1.523 . S
H1213 C1188 0.950 . S
H1214 C1190 0.950 . S
H1215 C1191 0.949 . S
H1216 C1193 0.950 . S
H1217 C1195 0.950 . S
C1218 C1219 1.349 . S
C1218 C1220 1.327 . S
C1218 H1243 0.950 . S
C1219 C1218 1.349 . S
C1219 C1235 1.349 . S
C1220 C1218 1.327 . S
C1220 C1239 1.429 . S
C1220 H1244 0.950 . S
C1221 C1238 1.574 1_554 S
C1221 C1240 1.368 . S
C1221 H1245 0.949 . S
H1222 C1226 0.949 . S
C1223 C1224 1.349 . S
C1223 C1225 1.327 . S
C1223 H1246 0.950 . S
C1224 C1223 1.349 . S
C1224 C1236 1.349 . S
C1225 C1223 1.327 . S
C1225 C1241 1.429 . S
C1225 H1247 0.950 . S
C1226 H1222 0.949 . S
C1226 C1234 1.574 1_556 S
C1226 C1242 1.368 . S
H1227 C1235 0.950 . S
H1228 C1233 0.950 . S
H1229 C1234 0.949 . S
H1230 C1236 0.950 . S
H1231 C1237 0.950 . S
H1232 C1238 0.949 . S
C1233 H1228 0.950 . S
C1233 C1235 1.327 . S
C1233 C1239 1.429 . S
C1234 C1226 1.574 1_554 S
C1234 H1229 0.949 . S
C1234 C1240 1.368 1_545 S
C1235 C1219 1.349 . S
C1235 H1227 0.950 . S
C1235 C1233 1.327 . S
C1236 C1224 1.349 . S
C1236 H1230 0.950 . S
C1236 C1237 1.327 . S
C1237 H1231 0.950 . S
C1237 C1236 1.327 . S
C1237 C1241 1.429 . S
C1238 C1221 1.574 1_556 S
C1238 H1232 0.949 . S
C1238 C1242 1.368 1_565 S
C1239 C1220 1.429 . S
C1239 C1233 1.429 . S
C1239 C1240 1.523 . S
C1240 C1221 1.368 . S
C1240 C1234 1.368 1_565 S
C1240 C1239 1.523 . S
C1241 C1225 1.429 . S
C1241 C1237 1.429 . S
C1241 C1242 1.523 . S
C1242 C1226 1.368 . S
C1242 C1238 1.368 1_545 S
C1242 C1241 1.523 . S
H1243 C1218 0.950 . S
H1244 C1220 0.950 . S
H1245 C1221 0.949 . S
H1246 C1223 0.950 . S
H1247 C1225 0.950 . S
C1248 C1249 1.349 . S
C1248 C1250 1.327 . S
C1248 H1273 0.950 . S
C1249 C1248 1.349 . S
C1249 C1265 1.349 . S
C1250 C1248 1.327 . S
C1250 C1269 1.429 . S
C1250 H1274 0.950 . S
C1251 C1268 1.574 1_655 S
C1251 C1270 1.368 . S
C1251 H1275 0.949 . S
H1252 C1256 0.949 . S
C1253 C1254 1.349 . S
C1253 C1255 1.327 . S
C1253 H1276 0.950 . S
C1254 C1253 1.349 . S
C1254 C1266 1.349 . S
C1255 C1253 1.327 . S
C1255 C1271 1.429 . S
C1255 H1277 0.950 . S
C1256 H1252 0.949 . S
C1256 C1264 1.574 1_455 S
C1256 C1272 1.368 . S
H1257 C1265 0.950 . S
H1258 C1263 0.950 . S
H1259 C1264 0.949 . S
H1260 C1266 0.950 . S
H1261 C1267 0.950 . S
H1262 C1268 0.949 . S
C1263 H1258 0.950 . S
C1263 C1265 1.327 . S
C1263 C1269 1.429 . S
C1264 C1256 1.574 1_655 S
C1264 H1259 0.949 . S
C1264 C1270 1.368 . S
C1265 C1249 1.349 . S
C1265 H1257 0.950 . S
C1265 C1263 1.327 . S
C1266 C1254 1.349 . S
C1266 H1260 0.950 . S
C1266 C1267 1.327 . S
C1267 H1261 0.950 . S
C1267 C1266 1.327 . S
C1267 C1271 1.429 . S
C1268 C1251 1.574 1_455 S
C1268 H1262 0.949 . S
C1268 C1272 1.368 . S
C1269 C1250 1.429 . S
C1269 C1263 1.429 . S
C1269 C1270 1.523 . S
C1270 C1251 1.368 . S
C1270 C1264 1.368 . S
C1270 C1269 1.523 . S
C1271 C1255 1.429 . S
C1271 C1267 1.429 . S
C1271 C1272 1.523 . S
C1272 C1256 1.368 . S
C1272 C1268 1.368 . S
C1272 C1271 1.523 . S
H1273 C1248 0.950 . S
H1274 C1250 0.950 . S
H1275 C1251 0.949 . S
H1276 C1253 0.950 . S
H1277 C1255 0.950 . S
C1278 C1279 1.349 . S
C1278 C1280 1.327 . S
C1278 H1303 0.950 . S
C1279 C1278 1.349 . S
C1279 C1295 1.349 . S
C1280 C1278 1.327 . S
C1280 C1299 1.429 . S
C1280 H1304 0.950 . S
C1281 C1298 1.574 1_545 S
C1281 C1300 1.368 . S
C1281 H1305 0.949 . S
H1282 C1286 0.949 . S
C1283 C1284 1.349 . S
C1283 C1285 1.327 . S
C1283 H1306 0.950 . S
C1284 C1283 1.349 . S
C1284 C1296 1.349 . S
C1285 C1283 1.327 . S
C1285 C1301 1.429 . S
C1285 H1307 0.950 . S
C1286 H1282 0.949 . S
C1286 C1294 1.574 1_565 S
C1286 C1302 1.368 . S
H1287 C1295 0.950 . S
H1288 C1293 0.950 . S
H1289 C1294 0.949 . S
H1290 C1296 0.950 . S
H1291 C1297 0.950 . S
H1292 C1298 0.949 . S
C1293 H1288 0.950 . S
C1293 C1295 1.327 . S
C1293 C1299 1.429 . S
C1294 C1286 1.574 1_545 S
C1294 H1289 0.949 . S
C1294 C1300 1.368 . S
C1295 C1279 1.349 . S
C1295 H1287 0.950 . S
C1295 C1293 1.327 . S
C1296 C1284 1.349 . S
C1296 H1290 0.950 . S
C1296 C1297 1.327 . S
C1297 H1291 0.950 . S
C1297 C1296 1.327 . S
C1297 C1301 1.429 . S
C1298 C1281 1.574 1_565 S
C1298 H1292 0.949 . S
C1298 C1302 1.368 . S
C1299 C1280 1.429 . S
C1299 C1293 1.429 . S
C1299 C1300 1.523 . S
C1300 C1281 1.368 . S
C1300 C1294 1.368 . S
C1300 C1299 1.523 . S
C1301 C1285 1.429 . S
C1301 C1297 1.429 . S
C1301 C1302 1.523 . S
C1302 C1286 1.368 . S
C1302 C1298 1.368 . S
C1302 C1301 1.523 . S
H1303 C1278 0.950 . S
H1304 C1280 0.950 . S
H1305 C1281 0.949 . S
H1306 C1283 0.950 . S
H1307 C1285 0.950 . S
C1308 C1309 1.349 . S
C1308 C1310 1.327 . S
C1308 H1333 0.950 . S
C1309 C1308 1.349 . S
C1309 C1325 1.349 . S
C1310 C1308 1.327 . S
C1310 C1329 1.429 . S
C1310 H1334 0.950 . S
C1311 C1328 1.574 . S
C1311 C1330 1.368 . S
C1311 H1335 0.949 . S
H1312 C1316 0.949 . S
C1313 C1314 1.349 . S
C1313 C1315 1.327 . S
C1313 H1336 0.950 . S
C1314 C1313 1.349 . S
C1314 C1326 1.349 . S
C1315 C1313 1.327 . S
C1315 C1331 1.429 . S
C1315 H1337 0.950 . S
C1316 H1312 0.949 . S
C1316 C1324 1.574 . S
C1316 C1332 1.368 . S
H1317 C1325 0.950 . S
H1318 C1323 0.950 . S
H1319 C1324 0.949 . S
H1320 C1326 0.950 . S
H1321 C1327 0.950 . S
H1322 C1328 0.949 . S
C1323 H1318 0.950 . S
C1323 C1325 1.327 . S
C1323 C1329 1.429 . S
C1324 C1316 1.574 . S
C1324 H1319 0.949 . S
C1324 C1330 1.368 . S
C1325 C1309 1.349 . S
C1325 H1317 0.950 . S
C1325 C1323 1.327 . S
C1326 C1314 1.349 . S
C1326 H1320 0.950 . S
C1326 C1327 1.327 . S
C1327 H1321 0.950 . S
C1327 C1326 1.327 . S
C1327 C1331 1.429 . S
C1328 C1311 1.574 . S
C1328 H1322 0.949 . S
C1328 C1332 1.368 . S
C1329 C1310 1.429 . S
C1329 C1323 1.429 . S
C1329 C1330 1.523 . S
C1330 C1311 1.368 . S
C1330 C1324 1.368 . S
C1330 C1329 1.523 . S
C1331 C1315 1.429 . S
C1331 C1327 1.429 . S
C1331 C1332 1.523 . S
C1332 C1316 1.368 . S
C1332 C1328 1.368 . S
C1332 C1331 1.523 . S
H1333 C1308 0.950 . S
H1334 C1310 0.950 . S
H1335 C1311 0.949 . S
H1336 C1313 0.950 . S
H1337 C1315 0.950 . S
C1338 C1339 1.349 . S
C1338 C1340 1.327 . S
C1338 H1363 0.950 . S
C1339 C1338 1.349 . S
C1339 C1355 1.349 . S
C1340 C1338 1.327 . S
C1340 C1359 1.429 . S
C1340 H1364 0.950 . S
C1341 C1358 1.574 1_655 S
C1341 C1360 1.368 . S
C1341 H1365 0.949 . S
H1342 C1346 0.949 . S
C1343 C1344 1.349 . S
C1343 C1345 1.327 . S
C1343 H1366 0.950 . S
C1344 C1343 1.349 . S
C1344 C1356 1.349 . S
C1345 C1343 1.327 . S
C1345 C1361 1.429 . S
C1345 H1367 0.950 . S
C1346 H1342 0.949 . S
C1346 C1354 1.574 1_455 S
C1346 C1362 1.368 . S
H1347 C1355 0.950 . S
H1348 C1353 0.950 . S
H1349 C1354 0.949 . S
H1350 C1356 0.950 . S
H1351 C1357 0.950 . S
H1352 C1358 0.949 . S
C1353 H1348 0.950 . S
C1353 C1355 1.327 . S
C1353 C1359 1.429 . S
C1354 C1346 1.574 1_655 S
C1354 H1349 0.949 . S
C1354 C1360 1.368 . S
C1355 C1339 1.349 . S
C1355 H1347 0.950 . S
C1355 C1353 1.327 . S
C1356 C1344 1.349 . S
C1356 H1350 0.950 . S
C1356 C1357 1.327 . S
C1357 H1351 0.950 . S
C1357 C1356 1.327 . S
C1357 C1361 1.429 . S
C1358 C1341 1.574 1_455 S
C1358 H1352 0.949 . S
C1358 C1362 1.368 . S
C1359 C1340 1.429 . S
C1359 C1353 1.429 . S
C1359 C1360 1.523 . S
C1360 C1341 1.368 . S
C1360 C1354 1.368 . S
C1360 C1359 1.523 . S
C1361 C1345 1.429 . S
C1361 C1357 1.429 . S
C1361 C1362 1.523 . S
C1362 C1346 1.368 . S
C1362 C1358 1.368 . S
C1362 C1361 1.523 . S
H1363 C1338 0.950 . S
H1364 C1340 0.950 . S
H1365 C1341 0.949 . S
H1366 C1343 0.950 . S
H1367 C1345 0.950 . S
C1368 C1369 1.349 . S
C1368 C1370 1.327 . S
C1368 H1393 0.950 . S
C1369 C1368 1.349 . S
C1369 C1385 1.349 . S
C1370 C1368 1.327 . S
C1370 C1389 1.429 . S
C1370 H1394 0.950 . S
C1371 C1388 1.574 1_565 S
C1371 C1390 1.368 . S
C1371 H1395 0.949 . S
H1372 C1376 0.949 . S
C1373 C1374 1.349 . S
C1373 C1375 1.327 . S
C1373 H1396 0.950 . S
C1374 C1373 1.349 . S
C1374 C1386 1.349 . S
C1375 C1373 1.327 . S
C1375 C1391 1.429 . S
C1375 H1397 0.950 . S
C1376 H1372 0.949 . S
C1376 C1384 1.574 1_545 S
C1376 C1392 1.368 . S
H1377 C1385 0.950 . S
H1378 C1383 0.950 . S
H1379 C1384 0.949 . S
H1380 C1386 0.950 . S
H1381 C1387 0.950 . S
H1382 C1388 0.949 . S
C1383 H1378 0.950 . S
C1383 C1385 1.327 . S
C1383 C1389 1.429 . S
C1384 C1376 1.574 1_565 S
C1384 H1379 0.949 . S
C1384 C1390 1.368 . S
C1385 C1369 1.349 . S
C1385 H1377 0.950 . S
C1385 C1383 1.327 . S
C1386 C1374 1.349 . S
C1386 H1380 0.950 . S
C1386 C1387 1.327 . S
C1387 H1381 0.950 . S
C1387 C1386 1.327 . S
C1387 C1391 1.429 . S
C1388 C1371 1.574 1_545 S
C1388 H1382 0.949 . S
C1388 C1392 1.368 . S
C1389 C1370 1.429 . S
C1389 C1383 1.429 . S
C1389 C1390 1.523 . S
C1390 C1371 1.368 . S
C1390 C1384 1.368 . S
C1390 C1389 1.523 . S
C1391 C1375 1.429 . S
C1391 C1387 1.429 . S
C1391 C1392 1.523 . S
C1392 C1376 1.368 . S
C1392 C1388 1.368 . S
C1392 C1391 1.523 . S
H1393 C1368 0.950 . S
H1394 C1370 0.950 . S
H1395 C1371 0.949 . S
H1396 C1373 0.950 . S
H1397 C1375 0.950 . S
C1398 C1399 1.349 . S
C1398 C1400 1.327 . S
C1398 H1423 0.950 . S
C1399 C1398 1.349 . S
C1399 C1415 1.349 . S
C1400 C1398 1.327 . S
C1400 C1419 1.429 . S
C1400 H1424 0.950 . S
C1401 C1418 1.574 . S
C1401 C1420 1.368 . S
C1401 H1425 0.949 . S
H1402 C1406 0.949 . S
C1403 C1404 1.349 . S
C1403 C1405 1.327 . S
C1403 H1426 0.950 . S
C1404 C1403 1.349 . S
C1404 C1416 1.349 . S
C1405 C1403 1.327 . S
C1405 C1421 1.429 . S
C1405 H1427 0.950 . S
C1406 H1402 0.949 . S
C1406 C1414 1.574 . S
C1406 C1422 1.368 . S
H1407 C1415 0.950 . S
H1408 C1413 0.950 . S
H1409 C1414 0.949 . S
H1410 C1416 0.950 . S
H1411 C1417 0.950 . S
H1412 C1418 0.949 . S
C1413 H1408 0.950 . S
C1413 C1415 1.327 . S
C1413 C1419 1.429 . S
C1414 C1406 1.574 . S
C1414 H1409 0.949 . S
C1414 C1420 1.368 . S
C1415 C1399 1.349 . S
C1415 H1407 0.950 . S
C1415 C1413 1.327 . S
C1416 C1404 1.349 . S
C1416 H1410 0.950 . S
C1416 C1417 1.327 . S
C1417 H1411 0.950 . S
C1417 C1416 1.327 . S
C1417 C1421 1.429 . S
C1418 C1401 1.574 . S
C1418 H1412 0.949 . S
C1418 C1422 1.368 . S
C1419 C1400 1.429 . S
C1419 C1413 1.429 . S
C1419 C1420 1.523 . S
C1420 C1401 1.368 . S
C1420 C1414 1.368 . S
C1420 C1419 1.523 . S
C1421 C1405 1.429 . S
C1421 C1417 1.429 . S
C1421 C1422 1.523 . S
C1422 C1406 1.368 . S
C1422 C1418 1.368 . S
C1422 C1421 1.523 . S
H1423 C1398 0.950 . S
H1424 C1400 0.950 . S
H1425 C1401 0.949 . S
H1426 C1403 0.950 . S
H1427 C1405 0.950 . S
C709 C475 1.710 . S
C714 C3 1.710 . S
C739 C62 1.710 . S
C744 C534 1.710 . S
C769 C121 1.710 . S
C774 C593 1.710 . S
C799 C180 1.710 . S
C804 C652 1.710 . S
C829 C357 1.710 . S
C834 C239 1.710 . S
C859 C298 1.710 . S
C864 C416 1.710 . S
C889 C229 1.212 . S
C894 C52 1.212 . S
C919 C288 1.213 . S
C924 C111 1.213 . S
C949 C347 1.213 . S
C954 C170 1.213 . S
C979 C406 1.212 . S
C984 C583 1.212 . S
C1009 C465 1.212 . S
C1014 C642 1.212 . S
C1039 C524 1.213 . S
C1044 C701 1.213 . S
C1069 C33 1.599 . S
C1074 C564 1.599 . S
C1099 C92 1.599 . S
C1104 C623 1.599 . S
C1129 C151 1.599 . S
C1134 C682 1.599 . S
C1159 C387 1.599 . S
C1164 C210 1.599 . S
C1189 C269 1.599 . S
C1194 C446 1.599 . S
C1219 C505 1.599 . S
C1224 C328 1.599 . S
C1249 C654 1.289 . S
C1254 C5 1.289 . S
C1279 C64 1.289 . S
C1284 C359 1.289 . S
C1309 C418 1.289 . S
C1314 C123 1.289 . S
C1339 C182 1.289 . S
C1344 C477 1.289 . S
C1369 C241 1.289 . S
C1374 C536 1.289 . S
C1399 C595 1.289 . S
C1404 C300 1.289 . S
