# Generated by pormake.
# Topology umw, (4)-cn, num edge types: 1
# Building blocks:
#     Node 0, Type 0, BuildingBlock: TATPOV_clean_sbu_0, # of connection points: 4
#     Node 1, Type 0, BuildingBlock: TATPOV_clean_sbu_0, # of connection points: 4
#     Node 2, Type 0, BuildingBlock: TATPOV_clean_sbu_0, # of connection points: 4
#     Node 3, Type 0, BuildingBlock: TATPOV_clean_sbu_0, # of connection points: 4
#     Node 4, Type 0, BuildingBlock: TATPOV_clean_sbu_0, # of connection points: 4
#     Node 5, Type 0, BuildingBlock: TATPOV_clean_sbu_0, # of connection points: 4
#     Node 6, Type 0, BuildingBlock: TATPOV_clean_sbu_0, # of connection points: 4
#     Node 7, Type 0, BuildingBlock: TATPOV_clean_sbu_0, # of connection points: 4
#     Edge 8, Type (0, 0), BuildingBlock: UKIBIB_clean_linker_0, # of connection points: 2
#     Edge 9, Type (0, 0), BuildingBlock: UKIBIB_clean_linker_0, # of connection points: 2
#     Edge 10, Type (0, 0), BuildingBlock: UKIBIB_clean_linker_0, # of connection points: 2
#     Edge 11, Type (0, 0), BuildingBlock: UKIBIB_clean_linker_0, # of connection points: 2
#     Edge 12, Type (0, 0), BuildingBlock: UKIBIB_clean_linker_0, # of connection points: 2
#     Edge 13, Type (0, 0), BuildingBlock: UKIBIB_clean_linker_0, # of connection points: 2
#     Edge 14, Type (0, 0), BuildingBlock: UKIBIB_clean_linker_0, # of connection points: 2
#     Edge 15, Type (0, 0), BuildingBlock: UKIBIB_clean_linker_0, # of connection points: 2
#     Edge 16, Type (0, 0), BuildingBlock: UKIBIB_clean_linker_0, # of connection points: 2
#     Edge 17, Type (0, 0), BuildingBlock: UKIBIB_clean_linker_0, # of connection points: 2
#     Edge 18, Type (0, 0), BuildingBlock: UKIBIB_clean_linker_0, # of connection points: 2
#     Edge 19, Type (0, 0), BuildingBlock: UKIBIB_clean_linker_0, # of connection points: 2
#     Edge 20, Type (0, 0), BuildingBlock: UKIBIB_clean_linker_0, # of connection points: 2
#     Edge 21, Type (0, 0), BuildingBlock: UKIBIB_clean_linker_0, # of connection points: 2
#     Edge 22, Type (0, 0), BuildingBlock: UKIBIB_clean_linker_0, # of connection points: 2
#     Edge 23, Type (0, 0), BuildingBlock: UKIBIB_clean_linker_0, # of connection points: 2
# Relax obj value: 0.145
# Max RMSD: 0.109
# Mean RMSD: 0.109
data_MOF--net-umw--node1-TATPOV_clean_sbu_0--edge1-UKIBIB_clean_linker_0
_symmetry_space_group_name_H-M    P1
_symmetry_Int_Tables_number       1
_symmetry_cell_setting            triclinic
loop_
_symmetry_equiv_pos_as_xyz
'x, y, z'
_cell_length_a     59.336497
_cell_length_b     58.914171
_cell_length_c     34.480021
_cell_angle_alpha  89.980087
_cell_angle_beta   89.74999
_cell_angle_gamma 89.305231
loop_
_atom_site_label
_atom_site_type_symbol
_atom_site_fract_x
_atom_site_fract_y
_atom_site_fract_z
_atom_type_partial_charge
Zn0 Zn 0.42062 0.12776 0.26012 0.0
Zn1 Zn 0.38487 0.15887 0.26249 0.0
O2 O 0.39925 0.16939 0.21122 0.0
O3 O 0.41846 0.13723 0.20414 0.0
O4 O 0.36259 0.18134 0.28522 0.0
O5 O 0.43819 0.14404 0.2987 0.0
O6 O 0.40414 0.15825 0.3085 0.0
C7 C 0.41079 0.15562 0.19022 0.0
C8 C 0.37762 0.11013 0.27165 0.0
O9 O 0.37043 0.12807 0.255 0.0
O10 O 0.39712 0.10934 0.28594 0.0
C11 C 0.34253 0.18389 0.27372 0.0
O12 O 0.33607 0.17275 0.24283 0.0
C13 C 0.42378 0.15386 0.32015 0.0
Zn14 Zn 0.83285 0.42892 0.50596 0.0
Zn15 Zn 0.80603 0.38859 0.5132 0.0
O16 O 0.79596 0.40127 0.46013 0.0
O17 O 0.8292 0.41679 0.45194 0.0
O18 O 0.78616 0.36505 0.53904 0.0
O19 O 0.83759 0.41685 0.56105 0.0
O20 O 0.80166 0.41202 0.5537 0.0
C21 C 0.81051 0.41082 0.43828 0.0
C22 C 0.85657 0.3851 0.5166 0.0
O23 O 0.83824 0.37479 0.5097 0.0
O24 O 0.85676 0.40641 0.52272 0.0
C25 C 0.78251 0.34566 0.52486 0.0
O26 O 0.79043 0.34084 0.49024 0.0
C27 C 0.81806 0.41618 0.57553 0.0
Zn28 Zn 0.54522 0.84137 0.76176 0.0
Zn29 Zn 0.57868 0.81003 0.7627 0.0
O30 O 0.56279 0.79981 0.71168 0.0
O31 O 0.54837 0.83424 0.70441 0.0
O32 O 0.60109 0.78779 0.78518 0.0
O33 O 0.52597 0.8232 0.79551 0.0
O34 O 0.55988 0.81054 0.81018 0.0
C35 C 0.55304 0.81482 0.69046 0.0
C36 C 0.58662 0.85798 0.77461 0.0
O37 O 0.59326 0.84113 0.75434 0.0
O38 O 0.5689 0.85612 0.79437 0.0
C39 C 0.62115 0.78535 0.7734 0.0
O40 O 0.62737 0.79593 0.7417 0.0
C41 C 0.53964 0.8145 0.81947 0.0
Zn42 Zn 0.12463 0.53307 0.00183 0.0
Zn43 Zn 0.1564 0.5834 0.01286 0.0
O44 O 0.16553 0.57071 0.9595 0.0
O45 O 0.13175 0.55592 0.95755 0.0
O46 O 0.17911 0.60373 0.03827 0.0
O47 O 0.12659 0.54036 0.05974 0.0
O48 O 0.15867 0.55714 0.04901 0.0
C49 C 0.15116 0.55822 0.94256 0.0
C50 C 0.10901 0.58609 0.0115 0.0
O51 O 0.12527 0.5998 0.01353 0.0
O52 O 0.11331 0.5652 0.00776 0.0
C53 C 0.18138 0.6239 0.02644 0.0
O54 O 0.16994 0.63049 -0.00413 0.0
C55 C 0.14386 0.55029 0.07252 0.0
Zn56 Zn 0.43377 0.84115 0.26407 0.0
Zn57 Zn 0.3846 0.80769 0.2498 0.0
O58 O 0.39379 0.79778 0.30624 0.0
O59 O 0.40789 0.83071 0.29756 0.0
O60 O 0.363 0.78663 0.22245 0.0
O61 O 0.4325 0.83608 0.20618 0.0
O62 O 0.41236 0.80565 0.21597 0.0
C63 C 0.40704 0.81305 0.31821 0.0
C64 C 0.38213 0.85816 0.25079 0.0
O65 O 0.37093 0.83993 0.2473 0.0
O66 O 0.40327 0.8579 0.25704 0.0
C67 C 0.34286 0.7855 0.23457 0.0
O68 O 0.33713 0.79643 0.2663 0.0
C69 C 0.41971 0.82079 0.19311 0.0
Zn70 Zn 0.12755 0.42694 0.50697 0.0
Zn71 Zn 0.15772 0.38898 0.49978 0.0
O72 O 0.16858 0.40145 0.55254 0.0
O73 O 0.13304 0.41085 0.55805 0.0
O74 O 0.17776 0.36556 0.47402 0.0
O75 O 0.1258 0.41727 0.44994 0.0
O76 O 0.16174 0.41266 0.45956 0.0
C77 C 0.15251 0.41001 0.57262 0.0
C78 C 0.10697 0.38451 0.49107 0.0
O79 O 0.12531 0.37574 0.50375 0.0
O80 O 0.10625 0.40514 0.48004 0.0
C81 C 0.18003 0.34564 0.487 0.0
O82 O 0.17077 0.34043 0.52034 0.0
C83 C 0.14567 0.41674 0.43675 0.0
Zn84 Zn 0.54117 0.12354 0.76141 0.0
Zn85 Zn 0.58047 0.16038 0.75049 0.0
O86 O 0.5648 0.17146 0.80136 0.0
O87 O 0.5571 0.13547 0.80909 0.0
O88 O 0.60191 0.18203 0.7256 0.0
O89 O 0.52944 0.13955 0.71383 0.0
O90 O 0.55956 0.16087 0.70557 0.0
C91 C 0.55581 0.15564 0.82123 0.0
C92 C 0.58425 0.11258 0.73954 0.0
O93 O 0.59495 0.12827 0.75665 0.0
O94 O 0.56603 0.11765 0.72303 0.0
C95 C 0.62171 0.18469 0.73769 0.0
O96 O 0.62777 0.17453 0.76993 0.0
C97 C 0.54103 0.15319 0.69373 0.0
Zn98 Zn 0.84155 0.54227 0.00827 0.0
Zn99 Zn 0.80628 0.58069 -0.00076 0.0
O100 O 0.79589 0.56936 0.05225 0.0
O101 O 0.83103 0.5575 0.05883 0.0
O102 O 0.78687 0.60404 0.97136 0.0
O103 O 0.83697 0.54876 0.94988 0.0
O104 O 0.80152 0.55497 0.96378 0.0
C105 C 0.81123 0.55964 0.07234 0.0
C106 C 0.85622 0.58529 -0.01373 0.0
O107 O 0.83854 0.59337 0.00247 0.0
O108 O 0.85583 0.56548 0.9717 0.0
C109 C 0.78288 0.62333 -0.01396 0.0
O110 O 0.79029 0.62763 0.021 0.0
C111 C 0.81668 0.55077 0.93916 0.0
C112 C 0.42975 0.17562 0.37952 0.0
C113 C 0.42761 0.15474 0.36099 0.0
C114 C 0.43979 0.17618 0.41576 0.0
C115 C 0.53475 0.13503 0.63096 0.0
C116 C 0.53624 0.15502 0.65284 0.0
C117 C 0.5247 0.13574 0.59477 0.0
H118 H 0.42851 0.11811 0.36684 0.0
H119 H 0.44641 0.11906 0.43068 0.0
H120 H 0.53328 0.19162 0.65258 0.0
H121 H 0.51503 0.19291 0.58867 0.0
C122 C 0.43146 0.13432 0.3807 0.0
C123 C 0.44139 0.13485 0.41688 0.0
C124 C 0.53118 0.17608 0.63628 0.0
C125 C 0.52097 0.17679 0.60009 0.0
C126 C 0.44671 0.1558 0.43312 0.0
C127 C 0.46167 0.15632 0.46473 0.0
C128 C 0.47429 0.15631 0.49136 0.0
C129 C 0.51672 0.15649 0.58056 0.0
C130 C 0.50188 0.15657 0.54865 0.0
C131 C 0.48941 0.15639 0.52177 0.0
H132 H 0.4257 0.19135 0.36464 0.0
H133 H 0.44366 0.1924 0.42876 0.0
H134 H 0.53987 0.11877 0.643 0.0
H135 H 0.52177 0.12004 0.57928 0.0
C136 C 0.81967 0.45158 0.61159 0.0
C137 C 0.81382 0.42869 0.61062 0.0
C138 C 0.81747 0.46364 0.64582 0.0
C139 C 0.79888 0.52179 0.90015 0.0
C140 C 0.81057 0.54218 0.90173 0.0
C141 C 0.79838 0.50976 0.86569 0.0
H142 H 0.79929 0.40052 0.64198 0.0
H143 H 0.79567 0.42194 0.70325 0.0
H144 H 0.82831 0.56799 0.86935 0.0
H145 H 0.8265 0.54708 0.8076 0.0
C146 C 0.80428 0.41815 0.64304 0.0
C147 C 0.80221 0.43024 0.67758 0.0
C148 C 0.81956 0.55195 0.86814 0.0
C149 C 0.81863 0.5401 0.83333 0.0
C150 C 0.80941 0.45276 0.67896 0.0
C151 C 0.80971 0.4647 0.71452 0.0
C152 C 0.81084 0.47658 0.74234 0.0
C153 C 0.80893 0.51859 0.83279 0.0
C154 C 0.81087 0.50473 0.79944 0.0
C155 C 0.81158 0.49177 0.773 0.0
H156 H 0.82637 0.45994 0.58607 0.0
H157 H 0.8227 0.4812 0.64671 0.0
H158 H 0.79188 0.51427 0.92618 0.0
H159 H 0.79081 0.49311 0.86524 0.0
C160 C 0.43461 0.79546 0.14285 0.0
C161 C 0.42268 0.81531 0.15244 0.0
C162 C 0.44659 0.79447 0.10819 0.0
C163 C 0.5239 0.83496 0.87488 0.0
C164 C 0.53421 0.81529 0.86014 0.0
C165 C 0.51433 0.83454 0.9115 0.0
H166 H 0.41008 0.84782 0.13187 0.0
H167 H 0.43055 0.84561 0.06989 0.0
H168 H 0.54789 0.78196 0.87354 0.0
H169 H 0.53048 0.78098 0.93853 0.0
C170 C 0.41967 0.83257 0.12484 0.0
C171 C 0.43142 0.83142 0.08988 0.0
C172 C 0.53863 0.79666 0.8842 0.0
C173 C 0.52893 0.79619 0.92101 0.0
C174 C 0.44574 0.81288 0.08266 0.0
C175 C 0.46087 0.81339 0.0507 0.0
C176 C 0.47387 0.81313 0.02423 0.0
C177 C 0.51576 0.81469 0.93347 0.0
C178 C 0.50165 0.81267 0.96646 0.0
C179 C 0.48917 0.81261 -0.00638 0.0
H180 H 0.4369 0.78199 0.16392 0.0
H181 H 0.45765 0.78005 0.10259 0.0
H182 H 0.52205 0.8501 0.8572 0.0
H183 H 0.50463 0.84912 0.92151 0.0
C184 C 0.14513 0.45226 0.40109 0.0
C185 C 0.15013 0.42904 0.40164 0.0
C186 C 0.1469 0.46422 0.36673 0.0
C187 C 0.16309 0.52159 0.11066 0.0
C188 C 0.15164 0.54244 0.1097 0.0
C189 C 0.16416 0.50951 0.14503 0.0
H190 H 0.1625 0.39996 0.36913 0.0
H191 H 0.1656 0.4213 0.30773 0.0
H192 H 0.13521 0.56902 0.14324 0.0
H193 H 0.13818 0.548 0.2049 0.0
C194 C 0.15832 0.41792 0.36851 0.0
C195 C 0.16004 0.42996 0.33386 0.0
C196 C 0.14382 0.5527 0.1439 0.0
C197 C 0.14535 0.54074 0.17867 0.0
C198 C 0.15372 0.45293 0.333 0.0
C199 C 0.15323 0.46503 0.29751 0.0
C200 C 0.15215 0.47687 0.26955 0.0
C201 C 0.15448 0.51872 0.17857 0.0
C202 C 0.15261 0.50475 0.21186 0.0
C203 C 0.15174 0.49189 0.2385 0.0
H204 H 0.13928 0.46094 0.42704 0.0
H205 H 0.14229 0.48208 0.36625 0.0
H206 H 0.16925 0.51374 0.08415 0.0
H207 H 0.17131 0.49249 0.14488 0.0
C208 C 0.33404 0.21312 0.32536 0.0
C209 C 0.32657 0.19888 0.2953 0.0
C210 C 0.31883 0.22759 0.34479 0.0
C211 C 0.1868 0.3152 0.43768 0.0
C212 C 0.19504 0.32943 0.46692 0.0
C213 C 0.20144 0.30018 0.41816 0.0
H214 H 0.2972 0.18797 0.26352 0.0
H215 H 0.27072 0.21322 0.29764 0.0
H216 H 0.22461 0.33972 0.49835 0.0
H217 H 0.25033 0.3134 0.46414 0.0
C218 C 0.30354 0.19898 0.28601 0.0
C219 C 0.28836 0.21336 0.30557 0.0
C220 C 0.218 0.32865 0.47616 0.0
C221 C 0.23263 0.31371 0.45661 0.0
C222 C 0.29594 0.22789 0.33481 0.0
C223 C 0.28034 0.24319 0.35434 0.0
C224 C 0.26751 0.25608 0.37094 0.0
C225 C 0.22444 0.29939 0.42751 0.0
C226 C 0.23965 0.284 0.40727 0.0
C227 C 0.2525 0.2712 0.39053 0.0
H228 H 0.35164 0.21332 0.33357 0.0
H229 H 0.32496 0.23864 0.36744 0.0
H230 H 0.16913 0.31575 0.42989 0.0
H231 H 0.19485 0.28928 0.39571 0.0
C232 C 0.74898 0.32067 0.52675 0.0
C233 C 0.76786 0.32948 0.54555 0.0
C234 C 0.73444 0.30589 0.54619 0.0
C235 C 0.65736 0.20659 0.73401 0.0
C236 C 0.6376 0.19925 0.716 0.0
C237 C 0.67221 0.221 0.71463 0.0
H238 H 0.78685 0.32939 0.59912 0.0
H239 H 0.7617 0.30276 0.63285 0.0
H240 H 0.61831 0.20049 0.66254 0.0
H241 H 0.64461 0.22564 0.6285 0.0
C242 C 0.77226 0.32295 0.58407 0.0
C243 C 0.75794 0.30776 0.60331 0.0
C244 C 0.63326 0.20613 0.67752 0.0
C245 C 0.64828 0.22045 0.65799 0.0
C246 C 0.7388 0.29931 0.58459 0.0
C247 C 0.72355 0.28411 0.60471 0.0
C248 C 0.71069 0.2714 0.62119 0.0
C249 C 0.66773 0.22816 0.67662 0.0
C250 C 0.68299 0.24355 0.65702 0.0
C251 C 0.69569 0.25639 0.64055 0.0
H252 H 0.74519 0.32566 0.49722 0.0
H253 H 0.71974 0.29969 0.53122 0.0
H254 H 0.66118 0.20152 0.76348 0.0
H255 H 0.68714 0.22668 0.72954 0.0
C256 C 0.77281 0.64677 0.92761 0.0
C257 C 0.76816 0.63981 0.96582 0.0
C258 C 0.75831 0.66216 0.90874 0.0
C259 C 0.63265 0.76372 0.83348 0.0
C260 C 0.63724 0.77075 0.79516 0.0
C261 C 0.64778 0.74934 0.85311 0.0
H262 H 0.74501 0.64312 0.01408 0.0
H263 H 0.71926 0.66947 -0.01936 0.0
H264 H 0.66152 0.76884 0.7482 0.0
H265 H 0.68772 0.74353 0.78238 0.0
C266 C 0.74895 0.64844 -0.01523 0.0
C267 C 0.73425 0.66342 0.96567 0.0
C268 C 0.65746 0.7636 0.77749 0.0
C269 C 0.67244 0.74912 0.797 0.0
C270 C 0.73881 0.67035 0.92755 0.0
C271 C 0.72338 0.6856 0.90766 0.0
C272 C 0.71058 0.69835 0.89083 0.0
C273 C 0.66763 0.74176 0.83476 0.0
C274 C 0.68295 0.72631 0.85442 0.0
C275 C 0.69566 0.71339 0.87107 0.0
H276 H 0.78767 0.64047 0.91254 0.0
H277 H 0.76219 0.66748 0.8794 0.0
H278 H 0.61739 0.76925 0.84824 0.0
H279 H 0.6439 0.74398 0.88244 0.0
C280 C 0.21236 0.63202 0.07408 0.0
C281 C 0.19634 0.63987 0.04704 0.0
C282 C 0.22668 0.6473 0.09278 0.0
C283 C 0.31026 0.77969 0.18988 0.0
C284 C 0.32658 0.77065 0.21515 0.0
C285 C 0.29511 0.76531 0.171 0.0
H286 H 0.18228 0.66992 0.01962 0.0
H287 H 0.20717 0.69654 0.05262 0.0
H288 H 0.33973 0.73996 0.24129 0.0
H289 H 0.31307 0.71474 0.20856 0.0
C290 C 0.19466 0.66332 0.03983 0.0
C291 C 0.20885 0.67857 0.05877 0.0
C292 C 0.32733 0.74718 0.22172 0.0
C293 C 0.31211 0.73283 0.20307 0.0
C294 C 0.22507 0.67067 0.0852 0.0
C295 C 0.24007 0.68642 0.10449 0.0
C296 C 0.25279 0.69922 0.12096 0.0
C297 C 0.29598 0.74175 0.17734 0.0
C298 C 0.28059 0.72673 0.15722 0.0
C299 C 0.26781 0.71408 0.14056 0.0
H300 H 0.21405 0.61407 0.08044 0.0
H301 H 0.23906 0.64082 0.1131 0.0
H302 H 0.30942 0.7978 0.1844 0.0
H303 H 0.28281 0.77256 0.15129 0.0
C304 C 0.38235 0.89455 0.21751 0.0
C305 C 0.37207 0.88064 0.24535 0.0
C306 C 0.38113 0.91805 0.22086 0.0
C307 C 0.35629 0.07599 0.28793 0.0
C308 C 0.36904 0.08817 0.26106 0.0
C309 C 0.35596 0.05234 0.28594 0.0
H310 H 0.35131 0.88009 0.29711 0.0
H311 H 0.34805 0.92179 0.30175 0.0
H312 H 0.39138 0.08596 0.21126 0.0
H313 H 0.39072 0.0445 0.20774 0.0
C314 C 0.35886 0.89054 0.2748 0.0
C315 C 0.35741 0.91423 0.27789 0.0
C316 C 0.38061 0.07674 0.23114 0.0
C317 C 0.38063 0.05315 0.2296 0.0
C318 C 0.36917 0.92794 0.25159 0.0
C319 C 0.36952 0.95213 0.25614 0.0
C320 C 0.37054 0.97245 0.25815 0.0
C321 C 0.36869 0.04092 0.25751 0.0
C322 C 0.36998 0.01665 0.2577 0.0
C323 C 0.37084 -0.00372 0.25838 0.0
H324 H 0.39305 0.88718 0.19513 0.0
H325 H 0.39035 0.92845 0.20041 0.0
H326 H 0.34806 0.0846 0.31199 0.0
H327 H 0.34671 0.04295 0.30768 0.0
C328 C 0.89226 0.37817 0.54906 0.0
C329 C 0.87846 0.37364 0.51717 0.0
C330 C 0.91561 0.3776 0.54511 0.0
C331 C 0.07262 0.36626 0.46673 0.0
C332 C 0.08524 0.37395 0.49822 0.0
C333 C 0.04914 0.36527 0.46953 0.0
H334 H 0.87791 0.36361 0.45675 0.0
H335 H 0.91926 0.36131 0.4504 0.0
H336 H 0.08377 0.38582 0.55761 0.0
H337 H 0.04259 0.38395 0.56259 0.0
C338 C 0.88828 0.36647 0.48205 0.0
C339 C 0.9118 0.3657 0.47818 0.0
C340 C 0.07432 0.37916 0.53339 0.0
C341 C 0.05083 0.37848 0.53602 0.0
C342 C 0.92546 0.37197 0.50945 0.0
C343 C 0.94958 0.37301 0.50539 0.0
C344 C 0.96983 0.37428 0.50434 0.0
C345 C 0.03815 0.37217 0.5037 0.0
C346 C 0.01392 0.37357 0.50488 0.0
C347 C -0.00639 0.37451 0.50469 0.0
H348 H 0.88495 0.38433 0.57599 0.0
H349 H 0.92591 0.38258 0.56946 0.0
H350 H 0.08074 0.36274 0.43913 0.0
H351 H 0.03951 0.36029 0.44437 0.0
C352 C 0.61118 0.89185 0.77142 0.0
C353 C 0.59116 0.88102 0.76177 0.0
C354 C 0.61243 0.91547 0.7683 0.0
C355 C 0.57005 0.07344 0.7403 0.0
C356 C 0.58811 0.08826 0.74709 0.0
C357 C 0.57281 0.05021 0.74408 0.0
H358 H 0.55726 0.88549 0.73927 0.0
H359 H 0.55949 0.92676 0.7342 0.0
H360 H 0.62299 0.09029 0.76489 0.0
H361 H 0.62784 0.04869 0.77175 0.0
C362 C 0.57295 0.89369 0.74666 0.0
C363 C 0.57411 0.91717 0.74399 0.0
C364 C 0.60891 0.07926 0.75927 0.0
C365 C 0.61166 0.05565 0.76308 0.0
C366 C 0.59365 0.92815 0.75575 0.0
C367 C 0.59405 0.95245 0.75655 0.0
C368 C 0.59463 0.97281 0.75738 0.0
C369 C 0.5936 0.04119 0.75509 0.0
C370 C 0.59593 0.017 0.75728 0.0
C371 C 0.59564 -0.00338 0.75796 0.0
H372 H 0.6252 0.8823 0.78349 0.0
H373 H 0.62766 0.92392 0.77723 0.0
H374 H 0.55358 0.07968 0.73156 0.0
H375 H 0.55869 0.03927 0.73797 0.0
C376 C 0.88902 0.61136 -0.01847 0.0
C377 C 0.87835 0.59288 -0.00101 0.0
C378 C 0.91244 0.61357 -0.01514 0.0
C379 C 0.07081 0.57719 0.03403 0.0
C380 C 0.08508 0.59262 0.01518 0.0
C381 C 0.04752 0.57924 0.031 0.0
H382 H 0.88265 0.56385 0.0369 0.0
H383 H 0.9235 0.56754 0.04218 0.0
H384 H 0.08623 0.62298 -0.02013 0.0
H385 H 0.04476 0.62699 0.97538 0.0
C386 C 0.89077 0.57809 0.02291 0.0
C387 C 0.91405 0.58011 0.02578 0.0
C388 C 0.07557 0.61105 -0.00501 0.0
C389 C 0.052 0.61314 -0.00797 0.0
C390 C 0.92508 0.59732 0.00554 0.0
C391 C 0.94936 0.59741 0.00431 0.0
C392 C 0.9697 0.59722 0.00361 0.0
C393 C 0.03798 0.59692 0.00941 0.0
C394 C 0.01381 0.59798 0.00542 0.0
C395 C -0.00649 0.59752 0.00366 0.0
H396 H 0.87963 0.62299 0.96319 0.0
H397 H 0.9208 0.62718 0.96959 0.0
H398 H 0.07774 0.56284 0.04988 0.0
H399 H 0.03699 0.56665 0.04478 0.0
C400 C 0.52295 0.14492 0.86137 0.0
C401 C 0.54154 0.15932 0.85616 0.0
C402 C 0.5101 0.1455 0.8954 0.0
C403 C 0.4372 0.17669 0.14846 0.0
C404 C 0.41923 0.16155 0.15146 0.0
C405 C 0.45122 0.17652 0.11552 0.0
H406 H 0.56132 0.18551 0.88303 0.0
H407 H 0.53848 0.18668 0.94331 0.0
H408 H 0.4017 0.13437 0.12269 0.0
H409 H 0.42548 0.13487 0.06415 0.0
C410 C 0.54687 0.17457 0.88591 0.0
C411 C 0.53394 0.17504 0.92042 0.0
C412 C 0.41496 0.14682 0.12036 0.0
C413 C 0.4288 0.14681 0.08724 0.0
C414 C 0.51543 0.16047 0.92542 0.0
C415 C 0.50165 0.16085 0.96078 0.0
C416 C 0.48966 0.16052 -0.01034 0.0
C417 C 0.44733 0.16139 0.08477 0.0
C418 C 0.46237 0.16075 0.05101 0.0
C419 C 0.47505 0.1604 0.02302 0.0
H420 H 0.51839 0.13291 0.839 0.0
H421 H 0.496 0.13409 0.89827 0.0
H422 H 0.44145 0.18741 0.17284 0.0
H423 H 0.46555 0.18772 0.11467 0.0
C424 C 0.81324 0.52279 0.10646 0.0
C425 C 0.80623 0.54571 0.10695 0.0
C426 C 0.81291 0.50961 0.14025 0.0
C427 C 0.79715 0.44501 0.4039 0.0
C428 C 0.80442 0.42224 0.40183 0.0
C429 C 0.79769 0.45904 0.37101 0.0
H430 H 0.7935 0.57287 0.14326 0.0
H431 H 0.79259 0.54957 0.20296 0.0
H432 H 0.81948 0.39676 0.36452 0.0
H433 H 0.81929 0.42094 0.30614 0.0
C434 C 0.79844 0.55512 0.14194 0.0
C435 C 0.79819 0.54185 0.17606 0.0
C436 C 0.81251 0.41383 0.36627 0.0
C437 C 0.81283 0.42781 0.33316 0.0
C438 C 0.8056 0.51899 0.17557 0.0
C439 C 0.80584 0.50504 0.21086 0.0
C440 C 0.80634 0.49278 0.2395 0.0
C441 C 0.80555 0.45063 0.33524 0.0
C442 C 0.80616 0.46541 0.30099 0.0
C443 C 0.80653 0.47801 0.2728 0.0
H444 H 0.81964 0.5152 0.07989 0.0
H445 H 0.81874 0.49213 0.13882 0.0
H446 H 0.79224 0.45232 0.4316 0.0
H447 H 0.79243 0.47664 0.3738 0.0
C448 C 0.54349 0.828 0.62394 0.0
C449 C 0.54395 0.81015 0.65112 0.0
C450 C 0.52961 0.82718 0.59109 0.0
C451 C 0.42023 0.79223 0.37941 0.0
C452 C 0.42076 0.81132 0.35476 0.0
C453 C 0.4333 0.79143 0.41371 0.0
H454 H 0.53055 0.77705 0.6643 0.0
H455 H 0.50658 0.7753 0.60605 0.0
H456 H 0.43537 0.84468 0.34792 0.0
H457 H 0.45787 0.84315 0.40702 0.0
C458 C 0.53101 0.79083 0.6435 0.0
C459 C 0.51701 0.79002 0.61044 0.0
C460 C 0.43454 0.82957 0.36576 0.0
C461 C 0.4475 0.82876 0.39986 0.0
C462 C 0.51584 0.80839 0.58417 0.0
C463 C 0.50053 0.80825 0.55048 0.0
C464 C 0.48795 0.80857 0.52224 0.0
C465 C 0.44721 0.80967 0.42428 0.0
C466 C 0.46141 0.80889 0.45948 0.0
C467 C 0.47341 0.8088 0.4885 0.0
H468 H 0.55308 0.84323 0.6292 0.0
H469 H 0.52919 0.84162 0.57165 0.0
H470 H 0.40975 0.77791 0.37223 0.0
H471 H 0.43257 0.77647 0.43191 0.0
C472 C 0.17109 0.52858 0.90224 0.0
C473 C 0.15582 0.54697 0.90481 0.0
C474 C 0.17187 0.51478 0.86878 0.0
C475 C 0.14219 0.44378 0.61215 0.0
C476 C 0.15592 0.42422 0.60771 0.0
C477 C 0.14291 0.45698 0.64581 0.0
H478 H 0.12968 0.56548 0.87444 0.0
H479 H 0.13162 0.54202 0.81553 0.0
H480 H 0.18161 0.40354 0.63515 0.0
H481 H 0.18294 0.4269 0.69481 0.0
C482 C 0.14186 0.55164 0.87292 0.0
C483 C 0.14284 0.53808 0.83936 0.0
C484 C 0.17093 0.41851 0.63763 0.0
C485 C 0.17155 0.43182 0.67177 0.0
C486 C 0.15754 0.5192 0.83709 0.0
C487 C 0.1575 0.50424 0.80282 0.0
C488 C 0.15734 0.49189 0.77418 0.0
C489 C 0.15743 0.45115 0.67625 0.0
C490 C 0.15772 0.4652 0.71155 0.0
C491 C 0.15742 0.47735 0.74041 0.0
H492 H 0.18161 0.52418 0.92681 0.0
H493 H 0.18331 0.50032 0.86808 0.0
H494 H 0.13061 0.4489 0.58944 0.0
H495 H 0.13192 0.47175 0.64805 0.0
loop_
_geom_bond_atom_site_label_1
_geom_bond_atom_site_label_2
_geom_bond_distance
_geom_bond_site_symmetry_2
_ccdc_geom_bond_type
Zn0 O3 2.031 . S
Zn0 O5 2.049 . S
Zn0 O10 2.067 . S
Zn1 O2 1.962 . S
Zn1 O4 1.986 . S
Zn1 O6 1.996 . S
Zn1 O9 1.943 . S
O2 Zn1 1.962 . S
O2 C7 1.254 . S
O3 Zn0 2.031 . S
O3 C7 1.269 . S
O4 Zn1 1.986 . S
O4 C11 1.262 . S
O5 Zn0 2.049 . S
O5 C13 1.260 . S
O6 Zn1 1.996 . S
O6 C13 1.257 . S
C7 O2 1.254 . S
C7 O3 1.269 . S
C8 O9 1.249 . S
C8 O10 1.270 . S
O9 Zn1 1.943 . S
O9 C8 1.249 . S
O10 Zn0 2.067 . S
O10 C8 1.270 . S
C11 O4 1.262 . S
C11 O12 1.232 . S
O12 C11 1.232 . S
C13 O5 1.260 . S
C13 O6 1.257 . S
Zn14 O17 2.031 . S
Zn14 O19 2.049 . S
Zn14 O24 2.067 . S
Zn15 O16 1.962 . S
Zn15 O18 1.986 . S
Zn15 O20 1.996 . S
Zn15 O23 1.943 . S
O16 Zn15 1.962 . S
O16 C21 1.254 . S
O17 Zn14 2.031 . S
O17 C21 1.269 . S
O18 Zn15 1.986 . S
O18 C25 1.262 . S
O19 Zn14 2.049 . S
O19 C27 1.260 . S
O20 Zn15 1.996 . S
O20 C27 1.257 . S
C21 O16 1.254 . S
C21 O17 1.269 . S
C22 O23 1.249 . S
C22 O24 1.270 . S
O23 Zn15 1.943 . S
O23 C22 1.249 . S
O24 Zn14 2.067 . S
O24 C22 1.270 . S
C25 O18 1.262 . S
C25 O26 1.232 . S
O26 C25 1.232 . S
C27 O19 1.260 . S
C27 O20 1.257 . S
Zn28 O31 2.031 . S
Zn28 O33 2.049 . S
Zn28 O38 2.067 . S
Zn29 O30 1.962 . S
Zn29 O32 1.986 . S
Zn29 O34 1.996 . S
Zn29 O37 1.943 . S
O30 Zn29 1.962 . S
O30 C35 1.254 . S
O31 Zn28 2.031 . S
O31 C35 1.269 . S
O32 Zn29 1.986 . S
O32 C39 1.262 . S
O33 Zn28 2.049 . S
O33 C41 1.260 . S
O34 Zn29 1.996 . S
O34 C41 1.257 . S
C35 O30 1.254 . S
C35 O31 1.269 . S
C36 O37 1.249 . S
C36 O38 1.270 . S
O37 Zn29 1.943 . S
O37 C36 1.249 . S
O38 Zn28 2.067 . S
O38 C36 1.270 . S
C39 O32 1.262 . S
C39 O40 1.232 . S
O40 C39 1.232 . S
C41 O33 1.260 . S
C41 O34 1.257 . S
Zn42 O45 2.031 1_554 S
Zn42 O47 2.049 . S
Zn42 O52 2.067 . S
Zn43 O44 1.962 1_554 S
Zn43 O46 1.986 . S
Zn43 O48 1.996 . S
Zn43 O51 1.943 . S
O44 Zn43 1.962 1_556 S
O44 C49 1.254 . S
O45 Zn42 2.031 1_556 S
O45 C49 1.269 . S
O46 Zn43 1.986 . S
O46 C53 1.262 . S
O47 Zn42 2.049 . S
O47 C55 1.260 . S
O48 Zn43 1.996 . S
O48 C55 1.257 . S
C49 O44 1.254 . S
C49 O45 1.269 . S
C50 O51 1.249 . S
C50 O52 1.270 . S
O51 Zn43 1.943 . S
O51 C50 1.249 . S
O52 Zn42 2.067 . S
O52 C50 1.270 . S
C53 O46 1.262 . S
C53 O54 1.232 . S
O54 C53 1.232 . S
C55 O47 1.260 . S
C55 O48 1.257 . S
Zn56 O59 2.031 . S
Zn56 O61 2.049 . S
Zn56 O66 2.067 . S
Zn57 O58 1.962 . S
Zn57 O60 1.986 . S
Zn57 O62 1.996 . S
Zn57 O65 1.943 . S
O58 Zn57 1.962 . S
O58 C63 1.254 . S
O59 Zn56 2.031 . S
O59 C63 1.269 . S
O60 Zn57 1.986 . S
O60 C67 1.262 . S
O61 Zn56 2.049 . S
O61 C69 1.260 . S
O62 Zn57 1.996 . S
O62 C69 1.257 . S
C63 O58 1.254 . S
C63 O59 1.269 . S
C64 O65 1.249 . S
C64 O66 1.270 . S
O65 Zn57 1.943 . S
O65 C64 1.249 . S
O66 Zn56 2.067 . S
O66 C64 1.270 . S
C67 O60 1.262 . S
C67 O68 1.232 . S
O68 C67 1.232 . S
C69 O61 1.260 . S
C69 O62 1.257 . S
Zn70 O73 2.031 . S
Zn70 O75 2.049 . S
Zn70 O80 2.067 . S
Zn71 O72 1.962 . S
Zn71 O74 1.986 . S
Zn71 O76 1.996 . S
Zn71 O79 1.943 . S
O72 Zn71 1.962 . S
O72 C77 1.254 . S
O73 Zn70 2.031 . S
O73 C77 1.269 . S
O74 Zn71 1.986 . S
O74 C81 1.262 . S
O75 Zn70 2.049 . S
O75 C83 1.260 . S
O76 Zn71 1.996 . S
O76 C83 1.257 . S
C77 O72 1.254 . S
C77 O73 1.269 . S
C78 O79 1.249 . S
C78 O80 1.270 . S
O79 Zn71 1.943 . S
O79 C78 1.249 . S
O80 Zn70 2.067 . S
O80 C78 1.270 . S
C81 O74 1.262 . S
C81 O82 1.232 . S
O82 C81 1.232 . S
C83 O75 1.260 . S
C83 O76 1.257 . S
Zn84 O87 2.031 . S
Zn84 O89 2.049 . S
Zn84 O94 2.067 . S
Zn85 O86 1.962 . S
Zn85 O88 1.986 . S
Zn85 O90 1.996 . S
Zn85 O93 1.943 . S
O86 Zn85 1.962 . S
O86 C91 1.254 . S
O87 Zn84 2.031 . S
O87 C91 1.269 . S
O88 Zn85 1.986 . S
O88 C95 1.262 . S
O89 Zn84 2.049 . S
O89 C97 1.260 . S
O90 Zn85 1.996 . S
O90 C97 1.257 . S
C91 O86 1.254 . S
C91 O87 1.269 . S
C92 O93 1.249 . S
C92 O94 1.270 . S
O93 Zn85 1.943 . S
O93 C92 1.249 . S
O94 Zn84 2.067 . S
O94 C92 1.270 . S
C95 O88 1.262 . S
C95 O96 1.232 . S
O96 C95 1.232 . S
C97 O89 1.260 . S
C97 O90 1.257 . S
Zn98 O101 2.031 . S
Zn98 O103 2.049 1_554 S
Zn98 O108 2.067 . S
Zn99 O100 1.962 . S
Zn99 O102 1.986 1_554 S
Zn99 O104 1.996 1_554 S
Zn99 O107 1.943 . S
O100 Zn99 1.962 . S
O100 C105 1.254 . S
O101 Zn98 2.031 . S
O101 C105 1.269 . S
O102 Zn99 1.986 1_556 S
O102 C109 1.262 1_556 S
O103 Zn98 2.049 1_556 S
O103 C111 1.260 . S
O104 Zn99 1.996 1_556 S
O104 C111 1.257 . S
C105 O100 1.254 . S
C105 O101 1.269 . S
C106 O107 1.249 . S
C106 O108 1.270 . S
O107 Zn99 1.943 . S
O107 C106 1.249 . S
O108 Zn98 2.067 . S
O108 C106 1.270 . S
C109 O102 1.262 1_554 S
C109 O110 1.232 . S
O110 C109 1.232 . S
C111 O103 1.260 . S
C111 O104 1.257 . S
C112 C113 1.332 . S
C112 C114 1.345 . S
C112 H132 0.932 . S
C113 C112 1.332 . S
C113 C122 1.332 . S
C114 C112 1.345 . S
C114 C126 1.334 . S
C114 H133 0.928 . S
C115 C116 1.332 . S
C115 C117 1.345 . S
C115 H134 0.932 . S
C116 C115 1.332 . S
C116 C124 1.332 . S
C117 C115 1.345 . S
C117 C129 1.334 . S
C117 H135 0.928 . S
H118 C122 0.932 . S
H119 C123 0.928 . S
H120 C124 0.932 . S
H121 C125 0.928 . S
C122 C113 1.332 . S
C122 H118 0.932 . S
C122 C123 1.345 . S
C123 H119 0.928 . S
C123 C122 1.345 . S
C123 C126 1.334 . S
C124 C116 1.332 . S
C124 H120 0.932 . S
C124 C125 1.345 . S
C125 H121 0.928 . S
C125 C124 1.345 . S
C125 C129 1.334 . S
C126 C114 1.334 . S
C126 C123 1.334 . S
C126 C127 1.487 . S
C127 C126 1.487 . S
C127 C128 1.185 . S
C128 C127 1.185 . S
C128 C131 1.482 . S
C129 C117 1.334 . S
C129 C125 1.334 . S
C129 C130 1.487 . S
C130 C129 1.487 . S
C130 C131 1.185 . S
C131 C128 1.482 . S
C131 C130 1.185 . S
H132 C112 0.932 . S
H133 C114 0.928 . S
H134 C115 0.932 . S
H135 C117 0.928 . S
C136 C137 1.332 . S
C136 C138 1.345 . S
C136 H156 0.932 . S
C137 C136 1.332 . S
C137 C146 1.332 . S
C138 C136 1.345 . S
C138 C150 1.334 . S
C138 H157 0.928 . S
C139 C140 1.332 . S
C139 C141 1.345 . S
C139 H158 0.932 . S
C140 C139 1.332 . S
C140 C148 1.332 . S
C141 C139 1.345 . S
C141 C153 1.334 . S
C141 H159 0.928 . S
H142 C146 0.932 . S
H143 C147 0.928 . S
H144 C148 0.932 . S
H145 C149 0.928 . S
C146 C137 1.332 . S
C146 H142 0.932 . S
C146 C147 1.345 . S
C147 H143 0.928 . S
C147 C146 1.345 . S
C147 C150 1.334 . S
C148 C140 1.332 . S
C148 H144 0.932 . S
C148 C149 1.345 . S
C149 H145 0.928 . S
C149 C148 1.345 . S
C149 C153 1.334 . S
C150 C138 1.334 . S
C150 C147 1.334 . S
C150 C151 1.487 . S
C151 C150 1.487 . S
C151 C152 1.185 . S
C152 C151 1.185 . S
C152 C155 1.482 . S
C153 C141 1.334 . S
C153 C149 1.334 . S
C153 C154 1.487 . S
C154 C153 1.487 . S
C154 C155 1.185 . S
C155 C152 1.482 . S
C155 C154 1.185 . S
H156 C136 0.932 . S
H157 C138 0.928 . S
H158 C139 0.932 . S
H159 C141 0.928 . S
C160 C161 1.332 . S
C160 C162 1.345 . S
C160 H180 0.932 . S
C161 C160 1.332 . S
C161 C170 1.332 . S
C162 C160 1.345 . S
C162 C174 1.334 . S
C162 H181 0.928 . S
C163 C164 1.332 . S
C163 C165 1.345 . S
C163 H182 0.932 . S
C164 C163 1.332 . S
C164 C172 1.332 . S
C165 C163 1.345 . S
C165 C177 1.334 . S
C165 H183 0.928 . S
H166 C170 0.932 . S
H167 C171 0.928 . S
H168 C172 0.932 . S
H169 C173 0.928 . S
C170 C161 1.332 . S
C170 H166 0.932 . S
C170 C171 1.345 . S
C171 H167 0.928 . S
C171 C170 1.345 . S
C171 C174 1.334 . S
C172 C164 1.332 . S
C172 H168 0.932 . S
C172 C173 1.345 . S
C173 H169 0.928 . S
C173 C172 1.345 . S
C173 C177 1.334 . S
C174 C162 1.334 . S
C174 C171 1.334 . S
C174 C175 1.487 . S
C175 C174 1.487 . S
C175 C176 1.185 . S
C176 C175 1.185 . S
C176 C179 1.482 . S
C177 C165 1.334 . S
C177 C173 1.334 . S
C177 C178 1.487 . S
C178 C177 1.487 . S
C178 C179 1.185 1_556 S
C179 C176 1.482 . S
C179 C178 1.185 1_554 S
H180 C160 0.932 . S
H181 C162 0.928 . S
H182 C163 0.932 . S
H183 C165 0.928 . S
C184 C185 1.332 . S
C184 C186 1.345 . S
C184 H204 0.932 . S
C185 C184 1.332 . S
C185 C194 1.332 . S
C186 C184 1.345 . S
C186 C198 1.334 . S
C186 H205 0.928 . S
C187 C188 1.332 . S
C187 C189 1.345 . S
C187 H206 0.932 . S
C188 C187 1.332 . S
C188 C196 1.332 . S
C189 C187 1.345 . S
C189 C201 1.334 . S
C189 H207 0.928 . S
H190 C194 0.932 . S
H191 C195 0.928 . S
H192 C196 0.932 . S
H193 C197 0.928 . S
C194 C185 1.332 . S
C194 H190 0.932 . S
C194 C195 1.345 . S
C195 H191 0.928 . S
C195 C194 1.345 . S
C195 C198 1.334 . S
C196 C188 1.332 . S
C196 H192 0.932 . S
C196 C197 1.345 . S
C197 H193 0.928 . S
C197 C196 1.345 . S
C197 C201 1.334 . S
C198 C186 1.334 . S
C198 C195 1.334 . S
C198 C199 1.487 . S
C199 C198 1.487 . S
C199 C200 1.185 . S
C200 C199 1.185 . S
C200 C203 1.482 . S
C201 C189 1.334 . S
C201 C197 1.334 . S
C201 C202 1.487 . S
C202 C201 1.487 . S
C202 C203 1.185 . S
C203 C200 1.482 . S
C203 C202 1.185 . S
H204 C184 0.932 . S
H205 C186 0.928 . S
H206 C187 0.932 . S
H207 C189 0.928 . S
C208 C209 1.332 . S
C208 C210 1.345 . S
C208 H228 0.932 . S
C209 C208 1.332 . S
C209 C218 1.332 . S
C210 C208 1.345 . S
C210 C222 1.334 . S
C210 H229 0.928 . S
C211 C212 1.332 . S
C211 C213 1.345 . S
C211 H230 0.932 . S
C212 C211 1.332 . S
C212 C220 1.332 . S
C213 C211 1.345 . S
C213 C225 1.334 . S
C213 H231 0.928 . S
H214 C218 0.932 . S
H215 C219 0.928 . S
H216 C220 0.932 . S
H217 C221 0.928 . S
C218 C209 1.332 . S
C218 H214 0.932 . S
C218 C219 1.345 . S
C219 H215 0.928 . S
C219 C218 1.345 . S
C219 C222 1.334 . S
C220 C212 1.332 . S
C220 H216 0.932 . S
C220 C221 1.345 . S
C221 H217 0.928 . S
C221 C220 1.345 . S
C221 C225 1.334 . S
C222 C210 1.334 . S
C222 C219 1.334 . S
C222 C223 1.487 . S
C223 C222 1.487 . S
C223 C224 1.185 . S
C224 C223 1.185 . S
C224 C227 1.482 . S
C225 C213 1.334 . S
C225 C221 1.334 . S
C225 C226 1.487 . S
C226 C225 1.487 . S
C226 C227 1.185 . S
C227 C224 1.482 . S
C227 C226 1.185 . S
H228 C208 0.932 . S
H229 C210 0.928 . S
H230 C211 0.932 . S
H231 C213 0.928 . S
C232 C233 1.332 . S
C232 C234 1.345 . S
C232 H252 0.932 . S
C233 C232 1.332 . S
C233 C242 1.332 . S
C234 C232 1.345 . S
C234 C246 1.334 . S
C234 H253 0.928 . S
C235 C236 1.332 . S
C235 C237 1.345 . S
C235 H254 0.932 . S
C236 C235 1.332 . S
C236 C244 1.332 . S
C237 C235 1.345 . S
C237 C249 1.334 . S
C237 H255 0.928 . S
H238 C242 0.932 . S
H239 C243 0.928 . S
H240 C244 0.932 . S
H241 C245 0.928 . S
C242 C233 1.332 . S
C242 H238 0.932 . S
C242 C243 1.345 . S
C243 H239 0.928 . S
C243 C242 1.345 . S
C243 C246 1.334 . S
C244 C236 1.332 . S
C244 H240 0.932 . S
C244 C245 1.345 . S
C245 H241 0.928 . S
C245 C244 1.345 . S
C245 C249 1.334 . S
C246 C234 1.334 . S
C246 C243 1.334 . S
C246 C247 1.487 . S
C247 C246 1.487 . S
C247 C248 1.185 . S
C248 C247 1.185 . S
C248 C251 1.482 . S
C249 C237 1.334 . S
C249 C245 1.334 . S
C249 C250 1.487 . S
C250 C249 1.487 . S
C250 C251 1.185 . S
C251 C248 1.482 . S
C251 C250 1.185 . S
H252 C232 0.932 . S
H253 C234 0.928 . S
H254 C235 0.932 . S
H255 C237 0.928 . S
C256 C257 1.332 . S
C256 C258 1.345 . S
C256 H276 0.932 . S
C257 C256 1.332 . S
C257 C266 1.332 1_556 S
C258 C256 1.345 . S
C258 C270 1.334 . S
C258 H277 0.928 . S
C259 C260 1.332 . S
C259 C261 1.345 . S
C259 H278 0.932 . S
C260 C259 1.332 . S
C260 C268 1.332 . S
C261 C259 1.345 . S
C261 C273 1.334 . S
C261 H279 0.928 . S
H262 C266 0.932 . S
H263 C267 0.928 1_554 S
H264 C268 0.932 . S
H265 C269 0.928 . S
C266 C257 1.332 1_554 S
C266 H262 0.932 . S
C266 C267 1.345 1_554 S
C267 H263 0.928 1_556 S
C267 C266 1.345 1_556 S
C267 C270 1.334 . S
C268 C260 1.332 . S
C268 H264 0.932 . S
C268 C269 1.345 . S
C269 H265 0.928 . S
C269 C268 1.345 . S
C269 C273 1.334 . S
C270 C258 1.334 . S
C270 C267 1.334 . S
C270 C271 1.487 . S
C271 C270 1.487 . S
C271 C272 1.185 . S
C272 C271 1.185 . S
C272 C275 1.482 . S
C273 C261 1.334 . S
C273 C269 1.334 . S
C273 C274 1.487 . S
C274 C273 1.487 . S
C274 C275 1.185 . S
C275 C272 1.482 . S
C275 C274 1.185 . S
H276 C256 0.932 . S
H277 C258 0.928 . S
H278 C259 0.932 . S
H279 C261 0.928 . S
C280 C281 1.332 . S
C280 C282 1.345 . S
C280 H300 0.932 . S
C281 C280 1.332 . S
C281 C290 1.332 . S
C282 C280 1.345 . S
C282 C294 1.334 . S
C282 H301 0.928 . S
C283 C284 1.332 . S
C283 C285 1.345 . S
C283 H302 0.932 . S
C284 C283 1.332 . S
C284 C292 1.332 . S
C285 C283 1.345 . S
C285 C297 1.334 . S
C285 H303 0.928 . S
H286 C290 0.932 . S
H287 C291 0.928 . S
H288 C292 0.932 . S
H289 C293 0.928 . S
C290 C281 1.332 . S
C290 H286 0.932 . S
C290 C291 1.345 . S
C291 H287 0.928 . S
C291 C290 1.345 . S
C291 C294 1.334 . S
C292 C284 1.332 . S
C292 H288 0.932 . S
C292 C293 1.345 . S
C293 H289 0.928 . S
C293 C292 1.345 . S
C293 C297 1.334 . S
C294 C282 1.334 . S
C294 C291 1.334 . S
C294 C295 1.487 . S
C295 C294 1.487 . S
C295 C296 1.185 . S
C296 C295 1.185 . S
C296 C299 1.482 . S
C297 C285 1.334 . S
C297 C293 1.334 . S
C297 C298 1.487 . S
C298 C297 1.487 . S
C298 C299 1.185 . S
C299 C296 1.482 . S
C299 C298 1.185 . S
H300 C280 0.932 . S
H301 C282 0.928 . S
H302 C283 0.932 . S
H303 C285 0.928 . S
C304 C305 1.332 . S
C304 C306 1.345 . S
C304 H324 0.932 . S
C305 C304 1.332 . S
C305 C314 1.332 . S
C306 C304 1.345 . S
C306 C318 1.334 . S
C306 H325 0.928 . S
C307 C308 1.332 . S
C307 C309 1.345 . S
C307 H326 0.932 . S
C308 C307 1.332 . S
C308 C316 1.332 . S
C309 C307 1.345 . S
C309 C321 1.334 . S
C309 H327 0.928 . S
H310 C314 0.932 . S
H311 C315 0.928 . S
H312 C316 0.932 . S
H313 C317 0.928 . S
C314 C305 1.332 . S
C314 H310 0.932 . S
C314 C315 1.345 . S
C315 H311 0.928 . S
C315 C314 1.345 . S
C315 C318 1.334 . S
C316 C308 1.332 . S
C316 H312 0.932 . S
C316 C317 1.345 . S
C317 H313 0.928 . S
C317 C316 1.345 . S
C317 C321 1.334 . S
C318 C306 1.334 . S
C318 C315 1.334 . S
C318 C319 1.487 . S
C319 C318 1.487 . S
C319 C320 1.185 . S
C320 C319 1.185 . S
C320 C323 1.482 1_565 S
C321 C309 1.334 . S
C321 C317 1.334 . S
C321 C322 1.487 . S
C322 C321 1.487 . S
C322 C323 1.185 . S
C323 C320 1.482 1_545 S
C323 C322 1.185 . S
H324 C304 0.932 . S
H325 C306 0.928 . S
H326 C307 0.932 . S
H327 C309 0.928 . S
C328 C329 1.332 . S
C328 C330 1.345 . S
C328 H348 0.932 . S
C329 C328 1.332 . S
C329 C338 1.332 . S
C330 C328 1.345 . S
C330 C342 1.334 . S
C330 H349 0.928 . S
C331 C332 1.332 . S
C331 C333 1.345 . S
C331 H350 0.932 . S
C332 C331 1.332 . S
C332 C340 1.332 . S
C333 C331 1.345 . S
C333 C345 1.334 . S
C333 H351 0.928 . S
H334 C338 0.932 . S
H335 C339 0.928 . S
H336 C340 0.932 . S
H337 C341 0.928 . S
C338 C329 1.332 . S
C338 H334 0.932 . S
C338 C339 1.345 . S
C339 H335 0.928 . S
C339 C338 1.345 . S
C339 C342 1.334 . S
C340 C332 1.332 . S
C340 H336 0.932 . S
C340 C341 1.345 . S
C341 H337 0.928 . S
C341 C340 1.345 . S
C341 C345 1.334 . S
C342 C330 1.334 . S
C342 C339 1.334 . S
C342 C343 1.487 . S
C343 C342 1.487 . S
C343 C344 1.185 . S
C344 C343 1.185 . S
C344 C347 1.482 1_655 S
C345 C333 1.334 . S
C345 C341 1.334 . S
C345 C346 1.487 . S
C346 C345 1.487 . S
C346 C347 1.185 . S
C347 C344 1.482 1_455 S
C347 C346 1.185 . S
H348 C328 0.932 . S
H349 C330 0.928 . S
H350 C331 0.932 . S
H351 C333 0.928 . S
C352 C353 1.332 . S
C352 C354 1.345 . S
C352 H372 0.932 . S
C353 C352 1.332 . S
C353 C362 1.332 . S
C354 C352 1.345 . S
C354 C366 1.334 . S
C354 H373 0.928 . S
C355 C356 1.332 . S
C355 C357 1.345 . S
C355 H374 0.932 . S
C356 C355 1.332 . S
C356 C364 1.332 . S
C357 C355 1.345 . S
C357 C369 1.334 . S
C357 H375 0.928 . S
H358 C362 0.932 . S
H359 C363 0.928 . S
H360 C364 0.932 . S
H361 C365 0.928 . S
C362 C353 1.332 . S
C362 H358 0.932 . S
C362 C363 1.345 . S
C363 H359 0.928 . S
C363 C362 1.345 . S
C363 C366 1.334 . S
C364 C356 1.332 . S
C364 H360 0.932 . S
C364 C365 1.345 . S
C365 H361 0.928 . S
C365 C364 1.345 . S
C365 C369 1.334 . S
C366 C354 1.334 . S
C366 C363 1.334 . S
C366 C367 1.487 . S
C367 C366 1.487 . S
C367 C368 1.185 . S
C368 C367 1.185 . S
C368 C371 1.482 1_565 S
C369 C357 1.334 . S
C369 C365 1.334 . S
C369 C370 1.487 . S
C370 C369 1.487 . S
C370 C371 1.185 . S
C371 C368 1.482 1_545 S
C371 C370 1.185 . S
H372 C352 0.932 . S
H373 C354 0.928 . S
H374 C355 0.932 . S
H375 C357 0.928 . S
C376 C377 1.332 . S
C376 C378 1.345 . S
C376 H396 0.932 1_554 S
C377 C376 1.332 . S
C377 C386 1.332 . S
C378 C376 1.345 . S
C378 C390 1.334 . S
C378 H397 0.928 1_554 S
C379 C380 1.332 . S
C379 C381 1.345 . S
C379 H398 0.932 . S
C380 C379 1.332 . S
C380 C388 1.332 . S
C381 C379 1.345 . S
C381 C393 1.334 . S
C381 H399 0.928 . S
H382 C386 0.932 . S
H383 C387 0.928 . S
H384 C388 0.932 . S
H385 C389 0.928 . S
C386 C377 1.332 . S
C386 H382 0.932 . S
C386 C387 1.345 . S
C387 H383 0.928 . S
C387 C386 1.345 . S
C387 C390 1.334 . S
C388 C380 1.332 . S
C388 H384 0.932 . S
C388 C389 1.345 . S
C389 H385 0.928 . S
C389 C388 1.345 . S
C389 C393 1.334 . S
C390 C378 1.334 . S
C390 C387 1.334 . S
C390 C391 1.487 . S
C391 C390 1.487 . S
C391 C392 1.185 . S
C392 C391 1.185 . S
C392 C395 1.482 1_655 S
C393 C381 1.334 . S
C393 C389 1.334 . S
C393 C394 1.487 . S
C394 C393 1.487 . S
C394 C395 1.185 . S
C395 C392 1.482 1_455 S
C395 C394 1.185 . S
H396 C376 0.932 1_556 S
H397 C378 0.928 1_556 S
H398 C379 0.932 . S
H399 C381 0.928 . S
C400 C401 1.332 . S
C400 C402 1.345 . S
C400 H420 0.932 . S
C401 C400 1.332 . S
C401 C410 1.332 . S
C402 C400 1.345 . S
C402 C414 1.334 . S
C402 H421 0.928 . S
C403 C404 1.332 . S
C403 C405 1.345 . S
C403 H422 0.932 . S
C404 C403 1.332 . S
C404 C412 1.332 . S
C405 C403 1.345 . S
C405 C417 1.334 . S
C405 H423 0.928 . S
H406 C410 0.932 . S
H407 C411 0.928 . S
H408 C412 0.932 . S
H409 C413 0.928 . S
C410 C401 1.332 . S
C410 H406 0.932 . S
C410 C411 1.345 . S
C411 H407 0.928 . S
C411 C410 1.345 . S
C411 C414 1.334 . S
C412 C404 1.332 . S
C412 H408 0.932 . S
C412 C413 1.345 . S
C413 H409 0.928 . S
C413 C412 1.345 . S
C413 C417 1.334 . S
C414 C402 1.334 . S
C414 C411 1.334 . S
C414 C415 1.487 . S
C415 C414 1.487 . S
C415 C416 1.185 1_556 S
C416 C415 1.185 1_554 S
C416 C419 1.482 . S
C417 C405 1.334 . S
C417 C413 1.334 . S
C417 C418 1.487 . S
C418 C417 1.487 . S
C418 C419 1.185 . S
C419 C416 1.482 . S
C419 C418 1.185 . S
H420 C400 0.932 . S
H421 C402 0.928 . S
H422 C403 0.932 . S
H423 C405 0.928 . S
C424 C425 1.332 . S
C424 C426 1.345 . S
C424 H444 0.932 . S
C425 C424 1.332 . S
C425 C434 1.332 . S
C426 C424 1.345 . S
C426 C438 1.334 . S
C426 H445 0.928 . S
C427 C428 1.332 . S
C427 C429 1.345 . S
C427 H446 0.932 . S
C428 C427 1.332 . S
C428 C436 1.332 . S
C429 C427 1.345 . S
C429 C441 1.334 . S
C429 H447 0.928 . S
H430 C434 0.932 . S
H431 C435 0.928 . S
H432 C436 0.932 . S
H433 C437 0.928 . S
C434 C425 1.332 . S
C434 H430 0.932 . S
C434 C435 1.345 . S
C435 H431 0.928 . S
C435 C434 1.345 . S
C435 C438 1.334 . S
C436 C428 1.332 . S
C436 H432 0.932 . S
C436 C437 1.345 . S
C437 H433 0.928 . S
C437 C436 1.345 . S
C437 C441 1.334 . S
C438 C426 1.334 . S
C438 C435 1.334 . S
C438 C439 1.487 . S
C439 C438 1.487 . S
C439 C440 1.185 . S
C440 C439 1.185 . S
C440 C443 1.482 . S
C441 C429 1.334 . S
C441 C437 1.334 . S
C441 C442 1.487 . S
C442 C441 1.487 . S
C442 C443 1.185 . S
C443 C440 1.482 . S
C443 C442 1.185 . S
H444 C424 0.932 . S
H445 C426 0.928 . S
H446 C427 0.932 . S
H447 C429 0.928 . S
C448 C449 1.332 . S
C448 C450 1.345 . S
C448 H468 0.932 . S
C449 C448 1.332 . S
C449 C458 1.332 . S
C450 C448 1.345 . S
C450 C462 1.334 . S
C450 H469 0.928 . S
C451 C452 1.332 . S
C451 C453 1.345 . S
C451 H470 0.932 . S
C452 C451 1.332 . S
C452 C460 1.332 . S
C453 C451 1.345 . S
C453 C465 1.334 . S
C453 H471 0.928 . S
H454 C458 0.932 . S
H455 C459 0.928 . S
H456 C460 0.932 . S
H457 C461 0.928 . S
C458 C449 1.332 . S
C458 H454 0.932 . S
C458 C459 1.345 . S
C459 H455 0.928 . S
C459 C458 1.345 . S
C459 C462 1.334 . S
C460 C452 1.332 . S
C460 H456 0.932 . S
C460 C461 1.345 . S
C461 H457 0.928 . S
C461 C460 1.345 . S
C461 C465 1.334 . S
C462 C450 1.334 . S
C462 C459 1.334 . S
C462 C463 1.487 . S
C463 C462 1.487 . S
C463 C464 1.185 . S
C464 C463 1.185 . S
C464 C467 1.482 . S
C465 C453 1.334 . S
C465 C461 1.334 . S
C465 C466 1.487 . S
C466 C465 1.487 . S
C466 C467 1.185 . S
C467 C464 1.482 . S
C467 C466 1.185 . S
H468 C448 0.932 . S
H469 C450 0.928 . S
H470 C451 0.932 . S
H471 C453 0.928 . S
C472 C473 1.332 . S
C472 C474 1.345 . S
C472 H492 0.932 . S
C473 C472 1.332 . S
C473 C482 1.332 . S
C474 C472 1.345 . S
C474 C486 1.334 . S
C474 H493 0.928 . S
C475 C476 1.332 . S
C475 C477 1.345 . S
C475 H494 0.932 . S
C476 C475 1.332 . S
C476 C484 1.332 . S
C477 C475 1.345 . S
C477 C489 1.334 . S
C477 H495 0.928 . S
H478 C482 0.932 . S
H479 C483 0.928 . S
H480 C484 0.932 . S
H481 C485 0.928 . S
C482 C473 1.332 . S
C482 H478 0.932 . S
C482 C483 1.345 . S
C483 H479 0.928 . S
C483 C482 1.345 . S
C483 C486 1.334 . S
C484 C476 1.332 . S
C484 H480 0.932 . S
C484 C485 1.345 . S
C485 H481 0.928 . S
C485 C484 1.345 . S
C485 C489 1.334 . S
C486 C474 1.334 . S
C486 C483 1.334 . S
C486 C487 1.487 . S
C487 C486 1.487 . S
C487 C488 1.185 . S
C488 C487 1.185 . S
C488 C491 1.482 . S
C489 C477 1.334 . S
C489 C485 1.334 . S
C489 C490 1.487 . S
C490 C489 1.487 . S
C490 C491 1.185 . S
C491 C488 1.482 . S
C491 C490 1.185 . S
H492 C472 0.932 . S
H493 C474 0.928 . S
H494 C475 0.932 . S
H495 C477 0.928 . S
C113 C13 0.719 . S
C116 C97 0.719 . S
C137 C27 0.719 . S
C140 C111 0.719 . S
C161 C69 0.719 . S
C164 C41 0.719 . S
C185 C83 0.719 . S
C188 C55 0.719 . S
C209 C11 1.257 . S
C212 C81 1.257 . S
C233 C25 1.257 . S
C236 C95 1.257 . S
C257 C109 1.257 1_556 S
C260 C39 1.257 . S
C281 C53 1.257 . S
C284 C67 1.257 . S
C305 C64 1.151 . S
C308 C8 1.151 . S
C329 C22 1.151 . S
C332 C78 1.151 . S
C353 C36 1.151 . S
C356 C92 1.151 . S
C377 C106 1.151 . S
C380 C50 1.151 . S
C401 C91 1.665 . S
C404 C7 1.665 . S
C425 C105 1.665 . S
C428 C21 1.665 . S
C449 C35 1.665 . S
C452 C63 1.665 . S
C473 C49 1.665 . S
C476 C77 1.665 . S
