# Generated by pormake.
# Topology acs-a, (4)-cn, num edge types: 1
# Building blocks:
#     Node 0, Type 0, BuildingBlock: NAHDIM_clean_sbu_0, # of connection points: 4
#     Node 1, Type 0, BuildingBlock: NAHDIM_clean_sbu_0, # of connection points: 4
#     Node 2, Type 0, BuildingBlock: NAHDIM_clean_sbu_0, # of connection points: 4
#     Node 3, Type 0, BuildingBlock: NAHDIM_clean_sbu_0, # of connection points: 4
#     Node 4, Type 0, BuildingBlock: NAHDIM_clean_sbu_0, # of connection points: 4
#     Node 5, Type 0, BuildingBlock: NAHDIM_clean_sbu_0, # of connection points: 4
#     Node 6, Type 0, BuildingBlock: NAHDIM_clean_sbu_0, # of connection points: 4
#     Node 7, Type 0, BuildingBlock: NAHDIM_clean_sbu_0, # of connection points: 4
#     Node 8, Type 0, BuildingBlock: NAHDIM_clean_sbu_0, # of connection points: 4
#     Node 9, Type 0, BuildingBlock: NAHDIM_clean_sbu_0, # of connection points: 4
#     Node 10, Type 0, BuildingBlock: NAHDIM_clean_sbu_0, # of connection points: 4
#     Node 11, Type 0, BuildingBlock: NAHDIM_clean_sbu_0, # of connection points: 4
#     Edge 12, Type (0, 0), BuildingBlock: XIVTED_clean_linker_0, # of connection points: 2
#     Edge 13, Type (0, 0), BuildingBlock: XIVTED_clean_linker_0, # of connection points: 2
#     Edge 14, Type (0, 0), BuildingBlock: XIVTED_clean_linker_0, # of connection points: 2
#     Edge 15, Type (0, 0), BuildingBlock: XIVTED_clean_linker_0, # of connection points: 2
#     Edge 16, Type (0, 0), BuildingBlock: XIVTED_clean_linker_0, # of connection points: 2
#     Edge 17, Type (0, 0), BuildingBlock: XIVTED_clean_linker_0, # of connection points: 2
#     Edge 18, Type (0, 0), BuildingBlock: XIVTED_clean_linker_0, # of connection points: 2
#     Edge 19, Type (0, 0), BuildingBlock: XIVTED_clean_linker_0, # of connection points: 2
#     Edge 20, Type (0, 0), BuildingBlock: XIVTED_clean_linker_0, # of connection points: 2
#     Edge 21, Type (0, 0), BuildingBlock: XIVTED_clean_linker_0, # of connection points: 2
#     Edge 22, Type (0, 0), BuildingBlock: XIVTED_clean_linker_0, # of connection points: 2
#     Edge 23, Type (0, 0), BuildingBlock: XIVTED_clean_linker_0, # of connection points: 2
#     Edge 24, Type (0, 0), BuildingBlock: XIVTED_clean_linker_0, # of connection points: 2
#     Edge 25, Type (0, 0), BuildingBlock: XIVTED_clean_linker_0, # of connection points: 2
#     Edge 26, Type (0, 0), BuildingBlock: XIVTED_clean_linker_0, # of connection points: 2
#     Edge 27, Type (0, 0), BuildingBlock: XIVTED_clean_linker_0, # of connection points: 2
#     Edge 28, Type (0, 0), BuildingBlock: XIVTED_clean_linker_0, # of connection points: 2
#     Edge 29, Type (0, 0), BuildingBlock: XIVTED_clean_linker_0, # of connection points: 2
#     Edge 30, Type (0, 0), BuildingBlock: XIVTED_clean_linker_0, # of connection points: 2
#     Edge 31, Type (0, 0), BuildingBlock: XIVTED_clean_linker_0, # of connection points: 2
#     Edge 32, Type (0, 0), BuildingBlock: XIVTED_clean_linker_0, # of connection points: 2
#     Edge 33, Type (0, 0), BuildingBlock: XIVTED_clean_linker_0, # of connection points: 2
#     Edge 34, Type (0, 0), BuildingBlock: XIVTED_clean_linker_0, # of connection points: 2
#     Edge 35, Type (0, 0), BuildingBlock: XIVTED_clean_linker_0, # of connection points: 2
# Relax obj value: 0.412
# Max RMSD: 0.207
# Mean RMSD: 0.202
data_MOF--net-acs-a--node1-NAHDIM_clean_sbu_0--edge1-XIVTED_clean_linker_0
_symmetry_space_group_name_H-M    P1
_symmetry_Int_Tables_number       1
_symmetry_cell_setting            triclinic
loop_
_symmetry_equiv_pos_as_xyz
'x, y, z'
_cell_length_a     47.7987
_cell_length_b     47.74996
_cell_length_c     42.935677
_cell_angle_alpha  89.882309
_cell_angle_beta   90.123621
_cell_angle_gamma 113.78463
loop_
_atom_site_label
_atom_site_type_symbol
_atom_site_fract_x
_atom_site_fract_y
_atom_site_fract_z
_atom_type_partial_charge
C0 C 0.60297 0.08953 0.02713 0.0
O1 O 0.61004 0.11729 0.01626 0.0
O2 O 0.63592 0.15804 0.0663 0.0
Zn3 Zn 0.64685 0.12204 0.07349 0.0
O4 O 0.64485 0.11368 0.11937 0.0
C5 C 0.69821 0.14207 0.0314 0.0
O6 O 0.67764 0.1417 0.01088 0.0
O7 O 0.61669 0.08578 0.05111 0.0
C8 C 0.66298 0.13453 0.1369 0.0
O9 O 0.68237 0.16003 0.12423 0.0
C10 C 0.61298 0.15947 0.07996 0.0
O11 O 0.59681 0.1374 0.09911 0.0
O12 O 0.68976 0.13304 0.059 0.0
C13 C 0.43266 0.55485 0.5329 0.0
O14 O 0.40296 0.54626 0.53038 0.0
O15 O 0.3822 0.58475 0.56578 0.0
Zn16 Zn 0.42793 0.60116 0.57324 0.0
O17 O 0.43592 0.59806 0.61911 0.0
C18 C 0.42865 0.65265 0.53965 0.0
O19 O 0.41003 0.63078 0.5217 0.0
O20 O 0.44808 0.57837 0.54899 0.0
C21 C 0.44251 0.62102 0.63706 0.0
O22 O 0.44548 0.64746 0.62523 0.0
C23 C 0.36518 0.58693 0.58752 0.0
O24 O 0.37695 0.5951 0.61538 0.0
O25 O 0.44279 0.64562 0.56135 0.0
C26 C 0.92457 0.44038 0.05786 0.0
O27 O 0.90876 0.45076 0.07595 0.0
O28 O 0.86607 0.34241 0.05682 0.0
Zn29 Zn 0.88156 0.38231 0.07953 0.0
O30 O 0.89116 0.37604 0.12394 0.0
C31 C 0.83919 0.40512 0.05353 0.0
O32 O 0.85168 0.40211 0.02721 0.0
O33 O 0.91782 0.41182 0.05686 0.0
C34 C 0.88996 0.39443 0.1447 0.0
O35 O 0.88403 0.41796 0.13632 0.0
C36 C 0.87573 0.3216 0.06168 0.0
O37 O 0.89728 0.32604 0.0825 0.0
O38 O 0.84831 0.39796 0.07894 0.0
C39 C 0.3755 0.89377 0.53762 0.0
O40 O 0.35932 0.86713 0.52482 0.0
O41 O 0.34713 0.82703 0.57767 0.0
Zn42 Zn 0.33788 0.86359 0.58767 0.0
O43 O 0.34103 0.8694 0.634 0.0
C44 C 0.28835 0.86744 0.54905 0.0
O45 O 0.30996 0.88739 0.53193 0.0
O46 O 0.36971 0.8988 0.56543 0.0
C47 C 0.32265 0.84756 0.65036 0.0
O48 O 0.30229 0.8236 0.6362 0.0
C49 C 0.37353 0.82856 0.58486 0.0
O50 O 0.39256 0.85288 0.59963 0.0
O51 O 0.29536 0.85587 0.57298 0.0
C52 C 0.53545 0.41417 0.06182 0.0
O53 O 0.52002 0.39198 0.08118 0.0
O54 O 0.6313 0.4261 0.08628 0.0
Zn55 Zn 0.58573 0.40755 0.09191 0.0
O56 O 0.57751 0.41605 0.13601 0.0
C57 C 0.57896 0.35156 0.06156 0.0
O58 O 0.59095 0.37018 0.03807 0.0
O59 O 0.56447 0.42456 0.06177 0.0
C60 C 0.55756 0.39581 0.15271 0.0
O61 O 0.5407 0.36913 0.14038 0.0
C62 C 0.64556 0.43473 0.06071 0.0
O63 O 0.63021 0.43431 0.03517 0.0
O64 O 0.57281 0.36217 0.0865 0.0
C65 C 0.06646 0.59162 0.5175 0.0
O66 O 0.0628 0.6106 0.53755 0.0
O67 O 0.13665 0.67281 0.50022 0.0
Zn68 Zn 0.12861 0.63348 0.52268 0.0
O69 O 0.12079 0.63894 0.56785 0.0
C70 C 0.18703 0.63851 0.54102 0.0
O71 O 0.18435 0.66027 0.5578 0.0
O72 O 0.0928 0.59778 0.50613 0.0
C73 C 0.11583 0.61667 0.58637 0.0
O74 O 0.11506 0.59075 0.57526 0.0
C75 C 0.12148 0.68843 0.50741 0.0
O76 O 0.09834 0.67661 0.52668 0.0
O77 O 0.16592 0.62381 0.52187 0.0
C78 C 0.90006 0.38561 0.48005 0.0
O79 O 0.87366 0.37804 0.49418 0.0
O80 O 0.82793 0.35257 0.44775 0.0
Zn81 Zn 0.86336 0.34274 0.43454 0.0
O82 O 0.86858 0.35014 0.38856 0.0
C83 C 0.84696 0.28896 0.47219 0.0
O84 O 0.84817 0.30827 0.49443 0.0
O85 O 0.90135 0.3719 0.45515 0.0
C86 C 0.87965 0.33663 0.36997 0.0
O87 O 0.88805 0.31539 0.38064 0.0
C88 C 0.82684 0.37743 0.43855 0.0
O89 O 0.84882 0.39596 0.42068 0.0
O90 O 0.85411 0.29897 0.44463 0.0
C91 C 0.42018 0.91453 0.94394 0.0
O92 O 0.40615 0.91672 0.9183 0.0
O93 O 0.34077 0.83804 0.96064 0.0
Zn94 Zn 0.38123 0.85038 0.93932 0.0
O95 O 0.37499 0.85564 0.89373 0.0
C96 C 0.39128 0.80019 0.9678 0.0
O97 O 0.3752 0.80433 0.99073 0.0
O98 O 0.41248 0.8887 0.95715 0.0
C99 C 0.35274 0.8348 0.88001 0.0
O100 O 0.33509 0.8106 0.89593 0.0
C101 C 0.32296 0.85085 0.95341 0.0
O102 O 0.33277 0.8744 0.93434 0.0
O103 O 0.39651 0.81712 0.94378 0.0
C104 C 0.53096 0.41684 0.45935 0.0
O105 O 0.51611 0.3948 0.43963 0.0
O106 O 0.55912 0.35168 0.46018 0.0
Zn107 Zn 0.57638 0.39543 0.44521 0.0
O108 O 0.56805 0.39565 0.39943 0.0
C109 C 0.63218 0.40151 0.47433 0.0
O110 O 0.61292 0.38499 0.49569 0.0
O111 O 0.55816 0.42133 0.46688 0.0
C112 C 0.57743 0.42005 0.38335 0.0
O113 O 0.59335 0.44635 0.39693 0.0
C114 C 0.54183 0.32965 0.44328 0.0
O115 O 0.53133 0.33571 0.41698 0.0
O116 O 0.62194 0.41099 0.45107 0.0
C117 C 0.07177 0.5743 0.90026 0.0
O118 O 0.08446 0.56253 0.87992 0.0
O119 O 0.15192 0.61133 0.89191 0.0
Zn120 Zn 0.12065 0.62811 0.88066 0.0
O121 O 0.11318 0.6248 0.83451 0.0
C122 C 0.1384 0.6765 0.92461 0.0
O123 O 0.12875 0.6531 0.94386 0.0
O124 O 0.0826 0.60311 0.90375 0.0
C125 C 0.11706 0.64747 0.81689 0.0
O126 O 0.12571 0.67491 0.82907 0.0
C127 C 0.15884 0.59369 0.87434 0.0
O128 O 0.14587 0.58636 0.84682 0.0
O129 O 0.13638 0.67151 0.89546 0.0
C130 C 0.55525 0.04965 0.42846 0.0
O131 O 0.55202 0.05823 0.40006 0.0
O132 O 0.64848 0.11791 0.45106 0.0
Zn133 Zn 0.60966 0.10402 0.4264 0.0
O134 O 0.61829 0.09991 0.3813 0.0
C135 C 0.58871 0.14629 0.45567 0.0
O136 O 0.59767 0.13699 0.48115 0.0
O137 O 0.57916 0.06524 0.44383 0.0
C138 C 0.63896 0.12305 0.36858 0.0
O139 O 0.65376 0.14746 0.38557 0.0
C140 C 0.66941 0.10871 0.44518 0.0
O141 O 0.6652 0.08855 0.42294 0.0
O142 O 0.5919 0.13548 0.42955 0.0
C143 C 0.43381 0.52541 0.93886 0.0
O144 O 0.45014 0.54799 0.92032 0.0
O145 O 0.40376 0.58882 0.94526 0.0
Zn146 Zn 0.39047 0.54885 0.92222 0.0
O147 O 0.40628 0.55741 0.87834 0.0
C148 C 0.32971 0.53859 0.94083 0.0
O149 O 0.34387 0.55055 0.96691 0.0
O150 O 0.40596 0.52041 0.94363 0.0
C151 C 0.40104 0.57782 0.86346 0.0
O152 O 0.38595 0.59197 0.87732 0.0
C153 C 0.42767 0.61255 0.93919 0.0
O154 O 0.44712 0.61091 0.91844 0.0
O155 O 0.34464 0.53272 0.9192 0.0
H156 H 0.68233 0.16835 0.33477 0.0
H157 H 0.62453 0.0855 0.17089 0.0
H158 H 0.60956 0.07844 0.3255 0.0
H159 H 0.69752 0.17519 0.18088 0.0
H160 H 0.62057 0.08113 0.22758 0.0
H161 H 0.69016 0.16985 0.27858 0.0
C162 C 0.66807 0.14884 0.32094 0.0
C163 C 0.64511 0.1233 0.33485 0.0
C164 C 0.63755 0.10171 0.21736 0.0
C165 C 0.6539 0.12493 0.2704 0.0
C166 C 0.63983 0.10422 0.18499 0.0
C167 C 0.66129 0.13083 0.17111 0.0
C168 C 0.65682 0.126 0.236 0.0
C169 C 0.68055 0.15431 0.19055 0.0
C170 C 0.67256 0.14972 0.28882 0.0
C171 C 0.62745 0.09864 0.31575 0.0
N172 N 0.67776 0.15139 0.22199 0.0
N173 N 0.63211 0.10014 0.28447 0.0
H174 H 0.44462 0.66221 0.68205 0.0
H175 H 0.42299 0.54645 0.82386 0.0
H176 H 0.43937 0.57047 0.66985 0.0
H177 H 0.40271 0.62662 0.82915 0.0
H178 H 0.43768 0.55859 0.76923 0.0
H179 H 0.43842 0.65323 0.73807 0.0
C180 C 0.44252 0.64028 0.69116 0.0
C181 C 0.44225 0.61695 0.67119 0.0
C182 C 0.43013 0.57355 0.78244 0.0
C183 C 0.43506 0.60654 0.73532 0.0
C184 C 0.42181 0.56669 0.8136 0.0
C185 C 0.41138 0.58543 0.83097 0.0
C186 C 0.42831 0.59949 0.76874 0.0
C187 C 0.41035 0.61138 0.81654 0.0
C188 C 0.43884 0.63514 0.72315 0.0
C189 C 0.43948 0.58902 0.68438 0.0
N190 N 0.41867 0.61763 0.78626 0.0
N191 N 0.43585 0.58453 0.71564 0.0
H192 H 0.88495 0.42725 0.1948 0.0
H193 H 0.8978 0.30994 0.32184 0.0
H194 H 0.89989 0.34662 0.17062 0.0
H195 H 0.87013 0.38356 0.34236 0.0
H196 H 0.90325 0.32521 0.26689 0.0
H197 H 0.88466 0.41408 0.24969 0.0
C198 C 0.88838 0.40686 0.20103 0.0
C199 C 0.89226 0.38791 0.17805 0.0
C200 C 0.89604 0.338 0.28348 0.0
C201 C 0.89179 0.37258 0.24098 0.0
C202 C 0.89293 0.32931 0.31483 0.0
C203 C 0.88338 0.34541 0.33671 0.0
C204 C 0.88971 0.36305 0.27407 0.0
C205 C 0.87741 0.37036 0.32632 0.0
C206 C 0.88812 0.3993 0.23241 0.0
C207 C 0.8967 0.36182 0.18756 0.0
N208 N 0.88067 0.37838 0.2958 0.0
N209 N 0.89621 0.35485 0.21833 0.0
H210 H 0.30649 0.79497 0.84419 0.0
H211 H 0.36463 0.89153 0.68709 0.0
H212 H 0.3852 0.88118 0.83981 0.0
H213 H 0.28728 0.80428 0.69178 0.0
H214 H 0.3708 0.88976 0.7435 0.0
H215 H 0.29752 0.79947 0.78882 0.0
C216 C 0.32189 0.81487 0.8316 0.0
C217 C 0.34675 0.83764 0.84663 0.0
C218 C 0.35239 0.87107 0.7322 0.0
C219 C 0.33659 0.84296 0.78314 0.0
C220 C 0.34882 0.87209 0.69999 0.0
C221 C 0.3255 0.84793 0.68466 0.0
C222 C 0.33251 0.8457 0.74919 0.0
C223 C 0.30567 0.82336 0.70258 0.0
C224 C 0.31673 0.81745 0.79995 0.0
C225 C 0.36583 0.86301 0.82913 0.0
N226 N 0.30971 0.82282 0.73385 0.0
N227 N 0.36041 0.86493 0.79829 0.0
H228 H 0.59945 0.46627 0.34022 0.0
H229 H 0.52181 0.35548 0.19638 0.0
H230 H 0.54138 0.37015 0.34939 0.0
H231 H 0.58963 0.44793 0.18598 0.0
H232 H 0.52337 0.36276 0.25271 0.0
H233 H 0.59106 0.46205 0.28387 0.0
C234 C 0.5848 0.44433 0.33043 0.0
C235 C 0.57132 0.41846 0.34951 0.0
C236 C 0.53777 0.38153 0.23809 0.0
C237 C 0.56159 0.4135 0.28514 0.0
C238 C 0.53682 0.37742 0.2059 0.0
C239 C 0.55585 0.40102 0.18644 0.0
C240 C 0.55786 0.40945 0.25096 0.0
C241 C 0.57474 0.42901 0.20011 0.0
C242 C 0.58005 0.44194 0.29826 0.0
C243 C 0.55246 0.39064 0.33556 0.0
N244 N 0.57542 0.43237 0.23155 0.0
N245 N 0.54826 0.38889 0.30423 0.0
H246 H 0.10279 0.57312 0.63184 0.0
H247 H 0.12511 0.69073 0.77168 0.0
H248 H 0.1217 0.66864 0.61786 0.0
H249 H 0.10136 0.59408 0.78442 0.0
H250 H 0.12207 0.68298 0.71527 0.0
H251 H 0.10027 0.5802 0.68784 0.0
C252 C 0.10628 0.59557 0.64053 0.0
C253 C 0.11261 0.62035 0.62014 0.0
C254 C 0.11736 0.66346 0.73044 0.0
C255 C 0.10988 0.62868 0.68432 0.0
C256 C 0.11909 0.66786 0.76264 0.0
C257 C 0.11363 0.64305 0.78281 0.0
C258 C 0.11021 0.63404 0.71834 0.0
C259 C 0.10587 0.61392 0.76979 0.0
C260 C 0.10483 0.5996 0.67254 0.0
C261 C 0.11682 0.6489 0.63274 0.0
N262 N 0.10454 0.61027 0.7384 0.0
N263 N 0.11555 0.65232 0.66405 0.0
H264 H 0.58056 0.02979 0.04587 0.0
H265 H 0.44488 0.97304 0.92073 0.0
H266 H 0.56692 0.08961 0.97751 0.0
H267 H 0.45548 0.91649 0.99457 0.0
H268 H 0.4903 0.01584 0.93991 0.0
H269 H 0.53598 0.98741 0.02539 0.0
C270 C 0.56829 0.03398 0.02642 0.0
C271 C 0.5774 0.06331 0.01345 0.0
C272 C 0.4826 -0.00594 0.95192 0.0
C273 C 0.52617 0.01489 0.99001 0.0
C274 C 0.45665 0.96966 0.94104 0.0
C275 C 0.44641 0.94116 0.95606 0.0
C276 C 0.49838 0.98982 0.9779 0.0
C277 C 0.46255 0.93804 0.98224 0.0
C278 C 0.54275 0.00978 0.0148 0.0
C279 C 0.56065 0.06738 0.98825 0.0
N280 N 0.48776 0.96205 0.99226 0.0
N281 N 0.53574 0.04342 0.97739 0.0
H282 H 0.40686 0.50359 0.49675 0.0
H283 H 0.55664 0.46758 0.49649 0.0
H284 H 0.49225 0.56216 0.5396 0.0
H285 H 0.47321 0.41292 0.44799 0.0
H286 H 0.53328 0.50214 0.5132 0.0
H287 H 0.43087 0.47014 0.47863 0.0
C288 C 0.43071 0.50953 0.50221 0.0
C289 C 0.44753 0.53569 0.51981 0.0
C290 C 0.52009 0.48257 0.49891 0.0
C291 C 0.47512 0.49732 0.49934 0.0
C292 C 0.53337 0.46276 0.48946 0.0
C293 C 0.51684 0.43729 0.47083 0.0
C294 C 0.49004 0.47684 0.48973 0.0
C295 C 0.48681 0.43226 0.46234 0.0
C296 C 0.4444 0.49038 0.49189 0.0
C297 C 0.47839 0.54223 0.52611 0.0
N298 N 0.47439 0.45184 0.47186 0.0
N299 N 0.49114 0.5231 0.51602 0.0
H300 H 0.04792 0.51187 0.90344 0.0
H301 H 0.94301 0.50235 0.05136 0.0
H302 H 0.04193 0.59111 0.94608 0.0
H303 H 0.9576 0.42532 0.01422 0.0
H304 H 0.97778 0.5352 0.01202 0.0
H305 H 0.01227 0.47943 0.9422 0.0
C306 C 0.03891 0.52243 0.92079 0.0
C307 C 0.04799 0.55424 0.92161 0.0
C308 C 0.97343 0.51112 0.01258 0.0
C309 C 0.0074 0.51729 0.96621 0.0
C310 C 0.95368 0.49239 0.03509 0.0
C311 C 0.94737 0.46105 0.03604 0.0
C312 C 0.98683 0.49836 0.99084 0.0
C313 C 0.96178 0.44935 0.01436 0.0
C314 C 0.01867 0.50391 0.94303 0.0
C315 C 0.03559 0.56668 0.94465 0.0
N316 N 0.98074 0.468 0.99257 0.0
N317 N 0.01598 0.54815 0.96612 0.0
H318 H 0.55035 0.03409 0.48997 0.0
H319 H 0.38735 0.89535 0.47531 0.0
H320 H 0.50227 0.00856 0.4023 0.0
H321 H 0.42231 0.944 0.56113 0.0
H322 H 0.43183 0.93222 0.44785 0.0
H323 H 0.50637 -0.00428 0.51617 0.0
C324 C 0.53064 0.02023 0.47616 0.0
C325 C 0.52988 0.02461 0.4439 0.0
C326 C 0.42964 0.93483 0.47266 0.0
C327 C 0.47949 0.98078 0.47383 0.0
C328 C 0.40434 0.91384 0.48834 0.0
C329 C 0.4012 0.91671 0.52051 0.0
C330 C 0.45208 0.95848 0.48942 0.0
C331 C 0.42379 0.94106 0.53628 0.0
C332 C 0.50548 -0.00151 0.49119 0.0
C333 C 0.50372 0.006 0.42723 0.0
N334 N 0.44842 0.96093 0.52059 0.0
N335 N 0.47947 0.98483 0.44242 0.0
H336 H 0.49283 0.53119 0.93393 0.0
H337 H 0.47408 0.40068 0.05943 0.0
H338 H 0.40757 0.47781 0.97995 0.0
H339 H 0.56024 0.45934 0.01822 0.0
H340 H 0.44844 0.42584 0.0277 0.0
H341 H 0.51695 0.50228 0.96181 0.0
C342 C 0.47912 0.5133 0.94983 0.0
C343 C 0.44815 0.50703 0.95473 0.0
C344 C 0.47294 0.43312 0.02553 0.0
C345 C 0.47572 0.4738 0.98683 0.0
C346 C 0.4876 0.41873 0.0436 0.0
C347 C 0.51939 0.42803 0.04161 0.0
C348 C 0.49018 0.45693 0.00527 0.0
C349 C 0.53572 0.45151 0.02065 0.0
C350 C 0.49294 0.4968 0.96578 0.0
C351 C 0.43154 0.4835 0.97554 0.0
N352 N 0.52094 0.4652 0.00338 0.0
N353 N 0.44557 0.4678 0.99092 0.0
H354 H 0.95791 0.40752 0.45616 0.0
H355 H 0.00941 0.56822 0.54341 0.0
H356 H 0.9023 0.42754 0.52438 0.0
H357 H 0.06692 0.5461 0.47922 0.0
H358 H 0.96998 0.51661 0.53704 0.0
H359 H -0.00105 0.45749 0.46594 0.0
C360 C 0.95446 0.42228 0.47348 0.0
C361 C 0.92654 0.41347 0.48929 0.0
C362 C 0.99122 0.52306 0.52433 0.0
C363 C 0.97326 0.47086 0.50026 0.0
C364 C 0.01366 0.5526 0.52779 0.0
C365 C 0.04148 0.56149 0.51178 0.0
C366 C -0.00339 0.50231 0.50468 0.0
C367 C 0.0458 0.54024 0.49198 0.0
C368 C 0.97787 0.45087 0.47896 0.0
C369 C 0.92341 0.43345 0.51158 0.0
N370 N 0.02359 0.51161 0.48901 0.0
N371 N 0.9464 0.46136 0.5162 0.0
H372 H 0.63603 0.20449 0.03596 0.0
H373 H 0.55356 0.3061 0.10487 0.0
H374 H 0.57123 0.17442 0.1116 0.0
H375 H 0.60229 0.32567 0.01749 0.0
H376 H 0.5585 0.25714 0.1072 0.0
H377 H 0.62344 0.2488 0.02857 0.0
C378 C 0.6191 0.20717 0.05098 0.0
C379 C 0.6048 0.18582 0.07458 0.0
C380 C 0.56779 0.27199 0.08734 0.0
C381 C 0.59031 0.23655 0.06627 0.0
C382 C 0.56495 0.29994 0.08597 0.0
C383 C 0.57775 0.32014 0.06107 0.0
C384 C 0.58385 0.26434 0.06381 0.0
C385 C 0.59216 0.31089 0.03719 0.0
C386 C 0.61181 0.23241 0.04665 0.0
C387 C 0.58288 0.19035 0.09318 0.0
N388 N 0.59514 0.28384 0.03934 0.0
N389 N 0.57648 0.21535 0.0888 0.0
H390 H 0.33615 0.57914 0.53068 0.0
H391 H 0.22533 0.65346 0.59094 0.0
H392 H 0.32595 0.59645 0.62779 0.0
H393 H 0.20642 0.60205 0.50517 0.0
H394 H 0.26587 0.63641 0.60232 0.0
H395 H 0.29085 0.58925 0.51867 0.0
C396 C 0.32412 0.58451 0.54953 0.0
C397 C 0.33505 0.58724 0.58027 0.0
C398 C 0.25282 0.62876 0.58103 0.0
C399 C 0.28384 0.59938 0.56657 0.0
C400 C 0.22982 0.63871 0.57437 0.0
C401 C 0.2125 0.62921 0.54702 0.0
C402 C 0.25895 0.60949 0.56002 0.0
C403 C 0.21925 0.60987 0.52654 0.0
C404 C 0.29837 0.59036 0.54262 0.0
C405 C 0.31858 0.59433 0.60373 0.0
N406 N 0.24215 0.60077 0.53334 0.0
N407 N 0.29409 0.60056 0.59633 0.0
H408 H 0.87459 0.26641 0.08104 0.0
H409 H 0.72451 0.17933 0.98162 0.0
H410 H 0.83918 0.30763 0.01021 0.0
H411 H 0.7468 0.14549 0.06734 0.0
H412 H 0.77651 0.21888 0.97985 0.0
H413 H 0.83823 0.21583 0.06414 0.0
C414 C 0.8597 0.26479 0.06145 0.0
C415 C 0.85924 0.29121 0.04755 0.0
C416 C 0.77021 0.20232 -0.00136 0.0
C417 C 0.81779 0.23366 0.02819 0.0
C418 C 0.74055 0.17966 -0.00037 0.0
C419 C 0.73105 0.15974 0.02522 0.0
C420 C 0.79036 0.20501 0.02343 0.0
C421 C 0.75296 0.16095 0.04761 0.0
C422 C 0.83894 0.23595 0.05186 0.0
C423 C 0.83972 0.28782 0.02208 0.0
N424 N 0.78145 0.18367 0.04655 0.0
N425 N 0.81941 0.25958 0.01353 0.0
H426 H 0.34354 0.77943 0.5469 0.0
H427 H 0.46185 0.70284 0.57521 0.0
H428 H 0.42602 0.8222 0.60121 0.0
H429 H 0.38959 0.67048 0.50668 0.0
H430 H 0.45055 0.74781 0.58365 0.0
H431 H 0.36049 0.73956 0.53151 0.0
C432 C 0.3652 0.78042 0.55562 0.0
C433 C 0.3833 0.8041 0.57553 0.0
C434 C 0.43746 0.73107 0.56645 0.0
C435 C 0.40293 0.75858 0.55789 0.0
C436 C 0.44399 0.70544 0.56151 0.0
C437 C 0.42648 0.68269 0.54039 0.0
C438 C 0.41303 0.7338 0.55039 0.0
C439 C 0.40363 0.68733 0.52329 0.0
C440 C 0.37496 0.75775 0.54667 0.0
C441 C 0.41128 0.80434 0.58591 0.0
N442 N 0.39729 0.71214 0.52898 0.0
N443 N 0.42014 0.78182 0.57713 0.0
H444 H 0.68478 0.44178 0.10927 0.0
H445 H 0.81047 0.41769 0.00338 0.0
H446 H 0.6802 0.43768 0.00886 0.0
H447 H 0.81073 0.41679 0.10393 0.0
H448 H 0.7667 0.43192 0.00439 0.0
H449 H 0.73515 0.44046 0.10711 0.0
C450 C 0.69455 0.44102 0.08671 0.0
C451 C 0.67805 0.43942 0.05921 0.0
C452 C 0.7765 0.42883 0.02621 0.0
C453 C 0.73568 0.43749 0.05659 0.0
C454 C 0.80147 0.42068 0.02566 0.0
C455 C 0.81406 0.41568 0.05362 0.0
C456 C 0.76407 0.43204 0.05492 0.0
C457 C 0.80158 0.42008 0.0818 0.0
C458 C 0.72332 0.44018 0.08549 0.0
C459 C 0.69202 0.43878 0.03065 0.0
N460 N 0.77719 0.4278 0.08171 0.0
N461 N 0.71989 0.4374 0.03009 0.0
H462 H 0.1645 0.72011 0.464 0.0
H463 H 0.23594 0.84441 0.58297 0.0
H464 H 0.11074 0.73277 0.53896 0.0
H465 H 0.26938 0.85721 0.48856 0.0
H466 H 0.18603 0.80886 0.56423 0.0
H467 H 0.19848 0.77426 0.46711 0.0
C468 C 0.15932 0.7345 0.48048 0.0
C469 C 0.13539 0.72177 0.50193 0.0
C470 C 0.20394 0.82011 0.54741 0.0
C471 C 0.17448 0.78344 0.50611 0.0
C472 C 0.23244 0.84032 0.55817 0.0
C473 C 0.2568 0.8532 0.53731 0.0
C474 C 0.20021 0.81194 0.51577 0.0
C475 C 0.25115 0.84746 0.50539 0.0
C476 C 0.17869 0.76546 0.48222 0.0
C477 C 0.12936 0.74151 0.52243 0.0
N478 N 0.22364 0.82644 0.49564 0.0
N479 N 0.14939 0.77121 0.52472 0.0
H480 H 0.81293 0.42393 0.41594 0.0
H481 H 0.65838 0.37437 0.51431 0.0
H482 H 0.78143 0.34834 0.48079 0.0
H483 H 0.67842 0.43362 0.43384 0.0
H484 H 0.70822 0.37201 0.5089 0.0
H485 H 0.76822 0.43444 0.42848 0.0
C486 C 0.79673 0.40966 0.43296 0.0
C487 C 0.80077 0.38502 0.44712 0.0
C488 C 0.70182 0.38576 0.49262 0.0
C489 C 0.74969 0.39707 0.46168 0.0
C490 C 0.67343 0.38728 0.49577 0.0
C491 C 0.66404 0.40396 0.47427 0.0
C492 C 0.72107 0.40115 0.46788 0.0
C493 C 0.68459 0.42027 0.45079 0.0
C494 C 0.7712 0.41567 0.44007 0.0
C495 C 0.77908 0.36738 0.46909 0.0
N496 N 0.71206 0.41827 0.44808 0.0
N497 N 0.75443 0.3737 0.47562 0.0
H498 H 0.27543 0.85685 0.92275 0.0
H499 H 0.16112 0.69344 0.98338 0.0
H500 H 0.2953 0.80653 0.99699 0.0
H501 H 0.15693 0.73055 0.89257 0.0
H502 H 0.19998 0.7432 -0.00116 0.0
H503 H 0.22229 0.81954 0.92289 0.0
C504 C 0.26844 0.83851 0.93974 0.0
C505 C 0.28994 0.83428 0.95936 0.0
C506 C 0.19003 0.74058 0.97577 0.0
C507 C 0.22939 0.79162 0.95948 0.0
C508 C 0.16783 0.71222 0.96692 0.0
C509 C 0.15642 0.70767 0.93635 0.0
C510 C 0.20069 0.76449 0.95395 0.0
C511 C 0.16567 0.73291 0.91614 0.0
C512 C 0.23814 0.81716 0.93968 0.0
C513 C 0.27955 0.81023 0.98101 0.0
N514 N 0.18765 0.76015 0.92514 0.0
N515 N 0.25009 0.78945 0.98013 0.0
H516 H 0.58785 0.18175 0.5055 0.0
H517 H 0.51611 0.27882 0.40651 0.0
H518 H 0.56039 0.16423 0.40915 0.0
H519 H 0.56324 0.30927 0.49401 0.0
H520 H 0.52188 0.23055 0.41229 0.0
H521 H 0.56952 0.2228 0.50609 0.0
C522 C 0.57775 0.18636 0.48455 0.0
C523 C 0.57598 0.16979 0.45712 0.0
C524 C 0.53061 0.24766 0.43041 0.0
C525 C 0.5548 0.2165 0.45774 0.0
C526 C 0.52717 0.27518 0.42723 0.0
C527 C 0.53963 0.29835 0.44957 0.0
C528 C 0.54654 0.24323 0.45615 0.0
C529 C 0.55358 0.29219 0.47602 0.0
C530 C 0.56731 0.20978 0.48492 0.0
C531 C 0.56255 0.17666 0.43071 0.0
N532 N 0.55697 0.26535 0.47841 0.0
N533 N 0.5526 0.19957 0.43165 0.0
H534 H 0.18142 0.55799 0.84184 0.0
H535 H 0.29412 0.55625 0.97919 0.0
H536 H 0.18649 0.60074 0.9314 0.0
H537 H 0.29662 0.52226 0.88658 0.0
H538 H 0.24931 0.56557 0.96436 0.0
H539 H 0.21894 0.53872 0.85981 0.0
C540 C 0.19034 0.56326 0.86531 0.0
C541 C 0.18098 0.58124 0.88505 0.0
C542 C 0.25945 0.55576 0.94737 0.0
C543 C 0.2238 0.5591 0.90581 0.0
C544 C 0.28497 0.55026 0.95588 0.0
C545 C 0.29942 0.53879 0.93399 0.0
C546 C 0.24828 0.5498 0.91673 0.0
C547 C 0.2864 0.53135 0.90417 0.0
C548 C 0.21173 0.5522 0.87556 0.0
C549 C 0.19321 0.58718 0.91528 0.0
N550 N 0.26177 0.5373 0.89631 0.0
N551 N 0.21405 0.57624 0.92468 0.0
H552 H 0.68374 0.14189 0.49891 0.0
H553 H 0.8443 0.24255 0.43345 0.0
H554 H 0.7246 0.11359 0.42238 0.0
H555 H 0.81161 0.25959 0.52201 0.0
H556 H 0.80622 0.18992 0.43524 0.0
H557 H 0.73427 0.17879 0.51432 0.0
C558 C 0.70348 0.14302 0.48574 0.0
C559 C 0.69997 0.12526 0.45889 0.0
C560 C 0.80781 0.2049 0.45468 0.0
C561 C 0.75779 0.16785 0.47596 0.0
C562 C 0.82957 0.235 0.45364 0.0
C563 C 0.83046 0.25571 0.47716 0.0
C564 C 0.78647 0.1957 0.47909 0.0
C565 C 0.81128 0.24456 0.50304 0.0
C566 C 0.73238 0.16406 0.49457 0.0
C567 C 0.72629 0.12721 0.44298 0.0
N568 N 0.7895 0.21551 0.50294 0.0
N569 N 0.75406 0.14876 0.45128 0.0
H570 H 0.46598 0.66951 0.91867 0.0
H571 H 0.37554 0.75307 0.00987 0.0
H572 H 0.39364 0.624 0.9846 0.0
H573 H 0.43121 0.79018 0.92849 0.0
H574 H 0.39021 0.70955 0.0086 0.0
H575 H 0.46217 0.71791 0.93048 0.0
C576 C 0.44971 0.66977 0.93607 0.0
C577 C 0.42979 0.64259 0.95035 0.0
C578 C 0.39941 0.72738 0.99121 0.0
C579 C 0.42517 0.69781 0.96373 0.0
C580 C 0.39107 0.75223 0.99192 0.0
C581 C 0.40186 0.77509 0.969 0.0
C582 C 0.41882 0.72551 0.96754 0.0
C583 C 0.42204 0.77289 0.94639 0.0
C584 C 0.44742 0.69738 0.94265 0.0
C585 C 0.4092 0.64435 0.97275 0.0
N586 N 0.42974 0.74844 0.94613 0.0
N587 N 0.4072 0.67144 0.97853 0.0
loop_
_geom_bond_atom_site_label_1
_geom_bond_atom_site_label_2
_geom_bond_distance
_geom_bond_site_symmetry_2
_ccdc_geom_bond_type
C0 O1 1.160 . S
C0 O7 1.185 . S
O1 C0 1.160 . S
O2 Zn3 1.899 . S
O2 C10 1.284 . S
Zn3 O2 1.899 . S
Zn3 O4 2.032 . S
Zn3 O7 2.086 . S
Zn3 O12 1.977 . S
O4 Zn3 2.032 . S
O4 C8 1.278 . S
C5 O6 1.203 . S
C5 O12 1.267 . S
O6 C5 1.203 . S
O7 C0 1.185 . S
O7 Zn3 2.086 . S
C8 O4 1.278 . S
C8 O9 1.211 . S
O9 C8 1.211 . S
C10 O2 1.284 . S
C10 O11 1.273 . S
O11 C10 1.273 . S
O12 Zn3 1.977 . S
O12 C5 1.267 . S
C13 O14 1.160 . S
C13 O20 1.185 . S
O14 C13 1.160 . S
O15 Zn16 1.899 . S
O15 C23 1.284 . S
Zn16 O15 1.899 . S
Zn16 O17 2.032 . S
Zn16 O20 2.086 . S
Zn16 O25 1.977 . S
O17 Zn16 2.032 . S
O17 C21 1.278 . S
C18 O19 1.203 . S
C18 O25 1.267 . S
O19 C18 1.203 . S
O20 C13 1.185 . S
O20 Zn16 2.086 . S
C21 O17 1.278 . S
C21 O22 1.211 . S
O22 C21 1.211 . S
C23 O15 1.284 . S
C23 O24 1.273 . S
O24 C23 1.273 . S
O25 Zn16 1.977 . S
O25 C18 1.267 . S
C26 O27 1.160 . S
C26 O33 1.185 . S
O27 C26 1.160 . S
O28 Zn29 1.899 . S
O28 C36 1.284 . S
Zn29 O28 1.899 . S
Zn29 O30 2.032 . S
Zn29 O33 2.086 . S
Zn29 O38 1.977 . S
O30 Zn29 2.032 . S
O30 C34 1.278 . S
C31 O32 1.203 . S
C31 O38 1.267 . S
O32 C31 1.203 . S
O33 C26 1.185 . S
O33 Zn29 2.086 . S
C34 O30 1.278 . S
C34 O35 1.211 . S
O35 C34 1.211 . S
C36 O28 1.284 . S
C36 O37 1.273 . S
O37 C36 1.273 . S
O38 Zn29 1.977 . S
O38 C31 1.267 . S
C39 O40 1.160 . S
C39 O46 1.185 . S
O40 C39 1.160 . S
O41 Zn42 1.899 . S
O41 C49 1.284 . S
Zn42 O41 1.899 . S
Zn42 O43 2.032 . S
Zn42 O46 2.086 . S
Zn42 O51 1.977 . S
O43 Zn42 2.032 . S
O43 C47 1.278 . S
C44 O45 1.203 . S
C44 O51 1.267 . S
O45 C44 1.203 . S
O46 C39 1.185 . S
O46 Zn42 2.086 . S
C47 O43 1.278 . S
C47 O48 1.211 . S
O48 C47 1.211 . S
C49 O41 1.284 . S
C49 O50 1.273 . S
O50 C49 1.273 . S
O51 Zn42 1.977 . S
O51 C44 1.267 . S
C52 O53 1.160 . S
C52 O59 1.185 . S
O53 C52 1.160 . S
O54 Zn55 1.899 . S
O54 C62 1.284 . S
Zn55 O54 1.899 . S
Zn55 O56 2.032 . S
Zn55 O59 2.086 . S
Zn55 O64 1.977 . S
O56 Zn55 2.032 . S
O56 C60 1.278 . S
C57 O58 1.203 . S
C57 O64 1.267 . S
O58 C57 1.203 . S
O59 C52 1.185 . S
O59 Zn55 2.086 . S
C60 O56 1.278 . S
C60 O61 1.211 . S
O61 C60 1.211 . S
C62 O54 1.284 . S
C62 O63 1.273 . S
O63 C62 1.273 . S
O64 Zn55 1.977 . S
O64 C57 1.267 . S
C65 O66 1.160 . S
C65 O72 1.185 . S
O66 C65 1.160 . S
O67 Zn68 1.899 . S
O67 C75 1.284 . S
Zn68 O67 1.899 . S
Zn68 O69 2.032 . S
Zn68 O72 2.086 . S
Zn68 O77 1.977 . S
O69 Zn68 2.032 . S
O69 C73 1.278 . S
C70 O71 1.203 . S
C70 O77 1.267 . S
O71 C70 1.203 . S
O72 C65 1.185 . S
O72 Zn68 2.086 . S
C73 O69 1.278 . S
C73 O74 1.211 . S
O74 C73 1.211 . S
C75 O67 1.284 . S
C75 O76 1.273 . S
O76 C75 1.273 . S
O77 Zn68 1.977 . S
O77 C70 1.267 . S
C78 O79 1.160 . S
C78 O85 1.185 . S
O79 C78 1.160 . S
O80 Zn81 1.899 . S
O80 C88 1.284 . S
Zn81 O80 1.899 . S
Zn81 O82 2.032 . S
Zn81 O85 2.086 . S
Zn81 O90 1.977 . S
O82 Zn81 2.032 . S
O82 C86 1.278 . S
C83 O84 1.203 . S
C83 O90 1.267 . S
O84 C83 1.203 . S
O85 C78 1.185 . S
O85 Zn81 2.086 . S
C86 O82 1.278 . S
C86 O87 1.211 . S
O87 C86 1.211 . S
C88 O80 1.284 . S
C88 O89 1.273 . S
O89 C88 1.273 . S
O90 Zn81 1.977 . S
O90 C83 1.267 . S
C91 O92 1.160 . S
C91 O98 1.185 . S
O92 C91 1.160 . S
O93 Zn94 1.899 . S
O93 C101 1.284 . S
Zn94 O93 1.899 . S
Zn94 O95 2.032 . S
Zn94 O98 2.086 . S
Zn94 O103 1.977 . S
O95 Zn94 2.032 . S
O95 C99 1.278 . S
C96 O97 1.203 . S
C96 O103 1.267 . S
O97 C96 1.203 . S
O98 C91 1.185 . S
O98 Zn94 2.086 . S
C99 O95 1.278 . S
C99 O100 1.211 . S
O100 C99 1.211 . S
C101 O93 1.284 . S
C101 O102 1.273 . S
O102 C101 1.273 . S
O103 Zn94 1.977 . S
O103 C96 1.267 . S
C104 O105 1.160 . S
C104 O111 1.185 . S
O105 C104 1.160 . S
O106 Zn107 1.899 . S
O106 C114 1.284 . S
Zn107 O106 1.899 . S
Zn107 O108 2.032 . S
Zn107 O111 2.086 . S
Zn107 O116 1.977 . S
O108 Zn107 2.032 . S
O108 C112 1.278 . S
C109 O110 1.203 . S
C109 O116 1.267 . S
O110 C109 1.203 . S
O111 C104 1.185 . S
O111 Zn107 2.086 . S
C112 O108 1.278 . S
C112 O113 1.211 . S
O113 C112 1.211 . S
C114 O106 1.284 . S
C114 O115 1.273 . S
O115 C114 1.273 . S
O116 Zn107 1.977 . S
O116 C109 1.267 . S
C117 O118 1.160 . S
C117 O124 1.185 . S
O118 C117 1.160 . S
O119 Zn120 1.899 . S
O119 C127 1.284 . S
Zn120 O119 1.899 . S
Zn120 O121 2.032 . S
Zn120 O124 2.086 . S
Zn120 O129 1.977 . S
O121 Zn120 2.032 . S
O121 C125 1.278 . S
C122 O123 1.203 . S
C122 O129 1.267 . S
O123 C122 1.203 . S
O124 C117 1.185 . S
O124 Zn120 2.086 . S
C125 O121 1.278 . S
C125 O126 1.211 . S
O126 C125 1.211 . S
C127 O119 1.284 . S
C127 O128 1.273 . S
O128 C127 1.273 . S
O129 Zn120 1.977 . S
O129 C122 1.267 . S
C130 O131 1.160 . S
C130 O137 1.185 . S
O131 C130 1.160 . S
O132 Zn133 1.899 . S
O132 C140 1.284 . S
Zn133 O132 1.899 . S
Zn133 O134 2.032 . S
Zn133 O137 2.086 . S
Zn133 O142 1.977 . S
O134 Zn133 2.032 . S
O134 C138 1.278 . S
C135 O136 1.203 . S
C135 O142 1.267 . S
O136 C135 1.203 . S
O137 C130 1.185 . S
O137 Zn133 2.086 . S
C138 O134 1.278 . S
C138 O139 1.211 . S
O139 C138 1.211 . S
C140 O132 1.284 . S
C140 O141 1.273 . S
O141 C140 1.273 . S
O142 Zn133 1.977 . S
O142 C135 1.267 . S
C143 O144 1.160 . S
C143 O150 1.185 . S
O144 C143 1.160 . S
O145 Zn146 1.899 . S
O145 C153 1.284 . S
Zn146 O145 1.899 . S
Zn146 O147 2.032 . S
Zn146 O150 2.086 . S
Zn146 O155 1.977 . S
O147 Zn146 2.032 . S
O147 C151 1.278 . S
C148 O149 1.203 . S
C148 O155 1.267 . S
O149 C148 1.203 . S
O150 C143 1.185 . S
O150 Zn146 2.086 . S
C151 O147 1.278 . S
C151 O152 1.211 . S
O152 C151 1.211 . S
C153 O145 1.284 . S
C153 O154 1.273 . S
O154 C153 1.273 . S
O155 Zn146 1.977 . S
O155 C148 1.267 . S
H156 C162 0.930 . S
H157 C166 0.930 . S
H158 C171 0.929 . S
H159 C169 0.929 . S
H160 C164 0.929 . S
H161 C170 0.929 . S
C162 H156 0.930 . S
C162 C163 1.367 . S
C162 C170 1.378 . S
C163 C162 1.367 . S
C163 C171 1.433 . S
C164 H160 0.929 . S
C164 C166 1.378 . S
C164 C168 1.350 . S
C165 C168 1.463 . S
C165 C170 1.350 . S
C165 N173 1.427 . S
C166 H157 0.930 . S
C166 C164 1.378 . S
C166 C167 1.367 . S
C167 C166 1.367 . S
C167 C169 1.433 . S
C168 C164 1.350 . S
C168 C165 1.463 . S
C168 N172 1.427 . S
C169 H159 0.929 . S
C169 C167 1.433 . S
C169 N172 1.384 . S
C170 H161 0.929 . S
C170 C162 1.378 . S
C170 C165 1.350 . S
C171 H158 0.929 . S
C171 C163 1.433 . S
C171 N173 1.384 . S
N172 C168 1.427 . S
N172 C169 1.384 . S
N173 C165 1.427 . S
N173 C171 1.384 . S
H174 C180 0.930 . S
H175 C184 0.930 . S
H176 C189 0.929 . S
H177 C187 0.929 . S
H178 C182 0.929 . S
H179 C188 0.929 . S
C180 H174 0.930 . S
C180 C181 1.367 . S
C180 C188 1.378 . S
C181 C180 1.367 . S
C181 C189 1.433 . S
C182 H178 0.929 . S
C182 C184 1.378 . S
C182 C186 1.350 . S
C183 C186 1.463 . S
C183 C188 1.350 . S
C183 N191 1.427 . S
C184 H175 0.930 . S
C184 C182 1.378 . S
C184 C185 1.367 . S
C185 C184 1.367 . S
C185 C187 1.433 . S
C186 C182 1.350 . S
C186 C183 1.463 . S
C186 N190 1.427 . S
C187 H177 0.929 . S
C187 C185 1.433 . S
C187 N190 1.384 . S
C188 H179 0.929 . S
C188 C180 1.378 . S
C188 C183 1.350 . S
C189 H176 0.929 . S
C189 C181 1.433 . S
C189 N191 1.384 . S
N190 C186 1.427 . S
N190 C187 1.384 . S
N191 C183 1.427 . S
N191 C189 1.384 . S
H192 C198 0.930 . S
H193 C202 0.930 . S
H194 C207 0.929 . S
H195 C205 0.929 . S
H196 C200 0.929 . S
H197 C206 0.929 . S
C198 H192 0.930 . S
C198 C199 1.367 . S
C198 C206 1.378 . S
C199 C198 1.367 . S
C199 C207 1.433 . S
C200 H196 0.929 . S
C200 C202 1.378 . S
C200 C204 1.350 . S
C201 C204 1.463 . S
C201 C206 1.350 . S
C201 N209 1.427 . S
C202 H193 0.930 . S
C202 C200 1.378 . S
C202 C203 1.367 . S
C203 C202 1.367 . S
C203 C205 1.433 . S
C204 C200 1.350 . S
C204 C201 1.463 . S
C204 N208 1.427 . S
C205 H195 0.929 . S
C205 C203 1.433 . S
C205 N208 1.384 . S
C206 H197 0.929 . S
C206 C198 1.378 . S
C206 C201 1.350 . S
C207 H194 0.929 . S
C207 C199 1.433 . S
C207 N209 1.384 . S
N208 C204 1.427 . S
N208 C205 1.384 . S
N209 C201 1.427 . S
N209 C207 1.384 . S
H210 C216 0.930 . S
H211 C220 0.930 . S
H212 C225 0.929 . S
H213 C223 0.929 . S
H214 C218 0.929 . S
H215 C224 0.929 . S
C216 H210 0.930 . S
C216 C217 1.367 . S
C216 C224 1.378 . S
C217 C216 1.367 . S
C217 C225 1.433 . S
C218 H214 0.929 . S
C218 C220 1.378 . S
C218 C222 1.350 . S
C219 C222 1.463 . S
C219 C224 1.350 . S
C219 N227 1.427 . S
C220 H211 0.930 . S
C220 C218 1.378 . S
C220 C221 1.367 . S
C221 C220 1.367 . S
C221 C223 1.433 . S
C222 C218 1.350 . S
C222 C219 1.463 . S
C222 N226 1.427 . S
C223 H213 0.929 . S
C223 C221 1.433 . S
C223 N226 1.384 . S
C224 H215 0.929 . S
C224 C216 1.378 . S
C224 C219 1.350 . S
C225 H212 0.929 . S
C225 C217 1.433 . S
C225 N227 1.384 . S
N226 C222 1.427 . S
N226 C223 1.384 . S
N227 C219 1.427 . S
N227 C225 1.384 . S
H228 C234 0.930 . S
H229 C238 0.930 . S
H230 C243 0.929 . S
H231 C241 0.929 . S
H232 C236 0.929 . S
H233 C242 0.929 . S
C234 H228 0.930 . S
C234 C235 1.367 . S
C234 C242 1.378 . S
C235 C234 1.367 . S
C235 C243 1.433 . S
C236 H232 0.929 . S
C236 C238 1.378 . S
C236 C240 1.350 . S
C237 C240 1.463 . S
C237 C242 1.350 . S
C237 N245 1.427 . S
C238 H229 0.930 . S
C238 C236 1.378 . S
C238 C239 1.367 . S
C239 C238 1.367 . S
C239 C241 1.433 . S
C240 C236 1.350 . S
C240 C237 1.463 . S
C240 N244 1.427 . S
C241 H231 0.929 . S
C241 C239 1.433 . S
C241 N244 1.384 . S
C242 H233 0.929 . S
C242 C234 1.378 . S
C242 C237 1.350 . S
C243 H230 0.929 . S
C243 C235 1.433 . S
C243 N245 1.384 . S
N244 C240 1.427 . S
N244 C241 1.384 . S
N245 C237 1.427 . S
N245 C243 1.384 . S
H246 C252 0.930 . S
H247 C256 0.930 . S
H248 C261 0.929 . S
H249 C259 0.929 . S
H250 C254 0.929 . S
H251 C260 0.929 . S
C252 H246 0.930 . S
C252 C253 1.367 . S
C252 C260 1.378 . S
C253 C252 1.367 . S
C253 C261 1.433 . S
C254 H250 0.929 . S
C254 C256 1.378 . S
C254 C258 1.350 . S
C255 C258 1.463 . S
C255 C260 1.350 . S
C255 N263 1.427 . S
C256 H247 0.930 . S
C256 C254 1.378 . S
C256 C257 1.367 . S
C257 C256 1.367 . S
C257 C259 1.433 . S
C258 C254 1.350 . S
C258 C255 1.463 . S
C258 N262 1.427 . S
C259 H249 0.929 . S
C259 C257 1.433 . S
C259 N262 1.384 . S
C260 H251 0.929 . S
C260 C252 1.378 . S
C260 C255 1.350 . S
C261 H248 0.929 . S
C261 C253 1.433 . S
C261 N263 1.384 . S
N262 C258 1.427 . S
N262 C259 1.384 . S
N263 C255 1.427 . S
N263 C261 1.384 . S
H264 C270 0.930 . S
H265 C274 0.930 . S
H266 C279 0.929 . S
H267 C277 0.929 . S
H268 C272 0.929 1_545 S
H269 C278 0.929 1_565 S
C270 H264 0.930 . S
C270 C271 1.367 . S
C270 C278 1.378 . S
C271 C270 1.367 . S
C271 C279 1.433 . S
C272 H268 0.929 1_565 S
C272 C274 1.378 . S
C272 C276 1.350 . S
C273 C276 1.463 1_544 S
C273 C278 1.350 . S
C273 N281 1.427 . S
C274 H265 0.930 . S
C274 C272 1.378 . S
C274 C275 1.367 . S
C275 C274 1.367 . S
C275 C277 1.433 . S
C276 C272 1.350 . S
C276 C273 1.463 1_566 S
C276 N280 1.427 . S
C277 H267 0.929 . S
C277 C275 1.433 . S
C277 N280 1.384 . S
C278 H269 0.929 1_545 S
C278 C270 1.378 . S
C278 C273 1.350 . S
C279 H266 0.929 . S
C279 C271 1.433 . S
C279 N281 1.384 . S
N280 C276 1.427 . S
N280 C277 1.384 . S
N281 C273 1.427 . S
N281 C279 1.384 . S
H282 C288 0.930 . S
H283 C292 0.930 . S
H284 C297 0.929 . S
H285 C295 0.929 . S
H286 C290 0.929 . S
H287 C296 0.929 . S
C288 H282 0.930 . S
C288 C289 1.367 . S
C288 C296 1.378 . S
C289 C288 1.367 . S
C289 C297 1.433 . S
C290 H286 0.929 . S
C290 C292 1.378 . S
C290 C294 1.350 . S
C291 C294 1.463 . S
C291 C296 1.350 . S
C291 N299 1.427 . S
C292 H283 0.930 . S
C292 C290 1.378 . S
C292 C293 1.367 . S
C293 C292 1.367 . S
C293 C295 1.433 . S
C294 C290 1.350 . S
C294 C291 1.463 . S
C294 N298 1.427 . S
C295 H285 0.929 . S
C295 C293 1.433 . S
C295 N298 1.384 . S
C296 H287 0.929 . S
C296 C288 1.378 . S
C296 C291 1.350 . S
C297 H284 0.929 . S
C297 C289 1.433 . S
C297 N299 1.384 . S
N298 C294 1.427 . S
N298 C295 1.384 . S
N299 C291 1.427 . S
N299 C297 1.384 . S
H300 C306 0.930 . S
H301 C310 0.930 . S
H302 C315 0.914 1_554 S
H303 C313 0.945 . S
H304 C308 0.929 . S
H305 C314 0.937 . S
C306 H300 0.930 . S
C306 C307 1.367 . S
C306 C314 1.378 . S
C307 C306 1.367 . S
C307 C315 1.459 . S
C308 H304 0.929 . S
C308 C310 1.378 . S
C308 C312 1.350 . S
C309 C312 1.463 1_456 S
C309 C314 1.350 . S
C309 N317 1.427 1_556 S
C310 H301 0.930 . S
C310 C308 1.378 . S
C310 C311 1.367 . S
C311 C310 1.367 . S
C311 C313 1.406 1_554 S
C312 C308 1.350 . S
C312 C309 1.463 1_654 S
C312 N316 1.427 1_554 S
C313 H303 0.945 . S
C313 C311 1.406 1_556 S
C313 N316 1.395 . S
C314 H305 0.937 . S
C314 C306 1.378 . S
C314 C309 1.350 . S
C315 H302 0.914 1_556 S
C315 C307 1.459 . S
C315 N317 1.374 1_556 S
N316 C312 1.427 1_556 S
N316 C313 1.395 . S
N317 C309 1.427 1_554 S
N317 C315 1.374 1_554 S
H318 C324 0.930 . S
H319 C328 0.930 . S
H320 C333 0.929 . S
H321 C331 0.929 . S
H322 C326 0.929 . S
H323 C332 0.929 . S
C324 H318 0.930 . S
C324 C325 1.367 . S
C324 C332 1.378 . S
C325 C324 1.367 . S
C325 C333 1.433 . S
C326 H322 0.929 . S
C326 C328 1.378 . S
C326 C330 1.350 . S
C327 C330 1.463 1_545 S
C327 C332 1.350 . S
C327 N335 1.427 . S
C328 H319 0.930 . S
C328 C326 1.378 . S
C328 C329 1.367 . S
C329 C328 1.367 . S
C329 C331 1.433 . S
C330 C326 1.350 . S
C330 C327 1.463 1_565 S
C330 N334 1.427 . S
C331 H321 0.929 . S
C331 C329 1.433 . S
C331 N334 1.384 . S
C332 H323 0.929 . S
C332 C324 1.378 . S
C332 C327 1.350 . S
C333 H320 0.929 . S
C333 C325 1.433 . S
C333 N335 1.384 . S
N334 C330 1.427 . S
N334 C331 1.384 . S
N335 C327 1.427 . S
N335 C333 1.384 . S
H336 C342 0.930 . S
H337 C346 0.930 . S
H338 C351 0.929 1_554 S
H339 C349 0.929 1_556 S
H340 C344 0.929 . S
H341 C350 0.929 . S
C342 H336 0.930 . S
C342 C343 1.367 . S
C342 C350 1.378 . S
C343 C342 1.367 . S
C343 C351 1.433 . S
C344 H340 0.929 . S
C344 C346 1.378 . S
C344 C348 1.350 . S
C345 C348 1.463 1_556 S
C345 C350 1.350 . S
C345 N353 1.427 1_556 S
C346 H337 0.930 . S
C346 C344 1.378 . S
C346 C347 1.367 . S
C347 C346 1.367 . S
C347 C349 1.433 . S
C348 C344 1.350 . S
C348 C345 1.463 1_554 S
C348 N352 1.427 1_554 S
C349 H339 0.929 1_554 S
C349 C347 1.433 . S
C349 N352 1.384 1_554 S
C350 H341 0.929 . S
C350 C342 1.378 . S
C350 C345 1.350 . S
C351 H338 0.929 1_556 S
C351 C343 1.433 . S
C351 N353 1.384 1_556 S
N352 C348 1.427 1_556 S
N352 C349 1.384 1_556 S
N353 C345 1.427 1_554 S
N353 C351 1.384 1_554 S
H354 C360 0.930 . S
H355 C364 0.930 . S
H356 C369 0.929 . S
H357 C367 0.929 . S
H358 C362 0.953 . S
H359 C368 0.923 1_455 S
C360 H354 0.930 . S
C360 C361 1.367 . S
C360 C368 1.378 . S
C361 C360 1.367 . S
C361 C369 1.433 . S
C362 H358 0.953 . S
C362 C364 1.378 . S
C362 C366 1.350 . S
C363 C366 1.463 1_655 S
C363 C368 1.350 . S
C363 N371 1.427 . S
C364 H355 0.930 . S
C364 C362 1.378 . S
C364 C365 1.367 . S
C365 C364 1.367 . S
C365 C367 1.433 . S
C366 C362 1.350 . S
C366 C363 1.463 1_455 S
C366 N370 1.427 . S
C367 H357 0.929 . S
C367 C365 1.433 . S
C367 N370 1.384 . S
C368 H359 0.923 1_655 S
C368 C360 1.378 . S
C368 C363 1.350 . S
C369 H356 0.929 . S
C369 C361 1.433 . S
C369 N371 1.384 . S
N370 C366 1.427 . S
N370 C367 1.384 . S
N371 C363 1.427 . S
N371 C369 1.384 . S
H372 C378 0.930 . S
H373 C382 0.930 . S
H374 C387 0.929 . S
H375 C385 0.929 . S
H376 C380 0.929 . S
H377 C386 0.929 . S
C378 H372 0.930 . S
C378 C379 1.367 . S
C378 C386 1.378 . S
C379 C378 1.367 . S
C379 C387 1.433 . S
C380 H376 0.929 . S
C380 C382 1.378 . S
C380 C384 1.350 . S
C381 C384 1.463 . S
C381 C386 1.350 . S
C381 N389 1.427 . S
C382 H373 0.930 . S
C382 C380 1.378 . S
C382 C383 1.367 . S
C383 C382 1.367 . S
C383 C385 1.433 . S
C384 C380 1.350 . S
C384 C381 1.463 . S
C384 N388 1.427 . S
C385 H375 0.929 . S
C385 C383 1.433 . S
C385 N388 1.384 . S
C386 H377 0.929 . S
C386 C378 1.378 . S
C386 C381 1.350 . S
C387 H374 0.929 . S
C387 C379 1.433 . S
C387 N389 1.384 . S
N388 C384 1.427 . S
N388 C385 1.384 . S
N389 C381 1.427 . S
N389 C387 1.384 . S
H390 C396 0.930 . S
H391 C400 0.930 . S
H392 C405 0.929 . S
H393 C403 0.929 . S
H394 C398 0.929 . S
H395 C404 0.929 . S
C396 H390 0.930 . S
C396 C397 1.367 . S
C396 C404 1.378 . S
C397 C396 1.367 . S
C397 C405 1.433 . S
C398 H394 0.929 . S
C398 C400 1.378 . S
C398 C402 1.350 . S
C399 C402 1.463 . S
C399 C404 1.350 . S
C399 N407 1.427 . S
C400 H391 0.930 . S
C400 C398 1.378 . S
C400 C401 1.367 . S
C401 C400 1.367 . S
C401 C403 1.433 . S
C402 C398 1.350 . S
C402 C399 1.463 . S
C402 N406 1.427 . S
C403 H393 0.929 . S
C403 C401 1.433 . S
C403 N406 1.384 . S
C404 H395 0.929 . S
C404 C396 1.378 . S
C404 C399 1.350 . S
C405 H392 0.929 . S
C405 C397 1.433 . S
C405 N407 1.384 . S
N406 C402 1.427 . S
N406 C403 1.384 . S
N407 C399 1.427 . S
N407 C405 1.384 . S
H408 C414 0.930 . S
H409 C418 0.930 . S
H410 C423 0.929 . S
H411 C421 0.929 . S
H412 C416 0.929 . S
H413 C422 0.929 . S
C414 H408 0.930 . S
C414 C415 1.367 . S
C414 C422 1.378 . S
C415 C414 1.367 . S
C415 C423 1.433 . S
C416 H412 0.929 . S
C416 C418 1.378 . S
C416 C420 1.350 . S
C417 C420 1.463 . S
C417 C422 1.350 . S
C417 N425 1.427 . S
C418 H409 0.930 . S
C418 C416 1.378 . S
C418 C419 1.367 . S
C419 C418 1.367 . S
C419 C421 1.433 . S
C420 C416 1.350 . S
C420 C417 1.463 . S
C420 N424 1.427 . S
C421 H411 0.929 . S
C421 C419 1.433 . S
C421 N424 1.384 . S
C422 H413 0.929 . S
C422 C414 1.378 . S
C422 C417 1.350 . S
C423 H410 0.929 . S
C423 C415 1.433 . S
C423 N425 1.384 . S
N424 C420 1.427 . S
N424 C421 1.384 . S
N425 C417 1.427 . S
N425 C423 1.384 . S
H426 C432 0.930 . S
H427 C436 0.930 . S
H428 C441 0.929 . S
H429 C439 0.929 . S
H430 C434 0.929 . S
H431 C440 0.929 . S
C432 H426 0.930 . S
C432 C433 1.367 . S
C432 C440 1.378 . S
C433 C432 1.367 . S
C433 C441 1.433 . S
C434 H430 0.929 . S
C434 C436 1.378 . S
C434 C438 1.350 . S
C435 C438 1.463 . S
C435 C440 1.350 . S
C435 N443 1.427 . S
C436 H427 0.930 . S
C436 C434 1.378 . S
C436 C437 1.367 . S
C437 C436 1.367 . S
C437 C439 1.433 . S
C438 C434 1.350 . S
C438 C435 1.463 . S
C438 N442 1.427 . S
C439 H429 0.929 . S
C439 C437 1.433 . S
C439 N442 1.384 . S
C440 H431 0.929 . S
C440 C432 1.378 . S
C440 C435 1.350 . S
C441 H428 0.929 . S
C441 C433 1.433 . S
C441 N443 1.384 . S
N442 C438 1.427 . S
N442 C439 1.384 . S
N443 C435 1.427 . S
N443 C441 1.384 . S
H444 C450 0.930 . S
H445 C454 0.930 . S
H446 C459 0.929 . S
H447 C457 0.929 . S
H448 C452 0.929 . S
H449 C458 0.929 . S
C450 H444 0.930 . S
C450 C451 1.367 . S
C450 C458 1.378 . S
C451 C450 1.367 . S
C451 C459 1.433 . S
C452 H448 0.929 . S
C452 C454 1.378 . S
C452 C456 1.350 . S
C453 C456 1.463 . S
C453 C458 1.350 . S
C453 N461 1.427 . S
C454 H445 0.930 . S
C454 C452 1.378 . S
C454 C455 1.367 . S
C455 C454 1.367 . S
C455 C457 1.433 . S
C456 C452 1.350 . S
C456 C453 1.463 . S
C456 N460 1.427 . S
C457 H447 0.929 . S
C457 C455 1.433 . S
C457 N460 1.384 . S
C458 H449 0.929 . S
C458 C450 1.378 . S
C458 C453 1.350 . S
C459 H446 0.929 . S
C459 C451 1.433 . S
C459 N461 1.384 . S
N460 C456 1.427 . S
N460 C457 1.384 . S
N461 C453 1.427 . S
N461 C459 1.384 . S
H462 C468 0.930 . S
H463 C472 0.930 . S
H464 C477 0.929 . S
H465 C475 0.929 . S
H466 C470 0.929 . S
H467 C476 0.929 . S
C468 H462 0.930 . S
C468 C469 1.367 . S
C468 C476 1.378 . S
C469 C468 1.367 . S
C469 C477 1.433 . S
C470 H466 0.929 . S
C470 C472 1.378 . S
C470 C474 1.350 . S
C471 C474 1.463 . S
C471 C476 1.350 . S
C471 N479 1.427 . S
C472 H463 0.930 . S
C472 C470 1.378 . S
C472 C473 1.367 . S
C473 C472 1.367 . S
C473 C475 1.433 . S
C474 C470 1.350 . S
C474 C471 1.463 . S
C474 N478 1.427 . S
C475 H465 0.929 . S
C475 C473 1.433 . S
C475 N478 1.384 . S
C476 H467 0.929 . S
C476 C468 1.378 . S
C476 C471 1.350 . S
C477 H464 0.929 . S
C477 C469 1.433 . S
C477 N479 1.384 . S
N478 C474 1.427 . S
N478 C475 1.384 . S
N479 C471 1.427 . S
N479 C477 1.384 . S
H480 C486 0.930 . S
H481 C490 0.930 . S
H482 C495 0.929 . S
H483 C493 0.929 . S
H484 C488 0.929 . S
H485 C494 0.929 . S
C486 H480 0.930 . S
C486 C487 1.367 . S
C486 C494 1.378 . S
C487 C486 1.367 . S
C487 C495 1.433 . S
C488 H484 0.929 . S
C488 C490 1.378 . S
C488 C492 1.350 . S
C489 C492 1.463 . S
C489 C494 1.350 . S
C489 N497 1.427 . S
C490 H481 0.930 . S
C490 C488 1.378 . S
C490 C491 1.367 . S
C491 C490 1.367 . S
C491 C493 1.433 . S
C492 C488 1.350 . S
C492 C489 1.463 . S
C492 N496 1.427 . S
C493 H483 0.929 . S
C493 C491 1.433 . S
C493 N496 1.384 . S
C494 H485 0.929 . S
C494 C486 1.378 . S
C494 C489 1.350 . S
C495 H482 0.929 . S
C495 C487 1.433 . S
C495 N497 1.384 . S
N496 C492 1.427 . S
N496 C493 1.384 . S
N497 C489 1.427 . S
N497 C495 1.384 . S
H498 C504 0.930 . S
H499 C508 0.930 . S
H500 C513 0.929 . S
H501 C511 0.929 . S
H502 C506 0.929 . S
H503 C512 0.929 . S
C504 H498 0.930 . S
C504 C505 1.367 . S
C504 C512 1.378 . S
C505 C504 1.367 . S
C505 C513 1.433 . S
C506 H502 0.929 . S
C506 C508 1.378 . S
C506 C510 1.350 . S
C507 C510 1.463 . S
C507 C512 1.350 . S
C507 N515 1.427 . S
C508 H499 0.930 . S
C508 C506 1.378 . S
C508 C509 1.367 . S
C509 C508 1.367 . S
C509 C511 1.433 . S
C510 C506 1.350 . S
C510 C507 1.463 . S
C510 N514 1.427 . S
C511 H501 0.929 . S
C511 C509 1.433 . S
C511 N514 1.384 . S
C512 H503 0.929 . S
C512 C504 1.378 . S
C512 C507 1.350 . S
C513 H500 0.929 . S
C513 C505 1.433 . S
C513 N515 1.384 . S
N514 C510 1.427 . S
N514 C511 1.384 . S
N515 C507 1.427 . S
N515 C513 1.384 . S
H516 C522 0.930 . S
H517 C526 0.930 . S
H518 C531 0.929 . S
H519 C529 0.929 . S
H520 C524 0.929 . S
H521 C530 0.929 . S
C522 H516 0.930 . S
C522 C523 1.367 . S
C522 C530 1.378 . S
C523 C522 1.367 . S
C523 C531 1.433 . S
C524 H520 0.929 . S
C524 C526 1.378 . S
C524 C528 1.350 . S
C525 C528 1.463 . S
C525 C530 1.350 . S
C525 N533 1.427 . S
C526 H517 0.930 . S
C526 C524 1.378 . S
C526 C527 1.367 . S
C527 C526 1.367 . S
C527 C529 1.433 . S
C528 C524 1.350 . S
C528 C525 1.463 . S
C528 N532 1.427 . S
C529 H519 0.929 . S
C529 C527 1.433 . S
C529 N532 1.384 . S
C530 H521 0.929 . S
C530 C522 1.378 . S
C530 C525 1.350 . S
C531 H518 0.929 . S
C531 C523 1.433 . S
C531 N533 1.384 . S
N532 C528 1.427 . S
N532 C529 1.384 . S
N533 C525 1.427 . S
N533 C531 1.384 . S
H534 C540 0.930 . S
H535 C544 0.930 . S
H536 C549 0.929 . S
H537 C547 0.929 . S
H538 C542 0.929 . S
H539 C548 0.929 . S
C540 H534 0.930 . S
C540 C541 1.367 . S
C540 C548 1.378 . S
C541 C540 1.367 . S
C541 C549 1.433 . S
C542 H538 0.929 . S
C542 C544 1.378 . S
C542 C546 1.350 . S
C543 C546 1.463 . S
C543 C548 1.350 . S
C543 N551 1.427 . S
C544 H535 0.930 . S
C544 C542 1.378 . S
C544 C545 1.367 . S
C545 C544 1.367 . S
C545 C547 1.433 . S
C546 C542 1.350 . S
C546 C543 1.463 . S
C546 N550 1.427 . S
C547 H537 0.929 . S
C547 C545 1.433 . S
C547 N550 1.384 . S
C548 H539 0.929 . S
C548 C540 1.378 . S
C548 C543 1.350 . S
C549 H536 0.929 . S
C549 C541 1.433 . S
C549 N551 1.384 . S
N550 C546 1.427 . S
N550 C547 1.384 . S
N551 C543 1.427 . S
N551 C549 1.384 . S
H552 C558 0.930 . S
H553 C562 0.930 . S
H554 C567 0.929 . S
H555 C565 0.929 . S
H556 C560 0.929 . S
H557 C566 0.929 . S
C558 H552 0.930 . S
C558 C559 1.367 . S
C558 C566 1.378 . S
C559 C558 1.367 . S
C559 C567 1.433 . S
C560 H556 0.929 . S
C560 C562 1.378 . S
C560 C564 1.350 . S
C561 C564 1.463 . S
C561 C566 1.350 . S
C561 N569 1.427 . S
C562 H553 0.930 . S
C562 C560 1.378 . S
C562 C563 1.367 . S
C563 C562 1.367 . S
C563 C565 1.433 . S
C564 C560 1.350 . S
C564 C561 1.463 . S
C564 N568 1.427 . S
C565 H555 0.929 . S
C565 C563 1.433 . S
C565 N568 1.384 . S
C566 H557 0.929 . S
C566 C558 1.378 . S
C566 C561 1.350 . S
C567 H554 0.929 . S
C567 C559 1.433 . S
C567 N569 1.384 . S
N568 C564 1.427 . S
N568 C565 1.384 . S
N569 C561 1.427 . S
N569 C567 1.384 . S
H570 C576 0.930 . S
H571 C580 0.930 . S
H572 C585 0.929 . S
H573 C583 0.929 . S
H574 C578 0.929 . S
H575 C584 0.929 . S
C576 H570 0.930 . S
C576 C577 1.367 . S
C576 C584 1.378 . S
C577 C576 1.367 . S
C577 C585 1.433 . S
C578 H574 0.929 . S
C578 C580 1.378 . S
C578 C582 1.350 . S
C579 C582 1.463 . S
C579 C584 1.350 . S
C579 N587 1.427 . S
C580 H571 0.930 . S
C580 C578 1.378 . S
C580 C581 1.367 . S
C581 C580 1.367 . S
C581 C583 1.433 . S
C582 C578 1.350 . S
C582 C579 1.463 . S
C582 N586 1.427 . S
C583 H573 0.929 . S
C583 C581 1.433 . S
C583 N586 1.384 . S
C584 H575 0.929 . S
C584 C576 1.378 . S
C584 C579 1.350 . S
C585 H572 0.929 . S
C585 C577 1.433 . S
C585 N587 1.384 . S
N586 C582 1.427 . S
N586 C583 1.384 . S
N587 C579 1.427 . S
N587 C585 1.384 . S
C163 C138 1.437 . S
C167 C8 1.454 . S
C181 C21 1.330 . S
C185 C151 1.340 . S
C199 C34 1.434 . S
C203 C86 1.446 . S
C217 C99 1.434 . S
C221 C47 1.455 . S
C235 C112 1.333 . S
C239 C60 1.335 . S
C253 C73 1.435 . S
C257 C125 1.444 . S
C271 C0 0.906 . S
C275 C91 0.911 . S
C289 C13 0.792 . S
C293 C104 0.806 . S
C307 C117 0.895 . S
C311 C26 0.914 . S
C325 C130 0.909 . S
C329 C39 0.889 . S
C343 C143 0.801 . S
C347 C52 0.807 . S
C361 C78 0.906 . S
C365 C65 0.910 . S
C379 C10 0.872 . S
C383 C57 0.835 . S
C397 C23 0.874 . S
C401 C70 0.844 . S
C415 C36 0.862 . S
C419 C5 0.817 . S
C433 C49 0.859 . S
C437 C18 0.855 . S
C451 C62 0.846 . S
C455 C31 0.871 . S
C469 C75 0.864 . S
C473 C44 0.827 . S
C487 C88 0.856 . S
C491 C109 0.834 . S
C505 C101 0.845 . S
C509 C122 0.831 . S
C523 C135 0.859 . S
C527 C114 0.850 . S
C541 C127 0.849 . S
C545 C148 0.849 . S
C559 C140 0.865 . S
C563 C83 0.818 . S
C577 C153 0.856 . S
C581 C96 0.852 . S
