# Generated by pormake.
# Topology npo, (4)-cn, num edge types: 1
# Building blocks:
#     Node 0, Type 0, BuildingBlock: QUQFOY_clean_sbu_3, # of connection points: 4
#     Node 1, Type 0, BuildingBlock: QUQFOY_clean_sbu_3, # of connection points: 4
#     Node 2, Type 0, BuildingBlock: QUQFOY_clean_sbu_3, # of connection points: 4
#     Node 3, Type 0, BuildingBlock: QUQFOY_clean_sbu_3, # of connection points: 4
#     Node 4, Type 0, BuildingBlock: QUQFOY_clean_sbu_3, # of connection points: 4
#     Node 5, Type 0, BuildingBlock: QUQFOY_clean_sbu_3, # of connection points: 4
#     Edge 6, Type (0, 0), BuildingBlock: KIFKEQ_clean_linker_1, # of connection points: 2
#     Edge 7, Type (0, 0), BuildingBlock: KIFKEQ_clean_linker_1, # of connection points: 2
#     Edge 8, Type (0, 0), BuildingBlock: KIFKEQ_clean_linker_1, # of connection points: 2
#     Edge 9, Type (0, 0), BuildingBlock: KIFKEQ_clean_linker_1, # of connection points: 2
#     Edge 10, Type (0, 0), BuildingBlock: KIFKEQ_clean_linker_1, # of connection points: 2
#     Edge 11, Type (0, 0), BuildingBlock: KIFKEQ_clean_linker_1, # of connection points: 2
#     Edge 12, Type (0, 0), BuildingBlock: KIFKEQ_clean_linker_1, # of connection points: 2
#     Edge 13, Type (0, 0), BuildingBlock: KIFKEQ_clean_linker_1, # of connection points: 2
#     Edge 14, Type (0, 0), BuildingBlock: KIFKEQ_clean_linker_1, # of connection points: 2
#     Edge 15, Type (0, 0), BuildingBlock: KIFKEQ_clean_linker_1, # of connection points: 2
#     Edge 16, Type (0, 0), BuildingBlock: KIFKEQ_clean_linker_1, # of connection points: 2
#     Edge 17, Type (0, 0), BuildingBlock: KIFKEQ_clean_linker_1, # of connection points: 2
# Relax obj value: 0.289
# Max RMSD: 0.250
# Mean RMSD: 0.240
data_MOF--net-npo--node1-QUQFOY_clean_sbu_3--edge1-KIFKEQ_clean_linker_1
_symmetry_space_group_name_H-M    P1
_symmetry_Int_Tables_number       1
_symmetry_cell_setting            triclinic
loop_
_symmetry_equiv_pos_as_xyz
'x, y, z'
_cell_length_a     47.600522
_cell_length_b     46.270631
_cell_length_c     26.070474
_cell_angle_alpha  91.484111
_cell_angle_beta   90.053959
_cell_angle_gamma 120.89108
loop_
_atom_site_label
_atom_site_type_symbol
_atom_site_fract_x
_atom_site_fract_y
_atom_site_fract_z
_atom_type_partial_charge
C0 C 0.49 0.14721 0.18133 0.0
O1 O 0.49806 0.14426 0.13592 0.0
Cd2 Cd 0.52512 0.11621 0.10684 0.0
O3 O 0.49433 0.13242 0.21872 0.0
Cd4 Cd 0.5136 0.09103 0.22919 0.0
C5 C 0.59 0.15294 0.19438 0.0
O6 O 0.49295 0.06483 0.14707 0.0
O7 O 0.52092 0.04663 0.18374 0.0
O8 O 0.47036 0.05794 0.29106 0.0
C9 C 0.50431 0.04554 0.14497 0.0
O10 O 0.57908 0.149 0.14848 0.0
C11 C 0.48981 0.05743 0.32401 0.0
O12 O 0.57127 0.13588 0.23055 0.0
O13 O 0.52003 0.07333 0.31333 0.0
C14 C 0.32372 0.49955 0.67503 0.0
O15 O 0.3317 0.50304 0.62814 0.0
Cd16 Cd 0.38682 0.52753 0.60049 0.0
O17 O 0.34519 0.50734 0.71044 0.0
Cd18 Cd 0.40469 0.52787 0.71925 0.0
C19 C 0.42127 0.60226 0.67012 0.0
O20 O 0.40678 0.49697 0.64557 0.0
O21 O 0.45406 0.53376 0.67697 0.0
O22 O 0.3943 0.48995 0.79009 0.0
C23 C 0.43749 0.51001 0.64449 0.0
O24 O 0.41169 0.58741 0.62627 0.0
C25 C 0.41407 0.51319 0.82121 0.0
O26 O 0.42037 0.58605 0.70932 0.0
O27 O 0.42918 0.54294 0.80472 0.0
C28 C 0.80823 0.46832 0.2536 0.0
O29 O 0.81349 0.46633 0.30078 0.0
Cd30 Cd 0.84417 0.44221 0.33022 0.0
O31 O 0.82129 0.45934 0.2188 0.0
Cd32 Cd 0.86012 0.43855 0.21112 0.0
C33 C 0.8025 0.36585 0.26454 0.0
O34 O 0.89396 0.47091 0.28332 0.0
O35 O 0.90389 0.43329 0.25378 0.0
O36 O 0.88678 0.47537 0.13904 0.0
C37 C 0.91146 0.45767 0.28521 0.0
O38 O 0.80852 0.38195 0.30742 0.0
C39 C 0.88346 0.45184 0.10869 0.0
O40 O 0.81738 0.38078 0.22428 0.0
O41 O 0.86919 0.42232 0.12608 0.0
C42 C 0.32675 0.81718 0.77221 0.0
O43 O 0.3376 0.81914 0.81751 0.0
Cd44 Cd 0.39261 0.84733 0.84749 0.0
O45 O 0.34595 0.83316 0.73556 0.0
Cd46 Cd 0.40644 0.8753 0.72667 0.0
C47 C 0.42192 0.81331 0.75749 0.0
O48 O 0.41144 0.89964 0.81025 0.0
O49 O 0.45766 0.9193 0.77332 0.0
O50 O 0.39655 0.90936 0.66607 0.0
C51 C 0.44201 0.91928 0.81258 0.0
O52 O 0.4147 0.81598 0.80376 0.0
C53 C 0.41671 0.91033 0.63316 0.0
O54 O 0.42003 0.83106 0.72264 0.0
O55 O 0.431 0.89428 0.64332 0.0
C56 C 0.60353 0.4663 0.17265 0.0
O57 O 0.59428 0.4609 0.1259 0.0
Cd58 Cd 0.5388 0.43822 0.0989 0.0
O59 O 0.58321 0.46096 0.2083 0.0
Cd60 Cd 0.52428 0.4425 0.21642 0.0
C61 C 0.5026 0.36538 0.16631 0.0
O62 O 0.52269 0.47299 0.14423 0.0
O63 O 0.47527 0.43796 0.17348 0.0
O64 O 0.53608 0.48163 0.28987 0.0
C65 C 0.49217 0.46121 0.14266 0.0
O66 O 0.51073 0.37873 0.12258 0.0
C67 C 0.51626 0.45879 0.3193 0.0
O68 O 0.50632 0.38335 0.20629 0.0
O69 O 0.50051 0.42894 0.30059 0.0
C70 C 0.11907 0.49732 0.75652 0.0
O71 O 0.11438 0.50089 0.80361 0.0
Cd72 Cd 0.08172 0.52335 0.8325 0.0
O73 O 0.10483 0.50421 0.72155 0.0
Cd74 Cd 0.06462 0.52314 0.7146 0.0
C75 C 0.12004 0.59837 0.77006 0.0
O76 O 0.03148 0.49096 0.78482 0.0
O77 O 0.02007 0.52726 0.75767 0.0
O78 O 0.03814 0.48534 0.63977 0.0
C79 C 0.01313 0.50321 0.78722 0.0
O80 O 0.11407 0.58343 0.81254 0.0
C81 C 0.04104 0.50853 0.61119 0.0
O82 O 0.10617 0.58195 0.72875 0.0
O83 O 0.05482 0.53812 0.63091 0.0
H84 H 0.50573 0.19234 0.26153 0.0
H85 H 0.45032 0.15713 0.11931 0.0
H86 H 0.5008 0.24236 0.2615 0.0
H87 H 0.44416 0.20623 0.12009 0.0
H88 H 0.48306 0.32866 0.2536 0.0
H89 H 0.47008 0.27083 0.26371 0.0
H90 H 0.48428 0.26293 0.10137 0.0
H91 H 0.49641 0.32016 0.09107 0.0
C92 C 0.49132 0.19463 0.23148 0.0
C93 C 0.47879 0.17123 0.19009 0.0
C94 C 0.48849 0.2233 0.23133 0.0
C95 C 0.47276 0.22871 0.19005 0.0
C96 C 0.45726 0.20334 0.15163 0.0
C97 C 0.4605 0.17506 0.15142 0.0
C98 C 0.4829 0.31438 0.21991 0.0
C99 C 0.49105 0.32916 0.17152 0.0
C100 C 0.47558 0.28127 0.22582 0.0
C101 C 0.4762 0.26221 0.18347 0.0
C102 C 0.48301 0.2766 0.13477 0.0
C103 C 0.49025 0.30961 0.12886 0.0
H104 H 0.30116 0.50591 0.76832 0.0
H105 H 0.26959 0.47027 0.61204 0.0
H106 H 0.2476 0.49767 0.78701 0.0
H107 H 0.21543 0.46068 0.63125 0.0
H108 H 0.14801 0.50366 0.66385 0.0
H109 H 0.19399 0.49643 0.64472 0.0
H110 H 0.19064 0.46125 0.79793 0.0
H111 H 0.14538 0.46983 0.81767 0.0
C112 C 0.2825 0.4955 0.73829 0.0
C113 C 0.28976 0.48923 0.68852 0.0
C114 C 0.25164 0.49055 0.74907 0.0
C115 C 0.22722 0.47883 0.71046 0.0
C116 C 0.23388 0.47046 0.66156 0.0
C117 C 0.26487 0.47579 0.65063 0.0
C118 C 0.15673 0.49388 0.6932 0.0
C119 C 0.14338 0.4878 0.74249 0.0
C120 C 0.18303 0.48951 0.68214 0.0
C121 C 0.1963 0.47856 0.71997 0.0
C122 C 0.18152 0.47043 0.76827 0.0
C123 C 0.15546 0.47519 0.7795 0.0
H124 H 0.62309 0.16845 0.2868 0.0
H125 H 0.63466 0.19803 0.12869 0.0
H126 H 0.67791 0.21581 0.30715 0.0
H127 H 0.68861 0.24565 0.14926 0.0
H128 H 0.79174 0.32029 0.1872 0.0
H129 H 0.74355 0.26456 0.17301 0.0
H130 H 0.70377 0.27578 0.31609 0.0
H131 H 0.75259 0.33097 0.33116 0.0
C132 C 0.63737 0.18487 0.25631 0.0
C133 C 0.62436 0.17953 0.20616 0.0
C134 C 0.66874 0.21213 0.26805 0.0
C135 C 0.6877 0.23468 0.22995 0.0
C136 C 0.67503 0.22857 0.17949 0.0
C137 C 0.64386 0.2013 0.16772 0.0
C138 C 0.77295 0.3106 0.21606 0.0
C139 C 0.77578 0.3302 0.26 0.0
C140 C 0.74522 0.27871 0.20779 0.0
C141 C 0.71945 0.26587 0.24292 0.0
C142 C 0.72319 0.28469 0.28836 0.0
C143 C 0.75115 0.31646 0.29693 0.0
H144 H 0.42141 0.7664 0.81943 0.0
H145 H 0.44052 0.8009 0.6638 0.0
H146 H 0.42803 0.71943 0.79474 0.0
H147 H 0.44826 0.75422 0.63932 0.0
H148 H 0.40714 0.63949 0.60679 0.0
H149 H 0.41394 0.69452 0.62621 0.0
H150 H 0.46408 0.70105 0.76828 0.0
H151 H 0.45611 0.64548 0.74971 0.0
C152 C 0.42767 0.76436 0.7801 0.0
C153 C 0.4301 0.78728 0.74351 0.0
C154 C 0.43174 0.73748 0.76596 0.0
C155 C 0.43862 0.73292 0.71493 0.0
C156 C 0.44249 0.75668 0.67877 0.0
C157 C 0.43822 0.78355 0.69288 0.0
C158 C 0.42014 0.65297 0.6417 0.0
C159 C 0.43063 0.63793 0.6771 0.0
C160 C 0.42419 0.68463 0.65279 0.0
C161 C 0.43912 0.70204 0.69925 0.0
C162 C 0.45172 0.68797 0.73279 0.0
C163 C 0.44732 0.6562 0.72201 0.0
H164 H 0.62813 0.46339 0.26571 0.0
H165 H 0.65592 0.49155 0.10892 0.0
H166 H 0.68186 0.47168 0.28402 0.0
H167 H 0.71027 0.50121 0.12772 0.0
H168 H 0.77758 0.45863 0.16082 0.0
H169 H 0.73165 0.46579 0.14158 0.0
H170 H 0.73913 0.50814 0.29433 0.0
H171 H 0.78435 0.49964 0.31421 0.0
C172 C 0.646 0.47215 0.23547 0.0
C173 C 0.63762 0.47633 0.1857 0.0
C174 C 0.67696 0.47714 0.24603 0.0
C175 C 0.70038 0.48682 0.20719 0.0
C176 C 0.69261 0.49304 0.15823 0.0
C177 C 0.6615 0.48766 0.14752 0.0
C178 C 0.7698 0.47 0.19002 0.0
C179 C 0.78427 0.47809 0.23927 0.0
C180 C 0.74352 0.47431 0.17891 0.0
C181 C 0.73138 0.4872 0.21662 0.0
C182 C 0.74735 0.49742 0.26478 0.0
C183 C 0.77339 0.49272 0.27609 0.0
H184 H 0.29814 0.77489 0.68867 0.0
H185 H 0.27666 0.80416 0.83512 0.0
H186 H 0.2433 0.72479 0.68507 0.0
H187 H 0.22152 0.75506 0.83079 0.0
H188 H 0.13889 0.63857 0.6864 0.0
H189 H 0.18431 0.69656 0.68139 0.0
H190 H 0.20419 0.69759 0.84345 0.0
H191 H 0.15851 0.64027 0.84872 0.0
C192 C 0.2812 0.77129 0.71903 0.0
C193 C 0.29166 0.79303 0.76247 0.0
C194 C 0.24977 0.74258 0.71708 0.0
C195 C 0.22825 0.73546 0.75831 0.0
C196 C 0.23778 0.75922 0.79915 0.0
C197 C 0.26925 0.78752 0.80143 0.0
C198 C 0.15266 0.65139 0.72113 0.0
C199 C 0.14518 0.63466 0.76795 0.0
C200 C 0.1788 0.68459 0.71815 0.0
C201 C 0.198 0.70179 0.76191 0.0
C202 C 0.18965 0.68542 0.80906 0.0
C203 C 0.16353 0.65234 0.81207 0.0
H204 H 0.41948 0.89949 0.90832 0.0
H205 H 0.50092 0.97792 0.82701 0.0
H206 H 0.44295 0.92999 -0.01064 0.0
H207 H 0.52397 0.00923 0.90882 0.0
H208 H 0.4994 0.06384 0.04912 0.0
H209 H 0.49281 0.03324 0.96847 0.0
H210 H 0.49841 0.95617 0.04952 0.0
H211 H 0.50635 -0.01229 0.13106 0.0
C212 C 0.44264 0.92308 0.90787 0.0
C213 C 0.4583 0.93656 0.86141 0.0
C214 C 0.45619 0.94032 0.95433 0.0
C215 C 0.48527 0.97175 0.95514 0.0
C216 C 0.5016 -0.01516 0.90895 0.0
C217 C 0.48842 0.96707 0.86236 0.0
C218 C 0.49991 0.04073 0.04981 0.0
C219 C 0.50317 0.02798 0.09636 0.0
C220 C 0.49644 0.02342 0.00355 0.0
C221 C 0.49535 -0.00741 0.00295 0.0
C222 C 0.49947 0.98012 0.04922 0.0
C223 C 0.50388 -0.00199 0.09565 0.0
H224 H 0.48131 0.41398 0.39262 0.0
H225 H 0.53811 0.52072 0.3655 0.0
H226 H 0.46667 0.42572 0.47671 0.0
H227 H 0.52275 0.53245 0.44952 0.0
H228 H 0.4069 0.45809 0.57513 0.0
H229 H 0.43022 0.44577 0.5011 0.0
H230 H 0.52602 0.52937 0.54422 0.0
H231 H 0.50237 0.54213 0.61866 0.0
C232 C 0.49085 0.43999 0.40477 0.0
C233 C 0.51047 0.46643 0.37219 0.0
C234 C 0.4824 0.44669 0.45291 0.0
C235 C 0.49319 0.47997 0.46942 0.0
C236 C 0.51422 0.50656 0.43797 0.0
C237 C 0.52284 0.49984 0.38975 0.0
C238 C 0.433 0.4737 0.56921 0.0
C239 C 0.45278 0.50118 0.60254 0.0
C240 C 0.44643 0.46647 0.52693 0.0
C241 C 0.47999 0.48655 0.51688 0.0
C242 C 0.50002 0.51362 0.55086 0.0
C243 C 0.48654 0.5208 0.59354 0.0
H244 H -0.00613 0.45197 0.85271 0.0
H245 H -0.02231 0.53271 0.81483 0.0
H246 H 0.95825 0.43883 0.92579 0.0
H247 H 0.94123 0.51906 0.88807 0.0
H248 H 0.92109 0.51296 0.06488 0.0
H249 H 0.94789 0.52395 -0.01804 0.0
H250 H 0.90218 0.41683 0.95097 0.0
H251 H 0.87608 0.40587 0.03427 0.0
C252 C -0.01769 0.46664 0.8596 0.0
C253 C -0.01123 0.49353 0.82823 0.0
C254 C 0.96165 0.45893 0.90135 0.0
C255 C 0.94688 0.47789 0.91278 0.0
C256 C 0.95252 0.5042 0.8805 0.0
C257 C -0.02678 0.51189 0.83846 0.0
C258 C 0.9165 0.49178 0.0401 0.0
C259 C 0.89685 0.45857 0.05638 0.0
C260 C 0.93167 0.49807 -0.00758 0.0
C261 C 0.92739 0.47126 0.96008 0.0
C262 C 0.90644 0.43804 -0.02459 0.0
C263 C 0.8914 0.43176 0.02308 0.0
H264 H 0.52626 0.05055 0.398 0.0
H265 H 0.4265 0.01944 0.35672 0.0
H266 H 0.50697 0.01498 0.47229 0.0
H267 H 0.40712 -0.0166 0.43122 0.0
H268 H 0.46043 0.91808 0.55957 0.0
H269 H 0.47671 0.95408 0.48582 0.0
H270 H 0.40803 -0.01492 0.52721 0.0
H271 H 0.39138 0.94859 0.60121 0.0
C272 C 0.50019 0.03625 0.4049 0.0
C273 C 0.47791 0.03772 0.37125 0.0
C274 C 0.48912 0.01565 0.44734 0.0
C275 C 0.45548 -0.00396 0.45733 0.0
C276 C 0.43319 -0.00171 0.42465 0.0
C277 C 0.44429 0.01886 0.38193 0.0
C278 C 0.4486 0.93238 0.55289 0.0
C279 C 0.42469 0.93055 0.58644 0.0
C280 C 0.45812 0.95322 0.51077 0.0
C281 C 0.44395 0.97276 0.50098 0.0
C282 C 0.41933 0.97025 0.53363 0.0
C283 C 0.40987 0.94943 0.57607 0.0
H284 H 0.45144 0.55859 0.89694 0.0
H285 H 0.3911 0.45164 0.86356 0.0
H286 H 0.46632 0.54713 -0.01989 0.0
H287 H 0.40663 0.44017 0.94653 0.0
H288 H 0.52378 0.51243 0.07722 0.0
H289 H 0.5011 0.52539 0.00407 0.0
H290 H 0.40424 0.44453 0.04114 0.0
H291 H 0.42723 0.43111 0.11464 0.0
C292 C 0.44118 0.53261 0.9075 0.0
C293 C 0.42043 0.50601 0.87344 0.0
C294 C 0.44978 0.52606 0.95511 0.0
C295 C 0.43795 0.49276 0.96965 0.0
C296 C 0.41595 0.4661 0.93661 0.0
C297 C 0.40725 0.47267 0.88894 0.0
C298 C 0.49759 0.49757 0.07018 0.0
C299 C 0.47731 0.47062 0.1015 0.0
C300 C 0.48454 0.50517 0.0284 0.0
C301 C 0.45086 0.48602 0.01682 0.0
C302 C 0.43034 0.45956 0.04892 0.0
C303 C 0.44345 0.45201 0.09109 0.0
H304 H 0.04982 0.55408 0.53957 0.0
H305 H 0.00232 0.44706 0.56308 0.0
H306 H 0.02372 0.54289 0.45522 0.0
H307 H -0.02452 0.43584 0.47898 0.0
H308 H 0.94537 0.42665 0.31073 0.0
H309 H -0.01814 0.43982 0.38517 0.0
H310 H -0.03238 0.52207 0.42905 0.0
H311 H 0.93197 0.50941 0.35485 0.0
C312 C 0.03394 0.52814 0.52658 0.0
C313 C 0.02775 0.50144 0.55819 0.0
C314 C 0.01893 0.52174 0.4783 0.0
C315 C -0.00278 0.4885 0.46071 0.0
C316 C -0.00773 0.46173 0.49129 0.0
C317 C 0.00746 0.46815 0.53959 0.0
C318 C 0.95044 0.44779 0.33601 0.0
C319 C 0.9357 0.46689 0.32716 0.0
C320 C -0.02884 0.4552 0.3787 0.0
C321 C -0.02239 0.48197 0.41298 0.0
C322 C -0.03641 0.50161 0.40303 0.0
C323 C 0.94291 0.49418 0.36065 0.0
loop_
_geom_bond_atom_site_label_1
_geom_bond_atom_site_label_2
_geom_bond_distance
_geom_bond_site_symmetry_2
_ccdc_geom_bond_type
C0 O1 1.306 . S
C0 O3 1.160 . S
O1 C0 1.306 . S
O1 Cd2 2.228 . S
Cd2 O1 2.228 . S
Cd2 O6 2.273 . S
Cd2 O10 2.277 . S
O3 C0 1.160 . S
O3 Cd4 2.203 . S
Cd4 O3 2.203 . S
Cd4 O6 2.411 . S
Cd4 O7 2.333 . S
Cd4 O8 2.352 . S
Cd4 O12 2.277 . S
Cd4 O13 2.356 . S
C5 O10 1.209 . S
C5 O12 1.226 . S
O6 Cd2 2.273 . S
O6 Cd4 2.411 . S
O6 C9 1.320 . S
O7 Cd4 2.333 . S
O7 C9 1.214 . S
O8 Cd4 2.352 . S
O8 C11 1.258 . S
C9 O6 1.320 . S
C9 O7 1.214 . S
O10 Cd2 2.277 . S
O10 C5 1.209 . S
C11 O8 1.258 . S
C11 O13 1.282 . S
O12 Cd4 2.277 . S
O12 C5 1.226 . S
O13 Cd4 2.356 . S
O13 C11 1.282 . S
C14 O15 1.306 . S
C14 O17 1.160 . S
O15 C14 1.306 . S
O15 Cd16 2.228 . S
Cd16 O15 2.228 . S
Cd16 O20 2.273 . S
Cd16 O24 2.277 . S
O17 C14 1.160 . S
O17 Cd18 2.203 . S
Cd18 O17 2.203 . S
Cd18 O20 2.411 . S
Cd18 O21 2.333 . S
Cd18 O22 2.352 . S
Cd18 O26 2.277 . S
Cd18 O27 2.356 . S
C19 O24 1.209 . S
C19 O26 1.226 . S
O20 Cd16 2.273 . S
O20 Cd18 2.411 . S
O20 C23 1.320 . S
O21 Cd18 2.333 . S
O21 C23 1.214 . S
O22 Cd18 2.352 . S
O22 C25 1.258 . S
C23 O20 1.320 . S
C23 O21 1.214 . S
O24 Cd16 2.277 . S
O24 C19 1.209 . S
C25 O22 1.258 . S
C25 O27 1.282 . S
O26 Cd18 2.277 . S
O26 C19 1.226 . S
O27 Cd18 2.356 . S
O27 C25 1.282 . S
C28 O29 1.306 . S
C28 O31 1.160 . S
O29 C28 1.306 . S
O29 Cd30 2.228 . S
Cd30 O29 2.228 . S
Cd30 O34 2.273 . S
Cd30 O38 2.277 . S
O31 C28 1.160 . S
O31 Cd32 2.203 . S
Cd32 O31 2.203 . S
Cd32 O34 2.411 . S
Cd32 O35 2.333 . S
Cd32 O36 2.352 . S
Cd32 O40 2.277 . S
Cd32 O41 2.356 . S
C33 O38 1.209 . S
C33 O40 1.226 . S
O34 Cd30 2.273 . S
O34 Cd32 2.411 . S
O34 C37 1.320 . S
O35 Cd32 2.333 . S
O35 C37 1.214 . S
O36 Cd32 2.352 . S
O36 C39 1.258 . S
C37 O34 1.320 . S
C37 O35 1.214 . S
O38 Cd30 2.277 . S
O38 C33 1.209 . S
C39 O36 1.258 . S
C39 O41 1.282 . S
O40 Cd32 2.277 . S
O40 C33 1.226 . S
O41 Cd32 2.356 . S
O41 C39 1.282 . S
C42 O43 1.306 . S
C42 O45 1.160 . S
O43 C42 1.306 . S
O43 Cd44 2.228 . S
Cd44 O43 2.228 . S
Cd44 O48 2.273 . S
Cd44 O52 2.277 . S
O45 C42 1.160 . S
O45 Cd46 2.203 . S
Cd46 O45 2.203 . S
Cd46 O48 2.411 . S
Cd46 O49 2.333 . S
Cd46 O50 2.352 . S
Cd46 O54 2.277 . S
Cd46 O55 2.356 . S
C47 O52 1.209 . S
C47 O54 1.226 . S
O48 Cd44 2.273 . S
O48 Cd46 2.411 . S
O48 C51 1.320 . S
O49 Cd46 2.333 . S
O49 C51 1.214 . S
O50 Cd46 2.352 . S
O50 C53 1.258 . S
C51 O48 1.320 . S
C51 O49 1.214 . S
O52 Cd44 2.277 . S
O52 C47 1.209 . S
C53 O50 1.258 . S
C53 O55 1.282 . S
O54 Cd46 2.277 . S
O54 C47 1.226 . S
O55 Cd46 2.356 . S
O55 C53 1.282 . S
C56 O57 1.306 . S
C56 O59 1.160 . S
O57 C56 1.306 . S
O57 Cd58 2.228 . S
Cd58 O57 2.228 . S
Cd58 O62 2.273 . S
Cd58 O66 2.277 . S
O59 C56 1.160 . S
O59 Cd60 2.203 . S
Cd60 O59 2.203 . S
Cd60 O62 2.411 . S
Cd60 O63 2.333 . S
Cd60 O64 2.352 . S
Cd60 O68 2.277 . S
Cd60 O69 2.356 . S
C61 O66 1.209 . S
C61 O68 1.226 . S
O62 Cd58 2.273 . S
O62 Cd60 2.411 . S
O62 C65 1.320 . S
O63 Cd60 2.333 . S
O63 C65 1.214 . S
O64 Cd60 2.352 . S
O64 C67 1.258 . S
C65 O62 1.320 . S
C65 O63 1.214 . S
O66 Cd58 2.277 . S
O66 C61 1.209 . S
C67 O64 1.258 . S
C67 O69 1.282 . S
O68 Cd60 2.277 . S
O68 C61 1.226 . S
O69 Cd60 2.356 . S
O69 C67 1.282 . S
C70 O71 1.306 . S
C70 O73 1.160 . S
O71 C70 1.306 . S
O71 Cd72 2.228 . S
Cd72 O71 2.228 . S
Cd72 O76 2.273 . S
Cd72 O80 2.277 . S
O73 C70 1.160 . S
O73 Cd74 2.203 . S
Cd74 O73 2.203 . S
Cd74 O76 2.411 . S
Cd74 O77 2.333 . S
Cd74 O78 2.352 . S
Cd74 O82 2.277 . S
Cd74 O83 2.356 . S
C75 O80 1.209 . S
C75 O82 1.226 . S
O76 Cd72 2.273 . S
O76 Cd74 2.411 . S
O76 C79 1.320 . S
O77 Cd74 2.333 . S
O77 C79 1.214 . S
O78 Cd74 2.352 . S
O78 C81 1.258 . S
C79 O76 1.320 . S
C79 O77 1.214 . S
O80 Cd72 2.277 . S
O80 C75 1.209 . S
C81 O78 1.258 . S
C81 O83 1.282 . S
O82 Cd74 2.277 . S
O82 C75 1.226 . S
O83 Cd74 2.356 . S
O83 C81 1.282 . S
H84 C92 0.950 . S
H85 C97 0.950 . S
H86 C94 0.950 . S
H87 C96 0.950 . S
H88 C98 0.950 . S
H89 C100 0.950 . S
H90 C102 0.950 . S
H91 C103 0.950 . S
C92 H84 0.950 . S
C92 C93 1.386 . S
C92 C94 1.391 . S
C93 C92 1.386 . S
C93 C97 1.393 . S
C94 H86 0.950 . S
C94 C92 1.391 . S
C94 C95 1.400 . S
C95 C94 1.400 . S
C95 C96 1.398 . S
C95 C101 1.491 . S
C96 H87 0.950 . S
C96 C95 1.398 . S
C96 C97 1.391 . S
C97 H85 0.950 . S
C97 C93 1.393 . S
C97 C96 1.391 . S
C98 H88 0.950 . S
C98 C99 1.386 . S
C98 C100 1.391 . S
C99 C98 1.386 . S
C99 C103 1.393 . S
C100 H89 0.950 . S
C100 C98 1.391 . S
C100 C101 1.400 . S
C101 C95 1.491 . S
C101 C100 1.400 . S
C101 C102 1.398 . S
C102 H90 0.950 . S
C102 C101 1.398 . S
C102 C103 1.391 . S
C103 H91 0.950 . S
C103 C99 1.393 . S
C103 C102 1.391 . S
H104 C112 0.950 . S
H105 C117 0.950 . S
H106 C114 0.950 . S
H107 C116 0.950 . S
H108 C118 0.950 . S
H109 C120 0.950 . S
H110 C122 0.950 . S
H111 C123 0.950 . S
C112 H104 0.950 . S
C112 C113 1.386 . S
C112 C114 1.391 . S
C113 C112 1.386 . S
C113 C117 1.393 . S
C114 H106 0.950 . S
C114 C112 1.391 . S
C114 C115 1.400 . S
C115 C114 1.400 . S
C115 C116 1.398 . S
C115 C121 1.491 . S
C116 H107 0.950 . S
C116 C115 1.398 . S
C116 C117 1.391 . S
C117 H105 0.950 . S
C117 C113 1.393 . S
C117 C116 1.391 . S
C118 H108 0.950 . S
C118 C119 1.386 . S
C118 C120 1.391 . S
C119 C118 1.386 . S
C119 C123 1.393 . S
C120 H109 0.950 . S
C120 C118 1.391 . S
C120 C121 1.400 . S
C121 C115 1.491 . S
C121 C120 1.400 . S
C121 C122 1.398 . S
C122 H110 0.950 . S
C122 C121 1.398 . S
C122 C123 1.391 . S
C123 H111 0.950 . S
C123 C119 1.393 . S
C123 C122 1.391 . S
H124 C132 0.950 . S
H125 C137 0.950 . S
H126 C134 0.950 . S
H127 C136 0.950 . S
H128 C138 0.950 . S
H129 C140 0.950 . S
H130 C142 0.950 . S
H131 C143 0.950 . S
C132 H124 0.950 . S
C132 C133 1.386 . S
C132 C134 1.391 . S
C133 C132 1.386 . S
C133 C137 1.393 . S
C134 H126 0.950 . S
C134 C132 1.391 . S
C134 C135 1.400 . S
C135 C134 1.400 . S
C135 C136 1.398 . S
C135 C141 1.491 . S
C136 H127 0.950 . S
C136 C135 1.398 . S
C136 C137 1.391 . S
C137 H125 0.950 . S
C137 C133 1.393 . S
C137 C136 1.391 . S
C138 H128 0.950 . S
C138 C139 1.386 . S
C138 C140 1.391 . S
C139 C138 1.386 . S
C139 C143 1.393 . S
C140 H129 0.950 . S
C140 C138 1.391 . S
C140 C141 1.400 . S
C141 C135 1.491 . S
C141 C140 1.400 . S
C141 C142 1.398 . S
C142 H130 0.950 . S
C142 C141 1.398 . S
C142 C143 1.391 . S
C143 H131 0.950 . S
C143 C139 1.393 . S
C143 C142 1.391 . S
H144 C152 0.950 . S
H145 C157 0.950 . S
H146 C154 0.950 . S
H147 C156 0.950 . S
H148 C158 0.950 . S
H149 C160 0.950 . S
H150 C162 0.950 . S
H151 C163 0.950 . S
C152 H144 0.950 . S
C152 C153 1.386 . S
C152 C154 1.391 . S
C153 C152 1.386 . S
C153 C157 1.393 . S
C154 H146 0.950 . S
C154 C152 1.391 . S
C154 C155 1.400 . S
C155 C154 1.400 . S
C155 C156 1.398 . S
C155 C161 1.491 . S
C156 H147 0.950 . S
C156 C155 1.398 . S
C156 C157 1.391 . S
C157 H145 0.950 . S
C157 C153 1.393 . S
C157 C156 1.391 . S
C158 H148 0.950 . S
C158 C159 1.386 . S
C158 C160 1.391 . S
C159 C158 1.386 . S
C159 C163 1.393 . S
C160 H149 0.950 . S
C160 C158 1.391 . S
C160 C161 1.400 . S
C161 C155 1.491 . S
C161 C160 1.400 . S
C161 C162 1.398 . S
C162 H150 0.950 . S
C162 C161 1.398 . S
C162 C163 1.391 . S
C163 H151 0.950 . S
C163 C159 1.393 . S
C163 C162 1.391 . S
H164 C172 0.950 . S
H165 C177 0.950 . S
H166 C174 0.950 . S
H167 C176 0.950 . S
H168 C178 0.950 . S
H169 C180 0.950 . S
H170 C182 0.950 . S
H171 C183 0.950 . S
C172 H164 0.950 . S
C172 C173 1.386 . S
C172 C174 1.391 . S
C173 C172 1.386 . S
C173 C177 1.393 . S
C174 H166 0.950 . S
C174 C172 1.391 . S
C174 C175 1.400 . S
C175 C174 1.400 . S
C175 C176 1.398 . S
C175 C181 1.491 . S
C176 H167 0.950 . S
C176 C175 1.398 . S
C176 C177 1.391 . S
C177 H165 0.950 . S
C177 C173 1.393 . S
C177 C176 1.391 . S
C178 H168 0.950 . S
C178 C179 1.386 . S
C178 C180 1.391 . S
C179 C178 1.386 . S
C179 C183 1.393 . S
C180 H169 0.950 . S
C180 C178 1.391 . S
C180 C181 1.400 . S
C181 C175 1.491 . S
C181 C180 1.400 . S
C181 C182 1.398 . S
C182 H170 0.950 . S
C182 C181 1.398 . S
C182 C183 1.391 . S
C183 H171 0.950 . S
C183 C179 1.393 . S
C183 C182 1.391 . S
H184 C192 0.950 . S
H185 C197 0.950 . S
H186 C194 0.950 . S
H187 C196 0.950 . S
H188 C198 0.950 . S
H189 C200 0.950 . S
H190 C202 0.950 . S
H191 C203 0.950 . S
C192 H184 0.950 . S
C192 C193 1.386 . S
C192 C194 1.391 . S
C193 C192 1.386 . S
C193 C197 1.393 . S
C194 H186 0.950 . S
C194 C192 1.391 . S
C194 C195 1.400 . S
C195 C194 1.400 . S
C195 C196 1.398 . S
C195 C201 1.491 . S
C196 H187 0.950 . S
C196 C195 1.398 . S
C196 C197 1.391 . S
C197 H185 0.950 . S
C197 C193 1.393 . S
C197 C196 1.391 . S
C198 H188 0.950 . S
C198 C199 1.386 . S
C198 C200 1.391 . S
C199 C198 1.386 . S
C199 C203 1.393 . S
C200 H189 0.950 . S
C200 C198 1.391 . S
C200 C201 1.400 . S
C201 C195 1.491 . S
C201 C200 1.400 . S
C201 C202 1.398 . S
C202 H190 0.950 . S
C202 C201 1.398 . S
C202 C203 1.391 . S
C203 H191 0.950 . S
C203 C199 1.393 . S
C203 C202 1.391 . S
H204 C212 0.950 . S
H205 C217 0.950 . S
H206 C214 0.950 1_554 S
H207 C216 0.950 . S
H208 C218 0.950 . S
H209 C220 0.950 1_556 S
H210 C222 0.950 . S
H211 C223 0.950 . S
C212 H204 0.950 . S
C212 C213 1.386 . S
C212 C214 1.391 . S
C213 C212 1.386 . S
C213 C217 1.393 . S
C214 H206 0.950 1_556 S
C214 C212 1.391 . S
C214 C215 1.400 . S
C215 C214 1.400 . S
C215 C216 1.398 1_565 S
C215 C221 1.491 1_566 S
C216 H207 0.950 . S
C216 C215 1.398 1_545 S
C216 C217 1.391 1_545 S
C217 H205 0.950 . S
C217 C213 1.393 . S
C217 C216 1.391 1_565 S
C218 H208 0.950 . S
C218 C219 1.386 . S
C218 C220 1.391 . S
C219 C218 1.386 . S
C219 C223 1.393 . S
C220 H209 0.950 1_554 S
C220 C218 1.391 . S
C220 C221 1.400 . S
C221 C215 1.491 1_544 S
C221 C220 1.400 . S
C221 C222 1.398 1_545 S
C222 H210 0.950 . S
C222 C221 1.398 1_565 S
C222 C223 1.391 1_565 S
C223 H211 0.950 . S
C223 C219 1.393 . S
C223 C222 1.391 1_545 S
H224 C232 0.950 . S
H225 C237 0.950 . S
H226 C234 0.950 . S
H227 C236 0.950 . S
H228 C238 0.950 . S
H229 C240 0.950 . S
H230 C242 0.950 . S
H231 C243 0.950 . S
C232 H224 0.950 . S
C232 C233 1.386 . S
C232 C234 1.391 . S
C233 C232 1.386 . S
C233 C237 1.393 . S
C234 H226 0.950 . S
C234 C232 1.391 . S
C234 C235 1.400 . S
C235 C234 1.400 . S
C235 C236 1.398 . S
C235 C241 1.491 . S
C236 H227 0.950 . S
C236 C235 1.398 . S
C236 C237 1.391 . S
C237 H225 0.950 . S
C237 C233 1.393 . S
C237 C236 1.391 . S
C238 H228 0.950 . S
C238 C239 1.386 . S
C238 C240 1.391 . S
C239 C238 1.386 . S
C239 C243 1.393 . S
C240 H229 0.950 . S
C240 C238 1.391 . S
C240 C241 1.400 . S
C241 C235 1.491 . S
C241 C240 1.400 . S
C241 C242 1.398 . S
C242 H230 0.950 . S
C242 C241 1.398 . S
C242 C243 1.391 . S
C243 H231 0.950 . S
C243 C239 1.393 . S
C243 C242 1.391 . S
H244 C252 0.950 . S
H245 C257 0.950 . S
H246 C254 0.950 . S
H247 C256 0.950 . S
H248 C258 0.950 . S
H249 C260 0.950 1_556 S
H250 C262 0.950 1_455 S
H251 C263 0.950 . S
C252 H244 0.950 . S
C252 C253 1.386 . S
C252 C254 1.391 . S
C253 C252 1.386 . S
C253 C257 1.393 . S
C254 H246 0.950 . S
C254 C252 1.391 . S
C254 C255 1.400 . S
C255 C254 1.400 . S
C255 C256 1.398 . S
C255 C261 1.491 1_456 S
C256 H247 0.950 . S
C256 C255 1.398 . S
C256 C257 1.391 . S
C257 H245 0.950 . S
C257 C253 1.393 . S
C257 C256 1.391 . S
C258 H248 0.950 . S
C258 C259 1.386 . S
C258 C260 1.391 . S
C259 C258 1.386 . S
C259 C263 1.393 . S
C260 H249 0.950 1_554 S
C260 C258 1.391 . S
C260 C261 1.400 . S
C261 C255 1.491 1_654 S
C261 C260 1.400 . S
C261 C262 1.398 . S
C262 H250 0.950 1_655 S
C262 C261 1.398 . S
C262 C263 1.391 . S
C263 H251 0.950 . S
C263 C259 1.393 . S
C263 C262 1.391 . S
H264 C272 0.950 . S
H265 C277 0.950 . S
H266 C274 0.950 . S
H267 C276 0.950 . S
H268 C278 0.950 . S
H269 C280 0.950 . S
H270 C282 0.950 . S
H271 C283 0.950 . S
C272 H264 0.950 . S
C272 C273 1.386 . S
C272 C274 1.391 . S
C273 C272 1.386 . S
C273 C277 1.393 . S
C274 H266 0.950 . S
C274 C272 1.391 . S
C274 C275 1.400 . S
C275 C274 1.400 . S
C275 C276 1.398 1_545 S
C275 C281 1.491 1_545 S
C276 H267 0.950 . S
C276 C275 1.398 1_565 S
C276 C277 1.391 1_565 S
C277 H265 0.950 . S
C277 C273 1.393 . S
C277 C276 1.391 1_545 S
C278 H268 0.950 . S
C278 C279 1.386 . S
C278 C280 1.391 . S
C279 C278 1.386 . S
C279 C283 1.393 . S
C280 H269 0.950 . S
C280 C278 1.391 . S
C280 C281 1.400 . S
C281 C275 1.491 1_565 S
C281 C280 1.400 . S
C281 C282 1.398 1_565 S
C282 H270 0.950 . S
C282 C281 1.398 1_545 S
C282 C283 1.391 1_545 S
C283 H271 0.950 . S
C283 C279 1.393 . S
C283 C282 1.391 1_565 S
H284 C292 0.950 . S
H285 C297 0.950 . S
H286 C294 0.950 1_554 S
H287 C296 0.950 . S
H288 C298 0.950 . S
H289 C300 0.950 . S
H290 C302 0.950 . S
H291 C303 0.950 . S
C292 H284 0.950 . S
C292 C293 1.386 . S
C292 C294 1.391 . S
C293 C292 1.386 . S
C293 C297 1.393 . S
C294 H286 0.950 1_556 S
C294 C292 1.391 . S
C294 C295 1.400 . S
C295 C294 1.400 . S
C295 C296 1.398 . S
C295 C301 1.491 1_556 S
C296 H287 0.950 . S
C296 C295 1.398 . S
C296 C297 1.391 . S
C297 H285 0.950 . S
C297 C293 1.393 . S
C297 C296 1.391 . S
C298 H288 0.950 . S
C298 C299 1.386 . S
C298 C300 1.391 . S
C299 C298 1.386 . S
C299 C303 1.393 . S
C300 H289 0.950 . S
C300 C298 1.391 . S
C300 C301 1.400 . S
C301 C295 1.491 1_554 S
C301 C300 1.400 . S
C301 C302 1.398 . S
C302 H290 0.950 . S
C302 C301 1.398 . S
C302 C303 1.391 . S
C303 H291 0.950 . S
C303 C299 1.393 . S
C303 C302 1.391 . S
H304 C312 0.950 . S
H305 C317 0.950 . S
H306 C314 0.950 1_655 S
H307 C316 0.950 . S
H308 C318 0.950 . S
H309 C320 0.950 . S
H310 C322 0.950 . S
H311 C323 0.950 . S
C312 H304 0.950 . S
C312 C313 1.386 . S
C312 C314 1.391 . S
C313 C312 1.386 . S
C313 C317 1.393 . S
C314 H306 0.950 1_455 S
C314 C312 1.391 . S
C314 C315 1.400 . S
C315 C314 1.400 . S
C315 C316 1.398 . S
C315 C321 1.491 1_455 S
C316 H307 0.950 . S
C316 C315 1.398 . S
C316 C317 1.391 . S
C317 H305 0.950 . S
C317 C313 1.393 . S
C317 C316 1.391 . S
C318 H308 0.950 . S
C318 C319 1.386 . S
C318 C320 1.391 . S
C319 C318 1.386 . S
C319 C323 1.393 . S
C320 H309 0.950 . S
C320 C318 1.391 . S
C320 C321 1.400 . S
C321 C315 1.491 1_655 S
C321 C320 1.400 . S
C321 C322 1.398 . S
C322 H310 0.950 . S
C322 C321 1.398 . S
C322 C323 1.391 . S
C323 H311 0.950 . S
C323 C319 1.393 . S
C323 C322 1.391 . S
C93 C0 1.028 . S
C99 C61 1.045 . S
C113 C14 1.030 . S
C119 C70 1.056 . S
C133 C5 1.052 . S
C139 C33 1.042 . S
C153 C47 1.040 . S
C159 C19 1.066 . S
C173 C56 1.030 . S
C179 C28 1.055 . S
C193 C42 1.034 . S
C199 C75 1.044 . S
C213 C51 1.375 . S
C219 C9 1.373 . S
C233 C67 1.407 . S
C239 C23 1.415 . S
C253 C79 1.402 . S
C259 C39 1.384 . S
C273 C11 1.400 . S
C279 C53 1.388 . S
C293 C25 1.396 . S
C299 C65 1.398 . S
C313 C81 1.394 . S
C319 C37 1.418 . S
