# Generated by pormake.
# Topology qtz-x, (6)-cn, num edge types: 1
# Building blocks:
#     Node 0, Type 0, BuildingBlock: UKALOJ_clean_sbu_0, # of connection points: 6
#     Node 1, Type 0, BuildingBlock: UKALOJ_clean_sbu_0, # of connection points: 6
#     Node 2, Type 0, BuildingBlock: UKALOJ_clean_sbu_0, # of connection points: 6
#     Edge 3, Type (0, 0), BuildingBlock: UVAHIK_clean_linker_0, # of connection points: 2
#     Edge 4, Type (0, 0), BuildingBlock: UVAHIK_clean_linker_0, # of connection points: 2
#     Edge 5, Type (0, 0), BuildingBlock: UVAHIK_clean_linker_0, # of connection points: 2
#     Edge 6, Type (0, 0), BuildingBlock: UVAHIK_clean_linker_0, # of connection points: 2
#     Edge 7, Type (0, 0), BuildingBlock: UVAHIK_clean_linker_0, # of connection points: 2
#     Edge 8, Type (0, 0), BuildingBlock: UVAHIK_clean_linker_0, # of connection points: 2
#     Edge 9, Type (0, 0), BuildingBlock: UVAHIK_clean_linker_0, # of connection points: 2
#     Edge 10, Type (0, 0), BuildingBlock: UVAHIK_clean_linker_0, # of connection points: 2
#     Edge 11, Type (0, 0), BuildingBlock: UVAHIK_clean_linker_0, # of connection points: 2
# Relax obj value: 0.274
# Max RMSD: 0.251
# Mean RMSD: 0.249
data_MOF--net-qtz-x--node1-UKALOJ_clean_sbu_0--edge1-UVAHIK_clean_linker_0
_symmetry_space_group_name_H-M    P1
_symmetry_Int_Tables_number       1
_symmetry_cell_setting            triclinic
loop_
_symmetry_equiv_pos_as_xyz
'x, y, z'
_cell_length_a     24.460467
_cell_length_b     24.441009
_cell_length_c     43.892145
_cell_angle_alpha  93.896986
_cell_angle_beta   94.175828
_cell_angle_gamma 119.81401
loop_
_atom_site_label
_atom_site_type_symbol
_atom_site_fract_x
_atom_site_fract_y
_atom_site_fract_z
_atom_type_partial_charge
Zn0 Zn 0.00798 0.51032 0.18138 0.0
O1 O 0.0768 0.55489 0.14968 0.0
C2 C 0.90742 0.43961 0.12873 0.0
Zn3 Zn 0.00101 0.41832 0.16643 0.0
C4 C 0.09324 0.52096 0.13394 0.0
O5 O 0.06828 0.46239 0.13689 0.0
C6 C 0.91634 0.40511 0.21381 0.0
O7 O 0.07639 0.43883 0.20204 0.0
O8 O 0.08079 0.52911 0.21583 0.0
N9 N -0.00645 0.33413 0.15127 0.0
C10 C 0.00095 0.29144 0.16619 0.0
C11 C 0.97747 0.25631 0.11844 0.0
N12 N 0.97896 0.31224 0.12163 0.0
N13 N -0.00849 0.24242 0.14605 0.0
C14 C 0.0084 0.63754 0.1816 0.0
C15 C 0.03093 0.67211 0.22941 0.0
N16 N 0.01533 0.59456 0.19651 0.0
N17 N 0.02931 0.61611 0.22619 0.0
N18 N 0.01755 0.68637 0.20178 0.0
H19 H 0.01246 0.60379 0.13539 0.0
H20 H 0.02036 0.68144 0.1397 0.0
H21 H 0.94441 0.6115 0.14039 0.0
C22 C -0.00384 0.63339 0.14729 0.0
C23 C 0.0139 0.29611 0.20049 0.0
H24 H -0.00436 0.32395 0.21237 0.0
H25 H 0.06595 0.32039 0.20727 0.0
H26 H -0.00816 0.24819 0.20824 0.0
O27 O 0.93297 0.37402 0.19626 0.0
O28 O 0.9404 0.46449 0.21272 0.0
C29 C 0.10058 0.49072 0.21977 0.0
O30 O 0.93367 0.49023 0.1474 0.0
O31 O 0.92651 0.4 0.13086 0.0
Zn32 Zn 0.5778 0.00293 0.51219 0.0
O33 O 0.54675 0.91769 0.48093 0.0
C34 C 0.58888 0.07386 0.45916 0.0
Zn35 Zn 0.48679 -0.00124 0.49813 0.0
C36 C 0.49138 0.89075 0.46604 0.0
O37 O 0.45674 0.91527 0.46926 0.0
C38 C 0.57014 0.10994 0.54452 0.0
O39 O 0.44387 0.94264 0.53426 0.0
O40 O 0.53482 0.94764 0.547 0.0
N41 N 0.40497 -0.00372 0.4831 0.0
C42 C 0.359 -0.00328 0.49805 0.0
C43 C 0.33364 -0.00628 0.45018 0.0
N44 N 0.38912 -0.00563 0.45338 0.0
N45 N 0.31355 -0.00524 0.47785 0.0
C46 C 0.7056 0.00465 0.51233 0.0
C47 C 0.73082 0.0078 0.56024 0.0
N48 N 0.65967 0.00536 0.52722 0.0
N49 N 0.67546 0.0074 0.55696 0.0
N50 N 0.75091 0.0065 0.53259 0.0
H51 H 0.65537 0.97648 0.46622 0.0
H52 H 0.72588 0.97012 0.4706 0.0
H53 H 0.73229 0.04669 0.47081 0.0
C54 C 0.70431 -0.00134 0.47801 0.0
C55 C 0.36048 0.00256 0.53239 0.0
H56 H 0.40973 0.02709 0.54403 0.0
H57 H 0.33489 0.95432 0.53968 0.0
H58 H 0.33679 0.02895 0.53989 0.0
O59 O 0.5174 0.08301 0.52735 0.0
O60 O 0.60629 0.08652 0.54328 0.0
C61 C 0.47794 0.92882 0.5517 0.0
O62 O 0.62089 0.05966 0.47768 0.0
O63 O 0.53081 0.05393 0.46207 0.0
Zn64 Zn 0.52292 0.56186 0.84495 0.0
O65 O 0.56523 0.52759 0.81273 0.0
C66 C 0.44874 0.57562 0.79328 0.0
Zn67 Zn 0.43058 0.47285 0.83253 0.0
C68 C 0.53052 0.47211 0.79829 0.0
O69 O 0.47282 0.43982 0.80276 0.0
C70 C 0.42047 0.55976 0.87899 0.0
O71 O 0.45294 0.42873 0.86861 0.0
O72 O 0.54387 0.51814 0.8794 0.0
N73 N 0.34606 0.39271 0.81835 0.0
C74 C 0.30361 0.34735 0.83359 0.0
C75 C 0.26747 0.32273 0.78593 0.0
N76 N 0.32355 0.37736 0.78876 0.0
N77 N 0.25405 0.30275 0.81371 0.0
C78 C 0.65018 0.68743 0.84396 0.0
C79 C 0.68595 0.71194 0.89167 0.0
N80 N 0.60753 0.64203 0.85913 0.0
N81 N 0.62982 0.65736 0.88874 0.0
N82 N 0.69962 0.73196 0.86392 0.0
H83 H 0.61469 0.63735 0.79797 0.0
H84 H 0.69261 0.70742 0.80173 0.0
H85 H 0.62314 0.71472 0.80287 0.0
C86 C 0.64495 0.68629 0.80964 0.0
C87 C 0.3092 0.34872 0.86792 0.0
H88 H 0.33762 0.398 0.87946 0.0
H89 H 0.33339 0.32245 0.87477 0.0
H90 H 0.26159 0.32569 0.87593 0.0
O91 O 0.38808 0.50654 0.86242 0.0
O92 O 0.47946 0.59373 0.87688 0.0
C93 C 0.50645 0.46213 0.88499 0.0
O94 O 0.50085 0.60611 0.81088 0.0
O95 O 0.41021 0.51813 0.79673 0.0
C96 C 0.96458 0.73756 0.17642 0.0
C97 C 0.01481 0.74214 0.19616 0.0
C98 C 0.96219 0.79198 0.17102 0.0
C99 C 0.02191 0.95725 0.20381 0.0
H100 H 0.97636 0.97755 0.12055 0.0
C101 C 0.0451 0.19169 0.17131 0.0
C102 C -0.00539 0.18684 0.15167 0.0
C103 C 0.04781 0.13743 0.17669 0.0
C104 C -0.01149 0.97224 0.14396 0.0
H105 H 0.10067 0.8061 0.22649 0.0
H106 H 0.09706 0.90184 0.21699 0.0
H107 H 0.98035 0.88251 0.13035 0.0
H108 H 0.90862 0.12255 0.12148 0.0
H109 H 0.91282 0.02711 0.13095 0.0
H110 H 0.03006 0.04698 0.21741 0.0
C111 C 0.05945 0.85625 0.20569 0.0
C112 C -0.00922 0.91784 0.14958 0.0
C113 C 0.06174 0.80174 0.21106 0.0
C114 C 0.94776 0.12712 0.13684 0.0
C115 C 0.95038 0.07278 0.14219 0.0
C116 C 0.01965 0.01165 0.19819 0.0
C117 C 0.00977 0.85195 0.18549 0.0
C118 C 0.00748 0.90977 0.17956 0.0
C119 C 0.00031 0.07736 0.16229 0.0
C120 C 0.00289 0.01969 0.16821 0.0
H121 H 0.92663 0.6918 0.16557 0.0
H122 H 0.92257 0.787 0.15589 0.0
H123 H 0.03402 0.95192 0.22722 0.0
H124 H 0.08295 0.23755 0.18212 0.0
H125 H 0.08759 0.1426 0.19177 0.0
C126 C 0.23979 0.03402 0.46797 0.0
C127 C 0.2568 -0.00466 0.48346 0.0
C128 C 0.18465 0.03489 0.47322 0.0
C129 C 0.07075 -0.00169 0.52973 0.0
H130 H 0.96246 0.00064 0.46135 0.0
C131 C 0.82395 0.96638 0.54251 0.0
C132 C 0.80743 0.00541 0.52702 0.0
C133 C 0.87883 0.96495 0.53724 0.0
C134 C -0.0074 0.00069 0.48071 0.0
H135 H 0.22807 0.92445 0.5151 0.0
H136 H 0.13167 0.92607 0.52459 0.0
H137 H 0.05801 -0.00221 0.45177 0.0
H138 H 0.83684 0.07642 0.49543 0.0
H139 H 0.93268 0.07377 0.48591 0.0
H140 H 0.00533 0.00124 0.55867 0.0
C141 C 0.16182 0.95709 0.50902 0.0
C142 C 0.04727 -0.00096 0.47523 0.0
C143 C 0.21701 0.95629 0.50373 0.0
C144 C 0.84744 0.04425 0.50676 0.0
C145 C 0.90233 0.04288 0.50146 0.0
C146 C 0.01607 -5e-05 0.53521 0.0
C147 C 0.14521 -0.0034 0.49391 0.0
C148 C 0.08694 -0.0021 0.49969 0.0
C149 C 0.91845 0.00301 0.51655 0.0
C150 C 0.97646 0.00121 0.51076 0.0
H151 H 0.26981 0.06425 0.45214 0.0
H152 H 0.17339 0.06624 0.46144 0.0
H153 H 0.10091 -0.0016 0.54909 0.0
H154 H 0.79377 0.9363 0.55833 0.0
H155 H 0.88973 0.93337 0.54902 0.0
C156 C 0.81482 0.80495 0.87347 0.0
C157 C 0.75537 0.7885 0.85817 0.0
C158 C 0.86917 0.86064 0.86863 0.0
C159 C 0.9319 0.97892 0.81391 0.0
H160 H 0.05641 0.08477 0.88355 0.0
C161 C 0.13892 0.22944 0.80425 0.0
C162 C 0.19845 0.24614 0.81953 0.0
C163 C 0.08472 0.17366 0.80912 0.0
C164 C 0.02238 0.05535 0.86385 0.0
H165 H 0.70521 0.8186 0.82721 0.0
H166 H 0.80022 0.91581 0.81839 0.0
H167 H 0.96175 0.98681 0.89172 0.0
H168 H 0.24893 0.21646 0.85054 0.0
H169 H 0.15415 0.119 0.85939 0.0
H170 H -0.00749 0.04745 0.78603 0.0
C171 C 0.80516 0.88484 0.83348 0.0
C172 C 0.96824 -0.00071 0.86852 0.0
C173 C 0.75085 0.82913 0.83836 0.0
C174 C 0.2032 0.20566 0.83937 0.0
C175 C 0.14903 0.14984 0.84428 0.0
C176 C 0.98604 0.03497 0.80924 0.0
C177 C 0.86489 0.90115 0.84856 0.0
C178 C 0.92244 0.96052 0.8436 0.0
C179 C 0.08923 0.13328 0.8292 0.0
C180 C 0.03181 0.07377 0.83416 0.0
H181 H 0.81913 0.7743 0.88897 0.0
H182 H 0.91461 0.87165 0.88036 0.0
H183 H 0.89786 0.94951 0.79421 0.0
H184 H 0.13442 0.25997 0.78873 0.0
H185 H 0.03921 0.16246 0.7974 0.0
C186 C 0.3234 0.55032 0.89846 0.0
C187 C 0.3898 0.57891 0.90184 0.0
C188 C 0.2928 0.5599 0.92206 0.0
C189 C 0.24415 0.53755 0.98316 0.0
H190 H 0.30249 0.68815 0.04125 0.0
C191 C 0.16967 0.51398 0.10215 0.0
C192 C 0.13891 0.54682 0.11129 0.0
C193 C 0.20449 0.52997 0.07729 0.0
C194 C 0.2855 0.64603 0.025 0.0
H195 H 0.47662 0.64345 0.93168 0.0
H196 H 0.42285 0.65877 0.97353 0.0
H197 H 0.35309 0.69601 0.99399 0.0
H198 H 0.1243 0.62531 0.10299 0.0
H199 H 0.18582 0.6534 0.05879 0.0
H200 H 0.17767 0.48725 0.01404 0.0
C201 C 0.39452 0.62974 0.95239 0.0
C202 C 0.31458 0.65036 0.99813 0.0
C203 C 0.42532 0.62074 0.92849 0.0
C204 C 0.14751 0.59919 0.09635 0.0
C205 C 0.18258 0.61523 0.07116 0.0
C206 C 0.21565 0.53324 0.00986 0.0
C207 C 0.32779 0.59745 0.94984 0.0
C208 C 0.29453 0.59587 0.97709 0.0
C209 C 0.20928 0.57904 0.0608 0.0
C210 C 0.23673 0.58701 0.03134 0.0
H211 H 0.2948 0.51865 0.87795 0.0
H212 H 0.2414 0.53557 0.91907 0.0
H213 H 0.22809 0.4944 0.96781 0.0
H214 H 0.16489 0.47411 0.11354 0.0
H215 H 0.22571 0.50217 0.07015 0.0
C216 C 0.58342 0.1237 0.41164 0.0
C217 C 0.61909 0.11236 0.43429 0.0
C218 C 0.61217 0.15792 0.38751 0.0
C219 C 0.74933 0.19982 0.34514 0.0
H220 H 0.71423 0.32573 0.31442 0.0
C221 C 0.86269 0.40673 0.26032 0.0
C222 C 0.87239 0.37239 0.23641 0.0
C223 C 0.82645 0.37546 0.28343 0.0
C224 C 0.72461 0.29084 0.32286 0.0
H225 H 0.71338 0.1302 0.44998 0.0
H226 H 0.76322 0.18978 0.40816 0.0
H227 H 0.66294 0.27191 0.35797 0.0
H228 H 0.8487 0.27798 0.21704 0.0
H229 H 0.78515 0.22378 0.25691 0.0
H230 H 0.81169 0.21916 0.31067 0.0
C231 C 0.71288 0.17133 0.40868 0.0
C232 C 0.69487 0.25967 0.34757 0.0
C233 C 0.68428 0.13727 0.43271 0.0
C234 C 0.84279 0.30601 0.23531 0.0
C235 C 0.80658 0.2749 0.25826 0.0
C236 C 0.77877 0.23068 0.3205 0.0
C237 C 0.67705 0.18132 0.38556 0.0
C238 C 0.70725 0.21407 0.35906 0.0
C239 C 0.79928 0.30935 0.28299 0.0
C240 C 0.7668 0.27651 0.30904 0.0
H241 H 0.5331 0.10523 0.41224 0.0
H242 H 0.58325 0.16455 0.36993 0.0
H243 H 0.75928 0.16436 0.35317 0.0
H244 H 0.8849 0.45794 0.26179 0.0
H245 H 0.8219 0.40333 0.30228 0.0
C246 C 0.47448 0.67257 0.76794 0.0
C247 C 0.43346 0.60758 0.7694 0.0
C248 C 0.46137 0.70351 0.74551 0.0
C249 C 0.37713 0.67581 0.66851 0.0
H250 H 0.42666 0.85279 0.6881 0.0
C251 C 0.39101 0.84219 0.57618 0.0
C252 C 0.45376 0.89282 0.57793 0.0
C253 C 0.37182 0.80438 0.60032 0.0
C254 C 0.41175 0.80314 0.68236 0.0
H255 H 0.34584 0.52414 0.74851 0.0
H256 H 0.3228 0.57864 0.70906 0.0
H257 H 0.42307 0.78987 0.72954 0.0
H258 H 0.5445 0.9459 0.60656 0.0
H259 H 0.5106 0.88166 0.64881 0.0
H260 H 0.36795 0.69026 0.62114 0.0
C261 C 0.36536 0.60538 0.72534 0.0
C262 C 0.41015 0.76721 0.70601 0.0
C263 C 0.37848 0.57426 0.74795 0.0
C264 C 0.49592 0.90695 0.6046 0.0
C265 C 0.47643 0.87045 0.62885 0.0
C266 C 0.37822 0.71176 0.64479 0.0
C267 C 0.40673 0.67045 0.72391 0.0
C268 C 0.39564 0.70399 0.6993 0.0
C269 C 0.41467 0.81817 0.62676 0.0
C270 C 0.39811 0.77642 0.65151 0.0
H271 H 0.51714 0.69983 0.78409 0.0
H272 H 0.49504 0.75329 0.74472 0.0
H273 H 0.3659 0.62731 0.66254 0.0
H274 H 0.35782 0.83031 0.55572 0.0
H275 H 0.32398 0.76411 0.59823 0.0
C276 C 0.54647 0.47871 0.93988 0.0
C277 C 0.52553 0.43966 0.91172 0.0
C278 C 0.57857 0.46759 0.96395 0.0
C279 C 0.62608 0.35721 0.99365 0.0
H280 H 0.77489 0.51568 0.02957 0.0
C281 C 0.83346 0.37966 0.07999 0.0
C282 C 0.85612 0.42851 0.10463 0.0
C283 C 0.78806 0.37315 0.05633 0.0
C284 C 0.7333 0.47101 0.02002 0.0
H285 H 0.51828 0.35637 0.88684 0.0
H286 H 0.57613 0.33718 0.92915 0.0
H287 H 0.70252 0.51669 0.98916 0.0
H288 H 0.84601 0.50624 0.1246 0.0
H289 H 0.7676 0.4949 0.08372 0.0
H290 H 0.65811 0.31184 0.02482 0.0
C291 C 0.56673 0.37586 0.93271 0.0
C292 C 0.69163 0.47157 0.99687 0.0
C293 C 0.53355 0.38663 0.90857 0.0
C294 C 0.83066 0.4689 0.10571 0.0
C295 C 0.78565 0.46244 0.08223 0.0
C296 C 0.66822 0.35664 0.01698 0.0
C297 C 0.59182 0.41795 0.96019 0.0
C298 C 0.63679 0.41498 0.98381 0.0
C299 C 0.7648 0.41549 0.05693 0.0
C300 C 0.72162 0.41384 0.03079 0.0
H301 H 0.54054 0.51979 0.94279 0.0
H302 H 0.59567 0.49983 0.9851 0.0
H303 H 0.58439 0.31282 0.98392 0.0
H304 H 0.85197 0.3476 0.07858 0.0
H305 H 0.77288 0.33655 0.03709 0.0
C306 C 0.20647 0.50993 0.24291 0.0
C307 C 0.14792 0.50571 0.24637 0.0
C308 C 0.25465 0.5348 0.26795 0.0
C309 C 0.2845 0.5723 0.35266 0.0
H310 H 0.43328 0.72991 0.34 0.0
C311 C 0.39978 0.78884 0.44122 0.0
C312 C 0.46557 0.83112 0.44518 0.0
C313 C 0.37249 0.73584 0.41916 0.0
C314 C 0.3931 0.68514 0.34391 0.0
H315 H 0.09209 0.5206 0.27841 0.0
H316 H 0.17466 0.56156 0.32214 0.0
H317 H 0.36186 0.65652 0.29557 0.0
H318 H 0.55493 0.85015 0.42989 0.0
H319 H 0.50652 0.75716 0.39029 0.0
H320 H 0.31336 0.60244 0.4009 0.0
C321 C 0.18403 0.54634 0.30034 0.0
C322 C 0.35218 0.64312 0.31845 0.0
C323 C 0.13686 0.52319 0.27533 0.0
C324 C 0.50407 0.81803 0.42733 0.0
C325 C 0.4764 0.76514 0.40467 0.0
C326 C 0.32541 0.61401 0.37803 0.0
C327 C 0.24395 0.55392 0.29682 0.0
C328 C 0.29579 0.58798 0.32267 0.0
C329 C 0.41012 0.72396 0.40014 0.0
C330 C 0.37823 0.67249 0.37394 0.0
H331 H 0.21604 0.49727 0.2206 0.0
H332 H 0.30056 0.54049 0.26463 0.0
H333 H 0.24174 0.5297 0.35653 0.0
H334 H 0.36897 0.79761 0.45474 0.0
H335 H 0.32127 0.70584 0.416 0.0
C336 C 0.52175 0.37818 0.76789 0.0
C337 C 0.55438 0.44443 0.77549 0.0
C338 C 0.53597 0.35065 0.74323 0.0
C339 C 0.64902 0.37075 0.6886 0.0
H340 H 0.49493 0.24892 0.63593 0.0
C341 C 0.55142 0.19641 0.5646 0.0
C342 C 0.5859 0.16472 0.56731 0.0
C343 C 0.55855 0.24145 0.58822 0.0
C344 C 0.53863 0.2834 0.65004 0.0
H345 H 0.63055 0.53367 0.76448 0.0
H346 H 0.65538 0.48492 0.72064 0.0
H347 H 0.48822 0.30581 0.68156 0.0
H348 H 0.65797 0.15839 0.59608 0.0
H349 H 0.66942 0.23637 0.63784 0.0
H350 H 0.69922 0.34736 0.65679 0.0
C351 C 0.6188 0.45463 0.73406 0.0
C352 C 0.53467 0.31546 0.67646 0.0
C353 C 0.60463 0.48246 0.75907 0.0
C354 C 0.63069 0.182 0.59335 0.0
C355 C 0.63743 0.22686 0.61722 0.0
C356 C 0.65302 0.33814 0.66202 0.0
C357 C 0.58291 0.38858 0.72531 0.0
C358 C 0.58956 0.35871 0.6963 0.0
C359 C 0.59975 0.25542 0.61533 0.0
C360 C 0.59767 0.29377 0.64256 0.0
H361 H 0.48353 0.34745 0.78044 0.0
H362 H 0.50857 0.29952 0.7375 0.0
H363 H 0.69205 0.40389 0.70352 0.0
H364 H 0.51717 0.18486 0.54463 0.0
H365 H 0.5299 0.26368 0.58571 0.0
loop_
_geom_bond_atom_site_label_1
_geom_bond_atom_site_label_2
_geom_bond_distance
_geom_bond_site_symmetry_2
_ccdc_geom_bond_type
Zn0 O1 2.055 . S
Zn0 O8 2.046 . S
Zn0 N16 2.036 . S
Zn0 O28 2.053 1_455 S
Zn0 O30 2.066 1_455 S
O1 Zn0 2.055 . S
O1 C4 1.259 . S
C2 O30 1.256 . S
C2 O31 1.244 . S
Zn3 O5 2.046 . S
Zn3 O7 2.055 . S
Zn3 N9 2.036 . S
Zn3 O27 2.066 1_455 S
Zn3 O31 2.053 1_455 S
C4 O1 1.259 . S
C4 O5 1.254 . S
O5 Zn3 2.046 . S
O5 C4 1.254 . S
C6 O27 1.256 . S
C6 O28 1.244 . S
O7 Zn3 2.055 . S
O7 C29 1.259 . S
O8 Zn0 2.046 . S
O8 C29 1.254 . S
N9 Zn3 2.036 . S
N9 C10 1.298 . S
N9 N12 1.398 1_455 S
C10 N9 1.298 . S
C10 N13 1.367 1_455 S
C10 C23 1.481 . S
C11 N12 1.299 . S
C11 N13 1.379 . S
N12 N9 1.398 1_655 S
N12 C11 1.299 . S
N13 C10 1.367 1_655 S
N13 C11 1.379 . S
C14 N16 1.298 . S
C14 N18 1.367 1_455 S
C14 C22 1.481 . S
C15 N17 1.299 . S
C15 N18 1.379 . S
N16 Zn0 2.036 . S
N16 C14 1.298 . S
N16 N17 1.398 1_455 S
N17 C15 1.299 . S
N17 N16 1.398 1_655 S
N18 C14 1.367 1_655 S
N18 C15 1.379 . S
H19 C22 0.980 . S
H20 C22 0.981 . S
H21 C22 0.981 . S
C22 C14 1.481 . S
C22 H19 0.980 . S
C22 H20 0.981 . S
C22 H21 0.981 . S
C23 C10 1.481 . S
C23 H24 0.980 . S
C23 H25 0.981 . S
C23 H26 0.981 . S
H24 C23 0.980 . S
H25 C23 0.981 . S
H26 C23 0.981 . S
O27 Zn3 2.066 1_655 S
O27 C6 1.256 . S
O28 Zn0 2.053 1_655 S
O28 C6 1.244 . S
C29 O7 1.259 . S
C29 O8 1.254 . S
O30 Zn0 2.066 1_655 S
O30 C2 1.256 . S
O31 C2 1.244 . S
O31 Zn3 2.053 1_655 S
Zn32 O33 2.055 . S
Zn32 O40 2.046 . S
Zn32 N48 2.036 1_565 S
Zn32 O60 2.053 1_565 S
Zn32 O62 2.066 1_565 S
O33 Zn32 2.055 . S
O33 C36 1.259 . S
C34 O62 1.256 . S
C34 O63 1.244 . S
Zn35 O37 2.046 . S
Zn35 O39 2.055 . S
Zn35 N41 2.036 1_565 S
Zn35 O59 2.066 1_565 S
Zn35 O63 2.053 1_565 S
C36 O33 1.259 . S
C36 O37 1.254 . S
O37 Zn35 2.046 . S
O37 C36 1.254 . S
C38 O59 1.256 . S
C38 O60 1.244 . S
O39 Zn35 2.055 . S
O39 C61 1.259 . S
O40 Zn32 2.046 . S
O40 C61 1.254 . S
N41 Zn35 2.036 1_545 S
N41 C42 1.298 . S
N41 N44 1.398 . S
C42 N41 1.298 . S
C42 N45 1.367 . S
C42 C55 1.481 1_545 S
C43 N44 1.299 . S
C43 N45 1.379 . S
N44 N41 1.398 . S
N44 C43 1.299 . S
N45 C42 1.367 . S
N45 C43 1.379 . S
C46 N48 1.298 1_565 S
C46 N50 1.367 1_565 S
C46 C54 1.480 . S
C47 N49 1.299 . S
C47 N50 1.379 . S
N48 Zn32 2.036 1_545 S
N48 C46 1.298 1_545 S
N48 N49 1.398 . S
N49 C47 1.299 . S
N49 N48 1.398 . S
N50 C46 1.367 1_545 S
N50 C47 1.379 . S
H51 C54 0.980 . S
H52 C54 0.981 . S
H53 C54 0.981 1_545 S
C54 C46 1.480 . S
C54 H51 0.980 . S
C54 H52 0.981 . S
C54 H53 0.981 1_565 S
C55 C42 1.481 1_565 S
C55 H56 0.980 . S
C55 H57 0.981 . S
C55 H58 0.981 1_565 S
H56 C55 0.980 . S
H57 C55 0.981 . S
H58 C55 0.981 1_545 S
O59 Zn35 2.066 1_545 S
O59 C38 1.256 . S
O60 Zn32 2.053 1_545 S
O60 C38 1.244 . S
C61 O39 1.259 . S
C61 O40 1.254 . S
O62 Zn32 2.066 1_545 S
O62 C34 1.256 . S
O63 C34 1.244 . S
O63 Zn35 2.053 1_545 S
Zn64 O65 2.055 . S
Zn64 O72 2.046 . S
Zn64 N80 2.036 . S
Zn64 O92 2.053 . S
Zn64 O94 2.066 . S
O65 Zn64 2.055 . S
O65 C68 1.259 . S
C66 O94 1.256 . S
C66 O95 1.244 . S
Zn67 O69 2.046 . S
Zn67 O71 2.055 . S
Zn67 N73 2.036 . S
Zn67 O91 2.066 . S
Zn67 O95 2.053 . S
C68 O65 1.259 . S
C68 O69 1.254 . S
O69 Zn67 2.046 . S
O69 C68 1.254 . S
C70 O91 1.256 . S
C70 O92 1.244 . S
O71 Zn67 2.055 . S
O71 C93 1.259 . S
O72 Zn64 2.046 . S
O72 C93 1.254 . S
N73 Zn67 2.036 . S
N73 C74 1.298 . S
N73 N76 1.398 . S
C74 N73 1.298 . S
C74 N77 1.367 . S
C74 C87 1.481 . S
C75 N76 1.299 . S
C75 N77 1.379 . S
N76 N73 1.398 . S
N76 C75 1.299 . S
N77 C74 1.367 . S
N77 C75 1.379 . S
C78 N80 1.298 . S
C78 N82 1.367 . S
C78 C86 1.481 . S
C79 N81 1.299 . S
C79 N82 1.379 . S
N80 Zn64 2.036 . S
N80 C78 1.298 . S
N80 N81 1.398 . S
N81 C79 1.299 . S
N81 N80 1.398 . S
N82 C78 1.367 . S
N82 C79 1.379 . S
H83 C86 0.980 . S
H84 C86 0.981 . S
H85 C86 0.981 . S
C86 C78 1.481 . S
C86 H83 0.980 . S
C86 H84 0.981 . S
C86 H85 0.981 . S
C87 C74 1.481 . S
C87 H88 0.980 . S
C87 H89 0.981 . S
C87 H90 0.981 . S
H88 C87 0.980 . S
H89 C87 0.981 . S
H90 C87 0.981 . S
O91 Zn67 2.066 . S
O91 C70 1.256 . S
O92 Zn64 2.053 . S
O92 C70 1.244 . S
C93 O71 1.259 . S
C93 O72 1.254 . S
O94 Zn64 2.066 . S
O94 C66 1.256 . S
O95 C66 1.244 . S
O95 Zn67 2.053 . S
C96 C97 1.349 . S
C96 C98 1.327 . S
C96 H121 0.950 . S
C97 C96 1.349 . S
C97 C113 1.349 1_655 S
C98 C96 1.327 . S
C98 C117 1.429 . S
C98 H122 0.950 . S
C99 C116 1.574 1_565 S
C99 C118 1.368 1_455 S
C99 H123 0.949 . S
H100 C104 0.949 . S
C101 C102 1.349 1_455 S
C101 C103 1.327 . S
C101 H124 0.950 . S
C102 C101 1.349 1_655 S
C102 C114 1.349 . S
C103 C101 1.327 . S
C103 C119 1.429 1_455 S
C103 H125 0.950 . S
C104 H100 0.949 . S
C104 C112 1.574 . S
C104 C120 1.368 1_565 S
H105 C113 0.950 . S
H106 C111 0.950 . S
H107 C112 0.949 . S
H108 C114 0.950 . S
H109 C115 0.950 . S
H110 C116 0.949 . S
C111 H106 0.950 . S
C111 C113 1.327 . S
C111 C117 1.429 1_455 S
C112 C104 1.574 . S
C112 H107 0.949 . S
C112 C118 1.368 . S
C113 C97 1.349 1_455 S
C113 H105 0.950 . S
C113 C111 1.327 . S
C114 C102 1.349 . S
C114 H108 0.950 . S
C114 C115 1.327 . S
C115 H109 0.950 . S
C115 C114 1.327 . S
C115 C119 1.429 . S
C116 C99 1.574 1_545 S
C116 H110 0.949 . S
C116 C120 1.368 1_455 S
C117 C98 1.429 . S
C117 C111 1.429 1_655 S
C117 C118 1.523 . S
C118 C99 1.368 1_655 S
C118 C112 1.368 . S
C118 C117 1.523 . S
C119 C103 1.429 1_655 S
C119 C115 1.429 . S
C119 C120 1.523 . S
C120 C104 1.368 1_545 S
C120 C116 1.368 1_655 S
C120 C119 1.523 . S
H121 C96 0.950 . S
H122 C98 0.950 . S
H123 C99 0.949 . S
H124 C101 0.950 . S
H125 C103 0.950 . S
C126 C127 1.349 . S
C126 C128 1.327 . S
C126 H151 0.950 . S
C127 C126 1.349 . S
C127 C143 1.345 1_545 S
C128 C126 1.327 . S
C128 C147 1.429 . S
C128 H152 0.950 . S
C129 C146 1.574 . S
C129 C148 1.368 1_565 S
C129 H153 0.949 . S
H130 C134 0.949 . S
C131 C132 1.349 1_565 S
C131 C133 1.327 . S
C131 H154 0.950 . S
C132 C131 1.349 1_545 S
C132 C144 1.349 . S
C133 C131 1.327 . S
C133 C149 1.429 1_565 S
C133 H155 0.950 . S
C134 H130 0.949 . S
C134 C142 1.574 . S
C134 C150 1.368 1_455 S
H135 C143 0.962 . S
H136 C141 0.950 . S
H137 C142 0.949 . S
H138 C144 0.950 . S
H139 C145 0.950 . S
H140 C146 0.949 1_655 S
C141 H136 0.950 . S
C141 C143 1.319 . S
C141 C147 1.429 1_565 S
C142 C134 1.574 . S
C142 H137 0.949 . S
C142 C148 1.368 . S
C143 C127 1.345 1_565 S
C143 H135 0.962 . S
C143 C141 1.319 . S
C144 C132 1.349 . S
C144 H138 0.950 . S
C144 C145 1.327 . S
C145 H139 0.950 . S
C145 C144 1.327 . S
C145 C149 1.429 . S
C146 C129 1.574 . S
C146 H140 0.949 1_455 S
C146 C150 1.368 1_465 S
C147 C128 1.429 . S
C147 C141 1.429 1_545 S
C147 C148 1.523 . S
C148 C129 1.368 1_545 S
C148 C142 1.368 . S
C148 C147 1.523 . S
C149 C133 1.429 1_545 S
C149 C145 1.429 . S
C149 C150 1.523 . S
C150 C134 1.368 1_655 S
C150 C146 1.368 1_645 S
C150 C149 1.523 . S
H151 C126 0.950 . S
H152 C128 0.950 . S
H153 C129 0.949 . S
H154 C131 0.950 . S
H155 C133 0.950 . S
C156 C157 1.349 . S
C156 C158 1.327 . S
C156 H181 0.950 . S
C157 C156 1.349 . S
C157 C173 1.349 . S
C158 C156 1.327 . S
C158 C177 1.429 . S
C158 H182 0.950 . S
C159 C176 1.574 . S
C159 C178 1.368 1_545 S
C159 H183 0.950 1_545 S
H160 C164 0.949 . S
C161 C162 1.349 . S
C161 C163 1.327 . S
C161 H184 0.950 . S
C162 C161 1.349 . S
C162 C174 1.349 . S
C163 C161 1.327 . S
C163 C179 1.429 . S
C163 H185 0.950 . S
C164 H160 0.949 . S
C164 C172 1.574 1_445 S
C164 C180 1.368 . S
H165 C173 0.950 . S
H166 C171 0.950 . S
H167 C172 0.949 . S
H168 C174 0.950 . S
H169 C175 0.950 . S
H170 C176 0.949 1_455 S
C171 H166 0.950 . S
C171 C173 1.327 . S
C171 C177 1.429 . S
C172 C164 1.574 1_665 S
C172 H167 0.949 . S
C172 C178 1.368 . S
C173 C157 1.349 . S
C173 H165 0.950 . S
C173 C171 1.327 . S
C174 C162 1.349 . S
C174 H168 0.950 . S
C174 C175 1.327 . S
C175 H169 0.950 . S
C175 C174 1.327 . S
C175 C179 1.429 . S
C176 C159 1.574 . S
C176 H170 0.949 1_655 S
C176 C180 1.368 1_655 S
C177 C158 1.429 . S
C177 C171 1.429 . S
C177 C178 1.523 . S
C178 C159 1.368 1_565 S
C178 C172 1.368 . S
C178 C177 1.523 . S
C179 C163 1.429 . S
C179 C175 1.429 . S
C179 C180 1.523 . S
C180 C164 1.368 . S
C180 C176 1.368 1_455 S
C180 C179 1.523 . S
H181 C156 0.950 . S
H182 C158 0.950 . S
H183 C159 0.950 1_565 S
H184 C161 0.950 . S
H185 C163 0.950 . S
C186 C187 1.349 . S
C186 C188 1.327 . S
C186 H211 0.950 . S
C187 C186 1.349 . S
C187 C203 1.349 . S
C188 C186 1.327 . S
C188 C207 1.429 . S
C188 H212 0.950 . S
C189 C206 1.574 1_556 S
C189 C208 1.368 . S
C189 H213 0.949 . S
H190 C194 0.949 . S
C191 C192 1.349 . S
C191 C193 1.327 . S
C191 H214 0.950 . S
C192 C191 1.349 . S
C192 C204 1.349 . S
C193 C191 1.327 . S
C193 C209 1.429 . S
C193 H215 0.950 . S
C194 H190 0.949 . S
C194 C202 1.574 1_554 S
C194 C210 1.368 . S
H195 C203 0.950 . S
H196 C201 0.950 . S
H197 C202 0.949 . S
H198 C204 0.950 . S
H199 C205 0.950 . S
H200 C206 0.949 . S
C201 H196 0.950 . S
C201 C203 1.327 . S
C201 C207 1.429 . S
C202 C194 1.574 1_556 S
C202 H197 0.949 . S
C202 C208 1.368 . S
C203 C187 1.349 . S
C203 H195 0.950 . S
C203 C201 1.327 . S
C204 C192 1.349 . S
C204 H198 0.950 . S
C204 C205 1.327 . S
C205 H199 0.950 . S
C205 C204 1.327 . S
C205 C209 1.429 . S
C206 C189 1.574 1_554 S
C206 H200 0.949 . S
C206 C210 1.368 . S
C207 C188 1.429 . S
C207 C201 1.429 . S
C207 C208 1.523 . S
C208 C189 1.368 . S
C208 C202 1.368 . S
C208 C207 1.523 . S
C209 C193 1.429 . S
C209 C205 1.429 . S
C209 C210 1.523 . S
C210 C194 1.368 . S
C210 C206 1.368 . S
C210 C209 1.523 . S
H211 C186 0.950 . S
H212 C188 0.950 . S
H213 C189 0.949 . S
H214 C191 0.950 . S
H215 C193 0.950 . S
C216 C217 1.349 . S
C216 C218 1.327 . S
C216 H241 0.950 . S
C217 C216 1.349 . S
C217 C233 1.349 . S
C218 C216 1.327 . S
C218 C237 1.429 . S
C218 H242 0.950 . S
C219 C236 1.574 . S
C219 C238 1.368 . S
C219 H243 0.949 . S
H220 C224 0.949 . S
C221 C222 1.349 . S
C221 C223 1.327 . S
C221 H244 0.950 . S
C222 C221 1.349 . S
C222 C234 1.349 . S
C223 C221 1.327 . S
C223 C239 1.429 . S
C223 H245 0.950 . S
C224 H220 0.949 . S
C224 C232 1.574 . S
C224 C240 1.368 . S
H225 C233 0.950 . S
H226 C231 0.950 . S
H227 C232 0.949 . S
H228 C234 0.950 . S
H229 C235 0.950 . S
H230 C236 0.949 . S
C231 H226 0.950 . S
C231 C233 1.327 . S
C231 C237 1.429 . S
C232 C224 1.574 . S
C232 H227 0.949 . S
C232 C238 1.368 . S
C233 C217 1.349 . S
C233 H225 0.950 . S
C233 C231 1.327 . S
C234 C222 1.349 . S
C234 H228 0.950 . S
C234 C235 1.327 . S
C235 H229 0.950 . S
C235 C234 1.327 . S
C235 C239 1.429 . S
C236 C219 1.574 . S
C236 H230 0.949 . S
C236 C240 1.368 . S
C237 C218 1.429 . S
C237 C231 1.429 . S
C237 C238 1.523 . S
C238 C219 1.368 . S
C238 C232 1.368 . S
C238 C237 1.523 . S
C239 C223 1.429 . S
C239 C235 1.429 . S
C239 C240 1.523 . S
C240 C224 1.368 . S
C240 C236 1.368 . S
C240 C239 1.523 . S
H241 C216 0.950 . S
H242 C218 0.950 . S
H243 C219 0.949 . S
H244 C221 0.950 . S
H245 C223 0.950 . S
C246 C247 1.349 . S
C246 C248 1.327 . S
C246 H271 0.950 . S
C247 C246 1.349 . S
C247 C263 1.349 . S
C248 C246 1.327 . S
C248 C267 1.429 . S
C248 H272 0.950 . S
C249 C266 1.574 . S
C249 C268 1.368 . S
C249 H273 0.949 . S
H250 C254 0.949 . S
C251 C252 1.349 . S
C251 C253 1.327 . S
C251 H274 0.950 . S
C252 C251 1.349 . S
C252 C264 1.349 . S
C253 C251 1.327 . S
C253 C269 1.429 . S
C253 H275 0.950 . S
C254 H250 0.949 . S
C254 C262 1.574 . S
C254 C270 1.368 . S
H255 C263 0.950 . S
H256 C261 0.950 . S
H257 C262 0.949 . S
H258 C264 0.950 . S
H259 C265 0.950 . S
H260 C266 0.949 . S
C261 H256 0.950 . S
C261 C263 1.327 . S
C261 C267 1.429 . S
C262 C254 1.574 . S
C262 H257 0.949 . S
C262 C268 1.368 . S
C263 C247 1.349 . S
C263 H255 0.950 . S
C263 C261 1.327 . S
C264 C252 1.349 . S
C264 H258 0.950 . S
C264 C265 1.327 . S
C265 H259 0.950 . S
C265 C264 1.327 . S
C265 C269 1.429 . S
C266 C249 1.574 . S
C266 H260 0.949 . S
C266 C270 1.368 . S
C267 C248 1.429 . S
C267 C261 1.429 . S
C267 C268 1.523 . S
C268 C249 1.368 . S
C268 C262 1.368 . S
C268 C267 1.523 . S
C269 C253 1.429 . S
C269 C265 1.429 . S
C269 C270 1.523 . S
C270 C254 1.368 . S
C270 C266 1.368 . S
C270 C269 1.523 . S
H271 C246 0.950 . S
H272 C248 0.950 . S
H273 C249 0.949 . S
H274 C251 0.950 . S
H275 C253 0.950 . S
C276 C277 1.349 . S
C276 C278 1.327 . S
C276 H301 0.950 . S
C277 C276 1.349 . S
C277 C293 1.349 . S
C278 C276 1.327 . S
C278 C297 1.429 . S
C278 H302 0.950 . S
C279 C296 1.574 . S
C279 C298 1.368 . S
C279 H303 0.949 . S
H280 C284 0.949 . S
C281 C282 1.349 . S
C281 C283 1.327 . S
C281 H304 0.950 . S
C282 C281 1.349 . S
C282 C294 1.349 . S
C283 C281 1.327 . S
C283 C299 1.429 . S
C283 H305 0.950 . S
C284 H280 0.949 . S
C284 C292 1.574 . S
C284 C300 1.368 . S
H285 C293 0.950 . S
H286 C291 0.950 . S
H287 C292 0.949 . S
H288 C294 0.950 . S
H289 C295 0.950 . S
H290 C296 0.949 . S
C291 H286 0.950 . S
C291 C293 1.327 . S
C291 C297 1.429 . S
C292 C284 1.574 . S
C292 H287 0.949 . S
C292 C298 1.368 1_554 S
C293 C277 1.349 . S
C293 H285 0.950 . S
C293 C291 1.327 . S
C294 C282 1.349 . S
C294 H288 0.950 . S
C294 C295 1.327 . S
C295 H289 0.950 . S
C295 C294 1.327 . S
C295 C299 1.429 . S
C296 C279 1.574 . S
C296 H290 0.949 . S
C296 C300 1.368 1_556 S
C297 C278 1.429 . S
C297 C291 1.429 . S
C297 C298 1.523 . S
C298 C279 1.368 . S
C298 C292 1.368 1_556 S
C298 C297 1.523 . S
C299 C283 1.429 . S
C299 C295 1.429 . S
C299 C300 1.523 . S
C300 C284 1.368 . S
C300 C296 1.368 1_554 S
C300 C299 1.523 . S
H301 C276 0.950 . S
H302 C278 0.950 . S
H303 C279 0.949 . S
H304 C281 0.950 . S
H305 C283 0.950 . S
C306 C307 1.349 . S
C306 C308 1.327 . S
C306 H331 0.950 . S
C307 C306 1.349 . S
C307 C323 1.349 . S
C308 C306 1.327 . S
C308 C327 1.429 . S
C308 H332 0.950 . S
C309 C326 1.574 . S
C309 C328 1.368 . S
C309 H333 0.949 . S
H310 C314 0.949 . S
C311 C312 1.349 . S
C311 C313 1.327 . S
C311 H334 0.950 . S
C312 C311 1.349 . S
C312 C324 1.349 . S
C313 C311 1.327 . S
C313 C329 1.429 . S
C313 H335 0.950 . S
C314 H310 0.949 . S
C314 C322 1.574 . S
C314 C330 1.368 . S
H315 C323 0.950 . S
H316 C321 0.950 . S
H317 C322 0.949 . S
H318 C324 0.950 . S
H319 C325 0.950 . S
H320 C326 0.949 . S
C321 H316 0.950 . S
C321 C323 1.327 . S
C321 C327 1.429 . S
C322 C314 1.574 . S
C322 H317 0.949 . S
C322 C328 1.368 . S
C323 C307 1.349 . S
C323 H315 0.950 . S
C323 C321 1.327 . S
C324 C312 1.349 . S
C324 H318 0.950 . S
C324 C325 1.327 . S
C325 H319 0.950 . S
C325 C324 1.327 . S
C325 C329 1.429 . S
C326 C309 1.574 . S
C326 H320 0.949 . S
C326 C330 1.368 . S
C327 C308 1.429 . S
C327 C321 1.429 . S
C327 C328 1.523 . S
C328 C309 1.368 . S
C328 C322 1.368 . S
C328 C327 1.523 . S
C329 C313 1.429 . S
C329 C325 1.429 . S
C329 C330 1.523 . S
C330 C314 1.368 . S
C330 C326 1.368 . S
C330 C329 1.523 . S
H331 C306 0.950 . S
H332 C308 0.950 . S
H333 C309 0.949 . S
H334 C311 0.950 . S
H335 C313 0.950 . S
C336 C337 1.349 . S
C336 C338 1.327 . S
C336 H361 0.950 . S
C337 C336 1.349 . S
C337 C353 1.349 . S
C338 C336 1.327 . S
C338 C357 1.429 . S
C338 H362 0.950 . S
C339 C356 1.574 . S
C339 C358 1.368 . S
C339 H363 0.949 . S
H340 C344 0.949 . S
C341 C342 1.349 . S
C341 C343 1.327 . S
C341 H364 0.950 . S
C342 C341 1.349 . S
C342 C354 1.349 . S
C343 C341 1.327 . S
C343 C359 1.429 . S
C343 H365 0.950 . S
C344 H340 0.949 . S
C344 C352 1.574 . S
C344 C360 1.368 . S
H345 C353 0.950 . S
H346 C351 0.950 . S
H347 C352 0.949 . S
H348 C354 0.950 . S
H349 C355 0.950 . S
H350 C356 0.949 . S
C351 H346 0.950 . S
C351 C353 1.327 . S
C351 C357 1.429 . S
C352 C344 1.574 . S
C352 H347 0.949 . S
C352 C358 1.368 . S
C353 C337 1.349 . S
C353 H345 0.950 . S
C353 C351 1.327 . S
C354 C342 1.349 . S
C354 H348 0.950 . S
C354 C355 1.327 . S
C355 H349 0.950 . S
C355 C354 1.327 . S
C355 C359 1.429 . S
C356 C339 1.574 . S
C356 H350 0.949 . S
C356 C360 1.368 . S
C357 C338 1.429 . S
C357 C351 1.429 . S
C357 C358 1.523 . S
C358 C339 1.368 . S
C358 C352 1.368 . S
C358 C357 1.523 . S
C359 C343 1.429 . S
C359 C355 1.429 . S
C359 C360 1.523 . S
C360 C344 1.368 . S
C360 C356 1.368 . S
C360 C359 1.523 . S
H361 C336 0.950 . S
H362 C338 0.950 . S
H363 C339 0.949 . S
H364 C341 0.950 . S
H365 C343 0.950 . S
C97 N18 0.836 . S
C102 N13 0.836 . S
C127 N45 0.836 . S
C132 N50 0.836 . S
C157 N82 0.828 . S
C162 N77 0.828 . S
C187 C70 1.485 . S
C192 C4 1.493 . S
C217 C34 1.903 . S
C222 C6 1.903 . S
C247 C66 1.486 . S
C252 C61 1.494 . S
C277 C93 1.513 . S
C282 C2 1.510 . S
C307 C29 1.109 . S
C312 C36 1.109 . S
C337 C68 1.513 . S
C342 C38 1.509 . S
