# Generated by pormake.
# Topology gsi, (4)-cn, num edge types: 1
# Building blocks:
#     Node 0, Type 0, BuildingBlock: QUQFOY_clean_sbu_1, # of connection points: 4
#     Node 1, Type 0, BuildingBlock: QUQFOY_clean_sbu_1, # of connection points: 4
#     Node 2, Type 0, BuildingBlock: QUQFOY_clean_sbu_1, # of connection points: 4
#     Node 3, Type 0, BuildingBlock: QUQFOY_clean_sbu_1, # of connection points: 4
#     Node 4, Type 0, BuildingBlock: QUQFOY_clean_sbu_1, # of connection points: 4
#     Node 5, Type 0, BuildingBlock: QUQFOY_clean_sbu_1, # of connection points: 4
#     Node 6, Type 0, BuildingBlock: QUQFOY_clean_sbu_1, # of connection points: 4
#     Node 7, Type 0, BuildingBlock: QUQFOY_clean_sbu_1, # of connection points: 4
#     Node 8, Type 0, BuildingBlock: QUQFOY_clean_sbu_1, # of connection points: 4
#     Node 9, Type 0, BuildingBlock: QUQFOY_clean_sbu_1, # of connection points: 4
#     Node 10, Type 0, BuildingBlock: QUQFOY_clean_sbu_1, # of connection points: 4
#     Node 11, Type 0, BuildingBlock: QUQFOY_clean_sbu_1, # of connection points: 4
#     Node 12, Type 0, BuildingBlock: QUQFOY_clean_sbu_1, # of connection points: 4
#     Node 13, Type 0, BuildingBlock: QUQFOY_clean_sbu_1, # of connection points: 4
#     Node 14, Type 0, BuildingBlock: QUQFOY_clean_sbu_1, # of connection points: 4
#     Node 15, Type 0, BuildingBlock: QUQFOY_clean_sbu_1, # of connection points: 4
#     Edge 16, Type (0, 0), BuildingBlock: KIFKEQ_clean_linker_1, # of connection points: 2
#     Edge 17, Type (0, 0), BuildingBlock: KIFKEQ_clean_linker_1, # of connection points: 2
#     Edge 18, Type (0, 0), BuildingBlock: KIFKEQ_clean_linker_1, # of connection points: 2
#     Edge 19, Type (0, 0), BuildingBlock: KIFKEQ_clean_linker_1, # of connection points: 2
#     Edge 20, Type (0, 0), BuildingBlock: KIFKEQ_clean_linker_1, # of connection points: 2
#     Edge 21, Type (0, 0), BuildingBlock: KIFKEQ_clean_linker_1, # of connection points: 2
#     Edge 22, Type (0, 0), BuildingBlock: KIFKEQ_clean_linker_1, # of connection points: 2
#     Edge 23, Type (0, 0), BuildingBlock: KIFKEQ_clean_linker_1, # of connection points: 2
#     Edge 24, Type (0, 0), BuildingBlock: KIFKEQ_clean_linker_1, # of connection points: 2
#     Edge 25, Type (0, 0), BuildingBlock: KIFKEQ_clean_linker_1, # of connection points: 2
#     Edge 26, Type (0, 0), BuildingBlock: KIFKEQ_clean_linker_1, # of connection points: 2
#     Edge 27, Type (0, 0), BuildingBlock: KIFKEQ_clean_linker_1, # of connection points: 2
#     Edge 28, Type (0, 0), BuildingBlock: KIFKEQ_clean_linker_1, # of connection points: 2
#     Edge 29, Type (0, 0), BuildingBlock: KIFKEQ_clean_linker_1, # of connection points: 2
#     Edge 30, Type (0, 0), BuildingBlock: KIFKEQ_clean_linker_1, # of connection points: 2
#     Edge 31, Type (0, 0), BuildingBlock: KIFKEQ_clean_linker_1, # of connection points: 2
#     Edge 32, Type (0, 0), BuildingBlock: KIFKEQ_clean_linker_1, # of connection points: 2
#     Edge 33, Type (0, 0), BuildingBlock: KIFKEQ_clean_linker_1, # of connection points: 2
#     Edge 34, Type (0, 0), BuildingBlock: KIFKEQ_clean_linker_1, # of connection points: 2
#     Edge 35, Type (0, 0), BuildingBlock: KIFKEQ_clean_linker_1, # of connection points: 2
#     Edge 36, Type (0, 0), BuildingBlock: KIFKEQ_clean_linker_1, # of connection points: 2
#     Edge 37, Type (0, 0), BuildingBlock: KIFKEQ_clean_linker_1, # of connection points: 2
#     Edge 38, Type (0, 0), BuildingBlock: KIFKEQ_clean_linker_1, # of connection points: 2
#     Edge 39, Type (0, 0), BuildingBlock: KIFKEQ_clean_linker_1, # of connection points: 2
#     Edge 40, Type (0, 0), BuildingBlock: KIFKEQ_clean_linker_1, # of connection points: 2
#     Edge 41, Type (0, 0), BuildingBlock: KIFKEQ_clean_linker_1, # of connection points: 2
#     Edge 42, Type (0, 0), BuildingBlock: KIFKEQ_clean_linker_1, # of connection points: 2
#     Edge 43, Type (0, 0), BuildingBlock: KIFKEQ_clean_linker_1, # of connection points: 2
#     Edge 44, Type (0, 0), BuildingBlock: KIFKEQ_clean_linker_1, # of connection points: 2
#     Edge 45, Type (0, 0), BuildingBlock: KIFKEQ_clean_linker_1, # of connection points: 2
#     Edge 46, Type (0, 0), BuildingBlock: KIFKEQ_clean_linker_1, # of connection points: 2
#     Edge 47, Type (0, 0), BuildingBlock: KIFKEQ_clean_linker_1, # of connection points: 2
# Relax obj value: 0.159
# Max RMSD: 0.222
# Mean RMSD: 0.173
data_MOF--net-gsi--node1-QUQFOY_clean_sbu_1--edge1-KIFKEQ_clean_linker_1
_symmetry_space_group_name_H-M    P1
_symmetry_Int_Tables_number       1
_symmetry_cell_setting            triclinic
loop_
_symmetry_equiv_pos_as_xyz
'x, y, z'
_cell_length_a     38.090674
_cell_length_b     46.678827
_cell_length_c     48.687867
_cell_angle_alpha  90.071014
_cell_angle_beta   89.937554
_cell_angle_gamma 100.15875
loop_
_atom_site_label
_atom_site_type_symbol
_atom_site_fract_x
_atom_site_fract_y
_atom_site_fract_z
_atom_type_partial_charge
O0 O 0.10094 0.19244 0.12986 0.0
Cd1 Cd 0.14463 0.17231 0.13465 0.0
Cd2 Cd 0.10254 0.14592 0.17471 0.0
O3 O 0.06274 0.16396 0.15627 0.0
O4 O 0.17426 0.18667 0.10227 0.0
O5 O 0.15254 0.14011 0.10856 0.0
C6 C 0.17065 0.16028 0.09356 0.0
C7 C 0.0974 0.09753 0.18799 0.0
C8 C 0.06965 0.1851 0.13952 0.0
C9 C 0.16807 0.18692 0.1919 0.0
O10 O 0.13752 0.17345 0.19897 0.0
O11 O 0.1779 0.18689 0.16696 0.0
O12 O 0.08043 0.11516 0.2007 0.0
O13 O 0.11527 0.10689 0.16622 0.0
O14 O 0.86295 0.3146 0.131 0.0
Cd15 Cd 0.81974 0.33526 0.13607 0.0
Cd16 Cd 0.86173 0.36094 0.17647 0.0
O17 O 0.90112 0.34225 0.15809 0.0
O18 O 0.78976 0.32141 0.10378 0.0
O19 O 0.81235 0.3678 0.11029 0.0
C20 C 0.79368 0.34788 0.09532 0.0
C21 C 0.86784 0.40948 0.18954 0.0
C22 C 0.89413 0.32142 0.14097 0.0
C23 C 0.79533 0.32083 0.19322 0.0
O24 O 0.82588 0.33402 0.2006 0.0
O25 O 0.78607 0.32084 0.16818 0.0
O26 O 0.88425 0.39162 0.20242 0.0
O27 O 0.85 0.40021 0.16774 0.0
O28 O 0.1122 0.83688 0.36429 0.0
Cd29 Cd 0.16559 0.85435 0.36573 0.0
Cd30 Cd 0.14471 0.87458 0.31133 0.0
O31 O 0.09769 0.84822 0.32229 0.0
O32 O 0.17524 0.83577 0.40101 0.0
O33 O 0.18709 0.88326 0.39539 0.0
C34 C 0.1867 0.86105 0.41116 0.0
C35 C 0.13864 0.91692 0.28718 0.0
C36 C 0.08969 0.83511 0.34488 0.0
C37 C 0.20191 0.83721 0.31393 0.0
O38 O 0.18497 0.85303 0.29963 0.0
O39 O 0.19763 0.83526 0.3398 0.0
O40 O 0.13179 0.89161 0.27592 0.0
O41 O 0.14956 0.91841 0.31233 0.0
O42 O 0.8548 0.67176 0.36474 0.0
Cd43 Cd 0.80148 0.654 0.36622 0.0
Cd44 Cd 0.82238 0.63377 0.31196 0.0
O45 O 0.86935 0.66026 0.32275 0.0
O46 O 0.79165 0.67221 0.40172 0.0
O47 O 0.78014 0.62476 0.39561 0.0
C48 C 0.78036 0.64681 0.41162 0.0
C49 C 0.82848 0.59127 0.28799 0.0
C50 C 0.8773 0.67352 0.3453 0.0
C51 C 0.76504 0.67099 0.31458 0.0
O52 O 0.78206 0.65519 0.30025 0.0
O53 O 0.76929 0.67299 0.34044 0.0
O54 O 0.83531 0.61649 0.2766 0.0
O55 O 0.81757 0.58996 0.31316 0.0
O56 O 0.36665 0.81545 0.63156 0.0
Cd57 Cd 0.32146 0.83314 0.63812 0.0
Cd58 Cd 0.36445 0.8596 0.67909 0.0
O59 O 0.4042 0.84237 0.65963 0.0
O60 O 0.29232 0.8177 0.60582 0.0
O61 O 0.30925 0.86474 0.61305 0.0
C62 C 0.29294 0.844 0.59774 0.0
C63 C 0.37156 0.90743 0.69478 0.0
C64 C 0.3978 0.82252 0.64149 0.0
C65 C 0.29978 0.81648 0.69558 0.0
O66 O 0.32961 0.83122 0.70271 0.0
O67 O 0.28983 0.81615 0.67066 0.0
O68 O 0.38738 0.8885 0.70654 0.0
O69 O 0.35342 0.89967 0.67274 0.0
O70 O 0.83325 0.91215 0.85375 0.0
Cd71 Cd 0.82008 0.87268 0.87399 0.0
Cd72 Cd 0.8782 0.86379 0.84691 0.0
O73 O 0.88624 0.90757 0.83786 0.0
O74 O 0.78442 0.87979 0.90197 0.0
O75 O 0.83642 0.86808 0.91287 0.0
C76 C 0.80643 0.87473 0.92069 0.0
C77 C 0.92139 0.83747 0.86159 0.0
C78 C 0.8617 0.92259 0.84087 0.0
C79 C 0.80887 0.8286 0.82942 0.0
O80 O 0.84086 0.83873 0.82284 0.0
O81 O 0.7955 0.8372 0.8512 0.0
O82 O 0.92246 0.84895 0.83745 0.0
O83 O 0.89741 0.84324 0.87853 0.0
O84 O 0.13436 0.59159 0.85305 0.0
Cd85 Cd 0.14917 0.63111 0.87264 0.0
Cd86 Cd 0.08912 0.64132 0.84765 0.0
O87 O 0.08232 0.59789 0.8365 0.0
O88 O 0.18466 0.624 0.90069 0.0
O89 O 0.13327 0.63704 0.9114 0.0
C90 C 0.16301 0.63002 0.91932 0.0
C91 C 0.04391 0.66572 0.86226 0.0
C92 C 0.10603 0.58208 0.83969 0.0
C93 C 0.15886 0.67693 0.8295 0.0
O94 O 0.12582 0.66883 0.825 0.0
O95 O 0.17399 0.66564 0.84895 0.0
O96 O 0.0443 0.65512 0.83783 0.0
O97 O 0.0675 0.66001 0.8795 0.0
O98 O 0.87465 0.1569 0.67768 0.0
Cd99 Cd 0.82942 0.13534 0.69647 0.0
Cd100 Cd 0.79756 0.15735 0.64578 0.0
O101 O 0.8511 0.17373 0.64088 0.0
O102 O 0.84937 0.12144 0.73098 0.0
O103 O 0.82026 0.09135 0.70052 0.0
C104 C 0.83712 0.09516 0.72357 0.0
C105 C 0.76653 0.14926 0.60391 0.0
C106 C 0.87799 0.17181 0.65572 0.0
C107 C 0.77644 0.17706 0.70177 0.0
O108 O 0.77201 0.17689 0.67591 0.0
O109 O 0.79717 0.16196 0.71296 0.0
O110 O 0.77976 0.17492 0.61244 0.0
O111 O 0.77026 0.1276 0.61941 0.0
O112 O 0.09431 0.34405 0.67929 0.0
Cd113 Cd 0.13923 0.36832 0.69657 0.0
Cd114 Cd 0.16784 0.34951 0.64388 0.0
O115 O 0.11476 0.332 0.63915 0.0
O116 O 0.11999 0.38212 0.73148 0.0
O117 O 0.14525 0.41229 0.69952 0.0
C118 C 0.12981 0.40845 0.72317 0.0
C119 C 0.19976 0.36064 0.60273 0.0
C120 C 0.08941 0.33106 0.65628 0.0
C121 C 0.19425 0.32911 0.69845 0.0
O122 O 0.19447 0.32902 0.67237 0.0
O123 O 0.17554 0.34445 0.7117 0.0
O124 O 0.18799 0.33432 0.61018 0.0
O125 O 0.19315 0.38123 0.61855 0.0
O126 O 0.63418 0.09692 0.34633 0.0
Cd127 Cd 0.64513 0.13568 0.36765 0.0
Cd128 Cd 0.58442 0.14275 0.34283 0.0
O129 O 0.57924 0.09888 0.33325 0.0
O130 O 0.68458 0.13094 0.39302 0.0
O131 O 0.6317 0.13774 0.40765 0.0
C132 C 0.6637 0.1339 0.41325 0.0
C133 C 0.54006 0.16697 0.35922 0.0
C134 C 0.60543 0.08532 0.33446 0.0
C135 C 0.65117 0.18138 0.32463 0.0
O136 O 0.61919 0.17048 0.31869 0.0
O137 O 0.66618 0.17215 0.34528 0.0
O138 O 0.53836 0.1555 0.33503 0.0
O139 O 0.56518 0.16194 0.37539 0.0
O140 O 0.60406 0.69373 0.63321 0.0
Cd141 Cd 0.64698 0.67291 0.63968 0.0
Cd142 Cd 0.60124 0.64776 0.67783 0.0
O143 O 0.56291 0.66472 0.6567 0.0
O144 O 0.67828 0.68831 0.60847 0.0
O145 O 0.65705 0.64149 0.61341 0.0
C146 C 0.67549 0.66219 0.5992 0.0
C147 C 0.59544 0.59965 0.69206 0.0
C148 C 0.57176 0.68627 0.64068 0.0
C149 C 0.66555 0.6882 0.69748 0.0
O150 O 0.63361 0.67654 0.70279 0.0
O151 O 0.67826 0.6862 0.67355 0.0
O152 O 0.5776 0.61744 0.70361 0.0
O153 O 0.61492 0.60874 0.67097 0.0
O154 O 0.61429 0.33563 0.8694 0.0
Cd155 Cd 0.66615 0.35584 0.86354 0.0
Cd156 Cd 0.6308 0.37269 0.8135 0.0
O157 O 0.58675 0.34965 0.83317 0.0
O158 O 0.68773 0.33774 0.89473 0.0
O159 O 0.6905 0.38507 0.892 0.0
C160 C 0.69802 0.36302 0.90522 0.0
C161 C 0.62414 0.41542 0.79052 0.0
C162 C 0.58612 0.33533 0.85541 0.0
C163 C 0.68791 0.33581 0.80746 0.0
O164 O 0.6647 0.3481 0.79581 0.0
O165 O 0.69305 0.33807 0.83319 0.0
O166 O 0.61084 0.39013 0.78092 0.0
O167 O 0.64119 0.4166 0.81353 0.0
O168 O 0.34593 0.17813 0.86744 0.0
Cd169 Cd 0.29617 0.15352 0.86102 0.0
Cd170 Cd 0.33809 0.13477 0.8171 0.0
O171 O 0.37974 0.15773 0.83922 0.0
O172 O 0.26981 0.17044 0.89042 0.0
O173 O 0.27461 0.12418 0.89022 0.0
C174 C 0.26313 0.14545 0.90211 0.0
C175 C 0.34626 0.0918 0.79501 0.0
C176 C 0.37643 0.17619 0.85781 0.0
C177 C 0.28048 0.16973 0.80351 0.0
O178 O 0.30808 0.16002 0.79595 0.0
O179 O 0.26892 0.16597 0.82795 0.0
O180 O 0.36168 0.11696 0.78645 0.0
O181 O 0.32648 0.09083 0.81667 0.0
O182 O 0.32974 0.41254 0.34475 0.0
Cd183 Cd 0.31684 0.3741 0.36619 0.0
Cd184 Cd 0.37749 0.36522 0.34224 0.0
O185 O 0.3842 0.40893 0.33163 0.0
O186 O 0.28039 0.38161 0.3933 0.0
O187 O 0.33235 0.3705 0.40535 0.0
C188 C 0.30201 0.37701 0.41248 0.0
C189 C 0.42164 0.34052 0.35823 0.0
C190 C 0.35872 0.42326 0.33274 0.0
C191 C 0.3091 0.32777 0.32405 0.0
O192 O 0.34168 0.33745 0.31886 0.0
O193 O 0.29371 0.33811 0.34396 0.0
O194 O 0.42276 0.35136 0.33384 0.0
O195 O 0.39726 0.34637 0.37475 0.0
O196 O 0.3826 0.66127 0.16505 0.0
Cd197 Cd 0.34311 0.64184 0.19135 0.0
Cd198 Cd 0.29824 0.65992 0.14871 0.0
O199 O 0.34802 0.68132 0.13728 0.0
O200 O 0.36987 0.62399 0.22011 0.0
O201 O 0.32739 0.59835 0.19492 0.0
C202 C 0.35069 0.59917 0.2143 0.0
C203 C 0.26005 0.64735 0.11097 0.0
C204 C 0.37886 0.67833 0.14535 0.0
C205 C 0.2902 0.68056 0.20663 0.0
O206 O 0.27668 0.67627 0.1828 0.0
O207 O 0.3174 0.66984 0.21338 0.0
O208 O 0.26873 0.67374 0.11936 0.0
O209 O 0.27229 0.62749 0.12449 0.0
O210 O 0.58609 0.84804 0.16611 0.0
Cd211 Cd 0.62537 0.86719 0.1927 0.0
Cd212 Cd 0.67064 0.8491 0.14996 0.0
O213 O 0.62081 0.82804 0.13832 0.0
O214 O 0.59834 0.88469 0.22163 0.0
O215 O 0.64102 0.91066 0.19686 0.0
C216 C 0.61754 0.90959 0.21617 0.0
C217 C 0.70923 0.86111 0.1123 0.0
C218 C 0.58993 0.83108 0.14631 0.0
C219 C 0.67797 0.82818 0.20782 0.0
O220 O 0.69174 0.83257 0.18407 0.0
O221 O 0.65076 0.83893 0.21455 0.0
O222 O 0.70013 0.83481 0.12079 0.0
O223 O 0.69718 0.88121 0.12568 0.0
H224 H 0.23011 0.22508 0.18289 0.0
H225 H 0.158 0.18832 0.24743 0.0
H226 H 0.26474 0.25727 0.21611 0.0
H227 H 0.19328 0.22001 0.28082 0.0
H228 H 0.23713 0.30748 0.32311 0.0
H229 H 0.20451 0.27118 0.29214 0.0
H230 H 0.30385 0.25886 0.2549 0.0
H231 H 0.3363 0.29566 0.28524 0.0
C232 C 0.22197 0.22353 0.20424 0.0
C233 C 0.19117 0.20427 0.21248 0.0
C234 C 0.24192 0.24191 0.22333 0.0
C235 C 0.23166 0.24131 0.25111 0.0
C236 C 0.20153 0.22136 0.25949 0.0
C237 C 0.18146 0.20307 0.24038 0.0
C238 C 0.25199 0.29691 0.3084 0.0
C239 C 0.28924 0.30464 0.30647 0.0
C240 C 0.23333 0.27597 0.29076 0.0
C241 C 0.25159 0.26221 0.27097 0.0
C242 C 0.28893 0.26942 0.26958 0.0
C243 C 0.30754 0.29045 0.28706 0.0
H244 H 0.80288 0.32094 0.24902 0.0
H245 H 0.73405 0.28209 0.18342 0.0
H246 H 0.76633 0.28991 0.28219 0.0
H247 H 0.69825 0.25047 0.21642 0.0
H248 H 0.72263 0.20328 0.32537 0.0
H249 H 0.75565 0.23937 0.29454 0.0
H250 H 0.65736 0.24857 0.25397 0.0
H251 H 0.62451 0.21182 0.28421 0.0
C252 C 0.77988 0.30585 0.24169 0.0
C253 C 0.77146 0.30386 0.21357 0.0
C254 C 0.75907 0.28795 0.26068 0.0
C255 C 0.72955 0.26754 0.25195 0.0
C256 C 0.72054 0.26619 0.22391 0.0
C257 C 0.74119 0.28423 0.20495 0.0
C258 C 0.70806 0.21312 0.30996 0.0
C259 C 0.67102 0.20452 0.30708 0.0
C260 C 0.72695 0.23396 0.2924 0.0
C261 C 0.70915 0.24681 0.27172 0.0
C262 C 0.67196 0.23874 0.26936 0.0
C263 C 0.65312 0.21775 0.28678 0.0
H264 H 0.23196 0.70642 0.19938 0.0
H265 H 0.31851 0.70216 0.25577 0.0
H266 H 0.21478 0.74554 0.2264 0.0
H267 H 0.30152 0.74179 0.2826 0.0
H268 H 0.23203 0.79356 0.33649 0.0
H269 H 0.25414 0.75477 0.312 0.0
H270 H 0.23977 0.79674 0.23483 0.0
H271 H 0.21706 0.83522 0.25915 0.0
C272 C 0.24717 0.71365 0.21767 0.0
C273 C 0.27677 0.70125 0.22529 0.0
C274 C 0.23754 0.73631 0.23299 0.0
C275 C 0.25727 0.74717 0.2563 0.0
C276 C 0.28585 0.73392 0.26471 0.0
C277 C 0.29552 0.71118 0.24935 0.0
C278 C 0.23423 0.79485 0.31433 0.0
C279 C 0.22231 0.81734 0.29976 0.0
C280 C 0.24688 0.77257 0.30031 0.0
C281 C 0.24793 0.77237 0.27147 0.0
C282 C 0.23835 0.79589 0.25704 0.0
C283 C 0.22567 0.81812 0.27101 0.0
H284 H 0.75023 0.67306 0.25977 0.0
H285 H 0.73458 0.71447 0.33724 0.0
H286 H 0.72769 0.7116 0.23554 0.0
H287 H 0.71264 0.75332 0.31284 0.0
H288 H 0.64904 0.80631 0.25668 0.0
H289 H 0.66558 0.76646 0.28332 0.0
H290 H 0.75287 0.76284 0.22746 0.0
H291 H 0.73614 0.80217 0.20062 0.0
C292 C 0.74149 0.69012 0.27168 0.0
C293 C 0.74463 0.69083 0.30044 0.0
C294 C 0.72891 0.71238 0.25776 0.0
C295 C 0.71921 0.73585 0.27226 0.0
C296 C 0.72 0.73556 0.3011 0.0
C297 C 0.73256 0.71325 0.31507 0.0
C298 C 0.67205 0.79727 0.25029 0.0
C299 C 0.6911 0.8073 0.22638 0.0
C300 C 0.68146 0.7744 0.26554 0.0
C301 C 0.71008 0.76114 0.25717 0.0
C302 C 0.73008 0.77208 0.23401 0.0
C303 C 0.7207 0.79487 0.2188 0.0
H304 H 0.23811 0.77763 0.68697 0.0
H305 H 0.31151 0.81397 0.75084 0.0
H306 H 0.20425 0.74511 0.72036 0.0
H307 H 0.27709 0.78187 0.78435 0.0
H308 H 0.23139 0.6951 0.82747 0.0
H309 H 0.26475 0.73033 0.79577 0.0
H310 H 0.16584 0.74509 0.75975 0.0
H311 H 0.13268 0.70957 0.79079 0.0
C312 C 0.24678 0.77895 0.70818 0.0
C313 C 0.27757 0.79834 0.7162 0.0
C314 C 0.22728 0.76038 0.72736 0.0
C315 C 0.23805 0.76086 0.75501 0.0
C316 C 0.26843 0.78066 0.76313 0.0
C317 C 0.28798 0.7992 0.74394 0.0
C318 C 0.21681 0.70598 0.81286 0.0
C319 C 0.17942 0.69935 0.81152 0.0
C320 C 0.23589 0.72627 0.79479 0.0
C321 C 0.21792 0.74038 0.77512 0.0
C322 C 0.18052 0.73421 0.77429 0.0
C323 C 0.16151 0.71392 0.79221 0.0
H324 H 0.73805 0.70382 0.69972 0.0
H325 H 0.64148 0.7125 0.74306 0.0
H326 H 0.77302 0.7354 0.73333 0.0
H327 H 0.67601 0.74534 0.77575 0.0
H328 H 0.74984 0.78836 0.84256 0.0
H329 H 0.71632 0.75158 0.81237 0.0
H330 H 0.78566 0.78452 0.7448 0.0
H331 H 0.81997 0.81991 0.77525 0.0
C332 C 0.72433 0.71255 0.71642 0.0
C333 C 0.68707 0.70579 0.71872 0.0
C334 C 0.7443 0.73085 0.73559 0.0
C335 C 0.72738 0.7433 0.75716 0.0
C336 C 0.6901 0.73592 0.75972 0.0
C337 C 0.67023 0.71718 0.74085 0.0
C338 C 0.75782 0.78759 0.82125 0.0
C339 C 0.78753 0.8069 0.81127 0.0
C340 C 0.73858 0.76661 0.80389 0.0
C341 C 0.74832 0.76488 0.77608 0.0
C342 C 0.77784 0.78457 0.76618 0.0
C343 C 0.79738 0.80511 0.78361 0.0
H344 H 0.71966 0.29275 0.82814 0.0
H345 H 0.69392 0.33091 0.75158 0.0
H346 H 0.7391 0.25346 0.8033 0.0
H347 H 0.71556 0.2923 0.72636 0.0
H348 H 0.71976 0.20368 0.68981 0.0
H349 H 0.69986 0.24283 0.71541 0.0
H350 H 0.78222 0.23943 0.77586 0.0
H351 H 0.80039 0.19935 0.75124 0.0
C352 C 0.71908 0.2932 0.8059 0.0
C353 C 0.70522 0.31498 0.79182 0.0
C354 C 0.73033 0.27058 0.79157 0.0
C355 C 0.72876 0.26944 0.76273 0.0
C356 C 0.71635 0.292 0.74858 0.0
C357 C 0.7044 0.31439 0.76299 0.0
C358 C 0.73311 0.21104 0.70884 0.0
C359 C 0.76142 0.19829 0.71862 0.0
C360 C 0.72208 0.23377 0.72334 0.0
C361 C 0.73961 0.24462 0.74765 0.0
C362 C 0.76759 0.23145 0.75754 0.0
C363 C 0.77808 0.20838 0.74338 0.0
H364 H 0.22628 0.2865 0.67633 0.0
H365 H 0.20061 0.32271 0.75407 0.0
H366 H 0.24529 0.24626 0.70019 0.0
H367 H 0.22095 0.28287 0.77804 0.0
H368 H 0.2199 0.19271 0.81133 0.0
H369 H 0.20091 0.23177 0.78526 0.0
H370 H 0.28924 0.23236 0.72932 0.0
H371 H 0.30745 0.1927 0.75474 0.0
C372 C 0.22542 0.28626 0.69857 0.0
C373 C 0.21169 0.30778 0.71328 0.0
C374 C 0.23636 0.26311 0.71226 0.0
C375 C 0.23415 0.26106 0.74102 0.0
C376 C 0.22211 0.28337 0.75582 0.0
C377 C 0.21089 0.30643 0.7421 0.0
C378 C 0.23487 0.20081 0.79317 0.0
C379 C 0.26527 0.18964 0.78519 0.0
C380 C 0.22427 0.22348 0.77843 0.0
C381 C 0.24396 0.23561 0.75551 0.0
C382 C 0.27335 0.22349 0.7468 0.0
C383 C 0.28378 0.20067 0.76139 0.0
H384 H 0.14104 0.97228 0.30671 0.0
H385 H 0.12341 0.92061 0.23268 0.0
H386 H 0.12927 0.01472 0.28133 0.0
H387 H 0.11151 0.96297 0.20743 0.0
H388 H 0.13314 0.05576 0.16802 0.0
H389 H 0.14315 0.0116 0.19146 0.0
H390 H 0.07703 0.03045 0.25887 0.0
H391 H 0.06709 0.07447 0.23563 0.0
C392 C 0.13479 0.97 0.28503 0.0
C393 C 0.1331 0.94307 0.27174 0.0
C394 C 0.12779 0.99424 0.27054 0.0
C395 C 0.11924 0.99212 0.24241 0.0
C396 C 0.11821 0.96532 0.22902 0.0
C397 C 0.12491 0.94104 0.24355 0.0
C398 C 0.12029 0.05023 0.18763 0.0
C399 C 0.09941 0.0687 0.19997 0.0
C400 C 0.12605 0.02496 0.20107 0.0
C401 C 0.11126 0.01778 0.22718 0.0
C402 C 0.08933 0.03569 0.23901 0.0
C403 C 0.08338 0.06078 0.22553 0.0
H404 H 0.89835 0.43255 0.23711 0.0
H405 H 0.83313 0.45168 0.16929 0.0
H406 H 0.8891 0.47693 0.26016 0.0
H407 H 0.82379 0.49618 0.19256 0.0
H408 H 0.84415 0.58726 0.23357 0.0
H409 H 0.85584 0.54466 0.20847 0.0
H410 H 0.83715 0.4933 0.28247 0.0
H411 H 0.82561 0.53597 0.30769 0.0
C412 C 0.8824 0.4464 0.22693 0.0
C413 C 0.86637 0.4385 0.20137 0.0
C414 C 0.87684 0.47171 0.24029 0.0
C415 C 0.85532 0.48983 0.22837 0.0
C416 C 0.84058 0.48266 0.20224 0.0
C417 C 0.84595 0.45719 0.18891 0.0
C418 C 0.84241 0.56686 0.2445 0.0
C419 C 0.834 0.565 0.27266 0.0
C420 C 0.84899 0.54244 0.23006 0.0
C421 C 0.84762 0.51568 0.24351 0.0
C422 C 0.8389 0.51375 0.27162 0.0
C423 C 0.83203 0.53812 0.28603 0.0
H424 H 0.22501 0.18311 0.92482 0.0
H425 H 0.25995 0.10144 0.94027 0.0
H426 H 0.20208 0.18313 0.9713 0.0
H427 H 0.23703 0.10169 0.98751 0.0
H428 H 0.15992 0.10884 0.06429 0.0
H429 H 0.18015 0.10144 0.01725 0.0
H430 H 0.23541 0.19052 0.01538 0.0
H431 H 0.21524 0.19799 0.06165 0.0
C432 C 0.22753 0.16498 0.9381 0.0
C433 C 0.24477 0.14248 0.929 0.0
C434 C 0.2145 0.16507 0.9648 0.0
C435 C 0.21849 0.14275 0.98322 0.0
C436 C 0.23373 0.11922 0.97374 0.0
C437 C 0.24682 0.11909 0.94676 0.0
C438 C 0.1767 0.12668 0.05385 0.0
C439 C 0.18558 0.15411 0.06654 0.0
C440 C 0.18829 0.12242 0.027 0.0
C441 C 0.20875 0.14557 0.0125 0.0
C442 C 0.21894 0.17247 0.02579 0.0
C443 C 0.20748 0.17669 0.0524 0.0
H444 H 0.80751 0.39849 0.06499 0.0
H445 H 0.74471 0.31182 0.06541 0.0
H446 H 0.78629 0.40592 0.01829 0.0
H447 H 0.72344 0.31937 0.01955 0.0
H448 H 0.73148 0.323 0.92882 0.0
H449 H 0.75515 0.32305 0.97499 0.0
H450 H 0.72992 0.40849 0.98917 0.0
H451 H 0.70638 0.40867 0.94211 0.0
C452 C 0.78885 0.38125 0.05531 0.0
C453 C 0.77821 0.35441 0.06868 0.0
C454 C 0.7767 0.38553 0.02866 0.0
C455 C 0.75381 0.363 0.0151 0.0
C456 C 0.74179 0.33686 0.02918 0.0
C457 C 0.7539 0.33259 0.05555 0.0
C458 C 0.73121 0.34198 0.9416 0.0
C459 C 0.71656 0.36565 0.93199 0.0
C460 C 0.74466 0.34194 0.96813 0.0
C461 C 0.74359 0.36547 0.98591 0.0
C462 C 0.73091 0.39001 0.9759 0.0
C463 C 0.71747 0.39011 0.94904 0.0
H464 H 0.26477 0.80388 0.55995 0.0
H465 H 0.28364 0.8965 0.57544 0.0
H466 H 0.23803 0.81156 0.51623 0.0
H467 H 0.25542 0.90424 0.53136 0.0
H468 H 0.23845 0.90245 0.43466 0.0
H469 H 0.26318 0.90111 0.48116 0.0
H470 H 0.18483 0.82451 0.49903 0.0
H471 H 0.16161 0.82519 0.45272 0.0
C472 C 0.26284 0.82595 0.55416 0.0
C473 C 0.27611 0.84956 0.57133 0.0
C474 C 0.24722 0.83036 0.52905 0.0
C475 C 0.24396 0.85849 0.52041 0.0
C476 C 0.25756 0.88229 0.5374 0.0
C477 C 0.27353 0.87786 0.56267 0.0
C478 C 0.2264 0.88562 0.44877 0.0
C479 C 0.19862 0.86361 0.44002 0.0
C480 C 0.24043 0.88487 0.47538 0.0
C481 C 0.22651 0.86229 0.49363 0.0
C482 C 0.19699 0.84165 0.48528 0.0
C483 C 0.18352 0.84212 0.45876 0.0
H484 H 0.70578 0.70278 0.56261 0.0
H485 H 0.68223 0.60977 0.57531 0.0
H486 H 0.73206 0.69553 0.51856 0.0
H487 H 0.71012 0.6024 0.53096 0.0
H488 H 0.72766 0.60586 0.43457 0.0
H489 H 0.7032 0.60684 0.48122 0.0
H490 H 0.78376 0.68168 0.50021 0.0
H491 H 0.8066 0.68147 0.45371 0.0
C492 C 0.70663 0.6807 0.55614 0.0
C493 C 0.69214 0.65686 0.57261 0.0
C494 C 0.72199 0.67652 0.53084 0.0
C495 C 0.72384 0.64838 0.52132 0.0
C496 C 0.70908 0.62437 0.53765 0.0
C497 C 0.69329 0.62858 0.56308 0.0
C498 C 0.74022 0.62223 0.44896 0.0
C499 C 0.76854 0.64391 0.4405 0.0
C500 C 0.72635 0.62277 0.47566 0.0
C501 C 0.74098 0.64478 0.4943 0.0
C502 C 0.771 0.66503 0.48618 0.0
C503 C 0.78429 0.66481 0.45956 0.0
H504 H 0.96557 0.33199 0.15302 0.0
H505 H 0.88312 0.26833 0.11576 0.0
H506 H 0.00759 0.2983 0.14812 0.0
H507 H 0.92507 0.23473 0.1112 0.0
H508 H -0.00181 0.17409 0.15174 0.0
H509 H 0.95599 0.20771 0.1476 0.0
H510 H 0.03808 0.27187 0.11096 0.0
H511 H 0.0802 0.23835 0.11475 0.0
C512 C 0.95654 0.31103 0.14345 0.0
C513 C 0.92096 0.30285 0.13489 0.0
C514 C 0.98061 0.29178 0.14058 0.0
C515 C 0.96945 0.26386 0.12944 0.0
C516 C 0.93425 0.25602 0.12007 0.0
C517 C 0.91034 0.27539 0.12255 0.0
C518 C 0.00708 0.19516 0.14237 0.0
C519 C 0.04261 0.20354 0.1337 0.0
C520 C 0.9829 0.21437 0.13994 0.0
C521 C -0.00608 0.24245 0.12915 0.0
C522 C 0.02903 0.25045 0.11959 0.0
C523 C 0.05304 0.23114 0.12164 0.0
H524 H 0.92944 0.68741 0.30641 0.0
H525 H 0.90105 0.70801 0.38925 0.0
H526 H 0.97982 0.72759 0.30776 0.0
H527 H 0.95093 0.74849 0.39029 0.0
H528 H 0.03763 0.82095 0.30602 0.0
H529 H -0.01284 0.78086 0.30758 0.0
H530 H 0.01568 0.76075 0.39031 0.0
H531 H 0.06566 0.80114 0.38906 0.0
C532 C 0.93416 0.70025 0.32503 0.0
C533 C 0.91106 0.69458 0.34766 0.0
C534 C 0.96277 0.7235 0.32566 0.0
C535 C 0.96892 0.74153 0.34894 0.0
C536 C 0.94691 0.73498 0.37206 0.0
C537 C 0.9183 0.71174 0.37144 0.0
C538 C 0.03281 0.80831 0.32473 0.0
C539 C 0.05584 0.81417 0.34735 0.0
C540 C 0.00414 0.78511 0.32548 0.0
C541 C -0.00213 0.76732 0.34888 0.0
C542 C 0.0198 0.77407 0.37199 0.0
C543 C 0.04846 0.79726 0.37125 0.0
H544 H 0.4993 0.67516 0.64815 0.0
H545 H 0.58535 0.74042 0.61772 0.0
H546 H 0.45812 0.70939 0.6428 0.0
H547 H 0.54416 0.77457 0.61268 0.0
H548 H 0.46873 0.83258 0.65532 0.0
H549 H 0.51102 0.79928 0.64948 0.0
H550 H 0.43092 0.73882 0.60643 0.0
H551 H 0.3887 0.77203 0.61194 0.0
C552 C 0.50931 0.69658 0.6399 0.0
C553 C 0.54564 0.70508 0.63353 0.0
C554 C 0.48572 0.71615 0.63676 0.0
C555 C 0.49809 0.74467 0.62752 0.0
C556 C 0.53405 0.75279 0.62007 0.0
C557 C 0.55753 0.73313 0.62283 0.0
C558 C 0.46034 0.81246 0.64414 0.0
C559 C 0.42526 0.8049 0.6343 0.0
C560 C 0.48458 0.79344 0.64073 0.0
C561 C 0.47406 0.7664 0.6277 0.0
C562 C 0.43956 0.75942 0.61678 0.0
C563 C 0.41549 0.77856 0.61985 0.0
H564 H 0.83227 0.03778 0.70925 0.0
H565 H 0.85425 0.09697 0.77786 0.0
H566 H 0.84226 0.9975 0.73885 0.0
H567 H 0.86355 0.0567 0.80738 0.0
H568 H 0.8258 0.96675 0.85283 0.0
H569 H 0.82192 0.00942 0.82468 0.0
H570 H 0.89649 0.98365 0.76686 0.0
H571 H 0.90099 0.9412 0.79525 0.0
C572 C 0.83911 0.04215 0.73061 0.0
C573 C 0.84245 0.0705 0.74123 0.0
C574 C 0.84507 0.01919 0.74747 0.0
C575 C 0.85378 0.02409 0.77535 0.0
C576 C 0.8568 0.05236 0.78599 0.0
C577 C 0.85154 0.07537 0.76905 0.0
C578 C 0.8419 0.97049 0.8344 0.0
C579 C 0.86375 0.95065 0.8263 0.0
C580 C 0.83964 0.99487 0.81829 0.0
C581 C 0.85864 0.99961 0.7935 0.0
C582 C 0.88132 0.9803 0.78578 0.0
C583 C 0.88415 0.95621 0.80218 0.0
H584 H 0.06705 0.56428 0.79365 0.0
H585 H 0.13979 0.53683 0.85198 0.0
H586 H 0.07043 0.52142 0.76538 0.0
H587 H 0.14272 0.49392 0.82392 0.0
H588 H 0.11219 0.4071 0.77743 0.0
H589 H 0.10224 0.44749 0.80657 0.0
H590 H 0.12261 0.50595 0.7375 0.0
H591 H 0.13304 0.4655 0.70824 0.0
C592 C 0.08311 0.54879 0.80075 0.0
C593 C 0.10317 0.55393 0.82505 0.0
C594 C 0.08531 0.52445 0.78442 0.0
C595 C 0.10705 0.50451 0.79237 0.0
C596 C 0.12567 0.50889 0.81734 0.0
C597 C 0.12399 0.53346 0.83339 0.0
C598 C 0.11449 0.42854 0.76839 0.0
C599 C 0.12354 0.43314 0.74053 0.0
C600 C 0.10885 0.45165 0.78512 0.0
C601 C 0.11154 0.4798 0.77428 0.0
C602 C 0.12002 0.48438 0.74632 0.0
C603 C 0.12624 0.46131 0.72964 0.0
H604 H 0.71979 0.91081 0.08111 0.0
H605 H 0.74663 0.82481 0.08587 0.0
H606 H 0.74839 0.91758 0.03594 0.0
H607 H 0.7748 0.83148 0.04092 0.0
H608 H 0.84215 0.85856 0.96539 0.0
H609 H 0.82436 0.85918 0.01368 0.0
H610 H 0.73167 0.89511 0.99053 0.0
H611 H 0.74943 0.89469 0.94253 0.0
C612 C 0.7323 0.89358 0.07275 0.0
C613 C 0.73069 0.8672 0.08694 0.0
C614 C 0.74847 0.89738 0.04684 0.0
C615 C 0.76363 0.87498 0.03478 0.0
C616 C 0.76365 0.84925 0.04969 0.0
C617 C 0.74727 0.84537 0.07541 0.0
C618 C 0.81815 0.86681 0.97067 0.0
C619 C 0.79706 0.87636 0.95011 0.0
C620 C 0.80794 0.86711 0.9983 0.0
C621 C 0.77662 0.87722 1.00593 0.0
C622 C 0.75618 0.88756 0.9854 0.0
C623 C 0.76621 0.88705 0.95784 0.0
H624 H 0.21982 0.61019 0.94153 0.0
H625 H 0.12769 0.64756 0.96371 0.0
H626 H 0.23771 0.61084 0.98952 0.0
H627 H 0.14557 0.64798 0.01199 0.0
H628 H 0.22304 0.68331 0.08379 0.0
H629 H 0.19508 0.67588 0.03885 0.0
H630 H 0.22113 0.58957 0.03528 0.0
H631 H 0.24957 0.59712 0.08042 0.0
C632 C 0.20319 0.61833 0.95669 0.0
C633 C 0.17247 0.62906 0.94876 0.0
C634 C 0.21329 0.61843 0.98426 0.0
C635 C 0.19305 0.62941 1.00458 0.0
C636 C 0.16186 0.63956 0.99676 0.0
C637 C 0.15159 0.63927 0.96913 0.0
C638 C 0.22239 0.66256 0.07363 0.0
C639 C 0.23881 0.64088 0.08556 0.0
C640 C 0.20612 0.65825 0.04792 0.0
C641 C 0.20607 0.63222 0.03341 0.0
C642 C 0.22112 0.61 0.04585 0.0
C643 C 0.23719 0.61424 0.07175 0.0
H644 H 0.62459 0.1263 0.46098 0.0
H645 H 0.73264 0.14112 0.42999 0.0
H646 H 0.64769 0.1276 0.50822 0.0
H647 H 0.75532 0.14301 0.47688 0.0
H648 H 0.7725 0.18854 0.56252 0.0
H649 H 0.7457 0.18265 0.51702 0.0
H650 H 0.69347 0.09579 0.53804 0.0
H651 H 0.72112 0.10133 0.58389 0.0
C652 C 0.65315 0.12975 0.46424 0.0
C653 C 0.67681 0.13371 0.44181 0.0
C654 C 0.66627 0.1303 0.49117 0.0
C655 C 0.70319 0.13541 0.49599 0.0
C656 C 0.72673 0.13907 0.4736 0.0
C657 C 0.7137 0.13796 0.4468 0.0
C658 C 0.75523 0.16817 0.55759 0.0
C659 C 0.74899 0.14534 0.57676 0.0
C660 C 0.73998 0.16484 0.53153 0.0
C661 C 0.71764 0.13881 0.52418 0.0
C662 C 0.71056 0.1161 0.54341 0.0
C663 C 0.72647 0.11923 0.56948 0.0
H664 H 0.23085 0.32249 0.57332 0.0
H665 H 0.21373 0.41155 0.57329 0.0
H666 H 0.25999 0.32994 0.52879 0.0
H667 H 0.24303 0.419 0.5283 0.0
H668 H 0.24601 0.39922 0.43326 0.0
H669 H 0.22594 0.39873 0.48084 0.0
H670 H 0.31429 0.35799 0.50538 0.0
H671 H 0.33453 0.35847 0.45763 0.0
C672 C 0.23358 0.34377 0.56388 0.0
C673 C 0.21976 0.3664 0.5767 0.0
C674 C 0.25056 0.34808 0.53845 0.0
C675 C 0.25381 0.37504 0.52508 0.0
C676 C 0.24072 0.39794 0.53813 0.0
C677 C 0.22409 0.39373 0.56386 0.0
C678 C 0.26138 0.39039 0.44882 0.0
C679 C 0.29168 0.37863 0.44166 0.0
C680 C 0.25003 0.39036 0.47611 0.0
C681 C 0.26851 0.37829 0.4968 0.0
C682 C 0.29941 0.36726 0.48979 0.0
C683 C 0.31102 0.36759 0.46249 0.0
H684 H -0.00812 0.68058 0.82989 0.0
H685 H 0.04432 0.7006 0.90802 0.0
H686 H 0.96381 0.72328 0.83425 0.0
H687 H 0.01543 0.74351 0.91242 0.0
H688 H 0.91954 0.8025 0.90734 0.0
H689 H 0.94759 0.75919 0.91215 0.0
H690 H -7e-05 0.77815 0.83402 0.0
H691 H 0.97272 0.82124 0.82926 0.0
C692 C -0.0032 0.69368 0.84833 0.0
C693 C 0.02072 0.68733 0.86845 0.0
C694 C 0.98083 0.71823 0.85072 0.0
C695 C -0.01196 0.73691 0.87341 0.0
C696 C 0.00961 0.72945 0.89468 0.0
C697 C 0.02599 0.70487 0.89217 0.0
C698 C 0.93777 0.79782 0.89155 0.0
C699 C 0.9436 0.81518 0.86777 0.0
C700 C 0.95368 0.77301 0.8943 0.0
C701 C 0.97528 0.76513 0.87319 0.0
C702 C 0.98287 0.78352 0.85036 0.0
C703 C 0.96739 0.80831 0.84775 0.0
H704 H 0.06854 0.29902 0.60989 0.0
H705 H 0.03396 0.31648 0.69196 0.0
H706 H 0.01835 0.25846 0.60591 0.0
H707 H -0.01554 0.27598 0.68787 0.0
H708 H 0.93786 0.1803 0.68751 0.0
H709 H -0.01174 0.22017 0.68406 0.0
H710 H 0.94649 0.2479 0.60817 0.0
H711 H 0.89549 0.20802 0.61153 0.0
C712 C 0.04995 0.29461 0.62683 0.0
C713 C 0.05552 0.31079 0.65137 0.0
C714 C 0.02135 0.27138 0.62453 0.0
C715 C -0.00176 0.26384 0.64683 0.0
C716 C 0.00247 0.28108 0.67062 0.0
C717 C 0.03066 0.30443 0.67282 0.0
C718 C 0.93965 0.19443 0.66973 0.0
C719 C 0.9123 0.19122 0.65002 0.0
C720 C 0.96839 0.21737 0.66791 0.0
C721 C 0.97064 0.23735 0.64619 0.0
C722 C 0.94508 0.23282 0.6252 0.0
C723 C 0.91599 0.20998 0.62715 0.0
H724 H 0.48633 0.18177 0.3286 0.0
H725 H 0.54392 0.20291 0.4045 0.0
H726 H 0.45971 0.22522 0.33329 0.0
H727 H 0.5164 0.24651 0.40927 0.0
H728 H 0.41907 0.30608 0.40442 0.0
H729 H 0.44635 0.26243 0.40978 0.0
H730 H 0.50001 0.28051 0.33206 0.0
H731 H 0.47365 0.32399 0.32679 0.0
C732 C 0.49265 0.19524 0.34667 0.0
C733 C 0.51761 0.18898 0.36601 0.0
C734 C 0.47749 0.22021 0.34925 0.0
C735 C 0.48652 0.23937 0.37138 0.0
C736 C 0.50915 0.23206 0.39198 0.0
C737 C 0.52475 0.20707 0.38926 0.0
C738 C 0.43751 0.30119 0.38888 0.0
C739 C 0.44389 0.3184 0.36503 0.0
C740 C 0.45297 0.27618 0.39194 0.0
C741 C 0.47468 0.26795 0.37108 0.0
C742 C 0.48293 0.28621 0.34824 0.0
C743 C 0.46792 0.31122 0.34533 0.0
H744 H 0.62626 0.5552 0.67154 0.0
H745 H 0.56693 0.57919 0.74106 0.0
H746 H 0.63285 0.51002 0.69491 0.0
H747 H 0.57383 0.53433 0.76431 0.0
H748 H 0.636 0.4716 0.80926 0.0
H749 H 0.62735 0.51525 0.78424 0.0
H750 H 0.59403 0.46299 0.71258 0.0
H751 H 0.60237 0.41934 0.73754 0.0
C752 C 0.61429 0.5507 0.69162 0.0
C753 C 0.5961 0.5708 0.70444 0.0
C754 C 0.61807 0.52487 0.70498 0.0
C755 C 0.60417 0.51888 0.73153 0.0
C756 C 0.58524 0.53861 0.74401 0.0
C757 C 0.58105 0.56418 0.73056 0.0
C758 C 0.62689 0.46945 0.78817 0.0
C759 C 0.61976 0.44204 0.77541 0.0
C760 C 0.62176 0.49438 0.77391 0.0
C761 C 0.60991 0.49244 0.7465 0.0
C762 C 0.60335 0.46512 0.73362 0.0
C763 C 0.60797 0.44015 0.74798 0.0
H764 H 0.37335 0.08815 0.74355 0.0
H765 H 0.32944 0.03523 0.81235 0.0
H766 H 0.38099 0.04439 0.71837 0.0
H767 H 0.33745 0.99143 0.78714 0.0
H768 H 0.39647 0.92511 0.74555 0.0
H769 H 0.39073 0.96996 0.76943 0.0
H770 H 0.34047 0.99945 0.69794 0.0
H771 H 0.34586 0.95428 0.67393 0.0
C772 C 0.36541 0.06718 0.75333 0.0
C773 C 0.35086 0.06513 0.77998 0.0
C774 C 0.36962 0.04215 0.73883 0.0
C775 C 0.35989 0.01457 0.75082 0.0
C776 C 0.34546 0.01248 0.77751 0.0
C777 C 0.34074 0.03751 0.79188 0.0
C778 C 0.38453 0.94125 0.73474 0.0
C779 C 0.37159 0.93611 0.70781 0.0
C780 C 0.38099 0.96682 0.74855 0.0
C781 C 0.36488 0.98802 0.73563 0.0
C782 C 0.35308 0.98345 0.70835 0.0
C783 C 0.35617 0.95762 0.69463 0.0
H784 H 0.37548 0.22903 0.8813 0.0
H785 H 0.44723 0.17413 0.85077 0.0
H786 H 0.42555 0.26926 0.88628 0.0
H787 H 0.49737 0.21437 0.85643 0.0
H788 H 0.58124 0.28876 0.88973 0.0
H789 H 0.52999 0.24987 0.89614 0.0
H790 H 0.46622 0.29607 0.84504 0.0
H791 H 0.51769 0.33486 0.83799 0.0
C792 C 0.40203 0.22529 0.87633 0.0
C793 C 0.40743 0.19844 0.86548 0.0
C794 C 0.43056 0.24838 0.87907 0.0
C795 C 0.46507 0.24482 0.87163 0.0
C796 C 0.47091 0.21751 0.86243 0.0
C797 C 0.44227 0.19456 0.85914 0.0
C798 C 0.55612 0.29099 0.8803 0.0
C799 C 0.55353 0.31482 0.86318 0.0
C800 C 0.52693 0.26865 0.8839 0.0
C801 C 0.49443 0.27005 0.87099 0.0
C802 C 0.49108 0.29466 0.85531 0.0
C803 C 0.52049 0.31678 0.85124 0.0
H804 H 0.40434 0.59246 0.24959 0.0
H805 H 0.30556 0.54664 0.21543 0.0
H806 H 0.40849 0.55054 0.27867 0.0
H807 H 0.30969 0.50481 0.24465 0.0
H808 H 0.3056 0.45477 0.32568 0.0
H809 H 0.3056 0.49677 0.29625 0.0
H810 H 0.41564 0.49684 0.27501 0.0
H811 H 0.41577 0.4543 0.3045 0.0
C812 C 0.38364 0.57337 0.24814 0.0
C813 C 0.35452 0.57291 0.23028 0.0
C814 C 0.38614 0.54935 0.26472 0.0
C815 C 0.3593 0.52452 0.26407 0.0
C816 C 0.33057 0.52382 0.2458 0.0
C817 C 0.32831 0.54769 0.22895 0.0
C818 C 0.33001 0.46378 0.315 0.0
C819 C 0.36069 0.45101 0.31742 0.0
C820 C 0.32984 0.48774 0.29793 0.0
C821 C 0.36044 0.49981 0.28304 0.0
C822 C 0.39164 0.48792 0.28625 0.0
C823 C 0.39171 0.46361 0.30314 0.0
H824 H 0.5491 0.05274 0.30677 0.0
H825 H 0.65998 0.05521 0.32736 0.0
H826 H 0.55052 0.01019 0.27756 0.0
H827 H 0.66125 0.01308 0.29821 0.0
H828 H 0.66214 0.9624 0.21761 0.0
H829 H 0.65733 0.00405 0.24699 0.0
H830 H 0.55907 0.9573 0.28105 0.0
H831 H 0.56386 0.9156 0.25178 0.0
C832 C 0.5736 0.04406 0.30536 0.0
C833 C 0.60442 0.0575 0.31939 0.0
C834 C 0.5744 0.01972 0.28861 0.0
C835 C 0.60615 0.00859 0.28531 0.0
C836 C 0.63658 0.02149 0.29996 0.0
C837 C 0.6357 0.04552 0.31688 0.0
C838 C 0.63938 0.96109 0.2312 0.0
C839 C 0.61348 0.93566 0.23243 0.0
C840 C 0.63674 0.98485 0.24815 0.0
C841 C 0.60793 0.98383 0.26645 0.0
C842 C 0.58147 0.95875 0.26708 0.0
C843 C 0.58433 0.93485 0.25038 0.0
H844 H 0.51957 0.83477 0.15318 0.0
H845 H 0.58905 0.78221 0.11527 0.0
H846 H 0.46838 0.7967 0.14374 0.0
H847 H 0.53778 0.7441 0.10617 0.0
H848 H 0.44918 0.67461 0.1522 0.0
H849 H 0.5004 0.71281 0.14324 0.0
H850 H 0.43116 0.76581 0.10631 0.0
H851 H 0.37986 0.72756 0.11493 0.0
C852 C 0.52382 0.81545 0.14224 0.0
C853 C 0.55841 0.81137 0.13532 0.0
C854 C 0.49449 0.79372 0.13671 0.0
C855 C 0.49928 0.7674 0.12446 0.0
C856 C 0.53349 0.76413 0.11581 0.0
C857 C 0.56276 0.78603 0.12096 0.0
C858 C 0.44498 0.69405 0.1415 0.0
C859 C 0.41042 0.6982 0.13461 0.0
C860 C 0.47432 0.71586 0.13625 0.0
C861 C 0.46957 0.74231 0.12431 0.0
C862 C 0.43541 0.74567 0.1157 0.0
C863 C 0.40612 0.72369 0.12058 0.0
loop_
_geom_bond_atom_site_label_1
_geom_bond_atom_site_label_2
_geom_bond_distance
_geom_bond_site_symmetry_2
_ccdc_geom_bond_type
O0 Cd1 2.223 . S
O0 C8 1.315 . S
Cd1 O0 2.223 . S
Cd1 O4 2.297 . S
Cd1 O5 2.439 . S
Cd1 O11 2.240 . S
Cd2 O3 2.240 . S
Cd2 O10 2.223 . S
Cd2 O12 2.297 . S
Cd2 O13 2.439 . S
O3 Cd2 2.240 . S
O3 C8 1.279 . S
O4 Cd1 2.297 . S
O4 C6 1.247 . S
O5 Cd1 2.439 . S
O5 C6 1.208 . S
C6 O4 1.247 . S
C6 O5 1.208 . S
C7 O12 1.247 . S
C7 O13 1.208 . S
C8 O0 1.315 . S
C8 O3 1.279 . S
C9 O10 1.315 . S
C9 O11 1.279 . S
O10 Cd2 2.223 . S
O10 C9 1.315 . S
O11 Cd1 2.240 . S
O11 C9 1.279 . S
O12 Cd2 2.297 . S
O12 C7 1.247 . S
O13 Cd2 2.439 . S
O13 C7 1.208 . S
O14 Cd15 2.223 . S
O14 C22 1.315 . S
Cd15 O14 2.223 . S
Cd15 O18 2.297 . S
Cd15 O19 2.439 . S
Cd15 O25 2.240 . S
Cd16 O17 2.240 . S
Cd16 O24 2.223 . S
Cd16 O26 2.297 . S
Cd16 O27 2.439 . S
O17 Cd16 2.240 . S
O17 C22 1.279 . S
O18 Cd15 2.297 . S
O18 C20 1.247 . S
O19 Cd15 2.439 . S
O19 C20 1.208 . S
C20 O18 1.247 . S
C20 O19 1.208 . S
C21 O26 1.247 . S
C21 O27 1.208 . S
C22 O14 1.315 . S
C22 O17 1.279 . S
C23 O24 1.315 . S
C23 O25 1.279 . S
O24 Cd16 2.223 . S
O24 C23 1.315 . S
O25 Cd15 2.240 . S
O25 C23 1.279 . S
O26 Cd16 2.297 . S
O26 C21 1.247 . S
O27 Cd16 2.439 . S
O27 C21 1.208 . S
O28 Cd29 2.223 . S
O28 C36 1.315 . S
Cd29 O28 2.223 . S
Cd29 O32 2.297 . S
Cd29 O33 2.439 . S
Cd29 O39 2.240 . S
Cd30 O31 2.240 . S
Cd30 O38 2.223 . S
Cd30 O40 2.297 . S
Cd30 O41 2.439 . S
O31 Cd30 2.240 . S
O31 C36 1.279 . S
O32 Cd29 2.297 . S
O32 C34 1.247 . S
O33 Cd29 2.439 . S
O33 C34 1.208 . S
C34 O32 1.247 . S
C34 O33 1.208 . S
C35 O40 1.247 . S
C35 O41 1.208 . S
C36 O28 1.315 . S
C36 O31 1.279 . S
C37 O38 1.315 . S
C37 O39 1.279 . S
O38 Cd30 2.223 . S
O38 C37 1.315 . S
O39 Cd29 2.240 . S
O39 C37 1.279 . S
O40 Cd30 2.297 . S
O40 C35 1.247 . S
O41 Cd30 2.439 . S
O41 C35 1.208 . S
O42 Cd43 2.223 . S
O42 C50 1.315 . S
Cd43 O42 2.223 . S
Cd43 O46 2.297 . S
Cd43 O47 2.439 . S
Cd43 O53 2.240 . S
Cd44 O45 2.240 . S
Cd44 O52 2.223 . S
Cd44 O54 2.297 . S
Cd44 O55 2.439 . S
O45 Cd44 2.240 . S
O45 C50 1.279 . S
O46 Cd43 2.297 . S
O46 C48 1.247 . S
O47 Cd43 2.439 . S
O47 C48 1.208 . S
C48 O46 1.247 . S
C48 O47 1.208 . S
C49 O54 1.247 . S
C49 O55 1.208 . S
C50 O42 1.315 . S
C50 O45 1.279 . S
C51 O52 1.315 . S
C51 O53 1.279 . S
O52 Cd44 2.223 . S
O52 C51 1.315 . S
O53 Cd43 2.240 . S
O53 C51 1.279 . S
O54 Cd44 2.297 . S
O54 C49 1.247 . S
O55 Cd44 2.439 . S
O55 C49 1.208 . S
O56 Cd57 2.223 . S
O56 C64 1.315 . S
Cd57 O56 2.223 . S
Cd57 O60 2.297 . S
Cd57 O61 2.439 . S
Cd57 O67 2.240 . S
Cd58 O59 2.240 . S
Cd58 O66 2.223 . S
Cd58 O68 2.297 . S
Cd58 O69 2.439 . S
O59 Cd58 2.240 . S
O59 C64 1.279 . S
O60 Cd57 2.297 . S
O60 C62 1.247 . S
O61 Cd57 2.439 . S
O61 C62 1.208 . S
C62 O60 1.247 . S
C62 O61 1.208 . S
C63 O68 1.247 . S
C63 O69 1.208 . S
C64 O56 1.315 . S
C64 O59 1.279 . S
C65 O66 1.315 . S
C65 O67 1.279 . S
O66 Cd58 2.223 . S
O66 C65 1.315 . S
O67 Cd57 2.240 . S
O67 C65 1.279 . S
O68 Cd58 2.297 . S
O68 C63 1.247 . S
O69 Cd58 2.439 . S
O69 C63 1.208 . S
O70 Cd71 2.223 . S
O70 C78 1.315 . S
Cd71 O70 2.223 . S
Cd71 O74 2.297 . S
Cd71 O75 2.439 . S
Cd71 O81 2.240 . S
Cd72 O73 2.240 . S
Cd72 O80 2.223 . S
Cd72 O82 2.297 . S
Cd72 O83 2.439 . S
O73 Cd72 2.240 . S
O73 C78 1.279 . S
O74 Cd71 2.297 . S
O74 C76 1.247 . S
O75 Cd71 2.439 . S
O75 C76 1.208 . S
C76 O74 1.247 . S
C76 O75 1.208 . S
C77 O82 1.247 . S
C77 O83 1.208 . S
C78 O70 1.315 . S
C78 O73 1.279 . S
C79 O80 1.315 . S
C79 O81 1.279 . S
O80 Cd72 2.223 . S
O80 C79 1.315 . S
O81 Cd71 2.240 . S
O81 C79 1.279 . S
O82 Cd72 2.297 . S
O82 C77 1.247 . S
O83 Cd72 2.439 . S
O83 C77 1.208 . S
O84 Cd85 2.223 . S
O84 C92 1.315 . S
Cd85 O84 2.223 . S
Cd85 O88 2.297 . S
Cd85 O89 2.439 . S
Cd85 O95 2.240 . S
Cd86 O87 2.240 . S
Cd86 O94 2.223 . S
Cd86 O96 2.297 . S
Cd86 O97 2.439 . S
O87 Cd86 2.240 . S
O87 C92 1.279 . S
O88 Cd85 2.297 . S
O88 C90 1.247 . S
O89 Cd85 2.439 . S
O89 C90 1.208 . S
C90 O88 1.247 . S
C90 O89 1.208 . S
C91 O96 1.247 . S
C91 O97 1.208 . S
C92 O84 1.315 . S
C92 O87 1.279 . S
C93 O94 1.315 . S
C93 O95 1.279 . S
O94 Cd86 2.223 . S
O94 C93 1.315 . S
O95 Cd85 2.240 . S
O95 C93 1.279 . S
O96 Cd86 2.297 . S
O96 C91 1.247 . S
O97 Cd86 2.439 . S
O97 C91 1.208 . S
O98 Cd99 2.223 . S
O98 C106 1.315 . S
Cd99 O98 2.223 . S
Cd99 O102 2.297 . S
Cd99 O103 2.439 . S
Cd99 O109 2.240 . S
Cd100 O101 2.240 . S
Cd100 O108 2.223 . S
Cd100 O110 2.297 . S
Cd100 O111 2.439 . S
O101 Cd100 2.240 . S
O101 C106 1.279 . S
O102 Cd99 2.297 . S
O102 C104 1.247 . S
O103 Cd99 2.439 . S
O103 C104 1.208 . S
C104 O102 1.247 . S
C104 O103 1.208 . S
C105 O110 1.247 . S
C105 O111 1.208 . S
C106 O98 1.315 . S
C106 O101 1.279 . S
C107 O108 1.315 . S
C107 O109 1.279 . S
O108 Cd100 2.223 . S
O108 C107 1.315 . S
O109 Cd99 2.240 . S
O109 C107 1.279 . S
O110 Cd100 2.297 . S
O110 C105 1.247 . S
O111 Cd100 2.439 . S
O111 C105 1.208 . S
O112 Cd113 2.223 . S
O112 C120 1.315 . S
Cd113 O112 2.223 . S
Cd113 O116 2.297 . S
Cd113 O117 2.439 . S
Cd113 O123 2.240 . S
Cd114 O115 2.240 . S
Cd114 O122 2.223 . S
Cd114 O124 2.297 . S
Cd114 O125 2.439 . S
O115 Cd114 2.240 . S
O115 C120 1.279 . S
O116 Cd113 2.297 . S
O116 C118 1.247 . S
O117 Cd113 2.439 . S
O117 C118 1.208 . S
C118 O116 1.247 . S
C118 O117 1.208 . S
C119 O124 1.247 . S
C119 O125 1.208 . S
C120 O112 1.315 . S
C120 O115 1.279 . S
C121 O122 1.315 . S
C121 O123 1.279 . S
O122 Cd114 2.223 . S
O122 C121 1.315 . S
O123 Cd113 2.240 . S
O123 C121 1.279 . S
O124 Cd114 2.297 . S
O124 C119 1.247 . S
O125 Cd114 2.439 . S
O125 C119 1.208 . S
O126 Cd127 2.223 . S
O126 C134 1.315 . S
Cd127 O126 2.223 . S
Cd127 O130 2.297 . S
Cd127 O131 2.439 . S
Cd127 O137 2.240 . S
Cd128 O129 2.240 . S
Cd128 O136 2.223 . S
Cd128 O138 2.297 . S
Cd128 O139 2.439 . S
O129 Cd128 2.240 . S
O129 C134 1.279 . S
O130 Cd127 2.297 . S
O130 C132 1.247 . S
O131 Cd127 2.439 . S
O131 C132 1.208 . S
C132 O130 1.247 . S
C132 O131 1.208 . S
C133 O138 1.247 . S
C133 O139 1.208 . S
C134 O126 1.315 . S
C134 O129 1.279 . S
C135 O136 1.315 . S
C135 O137 1.279 . S
O136 Cd128 2.223 . S
O136 C135 1.315 . S
O137 Cd127 2.240 . S
O137 C135 1.279 . S
O138 Cd128 2.297 . S
O138 C133 1.247 . S
O139 Cd128 2.439 . S
O139 C133 1.208 . S
O140 Cd141 2.223 . S
O140 C148 1.315 . S
Cd141 O140 2.223 . S
Cd141 O144 2.297 . S
Cd141 O145 2.439 . S
Cd141 O151 2.240 . S
Cd142 O143 2.240 . S
Cd142 O150 2.223 . S
Cd142 O152 2.297 . S
Cd142 O153 2.439 . S
O143 Cd142 2.240 . S
O143 C148 1.279 . S
O144 Cd141 2.297 . S
O144 C146 1.247 . S
O145 Cd141 2.439 . S
O145 C146 1.208 . S
C146 O144 1.247 . S
C146 O145 1.208 . S
C147 O152 1.247 . S
C147 O153 1.208 . S
C148 O140 1.315 . S
C148 O143 1.279 . S
C149 O150 1.315 . S
C149 O151 1.279 . S
O150 Cd142 2.223 . S
O150 C149 1.315 . S
O151 Cd141 2.240 . S
O151 C149 1.279 . S
O152 Cd142 2.297 . S
O152 C147 1.247 . S
O153 Cd142 2.439 . S
O153 C147 1.208 . S
O154 Cd155 2.223 . S
O154 C162 1.315 . S
Cd155 O154 2.223 . S
Cd155 O158 2.297 . S
Cd155 O159 2.439 . S
Cd155 O165 2.240 . S
Cd156 O157 2.240 . S
Cd156 O164 2.223 . S
Cd156 O166 2.297 . S
Cd156 O167 2.439 . S
O157 Cd156 2.240 . S
O157 C162 1.279 . S
O158 Cd155 2.297 . S
O158 C160 1.247 . S
O159 Cd155 2.439 . S
O159 C160 1.208 . S
C160 O158 1.247 . S
C160 O159 1.208 . S
C161 O166 1.247 . S
C161 O167 1.208 . S
C162 O154 1.315 . S
C162 O157 1.279 . S
C163 O164 1.315 . S
C163 O165 1.279 . S
O164 Cd156 2.223 . S
O164 C163 1.315 . S
O165 Cd155 2.240 . S
O165 C163 1.279 . S
O166 Cd156 2.297 . S
O166 C161 1.247 . S
O167 Cd156 2.439 . S
O167 C161 1.208 . S
O168 Cd169 2.223 . S
O168 C176 1.315 . S
Cd169 O168 2.223 . S
Cd169 O172 2.297 . S
Cd169 O173 2.439 . S
Cd169 O179 2.240 . S
Cd170 O171 2.240 . S
Cd170 O178 2.223 . S
Cd170 O180 2.297 . S
Cd170 O181 2.439 . S
O171 Cd170 2.240 . S
O171 C176 1.279 . S
O172 Cd169 2.297 . S
O172 C174 1.247 . S
O173 Cd169 2.439 . S
O173 C174 1.208 . S
C174 O172 1.247 . S
C174 O173 1.208 . S
C175 O180 1.247 . S
C175 O181 1.208 . S
C176 O168 1.315 . S
C176 O171 1.279 . S
C177 O178 1.315 . S
C177 O179 1.279 . S
O178 Cd170 2.223 . S
O178 C177 1.315 . S
O179 Cd169 2.240 . S
O179 C177 1.279 . S
O180 Cd170 2.297 . S
O180 C175 1.247 . S
O181 Cd170 2.439 . S
O181 C175 1.208 . S
O182 Cd183 2.223 . S
O182 C190 1.315 . S
Cd183 O182 2.223 . S
Cd183 O186 2.297 . S
Cd183 O187 2.439 . S
Cd183 O193 2.240 . S
Cd184 O185 2.240 . S
Cd184 O192 2.223 . S
Cd184 O194 2.297 . S
Cd184 O195 2.439 . S
O185 Cd184 2.240 . S
O185 C190 1.279 . S
O186 Cd183 2.297 . S
O186 C188 1.247 . S
O187 Cd183 2.439 . S
O187 C188 1.208 . S
C188 O186 1.247 . S
C188 O187 1.208 . S
C189 O194 1.247 . S
C189 O195 1.208 . S
C190 O182 1.315 . S
C190 O185 1.279 . S
C191 O192 1.315 . S
C191 O193 1.279 . S
O192 Cd184 2.223 . S
O192 C191 1.315 . S
O193 Cd183 2.240 . S
O193 C191 1.279 . S
O194 Cd184 2.297 . S
O194 C189 1.247 . S
O195 Cd184 2.439 . S
O195 C189 1.208 . S
O196 Cd197 2.223 . S
O196 C204 1.315 . S
Cd197 O196 2.223 . S
Cd197 O200 2.297 . S
Cd197 O201 2.439 . S
Cd197 O207 2.240 . S
Cd198 O199 2.240 . S
Cd198 O206 2.223 . S
Cd198 O208 2.297 . S
Cd198 O209 2.439 . S
O199 Cd198 2.240 . S
O199 C204 1.279 . S
O200 Cd197 2.297 . S
O200 C202 1.247 . S
O201 Cd197 2.439 . S
O201 C202 1.208 . S
C202 O200 1.247 . S
C202 O201 1.208 . S
C203 O208 1.247 . S
C203 O209 1.208 . S
C204 O196 1.315 . S
C204 O199 1.279 . S
C205 O206 1.315 . S
C205 O207 1.279 . S
O206 Cd198 2.223 . S
O206 C205 1.315 . S
O207 Cd197 2.240 . S
O207 C205 1.279 . S
O208 Cd198 2.297 . S
O208 C203 1.247 . S
O209 Cd198 2.439 . S
O209 C203 1.208 . S
O210 Cd211 2.223 . S
O210 C218 1.315 . S
Cd211 O210 2.223 . S
Cd211 O214 2.297 . S
Cd211 O215 2.439 . S
Cd211 O221 2.240 . S
Cd212 O213 2.240 . S
Cd212 O220 2.223 . S
Cd212 O222 2.297 . S
Cd212 O223 2.439 . S
O213 Cd212 2.240 . S
O213 C218 1.279 . S
O214 Cd211 2.297 . S
O214 C216 1.247 . S
O215 Cd211 2.439 . S
O215 C216 1.208 . S
C216 O214 1.247 . S
C216 O215 1.208 . S
C217 O222 1.247 . S
C217 O223 1.208 . S
C218 O210 1.315 . S
C218 O213 1.279 . S
C219 O220 1.315 . S
C219 O221 1.279 . S
O220 Cd212 2.223 . S
O220 C219 1.315 . S
O221 Cd211 2.240 . S
O221 C219 1.279 . S
O222 Cd212 2.297 . S
O222 C217 1.247 . S
O223 Cd212 2.439 . S
O223 C217 1.208 . S
H224 C232 0.950 . S
H225 C237 0.950 . S
H226 C234 0.950 . S
H227 C236 0.950 . S
H228 C238 0.950 . S
H229 C240 0.950 . S
H230 C242 0.950 . S
H231 C243 0.950 . S
C232 H224 0.950 . S
C232 C233 1.386 . S
C232 C234 1.391 . S
C233 C232 1.386 . S
C233 C237 1.393 . S
C234 H226 0.950 . S
C234 C232 1.391 . S
C234 C235 1.400 . S
C235 C234 1.400 . S
C235 C236 1.398 . S
C235 C241 1.491 . S
C236 H227 0.950 . S
C236 C235 1.398 . S
C236 C237 1.391 . S
C237 H225 0.950 . S
C237 C233 1.393 . S
C237 C236 1.391 . S
C238 H228 0.950 . S
C238 C239 1.386 . S
C238 C240 1.391 . S
C239 C238 1.386 . S
C239 C243 1.393 . S
C240 H229 0.950 . S
C240 C238 1.391 . S
C240 C241 1.400 . S
C241 C235 1.491 . S
C241 C240 1.400 . S
C241 C242 1.398 . S
C242 H230 0.950 . S
C242 C241 1.398 . S
C242 C243 1.391 . S
C243 H231 0.950 . S
C243 C239 1.393 . S
C243 C242 1.391 . S
H244 C252 0.950 . S
H245 C257 0.950 . S
H246 C254 0.950 . S
H247 C256 0.950 . S
H248 C258 0.950 . S
H249 C260 0.950 . S
H250 C262 0.950 . S
H251 C263 0.950 . S
C252 H244 0.950 . S
C252 C253 1.386 . S
C252 C254 1.391 . S
C253 C252 1.386 . S
C253 C257 1.393 . S
C254 H246 0.950 . S
C254 C252 1.391 . S
C254 C255 1.400 . S
C255 C254 1.400 . S
C255 C256 1.398 . S
C255 C261 1.491 . S
C256 H247 0.950 . S
C256 C255 1.398 . S
C256 C257 1.391 . S
C257 H245 0.950 . S
C257 C253 1.393 . S
C257 C256 1.391 . S
C258 H248 0.950 . S
C258 C259 1.386 . S
C258 C260 1.391 . S
C259 C258 1.386 . S
C259 C263 1.393 . S
C260 H249 0.950 . S
C260 C258 1.391 . S
C260 C261 1.400 . S
C261 C255 1.491 . S
C261 C260 1.400 . S
C261 C262 1.398 . S
C262 H250 0.950 . S
C262 C261 1.398 . S
C262 C263 1.391 . S
C263 H251 0.950 . S
C263 C259 1.393 . S
C263 C262 1.391 . S
H264 C272 0.950 . S
H265 C277 0.950 . S
H266 C274 0.950 . S
H267 C276 0.950 . S
H268 C278 0.950 . S
H269 C280 0.950 . S
H270 C282 0.950 . S
H271 C283 0.950 . S
C272 H264 0.950 . S
C272 C273 1.386 . S
C272 C274 1.391 . S
C273 C272 1.386 . S
C273 C277 1.393 . S
C274 H266 0.950 . S
C274 C272 1.391 . S
C274 C275 1.400 . S
C275 C274 1.400 . S
C275 C276 1.398 . S
C275 C281 1.491 . S
C276 H267 0.950 . S
C276 C275 1.398 . S
C276 C277 1.391 . S
C277 H265 0.950 . S
C277 C273 1.393 . S
C277 C276 1.391 . S
C278 H268 0.950 . S
C278 C279 1.386 . S
C278 C280 1.391 . S
C279 C278 1.386 . S
C279 C283 1.393 . S
C280 H269 0.950 . S
C280 C278 1.391 . S
C280 C281 1.400 . S
C281 C275 1.491 . S
C281 C280 1.400 . S
C281 C282 1.398 . S
C282 H270 0.950 . S
C282 C281 1.398 . S
C282 C283 1.391 . S
C283 H271 0.950 . S
C283 C279 1.393 . S
C283 C282 1.391 . S
H284 C292 0.950 . S
H285 C297 0.950 . S
H286 C294 0.950 . S
H287 C296 0.950 . S
H288 C298 0.950 . S
H289 C300 0.950 . S
H290 C302 0.950 . S
H291 C303 0.950 . S
C292 H284 0.950 . S
C292 C293 1.386 . S
C292 C294 1.391 . S
C293 C292 1.386 . S
C293 C297 1.393 . S
C294 H286 0.950 . S
C294 C292 1.391 . S
C294 C295 1.400 . S
C295 C294 1.400 . S
C295 C296 1.398 . S
C295 C301 1.491 . S
C296 H287 0.950 . S
C296 C295 1.398 . S
C296 C297 1.391 . S
C297 H285 0.950 . S
C297 C293 1.393 . S
C297 C296 1.391 . S
C298 H288 0.950 . S
C298 C299 1.386 . S
C298 C300 1.391 . S
C299 C298 1.386 . S
C299 C303 1.393 . S
C300 H289 0.950 . S
C300 C298 1.391 . S
C300 C301 1.400 . S
C301 C295 1.491 . S
C301 C300 1.400 . S
C301 C302 1.398 . S
C302 H290 0.950 . S
C302 C301 1.398 . S
C302 C303 1.391 . S
C303 H291 0.950 . S
C303 C299 1.393 . S
C303 C302 1.391 . S
H304 C312 0.950 . S
H305 C317 0.950 . S
H306 C314 0.950 . S
H307 C316 0.950 . S
H308 C318 0.950 . S
H309 C320 0.950 . S
H310 C322 0.950 . S
H311 C323 0.950 . S
C312 H304 0.950 . S
C312 C313 1.386 . S
C312 C314 1.391 . S
C313 C312 1.386 . S
C313 C317 1.393 . S
C314 H306 0.950 . S
C314 C312 1.391 . S
C314 C315 1.400 . S
C315 C314 1.400 . S
C315 C316 1.398 . S
C315 C321 1.491 . S
C316 H307 0.950 . S
C316 C315 1.398 . S
C316 C317 1.391 . S
C317 H305 0.950 . S
C317 C313 1.393 . S
C317 C316 1.391 . S
C318 H308 0.950 . S
C318 C319 1.386 . S
C318 C320 1.391 . S
C319 C318 1.386 . S
C319 C323 1.393 . S
C320 H309 0.950 . S
C320 C318 1.391 . S
C320 C321 1.400 . S
C321 C315 1.491 . S
C321 C320 1.400 . S
C321 C322 1.398 . S
C322 H310 0.950 . S
C322 C321 1.398 . S
C322 C323 1.391 . S
C323 H311 0.950 . S
C323 C319 1.393 . S
C323 C322 1.391 . S
H324 C332 0.950 . S
H325 C337 0.950 . S
H326 C334 0.950 . S
H327 C336 0.950 . S
H328 C338 0.950 . S
H329 C340 0.950 . S
H330 C342 0.950 . S
H331 C343 0.950 . S
C332 H324 0.950 . S
C332 C333 1.386 . S
C332 C334 1.391 . S
C333 C332 1.386 . S
C333 C337 1.393 . S
C334 H326 0.950 . S
C334 C332 1.391 . S
C334 C335 1.400 . S
C335 C334 1.400 . S
C335 C336 1.398 . S
C335 C341 1.491 . S
C336 H327 0.950 . S
C336 C335 1.398 . S
C336 C337 1.391 . S
C337 H325 0.950 . S
C337 C333 1.393 . S
C337 C336 1.391 . S
C338 H328 0.950 . S
C338 C339 1.386 . S
C338 C340 1.391 . S
C339 C338 1.386 . S
C339 C343 1.393 . S
C340 H329 0.950 . S
C340 C338 1.391 . S
C340 C341 1.400 . S
C341 C335 1.491 . S
C341 C340 1.400 . S
C341 C342 1.398 . S
C342 H330 0.950 . S
C342 C341 1.398 . S
C342 C343 1.391 . S
C343 H331 0.950 . S
C343 C339 1.393 . S
C343 C342 1.391 . S
H344 C352 0.950 . S
H345 C357 0.950 . S
H346 C354 0.950 . S
H347 C356 0.950 . S
H348 C358 0.950 . S
H349 C360 0.950 . S
H350 C362 0.950 . S
H351 C363 0.950 . S
C352 H344 0.950 . S
C352 C353 1.386 . S
C352 C354 1.391 . S
C353 C352 1.386 . S
C353 C357 1.393 . S
C354 H346 0.950 . S
C354 C352 1.391 . S
C354 C355 1.400 . S
C355 C354 1.400 . S
C355 C356 1.398 . S
C355 C361 1.491 . S
C356 H347 0.950 . S
C356 C355 1.398 . S
C356 C357 1.391 . S
C357 H345 0.950 . S
C357 C353 1.393 . S
C357 C356 1.391 . S
C358 H348 0.950 . S
C358 C359 1.386 . S
C358 C360 1.391 . S
C359 C358 1.386 . S
C359 C363 1.393 . S
C360 H349 0.950 . S
C360 C358 1.391 . S
C360 C361 1.400 . S
C361 C355 1.491 . S
C361 C360 1.400 . S
C361 C362 1.398 . S
C362 H350 0.950 . S
C362 C361 1.398 . S
C362 C363 1.391 . S
C363 H351 0.950 . S
C363 C359 1.393 . S
C363 C362 1.391 . S
H364 C372 0.950 . S
H365 C377 0.950 . S
H366 C374 0.950 . S
H367 C376 0.950 . S
H368 C378 0.950 . S
H369 C380 0.950 . S
H370 C382 0.950 . S
H371 C383 0.950 . S
C372 H364 0.950 . S
C372 C373 1.386 . S
C372 C374 1.391 . S
C373 C372 1.386 . S
C373 C377 1.393 . S
C374 H366 0.950 . S
C374 C372 1.391 . S
C374 C375 1.400 . S
C375 C374 1.400 . S
C375 C376 1.398 . S
C375 C381 1.491 . S
C376 H367 0.950 . S
C376 C375 1.398 . S
C376 C377 1.391 . S
C377 H365 0.950 . S
C377 C373 1.393 . S
C377 C376 1.391 . S
C378 H368 0.950 . S
C378 C379 1.386 . S
C378 C380 1.391 . S
C379 C378 1.386 . S
C379 C383 1.393 . S
C380 H369 0.950 . S
C380 C378 1.391 . S
C380 C381 1.400 . S
C381 C375 1.491 . S
C381 C380 1.400 . S
C381 C382 1.398 . S
C382 H370 0.950 . S
C382 C381 1.398 . S
C382 C383 1.391 . S
C383 H371 0.950 . S
C383 C379 1.393 . S
C383 C382 1.391 . S
H384 C392 0.950 . S
H385 C397 0.950 . S
H386 C394 0.950 . S
H387 C396 0.950 1_545 S
H388 C398 0.950 . S
H389 C400 0.950 . S
H390 C402 0.950 . S
H391 C403 0.950 . S
C392 H384 0.950 . S
C392 C393 1.386 . S
C392 C394 1.391 . S
C393 C392 1.386 . S
C393 C397 1.393 . S
C394 H386 0.950 . S
C394 C392 1.391 . S
C394 C395 1.400 1_565 S
C395 C394 1.400 1_545 S
C395 C396 1.398 1_545 S
C395 C401 1.491 . S
C396 H387 0.950 1_565 S
C396 C395 1.398 1_565 S
C396 C397 1.391 . S
C397 H385 0.950 . S
C397 C393 1.393 . S
C397 C396 1.391 . S
C398 H388 0.950 . S
C398 C399 1.386 . S
C398 C400 1.391 . S
C399 C398 1.386 . S
C399 C403 1.393 . S
C400 H389 0.950 . S
C400 C398 1.391 . S
C400 C401 1.400 . S
C401 C395 1.491 . S
C401 C400 1.400 . S
C401 C402 1.398 . S
C402 H390 0.950 . S
C402 C401 1.398 . S
C402 C403 1.391 . S
C403 H391 0.950 . S
C403 C399 1.393 . S
C403 C402 1.391 . S
H404 C412 0.950 . S
H405 C417 0.950 . S
H406 C414 0.950 . S
H407 C416 0.950 . S
H408 C418 0.950 . S
H409 C420 0.950 . S
H410 C422 0.950 . S
H411 C423 0.950 . S
C412 H404 0.950 . S
C412 C413 1.386 . S
C412 C414 1.391 . S
C413 C412 1.386 . S
C413 C417 1.393 . S
C414 H406 0.950 . S
C414 C412 1.391 . S
C414 C415 1.400 . S
C415 C414 1.400 . S
C415 C416 1.398 . S
C415 C421 1.491 . S
C416 H407 0.950 . S
C416 C415 1.398 . S
C416 C417 1.391 . S
C417 H405 0.950 . S
C417 C413 1.393 . S
C417 C416 1.391 . S
C418 H408 0.950 . S
C418 C419 1.386 . S
C418 C420 1.391 . S
C419 C418 1.386 . S
C419 C423 1.393 . S
C420 H409 0.950 . S
C420 C418 1.391 . S
C420 C421 1.400 . S
C421 C415 1.491 . S
C421 C420 1.400 . S
C421 C422 1.398 . S
C422 H410 0.950 . S
C422 C421 1.398 . S
C422 C423 1.391 . S
C423 H411 0.950 . S
C423 C419 1.393 . S
C423 C422 1.391 . S
H424 C432 0.950 . S
H425 C437 0.950 . S
H426 C434 0.950 . S
H427 C436 0.950 . S
H428 C438 0.950 . S
H429 C440 0.950 . S
H430 C442 0.950 . S
H431 C443 0.950 . S
C432 H424 0.950 . S
C432 C433 1.386 . S
C432 C434 1.391 . S
C433 C432 1.386 . S
C433 C437 1.393 . S
C434 H426 0.950 . S
C434 C432 1.391 . S
C434 C435 1.400 . S
C435 C434 1.400 . S
C435 C436 1.398 . S
C435 C441 1.491 . S
C436 H427 0.950 . S
C436 C435 1.398 . S
C436 C437 1.391 . S
C437 H425 0.950 . S
C437 C433 1.393 . S
C437 C436 1.391 . S
C438 H428 0.950 . S
C438 C439 1.386 . S
C438 C440 1.391 1_554 S
C439 C438 1.386 . S
C439 C443 1.393 . S
C440 H429 0.950 . S
C440 C438 1.391 1_556 S
C440 C441 1.400 . S
C441 C435 1.491 . S
C441 C440 1.400 . S
C441 C442 1.398 1_556 S
C442 H430 0.950 . S
C442 C441 1.398 1_554 S
C442 C443 1.391 . S
C443 H431 0.950 . S
C443 C439 1.393 . S
C443 C442 1.391 . S
H444 C452 0.950 . S
H445 C457 0.950 . S
H446 C454 0.950 . S
H447 C456 0.950 . S
H448 C458 0.950 . S
H449 C460 0.950 . S
H450 C462 0.950 . S
H451 C463 0.950 . S
C452 H444 0.950 . S
C452 C453 1.386 . S
C452 C454 1.391 1_554 S
C453 C452 1.386 . S
C453 C457 1.393 . S
C454 H446 0.950 . S
C454 C452 1.391 1_556 S
C454 C455 1.400 . S
C455 C454 1.400 . S
C455 C456 1.398 1_556 S
C455 C461 1.491 . S
C456 H447 0.950 . S
C456 C455 1.398 1_554 S
C456 C457 1.391 . S
C457 H445 0.950 . S
C457 C453 1.393 . S
C457 C456 1.391 . S
C458 H448 0.950 . S
C458 C459 1.386 . S
C458 C460 1.391 . S
C459 C458 1.386 . S
C459 C463 1.393 . S
C460 H449 0.950 . S
C460 C458 1.391 . S
C460 C461 1.400 . S
C461 C455 1.491 . S
C461 C460 1.400 . S
C461 C462 1.398 . S
C462 H450 0.950 . S
C462 C461 1.398 . S
C462 C463 1.391 . S
C463 H451 0.950 . S
C463 C459 1.393 . S
C463 C462 1.391 . S
H464 C472 0.950 . S
H465 C477 0.950 . S
H466 C474 0.950 . S
H467 C476 0.950 . S
H468 C478 0.950 . S
H469 C480 0.950 . S
H470 C482 0.950 . S
H471 C483 0.950 . S
C472 H464 0.950 . S
C472 C473 1.386 . S
C472 C474 1.391 . S
C473 C472 1.386 . S
C473 C477 1.393 . S
C474 H466 0.950 . S
C474 C472 1.391 . S
C474 C475 1.400 . S
C475 C474 1.400 . S
C475 C476 1.398 . S
C475 C481 1.491 . S
C476 H467 0.950 . S
C476 C475 1.398 . S
C476 C477 1.391 . S
C477 H465 0.950 . S
C477 C473 1.393 . S
C477 C476 1.391 . S
C478 H468 0.950 . S
C478 C479 1.386 . S
C478 C480 1.391 . S
C479 C478 1.386 . S
C479 C483 1.393 . S
C480 H469 0.950 . S
C480 C478 1.391 . S
C480 C481 1.400 . S
C481 C475 1.491 . S
C481 C480 1.400 . S
C481 C482 1.398 . S
C482 H470 0.950 . S
C482 C481 1.398 . S
C482 C483 1.391 . S
C483 H471 0.950 . S
C483 C479 1.393 . S
C483 C482 1.391 . S
H484 C492 0.950 . S
H485 C497 0.950 . S
H486 C494 0.950 . S
H487 C496 0.950 . S
H488 C498 0.950 . S
H489 C500 0.950 . S
H490 C502 0.950 . S
H491 C503 0.950 . S
C492 H484 0.950 . S
C492 C493 1.386 . S
C492 C494 1.391 . S
C493 C492 1.386 . S
C493 C497 1.393 . S
C494 H486 0.950 . S
C494 C492 1.391 . S
C494 C495 1.400 . S
C495 C494 1.400 . S
C495 C496 1.398 . S
C495 C501 1.491 . S
C496 H487 0.950 . S
C496 C495 1.398 . S
C496 C497 1.391 . S
C497 H485 0.950 . S
C497 C493 1.393 . S
C497 C496 1.391 . S
C498 H488 0.950 . S
C498 C499 1.386 . S
C498 C500 1.391 . S
C499 C498 1.386 . S
C499 C503 1.393 . S
C500 H489 0.950 . S
C500 C498 1.391 . S
C500 C501 1.400 . S
C501 C495 1.491 . S
C501 C500 1.400 . S
C501 C502 1.398 . S
C502 H490 0.950 . S
C502 C501 1.398 . S
C502 C503 1.391 . S
C503 H491 0.950 . S
C503 C499 1.393 . S
C503 C502 1.391 . S
H504 C512 0.950 . S
H505 C517 0.950 . S
H506 C514 0.950 1_455 S
H507 C516 0.950 . S
H508 C518 0.950 . S
H509 C520 0.950 1_655 S
H510 C522 0.950 . S
H511 C523 0.950 . S
C512 H504 0.950 . S
C512 C513 1.386 . S
C512 C514 1.391 . S
C513 C512 1.386 . S
C513 C517 1.393 . S
C514 H506 0.950 1_655 S
C514 C512 1.391 . S
C514 C515 1.400 . S
C515 C514 1.400 . S
C515 C516 1.398 . S
C515 C521 1.491 1_655 S
C516 H507 0.950 . S
C516 C515 1.398 . S
C516 C517 1.391 . S
C517 H505 0.950 . S
C517 C513 1.393 . S
C517 C516 1.391 . S
C518 H508 0.950 . S
C518 C519 1.386 . S
C518 C520 1.391 . S
C519 C518 1.386 . S
C519 C523 1.393 . S
C520 H509 0.950 1_455 S
C520 C518 1.391 . S
C520 C521 1.400 . S
C521 C515 1.491 1_455 S
C521 C520 1.400 . S
C521 C522 1.398 . S
C522 H510 0.950 . S
C522 C521 1.398 . S
C522 C523 1.391 . S
C523 H511 0.950 . S
C523 C519 1.393 . S
C523 C522 1.391 . S
H524 C532 0.950 . S
H525 C537 0.950 . S
H526 C534 0.940 1_455 S
H527 C536 0.950 . S
H528 C538 0.950 . S
H529 C540 0.940 1_655 S
H530 C542 0.950 . S
H531 C543 0.950 . S
C532 H524 0.950 . S
C532 C533 1.386 . S
C532 C534 1.391 . S
C533 C532 1.386 . S
C533 C537 1.393 . S
C534 H526 0.940 1_655 S
C534 C532 1.391 . S
C534 C535 1.400 . S
C535 C534 1.400 . S
C535 C536 1.398 . S
C535 C541 1.491 1_655 S
C536 H527 0.950 . S
C536 C535 1.398 . S
C536 C537 1.391 . S
C537 H525 0.950 . S
C537 C533 1.393 . S
C537 C536 1.391 . S
C538 H528 0.950 . S
C538 C539 1.386 . S
C538 C540 1.391 . S
C539 C538 1.386 . S
C539 C543 1.393 . S
C540 H529 0.940 1_455 S
C540 C538 1.391 . S
C540 C541 1.400 . S
C541 C535 1.491 1_455 S
C541 C540 1.400 . S
C541 C542 1.398 . S
C542 H530 0.950 . S
C542 C541 1.398 . S
C542 C543 1.391 . S
C543 H531 0.950 . S
C543 C539 1.393 . S
C543 C542 1.391 . S
H544 C552 0.950 . S
H545 C557 0.950 . S
H546 C554 0.950 . S
H547 C556 0.950 . S
H548 C558 0.950 . S
H549 C560 0.950 . S
H550 C562 0.950 . S
H551 C563 0.950 . S
C552 H544 0.950 . S
C552 C553 1.386 . S
C552 C554 1.391 . S
C553 C552 1.386 . S
C553 C557 1.393 . S
C554 H546 0.950 . S
C554 C552 1.391 . S
C554 C555 1.400 . S
C555 C554 1.400 . S
C555 C556 1.398 . S
C555 C561 1.491 . S
C556 H547 0.950 . S
C556 C555 1.398 . S
C556 C557 1.391 . S
C557 H545 0.950 . S
C557 C553 1.393 . S
C557 C556 1.391 . S
C558 H548 0.950 . S
C558 C559 1.386 . S
C558 C560 1.391 . S
C559 C558 1.386 . S
C559 C563 1.393 . S
C560 H549 0.950 . S
C560 C558 1.391 . S
C560 C561 1.400 . S
C561 C555 1.491 . S
C561 C560 1.400 . S
C561 C562 1.398 . S
C562 H550 0.950 . S
C562 C561 1.398 . S
C562 C563 1.391 . S
C563 H551 0.950 . S
C563 C559 1.393 . S
C563 C562 1.391 . S
H564 C572 0.950 . S
H565 C577 0.950 . S
H566 C574 0.940 1_565 S
H567 C576 0.950 . S
H568 C578 0.950 . S
H569 C580 0.950 1_545 S
H570 C582 0.950 . S
H571 C583 0.950 . S
C572 H564 0.950 . S
C572 C573 1.386 . S
C572 C574 1.399 . S
C573 C572 1.386 . S
C573 C577 1.393 . S
C574 H566 0.940 1_545 S
C574 C572 1.399 . S
C574 C575 1.402 . S
C575 C574 1.402 . S
C575 C576 1.398 . S
C575 C581 1.491 1_545 S
C576 H567 0.950 . S
C576 C575 1.398 . S
C576 C577 1.391 . S
C577 H565 0.950 . S
C577 C573 1.393 . S
C577 C576 1.391 . S
C578 H568 0.950 . S
C578 C579 1.386 . S
C578 C580 1.391 . S
C579 C578 1.386 . S
C579 C583 1.393 . S
C580 H569 0.950 1_565 S
C580 C578 1.391 . S
C580 C581 1.400 . S
C581 C575 1.491 1_565 S
C581 C580 1.400 . S
C581 C582 1.398 . S
C582 H570 0.950 . S
C582 C581 1.398 . S
C582 C583 1.391 . S
C583 H571 0.950 . S
C583 C579 1.393 . S
C583 C582 1.391 . S
H584 C592 0.950 . S
H585 C597 0.950 . S
H586 C594 0.950 . S
H587 C596 0.950 . S
H588 C598 0.950 . S
H589 C600 0.950 . S
H590 C602 0.950 . S
H591 C603 0.950 . S
C592 H584 0.950 . S
C592 C593 1.386 . S
C592 C594 1.391 . S
C593 C592 1.386 . S
C593 C597 1.393 . S
C594 H586 0.950 . S
C594 C592 1.391 . S
C594 C595 1.400 . S
C595 C594 1.400 . S
C595 C596 1.398 . S
C595 C601 1.491 . S
C596 H587 0.950 . S
C596 C595 1.398 . S
C596 C597 1.391 . S
C597 H585 0.950 . S
C597 C593 1.393 . S
C597 C596 1.391 . S
C598 H588 0.950 . S
C598 C599 1.386 . S
C598 C600 1.391 . S
C599 C598 1.386 . S
C599 C603 1.393 . S
C600 H589 0.950 . S
C600 C598 1.391 . S
C600 C601 1.400 . S
C601 C595 1.491 . S
C601 C600 1.400 . S
C601 C602 1.398 . S
C602 H590 0.950 . S
C602 C601 1.398 . S
C602 C603 1.391 . S
C603 H591 0.950 . S
C603 C599 1.393 . S
C603 C602 1.391 . S
H604 C612 0.950 . S
H605 C617 0.950 . S
H606 C614 0.950 . S
H607 C616 0.950 . S
H608 C618 0.950 . S
H609 C620 0.950 1_554 S
H610 C622 0.950 . S
H611 C623 0.950 . S
C612 H604 0.950 . S
C612 C613 1.386 . S
C612 C614 1.391 . S
C613 C612 1.386 . S
C613 C617 1.393 . S
C614 H606 0.950 . S
C614 C612 1.391 . S
C614 C615 1.400 . S
C615 C614 1.400 . S
C615 C616 1.398 . S
C615 C621 1.491 . S
C616 H607 0.950 . S
C616 C615 1.398 . S
C616 C617 1.391 . S
C617 H605 0.950 . S
C617 C613 1.393 . S
C617 C616 1.391 . S
C618 H608 0.950 . S
C618 C619 1.386 . S
C618 C620 1.391 . S
C619 C618 1.386 . S
C619 C623 1.393 . S
C620 H609 0.950 1_556 S
C620 C618 1.391 . S
C620 C621 1.400 1_556 S
C621 C615 1.491 . S
C621 C620 1.400 1_554 S
C621 C622 1.398 1_554 S
C622 H610 0.950 . S
C622 C621 1.398 1_556 S
C622 C623 1.391 . S
C623 H611 0.950 . S
C623 C619 1.393 . S
C623 C622 1.391 . S
H624 C632 0.950 . S
H625 C637 0.950 . S
H626 C634 0.950 . S
H627 C636 0.950 1_554 S
H628 C638 0.950 . S
H629 C640 0.950 . S
H630 C642 0.950 . S
H631 C643 0.950 . S
C632 H624 0.950 . S
C632 C633 1.386 . S
C632 C634 1.391 . S
C633 C632 1.386 . S
C633 C637 1.393 . S
C634 H626 0.950 . S
C634 C632 1.391 . S
C634 C635 1.400 1_556 S
C635 C634 1.400 1_554 S
C635 C636 1.398 1_554 S
C635 C641 1.491 . S
C636 H627 0.950 1_556 S
C636 C635 1.398 1_556 S
C636 C637 1.391 . S
C637 H625 0.950 . S
C637 C633 1.393 . S
C637 C636 1.391 . S
C638 H628 0.950 . S
C638 C639 1.386 . S
C638 C640 1.391 . S
C639 C638 1.386 . S
C639 C643 1.393 . S
C640 H629 0.950 . S
C640 C638 1.391 . S
C640 C641 1.400 . S
C641 C635 1.491 . S
C641 C640 1.400 . S
C641 C642 1.398 . S
C642 H630 0.950 . S
C642 C641 1.398 . S
C642 C643 1.391 . S
C643 H631 0.950 . S
C643 C639 1.393 . S
C643 C642 1.391 . S
H644 C652 0.950 . S
H645 C657 0.950 . S
H646 C654 0.950 . S
H647 C656 0.950 . S
H648 C658 0.950 . S
H649 C660 0.950 . S
H650 C662 0.950 . S
H651 C663 0.950 . S
C652 H644 0.950 . S
C652 C653 1.386 . S
C652 C654 1.391 . S
C653 C652 1.386 . S
C653 C657 1.393 . S
C654 H646 0.950 . S
C654 C652 1.391 . S
C654 C655 1.400 . S
C655 C654 1.400 . S
C655 C656 1.398 . S
C655 C661 1.491 . S
C656 H647 0.950 . S
C656 C655 1.398 . S
C656 C657 1.391 . S
C657 H645 0.950 . S
C657 C653 1.393 . S
C657 C656 1.391 . S
C658 H648 0.950 . S
C658 C659 1.386 . S
C658 C660 1.391 . S
C659 C658 1.386 . S
C659 C663 1.393 . S
C660 H649 0.950 . S
C660 C658 1.391 . S
C660 C661 1.400 . S
C661 C655 1.491 . S
C661 C660 1.400 . S
C661 C662 1.398 . S
C662 H650 0.950 . S
C662 C661 1.398 . S
C662 C663 1.391 . S
C663 H651 0.950 . S
C663 C659 1.393 . S
C663 C662 1.391 . S
H664 C672 0.950 . S
H665 C677 0.950 . S
H666 C674 0.950 . S
H667 C676 0.950 . S
H668 C678 0.950 . S
H669 C680 0.950 . S
H670 C682 0.950 . S
H671 C683 0.950 . S
C672 H664 0.950 . S
C672 C673 1.386 . S
C672 C674 1.391 . S
C673 C672 1.386 . S
C673 C677 1.393 . S
C674 H666 0.950 . S
C674 C672 1.391 . S
C674 C675 1.400 . S
C675 C674 1.400 . S
C675 C676 1.398 . S
C675 C681 1.491 . S
C676 H667 0.950 . S
C676 C675 1.398 . S
C676 C677 1.391 . S
C677 H665 0.950 . S
C677 C673 1.393 . S
C677 C676 1.391 . S
C678 H668 0.950 . S
C678 C679 1.386 . S
C678 C680 1.391 . S
C679 C678 1.386 . S
C679 C683 1.393 . S
C680 H669 0.950 . S
C680 C678 1.391 . S
C680 C681 1.400 . S
C681 C675 1.491 . S
C681 C680 1.400 . S
C681 C682 1.398 . S
C682 H670 0.950 . S
C682 C681 1.398 . S
C682 C683 1.391 . S
C683 H671 0.950 . S
C683 C679 1.393 . S
C683 C682 1.391 . S
H684 C692 0.950 . S
H685 C697 0.950 . S
H686 C694 0.950 . S
H687 C696 0.950 . S
H688 C698 0.950 . S
H689 C700 0.950 . S
H690 C702 0.950 . S
H691 C703 0.950 . S
C692 H684 0.950 . S
C692 C693 1.386 . S
C692 C694 1.391 . S
C693 C692 1.386 . S
C693 C697 1.393 . S
C694 H686 0.950 . S
C694 C692 1.391 . S
C694 C695 1.400 . S
C695 C694 1.400 . S
C695 C696 1.398 1_455 S
C695 C701 1.491 1_455 S
C696 H687 0.950 . S
C696 C695 1.398 1_655 S
C696 C697 1.391 1_655 S
C697 H685 0.950 . S
C697 C693 1.393 . S
C697 C696 1.391 1_455 S
C698 H688 0.950 . S
C698 C699 1.386 . S
C698 C700 1.391 . S
C699 C698 1.386 . S
C699 C703 1.393 . S
C700 H689 0.950 . S
C700 C698 1.391 . S
C700 C701 1.400 . S
C701 C695 1.491 1_655 S
C701 C700 1.400 . S
C701 C702 1.398 1_655 S
C702 H690 0.950 . S
C702 C701 1.398 1_455 S
C702 C703 1.391 1_455 S
C703 H691 0.950 . S
C703 C699 1.393 . S
C703 C702 1.391 1_655 S
H704 C712 0.950 . S
H705 C717 0.950 . S
H706 C714 0.950 . S
H707 C716 0.950 . S
H708 C718 0.950 . S
H709 C720 0.950 . S
H710 C722 0.950 . S
H711 C723 0.950 . S
C712 H704 0.950 . S
C712 C713 1.386 . S
C712 C714 1.391 . S
C713 C712 1.386 . S
C713 C717 1.393 . S
C714 H706 0.950 . S
C714 C712 1.391 . S
C714 C715 1.400 . S
C715 C714 1.400 . S
C715 C716 1.398 . S
C715 C721 1.491 1_455 S
C716 H707 0.950 . S
C716 C715 1.398 . S
C716 C717 1.391 . S
C717 H705 0.950 . S
C717 C713 1.393 . S
C717 C716 1.391 . S
C718 H708 0.950 . S
C718 C719 1.386 . S
C718 C720 1.391 . S
C719 C718 1.386 . S
C719 C723 1.393 . S
C720 H709 0.950 . S
C720 C718 1.391 . S
C720 C721 1.400 . S
C721 C715 1.491 1_655 S
C721 C720 1.400 . S
C721 C722 1.398 . S
C722 H710 0.950 . S
C722 C721 1.398 . S
C722 C723 1.391 . S
C723 H711 0.950 . S
C723 C719 1.393 . S
C723 C722 1.391 . S
H724 C732 0.950 . S
H725 C737 0.950 . S
H726 C734 0.950 . S
H727 C736 0.950 . S
H728 C738 0.950 . S
H729 C740 0.950 . S
H730 C742 0.950 . S
H731 C743 0.950 . S
C732 H724 0.950 . S
C732 C733 1.386 . S
C732 C734 1.391 . S
C733 C732 1.386 . S
C733 C737 1.393 . S
C734 H726 0.950 . S
C734 C732 1.391 . S
C734 C735 1.400 . S
C735 C734 1.400 . S
C735 C736 1.398 . S
C735 C741 1.491 . S
C736 H727 0.950 . S
C736 C735 1.398 . S
C736 C737 1.391 . S
C737 H725 0.950 . S
C737 C733 1.393 . S
C737 C736 1.391 . S
C738 H728 0.950 . S
C738 C739 1.386 . S
C738 C740 1.391 . S
C739 C738 1.386 . S
C739 C743 1.393 . S
C740 H729 0.950 . S
C740 C738 1.391 . S
C740 C741 1.400 . S
C741 C735 1.491 . S
C741 C740 1.400 . S
C741 C742 1.398 . S
C742 H730 0.950 . S
C742 C741 1.398 . S
C742 C743 1.391 . S
C743 H731 0.950 . S
C743 C739 1.393 . S
C743 C742 1.391 . S
H744 C752 0.950 . S
H745 C757 0.950 . S
H746 C754 0.950 . S
H747 C756 0.950 . S
H748 C758 0.950 . S
H749 C760 0.950 . S
H750 C762 0.950 . S
H751 C763 0.950 . S
C752 H744 0.950 . S
C752 C753 1.386 . S
C752 C754 1.391 . S
C753 C752 1.386 . S
C753 C757 1.393 . S
C754 H746 0.950 . S
C754 C752 1.391 . S
C754 C755 1.400 . S
C755 C754 1.400 . S
C755 C756 1.398 . S
C755 C761 1.491 . S
C756 H747 0.950 . S
C756 C755 1.398 . S
C756 C757 1.391 . S
C757 H745 0.950 . S
C757 C753 1.393 . S
C757 C756 1.391 . S
C758 H748 0.950 . S
C758 C759 1.386 . S
C758 C760 1.391 . S
C759 C758 1.386 . S
C759 C763 1.393 . S
C760 H749 0.950 . S
C760 C758 1.391 . S
C760 C761 1.400 . S
C761 C755 1.491 . S
C761 C760 1.400 . S
C761 C762 1.398 . S
C762 H750 0.950 . S
C762 C761 1.398 . S
C762 C763 1.391 . S
C763 H751 0.950 . S
C763 C759 1.393 . S
C763 C762 1.391 . S
H764 C772 0.950 . S
H765 C777 0.950 . S
H766 C774 0.950 . S
H767 C776 0.950 . S
H768 C778 0.950 . S
H769 C780 0.950 . S
H770 C782 0.950 . S
H771 C783 0.950 . S
C772 H764 0.950 . S
C772 C773 1.386 . S
C772 C774 1.391 . S
C773 C772 1.386 . S
C773 C777 1.393 . S
C774 H766 0.950 . S
C774 C772 1.391 . S
C774 C775 1.412 . S
C775 C774 1.412 . S
C775 C776 1.407 . S
C775 C781 1.472 1_545 S
C776 H767 0.950 . S
C776 C775 1.407 . S
C776 C777 1.391 . S
C777 H765 0.950 . S
C777 C773 1.393 . S
C777 C776 1.391 . S
C778 H768 0.950 . S
C778 C779 1.386 . S
C778 C780 1.391 . S
C779 C778 1.386 . S
C779 C783 1.393 . S
C780 H769 0.950 . S
C780 C778 1.391 . S
C780 C781 1.400 . S
C781 C775 1.472 1_565 S
C781 C780 1.400 . S
C781 C782 1.398 . S
C782 H770 0.950 . S
C782 C781 1.398 . S
C782 C783 1.391 . S
C783 H771 0.950 . S
C783 C779 1.393 . S
C783 C782 1.391 . S
H784 C792 0.950 . S
H785 C797 0.950 . S
H786 C794 0.950 . S
H787 C796 0.950 . S
H788 C798 0.950 . S
H789 C800 0.950 . S
H790 C802 0.950 . S
H791 C803 0.950 . S
C792 H784 0.950 . S
C792 C793 1.386 . S
C792 C794 1.391 . S
C793 C792 1.386 . S
C793 C797 1.393 . S
C794 H786 0.950 . S
C794 C792 1.391 . S
C794 C795 1.400 . S
C795 C794 1.400 . S
C795 C796 1.398 . S
C795 C801 1.491 . S
C796 H787 0.950 . S
C796 C795 1.398 . S
C796 C797 1.391 . S
C797 H785 0.950 . S
C797 C793 1.393 . S
C797 C796 1.391 . S
C798 H788 0.950 . S
C798 C799 1.386 . S
C798 C800 1.391 . S
C799 C798 1.386 . S
C799 C803 1.393 . S
C800 H789 0.950 . S
C800 C798 1.391 . S
C800 C801 1.400 . S
C801 C795 1.491 . S
C801 C800 1.400 . S
C801 C802 1.398 . S
C802 H790 0.950 . S
C802 C801 1.398 . S
C802 C803 1.391 . S
C803 H791 0.950 . S
C803 C799 1.393 . S
C803 C802 1.391 . S
H804 C812 0.950 . S
H805 C817 0.950 . S
H806 C814 0.950 . S
H807 C816 0.950 . S
H808 C818 0.950 . S
H809 C820 0.950 . S
H810 C822 0.950 . S
H811 C823 0.950 . S
C812 H804 0.950 . S
C812 C813 1.386 . S
C812 C814 1.391 . S
C813 C812 1.386 . S
C813 C817 1.393 . S
C814 H806 0.950 . S
C814 C812 1.391 . S
C814 C815 1.400 . S
C815 C814 1.400 . S
C815 C816 1.398 . S
C815 C821 1.491 . S
C816 H807 0.950 . S
C816 C815 1.398 . S
C816 C817 1.391 . S
C817 H805 0.950 . S
C817 C813 1.393 . S
C817 C816 1.391 . S
C818 H808 0.950 . S
C818 C819 1.386 . S
C818 C820 1.391 . S
C819 C818 1.386 . S
C819 C823 1.393 . S
C820 H809 0.950 . S
C820 C818 1.391 . S
C820 C821 1.400 . S
C821 C815 1.491 . S
C821 C820 1.400 . S
C821 C822 1.398 . S
C822 H810 0.950 . S
C822 C821 1.398 . S
C822 C823 1.391 . S
C823 H811 0.950 . S
C823 C819 1.393 . S
C823 C822 1.391 . S
H824 C832 0.950 . S
H825 C837 0.950 . S
H826 C834 0.950 1_565 S
H827 C836 0.950 . S
H828 C838 0.950 . S
H829 C840 0.938 1_545 S
H830 C842 0.950 . S
H831 C843 0.950 . S
C832 H824 0.950 . S
C832 C833 1.386 . S
C832 C834 1.391 . S
C833 C832 1.386 . S
C833 C837 1.393 . S
C834 H826 0.950 1_545 S
C834 C832 1.391 . S
C834 C835 1.400 . S
C835 C834 1.400 . S
C835 C836 1.398 . S
C835 C841 1.491 1_545 S
C836 H827 0.950 . S
C836 C835 1.398 . S
C836 C837 1.391 . S
C837 H825 0.950 . S
C837 C833 1.393 . S
C837 C836 1.391 . S
C838 H828 0.950 . S
C838 C839 1.386 . S
C838 C840 1.402 . S
C839 C838 1.386 . S
C839 C843 1.393 . S
C840 H829 0.938 1_565 S
C840 C838 1.402 . S
C840 C841 1.401 . S
C841 C835 1.491 1_565 S
C841 C840 1.401 . S
C841 C842 1.398 . S
C842 H830 0.950 . S
C842 C841 1.398 . S
C842 C843 1.391 . S
C843 H831 0.950 . S
C843 C839 1.393 . S
C843 C842 1.391 . S
H844 C852 0.950 . S
H845 C857 0.950 . S
H846 C854 0.950 . S
H847 C856 0.950 . S
H848 C858 0.950 . S
H849 C860 0.950 . S
H850 C862 0.950 . S
H851 C863 0.950 . S
C852 H844 0.950 . S
C852 C853 1.386 . S
C852 C854 1.391 . S
C853 C852 1.386 . S
C853 C857 1.393 . S
C854 H846 0.950 . S
C854 C852 1.391 . S
C854 C855 1.400 . S
C855 C854 1.400 . S
C855 C856 1.398 . S
C855 C861 1.491 . S
C856 H847 0.950 . S
C856 C855 1.398 . S
C856 C857 1.391 . S
C857 H845 0.950 . S
C857 C853 1.393 . S
C857 C856 1.391 . S
C858 H848 0.950 . S
C858 C859 1.386 . S
C858 C860 1.391 . S
C859 C858 1.386 . S
C859 C863 1.393 . S
C860 H849 0.950 . S
C860 C858 1.391 . S
C860 C861 1.400 . S
C861 C855 1.491 . S
C861 C860 1.400 . S
C861 C862 1.398 . S
C862 H850 0.950 . S
C862 C861 1.398 . S
C862 C863 1.391 . S
C863 H851 0.950 . S
C863 C859 1.393 . S
C863 C862 1.391 . S
C233 C9 1.529 . S
C239 C191 1.506 . S
C253 C23 1.532 . S
C259 C135 1.515 . S
C273 C205 1.199 . S
C279 C37 1.210 . S
C293 C51 1.209 . S
C299 C219 1.209 . S
C313 C65 1.530 . S
C319 C93 1.506 . S
C333 C149 1.526 . S
C339 C79 1.506 . S
C353 C163 1.208 . S
C359 C107 1.195 . S
C373 C121 1.209 . S
C379 C177 1.208 . S
C393 C35 1.411 . S
C399 C7 1.452 . S
C413 C21 1.438 . S
C419 C49 1.396 . S
C433 C174 1.366 . S
C439 C6 1.460 . S
C453 C20 1.451 . S
C459 C160 1.401 . S
C473 C62 1.454 . S
C479 C34 1.365 . S
C493 C146 1.446 . S
C499 C48 1.373 . S
C513 C22 2.321 . S
C519 C8 2.318 . S
C533 C50 1.523 . S
C539 C36 1.518 . S
C553 C148 2.322 . S
C559 C64 2.318 . S
C573 C104 1.694 . S
C579 C78 1.769 . S
C593 C92 1.768 . S
C599 C118 1.690 . S
C613 C217 1.670 . S
C619 C76 1.704 . S
C633 C90 1.702 . S
C639 C203 1.674 . S
C653 C132 1.710 . S
C659 C105 1.665 . S
C673 C119 1.650 . S
C679 C188 1.720 . S
C693 C91 0.976 . S
C699 C77 0.994 . S
C713 C120 1.848 . S
C719 C106 1.847 . S
C733 C133 0.977 . S
C739 C189 0.993 . S
C753 C147 1.451 . S
C759 C161 1.383 . S
C773 C175 1.386 . S
C779 C63 1.443 . S
C793 C176 1.518 . S
C799 C162 1.524 . S
C813 C202 1.681 . S
C819 C190 1.779 . S
C833 C134 1.778 . S
C839 C216 1.679 . S
C853 C218 1.850 . S
C859 C204 1.846 . S
