# Generated by pormake.
# Topology bsn, (6)-cn, num edge types: 1
# Building blocks:
#     Node 0, Type 0, BuildingBlock: JUFBIX_clean_sbu_0, # of connection points: 6
#     Node 1, Type 0, BuildingBlock: JUFBIX_clean_sbu_0, # of connection points: 6
#     Node 2, Type 0, BuildingBlock: JUFBIX_clean_sbu_0, # of connection points: 6
#     Node 3, Type 0, BuildingBlock: JUFBIX_clean_sbu_0, # of connection points: 6
#     Edge 4, Type (0, 0), BuildingBlock: CIFDUS_clean_linker_0, # of connection points: 2
#     Edge 5, Type (0, 0), BuildingBlock: CIFDUS_clean_linker_0, # of connection points: 2
#     Edge 6, Type (0, 0), BuildingBlock: CIFDUS_clean_linker_0, # of connection points: 2
#     Edge 7, Type (0, 0), BuildingBlock: CIFDUS_clean_linker_0, # of connection points: 2
#     Edge 8, Type (0, 0), BuildingBlock: CIFDUS_clean_linker_0, # of connection points: 2
#     Edge 9, Type (0, 0), BuildingBlock: CIFDUS_clean_linker_0, # of connection points: 2
#     Edge 10, Type (0, 0), BuildingBlock: CIFDUS_clean_linker_0, # of connection points: 2
#     Edge 11, Type (0, 0), BuildingBlock: CIFDUS_clean_linker_0, # of connection points: 2
#     Edge 12, Type (0, 0), BuildingBlock: CIFDUS_clean_linker_0, # of connection points: 2
#     Edge 13, Type (0, 0), BuildingBlock: CIFDUS_clean_linker_0, # of connection points: 2
#     Edge 14, Type (0, 0), BuildingBlock: CIFDUS_clean_linker_0, # of connection points: 2
#     Edge 15, Type (0, 0), BuildingBlock: CIFDUS_clean_linker_0, # of connection points: 2
# Relax obj value: 0.091
# Max RMSD: 0.160
# Mean RMSD: 0.160
data_MOF--net-bsn--node1-JUFBIX_clean_sbu_0--edge1-CIFDUS_clean_linker_0
_symmetry_space_group_name_H-M    P1
_symmetry_Int_Tables_number       1
_symmetry_cell_setting            triclinic
loop_
_symmetry_equiv_pos_as_xyz
'x, y, z'
_cell_length_a     25.31954
_cell_length_b     34.836217
_cell_length_c     13.048224
_cell_angle_alpha  87.473726
_cell_angle_beta   93.256822
_cell_angle_gamma 99.07196
loop_
_atom_site_label
_atom_site_type_symbol
_atom_site_fract_x
_atom_site_fract_y
_atom_site_fract_z
_atom_type_partial_charge
Co0 Co 1.02362 0.25996 0.31214 0.0
C1 C 0.02906 0.2967 0.49515 0.0
Co2 Co 0.03021 0.32398 0.29032 0.0
C3 C 0.03717 0.18154 0.39037 0.0
C4 C 0.98041 0.18224 0.26263 0.0
N5 N 1.01477 0.20587 0.32347 0.0
N6 N 1.01816 0.14366 0.37295 0.0
C7 C 0.98239 0.14425 0.29259 0.0
H8 H 0.06677 0.19147 0.45046 0.0
H9 H 0.95474 0.19206 0.20112 0.0
C10 C 0.02506 0.28719 0.1073 0.0
N11 N 0.03798 0.37794 0.27891 0.0
C12 C 1.01839 0.40163 0.34123 0.0
C13 C 0.06921 0.40208 0.21567 0.0
N14 N 0.03679 0.43964 0.32098 0.0
C15 C 0.06852 0.43997 0.2412 0.0
C16 C 0.12757 0.29671 0.30487 0.0
O17 O 1.02168 0.25729 0.16724 0.0
O18 O 0.02927 0.32064 0.1451 0.0
O19 O 0.10507 0.32687 0.29692 0.0
O20 O 0.09921 0.26328 0.31455 0.0
O21 O 0.03124 0.32653 0.43511 0.0
H22 H 0.09284 0.39268 0.1578 0.0
H23 H 0.99212 0.39098 0.40224 0.0
O24 O 0.02581 0.2633 0.45744 0.0
O25 O 0.94814 0.25741 0.30713 0.0
O26 O 0.95515 0.32065 0.28221 0.0
C27 C 0.92608 0.28755 0.29048 0.0
H28 H 0.95808 0.11906 0.25928 0.0
H29 H 0.09179 0.46556 0.20692 0.0
Co30 Co 1.02446 0.7532 0.63041 0.0
C31 C 0.03198 0.77866 0.83086 0.0
Co32 Co 0.03875 0.81733 0.64119 0.0
C33 C 0.02885 0.67666 0.55569 0.0
C34 C 0.97701 0.67476 0.68038 0.0
N35 N 1.01057 0.69944 0.62251 0.0
N36 N 1.00794 0.6387 0.56945 0.0
C37 C 0.97536 0.63751 0.64817 0.0
H38 H 0.05682 0.68782 0.49782 0.0
H39 H 0.95426 0.68342 0.74073 0.0
C40 C 0.03114 0.79187 0.44074 0.0
N41 N 0.05254 0.87125 0.64817 0.0
C42 C 0.0339 0.89785 0.58314 0.0
C43 C 0.08639 0.89236 0.71541 0.0
N44 N 0.05505 0.93477 0.60635 0.0
C45 C 0.08796 0.93133 0.69009 0.0
C46 C 0.1313 0.78375 0.64562 0.0
O47 O 1.02383 0.75838 0.48499 0.0
O48 O 0.03842 0.82182 0.49511 0.0
O49 O 0.11312 0.81569 0.64718 0.0
O50 O 0.09892 0.75215 0.6361 0.0
O51 O 0.03888 0.81219 0.78659 0.0
H52 H 0.1096 0.88017 0.77719 0.0
H53 H 1.00569 0.89009 0.5192 0.0
O54 O 0.02526 0.74868 0.77655 0.0
O55 O 0.95014 0.75467 0.62648 0.0
O56 O 0.96422 0.81821 0.63766 0.0
C57 C 0.93194 0.78635 0.63345 0.0
H58 H 0.95073 0.61175 0.67848 0.0
H59 H 0.11296 0.95512 0.72825 0.0
Co60 Co 0.53549 0.77651 0.80045 0.0
C61 C 0.54387 0.80394 0.00029 0.0
Co62 Co 0.55047 0.84104 0.8106 0.0
C63 C 0.53978 0.6954 0.8617 0.0
C64 C 0.48495 0.70106 0.73316 0.0
N65 N 0.52016 0.72216 0.79814 0.0
N66 N 0.5181 0.6584 0.83923 0.0
C67 C 0.48362 0.66208 0.75798 0.0
H68 H 0.5687 0.70311 0.92457 0.0
H69 H 0.46142 0.71326 0.67191 0.0
C70 C 0.54195 0.81363 0.61051 0.0
N71 N 0.56687 0.8954 0.81058 0.0
C72 C 0.54643 0.92271 0.86016 0.0
C73 C 0.6038 0.91598 0.75067 0.0
N74 N 0.56897 0.95936 0.83215 0.0
C75 C 0.60511 0.95497 0.76352 0.0
C76 C 0.64225 0.80613 0.80793 0.0
O77 O 0.53468 0.78009 0.6547 0.0
O78 O 0.54926 0.84358 0.66478 0.0
O79 O 0.62447 0.83796 0.81514 0.0
O80 O 0.60964 0.77446 0.80339 0.0
O81 O 0.5512 0.83758 0.95617 0.0
H82 H 0.62802 0.90337 0.6996 0.0
H83 H 0.51482 0.9159 0.91359 0.0
O84 O 0.53659 0.77389 0.94609 0.0
O85 O 0.46142 0.77955 0.79504 0.0
O86 O 0.47636 0.84327 0.80448 0.0
C87 C 0.44367 0.81174 0.79572 0.0
H88 H 0.45938 0.63835 0.71823 0.0
H89 H 0.63099 0.97836 0.72554 0.0
Co90 Co 0.51684 0.26486 0.11781 0.0
C91 C 0.52311 0.29236 0.31719 0.0
Co92 Co 0.52495 0.32933 0.12626 0.0
C93 C 0.52683 0.18367 0.06925 0.0
C94 C 0.46923 0.18886 0.1796 0.0
N95 N 0.50493 0.2103 0.11874 0.0
N96 N 0.50632 0.14665 0.09831 0.0
C97 C 0.47001 0.15013 0.16739 0.0
H98 H 0.55783 0.19125 0.01481 0.0
H99 H 0.44418 0.20071 0.2306 0.0
C100 C 0.51882 0.30175 0.92719 0.0
N101 N 0.53583 0.38378 0.12844 0.0
C102 C 0.516 0.41001 0.0633 0.0
C103 C 0.56914 0.40554 0.19515 0.0
N104 N 0.53592 0.44726 0.08647 0.0
C105 C 0.56923 0.44432 0.16987 0.0
C106 C 0.62129 0.29945 0.12942 0.0
O107 O 0.5158 0.26827 -0.02801 0.0
O108 O 0.52245 0.33179 -0.01925 0.0
O109 O 0.59981 0.3301 0.12854 0.0
O110 O 0.59184 0.26635 0.12397 0.0
O111 O 0.52721 0.32578 0.27241 0.0
H112 H 0.59259 0.39394 0.25753 0.0
H113 H 0.48858 0.40182 -0.00153 0.0
O114 O 0.51833 0.26241 0.26342 0.0
O115 O 0.44196 0.26433 0.11358 0.0
O116 O 0.45006 0.32766 0.12598 0.0
C117 C 0.4206 0.29459 0.12176 0.0
H118 H 0.44524 0.12626 0.20592 0.0
H119 H 0.59205 0.46843 0.2104 0.0
H120 H 0.0467 0.51521 0.25568 0.0
H121 H 1.00975 0.43849 0.51971 0.0
H122 H 0.99754 0.49348 0.61931 0.0
H123 H 0.99875 0.56342 0.63346 0.0
H124 H 0.03628 0.64075 0.37131 0.0
H125 H 0.04852 0.58568 0.27042 0.0
C126 C 0.03631 0.51048 0.33512 0.0
C127 C 0.02883 0.47246 0.37927 0.0
C128 C 0.02997 0.54247 0.39296 0.0
C129 C 1.01478 0.46708 0.48239 0.0
C130 C 1.00823 0.49866 0.54006 0.0
C131 C 1.00916 0.56828 0.55404 0.0
C132 C 1.01646 0.6063 0.51033 0.0
C133 C 1.01571 0.53645 0.49621 0.0
C134 C 0.03101 0.61197 0.40762 0.0
C135 C 0.03764 0.5804 0.34953 0.0
H136 H 0.68779 0.74979 0.72672 0.0
H137 H 0.7242 0.86529 0.84511 0.0
H138 H 0.81649 0.87037 0.79463 0.0
H139 H 0.88625 0.84246 0.71479 0.0
H140 H 0.85009 0.72693 0.59664 0.0
H141 H 0.75772 0.7218 0.64705 0.0
C142 C 0.71613 0.77584 0.74288 0.0
C143 C 0.69936 0.80699 0.79023 0.0
C144 C 0.76875 0.7789 0.71177 0.0
C145 C 0.73629 0.84081 0.8092 0.0
C146 C 0.78891 0.84387 0.77972 0.0
C147 C 0.85796 0.81638 0.69869 0.0
C148 C 0.8748 0.78525 0.65138 0.0
C149 C 0.80537 0.81328 0.72986 0.0
C150 C 0.83794 0.75139 0.63252 0.0
C151 C 0.78527 0.74831 0.66196 0.0
H152 H 0.59988 0.51744 0.08418 0.0
H153 H 0.44735 0.45788 -0.03247 0.0
H154 H 0.42842 0.51804 0.88006 0.0
H155 H 0.45424 0.58793 0.83965 0.0
H156 H 0.60711 0.6472 0.95611 0.0
H157 H 0.62593 0.58706 0.04288 0.0
C158 C 0.56222 0.51753 0.04056 0.0
C159 C 0.52507 0.48286 0.03321 0.0
C160 C 0.5514 0.55238 -0.00916 0.0
C161 C 0.47701 0.48377 -0.0259 0.0
C162 C 0.46598 0.51833 0.92443 0.0
C163 C 0.49195 0.5878 0.88305 0.0
C164 C 0.52909 0.62251 0.89085 0.0
C165 C 0.50284 0.55285 0.93238 0.0
C166 C 0.57732 0.62141 0.94936 0.0
C167 C 0.58833 0.58683 -0.00132 0.0
H168 H 0.86942 0.34366 0.21857 0.0
H169 H 0.85178 0.22229 0.31465 0.0
H170 H 0.75609 0.21465 0.2672 0.0
H171 H 0.67758 0.24246 0.1979 0.0
H172 H 0.69575 0.36396 0.10323 0.0
H173 H 0.79147 0.37129 0.14899 0.0
C174 C 0.84461 0.31559 0.23003 0.0
C175 C 0.86761 0.28366 0.27052 0.0
C176 C 0.78992 0.31127 0.20143 0.0
C177 C 0.83498 0.2474 0.28397 0.0
C178 C 0.78033 0.24294 0.25637 0.0
C179 C 0.70265 0.2704 0.1861 0.0
C180 C 0.67976 0.30256 0.14685 0.0
C181 C 0.75747 0.27461 0.21434 0.0
C182 C 0.71252 0.33874 0.13323 0.0
C183 C 0.76717 0.34302 0.15979 0.0
H184 H 0.36865 0.34729 0.20376 0.0
H185 H 0.34463 0.23114 0.08898 0.0
H186 H 0.25281 0.22027 0.14421 0.0
H187 H 0.17965 0.24355 0.22642 0.0
H188 H 0.20327 0.35994 0.33899 0.0
H189 H 0.29556 0.37058 0.28569 0.0
C190 C 0.34307 0.31982 0.18941 0.0
C191 C 0.36323 0.2902 0.14169 0.0
C192 C 0.29072 0.31349 0.22308 0.0
C193 C 0.32988 0.25452 0.12507 0.0
C194 C 0.27754 0.24815 0.15734 0.0
C195 C 0.20537 0.27096 0.24095 0.0
C196 C 0.18508 0.30077 0.28744 0.0
C197 C 0.25777 0.27725 0.20749 0.0
C198 C 0.21832 0.33647 0.30388 0.0
C199 C 0.27086 0.34269 0.27271 0.0
H200 H 0.36763 0.75214 0.73635 0.0
H201 H 0.39032 0.8735 0.80996 0.0
H202 H 0.29578 0.87581 0.76559 0.0
H203 H 0.20727 0.84353 0.70482 0.0
H204 H 0.18483 0.7222 0.63092 0.0
H205 H 0.27931 0.71994 0.67531 0.0
C206 C 0.35187 0.77905 0.74361 0.0
C207 C 0.38587 0.81256 0.77685 0.0
C208 C 0.29782 0.78031 0.71674 0.0
C209 C 0.36491 0.84726 0.78482 0.0
C210 C 0.31095 0.84866 0.75908 0.0
C211 C 0.2231 0.81665 0.6975 0.0
C212 C 0.18915 0.78312 0.66426 0.0
C213 C 0.27719 0.81542 0.72428 0.0
C214 C 0.21018 0.74845 0.6561 0.0
C215 C 0.26411 0.74708 0.68186 0.0
H216 H 0.54052 0.97542 0.02012 0.0
H217 H 0.57206 1.0263 0.71848 0.0
H218 H 0.55807 0.08964 0.77496 0.0
H219 H 0.53612 0.131 0.91054 0.0
H220 H 0.50533 0.08002 0.21248 0.0
H221 H 0.51964 1.01686 0.15601 0.0
C222 C 0.54379 1.00031 -0.03328 0.0
C223 C 0.55743 0.99606 0.86537 0.0
C224 C 0.53606 1.0369 1e-05 0.0
C225 C 0.56221 1.0288 0.7973 0.0
C226 C 0.55411 0.06509 0.82948 0.0
C227 C 0.53318 0.10615 0.96406 0.0
C228 C 0.51931 0.11031 0.06537 0.0
C229 C 0.5413 0.06962 0.93087 0.0
C230 C 0.51515 0.07761 0.13361 0.0
C231 C 0.52344 1.0414 0.10147 0.0
H232 H 0.06837 1.00768 0.67839 0.0
H233 H 1.02433 0.94219 0.40489 0.0
H234 H 1.01055 1.00146 0.30842 0.0
H235 H 1.01093 0.07166 0.30074 0.0
H236 H 0.05421 0.13797 0.57261 0.0
H237 H 0.07032 0.07883 0.66957 0.0
C238 C 0.05619 1.00635 0.59754 0.0
C239 C 0.04704 0.97019 0.54963 0.0
C240 C 0.0487 1.04079 0.54181 0.0
C241 C 0.03069 0.96923 0.44477 0.0
C242 C 1.02322 1.00326 0.38906 0.0
C243 C 1.02346 0.07327 0.3814 0.0
C244 C 0.03087 0.10932 0.42926 0.0
C245 C 0.03188 1.03913 0.43684 0.0
C246 C 0.04853 0.11079 0.53338 0.0
C247 C 0.05736 0.07687 0.58911 0.0
H248 H 0.03373 0.34431 0.95709 0.0
H249 H 1.0157 0.21959 0.00547 0.0
H250 H 1.01589 0.21149 0.82096 0.0
H251 H 1.02103 0.23964 0.64549 0.0
H252 H 0.03857 0.36435 0.59698 0.0
H253 H 0.03879 0.37247 0.78154 0.0
C254 C 0.02976 0.31536 0.92728 0.0
C255 C 1.02467 0.28267 -0.0049 0.0
C256 C 0.02989 0.31083 0.8209 0.0
C257 C 1.01966 0.24533 0.95509 0.0
C258 C 1.01979 0.24061 0.84948 0.0
C259 C 0.02497 0.26859 0.67527 0.0
C260 C 0.02978 0.30126 0.6074 0.0
C261 C 0.02489 0.27314 0.78164 0.0
C262 C 0.03478 0.33861 0.64738 0.0
C263 C 0.03489 0.34335 0.75304 0.0
H264 H 0.04207 0.83654 -0.0327 0.0
H265 H 1.01927 0.71149 0.94925 0.0
H266 H 1.01666 0.70461 0.13596 0.0
H267 H 1.02085 0.73399 0.30427 0.0
H268 H 0.04336 0.85905 0.32229 0.0
H269 H 0.04593 0.86592 0.13558 0.0
C270 C 0.03659 0.80776 0.00411 0.0
C271 C 0.03098 0.7746 0.94421 0.0
C272 C 0.03496 0.80397 0.11153 0.0
C273 C 1.02379 0.73754 -0.00664 0.0
C274 C 1.02223 0.73355 0.1002 0.0
C275 C 0.02623 0.76277 0.26745 0.0
C276 C 0.03191 0.79593 0.32736 0.0
C277 C 0.02774 0.76656 0.16002 0.0
C278 C 0.03892 0.833 0.27819 0.0
C279 C 0.04042 0.83698 0.17134 0.0
H280 H 0.5524 0.86109 0.13883 0.0
H281 H 0.53309 0.7363 0.1162 0.0
H282 H 0.53025 0.72824 0.30243 0.0
H283 H 0.53315 0.75646 0.47202 0.0
H284 H 0.55277 0.88126 0.49468 0.0
H285 H 0.5554 0.88931 0.30841 0.0
C286 C 0.54768 0.83213 0.17459 0.0
C287 C 0.543 0.79941 0.11349 0.0
C288 C 0.54598 0.82762 0.28188 0.0
C289 C 0.53677 0.76206 0.16124 0.0
C290 C 0.53511 0.75737 0.26786 0.0
C291 C 0.53792 0.78542 0.43624 0.0
C292 C 0.54271 0.81815 0.49733 0.0
C293 C 0.5396 0.78993 0.32895 0.0
C294 C 0.54898 0.85549 0.4496 0.0
C295 C 0.55053 0.86018 0.34298 0.0
H296 H 0.52492 0.3491 0.45491 0.0
H297 H 0.52039 0.22525 0.4339 0.0
H298 H 0.51824 0.21713 0.6202 0.0
H299 H 0.51735 0.24501 0.78942 0.0
H300 H 0.52146 0.36884 0.81032 0.0
H301 H 0.52387 0.37697 0.62409 0.0
C302 C 0.52359 0.32035 0.49108 0.0
C303 C 0.52287 0.2879 0.43042 0.0
C304 C 0.5221 0.31578 0.59839 0.0
C305 C 0.52098 0.2508 0.47863 0.0
C306 C 0.5197 0.24607 0.58528 0.0
C307 C 0.51864 0.27376 0.75327 0.0
C308 C 0.51919 0.3062 0.81391 0.0
C309 C 0.52012 0.27833 0.64594 0.0
C310 C 0.52101 0.34329 0.76565 0.0
C311 C 0.52243 0.34803 0.65903 0.0
loop_
_geom_bond_atom_site_label_1
_geom_bond_atom_site_label_2
_geom_bond_distance
_geom_bond_site_symmetry_2
_ccdc_geom_bond_type
Co0 N5 2.057 . S
Co0 O17 2.021 . S
Co0 O20 2.062 1_655 S
Co0 O24 2.117 1_655 S
Co0 O25 2.020 . S
C1 O21 1.259 . S
C1 O24 1.258 . S
Co2 N11 2.057 . S
Co2 O18 2.117 . S
Co2 O19 2.020 . S
Co2 O21 2.021 . S
Co2 O26 2.062 1_455 S
C3 N5 1.320 . S
C3 N6 1.342 1_655 S
C3 H8 0.929 1_655 S
C4 N5 1.375 . S
C4 C7 1.350 . S
C4 H9 0.930 . S
N5 Co0 2.057 . S
N5 C3 1.320 . S
N5 C4 1.375 . S
N6 C3 1.342 1_455 S
N6 C7 1.369 1_455 S
C7 C4 1.350 . S
C7 N6 1.369 1_655 S
C7 H28 0.931 . S
H8 C3 0.929 1_455 S
H9 C4 0.930 . S
C10 O17 1.259 1_455 S
C10 O18 1.258 . S
N11 Co2 2.057 . S
N11 C12 1.316 . S
N11 C13 1.375 . S
C12 N11 1.316 . S
C12 N14 1.347 . S
C12 H23 0.931 . S
C13 N11 1.375 . S
C13 C15 1.350 . S
C13 H22 0.930 . S
N14 C12 1.347 . S
N14 C15 1.373 . S
C15 C13 1.350 . S
C15 N14 1.373 . S
C15 H29 0.931 . S
C16 O19 1.256 . S
C16 O20 1.255 . S
O17 Co0 2.021 . S
O17 C10 1.259 1_655 S
O18 Co2 2.117 . S
O18 C10 1.258 . S
O19 Co2 2.020 . S
O19 C16 1.256 . S
O20 Co0 2.062 1_455 S
O20 C16 1.255 . S
O21 C1 1.259 . S
O21 Co2 2.021 . S
H22 C13 0.930 . S
H23 C12 0.931 . S
O24 Co0 2.117 1_455 S
O24 C1 1.258 . S
O25 Co0 2.020 . S
O25 C27 1.256 . S
O26 Co2 2.062 1_655 S
O26 C27 1.255 . S
C27 O25 1.256 . S
C27 O26 1.255 . S
H28 C7 0.931 . S
H29 C15 0.931 . S
Co30 N35 2.057 . S
Co30 O47 2.021 . S
Co30 O50 2.062 1_655 S
Co30 O54 2.117 1_655 S
Co30 O55 2.020 . S
C31 O51 1.259 . S
C31 O54 1.258 . S
Co32 N41 2.057 . S
Co32 O48 2.117 . S
Co32 O49 2.020 . S
Co32 O51 2.021 . S
Co32 O56 2.062 1_455 S
C33 N35 1.316 . S
C33 N36 1.347 . S
C33 H38 0.931 . S
C34 N35 1.375 . S
C34 C37 1.350 . S
C34 H39 0.930 . S
N35 Co30 2.057 . S
N35 C33 1.316 . S
N35 C34 1.375 . S
N36 C33 1.347 . S
N36 C37 1.373 . S
C37 C34 1.350 . S
C37 N36 1.373 . S
C37 H58 0.931 . S
H38 C33 0.931 . S
H39 C34 0.930 . S
C40 O47 1.259 1_455 S
C40 O48 1.258 . S
N41 Co32 2.057 . S
N41 C42 1.316 . S
N41 C43 1.375 . S
C42 N41 1.316 . S
C42 N44 1.347 . S
C42 H53 0.931 . S
C43 N41 1.375 . S
C43 C45 1.350 . S
C43 H52 0.930 . S
N44 C42 1.347 . S
N44 C45 1.373 . S
C45 C43 1.350 . S
C45 N44 1.373 . S
C45 H59 0.931 . S
C46 O49 1.256 . S
C46 O50 1.255 . S
O47 Co30 2.021 . S
O47 C40 1.259 1_655 S
O48 Co32 2.117 . S
O48 C40 1.258 . S
O49 Co32 2.020 . S
O49 C46 1.256 . S
O50 Co30 2.062 1_455 S
O50 C46 1.255 . S
O51 C31 1.259 . S
O51 Co32 2.021 . S
H52 C43 0.930 . S
H53 C42 0.931 . S
O54 Co30 2.117 1_455 S
O54 C31 1.258 . S
O55 Co30 2.020 . S
O55 C57 1.256 . S
O56 Co32 2.062 1_655 S
O56 C57 1.255 . S
C57 O55 1.256 . S
C57 O56 1.255 . S
H58 C37 0.931 . S
H59 C45 0.931 . S
Co60 N65 2.057 . S
Co60 O77 2.021 . S
Co60 O80 2.062 . S
Co60 O84 2.117 1_556 S
Co60 O85 2.020 . S
C61 O81 1.259 . S
C61 O84 1.258 . S
Co62 N71 2.057 . S
Co62 O78 2.117 . S
Co62 O79 2.020 . S
Co62 O81 2.021 1_556 S
Co62 O86 2.062 . S
C63 N65 1.316 . S
C63 N66 1.347 . S
C63 H68 0.931 . S
C64 N65 1.375 1_554 S
C64 C67 1.350 . S
C64 H69 0.930 . S
N65 Co60 2.057 . S
N65 C63 1.316 . S
N65 C64 1.375 1_556 S
N66 C63 1.347 . S
N66 C67 1.373 1_556 S
C67 C64 1.350 . S
C67 N66 1.373 1_554 S
C67 H88 0.931 . S
H68 C63 0.931 . S
H69 C64 0.930 . S
C70 O77 1.259 . S
C70 O78 1.258 . S
N71 Co62 2.057 . S
N71 C72 1.316 . S
N71 C73 1.375 . S
C72 N71 1.316 . S
C72 N74 1.347 . S
C72 H83 0.931 . S
C73 N71 1.375 . S
C73 C75 1.350 . S
C73 H82 0.930 . S
N74 C72 1.347 . S
N74 C75 1.373 . S
C75 C73 1.350 . S
C75 N74 1.373 . S
C75 H89 0.931 . S
C76 O79 1.256 . S
C76 O80 1.255 . S
O77 Co60 2.021 . S
O77 C70 1.259 . S
O78 Co62 2.117 . S
O78 C70 1.258 . S
O79 Co62 2.020 . S
O79 C76 1.256 . S
O80 Co60 2.062 . S
O80 C76 1.255 . S
O81 C61 1.259 . S
O81 Co62 2.021 1_554 S
H82 C73 0.930 . S
H83 C72 0.931 . S
O84 Co60 2.117 1_554 S
O84 C61 1.258 . S
O85 Co60 2.020 . S
O85 C87 1.256 . S
O86 Co62 2.062 . S
O86 C87 1.255 . S
C87 O85 1.256 . S
C87 O86 1.255 . S
H88 C67 0.931 . S
H89 C75 0.931 . S
Co90 N95 2.057 . S
Co90 O107 2.021 1_554 S
Co90 O110 2.062 . S
Co90 O114 2.117 . S
Co90 O115 2.020 . S
C91 O111 1.259 . S
C91 O114 1.258 . S
Co92 N101 2.057 . S
Co92 O108 2.117 1_554 S
Co92 O109 2.020 . S
Co92 O111 2.021 . S
Co92 O116 2.062 . S
C93 N95 1.316 . S
C93 N96 1.347 . S
C93 H98 0.931 . S
C94 N95 1.375 . S
C94 C97 1.350 . S
C94 H99 0.930 . S
N95 Co90 2.057 . S
N95 C93 1.316 . S
N95 C94 1.375 . S
N96 C93 1.347 . S
N96 C97 1.373 . S
C97 C94 1.350 . S
C97 N96 1.373 . S
C97 H118 0.931 . S
H98 C93 0.931 . S
H99 C94 0.930 . S
C100 O107 1.259 . S
C100 O108 1.258 . S
N101 Co92 2.057 . S
N101 C102 1.316 . S
N101 C103 1.375 1_554 S
C102 N101 1.316 . S
C102 N104 1.347 . S
C102 H113 0.931 . S
C103 N101 1.375 1_556 S
C103 C105 1.350 . S
C103 H112 0.930 . S
N104 C102 1.347 . S
N104 C105 1.373 1_554 S
C105 C103 1.350 . S
C105 N104 1.373 1_556 S
C105 H119 0.931 . S
C106 O109 1.256 . S
C106 O110 1.255 . S
O107 Co90 2.021 1_556 S
O107 C100 1.259 . S
O108 Co92 2.117 1_556 S
O108 C100 1.258 . S
O109 Co92 2.020 . S
O109 C106 1.256 . S
O110 Co90 2.062 . S
O110 C106 1.255 . S
O111 C91 1.259 . S
O111 Co92 2.021 . S
H112 C103 0.930 . S
H113 C102 0.931 . S
O114 Co90 2.117 . S
O114 C91 1.258 . S
O115 Co90 2.020 . S
O115 C117 1.256 . S
O116 Co92 2.062 . S
O116 C117 1.255 . S
C117 O115 1.256 . S
C117 O116 1.255 . S
H118 C97 0.931 . S
H119 C105 0.931 . S
H120 C126 0.930 1_655 S
H121 C129 0.930 . S
H122 C130 0.930 . S
H123 C131 0.930 . S
H124 C134 0.930 . S
H125 C135 0.930 . S
C126 H120 0.930 1_455 S
C126 C127 1.355 . S
C126 C128 1.418 . S
C127 C126 1.355 . S
C127 C129 1.419 . S
C128 C126 1.418 . S
C128 C133 1.429 . S
C128 C135 1.403 1_455 S
C129 H121 0.930 . S
C129 C127 1.419 . S
C129 C130 1.362 . S
C130 H122 0.930 . S
C130 C129 1.362 . S
C130 C133 1.409 . S
C131 H123 0.930 . S
C131 C132 1.355 . S
C131 C133 1.415 . S
C132 C131 1.355 . S
C132 C134 1.419 1_455 S
C133 C128 1.429 . S
C133 C130 1.409 . S
C133 C131 1.415 . S
C134 H124 0.930 . S
C134 C132 1.419 1_655 S
C134 C135 1.362 . S
C135 H125 0.930 . S
C135 C128 1.403 1_655 S
C135 C134 1.362 . S
H136 C142 0.930 . S
H137 C145 0.930 . S
H138 C146 0.930 . S
H139 C147 0.930 . S
H140 C150 0.930 . S
H141 C151 0.930 . S
C142 H136 0.930 . S
C142 C143 1.355 . S
C142 C144 1.415 . S
C143 C142 1.355 . S
C143 C145 1.419 . S
C144 C142 1.415 . S
C144 C149 1.425 . S
C144 C151 1.409 . S
C145 H137 0.930 . S
C145 C143 1.419 . S
C145 C146 1.362 . S
C146 H138 0.930 . S
C146 C145 1.362 . S
C146 C149 1.409 . S
C147 H139 0.930 . S
C147 C148 1.355 . S
C147 C149 1.415 . S
C148 C147 1.355 . S
C148 C150 1.419 . S
C149 C144 1.425 . S
C149 C146 1.409 . S
C149 C147 1.415 . S
C150 H140 0.930 . S
C150 C148 1.419 . S
C150 C151 1.362 . S
C151 H141 0.930 . S
C151 C144 1.409 . S
C151 C150 1.362 . S
H152 C158 0.930 . S
H153 C161 0.930 . S
H154 C162 0.930 . S
H155 C163 0.930 . S
H156 C166 0.930 . S
H157 C167 0.930 . S
C158 H152 0.930 . S
C158 C159 1.355 1_556 S
C158 C160 1.415 . S
C159 C158 1.355 1_554 S
C159 C161 1.419 . S
C160 C158 1.415 . S
C160 C165 1.425 1_556 S
C160 C167 1.409 . S
C161 H153 0.930 . S
C161 C159 1.419 . S
C161 C162 1.362 . S
C162 H154 0.930 . S
C162 C161 1.362 . S
C162 C165 1.409 . S
C163 H155 0.930 . S
C163 C164 1.355 1_554 S
C163 C165 1.415 . S
C164 C163 1.355 1_556 S
C164 C166 1.419 . S
C165 C160 1.425 1_554 S
C165 C162 1.409 . S
C165 C163 1.415 . S
C166 H156 0.930 . S
C166 C164 1.419 . S
C166 C167 1.362 . S
C167 H157 0.930 . S
C167 C160 1.409 . S
C167 C166 1.362 . S
H168 C174 0.930 . S
H169 C177 0.930 . S
H170 C178 0.930 . S
H171 C179 0.930 . S
H172 C182 0.930 . S
H173 C183 0.930 . S
C174 H168 0.930 . S
C174 C175 1.355 . S
C174 C176 1.415 . S
C175 C174 1.355 . S
C175 C177 1.419 . S
C176 C174 1.415 . S
C176 C181 1.425 . S
C176 C183 1.409 . S
C177 H169 0.930 . S
C177 C175 1.419 . S
C177 C178 1.362 . S
C178 H170 0.930 . S
C178 C177 1.362 . S
C178 C181 1.409 . S
C179 H171 0.930 . S
C179 C180 1.355 . S
C179 C181 1.415 . S
C180 C179 1.355 . S
C180 C182 1.419 . S
C181 C176 1.425 . S
C181 C178 1.409 . S
C181 C179 1.415 . S
C182 H172 0.930 . S
C182 C180 1.419 . S
C182 C183 1.362 . S
C183 H173 0.930 . S
C183 C176 1.409 . S
C183 C182 1.362 . S
H184 C190 0.930 . S
H185 C193 0.930 . S
H186 C194 0.930 . S
H187 C195 0.930 . S
H188 C198 0.930 . S
H189 C199 0.930 . S
C190 H184 0.930 . S
C190 C191 1.355 . S
C190 C192 1.415 . S
C191 C190 1.355 . S
C191 C193 1.419 . S
C192 C190 1.415 . S
C192 C197 1.425 . S
C192 C199 1.409 . S
C193 H185 0.930 . S
C193 C191 1.419 . S
C193 C194 1.362 . S
C194 H186 0.930 . S
C194 C193 1.362 . S
C194 C197 1.409 . S
C195 H187 0.930 . S
C195 C196 1.355 . S
C195 C197 1.415 . S
C196 C195 1.355 . S
C196 C198 1.419 . S
C197 C192 1.425 . S
C197 C194 1.409 . S
C197 C195 1.415 . S
C198 H188 0.930 . S
C198 C196 1.419 . S
C198 C199 1.362 . S
C199 H189 0.930 . S
C199 C192 1.409 . S
C199 C198 1.362 . S
H200 C206 0.930 . S
H201 C209 0.930 . S
H202 C210 0.930 . S
H203 C211 0.930 . S
H204 C214 0.930 . S
H205 C215 0.930 . S
C206 H200 0.930 . S
C206 C207 1.355 . S
C206 C208 1.415 . S
C207 C206 1.355 . S
C207 C209 1.419 . S
C208 C206 1.415 . S
C208 C213 1.425 . S
C208 C215 1.409 . S
C209 H201 0.930 . S
C209 C207 1.419 . S
C209 C210 1.362 . S
C210 H202 0.930 . S
C210 C209 1.362 . S
C210 C213 1.409 . S
C211 H203 0.930 . S
C211 C212 1.355 . S
C211 C213 1.415 . S
C212 C211 1.355 . S
C212 C214 1.419 . S
C213 C208 1.425 . S
C213 C210 1.409 . S
C213 C211 1.415 . S
C214 H204 0.930 . S
C214 C212 1.419 . S
C214 C215 1.362 . S
C215 H205 0.930 . S
C215 C208 1.409 . S
C215 C214 1.362 . S
H216 C222 0.930 1_554 S
H217 C225 0.930 . S
H218 C226 0.930 1_545 S
H219 C227 0.930 1_556 S
H220 C230 0.930 . S
H221 C231 0.930 1_565 S
C222 H216 0.930 1_556 S
C222 C223 1.355 . S
C222 C224 1.415 1_556 S
C223 C222 1.355 . S
C223 C225 1.419 . S
C224 C222 1.415 1_554 S
C224 C229 1.425 1_564 S
C224 C231 1.409 1_565 S
C225 H217 0.930 . S
C225 C223 1.419 . S
C225 C226 1.362 . S
C226 H218 0.930 1_565 S
C226 C225 1.362 . S
C226 C229 1.409 1_565 S
C227 H219 0.930 1_554 S
C227 C228 1.355 . S
C227 C229 1.415 1_554 S
C228 C227 1.355 . S
C228 C230 1.419 . S
C229 C224 1.425 1_546 S
C229 C226 1.409 1_545 S
C229 C227 1.415 1_556 S
C230 H220 0.930 . S
C230 C228 1.419 . S
C230 C231 1.362 . S
C231 H221 0.930 1_545 S
C231 C224 1.409 1_545 S
C231 C230 1.362 . S
H232 C238 0.930 . S
H233 C241 0.930 . S
H234 C242 0.930 . S
H235 C243 0.930 . S
H236 C246 0.930 . S
H237 C247 0.930 . S
C238 H232 0.930 . S
C238 C239 1.367 . S
C238 C240 1.415 . S
C239 C238 1.367 . S
C239 C241 1.401 1_455 S
C240 C238 1.415 . S
C240 C245 1.425 1_465 S
C240 C247 1.409 1_565 S
C241 H233 0.930 . S
C241 C239 1.401 1_655 S
C241 C242 1.362 . S
C242 H234 0.930 . S
C242 C241 1.362 . S
C242 C245 1.409 1_565 S
C243 H235 0.930 . S
C243 C244 1.355 1_655 S
C243 C245 1.415 . S
C244 C243 1.355 1_455 S
C244 C246 1.419 . S
C245 C240 1.425 1_645 S
C245 C242 1.409 1_545 S
C245 C243 1.415 . S
C246 H236 0.930 . S
C246 C244 1.419 . S
C246 C247 1.362 . S
C247 H237 0.930 . S
C247 C240 1.409 1_545 S
C247 C246 1.362 . S
H248 C254 0.930 . S
H249 C257 0.930 . S
H250 C258 0.930 . S
H251 C259 0.930 . S
H252 C262 0.930 . S
H253 C263 0.930 . S
C254 H248 0.930 . S
C254 C255 1.355 . S
C254 C256 1.415 1_554 S
C255 C254 1.355 . S
C255 C257 1.419 1_455 S
C256 C254 1.415 1_556 S
C256 C261 1.425 1_455 S
C256 C263 1.409 . S
C257 H249 0.930 . S
C257 C255 1.419 1_655 S
C257 C258 1.362 1_554 S
C258 H250 0.930 . S
C258 C257 1.362 1_556 S
C258 C261 1.409 . S
C259 H251 0.930 . S
C259 C260 1.355 1_655 S
C259 C261 1.415 . S
C260 C259 1.355 1_455 S
C260 C262 1.419 . S
C261 C256 1.425 1_655 S
C261 C258 1.409 . S
C261 C259 1.415 . S
C262 H252 0.930 . S
C262 C260 1.419 . S
C262 C263 1.362 . S
C263 H253 0.930 . S
C263 C256 1.409 . S
C263 C262 1.362 . S
H264 C270 0.930 . S
H265 C273 0.930 . S
H266 C274 0.930 . S
H267 C275 0.930 . S
H268 C278 0.930 . S
H269 C279 0.930 . S
C270 H264 0.930 . S
C270 C271 1.355 . S
C270 C272 1.415 1_556 S
C271 C270 1.355 . S
C271 C273 1.419 1_455 S
C272 C270 1.415 1_554 S
C272 C277 1.425 1_455 S
C272 C279 1.409 . S
C273 H265 0.930 . S
C273 C271 1.419 1_655 S
C273 C274 1.362 1_556 S
C274 H266 0.930 . S
C274 C273 1.362 1_554 S
C274 C277 1.409 . S
C275 H267 0.930 . S
C275 C276 1.355 1_655 S
C275 C277 1.415 . S
C276 C275 1.355 1_455 S
C276 C278 1.419 . S
C277 C272 1.425 1_655 S
C277 C274 1.409 . S
C277 C275 1.415 . S
C278 H268 0.930 . S
C278 C276 1.419 . S
C278 C279 1.362 . S
C279 H269 0.930 . S
C279 C272 1.409 . S
C279 C278 1.362 . S
H280 C286 0.930 . S
H281 C289 0.930 . S
H282 C290 0.930 . S
H283 C291 0.930 . S
H284 C294 0.930 . S
H285 C295 0.930 . S
C286 H280 0.930 . S
C286 C287 1.355 . S
C286 C288 1.415 . S
C287 C286 1.355 . S
C287 C289 1.419 . S
C288 C286 1.415 . S
C288 C293 1.425 . S
C288 C295 1.409 . S
C289 H281 0.930 . S
C289 C287 1.419 . S
C289 C290 1.362 . S
C290 H282 0.930 . S
C290 C289 1.362 . S
C290 C293 1.409 . S
C291 H283 0.930 . S
C291 C292 1.355 . S
C291 C293 1.415 . S
C292 C291 1.355 . S
C292 C294 1.419 . S
C293 C288 1.425 . S
C293 C290 1.409 . S
C293 C291 1.415 . S
C294 H284 0.930 . S
C294 C292 1.419 . S
C294 C295 1.362 . S
C295 H285 0.930 . S
C295 C288 1.409 . S
C295 C294 1.362 . S
H296 C302 0.930 . S
H297 C305 0.930 . S
H298 C306 0.930 . S
H299 C307 0.930 . S
H300 C310 0.930 . S
H301 C311 0.930 . S
C302 H296 0.930 . S
C302 C303 1.355 . S
C302 C304 1.415 . S
C303 C302 1.355 . S
C303 C305 1.419 . S
C304 C302 1.415 . S
C304 C309 1.425 . S
C304 C311 1.409 . S
C305 H297 0.930 . S
C305 C303 1.419 . S
C305 C306 1.362 . S
C306 H298 0.930 . S
C306 C305 1.362 . S
C306 C309 1.409 . S
C307 H299 0.930 . S
C307 C308 1.355 . S
C307 C309 1.415 . S
C308 C307 1.355 . S
C308 C310 1.419 . S
C309 C304 1.425 . S
C309 C306 1.409 . S
C309 C307 1.415 . S
C310 H300 0.930 . S
C310 C308 1.419 . S
C310 C311 1.362 . S
C311 H301 0.930 . S
C311 C304 1.409 . S
C311 C310 1.362 . S
C127 N14 1.815 . S
C132 N36 1.815 1_455 S
C143 C76 1.799 . S
C148 C57 1.799 . S
C159 N104 1.622 . S
C164 N66 1.622 . S
C175 C27 1.720 . S
C180 C106 1.720 . S
C191 C117 1.780 . S
C196 C16 1.780 . S
C207 C87 1.671 . S
C212 C46 1.671 . S
C223 N74 1.835 . S
C228 N96 1.835 . S
C239 N44 1.639 . S
C244 N6 1.640 . S
C255 C10 0.960 . S
C260 C1 0.960 . S
C271 C31 0.989 . S
C276 C40 0.989 . S
C287 C61 0.966 . S
C292 C70 0.966 . S
C303 C91 0.975 . S
C308 C100 0.975 . S
