# Generated by pormake.
# Topology ske, (6)-cn, num edge types: 1
# Building blocks:
#     Node 0, Type 0, BuildingBlock: PAMTUU_clean_sbu_0, # of connection points: 6
#     Node 1, Type 0, BuildingBlock: PAMTUU_clean_sbu_0, # of connection points: 6
#     Node 2, Type 0, BuildingBlock: PAMTUU_clean_sbu_0, # of connection points: 6
#     Node 3, Type 0, BuildingBlock: PAMTUU_clean_sbu_0, # of connection points: 6
#     Node 4, Type 0, BuildingBlock: PAMTUU_clean_sbu_0, # of connection points: 6
#     Node 5, Type 0, BuildingBlock: PAMTUU_clean_sbu_0, # of connection points: 6
#     Node 6, Type 0, BuildingBlock: PAMTUU_clean_sbu_0, # of connection points: 6
#     Node 7, Type 0, BuildingBlock: PAMTUU_clean_sbu_0, # of connection points: 6
#     Edge 8, Type (0, 0), BuildingBlock: XIVTED_clean_linker_0, # of connection points: 2
#     Edge 9, Type (0, 0), BuildingBlock: XIVTED_clean_linker_0, # of connection points: 2
#     Edge 10, Type (0, 0), BuildingBlock: XIVTED_clean_linker_0, # of connection points: 2
#     Edge 11, Type (0, 0), BuildingBlock: XIVTED_clean_linker_0, # of connection points: 2
#     Edge 12, Type (0, 0), BuildingBlock: XIVTED_clean_linker_0, # of connection points: 2
#     Edge 13, Type (0, 0), BuildingBlock: XIVTED_clean_linker_0, # of connection points: 2
#     Edge 14, Type (0, 0), BuildingBlock: XIVTED_clean_linker_0, # of connection points: 2
#     Edge 15, Type (0, 0), BuildingBlock: XIVTED_clean_linker_0, # of connection points: 2
#     Edge 16, Type (0, 0), BuildingBlock: XIVTED_clean_linker_0, # of connection points: 2
#     Edge 17, Type (0, 0), BuildingBlock: XIVTED_clean_linker_0, # of connection points: 2
#     Edge 18, Type (0, 0), BuildingBlock: XIVTED_clean_linker_0, # of connection points: 2
#     Edge 19, Type (0, 0), BuildingBlock: XIVTED_clean_linker_0, # of connection points: 2
#     Edge 20, Type (0, 0), BuildingBlock: XIVTED_clean_linker_0, # of connection points: 2
#     Edge 21, Type (0, 0), BuildingBlock: XIVTED_clean_linker_0, # of connection points: 2
#     Edge 22, Type (0, 0), BuildingBlock: XIVTED_clean_linker_0, # of connection points: 2
#     Edge 23, Type (0, 0), BuildingBlock: XIVTED_clean_linker_0, # of connection points: 2
#     Edge 24, Type (0, 0), BuildingBlock: XIVTED_clean_linker_0, # of connection points: 2
#     Edge 25, Type (0, 0), BuildingBlock: XIVTED_clean_linker_0, # of connection points: 2
#     Edge 26, Type (0, 0), BuildingBlock: XIVTED_clean_linker_0, # of connection points: 2
#     Edge 27, Type (0, 0), BuildingBlock: XIVTED_clean_linker_0, # of connection points: 2
#     Edge 28, Type (0, 0), BuildingBlock: XIVTED_clean_linker_0, # of connection points: 2
#     Edge 29, Type (0, 0), BuildingBlock: XIVTED_clean_linker_0, # of connection points: 2
#     Edge 30, Type (0, 0), BuildingBlock: XIVTED_clean_linker_0, # of connection points: 2
#     Edge 31, Type (0, 0), BuildingBlock: XIVTED_clean_linker_0, # of connection points: 2
# Relax obj value: 0.139
# Max RMSD: 0.172
# Mean RMSD: 0.166
data_MOF--net-ske--node1-PAMTUU_clean_sbu_0--edge1-XIVTED_clean_linker_0
_symmetry_space_group_name_H-M    P1
_symmetry_Int_Tables_number       1
_symmetry_cell_setting            triclinic
loop_
_symmetry_equiv_pos_as_xyz
'x, y, z'
_cell_length_a     104.48325
_cell_length_b     30.289062
_cell_length_c     15.41986
_cell_angle_alpha  90.094791
_cell_angle_beta   89.887869
_cell_angle_gamma 98.77339
loop_
_atom_site_label
_atom_site_type_symbol
_atom_site_fract_x
_atom_site_fract_y
_atom_site_fract_z
_atom_type_partial_charge
Tb0 Tb 0.15502 0.25933 0.55878 0.0
Tb1 Tb 0.12262 0.24695 0.56469 0.0
C2 C 0.13985 0.33893 0.55624 0.0
C3 C 0.19141 0.26317 0.60082 0.0
C4 C 0.21621 0.25398 0.6664 0.0
C5 C 0.21195 0.29584 0.66572 0.0
C6 C 0.19974 0.30037 0.63309 0.0
C7 C 0.19546 0.22098 0.60421 0.0
C8 C 0.2077 0.21642 0.63691 0.0
C9 C 0.17953 0.27024 0.55367 0.0
O10 O 0.15 0.2686 0.69388 0.0
O11 O 0.1287 0.23427 0.69548 0.0
O12 O 0.12816 0.18404 0.52254 0.0
O13 O 0.14769 0.19069 0.59313 0.0
O14 O 0.10605 0.27741 0.55108 0.0
O15 O 0.10447 0.20895 0.59489 0.0
O16 O 0.12743 0.2586 0.42851 0.0
O17 O 0.14875 0.24596 0.42591 0.0
O18 O 0.14877 0.32067 0.51609 0.0
O19 O 0.13088 0.31441 0.60196 0.0
C20 C 0.13943 0.25125 0.73555 0.0
O21 O 0.17209 0.23551 0.52171 0.0
O22 O 0.17283 0.29964 0.58493 0.0
C23 C 0.13783 0.1662 0.55485 0.0
C24 C 0.08554 0.23153 0.53064 0.0
C25 C 0.05948 0.22415 0.47466 0.0
C26 C 0.06306 0.19569 0.53934 0.0
C27 C 0.07593 0.19947 0.56712 0.0
C28 C 0.08215 0.25821 0.46236 0.0
C29 C 0.06926 0.25451 0.43467 0.0
C30 C 0.09824 0.24172 0.57484 0.0
C31 C 0.13799 0.25217 0.38657 0.0
H32 H 0.21814 0.32537 0.68919 0.0
H33 H 0.19697 0.3334 0.63047 0.0
H34 H 0.18937 0.19167 0.57887 0.0
H35 H 0.21068 0.18373 0.63567 0.0
H36 H 0.0558 0.17224 0.57228 0.0
H37 H 0.07822 0.17893 0.62066 0.0
H38 H 0.08931 0.28339 0.43295 0.0
H39 H 0.06689 0.27645 0.38372 0.0
Tb40 Tb 0.86916 0.2354 0.51323 0.0
Tb41 Tb 0.90167 0.25031 0.51863 0.0
C42 C 0.88516 0.15685 0.51335 0.0
C43 C 0.83272 0.22194 0.56187 0.0
C44 C 0.80786 0.21677 0.63937 0.0
C45 C 0.81109 0.18126 0.58883 0.0
C46 C 0.82334 0.18394 0.55028 0.0
C47 C 0.82971 0.25662 0.61538 0.0
C48 C 0.81746 0.25407 0.65353 0.0
C49 C 0.84466 0.22779 0.50806 0.0
O50 O 0.8741 0.25158 0.64762 0.0
O51 O 0.8949 0.23461 0.64997 0.0
O52 O 0.89508 0.31179 0.55573 0.0
O53 O 0.87712 0.30189 0.47038 0.0
O54 O 0.91844 0.22965 0.56826 0.0
O55 O 0.91971 0.28798 0.48608 0.0
O56 O 0.89663 0.25708 0.3826 0.0
O57 O 0.87514 0.2236 0.38137 0.0
O58 O 0.8755 0.17304 0.54992 0.0
O59 O 0.89492 0.1828 0.47754 0.0
C60 C 0.88442 0.24337 0.68972 0.0
O61 O 0.85244 0.26555 0.51493 0.0
O62 O 0.85102 0.19416 0.49914 0.0
C63 C 0.88607 0.32808 0.51292 0.0
C64 C 0.9384 0.25029 0.49205 0.0
C65 C 0.96419 0.23935 0.44964 0.0
C66 C 0.95844 0.27388 0.41209 0.0
C67 C 0.94573 0.27941 0.43337 0.0
C68 C 0.94392 0.21449 0.52618 0.0
C69 C 0.95662 0.20903 0.50513 0.0
C70 C 0.92614 0.26139 0.52904 0.0
C71 C 0.88595 0.24011 0.34119 0.0
H72 H 0.80406 0.15167 0.57757 0.0
H73 H 0.82532 0.15689 0.50875 0.0
H74 H 0.83663 0.28668 0.62507 0.0
H75 H 0.81535 0.28238 0.69093 0.0
H76 H 0.96389 0.29749 0.36803 0.0
H77 H 0.94186 0.30767 0.40665 0.0
H78 H 0.93867 0.19186 0.5728 0.0
H79 H 0.96071 0.1824 0.53636 0.0
Tb80 Tb 0.12365 0.74789 0.46654 0.0
Tb81 Tb 0.15607 0.75893 0.47159 0.0
C82 C 0.13857 0.66652 0.47441 0.0
C83 C 0.08656 0.73291 0.50111 0.0
C84 C 0.06048 0.7252 0.55765 0.0
C85 C 0.06408 0.69708 0.49215 0.0
C86 C 0.07695 0.70102 0.4641 0.0
C87 C 0.08315 0.75927 0.57009 0.0
C88 C 0.07025 0.75541 0.59807 0.0
C89 C 0.09928 0.74324 0.45693 0.0
O90 O 0.12847 0.75947 0.60259 0.0
O91 O 0.1497 0.74597 0.60452 0.0
O92 O 0.15014 0.82095 0.5142 0.0
O93 O 0.1321 0.81522 0.42997 0.0
O94 O 0.17284 0.73394 0.51001 0.0
O95 O 0.17415 0.79753 0.44412 0.0
O96 O 0.15113 0.76869 0.33671 0.0
O97 O 0.12971 0.73553 0.33529 0.0
O98 O 0.12902 0.68467 0.5079 0.0
O99 O 0.14842 0.6908 0.43565 0.0
C100 C 0.139 0.75271 0.64418 0.0
O101 O 0.10715 0.77863 0.48171 0.0
O102 O 0.10546 0.71048 0.43555 0.0
C103 C 0.14119 0.83947 0.4752 0.0
C104 C 0.19246 0.75928 0.43253 0.0
C105 C 0.21702 0.74414 0.37145 0.0
C106 C 0.21472 0.78754 0.39174 0.0
C107 C 0.2026 0.79495 0.42195 0.0
C108 C 0.19453 0.716 0.40918 0.0
C109 C 0.20668 0.70855 0.37857 0.0
C110 C 0.18054 0.76788 0.47749 0.0
C111 C 0.14049 0.75204 0.29515 0.0
H112 H 0.05683 0.67376 0.45885 0.0
H113 H 0.07926 0.68073 0.41001 0.0
H114 H 0.0903 0.78432 0.59992 0.0
H115 H 0.06787 0.77709 0.64965 0.0
H116 H 0.22236 0.81583 0.38554 0.0
H117 H 0.20128 0.82858 0.43987 0.0
H118 H 0.18691 0.68775 0.41711 0.0
H119 H 0.20813 0.67469 0.36385 0.0
Tb120 Tb 0.90264 0.75109 0.51974 0.0
Tb121 Tb 0.87013 0.73566 0.52294 0.0
C122 C 0.88688 0.82855 0.52567 0.0
C123 C 0.93937 0.75098 0.5469 0.0
C124 C 0.96515 0.73975 0.58791 0.0
C125 C 0.95941 0.77405 0.62675 0.0
C126 C 0.9467 0.77973 0.60615 0.0
C127 C 0.94487 0.71535 0.51154 0.0
C128 C 0.95757 0.70975 0.53189 0.0
C129 C 0.92713 0.76244 0.51054 0.0
O130 O 0.8973 0.75733 0.65553 0.0
O131 O 0.87591 0.72306 0.65464 0.0
O132 O 0.87662 0.67383 0.48446 0.0
O133 O 0.89589 0.68315 0.55824 0.0
O134 O 0.85334 0.76535 0.52149 0.0
O135 O 0.85203 0.69387 0.53577 0.0
O136 O 0.87525 0.75239 0.38896 0.0
O137 O 0.89614 0.7362 0.38768 0.0
O138 O 0.89605 0.81267 0.48351 0.0
O139 O 0.87791 0.80202 0.56747 0.0
C140 C 0.88657 0.73985 0.6959 0.0
O141 O 0.91951 0.73116 0.46957 0.0
O142 O 0.92062 0.78841 0.5548 0.0
C143 C 0.8862 0.65742 0.52122 0.0
C144 C 0.83373 0.72161 0.47451 0.0
C145 C 0.8091 0.72071 0.39769 0.0
C146 C 0.811 0.68914 0.46133 0.0
C147 C 0.82317 0.68976 0.49957 0.0
C148 C 0.83204 0.75146 0.40722 0.0
C149 C 0.81986 0.75104 0.36938 0.0
C150 C 0.84563 0.7274 0.52796 0.0
C151 C 0.88571 0.74476 0.34742 0.0
H152 H 0.96486 0.79739 0.67127 0.0
H153 H 0.94283 0.80784 0.63381 0.0
H154 H 0.93961 0.693 0.46447 0.0
H155 H 0.96165 0.68331 0.49969 0.0
H156 H 0.80292 0.66552 0.48502 0.0
H157 H 0.82419 0.66668 0.55184 0.0
H158 H 0.83999 0.7764 0.38628 0.0
H159 H 0.81877 0.77532 0.31949 0.0
Tb160 Tb 0.65929 0.76066 0.07256 0.0
Tb161 Tb 0.62702 0.74978 0.0797 0.0
C162 C 0.64444 0.84143 0.06584 0.0
C163 C 0.69552 0.76305 0.11468 0.0
C164 C 0.71925 0.75021 0.19187 0.0
C165 C 0.71814 0.78987 0.14704 0.0
C166 C 0.70643 0.79615 0.10911 0.0
C167 C 0.69644 0.72355 0.16038 0.0
C168 C 0.70821 0.71719 0.19863 0.0
C169 C 0.68377 0.76997 0.06672 0.0
O170 O 0.65448 0.77153 0.20741 0.0
O171 O 0.63334 0.73632 0.20943 0.0
O172 O 0.632 0.68614 0.03621 0.0
O173 O 0.65167 0.69172 0.10474 0.0
O174 O 0.6105 0.78036 0.06292 0.0
O175 O 0.60899 0.71416 0.1187 0.0
O176 O 0.63151 0.75897 0.94242 0.0
O177 O 0.65304 0.74843 0.93947 0.0
O178 O 0.65339 0.8224 0.02761 0.0
O179 O 0.63552 0.81768 0.11327 0.0
C180 C 0.64398 0.75391 0.24944 0.0
O181 O 0.67615 0.73485 0.03802 0.0
O182 O 0.6773 0.80039 0.09614 0.0
C183 C 0.64171 0.66772 0.06636 0.0
C184 C 0.58937 0.7361 0.06242 0.0
C185 C 0.56226 0.72811 0.03691 0.0
C186 C 0.56759 0.69583 0.08477 0.0
C187 C 0.58097 0.69988 0.09761 0.0
C188 C 0.58413 0.76678 1.00986 0.0
C189 C 0.57074 0.76274 0.99702 0.0
C190 C 0.60279 0.74656 0.09574 0.0
C191 C 0.64217 0.75352 0.90039 0.0
H192 H 0.72643 0.81572 0.13887 0.0
H193 H 0.70598 0.82668 0.07343 0.0
H194 H 0.68815 0.69744 0.16551 0.0
H195 H 0.70867 0.68643 0.2334 0.0
H196 H 0.56137 0.66826 0.11512 0.0
H197 H 0.58467 0.67599 0.13931 0.0
H198 H 0.59028 0.79549 0.98277 0.0
H199 H 0.567 0.7884 0.96026 0.0
Tb200 Tb 0.36837 0.71968 0.05074 0.0
Tb201 Tb 0.40085 0.73356 0.04908 0.0
C202 C 0.38362 0.6382 0.05941 0.0
C203 C 0.33206 0.70988 0.1055 0.0
C204 C 0.30725 0.70701 0.18277 0.0
C205 C 0.31058 0.6696 0.13865 0.0
C206 C 0.32281 0.67112 0.10017 0.0
C207 C 0.32896 0.74654 0.153 0.0
C208 C 0.31674 0.74511 0.19108 0.0
C209 C 0.34387 0.71433 0.05037 0.0
O210 O 0.37453 0.73637 0.18309 0.0
O211 O 0.39469 0.71435 0.18065 0.0
O212 O 0.39576 0.79981 0.0655 0.0
O213 O 0.37546 0.78662 1.00496 0.0
O214 O 0.41763 0.71956 0.98629 0.0
O215 O 0.41897 0.75855 0.10634 0.0
O216 O 0.39474 0.7464 0.91755 0.0
O217 O 0.37419 0.70591 0.91884 0.0
O218 O 0.37334 0.65481 0.08531 0.0
O219 O 0.39412 0.66317 0.03044 0.0
C220 C 0.3847 0.72541 0.22315 0.0
O221 O 0.35195 0.75141 0.05602 0.0
O222 O 0.34989 0.68 0.04052 0.0
C223 C 0.38559 0.81406 0.03227 0.0
C224 C 0.43943 0.74415 0.04068 0.0
C225 C 0.46659 0.74521 0.03568 0.0
C226 C 0.4607 0.76301 0.10724 0.0
C227 C 0.44727 0.76256 0.10963 0.0
C228 C 0.44533 0.72706 0.9686 0.0
C229 C 0.45873 0.72765 0.96605 0.0
C230 C 0.42515 0.74059 0.0452 0.0
C231 C 0.38448 0.72559 0.87681 0.0
H232 H 0.30363 0.63938 0.13207 0.0
H233 H 0.32483 0.6425 0.06326 0.0
H234 H 0.33576 0.77725 0.15761 0.0
H235 H 0.31455 0.77484 0.2234 0.0
H236 H 0.46647 0.7773 0.16152 0.0
H237 H 0.443 0.77596 0.16607 0.0
H238 H 0.43956 0.71251 0.91451 0.0
H239 H 0.46289 0.71316 0.91041 0.0
Tb240 Tb 0.62494 0.24857 0.95023 0.0
Tb241 Tb 0.65726 0.25905 0.95568 0.0
C242 C 0.63976 0.16638 0.96123 0.0
C243 C 0.58774 0.24207 0.98033 0.0
C244 C 0.56135 0.2427 0.02311 0.0
C245 C 0.56536 0.20459 0.98595 0.0
C246 C 0.57839 0.20441 0.96431 0.0
C247 C 0.58385 0.27909 0.02254 0.0
C248 C 0.57082 0.27938 0.04361 0.0
C249 C 0.60063 0.24594 0.93778 0.0
O250 O 0.62962 0.26026 0.08654 0.0
O251 O 0.65086 0.24656 0.08879 0.0
O252 O 0.65159 0.32112 1.00076 0.0
O253 O 0.6336 0.31637 0.91661 0.0
O254 O 0.67412 0.23364 0.99123 0.0
O255 O 0.67529 0.29812 0.92903 0.0
O256 O 0.65219 0.26938 0.82117 0.0
O257 O 0.63102 0.2341 0.82008 0.0
O258 O 0.63009 0.18487 0.9923 0.0
O259 O 0.64967 0.19035 0.92238 0.0
C260 C 0.64014 0.25337 0.12832 0.0
O261 O 0.60887 0.28205 0.9517 0.0
O262 O 0.60638 0.2108 0.92988 0.0
C263 C 0.64264 0.34017 0.96307 0.0
C264 C 0.69358 0.26038 0.91289 0.0
C265 C 0.71795 0.24677 0.846 0.0
C266 C 0.71572 0.2896 0.87111 0.0
C267 C 0.70371 0.29626 0.90416 0.0
C268 C 0.69556 0.21771 0.88486 0.0
C269 C 0.70763 0.21102 0.85132 0.0
C270 C 0.68175 0.26809 0.95996 0.0
C271 C 0.64166 0.25156 0.77959 0.0
H272 H 0.55831 0.17589 0.96871 0.0
H273 H 0.58102 0.17571 0.93051 0.0
H274 H 0.59073 0.3089 0.0353 0.0
H275 H 0.56809 0.30901 0.07335 0.0
H276 H 0.72336 0.31801 0.86644 0.0
H277 H 0.70245 0.32943 0.92557 0.0
H278 H 0.68795 0.18933 0.89118 0.0
H279 H 0.70903 0.17759 0.83282 0.0
Tb280 Tb 0.40138 0.23215 0.94384 0.0
Tb281 Tb 0.36892 0.22108 0.95016 0.0
C282 C 0.38634 0.31348 0.96095 0.0
C283 C 0.43859 0.2392 0.97336 0.0
C284 C 0.46514 0.24559 0.01924 0.0
C285 C 0.45937 0.28433 1.00747 0.0
C286 C 0.44627 0.28117 0.98427 0.0
C287 C 0.4442 0.20064 0.98909 0.0
C288 C 0.45725 0.20375 1.01168 0.0
C289 C 0.42568 0.23452 0.93121 0.0
O290 O 0.39664 0.22009 0.08015 0.0
O291 O 0.37525 0.23231 0.08354 0.0
O292 O 0.37477 0.15909 0.99202 0.0
O293 O 0.39276 0.16501 0.90696 0.0
O294 O 0.35193 0.2456 0.9868 0.0
O295 O 0.35103 0.18157 0.92303 0.0
O296 O 0.37408 0.21232 0.81511 0.0
O297 O 0.39529 0.24743 0.81435 0.0
O298 O 0.39616 0.29503 0.98919 0.0
O299 O 0.37645 0.29011 0.92097 0.0
C300 C 0.38605 0.22613 0.12243 0.0
O301 O 0.41748 0.19868 0.94818 0.0
O302 O 0.4199 0.26943 0.92066 0.0
C303 C 0.38371 0.14074 0.95248 0.0
C304 C 0.33263 0.21885 0.90649 0.0
C305 C 0.30794 0.22878 0.83994 0.0
C306 C 0.31222 0.18695 0.83896 0.0
C307 C 0.32438 0.18205 0.87206 0.0
C308 C 0.32858 0.26108 0.90466 0.0
C309 C 0.3164 0.266 0.87143 0.0
C310 C 0.34441 0.21121 0.95422 0.0
C311 C 0.38462 0.23032 0.77377 0.0
H312 H 0.46504 0.31719 1.01403 0.0
H313 H 0.44232 0.31157 0.97159 0.0
H314 H 0.43866 0.16774 0.97944 0.0
H315 H 0.46129 0.17309 0.01855 0.0
H316 H 0.30608 0.15769 0.81393 0.0
H317 H 0.32714 0.149 0.8734 0.0
H318 H 0.33462 0.29007 0.93166 0.0
H319 H 0.31339 0.29865 0.87391 0.0
H320 H 0.2246 0.18706 0.76176 0.0
H321 H 0.29958 0.29642 0.74647 0.0
H322 H 0.23866 0.31153 0.63307 0.0
H323 H 0.28552 0.17092 0.87141 0.0
H324 H 0.27733 0.30295 0.70537 0.0
H325 H 0.24685 0.18066 0.80271 0.0
C326 C 0.23235 0.21301 0.74188 0.0
C327 C 0.22968 0.24996 0.69399 0.0
C328 C 0.27912 0.27393 0.74163 0.0
C329 C 0.25526 0.24296 0.74125 0.0
C330 C 0.29183 0.27027 0.76546 0.0
C331 C 0.29449 0.23298 0.8123 0.0
C332 C 0.26893 0.24015 0.76501 0.0
C333 C 0.28402 0.19993 0.83413 0.0
C334 C 0.24506 0.20943 0.76563 0.0
C335 C 0.24016 0.28279 0.67115 0.0
N336 N 0.27174 0.20433 0.81048 0.0
N337 N 0.25245 0.27849 0.69484 0.0
H338 H 0.74119 0.28142 0.91875 0.0
H339 H 0.78471 0.18311 0.56101 0.0
H340 H 0.72489 0.1953 0.71094 0.0
H341 H 0.80014 0.24978 0.79452 0.0
H342 H 0.76282 0.18704 0.61334 0.0
H343 H 0.76284 0.27124 0.87159 0.0
C344 C 0.74216 0.26049 0.86283 0.0
C345 C 0.73116 0.23951 0.81831 0.0
C346 C 0.771 0.20059 0.65331 0.0
C347 C 0.75607 0.22733 0.76414 0.0
C348 C 0.78354 0.19808 0.62378 0.0
C349 C 0.7944 0.21626 0.67313 0.0
C350 C 0.76922 0.2217 0.73263 0.0
C351 C 0.79215 0.23599 0.75325 0.0
C352 C 0.75455 0.25442 0.83629 0.0
C353 C 0.73306 0.21201 0.7474 0.0
N354 N 0.77986 0.23837 0.7801 0.0
N355 N 0.74527 0.20696 0.72216 0.0
H356 H 0.2842 0.66945 0.10795 0.0
H357 H 0.24013 0.78122 0.44335 0.0
H358 H 0.29936 0.74649 0.33094 0.0
H359 H 0.22425 0.6886 0.24431 0.0
H360 H 0.26187 0.76942 0.40129 0.0
H361 H 0.26226 0.67536 0.15651 0.0
C362 C 0.28296 0.68712 0.16774 0.0
C363 C 0.29376 0.70759 0.21513 0.0
C364 C 0.25365 0.75155 0.36682 0.0
C365 C 0.26851 0.7153 0.27015 0.0
C366 C 0.24121 0.75853 0.39039 0.0
C367 C 0.2303 0.73618 0.34683 0.0
C368 C 0.25531 0.72211 0.29868 0.0
C369 C 0.23234 0.70643 0.27996 0.0
C370 C 0.27039 0.69076 0.19506 0.0
C371 C 0.29142 0.73077 0.29124 0.0
N372 N 0.24459 0.70048 0.2576 0.0
N373 N 0.2791 0.73416 0.31598 0.0
H374 H 0.73028 0.67301 0.19583 0.0
H375 H 0.79836 0.79663 0.37383 0.0
H376 H 0.73749 0.81182 0.27184 0.0
H377 H 0.78946 0.65322 0.35155 0.0
H378 H 0.77639 0.80265 0.3276 0.0
H379 H 0.75195 0.66453 0.24731 0.0
C380 C 0.73633 0.7016 0.22412 0.0
C381 C 0.73202 0.74333 0.22871 0.0
C382 C 0.77921 0.76981 0.33267 0.0
C383 C 0.75697 0.73395 0.28629 0.0
C384 C 0.79182 0.76637 0.3583 0.0
C385 C 0.79582 0.72435 0.36609 0.0
C386 C 0.77046 0.731 0.31397 0.0
C387 C 0.78679 0.68628 0.34682 0.0
C388 C 0.74875 0.69677 0.25296 0.0
C389 C 0.74042 0.77923 0.26509 0.0
N390 N 0.77455 0.6905 0.32133 0.0
N391 N 0.75247 0.77377 0.29187 0.0
H392 H 0.15865 0.90062 0.56131 0.0
H393 H 0.11983 0.10451 0.47383 0.0
H394 H 0.1233 0.88866 0.41265 0.0
H395 H 0.15609 0.11728 0.61252 0.0
H396 H 0.12067 0.02505 0.4533 0.0
H397 H 0.15773 0.97996 0.58197 0.0
C398 C 0.15071 0.91468 0.53271 0.0
C399 C 0.14104 0.88791 0.48512 0.0
C400 C 0.12843 0.04524 0.48833 0.0
C401 C 0.13989 0.97877 0.50896 0.0
C402 C 0.12794 0.09063 0.50029 0.0
C403 C 0.13791 0.11768 0.54497 0.0
C404 C 0.13895 0.02672 0.52132 0.0
C405 C 0.14819 0.09778 0.57765 0.0
C406 C 0.15019 0.96002 0.54466 0.0
C407 C 0.13098 0.90801 0.44969 0.0
N408 N 0.14844 0.05354 0.56509 0.0
N409 N 0.13066 0.95221 0.46249 0.0
H410 H 0.86852 0.37336 0.43536 0.0
H411 H 0.90419 0.61184 0.5922 0.0
H412 H 0.90347 0.39294 0.58903 0.0
H413 H 0.86833 0.59269 0.44799 0.0
H414 H 0.90422 0.53161 0.58932 0.0
H415 H 0.86847 0.4538 0.43665 0.0
C416 C 0.8762 0.39458 0.46925 0.0
C417 C 0.88602 0.37651 0.51219 0.0
C418 C 0.89634 0.54493 0.55834 0.0
C419 C 0.886 0.46837 0.51398 0.0
C420 C 0.89631 0.59077 0.55992 0.0
C421 C 0.88623 0.60895 0.52024 0.0
C422 C 0.88623 0.51709 0.51671 0.0
C423 C 0.87629 0.58005 0.47943 0.0
C424 C 0.87615 0.44047 0.47003 0.0
C425 C 0.89571 0.40548 0.55513 0.0
N426 N 0.87654 0.53543 0.47867 0.0
N427 N 0.89545 0.45007 0.55494 0.0
H428 H 0.86889 0.87276 0.60175 0.0
H429 H 0.90334 0.1121 0.4418 0.0
H430 H 0.90406 0.89412 0.44956 0.0
H431 H 0.86742 0.09144 0.58615 0.0
H432 H 0.90378 0.03216 0.44537 0.0
H433 H 0.86829 0.95287 0.59868 0.0
C434 C 0.8765 0.89431 0.56785 0.0
C435 C 0.88655 0.87682 0.52583 0.0
C436 C 0.89579 0.04506 0.4762 0.0
C437 C 0.88588 0.96831 0.52195 0.0
C438 C 0.89552 0.09075 0.4742 0.0
C439 C 0.88532 0.10845 0.51386 0.0
C440 C 0.8858 0.01685 0.51823 0.0
C441 C 0.87547 0.07917 0.55476 0.0
C442 C 0.87613 0.94001 0.56603 0.0
C443 C 0.89614 0.90621 0.4828 0.0
N444 N 0.87596 0.03469 0.55599 0.0
N445 N 0.89556 0.95059 0.48197 0.0
H446 H 0.15647 0.61721 0.41228 0.0
H447 H 0.12206 0.38791 0.62216 0.0
H448 H 0.12073 0.60511 0.55775 0.0
H449 H 0.15703 0.4002 0.46856 0.0
H450 H 0.12151 0.46754 0.60125 0.0
H451 H 0.1568 0.53768 0.43294 0.0
C452 C 0.14865 0.59783 0.44832 0.0
C453 C 0.13855 0.61794 0.48336 0.0
C454 C 0.12931 0.4528 0.57223 0.0
C455 C 0.13892 0.52669 0.50767 0.0
C456 C 0.12965 0.40735 0.58433 0.0
C457 C 0.13962 0.38733 0.54707 0.0
C458 C 0.139 0.47842 0.52258 0.0
C459 C 0.14917 0.41417 0.4985 0.0
C460 C 0.14886 0.55236 0.4602 0.0
C461 C 0.1287 0.59105 0.52951 0.0
N462 N 0.14861 0.4583 0.48764 0.0
N463 N 0.12916 0.54681 0.54049 0.0
H464 H 0.65982 0.61742 0.12165 0.0
H465 H 0.62479 0.39055 0.90316 0.0
H466 H 0.62364 0.60703 0.98266 0.0
H467 H 0.66008 0.40038 0.05192 0.0
H468 H 0.62436 0.46995 0.92928 0.0
H469 H 0.66011 0.53808 0.09574 0.0
C470 C 0.6519 0.59848 0.08597 0.0
C471 C 0.64168 0.61909 0.05436 0.0
C472 C 0.63221 0.45475 0.95609 0.0
C473 C 0.642 0.52794 0.02395 0.0
C474 C 0.63249 0.4094 0.94098 0.0
C475 C 0.6425 0.38867 0.9753 0.0
C476 C 0.64202 0.47969 1.00584 0.0
C477 C 0.65217 0.41485 0.0241 0.0
C478 C 0.65208 0.55309 0.07107 0.0
C479 C 0.63171 0.59266 1.00842 0.0
N480 N 0.65168 0.45891 0.0379 0.0
N481 N 0.63214 0.54854 0.99446 0.0
H482 H 0.40648 0.88103 0.03061 0.0
H483 H 0.36381 0.07702 1.00375 0.0
H484 H 0.3648 0.85713 1.0088 0.0
H485 H 0.40384 0.09459 0.92278 0.0
H486 H 0.36437 -0.00271 0.02355 0.0
H487 H 0.40611 0.96104 1.0093 0.0
C488 C 0.39726 0.89261 0.02165 0.0
C489 C 0.38565 0.86244 0.0212 0.0
C490 C 0.37301 0.0186 1.00109 0.0
C491 C 0.38517 0.95352 0.99745 0.0
C492 C 0.37271 0.06407 0.98998 0.0
C493 C 0.38379 0.09236 0.96134 0.0
C494 C 0.38453 0.00146 0.98481 0.0
C495 C 0.39506 0.07383 0.94437 0.0
C496 C 0.39707 0.93815 1.00905 0.0
C497 C 0.37398 0.8792 1.009 0.0
N498 N 0.39517 0.02951 0.95696 0.0
N499 N 0.37404 0.92365 0.99805 0.0
H500 H 0.40605 0.37624 0.02013 0.0
H501 H 0.36256 0.57165 0.05394 0.0
H502 H 0.36583 0.35933 0.94421 0.0
H503 H 0.40436 0.59384 0.06048 0.0
H504 H 0.363 0.49139 0.03482 0.0
H505 H 0.40506 0.45444 0.05405 0.0
C506 C 0.39702 0.38897 1.01038 0.0
C507 C 0.38604 0.36127 0.97868 0.0
C508 C 0.37205 0.51392 0.04098 0.0
C509 C 0.38479 0.45059 0.01836 0.0
C510 C 0.3718 0.55958 0.05253 0.0
C511 C 0.38344 0.5894 0.05809 0.0
C512 C 0.38401 0.49815 0.03604 0.0
C513 C 0.39515 0.57207 0.05548 0.0
C514 C 0.39645 0.4336 0.02985 0.0
C515 C 0.37458 0.37958 0.9677 0.0
N516 N 0.39514 0.52765 0.04447 0.0
N517 N 0.37424 0.4231 0.98768 0.0
H518 H 0.62191 0.10558 0.04672 0.0
H519 H 0.66151 0.90157 0.97402 0.0
H520 H 0.658 0.1165 0.90567 0.0
H521 H 0.62635 0.89124 0.12512 0.0
H522 H 0.66017 0.98012 0.94676 0.0
H523 H 0.62302 0.02664 0.07304 0.0
C524 C 0.63003 0.0914 0.02084 0.0
C525 C 0.63988 0.11788 0.97387 0.0
C526 C 0.65276 0.96073 0.98606 0.0
C527 C 0.64124 0.02742 1.00429 0.0
C528 C 0.65353 0.91582 1.00182 0.0
C529 C 0.64405 0.88966 0.05211 0.0
C530 C 0.6424 0.97978 0.02056 0.0
C531 C 0.63391 0.91007 0.08619 0.0
C532 C 0.63068 0.0463 0.03617 0.0
C533 C 0.65018 0.09754 0.94221 0.0
N534 N 0.63335 0.95384 0.06966 0.0
N535 N 0.65059 0.05364 0.95809 0.0
H536 H 0.11715 0.24924 0.27709 0.0
H537 H 0.16022 0.27008 0.84522 0.0
H538 H 0.15872 0.25508 0.27695 0.0
H539 H 0.11864 0.23263 0.84492 0.0
H540 H 0.15984 0.27054 1.00377 0.0
H541 H 0.11748 0.24902 0.11842 0.0
C542 C 0.12635 0.25053 0.24385 0.0
C543 C 0.13792 0.25209 0.29057 0.0
C544 C 0.15081 0.26213 0.9689 0.0
C545 C 0.13836 0.25202 0.10908 0.0
C546 C 0.15101 0.26196 0.87836 0.0
C547 C 0.13945 0.25122 0.83155 0.0
C548 C 0.13894 0.25192 1.01301 0.0
C549 C 0.1278 0.24091 0.87817 0.0
C550 C 0.12652 0.25027 0.15326 0.0
C551 C 0.14954 0.25363 0.24383 0.0
N552 N 0.12785 0.24167 0.96625 0.0
N553 N 0.14947 0.25369 0.15578 0.0
H554 H 0.90678 0.25736 0.23084 0.0
H555 H 0.86373 0.24372 0.80004 0.0
H556 H 0.86509 0.22379 0.23216 0.0
H557 H 0.90505 0.24349 0.79868 0.0
H558 H 0.86407 0.24301 0.95884 0.0
H559 H 0.90637 0.25877 0.0723 0.0
C560 C 0.89754 0.25026 0.19794 0.0
C561 C 0.88596 0.24033 0.24508 0.0
C562 C 0.87305 0.24306 0.92362 0.0
C563 C 0.88542 0.2422 0.06353 0.0
C564 C 0.87287 0.24362 0.83298 0.0
C565 C 0.88437 0.24353 0.7858 0.0
C566 C 0.88483 0.24289 0.96741 0.0
C567 C 0.89593 0.24332 0.83215 0.0
C568 C 0.89732 0.25099 0.10738 0.0
C569 C 0.87428 0.23137 0.19869 0.0
N570 N 0.89586 0.24313 0.92023 0.0
N571 N 0.87431 0.23269 0.11059 0.0
H572 H 0.16131 0.76983 0.18498 0.0
H573 H 0.11821 0.75093 0.75426 0.0
H574 H 0.11965 0.73476 0.18628 0.0
H575 H 0.15971 0.75476 0.75321 0.0
H576 H 0.11855 0.75091 0.91291 0.0
H577 H 0.16092 0.77032 0.02644 0.0
C578 C 0.15208 0.76225 0.15206 0.0
C579 C 0.1405 0.75216 0.19915 0.0
C580 C 0.12757 0.75168 0.87782 0.0
C581 C 0.13999 0.75287 0.01771 0.0
C582 C 0.12739 0.75182 0.78724 0.0
C583 C 0.13894 0.75275 0.74018 0.0
C584 C 0.1394 0.75291 0.92166 0.0
C585 C 0.15055 0.7538 0.78659 0.0
C586 C 0.15187 0.76243 0.06152 0.0
C587 C 0.12884 0.74253 0.15282 0.0
N588 N 0.15048 0.75398 0.87464 0.0
N589 N 0.12888 0.74327 0.06474 0.0
H590 H 0.86545 0.722 0.80284 0.0
H591 H 0.90665 0.74643 0.24034 0.0
H592 H 0.90705 0.75821 0.8084 0.0
H593 H 0.8652 0.74356 0.23519 0.0
H594 H 0.90687 0.74525 0.08233 0.0
H595 H 0.86511 0.7239 0.96111 0.0
C596 C 0.87453 0.73018 0.83721 0.0
C597 C 0.88631 0.73991 0.79199 0.0
C598 C 0.89773 0.74499 0.11568 0.0
C599 C 0.88595 0.74214 0.97357 0.0
C600 C 0.89757 0.74553 0.20607 0.0
C601 C 0.88587 0.74501 0.25135 0.0
C602 C 0.88609 0.7435 0.06978 0.0
C603 C 0.87445 0.74409 0.2031 0.0
C604 C 0.87431 0.73146 0.92767 0.0
C605 C 0.89775 0.75055 0.84033 0.0
N606 N 0.87484 0.74313 0.11489 0.0
N607 N 0.89728 0.75122 0.92845 0.0
H608 H 0.66468 0.77418 0.35964 0.0
H609 H 0.62131 0.74881 0.79044 0.0
H610 H 0.6232 0.73399 0.3582 0.0
H611 H 0.66299 0.7585 0.79121 0.0
H612 H 0.62174 0.7491 0.63172 0.0
H613 H 0.66419 0.77436 0.51827 0.0
C614 C 0.65547 0.76542 0.39255 0.0
C615 C 0.64397 0.75397 0.34542 0.0
C616 C 0.63078 0.75108 0.66679 0.0
C617 C 0.64334 0.75431 0.52686 0.0
C618 C 0.63054 0.75103 0.7574 0.0
C619 C 0.64212 0.75352 0.80439 0.0
C620 C 0.64268 0.75407 0.6229 0.0
C621 C 0.6538 0.75628 0.75791 0.0
C622 C 0.65521 0.76543 0.48311 0.0
C623 C 0.63232 0.74284 0.3917 0.0
N624 N 0.65378 0.75661 0.66988 0.0
N625 N 0.63231 0.74343 0.47976 0.0
H626 H 0.36363 0.70502 0.76826 0.0
H627 H 0.40546 0.72364 0.33136 0.0
H628 H 0.40508 0.74531 0.76518 0.0
H629 H 0.36429 0.72651 0.33524 0.0
H630 H 0.40548 0.72372 0.49018 0.0
H631 H 0.36367 0.70488 0.60956 0.0
C632 C 0.37275 0.71374 0.73434 0.0
C633 C 0.38438 0.72525 0.7804 0.0
C634 C 0.39645 0.72438 0.45621 0.0
C635 C 0.38448 0.72485 0.59829 0.0
C636 C 0.39642 0.72415 0.36547 0.0
C637 C 0.38485 0.7251 0.31959 0.0
C638 C 0.38482 0.72492 0.50173 0.0
C639 C 0.37344 0.72594 0.36763 0.0
C640 C 0.37275 0.71381 0.64364 0.0
C641 C 0.39588 0.73641 0.73258 0.0
N642 N 0.3737 0.7256 0.4559 0.0
N643 N 0.39565 0.73571 0.64428 0.0
H644 H 0.6193 0.25033 0.23847 0.0
H645 H 0.6624 0.27122 0.66927 0.0
H646 H 0.66087 0.25648 0.23741 0.0
H647 H 0.62087 0.23237 0.67072 0.0
H648 H 0.66198 0.272 0.51073 0.0
H649 H 0.61963 0.24988 0.39721 0.0
C650 C 0.62849 0.25167 0.27146 0.0
C651 C 0.64006 0.25334 0.22437 0.0
C652 C 0.65297 0.26321 0.54583 0.0
C653 C 0.64052 0.25301 0.40593 0.0
C654 C 0.6532 0.26285 0.63638 0.0
C655 C 0.64166 0.25163 0.68353 0.0
C656 C 0.64111 0.25272 0.50202 0.0
C657 C 0.63002 0.24102 0.63721 0.0
C658 C 0.62867 0.25126 0.36208 0.0
C659 C 0.65169 0.25492 0.27079 0.0
N660 N 0.63004 0.24198 0.54911 0.0
N661 N 0.65162 0.25485 0.35886 0.0
H662 H 0.40698 0.23067 0.23187 0.0
H663 H 0.36391 0.2104 0.6639 0.0
H664 H 0.36533 0.22196 0.2323 0.0
H665 H 0.40541 0.25005 0.6644 0.0
H666 H 0.36434 0.20901 0.50548 0.0
H667 H 0.4067 0.23204 0.39066 0.0
C668 C 0.39778 0.22892 0.26519 0.0
C669 C 0.38617 0.22628 0.21849 0.0
C670 C 0.37334 0.21813 0.5403 0.0
C671 C 0.38578 0.22773 0.40008 0.0
C672 C 0.37311 0.21887 0.63082 0.0
C673 C 0.38464 0.23042 0.67771 0.0
C674 C 0.3852 0.2286 0.49619 0.0
C675 C 0.39627 0.24113 0.63109 0.0
C676 C 0.39763 0.22987 0.35582 0.0
C677 C 0.37454 0.22424 0.26533 0.0
N678 N 0.39626 0.23978 0.54298 0.0
N679 N 0.37465 0.22489 0.35337 0.0
H680 H 0.03967 0.15307 0.45986 0.0
H681 H 0.98439 0.30882 0.43847 0.0
H682 H 0.04733 0.297 0.44655 0.0
H683 H 0.97629 0.16472 0.43425 0.0
H684 H 1.00747 0.30467 0.43143 0.0
H685 H 0.01654 0.15613 0.44239 0.0
C686 C 0.03652 0.18531 0.45278 0.0
C687 C 0.04552 0.22484 0.45497 0.0
C688 C 1.00066 0.27391 0.43134 0.0
C689 C 0.01898 0.22858 0.4349 0.0
C690 C 0.98742 0.27624 0.43464 0.0
C691 C 0.97827 0.23705 0.43719 0.0
C692 C 1.00491 0.23208 0.43108 0.0
C693 C 0.98293 0.19587 0.43386 0.0
C694 C 0.0233 0.18702 0.44249 0.0
C695 C 0.04083 0.26559 0.4443 0.0
N696 N 0.99589 0.19447 0.43154 0.0
N697 N 0.02791 0.26639 0.43545 0.0
H698 H 0.98534 0.80921 0.60031 0.0
H699 H 0.0407 0.65394 0.57111 0.0
H700 H 0.9773 0.66509 0.60018 0.0
H701 H 0.04829 0.79778 0.58846 0.0
H702 H 0.01756 0.65675 0.58974 0.0
H703 H 1.00843 0.80511 0.60597 0.0
C704 C 0.98838 0.77662 0.6029 0.0
C705 C 0.97925 0.73742 0.59955 0.0
C706 C 0.0243 0.68767 0.59026 0.0
C707 C 1.00589 0.73254 0.60403 0.0
C708 C 0.03753 0.6861 0.57931 0.0
C709 C 0.04652 0.72569 0.57791 0.0
C710 C 0.01997 0.72914 0.59935 0.0
C711 C 0.0418 0.76633 0.59004 0.0
C712 C 1.00162 0.77433 0.60539 0.0
C713 C 0.98392 0.69625 0.60125 0.0
N714 N 0.02889 0.76699 0.59954 0.0
N715 N 0.99689 0.6949 0.6028 0.0
H716 H 0.54485 0.70855 0.16979 0.0
H717 H 0.48358 0.76133 0.89873 0.0
H718 H 0.54704 0.74839 0.90088 0.0
H719 H 0.48203 0.72513 0.16955 0.0
H720 H 0.50668 0.75557 0.89703 0.0
H721 H 0.52172 0.71234 0.16907 0.0
C722 C 0.54046 0.71753 0.11012 0.0
C723 C 0.54797 0.72792 0.03508 0.0
C724 C 0.50129 0.74895 0.95687 0.0
C725 C 0.52136 0.73322 0.03441 0.0
C726 C 0.48807 0.75207 0.95784 0.0
C727 C 0.4808 0.74367 0.03443 0.0
C728 C 0.50733 0.7372 0.03296 0.0
C729 C 0.48724 0.73246 0.10928 0.0
C730 C 0.52723 0.72011 0.11005 0.0
C731 C 0.5417 0.74042 0.96045 0.0
N732 N 0.50009 0.72944 0.10656 0.0
N733 N 0.52878 0.74271 0.96202 0.0
H734 H 0.47822 0.19067 0.11753 0.0
H735 H 0.54886 0.31307 0.98259 0.0
H736 H 0.4849 0.30635 0.95073 0.0
H737 H 0.54175 0.17907 0.08491 0.0
H738 H 0.52566 0.31639 0.99077 0.0
H739 H 0.50161 0.19114 0.12526 0.0
C740 C 0.48455 0.21626 0.0826 0.0
C741 C 0.47944 0.24831 0.03271 0.0
C742 C 0.52917 0.28633 1.01191 0.0
C743 C 0.50637 0.24934 0.04273 0.0
C744 C 0.54244 0.28452 1.00794 0.0
C745 C 0.5473 0.24574 0.03331 0.0
C746 C 0.52062 0.24923 0.04209 0.0
C747 C 0.53845 0.20951 0.06408 0.0
C748 C 0.49794 0.21654 0.08739 0.0
C749 C 0.48827 0.28122 0.99084 0.0
N750 N 0.52555 0.21215 0.06769 0.0
N751 N 0.50125 0.28077 0.99658 0.0
loop_
_geom_bond_atom_site_label_1
_geom_bond_atom_site_label_2
_geom_bond_distance
_geom_bond_site_symmetry_2
_ccdc_geom_bond_type
Tb0 C9 2.764 . S
Tb0 O10 2.325 . S
Tb0 O13 2.303 . S
Tb0 O17 2.322 . S
Tb0 O18 2.349 . S
Tb0 O21 2.415 . S
Tb0 O22 2.399 . S
Tb1 O11 2.322 . S
Tb1 O12 2.349 . S
Tb1 O14 2.415 . S
Tb1 O15 2.399 . S
Tb1 O16 2.325 . S
Tb1 O19 2.303 . S
Tb1 C30 2.764 . S
C2 O18 1.261 . S
C2 O19 1.257 . S
C3 C6 1.358 . S
C3 C7 1.332 . S
C3 C9 1.504 . S
C4 C5 1.373 . S
C4 C8 1.308 . S
C5 C4 1.373 . S
C5 C6 1.429 . S
C5 H32 0.932 . S
C6 C3 1.358 . S
C6 C5 1.429 . S
C6 H33 0.930 . S
C7 C3 1.332 . S
C7 C8 1.394 . S
C7 H34 0.932 . S
C8 C4 1.308 . S
C8 C7 1.394 . S
C8 H35 0.929 . S
C9 Tb0 2.764 . S
C9 C3 1.504 . S
C9 O21 1.239 . S
C9 O22 1.263 . S
O10 Tb0 2.325 . S
O10 C20 1.236 . S
O11 Tb1 2.322 . S
O11 C20 1.257 . S
O12 Tb1 2.349 . S
O12 C23 1.261 . S
O13 Tb0 2.303 . S
O13 C23 1.257 . S
O14 Tb1 2.415 . S
O14 C30 1.239 . S
O15 Tb1 2.399 . S
O15 C30 1.263 . S
O16 Tb1 2.325 . S
O16 C31 1.236 . S
O17 Tb0 2.322 . S
O17 C31 1.257 . S
O18 Tb0 2.349 . S
O18 C2 1.261 . S
O19 Tb1 2.303 . S
O19 C2 1.257 . S
C20 O10 1.236 . S
C20 O11 1.257 . S
O21 Tb0 2.415 . S
O21 C9 1.239 . S
O22 Tb0 2.399 . S
O22 C9 1.263 . S
C23 O12 1.261 . S
C23 O13 1.257 . S
C24 C27 1.358 . S
C24 C28 1.332 . S
C24 C30 1.504 . S
C25 C26 1.373 . S
C25 C29 1.308 . S
C26 C25 1.373 . S
C26 C27 1.429 . S
C26 H36 0.932 . S
C27 C24 1.358 . S
C27 C26 1.429 . S
C27 H37 0.930 . S
C28 C24 1.332 . S
C28 C29 1.394 . S
C28 H38 0.932 . S
C29 C25 1.308 . S
C29 C28 1.394 . S
C29 H39 0.929 . S
C30 Tb1 2.764 . S
C30 O14 1.239 . S
C30 O15 1.263 . S
C30 C24 1.504 . S
C31 O16 1.236 . S
C31 O17 1.257 . S
H32 C5 0.932 . S
H33 C6 0.930 . S
H34 C7 0.932 . S
H35 C8 0.929 . S
H36 C26 0.932 . S
H37 C27 0.930 . S
H38 C28 0.932 . S
H39 C29 0.929 . S
Tb40 C49 2.764 . S
Tb40 O50 2.325 . S
Tb40 O53 2.303 . S
Tb40 O57 2.322 . S
Tb40 O58 2.349 . S
Tb40 O61 2.415 . S
Tb40 O62 2.399 . S
Tb41 O51 2.322 . S
Tb41 O52 2.349 . S
Tb41 O54 2.415 . S
Tb41 O55 2.399 . S
Tb41 O56 2.325 . S
Tb41 O59 2.303 . S
Tb41 C70 2.764 . S
C42 O58 1.261 . S
C42 O59 1.257 . S
C43 C46 1.358 . S
C43 C47 1.332 . S
C43 C49 1.504 . S
C44 C45 1.373 . S
C44 C48 1.308 . S
C45 C44 1.373 . S
C45 C46 1.429 . S
C45 H72 0.932 . S
C46 C43 1.358 . S
C46 C45 1.429 . S
C46 H73 0.930 . S
C47 C43 1.332 . S
C47 C48 1.394 . S
C47 H74 0.932 . S
C48 C44 1.308 . S
C48 C47 1.394 . S
C48 H75 0.929 . S
C49 Tb40 2.764 . S
C49 C43 1.504 . S
C49 O61 1.239 . S
C49 O62 1.263 . S
O50 Tb40 2.325 . S
O50 C60 1.236 . S
O51 Tb41 2.322 . S
O51 C60 1.257 . S
O52 Tb41 2.349 . S
O52 C63 1.261 . S
O53 Tb40 2.303 . S
O53 C63 1.257 . S
O54 Tb41 2.415 . S
O54 C70 1.239 . S
O55 Tb41 2.399 . S
O55 C70 1.263 . S
O56 Tb41 2.325 . S
O56 C71 1.236 . S
O57 Tb40 2.322 . S
O57 C71 1.257 . S
O58 Tb40 2.349 . S
O58 C42 1.261 . S
O59 Tb41 2.303 . S
O59 C42 1.257 . S
C60 O50 1.236 . S
C60 O51 1.257 . S
O61 Tb40 2.415 . S
O61 C49 1.239 . S
O62 Tb40 2.399 . S
O62 C49 1.263 . S
C63 O52 1.261 . S
C63 O53 1.257 . S
C64 C67 1.358 . S
C64 C68 1.332 . S
C64 C70 1.504 . S
C65 C66 1.373 . S
C65 C69 1.308 . S
C66 C65 1.373 . S
C66 C67 1.429 . S
C66 H76 0.932 . S
C67 C64 1.358 . S
C67 C66 1.429 . S
C67 H77 0.930 . S
C68 C64 1.332 . S
C68 C69 1.394 . S
C68 H78 0.932 . S
C69 C65 1.308 . S
C69 C68 1.394 . S
C69 H79 0.929 . S
C70 Tb41 2.764 . S
C70 O54 1.239 . S
C70 O55 1.263 . S
C70 C64 1.504 . S
C71 O56 1.236 . S
C71 O57 1.257 . S
H72 C45 0.932 . S
H73 C46 0.930 . S
H74 C47 0.932 . S
H75 C48 0.929 . S
H76 C66 0.932 . S
H77 C67 0.930 . S
H78 C68 0.932 . S
H79 C69 0.929 . S
Tb80 C89 2.764 . S
Tb80 O90 2.325 . S
Tb80 O93 2.303 . S
Tb80 O97 2.322 . S
Tb80 O98 2.349 . S
Tb80 O101 2.415 . S
Tb80 O102 2.399 . S
Tb81 O91 2.322 . S
Tb81 O92 2.349 . S
Tb81 O94 2.415 . S
Tb81 O95 2.399 . S
Tb81 O96 2.325 . S
Tb81 O99 2.303 . S
Tb81 C110 2.764 . S
C82 O98 1.261 . S
C82 O99 1.257 . S
C83 C86 1.358 . S
C83 C87 1.332 . S
C83 C89 1.504 . S
C84 C85 1.373 . S
C84 C88 1.308 . S
C85 C84 1.373 . S
C85 C86 1.429 . S
C85 H112 0.932 . S
C86 C83 1.358 . S
C86 C85 1.429 . S
C86 H113 0.930 . S
C87 C83 1.332 . S
C87 C88 1.394 . S
C87 H114 0.932 . S
C88 C84 1.308 . S
C88 C87 1.394 . S
C88 H115 0.929 . S
C89 Tb80 2.764 . S
C89 C83 1.504 . S
C89 O101 1.239 . S
C89 O102 1.263 . S
O90 Tb80 2.325 . S
O90 C100 1.236 . S
O91 Tb81 2.322 . S
O91 C100 1.257 . S
O92 Tb81 2.349 . S
O92 C103 1.261 . S
O93 Tb80 2.303 . S
O93 C103 1.257 . S
O94 Tb81 2.415 . S
O94 C110 1.239 . S
O95 Tb81 2.399 . S
O95 C110 1.263 . S
O96 Tb81 2.325 . S
O96 C111 1.236 . S
O97 Tb80 2.322 . S
O97 C111 1.257 . S
O98 Tb80 2.349 . S
O98 C82 1.261 . S
O99 Tb81 2.303 . S
O99 C82 1.257 . S
C100 O90 1.236 . S
C100 O91 1.257 . S
O101 Tb80 2.415 . S
O101 C89 1.239 . S
O102 Tb80 2.399 . S
O102 C89 1.263 . S
C103 O92 1.261 . S
C103 O93 1.257 . S
C104 C107 1.358 . S
C104 C108 1.332 . S
C104 C110 1.504 . S
C105 C106 1.373 . S
C105 C109 1.308 . S
C106 C105 1.373 . S
C106 C107 1.429 . S
C106 H116 0.932 . S
C107 C104 1.358 . S
C107 C106 1.429 . S
C107 H117 0.930 . S
C108 C104 1.332 . S
C108 C109 1.394 . S
C108 H118 0.932 . S
C109 C105 1.308 . S
C109 C108 1.394 . S
C109 H119 0.929 . S
C110 Tb81 2.764 . S
C110 O94 1.239 . S
C110 O95 1.263 . S
C110 C104 1.504 . S
C111 O96 1.236 . S
C111 O97 1.257 . S
H112 C85 0.932 . S
H113 C86 0.930 . S
H114 C87 0.932 . S
H115 C88 0.929 . S
H116 C106 0.932 . S
H117 C107 0.930 . S
H118 C108 0.932 . S
H119 C109 0.929 . S
Tb120 C129 2.764 . S
Tb120 O130 2.325 . S
Tb120 O133 2.303 . S
Tb120 O137 2.322 . S
Tb120 O138 2.349 . S
Tb120 O141 2.415 . S
Tb120 O142 2.399 . S
Tb121 O131 2.322 . S
Tb121 O132 2.349 . S
Tb121 O134 2.415 . S
Tb121 O135 2.399 . S
Tb121 O136 2.325 . S
Tb121 O139 2.303 . S
Tb121 C150 2.764 . S
C122 O138 1.261 . S
C122 O139 1.257 . S
C123 C126 1.358 . S
C123 C127 1.332 . S
C123 C129 1.504 . S
C124 C125 1.373 . S
C124 C128 1.308 . S
C125 C124 1.373 . S
C125 C126 1.429 . S
C125 H152 0.932 . S
C126 C123 1.358 . S
C126 C125 1.429 . S
C126 H153 0.930 . S
C127 C123 1.332 . S
C127 C128 1.394 . S
C127 H154 0.932 . S
C128 C124 1.308 . S
C128 C127 1.394 . S
C128 H155 0.929 . S
C129 Tb120 2.764 . S
C129 C123 1.504 . S
C129 O141 1.239 . S
C129 O142 1.263 . S
O130 Tb120 2.325 . S
O130 C140 1.236 . S
O131 Tb121 2.322 . S
O131 C140 1.257 . S
O132 Tb121 2.349 . S
O132 C143 1.261 . S
O133 Tb120 2.303 . S
O133 C143 1.257 . S
O134 Tb121 2.415 . S
O134 C150 1.239 . S
O135 Tb121 2.399 . S
O135 C150 1.263 . S
O136 Tb121 2.325 . S
O136 C151 1.236 . S
O137 Tb120 2.322 . S
O137 C151 1.257 . S
O138 Tb120 2.349 . S
O138 C122 1.261 . S
O139 Tb121 2.303 . S
O139 C122 1.257 . S
C140 O130 1.236 . S
C140 O131 1.257 . S
O141 Tb120 2.415 . S
O141 C129 1.239 . S
O142 Tb120 2.399 . S
O142 C129 1.263 . S
C143 O132 1.261 . S
C143 O133 1.257 . S
C144 C147 1.358 . S
C144 C148 1.332 . S
C144 C150 1.504 . S
C145 C146 1.373 . S
C145 C149 1.308 . S
C146 C145 1.373 . S
C146 C147 1.429 . S
C146 H156 0.932 . S
C147 C144 1.358 . S
C147 C146 1.429 . S
C147 H157 0.930 . S
C148 C144 1.332 . S
C148 C149 1.394 . S
C148 H158 0.932 . S
C149 C145 1.308 . S
C149 C148 1.394 . S
C149 H159 0.929 . S
C150 Tb121 2.764 . S
C150 O134 1.239 . S
C150 O135 1.263 . S
C150 C144 1.504 . S
C151 O136 1.236 . S
C151 O137 1.257 . S
H152 C125 0.932 . S
H153 C126 0.930 . S
H154 C127 0.932 . S
H155 C128 0.929 . S
H156 C146 0.932 . S
H157 C147 0.930 . S
H158 C148 0.932 . S
H159 C149 0.929 . S
Tb160 C169 2.764 1_556 S
Tb160 O170 2.325 1_556 S
Tb160 O173 2.303 . S
Tb160 O177 2.322 . S
Tb160 O178 2.349 . S
Tb160 O181 2.415 1_556 S
Tb160 O182 2.399 1_556 S
Tb161 O171 2.322 . S
Tb161 O172 2.349 . S
Tb161 O174 2.415 1_554 S
Tb161 O175 2.399 1_554 S
Tb161 O176 2.325 1_554 S
Tb161 O179 2.303 . S
Tb161 C190 2.764 1_554 S
C162 O178 1.261 . S
C162 O179 1.257 1_556 S
C163 C166 1.358 . S
C163 C167 1.332 . S
C163 C169 1.504 . S
C164 C165 1.373 . S
C164 C168 1.308 . S
C165 C164 1.373 . S
C165 C166 1.429 . S
C165 H192 0.932 . S
C166 C163 1.358 . S
C166 C165 1.429 . S
C166 H193 0.930 . S
C167 C163 1.332 . S
C167 C168 1.394 . S
C167 H194 0.932 . S
C168 C164 1.308 . S
C168 C167 1.394 . S
C168 H195 0.929 . S
C169 Tb160 2.764 1_554 S
C169 C163 1.504 . S
C169 O181 1.239 . S
C169 O182 1.263 . S
O170 Tb160 2.325 1_554 S
O170 C180 1.236 . S
O171 Tb161 2.322 . S
O171 C180 1.257 . S
O172 Tb161 2.349 . S
O172 C183 1.261 . S
O173 Tb160 2.303 . S
O173 C183 1.257 1_556 S
O174 Tb161 2.415 1_556 S
O174 C190 1.239 . S
O175 Tb161 2.399 1_556 S
O175 C190 1.263 . S
O176 Tb161 2.325 1_556 S
O176 C191 1.236 . S
O177 Tb160 2.322 . S
O177 C191 1.257 . S
O178 Tb160 2.349 . S
O178 C162 1.261 . S
O179 Tb161 2.303 . S
O179 C162 1.257 1_554 S
C180 O170 1.236 . S
C180 O171 1.257 . S
O181 Tb160 2.415 1_554 S
O181 C169 1.239 . S
O182 Tb160 2.399 1_554 S
O182 C169 1.263 . S
C183 O172 1.261 . S
C183 O173 1.257 1_554 S
C184 C187 1.358 . S
C184 C188 1.332 . S
C184 C190 1.504 . S
C185 C186 1.373 . S
C185 C189 1.308 . S
C186 C185 1.373 . S
C186 C187 1.429 . S
C186 H196 0.932 . S
C187 C184 1.358 . S
C187 C186 1.429 . S
C187 H197 0.930 . S
C188 C184 1.332 . S
C188 C189 1.394 . S
C188 H198 0.932 . S
C189 C185 1.308 . S
C189 C188 1.394 . S
C189 H199 0.929 . S
C190 Tb161 2.764 1_556 S
C190 O174 1.239 . S
C190 O175 1.263 . S
C190 C184 1.504 . S
C191 O176 1.236 . S
C191 O177 1.257 . S
H192 C165 0.932 . S
H193 C166 0.930 . S
H194 C167 0.932 . S
H195 C168 0.929 . S
H196 C186 0.932 . S
H197 C187 0.930 . S
H198 C188 0.932 . S
H199 C189 0.929 . S
Tb200 C209 2.764 1_556 S
Tb200 O210 2.325 1_556 S
Tb200 O213 2.303 . S
Tb200 O217 2.322 . S
Tb200 O218 2.349 . S
Tb200 O221 2.415 1_556 S
Tb200 O222 2.399 1_556 S
Tb201 O211 2.322 . S
Tb201 O212 2.349 . S
Tb201 O214 2.415 1_554 S
Tb201 O215 2.399 1_554 S
Tb201 O216 2.325 1_554 S
Tb201 O219 2.303 . S
Tb201 C230 2.764 1_554 S
C202 O218 1.261 . S
C202 O219 1.257 1_556 S
C203 C206 1.358 . S
C203 C207 1.332 . S
C203 C209 1.504 . S
C204 C205 1.373 . S
C204 C208 1.308 . S
C205 C204 1.373 . S
C205 C206 1.429 . S
C205 H232 0.932 . S
C206 C203 1.358 . S
C206 C205 1.429 . S
C206 H233 0.930 . S
C207 C203 1.332 . S
C207 C208 1.394 . S
C207 H234 0.932 . S
C208 C204 1.308 . S
C208 C207 1.394 . S
C208 H235 0.929 . S
C209 Tb200 2.764 1_554 S
C209 C203 1.504 . S
C209 O221 1.239 . S
C209 O222 1.263 . S
O210 Tb200 2.325 1_554 S
O210 C220 1.236 . S
O211 Tb201 2.322 . S
O211 C220 1.257 . S
O212 Tb201 2.349 . S
O212 C223 1.261 . S
O213 Tb200 2.303 . S
O213 C223 1.257 1_556 S
O214 Tb201 2.415 1_556 S
O214 C230 1.239 . S
O215 Tb201 2.399 1_556 S
O215 C230 1.263 . S
O216 Tb201 2.325 1_556 S
O216 C231 1.236 . S
O217 Tb200 2.322 . S
O217 C231 1.257 . S
O218 Tb200 2.349 . S
O218 C202 1.261 . S
O219 Tb201 2.303 . S
O219 C202 1.257 1_554 S
C220 O210 1.236 . S
C220 O211 1.257 . S
O221 Tb200 2.415 1_554 S
O221 C209 1.239 . S
O222 Tb200 2.399 1_554 S
O222 C209 1.263 . S
C223 O212 1.261 . S
C223 O213 1.257 1_554 S
C224 C227 1.358 . S
C224 C228 1.332 . S
C224 C230 1.504 . S
C225 C226 1.373 . S
C225 C229 1.308 . S
C226 C225 1.373 . S
C226 C227 1.429 . S
C226 H236 0.932 . S
C227 C224 1.358 . S
C227 C226 1.429 . S
C227 H237 0.930 . S
C228 C224 1.332 . S
C228 C229 1.394 . S
C228 H238 0.932 . S
C229 C225 1.308 . S
C229 C228 1.394 . S
C229 H239 0.929 . S
C230 Tb201 2.764 1_556 S
C230 O214 1.239 . S
C230 O215 1.263 . S
C230 C224 1.504 . S
C231 O216 1.236 . S
C231 O217 1.257 . S
H232 C205 0.932 . S
H233 C206 0.930 . S
H234 C207 0.932 . S
H235 C208 0.929 . S
H236 C226 0.932 . S
H237 C227 0.930 . S
H238 C228 0.932 . S
H239 C229 0.929 . S
Tb240 C249 2.764 1_556 S
Tb240 O250 2.325 1_556 S
Tb240 O253 2.303 . S
Tb240 O257 2.322 . S
Tb240 O258 2.349 . S
Tb240 O261 2.415 1_556 S
Tb240 O262 2.399 1_556 S
Tb241 O251 2.322 . S
Tb241 O252 2.349 . S
Tb241 O254 2.415 1_554 S
Tb241 O255 2.399 1_554 S
Tb241 O256 2.325 1_554 S
Tb241 O259 2.303 . S
Tb241 C270 2.764 1_554 S
C242 O258 1.261 . S
C242 O259 1.257 1_556 S
C243 C246 1.358 . S
C243 C247 1.332 . S
C243 C249 1.504 . S
C244 C245 1.373 . S
C244 C248 1.308 . S
C245 C244 1.373 . S
C245 C246 1.429 . S
C245 H272 0.932 . S
C246 C243 1.358 . S
C246 C245 1.429 . S
C246 H273 0.930 . S
C247 C243 1.332 . S
C247 C248 1.394 . S
C247 H274 0.932 . S
C248 C244 1.308 . S
C248 C247 1.394 . S
C248 H275 0.929 . S
C249 Tb240 2.764 1_554 S
C249 C243 1.504 . S
C249 O261 1.239 . S
C249 O262 1.263 . S
O250 Tb240 2.325 1_554 S
O250 C260 1.236 . S
O251 Tb241 2.322 . S
O251 C260 1.257 . S
O252 Tb241 2.349 . S
O252 C263 1.261 . S
O253 Tb240 2.303 . S
O253 C263 1.257 1_556 S
O254 Tb241 2.415 1_556 S
O254 C270 1.239 . S
O255 Tb241 2.399 1_556 S
O255 C270 1.263 . S
O256 Tb241 2.325 1_556 S
O256 C271 1.236 . S
O257 Tb240 2.322 . S
O257 C271 1.257 . S
O258 Tb240 2.349 . S
O258 C242 1.261 . S
O259 Tb241 2.303 . S
O259 C242 1.257 1_554 S
C260 O250 1.236 . S
C260 O251 1.257 . S
O261 Tb240 2.415 1_554 S
O261 C249 1.239 . S
O262 Tb240 2.399 1_554 S
O262 C249 1.263 . S
C263 O252 1.261 . S
C263 O253 1.257 1_554 S
C264 C267 1.358 . S
C264 C268 1.332 . S
C264 C270 1.504 . S
C265 C266 1.373 . S
C265 C269 1.308 . S
C266 C265 1.373 . S
C266 C267 1.429 . S
C266 H276 0.932 . S
C267 C264 1.358 . S
C267 C266 1.429 . S
C267 H277 0.930 . S
C268 C264 1.332 . S
C268 C269 1.394 . S
C268 H278 0.932 . S
C269 C265 1.308 . S
C269 C268 1.394 . S
C269 H279 0.929 . S
C270 Tb241 2.764 1_556 S
C270 O254 1.239 . S
C270 O255 1.263 . S
C270 C264 1.504 . S
C271 O256 1.236 . S
C271 O257 1.257 . S
H272 C245 0.932 . S
H273 C246 0.930 . S
H274 C247 0.932 . S
H275 C248 0.929 . S
H276 C266 0.932 . S
H277 C267 0.930 . S
H278 C268 0.932 . S
H279 C269 0.929 . S
Tb280 C289 2.764 1_556 S
Tb280 O290 2.325 1_556 S
Tb280 O293 2.303 . S
Tb280 O297 2.322 . S
Tb280 O298 2.349 . S
Tb280 O301 2.415 1_556 S
Tb280 O302 2.399 1_556 S
Tb281 O291 2.322 . S
Tb281 O292 2.349 . S
Tb281 O294 2.415 1_554 S
Tb281 O295 2.399 1_554 S
Tb281 O296 2.325 1_554 S
Tb281 O299 2.303 . S
Tb281 C310 2.764 1_554 S
C282 O298 1.261 . S
C282 O299 1.257 1_556 S
C283 C286 1.358 . S
C283 C287 1.332 . S
C283 C289 1.504 . S
C284 C285 1.373 . S
C284 C288 1.308 . S
C285 C284 1.373 . S
C285 C286 1.429 . S
C285 H312 0.932 . S
C286 C283 1.358 . S
C286 C285 1.429 . S
C286 H313 0.930 . S
C287 C283 1.332 . S
C287 C288 1.394 . S
C287 H314 0.932 . S
C288 C284 1.308 . S
C288 C287 1.394 . S
C288 H315 0.929 . S
C289 Tb280 2.764 1_554 S
C289 C283 1.504 . S
C289 O301 1.239 . S
C289 O302 1.263 . S
O290 Tb280 2.325 1_554 S
O290 C300 1.236 . S
O291 Tb281 2.322 . S
O291 C300 1.257 . S
O292 Tb281 2.349 . S
O292 C303 1.261 . S
O293 Tb280 2.303 . S
O293 C303 1.257 1_556 S
O294 Tb281 2.415 1_556 S
O294 C310 1.239 . S
O295 Tb281 2.399 1_556 S
O295 C310 1.263 . S
O296 Tb281 2.325 1_556 S
O296 C311 1.236 . S
O297 Tb280 2.322 . S
O297 C311 1.257 . S
O298 Tb280 2.349 . S
O298 C282 1.261 . S
O299 Tb281 2.303 . S
O299 C282 1.257 1_554 S
C300 O290 1.236 . S
C300 O291 1.257 . S
O301 Tb280 2.415 1_554 S
O301 C289 1.239 . S
O302 Tb280 2.399 1_554 S
O302 C289 1.263 . S
C303 O292 1.261 . S
C303 O293 1.257 1_554 S
C304 C307 1.358 . S
C304 C308 1.332 . S
C304 C310 1.504 . S
C305 C306 1.373 . S
C305 C309 1.308 . S
C306 C305 1.373 . S
C306 C307 1.429 . S
C306 H316 0.932 . S
C307 C304 1.358 . S
C307 C306 1.429 . S
C307 H317 0.930 . S
C308 C304 1.332 . S
C308 C309 1.394 . S
C308 H318 0.932 . S
C309 C305 1.308 . S
C309 C308 1.394 . S
C309 H319 0.929 . S
C310 Tb281 2.764 1_556 S
C310 O294 1.239 . S
C310 O295 1.263 . S
C310 C304 1.504 . S
C311 O296 1.236 . S
C311 O297 1.257 . S
H312 C285 0.932 . S
H313 C286 0.930 . S
H314 C287 0.932 . S
H315 C288 0.929 . S
H316 C306 0.932 . S
H317 C307 0.930 . S
H318 C308 0.932 . S
H319 C309 0.929 . S
H320 C326 0.930 . S
H321 C330 0.930 . S
H322 C335 0.929 . S
H323 C333 0.929 . S
H324 C328 0.929 . S
H325 C334 0.929 . S
C326 H320 0.930 . S
C326 C327 1.367 . S
C326 C334 1.378 . S
C327 C326 1.367 . S
C327 C335 1.433 . S
C328 H324 0.929 . S
C328 C330 1.378 . S
C328 C332 1.350 . S
C329 C332 1.463 . S
C329 C334 1.350 . S
C329 N337 1.427 . S
C330 H321 0.930 . S
C330 C328 1.378 . S
C330 C331 1.367 . S
C331 C330 1.367 . S
C331 C333 1.433 . S
C332 C328 1.350 . S
C332 C329 1.463 . S
C332 N336 1.427 . S
C333 H323 0.929 . S
C333 C331 1.433 . S
C333 N336 1.384 . S
C334 H325 0.929 . S
C334 C326 1.378 . S
C334 C329 1.350 . S
C335 H322 0.929 . S
C335 C327 1.433 . S
C335 N337 1.384 . S
N336 C332 1.427 . S
N336 C333 1.384 . S
N337 C329 1.427 . S
N337 C335 1.384 . S
H338 C344 0.930 . S
H339 C348 0.930 . S
H340 C353 0.929 . S
H341 C351 0.929 . S
H342 C346 0.929 . S
H343 C352 0.929 . S
C344 H338 0.930 . S
C344 C345 1.367 . S
C344 C352 1.378 . S
C345 C344 1.367 . S
C345 C353 1.433 . S
C346 H342 0.929 . S
C346 C348 1.378 . S
C346 C350 1.350 . S
C347 C350 1.463 . S
C347 C352 1.350 . S
C347 N355 1.427 . S
C348 H339 0.930 . S
C348 C346 1.378 . S
C348 C349 1.367 . S
C349 C348 1.367 . S
C349 C351 1.433 . S
C350 C346 1.350 . S
C350 C347 1.463 . S
C350 N354 1.427 . S
C351 H341 0.929 . S
C351 C349 1.433 . S
C351 N354 1.384 . S
C352 H343 0.929 . S
C352 C344 1.378 . S
C352 C347 1.350 . S
C353 H340 0.929 . S
C353 C345 1.433 . S
C353 N355 1.384 . S
N354 C350 1.427 . S
N354 C351 1.384 . S
N355 C347 1.427 . S
N355 C353 1.384 . S
H356 C362 0.930 . S
H357 C366 0.930 . S
H358 C371 0.929 . S
H359 C369 0.929 . S
H360 C364 0.929 . S
H361 C370 0.929 . S
C362 H356 0.930 . S
C362 C363 1.367 . S
C362 C370 1.378 . S
C363 C362 1.367 . S
C363 C371 1.433 . S
C364 H360 0.929 . S
C364 C366 1.378 . S
C364 C368 1.350 . S
C365 C368 1.463 . S
C365 C370 1.350 . S
C365 N373 1.427 . S
C366 H357 0.930 . S
C366 C364 1.378 . S
C366 C367 1.367 . S
C367 C366 1.367 . S
C367 C369 1.433 . S
C368 C364 1.350 . S
C368 C365 1.463 . S
C368 N372 1.427 . S
C369 H359 0.929 . S
C369 C367 1.433 . S
C369 N372 1.384 . S
C370 H361 0.929 . S
C370 C362 1.378 . S
C370 C365 1.350 . S
C371 H358 0.929 . S
C371 C363 1.433 . S
C371 N373 1.384 . S
N372 C368 1.427 . S
N372 C369 1.384 . S
N373 C365 1.427 . S
N373 C371 1.384 . S
H374 C380 0.930 . S
H375 C384 0.930 . S
H376 C389 0.929 . S
H377 C387 0.929 . S
H378 C382 0.929 . S
H379 C388 0.929 . S
C380 H374 0.930 . S
C380 C381 1.367 . S
C380 C388 1.378 . S
C381 C380 1.367 . S
C381 C389 1.433 . S
C382 H378 0.929 . S
C382 C384 1.378 . S
C382 C386 1.350 . S
C383 C386 1.463 . S
C383 C388 1.350 . S
C383 N391 1.427 . S
C384 H375 0.930 . S
C384 C382 1.378 . S
C384 C385 1.367 . S
C385 C384 1.367 . S
C385 C387 1.433 . S
C386 C382 1.350 . S
C386 C383 1.463 . S
C386 N390 1.427 . S
C387 H377 0.929 . S
C387 C385 1.433 . S
C387 N390 1.384 . S
C388 H379 0.929 . S
C388 C380 1.378 . S
C388 C383 1.350 . S
C389 H376 0.929 . S
C389 C381 1.433 . S
C389 N391 1.384 . S
N390 C386 1.427 . S
N390 C387 1.384 . S
N391 C383 1.427 . S
N391 C389 1.384 . S
H392 C398 0.930 . S
H393 C402 0.930 . S
H394 C407 0.929 . S
H395 C405 0.929 . S
H396 C400 0.929 . S
H397 C406 0.929 . S
C398 H392 0.930 . S
C398 C399 1.367 . S
C398 C406 1.378 . S
C399 C398 1.367 . S
C399 C407 1.433 . S
C400 H396 0.929 . S
C400 C402 1.378 . S
C400 C404 1.350 . S
C401 C404 1.463 1_565 S
C401 C406 1.350 . S
C401 N409 1.427 . S
C402 H393 0.930 . S
C402 C400 1.378 . S
C402 C403 1.367 . S
C403 C402 1.367 . S
C403 C405 1.433 . S
C404 C400 1.350 . S
C404 C401 1.463 1_545 S
C404 N408 1.427 . S
C405 H395 0.929 . S
C405 C403 1.433 . S
C405 N408 1.384 . S
C406 H397 0.929 . S
C406 C398 1.378 . S
C406 C401 1.350 . S
C407 H394 0.929 . S
C407 C399 1.433 . S
C407 N409 1.384 . S
N408 C404 1.427 . S
N408 C405 1.384 . S
N409 C401 1.427 . S
N409 C407 1.384 . S
H410 C416 0.930 . S
H411 C420 0.930 . S
H412 C425 0.929 . S
H413 C423 0.929 . S
H414 C418 0.929 . S
H415 C424 0.929 . S
C416 H410 0.930 . S
C416 C417 1.367 . S
C416 C424 1.378 . S
C417 C416 1.367 . S
C417 C425 1.433 . S
C418 H414 0.929 . S
C418 C420 1.378 . S
C418 C422 1.350 . S
C419 C422 1.463 . S
C419 C424 1.350 . S
C419 N427 1.427 . S
C420 H411 0.930 . S
C420 C418 1.378 . S
C420 C421 1.367 . S
C421 C420 1.367 . S
C421 C423 1.433 . S
C422 C418 1.350 . S
C422 C419 1.463 . S
C422 N426 1.427 . S
C423 H413 0.929 . S
C423 C421 1.433 . S
C423 N426 1.384 . S
C424 H415 0.929 . S
C424 C416 1.378 . S
C424 C419 1.350 . S
C425 H412 0.929 . S
C425 C417 1.433 . S
C425 N427 1.384 . S
N426 C422 1.427 . S
N426 C423 1.384 . S
N427 C419 1.427 . S
N427 C425 1.384 . S
H428 C434 0.930 . S
H429 C438 0.930 . S
H430 C443 0.929 . S
H431 C441 0.929 . S
H432 C436 0.929 . S
H433 C442 0.929 . S
C434 H428 0.930 . S
C434 C435 1.367 . S
C434 C442 1.378 . S
C435 C434 1.367 . S
C435 C443 1.433 . S
C436 H432 0.929 . S
C436 C438 1.378 . S
C436 C440 1.350 . S
C437 C440 1.463 1_565 S
C437 C442 1.350 . S
C437 N445 1.427 . S
C438 H429 0.930 . S
C438 C436 1.378 . S
C438 C439 1.367 . S
C439 C438 1.367 . S
C439 C441 1.433 . S
C440 C436 1.350 . S
C440 C437 1.463 1_545 S
C440 N444 1.427 . S
C441 H431 0.929 . S
C441 C439 1.433 . S
C441 N444 1.384 . S
C442 H433 0.929 . S
C442 C434 1.378 . S
C442 C437 1.350 . S
C443 H430 0.929 . S
C443 C435 1.433 . S
C443 N445 1.384 . S
N444 C440 1.427 . S
N444 C441 1.384 . S
N445 C437 1.427 . S
N445 C443 1.384 . S
H446 C452 0.930 . S
H447 C456 0.930 . S
H448 C461 0.929 . S
H449 C459 0.929 . S
H450 C454 0.929 . S
H451 C460 0.929 . S
C452 H446 0.930 . S
C452 C453 1.367 . S
C452 C460 1.378 . S
C453 C452 1.367 . S
C453 C461 1.433 . S
C454 H450 0.929 . S
C454 C456 1.378 . S
C454 C458 1.350 . S
C455 C458 1.463 . S
C455 C460 1.350 . S
C455 N463 1.427 . S
C456 H447 0.930 . S
C456 C454 1.378 . S
C456 C457 1.367 . S
C457 C456 1.367 . S
C457 C459 1.433 . S
C458 C454 1.350 . S
C458 C455 1.463 . S
C458 N462 1.427 . S
C459 H449 0.929 . S
C459 C457 1.433 . S
C459 N462 1.384 . S
C460 H451 0.929 . S
C460 C452 1.378 . S
C460 C455 1.350 . S
C461 H448 0.929 . S
C461 C453 1.433 . S
C461 N463 1.384 . S
N462 C458 1.427 . S
N462 C459 1.384 . S
N463 C455 1.427 . S
N463 C461 1.384 . S
H464 C470 0.930 . S
H465 C474 0.930 . S
H466 C479 0.929 . S
H467 C477 0.929 . S
H468 C472 0.929 . S
H469 C478 0.929 . S
C470 H464 0.930 . S
C470 C471 1.367 . S
C470 C478 1.378 . S
C471 C470 1.367 . S
C471 C479 1.433 1_554 S
C472 H468 0.929 . S
C472 C474 1.378 . S
C472 C476 1.350 1_556 S
C473 C476 1.463 . S
C473 C478 1.350 . S
C473 N481 1.427 1_554 S
C474 H465 0.930 . S
C474 C472 1.378 . S
C474 C475 1.367 1_556 S
C475 C474 1.367 1_554 S
C475 C477 1.433 . S
C476 C472 1.350 1_554 S
C476 C473 1.463 . S
C476 N480 1.427 . S
C477 H467 0.929 . S
C477 C475 1.433 . S
C477 N480 1.384 . S
C478 H469 0.929 . S
C478 C470 1.378 . S
C478 C473 1.350 . S
C479 H466 0.929 . S
C479 C471 1.433 1_556 S
C479 N481 1.384 . S
N480 C476 1.427 . S
N480 C477 1.384 . S
N481 C473 1.427 1_556 S
N481 C479 1.384 . S
H482 C488 0.930 . S
H483 C492 0.930 . S
H484 C497 0.929 . S
H485 C495 0.929 . S
H486 C490 0.929 . S
H487 C496 0.929 . S
C488 H482 0.930 . S
C488 C489 1.367 . S
C488 C496 1.378 . S
C489 C488 1.367 . S
C489 C497 1.433 1_554 S
C490 H486 0.929 . S
C490 C492 1.378 . S
C490 C494 1.350 1_556 S
C491 C494 1.463 1_565 S
C491 C496 1.350 . S
C491 N499 1.427 1_554 S
C492 H483 0.930 . S
C492 C490 1.378 . S
C492 C493 1.367 1_556 S
C493 C492 1.367 1_554 S
C493 C495 1.433 . S
C494 C490 1.350 1_554 S
C494 C491 1.463 1_545 S
C494 N498 1.427 . S
C495 H485 0.929 . S
C495 C493 1.433 . S
C495 N498 1.384 . S
C496 H487 0.929 . S
C496 C488 1.378 . S
C496 C491 1.350 . S
C497 H484 0.929 . S
C497 C489 1.433 1_556 S
C497 N499 1.384 . S
N498 C494 1.427 . S
N498 C495 1.384 . S
N499 C491 1.427 1_556 S
N499 C497 1.384 . S
H500 C506 0.930 . S
H501 C510 0.930 . S
H502 C515 0.929 . S
H503 C513 0.929 . S
H504 C508 0.929 . S
H505 C514 0.929 . S
C506 H500 0.930 . S
C506 C507 1.367 1_554 S
C506 C514 1.378 . S
C507 C506 1.367 1_556 S
C507 C515 1.433 . S
C508 H504 0.929 . S
C508 C510 1.378 . S
C508 C512 1.350 . S
C509 C512 1.463 . S
C509 C514 1.350 1_556 S
C509 N517 1.427 . S
C510 H501 0.930 . S
C510 C508 1.378 . S
C510 C511 1.367 . S
C511 C510 1.367 . S
C511 C513 1.433 1_556 S
C512 C508 1.350 . S
C512 C509 1.463 . S
C512 N516 1.427 1_556 S
C513 H503 0.929 . S
C513 C511 1.433 1_554 S
C513 N516 1.384 . S
C514 H505 0.929 . S
C514 C506 1.378 . S
C514 C509 1.350 1_554 S
C515 H502 0.929 . S
C515 C507 1.433 . S
C515 N517 1.384 . S
N516 C512 1.427 1_554 S
N516 C513 1.384 . S
N517 C509 1.427 . S
N517 C515 1.384 . S
H518 C524 0.930 . S
H519 C528 0.930 . S
H520 C533 0.929 . S
H521 C531 0.929 . S
H522 C526 0.929 . S
H523 C532 0.929 . S
C524 H518 0.930 . S
C524 C525 1.367 1_554 S
C524 C532 1.378 . S
C525 C524 1.367 1_556 S
C525 C533 1.433 . S
C526 H522 0.929 . S
C526 C528 1.378 . S
C526 C530 1.350 . S
C527 C530 1.463 1_545 S
C527 C532 1.350 1_556 S
C527 N535 1.427 . S
C528 H519 0.930 . S
C528 C526 1.378 . S
C528 C529 1.367 . S
C529 C528 1.367 . S
C529 C531 1.433 1_556 S
C530 C526 1.350 . S
C530 C527 1.463 1_565 S
C530 N534 1.427 1_556 S
C531 H521 0.929 . S
C531 C529 1.433 1_554 S
C531 N534 1.384 . S
C532 H523 0.929 . S
C532 C524 1.378 . S
C532 C527 1.350 1_554 S
C533 H520 0.929 . S
C533 C525 1.433 . S
C533 N535 1.384 . S
N534 C530 1.427 1_554 S
N534 C531 1.384 . S
N535 C527 1.427 . S
N535 C533 1.384 . S
H536 C542 0.930 . S
H537 C546 0.930 . S
H538 C551 0.929 . S
H539 C549 0.929 . S
H540 C544 0.929 . S
H541 C550 0.929 1_556 S
C542 H536 0.930 . S
C542 C543 1.367 . S
C542 C550 1.378 . S
C543 C542 1.367 . S
C543 C551 1.433 . S
C544 H540 0.929 . S
C544 C546 1.378 . S
C544 C548 1.350 . S
C545 C548 1.463 . S
C545 C550 1.350 1_556 S
C545 N553 1.427 1_556 S
C546 H537 0.930 . S
C546 C544 1.378 . S
C546 C547 1.367 . S
C547 C546 1.367 . S
C547 C549 1.433 . S
C548 C544 1.350 . S
C548 C545 1.463 . S
C548 N552 1.427 . S
C549 H539 0.929 . S
C549 C547 1.433 . S
C549 N552 1.384 . S
C550 H541 0.929 1_554 S
C550 C542 1.378 . S
C550 C545 1.350 1_554 S
C551 H538 0.929 . S
C551 C543 1.433 . S
C551 N553 1.384 . S
N552 C548 1.427 . S
N552 C549 1.384 . S
N553 C545 1.427 1_554 S
N553 C551 1.384 . S
H554 C560 0.930 . S
H555 C564 0.930 . S
H556 C569 0.929 . S
H557 C567 0.929 . S
H558 C562 0.929 . S
H559 C568 0.929 . S
C560 H554 0.930 . S
C560 C561 1.367 . S
C560 C568 1.378 . S
C561 C560 1.367 . S
C561 C569 1.433 . S
C562 H558 0.929 . S
C562 C564 1.378 . S
C562 C566 1.350 . S
C563 C566 1.463 . S
C563 C568 1.350 1_556 S
C563 N571 1.427 1_556 S
C564 H555 0.930 . S
C564 C562 1.378 . S
C564 C565 1.367 . S
C565 C564 1.367 . S
C565 C567 1.433 . S
C566 C562 1.350 . S
C566 C563 1.463 . S
C566 N570 1.427 . S
C567 H557 0.929 . S
C567 C565 1.433 . S
C567 N570 1.384 . S
C568 H559 0.929 . S
C568 C560 1.378 . S
C568 C563 1.350 1_554 S
C569 H556 0.929 . S
C569 C561 1.433 . S
C569 N571 1.384 . S
N570 C566 1.427 . S
N570 C567 1.384 . S
N571 C563 1.427 1_554 S
N571 C569 1.384 . S
H572 C578 0.930 . S
H573 C582 0.930 . S
H574 C587 0.929 . S
H575 C585 0.929 . S
H576 C580 0.929 . S
H577 C586 0.929 . S
C578 H572 0.930 . S
C578 C579 1.367 . S
C578 C586 1.378 . S
C579 C578 1.367 . S
C579 C587 1.433 . S
C580 H576 0.929 . S
C580 C582 1.378 . S
C580 C584 1.350 1_556 S
C581 C584 1.463 . S
C581 C586 1.350 . S
C581 N589 1.427 . S
C582 H573 0.930 . S
C582 C580 1.378 . S
C582 C583 1.367 . S
C583 C582 1.367 . S
C583 C585 1.433 . S
C584 C580 1.350 1_554 S
C584 C581 1.463 . S
C584 N588 1.427 1_554 S
C585 H575 0.929 . S
C585 C583 1.433 . S
C585 N588 1.384 . S
C586 H577 0.929 . S
C586 C578 1.378 . S
C586 C581 1.350 . S
C587 H574 0.929 . S
C587 C579 1.433 . S
C587 N589 1.384 . S
N588 C584 1.427 1_556 S
N588 C585 1.384 . S
N589 C581 1.427 . S
N589 C587 1.384 . S
H590 C596 0.930 . S
H591 C600 0.930 . S
H592 C605 0.929 . S
H593 C603 0.929 . S
H594 C598 0.929 . S
H595 C604 0.929 . S
C596 H590 0.930 . S
C596 C597 1.367 . S
C596 C604 1.378 . S
C597 C596 1.367 . S
C597 C605 1.433 . S
C598 H594 0.929 . S
C598 C600 1.378 . S
C598 C602 1.350 . S
C599 C602 1.463 . S
C599 C604 1.350 1_554 S
C599 N607 1.427 1_554 S
C600 H591 0.930 . S
C600 C598 1.378 . S
C600 C601 1.367 . S
C601 C600 1.367 . S
C601 C603 1.433 . S
C602 C598 1.350 . S
C602 C599 1.463 . S
C602 N606 1.427 . S
C603 H593 0.929 . S
C603 C601 1.433 . S
C603 N606 1.384 . S
C604 H595 0.929 . S
C604 C596 1.378 . S
C604 C599 1.350 1_556 S
C605 H592 0.929 . S
C605 C597 1.433 . S
C605 N607 1.384 . S
N606 C602 1.427 . S
N606 C603 1.384 . S
N607 C599 1.427 1_556 S
N607 C605 1.384 . S
H608 C614 0.930 . S
H609 C618 0.930 . S
H610 C623 0.929 . S
H611 C621 0.929 . S
H612 C616 0.929 . S
H613 C622 0.929 . S
C614 H608 0.930 . S
C614 C615 1.367 . S
C614 C622 1.378 . S
C615 C614 1.367 . S
C615 C623 1.433 . S
C616 H612 0.929 . S
C616 C618 1.378 . S
C616 C620 1.350 . S
C617 C620 1.463 . S
C617 C622 1.350 . S
C617 N625 1.427 . S
C618 H609 0.930 . S
C618 C616 1.378 . S
C618 C619 1.367 . S
C619 C618 1.367 . S
C619 C621 1.433 . S
C620 C616 1.350 . S
C620 C617 1.463 . S
C620 N624 1.427 . S
C621 H611 0.929 . S
C621 C619 1.433 . S
C621 N624 1.384 . S
C622 H613 0.929 . S
C622 C614 1.378 . S
C622 C617 1.350 . S
C623 H610 0.929 . S
C623 C615 1.433 . S
C623 N625 1.384 . S
N624 C620 1.427 . S
N624 C621 1.384 . S
N625 C617 1.427 . S
N625 C623 1.384 . S
H626 C632 0.930 . S
H627 C636 0.930 . S
H628 C641 0.929 . S
H629 C639 0.929 . S
H630 C634 0.929 . S
H631 C640 0.929 . S
C632 H626 0.930 . S
C632 C633 1.367 . S
C632 C640 1.378 . S
C633 C632 1.367 . S
C633 C641 1.433 . S
C634 H630 0.929 . S
C634 C636 1.378 . S
C634 C638 1.350 . S
C635 C638 1.463 . S
C635 C640 1.350 . S
C635 N643 1.427 . S
C636 H627 0.930 . S
C636 C634 1.378 . S
C636 C637 1.367 . S
C637 C636 1.367 . S
C637 C639 1.433 . S
C638 C634 1.350 . S
C638 C635 1.463 . S
C638 N642 1.427 . S
C639 H629 0.929 . S
C639 C637 1.433 . S
C639 N642 1.384 . S
C640 H631 0.929 . S
C640 C632 1.378 . S
C640 C635 1.350 . S
C641 H628 0.929 . S
C641 C633 1.433 . S
C641 N643 1.384 . S
N642 C638 1.427 . S
N642 C639 1.384 . S
N643 C635 1.427 . S
N643 C641 1.384 . S
H644 C650 0.930 . S
H645 C654 0.930 . S
H646 C659 0.929 . S
H647 C657 0.929 . S
H648 C652 0.929 . S
H649 C658 0.929 . S
C650 H644 0.930 . S
C650 C651 1.367 . S
C650 C658 1.378 . S
C651 C650 1.367 . S
C651 C659 1.433 . S
C652 H648 0.929 . S
C652 C654 1.378 . S
C652 C656 1.350 . S
C653 C656 1.463 . S
C653 C658 1.350 . S
C653 N661 1.427 . S
C654 H645 0.930 . S
C654 C652 1.378 . S
C654 C655 1.367 . S
C655 C654 1.367 . S
C655 C657 1.433 . S
C656 C652 1.350 . S
C656 C653 1.463 . S
C656 N660 1.427 . S
C657 H647 0.929 . S
C657 C655 1.433 . S
C657 N660 1.384 . S
C658 H649 0.929 . S
C658 C650 1.378 . S
C658 C653 1.350 . S
C659 H646 0.929 . S
C659 C651 1.433 . S
C659 N661 1.384 . S
N660 C656 1.427 . S
N660 C657 1.384 . S
N661 C653 1.427 . S
N661 C659 1.384 . S
H662 C668 0.930 . S
H663 C672 0.930 . S
H664 C677 0.929 . S
H665 C675 0.929 . S
H666 C670 0.929 . S
H667 C676 0.929 . S
C668 H662 0.930 . S
C668 C669 1.367 . S
C668 C676 1.378 . S
C669 C668 1.367 . S
C669 C677 1.433 . S
C670 H666 0.929 . S
C670 C672 1.378 . S
C670 C674 1.350 . S
C671 C674 1.463 . S
C671 C676 1.350 . S
C671 N679 1.427 . S
C672 H663 0.930 . S
C672 C670 1.378 . S
C672 C673 1.367 . S
C673 C672 1.367 . S
C673 C675 1.433 . S
C674 C670 1.350 . S
C674 C671 1.463 . S
C674 N678 1.427 . S
C675 H665 0.929 . S
C675 C673 1.433 . S
C675 N678 1.384 . S
C676 H667 0.929 . S
C676 C668 1.378 . S
C676 C671 1.350 . S
C677 H664 0.929 . S
C677 C669 1.433 . S
C677 N679 1.384 . S
N678 C674 1.427 . S
N678 C675 1.384 . S
N679 C671 1.427 . S
N679 C677 1.384 . S
H680 C686 0.930 . S
H681 C690 0.930 . S
H682 C695 0.929 . S
H683 C693 0.929 . S
H684 C688 0.929 . S
H685 C694 0.929 . S
C686 H680 0.930 . S
C686 C687 1.367 . S
C686 C694 1.378 . S
C687 C686 1.367 . S
C687 C695 1.433 . S
C688 H684 0.929 . S
C688 C690 1.378 . S
C688 C692 1.350 . S
C689 C692 1.463 1_455 S
C689 C694 1.350 . S
C689 N697 1.427 . S
C690 H681 0.930 . S
C690 C688 1.378 . S
C690 C691 1.367 . S
C691 C690 1.367 . S
C691 C693 1.433 . S
C692 C688 1.350 . S
C692 C689 1.463 1_655 S
C692 N696 1.427 . S
C693 H683 0.929 . S
C693 C691 1.433 . S
C693 N696 1.384 . S
C694 H685 0.929 . S
C694 C686 1.378 . S
C694 C689 1.350 . S
C695 H682 0.929 . S
C695 C687 1.433 . S
C695 N697 1.384 . S
N696 C692 1.427 . S
N696 C693 1.384 . S
N697 C689 1.427 . S
N697 C695 1.384 . S
H698 C704 0.930 . S
H699 C708 0.930 . S
H700 C713 0.929 . S
H701 C711 0.929 . S
H702 C706 0.929 . S
H703 C712 0.929 . S
C704 H698 0.930 . S
C704 C705 1.367 . S
C704 C712 1.378 . S
C705 C704 1.367 . S
C705 C713 1.433 . S
C706 H702 0.929 . S
C706 C708 1.378 . S
C706 C710 1.350 . S
C707 C710 1.463 1_655 S
C707 C712 1.350 . S
C707 N715 1.427 . S
C708 H699 0.930 . S
C708 C706 1.378 . S
C708 C709 1.367 . S
C709 C708 1.367 . S
C709 C711 1.433 . S
C710 C706 1.350 . S
C710 C707 1.463 1_455 S
C710 N714 1.427 . S
C711 H701 0.929 . S
C711 C709 1.433 . S
C711 N714 1.384 . S
C712 H703 0.929 . S
C712 C704 1.378 . S
C712 C707 1.350 . S
C713 H700 0.929 . S
C713 C705 1.433 . S
C713 N715 1.384 . S
N714 C710 1.427 . S
N714 C711 1.384 . S
N715 C707 1.427 . S
N715 C713 1.384 . S
H716 C722 0.930 . S
H717 C726 0.930 . S
H718 C731 0.929 . S
H719 C729 0.929 . S
H720 C724 0.929 . S
H721 C730 0.929 . S
C722 H716 0.930 . S
C722 C723 1.367 . S
C722 C730 1.378 . S
C723 C722 1.367 . S
C723 C731 1.433 . S
C724 H720 0.929 . S
C724 C726 1.378 . S
C724 C728 1.350 . S
C725 C728 1.463 . S
C725 C730 1.350 . S
C725 N733 1.427 . S
C726 H717 0.930 . S
C726 C724 1.378 . S
C726 C727 1.367 . S
C727 C726 1.367 . S
C727 C729 1.433 . S
C728 C724 1.350 . S
C728 C725 1.463 . S
C728 N732 1.427 . S
C729 H719 0.929 . S
C729 C727 1.433 . S
C729 N732 1.384 . S
C730 H721 0.929 . S
C730 C722 1.378 . S
C730 C725 1.350 . S
C731 H718 0.929 . S
C731 C723 1.433 . S
C731 N733 1.384 . S
N732 C728 1.427 . S
N732 C729 1.384 . S
N733 C725 1.427 . S
N733 C731 1.384 . S
H734 C740 0.930 . S
H735 C744 0.930 . S
H736 C749 0.929 . S
H737 C747 0.929 . S
H738 C742 0.929 . S
H739 C748 0.929 . S
C740 H734 0.930 . S
C740 C741 1.367 . S
C740 C748 1.378 . S
C741 C740 1.367 . S
C741 C749 1.433 . S
C742 H738 0.929 . S
C742 C744 1.378 . S
C742 C746 1.350 . S
C743 C746 1.463 . S
C743 C748 1.350 . S
C743 N751 1.427 . S
C744 H735 0.930 . S
C744 C742 1.378 . S
C744 C745 1.367 . S
C745 C744 1.367 . S
C745 C747 1.433 . S
C746 C742 1.350 . S
C746 C743 1.463 . S
C746 N750 1.427 . S
C747 H737 0.929 . S
C747 C745 1.433 . S
C747 N750 1.384 . S
C748 H739 0.929 . S
C748 C740 1.378 . S
C748 C743 1.350 . S
C749 H736 0.929 . S
C749 C741 1.433 . S
C749 N751 1.384 . S
N750 C746 1.427 . S
N750 C747 1.384 . S
N751 C743 1.427 . S
N751 C749 1.384 . S
C327 C4 1.627 . S
C331 C305 1.627 . S
C345 C265 1.628 . S
C349 C44 1.628 . S
C363 C204 1.628 . S
C367 C105 1.628 . S
C381 C164 1.627 . S
C385 C145 1.626 . S
C399 C103 1.518 . S
C403 C23 1.528 . S
C417 C63 1.538 . S
C421 C143 1.528 . S
C435 C122 1.537 . S
C439 C42 1.525 . S
C453 C82 1.536 . S
C457 C2 1.524 . S
C471 C183 1.468 . S
C475 C263 1.466 . S
C489 C223 1.459 . S
C493 C303 1.458 . S
C507 C282 1.459 . S
C511 C202 1.461 . S
C525 C242 1.460 . S
C529 C162 1.462 . S
C543 C31 1.907 . S
C547 C20 1.907 . S
C561 C71 1.903 . S
C565 C60 1.903 . S
C579 C111 1.902 . S
C583 C100 1.902 . S
C597 C140 1.898 . S
C601 C151 1.898 . S
C615 C180 1.905 . S
C619 C191 1.905 . S
C633 C231 1.899 . S
C637 C220 1.899 . S
C651 C260 1.907 . S
C655 C271 1.907 . S
C669 C300 1.906 . S
C673 C311 1.906 . S
C687 C25 2.115 . S
C691 C65 2.110 . S
C705 C124 2.111 . S
C709 C84 2.115 . S
C723 C185 2.110 . S
C727 C225 2.116 . S
C741 C284 2.115 . S
C745 C244 2.111 . S
