# Generated by pormake.
# Topology wlr, (5)-cn, num edge types: 1
# Building blocks:
#     Node 0, Type 0, BuildingBlock: BEQFEK_clean_sbu_0, # of connection points: 5
#     Node 1, Type 0, BuildingBlock: BEQFEK_clean_sbu_0, # of connection points: 5
#     Node 2, Type 0, BuildingBlock: BEQFEK_clean_sbu_0, # of connection points: 5
#     Node 3, Type 0, BuildingBlock: BEQFEK_clean_sbu_0, # of connection points: 5
#     Node 4, Type 0, BuildingBlock: BEQFEK_clean_sbu_0, # of connection points: 5
#     Node 5, Type 0, BuildingBlock: BEQFEK_clean_sbu_0, # of connection points: 5
#     Node 6, Type 0, BuildingBlock: BEQFEK_clean_sbu_0, # of connection points: 5
#     Node 7, Type 0, BuildingBlock: BEQFEK_clean_sbu_0, # of connection points: 5
#     Node 8, Type 0, BuildingBlock: BEQFEK_clean_sbu_0, # of connection points: 5
#     Node 9, Type 0, BuildingBlock: BEQFEK_clean_sbu_0, # of connection points: 5
#     Node 10, Type 0, BuildingBlock: BEQFEK_clean_sbu_0, # of connection points: 5
#     Node 11, Type 0, BuildingBlock: BEQFEK_clean_sbu_0, # of connection points: 5
#     Node 12, Type 0, BuildingBlock: BEQFEK_clean_sbu_0, # of connection points: 5
#     Node 13, Type 0, BuildingBlock: BEQFEK_clean_sbu_0, # of connection points: 5
#     Node 14, Type 0, BuildingBlock: BEQFEK_clean_sbu_0, # of connection points: 5
#     Node 15, Type 0, BuildingBlock: BEQFEK_clean_sbu_0, # of connection points: 5
#     Node 16, Type 0, BuildingBlock: BEQFEK_clean_sbu_0, # of connection points: 5
#     Node 17, Type 0, BuildingBlock: BEQFEK_clean_sbu_0, # of connection points: 5
#     Node 18, Type 0, BuildingBlock: BEQFEK_clean_sbu_0, # of connection points: 5
#     Node 19, Type 0, BuildingBlock: BEQFEK_clean_sbu_0, # of connection points: 5
#     Node 20, Type 0, BuildingBlock: BEQFEK_clean_sbu_0, # of connection points: 5
#     Node 21, Type 0, BuildingBlock: BEQFEK_clean_sbu_0, # of connection points: 5
#     Node 22, Type 0, BuildingBlock: BEQFEK_clean_sbu_0, # of connection points: 5
#     Node 23, Type 0, BuildingBlock: BEQFEK_clean_sbu_0, # of connection points: 5
#     Node 24, Type 0, BuildingBlock: BEQFEK_clean_sbu_0, # of connection points: 5
#     Node 25, Type 0, BuildingBlock: BEQFEK_clean_sbu_0, # of connection points: 5
#     Node 26, Type 0, BuildingBlock: BEQFEK_clean_sbu_0, # of connection points: 5
#     Node 27, Type 0, BuildingBlock: BEQFEK_clean_sbu_0, # of connection points: 5
#     Node 28, Type 0, BuildingBlock: BEQFEK_clean_sbu_0, # of connection points: 5
#     Node 29, Type 0, BuildingBlock: BEQFEK_clean_sbu_0, # of connection points: 5
#     Node 30, Type 0, BuildingBlock: BEQFEK_clean_sbu_0, # of connection points: 5
#     Node 31, Type 0, BuildingBlock: BEQFEK_clean_sbu_0, # of connection points: 5
#     Node 32, Type 0, BuildingBlock: BEQFEK_clean_sbu_0, # of connection points: 5
#     Node 33, Type 0, BuildingBlock: BEQFEK_clean_sbu_0, # of connection points: 5
#     Node 34, Type 0, BuildingBlock: BEQFEK_clean_sbu_0, # of connection points: 5
#     Node 35, Type 0, BuildingBlock: BEQFEK_clean_sbu_0, # of connection points: 5
#     Edge 36, Type (0, 0), BuildingBlock: EZIPEK_clean_linker_0, # of connection points: 2
#     Edge 37, Type (0, 0), BuildingBlock: EZIPEK_clean_linker_0, # of connection points: 2
#     Edge 38, Type (0, 0), BuildingBlock: EZIPEK_clean_linker_0, # of connection points: 2
#     Edge 39, Type (0, 0), BuildingBlock: EZIPEK_clean_linker_0, # of connection points: 2
#     Edge 40, Type (0, 0), BuildingBlock: EZIPEK_clean_linker_0, # of connection points: 2
#     Edge 41, Type (0, 0), BuildingBlock: EZIPEK_clean_linker_0, # of connection points: 2
#     Edge 42, Type (0, 0), BuildingBlock: EZIPEK_clean_linker_0, # of connection points: 2
#     Edge 43, Type (0, 0), BuildingBlock: EZIPEK_clean_linker_0, # of connection points: 2
#     Edge 44, Type (0, 0), BuildingBlock: EZIPEK_clean_linker_0, # of connection points: 2
#     Edge 45, Type (0, 0), BuildingBlock: EZIPEK_clean_linker_0, # of connection points: 2
#     Edge 46, Type (0, 0), BuildingBlock: EZIPEK_clean_linker_0, # of connection points: 2
#     Edge 47, Type (0, 0), BuildingBlock: EZIPEK_clean_linker_0, # of connection points: 2
#     Edge 48, Type (0, 0), BuildingBlock: EZIPEK_clean_linker_0, # of connection points: 2
#     Edge 49, Type (0, 0), BuildingBlock: EZIPEK_clean_linker_0, # of connection points: 2
#     Edge 50, Type (0, 0), BuildingBlock: EZIPEK_clean_linker_0, # of connection points: 2
#     Edge 51, Type (0, 0), BuildingBlock: EZIPEK_clean_linker_0, # of connection points: 2
#     Edge 52, Type (0, 0), BuildingBlock: EZIPEK_clean_linker_0, # of connection points: 2
#     Edge 53, Type (0, 0), BuildingBlock: EZIPEK_clean_linker_0, # of connection points: 2
#     Edge 54, Type (0, 0), BuildingBlock: EZIPEK_clean_linker_0, # of connection points: 2
#     Edge 55, Type (0, 0), BuildingBlock: EZIPEK_clean_linker_0, # of connection points: 2
#     Edge 56, Type (0, 0), BuildingBlock: EZIPEK_clean_linker_0, # of connection points: 2
#     Edge 57, Type (0, 0), BuildingBlock: EZIPEK_clean_linker_0, # of connection points: 2
#     Edge 58, Type (0, 0), BuildingBlock: EZIPEK_clean_linker_0, # of connection points: 2
#     Edge 59, Type (0, 0), BuildingBlock: EZIPEK_clean_linker_0, # of connection points: 2
#     Edge 60, Type (0, 0), BuildingBlock: EZIPEK_clean_linker_0, # of connection points: 2
#     Edge 61, Type (0, 0), BuildingBlock: EZIPEK_clean_linker_0, # of connection points: 2
#     Edge 62, Type (0, 0), BuildingBlock: EZIPEK_clean_linker_0, # of connection points: 2
#     Edge 63, Type (0, 0), BuildingBlock: EZIPEK_clean_linker_0, # of connection points: 2
#     Edge 64, Type (0, 0), BuildingBlock: EZIPEK_clean_linker_0, # of connection points: 2
#     Edge 65, Type (0, 0), BuildingBlock: EZIPEK_clean_linker_0, # of connection points: 2
#     Edge 66, Type (0, 0), BuildingBlock: EZIPEK_clean_linker_0, # of connection points: 2
#     Edge 67, Type (0, 0), BuildingBlock: EZIPEK_clean_linker_0, # of connection points: 2
#     Edge 68, Type (0, 0), BuildingBlock: EZIPEK_clean_linker_0, # of connection points: 2
#     Edge 69, Type (0, 0), BuildingBlock: EZIPEK_clean_linker_0, # of connection points: 2
#     Edge 70, Type (0, 0), BuildingBlock: EZIPEK_clean_linker_0, # of connection points: 2
#     Edge 71, Type (0, 0), BuildingBlock: EZIPEK_clean_linker_0, # of connection points: 2
#     Edge 72, Type (0, 0), BuildingBlock: EZIPEK_clean_linker_0, # of connection points: 2
#     Edge 73, Type (0, 0), BuildingBlock: EZIPEK_clean_linker_0, # of connection points: 2
#     Edge 74, Type (0, 0), BuildingBlock: EZIPEK_clean_linker_0, # of connection points: 2
#     Edge 75, Type (0, 0), BuildingBlock: EZIPEK_clean_linker_0, # of connection points: 2
#     Edge 76, Type (0, 0), BuildingBlock: EZIPEK_clean_linker_0, # of connection points: 2
#     Edge 77, Type (0, 0), BuildingBlock: EZIPEK_clean_linker_0, # of connection points: 2
#     Edge 78, Type (0, 0), BuildingBlock: EZIPEK_clean_linker_0, # of connection points: 2
#     Edge 79, Type (0, 0), BuildingBlock: EZIPEK_clean_linker_0, # of connection points: 2
#     Edge 80, Type (0, 0), BuildingBlock: EZIPEK_clean_linker_0, # of connection points: 2
#     Edge 81, Type (0, 0), BuildingBlock: EZIPEK_clean_linker_0, # of connection points: 2
#     Edge 82, Type (0, 0), BuildingBlock: EZIPEK_clean_linker_0, # of connection points: 2
#     Edge 83, Type (0, 0), BuildingBlock: EZIPEK_clean_linker_0, # of connection points: 2
#     Edge 84, Type (0, 0), BuildingBlock: EZIPEK_clean_linker_0, # of connection points: 2
#     Edge 85, Type (0, 0), BuildingBlock: EZIPEK_clean_linker_0, # of connection points: 2
#     Edge 86, Type (0, 0), BuildingBlock: EZIPEK_clean_linker_0, # of connection points: 2
#     Edge 87, Type (0, 0), BuildingBlock: EZIPEK_clean_linker_0, # of connection points: 2
#     Edge 88, Type (0, 0), BuildingBlock: EZIPEK_clean_linker_0, # of connection points: 2
#     Edge 89, Type (0, 0), BuildingBlock: EZIPEK_clean_linker_0, # of connection points: 2
#     Edge 90, Type (0, 0), BuildingBlock: EZIPEK_clean_linker_0, # of connection points: 2
#     Edge 91, Type (0, 0), BuildingBlock: EZIPEK_clean_linker_0, # of connection points: 2
#     Edge 92, Type (0, 0), BuildingBlock: EZIPEK_clean_linker_0, # of connection points: 2
#     Edge 93, Type (0, 0), BuildingBlock: EZIPEK_clean_linker_0, # of connection points: 2
#     Edge 94, Type (0, 0), BuildingBlock: EZIPEK_clean_linker_0, # of connection points: 2
#     Edge 95, Type (0, 0), BuildingBlock: EZIPEK_clean_linker_0, # of connection points: 2
#     Edge 96, Type (0, 0), BuildingBlock: EZIPEK_clean_linker_0, # of connection points: 2
#     Edge 97, Type (0, 0), BuildingBlock: EZIPEK_clean_linker_0, # of connection points: 2
#     Edge 98, Type (0, 0), BuildingBlock: EZIPEK_clean_linker_0, # of connection points: 2
#     Edge 99, Type (0, 0), BuildingBlock: EZIPEK_clean_linker_0, # of connection points: 2
#     Edge 100, Type (0, 0), BuildingBlock: EZIPEK_clean_linker_0, # of connection points: 2
#     Edge 101, Type (0, 0), BuildingBlock: EZIPEK_clean_linker_0, # of connection points: 2
#     Edge 102, Type (0, 0), BuildingBlock: EZIPEK_clean_linker_0, # of connection points: 2
#     Edge 103, Type (0, 0), BuildingBlock: EZIPEK_clean_linker_0, # of connection points: 2
#     Edge 104, Type (0, 0), BuildingBlock: EZIPEK_clean_linker_0, # of connection points: 2
#     Edge 105, Type (0, 0), BuildingBlock: EZIPEK_clean_linker_0, # of connection points: 2
#     Edge 106, Type (0, 0), BuildingBlock: EZIPEK_clean_linker_0, # of connection points: 2
#     Edge 107, Type (0, 0), BuildingBlock: EZIPEK_clean_linker_0, # of connection points: 2
#     Edge 108, Type (0, 0), BuildingBlock: EZIPEK_clean_linker_0, # of connection points: 2
#     Edge 109, Type (0, 0), BuildingBlock: EZIPEK_clean_linker_0, # of connection points: 2
#     Edge 110, Type (0, 0), BuildingBlock: EZIPEK_clean_linker_0, # of connection points: 2
#     Edge 111, Type (0, 0), BuildingBlock: EZIPEK_clean_linker_0, # of connection points: 2
#     Edge 112, Type (0, 0), BuildingBlock: EZIPEK_clean_linker_0, # of connection points: 2
#     Edge 113, Type (0, 0), BuildingBlock: EZIPEK_clean_linker_0, # of connection points: 2
#     Edge 114, Type (0, 0), BuildingBlock: EZIPEK_clean_linker_0, # of connection points: 2
#     Edge 115, Type (0, 0), BuildingBlock: EZIPEK_clean_linker_0, # of connection points: 2
#     Edge 116, Type (0, 0), BuildingBlock: EZIPEK_clean_linker_0, # of connection points: 2
#     Edge 117, Type (0, 0), BuildingBlock: EZIPEK_clean_linker_0, # of connection points: 2
#     Edge 118, Type (0, 0), BuildingBlock: EZIPEK_clean_linker_0, # of connection points: 2
#     Edge 119, Type (0, 0), BuildingBlock: EZIPEK_clean_linker_0, # of connection points: 2
#     Edge 120, Type (0, 0), BuildingBlock: EZIPEK_clean_linker_0, # of connection points: 2
#     Edge 121, Type (0, 0), BuildingBlock: EZIPEK_clean_linker_0, # of connection points: 2
#     Edge 122, Type (0, 0), BuildingBlock: EZIPEK_clean_linker_0, # of connection points: 2
#     Edge 123, Type (0, 0), BuildingBlock: EZIPEK_clean_linker_0, # of connection points: 2
#     Edge 124, Type (0, 0), BuildingBlock: EZIPEK_clean_linker_0, # of connection points: 2
#     Edge 125, Type (0, 0), BuildingBlock: EZIPEK_clean_linker_0, # of connection points: 2
# Relax obj value: 0.130
# Max RMSD: 0.117
# Mean RMSD: 0.117
data_MOF--net-wlr--node1-BEQFEK_clean_sbu_0--edge1-EZIPEK_clean_linker_0
_symmetry_space_group_name_H-M    P1
_symmetry_Int_Tables_number       1
_symmetry_cell_setting            triclinic
loop_
_symmetry_equiv_pos_as_xyz
'x, y, z'
_cell_length_a     57.103641
_cell_length_b     57.02991
_cell_length_c     30.604766
_cell_angle_alpha  89.960211
_cell_angle_beta   90.062745
_cell_angle_gamma 119.9333
loop_
_atom_site_label
_atom_site_type_symbol
_atom_site_fract_x
_atom_site_fract_y
_atom_site_fract_z
_atom_type_partial_charge
Co0 Co 0.29626 0.21603 0.08038 0.0
Co1 Co 0.24461 0.2125 0.03869 0.0
C2 C 0.3013 0.24404 0.99616 0.0
O3 O 0.31146 0.23819 0.02837 0.0
O4 O 0.2758 0.23581 0.99456 0.0
C5 C 0.34482 0.21793 0.13532 0.0
O6 O 0.36538 0.24155 0.14618 0.0
C7 C 0.20158 0.2276 0.01592 0.0
C8 C 0.1656 0.18672 0.01574 0.0
C9 C 0.1735 0.21375 0.01109 0.0
N10 N 0.2098 0.20942 0.02348 0.0
N11 N 0.188 0.18508 0.02297 0.0
C12 C 0.21994 0.25754 0.01464 0.0
H13 H 0.24066 0.26295 0.02514 0.0
H14 H 0.21186 0.26757 0.03601 0.0
H15 H 0.22059 0.26486 0.98081 0.0
C16 C 0.27919 0.23549 0.15736 0.0
N17 N 0.27639 0.22743 0.11523 0.0
N18 N 0.25363 0.22454 0.09942 0.0
C19 C 0.24073 0.22959 0.13218 0.0
C20 C 0.25644 0.23643 0.17011 0.0
C21 C 0.30297 0.24193 0.18599 0.0
H22 H 0.32005 0.24374 0.167 0.0
H23 H 0.31034 0.26155 0.20266 0.0
H24 H 0.2969 0.22637 0.21194 0.0
O25 O 0.27483 0.17781 0.06338 0.0
O26 O 0.23765 0.17395 0.03388 0.0
H27 H 0.19934 0.20784 0.11216 0.0
H28 H 0.20561 0.22903 0.15988 0.0
C29 C 0.21367 0.22739 0.12776 0.0
H30 H 0.21564 0.244 0.10651 0.0
H31 H 0.18826 0.16718 0.0286 0.0
O32 O 0.32559 0.21708 0.11362 0.0
C33 C 0.25206 0.16358 0.04513 0.0
Co34 Co 0.79881 0.08447 0.08057 0.0
Co35 Co 0.79984 0.03582 0.03651 0.0
C36 C 0.76897 0.06263 0.99711 0.0
O37 O 0.77534 0.07809 0.03022 0.0
O38 O 0.77652 0.04482 0.99396 0.0
C39 C 0.81383 0.13658 0.10339 0.0
O40 O 0.81926 0.14132 0.06155 0.0
C41 C 0.78491 0.97833 1.00885 0.0
C42 C 0.82479 0.98169 0.01907 0.0
C43 C 0.79844 0.96352 1.00742 0.0
N44 N 0.80261 1.004 0.02126 0.0
N45 N 0.82637 1.00564 0.02687 0.0
C46 C 0.75575 0.96821 0.99917 0.0
H47 H 0.74481 0.96599 0.03019 0.0
H48 H 0.74642 0.94834 0.98227 0.0
H49 H 0.75377 0.98324 0.97882 0.0
C50 C 0.78441 0.05039 0.15844 0.0
N51 N 0.78906 0.05397 0.11512 0.0
N52 N 0.78902 0.03283 0.09798 0.0
C53 C 0.78396 0.0148 0.1307 0.0
C54 C 0.78095 0.0254 0.17016 0.0
C55 C 0.78543 0.07155 0.18862 0.0
H56 H 0.8058 0.08981 0.18697 0.0
H57 H 0.77043 0.07732 0.17791 0.0
H58 H 0.78128 0.06448 0.22299 0.0
O59 O 0.83633 0.10055 0.06169 0.0
O60 O 0.83869 0.06684 0.03051 0.0
H61 H 0.80114 0.99096 0.10954 0.0
H62 H 0.77876 0.9771 0.15612 0.0
C63 C 0.78225 0.98806 0.12468 0.0
H64 H 0.76524 0.97581 0.10227 0.0
H65 H 0.84371 0.02307 0.0373 0.0
O66 O 0.80038 0.11251 0.11712 0.0
C67 C 0.84979 0.09157 0.04233 0.0
Co68 Co 0.93392 0.72308 0.08411 0.0
Co69 Co 0.9799 0.77158 0.03335 0.0
C70 C 0.95196 0.71217 0.99915 0.0
O71 O 0.93741 0.7039 0.03345 0.0
O72 O 0.96982 0.7374 0.99448 0.0
C73 C 0.89115 0.67695 0.13998 0.0
O74 O 0.89971 0.6595 0.13648 0.0
C75 C 0.03818 0.81422 0.0119 0.0
C76 C 0.03138 0.84712 0.98925 0.0
C77 C 0.05156 0.84119 0.99814 0.0
N78 N 0.01123 0.80487 0.01183 0.0
N79 N 1.00758 0.82478 0.99778 0.0
C80 C 0.05087 0.79774 0.02425 0.0
H81 H 0.03614 0.77903 0.0416 0.0
H82 H 0.069 0.80986 0.04485 0.0
H83 H 0.05765 0.79206 0.99412 0.0
C84 C 0.97355 0.74273 0.15613 0.0
N85 N 0.96659 0.74381 0.11437 0.0
N86 N 0.98477 0.76666 0.09624 0.0
C87 C 1.00287 0.78166 0.12787 0.0
C88 C 0.99629 0.76688 0.16685 0.0
C89 C 0.9594 0.71878 0.18558 0.0
H90 H 0.95368 0.7248 0.21647 0.0
H91 H 0.9418 0.70211 0.16928 0.0
H92 H 0.97334 0.71129 0.19443 0.0
O93 O 0.91869 0.74576 0.06562 0.0
O94 O 0.94864 0.77847 0.02456 0.0
H95 H 0.01975 0.82044 0.09706 0.0
H96 H 0.03033 0.82138 0.1532 0.0
C97 C 0.02535 0.81 0.12199 0.0
H98 H 0.04364 0.80955 0.11133 0.0
H99 H 0.98874 0.8234 0.99481 0.0
O100 O 0.90379 0.6999 0.12191 0.0
C101 C 0.92513 0.76604 0.04133 0.0
Co102 Co 0.22132 0.29519 0.44342 0.0
Co103 Co 0.22015 0.24478 0.48527 0.0
C104 C 0.25106 0.30252 0.52594 0.0
O105 O 0.24463 0.31227 0.49373 0.0
O106 O 0.24332 0.27707 0.52801 0.0
C107 C 0.21982 0.34094 0.38939 0.0
O108 O 0.245 0.36011 0.38347 0.0
C109 C 0.23601 0.20254 0.51123 0.0
C110 C 0.19598 0.16591 0.5031 0.0
C111 C 0.22255 0.17425 0.51331 0.0
N112 N 0.21803 0.21037 0.49982 0.0
N113 N 0.1942 0.18818 0.49541 0.0
C114 C 0.26536 0.22157 0.51934 0.0
H115 H 0.26881 0.24198 0.52777 0.0
H116 H 0.27696 0.22324 0.48933 0.0
H117 H 0.27283 0.21372 0.54591 0.0
C118 C 0.23988 0.27802 0.3652 0.0
N119 N 0.23271 0.27567 0.40773 0.0
N120 N 0.2308 0.25339 0.42392 0.0
C121 C 0.23574 0.24042 0.39114 0.0
C122 C 0.24127 0.25544 0.35266 0.0
C123 C 0.24547 0.30142 0.33631 0.0
H124 H 0.24441 0.31733 0.35469 0.0
H125 H 0.26611 0.31069 0.32268 0.0
H126 H 0.23124 0.29435 0.30826 0.0
O127 O 0.18411 0.27255 0.46334 0.0
O128 O 0.18128 0.23586 0.4923 0.0
H129 H 0.21589 0.19884 0.4103 0.0
H130 H 0.2392 0.20704 0.36505 0.0
C131 C 0.23553 0.21434 0.39649 0.0
H132 H 0.25173 0.21769 0.4198 0.0
H133 H 0.17662 0.18812 0.48597 0.0
O134 O 0.21443 0.31984 0.41045 0.0
C135 C 0.1704 0.24981 0.48164 0.0
Co136 Co 0.72211 0.92759 0.44167 0.0
Co137 Co 0.77345 0.97581 0.48313 0.0
C138 C 0.71674 0.95074 0.52572 0.0
O139 O 0.70662 0.93473 0.49345 0.0
O140 O 0.74224 0.96813 0.5273 0.0
C141 C 0.68352 0.87577 0.42024 0.0
O142 O 0.68526 0.87109 0.46182 0.0
C143 C 0.81815 0.03348 0.50511 0.0
C144 C 0.85324 0.02719 0.50075 0.0
C145 C 0.84635 0.04692 0.50741 0.0
N146 N 0.80888 0.00695 0.49698 0.0
N147 N 0.83018 1.0036 0.49475 0.0
C148 C 0.80061 0.0459 0.50935 0.0
H149 H 0.77937 0.03104 0.5007 0.0
H150 H 0.80834 0.06399 0.48796 0.0
H151 H 0.8015 0.05277 0.54354 0.0
C152 C 0.74074 0.96133 0.36317 0.0
N153 N 0.74268 0.95787 0.40633 0.0
N154 N 0.76451 0.97871 0.42234 0.0
C155 C 0.77713 0.99636 0.38907 0.0
C156 C 0.76246 0.98587 0.35041 0.0
C157 C 0.71959 0.94037 0.33399 0.0
H158 H 0.72114 0.92174 0.33508 0.0
H159 H 0.69927 0.93525 0.34607 0.0
H160 H 0.72183 0.9473 0.29961 0.0
O161 O 0.74308 0.91055 0.4589 0.0
O162 O 0.78007 0.94393 0.48838 0.0
H163 H 0.81867 0.01818 0.40765 0.0
H164 H 0.81035 0.03278 0.36176 0.0
C165 C 0.80318 0.0223 0.39362 0.0
H166 H 0.80022 0.03569 0.41638 0.0
H167 H 0.82911 0.98517 0.48794 0.0
O168 O 0.69433 0.89983 0.40634 0.0
C169 C 0.76581 0.91917 0.47714 0.0
Co170 Co 0.08991 0.80388 0.44407 0.0
Co171 Co 0.03899 0.80189 0.48305 0.0
C172 C 0.0642 0.77012 0.52377 0.0
O173 O 0.08246 0.77963 0.49447 0.0
O174 O 0.04498 0.77575 0.5232 0.0
C175 C 0.13368 0.79626 0.4062 0.0
O176 O 0.13038 0.7765 0.43215 0.0
C177 C 0.98053 0.78544 0.50395 0.0
C178 C 0.98457 0.82604 0.50477 0.0
C179 C 0.96592 0.79888 0.50895 0.0
N180 N 1.00675 0.80399 0.49679 0.0
N181 N 0.00878 0.82814 0.49754 0.0
C182 C 0.96959 0.75559 0.50555 0.0
H183 H 0.9853 0.75056 0.49587 0.0
H184 H 0.95178 0.74525 0.48363 0.0
H185 H 0.96264 0.74826 0.53927 0.0
C186 C 0.05879 0.79152 0.36233 0.0
N187 N 0.06058 0.79474 0.40609 0.0
N188 N 0.03831 0.79309 0.42135 0.0
C189 C 0.02118 0.78795 0.38721 0.0
C190 C 0.03366 0.78683 0.34845 0.0
C191 C 0.08166 0.79504 0.33384 0.0
H192 H 0.09965 0.81511 0.34022 0.0
H193 H 0.08687 0.77922 0.34196 0.0
H194 H 0.07667 0.79378 0.2986 0.0
O195 O 0.10514 0.84064 0.46425 0.0
O196 O 0.06985 0.84074 0.49367 0.0
H197 H 0.99547 0.8035 0.40538 0.0
H198 H 0.98314 0.78036 0.35944 0.0
C199 C 0.99367 0.78472 0.39141 0.0
H200 H 0.98149 0.76787 0.4142 0.0
H201 H 0.02675 0.84626 0.49233 0.0
O202 O 0.11907 0.80698 0.40945 0.0
C203 C 0.09493 0.85288 0.48383 0.0
Co204 Co 0.72381 0.79809 0.94009 0.0
Co205 Co 0.77452 0.80199 0.98381 0.0
C206 C 0.71618 0.76875 0.02241 0.0
O207 O 0.70596 0.77429 0.98993 0.0
O208 O 0.7418 0.77786 0.02459 0.0
C209 C 0.68652 0.81279 0.91775 0.0
O210 O 0.68731 0.81784 0.95977 0.0
C211 C 0.81708 0.786 1.0023 0.0
C212 C 0.84648 0.8222 0.03892 0.0
C213 C 0.84262 0.79799 0.0221 0.0
N214 N 0.80699 0.80291 1.00621 0.0
N215 N 0.82466 0.82425 0.02872 0.0
C216 C 0.80275 0.75923 0.97946 0.0
H217 H 0.78612 0.75776 0.95881 0.0
H218 H 0.81724 0.75605 0.95975 0.0
H219 H 0.79343 0.74273 1.00386 0.0
C220 C 0.74344 0.78338 0.86269 0.0
N221 N 0.74523 0.78871 0.90582 0.0
N222 N 0.76822 0.79212 0.92142 0.0
C223 C 0.78228 0.78986 0.88728 0.0
C224 C 0.76676 0.78381 0.8491 0.0
C225 C 0.72081 0.78048 0.83416 0.0
H226 H 0.72214 0.80048 0.83088 0.0
H227 H 0.70115 0.76627 0.84954 0.0
H228 H 0.72165 0.77312 0.801 0.0
O229 O 0.74472 0.83597 0.95924 0.0
O230 O 0.78183 0.84061 0.99003 0.0
H231 H 0.82241 0.8068 0.86063 0.0
H232 H 0.81069 0.77593 0.88972 0.0
C233 C 0.81076 0.7954 0.88973 0.0
H234 H 0.82094 0.80712 0.91948 0.0
H235 H 0.82205 0.8406 0.03658 0.0
O236 O 0.69763 0.79998 0.90313 0.0
C237 C 0.76712 0.85052 0.97821 0.0
Co238 Co 0.21636 0.92867 0.94205 0.0
Co239 Co 0.21549 0.97732 0.98704 0.0
C240 C 0.24551 0.94947 0.02621 0.0
O241 O 0.23903 0.93393 0.99319 0.0
O242 O 0.23826 0.96748 0.02915 0.0
C243 C 0.19943 0.87623 0.91605 0.0
O244 O 0.19055 0.87052 0.95643 0.0
C245 C 0.23232 0.0357 1.01018 0.0
C246 C 0.19187 0.03103 0.01968 0.0
C247 C 0.21903 0.05009 0.01917 0.0
N248 N 0.21368 0.00924 1.00523 0.0
N249 N 0.18963 0.00683 0.01136 0.0
C250 C 0.26211 0.04709 1.00585 0.0
H251 H 0.26661 0.03189 0.99151 0.0
H252 H 0.27092 0.06565 0.98541 0.0
H253 H 0.27155 0.05297 0.03868 0.0
C254 C 0.23249 0.96387 0.86549 0.0
N255 N 0.2272 0.95996 0.90859 0.0
N256 N 0.22667 0.98086 0.92564 0.0
C257 C 0.23169 0.99893 0.89295 0.0
C258 C 0.23562 0.98872 0.85372 0.0
C259 C 0.23205 0.94296 0.83536 0.0
H260 H 0.21153 0.92488 0.83546 0.0
H261 H 0.24652 0.93676 0.84726 0.0
H262 H 0.23725 0.95041 0.80131 0.0
O263 O 0.17864 0.91324 0.95978 0.0
O264 O 0.17643 0.94675 0.99196 0.0
H265 H 0.21349 0.02106 0.91798 0.0
H266 H 0.23082 0.03366 0.86633 0.0
C267 C 0.23131 0.02478 0.89834 0.0
H268 H 0.24981 0.03954 0.9159 0.0
H269 H 0.17141 0.98863 1.00883 0.0
O270 O 0.2147 0.90058 0.90466 0.0
C271 C 0.1652 0.92221 0.9792 0.0
Co272 Co 0.08345 0.28873 0.94265 0.0
Co273 Co 0.03678 0.23851 0.98663 0.0
C274 C 0.06358 0.29799 0.02437 0.0
O275 O 0.07839 0.30786 0.99078 0.0
O276 O 0.04709 0.27228 0.02764 0.0
C277 C 0.12684 0.3341 0.88813 0.0
O278 O 0.11819 0.35155 0.8896 0.0
C279 C 0.97798 0.19748 1.006 0.0
C280 C 0.98295 0.16363 0.0297 0.0
C281 C 0.96363 0.17067 0.02011 0.0
N282 N 1.00467 0.20575 1.00664 0.0
N283 N 1.00726 0.18529 0.02117 0.0
C284 C 0.9664 0.21481 0.99264 0.0
H285 H 0.98195 0.2335 0.97622 0.0
H286 H 0.94877 0.2033 0.97077 0.0
H287 H 0.95907 0.22044 0.02219 0.0
C288 C 0.04653 0.26987 0.86595 0.0
N289 N 0.05199 0.26806 0.90837 0.0
N290 N 0.0332 0.24482 0.92448 0.0
C291 C 0.01629 0.23034 0.89125 0.0
C292 C 0.02434 0.24582 0.85294 0.0
C293 C 0.06138 0.29449 0.83799 0.0
H294 H 0.07814 0.31093 0.85595 0.0
H295 H 0.04759 0.30195 0.82811 0.0
H296 H 0.06843 0.28941 0.80755 0.0
O297 O 0.09926 0.26726 0.96503 0.0
O298 O 0.06662 0.2294 0.99275 0.0
H299 H 0.99818 0.19091 0.92044 0.0
H300 H 0.98909 0.19115 0.86367 0.0
C301 C 0.99345 0.20197 0.89536 0.0
H302 H 0.97504 0.20245 0.90527 0.0
H303 H 0.02572 0.18587 0.02461 0.0
O304 O 0.11413 0.31157 0.90716 0.0
C305 C 0.09137 0.2445 0.98276 0.0
Co306 Co 0.80315 0.72096 0.57994 0.0
Co307 Co 0.80232 0.76951 0.53415 0.0
C308 C 0.77176 0.7114 0.49722 0.0
O309 O 0.77908 0.70297 0.53014 0.0
O310 O 0.77865 0.73654 0.49354 0.0
C311 C 0.82239 0.6879 0.61013 0.0
O312 O 0.83426 0.69313 0.57177 0.0
C313 C 0.78551 0.81096 0.5102 0.0
C314 C 0.82606 0.84716 0.50469 0.0
C315 C 0.79887 0.83883 0.50289 0.0
N316 N 0.80416 0.80327 0.51647 0.0
N317 N 0.82828 0.82515 0.5127 0.0
C318 C 0.75566 0.79231 0.51193 0.0
H319 H 0.7509 0.77222 0.52495 0.0
H320 H 0.74611 0.80128 0.53244 0.0
H321 H 0.74722 0.78978 0.47848 0.0
C322 C 0.78971 0.74187 0.65748 0.0
N323 N 0.79351 0.74219 0.61398 0.0
N324 N 0.79259 0.76271 0.5962 0.0
C325 C 0.78762 0.77593 0.62864 0.0
C326 C 0.78562 0.7631 0.66867 0.0
C327 C 0.79233 0.7229 0.68834 0.0
H328 H 0.8126 0.72499 0.68447 0.0
H329 H 0.7769 0.70177 0.6802 0.0
H330 H 0.7899 0.72703 0.72293 0.0
O331 O 0.84035 0.74287 0.55938 0.0
O332 O 0.84115 0.77774 0.52638 0.0
H333 H 0.8043 0.81624 0.60472 0.0
H334 H 0.78381 0.80944 0.65336 0.0
C335 C 0.7859 0.80096 0.62196 0.0
H336 H 0.76812 0.7961 0.60132 0.0
H337 H 0.84648 0.82531 0.51682 0.0
O338 O 0.80479 0.69464 0.61803 0.0
C339 C 0.85296 0.76485 0.53852 0.0
Co340 Co 0.29808 0.08496 0.58077 0.0
Co341 Co 0.2463 0.03678 0.53982 0.0
C342 C 0.30321 0.06067 0.49817 0.0
O343 O 0.31393 0.07712 0.5298 0.0
O344 O 0.27759 0.04381 0.49714 0.0
C345 C 0.33216 0.13756 0.608 0.0
O346 O 0.32816 0.14384 0.56845 0.0
C347 C 0.20279 0.97908 0.51855 0.0
C348 C 0.16749 0.98514 0.51601 0.0
C349 C 0.17482 0.96553 0.5131 0.0
N350 N 0.21154 1.00565 0.52484 0.0
N351 N 0.19018 0.0089 0.523 0.0
C352 C 0.22058 0.96681 0.51853 0.0
H353 H 0.24123 0.98168 0.52997 0.0
H354 H 0.2117 0.94855 0.53966 0.0
H355 H 0.22172 0.96025 0.48485 0.0
C356 C 0.2783 0.05172 0.66002 0.0
N357 N 0.27676 0.05489 0.61664 0.0
N358 N 0.25465 0.03425 0.60084 0.0
C359 C 0.24146 0.01704 0.63435 0.0
C360 C 0.25605 0.02759 0.67307 0.0
C361 C 0.29952 0.07269 0.68911 0.0
H362 H 0.29807 0.09138 0.68783 0.0
H363 H 0.31981 0.07767 0.67712 0.0
H364 H 0.29723 0.0659 0.72357 0.0
O365 O 0.277 0.10137 0.56101 0.0
O366 O 0.23948 0.06829 0.53274 0.0
H367 H 0.20683 0.98194 0.66212 0.0
H368 H 0.21738 0.97715 0.60906 0.0
C369 C 0.21485 0.99158 0.62995 0.0
H370 H 0.20017 0.99615 0.61388 0.0
H371 H 0.19091 0.02738 0.52752 0.0
O372 O 0.3253 0.11329 0.61717 0.0
C373 C 0.2543 0.0931 0.54302 0.0
Co374 Co 0.93274 0.20899 0.5742 0.0
Co375 Co 0.98306 0.21014 0.53466 0.0
C376 C 0.95703 0.24159 0.49423 0.0
O377 O 0.94055 0.23432 0.52597 0.0
O378 O 0.97475 0.23394 0.492 0.0
C379 C 0.89182 0.21053 0.6309 0.0
O380 O 0.90823 0.23492 0.64589 0.0
C381 C 0.04179 0.22798 0.51302 0.0
C382 C 0.03856 0.18773 0.51106 0.0
C383 C 0.05685 0.21502 0.50755 0.0
N384 N 0.01567 0.209 0.51983 0.0
N385 N 0.01413 0.18507 0.51824 0.0
C386 C 0.05226 0.25777 0.51277 0.0
H387 H 0.03653 0.26232 0.52441 0.0
H388 H 0.07058 0.26815 0.5336 0.0
H389 H 0.05823 0.26556 0.47899 0.0
C390 C 0.9657 0.22196 0.65783 0.0
N391 N 0.96214 0.21801 0.61403 0.0
N392 N 0.98406 0.21946 0.59699 0.0
C393 C 1.0022 0.22483 0.62974 0.0
C394 C 0.9911 0.22664 0.66938 0.0
C395 C 0.94519 0.22021 0.69002 0.0
H396 H 0.92487 0.20455 0.68063 0.0
H397 H 0.94629 0.24013 0.69212 0.0
H398 H 0.94904 0.21498 0.72317 0.0
O399 O 0.91874 0.17254 0.55186 0.0
O400 O 0.95368 0.17083 0.5255 0.0
H401 H 0.02705 0.20909 0.60766 0.0
H402 H 0.04014 0.23075 0.65521 0.0
C403 C 0.0294 0.22758 0.62364 0.0
H404 H 0.0417 0.2451 0.60213 0.0
H405 H 0.99639 0.1667 0.52316 0.0
O406 O 0.89915 0.2009 0.60052 0.0
C407 C 0.92855 0.15942 0.5341 0.0
Co408 Co 0.95863 0.54497 0.41141 0.0
Co409 Co 0.90864 0.54412 0.36933 0.0
C410 C 0.96562 0.57633 0.32913 0.0
O411 O 0.97472 0.56785 0.35956 0.0
O412 O 0.94062 0.57012 0.32902 0.0
C413 C 0.99443 0.52843 0.4386 0.0
O414 O 0.98958 0.517 0.39989 0.0
C415 C 0.86619 0.55971 0.34765 0.0
C416 C 0.83044 0.51886 0.34175 0.0
C417 C 0.83836 0.54601 0.34039 0.0
N418 N 0.87429 0.54132 0.35334 0.0
N419 N 0.85267 0.51701 0.34947 0.0
C420 C 0.88446 0.58964 0.34983 0.0
H421 H 0.9046 0.59463 0.36279 0.0
H422 H 0.87526 0.59884 0.37062 0.0
H423 H 0.88688 0.59826 0.31652 0.0
C424 C 0.93934 0.55933 0.49048 0.0
N425 N 0.9378 0.55456 0.44711 0.0
N426 N 0.91615 0.55397 0.431 0.0
C427 C 0.90327 0.55863 0.46434 0.0
C428 C 0.91763 0.56223 0.50326 0.0
C429 C 0.96014 0.55892 0.51984 0.0
H430 H 0.95858 0.53876 0.51789 0.0
H431 H 0.98061 0.57432 0.50861 0.0
H432 H 0.95751 0.56295 0.5544 0.0
O433 O 0.93721 0.50744 0.39329 0.0
O434 O 0.90183 0.50557 0.36046 0.0
H435 H 0.86882 0.55958 0.49174 0.0
H436 H 0.88085 0.57658 0.44018 0.0
C437 C 0.87727 0.55869 0.45956 0.0
H438 H 0.86246 0.54025 0.44178 0.0
H439 H 0.85292 0.49894 0.35305 0.0
O440 O 0.98623 0.54477 0.4477 0.0
C441 C 0.91522 0.49428 0.37273 0.0
Co442 Co 0.46501 0.41577 0.4142 0.0
Co443 Co 0.46654 0.3676 0.36925 0.0
C444 C 0.43535 0.39453 0.331 0.0
O445 O 0.44162 0.41 0.36406 0.0
O446 O 0.44324 0.37702 0.32772 0.0
C447 C 0.48009 0.46787 0.4383 0.0
O448 O 0.48624 0.47294 0.39671 0.0
C449 C 0.44966 0.30924 0.34653 0.0
C450 C 0.48994 0.31403 0.33437 0.0
C451 C 0.46284 0.29488 0.33646 0.0
N452 N 0.46831 0.33576 0.35057 0.0
N453 N 0.49226 0.33826 0.34283 0.0
C454 C 0.41997 0.29777 0.35262 0.0
H455 H 0.41571 0.31301 0.36747 0.0
H456 H 0.41167 0.27935 0.37332 0.0
H457 H 0.40984 0.29164 0.32032 0.0
C458 C 0.45029 0.38109 0.49116 0.0
N459 N 0.45506 0.3848 0.44792 0.0
N460 N 0.45591 0.36407 0.43088 0.0
C461 C 0.4517 0.34634 0.46375 0.0
C462 C 0.44793 0.35659 0.50305 0.0
C463 C 0.45054 0.40193 0.52126 0.0
H464 H 0.47093 0.4202 0.52084 0.0
H465 H 0.43577 0.40777 0.50958 0.0
H466 H 0.44564 0.39458 0.5554 0.0
O467 O 0.50261 0.43194 0.39519 0.0
O468 O 0.50539 0.39853 0.36374 0.0
H469 H 0.45433 0.31258 0.49044 0.0
H470 H 0.4342 0.30555 0.44194 0.0
C471 C 0.45286 0.3209 0.45844 0.0
H472 H 0.47043 0.32492 0.43785 0.0
H473 H 0.51046 0.35654 0.34434 0.0
O474 O 0.46668 0.44369 0.45155 0.0
C475 C 0.51628 0.42319 0.37581 0.0
Co476 Co 0.59956 0.05889 0.40694 0.0
Co477 Co 0.64968 0.10688 0.36501 0.0
C478 C 0.62306 0.04927 0.32594 0.0
O479 O 0.60516 0.04119 0.35583 0.0
O480 O 0.64281 0.07392 0.32581 0.0
C481 C 0.55507 0.01618 0.46305 0.0
O482 O 0.56624 1.00169 0.47395 0.0
C483 C 0.7083 0.14799 0.34072 0.0
C484 C 0.70648 0.18535 0.3516 0.0
C485 C 0.72391 0.17621 0.34032 0.0
N486 N 0.68269 0.14087 0.35201 0.0
N487 N 0.68204 0.1635 0.3582 0.0
C488 C 0.71799 0.12844 0.33249 0.0
H489 H 0.70133 0.1073 0.33692 0.0
H490 H 0.73481 0.13269 0.35522 0.0
H491 H 0.72604 0.13128 0.29873 0.0
C492 C 0.63376 0.07547 0.48716 0.0
N493 N 0.62964 0.07756 0.44415 0.0
N494 N 0.65069 0.09908 0.4277 0.0
C495 C 0.66884 0.11141 0.4605 0.0
C496 C 0.65855 0.09703 0.49944 0.0
C497 C 0.6147 0.05288 0.5163 0.0
H498 H 0.59448 0.05058 0.51477 0.0
H499 H 0.61349 0.03381 0.50518 0.0
H500 H 0.62103 0.05632 0.551 0.0
O501 O 0.58704 0.0828 0.38805 0.0
O502 O 0.61938 0.11562 0.35066 0.0
H503 H 0.69337 0.15288 0.44234 0.0
H504 H 0.70751 0.14213 0.4857 0.0
C505 C 0.6959 0.13599 0.45466 0.0
H506 H 0.7073 0.13149 0.43003 0.0
H507 H 0.66499 0.1641 0.36854 0.0
O508 O 0.56689 0.03601 0.43767 0.0
C509 C 0.59511 0.1036 0.36472 0.0
Co510 Co 0.88373 0.62525 0.77584 0.0
Co511 Co 0.88089 0.57438 0.81795 0.0
C512 C 0.91332 0.63134 0.85932 0.0
O513 O 0.90687 0.64138 0.82757 0.0
O514 O 0.90519 0.60583 0.86074 0.0
C515 C 0.87032 0.66375 0.75463 0.0
O516 O 0.86349 0.66133 0.79606 0.0
C517 C 0.89598 0.53159 0.83941 0.0
C518 C 0.85509 0.49583 0.84425 0.0
C519 C 0.88218 0.50367 0.84586 0.0
N520 N 0.87771 0.53983 0.8338 0.0
N521 N 0.85337 0.51821 0.83706 0.0
C522 C 0.9259 0.54984 0.8379 0.0
H523 H 0.93104 0.57015 0.82544 0.0
H524 H 0.9352 0.54079 0.81697 0.0
H525 H 0.93425 0.55189 0.87133 0.0
C526 C 0.89774 0.60559 0.69701 0.0
N527 N 0.89302 0.60421 0.74036 0.0
N528 N 0.89173 0.58224 0.75658 0.0
C529 C 0.89577 0.5689 0.72325 0.0
C530 C 0.89974 0.58331 0.68427 0.0
C531 C 0.89785 0.62667 0.66766 0.0
H532 H 0.87782 0.62537 0.66924 0.0
H533 H 0.91329 0.64704 0.67925 0.0
H534 H 0.90207 0.62408 0.63319 0.0
O535 O 0.8457 0.60422 0.79357 0.0
O536 O 0.84252 0.56777 0.82473 0.0
H537 H 0.89529 0.53368 0.6958 0.0
H538 H 0.91195 0.54496 0.74778 0.0
C539 C 0.89454 0.54224 0.72797 0.0
H540 H 0.8757 0.52788 0.74526 0.0
H541 H 0.83539 0.51856 0.83333 0.0
O542 O 0.88355 0.65301 0.74037 0.0
C543 C 0.83185 0.58183 0.81298 0.0
Co544 Co 0.38887 0.25995 0.77413 0.0
Co545 Co 0.43893 0.30808 0.81758 0.0
C546 C 0.38143 0.28264 0.85668 0.0
O547 O 0.37209 0.26692 0.82396 0.0
O548 O 0.40685 0.29999 0.85973 0.0
C549 C 0.35091 0.20813 0.75267 0.0
O550 O 0.35223 0.20372 0.79449 0.0
C551 C 0.48152 0.36606 0.84013 0.0
C552 C 0.51725 0.36082 0.84463 0.0
C553 C 0.50942 0.38011 0.84667 0.0
N554 N 0.4733 0.33957 0.83404 0.0
N555 N 0.49492 0.33681 0.83713 0.0
C556 C 0.46328 0.37781 0.83901 0.0
H557 H 0.44291 0.36267 0.82689 0.0
H558 H 0.47218 0.3961 0.81796 0.0
H559 H 0.4615 0.3842 0.8725 0.0
C560 C 0.40843 0.2937 0.69609 0.0
N561 N 0.40983 0.29024 0.73935 0.0
N562 N 0.43131 0.31117 0.75602 0.0
C563 C 0.44431 0.32891 0.72298 0.0
C564 C 0.43015 0.31836 0.68386 0.0
C565 C 0.38777 0.27263 0.66643 0.0
H566 H 0.38936 0.25405 0.66824 0.0
H567 H 0.36725 0.26748 0.67751 0.0
H568 H 0.39049 0.27943 0.63193 0.0
O569 O 0.40971 0.24312 0.79329 0.0
O570 O 0.44606 0.27654 0.82417 0.0
H571 H 0.48515 0.35088 0.74524 0.0
H572 H 0.47871 0.36456 0.69612 0.0
C573 C 0.47035 0.35485 0.72813 0.0
H574 H 0.46689 0.36893 0.74832 0.0
H575 H 0.49463 0.31851 0.83306 0.0
O576 O 0.36182 0.23208 0.73827 0.0
C577 C 0.4321 0.25178 0.81268 0.0
Co578 Co 0.75198 0.13285 0.77659 0.0
Co579 Co 0.70345 0.13524 0.81489 0.0
C580 C 0.72875 0.10257 0.85683 0.0
O581 O 0.74493 0.10819 0.82492 0.0
O582 O 0.71198 0.11154 0.85826 0.0
C583 C 0.7953 0.13286 0.72026 0.0
O584 O 0.78438 0.10686 0.71222 0.0
C585 C 0.64547 0.11877 0.83978 0.0
C586 C 0.64786 0.1583 0.8297 0.0
C587 C 0.63014 0.13172 0.84087 0.0
N588 N 0.67105 0.13703 0.82816 0.0
N589 N 0.67212 0.16056 0.82255 0.0
C590 C 0.63587 0.08959 0.84863 0.0
H591 H 0.6522 0.08739 0.86434 0.0
H592 H 0.63074 0.07844 0.81719 0.0
H593 H 0.61757 0.08063 0.86959 0.0
C594 C 0.71819 0.11554 0.69581 0.0
N595 N 0.7223 0.12259 0.73851 0.0
N596 N 0.70206 0.1251 0.75334 0.0
C597 C 0.68494 0.12074 0.71954 0.0
C598 C 0.69469 0.11471 0.68181 0.0
C599 C 0.73555 0.10817 0.66916 0.0
H600 H 0.73742 0.09212 0.68646 0.0
H601 H 0.72727 0.10079 0.63614 0.0
H602 H 0.75577 0.12586 0.66464 0.0
O603 O 0.76682 0.16967 0.79894 0.0
O604 O 0.73302 0.17419 0.82288 0.0
H605 H 0.66409 0.14179 0.73671 0.0
H606 H 0.6492 0.11858 0.69121 0.0
C607 C 0.65952 0.12191 0.72323 0.0
H608 H 0.64598 0.10594 0.74626 0.0
H609 H 0.6894 0.17823 0.81269 0.0
O610 O 0.78377 0.14158 0.74476 0.0
C611 C 0.7581 0.18417 0.81518 0.0
Co612 Co 0.39013 0.12832 0.27206 0.0
Co613 Co 0.44128 0.13542 0.3195 0.0
C614 C 0.38123 0.10164 0.35531 0.0
O615 O 0.37103 0.10438 0.32008 0.0
O616 O 0.40706 0.11221 0.35945 0.0
C617 C 0.34802 0.12569 0.20379 0.0
O618 O 0.33299 0.1 0.19367 0.0
C619 C 0.48458 0.12017 0.33552 0.0
C620 C 0.51286 0.15506 0.37576 0.0
C621 C 0.51018 0.13224 0.3551 0.0
N622 N 0.47336 0.13584 0.34302 0.0
N623 N 0.49034 0.15633 0.36778 0.0
C624 C 0.47129 0.09451 0.30947 0.0
H625 H 0.45461 0.09323 0.28933 0.0
H626 H 0.48638 0.09281 0.2889 0.0
H627 H 0.46213 0.07692 0.33189 0.0
C628 C 0.41033 0.10963 0.20014 0.0
N629 N 0.4122 0.11805 0.24171 0.0
N630 N 0.4364 0.12566 0.25727 0.0
C631 C 0.45164 0.12487 0.22372 0.0
C632 C 0.43539 0.11433 0.18655 0.0
C633 C 0.38449 0.09588 0.17477 0.0
H634 H 0.36729 0.08652 0.19779 0.0
H635 H 0.38348 0.07974 0.1535 0.0
H636 H 0.38279 0.11049 0.15315 0.0
O637 O 0.41063 0.16627 0.29372 0.0
O638 O 0.44884 0.17365 0.32413 0.0
H639 H 0.49172 0.14882 0.19773 0.0
H640 H 0.48527 0.11816 0.22334 0.0
C641 C 0.48142 0.13534 0.22588 0.0
H642 H 0.49012 0.1467 0.25657 0.0
H643 H 0.48694 0.17181 0.37815 0.0
O644 O 0.36699 0.13339 0.23125 0.0
C645 C 0.43295 0.18209 0.31225 0.0
Co646 Co 0.88752 0.26194 0.27133 0.0
Co647 Co 0.88658 0.31071 0.31653 0.0
C648 C 0.91733 0.28306 0.35488 0.0
O649 O 0.91091 0.26765 0.32165 0.0
O650 O 0.90982 0.30091 0.35823 0.0
C651 C 0.86885 0.2093 0.24491 0.0
O652 O 0.86082 0.20379 0.28573 0.0
C653 C 0.90128 0.36898 0.33857 0.0
C654 C 0.86003 0.36212 0.34881 0.0
C655 C 0.88677 0.38222 0.34734 0.0
N656 N 0.88365 0.34215 0.33444 0.0
N657 N 0.85912 0.33849 0.34099 0.0
C658 C 0.93122 0.38173 0.33432 0.0
H659 H 0.93675 0.36703 0.32098 0.0
H660 H 0.93916 0.39986 0.31302 0.0
H661 H 0.94058 0.38858 0.36704 0.0
C662 C 0.90272 0.29694 0.19444 0.0
N663 N 0.89778 0.2931 0.23767 0.0
N664 N 0.89703 0.31388 0.25477 0.0
C665 C 0.90135 0.33167 0.22195 0.0
C666 C 0.9052 0.32152 0.18263 0.0
C667 C 0.90259 0.27621 0.16427 0.0
H668 H 0.88205 0.25816 0.16373 0.0
H669 H 0.91688 0.26988 0.17657 0.0
H670 H 0.90822 0.28392 0.13042 0.0
O671 O 0.85009 0.24644 0.29096 0.0
O672 O 0.84792 0.28008 0.32253 0.0
H673 H 0.88221 0.35284 0.24697 0.0
H674 H 0.8993 0.36573 0.19523 0.0
C675 C 0.90017 0.35707 0.22725 0.0
H676 H 0.91854 0.37219 0.24469 0.0
H677 H 0.84141 0.31979 0.33916 0.0
O678 O 0.88495 0.2335 0.23353 0.0
C679 C 0.83675 0.25545 0.31057 0.0
Co680 Co 0.74919 0.6222 0.27379 0.0
Co681 Co 0.70232 0.5719 0.31959 0.0
C682 C 0.72921 0.63069 0.3575 0.0
O683 O 0.74439 0.64036 0.32422 0.0
O684 O 0.71218 0.60514 0.36059 0.0
C685 C 0.79249 0.66551 0.20835 0.0
O686 O 0.7858 0.68286 0.1929 0.0
C687 C 0.64397 0.53029 0.34073 0.0
C688 C 0.64937 0.49591 0.3597 0.0
C689 C 0.62988 0.50313 0.35314 0.0
N690 N 0.67067 0.5386 0.33946 0.0
N691 N 0.67353 0.51782 0.35121 0.0
C692 C 0.63213 0.54782 0.33045 0.0
H693 H 0.64732 0.56684 0.31434 0.0
H694 H 0.61404 0.53671 0.30931 0.0
H695 H 0.62543 0.55287 0.36131 0.0
C696 C 0.71168 0.60334 0.19932 0.0
N697 N 0.71722 0.60132 0.24154 0.0
N698 N 0.69812 0.57843 0.25806 0.0
C699 C 0.68052 0.5644 0.22535 0.0
C700 C 0.6886 0.57982 0.18701 0.0
C701 C 0.72819 0.62756 0.17119 0.0
H702 H 0.74543 0.62643 0.15719 0.0
H703 H 0.73576 0.64613 0.19118 0.0
H704 H 0.71637 0.62883 0.14352 0.0
O705 O 0.76576 0.60084 0.29347 0.0
O706 O 0.73311 0.56413 0.32486 0.0
H707 H 0.66218 0.52467 0.25324 0.0
H708 H 0.65162 0.52579 0.19774 0.0
C709 C 0.65718 0.53632 0.22974 0.0
H710 H 0.63945 0.53733 0.24193 0.0
H711 H 0.69204 0.51835 0.35258 0.0
O712 O 0.77704 0.64733 0.23471 0.0
C713 C 0.75767 0.57846 0.31291 0.0
Co714 Co 0.4666 0.05118 0.91387 0.0
Co715 Co 0.46608 0.10045 0.87078 0.0
C716 C 0.43442 0.04328 0.83189 0.0
O717 O 0.44229 0.03428 0.86332 0.0
O718 O 0.44154 0.06851 0.82961 0.0
C719 C 0.46839 1.00379 0.94074 0.0
O720 O 0.46577 0.99621 0.89968 0.0
C721 C 0.45074 0.14306 0.84713 0.0
C722 C 0.49149 0.17923 0.84714 0.0
C723 C 0.46447 0.17113 0.8421 0.0
N724 N 0.46897 0.13501 0.85513 0.0
N725 N 0.49323 0.15691 0.85474 0.0
C726 C 0.42087 0.12453 0.84528 0.0
H727 H 0.4155 0.10383 0.85597 0.0
H728 H 0.4106 0.13257 0.86616 0.0
H729 H 0.41378 0.12375 0.81125 0.0
C730 C 0.45704 0.07353 0.99316 0.0
N731 N 0.45877 0.07316 0.94932 0.0
N732 N 0.45647 0.09306 0.9323 0.0
C733 C 0.45177 0.10602 0.96543 0.0
C734 C 0.45203 0.09403 1.00531 0.0
C735 C 0.46293 0.05633 0.02323 0.0
H736 H 0.48212 0.05739 0.01333 0.0
H737 H 0.44641 0.03499 0.02083 0.0
H738 H 0.46498 0.06302 0.05772 0.0
O739 O 0.50391 0.07167 0.89398 0.0
O740 O 0.50458 0.10719 0.86304 0.0
H741 H 0.46665 0.14685 0.94555 0.0
H742 H 0.4428 0.13619 0.99038 0.0
C743 C 0.44786 0.12982 0.95923 0.0
H744 H 0.43131 0.12455 0.93554 0.0
H745 H 0.51114 0.15676 0.86078 0.0
O746 O 0.46649 0.02411 0.95153 0.0
C747 C 0.51643 0.09405 0.87399 0.0
Co748 Co 0.9614 0.41871 0.90896 0.0
Co749 Co 0.9116 0.36865 0.86885 0.0
C750 C 0.96817 0.3936 0.82726 0.0
O751 O 0.97715 0.41152 0.85713 0.0
O752 O 0.94326 0.37454 0.82758 0.0
C753 C 0.99829 0.47126 0.93003 0.0
O754 O 0.99517 0.47582 0.88895 0.0
C755 C 0.86833 0.31071 0.84652 0.0
C756 C 0.83231 0.31535 0.85272 0.0
C757 C 0.84015 0.29648 0.84454 0.0
N758 N 0.87671 0.33691 0.85576 0.0
N759 N 0.85489 0.33931 0.85912 0.0
C760 C 0.88666 0.29927 0.84135 0.0
H761 H 0.9078 0.31466 0.84954 0.0
H762 H 0.87972 0.28126 0.86271 0.0
H763 H 0.88566 0.29248 0.80708 0.0
C764 C 0.94358 0.38576 0.98895 0.0
N765 N 0.94153 0.38864 0.94562 0.0
N766 N 0.92023 0.36707 0.93001 0.0
C767 C 0.90818 0.34947 0.96352 0.0
C768 C 0.92258 0.36079 1.00213 0.0
C769 C 0.96419 0.40748 0.01779 0.0
H770 H 0.96213 0.42578 0.0153 0.0
H771 H 0.98474 0.41292 1.00643 0.0
H772 H 0.96184 0.40111 0.0525 0.0
O773 O 0.93945 0.43436 0.8915 0.0
O774 O 0.90412 0.39997 0.86026 0.0
H775 H 0.86647 0.3258 0.9466 0.0
H776 H 0.8768 0.31177 0.99074 0.0
C777 C 0.88296 0.32269 0.95909 0.0
H778 H 0.88639 0.3102 0.93505 0.0
H779 H 0.85531 0.35732 0.86689 0.0
O780 O 0.98896 0.44727 0.94356 0.0
C781 C 0.91708 0.42478 0.87183 0.0
Co782 Co 0.59505 0.54384 0.91135 0.0
Co783 Co 0.6452 0.5439 0.87142 0.0
C784 C 0.61969 0.57497 0.82948 0.0
O785 O 0.60301 0.56775 0.86097 0.0
O786 O 0.63767 0.56765 0.82792 0.0
C787 C 0.54249 0.52881 0.93197 0.0
O788 O 0.53779 0.52016 0.89139 0.0
C789 C 0.7029 0.55962 0.84532 0.0
C790 C 0.70114 0.52084 0.86009 0.0
C791 C 0.71847 0.54691 0.84591 0.0
N792 N 0.67761 0.54176 0.85895 0.0
N793 N 0.67691 0.51867 0.86737 0.0
C794 C 0.71206 0.58825 0.83279 0.0
H795 H 0.69522 0.58959 0.81716 0.0
H796 H 0.71811 0.60096 0.86264 0.0
H797 H 0.72971 0.59618 0.81047 0.0
C798 C 0.62652 0.55638 0.99198 0.0
N799 N 0.62442 0.55295 0.94833 0.0
N800 N 0.64649 0.55438 0.93258 0.0
C801 C 0.66388 0.55975 0.96637 0.0
C802 C 0.65171 0.56108 1.00532 0.0
C803 C 0.60378 0.55282 0.02081 0.0
H804 H 0.58564 0.53292 0.01398 0.0
H805 H 0.59877 0.56886 0.01337 0.0
H806 H 0.60882 0.55369 0.05598 0.0
O807 O 0.57951 0.50649 0.89209 0.0
O808 O 0.61436 0.50482 0.86402 0.0
H809 H 0.6897 0.54375 0.95156 0.0
H810 H 0.70305 0.57011 0.99262 0.0
C811 C 0.69145 0.56323 0.96164 0.0
H812 H 0.70237 0.5783 0.93564 0.0
H813 H 0.65989 0.50139 0.87909 0.0
O814 O 0.5665 0.54321 0.9454 0.0
C815 C 0.58931 0.49337 0.87401 0.0
Co816 Co 0.62796 0.88242 0.75082 0.0
Co817 Co 0.57788 0.87839 0.70274 0.0
C818 C 0.63702 0.91096 0.66674 0.0
O819 O 0.64636 0.90576 0.70085 0.0
O820 O 0.61148 0.90213 0.66256 0.0
C821 C 0.66282 0.86557 0.77954 0.0
O822 O 0.66091 0.85773 0.73869 0.0
C823 C 0.53469 0.89337 0.6828 0.0
C824 C 0.50254 0.85397 0.658 0.0
C825 C 0.50792 0.87973 0.66846 0.0
N826 N 0.54451 0.87614 0.68155 0.0
N827 N 0.52506 0.85275 0.66629 0.0
C828 C 0.55049 0.9222 0.69718 0.0
H829 H 0.56929 0.92616 0.71421 0.0
H830 H 0.53795 0.92717 0.71875 0.0
H831 H 0.55591 0.93548 0.66802 0.0
C832 C 0.60661 0.89824 0.82534 0.0
N833 N 0.60616 0.89254 0.78244 0.0
N834 N 0.58349 0.88861 0.76465 0.0
C835 C 0.56821 0.89047 0.79694 0.0
C836 C 0.58249 0.897 0.83637 0.0
C837 C 0.62892 0.90275 0.85597 0.0
H838 H 0.64876 0.91606 0.84032 0.0
H839 H 0.62753 0.912 0.88707 0.0
H840 H 0.62757 0.88305 0.86332 0.0
O841 O 0.60687 0.84446 0.73056 0.0
O842 O 0.57057 0.84006 0.69726 0.0
H843 H 0.52807 0.87418 0.82313 0.0
H844 H 0.53787 0.90091 0.78414 0.0
C845 C 0.53919 0.88265 0.79211 0.0
H846 H 0.52961 0.86748 0.76573 0.0
H847 H 0.52687 0.83556 0.6624 0.0
O848 O 0.65327 0.88047 0.79085 0.0
C849 C 0.58492 0.83006 0.71023 0.0
Co850 Co 0.1333 0.75135 0.74594 0.0
Co851 Co 0.1331 0.70148 0.70411 0.0
C852 C 0.10256 0.72776 0.66259 0.0
O853 O 0.11114 0.74527 0.69315 0.0
O854 O 0.10809 0.70844 0.66278 0.0
C855 C 0.151 0.80414 0.77094 0.0
O856 O 0.16063 0.80967 0.73097 0.0
C857 C 0.11848 0.64348 0.68271 0.0
C858 C 0.1597 0.6492 0.68066 0.0
C859 C 0.13279 0.62975 0.67745 0.0
N860 N 0.13633 0.67 0.6892 0.0
N861 N 0.16087 0.67304 0.68764 0.0
C862 C 0.0885 0.63144 0.68212 0.0
H863 H 0.08278 0.64646 0.69307 0.0
H864 H 0.07896 0.61324 0.70339 0.0
H865 H 0.08099 0.6248 0.64837 0.0
C866 C 0.11738 0.71726 0.82464 0.0
N867 N 0.12244 0.72056 0.78136 0.0
N868 N 0.12272 0.69931 0.76532 0.0
C869 C 0.11766 0.68163 0.79858 0.0
C870 C 0.1141 0.69245 0.83737 0.0
C871 C 0.11809 0.73861 0.85397 0.0
H872 H 0.13861 0.7567 0.85309 0.0
H873 H 0.10354 0.74465 0.84187 0.0
H874 H 0.11314 0.73161 0.88828 0.0
O875 O 0.17089 0.76641 0.72938 0.0
O876 O 0.1717 0.73242 0.69638 0.0
H877 H 0.13651 0.65925 0.77807 0.0
H878 H 0.1154 0.64557 0.82607 0.0
C879 C 0.11751 0.65549 0.79398 0.0
H880 H 0.10035 0.64169 0.77289 0.0
H881 H 0.17864 0.69141 0.69235 0.0
O882 O 0.13477 0.77991 0.78193 0.0
C883 C 0.18361 0.75695 0.7092 0.0
Co884 Co 0.26697 0.39257 0.74608 0.0
Co885 Co 0.31533 0.44195 0.70203 0.0
C886 C 0.28888 0.38315 0.66514 0.0
O887 O 0.27326 0.37403 0.69806 0.0
O888 O 0.30625 0.40861 0.66153 0.0
C889 C 0.22457 0.35034 0.80684 0.0
O890 O 0.23626 0.33654 0.81889 0.0
C891 C 0.37359 0.48351 0.67812 0.0
C892 C 0.36948 0.52004 0.67684 0.0
C893 C 0.38817 0.51157 0.67274 0.0
N894 N 0.34738 0.47585 0.68552 0.0
N895 N 0.34532 0.49796 0.68436 0.0
C896 C 0.38459 0.46463 0.67735 0.0
H897 H 0.36885 0.44393 0.68721 0.0
H898 H 0.4023 0.47219 0.69951 0.0
H899 H 0.39169 0.46407 0.64383 0.0
C900 C 0.30265 0.41165 0.82434 0.0
N901 N 0.2976 0.41319 0.78159 0.0
N902 N 0.3178 0.43511 0.76435 0.0
C903 C 0.33594 0.44861 0.79665 0.0
C904 C 0.32681 0.43425 0.83575 0.0
C905 C 0.28551 0.38827 0.85368 0.0
H906 H 0.26526 0.38584 0.85696 0.0
H907 H 0.28382 0.36967 0.83931 0.0
H908 H 0.2939 0.39087 0.88707 0.0
O909 O 0.25186 0.41429 0.72339 0.0
O910 O 0.28517 0.45047 0.69265 0.0
H911 H 0.35781 0.4891 0.77247 0.0
H912 H 0.37171 0.48341 0.82203 0.0
C913 C 0.36174 0.4745 0.79038 0.0
H914 H 0.37546 0.4703 0.77056 0.0
H915 H 0.32742 0.49819 0.68993 0.0
O916 O 0.23576 0.3695 0.78004 0.0
C917 C 0.26043 0.43645 0.70341 0.0
Co918 Co 0.54675 0.9581 0.10983 0.0
Co919 Co 0.54744 0.90865 0.15169 0.0
C920 C 0.58016 0.96675 0.18992 0.0
O921 O 0.5711 0.97559 0.15988 0.0
O922 O 0.574 0.94169 0.19037 0.0
C923 C 0.52679 0.99111 0.08189 0.0
O924 O 0.52007 0.99081 0.12302 0.0
C925 C 0.56361 0.86666 0.17642 0.0
C926 C 0.52347 0.82991 0.17097 0.0
C927 C 0.55031 0.8385 0.1793 0.0
N928 N 0.54532 0.87432 0.16642 0.0
N929 N 0.52141 0.85207 0.1636 0.0
C930 C 0.59323 0.88562 0.18165 0.0
H931 H 0.59835 0.90673 0.1744 0.0
H932 H 0.60459 0.87944 0.15953 0.0
H933 H 0.59928 0.88432 0.21564 0.0
C934 C 0.56005 0.93861 0.03035 0.0
N935 N 0.5558 0.93704 0.07376 0.0
N936 N 0.55488 0.91525 0.0893 0.0
C937 C 0.55836 0.90189 0.05554 0.0
C938 C 0.55905 0.91477 0.01537 0.0
C939 C 0.57064 0.96507 1.00661 0.0
H940 H 0.58327 0.98199 0.02915 0.0
H941 H 0.58329 0.96643 0.97819 0.0
H942 H 0.55368 0.96794 0.99594 0.0
O943 O 0.5097 0.93615 0.13082 0.0
O944 O 0.50897 0.90106 0.16291 0.0
H945 H 0.54839 0.86127 0.07016 0.0
H946 H 0.57827 0.87965 0.03571 0.0
C947 C 0.56658 0.88111 0.0634 0.0
H948 H 0.57971 0.88685 0.09262 0.0
H949 H 0.50359 0.85191 0.15545 0.0
O950 O 0.54315 0.98313 0.07169 0.0
C951 C 0.49716 0.91412 0.15161 0.0
Co952 Co 0.05392 0.59293 0.10818 0.0
Co953 Co 0.10348 0.64264 0.15082 0.0
C954 C 0.04645 0.61686 0.19092 0.0
O955 O 0.03766 0.59926 0.16048 0.0
O956 O 0.07131 0.63601 0.1911 0.0
C957 C 0.02046 0.54063 0.07781 0.0
O958 O 0.02615 0.5337 0.11559 0.0
C959 C 0.14653 0.70047 0.17332 0.0
C960 C 0.18206 0.69477 0.17544 0.0
C961 C 0.17449 0.71417 0.17899 0.0
N962 N 0.138 0.67401 0.16632 0.0
N963 N 0.15952 0.67098 0.16794 0.0
C964 C 0.12856 0.71252 0.17385 0.0
H965 H 0.10788 0.69753 0.16274 0.0
H966 H 0.13718 0.73075 0.15266 0.0
H967 H 0.12762 0.71911 0.2076 0.0
C968 C 0.07276 0.62739 0.02976 0.0
N969 N 0.0743 0.62384 0.07305 0.0
N970 N 0.09572 0.64498 0.08946 0.0
C971 C 0.10846 0.66283 0.05648 0.0
C972 C 0.09429 0.65224 0.01747 0.0
C973 C 0.05225 0.60629 0.99997 0.0
H974 H 0.05445 0.58804 1.00093 0.0
H975 H 0.03165 0.6005 0.01154 0.0
H976 H 0.05464 0.61345 0.9657 0.0
O977 O 0.07634 0.57768 0.12577 0.0
O978 O 0.11103 0.61154 0.15906 0.0
H979 H 0.14952 0.68514 0.07763 0.0
H980 H 0.14223 0.69907 0.02969 0.0
C981 C 0.13432 0.68897 0.06161 0.0
H982 H 0.1308 0.70263 0.08282 0.0
H983 H 0.15901 0.65265 0.1629 0.0
O984 O 0.02673 0.56498 0.07096 0.0
C985 C 0.09839 0.587 0.14631 0.0
Co986 Co 0.42055 0.46777 0.10951 0.0
Co987 Co 0.37079 0.46809 0.15182 0.0
C988 C 0.39701 0.43676 0.19146 0.0
O989 O 0.41335 0.44388 0.15951 0.0
O990 O 0.37915 0.44421 0.19382 0.0
C991 C 0.47292 0.48603 0.08003 0.0
O992 O 0.47981 0.49964 0.11689 0.0
C993 C 0.31204 0.4507 0.17297 0.0
C994 C 0.31595 0.491 0.18058 0.0
C995 C 0.29722 0.4637 0.1809 0.0
N996 N 0.33839 0.46962 0.16793 0.0
N997 N 0.34033 0.49359 0.17283 0.0
C998 C 0.30113 0.4209 0.16969 0.0
H999 H 0.31679 0.41655 0.15703 0.0
H1000 H 0.28308 0.4117 0.14813 0.0
H1001 H 0.2946 0.41171 0.20258 0.0
C1002 C 0.38792 0.45481 0.0304 0.0
N1003 N 0.39041 0.45844 0.074 0.0
N1004 N 0.36892 0.45817 0.09007 0.0
C1005 C 0.35174 0.45392 0.05633 0.0
C1006 C 0.36328 0.45159 0.01735 0.0
C1007 C 0.41001 0.45712 1.00112 0.0
H1008 H 0.41518 0.4414 1.01016 0.0
H1009 H 0.40424 0.45481 0.96613 0.0
H1010 H 0.42824 0.47728 1.00565 0.0
O1011 O 0.43585 0.50519 0.12918 0.0
O1012 O 0.40159 0.50707 0.15927 0.0
H1013 H 0.31623 0.4526 0.02847 0.0
H1014 H 0.31126 0.43532 0.07981 0.0
C1015 C 0.32543 0.45341 0.06078 0.0
H1016 H 0.32863 0.47163 0.07884 0.0
H1017 H 0.35835 0.51196 0.17001 0.0
O1018 O 0.44857 0.46816 0.07326 0.0
C1019 C 0.42645 0.51838 0.14828 0.0
Co1020 Co 0.05657 0.46791 0.61045 0.0
Co1021 Co 0.10614 0.46632 0.64943 0.0
C1022 C 0.0497 0.43455 0.69075 0.0
O1023 O 0.04094 0.44411 0.66149 0.0
O1024 O 0.07451 0.44008 0.69018 0.0
C1025 C 0.02059 0.48496 0.58746 0.0
O1026 O 0.0259 0.49569 0.62673 0.0
C1027 C 0.1498 0.45169 0.67009 0.0
C1028 C 0.18544 0.4928 0.66783 0.0
C1029 C 0.17793 0.46597 0.67369 0.0
N1030 N 0.14114 0.46946 0.66216 0.0
N1031 N 0.16275 0.49393 0.66105 0.0
C1032 C 0.13178 0.42178 0.67357 0.0
H1033 H 0.11062 0.41594 0.66526 0.0
H1034 H 0.13913 0.41142 0.65145 0.0
H1035 H 0.13263 0.41528 0.70744 0.0
C1036 C 0.07547 0.45589 0.52885 0.0
N1037 N 0.07686 0.4589 0.57262 0.0
N1038 N 0.09752 0.45725 0.58783 0.0
C1039 C 0.10944 0.4521 0.55365 0.0
C1040 C 0.09584 0.45111 0.51489 0.0
C1041 C 0.05638 0.45996 0.50048 0.0
H1042 H 0.05814 0.47979 0.50819 0.0
H1043 H 0.03535 0.44387 0.50749 0.0
H1044 H 0.06062 0.4596 0.46522 0.0
O1045 O 0.07842 0.50492 0.62949 0.0
O1046 O 0.11354 0.50498 0.66006 0.0
H1047 H 0.15093 0.46788 0.5702 0.0
H1048 H 0.13921 0.44343 0.5261 0.0
C1049 C 0.13368 0.44876 0.55781 0.0
H1050 H 0.12942 0.4326 0.58186 0.0
H1051 H 0.16213 0.5116 0.65484 0.0
O1052 O 0.02853 0.46869 0.57644 0.0
C1053 C 0.1007 0.51715 0.64945 0.0
Co1054 Co 0.55123 0.59477 0.60564 0.0
Co1055 Co 0.55222 0.64501 0.64927 0.0
C1056 C 0.58176 0.61693 0.68878 0.0
O1057 O 0.57462 0.60093 0.65622 0.0
O1058 O 0.57503 0.63536 0.69152 0.0
C1059 C 0.53199 0.54177 0.57993 0.0
O1060 O 0.52261 0.53646 0.62006 0.0
C1061 C 0.56853 0.70322 0.67473 0.0
C1062 C 0.52826 0.69967 0.67029 0.0
C1063 C 0.5551 0.71799 0.67838 0.0
N1064 N 0.55026 0.67729 0.66456 0.0
N1065 N 0.5263 0.67558 0.66228 0.0
C1066 C 0.59815 0.71383 0.67974 0.0
H1067 H 0.60326 0.69791 0.67183 0.0
H1068 H 0.60952 0.73159 0.65805 0.0
H1069 H 0.60421 0.72081 0.71388 0.0
C1070 C 0.5659 0.62871 0.52757 0.0
N1071 N 0.56168 0.6255 0.571 0.0
N1072 N 0.5626 0.64713 0.58796 0.0
C1073 C 0.56787 0.66509 0.55511 0.0
C1074 C 0.57002 0.65392 0.51567 0.0
C1075 C 0.56363 0.60697 0.49747 0.0
H1076 H 0.54303 0.58913 0.50005 0.0
H1077 H 0.57835 0.60067 0.50753 0.0
H1078 H 0.56737 0.6137 0.46292 0.0
O1079 O 0.51406 0.58028 0.62528 0.0
O1080 O 0.51322 0.61495 0.65584 0.0
H1081 H 0.55086 0.68931 0.57483 0.0
H1082 H 0.57434 0.70327 0.52963 0.0
C1083 C 0.57001 0.69207 0.56098 0.0
H1084 H 0.58648 0.70405 0.5845 0.0
H1085 H 0.50846 0.65795 0.65419 0.0
O1086 O 0.54864 0.56588 0.56887 0.0
C1087 C 0.50137 0.59014 0.64455 0.0
Co1088 Co 0.41732 0.9536 0.60963 0.0
Co1089 Co 0.37002 0.90387 0.65468 0.0
C1090 C 0.39654 0.96242 0.69245 0.0
O1091 O 0.41081 0.97176 0.65814 0.0
O1092 O 0.37985 0.93684 0.69648 0.0
C1093 C 0.45692 0.99599 0.54861 0.0
O1094 O 0.44137 1.00571 0.53649 0.0
C1095 C 0.31188 0.86258 0.67818 0.0
C1096 C 0.31634 0.82645 0.68545 0.0
C1097 C 0.29742 0.83476 0.68578 0.0
N1098 N 0.33826 0.87026 0.67292 0.0
N1099 N 0.34055 0.84842 0.67777 0.0
C1100 C 0.30066 0.88124 0.67542 0.0
H1101 H 0.31592 0.90114 0.66182 0.0
H1102 H 0.28211 0.87204 0.655 0.0
H1103 H 0.29488 0.88423 0.70868 0.0
C1104 C 0.38086 0.93257 0.53101 0.0
N1105 N 0.38648 0.93222 0.57396 0.0
N1106 N 0.36644 0.91062 0.59243 0.0
C1107 C 0.34783 0.89643 0.561 0.0
C1108 C 0.35639 0.90996 0.52118 0.0
C1109 C 0.39813 0.95402 0.4988 0.0
H1110 H 0.41911 0.95849 0.50087 0.0
H1111 H 0.39694 0.97246 0.50573 0.0
H1112 H 0.3915 0.94782 0.46463 0.0
O1113 O 0.43286 0.93204 0.6312 0.0
O1114 O 0.40013 0.89509 0.6611 0.0
H1115 H 0.32774 0.85645 0.58714 0.0
H1116 H 0.3131 0.8601 0.53684 0.0
C1117 C 0.32276 0.86996 0.56819 0.0
H1118 H 0.30821 0.87339 0.587 0.0
H1119 H 0.35864 0.84825 0.67458 0.0
O1120 O 0.44918 0.97798 0.57751 0.0
C1121 C 0.42476 0.90958 0.64998 0.0
Co1122 Co 0.13112 0.38774 0.24759 0.0
Co1123 Co 0.13574 0.43818 0.20091 0.0
C1124 C 0.10294 0.37863 0.16418 0.0
O1125 O 0.1079 0.36885 0.19799 0.0
O1126 O 0.11205 0.40433 0.16054 0.0
C1127 C 0.12969 0.34598 0.31511 0.0
O1128 O 0.10436 0.33091 0.32703 0.0
C1129 C 0.11978 0.48053 0.17974 0.0
C1130 C 0.15961 0.51416 0.15961 0.0
C1131 C 0.1332 0.50767 0.16706 0.0
N1132 N 0.1377 0.47157 0.18033 0.0
N1133 N 0.16136 0.49191 0.16789 0.0
C1134 C 0.09051 0.46356 0.19078 0.0
H1135 H 0.08654 0.44456 0.20722 0.0
H1136 H 0.084 0.4751 0.21184 0.0
H1137 H 0.0785 0.45843 0.16018 0.0
C1138 C 0.11187 0.40724 0.32112 0.0
N1139 N 0.12013 0.40907 0.27931 0.0
N1140 N 0.12515 0.43236 0.26262 0.0
C1141 C 0.12203 0.44689 0.29501 0.0
C1142 C 0.11351 0.4314 0.33322 0.0
C1143 C 0.10102 0.38216 0.3483 0.0
H1144 H 0.1177 0.38095 0.36434 0.0
H1145 H 0.08941 0.36435 0.32698 0.0
H1146 H 0.08751 0.38168 0.37457 0.0
O1147 O 0.16907 0.40872 0.22706 0.0
O1148 O 0.17419 0.44579 0.19564 0.0
H1149 H 0.1441 0.48624 0.266 0.0
H1150 H 0.13382 0.48615 0.32206 0.0
C1151 C 0.12785 0.47533 0.29034 0.0
H1152 H 0.1092 0.47499 0.2793 0.0
H1153 H 0.17905 0.49088 0.16599 0.0
O1154 O 0.13644 0.36462 0.28739 0.0
C1155 C 0.18387 0.43099 0.20773 0.0
Co1156 Co 0.62821 0.75204 0.24659 0.0
Co1157 Co 0.57827 0.70355 0.2017 0.0
C1158 C 0.63623 0.73092 0.16273 0.0
O1159 O 0.64546 0.74576 0.19653 0.0
O1160 O 0.61085 0.7134 0.15935 0.0
C1161 C 0.66201 0.80446 0.2753 0.0
O1162 O 0.65803 0.81093 0.23587 0.0
C1163 C 0.53555 0.64513 0.1802 0.0
C1164 C 0.50056 0.65109 0.17003 0.0
C1165 C 0.50782 0.63138 0.17161 0.0
N1166 N 0.54416 0.67186 0.1841 0.0
N1167 N 0.52296 0.67501 0.1776 0.0
C1168 C 0.5533 0.63295 0.18457 0.0
H1169 H 0.57332 0.64793 0.1981 0.0
H1170 H 0.54343 0.61473 0.20573 0.0
H1171 H 0.55613 0.62635 0.15185 0.0
C1172 C 0.6092 0.71715 0.32326 0.0
N1173 N 0.60759 0.72106 0.2802 0.0
N1174 N 0.58596 0.70032 0.26335 0.0
C1175 C 0.57292 0.68248 0.29627 0.0
C1176 C 0.58735 0.69258 0.33525 0.0
C1177 C 0.63016 0.73773 0.35315 0.0
H1178 H 0.62787 0.75593 0.3541 0.0
H1179 H 0.65058 0.7438 0.34038 0.0
H1180 H 0.62834 0.73 0.38695 0.0
O1181 O 0.60622 0.76771 0.22729 0.0
O1182 O 0.57019 0.73424 0.19592 0.0
H1183 H 0.53259 0.66115 0.27156 0.0
H1184 H 0.53703 0.6487 0.32364 0.0
C1185 C 0.54639 0.65707 0.29144 0.0
H1186 H 0.5496 0.64177 0.27443 0.0
H1187 H 0.52353 0.69355 0.17931 0.0
O1188 O 0.65457 0.78007 0.2844 0.0
C1189 C 0.58381 0.75885 0.20795 0.0
Co1190 Co 0.26112 0.87676 0.24818 0.0
Co1191 Co 0.31069 0.87654 0.20594 0.0
C1192 C 0.28429 0.90808 0.16674 0.0
O1193 O 0.26799 0.90107 0.19878 0.0
O1194 O 0.3021 0.90053 0.16432 0.0
C1195 C 0.20815 0.85806 0.27199 0.0
O1196 O 0.20297 0.85318 0.23011 0.0
C1197 C 0.36935 0.89306 0.18574 0.0
C1198 C 0.3645 0.85238 0.1776 0.0
C1199 C 0.38367 0.87952 0.17818 0.0
N1200 N 0.34281 0.87456 0.18996 0.0
N1201 N 0.34032 0.85036 0.18477 0.0
C1202 C 0.38085 0.92294 0.18902 0.0
H1203 H 0.36538 0.92774 0.20106 0.0
H1204 H 0.39866 0.93176 0.2111 0.0
H1205 H 0.38791 0.93211 0.15624 0.0
C1206 C 0.29374 0.88984 0.32745 0.0
N1207 N 0.29117 0.88609 0.28387 0.0
N1208 N 0.3125 0.88602 0.26784 0.0
C1209 C 0.32955 0.88993 0.30161 0.0
C1210 C 0.31816 0.8925 0.34057 0.0
C1211 C 0.27197 0.8884 0.35657 0.0
H1212 H 0.25395 0.86788 0.35432 0.0
H1213 H 0.26613 0.90329 0.34542 0.0
H1214 H 0.27835 0.89241 0.39125 0.0
O1215 O 0.24586 0.8397 0.22741 0.0
O1216 O 0.28012 0.8378 0.19767 0.0
H1217 H 0.36455 0.89025 0.32957 0.0
H1218 H 0.3701 0.90814 0.27873 0.0
C1219 C 0.3556 0.88995 0.29723 0.0
H1220 H 0.35216 0.87179 0.27871 0.0
H1221 H 0.32204 0.83221 0.18699 0.0
O1222 O 0.23221 0.87347 0.28458 0.0
C1223 C 0.25523 0.82656 0.20816 0.0
C1224 C 0.32122 0.14783 0.18346 0.0
C1225 C 0.34552 0.14695 0.18031 0.0
C1226 C 0.36676 0.18978 0.13981 0.0
C1227 C 0.34402 0.19263 0.14865 0.0
N1228 N 0.30035 0.17562 0.18321 0.0
N1229 N 0.39283 0.16876 0.15908 0.0
C1230 C 0.32125 0.17184 0.17107 0.0
C1231 C 0.3687 0.16838 0.15952 0.0
N1232 N 0.29824 0.12607 0.19927 0.0
N1233 N 0.38603 0.20683 0.11087 0.0
H1234 H 0.39531 0.15287 0.16984 0.0
H1235 H 0.41103 0.18577 0.15041 0.0
H1236 H 0.3849 0.22223 0.09431 0.0
H1237 H 0.40156 0.20389 0.09948 0.0
H1238 H 0.2792 0.12425 0.19693 0.0
H1239 H 0.2976 0.10884 0.21203 0.0
H1240 H 0.28516 0.16296 0.20477 0.0
H1241 H 0.29905 0.1925 0.17447 0.0
C1242 C 0.85668 0.16892 0.14147 0.0
C1243 C 0.82828 0.15772 0.13629 0.0
C1244 C 0.82632 0.18013 0.20303 0.0
C1245 C 0.85428 0.18955 0.21007 0.0
N1246 N 0.89523 0.18993 0.1904 0.0
N1247 N 0.7854 0.14988 0.16374 0.0
C1248 C 0.86926 0.18325 0.18033 0.0
C1249 C 0.81294 0.16251 0.1676 0.0
N1250 N 0.87166 0.16573 0.10964 0.0
N1251 N 0.81277 0.18902 0.22873 0.0
H1252 H 0.77498 0.13873 0.13624 0.0
H1253 H 0.77271 0.14921 0.1887 0.0
H1254 H 0.82124 0.20138 0.25578 0.0
H1255 H 0.79351 0.18568 0.22157 0.0
H1256 H 0.89268 0.17635 0.10908 0.0
H1257 H 0.86344 0.15398 0.08184 0.0
H1258 H 0.90643 0.18337 0.17269 0.0
H1259 H 0.90492 0.20011 0.21901 0.0
C1260 C 0.84274 0.69004 0.20432 0.0
C1261 C 0.81779 0.66662 0.19473 0.0
C1262 C 0.84113 0.64796 0.15237 0.0
C1263 C 0.86621 0.67077 0.16381 0.0
N1264 N 0.89108 0.70986 0.20996 0.0
N1265 N 0.79399 0.61987 0.17007 0.0
C1266 C 0.86703 0.69071 0.19262 0.0
C1267 C 0.8172 0.64439 0.17243 0.0
N1268 N 0.84337 0.71164 0.22487 0.0
N1269 N 0.83969 0.63074 0.12004 0.0
H1270 H 0.77573 0.61594 0.18361 0.0
H1271 H 0.79356 0.60251 0.15833 0.0
H1272 H 0.85649 0.63275 0.1034 0.0
H1273 H 0.82148 0.61584 0.10678 0.0
H1274 H 0.86072 0.73059 0.22701 0.0
H1275 H 0.82629 0.7112 0.23789 0.0
H1276 H 0.89284 0.72341 0.23427 0.0
H1277 H 0.90906 0.71017 0.20344 0.0
C1278 C 0.15223 0.31968 0.33519 0.0
C1279 C 0.15165 0.34416 0.33727 0.0
C1280 C 0.19457 0.36567 0.37754 0.0
C1281 C 0.19692 0.34249 0.37019 0.0
N1282 N 0.1797 0.2986 0.33572 0.0
N1283 N 0.17476 0.39227 0.35507 0.0
C1284 C 0.17612 0.3197 0.34764 0.0
C1285 C 0.17357 0.36773 0.35664 0.0
N1286 N 0.13029 0.29645 0.32041 0.0
N1287 N 0.21132 0.38506 0.40662 0.0
H1288 H 0.15945 0.39527 0.34312 0.0
H1289 H 0.19212 0.41035 0.36312 0.0
H1290 H 0.22638 0.38396 0.42417 0.0
H1291 H 0.20836 0.40079 0.41702 0.0
H1292 H 0.12823 0.27736 0.32432 0.0
H1293 H 0.11321 0.29573 0.30688 0.0
H1294 H 0.16678 0.2832 0.31465 0.0
H1295 H 0.19685 0.29759 0.34328 0.0
C1296 C 0.64886 0.83178 0.32255 0.0
C1297 C 0.6676 0.8231 0.31207 0.0
C1298 C 0.69255 0.84323 0.37948 0.0
C1299 C 0.67554 0.85442 0.38733 0.0
N1300 N 0.63938 0.86195 0.36466 0.0
N1301 N 0.70899 0.82307 0.32685 0.0
C1302 C 0.65425 0.84945 0.35832 0.0
C1303 C 0.68983 0.82935 0.3397 0.0
N1304 N 0.62517 0.82209 0.29989 0.0
N1305 N 0.71142 0.84597 0.40968 0.0
H1306 H 0.70773 0.81311 0.2976 0.0
H1307 H 0.72731 0.82977 0.34297 0.0
H1308 H 0.71533 0.85707 0.43835 0.0
H1309 H 0.72191 0.83541 0.4081 0.0
H1310 H 0.60941 0.82512 0.30957 0.0
H1311 H 0.6201 0.80904 0.27345 0.0
H1312 H 0.62626 0.86226 0.34129 0.0
H1313 H 0.64123 0.87335 0.39246 0.0
C1314 C 0.15551 0.79678 0.33556 0.0
C1315 C 0.15626 0.80945 0.37557 0.0
C1316 C 0.18723 0.85374 0.34473 0.0
C1317 C 0.18837 0.8411 0.30558 0.0
N1318 N 0.17895 0.79945 0.26875 0.0
N1319 N 0.17769 0.8486 0.4222 0.0
C1320 C 0.17404 0.81227 0.30219 0.0
C1321 C 0.17394 0.83752 0.38142 0.0
N1322 N 0.13654 0.77028 0.32878 0.0
N1323 N 0.19779 0.88117 0.3463 0.0
H1324 H 0.16828 0.83693 0.44984 0.0
H1325 H 0.19208 0.86861 0.42911 0.0
H1326 H 0.20656 0.8937 0.31927 0.0
H1327 H 0.19527 0.89109 0.37288 0.0
H1328 H 0.13279 0.76103 0.29822 0.0
H1329 H 0.12334 0.75804 0.35317 0.0
H1330 H 0.17063 0.77853 0.26749 0.0
H1331 H 0.1933 0.80941 0.24456 0.0
C1332 C 0.65777 0.81073 0.8556 0.0
C1333 C 0.67844 0.82663 0.88582 0.0
C1334 C 0.69097 0.86755 0.84294 0.0
C1335 C 0.66929 0.85185 0.8142 0.0
N1336 N 0.62908 0.80944 0.79675 0.0
N1337 N 0.71339 0.87051 0.91153 0.0
C1338 C 0.65193 0.82367 0.82131 0.0
C1339 C 0.69451 0.8552 0.88072 0.0
N1340 N 0.64393 0.78312 0.85939 0.0
N1341 N 0.70888 0.89398 0.83286 0.0
H1342 H 0.71817 0.86245 0.93828 0.0
H1343 H 0.72333 0.89155 0.91236 0.0
H1344 H 0.70696 0.90354 0.80512 0.0
H1345 H 0.72685 0.90589 0.84965 0.0
H1346 H 0.63156 0.77018 0.83492 0.0
H1347 H 0.64591 0.77294 0.88621 0.0
H1348 H 0.61399 0.78979 0.80398 0.0
H1349 H 0.624 0.81775 0.77077 0.0
C1350 C 0.19128 0.83291 0.81754 0.0
C1351 C 0.16392 0.82409 0.80616 0.0
C1352 C 0.15908 0.84705 0.87004 0.0
C1353 C 0.18651 0.85608 0.88114 0.0
N1354 N 0.2298 0.86088 0.86374 0.0
N1355 N 0.12074 0.81974 0.82298 0.0
C1356 C 0.20289 0.84989 0.85439 0.0
C1357 C 0.14755 0.83036 0.83283 0.0
N1358 N 0.20564 0.82354 0.79505 0.0
N1359 N 0.14458 0.85597 0.89328 0.0
H1360 H 0.11209 0.80938 0.79399 0.0
H1361 H 0.10661 0.81996 0.84416 0.0
H1362 H 0.15167 0.86758 0.92146 0.0
H1363 H 0.12599 0.85331 0.88344 0.0
H1364 H 0.2241 0.82603 0.80544 0.0
H1365 H 0.1985 0.81156 0.76729 0.0
H1366 H 0.24382 0.86068 0.84227 0.0
H1367 H 0.23861 0.87163 0.89238 0.0
C1368 C 0.15114 0.31869 0.83835 0.0
C1369 C 0.15147 0.33955 0.86442 0.0
C1370 C 0.19926 0.36865 0.84876 0.0
C1371 C 0.19974 0.34644 0.82791 0.0
N1372 N 0.17638 0.29935 0.80653 0.0
N1373 N 0.17765 0.38152 0.90376 0.0
C1374 C 0.17582 0.32108 0.82425 0.0
C1375 C 0.17595 0.36381 0.87209 0.0
N1376 N 0.12719 0.29706 0.82531 0.0
N1377 N 0.22063 0.3945 0.84638 0.0
H1378 H 0.16147 0.3784 0.92341 0.0
H1379 H 0.19596 0.3979 0.91391 0.0
H1380 H 0.23892 0.40009 0.83129 0.0
H1381 H 0.21925 0.41124 0.8564 0.0
H1382 H 0.12571 0.28289 0.8024 0.0
H1383 H 0.10856 0.29466 0.83387 0.0
H1384 H 0.16027 0.27961 0.8088 0.0
H1385 H 0.19341 0.30057 0.79188 0.0
C1386 C 0.82937 0.65454 0.71211 0.0
C1387 C 0.85712 0.67219 0.72215 0.0
C1388 C 0.86127 0.70133 0.66085 0.0
C1389 C 0.83461 0.68197 0.64764 0.0
N1390 N 0.79397 0.63907 0.65737 0.0
N1391 N 0.90038 0.71071 0.70435 0.0
C1392 C 0.81874 0.65836 0.67256 0.0
C1393 C 0.87333 0.6951 0.69599 0.0
N1394 N 0.81322 0.63406 0.74005 0.0
N1395 N 0.87458 0.72621 0.6414 0.0
H1396 H 0.90965 0.7079 0.73168 0.0
H1397 H 0.91389 0.72544 0.6829 0.0
H1398 H 0.86636 0.73198 0.6161 0.0
H1399 H 0.89274 0.7421 0.65298 0.0
H1400 H 0.79232 0.62251 0.73683 0.0
H1401 H 0.82017 0.62978 0.76869 0.0
H1402 H 0.78261 0.61999 0.67134 0.0
H1403 H 0.78562 0.64124 0.62836 0.0
C1404 C 0.31765 0.16409 0.65468 0.0
C1405 C 0.33697 0.15601 0.64475 0.0
C1406 C 0.36087 0.176 0.71298 0.0
C1407 C 0.34335 0.18663 0.72026 0.0
N1408 N 0.30685 0.19334 0.69668 0.0
N1409 N 0.37868 0.1569 0.66084 0.0
C1410 C 0.32225 0.18137 0.69071 0.0
C1411 C 0.35896 0.16253 0.6731 0.0
N1412 N 0.29425 0.15428 0.6312 0.0
N1413 N 0.37948 0.17891 0.74385 0.0
H1414 H 0.37804 0.14729 0.63149 0.0
H1415 H 0.39683 0.16383 0.67758 0.0
H1416 H 0.38259 0.18955 0.77284 0.0
H1417 H 0.39047 0.16886 0.74251 0.0
H1418 H 0.27801 0.15663 0.64064 0.0
H1419 H 0.28991 0.14197 0.60401 0.0
H1420 H 0.29385 0.19353 0.67295 0.0
H1421 H 0.30813 0.20443 0.72459 0.0
C1422 C 0.84247 0.14908 0.69685 0.0
C1423 C 0.8201 0.15311 0.69824 0.0
C1424 C 0.84683 0.19737 0.66275 0.0
C1425 C 0.86764 0.19125 0.65545 0.0
N1426 N 0.88239 0.1575 0.6587 0.0
N1427 N 0.79961 0.18006 0.67653 0.0
C1428 C 0.86466 0.16601 0.67015 0.0
C1429 C 0.82187 0.17705 0.67994 0.0
N1430 N 0.84338 0.13005 0.72297 0.0
N1431 N 0.85053 0.22235 0.65251 0.0
H1432 H 0.78069 0.16671 0.68912 0.0
H1433 H 0.79925 0.19511 0.65773 0.0
H1434 H 0.86735 0.23713 0.63588 0.0
H1435 H 0.83757 0.22911 0.66313 0.0
H1436 H 0.86073 0.12853 0.72675 0.0
H1437 H 0.8281 0.11798 0.74491 0.0
H1438 H 0.87819 0.13771 0.66403 0.0
H1439 H 0.90019 0.16864 0.64137 0.0
C1440 C 0.98281 0.49049 0.49056 0.0
C1441 C 1.0018 0.51688 0.47538 0.0
C1442 C 0.03156 0.52353 0.53726 0.0
C1443 C 0.0127 0.49702 0.55216 0.0
N1444 N 0.97227 0.45402 0.54159 0.0
N1445 N 0.04194 0.56008 0.48644 0.0
C1446 C 0.98881 0.48019 0.52844 0.0
C1447 C 0.02552 0.53384 0.49939 0.0
N1448 N 0.95822 0.47598 0.47053 0.0
N1449 N 0.05611 0.53812 0.5574 0.0
H1450 H 0.0393 0.56779 0.45709 0.0
H1451 H 0.05732 0.57473 0.50567 0.0
H1452 H 0.06142 0.5319 0.58578 0.0
H1453 H 0.07214 0.55572 0.5446 0.0
H1454 H 0.94216 0.45844 0.48338 0.0
H1455 H 0.9529 0.4823 0.44227 0.0
H1456 H 0.95679 0.43937 0.52251 0.0
H1457 H 0.97486 0.44637 0.57105 0.0
C1458 C 0.52198 0.5001 0.47862 0.0
C1459 C 0.49375 0.48896 0.47155 0.0
C1460 C 0.49062 0.5128 0.5355 0.0
C1461 C 0.51829 0.52197 0.54481 0.0
N1462 N 0.55942 0.52158 0.52957 0.0
N1463 N 0.4504 0.4817 0.49546 0.0
C1464 C 0.53378 0.51498 0.5174 0.0
C1465 C 0.47784 0.49438 0.50074 0.0
N1466 N 0.53755 0.49635 0.44861 0.0
N1467 N 0.47687 0.52276 0.5582 0.0
H1468 H 0.44043 0.46969 0.46841 0.0
H1469 H 0.43734 0.4818 0.51909 0.0
H1470 H 0.48519 0.5363 0.58399 0.0
H1471 H 0.45783 0.51936 0.54927 0.0
H1472 H 0.55857 0.50685 0.44926 0.0
H1473 H 0.52981 0.48422 0.42104 0.0
H1474 H 0.57082 0.51452 0.51372 0.0
H1475 H 0.56856 0.53225 0.55812 0.0
C1476 C 0.50218 0.02845 0.51782 0.0
C1477 C 0.48113 1.00142 0.5234 0.0
C1478 C 0.50714 0.98503 0.48256 0.0
C1479 C 0.52956 0.01145 0.48283 0.0
N1480 N 0.54939 0.05879 0.5043 0.0
N1481 N 0.46509 0.95298 0.51523 0.0
C1482 C 0.52733 0.03339 0.50086 0.0
C1483 C 0.48401 0.97941 0.50715 0.0
N1484 N 0.49853 0.04958 0.52941 0.0
N1485 N 0.50723 0.9655 0.45665 0.0
H1486 H 0.44635 0.94639 0.52946 0.0
H1487 H 0.46881 0.93709 0.50993 0.0
H1488 H 0.52341 0.969 0.43661 0.0
H1489 H 0.49012 0.94673 0.45108 0.0
H1490 H 0.51142 0.06945 0.51949 0.0
H1491 H 0.48188 0.04738 0.54674 0.0
H1492 H 0.5497 0.074 0.52352 0.0
H1493 H 0.56817 0.0648 0.49076 0.0
C1494 C 0.52511 0.00949 1.00896 0.0
C1495 C 0.51105 0.99407 0.04615 0.0
C1496 C 0.46785 0.98196 0.0112 0.0
C1497 C 0.48192 0.99545 0.97279 0.0
N1498 N 0.52365 0.01804 0.93192 0.0
N1499 N 0.46859 0.95973 0.07769 0.0
C1500 C 0.51045 0.00765 0.97052 0.0
C1501 C 0.48227 0.97866 0.0461 0.0
N1502 N 0.55236 0.02701 0.01113 0.0
N1503 N 0.44075 0.97271 0.01463 0.0
H1504 H 0.47795 0.95518 0.10278 0.0
H1505 H 0.44785 0.94639 0.07647 0.0
H1506 H 0.42918 0.97325 0.98863 0.0
H1507 H 0.43018 0.96604 0.04396 0.0
H1508 H 0.56328 0.04081 0.98655 0.0
H1509 H 0.56367 0.02984 0.03942 0.0
H1510 H 0.54405 0.02449 0.92737 0.0
H1511 H 0.51389 0.01804 0.90316 0.0
C1512 C 0.02901 0.49892 0.98958 0.0
C1513 C 1.00621 0.4924 0.96326 0.0
C1514 C 0.99152 0.51562 0.01424 0.0
C1515 C 0.015 0.52316 0.03943 0.0
N1516 N 0.05942 0.52782 0.04542 0.0
N1517 N 0.96773 0.4978 0.94611 0.0
C1518 C 0.03468 0.51642 0.02564 0.0
C1519 C 0.98817 0.50195 0.974 0.0
N1520 N 0.04507 0.48804 0.98046 0.0
N1521 N 0.97187 0.52047 0.02983 0.0
H1522 H 0.96353 0.48683 0.91723 0.0
H1523 H 0.9561 0.50707 0.94973 0.0
H1524 H 0.97368 0.53038 0.05935 0.0
H1525 H 0.95287 0.51277 0.01561 0.0
H1526 H 0.05964 0.48891 1.00197 0.0
H1527 H 0.04282 0.47676 0.95234 0.0
H1528 H 0.07556 0.52618 0.03327 0.0
H1529 H 0.06479 0.54108 0.0716 0.0
C1530 C 0.49893 0.48058 0.01969 0.0
C1531 C 0.49049 0.4969 0.04167 0.0
C1532 C 0.51397 0.53327 0.98845 0.0
C1533 C 0.52139 0.51655 0.96531 0.0
N1534 N 0.51788 0.47286 0.9543 0.0
N1535 N 0.48408 0.53577 0.04146 0.0
C1536 C 0.51274 0.48965 0.97932 0.0
C1537 C 0.49637 0.52245 0.0246 0.0
N1538 N 0.49466 0.45697 0.03841 0.0
N1539 N 0.52411 0.55968 0.97628 0.0
H1540 H 0.47059 0.5284 0.06745 0.0
H1541 H 0.48527 0.5529 0.02712 0.0
H1542 H 0.53564 0.56787 0.9481 0.0
H1543 H 0.52239 0.57385 0.99541 0.0
H1544 H 0.50291 0.44555 0.02662 0.0
H1545 H 0.48457 0.44978 0.06807 0.0
H1546 H 0.50956 0.45226 0.96036 0.0
H1547 H 0.52881 0.47885 0.9253 0.0
C1548 C 0.2375 0.12328 0.9949 0.0
C1549 C 0.24258 0.13425 0.03784 0.0
C1550 C 0.23759 0.09159 0.06655 0.0
C1551 C 0.22997 0.07981 0.02444 0.0
N1552 N 0.21987 0.08329 0.94902 0.0
N1553 N 0.24295 0.12735 0.11557 0.0
C1554 C 0.22912 0.09536 0.98875 0.0
C1555 C 0.24151 0.118 0.07394 0.0
N1556 N 0.24191 0.13979 0.95974 0.0
N1557 N 0.24125 0.07755 0.09952 0.0
H1558 H 0.24487 0.14615 0.12246 0.0
H1559 H 0.23956 0.11554 0.14335 0.0
H1560 H 0.23802 0.058 0.09548 0.0
H1561 H 0.2497 0.08606 0.12964 0.0
H1562 H 0.24171 0.13383 0.92754 0.0
H1563 H 0.24789 0.16022 0.96269 0.0
H1564 H 0.21546 0.09238 0.92323 0.0
H1565 H 0.21504 0.06343 0.94255 0.0
C1566 C 0.88996 0.11881 0.99295 0.0
C1567 C 0.87922 0.11068 0.03566 0.0
C1568 C 0.92237 0.14567 0.06695 0.0
C1569 C 0.9339 0.15201 0.02457 0.0
N1570 N 0.92995 0.14204 0.94749 0.0
N1571 N 0.88644 0.11324 0.11359 0.0
C1572 C 0.91802 0.1379 0.98759 0.0
C1573 C 0.89581 0.12329 0.07275 0.0
N1574 N 0.87317 0.10913 0.95754 0.0
N1575 N 0.93669 0.16146 0.10161 0.0
H1576 H 0.86735 0.09651 0.1191 0.0
H1577 H 0.89837 0.11976 0.14159 0.0
H1578 H 0.95608 0.17812 0.09841 0.0
H1579 H 0.92854 0.15964 0.13267 0.0
H1580 H 0.8791 0.11663 0.92601 0.0
H1581 H 0.85264 0.09498 0.96008 0.0
H1582 H 0.92028 0.13023 0.92021 0.0
H1583 H 0.95025 0.15608 0.94222 0.0
C1584 C 0.87609 0.75447 0.03444 0.0
C1585 C 0.90418 0.77425 0.03239 0.0
C1586 C 0.89072 0.80761 0.01221 0.0
C1587 C 0.86336 0.78911 0.02338 0.0
N1588 N 0.83276 0.74692 0.05894 0.0
N1589 N 0.93712 0.82228 0.0304 0.0
C1590 C 0.85673 0.76304 0.0384 0.0
C1591 C 0.91131 0.80163 0.02416 0.0
N1592 N 0.86747 0.72751 0.03084 0.0
N1593 N 0.8972 0.83065 0.98944 0.0
H1594 H 0.95232 0.81956 0.04396 0.0
H1595 H 0.9424 0.84256 0.02773 0.0
H1596 H 0.88264 0.83497 0.97759 0.0
H1597 H 0.91666 0.8436 0.97787 0.0
H1598 H 0.84702 0.71289 0.02975 0.0
H1599 H 0.88032 0.72014 0.0227 0.0
H1600 H 0.82816 0.72847 0.07313 0.0
H1601 H 0.81924 0.75356 0.06658 0.0
C1602 C 0.09789 0.23291 0.4595 0.0
C1603 C 0.08656 0.22653 0.502 0.0
C1604 C 0.13045 0.23577 0.53198 0.0
C1605 C 0.14105 0.23975 0.48893 0.0
N1606 N 0.13376 0.23802 0.41106 0.0
N1607 N 0.09095 0.21937 0.57852 0.0
C1608 C 0.12447 0.23733 0.45251 0.0
C1609 C 0.10256 0.22724 0.53819 0.0
N1610 N 0.08323 0.23486 0.42577 0.0
N1611 N 0.14729 0.24132 0.56703 0.0
H1612 H 0.07116 0.2147 0.58499 0.0
H1613 H 0.10036 0.21604 0.60502 0.0
H1614 H 0.16768 0.24723 0.56393 0.0
H1615 H 0.14164 0.24202 0.59911 0.0
H1616 H 0.0913 0.24243 0.39506 0.0
H1617 H 0.06346 0.231 0.42945 0.0
H1618 H 0.12187 0.23377 0.38317 0.0
H1619 H 0.15275 0.24036 0.40459 0.0
C1620 C 0.77789 0.88537 0.44787 0.0
C1621 C 0.77541 0.89945 0.48435 0.0
C1622 C 0.78723 0.8728 0.53357 0.0
C1623 C 0.78787 0.85752 0.49734 0.0
N1624 N 0.77978 0.84626 0.42101 0.0
N1625 N 0.77331 0.90359 0.56246 0.0
C1626 C 0.78186 0.86286 0.45479 0.0
C1627 C 0.77896 0.89241 0.52738 0.0
N1628 N 0.77756 0.89429 0.40649 0.0
N1629 N 0.79506 0.86893 0.57388 0.0
H1630 H 0.76766 0.9183 0.55944 0.0
H1631 H 0.77225 0.8969 0.59445 0.0
H1632 H 0.79988 0.85388 0.58019 0.0
H1633 H 0.79835 0.88161 0.60044 0.0
H1634 H 0.78184 0.88667 0.37861 0.0
H1635 H 0.77543 0.91111 0.40013 0.0
H1636 H 0.77271 0.84722 0.39008 0.0
H1637 H 0.78298 0.8299 0.42485 0.0
C1638 C 0.12609 0.89964 0.45629 0.0
C1639 C 0.11314 0.88226 0.49244 0.0
C1640 C 0.14088 0.91963 0.54271 0.0
C1641 C 0.15538 0.93618 0.50651 0.0
N1642 N 0.1645 0.94097 0.42927 0.0
N1643 N 0.1104 0.87439 0.57009 0.0
C1644 C 0.14879 0.92584 0.46341 0.0
C1645 C 0.121 0.89194 0.53573 0.0
N1646 N 0.11599 0.89132 0.41511 0.0
N1647 N 0.14584 0.93054 0.58373 0.0
H1648 H 0.09548 0.85418 0.56632 0.0
H1649 H 0.11757 0.8793 0.60197 0.0
H1650 H 0.16111 0.95025 0.59039 0.0
H1651 H 0.13386 0.92066 0.61073 0.0
H1652 H 0.12273 0.90386 0.3878 0.0
H1653 H 0.09899 0.87254 0.40882 0.0
H1654 H 0.16265 0.93352 0.39765 0.0
H1655 H 0.18102 0.9604 0.43321 0.0
C1656 C 0.76103 0.88604 0.01731 0.0
C1657 C 0.77547 0.87946 0.98648 0.0
C1658 C 0.80028 0.92714 0.96331 0.0
C1659 C 0.78834 0.9342 0.99789 0.0
N1660 N 0.761 0.92052 0.06315 0.0
N1661 N 0.81062 0.89413 0.93231 0.0
C1662 C 0.76956 0.91367 0.02619 0.0
C1663 C 0.79574 0.90018 0.96027 0.0
N1664 N 0.73891 0.86591 0.03797 0.0
N1665 N 0.81512 0.946 0.93226 0.0
H1666 H 0.80714 0.87451 0.92784 0.0
H1667 H 0.82765 0.90875 0.91592 0.0
H1668 H 0.81808 0.96559 0.93266 0.0
H1669 H 0.82219 0.94158 0.90388 0.0
H1670 H 0.72575 0.86943 0.05673 0.0
H1671 H 0.73236 0.84546 0.03349 0.0
H1672 H 0.7498 0.9067 0.08755 0.0
H1673 H 0.76727 0.94044 0.07151 0.0
C1674 C 0.11896 0.8927 0.94769 0.0
C1675 C 0.13569 0.90326 0.98521 0.0
C1676 C 0.09703 0.87369 0.03186 0.0
C1677 C 0.08113 0.86106 0.99409 0.0
N1678 N 0.07807 0.85603 0.91584 0.0
N1679 N 0.14184 0.90121 0.06274 0.0
C1680 C 0.09246 0.86991 0.95191 0.0
C1681 C 0.12504 0.89306 0.02727 0.0
N1682 N 0.12826 0.90497 0.90808 0.0
N1683 N 0.0851 0.86816 0.07205 0.0
H1684 H 0.16224 0.91589 0.06092 0.0
H1685 H 0.13602 0.89206 0.09331 0.0
H1686 H 0.06462 0.85465 0.07652 0.0
H1687 H 0.09489 0.87874 0.10026 0.0
H1688 H 0.11626 0.90003 0.88019 0.0
H1689 H 0.14743 0.92184 0.90392 0.0
H1690 H 0.08597 0.85985 0.88433 0.0
H1691 H 0.05883 0.83901 0.91778 0.0
C1692 C 0.14162 0.22862 0.04022 0.0
C1693 C 0.15441 0.22422 1.00382 0.0
C1694 C 0.12575 0.23293 0.95376 0.0
C1695 C 0.11183 0.23577 0.9902 0.0
N1696 N 0.10531 0.2351 0.06807 0.0
N1697 N 0.15782 0.2202 0.92617 0.0
C1698 C 0.11941 0.2332 0.03344 0.0
C1699 C 0.14635 0.22604 0.96064 0.0
N1700 N 0.15124 0.22903 0.0813 0.0
N1701 N 0.11927 0.2369 0.91239 0.0
H1702 H 0.17384 0.21647 0.9298 0.0
H1703 H 0.15082 0.21776 0.89417 0.0
H1704 H 0.10266 0.23924 0.90544 0.0
H1705 H 0.13084 0.23896 0.88489 0.0
H1706 H 0.145 0.23473 0.10924 0.0
H1707 H 0.16709 0.22536 0.08729 0.0
H1708 H 0.10757 0.23054 0.10015 0.0
H1709 H 0.09008 0.23998 0.06466 0.0
C1710 C 0.90062 0.78432 0.56514 0.0
C1711 C 0.88216 0.77531 0.52958 0.0
C1712 C 0.91851 0.78076 0.48014 0.0
C1713 C 0.93643 0.78792 0.51632 0.0
N1714 N 0.94362 0.79233 0.59408 0.0
N1715 N 0.87223 0.76138 0.45437 0.0
C1716 C 0.92716 0.78846 0.55909 0.0
C1717 C 0.89076 0.7726 0.48732 0.0
N1718 N 0.89294 0.78973 0.60444 0.0
N1719 N 0.92819 0.78247 0.43875 0.0
H1720 H 0.85203 0.75614 0.45798 0.0
H1721 H 0.8764 0.7557 0.42435 0.0
H1722 H 0.94804 0.78735 0.43238 0.0
H1723 H 0.91711 0.78068 0.41067 0.0
H1724 H 0.90615 0.7989 0.63049 0.0
H1725 H 0.87373 0.78709 0.60989 0.0
H1726 H 0.93723 0.79015 0.62641 0.0
H1727 H 0.96313 0.79538 0.59074 0.0
C1728 C 0.22679 0.11499 0.56259 0.0
C1729 C 0.24564 0.11336 0.53437 0.0
C1730 C 0.25012 0.15223 0.49256 0.0
C1731 C 0.23287 0.15522 0.52266 0.0
N1732 N 0.20901 0.14269 0.59123 0.0
N1733 N 0.27962 0.134 0.47824 0.0
C1734 C 0.22237 0.13745 0.55908 0.0
C1735 C 0.25873 0.13317 0.50126 0.0
N1736 N 0.21311 0.09507 0.59278 0.0
N1737 N 0.25706 0.16639 0.45427 0.0
H1738 H 0.28604 0.11997 0.48257 0.0
H1739 H 0.29196 0.14986 0.4574 0.0
H1740 H 0.25053 0.17987 0.44604 0.0
H1741 H 0.26706 0.16285 0.42892 0.0
H1742 H 0.19701 0.09348 0.61107 0.0
H1743 H 0.2165 0.07888 0.59731 0.0
H1744 H 0.20315 0.1322 0.6207 0.0
H1745 H 0.20609 0.15935 0.59029 0.0
C1746 C 0.89897 0.11237 0.56297 0.0
C1747 C 0.90981 0.12998 0.52637 0.0
C1748 C 0.87677 0.09408 0.47822 0.0
C1749 C 0.86643 0.0762 0.51458 0.0
N1750 N 0.8688 0.06706 0.59076 0.0
N1751 N 0.91145 0.13734 0.44883 0.0
C1752 C 0.87786 0.08506 0.55676 0.0
C1753 C 0.89942 0.12069 0.48384 0.0
N1754 N 0.90872 0.12203 0.60386 0.0
N1755 N 0.86453 0.08566 0.43841 0.0
H1756 H 0.92772 0.15697 0.45203 0.0
H1757 H 0.90673 0.13141 0.4164 0.0
H1758 H 0.84846 0.06622 0.43308 0.0
H1759 H 0.86896 0.09814 0.41126 0.0
H1760 H 0.89994 0.11167 0.63264 0.0
H1761 H 0.92538 0.14118 0.60932 0.0
H1762 H 0.87808 0.07087 0.62122 0.0
H1763 H 0.85236 0.04749 0.58804 0.0
C1764 C 0.89628 0.42148 0.39578 0.0
C1765 C 0.89614 0.41161 0.3532 0.0
C1766 C 0.90749 0.456 0.32236 0.0
C1767 C 0.90547 0.46506 0.36463 0.0
N1768 N 0.89344 0.45512 0.4405 0.0
N1769 N 0.89766 0.41799 0.27516 0.0
C1770 C 0.89855 0.44736 0.40103 0.0
C1771 C 0.90069 0.42849 0.31623 0.0
N1772 N 0.89489 0.40629 0.43132 0.0
N1773 N 0.91684 0.47392 0.28835 0.0
H1774 H 0.89333 0.39823 0.26943 0.0
H1775 H 0.89757 0.42818 0.24697 0.0
H1776 H 0.92128 0.49395 0.29132 0.0
H1777 H 0.92191 0.4695 0.25799 0.0
H1778 H 0.8976 0.41335 0.46332 0.0
H1779 H 0.89344 0.38737 0.42858 0.0
H1780 H 0.88575 0.44228 0.46735 0.0
H1781 H 0.89466 0.47382 0.44533 0.0
C1782 C 0.56227 0.45525 0.40614 0.0
C1783 C 0.54567 0.44254 0.3691 0.0
C1784 C 0.5843 0.47008 0.3209 0.0
C1785 C 0.6002 0.48423 0.35785 0.0
N1786 N 0.60312 0.49352 0.43494 0.0
N1787 N 0.53951 0.44088 0.29099 0.0
C1788 C 0.58877 0.47776 0.40028 0.0
C1789 C 0.55632 0.45074 0.32635 0.0
N1790 N 0.553 0.44514 0.44699 0.0
N1791 N 0.59615 0.47448 0.28069 0.0
H1792 H 0.51907 0.42645 0.29355 0.0
H1793 H 0.5453 0.44844 0.25946 0.0
H1794 H 0.61635 0.4888 0.27531 0.0
H1795 H 0.58654 0.46268 0.25338 0.0
H1796 H 0.56496 0.45174 0.47496 0.0
H1797 H 0.53398 0.42833 0.45253 0.0
H1798 H 0.595 0.49167 0.46604 0.0
H1799 H 0.62251 0.51018 0.43172 0.0
C1800 C 0.58052 0.13918 0.34936 0.0
C1801 C 0.57437 0.11182 0.35375 0.0
C1802 C 0.52645 0.09828 0.36191 0.0
C1803 C 0.53199 0.12481 0.35232 0.0
N1804 N 0.56436 0.16865 0.32307 0.0
N1805 N 0.53911 0.06496 0.34487 0.0
C1806 C 0.55905 0.14472 0.34164 0.0
C1807 C 0.54656 0.09124 0.35367 0.0
N1808 N 0.60623 0.16007 0.3549 0.0
N1809 N 0.50289 0.08017 0.38173 0.0
H1810 H 0.55287 0.0592 0.33421 0.0
H1811 H 0.5189 0.0498 0.34248 0.0
H1812 H 0.48892 0.08549 0.3929 0.0
H1813 H 0.49912 0.06113 0.39195 0.0
H1814 H 0.61087 0.18022 0.35607 0.0
H1815 H 0.62235 0.15733 0.36291 0.0
H1816 H 0.58349 0.18281 0.31165 0.0
H1817 H 0.54917 0.1728 0.31422 0.0
C1818 C 0.78216 0.55106 0.79767 0.0
C1819 C 0.80283 0.57263 0.82209 0.0
C1820 C 0.76828 0.57779 0.86219 0.0
C1821 C 0.74773 0.55765 0.83549 0.0
N1822 N 0.7357 0.52889 0.77209 0.0
N1823 N 0.81585 0.61009 0.8717 0.0
C1824 C 0.75487 0.5453 0.80164 0.0
C1825 C 0.79596 0.58716 0.85236 0.0
N1826 N 0.78857 0.53607 0.77053 0.0
N1827 N 0.76146 0.5869 0.89858 0.0
H1828 H 0.83635 0.61712 0.86698 0.0
H1829 H 0.81202 0.62328 0.88979 0.0
H1830 H 0.74153 0.58011 0.90761 0.0
H1831 H 0.77543 0.59922 0.92202 0.0
H1832 H 0.77416 0.5182 0.7557 0.0
H1833 H 0.80836 0.54039 0.76517 0.0
H1834 H 0.74001 0.52138 0.74411 0.0
H1835 H 0.71578 0.52492 0.77317 0.0
C1836 C 0.44345 0.22421 0.86425 0.0
C1837 C 0.44163 0.23209 0.82092 0.0
C1838 C 0.44946 0.1962 0.79218 0.0
C1839 C 0.45379 0.19004 0.83529 0.0
N1840 N 0.45753 0.19971 0.91247 0.0
N1841 N 0.44664 0.22832 0.74345 0.0
C1842 C 0.45153 0.20451 0.87136 0.0
C1843 C 0.44557 0.21873 0.78482 0.0
N1844 N 0.43626 0.23463 0.89857 0.0
N1845 N 0.44884 0.18032 0.75825 0.0
H1846 H 0.44448 0.2451 0.73685 0.0
H1847 H 0.45203 0.2213 0.71604 0.0
H1848 H 0.45213 0.16403 0.76239 0.0
H1849 H 0.4429 0.18179 0.72669 0.0
H1850 H 0.43399 0.22739 0.93042 0.0
H1851 H 0.43055 0.24927 0.89482 0.0
H1852 H 0.4596 0.21177 0.93936 0.0
H1853 H 0.46202 0.18448 0.91931 0.0
C1854 C 0.80796 0.24984 0.87311 0.0
C1855 C 0.82094 0.2671 0.83688 0.0
C1856 C 0.79217 0.23016 0.7865 0.0
C1857 C 0.77801 0.21338 0.8228 0.0
N1858 N 0.77076 0.20752 0.90051 0.0
N1859 N 0.82445 0.27496 0.7593 0.0
C1860 C 0.78539 0.22337 0.8661 0.0
C1861 C 0.81288 0.25752 0.7936 0.0
N1862 N 0.81783 0.25861 0.91423 0.0
N1863 N 0.78583 0.21981 0.74509 0.0
H1864 H 0.84045 0.29468 0.76312 0.0
H1865 H 0.81748 0.27056 0.72727 0.0
H1866 H 0.76922 0.2009 0.73804 0.0
H1867 H 0.79753 0.22938 0.71773 0.0
H1868 H 0.81132 0.24645 0.94195 0.0
H1869 H 0.83425 0.27778 0.92033 0.0
H1870 H 0.77304 0.21435 0.93258 0.0
H1871 H 0.75492 0.18773 0.89679 0.0
C1872 C 0.45274 0.2498 0.36774 0.0
C1873 C 0.4519 0.26512 0.33172 0.0
C1874 C 0.44094 0.22684 0.28274 0.0
C1875 C 0.44026 0.21093 0.31912 0.0
N1876 N 0.44012 0.20553 0.39731 0.0
N1877 N 0.44038 0.26681 0.25661 0.0
C1878 C 0.44472 0.22195 0.36196 0.0
C1879 C 0.44437 0.2531 0.28976 0.0
N1880 N 0.46177 0.26205 0.40741 0.0
N1881 N 0.43973 0.21741 0.24122 0.0
H1882 H 0.44313 0.28619 0.26054 0.0
H1883 H 0.43208 0.25813 0.2265 0.0
H1884 H 0.43818 0.19876 0.23454 0.0
H1885 H 0.44281 0.22903 0.21329 0.0
H1886 H 0.46613 0.25311 0.43348 0.0
H1887 H 0.46651 0.28192 0.41349 0.0
H1888 H 0.44011 0.21157 0.4294 0.0
H1889 H 0.43395 0.18503 0.39455 0.0
C1890 C 0.79895 0.2247 0.36081 0.0
C1891 C 0.80753 0.23633 0.31873 0.0
C1892 C 0.76163 0.20686 0.28984 0.0
C1893 C 0.75332 0.19444 0.33152 0.0
N1894 N 0.76423 0.18909 0.40547 0.0
N1895 N 0.79821 0.23788 0.24233 0.0
C1896 C 0.77209 0.20269 0.36665 0.0
C1897 C 0.78915 0.22721 0.283 0.0
N1898 N 0.81646 0.23505 0.3953 0.0
N1899 N 0.74294 0.19953 0.2571 0.0
H1900 H 0.81767 0.25395 0.23664 0.0
H1901 H 0.78707 0.2302 0.21377 0.0
H1902 H 0.72311 0.18363 0.26017 0.0
H1903 H 0.74651 0.20969 0.22747 0.0
H1904 H 0.81103 0.22954 0.4277 0.0
H1905 H 0.83636 0.25075 0.39202 0.0
H1906 H 0.77728 0.19193 0.43124 0.0
H1907 H 0.74467 0.17333 0.41095 0.0
C1908 C 0.81448 0.56301 0.29186 0.0
C1909 C 0.81948 0.55675 0.33447 0.0
C1910 C 0.78434 0.56544 0.36384 0.0
C1911 C 0.77767 0.56925 0.32064 0.0
N1912 N 0.78326 0.56708 0.2429 0.0
N1913 N 0.8076 0.54924 0.41077 0.0
C1914 C 0.792 0.56691 0.28448 0.0
C1915 C 0.80393 0.55717 0.3704 0.0
N1916 N 0.83138 0.56541 0.25841 0.0
N1917 N 0.77289 0.5709 0.39873 0.0
H1918 H 0.82271 0.54456 0.41738 0.0
H1919 H 0.79473 0.54578 0.4371 0.0
H1920 H 0.75836 0.57676 0.39545 0.0
H1921 H 0.7792 0.57166 0.43087 0.0
H1922 H 0.83073 0.57288 0.22765 0.0
H1923 H 0.84766 0.56212 0.26244 0.0
H1924 H 0.79105 0.56277 0.21528 0.0
H1925 H 0.76635 0.56895 0.23613 0.0
C1926 C 0.56577 0.12607 0.88878 0.0
C1927 C 0.54548 0.10456 0.86377 0.0
C1928 C 0.58062 0.10126 0.82248 0.0
C1929 C 0.60079 0.12081 0.85038 0.0
N1930 N 0.61196 0.1482 0.91542 0.0
N1931 N 0.53338 0.06823 0.81223 0.0
C1932 C 0.59319 0.13229 0.88497 0.0
C1933 C 0.55286 0.09105 0.83241 0.0
N1934 N 0.55889 0.14048 0.9164 0.0
N1935 N 0.58784 0.09355 0.78498 0.0
H1936 H 0.5128 0.06049 0.81744 0.0
H1937 H 0.53771 0.05579 0.79301 0.0
H1938 H 0.60785 0.1013 0.77567 0.0
H1939 H 0.57404 0.08165 0.76101 0.0
H1940 H 0.57304 0.15825 0.93179 0.0
H1941 H 0.53897 0.13587 0.92138 0.0
H1942 H 0.60721 0.15502 0.94377 0.0
H1943 H 0.63195 0.15238 0.91466 0.0
C1944 C 0.89481 0.4704 0.81509 0.0
C1945 C 0.89284 0.48471 0.85164 0.0
C1946 C 0.90202 0.45624 0.90093 0.0
C1947 C 0.90616 0.44338 0.8643 0.0
N1948 N 0.91061 0.44104 0.78635 0.0
N1949 N 0.8985 0.49424 0.92874 0.0
C1950 C 0.90354 0.45113 0.82128 0.0
C1951 C 0.89769 0.47854 0.89439 0.0
N1952 N 0.88789 0.47492 0.77448 0.0
N1953 N 0.90126 0.44642 0.94202 0.0
H1954 H 0.89508 0.51048 0.92517 0.0
H1955 H 0.90476 0.4927 0.96004 0.0
H1956 H 0.90364 0.42971 0.948 0.0
H1957 H 0.89581 0.45312 0.96976 0.0
H1958 H 0.88572 0.46296 0.74739 0.0
H1959 H 0.88263 0.48968 0.76835 0.0
H1960 H 0.91224 0.44823 0.75458 0.0
H1961 H 0.91682 0.42675 0.78947 0.0
C1962 C 0.54216 0.42636 0.81637 0.0
C1963 C 0.52844 0.40966 0.85289 0.0
C1964 C 0.55756 0.44666 0.90245 0.0
C1965 C 0.57058 0.46395 0.86617 0.0
N1966 N 0.57264 0.47151 0.78846 0.0
N1967 N 0.52246 0.40427 0.931 0.0
C1968 C 0.56227 0.45408 0.82301 0.0
C1969 C 0.53587 0.42003 0.89581 0.0
N1970 N 0.53649 0.41546 0.77533 0.0
N1971 N 0.56554 0.45499 0.94431 0.0
H1972 H 0.50609 0.38467 0.92798 0.0
H1973 H 0.52737 0.41116 0.96313 0.0
H1974 H 0.58178 0.47386 0.9528 0.0
H1975 H 0.58178 0.47386 0.9528 0.0
H1976 H 0.54786 0.42533 0.74782 0.0
H1977 H 0.52122 0.39571 0.7691 0.0
H1978 H 0.56513 0.46663 0.75676 0.0
H1979 H 0.5878 0.49165 0.79187 0.0
C1980 C 0.56189 0.75529 0.72987 0.0
C1981 C 0.56565 0.74734 0.68764 0.0
C1982 C 0.57955 0.79296 0.65931 0.0
C1983 C 0.57646 0.80111 0.70177 0.0
N1984 N 0.56578 0.79108 0.77802 0.0
N1985 N 0.58044 0.75869 0.61312 0.0
C1986 C 0.56795 0.78252 0.73723 0.0
C1987 C 0.57523 0.76627 0.65266 0.0
N1988 N 0.55198 0.73649 0.76268 0.0
N1989 N 0.58619 0.81069 0.6252 0.0
H1990 H 0.57678 0.73921 0.60692 0.0
H1991 H 0.58992 0.77184 0.58719 0.0
H1992 H 0.59013 0.8305 0.62901 0.0
H1993 H 0.58628 0.8056 0.59261 0.0
H1994 H 0.54596 0.73961 0.79312 0.0
H1995 H 0.54901 0.71699 0.7591 0.0
H1996 H 0.56237 0.77984 0.80644 0.0
H1997 H 0.56841 0.81026 0.78402 0.0
C1998 C 0.25112 0.804 0.65398 0.0
C1999 C 0.2678 0.81615 0.69118 0.0
C2000 C 0.23036 0.78567 0.73901 0.0
C2001 C 0.21304 0.77531 0.7021 0.0
N2002 N 0.20565 0.77743 0.62502 0.0
N2003 N 0.27245 0.82144 0.76926 0.0
C2004 C 0.22307 0.78521 0.65968 0.0
C2005 C 0.25712 0.80782 0.73378 0.0
N2006 N 0.26226 0.80971 0.61318 0.0
N2007 N 0.22141 0.77373 0.77893 0.0
H2008 H 0.2921 0.83773 0.76652 0.0
H2009 H 0.26504 0.81819 0.80107 0.0
H2010 H 0.20208 0.75726 0.78382 0.0
H2011 H 0.23378 0.7785 0.80635 0.0
H2012 H 0.25192 0.79932 0.58518 0.0
H2013 H 0.28259 0.82345 0.60774 0.0
H2014 H 0.21112 0.78639 0.59428 0.0
H2015 H 0.18511 0.76333 0.62772 0.0
C2016 C 0.23099 0.45458 0.7299 0.0
C2017 C 0.24072 0.44579 0.69443 0.0
C2018 C 0.20817 0.44884 0.64527 0.0
C2019 C 0.1974 0.4561 0.6813 0.0
N2020 N 0.19563 0.4621 0.75879 0.0
N2021 N 0.23657 0.43107 0.61968 0.0
C2022 C 0.208 0.45786 0.7239 0.0
C2023 C 0.22878 0.44201 0.65241 0.0
N2024 N 0.2443 0.46052 0.76907 0.0
N2025 N 0.19919 0.44921 0.604 0.0
H2026 H 0.25236 0.42699 0.62318 0.0
H2027 H 0.22646 0.42457 0.58997 0.0
H2028 H 0.18343 0.45299 0.59775 0.0
H2029 H 0.20827 0.4473 0.57579 0.0
H2030 H 0.2401 0.46959 0.79508 0.0
H2031 H 0.26123 0.45845 0.77448 0.0
H2032 H 0.20047 0.46092 0.7912 0.0
H2033 H 0.1788 0.46457 0.75548 0.0
C2034 C 0.43028 0.89498 0.20887 0.0
C2035 C 0.41326 0.89031 0.17208 0.0
C2036 C 0.45007 0.89643 0.1233 0.0
C2037 C 0.46777 0.9033 0.15974 0.0
N2038 N 0.47594 0.91264 0.23669 0.0
N2039 N 0.40782 0.89039 0.09412 0.0
C2040 C 0.45818 0.90344 0.20246 0.0
C2041 C 0.42346 0.89215 0.12923 0.0
N2042 N 0.41959 0.89059 0.24998 0.0
N2043 N 0.45855 0.89325 0.08308 0.0
H2044 H 0.3883 0.88734 0.09733 0.0
H2045 H 0.41489 0.89431 0.06211 0.0
H2046 H 0.47774 0.89584 0.07765 0.0
H2047 H 0.44594 0.88572 0.05595 0.0
H2048 H 0.42997 0.89051 0.27791 0.0
H2049 H 0.39957 0.88526 0.25595 0.0
H2050 H 0.471 0.9163 0.2677 0.0
H2051 H 0.49628 0.91837 0.23339 0.0
C2052 C 0.11822 0.53882 0.20016 0.0
C2053 C 0.12303 0.52717 0.16255 0.0
C2054 C 0.11744 0.55921 0.11611 0.0
C2055 C 0.10957 0.56862 0.15312 0.0
N2056 N 0.09889 0.5649 0.22984 0.0
N2057 N 0.12322 0.52351 0.08415 0.0
C2058 C 0.10899 0.55775 0.19506 0.0
C2059 C 0.12152 0.53663 0.12033 0.0
N2060 N 0.12366 0.53277 0.24073 0.0
N2061 N 0.12175 0.57241 0.07707 0.0
H2062 H 0.12575 0.50664 0.08602 0.0
H2063 H 0.11969 0.52774 0.05252 0.0
H2064 H 0.11919 0.58917 0.07294 0.0
H2065 H 0.1301 0.56832 0.04992 0.0
H2066 H 0.12324 0.54266 0.26907 0.0
H2067 H 0.13103 0.51958 0.24559 0.0
H2068 H 0.09496 0.55529 0.26008 0.0
H2069 H 0.09262 0.57919 0.22758 0.0
C2070 C 0.45574 0.5652 0.11899 0.0
C2071 C 0.44537 0.54777 0.15574 0.0
C2072 C 0.47636 0.58515 0.20358 0.0
C2073 C 0.48836 0.60181 0.1663 0.0
N2074 N 0.49239 0.60644 0.08809 0.0
N2075 N 0.44784 0.53987 0.23246 0.0
C2076 C 0.47885 0.59143 0.12385 0.0
C2077 C 0.45621 0.55741 0.19795 0.0
N2078 N 0.44288 0.55691 0.07958 0.0
N2079 N 0.48356 0.59608 0.24444 0.0
H2080 H 0.43234 0.5198 0.22993 0.0
H2081 H 0.45728 0.54468 0.26288 0.0
H2082 H 0.49853 0.61605 0.24981 0.0
H2083 H 0.47348 0.586 0.27277 0.0
H2084 H 0.44767 0.56953 0.05249 0.0
H2085 H 0.42576 0.53794 0.07501 0.0
H2086 H 0.48826 0.599 0.05627 0.0
H2087 H 0.50946 0.62563 0.09053 0.0
C2088 C 0.11865 0.58336 0.70758 0.0
C2089 C 0.12285 0.60036 0.67094 0.0
C2090 C 0.11819 0.56425 0.62183 0.0
C2091 C 0.11169 0.54648 0.65808 0.0
N2092 N 0.10223 0.53775 0.7349 0.0
N2093 N 0.12282 0.60605 0.59302 0.0
C2094 C 0.11109 0.55569 0.70089 0.0
C2095 C 0.12148 0.59049 0.62798 0.0
N2096 N 0.12244 0.59382 0.74882 0.0
N2097 N 0.12191 0.55617 0.58162 0.0
H2098 H 0.1253 0.62536 0.59642 0.0
H2099 H 0.11919 0.59907 0.56093 0.0
H2100 H 0.12001 0.53724 0.57614 0.0
H2101 H 0.12916 0.56893 0.5546 0.0
H2102 H 0.12285 0.58353 0.77666 0.0
H2103 H 0.12688 0.61358 0.75502 0.0
H2104 H 0.09816 0.54232 0.76591 0.0
H2105 H 0.09726 0.51759 0.73143 0.0
C2106 C 0.46292 0.56142 0.69522 0.0
C2107 C 0.47201 0.57179 0.6526 0.0
C2108 C 0.42664 0.54115 0.62274 0.0
C2109 C 0.41767 0.53027 0.66521 0.0
N2110 N 0.42675 0.52875 0.74166 0.0
N2111 N 0.46351 0.57238 0.57567 0.0
C2112 C 0.43573 0.54007 0.7014 0.0
C2113 C 0.45405 0.56189 0.61632 0.0
N2114 N 0.48037 0.57226 0.72973 0.0
N2115 N 0.40865 0.53172 0.58873 0.0
H2116 H 0.48286 0.58872 0.57037 0.0
H2117 H 0.45274 0.56489 0.54678 0.0
H2118 H 0.389 0.5155 0.59183 0.0
H2119 H 0.41262 0.53993 0.55748 0.0
H2120 H 0.47511 0.56729 0.76229 0.0
H2121 H 0.50041 0.58758 0.72618 0.0
H2122 H 0.43886 0.5329 0.76917 0.0
H2123 H 0.40682 0.51401 0.74743 0.0
C2124 C 0.45734 0.89687 0.61817 0.0
C2125 C 0.44465 0.90011 0.65578 0.0
C2126 C 0.47338 0.88971 0.70247 0.0
C2127 C 0.4878 0.88914 0.66498 0.0
N2128 N 0.49645 0.89666 0.5878 0.0
N2129 N 0.44328 0.90371 0.73407 0.0
C2130 C 0.48061 0.89405 0.62301 0.0
C2131 C 0.45337 0.8976 0.6981 0.0
N2132 N 0.44647 0.89545 0.57776 0.0
N2133 N 0.47808 0.88175 0.74204 0.0
H2134 H 0.42839 0.90917 0.73219 0.0
H2135 H 0.45107 0.90533 0.76541 0.0
H2136 H 0.49252 0.87589 0.74644 0.0
H2137 H 0.46627 0.87888 0.7696 0.0
H2138 H 0.45303 0.89026 0.54956 0.0
H2139 H 0.4291 0.89682 0.57295 0.0
H2140 H 0.49397 0.9031 0.55717 0.0
H2141 H 0.51371 0.89486 0.59019 0.0
C2142 C 0.22344 0.44309 0.15703 0.0
C2143 C 0.21299 0.43952 0.20019 0.0
C2144 C 0.25618 0.44602 0.22917 0.0
C2145 C 0.26745 0.45231 0.18661 0.0
N2146 N 0.26285 0.45934 0.11017 0.0
N2147 N 0.22076 0.44171 0.27796 0.0
C2148 C 0.25133 0.45152 0.15057 0.0
C2149 C 0.2297 0.44193 0.23643 0.0
N2150 N 0.20647 0.4373 0.12211 0.0
N2151 N 0.27077 0.44379 0.26271 0.0
H2152 H 0.20191 0.43964 0.28467 0.0
H2153 H 0.23286 0.4461 0.30563 0.0
H2154 H 0.29033 0.4471 0.25865 0.0
H2155 H 0.26275 0.43639 0.29351 0.0
H2156 H 0.21204 0.43646 0.09002 0.0
H2157 H 0.18603 0.43115 0.12535 0.0
H2158 H 0.25333 0.46256 0.0837 0.0
H2159 H 0.28268 0.46415 0.10367 0.0
C2160 C 0.56798 0.80884 0.15031 0.0
C2161 C 0.56133 0.81995 0.18663 0.0
C2162 C 0.56563 0.7881 0.23555 0.0
C2163 C 0.57396 0.77821 0.1997 0.0
N2164 N 0.58713 0.7818 0.12416 0.0
N2165 N 0.55794 0.82338 0.26445 0.0
C2166 C 0.5762 0.78927 0.15735 0.0
C2167 C 0.56143 0.81053 0.22948 0.0
N2168 N 0.56582 0.81656 0.10892 0.0
N2169 N 0.56098 0.77545 0.27519 0.0
H2170 H 0.5547 0.83974 0.26104 0.0
H2171 H 0.56051 0.81942 0.29677 0.0
H2172 H 0.56379 0.75896 0.2807 0.0
H2173 H 0.55234 0.77981 0.30162 0.0
H2174 H 0.56706 0.80693 0.08086 0.0
H2175 H 0.56118 0.83172 0.10263 0.0
H2176 H 0.59236 0.79141 0.0939 0.0
H2177 H 0.59276 0.76709 0.12778 0.0
C2178 C 0.20134 0.75347 0.229 0.0
C2179 C 0.19379 0.74353 0.18583 0.0
C2180 C 0.22737 0.78805 0.15651 0.0
C2181 C 0.23624 0.79734 0.19968 0.0
N2182 N 0.23474 0.78798 0.27673 0.0
N2183 N 0.20142 0.74992 0.1082 0.0
C2184 C 0.22404 0.77974 0.23586 0.0
C2185 C 0.20732 0.76044 0.14948 0.0
N2186 N 0.18643 0.73791 0.26345 0.0
N2187 N 0.23731 0.80586 0.12239 0.0
H2188 H 0.18609 0.73024 0.10164 0.0
H2189 H 0.21269 0.76007 0.08075 0.0
H2190 H 0.25257 0.82594 0.12606 0.0
H2191 H 0.22933 0.80131 0.09093 0.0
H2192 H 0.18895 0.74495 0.29545 0.0
H2193 H 0.16982 0.71854 0.25955 0.0
H2194 H 0.22856 0.77537 0.30396 0.0
H2195 H 0.25157 0.80692 0.28284 0.0
C2196 C 0.26866 0.26578 0.23712 0.0
C2197 C 0.25036 0.2413 0.21589 0.0
C2198 C 0.22435 0.22594 0.28429 0.0
C2199 C 0.24516 0.24867 0.30675 0.0
N2200 N 0.29115 0.28558 0.30526 0.0
N2201 N 0.21349 0.19531 0.22302 0.0
C2202 C 0.26856 0.26719 0.28336 0.0
C2203 C 0.22891 0.22051 0.2405 0.0
N2204 N 0.28581 0.28799 0.21317 0.0
N2205 N 0.1999 0.21009 0.30377 0.0
H2206 H 0.21648 0.19027 0.1916 0.0
H2207 H 0.19939 0.17885 0.24124 0.0
H2208 H 0.19541 0.21371 0.33518 0.0
H2209 H 0.18333 0.19493 0.28711 0.0
H2210 H 0.29807 0.30692 0.22729 0.0
H2211 H 0.28586 0.28786 0.17905 0.0
H2212 H 0.30944 0.29807 0.28954 0.0
H2213 H 0.29211 0.28644 0.33934 0.0
C2214 C 0.79608 0.01055 0.23788 0.0
C2215 C 0.77603 0.01381 0.21557 0.0
C2216 C 0.74987 1.00328 0.28375 0.0
C2217 C 0.76837 0.99716 0.30477 0.0
N2218 N 0.80651 0.99006 0.29882 0.0
N2219 N 0.73117 0.00787 0.21526 0.0
C2220 C 0.79079 0.99943 0.28099 0.0
C2221 C 0.75211 0.00853 0.23798 0.0
N2222 N 0.8206 0.019 0.21867 0.0
N2223 N 0.73051 1.00478 0.30779 0.0
H2224 H 0.73188 0.01115 0.18163 0.0
H2225 H 0.71222 1.00148 0.2289 0.0
H2226 H 0.72851 1.00153 0.34147 0.0
H2227 H 0.71819 0.01181 0.29517 0.0
H2228 H 0.83698 0.01987 0.23518 0.0
H2229 H 0.82535 0.02737 0.18742 0.0
H2230 H 0.82129 0.98849 0.28126 0.0
H2231 H 0.80324 0.98163 0.33001 0.0
C2232 C 0.01641 0.79986 0.28079 0.0
C2233 C 0.02346 0.78203 0.30198 0.0
C2234 C 0.0193 0.75959 0.23143 0.0
C2235 C 1.00847 0.77465 0.21182 0.0
N2236 N 0.99186 0.80585 0.22121 0.0
N2237 N 0.02554 0.74081 0.2984 0.0
C2238 C 1.00568 0.79393 0.23742 0.0
C2239 C 0.02312 0.76067 0.27751 0.0
N2240 N 0.02089 0.82303 0.30119 0.0
N2241 N 0.02648 0.74457 0.20587 0.0
H2242 H 0.02732 0.74026 0.33226 0.0
H2243 H 0.02294 0.72349 0.2826 0.0
H2244 H 0.02444 0.74378 0.17192 0.0
H2245 H 0.0368 0.73516 0.21793 0.0
H2246 H 0.01858 0.83799 0.28554 0.0
H2247 H 0.0294 0.82852 0.33227 0.0
H2248 H 0.98678 0.81781 0.24019 0.0
H2249 H 0.98349 0.80194 0.18994 0.0
C2250 C 0.7562 0.75319 0.78371 0.0
C2251 C 0.77284 0.77887 0.80328 0.0
C2252 C 0.799 0.79441 0.73497 0.0
C2253 C 0.78043 0.76976 0.71401 0.0
N2254 N 0.73754 0.72828 0.71655 0.0
N2255 N 0.80599 0.82599 0.79336 0.0
C2256 C 0.75786 0.74995 0.73787 0.0
C2257 C 0.79311 0.80012 0.77773 0.0
N2258 N 0.73911 0.73164 0.80905 0.0
N2259 N 0.82279 0.81195 0.71502 0.0
H2260 H 0.80183 0.83106 0.82398 0.0
H2261 H 0.81895 0.84263 0.77434 0.0
H2262 H 0.82817 0.80828 0.6843 0.0
H2263 H 0.83816 0.82885 0.73071 0.0
H2264 H 0.72844 0.71189 0.79725 0.0
H2265 H 0.73762 0.73306 0.84281 0.0
H2266 H 0.71941 0.71457 0.73151 0.0
H2267 H 0.73763 0.72559 0.68285 0.0
C2268 C 0.22698 0.01439 0.74174 0.0
C2269 C 0.24971 0.01667 0.71893 0.0
C2270 C 0.26533 1.00585 0.78694 0.0
C2271 C 0.24106 1.0004 0.80834 0.0
N2272 N 0.19619 0.99429 0.80274 0.0
N2273 N 0.28754 0.00892 0.71804 0.0
C2274 C 0.22113 1.00323 0.78481 0.0
C2275 C 0.268 0.01071 0.74107 0.0
N2276 N 0.21149 0.02378 0.72307 0.0
N2277 N 0.28613 0.00691 0.81065 0.0
H2278 H 0.28978 0.01175 0.6843 0.0
H2279 H 0.29972 1.00201 0.73164 0.0
H2280 H 0.28511 1.00393 0.84438 0.0
H2281 H 0.30525 0.01336 0.79762 0.0
H2282 H 0.19642 0.0252 0.73997 0.0
H2283 H 0.21529 0.03241 0.692 0.0
H2284 H 0.18 0.99319 0.78527 0.0
H2285 H 0.19099 0.98575 0.83385 0.0
C2286 C 1.00468 0.25447 0.78519 0.0
C2287 C 0.01414 0.23876 0.80668 0.0
C2288 C 1.0083 0.21399 0.73774 0.0
C2289 C 1.00241 0.23227 0.71521 0.0
N2290 N 1.00201 0.27436 0.71688 0.0
N2291 N 0.03041 0.20711 0.80013 0.0
C2292 C 1.00288 0.25395 0.73882 0.0
C2293 C 0.01754 0.2195 0.78203 0.0
N2294 N 0.99659 0.26935 0.80915 0.0
N2295 N 1.004 0.19077 0.7178 0.0
H2296 H 0.03774 0.21075 0.83208 0.0
H2297 H 0.03582 0.19503 0.78215 0.0
H2298 H 0.99676 0.1857 0.68593 0.0
H2299 H 1.00534 0.17549 0.7343 0.0
H2300 H 0.98721 0.27926 0.79528 0.0
H2301 H 0.9969 0.26956 0.84326 0.0
H2302 H 1.00456 0.29177 0.73231 0.0
H2303 H 1.00156 0.2751 0.68283 0.0
C2304 C 0.88893 0.54799 0.57254 0.0
C2305 C 0.91178 0.56772 0.54899 0.0
C2306 C 0.92851 0.59485 0.61623 0.0
C2307 C 0.90426 0.57675 0.63842 0.0
N2308 N 0.85891 0.53871 0.63429 0.0
N2309 N 0.9505 0.61269 0.54664 0.0
C2310 C 0.88374 0.55402 0.61561 0.0
C2311 C 0.93071 0.59198 0.57038 0.0
N2312 N 0.87268 0.52309 0.55457 0.0
N2313 N 0.94983 0.61446 0.63921 0.0
H2314 H 0.95245 0.61159 0.51293 0.0
H2315 H 0.96321 0.63184 0.55958 0.0
H2316 H 0.94921 0.6169 0.67289 0.0
H2317 H 0.96893 0.6265 0.62569 0.0
H2318 H 0.85749 0.50699 0.57198 0.0
H2319 H 0.87591 0.51779 0.52347 0.0
H2320 H 0.84235 0.52368 0.61743 0.0
H2321 H 0.85419 0.5426 0.66536 0.0
C2322 C 0.46401 0.34343 0.57161 0.0
C2323 C 0.44335 0.3453 0.54862 0.0
C2324 C 0.41713 0.33483 0.61667 0.0
C2325 C 0.43617 0.32973 0.6383 0.0
N2326 N 0.4753 0.32418 0.63327 0.0
N2327 N 0.39775 0.33742 0.54761 0.0
C2328 C 0.45897 0.33265 0.61492 0.0
C2329 C 0.41914 0.33934 0.57072 0.0
N2330 N 0.48883 0.35291 0.55289 0.0
N2331 N 0.39743 0.33601 0.64025 0.0
H2332 H 0.39829 0.34013 0.51383 0.0
H2333 H 0.37871 0.33058 0.5612 0.0
H2334 H 0.39566 0.33338 0.67406 0.0
H2335 H 0.38461 0.34224 0.62701 0.0
H2336 H 0.50547 0.35471 0.56989 0.0
H2337 H 0.49342 0.36117 0.52155 0.0
H2338 H 0.49047 0.32315 0.61598 0.0
H2339 H 0.47218 0.31595 0.66458 0.0
C2340 C 0.68415 0.13155 0.61142 0.0
C2341 C 0.68416 0.11025 0.63563 0.0
C2342 C 0.67364 0.08358 0.56805 0.0
C2343 C 0.66995 0.10317 0.54515 0.0
N2344 N 0.6667 0.14378 0.54849 0.0
N2345 N 0.67261 0.06345 0.63825 0.0
C2346 C 0.67386 0.12666 0.56776 0.0
C2347 C 0.67688 0.08545 0.61428 0.0
N2348 N 0.6948 0.15676 0.62934 0.0
N2349 N 0.67446 0.06333 0.54553 0.0
H2350 H 0.67435 0.06397 0.67223 0.0
H2351 H 0.6649 0.04419 0.62484 0.0
H2352 H 0.67283 0.06175 0.51156 0.0
H2353 H 0.67944 0.04987 0.56009 0.0
H2354 H 0.69792 0.17365 0.6115 0.0
H2355 H 0.70279 0.16133 0.66085 0.0
H2356 H 0.66644 0.15956 0.56522 0.0
H2357 H 0.65866 0.14079 0.51707 0.0
C2358 C 0.45863 0.13183 0.11311 0.0
C2359 C 0.44233 0.10979 0.14125 0.0
C2360 C 0.4287 0.07926 0.07834 0.0
C2361 C 0.44782 0.10047 0.05134 0.0
N2362 N 0.48607 0.14588 0.04763 0.0
N2363 N 0.41777 0.06149 0.15186 0.0
C2364 C 0.46431 0.12653 0.06998 0.0
C2365 C 0.42936 0.08316 0.12422 0.0
N2366 N 0.46782 0.15779 0.1266 0.0
N2367 N 0.40924 0.05563 0.06017 0.0
H2368 H 0.41824 0.06366 0.18576 0.0
H2369 H 0.41003 0.04161 0.14117 0.0
H2370 H 0.4071 0.05248 0.02648 0.0
H2371 H 0.39353 0.04048 0.07831 0.0
H2372 H 0.47759 0.17436 0.10571 0.0
H2373 H 0.46352 0.16251 0.1574 0.0
H2374 H 0.5 0.16434 0.06154 0.0
H2375 H 0.4917 0.14241 0.01699 0.0
C2376 C 0.93426 0.33984 0.11526 0.0
C2377 C 0.90973 0.33298 0.13714 0.0
C2378 C 0.89387 0.34573 0.07117 0.0
C2379 C 0.91712 0.34969 0.04793 0.0
N2380 N 0.95686 0.3451 0.04592 0.0
N2381 N 0.86393 0.32439 0.13279 0.0
C2382 C 0.93656 0.34515 0.06948 0.0
C2383 C 0.88888 0.33453 0.11422 0.0
N2384 N 0.95566 0.34186 0.13845 0.0
N2385 N 0.87703 0.35358 0.05291 0.0
H2386 H 0.8594 0.31591 0.16399 0.0
H2387 H 0.84716 0.32228 0.11583 0.0
H2388 H 0.88009 0.3621 0.02182 0.0
H2389 H 0.86143 0.35386 0.07009 0.0
H2390 H 0.97491 0.34939 0.12524 0.0
H2391 H 0.95487 0.33846 0.17206 0.0
H2392 H 0.97001 0.33922 0.05892 0.0
H2393 H 0.95891 0.34836 0.01226 0.0
C2394 C 0.66885 0.54772 0.07257 0.0
C2395 C 0.66214 0.56584 0.05155 0.0
C2396 C 0.66686 0.58852 0.12202 0.0
C2397 C 0.67713 0.57293 0.14156 0.0
N2398 N 0.69269 0.54088 0.13239 0.0
N2399 N 0.66079 0.60744 0.05503 0.0
C2400 C 0.67947 0.55339 0.11599 0.0
C2401 C 0.66291 0.58741 0.07598 0.0
N2402 N 0.66404 0.52449 0.05201 0.0
N2403 N 0.66062 0.60428 0.14756 0.0
H2404 H 0.65888 0.60791 0.02118 0.0
H2405 H 0.66377 0.62494 0.07067 0.0
H2406 H 0.66305 0.60538 0.18144 0.0
H2407 H 0.65072 0.61414 0.13564 0.0
H2408 H 0.66602 0.5093 0.06755 0.0
H2409 H 0.65559 0.51918 0.02087 0.0
H2410 H 0.69749 0.52867 0.1135 0.0
H2411 H 0.70086 0.54451 0.1638 0.0
C2412 C 0.55611 0.92056 0.93205 0.0
C2413 C 0.55865 0.90596 0.96755 0.0
C2414 C 0.56726 0.87908 0.91366 0.0
C2415 C 0.57285 0.89911 0.88117 0.0
N2416 N 0.57201 0.93964 0.86052 0.0
N2417 N 0.54126 0.85852 0.97883 0.0
C2418 C 0.56698 0.92 0.89058 0.0
C2419 C 0.55736 0.88131 0.95546 0.0
N2420 N 0.53883 0.93043 0.93535 0.0
N2421 N 0.57051 0.85746 0.90456 0.0
H2422 H 0.52847 0.85855 1.00312 0.0
H2423 H 0.53737 0.8393 0.96969 0.0
H2424 H 0.57521 0.85358 0.87345 0.0
H2425 H 0.56958 0.84409 0.92867 0.0
H2426 H 0.5343 0.93914 0.90906 0.0
H2427 H 0.5263 0.92619 0.96252 0.0
H2428 H 0.56992 0.95636 0.8679 0.0
H2429 H 0.58022 0.9403 0.82981 0.0
C2430 C 0.12339 0.66672 0.94886 0.0
C2431 C 0.1005 0.66379 0.97197 0.0
C2432 C 0.08477 0.67546 0.90481 0.0
C2433 C 0.10904 0.68121 0.88308 0.0
N2434 N 0.15395 0.68736 0.8877 0.0
N2435 N 0.06214 0.67067 0.97399 0.0
C2436 C 0.12908 0.67825 0.90603 0.0
C2437 C 0.08201 0.66976 0.95048 0.0
N2438 N 0.13921 0.65756 0.96704 0.0
N2439 N 0.06396 0.67472 0.88154 0.0
H2440 H 0.05972 0.66702 1.00754 0.0
H2441 H 0.04977 0.67757 0.96114 0.0
H2442 H 0.06503 0.67836 0.84799 0.0
H2443 H 0.04481 0.66799 0.89459 0.0
H2444 H 0.15438 0.65647 0.94989 0.0
H2445 H 0.13565 0.64884 0.99803 0.0
H2446 H 0.17024 0.68839 0.90472 0.0
H2447 H 0.15902 0.69614 0.85675 0.0
C2448 C 0.3394 0.46247 0.90528 0.0
C2449 C 0.33886 0.441 0.88083 0.0
C2450 C 0.34981 0.42448 0.94758 0.0
C2451 C 0.353 0.44737 0.97113 0.0
N2452 N 0.35678 0.49144 0.96903 0.0
N2453 N 0.35004 0.40555 0.87681 0.0
C2454 C 0.3495 0.46735 0.94903 0.0
C2455 C 0.34626 0.42336 0.90144 0.0
N2456 N 0.32935 0.47762 0.88748 0.0
N2457 N 0.34938 0.40337 0.96945 0.0
H2458 H 0.34791 0.40445 0.84288 0.0
H2459 H 0.35781 0.39386 0.88946 0.0
H2460 H 0.35115 0.40309 1.00335 0.0
H2461 H 0.34455 0.38509 0.95452 0.0
H2462 H 0.32651 0.4915 0.90547 0.0
H2463 H 0.32182 0.47479 0.85571 0.0
H2464 H 0.35733 0.50778 0.95282 0.0
H2465 H 0.36461 0.49596 1.00064 0.0
C2466 C 0.0801 0.42535 0.44357 0.0
C2467 C 0.1012 0.44636 0.46839 0.0
C2468 C 0.13113 0.45772 0.4044 0.0
C2469 C 0.10907 0.43879 0.37846 0.0
N2470 N 0.06095 0.4096 0.37161 0.0
N2471 N 0.14505 0.48685 0.46812 0.0
C2472 C 0.08303 0.42431 0.39754 0.0
C2473 C 0.12627 0.46382 0.44759 0.0
N2474 N 0.0576 0.40569 0.46409 0.0
N2475 N 0.15689 0.46918 0.38865 0.0
H2476 H 0.14193 0.49255 0.49896 0.0
H2477 H 0.16251 0.50157 0.45271 0.0
H2478 H 0.16139 0.46514 0.35752 0.0
H2479 H 0.17387 0.48088 0.4079 0.0
H2480 H 0.04278 0.38857 0.44803 0.0
H2481 H 0.05515 0.40501 0.49792 0.0
H2482 H 0.0412 0.40059 0.38328 0.0
H2483 H 0.06238 0.40861 0.33773 0.0
C2484 C 0.5995 0.67416 0.40089 0.0
C2485 C 0.58131 0.68098 0.3806 0.0
C2486 C 0.55466 0.66897 0.4485 0.0
C2487 C 0.57455 0.66511 0.47006 0.0
N2488 N 0.61872 0.66936 0.46864 0.0
N2489 N 0.54431 0.68975 0.38789 0.0
C2490 C 0.59782 0.6693 0.44673 0.0
C2491 C 0.55961 0.67973 0.40518 0.0
N2492 N 0.61811 0.67179 0.37611 0.0
N2493 N 0.53057 0.6614 0.4686 0.0
H2494 H 0.54729 0.69781 0.35646 0.0
H2495 H 0.53019 0.6921 0.40601 0.0
H2496 H 0.52603 0.65323 0.5 0.0
H2497 H 0.51424 0.66102 0.4527 0.0
H2498 H 0.63015 0.66429 0.38823 0.0
H2499 H 0.6197 0.67483 0.34237 0.0
H2500 H 0.63731 0.67496 0.45426 0.0
H2501 H 0.61845 0.66638 0.50232 0.0
C2502 C 0.33144 0.87617 0.40878 0.0
C2503 C 0.32852 0.89652 0.38673 0.0
C2504 C 0.33676 0.9211 0.45615 0.0
C2505 C 0.34346 0.9029 0.4767 0.0
N2506 N 0.35162 0.86542 0.46973 0.0
N2507 N 0.33384 0.94122 0.38814 0.0
C2508 C 0.34196 0.88098 0.45228 0.0
C2509 C 0.33277 0.91984 0.41011 0.0
N2510 N 0.32333 0.85187 0.38892 0.0
N2511 N 0.33404 0.93958 0.48078 0.0
H2512 H 0.33171 0.94136 0.3543 0.0
H2513 H 0.33952 0.95977 0.40286 0.0
H2514 H 0.33641 0.94076 0.51467 0.0
H2515 H 0.32684 0.95178 0.46824 0.0
H2516 H 0.3224 0.83535 0.40513 0.0
H2517 H 0.31525 0.84743 0.35745 0.0
H2518 H 0.35375 0.85111 0.45167 0.0
H2519 H 0.35955 0.86829 0.50123 0.0
C2520 C 0.33232 0.28226 0.94422 0.0
C2521 C 0.31915 0.25451 0.95659 0.0
C2522 C 0.35096 0.24814 0.91092 0.0
C2523 C 0.36257 0.2751 0.89503 0.0
N2524 N 0.36236 0.31715 0.89289 0.0
N2525 N 0.31236 0.20983 0.94407 0.0
C2526 C 0.35273 0.29206 0.91073 0.0
C2527 C 0.3274 0.23715 0.93739 0.0
N2528 N 0.32581 0.29933 0.96523 0.0
N2529 N 0.36315 0.23323 0.90198 0.0
H2530 H 0.29479 0.20095 0.9629 0.0
H2531 H 0.31568 0.19583 0.9274 0.0
H2532 H 0.38101 0.24081 0.88406 0.0
H2533 H 0.35726 0.21451 0.91622 0.0
H2534 H 0.33647 0.32026 0.96132 0.0
H2535 H 0.31041 0.29246 0.98847 0.0
H2536 H 0.35421 0.32953 0.89947 0.0
H2537 H 0.37765 0.32492 0.86943 0.0
C2538 C 0.77296 0.09805 0.94441 0.0
C2539 C 0.75795 0.0707 0.95876 0.0
C2540 C 0.7215 0.06363 0.90726 0.0
C2541 C 0.73556 0.09166 0.8966 0.0
N2542 N 0.77211 0.13649 0.91251 0.0
N2543 N 0.71645 0.02802 0.95728 0.0
C2544 C 0.76044 0.10909 0.91772 0.0
C2545 C 0.73176 0.05357 0.94105 0.0
N2546 N 0.79979 0.11328 0.95477 0.0
N2547 N 0.69874 0.04658 0.88439 0.0
H2548 H 0.72367 0.02009 0.98105 0.0
H2549 H 0.69622 0.01538 0.94915 0.0
H2550 H 0.69041 0.0536 0.86097 0.0
H2551 H 0.68903 0.02559 0.88701 0.0
H2552 H 0.81245 0.13242 0.94175 0.0
H2553 H 0.81016 0.10566 0.97245 0.0
H2554 H 0.78879 0.1504 0.93051 0.0
H2555 H 0.76346 0.14539 0.8935 0.0
C2556 C 0.95286 0.66678 0.90493 0.0
C2557 C 0.92461 0.64912 0.899 0.0
C2558 C 0.91575 0.67618 0.95179 0.0
C2559 C 0.94378 0.69209 0.96192 0.0
N2560 N 0.98893 0.69982 0.95153 0.0
N2561 N 0.87949 0.63342 0.92527 0.0
C2562 C 0.9624 0.68668 0.93933 0.0
C2563 C 0.90625 0.65265 0.9254 0.0
N2564 N 0.97052 0.66483 0.87724 0.0
N2565 N 0.8982 0.68449 0.96506 0.0
H2566 H 0.87191 0.61566 0.90701 0.0
H2567 H 0.86552 0.63373 0.9468 0.0
H2568 H 0.90453 0.70282 0.98109 0.0
H2569 H 0.87804 0.67503 0.95525 0.0
H2570 H 0.99113 0.67882 0.87653 0.0
H2571 H 0.96412 0.64984 0.85329 0.0
H2572 H 1.00299 0.69494 0.93939 0.0
H2573 H 0.99643 0.7143 0.9763 0.0
C2574 C 0.28929 0.3345 0.57709 0.0
C2575 C 0.26147 0.3206 0.56529 0.0
C2576 C 0.25427 0.35159 0.61177 0.0
C2577 C 0.28137 0.36394 0.62715 0.0
N2578 N 0.3241 0.36519 0.62796 0.0
N2579 N 0.21642 0.31231 0.57907 0.0
C2580 C 0.29881 0.35488 0.6107 0.0
C2581 C 0.2437 0.32806 0.58519 0.0
N2582 N 0.30666 0.32869 0.55545 0.0
N2583 N 0.23878 0.36308 0.62113 0.0
H2584 H 0.20784 0.29475 0.56014 0.0
H2585 H 0.20224 0.31505 0.59629 0.0
H2586 H 0.24597 0.38091 0.63909 0.0
H2587 H 0.21991 0.35668 0.60714 0.0
H2588 H 0.32758 0.33988 0.55896 0.0
H2589 H 0.30002 0.31334 0.5321 0.0
H2590 H 0.33692 0.35763 0.62079 0.0
H2591 H 0.33164 0.3804 0.6516 0.0
C2592 C 0.6671 0.90595 0.61252 0.0
C2593 C 0.65609 0.92183 0.62845 0.0
C2594 C 0.68635 0.95866 0.57818 0.0
C2595 C 0.69879 0.94347 0.56531 0.0
N2596 N 0.7045 0.90484 0.57725 0.0
N2597 N 0.65723 0.96454 0.63009 0.0
C2598 C 0.69017 0.9178 0.58475 0.0
C2599 C 0.66626 0.94858 0.61222 0.0
N2600 N 0.65483 0.87902 0.62276 0.0
N2601 N 0.6932 0.98231 0.55705 0.0
H2602 H 0.64216 0.95743 0.65391 0.0
H2603 H 0.66564 0.98506 0.62321 0.0
H2604 H 0.70834 0.99043 0.53333 0.0
H2605 H 0.68304 0.99305 0.56128 0.0
H2606 H 0.65999 0.86567 0.60841 0.0
H2607 H 0.63758 0.86933 0.64223 0.0
H2608 H 0.70109 0.88751 0.59399 0.0
H2609 H 0.72164 0.91291 0.55745 0.0
C2610 C 0.0784 0.73661 0.54848 0.0
C2611 C 0.06722 0.75331 0.5595 0.0
C2612 C 0.06953 0.74224 0.63673 0.0
C2613 C 0.08683 0.73172 0.62609 0.0
N2614 N 0.11057 0.72271 0.56871 0.0
N2615 N 0.05593 0.77483 0.61774 0.0
C2616 C 0.09179 0.72956 0.58107 0.0
C2617 C 0.06342 0.75663 0.60461 0.0
N2618 N 0.07606 0.72721 0.50676 0.0
N2619 N 0.0587 0.73836 0.67765 0.0
H2620 H 0.0524 0.78693 0.59644 0.0
H2621 H 0.05587 0.77985 0.65047 0.0
H2622 H 0.0616 0.72681 0.70121 0.0
H2623 H 0.04432 0.74373 0.68612 0.0
H2624 H 0.08199 0.71331 0.49777 0.0
H2625 H 0.0652 0.73072 0.4827 0.0
H2626 H 0.11679 0.72387 0.53638 0.0
H2627 H 0.12191 0.71848 0.59059 0.0
C2628 C 0.69554 0.77595 0.08909 0.0
C2629 C 0.69834 0.75745 0.06187 0.0
C2630 C 0.66016 0.71983 0.10126 0.0
C2631 C 0.65556 0.73873 0.12468 0.0
N2632 N 0.6644 0.78481 0.12907 0.0
N2633 N 0.68113 0.71152 0.03821 0.0
C2634 C 0.67204 0.76681 0.11521 0.0
C2635 C 0.67994 0.72924 0.06679 0.0
N2636 N 0.71543 0.80248 0.09008 0.0
N2637 N 0.64643 0.69315 0.11274 0.0
H2638 H 0.69603 0.71777 0.01419 0.0
H2639 H 0.6666 0.69107 0.03689 0.0
H2640 H 0.632 0.68574 0.13755 0.0
H2641 H 0.65075 0.67883 0.0999 0.0
H2642 H 0.7155 0.8164 0.11223 0.0
H2643 H 0.73325 0.80979 0.07218 0.0
H2644 H 0.67442 0.8051 0.11976 0.0
H2645 H 0.64618 0.77888 0.14514 0.0
C2646 C 0.29278 0.94682 0.1146 0.0
C2647 C 0.27699 0.91934 0.1279 0.0
C2648 C 0.23961 0.91466 0.08157 0.0
C2649 C 0.25607 0.94126 0.06492 0.0
N2650 N 0.29946 0.98186 0.06203 0.0
N2651 N 0.23759 0.87554 0.11622 0.0
C2652 C 0.28302 0.9572 0.08054 0.0
C2653 C 0.25108 0.90286 0.10894 0.0
N2654 N 0.3167 0.96313 0.13528 0.0
N2655 N 0.21256 0.90085 0.0723 0.0
H2656 H 0.24545 0.86595 0.13538 0.0
H2657 H 0.22 0.86206 0.09969 0.0
H2658 H 0.20313 0.90897 0.05333 0.0
H2659 H 0.19897 0.8826 0.08711 0.0
H2660 H 0.32796 0.98397 0.1306 0.0
H2661 H 0.32453 0.95584 0.15913 0.0
H2662 H 0.32007 0.99339 0.06847 0.0
H2663 H 0.29261 0.99008 0.03815 0.0
C2664 C 0.05469 0.32696 0.07875 0.0
C2665 C 0.0713 0.31669 0.06314 0.0
C2666 C 0.10926 0.35109 0.10676 0.0
C2667 C 0.09222 0.35993 0.12544 0.0
N2668 N 0.04782 0.35434 0.133 0.0
N2669 N 0.11261 0.31523 0.07017 0.0
C2670 C 0.06462 0.34731 0.11244 0.0
C2671 C 0.09806 0.32773 0.07954 0.0
N2672 N 0.02977 0.31779 0.0606 0.0
N2673 N 0.13649 0.3655 0.11432 0.0
H2674 H 0.10492 0.29764 0.05142 0.0
H2675 H 0.13111 0.32055 0.08469 0.0
H2676 H 0.14556 0.38286 0.13371 0.0
H2677 H 0.15038 0.3619 0.09796 0.0
H2678 H 0.01766 0.32626 0.06698 0.0
H2679 H 0.02186 0.30248 0.0371 0.0
H2680 H 0.02695 0.34413 0.12862 0.0
H2681 H 0.05478 0.36967 0.15643 0.0
C2682 C 0.72307 0.66276 0.40871 0.0
C2683 C 0.73718 0.64908 0.39658 0.0
C2684 C 0.77508 0.67983 0.44381 0.0
C2685 C 0.76011 0.69193 0.45945 0.0
N2686 N 0.71845 0.69286 0.46024 0.0
N2687 N 0.77425 0.64111 0.40977 0.0
C2688 C 0.73367 0.68287 0.44275 0.0
C2689 C 0.76241 0.65656 0.41651 0.0
N2690 N 0.69992 0.657 0.38698 0.0
N2691 N 0.80201 0.69139 0.45342 0.0
H2692 H 0.76563 0.62388 0.39009 0.0
H2693 H 0.79112 0.64375 0.42707 0.0
H2694 H 0.81248 0.7091 0.4717 0.0
H2695 H 0.81464 0.68521 0.43931 0.0
H2696 H 0.69007 0.66809 0.39068 0.0
H2697 H 0.69138 0.64185 0.36329 0.0
H2698 H 0.69811 0.68526 0.45288 0.0
H2699 H 0.72584 0.70779 0.48435 0.0
C2700 C 0.34428 0.1006 0.40119 0.0
C2701 C 0.36222 0.09045 0.39372 0.0
C2702 C 0.34024 0.05843 0.45481 0.0
C2703 C 0.32047 0.0666 0.45816 0.0
N2704 N 0.30041 0.09121 0.42683 0.0
N2705 N 0.37491 0.05699 0.41033 0.0
C2706 C 0.3214 0.08617 0.42863 0.0
C2707 C 0.35961 0.06859 0.41977 0.0
N2708 N 0.34998 0.12508 0.38419 0.0
N2709 N 0.34075 0.04129 0.48544 0.0
H2710 H 0.38916 0.06398 0.38524 0.0
H2711 H 0.37211 0.03935 0.42522 0.0
H2712 H 0.32615 0.03268 0.50993 0.0
H2713 H 0.35629 0.03681 0.48786 0.0
H2714 H 0.33897 0.13458 0.392 0.0
H2715 H 0.36763 0.13749 0.3668 0.0
H2716 H 0.29893 0.10352 0.40308 0.0
H2717 H 0.28314 0.08088 0.44607 0.0
C2718 C 0.91233 0.24775 0.40869 0.0
C2719 C 0.92815 0.27477 0.39329 0.0
C2720 C 0.96486 0.28077 0.44346 0.0
C2721 C 0.9498 0.25295 0.45536 0.0
N2722 N 0.91165 0.20872 0.44125 0.0
N2723 N 0.97077 0.31631 0.39251 0.0
C2724 C 0.9243 0.23614 0.43541 0.0
C2725 C 0.95482 0.29117 0.4098 0.0
N2726 N 0.88535 0.23333 0.39899 0.0
N2727 N 0.98833 0.29733 0.46507 0.0
H2728 H 0.96372 0.3245 0.36891 0.0
H2729 H 0.99125 0.32832 0.39965 0.0
H2730 H 0.99639 0.29004 0.48853 0.0
H2731 H 0.99895 0.31828 0.46148 0.0
H2732 H 0.87217 0.21462 0.41293 0.0
H2733 H 0.8755 0.24129 0.38073 0.0
H2734 H 0.89442 0.19513 0.424 0.0
H2735 H 0.91994 0.19931 0.45987 0.0
C2736 C 0.9988 0.60238 0.21572 0.0
C2737 C 0.0266 0.61326 0.22684 0.0
C2738 C 0.01305 0.60987 0.30407 0.0
C2739 C 0.9853 0.59266 0.29305 0.0
N2740 N 0.95279 0.5698 0.23489 0.0
N2741 N 0.05917 0.62357 0.28516 0.0
C2742 C 0.97831 0.58841 0.24789 0.0
C2743 C 0.03359 0.61636 0.27201 0.0
N2744 N 0.99187 0.60558 0.17435 0.0
N2745 N 0.0199 0.62027 0.34529 0.0
H2746 H 0.0748 0.62729 0.26384 0.0
H2747 H 0.06414 0.62318 0.31784 0.0
H2748 H 1.00542 0.61719 0.36882 0.0
H2749 H 0.03961 0.63454 0.35409 0.0
H2750 H 0.9721 0.59988 0.16546 0.0
H2751 H 1.00629 0.61695 0.15071 0.0
H2752 H 0.94787 0.56417 0.20229 0.0
H2753 H 0.93716 0.55802 0.25631 0.0
C2754 C 0.38797 0.39798 0.24388 0.0
C2755 C 0.40422 0.42532 0.2301 0.0
C2756 C 0.44169 0.42914 0.27522 0.0
C2757 C 0.42486 0.40277 0.29234 0.0
N2758 N 0.38096 0.36291 0.29663 0.0
N2759 N 0.44442 0.46864 0.24085 0.0
C2760 C 0.39765 0.38734 0.27762 0.0
C2761 C 0.43044 0.44134 0.24831 0.0
N2762 N 0.36369 0.38204 0.22392 0.0
N2763 N 0.46883 0.44239 0.28378 0.0
H2764 H 0.43669 0.47854 0.22217 0.0
H2765 H 0.46235 0.48184 0.25686 0.0
H2766 H 0.47805 0.43398 0.30257 0.0
H2767 H 0.4826 0.46042 0.26858 0.0
H2768 H 0.35201 0.36127 0.229 0.0
H2769 H 0.35595 0.38954 0.20026 0.0
H2770 H 0.36024 0.3518 0.29086 0.0
H2771 H 0.38778 0.35448 0.32019 0.0
C2772 C 0.59302 0.9803 0.27072 0.0
C2773 C 0.59707 0.98677 0.22537 0.0
C2774 C 0.62207 0.03539 0.24519 0.0
C2775 C 0.61902 0.02886 0.29055 0.0
N2776 N 0.61046 0.99438 0.34407 0.0
N2777 N 0.62456 0.02052 0.172 0.0
C2778 C 0.60747 1.00106 0.3024 0.0
C2779 C 0.61466 0.01434 0.21356 0.0
N2780 N 0.57412 0.95501 0.28434 0.0
N2781 N 0.63015 0.0611 0.23146 0.0
H2782 H 0.62068 1.00564 0.14872 0.0
H2783 H 0.63913 0.03999 0.16253 0.0
H2784 H 0.63484 0.07717 0.25246 0.0
H2785 H 0.62967 0.0659 0.19871 0.0
H2786 H 0.56856 0.95047 0.31703 0.0
H2787 H 0.56204 0.93926 0.26327 0.0
H2788 H 0.60432 0.97459 0.35358 0.0
H2789 H 0.62202 0.00896 0.36742 0.0
C2790 C 0.38545 0.98634 0.75401 0.0
C2791 C 0.40436 0.98191 0.73037 0.0
C2792 C 0.44148 0.02217 0.76565 0.0
C2793 C 0.423 0.02492 0.79293 0.0
N2794 N 0.37719 0.00754 0.8169 0.0
N2795 N 0.45051 0.99122 0.72528 0.0
C2796 C 0.39485 0.00634 0.78826 0.0
C2797 C 0.43242 0.99863 0.73952 0.0
N2798 N 0.35874 0.97219 0.74298 0.0
N2799 N 0.46792 0.04223 0.76447 0.0
H2800 H 0.44466 0.97304 0.70903 0.0
H2801 H 0.4708 1.00138 0.73441 0.0
H2802 H 0.47516 0.06008 0.78237 0.0
H2803 H 0.48182 0.0424 0.74221 0.0
H2804 H 0.34433 0.97633 0.75592 0.0
H2805 H 0.35136 0.95753 0.71848 0.0
H2806 H 0.35678 0.99294 0.81841 0.0
H2807 H 0.38345 0.02254 0.8408 0.0
C2808 C 0.03648 0.4212 0.77144 0.0
C2809 C 0.02977 0.41766 0.72618 0.0
C2810 C 0.98131 0.39411 0.74635 0.0
C2811 C 0.98801 0.39677 0.7916 0.0
N2812 N 0.02218 0.4036 0.84462 0.0
N2813 N 0.99544 0.39126 0.67284 0.0
C2814 C 0.01568 0.4072 0.80317 0.0
C2815 C 1.00205 0.4009 0.71451 0.0
N2816 N 0.06208 0.43921 0.78496 0.0
N2817 N 0.95579 0.38702 0.733 0.0
H2818 H 0.01007 0.39469 0.64937 0.0
H2819 H 0.97576 0.37728 0.6634 0.0
H2820 H 0.93998 0.38276 0.75426 0.0
H2821 H 0.95099 0.38787 0.70038 0.0
H2822 H 0.06692 0.44453 0.81768 0.0
H2823 H 0.07797 0.45078 0.76382 0.0
H2824 H 0.04179 0.40891 0.8539 0.0
H2825 H 1.0075 0.39232 0.86797 0.0
C2826 C 0.6193 0.62427 0.74278 0.0
C2827 C 0.59223 0.60866 0.72751 0.0
C2828 C 0.58675 0.57012 0.77158 0.0
C2829 C 0.61275 0.58631 0.79037 0.0
N2830 N 0.65295 0.62979 0.7973 0.0
N2831 N 0.54835 0.56882 0.73575 0.0
C2832 C 0.62889 0.61372 0.77684 0.0
C2833 C 0.57548 0.58222 0.74448 0.0
N2834 N 0.636 0.64876 0.72397 0.0
N2835 N 0.57298 0.5428 0.77875 0.0
H2836 H 0.53906 0.57719 0.71706 0.0
H2837 H 0.53465 0.55071 0.75082 0.0
H2838 H 0.58078 0.53298 0.7975 0.0
H2839 H 0.55521 0.52953 0.7624 0.0
H2840 H 0.65666 0.66 0.73018 0.0
H2841 H 0.62928 0.6571 0.70008 0.0
H2842 H 0.66447 0.65059 0.79242 0.0
H2843 H 0.66063 0.62236 0.82115 0.0
loop_
_geom_bond_atom_site_label_1
_geom_bond_atom_site_label_2
_geom_bond_distance
_geom_bond_site_symmetry_2
_ccdc_geom_bond_type
Co0 O3 1.970 . S
Co0 N17 1.989 . S
Co0 O25 1.967 . S
Co0 O32 1.920 . S
Co1 O4 1.966 1_554 S
Co1 N10 2.022 . S
Co1 N18 1.993 . S
Co1 O26 1.941 . S
C2 O3 1.238 1_556 S
C2 O4 1.266 . S
O3 Co0 1.970 . S
O3 C2 1.238 1_554 S
O4 Co1 1.966 1_556 S
O4 C2 1.266 . S
C5 O6 1.235 . S
C5 O32 1.289 . S
O6 C5 1.235 . S
C7 C9 1.400 . S
C7 N10 1.351 1_556 S
C7 C12 1.501 . S
C8 C9 1.387 1_554 S
C8 N11 1.341 . S
C9 C7 1.400 . S
C9 C8 1.387 1_556 S
N10 Co1 2.022 . S
N10 C7 1.351 1_554 S
N10 N11 1.365 . S
N11 C8 1.341 . S
N11 N10 1.365 . S
N11 H31 0.862 . S
C12 C7 1.501 . S
C12 H13 0.961 . S
C12 H14 0.961 . S
C12 H15 0.960 . S
H13 C12 0.961 . S
H14 C12 0.961 . S
H15 C12 0.960 . S
C16 N17 1.342 . S
C16 C20 1.401 . S
C16 C21 1.499 . S
N17 Co0 1.989 . S
N17 C16 1.342 . S
N17 N18 1.388 . S
N18 Co1 1.993 . S
N18 N17 1.388 . S
N18 C19 1.346 . S
C19 N18 1.346 . S
C19 C20 1.396 . S
C19 C29 1.510 . S
C20 C16 1.401 . S
C20 C19 1.396 . S
C21 C16 1.499 . S
C21 H22 0.959 . S
C21 H23 0.960 . S
C21 H24 0.961 . S
H22 C21 0.959 . S
H23 C21 0.960 . S
H24 C21 0.961 . S
O25 Co0 1.967 . S
O25 C33 1.258 . S
O26 Co1 1.941 . S
O26 C33 1.266 . S
H27 C29 0.959 . S
H28 C29 0.961 . S
C29 C19 1.510 . S
C29 H27 0.959 . S
C29 H28 0.961 . S
C29 H30 0.960 . S
H30 C29 0.960 . S
H31 N11 0.862 . S
O32 Co0 1.920 . S
O32 C5 1.289 . S
C33 O25 1.258 . S
C33 O26 1.266 . S
Co34 O37 1.970 . S
Co34 N51 1.989 . S
Co34 O59 1.967 . S
Co34 O66 1.920 . S
Co35 O38 1.966 1_554 S
Co35 N44 2.022 . S
Co35 N52 1.993 . S
Co35 O60 1.941 . S
C36 O37 1.238 1_556 S
C36 O38 1.266 . S
O37 Co34 1.970 . S
O37 C36 1.238 1_554 S
O38 Co35 1.966 1_556 S
O38 C36 1.266 . S
C39 O40 1.235 . S
C39 O66 1.289 . S
O40 C39 1.235 . S
C41 C43 1.400 . S
C41 N44 1.351 1_566 S
C41 C46 1.501 . S
C42 C43 1.387 1_554 S
C42 N45 1.341 . S
C43 C41 1.400 . S
C43 C42 1.387 1_556 S
N44 Co35 2.022 . S
N44 C41 1.351 1_544 S
N44 N45 1.365 1_545 S
N45 C42 1.341 . S
N45 N44 1.365 1_565 S
N45 H65 0.862 . S
C46 C41 1.501 . S
C46 H47 0.961 1_565 S
C46 H48 0.961 . S
C46 H49 0.960 . S
H47 C46 0.961 1_545 S
H48 C46 0.961 . S
H49 C46 0.960 . S
C50 N51 1.342 . S
C50 C54 1.401 . S
C50 C55 1.499 . S
N51 Co34 1.989 . S
N51 C50 1.342 . S
N51 N52 1.388 . S
N52 Co35 1.993 . S
N52 N51 1.388 . S
N52 C53 1.346 . S
C53 N52 1.346 . S
C53 C54 1.396 . S
C53 C63 1.510 1_545 S
C54 C50 1.401 . S
C54 C53 1.396 . S
C55 C50 1.499 . S
C55 H56 0.959 . S
C55 H57 0.960 . S
C55 H58 0.961 . S
H56 C55 0.959 . S
H57 C55 0.960 . S
H58 C55 0.961 . S
O59 Co34 1.967 . S
O59 C67 1.258 . S
O60 Co35 1.941 . S
O60 C67 1.266 . S
H61 C63 0.959 . S
H62 C63 0.961 . S
C63 C53 1.510 1_565 S
C63 H61 0.959 . S
C63 H62 0.961 . S
C63 H64 0.960 . S
H64 C63 0.960 . S
H65 N45 0.862 . S
O66 Co34 1.920 . S
O66 C39 1.289 . S
C67 O59 1.258 . S
C67 O60 1.266 . S
Co68 O71 1.970 . S
Co68 N85 1.989 . S
Co68 O93 1.967 . S
Co68 O100 1.920 . S
Co69 O72 1.966 1_554 S
Co69 N78 2.022 . S
Co69 N86 1.993 . S
Co69 O94 1.941 . S
C70 O71 1.238 1_556 S
C70 O72 1.266 . S
O71 Co68 1.970 . S
O71 C70 1.238 1_554 S
O72 Co69 1.966 1_556 S
O72 C70 1.266 . S
C73 O74 1.235 . S
C73 O100 1.289 . S
O74 C73 1.235 . S
C75 C77 1.400 . S
C75 N78 1.351 1_456 S
C75 C80 1.501 . S
C76 C77 1.387 1_554 S
C76 N79 1.341 . S
C77 C75 1.400 . S
C77 C76 1.387 1_556 S
N78 Co69 2.022 . S
N78 C75 1.351 1_654 S
N78 N79 1.365 1_655 S
N79 C76 1.341 . S
N79 N78 1.365 1_455 S
N79 H99 0.862 . S
C80 C75 1.501 . S
C80 H81 0.961 1_455 S
C80 H82 0.961 . S
C80 H83 0.960 . S
H81 C80 0.961 1_655 S
H82 C80 0.961 . S
H83 C80 0.960 . S
C84 N85 1.342 . S
C84 C88 1.401 . S
C84 C89 1.499 . S
N85 Co68 1.989 . S
N85 C84 1.342 . S
N85 N86 1.388 . S
N86 Co69 1.993 . S
N86 N85 1.388 . S
N86 C87 1.346 . S
C87 N86 1.346 . S
C87 C88 1.396 . S
C87 C97 1.510 1_655 S
C88 C84 1.401 . S
C88 C87 1.396 . S
C89 C84 1.499 . S
C89 H90 0.959 . S
C89 H91 0.960 . S
C89 H92 0.961 . S
H90 C89 0.959 . S
H91 C89 0.960 . S
H92 C89 0.961 . S
O93 Co68 1.967 . S
O93 C101 1.258 . S
O94 Co69 1.941 . S
O94 C101 1.266 . S
H95 C97 0.959 . S
H96 C97 0.961 . S
C97 C87 1.510 1_455 S
C97 H95 0.959 . S
C97 H96 0.961 . S
C97 H98 0.960 . S
H98 C97 0.960 . S
H99 N79 0.862 . S
O100 Co68 1.920 . S
O100 C73 1.289 . S
C101 O93 1.258 . S
C101 O94 1.266 . S
Co102 O105 1.970 . S
Co102 N119 1.989 . S
Co102 O127 1.967 . S
Co102 O134 1.920 . S
Co103 O106 1.966 . S
Co103 N112 2.022 . S
Co103 N120 1.993 . S
Co103 O128 1.941 . S
C104 O105 1.258 . S
C104 O106 1.263 . S
O105 Co102 1.970 . S
O105 C104 1.258 . S
O106 Co103 1.966 . S
O106 C104 1.263 . S
C107 O108 1.235 . S
C107 O134 1.289 . S
O108 C107 1.235 . S
C109 C111 1.400 . S
C109 N112 1.351 . S
C109 C114 1.501 . S
C110 C111 1.387 . S
C110 N113 1.341 . S
C111 C109 1.400 . S
C111 C110 1.387 . S
N112 Co103 2.022 . S
N112 C109 1.351 . S
N112 N113 1.365 . S
N113 C110 1.341 . S
N113 N112 1.365 . S
N113 H133 0.862 . S
C114 C109 1.501 . S
C114 H115 0.961 . S
C114 H116 0.961 . S
C114 H117 0.960 . S
H115 C114 0.961 . S
H116 C114 0.961 . S
H117 C114 0.960 . S
C118 N119 1.342 . S
C118 C122 1.401 . S
C118 C123 1.499 . S
N119 Co102 1.989 . S
N119 C118 1.342 . S
N119 N120 1.388 . S
N120 Co103 1.993 . S
N120 N119 1.388 . S
N120 C121 1.346 . S
C121 N120 1.346 . S
C121 C122 1.396 . S
C121 C131 1.510 . S
C122 C118 1.401 . S
C122 C121 1.396 . S
C123 C118 1.499 . S
C123 H124 0.959 . S
C123 H125 0.960 . S
C123 H126 0.961 . S
H124 C123 0.959 . S
H125 C123 0.960 . S
H126 C123 0.961 . S
O127 Co102 1.967 . S
O127 C135 1.258 . S
O128 Co103 1.941 . S
O128 C135 1.266 . S
H129 C131 0.959 . S
H130 C131 0.961 . S
C131 C121 1.510 . S
C131 H129 0.959 . S
C131 H130 0.961 . S
C131 H132 0.960 . S
H132 C131 0.960 . S
H133 N113 0.862 . S
O134 Co102 1.920 . S
O134 C107 1.289 . S
C135 O127 1.258 . S
C135 O128 1.266 . S
Co136 O139 1.970 . S
Co136 N153 1.989 . S
Co136 O161 1.967 . S
Co136 O168 1.920 . S
Co137 O140 1.966 . S
Co137 N146 2.022 . S
Co137 N154 1.993 . S
Co137 O162 1.941 . S
C138 O139 1.258 . S
C138 O140 1.263 . S
O139 Co136 1.970 . S
O139 C138 1.258 . S
O140 Co137 1.966 . S
O140 C138 1.263 . S
C141 O142 1.235 . S
C141 O168 1.289 . S
O142 C141 1.235 . S
C143 C145 1.400 . S
C143 N146 1.351 1_545 S
C143 C148 1.501 . S
C144 C145 1.387 . S
C144 N147 1.341 . S
C145 C143 1.400 . S
C145 C144 1.387 . S
N146 Co137 2.022 . S
N146 C143 1.351 1_565 S
N146 N147 1.365 1_565 S
N147 C144 1.341 . S
N147 N146 1.365 1_545 S
N147 H167 0.862 . S
C148 C143 1.501 . S
C148 H149 0.961 1_545 S
C148 H150 0.961 . S
C148 H151 0.960 . S
H149 C148 0.961 1_565 S
H150 C148 0.961 . S
H151 C148 0.960 . S
C152 N153 1.342 . S
C152 C156 1.401 . S
C152 C157 1.499 . S
N153 Co136 1.989 . S
N153 C152 1.342 . S
N153 N154 1.388 . S
N154 Co137 1.993 . S
N154 N153 1.388 . S
N154 C155 1.346 . S
C155 N154 1.346 . S
C155 C156 1.396 . S
C155 C165 1.510 1_565 S
C156 C152 1.401 . S
C156 C155 1.396 . S
C157 C152 1.499 . S
C157 H158 0.959 . S
C157 H159 0.960 . S
C157 H160 0.961 . S
H158 C157 0.959 . S
H159 C157 0.960 . S
H160 C157 0.961 . S
O161 Co136 1.967 . S
O161 C169 1.258 . S
O162 Co137 1.941 . S
O162 C169 1.266 . S
H163 C165 0.959 . S
H164 C165 0.961 . S
C165 C155 1.510 1_545 S
C165 H163 0.959 . S
C165 H164 0.961 . S
C165 H166 0.960 . S
H166 C165 0.960 . S
H167 N147 0.862 . S
O168 Co136 1.920 . S
O168 C141 1.289 . S
C169 O161 1.258 . S
C169 O162 1.266 . S
Co170 O173 1.970 . S
Co170 N187 1.989 . S
Co170 O195 1.967 . S
Co170 O202 1.920 . S
Co171 O174 1.966 . S
Co171 N180 2.022 . S
Co171 N188 1.993 . S
Co171 O196 1.941 . S
C172 O173 1.258 . S
C172 O174 1.263 . S
O173 Co170 1.970 . S
O173 C172 1.258 . S
O174 Co171 1.966 . S
O174 C172 1.263 . S
C175 O176 1.235 . S
C175 O202 1.289 . S
O176 C175 1.235 . S
C177 C179 1.400 . S
C177 N180 1.351 1_655 S
C177 C182 1.501 . S
C178 C179 1.387 . S
C178 N181 1.341 . S
C179 C177 1.400 . S
C179 C178 1.387 . S
N180 Co171 2.022 . S
N180 C177 1.351 1_455 S
N180 N181 1.365 1_455 S
N181 C178 1.341 . S
N181 N180 1.365 1_655 S
N181 H201 0.862 . S
C182 C177 1.501 . S
C182 H183 0.961 1_655 S
C182 H184 0.961 . S
C182 H185 0.960 . S
H183 C182 0.961 1_455 S
H184 C182 0.961 . S
H185 C182 0.960 . S
C186 N187 1.342 . S
C186 C190 1.401 . S
C186 C191 1.499 . S
N187 Co170 1.989 . S
N187 C186 1.342 . S
N187 N188 1.388 . S
N188 Co171 1.993 . S
N188 N187 1.388 . S
N188 C189 1.346 . S
C189 N188 1.346 . S
C189 C190 1.396 . S
C189 C199 1.510 1_455 S
C190 C186 1.401 . S
C190 C189 1.396 . S
C191 C186 1.499 . S
C191 H192 0.959 . S
C191 H193 0.960 . S
C191 H194 0.961 . S
H192 C191 0.959 . S
H193 C191 0.960 . S
H194 C191 0.961 . S
O195 Co170 1.967 . S
O195 C203 1.258 . S
O196 Co171 1.941 . S
O196 C203 1.266 . S
H197 C199 0.959 . S
H198 C199 0.961 . S
C199 C189 1.510 1_655 S
C199 H197 0.959 . S
C199 H198 0.961 . S
C199 H200 0.960 . S
H200 C199 0.960 . S
H201 N181 0.862 . S
O202 Co170 1.920 . S
O202 C175 1.289 . S
C203 O195 1.258 . S
C203 O196 1.266 . S
Co204 O207 1.970 . S
Co204 N221 1.989 . S
Co204 O229 1.967 . S
Co204 O236 1.920 . S
Co205 O208 1.966 1_556 S
Co205 N214 2.022 . S
Co205 N222 1.993 . S
Co205 O230 1.941 . S
C206 O207 1.238 1_554 S
C206 O208 1.266 . S
O207 Co204 1.970 . S
O207 C206 1.238 1_556 S
O208 Co205 1.966 1_554 S
O208 C206 1.266 . S
C209 O210 1.235 . S
C209 O236 1.289 . S
O210 C209 1.235 . S
C211 C213 1.400 . S
C211 N214 1.351 1_554 S
C211 C216 1.501 . S
C212 C213 1.387 1_556 S
C212 N215 1.341 . S
C213 C211 1.400 . S
C213 C212 1.387 1_554 S
N214 Co205 2.022 . S
N214 C211 1.351 1_556 S
N214 N215 1.365 . S
N215 C212 1.341 . S
N215 N214 1.365 . S
N215 H235 0.862 . S
C216 C211 1.501 . S
C216 H217 0.961 . S
C216 H218 0.961 . S
C216 H219 0.960 . S
H217 C216 0.961 . S
H218 C216 0.961 . S
H219 C216 0.960 . S
C220 N221 1.342 . S
C220 C224 1.401 . S
C220 C225 1.499 . S
N221 Co204 1.989 . S
N221 C220 1.342 . S
N221 N222 1.388 . S
N222 Co205 1.993 . S
N222 N221 1.388 . S
N222 C223 1.346 . S
C223 N222 1.346 . S
C223 C224 1.396 . S
C223 C233 1.510 . S
C224 C220 1.401 . S
C224 C223 1.396 . S
C225 C220 1.499 . S
C225 H226 0.959 . S
C225 H227 0.960 . S
C225 H228 0.961 . S
H226 C225 0.959 . S
H227 C225 0.960 . S
H228 C225 0.961 . S
O229 Co204 1.967 . S
O229 C237 1.258 . S
O230 Co205 1.941 . S
O230 C237 1.266 . S
H231 C233 0.959 . S
H232 C233 0.961 . S
C233 C223 1.510 . S
C233 H231 0.959 . S
C233 H232 0.961 . S
C233 H234 0.960 . S
H234 C233 0.960 . S
H235 N215 0.862 . S
O236 Co204 1.920 . S
O236 C209 1.289 . S
C237 O229 1.258 . S
C237 O230 1.266 . S
Co238 O241 1.970 . S
Co238 N255 1.989 . S
Co238 O263 1.967 . S
Co238 O270 1.920 . S
Co239 O242 1.966 1_556 S
Co239 N248 2.022 . S
Co239 N256 1.993 . S
Co239 O264 1.941 . S
C240 O241 1.238 1_554 S
C240 O242 1.266 . S
O241 Co238 1.970 . S
O241 C240 1.238 1_556 S
O242 Co239 1.966 1_554 S
O242 C240 1.266 . S
C243 O244 1.235 . S
C243 O270 1.289 . S
O244 C243 1.235 . S
C245 C247 1.400 . S
C245 N248 1.351 1_544 S
C245 C250 1.501 . S
C246 C247 1.387 1_556 S
C246 N249 1.341 . S
C247 C245 1.400 . S
C247 C246 1.387 1_554 S
N248 Co239 2.022 . S
N248 C245 1.351 1_566 S
N248 N249 1.365 1_565 S
N249 C246 1.341 . S
N249 N248 1.365 1_545 S
N249 H269 0.862 . S
C250 C245 1.501 . S
C250 H251 0.961 1_545 S
C250 H252 0.961 . S
C250 H253 0.960 . S
H251 C250 0.961 1_565 S
H252 C250 0.961 . S
H253 C250 0.960 . S
C254 N255 1.342 . S
C254 C258 1.401 . S
C254 C259 1.499 . S
N255 Co238 1.989 . S
N255 C254 1.342 . S
N255 N256 1.388 . S
N256 Co239 1.993 . S
N256 N255 1.388 . S
N256 C257 1.346 . S
C257 N256 1.346 . S
C257 C258 1.396 . S
C257 C267 1.510 1_565 S
C258 C254 1.401 . S
C258 C257 1.396 . S
C259 C254 1.499 . S
C259 H260 0.959 . S
C259 H261 0.960 . S
C259 H262 0.961 . S
H260 C259 0.959 . S
H261 C259 0.960 . S
H262 C259 0.961 . S
O263 Co238 1.967 . S
O263 C271 1.258 . S
O264 Co239 1.941 . S
O264 C271 1.266 . S
H265 C267 0.959 . S
H266 C267 0.961 . S
C267 C257 1.510 1_545 S
C267 H265 0.959 . S
C267 H266 0.961 . S
C267 H268 0.960 . S
H268 C267 0.960 . S
H269 N249 0.862 . S
O270 Co238 1.920 . S
O270 C243 1.289 . S
C271 O263 1.258 . S
C271 O264 1.266 . S
Co272 O275 1.970 . S
Co272 N289 1.989 . S
Co272 O297 1.967 . S
Co272 O304 1.920 . S
Co273 O276 1.966 1_556 S
Co273 N282 2.022 . S
Co273 N290 1.993 . S
Co273 O298 1.941 . S
C274 O275 1.238 1_554 S
C274 O276 1.266 . S
O275 Co272 1.970 . S
O275 C274 1.238 1_556 S
O276 Co273 1.966 1_554 S
O276 C274 1.266 . S
C277 O278 1.235 . S
C277 O304 1.289 . S
O278 C277 1.235 . S
C279 C281 1.400 . S
C279 N282 1.351 1_654 S
C279 C284 1.501 . S
C280 C281 1.387 1_556 S
C280 N283 1.341 . S
C281 C279 1.400 . S
C281 C280 1.387 1_554 S
N282 Co273 2.022 . S
N282 C279 1.351 1_456 S
N282 N283 1.365 1_455 S
N283 C280 1.341 . S
N283 N282 1.365 1_655 S
N283 H303 0.862 . S
C284 C279 1.501 . S
C284 H285 0.961 1_655 S
C284 H286 0.961 . S
C284 H287 0.960 . S
H285 C284 0.961 1_455 S
H286 C284 0.961 . S
H287 C284 0.960 . S
C288 N289 1.342 . S
C288 C292 1.401 . S
C288 C293 1.499 . S
N289 Co272 1.989 . S
N289 C288 1.342 . S
N289 N290 1.388 . S
N290 Co273 1.993 . S
N290 N289 1.388 . S
N290 C291 1.346 . S
C291 N290 1.346 . S
C291 C292 1.396 . S
C291 C301 1.510 1_455 S
C292 C288 1.401 . S
C292 C291 1.396 . S
C293 C288 1.499 . S
C293 H294 0.959 . S
C293 H295 0.960 . S
C293 H296 0.961 . S
H294 C293 0.959 . S
H295 C293 0.960 . S
H296 C293 0.961 . S
O297 Co272 1.967 . S
O297 C305 1.258 . S
O298 Co273 1.941 . S
O298 C305 1.266 . S
H299 C301 0.959 . S
H300 C301 0.961 . S
C301 C291 1.510 1_655 S
C301 H299 0.959 . S
C301 H300 0.961 . S
C301 H302 0.960 . S
H302 C301 0.960 . S
H303 N283 0.862 . S
O304 Co272 1.920 . S
O304 C277 1.289 . S
C305 O297 1.258 . S
C305 O298 1.266 . S
Co306 O309 1.970 . S
Co306 N323 1.989 . S
Co306 O331 1.967 . S
Co306 O338 1.920 . S
Co307 O310 1.966 . S
Co307 N316 2.022 . S
Co307 N324 1.993 . S
Co307 O332 1.941 . S
C308 O309 1.258 . S
C308 O310 1.263 . S
O309 Co306 1.970 . S
O309 C308 1.258 . S
O310 Co307 1.966 . S
O310 C308 1.263 . S
C311 O312 1.235 . S
C311 O338 1.289 . S
O312 C311 1.235 . S
C313 C315 1.400 . S
C313 N316 1.351 . S
C313 C318 1.501 . S
C314 C315 1.387 . S
C314 N317 1.341 . S
C315 C313 1.400 . S
C315 C314 1.387 . S
N316 Co307 2.022 . S
N316 C313 1.351 . S
N316 N317 1.365 . S
N317 C314 1.341 . S
N317 N316 1.365 . S
N317 H337 0.862 . S
C318 C313 1.501 . S
C318 H319 0.961 . S
C318 H320 0.961 . S
C318 H321 0.960 . S
H319 C318 0.961 . S
H320 C318 0.961 . S
H321 C318 0.960 . S
C322 N323 1.342 . S
C322 C326 1.401 . S
C322 C327 1.499 . S
N323 Co306 1.989 . S
N323 C322 1.342 . S
N323 N324 1.388 . S
N324 Co307 1.993 . S
N324 N323 1.388 . S
N324 C325 1.346 . S
C325 N324 1.346 . S
C325 C326 1.396 . S
C325 C335 1.510 . S
C326 C322 1.401 . S
C326 C325 1.396 . S
C327 C322 1.499 . S
C327 H328 0.959 . S
C327 H329 0.960 . S
C327 H330 0.961 . S
H328 C327 0.959 . S
H329 C327 0.960 . S
H330 C327 0.961 . S
O331 Co306 1.967 . S
O331 C339 1.258 . S
O332 Co307 1.941 . S
O332 C339 1.266 . S
H333 C335 0.959 . S
H334 C335 0.961 . S
C335 C325 1.510 . S
C335 H333 0.959 . S
C335 H334 0.961 . S
C335 H336 0.960 . S
H336 C335 0.960 . S
H337 N317 0.862 . S
O338 Co306 1.920 . S
O338 C311 1.289 . S
C339 O331 1.258 . S
C339 O332 1.266 . S
Co340 O343 1.970 . S
Co340 N357 1.989 . S
Co340 O365 1.967 . S
Co340 O372 1.920 . S
Co341 O344 1.966 . S
Co341 N350 2.022 . S
Co341 N358 1.993 . S
Co341 O366 1.941 . S
C342 O343 1.258 . S
C342 O344 1.263 . S
O343 Co340 1.970 . S
O343 C342 1.258 . S
O344 Co341 1.966 . S
O344 C342 1.263 . S
C345 O346 1.235 . S
C345 O372 1.289 . S
O346 C345 1.235 . S
C347 C349 1.400 . S
C347 N350 1.351 1_565 S
C347 C352 1.501 . S
C348 C349 1.387 . S
C348 N351 1.341 . S
C349 C347 1.400 . S
C349 C348 1.387 . S
N350 Co341 2.022 . S
N350 C347 1.351 1_545 S
N350 N351 1.365 1_545 S
N351 C348 1.341 . S
N351 N350 1.365 1_565 S
N351 H371 0.862 . S
C352 C347 1.501 . S
C352 H353 0.961 1_565 S
C352 H354 0.961 . S
C352 H355 0.960 . S
H353 C352 0.961 1_545 S
H354 C352 0.961 . S
H355 C352 0.960 . S
C356 N357 1.342 . S
C356 C360 1.401 . S
C356 C361 1.499 . S
N357 Co340 1.989 . S
N357 C356 1.342 . S
N357 N358 1.388 . S
N358 Co341 1.993 . S
N358 N357 1.388 . S
N358 C359 1.346 . S
C359 N358 1.346 . S
C359 C360 1.396 . S
C359 C369 1.510 1_545 S
C360 C356 1.401 . S
C360 C359 1.396 . S
C361 C356 1.499 . S
C361 H362 0.959 . S
C361 H363 0.960 . S
C361 H364 0.961 . S
H362 C361 0.959 . S
H363 C361 0.960 . S
H364 C361 0.961 . S
O365 Co340 1.967 . S
O365 C373 1.258 . S
O366 Co341 1.941 . S
O366 C373 1.266 . S
H367 C369 0.959 . S
H368 C369 0.961 . S
C369 C359 1.510 1_565 S
C369 H367 0.959 . S
C369 H368 0.961 . S
C369 H370 0.960 . S
H370 C369 0.960 . S
H371 N351 0.862 . S
O372 Co340 1.920 . S
O372 C345 1.289 . S
C373 O365 1.258 . S
C373 O366 1.266 . S
Co374 O377 1.970 . S
Co374 N391 1.989 . S
Co374 O399 1.967 . S
Co374 O406 1.920 . S
Co375 O378 1.966 . S
Co375 N384 2.022 . S
Co375 N392 1.993 . S
Co375 O400 1.941 . S
C376 O377 1.258 . S
C376 O378 1.263 . S
O377 Co374 1.970 . S
O377 C376 1.258 . S
O378 Co375 1.966 . S
O378 C376 1.263 . S
C379 O380 1.235 . S
C379 O406 1.289 . S
O380 C379 1.235 . S
C381 C383 1.400 . S
C381 N384 1.351 1_455 S
C381 C386 1.501 . S
C382 C383 1.387 . S
C382 N385 1.341 . S
C383 C381 1.400 . S
C383 C382 1.387 . S
N384 Co375 2.022 . S
N384 C381 1.351 1_655 S
N384 N385 1.365 1_655 S
N385 C382 1.341 . S
N385 N384 1.365 1_455 S
N385 H405 0.862 . S
C386 C381 1.501 . S
C386 H387 0.961 1_455 S
C386 H388 0.961 . S
C386 H389 0.960 . S
H387 C386 0.961 1_655 S
H388 C386 0.961 . S
H389 C386 0.960 . S
C390 N391 1.342 . S
C390 C394 1.401 . S
C390 C395 1.499 . S
N391 Co374 1.989 . S
N391 C390 1.342 . S
N391 N392 1.388 . S
N392 Co375 1.993 . S
N392 N391 1.388 . S
N392 C393 1.346 . S
C393 N392 1.346 . S
C393 C394 1.396 . S
C393 C403 1.510 1_655 S
C394 C390 1.401 . S
C394 C393 1.396 . S
C395 C390 1.499 . S
C395 H396 0.959 . S
C395 H397 0.960 . S
C395 H398 0.961 . S
H396 C395 0.959 . S
H397 C395 0.960 . S
H398 C395 0.961 . S
O399 Co374 1.967 . S
O399 C407 1.258 . S
O400 Co375 1.941 . S
O400 C407 1.266 . S
H401 C403 0.959 . S
H402 C403 0.961 . S
C403 C393 1.510 1_455 S
C403 H401 0.959 . S
C403 H402 0.961 . S
C403 H404 0.960 . S
H404 C403 0.960 . S
H405 N385 0.862 . S
O406 Co374 1.920 . S
O406 C379 1.289 . S
C407 O399 1.258 . S
C407 O400 1.266 . S
Co408 O411 1.970 . S
Co408 N425 1.989 . S
Co408 O433 1.967 . S
Co408 O440 1.920 . S
Co409 O412 1.966 . S
Co409 N418 2.022 . S
Co409 N426 1.993 . S
Co409 O434 1.941 . S
C410 O411 1.258 . S
C410 O412 1.263 . S
O411 Co408 1.970 . S
O411 C410 1.258 . S
O412 Co409 1.966 . S
O412 C410 1.263 . S
C413 O414 1.235 . S
C413 O440 1.289 . S
O414 C413 1.235 . S
C415 C417 1.400 . S
C415 N418 1.351 . S
C415 C420 1.501 . S
C416 C417 1.387 . S
C416 N419 1.341 . S
C417 C415 1.400 . S
C417 C416 1.387 . S
N418 Co409 2.022 . S
N418 C415 1.351 . S
N418 N419 1.365 . S
N419 C416 1.341 . S
N419 N418 1.365 . S
N419 H439 0.862 . S
C420 C415 1.501 . S
C420 H421 0.961 . S
C420 H422 0.961 . S
C420 H423 0.960 . S
H421 C420 0.961 . S
H422 C420 0.961 . S
H423 C420 0.960 . S
C424 N425 1.342 . S
C424 C428 1.401 . S
C424 C429 1.499 . S
N425 Co408 1.989 . S
N425 C424 1.342 . S
N425 N426 1.388 . S
N426 Co409 1.993 . S
N426 N425 1.388 . S
N426 C427 1.346 . S
C427 N426 1.346 . S
C427 C428 1.396 . S
C427 C437 1.510 . S
C428 C424 1.401 . S
C428 C427 1.396 . S
C429 C424 1.499 . S
C429 H430 0.959 . S
C429 H431 0.960 . S
C429 H432 0.961 . S
H430 C429 0.959 . S
H431 C429 0.960 . S
H432 C429 0.961 . S
O433 Co408 1.967 . S
O433 C441 1.258 . S
O434 Co409 1.941 . S
O434 C441 1.266 . S
H435 C437 0.959 . S
H436 C437 0.961 . S
C437 C427 1.510 . S
C437 H435 0.959 . S
C437 H436 0.961 . S
C437 H438 0.960 . S
H438 C437 0.960 . S
H439 N419 0.862 . S
O440 Co408 1.920 . S
O440 C413 1.289 . S
C441 O433 1.258 . S
C441 O434 1.266 . S
Co442 O445 1.970 . S
Co442 N459 1.989 . S
Co442 O467 1.967 . S
Co442 O474 1.920 . S
Co443 O446 1.966 . S
Co443 N452 2.022 . S
Co443 N460 1.993 . S
Co443 O468 1.941 . S
C444 O445 1.258 . S
C444 O446 1.263 . S
O445 Co442 1.970 . S
O445 C444 1.258 . S
O446 Co443 1.966 . S
O446 C444 1.263 . S
C447 O448 1.235 . S
C447 O474 1.289 . S
O448 C447 1.235 . S
C449 C451 1.400 . S
C449 N452 1.351 . S
C449 C454 1.501 . S
C450 C451 1.387 . S
C450 N453 1.341 . S
C451 C449 1.400 . S
C451 C450 1.387 . S
N452 Co443 2.022 . S
N452 C449 1.351 . S
N452 N453 1.365 . S
N453 C450 1.341 . S
N453 N452 1.365 . S
N453 H473 0.862 . S
C454 C449 1.501 . S
C454 H455 0.961 . S
C454 H456 0.961 . S
C454 H457 0.960 . S
H455 C454 0.961 . S
H456 C454 0.961 . S
H457 C454 0.960 . S
C458 N459 1.342 . S
C458 C462 1.401 . S
C458 C463 1.499 . S
N459 Co442 1.989 . S
N459 C458 1.342 . S
N459 N460 1.388 . S
N460 Co443 1.993 . S
N460 N459 1.388 . S
N460 C461 1.346 . S
C461 N460 1.346 . S
C461 C462 1.396 . S
C461 C471 1.510 . S
C462 C458 1.401 . S
C462 C461 1.396 . S
C463 C458 1.499 . S
C463 H464 0.959 . S
C463 H465 0.960 . S
C463 H466 0.961 . S
H464 C463 0.959 . S
H465 C463 0.960 . S
H466 C463 0.961 . S
O467 Co442 1.967 . S
O467 C475 1.258 . S
O468 Co443 1.941 . S
O468 C475 1.266 . S
H469 C471 0.959 . S
H470 C471 0.961 . S
C471 C461 1.510 . S
C471 H469 0.959 . S
C471 H470 0.961 . S
C471 H472 0.960 . S
H472 C471 0.960 . S
H473 N453 0.862 . S
O474 Co442 1.920 . S
O474 C447 1.289 . S
C475 O467 1.258 . S
C475 O468 1.266 . S
Co476 O479 1.970 . S
Co476 N493 1.989 . S
Co476 O501 1.967 . S
Co476 O508 1.920 . S
Co477 O480 1.966 . S
Co477 N486 2.022 . S
Co477 N494 1.993 . S
Co477 O502 1.941 . S
C478 O479 1.258 . S
C478 O480 1.263 . S
O479 Co476 1.970 . S
O479 C478 1.258 . S
O480 Co477 1.966 . S
O480 C478 1.263 . S
C481 O482 1.235 . S
C481 O508 1.289 . S
O482 C481 1.235 . S
C483 C485 1.400 . S
C483 N486 1.351 . S
C483 C488 1.501 . S
C484 C485 1.387 . S
C484 N487 1.341 . S
C485 C483 1.400 . S
C485 C484 1.387 . S
N486 Co477 2.022 . S
N486 C483 1.351 . S
N486 N487 1.365 . S
N487 C484 1.341 . S
N487 N486 1.365 . S
N487 H507 0.862 . S
C488 C483 1.501 . S
C488 H489 0.961 . S
C488 H490 0.961 . S
C488 H491 0.960 . S
H489 C488 0.961 . S
H490 C488 0.961 . S
H491 C488 0.960 . S
C492 N493 1.342 . S
C492 C496 1.401 . S
C492 C497 1.499 . S
N493 Co476 1.989 . S
N493 C492 1.342 . S
N493 N494 1.388 . S
N494 Co477 1.993 . S
N494 N493 1.388 . S
N494 C495 1.346 . S
C495 N494 1.346 . S
C495 C496 1.396 . S
C495 C505 1.510 . S
C496 C492 1.401 . S
C496 C495 1.396 . S
C497 C492 1.499 . S
C497 H498 0.959 . S
C497 H499 0.960 . S
C497 H500 0.961 . S
H498 C497 0.959 . S
H499 C497 0.960 . S
H500 C497 0.961 . S
O501 Co476 1.967 . S
O501 C509 1.258 . S
O502 Co477 1.941 . S
O502 C509 1.266 . S
H503 C505 0.959 . S
H504 C505 0.961 . S
C505 C495 1.510 . S
C505 H503 0.959 . S
C505 H504 0.961 . S
C505 H506 0.960 . S
H506 C505 0.960 . S
H507 N487 0.862 . S
O508 Co476 1.920 . S
O508 C481 1.289 . S
C509 O501 1.258 . S
C509 O502 1.266 . S
Co510 O513 1.970 . S
Co510 N527 1.989 . S
Co510 O535 1.967 . S
Co510 O542 1.920 . S
Co511 O514 1.966 . S
Co511 N520 2.022 . S
Co511 N528 1.993 . S
Co511 O536 1.941 . S
C512 O513 1.258 . S
C512 O514 1.263 . S
O513 Co510 1.970 . S
O513 C512 1.258 . S
O514 Co511 1.966 . S
O514 C512 1.263 . S
C515 O516 1.235 . S
C515 O542 1.289 . S
O516 C515 1.235 . S
C517 C519 1.400 . S
C517 N520 1.351 . S
C517 C522 1.501 . S
C518 C519 1.387 . S
C518 N521 1.341 . S
C519 C517 1.400 . S
C519 C518 1.387 . S
N520 Co511 2.022 . S
N520 C517 1.351 . S
N520 N521 1.365 . S
N521 C518 1.341 . S
N521 N520 1.365 . S
N521 H541 0.862 . S
C522 C517 1.501 . S
C522 H523 0.961 . S
C522 H524 0.961 . S
C522 H525 0.960 . S
H523 C522 0.961 . S
H524 C522 0.961 . S
H525 C522 0.960 . S
C526 N527 1.342 . S
C526 C530 1.401 . S
C526 C531 1.499 . S
N527 Co510 1.989 . S
N527 C526 1.342 . S
N527 N528 1.388 . S
N528 Co511 1.993 . S
N528 N527 1.388 . S
N528 C529 1.346 . S
C529 N528 1.346 . S
C529 C530 1.396 . S
C529 C539 1.510 . S
C530 C526 1.401 . S
C530 C529 1.396 . S
C531 C526 1.499 . S
C531 H532 0.959 . S
C531 H533 0.960 . S
C531 H534 0.961 . S
H532 C531 0.959 . S
H533 C531 0.960 . S
H534 C531 0.961 . S
O535 Co510 1.967 . S
O535 C543 1.258 . S
O536 Co511 1.941 . S
O536 C543 1.266 . S
H537 C539 0.959 . S
H538 C539 0.961 . S
C539 C529 1.510 . S
C539 H537 0.959 . S
C539 H538 0.961 . S
C539 H540 0.960 . S
H540 C539 0.960 . S
H541 N521 0.862 . S
O542 Co510 1.920 . S
O542 C515 1.289 . S
C543 O535 1.258 . S
C543 O536 1.266 . S
Co544 O547 1.970 . S
Co544 N561 1.989 . S
Co544 O569 1.967 . S
Co544 O576 1.920 . S
Co545 O548 1.966 . S
Co545 N554 2.022 . S
Co545 N562 1.993 . S
Co545 O570 1.941 . S
C546 O547 1.258 . S
C546 O548 1.263 . S
O547 Co544 1.970 . S
O547 C546 1.258 . S
O548 Co545 1.966 . S
O548 C546 1.263 . S
C549 O550 1.235 . S
C549 O576 1.289 . S
O550 C549 1.235 . S
C551 C553 1.400 . S
C551 N554 1.351 . S
C551 C556 1.501 . S
C552 C553 1.387 . S
C552 N555 1.341 . S
C553 C551 1.400 . S
C553 C552 1.387 . S
N554 Co545 2.022 . S
N554 C551 1.351 . S
N554 N555 1.365 . S
N555 C552 1.341 . S
N555 N554 1.365 . S
N555 H575 0.862 . S
C556 C551 1.501 . S
C556 H557 0.961 . S
C556 H558 0.961 . S
C556 H559 0.960 . S
H557 C556 0.961 . S
H558 C556 0.961 . S
H559 C556 0.960 . S
C560 N561 1.342 . S
C560 C564 1.401 . S
C560 C565 1.499 . S
N561 Co544 1.989 . S
N561 C560 1.342 . S
N561 N562 1.388 . S
N562 Co545 1.993 . S
N562 N561 1.388 . S
N562 C563 1.346 . S
C563 N562 1.346 . S
C563 C564 1.396 . S
C563 C573 1.510 . S
C564 C560 1.401 . S
C564 C563 1.396 . S
C565 C560 1.499 . S
C565 H566 0.959 . S
C565 H567 0.960 . S
C565 H568 0.961 . S
H566 C565 0.959 . S
H567 C565 0.960 . S
H568 C565 0.961 . S
O569 Co544 1.967 . S
O569 C577 1.258 . S
O570 Co545 1.941 . S
O570 C577 1.266 . S
H571 C573 0.959 . S
H572 C573 0.961 . S
C573 C563 1.510 . S
C573 H571 0.959 . S
C573 H572 0.961 . S
C573 H574 0.960 . S
H574 C573 0.960 . S
H575 N555 0.862 . S
O576 Co544 1.920 . S
O576 C549 1.289 . S
C577 O569 1.258 . S
C577 O570 1.266 . S
Co578 O581 1.970 . S
Co578 N595 1.989 . S
Co578 O603 1.967 . S
Co578 O610 1.920 . S
Co579 O582 1.966 . S
Co579 N588 2.022 . S
Co579 N596 1.993 . S
Co579 O604 1.941 . S
C580 O581 1.258 . S
C580 O582 1.263 . S
O581 Co578 1.970 . S
O581 C580 1.258 . S
O582 Co579 1.966 . S
O582 C580 1.263 . S
C583 O584 1.235 . S
C583 O610 1.289 . S
O584 C583 1.235 . S
C585 C587 1.400 . S
C585 N588 1.351 . S
C585 C590 1.501 . S
C586 C587 1.387 . S
C586 N589 1.341 . S
C587 C585 1.400 . S
C587 C586 1.387 . S
N588 Co579 2.022 . S
N588 C585 1.351 . S
N588 N589 1.365 . S
N589 C586 1.341 . S
N589 N588 1.365 . S
N589 H609 0.862 . S
C590 C585 1.501 . S
C590 H591 0.961 . S
C590 H592 0.961 . S
C590 H593 0.960 . S
H591 C590 0.961 . S
H592 C590 0.961 . S
H593 C590 0.960 . S
C594 N595 1.342 . S
C594 C598 1.401 . S
C594 C599 1.499 . S
N595 Co578 1.989 . S
N595 C594 1.342 . S
N595 N596 1.388 . S
N596 Co579 1.993 . S
N596 N595 1.388 . S
N596 C597 1.346 . S
C597 N596 1.346 . S
C597 C598 1.396 . S
C597 C607 1.510 . S
C598 C594 1.401 . S
C598 C597 1.396 . S
C599 C594 1.499 . S
C599 H600 0.959 . S
C599 H601 0.960 . S
C599 H602 0.961 . S
H600 C599 0.959 . S
H601 C599 0.960 . S
H602 C599 0.961 . S
O603 Co578 1.967 . S
O603 C611 1.258 . S
O604 Co579 1.941 . S
O604 C611 1.266 . S
H605 C607 0.959 . S
H606 C607 0.961 . S
C607 C597 1.510 . S
C607 H605 0.959 . S
C607 H606 0.961 . S
C607 H608 0.960 . S
H608 C607 0.960 . S
H609 N589 0.862 . S
O610 Co578 1.920 . S
O610 C583 1.289 . S
C611 O603 1.258 . S
C611 O604 1.266 . S
Co612 O615 1.970 . S
Co612 N629 1.989 . S
Co612 O637 1.967 . S
Co612 O644 1.920 . S
Co613 O616 1.966 . S
Co613 N622 2.022 . S
Co613 N630 1.993 . S
Co613 O638 1.941 . S
C614 O615 1.258 . S
C614 O616 1.263 . S
O615 Co612 1.970 . S
O615 C614 1.258 . S
O616 Co613 1.966 . S
O616 C614 1.263 . S
C617 O618 1.235 . S
C617 O644 1.289 . S
O618 C617 1.235 . S
C619 C621 1.400 . S
C619 N622 1.351 . S
C619 C624 1.501 . S
C620 C621 1.387 . S
C620 N623 1.341 . S
C621 C619 1.400 . S
C621 C620 1.387 . S
N622 Co613 2.022 . S
N622 C619 1.351 . S
N622 N623 1.365 . S
N623 C620 1.341 . S
N623 N622 1.365 . S
N623 H643 0.862 . S
C624 C619 1.501 . S
C624 H625 0.961 . S
C624 H626 0.961 . S
C624 H627 0.960 . S
H625 C624 0.961 . S
H626 C624 0.961 . S
H627 C624 0.960 . S
C628 N629 1.342 . S
C628 C632 1.401 . S
C628 C633 1.499 . S
N629 Co612 1.989 . S
N629 C628 1.342 . S
N629 N630 1.388 . S
N630 Co613 1.993 . S
N630 N629 1.388 . S
N630 C631 1.346 . S
C631 N630 1.346 . S
C631 C632 1.396 . S
C631 C641 1.510 . S
C632 C628 1.401 . S
C632 C631 1.396 . S
C633 C628 1.499 . S
C633 H634 0.959 . S
C633 H635 0.960 . S
C633 H636 0.961 . S
H634 C633 0.959 . S
H635 C633 0.960 . S
H636 C633 0.961 . S
O637 Co612 1.967 . S
O637 C645 1.258 . S
O638 Co613 1.941 . S
O638 C645 1.266 . S
H639 C641 0.959 . S
H640 C641 0.961 . S
C641 C631 1.510 . S
C641 H639 0.959 . S
C641 H640 0.961 . S
C641 H642 0.960 . S
H642 C641 0.960 . S
H643 N623 0.862 . S
O644 Co612 1.920 . S
O644 C617 1.289 . S
C645 O637 1.258 . S
C645 O638 1.266 . S
Co646 O649 1.970 . S
Co646 N663 1.989 . S
Co646 O671 1.967 . S
Co646 O678 1.920 . S
Co647 O650 1.966 . S
Co647 N656 2.022 . S
Co647 N664 1.993 . S
Co647 O672 1.941 . S
C648 O649 1.258 . S
C648 O650 1.263 . S
O649 Co646 1.970 . S
O649 C648 1.258 . S
O650 Co647 1.966 . S
O650 C648 1.263 . S
C651 O652 1.235 . S
C651 O678 1.289 . S
O652 C651 1.235 . S
C653 C655 1.400 . S
C653 N656 1.351 . S
C653 C658 1.501 . S
C654 C655 1.387 . S
C654 N657 1.341 . S
C655 C653 1.400 . S
C655 C654 1.387 . S
N656 Co647 2.022 . S
N656 C653 1.351 . S
N656 N657 1.365 . S
N657 C654 1.341 . S
N657 N656 1.365 . S
N657 H677 0.862 . S
C658 C653 1.501 . S
C658 H659 0.961 . S
C658 H660 0.961 . S
C658 H661 0.960 . S
H659 C658 0.961 . S
H660 C658 0.961 . S
H661 C658 0.960 . S
C662 N663 1.342 . S
C662 C666 1.401 . S
C662 C667 1.499 . S
N663 Co646 1.989 . S
N663 C662 1.342 . S
N663 N664 1.388 . S
N664 Co647 1.993 . S
N664 N663 1.388 . S
N664 C665 1.346 . S
C665 N664 1.346 . S
C665 C666 1.396 . S
C665 C675 1.510 . S
C666 C662 1.401 . S
C666 C665 1.396 . S
C667 C662 1.499 . S
C667 H668 0.959 . S
C667 H669 0.960 . S
C667 H670 0.961 . S
H668 C667 0.959 . S
H669 C667 0.960 . S
H670 C667 0.961 . S
O671 Co646 1.967 . S
O671 C679 1.258 . S
O672 Co647 1.941 . S
O672 C679 1.266 . S
H673 C675 0.959 . S
H674 C675 0.961 . S
C675 C665 1.510 . S
C675 H673 0.959 . S
C675 H674 0.961 . S
C675 H676 0.960 . S
H676 C675 0.960 . S
H677 N657 0.862 . S
O678 Co646 1.920 . S
O678 C651 1.289 . S
C679 O671 1.258 . S
C679 O672 1.266 . S
Co680 O683 1.970 . S
Co680 N697 1.989 . S
Co680 O705 1.967 . S
Co680 O712 1.920 . S
Co681 O684 1.966 . S
Co681 N690 2.022 . S
Co681 N698 1.993 . S
Co681 O706 1.941 . S
C682 O683 1.258 . S
C682 O684 1.263 . S
O683 Co680 1.970 . S
O683 C682 1.258 . S
O684 Co681 1.966 . S
O684 C682 1.263 . S
C685 O686 1.235 . S
C685 O712 1.289 . S
O686 C685 1.235 . S
C687 C689 1.400 . S
C687 N690 1.351 . S
C687 C692 1.501 . S
C688 C689 1.387 . S
C688 N691 1.341 . S
C689 C687 1.400 . S
C689 C688 1.387 . S
N690 Co681 2.022 . S
N690 C687 1.351 . S
N690 N691 1.365 . S
N691 C688 1.341 . S
N691 N690 1.365 . S
N691 H711 0.862 . S
C692 C687 1.501 . S
C692 H693 0.961 . S
C692 H694 0.961 . S
C692 H695 0.960 . S
H693 C692 0.961 . S
H694 C692 0.961 . S
H695 C692 0.960 . S
C696 N697 1.342 . S
C696 C700 1.401 . S
C696 C701 1.499 . S
N697 Co680 1.989 . S
N697 C696 1.342 . S
N697 N698 1.388 . S
N698 Co681 1.993 . S
N698 N697 1.388 . S
N698 C699 1.346 . S
C699 N698 1.346 . S
C699 C700 1.396 . S
C699 C709 1.510 . S
C700 C696 1.401 . S
C700 C699 1.396 . S
C701 C696 1.499 . S
C701 H702 0.959 . S
C701 H703 0.960 . S
C701 H704 0.961 . S
H702 C701 0.959 . S
H703 C701 0.960 . S
H704 C701 0.961 . S
O705 Co680 1.967 . S
O705 C713 1.258 . S
O706 Co681 1.941 . S
O706 C713 1.266 . S
H707 C709 0.959 . S
H708 C709 0.961 . S
C709 C699 1.510 . S
C709 H707 0.959 . S
C709 H708 0.961 . S
C709 H710 0.960 . S
H710 C709 0.960 . S
H711 N691 0.862 . S
O712 Co680 1.920 . S
O712 C685 1.289 . S
C713 O705 1.258 . S
C713 O706 1.266 . S
Co714 O717 1.970 . S
Co714 N731 1.989 . S
Co714 O739 1.967 . S
Co714 O746 1.920 . S
Co715 O718 1.966 . S
Co715 N724 2.022 . S
Co715 N732 1.993 . S
Co715 O740 1.941 . S
C716 O717 1.258 . S
C716 O718 1.263 . S
O717 Co714 1.970 . S
O717 C716 1.258 . S
O718 Co715 1.966 . S
O718 C716 1.263 . S
C719 O720 1.235 . S
C719 O746 1.289 . S
O720 C719 1.235 . S
C721 C723 1.400 . S
C721 N724 1.351 . S
C721 C726 1.501 . S
C722 C723 1.387 . S
C722 N725 1.341 . S
C723 C721 1.400 . S
C723 C722 1.387 . S
N724 Co715 2.022 . S
N724 C721 1.351 . S
N724 N725 1.365 . S
N725 C722 1.341 . S
N725 N724 1.365 . S
N725 H745 0.862 . S
C726 C721 1.501 . S
C726 H727 0.961 . S
C726 H728 0.961 . S
C726 H729 0.960 . S
H727 C726 0.961 . S
H728 C726 0.961 . S
H729 C726 0.960 . S
C730 N731 1.342 . S
C730 C734 1.401 . S
C730 C735 1.499 1_556 S
N731 Co714 1.989 . S
N731 C730 1.342 . S
N731 N732 1.388 . S
N732 Co715 1.993 . S
N732 N731 1.388 . S
N732 C733 1.346 . S
C733 N732 1.346 . S
C733 C734 1.396 . S
C733 C743 1.510 . S
C734 C730 1.401 . S
C734 C733 1.396 . S
C735 C730 1.499 1_554 S
C735 H736 0.959 . S
C735 H737 0.960 . S
C735 H738 0.961 . S
H736 C735 0.959 . S
H737 C735 0.960 . S
H738 C735 0.961 . S
O739 Co714 1.967 . S
O739 C747 1.258 . S
O740 Co715 1.941 . S
O740 C747 1.266 . S
H741 C743 0.959 . S
H742 C743 0.961 . S
C743 C733 1.510 . S
C743 H741 0.959 . S
C743 H742 0.961 . S
C743 H744 0.960 . S
H744 C743 0.960 . S
H745 N725 0.862 . S
O746 Co714 1.920 . S
O746 C719 1.289 . S
C747 O739 1.258 . S
C747 O740 1.266 . S
Co748 O751 1.970 . S
Co748 N765 1.989 . S
Co748 O773 1.967 . S
Co748 O780 1.920 . S
Co749 O752 1.966 . S
Co749 N758 2.022 . S
Co749 N766 1.993 . S
Co749 O774 1.941 . S
C750 O751 1.258 . S
C750 O752 1.263 . S
O751 Co748 1.970 . S
O751 C750 1.258 . S
O752 Co749 1.966 . S
O752 C750 1.263 . S
C753 O754 1.235 . S
C753 O780 1.289 . S
O754 C753 1.235 . S
C755 C757 1.400 . S
C755 N758 1.351 . S
C755 C760 1.501 . S
C756 C757 1.387 . S
C756 N759 1.341 . S
C757 C755 1.400 . S
C757 C756 1.387 . S
N758 Co749 2.022 . S
N758 C755 1.351 . S
N758 N759 1.365 . S
N759 C756 1.341 . S
N759 N758 1.365 . S
N759 H779 0.862 . S
C760 C755 1.501 . S
C760 H761 0.961 . S
C760 H762 0.961 . S
C760 H763 0.960 . S
H761 C760 0.961 . S
H762 C760 0.961 . S
H763 C760 0.960 . S
C764 N765 1.342 . S
C764 C768 1.401 . S
C764 C769 1.499 1_556 S
N765 Co748 1.989 . S
N765 C764 1.342 . S
N765 N766 1.388 . S
N766 Co749 1.993 . S
N766 N765 1.388 . S
N766 C767 1.346 . S
C767 N766 1.346 . S
C767 C768 1.396 . S
C767 C777 1.510 . S
C768 C764 1.401 . S
C768 C767 1.396 . S
C769 C764 1.499 1_554 S
C769 H770 0.959 . S
C769 H771 0.960 . S
C769 H772 0.961 . S
H770 C769 0.959 . S
H771 C769 0.960 . S
H772 C769 0.961 . S
O773 Co748 1.967 . S
O773 C781 1.258 . S
O774 Co749 1.941 . S
O774 C781 1.266 . S
H775 C777 0.959 . S
H776 C777 0.961 . S
C777 C767 1.510 . S
C777 H775 0.959 . S
C777 H776 0.961 . S
C777 H778 0.960 . S
H778 C777 0.960 . S
H779 N759 0.862 . S
O780 Co748 1.920 . S
O780 C753 1.289 . S
C781 O773 1.258 . S
C781 O774 1.266 . S
Co782 O785 1.970 . S
Co782 N799 1.989 . S
Co782 O807 1.967 . S
Co782 O814 1.920 . S
Co783 O786 1.966 . S
Co783 N792 2.022 . S
Co783 N800 1.993 . S
Co783 O808 1.941 . S
C784 O785 1.258 . S
C784 O786 1.263 . S
O785 Co782 1.970 . S
O785 C784 1.258 . S
O786 Co783 1.966 . S
O786 C784 1.263 . S
C787 O788 1.235 . S
C787 O814 1.289 . S
O788 C787 1.235 . S
C789 C791 1.400 . S
C789 N792 1.351 . S
C789 C794 1.501 . S
C790 C791 1.387 . S
C790 N793 1.341 . S
C791 C789 1.400 . S
C791 C790 1.387 . S
N792 Co783 2.022 . S
N792 C789 1.351 . S
N792 N793 1.365 . S
N793 C790 1.341 . S
N793 N792 1.365 . S
N793 H813 0.862 . S
C794 C789 1.501 . S
C794 H795 0.961 . S
C794 H796 0.961 . S
C794 H797 0.960 . S
H795 C794 0.961 . S
H796 C794 0.961 . S
H797 C794 0.960 . S
C798 N799 1.342 . S
C798 C802 1.401 . S
C798 C803 1.499 1_556 S
N799 Co782 1.989 . S
N799 C798 1.342 . S
N799 N800 1.388 . S
N800 Co783 1.993 . S
N800 N799 1.388 . S
N800 C801 1.346 . S
C801 N800 1.346 . S
C801 C802 1.396 . S
C801 C811 1.510 . S
C802 C798 1.401 . S
C802 C801 1.396 . S
C803 C798 1.499 1_554 S
C803 H804 0.959 . S
C803 H805 0.960 . S
C803 H806 0.961 . S
H804 C803 0.959 . S
H805 C803 0.960 . S
H806 C803 0.961 . S
O807 Co782 1.967 . S
O807 C815 1.258 . S
O808 Co783 1.941 . S
O808 C815 1.266 . S
H809 C811 0.959 . S
H810 C811 0.961 . S
C811 C801 1.510 . S
C811 H809 0.959 . S
C811 H810 0.961 . S
C811 H812 0.960 . S
H812 C811 0.960 . S
H813 N793 0.862 . S
O814 Co782 1.920 . S
O814 C787 1.289 . S
C815 O807 1.258 . S
C815 O808 1.266 . S
Co816 O819 1.970 . S
Co816 N833 1.989 . S
Co816 O841 1.967 . S
Co816 O848 1.920 . S
Co817 O820 1.966 . S
Co817 N826 2.022 . S
Co817 N834 1.993 . S
Co817 O842 1.941 . S
C818 O819 1.258 . S
C818 O820 1.263 . S
O819 Co816 1.970 . S
O819 C818 1.258 . S
O820 Co817 1.966 . S
O820 C818 1.263 . S
C821 O822 1.235 . S
C821 O848 1.289 . S
O822 C821 1.235 . S
C823 C825 1.400 . S
C823 N826 1.351 . S
C823 C828 1.501 . S
C824 C825 1.387 . S
C824 N827 1.341 . S
C825 C823 1.400 . S
C825 C824 1.387 . S
N826 Co817 2.022 . S
N826 C823 1.351 . S
N826 N827 1.365 . S
N827 C824 1.341 . S
N827 N826 1.365 . S
N827 H847 0.862 . S
C828 C823 1.501 . S
C828 H829 0.961 . S
C828 H830 0.961 . S
C828 H831 0.960 . S
H829 C828 0.961 . S
H830 C828 0.961 . S
H831 C828 0.960 . S
C832 N833 1.342 . S
C832 C836 1.401 . S
C832 C837 1.499 . S
N833 Co816 1.989 . S
N833 C832 1.342 . S
N833 N834 1.388 . S
N834 Co817 1.993 . S
N834 N833 1.388 . S
N834 C835 1.346 . S
C835 N834 1.346 . S
C835 C836 1.396 . S
C835 C845 1.510 . S
C836 C832 1.401 . S
C836 C835 1.396 . S
C837 C832 1.499 . S
C837 H838 0.959 . S
C837 H839 0.960 . S
C837 H840 0.961 . S
H838 C837 0.959 . S
H839 C837 0.960 . S
H840 C837 0.961 . S
O841 Co816 1.967 . S
O841 C849 1.258 . S
O842 Co817 1.941 . S
O842 C849 1.266 . S
H843 C845 0.959 . S
H844 C845 0.961 . S
C845 C835 1.510 . S
C845 H843 0.959 . S
C845 H844 0.961 . S
C845 H846 0.960 . S
H846 C845 0.960 . S
H847 N827 0.862 . S
O848 Co816 1.920 . S
O848 C821 1.289 . S
C849 O841 1.258 . S
C849 O842 1.266 . S
Co850 O853 1.970 . S
Co850 N867 1.989 . S
Co850 O875 1.967 . S
Co850 O882 1.920 . S
Co851 O854 1.966 . S
Co851 N860 2.022 . S
Co851 N868 1.993 . S
Co851 O876 1.941 . S
C852 O853 1.258 . S
C852 O854 1.263 . S
O853 Co850 1.970 . S
O853 C852 1.258 . S
O854 Co851 1.966 . S
O854 C852 1.263 . S
C855 O856 1.235 . S
C855 O882 1.289 . S
O856 C855 1.235 . S
C857 C859 1.400 . S
C857 N860 1.351 . S
C857 C862 1.501 . S
C858 C859 1.387 . S
C858 N861 1.341 . S
C859 C857 1.400 . S
C859 C858 1.387 . S
N860 Co851 2.022 . S
N860 C857 1.351 . S
N860 N861 1.365 . S
N861 C858 1.341 . S
N861 N860 1.365 . S
N861 H881 0.862 . S
C862 C857 1.501 . S
C862 H863 0.961 . S
C862 H864 0.961 . S
C862 H865 0.960 . S
H863 C862 0.961 . S
H864 C862 0.961 . S
H865 C862 0.960 . S
C866 N867 1.342 . S
C866 C870 1.401 . S
C866 C871 1.499 . S
N867 Co850 1.989 . S
N867 C866 1.342 . S
N867 N868 1.388 . S
N868 Co851 1.993 . S
N868 N867 1.388 . S
N868 C869 1.346 . S
C869 N868 1.346 . S
C869 C870 1.396 . S
C869 C879 1.510 . S
C870 C866 1.401 . S
C870 C869 1.396 . S
C871 C866 1.499 . S
C871 H872 0.959 . S
C871 H873 0.960 . S
C871 H874 0.961 . S
H872 C871 0.959 . S
H873 C871 0.960 . S
H874 C871 0.961 . S
O875 Co850 1.967 . S
O875 C883 1.258 . S
O876 Co851 1.941 . S
O876 C883 1.266 . S
H877 C879 0.959 . S
H878 C879 0.961 . S
C879 C869 1.510 . S
C879 H877 0.959 . S
C879 H878 0.961 . S
C879 H880 0.960 . S
H880 C879 0.960 . S
H881 N861 0.862 . S
O882 Co850 1.920 . S
O882 C855 1.289 . S
C883 O875 1.258 . S
C883 O876 1.266 . S
Co884 O887 1.970 . S
Co884 N901 1.989 . S
Co884 O909 1.967 . S
Co884 O916 1.920 . S
Co885 O888 1.966 . S
Co885 N894 2.022 . S
Co885 N902 1.993 . S
Co885 O910 1.941 . S
C886 O887 1.258 . S
C886 O888 1.263 . S
O887 Co884 1.970 . S
O887 C886 1.258 . S
O888 Co885 1.966 . S
O888 C886 1.263 . S
C889 O890 1.235 . S
C889 O916 1.289 . S
O890 C889 1.235 . S
C891 C893 1.400 . S
C891 N894 1.351 . S
C891 C896 1.501 . S
C892 C893 1.387 . S
C892 N895 1.341 . S
C893 C891 1.400 . S
C893 C892 1.387 . S
N894 Co885 2.022 . S
N894 C891 1.351 . S
N894 N895 1.365 . S
N895 C892 1.341 . S
N895 N894 1.365 . S
N895 H915 0.862 . S
C896 C891 1.501 . S
C896 H897 0.961 . S
C896 H898 0.961 . S
C896 H899 0.960 . S
H897 C896 0.961 . S
H898 C896 0.961 . S
H899 C896 0.960 . S
C900 N901 1.342 . S
C900 C904 1.401 . S
C900 C905 1.499 . S
N901 Co884 1.989 . S
N901 C900 1.342 . S
N901 N902 1.388 . S
N902 Co885 1.993 . S
N902 N901 1.388 . S
N902 C903 1.346 . S
C903 N902 1.346 . S
C903 C904 1.396 . S
C903 C913 1.510 . S
C904 C900 1.401 . S
C904 C903 1.396 . S
C905 C900 1.499 . S
C905 H906 0.959 . S
C905 H907 0.960 . S
C905 H908 0.961 . S
H906 C905 0.959 . S
H907 C905 0.960 . S
H908 C905 0.961 . S
O909 Co884 1.967 . S
O909 C917 1.258 . S
O910 Co885 1.941 . S
O910 C917 1.266 . S
H911 C913 0.959 . S
H912 C913 0.961 . S
C913 C903 1.510 . S
C913 H911 0.959 . S
C913 H912 0.961 . S
C913 H914 0.960 . S
H914 C913 0.960 . S
H915 N895 0.862 . S
O916 Co884 1.920 . S
O916 C889 1.289 . S
C917 O909 1.258 . S
C917 O910 1.266 . S
Co918 O921 1.970 . S
Co918 N935 1.989 . S
Co918 O943 1.967 . S
Co918 O950 1.920 . S
Co919 O922 1.966 . S
Co919 N928 2.022 . S
Co919 N936 1.993 . S
Co919 O944 1.941 . S
C920 O921 1.258 . S
C920 O922 1.263 . S
O921 Co918 1.970 . S
O921 C920 1.258 . S
O922 Co919 1.966 . S
O922 C920 1.263 . S
C923 O924 1.235 . S
C923 O950 1.289 . S
O924 C923 1.235 . S
C925 C927 1.400 . S
C925 N928 1.351 . S
C925 C930 1.501 . S
C926 C927 1.387 . S
C926 N929 1.341 . S
C927 C925 1.400 . S
C927 C926 1.387 . S
N928 Co919 2.022 . S
N928 C925 1.351 . S
N928 N929 1.365 . S
N929 C926 1.341 . S
N929 N928 1.365 . S
N929 H949 0.862 . S
C930 C925 1.501 . S
C930 H931 0.961 . S
C930 H932 0.961 . S
C930 H933 0.960 . S
H931 C930 0.961 . S
H932 C930 0.961 . S
H933 C930 0.960 . S
C934 N935 1.342 . S
C934 C938 1.401 . S
C934 C939 1.499 1_554 S
N935 Co918 1.989 . S
N935 C934 1.342 . S
N935 N936 1.388 . S
N936 Co919 1.993 . S
N936 N935 1.388 . S
N936 C937 1.346 . S
C937 N936 1.346 . S
C937 C938 1.396 . S
C937 C947 1.510 . S
C938 C934 1.401 . S
C938 C937 1.396 . S
C939 C934 1.499 1_556 S
C939 H940 0.959 . S
C939 H941 0.960 . S
C939 H942 0.961 . S
H940 C939 0.959 . S
H941 C939 0.960 . S
H942 C939 0.961 . S
O943 Co918 1.967 . S
O943 C951 1.258 . S
O944 Co919 1.941 . S
O944 C951 1.266 . S
H945 C947 0.959 . S
H946 C947 0.961 . S
C947 C937 1.510 . S
C947 H945 0.959 . S
C947 H946 0.961 . S
C947 H948 0.960 . S
H948 C947 0.960 . S
H949 N929 0.862 . S
O950 Co918 1.920 . S
O950 C923 1.289 . S
C951 O943 1.258 . S
C951 O944 1.266 . S
Co952 O955 1.970 . S
Co952 N969 1.989 . S
Co952 O977 1.967 . S
Co952 O984 1.920 . S
Co953 O956 1.966 . S
Co953 N962 2.022 . S
Co953 N970 1.993 . S
Co953 O978 1.941 . S
C954 O955 1.258 . S
C954 O956 1.263 . S
O955 Co952 1.970 . S
O955 C954 1.258 . S
O956 Co953 1.966 . S
O956 C954 1.263 . S
C957 O958 1.235 . S
C957 O984 1.289 . S
O958 C957 1.235 . S
C959 C961 1.400 . S
C959 N962 1.351 . S
C959 C964 1.501 . S
C960 C961 1.387 . S
C960 N963 1.341 . S
C961 C959 1.400 . S
C961 C960 1.387 . S
N962 Co953 2.022 . S
N962 C959 1.351 . S
N962 N963 1.365 . S
N963 C960 1.341 . S
N963 N962 1.365 . S
N963 H983 0.862 . S
C964 C959 1.501 . S
C964 H965 0.961 . S
C964 H966 0.961 . S
C964 H967 0.960 . S
H965 C964 0.961 . S
H966 C964 0.961 . S
H967 C964 0.960 . S
C968 N969 1.342 . S
C968 C972 1.401 . S
C968 C973 1.499 1_554 S
N969 Co952 1.989 . S
N969 C968 1.342 . S
N969 N970 1.388 . S
N970 Co953 1.993 . S
N970 N969 1.388 . S
N970 C971 1.346 . S
C971 N970 1.346 . S
C971 C972 1.396 . S
C971 C981 1.510 . S
C972 C968 1.401 . S
C972 C971 1.396 . S
C973 C968 1.499 1_556 S
C973 H974 0.959 . S
C973 H975 0.960 . S
C973 H976 0.961 . S
H974 C973 0.959 . S
H975 C973 0.960 . S
H976 C973 0.961 . S
O977 Co952 1.967 . S
O977 C985 1.258 . S
O978 Co953 1.941 . S
O978 C985 1.266 . S
H979 C981 0.959 . S
H980 C981 0.961 . S
C981 C971 1.510 . S
C981 H979 0.959 . S
C981 H980 0.961 . S
C981 H982 0.960 . S
H982 C981 0.960 . S
H983 N963 0.862 . S
O984 Co952 1.920 . S
O984 C957 1.289 . S
C985 O977 1.258 . S
C985 O978 1.266 . S
Co986 O989 1.970 . S
Co986 N1003 1.989 . S
Co986 O1011 1.967 . S
Co986 O1018 1.920 . S
Co987 O990 1.966 . S
Co987 N996 2.022 . S
Co987 N1004 1.993 . S
Co987 O1012 1.941 . S
C988 O989 1.258 . S
C988 O990 1.263 . S
O989 Co986 1.970 . S
O989 C988 1.258 . S
O990 Co987 1.966 . S
O990 C988 1.263 . S
C991 O992 1.235 . S
C991 O1018 1.289 . S
O992 C991 1.235 . S
C993 C995 1.400 . S
C993 N996 1.351 . S
C993 C998 1.501 . S
C994 C995 1.387 . S
C994 N997 1.341 . S
C995 C993 1.400 . S
C995 C994 1.387 . S
N996 Co987 2.022 . S
N996 C993 1.351 . S
N996 N997 1.365 . S
N997 C994 1.341 . S
N997 N996 1.365 . S
N997 H1017 0.862 . S
C998 C993 1.501 . S
C998 H999 0.961 . S
C998 H1000 0.961 . S
C998 H1001 0.960 . S
H999 C998 0.961 . S
H1000 C998 0.961 . S
H1001 C998 0.960 . S
C1002 N1003 1.342 . S
C1002 C1006 1.401 . S
C1002 C1007 1.499 1_554 S
N1003 Co986 1.989 . S
N1003 C1002 1.342 . S
N1003 N1004 1.388 . S
N1004 Co987 1.993 . S
N1004 N1003 1.388 . S
N1004 C1005 1.346 . S
C1005 N1004 1.346 . S
C1005 C1006 1.396 . S
C1005 C1015 1.510 . S
C1006 C1002 1.401 . S
C1006 C1005 1.396 . S
C1007 C1002 1.499 1_556 S
C1007 H1008 0.959 . S
C1007 H1009 0.960 . S
C1007 H1010 0.961 . S
H1008 C1007 0.959 . S
H1009 C1007 0.960 . S
H1010 C1007 0.961 . S
O1011 Co986 1.967 . S
O1011 C1019 1.258 . S
O1012 Co987 1.941 . S
O1012 C1019 1.266 . S
H1013 C1015 0.959 . S
H1014 C1015 0.961 . S
C1015 C1005 1.510 . S
C1015 H1013 0.959 . S
C1015 H1014 0.961 . S
C1015 H1016 0.960 . S
H1016 C1015 0.960 . S
H1017 N997 0.862 . S
O1018 Co986 1.920 . S
O1018 C991 1.289 . S
C1019 O1011 1.258 . S
C1019 O1012 1.266 . S
Co1020 O1023 1.970 . S
Co1020 N1037 1.989 . S
Co1020 O1045 1.967 . S
Co1020 O1052 1.920 . S
Co1021 O1024 1.966 . S
Co1021 N1030 2.022 . S
Co1021 N1038 1.993 . S
Co1021 O1046 1.941 . S
C1022 O1023 1.258 . S
C1022 O1024 1.263 . S
O1023 Co1020 1.970 . S
O1023 C1022 1.258 . S
O1024 Co1021 1.966 . S
O1024 C1022 1.263 . S
C1025 O1026 1.235 . S
C1025 O1052 1.289 . S
O1026 C1025 1.235 . S
C1027 C1029 1.400 . S
C1027 N1030 1.351 . S
C1027 C1032 1.501 . S
C1028 C1029 1.387 . S
C1028 N1031 1.341 . S
C1029 C1027 1.400 . S
C1029 C1028 1.387 . S
N1030 Co1021 2.022 . S
N1030 C1027 1.351 . S
N1030 N1031 1.365 . S
N1031 C1028 1.341 . S
N1031 N1030 1.365 . S
N1031 H1051 0.862 . S
C1032 C1027 1.501 . S
C1032 H1033 0.961 . S
C1032 H1034 0.961 . S
C1032 H1035 0.960 . S
H1033 C1032 0.961 . S
H1034 C1032 0.961 . S
H1035 C1032 0.960 . S
C1036 N1037 1.342 . S
C1036 C1040 1.401 . S
C1036 C1041 1.499 . S
N1037 Co1020 1.989 . S
N1037 C1036 1.342 . S
N1037 N1038 1.388 . S
N1038 Co1021 1.993 . S
N1038 N1037 1.388 . S
N1038 C1039 1.346 . S
C1039 N1038 1.346 . S
C1039 C1040 1.396 . S
C1039 C1049 1.510 . S
C1040 C1036 1.401 . S
C1040 C1039 1.396 . S
C1041 C1036 1.499 . S
C1041 H1042 0.959 . S
C1041 H1043 0.960 . S
C1041 H1044 0.961 . S
H1042 C1041 0.959 . S
H1043 C1041 0.960 . S
H1044 C1041 0.961 . S
O1045 Co1020 1.967 . S
O1045 C1053 1.258 . S
O1046 Co1021 1.941 . S
O1046 C1053 1.266 . S
H1047 C1049 0.959 . S
H1048 C1049 0.961 . S
C1049 C1039 1.510 . S
C1049 H1047 0.959 . S
C1049 H1048 0.961 . S
C1049 H1050 0.960 . S
H1050 C1049 0.960 . S
H1051 N1031 0.862 . S
O1052 Co1020 1.920 . S
O1052 C1025 1.289 . S
C1053 O1045 1.258 . S
C1053 O1046 1.266 . S
Co1054 O1057 1.970 . S
Co1054 N1071 1.989 . S
Co1054 O1079 1.967 . S
Co1054 O1086 1.920 . S
Co1055 O1058 1.966 . S
Co1055 N1064 2.022 . S
Co1055 N1072 1.993 . S
Co1055 O1080 1.941 . S
C1056 O1057 1.258 . S
C1056 O1058 1.263 . S
O1057 Co1054 1.970 . S
O1057 C1056 1.258 . S
O1058 Co1055 1.966 . S
O1058 C1056 1.263 . S
C1059 O1060 1.235 . S
C1059 O1086 1.289 . S
O1060 C1059 1.235 . S
C1061 C1063 1.400 . S
C1061 N1064 1.351 . S
C1061 C1066 1.501 . S
C1062 C1063 1.387 . S
C1062 N1065 1.341 . S
C1063 C1061 1.400 . S
C1063 C1062 1.387 . S
N1064 Co1055 2.022 . S
N1064 C1061 1.351 . S
N1064 N1065 1.365 . S
N1065 C1062 1.341 . S
N1065 N1064 1.365 . S
N1065 H1085 0.862 . S
C1066 C1061 1.501 . S
C1066 H1067 0.961 . S
C1066 H1068 0.961 . S
C1066 H1069 0.960 . S
H1067 C1066 0.961 . S
H1068 C1066 0.961 . S
H1069 C1066 0.960 . S
C1070 N1071 1.342 . S
C1070 C1074 1.401 . S
C1070 C1075 1.499 . S
N1071 Co1054 1.989 . S
N1071 C1070 1.342 . S
N1071 N1072 1.388 . S
N1072 Co1055 1.993 . S
N1072 N1071 1.388 . S
N1072 C1073 1.346 . S
C1073 N1072 1.346 . S
C1073 C1074 1.396 . S
C1073 C1083 1.510 . S
C1074 C1070 1.401 . S
C1074 C1073 1.396 . S
C1075 C1070 1.499 . S
C1075 H1076 0.959 . S
C1075 H1077 0.960 . S
C1075 H1078 0.961 . S
H1076 C1075 0.959 . S
H1077 C1075 0.960 . S
H1078 C1075 0.961 . S
O1079 Co1054 1.967 . S
O1079 C1087 1.258 . S
O1080 Co1055 1.941 . S
O1080 C1087 1.266 . S
H1081 C1083 0.959 . S
H1082 C1083 0.961 . S
C1083 C1073 1.510 . S
C1083 H1081 0.959 . S
C1083 H1082 0.961 . S
C1083 H1084 0.960 . S
H1084 C1083 0.960 . S
H1085 N1065 0.862 . S
O1086 Co1054 1.920 . S
O1086 C1059 1.289 . S
C1087 O1079 1.258 . S
C1087 O1080 1.266 . S
Co1088 O1091 1.970 . S
Co1088 N1105 1.989 . S
Co1088 O1113 1.967 . S
Co1088 O1120 1.920 . S
Co1089 O1092 1.966 . S
Co1089 N1098 2.022 . S
Co1089 N1106 1.993 . S
Co1089 O1114 1.941 . S
C1090 O1091 1.258 . S
C1090 O1092 1.263 . S
O1091 Co1088 1.970 . S
O1091 C1090 1.258 . S
O1092 Co1089 1.966 . S
O1092 C1090 1.263 . S
C1093 O1094 1.235 . S
C1093 O1120 1.289 . S
O1094 C1093 1.235 . S
C1095 C1097 1.400 . S
C1095 N1098 1.351 . S
C1095 C1100 1.501 . S
C1096 C1097 1.387 . S
C1096 N1099 1.341 . S
C1097 C1095 1.400 . S
C1097 C1096 1.387 . S
N1098 Co1089 2.022 . S
N1098 C1095 1.351 . S
N1098 N1099 1.365 . S
N1099 C1096 1.341 . S
N1099 N1098 1.365 . S
N1099 H1119 0.862 . S
C1100 C1095 1.501 . S
C1100 H1101 0.961 . S
C1100 H1102 0.961 . S
C1100 H1103 0.960 . S
H1101 C1100 0.961 . S
H1102 C1100 0.961 . S
H1103 C1100 0.960 . S
C1104 N1105 1.342 . S
C1104 C1108 1.401 . S
C1104 C1109 1.499 . S
N1105 Co1088 1.989 . S
N1105 C1104 1.342 . S
N1105 N1106 1.388 . S
N1106 Co1089 1.993 . S
N1106 N1105 1.388 . S
N1106 C1107 1.346 . S
C1107 N1106 1.346 . S
C1107 C1108 1.396 . S
C1107 C1117 1.510 . S
C1108 C1104 1.401 . S
C1108 C1107 1.396 . S
C1109 C1104 1.499 . S
C1109 H1110 0.959 . S
C1109 H1111 0.960 . S
C1109 H1112 0.961 . S
H1110 C1109 0.959 . S
H1111 C1109 0.960 . S
H1112 C1109 0.961 . S
O1113 Co1088 1.967 . S
O1113 C1121 1.258 . S
O1114 Co1089 1.941 . S
O1114 C1121 1.266 . S
H1115 C1117 0.959 . S
H1116 C1117 0.961 . S
C1117 C1107 1.510 . S
C1117 H1115 0.959 . S
C1117 H1116 0.961 . S
C1117 H1118 0.960 . S
H1118 C1117 0.960 . S
H1119 N1099 0.862 . S
O1120 Co1088 1.920 . S
O1120 C1093 1.289 . S
C1121 O1113 1.258 . S
C1121 O1114 1.266 . S
Co1122 O1125 1.970 . S
Co1122 N1139 1.989 . S
Co1122 O1147 1.967 . S
Co1122 O1154 1.920 . S
Co1123 O1126 1.966 . S
Co1123 N1132 2.022 . S
Co1123 N1140 1.993 . S
Co1123 O1148 1.941 . S
C1124 O1125 1.258 . S
C1124 O1126 1.263 . S
O1125 Co1122 1.970 . S
O1125 C1124 1.258 . S
O1126 Co1123 1.966 . S
O1126 C1124 1.263 . S
C1127 O1128 1.235 . S
C1127 O1154 1.289 . S
O1128 C1127 1.235 . S
C1129 C1131 1.400 . S
C1129 N1132 1.351 . S
C1129 C1134 1.501 . S
C1130 C1131 1.387 . S
C1130 N1133 1.341 . S
C1131 C1129 1.400 . S
C1131 C1130 1.387 . S
N1132 Co1123 2.022 . S
N1132 C1129 1.351 . S
N1132 N1133 1.365 . S
N1133 C1130 1.341 . S
N1133 N1132 1.365 . S
N1133 H1153 0.862 . S
C1134 C1129 1.501 . S
C1134 H1135 0.961 . S
C1134 H1136 0.961 . S
C1134 H1137 0.960 . S
H1135 C1134 0.961 . S
H1136 C1134 0.961 . S
H1137 C1134 0.960 . S
C1138 N1139 1.342 . S
C1138 C1142 1.401 . S
C1138 C1143 1.499 . S
N1139 Co1122 1.989 . S
N1139 C1138 1.342 . S
N1139 N1140 1.388 . S
N1140 Co1123 1.993 . S
N1140 N1139 1.388 . S
N1140 C1141 1.346 . S
C1141 N1140 1.346 . S
C1141 C1142 1.396 . S
C1141 C1151 1.510 . S
C1142 C1138 1.401 . S
C1142 C1141 1.396 . S
C1143 C1138 1.499 . S
C1143 H1144 0.959 . S
C1143 H1145 0.960 . S
C1143 H1146 0.961 . S
H1144 C1143 0.959 . S
H1145 C1143 0.960 . S
H1146 C1143 0.961 . S
O1147 Co1122 1.967 . S
O1147 C1155 1.258 . S
O1148 Co1123 1.941 . S
O1148 C1155 1.266 . S
H1149 C1151 0.959 . S
H1150 C1151 0.961 . S
C1151 C1141 1.510 . S
C1151 H1149 0.959 . S
C1151 H1150 0.961 . S
C1151 H1152 0.960 . S
H1152 C1151 0.960 . S
H1153 N1133 0.862 . S
O1154 Co1122 1.920 . S
O1154 C1127 1.289 . S
C1155 O1147 1.258 . S
C1155 O1148 1.266 . S
Co1156 O1159 1.970 . S
Co1156 N1173 1.989 . S
Co1156 O1181 1.967 . S
Co1156 O1188 1.920 . S
Co1157 O1160 1.966 . S
Co1157 N1166 2.022 . S
Co1157 N1174 1.993 . S
Co1157 O1182 1.941 . S
C1158 O1159 1.258 . S
C1158 O1160 1.263 . S
O1159 Co1156 1.970 . S
O1159 C1158 1.258 . S
O1160 Co1157 1.966 . S
O1160 C1158 1.263 . S
C1161 O1162 1.235 . S
C1161 O1188 1.289 . S
O1162 C1161 1.235 . S
C1163 C1165 1.400 . S
C1163 N1166 1.351 . S
C1163 C1168 1.501 . S
C1164 C1165 1.387 . S
C1164 N1167 1.341 . S
C1165 C1163 1.400 . S
C1165 C1164 1.387 . S
N1166 Co1157 2.022 . S
N1166 C1163 1.351 . S
N1166 N1167 1.365 . S
N1167 C1164 1.341 . S
N1167 N1166 1.365 . S
N1167 H1187 0.862 . S
C1168 C1163 1.501 . S
C1168 H1169 0.961 . S
C1168 H1170 0.961 . S
C1168 H1171 0.960 . S
H1169 C1168 0.961 . S
H1170 C1168 0.961 . S
H1171 C1168 0.960 . S
C1172 N1173 1.342 . S
C1172 C1176 1.401 . S
C1172 C1177 1.499 . S
N1173 Co1156 1.989 . S
N1173 C1172 1.342 . S
N1173 N1174 1.388 . S
N1174 Co1157 1.993 . S
N1174 N1173 1.388 . S
N1174 C1175 1.346 . S
C1175 N1174 1.346 . S
C1175 C1176 1.396 . S
C1175 C1185 1.510 . S
C1176 C1172 1.401 . S
C1176 C1175 1.396 . S
C1177 C1172 1.499 . S
C1177 H1178 0.959 . S
C1177 H1179 0.960 . S
C1177 H1180 0.961 . S
H1178 C1177 0.959 . S
H1179 C1177 0.960 . S
H1180 C1177 0.961 . S
O1181 Co1156 1.967 . S
O1181 C1189 1.258 . S
O1182 Co1157 1.941 . S
O1182 C1189 1.266 . S
H1183 C1185 0.959 . S
H1184 C1185 0.961 . S
C1185 C1175 1.510 . S
C1185 H1183 0.959 . S
C1185 H1184 0.961 . S
C1185 H1186 0.960 . S
H1186 C1185 0.960 . S
H1187 N1167 0.862 . S
O1188 Co1156 1.920 . S
O1188 C1161 1.289 . S
C1189 O1181 1.258 . S
C1189 O1182 1.266 . S
Co1190 O1193 1.970 . S
Co1190 N1207 1.989 . S
Co1190 O1215 1.967 . S
Co1190 O1222 1.920 . S
Co1191 O1194 1.966 . S
Co1191 N1200 2.022 . S
Co1191 N1208 1.993 . S
Co1191 O1216 1.941 . S
C1192 O1193 1.258 . S
C1192 O1194 1.263 . S
O1193 Co1190 1.970 . S
O1193 C1192 1.258 . S
O1194 Co1191 1.966 . S
O1194 C1192 1.263 . S
C1195 O1196 1.235 . S
C1195 O1222 1.289 . S
O1196 C1195 1.235 . S
C1197 C1199 1.400 . S
C1197 N1200 1.351 . S
C1197 C1202 1.501 . S
C1198 C1199 1.387 . S
C1198 N1201 1.341 . S
C1199 C1197 1.400 . S
C1199 C1198 1.387 . S
N1200 Co1191 2.022 . S
N1200 C1197 1.351 . S
N1200 N1201 1.365 . S
N1201 C1198 1.341 . S
N1201 N1200 1.365 . S
N1201 H1221 0.862 . S
C1202 C1197 1.501 . S
C1202 H1203 0.961 . S
C1202 H1204 0.961 . S
C1202 H1205 0.960 . S
H1203 C1202 0.961 . S
H1204 C1202 0.961 . S
H1205 C1202 0.960 . S
C1206 N1207 1.342 . S
C1206 C1210 1.401 . S
C1206 C1211 1.499 . S
N1207 Co1190 1.989 . S
N1207 C1206 1.342 . S
N1207 N1208 1.388 . S
N1208 Co1191 1.993 . S
N1208 N1207 1.388 . S
N1208 C1209 1.346 . S
C1209 N1208 1.346 . S
C1209 C1210 1.396 . S
C1209 C1219 1.510 . S
C1210 C1206 1.401 . S
C1210 C1209 1.396 . S
C1211 C1206 1.499 . S
C1211 H1212 0.959 . S
C1211 H1213 0.960 . S
C1211 H1214 0.961 . S
H1212 C1211 0.959 . S
H1213 C1211 0.960 . S
H1214 C1211 0.961 . S
O1215 Co1190 1.967 . S
O1215 C1223 1.258 . S
O1216 Co1191 1.941 . S
O1216 C1223 1.266 . S
H1217 C1219 0.959 . S
H1218 C1219 0.961 . S
C1219 C1209 1.510 . S
C1219 H1217 0.959 . S
C1219 H1218 0.961 . S
C1219 H1220 0.960 . S
H1220 C1219 0.960 . S
H1221 N1201 0.862 . S
O1222 Co1190 1.920 . S
O1222 C1195 1.289 . S
C1223 O1215 1.258 . S
C1223 O1216 1.266 . S
C1224 C1225 1.363 . S
C1224 C1230 1.379 . S
C1224 N1232 1.356 . S
C1225 C1224 1.363 . S
C1225 C1231 1.363 . S
C1226 C1227 1.363 . S
C1226 C1231 1.379 . S
C1226 N1233 1.356 . S
C1227 C1226 1.363 . S
C1227 C1230 1.363 . S
N1228 C1230 1.356 . S
N1228 H1240 0.984 . S
N1228 H1241 0.985 . S
N1229 C1231 1.356 . S
N1229 H1234 0.984 . S
N1229 H1235 0.985 . S
C1230 C1224 1.379 . S
C1230 C1227 1.363 . S
C1230 N1228 1.356 . S
C1231 C1225 1.363 . S
C1231 C1226 1.379 . S
C1231 N1229 1.356 . S
N1232 C1224 1.356 . S
N1232 H1238 0.984 . S
N1232 H1239 0.984 . S
N1233 C1226 1.356 . S
N1233 H1236 0.984 . S
N1233 H1237 0.985 . S
H1234 N1229 0.984 . S
H1235 N1229 0.985 . S
H1236 N1233 0.984 . S
H1237 N1233 0.985 . S
H1238 N1232 0.984 . S
H1239 N1232 0.984 . S
H1240 N1228 0.984 . S
H1241 N1228 0.985 . S
C1242 C1243 1.363 . S
C1242 C1248 1.379 . S
C1242 N1250 1.356 . S
C1243 C1242 1.363 . S
C1243 C1249 1.363 . S
C1244 C1245 1.363 . S
C1244 C1249 1.379 . S
C1244 N1251 1.356 . S
C1245 C1244 1.363 . S
C1245 C1248 1.363 . S
N1246 C1248 1.356 . S
N1246 H1258 0.984 . S
N1246 H1259 0.985 . S
N1247 C1249 1.356 . S
N1247 H1252 0.984 . S
N1247 H1253 0.985 . S
C1248 C1242 1.379 . S
C1248 C1245 1.363 . S
C1248 N1246 1.356 . S
C1249 C1243 1.363 . S
C1249 C1244 1.379 . S
C1249 N1247 1.356 . S
N1250 C1242 1.356 . S
N1250 H1256 0.984 . S
N1250 H1257 0.984 . S
N1251 C1244 1.356 . S
N1251 H1254 0.984 . S
N1251 H1255 0.985 . S
H1252 N1247 0.984 . S
H1253 N1247 0.985 . S
H1254 N1251 0.984 . S
H1255 N1251 0.985 . S
H1256 N1250 0.984 . S
H1257 N1250 0.984 . S
H1258 N1246 0.984 . S
H1259 N1246 0.985 . S
C1260 C1261 1.363 . S
C1260 C1266 1.379 . S
C1260 N1268 1.356 . S
C1261 C1260 1.363 . S
C1261 C1267 1.363 . S
C1262 C1263 1.363 . S
C1262 C1267 1.379 . S
C1262 N1269 1.356 . S
C1263 C1262 1.363 . S
C1263 C1266 1.363 . S
N1264 C1266 1.356 . S
N1264 H1276 0.984 . S
N1264 H1277 0.985 . S
N1265 C1267 1.356 . S
N1265 H1270 0.984 . S
N1265 H1271 0.985 . S
C1266 C1260 1.379 . S
C1266 C1263 1.363 . S
C1266 N1264 1.356 . S
C1267 C1261 1.363 . S
C1267 C1262 1.379 . S
C1267 N1265 1.356 . S
N1268 C1260 1.356 . S
N1268 H1274 0.984 . S
N1268 H1275 0.984 . S
N1269 C1262 1.356 . S
N1269 H1272 0.984 . S
N1269 H1273 0.985 . S
H1270 N1265 0.984 . S
H1271 N1265 0.985 . S
H1272 N1269 0.984 . S
H1273 N1269 0.985 . S
H1274 N1268 0.984 . S
H1275 N1268 0.984 . S
H1276 N1264 0.984 . S
H1277 N1264 0.985 . S
C1278 C1279 1.363 . S
C1278 C1284 1.379 . S
C1278 N1286 1.356 . S
C1279 C1278 1.363 . S
C1279 C1285 1.363 . S
C1280 C1281 1.363 . S
C1280 C1285 1.379 . S
C1280 N1287 1.356 . S
C1281 C1280 1.363 . S
C1281 C1284 1.363 . S
N1282 C1284 1.356 . S
N1282 H1294 0.984 . S
N1282 H1295 0.985 . S
N1283 C1285 1.356 . S
N1283 H1288 0.984 . S
N1283 H1289 0.985 . S
C1284 C1278 1.379 . S
C1284 C1281 1.363 . S
C1284 N1282 1.356 . S
C1285 C1279 1.363 . S
C1285 C1280 1.379 . S
C1285 N1283 1.356 . S
N1286 C1278 1.356 . S
N1286 H1292 0.984 . S
N1286 H1293 0.984 . S
N1287 C1280 1.356 . S
N1287 H1290 0.984 . S
N1287 H1291 0.985 . S
H1288 N1283 0.984 . S
H1289 N1283 0.985 . S
H1290 N1287 0.984 . S
H1291 N1287 0.985 . S
H1292 N1286 0.984 . S
H1293 N1286 0.984 . S
H1294 N1282 0.984 . S
H1295 N1282 0.985 . S
C1296 C1297 1.363 . S
C1296 C1302 1.379 . S
C1296 N1304 1.356 . S
C1297 C1296 1.363 . S
C1297 C1303 1.363 . S
C1298 C1299 1.363 . S
C1298 C1303 1.379 . S
C1298 N1305 1.356 . S
C1299 C1298 1.363 . S
C1299 C1302 1.363 . S
N1300 C1302 1.356 . S
N1300 H1312 0.984 . S
N1300 H1313 0.985 . S
N1301 C1303 1.356 . S
N1301 H1306 0.984 . S
N1301 H1307 0.985 . S
C1302 C1296 1.379 . S
C1302 C1299 1.363 . S
C1302 N1300 1.356 . S
C1303 C1297 1.363 . S
C1303 C1298 1.379 . S
C1303 N1301 1.356 . S
N1304 C1296 1.356 . S
N1304 H1310 0.984 . S
N1304 H1311 0.984 . S
N1305 C1298 1.356 . S
N1305 H1308 0.984 . S
N1305 H1309 0.985 . S
H1306 N1301 0.984 . S
H1307 N1301 0.985 . S
H1308 N1305 0.984 . S
H1309 N1305 0.985 . S
H1310 N1304 0.984 . S
H1311 N1304 0.984 . S
H1312 N1300 0.984 . S
H1313 N1300 0.985 . S
C1314 C1315 1.363 . S
C1314 C1320 1.379 . S
C1314 N1322 1.356 . S
C1315 C1314 1.363 . S
C1315 C1321 1.363 . S
C1316 C1317 1.363 . S
C1316 C1321 1.379 . S
C1316 N1323 1.356 . S
C1317 C1316 1.363 . S
C1317 C1320 1.363 . S
N1318 C1320 1.356 . S
N1318 H1330 0.984 . S
N1318 H1331 0.985 . S
N1319 C1321 1.356 . S
N1319 H1324 0.984 . S
N1319 H1325 0.985 . S
C1320 C1314 1.379 . S
C1320 C1317 1.363 . S
C1320 N1318 1.356 . S
C1321 C1315 1.363 . S
C1321 C1316 1.379 . S
C1321 N1319 1.356 . S
N1322 C1314 1.356 . S
N1322 H1328 0.984 . S
N1322 H1329 0.984 . S
N1323 C1316 1.356 . S
N1323 H1326 0.984 . S
N1323 H1327 0.985 . S
H1324 N1319 0.984 . S
H1325 N1319 0.985 . S
H1326 N1323 0.984 . S
H1327 N1323 0.985 . S
H1328 N1322 0.984 . S
H1329 N1322 0.984 . S
H1330 N1318 0.984 . S
H1331 N1318 0.985 . S
C1332 C1333 1.363 . S
C1332 C1338 1.379 . S
C1332 N1340 1.356 . S
C1333 C1332 1.363 . S
C1333 C1339 1.363 . S
C1334 C1335 1.363 . S
C1334 C1339 1.379 . S
C1334 N1341 1.356 . S
C1335 C1334 1.363 . S
C1335 C1338 1.363 . S
N1336 C1338 1.356 . S
N1336 H1348 0.984 . S
N1336 H1349 0.985 . S
N1337 C1339 1.356 . S
N1337 H1342 0.984 . S
N1337 H1343 0.985 . S
C1338 C1332 1.379 . S
C1338 C1335 1.363 . S
C1338 N1336 1.356 . S
C1339 C1333 1.363 . S
C1339 C1334 1.379 . S
C1339 N1337 1.356 . S
N1340 C1332 1.356 . S
N1340 H1346 0.984 . S
N1340 H1347 0.984 . S
N1341 C1334 1.356 . S
N1341 H1344 0.984 . S
N1341 H1345 0.985 . S
H1342 N1337 0.984 . S
H1343 N1337 0.985 . S
H1344 N1341 0.984 . S
H1345 N1341 0.985 . S
H1346 N1340 0.984 . S
H1347 N1340 0.984 . S
H1348 N1336 0.984 . S
H1349 N1336 0.985 . S
C1350 C1351 1.363 . S
C1350 C1356 1.379 . S
C1350 N1358 1.356 . S
C1351 C1350 1.363 . S
C1351 C1357 1.363 . S
C1352 C1353 1.363 . S
C1352 C1357 1.379 . S
C1352 N1359 1.356 . S
C1353 C1352 1.363 . S
C1353 C1356 1.363 . S
N1354 C1356 1.356 . S
N1354 H1366 0.984 . S
N1354 H1367 0.985 . S
N1355 C1357 1.356 . S
N1355 H1360 0.984 . S
N1355 H1361 0.985 . S
C1356 C1350 1.379 . S
C1356 C1353 1.363 . S
C1356 N1354 1.356 . S
C1357 C1351 1.363 . S
C1357 C1352 1.379 . S
C1357 N1355 1.356 . S
N1358 C1350 1.356 . S
N1358 H1364 0.984 . S
N1358 H1365 0.984 . S
N1359 C1352 1.356 . S
N1359 H1362 0.984 . S
N1359 H1363 0.985 . S
H1360 N1355 0.984 . S
H1361 N1355 0.985 . S
H1362 N1359 0.984 . S
H1363 N1359 0.985 . S
H1364 N1358 0.984 . S
H1365 N1358 0.984 . S
H1366 N1354 0.984 . S
H1367 N1354 0.985 . S
C1368 C1369 1.363 . S
C1368 C1374 1.379 . S
C1368 N1376 1.356 . S
C1369 C1368 1.363 . S
C1369 C1375 1.363 . S
C1370 C1371 1.363 . S
C1370 C1375 1.379 . S
C1370 N1377 1.356 . S
C1371 C1370 1.363 . S
C1371 C1374 1.363 . S
N1372 C1374 1.356 . S
N1372 H1384 0.984 . S
N1372 H1385 0.985 . S
N1373 C1375 1.356 . S
N1373 H1378 0.984 . S
N1373 H1379 0.985 . S
C1374 C1368 1.379 . S
C1374 C1371 1.363 . S
C1374 N1372 1.356 . S
C1375 C1369 1.363 . S
C1375 C1370 1.379 . S
C1375 N1373 1.356 . S
N1376 C1368 1.356 . S
N1376 H1382 0.984 . S
N1376 H1383 0.984 . S
N1377 C1370 1.356 . S
N1377 H1380 0.984 . S
N1377 H1381 0.985 . S
H1378 N1373 0.984 . S
H1379 N1373 0.985 . S
H1380 N1377 0.984 . S
H1381 N1377 0.985 . S
H1382 N1376 0.984 . S
H1383 N1376 0.984 . S
H1384 N1372 0.984 . S
H1385 N1372 0.985 . S
C1386 C1387 1.363 . S
C1386 C1392 1.379 . S
C1386 N1394 1.356 . S
C1387 C1386 1.363 . S
C1387 C1393 1.363 . S
C1388 C1389 1.363 . S
C1388 C1393 1.379 . S
C1388 N1395 1.356 . S
C1389 C1388 1.363 . S
C1389 C1392 1.363 . S
N1390 C1392 1.356 . S
N1390 H1402 0.984 . S
N1390 H1403 0.985 . S
N1391 C1393 1.356 . S
N1391 H1396 0.984 . S
N1391 H1397 0.985 . S
C1392 C1386 1.379 . S
C1392 C1389 1.363 . S
C1392 N1390 1.356 . S
C1393 C1387 1.363 . S
C1393 C1388 1.379 . S
C1393 N1391 1.356 . S
N1394 C1386 1.356 . S
N1394 H1400 0.984 . S
N1394 H1401 0.984 . S
N1395 C1388 1.356 . S
N1395 H1398 0.984 . S
N1395 H1399 0.985 . S
H1396 N1391 0.984 . S
H1397 N1391 0.985 . S
H1398 N1395 0.984 . S
H1399 N1395 0.985 . S
H1400 N1394 0.984 . S
H1401 N1394 0.984 . S
H1402 N1390 0.984 . S
H1403 N1390 0.985 . S
C1404 C1405 1.363 . S
C1404 C1410 1.379 . S
C1404 N1412 1.356 . S
C1405 C1404 1.363 . S
C1405 C1411 1.363 . S
C1406 C1407 1.363 . S
C1406 C1411 1.379 . S
C1406 N1413 1.356 . S
C1407 C1406 1.363 . S
C1407 C1410 1.363 . S
N1408 C1410 1.356 . S
N1408 H1420 0.984 . S
N1408 H1421 0.985 . S
N1409 C1411 1.356 . S
N1409 H1414 0.984 . S
N1409 H1415 0.985 . S
C1410 C1404 1.379 . S
C1410 C1407 1.363 . S
C1410 N1408 1.356 . S
C1411 C1405 1.363 . S
C1411 C1406 1.379 . S
C1411 N1409 1.356 . S
N1412 C1404 1.356 . S
N1412 H1418 0.984 . S
N1412 H1419 0.984 . S
N1413 C1406 1.356 . S
N1413 H1416 0.984 . S
N1413 H1417 0.985 . S
H1414 N1409 0.984 . S
H1415 N1409 0.985 . S
H1416 N1413 0.984 . S
H1417 N1413 0.985 . S
H1418 N1412 0.984 . S
H1419 N1412 0.984 . S
H1420 N1408 0.984 . S
H1421 N1408 0.985 . S
C1422 C1423 1.363 . S
C1422 C1428 1.379 . S
C1422 N1430 1.356 . S
C1423 C1422 1.363 . S
C1423 C1429 1.363 . S
C1424 C1425 1.363 . S
C1424 C1429 1.379 . S
C1424 N1431 1.356 . S
C1425 C1424 1.363 . S
C1425 C1428 1.363 . S
N1426 C1428 1.356 . S
N1426 H1438 0.984 . S
N1426 H1439 0.985 . S
N1427 C1429 1.356 . S
N1427 H1432 0.984 . S
N1427 H1433 0.985 . S
C1428 C1422 1.379 . S
C1428 C1425 1.363 . S
C1428 N1426 1.356 . S
C1429 C1423 1.363 . S
C1429 C1424 1.379 . S
C1429 N1427 1.356 . S
N1430 C1422 1.356 . S
N1430 H1436 0.984 . S
N1430 H1437 0.984 . S
N1431 C1424 1.356 . S
N1431 H1434 0.984 . S
N1431 H1435 0.985 . S
H1432 N1427 0.984 . S
H1433 N1427 0.985 . S
H1434 N1431 0.984 . S
H1435 N1431 0.985 . S
H1436 N1430 0.984 . S
H1437 N1430 0.984 . S
H1438 N1426 0.984 . S
H1439 N1426 0.985 . S
C1440 C1441 1.363 . S
C1440 C1446 1.379 . S
C1440 N1448 1.356 . S
C1441 C1440 1.363 . S
C1441 C1447 1.363 1_655 S
C1442 C1443 1.363 . S
C1442 C1447 1.379 . S
C1442 N1449 1.356 . S
C1443 C1442 1.363 . S
C1443 C1446 1.363 1_455 S
N1444 C1446 1.356 . S
N1444 H1456 0.984 . S
N1444 H1457 0.985 . S
N1445 C1447 1.356 . S
N1445 H1450 0.984 . S
N1445 H1451 0.985 . S
C1446 C1440 1.379 . S
C1446 C1443 1.363 1_655 S
C1446 N1444 1.356 . S
C1447 C1441 1.363 1_455 S
C1447 C1442 1.379 . S
C1447 N1445 1.356 . S
N1448 C1440 1.356 . S
N1448 H1454 0.984 . S
N1448 H1455 0.984 . S
N1449 C1442 1.356 . S
N1449 H1452 0.984 . S
N1449 H1453 0.985 . S
H1450 N1445 0.984 . S
H1451 N1445 0.985 . S
H1452 N1449 0.984 . S
H1453 N1449 0.985 . S
H1454 N1448 0.984 . S
H1455 N1448 0.984 . S
H1456 N1444 0.984 . S
H1457 N1444 0.985 . S
C1458 C1459 1.363 . S
C1458 C1464 1.379 . S
C1458 N1466 1.356 . S
C1459 C1458 1.363 . S
C1459 C1465 1.363 . S
C1460 C1461 1.363 . S
C1460 C1465 1.379 . S
C1460 N1467 1.356 . S
C1461 C1460 1.363 . S
C1461 C1464 1.363 . S
N1462 C1464 1.356 . S
N1462 H1474 0.984 . S
N1462 H1475 0.985 . S
N1463 C1465 1.356 . S
N1463 H1468 0.984 . S
N1463 H1469 0.985 . S
C1464 C1458 1.379 . S
C1464 C1461 1.363 . S
C1464 N1462 1.356 . S
C1465 C1459 1.363 . S
C1465 C1460 1.379 . S
C1465 N1463 1.356 . S
N1466 C1458 1.356 . S
N1466 H1472 0.984 . S
N1466 H1473 0.984 . S
N1467 C1460 1.356 . S
N1467 H1470 0.984 . S
N1467 H1471 0.985 . S
H1468 N1463 0.984 . S
H1469 N1463 0.985 . S
H1470 N1467 0.984 . S
H1471 N1467 0.985 . S
H1472 N1466 0.984 . S
H1473 N1466 0.984 . S
H1474 N1462 0.984 . S
H1475 N1462 0.985 . S
C1476 C1477 1.363 1_545 S
C1476 C1482 1.379 . S
C1476 N1484 1.356 . S
C1477 C1476 1.363 1_565 S
C1477 C1483 1.363 . S
C1478 C1479 1.363 1_565 S
C1478 C1483 1.379 . S
C1478 N1485 1.356 . S
C1479 C1478 1.363 1_545 S
C1479 C1482 1.363 . S
N1480 C1482 1.356 . S
N1480 H1492 0.984 . S
N1480 H1493 0.985 . S
N1481 C1483 1.356 . S
N1481 H1486 0.984 . S
N1481 H1487 0.985 . S
C1482 C1476 1.379 . S
C1482 C1479 1.363 . S
C1482 N1480 1.356 . S
C1483 C1477 1.363 . S
C1483 C1478 1.379 . S
C1483 N1481 1.356 . S
N1484 C1476 1.356 . S
N1484 H1490 0.984 . S
N1484 H1491 0.984 . S
N1485 C1478 1.356 . S
N1485 H1488 0.984 . S
N1485 H1489 0.985 . S
H1486 N1481 0.984 . S
H1487 N1481 0.985 . S
H1488 N1485 0.984 . S
H1489 N1485 0.985 . S
H1490 N1484 0.984 . S
H1491 N1484 0.984 . S
H1492 N1480 0.984 . S
H1493 N1480 0.985 . S
C1494 C1495 1.363 1_556 S
C1494 C1500 1.379 . S
C1494 N1502 1.356 . S
C1495 C1494 1.363 1_554 S
C1495 C1501 1.363 1_565 S
C1496 C1497 1.363 1_554 S
C1496 C1501 1.379 . S
C1496 N1503 1.356 . S
C1497 C1496 1.363 1_556 S
C1497 C1500 1.363 1_545 S
N1498 C1500 1.356 . S
N1498 H1510 0.984 . S
N1498 H1511 0.985 . S
N1499 C1501 1.356 . S
N1499 H1504 0.984 . S
N1499 H1505 0.985 . S
C1500 C1494 1.379 . S
C1500 C1497 1.363 1_565 S
C1500 N1498 1.356 . S
C1501 C1495 1.363 1_545 S
C1501 C1496 1.379 . S
C1501 N1499 1.356 . S
N1502 C1494 1.356 . S
N1502 H1508 0.984 . S
N1502 H1509 0.984 1_556 S
N1503 C1496 1.356 . S
N1503 H1506 0.984 1_554 S
N1503 H1507 0.985 . S
H1504 N1499 0.984 . S
H1505 N1499 0.985 . S
H1506 N1503 0.984 1_556 S
H1507 N1503 0.985 . S
H1508 N1502 0.984 . S
H1509 N1502 0.984 1_554 S
H1510 N1498 0.984 . S
H1511 N1498 0.985 . S
C1512 C1513 1.363 1_554 S
C1512 C1518 1.379 . S
C1512 N1520 1.356 . S
C1513 C1512 1.363 1_556 S
C1513 C1519 1.363 1_655 S
C1514 C1515 1.363 1_556 S
C1514 C1519 1.379 . S
C1514 N1521 1.356 . S
C1515 C1514 1.363 1_554 S
C1515 C1518 1.363 1_455 S
N1516 C1518 1.356 . S
N1516 H1528 0.984 . S
N1516 H1529 0.985 . S
N1517 C1519 1.356 . S
N1517 H1522 0.984 . S
N1517 H1523 0.985 . S
C1518 C1512 1.379 . S
C1518 C1515 1.363 1_655 S
C1518 N1516 1.356 . S
C1519 C1513 1.363 1_455 S
C1519 C1514 1.379 . S
C1519 N1517 1.356 . S
N1520 C1512 1.356 . S
N1520 H1526 0.984 . S
N1520 H1527 0.984 . S
N1521 C1514 1.356 . S
N1521 H1524 0.984 . S
N1521 H1525 0.985 . S
H1522 N1517 0.984 . S
H1523 N1517 0.985 . S
H1524 N1521 0.984 . S
H1525 N1521 0.985 . S
H1526 N1520 0.984 . S
H1527 N1520 0.984 . S
H1528 N1516 0.984 . S
H1529 N1516 0.985 . S
C1530 C1531 1.363 1_556 S
C1530 C1536 1.379 . S
C1530 N1538 1.356 . S
C1531 C1530 1.363 1_554 S
C1531 C1537 1.363 . S
C1532 C1533 1.363 1_554 S
C1532 C1537 1.379 . S
C1532 N1539 1.356 . S
C1533 C1532 1.363 1_556 S
C1533 C1536 1.363 . S
N1534 C1536 1.356 . S
N1534 H1546 0.984 . S
N1534 H1547 0.985 . S
N1535 C1537 1.356 . S
N1535 H1540 0.984 . S
N1535 H1541 0.985 . S
C1536 C1530 1.379 . S
C1536 C1533 1.363 . S
C1536 N1534 1.356 . S
C1537 C1531 1.363 . S
C1537 C1532 1.379 . S
C1537 N1535 1.356 . S
N1538 C1530 1.356 . S
N1538 H1544 0.984 . S
N1538 H1545 0.984 1_556 S
N1539 C1532 1.356 . S
N1539 H1542 0.984 1_554 S
N1539 H1543 0.985 . S
H1540 N1535 0.984 . S
H1541 N1535 0.985 . S
H1542 N1539 0.984 1_556 S
H1543 N1539 0.985 . S
H1544 N1538 0.984 . S
H1545 N1538 0.984 1_554 S
H1546 N1534 0.984 . S
H1547 N1534 0.985 . S
C1548 C1549 1.363 1_556 S
C1548 C1554 1.379 . S
C1548 N1556 1.356 . S
C1549 C1548 1.363 1_554 S
C1549 C1555 1.363 . S
C1550 C1551 1.363 . S
C1550 C1555 1.379 . S
C1550 N1557 1.356 . S
C1551 C1550 1.363 . S
C1551 C1554 1.363 1_554 S
N1552 C1554 1.356 . S
N1552 H1564 0.984 . S
N1552 H1565 0.985 . S
N1553 C1555 1.356 . S
N1553 H1558 0.984 . S
N1553 H1559 0.985 . S
C1554 C1548 1.379 . S
C1554 C1551 1.363 1_556 S
C1554 N1552 1.356 . S
C1555 C1549 1.363 . S
C1555 C1550 1.379 . S
C1555 N1553 1.356 . S
N1556 C1548 1.356 . S
N1556 H1562 0.984 . S
N1556 H1563 0.984 . S
N1557 C1550 1.356 . S
N1557 H1560 0.984 . S
N1557 H1561 0.985 . S
H1558 N1553 0.984 . S
H1559 N1553 0.985 . S
H1560 N1557 0.984 . S
H1561 N1557 0.985 . S
H1562 N1556 0.984 . S
H1563 N1556 0.984 . S
H1564 N1552 0.984 . S
H1565 N1552 0.985 . S
C1566 C1567 1.363 1_556 S
C1566 C1572 1.379 . S
C1566 N1574 1.356 . S
C1567 C1566 1.363 1_554 S
C1567 C1573 1.363 . S
C1568 C1569 1.363 . S
C1568 C1573 1.379 . S
C1568 N1575 1.356 . S
C1569 C1568 1.363 . S
C1569 C1572 1.363 1_554 S
N1570 C1572 1.356 . S
N1570 H1582 0.984 . S
N1570 H1583 0.985 . S
N1571 C1573 1.356 . S
N1571 H1576 0.984 . S
N1571 H1577 0.985 . S
C1572 C1566 1.379 . S
C1572 C1569 1.363 1_556 S
C1572 N1570 1.356 . S
C1573 C1567 1.363 . S
C1573 C1568 1.379 . S
C1573 N1571 1.356 . S
N1574 C1566 1.356 . S
N1574 H1580 0.984 . S
N1574 H1581 0.984 . S
N1575 C1568 1.356 . S
N1575 H1578 0.984 . S
N1575 H1579 0.985 . S
H1576 N1571 0.984 . S
H1577 N1571 0.985 . S
H1578 N1575 0.984 . S
H1579 N1575 0.985 . S
H1580 N1574 0.984 . S
H1581 N1574 0.984 . S
H1582 N1570 0.984 . S
H1583 N1570 0.985 . S
C1584 C1585 1.363 . S
C1584 C1590 1.379 . S
C1584 N1592 1.356 . S
C1585 C1584 1.363 . S
C1585 C1591 1.363 . S
C1586 C1587 1.374 . S
C1586 C1591 1.380 . S
C1586 N1593 1.346 1_554 S
C1587 C1586 1.374 . S
C1587 C1590 1.363 . S
N1588 C1590 1.356 . S
N1588 H1600 0.984 . S
N1588 H1601 0.985 . S
N1589 C1591 1.356 1_556 S
N1589 H1594 0.984 . S
N1589 H1595 0.985 . S
C1590 C1584 1.379 . S
C1590 C1587 1.363 . S
C1590 N1588 1.356 . S
C1591 C1585 1.363 . S
C1591 C1586 1.380 . S
C1591 N1589 1.356 1_554 S
N1592 C1584 1.356 . S
N1592 H1598 0.984 . S
N1592 H1599 0.984 . S
N1593 C1586 1.346 1_556 S
N1593 H1596 0.984 . S
N1593 H1597 0.985 . S
H1594 N1589 0.984 . S
H1595 N1589 0.985 . S
H1596 N1593 0.984 . S
H1597 N1593 0.985 . S
H1598 N1592 0.984 . S
H1599 N1592 0.984 . S
H1600 N1588 0.984 . S
H1601 N1588 0.985 . S
C1602 C1603 1.363 . S
C1602 C1608 1.379 . S
C1602 N1610 1.356 . S
C1603 C1602 1.363 . S
C1603 C1609 1.363 . S
C1604 C1605 1.363 . S
C1604 C1609 1.379 . S
C1604 N1611 1.356 . S
C1605 C1604 1.363 . S
C1605 C1608 1.363 . S
N1606 C1608 1.356 . S
N1606 H1618 0.984 . S
N1606 H1619 0.985 . S
N1607 C1609 1.356 . S
N1607 H1612 0.984 . S
N1607 H1613 0.985 . S
C1608 C1602 1.379 . S
C1608 C1605 1.363 . S
C1608 N1606 1.356 . S
C1609 C1603 1.363 . S
C1609 C1604 1.379 . S
C1609 N1607 1.356 . S
N1610 C1602 1.356 . S
N1610 H1616 0.984 . S
N1610 H1617 0.984 . S
N1611 C1604 1.356 . S
N1611 H1614 0.984 . S
N1611 H1615 0.985 . S
H1612 N1607 0.984 . S
H1613 N1607 0.985 . S
H1614 N1611 0.984 . S
H1615 N1611 0.985 . S
H1616 N1610 0.984 . S
H1617 N1610 0.984 . S
H1618 N1606 0.984 . S
H1619 N1606 0.985 . S
C1620 C1621 1.363 . S
C1620 C1626 1.379 . S
C1620 N1628 1.356 . S
C1621 C1620 1.363 . S
C1621 C1627 1.363 . S
C1622 C1623 1.363 . S
C1622 C1627 1.379 . S
C1622 N1629 1.356 . S
C1623 C1622 1.363 . S
C1623 C1626 1.363 . S
N1624 C1626 1.356 . S
N1624 H1636 0.984 . S
N1624 H1637 0.985 . S
N1625 C1627 1.356 . S
N1625 H1630 0.984 . S
N1625 H1631 0.985 . S
C1626 C1620 1.379 . S
C1626 C1623 1.363 . S
C1626 N1624 1.356 . S
C1627 C1621 1.363 . S
C1627 C1622 1.379 . S
C1627 N1625 1.356 . S
N1628 C1620 1.356 . S
N1628 H1634 0.984 . S
N1628 H1635 0.984 . S
N1629 C1622 1.356 . S
N1629 H1632 0.984 . S
N1629 H1633 0.985 . S
H1630 N1625 0.984 . S
H1631 N1625 0.985 . S
H1632 N1629 0.984 . S
H1633 N1629 0.985 . S
H1634 N1628 0.984 . S
H1635 N1628 0.984 . S
H1636 N1624 0.984 . S
H1637 N1624 0.985 . S
C1638 C1639 1.363 . S
C1638 C1644 1.379 . S
C1638 N1646 1.356 . S
C1639 C1638 1.363 . S
C1639 C1645 1.363 . S
C1640 C1641 1.363 . S
C1640 C1645 1.379 . S
C1640 N1647 1.356 . S
C1641 C1640 1.363 . S
C1641 C1644 1.363 . S
N1642 C1644 1.356 . S
N1642 H1654 0.984 . S
N1642 H1655 0.985 . S
N1643 C1645 1.356 . S
N1643 H1648 0.984 . S
N1643 H1649 0.985 . S
C1644 C1638 1.379 . S
C1644 C1641 1.363 . S
C1644 N1642 1.356 . S
C1645 C1639 1.363 . S
C1645 C1640 1.379 . S
C1645 N1643 1.356 . S
N1646 C1638 1.356 . S
N1646 H1652 0.984 . S
N1646 H1653 0.984 . S
N1647 C1640 1.356 . S
N1647 H1650 0.984 . S
N1647 H1651 0.985 . S
H1648 N1643 0.984 . S
H1649 N1643 0.985 . S
H1650 N1647 0.984 . S
H1651 N1647 0.985 . S
H1652 N1646 0.984 . S
H1653 N1646 0.984 . S
H1654 N1642 0.984 . S
H1655 N1642 0.985 . S
C1656 C1657 1.363 1_554 S
C1656 C1662 1.379 . S
C1656 N1664 1.356 . S
C1657 C1656 1.363 1_556 S
C1657 C1663 1.363 . S
C1658 C1659 1.363 . S
C1658 C1663 1.379 . S
C1658 N1665 1.356 . S
C1659 C1658 1.363 . S
C1659 C1662 1.363 1_556 S
N1660 C1662 1.356 . S
N1660 H1672 0.984 . S
N1660 H1673 0.985 . S
N1661 C1663 1.356 . S
N1661 H1666 0.984 . S
N1661 H1667 0.985 . S
C1662 C1656 1.379 . S
C1662 C1659 1.363 1_554 S
C1662 N1660 1.356 . S
C1663 C1657 1.363 . S
C1663 C1658 1.379 . S
C1663 N1661 1.356 . S
N1664 C1656 1.356 . S
N1664 H1670 0.984 . S
N1664 H1671 0.984 . S
N1665 C1658 1.356 . S
N1665 H1668 0.984 . S
N1665 H1669 0.985 . S
H1666 N1661 0.984 . S
H1667 N1661 0.985 . S
H1668 N1665 0.984 . S
H1669 N1665 0.985 . S
H1670 N1664 0.984 . S
H1671 N1664 0.984 . S
H1672 N1660 0.984 . S
H1673 N1660 0.985 . S
C1674 C1675 1.363 . S
C1674 C1680 1.379 . S
C1674 N1682 1.356 . S
C1675 C1674 1.363 . S
C1675 C1681 1.363 1_556 S
C1676 C1677 1.363 1_554 S
C1676 C1681 1.379 . S
C1676 N1683 1.356 . S
C1677 C1676 1.363 1_556 S
C1677 C1680 1.363 . S
N1678 C1680 1.356 . S
N1678 H1690 0.984 . S
N1678 H1691 0.985 . S
N1679 C1681 1.356 . S
N1679 H1684 0.984 . S
N1679 H1685 0.985 . S
C1680 C1674 1.379 . S
C1680 C1677 1.363 . S
C1680 N1678 1.356 . S
C1681 C1675 1.363 1_554 S
C1681 C1676 1.379 . S
C1681 N1679 1.356 . S
N1682 C1674 1.356 . S
N1682 H1688 0.984 . S
N1682 H1689 0.984 . S
N1683 C1676 1.356 . S
N1683 H1686 0.984 . S
N1683 H1687 0.985 . S
H1684 N1679 0.984 . S
H1685 N1679 0.985 . S
H1686 N1683 0.984 . S
H1687 N1683 0.985 . S
H1688 N1682 0.984 . S
H1689 N1682 0.984 . S
H1690 N1678 0.984 . S
H1691 N1678 0.985 . S
C1692 C1693 1.363 1_554 S
C1692 C1698 1.379 . S
C1692 N1700 1.356 . S
C1693 C1692 1.363 1_556 S
C1693 C1699 1.363 . S
C1694 C1695 1.363 . S
C1694 C1699 1.379 . S
C1694 N1701 1.356 . S
C1695 C1694 1.363 . S
C1695 C1698 1.363 1_556 S
N1696 C1698 1.356 . S
N1696 H1708 0.984 . S
N1696 H1709 0.985 . S
N1697 C1699 1.356 . S
N1697 H1702 0.984 . S
N1697 H1703 0.985 . S
C1698 C1692 1.379 . S
C1698 C1695 1.363 1_554 S
C1698 N1696 1.356 . S
C1699 C1693 1.363 . S
C1699 C1694 1.379 . S
C1699 N1697 1.356 . S
N1700 C1692 1.356 . S
N1700 H1706 0.984 . S
N1700 H1707 0.984 . S
N1701 C1694 1.356 . S
N1701 H1704 0.984 . S
N1701 H1705 0.985 . S
H1702 N1697 0.984 . S
H1703 N1697 0.985 . S
H1704 N1701 0.984 . S
H1705 N1701 0.985 . S
H1706 N1700 0.984 . S
H1707 N1700 0.984 . S
H1708 N1696 0.984 . S
H1709 N1696 0.985 . S
C1710 C1711 1.363 . S
C1710 C1716 1.379 . S
C1710 N1718 1.356 . S
C1711 C1710 1.363 . S
C1711 C1717 1.363 . S
C1712 C1713 1.363 . S
C1712 C1717 1.379 . S
C1712 N1719 1.356 . S
C1713 C1712 1.363 . S
C1713 C1716 1.363 . S
N1714 C1716 1.356 . S
N1714 H1726 0.984 . S
N1714 H1727 0.985 . S
N1715 C1717 1.356 . S
N1715 H1720 0.984 . S
N1715 H1721 0.985 . S
C1716 C1710 1.379 . S
C1716 C1713 1.363 . S
C1716 N1714 1.356 . S
C1717 C1711 1.363 . S
C1717 C1712 1.379 . S
C1717 N1715 1.356 . S
N1718 C1710 1.356 . S
N1718 H1724 0.984 . S
N1718 H1725 0.984 . S
N1719 C1712 1.356 . S
N1719 H1722 0.984 . S
N1719 H1723 0.985 . S
H1720 N1715 0.984 . S
H1721 N1715 0.985 . S
H1722 N1719 0.984 . S
H1723 N1719 0.985 . S
H1724 N1718 0.984 . S
H1725 N1718 0.984 . S
H1726 N1714 0.984 . S
H1727 N1714 0.985 . S
C1728 C1729 1.363 . S
C1728 C1734 1.379 . S
C1728 N1736 1.356 . S
C1729 C1728 1.363 . S
C1729 C1735 1.363 . S
C1730 C1731 1.363 . S
C1730 C1735 1.379 . S
C1730 N1737 1.356 . S
C1731 C1730 1.363 . S
C1731 C1734 1.363 . S
N1732 C1734 1.356 . S
N1732 H1744 0.984 . S
N1732 H1745 0.985 . S
N1733 C1735 1.356 . S
N1733 H1738 0.984 . S
N1733 H1739 0.985 . S
C1734 C1728 1.379 . S
C1734 C1731 1.363 . S
C1734 N1732 1.356 . S
C1735 C1729 1.363 . S
C1735 C1730 1.379 . S
C1735 N1733 1.356 . S
N1736 C1728 1.356 . S
N1736 H1742 0.984 . S
N1736 H1743 0.984 . S
N1737 C1730 1.356 . S
N1737 H1740 0.984 . S
N1737 H1741 0.985 . S
H1738 N1733 0.984 . S
H1739 N1733 0.985 . S
H1740 N1737 0.984 . S
H1741 N1737 0.985 . S
H1742 N1736 0.984 . S
H1743 N1736 0.984 . S
H1744 N1732 0.984 . S
H1745 N1732 0.985 . S
C1746 C1747 1.363 . S
C1746 C1752 1.379 . S
C1746 N1754 1.356 . S
C1747 C1746 1.363 . S
C1747 C1753 1.363 . S
C1748 C1749 1.363 . S
C1748 C1753 1.379 . S
C1748 N1755 1.356 . S
C1749 C1748 1.363 . S
C1749 C1752 1.363 . S
N1750 C1752 1.356 . S
N1750 H1762 0.984 . S
N1750 H1763 0.985 . S
N1751 C1753 1.356 . S
N1751 H1756 0.984 . S
N1751 H1757 0.985 . S
C1752 C1746 1.379 . S
C1752 C1749 1.363 . S
C1752 N1750 1.356 . S
C1753 C1747 1.363 . S
C1753 C1748 1.379 . S
C1753 N1751 1.356 . S
N1754 C1746 1.356 . S
N1754 H1760 0.984 . S
N1754 H1761 0.984 . S
N1755 C1748 1.356 . S
N1755 H1758 0.984 . S
N1755 H1759 0.985 . S
H1756 N1751 0.984 . S
H1757 N1751 0.985 . S
H1758 N1755 0.984 . S
H1759 N1755 0.985 . S
H1760 N1754 0.984 . S
H1761 N1754 0.984 . S
H1762 N1750 0.984 . S
H1763 N1750 0.985 . S
C1764 C1765 1.363 . S
C1764 C1770 1.379 . S
C1764 N1772 1.356 . S
C1765 C1764 1.363 . S
C1765 C1771 1.363 . S
C1766 C1767 1.363 . S
C1766 C1771 1.379 . S
C1766 N1773 1.356 . S
C1767 C1766 1.363 . S
C1767 C1770 1.363 . S
N1768 C1770 1.356 . S
N1768 H1780 0.984 . S
N1768 H1781 0.985 . S
N1769 C1771 1.356 . S
N1769 H1774 0.984 . S
N1769 H1775 0.985 . S
C1770 C1764 1.379 . S
C1770 C1767 1.363 . S
C1770 N1768 1.356 . S
C1771 C1765 1.363 . S
C1771 C1766 1.379 . S
C1771 N1769 1.356 . S
N1772 C1764 1.356 . S
N1772 H1778 0.984 . S
N1772 H1779 0.984 . S
N1773 C1766 1.356 . S
N1773 H1776 0.984 . S
N1773 H1777 0.985 . S
H1774 N1769 0.984 . S
H1775 N1769 0.985 . S
H1776 N1773 0.984 . S
H1777 N1773 0.985 . S
H1778 N1772 0.984 . S
H1779 N1772 0.984 . S
H1780 N1768 0.984 . S
H1781 N1768 0.985 . S
C1782 C1783 1.363 . S
C1782 C1788 1.379 . S
C1782 N1790 1.356 . S
C1783 C1782 1.363 . S
C1783 C1789 1.363 . S
C1784 C1785 1.363 . S
C1784 C1789 1.379 . S
C1784 N1791 1.356 . S
C1785 C1784 1.363 . S
C1785 C1788 1.363 . S
N1786 C1788 1.356 . S
N1786 H1798 0.984 . S
N1786 H1799 0.985 . S
N1787 C1789 1.356 . S
N1787 H1792 0.984 . S
N1787 H1793 0.985 . S
C1788 C1782 1.379 . S
C1788 C1785 1.363 . S
C1788 N1786 1.356 . S
C1789 C1783 1.363 . S
C1789 C1784 1.379 . S
C1789 N1787 1.356 . S
N1790 C1782 1.356 . S
N1790 H1796 0.984 . S
N1790 H1797 0.984 . S
N1791 C1784 1.356 . S
N1791 H1794 0.984 . S
N1791 H1795 0.985 . S
H1792 N1787 0.984 . S
H1793 N1787 0.985 . S
H1794 N1791 0.984 . S
H1795 N1791 0.985 . S
H1796 N1790 0.984 . S
H1797 N1790 0.984 . S
H1798 N1786 0.984 . S
H1799 N1786 0.985 . S
C1800 C1801 1.363 . S
C1800 C1806 1.379 . S
C1800 N1808 1.356 . S
C1801 C1800 1.363 . S
C1801 C1807 1.363 . S
C1802 C1803 1.363 . S
C1802 C1807 1.379 . S
C1802 N1809 1.356 . S
C1803 C1802 1.363 . S
C1803 C1806 1.363 . S
N1804 C1806 1.356 . S
N1804 H1816 0.984 . S
N1804 H1817 0.985 . S
N1805 C1807 1.356 . S
N1805 H1810 0.984 . S
N1805 H1811 0.985 . S
C1806 C1800 1.379 . S
C1806 C1803 1.363 . S
C1806 N1804 1.356 . S
C1807 C1801 1.363 . S
C1807 C1802 1.379 . S
C1807 N1805 1.356 . S
N1808 C1800 1.356 . S
N1808 H1814 0.984 . S
N1808 H1815 0.984 . S
N1809 C1802 1.356 . S
N1809 H1812 0.984 . S
N1809 H1813 0.985 . S
H1810 N1805 0.984 . S
H1811 N1805 0.985 . S
H1812 N1809 0.984 . S
H1813 N1809 0.985 . S
H1814 N1808 0.984 . S
H1815 N1808 0.984 . S
H1816 N1804 0.984 . S
H1817 N1804 0.985 . S
C1818 C1819 1.363 . S
C1818 C1824 1.379 . S
C1818 N1826 1.356 . S
C1819 C1818 1.363 . S
C1819 C1825 1.363 . S
C1820 C1821 1.363 . S
C1820 C1825 1.379 . S
C1820 N1827 1.356 . S
C1821 C1820 1.363 . S
C1821 C1824 1.363 . S
N1822 C1824 1.356 . S
N1822 H1834 0.984 . S
N1822 H1835 0.985 . S
N1823 C1825 1.356 . S
N1823 H1828 0.984 . S
N1823 H1829 0.985 . S
C1824 C1818 1.379 . S
C1824 C1821 1.363 . S
C1824 N1822 1.356 . S
C1825 C1819 1.363 . S
C1825 C1820 1.379 . S
C1825 N1823 1.356 . S
N1826 C1818 1.356 . S
N1826 H1832 0.984 . S
N1826 H1833 0.984 . S
N1827 C1820 1.356 . S
N1827 H1830 0.984 . S
N1827 H1831 0.985 . S
H1828 N1823 0.984 . S
H1829 N1823 0.985 . S
H1830 N1827 0.984 . S
H1831 N1827 0.985 . S
H1832 N1826 0.984 . S
H1833 N1826 0.984 . S
H1834 N1822 0.984 . S
H1835 N1822 0.985 . S
C1836 C1837 1.363 . S
C1836 C1842 1.379 . S
C1836 N1844 1.356 . S
C1837 C1836 1.363 . S
C1837 C1843 1.363 . S
C1838 C1839 1.363 . S
C1838 C1843 1.379 . S
C1838 N1845 1.356 . S
C1839 C1838 1.363 . S
C1839 C1842 1.363 . S
N1840 C1842 1.356 . S
N1840 H1852 0.984 . S
N1840 H1853 0.985 . S
N1841 C1843 1.356 . S
N1841 H1846 0.984 . S
N1841 H1847 0.985 . S
C1842 C1836 1.379 . S
C1842 C1839 1.363 . S
C1842 N1840 1.356 . S
C1843 C1837 1.363 . S
C1843 C1838 1.379 . S
C1843 N1841 1.356 . S
N1844 C1836 1.356 . S
N1844 H1850 0.984 . S
N1844 H1851 0.984 . S
N1845 C1838 1.356 . S
N1845 H1848 0.984 . S
N1845 H1849 0.985 . S
H1846 N1841 0.984 . S
H1847 N1841 0.985 . S
H1848 N1845 0.984 . S
H1849 N1845 0.985 . S
H1850 N1844 0.984 . S
H1851 N1844 0.984 . S
H1852 N1840 0.984 . S
H1853 N1840 0.985 . S
C1854 C1855 1.363 . S
C1854 C1860 1.379 . S
C1854 N1862 1.356 . S
C1855 C1854 1.363 . S
C1855 C1861 1.363 . S
C1856 C1857 1.363 . S
C1856 C1861 1.379 . S
C1856 N1863 1.356 . S
C1857 C1856 1.363 . S
C1857 C1860 1.363 . S
N1858 C1860 1.356 . S
N1858 H1870 0.984 . S
N1858 H1871 0.985 . S
N1859 C1861 1.356 . S
N1859 H1864 0.984 . S
N1859 H1865 0.985 . S
C1860 C1854 1.379 . S
C1860 C1857 1.363 . S
C1860 N1858 1.356 . S
C1861 C1855 1.363 . S
C1861 C1856 1.379 . S
C1861 N1859 1.356 . S
N1862 C1854 1.356 . S
N1862 H1868 0.984 . S
N1862 H1869 0.984 . S
N1863 C1856 1.356 . S
N1863 H1866 0.984 . S
N1863 H1867 0.985 . S
H1864 N1859 0.984 . S
H1865 N1859 0.985 . S
H1866 N1863 0.984 . S
H1867 N1863 0.985 . S
H1868 N1862 0.984 . S
H1869 N1862 0.984 . S
H1870 N1858 0.984 . S
H1871 N1858 0.985 . S
C1872 C1873 1.363 . S
C1872 C1878 1.379 . S
C1872 N1880 1.356 . S
C1873 C1872 1.363 . S
C1873 C1879 1.363 . S
C1874 C1875 1.363 . S
C1874 C1879 1.379 . S
C1874 N1881 1.356 . S
C1875 C1874 1.363 . S
C1875 C1878 1.363 . S
N1876 C1878 1.356 . S
N1876 H1888 0.984 . S
N1876 H1889 0.985 . S
N1877 C1879 1.356 . S
N1877 H1882 0.984 . S
N1877 H1883 0.985 . S
C1878 C1872 1.379 . S
C1878 C1875 1.363 . S
C1878 N1876 1.356 . S
C1879 C1873 1.363 . S
C1879 C1874 1.379 . S
C1879 N1877 1.356 . S
N1880 C1872 1.356 . S
N1880 H1886 0.984 . S
N1880 H1887 0.984 . S
N1881 C1874 1.356 . S
N1881 H1884 0.984 . S
N1881 H1885 0.985 . S
H1882 N1877 0.984 . S
H1883 N1877 0.985 . S
H1884 N1881 0.984 . S
H1885 N1881 0.985 . S
H1886 N1880 0.984 . S
H1887 N1880 0.984 . S
H1888 N1876 0.984 . S
H1889 N1876 0.985 . S
C1890 C1891 1.363 . S
C1890 C1896 1.379 . S
C1890 N1898 1.356 . S
C1891 C1890 1.363 . S
C1891 C1897 1.363 . S
C1892 C1893 1.363 . S
C1892 C1897 1.379 . S
C1892 N1899 1.356 . S
C1893 C1892 1.363 . S
C1893 C1896 1.363 . S
N1894 C1896 1.356 . S
N1894 H1906 0.984 . S
N1894 H1907 0.985 . S
N1895 C1897 1.356 . S
N1895 H1900 0.984 . S
N1895 H1901 0.985 . S
C1896 C1890 1.379 . S
C1896 C1893 1.363 . S
C1896 N1894 1.356 . S
C1897 C1891 1.363 . S
C1897 C1892 1.379 . S
C1897 N1895 1.356 . S
N1898 C1890 1.356 . S
N1898 H1904 0.984 . S
N1898 H1905 0.984 . S
N1899 C1892 1.356 . S
N1899 H1902 0.984 . S
N1899 H1903 0.985 . S
H1900 N1895 0.984 . S
H1901 N1895 0.985 . S
H1902 N1899 0.984 . S
H1903 N1899 0.985 . S
H1904 N1898 0.984 . S
H1905 N1898 0.984 . S
H1906 N1894 0.984 . S
H1907 N1894 0.985 . S
C1908 C1909 1.363 . S
C1908 C1914 1.379 . S
C1908 N1916 1.356 . S
C1909 C1908 1.363 . S
C1909 C1915 1.363 . S
C1910 C1911 1.363 . S
C1910 C1915 1.379 . S
C1910 N1917 1.356 . S
C1911 C1910 1.363 . S
C1911 C1914 1.363 . S
N1912 C1914 1.356 . S
N1912 H1924 0.984 . S
N1912 H1925 0.985 . S
N1913 C1915 1.356 . S
N1913 H1918 0.984 . S
N1913 H1919 0.985 . S
C1914 C1908 1.379 . S
C1914 C1911 1.363 . S
C1914 N1912 1.356 . S
C1915 C1909 1.363 . S
C1915 C1910 1.379 . S
C1915 N1913 1.356 . S
N1916 C1908 1.356 . S
N1916 H1922 0.984 . S
N1916 H1923 0.984 . S
N1917 C1910 1.356 . S
N1917 H1920 0.984 . S
N1917 H1921 0.985 . S
H1918 N1913 0.984 . S
H1919 N1913 0.985 . S
H1920 N1917 0.984 . S
H1921 N1917 0.985 . S
H1922 N1916 0.984 . S
H1923 N1916 0.984 . S
H1924 N1912 0.984 . S
H1925 N1912 0.985 . S
C1926 C1927 1.363 . S
C1926 C1932 1.379 . S
C1926 N1934 1.356 . S
C1927 C1926 1.363 . S
C1927 C1933 1.363 . S
C1928 C1929 1.363 . S
C1928 C1933 1.379 . S
C1928 N1935 1.356 . S
C1929 C1928 1.363 . S
C1929 C1932 1.363 . S
N1930 C1932 1.356 . S
N1930 H1942 0.984 . S
N1930 H1943 0.985 . S
N1931 C1933 1.356 . S
N1931 H1936 0.984 . S
N1931 H1937 0.985 . S
C1932 C1926 1.379 . S
C1932 C1929 1.363 . S
C1932 N1930 1.356 . S
C1933 C1927 1.363 . S
C1933 C1928 1.379 . S
C1933 N1931 1.356 . S
N1934 C1926 1.356 . S
N1934 H1940 0.984 . S
N1934 H1941 0.984 . S
N1935 C1928 1.356 . S
N1935 H1938 0.984 . S
N1935 H1939 0.985 . S
H1936 N1931 0.984 . S
H1937 N1931 0.985 . S
H1938 N1935 0.984 . S
H1939 N1935 0.985 . S
H1940 N1934 0.984 . S
H1941 N1934 0.984 . S
H1942 N1930 0.984 . S
H1943 N1930 0.985 . S
C1944 C1945 1.363 . S
C1944 C1950 1.379 . S
C1944 N1952 1.356 . S
C1945 C1944 1.363 . S
C1945 C1951 1.363 . S
C1946 C1947 1.363 . S
C1946 C1951 1.379 . S
C1946 N1953 1.356 . S
C1947 C1946 1.363 . S
C1947 C1950 1.363 . S
N1948 C1950 1.356 . S
N1948 H1960 0.984 . S
N1948 H1961 0.985 . S
N1949 C1951 1.356 . S
N1949 H1954 0.984 . S
N1949 H1955 0.985 . S
C1950 C1944 1.379 . S
C1950 C1947 1.363 . S
C1950 N1948 1.356 . S
C1951 C1945 1.363 . S
C1951 C1946 1.379 . S
C1951 N1949 1.356 . S
N1952 C1944 1.356 . S
N1952 H1958 0.984 . S
N1952 H1959 0.984 . S
N1953 C1946 1.356 . S
N1953 H1956 0.984 . S
N1953 H1957 0.985 . S
H1954 N1949 0.984 . S
H1955 N1949 0.985 . S
H1956 N1953 0.984 . S
H1957 N1953 0.985 . S
H1958 N1952 0.984 . S
H1959 N1952 0.984 . S
H1960 N1948 0.984 . S
H1961 N1948 0.985 . S
C1962 C1963 1.363 . S
C1962 C1968 1.379 . S
C1962 N1970 1.356 . S
C1963 C1962 1.363 . S
C1963 C1969 1.363 . S
C1964 C1965 1.363 . S
C1964 C1969 1.379 . S
C1964 N1971 1.356 . S
C1965 C1964 1.363 . S
C1965 C1968 1.363 . S
N1966 C1968 1.356 . S
N1966 H1978 0.984 . S
N1966 H1979 0.985 . S
N1967 C1969 1.356 . S
N1967 H1972 0.984 . S
N1967 H1973 0.985 . S
C1968 C1962 1.379 . S
C1968 C1965 1.363 . S
C1968 N1966 1.356 . S
C1969 C1963 1.363 . S
C1969 C1964 1.379 . S
C1969 N1967 1.356 . S
N1970 C1962 1.356 . S
N1970 H1976 0.984 . S
N1970 H1977 0.984 . S
N1971 C1964 1.356 . S
N1971 H1974 0.984 . S
N1971 H1975 0.985 . S
H1972 N1967 0.984 . S
H1973 N1967 0.985 . S
H1974 N1971 0.984 . S
H1975 N1971 0.985 . S
H1976 N1970 0.984 . S
H1977 N1970 0.984 . S
H1978 N1966 0.984 . S
H1979 N1966 0.985 . S
C1980 C1981 1.363 . S
C1980 C1986 1.379 . S
C1980 N1988 1.356 . S
C1981 C1980 1.363 . S
C1981 C1987 1.363 . S
C1982 C1983 1.363 . S
C1982 C1987 1.379 . S
C1982 N1989 1.356 . S
C1983 C1982 1.363 . S
C1983 C1986 1.363 . S
N1984 C1986 1.356 . S
N1984 H1996 0.984 . S
N1984 H1997 0.985 . S
N1985 C1987 1.356 . S
N1985 H1990 0.984 . S
N1985 H1991 0.985 . S
C1986 C1980 1.379 . S
C1986 C1983 1.363 . S
C1986 N1984 1.356 . S
C1987 C1981 1.363 . S
C1987 C1982 1.379 . S
C1987 N1985 1.356 . S
N1988 C1980 1.356 . S
N1988 H1994 0.984 . S
N1988 H1995 0.984 . S
N1989 C1982 1.356 . S
N1989 H1992 0.984 . S
N1989 H1993 0.985 . S
H1990 N1985 0.984 . S
H1991 N1985 0.985 . S
H1992 N1989 0.984 . S
H1993 N1989 0.985 . S
H1994 N1988 0.984 . S
H1995 N1988 0.984 . S
H1996 N1984 0.984 . S
H1997 N1984 0.985 . S
C1998 C1999 1.363 . S
C1998 C2004 1.379 . S
C1998 N2006 1.356 . S
C1999 C1998 1.363 . S
C1999 C2005 1.363 . S
C2000 C2001 1.363 . S
C2000 C2005 1.379 . S
C2000 N2007 1.356 . S
C2001 C2000 1.363 . S
C2001 C2004 1.363 . S
N2002 C2004 1.356 . S
N2002 H2014 0.984 . S
N2002 H2015 0.985 . S
N2003 C2005 1.356 . S
N2003 H2008 0.984 . S
N2003 H2009 0.985 . S
C2004 C1998 1.379 . S
C2004 C2001 1.363 . S
C2004 N2002 1.356 . S
C2005 C1999 1.363 . S
C2005 C2000 1.379 . S
C2005 N2003 1.356 . S
N2006 C1998 1.356 . S
N2006 H2012 0.984 . S
N2006 H2013 0.984 . S
N2007 C2000 1.356 . S
N2007 H2010 0.984 . S
N2007 H2011 0.985 . S
H2008 N2003 0.984 . S
H2009 N2003 0.985 . S
H2010 N2007 0.984 . S
H2011 N2007 0.985 . S
H2012 N2006 0.984 . S
H2013 N2006 0.984 . S
H2014 N2002 0.984 . S
H2015 N2002 0.985 . S
C2016 C2017 1.363 . S
C2016 C2022 1.379 . S
C2016 N2024 1.356 . S
C2017 C2016 1.363 . S
C2017 C2023 1.363 . S
C2018 C2019 1.363 . S
C2018 C2023 1.379 . S
C2018 N2025 1.356 . S
C2019 C2018 1.363 . S
C2019 C2022 1.363 . S
N2020 C2022 1.356 . S
N2020 H2032 0.984 . S
N2020 H2033 0.985 . S
N2021 C2023 1.356 . S
N2021 H2026 0.984 . S
N2021 H2027 0.985 . S
C2022 C2016 1.379 . S
C2022 C2019 1.363 . S
C2022 N2020 1.356 . S
C2023 C2017 1.363 . S
C2023 C2018 1.379 . S
C2023 N2021 1.356 . S
N2024 C2016 1.356 . S
N2024 H2030 0.984 . S
N2024 H2031 0.984 . S
N2025 C2018 1.356 . S
N2025 H2028 0.984 . S
N2025 H2029 0.985 . S
H2026 N2021 0.984 . S
H2027 N2021 0.985 . S
H2028 N2025 0.984 . S
H2029 N2025 0.985 . S
H2030 N2024 0.984 . S
H2031 N2024 0.984 . S
H2032 N2020 0.984 . S
H2033 N2020 0.985 . S
C2034 C2035 1.363 . S
C2034 C2040 1.379 . S
C2034 N2042 1.356 . S
C2035 C2034 1.363 . S
C2035 C2041 1.363 . S
C2036 C2037 1.363 . S
C2036 C2041 1.379 . S
C2036 N2043 1.356 . S
C2037 C2036 1.363 . S
C2037 C2040 1.363 . S
N2038 C2040 1.356 . S
N2038 H2050 0.984 . S
N2038 H2051 0.985 . S
N2039 C2041 1.356 . S
N2039 H2044 0.984 . S
N2039 H2045 0.985 . S
C2040 C2034 1.379 . S
C2040 C2037 1.363 . S
C2040 N2038 1.356 . S
C2041 C2035 1.363 . S
C2041 C2036 1.379 . S
C2041 N2039 1.356 . S
N2042 C2034 1.356 . S
N2042 H2048 0.984 . S
N2042 H2049 0.984 . S
N2043 C2036 1.356 . S
N2043 H2046 0.984 . S
N2043 H2047 0.985 . S
H2044 N2039 0.984 . S
H2045 N2039 0.985 . S
H2046 N2043 0.984 . S
H2047 N2043 0.985 . S
H2048 N2042 0.984 . S
H2049 N2042 0.984 . S
H2050 N2038 0.984 . S
H2051 N2038 0.985 . S
C2052 C2053 1.363 . S
C2052 C2058 1.379 . S
C2052 N2060 1.356 . S
C2053 C2052 1.363 . S
C2053 C2059 1.363 . S
C2054 C2055 1.363 . S
C2054 C2059 1.379 . S
C2054 N2061 1.356 . S
C2055 C2054 1.363 . S
C2055 C2058 1.363 . S
N2056 C2058 1.356 . S
N2056 H2068 0.984 . S
N2056 H2069 0.985 . S
N2057 C2059 1.356 . S
N2057 H2062 0.984 . S
N2057 H2063 0.985 . S
C2058 C2052 1.379 . S
C2058 C2055 1.363 . S
C2058 N2056 1.356 . S
C2059 C2053 1.363 . S
C2059 C2054 1.379 . S
C2059 N2057 1.356 . S
N2060 C2052 1.356 . S
N2060 H2066 0.984 . S
N2060 H2067 0.984 . S
N2061 C2054 1.356 . S
N2061 H2064 0.984 . S
N2061 H2065 0.985 . S
H2062 N2057 0.984 . S
H2063 N2057 0.985 . S
H2064 N2061 0.984 . S
H2065 N2061 0.985 . S
H2066 N2060 0.984 . S
H2067 N2060 0.984 . S
H2068 N2056 0.984 . S
H2069 N2056 0.985 . S
C2070 C2071 1.363 . S
C2070 C2076 1.379 . S
C2070 N2078 1.356 . S
C2071 C2070 1.363 . S
C2071 C2077 1.363 . S
C2072 C2073 1.363 . S
C2072 C2077 1.379 . S
C2072 N2079 1.356 . S
C2073 C2072 1.363 . S
C2073 C2076 1.363 . S
N2074 C2076 1.356 . S
N2074 H2086 0.984 . S
N2074 H2087 0.985 . S
N2075 C2077 1.356 . S
N2075 H2080 0.984 . S
N2075 H2081 0.985 . S
C2076 C2070 1.379 . S
C2076 C2073 1.363 . S
C2076 N2074 1.356 . S
C2077 C2071 1.363 . S
C2077 C2072 1.379 . S
C2077 N2075 1.356 . S
N2078 C2070 1.356 . S
N2078 H2084 0.984 . S
N2078 H2085 0.984 . S
N2079 C2072 1.356 . S
N2079 H2082 0.984 . S
N2079 H2083 0.985 . S
H2080 N2075 0.984 . S
H2081 N2075 0.985 . S
H2082 N2079 0.984 . S
H2083 N2079 0.985 . S
H2084 N2078 0.984 . S
H2085 N2078 0.984 . S
H2086 N2074 0.984 . S
H2087 N2074 0.985 . S
C2088 C2089 1.363 . S
C2088 C2094 1.379 . S
C2088 N2096 1.356 . S
C2089 C2088 1.363 . S
C2089 C2095 1.363 . S
C2090 C2091 1.363 . S
C2090 C2095 1.379 . S
C2090 N2097 1.356 . S
C2091 C2090 1.363 . S
C2091 C2094 1.363 . S
N2092 C2094 1.356 . S
N2092 H2104 0.984 . S
N2092 H2105 0.985 . S
N2093 C2095 1.356 . S
N2093 H2098 0.984 . S
N2093 H2099 0.985 . S
C2094 C2088 1.379 . S
C2094 C2091 1.363 . S
C2094 N2092 1.356 . S
C2095 C2089 1.363 . S
C2095 C2090 1.379 . S
C2095 N2093 1.356 . S
N2096 C2088 1.356 . S
N2096 H2102 0.984 . S
N2096 H2103 0.984 . S
N2097 C2090 1.356 . S
N2097 H2100 0.984 . S
N2097 H2101 0.985 . S
H2098 N2093 0.984 . S
H2099 N2093 0.985 . S
H2100 N2097 0.984 . S
H2101 N2097 0.985 . S
H2102 N2096 0.984 . S
H2103 N2096 0.984 . S
H2104 N2092 0.984 . S
H2105 N2092 0.985 . S
C2106 C2107 1.363 . S
C2106 C2112 1.379 . S
C2106 N2114 1.356 . S
C2107 C2106 1.363 . S
C2107 C2113 1.363 . S
C2108 C2109 1.363 . S
C2108 C2113 1.379 . S
C2108 N2115 1.356 . S
C2109 C2108 1.363 . S
C2109 C2112 1.363 . S
N2110 C2112 1.356 . S
N2110 H2122 0.984 . S
N2110 H2123 0.985 . S
N2111 C2113 1.356 . S
N2111 H2116 0.984 . S
N2111 H2117 0.985 . S
C2112 C2106 1.379 . S
C2112 C2109 1.363 . S
C2112 N2110 1.356 . S
C2113 C2107 1.363 . S
C2113 C2108 1.379 . S
C2113 N2111 1.356 . S
N2114 C2106 1.356 . S
N2114 H2120 0.984 . S
N2114 H2121 0.984 . S
N2115 C2108 1.356 . S
N2115 H2118 0.984 . S
N2115 H2119 0.985 . S
H2116 N2111 0.984 . S
H2117 N2111 0.985 . S
H2118 N2115 0.984 . S
H2119 N2115 0.985 . S
H2120 N2114 0.984 . S
H2121 N2114 0.984 . S
H2122 N2110 0.984 . S
H2123 N2110 0.985 . S
C2124 C2125 1.363 . S
C2124 C2130 1.379 . S
C2124 N2132 1.356 . S
C2125 C2124 1.363 . S
C2125 C2131 1.363 . S
C2126 C2127 1.363 . S
C2126 C2131 1.379 . S
C2126 N2133 1.356 . S
C2127 C2126 1.363 . S
C2127 C2130 1.363 . S
N2128 C2130 1.356 . S
N2128 H2140 0.984 . S
N2128 H2141 0.985 . S
N2129 C2131 1.356 . S
N2129 H2134 0.984 . S
N2129 H2135 0.985 . S
C2130 C2124 1.379 . S
C2130 C2127 1.363 . S
C2130 N2128 1.356 . S
C2131 C2125 1.363 . S
C2131 C2126 1.379 . S
C2131 N2129 1.356 . S
N2132 C2124 1.356 . S
N2132 H2138 0.984 . S
N2132 H2139 0.984 . S
N2133 C2126 1.356 . S
N2133 H2136 0.984 . S
N2133 H2137 0.985 . S
H2134 N2129 0.984 . S
H2135 N2129 0.985 . S
H2136 N2133 0.984 . S
H2137 N2133 0.985 . S
H2138 N2132 0.984 . S
H2139 N2132 0.984 . S
H2140 N2128 0.984 . S
H2141 N2128 0.985 . S
C2142 C2143 1.363 . S
C2142 C2148 1.379 . S
C2142 N2150 1.356 . S
C2143 C2142 1.363 . S
C2143 C2149 1.363 . S
C2144 C2145 1.363 . S
C2144 C2149 1.379 . S
C2144 N2151 1.356 . S
C2145 C2144 1.363 . S
C2145 C2148 1.363 . S
N2146 C2148 1.356 . S
N2146 H2158 0.984 . S
N2146 H2159 0.985 . S
N2147 C2149 1.356 . S
N2147 H2152 0.984 . S
N2147 H2153 0.985 . S
C2148 C2142 1.379 . S
C2148 C2145 1.363 . S
C2148 N2146 1.356 . S
C2149 C2143 1.363 . S
C2149 C2144 1.379 . S
C2149 N2147 1.356 . S
N2150 C2142 1.356 . S
N2150 H2156 0.984 . S
N2150 H2157 0.984 . S
N2151 C2144 1.356 . S
N2151 H2154 0.984 . S
N2151 H2155 0.985 . S
H2152 N2147 0.984 . S
H2153 N2147 0.985 . S
H2154 N2151 0.984 . S
H2155 N2151 0.985 . S
H2156 N2150 0.984 . S
H2157 N2150 0.984 . S
H2158 N2146 0.984 . S
H2159 N2146 0.985 . S
C2160 C2161 1.363 . S
C2160 C2166 1.379 . S
C2160 N2168 1.356 . S
C2161 C2160 1.363 . S
C2161 C2167 1.363 . S
C2162 C2163 1.363 . S
C2162 C2167 1.379 . S
C2162 N2169 1.356 . S
C2163 C2162 1.363 . S
C2163 C2166 1.363 . S
N2164 C2166 1.356 . S
N2164 H2176 0.984 . S
N2164 H2177 0.985 . S
N2165 C2167 1.356 . S
N2165 H2170 0.984 . S
N2165 H2171 0.985 . S
C2166 C2160 1.379 . S
C2166 C2163 1.363 . S
C2166 N2164 1.356 . S
C2167 C2161 1.363 . S
C2167 C2162 1.379 . S
C2167 N2165 1.356 . S
N2168 C2160 1.356 . S
N2168 H2174 0.984 . S
N2168 H2175 0.984 . S
N2169 C2162 1.356 . S
N2169 H2172 0.984 . S
N2169 H2173 0.985 . S
H2170 N2165 0.984 . S
H2171 N2165 0.985 . S
H2172 N2169 0.984 . S
H2173 N2169 0.985 . S
H2174 N2168 0.984 . S
H2175 N2168 0.984 . S
H2176 N2164 0.984 . S
H2177 N2164 0.985 . S
C2178 C2179 1.363 . S
C2178 C2184 1.379 . S
C2178 N2186 1.356 . S
C2179 C2178 1.363 . S
C2179 C2185 1.363 . S
C2180 C2181 1.363 . S
C2180 C2185 1.379 . S
C2180 N2187 1.356 . S
C2181 C2180 1.363 . S
C2181 C2184 1.363 . S
N2182 C2184 1.356 . S
N2182 H2194 0.984 . S
N2182 H2195 0.985 . S
N2183 C2185 1.356 . S
N2183 H2188 0.984 . S
N2183 H2189 0.985 . S
C2184 C2178 1.379 . S
C2184 C2181 1.363 . S
C2184 N2182 1.356 . S
C2185 C2179 1.363 . S
C2185 C2180 1.379 . S
C2185 N2183 1.356 . S
N2186 C2178 1.356 . S
N2186 H2192 0.984 . S
N2186 H2193 0.984 . S
N2187 C2180 1.356 . S
N2187 H2190 0.984 . S
N2187 H2191 0.985 . S
H2188 N2183 0.984 . S
H2189 N2183 0.985 . S
H2190 N2187 0.984 . S
H2191 N2187 0.985 . S
H2192 N2186 0.984 . S
H2193 N2186 0.984 . S
H2194 N2182 0.984 . S
H2195 N2182 0.985 . S
C2196 C2197 1.363 . S
C2196 C2202 1.379 . S
C2196 N2204 1.356 . S
C2197 C2196 1.363 . S
C2197 C2203 1.363 . S
C2198 C2199 1.363 . S
C2198 C2203 1.379 . S
C2198 N2205 1.356 . S
C2199 C2198 1.363 . S
C2199 C2202 1.363 . S
N2200 C2202 1.356 . S
N2200 H2212 0.984 . S
N2200 H2213 0.985 . S
N2201 C2203 1.356 . S
N2201 H2206 0.984 . S
N2201 H2207 0.985 . S
C2202 C2196 1.379 . S
C2202 C2199 1.363 . S
C2202 N2200 1.356 . S
C2203 C2197 1.363 . S
C2203 C2198 1.379 . S
C2203 N2201 1.356 . S
N2204 C2196 1.356 . S
N2204 H2210 0.984 . S
N2204 H2211 0.984 . S
N2205 C2198 1.356 . S
N2205 H2208 0.984 . S
N2205 H2209 0.985 . S
H2206 N2201 0.984 . S
H2207 N2201 0.985 . S
H2208 N2205 0.984 . S
H2209 N2205 0.985 . S
H2210 N2204 0.984 . S
H2211 N2204 0.984 . S
H2212 N2200 0.984 . S
H2213 N2200 0.985 . S
C2214 C2215 1.363 . S
C2214 C2220 1.379 . S
C2214 N2222 1.356 . S
C2215 C2214 1.363 . S
C2215 C2221 1.363 1_545 S
C2216 C2217 1.363 . S
C2216 C2221 1.379 . S
C2216 N2223 1.356 . S
C2217 C2216 1.363 . S
C2217 C2220 1.363 1_565 S
N2218 C2220 1.356 . S
N2218 H2230 0.984 . S
N2218 H2231 0.985 . S
N2219 C2221 1.356 . S
N2219 H2224 0.984 . S
N2219 H2225 0.985 . S
C2220 C2214 1.379 . S
C2220 C2217 1.363 1_545 S
C2220 N2218 1.356 . S
C2221 C2215 1.363 1_565 S
C2221 C2216 1.379 . S
C2221 N2219 1.356 . S
N2222 C2214 1.356 . S
N2222 H2228 0.984 . S
N2222 H2229 0.984 . S
N2223 C2216 1.356 . S
N2223 H2226 0.984 . S
N2223 H2227 0.985 . S
H2224 N2219 0.984 . S
H2225 N2219 0.985 . S
H2226 N2223 0.984 . S
H2227 N2223 0.985 . S
H2228 N2222 0.984 . S
H2229 N2222 0.984 . S
H2230 N2218 0.984 . S
H2231 N2218 0.985 . S
C2232 C2233 1.363 . S
C2232 C2238 1.379 . S
C2232 N2240 1.356 . S
C2233 C2232 1.363 . S
C2233 C2239 1.363 1_455 S
C2234 C2235 1.363 . S
C2234 C2239 1.379 . S
C2234 N2241 1.356 . S
C2235 C2234 1.363 . S
C2235 C2238 1.363 1_655 S
N2236 C2238 1.356 . S
N2236 H2248 0.984 . S
N2236 H2249 0.977 1_455 S
N2237 C2239 1.356 . S
N2237 H2242 0.977 1_655 S
N2237 H2243 0.985 . S
C2238 C2232 1.379 . S
C2238 C2235 1.363 1_455 S
C2238 N2236 1.356 . S
C2239 C2233 1.363 1_655 S
C2239 C2234 1.379 . S
C2239 N2237 1.356 . S
N2240 C2232 1.356 . S
N2240 H2246 0.984 . S
N2240 H2247 0.984 . S
N2241 C2234 1.356 . S
N2241 H2244 0.984 . S
N2241 H2245 0.985 . S
H2242 N2237 0.977 1_455 S
H2243 N2237 0.985 . S
H2244 N2241 0.984 . S
H2245 N2241 0.985 . S
H2246 N2240 0.984 . S
H2247 N2240 0.984 . S
H2248 N2236 0.984 . S
H2249 N2236 0.977 1_655 S
C2250 C2251 1.363 . S
C2250 C2256 1.379 . S
C2250 N2258 1.356 . S
C2251 C2250 1.363 . S
C2251 C2257 1.363 . S
C2252 C2253 1.363 . S
C2252 C2257 1.379 . S
C2252 N2259 1.356 . S
C2253 C2252 1.363 . S
C2253 C2256 1.363 . S
N2254 C2256 1.356 . S
N2254 H2266 0.984 . S
N2254 H2267 0.985 . S
N2255 C2257 1.356 . S
N2255 H2260 0.984 . S
N2255 H2261 0.985 . S
C2256 C2250 1.379 . S
C2256 C2253 1.363 . S
C2256 N2254 1.356 . S
C2257 C2251 1.363 . S
C2257 C2252 1.379 . S
C2257 N2255 1.356 . S
N2258 C2250 1.356 . S
N2258 H2264 0.984 . S
N2258 H2265 0.984 . S
N2259 C2252 1.356 . S
N2259 H2262 0.984 . S
N2259 H2263 0.985 . S
H2260 N2255 0.984 . S
H2261 N2255 0.985 . S
H2262 N2259 0.984 . S
H2263 N2259 0.985 . S
H2264 N2258 0.984 . S
H2265 N2258 0.984 . S
H2266 N2254 0.984 . S
H2267 N2254 0.985 . S
C2268 C2269 1.363 . S
C2268 C2274 1.379 . S
C2268 N2276 1.356 . S
C2269 C2268 1.363 . S
C2269 C2275 1.363 1_545 S
C2270 C2271 1.363 . S
C2270 C2275 1.379 . S
C2270 N2277 1.356 . S
C2271 C2270 1.363 . S
C2271 C2274 1.363 1_565 S
N2272 C2274 1.356 . S
N2272 H2284 0.984 . S
N2272 H2285 0.985 . S
N2273 C2275 1.356 . S
N2273 H2278 0.984 . S
N2273 H2279 0.985 . S
C2274 C2268 1.379 . S
C2274 C2271 1.363 1_545 S
C2274 N2272 1.356 . S
C2275 C2269 1.363 1_565 S
C2275 C2270 1.379 . S
C2275 N2273 1.356 . S
N2276 C2268 1.356 . S
N2276 H2282 0.984 . S
N2276 H2283 0.984 . S
N2277 C2270 1.356 . S
N2277 H2280 0.984 . S
N2277 H2281 0.985 . S
H2278 N2273 0.984 . S
H2279 N2273 0.985 . S
H2280 N2277 0.984 . S
H2281 N2277 0.985 . S
H2282 N2276 0.984 . S
H2283 N2276 0.984 . S
H2284 N2272 0.984 . S
H2285 N2272 0.985 . S
C2286 C2287 1.363 . S
C2286 C2292 1.379 1_455 S
C2286 N2294 1.356 . S
C2287 C2286 1.363 . S
C2287 C2293 1.363 . S
C2288 C2289 1.363 . S
C2288 C2293 1.379 1_655 S
C2288 N2295 1.356 . S
C2289 C2288 1.363 . S
C2289 C2292 1.363 . S
N2290 C2292 1.356 . S
N2290 H2302 0.984 . S
N2290 H2303 0.985 . S
N2291 C2293 1.356 . S
N2291 H2296 0.984 . S
N2291 H2297 0.985 . S
C2292 C2286 1.379 1_655 S
C2292 C2289 1.363 . S
C2292 N2290 1.356 . S
C2293 C2287 1.363 . S
C2293 C2288 1.379 1_455 S
C2293 N2291 1.356 . S
N2294 C2286 1.356 . S
N2294 H2300 0.984 . S
N2294 H2301 0.984 . S
N2295 C2288 1.356 . S
N2295 H2298 0.984 . S
N2295 H2299 0.985 . S
H2296 N2291 0.984 . S
H2297 N2291 0.985 . S
H2298 N2295 0.984 . S
H2299 N2295 0.985 . S
H2300 N2294 0.984 . S
H2301 N2294 0.984 . S
H2302 N2290 0.984 . S
H2303 N2290 0.985 . S
C2304 C2305 1.363 . S
C2304 C2310 1.379 . S
C2304 N2312 1.356 . S
C2305 C2304 1.363 . S
C2305 C2311 1.363 . S
C2306 C2307 1.363 . S
C2306 C2311 1.379 . S
C2306 N2313 1.356 . S
C2307 C2306 1.363 . S
C2307 C2310 1.363 . S
N2308 C2310 1.356 . S
N2308 H2320 0.984 . S
N2308 H2321 0.985 . S
N2309 C2311 1.356 . S
N2309 H2314 0.984 . S
N2309 H2315 0.985 . S
C2310 C2304 1.379 . S
C2310 C2307 1.363 . S
C2310 N2308 1.356 . S
C2311 C2305 1.363 . S
C2311 C2306 1.379 . S
C2311 N2309 1.356 . S
N2312 C2304 1.356 . S
N2312 H2318 0.984 . S
N2312 H2319 0.984 . S
N2313 C2306 1.356 . S
N2313 H2316 0.984 . S
N2313 H2317 0.985 . S
H2314 N2309 0.984 . S
H2315 N2309 0.985 . S
H2316 N2313 0.984 . S
H2317 N2313 0.985 . S
H2318 N2312 0.984 . S
H2319 N2312 0.984 . S
H2320 N2308 0.984 . S
H2321 N2308 0.985 . S
C2322 C2323 1.363 . S
C2322 C2328 1.379 . S
C2322 N2330 1.356 . S
C2323 C2322 1.363 . S
C2323 C2329 1.363 . S
C2324 C2325 1.363 . S
C2324 C2329 1.379 . S
C2324 N2331 1.356 . S
C2325 C2324 1.363 . S
C2325 C2328 1.363 . S
N2326 C2328 1.356 . S
N2326 H2338 0.984 . S
N2326 H2339 0.985 . S
N2327 C2329 1.356 . S
N2327 H2332 0.984 . S
N2327 H2333 0.985 . S
C2328 C2322 1.379 . S
C2328 C2325 1.363 . S
C2328 N2326 1.356 . S
C2329 C2323 1.363 . S
C2329 C2324 1.379 . S
C2329 N2327 1.356 . S
N2330 C2322 1.356 . S
N2330 H2336 0.984 . S
N2330 H2337 0.984 . S
N2331 C2324 1.356 . S
N2331 H2334 0.984 . S
N2331 H2335 0.985 . S
H2332 N2327 0.984 . S
H2333 N2327 0.985 . S
H2334 N2331 0.984 . S
H2335 N2331 0.985 . S
H2336 N2330 0.984 . S
H2337 N2330 0.984 . S
H2338 N2326 0.984 . S
H2339 N2326 0.985 . S
C2340 C2341 1.363 . S
C2340 C2346 1.379 . S
C2340 N2348 1.356 . S
C2341 C2340 1.363 . S
C2341 C2347 1.363 . S
C2342 C2343 1.363 . S
C2342 C2347 1.379 . S
C2342 N2349 1.356 . S
C2343 C2342 1.363 . S
C2343 C2346 1.363 . S
N2344 C2346 1.356 . S
N2344 H2356 0.984 . S
N2344 H2357 0.985 . S
N2345 C2347 1.356 . S
N2345 H2350 0.984 . S
N2345 H2351 0.985 . S
C2346 C2340 1.379 . S
C2346 C2343 1.363 . S
C2346 N2344 1.356 . S
C2347 C2341 1.363 . S
C2347 C2342 1.379 . S
C2347 N2345 1.356 . S
N2348 C2340 1.356 . S
N2348 H2354 0.984 . S
N2348 H2355 0.984 . S
N2349 C2342 1.356 . S
N2349 H2352 0.984 . S
N2349 H2353 0.985 . S
H2350 N2345 0.984 . S
H2351 N2345 0.985 . S
H2352 N2349 0.984 . S
H2353 N2349 0.985 . S
H2354 N2348 0.984 . S
H2355 N2348 0.984 . S
H2356 N2344 0.984 . S
H2357 N2344 0.985 . S
C2358 C2359 1.363 . S
C2358 C2364 1.379 . S
C2358 N2366 1.356 . S
C2359 C2358 1.363 . S
C2359 C2365 1.363 . S
C2360 C2361 1.363 . S
C2360 C2365 1.379 . S
C2360 N2367 1.356 . S
C2361 C2360 1.363 . S
C2361 C2364 1.363 . S
N2362 C2364 1.356 . S
N2362 H2374 0.984 . S
N2362 H2375 0.985 1_554 S
N2363 C2365 1.356 . S
N2363 H2368 0.984 . S
N2363 H2369 0.985 . S
C2364 C2358 1.379 . S
C2364 C2361 1.363 . S
C2364 N2362 1.356 . S
C2365 C2359 1.363 . S
C2365 C2360 1.379 . S
C2365 N2363 1.356 . S
N2366 C2358 1.356 . S
N2366 H2372 0.984 . S
N2366 H2373 0.984 . S
N2367 C2360 1.356 . S
N2367 H2370 0.984 . S
N2367 H2371 0.985 . S
H2368 N2363 0.984 . S
H2369 N2363 0.985 . S
H2370 N2367 0.984 . S
H2371 N2367 0.985 . S
H2372 N2366 0.984 . S
H2373 N2366 0.984 . S
H2374 N2362 0.984 . S
H2375 N2362 0.985 1_556 S
C2376 C2377 1.363 . S
C2376 C2382 1.379 . S
C2376 N2384 1.356 . S
C2377 C2376 1.363 . S
C2377 C2383 1.363 . S
C2378 C2379 1.363 . S
C2378 C2383 1.379 . S
C2378 N2385 1.356 . S
C2379 C2378 1.363 . S
C2379 C2382 1.363 . S
N2380 C2382 1.356 . S
N2380 H2392 0.984 . S
N2380 H2393 0.985 1_554 S
N2381 C2383 1.356 . S
N2381 H2386 0.984 . S
N2381 H2387 0.985 . S
C2382 C2376 1.379 . S
C2382 C2379 1.363 . S
C2382 N2380 1.356 . S
C2383 C2377 1.363 . S
C2383 C2378 1.379 . S
C2383 N2381 1.356 . S
N2384 C2376 1.356 . S
N2384 H2390 0.984 . S
N2384 H2391 0.984 . S
N2385 C2378 1.356 . S
N2385 H2388 0.984 . S
N2385 H2389 0.985 . S
H2386 N2381 0.984 . S
H2387 N2381 0.985 . S
H2388 N2385 0.984 . S
H2389 N2385 0.985 . S
H2390 N2384 0.984 . S
H2391 N2384 0.984 . S
H2392 N2380 0.984 . S
H2393 N2380 0.985 1_556 S
C2394 C2395 1.363 . S
C2394 C2400 1.379 . S
C2394 N2402 1.356 . S
C2395 C2394 1.363 . S
C2395 C2401 1.363 . S
C2396 C2397 1.363 . S
C2396 C2401 1.379 . S
C2396 N2403 1.356 . S
C2397 C2396 1.363 . S
C2397 C2400 1.363 . S
N2398 C2400 1.356 . S
N2398 H2410 0.984 . S
N2398 H2411 0.985 . S
N2399 C2401 1.356 . S
N2399 H2404 0.984 1_554 S
N2399 H2405 0.985 . S
C2400 C2394 1.379 . S
C2400 C2397 1.363 . S
C2400 N2398 1.356 . S
C2401 C2395 1.363 . S
C2401 C2396 1.379 . S
C2401 N2399 1.356 . S
N2402 C2394 1.356 . S
N2402 H2408 0.984 . S
N2402 H2409 0.984 . S
N2403 C2396 1.356 . S
N2403 H2406 0.984 . S
N2403 H2407 0.985 . S
H2404 N2399 0.984 1_556 S
H2405 N2399 0.985 . S
H2406 N2403 0.984 . S
H2407 N2403 0.985 . S
H2408 N2402 0.984 . S
H2409 N2402 0.984 . S
H2410 N2398 0.984 . S
H2411 N2398 0.985 . S
C2412 C2413 1.363 . S
C2412 C2418 1.379 . S
C2412 N2420 1.356 . S
C2413 C2412 1.363 . S
C2413 C2419 1.363 . S
C2414 C2415 1.363 . S
C2414 C2419 1.379 . S
C2414 N2421 1.356 . S
C2415 C2414 1.363 . S
C2415 C2418 1.363 . S
N2416 C2418 1.356 . S
N2416 H2428 0.984 . S
N2416 H2429 0.985 . S
N2417 C2419 1.356 . S
N2417 H2422 0.984 1_556 S
N2417 H2423 0.985 . S
C2418 C2412 1.379 . S
C2418 C2415 1.363 . S
C2418 N2416 1.356 . S
C2419 C2413 1.363 . S
C2419 C2414 1.379 . S
C2419 N2417 1.356 . S
N2420 C2412 1.356 . S
N2420 H2426 0.984 . S
N2420 H2427 0.984 . S
N2421 C2414 1.356 . S
N2421 H2424 0.984 . S
N2421 H2425 0.985 . S
H2422 N2417 0.984 1_554 S
H2423 N2417 0.985 . S
H2424 N2421 0.984 . S
H2425 N2421 0.985 . S
H2426 N2420 0.984 . S
H2427 N2420 0.984 . S
H2428 N2416 0.984 . S
H2429 N2416 0.985 . S
C2430 C2431 1.363 . S
C2430 C2436 1.379 . S
C2430 N2438 1.356 . S
C2431 C2430 1.363 . S
C2431 C2437 1.363 . S
C2432 C2433 1.363 . S
C2432 C2437 1.379 . S
C2432 N2439 1.356 . S
C2433 C2432 1.363 . S
C2433 C2436 1.363 . S
N2434 C2436 1.356 . S
N2434 H2446 0.984 . S
N2434 H2447 0.985 . S
N2435 C2437 1.356 . S
N2435 H2440 0.984 1_556 S
N2435 H2441 0.985 . S
C2436 C2430 1.379 . S
C2436 C2433 1.363 . S
C2436 N2434 1.356 . S
C2437 C2431 1.363 . S
C2437 C2432 1.379 . S
C2437 N2435 1.356 . S
N2438 C2430 1.356 . S
N2438 H2444 0.984 . S
N2438 H2445 0.984 . S
N2439 C2432 1.356 . S
N2439 H2442 0.984 . S
N2439 H2443 0.985 . S
H2440 N2435 0.984 1_554 S
H2441 N2435 0.985 . S
H2442 N2439 0.984 . S
H2443 N2439 0.985 . S
H2444 N2438 0.984 . S
H2445 N2438 0.984 . S
H2446 N2434 0.984 . S
H2447 N2434 0.985 . S
C2448 C2449 1.363 . S
C2448 C2454 1.379 . S
C2448 N2456 1.356 . S
C2449 C2448 1.363 . S
C2449 C2455 1.363 . S
C2450 C2451 1.363 . S
C2450 C2455 1.379 . S
C2450 N2457 1.356 . S
C2451 C2450 1.363 . S
C2451 C2454 1.363 . S
N2452 C2454 1.356 . S
N2452 H2464 0.984 . S
N2452 H2465 0.985 . S
N2453 C2455 1.356 . S
N2453 H2458 0.984 . S
N2453 H2459 0.985 . S
C2454 C2448 1.379 . S
C2454 C2451 1.363 . S
C2454 N2452 1.356 . S
C2455 C2449 1.363 . S
C2455 C2450 1.379 . S
C2455 N2453 1.356 . S
N2456 C2448 1.356 . S
N2456 H2462 0.984 . S
N2456 H2463 0.984 . S
N2457 C2450 1.356 . S
N2457 H2460 0.984 1_556 S
N2457 H2461 0.985 . S
H2458 N2453 0.984 . S
H2459 N2453 0.985 . S
H2460 N2457 0.984 1_554 S
H2461 N2457 0.985 . S
H2462 N2456 0.984 . S
H2463 N2456 0.984 . S
H2464 N2452 0.984 . S
H2465 N2452 0.985 . S
C2466 C2467 1.363 . S
C2466 C2472 1.379 . S
C2466 N2474 1.356 . S
C2467 C2466 1.363 . S
C2467 C2473 1.363 . S
C2468 C2469 1.363 . S
C2468 C2473 1.379 . S
C2468 N2475 1.356 . S
C2469 C2468 1.363 . S
C2469 C2472 1.363 . S
N2470 C2472 1.356 . S
N2470 H2482 0.984 . S
N2470 H2483 0.985 . S
N2471 C2473 1.356 . S
N2471 H2476 0.984 . S
N2471 H2477 0.985 . S
C2472 C2466 1.379 . S
C2472 C2469 1.363 . S
C2472 N2470 1.356 . S
C2473 C2467 1.363 . S
C2473 C2468 1.379 . S
C2473 N2471 1.356 . S
N2474 C2466 1.356 . S
N2474 H2480 0.984 . S
N2474 H2481 0.984 . S
N2475 C2468 1.356 . S
N2475 H2478 0.984 . S
N2475 H2479 0.985 . S
H2476 N2471 0.984 . S
H2477 N2471 0.985 . S
H2478 N2475 0.984 . S
H2479 N2475 0.985 . S
H2480 N2474 0.984 . S
H2481 N2474 0.984 . S
H2482 N2470 0.984 . S
H2483 N2470 0.985 . S
C2484 C2485 1.363 . S
C2484 C2490 1.379 . S
C2484 N2492 1.356 . S
C2485 C2484 1.363 . S
C2485 C2491 1.363 . S
C2486 C2487 1.363 . S
C2486 C2491 1.379 . S
C2486 N2493 1.356 . S
C2487 C2486 1.363 . S
C2487 C2490 1.363 . S
N2488 C2490 1.356 . S
N2488 H2500 0.984 . S
N2488 H2501 0.985 . S
N2489 C2491 1.356 . S
N2489 H2494 0.984 . S
N2489 H2495 0.985 . S
C2490 C2484 1.379 . S
C2490 C2487 1.363 . S
C2490 N2488 1.356 . S
C2491 C2485 1.363 . S
C2491 C2486 1.379 . S
C2491 N2489 1.356 . S
N2492 C2484 1.356 . S
N2492 H2498 0.984 . S
N2492 H2499 0.984 . S
N2493 C2486 1.356 . S
N2493 H2496 0.984 . S
N2493 H2497 0.985 . S
H2494 N2489 0.984 . S
H2495 N2489 0.985 . S
H2496 N2493 0.984 . S
H2497 N2493 0.985 . S
H2498 N2492 0.984 . S
H2499 N2492 0.984 . S
H2500 N2488 0.984 . S
H2501 N2488 0.985 . S
C2502 C2503 1.363 . S
C2502 C2508 1.379 . S
C2502 N2510 1.356 . S
C2503 C2502 1.363 . S
C2503 C2509 1.363 . S
C2504 C2505 1.363 . S
C2504 C2509 1.379 . S
C2504 N2511 1.356 . S
C2505 C2504 1.363 . S
C2505 C2508 1.363 . S
N2506 C2508 1.356 . S
N2506 H2518 0.984 . S
N2506 H2519 0.985 . S
N2507 C2509 1.356 . S
N2507 H2512 0.984 . S
N2507 H2513 0.985 . S
C2508 C2502 1.379 . S
C2508 C2505 1.363 . S
C2508 N2506 1.356 . S
C2509 C2503 1.363 . S
C2509 C2504 1.379 . S
C2509 N2507 1.356 . S
N2510 C2502 1.356 . S
N2510 H2516 0.984 . S
N2510 H2517 0.984 . S
N2511 C2504 1.356 . S
N2511 H2514 0.984 . S
N2511 H2515 0.985 . S
H2512 N2507 0.984 . S
H2513 N2507 0.985 . S
H2514 N2511 0.984 . S
H2515 N2511 0.985 . S
H2516 N2510 0.984 . S
H2517 N2510 0.984 . S
H2518 N2506 0.984 . S
H2519 N2506 0.985 . S
C2520 C2521 1.363 . S
C2520 C2526 1.379 . S
C2520 N2528 1.356 . S
C2521 C2520 1.363 . S
C2521 C2527 1.363 . S
C2522 C2523 1.363 . S
C2522 C2527 1.379 . S
C2522 N2529 1.356 . S
C2523 C2522 1.363 . S
C2523 C2526 1.363 . S
N2524 C2526 1.356 . S
N2524 H2536 0.984 . S
N2524 H2537 0.985 . S
N2525 C2527 1.356 . S
N2525 H2530 0.984 . S
N2525 H2531 0.985 . S
C2526 C2520 1.379 . S
C2526 C2523 1.363 . S
C2526 N2524 1.356 . S
C2527 C2521 1.363 . S
C2527 C2522 1.379 . S
C2527 N2525 1.356 . S
N2528 C2520 1.356 . S
N2528 H2534 0.984 . S
N2528 H2535 0.984 . S
N2529 C2522 1.356 . S
N2529 H2532 0.984 . S
N2529 H2533 0.985 . S
H2530 N2525 0.984 . S
H2531 N2525 0.985 . S
H2532 N2529 0.984 . S
H2533 N2529 0.985 . S
H2534 N2528 0.984 . S
H2535 N2528 0.984 . S
H2536 N2524 0.984 . S
H2537 N2524 0.985 . S
C2538 C2539 1.363 . S
C2538 C2544 1.379 . S
C2538 N2546 1.356 . S
C2539 C2538 1.363 . S
C2539 C2545 1.363 . S
C2540 C2541 1.363 . S
C2540 C2545 1.379 . S
C2540 N2547 1.356 . S
C2541 C2540 1.363 . S
C2541 C2544 1.363 . S
N2542 C2544 1.356 . S
N2542 H2554 0.984 . S
N2542 H2555 0.985 . S
N2543 C2545 1.356 . S
N2543 H2548 0.984 . S
N2543 H2549 0.985 . S
C2544 C2538 1.379 . S
C2544 C2541 1.363 . S
C2544 N2542 1.356 . S
C2545 C2539 1.363 . S
C2545 C2540 1.379 . S
C2545 N2543 1.356 . S
N2546 C2538 1.356 . S
N2546 H2552 0.984 . S
N2546 H2553 0.983 1_556 S
N2547 C2540 1.356 . S
N2547 H2550 0.984 . S
N2547 H2551 0.985 . S
H2548 N2543 0.984 . S
H2549 N2543 0.985 . S
H2550 N2547 0.984 . S
H2551 N2547 0.985 . S
H2552 N2546 0.984 . S
H2553 N2546 0.983 1_554 S
H2554 N2542 0.984 . S
H2555 N2542 0.985 . S
C2556 C2557 1.363 . S
C2556 C2562 1.379 . S
C2556 N2564 1.356 . S
C2557 C2556 1.363 . S
C2557 C2563 1.363 . S
C2558 C2559 1.363 . S
C2558 C2563 1.379 . S
C2558 N2565 1.356 . S
C2559 C2558 1.363 . S
C2559 C2562 1.363 . S
N2560 C2562 1.356 . S
N2560 H2572 0.984 . S
N2560 H2573 0.985 . S
N2561 C2563 1.356 . S
N2561 H2566 0.984 . S
N2561 H2567 0.985 . S
C2562 C2556 1.379 . S
C2562 C2559 1.363 . S
C2562 N2560 1.356 . S
C2563 C2557 1.363 . S
C2563 C2558 1.379 . S
C2563 N2561 1.356 . S
N2564 C2556 1.356 . S
N2564 H2570 0.984 . S
N2564 H2571 0.984 . S
N2565 C2558 1.356 . S
N2565 H2568 0.984 . S
N2565 H2569 0.985 . S
H2566 N2561 0.984 . S
H2567 N2561 0.985 . S
H2568 N2565 0.984 . S
H2569 N2565 0.985 . S
H2570 N2564 0.984 . S
H2571 N2564 0.984 . S
H2572 N2560 0.984 . S
H2573 N2560 0.985 . S
C2574 C2575 1.363 . S
C2574 C2580 1.379 . S
C2574 N2582 1.356 . S
C2575 C2574 1.363 . S
C2575 C2581 1.363 . S
C2576 C2577 1.363 . S
C2576 C2581 1.379 . S
C2576 N2583 1.356 . S
C2577 C2576 1.363 . S
C2577 C2580 1.363 . S
N2578 C2580 1.356 . S
N2578 H2590 0.984 . S
N2578 H2591 0.985 . S
N2579 C2581 1.356 . S
N2579 H2584 0.984 . S
N2579 H2585 0.985 . S
C2580 C2574 1.379 . S
C2580 C2577 1.363 . S
C2580 N2578 1.356 . S
C2581 C2575 1.363 . S
C2581 C2576 1.379 . S
C2581 N2579 1.356 . S
N2582 C2574 1.356 . S
N2582 H2588 0.984 . S
N2582 H2589 0.984 . S
N2583 C2576 1.356 . S
N2583 H2586 0.984 . S
N2583 H2587 0.985 . S
H2584 N2579 0.984 . S
H2585 N2579 0.985 . S
H2586 N2583 0.984 . S
H2587 N2583 0.985 . S
H2588 N2582 0.984 . S
H2589 N2582 0.984 . S
H2590 N2578 0.984 . S
H2591 N2578 0.985 . S
C2592 C2593 1.363 . S
C2592 C2598 1.379 . S
C2592 N2600 1.356 . S
C2593 C2592 1.363 . S
C2593 C2599 1.363 . S
C2594 C2595 1.363 . S
C2594 C2599 1.379 . S
C2594 N2601 1.356 . S
C2595 C2594 1.363 . S
C2595 C2598 1.363 . S
N2596 C2598 1.356 . S
N2596 H2608 0.984 . S
N2596 H2609 0.985 . S
N2597 C2599 1.356 . S
N2597 H2602 0.984 . S
N2597 H2603 0.985 . S
C2598 C2592 1.379 . S
C2598 C2595 1.363 . S
C2598 N2596 1.356 . S
C2599 C2593 1.363 . S
C2599 C2594 1.379 . S
C2599 N2597 1.356 . S
N2600 C2592 1.356 . S
N2600 H2606 0.984 . S
N2600 H2607 0.984 . S
N2601 C2594 1.356 . S
N2601 H2604 0.984 . S
N2601 H2605 0.985 . S
H2602 N2597 0.984 . S
H2603 N2597 0.985 . S
H2604 N2601 0.984 . S
H2605 N2601 0.985 . S
H2606 N2600 0.984 . S
H2607 N2600 0.984 . S
H2608 N2596 0.984 . S
H2609 N2596 0.985 . S
C2610 C2611 1.363 . S
C2610 C2616 1.379 . S
C2610 N2618 1.356 . S
C2611 C2610 1.363 . S
C2611 C2617 1.363 . S
C2612 C2613 1.363 . S
C2612 C2617 1.379 . S
C2612 N2619 1.356 . S
C2613 C2612 1.363 . S
C2613 C2616 1.363 . S
N2614 C2616 1.356 . S
N2614 H2626 0.984 . S
N2614 H2627 0.985 . S
N2615 C2617 1.356 . S
N2615 H2620 0.984 . S
N2615 H2621 0.985 . S
C2616 C2610 1.379 . S
C2616 C2613 1.363 . S
C2616 N2614 1.356 . S
C2617 C2611 1.363 . S
C2617 C2612 1.379 . S
C2617 N2615 1.356 . S
N2618 C2610 1.356 . S
N2618 H2624 0.984 . S
N2618 H2625 0.984 . S
N2619 C2612 1.356 . S
N2619 H2622 0.984 . S
N2619 H2623 0.985 . S
H2620 N2615 0.984 . S
H2621 N2615 0.985 . S
H2622 N2619 0.984 . S
H2623 N2619 0.985 . S
H2624 N2618 0.984 . S
H2625 N2618 0.984 . S
H2626 N2614 0.984 . S
H2627 N2614 0.985 . S
C2628 C2629 1.363 . S
C2628 C2634 1.379 . S
C2628 N2636 1.356 . S
C2629 C2628 1.363 . S
C2629 C2635 1.363 . S
C2630 C2631 1.363 . S
C2630 C2635 1.379 . S
C2630 N2637 1.356 . S
C2631 C2630 1.363 . S
C2631 C2634 1.363 . S
N2632 C2634 1.356 . S
N2632 H2644 0.984 . S
N2632 H2645 0.985 . S
N2633 C2635 1.356 . S
N2633 H2638 0.985 . S
N2633 H2639 0.985 . S
C2634 C2628 1.379 . S
C2634 C2631 1.363 . S
C2634 N2632 1.356 . S
C2635 C2629 1.363 . S
C2635 C2630 1.379 . S
C2635 N2633 1.356 . S
N2636 C2628 1.356 . S
N2636 H2642 0.984 . S
N2636 H2643 0.984 . S
N2637 C2630 1.356 . S
N2637 H2640 0.984 . S
N2637 H2641 0.985 . S
H2638 N2633 0.985 . S
H2639 N2633 0.985 . S
H2640 N2637 0.984 . S
H2641 N2637 0.985 . S
H2642 N2636 0.984 . S
H2643 N2636 0.984 . S
H2644 N2632 0.984 . S
H2645 N2632 0.985 . S
C2646 C2647 1.363 . S
C2646 C2652 1.379 . S
C2646 N2654 1.356 . S
C2647 C2646 1.363 . S
C2647 C2653 1.363 . S
C2648 C2649 1.363 . S
C2648 C2653 1.379 . S
C2648 N2655 1.356 . S
C2649 C2648 1.363 . S
C2649 C2652 1.363 . S
N2650 C2652 1.356 . S
N2650 H2662 0.984 . S
N2650 H2663 0.985 . S
N2651 C2653 1.356 . S
N2651 H2656 0.984 . S
N2651 H2657 0.985 . S
C2652 C2646 1.379 . S
C2652 C2649 1.363 . S
C2652 N2650 1.356 . S
C2653 C2647 1.363 . S
C2653 C2648 1.379 . S
C2653 N2651 1.356 . S
N2654 C2646 1.356 . S
N2654 H2660 0.984 . S
N2654 H2661 0.984 . S
N2655 C2648 1.356 . S
N2655 H2658 0.984 1_554 S
N2655 H2659 0.985 1_554 S
H2656 N2651 0.984 . S
H2657 N2651 0.985 . S
H2658 N2655 0.984 1_556 S
H2659 N2655 0.985 1_556 S
H2660 N2654 0.984 . S
H2661 N2654 0.984 . S
H2662 N2650 0.984 . S
H2663 N2650 0.985 . S
C2664 C2665 1.363 . S
C2664 C2670 1.379 . S
C2664 N2672 1.356 . S
C2665 C2664 1.363 . S
C2665 C2671 1.363 . S
C2666 C2667 1.363 . S
C2666 C2671 1.379 . S
C2666 N2673 1.356 . S
C2667 C2666 1.363 . S
C2667 C2670 1.363 . S
N2668 C2670 1.356 . S
N2668 H2680 0.984 . S
N2668 H2681 0.985 . S
N2669 C2671 1.356 . S
N2669 H2674 0.984 1_554 S
N2669 H2675 0.985 1_554 S
C2670 C2664 1.379 . S
C2670 C2667 1.363 . S
C2670 N2668 1.356 . S
C2671 C2665 1.363 . S
C2671 C2666 1.379 . S
C2671 N2669 1.356 . S
N2672 C2664 1.356 . S
N2672 H2678 0.984 . S
N2672 H2679 0.984 . S
N2673 C2666 1.356 . S
N2673 H2676 0.984 . S
N2673 H2677 0.985 . S
H2674 N2669 0.984 1_556 S
H2675 N2669 0.985 1_556 S
H2676 N2673 0.984 . S
H2677 N2673 0.985 . S
H2678 N2672 0.984 . S
H2679 N2672 0.984 . S
H2680 N2668 0.984 . S
H2681 N2668 0.985 . S
C2682 C2683 1.363 . S
C2682 C2688 1.379 . S
C2682 N2690 1.356 . S
C2683 C2682 1.363 . S
C2683 C2689 1.363 . S
C2684 C2685 1.363 . S
C2684 C2689 1.379 . S
C2684 N2691 1.356 . S
C2685 C2684 1.363 . S
C2685 C2688 1.363 . S
N2686 C2688 1.356 . S
N2686 H2698 0.984 . S
N2686 H2699 0.985 . S
N2687 C2689 1.356 . S
N2687 H2692 0.984 . S
N2687 H2693 0.985 . S
C2688 C2682 1.379 . S
C2688 C2685 1.363 . S
C2688 N2686 1.356 . S
C2689 C2683 1.363 . S
C2689 C2684 1.379 . S
C2689 N2687 1.356 . S
N2690 C2682 1.356 . S
N2690 H2696 0.984 . S
N2690 H2697 0.984 . S
N2691 C2684 1.356 . S
N2691 H2694 0.984 . S
N2691 H2695 0.985 . S
H2692 N2687 0.984 . S
H2693 N2687 0.985 . S
H2694 N2691 0.984 . S
H2695 N2691 0.985 . S
H2696 N2690 0.984 . S
H2697 N2690 0.984 . S
H2698 N2686 0.984 . S
H2699 N2686 0.985 . S
C2700 C2701 1.363 . S
C2700 C2706 1.379 . S
C2700 N2708 1.356 . S
C2701 C2700 1.363 . S
C2701 C2707 1.363 . S
C2702 C2703 1.363 . S
C2702 C2707 1.379 . S
C2702 N2709 1.356 . S
C2703 C2702 1.363 . S
C2703 C2706 1.363 . S
N2704 C2706 1.356 . S
N2704 H2716 0.984 . S
N2704 H2717 0.985 . S
N2705 C2707 1.356 . S
N2705 H2710 0.984 . S
N2705 H2711 0.985 . S
C2706 C2700 1.379 . S
C2706 C2703 1.363 . S
C2706 N2704 1.356 . S
C2707 C2701 1.363 . S
C2707 C2702 1.379 . S
C2707 N2705 1.356 . S
N2708 C2700 1.356 . S
N2708 H2714 0.984 . S
N2708 H2715 0.984 . S
N2709 C2702 1.356 . S
N2709 H2712 0.984 . S
N2709 H2713 0.985 . S
H2710 N2705 0.984 . S
H2711 N2705 0.985 . S
H2712 N2709 0.984 . S
H2713 N2709 0.985 . S
H2714 N2708 0.984 . S
H2715 N2708 0.984 . S
H2716 N2704 0.984 . S
H2717 N2704 0.985 . S
C2718 C2719 1.363 . S
C2718 C2724 1.379 . S
C2718 N2726 1.356 . S
C2719 C2718 1.363 . S
C2719 C2725 1.363 . S
C2720 C2721 1.363 . S
C2720 C2725 1.379 . S
C2720 N2727 1.356 . S
C2721 C2720 1.363 . S
C2721 C2724 1.363 . S
N2722 C2724 1.356 . S
N2722 H2734 0.984 . S
N2722 H2735 0.985 . S
N2723 C2725 1.356 . S
N2723 H2728 0.984 . S
N2723 H2729 0.985 . S
C2724 C2718 1.379 . S
C2724 C2721 1.363 . S
C2724 N2722 1.356 . S
C2725 C2719 1.363 . S
C2725 C2720 1.379 . S
C2725 N2723 1.356 . S
N2726 C2718 1.356 . S
N2726 H2732 0.984 . S
N2726 H2733 0.984 . S
N2727 C2720 1.356 . S
N2727 H2730 0.984 . S
N2727 H2731 0.985 . S
H2728 N2723 0.984 . S
H2729 N2723 0.985 . S
H2730 N2727 0.984 . S
H2731 N2727 0.985 . S
H2732 N2726 0.984 . S
H2733 N2726 0.984 . S
H2734 N2722 0.984 . S
H2735 N2722 0.985 . S
C2736 C2737 1.363 1_655 S
C2736 C2742 1.379 . S
C2736 N2744 1.356 . S
C2737 C2736 1.363 1_455 S
C2737 C2743 1.363 . S
C2738 C2739 1.363 1_455 S
C2738 C2743 1.379 . S
C2738 N2745 1.356 . S
C2739 C2738 1.363 1_655 S
C2739 C2742 1.363 . S
N2740 C2742 1.356 . S
N2740 H2752 0.984 . S
N2740 H2753 0.985 . S
N2741 C2743 1.356 . S
N2741 H2746 0.984 . S
N2741 H2747 0.985 . S
C2742 C2736 1.379 . S
C2742 C2739 1.363 . S
C2742 N2740 1.356 . S
C2743 C2737 1.363 . S
C2743 C2738 1.379 . S
C2743 N2741 1.356 . S
N2744 C2736 1.356 . S
N2744 H2750 0.984 . S
N2744 H2751 0.984 1_655 S
N2745 C2738 1.356 . S
N2745 H2748 0.984 1_455 S
N2745 H2749 0.985 . S
H2746 N2741 0.984 . S
H2747 N2741 0.985 . S
H2748 N2745 0.984 1_655 S
H2749 N2745 0.985 . S
H2750 N2744 0.984 . S
H2751 N2744 0.984 1_455 S
H2752 N2740 0.984 . S
H2753 N2740 0.985 . S
C2754 C2755 1.363 . S
C2754 C2760 1.379 . S
C2754 N2762 1.356 . S
C2755 C2754 1.363 . S
C2755 C2761 1.363 . S
C2756 C2757 1.363 . S
C2756 C2761 1.379 . S
C2756 N2763 1.356 . S
C2757 C2756 1.363 . S
C2757 C2760 1.363 . S
N2758 C2760 1.356 . S
N2758 H2770 0.984 . S
N2758 H2771 0.985 . S
N2759 C2761 1.356 . S
N2759 H2764 0.984 . S
N2759 H2765 0.985 . S
C2760 C2754 1.379 . S
C2760 C2757 1.363 . S
C2760 N2758 1.356 . S
C2761 C2755 1.363 . S
C2761 C2756 1.379 . S
C2761 N2759 1.356 . S
N2762 C2754 1.356 . S
N2762 H2768 0.984 . S
N2762 H2769 0.984 . S
N2763 C2756 1.356 . S
N2763 H2766 0.984 . S
N2763 H2767 0.985 . S
H2764 N2759 0.984 . S
H2765 N2759 0.985 . S
H2766 N2763 0.984 . S
H2767 N2763 0.985 . S
H2768 N2762 0.984 . S
H2769 N2762 0.984 . S
H2770 N2758 0.984 . S
H2771 N2758 0.985 . S
C2772 C2773 1.363 . S
C2772 C2778 1.379 . S
C2772 N2780 1.356 . S
C2773 C2772 1.363 . S
C2773 C2779 1.363 1_565 S
C2774 C2775 1.363 . S
C2774 C2779 1.379 . S
C2774 N2781 1.356 . S
C2775 C2774 1.363 . S
C2775 C2778 1.363 1_545 S
N2776 C2778 1.356 . S
N2776 H2788 0.984 . S
N2776 H2789 0.985 1_565 S
N2777 C2779 1.356 . S
N2777 H2782 0.984 1_545 S
N2777 H2783 0.985 . S
C2778 C2772 1.379 . S
C2778 C2775 1.363 1_565 S
C2778 N2776 1.356 . S
C2779 C2773 1.363 1_545 S
C2779 C2774 1.379 . S
C2779 N2777 1.356 . S
N2780 C2772 1.356 . S
N2780 H2786 0.984 . S
N2780 H2787 0.984 . S
N2781 C2774 1.356 . S
N2781 H2784 0.984 . S
N2781 H2785 0.985 . S
H2782 N2777 0.984 1_565 S
H2783 N2777 0.985 . S
H2784 N2781 0.984 . S
H2785 N2781 0.985 . S
H2786 N2780 0.984 . S
H2787 N2780 0.984 . S
H2788 N2776 0.984 . S
H2789 N2776 0.985 1_545 S
C2790 C2791 1.363 . S
C2790 C2796 1.379 . S
C2790 N2798 1.356 . S
C2791 C2790 1.363 . S
C2791 C2797 1.363 1_565 S
C2792 C2793 1.363 . S
C2792 C2797 1.379 . S
C2792 N2799 1.356 . S
C2793 C2792 1.363 . S
C2793 C2796 1.363 1_545 S
N2794 C2796 1.356 1_545 S
N2794 H2806 0.984 1_545 S
N2794 H2807 0.985 . S
N2795 C2797 1.356 1_565 S
N2795 H2800 0.984 . S
N2795 H2801 0.985 1_565 S
C2796 C2790 1.379 . S
C2796 C2793 1.363 1_565 S
C2796 N2794 1.356 1_565 S
C2797 C2791 1.363 1_545 S
C2797 C2792 1.379 . S
C2797 N2795 1.356 1_545 S
N2798 C2790 1.356 . S
N2798 H2804 0.984 . S
N2798 H2805 0.984 . S
N2799 C2792 1.356 . S
N2799 H2802 0.984 . S
N2799 H2803 0.985 . S
H2800 N2795 0.984 . S
H2801 N2795 0.985 1_545 S
H2802 N2799 0.984 . S
H2803 N2799 0.985 . S
H2804 N2798 0.984 . S
H2805 N2798 0.984 . S
H2806 N2794 0.984 1_565 S
H2807 N2794 0.985 . S
C2808 C2809 1.363 . S
C2808 C2814 1.379 . S
C2808 N2816 1.356 . S
C2809 C2808 1.363 . S
C2809 C2815 1.363 1_455 S
C2810 C2811 1.363 . S
C2810 C2815 1.379 . S
C2810 N2817 1.356 . S
C2811 C2810 1.363 . S
C2811 C2814 1.363 1_655 S
N2812 C2814 1.356 . S
N2812 H2824 0.984 . S
N2812 H2825 0.985 1_455 S
N2813 C2815 1.356 . S
N2813 H2818 0.984 1_655 S
N2813 H2819 0.985 . S
C2814 C2808 1.379 . S
C2814 C2811 1.363 1_455 S
C2814 N2812 1.356 . S
C2815 C2809 1.363 1_655 S
C2815 C2810 1.379 . S
C2815 N2813 1.356 . S
N2816 C2808 1.356 . S
N2816 H2822 0.984 . S
N2816 H2823 0.984 . S
N2817 C2810 1.356 . S
N2817 H2820 0.984 . S
N2817 H2821 0.985 . S
H2818 N2813 0.984 1_455 S
H2819 N2813 0.985 . S
H2820 N2817 0.984 . S
H2821 N2817 0.985 . S
H2822 N2816 0.984 . S
H2823 N2816 0.984 . S
H2824 N2812 0.984 . S
H2825 N2812 0.985 1_655 S
C2826 C2827 1.363 . S
C2826 C2832 1.379 . S
C2826 N2834 1.356 . S
C2827 C2826 1.363 . S
C2827 C2833 1.363 . S
C2828 C2829 1.363 . S
C2828 C2833 1.379 . S
C2828 N2835 1.356 . S
C2829 C2828 1.363 . S
C2829 C2832 1.363 . S
N2830 C2832 1.356 . S
N2830 H2842 0.984 . S
N2830 H2843 0.985 . S
N2831 C2833 1.356 . S
N2831 H2836 0.984 . S
N2831 H2837 0.985 . S
C2832 C2826 1.379 . S
C2832 C2829 1.363 . S
C2832 N2830 1.356 . S
C2833 C2827 1.363 . S
C2833 C2828 1.379 . S
C2833 N2831 1.356 . S
N2834 C2826 1.356 . S
N2834 H2840 0.984 . S
N2834 H2841 0.984 . S
N2835 C2828 1.356 . S
N2835 H2838 0.984 . S
N2835 H2839 0.985 . S
H2836 N2831 0.984 . S
H2837 N2831 0.985 . S
H2838 N2835 0.984 . S
H2839 N2835 0.985 . S
H2840 N2834 0.984 . S
H2841 N2834 0.984 . S
H2842 N2830 0.984 . S
H2843 N2830 0.985 . S
C1225 C617 1.153 . S
C1227 C5 1.153 . S
C1243 C39 1.153 . S
C1245 C651 1.153 . S
C1261 C685 1.153 . S
C1263 C73 1.153 . S
C1279 C1127 1.153 . S
C1281 C107 1.153 . S
C1297 C1161 1.153 . S
C1299 C141 1.153 . S
C1315 C175 1.153 . S
C1317 C1195 1.153 . S
C1333 C209 1.153 . S
C1335 C821 1.153 . S
C1351 C855 1.153 . S
C1353 C243 1.153 . S
C1369 C277 1.153 . S
C1371 C889 1.153 . S
C1387 C515 1.153 . S
C1389 C311 1.153 . S
C1405 C345 1.153 . S
C1407 C549 1.153 . S
C1423 C583 1.153 . S
C1425 C379 1.153 . S
C1441 C413 1.153 . S
C1443 C1025 1.153 . S
C1459 C447 1.153 . S
C1461 C1059 1.153 . S
C1477 C1093 1.153 . S
C1479 C481 1.153 . S
C1495 C923 1.153 . S
C1497 C719 1.153 . S
C1513 C753 1.153 . S
C1515 C957 1.153 . S
C1531 C991 1.153 . S
C1533 C787 1.153 . S
C1549 C33 1.423 . S
C1551 C247 1.288 . S
C1567 C67 1.423 . S
C1569 C281 1.288 . S
C1585 C101 1.423 . S
C1587 C213 1.287 . S
C1603 C383 1.288 . S
C1605 C135 1.423 . S
C1621 C169 1.423 . S
C1623 C315 1.287 . S
C1639 C203 1.423 . S
C1641 C349 1.288 . S
C1657 C237 1.423 . S
C1659 C43 1.288 . S
C1675 C271 1.423 . S
C1677 C77 1.288 . S
C1693 C9 1.287 . S
C1695 C305 1.423 . S
C1711 C339 1.423 . S
C1713 C179 1.288 . S
C1729 C373 1.423 . S
C1731 C111 1.287 . S
C1747 C407 1.423 . S
C1749 C145 1.288 . S
C1765 C655 1.288 . S
C1767 C441 1.423 . S
C1783 C475 1.423 . S
C1785 C689 1.288 . S
C1801 C509 1.423 . S
C1803 C621 1.287 . S
C1819 C543 1.423 . S
C1821 C791 1.287 . S
C1837 C577 1.423 . S
C1839 C723 1.287 . S
C1855 C757 1.287 . S
C1857 C611 1.423 . S
C1873 C451 1.287 . S
C1875 C645 1.423 . S
C1891 C679 1.423 . S
C1893 C485 1.287 . S
C1909 C417 1.287 . S
C1911 C713 1.423 . S
C1927 C747 1.423 . S
C1929 C587 1.288 . S
C1945 C519 1.287 . S
C1947 C781 1.423 . S
C1963 C553 1.288 . S
C1965 C815 1.423 . S
C1981 C1063 1.287 . S
C1983 C849 1.423 . S
C1999 C1097 1.287 . S
C2001 C883 1.423 . S
C2017 C917 1.423 . S
C2019 C1029 1.287 . S
C2035 C1199 1.288 . S
C2037 C951 1.423 . S
C2053 C1131 1.287 . S
C2055 C985 1.423 . S
C2071 C1019 1.423 . S
C2073 C1165 1.288 . S
C2089 C859 1.288 . S
C2091 C1053 1.423 . S
C2107 C1087 1.423 . S
C2109 C893 1.288 . S
C2125 C1121 1.423 . S
C2127 C825 1.287 . S
C2143 C1155 1.423 . S
C2145 C995 1.287 . S
C2161 C927 1.287 . S
C2163 C1189 1.423 . S
C2179 C961 1.287 . S
C2181 C1223 1.423 . S
C2197 C20 1.575 . S
C2199 C122 1.575 . S
C2215 C54 1.575 . S
C2217 C156 1.575 . S
C2233 C190 1.575 . S
C2235 C88 1.575 . S
C2251 C224 1.575 . S
C2253 C326 1.575 . S
C2269 C360 1.575 . S
C2271 C258 1.575 . S
C2287 C292 1.575 . S
C2289 C394 1.575 . S
C2305 C428 1.575 . S
C2307 C530 1.575 . S
C2323 C462 1.575 . S
C2325 C564 1.575 . S
C2341 C598 1.575 . S
C2343 C496 1.575 . S
C2359 C632 1.575 . S
C2361 C734 1.575 1_554 S
C2377 C666 1.575 . S
C2379 C768 1.575 1_554 S
C2395 C802 1.575 1_554 S
C2397 C700 1.575 . S
C2413 C938 1.575 1_556 S
C2415 C836 1.575 . S
C2431 C972 1.575 1_556 S
C2433 C870 1.575 . S
C2449 C904 1.575 . S
C2451 C1006 1.575 1_556 S
C2467 C1040 1.575 . S
C2469 C1142 1.575 . S
C2485 C1176 1.575 . S
C2487 C1074 1.575 . S
C2503 C1210 1.575 . S
C2505 C1108 1.575 . S
C2521 C2 2.285 . S
C2523 C546 2.266 . S
C2539 C36 2.284 . S
C2541 C580 2.266 . S
C2557 C512 2.266 . S
C2559 C70 2.285 . S
C2575 C104 2.266 . S
C2577 C886 2.266 . S
C2593 C818 2.266 . S
C2595 C138 2.266 . S
C2611 C172 2.266 . S
C2613 C852 2.266 . S
C2629 C206 2.285 . S
C2631 C1158 2.266 . S
C2647 C1192 2.266 . S
C2649 C240 2.284 . S
C2665 C274 2.285 . S
C2667 C1124 2.266 . S
C2683 C682 2.266 . S
C2685 C308 2.266 . S
C2701 C614 2.266 . S
C2703 C342 2.266 . S
C2719 C648 2.266 . S
C2721 C376 2.266 . S
C2737 C954 2.266 . S
C2739 C410 2.266 . S
C2755 C988 2.266 . S
C2757 C444 2.266 . S
C2773 C920 2.266 . S
C2775 C478 2.266 . S
C2791 C1090 2.266 . S
C2793 C716 2.266 . S
C2809 C1022 2.266 . S
C2811 C750 2.266 . S
C2827 C1056 2.266 . S
C2829 C784 2.266 . S
