# Generated by pormake.
# Topology ume, (4)-cn, num edge types: 1
# Building blocks:
#     Node 0, Type 0, BuildingBlock: KOZSID_clean_sbu_0, # of connection points: 4
#     Node 1, Type 0, BuildingBlock: KOZSID_clean_sbu_0, # of connection points: 4
#     Node 2, Type 0, BuildingBlock: KOZSID_clean_sbu_0, # of connection points: 4
#     Node 3, Type 0, BuildingBlock: KOZSID_clean_sbu_0, # of connection points: 4
#     Node 4, Type 0, BuildingBlock: KOZSID_clean_sbu_0, # of connection points: 4
#     Node 5, Type 0, BuildingBlock: KOZSID_clean_sbu_0, # of connection points: 4
#     Node 6, Type 0, BuildingBlock: KOZSID_clean_sbu_0, # of connection points: 4
#     Node 7, Type 0, BuildingBlock: KOZSID_clean_sbu_0, # of connection points: 4
#     Node 8, Type 0, BuildingBlock: KOZSID_clean_sbu_0, # of connection points: 4
#     Node 9, Type 0, BuildingBlock: KOZSID_clean_sbu_0, # of connection points: 4
#     Node 10, Type 0, BuildingBlock: KOZSID_clean_sbu_0, # of connection points: 4
#     Node 11, Type 0, BuildingBlock: KOZSID_clean_sbu_0, # of connection points: 4
#     Node 12, Type 0, BuildingBlock: KOZSID_clean_sbu_0, # of connection points: 4
#     Node 13, Type 0, BuildingBlock: KOZSID_clean_sbu_0, # of connection points: 4
#     Node 14, Type 0, BuildingBlock: KOZSID_clean_sbu_0, # of connection points: 4
#     Node 15, Type 0, BuildingBlock: KOZSID_clean_sbu_0, # of connection points: 4
#     Edge 16, Type (0, 0), BuildingBlock: OJICUG_clean_linker_0, # of connection points: 2
#     Edge 17, Type (0, 0), BuildingBlock: OJICUG_clean_linker_0, # of connection points: 2
#     Edge 18, Type (0, 0), BuildingBlock: OJICUG_clean_linker_0, # of connection points: 2
#     Edge 19, Type (0, 0), BuildingBlock: OJICUG_clean_linker_0, # of connection points: 2
#     Edge 20, Type (0, 0), BuildingBlock: OJICUG_clean_linker_0, # of connection points: 2
#     Edge 21, Type (0, 0), BuildingBlock: OJICUG_clean_linker_0, # of connection points: 2
#     Edge 22, Type (0, 0), BuildingBlock: OJICUG_clean_linker_0, # of connection points: 2
#     Edge 23, Type (0, 0), BuildingBlock: OJICUG_clean_linker_0, # of connection points: 2
#     Edge 24, Type (0, 0), BuildingBlock: OJICUG_clean_linker_0, # of connection points: 2
#     Edge 25, Type (0, 0), BuildingBlock: OJICUG_clean_linker_0, # of connection points: 2
#     Edge 26, Type (0, 0), BuildingBlock: OJICUG_clean_linker_0, # of connection points: 2
#     Edge 27, Type (0, 0), BuildingBlock: OJICUG_clean_linker_0, # of connection points: 2
#     Edge 28, Type (0, 0), BuildingBlock: OJICUG_clean_linker_0, # of connection points: 2
#     Edge 29, Type (0, 0), BuildingBlock: OJICUG_clean_linker_0, # of connection points: 2
#     Edge 30, Type (0, 0), BuildingBlock: OJICUG_clean_linker_0, # of connection points: 2
#     Edge 31, Type (0, 0), BuildingBlock: OJICUG_clean_linker_0, # of connection points: 2
#     Edge 32, Type (0, 0), BuildingBlock: OJICUG_clean_linker_0, # of connection points: 2
#     Edge 33, Type (0, 0), BuildingBlock: OJICUG_clean_linker_0, # of connection points: 2
#     Edge 34, Type (0, 0), BuildingBlock: OJICUG_clean_linker_0, # of connection points: 2
#     Edge 35, Type (0, 0), BuildingBlock: OJICUG_clean_linker_0, # of connection points: 2
#     Edge 36, Type (0, 0), BuildingBlock: OJICUG_clean_linker_0, # of connection points: 2
#     Edge 37, Type (0, 0), BuildingBlock: OJICUG_clean_linker_0, # of connection points: 2
#     Edge 38, Type (0, 0), BuildingBlock: OJICUG_clean_linker_0, # of connection points: 2
#     Edge 39, Type (0, 0), BuildingBlock: OJICUG_clean_linker_0, # of connection points: 2
#     Edge 40, Type (0, 0), BuildingBlock: OJICUG_clean_linker_0, # of connection points: 2
#     Edge 41, Type (0, 0), BuildingBlock: OJICUG_clean_linker_0, # of connection points: 2
#     Edge 42, Type (0, 0), BuildingBlock: OJICUG_clean_linker_0, # of connection points: 2
#     Edge 43, Type (0, 0), BuildingBlock: OJICUG_clean_linker_0, # of connection points: 2
#     Edge 44, Type (0, 0), BuildingBlock: OJICUG_clean_linker_0, # of connection points: 2
#     Edge 45, Type (0, 0), BuildingBlock: OJICUG_clean_linker_0, # of connection points: 2
#     Edge 46, Type (0, 0), BuildingBlock: OJICUG_clean_linker_0, # of connection points: 2
#     Edge 47, Type (0, 0), BuildingBlock: OJICUG_clean_linker_0, # of connection points: 2
# Relax obj value: 0.055
# Max RMSD: 0.255
# Mean RMSD: 0.215
data_MOF--net-ume--node1-KOZSID_clean_sbu_0--edge1-OJICUG_clean_linker_0
_symmetry_space_group_name_H-M    P1
_symmetry_Int_Tables_number       1
_symmetry_cell_setting            triclinic
loop_
_symmetry_equiv_pos_as_xyz
'x, y, z'
_cell_length_a     24.551712
_cell_length_b     30.145655
_cell_length_c     101.9515
_cell_angle_alpha  89.988006
_cell_angle_beta   89.964591
_cell_angle_gamma 90.027142
loop_
_atom_site_label
_atom_site_type_symbol
_atom_site_fract_x
_atom_site_fract_y
_atom_site_fract_z
_atom_type_partial_charge
C0 C 0.35668 0.07374 0.33358 0.0
C1 C 0.38033 0.11351 0.3374 0.0
C2 C 0.34533 0.14675 0.33359 0.0
C3 C 0.30238 0.12558 0.32763 0.0
N4 N 0.30814 0.0812 0.3276 0.0
Co5 Co 0.25742 0.03874 0.31931 0.0
N6 N 0.1979 0.08303 0.31819 0.0
C7 C 0.20404 0.12729 0.31885 0.0
C8 C 0.155 0.14928 0.31816 0.0
C9 C 0.11593 0.11669 0.31699 0.0
C10 C 0.14329 0.07649 0.3171 0.0
N11 N 0.20635 0.99595 0.31107 0.0
C12 C 0.15123 0.99644 0.3106 0.0
C13 C 0.1314 0.95885 0.30431 0.0
C14 C 0.17576 0.93456 0.30055 0.0
C15 C 0.22001 0.95821 0.30483 0.0
N16 N 0.31563 0.99346 0.32006 0.0
C17 C 0.3169 0.95478 0.31344 0.0
C18 C 0.35897 0.92775 0.31717 0.0
C19 C 0.38622 0.95105 0.3266 0.0
C20 C 0.35973 0.99166 0.32791 0.0
N21 N 0.23329 0.02171 0.3374 0.0
C22 C 0.23247 1.01089 0.36528 0.0
C23 C 0.24721 0.97583 0.35679 0.0
C24 C 0.24586 0.98151 0.34297 0.0
C25 C 0.21198 0.04923 0.35917 0.0
C26 C 0.21414 0.05438 0.34553 0.0
N27 N 0.28479 0.05885 0.30171 0.0
C28 C 0.36095 0.09021 0.28949 0.0
C29 C 0.32676 0.10628 0.27956 0.0
C30 C 0.27092 0.0955 0.28065 0.0
C31 C 0.25079 0.07218 0.29178 0.0
C32 C 0.33961 0.06627 0.30019 0.0
H33 H 0.20745 0.06654 0.29259 0.0
H34 H 0.36777 0.05573 0.30761 0.0
H35 H 0.25842 0.95404 0.33691 0.0
H36 H 0.20341 0.08653 0.34185 0.0
C37 C 0.25396 0.14533 0.32306 0.0
C38 C 0.38411 0.03026 0.33443 0.0
C39 C 0.1171 0.03275 0.31551 0.0
C40 C 0.27244 0.9411 0.30598 0.0
H41 H 0.41926 0.11799 0.34219 0.0
H42 H 0.35042 0.18203 0.33512 0.0
H43 H 0.14808 0.18458 0.31913 0.0
H44 H 0.0724 0.1218 0.31628 0.0
H45 H 0.08946 0.94932 0.30276 0.0
H46 H 0.17555 0.90207 0.29602 0.0
H47 H 0.36753 0.89437 0.31384 0.0
H48 H 0.42288 0.9402 0.33155 0.0
H49 H 0.26198 0.94469 0.36066 0.0
H50 H 0.196 0.07667 0.36479 0.0
H51 H 0.40436 0.09653 0.28911 0.0
H52 H 0.24252 0.10669 0.27324 0.0
C53 C 0.96271 0.79493 0.55475 0.0
C54 C 0.0026 0.79408 0.54513 0.0
C55 C 0.047 0.77257 0.55046 0.0
C56 C 0.03201 0.76121 0.56304 0.0
N57 N 0.98098 0.77419 0.56584 0.0
Co58 Co 0.94503 0.7675 0.58317 0.0
N59 N 0.01465 0.75876 0.59272 0.0
C60 C 0.06163 0.74616 0.58703 0.0
C61 C 0.10282 0.74049 0.59601 0.0
C62 C 0.07997 0.74959 0.60806 0.0
C63 C 0.02591 0.76047 0.60581 0.0
N64 N 0.90757 0.76286 0.60041 0.0
C65 C 0.92742 0.76639 0.6128 0.0
C66 C 0.88612 0.76039 0.62196 0.0
C67 C 0.83933 0.7522 0.61507 0.0
C68 C 0.85439 0.75372 0.60212 0.0
N69 N 0.87509 0.77527 0.57359 0.0
C70 C 0.82565 0.76381 0.57819 0.0
C71 C 0.78415 0.77587 0.56994 0.0
C72 C 0.80885 0.79635 0.55953 0.0
C73 C 0.86461 0.79514 0.56186 0.0
N74 N 0.94185 0.70174 0.58096 0.0
C75 C 0.96926 0.61035 0.57822 0.0
C76 C 0.96441 0.63049 0.59057 0.0
C77 C 0.95113 0.67548 0.59171 0.0
C78 C 0.955 0.6365 0.56726 0.0
C79 C 0.94105 0.68186 0.56885 0.0
N80 N 0.95219 0.83183 0.58548 0.0
C81 C 0.91652 0.90484 0.5899 0.0
C82 C 0.96874 0.92331 0.58837 0.0
C83 C 0.01194 0.89522 0.58536 0.0
C84 C 0.00277 0.85011 0.5838 0.0
C85 C 0.90922 0.8587 0.5886 0.0
H86 H 0.03711 0.83017 0.58105 0.0
H87 H 0.86909 0.8448 0.59 0.0
H88 H 0.95213 0.6893 0.60142 0.0
H89 H 0.93256 0.70134 0.56019 0.0
C90 C 0.06696 0.747 0.57322 0.0
C91 C 0.90658 0.81246 0.55277 0.0
C92 C 0.98553 0.76935 0.61629 0.0
C93 C 0.81887 0.75294 0.59142 0.0
H94 H 0.99985 0.80765 0.53532 0.0
H95 H 0.08638 0.76783 0.5459 0.0
H96 H 0.14487 0.73206 0.59403 0.0
H97 H 0.10053 0.74807 0.61744 0.0
H98 H 0.88962 0.7607 0.63253 0.0
H99 H 0.79897 0.74677 0.61904 0.0
H100 H 0.74081 0.77338 0.57175 0.0
H101 H 0.78748 0.81155 0.55144 0.0
H102 H 0.97254 0.61197 0.59945 0.0
H103 H 0.95706 0.62278 0.55746 0.0
H104 H 0.88192 0.92579 0.59214 0.0
H105 H 0.0526 0.90826 0.58381 0.0
C106 C 0.14145 0.45868 0.83263 0.0
C107 C 0.11701 0.41882 0.83607 0.0
C108 C 0.15218 0.38562 0.83232 0.0
C109 C 0.196 0.40691 0.82676 0.0
N110 N 0.19055 0.45132 0.82693 0.0
Co111 Co 0.2423 0.49399 0.81919 0.0
N112 N 0.30188 0.44966 0.81839 0.0
C113 C 0.29568 0.40538 0.81892 0.0
C114 C 0.34479 0.38341 0.81849 0.0
C115 C 0.38395 0.41606 0.81763 0.0
C116 C 0.35657 0.45625 0.81764 0.0
N117 N 0.29412 0.53697 0.81134 0.0
C118 C 0.34922 0.53647 0.81116 0.0
C119 C 0.36967 0.57429 0.80509 0.0
C120 C 0.32575 0.59866 0.80112 0.0
C121 C 0.2811 0.57488 0.8051 0.0
N122 N 0.1844 0.53953 0.81984 0.0
C123 C 0.18376 0.57846 0.81334 0.0
C124 C 0.14178 0.6056 0.81707 0.0
C125 C 0.11394 0.58209 0.82637 0.0
C126 C 0.14001 0.54125 0.82759 0.0
N127 N 0.2647 0.51032 0.83746 0.0
C128 C 0.26521 0.52114 0.86536 0.0
C129 C 0.25175 0.55649 0.85684 0.0
C130 C 0.25318 0.55076 0.84301 0.0
C131 C 0.28431 0.48229 0.85926 0.0
C132 C 0.28222 0.47717 0.84563 0.0
N133 N 0.21661 0.47443 0.80136 0.0
C134 C 0.14015 0.44885 0.78806 0.0
C135 C 0.17461 0.42633 0.77934 0.0
C136 C 0.23108 0.4309 0.78151 0.0
C137 C 0.25113 0.45573 0.79231 0.0
C138 C 0.16163 0.47196 0.79893 0.0
H139 H 0.29467 0.45791 0.79364 0.0
H140 H 0.13301 0.48569 0.80578 0.0
H141 H 0.24169 0.57848 0.83692 0.0
H142 H 0.29181 0.44476 0.84197 0.0
C143 C 0.24508 0.38719 0.82259 0.0
C144 C 0.11487 0.50238 0.8338 0.0
C145 C 0.38282 0.50002 0.81618 0.0
C146 C 0.2287 0.59218 0.80605 0.0
H147 H 0.07762 0.41428 0.84065 0.0
H148 H 0.14674 0.35029 0.83369 0.0
H149 H 0.3516 0.34808 0.81939 0.0
H150 H 0.42754 0.41097 0.81715 0.0
H151 H 0.41174 0.58398 0.80383 0.0
H152 H 0.32643 0.63131 0.7967 0.0
H153 H 0.13366 0.63916 0.81385 0.0
H154 H 0.07714 0.59293 0.83126 0.0
H155 H 0.23801 0.58796 0.86069 0.0
H156 H 0.29923 0.45449 0.86489 0.0
H157 H 0.09638 0.44668 0.78692 0.0
H158 H 0.25976 0.41492 0.77497 0.0
C159 C 0.53808 0.73946 0.05473 0.0
C160 C 0.49849 0.74212 0.04509 0.0
C161 C 0.45523 0.7651 0.05044 0.0
C162 C 0.47055 0.77548 0.06306 0.0
N163 N 0.52071 0.76046 0.06588 0.0
Co164 Co 0.55667 0.76545 0.08325 0.0
N165 N 0.48751 0.77695 0.09277 0.0
C166 C 0.44149 0.79154 0.08705 0.0
C167 C 0.40054 0.79877 0.09602 0.0
C168 C 0.42259 0.78861 0.10808 0.0
C169 C 0.47595 0.77557 0.10585 0.0
N170 N 0.59404 0.76839 0.10052 0.0
C171 C 0.57381 0.76559 0.1129 0.0
C172 C 0.61524 0.76992 0.1221 0.0
C173 C 0.66257 0.77628 0.11525 0.0
C174 C 0.64767 0.77541 0.10229 0.0
N175 N 0.62629 0.755 0.07374 0.0
C176 C 0.67626 0.76442 0.0784 0.0
C177 C 0.71721 0.75115 0.07015 0.0
C178 C 0.69158 0.73205 0.05965 0.0
C179 C 0.6359 0.73526 0.06195 0.0
N180 N 0.56384 0.83104 0.08107 0.0
C181 C 0.54349 0.9236 0.07822 0.0
C182 C 0.54596 0.90336 0.09059 0.0
C183 C 0.55587 0.85775 0.09179 0.0
C184 C 0.55474 0.89653 0.06728 0.0
C185 C 0.56574 0.8507 0.06893 0.0
N186 N 0.54536 0.70137 0.08544 0.0
C187 C 0.57559 0.62635 0.0894 0.0
C188 C 0.52237 0.61003 0.08735 0.0
C189 C 0.48139 0.64084 0.08469 0.0
C190 C 0.49372 0.68556 0.08359 0.0
C191 C 0.58617 0.67228 0.08848 0.0
H192 H 0.46074 0.70724 0.08108 0.0
H193 H 0.62714 0.68421 0.09005 0.0
H194 H 0.55335 0.84395 0.10149 0.0
H195 H 0.57318 0.83086 0.06029 0.0
C196 C 0.43635 0.79101 0.07323 0.0
C197 C 0.59328 0.72005 0.05275 0.0
C198 C 0.51556 0.7649 0.11636 0.0
C199 C 0.68342 0.77487 0.09164 0.0
H200 H 0.50072 0.72883 0.03524 0.0
H201 H 0.4163 0.77155 0.04585 0.0
H202 H 0.35909 0.80891 0.09402 0.0
H203 H 0.40198 0.79084 0.11744 0.0
H204 H 0.61155 0.76972 0.13268 0.0
H205 H 0.70313 0.78011 0.11925 0.0
H206 H 0.76062 0.75205 0.07199 0.0
H207 H 0.71221 0.71648 0.05151 0.0
H208 H 0.53738 0.92221 0.0994 0.0
H209 H 0.55448 0.91049 0.0575 0.0
H210 H 0.60894 0.60395 0.09147 0.0
H211 H 0.43939 0.63075 0.08344 0.0
C212 C 0.3579 0.45836 0.95613 0.0
C213 C 0.38227 0.41849 0.95269 0.0
C214 C 0.34697 0.38532 0.95641 0.0
C215 C 0.30314 0.40663 0.96195 0.0
N216 N 0.3087 0.45104 0.96179 0.0
Co217 Co 0.25701 0.49373 0.96953 0.0
N218 N 0.19732 0.44942 0.97032 0.0
C219 C 0.20344 0.40514 0.96977 0.0
C220 C 0.15431 0.38318 0.97022 0.0
C221 C 0.1152 0.41583 0.9711 0.0
C222 C 0.14265 0.45602 0.9711 0.0
N223 N 0.20525 0.53673 0.97738 0.0
C224 C 0.15015 0.53623 0.97758 0.0
C225 C 0.12978 0.57407 0.98364 0.0
C226 C 0.17375 0.59845 0.98759 0.0
C227 C 0.21835 0.57466 0.98361 0.0
N228 N 0.31502 0.53924 0.96889 0.0
C229 C 0.31569 0.5782 0.97537 0.0
C230 C 0.35771 0.60533 0.97162 0.0
C231 C 0.38555 0.58177 0.96234 0.0
C232 C 0.35944 0.54093 0.96114 0.0
N233 N 0.23467 0.51012 0.95126 0.0
C234 C 0.23422 0.52103 0.92336 0.0
C235 C 0.24773 0.55635 0.93189 0.0
C236 C 0.24626 0.55058 0.94571 0.0
C237 C 0.21506 0.48217 0.92945 0.0
C238 C 0.21712 0.477 0.94308 0.0
N239 N 0.28262 0.47409 0.98736 0.0
C240 C 0.35901 0.44835 1.00065 0.0
C241 C 0.3245 0.42571 1.00934 0.0
C242 C 0.26805 0.43032 1.00716 0.0
C243 C 0.24806 0.4553 0.99639 0.0
C244 C 0.33759 0.4716 0.9898 0.0
H245 H 0.20452 0.45751 0.99506 0.0
H246 H 0.36623 0.48542 0.98296 0.0
H247 H 0.25779 0.57827 0.95181 0.0
H248 H 0.20747 0.44458 0.94674 0.0
C249 C 0.25401 0.38694 0.96611 0.0
C250 C 0.38463 0.50202 0.95499 0.0
C251 C 0.11645 0.49978 0.9726 0.0
C252 C 0.27077 0.59195 0.98264 0.0
H253 H 0.4217 0.41392 0.94814 0.0
H254 H 0.35233 0.34999 0.95505 0.0
H255 H 0.14744 0.34785 0.96932 0.0
H256 H 0.07161 0.41074 0.97161 0.0
H257 H 0.08773 0.58376 0.98492 0.0
H258 H 0.17314 0.63111 0.992 0.0
H259 H 0.36586 0.6389 0.97484 0.0
H260 H 0.4224 0.59259 0.95746 0.0
H261 H 0.26152 0.58784 0.92804 0.0
H262 H 0.20011 0.45439 0.92381 0.0
H263 H 0.40278 0.44616 1.0018 0.0
H264 H 0.23934 0.41423 1.01368 0.0
C265 C 0.53295 0.79627 0.23474 0.0
C266 C 0.49124 0.7961 0.24393 0.0
C267 C 0.44855 0.77271 0.23849 0.0
C268 C 0.46579 0.76008 0.22621 0.0
N269 N 0.51663 0.7742 0.22366 0.0
Co270 Co 0.55395 0.76875 0.20644 0.0
N271 N 0.48555 0.7574 0.19662 0.0
C272 C 0.43892 0.74316 0.20213 0.0
C273 C 0.39865 0.73608 0.19299 0.0
C274 C 0.42181 0.74597 0.18103 0.0
C275 C 0.4751 0.75875 0.18349 0.0
N276 N 0.5928 0.76535 0.18937 0.0
C277 C 0.57367 0.76819 0.17689 0.0
C278 C 0.61587 0.76339 0.16791 0.0
C279 C 0.66249 0.75654 0.17501 0.0
C280 C 0.64648 0.75767 0.1879 0.0
N281 N 0.62266 0.77887 0.2162 0.0
C282 C 0.67262 0.76728 0.21203 0.0
C283 C 0.7127 0.77723 0.22095 0.0
C284 C 0.68626 0.79655 0.23134 0.0
C285 C 0.63134 0.79774 0.22812 0.0
N286 N 0.56061 0.70332 0.20875 0.0
C287 C 0.5421 0.61069 0.21169 0.0
C288 C 0.54436 0.63073 0.19929 0.0
C289 C 0.55336 0.67642 0.19805 0.0
C290 C 0.55232 0.63804 0.22262 0.0
C291 C 0.56237 0.68396 0.22093 0.0
N292 N 0.54341 0.83275 0.2041 0.0
C293 C 0.5748 0.90748 0.20023 0.0
C294 C 0.52154 0.92404 0.20198 0.0
C295 C 0.47997 0.89357 0.20443 0.0
C296 C 0.49174 0.84884 0.20564 0.0
C297 C 0.58483 0.86154 0.20127 0.0
H298 H 0.4583 0.8274 0.20799 0.0
H299 H 0.62584 0.84933 0.19996 0.0
H300 H 0.55095 0.69006 0.18832 0.0
H301 H 0.56915 0.70407 0.22954 0.0
C302 C 0.43248 0.74437 0.21591 0.0
C303 C 0.5885 0.81555 0.23677 0.0
C304 C 0.51566 0.76913 0.17317 0.0
C305 C 0.68119 0.75692 0.1988 0.0
H306 H 0.49073 0.81189 0.25343 0.0
H307 H 0.40846 0.76808 0.24269 0.0
H308 H 0.35689 0.72633 0.19482 0.0
H309 H 0.40194 0.74381 0.17158 0.0
H310 H 0.61309 0.76344 0.15732 0.0
H311 H 0.70329 0.75198 0.17122 0.0
H312 H 0.75624 0.7733 0.21975 0.0
H313 H 0.70532 0.80878 0.24019 0.0
H314 H 0.53644 0.61161 0.1905 0.0
H315 H 0.55205 0.62421 0.23242 0.0
H316 H 0.60852 0.92972 0.19833 0.0
H317 H 0.43798 0.90397 0.20546 0.0
C318 C 0.14223 0.07459 0.45595 0.0
C319 C 0.11778 0.11442 0.4525 0.0
C320 C 0.15304 0.14764 0.45619 0.0
C321 C 0.19692 0.12639 0.46172 0.0
N322 N 0.19142 0.08198 0.46158 0.0
Co323 Co 0.24318 0.03936 0.46933 0.0
N324 N 0.30281 0.08373 0.47007 0.0
C325 C 0.29664 0.128 0.46949 0.0
C326 C 0.34574 0.15 0.46991 0.0
C327 C 0.38489 0.11739 0.47081 0.0
C328 C 0.3575 0.07717 0.47084 0.0
N329 N 0.29498 0.99645 0.47719 0.0
C330 C 0.35008 0.997 0.47738 0.0
C331 C 0.37049 0.95921 0.48346 0.0
C332 C 0.32655 0.93482 0.48743 0.0
C333 C 0.28193 0.95855 0.48344 0.0
N334 N 0.18525 0.9938 0.46872 0.0
C335 C 0.18464 0.95484 0.47521 0.0
C336 C 0.14277 0.9276 0.47145 0.0
C337 C 0.11498 0.95109 0.46215 0.0
C338 C 0.14093 0.992 0.46096 0.0
N339 N 0.26551 0.0229 0.45107 0.0
C340 C 0.26515 1.01175 0.4232 0.0
C341 C 0.25238 0.97639 0.43178 0.0
C342 C 0.25421 0.9823 0.44559 0.0
C343 C 0.28409 0.05082 0.4292 0.0
C344 C 0.28251 0.05607 0.44283 0.0
N345 N 0.21753 0.05907 0.48714 0.0
C346 C 0.14104 0.08481 0.50041 0.0
C347 C 0.17547 0.10752 0.50909 0.0
C348 C 0.23195 0.10294 0.50692 0.0
C349 C 0.25203 0.07794 0.49616 0.0
C350 C 0.16255 0.06151 0.48958 0.0
H351 H 0.29558 0.07578 0.49482 0.0
H352 H 0.13396 0.04764 0.48276 0.0
H353 H 0.24313 0.9546 0.45174 0.0
H354 H 0.29198 0.08857 0.44645 0.0
C355 C 0.24604 0.14614 0.46585 0.0
C356 C 0.11557 0.03089 0.45483 0.0
C357 C 0.38375 0.03345 0.47236 0.0
C358 C 0.22955 0.94118 0.48249 0.0
H359 H 0.07832 0.11893 0.44797 0.0
H360 H 0.14761 0.18296 0.45482 0.0
H361 H 0.35257 0.18533 0.46899 0.0
H362 H 0.42848 0.12251 0.4713 0.0
H363 H 0.41255 0.94955 0.48473 0.0
H364 H 0.3272 0.90218 0.49186 0.0
H365 H 0.13471 0.89401 0.47466 0.0
H366 H 0.07822 0.94019 0.45725 0.0
H367 H 0.2388 0.94478 0.42798 0.0
H368 H 0.29842 0.07866 0.42348 0.0
H369 H 0.09726 0.08697 0.50155 0.0
H370 H 0.26062 0.11904 0.51344 0.0
C371 C 0.96061 0.74063 0.73461 0.0
C372 C 0.99995 0.74326 0.74432 0.0
C373 C 0.04347 0.76608 0.73902 0.0
C374 C 0.02853 0.77639 0.72636 0.0
N375 N 0.97836 0.76151 0.72348 0.0
Co376 Co 0.9429 0.7663 0.70605 0.0
N377 N 0.01244 0.7773 0.69663 0.0
C378 C 0.05839 0.79183 0.7024 0.0
C379 C 0.0996 0.79894 0.69349 0.0
C380 C 0.07781 0.78877 0.68141 0.0
C381 C 0.02434 0.77584 0.68356 0.0
N382 N 0.90602 0.76897 0.6887 0.0
C383 C 0.92661 0.76588 0.67636 0.0
C384 C 0.88542 0.7699 0.66709 0.0
C385 C 0.83791 0.77644 0.67385 0.0
C386 C 0.85245 0.77595 0.68684 0.0
N387 N 0.87297 0.75633 0.71547 0.0
C388 C 0.82318 0.76578 0.71071 0.0
C389 C 0.78195 0.75271 0.71893 0.0
C390 C 0.80722 0.73366 0.72948 0.0
C391 C 0.86297 0.7367 0.72726 0.0
N392 N 0.93627 0.83196 0.70806 0.0
C393 C 0.96213 0.92368 0.71067 0.0
C394 C 0.95731 0.90337 0.69834 0.0
C395 C 0.94472 0.8582 0.69726 0.0
C396 C 0.94816 0.89759 0.72166 0.0
C397 C 0.93489 0.85208 0.72014 0.0
N398 N 0.9537 0.70217 0.70398 0.0
C399 C 0.92305 0.62744 0.69977 0.0
C400 C 0.97605 0.61085 0.70191 0.0
C401 C 0.01714 0.64138 0.70478 0.0
C402 C 0.00511 0.68611 0.70596 0.0
C403 C 0.91279 0.67336 0.70078 0.0
H404 H 0.03813 0.70762 0.70859 0.0
H405 H 0.872 0.68552 0.69912 0.0
H406 H 0.94594 0.84424 0.68757 0.0
H407 H 0.92677 0.83267 0.72883 0.0
C408 C 0.06313 0.79159 0.71623 0.0
C409 C 0.90531 0.72131 0.73652 0.0
C410 C 0.98497 0.76533 0.673 0.0
C411 C 0.81642 0.77583 0.69744 0.0
H412 H 0.99741 0.73002 0.75417 0.0
H413 H 0.08233 0.77242 0.74366 0.0
H414 H 0.14101 0.80909 0.69555 0.0
H415 H 0.09865 0.79097 0.67207 0.0
H416 H 0.88939 0.7694 0.65653 0.0
H417 H 0.79746 0.78017 0.66978 0.0
H418 H 0.7386 0.75361 0.71701 0.0
H419 H 0.7863 0.71818 0.7376 0.0
H420 H 0.96514 0.92185 0.68943 0.0
H421 H 0.95009 0.91146 0.73144 0.0
H422 H 0.88963 0.60525 0.69756 0.0
H423 H 0.059 0.63107 0.70612 0.0
C424 C 0.85765 0.57422 0.8329 0.0
C425 C 0.88203 0.61407 0.83637 0.0
C426 C 0.84677 0.64726 0.83267 0.0
C427 C 0.80295 0.62597 0.82713 0.0
N428 N 0.80847 0.58157 0.82726 0.0
Co429 Co 0.75677 0.53893 0.81948 0.0
N430 N 0.69715 0.58325 0.81871 0.0
C431 C 0.70331 0.62752 0.81929 0.0
C432 C 0.65421 0.64948 0.81885 0.0
C433 C 0.61507 0.61684 0.81794 0.0
C434 C 0.64247 0.57665 0.81792 0.0
N435 N 0.70502 0.49598 0.8116 0.0
C436 C 0.64992 0.49648 0.8114 0.0
C437 C 0.62955 0.45869 0.80531 0.0
C438 C 0.67351 0.43433 0.80135 0.0
C439 C 0.71811 0.4581 0.80535 0.0
N440 N 0.81474 0.49342 0.82009 0.0
C441 C 0.8154 0.4545 0.81359 0.0
C442 C 0.85735 0.42734 0.81733 0.0
C443 C 0.88516 0.45083 0.82662 0.0
C444 C 0.85911 0.49168 0.82784 0.0
N445 N 0.73432 0.5224 0.83774 0.0
C446 C 0.73398 0.51137 0.86562 0.0
C447 C 0.74747 0.4761 0.85707 0.0
C448 C 0.74593 0.48192 0.84326 0.0
C449 C 0.71471 0.55022 0.85956 0.0
C450 C 0.71672 0.55545 0.84593 0.0
N451 N 0.78249 0.5587 0.80167 0.0
C452 C 0.85895 0.58472 0.78843 0.0
C453 C 0.82448 0.60734 0.77974 0.0
C454 C 0.76801 0.60255 0.78189 0.0
C455 C 0.74797 0.57746 0.79265 0.0
C456 C 0.83747 0.56133 0.79926 0.0
H457 H 0.70442 0.57514 0.79397 0.0
H458 H 0.86608 0.54752 0.80609 0.0
H459 H 0.75744 0.45427 0.83714 0.0
H460 H 0.70702 0.58787 0.84229 0.0
C461 C 0.75387 0.64569 0.82297 0.0
C462 C 0.88436 0.53056 0.834 0.0
C463 C 0.61624 0.5329 0.8164 0.0
C464 C 0.7705 0.4408 0.80631 0.0
H465 H 0.92147 0.6186 0.84091 0.0
H466 H 0.85217 0.68258 0.83406 0.0
H467 H 0.64736 0.68481 0.81977 0.0
H468 H 0.57149 0.62193 0.81743 0.0
H469 H 0.5875 0.449 0.80403 0.0
H470 H 0.67289 0.4017 0.79692 0.0
H471 H 0.86547 0.39378 0.8141 0.0
H472 H 0.92196 0.43998 0.83151 0.0
H473 H 0.76132 0.44462 0.8609 0.0
H474 H 0.69974 0.57795 0.86522 0.0
H475 H 0.90273 0.58703 0.78731 0.0
H476 H 0.73931 0.61857 0.77537 0.0
C477 C 0.4616 0.29389 0.05456 0.0
C478 C 0.50179 0.29295 0.04502 0.0
C479 C 0.54596 0.27136 0.05044 0.0
C480 C 0.53053 0.26003 0.06299 0.0
N481 N 0.47945 0.27312 0.06569 0.0
Co482 Co 0.44293 0.26663 0.08295 0.0
N483 N 0.5122 0.25786 0.09264 0.0
C484 C 0.55933 0.24513 0.08705 0.0
C485 C 0.6002 0.23951 0.09612 0.0
C486 C 0.57695 0.2488 0.10812 0.0
C487 C 0.523 0.25971 0.10574 0.0
N488 N 0.40485 0.26221 0.10012 0.0
C489 C 0.42427 0.26587 0.11254 0.0
C490 C 0.3827 0.25991 0.12164 0.0
C491 C 0.33615 0.25164 0.11466 0.0
C492 C 0.35163 0.25306 0.10173 0.0
N493 N 0.37333 0.27443 0.07325 0.0
C494 C 0.32372 0.263 0.07775 0.0
C495 C 0.28252 0.27504 0.06941 0.0
C496 C 0.30761 0.29548 0.05904 0.0
C497 C 0.36328 0.29428 0.06149 0.0
N498 N 0.43973 0.2008 0.0808 0.0
C499 C 0.46759 0.10939 0.07822 0.0
C500 C 0.46208 0.12968 0.09054 0.0
C501 C 0.44857 0.17467 0.0916 0.0
C502 C 0.45374 0.1354 0.0672 0.0
C503 C 0.43957 0.18077 0.06871 0.0
N504 N 0.45026 0.33101 0.08523 0.0
C505 C 0.41496 0.40419 0.08963 0.0
C506 C 0.46735 0.42246 0.08818 0.0
C507 C 0.5104 0.39419 0.0852 0.0
C508 C 0.50097 0.34911 0.08361 0.0
C509 C 0.40738 0.35806 0.0883 0.0
H510 H 0.53526 0.32906 0.08091 0.0
H511 H 0.36714 0.34431 0.08964 0.0
H512 H 0.4491 0.1886 0.1013 0.0
H513 H 0.43145 0.20012 0.06001 0.0
C514 C 0.56512 0.24584 0.07324 0.0
C515 C 0.40559 0.31156 0.05249 0.0
C516 C 0.48226 0.26886 0.11612 0.0
C517 C 0.31646 0.25219 0.09097 0.0
H518 H 0.49941 0.30654 0.03521 0.0
H519 H 0.58549 0.26656 0.04596 0.0
H520 H 0.6423 0.23102 0.09423 0.0
H521 H 0.5972 0.24739 0.11754 0.0
H522 H 0.38585 0.26028 0.13222 0.0
H523 H 0.29566 0.24622 0.11855 0.0
H524 H 0.23912 0.27256 0.07113 0.0
H525 H 0.28653 0.31066 0.05091 0.0
H526 H 0.46988 0.11129 0.09946 0.0
H527 H 0.4563 0.12157 0.05743 0.0
H528 H 0.38046 0.42525 0.09185 0.0
H529 H 0.55119 0.40704 0.08371 0.0
C530 C 0.64299 0.96084 0.33389 0.0
C531 C 0.61918 0.92107 0.33766 0.0
C532 C 0.65415 0.88782 0.33385 0.0
C533 C 0.69724 0.90898 0.32793 0.0
N534 N 0.69162 0.95337 0.32794 0.0
Co535 Co 0.7425 0.9958 0.31966 0.0
N536 N 0.80184 0.95135 0.31845 0.0
C537 C 0.79551 0.9071 0.31909 0.0
C538 C 0.84444 0.88497 0.31832 0.0
C539 C 0.88364 0.91746 0.31714 0.0
C540 C 0.85646 0.95774 0.3173 0.0
N541 N 0.79371 0.03857 0.31143 0.0
C542 C 0.84882 0.03788 0.31088 0.0
C543 C 0.86876 0.07549 0.30461 0.0
C544 C 0.8245 0.10001 0.30093 0.0
C545 C 0.78018 0.07646 0.30525 0.0
N546 N 0.68451 0.04126 0.32051 0.0
C547 C 0.68347 0.08015 0.31398 0.0
C548 C 0.64173 0.10733 0.31784 0.0
C549 C 0.61443 0.08391 0.32725 0.0
C550 C 0.64053 0.04308 0.32841 0.0
N551 N 0.76684 1.01253 0.33775 0.0
C552 C 0.76806 0.02312 0.36564 0.0
C553 C 0.75348 0.05831 0.35718 0.0
C554 C 0.75463 0.05275 0.34336 0.0
C555 C 0.78818 0.98472 0.35948 0.0
C556 C 0.78583 0.97969 0.34584 0.0
N557 N 0.71495 0.97599 0.30206 0.0
C558 C 0.6387 0.94475 0.28987 0.0
C559 C 0.67281 0.92892 0.27988 0.0
C560 C 0.72864 0.93973 0.28093 0.0
C561 C 0.74887 0.96285 0.29208 0.0
C562 C 0.66013 0.96856 0.30057 0.0
H563 H 0.79222 0.9685 0.29285 0.0
H564 H 0.63204 0.97899 0.30802 0.0
H565 H 0.74223 0.08033 0.33732 0.0
H566 H 0.7963 0.94753 0.34212 0.0
C567 C 0.74556 0.88915 0.32332 0.0
C568 C 0.61559 1.00434 0.33473 0.0
C569 C 0.88284 1.0014 0.31571 0.0
C570 C 0.7279 0.09379 0.30649 0.0
H571 H 0.58013 0.91661 0.34242 0.0
H572 H 0.64891 0.85253 0.33534 0.0
H573 H 0.85121 0.84964 0.31926 0.0
H574 H 0.92713 0.91222 0.31637 0.0
H575 H 0.91074 0.08487 0.30302 0.0
H576 H 0.82483 0.13257 0.29645 0.0
H577 H 0.63341 0.14085 0.3146 0.0
H578 H 0.5779 0.09478 0.33225 0.0
H579 H 0.73899 0.0895 0.36108 0.0
H580 H 0.80403 0.95715 0.36506 0.0
H581 H 0.59531 0.93835 0.28951 0.0
H582 H 0.75695 0.92872 0.27346 0.0
C583 C 0.03898 0.24032 0.55426 0.0
C584 C 0.99973 0.24298 0.54454 0.0
C585 C 0.95626 0.26592 0.54981 0.0
C586 C 0.97114 0.27627 0.56246 0.0
N587 N 0.02121 0.26128 0.56537 0.0
Co588 Co 0.05658 0.26625 0.58282 0.0
N589 N 0.98705 0.2776 0.5922 0.0
C590 C 0.94119 0.29214 0.58639 0.0
C591 C 0.89991 0.29926 0.59527 0.0
C592 C 0.92155 0.28908 0.60738 0.0
C593 C 0.97502 0.27614 0.60525 0.0
N594 N 0.09333 0.26916 0.60017 0.0
C595 C 0.07266 0.26629 0.61251 0.0
C596 C 0.11375 0.27061 0.62179 0.0
C597 C 0.16132 0.27703 0.61504 0.0
C598 C 0.14689 0.27621 0.60205 0.0
N599 N 0.12653 0.2559 0.57344 0.0
C600 C 0.17633 0.26534 0.57821 0.0
C601 C 0.21757 0.2521 0.57003 0.0
C602 C 0.19232 0.23299 0.55948 0.0
C603 C 0.13656 0.23618 0.56167 0.0
N604 N 0.06374 0.33182 0.58068 0.0
C605 C 0.04401 0.42443 0.57789 0.0
C606 C 0.04596 0.40407 0.59025 0.0
C607 C 0.05554 0.35843 0.59142 0.0
C608 C 0.05536 0.39746 0.56694 0.0
C609 C 0.06607 0.35158 0.56856 0.0
N610 N 0.04539 0.20219 0.58498 0.0
C611 C 0.07572 0.1274 0.58922 0.0
C612 C 0.02266 0.11091 0.58708 0.0
C613 C 0.98169 0.14151 0.5842 0.0
C614 C 0.99391 0.18622 0.58301 0.0
C615 C 0.08616 0.1733 0.5882 0.0
H616 H 0.96099 0.20779 0.58036 0.0
H617 H 0.127 0.18538 0.58987 0.0
H618 H 0.0526 0.34455 0.6011 0.0
H619 H 0.07369 0.3318 0.55992 0.0
C620 C 0.93655 0.2917 0.57256 0.0
C621 C 0.09425 0.22094 0.55238 0.0
C622 C 0.01427 0.26553 0.61584 0.0
C623 C 0.18301 0.27574 0.59146 0.0
H624 H 0.0023 0.22971 0.53469 0.0
H625 H 0.91748 0.27234 0.54514 0.0
H626 H 0.85851 0.30936 0.59319 0.0
H627 H 0.90061 0.29125 0.6167 0.0
H628 H 0.10968 0.27036 0.63235 0.0
H629 H 0.20173 0.28087 0.61912 0.0
H630 H 0.26091 0.253 0.57196 0.0
H631 H 0.21324 0.21743 0.55138 0.0
H632 H 0.03725 0.42288 0.59905 0.0
H633 H 0.05543 0.41155 0.55717 0.0
H634 H 0.10905 0.10516 0.59144 0.0
H635 H 0.9398 0.13128 0.58285 0.0
C636 C 0.85844 0.95896 0.45629 0.0
C637 C 0.88279 0.91911 0.45282 0.0
C638 C 0.84754 0.88591 0.45656 0.0
C639 C 0.80377 0.9072 0.46213 0.0
N640 N 0.80934 0.9516 0.46198 0.0
Co641 Co 0.75768 0.99428 0.46972 0.0
N642 N 0.69793 0.95003 0.47045 0.0
C643 C 0.70398 0.90575 0.46989 0.0
C644 C 0.65479 0.88386 0.47027 0.0
C645 C 0.61573 0.91656 0.47112 0.0
C646 C 0.64326 0.95672 0.47116 0.0
N647 N 0.70594 0.03725 0.47758 0.0
C648 C 0.65083 0.03686 0.47772 0.0
C649 C 0.63047 0.07466 0.4838 0.0
C650 C 0.67444 0.09889 0.48783 0.0
C651 C 0.71905 0.07506 0.48387 0.0
N652 N 0.81572 0.03972 0.46914 0.0
C653 C 0.81649 0.07856 0.47568 0.0
C654 C 0.85858 0.10568 0.47198 0.0
C655 C 0.88635 0.08225 0.46266 0.0
C656 C 0.86012 0.04148 0.46139 0.0
N657 N 0.73554 1.01082 0.45146 0.0
C658 C 0.73593 0.02207 0.42359 0.0
C659 C 0.74881 0.05738 0.43217 0.0
C660 C 0.74697 0.05142 0.44599 0.0
C661 C 0.71692 0.983 0.42959 0.0
C662 C 0.71848 0.97771 0.44322 0.0
N663 N 0.78316 0.97449 0.48755 0.0
C664 C 0.85949 0.94882 0.50087 0.0
C665 C 0.82495 0.9262 0.50956 0.0
C666 C 0.76851 0.93074 0.50736 0.0
C667 C 0.74856 0.95567 0.49656 0.0
C668 C 0.83812 0.97202 0.49 0.0
H669 H 0.70503 0.95783 0.49521 0.0
H670 H 0.86683 0.98583 0.48318 0.0
H671 H 0.75814 0.07907 0.45214 0.0
H672 H 0.70896 0.94521 0.44684 0.0
C673 C 0.75458 0.88751 0.46626 0.0
C674 C 0.88507 1.00266 0.45512 0.0
C675 C 0.61714 1.00052 0.47265 0.0
C676 C 0.77153 0.09227 0.48296 0.0
H677 H 0.92215 0.91458 0.44823 0.0
H678 H 0.85288 0.85059 0.45516 0.0
H679 H 0.64786 0.84854 0.46934 0.0
H680 H 0.57212 0.91154 0.47157 0.0
H681 H 0.58843 0.08444 0.48503 0.0
H682 H 0.67385 0.1315 0.49227 0.0
H683 H 0.8668 0.13918 0.47525 0.0
H684 H 0.92319 0.09312 0.45778 0.0
H685 H 0.76247 0.08897 0.42838 0.0
H686 H 0.70253 0.9552 0.42387 0.0
H687 H 0.90326 0.94666 0.50203 0.0
H688 H 0.73977 0.91466 0.51387 0.0
C689 C 0.03681 0.29525 0.73408 0.0
C690 C 0.99697 0.29425 0.74371 0.0
C691 C 0.95267 0.27252 0.7384 0.0
C692 C 0.96766 0.26118 0.72583 0.0
N693 N 0.01859 0.27439 0.723 0.0
Co694 Co 0.05452 0.26764 0.70567 0.0
N695 N 0.98492 0.25836 0.69615 0.0
C696 C 0.93805 0.24563 0.70187 0.0
C697 C 0.89682 0.23973 0.6929 0.0
C698 C 0.91955 0.24883 0.68083 0.0
C699 C 0.97357 0.25995 0.68306 0.0
N700 N 0.09191 0.26289 0.68843 0.0
C701 C 0.07199 0.26613 0.67603 0.0
C702 C 0.11328 0.26024 0.66687 0.0
C703 C 0.16015 0.25239 0.67376 0.0
C704 C 0.14515 0.25402 0.68671 0.0
N705 N 0.12446 0.27596 0.71522 0.0
C706 C 0.17396 0.26472 0.71061 0.0
C707 C 0.21543 0.27705 0.71884 0.0
C708 C 0.19065 0.29746 0.72924 0.0
C709 C 0.13488 0.29593 0.72693 0.0
N710 N 0.05835 0.20197 0.708 0.0
C711 C 0.03708 0.1096 0.71089 0.0
C712 C 0.03913 0.12982 0.69852 0.0
C713 C 0.04943 0.17534 0.6973 0.0
C714 C 0.04865 0.13664 0.72182 0.0
C715 C 0.06004 0.18242 0.72015 0.0
N716 N 0.04688 0.33188 0.70326 0.0
C717 C 0.08223 0.40505 0.69888 0.0
C718 C 0.02993 0.42331 0.70042 0.0
C719 C 0.98682 0.39504 0.70339 0.0
C720 C 0.9962 0.34994 0.70493 0.0
C721 C 0.08973 0.35893 0.70015 0.0
H722 H 0.96195 0.32986 0.70767 0.0
H723 H 0.12993 0.3452 0.69876 0.0
H724 H 0.0468 0.18911 0.6876 0.0
H725 H 0.06796 0.20227 0.72876 0.0
C726 C 0.93277 0.24665 0.71568 0.0
C727 C 0.09287 0.31299 0.73605 0.0
C728 C 0.01384 0.26887 0.67256 0.0
C729 C 0.18074 0.25365 0.6974 0.0
H730 H 0.99969 0.30786 0.75351 0.0
H731 H 0.91335 0.26759 0.74298 0.0
H732 H 0.85482 0.23117 0.6949 0.0
H733 H 0.89894 0.24716 0.67147 0.0
H734 H 0.10975 0.26044 0.6563 0.0
H735 H 0.20054 0.24716 0.66979 0.0
H736 H 0.25878 0.27475 0.71701 0.0
H737 H 0.21196 0.31281 0.73731 0.0
H738 H 0.03015 0.11099 0.68974 0.0
H739 H 0.04853 0.12267 0.73161 0.0
H740 H 0.11675 0.42614 0.69666 0.0
H741 H 0.94611 0.40792 0.70493 0.0
C742 C 0.64186 0.57386 0.95621 0.0
C743 C 0.61751 0.61369 0.95273 0.0
C744 C 0.6527 0.64691 0.95646 0.0
C745 C 0.69645 0.62566 0.96203 0.0
N746 N 0.69094 0.58125 0.9619 0.0
Co747 Co 0.74256 0.53865 0.9697 0.0
N748 N 0.80218 0.583 0.9705 0.0
C749 C 0.79603 0.62727 0.96993 0.0
C750 C 0.84515 0.64925 0.97036 0.0
C751 C 0.88428 0.61662 0.97126 0.0
C752 C 0.85685 0.57642 0.97128 0.0
N753 N 0.79425 0.49575 0.97761 0.0
C754 C 0.84934 0.49626 0.97781 0.0
C755 C 0.86969 0.4585 0.98392 0.0
C756 C 0.82569 0.43415 0.98789 0.0
C757 C 0.78111 0.45788 0.98387 0.0
N758 N 0.68462 0.4931 0.96906 0.0
C759 C 0.68388 0.4542 0.97558 0.0
C760 C 0.64193 0.42702 0.97184 0.0
C761 C 0.61421 0.45047 0.96253 0.0
C762 C 0.6403 0.49131 0.96129 0.0
N763 N 0.76518 0.52217 0.95146 0.0
C764 C 0.76563 0.51124 0.92358 0.0
C765 C 0.75207 0.47594 0.93211 0.0
C766 C 0.75355 0.48171 0.94593 0.0
C767 C 0.78495 0.55006 0.92965 0.0
C768 C 0.78287 0.55525 0.94327 0.0
N769 N 0.71665 0.55837 0.9875 0.0
C770 C 0.64 0.58411 1.00072 0.0
C771 C 0.67433 0.60677 1.00943 0.0
C772 C 0.73084 0.60217 1.0073 0.0
C773 C 0.75104 0.57719 0.99654 0.0
C774 C 0.66163 0.56084 0.98989 0.0
H775 H 0.7946 0.575 0.99524 0.0
H776 H 0.63311 0.54701 0.98304 0.0
H777 H 0.74197 0.45404 0.95203 0.0
H778 H 0.79259 0.58766 0.94692 0.0
C779 C 0.7455 0.64542 0.96622 0.0
C780 C 0.6152 0.53016 0.95508 0.0
C781 C 0.88304 0.53266 0.97278 0.0
C782 C 0.72872 0.44054 0.98289 0.0
H783 H 0.57814 0.61819 0.94815 0.0
H784 H 0.64732 0.68223 0.95506 0.0
H785 H 0.85202 0.68458 0.96943 0.0
H786 H 0.92787 0.62171 0.97176 0.0
H787 H 0.91172 0.44882 0.98521 0.0
H788 H 0.82629 0.40152 0.99233 0.0
H789 H 0.63376 0.39347 0.97508 0.0
H790 H 0.57744 0.43959 0.95763 0.0
H791 H 0.73819 0.44448 0.92827 0.0
H792 H 0.79999 0.57781 0.924 0.0
H793 H 0.5962 0.58629 1.00183 0.0
H794 H 0.75942 0.61825 1.01384 0.0
C795 C 0.46784 0.23813 0.23446 0.0
C796 C 0.51017 0.23645 0.24346 0.0
C797 C 0.55367 0.25851 0.2379 0.0
C798 C 0.53624 0.27221 0.22573 0.0
N799 N 0.48449 0.26007 0.22339 0.0
Co800 Co 0.44627 0.26729 0.20635 0.0
N801 N 0.51455 0.27607 0.19625 0.0
C802 C 0.56237 0.28836 0.20157 0.0
C803 C 0.60235 0.29403 0.19226 0.0
C804 C 0.57777 0.28526 0.1804 0.0
C805 C 0.52397 0.27453 0.18309 0.0
N806 N 0.40639 0.27248 0.18948 0.0
C807 C 0.42444 0.2691 0.17691 0.0
C808 C 0.38185 0.27533 0.16813 0.0
C809 C 0.33617 0.28378 0.17545 0.0
C810 C 0.35307 0.28206 0.18827 0.0
N811 N 0.37783 0.25962 0.21643 0.0
C812 C 0.32822 0.27303 0.21252 0.0
C813 C 0.2883 0.2639 0.22157 0.0
C814 C 0.31445 0.24315 0.23176 0.0
C815 C 0.36902 0.24036 0.2283 0.0
N816 N 0.44362 0.3329 0.20874 0.0
C817 C 0.47019 0.4243 0.21155 0.0
C818 C 0.46472 0.40448 0.19918 0.0
C819 C 0.4518 0.35945 0.19799 0.0
C820 C 0.45716 0.3978 0.22252 0.0
C821 C 0.44368 0.35239 0.2209 0.0
N822 N 0.45274 0.20305 0.20385 0.0
C823 C 0.41604 0.13016 0.19977 0.0
C824 C 0.46841 0.11158 0.2008 0.0
C825 C 0.51218 0.13957 0.20339 0.0
C826 C 0.50346 0.18466 0.20503 0.0
C827 C 0.40916 0.17631 0.20115 0.0
H828 H 0.53833 0.20446 0.20746 0.0
H829 H 0.36889 0.19033 0.20016 0.0
H830 H 0.45206 0.34584 0.18825 0.0
H831 H 0.43614 0.33259 0.22955 0.0
C832 C 0.56971 0.28675 0.21531 0.0
C833 C 0.41155 0.22057 0.23666 0.0
C834 C 0.4821 0.26612 0.17294 0.0
C835 C 0.31925 0.28388 0.19934 0.0
H836 H 0.51055 0.22023 0.2529 0.0
H837 H 0.5943 0.26145 0.24192 0.0
H838 H 0.64474 0.30214 0.19391 0.0
H839 H 0.59703 0.28687 0.17086 0.0
H840 H 0.3838 0.27508 0.15753 0.0
H841 H 0.29536 0.28969 0.17185 0.0
H842 H 0.2449 0.26916 0.22056 0.0
H843 H 0.2954 0.23094 0.24063 0.0
H844 H 0.47204 0.42331 0.1903 0.0
H845 H 0.45983 0.41133 0.23233 0.0
H846 H 0.381 0.1093 0.19787 0.0
H847 H 0.553 0.12648 0.20457 0.0
C848 C 0.9721 1.01144 0.30391 0.0
C849 C 0.94352 1.00677 0.31578 0.0
H850 H 0.04847 0.0259 0.29455 0.0
C851 C 0.97207 1.01213 0.32763 0.0
H852 H 0.95101 1.00779 0.29464 0.0
C853 C 0.02815 0.02202 0.32758 0.0
C854 C 0.05645 0.02719 0.31568 0.0
H855 H 0.95086 1.00918 0.33691 0.0
H856 H 0.04956 0.02516 0.33682 0.0
C857 C 0.0276 0.02233 0.30386 0.0
C858 C 0.97245 0.53297 0.56757 0.0
C859 C 0.99109 0.56334 0.57712 0.0
H860 H 0.97422 0.46583 0.56023 0.0
C861 C 0.03079 0.54801 0.58605 0.0
H862 H 0.94206 0.54307 0.56048 0.0
C863 C 0.04895 0.50384 0.58594 0.0
C864 C 0.02876 0.47295 0.57679 0.0
H865 H 0.04805 0.5702 0.59329 0.0
H866 H 0.07879 0.49374 0.59316 0.0
C867 C 0.99105 0.4885 0.5674 0.0
C868 C 0.5273 0.52249 0.80463 0.0
C869 C 0.55568 0.52745 0.81651 0.0
H870 H 0.45141 0.50688 0.79527 0.0
C871 C 0.52724 0.52166 0.82836 0.0
H872 H 0.54837 0.52643 0.79536 0.0
C873 C 0.47138 0.51112 0.8283 0.0
C874 C 0.44336 0.50553 0.8164 0.0
H875 H 0.54839 0.52478 0.83763 0.0
H876 H 0.44991 0.50783 0.83754 0.0
C877 C 0.47216 0.51068 0.80458 0.0
C878 C 0.52903 0.04727 0.08629 0.0
C879 C 0.48966 0.0624 0.07724 0.0
H880 H 0.57709 0.99327 0.09355 0.0
C881 C 0.47158 0.03185 0.06767 0.0
H882 H 0.54586 0.0696 0.09355 0.0
C883 C 0.49042 0.98742 0.06759 0.0
C884 C 0.52784 0.97208 0.07708 0.0
H885 H 0.44147 0.04178 0.0605 0.0
H886 H 0.47401 0.96464 0.06039 0.0
C887 C 0.54746 1.00316 0.08625 0.0
C888 C 0.02743 0.51026 0.98435 0.0
C889 C 0.05589 0.50524 0.97248 0.0
H890 H 0.9515 0.52592 0.9937 0.0
C891 C 0.02754 0.51096 0.96063 0.0
H892 H 0.04844 0.50638 0.99362 0.0
C893 C 0.97169 0.5215 0.96067 0.0
C894 C 0.94359 0.52715 0.97257 0.0
H895 H 0.04875 0.50779 0.95135 0.0
H896 H 0.95028 0.52473 0.95143 0.0
C897 C 0.9723 0.52207 0.9844 0.0
C898 C 0.53109 0.48693 0.20371 0.0
C899 C 0.49147 0.47139 0.21264 0.0
H900 H 0.57844 0.54155 0.19657 0.0
C901 C 0.47219 0.50164 0.22214 0.0
H902 H 0.54869 0.46479 0.19651 0.0
C903 C 0.49007 0.5463 0.22226 0.0
C904 C 0.52769 0.56207 0.21286 0.0
H905 H 0.44183 0.49128 0.22922 0.0
H906 H 0.47272 0.5689 0.22938 0.0
C907 C 0.5486 0.53126 0.20379 0.0
C908 C 0.47279 0.02221 0.46043 0.0
C909 C 0.44432 0.02805 0.47227 0.0
H910 H 0.55013 1.00832 0.45127 0.0
C911 C 0.47266 0.02314 0.48415 0.0
H912 H 0.45167 0.02529 0.45114 0.0
C913 C 0.52777 1.0113 0.48422 0.0
C914 C 0.55661 1.0061 0.47241 0.0
H915 H 0.45155 0.0271 0.49341 0.0
H916 H 0.54846 1.00751 0.49354 0.0
C917 C 0.52864 1.01166 0.4605 0.0
C918 C 0.98397 0.04561 0.72143 0.0
C919 C 0.0217 0.06111 0.71202 0.0
H920 H 0.93492 0.99106 0.72838 0.0
C921 C 0.04181 0.03019 0.70287 0.0
H922 H 0.96721 0.0683 0.7286 0.0
C923 C 0.02355 0.98604 0.70276 0.0
C924 C 0.98385 0.97074 0.71172 0.0
H925 H 0.07167 0.04024 0.69563 0.0
H926 H 0.04075 0.96382 0.69552 0.0
C927 C 0.96528 1.00114 0.72127 0.0
C928 C 0.52726 1.01166 0.32349 0.0
C929 C 0.55533 1.00613 0.33535 0.0
H930 H 0.45288 0.02843 0.3141 0.0
C931 C 0.52734 1.01155 0.34726 0.0
H932 H 0.5481 1.00856 0.31417 0.0
C933 C 0.47148 0.02183 0.34721 0.0
C934 C 0.4443 0.02858 0.33525 0.0
H935 H 0.5487 1.00835 0.35651 0.0
H936 H 0.44948 0.02398 0.3564 0.0
C937 C 0.47313 0.02433 0.32345 0.0
C938 C 0.9527 1.00027 0.58023 0.0
C939 C 0.97906 0.97172 0.58899 0.0
H940 H 0.9478 0.06534 0.57217 0.0
C941 C 0.02037 0.98882 0.59711 0.0
H942 H 0.92191 0.98764 0.57359 0.0
C943 C 0.03481 0.03379 0.59653 0.0
C944 C 0.00884 0.06254 0.58765 0.0
H945 H 0.04179 0.9672 0.60385 0.0
H946 H 0.06602 0.04598 0.60311 0.0
C947 C 0.96781 0.0449 0.57945 0.0
C948 C 0.02638 0.50969 0.82276 0.0
C949 C 0.05482 0.5046 0.83458 0.0
H950 H 0.95198 0.52698 0.81349 0.0
C951 C 0.02761 0.51115 0.84654 0.0
H952 H 0.04674 0.50566 0.81342 0.0
C953 C 0.97199 0.52207 0.84658 0.0
C954 C 0.94444 0.52839 0.83466 0.0
H955 H 0.0494 0.50834 0.85573 0.0
H956 H 0.95046 0.52503 0.85582 0.0
C957 C 0.97258 0.52313 0.8228 0.0
C958 C 0.46687 0.54446 0.07963 0.0
C959 C 0.50836 0.56165 0.08779 0.0
H960 H 0.42036 0.4876 0.07371 0.0
C961 C 0.53455 0.53246 0.0965 0.0
H962 H 0.44665 0.56525 0.07248 0.0
C963 C 0.51985 0.48751 0.09697 0.0
C964 C 0.47808 0.47085 0.0889 0.0
H965 H 0.56611 0.54428 0.10304 0.0
H966 H 0.5414 0.46558 0.1036 0.0
C967 C 0.45152 0.49984 0.0803 0.0
C968 C 0.47289 0.50939 0.96614 0.0
C969 C 0.44471 0.50419 0.95429 0.0
H970 H 0.5471 0.52677 0.9755 0.0
C971 C 0.47223 0.51059 0.94236 0.0
H972 H 0.4523 0.50549 0.97546 0.0
C973 C 0.52787 0.52149 0.94238 0.0
C974 C 0.55514 0.52794 0.95434 0.0
H975 H 0.45066 0.50768 0.93314 0.0
H976 H 0.54963 0.52435 0.93318 0.0
C977 C 0.52671 0.52281 0.96617 0.0
C978 C 0.53443 1.00114 0.19265 0.0
C979 C 0.50802 0.97238 0.20145 0.0
H980 H 0.54174 0.06772 0.18537 0.0
C981 C 0.46664 0.9899 0.20957 0.0
H982 H 0.56592 0.98895 0.18614 0.0
C983 C 0.45166 0.03453 0.20881 0.0
C984 C 0.47847 0.06315 0.20013 0.0
H985 H 0.44623 0.96932 0.21676 0.0
H986 H 0.42063 0.04709 0.2154 0.0
C987 C 0.52004 0.04608 0.19206 0.0
C988 C 0.97367 1.00954 0.46612 0.0
C989 C 0.9451 1.00484 0.45431 0.0
H990 H 0.04818 0.02658 0.47538 0.0
C991 C 0.97217 1.01178 0.44234 0.0
H992 H 0.95339 1.00522 0.47546 0.0
C993 C 0.0278 0.0227 0.44229 0.0
C994 C 0.05548 0.02864 0.45421 0.0
H995 H 0.95026 1.00928 0.43315 0.0
H996 H 0.04923 0.02599 0.43305 0.0
C997 C 0.02748 0.023 0.46608 0.0
C998 C 0.97813 0.48887 0.69177 0.0
C999 C 0.01948 0.47171 0.69987 0.0
H1000 H 0.9325 0.5461 0.68584 0.0
C1001 C 0.04585 0.50014 0.70866 0.0
H1002 H 0.95671 0.46733 0.68501 0.0
C1003 C 0.03075 0.54475 0.70949 0.0
C1004 C 0.98973 0.56247 0.70131 0.0
H1005 H 0.07667 0.48745 0.71527 0.0
H1006 H 0.05078 0.5651 0.71678 0.0
C1007 C 0.96371 0.53383 0.6924 0.0
C1008 C 0.24573 0.96952 0.38738 0.0
C1009 C 0.24037 1.00945 0.38017 0.0
H1010 H 0.2588 0.93821 0.4061 0.0
C1011 C 0.24385 0.04923 0.38743 0.0
H1012 H 0.24326 0.9378 0.38247 0.0
C1013 C 0.25044 0.0494 0.40108 0.0
C1014 C 0.2568 1.00986 0.40834 0.0
H1015 H 0.2422 0.08124 0.38269 0.0
H1016 H 0.24989 0.08142 0.40582 0.0
C1017 C 0.2541 0.96973 0.40116 0.0
C1018 C 0.00351 0.72824 0.6375 0.0
C1019 C 0.00039 0.76875 0.63065 0.0
H1020 H 0.00169 0.69547 0.65628 0.0
C1021 C 1.00001 0.80828 0.63799 0.0
H1022 H 0.00238 0.69723 0.63214 0.0
C1023 C 0.0003 0.80728 0.65182 0.0
C1024 C 0.00028 0.76669 0.65867 0.0
H1025 H 0.99618 0.8399 0.63303 0.0
H1026 H 0.9966 0.83817 0.65717 0.0
C1027 C 0.00312 0.72723 0.65133 0.0
C1028 C 0.25372 0.56285 0.88746 0.0
C1029 C 0.25748 0.52281 0.88025 0.0
H1030 H 0.24237 0.59444 0.9062 0.0
C1031 C 0.25274 0.48314 0.88753 0.0
H1032 H 0.25717 0.59448 0.88253 0.0
C1033 C 0.24666 0.48311 0.90118 0.0
C1034 C 0.24196 0.52276 0.90847 0.0
H1035 H 0.25305 0.4511 0.88279 0.0
H1036 H 0.24631 0.45106 0.90591 0.0
C1037 C 0.24578 0.56282 0.90127 0.0
C1038 C 0.49845 0.80631 0.13757 0.0
C1039 C 0.50073 0.76575 0.13073 0.0
H1040 H 0.50096 0.83913 0.15635 0.0
C1041 C 0.50086 0.72626 0.1381 0.0
H1042 H 0.49991 0.8373 0.1322 0.0
C1043 C 0.50093 0.7273 0.15192 0.0
C1044 C 0.50158 0.7679 0.15876 0.0
H1045 H 0.50417 0.69458 0.13315 0.0
H1046 H 0.50414 0.69639 0.15729 0.0
C1047 C 0.49918 0.80736 0.1514 0.0
C1048 C 0.74571 0.46957 0.88769 0.0
C1049 C 0.7419 0.50963 0.88049 0.0
H1050 H 0.75726 0.4379 0.90641 0.0
C1051 C 0.74677 0.54928 0.88777 0.0
H1052 H 0.74217 0.43795 0.88276 0.0
C1053 C 0.75302 0.54925 0.90142 0.0
C1054 C 0.75776 0.50957 0.90869 0.0
H1055 H 0.74643 0.58133 0.88304 0.0
H1056 H 0.75345 0.58129 0.90616 0.0
C1057 C 0.75382 0.46954 0.90149 0.0
C1058 C 0.4938 0.3078 0.15158 0.0
C1059 C 0.49546 0.26739 0.1585 0.0
H1060 H 0.48893 0.3399 0.13274 0.0
C1061 C 0.50037 0.22787 0.15126 0.0
H1062 H 0.48886 0.3387 0.15688 0.0
C1063 C 0.50115 0.22862 0.13743 0.0
C1064 C 0.49654 0.26889 0.13051 0.0
H1065 H 0.5006 0.19622 0.15629 0.0
H1066 H 0.5017 0.19748 0.13213 0.0
C1067 C 0.49396 0.30851 0.13777 0.0
C1068 C 0.75515 0.06441 0.38776 0.0
C1069 C 0.76037 0.0245 0.38054 0.0
H1070 H 0.7423 0.09566 0.4065 0.0
C1071 C 0.75694 0.9847 0.3878 0.0
H1072 H 0.7576 0.09615 0.38286 0.0
C1073 C 0.75048 0.98449 0.40145 0.0
C1074 C 0.74421 0.024 0.40873 0.0
H1075 H 0.7585 0.9527 0.38306 0.0
H1076 H 0.75104 0.95245 0.40619 0.0
C1077 C 0.74691 0.06416 0.40155 0.0
C1078 C 0.99724 0.22763 0.65131 0.0
C1079 C 0.99889 0.26811 0.6582 0.0
H1080 H 0.00022 0.19513 0.6325 0.0
C1081 C 0.9977 0.30771 0.65089 0.0
H1082 H 0.99961 0.19659 0.65663 0.0
C1083 C 0.99735 0.30687 0.63706 0.0
C1084 C 0.99885 0.26639 0.63017 0.0
H1085 H 0.00035 0.33936 0.65588 0.0
H1086 H 0.99984 0.33791 0.63174 0.0
C1087 C 0.99758 0.22679 0.63748 0.0
C1088 C 0.38462 0.17102 0.27121 0.0
C1089 C 0.34965 0.13485 0.26853 0.0
H1090 H 0.42918 0.22713 0.26375 0.0
C1091 C 0.33754 0.12638 0.25525 0.0
H1092 H 0.39444 0.17926 0.28128 0.0
C1093 C 0.35982 0.15279 0.24509 0.0
C1094 C 0.39427 0.18934 0.24776 0.0
H1095 H 0.31111 0.09895 0.25269 0.0
H1096 H 0.34913 0.14508 0.23504 0.0
C1097 C 0.40566 0.19819 0.26107 0.0
C1098 C 0.88789 0.91209 0.52925 0.0
C1099 C 0.84786 0.89675 0.52036 0.0
H1100 H 0.9372 0.8982 0.54634 0.0
C1101 C 0.83118 0.8522 0.52163 0.0
H1102 H 0.90243 0.94594 0.52856 0.0
C1103 C 0.85277 0.82438 0.5315 0.0
C1104 C 0.89026 0.84039 0.54089 0.0
H1105 H 0.80161 0.83861 0.51485 0.0
H1106 H 0.83881 0.79034 0.53203 0.0
C1107 C 0.90829 0.88454 0.53941 0.0
C1108 C 0.14673 0.32473 0.75731 0.0
C1109 C 0.10917 0.34079 0.74796 0.0
H1110 H 0.19799 0.33883 0.77396 0.0
C1111 C 0.09109 0.3849 0.74949 0.0
H1112 H 0.16075 0.29072 0.75675 0.0
C1113 C 0.11152 0.41236 0.75967 0.0
C1114 C 0.15162 0.39697 0.76852 0.0
H1115 H 0.06213 0.39859 0.74258 0.0
H1116 H 0.09695 0.44617 0.76039 0.0
C1117 C 0.16835 0.35246 0.76721 0.0
C1118 C 0.66824 0.68069 1.02153 0.0
C1119 C 0.65119 0.63626 1.02019 0.0
H1120 H 0.6612 0.74233 0.03207 0.0
C1121 C 0.61073 0.62103 1.02899 0.0
H1122 H 0.69821 0.69418 1.01482 0.0
C1123 C 0.59033 0.64853 0.03916 0.0
C1124 C 0.60878 0.69253 0.04073 0.0
H1125 H 0.59593 0.58728 1.02825 0.0
H1126 H 0.56121 0.63492 0.04606 0.0
C1127 C 0.64667 0.70847 0.03142 0.0
C1128 C 0.35257 0.32357 0.03112 0.0
C1129 C 0.38965 0.33958 0.0406 0.0
H1130 H 0.30176 0.3379 1.01441 0.0
C1131 C 0.4074 0.38385 0.03923 0.0
H1132 H 0.33881 0.28947 0.03157 0.0
C1133 C 0.3871 0.41151 1.02908 0.0
C1134 C 0.34743 0.39615 1.02011 0.0
H1135 H 0.43597 0.39751 0.04624 0.0
H1136 H 0.40138 0.44544 1.02848 0.0
C1137 C 0.33106 0.35149 1.02126 0.0
C1138 C 0.66042 0.91031 0.25554 0.0
C1139 C 0.64985 0.90061 0.26882 0.0
H1140 H 0.64762 0.89278 0.23529 0.0
C1141 C 0.61631 0.86352 0.27148 0.0
H1142 H 0.68569 0.93849 0.25301 0.0
C1143 C 0.59531 0.83657 0.26128 0.0
C1144 C 0.60523 0.84657 0.24797 0.0
H1145 H 0.60767 0.85443 0.28154 0.0
H1146 H 0.57308 0.8069 0.26392 0.0
C1147 C 0.63809 0.88414 0.24534 0.0
C1148 C 0.16991 0.18133 0.52128 0.0
C1149 C 0.15243 0.13703 0.51987 0.0
H1150 H 0.16317 0.24291 0.53186 0.0
C1151 C 0.11159 0.12198 0.5286 0.0
H1152 H 0.20017 0.19471 0.51463 0.0
C1153 C 0.0912 0.14951 0.53876 0.0
C1154 C 0.11005 0.19336 0.54039 0.0
H1155 H 0.09646 0.08835 0.5278 0.0
H1156 H 0.06171 0.13604 0.54559 0.0
C1157 C 0.14837 0.20914 0.53116 0.0
C1158 C 0.90848 0.64973 0.75007 0.0
C1159 C 0.88959 0.69358 0.74849 0.0
H1160 H 0.90335 0.58844 0.76099 0.0
C1161 C 0.85136 0.70923 0.75775 0.0
H1162 H 0.93791 0.63636 0.74321 0.0
C1163 C 0.82993 0.68128 0.76762 0.0
C1164 C 0.84744 0.63699 0.76899 0.0
H1165 H 0.83657 0.743 0.7571 0.0
H1166 H 0.79973 0.69455 0.7743 0.0
C1167 C 0.8882 0.62207 0.76023 0.0
loop_
_geom_bond_atom_site_label_1
_geom_bond_atom_site_label_2
_geom_bond_distance
_geom_bond_site_symmetry_2
_ccdc_geom_bond_type
C0 C1 1.443 . S
C0 N4 1.376 . S
C0 C38 1.389 . S
C1 C0 1.443 . S
C1 C2 1.340 . S
C1 H41 0.951 . S
C2 C1 1.340 . S
C2 C3 1.439 . S
C2 H42 0.950 . S
C3 C2 1.439 . S
C3 N4 1.374 . S
C3 C37 1.395 . S
N4 C0 1.376 . S
N4 C3 1.374 . S
N4 Co5 2.008 . S
Co5 N4 2.008 . S
Co5 N6 1.995 . S
Co5 N11 2.008 . S
Co5 N16 1.995 . S
Co5 N21 2.282 . S
Co5 N27 2.282 . S
N6 Co5 1.995 . S
N6 C7 1.376 . S
N6 C10 1.383 . S
C7 N6 1.376 . S
C7 C8 1.446 . S
C7 C37 1.391 . S
C8 C7 1.446 . S
C8 C9 1.339 . S
C8 H43 0.949 . S
C9 C8 1.339 . S
C9 C10 1.439 . S
C9 H44 0.950 . S
C10 N6 1.383 . S
C10 C9 1.439 . S
C10 C39 1.392 . S
N11 Co5 2.008 . S
N11 C12 1.376 . S
N11 C15 1.374 1_545 S
C12 N11 1.376 . S
C12 C13 1.443 1_545 S
C12 C39 1.389 . S
C13 C12 1.443 1_565 S
C13 C14 1.340 . S
C13 H45 0.951 . S
C14 C13 1.340 . S
C14 C15 1.439 . S
C14 H46 0.950 . S
C15 N11 1.374 1_565 S
C15 C14 1.439 . S
C15 C40 1.395 . S
N16 Co5 1.995 . S
N16 C17 1.376 1_545 S
N16 C20 1.383 . S
C17 N16 1.376 1_565 S
C17 C18 1.446 . S
C17 C40 1.391 . S
C18 C17 1.446 . S
C18 C19 1.339 . S
C18 H47 0.949 . S
C19 C18 1.339 . S
C19 C20 1.439 1_565 S
C19 H48 0.950 . S
C20 N16 1.383 . S
C20 C19 1.439 1_545 S
C20 C38 1.392 . S
N21 Co5 2.282 . S
N21 C24 1.332 . S
N21 C26 1.332 . S
C22 C23 1.386 1_545 S
C22 C25 1.388 . S
C23 C22 1.386 1_565 S
C23 C24 1.382 1_565 S
C23 H49 0.950 . S
C24 N21 1.332 . S
C24 C23 1.382 1_545 S
C24 H35 0.952 1_545 S
C25 C22 1.388 . S
C25 C26 1.382 . S
C25 H50 0.950 . S
C26 N21 1.332 . S
C26 C25 1.382 . S
C26 H36 0.948 . S
N27 Co5 2.282 . S
N27 C31 1.332 . S
N27 C32 1.332 . S
C28 C29 1.388 . S
C28 C32 1.382 . S
C28 H51 0.950 . S
C29 C28 1.388 . S
C29 C30 1.386 . S
C30 C29 1.386 . S
C30 C31 1.382 . S
C30 H52 0.950 . S
C31 N27 1.332 . S
C31 C30 1.382 . S
C31 H33 0.952 . S
C32 N27 1.332 . S
C32 C28 1.382 . S
C32 H34 0.948 . S
H33 C31 0.952 . S
H34 C32 0.948 . S
H35 C24 0.952 1_565 S
H36 C26 0.948 . S
C37 C3 1.395 . S
C37 C7 1.391 . S
C38 C0 1.389 . S
C38 C20 1.392 . S
C39 C10 1.392 . S
C39 C12 1.389 . S
C40 C15 1.395 . S
C40 C17 1.391 . S
H41 C1 0.951 . S
H42 C2 0.950 . S
H43 C8 0.949 . S
H44 C9 0.950 . S
H45 C13 0.951 . S
H46 C14 0.950 . S
H47 C18 0.949 . S
H48 C19 0.950 . S
H49 C23 0.950 . S
H50 C25 0.950 . S
H51 C28 0.950 . S
H52 C30 0.950 . S
C53 C54 1.443 1_655 S
C53 N57 1.376 1_655 S
C53 C91 1.389 . S
C54 C53 1.443 1_455 S
C54 C55 1.340 . S
C54 H94 0.951 . S
C55 C54 1.340 . S
C55 C56 1.439 . S
C55 H95 0.950 . S
C56 C55 1.439 . S
C56 N57 1.374 . S
C56 C90 1.395 . S
N57 C53 1.376 1_455 S
N57 C56 1.374 . S
N57 Co58 2.008 1_455 S
Co58 N57 2.008 1_655 S
Co58 N59 1.995 1_655 S
Co58 N64 2.008 . S
Co58 N69 1.995 . S
Co58 N74 2.282 . S
Co58 N80 2.282 . S
N59 Co58 1.995 1_455 S
N59 C60 1.376 . S
N59 C63 1.383 . S
C60 N59 1.376 . S
C60 C61 1.446 . S
C60 C90 1.391 . S
C61 C60 1.446 . S
C61 C62 1.339 . S
C61 H96 0.949 . S
C62 C61 1.339 . S
C62 C63 1.439 . S
C62 H97 0.950 . S
C63 N59 1.383 . S
C63 C62 1.439 . S
C63 C92 1.392 1_455 S
N64 Co58 2.008 . S
N64 C65 1.376 . S
N64 C68 1.374 . S
C65 N64 1.376 . S
C65 C66 1.443 . S
C65 C92 1.389 . S
C66 C65 1.443 . S
C66 C67 1.340 . S
C66 H98 0.951 . S
C67 C66 1.340 . S
C67 C68 1.439 . S
C67 H99 0.950 . S
C68 N64 1.374 . S
C68 C67 1.439 . S
C68 C93 1.395 . S
N69 Co58 1.995 . S
N69 C70 1.376 . S
N69 C73 1.383 . S
C70 N69 1.376 . S
C70 C71 1.446 . S
C70 C93 1.391 . S
C71 C70 1.446 . S
C71 C72 1.339 . S
C71 H100 0.949 . S
C72 C71 1.339 . S
C72 C73 1.439 . S
C72 H101 0.950 . S
C73 N69 1.383 . S
C73 C72 1.439 . S
C73 C91 1.392 . S
N74 Co58 2.282 . S
N74 C77 1.332 . S
N74 C79 1.332 1_655 S
C75 C76 1.386 . S
C75 C78 1.388 1_655 S
C76 C75 1.386 . S
C76 C77 1.382 . S
C76 H102 0.950 . S
C77 N74 1.332 . S
C77 C76 1.382 . S
C77 H88 0.952 . S
C78 C75 1.388 1_455 S
C78 C79 1.382 . S
C78 H103 0.950 . S
C79 N74 1.332 1_455 S
C79 C78 1.382 . S
C79 H89 0.948 . S
N80 Co58 2.282 . S
N80 C84 1.330 1_655 S
N80 C85 1.332 . S
C81 C82 1.388 . S
C81 C85 1.382 . S
C81 H104 0.950 . S
C82 C81 1.388 . S
C82 C83 1.386 1_655 S
C83 C82 1.386 1_455 S
C83 C84 1.382 . S
C83 H105 0.950 . S
C84 N80 1.330 1_455 S
C84 C83 1.382 . S
C84 H86 0.953 . S
C85 N80 1.332 . S
C85 C81 1.382 . S
C85 H87 0.948 . S
H86 C84 0.953 . S
H87 C85 0.948 . S
H88 C77 0.952 . S
H89 C79 0.948 . S
C90 C56 1.395 . S
C90 C60 1.391 . S
C91 C53 1.389 . S
C91 C73 1.392 . S
C92 C63 1.392 1_655 S
C92 C65 1.389 . S
C93 C68 1.395 . S
C93 C70 1.391 . S
H94 C54 0.951 . S
H95 C55 0.950 . S
H96 C61 0.949 . S
H97 C62 0.950 . S
H98 C66 0.951 . S
H99 C67 0.950 . S
H100 C71 0.949 . S
H101 C72 0.950 . S
H102 C76 0.950 . S
H103 C78 0.950 . S
H104 C81 0.950 . S
H105 C83 0.950 . S
C106 C107 1.443 . S
C106 N110 1.376 . S
C106 C144 1.389 . S
C107 C106 1.443 . S
C107 C108 1.340 . S
C107 H147 0.951 . S
C108 C107 1.340 . S
C108 C109 1.439 . S
C108 H148 0.950 . S
C109 C108 1.439 . S
C109 N110 1.374 . S
C109 C143 1.395 . S
N110 C106 1.376 . S
N110 C109 1.374 . S
N110 Co111 2.008 . S
Co111 N110 2.008 . S
Co111 N112 1.995 . S
Co111 N117 2.008 . S
Co111 N122 1.995 . S
Co111 N127 2.282 . S
Co111 N133 2.282 . S
N112 Co111 1.995 . S
N112 C113 1.376 . S
N112 C116 1.383 . S
C113 N112 1.376 . S
C113 C114 1.446 . S
C113 C143 1.391 . S
C114 C113 1.446 . S
C114 C115 1.339 . S
C114 H149 0.949 . S
C115 C114 1.339 . S
C115 C116 1.439 . S
C115 H150 0.950 . S
C116 N112 1.383 . S
C116 C115 1.439 . S
C116 C145 1.392 . S
N117 Co111 2.008 . S
N117 C118 1.376 . S
N117 C121 1.374 . S
C118 N117 1.376 . S
C118 C119 1.443 . S
C118 C145 1.389 . S
C119 C118 1.443 . S
C119 C120 1.340 . S
C119 H151 0.951 . S
C120 C119 1.340 . S
C120 C121 1.439 . S
C120 H152 0.950 . S
C121 N117 1.374 . S
C121 C120 1.439 . S
C121 C146 1.395 . S
N122 Co111 1.995 . S
N122 C123 1.376 . S
N122 C126 1.383 . S
C123 N122 1.376 . S
C123 C124 1.446 . S
C123 C146 1.391 . S
C124 C123 1.446 . S
C124 C125 1.339 . S
C124 H153 0.949 . S
C125 C124 1.339 . S
C125 C126 1.439 . S
C125 H154 0.950 . S
C126 N122 1.383 . S
C126 C125 1.439 . S
C126 C144 1.392 . S
N127 Co111 2.282 . S
N127 C130 1.332 . S
N127 C132 1.332 . S
C128 C129 1.386 . S
C128 C131 1.388 . S
C129 C128 1.386 . S
C129 C130 1.382 . S
C129 H155 0.950 . S
C130 N127 1.332 . S
C130 C129 1.382 . S
C130 H141 0.952 . S
C131 C128 1.388 . S
C131 C132 1.382 . S
C131 H156 0.950 . S
C132 N127 1.332 . S
C132 C131 1.382 . S
C132 H142 0.948 . S
N133 Co111 2.282 . S
N133 C137 1.332 . S
N133 C138 1.332 . S
C134 C135 1.388 . S
C134 C138 1.382 . S
C134 H157 0.950 . S
C135 C134 1.388 . S
C135 C136 1.386 . S
C136 C135 1.386 . S
C136 C137 1.382 . S
C136 H158 0.950 . S
C137 N133 1.332 . S
C137 C136 1.382 . S
C137 H139 0.952 . S
C138 N133 1.332 . S
C138 C134 1.382 . S
C138 H140 0.948 . S
H139 C137 0.952 . S
H140 C138 0.948 . S
H141 C130 0.952 . S
H142 C132 0.948 . S
C143 C109 1.395 . S
C143 C113 1.391 . S
C144 C106 1.389 . S
C144 C126 1.392 . S
C145 C116 1.392 . S
C145 C118 1.389 . S
C146 C121 1.395 . S
C146 C123 1.391 . S
H147 C107 0.951 . S
H148 C108 0.950 . S
H149 C114 0.949 . S
H150 C115 0.950 . S
H151 C119 0.951 . S
H152 C120 0.950 . S
H153 C124 0.949 . S
H154 C125 0.950 . S
H155 C129 0.950 . S
H156 C131 0.950 . S
H157 C134 0.950 . S
H158 C136 0.950 . S
C159 C160 1.443 . S
C159 N163 1.376 . S
C159 C197 1.389 . S
C160 C159 1.443 . S
C160 C161 1.340 . S
C160 H200 0.951 . S
C161 C160 1.340 . S
C161 C162 1.439 . S
C161 H201 0.950 . S
C162 C161 1.439 . S
C162 N163 1.374 . S
C162 C196 1.395 . S
N163 C159 1.376 . S
N163 C162 1.374 . S
N163 Co164 2.008 . S
Co164 N163 2.008 . S
Co164 N165 1.995 . S
Co164 N170 2.008 . S
Co164 N175 1.995 . S
Co164 N180 2.282 . S
Co164 N186 2.282 . S
N165 Co164 1.995 . S
N165 C166 1.376 . S
N165 C169 1.383 . S
C166 N165 1.376 . S
C166 C167 1.446 . S
C166 C196 1.391 . S
C167 C166 1.446 . S
C167 C168 1.339 . S
C167 H202 0.949 . S
C168 C167 1.339 . S
C168 C169 1.439 . S
C168 H203 0.950 . S
C169 N165 1.383 . S
C169 C168 1.439 . S
C169 C198 1.392 . S
N170 Co164 2.008 . S
N170 C171 1.376 . S
N170 C174 1.374 . S
C171 N170 1.376 . S
C171 C172 1.443 . S
C171 C198 1.389 . S
C172 C171 1.443 . S
C172 C173 1.340 . S
C172 H204 0.951 . S
C173 C172 1.340 . S
C173 C174 1.439 . S
C173 H205 0.950 . S
C174 N170 1.374 . S
C174 C173 1.439 . S
C174 C199 1.395 . S
N175 Co164 1.995 . S
N175 C176 1.376 . S
N175 C179 1.383 . S
C176 N175 1.376 . S
C176 C177 1.446 . S
C176 C199 1.391 . S
C177 C176 1.446 . S
C177 C178 1.339 . S
C177 H206 0.949 . S
C178 C177 1.339 . S
C178 C179 1.439 . S
C178 H207 0.950 . S
C179 N175 1.383 . S
C179 C178 1.439 . S
C179 C197 1.392 . S
N180 Co164 2.282 . S
N180 C183 1.332 . S
N180 C185 1.332 . S
C181 C182 1.386 . S
C181 C184 1.388 . S
C182 C181 1.386 . S
C182 C183 1.382 . S
C182 H208 0.950 . S
C183 N180 1.332 . S
C183 C182 1.382 . S
C183 H194 0.952 . S
C184 C181 1.388 . S
C184 C185 1.382 . S
C184 H209 0.950 . S
C185 N180 1.332 . S
C185 C184 1.382 . S
C185 H195 0.948 . S
N186 Co164 2.282 . S
N186 C190 1.332 . S
N186 C191 1.332 . S
C187 C188 1.388 . S
C187 C191 1.382 . S
C187 H210 0.950 . S
C188 C187 1.388 . S
C188 C189 1.386 . S
C189 C188 1.386 . S
C189 C190 1.382 . S
C189 H211 0.950 . S
C190 N186 1.332 . S
C190 C189 1.382 . S
C190 H192 0.952 . S
C191 N186 1.332 . S
C191 C187 1.382 . S
C191 H193 0.948 . S
H192 C190 0.952 . S
H193 C191 0.948 . S
H194 C183 0.952 . S
H195 C185 0.948 . S
C196 C162 1.395 . S
C196 C166 1.391 . S
C197 C159 1.389 . S
C197 C179 1.392 . S
C198 C169 1.392 . S
C198 C171 1.389 . S
C199 C174 1.395 . S
C199 C176 1.391 . S
H200 C160 0.951 . S
H201 C161 0.950 . S
H202 C167 0.949 . S
H203 C168 0.950 . S
H204 C172 0.951 . S
H205 C173 0.950 . S
H206 C177 0.949 . S
H207 C178 0.950 . S
H208 C182 0.950 . S
H209 C184 0.950 . S
H210 C187 0.950 . S
H211 C189 0.950 . S
C212 C213 1.443 . S
C212 N216 1.376 . S
C212 C250 1.389 . S
C213 C212 1.443 . S
C213 C214 1.340 . S
C213 H253 0.951 . S
C214 C213 1.340 . S
C214 C215 1.439 . S
C214 H254 0.950 . S
C215 C214 1.439 . S
C215 N216 1.374 . S
C215 C249 1.395 . S
N216 C212 1.376 . S
N216 C215 1.374 . S
N216 Co217 2.008 . S
Co217 N216 2.008 . S
Co217 N218 1.995 . S
Co217 N223 2.008 . S
Co217 N228 1.995 . S
Co217 N233 2.282 . S
Co217 N239 2.282 . S
N218 Co217 1.995 . S
N218 C219 1.376 . S
N218 C222 1.383 . S
C219 N218 1.376 . S
C219 C220 1.446 . S
C219 C249 1.391 . S
C220 C219 1.446 . S
C220 C221 1.339 . S
C220 H255 0.949 . S
C221 C220 1.339 . S
C221 C222 1.439 . S
C221 H256 0.950 . S
C222 N218 1.383 . S
C222 C221 1.439 . S
C222 C251 1.392 . S
N223 Co217 2.008 . S
N223 C224 1.376 . S
N223 C227 1.374 . S
C224 N223 1.376 . S
C224 C225 1.443 . S
C224 C251 1.389 . S
C225 C224 1.443 . S
C225 C226 1.340 . S
C225 H257 0.951 . S
C226 C225 1.340 . S
C226 C227 1.439 . S
C226 H258 0.950 . S
C227 N223 1.374 . S
C227 C226 1.439 . S
C227 C252 1.395 . S
N228 Co217 1.995 . S
N228 C229 1.376 . S
N228 C232 1.383 . S
C229 N228 1.376 . S
C229 C230 1.446 . S
C229 C252 1.391 . S
C230 C229 1.446 . S
C230 C231 1.339 . S
C230 H259 0.949 . S
C231 C230 1.339 . S
C231 C232 1.439 . S
C231 H260 0.950 . S
C232 N228 1.383 . S
C232 C231 1.439 . S
C232 C250 1.392 . S
N233 Co217 2.282 . S
N233 C236 1.332 . S
N233 C238 1.332 . S
C234 C235 1.386 . S
C234 C237 1.388 . S
C235 C234 1.386 . S
C235 C236 1.382 . S
C235 H261 0.950 . S
C236 N233 1.332 . S
C236 C235 1.382 . S
C236 H247 0.952 . S
C237 C234 1.388 . S
C237 C238 1.382 . S
C237 H262 0.950 . S
C238 N233 1.332 . S
C238 C237 1.382 . S
C238 H248 0.948 . S
N239 Co217 2.282 . S
N239 C243 1.332 . S
N239 C244 1.332 . S
C240 C241 1.388 . S
C240 C244 1.382 . S
C240 H263 0.950 . S
C241 C240 1.388 . S
C241 C242 1.386 . S
C242 C241 1.386 . S
C242 C243 1.382 . S
C242 H264 0.950 . S
C243 N239 1.332 . S
C243 C242 1.382 . S
C243 H245 0.952 . S
C244 N239 1.332 . S
C244 C240 1.382 . S
C244 H246 0.948 . S
H245 C243 0.952 . S
H246 C244 0.948 . S
H247 C236 0.952 . S
H248 C238 0.948 . S
C249 C215 1.395 . S
C249 C219 1.391 . S
C250 C212 1.389 . S
C250 C232 1.392 . S
C251 C222 1.392 . S
C251 C224 1.389 . S
C252 C227 1.395 . S
C252 C229 1.391 . S
H253 C213 0.951 . S
H254 C214 0.950 . S
H255 C220 0.949 . S
H256 C221 0.950 . S
H257 C225 0.951 . S
H258 C226 0.950 . S
H259 C230 0.949 . S
H260 C231 0.950 . S
H261 C235 0.950 . S
H262 C237 0.950 . S
H263 C240 0.950 . S
H264 C242 0.950 . S
C265 C266 1.443 . S
C265 N269 1.376 . S
C265 C303 1.389 . S
C266 C265 1.443 . S
C266 C267 1.340 . S
C266 H306 0.951 . S
C267 C266 1.340 . S
C267 C268 1.439 . S
C267 H307 0.950 . S
C268 C267 1.439 . S
C268 N269 1.374 . S
C268 C302 1.395 . S
N269 C265 1.376 . S
N269 C268 1.374 . S
N269 Co270 2.008 . S
Co270 N269 2.008 . S
Co270 N271 1.995 . S
Co270 N276 2.008 . S
Co270 N281 1.995 . S
Co270 N286 2.282 . S
Co270 N292 2.282 . S
N271 Co270 1.995 . S
N271 C272 1.376 . S
N271 C275 1.383 . S
C272 N271 1.376 . S
C272 C273 1.446 . S
C272 C302 1.391 . S
C273 C272 1.446 . S
C273 C274 1.339 . S
C273 H308 0.949 . S
C274 C273 1.339 . S
C274 C275 1.439 . S
C274 H309 0.950 . S
C275 N271 1.383 . S
C275 C274 1.439 . S
C275 C304 1.392 . S
N276 Co270 2.008 . S
N276 C277 1.376 . S
N276 C280 1.374 . S
C277 N276 1.376 . S
C277 C278 1.443 . S
C277 C304 1.389 . S
C278 C277 1.443 . S
C278 C279 1.340 . S
C278 H310 0.951 . S
C279 C278 1.340 . S
C279 C280 1.439 . S
C279 H311 0.950 . S
C280 N276 1.374 . S
C280 C279 1.439 . S
C280 C305 1.395 . S
N281 Co270 1.995 . S
N281 C282 1.376 . S
N281 C285 1.383 . S
C282 N281 1.376 . S
C282 C283 1.446 . S
C282 C305 1.391 . S
C283 C282 1.446 . S
C283 C284 1.339 . S
C283 H312 0.949 . S
C284 C283 1.339 . S
C284 C285 1.439 . S
C284 H313 0.950 . S
C285 N281 1.383 . S
C285 C284 1.439 . S
C285 C303 1.392 . S
N286 Co270 2.282 . S
N286 C289 1.332 . S
N286 C291 1.332 . S
C287 C288 1.386 . S
C287 C290 1.388 . S
C288 C287 1.386 . S
C288 C289 1.382 . S
C288 H314 0.950 . S
C289 N286 1.332 . S
C289 C288 1.382 . S
C289 H300 0.952 . S
C290 C287 1.388 . S
C290 C291 1.382 . S
C290 H315 0.950 . S
C291 N286 1.332 . S
C291 C290 1.382 . S
C291 H301 0.948 . S
N292 Co270 2.282 . S
N292 C296 1.332 . S
N292 C297 1.332 . S
C293 C294 1.388 . S
C293 C297 1.382 . S
C293 H316 0.950 . S
C294 C293 1.388 . S
C294 C295 1.386 . S
C295 C294 1.386 . S
C295 C296 1.382 . S
C295 H317 0.950 . S
C296 N292 1.332 . S
C296 C295 1.382 . S
C296 H298 0.952 . S
C297 N292 1.332 . S
C297 C293 1.382 . S
C297 H299 0.948 . S
H298 C296 0.952 . S
H299 C297 0.948 . S
H300 C289 0.952 . S
H301 C291 0.948 . S
C302 C268 1.395 . S
C302 C272 1.391 . S
C303 C265 1.389 . S
C303 C285 1.392 . S
C304 C275 1.392 . S
C304 C277 1.389 . S
C305 C280 1.395 . S
C305 C282 1.391 . S
H306 C266 0.951 . S
H307 C267 0.950 . S
H308 C273 0.949 . S
H309 C274 0.950 . S
H310 C278 0.951 . S
H311 C279 0.950 . S
H312 C283 0.949 . S
H313 C284 0.950 . S
H314 C288 0.950 . S
H315 C290 0.950 . S
H316 C293 0.950 . S
H317 C295 0.950 . S
C318 C319 1.443 . S
C318 N322 1.376 . S
C318 C356 1.389 . S
C319 C318 1.443 . S
C319 C320 1.340 . S
C319 H359 0.951 . S
C320 C319 1.340 . S
C320 C321 1.439 . S
C320 H360 0.950 . S
C321 C320 1.439 . S
C321 N322 1.374 . S
C321 C355 1.395 . S
N322 C318 1.376 . S
N322 C321 1.374 . S
N322 Co323 2.008 . S
Co323 N322 2.008 . S
Co323 N324 1.995 . S
Co323 N329 2.008 . S
Co323 N334 1.995 . S
Co323 N339 2.282 . S
Co323 N345 2.282 . S
N324 Co323 1.995 . S
N324 C325 1.376 . S
N324 C328 1.383 . S
C325 N324 1.376 . S
C325 C326 1.446 . S
C325 C355 1.391 . S
C326 C325 1.446 . S
C326 C327 1.339 . S
C326 H361 0.949 . S
C327 C326 1.339 . S
C327 C328 1.439 . S
C327 H362 0.950 . S
C328 N324 1.383 . S
C328 C327 1.439 . S
C328 C357 1.392 . S
N329 Co323 2.008 . S
N329 C330 1.376 . S
N329 C333 1.374 1_545 S
C330 N329 1.376 . S
C330 C331 1.443 1_545 S
C330 C357 1.389 . S
C331 C330 1.443 1_565 S
C331 C332 1.340 . S
C331 H363 0.951 . S
C332 C331 1.340 . S
C332 C333 1.439 . S
C332 H364 0.950 . S
C333 N329 1.374 1_565 S
C333 C332 1.439 . S
C333 C358 1.395 . S
N334 Co323 1.995 . S
N334 C335 1.376 1_545 S
N334 C338 1.383 . S
C335 N334 1.376 1_565 S
C335 C336 1.446 . S
C335 C358 1.391 . S
C336 C335 1.446 . S
C336 C337 1.339 . S
C336 H365 0.949 . S
C337 C336 1.339 . S
C337 C338 1.439 1_565 S
C337 H366 0.950 . S
C338 N334 1.383 . S
C338 C337 1.439 1_545 S
C338 C356 1.392 . S
N339 Co323 2.282 . S
N339 C342 1.332 . S
N339 C344 1.332 . S
C340 C341 1.386 1_545 S
C340 C343 1.388 . S
C341 C340 1.386 1_565 S
C341 C342 1.382 1_565 S
C341 H367 0.950 . S
C342 N339 1.332 . S
C342 C341 1.382 1_545 S
C342 H353 0.952 1_545 S
C343 C340 1.388 . S
C343 C344 1.382 . S
C343 H368 0.950 . S
C344 N339 1.332 . S
C344 C343 1.382 . S
C344 H354 0.948 . S
N345 Co323 2.282 . S
N345 C349 1.332 . S
N345 C350 1.332 . S
C346 C347 1.388 . S
C346 C350 1.382 . S
C346 H369 0.950 . S
C347 C346 1.388 . S
C347 C348 1.386 . S
C348 C347 1.386 . S
C348 C349 1.382 . S
C348 H370 0.950 . S
C349 N345 1.332 . S
C349 C348 1.382 . S
C349 H351 0.952 . S
C350 N345 1.332 . S
C350 C346 1.382 . S
C350 H352 0.948 . S
H351 C349 0.952 . S
H352 C350 0.948 . S
H353 C342 0.952 1_565 S
H354 C344 0.948 . S
C355 C321 1.395 . S
C355 C325 1.391 . S
C356 C318 1.389 . S
C356 C338 1.392 . S
C357 C328 1.392 . S
C357 C330 1.389 . S
C358 C333 1.395 . S
C358 C335 1.391 . S
H359 C319 0.951 . S
H360 C320 0.950 . S
H361 C326 0.949 . S
H362 C327 0.950 . S
H363 C331 0.951 . S
H364 C332 0.950 . S
H365 C336 0.949 . S
H366 C337 0.950 . S
H367 C341 0.950 . S
H368 C343 0.950 . S
H369 C346 0.950 . S
H370 C348 0.950 . S
C371 C372 1.443 1_655 S
C371 N375 1.376 1_655 S
C371 C409 1.389 . S
C372 C371 1.443 1_455 S
C372 C373 1.340 . S
C372 H412 0.951 . S
C373 C372 1.340 . S
C373 C374 1.439 . S
C373 H413 0.950 . S
C374 C373 1.439 . S
C374 N375 1.374 . S
C374 C408 1.395 . S
N375 C371 1.376 1_455 S
N375 C374 1.374 . S
N375 Co376 2.008 1_455 S
Co376 N375 2.008 1_655 S
Co376 N377 1.995 1_655 S
Co376 N382 2.008 . S
Co376 N387 1.995 . S
Co376 N392 2.282 . S
Co376 N398 2.282 . S
N377 Co376 1.995 1_455 S
N377 C378 1.376 . S
N377 C381 1.383 . S
C378 N377 1.376 . S
C378 C379 1.446 . S
C378 C408 1.391 . S
C379 C378 1.446 . S
C379 C380 1.339 . S
C379 H414 0.949 . S
C380 C379 1.339 . S
C380 C381 1.439 . S
C380 H415 0.950 . S
C381 N377 1.383 . S
C381 C380 1.439 . S
C381 C410 1.392 1_455 S
N382 Co376 2.008 . S
N382 C383 1.376 . S
N382 C386 1.374 . S
C383 N382 1.376 . S
C383 C384 1.443 . S
C383 C410 1.389 . S
C384 C383 1.443 . S
C384 C385 1.340 . S
C384 H416 0.951 . S
C385 C384 1.340 . S
C385 C386 1.439 . S
C385 H417 0.950 . S
C386 N382 1.374 . S
C386 C385 1.439 . S
C386 C411 1.395 . S
N387 Co376 1.995 . S
N387 C388 1.376 . S
N387 C391 1.383 . S
C388 N387 1.376 . S
C388 C389 1.446 . S
C388 C411 1.391 . S
C389 C388 1.446 . S
C389 C390 1.339 . S
C389 H418 0.949 . S
C390 C389 1.339 . S
C390 C391 1.439 . S
C390 H419 0.950 . S
C391 N387 1.383 . S
C391 C390 1.439 . S
C391 C409 1.392 . S
N392 Co376 2.282 . S
N392 C395 1.332 . S
N392 C397 1.332 1_655 S
C393 C394 1.386 . S
C393 C396 1.388 1_655 S
C394 C393 1.386 . S
C394 C395 1.382 . S
C394 H420 0.950 . S
C395 N392 1.332 . S
C395 C394 1.382 . S
C395 H406 0.952 . S
C396 C393 1.388 1_455 S
C396 C397 1.382 . S
C396 H421 0.950 . S
C397 N392 1.332 1_455 S
C397 C396 1.382 . S
C397 H407 0.948 . S
N398 Co376 2.282 . S
N398 C402 1.322 1_655 S
N398 C403 1.332 . S
C399 C400 1.388 . S
C399 C403 1.382 . S
C399 H422 0.950 . S
C400 C399 1.388 . S
C400 C401 1.386 1_655 S
C401 C400 1.386 1_455 S
C401 C402 1.382 . S
C401 H423 0.950 . S
C402 N398 1.322 1_455 S
C402 C401 1.382 . S
C402 H404 0.961 . S
C403 N398 1.332 . S
C403 C399 1.382 . S
C403 H405 0.948 . S
H404 C402 0.961 . S
H405 C403 0.948 . S
H406 C395 0.952 . S
H407 C397 0.948 . S
C408 C374 1.395 . S
C408 C378 1.391 . S
C409 C371 1.389 . S
C409 C391 1.392 . S
C410 C381 1.392 1_655 S
C410 C383 1.389 . S
C411 C386 1.395 . S
C411 C388 1.391 . S
H412 C372 0.951 . S
H413 C373 0.950 . S
H414 C379 0.949 . S
H415 C380 0.950 . S
H416 C384 0.951 . S
H417 C385 0.950 . S
H418 C389 0.949 . S
H419 C390 0.950 . S
H420 C394 0.950 . S
H421 C396 0.950 . S
H422 C399 0.950 . S
H423 C401 0.950 . S
C424 C425 1.443 . S
C424 N428 1.376 . S
C424 C462 1.389 . S
C425 C424 1.443 . S
C425 C426 1.340 . S
C425 H465 0.951 . S
C426 C425 1.340 . S
C426 C427 1.439 . S
C426 H466 0.950 . S
C427 C426 1.439 . S
C427 N428 1.374 . S
C427 C461 1.395 . S
N428 C424 1.376 . S
N428 C427 1.374 . S
N428 Co429 2.008 . S
Co429 N428 2.008 . S
Co429 N430 1.995 . S
Co429 N435 2.008 . S
Co429 N440 1.995 . S
Co429 N445 2.282 . S
Co429 N451 2.282 . S
N430 Co429 1.995 . S
N430 C431 1.376 . S
N430 C434 1.383 . S
C431 N430 1.376 . S
C431 C432 1.446 . S
C431 C461 1.391 . S
C432 C431 1.446 . S
C432 C433 1.339 . S
C432 H467 0.949 . S
C433 C432 1.339 . S
C433 C434 1.439 . S
C433 H468 0.950 . S
C434 N430 1.383 . S
C434 C433 1.439 . S
C434 C463 1.392 . S
N435 Co429 2.008 . S
N435 C436 1.376 . S
N435 C439 1.374 . S
C436 N435 1.376 . S
C436 C437 1.443 . S
C436 C463 1.389 . S
C437 C436 1.443 . S
C437 C438 1.340 . S
C437 H469 0.951 . S
C438 C437 1.340 . S
C438 C439 1.439 . S
C438 H470 0.950 . S
C439 N435 1.374 . S
C439 C438 1.439 . S
C439 C464 1.395 . S
N440 Co429 1.995 . S
N440 C441 1.376 . S
N440 C444 1.383 . S
C441 N440 1.376 . S
C441 C442 1.446 . S
C441 C464 1.391 . S
C442 C441 1.446 . S
C442 C443 1.339 . S
C442 H471 0.949 . S
C443 C442 1.339 . S
C443 C444 1.439 . S
C443 H472 0.950 . S
C444 N440 1.383 . S
C444 C443 1.439 . S
C444 C462 1.392 . S
N445 Co429 2.282 . S
N445 C448 1.332 . S
N445 C450 1.332 . S
C446 C447 1.386 . S
C446 C449 1.388 . S
C447 C446 1.386 . S
C447 C448 1.382 . S
C447 H473 0.950 . S
C448 N445 1.332 . S
C448 C447 1.382 . S
C448 H459 0.952 . S
C449 C446 1.388 . S
C449 C450 1.382 . S
C449 H474 0.950 . S
C450 N445 1.332 . S
C450 C449 1.382 . S
C450 H460 0.948 . S
N451 Co429 2.282 . S
N451 C455 1.332 . S
N451 C456 1.332 . S
C452 C453 1.388 . S
C452 C456 1.382 . S
C452 H475 0.950 . S
C453 C452 1.388 . S
C453 C454 1.386 . S
C454 C453 1.386 . S
C454 C455 1.382 . S
C454 H476 0.950 . S
C455 N451 1.332 . S
C455 C454 1.382 . S
C455 H457 0.952 . S
C456 N451 1.332 . S
C456 C452 1.382 . S
C456 H458 0.948 . S
H457 C455 0.952 . S
H458 C456 0.948 . S
H459 C448 0.952 . S
H460 C450 0.948 . S
C461 C427 1.395 . S
C461 C431 1.391 . S
C462 C424 1.389 . S
C462 C444 1.392 . S
C463 C434 1.392 . S
C463 C436 1.389 . S
C464 C439 1.395 . S
C464 C441 1.391 . S
H465 C425 0.951 . S
H466 C426 0.950 . S
H467 C432 0.949 . S
H468 C433 0.950 . S
H469 C437 0.951 . S
H470 C438 0.950 . S
H471 C442 0.949 . S
H472 C443 0.950 . S
H473 C447 0.950 . S
H474 C449 0.950 . S
H475 C452 0.950 . S
H476 C454 0.950 . S
C477 C478 1.443 . S
C477 N481 1.376 . S
C477 C515 1.389 . S
C478 C477 1.443 . S
C478 C479 1.340 . S
C478 H518 0.951 . S
C479 C478 1.340 . S
C479 C480 1.439 . S
C479 H519 0.950 . S
C480 C479 1.439 . S
C480 N481 1.374 . S
C480 C514 1.395 . S
N481 C477 1.376 . S
N481 C480 1.374 . S
N481 Co482 2.008 . S
Co482 N481 2.008 . S
Co482 N483 1.995 . S
Co482 N488 2.008 . S
Co482 N493 1.995 . S
Co482 N498 2.282 . S
Co482 N504 2.282 . S
N483 Co482 1.995 . S
N483 C484 1.376 . S
N483 C487 1.383 . S
C484 N483 1.376 . S
C484 C485 1.446 . S
C484 C514 1.391 . S
C485 C484 1.446 . S
C485 C486 1.339 . S
C485 H520 0.949 . S
C486 C485 1.339 . S
C486 C487 1.439 . S
C486 H521 0.950 . S
C487 N483 1.383 . S
C487 C486 1.439 . S
C487 C516 1.392 . S
N488 Co482 2.008 . S
N488 C489 1.376 . S
N488 C492 1.374 . S
C489 N488 1.376 . S
C489 C490 1.443 . S
C489 C516 1.389 . S
C490 C489 1.443 . S
C490 C491 1.340 . S
C490 H522 0.951 . S
C491 C490 1.340 . S
C491 C492 1.439 . S
C491 H523 0.950 . S
C492 N488 1.374 . S
C492 C491 1.439 . S
C492 C517 1.395 . S
N493 Co482 1.995 . S
N493 C494 1.376 . S
N493 C497 1.383 . S
C494 N493 1.376 . S
C494 C495 1.446 . S
C494 C517 1.391 . S
C495 C494 1.446 . S
C495 C496 1.339 . S
C495 H524 0.949 . S
C496 C495 1.339 . S
C496 C497 1.439 . S
C496 H525 0.950 . S
C497 N493 1.383 . S
C497 C496 1.439 . S
C497 C515 1.392 . S
N498 Co482 2.282 . S
N498 C501 1.332 . S
N498 C503 1.332 . S
C499 C500 1.386 . S
C499 C502 1.388 . S
C500 C499 1.386 . S
C500 C501 1.382 . S
C500 H526 0.950 . S
C501 N498 1.332 . S
C501 C500 1.382 . S
C501 H512 0.952 . S
C502 C499 1.388 . S
C502 C503 1.382 . S
C502 H527 0.950 . S
C503 N498 1.332 . S
C503 C502 1.382 . S
C503 H513 0.948 . S
N504 Co482 2.282 . S
N504 C508 1.332 . S
N504 C509 1.332 . S
C505 C506 1.388 . S
C505 C509 1.382 . S
C505 H528 0.950 . S
C506 C505 1.388 . S
C506 C507 1.386 . S
C507 C506 1.386 . S
C507 C508 1.382 . S
C507 H529 0.950 . S
C508 N504 1.332 . S
C508 C507 1.382 . S
C508 H510 0.952 . S
C509 N504 1.332 . S
C509 C505 1.382 . S
C509 H511 0.948 . S
H510 C508 0.952 . S
H511 C509 0.948 . S
H512 C501 0.952 . S
H513 C503 0.948 . S
C514 C480 1.395 . S
C514 C484 1.391 . S
C515 C477 1.389 . S
C515 C497 1.392 . S
C516 C487 1.392 . S
C516 C489 1.389 . S
C517 C492 1.395 . S
C517 C494 1.391 . S
H518 C478 0.951 . S
H519 C479 0.950 . S
H520 C485 0.949 . S
H521 C486 0.950 . S
H522 C490 0.951 . S
H523 C491 0.950 . S
H524 C495 0.949 . S
H525 C496 0.950 . S
H526 C500 0.950 . S
H527 C502 0.950 . S
H528 C505 0.950 . S
H529 C507 0.950 . S
C530 C531 1.443 . S
C530 N534 1.376 . S
C530 C568 1.389 . S
C531 C530 1.443 . S
C531 C532 1.340 . S
C531 H571 0.951 . S
C532 C531 1.340 . S
C532 C533 1.439 . S
C532 H572 0.950 . S
C533 C532 1.439 . S
C533 N534 1.374 . S
C533 C567 1.395 . S
N534 C530 1.376 . S
N534 C533 1.374 . S
N534 Co535 2.008 . S
Co535 N534 2.008 . S
Co535 N536 1.995 . S
Co535 N541 2.008 . S
Co535 N546 1.995 . S
Co535 N551 2.282 . S
Co535 N557 2.282 . S
N536 Co535 1.995 . S
N536 C537 1.376 . S
N536 C540 1.383 . S
C537 N536 1.376 . S
C537 C538 1.446 . S
C537 C567 1.391 . S
C538 C537 1.446 . S
C538 C539 1.339 . S
C538 H573 0.949 . S
C539 C538 1.339 . S
C539 C540 1.439 . S
C539 H574 0.950 . S
C540 N536 1.383 . S
C540 C539 1.439 . S
C540 C569 1.392 . S
N541 Co535 2.008 . S
N541 C542 1.376 . S
N541 C545 1.374 1_565 S
C542 N541 1.376 . S
C542 C543 1.443 1_565 S
C542 C569 1.389 . S
C543 C542 1.443 1_545 S
C543 C544 1.340 . S
C543 H575 0.951 . S
C544 C543 1.340 . S
C544 C545 1.439 . S
C544 H576 0.950 . S
C545 N541 1.374 1_545 S
C545 C544 1.439 . S
C545 C570 1.395 . S
N546 Co535 1.995 . S
N546 C547 1.376 1_565 S
N546 C550 1.383 . S
C547 N546 1.376 1_545 S
C547 C548 1.446 . S
C547 C570 1.391 . S
C548 C547 1.446 . S
C548 C549 1.339 . S
C548 H577 0.949 . S
C549 C548 1.339 . S
C549 C550 1.439 1_545 S
C549 H578 0.950 . S
C550 N546 1.383 . S
C550 C549 1.439 1_565 S
C550 C568 1.392 . S
N551 Co535 2.282 . S
N551 C554 1.332 . S
N551 C556 1.332 . S
C552 C553 1.386 1_565 S
C552 C555 1.388 . S
C553 C552 1.386 1_545 S
C553 C554 1.382 1_545 S
C553 H579 0.950 . S
C554 N551 1.332 . S
C554 C553 1.382 1_565 S
C554 H565 0.952 1_565 S
C555 C552 1.388 . S
C555 C556 1.382 . S
C555 H580 0.950 . S
C556 N551 1.332 . S
C556 C555 1.382 . S
C556 H566 0.948 . S
N557 Co535 2.282 . S
N557 C561 1.332 . S
N557 C562 1.332 . S
C558 C559 1.388 . S
C558 C562 1.382 . S
C558 H581 0.950 . S
C559 C558 1.388 . S
C559 C560 1.386 . S
C560 C559 1.386 . S
C560 C561 1.382 . S
C560 H582 0.950 . S
C561 N557 1.332 . S
C561 C560 1.382 . S
C561 H563 0.952 . S
C562 N557 1.332 . S
C562 C558 1.382 . S
C562 H564 0.948 . S
H563 C561 0.952 . S
H564 C562 0.948 . S
H565 C554 0.952 1_545 S
H566 C556 0.948 . S
C567 C533 1.395 . S
C567 C537 1.391 . S
C568 C530 1.389 . S
C568 C550 1.392 . S
C569 C540 1.392 . S
C569 C542 1.389 . S
C570 C545 1.395 . S
C570 C547 1.391 . S
H571 C531 0.951 . S
H572 C532 0.950 . S
H573 C538 0.949 . S
H574 C539 0.950 . S
H575 C543 0.951 . S
H576 C544 0.950 . S
H577 C548 0.949 . S
H578 C549 0.950 . S
H579 C553 0.950 . S
H580 C555 0.950 . S
H581 C558 0.950 . S
H582 C560 0.950 . S
C583 C584 1.443 1_455 S
C583 N587 1.376 1_455 S
C583 C621 1.389 . S
C584 C583 1.443 1_655 S
C584 C585 1.340 . S
C584 H624 0.951 . S
C585 C584 1.340 . S
C585 C586 1.439 . S
C585 H625 0.950 . S
C586 C585 1.439 . S
C586 N587 1.374 . S
C586 C620 1.395 . S
N587 C583 1.376 1_655 S
N587 C586 1.374 . S
N587 Co588 2.008 1_655 S
Co588 N587 2.008 1_455 S
Co588 N589 1.995 1_455 S
Co588 N594 2.008 . S
Co588 N599 1.995 . S
Co588 N604 2.282 . S
Co588 N610 2.282 . S
N589 Co588 1.995 1_655 S
N589 C590 1.376 . S
N589 C593 1.383 . S
C590 N589 1.376 . S
C590 C591 1.446 . S
C590 C620 1.391 . S
C591 C590 1.446 . S
C591 C592 1.339 . S
C591 H626 0.949 . S
C592 C591 1.339 . S
C592 C593 1.439 . S
C592 H627 0.950 . S
C593 N589 1.383 . S
C593 C592 1.439 . S
C593 C622 1.392 1_655 S
N594 Co588 2.008 . S
N594 C595 1.376 . S
N594 C598 1.374 . S
C595 N594 1.376 . S
C595 C596 1.443 . S
C595 C622 1.389 . S
C596 C595 1.443 . S
C596 C597 1.340 . S
C596 H628 0.951 . S
C597 C596 1.340 . S
C597 C598 1.439 . S
C597 H629 0.950 . S
C598 N594 1.374 . S
C598 C597 1.439 . S
C598 C623 1.395 . S
N599 Co588 1.995 . S
N599 C600 1.376 . S
N599 C603 1.383 . S
C600 N599 1.376 . S
C600 C601 1.446 . S
C600 C623 1.391 . S
C601 C600 1.446 . S
C601 C602 1.339 . S
C601 H630 0.949 . S
C602 C601 1.339 . S
C602 C603 1.439 . S
C602 H631 0.950 . S
C603 N599 1.383 . S
C603 C602 1.439 . S
C603 C621 1.392 . S
N604 Co588 2.282 . S
N604 C607 1.332 . S
N604 C609 1.332 1_455 S
C605 C606 1.386 . S
C605 C608 1.388 1_455 S
C606 C605 1.386 . S
C606 C607 1.382 . S
C606 H632 0.950 . S
C607 N604 1.332 . S
C607 C606 1.382 . S
C607 H618 0.952 . S
C608 C605 1.388 1_655 S
C608 C609 1.382 . S
C608 H633 0.950 . S
C609 N604 1.332 1_655 S
C609 C608 1.382 . S
C609 H619 0.948 . S
N610 Co588 2.282 . S
N610 C614 1.323 1_455 S
N610 C615 1.332 . S
C611 C612 1.388 . S
C611 C615 1.382 . S
C611 H634 0.950 . S
C612 C611 1.388 . S
C612 C613 1.386 1_455 S
C613 C612 1.386 1_655 S
C613 C614 1.382 . S
C613 H635 0.950 . S
C614 N610 1.323 1_655 S
C614 C613 1.382 . S
C614 H616 0.961 . S
C615 N610 1.332 . S
C615 C611 1.382 . S
C615 H617 0.948 . S
H616 C614 0.961 . S
H617 C615 0.948 . S
H618 C607 0.952 . S
H619 C609 0.948 . S
C620 C586 1.395 . S
C620 C590 1.391 . S
C621 C583 1.389 . S
C621 C603 1.392 . S
C622 C593 1.392 1_455 S
C622 C595 1.389 . S
C623 C598 1.395 . S
C623 C600 1.391 . S
H624 C584 0.951 . S
H625 C585 0.950 . S
H626 C591 0.949 . S
H627 C592 0.950 . S
H628 C596 0.951 . S
H629 C597 0.950 . S
H630 C601 0.949 . S
H631 C602 0.950 . S
H632 C606 0.950 . S
H633 C608 0.950 . S
H634 C611 0.950 . S
H635 C613 0.950 . S
C636 C637 1.443 . S
C636 N640 1.376 . S
C636 C674 1.389 . S
C637 C636 1.443 . S
C637 C638 1.340 . S
C637 H677 0.951 . S
C638 C637 1.340 . S
C638 C639 1.439 . S
C638 H678 0.950 . S
C639 C638 1.439 . S
C639 N640 1.374 . S
C639 C673 1.395 . S
N640 C636 1.376 . S
N640 C639 1.374 . S
N640 Co641 2.008 . S
Co641 N640 2.008 . S
Co641 N642 1.995 . S
Co641 N647 2.008 . S
Co641 N652 1.995 . S
Co641 N657 2.282 . S
Co641 N663 2.282 . S
N642 Co641 1.995 . S
N642 C643 1.376 . S
N642 C646 1.383 . S
C643 N642 1.376 . S
C643 C644 1.446 . S
C643 C673 1.391 . S
C644 C643 1.446 . S
C644 C645 1.339 . S
C644 H679 0.949 . S
C645 C644 1.339 . S
C645 C646 1.439 . S
C645 H680 0.950 . S
C646 N642 1.383 . S
C646 C645 1.439 . S
C646 C675 1.392 . S
N647 Co641 2.008 . S
N647 C648 1.376 . S
N647 C651 1.374 1_565 S
C648 N647 1.376 . S
C648 C649 1.443 1_565 S
C648 C675 1.389 . S
C649 C648 1.443 1_545 S
C649 C650 1.340 . S
C649 H681 0.951 . S
C650 C649 1.340 . S
C650 C651 1.439 . S
C650 H682 0.950 . S
C651 N647 1.374 1_545 S
C651 C650 1.439 . S
C651 C676 1.395 . S
N652 Co641 1.995 . S
N652 C653 1.376 1_565 S
N652 C656 1.383 . S
C653 N652 1.376 1_545 S
C653 C654 1.446 . S
C653 C676 1.391 . S
C654 C653 1.446 . S
C654 C655 1.339 . S
C654 H683 0.949 . S
C655 C654 1.339 . S
C655 C656 1.439 1_545 S
C655 H684 0.950 . S
C656 N652 1.383 . S
C656 C655 1.439 1_565 S
C656 C674 1.392 . S
N657 Co641 2.282 . S
N657 C660 1.332 . S
N657 C662 1.332 . S
C658 C659 1.386 1_565 S
C658 C661 1.388 . S
C659 C658 1.386 1_545 S
C659 C660 1.382 1_545 S
C659 H685 0.950 . S
C660 N657 1.332 . S
C660 C659 1.382 1_565 S
C660 H671 0.952 1_565 S
C661 C658 1.388 . S
C661 C662 1.382 . S
C661 H686 0.950 . S
C662 N657 1.332 . S
C662 C661 1.382 . S
C662 H672 0.948 . S
N663 Co641 2.282 . S
N663 C667 1.332 . S
N663 C668 1.332 . S
C664 C665 1.388 . S
C664 C668 1.382 . S
C664 H687 0.950 . S
C665 C664 1.388 . S
C665 C666 1.386 . S
C666 C665 1.386 . S
C666 C667 1.382 . S
C666 H688 0.950 . S
C667 N663 1.332 . S
C667 C666 1.382 . S
C667 H669 0.952 . S
C668 N663 1.332 . S
C668 C664 1.382 . S
C668 H670 0.948 . S
H669 C667 0.952 . S
H670 C668 0.948 . S
H671 C660 0.952 1_545 S
H672 C662 0.948 . S
C673 C639 1.395 . S
C673 C643 1.391 . S
C674 C636 1.389 . S
C674 C656 1.392 . S
C675 C646 1.392 . S
C675 C648 1.389 . S
C676 C651 1.395 . S
C676 C653 1.391 . S
H677 C637 0.951 . S
H678 C638 0.950 . S
H679 C644 0.949 . S
H680 C645 0.950 . S
H681 C649 0.951 . S
H682 C650 0.950 . S
H683 C654 0.949 . S
H684 C655 0.950 . S
H685 C659 0.950 . S
H686 C661 0.950 . S
H687 C664 0.950 . S
H688 C666 0.950 . S
C689 C690 1.443 1_455 S
C689 N693 1.376 1_455 S
C689 C727 1.389 . S
C690 C689 1.443 1_655 S
C690 C691 1.340 . S
C690 H730 0.951 . S
C691 C690 1.340 . S
C691 C692 1.439 . S
C691 H731 0.950 . S
C692 C691 1.439 . S
C692 N693 1.374 . S
C692 C726 1.395 . S
N693 C689 1.376 1_655 S
N693 C692 1.374 . S
N693 Co694 2.008 1_655 S
Co694 N693 2.008 1_455 S
Co694 N695 1.995 1_455 S
Co694 N700 2.008 . S
Co694 N705 1.995 . S
Co694 N710 2.282 . S
Co694 N716 2.282 . S
N695 Co694 1.995 1_655 S
N695 C696 1.376 . S
N695 C699 1.383 . S
C696 N695 1.376 . S
C696 C697 1.446 . S
C696 C726 1.391 . S
C697 C696 1.446 . S
C697 C698 1.339 . S
C697 H732 0.949 . S
C698 C697 1.339 . S
C698 C699 1.439 . S
C698 H733 0.950 . S
C699 N695 1.383 . S
C699 C698 1.439 . S
C699 C728 1.392 1_655 S
N700 Co694 2.008 . S
N700 C701 1.376 . S
N700 C704 1.374 . S
C701 N700 1.376 . S
C701 C702 1.443 . S
C701 C728 1.389 . S
C702 C701 1.443 . S
C702 C703 1.340 . S
C702 H734 0.951 . S
C703 C702 1.340 . S
C703 C704 1.439 . S
C703 H735 0.950 . S
C704 N700 1.374 . S
C704 C703 1.439 . S
C704 C729 1.395 . S
N705 Co694 1.995 . S
N705 C706 1.376 . S
N705 C709 1.383 . S
C706 N705 1.376 . S
C706 C707 1.446 . S
C706 C729 1.391 . S
C707 C706 1.446 . S
C707 C708 1.339 . S
C707 H736 0.949 . S
C708 C707 1.339 . S
C708 C709 1.439 . S
C708 H737 0.950 . S
C709 N705 1.383 . S
C709 C708 1.439 . S
C709 C727 1.392 . S
N710 Co694 2.282 . S
N710 C713 1.332 . S
N710 C715 1.332 1_455 S
C711 C712 1.386 . S
C711 C714 1.388 1_455 S
C712 C711 1.386 . S
C712 C713 1.382 . S
C712 H738 0.950 . S
C713 N710 1.332 . S
C713 C712 1.382 . S
C713 H724 0.952 . S
C714 C711 1.388 1_655 S
C714 C715 1.382 . S
C714 H739 0.950 . S
C715 N710 1.332 1_655 S
C715 C714 1.382 . S
C715 H725 0.948 . S
N716 Co694 2.282 . S
N716 C720 1.326 1_455 S
N716 C721 1.332 . S
C717 C718 1.388 . S
C717 C721 1.382 . S
C717 H740 0.950 . S
C718 C717 1.388 . S
C718 C719 1.386 1_455 S
C719 C718 1.386 1_655 S
C719 C720 1.382 . S
C719 H741 0.950 . S
C720 N716 1.326 1_655 S
C720 C719 1.382 . S
C720 H722 0.958 . S
C721 N716 1.332 . S
C721 C717 1.382 . S
C721 H723 0.948 . S
H722 C720 0.958 . S
H723 C721 0.948 . S
H724 C713 0.952 . S
H725 C715 0.948 . S
C726 C692 1.395 . S
C726 C696 1.391 . S
C727 C689 1.389 . S
C727 C709 1.392 . S
C728 C699 1.392 1_455 S
C728 C701 1.389 . S
C729 C704 1.395 . S
C729 C706 1.391 . S
H730 C690 0.951 . S
H731 C691 0.950 . S
H732 C697 0.949 . S
H733 C698 0.950 . S
H734 C702 0.951 . S
H735 C703 0.950 . S
H736 C707 0.949 . S
H737 C708 0.950 . S
H738 C712 0.950 . S
H739 C714 0.950 . S
H740 C717 0.950 . S
H741 C719 0.950 . S
C742 C743 1.443 . S
C742 N746 1.376 . S
C742 C780 1.389 . S
C743 C742 1.443 . S
C743 C744 1.340 . S
C743 H783 0.951 . S
C744 C743 1.340 . S
C744 C745 1.439 . S
C744 H784 0.950 . S
C745 C744 1.439 . S
C745 N746 1.374 . S
C745 C779 1.395 . S
N746 C742 1.376 . S
N746 C745 1.374 . S
N746 Co747 2.008 . S
Co747 N746 2.008 . S
Co747 N748 1.995 . S
Co747 N753 2.008 . S
Co747 N758 1.995 . S
Co747 N763 2.282 . S
Co747 N769 2.282 . S
N748 Co747 1.995 . S
N748 C749 1.376 . S
N748 C752 1.383 . S
C749 N748 1.376 . S
C749 C750 1.446 . S
C749 C779 1.391 . S
C750 C749 1.446 . S
C750 C751 1.339 . S
C750 H785 0.949 . S
C751 C750 1.339 . S
C751 C752 1.439 . S
C751 H786 0.950 . S
C752 N748 1.383 . S
C752 C751 1.439 . S
C752 C781 1.392 . S
N753 Co747 2.008 . S
N753 C754 1.376 . S
N753 C757 1.374 . S
C754 N753 1.376 . S
C754 C755 1.443 . S
C754 C781 1.389 . S
C755 C754 1.443 . S
C755 C756 1.340 . S
C755 H787 0.951 . S
C756 C755 1.340 . S
C756 C757 1.439 . S
C756 H788 0.950 . S
C757 N753 1.374 . S
C757 C756 1.439 . S
C757 C782 1.395 . S
N758 Co747 1.995 . S
N758 C759 1.376 . S
N758 C762 1.383 . S
C759 N758 1.376 . S
C759 C760 1.446 . S
C759 C782 1.391 . S
C760 C759 1.446 . S
C760 C761 1.339 . S
C760 H789 0.949 . S
C761 C760 1.339 . S
C761 C762 1.439 . S
C761 H790 0.950 . S
C762 N758 1.383 . S
C762 C761 1.439 . S
C762 C780 1.392 . S
N763 Co747 2.282 . S
N763 C766 1.332 . S
N763 C768 1.332 . S
C764 C765 1.386 . S
C764 C767 1.388 . S
C765 C764 1.386 . S
C765 C766 1.382 . S
C765 H791 0.950 . S
C766 N763 1.332 . S
C766 C765 1.382 . S
C766 H777 0.952 . S
C767 C764 1.388 . S
C767 C768 1.382 . S
C767 H792 0.950 . S
C768 N763 1.332 . S
C768 C767 1.382 . S
C768 H778 0.948 . S
N769 Co747 2.282 . S
N769 C773 1.332 . S
N769 C774 1.332 . S
C770 C771 1.388 . S
C770 C774 1.382 . S
C770 H793 0.950 . S
C771 C770 1.388 . S
C771 C772 1.386 . S
C772 C771 1.386 . S
C772 C773 1.382 . S
C772 H794 0.950 . S
C773 N769 1.332 . S
C773 C772 1.382 . S
C773 H775 0.952 . S
C774 N769 1.332 . S
C774 C770 1.382 . S
C774 H776 0.948 . S
H775 C773 0.952 . S
H776 C774 0.948 . S
H777 C766 0.952 . S
H778 C768 0.948 . S
C779 C745 1.395 . S
C779 C749 1.391 . S
C780 C742 1.389 . S
C780 C762 1.392 . S
C781 C752 1.392 . S
C781 C754 1.389 . S
C782 C757 1.395 . S
C782 C759 1.391 . S
H783 C743 0.951 . S
H784 C744 0.950 . S
H785 C750 0.949 . S
H786 C751 0.950 . S
H787 C755 0.951 . S
H788 C756 0.950 . S
H789 C760 0.949 . S
H790 C761 0.950 . S
H791 C765 0.950 . S
H792 C767 0.950 . S
H793 C770 0.950 . S
H794 C772 0.950 . S
C795 C796 1.443 . S
C795 N799 1.376 . S
C795 C833 1.389 . S
C796 C795 1.443 . S
C796 C797 1.340 . S
C796 H836 0.951 . S
C797 C796 1.340 . S
C797 C798 1.439 . S
C797 H837 0.950 . S
C798 C797 1.439 . S
C798 N799 1.374 . S
C798 C832 1.395 . S
N799 C795 1.376 . S
N799 C798 1.374 . S
N799 Co800 2.008 . S
Co800 N799 2.008 . S
Co800 N801 1.995 . S
Co800 N806 2.008 . S
Co800 N811 1.995 . S
Co800 N816 2.282 . S
Co800 N822 2.282 . S
N801 Co800 1.995 . S
N801 C802 1.376 . S
N801 C805 1.383 . S
C802 N801 1.376 . S
C802 C803 1.446 . S
C802 C832 1.391 . S
C803 C802 1.446 . S
C803 C804 1.339 . S
C803 H838 0.949 . S
C804 C803 1.339 . S
C804 C805 1.439 . S
C804 H839 0.950 . S
C805 N801 1.383 . S
C805 C804 1.439 . S
C805 C834 1.392 . S
N806 Co800 2.008 . S
N806 C807 1.376 . S
N806 C810 1.374 . S
C807 N806 1.376 . S
C807 C808 1.443 . S
C807 C834 1.389 . S
C808 C807 1.443 . S
C808 C809 1.340 . S
C808 H840 0.951 . S
C809 C808 1.340 . S
C809 C810 1.439 . S
C809 H841 0.950 . S
C810 N806 1.374 . S
C810 C809 1.439 . S
C810 C835 1.395 . S
N811 Co800 1.995 . S
N811 C812 1.376 . S
N811 C815 1.383 . S
C812 N811 1.376 . S
C812 C813 1.446 . S
C812 C835 1.391 . S
C813 C812 1.446 . S
C813 C814 1.339 . S
C813 H842 0.949 . S
C814 C813 1.339 . S
C814 C815 1.439 . S
C814 H843 0.950 . S
C815 N811 1.383 . S
C815 C814 1.439 . S
C815 C833 1.392 . S
N816 Co800 2.282 . S
N816 C819 1.332 . S
N816 C821 1.332 . S
C817 C818 1.386 . S
C817 C820 1.388 . S
C818 C817 1.386 . S
C818 C819 1.382 . S
C818 H844 0.950 . S
C819 N816 1.332 . S
C819 C818 1.382 . S
C819 H830 0.952 . S
C820 C817 1.388 . S
C820 C821 1.382 . S
C820 H845 0.950 . S
C821 N816 1.332 . S
C821 C820 1.382 . S
C821 H831 0.948 . S
N822 Co800 2.282 . S
N822 C826 1.332 . S
N822 C827 1.332 . S
C823 C824 1.388 . S
C823 C827 1.382 . S
C823 H846 0.950 . S
C824 C823 1.388 . S
C824 C825 1.386 . S
C825 C824 1.386 . S
C825 C826 1.382 . S
C825 H847 0.950 . S
C826 N822 1.332 . S
C826 C825 1.382 . S
C826 H828 0.952 . S
C827 N822 1.332 . S
C827 C823 1.382 . S
C827 H829 0.948 . S
H828 C826 0.952 . S
H829 C827 0.948 . S
H830 C819 0.952 . S
H831 C821 0.948 . S
C832 C798 1.395 . S
C832 C802 1.391 . S
C833 C795 1.389 . S
C833 C815 1.392 . S
C834 C805 1.392 . S
C834 C807 1.389 . S
C835 C810 1.395 . S
C835 C812 1.391 . S
H836 C796 0.951 . S
H837 C797 0.950 . S
H838 C803 0.949 . S
H839 C804 0.950 . S
H840 C808 0.951 . S
H841 C809 0.950 . S
H842 C813 0.949 . S
H843 C814 0.950 . S
H844 C818 0.950 . S
H845 C820 0.950 . S
H846 C823 0.950 . S
H847 C825 0.950 . S
C848 C849 1.387 . S
C848 H852 0.950 . S
C848 C857 1.390 1_665 S
C849 C848 1.387 . S
C849 C851 1.387 . S
H850 C857 0.950 . S
C851 C849 1.387 . S
C851 C853 1.390 1_665 S
C851 H855 0.950 . S
H852 C848 0.950 . S
C853 C851 1.390 1_445 S
C853 C854 1.387 . S
C853 H856 0.950 . S
C854 C853 1.387 . S
C854 C857 1.387 . S
H855 C851 0.950 . S
H856 C853 0.950 . S
C857 C848 1.390 1_445 S
C857 H850 0.950 . S
C857 C854 1.387 . S
C858 C859 1.387 . S
C858 H862 0.950 . S
C858 C867 1.390 1_655 S
C859 C858 1.387 . S
C859 C861 1.387 . S
H860 C867 0.950 . S
C861 C859 1.387 . S
C861 C863 1.390 1_655 S
C861 H865 0.950 . S
H862 C858 0.950 . S
C863 C861 1.390 1_455 S
C863 C864 1.387 . S
C863 H866 0.950 . S
C864 C863 1.387 . S
C864 C867 1.387 . S
H865 C861 0.950 . S
H866 C863 0.950 . S
C867 C858 1.390 1_455 S
C867 H860 0.950 . S
C867 C864 1.387 . S
C868 C869 1.387 . S
C868 H872 0.950 . S
C868 C877 1.390 . S
C869 C868 1.387 . S
C869 C871 1.387 . S
H870 C877 0.950 . S
C871 C869 1.387 . S
C871 C873 1.390 . S
C871 H875 0.950 . S
H872 C868 0.950 . S
C873 C871 1.390 . S
C873 C874 1.387 . S
C873 H876 0.950 . S
C874 C873 1.387 . S
C874 C877 1.387 . S
H875 C871 0.950 . S
H876 C873 0.950 . S
C877 C868 1.390 . S
C877 H870 0.950 . S
C877 C874 1.387 . S
C878 C879 1.387 . S
C878 H882 0.950 . S
C878 C887 1.390 1_545 S
C879 C878 1.387 . S
C879 C881 1.387 . S
H880 C887 0.950 . S
C881 C879 1.387 . S
C881 C883 1.390 1_545 S
C881 H885 0.950 . S
H882 C878 0.950 . S
C883 C881 1.390 1_565 S
C883 C884 1.387 . S
C883 H886 0.950 . S
C884 C883 1.387 . S
C884 C887 1.387 . S
H885 C881 0.950 . S
H886 C883 0.950 . S
C887 C878 1.390 1_565 S
C887 H880 0.950 . S
C887 C884 1.387 . S
C888 C889 1.387 . S
C888 H892 0.950 . S
C888 C897 1.390 1_455 S
C889 C888 1.387 . S
C889 C891 1.387 . S
H890 C897 0.950 . S
C891 C889 1.387 . S
C891 C893 1.390 1_455 S
C891 H895 0.950 . S
H892 C888 0.950 . S
C893 C891 1.390 1_655 S
C893 C894 1.387 . S
C893 H896 0.950 . S
C894 C893 1.387 . S
C894 C897 1.387 . S
H895 C891 0.950 . S
H896 C893 0.950 . S
C897 C888 1.390 1_655 S
C897 H890 0.950 . S
C897 C894 1.387 . S
C898 C899 1.387 . S
C898 H902 0.950 . S
C898 C907 1.390 . S
C899 C898 1.387 . S
C899 C901 1.387 . S
H900 C907 0.950 . S
C901 C899 1.387 . S
C901 C903 1.390 . S
C901 H905 0.950 . S
H902 C898 0.950 . S
C903 C901 1.390 . S
C903 C904 1.387 . S
C903 H906 0.950 . S
C904 C903 1.387 . S
C904 C907 1.387 . S
H905 C901 0.950 . S
H906 C903 0.950 . S
C907 C898 1.390 . S
C907 H900 0.950 . S
C907 C904 1.387 . S
C908 C909 1.387 . S
C908 H912 0.950 . S
C908 C917 1.390 1_545 S
C909 C908 1.387 . S
C909 C911 1.387 . S
H910 C917 0.950 . S
C911 C909 1.387 . S
C911 C913 1.390 1_545 S
C911 H915 0.950 . S
H912 C908 0.950 . S
C913 C911 1.390 1_565 S
C913 C914 1.387 . S
C913 H916 0.950 . S
C914 C913 1.387 . S
C914 C917 1.387 . S
H915 C911 0.950 . S
H916 C913 0.950 . S
C917 C908 1.390 1_565 S
C917 H910 0.950 . S
C917 C914 1.387 . S
C918 C919 1.387 . S
C918 H922 0.950 . S
C918 C927 1.390 1_445 S
C919 C918 1.387 . S
C919 C921 1.387 . S
H920 C927 0.950 . S
C921 C919 1.387 . S
C921 C923 1.390 1_445 S
C921 H925 0.950 . S
H922 C918 0.950 . S
C923 C921 1.390 1_665 S
C923 C924 1.387 . S
C923 H926 0.950 . S
C924 C923 1.387 . S
C924 C927 1.387 . S
H925 C921 0.950 . S
H926 C923 0.950 . S
C927 C918 1.390 1_665 S
C927 H920 0.950 . S
C927 C924 1.387 . S
C928 C929 1.387 . S
C928 H932 0.950 . S
C928 C937 1.390 1_565 S
C929 C928 1.387 . S
C929 C931 1.387 . S
H930 C937 0.950 . S
C931 C929 1.387 . S
C931 C933 1.390 1_565 S
C931 H935 0.950 . S
H932 C928 0.950 . S
C933 C931 1.390 1_545 S
C933 C934 1.387 . S
C933 H936 0.950 . S
C934 C933 1.387 . S
C934 C937 1.387 . S
H935 C931 0.950 . S
H936 C933 0.950 . S
C937 C928 1.390 1_545 S
C937 H930 0.950 . S
C937 C934 1.387 . S
C938 C939 1.387 . S
C938 H942 0.950 . S
C938 C947 1.390 1_665 S
C939 C938 1.387 . S
C939 C941 1.387 . S
H940 C947 0.950 . S
C941 C939 1.387 . S
C941 C943 1.390 1_665 S
C941 H945 0.950 . S
H942 C938 0.950 . S
C943 C941 1.390 1_445 S
C943 C944 1.387 . S
C943 H946 0.950 . S
C944 C943 1.387 . S
C944 C947 1.387 . S
H945 C941 0.950 . S
H946 C943 0.950 . S
C947 C938 1.390 1_445 S
C947 H940 0.950 . S
C947 C944 1.387 . S
C948 C949 1.387 . S
C948 H952 0.950 . S
C948 C957 1.390 1_455 S
C949 C948 1.387 . S
C949 C951 1.387 . S
H950 C957 0.950 . S
C951 C949 1.387 . S
C951 C953 1.390 1_455 S
C951 H955 0.950 . S
H952 C948 0.950 . S
C953 C951 1.390 1_655 S
C953 C954 1.387 . S
C953 H956 0.950 . S
C954 C953 1.387 . S
C954 C957 1.387 . S
H955 C951 0.950 . S
H956 C953 0.950 . S
C957 C948 1.390 1_655 S
C957 H950 0.950 . S
C957 C954 1.387 . S
C958 C959 1.387 . S
C958 H962 0.950 . S
C958 C967 1.390 . S
C959 C958 1.387 . S
C959 C961 1.387 . S
H960 C967 0.950 . S
C961 C959 1.387 . S
C961 C963 1.390 . S
C961 H965 0.950 . S
H962 C958 0.950 . S
C963 C961 1.390 . S
C963 C964 1.387 . S
C963 H966 0.950 . S
C964 C963 1.387 . S
C964 C967 1.387 . S
H965 C961 0.950 . S
H966 C963 0.950 . S
C967 C958 1.390 . S
C967 H960 0.950 . S
C967 C964 1.387 . S
C968 C969 1.387 . S
C968 H972 0.950 . S
C968 C977 1.390 . S
C969 C968 1.387 . S
C969 C971 1.387 . S
H970 C977 0.950 . S
C971 C969 1.387 . S
C971 C973 1.390 . S
C971 H975 0.950 . S
H972 C968 0.950 . S
C973 C971 1.390 . S
C973 C974 1.387 . S
C973 H976 0.950 . S
C974 C973 1.387 . S
C974 C977 1.387 . S
H975 C971 0.950 . S
H976 C973 0.950 . S
C977 C968 1.390 . S
C977 H970 0.950 . S
C977 C974 1.387 . S
C978 C979 1.387 . S
C978 H982 0.950 . S
C978 C987 1.390 1_565 S
C979 C978 1.387 . S
C979 C981 1.387 . S
H980 C987 0.950 . S
C981 C979 1.387 . S
C981 C983 1.390 1_565 S
C981 H985 0.950 . S
H982 C978 0.950 . S
C983 C981 1.390 1_545 S
C983 C984 1.387 . S
C983 H986 0.950 . S
C984 C983 1.387 . S
C984 C987 1.387 . S
H985 C981 0.950 . S
H986 C983 0.950 . S
C987 C978 1.390 1_545 S
C987 H980 0.950 . S
C987 C984 1.387 . S
C988 C989 1.387 . S
C988 H992 0.950 . S
C988 C997 1.390 1_665 S
C989 C988 1.387 . S
C989 C991 1.387 . S
H990 C997 0.950 . S
C991 C989 1.387 . S
C991 C993 1.390 1_665 S
C991 H995 0.950 . S
H992 C988 0.950 . S
C993 C991 1.390 1_445 S
C993 C994 1.387 . S
C993 H996 0.950 . S
C994 C993 1.387 . S
C994 C997 1.387 . S
H995 C991 0.950 . S
H996 C993 0.950 . S
C997 C988 1.390 1_445 S
C997 H990 0.950 . S
C997 C994 1.387 . S
C998 C999 1.387 . S
C998 H1002 0.950 . S
C998 C1007 1.390 1_455 S
C999 C998 1.387 . S
C999 C1001 1.387 . S
H1000 C1007 0.950 . S
C1001 C999 1.387 . S
C1001 C1003 1.390 1_455 S
C1001 H1005 0.950 . S
H1002 C998 0.950 . S
C1003 C1001 1.390 1_655 S
C1003 C1004 1.387 . S
C1003 H1006 0.950 . S
C1004 C1003 1.387 . S
C1004 C1007 1.387 . S
H1005 C1001 0.950 . S
H1006 C1003 0.950 . S
C1007 C998 1.390 1_655 S
C1007 H1000 0.950 . S
C1007 C1004 1.387 . S
C1008 C1009 1.387 1_565 S
C1008 H1012 0.950 . S
C1008 C1017 1.390 . S
C1009 C1008 1.387 1_545 S
C1009 C1011 1.387 . S
H1010 C1017 0.950 . S
C1011 C1009 1.387 . S
C1011 C1013 1.390 . S
C1011 H1015 0.950 . S
H1012 C1008 0.950 . S
C1013 C1011 1.390 . S
C1013 C1014 1.387 . S
C1013 H1016 0.950 . S
C1014 C1013 1.387 . S
C1014 C1017 1.387 1_545 S
H1015 C1011 0.950 . S
H1016 C1013 0.950 . S
C1017 C1008 1.390 . S
C1017 H1010 0.950 . S
C1017 C1014 1.387 1_565 S
C1018 C1019 1.387 1_455 S
C1018 H1022 0.950 . S
C1018 C1027 1.390 . S
C1019 C1018 1.387 1_655 S
C1019 C1021 1.387 . S
H1020 C1027 0.950 . S
C1021 C1019 1.387 . S
C1021 C1023 1.390 . S
C1021 H1025 0.950 . S
H1022 C1018 0.950 . S
C1023 C1021 1.390 . S
C1023 C1024 1.387 . S
C1023 H1026 0.950 . S
C1024 C1023 1.387 . S
C1024 C1027 1.387 1_655 S
H1025 C1021 0.950 . S
H1026 C1023 0.950 . S
C1027 C1018 1.390 . S
C1027 H1020 0.950 . S
C1027 C1024 1.387 1_455 S
C1028 C1029 1.387 . S
C1028 H1032 0.950 . S
C1028 C1037 1.390 . S
C1029 C1028 1.387 . S
C1029 C1031 1.387 . S
H1030 C1037 0.950 . S
C1031 C1029 1.387 . S
C1031 C1033 1.390 . S
C1031 H1035 0.950 . S
H1032 C1028 0.950 . S
C1033 C1031 1.390 . S
C1033 C1034 1.387 . S
C1033 H1036 0.950 . S
C1034 C1033 1.387 . S
C1034 C1037 1.387 . S
H1035 C1031 0.950 . S
H1036 C1033 0.950 . S
C1037 C1028 1.390 . S
C1037 H1030 0.950 . S
C1037 C1034 1.387 . S
C1038 C1039 1.387 . S
C1038 H1042 0.950 . S
C1038 C1047 1.390 . S
C1039 C1038 1.387 . S
C1039 C1041 1.387 . S
H1040 C1047 0.950 . S
C1041 C1039 1.387 . S
C1041 C1043 1.390 . S
C1041 H1045 0.950 . S
H1042 C1038 0.950 . S
C1043 C1041 1.390 . S
C1043 C1044 1.387 . S
C1043 H1046 0.950 . S
C1044 C1043 1.387 . S
C1044 C1047 1.387 . S
H1045 C1041 0.950 . S
H1046 C1043 0.950 . S
C1047 C1038 1.390 . S
C1047 H1040 0.950 . S
C1047 C1044 1.387 . S
C1048 C1049 1.387 . S
C1048 H1052 0.950 . S
C1048 C1057 1.390 . S
C1049 C1048 1.387 . S
C1049 C1051 1.387 . S
H1050 C1057 0.950 . S
C1051 C1049 1.387 . S
C1051 C1053 1.390 . S
C1051 H1055 0.950 . S
H1052 C1048 0.950 . S
C1053 C1051 1.390 . S
C1053 C1054 1.387 . S
C1053 H1056 0.950 . S
C1054 C1053 1.387 . S
C1054 C1057 1.387 . S
H1055 C1051 0.950 . S
H1056 C1053 0.950 . S
C1057 C1048 1.390 . S
C1057 H1050 0.950 . S
C1057 C1054 1.387 . S
C1058 C1059 1.387 . S
C1058 H1062 0.950 . S
C1058 C1067 1.390 . S
C1059 C1058 1.387 . S
C1059 C1061 1.387 . S
H1060 C1067 0.950 . S
C1061 C1059 1.387 . S
C1061 C1063 1.390 . S
C1061 H1065 0.950 . S
H1062 C1058 0.950 . S
C1063 C1061 1.390 . S
C1063 C1064 1.387 . S
C1063 H1066 0.950 . S
C1064 C1063 1.387 . S
C1064 C1067 1.387 . S
H1065 C1061 0.950 . S
H1066 C1063 0.950 . S
C1067 C1058 1.390 . S
C1067 H1060 0.950 . S
C1067 C1064 1.387 . S
C1068 C1069 1.387 1_545 S
C1068 H1072 0.950 . S
C1068 C1077 1.390 . S
C1069 C1068 1.387 1_565 S
C1069 C1071 1.387 . S
H1070 C1077 0.950 . S
C1071 C1069 1.387 . S
C1071 C1073 1.390 . S
C1071 H1075 0.950 . S
H1072 C1068 0.950 . S
C1073 C1071 1.390 . S
C1073 C1074 1.387 . S
C1073 H1076 0.950 . S
C1074 C1073 1.387 . S
C1074 C1077 1.387 1_565 S
H1075 C1071 0.950 . S
H1076 C1073 0.950 . S
C1077 C1068 1.390 . S
C1077 H1070 0.950 . S
C1077 C1074 1.387 1_545 S
C1078 C1079 1.387 . S
C1078 H1082 0.950 . S
C1078 C1087 1.390 . S
C1079 C1078 1.387 . S
C1079 C1081 1.387 1_455 S
H1080 C1087 0.950 . S
C1081 C1079 1.387 1_655 S
C1081 C1083 1.390 . S
C1081 H1085 0.950 . S
H1082 C1078 0.950 . S
C1083 C1081 1.390 . S
C1083 C1084 1.387 1_655 S
C1083 H1086 0.950 . S
C1084 C1083 1.387 1_455 S
C1084 C1087 1.387 . S
H1085 C1081 0.950 . S
H1086 C1083 0.950 . S
C1087 C1078 1.390 . S
C1087 H1080 0.950 . S
C1087 C1084 1.387 . S
C1088 C1089 1.387 . S
C1088 H1092 0.950 . S
C1088 C1097 1.390 . S
C1089 C1088 1.387 . S
C1089 C1091 1.387 . S
H1090 C1097 0.950 . S
C1091 C1089 1.387 . S
C1091 C1093 1.390 . S
C1091 H1095 0.950 . S
H1092 C1088 0.950 . S
C1093 C1091 1.390 . S
C1093 C1094 1.387 . S
C1093 H1096 0.950 . S
C1094 C1093 1.387 . S
C1094 C1097 1.387 . S
H1095 C1091 0.950 . S
H1096 C1093 0.950 . S
C1097 C1088 1.390 . S
C1097 H1090 0.950 . S
C1097 C1094 1.387 . S
C1098 C1099 1.387 . S
C1098 H1102 0.950 . S
C1098 C1107 1.390 . S
C1099 C1098 1.387 . S
C1099 C1101 1.387 . S
H1100 C1107 0.950 . S
C1101 C1099 1.387 . S
C1101 C1103 1.390 . S
C1101 H1105 0.950 . S
H1102 C1098 0.950 . S
C1103 C1101 1.390 . S
C1103 C1104 1.387 . S
C1103 H1106 0.950 . S
C1104 C1103 1.387 . S
C1104 C1107 1.387 . S
H1105 C1101 0.950 . S
H1106 C1103 0.950 . S
C1107 C1098 1.390 . S
C1107 H1100 0.950 . S
C1107 C1104 1.387 . S
C1108 C1109 1.387 . S
C1108 H1112 0.950 . S
C1108 C1117 1.390 . S
C1109 C1108 1.387 . S
C1109 C1111 1.387 . S
H1110 C1117 0.950 . S
C1111 C1109 1.387 . S
C1111 C1113 1.390 . S
C1111 H1115 0.950 . S
H1112 C1108 0.950 . S
C1113 C1111 1.390 . S
C1113 C1114 1.387 . S
C1113 H1116 0.950 . S
C1114 C1113 1.387 . S
C1114 C1117 1.387 . S
H1115 C1111 0.950 . S
H1116 C1113 0.950 . S
C1117 C1108 1.390 . S
C1117 H1110 0.950 . S
C1117 C1114 1.387 . S
C1118 C1119 1.387 . S
C1118 H1122 0.950 . S
C1118 C1127 1.390 . S
C1119 C1118 1.387 . S
C1119 C1121 1.387 1_556 S
H1120 C1127 0.950 . S
C1121 C1119 1.387 1_554 S
C1121 C1123 1.390 . S
C1121 H1125 0.950 . S
H1122 C1118 0.950 . S
C1123 C1121 1.390 . S
C1123 C1124 1.387 . S
C1123 H1126 0.950 . S
C1124 C1123 1.387 . S
C1124 C1127 1.387 1_554 S
H1125 C1121 0.950 . S
H1126 C1123 0.950 . S
C1127 C1118 1.390 . S
C1127 H1120 0.950 . S
C1127 C1124 1.387 1_556 S
C1128 C1129 1.387 1_556 S
C1128 H1132 0.950 . S
C1128 C1137 1.391 . S
C1129 C1128 1.387 1_554 S
C1129 C1131 1.387 . S
H1130 C1137 0.950 . S
C1131 C1129 1.387 . S
C1131 C1133 1.390 . S
C1131 H1135 0.950 . S
H1132 C1128 0.950 . S
C1133 C1131 1.390 . S
C1133 C1134 1.387 1_554 S
C1133 H1136 0.950 . S
C1134 C1133 1.387 1_556 S
C1134 C1137 1.387 . S
H1135 C1131 0.950 . S
H1136 C1133 0.950 . S
C1137 C1128 1.391 . S
C1137 H1130 0.950 . S
C1137 C1134 1.387 . S
C1138 C1139 1.387 . S
C1138 H1142 0.950 . S
C1138 C1147 1.390 . S
C1139 C1138 1.387 . S
C1139 C1141 1.387 . S
H1140 C1147 0.950 . S
C1141 C1139 1.387 . S
C1141 C1143 1.390 . S
C1141 H1145 0.950 . S
H1142 C1138 0.950 . S
C1143 C1141 1.390 . S
C1143 C1144 1.387 . S
C1143 H1146 0.950 . S
C1144 C1143 1.387 . S
C1144 C1147 1.387 . S
H1145 C1141 0.950 . S
H1146 C1143 0.950 . S
C1147 C1138 1.390 . S
C1147 H1140 0.950 . S
C1147 C1144 1.387 . S
C1148 C1149 1.387 . S
C1148 H1152 0.950 . S
C1148 C1157 1.390 . S
C1149 C1148 1.387 . S
C1149 C1151 1.387 . S
H1150 C1157 0.950 . S
C1151 C1149 1.387 . S
C1151 C1153 1.390 . S
C1151 H1155 0.950 . S
H1152 C1148 0.950 . S
C1153 C1151 1.390 . S
C1153 C1154 1.387 . S
C1153 H1156 0.950 . S
C1154 C1153 1.387 . S
C1154 C1157 1.387 . S
H1155 C1151 0.950 . S
H1156 C1153 0.950 . S
C1157 C1148 1.390 . S
C1157 H1150 0.950 . S
C1157 C1154 1.387 . S
C1158 C1159 1.387 . S
C1158 H1162 0.950 . S
C1158 C1167 1.390 . S
C1159 C1158 1.387 . S
C1159 C1161 1.387 . S
H1160 C1167 0.950 . S
C1161 C1159 1.387 . S
C1161 C1163 1.390 . S
C1161 H1165 0.950 . S
H1162 C1158 0.950 . S
C1163 C1161 1.390 . S
C1163 C1164 1.387 . S
C1163 H1166 0.950 . S
C1164 C1163 1.387 . S
C1164 C1167 1.387 . S
H1165 C1161 0.950 . S
H1166 C1163 0.950 . S
C1167 C1158 1.390 . S
C1167 H1160 0.950 . S
C1167 C1164 1.387 . S
C849 C569 2.324 . S
C854 C39 2.324 . S
C859 C75 2.012 . S
C864 C605 2.012 . S
C869 C463 2.324 . S
C874 C145 2.324 . S
C879 C499 2.010 . S
C884 C181 2.010 . S
C889 C251 2.325 . S
C894 C781 2.325 . S
C899 C817 2.008 . S
C904 C287 2.008 . S
C909 C357 2.323 . S
C914 C675 2.323 . S
C919 C711 2.011 . S
C924 C393 2.011 . S
C929 C568 1.518 . S
C934 C38 1.518 . S
C939 C82 1.163 . S
C944 C612 1.163 . S
C949 C144 1.519 . S
C954 C462 1.519 . S
C959 C188 1.163 . S
C964 C506 1.163 . S
C969 C250 1.519 . S
C974 C780 1.519 . S
C979 C294 1.166 . S
C984 C824 1.166 . S
C989 C674 1.519 . S
C994 C356 1.519 . S
C999 C718 1.166 . S
C1004 C400 1.166 . S
C1009 C22 1.932 . S
C1014 C340 1.932 . S
C1019 C92 1.813 . S
C1024 C410 1.813 . S
C1029 C128 1.932 . S
C1034 C234 1.932 . S
C1039 C198 1.813 . S
C1044 C304 1.813 . S
C1049 C446 1.932 . S
C1054 C764 1.932 . S
C1059 C834 1.811 . S
C1064 C516 1.811 . S
C1069 C552 1.932 . S
C1074 C658 1.932 . S
C1079 C728 1.811 . S
C1084 C622 1.811 . S
C1089 C29 1.912 . S
C1094 C833 1.925 . S
C1099 C665 1.913 . S
C1104 C91 1.925 . S
C1109 C727 1.927 . S
C1114 C135 1.914 . S
C1119 C771 1.913 . S
C1124 C197 1.926 . S
C1129 C515 1.927 . S
C1134 C241 1.914 . S
C1139 C559 1.914 . S
C1144 C303 1.926 . S
C1149 C347 1.913 . S
C1154 C621 1.926 . S
C1159 C409 1.925 . S
C1164 C453 1.913 . S
