# Generated by pormake.
# Topology uki, (4)-cn, num edge types: 1
# Building blocks:
#     Node 0, Type 0, BuildingBlock: MUDLON_clean_sbu_0, # of connection points: 4
#     Node 1, Type 0, BuildingBlock: MUDLON_clean_sbu_0, # of connection points: 4
#     Node 2, Type 0, BuildingBlock: MUDLON_clean_sbu_0, # of connection points: 4
#     Node 3, Type 0, BuildingBlock: MUDLON_clean_sbu_0, # of connection points: 4
#     Node 4, Type 0, BuildingBlock: MUDLON_clean_sbu_0, # of connection points: 4
#     Node 5, Type 0, BuildingBlock: MUDLON_clean_sbu_0, # of connection points: 4
#     Node 6, Type 0, BuildingBlock: MUDLON_clean_sbu_0, # of connection points: 4
#     Node 7, Type 0, BuildingBlock: MUDLON_clean_sbu_0, # of connection points: 4
#     Node 8, Type 0, BuildingBlock: MUDLON_clean_sbu_0, # of connection points: 4
#     Node 9, Type 0, BuildingBlock: MUDLON_clean_sbu_0, # of connection points: 4
#     Node 10, Type 0, BuildingBlock: MUDLON_clean_sbu_0, # of connection points: 4
#     Node 11, Type 0, BuildingBlock: MUDLON_clean_sbu_0, # of connection points: 4
#     Node 12, Type 0, BuildingBlock: MUDLON_clean_sbu_0, # of connection points: 4
#     Node 13, Type 0, BuildingBlock: MUDLON_clean_sbu_0, # of connection points: 4
#     Node 14, Type 0, BuildingBlock: MUDLON_clean_sbu_0, # of connection points: 4
#     Node 15, Type 0, BuildingBlock: MUDLON_clean_sbu_0, # of connection points: 4
#     Edge 16, Type (0, 0), BuildingBlock: EZIPEK_clean_linker_0, # of connection points: 2
#     Edge 17, Type (0, 0), BuildingBlock: EZIPEK_clean_linker_0, # of connection points: 2
#     Edge 18, Type (0, 0), BuildingBlock: EZIPEK_clean_linker_0, # of connection points: 2
#     Edge 19, Type (0, 0), BuildingBlock: EZIPEK_clean_linker_0, # of connection points: 2
#     Edge 20, Type (0, 0), BuildingBlock: EZIPEK_clean_linker_0, # of connection points: 2
#     Edge 21, Type (0, 0), BuildingBlock: EZIPEK_clean_linker_0, # of connection points: 2
#     Edge 22, Type (0, 0), BuildingBlock: EZIPEK_clean_linker_0, # of connection points: 2
#     Edge 23, Type (0, 0), BuildingBlock: EZIPEK_clean_linker_0, # of connection points: 2
#     Edge 24, Type (0, 0), BuildingBlock: EZIPEK_clean_linker_0, # of connection points: 2
#     Edge 25, Type (0, 0), BuildingBlock: EZIPEK_clean_linker_0, # of connection points: 2
#     Edge 26, Type (0, 0), BuildingBlock: EZIPEK_clean_linker_0, # of connection points: 2
#     Edge 27, Type (0, 0), BuildingBlock: EZIPEK_clean_linker_0, # of connection points: 2
#     Edge 28, Type (0, 0), BuildingBlock: EZIPEK_clean_linker_0, # of connection points: 2
#     Edge 29, Type (0, 0), BuildingBlock: EZIPEK_clean_linker_0, # of connection points: 2
#     Edge 30, Type (0, 0), BuildingBlock: EZIPEK_clean_linker_0, # of connection points: 2
#     Edge 31, Type (0, 0), BuildingBlock: EZIPEK_clean_linker_0, # of connection points: 2
#     Edge 32, Type (0, 0), BuildingBlock: EZIPEK_clean_linker_0, # of connection points: 2
#     Edge 33, Type (0, 0), BuildingBlock: EZIPEK_clean_linker_0, # of connection points: 2
#     Edge 34, Type (0, 0), BuildingBlock: EZIPEK_clean_linker_0, # of connection points: 2
#     Edge 35, Type (0, 0), BuildingBlock: EZIPEK_clean_linker_0, # of connection points: 2
#     Edge 36, Type (0, 0), BuildingBlock: EZIPEK_clean_linker_0, # of connection points: 2
#     Edge 37, Type (0, 0), BuildingBlock: EZIPEK_clean_linker_0, # of connection points: 2
#     Edge 38, Type (0, 0), BuildingBlock: EZIPEK_clean_linker_0, # of connection points: 2
#     Edge 39, Type (0, 0), BuildingBlock: EZIPEK_clean_linker_0, # of connection points: 2
#     Edge 40, Type (0, 0), BuildingBlock: EZIPEK_clean_linker_0, # of connection points: 2
#     Edge 41, Type (0, 0), BuildingBlock: EZIPEK_clean_linker_0, # of connection points: 2
#     Edge 42, Type (0, 0), BuildingBlock: EZIPEK_clean_linker_0, # of connection points: 2
#     Edge 43, Type (0, 0), BuildingBlock: EZIPEK_clean_linker_0, # of connection points: 2
#     Edge 44, Type (0, 0), BuildingBlock: EZIPEK_clean_linker_0, # of connection points: 2
#     Edge 45, Type (0, 0), BuildingBlock: EZIPEK_clean_linker_0, # of connection points: 2
#     Edge 46, Type (0, 0), BuildingBlock: EZIPEK_clean_linker_0, # of connection points: 2
#     Edge 47, Type (0, 0), BuildingBlock: EZIPEK_clean_linker_0, # of connection points: 2
# Relax obj value: 0.065
# Max RMSD: 0.232
# Mean RMSD: 0.232
data_MOF--net-uki--node1-MUDLON_clean_sbu_0--edge1-EZIPEK_clean_linker_0
_symmetry_space_group_name_H-M    P1
_symmetry_Int_Tables_number       1
_symmetry_cell_setting            triclinic
loop_
_symmetry_equiv_pos_as_xyz
'x, y, z'
_cell_length_a     24.138378
_cell_length_b     24.391412
_cell_length_c     53.953842
_cell_angle_alpha  90.166335
_cell_angle_beta   89.89222
_cell_angle_gamma 90.09254
loop_
_atom_site_label
_atom_site_type_symbol
_atom_site_fract_x
_atom_site_fract_y
_atom_site_fract_z
_atom_type_partial_charge
Mg0 Mg 0.10813 0.22674 0.31192 0.0
C1 C 0.99504 0.2918 0.31745 0.0
O2 O 1.00971 0.30717 0.33985 0.0
C3 C 0.19997 0.2342 0.34825 0.0
O4 O 0.22543 0.21992 0.32769 0.0
C5 C 0.14488 0.30914 0.27434 0.0
O6 O 0.09414 0.32587 0.27859 0.0
O7 O 0.1624 0.26597 0.28492 0.0
O8 O 0.02606 0.26033 0.30482 0.0
O9 O 0.09728 0.13907 0.30709 0.0
C10 C 0.05591 0.11955 0.31877 0.0
O11 O 0.0258 0.15237 0.33264 0.0
O12 O 0.1476 0.24121 0.34792 0.0
Mg13 Mg 0.24394 0.93438 0.711 0.0
C14 C 0.27093 0.04314 0.7309 0.0
O15 O 0.22977 0.02678 0.745 0.0
C16 C 0.22474 0.84427 0.67481 0.0
O17 O 0.20309 0.82422 0.69523 0.0
C18 C 0.28921 0.88915 0.76043 0.0
O19 O 0.24997 0.91837 0.77094 0.0
O20 O 0.29208 0.88596 0.73695 0.0
O21 O 0.28516 0.01377 0.71242 0.0
O22 O 0.15808 0.94924 0.72125 0.0
C23 C 0.12793 0.96878 0.70412 0.0
O24 O 0.14919 0.97491 0.68186 0.0
O25 O 0.24599 0.89209 0.67526 0.0
Mg26 Mg 0.93257 0.78668 0.3068 0.0
C27 C 0.03891 0.71187 0.31178 0.0
O28 O 0.01862 0.69145 0.33239 0.0
C29 C 0.83497 0.78196 0.33977 0.0
O30 O 0.8172 0.8089 0.32029 0.0
C31 C 0.88462 0.6998 0.2783 0.0
O32 O 0.90814 0.67696 0.29762 0.0
O33 O 0.8863 0.7517 0.27622 0.0
O34 O 1.01322 0.74949 0.3004 0.0
O35 O 0.9465 0.87455 0.30488 0.0
C36 C 0.99051 0.89124 0.31545 0.0
O37 O 0.02249 0.85562 0.32668 0.0
O38 O 0.88525 0.76604 0.34021 0.0
Mg39 Mg 0.79658 0.10614 0.71774 0.0
C40 C 0.75846 1.00057 0.73524 0.0
O41 O 0.79337 0.01787 0.75219 0.0
C42 C 0.82179 0.19477 0.68039 0.0
O43 O 0.86381 0.20131 0.69556 0.0
C44 C 0.72967 0.18869 0.74716 0.0
O45 O 0.73682 0.21759 0.7269 0.0
O46 O 0.75499 0.14339 0.74943 0.0
O47 O 0.75205 0.02881 0.71568 0.0
O48 O 0.884 0.08713 0.72321 0.0
C49 C 0.90209 0.04367 0.7129 0.0
O50 O 0.86785 0.01259 0.70022 0.0
O51 O 0.78631 0.15736 0.68485 0.0
Mg52 Mg 0.09492 0.28775 0.96759 0.0
C53 C 0.97014 0.25462 0.95952 0.0
O54 O 0.96694 0.29363 0.94286 0.0
C55 C 0.19357 0.28685 0.93385 0.0
O56 O 0.21695 0.29308 0.95563 0.0
C57 C 0.14639 0.19448 0.99132 0.0
O58 O 0.12286 0.1743 0.97133 0.0
O59 O 0.14295 0.24565 0.99553 0.0
O60 O 1.01618 0.24427 0.9699 0.0
O61 O 0.07999 0.37299 0.97693 0.0
C62 C 0.06192 0.40375 0.95979 0.0
O63 O 0.05505 0.38348 0.93743 0.0
O64 O 0.14099 0.2827 0.93257 0.0
Mg65 Mg 0.29437 0.91217 0.05672 0.0
C66 C 0.25968 0.01994 0.0387 0.0
O67 O 0.29758 1.00487 0.02261 0.0
C68 C 0.29949 0.81692 0.09196 0.0
O69 O 0.31281 0.7924 0.07108 0.0
C70 C 0.2537 0.87201 1.0053 0.0
O71 O 0.29292 0.90364 0.99633 0.0
O72 O 0.24902 0.86567 0.02861 0.0
O73 O 0.25014 0.98971 0.05738 0.0
O74 O 0.38156 0.93025 0.0488 0.0
C75 C 0.40156 0.9732 0.05892 0.0
O76 O 0.36933 1.00406 0.07273 0.0
O77 O 0.28896 0.86805 0.09185 0.0
Mg78 Mg 0.94468 0.73795 0.96376 0.0
C79 C 0.0667 0.77881 0.95363 0.0
O80 O 0.06433 0.75363 0.9321 0.0
C81 C 0.85322 0.7785 0.92858 0.0
O82 O 0.83899 0.80799 0.94793 0.0
C83 C 0.89885 0.82038 0.99802 0.0
O84 O 0.92954 0.84974 0.9829 0.0
O85 O 0.89658 0.7687 0.99496 0.0
O86 O 0.02437 0.78001 0.96767 0.0
O87 O 0.95991 0.65017 0.9666 0.0
C88 C 1.0061 0.63209 0.97433 0.0
O89 O 0.04411 0.66656 0.9821 0.0
O90 O 0.89679 0.74912 0.92944 0.0
Mg91 Mg 0.74278 0.09406 0.05431 0.0
C92 C 0.78479 0.97455 0.05916 0.0
O93 O 0.74566 0.96831 0.07582 0.0
C94 C 0.71916 0.17654 0.09394 0.0
O95 O 0.68325 0.19029 0.07678 0.0
C96 C 0.79247 0.13242 1.00574 0.0
O97 O 0.77427 0.08435 0.99827 0.0
O98 O 0.78009 0.1493 0.02738 0.0
O99 O 0.79328 0.02119 0.04949 0.0
O100 O 0.65696 0.07 0.04666 0.0
C101 C 0.62846 0.04858 0.06403 0.0
O102 O 0.65055 0.04385 0.08615 0.0
O103 O 0.75022 0.13515 0.09024 0.0
Mg104 Mg 0.59237 0.75076 0.81722 0.0
C105 C 0.48665 0.78901 0.79732 0.0
O106 O 0.50839 0.75991 0.77924 0.0
C107 C 0.69641 0.75392 0.84767 0.0
O108 O 0.71547 0.73495 0.82651 0.0
C109 C 0.64077 0.83666 0.78694 0.0
O110 O 0.61983 0.8623 0.80623 0.0
O111 O 0.6358 0.78487 0.78552 0.0
O112 O 0.51299 0.79328 0.81766 0.0
O113 O 0.57309 0.66401 0.8133 0.0
C114 C 0.52871 0.64717 0.82355 0.0
O115 O 0.49777 0.68205 0.83594 0.0
O116 O 0.64491 0.76457 0.84973 0.0
Mg117 Mg 0.74557 0.41136 0.21622 0.0
C118 C 0.78249 0.52116 0.23141 0.0
O119 O 0.7478 0.5063 0.24893 0.0
C120 C 0.72226 0.31866 0.18048 0.0
O121 O 0.6825 0.31047 0.19672 0.0
C122 C 0.83361 0.37111 0.24929 0.0
O123 O 0.86132 0.39103 0.23039 0.0
O124 O 0.78095 0.37222 0.24887 0.0
O125 O 0.79006 0.48916 0.21306 0.0
O126 O 0.65799 0.43074 0.22107 0.0
C127 C 0.63964 0.47283 0.20991 0.0
O128 O 0.67351 0.50223 0.19628 0.0
O129 O 0.75597 0.35821 0.18382 0.0
Mg130 Mg 0.43059 0.30588 0.81233 0.0
C131 C 0.53803 0.23609 0.80837 0.0
O132 O 0.50748 0.19515 0.81624 0.0
C133 C 0.33575 0.2897 0.84702 0.0
O134 O 0.31041 0.29702 0.82579 0.0
C135 C 0.37785 0.21119 0.78703 0.0
O136 O 0.39167 0.1904 0.80856 0.0
O137 O 0.38755 0.26162 0.78284 0.0
O138 O 0.5177 0.28404 0.80762 0.0
O139 O 0.43252 0.39442 0.80803 0.0
C140 C 0.47065 0.41701 0.82075 0.0
O141 O 0.50201 0.38625 0.8349 0.0
O142 O 0.38856 0.28976 0.8476 0.0
Mg143 Mg 0.30199 0.59252 0.21702 0.0
C144 C 0.28388 0.47766 0.23255 0.0
O145 O 0.33207 0.48853 0.2427 0.0
C146 C 0.29925 0.68891 0.18242 0.0
O147 O 0.31206 0.71387 0.20323 0.0
C148 C 0.20761 0.63485 0.24517 0.0
O149 O 0.18532 0.61446 0.22494 0.0
O150 O 0.26011 0.63458 0.24734 0.0
O151 O 0.26185 0.51282 0.21827 0.0
O152 O 0.38942 0.57674 0.22312 0.0
C153 C 0.41486 0.5528 0.2055 0.0
O154 O 0.38854 0.5435 0.1846 0.0
O155 O 0.29148 0.63729 0.18236 0.0
Mg156 Mg 0.6002 0.79854 0.46173 0.0
C157 C 0.49882 0.72057 0.46251 0.0
O158 O 0.53537 0.68094 0.46171 0.0
C159 C 0.66587 0.75298 0.41541 0.0
O160 O 0.63827 0.70705 0.41848 0.0
C161 C 0.65347 0.70761 0.49042 0.0
O162 O 0.64874 0.68492 0.46848 0.0
O163 O 0.6377 0.75689 0.49355 0.0
O164 O 0.5145 0.76962 0.45882 0.0
O165 O 0.5873 0.88563 0.46886 0.0
C166 C 0.54349 0.90078 0.48009 0.0
O167 O 0.50967 0.8637 0.48915 0.0
O168 O 0.656 0.79385 0.42948 0.0
Mg169 Mg 0.78962 0.42686 0.55825 0.0
C170 C 0.75785 0.53847 0.54269 0.0
O171 O 0.79814 0.52639 0.52725 0.0
C172 C 0.81504 0.33773 0.5945 0.0
O173 O 0.84606 0.32313 0.57557 0.0
C174 C 0.74024 0.38847 0.50811 0.0
O175 O 0.77058 0.42766 0.49839 0.0
O176 O 0.74374 0.3782 0.53116 0.0
O177 O 0.74593 0.50491 0.55989 0.0
O178 O 0.87608 0.44341 0.54874 0.0
C179 C 0.90038 0.47956 0.56188 0.0
O180 O 0.87235 0.50446 0.5795 0.0
O181 O 0.7863 0.38131 0.59299 0.0
Mg182 Mg 0.43463 0.23997 0.47135 0.0
C183 C 0.55971 0.26926 0.46297 0.0
O184 O 0.56213 0.2261 0.44842 0.0
C185 C 0.33821 0.25381 0.43594 0.0
O186 O 0.31536 0.27196 0.45648 0.0
C187 C 0.40729 0.30627 0.51708 0.0
O188 O 0.45874 0.29398 0.52265 0.0
O189 O 0.38514 0.28551 0.49787 0.0
O190 O 0.51354 0.28406 0.4722 0.0
O191 O 0.45088 0.15616 0.48288 0.0
C192 C 0.47085 0.12424 0.46648 0.0
O193 O 0.47724 0.14226 0.44374 0.0
O194 O 0.38886 0.23893 0.43614 0.0
Mg195 Mg 0.23914 0.60198 0.55616 0.0
C196 C 0.27845 0.491 0.54672 0.0
O197 O 0.24767 0.50211 0.52735 0.0
C198 C 0.21489 0.70209 0.58837 0.0
O199 O 0.18087 0.71278 0.57004 0.0
C200 C 0.30185 0.68025 0.52132 0.0
O201 O 0.28281 0.71837 0.53629 0.0
O202 O 0.28705 0.63079 0.52444 0.0
O203 O 0.28158 0.52583 0.56422 0.0
O204 O 0.15326 0.58172 0.54766 0.0
C205 C 0.12985 0.54635 0.56148 0.0
O206 O 0.15826 0.52404 0.57956 0.0
O207 O 0.24439 0.6589 0.58753 0.0
C208 C 0.20521 0.39104 0.27914 0.0
C209 C 0.18462 0.34862 0.26367 0.0
C210 C 0.23347 0.38788 0.22796 0.0
C211 C 0.24977 0.43291 0.24298 0.0
N212 N 0.24418 0.48225 0.28185 0.0
N213 N 0.17421 0.30781 0.22328 0.0
C214 C 0.23409 0.43567 0.26836 0.0
C215 C 0.19752 0.3472 0.23803 0.0
N216 N 0.19742 0.38839 0.30424 0.0
N217 N 0.25369 0.38334 0.20436 0.0
H218 H 0.14933 0.27645 0.23032 0.0
H219 H 0.17682 0.30784 0.20403 0.0
H220 H 0.2797 0.41271 0.19645 0.0
H221 H 0.24807 0.34886 0.19323 0.0
H222 H 0.21698 0.41445 0.3168 0.0
H223 H 0.17502 0.35715 0.31283 0.0
H224 H 0.22811 0.48923 0.29949 0.0
H225 H 0.26389 0.51675 0.27461 0.0
C226 C 0.38675 0.78082 0.78586 0.0
C227 C 0.43147 0.81458 0.79361 0.0
C228 C 0.37396 0.8963 0.78723 0.0
C229 C 0.33338 0.86304 0.77542 0.0
N230 N 0.29978 0.77372 0.76359 0.0
N231 N 0.46934 0.90497 0.80064 0.0
C232 C 0.33921 0.80521 0.77496 0.0
C233 C 0.4252 0.87245 0.79454 0.0
N234 N 0.38947 0.72541 0.78946 0.0
N235 N 0.36406 0.95082 0.7911 0.0
H236 H 0.50731 0.88951 0.80645 0.0
H237 H 0.4698 0.94733 0.79829 0.0
H238 H 0.32834 0.97057 0.78509 0.0
H239 H 0.38927 0.97578 0.80199 0.0
H240 H 0.35645 0.69879 0.78634 0.0
H241 H 0.42329 0.70651 0.79787 0.0
H242 H 0.30478 0.73218 0.75972 0.0
H243 H 0.26264 0.78984 0.75696 0.0
C244 C 0.78136 0.62189 0.23848 0.0
C245 C 0.81284 0.57383 0.23427 0.0
C246 C 0.89567 0.62196 0.24888 0.0
C247 C 0.86136 0.66383 0.25876 0.0
N248 N 0.77098 0.70533 0.26245 0.0
N249 N 0.90181 0.52876 0.23359 0.0
C250 C 0.80416 0.6651 0.25294 0.0
C251 C 0.87089 0.57441 0.23835 0.0
N252 N 0.72985 0.62604 0.22831 0.0
N253 N 0.95195 0.62809 0.24953 0.0
H254 H 0.88594 0.49441 0.22461 0.0
H255 H 0.94259 0.52406 0.23947 0.0
H256 H 0.97087 0.66322 0.25672 0.0
H257 H 0.97943 0.60132 0.24085 0.0
H258 H 0.70595 0.66152 0.2291 0.0
H259 H 0.71416 0.59568 0.2166 0.0
H260 H 0.72792 0.70434 0.26133 0.0
H261 H 0.78623 0.73826 0.27273 0.0
C262 C 0.58228 0.22027 0.76708 0.0
C263 C 0.58792 0.22441 0.79321 0.0
C264 C 0.6881 0.20867 0.78929 0.0
C265 C 0.68135 0.20029 0.76341 0.0
N266 N 0.61942 0.18248 0.72915 0.0
N267 N 0.64412 0.21584 0.8298 0.0
C268 C 0.62774 0.20185 0.75269 0.0
C269 C 0.64028 0.21642 0.80454 0.0
N270 N 0.53368 0.23451 0.75583 0.0
N271 N 0.74018 0.21101 0.79912 0.0
H272 H 0.61016 0.22309 0.84134 0.0
H273 H 0.67984 0.20465 0.83929 0.0
H274 H 0.77585 0.20541 0.78846 0.0
H275 H 0.74834 0.22243 0.81736 0.0
H276 H 0.52971 0.23836 0.73669 0.0
H277 H 0.49845 0.24685 0.76552 0.0
H278 H 0.58021 0.17707 0.72148 0.0
H279 H 0.65092 0.16582 0.71825 0.0
C280 C 0.25447 0.11984 0.02995 0.0
C281 C 0.22639 0.06941 0.03341 0.0
C282 C 0.14127 0.11062 0.0175 0.0
C283 C 0.17242 0.15645 1.00921 0.0
N284 N 0.25989 0.20452 1.00684 0.0
N285 N 0.14284 0.01524 0.02961 0.0
C286 C 0.22918 0.16168 0.01564 0.0
C287 C 0.16937 0.06456 0.02742 0.0
N288 N 0.30525 0.12759 0.04053 0.0
N289 N 0.08474 0.1115 0.01606 0.0
H290 H 0.16148 0.9804 0.03694 0.0
H291 H 0.10347 1.00776 0.02248 0.0
H292 H 0.06291 0.14528 1.0094 0.0
H293 H 0.05945 0.08144 0.02383 0.0
H294 H 0.32609 0.16501 0.04049 0.0
H295 H 0.32368 0.09791 0.05169 0.0
H296 H 0.30284 0.20668 1.0084 0.0
H297 H 0.24312 0.23628 0.99644 0.0
C298 C 0.20819 0.79183 0.98421 0.0
C299 C 0.21033 0.84909 0.98872 0.0
C300 C 0.12146 0.86117 0.96722 0.0
C301 C 0.11924 0.80382 0.9627 0.0
N302 N 0.16481 0.71575 0.9626 0.0
N303 N 0.17475 0.93992 0.98118 0.0
C304 C 0.16419 0.76958 0.96972 0.0
C305 C 0.16885 0.88431 0.97904 0.0
N306 N 0.2475 0.75853 0.99445 0.0
N307 N 0.07743 0.89331 0.96072 0.0
H308 H 0.20744 0.95846 0.99061 0.0
H309 H 0.14936 0.96816 0.97233 0.0
H310 H 0.04401 0.87862 0.9504 0.0
H311 H 0.07257 0.93385 0.96637 0.0
H312 H 0.24487 0.71596 0.9947 0.0
H313 H 0.28186 0.77365 1.004 0.0
H314 H 0.19877 0.69001 0.96478 0.0
H315 H 0.13279 0.6974 0.9527 0.0
C316 C 0.89811 0.88067 0.03564 0.0
C317 C 0.8681 0.84861 0.01818 0.0
C318 C 0.78157 0.89322 0.03071 0.0
C319 C 0.81174 0.92622 0.04773 0.0
N320 N 0.8953 0.944 0.07054 0.0
N321 N 0.78021 0.81353 1.00379 0.0
C322 C 0.86905 0.91744 0.05154 0.0
C323 C 0.8094 0.85097 0.01743 0.0
N324 N 0.95456 0.87659 0.03659 0.0
N325 N 0.7272 0.90478 0.02589 0.0
H326 H 0.79889 0.78263 0.99341 0.0
H327 H 0.73728 0.80975 1.00456 0.0
H328 H 0.70519 0.93546 0.03506 0.0
H329 H 0.70488 0.88696 1.01146 0.0
H330 H 0.97982 0.90339 0.0465 0.0
H331 H 0.9766 0.84694 0.02669 0.0
H332 H 0.93594 0.93624 0.07585 0.0
H333 H 0.87471 0.97101 0.08243 0.0
C334 C 0.82706 0.21932 0.98593 0.0
C335 C 0.83455 0.16274 0.99093 0.0
C336 C 0.92345 0.16537 0.96884 0.0
C337 C 0.9202 0.22333 0.96751 0.0
N338 N 0.87144 0.30669 0.9784 0.0
N339 N 0.89603 0.0843 0.9913 0.0
C340 C 0.87242 0.25077 0.97676 0.0
C341 C 0.88417 0.13614 0.98332 0.0
N342 N 0.77639 0.2429 0.98961 0.0
N343 N 0.96382 0.13807 0.95602 0.0
H344 H 0.87033 0.06199 1.00309 0.0
H345 H 0.93434 0.06568 0.98842 0.0
H346 H 0.99246 0.15808 0.94469 0.0
H347 H 0.96501 0.09548 0.95451 0.0
H348 H 0.767 0.28263 0.98397 0.0
H349 H 0.74215 0.22092 0.99602 0.0
H350 H 0.84031 0.3282 0.98761 0.0
H351 H 0.90398 0.33165 0.97261 0.0
C352 C 0.63736 0.91344 0.75673 0.0
C353 C 0.66751 0.86931 0.76711 0.0
C354 C 0.75119 0.90183 0.74606 0.0
C355 C 0.724 0.9518 0.74072 0.0
N356 N 0.64059 1.00653 0.74141 0.0
N357 N 0.75414 0.82105 0.77197 0.0
C358 C 0.66653 0.95768 0.74565 0.0
C359 C 0.72453 0.86256 0.76143 0.0
N360 N 0.58078 0.91274 0.75748 0.0
N361 N 0.80253 0.89222 0.73633 0.0
H362 H 0.73622 0.79108 0.78312 0.0
H363 H 0.79713 0.81831 0.77093 0.0
H364 H 0.82171 0.91997 0.72437 0.0
H365 H 0.82306 0.85486 0.73787 0.0
H366 H 0.55614 0.94147 0.74847 0.0
H367 H 0.55858 0.87987 0.7649 0.0
H368 H 0.60062 0.01515 0.74758 0.0
H369 H 0.66006 0.03991 0.73309 0.0
C370 C 0.90442 0.27763 0.29594 0.0
C371 C 0.94503 0.31449 0.30522 0.0
C372 C 0.89829 0.3904 0.28421 0.0
C373 C 0.86461 0.35214 0.27136 0.0
N374 N 0.83541 0.25888 0.26434 0.0
N375 N 0.98348 0.40605 0.30671 0.0
C376 C 0.86685 0.29563 0.27734 0.0
C377 C 0.94224 0.37116 0.29935 0.0
N378 N 0.9018 0.22549 0.30508 0.0
N379 N 0.88783 0.44521 0.282 0.0
H380 H 1.01665 0.39396 0.31773 0.0
H381 H 0.9871 0.44617 0.30034 0.0
H382 H 0.85503 0.46022 0.27144 0.0
H383 H 0.90771 0.47516 0.29254 0.0
H384 H 0.8703 0.1979 0.30074 0.0
H385 H 0.9284 0.21162 0.31893 0.0
H386 H 0.84004 0.21657 0.2657 0.0
H387 H 0.80669 0.27073 0.25097 0.0
C388 C 0.27703 0.14213 0.74237 0.0
C389 C 0.30412 0.09107 0.73911 0.0
C390 C 0.3859 0.1275 0.76041 0.0
C391 C 0.3549 0.17435 0.76764 0.0
N392 N 0.26983 0.22609 0.76629 0.0
N393 N 0.38403 0.03348 0.74605 0.0
C394 C 0.30045 0.18222 0.75846 0.0
C395 C 0.35894 0.08356 0.74796 0.0
N396 N 0.22899 0.15218 0.72986 0.0
N397 N 0.44135 0.12524 0.76535 0.0
H398 H 0.36628 0.99995 0.73708 0.0
H399 H 0.42095 0.02375 0.75496 0.0
H400 H 0.46225 0.15652 0.7746 0.0
H401 H 0.46755 0.09514 0.75824 0.0
H402 H 0.20948 0.19022 0.7296 0.0
H403 H 0.21179 0.12369 0.71764 0.0
H404 H 0.22773 0.23045 0.76266 0.0
H405 H 0.28552 0.2566 0.77788 0.0
C406 C 0.08642 0.63353 0.29 0.0
C407 C 0.08843 0.68778 0.29958 0.0
C408 C 0.17265 0.70632 0.27534 0.0
C409 C 0.17091 0.65193 0.26595 0.0
N410 N 0.13525 0.55974 0.26932 0.0
N411 N 0.14024 0.77072 0.30654 0.0
C412 C 0.13071 0.61425 0.27494 0.0
C413 C 0.13395 0.72247 0.29392 0.0
N414 N 0.04069 0.60148 0.29386 0.0
N415 N 0.20885 0.74352 0.26547 0.0
H416 H 0.1129 0.78303 0.32048 0.0
H417 H 0.17513 0.79565 0.30498 0.0
H418 H 0.23759 0.73353 0.25175 0.0
H419 H 0.20766 0.78528 0.26951 0.0
H420 H 0.03386 0.56448 0.28467 0.0
H421 H 1.00724 0.6135 0.3048 0.0
H422 H 0.11097 0.52946 0.27754 0.0
H423 H 0.16685 0.54403 0.2582 0.0
C424 C 0.75084 0.63908 0.53585 0.0
C425 C 0.72371 0.5877 0.53767 0.0
C426 C 0.64148 0.62744 0.51835 0.0
C427 C 0.6735 0.67352 0.51122 0.0
N428 N 0.75825 0.72545 0.51388 0.0
N429 N 0.6415 0.53261 0.53133 0.0
C430 C 0.72777 0.68066 0.52061 0.0
C431 C 0.66797 0.58204 0.52969 0.0
N432 N 0.79837 0.64785 0.54894 0.0
N433 N 0.58572 0.62739 0.5142 0.0
H434 H 0.6587 0.49838 0.53982 0.0
H435 H 0.60358 0.52442 0.52291 0.0
H436 H 0.56563 0.66095 0.50645 0.0
H437 H 0.55895 0.59725 0.52082 0.0
H438 H 0.81851 0.68558 0.54985 0.0
H439 H 0.81389 0.6185 0.56113 0.0
H440 H 0.80029 0.72972 0.51775 0.0
H441 H 0.74195 0.75726 0.50329 0.0
C442 C 0.65506 0.38662 0.48098 0.0
C443 C 0.69897 0.35817 0.49286 0.0
C444 C 0.65403 0.27031 0.4833 0.0
C445 C 0.611 0.29864 0.47071 0.0
N446 N 0.57808 0.38218 0.4522 0.0
N447 N 0.74749 0.27338 0.49968 0.0
C448 C 0.61399 0.35637 0.46786 0.0
C449 C 0.7007 0.3001 0.49219 0.0
N450 N 0.65054 0.44225 0.48338 0.0
N451 N 0.64902 0.21559 0.48822 0.0
H452 H 0.78268 0.29401 0.50599 0.0
H453 H 0.75349 0.23141 0.4973 0.0
H454 H 0.61585 0.19181 0.48221 0.0
H455 H 0.67561 0.19453 0.50001 0.0
H456 H 0.61576 0.46418 0.4778 0.0
H457 H 0.67942 0.46632 0.49274 0.0
H458 H 0.5816 0.42337 0.44741 0.0
H459 H 0.54811 0.36108 0.44201 0.0
C460 C 0.29686 0.39025 0.54983 0.0
C461 C 0.31686 0.44396 0.54532 0.0
C462 C 0.39995 0.40713 0.52529 0.0
C463 C 0.37956 0.35316 0.52933 0.0
N464 N 0.31533 0.29222 0.54947 0.0
N465 N 0.3924 0.50416 0.53466 0.0
C466 C 0.33002 0.34438 0.54294 0.0
C467 C 0.37032 0.45249 0.53516 0.0
N468 N 0.24561 0.38343 0.56017 0.0
N469 N 0.4453 0.41539 0.51048 0.0
H470 H 0.37123 0.53857 0.54116 0.0
H471 H 0.4334 0.51242 0.52991 0.0
H472 H 0.46817 0.38364 0.50256 0.0
H473 H 0.45803 0.45383 0.50435 0.0
H474 H 0.22519 0.34591 0.56131 0.0
H475 H 0.22267 0.41628 0.56713 0.0
H476 H 0.28222 0.2829 0.5611 0.0
H477 H 0.3391 0.25807 0.54469 0.0
C478 C 0.44789 0.72183 0.5029 0.0
C479 C 0.44717 0.71181 0.47694 0.0
C480 C 0.34897 0.68566 0.47957 0.0
C481 C 0.35125 0.69168 0.50575 0.0
N482 N 0.40645 0.70242 0.54273 0.0
N483 N 0.39981 0.67851 0.44069 0.0
C484 C 0.40161 0.70643 0.51753 0.0
C485 C 0.39845 0.69198 0.46528 0.0
N486 N 0.49274 0.74645 0.51371 0.0
N487 N 0.29924 0.67538 0.4684 0.0
H488 H 0.43492 0.68431 0.42968 0.0
H489 H 0.36763 0.65851 0.43155 0.0
H490 H 0.26256 0.67021 0.47839 0.0
H491 H 0.29344 0.67584 0.44929 0.0
H492 H 0.49255 0.76111 0.53186 0.0
H493 H 0.52891 0.75612 0.50412 0.0
H494 H 0.44397 0.70642 0.55207 0.0
H495 H 0.3743 0.68937 0.55423 0.0
C496 C 0.31369 0.28187 0.39241 0.0
C497 C 0.30354 0.24793 0.41327 0.0
C498 C 0.22512 0.20457 0.3915 0.0
C499 C 0.23301 0.24104 0.37134 0.0
N500 N 0.27925 0.3195 0.35379 0.0
N501 N 0.2472 0.18001 0.43389 0.0
C502 C 0.27599 0.28094 0.37209 0.0
C503 C 0.2583 0.21041 0.4132 0.0
N504 N 0.35944 0.315 0.392 0.0
N505 N 0.18808 0.1623 0.38935 0.0
H506 H 0.2732 0.17902 0.44929 0.0
H507 H 0.21082 0.1577 0.43637 0.0
H508 H 0.16306 0.15651 0.37383 0.0
H509 H 0.18484 0.13039 0.40204 0.0
H510 H 0.37308 0.33568 0.37628 0.0
H511 H 0.38621 0.31932 0.40702 0.0
H512 H 0.30547 0.35338 0.3544 0.0
H513 H 0.25224 0.32031 0.33875 0.0
C514 C 0.26906 0.76389 0.61711 0.0
C515 C 0.21777 0.73973 0.61012 0.0
C516 C 0.17063 0.79249 0.64272 0.0
C517 C 0.22263 0.81132 0.65158 0.0
N518 N 0.32248 0.80808 0.64952 0.0
N519 N 0.12114 0.72344 0.6192 0.0
C520 C 0.27223 0.79537 0.63935 0.0
C521 C 0.16884 0.7521 0.62367 0.0
N522 N 0.31435 0.75851 0.60207 0.0
N523 N 0.12277 0.81448 0.65198 0.0
H524 H 0.11833 0.69235 0.60596 0.0
H525 H 0.08591 0.72665 0.63029 0.0
H526 H 0.12237 0.84507 0.66554 0.0
H527 H 0.08385 0.8065 0.64447 0.0
H528 H 0.35114 0.78005 0.60482 0.0
H529 H 0.31358 0.73652 0.58549 0.0
H530 H 0.35978 0.7922 0.64297 0.0
H531 H 0.32674 0.83069 0.66584 0.0
C532 C 0.6999 0.74266 0.37131 0.0
C533 C 0.71079 0.75652 0.39642 0.0
C534 C 0.80493 0.7858 0.38477 0.0
C535 C 0.79507 0.76857 0.36001 0.0
N536 N 0.7385 0.71683 0.33149 0.0
N537 N 0.77864 0.77735 0.42795 0.0
C538 C 0.74412 0.74275 0.35384 0.0
C539 C 0.76483 0.77399 0.40344 0.0
N540 N 0.64691 0.73208 0.36378 0.0
N541 N 0.85118 0.81572 0.39036 0.0
H542 H 0.75128 0.7671 0.44219 0.0
H543 H 0.81891 0.78459 0.43407 0.0
H544 H 0.88137 0.82576 0.37729 0.0
H545 H 0.85721 0.83461 0.40749 0.0
H546 H 0.63593 0.7275 0.34522 0.0
H547 H 0.61295 0.73323 0.37573 0.0
H548 H 0.70421 0.6929 0.32689 0.0
H549 H 0.77075 0.71418 0.31864 0.0
C550 C 0.80926 0.20934 0.63439 0.0
C551 C 0.81584 0.2316 0.65856 0.0
C552 C 0.82371 0.32392 0.64074 0.0
C553 C 0.8124 0.30212 0.61685 0.0
N554 N 0.78024 0.22578 0.59215 0.0
N555 N 0.81541 0.31156 0.68509 0.0
C556 C 0.80092 0.2453 0.61403 0.0
C557 C 0.81894 0.28938 0.66185 0.0
N558 N 0.81384 0.15412 0.63054 0.0
N559 N 0.84168 0.37681 0.64328 0.0
H560 H 0.81005 0.28791 0.70098 0.0
H561 H 0.81186 0.35354 0.68833 0.0
H562 H 0.84718 0.40321 0.62831 0.0
H563 H 0.85625 0.39281 0.65997 0.0
H564 H 0.81527 0.13654 0.61292 0.0
H565 H 0.82186 0.12628 0.64469 0.0
H566 H 0.76601 0.18571 0.5899 0.0
H567 H 0.77162 0.25101 0.57707 0.0
C568 C 0.2588 0.33624 0.90517 0.0
C569 C 0.22879 0.28778 0.91116 0.0
C570 C 0.27443 0.23886 0.87678 0.0
C571 C 0.30225 0.28798 0.87013 0.0
N572 N 0.31723 0.38487 0.87576 0.0
N573 N 0.20403 0.19412 0.90196 0.0
C574 C 0.2937 0.33701 0.88383 0.0
C575 C 0.23532 0.23943 0.89667 0.0
N576 N 0.25383 0.38167 0.91995 0.0
N577 N 0.28686 0.19133 0.86445 0.0
H578 H 0.17732 0.19195 0.91713 0.0
H579 H 0.20196 0.15952 0.89068 0.0
H580 H 0.31507 0.18975 0.8498 0.0
H581 H 0.27254 0.1528 0.86964 0.0
H582 H 0.27957 0.41581 0.91874 0.0
H583 H 0.22515 0.38463 0.93437 0.0
H584 H 0.3078 0.42336 0.88296 0.0
H585 H 0.34424 0.38679 0.86067 0.0
C586 C 0.34647 0.72207 0.14385 0.0
C587 C 0.29836 0.7205 0.15897 0.0
C588 C 0.2497 0.78017 0.12959 0.0
C589 C 0.29921 0.7852 0.11548 0.0
N590 N 0.39753 0.76955 0.11165 0.0
N591 N 0.20663 0.75333 0.16844 0.0
C592 C 0.34836 0.75829 0.12323 0.0
C593 C 0.25071 0.75127 0.15252 0.0
N594 N 0.3903 0.68863 0.14912 0.0
N595 N 0.20115 0.80076 0.12054 0.0
H596 H 0.20501 0.73093 0.18488 0.0
H597 H 0.17335 0.77998 0.16626 0.0
H598 H 0.19856 0.82168 0.10375 0.0
H599 H 0.16263 0.79327 0.12856 0.0
H600 H 0.42389 0.68315 0.13724 0.0
H601 H 0.39131 0.66299 0.16456 0.0
H602 H 0.43574 0.75591 0.11805 0.0
H603 H 0.40098 0.79696 0.09692 0.0
C604 C 0.82347 0.79834 0.88478 0.0
C605 C 0.81337 0.77209 0.90776 0.0
C606 C 0.72737 0.73214 0.89114 0.0
C607 C 0.73518 0.76192 0.86883 0.0
N608 N 0.78549 0.83054 0.84581 0.0
N609 N 0.75286 0.71909 0.93417 0.0
C610 C 0.78198 0.79687 0.86599 0.0
C611 C 0.76429 0.74075 0.91136 0.0
N612 N 0.87288 0.82439 0.88085 0.0
N613 N 0.68662 0.69322 0.89254 0.0
H614 H 0.78036 0.72097 0.94903 0.0
H615 H 0.71465 0.70214 0.93887 0.0
H616 H 0.6592 0.68496 0.8781 0.0
H617 H 0.68282 0.66568 0.90715 0.0
H618 H 0.88549 0.83902 0.86363 0.0
H619 H 0.90327 0.82793 0.89449 0.0
H620 H 0.81548 0.86091 0.84379 0.0
H621 H 0.7553 0.83167 0.83201 0.0
C622 C 0.72133 0.18942 0.14052 0.0
C623 C 0.72562 0.21188 0.11634 0.0
C624 C 0.72694 0.30471 0.13411 0.0
C625 C 0.72674 0.28219 0.15835 0.0
N626 N 0.73766 0.20273 0.18443 0.0
N627 N 0.74797 0.28991 0.09074 0.0
C628 C 0.72812 0.22437 0.1615 0.0
C629 C 0.73312 0.26927 0.11333 0.0
N630 N 0.7081 0.13536 0.14357 0.0
N631 N 0.71822 0.35954 0.13071 0.0
H632 H 0.75504 0.26516 0.07526 0.0
H633 H 0.75924 0.33073 0.08807 0.0
H634 H 0.71163 0.38695 0.14527 0.0
H635 H 0.712 0.37691 0.11332 0.0
H636 H 0.69844 0.11834 0.16073 0.0
H637 H 0.70179 0.1085 0.12878 0.0
H638 H 0.74454 0.16112 0.18742 0.0
H639 H 0.74453 0.22695 0.2001 0.0
C640 C 1.01434 0.97652 0.33905 0.0
C641 C 1.00562 0.95018 0.3159 0.0
C642 C 0.0273 0.03605 0.29435 0.0
C643 C 0.04152 0.06053 0.31739 0.0
N644 N 0.0594 0.05063 0.36113 0.0
N645 N 1.01357 0.95175 0.27129 0.0
C646 C 0.0381 0.02977 0.33961 0.0
C647 C 1.01471 0.97906 0.29344 0.0
N648 N 0.99785 0.95159 0.36051 0.0
N649 N 0.02351 0.06754 0.2735 0.0
H650 H 1.0051 0.90994 0.2698 0.0
H651 H 0.02589 0.96946 0.25461 0.0
H652 H 0.03185 0.10949 0.27338 0.0
H653 H 1.00736 0.05307 0.25683 0.0
H654 H 0.99795 0.97125 0.37767 0.0
H655 H 0.97869 0.91323 0.36086 0.0
H656 H 0.06324 0.02776 0.37731 0.0
H657 H 0.07846 0.08898 0.36219 0.0
C658 C 0.97636 0.97684 0.72427 0.0
C659 C 0.96145 0.02833 0.71413 0.0
C660 C 0.05845 0.04497 0.70308 0.0
C661 C 0.07147 0.98998 0.70943 0.0
N662 N 0.04105 0.90102 0.72357 0.0
N663 N 0.98717 0.1091 0.691 0.0
C664 C 0.03009 0.95525 0.71959 0.0
C665 C 1.00225 0.06211 0.70295 0.0
N666 N 0.93949 0.94923 0.7389 0.0
N667 N 0.09993 0.08134 0.69783 0.0
H668 H 0.94644 0.12305 0.69021 0.0
H669 H 1.01437 0.13182 0.68006 0.0
H670 H 0.14171 0.07066 0.69822 0.0
H671 H 0.0933 0.12324 0.69562 0.0
H672 H 0.94953 0.91383 0.74864 0.0
H673 H 0.90064 0.96513 0.74339 0.0
H674 H 1.01065 0.8726 0.72837 0.0
H675 H 0.07953 0.8833 0.72 0.0
C676 C 0.07774 0.50322 0.95116 0.0
C677 C 0.04911 0.46217 0.96466 0.0
C678 C 0.99522 0.53311 0.98624 0.0
C679 C 0.02021 0.57349 0.97101 0.0
N680 N 0.07689 0.59616 0.9356 0.0
N681 N 0.97476 0.4367 0.99234 0.0
C682 C 0.05928 0.55835 0.95255 0.0
C683 C 1.00636 0.47669 0.98158 0.0
N684 N 0.12373 0.48979 0.93761 0.0
N685 N 0.96188 0.54876 1.0055 0.0
H686 H 0.98147 0.39497 0.98938 0.0
H687 H 0.93911 0.44477 1.00261 0.0
H688 H 0.95222 0.58967 1.00917 0.0
H689 H 0.94731 0.52176 0.01893 0.0
H690 H 0.14972 0.51884 0.92953 0.0
H691 H 0.13905 0.44991 0.93642 0.0
H692 H 0.10091 0.58621 0.92018 0.0
H693 H 0.06295 0.63659 0.93552 0.0
C694 C 0.47543 0.03953 0.04595 0.0
C695 C 0.46101 0.98812 0.0564 0.0
C696 C 0.55871 0.97193 0.06623 0.0
C697 C 0.57158 0.02685 0.05949 0.0
N698 N 0.54002 0.11559 0.04566 0.0
N699 N 0.48801 0.90743 0.07914 0.0
C700 C 0.52949 0.0613 0.04982 0.0
C701 C 0.50246 0.95456 0.06706 0.0
N702 N 0.43763 0.06705 0.0319 0.0
N703 N 0.60036 0.93574 0.07116 0.0
H704 H 0.44742 0.89293 0.08012 0.0
H705 H 0.51563 0.88494 0.08987 0.0
H706 H 0.64204 0.94648 0.07022 0.0
H707 H 0.59384 0.89388 0.07363 0.0
H708 H 0.44712 0.10225 0.02185 0.0
H709 H 0.39833 0.05128 0.02817 0.0
H710 H 0.50926 0.14382 0.04126 0.0
H711 H 0.57853 0.13369 0.04876 0.0
C712 C 0.48027 0.50567 0.84357 0.0
C713 C 0.47972 0.47718 0.82062 0.0
C714 C 0.50429 0.56237 0.79911 0.0
C715 C 0.51235 0.58857 0.82237 0.0
N716 N 0.51763 0.58184 0.86696 0.0
N717 N 0.49915 0.47634 0.77668 0.0
C718 C 0.50276 0.5594 0.84469 0.0
C719 C 0.49357 0.50497 0.79835 0.0
N720 N 0.45785 0.48194 0.86421 0.0
N721 N 0.50492 0.59252 0.7778 0.0
H722 H 0.49214 0.43426 0.77529 0.0
H723 H 0.51526 0.49348 0.76054 0.0
H724 H 0.51169 0.63475 0.7776 0.0
H725 H 0.49352 0.57659 0.76061 0.0
H726 H 0.45214 0.50291 0.88087 0.0
H727 H 0.43951 0.44317 0.86395 0.0
H728 H 0.51687 0.56002 0.88353 0.0
H729 H 0.53617 0.62032 0.86862 0.0
C730 C 0.53816 0.45609 0.2022 0.0
C731 C 0.58081 0.48958 0.21209 0.0
C732 C 0.51493 0.56495 0.21776 0.0
C733 C 0.47154 0.53061 0.2091 0.0
N734 N 0.43957 0.43873 0.20001 0.0
N735 N 0.60627 0.56894 0.23613 0.0
C736 C 0.48243 0.47467 0.20338 0.0
C737 C 0.56808 0.54196 0.22198 0.0
N738 N 0.55087 0.40764 0.19076 0.0
N739 N 0.50644 0.61995 0.22079 0.0
H740 H 0.64429 0.55146 0.2407 0.0
H741 H 0.59776 0.60525 0.24561 0.0
H742 H 0.46866 0.63894 0.21717 0.0
H743 H 0.53837 0.6475 0.2246 0.0
H744 H 0.52206 0.38478 0.18073 0.0
H745 H 0.59112 0.39239 0.18956 0.0
H746 H 0.44518 0.39657 0.19817 0.0
H747 H 0.3981 0.45004 0.20176 0.0
C748 C 0.52831 0.05495 0.48971 0.0
C749 C 0.48572 0.06671 0.47233 0.0
C750 C 0.4831 0.9702 0.45961 0.0
C751 C 0.5239 0.95796 0.47767 0.0
N752 N 0.57904 0.98568 0.51265 0.0
N753 N 0.41368 0.03415 0.44513 0.0
C754 C 0.54463 0.99949 0.49357 0.0
C755 C 0.46053 0.02386 0.45855 0.0
N756 N 0.55485 0.09685 0.50169 0.0
N757 N 0.46723 0.93098 0.44288 0.0
H758 H 0.39515 0.07273 0.44445 0.0
H759 H 0.39003 1.00358 0.43674 0.0
H760 H 0.48239 0.89096 0.44308 0.0
H761 H 0.44256 0.93918 0.42752 0.0
H762 H 0.5906 0.09161 0.51217 0.0
H763 H 0.54328 0.13777 0.49993 0.0
H764 H 0.59084 0.01287 0.52658 0.0
H765 H 0.59265 0.94564 0.51559 0.0
C766 C 1.00211 0.45569 0.55863 0.0
C767 C 0.95915 0.49526 0.55742 0.0
C768 C 0.02824 0.56918 0.55747 0.0
C769 C 0.07126 0.52961 0.55752 0.0
N770 N 0.09878 0.43584 0.55057 0.0
N771 N 0.93232 0.58783 0.54775 0.0
C772 C 0.05804 0.47298 0.55573 0.0
C773 C 0.97259 0.5515 0.55435 0.0
N774 N 0.99011 0.40219 0.56387 0.0
N775 N 0.03976 0.62326 0.56179 0.0
H776 H 0.89189 0.57538 0.54399 0.0
H777 H 0.94047 0.62853 0.54316 0.0
H778 H 0.07966 0.63813 0.56483 0.0
H779 H 1.00906 0.65262 0.56462 0.0
H780 H 0.02046 0.3731 0.56768 0.0
H781 H 0.94991 0.38774 0.56655 0.0
H782 H 0.09089 0.3946 0.5469 0.0
H783 H 0.13965 0.44756 0.54716 0.0
loop_
_geom_bond_atom_site_label_1
_geom_bond_atom_site_label_2
_geom_bond_distance
_geom_bond_site_symmetry_2
_ccdc_geom_bond_type
Mg0 O7 2.141 . S
Mg0 O8 2.048 . S
Mg0 O9 2.048 . S
Mg0 O12 2.141 . S
C1 O2 1.313 1_455 S
C1 O8 1.195 . S
O2 C1 1.313 1_655 S
C3 O4 1.245 . S
C3 O12 1.289 . S
O4 C3 1.245 . S
C5 O6 1.245 . S
C5 O7 1.289 . S
O6 C5 1.245 . S
O7 Mg0 2.141 . S
O7 C5 1.289 . S
O8 Mg0 2.048 . S
O8 C1 1.195 . S
O9 Mg0 2.048 . S
O9 C10 1.195 . S
C10 O9 1.195 . S
C10 O11 1.313 . S
O11 C10 1.313 . S
O12 Mg0 2.141 . S
O12 C3 1.289 . S
Mg13 O20 2.141 . S
Mg13 O21 2.048 . S
Mg13 O22 2.048 . S
Mg13 O25 2.141 . S
C14 O15 1.313 . S
C14 O21 1.195 . S
O15 C14 1.313 . S
C16 O17 1.245 . S
C16 O25 1.289 . S
O17 C16 1.245 . S
C18 O19 1.245 . S
C18 O20 1.289 . S
O19 C18 1.245 . S
O20 Mg13 2.141 . S
O20 C18 1.289 . S
O21 Mg13 2.048 . S
O21 C14 1.195 . S
O22 Mg13 2.048 . S
O22 C23 1.195 . S
C23 O22 1.195 . S
C23 O24 1.313 . S
O24 C23 1.313 . S
O25 Mg13 2.141 . S
O25 C16 1.289 . S
Mg26 O33 2.141 . S
Mg26 O34 2.048 . S
Mg26 O35 2.048 . S
Mg26 O38 2.141 . S
C27 O28 1.313 1_655 S
C27 O34 1.195 . S
O28 C27 1.313 1_455 S
C29 O30 1.245 . S
C29 O38 1.289 . S
O30 C29 1.245 . S
C31 O32 1.245 . S
C31 O33 1.289 . S
O32 C31 1.245 . S
O33 Mg26 2.141 . S
O33 C31 1.289 . S
O34 Mg26 2.048 . S
O34 C27 1.195 . S
O35 Mg26 2.048 . S
O35 C36 1.195 . S
C36 O35 1.195 . S
C36 O37 1.313 . S
O37 C36 1.313 . S
O38 Mg26 2.141 . S
O38 C29 1.289 . S
Mg39 O46 2.141 . S
Mg39 O47 2.048 . S
Mg39 O48 2.048 . S
Mg39 O51 2.141 . S
C40 O41 1.313 . S
C40 O47 1.195 . S
O41 C40 1.313 . S
C42 O43 1.245 . S
C42 O51 1.289 . S
O43 C42 1.245 . S
C44 O45 1.245 . S
C44 O46 1.289 . S
O45 C44 1.245 . S
O46 Mg39 2.141 . S
O46 C44 1.289 . S
O47 Mg39 2.048 . S
O47 C40 1.195 . S
O48 Mg39 2.048 . S
O48 C49 1.195 . S
C49 O48 1.195 . S
C49 O50 1.313 . S
O50 C49 1.313 . S
O51 Mg39 2.141 . S
O51 C42 1.289 . S
Mg52 O59 2.141 . S
Mg52 O60 2.048 . S
Mg52 O61 2.048 . S
Mg52 O64 2.141 . S
C53 O54 1.313 1_455 S
C53 O60 1.195 . S
O54 C53 1.313 1_655 S
C55 O56 1.245 . S
C55 O64 1.289 . S
O56 C55 1.245 . S
C57 O58 1.245 . S
C57 O59 1.289 . S
O58 C57 1.245 . S
O59 Mg52 2.141 . S
O59 C57 1.289 . S
O60 Mg52 2.048 . S
O60 C53 1.195 . S
O61 Mg52 2.048 . S
O61 C62 1.195 . S
C62 O61 1.195 . S
C62 O63 1.313 . S
O63 C62 1.313 . S
O64 Mg52 2.141 . S
O64 C55 1.289 . S
Mg65 O72 2.141 . S
Mg65 O73 2.048 . S
Mg65 O74 2.048 . S
Mg65 O77 2.141 . S
C66 O67 1.313 1_554 S
C66 O73 1.195 . S
O67 C66 1.313 1_556 S
C68 O69 1.245 . S
C68 O77 1.289 . S
O69 C68 1.245 . S
C70 O71 1.245 . S
C70 O72 1.289 . S
O71 C70 1.245 . S
O72 Mg65 2.141 . S
O72 C70 1.289 . S
O73 Mg65 2.048 . S
O73 C66 1.195 . S
O74 Mg65 2.048 . S
O74 C75 1.195 . S
C75 O74 1.195 . S
C75 O76 1.313 . S
O76 C75 1.313 . S
O77 Mg65 2.141 . S
O77 C68 1.289 . S
Mg78 O85 2.141 . S
Mg78 O86 2.048 . S
Mg78 O87 2.048 . S
Mg78 O90 2.141 . S
C79 O80 1.313 1_655 S
C79 O86 1.195 . S
O80 C79 1.313 1_455 S
C81 O82 1.245 . S
C81 O90 1.289 . S
O82 C81 1.245 . S
C83 O84 1.245 . S
C83 O85 1.289 . S
O84 C83 1.245 . S
O85 Mg78 2.141 . S
O85 C83 1.289 . S
O86 Mg78 2.048 . S
O86 C79 1.195 . S
O87 Mg78 2.048 . S
O87 C88 1.195 . S
C88 O87 1.195 . S
C88 O89 1.313 . S
O89 C88 1.313 . S
O90 Mg78 2.141 . S
O90 C81 1.289 . S
Mg91 O98 2.141 . S
Mg91 O99 2.048 . S
Mg91 O100 2.048 . S
Mg91 O103 2.141 . S
C92 O93 1.313 1_554 S
C92 O99 1.195 . S
O93 C92 1.313 1_556 S
C94 O95 1.245 . S
C94 O103 1.289 . S
O95 C94 1.245 . S
C96 O97 1.245 . S
C96 O98 1.289 . S
O97 C96 1.245 . S
O98 Mg91 2.141 . S
O98 C96 1.289 . S
O99 Mg91 2.048 . S
O99 C92 1.195 . S
O100 Mg91 2.048 . S
O100 C101 1.195 . S
C101 O100 1.195 . S
C101 O102 1.313 . S
O102 C101 1.313 . S
O103 Mg91 2.141 . S
O103 C94 1.289 . S
Mg104 O111 2.141 . S
Mg104 O112 2.048 . S
Mg104 O113 2.048 . S
Mg104 O116 2.141 . S
C105 O106 1.313 . S
C105 O112 1.195 . S
O106 C105 1.313 . S
C107 O108 1.245 . S
C107 O116 1.289 . S
O108 C107 1.245 . S
C109 O110 1.245 . S
C109 O111 1.289 . S
O110 C109 1.245 . S
O111 Mg104 2.141 . S
O111 C109 1.289 . S
O112 Mg104 2.048 . S
O112 C105 1.195 . S
O113 Mg104 2.048 . S
O113 C114 1.195 . S
C114 O113 1.195 . S
C114 O115 1.313 . S
O115 C114 1.313 . S
O116 Mg104 2.141 . S
O116 C107 1.289 . S
Mg117 O124 2.141 . S
Mg117 O125 2.048 . S
Mg117 O126 2.048 . S
Mg117 O129 2.141 . S
C118 O119 1.313 . S
C118 O125 1.195 . S
O119 C118 1.313 . S
C120 O121 1.245 . S
C120 O129 1.289 . S
O121 C120 1.245 . S
C122 O123 1.245 . S
C122 O124 1.289 . S
O123 C122 1.245 . S
O124 Mg117 2.141 . S
O124 C122 1.289 . S
O125 Mg117 2.048 . S
O125 C118 1.195 . S
O126 Mg117 2.048 . S
O126 C127 1.195 . S
C127 O126 1.195 . S
C127 O128 1.313 . S
O128 C127 1.313 . S
O129 Mg117 2.141 . S
O129 C120 1.289 . S
Mg130 O137 2.141 . S
Mg130 O138 2.048 . S
Mg130 O139 2.048 . S
Mg130 O142 2.141 . S
C131 O132 1.313 . S
C131 O138 1.195 . S
O132 C131 1.313 . S
C133 O134 1.245 . S
C133 O142 1.289 . S
O134 C133 1.245 . S
C135 O136 1.245 . S
C135 O137 1.289 . S
O136 C135 1.245 . S
O137 Mg130 2.141 . S
O137 C135 1.289 . S
O138 Mg130 2.048 . S
O138 C131 1.195 . S
O139 Mg130 2.048 . S
O139 C140 1.195 . S
C140 O139 1.195 . S
C140 O141 1.313 . S
O141 C140 1.313 . S
O142 Mg130 2.141 . S
O142 C133 1.289 . S
Mg143 O150 2.141 . S
Mg143 O151 2.048 . S
Mg143 O152 2.048 . S
Mg143 O155 2.141 . S
C144 O145 1.313 . S
C144 O151 1.195 . S
O145 C144 1.313 . S
C146 O147 1.245 . S
C146 O155 1.289 . S
O147 C146 1.245 . S
C148 O149 1.245 . S
C148 O150 1.289 . S
O149 C148 1.245 . S
O150 Mg143 2.141 . S
O150 C148 1.289 . S
O151 Mg143 2.048 . S
O151 C144 1.195 . S
O152 Mg143 2.048 . S
O152 C153 1.195 . S
C153 O152 1.195 . S
C153 O154 1.313 . S
O154 C153 1.313 . S
O155 Mg143 2.141 . S
O155 C146 1.289 . S
Mg156 O163 2.141 . S
Mg156 O164 2.048 . S
Mg156 O165 2.048 . S
Mg156 O168 2.141 . S
C157 O158 1.313 . S
C157 O164 1.195 . S
O158 C157 1.313 . S
C159 O160 1.245 . S
C159 O168 1.289 . S
O160 C159 1.245 . S
C161 O162 1.245 . S
C161 O163 1.289 . S
O162 C161 1.245 . S
O163 Mg156 2.141 . S
O163 C161 1.289 . S
O164 Mg156 2.048 . S
O164 C157 1.195 . S
O165 Mg156 2.048 . S
O165 C166 1.195 . S
C166 O165 1.195 . S
C166 O167 1.313 . S
O167 C166 1.313 . S
O168 Mg156 2.141 . S
O168 C159 1.289 . S
Mg169 O176 2.141 . S
Mg169 O177 2.048 . S
Mg169 O178 2.048 . S
Mg169 O181 2.141 . S
C170 O171 1.313 . S
C170 O177 1.195 . S
O171 C170 1.313 . S
C172 O173 1.245 . S
C172 O181 1.289 . S
O173 C172 1.245 . S
C174 O175 1.245 . S
C174 O176 1.289 . S
O175 C174 1.245 . S
O176 Mg169 2.141 . S
O176 C174 1.289 . S
O177 Mg169 2.048 . S
O177 C170 1.195 . S
O178 Mg169 2.048 . S
O178 C179 1.195 . S
C179 O178 1.195 . S
C179 O180 1.313 . S
O180 C179 1.313 . S
O181 Mg169 2.141 . S
O181 C172 1.289 . S
Mg182 O189 2.141 . S
Mg182 O190 2.048 . S
Mg182 O191 2.048 . S
Mg182 O194 2.141 . S
C183 O184 1.313 . S
C183 O190 1.195 . S
O184 C183 1.313 . S
C185 O186 1.245 . S
C185 O194 1.289 . S
O186 C185 1.245 . S
C187 O188 1.245 . S
C187 O189 1.289 . S
O188 C187 1.245 . S
O189 Mg182 2.141 . S
O189 C187 1.289 . S
O190 Mg182 2.048 . S
O190 C183 1.195 . S
O191 Mg182 2.048 . S
O191 C192 1.195 . S
C192 O191 1.195 . S
C192 O193 1.313 . S
O193 C192 1.313 . S
O194 Mg182 2.141 . S
O194 C185 1.289 . S
Mg195 O202 2.141 . S
Mg195 O203 2.048 . S
Mg195 O204 2.048 . S
Mg195 O207 2.141 . S
C196 O197 1.313 . S
C196 O203 1.195 . S
O197 C196 1.313 . S
C198 O199 1.245 . S
C198 O207 1.289 . S
O199 C198 1.245 . S
C200 O201 1.245 . S
C200 O202 1.289 . S
O201 C200 1.245 . S
O202 Mg195 2.141 . S
O202 C200 1.289 . S
O203 Mg195 2.048 . S
O203 C196 1.195 . S
O204 Mg195 2.048 . S
O204 C205 1.195 . S
C205 O204 1.195 . S
C205 O206 1.313 . S
O206 C205 1.313 . S
O207 Mg195 2.141 . S
O207 C198 1.289 . S
C208 C209 1.363 . S
C208 C214 1.379 . S
C208 N216 1.356 . S
C209 C208 1.363 . S
C209 C215 1.363 . S
C210 C211 1.363 . S
C210 C215 1.379 . S
C210 N217 1.356 . S
C211 C210 1.363 . S
C211 C214 1.363 . S
N212 C214 1.356 . S
N212 H224 0.984 . S
N212 H225 0.985 . S
N213 C215 1.356 . S
N213 H218 0.984 . S
N213 H219 0.985 . S
C214 C208 1.379 . S
C214 C211 1.363 . S
C214 N212 1.356 . S
C215 C209 1.363 . S
C215 C210 1.379 . S
C215 N213 1.356 . S
N216 C208 1.356 . S
N216 H222 0.984 . S
N216 H223 0.984 . S
N217 C210 1.356 . S
N217 H220 0.984 . S
N217 H221 0.985 . S
H218 N213 0.984 . S
H219 N213 0.985 . S
H220 N217 0.984 . S
H221 N217 0.985 . S
H222 N216 0.984 . S
H223 N216 0.984 . S
H224 N212 0.984 . S
H225 N212 0.985 . S
C226 C227 1.363 . S
C226 C232 1.379 . S
C226 N234 1.356 . S
C227 C226 1.363 . S
C227 C233 1.363 . S
C228 C229 1.363 . S
C228 C233 1.379 . S
C228 N235 1.356 . S
C229 C228 1.363 . S
C229 C232 1.363 . S
N230 C232 1.356 . S
N230 H242 0.984 . S
N230 H243 0.985 . S
N231 C233 1.356 . S
N231 H236 0.984 . S
N231 H237 0.985 . S
C232 C226 1.379 . S
C232 C229 1.363 . S
C232 N230 1.356 . S
C233 C227 1.363 . S
C233 C228 1.379 . S
C233 N231 1.356 . S
N234 C226 1.356 . S
N234 H240 0.984 . S
N234 H241 0.984 . S
N235 C228 1.356 . S
N235 H238 0.984 . S
N235 H239 0.985 . S
H236 N231 0.984 . S
H237 N231 0.985 . S
H238 N235 0.984 . S
H239 N235 0.985 . S
H240 N234 0.984 . S
H241 N234 0.984 . S
H242 N230 0.984 . S
H243 N230 0.985 . S
C244 C245 1.363 . S
C244 C250 1.379 . S
C244 N252 1.356 . S
C245 C244 1.363 . S
C245 C251 1.363 . S
C246 C247 1.363 . S
C246 C251 1.379 . S
C246 N253 1.356 . S
C247 C246 1.363 . S
C247 C250 1.363 . S
N248 C250 1.356 . S
N248 H260 0.984 . S
N248 H261 0.985 . S
N249 C251 1.356 . S
N249 H254 0.984 . S
N249 H255 0.985 . S
C250 C244 1.379 . S
C250 C247 1.363 . S
C250 N248 1.356 . S
C251 C245 1.363 . S
C251 C246 1.379 . S
C251 N249 1.356 . S
N252 C244 1.356 . S
N252 H258 0.984 . S
N252 H259 0.984 . S
N253 C246 1.356 . S
N253 H256 0.984 . S
N253 H257 0.985 . S
H254 N249 0.984 . S
H255 N249 0.985 . S
H256 N253 0.984 . S
H257 N253 0.985 . S
H258 N252 0.984 . S
H259 N252 0.984 . S
H260 N248 0.984 . S
H261 N248 0.985 . S
C262 C263 1.363 . S
C262 C268 1.379 . S
C262 N270 1.356 . S
C263 C262 1.363 . S
C263 C269 1.363 . S
C264 C265 1.363 . S
C264 C269 1.379 . S
C264 N271 1.356 . S
C265 C264 1.363 . S
C265 C268 1.363 . S
N266 C268 1.356 . S
N266 H278 0.984 . S
N266 H279 0.985 . S
N267 C269 1.356 . S
N267 H272 0.984 . S
N267 H273 0.985 . S
C268 C262 1.379 . S
C268 C265 1.363 . S
C268 N266 1.356 . S
C269 C263 1.363 . S
C269 C264 1.379 . S
C269 N267 1.356 . S
N270 C262 1.356 . S
N270 H276 0.984 . S
N270 H277 0.984 . S
N271 C264 1.356 . S
N271 H274 0.984 . S
N271 H275 0.985 . S
H272 N267 0.984 . S
H273 N267 0.985 . S
H274 N271 0.984 . S
H275 N271 0.985 . S
H276 N270 0.984 . S
H277 N270 0.984 . S
H278 N266 0.984 . S
H279 N266 0.985 . S
C280 C281 1.363 . S
C280 C286 1.379 . S
C280 N288 1.356 . S
C281 C280 1.363 . S
C281 C287 1.363 1_556 S
C282 C283 1.363 1_554 S
C282 C287 1.379 . S
C282 N289 1.356 . S
C283 C282 1.363 1_556 S
C283 C286 1.363 . S
N284 C286 1.356 . S
N284 H296 0.984 . S
N284 H297 0.985 . S
N285 C287 1.356 . S
N285 H290 0.984 . S
N285 H291 0.985 . S
C286 C280 1.379 . S
C286 C283 1.363 . S
C286 N284 1.356 . S
C287 C281 1.363 1_554 S
C287 C282 1.379 . S
C287 N285 1.356 . S
N288 C280 1.356 . S
N288 H294 0.984 . S
N288 H295 0.984 . S
N289 C282 1.356 . S
N289 H292 1.005 . S
N289 H293 0.985 . S
H290 N285 0.984 . S
H291 N285 0.985 . S
H292 N289 1.005 . S
H293 N289 0.985 . S
H294 N288 0.984 . S
H295 N288 0.984 . S
H296 N284 0.984 . S
H297 N284 0.985 . S
C298 C299 1.363 . S
C298 C304 1.379 . S
C298 N306 1.356 . S
C299 C298 1.363 . S
C299 C305 1.363 . S
C300 C301 1.363 . S
C300 C305 1.379 . S
C300 N307 1.356 1_455 S
C301 C300 1.363 . S
C301 C304 1.363 . S
N302 C304 1.356 . S
N302 H314 0.984 . S
N302 H315 0.985 1_554 S
N303 C305 1.356 . S
N303 H308 0.984 . S
N303 H309 0.985 . S
C304 C298 1.379 . S
C304 C301 1.363 . S
C304 N302 1.356 . S
C305 C299 1.363 . S
C305 C300 1.379 . S
C305 N303 1.356 . S
N306 C298 1.356 . S
N306 H312 0.984 . S
N306 H313 0.984 . S
N307 C300 1.356 1_655 S
N307 H310 0.984 1_554 S
N307 H311 0.985 . S
H308 N303 0.984 . S
H309 N303 0.985 . S
H310 N307 0.984 1_556 S
H311 N307 0.985 . S
H312 N306 0.984 . S
H313 N306 0.984 . S
H314 N302 0.984 . S
H315 N302 0.985 1_556 S
C316 C317 1.363 . S
C316 C322 1.379 1_556 S
C316 N324 1.356 1_556 S
C317 C316 1.363 . S
C317 C323 1.363 . S
C318 C319 1.363 . S
C318 C323 1.379 . S
C318 N325 1.356 1_565 S
C319 C318 1.363 . S
C319 C322 1.363 1_556 S
N320 C322 1.356 . S
N320 H332 0.984 . S
N320 H333 0.985 . S
N321 C323 1.356 . S
N321 H326 0.984 . S
N321 H327 0.985 . S
C322 C316 1.379 1_554 S
C322 C319 1.363 1_554 S
C322 N320 1.356 . S
C323 C317 1.363 . S
C323 C318 1.379 . S
C323 N321 1.356 . S
N324 C316 1.356 1_554 S
N324 H330 0.984 . S
N324 H331 0.984 1_554 S
N325 C318 1.356 1_545 S
N325 H328 0.984 . S
N325 H329 0.985 . S
H326 N321 0.984 . S
H327 N321 0.985 . S
H328 N325 0.984 . S
H329 N325 0.985 . S
H330 N324 0.984 . S
H331 N324 0.984 1_556 S
H332 N320 0.984 . S
H333 N320 0.985 . S
C334 C335 1.363 . S
C334 C340 1.379 . S
C334 N342 1.356 . S
C335 C334 1.363 . S
C335 C341 1.363 . S
C336 C337 1.365 . S
C336 C341 1.383 . S
C336 N343 1.350 1_654 S
C337 C336 1.365 . S
C337 C340 1.363 . S
N338 C340 1.356 . S
N338 H350 0.984 . S
N338 H351 0.985 . S
N339 C341 1.356 . S
N339 H344 0.984 . S
N339 H345 0.985 . S
C340 C334 1.379 . S
C340 C337 1.363 . S
C340 N338 1.356 . S
C341 C335 1.363 . S
C341 C336 1.383 . S
C341 N339 1.356 . S
N342 C334 1.356 . S
N342 H348 0.984 . S
N342 H349 0.984 . S
N343 C336 1.350 1_456 S
N343 H346 0.984 . S
N343 H347 0.985 . S
H344 N339 0.984 . S
H345 N339 0.985 . S
H346 N343 0.984 . S
H347 N343 0.985 . S
H348 N342 0.984 . S
H349 N342 0.984 . S
H350 N338 0.984 . S
H351 N338 0.985 . S
C352 C353 1.363 . S
C352 C358 1.379 . S
C352 N360 1.356 . S
C353 C352 1.363 . S
C353 C359 1.363 . S
C354 C355 1.363 . S
C354 C359 1.379 . S
C354 N361 1.356 . S
C355 C354 1.363 . S
C355 C358 1.363 . S
N356 C358 1.356 1_545 S
N356 H368 0.984 . S
N356 H369 0.985 . S
N357 C359 1.356 . S
N357 H362 0.984 . S
N357 H363 0.985 . S
C358 C352 1.379 . S
C358 C355 1.363 . S
C358 N356 1.356 1_565 S
C359 C353 1.363 . S
C359 C354 1.379 . S
C359 N357 1.356 . S
N360 C352 1.356 . S
N360 H366 0.984 . S
N360 H367 0.984 . S
N361 C354 1.356 . S
N361 H364 0.984 . S
N361 H365 0.985 . S
H362 N357 0.984 . S
H363 N357 0.985 . S
H364 N361 0.984 . S
H365 N361 0.985 . S
H366 N360 0.984 . S
H367 N360 0.984 . S
H368 N356 0.984 . S
H369 N356 0.985 . S
C370 C371 1.363 . S
C370 C376 1.379 . S
C370 N378 1.356 . S
C371 C370 1.363 . S
C371 C377 1.363 . S
C372 C373 1.363 . S
C372 C377 1.379 . S
C372 N379 1.356 . S
C373 C372 1.363 . S
C373 C376 1.363 . S
N374 C376 1.356 . S
N374 H386 0.984 . S
N374 H387 0.985 . S
N375 C377 1.356 1_455 S
N375 H380 0.984 . S
N375 H381 0.985 . S
C376 C370 1.379 . S
C376 C373 1.363 . S
C376 N374 1.356 . S
C377 C371 1.363 . S
C377 C372 1.379 . S
C377 N375 1.356 1_655 S
N378 C370 1.356 . S
N378 H384 0.984 . S
N378 H385 0.984 . S
N379 C372 1.356 . S
N379 H382 0.984 . S
N379 H383 0.985 . S
H380 N375 0.984 . S
H381 N375 0.985 . S
H382 N379 0.984 . S
H383 N379 0.985 . S
H384 N378 0.984 . S
H385 N378 0.984 . S
H386 N374 0.984 . S
H387 N374 0.985 . S
C388 C389 1.363 . S
C388 C394 1.379 . S
C388 N396 1.356 . S
C389 C388 1.363 . S
C389 C395 1.363 . S
C390 C391 1.363 . S
C390 C395 1.379 . S
C390 N397 1.356 . S
C391 C390 1.363 . S
C391 C394 1.363 . S
N392 C394 1.356 . S
N392 H404 0.984 . S
N392 H405 0.985 . S
N393 C395 1.356 . S
N393 H398 0.984 1_545 S
N393 H399 0.985 . S
C394 C388 1.379 . S
C394 C391 1.363 . S
C394 N392 1.356 . S
C395 C389 1.363 . S
C395 C390 1.379 . S
C395 N393 1.356 . S
N396 C388 1.356 . S
N396 H402 0.984 . S
N396 H403 0.984 . S
N397 C390 1.356 . S
N397 H400 0.984 . S
N397 H401 0.985 . S
H398 N393 0.984 1_565 S
H399 N393 0.985 . S
H400 N397 0.984 . S
H401 N397 0.985 . S
H402 N396 0.984 . S
H403 N396 0.984 . S
H404 N392 0.984 . S
H405 N392 0.985 . S
C406 C407 1.363 . S
C406 C412 1.379 . S
C406 N414 1.356 1_455 S
C407 C406 1.363 . S
C407 C413 1.363 . S
C408 C409 1.363 . S
C408 C413 1.379 . S
C408 N415 1.356 . S
C409 C408 1.363 . S
C409 C412 1.363 . S
N410 C412 1.356 . S
N410 H422 0.984 . S
N410 H423 0.985 . S
N411 C413 1.356 . S
N411 H416 0.984 . S
N411 H417 0.985 . S
C412 C406 1.379 . S
C412 C409 1.363 . S
C412 N410 1.356 . S
C413 C407 1.363 . S
C413 C408 1.379 . S
C413 N411 1.356 . S
N414 C406 1.356 1_655 S
N414 H420 0.984 . S
N414 H421 0.984 . S
N415 C408 1.356 . S
N415 H418 0.984 . S
N415 H419 0.985 . S
H416 N411 0.984 . S
H417 N411 0.985 . S
H418 N415 0.984 . S
H419 N415 0.985 . S
H420 N414 0.984 . S
H421 N414 0.984 . S
H422 N410 0.984 . S
H423 N410 0.985 . S
C424 C425 1.363 . S
C424 C430 1.379 . S
C424 N432 1.356 . S
C425 C424 1.363 . S
C425 C431 1.363 . S
C426 C427 1.363 . S
C426 C431 1.379 . S
C426 N433 1.356 . S
C427 C426 1.363 . S
C427 C430 1.363 . S
N428 C430 1.356 . S
N428 H440 0.984 . S
N428 H441 0.985 . S
N429 C431 1.356 . S
N429 H434 0.984 . S
N429 H435 0.985 . S
C430 C424 1.379 . S
C430 C427 1.363 . S
C430 N428 1.356 . S
C431 C425 1.363 . S
C431 C426 1.379 . S
C431 N429 1.356 . S
N432 C424 1.356 . S
N432 H438 0.984 . S
N432 H439 0.984 . S
N433 C426 1.356 . S
N433 H436 0.984 . S
N433 H437 0.985 . S
H434 N429 0.984 . S
H435 N429 0.985 . S
H436 N433 0.984 . S
H437 N433 0.985 . S
H438 N432 0.984 . S
H439 N432 0.984 . S
H440 N428 0.984 . S
H441 N428 0.985 . S
C442 C443 1.363 . S
C442 C448 1.379 . S
C442 N450 1.356 . S
C443 C442 1.363 . S
C443 C449 1.363 . S
C444 C445 1.363 . S
C444 C449 1.379 . S
C444 N451 1.356 . S
C445 C444 1.363 . S
C445 C448 1.363 . S
N446 C448 1.356 . S
N446 H458 0.984 . S
N446 H459 0.985 . S
N447 C449 1.356 . S
N447 H452 0.984 . S
N447 H453 0.985 . S
C448 C442 1.379 . S
C448 C445 1.363 . S
C448 N446 1.356 . S
C449 C443 1.363 . S
C449 C444 1.379 . S
C449 N447 1.356 . S
N450 C442 1.356 . S
N450 H456 0.984 . S
N450 H457 0.984 . S
N451 C444 1.356 . S
N451 H454 0.984 . S
N451 H455 0.985 . S
H452 N447 0.984 . S
H453 N447 0.985 . S
H454 N451 0.984 . S
H455 N451 0.985 . S
H456 N450 0.984 . S
H457 N450 0.984 . S
H458 N446 0.984 . S
H459 N446 0.985 . S
C460 C461 1.363 . S
C460 C466 1.379 . S
C460 N468 1.356 . S
C461 C460 1.363 . S
C461 C467 1.363 . S
C462 C463 1.363 . S
C462 C467 1.379 . S
C462 N469 1.356 . S
C463 C462 1.363 . S
C463 C466 1.363 . S
N464 C466 1.356 . S
N464 H476 0.984 . S
N464 H477 0.985 . S
N465 C467 1.356 . S
N465 H470 0.984 . S
N465 H471 0.985 . S
C466 C460 1.379 . S
C466 C463 1.363 . S
C466 N464 1.356 . S
C467 C461 1.363 . S
C467 C462 1.379 . S
C467 N465 1.356 . S
N468 C460 1.356 . S
N468 H474 0.984 . S
N468 H475 0.984 . S
N469 C462 1.356 . S
N469 H472 0.984 . S
N469 H473 0.985 . S
H470 N465 0.984 . S
H471 N465 0.985 . S
H472 N469 0.984 . S
H473 N469 0.985 . S
H474 N468 0.984 . S
H475 N468 0.984 . S
H476 N464 0.984 . S
H477 N464 0.985 . S
C478 C479 1.363 . S
C478 C484 1.379 . S
C478 N486 1.356 . S
C479 C478 1.363 . S
C479 C485 1.363 . S
C480 C481 1.363 . S
C480 C485 1.379 . S
C480 N487 1.356 . S
C481 C480 1.363 . S
C481 C484 1.363 . S
N482 C484 1.356 . S
N482 H494 0.984 . S
N482 H495 0.985 . S
N483 C485 1.356 . S
N483 H488 0.984 . S
N483 H489 0.985 . S
C484 C478 1.379 . S
C484 C481 1.363 . S
C484 N482 1.356 . S
C485 C479 1.363 . S
C485 C480 1.379 . S
C485 N483 1.356 . S
N486 C478 1.356 . S
N486 H492 0.984 . S
N486 H493 0.984 . S
N487 C480 1.356 . S
N487 H490 0.984 . S
N487 H491 0.985 . S
H488 N483 0.984 . S
H489 N483 0.985 . S
H490 N487 0.984 . S
H491 N487 0.985 . S
H492 N486 0.984 . S
H493 N486 0.984 . S
H494 N482 0.984 . S
H495 N482 0.985 . S
C496 C497 1.363 . S
C496 C502 1.379 . S
C496 N504 1.356 . S
C497 C496 1.363 . S
C497 C503 1.363 . S
C498 C499 1.363 . S
C498 C503 1.379 . S
C498 N505 1.356 . S
C499 C498 1.363 . S
C499 C502 1.363 . S
N500 C502 1.356 . S
N500 H512 0.984 . S
N500 H513 0.985 . S
N501 C503 1.356 . S
N501 H506 0.984 . S
N501 H507 0.985 . S
C502 C496 1.379 . S
C502 C499 1.363 . S
C502 N500 1.356 . S
C503 C497 1.363 . S
C503 C498 1.379 . S
C503 N501 1.356 . S
N504 C496 1.356 . S
N504 H510 0.984 . S
N504 H511 0.984 . S
N505 C498 1.356 . S
N505 H508 0.984 . S
N505 H509 0.985 . S
H506 N501 0.984 . S
H507 N501 0.985 . S
H508 N505 0.984 . S
H509 N505 0.985 . S
H510 N504 0.984 . S
H511 N504 0.984 . S
H512 N500 0.984 . S
H513 N500 0.985 . S
C514 C515 1.363 . S
C514 C520 1.379 . S
C514 N522 1.356 . S
C515 C514 1.363 . S
C515 C521 1.363 . S
C516 C517 1.363 . S
C516 C521 1.379 . S
C516 N523 1.356 . S
C517 C516 1.363 . S
C517 C520 1.363 . S
N518 C520 1.356 . S
N518 H530 0.984 . S
N518 H531 0.985 . S
N519 C521 1.356 . S
N519 H524 0.984 . S
N519 H525 0.985 . S
C520 C514 1.379 . S
C520 C517 1.363 . S
C520 N518 1.356 . S
C521 C515 1.363 . S
C521 C516 1.379 . S
C521 N519 1.356 . S
N522 C514 1.356 . S
N522 H528 0.984 . S
N522 H529 0.984 . S
N523 C516 1.356 . S
N523 H526 0.984 . S
N523 H527 0.985 . S
H524 N519 0.984 . S
H525 N519 0.985 . S
H526 N523 0.984 . S
H527 N523 0.985 . S
H528 N522 0.984 . S
H529 N522 0.984 . S
H530 N518 0.984 . S
H531 N518 0.985 . S
C532 C533 1.363 . S
C532 C538 1.379 . S
C532 N540 1.356 . S
C533 C532 1.363 . S
C533 C539 1.363 . S
C534 C535 1.363 . S
C534 C539 1.379 . S
C534 N541 1.356 . S
C535 C534 1.363 . S
C535 C538 1.363 . S
N536 C538 1.356 . S
N536 H548 0.984 . S
N536 H549 0.985 . S
N537 C539 1.356 . S
N537 H542 0.984 . S
N537 H543 0.985 . S
C538 C532 1.379 . S
C538 C535 1.363 . S
C538 N536 1.356 . S
C539 C533 1.363 . S
C539 C534 1.379 . S
C539 N537 1.356 . S
N540 C532 1.356 . S
N540 H546 0.984 . S
N540 H547 0.984 . S
N541 C534 1.356 . S
N541 H544 0.984 . S
N541 H545 0.985 . S
H542 N537 0.984 . S
H543 N537 0.985 . S
H544 N541 0.984 . S
H545 N541 0.985 . S
H546 N540 0.984 . S
H547 N540 0.984 . S
H548 N536 0.984 . S
H549 N536 0.985 . S
C550 C551 1.363 . S
C550 C556 1.379 . S
C550 N558 1.356 . S
C551 C550 1.363 . S
C551 C557 1.363 . S
C552 C553 1.363 . S
C552 C557 1.379 . S
C552 N559 1.356 . S
C553 C552 1.363 . S
C553 C556 1.363 . S
N554 C556 1.356 . S
N554 H566 0.984 . S
N554 H567 0.985 . S
N555 C557 1.356 . S
N555 H560 0.984 . S
N555 H561 0.985 . S
C556 C550 1.379 . S
C556 C553 1.363 . S
C556 N554 1.356 . S
C557 C551 1.363 . S
C557 C552 1.379 . S
C557 N555 1.356 . S
N558 C550 1.356 . S
N558 H564 0.984 . S
N558 H565 0.984 . S
N559 C552 1.356 . S
N559 H562 0.984 . S
N559 H563 0.985 . S
H560 N555 0.984 . S
H561 N555 0.985 . S
H562 N559 0.984 . S
H563 N559 0.985 . S
H564 N558 0.984 . S
H565 N558 0.984 . S
H566 N554 0.984 . S
H567 N554 0.985 . S
C568 C569 1.363 . S
C568 C574 1.379 . S
C568 N576 1.356 . S
C569 C568 1.363 . S
C569 C575 1.363 . S
C570 C571 1.363 . S
C570 C575 1.379 . S
C570 N577 1.356 . S
C571 C570 1.363 . S
C571 C574 1.363 . S
N572 C574 1.356 . S
N572 H584 0.984 . S
N572 H585 0.985 . S
N573 C575 1.356 . S
N573 H578 0.984 . S
N573 H579 0.985 . S
C574 C568 1.379 . S
C574 C571 1.363 . S
C574 N572 1.356 . S
C575 C569 1.363 . S
C575 C570 1.379 . S
C575 N573 1.356 . S
N576 C568 1.356 . S
N576 H582 0.984 . S
N576 H583 0.984 . S
N577 C570 1.356 . S
N577 H580 0.984 . S
N577 H581 0.985 . S
H578 N573 0.984 . S
H579 N573 0.985 . S
H580 N577 0.984 . S
H581 N577 0.985 . S
H582 N576 0.984 . S
H583 N576 0.984 . S
H584 N572 0.984 . S
H585 N572 0.985 . S
C586 C587 1.363 . S
C586 C592 1.379 . S
C586 N594 1.356 . S
C587 C586 1.363 . S
C587 C593 1.363 . S
C588 C589 1.363 . S
C588 C593 1.379 . S
C588 N595 1.356 . S
C589 C588 1.363 . S
C589 C592 1.363 . S
N590 C592 1.356 . S
N590 H602 0.984 . S
N590 H603 0.985 . S
N591 C593 1.356 . S
N591 H596 0.984 . S
N591 H597 0.985 . S
C592 C586 1.379 . S
C592 C589 1.363 . S
C592 N590 1.356 . S
C593 C587 1.363 . S
C593 C588 1.379 . S
C593 N591 1.356 . S
N594 C586 1.356 . S
N594 H600 0.984 . S
N594 H601 0.984 . S
N595 C588 1.356 . S
N595 H598 0.984 . S
N595 H599 0.985 . S
H596 N591 0.984 . S
H597 N591 0.985 . S
H598 N595 0.984 . S
H599 N595 0.985 . S
H600 N594 0.984 . S
H601 N594 0.984 . S
H602 N590 0.984 . S
H603 N590 0.985 . S
C604 C605 1.363 . S
C604 C610 1.379 . S
C604 N612 1.356 . S
C605 C604 1.363 . S
C605 C611 1.363 . S
C606 C607 1.363 . S
C606 C611 1.379 . S
C606 N613 1.356 . S
C607 C606 1.363 . S
C607 C610 1.363 . S
N608 C610 1.356 . S
N608 H620 0.984 . S
N608 H621 0.985 . S
N609 C611 1.356 . S
N609 H614 0.984 . S
N609 H615 0.985 . S
C610 C604 1.379 . S
C610 C607 1.363 . S
C610 N608 1.356 . S
C611 C605 1.363 . S
C611 C606 1.379 . S
C611 N609 1.356 . S
N612 C604 1.356 . S
N612 H618 0.984 . S
N612 H619 0.984 . S
N613 C606 1.356 . S
N613 H616 0.984 . S
N613 H617 0.985 . S
H614 N609 0.984 . S
H615 N609 0.985 . S
H616 N613 0.984 . S
H617 N613 0.985 . S
H618 N612 0.984 . S
H619 N612 0.984 . S
H620 N608 0.984 . S
H621 N608 0.985 . S
C622 C623 1.363 . S
C622 C628 1.379 . S
C622 N630 1.356 . S
C623 C622 1.363 . S
C623 C629 1.363 . S
C624 C625 1.363 . S
C624 C629 1.379 . S
C624 N631 1.356 . S
C625 C624 1.363 . S
C625 C628 1.363 . S
N626 C628 1.356 . S
N626 H638 0.984 . S
N626 H639 0.985 . S
N627 C629 1.356 . S
N627 H632 0.984 . S
N627 H633 0.985 . S
C628 C622 1.379 . S
C628 C625 1.363 . S
C628 N626 1.356 . S
C629 C623 1.363 . S
C629 C624 1.379 . S
C629 N627 1.356 . S
N630 C622 1.356 . S
N630 H636 0.984 . S
N630 H637 0.984 . S
N631 C624 1.356 . S
N631 H634 0.984 . S
N631 H635 0.985 . S
H632 N627 0.984 . S
H633 N627 0.985 . S
H634 N631 0.984 . S
H635 N631 0.985 . S
H636 N630 0.984 . S
H637 N630 0.984 . S
H638 N626 0.984 . S
H639 N626 0.985 . S
C640 C641 1.363 . S
C640 C646 1.379 1_565 S
C640 N648 1.356 . S
C641 C640 1.363 . S
C641 C647 1.363 1_655 S
C642 C643 1.363 . S
C642 C647 1.379 1_545 S
C642 N649 1.356 . S
C643 C642 1.363 . S
C643 C646 1.363 1_455 S
N644 C646 1.356 . S
N644 H656 0.984 . S
N644 H657 0.985 1_655 S
N645 C647 1.356 . S
N645 H650 0.984 1_455 S
N645 H651 0.985 . S
C646 C640 1.379 1_545 S
C646 C643 1.363 1_655 S
C646 N644 1.356 . S
C647 C641 1.363 1_455 S
C647 C642 1.379 1_565 S
C647 N645 1.356 . S
N648 C640 1.356 . S
N648 H654 0.984 . S
N648 H655 0.984 . S
N649 C642 1.356 . S
N649 H652 0.984 . S
N649 H653 0.985 . S
H650 N645 0.984 1_655 S
H651 N645 0.985 . S
H652 N649 0.984 . S
H653 N649 0.985 . S
H654 N648 0.984 . S
H655 N648 0.984 . S
H656 N644 0.984 . S
H657 N644 0.985 1_455 S
C658 C659 1.363 . S
C658 C664 1.379 1_655 S
C658 N666 1.356 . S
C659 C658 1.363 . S
C659 C665 1.363 1_545 S
C660 C661 1.363 . S
C660 C665 1.379 1_455 S
C660 N667 1.356 . S
C661 C660 1.363 . S
C661 C664 1.363 1_565 S
N662 C664 1.356 . S
N662 H674 0.984 . S
N662 H675 0.985 1_545 S
N663 C665 1.356 . S
N663 H668 0.984 1_565 S
N663 H669 0.985 . S
C664 C658 1.379 1_455 S
C664 C661 1.363 1_545 S
C664 N662 1.356 . S
C665 C659 1.363 1_565 S
C665 C660 1.379 1_655 S
C665 N663 1.356 . S
N666 C658 1.356 . S
N666 H672 0.984 . S
N666 H673 0.984 . S
N667 C660 1.356 . S
N667 H670 0.984 . S
N667 H671 0.985 . S
H668 N663 0.984 1_545 S
H669 N663 0.985 . S
H670 N667 0.984 . S
H671 N667 0.985 . S
H672 N666 0.984 . S
H673 N666 0.984 . S
H674 N662 0.984 . S
H675 N662 0.985 1_565 S
C676 C677 1.363 . S
C676 C682 1.379 . S
C676 N684 1.356 . S
C677 C676 1.363 . S
C677 C683 1.363 1_455 S
C678 C679 1.363 . S
C678 C683 1.379 . S
C678 N685 1.356 . S
C679 C678 1.363 . S
C679 C682 1.363 1_655 S
N680 C682 1.356 . S
N680 H692 0.984 . S
N680 H693 0.985 1_455 S
N681 C683 1.356 . S
N681 H686 0.984 1_655 S
N681 H687 0.985 . S
C682 C676 1.379 . S
C682 C679 1.363 1_455 S
C682 N680 1.356 . S
C683 C677 1.363 1_655 S
C683 C678 1.379 . S
C683 N681 1.356 . S
N684 C676 1.356 . S
N684 H690 0.984 . S
N684 H691 0.984 . S
N685 C678 1.356 . S
N685 H688 0.984 . S
N685 H689 0.985 . S
H686 N681 0.984 1_455 S
H687 N681 0.985 . S
H688 N685 0.984 . S
H689 N685 0.985 . S
H690 N684 0.984 . S
H691 N684 0.984 . S
H692 N680 0.984 . S
H693 N680 0.985 1_655 S
C694 C695 1.363 . S
C694 C700 1.379 . S
C694 N702 1.356 . S
C695 C694 1.363 . S
C695 C701 1.363 1_565 S
C696 C697 1.363 . S
C696 C701 1.379 . S
C696 N703 1.356 . S
C697 C696 1.363 . S
C697 C700 1.363 1_545 S
N698 C700 1.356 . S
N698 H710 0.984 . S
N698 H711 0.985 1_565 S
N699 C701 1.356 . S
N699 H704 0.984 1_545 S
N699 H705 0.985 . S
C700 C694 1.379 . S
C700 C697 1.363 1_565 S
C700 N698 1.356 . S
C701 C695 1.363 1_545 S
C701 C696 1.379 . S
C701 N699 1.356 . S
N702 C694 1.356 . S
N702 H708 0.984 . S
N702 H709 0.984 . S
N703 C696 1.356 . S
N703 H706 0.984 . S
N703 H707 0.985 . S
H704 N699 0.984 1_565 S
H705 N699 0.985 . S
H706 N703 0.984 . S
H707 N703 0.985 . S
H708 N702 0.984 . S
H709 N702 0.984 . S
H710 N698 0.984 . S
H711 N698 0.985 1_545 S
C712 C713 1.363 . S
C712 C718 1.379 . S
C712 N720 1.356 . S
C713 C712 1.363 . S
C713 C719 1.363 . S
C714 C715 1.363 . S
C714 C719 1.379 . S
C714 N721 1.356 . S
C715 C714 1.363 . S
C715 C718 1.363 . S
N716 C718 1.356 . S
N716 H728 0.984 . S
N716 H729 0.985 . S
N717 C719 1.356 . S
N717 H722 0.984 . S
N717 H723 0.985 . S
C718 C712 1.379 . S
C718 C715 1.363 . S
C718 N716 1.356 . S
C719 C713 1.363 . S
C719 C714 1.379 . S
C719 N717 1.356 . S
N720 C712 1.356 . S
N720 H726 0.984 . S
N720 H727 0.984 . S
N721 C714 1.356 . S
N721 H724 0.984 . S
N721 H725 0.985 . S
H722 N717 0.984 . S
H723 N717 0.985 . S
H724 N721 0.984 . S
H725 N721 0.985 . S
H726 N720 0.984 . S
H727 N720 0.984 . S
H728 N716 0.984 . S
H729 N716 0.985 . S
C730 C731 1.363 . S
C730 C736 1.379 . S
C730 N738 1.356 . S
C731 C730 1.363 . S
C731 C737 1.363 . S
C732 C733 1.363 . S
C732 C737 1.379 . S
C732 N739 1.356 . S
C733 C732 1.363 . S
C733 C736 1.363 . S
N734 C736 1.356 . S
N734 H746 0.984 . S
N734 H747 0.985 . S
N735 C737 1.356 . S
N735 H740 0.984 . S
N735 H741 0.985 . S
C736 C730 1.379 . S
C736 C733 1.363 . S
C736 N734 1.356 . S
C737 C731 1.363 . S
C737 C732 1.379 . S
C737 N735 1.356 . S
N738 C730 1.356 . S
N738 H744 0.984 . S
N738 H745 0.984 . S
N739 C732 1.356 . S
N739 H742 0.984 . S
N739 H743 0.985 . S
H740 N735 0.984 . S
H741 N735 0.985 . S
H742 N739 0.984 . S
H743 N739 0.985 . S
H744 N738 0.984 . S
H745 N738 0.984 . S
H746 N734 0.984 . S
H747 N734 0.985 . S
C748 C749 1.363 . S
C748 C754 1.379 1_545 S
C748 N756 1.356 . S
C749 C748 1.363 . S
C749 C755 1.363 . S
C750 C751 1.363 . S
C750 C755 1.379 1_565 S
C750 N757 1.356 . S
C751 C750 1.363 . S
C751 C754 1.363 . S
N752 C754 1.356 . S
N752 H764 0.984 . S
N752 H765 0.985 . S
N753 C755 1.356 . S
N753 H758 0.984 . S
N753 H759 0.985 . S
C754 C748 1.379 1_565 S
C754 C751 1.363 . S
C754 N752 1.356 . S
C755 C749 1.363 . S
C755 C750 1.379 1_545 S
C755 N753 1.356 . S
N756 C748 1.356 . S
N756 H762 0.984 . S
N756 H763 0.984 . S
N757 C750 1.356 . S
N757 H760 0.984 . S
N757 H761 0.985 . S
H758 N753 0.984 . S
H759 N753 0.985 . S
H760 N757 0.984 . S
H761 N757 0.985 . S
H762 N756 0.984 . S
H763 N756 0.984 . S
H764 N752 0.984 . S
H765 N752 0.985 . S
C766 C767 1.363 . S
C766 C772 1.379 1_655 S
C766 N774 1.356 . S
C767 C766 1.363 . S
C767 C773 1.363 . S
C768 C769 1.363 . S
C768 C773 1.379 1_455 S
C768 N775 1.356 . S
C769 C768 1.363 . S
C769 C772 1.363 . S
N770 C772 1.356 . S
N770 H782 0.984 . S
N770 H783 0.985 . S
N771 C773 1.356 . S
N771 H776 0.984 . S
N771 H777 0.985 . S
C772 C766 1.379 1_455 S
C772 C769 1.363 . S
C772 N770 1.356 . S
C773 C767 1.363 . S
C773 C768 1.379 1_655 S
C773 N771 1.356 . S
N774 C766 1.356 . S
N774 H780 0.984 . S
N774 H781 0.984 . S
N775 C768 1.356 . S
N775 H778 0.984 . S
N775 H779 0.985 . S
H776 N771 0.984 . S
H777 N771 0.985 . S
H778 N775 0.984 . S
H779 N775 0.985 . S
H780 N774 0.984 . S
H781 N774 0.984 . S
H782 N770 0.984 . S
H783 N770 0.985 . S
C209 C5 1.686 . S
C211 C144 1.676 . S
C227 C105 1.623 . S
C229 C18 1.649 . S
C245 C118 1.676 . S
C247 C31 1.686 . S
C263 C131 1.623 . S
C265 C44 1.649 . S
C281 C66 1.676 1_546 S
C283 C57 1.686 . S
C299 C70 1.649 . S
C301 C79 1.623 1_454 S
C317 C83 1.686 . S
C319 C92 1.676 1_566 S
C335 C96 1.649 . S
C337 C53 1.623 1_654 S
C353 C109 1.686 . S
C355 C40 1.676 1_565 S
C371 C1 1.623 1_655 S
C373 C122 1.649 . S
C389 C14 1.676 1_545 S
C391 C135 1.686 . S
C407 C27 1.623 1_455 S
C409 C148 1.649 . S
C425 C170 1.676 . S
C427 C161 1.686 . S
C443 C174 1.649 . S
C445 C183 1.623 . S
C461 C196 1.676 . S
C463 C187 1.686 . S
C479 C157 1.623 . S
C481 C200 1.649 . S
C497 C185 1.775 . S
C499 C3 1.775 . S
C515 C198 1.891 . S
C517 C16 1.891 . S
C533 C159 1.775 . S
C535 C29 1.775 . S
C551 C42 1.891 . S
C553 C172 1.891 . S
C569 C55 1.775 . S
C571 C133 1.775 . S
C587 C146 1.891 . S
C589 C68 1.891 . S
C605 C81 1.775 . S
C607 C107 1.775 . S
C623 C94 1.891 . S
C625 C120 1.891 . S
C641 C36 1.593 . S
C643 C10 1.593 . S
C659 C49 1.565 . S
C661 C23 1.565 . S
C677 C62 1.593 . S
C679 C88 1.593 . S
C695 C75 1.565 . S
C697 C101 1.565 . S
C713 C140 1.593 . S
C715 C114 1.593 . S
C731 C127 1.565 . S
C733 C153 1.565 . S
C749 C192 1.593 . S
C751 C166 1.593 . S
C767 C179 1.565 . S
C769 C205 1.565 . S
