# Generated by pormake.
# Topology qtz-e, (6)-cn, num edge types: 1
# Building blocks:
#     Node 0, Type 0, BuildingBlock: JUFBIX_clean_sbu_0, # of connection points: 6
#     Node 1, Type 0, BuildingBlock: JUFBIX_clean_sbu_0, # of connection points: 6
#     Node 2, Type 0, BuildingBlock: JUFBIX_clean_sbu_0, # of connection points: 6
#     Node 3, Type 0, BuildingBlock: JUFBIX_clean_sbu_0, # of connection points: 6
#     Node 4, Type 0, BuildingBlock: JUFBIX_clean_sbu_0, # of connection points: 6
#     Node 5, Type 0, BuildingBlock: JUFBIX_clean_sbu_0, # of connection points: 6
#     Edge 6, Type (0, 0), BuildingBlock: XIVTED_clean_linker_0, # of connection points: 2
#     Edge 7, Type (0, 0), BuildingBlock: XIVTED_clean_linker_0, # of connection points: 2
#     Edge 8, Type (0, 0), BuildingBlock: XIVTED_clean_linker_0, # of connection points: 2
#     Edge 9, Type (0, 0), BuildingBlock: XIVTED_clean_linker_0, # of connection points: 2
#     Edge 10, Type (0, 0), BuildingBlock: XIVTED_clean_linker_0, # of connection points: 2
#     Edge 11, Type (0, 0), BuildingBlock: XIVTED_clean_linker_0, # of connection points: 2
#     Edge 12, Type (0, 0), BuildingBlock: XIVTED_clean_linker_0, # of connection points: 2
#     Edge 13, Type (0, 0), BuildingBlock: XIVTED_clean_linker_0, # of connection points: 2
#     Edge 14, Type (0, 0), BuildingBlock: XIVTED_clean_linker_0, # of connection points: 2
#     Edge 15, Type (0, 0), BuildingBlock: XIVTED_clean_linker_0, # of connection points: 2
#     Edge 16, Type (0, 0), BuildingBlock: XIVTED_clean_linker_0, # of connection points: 2
#     Edge 17, Type (0, 0), BuildingBlock: XIVTED_clean_linker_0, # of connection points: 2
#     Edge 18, Type (0, 0), BuildingBlock: XIVTED_clean_linker_0, # of connection points: 2
#     Edge 19, Type (0, 0), BuildingBlock: XIVTED_clean_linker_0, # of connection points: 2
#     Edge 20, Type (0, 0), BuildingBlock: XIVTED_clean_linker_0, # of connection points: 2
#     Edge 21, Type (0, 0), BuildingBlock: XIVTED_clean_linker_0, # of connection points: 2
#     Edge 22, Type (0, 0), BuildingBlock: XIVTED_clean_linker_0, # of connection points: 2
#     Edge 23, Type (0, 0), BuildingBlock: XIVTED_clean_linker_0, # of connection points: 2
# Relax obj value: 0.652
# Max RMSD: 0.298
# Mean RMSD: 0.298
data_MOF--net-qtz-e--node1-JUFBIX_clean_sbu_0--edge1-XIVTED_clean_linker_0
_symmetry_space_group_name_H-M    P1
_symmetry_Int_Tables_number       1
_symmetry_cell_setting            triclinic
loop_
_symmetry_equiv_pos_as_xyz
'x, y, z'
_cell_length_a     26.213826
_cell_length_b     26.225428
_cell_length_c     38.758131
_cell_angle_alpha  90.290808
_cell_angle_beta   89.870099
_cell_angle_gamma 120.23184
loop_
_atom_site_label
_atom_site_type_symbol
_atom_site_fract_x
_atom_site_fract_y
_atom_site_fract_z
_atom_type_partial_charge
Co0 Co 0.22428 0.41768 0.14352 0.0
C1 C 0.27734 0.35752 0.11899 0.0
Co2 Co 0.17398 0.35651 0.10156 0.0
C3 C 0.24097 0.4837 0.20434 0.0
C4 C 0.32445 0.50061 0.18492 0.0
N5 N 0.26582 0.46911 0.1787 0.0
N6 N 0.28131 0.52352 0.22607 0.0
C7 C 0.33415 0.53421 0.21435 0.0
H8 H 0.19383 0.46565 0.20697 0.0
H9 H 0.35789 0.49995 0.16882 0.0
C10 C 0.12635 0.42419 0.12309 0.0
N11 N 0.13099 0.30409 0.06687 0.0
C12 C 0.15069 0.29716 0.0361 0.0
C13 C 0.07308 0.2627 0.06744 0.0
N14 N 0.10758 0.2528 0.0176 0.0
C15 C 0.05866 0.23065 0.03721 0.0
C16 C 0.1388 0.30819 0.16668 0.0
O17 O 0.1702 0.44565 0.14339 0.0
O18 O 0.11698 0.38105 0.10375 0.0
O19 O 0.13115 0.29671 0.13465 0.0
O20 O 0.17792 0.35941 0.17644 0.0
O21 O 0.23371 0.33462 0.09825 0.0
H22 H 0.04346 0.25575 0.08867 0.0
H23 H 0.19626 0.32294 0.02788 0.0
O24 O 0.27848 0.39137 0.1428 0.0
O25 O 0.27049 0.47617 0.11054 0.0
O26 O 0.21587 0.41626 0.06908 0.0
C27 C 0.25752 0.46636 0.07871 0.0
H28 H 0.37647 0.56544 0.2255 0.0
H29 H 0.01581 0.19397 0.03019 0.0
Co30 Co 0.74214 0.16938 0.36405 0.0
C31 C 0.68749 0.05352 0.38343 0.0
Co32 Co 0.79087 0.15419 0.40469 0.0
C33 C 0.72696 0.22321 0.30519 0.0
C34 C 0.64311 0.1566 0.32436 0.0
N35 N 0.70176 0.1829 0.33023 0.0
N36 N 0.68673 0.22377 0.28403 0.0
C37 C 0.6337 0.18169 0.29567 0.0
H38 H 0.77422 0.25175 0.30248 0.0
H39 H 0.6095 0.12196 0.34009 0.0
C40 C 0.83963 0.27205 0.38867 0.0
N41 N 0.83155 0.13977 0.43817 0.0
C42 C 0.80767 0.10039 0.46386 0.0
C43 C 0.89026 0.16156 0.44075 0.0
N44 N 0.84882 0.09575 0.48214 0.0
C45 C 0.90107 0.13462 0.46792 0.0
C46 C 0.82838 0.14843 0.33874 0.0
O47 O 0.7969 0.25175 0.36751 0.0
O48 O 0.8479 0.23616 0.40637 0.0
O49 O 0.83537 0.14184 0.37045 0.0
O50 O 0.78928 0.16084 0.33 0.0
O51 O 0.73096 0.07205 0.40406 0.0
H52 H 0.92286 0.19356 0.42335 0.0
H53 H 0.76069 0.07511 0.46878 0.0
O54 O 0.68717 0.0888 0.36139 0.0
O55 O 0.69525 0.17815 0.39813 0.0
O56 O 0.74751 0.16745 0.43863 0.0
C57 C 0.70658 0.1772 0.42988 0.0
H58 H 0.59145 0.1712 0.28487 0.0
H59 H 0.94372 0.14158 0.47576 0.0
Co60 Co 0.56846 0.80714 0.81664 0.0
C61 C 0.62828 0.92159 0.79195 0.0
Co62 Co 0.63326 0.82183 0.77626 0.0
C63 C 0.50331 0.76725 0.87942 0.0
C64 C 0.47537 0.81682 0.84913 0.0
N65 N 0.51432 0.79751 0.8498 0.0
N66 N 0.45864 0.76633 0.89715 0.0
C67 C 0.44061 0.79722 0.87819 0.0
H68 H 0.52584 0.74402 0.88705 0.0
H69 H 0.47159 0.84226 0.82843 0.0
C70 C 0.56645 0.70511 0.79799 0.0
N71 N 0.68792 0.83222 0.74303 0.0
C72 C 0.69333 0.85633 0.71173 0.0
C73 C 0.73152 0.81911 0.74455 0.0
N74 N 0.73851 0.85901 0.69368 0.0
C75 C 0.7632 0.83613 0.7142 0.0
C76 C 0.67785 0.8369 0.84245 0.0
O77 O 0.54339 0.72588 0.81836 0.0
O78 O 0.60909 0.74024 0.77877 0.0
O79 O 0.69063 0.83988 0.81069 0.0
O80 O 0.62587 0.82352 0.85119 0.0
O81 O 0.65482 0.90296 0.7727 0.0
H82 H 0.73995 0.79886 0.76637 0.0
H83 H 0.66548 0.87299 0.70261 0.0
O84 O 0.59203 0.88728 0.81429 0.0
O85 O 0.51096 0.79014 0.78185 0.0
O86 O 0.57608 0.80346 0.74215 0.0
C87 C 0.52415 0.79061 0.75028 0.0
H88 H 0.40424 0.80404 0.88456 0.0
H89 H 0.80098 0.83176 0.70761 0.0
Co90 Co 0.80074 0.56613 0.03358 0.0
C91 C 0.91617 0.62945 0.0576 0.0
Co92 Co 0.81405 0.62774 0.07591 0.0
C93 C 0.76415 0.50486 0.969 0.0
C94 C 0.81615 0.47872 -0.0016 0.0
N95 N 0.79368 0.51506 -0.00107 0.0
N96 N 0.76684 0.46324 0.94991 0.0
C97 C 0.79931 0.44639 0.96831 0.0
H98 H 0.7392 0.52592 0.96198 0.0
H99 H 0.84227 0.4753 0.01886 0.0
C100 C 0.69656 0.55665 0.05429 0.0
N101 N 0.82201 0.67933 0.11086 0.0
C102 C 0.8624 0.6995 0.13636 0.0
C103 C 0.78864 0.70434 0.11694 0.0
N104 N 0.85553 0.73581 0.15803 0.0
C105 C 0.8089 0.73877 0.14626 0.0
C106 C 0.82465 0.67551 0.01115 0.0
O107 O 0.7186 0.53749 0.03214 0.0
O108 O 0.73084 0.59784 0.07472 0.0
O109 O 0.82669 0.68576 0.04328 0.0
O110 O 0.81443 0.62517 0.00075 0.0
O111 O 0.89679 0.65429 0.07768 0.0
H112 H 0.75185 0.69787 0.10116 0.0
H113 H 0.89552 0.6868 0.13954 0.0
O114 O 0.88169 0.59286 0.03536 0.0
O115 O 0.78664 0.50739 0.06694 0.0
O116 O 0.80136 0.57058 0.10842 0.0
C117 C 0.78938 0.51945 0.09889 0.0
H118 H 0.80931 0.41258 0.96076 0.0
H119 H 0.79127 0.76431 0.15785 0.0
Co120 Co 0.17263 0.74291 0.48497 0.0
C121 C 0.05526 0.68714 0.46531 0.0
Co122 Co 0.15461 0.78933 0.44406 0.0
C123 C 0.22715 0.72682 0.54367 0.0
C124 C 0.15877 0.64363 0.52453 0.0
N125 N 0.18592 0.70233 0.51887 0.0
N126 N 0.22736 0.68605 0.56443 0.0
C127 C 0.18416 0.63346 0.55282 0.0
H128 H 0.25673 0.7739 0.54645 0.0
H129 H 0.12346 0.61042 0.50884 0.0
C130 C 0.27394 0.83875 0.46035 0.0
N131 N 0.14134 0.83085 0.41046 0.0
C132 C 0.09994 0.80947 0.38552 0.0
C133 C 0.17119 0.8899 0.40582 0.0
N134 N 0.10295 0.85273 0.36549 0.0
C135 C 0.14794 0.90344 0.37792 0.0
C136 C 0.15119 0.82918 0.50989 0.0
O137 O 0.25448 0.79786 0.4825 0.0
O138 O 0.23736 0.8449 0.44194 0.0
O139 O 0.14451 0.83537 0.47808 0.0
O140 O 0.16295 0.78979 0.51909 0.0
O141 O 0.07224 0.73089 0.44515 0.0
H142 H 0.20744 0.92115 0.42177 0.0
H143 H 0.06878 0.76296 0.38169 0.0
O144 O 0.0918 0.68715 0.48665 0.0
O145 O 0.18303 0.69687 0.45066 0.0
O146 O 0.1652 0.74437 0.41034 0.0
C147 C 0.17819 0.70565 0.41892 0.0
H148 H 0.17317 0.59095 0.56331 0.0
H149 H 0.16238 0.94702 0.36779 0.0
Co150 Co 0.42209 0.23133 0.70008 0.0
C151 C 0.3664 0.28822 0.72569 0.0
Co152 Co 0.36242 0.18337 0.74288 0.0
C153 C 0.48113 0.24939 0.63551 0.0
C154 C 0.51076 0.33064 0.66288 0.0
N155 N 0.47232 0.27207 0.66458 0.0
N156 N 0.52403 0.29131 0.61589 0.0
C157 C 0.54308 0.34257 0.63298 0.0
H158 H 0.45857 0.20261 0.62968 0.0
H159 H 0.51605 0.3623 0.6826 0.0
C160 C 0.42642 0.13242 0.71992 0.0
N161 N 0.3121 0.14353 0.77908 0.0
C162 C 0.26571 0.14849 0.78952 0.0
C163 C 0.31861 0.11101 0.80365 0.0
N164 N 0.24414 0.12217 0.82014 0.0
C165 C 0.27684 0.09776 0.82891 0.0
C166 C 0.31011 0.14646 0.67895 0.0
O167 O 0.44832 0.17588 0.69938 0.0
O168 O 0.38433 0.12467 0.73968 0.0
O169 O 0.30019 0.14062 0.71119 0.0
O170 O 0.36111 0.18459 0.6682 0.0
O171 O 0.3439 0.24533 0.74667 0.0
H172 H 0.3541 0.10135 0.80452 0.0
H173 H 0.25029 0.17411 0.77595 0.0
O174 O 0.39794 0.28732 0.70119 0.0
O175 O 0.4829 0.27734 0.73235 0.0
O176 O 0.42413 0.22452 0.77435 0.0
C177 C 0.47428 0.26497 0.76421 0.0
H178 H 0.57867 0.3852 0.62482 0.0
H179 H 0.27443 0.07668 0.85328 0.0
H180 H 0.23784 0.64519 0.42504 0.0
H181 H 0.20121 0.55846 0.22564 0.0
H182 H 0.14845 0.69594 0.35125 0.0
H183 H 0.33288 0.55267 0.28921 0.0
H184 H 0.17442 0.6002 0.27373 0.0
H185 H 0.26547 0.60098 0.37787 0.0
C186 C 0.22357 0.64646 0.39901 0.0
C187 C 0.19093 0.67423 0.3919 0.0
C188 C 0.20935 0.59008 0.27728 0.0
C189 C 0.22243 0.62444 0.3383 0.0
C190 C 0.22443 0.56609 0.2499 0.0
C191 C 0.26895 0.55194 0.25376 0.0
C192 C 0.23869 0.59964 0.30893 0.0
C193 C 0.29848 0.56341 0.28543 0.0
C194 C 0.23975 0.62176 0.37217 0.0
C195 C 0.17387 0.67518 0.35781 0.0
N196 N 0.28248 0.58632 0.31209 0.0
N197 N 0.18981 0.65061 0.33229 0.0
H198 H 0.63976 0.34514 0.59997 0.0
H199 H 0.59815 0.16811 0.4256 0.0
H200 H 0.46683 0.21349 0.56445 0.0
H201 H 0.74729 0.22262 0.49355 0.0
H202 H 0.55202 0.20017 0.46935 0.0
H203 H 0.68382 0.31862 0.55245 0.0
C204 C 0.61117 0.31143 0.58173 0.0
C205 C 0.54979 0.28117 0.58597 0.0
C206 C 0.59476 0.20483 0.47452 0.0
C207 C 0.59944 0.2506 0.53209 0.0
C208 C 0.62096 0.18663 0.44974 0.0
C209 C 0.67628 0.19252 0.45622 0.0
C210 C 0.62498 0.23027 0.50538 0.0
C211 C 0.70428 0.21682 0.48776 0.0
C212 C 0.6362 0.29594 0.55495 0.0
C213 C 0.51443 0.23727 0.56201 0.0
N214 N 0.6785 0.23531 0.51111 0.0
N215 N 0.53979 0.22315 0.53593 0.0
H216 H 0.21702 0.4737 0.01564 0.0
H217 H 0.51225 0.7479 0.95107 0.0
H218 H 0.36593 0.56642 0.08426 0.0
H219 H 0.34191 0.70493 0.91087 0.0
H220 H 0.46301 0.67797 -0.00167 0.0
H221 H 0.26592 0.55336 0.97394 0.0
C222 C 0.2602 0.51076 0.02183 0.0
C223 C 0.28775 0.51357 0.05329 0.0
C224 C 0.43656 0.68459 0.97942 0.0
C225 C 0.34366 0.60454 0.00581 0.0
C226 C 0.46451 0.72413 0.95252 0.0
C227 C 0.43087 0.7317 0.92717 0.0
C228 C 0.37471 0.65173 0.98034 0.0
C229 C 0.36925 0.70047 0.9301 0.0
C230 C 0.28775 0.55638 -0.00181 0.0
C231 C 0.34336 0.56279 0.06022 0.0
N232 N 0.34301 0.66106 0.95596 0.0
N233 N 0.36993 0.60632 0.03643 0.0
H234 H 0.63013 0.2027 0.22261 0.0
H235 H 0.82256 0.53858 0.16593 0.0
H236 H 0.77185 0.33782 0.28333 0.0
H237 H 0.72759 0.3991 0.09153 0.0
H238 H 0.79622 0.46499 0.21073 0.0
H239 H 0.65624 0.27406 0.17533 0.0
C240 C 0.66644 0.2474 0.22593 0.0
C241 C 0.69923 0.26464 0.25658 0.0
C242 C 0.78137 0.45032 0.18459 0.0
C243 C 0.72909 0.34552 0.20337 0.0
C244 C 0.79631 0.49229 0.15903 0.0
C245 C 0.77707 0.47467 0.1251 0.0
C246 C 0.74637 0.39028 0.17625 0.0
C247 C 0.74342 0.41423 0.11746 0.0
C248 C 0.68159 0.28774 0.19902 0.0
C249 C 0.74612 0.32271 0.25984 0.0
N250 N 0.7286 0.3739 0.14303 0.0
N251 N 0.75954 0.36112 0.23359 0.0
H252 H 0.54409 0.8133 0.68183 0.0
H253 H 0.20618 0.63051 0.62597 0.0
H254 H 0.40377 0.7323 0.75691 0.0
H255 H 0.34285 0.76742 0.56403 0.0
H256 H 0.27845 0.6549 0.67274 0.0
H257 H 0.47062 0.78473 0.63636 0.0
C258 C 0.49773 0.78952 0.68873 0.0
C259 C 0.4798 0.77521 0.72311 0.0
C260 C 0.29234 0.67949 0.64886 0.0
C261 C 0.39568 0.74204 0.67123 0.0
C262 C 0.25145 0.66535 0.62227 0.0
C263 C 0.26886 0.6974 0.59147 0.0
C264 C 0.35085 0.72514 0.64405 0.0
C265 C 0.32771 0.74236 0.58768 0.0
C266 C 0.45587 0.77335 0.66279 0.0
C267 C 0.41923 0.74444 0.73066 0.0
N268 N 0.36669 0.75481 0.61365 0.0
N269 N 0.37907 0.7285 0.7048 0.0
H270 H 0.74511 0.51807 0.89798 0.0
H271 H 0.4858 0.22108 0.82485 0.0
H272 H 0.71432 0.34839 0.93162 0.0
H273 H 0.5721 0.37532 0.76012 0.0
H274 H 0.56524 0.26995 0.8669 0.0
H275 H 0.67895 0.4698 0.84877 0.0
C276 C 0.72485 0.47077 0.8947 0.0
C277 C 0.73461 0.43691 0.91882 0.0
C278 C 0.56703 0.29296 0.84339 0.0
C279 C 0.65908 0.38184 0.86337 0.0
C280 C 0.52153 0.26539 0.81958 0.0
C281 C 0.52247 0.29457 0.78921 0.0
C282 C 0.61311 0.35055 0.83711 0.0
C283 C 0.57001 0.35157 0.78334 0.0
C284 C 0.68755 0.44342 0.86666 0.0
C285 C 0.70804 0.37594 0.91346 0.0
N286 N 0.61335 0.37822 0.8074 0.0
N287 N 0.67064 0.35014 0.88655 0.0
H288 H 0.3683 0.3821 0.16233 0.0
H289 H 0.60829 0.47375 0.01283 0.0
H290 H 0.31638 0.34522 0.05543 0.0
H291 H 0.63843 0.5631 0.11098 0.0
H292 H 0.50388 0.41009 0.02856 0.0
H293 H 0.47136 0.42599 0.145 0.0
C294 C 0.37844 0.38131 0.13528 0.0
C295 C 0.33372 0.36066 0.11026 0.0
C296 C 0.53352 0.44386 0.04646 0.0
C297 C 0.45177 0.41241 0.09019 0.0
C298 C 0.59287 0.48049 0.03745 0.0
C299 C 0.63211 0.52414 0.06054 0.0
C300 C 0.51384 0.4502 0.07904 0.0
C301 C 0.60984 0.53052 0.09221 0.0
C302 C 0.43735 0.40722 0.12537 0.0
C303 C 0.34949 0.36069 0.07557 0.0
N304 N 0.55244 0.49365 0.10061 0.0
N305 N 0.4075 0.38734 0.06642 0.0
H306 H -0.00114 0.59177 0.50739 0.0
H307 H 0.84164 0.36296 0.35255 0.0
H308 H 0.99516 0.64981 0.40393 0.0
H309 H 0.9071 0.32574 0.44554 0.0
H310 H 0.88129 0.46508 0.37257 0.0
H311 H 0.94176 0.48959 0.48777 0.0
C312 C 0.98423 0.58304 0.48078 0.0
C313 C 0.0025 0.62951 0.4572 0.0
C314 C 0.88713 0.43449 0.38841 0.0
C315 C 0.93854 0.51246 0.43435 0.0
C316 C 0.86503 0.37642 0.37692 0.0
C317 C 0.87147 0.33579 0.39728 0.0
C318 C 0.91479 0.45163 0.42077 0.0
C319 C 0.90161 0.35554 0.42879 0.0
C320 C 0.95245 0.52465 0.46947 0.0
C321 C 0.98213 0.61543 0.42301 0.0
N322 N 0.92166 0.41181 0.43965 0.0
N323 N 0.95208 0.55803 0.41241 0.0
H324 H 0.51418 0.13212 0.681 0.0
H325 H 0.59797 0.98551 0.83368 0.0
H326 H 0.413 0.06153 0.77441 0.0
H327 H 0.64512 0.97335 0.72847 0.0
H328 H 0.5526 0.04167 0.81402 0.0
H329 H 0.57847 0.0937 0.69875 0.0
C330 C 0.50488 0.1078 0.70491 0.0
C331 C 0.45797 0.09989 0.72623 0.0
C332 C 0.57396 0.02776 0.79531 0.0
C333 C 0.53255 0.05844 0.74712 0.0
C334 C 0.60072 0.99657 0.80657 0.0
C335 C 0.62459 0.97405 0.78261 0.0
C336 C 0.57124 0.03672 0.75988 0.0
C337 C 0.62707 0.98984 0.74779 0.0
C338 C 0.54189 0.0865 0.7151 0.0
C339 C 0.4483 0.0685 0.75705 0.0
N340 N 0.59952 0.01936 0.73727 0.0
N341 N 0.48566 0.04959 0.76672 0.0
H342 H 0.47945 0.61573 0.83654 0.0
H343 H 0.4006 0.38302 0.68389 0.0
H344 H 0.5814 0.6485 0.74318 0.0
H345 H 0.34973 0.32548 0.78891 0.0
H346 H 0.44633 0.4852 0.70337 0.0
H347 H 0.41706 0.51222 0.81857 0.0
C348 C 0.48933 0.601 0.81259 0.0
C349 C 0.53594 0.64082 0.79139 0.0
C350 C 0.42425 0.45018 0.72207 0.0
C351 C 0.46351 0.52367 0.77025 0.0
C352 C 0.39732 0.3918 0.71091 0.0
C353 C 0.37218 0.34563 0.73488 0.0
C354 C 0.42578 0.4626 0.75742 0.0
C355 C 0.36894 0.35974 0.76956 0.0
C356 C 0.45341 0.5422 0.80227 0.0
C357 C 0.54637 0.61946 0.7605 0.0
N358 N 0.3965 0.41722 0.77997 0.0
N359 N 0.51006 0.56259 0.75072 0.0
H360 H 0.1241 0.5087 0.16417 0.0
H361 H 0.98169 0.60384 0.01419 0.0
H362 H 0.06056 0.41701 0.06701 0.0
H363 H 0.96846 0.6437 0.12082 0.0
H364 H 0.03836 0.55786 0.03184 0.0
H365 H 0.08674 0.57451 0.14805 0.0
C366 C 0.10153 0.50183 0.13972 0.0
C367 C 0.09498 0.45694 0.117 0.0
C368 C 0.02417 0.57782 0.05132 0.0
C369 C 0.05472 0.53338 0.09799 0.0
C370 C 0.99274 0.60501 0.04122 0.0
C371 C 0.96967 0.62692 0.06611 0.0
C372 C 0.03286 0.57273 0.08655 0.0
C373 C 0.98537 0.62726 0.10079 0.0
C374 C 0.08082 0.5397 0.13047 0.0
C375 C 0.06602 0.45047 0.08551 0.0
N376 N 0.0151 0.59931 0.11014 0.0
N377 N 0.04753 0.48861 0.07683 0.0
H378 H 0.36567 0.84324 0.49699 0.0
H379 H 0.59207 0.99512 0.34124 0.0
H380 H 0.32636 0.90353 0.40267 0.0
H381 H 0.65123 0.99457 0.44498 0.0
H382 H 0.49009 0.93781 0.36087 0.0
H383 H 0.46744 0.88212 0.47684 0.0
C384 C 0.37861 0.86536 0.47229 0.0
C385 C 0.33749 0.87052 0.45157 0.0
C386 C 0.52537 0.94926 0.37923 0.0
C387 C 0.45291 0.91295 0.42799 0.0
C388 C 0.58365 0.98115 0.36793 0.0
C389 C 0.63031 0.00051 0.3916 0.0
C390 C 0.51356 0.93635 0.41443 0.0
C391 C 0.61666 0.98085 0.42586 0.0
C392 C 0.43647 0.88699 0.46072 0.0
C393 C 0.35656 0.89904 0.41967 0.0
N394 N 0.55936 0.95074 0.43645 0.0
N395 N 0.41268 0.91871 0.40878 0.0
H396 H 0.17383 0.05142 0.87136 0.0
H397 H 0.17291 0.31808 0.96408 0.0
H398 H 0.23229 0.21908 0.822 0.0
H399 H 0.0579 0.13895 -0.00306 0.0
H400 H 0.19258 0.28113 0.91065 0.0
H401 H 0.12685 0.07955 0.91653 0.0
C402 C 0.17586 0.0936 0.86972 0.0
C403 C 0.20744 0.13309 0.84308 0.0
C404 C 0.16233 0.24977 0.92927 0.0
C405 C 0.15465 0.16572 0.89452 0.0
C406 C 0.1515 0.27091 0.95976 0.0
C407 C 0.11424 0.23139 0.98481 0.0
C408 C 0.13669 0.18863 0.92419 0.0
C409 C 0.08683 0.17064 0.97806 0.0
C410 C 0.14894 0.10954 0.89536 0.0
C411 C 0.20827 0.18701 0.84188 0.0
N412 N 0.0994 0.15095 0.94855 0.0
N413 N 0.18317 0.20211 0.86756 0.0
H414 H 0.81485 0.1384 0.26869 0.0
H415 H 0.15286 0.30794 0.23652 0.0
H416 H 0.93766 0.16266 0.34987 0.0
H417 H 0.02954 0.21287 0.15447 0.0
H418 H 0.07576 0.25013 0.27865 0.0
H419 H 0.89191 0.15965 0.22611 0.0
C420 C 0.85771 0.14709 0.27749 0.0
C421 C 0.87018 0.14953 0.31282 0.0
C422 C 0.06596 0.24098 0.25144 0.0
C423 C 0.95867 0.17493 0.2644 0.0
C424 C 0.1099 0.27405 0.2274 0.0
C425 C 0.09729 0.2657 0.192 0.0
C426 C 0.00874 0.20039 0.23993 0.0
C427 C 0.04102 0.22099 0.18155 0.0
C428 C 0.90162 0.15904 0.2532 0.0
C429 C 0.92631 0.16065 0.32285 0.0
N430 N -0.00165 0.19088 0.20543 0.0
N431 N 0.96896 0.17426 0.29878 0.0
H432 H 0.66802 0.8468 0.64034 0.0
H433 H 0.92316 0.1085 0.53458 0.0
H434 H 0.8505 0.92766 0.67083 0.0
H435 H 0.75 0.99023 0.49292 0.0
H436 H 0.89997 0.04237 0.58393 0.0
H437 H 0.6986 0.89831 0.58531 0.0
C438 C 0.71465 0.87518 0.63514 0.0
C439 C 0.75689 0.88362 0.65998 0.0
C440 C 0.86737 0.03076 0.56375 0.0
C441 C 0.79243 0.94319 0.59745 0.0
C442 C 0.88059 0.06843 0.53561 0.0
C443 C 0.83801 0.05551 0.50996 0.0
C444 C 0.81115 0.9802 0.5662 0.0
C445 C 0.78351 0.00299 0.51259 0.0
C446 C 0.73219 0.90437 0.60377 0.0
C447 C 0.81682 0.92015 0.65211 0.0
N448 N 0.77147 0.96762 0.54037 0.0
N449 N 0.83294 0.94949 0.6216 0.0
H450 H 0.67212 0.84519 0.91262 0.0
H451 H 0.8394 0.67811 0.94114 0.0
H452 H 0.77832 0.8324 0.83146 0.0
H453 H 0.81313 0.77117 0.0252 0.0
H454 H 0.82337 0.73947 0.90033 0.0
H455 H 0.72877 0.82521 0.95493 0.0
C456 C 0.70822 0.83955 0.90379 0.0
C457 C 0.71983 0.8393 0.86849 0.0
C458 C 0.82252 0.74737 0.92773 0.0
C459 C 0.78374 0.81531 0.91649 0.0
C460 C 0.8314 0.7122 0.95098 0.0
C461 C 0.82661 0.71898 0.98651 0.0
C462 C 0.80734 0.78838 0.94018 0.0
C463 C 0.81663 0.76411 -0.00205 0.0
C464 C 0.74062 0.82828 0.92792 0.0
C465 C 0.76741 0.83222 0.85843 0.0
N466 N 0.80591 0.79624 0.97482 0.0
N467 N 0.7967 0.81897 0.88227 0.0
H468 H 0.13767 0.91072 0.30496 0.0
H469 H 0.81598 0.74244 0.22129 0.0
H470 H 0.9856 0.77843 0.3599 0.0
H471 H 0.97383 0.7915 0.16274 0.0
H472 H 0.87642 0.78057 0.2739 0.0
H473 H 0.07566 0.89186 0.25364 0.0
C474 C 0.09103 0.87838 0.30625 0.0
C475 C 0.06648 0.84557 0.33631 0.0
C476 C 0.89769 0.78359 0.24939 0.0
C477 C 0.99582 0.8245 0.27847 0.0
C478 C 0.86347 0.76228 0.21957 0.0
C479 C 0.89035 0.76369 0.18805 0.0
C480 C 0.95902 0.80747 0.24724 0.0
C481 C 0.95183 0.78927 0.18682 0.0
C482 C 0.05591 0.86753 0.2771 0.0
C483 C 0.006 0.80389 0.33689 0.0
N484 N 0.98428 0.81025 0.21607 0.0
N485 N 0.97253 0.79445 0.30831 0.0
H486 H 0.21622 0.03785 0.6939 0.0
H487 H 0.1608 0.93584 0.49673 0.0
H488 H 0.30619 0.15465 0.60872 0.0
H489 H 0.14758 0.82187 0.5805 0.0
H490 H 0.18272 0.01449 0.53848 0.0
H491 H 0.15962 0.95784 0.65275 0.0
C492 C 0.22291 0.04717 0.66654 0.0
C493 C 0.26655 0.10279 0.65466 0.0
C494 C 0.17387 0.97186 0.54767 0.0
C495 C 0.20192 0.01162 0.60773 0.0
C496 C 0.16113 0.92685 0.52395 0.0
C497 C 0.15317 0.87246 0.53517 0.0
C498 C 0.1778 0.96211 0.58284 0.0
C499 C 0.15414 0.86337 0.57074 0.0
C500 C 0.19085 0.00137 0.64316 0.0
C501 C 0.27343 0.11225 0.61895 0.0
N502 N 0.16679 0.90799 0.59335 0.0
N503 N 0.24182 0.06689 0.59669 0.0
loop_
_geom_bond_atom_site_label_1
_geom_bond_atom_site_label_2
_geom_bond_distance
_geom_bond_site_symmetry_2
_ccdc_geom_bond_type
Co0 N5 2.057 . S
Co0 O17 2.021 . S
Co0 O20 2.062 . S
Co0 O24 2.117 . S
Co0 O25 2.020 . S
C1 O21 1.259 . S
C1 O24 1.258 . S
Co2 N11 2.057 . S
Co2 O18 2.117 . S
Co2 O19 2.020 . S
Co2 O21 2.021 . S
Co2 O26 2.062 . S
C3 N5 1.316 . S
C3 N6 1.347 . S
C3 H8 0.931 . S
C4 N5 1.375 . S
C4 C7 1.350 . S
C4 H9 0.930 . S
N5 Co0 2.057 . S
N5 C3 1.316 . S
N5 C4 1.375 . S
N6 C3 1.347 . S
N6 C7 1.373 . S
C7 C4 1.350 . S
C7 N6 1.373 . S
C7 H28 0.931 . S
H8 C3 0.931 . S
H9 C4 0.930 . S
C10 O17 1.259 . S
C10 O18 1.258 . S
N11 Co2 2.057 . S
N11 C12 1.316 . S
N11 C13 1.375 . S
C12 N11 1.316 . S
C12 N14 1.347 . S
C12 H23 0.931 . S
C13 N11 1.375 . S
C13 C15 1.350 . S
C13 H22 0.930 . S
N14 C12 1.347 . S
N14 C15 1.373 . S
C15 C13 1.350 . S
C15 N14 1.373 . S
C15 H29 0.931 . S
C16 O19 1.256 . S
C16 O20 1.255 . S
O17 Co0 2.021 . S
O17 C10 1.259 . S
O18 Co2 2.117 . S
O18 C10 1.258 . S
O19 Co2 2.020 . S
O19 C16 1.256 . S
O20 Co0 2.062 . S
O20 C16 1.255 . S
O21 C1 1.259 . S
O21 Co2 2.021 . S
H22 C13 0.930 . S
H23 C12 0.931 . S
O24 Co0 2.117 . S
O24 C1 1.258 . S
O25 Co0 2.020 . S
O25 C27 1.256 . S
O26 Co2 2.062 . S
O26 C27 1.255 . S
C27 O25 1.256 . S
C27 O26 1.255 . S
H28 C7 0.931 . S
H29 C15 0.931 . S
Co30 N35 2.057 . S
Co30 O47 2.021 . S
Co30 O50 2.062 . S
Co30 O54 2.117 . S
Co30 O55 2.020 . S
C31 O51 1.259 . S
C31 O54 1.258 . S
Co32 N41 2.057 . S
Co32 O48 2.117 . S
Co32 O49 2.020 . S
Co32 O51 2.021 . S
Co32 O56 2.062 . S
C33 N35 1.316 . S
C33 N36 1.347 . S
C33 H38 0.931 . S
C34 N35 1.375 . S
C34 C37 1.350 . S
C34 H39 0.930 . S
N35 Co30 2.057 . S
N35 C33 1.316 . S
N35 C34 1.375 . S
N36 C33 1.347 . S
N36 C37 1.373 . S
C37 C34 1.350 . S
C37 N36 1.373 . S
C37 H58 0.931 . S
H38 C33 0.931 . S
H39 C34 0.930 . S
C40 O47 1.259 . S
C40 O48 1.258 . S
N41 Co32 2.057 . S
N41 C42 1.316 . S
N41 C43 1.375 . S
C42 N41 1.316 . S
C42 N44 1.347 . S
C42 H53 0.931 . S
C43 N41 1.375 . S
C43 C45 1.350 . S
C43 H52 0.930 . S
N44 C42 1.347 . S
N44 C45 1.373 . S
C45 C43 1.350 . S
C45 N44 1.373 . S
C45 H59 0.931 . S
C46 O49 1.256 . S
C46 O50 1.255 . S
O47 Co30 2.021 . S
O47 C40 1.259 . S
O48 Co32 2.117 . S
O48 C40 1.258 . S
O49 Co32 2.020 . S
O49 C46 1.256 . S
O50 Co30 2.062 . S
O50 C46 1.255 . S
O51 C31 1.259 . S
O51 Co32 2.021 . S
H52 C43 0.930 . S
H53 C42 0.931 . S
O54 Co30 2.117 . S
O54 C31 1.258 . S
O55 Co30 2.020 . S
O55 C57 1.256 . S
O56 Co32 2.062 . S
O56 C57 1.255 . S
C57 O55 1.256 . S
C57 O56 1.255 . S
H58 C37 0.931 . S
H59 C45 0.931 . S
Co60 N65 2.057 . S
Co60 O77 2.021 . S
Co60 O80 2.062 . S
Co60 O84 2.117 . S
Co60 O85 2.020 . S
C61 O81 1.259 . S
C61 O84 1.258 . S
Co62 N71 2.057 . S
Co62 O78 2.117 . S
Co62 O79 2.020 . S
Co62 O81 2.021 . S
Co62 O86 2.062 . S
C63 N65 1.316 . S
C63 N66 1.347 . S
C63 H68 0.931 . S
C64 N65 1.375 . S
C64 C67 1.350 . S
C64 H69 0.930 . S
N65 Co60 2.057 . S
N65 C63 1.316 . S
N65 C64 1.375 . S
N66 C63 1.347 . S
N66 C67 1.373 . S
C67 C64 1.350 . S
C67 N66 1.373 . S
C67 H88 0.931 . S
H68 C63 0.931 . S
H69 C64 0.930 . S
C70 O77 1.259 . S
C70 O78 1.258 . S
N71 Co62 2.057 . S
N71 C72 1.316 . S
N71 C73 1.375 . S
C72 N71 1.316 . S
C72 N74 1.347 . S
C72 H83 0.931 . S
C73 N71 1.375 . S
C73 C75 1.350 . S
C73 H82 0.930 . S
N74 C72 1.347 . S
N74 C75 1.373 . S
C75 C73 1.350 . S
C75 N74 1.373 . S
C75 H89 0.931 . S
C76 O79 1.256 . S
C76 O80 1.255 . S
O77 Co60 2.021 . S
O77 C70 1.259 . S
O78 Co62 2.117 . S
O78 C70 1.258 . S
O79 Co62 2.020 . S
O79 C76 1.256 . S
O80 Co60 2.062 . S
O80 C76 1.255 . S
O81 C61 1.259 . S
O81 Co62 2.021 . S
H82 C73 0.930 . S
H83 C72 0.931 . S
O84 Co60 2.117 . S
O84 C61 1.258 . S
O85 Co60 2.020 . S
O85 C87 1.256 . S
O86 Co62 2.062 . S
O86 C87 1.255 . S
C87 O85 1.256 . S
C87 O86 1.255 . S
H88 C67 0.931 . S
H89 C75 0.931 . S
Co90 N95 2.057 . S
Co90 O107 2.021 . S
Co90 O110 2.062 . S
Co90 O114 2.117 . S
Co90 O115 2.020 . S
C91 O111 1.259 . S
C91 O114 1.258 . S
Co92 N101 2.057 . S
Co92 O108 2.117 . S
Co92 O109 2.020 . S
Co92 O111 2.021 . S
Co92 O116 2.062 . S
C93 N95 1.316 1_556 S
C93 N96 1.347 . S
C93 H98 0.931 . S
C94 N95 1.375 1_556 S
C94 C97 1.350 . S
C94 H99 0.930 . S
N95 Co90 2.057 . S
N95 C93 1.316 1_554 S
N95 C94 1.375 1_554 S
N96 C93 1.347 . S
N96 C97 1.373 . S
C97 C94 1.350 . S
C97 N96 1.373 . S
C97 H118 0.931 . S
H98 C93 0.931 . S
H99 C94 0.930 . S
C100 O107 1.259 . S
C100 O108 1.258 . S
N101 Co92 2.057 . S
N101 C102 1.316 . S
N101 C103 1.375 . S
C102 N101 1.316 . S
C102 N104 1.347 . S
C102 H113 0.931 . S
C103 N101 1.375 . S
C103 C105 1.350 . S
C103 H112 0.930 . S
N104 C102 1.347 . S
N104 C105 1.373 . S
C105 C103 1.350 . S
C105 N104 1.373 . S
C105 H119 0.931 . S
C106 O109 1.256 . S
C106 O110 1.255 . S
O107 Co90 2.021 . S
O107 C100 1.259 . S
O108 Co92 2.117 . S
O108 C100 1.258 . S
O109 Co92 2.020 . S
O109 C106 1.256 . S
O110 Co90 2.062 . S
O110 C106 1.255 . S
O111 C91 1.259 . S
O111 Co92 2.021 . S
H112 C103 0.930 . S
H113 C102 0.931 . S
O114 Co90 2.117 . S
O114 C91 1.258 . S
O115 Co90 2.020 . S
O115 C117 1.256 . S
O116 Co92 2.062 . S
O116 C117 1.255 . S
C117 O115 1.256 . S
C117 O116 1.255 . S
H118 C97 0.931 . S
H119 C105 0.931 . S
Co120 N125 2.057 . S
Co120 O137 2.021 . S
Co120 O140 2.062 . S
Co120 O144 2.117 . S
Co120 O145 2.020 . S
C121 O141 1.259 . S
C121 O144 1.258 . S
Co122 N131 2.057 . S
Co122 O138 2.117 . S
Co122 O139 2.020 . S
Co122 O141 2.021 . S
Co122 O146 2.062 . S
C123 N125 1.316 . S
C123 N126 1.347 . S
C123 H128 0.931 . S
C124 N125 1.375 . S
C124 C127 1.350 . S
C124 H129 0.930 . S
N125 Co120 2.057 . S
N125 C123 1.316 . S
N125 C124 1.375 . S
N126 C123 1.347 . S
N126 C127 1.373 . S
C127 C124 1.350 . S
C127 N126 1.373 . S
C127 H148 0.931 . S
H128 C123 0.931 . S
H129 C124 0.930 . S
C130 O137 1.259 . S
C130 O138 1.258 . S
N131 Co122 2.057 . S
N131 C132 1.316 . S
N131 C133 1.375 . S
C132 N131 1.316 . S
C132 N134 1.347 . S
C132 H143 0.931 . S
C133 N131 1.375 . S
C133 C135 1.350 . S
C133 H142 0.930 . S
N134 C132 1.347 . S
N134 C135 1.373 . S
C135 C133 1.350 . S
C135 N134 1.373 . S
C135 H149 0.931 . S
C136 O139 1.256 . S
C136 O140 1.255 . S
O137 Co120 2.021 . S
O137 C130 1.259 . S
O138 Co122 2.117 . S
O138 C130 1.258 . S
O139 Co122 2.020 . S
O139 C136 1.256 . S
O140 Co120 2.062 . S
O140 C136 1.255 . S
O141 C121 1.259 . S
O141 Co122 2.021 . S
H142 C133 0.930 . S
H143 C132 0.931 . S
O144 Co120 2.117 . S
O144 C121 1.258 . S
O145 Co120 2.020 . S
O145 C147 1.256 . S
O146 Co122 2.062 . S
O146 C147 1.255 . S
C147 O145 1.256 . S
C147 O146 1.255 . S
H148 C127 0.931 . S
H149 C135 0.931 . S
Co150 N155 2.057 . S
Co150 O167 2.021 . S
Co150 O170 2.062 . S
Co150 O174 2.117 . S
Co150 O175 2.020 . S
C151 O171 1.259 . S
C151 O174 1.258 . S
Co152 N161 2.057 . S
Co152 O168 2.117 . S
Co152 O169 2.020 . S
Co152 O171 2.021 . S
Co152 O176 2.062 . S
C153 N155 1.316 . S
C153 N156 1.347 . S
C153 H158 0.931 . S
C154 N155 1.375 . S
C154 C157 1.350 . S
C154 H159 0.930 . S
N155 Co150 2.057 . S
N155 C153 1.316 . S
N155 C154 1.375 . S
N156 C153 1.347 . S
N156 C157 1.373 . S
C157 C154 1.350 . S
C157 N156 1.373 . S
C157 H178 0.931 . S
H158 C153 0.931 . S
H159 C154 0.930 . S
C160 O167 1.259 . S
C160 O168 1.258 . S
N161 Co152 2.057 . S
N161 C162 1.316 . S
N161 C163 1.375 . S
C162 N161 1.316 . S
C162 N164 1.347 . S
C162 H173 0.931 . S
C163 N161 1.375 . S
C163 C165 1.350 . S
C163 H172 0.930 . S
N164 C162 1.347 . S
N164 C165 1.373 . S
C165 C163 1.350 . S
C165 N164 1.373 . S
C165 H179 0.931 . S
C166 O169 1.256 . S
C166 O170 1.255 . S
O167 Co150 2.021 . S
O167 C160 1.259 . S
O168 Co152 2.117 . S
O168 C160 1.258 . S
O169 Co152 2.020 . S
O169 C166 1.256 . S
O170 Co150 2.062 . S
O170 C166 1.255 . S
O171 C151 1.259 . S
O171 Co152 2.021 . S
H172 C163 0.930 . S
H173 C162 0.931 . S
O174 Co150 2.117 . S
O174 C151 1.258 . S
O175 Co150 2.020 . S
O175 C177 1.256 . S
O176 Co152 2.062 . S
O176 C177 1.255 . S
C177 O175 1.256 . S
C177 O176 1.255 . S
H178 C157 0.931 . S
H179 C165 0.931 . S
H180 C186 0.930 . S
H181 C190 0.930 . S
H182 C195 0.929 . S
H183 C193 0.929 . S
H184 C188 0.929 . S
H185 C194 0.929 . S
C186 H180 0.930 . S
C186 C187 1.367 . S
C186 C194 1.378 . S
C187 C186 1.367 . S
C187 C195 1.433 . S
C188 H184 0.929 . S
C188 C190 1.378 . S
C188 C192 1.350 . S
C189 C192 1.463 . S
C189 C194 1.350 . S
C189 N197 1.427 . S
C190 H181 0.930 . S
C190 C188 1.378 . S
C190 C191 1.367 . S
C191 C190 1.367 . S
C191 C193 1.433 . S
C192 C188 1.350 . S
C192 C189 1.463 . S
C192 N196 1.427 . S
C193 H183 0.929 . S
C193 C191 1.433 . S
C193 N196 1.384 . S
C194 H185 0.929 . S
C194 C186 1.378 . S
C194 C189 1.350 . S
C195 H182 0.929 . S
C195 C187 1.433 . S
C195 N197 1.384 . S
N196 C192 1.427 . S
N196 C193 1.384 . S
N197 C189 1.427 . S
N197 C195 1.384 . S
H198 C204 0.930 . S
H199 C208 0.930 . S
H200 C213 0.929 . S
H201 C211 0.929 . S
H202 C206 0.929 . S
H203 C212 0.929 . S
C204 H198 0.930 . S
C204 C205 1.367 . S
C204 C212 1.378 . S
C205 C204 1.367 . S
C205 C213 1.433 . S
C206 H202 0.929 . S
C206 C208 1.378 . S
C206 C210 1.350 . S
C207 C210 1.463 . S
C207 C212 1.350 . S
C207 N215 1.427 . S
C208 H199 0.930 . S
C208 C206 1.378 . S
C208 C209 1.367 . S
C209 C208 1.367 . S
C209 C211 1.433 . S
C210 C206 1.350 . S
C210 C207 1.463 . S
C210 N214 1.427 . S
C211 H201 0.929 . S
C211 C209 1.433 . S
C211 N214 1.384 . S
C212 H203 0.929 . S
C212 C204 1.378 . S
C212 C207 1.350 . S
C213 H200 0.929 . S
C213 C205 1.433 . S
C213 N215 1.384 . S
N214 C210 1.427 . S
N214 C211 1.384 . S
N215 C207 1.427 . S
N215 C213 1.384 . S
H216 C222 0.930 . S
H217 C226 0.930 . S
H218 C231 0.929 . S
H219 C229 0.929 . S
H220 C224 0.929 1_554 S
H221 C230 0.929 1_556 S
C222 H216 0.930 . S
C222 C223 1.367 . S
C222 C230 1.378 . S
C223 C222 1.367 . S
C223 C231 1.433 . S
C224 H220 0.929 1_556 S
C224 C226 1.378 . S
C224 C228 1.350 . S
C225 C228 1.463 1_554 S
C225 C230 1.350 . S
C225 N233 1.427 . S
C226 H217 0.930 . S
C226 C224 1.378 . S
C226 C227 1.367 . S
C227 C226 1.367 . S
C227 C229 1.433 . S
C228 C224 1.350 . S
C228 C225 1.463 1_556 S
C228 N232 1.427 . S
C229 H219 0.929 . S
C229 C227 1.433 . S
C229 N232 1.384 . S
C230 H221 0.929 1_554 S
C230 C222 1.378 . S
C230 C225 1.350 . S
C231 H218 0.929 . S
C231 C223 1.433 . S
C231 N233 1.384 . S
N232 C228 1.427 . S
N232 C229 1.384 . S
N233 C225 1.427 . S
N233 C231 1.384 . S
H234 C240 0.930 . S
H235 C244 0.930 . S
H236 C249 0.929 . S
H237 C247 0.929 . S
H238 C242 0.929 . S
H239 C248 0.929 . S
C240 H234 0.930 . S
C240 C241 1.367 . S
C240 C248 1.378 . S
C241 C240 1.367 . S
C241 C249 1.433 . S
C242 H238 0.929 . S
C242 C244 1.378 . S
C242 C246 1.350 . S
C243 C246 1.463 . S
C243 C248 1.350 . S
C243 N251 1.427 . S
C244 H235 0.930 . S
C244 C242 1.378 . S
C244 C245 1.367 . S
C245 C244 1.367 . S
C245 C247 1.433 . S
C246 C242 1.350 . S
C246 C243 1.463 . S
C246 N250 1.427 . S
C247 H237 0.929 . S
C247 C245 1.433 . S
C247 N250 1.384 . S
C248 H239 0.929 . S
C248 C240 1.378 . S
C248 C243 1.350 . S
C249 H236 0.929 . S
C249 C241 1.433 . S
C249 N251 1.384 . S
N250 C246 1.427 . S
N250 C247 1.384 . S
N251 C243 1.427 . S
N251 C249 1.384 . S
H252 C258 0.930 . S
H253 C262 0.930 . S
H254 C267 0.929 . S
H255 C265 0.929 . S
H256 C260 0.929 . S
H257 C266 0.929 . S
C258 H252 0.930 . S
C258 C259 1.367 . S
C258 C266 1.378 . S
C259 C258 1.367 . S
C259 C267 1.433 . S
C260 H256 0.929 . S
C260 C262 1.378 . S
C260 C264 1.350 . S
C261 C264 1.463 . S
C261 C266 1.350 . S
C261 N269 1.427 . S
C262 H253 0.930 . S
C262 C260 1.378 . S
C262 C263 1.367 . S
C263 C262 1.367 . S
C263 C265 1.433 . S
C264 C260 1.350 . S
C264 C261 1.463 . S
C264 N268 1.427 . S
C265 H255 0.929 . S
C265 C263 1.433 . S
C265 N268 1.384 . S
C266 H257 0.929 . S
C266 C258 1.378 . S
C266 C261 1.350 . S
C267 H254 0.929 . S
C267 C259 1.433 . S
C267 N269 1.384 . S
N268 C264 1.427 . S
N268 C265 1.384 . S
N269 C261 1.427 . S
N269 C267 1.384 . S
H270 C276 0.930 . S
H271 C280 0.930 . S
H272 C285 0.929 . S
H273 C283 0.929 . S
H274 C278 0.929 . S
H275 C284 0.929 . S
C276 H270 0.930 . S
C276 C277 1.367 . S
C276 C284 1.378 . S
C277 C276 1.367 . S
C277 C285 1.433 . S
C278 H274 0.929 . S
C278 C280 1.378 . S
C278 C282 1.350 . S
C279 C282 1.463 . S
C279 C284 1.350 . S
C279 N287 1.427 . S
C280 H271 0.930 . S
C280 C278 1.378 . S
C280 C281 1.367 . S
C281 C280 1.367 . S
C281 C283 1.433 . S
C282 C278 1.350 . S
C282 C279 1.463 . S
C282 N286 1.427 . S
C283 H273 0.929 . S
C283 C281 1.433 . S
C283 N286 1.384 . S
C284 H275 0.929 . S
C284 C276 1.378 . S
C284 C279 1.350 . S
C285 H272 0.929 . S
C285 C277 1.433 . S
C285 N287 1.384 . S
N286 C282 1.427 . S
N286 C283 1.384 . S
N287 C279 1.427 . S
N287 C285 1.384 . S
H288 C294 0.930 . S
H289 C298 0.930 . S
H290 C303 0.929 . S
H291 C301 0.929 . S
H292 C296 0.929 . S
H293 C302 0.929 . S
C294 H288 0.930 . S
C294 C295 1.367 . S
C294 C302 1.378 . S
C295 C294 1.367 . S
C295 C303 1.433 . S
C296 H292 0.929 . S
C296 C298 1.378 . S
C296 C300 1.350 . S
C297 C300 1.463 . S
C297 C302 1.350 . S
C297 N305 1.427 . S
C298 H289 0.930 . S
C298 C296 1.378 . S
C298 C299 1.367 . S
C299 C298 1.367 . S
C299 C301 1.433 . S
C300 C296 1.350 . S
C300 C297 1.463 . S
C300 N304 1.427 . S
C301 H291 0.929 . S
C301 C299 1.433 . S
C301 N304 1.384 . S
C302 H293 0.929 . S
C302 C294 1.378 . S
C302 C297 1.350 . S
C303 H290 0.929 . S
C303 C295 1.433 . S
C303 N305 1.384 . S
N304 C300 1.427 . S
N304 C301 1.384 . S
N305 C297 1.427 . S
N305 C303 1.384 . S
H306 C312 0.930 . S
H307 C316 0.930 . S
H308 C321 0.929 . S
H309 C319 0.929 . S
H310 C314 0.929 . S
H311 C320 0.929 . S
C312 H306 0.930 . S
C312 C313 1.367 . S
C312 C320 1.378 . S
C313 C312 1.367 . S
C313 C321 1.433 . S
C314 H310 0.929 . S
C314 C316 1.378 . S
C314 C318 1.350 1_655 S
C315 C318 1.463 . S
C315 C320 1.350 . S
C315 N323 1.427 1_455 S
C316 H307 0.930 . S
C316 C314 1.378 . S
C316 C317 1.367 . S
C317 C316 1.367 . S
C317 C319 1.433 1_655 S
C318 C314 1.350 1_455 S
C318 C315 1.463 . S
C318 N322 1.427 . S
C319 H309 0.929 . S
C319 C317 1.433 1_455 S
C319 N322 1.384 . S
C320 H311 0.929 . S
C320 C312 1.378 . S
C320 C315 1.350 . S
C321 H308 0.929 . S
C321 C313 1.433 . S
C321 N323 1.384 1_455 S
N322 C318 1.427 . S
N322 C319 1.384 . S
N323 C315 1.427 1_655 S
N323 C321 1.384 1_655 S
H324 C330 0.930 . S
H325 C334 0.930 . S
H326 C339 0.929 . S
H327 C337 0.929 . S
H328 C332 0.929 . S
H329 C338 0.929 . S
C330 H324 0.930 . S
C330 C331 1.367 1_565 S
C330 C338 1.378 . S
C331 C330 1.367 1_545 S
C331 C339 1.433 . S
C332 H328 0.929 . S
C332 C334 1.378 . S
C332 C336 1.350 . S
C333 C336 1.463 . S
C333 C338 1.350 . S
C333 N341 1.427 1_565 S
C334 H325 0.930 . S
C334 C332 1.378 . S
C334 C335 1.367 . S
C335 C334 1.367 . S
C335 C337 1.433 . S
C336 C332 1.350 . S
C336 C333 1.463 . S
C336 N340 1.427 . S
C337 H327 0.929 . S
C337 C335 1.433 . S
C337 N340 1.384 . S
C338 H329 0.929 . S
C338 C330 1.378 . S
C338 C333 1.350 . S
C339 H326 0.929 . S
C339 C331 1.433 . S
C339 N341 1.384 . S
N340 C336 1.427 . S
N340 C337 1.384 . S
N341 C333 1.427 1_545 S
N341 C339 1.384 . S
H342 C348 0.930 . S
H343 C352 0.930 . S
H344 C357 0.929 . S
H345 C355 0.929 . S
H346 C350 0.929 . S
H347 C356 0.929 . S
C348 H342 0.930 . S
C348 C349 1.367 . S
C348 C356 1.378 . S
C349 C348 1.367 . S
C349 C357 1.433 . S
C350 H346 0.929 . S
C350 C352 1.378 . S
C350 C354 1.350 . S
C351 C354 1.463 . S
C351 C356 1.350 . S
C351 N359 1.427 . S
C352 H343 0.930 . S
C352 C350 1.378 . S
C352 C353 1.367 . S
C353 C352 1.367 . S
C353 C355 1.433 . S
C354 C350 1.350 . S
C354 C351 1.463 . S
C354 N358 1.427 . S
C355 H345 0.929 . S
C355 C353 1.433 . S
C355 N358 1.384 . S
C356 H347 0.929 . S
C356 C348 1.378 . S
C356 C351 1.350 . S
C357 H344 0.929 . S
C357 C349 1.433 . S
C357 N359 1.384 . S
N358 C354 1.427 . S
N358 C355 1.384 . S
N359 C351 1.427 . S
N359 C357 1.384 . S
H360 C366 0.930 . S
H361 C370 0.930 . S
H362 C375 0.929 . S
H363 C373 0.929 . S
H364 C368 0.929 1_455 S
H365 C374 0.929 . S
C366 H360 0.930 . S
C366 C367 1.367 1_655 S
C366 C374 1.378 . S
C367 C366 1.367 1_455 S
C367 C375 1.433 . S
C368 H364 0.929 1_655 S
C368 C370 1.378 . S
C368 C372 1.350 . S
C369 C372 1.463 . S
C369 C374 1.350 . S
C369 N377 1.427 1_655 S
C370 H361 0.930 . S
C370 C368 1.378 . S
C370 C371 1.367 . S
C371 C370 1.367 . S
C371 C373 1.433 . S
C372 C368 1.350 . S
C372 C369 1.463 . S
C372 N376 1.427 . S
C373 H363 0.929 . S
C373 C371 1.433 . S
C373 N376 1.384 . S
C374 H365 0.929 . S
C374 C366 1.378 . S
C374 C369 1.350 . S
C375 H362 0.929 . S
C375 C367 1.433 . S
C375 N377 1.384 . S
N376 C372 1.427 . S
N376 C373 1.384 . S
N377 C369 1.427 1_455 S
N377 C375 1.384 . S
H378 C384 0.930 . S
H379 C388 0.930 . S
H380 C393 0.929 1_545 S
H381 C391 0.929 . S
H382 C386 0.929 . S
H383 C392 0.929 . S
C384 H378 0.930 . S
C384 C385 1.367 . S
C384 C392 1.378 . S
C385 C384 1.367 . S
C385 C393 1.433 . S
C386 H382 0.929 . S
C386 C388 1.378 . S
C386 C390 1.350 . S
C387 C390 1.463 . S
C387 C392 1.350 1_545 S
C387 N395 1.427 . S
C388 H379 0.930 . S
C388 C386 1.378 . S
C388 C389 1.367 . S
C389 C388 1.367 . S
C389 C391 1.433 . S
C390 C386 1.350 . S
C390 C387 1.463 . S
C390 N394 1.427 . S
C391 H381 0.929 . S
C391 C389 1.433 . S
C391 N394 1.384 . S
C392 H383 0.929 . S
C392 C384 1.378 . S
C392 C387 1.350 1_565 S
C393 H380 0.929 1_565 S
C393 C385 1.433 . S
C393 N395 1.384 1_565 S
N394 C390 1.427 . S
N394 C391 1.384 . S
N395 C387 1.427 . S
N395 C393 1.384 1_545 S
H396 C402 0.930 . S
H397 C406 0.930 . S
H398 C411 0.929 . S
H399 C409 0.929 . S
H400 C404 0.929 . S
H401 C410 0.929 . S
C402 H396 0.930 . S
C402 C403 1.367 . S
C402 C410 1.378 . S
C403 C402 1.367 . S
C403 C411 1.433 . S
C404 H400 0.929 . S
C404 C406 1.378 . S
C404 C408 1.350 . S
C405 C408 1.463 . S
C405 C410 1.350 . S
C405 N413 1.427 . S
C406 H397 0.930 . S
C406 C404 1.378 . S
C406 C407 1.367 1_556 S
C407 C406 1.367 1_554 S
C407 C409 1.433 . S
C408 C404 1.350 . S
C408 C405 1.463 . S
C408 N412 1.427 . S
C409 H399 0.929 . S
C409 C407 1.433 . S
C409 N412 1.384 1_554 S
C410 H401 0.929 . S
C410 C402 1.378 . S
C410 C405 1.350 . S
C411 H398 0.929 . S
C411 C403 1.433 . S
C411 N413 1.384 . S
N412 C408 1.427 . S
N412 C409 1.384 1_556 S
N413 C405 1.427 . S
N413 C411 1.384 . S
H414 C420 0.930 . S
H415 C424 0.930 . S
H416 C429 0.929 . S
H417 C427 0.929 . S
H418 C422 0.929 . S
H419 C428 0.929 . S
C420 H414 0.930 . S
C420 C421 1.367 . S
C420 C428 1.378 . S
C421 C420 1.367 . S
C421 C429 1.433 . S
C422 H418 0.929 . S
C422 C424 1.378 . S
C422 C426 1.350 . S
C423 C426 1.463 1_655 S
C423 C428 1.350 . S
C423 N431 1.427 . S
C424 H415 0.930 . S
C424 C422 1.378 . S
C424 C425 1.367 . S
C425 C424 1.367 . S
C425 C427 1.433 . S
C426 C422 1.350 . S
C426 C423 1.463 1_455 S
C426 N430 1.427 1_455 S
C427 H417 0.929 . S
C427 C425 1.433 . S
C427 N430 1.384 1_455 S
C428 H419 0.929 . S
C428 C420 1.378 . S
C428 C423 1.350 . S
C429 H416 0.929 . S
C429 C421 1.433 . S
C429 N431 1.384 . S
N430 C426 1.427 1_655 S
N430 C427 1.384 1_655 S
N431 C423 1.427 . S
N431 C429 1.384 . S
H432 C438 0.930 . S
H433 C442 0.930 . S
H434 C447 0.929 . S
H435 C445 0.929 . S
H436 C440 0.929 . S
H437 C446 0.929 . S
C438 H432 0.930 . S
C438 C439 1.367 . S
C438 C446 1.378 . S
C439 C438 1.367 . S
C439 C447 1.433 . S
C440 H436 0.929 . S
C440 C442 1.378 . S
C440 C444 1.350 . S
C441 C444 1.463 1_565 S
C441 C446 1.350 . S
C441 N449 1.427 . S
C442 H433 0.930 . S
C442 C440 1.378 . S
C442 C443 1.367 . S
C443 C442 1.367 . S
C443 C445 1.433 . S
C444 C440 1.350 . S
C444 C441 1.463 1_545 S
C444 N448 1.427 1_545 S
C445 H435 0.929 . S
C445 C443 1.433 . S
C445 N448 1.384 1_545 S
C446 H437 0.929 . S
C446 C438 1.378 . S
C446 C441 1.350 . S
C447 H434 0.929 . S
C447 C439 1.433 . S
C447 N449 1.384 . S
N448 C444 1.427 1_565 S
N448 C445 1.384 1_565 S
N449 C441 1.427 . S
N449 C447 1.384 . S
H450 C456 0.930 . S
H451 C460 0.930 . S
H452 C465 0.929 . S
H453 C463 0.929 . S
H454 C458 0.929 . S
H455 C464 0.929 . S
C456 H450 0.930 . S
C456 C457 1.367 . S
C456 C464 1.378 . S
C457 C456 1.367 . S
C457 C465 1.433 . S
C458 H454 0.929 . S
C458 C460 1.378 . S
C458 C462 1.350 . S
C459 C462 1.463 . S
C459 C464 1.350 . S
C459 N467 1.427 . S
C460 H451 0.930 . S
C460 C458 1.378 . S
C460 C461 1.367 1_556 S
C461 C460 1.367 1_554 S
C461 C463 1.433 . S
C462 C458 1.350 . S
C462 C459 1.463 . S
C462 N466 1.427 . S
C463 H453 0.929 . S
C463 C461 1.433 . S
C463 N466 1.384 1_554 S
C464 H455 0.929 . S
C464 C456 1.378 . S
C464 C459 1.350 . S
C465 H452 0.929 . S
C465 C457 1.433 . S
C465 N467 1.384 . S
N466 C462 1.427 . S
N466 C463 1.384 1_556 S
N467 C459 1.427 . S
N467 C465 1.384 . S
H468 C474 0.930 . S
H469 C478 0.930 . S
H470 C483 0.929 1_655 S
H471 C481 0.929 . S
H472 C476 0.929 . S
H473 C482 0.929 . S
C474 H468 0.930 . S
C474 C475 1.367 . S
C474 C482 1.378 . S
C475 C474 1.367 . S
C475 C483 1.433 . S
C476 H472 0.929 . S
C476 C478 1.378 . S
C476 C480 1.350 . S
C477 C480 1.463 1_455 S
C477 C482 1.350 . S
C477 N485 1.427 1_455 S
C478 H469 0.930 . S
C478 C476 1.378 . S
C478 C479 1.367 . S
C479 C478 1.367 . S
C479 C481 1.433 . S
C480 C476 1.350 . S
C480 C477 1.463 1_655 S
C480 N484 1.420 1_655 S
C481 H471 0.929 . S
C481 C479 1.433 . S
C481 N484 1.376 1_655 S
C482 H473 0.929 . S
C482 C474 1.378 . S
C482 C477 1.350 . S
C483 H470 0.929 1_455 S
C483 C475 1.433 . S
C483 N485 1.384 1_455 S
N484 C480 1.420 1_455 S
N484 C481 1.376 1_455 S
N485 C477 1.427 1_655 S
N485 C483 1.384 1_655 S
H486 C492 0.930 . S
H487 C496 0.930 . S
H488 C501 0.929 . S
H489 C499 0.929 . S
H490 C494 0.929 1_545 S
H491 C500 0.929 . S
C492 H486 0.930 . S
C492 C493 1.367 . S
C492 C500 1.378 1_545 S
C493 C492 1.367 . S
C493 C501 1.433 . S
C494 H490 0.929 1_565 S
C494 C496 1.378 . S
C494 C498 1.350 . S
C495 C498 1.463 1_545 S
C495 C500 1.350 1_545 S
C495 N503 1.427 . S
C496 H487 0.930 . S
C496 C494 1.378 . S
C496 C497 1.367 . S
C497 C496 1.367 . S
C497 C499 1.433 . S
C498 C494 1.350 . S
C498 C495 1.463 1_565 S
C498 N502 1.427 . S
C499 H489 0.929 . S
C499 C497 1.433 . S
C499 N502 1.384 . S
C500 H491 0.929 . S
C500 C492 1.378 1_565 S
C500 C495 1.350 1_565 S
C501 H488 0.929 . S
C501 C493 1.433 . S
C501 N503 1.384 . S
N502 C498 1.427 . S
N502 C499 1.384 . S
N503 C495 1.427 . S
N503 C501 1.384 . S
C187 C147 0.837 . S
C191 N6 0.835 . S
C205 N156 0.826 . S
C209 C57 0.831 . S
C223 C27 0.830 . S
C227 N66 0.827 . S
C241 N36 0.819 . S
C245 C117 0.826 . S
C259 C87 0.826 . S
C263 N126 0.819 . S
C277 N96 0.823 . S
C281 C177 0.828 . S
C295 C1 1.384 . S
C299 C100 1.391 . S
C313 C121 1.388 . S
C317 C40 1.391 . S
C331 C160 1.405 . S
C335 C61 1.402 . S
C349 C70 1.398 . S
C353 C151 1.398 . S
C367 C10 1.407 . S
C371 C91 1.402 . S
C385 C130 1.394 . S
C389 C31 1.393 . S
C403 N164 0.765 . S
C407 N14 0.761 . S
C421 C46 0.771 . S
C425 C16 0.772 . S
C439 N74 0.760 . S
C443 N44 0.764 . S
C457 C76 0.779 . S
C461 C106 0.763 . S
C475 N134 0.760 . S
C479 N104 0.761 . S
C493 C166 0.778 . S
C497 C136 0.762 . S
