# Generated by pormake.
# Topology sxc, (6)-cn, num edge types: 1
# Building blocks:
#     Node 0, Type 0, BuildingBlock: KUMBOL_clean_sbu_1, # of connection points: 6
#     Node 1, Type 0, BuildingBlock: KUMBOL_clean_sbu_1, # of connection points: 6
#     Node 2, Type 0, BuildingBlock: KUMBOL_clean_sbu_1, # of connection points: 6
#     Edge 3, Type (0, 0), BuildingBlock: FUNLAD_clean_linker_0, # of connection points: 2
#     Edge 4, Type (0, 0), BuildingBlock: FUNLAD_clean_linker_0, # of connection points: 2
#     Edge 5, Type (0, 0), BuildingBlock: FUNLAD_clean_linker_0, # of connection points: 2
#     Edge 6, Type (0, 0), BuildingBlock: FUNLAD_clean_linker_0, # of connection points: 2
#     Edge 7, Type (0, 0), BuildingBlock: FUNLAD_clean_linker_0, # of connection points: 2
#     Edge 8, Type (0, 0), BuildingBlock: FUNLAD_clean_linker_0, # of connection points: 2
#     Edge 9, Type (0, 0), BuildingBlock: FUNLAD_clean_linker_0, # of connection points: 2
#     Edge 10, Type (0, 0), BuildingBlock: FUNLAD_clean_linker_0, # of connection points: 2
#     Edge 11, Type (0, 0), BuildingBlock: FUNLAD_clean_linker_0, # of connection points: 2
# Relax obj value: 0.207
# Max RMSD: 0.150
# Mean RMSD: 0.109
data_MOF--net-sxc--node1-KUMBOL_clean_sbu_1--edge1-FUNLAD_clean_linker_0
_symmetry_space_group_name_H-M    P1
_symmetry_Int_Tables_number       1
_symmetry_cell_setting            triclinic
loop_
_symmetry_equiv_pos_as_xyz
'x, y, z'
_cell_length_a     18.016358
_cell_length_b     19.340885
_cell_length_c     51.860955
_cell_angle_alpha  110.64567
_cell_angle_beta   99.35752
_cell_angle_gamma 97.851325
loop_
_atom_site_label
_atom_site_type_symbol
_atom_site_fract_x
_atom_site_fract_y
_atom_site_fract_z
_atom_type_partial_charge
C0 C 0.2843 0.11831 0.05193 0.0
C1 C 0.34554 1.0638 0.01321 0.0
C2 C 0.29356 0.10781 0.02461 0.0
C3 C 0.38796 1.03146 0.0294 0.0
C4 C 0.32816 0.08708 0.06837 0.0
C5 C 0.37984 1.04363 0.05694 0.0
N6 N 0.2331 0.1598 0.06256 0.0
C7 C 0.2263 0.17567 0.08973 0.0
C8 C 0.31985 0.10158 0.09607 0.0
C9 C 0.26896 0.14642 0.10683 0.0
Gd10 Gd 0.96254 0.16275 1.00289 0.0
Gd11 Gd 0.18092 0.22211 0.03527 0.0
N12 N 0.25461 0.14296 0.00977 0.0
C13 C 0.35537 1.05537 0.98615 0.0
C14 C 0.26868 0.13903 0.98422 0.0
C15 C 0.31712 0.09349 0.9717 0.0
H16 H 0.24616 0.17311 0.97369 0.0
H17 H 0.32694 0.08985 0.95126 0.0
H18 H 0.90228 0.2262 0.06525 0.0
H19 H 0.19118 0.21403 0.0987 0.0
H20 H 0.81558 0.30639 0.08468 0.0
H21 H 0.3944 1.02166 0.97664 0.0
H22 H 0.42851 0.99811 0.02099 0.0
H23 H 0.95774 0.16447 0.93835 0.0
H24 H 0.35346 1.07958 0.10948 0.0
H25 H 0.26386 0.15993 0.12849 0.0
H26 H 0.70793 0.3775 0.00963 0.0
H27 H 0.4142 1.0195 0.06932 0.0
H28 H 0.79166 0.291 0.923 0.0
H29 H 0.88566 0.21338 0.90658 0.0
N30 N 0.91269 0.22098 0.97353 0.0
C31 C 0.85945 0.26153 0.98283 0.0
C32 C 0.92168 0.20294 0.94648 0.0
C33 C 0.82555 0.27204 0.93744 0.0
C34 C 0.87897 0.22876 0.92814 0.0
C35 C 0.81504 0.28878 0.96499 0.0
H36 H 0.72543 0.35112 0.96136 0.0
N37 N 0.88887 0.24477 0.02666 0.0
C38 C 0.84845 0.27505 0.01019 0.0
C39 C 0.78374 0.33048 0.04743 0.0
C40 C 0.79415 0.31789 0.02013 0.0
C41 C 0.87617 0.25445 0.05288 0.0
C42 C 0.82495 0.29869 0.06384 0.0
O43 O 0.13209 0.09373 0.02807 0.0
O44 O 1.00028 1.05915 0.01053 0.0
O45 O 0.8456 0.10889 0.99871 0.0
O46 O 0.89852 1.07728 0.96267 0.0
O47 O 0.14615 0.22516 0.99192 0.0
O48 O 1.04677 0.12479 0.97593 0.0
O49 O 1.01055 0.29214 0.01126 0.0
O50 O 0.14324 0.32444 0.02638 0.0
O51 O 0.2989 0.27526 0.04115 0.0
O52 O 0.24094 0.31026 0.07569 0.0
O53 O 0.99536 0.16097 0.04668 0.0
O54 O 0.09634 0.2594 0.06199 0.0
C55 C 0.06644 1.04126 0.01907 0.0
C56 C 0.09595 0.17169 0.97088 0.0
C57 C 0.8021 0.98514 0.96392 0.0
C58 C 0.74445 0.88244 0.97513 0.0
C59 C 0.74381 0.86297 0.92636 0.0
C60 C 0.78208 0.93793 0.93507 0.0
C61 C 0.72459 0.83523 0.94635 0.0
C62 C 0.78366 0.95685 0.98399 0.0
C63 C 0.83816 1.06447 0.9724 0.0
C64 C 0.75049 0.34537 1.00239 0.0
C65 C 0.76049 0.33041 0.97488 0.0
H66 H 0.74276 0.36327 0.05581 0.0
C67 C 0.07664 0.34355 0.01912 0.0
C68 C 1.04749 0.2133 0.06753 0.0
C69 C 0.33549 0.40226 0.07296 0.0
C70 C 0.39129 0.49918 0.05837 0.0
C71 C 0.38259 0.53111 0.10714 0.0
C72 C 0.34871 0.45591 0.10071 0.0
C73 C 0.40411 0.55282 0.08602 0.0
C74 C 0.35672 0.42444 0.05177 0.0
C75 C 0.30266 0.32306 0.06662 0.0
H76 H 0.72787 0.82683 0.90412 0.0
H77 H 0.79525 0.95934 0.91928 0.0
H78 H 0.693 0.77755 0.9394 0.0
H79 H 0.7976 0.99273 0.00632 0.0
H80 H 0.39334 0.57227 0.12858 0.0
H81 H 0.33347 0.43946 0.1174 0.0
H82 H 0.43239 0.61082 0.09133 0.0
H83 H 0.34825 0.38376 0.03029 0.0
C84 C 0.30223 0.40026 0.4111 0.0
C85 C 0.35848 0.46239 0.38332 0.0
C86 C 0.29399 0.42281 0.38823 0.0
C87 C 0.43032 0.4816 0.40221 0.0
C88 C 0.3739 0.42164 0.43056 0.0
C89 C 0.43781 0.46205 0.42592 0.0
N90 N 0.24003 0.35869 0.41459 0.0
C91 C 0.24339 0.34579 0.43891 0.0
C92 C 0.37884 0.40323 0.45448 0.0
C93 C 0.31291 0.36631 0.45891 0.0
Gd94 Gd 1.06211 0.11962 0.33482 0.0
Gd95 Gd 0.12455 0.33466 0.38144 0.0
N96 N 0.22359 0.40336 0.37018 0.0
C97 C 0.34917 0.48023 0.35924 0.0
C98 C 0.2138 0.42281 0.34717 0.0
C99 C 0.27658 0.46033 0.34112 0.0
H100 H 0.15786 0.40988 0.33339 0.0
H101 H 0.26884 0.47431 0.32253 0.0
H102 H 1.02283 1.04455 0.38225 0.0
H103 H 0.19199 0.3235 0.44374 0.0
H104 H 0.90909 0.982 0.39239 0.0
H105 H 0.39758 0.50941 0.35448 0.0
H106 H 0.48042 0.51204 0.39877 0.0
H107 H 1.00152 0.12566 0.27121 0.0
H108 H 0.43256 0.41954 0.47011 0.0
H109 H 0.31513 0.35525 0.47805 0.0
H110 H 0.70245 0.94645 0.31477 0.0
H111 H 0.49332 0.47857 0.44058 0.0
H112 H 0.75981 1.03426 0.24321 0.0
H113 H 0.88037 0.09454 0.2358 0.0
N114 N 0.94902 0.09416 0.3003 0.0
C115 C 0.88515 1.05419 0.30347 0.0
C116 C 0.94865 0.10494 0.2757 0.0
C117 C 0.81259 1.05022 0.25927 0.0
C118 C 0.88033 0.08484 0.25512 0.0
C119 C 0.8146 1.03328 0.28344 0.0
H120 H 0.69423 0.97851 0.27268 0.0
N121 N 0.96024 1.05086 0.34491 0.0
C122 C 0.89072 1.03213 0.32641 0.0
C123 C 0.83152 0.97654 0.35512 0.0
C124 C 0.82466 0.99395 0.33095 0.0
C125 C 0.96763 1.0318 0.36803 0.0
C126 C 0.90327 0.99553 0.3737 0.0
O127 O 0.21616 0.27662 0.36161 0.0
O128 O 0.18828 0.15497 0.35892 0.0
O129 O 1.05953 0.99992 0.31843 0.0
O130 O 0.10533 1.06929 0.29727 0.0
O131 O 1.06229 0.31417 0.33693 0.0
O132 O 0.10312 0.20502 0.31678 0.0
O133 O 0.97064 0.17514 0.35538 0.0
O134 O 0.99768 0.29604 0.35754 0.0
O135 O 0.12971 0.45492 0.39864 0.0
O136 O 0.08364 0.38568 0.41961 0.0
O137 O 0.12148 0.14043 0.37966 0.0
O138 O 0.0823 0.25087 0.39956 0.0
C139 C 0.2383 0.21367 0.36045 0.0
C140 C 0.07318 0.26119 0.3145 0.0
C141 C 0.17138 0.97785 0.30252 0.0
C142 C 0.25646 0.93303 0.33124 0.0
C143 C 0.26081 0.90606 0.28181 0.0
C144 C 0.1994 0.94167 0.2788 0.0
C145 C 0.28768 0.89943 0.30759 0.0
C146 C 0.20836 0.9826 0.32908 0.0
C147 C 0.0997 1.00469 0.30006 0.0
C148 C 0.75378 0.9757 0.3116 0.0
C149 C 0.74896 0.99452 0.28775 0.0
H150 H 0.78185 0.94845 0.35961 0.0
C151 C 0.94817 0.23782 0.35662 0.0
C152 C 0.10923 0.1933 0.40183 0.0
C153 C 1.02124 0.48102 0.41588 0.0
C154 C 0.9306 0.51307 0.38412 0.0
C155 C 0.9447 0.57052 0.43545 0.0
C156 C 1.00323 0.53221 0.43949 0.0
C157 C 0.91032 0.56319 0.40803 0.0
C158 C 0.97771 0.46529 0.38896 0.0
C159 C 0.0914 0.45133 0.41761 0.0
H160 H 0.28315 0.87805 0.26358 0.0
H161 H 0.17312 0.93974 0.25816 0.0
H162 H 0.3279 0.86299 0.30788 0.0
H163 H 0.18991 1.0163 0.34738 0.0
H164 H 0.93037 0.61054 0.45359 0.0
H165 H 1.03542 0.54399 0.46065 0.0
H166 H 0.87251 0.60076 0.40618 0.0
H167 H 0.99091 0.42316 0.37158 0.0
C168 C 0.21439 0.89036 0.62867 0.0
C169 C 0.29727 0.86818 0.66548 0.0
C170 C 0.23908 0.90313 0.65714 0.0
C171 C 0.33135 0.82246 0.64516 0.0
C172 C 0.24685 0.84228 0.60811 0.0
C173 C 0.30616 0.80948 0.61657 0.0
N174 N 0.15737 0.92316 0.62094 0.0
C175 C 0.12602 0.90521 0.59299 0.0
C176 C 0.21771 0.82724 0.57953 0.0
C177 C 0.15625 0.85805 0.57193 0.0
Gd178 Gd 0.16869 0.22103 0.70319 0.0
Gd179 Gd 0.11056 1.00191 0.65777 0.0
N180 N 0.20529 0.94809 0.6765 0.0
C181 C 0.31862 0.87885 0.69396 0.0
C182 C 0.22266 0.95405 0.70395 0.0
C183 C 0.28028 0.92098 0.71317 0.0
H184 H 0.19122 0.98143 0.71889 0.0
H185 H 0.29409 0.9269 0.73505 0.0
H186 H 0.07526 0.23593 0.64246 0.0
H187 H 0.07739 0.92731 0.58666 0.0
H188 H 0.98092 0.30404 0.62972 0.0
H189 H 0.36288 0.85283 0.70117 0.0
H190 H 0.37637 0.79568 0.6513 0.0
H191 H 0.16989 0.24545 0.77072 0.0
H192 H 0.24103 0.79053 0.56316 0.0
H193 H 0.13183 0.84526 0.54986 0.0
H194 H 0.91032 0.43388 0.71636 0.0
H195 H 0.33207 0.77292 0.60109 0.0
H196 H 1.01538 0.38986 0.7986 0.0
H197 H 0.1079 0.31363 0.80817 0.0
N198 N 0.10775 0.27632 0.73948 0.0
C199 C 1.05816 0.31891 0.73382 0.0
C200 C 0.12612 0.27456 0.76582 0.0
C201 C 1.04099 0.3583 0.78185 0.0
C202 C 0.09267 0.31491 0.78729 0.0
C203 C 1.0231 0.36074 0.75491 0.0
H204 H 0.94381 0.43588 0.76449 0.0
N205 N 0.07181 0.27463 0.68605 0.0
C206 C 1.03973 0.31812 0.70645 0.0
C207 C 0.96436 0.35381 0.672 0.0
C208 C 0.98516 0.35877 0.69986 0.0
C209 C 1.05102 0.26947 0.6588 0.0
C210 C 0.99703 0.30857 0.65138 0.0
O211 O 0.23537 1.05238 0.66 0.0
O212 O 0.26832 0.15923 0.70129 0.0
O213 O 0.23277 0.32443 0.70326 0.0
O214 O 0.24349 0.30359 0.74178 0.0
O215 O 0.08924 1.04207 0.70222 0.0
O216 O 0.19171 0.14045 0.72421 0.0
O217 O 1.04374 0.16653 0.69903 0.0
O218 O 1.02005 1.07249 0.65542 0.0
O219 O 1.048 0.90054 0.65967 0.0
O220 O 1.01248 0.93344 0.62368 0.0
O221 O 0.18534 0.19085 0.65806 0.0
O222 O 0.11261 1.06959 0.63044 0.0
C223 C 0.28749 0.10785 0.68026 0.0
C224 C 0.13473 0.09315 0.72549 0.0
C225 C 0.35375 0.3692 0.73599 0.0
C226 C 0.46918 0.40894 0.72224 0.0
C227 C 0.47814 0.40489 0.76881 0.0
C228 C 0.39833 0.38098 0.76268 0.0
C229 C 0.51365 0.41943 0.74874 0.0
C230 C 0.3899 0.38149 0.71572 0.0
C231 C 0.26971 0.34645 0.72958 0.0
C232 C 0.95183 0.40192 0.72107 0.0
C233 C 0.9708 0.40299 0.74848 0.0
H234 H 0.92251 0.38402 0.66612 0.0
C235 C 0.99461 0.1152 0.67663 0.0
C236 C 0.15469 0.13443 0.63338 0.0
C237 C 0.94175 0.81744 0.62217 0.0
C238 C 0.82553 0.74904 0.62626 0.0
C239 C 0.85885 0.71698 0.58062 0.0
C240 C 0.92518 0.77414 0.59304 0.0
C241 C 0.80841 0.70482 0.59714 0.0
C242 C 0.89292 0.80393 0.63873 0.0
C243 C 1.00269 0.88406 0.63504 0.0
H244 H 0.51221 0.41445 0.78943 0.0
H245 H 0.3715 0.37227 0.77884 0.0
H246 H 0.57503 0.44225 0.75442 0.0
H247 H 0.35607 0.37265 0.69509 0.0
H248 H 0.84574 0.68325 0.55815 0.0
H249 H 0.96259 0.78544 0.57997 0.0
H250 H 0.75648 0.66118 0.58732 0.0
H251 H 0.90498 0.83932 0.66111 0.0
C252 C 1.01396 0.45164 0.00765 0.0
C253 C 0.07781 0.42705 0.01965 0.0
C254 C 1.0178 0.52832 0.0085 0.0
C255 C 0.08577 0.58679 0.0217 0.0
C256 C 0.14864 0.56168 0.03373 0.0
C257 C 0.14507 0.48569 0.03265 0.0
C258 C 0.09675 0.67294 0.02417 0.0
C259 C 1.04618 0.71171 0.01387 0.0
C260 C 1.05724 0.79785 0.01632 0.0
C261 C 0.99488 0.82263 0.00382 0.0
C262 C 0.99843 0.89868 0.00497 0.0
C263 C 0.06522 0.95773 0.01852 0.0
H264 H 0.17543 0.84383 0.04017 0.0
C265 C 0.12858 0.93343 0.03096 0.0
C266 C 0.12474 0.85669 0.03003 0.0
H267 H 0.18201 0.97418 0.0418 0.0
H268 H 0.96012 0.41116 0.99722 0.0
H269 H 0.96674 0.54144 0.99873 0.0
H270 H 0.20264 0.6019 0.04437 0.0
H271 H 0.19646 0.47318 0.04252 0.0
H272 H 0.15334 0.7073 0.03581 0.0
H273 H 0.98963 0.67733 1.00218 0.0
H274 H 0.94136 0.78203 0.99272 0.0
H275 H 0.94741 0.91092 0.99473 0.0
C276 C 0.37026 0.26398 0.35449 0.0
C277 C 0.32167 0.20939 0.35992 0.0
C278 C 0.44856 0.26239 0.35467 0.0
C279 C 0.48161 0.20502 0.35983 0.0
C280 C 0.43244 0.14947 0.36465 0.0
C281 C 0.35437 0.15181 0.36488 0.0
C282 C 0.56558 0.19963 0.36006 0.0
C283 C 0.62139 0.25145 0.35781 0.0
C284 C 0.70525 0.24607 0.35789 0.0
C285 C 0.75318 0.29987 0.35181 0.0
C286 C 0.83114 0.29764 0.3514 0.0
C287 C 0.86498 0.24196 0.35742 0.0
H288 H 0.70669 0.14861 0.36952 0.0
C289 C 0.81769 0.1891 0.3641 0.0
C290 C 0.73944 0.19064 0.36417 0.0
H291 H 0.84148 0.14661 0.36972 0.0
H292 H 0.34749 0.30794 0.34965 0.0
H293 H 0.48221 0.30609 0.35039 0.0
H294 H 0.4547 0.1039 0.36854 0.0
H295 H 0.31999 0.10887 0.36936 0.0
H296 H 0.58142 0.14951 0.3622 0.0
H297 H 0.60553 0.30141 0.35554 0.0
H298 H 0.72999 0.34391 0.34704 0.0
H299 H 0.86447 0.33905 0.34588 0.0
C300 C 0.80164 0.72698 0.66854 0.0
C301 C 0.77348 0.73928 0.64403 0.0
C302 C 0.7507 0.70766 0.68343 0.0
C303 C 0.6717 0.70035 0.67372 0.0
C304 C 0.64467 0.72182 0.65146 0.0
C305 C 0.69569 0.74088 0.63643 0.0
C306 C 0.61888 0.64805 0.67992 0.0
C307 C 0.62213 0.5747 0.66923 0.0
C308 C 0.5764 0.51952 0.6766 0.0
C309 C 0.6121 0.46837 0.68489 0.0
C310 C 0.57536 0.42792 0.69839 0.0
C311 C 0.50248 0.43796 0.70317 0.0
H312 H 0.47157 0.56137 0.67159 0.0
C313 C 0.46398 0.48337 0.69206 0.0
C314 C 0.50063 0.52362 0.6787 0.0
H315 H 0.40768 0.49226 0.69545 0.0
H316 H 0.86197 0.72687 0.67491 0.0
H317 H 0.77178 0.6905 0.70056 0.0
H318 H 0.58356 0.71607 0.64388 0.0
H319 H 0.67399 0.75294 0.61808 0.0
H320 H 0.57834 0.66888 0.69263 0.0
H321 H 0.66514 0.5565 0.65727 0.0
H322 H 0.67041 0.46409 0.68288 0.0
H323 H 0.60519 0.39194 0.70631 0.0
C324 C 0.87885 0.16527 0.69287 0.0
C325 C 0.90889 0.10793 0.67484 0.0
C326 C 0.79892 0.15827 0.69128 0.0
C327 C 0.7456 0.0926 0.67191 0.0
C328 C 0.77601 1.03469 0.65431 0.0
C329 C 0.85578 1.04241 0.65554 0.0
C330 C 0.65898 1.08055 0.66976 0.0
C331 C 0.6203 0.13472 0.6821 0.0
C332 C 0.53404 0.12392 0.68058 0.0
C333 C 0.50547 0.18523 0.69697 0.0
C334 C 0.42665 0.17933 0.69696 0.0
C335 C 0.37215 0.11225 0.6801 0.0
H336 H 0.4975 1.00756 0.65028 0.0
C337 C 0.40007 1.05109 0.66312 0.0
C338 C 0.47958 1.05641 0.66356 0.0
H339 H 0.36063 0.99871 0.64948 0.0
H340 H 0.91701 0.21598 0.70843 0.0
H341 H 0.77991 0.20422 0.70577 0.0
H342 H 0.73771 0.98274 0.63938 0.0
H343 H 0.87591 0.99612 0.6416 0.0
H344 H 0.62604 1.02378 0.65712 0.0
H345 H 0.65342 0.19159 0.69436 0.0
H346 H 0.54456 0.23854 0.71015 0.0
H347 H 0.40837 0.22815 0.71011 0.0
C348 C 0.64189 0.85736 0.9984 0.0
C349 C 0.71737 0.85527 0.99541 0.0
C350 C 0.60721 0.81274 0.01079 0.0
C351 C 0.64807 0.76568 0.01992 0.0
C352 C 0.72671 0.77189 0.02054 0.0
C353 C 0.76138 0.81641 0.00797 0.0
C354 C 0.60656 0.70166 0.02405 0.0
C355 C 0.54364 0.65628 0.00457 0.0
C356 C 0.4982 0.59628 0.00979 0.0
C357 C 0.42002 0.59563 0.00895 0.0
C358 C 0.38191 0.55809 0.02306 0.0
C359 C 0.42185 0.52004 0.03727 0.0
H360 H 0.59479 0.54854 0.0209 0.0
C361 C 0.49651 0.51177 0.0346 0.0
C362 C 0.53481 0.5499 0.0208 0.0
H363 H 0.52721 0.48132 0.04521 0.0
H364 H 0.60801 0.88838 0.98908 0.0
H365 H 0.54686 0.81003 0.01104 0.0
H366 H 0.75898 0.73671 0.02806 0.0
H367 H 0.82021 0.81569 0.00602 0.0
H368 H 0.62969 0.68966 0.04236 0.0
H369 H 0.52066 0.66887 0.98638 0.0
H370 H 0.39104 0.63049 1.00009 0.0
H371 H 0.32365 0.56352 0.02473 0.0
C372 C 0.97813 0.50198 0.33974 0.0
C373 C 0.9255 0.52635 0.35701 0.0
C374 C 1.01311 0.54958 0.32849 0.0
C375 C 0.99209 0.61888 0.33277 0.0
C376 C 0.92412 0.63109 0.34174 0.0
C377 C 0.88999 0.584 0.35359 0.0
C378 C 1.04915 0.68443 0.33564 0.0
C379 C 0.12057 0.6997 0.35195 0.0
C380 C 0.17319 0.77221 0.35944 0.0
C381 C 0.24775 0.77406 0.35491 0.0
C382 C 0.28668 0.83741 0.3519 0.0
C383 C 0.24936 0.8972 0.3524 0.0
H384 H 0.09067 0.84028 0.37336 0.0
C385 C 0.1851 0.9023 0.36507 0.0
C386 C 0.14594 0.8391 0.36766 0.0
H387 H 0.15694 0.94957 0.36916 0.0
H388 H 1.00213 0.45287 0.33798 0.0
H389 H 0.06279 0.53685 0.31983 0.0
H390 H 0.90421 0.6826 0.34351 0.0
H391 H 0.84318 0.59981 0.36346 0.0
H392 H 1.02936 0.72629 0.32825 0.0
H393 H 0.14077 0.65864 0.35971 0.0
H394 H 0.27196 0.72397 0.35047 0.0
H395 H 0.34067 0.83449 0.34547 0.0
C396 C 0.12183 0.25454 0.27158 0.0
C397 C 0.06451 0.26983 0.28697 0.0
C398 C 0.10892 0.24706 0.24328 0.0
C399 C 1.03761 0.25323 0.22948 0.0
C400 C 0.98064 0.2696 0.24503 0.0
C401 C 0.99442 0.27921 0.27368 0.0
C402 C 1.02049 0.2391 0.19864 0.0
C403 C 0.074 0.26051 0.18598 0.0
C404 C 1.05884 0.24925 0.15547 0.0
C405 C 0.09578 0.30521 0.14779 0.0
C406 C 0.08858 0.29478 0.11934 0.0
C407 C 1.04602 0.2269 0.09762 0.0
H408 H 0.98544 0.13751 0.13914 0.0
C409 C 1.00745 0.17118 0.10523 0.0
C410 C 1.01352 0.18235 0.1339 0.0
H411 H 0.97472 0.11803 0.08906 0.0
H412 H 0.17594 0.24583 0.28122 0.0
H413 H 0.15362 0.23299 0.23189 0.0
H414 H 0.92494 0.2739 0.23487 0.0
H415 H 0.94861 0.28896 0.28486 0.0
H416 H 0.96174 0.21401 0.18646 0.0
H417 H 0.13057 0.29224 0.19891 0.0
H418 H 0.13114 0.35716 0.16392 0.0
H419 H 0.11883 0.33916 0.11439 0.0
C420 C 0.16844 0.14813 0.43884 0.0
C421 C 0.11478 0.18507 0.42937 0.0
C422 C 0.1815 0.15297 0.46694 0.0
C423 C 0.14056 0.19451 0.48593 0.0
C424 C 0.08563 0.22936 0.47601 0.0
C425 C 0.07237 0.22416 0.44812 0.0
C426 C 0.15281 0.20335 0.51615 0.0
C427 C 0.17878 0.15268 0.52552 0.0
C428 C 0.17685 0.15298 0.55411 0.0
C429 C 0.16314 0.08307 0.55655 0.0
C430 C 0.1576 1.0787 0.58233 0.0
C431 C 0.16582 0.14353 0.60676 0.0
H432 H 0.20019 0.27443 0.5775 0.0
C433 C 0.18287 0.21453 0.60478 0.0
C434 C 0.18767 0.21927 0.57856 0.0
H435 H 0.19096 0.26605 0.62323 0.0
H436 H 0.20269 0.11863 0.42499 0.0
H437 H 0.2254 0.12633 0.47387 0.0
H438 H 1.05296 0.2613 0.48997 0.0
H439 H 1.03038 0.25325 0.44152 0.0
H440 H 0.13235 0.24896 0.53048 0.0
H441 H 0.19272 0.10332 0.51064 0.0
H442 H 0.15516 1.03107 0.53825 0.0
H443 H 0.14745 1.02385 0.58297 0.0
C444 C 0.18549 0.10863 0.7756 0.0
C445 C 0.12254 0.0961 0.7534 0.0
C446 C 0.17478 0.11932 0.80281 0.0
C447 C 0.10103 0.11936 0.80851 0.0
C448 C 1.03812 0.10665 0.78624 0.0
C449 C 1.04854 0.09372 0.75883 0.0
C450 C 0.08938 0.13668 0.83777 0.0
C451 C 0.12657 0.10959 0.85563 0.0
C452 C 0.11547 0.12636 0.88489 0.0
C453 C 0.10844 1.06794 0.89504 0.0
C454 C 0.10093 1.08253 0.92284 0.0
C455 C 0.10372 0.1565 0.94145 0.0
H456 H 0.12304 0.24661 0.8962 0.0
C457 C 0.11215 0.21539 0.93153 0.0
C458 C 0.11664 0.20029 0.90334 0.0
H459 H 0.11375 0.27281 0.94545 0.0
H460 H 0.24319 0.11145 0.77199 0.0
H461 H 0.22461 0.13037 0.81961 0.0
H462 H 0.98083 0.10703 0.7901 0.0
H463 H 0.99927 0.08543 0.74216 0.0
H464 H 1.04659 0.16963 0.8443 0.0
H465 H 0.16331 1.07029 0.84808 0.0
H466 H 0.10804 1.01066 0.88133 0.0
H467 H 0.09465 1.03621 0.92999 0.0
loop_
_geom_bond_atom_site_label_1
_geom_bond_atom_site_label_2
_geom_bond_distance
_geom_bond_site_symmetry_2
_ccdc_geom_bond_type
C0 C2 1.422 . S
C0 C4 1.415 . S
C0 N6 1.369 . S
C1 C2 1.421 . S
C1 C3 1.417 . S
C1 C13 1.422 1_554 S
C2 C0 1.422 . S
C2 C1 1.421 . S
C2 N12 1.359 . S
C3 C1 1.417 . S
C3 C5 1.329 . S
C3 H22 0.930 . S
C4 C0 1.415 . S
C4 C5 1.437 . S
C4 C8 1.413 . S
C5 C3 1.329 . S
C5 C4 1.437 . S
C5 H27 0.929 . S
N6 C0 1.369 . S
N6 C7 1.338 . S
N6 Gd11 2.622 . S
C7 N6 1.338 . S
C7 C9 1.378 . S
C7 H19 0.929 . S
C8 C4 1.413 . S
C8 C9 1.348 . S
C8 H24 0.931 . S
C9 C7 1.378 . S
C9 C8 1.348 . S
C9 H25 0.930 . S
Gd10 N30 2.649 . S
Gd10 N37 2.560 1_556 S
Gd10 O44 2.344 1_546 S
Gd10 O45 2.440 1_546 S
Gd10 O46 2.432 1_545 S
Gd10 O48 2.421 . S
Gd10 O49 2.397 1_556 S
Gd10 O53 2.276 1_556 S
Gd10 C63 2.792 1_545 S
Gd11 N6 2.622 . S
Gd11 N12 2.570 . S
Gd11 O43 2.386 . S
Gd11 O47 2.307 1_554 S
Gd11 O50 2.353 . S
Gd11 O51 2.468 . S
Gd11 O52 2.427 . S
Gd11 O54 2.388 . S
Gd11 C75 2.805 . S
N12 C2 1.359 . S
N12 Gd11 2.570 . S
N12 C14 1.343 1_554 S
C13 C1 1.422 1_556 S
C13 C15 1.321 . S
C13 H21 0.941 . S
C14 N12 1.343 1_556 S
C14 C15 1.390 . S
C14 H16 0.931 . S
C15 C13 1.321 . S
C15 C14 1.390 . S
C15 H17 0.930 . S
H16 C14 0.931 . S
H17 C15 0.930 . S
H18 C41 0.931 . S
H19 C7 0.929 . S
H20 C42 0.930 . S
H21 C13 0.941 . S
H22 C3 0.930 . S
H23 C32 0.929 . S
H24 C8 0.931 . S
H25 C9 0.930 . S
H26 C64 0.930 . S
H27 C5 0.929 . S
H28 C33 0.931 . S
H29 C34 0.930 . S
N30 Gd10 2.649 . S
N30 C31 1.369 . S
N30 C32 1.338 . S
C31 N30 1.369 . S
C31 C35 1.415 . S
C31 C38 1.436 . S
C32 H23 0.929 . S
C32 N30 1.338 . S
C32 C34 1.378 . S
C33 H28 0.931 . S
C33 C34 1.348 . S
C33 C35 1.413 . S
C34 H29 0.930 . S
C34 C32 1.378 . S
C34 C33 1.348 . S
C35 C31 1.415 . S
C35 C33 1.413 . S
C35 C65 1.437 . S
H36 C65 0.929 . S
N37 Gd10 2.560 1_554 S
N37 C38 1.348 1_554 S
N37 C41 1.343 . S
C38 C31 1.436 . S
C38 N37 1.348 1_556 S
C38 C40 1.418 1_556 S
C39 C40 1.422 . S
C39 C42 1.321 . S
C39 H66 0.931 . S
C40 C38 1.418 1_554 S
C40 C39 1.422 . S
C40 C64 1.417 1_554 S
C41 H18 0.931 . S
C41 N37 1.343 . S
C41 C42 1.390 . S
C42 H20 0.930 . S
C42 C39 1.321 . S
C42 C41 1.390 . S
O43 Gd11 2.386 . S
O43 C55 1.265 1_545 S
O44 Gd10 2.344 1_564 S
O44 C55 1.242 1_655 S
O45 Gd10 2.440 1_564 S
O45 C63 1.263 1_554 S
O46 Gd10 2.432 1_565 S
O46 C63 1.252 . S
O47 Gd11 2.307 1_556 S
O47 C56 1.261 . S
O48 Gd10 2.421 . S
O48 C56 1.252 1_655 S
O49 Gd10 2.397 1_554 S
O49 C67 1.265 . S
O50 Gd11 2.353 . S
O50 C67 1.242 1_455 S
O51 Gd11 2.468 . S
O51 C75 1.263 . S
O52 Gd11 2.427 . S
O52 C75 1.252 . S
O53 Gd10 2.276 1_554 S
O53 C68 1.253 1_655 S
O54 Gd11 2.388 . S
O54 C68 1.265 . S
C55 O43 1.265 1_565 S
C55 O44 1.242 1_455 S
C56 O47 1.261 . S
C56 O48 1.252 1_455 S
C57 C60 1.394 . S
C57 C62 1.370 1_556 S
C57 C63 1.500 . S
C58 C61 1.383 1_554 S
C58 C62 1.395 . S
C59 C60 1.396 . S
C59 C61 1.365 . S
C59 H76 0.929 . S
C60 C57 1.394 . S
C60 C59 1.396 . S
C60 H77 0.930 . S
C61 C58 1.383 1_556 S
C61 C59 1.365 . S
C61 H78 0.931 . S
C62 C57 1.370 1_554 S
C62 C58 1.395 . S
C62 H79 0.930 . S
C63 Gd10 2.792 1_565 S
C63 O45 1.263 1_556 S
C63 O46 1.252 . S
C63 C57 1.500 . S
C64 H26 0.930 . S
C64 C40 1.417 1_556 S
C64 C65 1.329 . S
C65 C35 1.437 . S
C65 H36 0.929 . S
C65 C64 1.329 . S
H66 C39 0.931 . S
C67 O49 1.265 . S
C67 O50 1.242 1_655 S
C68 O53 1.253 1_455 S
C68 O54 1.265 . S
C69 C72 1.394 . S
C69 C74 1.370 . S
C69 C75 1.500 . S
C70 C73 1.383 . S
C70 C74 1.395 . S
C71 C72 1.396 . S
C71 C73 1.365 . S
C71 H80 0.929 . S
C72 C69 1.394 . S
C72 C71 1.396 . S
C72 H81 0.930 . S
C73 C70 1.383 . S
C73 C71 1.365 . S
C73 H82 0.931 . S
C74 C69 1.370 . S
C74 C70 1.395 . S
C74 H83 0.930 1_554 S
C75 Gd11 2.805 . S
C75 O51 1.263 . S
C75 O52 1.252 . S
C75 C69 1.500 . S
H76 C59 0.929 . S
H77 C60 0.930 . S
H78 C61 0.931 . S
H79 C62 0.930 . S
H80 C71 0.929 . S
H81 C72 0.930 . S
H82 C73 0.931 . S
H83 C74 0.930 1_556 S
C84 C86 1.422 . S
C84 C88 1.415 . S
C84 N90 1.369 . S
C85 C86 1.421 . S
C85 C87 1.417 . S
C85 C97 1.422 . S
C86 C84 1.422 . S
C86 C85 1.421 . S
C86 N96 1.359 . S
C87 C85 1.417 . S
C87 C89 1.329 . S
C87 H106 0.930 . S
C88 C84 1.415 . S
C88 C89 1.437 . S
C88 C92 1.413 . S
C89 C87 1.329 . S
C89 C88 1.437 . S
C89 H111 0.929 . S
N90 C84 1.369 . S
N90 C91 1.338 . S
N90 Gd95 2.622 . S
C91 N90 1.338 . S
C91 C93 1.378 . S
C91 H103 0.929 . S
C92 C88 1.413 . S
C92 C93 1.348 . S
C92 H108 0.931 . S
C93 C91 1.378 . S
C93 C92 1.348 . S
C93 H109 0.930 . S
Gd94 N114 2.622 1_545 S
Gd94 N121 2.570 1_545 S
Gd94 O128 2.353 1_655 S
Gd94 O129 2.468 1_645 S
Gd94 O130 2.427 1_645 S
Gd94 O132 2.388 1_655 S
Gd94 O133 2.386 . S
Gd94 O137 2.307 1_655 S
Gd94 C147 2.805 1_645 S
Gd95 N90 2.622 . S
Gd95 N96 2.570 . S
Gd95 O127 2.386 . S
Gd95 O131 2.307 . S
Gd95 O134 2.353 1_455 S
Gd95 O135 2.468 . S
Gd95 O136 2.427 . S
Gd95 O138 2.388 . S
Gd95 C159 2.805 . S
N96 C86 1.359 . S
N96 Gd95 2.570 . S
N96 C98 1.343 . S
C97 C85 1.422 . S
C97 C99 1.321 . S
C97 H105 0.931 . S
C98 N96 1.343 . S
C98 C99 1.390 . S
C98 H100 0.931 . S
C99 C97 1.321 . S
C99 C98 1.390 . S
C99 H101 0.930 . S
H100 C98 0.931 . S
H101 C99 0.930 . S
H102 C125 0.931 . S
H103 C91 0.929 . S
H104 C126 0.930 . S
H105 C97 0.931 . S
H106 C87 0.930 . S
H107 C116 0.929 . S
H108 C92 0.931 . S
H109 C93 0.930 . S
H110 C148 0.930 . S
H111 C89 0.929 . S
H112 C117 0.931 . S
H113 C118 0.930 . S
N114 Gd94 2.622 1_565 S
N114 C115 1.369 . S
N114 C116 1.338 . S
C115 N114 1.369 . S
C115 C119 1.415 . S
C115 C122 1.422 . S
C116 H107 0.929 . S
C116 N114 1.338 . S
C116 C118 1.378 . S
C117 H112 0.931 . S
C117 C118 1.348 . S
C117 C119 1.413 . S
C118 H113 0.930 . S
C118 C116 1.378 . S
C118 C117 1.348 . S
C119 C115 1.415 . S
C119 C117 1.413 . S
C119 C149 1.437 . S
H120 C149 0.929 . S
N121 Gd94 2.570 1_565 S
N121 C122 1.359 . S
N121 C125 1.343 . S
C122 C115 1.422 . S
C122 N121 1.359 . S
C122 C124 1.421 . S
C123 C124 1.422 . S
C123 C126 1.321 . S
C123 H150 0.931 . S
C124 C122 1.421 . S
C124 C123 1.422 . S
C124 C148 1.417 . S
C125 H102 0.931 . S
C125 N121 1.343 . S
C125 C126 1.390 . S
C126 H104 0.930 . S
C126 C123 1.321 . S
C126 C125 1.390 . S
O127 Gd95 2.386 . S
O127 C139 1.265 . S
O128 Gd94 2.353 1_455 S
O128 C139 1.242 . S
O129 Gd94 2.468 1_465 S
O129 C147 1.263 . S
O130 Gd94 2.427 1_465 S
O130 C147 1.252 . S
O131 Gd95 2.307 . S
O131 C140 1.261 . S
O132 Gd94 2.388 1_455 S
O132 C140 1.252 . S
O133 Gd94 2.386 . S
O133 C151 1.265 . S
O134 Gd95 2.353 1_655 S
O134 C151 1.242 . S
O135 Gd95 2.468 . S
O135 C159 1.263 . S
O136 Gd95 2.427 . S
O136 C159 1.252 . S
O137 Gd94 2.307 1_455 S
O137 C152 1.261 . S
O138 Gd95 2.388 . S
O138 C152 1.252 . S
C139 O127 1.265 . S
C139 O128 1.242 . S
C140 O131 1.261 . S
C140 O132 1.252 . S
C141 C144 1.394 . S
C141 C146 1.370 . S
C141 C147 1.500 . S
C142 C145 1.383 . S
C142 C146 1.395 . S
C143 C144 1.396 . S
C143 C145 1.365 . S
C143 H160 0.929 . S
C144 C141 1.394 . S
C144 C143 1.396 . S
C144 H161 0.930 . S
C145 C142 1.383 . S
C145 C143 1.365 . S
C145 H162 0.931 . S
C146 C141 1.370 . S
C146 C142 1.395 . S
C146 H163 0.930 . S
C147 Gd94 2.805 1_465 S
C147 O129 1.263 . S
C147 O130 1.252 . S
C147 C141 1.500 . S
C148 H110 0.930 . S
C148 C124 1.417 . S
C148 C149 1.329 . S
C149 C119 1.437 . S
C149 H120 0.929 . S
C149 C148 1.329 . S
H150 C123 0.931 . S
C151 O133 1.265 . S
C151 O134 1.242 . S
C152 O137 1.261 . S
C152 O138 1.252 . S
C153 C156 1.394 . S
C153 C158 1.370 . S
C153 C159 1.500 . S
C154 C157 1.383 . S
C154 C158 1.395 1_655 S
C155 C156 1.396 . S
C155 C157 1.365 1_455 S
C155 H164 0.929 . S
C156 C153 1.394 . S
C156 C155 1.396 . S
C156 H165 0.930 . S
C157 C154 1.383 . S
C157 C155 1.365 1_655 S
C157 H166 0.931 . S
C158 C153 1.370 . S
C158 C154 1.395 1_455 S
C158 H167 0.930 . S
C159 Gd95 2.805 . S
C159 O135 1.263 . S
C159 O136 1.252 . S
C159 C153 1.500 . S
H160 C143 0.929 . S
H161 C144 0.930 . S
H162 C145 0.931 . S
H163 C146 0.930 . S
H164 C155 0.929 . S
H165 C156 0.930 . S
H166 C157 0.931 . S
H167 C158 0.930 . S
C168 C170 1.422 . S
C168 C172 1.415 . S
C168 N174 1.369 . S
C169 C170 1.421 . S
C169 C171 1.417 . S
C169 C181 1.422 . S
C170 C168 1.422 . S
C170 C169 1.421 . S
C170 N180 1.359 . S
C171 C169 1.417 . S
C171 C173 1.329 . S
C171 H190 0.930 . S
C172 C168 1.415 . S
C172 C173 1.437 . S
C172 C176 1.413 . S
C173 C171 1.329 . S
C173 C172 1.437 . S
C173 H195 0.929 . S
N174 C168 1.369 . S
N174 C175 1.338 . S
N174 Gd179 2.622 . S
C175 N174 1.338 . S
C175 C177 1.378 . S
C175 H187 0.929 . S
C176 C172 1.413 . S
C176 C177 1.348 . S
C176 H192 0.931 . S
C177 C175 1.378 . S
C177 C176 1.348 . S
C177 H193 0.930 . S
Gd178 N198 2.622 . S
Gd178 N205 2.570 . S
Gd178 O212 2.353 . S
Gd178 O213 2.468 . S
Gd178 O214 2.427 . S
Gd178 O216 2.388 . S
Gd178 O217 2.386 1_455 S
Gd178 O221 2.307 . S
Gd178 C231 2.805 . S
Gd179 N174 2.622 . S
Gd179 N180 2.570 . S
Gd179 O211 2.386 . S
Gd179 O215 2.307 . S
Gd179 O218 2.353 1_455 S
Gd179 O219 2.468 1_455 S
Gd179 O220 2.427 1_455 S
Gd179 O222 2.388 . S
Gd179 C243 2.805 1_455 S
N180 C170 1.359 . S
N180 Gd179 2.570 . S
N180 C182 1.343 . S
C181 C169 1.422 . S
C181 C183 1.321 . S
C181 H189 0.931 . S
C182 N180 1.343 . S
C182 C183 1.390 . S
C182 H184 0.931 . S
C183 C181 1.321 . S
C183 C182 1.390 . S
C183 H185 0.930 . S
H184 C182 0.931 . S
H185 C183 0.930 . S
H186 C209 0.931 . S
H187 C175 0.929 . S
H188 C210 0.930 . S
H189 C181 0.931 . S
H190 C171 0.930 . S
H191 C200 0.929 . S
H192 C176 0.931 . S
H193 C177 0.930 . S
H194 C232 0.930 . S
H195 C173 0.929 . S
H196 C201 0.931 . S
H197 C202 0.930 . S
N198 Gd178 2.622 . S
N198 C199 1.369 . S
N198 C200 1.338 . S
C199 N198 1.369 . S
C199 C203 1.415 . S
C199 C206 1.422 . S
C200 H191 0.929 . S
C200 N198 1.338 . S
C200 C202 1.378 . S
C201 H196 0.931 . S
C201 C202 1.348 . S
C201 C203 1.413 . S
C202 H197 0.930 . S
C202 C200 1.378 . S
C202 C201 1.348 . S
C203 C199 1.415 . S
C203 C201 1.413 . S
C203 C233 1.437 1_455 S
H204 C233 0.929 . S
N205 Gd178 2.570 . S
N205 C206 1.359 . S
N205 C209 1.343 . S
C206 C199 1.422 . S
C206 N205 1.359 . S
C206 C208 1.421 1_455 S
C207 C208 1.422 . S
C207 C210 1.321 . S
C207 H234 0.931 . S
C208 C206 1.421 1_655 S
C208 C207 1.422 . S
C208 C232 1.417 . S
C209 H186 0.931 . S
C209 N205 1.343 . S
C209 C210 1.390 1_455 S
C210 H188 0.930 . S
C210 C207 1.321 . S
C210 C209 1.390 1_655 S
O211 Gd179 2.386 . S
O211 C223 1.265 1_565 S
O212 Gd178 2.353 . S
O212 C223 1.242 . S
O213 Gd178 2.468 . S
O213 C231 1.263 . S
O214 Gd178 2.427 . S
O214 C231 1.252 . S
O215 Gd179 2.307 . S
O215 C224 1.261 1_565 S
O216 Gd178 2.388 . S
O216 C224 1.252 . S
O217 Gd178 2.386 1_655 S
O217 C235 1.265 . S
O218 Gd179 2.353 1_655 S
O218 C235 1.242 1_565 S
O219 Gd179 2.468 1_655 S
O219 C243 1.263 . S
O220 Gd179 2.427 1_655 S
O220 C243 1.252 . S
O221 Gd178 2.307 . S
O221 C236 1.261 . S
O222 Gd179 2.388 . S
O222 C236 1.252 1_565 S
C223 O211 1.265 1_545 S
C223 O212 1.242 . S
C224 O215 1.261 1_545 S
C224 O216 1.252 . S
C225 C228 1.394 . S
C225 C230 1.370 . S
C225 C231 1.500 . S
C226 C229 1.383 . S
C226 C230 1.395 . S
C227 C228 1.396 . S
C227 C229 1.365 . S
C227 H244 0.929 . S
C228 C225 1.394 . S
C228 C227 1.396 . S
C228 H245 0.930 . S
C229 C226 1.383 . S
C229 C227 1.365 . S
C229 H246 0.931 . S
C230 C225 1.370 . S
C230 C226 1.395 . S
C230 H247 0.930 . S
C231 Gd178 2.805 . S
C231 O213 1.263 . S
C231 O214 1.252 . S
C231 C225 1.500 . S
C232 H194 0.930 . S
C232 C208 1.417 . S
C232 C233 1.329 . S
C233 C203 1.437 1_655 S
C233 H204 0.929 . S
C233 C232 1.329 . S
H234 C207 0.931 . S
C235 O217 1.265 . S
C235 O218 1.242 1_545 S
C236 O221 1.261 . S
C236 O222 1.252 1_545 S
C237 C240 1.394 . S
C237 C242 1.370 . S
C237 C243 1.500 . S
C238 C241 1.383 . S
C238 C242 1.395 . S
C239 C240 1.396 . S
C239 C241 1.365 . S
C239 H248 0.929 . S
C240 C237 1.394 . S
C240 C239 1.396 . S
C240 H249 0.930 . S
C241 C238 1.383 . S
C241 C239 1.365 . S
C241 H250 0.931 . S
C242 C237 1.370 . S
C242 C238 1.395 . S
C242 H251 0.930 . S
C243 Gd179 2.805 1_655 S
C243 O219 1.263 . S
C243 O220 1.252 . S
C243 C237 1.500 . S
H244 C227 0.929 . S
H245 C228 0.930 . S
H246 C229 0.931 . S
H247 C230 0.930 . S
H248 C239 0.929 . S
H249 C240 0.930 . S
H250 C241 0.931 . S
H251 C242 0.930 . S
C252 C253 1.386 1_556 S
C252 C254 1.394 1_556 S
C252 H268 0.951 . S
C253 C252 1.386 1_554 S
C253 C257 1.383 1_655 S
C254 C252 1.394 1_554 S
C254 C255 1.427 . S
C254 H269 0.914 1_554 S
C255 C254 1.427 . S
C255 C256 1.375 1_655 S
C255 C258 1.481 . S
C256 C255 1.375 1_455 S
C256 C257 1.367 . S
C256 H270 0.951 . S
C257 C253 1.383 1_455 S
C257 C256 1.367 . S
C257 H271 0.950 . S
C258 C255 1.481 . S
C258 C259 1.297 . S
C258 H272 0.950 1_655 S
C259 C258 1.297 . S
C259 C260 1.479 . S
C259 H273 0.950 1_554 S
C260 C259 1.479 . S
C260 C261 1.375 1_554 S
C260 C266 1.404 1_655 S
C261 C260 1.375 1_556 S
C261 C262 1.369 . S
C261 H274 0.950 . S
C262 C261 1.369 . S
C262 C263 1.392 1_656 S
C262 H275 0.951 . S
C263 C262 1.392 1_454 S
C263 C265 1.384 . S
H264 C266 0.949 . S
C265 C263 1.384 . S
C265 C266 1.385 . S
C265 H267 0.950 . S
C266 C260 1.404 1_455 S
C266 H264 0.949 . S
C266 C265 1.385 . S
H267 C265 0.950 . S
H268 C252 0.951 . S
H269 C254 0.914 1_556 S
H270 C256 0.951 . S
H271 C257 0.950 . S
H272 C258 0.950 1_455 S
H273 C259 0.950 1_556 S
H274 C261 0.950 . S
H275 C262 0.951 . S
C276 C277 1.386 . S
C276 C278 1.383 . S
C276 H292 0.951 . S
C277 C276 1.386 . S
C277 C281 1.383 . S
C278 C276 1.383 . S
C278 C279 1.402 . S
C278 H293 0.951 . S
C279 C278 1.402 . S
C279 C280 1.375 . S
C279 C282 1.481 . S
C280 C279 1.375 . S
C280 C281 1.367 . S
C280 H294 0.951 . S
C281 C277 1.383 . S
C281 C280 1.367 . S
C281 H295 0.950 . S
C282 C279 1.481 . S
C282 C283 1.297 . S
C282 H296 0.950 . S
C283 C282 1.297 . S
C283 C284 1.479 . S
C283 H297 0.950 . S
C284 C283 1.479 . S
C284 C285 1.375 . S
C284 C290 1.404 . S
C285 C284 1.375 . S
C285 C286 1.369 . S
C285 H298 0.950 . S
C286 C285 1.369 . S
C286 C287 1.392 . S
C286 H299 0.951 . S
C287 C286 1.392 . S
C287 C289 1.384 . S
H288 C290 0.949 . S
C289 C287 1.384 . S
C289 C290 1.385 . S
C289 H291 0.950 . S
C290 C284 1.404 . S
C290 H288 0.949 . S
C290 C289 1.385 . S
H291 C289 0.950 . S
H292 C276 0.951 . S
H293 C278 0.951 . S
H294 C280 0.951 . S
H295 C281 0.950 . S
H296 C282 0.950 . S
H297 C283 0.950 . S
H298 C285 0.950 . S
H299 C286 0.951 . S
C300 C301 1.386 . S
C300 C302 1.383 . S
C300 H316 0.951 . S
C301 C300 1.386 . S
C301 C305 1.383 . S
C302 C300 1.383 . S
C302 C303 1.402 . S
C302 H317 0.951 . S
C303 C302 1.402 . S
C303 C304 1.375 . S
C303 C306 1.481 . S
C304 C303 1.375 . S
C304 C305 1.367 . S
C304 H318 0.951 . S
C305 C301 1.383 . S
C305 C304 1.367 . S
C305 H319 0.950 . S
C306 C303 1.481 . S
C306 C307 1.297 . S
C306 H320 0.950 . S
C307 C306 1.297 . S
C307 C308 1.479 . S
C307 H321 0.950 . S
C308 C307 1.479 . S
C308 C309 1.375 . S
C308 C314 1.404 . S
C309 C308 1.375 . S
C309 C310 1.369 . S
C309 H322 0.950 . S
C310 C309 1.369 . S
C310 C311 1.392 . S
C310 H323 0.951 . S
C311 C310 1.392 . S
C311 C313 1.384 . S
H312 C314 0.949 . S
C313 C311 1.384 . S
C313 C314 1.385 . S
C313 H315 0.950 . S
C314 C308 1.404 . S
C314 H312 0.949 . S
C314 C313 1.385 . S
H315 C313 0.950 . S
H316 C300 0.951 . S
H317 C302 0.951 . S
H318 C304 0.951 . S
H319 C305 0.950 . S
H320 C306 0.950 . S
H321 C307 0.950 . S
H322 C309 0.950 . S
H323 C310 0.951 . S
C324 C325 1.386 . S
C324 C326 1.383 . S
C324 H340 0.951 . S
C325 C324 1.386 . S
C325 C329 1.383 1_545 S
C326 C324 1.383 . S
C326 C327 1.402 1_545 S
C326 H341 0.951 . S
C327 C326 1.402 1_565 S
C327 C328 1.375 . S
C327 C330 1.481 . S
C328 C327 1.375 . S
C328 C329 1.367 . S
C328 H342 0.951 . S
C329 C325 1.383 1_565 S
C329 C328 1.367 . S
C329 H343 0.950 . S
C330 C327 1.481 . S
C330 C331 1.297 1_565 S
C330 H344 0.950 . S
C331 C330 1.297 1_545 S
C331 C332 1.479 . S
C331 H345 0.950 . S
C332 C331 1.479 . S
C332 C333 1.375 . S
C332 C338 1.404 1_545 S
C333 C332 1.375 . S
C333 C334 1.369 . S
C333 H346 0.950 . S
C334 C333 1.369 . S
C334 C335 1.392 . S
C334 H347 0.951 . S
C335 C334 1.392 . S
C335 C337 1.384 1_545 S
H336 C338 0.949 . S
C337 C335 1.384 1_565 S
C337 C338 1.385 . S
C337 H339 0.950 . S
C338 C332 1.404 1_565 S
C338 H336 0.949 . S
C338 C337 1.385 . S
H339 C337 0.950 . S
H340 C324 0.951 . S
H341 C326 0.951 . S
H342 C328 0.951 . S
H343 C329 0.950 . S
H344 C330 0.950 . S
H345 C331 0.950 . S
H346 C333 0.950 . S
H347 C334 0.951 . S
C348 C349 1.386 . S
C348 C350 1.383 . S
C348 H364 0.951 . S
C349 C348 1.386 . S
C349 C353 1.383 . S
C350 C348 1.383 . S
C350 C351 1.402 . S
C350 H365 0.951 . S
C351 C350 1.402 . S
C351 C352 1.375 . S
C351 C354 1.481 . S
C352 C351 1.375 . S
C352 C353 1.367 . S
C352 H366 0.951 . S
C353 C349 1.383 . S
C353 C352 1.367 . S
C353 H367 0.950 . S
C354 C351 1.481 . S
C354 C355 1.298 . S
C354 H368 0.950 . S
C355 C354 1.298 . S
C355 C356 1.481 1_554 S
C355 H369 0.948 1_554 S
C356 C355 1.481 1_556 S
C356 C357 1.375 . S
C356 C362 1.404 1_556 S
C357 C356 1.375 . S
C357 C358 1.369 . S
C357 H370 0.950 . S
C358 C357 1.369 . S
C358 C359 1.412 . S
C358 H371 0.951 . S
C359 C358 1.412 . S
C359 C361 1.387 1_556 S
H360 C362 0.949 . S
C361 C359 1.387 1_554 S
C361 C362 1.385 . S
C361 H363 0.950 . S
C362 C356 1.404 1_554 S
C362 H360 0.949 . S
C362 C361 1.385 . S
H363 C361 0.950 . S
H364 C348 0.951 . S
H365 C350 0.951 . S
H366 C352 0.951 . S
H367 C353 0.950 . S
H368 C354 0.950 . S
H369 C355 0.948 1_556 S
H370 C357 0.950 . S
H371 C358 0.951 . S
C372 C373 1.386 1_455 S
C372 C374 1.383 . S
C372 H388 0.951 . S
C373 C372 1.386 1_655 S
C373 C377 1.383 . S
C374 C372 1.383 . S
C374 C375 1.402 1_455 S
C374 H389 0.951 . S
C375 C374 1.402 1_655 S
C375 C376 1.375 . S
C375 C378 1.481 . S
C376 C375 1.375 . S
C376 C377 1.367 . S
C376 H390 0.951 . S
C377 C373 1.383 . S
C377 C376 1.367 . S
C377 H391 0.950 . S
C378 C375 1.481 . S
C378 C379 1.297 1_655 S
C378 H392 0.950 . S
C379 C378 1.297 1_455 S
C379 C380 1.479 . S
C379 H393 0.950 . S
C380 C379 1.479 . S
C380 C381 1.375 . S
C380 C386 1.404 . S
C381 C380 1.375 . S
C381 C382 1.369 . S
C381 H394 0.950 . S
C382 C381 1.369 . S
C382 C383 1.392 . S
C382 H395 0.951 . S
C383 C382 1.392 . S
C383 C385 1.384 . S
H384 C386 0.949 1_655 S
C385 C383 1.384 . S
C385 C386 1.385 . S
C385 H387 0.950 1_455 S
C386 C380 1.404 . S
C386 H384 0.949 1_455 S
C386 C385 1.385 . S
H387 C385 0.950 1_655 S
H388 C372 0.951 . S
H389 C374 0.951 . S
H390 C376 0.951 . S
H391 C377 0.950 . S
H392 C378 0.950 . S
H393 C379 0.950 . S
H394 C381 0.950 . S
H395 C382 0.951 . S
C396 C397 1.386 . S
C396 C398 1.383 . S
C396 H412 0.951 . S
C397 C396 1.386 . S
C397 C401 1.383 1_455 S
C398 C396 1.383 . S
C398 C399 1.402 1_455 S
C398 H413 0.951 . S
C399 C398 1.402 1_655 S
C399 C400 1.375 . S
C399 C402 1.481 . S
C400 C399 1.375 . S
C400 C401 1.367 . S
C400 H414 0.951 . S
C401 C397 1.383 1_655 S
C401 C400 1.367 . S
C401 H415 0.950 . S
C402 C399 1.481 . S
C402 C403 1.297 1_655 S
C402 H416 0.950 . S
C403 C402 1.297 1_455 S
C403 C404 1.479 . S
C403 H417 0.950 . S
C404 C403 1.479 . S
C404 C405 1.375 . S
C404 C410 1.404 1_455 S
C405 C404 1.375 . S
C405 C406 1.369 . S
C405 H418 0.950 . S
C406 C405 1.369 . S
C406 C407 1.392 1_455 S
C406 H419 0.951 . S
C407 C406 1.392 1_655 S
C407 C409 1.384 . S
H408 C410 0.949 . S
C409 C407 1.384 . S
C409 C410 1.385 . S
C409 H411 0.950 . S
C410 C404 1.404 1_655 S
C410 H408 0.949 . S
C410 C409 1.385 . S
H411 C409 0.950 . S
H412 C396 0.951 . S
H413 C398 0.951 . S
H414 C400 0.951 . S
H415 C401 0.950 . S
H416 C402 0.950 . S
H417 C403 0.950 . S
H418 C405 0.950 . S
H419 C406 0.951 . S
C420 C421 1.386 . S
C420 C422 1.383 . S
C420 H436 0.951 . S
C421 C420 1.386 . S
C421 C425 1.383 . S
C422 C420 1.383 . S
C422 C423 1.402 . S
C422 H437 0.951 . S
C423 C422 1.402 . S
C423 C424 1.375 . S
C423 C426 1.481 . S
C424 C423 1.375 . S
C424 C425 1.367 . S
C424 H438 0.951 . S
C425 C421 1.383 . S
C425 C424 1.367 . S
C425 H439 0.950 . S
C426 C423 1.481 . S
C426 C427 1.297 . S
C426 H440 0.950 . S
C427 C426 1.297 . S
C427 C428 1.479 . S
C427 H441 0.950 . S
C428 C427 1.479 . S
C428 C429 1.375 . S
C428 C434 1.404 . S
C429 C428 1.375 . S
C429 C430 1.369 1_545 S
C429 H442 0.950 1_545 S
C430 C429 1.369 1_565 S
C430 C431 1.392 1_565 S
C430 H443 0.951 . S
C431 C430 1.392 1_545 S
C431 C433 1.384 . S
H432 C434 0.949 . S
C433 C431 1.384 . S
C433 C434 1.385 . S
C433 H435 0.950 . S
C434 C428 1.404 . S
C434 H432 0.949 . S
C434 C433 1.385 . S
H435 C433 0.950 . S
H436 C420 0.951 . S
H437 C422 0.951 . S
H438 C424 0.951 . S
H439 C425 0.950 . S
H440 C426 0.950 . S
H441 C427 0.950 . S
H442 C429 0.950 1_565 S
H443 C430 0.951 . S
C444 C445 1.386 . S
C444 C446 1.383 . S
C444 H460 0.951 . S
C445 C444 1.386 . S
C445 C449 1.383 . S
C446 C444 1.383 . S
C446 C447 1.402 . S
C446 H461 0.951 . S
C447 C446 1.402 . S
C447 C448 1.374 . S
C447 C450 1.481 . S
C448 C447 1.374 . S
C448 C449 1.366 . S
C448 H462 0.953 1_455 S
C449 C445 1.383 . S
C449 C448 1.366 . S
C449 H463 0.950 1_455 S
C450 C447 1.481 . S
C450 C451 1.297 . S
C450 H464 0.950 1_455 S
C451 C450 1.297 . S
C451 C452 1.479 . S
C451 H465 0.950 . S
C452 C451 1.479 . S
C452 C453 1.375 . S
C452 C458 1.404 1_455 S
C453 C452 1.375 . S
C453 C454 1.369 . S
C453 H466 0.950 . S
C454 C453 1.369 . S
C454 C455 1.392 . S
C454 H467 0.951 . S
C455 C454 1.392 . S
C455 C457 1.384 1_455 S
H456 C458 0.949 . S
C457 C455 1.384 1_655 S
C457 C458 1.385 . S
C457 H459 0.950 . S
C458 C452 1.404 1_655 S
C458 H456 0.949 . S
C458 C457 1.385 . S
H459 C457 0.950 . S
H460 C444 0.951 . S
H461 C446 0.951 . S
H462 C448 0.953 1_655 S
H463 C449 0.950 1_655 S
H464 C450 0.950 1_655 S
H465 C451 0.950 . S
H466 C453 0.950 . S
H467 C454 0.951 . S
C253 C67 4.257 . S
C263 C55 4.227 . S
C277 C139 2.577 . S
C287 C151 2.575 . S
C301 C238 0.618 . S
C311 C226 0.515 . S
C325 C235 2.553 . S
C335 C223 2.529 . S
C349 C58 0.691 . S
C359 C70 0.852 1_556 S
C373 C154 1.357 . S
C383 C142 1.269 . S
C397 C140 1.503 . S
C407 C68 1.522 1_655 S
C421 C152 1.588 . S
C431 C236 1.595 . S
C445 C224 1.551 . S
C455 C56 1.590 . S
