# Generated by pormake.
# Topology uoa, (4)-cn, num edge types: 1
# Building blocks:
#     Node 0, Type 0, BuildingBlock: KUFVIS_clean_sbu_0, # of connection points: 4
#     Node 1, Type 0, BuildingBlock: KUFVIS_clean_sbu_0, # of connection points: 4
#     Node 2, Type 0, BuildingBlock: KUFVIS_clean_sbu_0, # of connection points: 4
#     Node 3, Type 0, BuildingBlock: KUFVIS_clean_sbu_0, # of connection points: 4
#     Node 4, Type 0, BuildingBlock: KUFVIS_clean_sbu_0, # of connection points: 4
#     Node 5, Type 0, BuildingBlock: KUFVIS_clean_sbu_0, # of connection points: 4
#     Node 6, Type 0, BuildingBlock: KUFVIS_clean_sbu_0, # of connection points: 4
#     Node 7, Type 0, BuildingBlock: KUFVIS_clean_sbu_0, # of connection points: 4
#     Node 8, Type 0, BuildingBlock: KUFVIS_clean_sbu_0, # of connection points: 4
#     Node 9, Type 0, BuildingBlock: KUFVIS_clean_sbu_0, # of connection points: 4
#     Node 10, Type 0, BuildingBlock: KUFVIS_clean_sbu_0, # of connection points: 4
#     Node 11, Type 0, BuildingBlock: KUFVIS_clean_sbu_0, # of connection points: 4
#     Node 12, Type 0, BuildingBlock: KUFVIS_clean_sbu_0, # of connection points: 4
#     Node 13, Type 0, BuildingBlock: KUFVIS_clean_sbu_0, # of connection points: 4
#     Node 14, Type 0, BuildingBlock: KUFVIS_clean_sbu_0, # of connection points: 4
#     Node 15, Type 0, BuildingBlock: KUFVIS_clean_sbu_0, # of connection points: 4
#     Node 16, Type 0, BuildingBlock: KUFVIS_clean_sbu_0, # of connection points: 4
#     Node 17, Type 0, BuildingBlock: KUFVIS_clean_sbu_0, # of connection points: 4
#     Node 18, Type 0, BuildingBlock: KUFVIS_clean_sbu_0, # of connection points: 4
#     Node 19, Type 0, BuildingBlock: KUFVIS_clean_sbu_0, # of connection points: 4
#     Node 20, Type 0, BuildingBlock: KUFVIS_clean_sbu_0, # of connection points: 4
#     Node 21, Type 0, BuildingBlock: KUFVIS_clean_sbu_0, # of connection points: 4
#     Node 22, Type 0, BuildingBlock: KUFVIS_clean_sbu_0, # of connection points: 4
#     Node 23, Type 0, BuildingBlock: KUFVIS_clean_sbu_0, # of connection points: 4
#     Node 24, Type 0, BuildingBlock: KUFVIS_clean_sbu_0, # of connection points: 4
#     Node 25, Type 0, BuildingBlock: KUFVIS_clean_sbu_0, # of connection points: 4
#     Node 26, Type 0, BuildingBlock: KUFVIS_clean_sbu_0, # of connection points: 4
#     Node 27, Type 0, BuildingBlock: KUFVIS_clean_sbu_0, # of connection points: 4
#     Node 28, Type 0, BuildingBlock: KUFVIS_clean_sbu_0, # of connection points: 4
#     Node 29, Type 0, BuildingBlock: KUFVIS_clean_sbu_0, # of connection points: 4
#     Node 30, Type 0, BuildingBlock: KUFVIS_clean_sbu_0, # of connection points: 4
#     Node 31, Type 0, BuildingBlock: KUFVIS_clean_sbu_0, # of connection points: 4
#     Edge 32, Type (0, 0), BuildingBlock: CIFDUS_clean_linker_0, # of connection points: 2
#     Edge 33, Type (0, 0), BuildingBlock: CIFDUS_clean_linker_0, # of connection points: 2
#     Edge 34, Type (0, 0), BuildingBlock: CIFDUS_clean_linker_0, # of connection points: 2
#     Edge 35, Type (0, 0), BuildingBlock: CIFDUS_clean_linker_0, # of connection points: 2
#     Edge 36, Type (0, 0), BuildingBlock: CIFDUS_clean_linker_0, # of connection points: 2
#     Edge 37, Type (0, 0), BuildingBlock: CIFDUS_clean_linker_0, # of connection points: 2
#     Edge 38, Type (0, 0), BuildingBlock: CIFDUS_clean_linker_0, # of connection points: 2
#     Edge 39, Type (0, 0), BuildingBlock: CIFDUS_clean_linker_0, # of connection points: 2
#     Edge 40, Type (0, 0), BuildingBlock: CIFDUS_clean_linker_0, # of connection points: 2
#     Edge 41, Type (0, 0), BuildingBlock: CIFDUS_clean_linker_0, # of connection points: 2
#     Edge 42, Type (0, 0), BuildingBlock: CIFDUS_clean_linker_0, # of connection points: 2
#     Edge 43, Type (0, 0), BuildingBlock: CIFDUS_clean_linker_0, # of connection points: 2
#     Edge 44, Type (0, 0), BuildingBlock: CIFDUS_clean_linker_0, # of connection points: 2
#     Edge 45, Type (0, 0), BuildingBlock: CIFDUS_clean_linker_0, # of connection points: 2
#     Edge 46, Type (0, 0), BuildingBlock: CIFDUS_clean_linker_0, # of connection points: 2
#     Edge 47, Type (0, 0), BuildingBlock: CIFDUS_clean_linker_0, # of connection points: 2
#     Edge 48, Type (0, 0), BuildingBlock: CIFDUS_clean_linker_0, # of connection points: 2
#     Edge 49, Type (0, 0), BuildingBlock: CIFDUS_clean_linker_0, # of connection points: 2
#     Edge 50, Type (0, 0), BuildingBlock: CIFDUS_clean_linker_0, # of connection points: 2
#     Edge 51, Type (0, 0), BuildingBlock: CIFDUS_clean_linker_0, # of connection points: 2
#     Edge 52, Type (0, 0), BuildingBlock: CIFDUS_clean_linker_0, # of connection points: 2
#     Edge 53, Type (0, 0), BuildingBlock: CIFDUS_clean_linker_0, # of connection points: 2
#     Edge 54, Type (0, 0), BuildingBlock: CIFDUS_clean_linker_0, # of connection points: 2
#     Edge 55, Type (0, 0), BuildingBlock: CIFDUS_clean_linker_0, # of connection points: 2
#     Edge 56, Type (0, 0), BuildingBlock: CIFDUS_clean_linker_0, # of connection points: 2
#     Edge 57, Type (0, 0), BuildingBlock: CIFDUS_clean_linker_0, # of connection points: 2
#     Edge 58, Type (0, 0), BuildingBlock: CIFDUS_clean_linker_0, # of connection points: 2
#     Edge 59, Type (0, 0), BuildingBlock: CIFDUS_clean_linker_0, # of connection points: 2
#     Edge 60, Type (0, 0), BuildingBlock: CIFDUS_clean_linker_0, # of connection points: 2
#     Edge 61, Type (0, 0), BuildingBlock: CIFDUS_clean_linker_0, # of connection points: 2
#     Edge 62, Type (0, 0), BuildingBlock: CIFDUS_clean_linker_0, # of connection points: 2
#     Edge 63, Type (0, 0), BuildingBlock: CIFDUS_clean_linker_0, # of connection points: 2
#     Edge 64, Type (0, 0), BuildingBlock: CIFDUS_clean_linker_0, # of connection points: 2
#     Edge 65, Type (0, 0), BuildingBlock: CIFDUS_clean_linker_0, # of connection points: 2
#     Edge 66, Type (0, 0), BuildingBlock: CIFDUS_clean_linker_0, # of connection points: 2
#     Edge 67, Type (0, 0), BuildingBlock: CIFDUS_clean_linker_0, # of connection points: 2
#     Edge 68, Type (0, 0), BuildingBlock: CIFDUS_clean_linker_0, # of connection points: 2
#     Edge 69, Type (0, 0), BuildingBlock: CIFDUS_clean_linker_0, # of connection points: 2
#     Edge 70, Type (0, 0), BuildingBlock: CIFDUS_clean_linker_0, # of connection points: 2
#     Edge 71, Type (0, 0), BuildingBlock: CIFDUS_clean_linker_0, # of connection points: 2
#     Edge 72, Type (0, 0), BuildingBlock: CIFDUS_clean_linker_0, # of connection points: 2
#     Edge 73, Type (0, 0), BuildingBlock: CIFDUS_clean_linker_0, # of connection points: 2
#     Edge 74, Type (0, 0), BuildingBlock: CIFDUS_clean_linker_0, # of connection points: 2
#     Edge 75, Type (0, 0), BuildingBlock: CIFDUS_clean_linker_0, # of connection points: 2
#     Edge 76, Type (0, 0), BuildingBlock: CIFDUS_clean_linker_0, # of connection points: 2
#     Edge 77, Type (0, 0), BuildingBlock: CIFDUS_clean_linker_0, # of connection points: 2
#     Edge 78, Type (0, 0), BuildingBlock: CIFDUS_clean_linker_0, # of connection points: 2
#     Edge 79, Type (0, 0), BuildingBlock: CIFDUS_clean_linker_0, # of connection points: 2
#     Edge 80, Type (0, 0), BuildingBlock: CIFDUS_clean_linker_0, # of connection points: 2
#     Edge 81, Type (0, 0), BuildingBlock: CIFDUS_clean_linker_0, # of connection points: 2
#     Edge 82, Type (0, 0), BuildingBlock: CIFDUS_clean_linker_0, # of connection points: 2
#     Edge 83, Type (0, 0), BuildingBlock: CIFDUS_clean_linker_0, # of connection points: 2
#     Edge 84, Type (0, 0), BuildingBlock: CIFDUS_clean_linker_0, # of connection points: 2
#     Edge 85, Type (0, 0), BuildingBlock: CIFDUS_clean_linker_0, # of connection points: 2
#     Edge 86, Type (0, 0), BuildingBlock: CIFDUS_clean_linker_0, # of connection points: 2
#     Edge 87, Type (0, 0), BuildingBlock: CIFDUS_clean_linker_0, # of connection points: 2
#     Edge 88, Type (0, 0), BuildingBlock: CIFDUS_clean_linker_0, # of connection points: 2
#     Edge 89, Type (0, 0), BuildingBlock: CIFDUS_clean_linker_0, # of connection points: 2
#     Edge 90, Type (0, 0), BuildingBlock: CIFDUS_clean_linker_0, # of connection points: 2
#     Edge 91, Type (0, 0), BuildingBlock: CIFDUS_clean_linker_0, # of connection points: 2
#     Edge 92, Type (0, 0), BuildingBlock: CIFDUS_clean_linker_0, # of connection points: 2
#     Edge 93, Type (0, 0), BuildingBlock: CIFDUS_clean_linker_0, # of connection points: 2
#     Edge 94, Type (0, 0), BuildingBlock: CIFDUS_clean_linker_0, # of connection points: 2
#     Edge 95, Type (0, 0), BuildingBlock: CIFDUS_clean_linker_0, # of connection points: 2
# Relax obj value: 0.183
# Max RMSD: 0.291
# Mean RMSD: 0.246
data_MOF--net-uoa--node1-KUFVIS_clean_sbu_0--edge1-CIFDUS_clean_linker_0
_symmetry_space_group_name_H-M    P1
_symmetry_Int_Tables_number       1
_symmetry_cell_setting            triclinic
loop_
_symmetry_equiv_pos_as_xyz
'x, y, z'
_cell_length_a     62.749292
_cell_length_b     70.164238
_cell_length_c     23.449173
_cell_angle_alpha  90.004393
_cell_angle_beta   89.959144
_cell_angle_gamma 89.973336
loop_
_atom_site_label
_atom_site_type_symbol
_atom_site_fract_x
_atom_site_fract_y
_atom_site_fract_z
_atom_type_partial_charge
Mn0 Mn 0.01605 0.08187 0.00433 0.0
Mn1 Mn 0.00428 0.12749 0.97019 0.0
C2 C 0.01957 0.09236 0.91165 0.0
C3 C 0.00466 0.05037 0.01711 0.0
C4 C 0.04515 0.11583 0.02973 0.0
O5 O 0.9996 0.09116 0.07316 0.0
O6 O 0.9913 0.12112 0.04549 0.0
C7 C 0.95786 0.12243 0.95364 0.0
N8 N 0.97719 0.12793 0.93296 0.0
C9 C 0.96175 0.13689 0.84292 0.0
C10 C 0.94165 0.13145 0.86341 0.0
C11 C 0.93972 0.12414 0.91896 0.0
C12 C 0.97925 0.13485 0.87945 0.0
H13 H 0.95633 0.11673 0.99622 0.0
C14 C 0.99094 0.10737 0.08139 0.0
O15 O 0.02183 0.05675 0.04153 0.0
O16 O 0.99397 0.06238 0.9864 0.0
N17 N 0.01562 0.13579 0.89854 0.0
C18 C 0.03623 0.13969 0.88452 0.0
C19 C 0.04099 0.14681 0.83 0.0
C20 C 0.02449 0.14997 0.79063 0.0
C21 C 0.00337 0.14608 0.80626 0.0
C22 C 0.99959 0.13917 0.86139 0.0
H23 H 0.04895 0.13726 0.91457 0.0
O24 O 0.02967 0.07724 0.92844 0.0
O25 O 0.00761 0.10068 0.94943 0.0
O26 O 0.04145 0.09793 0.03154 0.0
O27 O 0.03258 0.12806 0.00716 0.0
C28 C 0.98595 0.14853 0.76906 0.0
C29 C 0.96515 0.14392 0.78735 0.0
H30 H 0.92764 0.13268 0.83671 0.0
H31 H 0.92428 0.11981 0.93497 0.0
H32 H 0.05733 0.14978 0.81826 0.0
H33 H 0.02824 0.15528 0.74843 0.0
H34 H 0.9884 0.15372 0.72605 0.0
H35 H 0.95193 0.1456 0.75809 0.0
Mn36 Mn 0.15332 0.78753 0.27094 0.0
Mn37 Mn 0.10197 0.77404 0.2698 0.0
C38 C 0.13498 0.78621 0.18574 0.0
C39 C 0.18882 0.77771 0.26639 0.0
C40 C 0.11658 0.81328 0.30846 0.0
O41 O 0.14963 0.77471 0.34739 0.0
O42 O 0.11541 0.76492 0.34259 0.0
C43 C 0.10813 0.73226 0.26252 0.0
N44 N 0.10025 0.7487 0.23998 0.0
C45 C 0.08712 0.73208 0.15737 0.0
C46 C 0.09495 0.71495 0.17994 0.0
C47 C 0.1055 0.71505 0.23275 0.0
C48 C 0.08999 0.74876 0.18929 0.0
H49 H 0.11647 0.73227 0.30278 0.0
C50 C 0.13352 0.76601 0.36788 0.0
O51 O 0.18385 0.79421 0.28804 0.0
O52 O 0.17342 0.76723 0.24781 0.0
N53 N 0.08765 0.78162 0.20132 0.0
C54 C 0.08204 0.79947 0.18404 0.0
C55 C 0.07185 0.80192 0.13126 0.0
C56 C 0.06757 0.78601 0.09676 0.0
C57 C 0.07343 0.76777 0.11552 0.0
C58 C 0.08332 0.76618 0.16882 0.0
H59 H 0.08543 0.81174 0.21017 0.0
O60 O 0.1518 0.79682 0.19075 0.0
O61 O 0.12934 0.7771 0.23165 0.0
O62 O 0.13654 0.81099 0.2995 0.0
O63 O 0.10252 0.80045 0.2993 0.0
C64 C 0.07016 0.75115 0.08297 0.0
C65 C 0.077 0.73331 0.10389 0.0
H66 H 0.09313 0.70168 0.15686 0.0
H67 H 0.1117 0.7019 0.25029 0.0
H68 H 0.06741 0.81605 0.11706 0.0
H69 H 0.05989 0.78798 0.05583 0.0
H70 H 0.06259 0.75194 0.04154 0.0
H71 H 0.0746 0.72066 0.07821 0.0
Mn72 Mn 0.48613 0.91829 0.47538 0.0
Mn73 Mn 0.49523 0.87142 0.4537 0.0
C74 C 0.48438 0.90597 0.38465 0.0
C75 C 0.50083 0.94893 0.48422 0.0
C76 C 0.45293 0.88673 0.49505 0.0
O77 O 0.4989 0.90991 0.55017 0.0
O78 O 0.50395 0.87863 0.53293 0.0
C79 C 0.54229 0.87395 0.4566 0.0
N80 N 0.5241 0.86896 0.42873 0.0
C81 C 0.54401 0.85811 0.3472 0.0
C82 C 0.56297 0.863 0.3752 0.0
C83 C 0.5621 0.87098 0.43011 0.0
C84 C 0.52475 0.86133 0.37582 0.0
H85 H 0.54168 0.88022 0.49863 0.0
C86 C 0.50453 0.89327 0.56552 0.0
O87 O 0.48214 0.94497 0.50527 0.0
O88 O 0.5108 0.93514 0.45928 0.0
N89 N 0.48771 0.86198 0.37983 0.0
C90 C 0.46795 0.85838 0.3583 0.0
C91 C 0.46601 0.85061 0.30334 0.0
C92 C 0.48437 0.84641 0.27143 0.0
C93 C 0.50454 0.84981 0.29503 0.0
C94 C 0.50548 0.85743 0.35018 0.0
H95 H 0.45381 0.86159 0.38266 0.0
O96 O 0.47551 0.92218 0.39641 0.0
O97 O 0.49471 0.89773 0.42611 0.0
O98 O 0.45825 0.90436 0.49814 0.0
O99 O 0.46526 0.8734 0.4777 0.0
C100 C 0.52374 0.84623 0.26568 0.0
C101 C 0.54345 0.85042 0.29171 0.0
H102 H 0.57827 0.86081 0.3548 0.0
H103 H 0.57666 0.87489 0.45189 0.0
H104 H 0.45039 0.84795 0.28553 0.0
H105 H 0.4828 0.84061 0.22883 0.0
H106 H 0.52351 0.84047 0.22282 0.0
H107 H 0.55809 0.84783 0.26854 0.0
Mn108 Mn 0.35004 0.21335 0.76174 0.0
Mn109 Mn 0.40073 0.22851 0.77323 0.0
C110 C 0.36976 0.21992 0.68109 0.0
C111 C 0.31398 0.22095 0.75472 0.0
C112 C 0.38696 0.18768 0.79585 0.0
O113 O 0.35153 0.22308 0.84265 0.0
O114 O 0.38514 0.23473 0.84516 0.0
C115 C 0.39435 0.27029 0.77973 0.0
N116 N 0.40269 0.25483 0.75253 0.0
C117 C 0.41807 0.27465 0.67953 0.0
C118 C 0.40965 0.29076 0.70679 0.0
C119 C 0.39775 0.28857 0.75712 0.0
C120 C 0.41434 0.2568 0.70434 0.0
H121 H 0.38508 0.26869 0.81824 0.0
C122 C 0.36663 0.23209 0.86727 0.0
O123 O 0.32007 0.20413 0.77138 0.0
O124 O 0.32872 0.23324 0.74309 0.0
N125 N 0.41662 0.22369 0.70491 0.0
C126 C 0.42271 0.20665 0.68224 0.0
C127 C 0.43426 0.20632 0.63093 0.0
C128 C 0.43938 0.2235 0.6034 0.0
C129 C 0.43295 0.24086 0.62752 0.0
C130 C 0.42162 0.24031 0.67898 0.0
H131 H 0.41871 0.19343 0.70298 0.0
O132 O 0.35393 0.20802 0.67884 0.0
O133 O 0.3741 0.22653 0.73136 0.0
O134 O 0.36728 0.18965 0.78381 0.0
O135 O 0.40053 0.20122 0.79412 0.0
C136 C 0.43709 0.25869 0.60213 0.0
C137 C 0.42968 0.27557 0.62815 0.0
H138 H 0.41208 0.30488 0.68924 0.0
H139 H 0.39114 0.30094 0.7783 0.0
H140 H 0.43914 0.19286 0.61256 0.0
H141 H 0.44817 0.22318 0.56364 0.0
H142 H 0.44581 0.25956 0.56234 0.0
H143 H 0.43282 0.28918 0.60799 0.0
Mn144 Mn 0.01379 0.91554 0.49851 0.0
Mn145 Mn 1.00002 0.86948 0.51473 0.0
C146 C 0.01052 0.90281 0.58836 0.0
C147 C 0.00088 0.94682 0.48902 0.0
C148 C 0.04455 0.88217 0.48049 0.0
O149 O 0.0031 0.90823 0.42079 0.0
O150 O 0.99249 0.87785 0.43559 0.0
C151 C 0.95323 0.87437 0.50864 0.0
N152 N 0.97081 0.86852 0.53783 0.0
C153 C 0.94952 0.85933 0.61869 0.0
C154 C 0.93117 0.86509 0.58927 0.0
C155 C 0.93305 0.87266 0.53402 0.0
C156 C 0.96919 0.86118 0.59097 0.0
H157 H 0.95463 0.8804 0.46643 0.0
C158 C 0.99511 0.89256 0.40382 0.0
O159 O 0.0201 0.94242 0.4725 0.0
O160 O 0.98954 0.93315 0.5097 0.0
N161 N 0.00623 0.8597 0.58914 0.0
C162 C 0.02555 0.8557 0.61276 0.0
C163 C 0.02653 0.84849 0.66857 0.0
C164 C 0.00764 0.84544 0.69946 0.0
C165 C 0.98793 0.8495 0.67408 0.0
C166 C 0.98794 0.85643 0.61806 0.0
H167 H 0.04009 0.85818 0.58938 0.0
O168 O 0.02145 0.91827 0.58058 0.0
O169 O 0.00189 0.89545 0.5431 0.0
O170 O 0.04132 0.90024 0.48144 0.0
O171 O 0.03036 0.86968 0.49247 0.0
C172 C 0.9683 0.8473 0.70256 0.0
C173 C 0.94911 0.85221 0.67489 0.0
H174 H 0.91559 0.86396 0.6089 0.0
H175 H 0.91897 0.87726 0.51119 0.0
H176 H 0.04181 0.84544 0.68791 0.0
H177 H 0.00848 0.84013 0.74277 0.0
H178 H 0.96781 0.84207 0.746 0.0
H179 H 0.93415 0.85067 0.69749 0.0
Mn180 Mn 0.34342 0.79459 0.70472 0.0
Mn181 Mn 0.3942 0.77916 0.70165 0.0
C182 C 0.36252 0.79163 0.78836 0.0
C183 C 0.30729 0.78709 0.71204 0.0
C184 C 0.38113 0.81932 0.66851 0.0
O185 O 0.34577 0.78231 0.62681 0.0
O186 O 0.37978 0.77174 0.62863 0.0
C187 C 0.38598 0.73761 0.70373 0.0
N188 N 0.39495 0.75335 0.7278 0.0
C189 C 0.40821 0.73492 0.80678 0.0
C190 C 0.39926 0.7185 0.78258 0.0
C191 C 0.38809 0.71986 0.73084 0.0
C192 C 0.4058 0.75218 0.77748 0.0
H193 H 0.37718 0.7386 0.66429 0.0
C194 C 0.36153 0.77355 0.60439 0.0
O195 O 0.31341 0.8033 0.69065 0.0
O196 O 0.32202 0.77533 0.7278 0.0
N197 N 0.40946 0.7851 0.77012 0.0
C198 C 0.41612 0.80242 0.78943 0.0
C199 C 0.42704 0.80362 0.84154 0.0
C200 C 0.43097 0.78702 0.8733 0.0
C201 C 0.42406 0.76934 0.85246 0.0
C202 C 0.41349 0.769 0.79988 0.0
H203 H 0.41302 0.81522 0.7654 0.0
O204 O 0.34626 0.80301 0.78553 0.0
O205 O 0.36721 0.78268 0.74144 0.0
O206 O 0.36114 0.81749 0.67718 0.0
O207 O 0.39473 0.80599 0.676 0.0
C208 C 0.42691 0.75209 0.88228 0.0
C209 C 0.41899 0.7349 0.85946 0.0
H210 H 0.40067 0.70482 0.80364 0.0
H211 H 0.38101 0.70728 0.71209 0.0
H212 H 0.43233 0.81733 0.85731 0.0
H213 H 0.43922 0.78803 0.91376 0.0
H214 H 0.43498 0.75192 0.9231 0.0
H215 H 0.42106 0.72176 0.88312 0.0
Mn216 Mn 0.48481 0.08508 0.99779 0.0
Mn217 Mn 0.49575 0.13168 0.01745 0.0
C218 C 0.48348 0.09785 0.08807 0.0
C219 C 0.49869 0.05415 0.99 0.0
C220 C 0.45317 0.11742 0.97438 0.0
O221 O 0.49777 0.09288 0.92265 0.0
O222 O 0.50533 0.12379 0.93933 0.0
C223 C 0.54269 0.12777 0.01961 0.0
N224 N 0.52429 0.13338 0.04542 0.0
C225 C 0.54327 0.14346 0.12932 0.0
C226 C 0.56245 0.13792 0.10345 0.0
C227 C 0.56215 0.13003 0.04838 0.0
C228 C 0.52439 0.14096 0.09843 0.0
H229 H 0.54249 0.12152 0.97752 0.0
C230 C 0.50472 0.10908 0.90695 0.0
O231 O 0.48009 0.0584 0.96888 0.0
O232 O 0.50899 0.06782 0.01451 0.0
N233 N 0.48745 0.14158 0.0902 0.0
C234 C 0.46751 0.1458 0.1095 0.0
C235 C 0.46498 0.15364 0.16421 0.0
C236 C 0.48296 0.15718 0.19827 0.0
C237 C 0.50334 0.15306 0.17701 0.0
C238 C 0.50489 0.14549 0.12191 0.0
H239 H 0.45365 0.14305 0.08354 0.0
O240 O 0.47409 0.08182 0.0771 0.0
O241 O 0.49397 0.10559 0.04606 0.0
O242 O 0.45748 0.09955 0.97433 0.0
O243 O 0.4661 0.13048 0.99026 0.0
C244 C 0.52216 0.1559 0.20865 0.0
C245 C 0.54211 0.15106 0.18488 0.0
H246 H 0.57748 0.13953 0.12564 0.0
H247 H 0.57688 0.12562 0.02827 0.0
H248 H 0.4492 0.15683 0.18023 0.0
H249 H 0.48093 0.163 0.2407 0.0
H250 H 0.52146 0.1616 0.25155 0.0
H251 H 0.55644 0.15309 0.20989 0.0
Mn252 Mn 0.15613 0.21429 0.22011 0.0
Mn253 Mn 0.10463 0.22778 0.21433 0.0
C254 C 0.13638 0.21706 0.30273 0.0
C255 C 0.1919 0.22288 0.22961 0.0
C256 C 0.12066 0.18931 0.17352 0.0
O257 O 0.15372 0.22733 0.14355 0.0
O258 O 0.11972 0.23836 0.14653 0.0
C259 C 0.10743 0.26968 0.22728 0.0
N260 N 0.10074 0.25246 0.2473 0.0
C261 C 0.08421 0.26714 0.3289 0.0
C262 C 0.09104 0.28501 0.30934 0.0
C263 C 0.10266 0.28628 0.25825 0.0
C264 C 0.08924 0.25111 0.29592 0.0
H265 H 0.11646 0.27071 0.18818 0.0
C266 C 0.13821 0.23701 0.1232 0.0
O267 O 0.18648 0.20669 0.20693 0.0
O268 O 0.17665 0.23407 0.24583 0.0
N269 N 0.08939 0.2184 0.27933 0.0
C270 C 0.08478 0.20003 0.29359 0.0
C271 C 0.07363 0.19625 0.34426 0.0
C272 C 0.06735 0.21137 0.37976 0.0
C273 C 0.07231 0.23016 0.36427 0.0
C274 C 0.08336 0.23306 0.31309 0.0
H275 H 0.0897 0.18834 0.26669 0.0
O276 O 0.15265 0.20561 0.30082 0.0
O277 O 0.1315 0.22507 0.25473 0.0
O278 O 0.14004 0.19105 0.18887 0.0
O279 O 0.10659 0.20224 0.18 0.0
C280 C 0.06699 0.24609 0.39797 0.0
C281 C 0.0729 0.26457 0.38026 0.0
H282 H 0.08753 0.29783 0.33332 0.0
H283 H 0.10799 0.30002 0.2429 0.0
H284 H 0.06996 0.18171 0.35609 0.0
H285 H 0.05885 0.20838 0.41897 0.0
H286 H 0.05847 0.24429 0.4378 0.0
H287 H 0.06884 0.2767 0.40673 0.0
Mn288 Mn 0.95158 0.91145 0.00064 0.0
Mn289 Mn 0.97308 0.86786 0.01551 0.0
C290 C 0.9514 0.89696 0.08879 0.0
C291 C 0.95838 0.94428 0.99795 0.0
C292 C 0.93063 0.87563 0.95663 0.0
O293 O 0.96826 0.90706 0.92782 0.0
O294 O 0.987 0.88046 0.94914 0.0
C295 C 0.01715 0.87789 0.04877 0.0
N296 N 0.99841 0.86895 0.06061 0.0
C297 C 0.01183 0.85761 0.15055 0.0
C298 C 0.03134 0.86659 0.13915 0.0
C299 C 0.03399 0.87679 0.08808 0.0
C300 C 0.99569 0.85907 0.10958 0.0
H301 H 0.01918 0.88585 0.00971 0.0
C302 C 0.98227 0.89443 0.91627 0.0
O303 O 0.94166 0.93709 0.97313 0.0
O304 O 0.9709 0.93243 0.02367 0.0
N305 N 0.96089 0.85434 0.07847 0.0
C306 C 0.94066 0.84759 0.08458 0.0
C307 C 0.93512 0.83758 0.13423 0.0
C308 C 0.95042 0.83457 0.17702 0.0
C309 C 0.97116 0.84161 0.1697 0.0
C310 C 0.97582 0.85131 0.11901 0.0
H311 H 0.92882 0.84989 0.05193 0.0
O312 O 0.93873 0.9112 0.07884 0.0
O313 O 0.96393 0.89216 0.04716 0.0
O314 O 0.92862 0.89316 0.97053 0.0
O315 O 0.94688 0.86543 0.96929 0.0
C316 C 0.98727 0.83972 0.21116 0.0
C317 C 0.00759 0.84771 0.2016 0.0
H318 H 0.0443 0.86592 0.16959 0.0
H319 H 0.04895 0.88387 0.07915 0.0
H320 H 0.91906 0.83229 0.13954 0.0
H321 H 0.94601 0.82697 0.21548 0.0
H322 H 0.98411 0.83236 0.25089 0.0
H323 H 0.01974 0.84642 0.23417 0.0
Mn324 Mn 0.84218 0.23013 0.73797 0.0
Mn325 Mn 0.80867 0.21287 0.63831 0.0
C326 C 0.80822 0.24257 0.73154 0.0
C327 C 0.8579 0.22939 0.82725 0.0
C328 C 0.84469 0.2402 0.61224 0.0
O329 O 0.85621 0.20541 0.71299 0.0
O330 O 0.83196 0.1938 0.65133 0.0
C331 C 0.79041 0.18055 0.70296 0.0
N332 N 0.78764 0.19707 0.67344 0.0
C333 C 0.74957 0.19545 0.68517 0.0
C334 C 0.75201 0.17835 0.71541 0.0
C335 C 0.77252 0.17089 0.72445 0.0
C336 C 0.76798 0.2044 0.66462 0.0
H337 H 0.80617 0.17482 0.71006 0.0
C338 C 0.8497 0.19262 0.67839 0.0
O339 O 0.86742 0.23713 0.78399 0.0
O340 O 0.83963 0.22122 0.81804 0.0
N341 N 0.78553 0.22966 0.62087 0.0
C342 C 0.78606 0.24688 0.59402 0.0
C343 C 0.76692 0.25666 0.58375 0.0
C344 C 0.74743 0.24851 0.60024 0.0
C345 C 0.74727 0.23068 0.62722 0.0
C346 C 0.76685 0.22161 0.63645 0.0
H347 H 0.80099 0.25319 0.5811 0.0
O348 O 0.82337 0.25208 0.75612 0.0
O349 O 0.81331 0.22567 0.71228 0.0
O350 O 0.85072 0.24265 0.66335 0.0
O351 O 0.82946 0.22916 0.59778 0.0
C352 C 0.72849 0.22175 0.64649 0.0
C353 C 0.72964 0.20415 0.67547 0.0
H354 H 0.73826 0.17091 0.73229 0.0
H355 H 0.77453 0.15775 0.74799 0.0
H356 H 0.76719 0.27047 0.56323 0.0
H357 H 0.73271 0.25614 0.59241 0.0
H358 H 0.71311 0.22844 0.6401 0.0
H359 H 0.71513 0.19757 0.69088 0.0
Mn360 Mn 0.54593 0.09093 0.50364 0.0
Mn361 Mn 0.52844 0.13617 0.50838 0.0
C362 C 0.54565 0.10685 0.58955 0.0
C363 C 0.53478 0.05893 0.50554 0.0
C364 C 0.57187 0.12473 0.46125 0.0
O365 O 0.53208 0.09503 0.42712 0.0
O366 O 0.51694 0.12402 0.4375 0.0
C367 C 0.48258 0.12865 0.52708 0.0
N368 N 0.50118 0.13669 0.54476 0.0
C369 C 0.48468 0.1485 0.63046 0.0
C370 C 0.46528 0.14049 0.61294 0.0
C371 C 0.46424 0.13052 0.56104 0.0
C372 C 0.50236 0.14634 0.59457 0.0
H373 H 0.4818 0.12081 0.48749 0.0
C374 C 0.52106 0.10894 0.40858 0.0
O375 O 0.553 0.06365 0.48283 0.0
O376 O 0.52355 0.07264 0.52654 0.0
N377 N 0.53847 0.14954 0.57414 0.0
C378 C 0.55863 0.15548 0.58616 0.0
C379 C 0.56257 0.16525 0.63728 0.0
C380 C 0.54575 0.16888 0.6754 0.0
C381 C 0.5251 0.16273 0.66188 0.0
C382 C 0.5221 0.15323 0.60999 0.0
H383 H 0.57162 0.15262 0.55719 0.0
O384 O 0.55692 0.09149 0.58344 0.0
O385 O 0.53451 0.11193 0.54531 0.0
O386 O 0.57142 0.10697 0.47448 0.0
O387 O 0.55668 0.13645 0.47138 0.0
C388 C 0.50747 0.16529 0.69835 0.0
C389 C 0.48727 0.15818 0.68266 0.0
H390 H 0.45115 0.14176 0.63925 0.0
H391 H 0.44937 0.12419 0.54742 0.0
H392 H 0.57859 0.16981 0.64739 0.0
H393 H 0.54889 0.17623 0.71512 0.0
H394 H 0.50932 0.17251 0.73887 0.0
H395 H 0.47389 0.16003 0.71137 0.0
Mn396 Mn 0.65564 0.77519 0.24399 0.0
Mn397 Mn 0.69063 0.79801 0.15862 0.0
C398 C 0.69098 0.76563 0.24268 0.0
C399 C 0.63813 0.77234 0.33187 0.0
C400 C 0.65657 0.77089 0.11501 0.0
O401 O 0.64035 0.7998 0.22238 0.0
O402 O 0.66623 0.81545 0.1744 0.0
C403 C 0.70608 0.82828 0.23592 0.0
N404 N 0.71018 0.81304 0.2017 0.0
C405 C 0.74794 0.81585 0.21761 0.0
C406 C 0.74414 0.83164 0.25286 0.0
C407 C 0.72311 0.83786 0.26213 0.0
C408 C 0.73035 0.80698 0.1923 0.0
H409 H 0.68993 0.83305 0.24307 0.0
C410 C 0.64727 0.81429 0.19478 0.0
O411 O 0.63015 0.76513 0.28557 0.0
O412 O 0.65569 0.78193 0.32647 0.0
N413 N 0.71479 0.78262 0.13953 0.0
C414 C 0.7155 0.76627 0.10824 0.0
C415 C 0.73527 0.75762 0.09722 0.0
C416 C 0.75407 0.76593 0.11811 0.0
C417 C 0.75293 0.78281 0.15 0.0
C418 C 0.73278 0.79084 0.15937 0.0
H419 H 0.70109 0.75984 0.09207 0.0
O420 O 0.67619 0.7541 0.26011 0.0
O421 O 0.68457 0.78243 0.22635 0.0
O422 O 0.64988 0.76499 0.16325 0.0
O423 O 0.67147 0.7831 0.10937 0.0
C424 C 0.77091 0.79176 0.17399 0.0
C425 C 0.76842 0.80827 0.20775 0.0
H426 H 0.75721 0.83898 0.2735 0.0
H427 H 0.72006 0.84998 0.28948 0.0
H428 H 0.73601 0.74455 0.0728 0.0
H429 H 0.76927 0.75914 0.10984 0.0
H430 H 0.7867 0.78588 0.16754 0.0
H431 H 0.78233 0.81483 0.22676 0.0
Mn432 Mn 0.95896 0.08967 0.48996 0.0
Mn433 Mn 0.97598 0.13494 0.4964 0.0
C434 C 0.9631 0.1067 0.40688 0.0
C435 C 0.9703 0.05777 0.48638 0.0
C436 C 0.93112 0.12246 0.52993 0.0
O437 O 0.96989 0.09259 0.5702 0.0
O438 O 0.98564 0.12155 0.56721 0.0
C439 C 0.02261 0.12933 0.48835 0.0
N440 N 0.0043 0.13691 0.467 0.0
C441 C 0.02319 0.15114 0.38845 0.0
C442 C 0.04228 0.14359 0.4098 0.0
C443 C 0.04198 0.13263 0.45995 0.0
C444 C 0.00442 0.14757 0.41897 0.0
H445 H 0.02241 0.12078 0.52667 0.0
C446 C 0.98078 0.10593 0.59261 0.0
O447 O 0.95124 0.06211 0.50427 0.0
O448 O 0.9823 0.0718 0.47121 0.0
N449 N 0.96762 0.14907 0.43025 0.0
C450 C 0.94765 0.15409 0.41312 0.0
C451 C 0.94503 0.16443 0.36234 0.0
C452 C 0.96295 0.16952 0.32979 0.0
C453 C 0.98334 0.16417 0.34826 0.0
C454 C 0.98498 0.15397 0.39942 0.0
H455 H 0.93382 0.15011 0.43778 0.0
O456 O 0.95135 0.09149 0.40773 0.0
O457 O 0.97207 0.11119 0.45498 0.0
O458 O 0.93217 0.10507 0.51332 0.0
O459 O 0.94664 0.13423 0.52666 0.0
C460 C 0.00207 0.16817 0.31728 0.0
C461 C 0.02198 0.16168 0.33739 0.0
H462 H 0.05722 0.14595 0.38773 0.0
H463 H 0.05663 0.12667 0.47652 0.0
H464 H 0.92922 0.16834 0.34814 0.0
H465 H 0.96084 0.17738 0.29043 0.0
H466 H 0.0013 0.17601 0.27755 0.0
H467 H 0.03621 0.16462 0.31277 0.0
Mn468 Mn 0.67025 0.22675 0.29308 0.0
Mn469 Mn 0.70402 0.21488 0.39902 0.0
C470 C 0.70197 0.24298 0.30266 0.0
C471 C 0.65805 0.22314 0.20036 0.0
C472 C 0.66414 0.23851 0.4166 0.0
O473 O 0.65894 0.20105 0.32005 0.0
O474 O 0.68355 0.19354 0.38628 0.0
C475 C 0.72724 0.18367 0.34115 0.0
N476 N 0.72746 0.20078 0.36854 0.0
C477 C 0.76565 0.2028 0.36119 0.0
C478 C 0.76585 0.18514 0.33319 0.0
C479 C 0.74656 0.17556 0.32301 0.0
C480 C 0.74591 0.21015 0.37836 0.0
H481 H 0.71242 0.17631 0.33319 0.0
C482 C 0.66657 0.18986 0.35792 0.0
O483 O 0.64597 0.23038 0.23981 0.0
O484 O 0.67656 0.21676 0.21594 0.0
N485 N 0.72462 0.23411 0.41656 0.0
C486 C 0.72153 0.25144 0.4415 0.0
C487 C 0.73917 0.26317 0.45271 0.0
C488 C 0.75979 0.25686 0.43889 0.0
C489 C 0.7626 0.23883 0.41428 0.0
C490 C 0.74442 0.22776 0.40412 0.0
H491 H 0.70572 0.25634 0.45229 0.0
O492 O 0.68629 0.25038 0.27439 0.0
O493 O 0.69883 0.22596 0.32344 0.0
O494 O 0.65834 0.2394 0.36469 0.0
O495 O 0.68065 0.22959 0.434 0.0
C496 C 0.78267 0.23155 0.3984 0.0
C497 C 0.7842 0.21355 0.37186 0.0
H498 H 0.78071 0.17887 0.31892 0.0
H499 H 0.74659 0.16197 0.30119 0.0
H500 H 0.73688 0.27703 0.47199 0.0
H501 H 0.77334 0.26599 0.44729 0.0
H502 H 0.79701 0.2398 0.40562 0.0
H503 H 0.79969 0.20823 0.35905 0.0
Mn504 Mn 0.54363 0.91234 0.96939 0.0
Mn505 Mn 0.52838 0.86646 0.96249 0.0
C506 C 0.54452 0.89675 0.8831 0.0
C507 C 0.53175 0.94403 0.96843 0.0
C508 C 0.57072 0.87938 0.01252 0.0
O509 O 0.52935 0.90752 0.04496 0.0
O510 O 0.51603 0.87786 0.03347 0.0
C511 C 0.48224 0.87201 0.94298 0.0
N512 N 0.50133 0.8649 0.92542 0.0
C513 C 0.48574 0.85238 0.83949 0.0
C514 C 0.46585 0.85943 0.85687 0.0
C515 C 0.4641 0.8693 0.90882 0.0
C516 C 0.50319 0.85533 0.87561 0.0
H517 H 0.4809 0.87974 0.98266 0.0
C518 C 0.51905 0.89307 0.06273 0.0
O519 O 0.54989 0.9395 0.99176 0.0
O520 O 0.52091 0.93028 0.94617 0.0
N521 N 0.5394 0.85379 0.89648 0.0
C522 C 0.55994 0.84898 0.88435 0.0
C523 C 0.56459 0.83962 0.83289 0.0
C524 C 0.54808 0.83518 0.7947 0.0
C525 C 0.52704 0.8402 0.80827 0.0
C526 C 0.52335 0.84939 0.86035 0.0
H527 H 0.57269 0.85245 0.91347 0.0
O528 O 0.55522 0.91238 0.89024 0.0
O529 O 0.53328 0.89113 0.92662 0.0
O530 O 0.5695 0.8971 -0.00052 0.0
O531 O 0.55635 0.86708 0.00058 0.0
C532 C 0.50966 0.83684 0.77159 0.0
C533 C 0.48902 0.84292 0.7872 0.0
H534 H 0.45187 0.85751 0.83041 0.0
H535 H 0.44884 0.87488 0.92235 0.0
H536 H 0.58089 0.83594 0.8225 0.0
H537 H 0.55177 0.82809 0.75486 0.0
H538 H 0.51204 0.82982 0.73094 0.0
H539 H 0.47584 0.84048 0.75832 0.0
Mn540 Mn 0.82877 0.77614 0.78768 0.0
Mn541 Mn 0.79561 0.79042 0.89213 0.0
C542 C 0.79669 0.76103 0.79909 0.0
C543 C 0.84079 0.77904 0.69494 0.0
C544 C 0.8345 0.76561 0.91193 0.0
O545 O 0.84115 0.80147 0.81243 0.0
O546 O 0.8167 0.81109 0.87662 0.0
C547 C 0.77331 0.82129 0.83032 0.0
N548 N 0.77259 0.80462 0.85997 0.0
C549 C 0.73437 0.80328 0.85236 0.0
C550 C 0.73468 0.82051 0.82203 0.0
C551 C 0.75424 0.82952 0.81086 0.0
C552 C 0.75387 0.79578 0.87072 0.0
H553 H 0.78833 0.82821 0.82153 0.0
C554 C 0.83395 0.81357 0.8482 0.0
O555 O 0.85274 0.77149 0.73418 0.0
O556 O 0.82254 0.78596 0.71067 0.0
N557 N 0.77445 0.77195 0.91224 0.0
C558 C 0.777 0.75505 0.94004 0.0
C559 C 0.75901 0.74401 0.95336 0.0
C560 C 0.73859 0.75054 0.93846 0.0
C561 C 0.73634 0.76811 0.91064 0.0
C562 C 0.75484 0.77855 0.89881 0.0
H563 H 0.79265 0.74999 0.95174 0.0
O564 O 0.81194 0.75291 0.77081 0.0
O565 O 0.80043 0.77816 0.81819 0.0
O566 O 0.84015 0.76368 0.8601 0.0
O567 O 0.81856 0.77555 0.92834 0.0
C568 C 0.71649 0.77555 0.89348 0.0
C569 C 0.71551 0.79311 0.86428 0.0
H570 H 0.72002 0.82686 0.80676 0.0
H571 H 0.75462 0.84277 0.78723 0.0
H572 H 0.76087 0.7305 0.97505 0.0
H573 H 0.72476 0.74193 0.94852 0.0
H574 H 0.70192 0.76777 0.90186 0.0
H575 H 0.70019 0.79856 0.85058 0.0
Mn576 Mn 0.51517 0.58736 0.49946 0.0
Mn577 Mn 0.50344 0.63267 0.46326 0.0
C578 C 0.51938 0.59726 0.40699 0.0
C579 C 0.5017 0.55655 0.51255 0.0
C580 C 0.54465 0.62126 0.52162 0.0
O581 O 0.4991 0.59709 0.56765 0.0
O582 O 0.49074 0.62693 0.53971 0.0
C583 C 0.45704 0.62695 0.44831 0.0
N584 N 0.47622 0.63243 0.42661 0.0
C585 C 0.46056 0.63915 0.3351 0.0
C586 C 0.44061 0.63373 0.35663 0.0
C587 C 0.43886 0.62758 0.41346 0.0
C588 C 0.4781 0.63828 0.37191 0.0
H589 H 0.45567 0.62203 0.49179 0.0
C590 C 0.49061 0.61331 0.5761 0.0
O591 O 0.51939 0.56182 0.53697 0.0
O592 O 0.49214 0.56912 0.48153 0.0
N593 N 0.51443 0.64044 0.39069 0.0
C594 C 0.53488 0.6448 0.37618 0.0
C595 C 0.53941 0.65108 0.3206 0.0
C596 C 0.52286 0.65292 0.28065 0.0
C597 C 0.50188 0.64867 0.29684 0.0
C598 C 0.49831 0.64272 0.35306 0.0
H599 H 0.54764 0.64339 0.40668 0.0
O600 O 0.5289 0.58195 0.42457 0.0
O601 O 0.50727 0.60589 0.44385 0.0
O602 O 0.54099 0.60332 0.52552 0.0
O603 O 0.53186 0.63335 0.49914 0.0
C604 C 0.48443 0.64987 0.25923 0.0
C605 C 0.46379 0.64507 0.2783 0.0
H606 H 0.42657 0.6341 0.32979 0.0
H607 H 0.42354 0.62325 0.43028 0.0
H608 H 0.55564 0.65438 0.30849 0.0
H609 H 0.52646 0.65754 0.23764 0.0
H610 H 0.48673 0.65426 0.21537 0.0
H611 H 0.45054 0.64582 0.24878 0.0
Mn612 Mn 0.65161 0.28096 0.79677 0.0
Mn613 Mn 0.59902 0.27127 0.79408 0.0
C614 C 0.63383 0.27788 0.71125 0.0
C615 C 0.68682 0.26962 0.79504 0.0
C616 C 0.61656 0.31039 0.82139 0.0
O617 O 0.64631 0.27045 0.87569 0.0
O618 O 0.61082 0.26492 0.87091 0.0
C619 C 0.60141 0.22933 0.80573 0.0
N620 N 0.59529 0.24497 0.77545 0.0
C621 C 0.58072 0.22541 0.70076 0.0
C622 C 0.5868 0.20912 0.73131 0.0
C623 C 0.59717 0.21109 0.784 0.0
C624 C 0.58519 0.24323 0.72481 0.0
H625 H 0.60954 0.23074 0.84605 0.0
C626 C 0.62876 0.2647 0.89722 0.0
O627 O 0.68246 0.28671 0.81315 0.0
O628 O 0.67088 0.2592 0.77948 0.0
N629 N 0.58615 0.27637 0.7216 0.0
C630 C 0.58242 0.2935 0.69609 0.0
C631 C 0.57265 0.29401 0.64227 0.0
C632 C 0.56684 0.27693 0.61521 0.0
C633 C 0.57079 0.25947 0.64235 0.0
C634 C 0.58038 0.25986 0.69625 0.0
H635 H 0.58698 0.30664 0.71652 0.0
O636 O 0.65116 0.28792 0.71448 0.0
O637 O 0.62711 0.27069 0.75896 0.0
O638 O 0.63636 0.30608 0.81869 0.0
O639 O 0.60148 0.2986 0.81201 0.0
C640 C 0.56587 0.24169 0.61769 0.0
C641 C 0.57083 0.22467 0.64688 0.0
H642 H 0.5838 0.19503 0.71455 0.0
H643 H 0.602 0.19856 0.80765 0.0
H644 H 0.56966 0.30755 0.6216 0.0
H645 H 0.55946 0.27738 0.57349 0.0
H646 H 0.55846 0.24094 0.57605 0.0
H647 H 0.56718 0.21108 0.62722 0.0
Mn648 Mn 0.98319 0.41576 0.97234 0.0
Mn649 Mn 0.99245 0.36939 0.94303 0.0
C650 C 0.97862 0.40433 0.8812 0.0
C651 C 0.99793 0.44646 0.97935 0.0
C652 C 0.95224 0.38345 0.00165 0.0
O653 O 0.99915 0.40661 0.04169 0.0
O654 O 0.00594 0.37602 0.01752 0.0
C655 C 0.03901 0.37259 0.92513 0.0
N656 N 0.0194 0.36765 0.90523 0.0
C657 C 0.03405 0.35825 0.8146 0.0
C658 C 0.05444 0.36308 0.83431 0.0
C659 C 0.05691 0.37032 0.88978 0.0
C660 C 0.01682 0.36075 0.85185 0.0
H661 H 0.04096 0.37832 0.96755 0.0
C662 C 0.00701 0.39021 0.05178 0.0
O663 O 0.98024 0.44215 0.00545 0.0
O664 O 0.00691 0.43296 0.95063 0.0
N665 N 0.98053 0.36091 0.8723 0.0
C666 C 0.95971 0.35763 0.85908 0.0
C667 C 0.95444 0.35066 0.80476 0.0
C668 C 0.97061 0.34705 0.76472 0.0
C669 C 0.99194 0.35031 0.77954 0.0
C670 C 0.99625 0.35704 0.83457 0.0
H671 H 0.94725 0.36043 0.88964 0.0
O672 O 0.96962 0.42017 0.89642 0.0
O673 O 0.99013 0.39593 0.91972 0.0
O674 O 0.95671 0.40129 0.00199 0.0
O675 O 0.96429 0.37053 0.98045 0.0
C676 C 0.00907 0.34742 0.7416 0.0
C677 C 0.03011 0.35142 0.75908 0.0
H678 H 0.06826 0.36147 0.80704 0.0
H679 H 0.07258 0.37421 0.90517 0.0
H680 H 0.93794 0.34817 0.79366 0.0
H681 H 0.96646 0.34188 0.72264 0.0
H682 H 0.00621 0.34236 0.69864 0.0
H683 H 0.04311 0.34941 0.72926 0.0
Mn684 Mn 0.84463 0.71808 0.29493 0.0
Mn685 Mn 0.89614 0.73161 0.28708 0.0
C686 C 0.86103 0.72282 0.20808 0.0
C687 C 0.8083 0.72549 0.29555 0.0
C688 C 0.8825 0.69164 0.31853 0.0
O689 O 0.84991 0.72928 0.37314 0.0
O690 O 0.88479 0.73731 0.36452 0.0
C691 C 0.89073 0.77337 0.29814 0.0
N692 N 0.89754 0.75803 0.26749 0.0
C693 C 0.90976 0.77821 0.19121 0.0
C694 C 0.90296 0.79421 0.22211 0.0
C695 C 0.89341 0.79177 0.27579 0.0
C696 C 0.90691 0.76023 0.21597 0.0
H697 H 0.88325 0.77158 0.33927 0.0
C698 C 0.86728 0.73624 0.39262 0.0
O699 O 0.81519 0.70918 0.31416 0.0
O700 O 0.82247 0.7377 0.27891 0.0
N701 N 0.90832 0.72709 0.21339 0.0
C702 C 0.91256 0.71014 0.18738 0.0
C703 C 0.92139 0.71006 0.13234 0.0
C704 C 0.92572 0.72737 0.1046 0.0
C705 C 0.92117 0.74464 0.13218 0.0
C706 C 0.91255 0.74384 0.18722 0.0
H707 H 0.909 0.69681 0.20824 0.0
O708 O 0.84499 0.71122 0.21223 0.0
O709 O 0.86756 0.73027 0.25547 0.0
O710 O 0.86243 0.69455 0.31657 0.0
O711 O 0.89637 0.70432 0.30641 0.0
C712 C 0.92446 0.7626 0.10676 0.0
C713 C 0.9188 0.77938 0.1363 0.0
H714 H 0.90478 0.80842 0.20485 0.0
H715 H 0.88804 0.80405 0.29976 0.0
H716 H 0.92473 0.69667 0.1112 0.0
H717 H 0.93235 0.72724 0.06194 0.0
H718 H 0.93111 0.76367 0.06424 0.0
H719 H 0.92119 0.79309 0.11606 0.0
Mn720 Mn 0.52224 0.4201 0.00443 0.0
Mn721 Mn 0.50838 0.37559 0.04558 0.0
C722 C 0.52437 0.41152 0.09905 0.0
C723 C 0.51083 0.45138 0.98478 0.0
C724 C 0.55081 0.38495 0.98967 0.0
O725 O 0.50692 0.40963 0.93551 0.0
O726 O 0.49672 0.38074 0.96796 0.0
C727 C 0.46205 0.38272 0.05637 0.0
N728 N 0.48077 0.37689 0.07996 0.0
C729 C 0.46367 0.37047 0.16984 0.0
C730 C 0.44417 0.37625 0.14635 0.0
C731 C 0.44337 0.38246 0.08942 0.0
C732 C 0.48175 0.37108 0.13486 0.0
H733 H 0.4614 0.38759 0.01273 0.0
C734 C 0.49768 0.3936 0.92932 0.0
O735 O 0.52849 0.44467 0.96361 0.0
O736 O 0.49986 0.43987 0.01631 0.0
N737 N 0.51827 0.36826 0.11965 0.0
C738 C 0.53836 0.36334 0.13602 0.0
C739 C 0.54194 0.35689 0.19191 0.0
C740 C 0.52479 0.35536 0.23019 0.0
C741 C 0.50418 0.36011 0.21205 0.0
C742 C 0.50157 0.36629 0.15568 0.0
H743 H 0.55155 0.36438 0.10671 0.0
O744 O 0.53473 0.42627 0.08056 0.0
O745 O 0.51266 0.40262 0.06192 0.0
O746 O 0.54792 0.40294 0.98387 0.0
O747 O 0.5372 0.37357 0.01202 0.0
C748 C 0.48615 0.35912 0.24781 0.0
C749 C 0.46592 0.36435 0.22678 0.0
H750 H 0.42974 0.3761 0.17174 0.0
H751 H 0.42841 0.38705 0.07109 0.0
H752 H 0.55788 0.35316 0.2055 0.0
H753 H 0.52764 0.35055 0.27342 0.0
H754 H 0.48771 0.35456 0.29174 0.0
H755 H 0.45222 0.36376 0.25488 0.0
Mn756 Mn 0.85615 0.28872 0.24245 0.0
Mn757 Mn 0.90782 0.27689 0.23028 0.0
C758 C 0.87668 0.28503 0.32325 0.0
C759 C 0.82131 0.27739 0.25094 0.0
C760 C 0.89035 0.31626 0.20178 0.0
O761 O 0.85816 0.27797 0.16318 0.0
O762 O 0.8924 0.26796 0.16042 0.0
C763 C 0.9052 0.23475 0.23236 0.0
N764 N 0.91221 0.25132 0.25608 0.0
C765 C 0.92943 0.23436 0.33244 0.0
C766 C 0.92239 0.21712 0.30883 0.0
C767 C 0.91024 0.21732 0.25856 0.0
C768 C 0.92407 0.25128 0.30422 0.0
H769 H 0.89574 0.23481 0.19392 0.0
C770 C 0.87356 0.26923 0.13922 0.0
O771 O 0.82494 0.29462 0.23281 0.0
O772 O 0.83765 0.26718 0.26447 0.0
N773 N 0.92365 0.28435 0.2965 0.0
C774 C 0.92861 0.30221 0.31494 0.0
C775 C 0.9404 0.30451 0.36534 0.0
C776 C 0.94696 0.28842 0.3963 0.0
C777 C 0.94171 0.27016 0.37646 0.0
C778 C 0.93006 0.26876 0.32572 0.0
H779 H 0.92357 0.31462 0.29149 0.0
O780 O 0.85979 0.29574 0.32414 0.0
O781 O 0.88148 0.278 0.2737 0.0
O782 O 0.87097 0.31336 0.21602 0.0
O783 O 0.90493 0.30356 0.20426 0.0
C784 C 0.94743 0.2533 0.40532 0.0
C785 C 0.9413 0.23541 0.38332 0.0
H786 H 0.9261 0.20367 0.32913 0.0
H787 H 0.9047 0.20407 0.24017 0.0
H788 H 0.94436 0.31865 0.38039 0.0
H789 H 0.95596 0.29024 0.43531 0.0
H790 H 0.95643 0.25394 0.44467 0.0
H791 H 0.94566 0.22256 0.40609 0.0
Mn792 Mn 0.98301 0.5822 0.49195 0.0
Mn793 Mn 0.00528 0.62536 0.50933 0.0
C794 C 0.98644 0.5946 0.58218 0.0
C795 C 0.98972 0.54963 0.4808 0.0
C796 C 0.96076 0.61908 0.46119 0.0
O797 O 0.99659 0.58805 0.41615 0.0
O798 O 0.01523 0.61492 0.43443 0.0
C799 C 0.05039 0.61407 0.52277 0.0
N800 N 0.03265 0.6227 0.54403 0.0
C801 C 0.05073 0.63063 0.63135 0.0
C802 C 0.06925 0.62194 0.61023 0.0
C803 C 0.06907 0.61361 0.55572 0.0
C804 C 0.03266 0.6308 0.59634 0.0
H805 H 0.05022 0.60752 0.48108 0.0
C806 C 0.00894 0.60155 0.40102 0.0
O807 O 0.97205 0.5572 0.46246 0.0
O808 O 0.0031 0.56093 0.50555 0.0
N809 N 0.99677 0.63698 0.57963 0.0
C810 C 0.97723 0.64372 0.59495 0.0
C811 C 0.97448 0.652 0.649 0.0
C812 C 0.99184 0.65328 0.68663 0.0
C813 C 0.01183 0.64633 0.66978 0.0
C814 C 0.01366 0.63842 0.61515 0.0
H815 H 0.96382 0.64266 0.56627 0.0
O816 O 0.97317 0.58076 0.57292 0.0
O817 O 0.99729 0.60036 0.53825 0.0
O818 O 0.95926 0.60115 0.47044 0.0
O819 O 0.97712 0.62912 0.47378 0.0
C820 C 0.02989 0.64655 0.70548 0.0
C821 C 0.04933 0.63871 0.68628 0.0
H822 H 0.08363 0.62141 0.63572 0.0
H823 H 0.08326 0.60678 0.53928 0.0
H824 H 0.95899 0.65728 0.66178 0.0
H825 H 0.98959 0.65945 0.72855 0.0
H826 H 0.02893 0.65247 0.74808 0.0
H827 H 0.06302 0.63873 0.71441 0.0
Mn828 Mn 0.64206 0.71873 0.74797 0.0
Mn829 Mn 0.59049 0.73101 0.75318 0.0
C830 C 0.62454 0.71906 0.83432 0.0
C831 C 0.67702 0.72931 0.74984 0.0
C832 C 0.60592 0.69223 0.71297 0.0
O833 O 0.63746 0.73181 0.67254 0.0
O834 O 0.60292 0.74051 0.67911 0.0
C835 C 0.59597 0.77287 0.76077 0.0
N836 N 0.58863 0.75627 0.78362 0.0
C837 C 0.5769 0.77243 0.8686 0.0
C838 C 0.58425 0.78969 0.84585 0.0
C839 C 0.59377 0.78992 0.79164 0.0
C840 C 0.57932 0.75592 0.83565 0.0
H841 H 0.60361 0.7731 0.7195 0.0
C842 C 0.62092 0.73999 0.65291 0.0
O843 O 0.67239 0.71277 0.72796 0.0
O844 O 0.66159 0.73931 0.77066 0.0
N845 N 0.57707 0.7231 0.82269 0.0
C846 C 0.57165 0.70518 0.8397 0.0
C847 C 0.56219 0.70246 0.89336 0.0
C848 C 0.55845 0.71818 0.92905 0.0
C849 C 0.56404 0.73651 0.91052 0.0
C850 C 0.57314 0.73837 0.85624 0.0
H851 H 0.5746 0.69306 0.81265 0.0
O852 O 0.64159 0.70885 0.82744 0.0
O853 O 0.61823 0.72838 0.78941 0.0
O854 O 0.62586 0.69518 0.71943 0.0
O855 O 0.59145 0.70459 0.72369 0.0
C856 C 0.56123 0.75297 0.94413 0.0
C857 C 0.56768 0.77091 0.92322 0.0
H858 H 0.58286 0.80279 0.86995 0.0
H859 H 0.59958 0.80318 0.77392 0.0
H860 H 0.5579 0.68826 0.90727 0.0
H861 H 0.55136 0.716 0.97067 0.0
H862 H 0.5543 0.75196 0.98634 0.0
H863 H 0.56565 0.78343 0.94969 0.0
Mn864 Mn 0.46423 0.41348 0.52508 0.0
Mn865 Mn 0.48358 0.3691 0.51149 0.0
C866 C 0.46933 0.39517 0.6053 0.0
C867 C 0.47337 0.44572 0.53327 0.0
C868 C 0.43815 0.38041 0.47991 0.0
O869 O 0.47531 0.41245 0.44446 0.0
O870 O 0.49243 0.3841 0.44293 0.0
C871 C 0.52987 0.3765 0.52011 0.0
N872 N 0.51201 0.36781 0.54037 0.0
C873 C 0.53177 0.35287 0.61613 0.0
C874 C 0.55041 0.36158 0.59587 0.0
C875 C 0.54944 0.37346 0.5477 0.0
C876 C 0.51276 0.3563 0.58657 0.0
H877 H 0.52915 0.38572 0.48327 0.0
C878 C 0.48679 0.39992 0.41994 0.0
O879 O 0.45468 0.44066 0.51438 0.0
O880 O 0.48632 0.43216 0.54683 0.0
N881 N 0.47606 0.35347 0.57533 0.0
C882 C 0.45644 0.34709 0.59133 0.0
C883 C 0.45449 0.33554 0.63997 0.0
C884 C 0.47271 0.33068 0.6716 0.0
C885 C 0.49274 0.3374 0.65424 0.0
C886 C 0.49371 0.34873 0.60516 0.0
H887 H 0.44239 0.35085 0.56731 0.0
O888 O 0.45674 0.40984 0.60686 0.0
O889 O 0.47853 0.39194 0.55658 0.0
O890 O 0.43842 0.39746 0.49937 0.0
O891 O 0.45418 0.36914 0.48143 0.0
C892 C 0.51172 0.33354 0.68421 0.0
C893 C 0.53123 0.34125 0.66513 0.0
H894 H 0.56551 0.35938 0.61727 0.0
H895 H 0.56374 0.3803 0.53199 0.0
H896 H 0.43898 0.33045 0.65315 0.0
H897 H 0.47111 0.32187 0.7093 0.0
H898 H 0.51146 0.32481 0.7223 0.0
H899 H 0.54568 0.33834 0.68885 0.0
Mn900 Mn 0.33974 0.73115 0.19654 0.0
Mn901 Mn 0.3022 0.71315 0.10914 0.0
C902 C 0.30704 0.74609 0.18941 0.0
C903 C 0.3547 0.73276 0.28762 0.0
C904 C 0.34043 0.73564 0.06722 0.0
O905 O 0.35092 0.70448 0.17871 0.0
O906 O 0.32393 0.69308 0.12516 0.0
C907 C 0.28275 0.68529 0.18821 0.0
N908 N 0.28075 0.70068 0.15331 0.0
C909 C 0.24313 0.70285 0.17234 0.0
C910 C 0.24476 0.68694 0.20826 0.0
C911 C 0.26466 0.67815 0.21631 0.0
C912 C 0.26169 0.70928 0.14534 0.0
H913 H 0.29805 0.67855 0.19457 0.0
C914 C 0.34229 0.69134 0.1487 0.0
O915 O 0.36552 0.73799 0.24295 0.0
O916 O 0.33618 0.72525 0.2785 0.0
N917 N 0.28034 0.731 0.08949 0.0
C918 C 0.28181 0.74691 0.05643 0.0
C919 C 0.26349 0.75786 0.04613 0.0
C920 C 0.2438 0.75219 0.06912 0.0
C921 C 0.24265 0.73563 0.10243 0.0
C922 C 0.26146 0.72529 0.1113 0.0
H923 H 0.2969 0.75132 0.0386 0.0
O924 O 0.3235 0.75525 0.20828 0.0
O925 O 0.31019 0.7283 0.1758 0.0
O926 O 0.34841 0.73971 0.11584 0.0
O927 O 0.3234 0.72592 0.06048 0.0
C928 C 0.22368 0.7292 0.12825 0.0
C929 C 0.22392 0.71282 0.16316 0.0
H930 H 0.23087 0.68145 0.23025 0.0
H931 H 0.26605 0.66592 0.24419 0.0
H932 H 0.26454 0.77067 0.02059 0.0
H933 H 0.22972 0.76073 0.06127 0.0
H934 H 0.2089 0.73692 0.12229 0.0
H935 H 0.20931 0.70819 0.18352 0.0
Mn936 Mn 0.04224 0.58867 0.99349 0.0
Mn937 Mn 0.0239 0.63335 0.00814 0.0
C938 C 0.04625 0.60411 0.07943 0.0
C939 C 0.03204 0.55645 0.99813 0.0
C940 C 0.06416 0.6232 0.94191 0.0
O941 O 0.02382 0.59287 0.92442 0.0
O942 O 0.00828 0.62122 0.94318 0.0
C943 C 0.98017 0.62472 0.04756 0.0
N944 N 0.99942 0.63312 0.05669 0.0
C945 C 0.98859 0.64386 0.1498 0.0
C946 C 0.96857 0.63546 0.14121 0.0
C947 C 0.96436 0.62585 0.08986 0.0
C948 C 0.00364 0.64245 0.10586 0.0
H949 H 0.977 0.61711 0.00843 0.0
C950 C 0.01118 0.60644 0.91186 0.0
O951 O 0.04862 0.56164 0.96844 0.0
O952 O 0.02193 0.56981 0.02448 0.0
N953 N 0.03779 0.64655 0.06915 0.0
C954 C 0.05832 0.65277 0.07216 0.0
C955 C 0.06532 0.6623 0.12137 0.0
C956 C 0.05118 0.66527 0.16698 0.0
C957 C 0.03011 0.65876 0.16285 0.0
C958 C 0.02394 0.64963 0.11237 0.0
H959 H 0.06929 0.6504 0.03738 0.0
O960 O 0.05769 0.58917 0.068 0.0
O961 O 0.03281 0.60909 0.04007 0.0
O962 O 0.06525 0.60546 0.95506 0.0
O963 O 0.04931 0.63442 0.9587 0.0
C964 C 0.01512 0.66059 0.20729 0.0
C965 C 0.99439 0.65312 0.20081 0.0
H966 H 0.95642 0.63611 0.174 0.0
H967 H 0.94901 0.6192 0.0831 0.0
H968 H 0.08163 0.66722 0.1243 0.0
H969 H 0.05672 0.67243 0.20512 0.0
H970 H 0.01946 0.66748 0.24695 0.0
H971 H 0.98312 0.65434 0.23564 0.0
Mn972 Mn 0.1632 0.27481 0.72078 0.0
Mn973 Mn 0.19473 0.29389 0.61942 0.0
C974 C 0.19836 0.26573 0.71615 0.0
C975 C 0.14764 0.27586 0.80995 0.0
C976 C 0.16232 0.2628 0.59687 0.0
O977 O 0.14619 0.29737 0.69198 0.0
O978 O 0.1693 0.31069 0.63024 0.0
C979 C 0.20886 0.32864 0.67995 0.0
N980 N 0.21367 0.31216 0.65209 0.0
C981 C 0.25129 0.31799 0.66129 0.0
C982 C 0.24676 0.33509 0.68978 0.0
C983 C 0.22545 0.34041 0.69927 0.0
C984 C 0.2341 0.30689 0.6428 0.0
H985 H 0.19249 0.33272 0.68734 0.0
C986 C 0.15129 0.31027 0.65617 0.0
O987 O 0.139 0.26632 0.76859 0.0
O988 O 0.16476 0.28556 0.79869 0.0
N989 N 0.2198 0.27928 0.60352 0.0
C990 C 0.2214 0.26179 0.5786 0.0
C991 C 0.24165 0.25405 0.5678 0.0
C992 C 0.26001 0.26444 0.58214 0.0
C993 C 0.25795 0.2825 0.6072 0.0
C994 C 0.23735 0.28952 0.61668 0.0
H995 H 0.20734 0.25377 0.56731 0.0
O996 O 0.18447 0.25519 0.74232 0.0
O997 O 0.19134 0.2817 0.69455 0.0
O998 O 0.15638 0.26023 0.64807 0.0
O999 O 0.17613 0.27516 0.58168 0.0
C1000 C 0.2755 0.29362 0.62434 0.0
C1001 C 0.27218 0.31133 0.65146 0.0
H1002 H 0.25951 0.34417 0.705 0.0
H1003 H 0.22183 0.35354 0.72148 0.0
H1004 H 0.24311 0.24011 0.54842 0.0
H1005 H 0.2756 0.25838 0.57403 0.0
H1006 H 0.29162 0.28855 0.61767 0.0
H1007 H 0.2858 0.31962 0.66522 0.0
Mn1008 Mn 0.4563 0.59001 0.98631 0.0
Mn1009 Mn 0.48146 0.63232 0.98812 0.0
C1010 C 0.46196 0.60615 0.90199 0.0
C1011 C 0.46156 0.55677 0.98449 0.0
C1012 C 0.43598 0.62641 0.0309 0.0
O1013 O 0.46929 0.59166 0.06449 0.0
O1014 O 0.49013 0.61785 0.05769 0.0
C1015 C 0.52625 0.62017 0.97276 0.0
N1016 N 0.50905 0.63023 0.95416 0.0
C1017 C 0.52865 0.64224 0.87356 0.0
C1018 C 0.54662 0.63209 0.892 0.0
C1019 C 0.54539 0.62098 0.94177 0.0
C1020 C 0.51007 0.64101 0.90644 0.0
H1021 H 0.52532 0.61159 0.01093 0.0
C1022 C 0.48272 0.60342 0.08488 0.0
O1023 O 0.444 0.56411 0.00452 0.0
O1024 O 0.47552 0.56866 0.96527 0.0
N1025 N 0.47422 0.64745 0.92303 0.0
C1026 C 0.45507 0.65534 0.90912 0.0
C1027 C 0.45329 0.66624 0.85912 0.0
C1028 C 0.47121 0.66894 0.82406 0.0
C1029 C 0.49076 0.66071 0.83935 0.0
C1030 C 0.49159 0.65008 0.88983 0.0
H1031 H 0.44125 0.65324 0.93585 0.0
O1032 O 0.44764 0.59282 0.9046 0.0
O1033 O 0.47233 0.60933 0.94886 0.0
O1034 O 0.43328 0.60919 0.01386 0.0
O1035 O 0.45324 0.63578 0.02344 0.0
C1036 C 0.50937 0.66239 0.80605 0.0
C1037 C 0.52832 0.65322 0.82324 0.0
H1038 H 0.56137 0.63257 0.868 0.0
H1039 H 0.55916 0.61303 0.95613 0.0
H1040 H 0.43814 0.67251 0.84753 0.0
H1041 H 0.46974 0.67725 0.78533 0.0
H1042 H 0.50923 0.67056 0.76684 0.0
H1043 H 0.54247 0.65452 0.7971 0.0
Mn1044 Mn 0.16054 0.72711 0.77537 0.0
Mn1045 Mn 0.19778 0.70823 0.86209 0.0
C1046 C 0.19447 0.74002 0.77723 0.0
C1047 C 0.14411 0.7284 0.68606 0.0
C1048 C 0.16065 0.73231 0.90413 0.0
O1049 O 0.14827 0.70107 0.79632 0.0
O1050 O 0.17562 0.68856 0.84663 0.0
C1051 C 0.21686 0.67901 0.7868 0.0
N1052 N 0.21907 0.69484 0.81986 0.0
C1053 C 0.25691 0.69569 0.80322 0.0
C1054 C 0.25507 0.67934 0.76919 0.0
C1055 C 0.23495 0.67099 0.76089 0.0
C1056 C 0.23837 0.70292 0.82846 0.0
H1057 H 0.20141 0.6726 0.7803 0.0
C1058 C 0.15695 0.68747 0.82445 0.0
O1059 O 0.1345 0.73471 0.73141 0.0
O1060 O 0.16243 0.72025 0.69353 0.0
N1061 N 0.21994 0.72596 0.88004 0.0
C1062 C 0.21856 0.74275 0.90898 0.0
C1063 C 0.23704 0.75362 0.91774 0.0
C1064 C 0.25677 0.74702 0.89734 0.0
C1065 C 0.25778 0.72968 0.86775 0.0
C1066 C 0.23882 0.71947 0.86018 0.0
H1067 H 0.20343 0.7479 0.92463 0.0
O1068 O 0.17843 0.7501 0.75968 0.0
O1069 O 0.19003 0.72277 0.79386 0.0
O1070 O 0.15309 0.73695 0.8556 0.0
O1071 O 0.17695 0.72164 0.91048 0.0
C1072 C 0.27674 0.72241 0.84392 0.0
C1073 C 0.27631 0.70541 0.81177 0.0
H1074 H 0.26894 0.67321 0.74869 0.0
H1075 H 0.23339 0.65842 0.73446 0.0
H1076 H 0.23606 0.76711 0.93999 0.0
H1077 H 0.27097 0.75551 0.90395 0.0
H1078 H 0.29166 0.72998 0.8491 0.0
H1079 H 0.29092 0.70016 0.79277 0.0
Mn1080 Mn 0.04222 0.41066 0.46299 0.0
Mn1081 Mn 0.0206 0.36688 0.46182 0.0
C1082 C 0.03558 0.39599 0.37727 0.0
C1083 C 0.03553 0.44336 0.46937 0.0
C1084 C 0.06665 0.37518 0.49529 0.0
O1085 O 0.03173 0.40653 0.54337 0.0
O1086 O 0.01226 0.37958 0.53468 0.0
C1087 C 0.97466 0.37615 0.45556 0.0
N1088 N 0.99217 0.36761 0.43266 0.0
C1089 C 0.97187 0.35601 0.35283 0.0
C1090 C 0.95358 0.36457 0.37574 0.0
C1091 C 0.95499 0.3747 0.42729 0.0
C1092 C 0.99098 0.35776 0.3832 0.0
H1093 H 0.97571 0.38402 0.49504 0.0
C1094 C 0.01922 0.39387 0.56325 0.0
O1095 O 0.05392 0.43628 0.48398 0.0
O1096 O 0.02134 0.43148 0.45104 0.0
N1097 N 0.02756 0.35339 0.39327 0.0
C1098 C 0.0469 0.34691 0.37532 0.0
C1099 C 0.04841 0.33703 0.32338 0.0
C1100 C 0.03003 0.3339 0.29051 0.0
C1101 C 0.01028 0.34064 0.30997 0.0
C1102 C 0.00973 0.35025 0.3623 0.0
H1103 H 0.06109 0.34933 0.40032 0.0
O1104 O 0.04872 0.41027 0.37976 0.0
O1105 O 0.02656 0.39119 0.42499 0.0
O1106 O 0.06722 0.39267 0.48014 0.0
O1107 O 0.04997 0.36474 0.49193 0.0
C1108 C 0.99118 0.33847 0.27906 0.0
C1109 C 0.97198 0.34613 0.3005 0.0
H1110 H 0.93842 0.3636 0.35385 0.0
H1111 H 0.94096 0.38143 0.44511 0.0
H1112 H 0.06372 0.33188 0.30861 0.0
H1113 H 0.0313 0.32642 0.25024 0.0
H1114 H 0.99111 0.33111 0.23845 0.0
H1115 H 0.95744 0.34452 0.27609 0.0
Mn1116 Mn 0.34177 0.27855 0.26558 0.0
Mn1117 Mn 0.31053 0.29836 0.36658 0.0
C1118 C 0.30684 0.26876 0.27404 0.0
C1119 C 0.3564 0.27758 0.17512 0.0
C1120 C 0.34413 0.26855 0.3914 0.0
O1121 O 0.35816 0.30225 0.28876 0.0
O1122 O 0.33553 0.31535 0.35231 0.0
C1123 C 0.29522 0.33209 0.30298 0.0
N1124 N 0.29098 0.3159 0.33287 0.0
C1125 C 0.25317 0.321 0.32503 0.0
C1126 C 0.25712 0.33781 0.29444 0.0
C1127 C 0.27824 0.34335 0.28326 0.0
C1128 C 0.27073 0.31043 0.34389 0.0
H1129 H 0.31144 0.33635 0.29429 0.0
C1130 C 0.35309 0.31532 0.32421 0.0
O1131 O 0.36581 0.26952 0.21801 0.0
O1132 O 0.33912 0.28721 0.18536 0.0
N1133 N 0.2859 0.28355 0.38536 0.0
C1134 C 0.28486 0.26629 0.41185 0.0
C1135 C 0.26486 0.25833 0.42433 0.0
C1136 C 0.24618 0.26825 0.40992 0.0
C1137 C 0.24767 0.28606 0.38303 0.0
C1138 C 0.26804 0.29333 0.37198 0.0
H1139 H 0.29917 0.25862 0.42312 0.0
O1140 O 0.32093 0.25797 0.24954 0.0
O1141 O 0.31358 0.28525 0.29256 0.0
O1142 O 0.3499 0.26575 0.3402 0.0
O1143 O 0.32975 0.28046 0.40599 0.0
C1144 C 0.22976 0.29667 0.36557 0.0
C1145 C 0.2325 0.31411 0.33651 0.0
H1146 H 0.24407 0.34647 0.27886 0.0
H1147 H 0.28141 0.35625 0.25944 0.0
H1148 H 0.26385 0.24457 0.44499 0.0
H1149 H 0.23079 0.262 0.41932 0.0
H1150 H 0.2138 0.29139 0.37344 0.0
H1151 H 0.21861 0.32199 0.32249 0.0
H1152 H 0.01932 0.10813 0.64645 0.0
H1153 H 0.95213 0.0992 0.67432 0.0
H1154 H 0.95832 0.09434 0.77594 0.0
H1155 H 0.98267 0.09214 0.8564 0.0
H1156 H 0.05015 0.09891 0.83077 0.0
H1157 H 0.04427 0.10477 0.72847 0.0
C1158 C 0.00616 0.10522 0.67514 0.0
C1159 C 0.98534 0.10403 0.65359 0.0
C1160 C 0.00992 0.1019 0.73346 0.0
C1161 C 0.96829 0.10006 0.69045 0.0
C1162 C 0.9718 0.09723 0.74833 0.0
C1163 C 0.99603 0.09505 0.82827 0.0
C1164 C 0.01667 0.09581 0.85057 0.0
C1165 C 0.99251 0.09804 0.77017 0.0
C1166 C 0.03406 0.09874 0.81404 0.0
C1167 C 0.03069 0.10207 0.75584 0.0
H1168 H 0.14365 0.76747 0.9272 0.0
H1169 H 0.15409 0.71169 -0.00069 0.0
H1170 H 0.142 0.72289 0.09221 0.0
H1171 H 0.13495 0.74952 0.15575 0.0
H1172 H 0.12729 0.80608 0.08786 0.0
H1173 H 0.13149 0.79371 0.99055 0.0
C1174 C 0.1428 0.75775 0.96308 0.0
C1175 C 0.15004 0.73889 0.9568 0.0
C1176 C 0.13647 0.76447 0.01718 0.0
C1177 C 0.14894 0.72637 0.0035 0.0
C1178 C 0.142 0.73274 0.05659 0.0
C1179 C 0.13316 0.75899 0.11948 0.0
C1180 C 0.13037 0.77858 0.12859 0.0
C1181 C 0.13657 0.7519 0.0644 0.0
C1182 C 0.12907 0.79087 0.08149 0.0
C1183 C 0.13171 0.78382 0.02603 0.0
H1184 H 0.48072 0.89267 0.11887 0.0
H1185 H 0.54878 0.89242 0.14345 0.0
H1186 H 0.5441 0.89487 0.24647 0.0
H1187 H 0.52088 0.89989 0.32868 0.0
H1188 H 0.45286 0.90152 0.30637 0.0
H1189 H 0.45708 0.89598 0.20353 0.0
C1190 C 0.49438 0.8929 0.14716 0.0
C1191 C 0.51502 0.89246 0.12426 0.0
C1192 C 0.49157 0.89475 0.20651 0.0
C1193 C 0.53275 0.89287 0.1607 0.0
C1194 C 0.53011 0.89433 0.21941 0.0
C1195 C 0.50702 0.89853 0.30132 0.0
C1196 C 0.48661 0.90039 0.32468 0.0
C1197 C 0.50964 0.89567 0.24266 0.0
C1198 C 0.46871 0.89962 0.28892 0.0
C1199 C 0.47113 0.89651 0.23032 0.0
H1200 H 0.35451 0.2809 0.49587 0.0
H1201 H 0.3571 0.23143 0.38718 0.0
H1202 H 0.36987 0.21203 0.46715 0.0
H1203 H 0.37482 0.20847 0.57138 0.0
H1204 H 0.36965 0.25821 0.67846 0.0
H1205 H 0.36452 0.27831 0.59578 0.0
C1206 C 0.35813 0.26591 0.48967 0.0
C1207 C 0.35445 0.25742 0.43658 0.0
C1208 C 0.36538 0.25497 0.53548 0.0
C1209 C 0.35965 0.23815 0.42821 0.0
C1210 C 0.36691 0.22708 0.47383 0.0
C1211 C 0.37334 0.2238 0.57603 0.0
C1212 C 0.3733 0.23191 0.63072 0.0
C1213 C 0.36912 0.23522 0.52817 0.0
C1214 C 0.37081 0.25172 0.63674 0.0
C1215 C 0.36732 0.26321 0.58946 0.0
H1216 H 0.96086 0.89908 0.81918 0.0
H1217 H 0.02398 0.88939 0.88529 0.0
H1218 H 0.03861 0.89023 0.78796 0.0
H1219 H 0.0332 0.8953 0.68415 0.0
H1220 H 0.96948 0.90317 0.61989 0.0
H1221 H 0.95511 0.9013 0.71651 0.0
C1222 C 0.97785 0.89728 0.81215 0.0
C1223 C 0.9915 0.89469 0.8588 0.0
C1224 C 0.9859 0.89728 0.75659 0.0
C1225 C 0.01333 0.89169 0.8496 0.0
C1226 C 0.02163 0.89214 0.79418 0.0
C1227 C 0.01617 0.89627 0.69167 0.0
C1228 C 0.00227 0.89891 0.64551 0.0
C1229 C 0.00805 0.89512 0.74738 0.0
C1230 C 0.9803 0.9006 0.65507 0.0
C1231 C 0.97214 0.89972 0.71017 0.0
H1232 H 0.36229 0.75473 0.81546 0.0
H1233 H 0.37174 0.81058 0.88695 0.0
H1234 H 0.36925 0.7973 0.98361 0.0
H1235 H 0.35793 0.77056 0.04597 0.0
H1236 H 0.34616 0.71547 0.97079 0.0
H1237 H 0.35679 0.72745 0.87746 0.0
C1238 C 0.36489 0.76383 0.8522 0.0
C1239 C 0.36766 0.78348 0.84444 0.0
C1240 C 0.36267 0.75621 0.90698 0.0
C1241 C 0.36994 0.79532 0.89227 0.0
C1242 C 0.36833 0.78775 0.94737 0.0
C1243 C 0.35829 0.76114 0.00932 0.0
C1244 C 0.35102 0.74228 0.01479 0.0
C1245 C 0.36371 0.76833 0.95515 0.0
C1246 C 0.3514 0.73014 0.96717 0.0
C1247 C 0.35745 0.73696 0.91386 0.0
H1248 H 0.52066 0.10125 0.14229 0.0
H1249 H 0.45288 0.10485 0.16766 0.0
H1250 H 0.45823 0.11026 0.27021 0.0
H1251 H 0.4826 0.11203 0.35375 0.0
H1252 H 0.55021 0.10599 0.32635 0.0
H1253 H 0.54471 0.10393 0.2236 0.0
C1254 C 0.50714 0.10367 0.17027 0.0
C1255 C 0.4865 0.10338 0.14783 0.0
C1256 C 0.51036 0.10621 0.22885 0.0
C1257 C 0.46895 0.10555 0.18438 0.0
C1258 C 0.47201 0.10856 0.24283 0.0
C1259 C 0.49601 0.11041 0.32495 0.0
C1260 C 0.51673 0.10898 0.34707 0.0
C1261 C 0.49268 0.10867 0.26576 0.0
C1262 C 0.53411 0.10686 0.30985 0.0
C1263 C 0.531 0.10568 0.25125 0.0
H1264 H 0.14964 0.27575 0.49591 0.0
H1265 H 0.15233 0.22478 0.59792 0.0
H1266 H 0.14017 0.20573 0.51617 0.0
H1267 H 0.13407 0.20347 0.41155 0.0
H1268 H 0.13519 0.25512 0.31189 0.0
H1269 H 0.13937 0.27407 0.39677 0.0
C1270 C 0.1473 0.26049 0.50031 0.0
C1271 C 0.15227 0.25151 0.55178 0.0
C1272 C 0.14057 0.24981 0.4536 0.0
C1273 C 0.14875 0.23186 0.558 0.0
C1274 C 0.14187 0.22102 0.51138 0.0
C1275 C 0.1345 0.2189 0.40907 0.0
C1276 C 0.13331 0.2279 0.35567 0.0
C1277 C 0.13843 0.22979 0.45831 0.0
C1278 C 0.13464 0.24787 0.35252 0.0
C1279 C 0.13765 0.25876 0.40109 0.0
H1280 H 0.95831 0.88087 0.35252 0.0
H1281 H 0.02192 0.90129 0.319 0.0
H1282 H 0.01435 0.90272 0.21711 0.0
H1283 H 0.98886 0.90118 0.13924 0.0
H1284 H 0.92446 0.8829 0.17035 0.0
H1285 H 0.93285 0.87775 0.27173 0.0
C1286 C 0.97049 0.88535 0.32254 0.0
C1287 C 0.99055 0.89111 0.34268 0.0
C1288 C 0.96579 0.88673 0.26402 0.0
C1289 C 0.00629 0.89701 0.30402 0.0
C1290 C 0.00198 0.89787 0.24597 0.0
C1291 C 0.97683 0.89568 0.16816 0.0
C1292 C 0.95632 0.89189 0.14786 0.0
C1293 C 0.98167 0.89322 0.22578 0.0
C1294 C 0.94049 0.88553 0.18553 0.0
C1295 C 0.94529 0.88264 0.24322 0.0
H1296 H 0.90029 0.26084 0.05063 0.0
H1297 H 0.83551 0.2542 0.10953 0.0
H1298 H 0.8259 0.23834 0.02103 0.0
H1299 H 0.83483 0.22906 0.92392 0.0
H1300 H 0.8985 0.23805 0.86013 0.0
H1301 H 0.90976 0.24982 0.95369 0.0
C1302 C 0.88416 0.25577 0.04406 0.0
C1303 C 0.86858 0.25895 0.08606 0.0
C1304 C 0.87855 0.247 0.9923 0.0
C1305 C 0.8477 0.25228 0.07727 0.0
C1306 C 0.8422 0.24308 0.02685 0.0
C1307 C 0.8513 0.23316 0.93087 0.0
C1308 C 0.86582 0.23268 0.88547 0.0
C1309 C 0.85735 0.24072 0.98367 0.0
C1310 C 0.88704 0.23831 0.8947 0.0
C1311 C 0.89344 0.24515 0.948 0.0
H1312 H 0.54159 0.12042 0.85427 0.0
H1313 H 0.4768 0.103 0.82291 0.0
H1314 H 0.48284 0.10422 0.72018 0.0
H1315 H 0.50757 0.10619 0.64005 0.0
H1316 H 0.57342 0.12 0.66962 0.0
H1317 H 0.56619 0.12433 0.7718 0.0
C1318 C 0.52885 0.11713 0.82464 0.0
C1319 C 0.50884 0.11152 0.84563 0.0
C1320 C 0.5327 0.11711 0.76539 0.0
C1321 C 0.49236 0.1072 0.80732 0.0
C1322 C 0.49579 0.10788 0.7487 0.0
C1323 C 0.52014 0.11073 0.66878 0.0
C1324 C 0.54081 0.11334 0.64767 0.0
C1325 C 0.51603 0.11229 0.72732 0.0
C1326 C 0.55727 0.11836 0.68523 0.0
C1327 C 0.55316 0.12069 0.74354 0.0
H1328 H 0.59664 0.7381 0.55579 0.0
H1329 H 0.65212 0.76485 0.62875 0.0
H1330 H 0.66092 0.77914 0.53692 0.0
H1331 H 0.65508 0.78143 0.43444 0.0
H1332 H 0.6013 0.75304 0.35787 0.0
H1333 H 0.58948 0.7422 0.45205 0.0
C1334 C 0.61037 0.74738 0.55152 0.0
C1335 C 0.62372 0.75047 0.59878 0.0
C1336 C 0.61577 0.7551 0.49778 0.0
C1337 C 0.64167 0.76227 0.59279 0.0
C1338 C 0.64673 0.77041 0.54031 0.0
C1339 C 0.64058 0.77312 0.43829 0.0
C1340 C 0.62916 0.768 0.38906 0.0
C1341 C 0.63424 0.76653 0.49223 0.0
C1342 C 0.61043 0.75716 0.39503 0.0
C1343 C 0.6037 0.7509 0.44892 0.0
H1344 H 0.94094 0.11618 0.31217 0.0
H1345 H 0.00449 0.1085 0.37766 0.0
H1346 H 0.01904 0.10988 0.28135 0.0
H1347 H 0.01308 0.10836 0.1782 0.0
H1348 H 0.94978 0.11538 0.11066 0.0
H1349 H 0.93551 0.11896 0.20781 0.0
C1350 C 0.95801 0.11544 0.3051 0.0
C1351 C 0.97174 0.11278 0.35169 0.0
C1352 C 0.96615 0.11553 0.24928 0.0
C1353 C 0.99376 0.1113 0.34247 0.0
C1354 C 0.00204 0.11172 0.28736 0.0
C1355 C 0.99619 0.11085 0.18504 0.0
C1356 C 0.98231 0.11121 0.13828 0.0
C1357 C 0.9883 0.11305 0.24048 0.0
C1358 C 0.96057 0.11483 0.14666 0.0
C1359 C 0.95249 0.11689 0.20199 0.0
H1360 H 0.62254 0.23923 0.15405 0.0
H1361 H 0.68233 0.21254 0.10958 0.0
H1362 H 0.67809 0.22273 0.01096 0.0
H1363 H 0.65944 0.24209 0.93988 0.0
H1364 H 0.59926 0.26815 0.98219 0.0
H1365 H 0.60163 0.25542 0.0794 0.0
C1366 C 0.63441 0.23529 0.12253 0.0
C1367 C 0.65285 0.22536 0.13933 0.0
C1368 C 0.63202 0.24142 0.06587 0.0
C1369 C 0.66803 0.22027 0.09791 0.0
C1370 C 0.66572 0.22621 0.04153 0.0
C1371 C 0.64685 0.24494 0.97048 0.0
C1372 C 0.62945 0.25635 0.95472 0.0
C1373 C 0.64817 0.23734 0.02557 0.0
C1374 C 0.61291 0.25955 0.99389 0.0
C1375 C 0.61426 0.25226 0.04929 0.0
H1376 H 0.54214 0.88453 0.61785 0.0
H1377 H 0.47571 0.89602 0.64907 0.0
H1378 H 0.4817 0.89493 0.75195 0.0
H1379 H 0.50653 0.89498 0.83214 0.0
H1380 H 0.5735 0.88619 0.80269 0.0
H1381 H 0.56686 0.88195 0.70026 0.0
C1382 C 0.52904 0.88649 0.64749 0.0
C1383 C 0.50856 0.89042 0.62657 0.0
C1384 C 0.53278 0.88648 0.70672 0.0
C1385 C 0.4916 0.89307 0.66477 0.0
C1386 C 0.49502 0.89249 0.72341 0.0
C1387 C 0.51952 0.89149 0.80339 0.0
C1388 C 0.54034 0.89033 0.82458 0.0
C1389 C 0.51563 0.88977 0.7448 0.0
C1390 C 0.55727 0.88672 0.78699 0.0
C1391 C 0.55348 0.88442 0.72857 0.0
H1392 H 0.87557 0.76205 0.64798 0.0
H1393 H 0.81656 0.79033 0.60504 0.0
H1394 H 0.81989 0.77971 0.50663 0.0
H1395 H 0.83739 0.75946 0.43555 0.0
H1396 H 0.89691 0.73202 0.4762 0.0
H1397 H 0.8955 0.74509 0.57314 0.0
C1398 C 0.86369 0.76623 0.6168 0.0
C1399 C 0.84569 0.77669 0.63394 0.0
C1400 C 0.86554 0.75987 0.56033 0.0
C1401 C 0.83051 0.78216 0.59302 0.0
C1402 C 0.83228 0.77597 0.5368 0.0
C1403 C 0.85001 0.75639 0.46583 0.0
C1404 C 0.86693 0.74451 0.44991 0.0
C1405 C 0.8493 0.76426 0.52059 0.0
C1406 C 0.8836 0.74099 0.48834 0.0
C1407 C 0.88281 0.74848 0.54348 0.0
H1408 H 0.52081 0.60765 0.14009 0.0
H1409 H 0.45396 0.5961 0.16614 0.0
H1410 H 0.45943 0.59415 0.26863 0.0
H1411 H 0.48301 0.59521 0.35059 0.0
H1412 H 0.5503 0.60407 0.3275 0.0
H1413 H 0.54511 0.60741 0.22392 0.0
C1414 C 0.50758 0.60464 0.16848 0.0
C1415 C 0.4871 0.60182 0.14602 0.0
C1416 C 0.51092 0.60305 0.22753 0.0
C1417 C 0.46994 0.59795 0.18272 0.0
C1418 C 0.47301 0.59691 0.24122 0.0
C1419 C 0.49645 0.59809 0.3227 0.0
C1420 C 0.51681 0.60015 0.34582 0.0
C1421 C 0.49338 0.59938 0.26397 0.0
C1422 C 0.53439 0.60298 0.3099 0.0
C1423 C 0.53142 0.60481 0.25101 0.0
H1424 H 0.64721 0.22298 0.5101 0.0
H1425 H 0.65317 0.27601 0.41921 0.0
H1426 H 0.63919 0.29343 0.50203 0.0
H1427 H 0.63211 0.29362 0.60588 0.0
H1428 H 0.62867 0.24017 0.69602 0.0
H1429 H 0.63363 0.22275 0.60769 0.0
C1430 C 0.64487 0.2383 0.50818 0.0
C1431 C 0.6514 0.24836 0.45974 0.0
C1432 C 0.63709 0.24808 0.55577 0.0
C1433 C 0.64822 0.26812 0.45666 0.0
C1434 C 0.64036 0.27803 0.50397 0.0
C1435 C 0.63162 0.27817 0.60544 0.0
C1436 C 0.62958 0.26818 0.65702 0.0
C1437 C 0.63568 0.26821 0.55464 0.0
C1438 C 0.62938 0.24817 0.65659 0.0
C1439 C 0.63271 0.23817 0.60618 0.0
H1440 H 0.98049 0.39096 0.61532 0.0
H1441 H 0.04756 0.39919 0.64699 0.0
H1442 H 0.0408 0.4022 0.749 0.0
H1443 H 0.01592 0.40372 0.8284 0.0
H1444 H 0.94853 0.39807 0.79899 0.0
H1445 H 0.95508 0.39308 0.69653 0.0
C1446 C 0.99351 0.39333 0.64488 0.0
C1447 C 0.01443 0.39495 0.62428 0.0
C1448 C 0.98942 0.39563 0.70341 0.0
C1449 C 0.0313 0.39813 0.66234 0.0
C1450 C 0.02747 0.39985 0.72046 0.0
C1451 C 0.00273 0.40116 0.79944 0.0
C1452 C 0.98191 0.40057 0.82056 0.0
C1453 C 0.00662 0.39881 0.74129 0.0
C1454 C 0.96474 0.3981 0.78307 0.0
C1455 C 0.9685 0.39529 0.72481 0.0
H1456 H 0.86394 0.70867 0.10024 0.0
H1457 H 0.86168 0.76084 0.19735 0.0
H1458 H 0.85765 0.7793 0.11078 0.0
H1459 H 0.84774 0.78012 0.01072 0.0
H1460 H 0.84726 0.72842 0.91181 0.0
H1461 H 0.85942 0.71022 0.99514 0.0
C1462 C 0.86319 0.72411 0.10183 0.0
C1463 C 0.86364 0.73344 0.15472 0.0
C1464 C 0.85989 0.73466 0.0517 0.0
C1465 C 0.8622 0.7534 0.15691 0.0
C1466 C 0.85953 0.76398 0.10747 0.0
C1467 C 0.85081 0.76493 0.00727 0.0
C1468 C 0.84638 0.75546 0.9562 0.0
C1469 C 0.85737 0.75469 0.05512 0.0
C1470 C 0.85059 0.73589 0.95126 0.0
C1471 C 0.85736 0.72551 -0.00113 0.0
H1472 H 0.48788 0.41427 0.15606 0.0
H1473 H 0.55499 0.4042 0.17864 0.0
H1474 H 0.54951 0.39927 0.2815 0.0
H1475 H 0.52491 0.39688 0.36441 0.0
H1476 H 0.45827 0.40961 0.34025 0.0
H1477 H 0.46409 0.41424 0.23836 0.0
C1478 C 0.50123 0.41091 0.18372 0.0
C1479 C 0.52161 0.40882 0.16043 0.0
C1480 C 0.49798 0.40858 0.24226 0.0
C1481 C 0.53907 0.40534 0.19622 0.0
C1482 C 0.53593 0.40257 0.25474 0.0
C1483 C 0.51179 0.40072 0.33657 0.0
C1484 C 0.49123 0.40292 0.35923 0.0
C1485 C 0.51537 0.40391 0.27815 0.0
C1486 C 0.47426 0.40803 0.32337 0.0
C1487 C 0.47756 0.41067 0.26528 0.0
H1488 H 0.87979 0.298 0.43161 0.0
H1489 H 0.87937 0.24674 0.33027 0.0
H1490 H 0.87191 0.22772 0.414 0.0
H1491 H 0.85803 0.22645 0.51142 0.0
H1492 H 0.85673 0.27742 0.61379 0.0
H1493 H 0.87178 0.29583 0.53457 0.0
C1494 C 0.87897 0.28258 0.42862 0.0
C1495 C 0.88064 0.27379 0.37504 0.0
C1496 C 0.87338 0.27177 0.47674 0.0
C1497 C 0.8791 0.25384 0.37121 0.0
C1498 C 0.87421 0.24294 0.41899 0.0
C1499 C 0.86131 0.24155 0.51637 0.0
C1500 C 0.85588 0.25076 0.5673 0.0
C1501 C 0.87011 0.2519 0.47113 0.0
C1502 C 0.86061 0.27017 0.57431 0.0
C1503 C 0.86922 0.28066 0.52918 0.0
H1504 H 0.03219 0.59615 0.81851 0.0
H1505 H 0.97118 0.61722 0.87476 0.0
H1506 H 0.95785 0.61588 0.77598 0.0
H1507 H 0.96367 0.6073 0.67376 0.0
H1508 H 0.02575 0.58784 0.62059 0.0
H1509 H 0.03868 0.58986 0.71841 0.0
C1510 C 0.01588 0.60029 0.80926 0.0
C1511 C 0.00244 0.60626 0.85364 0.0
C1512 C 0.00865 0.59982 0.75306 0.0
C1513 C 0.98165 0.6123 0.84107 0.0
C1514 C 0.97409 0.61152 0.78479 0.0
C1515 C 0.98005 0.60375 0.68396 0.0
C1516 C 0.99397 0.59784 0.64044 0.0
C1517 C 0.98743 0.60512 0.74048 0.0
C1518 C 0.01502 0.59287 0.65357 0.0
C1519 C 0.02235 0.59389 0.70938 0.0
H1520 H 0.63878 0.73599 0.09157 0.0
H1521 H 0.6501 0.79175 0.02006 0.0
H1522 H 0.63575 0.78143 0.9288 0.0
H1523 H 0.62565 0.75555 0.86562 0.0
H1524 H 0.61763 0.69882 0.93194 0.0
H1525 H 0.6244 0.71048 0.02897 0.0
C1526 C 0.6378 0.74588 0.05614 0.0
C1527 C 0.6459 0.76446 0.06217 0.0
C1528 C 0.63004 0.73968 0.00286 0.0
C1529 C 0.64445 0.77722 0.01606 0.0
C1530 C 0.63612 0.77139 0.96392 0.0
C1531 C 0.6244 0.74591 0.90168 0.0
C1532 C 0.62077 0.72646 0.89211 0.0
C1533 C 0.62957 0.75251 0.9563 0.0
C1534 C 0.62005 0.71394 0.93875 0.0
C1535 C 0.62422 0.72057 0.99399 0.0
H1536 H 0.51984 0.39367 0.83223 0.0
H1537 H 0.45722 0.38305 0.90034 0.0
H1538 H 0.44306 0.37922 0.80329 0.0
H1539 H 0.44802 0.38331 0.69912 0.0
H1540 H 0.51087 0.39463 0.63322 0.0
H1541 H 0.52572 0.39295 0.72903 0.0
C1542 C 0.50314 0.39031 0.82556 0.0
C1543 C 0.48939 0.38907 0.87251 0.0
C1544 C 0.49531 0.38799 0.77016 0.0
C1545 C 0.46793 0.38428 0.86426 0.0
C1546 C 0.45989 0.38209 0.80897 0.0
C1547 C 0.46505 0.38475 0.70593 0.0
C1548 C 0.47846 0.38861 0.65939 0.0
C1549 C 0.47334 0.38449 0.76155 0.0
C1550 C 0.50041 0.39094 0.66829 0.0
C1551 C 0.50884 0.39035 0.72317 0.0
H1552 H 0.32927 0.73398 0.37987 0.0
H1553 H 0.39405 0.74435 0.32681 0.0
H1554 H 0.40244 0.75694 0.42195 0.0
H1555 H 0.39041 0.76693 0.51864 0.0
H1556 H 0.32448 0.75879 0.56549 0.0
H1557 H 0.31748 0.7435 0.47424 0.0
C1558 C 0.34536 0.73869 0.38917 0.0
C1559 C 0.36107 0.73807 0.3464 0.0
C1560 C 0.34975 0.74659 0.44276 0.0
C1561 C 0.38171 0.74457 0.35911 0.0
C1562 C 0.38645 0.75186 0.41339 0.0
C1563 C 0.37457 0.76171 0.5088 0.0
C1564 C 0.35796 0.7641 0.54871 0.0
C1565 C 0.37047 0.75327 0.4553 0.0
C1566 C 0.33748 0.75736 0.53533 0.0
C1567 C 0.33347 0.74852 0.48324 0.0
H1568 H 0.00972 0.60012 0.13413 0.0
H1569 H 0.07504 0.61675 0.15876 0.0
H1570 H 0.0691 0.61898 0.26239 0.0
H1571 H 0.04551 0.61338 0.34654 0.0
H1572 H 0.98106 0.59417 0.31761 0.0
H1573 H 0.98628 0.59603 0.21521 0.0
C1574 C 0.02248 0.60474 0.16219 0.0
C1575 C 0.04254 0.60883 0.13943 0.0
C1576 C 0.01912 0.60522 0.22099 0.0
C1577 C 0.0593 0.61397 0.17586 0.0
C1578 C 0.05592 0.61511 0.23489 0.0
C1579 C 0.03271 0.60965 0.31757 0.0
C1580 C 0.01312 0.60323 0.33943 0.0
C1581 C 0.03597 0.6103 0.25812 0.0
C1582 C 0.9965 0.59862 0.30171 0.0
C1583 C 0.99938 0.5998 0.24315 0.0
H1584 H 0.1719 0.27806 0.90378 0.0
H1585 H 0.10794 0.26601 0.84721 0.0
H1586 H 0.09856 0.25461 0.94273 0.0
H1587 H 0.11 0.24451 0.03858 0.0
H1588 H 0.17527 0.25337 0.09003 0.0
H1589 H 0.18279 0.26952 0.00014 0.0
C1590 C 0.15576 0.2734 0.91279 0.0
C1591 C 0.14059 0.2729 0.86897 0.0
C1592 C 0.15089 0.26594 0.96652 0.0
C1593 C 0.11984 0.26652 0.88065 0.0
C1594 C 0.11454 0.25989 0.93501 0.0
C1595 C 0.12578 0.25019 0.03017 0.0
C1596 C 0.14212 0.24764 0.07028 0.0
C1597 C 0.13016 0.25893 0.97768 0.0
C1598 C 0.16254 0.25494 0.05916 0.0
C1599 C 0.16682 0.26425 0.00801 0.0
H1600 H 0.51192 0.60764 0.67231 0.0
H1601 H 0.45144 0.62718 0.60826 0.0
H1602 H 0.43735 0.62869 0.70624 0.0
H1603 H 0.44153 0.62079 0.80928 0.0
H1604 H 0.50239 0.60074 0.86978 0.0
H1605 H 0.5173 0.60339 0.77424 0.0
C1606 C 0.49571 0.61241 0.68002 0.0
C1607 C 0.48252 0.61694 0.6338 0.0
C1608 C 0.4879 0.61319 0.73574 0.0
C1609 C 0.46173 0.6235 0.64368 0.0
C1610 C 0.45371 0.62428 0.69948 0.0
C1611 C 0.45814 0.61743 0.80132 0.0
C1612 C 0.47107 0.61103 0.84631 0.0
C1613 C 0.4665 0.61863 0.74574 0.0
C1614 C 0.49242 0.60626 0.83589 0.0
C1615 C 0.50087 0.60756 0.78124 0.0
H1616 H 0.10601 0.76269 0.45833 0.0
H1617 H 0.16851 0.74638 0.39894 0.0
H1618 H 0.17599 0.73105 0.48993 0.0
H1619 H 0.16623 0.72459 0.58823 0.0
H1620 H 0.10533 0.74312 0.65316 0.0
H1621 H 0.0956 0.75497 0.55822 0.0
C1622 C 0.12112 0.75557 0.46536 0.0
C1623 C 0.13674 0.75575 0.42221 0.0
C1624 C 0.12562 0.74722 0.51876 0.0
C1625 C 0.15634 0.74661 0.43178 0.0
C1626 C 0.16062 0.73779 0.48372 0.0
C1627 C 0.15065 0.73092 0.5816 0.0
C1628 C 0.13652 0.73293 0.62775 0.0
C1629 C 0.14557 0.73834 0.52781 0.0
C1630 C 0.1165 0.74136 0.61831 0.0
C1631 C 0.11098 0.74823 0.56409 0.0
H1632 H 0.98531 0.39393 0.14845 0.0
H1633 H 0.04716 0.37902 0.08245 0.0
H1634 H 0.06141 0.37732 0.18007 0.0
H1635 H 0.05671 0.38365 0.2835 0.0
H1636 H 0.99446 0.39853 0.34721 0.0
H1637 H 0.97962 0.39623 0.25131 0.0
C1638 C 0.00186 0.39012 0.15575 0.0
C1639 C 0.01538 0.38696 0.10917 0.0
C1640 C 0.00972 0.38907 0.21138 0.0
C1641 C 0.03665 0.38166 0.11826 0.0
C1642 C 0.04473 0.38074 0.17383 0.0
C1643 C 0.03983 0.38593 0.27613 0.0
C1644 C 0.02652 0.39084 0.32193 0.0
C1645 C 0.03152 0.38491 0.22063 0.0
C1646 C 0.00478 0.39419 0.31247 0.0
C1647 C 0.99637 0.39311 0.25769 0.0
H1648 H 0.33027 0.2724 0.08627 0.0
H1649 H 0.39646 0.27063 0.13488 0.0
H1650 H 0.40582 0.25692 0.04194 0.0
H1651 H 0.39457 0.24325 0.94981 0.0
H1652 H 0.32763 0.24236 0.90695 0.0
H1653 H 0.31912 0.25902 0.99509 0.0
C1654 C 0.3468 0.26943 0.07591 0.0
C1655 C 0.36273 0.27274 0.1166 0.0
C1656 C 0.35183 0.26065 0.02402 0.0
C1657 C 0.38401 0.26834 0.10362 0.0
C1658 C 0.38931 0.26037 0.05083 0.0
C1659 C 0.37814 0.24671 0.95987 0.0
C1660 C 0.36176 0.24142 0.92215 0.0
C1661 C 0.37326 0.25604 0.01123 0.0
C1662 C 0.34053 0.24598 0.93568 0.0
C1663 C 0.33563 0.25567 0.98584 0.0
H1664 H 0.97039 0.03329 0.96713 0.0
H1665 H 0.02393 0.02193 0.07758 0.0
H1666 H 0.01399 0.98832 0.08193 0.0
H1667 H 0.99081 0.96205 0.05255 0.0
H1668 H 0.93726 0.97301 0.94191 0.0
H1669 H 0.9465 0.00693 0.93952 0.0
C1670 C 0.97984 0.02348 0.9924 0.0
C1671 C 0.99794 0.03016 0.02193 0.0
C1672 C 0.97408 0.00411 0.9945 0.0
C1673 C 0.00996 0.01723 0.05443 0.0
C1674 C 0.0043 0.99798 0.05687 0.0
C1675 C 0.98109 0.97183 0.02791 0.0
C1676 C 0.96339 0.96495 0.99723 0.0
C1677 C 0.98651 0.99125 0.02674 0.0
C1678 C 0.95097 0.97789 0.96583 0.0
C1679 C 0.95627 0.99729 0.96445 0.0
H1680 H 0.22315 0.79498 0.21795 0.0
H1681 H 0.20298 0.74376 0.30366 0.0
H1682 H 0.23795 0.72931 0.28767 0.0
H1683 H 0.27388 0.7308 0.24624 0.0
H1684 H 0.29368 0.78104 0.15531 0.0
H1685 H 0.25937 0.79637 0.17585 0.0
C1686 C 0.22666 0.78081 0.2339 0.0
C1687 C 0.21081 0.77052 0.26283 0.0
C1688 C 0.24655 0.77231 0.22252 0.0
C1689 C 0.21516 0.75198 0.28198 0.0
C1690 C 0.23507 0.74369 0.27259 0.0
C1691 C 0.27043 0.74495 0.23002 0.0
C1692 C 0.28578 0.75455 0.19741 0.0
C1693 C 0.25075 0.75358 0.24206 0.0
C1694 C 0.28172 0.77324 0.17911 0.0
C1695 C 0.2622 0.78202 0.19113 0.0
H1696 H 0.55295 0.02605 0.46372 0.0
H1697 H 0.49746 0.04727 0.55229 0.0
H1698 H 0.48229 0.01544 0.55491 0.0
H1699 H 0.48408 0.98144 0.53051 0.0
H1700 H 0.53939 0.95991 0.4421 0.0
H1701 H 0.55512 0.99167 0.44128 0.0
C1702 C 0.53759 0.02367 0.48371 0.0
C1703 C 0.52642 0.03912 0.50753 0.0
C1704 C 0.52878 0.00516 0.48516 0.0
C1705 C 0.50649 0.03573 0.53337 0.0
C1706 C 0.49771 0.01747 0.53498 0.0
C1707 C 0.4996 0.98368 0.5113 0.0
C1708 C 0.51044 0.96827 0.48637 0.0
C1709 C 0.50862 0.00207 0.51077 0.0
C1710 C 0.5306 0.97149 0.46163 0.0
C1711 C 0.53966 0.98969 0.46104 0.0
H1712 H 0.29654 0.25602 0.76332 0.0
H1713 H 0.28085 0.1973 0.72902 0.0
H1714 H 0.2438 0.20632 0.70985 0.0
H1715 H 0.21595 0.23102 0.70273 0.0
H1716 H 0.23077 0.2889 0.74872 0.0
H1717 H 0.26822 0.28027 0.76287 0.0
C1718 C 0.28497 0.2452 0.75179 0.0
C1719 C 0.29134 0.22604 0.74733 0.0
C1720 C 0.2637 0.25043 0.74215 0.0
C1721 C 0.27622 0.21212 0.73303 0.0
C1722 C 0.25511 0.21728 0.72176 0.0
C1723 C 0.22752 0.24173 0.71517 0.0
C1724 C 0.22107 0.2608 0.72128 0.0
C1725 C 0.24871 0.23641 0.72597 0.0
C1726 C 0.23579 0.27441 0.74026 0.0
C1727 C 0.25707 0.26939 0.74932 0.0
H1728 H 0.02116 0.98023 0.46168 0.0
H1729 H 0.96023 0.95743 0.51305 0.0
H1730 H 0.94522 0.98938 0.5168 0.0
H1731 H 0.9494 0.02417 0.50801 0.0
H1732 H 0.01034 0.04694 0.45659 0.0
H1733 H 0.02509 0.01496 0.45057 0.0
C1734 C 0.00458 0.98226 0.47327 0.0
C1735 C 0.99194 0.96641 0.48714 0.0
C1736 C 0.99594 1.0008 0.47575 0.0
C1737 C 0.97044 0.96935 0.50226 0.0
C1738 C 0.96177 0.98766 0.50455 0.0
C1739 C 0.96588 0.02211 0.49549 0.0
C1740 C 0.97867 0.038 0.48301 0.0
C1741 C 0.97439 0.00355 0.49189 0.0
C1742 C 1.00003 0.03502 0.46659 0.0
C1743 C 0.00856 0.01668 0.46304 0.0
H1744 H 0.2118 0.77531 0.78925 0.0
H1745 H 0.22475 0.71904 0.72465 0.0
H1746 H 0.2609 0.7286 0.69866 0.0
H1747 H 0.28916 0.75277 0.6967 0.0
H1748 H 0.2752 0.81028 0.74918 0.0
H1749 H 0.23902 0.80065 0.7769 0.0
C1750 C 0.22268 0.76517 0.76992 0.0
C1751 C 0.21627 0.74613 0.76247 0.0
C1752 C 0.24312 0.77108 0.75249 0.0
C1753 C 0.22994 0.73339 0.73442 0.0
C1754 C 0.25046 0.73894 0.71864 0.0
C1755 C 0.27807 0.76322 0.7136 0.0
C1756 C 0.28471 0.78216 0.7211 0.0
C1757 C 0.2573 0.75768 0.72813 0.0
C1758 C 0.27027 0.79565 0.7426 0.0
C1759 C 0.24969 0.79011 0.75885 0.0
H1760 H 0.54997 0.97671 0.00998 0.0
H1761 H 0.49404 0.95568 0.9234 0.0
H1762 H 0.47899 0.98763 0.92123 0.0
H1763 H 0.48124 0.02172 0.94503 0.0
H1764 H 0.53714 0.04284 0.03146 0.0
H1765 H 0.55249 0.01096 0.0323 0.0
C1766 C 0.53452 0.97914 0.99059 0.0
C1767 C 0.52321 0.96376 0.96707 0.0
C1768 C 0.52584 0.99767 0.98936 0.0
C1769 C 0.50318 0.96721 0.94198 0.0
C1770 C 0.49449 0.98552 0.94065 0.0
C1771 C 0.4968 0.01935 0.96384 0.0
C1772 C 0.50793 0.03469 0.98815 0.0
C1773 C 0.50562 1.00088 0.96436 0.0
C1774 C 0.52813 0.03132 0.01241 0.0
C1775 C 0.53697 0.01305 0.013 0.0
H1776 H 0.20871 0.25832 0.22451 0.0
H1777 H 0.22524 0.19958 0.25541 0.0
H1778 H 0.262 0.20891 0.27697 0.0
H1779 H 0.28946 0.23386 0.28653 0.0
H1780 H 0.27418 0.29167 0.24096 0.0
H1781 H 0.23683 0.28284 0.22646 0.0
C1782 C 0.22042 0.24758 0.23585 0.0
C1783 C 0.21436 0.22832 0.23864 0.0
C1784 C 0.2416 0.25299 0.24644 0.0
C1785 C 0.22964 0.21448 0.25266 0.0
C1786 C 0.25059 0.21983 0.26529 0.0
C1787 C 0.27782 0.24452 0.27416 0.0
C1788 C 0.28412 0.26365 0.2686 0.0
C1789 C 0.25673 0.23904 0.26245 0.0
C1790 C 0.26928 0.27716 0.24948 0.0
C1791 C 0.24806 0.27202 0.24006 0.0
H1792 H 0.77327 0.22397 0.77134 0.0
H1793 H 0.79456 0.27816 0.70685 0.0
H1794 H 0.7593 0.29194 0.72454 0.0
H1795 H 0.7222 0.28855 0.7587 0.0
H1796 H 0.70029 0.23368 0.81668 0.0
H1797 H 0.7358 0.22018 0.80148 0.0
C1798 C 0.76995 0.23864 0.75982 0.0
C1799 C 0.78618 0.24987 0.7359 0.0
C1800 C 0.7496 0.24642 0.76994 0.0
C1801 C 0.78208 0.26914 0.72395 0.0
C1802 C 0.76198 0.27704 0.73435 0.0
C1803 C 0.72534 0.27371 0.76857 0.0
C1804 C 0.70881 0.2622 0.78972 0.0
C1805 C 0.74562 0.26586 0.75763 0.0
C1806 C 0.71287 0.24286 0.80094 0.0
C1807 C 0.73314 0.23512 0.79207 0.0
H1808 H 0.71132 0.73194 0.22653 0.0
H1809 H 0.72006 0.78841 0.29411 0.0
H1810 H 0.75737 0.78128 0.31564 0.0
H1811 H 0.78782 0.75899 0.31328 0.0
H1812 H 0.77767 0.70101 0.25927 0.0
H1813 H 0.74063 0.70849 0.23488 0.0
C1814 C 0.72153 0.74268 0.2455 0.0
C1815 C 0.71352 0.76112 0.25499 0.0
C1816 C 0.74263 0.73809 0.26059 0.0
C1817 C 0.72641 0.77458 0.28266 0.0
C1818 C 0.74761 0.77039 0.29591 0.0
C1819 C 0.77738 0.74798 0.29676 0.0
C1820 C 0.78537 0.7295 0.28795 0.0
C1821 C 0.75597 0.75225 0.28444 0.0
C1822 C 0.77174 0.71529 0.26689 0.0
C1823 C 0.75063 0.7196 0.25256 0.0
H1824 H 0.73859 0.22693 0.26712 0.0
H1825 H 0.71162 0.2799 0.3251 0.0
H1826 H 0.74595 0.29596 0.31086 0.0
H1827 H 0.78402 0.29465 0.2825 0.0
H1828 H 0.81086 0.24093 0.22923 0.0
H1829 H 0.77635 0.22543 0.24073 0.0
C1830 C 0.74044 0.24188 0.27777 0.0
C1831 C 0.72302 0.25211 0.2992 0.0
C1832 C 0.76014 0.25092 0.26949 0.0
C1833 C 0.72513 0.2717 0.31004 0.0
C1834 C 0.74468 0.28087 0.30164 0.0
C1835 C 0.78216 0.27962 0.27298 0.0
C1836 C 0.79983 0.26896 0.25468 0.0
C1837 C 0.76234 0.27062 0.28134 0.0
C1838 C 0.79741 0.24941 0.24331 0.0
C1839 C 0.77771 0.24053 0.24989 0.0
H1840 H 0.71337 0.71142 0.78248 0.0
H1841 H 0.68846 0.76501 0.72223 0.0
H1842 H 0.72347 0.77981 0.73286 0.0
H1843 H 0.76098 0.77766 0.76097 0.0
H1844 H 0.7858 0.72486 0.82669 0.0
H1845 H 0.75108 0.70949 0.81273 0.0
C1846 C 0.71582 0.72623 0.77099 0.0
C1847 C 0.69866 0.73711 0.75087 0.0
C1848 C 0.7358 0.73483 0.77922 0.0
C1849 C 0.70166 0.75641 0.73732 0.0
C1850 C 0.72158 0.76488 0.74358 0.0
C1851 C 0.75854 0.76292 0.77341 0.0
C1852 C 0.77542 0.75252 0.79683 0.0
C1853 C 0.73867 0.7543 0.7652 0.0
C1854 C 0.77264 0.73318 0.81008 0.0
C1855 C 0.75291 0.72441 0.80177 0.0
H1856 H 0.51972 0.52508 0.56173 0.0
H1857 H 0.46332 0.54428 0.47352 0.0
H1858 H 0.44895 0.51207 0.47431 0.0
H1859 H 0.45303 0.4779 0.49574 0.0
H1860 H 0.50973 0.45866 0.58252 0.0
H1861 H 0.52311 0.49116 0.58673 0.0
C1862 C 0.50422 0.52222 0.54314 0.0
C1863 C 0.49273 0.53708 0.5174 0.0
C1864 C 0.49605 0.50354 0.54317 0.0
C1865 C 0.47264 0.53311 0.49341 0.0
C1866 C 0.46435 0.51466 0.49377 0.0
C1867 C 0.46822 0.48086 0.51593 0.0
C1868 C 0.48035 0.46582 0.5384 0.0
C1869 C 0.47601 0.49968 0.51785 0.0
C1870 C 0.50005 0.46992 0.56445 0.0
C1871 C 0.50778 0.48855 0.56696 0.0
H1872 H 0.9837 0.47829 0.03515 0.0
H1873 H 0.03374 0.45823 0.92404 0.0
H1874 H 0.04911 0.49008 0.92042 0.0
H1875 H 0.04799 0.52417 0.94675 0.0
H1876 H 0.99791 0.54393 0.05844 0.0
H1877 H 0.9832 0.51198 0.06377 0.0
C1878 C 0.998 0.48088 0.01036 0.0
C1879 C 0.00744 0.46585 0.97988 0.0
C1880 C 0.00685 0.49932 0.00833 0.0
C1881 C 0.02605 0.46949 0.948 0.0
C1882 C 0.0349 0.48776 0.94577 0.0
C1883 C 0.03392 0.52144 0.97239 0.0
C1884 C 0.02411 0.53653 0.00186 0.0
C1885 C 0.02538 0.50286 0.97545 0.0
C1886 C 0.00586 0.53268 0.03502 0.0
C1887 C 0.99735 0.51435 0.0382 0.0
H1888 H 0.47418 0.46808 0.02265 0.0
H1889 H 0.53139 0.47973 0.92648 0.0
H1890 H 0.52057 0.51303 0.91603 0.0
H1891 H 0.49573 0.53906 0.93745 0.0
H1892 H 0.43854 0.52777 0.03393 0.0
H1893 H 0.44843 0.49403 0.04067 0.0
C1894 C 0.48425 0.47787 -0.00087 0.0
C1895 C 0.50367 0.47137 0.97558 0.0
C1896 C 0.47794 0.49705 0.99344 0.0
C1897 C 0.51643 0.48428 0.9451 0.0
C1898 C 0.51025 0.50335 0.93918 0.0
C1899 C 0.48531 0.52923 0.95975 0.0
C1900 C 0.46642 0.53601 0.98541 0.0
C1901 C 0.49117 0.50993 0.96367 0.0
C1902 C 0.45313 0.52299 0.0138 0.0
C1903 C 0.45883 0.5037 0.01779 0.0
H1904 H 0.99893 0.4611 0.43783 0.0
H1905 H 0.06076 0.47185 0.51174 0.0
H1906 H 0.05188 0.50564 0.52152 0.0
H1907 H 0.0265 0.53193 0.51004 0.0
H1908 H 0.96472 0.52134 0.43569 0.0
H1909 H 0.97367 0.48755 0.42513 0.0
C1910 C 0.01051 0.47082 0.45602 0.0
C1911 C 0.03051 0.46394 0.47412 0.0
C1912 C 0.00528 0.49021 0.46151 0.0
C1913 C 0.04529 0.47676 0.49745 0.0
C1914 C 0.0402 0.49607 0.50311 0.0
C1915 C 0.01494 0.52226 0.49151 0.0
C1916 C 0.99491 0.52916 0.47381 0.0
C1917 C 0.02023 0.50292 0.48546 0.0
C1918 C 0.98021 0.51641 0.4497 0.0
C1919 C 0.98534 0.4971 0.44367 0.0
H1920 H 0.07515 0.14024 0.99093 0.0
H1921 H 0.05548 0.10896 0.13994 0.0
H1922 H 0.08009 0.12751 0.19905 0.0
H1923 H 0.10282 0.1562 0.20979 0.0
H1924 H 0.12275 0.18684 0.05986 0.0
H1925 H 0.10284 0.1648 -0.00078 0.0
C1926 C 0.07674 0.13716 0.03604 0.0
C1927 C 0.06355 0.12341 0.0613 0.0
C1928 C 0.09091 0.14784 0.06951 0.0
C1929 C 0.06568 0.11943 0.1197 0.0
C1930 C 0.0796 0.13013 0.15352 0.0
C1931 C 0.1034 0.1575 0.16371 0.0
C1932 C 0.11427 0.17289 0.13891 0.0
C1933 C 0.09172 0.14486 0.1292 0.0
C1934 C 0.11467 0.17485 0.07941 0.0
C1935 C 0.10313 0.16239 0.04487 0.0
H1936 H 0.1159 0.82431 0.41868 0.0
H1937 H 0.09834 0.8422 0.24955 0.0
H1938 H 0.07709 0.86835 0.28908 0.0
H1939 H 0.05885 0.88256 0.37217 0.0
H1940 H 0.07444 0.86302 0.54108 0.0
H1941 H 0.10148 0.84153 0.502 0.0
C1942 C 0.108 0.83439 0.39069 0.0
C1943 C 0.10873 0.83153 0.33145 0.0
C1944 C 0.09535 0.84905 0.41392 0.0
C1945 C 0.09806 0.8443 0.29531 0.0
C1946 C 0.08584 0.85918 0.31795 0.0
C1947 C 0.06885 0.87417 0.40037 0.0
C1948 C 0.06495 0.87451 0.45939 0.0
C1949 C 0.08373 0.86126 0.37724 0.0
C1950 C 0.07742 0.86313 0.49559 0.0
C1951 C 0.09272 0.85071 0.47316 0.0
H1952 H 0.37937 0.83232 0.56063 0.0
H1953 H 0.4025 0.84622 0.72833 0.0
H1954 H 0.42396 0.87221 0.68893 0.0
H1955 H 0.44084 0.8869 0.60494 0.0
H1956 H 0.42036 0.87067 0.4367 0.0
H1957 H 0.39268 0.85022 0.47747 0.0
C1958 C 0.38857 0.84152 0.58849 0.0
C1959 C 0.38942 0.83754 0.64707 0.0
C1960 C 0.40139 0.85599 0.56517 0.0
C1961 C 0.40167 0.84915 0.68304 0.0
C1962 C 0.41397 0.86395 0.66049 0.0
C1963 C 0.42967 0.8795 0.57747 0.0
C1964 C 0.43234 0.88039 0.51809 0.0
C1965 C 0.41462 0.86699 0.60136 0.0
C1966 C 0.41831 0.87033 0.48257 0.0
C1967 C 0.40268 0.85848 0.5059 0.0
H1968 H 0.44455 0.11903 0.86285 0.0
H1969 H 0.41904 0.13285 0.02815 0.0
H1970 H 0.39265 0.15398 0.98422 0.0
H1971 H 0.38187 0.17305 0.90079 0.0
H1972 H 0.41036 0.16174 0.73716 0.0
H1973 H 0.43049 0.13508 0.77759 0.0
C1974 C 0.43255 0.12605 0.88876 0.0
C1975 C 0.43334 0.12423 0.94832 0.0
C1976 C 0.41833 0.13897 0.86337 0.0
C1977 C 0.41834 0.13384 0.98207 0.0
C1978 C 0.40347 0.14608 0.95699 0.0
C1979 C 0.39195 0.16427 0.87386 0.0
C1980 C 0.39468 0.16915 0.81629 0.0
C1981 C 0.40401 0.14944 0.89799 0.0
C1982 C 0.40807 0.15811 0.78162 0.0
C1983 C 0.4196 0.14292 0.80479 0.0
H1984 H 0.87423 0.82059 0.81132 0.0
H1985 H 0.82492 0.8435 0.92012 0.0
H1986 H 0.85012 0.86666 0.95889 0.0
H1987 H 0.88746 0.87757 0.97087 0.0
H1988 H 0.93665 0.85256 0.86636 0.0
H1989 H 0.91023 0.83324 0.81674 0.0
C1990 C 0.86878 0.83085 0.84274 0.0
C1991 C 0.84772 0.83006 0.86318 0.0
C1992 C 0.88349 0.84367 0.86623 0.0
C1993 C 0.84107 0.84361 0.90382 0.0
C1994 C 0.85552 0.85683 0.92627 0.0
C1995 C 0.89222 0.86813 0.9365 0.0
C1996 C 0.9139 0.8663 0.92253 0.0
C1997 C 0.87696 0.85656 0.90924 0.0
C1998 C 0.92002 0.85397 0.87823 0.0
C1999 C 0.90494 0.84294 0.84983 0.0
H2000 H 0.92864 0.13976 0.6312 0.0
H2001 H 0.89022 0.12256 0.48815 0.0
H2002 H 0.86018 0.14143 0.5252 0.0
H2003 H 0.84678 0.16609 0.59222 0.0
H2004 H 0.88627 0.18304 0.73441 0.0
H2005 H 0.91378 0.16082 0.7042 0.0
C2006 C 0.9135 0.13983 0.60885 0.0
C2007 C 0.91156 0.1299 0.55706 0.0
C2008 C 0.89658 0.15084 0.62998 0.0
C2009 C 0.89195 0.12999 0.52838 0.0
C2010 C 0.87489 0.14092 0.54933 0.0
C2011 C 0.86122 0.16468 0.61725 0.0
C2012 C 0.86448 0.17657 0.66512 0.0
C2013 C 0.87726 0.15191 0.59921 0.0
C2014 C 0.88332 0.17437 0.69702 0.0
C2015 C 0.89915 0.16164 0.67975 0.0
H2016 H 0.62955 0.17681 0.31081 0.0
H2017 H 0.67459 0.16478 0.4452 0.0
H2018 H 0.65034 0.14119 0.48541 0.0
H2019 H 0.61404 0.12723 0.49028 0.0
H2020 H 0.56895 0.14049 0.3576 0.0
H2021 H 0.59547 0.15998 0.30869 0.0
C2022 C 0.6343 0.16881 0.34828 0.0
C2023 C 0.6538 0.1729 0.37523 0.0
C2024 C 0.62011 0.15546 0.37191 0.0
C2025 C 0.65964 0.16215 0.42356 0.0
C2026 C 0.64571 0.14864 0.44688 0.0
C2027 C 0.61035 0.13395 0.44982 0.0
C2028 C 0.58967 0.13246 0.42737 0.0
C2029 C 0.62558 0.14564 0.4226 0.0
C2030 C 0.58484 0.14146 0.37545 0.0
C2031 C 0.59995 0.15269 0.34765 0.0
H2032 H 0.56692 0.85816 0.10642 0.0
H2033 H 0.61386 0.8851 -0.00073 0.0
H2034 H 0.64249 0.86909 0.05266 0.0
H2035 H 0.65341 0.8444 0.122 0.0
H2036 H 0.60561 0.81756 0.22784 0.0
H2037 H 0.57807 0.83685 0.18313 0.0
C2038 C 0.58347 0.86069 0.09521 0.0
C2039 C 0.58838 0.87248 0.04854 0.0
C2040 C 0.59962 0.85145 0.12579 0.0
C2041 C 0.60978 0.876 0.03495 0.0
C2042 C 0.62608 0.86679 0.06533 0.0
C2043 C 0.63706 0.84305 0.13637 0.0
C2044 C 0.63165 0.82922 0.17778 0.0
C2045 C 0.62112 0.85405 0.10981 0.0
C2046 C 0.61032 0.82788 0.19586 0.0
C2047 C 0.59449 0.83887 0.17016 0.0
H2048 H 0.55212 0.62234 0.63412 0.0
H2049 H 0.5778 0.63962 0.47189 0.0
H2050 H 0.60244 0.66147 0.51948 0.0
H2051 H 0.61182 0.67967 0.60576 0.0
H2052 H 0.58347 0.66446 0.76672 0.0
H2053 H 0.56496 0.63768 0.72191 0.0
C2054 C 0.56375 0.63036 0.60962 0.0
C2055 C 0.56343 0.62935 0.54989 0.0
C2056 C 0.57705 0.64356 0.63717 0.0
C2057 C 0.578 0.64015 0.51804 0.0
C2058 C 0.59193 0.65274 0.54522 0.0
C2059 C 0.60206 0.6701 0.63106 0.0
C2060 C 0.59883 0.67395 0.68911 0.0
C2061 C 0.59089 0.65519 0.60453 0.0
C2062 C 0.58595 0.66178 0.72176 0.0
C2063 C 0.57538 0.6465 0.69616 0.0
H2064 H 0.56063 0.38116 0.87842 0.0
H2065 H 0.58284 0.36754 0.04722 0.0
H2066 H 0.60895 0.34524 0.00761 0.0
H2067 H 0.62081 0.3256 0.92633 0.0
H2068 H 0.59602 0.33713 0.7587 0.0
H2069 H 0.57593 0.36436 0.79558 0.0
C2070 C 0.57177 0.3738 0.90613 0.0
C2071 C 0.57003 0.37602 0.96548 0.0
C2072 C 0.58611 0.36042 0.88307 0.0
C2073 C 0.58405 0.36607 0.00137 0.0
C2074 C 0.59888 0.35325 0.97871 0.0
C2075 C 0.61166 0.33459 0.89772 0.0
C2076 C 0.61 0.32958 0.83992 0.0
C2077 C 0.59944 0.34972 0.91982 0.0
C2078 C 0.59761 0.34088 0.80329 0.0
C2079 C 0.58602 0.35636 0.82447 0.0
H2080 H 0.8831 0.32856 0.09506 0.0
H2081 H 0.91305 0.34438 0.25321 0.0
H2082 H 0.9324 0.37004 0.20514 0.0
H2083 H 0.94549 0.38392 0.115 0.0
H2084 H 0.91773 0.36603 0.95593 0.0
H2085 H 0.89241 0.34572 0.00691 0.0
C2086 C 0.89323 0.33815 0.11915 0.0
C2087 C 0.89664 0.33474 0.17741 0.0
C2088 C 0.90483 0.35243 0.09071 0.0
C2089 C 0.9102 0.34684 0.20829 0.0
C2090 C 0.92132 0.36145 0.18073 0.0
C2091 C 0.93328 0.37616 0.09191 0.0
C2092 C 0.93323 0.37654 0.03201 0.0
C2093 C 0.91945 0.36385 0.1215 0.0
C2094 C 0.91785 0.36603 0.00211 0.0
C2095 C 0.90352 0.3543 0.03125 0.0
H2096 H 0.91839 0.62758 0.47848 0.0
H2097 H 0.96976 0.63141 0.35683 0.0
H2098 H 0.94841 0.65203 0.29597 0.0
H2099 H 0.91765 0.6728 0.28476 0.0
H2100 H 0.86598 0.67026 0.40554 0.0
H2101 H 0.88456 0.64515 0.45868 0.0
C2102 C 0.92455 0.6326 0.43797 0.0
C2103 C 0.94558 0.62821 0.42211 0.0
C2104 C 0.91224 0.64485 0.40338 0.0
C2105 C 0.9536 0.63478 0.36977 0.0
C2106 C 0.94146 0.6466 0.33506 0.0
C2107 C 0.91022 0.66641 0.32192 0.0
C2108 C 0.89064 0.67346 0.34159 0.0
C2109 C 0.92112 0.65232 0.35251 0.0
C2110 C 0.88106 0.66498 0.38949 0.0
C2111 C 0.89179 0.65077 0.42022 0.0
H2112 H 0.35115 0.34322 0.40614 0.0
H2113 H 0.39218 0.32024 0.27484 0.0
H2114 H 0.4215 0.33978 0.3091 0.0
H2115 H 0.43672 0.36038 0.38266 0.0
H2116 H 0.39644 0.38382 0.51401 0.0
H2117 H 0.36553 0.3672 0.47317 0.0
C2118 C 0.36638 0.3427 0.38432 0.0
C2119 C 0.36943 0.32993 0.33844 0.0
C2120 C 0.38339 0.35388 0.4047 0.0
C2121 C 0.38931 0.32968 0.31057 0.0
C2122 C 0.40618 0.34083 0.33026 0.0
C2123 C 0.42109 0.362 0.40198 0.0
C2124 C 0.41882 0.37301 0.4517 0.0
C2125 C 0.40358 0.35245 0.37835 0.0
C2126 C 0.39851 0.37535 0.47578 0.0
C2127 C 0.38091 0.36578 0.45257 0.0
H2128 H 0.38289 0.68292 0.182 0.0
H2129 H 0.33142 0.66164 0.07788 0.0
H2130 H 0.35526 0.63807 0.03554 0.0
H2131 H 0.39213 0.62615 0.01891 0.0
H2132 H 0.44316 0.64857 0.12229 0.0
H2133 H 0.41819 0.66869 0.17384 0.0
C2134 C 0.37669 0.67292 0.15089 0.0
C2135 C 0.35538 0.67437 0.13283 0.0
C2136 C 0.39059 0.65964 0.12565 0.0
C2137 C 0.34777 0.66107 0.0926 0.0
C2138 C 0.36145 0.64759 0.06794 0.0
C2139 C 0.39763 0.63522 0.05333 0.0
C2140 C 0.41953 0.63614 0.06585 0.0
C2141 C 0.38311 0.64715 0.08264 0.0
C2142 C 0.42644 0.64791 0.11084 0.0
C2143 C 0.41217 0.65942 0.14058 0.0
H2144 H 0.10764 0.62124 0.94852 0.0
H2145 H 0.05604 0.64491 0.85008 0.0
H2146 H 0.08091 0.66516 0.79796 0.0
H2147 H 0.11625 0.67957 0.79077 0.0
H2148 H 0.16803 0.65695 0.89141 0.0
H2149 H 0.14439 0.63283 0.93121 0.0
C2150 C 0.10203 0.63047 0.91459 0.0
C2151 C 0.0801 0.63178 0.90346 0.0
C2152 C 0.11642 0.64253 0.8857 0.0
C2153 C 0.0729 0.64387 0.8597 0.0
C2154 C 0.08709 0.65549 0.83 0.0
C2155 C 0.12253 0.66916 0.82054 0.0
C2156 C 0.14385 0.67043 0.83871 0.0
C2157 C 0.10875 0.65551 0.84426 0.0
C2158 C 0.15165 0.65657 0.87693 0.0
C2159 C 0.1381 0.64275 0.90004 0.0
H2160 H 0.06696 0.35294 0.5881 0.0
H2161 H 0.10862 0.37855 0.46374 0.0
H2162 H 0.13928 0.36191 0.506 0.0
H2163 H 0.15343 0.3381 0.574 0.0
H2164 H 0.11108 0.31359 0.69968 0.0
H2165 H 0.0816 0.33212 0.66182 0.0
C2166 C 0.08279 0.3549 0.57036 0.0
C2167 C 0.08558 0.36659 0.52232 0.0
C2168 C 0.10019 0.34555 0.59523 0.0
C2169 C 0.10616 0.36947 0.50051 0.0
C2170 C 0.12362 0.35995 0.52463 0.0
C2171 C 0.13785 0.33701 0.59372 0.0
C2172 C 0.13454 0.32416 0.63921 0.0
C2173 C 0.12075 0.34768 0.57145 0.0
C2174 C 0.11419 0.32314 0.66436 0.0
C2175 C 0.09722 0.33369 0.64259 0.0
loop_
_geom_bond_atom_site_label_1
_geom_bond_atom_site_label_2
_geom_bond_distance
_geom_bond_site_symmetry_2
_ccdc_geom_bond_type
Mn0 O5 2.085 1_455 S
Mn0 O15 2.162 . S
Mn0 O16 2.297 1_455 S
Mn0 O24 2.385 1_554 S
Mn0 O25 2.209 1_455 S
Mn0 O26 2.094 . S
Mn1 O6 2.121 . S
Mn1 N8 2.257 . S
Mn1 N17 2.282 1_554 S
Mn1 O25 2.215 . S
Mn1 O27 2.117 1_655 S
C2 O24 1.234 1_655 S
C2 O25 1.283 1_556 S
C3 O15 1.281 . S
C3 O16 1.236 1_455 S
C4 O26 1.240 . S
C4 O27 1.264 . S
O5 Mn0 2.085 1_655 S
O5 C14 1.281 . S
O6 Mn1 2.121 . S
O6 C14 1.258 . S
C7 N8 1.326 . S
C7 C11 1.460 . S
C7 H13 0.929 . S
N8 Mn1 2.257 . S
N8 C7 1.326 . S
N8 C12 1.362 . S
C9 C10 1.258 1_556 S
C9 C12 1.431 1_556 S
C9 C29 1.449 . S
C10 C9 1.258 1_554 S
C10 C11 1.477 . S
C10 H30 0.931 . S
C11 C7 1.460 . S
C11 C10 1.477 . S
C11 H31 0.930 . S
C12 N8 1.362 . S
C12 C9 1.431 1_554 S
C12 C22 1.476 1_554 S
H13 C7 0.929 . S
C14 O5 1.281 . S
C14 O6 1.258 . S
O15 Mn0 2.162 . S
O15 C3 1.281 . S
O16 Mn0 2.297 1_655 S
O16 C3 1.236 1_655 S
N17 Mn1 2.282 1_556 S
N17 C18 1.328 1_655 S
N17 C22 1.318 . S
C18 N17 1.328 1_455 S
C18 C19 1.457 . S
C18 H23 0.929 . S
C19 C18 1.457 . S
C19 C20 1.291 1_455 S
C19 H32 0.931 . S
C20 C19 1.291 1_655 S
C20 C21 1.373 . S
C20 H33 0.929 . S
C21 C20 1.373 . S
C21 C22 1.396 . S
C21 C28 1.403 . S
C22 C12 1.476 1_556 S
C22 N17 1.318 . S
C22 C21 1.396 . S
H23 C18 0.929 . S
O24 Mn0 2.385 1_556 S
O24 C2 1.234 1_455 S
O25 Mn0 2.209 1_655 S
O25 Mn1 2.215 . S
O25 C2 1.283 1_554 S
O26 Mn0 2.094 . S
O26 C4 1.240 . S
O27 Mn1 2.117 1_455 S
O27 C4 1.264 . S
C28 C21 1.403 . S
C28 C29 1.399 . S
C28 H34 0.929 . S
C29 C9 1.449 . S
C29 C28 1.399 . S
C29 H35 0.930 . S
H30 C10 0.931 . S
H31 C11 0.930 . S
H32 C19 0.931 . S
H33 C20 0.929 . S
H34 C28 0.929 . S
H35 C29 0.930 . S
Mn36 O41 2.095 . S
Mn36 O51 2.162 . S
Mn36 O52 2.297 . S
Mn36 O60 2.385 . S
Mn36 O61 2.209 . S
Mn36 O62 2.094 . S
Mn37 O42 2.121 . S
Mn37 N44 2.257 . S
Mn37 N53 2.282 . S
Mn37 O61 2.215 . S
Mn37 O63 2.117 . S
C38 O60 1.234 . S
C38 O61 1.283 . S
C39 O51 1.281 . S
C39 O52 1.236 . S
C40 O62 1.240 . S
C40 O63 1.264 . S
O41 Mn36 2.095 . S
O41 C50 1.250 . S
O42 Mn37 2.121 . S
O42 C50 1.258 . S
C43 N44 1.326 . S
C43 C47 1.460 . S
C43 H49 0.929 . S
N44 Mn37 2.257 . S
N44 C43 1.326 . S
N44 C48 1.362 . S
C45 C46 1.258 . S
C45 C48 1.431 . S
C45 C65 1.449 . S
C46 C45 1.258 . S
C46 C47 1.477 . S
C46 H66 0.931 . S
C47 C43 1.460 . S
C47 C46 1.477 . S
C47 H67 0.930 . S
C48 N44 1.362 . S
C48 C45 1.431 . S
C48 C58 1.476 . S
H49 C43 0.929 . S
C50 O41 1.250 . S
C50 O42 1.258 . S
O51 Mn36 2.162 . S
O51 C39 1.281 . S
O52 Mn36 2.297 . S
O52 C39 1.236 . S
N53 Mn37 2.282 . S
N53 C54 1.328 . S
N53 C58 1.318 . S
C54 N53 1.328 . S
C54 C55 1.457 . S
C54 H59 0.929 . S
C55 C54 1.457 . S
C55 C56 1.291 . S
C55 H68 0.931 . S
C56 C55 1.291 . S
C56 C57 1.373 . S
C56 H69 0.929 . S
C57 C56 1.373 . S
C57 C58 1.396 . S
C57 C64 1.403 . S
C58 C48 1.476 . S
C58 N53 1.318 . S
C58 C57 1.396 . S
H59 C54 0.929 . S
O60 Mn36 2.385 . S
O60 C38 1.234 . S
O61 Mn36 2.209 . S
O61 Mn37 2.215 . S
O61 C38 1.283 . S
O62 Mn36 2.094 . S
O62 C40 1.240 . S
O63 Mn37 2.117 . S
O63 C40 1.264 . S
C64 C57 1.403 . S
C64 C65 1.399 . S
C64 H70 0.929 . S
C65 C45 1.449 . S
C65 C64 1.399 . S
C65 H71 0.930 . S
H66 C46 0.931 . S
H67 C47 0.930 . S
H68 C55 0.931 . S
H69 C56 0.929 . S
H70 C64 0.929 . S
H71 C65 0.930 . S
Mn72 O77 2.095 . S
Mn72 O87 2.162 . S
Mn72 O88 2.297 . S
Mn72 O96 2.385 . S
Mn72 O97 2.209 . S
Mn72 O98 2.094 . S
Mn73 O78 2.121 . S
Mn73 N80 2.257 . S
Mn73 N89 2.282 . S
Mn73 O97 2.215 . S
Mn73 O99 2.117 . S
C74 O96 1.234 . S
C74 O97 1.283 . S
C75 O87 1.281 . S
C75 O88 1.236 . S
C76 O98 1.240 . S
C76 O99 1.264 . S
O77 Mn72 2.095 . S
O77 C86 1.250 . S
O78 Mn73 2.121 . S
O78 C86 1.258 . S
C79 N80 1.326 . S
C79 C83 1.460 . S
C79 H85 0.929 . S
N80 Mn73 2.257 . S
N80 C79 1.326 . S
N80 C84 1.362 . S
C81 C82 1.258 . S
C81 C84 1.431 . S
C81 C101 1.449 . S
C82 C81 1.258 . S
C82 C83 1.477 . S
C82 H102 0.931 . S
C83 C79 1.460 . S
C83 C82 1.477 . S
C83 H103 0.930 . S
C84 N80 1.362 . S
C84 C81 1.431 . S
C84 C94 1.476 . S
H85 C79 0.929 . S
C86 O77 1.250 . S
C86 O78 1.258 . S
O87 Mn72 2.162 . S
O87 C75 1.281 . S
O88 Mn72 2.297 . S
O88 C75 1.236 . S
N89 Mn73 2.282 . S
N89 C90 1.328 . S
N89 C94 1.318 . S
C90 N89 1.328 . S
C90 C91 1.457 . S
C90 H95 0.929 . S
C91 C90 1.457 . S
C91 C92 1.291 . S
C91 H104 0.931 . S
C92 C91 1.291 . S
C92 C93 1.373 . S
C92 H105 0.929 . S
C93 C92 1.373 . S
C93 C94 1.396 . S
C93 C100 1.403 . S
C94 C84 1.476 . S
C94 N89 1.318 . S
C94 C93 1.396 . S
H95 C90 0.929 . S
O96 Mn72 2.385 . S
O96 C74 1.234 . S
O97 Mn72 2.209 . S
O97 Mn73 2.215 . S
O97 C74 1.283 . S
O98 Mn72 2.094 . S
O98 C76 1.240 . S
O99 Mn73 2.117 . S
O99 C76 1.264 . S
C100 C93 1.403 . S
C100 C101 1.399 . S
C100 H106 0.929 . S
C101 C81 1.449 . S
C101 C100 1.399 . S
C101 H107 0.930 . S
H102 C82 0.931 . S
H103 C83 0.930 . S
H104 C91 0.931 . S
H105 C92 0.929 . S
H106 C100 0.929 . S
H107 C101 0.930 . S
Mn108 O113 2.095 . S
Mn108 O123 2.162 . S
Mn108 O124 2.297 . S
Mn108 O132 2.385 . S
Mn108 O133 2.209 . S
Mn108 O134 2.094 . S
Mn109 O114 2.121 . S
Mn109 N116 2.257 . S
Mn109 N125 2.282 . S
Mn109 O133 2.215 . S
Mn109 O135 2.117 . S
C110 O132 1.234 . S
C110 O133 1.283 . S
C111 O123 1.281 . S
C111 O124 1.236 . S
C112 O134 1.240 . S
C112 O135 1.264 . S
O113 Mn108 2.095 . S
O113 C122 1.250 . S
O114 Mn109 2.121 . S
O114 C122 1.258 . S
C115 N116 1.326 . S
C115 C119 1.460 . S
C115 H121 0.929 . S
N116 Mn109 2.257 . S
N116 C115 1.326 . S
N116 C120 1.362 . S
C117 C118 1.258 . S
C117 C120 1.431 . S
C117 C137 1.449 . S
C118 C117 1.258 . S
C118 C119 1.477 . S
C118 H138 0.931 . S
C119 C115 1.460 . S
C119 C118 1.477 . S
C119 H139 0.930 . S
C120 N116 1.362 . S
C120 C117 1.431 . S
C120 C130 1.476 . S
H121 C115 0.929 . S
C122 O113 1.250 . S
C122 O114 1.258 . S
O123 Mn108 2.162 . S
O123 C111 1.281 . S
O124 Mn108 2.297 . S
O124 C111 1.236 . S
N125 Mn109 2.282 . S
N125 C126 1.328 . S
N125 C130 1.318 . S
C126 N125 1.328 . S
C126 C127 1.457 . S
C126 H131 0.929 . S
C127 C126 1.457 . S
C127 C128 1.291 . S
C127 H140 0.931 . S
C128 C127 1.291 . S
C128 C129 1.373 . S
C128 H141 0.929 . S
C129 C128 1.373 . S
C129 C130 1.396 . S
C129 C136 1.403 . S
C130 C120 1.476 . S
C130 N125 1.318 . S
C130 C129 1.396 . S
H131 C126 0.929 . S
O132 Mn108 2.385 . S
O132 C110 1.234 . S
O133 Mn108 2.209 . S
O133 Mn109 2.215 . S
O133 C110 1.283 . S
O134 Mn108 2.094 . S
O134 C112 1.240 . S
O135 Mn109 2.117 . S
O135 C112 1.264 . S
C136 C129 1.403 . S
C136 C137 1.399 . S
C136 H142 0.929 . S
C137 C117 1.449 . S
C137 C136 1.399 . S
C137 H143 0.930 . S
H138 C118 0.931 . S
H139 C119 0.930 . S
H140 C127 0.931 . S
H141 C128 0.929 . S
H142 C136 0.929 . S
H143 C137 0.930 . S
Mn144 O149 2.085 1_455 S
Mn144 O159 2.162 . S
Mn144 O160 2.297 1_455 S
Mn144 O168 2.385 . S
Mn144 O169 2.209 1_455 S
Mn144 O170 2.094 . S
Mn145 O150 2.121 . S
Mn145 N152 2.257 . S
Mn145 N161 2.282 . S
Mn145 O169 2.215 . S
Mn145 O171 2.117 1_655 S
C146 O168 1.234 1_655 S
C146 O169 1.283 . S
C147 O159 1.281 . S
C147 O160 1.236 1_455 S
C148 O170 1.240 . S
C148 O171 1.264 . S
O149 Mn144 2.085 1_655 S
O149 C158 1.281 . S
O150 Mn145 2.121 . S
O150 C158 1.258 . S
C151 N152 1.326 . S
C151 C155 1.460 . S
C151 H157 0.929 . S
N152 Mn145 2.257 . S
N152 C151 1.326 . S
N152 C156 1.362 . S
C153 C154 1.258 . S
C153 C156 1.431 . S
C153 C173 1.449 . S
C154 C153 1.258 . S
C154 C155 1.477 . S
C154 H174 0.931 . S
C155 C151 1.460 . S
C155 C154 1.477 . S
C155 H175 0.930 . S
C156 N152 1.362 . S
C156 C153 1.431 . S
C156 C166 1.476 . S
H157 C151 0.929 . S
C158 O149 1.281 . S
C158 O150 1.258 . S
O159 Mn144 2.162 . S
O159 C147 1.281 . S
O160 Mn144 2.297 1_655 S
O160 C147 1.236 1_655 S
N161 Mn145 2.282 . S
N161 C162 1.328 1_655 S
N161 C166 1.318 . S
C162 N161 1.328 1_455 S
C162 C163 1.457 . S
C162 H167 0.929 . S
C163 C162 1.457 . S
C163 C164 1.291 1_455 S
C163 H176 0.931 . S
C164 C163 1.291 1_655 S
C164 C165 1.373 . S
C164 H177 0.929 . S
C165 C164 1.373 . S
C165 C166 1.396 . S
C165 C172 1.403 . S
C166 C156 1.476 . S
C166 N161 1.318 . S
C166 C165 1.396 . S
H167 C162 0.929 . S
O168 Mn144 2.385 . S
O168 C146 1.234 1_455 S
O169 Mn144 2.209 1_655 S
O169 Mn145 2.215 . S
O169 C146 1.283 . S
O170 Mn144 2.094 . S
O170 C148 1.240 . S
O171 Mn145 2.117 1_455 S
O171 C148 1.264 . S
C172 C165 1.403 . S
C172 C173 1.399 . S
C172 H178 0.929 . S
C173 C153 1.449 . S
C173 C172 1.399 . S
C173 H179 0.930 . S
H174 C154 0.931 . S
H175 C155 0.930 . S
H176 C163 0.931 . S
H177 C164 0.929 . S
H178 C172 0.929 . S
H179 C173 0.930 . S
Mn180 O185 2.095 . S
Mn180 O195 2.162 . S
Mn180 O196 2.297 . S
Mn180 O204 2.385 . S
Mn180 O205 2.209 . S
Mn180 O206 2.094 . S
Mn181 O186 2.121 . S
Mn181 N188 2.257 . S
Mn181 N197 2.282 . S
Mn181 O205 2.215 . S
Mn181 O207 2.117 . S
C182 O204 1.234 . S
C182 O205 1.283 . S
C183 O195 1.281 . S
C183 O196 1.236 . S
C184 O206 1.240 . S
C184 O207 1.264 . S
O185 Mn180 2.095 . S
O185 C194 1.250 . S
O186 Mn181 2.121 . S
O186 C194 1.258 . S
C187 N188 1.326 . S
C187 C191 1.460 . S
C187 H193 0.929 . S
N188 Mn181 2.257 . S
N188 C187 1.326 . S
N188 C192 1.362 . S
C189 C190 1.258 . S
C189 C192 1.431 . S
C189 C209 1.449 . S
C190 C189 1.258 . S
C190 C191 1.477 . S
C190 H210 0.931 . S
C191 C187 1.460 . S
C191 C190 1.477 . S
C191 H211 0.930 . S
C192 N188 1.362 . S
C192 C189 1.431 . S
C192 C202 1.476 . S
H193 C187 0.929 . S
C194 O185 1.250 . S
C194 O186 1.258 . S
O195 Mn180 2.162 . S
O195 C183 1.281 . S
O196 Mn180 2.297 . S
O196 C183 1.236 . S
N197 Mn181 2.282 . S
N197 C198 1.328 . S
N197 C202 1.318 . S
C198 N197 1.328 . S
C198 C199 1.457 . S
C198 H203 0.929 . S
C199 C198 1.457 . S
C199 C200 1.291 . S
C199 H212 0.931 . S
C200 C199 1.291 . S
C200 C201 1.373 . S
C200 H213 0.929 . S
C201 C200 1.373 . S
C201 C202 1.396 . S
C201 C208 1.403 . S
C202 C192 1.476 . S
C202 N197 1.318 . S
C202 C201 1.396 . S
H203 C198 0.929 . S
O204 Mn180 2.385 . S
O204 C182 1.234 . S
O205 Mn180 2.209 . S
O205 Mn181 2.215 . S
O205 C182 1.283 . S
O206 Mn180 2.094 . S
O206 C184 1.240 . S
O207 Mn181 2.117 . S
O207 C184 1.264 . S
C208 C201 1.403 . S
C208 C209 1.399 . S
C208 H214 0.929 . S
C209 C189 1.449 . S
C209 C208 1.399 . S
C209 H215 0.930 . S
H210 C190 0.931 . S
H211 C191 0.930 . S
H212 C199 0.931 . S
H213 C200 0.929 . S
H214 C208 0.929 . S
H215 C209 0.930 . S
Mn216 O221 2.095 . S
Mn216 O231 2.162 . S
Mn216 O232 2.297 . S
Mn216 O240 2.385 1_556 S
Mn216 O241 2.209 . S
Mn216 O242 2.094 . S
Mn217 O222 2.121 . S
Mn217 N224 2.257 . S
Mn217 N233 2.282 1_556 S
Mn217 O241 2.215 . S
Mn217 O243 2.117 . S
C218 O240 1.234 . S
C218 O241 1.283 1_554 S
C219 O231 1.281 . S
C219 O232 1.236 . S
C220 O242 1.240 . S
C220 O243 1.264 . S
O221 Mn216 2.095 . S
O221 C230 1.250 . S
O222 Mn217 2.121 . S
O222 C230 1.258 . S
C223 N224 1.326 . S
C223 C227 1.460 . S
C223 H229 0.929 . S
N224 Mn217 2.257 . S
N224 C223 1.326 . S
N224 C228 1.362 . S
C225 C226 1.258 1_554 S
C225 C228 1.431 1_554 S
C225 C245 1.449 . S
C226 C225 1.258 1_556 S
C226 C227 1.477 . S
C226 H246 0.931 . S
C227 C223 1.460 . S
C227 C226 1.477 . S
C227 H247 0.930 . S
C228 N224 1.362 . S
C228 C225 1.431 1_556 S
C228 C238 1.476 1_556 S
H229 C223 0.929 . S
C230 O221 1.250 . S
C230 O222 1.258 . S
O231 Mn216 2.162 . S
O231 C219 1.281 . S
O232 Mn216 2.297 . S
O232 C219 1.236 . S
N233 Mn217 2.282 1_554 S
N233 C234 1.328 . S
N233 C238 1.318 . S
C234 N233 1.328 . S
C234 C235 1.457 . S
C234 H239 0.929 . S
C235 C234 1.457 . S
C235 C236 1.291 . S
C235 H248 0.931 . S
C236 C235 1.291 . S
C236 C237 1.373 . S
C236 H249 0.929 . S
C237 C236 1.373 . S
C237 C238 1.396 . S
C237 C244 1.403 . S
C238 C228 1.476 1_554 S
C238 N233 1.318 . S
C238 C237 1.396 . S
H239 C234 0.929 . S
O240 Mn216 2.385 1_554 S
O240 C218 1.234 . S
O241 Mn216 2.209 . S
O241 Mn217 2.215 . S
O241 C218 1.283 1_556 S
O242 Mn216 2.094 . S
O242 C220 1.240 . S
O243 Mn217 2.117 . S
O243 C220 1.264 . S
C244 C237 1.403 . S
C244 C245 1.399 . S
C244 H250 0.929 . S
C245 C225 1.449 . S
C245 C244 1.399 . S
C245 H251 0.930 . S
H246 C226 0.931 . S
H247 C227 0.930 . S
H248 C235 0.931 . S
H249 C236 0.929 . S
H250 C244 0.929 . S
H251 C245 0.930 . S
Mn252 O257 2.095 . S
Mn252 O267 2.162 . S
Mn252 O268 2.297 . S
Mn252 O276 2.385 . S
Mn252 O277 2.209 . S
Mn252 O278 2.094 . S
Mn253 O258 2.121 . S
Mn253 N260 2.257 . S
Mn253 N269 2.282 . S
Mn253 O277 2.215 . S
Mn253 O279 2.117 . S
C254 O276 1.234 . S
C254 O277 1.283 . S
C255 O267 1.281 . S
C255 O268 1.236 . S
C256 O278 1.240 . S
C256 O279 1.264 . S
O257 Mn252 2.095 . S
O257 C266 1.250 . S
O258 Mn253 2.121 . S
O258 C266 1.258 . S
C259 N260 1.326 . S
C259 C263 1.460 . S
C259 H265 0.929 . S
N260 Mn253 2.257 . S
N260 C259 1.326 . S
N260 C264 1.362 . S
C261 C262 1.258 . S
C261 C264 1.431 . S
C261 C281 1.449 . S
C262 C261 1.258 . S
C262 C263 1.477 . S
C262 H282 0.931 . S
C263 C259 1.460 . S
C263 C262 1.477 . S
C263 H283 0.930 . S
C264 N260 1.362 . S
C264 C261 1.431 . S
C264 C274 1.476 . S
H265 C259 0.929 . S
C266 O257 1.250 . S
C266 O258 1.258 . S
O267 Mn252 2.162 . S
O267 C255 1.281 . S
O268 Mn252 2.297 . S
O268 C255 1.236 . S
N269 Mn253 2.282 . S
N269 C270 1.328 . S
N269 C274 1.318 . S
C270 N269 1.328 . S
C270 C271 1.457 . S
C270 H275 0.929 . S
C271 C270 1.457 . S
C271 C272 1.291 . S
C271 H284 0.931 . S
C272 C271 1.291 . S
C272 C273 1.373 . S
C272 H285 0.929 . S
C273 C272 1.373 . S
C273 C274 1.396 . S
C273 C280 1.403 . S
C274 C264 1.476 . S
C274 N269 1.318 . S
C274 C273 1.396 . S
H275 C270 0.929 . S
O276 Mn252 2.385 . S
O276 C254 1.234 . S
O277 Mn252 2.209 . S
O277 Mn253 2.215 . S
O277 C254 1.283 . S
O278 Mn252 2.094 . S
O278 C256 1.240 . S
O279 Mn253 2.117 . S
O279 C256 1.264 . S
C280 C273 1.403 . S
C280 C281 1.399 . S
C280 H286 0.929 . S
C281 C261 1.449 . S
C281 C280 1.399 . S
C281 H287 0.930 . S
H282 C262 0.931 . S
H283 C263 0.930 . S
H284 C271 0.931 . S
H285 C272 0.929 . S
H286 C280 0.929 . S
H287 C281 0.930 . S
Mn288 O293 2.095 . S
Mn288 O303 2.162 . S
Mn288 O304 2.297 . S
Mn288 O312 2.385 1_556 S
Mn288 O313 2.209 . S
Mn288 O314 2.094 . S
Mn289 O294 2.121 . S
Mn289 N296 2.257 1_655 S
Mn289 N305 2.282 1_556 S
Mn289 O313 2.215 . S
Mn289 O315 2.117 . S
C290 O312 1.234 . S
C290 O313 1.283 1_554 S
C291 O303 1.281 . S
C291 O304 1.236 . S
C292 O314 1.240 . S
C292 O315 1.264 . S
O293 Mn288 2.095 . S
O293 C302 1.250 . S
O294 Mn289 2.121 . S
O294 C302 1.258 . S
C295 N296 1.326 . S
C295 C299 1.460 . S
C295 H301 0.929 . S
N296 Mn289 2.257 1_455 S
N296 C295 1.326 . S
N296 C300 1.362 . S
C297 C298 1.258 1_554 S
C297 C300 1.431 1_554 S
C297 C317 1.449 . S
C298 C297 1.258 1_556 S
C298 C299 1.477 . S
C298 H318 0.931 . S
C299 C295 1.460 . S
C299 C298 1.477 . S
C299 H319 0.930 . S
C300 N296 1.362 . S
C300 C297 1.431 1_556 S
C300 C310 1.476 1_456 S
H301 C295 0.929 . S
C302 O293 1.250 . S
C302 O294 1.258 . S
O303 Mn288 2.162 . S
O303 C291 1.281 . S
O304 Mn288 2.297 . S
O304 C291 1.236 . S
N305 Mn289 2.282 1_554 S
N305 C306 1.328 . S
N305 C310 1.318 . S
C306 N305 1.328 . S
C306 C307 1.457 . S
C306 H311 0.929 . S
C307 C306 1.457 . S
C307 C308 1.291 . S
C307 H320 0.931 . S
C308 C307 1.291 . S
C308 C309 1.373 . S
C308 H321 0.929 . S
C309 C308 1.373 . S
C309 C310 1.396 . S
C309 C316 1.403 1_655 S
C310 C300 1.476 1_654 S
C310 N305 1.318 . S
C310 C309 1.396 . S
H311 C306 0.929 . S
O312 Mn288 2.385 1_554 S
O312 C290 1.234 . S
O313 Mn288 2.209 . S
O313 Mn289 2.215 . S
O313 C290 1.283 1_556 S
O314 Mn288 2.094 . S
O314 C292 1.240 . S
O315 Mn289 2.117 . S
O315 C292 1.264 . S
C316 C309 1.403 1_455 S
C316 C317 1.399 . S
C316 H322 0.929 . S
C317 C297 1.449 . S
C317 C316 1.399 . S
C317 H323 0.930 . S
H318 C298 0.931 . S
H319 C299 0.930 . S
H320 C307 0.931 . S
H321 C308 0.929 . S
H322 C316 0.929 . S
H323 C317 0.930 . S
Mn324 O329 2.095 . S
Mn324 O339 2.162 . S
Mn324 O340 2.297 . S
Mn324 O348 2.385 . S
Mn324 O349 2.209 . S
Mn324 O350 2.094 . S
Mn325 O330 2.121 . S
Mn325 N332 2.257 . S
Mn325 N341 2.282 . S
Mn325 O349 2.215 . S
Mn325 O351 2.117 . S
C326 O348 1.234 . S
C326 O349 1.283 . S
C327 O339 1.281 . S
C327 O340 1.236 . S
C328 O350 1.240 . S
C328 O351 1.264 . S
O329 Mn324 2.095 . S
O329 C338 1.250 . S
O330 Mn325 2.121 . S
O330 C338 1.258 . S
C331 N332 1.326 . S
C331 C335 1.460 . S
C331 H337 0.929 . S
N332 Mn325 2.257 . S
N332 C331 1.326 . S
N332 C336 1.362 . S
C333 C334 1.258 . S
C333 C336 1.431 . S
C333 C353 1.449 . S
C334 C333 1.258 . S
C334 C335 1.477 . S
C334 H354 0.931 . S
C335 C331 1.460 . S
C335 C334 1.477 . S
C335 H355 0.930 . S
C336 N332 1.362 . S
C336 C333 1.431 . S
C336 C346 1.476 . S
H337 C331 0.929 . S
C338 O329 1.250 . S
C338 O330 1.258 . S
O339 Mn324 2.162 . S
O339 C327 1.281 . S
O340 Mn324 2.297 . S
O340 C327 1.236 . S
N341 Mn325 2.282 . S
N341 C342 1.328 . S
N341 C346 1.318 . S
C342 N341 1.328 . S
C342 C343 1.457 . S
C342 H347 0.929 . S
C343 C342 1.457 . S
C343 C344 1.291 . S
C343 H356 0.931 . S
C344 C343 1.291 . S
C344 C345 1.373 . S
C344 H357 0.929 . S
C345 C344 1.373 . S
C345 C346 1.396 . S
C345 C352 1.403 . S
C346 C336 1.476 . S
C346 N341 1.318 . S
C346 C345 1.396 . S
H347 C342 0.929 . S
O348 Mn324 2.385 . S
O348 C326 1.234 . S
O349 Mn324 2.209 . S
O349 Mn325 2.215 . S
O349 C326 1.283 . S
O350 Mn324 2.094 . S
O350 C328 1.240 . S
O351 Mn325 2.117 . S
O351 C328 1.264 . S
C352 C345 1.403 . S
C352 C353 1.399 . S
C352 H358 0.929 . S
C353 C333 1.449 . S
C353 C352 1.399 . S
C353 H359 0.930 . S
H354 C334 0.931 . S
H355 C335 0.930 . S
H356 C343 0.931 . S
H357 C344 0.929 . S
H358 C352 0.929 . S
H359 C353 0.930 . S
Mn360 O365 2.095 . S
Mn360 O375 2.162 . S
Mn360 O376 2.297 . S
Mn360 O384 2.385 . S
Mn360 O385 2.209 . S
Mn360 O386 2.094 . S
Mn361 O366 2.121 . S
Mn361 N368 2.257 . S
Mn361 N377 2.282 . S
Mn361 O385 2.215 . S
Mn361 O387 2.117 . S
C362 O384 1.234 . S
C362 O385 1.283 . S
C363 O375 1.281 . S
C363 O376 1.236 . S
C364 O386 1.240 . S
C364 O387 1.264 . S
O365 Mn360 2.095 . S
O365 C374 1.250 . S
O366 Mn361 2.121 . S
O366 C374 1.258 . S
C367 N368 1.326 . S
C367 C371 1.460 . S
C367 H373 0.929 . S
N368 Mn361 2.257 . S
N368 C367 1.326 . S
N368 C372 1.362 . S
C369 C370 1.258 . S
C369 C372 1.431 . S
C369 C389 1.449 . S
C370 C369 1.258 . S
C370 C371 1.477 . S
C370 H390 0.931 . S
C371 C367 1.460 . S
C371 C370 1.477 . S
C371 H391 0.930 . S
C372 N368 1.362 . S
C372 C369 1.431 . S
C372 C382 1.476 . S
H373 C367 0.929 . S
C374 O365 1.250 . S
C374 O366 1.258 . S
O375 Mn360 2.162 . S
O375 C363 1.281 . S
O376 Mn360 2.297 . S
O376 C363 1.236 . S
N377 Mn361 2.282 . S
N377 C378 1.328 . S
N377 C382 1.318 . S
C378 N377 1.328 . S
C378 C379 1.457 . S
C378 H383 0.929 . S
C379 C378 1.457 . S
C379 C380 1.291 . S
C379 H392 0.931 . S
C380 C379 1.291 . S
C380 C381 1.373 . S
C380 H393 0.929 . S
C381 C380 1.373 . S
C381 C382 1.396 . S
C381 C388 1.403 . S
C382 C372 1.476 . S
C382 N377 1.318 . S
C382 C381 1.396 . S
H383 C378 0.929 . S
O384 Mn360 2.385 . S
O384 C362 1.234 . S
O385 Mn360 2.209 . S
O385 Mn361 2.215 . S
O385 C362 1.283 . S
O386 Mn360 2.094 . S
O386 C364 1.240 . S
O387 Mn361 2.117 . S
O387 C364 1.264 . S
C388 C381 1.403 . S
C388 C389 1.399 . S
C388 H394 0.929 . S
C389 C369 1.449 . S
C389 C388 1.399 . S
C389 H395 0.930 . S
H390 C370 0.931 . S
H391 C371 0.930 . S
H392 C379 0.931 . S
H393 C380 0.929 . S
H394 C388 0.929 . S
H395 C389 0.930 . S
Mn396 O401 2.095 . S
Mn396 O411 2.162 . S
Mn396 O412 2.297 . S
Mn396 O420 2.385 . S
Mn396 O421 2.209 . S
Mn396 O422 2.094 . S
Mn397 O402 2.121 . S
Mn397 N404 2.257 . S
Mn397 N413 2.282 . S
Mn397 O421 2.215 . S
Mn397 O423 2.117 . S
C398 O420 1.234 . S
C398 O421 1.283 . S
C399 O411 1.281 . S
C399 O412 1.236 . S
C400 O422 1.240 . S
C400 O423 1.264 . S
O401 Mn396 2.095 . S
O401 C410 1.250 . S
O402 Mn397 2.121 . S
O402 C410 1.258 . S
C403 N404 1.326 . S
C403 C407 1.460 . S
C403 H409 0.929 . S
N404 Mn397 2.257 . S
N404 C403 1.326 . S
N404 C408 1.362 . S
C405 C406 1.258 . S
C405 C408 1.431 . S
C405 C425 1.449 . S
C406 C405 1.258 . S
C406 C407 1.477 . S
C406 H426 0.931 . S
C407 C403 1.460 . S
C407 C406 1.477 . S
C407 H427 0.930 . S
C408 N404 1.362 . S
C408 C405 1.431 . S
C408 C418 1.476 . S
H409 C403 0.929 . S
C410 O401 1.250 . S
C410 O402 1.258 . S
O411 Mn396 2.162 . S
O411 C399 1.281 . S
O412 Mn396 2.297 . S
O412 C399 1.236 . S
N413 Mn397 2.282 . S
N413 C414 1.328 . S
N413 C418 1.318 . S
C414 N413 1.328 . S
C414 C415 1.457 . S
C414 H419 0.929 . S
C415 C414 1.457 . S
C415 C416 1.291 . S
C415 H428 0.931 . S
C416 C415 1.291 . S
C416 C417 1.373 . S
C416 H429 0.929 . S
C417 C416 1.373 . S
C417 C418 1.396 . S
C417 C424 1.403 . S
C418 C408 1.476 . S
C418 N413 1.318 . S
C418 C417 1.396 . S
H419 C414 0.929 . S
O420 Mn396 2.385 . S
O420 C398 1.234 . S
O421 Mn396 2.209 . S
O421 Mn397 2.215 . S
O421 C398 1.283 . S
O422 Mn396 2.094 . S
O422 C400 1.240 . S
O423 Mn397 2.117 . S
O423 C400 1.264 . S
C424 C417 1.403 . S
C424 C425 1.399 . S
C424 H430 0.929 . S
C425 C405 1.449 . S
C425 C424 1.399 . S
C425 H431 0.930 . S
H426 C406 0.931 . S
H427 C407 0.930 . S
H428 C415 0.931 . S
H429 C416 0.929 . S
H430 C424 0.929 . S
H431 C425 0.930 . S
Mn432 O437 2.095 . S
Mn432 O447 2.162 . S
Mn432 O448 2.297 . S
Mn432 O456 2.385 . S
Mn432 O457 2.209 . S
Mn432 O458 2.094 . S
Mn433 O438 2.121 . S
Mn433 N440 2.257 1_655 S
Mn433 N449 2.282 . S
Mn433 O457 2.215 . S
Mn433 O459 2.117 . S
C434 O456 1.234 . S
C434 O457 1.283 . S
C435 O447 1.281 . S
C435 O448 1.236 . S
C436 O458 1.240 . S
C436 O459 1.264 . S
O437 Mn432 2.095 . S
O437 C446 1.250 . S
O438 Mn433 2.121 . S
O438 C446 1.258 . S
C439 N440 1.326 . S
C439 C443 1.460 . S
C439 H445 0.929 . S
N440 Mn433 2.257 1_455 S
N440 C439 1.326 . S
N440 C444 1.362 . S
C441 C442 1.258 . S
C441 C444 1.431 . S
C441 C461 1.449 . S
C442 C441 1.258 . S
C442 C443 1.477 . S
C442 H462 0.931 . S
C443 C439 1.460 . S
C443 C442 1.477 . S
C443 H463 0.930 . S
C444 N440 1.362 . S
C444 C441 1.431 . S
C444 C454 1.476 1_455 S
H445 C439 0.929 . S
C446 O437 1.250 . S
C446 O438 1.258 . S
O447 Mn432 2.162 . S
O447 C435 1.281 . S
O448 Mn432 2.297 . S
O448 C435 1.236 . S
N449 Mn433 2.282 . S
N449 C450 1.328 . S
N449 C454 1.318 . S
C450 N449 1.328 . S
C450 C451 1.457 . S
C450 H455 0.929 . S
C451 C450 1.457 . S
C451 C452 1.291 . S
C451 H464 0.931 . S
C452 C451 1.291 . S
C452 C453 1.373 . S
C452 H465 0.929 . S
C453 C452 1.373 . S
C453 C454 1.396 . S
C453 C460 1.403 1_655 S
C454 C444 1.476 1_655 S
C454 N449 1.318 . S
C454 C453 1.396 . S
H455 C450 0.929 . S
O456 Mn432 2.385 . S
O456 C434 1.234 . S
O457 Mn432 2.209 . S
O457 Mn433 2.215 . S
O457 C434 1.283 . S
O458 Mn432 2.094 . S
O458 C436 1.240 . S
O459 Mn433 2.117 . S
O459 C436 1.264 . S
C460 C453 1.403 1_455 S
C460 C461 1.399 . S
C460 H466 0.929 . S
C461 C441 1.449 . S
C461 C460 1.399 . S
C461 H467 0.930 . S
H462 C442 0.931 . S
H463 C443 0.930 . S
H464 C451 0.931 . S
H465 C452 0.929 . S
H466 C460 0.929 . S
H467 C461 0.930 . S
Mn468 O473 2.095 . S
Mn468 O483 2.162 . S
Mn468 O484 2.297 . S
Mn468 O492 2.385 . S
Mn468 O493 2.209 . S
Mn468 O494 2.094 . S
Mn469 O474 2.121 . S
Mn469 N476 2.257 . S
Mn469 N485 2.282 . S
Mn469 O493 2.215 . S
Mn469 O495 2.117 . S
C470 O492 1.234 . S
C470 O493 1.283 . S
C471 O483 1.281 . S
C471 O484 1.236 . S
C472 O494 1.240 . S
C472 O495 1.264 . S
O473 Mn468 2.095 . S
O473 C482 1.250 . S
O474 Mn469 2.121 . S
O474 C482 1.258 . S
C475 N476 1.326 . S
C475 C479 1.460 . S
C475 H481 0.929 . S
N476 Mn469 2.257 . S
N476 C475 1.326 . S
N476 C480 1.362 . S
C477 C478 1.258 . S
C477 C480 1.431 . S
C477 C497 1.449 . S
C478 C477 1.258 . S
C478 C479 1.477 . S
C478 H498 0.931 . S
C479 C475 1.460 . S
C479 C478 1.477 . S
C479 H499 0.930 . S
C480 N476 1.362 . S
C480 C477 1.431 . S
C480 C490 1.476 . S
H481 C475 0.929 . S
C482 O473 1.250 . S
C482 O474 1.258 . S
O483 Mn468 2.162 . S
O483 C471 1.281 . S
O484 Mn468 2.297 . S
O484 C471 1.236 . S
N485 Mn469 2.282 . S
N485 C486 1.328 . S
N485 C490 1.318 . S
C486 N485 1.328 . S
C486 C487 1.457 . S
C486 H491 0.929 . S
C487 C486 1.457 . S
C487 C488 1.291 . S
C487 H500 0.931 . S
C488 C487 1.291 . S
C488 C489 1.373 . S
C488 H501 0.929 . S
C489 C488 1.373 . S
C489 C490 1.396 . S
C489 C496 1.403 . S
C490 C480 1.476 . S
C490 N485 1.318 . S
C490 C489 1.396 . S
H491 C486 0.929 . S
O492 Mn468 2.385 . S
O492 C470 1.234 . S
O493 Mn468 2.209 . S
O493 Mn469 2.215 . S
O493 C470 1.283 . S
O494 Mn468 2.094 . S
O494 C472 1.240 . S
O495 Mn469 2.117 . S
O495 C472 1.264 . S
C496 C489 1.403 . S
C496 C497 1.399 . S
C496 H502 0.929 . S
C497 C477 1.449 . S
C497 C496 1.399 . S
C497 H503 0.930 . S
H498 C478 0.931 . S
H499 C479 0.930 . S
H500 C487 0.931 . S
H501 C488 0.929 . S
H502 C496 0.929 . S
H503 C497 0.930 . S
Mn504 O509 2.095 . S
Mn504 O519 2.162 . S
Mn504 O520 2.297 . S
Mn504 O528 2.385 1_554 S
Mn504 O529 2.209 . S
Mn504 O530 2.094 . S
Mn505 O510 2.121 . S
Mn505 N512 2.257 . S
Mn505 N521 2.282 1_554 S
Mn505 O529 2.215 . S
Mn505 O531 2.117 . S
C506 O528 1.234 . S
C506 O529 1.283 1_556 S
C507 O519 1.281 . S
C507 O520 1.236 . S
C508 O530 1.240 . S
C508 O531 1.264 . S
O509 Mn504 2.095 . S
O509 C518 1.250 . S
O510 Mn505 2.121 . S
O510 C518 1.258 . S
C511 N512 1.326 . S
C511 C515 1.460 . S
C511 H517 0.929 . S
N512 Mn505 2.257 . S
N512 C511 1.326 . S
N512 C516 1.362 . S
C513 C514 1.258 1_556 S
C513 C516 1.431 1_556 S
C513 C533 1.449 . S
C514 C513 1.258 1_554 S
C514 C515 1.477 . S
C514 H534 0.931 . S
C515 C511 1.460 . S
C515 C514 1.477 . S
C515 H535 0.930 . S
C516 N512 1.362 . S
C516 C513 1.431 1_554 S
C516 C526 1.476 1_554 S
H517 C511 0.929 . S
C518 O509 1.250 . S
C518 O510 1.258 . S
O519 Mn504 2.162 . S
O519 C507 1.281 . S
O520 Mn504 2.297 . S
O520 C507 1.236 . S
N521 Mn505 2.282 1_556 S
N521 C522 1.328 . S
N521 C526 1.318 . S
C522 N521 1.328 . S
C522 C523 1.457 . S
C522 H527 0.929 . S
C523 C522 1.457 . S
C523 C524 1.291 . S
C523 H536 0.931 . S
C524 C523 1.291 . S
C524 C525 1.373 . S
C524 H537 0.929 . S
C525 C524 1.373 . S
C525 C526 1.396 . S
C525 C532 1.403 . S
C526 C516 1.476 1_556 S
C526 N521 1.318 . S
C526 C525 1.396 . S
H527 C522 0.929 . S
O528 Mn504 2.385 1_556 S
O528 C506 1.234 . S
O529 Mn504 2.209 . S
O529 Mn505 2.215 . S
O529 C506 1.283 1_554 S
O530 Mn504 2.094 . S
O530 C508 1.240 . S
O531 Mn505 2.117 . S
O531 C508 1.264 . S
C532 C525 1.403 . S
C532 C533 1.399 . S
C532 H538 0.929 . S
C533 C513 1.449 . S
C533 C532 1.399 . S
C533 H539 0.930 . S
H534 C514 0.931 . S
H535 C515 0.930 . S
H536 C523 0.931 . S
H537 C524 0.929 . S
H538 C532 0.929 . S
H539 C533 0.930 . S
Mn540 O545 2.095 . S
Mn540 O555 2.162 . S
Mn540 O556 2.297 . S
Mn540 O564 2.385 . S
Mn540 O565 2.209 . S
Mn540 O566 2.094 . S
Mn541 O546 2.121 . S
Mn541 N548 2.257 . S
Mn541 N557 2.282 . S
Mn541 O565 2.215 . S
Mn541 O567 2.117 . S
C542 O564 1.234 . S
C542 O565 1.283 . S
C543 O555 1.281 . S
C543 O556 1.236 . S
C544 O566 1.240 . S
C544 O567 1.264 . S
O545 Mn540 2.095 . S
O545 C554 1.250 . S
O546 Mn541 2.121 . S
O546 C554 1.258 . S
C547 N548 1.326 . S
C547 C551 1.460 . S
C547 H553 0.929 . S
N548 Mn541 2.257 . S
N548 C547 1.326 . S
N548 C552 1.362 . S
C549 C550 1.258 . S
C549 C552 1.431 . S
C549 C569 1.449 . S
C550 C549 1.258 . S
C550 C551 1.477 . S
C550 H570 0.931 . S
C551 C547 1.460 . S
C551 C550 1.477 . S
C551 H571 0.930 . S
C552 N548 1.362 . S
C552 C549 1.431 . S
C552 C562 1.476 . S
H553 C547 0.929 . S
C554 O545 1.250 . S
C554 O546 1.258 . S
O555 Mn540 2.162 . S
O555 C543 1.281 . S
O556 Mn540 2.297 . S
O556 C543 1.236 . S
N557 Mn541 2.282 . S
N557 C558 1.328 . S
N557 C562 1.318 . S
C558 N557 1.328 . S
C558 C559 1.457 . S
C558 H563 0.929 . S
C559 C558 1.457 . S
C559 C560 1.291 . S
C559 H572 0.931 . S
C560 C559 1.291 . S
C560 C561 1.373 . S
C560 H573 0.929 . S
C561 C560 1.373 . S
C561 C562 1.396 . S
C561 C568 1.403 . S
C562 C552 1.476 . S
C562 N557 1.318 . S
C562 C561 1.396 . S
H563 C558 0.929 . S
O564 Mn540 2.385 . S
O564 C542 1.234 . S
O565 Mn540 2.209 . S
O565 Mn541 2.215 . S
O565 C542 1.283 . S
O566 Mn540 2.094 . S
O566 C544 1.240 . S
O567 Mn541 2.117 . S
O567 C544 1.264 . S
C568 C561 1.403 . S
C568 C569 1.399 . S
C568 H574 0.929 . S
C569 C549 1.449 . S
C569 C568 1.399 . S
C569 H575 0.930 . S
H570 C550 0.931 . S
H571 C551 0.930 . S
H572 C559 0.931 . S
H573 C560 0.929 . S
H574 C568 0.929 . S
H575 C569 0.930 . S
Mn576 O581 2.095 . S
Mn576 O591 2.162 . S
Mn576 O592 2.297 . S
Mn576 O600 2.385 . S
Mn576 O601 2.209 . S
Mn576 O602 2.094 . S
Mn577 O582 2.121 . S
Mn577 N584 2.257 . S
Mn577 N593 2.282 . S
Mn577 O601 2.215 . S
Mn577 O603 2.117 . S
C578 O600 1.234 . S
C578 O601 1.283 . S
C579 O591 1.281 . S
C579 O592 1.236 . S
C580 O602 1.240 . S
C580 O603 1.264 . S
O581 Mn576 2.095 . S
O581 C590 1.250 . S
O582 Mn577 2.121 . S
O582 C590 1.258 . S
C583 N584 1.326 . S
C583 C587 1.460 . S
C583 H589 0.929 . S
N584 Mn577 2.257 . S
N584 C583 1.326 . S
N584 C588 1.362 . S
C585 C586 1.258 . S
C585 C588 1.431 . S
C585 C605 1.449 . S
C586 C585 1.258 . S
C586 C587 1.477 . S
C586 H606 0.931 . S
C587 C583 1.460 . S
C587 C586 1.477 . S
C587 H607 0.930 . S
C588 N584 1.362 . S
C588 C585 1.431 . S
C588 C598 1.476 . S
H589 C583 0.929 . S
C590 O581 1.250 . S
C590 O582 1.258 . S
O591 Mn576 2.162 . S
O591 C579 1.281 . S
O592 Mn576 2.297 . S
O592 C579 1.236 . S
N593 Mn577 2.282 . S
N593 C594 1.328 . S
N593 C598 1.318 . S
C594 N593 1.328 . S
C594 C595 1.457 . S
C594 H599 0.929 . S
C595 C594 1.457 . S
C595 C596 1.291 . S
C595 H608 0.931 . S
C596 C595 1.291 . S
C596 C597 1.373 . S
C596 H609 0.929 . S
C597 C596 1.373 . S
C597 C598 1.396 . S
C597 C604 1.403 . S
C598 C588 1.476 . S
C598 N593 1.318 . S
C598 C597 1.396 . S
H599 C594 0.929 . S
O600 Mn576 2.385 . S
O600 C578 1.234 . S
O601 Mn576 2.209 . S
O601 Mn577 2.215 . S
O601 C578 1.283 . S
O602 Mn576 2.094 . S
O602 C580 1.240 . S
O603 Mn577 2.117 . S
O603 C580 1.264 . S
C604 C597 1.403 . S
C604 C605 1.399 . S
C604 H610 0.929 . S
C605 C585 1.449 . S
C605 C604 1.399 . S
C605 H611 0.930 . S
H606 C586 0.931 . S
H607 C587 0.930 . S
H608 C595 0.931 . S
H609 C596 0.929 . S
H610 C604 0.929 . S
H611 C605 0.930 . S
Mn612 O617 2.095 . S
Mn612 O627 2.162 . S
Mn612 O628 2.297 . S
Mn612 O636 2.385 . S
Mn612 O637 2.209 . S
Mn612 O638 2.094 . S
Mn613 O618 2.121 . S
Mn613 N620 2.257 . S
Mn613 N629 2.282 . S
Mn613 O637 2.215 . S
Mn613 O639 2.117 . S
C614 O636 1.234 . S
C614 O637 1.283 . S
C615 O627 1.281 . S
C615 O628 1.236 . S
C616 O638 1.240 . S
C616 O639 1.264 . S
O617 Mn612 2.095 . S
O617 C626 1.250 . S
O618 Mn613 2.121 . S
O618 C626 1.258 . S
C619 N620 1.326 . S
C619 C623 1.460 . S
C619 H625 0.929 . S
N620 Mn613 2.257 . S
N620 C619 1.326 . S
N620 C624 1.362 . S
C621 C622 1.258 . S
C621 C624 1.431 . S
C621 C641 1.449 . S
C622 C621 1.258 . S
C622 C623 1.477 . S
C622 H642 0.931 . S
C623 C619 1.460 . S
C623 C622 1.477 . S
C623 H643 0.930 . S
C624 N620 1.362 . S
C624 C621 1.431 . S
C624 C634 1.476 . S
H625 C619 0.929 . S
C626 O617 1.250 . S
C626 O618 1.258 . S
O627 Mn612 2.162 . S
O627 C615 1.281 . S
O628 Mn612 2.297 . S
O628 C615 1.236 . S
N629 Mn613 2.282 . S
N629 C630 1.328 . S
N629 C634 1.318 . S
C630 N629 1.328 . S
C630 C631 1.457 . S
C630 H635 0.929 . S
C631 C630 1.457 . S
C631 C632 1.291 . S
C631 H644 0.931 . S
C632 C631 1.291 . S
C632 C633 1.373 . S
C632 H645 0.929 . S
C633 C632 1.373 . S
C633 C634 1.396 . S
C633 C640 1.403 . S
C634 C624 1.476 . S
C634 N629 1.318 . S
C634 C633 1.396 . S
H635 C630 0.929 . S
O636 Mn612 2.385 . S
O636 C614 1.234 . S
O637 Mn612 2.209 . S
O637 Mn613 2.215 . S
O637 C614 1.283 . S
O638 Mn612 2.094 . S
O638 C616 1.240 . S
O639 Mn613 2.117 . S
O639 C616 1.264 . S
C640 C633 1.403 . S
C640 C641 1.399 . S
C640 H646 0.929 . S
C641 C621 1.449 . S
C641 C640 1.399 . S
C641 H647 0.930 . S
H642 C622 0.931 . S
H643 C623 0.930 . S
H644 C631 0.931 . S
H645 C632 0.929 . S
H646 C640 0.929 . S
H647 C641 0.930 . S
Mn648 O653 2.085 1_655 S
Mn648 O663 2.162 . S
Mn648 O664 2.297 1_655 S
Mn648 O672 2.385 1_554 S
Mn648 O673 2.209 1_655 S
Mn648 O674 2.094 . S
Mn649 O654 2.121 . S
Mn649 N656 2.257 . S
Mn649 N665 2.282 1_554 S
Mn649 O673 2.215 . S
Mn649 O675 2.117 1_455 S
C650 O672 1.234 1_455 S
C650 O673 1.283 1_556 S
C651 O663 1.281 . S
C651 O664 1.236 1_655 S
C652 O674 1.240 . S
C652 O675 1.264 . S
O653 Mn648 2.085 1_455 S
O653 C662 1.282 . S
O654 Mn649 2.121 . S
O654 C662 1.258 . S
C655 N656 1.326 . S
C655 C659 1.460 . S
C655 H661 0.929 . S
N656 Mn649 2.257 . S
N656 C655 1.326 . S
N656 C660 1.362 . S
C657 C658 1.258 1_556 S
C657 C660 1.431 1_556 S
C657 C677 1.449 . S
C658 C657 1.258 1_554 S
C658 C659 1.477 . S
C658 H678 0.931 . S
C659 C655 1.460 . S
C659 C658 1.477 . S
C659 H679 0.930 . S
C660 N656 1.362 . S
C660 C657 1.431 1_554 S
C660 C670 1.476 1_554 S
H661 C655 0.929 . S
C662 O653 1.282 . S
C662 O654 1.258 . S
O663 Mn648 2.162 . S
O663 C651 1.281 . S
O664 Mn648 2.297 1_455 S
O664 C651 1.236 1_455 S
N665 Mn649 2.282 1_556 S
N665 C666 1.328 1_455 S
N665 C670 1.318 . S
C666 N665 1.328 1_655 S
C666 C667 1.457 . S
C666 H671 0.929 . S
C667 C666 1.457 . S
C667 C668 1.291 1_655 S
C667 H680 0.931 . S
C668 C667 1.291 1_455 S
C668 C669 1.373 . S
C668 H681 0.929 . S
C669 C668 1.373 . S
C669 C670 1.396 . S
C669 C676 1.403 . S
C670 C660 1.476 1_556 S
C670 N665 1.318 . S
C670 C669 1.396 . S
H671 C666 0.929 . S
O672 Mn648 2.385 1_556 S
O672 C650 1.234 1_655 S
O673 Mn648 2.209 1_455 S
O673 Mn649 2.215 . S
O673 C650 1.283 1_554 S
O674 Mn648 2.094 . S
O674 C652 1.240 . S
O675 Mn649 2.117 1_655 S
O675 C652 1.264 . S
C676 C669 1.403 . S
C676 C677 1.399 . S
C676 H682 0.929 . S
C677 C657 1.449 . S
C677 C676 1.399 . S
C677 H683 0.930 . S
H678 C658 0.931 . S
H679 C659 0.930 . S
H680 C667 0.931 . S
H681 C668 0.929 . S
H682 C676 0.929 . S
H683 C677 0.930 . S
Mn684 O689 2.095 . S
Mn684 O699 2.162 . S
Mn684 O700 2.297 . S
Mn684 O708 2.385 . S
Mn684 O709 2.209 . S
Mn684 O710 2.094 . S
Mn685 O690 2.121 . S
Mn685 N692 2.257 . S
Mn685 N701 2.282 . S
Mn685 O709 2.215 . S
Mn685 O711 2.117 . S
C686 O708 1.234 . S
C686 O709 1.283 . S
C687 O699 1.281 . S
C687 O700 1.236 . S
C688 O710 1.240 . S
C688 O711 1.264 . S
O689 Mn684 2.095 . S
O689 C698 1.250 . S
O690 Mn685 2.121 . S
O690 C698 1.258 . S
C691 N692 1.326 . S
C691 C695 1.460 . S
C691 H697 0.929 . S
N692 Mn685 2.257 . S
N692 C691 1.326 . S
N692 C696 1.362 . S
C693 C694 1.258 . S
C693 C696 1.431 . S
C693 C713 1.449 . S
C694 C693 1.258 . S
C694 C695 1.477 . S
C694 H714 0.931 . S
C695 C691 1.460 . S
C695 C694 1.477 . S
C695 H715 0.930 . S
C696 N692 1.362 . S
C696 C693 1.431 . S
C696 C706 1.476 . S
H697 C691 0.929 . S
C698 O689 1.250 . S
C698 O690 1.258 . S
O699 Mn684 2.162 . S
O699 C687 1.281 . S
O700 Mn684 2.297 . S
O700 C687 1.236 . S
N701 Mn685 2.282 . S
N701 C702 1.328 . S
N701 C706 1.318 . S
C702 N701 1.328 . S
C702 C703 1.457 . S
C702 H707 0.929 . S
C703 C702 1.457 . S
C703 C704 1.291 . S
C703 H716 0.931 . S
C704 C703 1.291 . S
C704 C705 1.373 . S
C704 H717 0.929 . S
C705 C704 1.373 . S
C705 C706 1.396 . S
C705 C712 1.403 . S
C706 C696 1.476 . S
C706 N701 1.318 . S
C706 C705 1.396 . S
H707 C702 0.929 . S
O708 Mn684 2.385 . S
O708 C686 1.234 . S
O709 Mn684 2.209 . S
O709 Mn685 2.215 . S
O709 C686 1.283 . S
O710 Mn684 2.094 . S
O710 C688 1.240 . S
O711 Mn685 2.117 . S
O711 C688 1.264 . S
C712 C705 1.403 . S
C712 C713 1.399 . S
C712 H718 0.929 . S
C713 C693 1.449 . S
C713 C712 1.399 . S
C713 H719 0.930 . S
H714 C694 0.931 . S
H715 C695 0.930 . S
H716 C703 0.931 . S
H717 C704 0.929 . S
H718 C712 0.929 . S
H719 C713 0.930 . S
Mn720 O725 2.095 . S
Mn720 O735 2.162 . S
Mn720 O736 2.297 . S
Mn720 O744 2.385 1_556 S
Mn720 O745 2.209 . S
Mn720 O746 2.094 . S
Mn721 O726 2.121 . S
Mn721 N728 2.257 . S
Mn721 N737 2.282 1_556 S
Mn721 O745 2.215 . S
Mn721 O747 2.117 . S
C722 O744 1.234 . S
C722 O745 1.283 1_554 S
C723 O735 1.281 . S
C723 O736 1.236 . S
C724 O746 1.240 . S
C724 O747 1.264 . S
O725 Mn720 2.095 . S
O725 C734 1.250 . S
O726 Mn721 2.121 . S
O726 C734 1.258 . S
C727 N728 1.326 . S
C727 C731 1.460 . S
C727 H733 0.929 . S
N728 Mn721 2.257 . S
N728 C727 1.326 . S
N728 C732 1.362 . S
C729 C730 1.258 1_554 S
C729 C732 1.431 1_554 S
C729 C749 1.449 . S
C730 C729 1.258 1_556 S
C730 C731 1.477 . S
C730 H750 0.931 . S
C731 C727 1.460 . S
C731 C730 1.477 . S
C731 H751 0.930 . S
C732 N728 1.362 . S
C732 C729 1.431 1_556 S
C732 C742 1.476 1_556 S
H733 C727 0.929 . S
C734 O725 1.250 . S
C734 O726 1.258 . S
O735 Mn720 2.162 . S
O735 C723 1.281 . S
O736 Mn720 2.297 . S
O736 C723 1.236 . S
N737 Mn721 2.282 1_554 S
N737 C738 1.328 . S
N737 C742 1.318 . S
C738 N737 1.328 . S
C738 C739 1.457 . S
C738 H743 0.929 . S
C739 C738 1.457 . S
C739 C740 1.291 . S
C739 H752 0.931 . S
C740 C739 1.291 . S
C740 C741 1.373 . S
C740 H753 0.929 . S
C741 C740 1.373 . S
C741 C742 1.396 . S
C741 C748 1.403 . S
C742 C732 1.476 1_554 S
C742 N737 1.318 . S
C742 C741 1.396 . S
H743 C738 0.929 . S
O744 Mn720 2.385 1_554 S
O744 C722 1.234 . S
O745 Mn720 2.209 . S
O745 Mn721 2.215 . S
O745 C722 1.283 1_556 S
O746 Mn720 2.094 . S
O746 C724 1.240 . S
O747 Mn721 2.117 . S
O747 C724 1.264 . S
C748 C741 1.403 . S
C748 C749 1.399 . S
C748 H754 0.929 . S
C749 C729 1.449 . S
C749 C748 1.399 . S
C749 H755 0.930 . S
H750 C730 0.931 . S
H751 C731 0.930 . S
H752 C739 0.931 . S
H753 C740 0.929 . S
H754 C748 0.929 . S
H755 C749 0.930 . S
Mn756 O761 2.095 . S
Mn756 O771 2.162 . S
Mn756 O772 2.297 . S
Mn756 O780 2.385 . S
Mn756 O781 2.209 . S
Mn756 O782 2.094 . S
Mn757 O762 2.121 . S
Mn757 N764 2.257 . S
Mn757 N773 2.282 . S
Mn757 O781 2.215 . S
Mn757 O783 2.117 . S
C758 O780 1.234 . S
C758 O781 1.283 . S
C759 O771 1.281 . S
C759 O772 1.236 . S
C760 O782 1.240 . S
C760 O783 1.264 . S
O761 Mn756 2.095 . S
O761 C770 1.250 . S
O762 Mn757 2.121 . S
O762 C770 1.258 . S
C763 N764 1.326 . S
C763 C767 1.460 . S
C763 H769 0.929 . S
N764 Mn757 2.257 . S
N764 C763 1.326 . S
N764 C768 1.362 . S
C765 C766 1.258 . S
C765 C768 1.431 . S
C765 C785 1.449 . S
C766 C765 1.258 . S
C766 C767 1.477 . S
C766 H786 0.931 . S
C767 C763 1.460 . S
C767 C766 1.477 . S
C767 H787 0.930 . S
C768 N764 1.362 . S
C768 C765 1.431 . S
C768 C778 1.476 . S
H769 C763 0.929 . S
C770 O761 1.250 . S
C770 O762 1.258 . S
O771 Mn756 2.162 . S
O771 C759 1.281 . S
O772 Mn756 2.297 . S
O772 C759 1.236 . S
N773 Mn757 2.282 . S
N773 C774 1.328 . S
N773 C778 1.318 . S
C774 N773 1.328 . S
C774 C775 1.457 . S
C774 H779 0.929 . S
C775 C774 1.457 . S
C775 C776 1.291 . S
C775 H788 0.931 . S
C776 C775 1.291 . S
C776 C777 1.373 . S
C776 H789 0.929 . S
C777 C776 1.373 . S
C777 C778 1.396 . S
C777 C784 1.403 . S
C778 C768 1.476 . S
C778 N773 1.318 . S
C778 C777 1.396 . S
H779 C774 0.929 . S
O780 Mn756 2.385 . S
O780 C758 1.234 . S
O781 Mn756 2.209 . S
O781 Mn757 2.215 . S
O781 C758 1.283 . S
O782 Mn756 2.094 . S
O782 C760 1.240 . S
O783 Mn757 2.117 . S
O783 C760 1.264 . S
C784 C777 1.403 . S
C784 C785 1.399 . S
C784 H790 0.929 . S
C785 C765 1.449 . S
C785 C784 1.399 . S
C785 H791 0.930 . S
H786 C766 0.931 . S
H787 C767 0.930 . S
H788 C775 0.931 . S
H789 C776 0.929 . S
H790 C784 0.929 . S
H791 C785 0.930 . S
Mn792 O797 2.085 1_655 S
Mn792 O807 2.162 . S
Mn792 O808 2.297 1_655 S
Mn792 O816 2.385 . S
Mn792 O817 2.209 1_655 S
Mn792 O818 2.094 . S
Mn793 O798 2.121 . S
Mn793 N800 2.257 . S
Mn793 N809 2.282 . S
Mn793 O817 2.215 . S
Mn793 O819 2.117 1_455 S
C794 O816 1.234 1_455 S
C794 O817 1.283 . S
C795 O807 1.281 . S
C795 O808 1.236 1_655 S
C796 O818 1.240 . S
C796 O819 1.264 . S
O797 Mn792 2.085 1_455 S
O797 C806 1.282 . S
O798 Mn793 2.121 . S
O798 C806 1.258 . S
C799 N800 1.326 . S
C799 C803 1.460 . S
C799 H805 0.929 . S
N800 Mn793 2.257 . S
N800 C799 1.326 . S
N800 C804 1.362 . S
C801 C802 1.258 . S
C801 C804 1.431 . S
C801 C821 1.449 . S
C802 C801 1.258 . S
C802 C803 1.477 . S
C802 H822 0.931 . S
C803 C799 1.460 . S
C803 C802 1.477 . S
C803 H823 0.930 . S
C804 N800 1.362 . S
C804 C801 1.431 . S
C804 C814 1.476 . S
H805 C799 0.929 . S
C806 O797 1.282 . S
C806 O798 1.258 . S
O807 Mn792 2.162 . S
O807 C795 1.281 . S
O808 Mn792 2.297 1_455 S
O808 C795 1.236 1_455 S
N809 Mn793 2.282 . S
N809 C810 1.328 1_455 S
N809 C814 1.318 . S
C810 N809 1.328 1_655 S
C810 C811 1.457 . S
C810 H815 0.929 . S
C811 C810 1.457 . S
C811 C812 1.291 1_655 S
C811 H824 0.931 . S
C812 C811 1.291 1_455 S
C812 C813 1.373 . S
C812 H825 0.929 . S
C813 C812 1.373 . S
C813 C814 1.396 . S
C813 C820 1.403 . S
C814 C804 1.476 . S
C814 N809 1.318 . S
C814 C813 1.396 . S
H815 C810 0.929 . S
O816 Mn792 2.385 . S
O816 C794 1.234 1_655 S
O817 Mn792 2.209 1_455 S
O817 Mn793 2.215 . S
O817 C794 1.283 . S
O818 Mn792 2.094 . S
O818 C796 1.240 . S
O819 Mn793 2.117 1_655 S
O819 C796 1.264 . S
C820 C813 1.403 . S
C820 C821 1.399 . S
C820 H826 0.929 . S
C821 C801 1.449 . S
C821 C820 1.399 . S
C821 H827 0.930 . S
H822 C802 0.931 . S
H823 C803 0.930 . S
H824 C811 0.931 . S
H825 C812 0.929 . S
H826 C820 0.929 . S
H827 C821 0.930 . S
Mn828 O833 2.095 . S
Mn828 O843 2.162 . S
Mn828 O844 2.297 . S
Mn828 O852 2.385 . S
Mn828 O853 2.209 . S
Mn828 O854 2.094 . S
Mn829 O834 2.121 . S
Mn829 N836 2.257 . S
Mn829 N845 2.282 . S
Mn829 O853 2.215 . S
Mn829 O855 2.117 . S
C830 O852 1.234 . S
C830 O853 1.283 . S
C831 O843 1.281 . S
C831 O844 1.236 . S
C832 O854 1.240 . S
C832 O855 1.264 . S
O833 Mn828 2.095 . S
O833 C842 1.250 . S
O834 Mn829 2.121 . S
O834 C842 1.258 . S
C835 N836 1.326 . S
C835 C839 1.460 . S
C835 H841 0.929 . S
N836 Mn829 2.257 . S
N836 C835 1.326 . S
N836 C840 1.362 . S
C837 C838 1.258 . S
C837 C840 1.431 . S
C837 C857 1.449 . S
C838 C837 1.258 . S
C838 C839 1.477 . S
C838 H858 0.931 . S
C839 C835 1.460 . S
C839 C838 1.477 . S
C839 H859 0.930 . S
C840 N836 1.362 . S
C840 C837 1.431 . S
C840 C850 1.476 . S
H841 C835 0.929 . S
C842 O833 1.250 . S
C842 O834 1.258 . S
O843 Mn828 2.162 . S
O843 C831 1.281 . S
O844 Mn828 2.297 . S
O844 C831 1.236 . S
N845 Mn829 2.282 . S
N845 C846 1.328 . S
N845 C850 1.318 . S
C846 N845 1.328 . S
C846 C847 1.457 . S
C846 H851 0.929 . S
C847 C846 1.457 . S
C847 C848 1.291 . S
C847 H860 0.931 . S
C848 C847 1.291 . S
C848 C849 1.373 . S
C848 H861 0.929 . S
C849 C848 1.373 . S
C849 C850 1.396 . S
C849 C856 1.403 . S
C850 C840 1.476 . S
C850 N845 1.318 . S
C850 C849 1.396 . S
H851 C846 0.929 . S
O852 Mn828 2.385 . S
O852 C830 1.234 . S
O853 Mn828 2.209 . S
O853 Mn829 2.215 . S
O853 C830 1.283 . S
O854 Mn828 2.094 . S
O854 C832 1.240 . S
O855 Mn829 2.117 . S
O855 C832 1.264 . S
C856 C849 1.403 . S
C856 C857 1.399 . S
C856 H862 0.929 . S
C857 C837 1.449 . S
C857 C856 1.399 . S
C857 H863 0.930 . S
H858 C838 0.931 . S
H859 C839 0.930 . S
H860 C847 0.931 . S
H861 C848 0.929 . S
H862 C856 0.929 . S
H863 C857 0.930 . S
Mn864 O869 2.095 . S
Mn864 O879 2.162 . S
Mn864 O880 2.297 . S
Mn864 O888 2.385 . S
Mn864 O889 2.209 . S
Mn864 O890 2.094 . S
Mn865 O870 2.121 . S
Mn865 N872 2.257 . S
Mn865 N881 2.282 . S
Mn865 O889 2.215 . S
Mn865 O891 2.117 . S
C866 O888 1.234 . S
C866 O889 1.283 . S
C867 O879 1.281 . S
C867 O880 1.236 . S
C868 O890 1.240 . S
C868 O891 1.264 . S
O869 Mn864 2.095 . S
O869 C878 1.250 . S
O870 Mn865 2.121 . S
O870 C878 1.258 . S
C871 N872 1.326 . S
C871 C875 1.460 . S
C871 H877 0.929 . S
N872 Mn865 2.257 . S
N872 C871 1.326 . S
N872 C876 1.362 . S
C873 C874 1.258 . S
C873 C876 1.431 . S
C873 C893 1.449 . S
C874 C873 1.258 . S
C874 C875 1.477 . S
C874 H894 0.931 . S
C875 C871 1.460 . S
C875 C874 1.477 . S
C875 H895 0.930 . S
C876 N872 1.362 . S
C876 C873 1.431 . S
C876 C886 1.476 . S
H877 C871 0.929 . S
C878 O869 1.250 . S
C878 O870 1.258 . S
O879 Mn864 2.162 . S
O879 C867 1.281 . S
O880 Mn864 2.297 . S
O880 C867 1.236 . S
N881 Mn865 2.282 . S
N881 C882 1.328 . S
N881 C886 1.318 . S
C882 N881 1.328 . S
C882 C883 1.457 . S
C882 H887 0.929 . S
C883 C882 1.457 . S
C883 C884 1.291 . S
C883 H896 0.931 . S
C884 C883 1.291 . S
C884 C885 1.373 . S
C884 H897 0.929 . S
C885 C884 1.373 . S
C885 C886 1.396 . S
C885 C892 1.403 . S
C886 C876 1.476 . S
C886 N881 1.318 . S
C886 C885 1.396 . S
H887 C882 0.929 . S
O888 Mn864 2.385 . S
O888 C866 1.234 . S
O889 Mn864 2.209 . S
O889 Mn865 2.215 . S
O889 C866 1.283 . S
O890 Mn864 2.094 . S
O890 C868 1.240 . S
O891 Mn865 2.117 . S
O891 C868 1.264 . S
C892 C885 1.403 . S
C892 C893 1.399 . S
C892 H898 0.929 . S
C893 C873 1.449 . S
C893 C892 1.399 . S
C893 H899 0.930 . S
H894 C874 0.931 . S
H895 C875 0.930 . S
H896 C883 0.931 . S
H897 C884 0.929 . S
H898 C892 0.929 . S
H899 C893 0.930 . S
Mn900 O905 2.095 . S
Mn900 O915 2.162 . S
Mn900 O916 2.297 . S
Mn900 O924 2.385 . S
Mn900 O925 2.209 . S
Mn900 O926 2.094 . S
Mn901 O906 2.121 . S
Mn901 N908 2.257 . S
Mn901 N917 2.282 . S
Mn901 O925 2.215 . S
Mn901 O927 2.117 . S
C902 O924 1.234 . S
C902 O925 1.283 . S
C903 O915 1.281 . S
C903 O916 1.236 . S
C904 O926 1.240 . S
C904 O927 1.264 . S
O905 Mn900 2.095 . S
O905 C914 1.250 . S
O906 Mn901 2.121 . S
O906 C914 1.258 . S
C907 N908 1.326 . S
C907 C911 1.460 . S
C907 H913 0.929 . S
N908 Mn901 2.257 . S
N908 C907 1.326 . S
N908 C912 1.362 . S
C909 C910 1.258 . S
C909 C912 1.431 . S
C909 C929 1.449 . S
C910 C909 1.258 . S
C910 C911 1.477 . S
C910 H930 0.931 . S
C911 C907 1.460 . S
C911 C910 1.477 . S
C911 H931 0.930 . S
C912 N908 1.362 . S
C912 C909 1.431 . S
C912 C922 1.476 . S
H913 C907 0.929 . S
C914 O905 1.250 . S
C914 O906 1.258 . S
O915 Mn900 2.162 . S
O915 C903 1.281 . S
O916 Mn900 2.297 . S
O916 C903 1.236 . S
N917 Mn901 2.282 . S
N917 C918 1.328 . S
N917 C922 1.318 . S
C918 N917 1.328 . S
C918 C919 1.457 . S
C918 H923 0.929 . S
C919 C918 1.457 . S
C919 C920 1.291 . S
C919 H932 0.931 . S
C920 C919 1.291 . S
C920 C921 1.373 . S
C920 H933 0.929 . S
C921 C920 1.373 . S
C921 C922 1.396 . S
C921 C928 1.403 . S
C922 C912 1.476 . S
C922 N917 1.318 . S
C922 C921 1.396 . S
H923 C918 0.929 . S
O924 Mn900 2.385 . S
O924 C902 1.234 . S
O925 Mn900 2.209 . S
O925 Mn901 2.215 . S
O925 C902 1.283 . S
O926 Mn900 2.094 . S
O926 C904 1.240 . S
O927 Mn901 2.117 . S
O927 C904 1.264 . S
C928 C921 1.403 . S
C928 C929 1.399 . S
C928 H934 0.929 . S
C929 C909 1.449 . S
C929 C928 1.399 . S
C929 H935 0.930 . S
H930 C910 0.931 . S
H931 C911 0.930 . S
H932 C919 0.931 . S
H933 C920 0.929 . S
H934 C928 0.929 . S
H935 C929 0.930 . S
Mn936 O941 2.095 . S
Mn936 O951 2.162 . S
Mn936 O952 2.297 . S
Mn936 O960 2.385 1_556 S
Mn936 O961 2.209 . S
Mn936 O962 2.094 . S
Mn937 O942 2.121 . S
Mn937 N944 2.257 1_455 S
Mn937 N953 2.282 1_556 S
Mn937 O961 2.215 . S
Mn937 O963 2.117 . S
C938 O960 1.234 . S
C938 O961 1.283 1_554 S
C939 O951 1.281 . S
C939 O952 1.236 . S
C940 O962 1.240 . S
C940 O963 1.264 . S
O941 Mn936 2.095 . S
O941 C950 1.250 . S
O942 Mn937 2.121 . S
O942 C950 1.258 . S
C943 N944 1.326 . S
C943 C947 1.460 . S
C943 H949 0.929 . S
N944 Mn937 2.257 1_655 S
N944 C943 1.326 . S
N944 C948 1.362 . S
C945 C946 1.258 1_554 S
C945 C948 1.431 1_554 S
C945 C965 1.449 . S
C946 C945 1.258 1_556 S
C946 C947 1.477 . S
C946 H966 0.931 . S
C947 C943 1.460 . S
C947 C946 1.477 . S
C947 H967 0.930 . S
C948 N944 1.362 . S
C948 C945 1.431 1_556 S
C948 C958 1.476 1_656 S
H949 C943 0.929 . S
C950 O941 1.250 . S
C950 O942 1.258 . S
O951 Mn936 2.162 . S
O951 C939 1.281 . S
O952 Mn936 2.297 . S
O952 C939 1.236 . S
N953 Mn937 2.282 1_554 S
N953 C954 1.328 . S
N953 C958 1.318 . S
C954 N953 1.328 . S
C954 C955 1.457 . S
C954 H959 0.929 . S
C955 C954 1.457 . S
C955 C956 1.291 . S
C955 H968 0.931 . S
C956 C955 1.291 . S
C956 C957 1.373 . S
C956 H969 0.929 . S
C957 C956 1.373 . S
C957 C958 1.396 . S
C957 C964 1.403 1_455 S
C958 C948 1.476 1_454 S
C958 N953 1.318 . S
C958 C957 1.396 . S
H959 C954 0.929 . S
O960 Mn936 2.385 1_554 S
O960 C938 1.234 . S
O961 Mn936 2.209 . S
O961 Mn937 2.215 . S
O961 C938 1.283 1_556 S
O962 Mn936 2.094 . S
O962 C940 1.240 . S
O963 Mn937 2.117 . S
O963 C940 1.264 . S
C964 C957 1.403 1_655 S
C964 C965 1.399 . S
C964 H970 0.929 . S
C965 C945 1.449 . S
C965 C964 1.399 . S
C965 H971 0.930 . S
H966 C946 0.931 . S
H967 C947 0.930 . S
H968 C955 0.931 . S
H969 C956 0.929 . S
H970 C964 0.929 . S
H971 C965 0.930 . S
Mn972 O977 2.095 . S
Mn972 O987 2.162 . S
Mn972 O988 2.297 . S
Mn972 O996 2.385 . S
Mn972 O997 2.209 . S
Mn972 O998 2.094 . S
Mn973 O978 2.121 . S
Mn973 N980 2.257 . S
Mn973 N989 2.282 . S
Mn973 O997 2.215 . S
Mn973 O999 2.117 . S
C974 O996 1.234 . S
C974 O997 1.283 . S
C975 O987 1.281 . S
C975 O988 1.236 . S
C976 O998 1.240 . S
C976 O999 1.264 . S
O977 Mn972 2.095 . S
O977 C986 1.250 . S
O978 Mn973 2.121 . S
O978 C986 1.258 . S
C979 N980 1.326 . S
C979 C983 1.460 . S
C979 H985 0.929 . S
N980 Mn973 2.257 . S
N980 C979 1.326 . S
N980 C984 1.362 . S
C981 C982 1.258 . S
C981 C984 1.431 . S
C981 C1001 1.449 . S
C982 C981 1.258 . S
C982 C983 1.477 . S
C982 H1002 0.931 . S
C983 C979 1.460 . S
C983 C982 1.477 . S
C983 H1003 0.930 . S
C984 N980 1.362 . S
C984 C981 1.431 . S
C984 C994 1.476 . S
H985 C979 0.929 . S
C986 O977 1.250 . S
C986 O978 1.258 . S
O987 Mn972 2.162 . S
O987 C975 1.281 . S
O988 Mn972 2.297 . S
O988 C975 1.236 . S
N989 Mn973 2.282 . S
N989 C990 1.328 . S
N989 C994 1.318 . S
C990 N989 1.328 . S
C990 C991 1.457 . S
C990 H995 0.929 . S
C991 C990 1.457 . S
C991 C992 1.291 . S
C991 H1004 0.931 . S
C992 C991 1.291 . S
C992 C993 1.373 . S
C992 H1005 0.929 . S
C993 C992 1.373 . S
C993 C994 1.396 . S
C993 C1000 1.403 . S
C994 C984 1.476 . S
C994 N989 1.318 . S
C994 C993 1.396 . S
H995 C990 0.929 . S
O996 Mn972 2.385 . S
O996 C974 1.234 . S
O997 Mn972 2.209 . S
O997 Mn973 2.215 . S
O997 C974 1.283 . S
O998 Mn972 2.094 . S
O998 C976 1.240 . S
O999 Mn973 2.117 . S
O999 C976 1.264 . S
C1000 C993 1.403 . S
C1000 C1001 1.399 . S
C1000 H1006 0.929 . S
C1001 C981 1.449 . S
C1001 C1000 1.399 . S
C1001 H1007 0.930 . S
H1002 C982 0.931 . S
H1003 C983 0.930 . S
H1004 C991 0.931 . S
H1005 C992 0.929 . S
H1006 C1000 0.929 . S
H1007 C1001 0.930 . S
Mn1008 O1013 2.095 . S
Mn1008 O1023 2.162 . S
Mn1008 O1024 2.297 . S
Mn1008 O1032 2.385 1_554 S
Mn1008 O1033 2.209 . S
Mn1008 O1034 2.094 . S
Mn1009 O1014 2.121 . S
Mn1009 N1016 2.257 . S
Mn1009 N1025 2.282 1_554 S
Mn1009 O1033 2.215 . S
Mn1009 O1035 2.117 . S
C1010 O1032 1.234 . S
C1010 O1033 1.283 1_556 S
C1011 O1023 1.281 . S
C1011 O1024 1.236 . S
C1012 O1034 1.240 . S
C1012 O1035 1.264 . S
O1013 Mn1008 2.095 . S
O1013 C1022 1.250 . S
O1014 Mn1009 2.121 . S
O1014 C1022 1.258 . S
C1015 N1016 1.326 . S
C1015 C1019 1.460 . S
C1015 H1021 0.929 . S
N1016 Mn1009 2.257 . S
N1016 C1015 1.326 . S
N1016 C1020 1.362 . S
C1017 C1018 1.258 1_556 S
C1017 C1020 1.431 1_556 S
C1017 C1037 1.449 . S
C1018 C1017 1.258 1_554 S
C1018 C1019 1.477 . S
C1018 H1038 0.931 . S
C1019 C1015 1.460 . S
C1019 C1018 1.477 . S
C1019 H1039 0.930 . S
C1020 N1016 1.362 . S
C1020 C1017 1.431 1_554 S
C1020 C1030 1.476 1_554 S
H1021 C1015 0.929 . S
C1022 O1013 1.250 . S
C1022 O1014 1.258 . S
O1023 Mn1008 2.162 . S
O1023 C1011 1.281 . S
O1024 Mn1008 2.297 . S
O1024 C1011 1.236 . S
N1025 Mn1009 2.282 1_556 S
N1025 C1026 1.328 . S
N1025 C1030 1.318 . S
C1026 N1025 1.328 . S
C1026 C1027 1.457 . S
C1026 H1031 0.929 . S
C1027 C1026 1.457 . S
C1027 C1028 1.291 . S
C1027 H1040 0.931 . S
C1028 C1027 1.291 . S
C1028 C1029 1.373 . S
C1028 H1041 0.929 . S
C1029 C1028 1.373 . S
C1029 C1030 1.396 . S
C1029 C1036 1.403 . S
C1030 C1020 1.476 1_556 S
C1030 N1025 1.318 . S
C1030 C1029 1.396 . S
H1031 C1026 0.929 . S
O1032 Mn1008 2.385 1_556 S
O1032 C1010 1.234 . S
O1033 Mn1008 2.209 . S
O1033 Mn1009 2.215 . S
O1033 C1010 1.283 1_554 S
O1034 Mn1008 2.094 . S
O1034 C1012 1.240 . S
O1035 Mn1009 2.117 . S
O1035 C1012 1.264 . S
C1036 C1029 1.403 . S
C1036 C1037 1.399 . S
C1036 H1042 0.929 . S
C1037 C1017 1.449 . S
C1037 C1036 1.399 . S
C1037 H1043 0.930 . S
H1038 C1018 0.931 . S
H1039 C1019 0.930 . S
H1040 C1027 0.931 . S
H1041 C1028 0.929 . S
H1042 C1036 0.929 . S
H1043 C1037 0.930 . S
Mn1044 O1049 2.095 . S
Mn1044 O1059 2.162 . S
Mn1044 O1060 2.297 . S
Mn1044 O1068 2.385 . S
Mn1044 O1069 2.209 . S
Mn1044 O1070 2.094 . S
Mn1045 O1050 2.121 . S
Mn1045 N1052 2.257 . S
Mn1045 N1061 2.282 . S
Mn1045 O1069 2.215 . S
Mn1045 O1071 2.117 . S
C1046 O1068 1.234 . S
C1046 O1069 1.283 . S
C1047 O1059 1.281 . S
C1047 O1060 1.236 . S
C1048 O1070 1.240 . S
C1048 O1071 1.264 . S
O1049 Mn1044 2.095 . S
O1049 C1058 1.250 . S
O1050 Mn1045 2.121 . S
O1050 C1058 1.258 . S
C1051 N1052 1.326 . S
C1051 C1055 1.460 . S
C1051 H1057 0.929 . S
N1052 Mn1045 2.257 . S
N1052 C1051 1.326 . S
N1052 C1056 1.362 . S
C1053 C1054 1.258 . S
C1053 C1056 1.431 . S
C1053 C1073 1.449 . S
C1054 C1053 1.258 . S
C1054 C1055 1.477 . S
C1054 H1074 0.931 . S
C1055 C1051 1.460 . S
C1055 C1054 1.477 . S
C1055 H1075 0.930 . S
C1056 N1052 1.362 . S
C1056 C1053 1.431 . S
C1056 C1066 1.476 . S
H1057 C1051 0.929 . S
C1058 O1049 1.250 . S
C1058 O1050 1.258 . S
O1059 Mn1044 2.162 . S
O1059 C1047 1.281 . S
O1060 Mn1044 2.297 . S
O1060 C1047 1.236 . S
N1061 Mn1045 2.282 . S
N1061 C1062 1.328 . S
N1061 C1066 1.318 . S
C1062 N1061 1.328 . S
C1062 C1063 1.457 . S
C1062 H1067 0.929 . S
C1063 C1062 1.457 . S
C1063 C1064 1.291 . S
C1063 H1076 0.931 . S
C1064 C1063 1.291 . S
C1064 C1065 1.373 . S
C1064 H1077 0.929 . S
C1065 C1064 1.373 . S
C1065 C1066 1.396 . S
C1065 C1072 1.403 . S
C1066 C1056 1.476 . S
C1066 N1061 1.318 . S
C1066 C1065 1.396 . S
H1067 C1062 0.929 . S
O1068 Mn1044 2.385 . S
O1068 C1046 1.234 . S
O1069 Mn1044 2.209 . S
O1069 Mn1045 2.215 . S
O1069 C1046 1.283 . S
O1070 Mn1044 2.094 . S
O1070 C1048 1.240 . S
O1071 Mn1045 2.117 . S
O1071 C1048 1.264 . S
C1072 C1065 1.403 . S
C1072 C1073 1.399 . S
C1072 H1078 0.929 . S
C1073 C1053 1.449 . S
C1073 C1072 1.399 . S
C1073 H1079 0.930 . S
H1074 C1054 0.931 . S
H1075 C1055 0.930 . S
H1076 C1063 0.931 . S
H1077 C1064 0.929 . S
H1078 C1072 0.929 . S
H1079 C1073 0.930 . S
Mn1080 O1085 2.095 . S
Mn1080 O1095 2.162 . S
Mn1080 O1096 2.297 . S
Mn1080 O1104 2.385 . S
Mn1080 O1105 2.209 . S
Mn1080 O1106 2.094 . S
Mn1081 O1086 2.121 . S
Mn1081 N1088 2.257 1_455 S
Mn1081 N1097 2.282 . S
Mn1081 O1105 2.215 . S
Mn1081 O1107 2.117 . S
C1082 O1104 1.234 . S
C1082 O1105 1.283 . S
C1083 O1095 1.281 . S
C1083 O1096 1.236 . S
C1084 O1106 1.240 . S
C1084 O1107 1.264 . S
O1085 Mn1080 2.095 . S
O1085 C1094 1.250 . S
O1086 Mn1081 2.121 . S
O1086 C1094 1.258 . S
C1087 N1088 1.326 . S
C1087 C1091 1.460 . S
C1087 H1093 0.929 . S
N1088 Mn1081 2.257 1_655 S
N1088 C1087 1.326 . S
N1088 C1092 1.362 . S
C1089 C1090 1.258 . S
C1089 C1092 1.431 . S
C1089 C1109 1.449 . S
C1090 C1089 1.258 . S
C1090 C1091 1.477 . S
C1090 H1110 0.931 . S
C1091 C1087 1.460 . S
C1091 C1090 1.477 . S
C1091 H1111 0.930 . S
C1092 N1088 1.362 . S
C1092 C1089 1.431 . S
C1092 C1102 1.476 1_655 S
H1093 C1087 0.929 . S
C1094 O1085 1.250 . S
C1094 O1086 1.258 . S
O1095 Mn1080 2.162 . S
O1095 C1083 1.281 . S
O1096 Mn1080 2.297 . S
O1096 C1083 1.236 . S
N1097 Mn1081 2.282 . S
N1097 C1098 1.328 . S
N1097 C1102 1.318 . S
C1098 N1097 1.328 . S
C1098 C1099 1.457 . S
C1098 H1103 0.929 . S
C1099 C1098 1.457 . S
C1099 C1100 1.291 . S
C1099 H1112 0.931 . S
C1100 C1099 1.291 . S
C1100 C1101 1.373 . S
C1100 H1113 0.929 . S
C1101 C1100 1.373 . S
C1101 C1102 1.396 . S
C1101 C1108 1.403 1_455 S
C1102 C1092 1.476 1_455 S
C1102 N1097 1.318 . S
C1102 C1101 1.396 . S
H1103 C1098 0.929 . S
O1104 Mn1080 2.385 . S
O1104 C1082 1.234 . S
O1105 Mn1080 2.209 . S
O1105 Mn1081 2.215 . S
O1105 C1082 1.283 . S
O1106 Mn1080 2.094 . S
O1106 C1084 1.240 . S
O1107 Mn1081 2.117 . S
O1107 C1084 1.264 . S
C1108 C1101 1.403 1_655 S
C1108 C1109 1.399 . S
C1108 H1114 0.929 . S
C1109 C1089 1.449 . S
C1109 C1108 1.399 . S
C1109 H1115 0.930 . S
H1110 C1090 0.931 . S
H1111 C1091 0.930 . S
H1112 C1099 0.931 . S
H1113 C1100 0.929 . S
H1114 C1108 0.929 . S
H1115 C1109 0.930 . S
Mn1116 O1121 2.095 . S
Mn1116 O1131 2.162 . S
Mn1116 O1132 2.297 . S
Mn1116 O1140 2.385 . S
Mn1116 O1141 2.209 . S
Mn1116 O1142 2.094 . S
Mn1117 O1122 2.121 . S
Mn1117 N1124 2.257 . S
Mn1117 N1133 2.282 . S
Mn1117 O1141 2.215 . S
Mn1117 O1143 2.117 . S
C1118 O1140 1.234 . S
C1118 O1141 1.283 . S
C1119 O1131 1.281 . S
C1119 O1132 1.236 . S
C1120 O1142 1.240 . S
C1120 O1143 1.264 . S
O1121 Mn1116 2.095 . S
O1121 C1130 1.250 . S
O1122 Mn1117 2.121 . S
O1122 C1130 1.258 . S
C1123 N1124 1.326 . S
C1123 C1127 1.460 . S
C1123 H1129 0.929 . S
N1124 Mn1117 2.257 . S
N1124 C1123 1.326 . S
N1124 C1128 1.362 . S
C1125 C1126 1.258 . S
C1125 C1128 1.431 . S
C1125 C1145 1.449 . S
C1126 C1125 1.258 . S
C1126 C1127 1.477 . S
C1126 H1146 0.931 . S
C1127 C1123 1.460 . S
C1127 C1126 1.477 . S
C1127 H1147 0.930 . S
C1128 N1124 1.362 . S
C1128 C1125 1.431 . S
C1128 C1138 1.476 . S
H1129 C1123 0.929 . S
C1130 O1121 1.250 . S
C1130 O1122 1.258 . S
O1131 Mn1116 2.162 . S
O1131 C1119 1.281 . S
O1132 Mn1116 2.297 . S
O1132 C1119 1.236 . S
N1133 Mn1117 2.282 . S
N1133 C1134 1.328 . S
N1133 C1138 1.318 . S
C1134 N1133 1.328 . S
C1134 C1135 1.457 . S
C1134 H1139 0.929 . S
C1135 C1134 1.457 . S
C1135 C1136 1.291 . S
C1135 H1148 0.931 . S
C1136 C1135 1.291 . S
C1136 C1137 1.373 . S
C1136 H1149 0.929 . S
C1137 C1136 1.373 . S
C1137 C1138 1.396 . S
C1137 C1144 1.403 . S
C1138 C1128 1.476 . S
C1138 N1133 1.318 . S
C1138 C1137 1.396 . S
H1139 C1134 0.929 . S
O1140 Mn1116 2.385 . S
O1140 C1118 1.234 . S
O1141 Mn1116 2.209 . S
O1141 Mn1117 2.215 . S
O1141 C1118 1.283 . S
O1142 Mn1116 2.094 . S
O1142 C1120 1.240 . S
O1143 Mn1117 2.117 . S
O1143 C1120 1.264 . S
C1144 C1137 1.403 . S
C1144 C1145 1.399 . S
C1144 H1150 0.929 . S
C1145 C1125 1.449 . S
C1145 C1144 1.399 . S
C1145 H1151 0.930 . S
H1146 C1126 0.931 . S
H1147 C1127 0.930 . S
H1148 C1135 0.931 . S
H1149 C1136 0.929 . S
H1150 C1144 0.929 . S
H1151 C1145 0.930 . S
H1152 C1158 0.930 1_455 S
H1153 C1161 0.930 . S
H1154 C1162 0.930 . S
H1155 C1163 0.930 . S
H1156 C1166 0.930 . S
H1157 C1167 0.930 . S
C1158 H1152 0.930 1_655 S
C1158 C1159 1.355 . S
C1158 C1160 1.415 . S
C1159 C1158 1.355 . S
C1159 C1161 1.419 . S
C1160 C1158 1.415 . S
C1160 C1165 1.425 . S
C1160 C1167 1.409 1_655 S
C1161 H1153 0.930 . S
C1161 C1159 1.419 . S
C1161 C1162 1.362 . S
C1162 H1154 0.930 . S
C1162 C1161 1.362 . S
C1162 C1165 1.409 . S
C1163 H1155 0.930 . S
C1163 C1164 1.355 . S
C1163 C1165 1.415 . S
C1164 C1163 1.355 . S
C1164 C1166 1.419 1_655 S
C1165 C1160 1.425 . S
C1165 C1162 1.409 . S
C1165 C1163 1.415 . S
C1166 H1156 0.930 . S
C1166 C1164 1.419 1_455 S
C1166 C1167 1.362 . S
C1167 H1157 0.930 . S
C1167 C1160 1.409 1_455 S
C1167 C1166 1.362 . S
H1168 C1174 0.930 1_556 S
H1169 C1177 0.930 . S
H1170 C1178 0.930 . S
H1171 C1179 0.930 . S
H1172 C1182 0.930 . S
H1173 C1183 0.930 . S
C1174 H1168 0.930 1_554 S
C1174 C1175 1.355 1_554 S
C1174 C1176 1.415 . S
C1175 C1174 1.355 1_556 S
C1175 C1177 1.419 . S
C1176 C1174 1.415 . S
C1176 C1181 1.425 . S
C1176 C1183 1.409 . S
C1177 H1169 0.930 . S
C1177 C1175 1.419 . S
C1177 C1178 1.362 1_556 S
C1178 H1170 0.930 . S
C1178 C1177 1.362 1_554 S
C1178 C1181 1.409 . S
C1179 H1171 0.930 . S
C1179 C1180 1.355 . S
C1179 C1181 1.415 . S
C1180 C1179 1.355 . S
C1180 C1182 1.419 . S
C1181 C1176 1.425 . S
C1181 C1178 1.409 . S
C1181 C1179 1.415 . S
C1182 H1172 0.930 . S
C1182 C1180 1.419 . S
C1182 C1183 1.362 . S
C1183 H1173 0.930 . S
C1183 C1176 1.409 . S
C1183 C1182 1.362 . S
H1184 C1190 0.930 . S
H1185 C1193 0.930 . S
H1186 C1194 0.930 . S
H1187 C1195 0.930 . S
H1188 C1198 0.930 . S
H1189 C1199 0.930 . S
C1190 H1184 0.930 . S
C1190 C1191 1.355 . S
C1190 C1192 1.415 . S
C1191 C1190 1.355 . S
C1191 C1193 1.419 . S
C1192 C1190 1.415 . S
C1192 C1197 1.425 . S
C1192 C1199 1.409 . S
C1193 H1185 0.930 . S
C1193 C1191 1.419 . S
C1193 C1194 1.362 . S
C1194 H1186 0.930 . S
C1194 C1193 1.362 . S
C1194 C1197 1.409 . S
C1195 H1187 0.930 . S
C1195 C1196 1.355 . S
C1195 C1197 1.415 . S
C1196 C1195 1.355 . S
C1196 C1198 1.419 . S
C1197 C1192 1.425 . S
C1197 C1194 1.409 . S
C1197 C1195 1.415 . S
C1198 H1188 0.930 . S
C1198 C1196 1.419 . S
C1198 C1199 1.362 . S
C1199 H1189 0.930 . S
C1199 C1192 1.409 . S
C1199 C1198 1.362 . S
H1200 C1206 0.930 . S
H1201 C1209 0.930 . S
H1202 C1210 0.930 . S
H1203 C1211 0.930 . S
H1204 C1214 0.930 . S
H1205 C1215 0.930 . S
C1206 H1200 0.930 . S
C1206 C1207 1.355 . S
C1206 C1208 1.415 . S
C1207 C1206 1.355 . S
C1207 C1209 1.419 . S
C1208 C1206 1.415 . S
C1208 C1213 1.425 . S
C1208 C1215 1.409 . S
C1209 H1201 0.930 . S
C1209 C1207 1.419 . S
C1209 C1210 1.362 . S
C1210 H1202 0.930 . S
C1210 C1209 1.362 . S
C1210 C1213 1.409 . S
C1211 H1203 0.930 . S
C1211 C1212 1.355 . S
C1211 C1213 1.415 . S
C1212 C1211 1.355 . S
C1212 C1214 1.419 . S
C1213 C1208 1.425 . S
C1213 C1210 1.409 . S
C1213 C1211 1.415 . S
C1214 H1204 0.930 . S
C1214 C1212 1.419 . S
C1214 C1215 1.362 . S
C1215 H1205 0.930 . S
C1215 C1208 1.409 . S
C1215 C1214 1.362 . S
H1216 C1222 0.930 . S
H1217 C1225 0.930 . S
H1218 C1226 0.930 . S
H1219 C1227 0.930 1_455 S
H1220 C1230 0.930 . S
H1221 C1231 0.930 . S
C1222 H1216 0.930 . S
C1222 C1223 1.355 . S
C1222 C1224 1.415 . S
C1223 C1222 1.355 . S
C1223 C1225 1.419 1_655 S
C1224 C1222 1.415 . S
C1224 C1229 1.425 . S
C1224 C1231 1.409 . S
C1225 H1217 0.930 . S
C1225 C1223 1.419 1_455 S
C1225 C1226 1.362 . S
C1226 H1218 0.930 . S
C1226 C1225 1.362 . S
C1226 C1229 1.409 1_455 S
C1227 H1219 0.930 1_655 S
C1227 C1228 1.355 . S
C1227 C1229 1.415 . S
C1228 C1227 1.355 . S
C1228 C1230 1.419 . S
C1229 C1224 1.425 . S
C1229 C1226 1.409 1_655 S
C1229 C1227 1.415 . S
C1230 H1220 0.930 . S
C1230 C1228 1.419 . S
C1230 C1231 1.362 . S
C1231 H1221 0.930 . S
C1231 C1224 1.409 . S
C1231 C1230 1.362 . S
H1232 C1238 0.930 . S
H1233 C1241 0.930 . S
H1234 C1242 0.930 . S
H1235 C1243 0.930 1_554 S
H1236 C1246 0.930 . S
H1237 C1247 0.930 . S
C1238 H1232 0.930 . S
C1238 C1239 1.355 . S
C1238 C1240 1.415 . S
C1239 C1238 1.355 . S
C1239 C1241 1.419 . S
C1240 C1238 1.415 . S
C1240 C1245 1.425 . S
C1240 C1247 1.409 . S
C1241 H1233 0.930 . S
C1241 C1239 1.419 . S
C1241 C1242 1.362 . S
C1242 H1234 0.930 . S
C1242 C1241 1.362 . S
C1242 C1245 1.409 . S
C1243 H1235 0.930 1_556 S
C1243 C1244 1.355 1_556 S
C1243 C1245 1.415 . S
C1244 C1243 1.355 1_554 S
C1244 C1246 1.419 . S
C1245 C1240 1.425 . S
C1245 C1242 1.409 . S
C1245 C1243 1.415 . S
C1246 H1236 0.930 . S
C1246 C1244 1.419 . S
C1246 C1247 1.362 1_554 S
C1247 H1237 0.930 . S
C1247 C1240 1.409 . S
C1247 C1246 1.362 1_556 S
H1248 C1254 0.930 . S
H1249 C1257 0.930 . S
H1250 C1258 0.930 . S
H1251 C1259 0.930 . S
H1252 C1262 0.930 . S
H1253 C1263 0.930 . S
C1254 H1248 0.930 . S
C1254 C1255 1.355 . S
C1254 C1256 1.415 . S
C1255 C1254 1.355 . S
C1255 C1257 1.419 . S
C1256 C1254 1.415 . S
C1256 C1261 1.425 . S
C1256 C1263 1.409 . S
C1257 H1249 0.930 . S
C1257 C1255 1.419 . S
C1257 C1258 1.362 . S
C1258 H1250 0.930 . S
C1258 C1257 1.362 . S
C1258 C1261 1.409 . S
C1259 H1251 0.930 . S
C1259 C1260 1.355 . S
C1259 C1261 1.415 . S
C1260 C1259 1.355 . S
C1260 C1262 1.419 . S
C1261 C1256 1.425 . S
C1261 C1258 1.409 . S
C1261 C1259 1.415 . S
C1262 H1252 0.930 . S
C1262 C1260 1.419 . S
C1262 C1263 1.362 . S
C1263 H1253 0.930 . S
C1263 C1256 1.409 . S
C1263 C1262 1.362 . S
H1264 C1270 0.930 . S
H1265 C1273 0.930 . S
H1266 C1274 0.930 . S
H1267 C1275 0.930 . S
H1268 C1278 0.930 . S
H1269 C1279 0.930 . S
C1270 H1264 0.930 . S
C1270 C1271 1.355 . S
C1270 C1272 1.415 . S
C1271 C1270 1.355 . S
C1271 C1273 1.419 . S
C1272 C1270 1.415 . S
C1272 C1277 1.425 . S
C1272 C1279 1.409 . S
C1273 H1265 0.930 . S
C1273 C1271 1.419 . S
C1273 C1274 1.362 . S
C1274 H1266 0.930 . S
C1274 C1273 1.362 . S
C1274 C1277 1.409 . S
C1275 H1267 0.930 . S
C1275 C1276 1.355 . S
C1275 C1277 1.415 . S
C1276 C1275 1.355 . S
C1276 C1278 1.419 . S
C1277 C1272 1.425 . S
C1277 C1274 1.409 . S
C1277 C1275 1.415 . S
C1278 H1268 0.930 . S
C1278 C1276 1.419 . S
C1278 C1279 1.362 . S
C1279 H1269 0.930 . S
C1279 C1272 1.409 . S
C1279 C1278 1.362 . S
H1280 C1286 0.930 . S
H1281 C1289 0.930 . S
H1282 C1290 0.930 . S
H1283 C1291 0.930 1_455 S
H1284 C1294 0.930 . S
H1285 C1295 0.930 . S
C1286 H1280 0.930 . S
C1286 C1287 1.355 . S
C1286 C1288 1.415 . S
C1287 C1286 1.355 . S
C1287 C1289 1.419 1_655 S
C1288 C1286 1.415 . S
C1288 C1293 1.425 . S
C1288 C1295 1.409 . S
C1289 H1281 0.930 . S
C1289 C1287 1.419 1_455 S
C1289 C1290 1.362 . S
C1290 H1282 0.930 . S
C1290 C1289 1.362 . S
C1290 C1293 1.409 1_455 S
C1291 H1283 0.930 1_655 S
C1291 C1292 1.355 . S
C1291 C1293 1.415 . S
C1292 C1291 1.355 . S
C1292 C1294 1.419 . S
C1293 C1288 1.425 . S
C1293 C1290 1.409 1_655 S
C1293 C1291 1.415 . S
C1294 H1284 0.930 . S
C1294 C1292 1.419 . S
C1294 C1295 1.362 . S
C1295 H1285 0.930 . S
C1295 C1288 1.409 . S
C1295 C1294 1.362 . S
H1296 C1302 0.930 . S
H1297 C1305 0.930 . S
H1298 C1306 0.930 . S
H1299 C1307 0.930 . S
H1300 C1310 0.930 . S
H1301 C1311 0.930 . S
C1302 H1296 0.930 . S
C1302 C1303 1.355 . S
C1302 C1304 1.415 1_554 S
C1303 C1302 1.355 . S
C1303 C1305 1.419 . S
C1304 C1302 1.415 1_556 S
C1304 C1309 1.425 . S
C1304 C1311 1.409 . S
C1305 H1297 0.930 . S
C1305 C1303 1.419 . S
C1305 C1306 1.362 1_554 S
C1306 H1298 0.930 . S
C1306 C1305 1.362 1_556 S
C1306 C1309 1.409 . S
C1307 H1299 0.930 . S
C1307 C1308 1.355 . S
C1307 C1309 1.415 . S
C1308 C1307 1.355 . S
C1308 C1310 1.419 . S
C1309 C1304 1.425 . S
C1309 C1306 1.409 . S
C1309 C1307 1.415 . S
C1310 H1300 0.930 . S
C1310 C1308 1.419 . S
C1310 C1311 1.362 . S
C1311 H1301 0.930 . S
C1311 C1304 1.409 . S
C1311 C1310 1.362 . S
H1312 C1318 0.930 . S
H1313 C1321 0.930 . S
H1314 C1322 0.930 . S
H1315 C1323 0.930 . S
H1316 C1326 0.930 . S
H1317 C1327 0.930 . S
C1318 H1312 0.930 . S
C1318 C1319 1.355 . S
C1318 C1320 1.415 . S
C1319 C1318 1.355 . S
C1319 C1321 1.419 . S
C1320 C1318 1.415 . S
C1320 C1325 1.425 . S
C1320 C1327 1.409 . S
C1321 H1313 0.930 . S
C1321 C1319 1.419 . S
C1321 C1322 1.362 . S
C1322 H1314 0.930 . S
C1322 C1321 1.362 . S
C1322 C1325 1.409 . S
C1323 H1315 0.930 . S
C1323 C1324 1.355 . S
C1323 C1325 1.415 . S
C1324 C1323 1.355 . S
C1324 C1326 1.419 . S
C1325 C1320 1.425 . S
C1325 C1322 1.409 . S
C1325 C1323 1.415 . S
C1326 H1316 0.930 . S
C1326 C1324 1.419 . S
C1326 C1327 1.362 . S
C1327 H1317 0.930 . S
C1327 C1320 1.409 . S
C1327 C1326 1.362 . S
H1328 C1334 0.930 . S
H1329 C1337 0.930 . S
H1330 C1338 0.930 . S
H1331 C1339 0.930 . S
H1332 C1342 0.930 . S
H1333 C1343 0.930 . S
C1334 H1328 0.930 . S
C1334 C1335 1.355 . S
C1334 C1336 1.415 . S
C1335 C1334 1.355 . S
C1335 C1337 1.419 . S
C1336 C1334 1.415 . S
C1336 C1341 1.425 . S
C1336 C1343 1.409 . S
C1337 H1329 0.930 . S
C1337 C1335 1.419 . S
C1337 C1338 1.362 . S
C1338 H1330 0.930 . S
C1338 C1337 1.362 . S
C1338 C1341 1.409 . S
C1339 H1331 0.930 . S
C1339 C1340 1.355 . S
C1339 C1341 1.415 . S
C1340 C1339 1.355 . S
C1340 C1342 1.419 . S
C1341 C1336 1.425 . S
C1341 C1338 1.409 . S
C1341 C1339 1.415 . S
C1342 H1332 0.930 . S
C1342 C1340 1.419 . S
C1342 C1343 1.362 . S
C1343 H1333 0.930 . S
C1343 C1336 1.409 . S
C1343 C1342 1.362 . S
H1344 C1350 0.930 . S
H1345 C1353 0.911 1_455 S
H1346 C1354 0.930 1_455 S
H1347 C1355 0.930 . S
H1348 C1358 0.930 . S
H1349 C1359 0.930 . S
C1350 H1344 0.930 . S
C1350 C1351 1.355 . S
C1350 C1352 1.415 . S
C1351 C1350 1.355 . S
C1351 C1353 1.419 . S
C1352 C1350 1.415 . S
C1352 C1357 1.425 . S
C1352 C1359 1.409 . S
C1353 H1345 0.911 1_655 S
C1353 C1351 1.419 . S
C1353 C1354 1.362 . S
C1354 H1346 0.930 1_655 S
C1354 C1353 1.362 . S
C1354 C1357 1.409 . S
C1355 H1347 0.930 . S
C1355 C1356 1.355 . S
C1355 C1357 1.415 . S
C1356 C1355 1.355 . S
C1356 C1358 1.419 . S
C1357 C1352 1.425 . S
C1357 C1354 1.409 . S
C1357 C1355 1.415 . S
C1358 H1348 0.930 . S
C1358 C1356 1.419 . S
C1358 C1359 1.362 . S
C1359 H1349 0.930 . S
C1359 C1352 1.409 . S
C1359 C1358 1.362 . S
H1360 C1366 0.930 . S
H1361 C1369 0.930 . S
H1362 C1370 0.930 . S
H1363 C1371 0.930 . S
H1364 C1374 0.930 . S
H1365 C1375 0.930 . S
C1366 H1360 0.930 . S
C1366 C1367 1.355 . S
C1366 C1368 1.415 . S
C1367 C1366 1.355 . S
C1367 C1369 1.419 . S
C1368 C1366 1.415 . S
C1368 C1373 1.425 . S
C1368 C1375 1.409 . S
C1369 H1361 0.930 . S
C1369 C1367 1.419 . S
C1369 C1370 1.362 . S
C1370 H1362 0.930 . S
C1370 C1369 1.362 . S
C1370 C1373 1.409 . S
C1371 H1363 0.930 . S
C1371 C1372 1.355 . S
C1371 C1373 1.415 1_556 S
C1372 C1371 1.355 . S
C1372 C1374 1.419 . S
C1373 C1368 1.425 . S
C1373 C1370 1.409 . S
C1373 C1371 1.415 1_554 S
C1374 H1364 0.930 . S
C1374 C1372 1.419 . S
C1374 C1375 1.362 1_556 S
C1375 H1365 0.930 . S
C1375 C1368 1.409 . S
C1375 C1374 1.362 1_554 S
H1376 C1382 0.930 . S
H1377 C1385 0.930 . S
H1378 C1386 0.930 . S
H1379 C1387 0.930 . S
H1380 C1390 0.930 . S
H1381 C1391 0.930 . S
C1382 H1376 0.930 . S
C1382 C1383 1.355 . S
C1382 C1384 1.415 . S
C1383 C1382 1.355 . S
C1383 C1385 1.419 . S
C1384 C1382 1.415 . S
C1384 C1389 1.425 . S
C1384 C1391 1.409 . S
C1385 H1377 0.930 . S
C1385 C1383 1.419 . S
C1385 C1386 1.362 . S
C1386 H1378 0.930 . S
C1386 C1385 1.362 . S
C1386 C1389 1.409 . S
C1387 H1379 0.930 . S
C1387 C1388 1.355 . S
C1387 C1389 1.415 . S
C1388 C1387 1.355 . S
C1388 C1390 1.419 . S
C1389 C1384 1.425 . S
C1389 C1386 1.409 . S
C1389 C1387 1.415 . S
C1390 H1380 0.930 . S
C1390 C1388 1.419 . S
C1390 C1391 1.362 . S
C1391 H1381 0.930 . S
C1391 C1384 1.409 . S
C1391 C1390 1.362 . S
H1392 C1398 0.930 . S
H1393 C1401 0.930 . S
H1394 C1402 0.930 . S
H1395 C1403 0.930 . S
H1396 C1406 0.930 . S
H1397 C1407 0.930 . S
C1398 H1392 0.930 . S
C1398 C1399 1.355 . S
C1398 C1400 1.415 . S
C1399 C1398 1.355 . S
C1399 C1401 1.419 . S
C1400 C1398 1.415 . S
C1400 C1405 1.425 . S
C1400 C1407 1.409 . S
C1401 H1393 0.930 . S
C1401 C1399 1.419 . S
C1401 C1402 1.362 . S
C1402 H1394 0.930 . S
C1402 C1401 1.362 . S
C1402 C1405 1.409 . S
C1403 H1395 0.930 . S
C1403 C1404 1.355 . S
C1403 C1405 1.415 . S
C1404 C1403 1.355 . S
C1404 C1406 1.419 . S
C1405 C1400 1.425 . S
C1405 C1402 1.409 . S
C1405 C1403 1.415 . S
C1406 H1396 0.930 . S
C1406 C1404 1.419 . S
C1406 C1407 1.362 . S
C1407 H1397 0.930 . S
C1407 C1400 1.409 . S
C1407 C1406 1.362 . S
H1408 C1414 0.930 . S
H1409 C1417 0.930 . S
H1410 C1418 0.930 . S
H1411 C1419 0.930 . S
H1412 C1422 0.930 . S
H1413 C1423 0.930 . S
C1414 H1408 0.930 . S
C1414 C1415 1.355 . S
C1414 C1416 1.415 . S
C1415 C1414 1.355 . S
C1415 C1417 1.419 . S
C1416 C1414 1.415 . S
C1416 C1421 1.425 . S
C1416 C1423 1.409 . S
C1417 H1409 0.930 . S
C1417 C1415 1.419 . S
C1417 C1418 1.362 . S
C1418 H1410 0.930 . S
C1418 C1417 1.362 . S
C1418 C1421 1.409 . S
C1419 H1411 0.930 . S
C1419 C1420 1.355 . S
C1419 C1421 1.415 . S
C1420 C1419 1.355 . S
C1420 C1422 1.419 . S
C1421 C1416 1.425 . S
C1421 C1418 1.409 . S
C1421 C1419 1.415 . S
C1422 H1412 0.930 . S
C1422 C1420 1.419 . S
C1422 C1423 1.362 . S
C1423 H1413 0.930 . S
C1423 C1416 1.409 . S
C1423 C1422 1.362 . S
H1424 C1430 0.930 . S
H1425 C1433 0.930 . S
H1426 C1434 0.930 . S
H1427 C1435 0.930 . S
H1428 C1438 0.930 . S
H1429 C1439 0.930 . S
C1430 H1424 0.930 . S
C1430 C1431 1.355 . S
C1430 C1432 1.415 . S
C1431 C1430 1.355 . S
C1431 C1433 1.419 . S
C1432 C1430 1.415 . S
C1432 C1437 1.425 . S
C1432 C1439 1.409 . S
C1433 H1425 0.930 . S
C1433 C1431 1.419 . S
C1433 C1434 1.362 . S
C1434 H1426 0.930 . S
C1434 C1433 1.362 . S
C1434 C1437 1.409 . S
C1435 H1427 0.930 . S
C1435 C1436 1.355 . S
C1435 C1437 1.415 . S
C1436 C1435 1.355 . S
C1436 C1438 1.419 . S
C1437 C1432 1.425 . S
C1437 C1434 1.409 . S
C1437 C1435 1.415 . S
C1438 H1428 0.930 . S
C1438 C1436 1.419 . S
C1438 C1439 1.362 . S
C1439 H1429 0.930 . S
C1439 C1432 1.409 . S
C1439 C1438 1.362 . S
H1440 C1446 0.930 1_655 S
H1441 C1449 0.930 . S
H1442 C1450 0.930 . S
H1443 C1451 0.930 . S
H1444 C1454 0.930 . S
H1445 C1455 0.930 . S
C1446 H1440 0.930 1_455 S
C1446 C1447 1.355 . S
C1446 C1448 1.415 . S
C1447 C1446 1.355 . S
C1447 C1449 1.419 . S
C1448 C1446 1.415 . S
C1448 C1453 1.425 . S
C1448 C1455 1.409 1_455 S
C1449 H1441 0.930 . S
C1449 C1447 1.419 . S
C1449 C1450 1.362 . S
C1450 H1442 0.930 . S
C1450 C1449 1.362 . S
C1450 C1453 1.409 . S
C1451 H1443 0.930 . S
C1451 C1452 1.355 . S
C1451 C1453 1.415 . S
C1452 C1451 1.355 . S
C1452 C1454 1.419 1_455 S
C1453 C1448 1.425 . S
C1453 C1450 1.409 . S
C1453 C1451 1.415 . S
C1454 H1444 0.930 . S
C1454 C1452 1.419 1_655 S
C1454 C1455 1.362 . S
C1455 H1445 0.930 . S
C1455 C1448 1.409 1_655 S
C1455 C1454 1.362 . S
H1456 C1462 0.930 . S
H1457 C1465 0.930 . S
H1458 C1466 0.930 . S
H1459 C1467 0.930 1_556 S
H1460 C1470 0.930 . S
H1461 C1471 0.930 . S
C1462 H1456 0.930 . S
C1462 C1463 1.355 . S
C1462 C1464 1.415 . S
C1463 C1462 1.355 . S
C1463 C1465 1.419 . S
C1464 C1462 1.415 . S
C1464 C1469 1.425 . S
C1464 C1471 1.409 . S
C1465 H1457 0.930 . S
C1465 C1463 1.419 . S
C1465 C1466 1.362 . S
C1466 H1458 0.930 . S
C1466 C1465 1.362 . S
C1466 C1469 1.409 . S
C1467 H1459 0.930 1_554 S
C1467 C1468 1.355 1_554 S
C1467 C1469 1.415 . S
C1468 C1467 1.355 1_556 S
C1468 C1470 1.419 . S
C1469 C1464 1.425 . S
C1469 C1466 1.409 . S
C1469 C1467 1.415 . S
C1470 H1460 0.930 . S
C1470 C1468 1.419 . S
C1470 C1471 1.362 1_556 S
C1471 H1461 0.930 . S
C1471 C1464 1.409 . S
C1471 C1470 1.362 1_554 S
H1472 C1478 0.930 . S
H1473 C1481 0.930 . S
H1474 C1482 0.930 . S
H1475 C1483 0.930 . S
H1476 C1486 0.930 . S
H1477 C1487 0.930 . S
C1478 H1472 0.930 . S
C1478 C1479 1.355 . S
C1478 C1480 1.415 . S
C1479 C1478 1.355 . S
C1479 C1481 1.419 . S
C1480 C1478 1.415 . S
C1480 C1485 1.425 . S
C1480 C1487 1.409 . S
C1481 H1473 0.930 . S
C1481 C1479 1.419 . S
C1481 C1482 1.362 . S
C1482 H1474 0.930 . S
C1482 C1481 1.362 . S
C1482 C1485 1.409 . S
C1483 H1475 0.930 . S
C1483 C1484 1.355 . S
C1483 C1485 1.415 . S
C1484 C1483 1.355 . S
C1484 C1486 1.419 . S
C1485 C1480 1.425 . S
C1485 C1482 1.409 . S
C1485 C1483 1.415 . S
C1486 H1476 0.930 . S
C1486 C1484 1.419 . S
C1486 C1487 1.362 . S
C1487 H1477 0.930 . S
C1487 C1480 1.409 . S
C1487 C1486 1.362 . S
H1488 C1494 0.930 . S
H1489 C1497 0.930 . S
H1490 C1498 0.930 . S
H1491 C1499 0.930 . S
H1492 C1502 0.930 . S
H1493 C1503 0.930 . S
C1494 H1488 0.930 . S
C1494 C1495 1.355 . S
C1494 C1496 1.415 . S
C1495 C1494 1.355 . S
C1495 C1497 1.419 . S
C1496 C1494 1.415 . S
C1496 C1501 1.425 . S
C1496 C1503 1.409 . S
C1497 H1489 0.930 . S
C1497 C1495 1.419 . S
C1497 C1498 1.362 . S
C1498 H1490 0.930 . S
C1498 C1497 1.362 . S
C1498 C1501 1.409 . S
C1499 H1491 0.930 . S
C1499 C1500 1.355 . S
C1499 C1501 1.415 . S
C1500 C1499 1.355 . S
C1500 C1502 1.419 . S
C1501 C1496 1.425 . S
C1501 C1498 1.409 . S
C1501 C1499 1.415 . S
C1502 H1492 0.930 . S
C1502 C1500 1.419 . S
C1502 C1503 1.362 . S
C1503 H1493 0.930 . S
C1503 C1496 1.409 . S
C1503 C1502 1.362 . S
H1504 C1510 0.930 . S
H1505 C1513 0.930 . S
H1506 C1514 0.930 . S
H1507 C1515 0.930 1_655 S
H1508 C1518 0.930 . S
H1509 C1519 0.930 . S
C1510 H1504 0.930 . S
C1510 C1511 1.355 . S
C1510 C1512 1.415 . S
C1511 C1510 1.355 . S
C1511 C1513 1.419 1_455 S
C1512 C1510 1.415 . S
C1512 C1517 1.425 . S
C1512 C1519 1.409 . S
C1513 H1505 0.930 . S
C1513 C1511 1.419 1_655 S
C1513 C1514 1.362 . S
C1514 H1506 0.930 . S
C1514 C1513 1.362 . S
C1514 C1517 1.409 1_655 S
C1515 H1507 0.930 1_455 S
C1515 C1516 1.355 . S
C1515 C1517 1.415 . S
C1516 C1515 1.355 . S
C1516 C1518 1.419 . S
C1517 C1512 1.425 . S
C1517 C1514 1.409 1_455 S
C1517 C1515 1.415 . S
C1518 H1508 0.930 . S
C1518 C1516 1.419 . S
C1518 C1519 1.362 . S
C1519 H1509 0.930 . S
C1519 C1512 1.409 . S
C1519 C1518 1.362 . S
H1520 C1526 0.930 1_554 S
H1521 C1529 0.930 . S
H1522 C1530 0.930 . S
H1523 C1531 0.930 . S
H1524 C1534 0.930 . S
H1525 C1535 0.930 . S
C1526 H1520 0.930 1_556 S
C1526 C1527 1.355 1_556 S
C1526 C1528 1.415 . S
C1527 C1526 1.355 1_554 S
C1527 C1529 1.419 . S
C1528 C1526 1.415 . S
C1528 C1533 1.425 . S
C1528 C1535 1.409 . S
C1529 H1521 0.930 . S
C1529 C1527 1.419 . S
C1529 C1530 1.362 1_554 S
C1530 H1522 0.930 . S
C1530 C1529 1.362 1_556 S
C1530 C1533 1.409 . S
C1531 H1523 0.930 . S
C1531 C1532 1.355 . S
C1531 C1533 1.415 . S
C1532 C1531 1.355 . S
C1532 C1534 1.419 . S
C1533 C1528 1.425 . S
C1533 C1530 1.409 . S
C1533 C1531 1.415 . S
C1534 H1524 0.930 . S
C1534 C1532 1.419 . S
C1534 C1535 1.362 . S
C1535 H1525 0.930 . S
C1535 C1528 1.409 . S
C1535 C1534 1.362 . S
H1536 C1542 0.930 . S
H1537 C1545 0.930 . S
H1538 C1546 0.930 . S
H1539 C1547 0.930 . S
H1540 C1550 0.930 . S
H1541 C1551 0.930 . S
C1542 H1536 0.930 . S
C1542 C1543 1.355 . S
C1542 C1544 1.415 . S
C1543 C1542 1.355 . S
C1543 C1545 1.419 . S
C1544 C1542 1.415 . S
C1544 C1549 1.425 . S
C1544 C1551 1.409 . S
C1545 H1537 0.930 . S
C1545 C1543 1.419 . S
C1545 C1546 1.362 . S
C1546 H1538 0.930 . S
C1546 C1545 1.362 . S
C1546 C1549 1.409 . S
C1547 H1539 0.930 . S
C1547 C1548 1.355 . S
C1547 C1549 1.415 . S
C1548 C1547 1.355 . S
C1548 C1550 1.419 . S
C1549 C1544 1.425 . S
C1549 C1546 1.409 . S
C1549 C1547 1.415 . S
C1550 H1540 0.930 . S
C1550 C1548 1.419 . S
C1550 C1551 1.362 . S
C1551 H1541 0.930 . S
C1551 C1544 1.409 . S
C1551 C1550 1.362 . S
H1552 C1558 0.930 . S
H1553 C1561 0.930 . S
H1554 C1562 0.930 . S
H1555 C1563 0.930 . S
H1556 C1566 0.930 . S
H1557 C1567 0.930 . S
C1558 H1552 0.930 . S
C1558 C1559 1.355 . S
C1558 C1560 1.415 . S
C1559 C1558 1.355 . S
C1559 C1561 1.419 . S
C1560 C1558 1.415 . S
C1560 C1565 1.425 . S
C1560 C1567 1.409 . S
C1561 H1553 0.930 . S
C1561 C1559 1.419 . S
C1561 C1562 1.362 . S
C1562 H1554 0.930 . S
C1562 C1561 1.362 . S
C1562 C1565 1.409 . S
C1563 H1555 0.930 . S
C1563 C1564 1.355 . S
C1563 C1565 1.415 . S
C1564 C1563 1.355 . S
C1564 C1566 1.419 . S
C1565 C1560 1.425 . S
C1565 C1562 1.409 . S
C1565 C1563 1.415 . S
C1566 H1556 0.930 . S
C1566 C1564 1.419 . S
C1566 C1567 1.362 . S
C1567 H1557 0.930 . S
C1567 C1560 1.409 . S
C1567 C1566 1.362 . S
H1568 C1574 0.930 . S
H1569 C1577 0.930 . S
H1570 C1578 0.930 . S
H1571 C1579 0.930 . S
H1572 C1582 0.930 . S
H1573 C1583 0.930 . S
C1574 H1568 0.930 . S
C1574 C1575 1.355 . S
C1574 C1576 1.415 . S
C1575 C1574 1.355 . S
C1575 C1577 1.419 . S
C1576 C1574 1.415 . S
C1576 C1581 1.425 . S
C1576 C1583 1.409 . S
C1577 H1569 0.930 . S
C1577 C1575 1.419 . S
C1577 C1578 1.362 . S
C1578 H1570 0.930 . S
C1578 C1577 1.362 . S
C1578 C1581 1.409 . S
C1579 H1571 0.930 . S
C1579 C1580 1.355 . S
C1579 C1581 1.415 . S
C1580 C1579 1.355 . S
C1580 C1582 1.419 . S
C1581 C1576 1.425 . S
C1581 C1578 1.409 . S
C1581 C1579 1.415 . S
C1582 H1572 0.930 . S
C1582 C1580 1.419 . S
C1582 C1583 1.362 . S
C1583 H1573 0.930 . S
C1583 C1576 1.409 . S
C1583 C1582 1.362 . S
H1584 C1590 0.930 . S
H1585 C1593 0.930 . S
H1586 C1594 0.930 . S
H1587 C1595 0.930 . S
H1588 C1598 0.930 . S
H1589 C1599 0.930 . S
C1590 H1584 0.930 . S
C1590 C1591 1.355 . S
C1590 C1592 1.415 . S
C1591 C1590 1.355 . S
C1591 C1593 1.419 . S
C1592 C1590 1.415 . S
C1592 C1597 1.425 . S
C1592 C1599 1.409 . S
C1593 H1585 0.930 . S
C1593 C1591 1.419 . S
C1593 C1594 1.362 . S
C1594 H1586 0.930 . S
C1594 C1593 1.362 . S
C1594 C1597 1.409 . S
C1595 H1587 0.930 . S
C1595 C1596 1.355 . S
C1595 C1597 1.415 1_554 S
C1596 C1595 1.355 . S
C1596 C1598 1.419 . S
C1597 C1592 1.425 . S
C1597 C1594 1.409 . S
C1597 C1595 1.415 1_556 S
C1598 H1588 0.930 . S
C1598 C1596 1.419 . S
C1598 C1599 1.362 1_554 S
C1599 H1589 0.930 . S
C1599 C1592 1.409 . S
C1599 C1598 1.362 1_556 S
H1600 C1606 0.930 . S
H1601 C1609 0.930 . S
H1602 C1610 0.930 . S
H1603 C1611 0.930 . S
H1604 C1614 0.930 . S
H1605 C1615 0.930 . S
C1606 H1600 0.930 . S
C1606 C1607 1.355 . S
C1606 C1608 1.415 . S
C1607 C1606 1.355 . S
C1607 C1609 1.419 . S
C1608 C1606 1.415 . S
C1608 C1613 1.425 . S
C1608 C1615 1.409 . S
C1609 H1601 0.930 . S
C1609 C1607 1.419 . S
C1609 C1610 1.362 . S
C1610 H1602 0.930 . S
C1610 C1609 1.362 . S
C1610 C1613 1.409 . S
C1611 H1603 0.930 . S
C1611 C1612 1.355 . S
C1611 C1613 1.415 . S
C1612 C1611 1.355 . S
C1612 C1614 1.419 . S
C1613 C1608 1.425 . S
C1613 C1610 1.409 . S
C1613 C1611 1.415 . S
C1614 H1604 0.930 . S
C1614 C1612 1.419 . S
C1614 C1615 1.362 . S
C1615 H1605 0.930 . S
C1615 C1608 1.409 . S
C1615 C1614 1.362 . S
H1616 C1622 0.930 . S
H1617 C1625 0.930 . S
H1618 C1626 0.930 . S
H1619 C1627 0.930 . S
H1620 C1630 0.930 . S
H1621 C1631 0.930 . S
C1622 H1616 0.930 . S
C1622 C1623 1.355 . S
C1622 C1624 1.415 . S
C1623 C1622 1.355 . S
C1623 C1625 1.419 . S
C1624 C1622 1.415 . S
C1624 C1629 1.425 . S
C1624 C1631 1.409 . S
C1625 H1617 0.930 . S
C1625 C1623 1.419 . S
C1625 C1626 1.362 . S
C1626 H1618 0.930 . S
C1626 C1625 1.362 . S
C1626 C1629 1.409 . S
C1627 H1619 0.930 . S
C1627 C1628 1.355 . S
C1627 C1629 1.415 . S
C1628 C1627 1.355 . S
C1628 C1630 1.419 . S
C1629 C1624 1.425 . S
C1629 C1626 1.409 . S
C1629 C1627 1.415 . S
C1630 H1620 0.930 . S
C1630 C1628 1.419 . S
C1630 C1631 1.362 . S
C1631 H1621 0.930 . S
C1631 C1624 1.409 . S
C1631 C1630 1.362 . S
H1632 C1638 0.930 . S
H1633 C1641 0.930 . S
H1634 C1642 0.930 . S
H1635 C1643 0.930 . S
H1636 C1646 0.930 . S
H1637 C1647 0.930 . S
C1638 H1632 0.930 . S
C1638 C1639 1.355 . S
C1638 C1640 1.415 . S
C1639 C1638 1.355 . S
C1639 C1641 1.419 . S
C1640 C1638 1.415 . S
C1640 C1645 1.425 . S
C1640 C1647 1.409 . S
C1641 H1633 0.930 . S
C1641 C1639 1.419 . S
C1641 C1642 1.362 . S
C1642 H1634 0.930 . S
C1642 C1641 1.362 . S
C1642 C1645 1.409 . S
C1643 H1635 0.930 . S
C1643 C1644 1.355 . S
C1643 C1645 1.415 . S
C1644 C1643 1.355 . S
C1644 C1646 1.419 . S
C1645 C1640 1.425 . S
C1645 C1642 1.409 . S
C1645 C1643 1.415 . S
C1646 H1636 0.930 . S
C1646 C1644 1.419 . S
C1646 C1647 1.362 . S
C1647 H1637 0.930 . S
C1647 C1640 1.409 . S
C1647 C1646 1.362 . S
H1648 C1654 0.930 . S
H1649 C1657 0.930 . S
H1650 C1658 0.930 . S
H1651 C1659 0.930 . S
H1652 C1662 0.930 . S
H1653 C1663 0.930 . S
C1654 H1648 0.930 . S
C1654 C1655 1.355 . S
C1654 C1656 1.415 . S
C1655 C1654 1.355 . S
C1655 C1657 1.419 . S
C1656 C1654 1.415 . S
C1656 C1661 1.425 . S
C1656 C1663 1.409 . S
C1657 H1649 0.930 . S
C1657 C1655 1.419 . S
C1657 C1658 1.362 . S
C1658 H1650 0.930 . S
C1658 C1657 1.362 . S
C1658 C1661 1.409 . S
C1659 H1651 0.930 . S
C1659 C1660 1.355 . S
C1659 C1661 1.415 1_556 S
C1660 C1659 1.355 . S
C1660 C1662 1.419 . S
C1661 C1656 1.425 . S
C1661 C1658 1.409 . S
C1661 C1659 1.415 1_554 S
C1662 H1652 0.930 . S
C1662 C1660 1.419 . S
C1662 C1663 1.362 1_556 S
C1663 H1653 0.930 . S
C1663 C1656 1.409 . S
C1663 C1662 1.362 1_554 S
H1664 C1670 0.930 . S
H1665 C1673 0.930 . S
H1666 C1674 0.930 . S
H1667 C1675 0.930 . S
H1668 C1678 0.930 . S
H1669 C1679 0.930 . S
C1670 H1664 0.930 . S
C1670 C1671 1.355 . S
C1670 C1672 1.415 1_554 S
C1671 C1670 1.355 . S
C1671 C1673 1.419 1_655 S
C1672 C1670 1.415 1_556 S
C1672 C1677 1.425 1_546 S
C1672 C1679 1.409 . S
C1673 H1665 0.930 . S
C1673 C1671 1.419 1_455 S
C1673 C1674 1.362 1_545 S
C1674 H1666 0.930 . S
C1674 C1673 1.362 1_565 S
C1674 C1677 1.409 1_455 S
C1675 H1667 0.930 . S
C1675 C1676 1.355 . S
C1675 C1677 1.415 1_556 S
C1676 C1675 1.355 . S
C1676 C1678 1.419 . S
C1677 C1672 1.425 1_564 S
C1677 C1674 1.409 1_655 S
C1677 C1675 1.415 1_554 S
C1678 H1668 0.930 . S
C1678 C1676 1.419 . S
C1678 C1679 1.362 1_565 S
C1679 H1669 0.930 . S
C1679 C1672 1.409 . S
C1679 C1678 1.362 1_545 S
H1680 C1686 0.930 . S
H1681 C1689 0.930 . S
H1682 C1690 0.930 . S
H1683 C1691 0.930 . S
H1684 C1694 0.930 . S
H1685 C1695 0.930 . S
C1686 H1680 0.930 . S
C1686 C1687 1.355 . S
C1686 C1688 1.415 . S
C1687 C1686 1.355 . S
C1687 C1689 1.419 . S
C1688 C1686 1.415 . S
C1688 C1693 1.425 . S
C1688 C1695 1.409 . S
C1689 H1681 0.930 . S
C1689 C1687 1.419 . S
C1689 C1690 1.362 . S
C1690 H1682 0.930 . S
C1690 C1689 1.362 . S
C1690 C1693 1.409 . S
C1691 H1683 0.930 . S
C1691 C1692 1.355 . S
C1691 C1693 1.415 . S
C1692 C1691 1.355 . S
C1692 C1694 1.419 . S
C1693 C1688 1.425 . S
C1693 C1690 1.409 . S
C1693 C1691 1.415 . S
C1694 H1684 0.930 . S
C1694 C1692 1.419 . S
C1694 C1695 1.362 . S
C1695 H1685 0.930 . S
C1695 C1688 1.409 . S
C1695 C1694 1.362 . S
H1696 C1702 0.930 . S
H1697 C1705 0.930 . S
H1698 C1706 0.930 . S
H1699 C1707 0.930 . S
H1700 C1710 0.930 . S
H1701 C1711 0.930 . S
C1702 H1696 0.930 . S
C1702 C1703 1.355 . S
C1702 C1704 1.390 1_545 S
C1703 C1702 1.355 . S
C1703 C1705 1.419 . S
C1704 C1702 1.390 1_565 S
C1704 C1709 1.418 1_565 S
C1704 C1711 1.442 . S
C1705 H1697 0.930 . S
C1705 C1703 1.419 . S
C1705 C1706 1.362 . S
C1706 H1698 0.930 . S
C1706 C1705 1.362 . S
C1706 C1709 1.409 . S
C1707 H1699 0.930 . S
C1707 C1708 1.355 . S
C1707 C1709 1.415 1_565 S
C1708 C1707 1.355 . S
C1708 C1710 1.419 . S
C1709 C1704 1.418 1_545 S
C1709 C1706 1.409 . S
C1709 C1707 1.415 1_545 S
C1710 H1700 0.930 . S
C1710 C1708 1.419 . S
C1710 C1711 1.362 . S
C1711 H1701 0.930 . S
C1711 C1704 1.442 . S
C1711 C1710 1.362 . S
H1712 C1718 0.930 . S
H1713 C1721 0.930 . S
H1714 C1722 0.930 . S
H1715 C1723 0.930 . S
H1716 C1726 0.930 . S
H1717 C1727 0.930 . S
C1718 H1712 0.930 . S
C1718 C1719 1.355 . S
C1718 C1720 1.415 . S
C1719 C1718 1.355 . S
C1719 C1721 1.419 . S
C1720 C1718 1.415 . S
C1720 C1725 1.425 . S
C1720 C1727 1.409 . S
C1721 H1713 0.930 . S
C1721 C1719 1.419 . S
C1721 C1722 1.362 . S
C1722 H1714 0.930 . S
C1722 C1721 1.362 . S
C1722 C1725 1.409 . S
C1723 H1715 0.930 . S
C1723 C1724 1.355 . S
C1723 C1725 1.415 . S
C1724 C1723 1.355 . S
C1724 C1726 1.419 . S
C1725 C1720 1.425 . S
C1725 C1722 1.409 . S
C1725 C1723 1.415 . S
C1726 H1716 0.930 . S
C1726 C1724 1.419 . S
C1726 C1727 1.362 . S
C1727 H1717 0.930 . S
C1727 C1720 1.409 . S
C1727 C1726 1.362 . S
H1728 C1734 0.930 . S
H1729 C1737 0.930 . S
H1730 C1738 0.930 . S
H1731 C1739 0.930 . S
H1732 C1742 0.930 . S
H1733 C1743 0.930 1_455 S
C1734 H1728 0.930 . S
C1734 C1735 1.355 1_455 S
C1734 C1736 1.415 1_465 S
C1735 C1734 1.355 1_655 S
C1735 C1737 1.419 . S
C1736 C1734 1.415 1_645 S
C1736 C1741 1.431 . S
C1736 C1743 1.409 . S
C1737 H1729 0.930 . S
C1737 C1735 1.419 . S
C1737 C1738 1.362 . S
C1738 H1730 0.930 . S
C1738 C1737 1.362 . S
C1738 C1741 1.369 1_565 S
C1739 H1731 0.930 . S
C1739 C1740 1.355 . S
C1739 C1741 1.451 . S
C1740 C1739 1.355 . S
C1740 C1742 1.419 . S
C1741 C1736 1.431 . S
C1741 C1738 1.369 1_545 S
C1741 C1739 1.451 . S
C1742 H1732 0.930 . S
C1742 C1740 1.419 . S
C1742 C1743 1.362 . S
C1743 H1733 0.930 1_655 S
C1743 C1736 1.409 . S
C1743 C1742 1.362 . S
H1744 C1750 0.930 . S
H1745 C1753 0.930 . S
H1746 C1754 0.930 . S
H1747 C1755 0.930 . S
H1748 C1758 0.930 . S
H1749 C1759 0.930 . S
C1750 H1744 0.930 . S
C1750 C1751 1.355 . S
C1750 C1752 1.415 . S
C1751 C1750 1.355 . S
C1751 C1753 1.419 . S
C1752 C1750 1.415 . S
C1752 C1757 1.425 . S
C1752 C1759 1.409 . S
C1753 H1745 0.930 . S
C1753 C1751 1.419 . S
C1753 C1754 1.362 . S
C1754 H1746 0.930 . S
C1754 C1753 1.362 . S
C1754 C1757 1.409 . S
C1755 H1747 0.930 . S
C1755 C1756 1.355 . S
C1755 C1757 1.415 . S
C1756 C1755 1.355 . S
C1756 C1758 1.419 . S
C1757 C1752 1.425 . S
C1757 C1754 1.409 . S
C1757 C1755 1.415 . S
C1758 H1748 0.930 . S
C1758 C1756 1.419 . S
C1758 C1759 1.362 . S
C1759 H1749 0.930 . S
C1759 C1752 1.409 . S
C1759 C1758 1.362 . S
H1760 C1766 0.930 . S
H1761 C1769 0.930 . S
H1762 C1770 0.930 . S
H1763 C1771 0.930 . S
H1764 C1774 0.930 . S
H1765 C1775 0.930 . S
C1766 H1760 0.930 . S
C1766 C1767 1.355 . S
C1766 C1768 1.384 1_565 S
C1767 C1766 1.355 . S
C1767 C1769 1.419 . S
C1768 C1766 1.384 1_545 S
C1768 C1773 1.415 1_544 S
C1768 C1775 1.450 . S
C1769 H1761 0.930 . S
C1769 C1767 1.419 . S
C1769 C1770 1.362 1_554 S
C1770 H1762 0.930 . S
C1770 C1769 1.362 1_556 S
C1770 C1773 1.409 . S
C1771 H1763 0.930 . S
C1771 C1772 1.355 . S
C1771 C1773 1.415 1_545 S
C1772 C1771 1.355 . S
C1772 C1774 1.419 . S
C1773 C1768 1.415 1_566 S
C1773 C1770 1.409 . S
C1773 C1771 1.415 1_565 S
C1774 H1764 0.930 . S
C1774 C1772 1.419 . S
C1774 C1775 1.362 1_556 S
C1775 H1765 0.930 . S
C1775 C1768 1.450 . S
C1775 C1774 1.362 1_554 S
H1776 C1782 0.930 . S
H1777 C1785 0.930 . S
H1778 C1786 0.930 . S
H1779 C1787 0.930 . S
H1780 C1790 0.930 . S
H1781 C1791 0.930 . S
C1782 H1776 0.930 . S
C1782 C1783 1.355 . S
C1782 C1784 1.415 . S
C1783 C1782 1.355 . S
C1783 C1785 1.419 . S
C1784 C1782 1.415 . S
C1784 C1789 1.425 . S
C1784 C1791 1.409 . S
C1785 H1777 0.930 . S
C1785 C1783 1.419 . S
C1785 C1786 1.362 . S
C1786 H1778 0.930 . S
C1786 C1785 1.362 . S
C1786 C1789 1.409 . S
C1787 H1779 0.930 . S
C1787 C1788 1.355 . S
C1787 C1789 1.415 . S
C1788 C1787 1.355 . S
C1788 C1790 1.419 . S
C1789 C1784 1.425 . S
C1789 C1786 1.409 . S
C1789 C1787 1.415 . S
C1790 H1780 0.930 . S
C1790 C1788 1.419 . S
C1790 C1791 1.362 . S
C1791 H1781 0.930 . S
C1791 C1784 1.409 . S
C1791 C1790 1.362 . S
H1792 C1798 0.930 . S
H1793 C1801 0.930 . S
H1794 C1802 0.930 . S
H1795 C1803 0.930 . S
H1796 C1806 0.930 . S
H1797 C1807 0.930 . S
C1798 H1792 0.930 . S
C1798 C1799 1.355 . S
C1798 C1800 1.415 . S
C1799 C1798 1.355 . S
C1799 C1801 1.419 . S
C1800 C1798 1.415 . S
C1800 C1805 1.425 . S
C1800 C1807 1.409 . S
C1801 H1793 0.930 . S
C1801 C1799 1.419 . S
C1801 C1802 1.362 . S
C1802 H1794 0.930 . S
C1802 C1801 1.362 . S
C1802 C1805 1.409 . S
C1803 H1795 0.930 . S
C1803 C1804 1.355 . S
C1803 C1805 1.415 . S
C1804 C1803 1.355 . S
C1804 C1806 1.419 . S
C1805 C1800 1.425 . S
C1805 C1802 1.409 . S
C1805 C1803 1.415 . S
C1806 H1796 0.930 . S
C1806 C1804 1.419 . S
C1806 C1807 1.362 . S
C1807 H1797 0.930 . S
C1807 C1800 1.409 . S
C1807 C1806 1.362 . S
H1808 C1814 0.930 . S
H1809 C1817 0.930 . S
H1810 C1818 0.930 . S
H1811 C1819 0.930 . S
H1812 C1822 0.930 . S
H1813 C1823 0.930 . S
C1814 H1808 0.930 . S
C1814 C1815 1.355 . S
C1814 C1816 1.415 . S
C1815 C1814 1.355 . S
C1815 C1817 1.419 . S
C1816 C1814 1.415 . S
C1816 C1821 1.425 . S
C1816 C1823 1.409 . S
C1817 H1809 0.930 . S
C1817 C1815 1.419 . S
C1817 C1818 1.362 . S
C1818 H1810 0.930 . S
C1818 C1817 1.362 . S
C1818 C1821 1.409 . S
C1819 H1811 0.930 . S
C1819 C1820 1.355 . S
C1819 C1821 1.415 . S
C1820 C1819 1.355 . S
C1820 C1822 1.419 . S
C1821 C1816 1.425 . S
C1821 C1818 1.409 . S
C1821 C1819 1.415 . S
C1822 H1812 0.930 . S
C1822 C1820 1.419 . S
C1822 C1823 1.362 . S
C1823 H1813 0.930 . S
C1823 C1816 1.409 . S
C1823 C1822 1.362 . S
H1824 C1830 0.930 . S
H1825 C1833 0.930 . S
H1826 C1834 0.930 . S
H1827 C1835 0.930 . S
H1828 C1838 0.930 . S
H1829 C1839 0.930 . S
C1830 H1824 0.930 . S
C1830 C1831 1.355 . S
C1830 C1832 1.415 . S
C1831 C1830 1.355 . S
C1831 C1833 1.419 . S
C1832 C1830 1.415 . S
C1832 C1837 1.425 . S
C1832 C1839 1.409 . S
C1833 H1825 0.930 . S
C1833 C1831 1.419 . S
C1833 C1834 1.362 . S
C1834 H1826 0.930 . S
C1834 C1833 1.362 . S
C1834 C1837 1.409 . S
C1835 H1827 0.930 . S
C1835 C1836 1.355 . S
C1835 C1837 1.415 . S
C1836 C1835 1.355 . S
C1836 C1838 1.419 . S
C1837 C1832 1.425 . S
C1837 C1834 1.409 . S
C1837 C1835 1.415 . S
C1838 H1828 0.930 . S
C1838 C1836 1.419 . S
C1838 C1839 1.362 . S
C1839 H1829 0.930 . S
C1839 C1832 1.409 . S
C1839 C1838 1.362 . S
H1840 C1846 0.930 . S
H1841 C1849 0.930 . S
H1842 C1850 0.930 . S
H1843 C1851 0.930 . S
H1844 C1854 0.930 . S
H1845 C1855 0.930 . S
C1846 H1840 0.930 . S
C1846 C1847 1.355 . S
C1846 C1848 1.415 . S
C1847 C1846 1.355 . S
C1847 C1849 1.419 . S
C1848 C1846 1.415 . S
C1848 C1853 1.425 . S
C1848 C1855 1.409 . S
C1849 H1841 0.930 . S
C1849 C1847 1.419 . S
C1849 C1850 1.362 . S
C1850 H1842 0.930 . S
C1850 C1849 1.362 . S
C1850 C1853 1.409 . S
C1851 H1843 0.930 . S
C1851 C1852 1.355 . S
C1851 C1853 1.415 . S
C1852 C1851 1.355 . S
C1852 C1854 1.419 . S
C1853 C1848 1.425 . S
C1853 C1850 1.409 . S
C1853 C1851 1.415 . S
C1854 H1844 0.930 . S
C1854 C1852 1.419 . S
C1854 C1855 1.362 . S
C1855 H1845 0.930 . S
C1855 C1848 1.409 . S
C1855 C1854 1.362 . S
H1856 C1862 0.930 . S
H1857 C1865 0.930 . S
H1858 C1866 0.930 . S
H1859 C1867 0.930 . S
H1860 C1870 0.930 . S
H1861 C1871 0.930 . S
C1862 H1856 0.930 . S
C1862 C1863 1.355 . S
C1862 C1864 1.415 . S
C1863 C1862 1.355 . S
C1863 C1865 1.419 . S
C1864 C1862 1.415 . S
C1864 C1869 1.425 . S
C1864 C1871 1.409 . S
C1865 H1857 0.930 . S
C1865 C1863 1.419 . S
C1865 C1866 1.362 . S
C1866 H1858 0.930 . S
C1866 C1865 1.362 . S
C1866 C1869 1.409 . S
C1867 H1859 0.930 . S
C1867 C1868 1.355 . S
C1867 C1869 1.415 . S
C1868 C1867 1.355 . S
C1868 C1870 1.419 . S
C1869 C1864 1.425 . S
C1869 C1866 1.409 . S
C1869 C1867 1.415 . S
C1870 H1860 0.930 . S
C1870 C1868 1.419 . S
C1870 C1871 1.362 . S
C1871 H1861 0.930 . S
C1871 C1864 1.409 . S
C1871 C1870 1.362 . S
H1872 C1878 0.930 . S
H1873 C1881 0.930 . S
H1874 C1882 0.930 . S
H1875 C1883 0.930 . S
H1876 C1886 0.930 . S
H1877 C1887 0.930 1_655 S
C1878 H1872 0.930 . S
C1878 C1879 1.355 1_655 S
C1878 C1880 1.411 1_654 S
C1879 C1878 1.355 1_455 S
C1879 C1881 1.419 . S
C1880 C1878 1.411 1_456 S
C1880 C1885 1.425 1_556 S
C1880 C1887 1.413 . S
C1881 H1873 0.930 . S
C1881 C1879 1.419 . S
C1881 C1882 1.362 . S
C1882 H1874 0.930 . S
C1882 C1881 1.362 . S
C1882 C1885 1.409 . S
C1883 H1875 0.930 . S
C1883 C1884 1.355 . S
C1883 C1885 1.415 1_556 S
C1884 C1883 1.355 . S
C1884 C1886 1.419 . S
C1885 C1880 1.425 1_554 S
C1885 C1882 1.409 . S
C1885 C1883 1.415 1_554 S
C1886 H1876 0.930 . S
C1886 C1884 1.419 . S
C1886 C1887 1.362 . S
C1887 H1877 0.930 1_455 S
C1887 C1880 1.413 . S
C1887 C1886 1.362 . S
H1888 C1894 0.930 . S
H1889 C1897 0.930 . S
H1890 C1898 0.930 . S
H1891 C1899 0.930 . S
H1892 C1902 0.930 . S
H1893 C1903 0.930 . S
C1894 H1888 0.930 . S
C1894 C1895 1.355 . S
C1894 C1896 1.415 . S
C1895 C1894 1.355 . S
C1895 C1897 1.419 1_556 S
C1896 C1894 1.415 . S
C1896 C1901 1.425 1_556 S
C1896 C1903 1.409 . S
C1897 H1889 0.930 . S
C1897 C1895 1.419 1_554 S
C1897 C1898 1.362 . S
C1898 H1890 0.930 . S
C1898 C1897 1.362 . S
C1898 C1901 1.409 . S
C1899 H1891 0.930 . S
C1899 C1900 1.355 . S
C1899 C1901 1.415 . S
C1900 C1899 1.355 . S
C1900 C1902 1.419 1_554 S
C1901 C1896 1.425 1_554 S
C1901 C1898 1.409 . S
C1901 C1899 1.415 . S
C1902 H1892 0.930 . S
C1902 C1900 1.419 1_556 S
C1902 C1903 1.362 . S
C1903 H1893 0.930 . S
C1903 C1896 1.409 . S
C1903 C1902 1.362 . S
H1904 C1910 0.930 . S
H1905 C1913 0.930 . S
H1906 C1914 0.930 . S
H1907 C1915 0.930 . S
H1908 C1918 0.930 . S
H1909 C1919 0.930 . S
C1910 H1904 0.930 . S
C1910 C1911 1.355 . S
C1910 C1912 1.415 . S
C1911 C1910 1.355 . S
C1911 C1913 1.419 . S
C1912 C1910 1.415 . S
C1912 C1917 1.425 . S
C1912 C1919 1.409 1_455 S
C1913 H1905 0.930 . S
C1913 C1911 1.419 . S
C1913 C1914 1.362 . S
C1914 H1906 0.930 . S
C1914 C1913 1.362 . S
C1914 C1917 1.409 . S
C1915 H1907 0.930 . S
C1915 C1916 1.355 . S
C1915 C1917 1.415 . S
C1916 C1915 1.355 . S
C1916 C1918 1.419 1_455 S
C1917 C1912 1.425 . S
C1917 C1914 1.409 . S
C1917 C1915 1.415 . S
C1918 H1908 0.930 . S
C1918 C1916 1.419 1_655 S
C1918 C1919 1.362 . S
C1919 H1909 0.930 . S
C1919 C1912 1.409 1_655 S
C1919 C1918 1.362 . S
H1920 C1926 0.930 . S
H1921 C1929 0.930 . S
H1922 C1930 0.930 . S
H1923 C1931 0.930 . S
H1924 C1934 0.930 . S
H1925 C1935 0.930 . S
C1926 H1920 0.930 . S
C1926 C1927 1.355 . S
C1926 C1928 1.415 . S
C1927 C1926 1.355 . S
C1927 C1929 1.419 . S
C1928 C1926 1.415 . S
C1928 C1933 1.425 . S
C1928 C1935 1.409 . S
C1929 H1921 0.930 . S
C1929 C1927 1.419 . S
C1929 C1930 1.362 . S
C1930 H1922 0.930 . S
C1930 C1929 1.362 . S
C1930 C1933 1.409 . S
C1931 H1923 0.930 . S
C1931 C1932 1.355 . S
C1931 C1933 1.415 . S
C1932 C1931 1.355 . S
C1932 C1934 1.419 . S
C1933 C1928 1.425 . S
C1933 C1930 1.409 . S
C1933 C1931 1.415 . S
C1934 H1924 0.930 . S
C1934 C1932 1.419 . S
C1934 C1935 1.362 . S
C1935 H1925 0.930 . S
C1935 C1928 1.409 . S
C1935 C1934 1.362 . S
H1936 C1942 0.930 . S
H1937 C1945 0.930 . S
H1938 C1946 0.930 . S
H1939 C1947 0.930 . S
H1940 C1950 0.930 . S
H1941 C1951 0.930 . S
C1942 H1936 0.930 . S
C1942 C1943 1.355 . S
C1942 C1944 1.415 . S
C1943 C1942 1.355 . S
C1943 C1945 1.419 . S
C1944 C1942 1.415 . S
C1944 C1949 1.425 . S
C1944 C1951 1.409 . S
C1945 H1937 0.930 . S
C1945 C1943 1.419 . S
C1945 C1946 1.362 . S
C1946 H1938 0.930 . S
C1946 C1945 1.362 . S
C1946 C1949 1.409 . S
C1947 H1939 0.930 . S
C1947 C1948 1.355 . S
C1947 C1949 1.415 . S
C1948 C1947 1.355 . S
C1948 C1950 1.419 . S
C1949 C1944 1.425 . S
C1949 C1946 1.409 . S
C1949 C1947 1.415 . S
C1950 H1940 0.930 . S
C1950 C1948 1.419 . S
C1950 C1951 1.362 . S
C1951 H1941 0.930 . S
C1951 C1944 1.409 . S
C1951 C1950 1.362 . S
H1952 C1958 0.930 . S
H1953 C1961 0.930 . S
H1954 C1962 0.930 . S
H1955 C1963 0.930 . S
H1956 C1966 0.930 . S
H1957 C1967 0.930 . S
C1958 H1952 0.930 . S
C1958 C1959 1.355 . S
C1958 C1960 1.415 . S
C1959 C1958 1.355 . S
C1959 C1961 1.419 . S
C1960 C1958 1.415 . S
C1960 C1965 1.425 . S
C1960 C1967 1.409 . S
C1961 H1953 0.930 . S
C1961 C1959 1.419 . S
C1961 C1962 1.362 . S
C1962 H1954 0.930 . S
C1962 C1961 1.362 . S
C1962 C1965 1.409 . S
C1963 H1955 0.930 . S
C1963 C1964 1.355 . S
C1963 C1965 1.415 . S
C1964 C1963 1.355 . S
C1964 C1966 1.419 . S
C1965 C1960 1.425 . S
C1965 C1962 1.409 . S
C1965 C1963 1.415 . S
C1966 H1956 0.930 . S
C1966 C1964 1.419 . S
C1966 C1967 1.362 . S
C1967 H1957 0.930 . S
C1967 C1960 1.409 . S
C1967 C1966 1.362 . S
H1968 C1974 0.930 . S
H1969 C1977 0.930 . S
H1970 C1978 0.930 . S
H1971 C1979 0.930 . S
H1972 C1982 0.930 . S
H1973 C1983 0.930 . S
C1974 H1968 0.930 . S
C1974 C1975 1.355 . S
C1974 C1976 1.415 . S
C1975 C1974 1.355 . S
C1975 C1977 1.419 . S
C1976 C1974 1.415 . S
C1976 C1981 1.425 . S
C1976 C1983 1.409 . S
C1977 H1969 0.930 . S
C1977 C1975 1.419 . S
C1977 C1978 1.362 . S
C1978 H1970 0.930 . S
C1978 C1977 1.362 . S
C1978 C1981 1.409 . S
C1979 H1971 0.930 . S
C1979 C1980 1.355 . S
C1979 C1981 1.415 . S
C1980 C1979 1.355 . S
C1980 C1982 1.419 . S
C1981 C1976 1.425 . S
C1981 C1978 1.409 . S
C1981 C1979 1.415 . S
C1982 H1972 0.930 . S
C1982 C1980 1.419 . S
C1982 C1983 1.362 . S
C1983 H1973 0.930 . S
C1983 C1976 1.409 . S
C1983 C1982 1.362 . S
H1984 C1990 0.930 . S
H1985 C1993 0.930 . S
H1986 C1994 0.930 . S
H1987 C1995 0.930 . S
H1988 C1998 0.930 . S
H1989 C1999 0.930 . S
C1990 H1984 0.930 . S
C1990 C1991 1.355 . S
C1990 C1992 1.415 . S
C1991 C1990 1.355 . S
C1991 C1993 1.419 . S
C1992 C1990 1.415 . S
C1992 C1997 1.425 . S
C1992 C1999 1.409 . S
C1993 H1985 0.930 . S
C1993 C1991 1.419 . S
C1993 C1994 1.362 . S
C1994 H1986 0.930 . S
C1994 C1993 1.362 . S
C1994 C1997 1.409 . S
C1995 H1987 0.930 . S
C1995 C1996 1.355 . S
C1995 C1997 1.415 . S
C1996 C1995 1.355 . S
C1996 C1998 1.419 . S
C1997 C1992 1.425 . S
C1997 C1994 1.409 . S
C1997 C1995 1.415 . S
C1998 H1988 0.930 . S
C1998 C1996 1.419 . S
C1998 C1999 1.362 . S
C1999 H1989 0.930 . S
C1999 C1992 1.409 . S
C1999 C1998 1.362 . S
H2000 C2006 0.930 . S
H2001 C2009 0.930 . S
H2002 C2010 0.930 . S
H2003 C2011 0.930 . S
H2004 C2014 0.930 . S
H2005 C2015 0.930 . S
C2006 H2000 0.930 . S
C2006 C2007 1.355 . S
C2006 C2008 1.415 . S
C2007 C2006 1.355 . S
C2007 C2009 1.419 . S
C2008 C2006 1.415 . S
C2008 C2013 1.425 . S
C2008 C2015 1.409 . S
C2009 H2001 0.930 . S
C2009 C2007 1.419 . S
C2009 C2010 1.362 . S
C2010 H2002 0.930 . S
C2010 C2009 1.362 . S
C2010 C2013 1.409 . S
C2011 H2003 0.930 . S
C2011 C2012 1.355 . S
C2011 C2013 1.415 . S
C2012 C2011 1.355 . S
C2012 C2014 1.419 . S
C2013 C2008 1.425 . S
C2013 C2010 1.409 . S
C2013 C2011 1.415 . S
C2014 H2004 0.930 . S
C2014 C2012 1.419 . S
C2014 C2015 1.362 . S
C2015 H2005 0.930 . S
C2015 C2008 1.409 . S
C2015 C2014 1.362 . S
H2016 C2022 0.930 . S
H2017 C2025 0.930 . S
H2018 C2026 0.930 . S
H2019 C2027 0.930 . S
H2020 C2030 0.930 . S
H2021 C2031 0.930 . S
C2022 H2016 0.930 . S
C2022 C2023 1.355 . S
C2022 C2024 1.415 . S
C2023 C2022 1.355 . S
C2023 C2025 1.419 . S
C2024 C2022 1.415 . S
C2024 C2029 1.425 . S
C2024 C2031 1.409 . S
C2025 H2017 0.930 . S
C2025 C2023 1.419 . S
C2025 C2026 1.362 . S
C2026 H2018 0.930 . S
C2026 C2025 1.362 . S
C2026 C2029 1.409 . S
C2027 H2019 0.930 . S
C2027 C2028 1.355 . S
C2027 C2029 1.415 . S
C2028 C2027 1.355 . S
C2028 C2030 1.419 . S
C2029 C2024 1.425 . S
C2029 C2026 1.409 . S
C2029 C2027 1.415 . S
C2030 H2020 0.930 . S
C2030 C2028 1.419 . S
C2030 C2031 1.362 . S
C2031 H2021 0.930 . S
C2031 C2024 1.409 . S
C2031 C2030 1.362 . S
H2032 C2038 0.930 . S
H2033 C2041 0.930 . S
H2034 C2042 0.930 . S
H2035 C2043 0.930 . S
H2036 C2046 0.930 . S
H2037 C2047 0.930 . S
C2038 H2032 0.930 . S
C2038 C2039 1.355 . S
C2038 C2040 1.415 . S
C2039 C2038 1.355 . S
C2039 C2041 1.419 . S
C2040 C2038 1.415 . S
C2040 C2045 1.425 . S
C2040 C2047 1.409 . S
C2041 H2033 0.930 . S
C2041 C2039 1.419 . S
C2041 C2042 1.362 . S
C2042 H2034 0.930 . S
C2042 C2041 1.362 . S
C2042 C2045 1.409 . S
C2043 H2035 0.930 . S
C2043 C2044 1.355 . S
C2043 C2045 1.415 . S
C2044 C2043 1.355 . S
C2044 C2046 1.419 . S
C2045 C2040 1.425 . S
C2045 C2042 1.409 . S
C2045 C2043 1.415 . S
C2046 H2036 0.930 . S
C2046 C2044 1.419 . S
C2046 C2047 1.362 . S
C2047 H2037 0.930 . S
C2047 C2040 1.409 . S
C2047 C2046 1.362 . S
H2048 C2054 0.930 . S
H2049 C2057 0.930 . S
H2050 C2058 0.930 . S
H2051 C2059 0.930 . S
H2052 C2062 0.930 . S
H2053 C2063 0.930 . S
C2054 H2048 0.930 . S
C2054 C2055 1.355 . S
C2054 C2056 1.415 . S
C2055 C2054 1.355 . S
C2055 C2057 1.419 . S
C2056 C2054 1.415 . S
C2056 C2061 1.425 . S
C2056 C2063 1.409 . S
C2057 H2049 0.930 . S
C2057 C2055 1.419 . S
C2057 C2058 1.362 . S
C2058 H2050 0.930 . S
C2058 C2057 1.362 . S
C2058 C2061 1.409 . S
C2059 H2051 0.930 . S
C2059 C2060 1.355 . S
C2059 C2061 1.415 . S
C2060 C2059 1.355 . S
C2060 C2062 1.419 . S
C2061 C2056 1.425 . S
C2061 C2058 1.409 . S
C2061 C2059 1.415 . S
C2062 H2052 0.930 . S
C2062 C2060 1.419 . S
C2062 C2063 1.362 . S
C2063 H2053 0.930 . S
C2063 C2056 1.409 . S
C2063 C2062 1.362 . S
H2064 C2070 0.930 . S
H2065 C2073 0.930 . S
H2066 C2074 0.930 . S
H2067 C2075 0.930 . S
H2068 C2078 0.930 . S
H2069 C2079 0.930 . S
C2070 H2064 0.930 . S
C2070 C2071 1.355 . S
C2070 C2072 1.415 . S
C2071 C2070 1.355 . S
C2071 C2073 1.419 . S
C2072 C2070 1.415 . S
C2072 C2077 1.425 . S
C2072 C2079 1.409 . S
C2073 H2065 0.930 . S
C2073 C2071 1.419 . S
C2073 C2074 1.362 . S
C2074 H2066 0.930 . S
C2074 C2073 1.362 . S
C2074 C2077 1.409 . S
C2075 H2067 0.930 . S
C2075 C2076 1.355 . S
C2075 C2077 1.415 . S
C2076 C2075 1.355 . S
C2076 C2078 1.419 . S
C2077 C2072 1.425 . S
C2077 C2074 1.409 . S
C2077 C2075 1.415 . S
C2078 H2068 0.930 . S
C2078 C2076 1.419 . S
C2078 C2079 1.362 . S
C2079 H2069 0.930 . S
C2079 C2072 1.409 . S
C2079 C2078 1.362 . S
H2080 C2086 0.930 . S
H2081 C2089 0.930 . S
H2082 C2090 0.930 . S
H2083 C2091 0.930 . S
H2084 C2094 0.930 . S
H2085 C2095 0.930 . S
C2086 H2080 0.930 . S
C2086 C2087 1.355 . S
C2086 C2088 1.415 . S
C2087 C2086 1.355 . S
C2087 C2089 1.419 . S
C2088 C2086 1.415 . S
C2088 C2093 1.425 . S
C2088 C2095 1.409 . S
C2089 H2081 0.930 . S
C2089 C2087 1.419 . S
C2089 C2090 1.362 . S
C2090 H2082 0.930 . S
C2090 C2089 1.362 . S
C2090 C2093 1.409 . S
C2091 H2083 0.930 . S
C2091 C2092 1.355 . S
C2091 C2093 1.415 . S
C2092 C2091 1.355 . S
C2092 C2094 1.419 . S
C2093 C2088 1.425 . S
C2093 C2090 1.409 . S
C2093 C2091 1.415 . S
C2094 H2084 0.930 . S
C2094 C2092 1.419 . S
C2094 C2095 1.362 . S
C2095 H2085 0.930 . S
C2095 C2088 1.409 . S
C2095 C2094 1.362 . S
H2096 C2102 0.930 . S
H2097 C2105 0.930 . S
H2098 C2106 0.930 . S
H2099 C2107 0.930 . S
H2100 C2110 0.930 . S
H2101 C2111 0.930 . S
C2102 H2096 0.930 . S
C2102 C2103 1.355 . S
C2102 C2104 1.415 . S
C2103 C2102 1.355 . S
C2103 C2105 1.419 . S
C2104 C2102 1.415 . S
C2104 C2109 1.425 . S
C2104 C2111 1.409 . S
C2105 H2097 0.930 . S
C2105 C2103 1.419 . S
C2105 C2106 1.362 . S
C2106 H2098 0.930 . S
C2106 C2105 1.362 . S
C2106 C2109 1.409 . S
C2107 H2099 0.930 . S
C2107 C2108 1.355 . S
C2107 C2109 1.415 . S
C2108 C2107 1.355 . S
C2108 C2110 1.419 . S
C2109 C2104 1.425 . S
C2109 C2106 1.409 . S
C2109 C2107 1.415 . S
C2110 H2100 0.930 . S
C2110 C2108 1.419 . S
C2110 C2111 1.362 . S
C2111 H2101 0.930 . S
C2111 C2104 1.409 . S
C2111 C2110 1.362 . S
H2112 C2118 0.930 . S
H2113 C2121 0.930 . S
H2114 C2122 0.930 . S
H2115 C2123 0.930 . S
H2116 C2126 0.930 . S
H2117 C2127 0.930 . S
C2118 H2112 0.930 . S
C2118 C2119 1.355 . S
C2118 C2120 1.415 . S
C2119 C2118 1.355 . S
C2119 C2121 1.419 . S
C2120 C2118 1.415 . S
C2120 C2125 1.425 . S
C2120 C2127 1.409 . S
C2121 H2113 0.930 . S
C2121 C2119 1.419 . S
C2121 C2122 1.362 . S
C2122 H2114 0.930 . S
C2122 C2121 1.362 . S
C2122 C2125 1.409 . S
C2123 H2115 0.930 . S
C2123 C2124 1.355 . S
C2123 C2125 1.415 . S
C2124 C2123 1.355 . S
C2124 C2126 1.419 . S
C2125 C2120 1.425 . S
C2125 C2122 1.409 . S
C2125 C2123 1.415 . S
C2126 H2116 0.930 . S
C2126 C2124 1.419 . S
C2126 C2127 1.362 . S
C2127 H2117 0.930 . S
C2127 C2120 1.409 . S
C2127 C2126 1.362 . S
H2128 C2134 0.930 . S
H2129 C2137 0.930 . S
H2130 C2138 0.930 . S
H2131 C2139 0.930 . S
H2132 C2142 0.930 . S
H2133 C2143 0.930 . S
C2134 H2128 0.930 . S
C2134 C2135 1.355 . S
C2134 C2136 1.415 . S
C2135 C2134 1.355 . S
C2135 C2137 1.419 . S
C2136 C2134 1.415 . S
C2136 C2141 1.425 . S
C2136 C2143 1.409 . S
C2137 H2129 0.930 . S
C2137 C2135 1.419 . S
C2137 C2138 1.362 . S
C2138 H2130 0.930 . S
C2138 C2137 1.362 . S
C2138 C2141 1.409 . S
C2139 H2131 0.930 . S
C2139 C2140 1.355 . S
C2139 C2141 1.415 . S
C2140 C2139 1.355 . S
C2140 C2142 1.419 . S
C2141 C2136 1.425 . S
C2141 C2138 1.409 . S
C2141 C2139 1.415 . S
C2142 H2132 0.930 . S
C2142 C2140 1.419 . S
C2142 C2143 1.362 . S
C2143 H2133 0.930 . S
C2143 C2136 1.409 . S
C2143 C2142 1.362 . S
H2144 C2150 0.930 . S
H2145 C2153 0.930 . S
H2146 C2154 0.930 . S
H2147 C2155 0.930 . S
H2148 C2158 0.930 . S
H2149 C2159 0.930 . S
C2150 H2144 0.930 . S
C2150 C2151 1.355 . S
C2150 C2152 1.415 . S
C2151 C2150 1.355 . S
C2151 C2153 1.419 . S
C2152 C2150 1.415 . S
C2152 C2157 1.425 . S
C2152 C2159 1.409 . S
C2153 H2145 0.930 . S
C2153 C2151 1.419 . S
C2153 C2154 1.362 . S
C2154 H2146 0.930 . S
C2154 C2153 1.362 . S
C2154 C2157 1.409 . S
C2155 H2147 0.930 . S
C2155 C2156 1.355 . S
C2155 C2157 1.415 . S
C2156 C2155 1.355 . S
C2156 C2158 1.419 . S
C2157 C2152 1.425 . S
C2157 C2154 1.409 . S
C2157 C2155 1.415 . S
C2158 H2148 0.930 . S
C2158 C2156 1.419 . S
C2158 C2159 1.362 . S
C2159 H2149 0.930 . S
C2159 C2152 1.409 . S
C2159 C2158 1.362 . S
H2160 C2166 0.930 . S
H2161 C2169 0.930 . S
H2162 C2170 0.930 . S
H2163 C2171 0.930 . S
H2164 C2174 0.930 . S
H2165 C2175 0.930 . S
C2166 H2160 0.930 . S
C2166 C2167 1.355 . S
C2166 C2168 1.415 . S
C2167 C2166 1.355 . S
C2167 C2169 1.419 . S
C2168 C2166 1.415 . S
C2168 C2173 1.425 . S
C2168 C2175 1.409 . S
C2169 H2161 0.930 . S
C2169 C2167 1.419 . S
C2169 C2170 1.362 . S
C2170 H2162 0.930 . S
C2170 C2169 1.362 . S
C2170 C2173 1.409 . S
C2171 H2163 0.930 . S
C2171 C2172 1.355 . S
C2171 C2173 1.415 . S
C2172 C2171 1.355 . S
C2172 C2174 1.419 . S
C2173 C2168 1.425 . S
C2173 C2170 1.409 . S
C2173 C2171 1.415 . S
C2174 H2164 0.930 . S
C2174 C2172 1.419 . S
C2174 C2175 1.362 . S
C2175 H2165 0.930 . S
C2175 C2168 1.409 . S
C2175 C2174 1.362 . S
C1159 C446 1.184 . S
C1164 C2 1.144 . S
C1175 C1048 0.948 . S
C1180 C38 0.954 . S
C1191 C518 1.174 . S
C1196 C74 1.133 . S
C1207 C1120 1.024 . S
C1212 C110 0.932 . S
C1223 C302 1.205 . S
C1228 C146 1.195 . S
C1239 C182 0.908 . S
C1244 C904 1.002 . S
C1255 C218 1.171 . S
C1260 C374 1.209 . S
C1271 C976 0.983 . S
C1276 C254 0.898 . S
C1287 C158 1.121 . S
C1292 C290 1.084 . S
C1303 C770 0.993 . S
C1308 C327 1.020 . S
C1319 C230 1.114 . S
C1324 C362 1.082 . S
C1335 C842 1.063 . S
C1340 C399 1.069 . S
C1351 C434 1.210 . S
C1356 C14 1.224 . S
C1367 C471 1.018 . S
C1372 C626 0.991 . S
C1383 C86 1.174 . S
C1388 C506 1.136 . S
C1399 C543 1.000 . S
C1404 C698 0.965 . S
C1415 C1022 1.151 . S
C1420 C578 1.116 . S
C1431 C472 0.993 . S
C1436 C614 0.902 . S
C1447 C1094 1.179 . S
C1452 C650 1.138 . S
C1463 C686 1.043 . S
C1468 C544 1.032 . S
C1479 C722 1.137 . S
C1484 C878 1.159 . S
C1495 C758 1.040 . S
C1500 C328 1.039 . S
C1511 C950 1.230 . S
C1516 C794 1.221 . S
C1527 C400 0.975 . S
C1532 C830 1.009 . S
C1543 C734 1.148 . S
C1548 C866 1.136 . S
C1559 C903 1.028 . S
C1564 C194 1.006 . S
C1575 C938 1.190 . S
C1580 C806 1.216 . S
C1591 C975 1.066 . S
C1596 C266 1.059 . S
C1607 C590 1.176 . S
C1612 C1010 1.168 . S
C1623 C50 1.063 . S
C1628 C1047 1.069 . S
C1639 C662 1.210 . S
C1644 C1082 1.181 . S
C1655 C1119 1.028 . S
C1660 C122 1.005 . S
C1671 C3 1.481 1_655 S
C1676 C291 1.468 . S
C1687 C39 1.416 . S
C1692 C902 1.363 . S
C1703 C363 1.403 . S
C1708 C75 1.426 . S
C1719 C111 1.461 . S
C1724 C974 1.432 . S
C1735 C147 1.426 1_655 S
C1740 C435 1.401 . S
C1751 C1046 1.436 . S
C1756 C183 1.463 . S
C1767 C507 1.402 . S
C1772 C219 1.426 . S
C1783 C255 1.458 . S
C1788 C1118 1.427 . S
C1799 C326 1.367 . S
C1804 C615 1.420 . S
C1815 C398 1.386 . S
C1820 C687 1.430 . S
C1831 C470 1.353 . S
C1836 C759 1.411 . S
C1847 C831 1.418 . S
C1852 C542 1.368 . S
C1863 C579 1.435 . S
C1868 C867 1.416 . S
C1879 C651 1.426 1_455 S
C1884 C939 1.401 . S
C1895 C723 1.455 . S
C1900 C1011 1.440 . S
C1911 C1083 1.463 . S
C1916 C795 1.474 1_455 S
C1927 C4 1.367 . S
C1932 C256 1.320 . S
C1943 C40 1.321 . S
C1948 C148 1.368 . S
C1959 C184 1.328 . S
C1964 C76 1.374 . S
C1975 C220 1.363 . S
C1980 C112 1.357 . S
C1991 C554 1.226 . S
C1996 C292 1.268 . S
C2007 C436 1.300 . S
C2012 C338 1.305 . S
C2023 C482 1.236 . S
C2028 C364 1.266 . S
C2039 C508 1.343 . S
C2044 C410 1.306 . S
C2055 C580 1.348 . S
C2060 C832 1.370 . S
C2071 C724 1.328 . S
C2076 C616 1.372 . S
C2087 C760 1.352 . S
C2092 C652 1.367 . S
C2103 C796 1.337 . S
C2108 C688 1.335 . S
C2119 C1130 1.295 . S
C2124 C868 1.291 . S
C2135 C914 1.222 . S
C2140 C1012 1.295 . S
C2151 C940 1.271 . S
C2156 C1058 1.262 . S
C2167 C1084 1.326 . S
C2172 C986 1.253 . S
