# Generated by pormake.
# Topology vmq, (7)-cn, num edge types: 1
# Building blocks:
#     Node 0, Type 0, BuildingBlock: HICVOG_clean_sbu_0, # of connection points: 7
#     Node 1, Type 0, BuildingBlock: HICVOG_clean_sbu_0, # of connection points: 7
#     Node 2, Type 0, BuildingBlock: HICVOG_clean_sbu_0, # of connection points: 7
#     Node 3, Type 0, BuildingBlock: HICVOG_clean_sbu_0, # of connection points: 7
#     Node 4, Type 0, BuildingBlock: HICVOG_clean_sbu_0, # of connection points: 7
#     Node 5, Type 0, BuildingBlock: HICVOG_clean_sbu_0, # of connection points: 7
#     Node 6, Type 0, BuildingBlock: HICVOG_clean_sbu_0, # of connection points: 7
#     Node 7, Type 0, BuildingBlock: HICVOG_clean_sbu_0, # of connection points: 7
#     Edge 8, Type (0, 0), BuildingBlock: XIVTED_clean_linker_0, # of connection points: 2
#     Edge 9, Type (0, 0), BuildingBlock: XIVTED_clean_linker_0, # of connection points: 2
#     Edge 10, Type (0, 0), BuildingBlock: XIVTED_clean_linker_0, # of connection points: 2
#     Edge 11, Type (0, 0), BuildingBlock: XIVTED_clean_linker_0, # of connection points: 2
#     Edge 12, Type (0, 0), BuildingBlock: XIVTED_clean_linker_0, # of connection points: 2
#     Edge 13, Type (0, 0), BuildingBlock: XIVTED_clean_linker_0, # of connection points: 2
#     Edge 14, Type (0, 0), BuildingBlock: XIVTED_clean_linker_0, # of connection points: 2
#     Edge 15, Type (0, 0), BuildingBlock: XIVTED_clean_linker_0, # of connection points: 2
#     Edge 16, Type (0, 0), BuildingBlock: XIVTED_clean_linker_0, # of connection points: 2
#     Edge 17, Type (0, 0), BuildingBlock: XIVTED_clean_linker_0, # of connection points: 2
#     Edge 18, Type (0, 0), BuildingBlock: XIVTED_clean_linker_0, # of connection points: 2
#     Edge 19, Type (0, 0), BuildingBlock: XIVTED_clean_linker_0, # of connection points: 2
#     Edge 20, Type (0, 0), BuildingBlock: XIVTED_clean_linker_0, # of connection points: 2
#     Edge 21, Type (0, 0), BuildingBlock: XIVTED_clean_linker_0, # of connection points: 2
#     Edge 22, Type (0, 0), BuildingBlock: XIVTED_clean_linker_0, # of connection points: 2
#     Edge 23, Type (0, 0), BuildingBlock: XIVTED_clean_linker_0, # of connection points: 2
#     Edge 24, Type (0, 0), BuildingBlock: XIVTED_clean_linker_0, # of connection points: 2
#     Edge 25, Type (0, 0), BuildingBlock: XIVTED_clean_linker_0, # of connection points: 2
#     Edge 26, Type (0, 0), BuildingBlock: XIVTED_clean_linker_0, # of connection points: 2
#     Edge 27, Type (0, 0), BuildingBlock: XIVTED_clean_linker_0, # of connection points: 2
#     Edge 28, Type (0, 0), BuildingBlock: XIVTED_clean_linker_0, # of connection points: 2
#     Edge 29, Type (0, 0), BuildingBlock: XIVTED_clean_linker_0, # of connection points: 2
#     Edge 30, Type (0, 0), BuildingBlock: XIVTED_clean_linker_0, # of connection points: 2
#     Edge 31, Type (0, 0), BuildingBlock: XIVTED_clean_linker_0, # of connection points: 2
#     Edge 32, Type (0, 0), BuildingBlock: XIVTED_clean_linker_0, # of connection points: 2
#     Edge 33, Type (0, 0), BuildingBlock: XIVTED_clean_linker_0, # of connection points: 2
#     Edge 34, Type (0, 0), BuildingBlock: XIVTED_clean_linker_0, # of connection points: 2
#     Edge 35, Type (0, 0), BuildingBlock: XIVTED_clean_linker_0, # of connection points: 2
# Relax obj value: 0.300
# Max RMSD: 0.265
# Mean RMSD: 0.265
data_MOF--net-vmq--node1-HICVOG_clean_sbu_0--edge1-XIVTED_clean_linker_0
_symmetry_space_group_name_H-M    P1
_symmetry_Int_Tables_number       1
_symmetry_cell_setting            triclinic
loop_
_symmetry_equiv_pos_as_xyz
'x, y, z'
_cell_length_a     52.844801
_cell_length_b     19.556024
_cell_length_c     35.301696
_cell_angle_alpha  89.862543
_cell_angle_beta   107.7019
_cell_angle_gamma 89.930471
loop_
_atom_site_label
_atom_site_type_symbol
_atom_site_fract_x
_atom_site_fract_y
_atom_site_fract_z
_atom_type_partial_charge
Zn0 Zn 0.41503 0.14312 0.10699 0.0
C1 C 0.44869 0.99325 0.06209 0.0
N2 N 0.46279 0.98176 0.10008 0.0
C3 C 0.45201 0.02447 0.12053 0.0
N4 N 0.43182 0.06082 0.09606 0.0
N5 N 0.42925 0.03952 0.05958 0.0
C6 C 0.39992 0.04127 0.94312 0.0
O7 O 0.39756 0.10627 0.95079 0.0
O8 O 0.41328 0.13639 0.16335 0.0
Zn9 Zn 0.39485 0.02443 0.02187 0.0
N10 N 0.4359 0.221 0.09884 0.0
C11 C 0.47392 0.26258 0.08336 0.0
C12 C 0.45916 0.20841 0.09107 0.0
C13 C 0.42646 0.286 0.09819 0.0
N14 N 0.46453 0.32726 0.08265 0.0
C15 C 0.44103 0.34115 0.08949 0.0
O16 O 0.36797 0.10212 0.0141 0.0
C17 C 0.36192 0.14604 0.03662 0.0
O18 O 0.37748 0.15932 0.07116 0.0
H19 H 0.46629 0.15666 0.09088 0.0
H20 H 0.40784 0.29397 0.10431 0.0
C21 C 0.38907 0.88318 0.04355 0.0
C22 C 0.37693 0.82951 0.05842 0.0
C23 C 0.34576 0.90881 0.06927 0.0
C24 C 0.35784 0.96149 0.05468 0.0
N25 N 0.37914 0.94787 0.04191 0.0
N26 N 0.3555 0.8444 0.07071 0.0
H27 H 0.40589 0.87394 0.03284 0.0
C28 C 0.39721 0.09212 0.16903 0.0
O29 O 0.38246 0.05742 0.13844 0.0
O30 O 0.39935 0.99689 0.96919 0.0
H31 H 0.3502 0.01286 0.05357 0.0
H32 H 0.49257 0.2533 0.07751 0.0
H33 H 0.32876 0.91896 0.0794 0.0
Zn34 Zn 0.64434 0.04463 0.47663 0.0
C35 C 0.58377 0.05901 0.3812 0.0
N36 N 0.57243 0.01573 0.40048 0.0
C37 C 0.58855 0.01892 0.43807 0.0
N38 N 0.60908 0.06218 0.4413 0.0
N39 N 0.60563 0.08839 0.40557 0.0
C40 C 0.63423 0.10049 0.33038 0.0
O41 O 0.64373 0.05822 0.36034 0.0
O42 O 0.64238 0.00778 0.5292 0.0
Zn43 Zn 0.6231 0.16752 0.39318 0.0
N44 N 0.65924 0.97261 0.45207 0.0
C45 C 0.69154 0.9373 0.42162 0.0
C46 C 0.68045 0.98773 0.4394 0.0
C47 C 0.6486 0.90864 0.44759 0.0
N48 N 0.68106 0.87352 0.41732 0.0
C49 C 0.65979 0.85723 0.42969 0.0
O50 O 0.66057 0.18212 0.42863 0.0
C51 C 0.67646 0.16805 0.46286 0.0
O52 O 0.67087 0.1232 0.48541 0.0
H53 H 0.68875 0.03851 0.44295 0.0
H54 H 0.632 0.89813 0.4586 0.0
C55 C 0.61161 0.31162 0.3954 0.0
C56 C 0.59789 0.36877 0.40383 0.0
C57 C 0.56707 0.2936 0.41918 0.0
C58 C 0.58122 0.23756 0.41219 0.0
N59 N 0.60288 0.2474 0.39968 0.0
N60 N 0.57577 0.35752 0.41507 0.0
H61 H 0.62916 0.31745 0.38606 0.0
C62 C 0.63623 0.04423 0.55485 0.0
O63 O 0.63107 0.1095 0.54749 0.0
O64 O 0.62392 0.15652 0.33663 0.0
H65 H 0.57506 0.18663 0.4172 0.0
H66 H 0.70841 0.94866 0.4114 0.0
H67 H 0.54962 0.28643 0.42868 0.0
Zn68 Zn 0.62493 0.86622 0.89487 0.0
C69 C 0.59209 0.01525 0.94235 0.0
N70 N 0.57667 0.02499 0.90488 0.0
C71 C 0.58675 0.98201 0.88366 0.0
N72 N 0.60782 0.94708 0.90719 0.0
N73 N 0.61156 0.96962 0.94375 0.0
C74 C 0.64182 0.96419 0.05991 0.0
O75 O 0.64408 0.89923 0.05206 0.0
O76 O 0.62407 0.87744 0.83755 0.0
Zn77 Zn 0.64629 0.98257 0.9808 0.0
N78 N 0.605 0.78665 0.90387 0.0
C79 C 0.56808 0.74363 0.92182 0.0
C80 C 0.58235 0.79836 0.91359 0.0
C81 C 0.6144 0.72179 0.90327 0.0
N82 N 0.57739 0.67918 0.92121 0.0
C83 C 0.60032 0.66602 0.91253 0.0
O84 O 0.67239 0.90339 0.98722 0.0
C85 C 0.6786 0.86175 0.96369 0.0
O86 O 0.66318 0.85071 0.92869 0.0
H87 H 0.57528 0.84987 0.91486 0.0
H88 H 0.63258 0.71433 0.8958 0.0
C89 C 0.65221 0.124 0.95884 0.0
C90 C 0.66482 0.17778 0.94481 0.0
C91 C 0.69704 0.09885 0.93685 0.0
C92 C 0.68451 0.04613 0.95061 0.0
N93 N 0.66243 0.05944 0.9615 0.0
N94 N 0.68699 0.16305 0.93435 0.0
H95 H 0.63482 0.13307 0.9682 0.0
C96 C 0.63744 0.84682 0.8183 0.0
O97 O 0.65411 0.79817 0.83575 0.0
O98 O 0.64236 0.00879 0.03395 0.0
H99 H 0.69249 0.99501 0.95268 0.0
H100 H 0.5499 0.75229 0.92914 0.0
H101 H 0.71467 0.08892 0.92822 0.0
Zn102 Zn 0.41602 0.83186 0.60934 0.0
C103 C 0.45109 0.98387 0.56811 0.0
N104 N 0.46598 0.98784 0.60635 0.0
C105 C 0.45399 0.94402 0.62444 0.0
N106 N 0.43293 0.91354 0.5987 0.0
N107 N 0.43065 0.93981 0.56331 0.0
C108 C 0.38288 0.97103 0.43844 0.0
O109 O 0.35936 0.95973 0.4426 0.0
O110 O 0.41563 0.83902 0.66632 0.0
Zn111 Zn 0.39722 0.94931 0.52189 0.0
N112 N 0.43668 0.75401 0.60065 0.0
C113 C 0.47373 0.71416 0.58191 0.0
C114 C 0.45901 0.76757 0.59049 0.0
C115 C 0.42788 0.68856 0.60106 0.0
N116 N 0.46505 0.64912 0.58238 0.0
C117 C 0.44239 0.63406 0.59141 0.0
O118 O 0.37046 0.87179 0.51631 0.0
C119 C 0.36346 0.83071 0.53941 0.0
O120 O 0.37835 0.8182 0.57453 0.0
H121 H 0.46526 0.81956 0.5884 0.0
H122 H 0.40933 0.67999 0.60727 0.0
C123 C 0.39194 0.0909 0.54293 0.0
C124 C 0.37859 0.14687 0.55346 0.0
C125 C 0.34133 0.07539 0.54802 0.0
C126 C 0.35453 0.02058 0.53743 0.0
N127 N 0.37958 0.02907 0.53524 0.0
N128 N 0.3536 0.13686 0.55577 0.0
H129 H 0.41199 0.09565 0.54144 0.0
C130 C 0.40402 0.89274 0.67288 0.0
O131 O 0.39289 0.93381 0.64289 0.0
O132 O 0.40321 0.96817 0.46899 0.0
H133 H 0.3448 0.97159 0.53119 0.0
H134 H 0.49164 0.72433 0.57411 0.0
H135 H 0.32144 0.06921 0.55005 0.0
Zn136 Zn 0.91743 0.66015 0.10648 0.0
C137 C 0.95012 0.5097 0.06006 0.0
N138 N 0.9635 0.49657 0.0982 0.0
C139 C 0.95256 0.53964 0.11821 0.0
N140 N 0.93335 0.57822 0.09355 0.0
N141 N 0.93118 0.55767 0.05708 0.0
C142 C 0.88172 0.52976 0.93353 0.0
O143 O 0.85853 0.54799 0.93677 0.0
O144 O 0.91939 0.64958 0.16437 0.0
Zn145 Zn 0.89693 0.54662 0.01829 0.0
N146 N 0.93773 0.73873 0.09726 0.0
C147 C 0.97501 0.78018 0.07967 0.0
C148 C 0.9605 0.72608 0.08808 0.0
C149 C 0.92841 0.8039 0.09702 0.0
N150 N 0.96579 0.84493 0.07948 0.0
C151 C 0.9427 0.85903 0.08751 0.0
O152 O 0.87063 0.62538 0.0141 0.0
C153 C 0.86405 0.66566 0.03798 0.0
O154 O 0.87919 0.67597 0.07326 0.0
H155 H 0.96742 0.67428 0.08725 0.0
H156 H 0.91008 0.81213 0.10399 0.0
C157 C 0.89105 0.40253 0.0375 0.0
C158 C 0.87766 0.34734 0.04893 0.0
C159 C 0.84358 0.42399 0.05277 0.0
C160 C 0.85683 0.47797 0.04154 0.0
N161 N 0.88024 0.46663 0.03404 0.0
N162 N 0.85423 0.36041 0.05612 0.0
H163 H 0.90949 0.39488 0.03077 0.0
C164 C 0.90556 0.67946 0.18321 0.0
O165 O 0.88835 0.72658 0.16512 0.0
O166 O 0.90162 0.52672 0.96469 0.0
H167 H 0.84831 0.52856 0.03872 0.0
H168 H 0.9933 0.77076 0.07278 0.0
H169 H 0.82492 0.43244 0.05874 0.0
Zn170 Zn 0.1218 0.6572 0.3905 0.0
C171 C 0.08882 0.50655 0.4359 0.0
N172 N 0.07595 0.49264 0.39773 0.0
C173 C 0.08707 0.53534 0.37767 0.0
N174 N 0.10597 0.57433 0.40243 0.0
N175 N 0.10771 0.55441 0.43894 0.0
C176 C 0.1562 0.52635 0.56292 0.0
O177 O 0.17854 0.55193 0.56013 0.0
O178 O 0.12267 0.6503 0.33364 0.0
Zn179 Zn 0.14174 0.54022 0.4778 0.0
N180 N 0.10071 0.73472 0.39871 0.0
C181 C 0.06249 0.77548 0.41399 0.0
C182 C 0.07738 0.72168 0.40614 0.0
C183 C 0.11014 0.79983 0.4 0.0
N184 N 0.07186 0.84024 0.41531 0.0
C185 C 0.09545 0.85461 0.40893 0.0
O186 O 0.16844 0.6176 0.48334 0.0
C187 C 0.17475 0.66056 0.46049 0.0
O188 O 0.15944 0.67354 0.42566 0.0
H189 H 0.07033 0.66982 0.40601 0.0
H190 H 0.12886 0.8082 0.39427 0.0
C191 C 0.14747 0.39694 0.45833 0.0
C192 C 0.16007 0.34225 0.44505 0.0
C193 C 0.19238 0.41985 0.43615 0.0
C194 C 0.17987 0.47345 0.44914 0.0
N195 N 0.15778 0.46127 0.46019 0.0
N196 N 0.18228 0.35592 0.43449 0.0
H197 H 0.13 0.38872 0.46761 0.0
C198 C 0.13909 0.60672 0.32814 0.0
O199 O 0.15422 0.57291 0.35897 0.0
O200 O 0.13701 0.51731 0.53132 0.0
H201 H 0.18784 0.52442 0.45037 0.0
H202 H 0.04378 0.76583 0.41954 0.0
H203 H 0.21002 0.42892 0.42739 0.0
Zn204 Zn 0.12369 0.33865 0.89173 0.0
C205 C 0.08856 0.49304 0.93192 0.0
N206 N 0.07115 0.48859 0.89537 0.0
C207 C 0.08253 0.44343 0.87719 0.0
N208 N 0.10584 0.42005 0.90153 0.0
N209 N 0.10987 0.45211 0.93583 0.0
C210 C 0.15722 0.48714 0.06072 0.0
O211 O 0.1809 0.47411 0.05757 0.0
O212 O 0.12667 0.34564 0.83607 0.0
Zn213 Zn 0.14343 0.46082 0.97737 0.0
N214 N 0.10272 0.25969 0.89743 0.0
C215 C 0.06497 0.21465 0.91224 0.0
C216 C 0.07984 0.27024 0.90665 0.0
C217 C 0.11193 0.19518 0.89527 0.0
N218 N 0.07414 0.15045 0.91021 0.0
C219 C 0.09746 0.13857 0.90242 0.0
O220 O 0.16954 0.38095 0.98541 0.0
C221 C 0.17583 0.33649 0.96346 0.0
O222 O 0.16064 0.32287 0.92878 0.0
H223 H 0.07335 0.3213 0.91045 0.0
H224 H 0.13042 0.18863 0.88853 0.0
C225 C 0.15105 0.60104 0.95644 0.0
C226 C 0.1651 0.65479 0.94521 0.0
C227 C 0.20015 0.57735 0.94707 0.0
C228 C 0.18617 0.52458 0.95799 0.0
N229 N 0.16195 0.53724 0.96254 0.0
N230 N 0.18936 0.64085 0.94102 0.0
H231 H 0.13193 0.60946 0.9609 0.0
C232 C 0.14375 0.38784 0.83126 0.0
O233 O 0.15873 0.42083 0.86241 0.0
O234 O 0.13721 0.48404 0.02973 0.0
H235 H 0.19469 0.47395 0.96281 0.0
H236 H 0.04657 0.22242 0.91913 0.0
H237 H 0.21945 0.568 0.94342 0.0
Zn238 Zn 0.89376 0.48228 0.52297 0.0
C239 C 0.95708 0.45502 0.61817 0.0
N240 N 0.96827 0.4995 0.59928 0.0
C241 C 0.95012 0.50583 0.56341 0.0
N242 N 0.92855 0.46667 0.56065 0.0
N243 N 0.93314 0.43394 0.59493 0.0
C244 C 0.89379 0.4017 0.66402 0.0
O245 O 0.87873 0.43394 0.63251 0.0
O246 O 0.89723 0.51972 0.47115 0.0
Zn247 Zn 0.91503 0.35331 0.60472 0.0
N248 N 0.87729 0.55306 0.54585 0.0
C249 C 0.84322 0.58691 0.57311 0.0
C250 C 0.85536 0.53704 0.55649 0.0
C251 C 0.8877 0.61722 0.55132 0.0
N252 N 0.85349 0.65095 0.57842 0.0
C253 C 0.87553 0.66798 0.56815 0.0
O254 O 0.87839 0.33848 0.56674 0.0
C255 C 0.8624 0.35473 0.53301 0.0
O256 O 0.86759 0.4029 0.51211 0.0
H257 H 0.84727 0.48599 0.55215 0.0
H258 H 0.90494 0.62832 0.54194 0.0
C259 C 0.92721 0.20984 0.60441 0.0
C260 C 0.94143 0.15243 0.59767 0.0
C261 C 0.97283 0.22694 0.58336 0.0
C262 C 0.95815 0.28324 0.58857 0.0
N263 N 0.93595 0.27387 0.59979 0.0
N264 N 0.9641 0.16319 0.58779 0.0
H265 H 0.90925 0.20431 0.61274 0.0
C266 C 0.90189 0.48243 0.44457 0.0
O267 O 0.9046 0.41611 0.45043 0.0
O268 O 0.91134 0.36031 0.65987 0.0
H269 H 0.96425 0.33385 0.58296 0.0
H270 H 0.82574 0.57492 0.58168 0.0
H271 H 0.9907 0.23376 0.5749 0.0
H272 H 0.58782 0.99022 0.31769 0.0
H273 H 0.46066 0.14806 0.16118 0.0
H274 H 0.54761 0.15987 0.35191 0.0
H275 H 0.47811 0.93239 0.17456 0.0
H276 H 0.49607 0.16918 0.22337 0.0
H277 H 0.55364 0.98856 0.25284 0.0
C278 C 0.57248 0.0292 0.31076 0.0
C279 C 0.57077 0.07626 0.33958 0.0
C280 C 0.49178 0.11728 0.21273 0.0
C281 C 0.53116 0.07268 0.26685 0.0
C282 C 0.47127 0.10504 0.17757 0.0
C283 C 0.46638 0.0384 0.16255 0.0
C284 C 0.50774 0.06254 0.232 0.0
C285 C 0.48128 0.98468 0.18498 0.0
C286 C 0.55277 0.02745 0.27421 0.0
C287 C 0.55003 0.12427 0.32994 0.0
N288 N 0.5016 0.99799 0.21817 0.0
N289 N 0.53073 0.12093 0.29432 0.0
H290 H 0.4493 0.0141 0.68715 0.0
H291 H 0.57788 0.85801 0.84301 0.0
H292 H 0.48883 0.8408 0.65533 0.0
H293 H 0.55837 0.07265 0.83071 0.0
H294 H 0.54155 0.83548 0.78215 0.0
H295 H 0.48306 0.01621 0.75235 0.0
C296 C 0.46439 0.97449 0.69466 0.0
C297 C 0.4661 0.9265 0.66629 0.0
C298 C 0.54553 0.88747 0.79279 0.0
C299 C 0.50533 0.93058 0.73945 0.0
C300 C 0.56655 0.90054 0.82722 0.0
C301 C 0.57124 0.96729 0.84215 0.0
C302 C 0.52886 0.94146 0.7741 0.0
C303 C 0.55542 0.02029 0.82037 0.0
C304 C 0.48388 0.97646 0.73143 0.0
C305 C 0.48645 0.87745 0.67679 0.0
N306 N 0.5347 0.00616 0.78786 0.0
N307 N 0.50562 0.88119 0.71253 0.0
H308 H 0.96291 0.44255 0.17417 0.0
H309 H 0.07103 0.65615 0.33648 0.0
H310 H 0.97326 0.65783 0.15792 0.0
H311 H 0.07187 0.43748 0.32278 0.0
H312 H 0.03428 0.664 0.27433 0.0
H313 H 0.99875 0.44643 0.23668 0.0
C314 C 0.97219 0.49126 0.18455 0.0
C315 C 0.96528 0.54986 0.16086 0.0
C316 C 0.04291 0.61453 0.28465 0.0
C317 C 1.00723 0.55421 0.23118 0.0
C318 C 0.06412 0.61014 0.31983 0.0
C319 C 0.07422 0.54598 0.33496 0.0
C320 C 0.03182 0.55414 0.26518 0.0
C321 C 0.06451 0.48791 0.31212 0.0
C322 C 0.99302 0.49322 0.21975 0.0
C323 C 0.97807 0.61156 0.17526 0.0
N324 N 0.04355 0.4932 0.27877 0.0
N325 N 0.99883 0.61209 0.20941 0.0
H326 H 0.0356 0.37976 0.86398 0.0
H327 H 1.00426 0.39307 0.62932 0.0
H328 H 0.09221 0.44437 0.8056 0.0
H329 H 0.94792 0.4486 0.69014 0.0
H330 H 0.03642 0.36253 0.6932 0.0
H331 H 1.00362 0.3552 0.79914 0.0
C332 C 0.04172 0.38559 0.8375 0.0
C333 C 0.0669 0.4116 0.83996 0.0
C334 C 1.01666 0.37893 0.69232 0.0
C335 C 0.03035 0.3854 0.76616 0.0
C336 C 0.99831 0.39604 0.65607 0.0
C337 C 0.97317 0.42126 0.65462 0.0
C338 C 1.00979 0.38758 0.72727 0.0
C339 C 0.96658 0.42617 0.68995 0.0
C340 C 0.02343 0.3721 0.80068 0.0
C341 C 0.07355 0.42106 0.80492 0.0
N342 N 0.98493 0.40992 0.72509 0.0
N343 N 0.05524 0.40839 0.76922 0.0
H344 H 0.34757 0.71417 0.05505 0.0
H345 H 0.47098 0.45701 0.098 0.0
H346 H 0.42791 0.77994 0.06917 0.0
H347 H 0.38949 0.39132 0.07281 0.0
H348 H 0.45581 0.57545 0.08948 0.0
H349 H 0.36288 0.59593 0.06324 0.0
C350 C 0.36845 0.70385 0.0597 0.0
C351 C 0.38638 0.75746 0.06108 0.0
C352 C 0.44128 0.5351 0.08602 0.0
C353 C 0.40413 0.62142 0.07077 0.0
C354 C 0.4499 0.46724 0.09091 0.0
C355 C 0.43161 0.41342 0.08661 0.0
C356 C 0.41408 0.54979 0.07663 0.0
C357 C 0.40454 0.43044 0.07741 0.0
C358 C 0.37716 0.63613 0.06433 0.0
C359 C 0.41319 0.74058 0.0671 0.0
N360 N 0.39665 0.497 0.07273 0.0
N361 N 0.42124 0.67408 0.07186 0.0
H362 H 0.60872 0.80985 0.41992 0.0
H363 H 0.64892 0.41648 0.41276 0.0
H364 H 0.68773 0.74141 0.42661 0.0
H365 H 0.56834 0.48556 0.39452 0.0
H366 H 0.66329 0.53514 0.41678 0.0
H367 H 0.59359 0.69138 0.41101 0.0
C368 C 0.623 0.77008 0.42 0.0
C369 C 0.64971 0.78586 0.42461 0.0
C370 C 0.64242 0.5243 0.41153 0.0
C371 C 0.63228 0.6499 0.41361 0.0
C372 C 0.63407 0.45622 0.40878 0.0
C373 C 0.60721 0.44038 0.40287 0.0
C374 C 0.62388 0.57715 0.40869 0.0
C375 C 0.58925 0.49497 0.39923 0.0
C376 C 0.61425 0.70235 0.41448 0.0
C377 C 0.66699 0.73188 0.4232 0.0
N378 N 0.59791 0.56071 0.40235 0.0
N379 N 0.65802 0.66647 0.41801 0.0
H380 H 0.57045 0.55011 0.90395 0.0
H381 H 0.69407 0.29334 0.94793 0.0
H382 H 0.65172 0.61609 0.92684 0.0
H383 H 0.61355 0.22734 0.93219 0.0
H384 H 0.67864 0.41136 0.93853 0.0
H385 H 0.58566 0.43173 0.91209 0.0
C386 C 0.5915 0.53993 0.91042 0.0
C387 C 0.60972 0.59381 0.91436 0.0
C388 C 0.66435 0.37116 0.93731 0.0
C389 C 0.62732 0.45744 0.92394 0.0
C390 C 0.67313 0.30351 0.94265 0.0
C391 C 0.65519 0.24982 0.94121 0.0
C392 C 0.63731 0.38581 0.93017 0.0
C393 C 0.62829 0.26667 0.93436 0.0
C394 C 0.60015 0.47209 0.91509 0.0
C395 C 0.63674 0.57686 0.92267 0.0
N396 N 0.62019 0.33312 0.929 0.0
N397 N 0.64467 0.51028 0.92727 0.0
H398 H 0.41726 0.20741 0.52605 0.0
H399 H 0.40821 0.56968 0.6269 0.0
H400 H 0.36654 0.24615 0.59934 0.0
H401 H 0.45643 0.53121 0.5498 0.0
H402 H 0.39407 0.45042 0.61955 0.0
H403 H 0.43376 0.32419 0.53783 0.0
C404 C 0.40985 0.23979 0.54514 0.0
C405 C 0.39052 0.21624 0.56192 0.0
C406 C 0.40774 0.46826 0.60424 0.0
C407 C 0.40904 0.35122 0.57482 0.0
C408 C 0.41569 0.53679 0.60814 0.0
C409 C 0.43335 0.56151 0.58851 0.0
C410 C 0.41753 0.42389 0.58066 0.0
C411 C 0.44283 0.51501 0.5656 0.0
C412 C 0.41914 0.30697 0.55155 0.0
C413 C 0.38132 0.2619 0.58556 0.0
N414 N 0.43476 0.44881 0.56224 0.0
N415 N 0.39059 0.32705 0.59122 0.0
H416 H 0.84853 0.23089 0.04274 0.0
H417 H 0.97271 0.97483 0.09563 0.0
H418 H 0.92959 0.29868 0.06596 0.0
H419 H 0.89125 0.9096 0.0712 0.0
H420 H 0.95757 0.09332 0.08581 0.0
H421 H 0.86416 0.11336 0.05354 0.0
C422 C 0.86966 0.22127 0.04997 0.0
C423 C 0.88767 0.27545 0.05317 0.0
C424 C 0.94303 0.05312 0.08285 0.0
C425 C 0.9058 0.1396 0.0658 0.0
C426 C 0.95164 0.98521 0.08848 0.0
C427 C 0.93334 0.93147 0.08464 0.0
C428 C 0.91582 0.06797 0.07305 0.0
C429 C 0.90629 0.9487 0.07536 0.0
C430 C 0.87856 0.1538 0.05613 0.0
C431 C 0.9148 0.25905 0.06245 0.0
N432 N 0.89841 0.01526 0.0698 0.0
N433 N 0.92302 0.19267 0.06852 0.0
H434 H 0.18937 0.22612 0.45046 0.0
H435 H 0.06546 0.97072 0.40107 0.0
H436 H 0.10863 0.29367 0.43175 0.0
H437 H 0.14703 0.90463 0.42694 0.0
H438 H 0.08063 0.08897 0.41111 0.0
H439 H 0.1739 0.10839 0.44118 0.0
C440 C 0.16836 0.21632 0.44459 0.0
C441 C 0.15037 0.27038 0.44215 0.0
C442 C 0.09519 0.04859 0.41438 0.0
C443 C 0.13241 0.13462 0.4312 0.0
C444 C 0.08656 0.98082 0.40862 0.0
C445 C 0.10487 0.92692 0.41266 0.0
C446 C 0.12241 0.06311 0.42443 0.0
C447 C 0.13196 0.94382 0.42251 0.0
C448 C 0.15954 0.14882 0.43931 0.0
C449 C 0.12338 0.254 0.43461 0.0
N450 N 0.13985 0.01025 0.42807 0.0
N451 N 0.11524 0.18764 0.42925 0.0
H452 H 0.06794 0.02176 0.88859 0.0
H453 H 0.19388 0.77187 0.95145 0.0
H454 H 0.14931 0.09118 0.9214 0.0
H455 H 0.11279 0.70097 0.92176 0.0
H456 H 0.17764 0.88865 0.938 0.0
H457 H 0.08382 0.90382 0.89769 0.0
C458 C 0.08915 0.01235 0.89732 0.0
C459 C 0.10723 0.06696 0.90389 0.0
C460 C 0.16338 0.84761 0.93454 0.0
C461 C 0.12557 0.9315 0.91471 0.0
C462 C 0.17263 0.78067 0.9422 0.0
C463 C 0.15477 0.72602 0.93823 0.0
C464 C 0.13597 0.86055 0.92257 0.0
C465 C 0.12745 0.74111 0.92616 0.0
C466 C 0.09818 0.94486 0.90255 0.0
C467 C 0.13448 0.05127 0.91514 0.0
N468 N 0.11892 0.80693 0.91877 0.0
N469 N 0.14277 0.98509 0.92035 0.0
H470 H 0.84688 0.78345 0.56922 0.0
H471 H 0.97131 0.03597 0.6114 0.0
H472 H 0.92697 0.71572 0.58258 0.0
H473 H 0.89003 0.10487 0.58485 0.0
H474 H 0.95584 0.91796 0.60637 0.0
H475 H 0.86286 0.90087 0.58016 0.0
C476 C 0.86784 0.79315 0.5744 0.0
C477 C 0.88548 0.73937 0.57436 0.0
C478 C 0.94142 0.95894 0.60199 0.0
C479 C 0.90396 0.8742 0.58713 0.0
C480 C 0.95023 0.02649 0.6049 0.0
C481 C 0.93205 0.08099 0.59882 0.0
C482 C 0.91416 0.94536 0.59277 0.0
C483 C 0.90497 0.06514 0.59059 0.0
C484 C 0.87693 0.86035 0.58058 0.0
C485 C 0.91244 0.75533 0.58131 0.0
N486 N 0.89688 0.99884 0.58765 0.0
N487 N 0.92082 0.82127 0.58739 0.0
H488 H 0.3206 0.1213 0.96873 0.0
H489 H 0.21709 0.36296 0.03132 0.0
H490 H 0.34124 0.24114 0.07635 0.0
H491 H 0.19643 0.23897 0.92529 0.0
H492 H 0.26249 0.31842 0.04869 0.0
H493 H 0.27525 0.16554 0.9519 0.0
C494 C 0.31573 0.15737 0.98869 0.0
C495 C 0.33492 0.17737 0.02407 0.0
C496 C 0.24798 0.30072 0.02172 0.0
C497 C 0.2827 0.22784 0.00509 0.0
C498 C 0.22196 0.32587 0.01187 0.0
C499 C 0.20276 0.30482 0.97673 0.0
C500 C 0.25499 0.25418 0.99627 0.0
C501 C 0.21045 0.25689 0.95265 0.0
C502 C 0.28972 0.18237 0.97914 0.0
C503 C 0.32721 0.2241 0.04877 0.0
N504 N 0.23591 0.2335 0.96278 0.0
N505 N 0.30175 0.24751 0.03887 0.0
H506 H 0.69461 0.27143 0.42533 0.0
H507 H 0.84464 0.24781 0.56844 0.0
H508 H 0.71993 0.13565 0.52654 0.0
H509 H 0.81898 0.38812 0.46942 0.0
H510 H 0.79942 0.20388 0.55225 0.0
H511 H 0.73995 0.31444 0.44086 0.0
C512 C 0.70962 0.25094 0.45104 0.0
C513 C 0.70331 0.19964 0.47464 0.0
C514 C 0.80368 0.24404 0.53392 0.0
C515 C 0.75557 0.24847 0.49234 0.0
C516 C 0.82959 0.26904 0.54302 0.0
C517 C 0.83575 0.322 0.52031 0.0
C518 C 0.78361 0.2721 0.50187 0.0
C519 C 0.81528 0.34721 0.48774 0.0
C520 C 0.73559 0.27545 0.45979 0.0
C521 C 0.72374 0.17533 0.50756 0.0
N522 N 0.79014 0.32227 0.47964 0.0
N523 N 0.74892 0.19972 0.5153 0.0
H524 H 0.71888 0.87912 0.03377 0.0
H525 H 0.82375 0.64755 0.96792 0.0
H526 H 0.7001 0.77237 0.92172 0.0
H527 H 0.84233 0.75444 0.0799 0.0
H528 H 0.77857 0.69335 0.95027 0.0
H529 H 0.76396 0.83286 0.05139 0.0
C530 C 0.72411 0.84558 0.01293 0.0
C531 C 0.7055 0.8298 0.97612 0.0
C532 C 0.79255 0.70696 0.97866 0.0
C533 C 0.75744 0.77692 0.99611 0.0
C534 C 0.81846 0.68102 0.98873 0.0
C535 C 0.83704 0.69703 0.02552 0.0
C536 C 0.78502 0.74933 0.00551 0.0
C537 C 0.8288 0.74051 0.05123 0.0
C538 C 0.74996 0.81936 0.02299 0.0
C539 C 0.71366 0.78613 0.95041 0.0
N540 N 0.80347 0.76492 0.04078 0.0
N541 N 0.73896 0.76146 0.96084 0.0
H542 H 0.19622 0.75345 0.4204 0.0
H543 H 0.34162 0.73821 0.57901 0.0
H544 H 0.21561 0.63496 0.52887 0.0
H545 H 0.32266 0.85799 0.47103 0.0
H546 H 0.29567 0.6991 0.56058 0.0
H547 H 0.24215 0.79339 0.43866 0.0
C548 C 0.21003 0.7362 0.44823 0.0
C549 C 0.20189 0.6906 0.47309 0.0
C550 C 0.30155 0.73374 0.54082 0.0
C551 C 0.25479 0.73582 0.494 0.0
C552 C 0.32788 0.75598 0.55125 0.0
C553 C 0.33617 0.80162 0.52658 0.0
C554 C 0.28317 0.75724 0.50543 0.0
C555 C 0.3173 0.82269 0.49098 0.0
C556 C 0.23634 0.75888 0.45855 0.0
C557 C 0.22083 0.67013 0.50874 0.0
N558 N 0.29172 0.80055 0.48158 0.0
N559 N 0.24634 0.69264 0.518 0.0
H560 H 0.39472 0.12074 0.87737 0.0
H561 H 0.42196 0.81785 0.74221 0.0
H562 H 0.41065 0.9132 0.91996 0.0
H563 H 0.38751 0.01288 0.69645 0.0
H564 H 0.42253 0.85375 0.80912 0.0
H565 H 0.39699 0.08418 0.81244 0.0
C566 C 0.39879 0.06748 0.87314 0.0
C567 C 0.40231 0.01991 0.90412 0.0
C568 C 0.41481 0.88848 0.78434 0.0
C569 C 0.40497 0.97759 0.82966 0.0
C570 C 0.41448 0.86805 0.74619 0.0
C571 C 0.40446 0.91217 0.71361 0.0
C572 C 0.40534 0.95373 0.78991 0.0
C573 C 0.39521 0.97684 0.72055 0.0
C574 C 0.40001 0.04657 0.83598 0.0
C575 C 0.40761 0.95154 0.89683 0.0
N576 N 0.39592 0.99562 0.75784 0.0
N577 N 0.40877 0.93239 0.86034 0.0
H578 H 0.61521 0.09971 0.60981 0.0
H579 H 0.66264 0.79487 0.76692 0.0
H580 H 0.65414 0.91811 0.58573 0.0
H581 H 0.60802 0.95325 0.77684 0.0
H582 H 0.66114 0.84034 0.70152 0.0
H583 H 0.61395 0.04859 0.67247 0.0
C584 C 0.62352 0.0491 0.61771 0.0
C585 C 0.63492 0.01331 0.59256 0.0
C586 C 0.64938 0.86483 0.71797 0.0
C587 C 0.63361 0.95444 0.66439 0.0
C588 C 0.65024 0.8389 0.75532 0.0
C589 C 0.63557 0.87043 0.77758 0.0
C590 C 0.63393 0.92306 0.70292 0.0
C591 C 0.61978 0.92735 0.76092 0.0
C592 C 0.62271 0.0198 0.65344 0.0
C593 C 0.64519 0.94761 0.60422 0.0
N594 N 0.61955 0.95204 0.7248 0.0
N595 N 0.64445 0.92048 0.6394 0.0
H596 H 0.6488 0.97767 0.30714 0.0
H597 H 0.631 0.09211 0.08293 0.0
H598 H 0.61998 0.1775 0.26166 0.0
H599 H 0.64642 0.88441 0.12544 0.0
H600 H 0.62797 0.12602 0.14814 0.0
H601 H 0.64932 0.94445 0.24097 0.0
C602 C 0.64262 0.01474 0.28323 0.0
C603 C 0.63448 0.0807 0.29005 0.0
C604 C 0.63194 0.07301 0.14313 0.0
C605 C 0.63503 0.04272 0.21387 0.0
C606 C 0.63374 0.05361 0.10595 0.0
C607 C 0.63913 0.98532 0.09876 0.0
C608 C 0.63575 0.02389 0.17345 0.0
C609 C 0.6423 0.93761 0.12961 0.0
C610 C 0.64284 0.99557 0.24534 0.0
C611 C 0.6265 0.12622 0.25776 0.0
N612 N 0.6407 0.95788 0.16561 0.0
N613 N 0.62709 0.10648 0.22107 0.0
H614 H 0.34446 0.96396 0.36663 0.0
H615 H 0.43243 0.12788 0.24116 0.0
H616 H 0.42676 0.01845 0.42001 0.0
H617 H 0.35849 0.0219 0.18872 0.0
H618 H 0.42957 0.09859 0.30745 0.0
H619 H 0.34815 0.99505 0.30162 0.0
C620 C 0.36335 0.98243 0.3647 0.0
C621 C 0.38534 0.98849 0.39886 0.0
C622 C 0.414 0.0819 0.28138 0.0
C623 C 0.38966 0.02471 0.32427 0.0
C624 C 0.41553 0.09891 0.24359 0.0
C625 C 0.39561 0.07745 0.20938 0.0
C626 C 0.39226 0.04388 0.28488 0.0
C627 C 0.3743 0.03945 0.21424 0.0
C628 C 0.36545 1.00009 0.3275 0.0
C629 C 0.40931 0.01274 0.39443 0.0
N630 N 0.37315 0.02415 0.25121 0.0
N631 N 0.41081 0.03026 0.3578 0.0
H632 H 0.85549 0.47779 0.68143 0.0
H633 H 0.92441 0.47082 0.91701 0.0
H634 H 0.92705 0.36321 0.73736 0.0
H635 H 0.84489 0.54539 0.86052 0.0
H636 H 0.92745 0.43752 0.85163 0.0
H637 H 0.85285 0.50887 0.74697 0.0
C638 C 0.87061 0.45887 0.70751 0.0
C639 C 0.8915 0.41768 0.70384 0.0
C640 C 0.90935 0.46112 0.85361 0.0
C641 C 0.8887 0.45371 0.77923 0.0
C642 C 0.90763 0.4804 0.89088 0.0
C643 C 0.88433 0.51089 0.89427 0.0
C644 C 0.88772 0.47301 0.81945 0.0
C645 C 0.86321 0.52188 0.8594 0.0
C646 C 0.86908 0.47667 0.74498 0.0
C647 C 0.91053 0.39483 0.73878 0.0
N648 N 0.86544 0.50313 0.82352 0.0
N649 N 0.90875 0.41343 0.77503 0.0
H650 H 0.19124 0.55272 0.63598 0.0
H651 H 0.1109 0.34569 0.7585 0.0
H652 H 0.11604 0.45485 0.5798 0.0
H653 H 0.18023 0.46871 0.81237 0.0
H654 H 0.11325 0.37941 0.69267 0.0
H655 H 0.18816 0.51756 0.70068 0.0
C656 C 0.17404 0.52381 0.63722 0.0
C657 C 0.1539 0.50665 0.60233 0.0
C658 C 0.12795 0.39884 0.71893 0.0
C659 C 0.15029 0.46569 0.67667 0.0
C660 C 0.1267 0.37937 0.75652 0.0
C661 C 0.14542 0.40433 0.79107 0.0
C662 C 0.14817 0.44319 0.71589 0.0
C663 C 0.16536 0.44817 0.78665 0.0
C664 C 0.17228 0.50374 0.67427 0.0
C665 C 0.13203 0.46928 0.60592 0.0
N666 N 0.1662 0.46607 0.74986 0.0
N667 N 0.13085 0.44982 0.64243 0.0
H668 H 0.1038 0.6408 0.25538 0.0
H669 H 0.19502 0.48218 0.13324 0.0
H670 H 0.17869 0.53908 0.30934 0.0
H671 H 0.11264 0.53439 0.07748 0.0
H672 H 0.19029 0.51316 0.19755 0.0
H673 H 0.10755 0.61255 0.18945 0.0
C674 C 0.12108 0.61297 0.25337 0.0
C675 C 0.14101 0.59243 0.28791 0.0
C676 C 0.17319 0.51779 0.17131 0.0
C677 C 0.1454 0.5601 0.21283 0.0
C678 C 0.1759 0.5002 0.13448 0.0
C679 C 0.15419 0.50553 0.09985 0.0
C680 C 0.14865 0.54157 0.17373 0.0
C681 C 0.12989 0.52926 0.10344 0.0
C682 C 0.12313 0.59657 0.21578 0.0
C683 C 0.16283 0.55589 0.28358 0.0
N684 N 0.12779 0.54663 0.13973 0.0
N685 N 0.16447 0.54118 0.24683 0.0
H686 H 0.88085 0.73375 0.23454 0.0
H687 H 0.92163 0.42387 0.38903 0.0
H688 H 0.93379 0.57111 0.22466 0.0
H689 H 0.88767 0.61179 0.41553 0.0
H690 H 0.92442 0.47497 0.32714 0.0
H691 H 0.88147 0.68853 0.29961 0.0
C692 C 0.89273 0.68884 0.2461 0.0
C693 C 0.90718 0.65609 0.22393 0.0
C694 C 0.91645 0.50515 0.34655 0.0
C695 C 0.90775 0.60365 0.29822 0.0
C696 C 0.91474 0.47588 0.38183 0.0
C697 C 0.90426 0.51345 0.40743 0.0
C698 C 0.90731 0.57227 0.33644 0.0
C699 C 0.89585 0.5809 0.39667 0.0
C700 C 0.89308 0.66308 0.28327 0.0
C701 C 0.92226 0.59806 0.24054 0.0
N702 N 0.89736 0.60795 0.36186 0.0
N703 N 0.92197 0.57344 0.27646 0.0
H704 H 0.45369 0.0905 0.00917 0.0
H705 H 0.58825 0.91838 0.99603 0.0
H706 H 0.47916 0.88747 0.05195 0.0
H707 H 0.56349 0.1228 0.95537 0.0
H708 H 0.54997 0.90867 0.02076 0.0
H709 H 0.4926 0.101 0.98593 0.0
C710 C 0.4668 0.04687 0.01203 0.0
C711 C 0.46319 0.98793 0.03252 0.0
C712 C 0.55318 0.95628 0.0072 0.0
C713 C 0.50854 1.00097 0.00799 0.0
C714 C 0.57551 0.96253 0.99407 0.0
C715 C 0.57904 0.02156 0.97359 0.0
C716 C 0.53432 0.00939 -0.00031 0.0
C717 C 0.56147 0.07649 0.97109 0.0
C718 C 0.48944 0.05358 -0.00028 0.0
C719 C 0.48121 0.93368 0.03618 0.0
N720 N 0.53957 0.06863 0.98318 0.0
N721 N 0.50335 0.94191 0.02472 0.0
H722 H 0.58255 0.10849 0.49321 0.0
H723 H 0.45548 0.90171 0.5083 0.0
H724 H 0.56381 0.90339 0.44966 0.0
H725 H 0.47827 0.09857 0.5624 0.0
H726 H 0.49301 0.90609 0.48144 0.0
H727 H 0.54545 0.10515 0.52083 0.0
C728 C 0.57156 0.06128 0.49147 0.0
C729 C 0.57653 0.00562 0.46979 0.0
C730 C 0.48951 0.94903 0.49852 0.0
C731 C 0.53278 0.00323 0.49852 0.0
C732 C 0.46762 0.94738 0.51289 0.0
C733 C 0.46378 1.00001 0.53748 0.0
C734 C 0.50755 0.00374 0.50885 0.0
C735 C 0.48056 0.05713 0.54339 0.0
C736 C 0.5498 0.06014 0.50611 0.0
C737 C 0.56079 0.94697 0.46669 0.0
N738 N 0.50199 0.05703 0.52977 0.0
N739 N 0.53931 0.9477 0.4802 0.0
H740 H 0.97756 0.3981 0.0498 0.0
H741 H 0.06333 0.61048 0.93925 0.0
H742 H 0.95822 0.60455 0.00793 0.0
H743 H 0.08636 0.4137 0.99392 0.0
H744 H 0.02618 0.61329 0.96696 0.0
H745 H 1.01618 0.40124 0.02554 0.0
C746 C 0.98087 0.44313 0.03399 0.0
C747 C 0.96464 0.501 0.03075 0.0
C748 C 0.03975 0.57027 0.97383 0.0
C749 C 1.00954 0.50639 0.00466 0.0
C750 C 0.06137 0.56951 0.9589 0.0
C751 C 0.07796 0.51189 0.96441 0.0
C752 C 0.03466 0.51269 0.99419 0.0
C753 C 0.07423 0.45947 0.98932 0.0
C754 C 1.00328 0.44555 0.02102 0.0
C755 C 0.97004 0.55849 0.01063 0.0
N756 N 0.05258 0.46032 0.00251 0.0
N757 N 0.99229 0.56013 0.99886 0.0
H758 H 0.06 0.39753 0.44587 0.0
H759 H 0.97431 0.62214 0.55107 0.0
H760 H 0.08084 0.60339 0.4868 0.0
H761 H 0.95289 0.41942 0.50543 0.0
H762 H 1.01133 0.62094 0.523 0.0
H763 H 0.02117 0.40412 0.46947 0.0
C764 C 0.05693 0.44317 0.46129 0.0
C765 C 0.07367 0.49984 0.4645 0.0
C766 C 0.99806 0.57748 0.51804 0.0
C767 C 0.02856 0.50922 0.48981 0.0
C768 C 0.97649 0.57898 0.5331 0.0
C769 C 0.96029 0.52121 0.53005 0.0
C770 C 1.00348 0.5175 0.50008 0.0
C771 C 0.96444 0.46571 0.50756 0.0
C772 C 0.03443 0.44756 0.47392 0.0
C773 C 0.0686 0.5582 0.48412 0.0
N774 N 0.98597 0.46459 0.49418 0.0
N775 N 0.04624 0.5618 0.49551 0.0
loop_
_geom_bond_atom_site_label_1
_geom_bond_atom_site_label_2
_geom_bond_distance
_geom_bond_site_symmetry_2
_ccdc_geom_bond_type
Zn0 N4 2.020 . S
Zn0 O8 2.019 . S
Zn0 N10 2.119 . S
Zn0 O18 1.975 . S
C1 N2 1.334 . S
C1 N5 1.336 . S
N2 C1 1.334 . S
N2 C3 1.334 . S
C3 N2 1.334 . S
C3 N4 1.336 . S
N4 Zn0 2.020 . S
N4 C3 1.336 . S
N4 N5 1.354 . S
N5 C1 1.336 . S
N5 N4 1.354 . S
N5 Zn9 2.020 . S
C6 O7 1.244 . S
C6 O30 1.257 . S
O7 C6 1.244 . S
O8 Zn0 2.019 . S
O8 C28 1.257 . S
Zn9 N5 2.020 . S
Zn9 O16 1.975 . S
Zn9 N25 2.119 1_545 S
Zn9 O30 2.019 1_554 S
N10 Zn0 2.119 . S
N10 C12 1.334 . S
N10 C13 1.328 . S
C11 C12 1.391 . S
C11 N14 1.329 . S
C11 H32 0.930 . S
C12 N10 1.334 . S
C12 C11 1.391 . S
C12 H19 0.930 . S
C13 N10 1.328 . S
C13 C15 1.392 . S
C13 H20 0.930 . S
N14 C11 1.329 . S
N14 C15 1.331 . S
C15 C13 1.392 . S
C15 N14 1.331 . S
O16 Zn9 1.975 . S
O16 C17 1.252 . S
C17 O16 1.252 . S
C17 O18 1.252 . S
O18 Zn0 1.975 . S
O18 C17 1.252 . S
H19 C12 0.930 . S
H20 C13 0.930 . S
C21 C22 1.392 . S
C21 N25 1.328 . S
C21 H27 0.930 1_554 S
C22 C21 1.392 . S
C22 N26 1.331 . S
C23 C24 1.391 . S
C23 N26 1.329 . S
C23 H33 0.930 . S
C24 C23 1.391 . S
C24 N25 1.334 . S
C24 H31 0.930 . S
N25 Zn9 2.119 1_565 S
N25 C21 1.328 . S
N25 C24 1.334 . S
N26 C22 1.331 . S
N26 C23 1.329 . S
H27 C21 0.930 1_556 S
C28 O8 1.257 . S
C28 O29 1.244 . S
O29 C28 1.244 . S
O30 C6 1.257 . S
O30 Zn9 2.019 1_556 S
H31 C24 0.930 . S
H32 C11 0.930 . S
H33 C23 0.930 . S
Zn34 N38 2.020 . S
Zn34 O42 2.019 . S
Zn34 N44 2.119 1_545 S
Zn34 O52 1.975 . S
C35 N36 1.334 . S
C35 N39 1.336 . S
N36 C35 1.334 . S
N36 C37 1.334 . S
C37 N36 1.334 . S
C37 N38 1.336 . S
N38 Zn34 2.020 . S
N38 C37 1.336 . S
N38 N39 1.354 . S
N39 C35 1.336 . S
N39 N38 1.354 . S
N39 Zn43 2.020 . S
C40 O41 1.244 . S
C40 O64 1.257 . S
O41 C40 1.244 . S
O42 Zn34 2.019 . S
O42 C62 1.257 . S
Zn43 N39 2.020 . S
Zn43 O50 1.975 . S
Zn43 N59 2.119 . S
Zn43 O64 2.019 . S
N44 Zn34 2.119 1_565 S
N44 C46 1.334 . S
N44 C47 1.328 . S
C45 C46 1.391 . S
C45 N48 1.329 . S
C45 H66 0.930 . S
C46 N44 1.334 . S
C46 C45 1.391 . S
C46 H53 0.930 . S
C47 N44 1.328 . S
C47 C49 1.392 . S
C47 H54 0.930 . S
N48 C45 1.329 . S
N48 C49 1.331 . S
C49 C47 1.392 . S
C49 N48 1.331 . S
O50 Zn43 1.975 . S
O50 C51 1.252 . S
C51 O50 1.252 . S
C51 O52 1.252 . S
O52 Zn34 1.975 . S
O52 C51 1.252 . S
H53 C46 0.930 . S
H54 C47 0.930 . S
C55 C56 1.392 . S
C55 N59 1.328 . S
C55 H61 0.930 . S
C56 C55 1.392 . S
C56 N60 1.331 . S
C57 C58 1.391 . S
C57 N60 1.329 . S
C57 H67 0.930 . S
C58 C57 1.391 . S
C58 N59 1.334 . S
C58 H65 0.930 . S
N59 Zn43 2.119 . S
N59 C55 1.328 . S
N59 C58 1.334 . S
N60 C56 1.331 . S
N60 C57 1.329 . S
H61 C55 0.930 . S
C62 O42 1.257 . S
C62 O63 1.244 . S
O63 C62 1.244 . S
O64 C40 1.257 . S
O64 Zn43 2.019 . S
H65 C58 0.930 . S
H66 C45 0.930 . S
H67 C57 0.930 . S
Zn68 N72 2.020 . S
Zn68 O76 2.019 . S
Zn68 N78 2.119 . S
Zn68 O86 1.975 . S
C69 N70 1.334 . S
C69 N73 1.336 . S
N70 C69 1.334 . S
N70 C71 1.334 . S
C71 N70 1.334 . S
C71 N72 1.336 . S
N72 Zn68 2.020 . S
N72 C71 1.336 . S
N72 N73 1.354 . S
N73 C69 1.336 . S
N73 N72 1.354 . S
N73 Zn77 2.020 . S
C74 O75 1.244 . S
C74 O98 1.257 . S
O75 C74 1.244 . S
O76 Zn68 2.019 . S
O76 C96 1.257 . S
Zn77 N73 2.020 . S
Zn77 O84 1.975 . S
Zn77 N93 2.119 1_565 S
Zn77 O98 2.019 1_556 S
N78 Zn68 2.119 . S
N78 C80 1.334 . S
N78 C81 1.328 . S
C79 C80 1.391 . S
C79 N82 1.329 . S
C79 H100 0.930 . S
C80 N78 1.334 . S
C80 C79 1.391 . S
C80 H87 0.930 . S
C81 N78 1.328 . S
C81 C83 1.392 . S
C81 H88 0.930 . S
N82 C79 1.329 . S
N82 C83 1.331 . S
C83 C81 1.392 . S
C83 N82 1.331 . S
O84 Zn77 1.975 . S
O84 C85 1.252 . S
C85 O84 1.252 . S
C85 O86 1.252 . S
O86 Zn68 1.975 . S
O86 C85 1.252 . S
H87 C80 0.930 . S
H88 C81 0.930 . S
C89 C90 1.392 . S
C89 N93 1.328 . S
C89 H95 0.930 1_556 S
C90 C89 1.392 . S
C90 N94 1.331 . S
C91 C92 1.391 . S
C91 N94 1.329 . S
C91 H101 0.930 . S
C92 C91 1.391 . S
C92 N93 1.334 . S
C92 H99 0.930 . S
N93 Zn77 2.119 1_545 S
N93 C89 1.328 . S
N93 C92 1.334 . S
N94 C90 1.331 . S
N94 C91 1.329 . S
H95 C89 0.930 1_554 S
C96 O76 1.257 . S
C96 O97 1.244 . S
O97 C96 1.244 . S
O98 C74 1.257 . S
O98 Zn77 2.019 1_554 S
H99 C92 0.930 . S
H100 C79 0.930 . S
H101 C91 0.930 . S
Zn102 N106 2.020 . S
Zn102 O110 2.019 . S
Zn102 N112 2.119 . S
Zn102 O120 1.975 . S
C103 N104 1.334 . S
C103 N107 1.336 . S
N104 C103 1.334 . S
N104 C105 1.334 . S
C105 N104 1.334 . S
C105 N106 1.336 . S
N106 Zn102 2.020 . S
N106 C105 1.336 . S
N106 N107 1.354 . S
N107 C103 1.336 . S
N107 N106 1.354 . S
N107 Zn111 2.020 . S
C108 O109 1.244 . S
C108 O132 1.257 . S
O109 C108 1.244 . S
O110 Zn102 2.019 . S
O110 C130 1.257 . S
Zn111 N107 2.020 . S
Zn111 O118 1.975 . S
Zn111 N127 2.119 1_565 S
Zn111 O132 2.019 . S
N112 Zn102 2.119 . S
N112 C114 1.334 . S
N112 C115 1.328 . S
C113 C114 1.391 . S
C113 N116 1.329 . S
C113 H134 0.930 . S
C114 N112 1.334 . S
C114 C113 1.391 . S
C114 H121 0.930 . S
C115 N112 1.328 . S
C115 C117 1.392 . S
C115 H122 0.930 . S
N116 C113 1.329 . S
N116 C117 1.331 . S
C117 C115 1.392 . S
C117 N116 1.331 . S
O118 Zn111 1.975 . S
O118 C119 1.252 . S
C119 O118 1.252 . S
C119 O120 1.252 . S
O120 Zn102 1.975 . S
O120 C119 1.252 . S
H121 C114 0.930 . S
H122 C115 0.930 . S
C123 C124 1.392 . S
C123 N127 1.328 . S
C123 H129 0.930 . S
C124 C123 1.392 . S
C124 N128 1.331 . S
C125 C126 1.391 . S
C125 N128 1.329 . S
C125 H135 0.930 . S
C126 C125 1.391 . S
C126 N127 1.334 . S
C126 H133 0.930 . S
N127 Zn111 2.119 1_545 S
N127 C123 1.328 . S
N127 C126 1.334 . S
N128 C124 1.331 . S
N128 C125 1.329 . S
H129 C123 0.930 . S
C130 O110 1.257 . S
C130 O131 1.244 . S
O131 C130 1.244 . S
O132 C108 1.257 . S
O132 Zn111 2.019 . S
H133 C126 0.930 . S
H134 C113 0.930 . S
H135 C125 0.930 . S
Zn136 N140 2.020 . S
Zn136 O144 2.019 . S
Zn136 N146 2.119 . S
Zn136 O154 1.975 . S
C137 N138 1.334 . S
C137 N141 1.336 . S
N138 C137 1.334 . S
N138 C139 1.334 . S
C139 N138 1.334 . S
C139 N140 1.336 . S
N140 Zn136 2.020 . S
N140 C139 1.336 . S
N140 N141 1.354 . S
N141 C137 1.336 . S
N141 N140 1.354 . S
N141 Zn145 2.020 . S
C142 O143 1.244 . S
C142 O166 1.257 . S
O143 C142 1.244 . S
O144 Zn136 2.019 . S
O144 C164 1.257 . S
Zn145 N141 2.020 . S
Zn145 O152 1.975 . S
Zn145 N161 2.119 . S
Zn145 O166 2.019 1_554 S
N146 Zn136 2.119 . S
N146 C148 1.334 . S
N146 C149 1.328 . S
C147 C148 1.391 . S
C147 N150 1.329 . S
C147 H168 0.930 . S
C148 N146 1.334 . S
C148 C147 1.391 . S
C148 H155 0.930 . S
C149 N146 1.328 . S
C149 C151 1.392 . S
C149 H156 0.930 . S
N150 C147 1.329 . S
N150 C151 1.331 . S
C151 C149 1.392 . S
C151 N150 1.331 . S
O152 Zn145 1.975 . S
O152 C153 1.252 . S
C153 O152 1.252 . S
C153 O154 1.252 . S
O154 Zn136 1.975 . S
O154 C153 1.252 . S
H155 C148 0.930 . S
H156 C149 0.930 . S
C157 C158 1.392 . S
C157 N161 1.328 . S
C157 H163 0.930 1_554 S
C158 C157 1.392 . S
C158 N162 1.331 . S
C159 C160 1.391 . S
C159 N162 1.329 . S
C159 H169 0.930 . S
C160 C159 1.391 . S
C160 N161 1.334 . S
C160 H167 0.930 . S
N161 Zn145 2.119 . S
N161 C157 1.328 . S
N161 C160 1.334 . S
N162 C158 1.331 . S
N162 C159 1.329 . S
H163 C157 0.930 1_556 S
C164 O144 1.257 . S
C164 O165 1.244 . S
O165 C164 1.244 . S
O166 C142 1.257 . S
O166 Zn145 2.019 1_556 S
H167 C160 0.930 . S
H168 C147 0.930 . S
H169 C159 0.930 . S
Zn170 N174 2.020 . S
Zn170 O178 2.019 . S
Zn170 N180 2.119 . S
Zn170 O188 1.975 . S
C171 N172 1.334 . S
C171 N175 1.336 . S
N172 C171 1.334 . S
N172 C173 1.334 . S
C173 N172 1.334 . S
C173 N174 1.336 . S
N174 Zn170 2.020 . S
N174 C173 1.336 . S
N174 N175 1.354 . S
N175 C171 1.336 . S
N175 N174 1.354 . S
N175 Zn179 2.020 . S
C176 O177 1.244 . S
C176 O200 1.257 . S
O177 C176 1.244 . S
O178 Zn170 2.019 . S
O178 C198 1.257 . S
Zn179 N175 2.020 . S
Zn179 O186 1.975 . S
Zn179 N195 2.119 . S
Zn179 O200 2.019 . S
N180 Zn170 2.119 . S
N180 C182 1.334 . S
N180 C183 1.328 . S
C181 C182 1.391 . S
C181 N184 1.329 . S
C181 H202 0.930 . S
C182 N180 1.334 . S
C182 C181 1.391 . S
C182 H189 0.930 . S
C183 N180 1.328 . S
C183 C185 1.392 . S
C183 H190 0.930 . S
N184 C181 1.329 . S
N184 C185 1.331 . S
C185 C183 1.392 . S
C185 N184 1.331 . S
O186 Zn179 1.975 . S
O186 C187 1.252 . S
C187 O186 1.252 . S
C187 O188 1.252 . S
O188 Zn170 1.975 . S
O188 C187 1.252 . S
H189 C182 0.930 . S
H190 C183 0.930 . S
C191 C192 1.392 . S
C191 N195 1.328 . S
C191 H197 0.930 . S
C192 C191 1.392 . S
C192 N196 1.331 . S
C193 C194 1.391 . S
C193 N196 1.329 . S
C193 H203 0.930 . S
C194 C193 1.391 . S
C194 N195 1.334 . S
C194 H201 0.930 . S
N195 Zn179 2.119 . S
N195 C191 1.328 . S
N195 C194 1.334 . S
N196 C192 1.331 . S
N196 C193 1.329 . S
H197 C191 0.930 . S
C198 O178 1.257 . S
C198 O199 1.244 . S
O199 C198 1.244 . S
O200 C176 1.257 . S
O200 Zn179 2.019 . S
H201 C194 0.930 . S
H202 C181 0.930 . S
H203 C193 0.930 . S
Zn204 N208 2.020 . S
Zn204 O212 2.019 . S
Zn204 N214 2.119 . S
Zn204 O222 1.975 . S
C205 N206 1.334 . S
C205 N209 1.336 . S
N206 C205 1.334 . S
N206 C207 1.334 . S
C207 N206 1.334 . S
C207 N208 1.336 . S
N208 Zn204 2.020 . S
N208 C207 1.336 . S
N208 N209 1.354 . S
N209 C205 1.336 . S
N209 N208 1.354 . S
N209 Zn213 2.020 . S
C210 O211 1.244 . S
C210 O234 1.257 . S
O211 C210 1.244 . S
O212 Zn204 2.019 . S
O212 C232 1.257 . S
Zn213 N209 2.020 . S
Zn213 O220 1.975 . S
Zn213 N229 2.119 . S
Zn213 O234 2.019 1_556 S
N214 Zn204 2.119 . S
N214 C216 1.334 . S
N214 C217 1.328 . S
C215 C216 1.391 . S
C215 N218 1.329 . S
C215 H236 0.930 . S
C216 N214 1.334 . S
C216 C215 1.391 . S
C216 H223 0.930 . S
C217 N214 1.328 . S
C217 C219 1.392 . S
C217 H224 0.930 . S
N218 C215 1.329 . S
N218 C219 1.331 . S
C219 C217 1.392 . S
C219 N218 1.331 . S
O220 Zn213 1.975 . S
O220 C221 1.252 . S
C221 O220 1.252 . S
C221 O222 1.252 . S
O222 Zn204 1.975 . S
O222 C221 1.252 . S
H223 C216 0.930 . S
H224 C217 0.930 . S
C225 C226 1.392 . S
C225 N229 1.328 . S
C225 H231 0.930 1_556 S
C226 C225 1.392 . S
C226 N230 1.331 . S
C227 C228 1.391 . S
C227 N230 1.329 . S
C227 H237 0.930 . S
C228 C227 1.391 . S
C228 N229 1.334 . S
C228 H235 0.930 . S
N229 Zn213 2.119 . S
N229 C225 1.328 . S
N229 C228 1.334 . S
N230 C226 1.331 . S
N230 C227 1.329 . S
H231 C225 0.930 1_554 S
C232 O212 1.257 . S
C232 O233 1.244 . S
O233 C232 1.244 . S
O234 C210 1.257 . S
O234 Zn213 2.019 1_554 S
H235 C228 0.930 . S
H236 C215 0.930 . S
H237 C227 0.930 . S
Zn238 N242 2.020 . S
Zn238 O246 2.019 . S
Zn238 N248 2.119 . S
Zn238 O256 1.975 . S
C239 N240 1.334 . S
C239 N243 1.336 . S
N240 C239 1.334 . S
N240 C241 1.334 . S
C241 N240 1.334 . S
C241 N242 1.336 . S
N242 Zn238 2.020 . S
N242 C241 1.336 . S
N242 N243 1.354 . S
N243 C239 1.336 . S
N243 N242 1.354 . S
N243 Zn247 2.020 . S
C244 O245 1.244 . S
C244 O268 1.257 . S
O245 C244 1.244 . S
O246 Zn238 2.019 . S
O246 C266 1.257 . S
Zn247 N243 2.020 . S
Zn247 O254 1.975 . S
Zn247 N263 2.119 . S
Zn247 O268 2.019 . S
N248 Zn238 2.119 . S
N248 C250 1.334 . S
N248 C251 1.328 . S
C249 C250 1.391 . S
C249 N252 1.329 . S
C249 H270 0.930 . S
C250 N248 1.334 . S
C250 C249 1.391 . S
C250 H257 0.930 . S
C251 N248 1.328 . S
C251 C253 1.392 . S
C251 H258 0.930 . S
N252 C249 1.329 . S
N252 C253 1.331 . S
C253 C251 1.392 . S
C253 N252 1.331 . S
O254 Zn247 1.975 . S
O254 C255 1.252 . S
C255 O254 1.252 . S
C255 O256 1.252 . S
O256 Zn238 1.975 . S
O256 C255 1.252 . S
H257 C250 0.930 . S
H258 C251 0.930 . S
C259 C260 1.392 . S
C259 N263 1.328 . S
C259 H265 0.930 . S
C260 C259 1.392 . S
C260 N264 1.331 . S
C261 C262 1.391 . S
C261 N264 1.329 . S
C261 H271 0.930 . S
C262 C261 1.391 . S
C262 N263 1.334 . S
C262 H269 0.930 . S
N263 Zn247 2.119 . S
N263 C259 1.328 . S
N263 C262 1.334 . S
N264 C260 1.331 . S
N264 C261 1.329 . S
H265 C259 0.930 . S
C266 O246 1.257 . S
C266 O267 1.244 . S
O267 C266 1.244 . S
O268 C244 1.257 . S
O268 Zn247 2.019 . S
H269 C262 0.930 . S
H270 C249 0.930 . S
H271 C261 0.930 . S
H272 C278 0.930 . S
H273 C282 0.930 . S
H274 C287 0.929 . S
H275 C285 0.929 . S
H276 C280 0.929 . S
H277 C286 0.929 . S
C278 H272 0.930 . S
C278 C279 1.367 . S
C278 C286 1.378 . S
C279 C278 1.367 . S
C279 C287 1.433 . S
C280 H276 0.929 . S
C280 C282 1.378 . S
C280 C284 1.350 . S
C281 C284 1.463 . S
C281 C286 1.350 . S
C281 N289 1.427 . S
C282 H273 0.930 . S
C282 C280 1.378 . S
C282 C283 1.367 . S
C283 C282 1.367 . S
C283 C285 1.433 . S
C284 C280 1.350 . S
C284 C281 1.463 . S
C284 N288 1.427 . S
C285 H275 0.929 . S
C285 C283 1.433 . S
C285 N288 1.384 . S
C286 H277 0.929 . S
C286 C278 1.378 . S
C286 C281 1.350 . S
C287 H274 0.929 . S
C287 C279 1.433 . S
C287 N289 1.384 . S
N288 C284 1.427 . S
N288 C285 1.384 . S
N289 C281 1.427 . S
N289 C287 1.384 . S
H290 C296 0.930 . S
H291 C300 0.930 . S
H292 C305 0.929 . S
H293 C303 0.929 . S
H294 C298 0.929 . S
H295 C304 0.929 . S
C296 H290 0.930 . S
C296 C297 1.367 . S
C296 C304 1.378 . S
C297 C296 1.367 . S
C297 C305 1.433 . S
C298 H294 0.929 . S
C298 C300 1.378 . S
C298 C302 1.350 . S
C299 C302 1.463 . S
C299 C304 1.350 . S
C299 N307 1.427 . S
C300 H291 0.930 . S
C300 C298 1.378 . S
C300 C301 1.367 . S
C301 C300 1.367 . S
C301 C303 1.433 . S
C302 C298 1.350 . S
C302 C299 1.463 . S
C302 N306 1.427 . S
C303 H293 0.929 . S
C303 C301 1.433 . S
C303 N306 1.384 . S
C304 H295 0.929 . S
C304 C296 1.378 . S
C304 C299 1.350 . S
C305 H292 0.929 . S
C305 C297 1.433 . S
C305 N307 1.384 . S
N306 C302 1.427 . S
N306 C303 1.384 . S
N307 C299 1.427 . S
N307 C305 1.384 . S
H308 C314 0.930 . S
H309 C318 0.930 . S
H310 C323 0.929 . S
H311 C321 0.929 . S
H312 C316 0.929 . S
H313 C322 0.929 . S
C314 H308 0.930 . S
C314 C315 1.367 . S
C314 C322 1.378 . S
C315 C314 1.367 . S
C315 C323 1.433 . S
C316 H312 0.929 . S
C316 C318 1.378 . S
C316 C320 1.350 . S
C317 C320 1.463 1_655 S
C317 C322 1.350 . S
C317 N325 1.427 . S
C318 H309 0.930 . S
C318 C316 1.378 . S
C318 C319 1.367 . S
C319 C318 1.367 . S
C319 C321 1.433 . S
C320 C316 1.350 . S
C320 C317 1.463 1_455 S
C320 N324 1.427 . S
C321 H311 0.929 . S
C321 C319 1.433 . S
C321 N324 1.384 . S
C322 H313 0.929 . S
C322 C314 1.378 . S
C322 C317 1.350 . S
C323 H310 0.929 . S
C323 C315 1.433 . S
C323 N325 1.384 . S
N324 C320 1.427 . S
N324 C321 1.384 . S
N325 C317 1.427 . S
N325 C323 1.384 . S
H326 C332 0.930 . S
H327 C336 0.930 . S
H328 C341 0.929 . S
H329 C339 0.929 . S
H330 C334 0.929 1_455 S
H331 C340 0.929 1_655 S
C332 H326 0.930 . S
C332 C333 1.367 . S
C332 C340 1.378 . S
C333 C332 1.367 . S
C333 C341 1.433 . S
C334 H330 0.929 1_655 S
C334 C336 1.378 . S
C334 C338 1.350 . S
C335 C338 1.463 1_455 S
C335 C340 1.350 . S
C335 N343 1.427 . S
C336 H327 0.930 . S
C336 C334 1.378 . S
C336 C337 1.367 . S
C337 C336 1.367 . S
C337 C339 1.433 . S
C338 C334 1.350 . S
C338 C335 1.463 1_655 S
C338 N342 1.427 . S
C339 H329 0.929 . S
C339 C337 1.433 . S
C339 N342 1.384 . S
C340 H331 0.929 1_455 S
C340 C332 1.378 . S
C340 C335 1.350 . S
C341 H328 0.929 . S
C341 C333 1.433 . S
C341 N343 1.384 . S
N342 C338 1.427 . S
N342 C339 1.384 . S
N343 C335 1.427 . S
N343 C341 1.384 . S
H344 C350 0.930 . S
H345 C354 0.930 . S
H346 C359 0.919 1_556 S
H347 C357 0.929 . S
H348 C352 0.929 . S
H349 C358 0.929 . S
C350 H344 0.930 . S
C350 C351 1.367 . S
C350 C358 1.378 . S
C351 C350 1.367 . S
C351 C359 1.440 . S
C352 H348 0.929 . S
C352 C354 1.378 . S
C352 C356 1.350 . S
C353 C356 1.463 . S
C353 C358 1.350 . S
C353 N361 1.427 . S
C354 H345 0.930 . S
C354 C352 1.378 . S
C354 C355 1.367 . S
C355 C354 1.367 . S
C355 C357 1.433 . S
C356 C352 1.350 . S
C356 C353 1.463 . S
C356 N360 1.427 . S
C357 H347 0.929 . S
C357 C355 1.433 . S
C357 N360 1.384 . S
C358 H349 0.929 . S
C358 C350 1.378 . S
C358 C353 1.350 . S
C359 H346 0.919 1_554 S
C359 C351 1.440 . S
C359 N361 1.388 . S
N360 C356 1.427 . S
N360 C357 1.384 . S
N361 C353 1.427 . S
N361 C359 1.388 . S
H362 C368 0.930 . S
H363 C372 0.930 . S
H364 C377 0.929 . S
H365 C375 0.929 . S
H366 C370 0.929 . S
H367 C376 0.929 . S
C368 H362 0.930 . S
C368 C369 1.367 . S
C368 C376 1.378 . S
C369 C368 1.367 . S
C369 C377 1.433 . S
C370 H366 0.929 . S
C370 C372 1.378 . S
C370 C374 1.350 . S
C371 C374 1.463 . S
C371 C376 1.350 . S
C371 N379 1.427 . S
C372 H363 0.930 . S
C372 C370 1.378 . S
C372 C373 1.367 . S
C373 C372 1.367 . S
C373 C375 1.433 . S
C374 C370 1.350 . S
C374 C371 1.463 . S
C374 N378 1.427 . S
C375 H365 0.929 . S
C375 C373 1.433 . S
C375 N378 1.384 . S
C376 H367 0.929 . S
C376 C368 1.378 . S
C376 C371 1.350 . S
C377 H364 0.929 . S
C377 C369 1.433 . S
C377 N379 1.384 . S
N378 C374 1.427 . S
N378 C375 1.384 . S
N379 C371 1.427 . S
N379 C377 1.384 . S
H380 C386 0.930 . S
H381 C390 0.930 . S
H382 C395 0.929 . S
H383 C393 0.929 . S
H384 C388 0.924 1_554 S
H385 C394 0.929 . S
C386 H380 0.930 . S
C386 C387 1.367 . S
C386 C394 1.378 . S
C387 C386 1.367 . S
C387 C395 1.433 . S
C388 H384 0.924 1_556 S
C388 C390 1.378 1_556 S
C388 C392 1.350 . S
C389 C392 1.463 . S
C389 C394 1.350 . S
C389 N397 1.427 . S
C390 H381 0.930 . S
C390 C388 1.378 1_554 S
C390 C391 1.367 1_554 S
C391 C390 1.367 1_556 S
C391 C393 1.433 . S
C392 C388 1.350 . S
C392 C389 1.463 . S
C392 N396 1.427 . S
C393 H383 0.929 . S
C393 C391 1.433 . S
C393 N396 1.384 . S
C394 H385 0.929 . S
C394 C386 1.378 . S
C394 C389 1.350 . S
C395 H382 0.929 . S
C395 C387 1.433 . S
C395 N397 1.384 . S
N396 C392 1.427 . S
N396 C393 1.384 . S
N397 C389 1.427 . S
N397 C395 1.384 . S
H398 C404 0.930 . S
H399 C408 0.930 . S
H400 C413 0.929 . S
H401 C411 0.929 . S
H402 C406 0.929 . S
H403 C412 0.929 . S
C404 H398 0.930 . S
C404 C405 1.367 . S
C404 C412 1.378 . S
C405 C404 1.367 . S
C405 C413 1.433 . S
C406 H402 0.929 . S
C406 C408 1.378 . S
C406 C410 1.350 . S
C407 C410 1.463 . S
C407 C412 1.350 . S
C407 N415 1.427 . S
C408 H399 0.930 . S
C408 C406 1.378 . S
C408 C409 1.367 . S
C409 C408 1.367 . S
C409 C411 1.433 . S
C410 C406 1.350 . S
C410 C407 1.463 . S
C410 N414 1.427 . S
C411 H401 0.929 . S
C411 C409 1.433 . S
C411 N414 1.384 . S
C412 H403 0.929 . S
C412 C404 1.378 . S
C412 C407 1.350 . S
C413 H400 0.929 . S
C413 C405 1.433 . S
C413 N415 1.384 . S
N414 C410 1.427 . S
N414 C411 1.384 . S
N415 C407 1.427 . S
N415 C413 1.384 . S
H416 C422 0.930 . S
H417 C426 0.930 . S
H418 C431 0.929 1_556 S
H419 C429 0.929 . S
H420 C424 0.929 . S
H421 C430 0.929 . S
C422 H416 0.930 . S
C422 C423 1.367 . S
C422 C430 1.378 . S
C423 C422 1.367 . S
C423 C431 1.433 . S
C424 H420 0.929 . S
C424 C426 1.378 1_545 S
C424 C428 1.350 . S
C425 C428 1.463 . S
C425 C430 1.350 . S
C425 N433 1.427 . S
C426 H417 0.930 . S
C426 C424 1.378 1_565 S
C426 C427 1.367 . S
C427 C426 1.367 . S
C427 C429 1.433 . S
C428 C424 1.350 . S
C428 C425 1.463 . S
C428 N432 1.427 . S
C429 H419 0.929 . S
C429 C427 1.433 . S
C429 N432 1.384 1_565 S
C430 H421 0.929 . S
C430 C422 1.378 . S
C430 C425 1.350 . S
C431 H418 0.929 1_554 S
C431 C423 1.433 . S
C431 N433 1.384 . S
N432 C428 1.427 . S
N432 C429 1.384 1_545 S
N433 C425 1.427 . S
N433 C431 1.384 . S
H434 C440 0.930 . S
H435 C444 0.930 . S
H436 C449 0.929 . S
H437 C447 0.929 . S
H438 C442 0.929 . S
H439 C448 0.929 . S
C440 H434 0.930 . S
C440 C441 1.367 . S
C440 C448 1.378 . S
C441 C440 1.367 . S
C441 C449 1.433 . S
C442 H438 0.929 . S
C442 C444 1.378 1_545 S
C442 C446 1.350 . S
C443 C446 1.463 . S
C443 C448 1.350 . S
C443 N451 1.427 . S
C444 H435 0.930 . S
C444 C442 1.378 1_565 S
C444 C445 1.367 . S
C445 C444 1.367 . S
C445 C447 1.433 . S
C446 C442 1.350 . S
C446 C443 1.463 . S
C446 N450 1.427 . S
C447 H437 0.929 . S
C447 C445 1.433 . S
C447 N450 1.384 1_565 S
C448 H439 0.929 . S
C448 C440 1.378 . S
C448 C443 1.350 . S
C449 H436 0.929 . S
C449 C441 1.433 . S
C449 N451 1.384 . S
N450 C446 1.427 . S
N450 C447 1.384 1_545 S
N451 C443 1.427 . S
N451 C449 1.384 . S
H452 C458 0.930 . S
H453 C462 0.930 . S
H454 C467 0.929 . S
H455 C465 0.929 1_554 S
H456 C460 0.929 . S
H457 C466 0.929 . S
C458 H452 0.930 . S
C458 C459 1.367 . S
C458 C466 1.378 1_545 S
C459 C458 1.367 . S
C459 C467 1.433 . S
C460 H456 0.929 . S
C460 C462 1.378 . S
C460 C464 1.350 . S
C461 C464 1.463 . S
C461 C466 1.350 . S
C461 N469 1.427 . S
C462 H453 0.930 . S
C462 C460 1.378 . S
C462 C463 1.367 . S
C463 C462 1.367 . S
C463 C465 1.433 . S
C464 C460 1.350 . S
C464 C461 1.463 . S
C464 N468 1.427 . S
C465 H455 0.929 1_556 S
C465 C463 1.433 . S
C465 N468 1.384 . S
C466 H457 0.929 . S
C466 C458 1.378 1_565 S
C466 C461 1.350 . S
C467 H454 0.929 . S
C467 C459 1.433 . S
C467 N469 1.384 1_545 S
N468 C464 1.427 . S
N468 C465 1.384 . S
N469 C461 1.427 . S
N469 C467 1.384 1_565 S
H470 C476 0.930 . S
H471 C480 0.930 . S
H472 C485 0.929 . S
H473 C483 0.929 . S
H474 C478 0.929 . S
H475 C484 0.929 . S
C476 H470 0.930 . S
C476 C477 1.367 . S
C476 C484 1.378 . S
C477 C476 1.367 . S
C477 C485 1.433 . S
C478 H474 0.929 . S
C478 C480 1.378 1_565 S
C478 C482 1.350 . S
C479 C482 1.463 . S
C479 C484 1.350 . S
C479 N487 1.427 . S
C480 H471 0.930 . S
C480 C478 1.378 1_545 S
C480 C481 1.367 . S
C481 C480 1.367 . S
C481 C483 1.433 . S
C482 C478 1.350 . S
C482 C479 1.463 . S
C482 N486 1.427 . S
C483 H473 0.929 . S
C483 C481 1.433 . S
C483 N486 1.384 1_545 S
C484 H475 0.929 . S
C484 C476 1.378 . S
C484 C479 1.350 . S
C485 H472 0.929 . S
C485 C477 1.433 . S
C485 N487 1.384 . S
N486 C482 1.427 . S
N486 C483 1.384 1_565 S
N487 C479 1.427 . S
N487 C485 1.384 . S
H488 C494 0.930 . S
H489 C498 0.930 . S
H490 C503 0.929 . S
H491 C501 0.929 . S
H492 C496 0.929 . S
H493 C502 0.929 . S
C494 H488 0.930 . S
C494 C495 1.367 1_556 S
C494 C502 1.378 . S
C495 C494 1.367 1_554 S
C495 C503 1.433 . S
C496 H492 0.929 . S
C496 C498 1.378 . S
C496 C500 1.350 1_554 S
C497 C500 1.463 1_554 S
C497 C502 1.350 1_554 S
C497 N505 1.427 . S
C498 H489 0.930 . S
C498 C496 1.378 . S
C498 C499 1.367 1_554 S
C499 C498 1.367 1_556 S
C499 C501 1.433 . S
C500 C496 1.350 1_556 S
C500 C497 1.463 1_556 S
C500 N504 1.427 . S
C501 H491 0.929 . S
C501 C499 1.433 . S
C501 N504 1.384 . S
C502 H493 0.929 . S
C502 C494 1.378 . S
C502 C497 1.350 1_556 S
C503 H490 0.929 . S
C503 C495 1.433 . S
C503 N505 1.384 . S
N504 C500 1.427 . S
N504 C501 1.384 . S
N505 C497 1.427 . S
N505 C503 1.384 . S
H506 C512 0.930 . S
H507 C516 0.930 . S
H508 C521 0.929 . S
H509 C519 0.929 . S
H510 C514 0.929 . S
H511 C520 0.929 . S
C512 H506 0.930 . S
C512 C513 1.367 . S
C512 C520 1.378 . S
C513 C512 1.367 . S
C513 C521 1.433 . S
C514 H510 0.929 . S
C514 C516 1.378 . S
C514 C518 1.350 . S
C515 C518 1.463 . S
C515 C520 1.350 . S
C515 N523 1.427 . S
C516 H507 0.930 . S
C516 C514 1.378 . S
C516 C517 1.367 . S
C517 C516 1.367 . S
C517 C519 1.433 . S
C518 C514 1.350 . S
C518 C515 1.463 . S
C518 N522 1.427 . S
C519 H509 0.929 . S
C519 C517 1.433 . S
C519 N522 1.384 . S
C520 H511 0.929 . S
C520 C512 1.378 . S
C520 C515 1.350 . S
C521 H508 0.929 . S
C521 C513 1.433 . S
C521 N523 1.384 . S
N522 C518 1.427 . S
N522 C519 1.384 . S
N523 C515 1.427 . S
N523 C521 1.384 . S
H524 C530 0.930 . S
H525 C534 0.930 . S
H526 C539 0.929 . S
H527 C537 0.929 . S
H528 C532 0.929 . S
H529 C538 0.929 . S
C530 H524 0.930 . S
C530 C531 1.367 1_554 S
C530 C538 1.378 . S
C531 C530 1.367 1_556 S
C531 C539 1.433 . S
C532 H528 0.929 . S
C532 C534 1.378 . S
C532 C536 1.350 1_556 S
C533 C536 1.463 1_556 S
C533 C538 1.350 1_556 S
C533 N541 1.427 . S
C534 H525 0.930 . S
C534 C532 1.378 . S
C534 C535 1.367 1_556 S
C535 C534 1.367 1_554 S
C535 C537 1.433 . S
C536 C532 1.350 1_554 S
C536 C533 1.463 1_554 S
C536 N540 1.427 . S
C537 H527 0.929 . S
C537 C535 1.433 . S
C537 N540 1.384 . S
C538 H529 0.929 . S
C538 C530 1.378 . S
C538 C533 1.350 1_554 S
C539 H526 0.929 . S
C539 C531 1.433 . S
C539 N541 1.384 . S
N540 C536 1.427 . S
N540 C537 1.384 . S
N541 C533 1.427 . S
N541 C539 1.384 . S
H542 C548 0.930 . S
H543 C552 0.930 . S
H544 C557 0.929 . S
H545 C555 0.929 . S
H546 C550 0.929 . S
H547 C556 0.929 . S
C548 H542 0.930 . S
C548 C549 1.367 . S
C548 C556 1.378 . S
C549 C548 1.367 . S
C549 C557 1.433 . S
C550 H546 0.929 . S
C550 C552 1.378 . S
C550 C554 1.350 . S
C551 C554 1.463 . S
C551 C556 1.350 . S
C551 N559 1.427 . S
C552 H543 0.930 . S
C552 C550 1.378 . S
C552 C553 1.367 . S
C553 C552 1.367 . S
C553 C555 1.433 . S
C554 C550 1.350 . S
C554 C551 1.463 . S
C554 N558 1.427 . S
C555 H545 0.929 . S
C555 C553 1.433 . S
C555 N558 1.384 . S
C556 H547 0.929 . S
C556 C548 1.378 . S
C556 C551 1.350 . S
C557 H544 0.929 . S
C557 C549 1.433 . S
C557 N559 1.384 . S
N558 C554 1.427 . S
N558 C555 1.384 . S
N559 C551 1.427 . S
N559 C557 1.384 . S
H560 C566 0.930 . S
H561 C570 0.930 . S
H562 C575 0.929 . S
H563 C573 0.929 . S
H564 C568 0.929 . S
H565 C574 0.929 . S
C566 H560 0.930 . S
C566 C567 1.367 . S
C566 C574 1.378 . S
C567 C566 1.367 . S
C567 C575 1.433 1_545 S
C568 H564 0.929 . S
C568 C570 1.378 . S
C568 C572 1.350 . S
C569 C572 1.463 . S
C569 C574 1.350 1_565 S
C569 N577 1.427 . S
C570 H561 0.930 . S
C570 C568 1.378 . S
C570 C571 1.367 . S
C571 C570 1.367 . S
C571 C573 1.433 . S
C572 C568 1.350 . S
C572 C569 1.463 . S
C572 N576 1.427 . S
C573 H563 0.929 . S
C573 C571 1.433 . S
C573 N576 1.384 . S
C574 H565 0.929 . S
C574 C566 1.378 . S
C574 C569 1.350 1_545 S
C575 H562 0.929 . S
C575 C567 1.433 1_565 S
C575 N577 1.384 . S
N576 C572 1.427 . S
N576 C573 1.384 . S
N577 C569 1.427 . S
N577 C575 1.384 . S
H578 C584 0.930 . S
H579 C588 0.930 . S
H580 C593 0.929 . S
H581 C591 0.929 . S
H582 C586 0.929 . S
H583 C592 0.929 . S
C584 H578 0.930 . S
C584 C585 1.367 . S
C584 C592 1.378 . S
C585 C584 1.367 . S
C585 C593 1.433 . S
C586 H582 0.929 . S
C586 C588 1.378 . S
C586 C590 1.350 . S
C587 C590 1.463 . S
C587 C592 1.350 1_565 S
C587 N595 1.427 . S
C588 H579 0.930 . S
C588 C586 1.378 . S
C588 C589 1.367 . S
C589 C588 1.367 . S
C589 C591 1.433 . S
C590 C586 1.350 . S
C590 C587 1.463 . S
C590 N594 1.427 . S
C591 H581 0.929 . S
C591 C589 1.433 . S
C591 N594 1.384 . S
C592 H583 0.929 . S
C592 C584 1.378 . S
C592 C587 1.350 1_545 S
C593 H580 0.929 . S
C593 C585 1.433 . S
C593 N595 1.384 1_545 S
N594 C590 1.427 . S
N594 C591 1.384 . S
N595 C587 1.427 . S
N595 C593 1.384 1_565 S
H596 C602 0.930 . S
H597 C606 0.930 . S
H598 C611 0.929 . S
H599 C609 0.929 . S
H600 C604 0.929 . S
H601 C610 0.929 1_565 S
C602 H596 0.930 . S
C602 C603 1.367 . S
C602 C610 1.378 . S
C603 C602 1.367 . S
C603 C611 1.433 . S
C604 H600 0.929 . S
C604 C606 1.378 . S
C604 C608 1.350 . S
C605 C608 1.463 . S
C605 C610 1.350 . S
C605 N613 1.427 . S
C606 H597 0.930 . S
C606 C604 1.378 . S
C606 C607 1.367 1_545 S
C607 C606 1.367 1_565 S
C607 C609 1.433 . S
C608 C604 1.350 . S
C608 C605 1.463 . S
C608 N612 1.427 1_545 S
C609 H599 0.929 . S
C609 C607 1.433 . S
C609 N612 1.384 . S
C610 H601 0.929 1_545 S
C610 C602 1.378 . S
C610 C605 1.350 . S
C611 H598 0.929 . S
C611 C603 1.433 . S
C611 N613 1.384 . S
N612 C608 1.427 1_565 S
N612 C609 1.384 . S
N613 C605 1.427 . S
N613 C611 1.384 . S
H614 C620 0.930 . S
H615 C624 0.930 . S
H616 C629 0.929 . S
H617 C627 0.929 . S
H618 C622 0.929 . S
H619 C628 0.929 . S
C620 H614 0.930 . S
C620 C621 1.367 . S
C620 C628 1.378 1_565 S
C621 C620 1.367 . S
C621 C629 1.433 . S
C622 H618 0.929 . S
C622 C624 1.378 . S
C622 C626 1.350 . S
C623 C626 1.463 . S
C623 C628 1.350 . S
C623 N631 1.427 . S
C624 H615 0.930 . S
C624 C622 1.378 . S
C624 C625 1.367 . S
C625 C624 1.367 . S
C625 C627 1.433 . S
C626 C622 1.350 . S
C626 C623 1.463 . S
C626 N630 1.427 . S
C627 H617 0.929 . S
C627 C625 1.433 . S
C627 N630 1.384 . S
C628 H619 0.929 . S
C628 C620 1.378 1_545 S
C628 C623 1.350 . S
C629 H616 0.929 . S
C629 C621 1.433 . S
C629 N631 1.384 1_565 S
N630 C626 1.427 . S
N630 C627 1.384 . S
N631 C623 1.427 . S
N631 C629 1.384 1_545 S
H632 C638 0.930 . S
H633 C642 0.930 . S
H634 C647 0.929 . S
H635 C645 0.929 . S
H636 C640 0.929 . S
H637 C646 0.929 . S
C638 H632 0.930 . S
C638 C639 1.367 . S
C638 C646 1.378 . S
C639 C638 1.367 . S
C639 C647 1.433 . S
C640 H636 0.929 . S
C640 C642 1.378 . S
C640 C644 1.350 . S
C641 C644 1.463 . S
C641 C646 1.350 . S
C641 N649 1.427 . S
C642 H633 0.930 . S
C642 C640 1.378 . S
C642 C643 1.367 . S
C643 C642 1.367 . S
C643 C645 1.433 . S
C644 C640 1.350 . S
C644 C641 1.463 . S
C644 N648 1.427 . S
C645 H635 0.929 . S
C645 C643 1.433 . S
C645 N648 1.384 . S
C646 H637 0.929 . S
C646 C638 1.378 . S
C646 C641 1.350 . S
C647 H634 0.929 . S
C647 C639 1.433 . S
C647 N649 1.384 . S
N648 C644 1.427 . S
N648 C645 1.384 . S
N649 C641 1.427 . S
N649 C647 1.384 . S
H650 C656 0.930 . S
H651 C660 0.930 . S
H652 C665 0.929 . S
H653 C663 0.929 . S
H654 C658 0.929 . S
H655 C664 0.929 . S
C656 H650 0.930 . S
C656 C657 1.367 . S
C656 C664 1.378 . S
C657 C656 1.367 . S
C657 C665 1.433 . S
C658 H654 0.929 . S
C658 C660 1.378 . S
C658 C662 1.350 . S
C659 C662 1.463 . S
C659 C664 1.350 . S
C659 N667 1.427 . S
C660 H651 0.930 . S
C660 C658 1.378 . S
C660 C661 1.367 . S
C661 C660 1.367 . S
C661 C663 1.433 . S
C662 C658 1.350 . S
C662 C659 1.463 . S
C662 N666 1.427 . S
C663 H653 0.929 . S
C663 C661 1.433 . S
C663 N666 1.384 . S
C664 H655 0.929 . S
C664 C656 1.378 . S
C664 C659 1.350 . S
C665 H652 0.929 . S
C665 C657 1.433 . S
C665 N667 1.384 . S
N666 C662 1.427 . S
N666 C663 1.384 . S
N667 C659 1.427 . S
N667 C665 1.384 . S
H668 C674 0.930 . S
H669 C678 0.930 . S
H670 C683 0.929 . S
H671 C681 0.929 . S
H672 C676 0.929 . S
H673 C682 0.929 . S
C674 H668 0.930 . S
C674 C675 1.367 . S
C674 C682 1.378 . S
C675 C674 1.367 . S
C675 C683 1.433 . S
C676 H672 0.929 . S
C676 C678 1.378 . S
C676 C680 1.350 . S
C677 C680 1.463 . S
C677 C682 1.350 . S
C677 N685 1.427 . S
C678 H669 0.930 . S
C678 C676 1.378 . S
C678 C679 1.367 . S
C679 C678 1.367 . S
C679 C681 1.433 . S
C680 C676 1.350 . S
C680 C677 1.463 . S
C680 N684 1.427 . S
C681 H671 0.929 . S
C681 C679 1.433 . S
C681 N684 1.384 . S
C682 H673 0.929 . S
C682 C674 1.378 . S
C682 C677 1.350 . S
C683 H670 0.929 . S
C683 C675 1.433 . S
C683 N685 1.384 . S
N684 C680 1.427 . S
N684 C681 1.384 . S
N685 C677 1.427 . S
N685 C683 1.384 . S
H686 C692 0.930 . S
H687 C696 0.930 . S
H688 C701 0.929 . S
H689 C699 0.929 . S
H690 C694 0.929 . S
H691 C700 0.929 . S
C692 H686 0.930 . S
C692 C693 1.367 . S
C692 C700 1.378 . S
C693 C692 1.367 . S
C693 C701 1.433 . S
C694 H690 0.929 . S
C694 C696 1.378 . S
C694 C698 1.350 . S
C695 C698 1.463 . S
C695 C700 1.350 . S
C695 N703 1.427 . S
C696 H687 0.930 . S
C696 C694 1.378 . S
C696 C697 1.367 . S
C697 C696 1.367 . S
C697 C699 1.433 . S
C698 C694 1.350 . S
C698 C695 1.463 . S
C698 N702 1.427 . S
C699 H689 0.929 . S
C699 C697 1.433 . S
C699 N702 1.384 . S
C700 H691 0.929 . S
C700 C692 1.378 . S
C700 C695 1.350 . S
C701 H688 0.929 . S
C701 C693 1.433 . S
C701 N703 1.384 . S
N702 C698 1.427 . S
N702 C699 1.384 . S
N703 C695 1.427 . S
N703 C701 1.384 . S
H704 C710 0.930 . S
H705 C714 0.930 . S
H706 C719 0.929 . S
H707 C717 0.929 . S
H708 C712 0.929 . S
H709 C718 0.929 . S
C710 H704 0.930 . S
C710 C711 1.367 . S
C710 C718 1.378 . S
C711 C710 1.367 . S
C711 C719 1.433 1_545 S
C712 H708 0.929 . S
C712 C714 1.378 . S
C712 C716 1.350 . S
C713 C716 1.463 1_544 S
C713 C718 1.350 . S
C713 N721 1.427 1_545 S
C714 H705 0.930 . S
C714 C712 1.378 . S
C714 C715 1.367 . S
C715 C714 1.367 . S
C715 C717 1.433 1_565 S
C716 C712 1.350 . S
C716 C713 1.463 1_566 S
C716 N720 1.427 1_565 S
C717 H707 0.929 . S
C717 C715 1.433 1_545 S
C717 N720 1.384 . S
C718 H709 0.929 . S
C718 C710 1.378 . S
C718 C713 1.350 . S
C719 H706 0.929 . S
C719 C711 1.433 1_565 S
C719 N721 1.384 . S
N720 C716 1.427 1_545 S
N720 C717 1.384 . S
N721 C713 1.427 1_565 S
N721 C719 1.384 . S
H722 C728 0.930 . S
H723 C732 0.930 . S
H724 C737 0.929 . S
H725 C735 0.929 . S
H726 C730 0.929 . S
H727 C736 0.929 . S
C728 H722 0.930 . S
C728 C729 1.367 . S
C728 C736 1.378 . S
C729 C728 1.367 . S
C729 C737 1.433 1_545 S
C730 H726 0.929 . S
C730 C732 1.378 . S
C730 C734 1.350 . S
C731 C734 1.463 1_545 S
C731 C736 1.350 . S
C731 N739 1.427 1_545 S
C732 H723 0.930 . S
C732 C730 1.378 . S
C732 C733 1.367 . S
C733 C732 1.367 . S
C733 C735 1.433 1_565 S
C734 C730 1.350 . S
C734 C731 1.463 1_565 S
C734 N738 1.427 1_565 S
C735 H725 0.929 . S
C735 C733 1.433 1_545 S
C735 N738 1.384 . S
C736 H727 0.929 . S
C736 C728 1.378 . S
C736 C731 1.350 . S
C737 H724 0.929 . S
C737 C729 1.433 1_565 S
C737 N739 1.384 . S
N738 C734 1.427 1_545 S
N738 C735 1.384 . S
N739 C731 1.427 1_565 S
N739 C737 1.384 . S
H740 C746 0.930 . S
H741 C750 0.930 . S
H742 C755 0.929 . S
H743 C753 0.929 . S
H744 C748 0.928 . S
H745 C754 0.928 . S
C746 H740 0.930 . S
C746 C747 1.367 . S
C746 C754 1.378 1_554 S
C747 C746 1.367 . S
C747 C755 1.433 . S
C748 H744 0.928 . S
C748 C750 1.378 1_554 S
C748 C752 1.350 1_554 S
C749 C752 1.463 1_654 S
C749 C754 1.350 1_554 S
C749 N757 1.427 . S
C750 H741 0.930 . S
C750 C748 1.378 1_556 S
C750 C751 1.367 . S
C751 C750 1.367 . S
C751 C753 1.433 . S
C752 C748 1.350 1_556 S
C752 C749 1.463 1_456 S
C752 N756 1.427 . S
C753 H743 0.929 . S
C753 C751 1.433 . S
C753 N756 1.384 . S
C754 H745 0.928 . S
C754 C746 1.378 1_556 S
C754 C749 1.350 1_556 S
C755 H742 0.929 . S
C755 C747 1.433 . S
C755 N757 1.384 . S
N756 C752 1.427 . S
N756 C753 1.384 . S
N757 C749 1.427 . S
N757 C755 1.384 . S
H758 C764 0.930 . S
H759 C768 0.930 . S
H760 C773 0.929 . S
H761 C771 0.929 . S
H762 C766 0.929 . S
H763 C772 0.929 . S
C764 H758 0.930 . S
C764 C765 1.367 . S
C764 C772 1.378 . S
C765 C764 1.367 . S
C765 C773 1.433 . S
C766 H762 0.929 . S
C766 C768 1.378 . S
C766 C770 1.350 . S
C767 C770 1.463 1_455 S
C767 C772 1.350 . S
C767 N775 1.427 . S
C768 H759 0.930 . S
C768 C766 1.378 . S
C768 C769 1.367 . S
C769 C768 1.367 . S
C769 C771 1.433 . S
C770 C766 1.350 . S
C770 C767 1.463 1_655 S
C770 N774 1.427 . S
C771 H761 0.929 . S
C771 C769 1.433 . S
C771 N774 1.384 . S
C772 H763 0.929 . S
C772 C764 1.378 . S
C772 C767 1.350 . S
C773 H760 0.929 . S
C773 C765 1.433 . S
C773 N775 1.384 . S
N774 C770 1.427 . S
N774 C771 1.384 . S
N775 C767 1.427 . S
N775 C773 1.384 . S
C279 C35 1.667 . S
C283 C3 1.678 . S
C297 C105 1.673 . S
C301 C71 1.682 . S
C315 C139 1.667 . S
C319 C173 1.678 . S
C333 C207 1.667 . S
C337 C239 1.672 . S
C351 C22 1.380 . S
C355 C15 1.388 . S
C369 C49 1.398 . S
C373 C56 1.407 . S
C387 C83 1.409 . S
C391 C90 1.402 . S
C405 C124 1.403 . S
C409 C117 1.412 . S
C423 C158 1.384 . S
C427 C151 1.392 . S
C441 C192 1.387 . S
C445 C185 1.395 . S
C459 C219 1.390 . S
C463 C226 1.382 . S
C477 C253 1.392 . S
C481 C260 1.400 . S
C495 C17 1.792 . S
C499 C221 1.792 . S
C513 C51 1.784 . S
C517 C255 1.784 . S
C531 C85 1.794 . S
C535 C153 1.794 . S
C549 C187 1.786 . S
C553 C119 1.786 . S
C567 C6 1.623 . S
C571 C130 1.600 . S
C585 C62 1.618 . S
C589 C96 1.597 . S
C603 C40 1.587 . S
C607 C74 1.613 . S
C621 C108 1.619 . S
C625 C28 1.592 . S
C639 C244 1.588 . S
C643 C142 1.612 . S
C657 C176 1.622 . S
C661 C232 1.598 . S
C675 C198 1.591 . S
C679 C210 1.618 . S
C693 C164 1.599 . S
C697 C266 1.621 . S
C711 C1 1.809 . S
C715 C69 1.809 . S
C729 C37 1.808 . S
C733 C103 1.808 . S
C747 C137 1.822 . S
C751 C205 1.822 . S
C765 C171 1.823 . S
C769 C241 1.823 . S
