# Generated by pormake.
# Topology wht, (6)-cn, num edge types: 1
# Building blocks:
#     Node 0, Type 0, BuildingBlock: IZENUY_clean_sbu_0, # of connection points: 6
#     Node 1, Type 0, BuildingBlock: IZENUY_clean_sbu_0, # of connection points: 6
#     Node 2, Type 0, BuildingBlock: IZENUY_clean_sbu_0, # of connection points: 6
#     Node 3, Type 0, BuildingBlock: IZENUY_clean_sbu_0, # of connection points: 6
#     Node 4, Type 0, BuildingBlock: IZENUY_clean_sbu_0, # of connection points: 6
#     Node 5, Type 0, BuildingBlock: IZENUY_clean_sbu_0, # of connection points: 6
#     Node 6, Type 0, BuildingBlock: IZENUY_clean_sbu_0, # of connection points: 6
#     Node 7, Type 0, BuildingBlock: IZENUY_clean_sbu_0, # of connection points: 6
#     Edge 8, Type (0, 0), BuildingBlock: UVAHIK_clean_linker_0, # of connection points: 2
#     Edge 9, Type (0, 0), BuildingBlock: UVAHIK_clean_linker_0, # of connection points: 2
#     Edge 10, Type (0, 0), BuildingBlock: UVAHIK_clean_linker_0, # of connection points: 2
#     Edge 11, Type (0, 0), BuildingBlock: UVAHIK_clean_linker_0, # of connection points: 2
#     Edge 12, Type (0, 0), BuildingBlock: UVAHIK_clean_linker_0, # of connection points: 2
#     Edge 13, Type (0, 0), BuildingBlock: UVAHIK_clean_linker_0, # of connection points: 2
#     Edge 14, Type (0, 0), BuildingBlock: UVAHIK_clean_linker_0, # of connection points: 2
#     Edge 15, Type (0, 0), BuildingBlock: UVAHIK_clean_linker_0, # of connection points: 2
#     Edge 16, Type (0, 0), BuildingBlock: UVAHIK_clean_linker_0, # of connection points: 2
#     Edge 17, Type (0, 0), BuildingBlock: UVAHIK_clean_linker_0, # of connection points: 2
#     Edge 18, Type (0, 0), BuildingBlock: UVAHIK_clean_linker_0, # of connection points: 2
#     Edge 19, Type (0, 0), BuildingBlock: UVAHIK_clean_linker_0, # of connection points: 2
#     Edge 20, Type (0, 0), BuildingBlock: UVAHIK_clean_linker_0, # of connection points: 2
#     Edge 21, Type (0, 0), BuildingBlock: UVAHIK_clean_linker_0, # of connection points: 2
#     Edge 22, Type (0, 0), BuildingBlock: UVAHIK_clean_linker_0, # of connection points: 2
#     Edge 23, Type (0, 0), BuildingBlock: UVAHIK_clean_linker_0, # of connection points: 2
#     Edge 24, Type (0, 0), BuildingBlock: UVAHIK_clean_linker_0, # of connection points: 2
#     Edge 25, Type (0, 0), BuildingBlock: UVAHIK_clean_linker_0, # of connection points: 2
#     Edge 26, Type (0, 0), BuildingBlock: UVAHIK_clean_linker_0, # of connection points: 2
#     Edge 27, Type (0, 0), BuildingBlock: UVAHIK_clean_linker_0, # of connection points: 2
#     Edge 28, Type (0, 0), BuildingBlock: UVAHIK_clean_linker_0, # of connection points: 2
#     Edge 29, Type (0, 0), BuildingBlock: UVAHIK_clean_linker_0, # of connection points: 2
#     Edge 30, Type (0, 0), BuildingBlock: UVAHIK_clean_linker_0, # of connection points: 2
#     Edge 31, Type (0, 0), BuildingBlock: UVAHIK_clean_linker_0, # of connection points: 2
# Relax obj value: 0.256
# Max RMSD: 0.239
# Mean RMSD: 0.239
data_MOF--net-wht--node1-IZENUY_clean_sbu_0--edge1-UVAHIK_clean_linker_0
_symmetry_space_group_name_H-M    P1
_symmetry_Int_Tables_number       1
_symmetry_cell_setting            triclinic
loop_
_symmetry_equiv_pos_as_xyz
'x, y, z'
_cell_length_a     33.882458
_cell_length_b     33.832048
_cell_length_c     59.566049
_cell_angle_alpha  89.997158
_cell_angle_beta   89.987013
_cell_angle_gamma 90.008282
loop_
_atom_site_label
_atom_site_type_symbol
_atom_site_fract_x
_atom_site_fract_y
_atom_site_fract_z
_atom_type_partial_charge
Fe0 Fe 0.09501 0.20514 0.14416 0.0
Fe1 Fe 0.16807 0.25489 0.15472 0.0
O2 O 0.1162 0.24855 0.15549 0.0
Fe3 Fe 0.08523 0.28551 0.16711 0.0
O4 O 0.05877 0.2915 0.14094 0.0
O5 O 0.04832 0.22837 0.13557 0.0
O6 O 0.11361 0.21708 0.1166 0.0
C7 C 0.14944 0.22336 0.11213 0.0
C8 C 0.05188 0.21282 0.18233 0.0
O9 O 0.17436 0.22927 0.12767 0.0
C10 C 0.14605 0.28687 0.19726 0.0
O11 O 0.1376 0.17323 0.1502 0.0
O12 O 0.17683 0.21008 0.1706 0.0
O13 O 0.04866 0.24964 0.17825 0.0
O14 O 0.07538 0.19154 0.1712 0.0
C15 C 0.14397 0.32964 0.14367 0.0
O16 O 0.17061 0.28241 0.18138 0.0
O17 O 0.10958 0.28236 0.194 0.0
C18 C 0.16628 0.17653 0.16369 0.0
O19 O 0.16358 0.29943 0.13859 0.0
O20 O 0.11636 0.32777 0.15807 0.0
C21 C 0.04102 0.26409 0.13086 0.0
Fe22 Fe 0.25602 0.66994 0.40434 0.0
Fe23 Fe 0.22652 0.58625 0.41615 0.0
O24 O 0.26291 0.61803 0.40466 0.0
Fe25 Fe 0.30634 0.59753 0.39301 0.0
O26 O 0.29376 0.61649 0.36566 0.0
O27 O 0.28091 0.67703 0.3771 0.0
O28 O 0.21125 0.66537 0.38849 0.0
C29 C 0.18142 0.64514 0.39345 0.0
C30 C 0.3345 0.66882 0.41278 0.0
O31 O 0.1838 0.61707 0.40755 0.0
C32 C 0.29965 0.55362 0.43093 0.0
O33 O 0.22911 0.6715 0.43127 0.0
O34 O 0.22972 0.60992 0.44319 0.0
O35 O 0.33782 0.64042 0.39909 0.0
O36 O 0.30104 0.67896 0.41995 0.0
C37 C 0.24804 0.54298 0.37959 0.0
O38 O 0.26294 0.54985 0.42686 0.0
O39 O 0.32051 0.57762 0.41988 0.0
C40 C 0.22507 0.64627 0.44689 0.0
O41 O 0.22055 0.56035 0.38979 0.0
O42 O 0.28364 0.55062 0.38426 0.0
C43 C 0.28689 0.65235 0.36141 0.0
Fe44 Fe 0.91871 0.802 0.6426 0.0
Fe45 Fe 0.84535 0.75274 0.65315 0.0
O46 O 0.89711 0.75961 0.65479 0.0
Fe47 Fe 0.92768 0.72403 0.66804 0.0
O48 O 0.95576 0.71583 0.64248 0.0
O49 O 0.96598 0.77855 0.63577 0.0
O50 O 0.90192 0.78738 0.61504 0.0
C51 C 0.86636 0.78059 0.61011 0.0
C52 C 0.95959 0.79819 0.68172 0.0
O53 O 0.84062 0.77586 0.62534 0.0
C54 C 0.86512 0.7246 0.69698 0.0
O55 O 0.87569 0.83387 0.64675 0.0
O56 O 0.83499 0.79922 0.66746 0.0
O57 O 0.96333 0.76112 0.67872 0.0
O58 O 0.93653 0.81827 0.66961 0.0
C59 C 0.87171 0.67754 0.64441 0.0
O60 O 0.84145 0.7275 0.68053 0.0
O61 O 0.9017 0.72949 0.69431 0.0
C62 C 0.84615 0.83211 0.6597 0.0
O63 O 0.85151 0.70676 0.63827 0.0
O64 O 0.89734 0.68082 0.65982 0.0
C65 C 0.97364 0.74265 0.63191 0.0
Fe66 Fe 0.78515 0.4278 0.91716 0.0
Fe67 Fe 0.70477 0.41679 0.89448 0.0
O68 O 0.74851 0.39615 0.90568 0.0
Fe69 Fe 0.75552 0.34422 0.90506 0.0
O70 O 0.79988 0.3493 0.88887 0.0
O71 O 0.82768 0.39703 0.90819 0.0
O72 O 0.79069 0.45413 0.89088 0.0
C73 C 0.76303 0.47134 0.88072 0.0
C74 C 0.78733 0.36717 0.94751 0.0
O75 O 0.72747 0.46354 0.88545 0.0
C76 C 0.67715 0.3453 0.91431 0.0
O77 O 0.74909 0.46432 0.92823 0.0
O78 O 0.6915 0.43668 0.92147 0.0
O79 O 0.78303 0.34235 0.93172 0.0
O80 O 0.78242 0.40362 0.94415 0.0
C81 C 0.72204 0.36176 0.86263 0.0
O82 O 0.67348 0.37414 0.90097 0.0
O83 O 0.71081 0.33457 0.92092 0.0
C84 C 0.71239 0.46082 0.93235 0.0
O85 O 0.71576 0.39771 0.86692 0.0
O86 O 0.73007 0.33727 0.87809 0.0
C87 C 0.82983 0.36933 0.89385 0.0
Fe88 Fe 0.58054 0.22446 0.57462 0.0
Fe89 Fe 0.59043 0.30287 0.59942 0.0
O90 O 0.61146 0.25939 0.58818 0.0
Fe91 Fe 0.66282 0.25071 0.59096 0.0
O92 O 0.65423 0.20512 0.60589 0.0
O93 O 0.60933 0.18056 0.58331 0.0
O94 O 0.55125 0.21748 0.59987 0.0
C95 C 0.53369 0.24508 0.60999 0.0
C96 C 0.64452 0.22284 0.54678 0.0
O97 O 0.54228 0.28069 0.60579 0.0
C98 C 0.66481 0.33007 0.58343 0.0
O99 O 0.54611 0.26212 0.56328 0.0
O100 O 0.57451 0.31855 0.57193 0.0
O101 O 0.66736 0.22507 0.56367 0.0
O102 O 0.60796 0.22896 0.54876 0.0
C103 C 0.64013 0.28137 0.63325 0.0
O104 O 0.63443 0.33346 0.59559 0.0
O105 O 0.67588 0.29649 0.57667 0.0
C106 C 0.55088 0.29896 0.55995 0.0
O107 O 0.60527 0.28929 0.62741 0.0
O108 O 0.66665 0.27404 0.61879 0.0
C109 C 0.63404 0.17633 0.59911 0.0
Fe110 Fe 0.25512 0.16833 0.83889 0.0
Fe111 Fe 0.28361 0.08491 0.82592 0.0
O112 O 0.24767 0.11656 0.83797 0.0
Fe113 Fe 0.20425 0.09614 0.84966 0.0
O114 O 0.21727 0.11425 0.87715 0.0
O115 O 0.23038 0.17493 0.86617 0.0
O116 O 0.29984 0.16251 0.85466 0.0
C117 C 0.32943 0.14223 0.84932 0.0
C118 C 0.1766 0.16824 0.83055 0.0
O119 O 0.32669 0.11522 0.83458 0.0
C120 C 0.20992 0.05302 0.81139 0.0
O121 O 0.28191 0.17053 0.81196 0.0
O122 O 0.28018 0.10956 0.79912 0.0
O123 O 0.17309 0.13946 0.84399 0.0
O124 O 0.21014 0.17837 0.82345 0.0
C125 C 0.2624 0.04085 0.86231 0.0
O126 O 0.24673 0.04905 0.81508 0.0
O127 O 0.18956 0.07704 0.8227 0.0
C128 C 0.28538 0.14601 0.79595 0.0
O129 O 0.28984 0.05812 0.85198 0.0
O130 O 0.22676 0.04887 0.85793 0.0
C131 C 0.22432 0.14995 0.88168 0.0
Fe132 Fe 0.34271 0.75512 0.08826 0.0
Fe133 Fe 0.42561 0.78582 0.07599 0.0
O134 O 0.3946 0.74887 0.08761 0.0
Fe135 Fe 0.41578 0.70555 0.09907 0.0
O136 O 0.39702 0.71766 0.12657 0.0
O137 O 0.33632 0.72971 0.11538 0.0
O138 O 0.34703 0.79977 0.1043 0.0
C139 C 0.3667 0.82996 0.09926 0.0
C140 C 0.34462 0.67669 0.07951 0.0
O141 O 0.39443 0.82808 0.08493 0.0
C142 C 0.45914 0.71307 0.06097 0.0
O143 O 0.34028 0.78245 0.06153 0.0
O144 O 0.40141 0.78259 0.04906 0.0
O145 O 0.37325 0.67354 0.09304 0.0
O146 O 0.33408 0.71017 0.07248 0.0
C147 C 0.46966 0.7646 0.11237 0.0
O148 O 0.46225 0.74992 0.06497 0.0
O149 O 0.43558 0.69181 0.07209 0.0
C150 C 0.36496 0.787 0.04571 0.0
O151 O 0.45193 0.79195 0.10221 0.0
O152 O 0.46241 0.72886 0.10769 0.0
C153 C 0.36118 0.72402 0.13097 0.0
Fe154 Fe 0.80696 0.91512 0.34913 0.0
Fe155 Fe 0.75629 0.84299 0.33791 0.0
O156 O 0.76335 0.89488 0.33757 0.0
Fe157 Fe 0.72694 0.92679 0.32619 0.0
O158 O 0.72133 0.95284 0.35257 0.0
O159 O 0.78451 0.96198 0.35816 0.0
O160 O 0.79474 0.89591 0.37649 0.0
C161 C 0.78822 0.85996 0.38063 0.0
C162 C 0.80017 0.95958 0.31139 0.0
O163 O 0.78178 0.83556 0.36488 0.0
C164 C 0.72447 0.86658 0.29558 0.0
O165 O 0.8382 0.87222 0.34271 0.0
O166 O 0.80096 0.83388 0.32198 0.0
O167 O 0.76338 0.96313 0.31533 0.0
O168 O 0.82089 0.9353 0.3223 0.0
C169 C 0.68201 0.86806 0.34921 0.0
O170 O 0.72877 0.84154 0.31124 0.0
O171 O 0.7296 0.90296 0.29909 0.0
C172 C 0.83458 0.8439 0.32898 0.0
O173 O 0.71186 0.84779 0.35407 0.0
O174 O 0.68426 0.89606 0.33504 0.0
C175 C 0.74897 0.96979 0.36289 0.0
C176 C 0.98845 0.21026 0.20442 0.0
C177 C 0.02458 0.19297 0.19816 0.0
C178 C 0.96159 0.18939 0.21787 0.0
C179 C 0.95563 0.10607 0.25776 0.0
H180 H 0.84686 0.09558 0.23832 0.0
C181 C 0.85997 0.97977 0.28985 0.0
C182 C 0.821 0.98786 0.2965 0.0
C183 C 0.882 0.00781 0.27816 0.0
C184 C 0.87698 0.09867 0.24415 0.0
H185 H 0.06132 0.14082 0.2017 0.0
H186 H 0.01496 0.10488 0.22518 0.0
H187 H 0.89127 0.14094 0.2185 0.0
H188 H 0.77397 0.03126 0.29512 0.0
H189 H 0.81283 0.08068 0.2746 0.0
H190 H 0.94186 0.06366 0.28314 0.0
C191 C 0.00723 0.13444 0.21974 0.0
C192 C 0.90237 0.12467 0.23283 0.0
C193 C 0.03373 0.15499 0.20616 0.0
C194 C 0.80393 0.02413 0.29023 0.0
C195 C 0.82617 0.05242 0.2785 0.0
C196 C 0.93036 0.08029 0.26904 0.0
C197 C 0.9707 0.15117 0.22559 0.0
C198 C 0.94224 0.12784 0.23919 0.0
C199 C 0.8658 0.04487 0.27285 0.0
C200 C 0.89103 0.07543 0.26202 0.0
H201 H 0.98049 0.23943 0.19844 0.0
H202 H 0.93372 0.20307 0.22222 0.0
H203 H 0.98597 0.10845 0.26333 0.0
H204 H 0.87389 0.95191 0.29408 0.0
H205 H 0.91205 1.00056 0.27351 0.0
C206 C 0.30341 0.48964 0.45245 0.0
C207 C 0.31991 0.52637 0.4466 0.0
C208 C 0.32473 0.46285 0.46572 0.0
C209 C 0.40745 0.45729 0.50586 0.0
H210 H 0.42017 0.34935 0.48514 0.0
C211 C 0.53221 0.36059 0.53947 0.0
C212 C 0.52392 0.32101 0.54487 0.0
C213 C 0.50503 0.38333 0.52755 0.0
C214 C 0.41649 0.37922 0.49133 0.0
H215 H 0.37103 0.56433 0.4507 0.0
H216 H 0.40773 0.51807 0.4739 0.0
H217 H 0.37481 0.39383 0.46549 0.0
H218 H 0.48111 0.2738 0.54112 0.0
H219 H 0.43328 0.31383 0.52035 0.0
H220 H 0.44906 0.44314 0.53155 0.0
C221 C 0.37848 0.5098 0.46826 0.0
C222 C 0.39048 0.40465 0.48009 0.0
C223 C 0.3575 0.53623 0.45484 0.0
C224 C 0.48842 0.3042 0.5372 0.0
C225 C 0.46102 0.32713 0.5253 0.0
C226 C 0.43321 0.43195 0.5171 0.0
C227 C 0.36258 0.47265 0.47365 0.0
C228 C 0.38638 0.44421 0.48697 0.0
C229 C 0.46867 0.36724 0.5208 0.0
C230 C 0.43879 0.39288 0.50968 0.0
H231 H 0.27456 0.48114 0.44628 0.0
H232 H 0.31167 0.43449 0.46974 0.0
H233 H 0.40436 0.4874 0.5118 0.0
H234 H 0.55949 0.37436 0.54485 0.0
H235 H 0.5124 0.41379 0.52383 0.0
C236 C 0.97699 0.85833 0.70391 0.0
C237 C 0.98613 0.81949 0.69735 0.0
C238 C 1.00288 0.87986 0.71738 0.0
C239 C 0.10695 0.88928 0.73245 0.0
H240 H 0.06567 0.9539 0.7808 0.0
C241 C 0.20502 0.98871 0.7902 0.0
C242 C 0.18873 0.0254 0.79632 0.0
C243 C 0.1824 0.96104 0.77827 0.0
C244 C 0.07768 0.93635 0.76721 0.0
H245 H 0.02953 0.77261 0.70006 0.0
H246 H 0.07517 0.81065 0.7236 0.0
H247 H 0.02178 0.90924 0.76076 0.0
H248 H 0.13693 0.06277 0.79346 0.0
H249 H 0.09816 0.01527 0.77237 0.0
H250 H 0.16276 0.91723 0.73861 0.0
C251 C 0.04783 0.82425 0.71822 0.0
C252 C 0.05252 0.91062 0.75581 0.0
C253 C 0.02158 0.80243 0.7049 0.0
C254 C 0.15019 0.03455 0.78932 0.0
C255 C 0.12782 0.00715 0.77736 0.0
C256 C 0.1322 0.91528 0.74383 0.0
C257 C 0.03876 0.86327 0.72452 0.0
C258 C 0.06666 0.88735 0.73803 0.0
C259 C 0.14318 0.96967 0.77218 0.0
C260 C 0.11761 0.93973 0.76104 0.0
H261 H 0.9499 0.87234 0.69843 0.0
H262 H 0.99523 0.90998 0.72176 0.0
H263 H 0.11861 0.87185 0.71872 0.0
H264 H 0.23461 0.98077 0.79538 0.0
H265 H 0.19513 0.93243 0.77454 0.0
C266 C 0.52257 0.71078 0.03887 0.0
C267 C 0.48666 0.69319 0.04527 0.0
C268 C 0.54964 0.68998 0.02551 0.0
C269 C 0.55632 0.606 0.98611 0.0
H270 H 0.66545 0.59745 0.00519 0.0
C271 C 0.65312 0.48041 0.95447 0.0
C272 C 0.69175 0.48897 0.94739 0.0
C273 C 0.631 0.50834 0.96617 0.0
C274 C 0.63522 0.59999 -0.00053 0.0
H275 H 0.45053 0.64052 0.04209 0.0
H276 H 0.49723 0.6047 0.0188 0.0
H277 H 0.62062 0.64255 0.0249 0.0
H278 H 0.73818 0.53307 0.94807 0.0
H279 H 0.69916 0.58233 0.96864 0.0
H280 H 0.57039 0.5633 0.96095 0.0
C281 C 0.50464 0.63445 0.02405 0.0
C282 C 0.60959 0.62584 0.01072 0.0
C283 C 0.47794 0.65494 0.03752 0.0
C284 C 0.70849 0.52559 0.9533 0.0
C285 C 0.68615 0.55378 0.96505 0.0
C286 C 0.58181 0.58037 0.97489 0.0
C287 C 0.54095 0.65151 0.01804 0.0
C288 C 0.5696 0.62831 0.00449 0.0
C289 C 0.64677 0.54576 0.97107 0.0
C290 C 0.62128 0.57621 0.9818 0.0
H291 H 0.53021 0.74016 0.04465 0.0
H292 H 0.57731 0.70393 0.02104 0.0
H293 H 0.52589 0.60785 0.98062 0.0
H294 H 0.63949 0.45228 0.95053 0.0
H295 H 0.60119 0.50076 0.97113 0.0
C296 C 0.1984 0.31631 0.22206 0.0
C297 C 0.15918 0.30379 0.21897 0.0
C298 C 0.20919 0.33733 0.24135 0.0
C299 C 0.16493 0.40364 0.28276 0.0
H300 H 0.26314 0.39052 0.31529 0.0
C301 C 0.19984 0.49777 0.36063 0.0
C302 C 0.23865 0.51183 0.36297 0.0
C303 C 0.19076 0.46928 0.34446 0.0
C304 C 0.23577 0.39481 0.30623 0.0
H305 H 0.10121 0.30126 0.2345 0.0
H306 H 0.12012 0.33771 0.26801 0.0
H307 H 0.24676 0.34513 0.28473 0.0
H308 H 0.29841 0.50682 0.35019 0.0
H309 H 0.28238 0.45783 0.32163 0.0
H310 H 0.1542 0.45378 0.30364 0.0
C311 C 0.14233 0.33189 0.25535 0.0
C312 C 0.22637 0.36873 0.28879 0.0
C313 C 0.13158 0.31083 0.23616 0.0
C314 C 0.26825 0.49644 0.34892 0.0
C315 C 0.25909 0.46816 0.33261 0.0
C316 C 0.17441 0.42981 0.30003 0.0
C317 C 0.18095 0.34629 0.25788 0.0
C318 C 0.19082 0.37289 0.27688 0.0
C319 C 0.22016 0.45443 0.33007 0.0
C320 C 0.20994 0.42579 0.312 0.0
H321 H 0.22043 0.3113 0.2092 0.0
H322 H 0.23916 0.34815 0.24281 0.0
H323 H 0.13768 0.40812 0.2736 0.0
H324 H 0.17638 0.50879 0.37128 0.0
H325 H 0.1606 0.45889 0.34326 0.0
C326 C 0.01849 0.69361 0.61309 0.0
C327 C 0.0049 0.73262 0.6155 0.0
C328 C 0.04697 0.68435 0.5969 0.0
C329 C 0.12145 0.72995 0.55868 0.0
H330 H 0.10735 0.63296 0.525 0.0
C331 C 0.19567 0.69721 0.47273 0.0
C332 C 0.20876 0.65833 0.46895 0.0
C333 C 0.17541 0.70683 0.49249 0.0
C334 C 0.11203 0.65992 0.53444 0.0
H335 H 0.01065 0.79248 0.60278 0.0
H336 H 0.05934 0.77621 0.57434 0.0
H337 H 0.06289 0.64804 0.55588 0.0
H338 H 0.21301 0.59972 0.4837 0.0
H339 H 0.17781 0.61659 0.51795 0.0
H340 H 0.16998 0.7422 0.53661 0.0
C341 C 0.04886 0.75287 0.58526 0.0
C342 C 0.08658 0.66853 0.55222 0.0
C343 C 0.02068 0.76216 0.60152 0.0
C344 C 0.20297 0.62988 0.48588 0.0
C345 C 0.18263 0.63944 0.5055 0.0
C346 C 0.14675 0.72144 0.54076 0.0
C347 C 0.06223 0.71382 0.58263 0.0
C348 C 0.09078 0.70377 0.56449 0.0
C349 C 0.16776 0.67772 0.50878 0.0
C350 C 0.14218 0.6864 0.5284 0.0
H351 H 0.00705 0.67019 0.62364 0.0
H352 H 0.05699 0.65405 0.59558 0.0
H353 H 0.12597 0.75706 0.56799 0.0
H354 H 0.19968 0.71986 0.46009 0.0
H355 H 0.16417 0.73658 0.49453 0.0
C356 C 0.81068 0.51721 0.86172 0.0
C357 C 0.77212 0.50241 0.86396 0.0
C358 C 0.81949 0.54552 0.84539 0.0
C359 C 0.77348 0.61778 0.80597 0.0
H360 H 0.87321 0.60674 0.77469 0.0
C361 C 0.81223 0.69464 0.72131 0.0
C362 C 0.85113 0.70851 0.71876 0.0
C363 C 0.80111 0.67397 0.74068 0.0
C364 C 0.84546 0.61057 0.78346 0.0
H365 H 0.71253 0.50595 0.85081 0.0
H366 H 0.72809 0.5545 0.82195 0.0
H367 H 0.85699 0.56146 0.80497 0.0
H368 H 0.90798 0.71388 0.73534 0.0
H369 H 0.88851 0.67799 0.76893 0.0
H370 H 0.76172 0.66636 0.78377 0.0
C371 C 0.75139 0.54496 0.83314 0.0
C372 C 0.83616 0.58463 0.80089 0.0
C373 C 0.7425 0.51691 0.84963 0.0
C374 C 0.8779 0.70325 0.73656 0.0
C375 C 0.86684 0.6825 0.75581 0.0
C376 C 0.78269 0.64358 0.78834 0.0
C377 C 0.79008 0.55944 0.83069 0.0
C378 C 0.80006 0.58784 0.81241 0.0
C379 C 0.82869 0.66666 0.75782 0.0
C380 C 0.81883 0.64026 0.77693 0.0
H381 H 0.83415 0.5069 0.87259 0.0
H382 H 0.84944 0.55651 0.84431 0.0
H383 H 0.74564 0.62151 0.81465 0.0
H384 H 0.79083 0.69823 0.70796 0.0
H385 H 0.7715 0.66204 0.74174 0.0
C386 C 0.99428 0.24415 0.10024 0.0
C387 C 0.01003 0.27373 0.1142 0.0
C388 C 0.96633 0.25356 0.08382 0.0
C389 C 0.92976 0.33854 0.05071 0.0
H390 H 0.84424 0.26721 0.03544 0.0
C391 C 0.81206 0.38223 0.98621 0.0
C392 C 0.80442 0.35432 0.96925 0.0
C393 C 0.83302 0.37154 0.00545 0.0
C394 C 0.86809 0.28731 0.03948 0.0
H395 H 0.00795 0.33625 0.12221 0.0
H396 H 0.95863 0.35247 0.09399 0.0
H397 H 0.88895 0.25052 0.06623 0.0
H398 H 0.81092 0.29265 0.95991 0.0
H399 H 0.84755 0.27405 0.9936 0.0
H400 H 0.909 0.37528 0.02401 0.0
C401 C 0.96848 0.32212 0.09535 0.0
C402 C 0.89378 0.27774 0.05706 0.0
C403 C 0.99663 0.31278 0.11165 0.0
C404 C 0.81637 0.31493 0.97259 0.0
C405 C 0.83727 0.30421 0.99193 0.0
C406 C 0.90399 0.34819 0.03328 0.0
C407 C 0.9533 0.29273 0.08104 0.0
C408 C 0.92506 0.30319 0.06283 0.0
C409 C 0.84672 0.33268 0.00826 0.0
C410 C 0.87294 0.32266 0.02741 0.0
H411 H 1.00415 0.2138 0.10167 0.0
H412 H 0.95574 0.23025 0.07291 0.0
H413 H 0.95397 0.35846 0.05431 0.0
H414 H 0.80298 0.41275 0.98434 0.0
H415 H 0.83922 0.39396 0.01794 0.0
C416 C 0.69782 0.19122 0.5234 0.0
C417 C 0.65916 0.20606 0.5253 0.0
C418 C 0.7094 0.17014 0.50425 0.0
C419 C 0.66584 0.10771 0.46069 0.0
H420 H 0.76696 0.11735 0.43075 0.0
C421 C 0.70148 0.01565 0.38202 0.0
C422 C 0.73988 1.00042 0.37992 0.0
C423 C 0.69266 0.04354 0.39859 0.0
C424 C 0.73876 0.11396 0.43908 0.0
H425 H 0.60327 0.21256 0.50781 0.0
H426 H 0.62352 0.17595 0.47462 0.0
H427 H 0.75058 0.16195 0.46168 0.0
H428 H 0.79916 1.00263 0.39359 0.0
H429 H 0.78356 0.05042 0.42286 0.0
H430 H 0.65419 0.05919 0.43876 0.0
C431 C 0.64464 0.18005 0.48808 0.0
C432 C 0.72937 0.13962 0.45675 0.0
C433 C 0.63314 0.20122 0.50709 0.0
C434 C 0.76933 0.01399 0.39465 0.0
C435 C 0.76041 0.0416 0.41138 0.0
C436 C 0.67532 0.08188 0.44323 0.0
C437 C 0.6825 0.16336 0.48669 0.0
C438 C 0.69274 0.13683 0.46768 0.0
C439 C 0.72188 0.05656 0.41368 0.0
C440 C 0.71185 0.08466 0.43212 0.0
H441 H 0.71865 0.19445 0.53707 0.0
H442 H 0.73878 0.15757 0.50366 0.0
H443 H 0.63768 0.10428 0.46908 0.0
H444 H 0.67815 0.00605 0.37085 0.0
H445 H 0.66284 0.05493 0.39953 0.0
C446 C 0.31041 0.19918 0.77013 0.0
C447 C 0.30167 0.15916 0.77407 0.0
C448 C 0.33008 0.21068 0.75053 0.0
C449 C 0.36144 0.17532 0.69385 0.0
H450 H 0.44557 0.25164 0.70208 0.0
C451 C 0.49 0.19724 0.63069 0.0
C452 C 0.50204 0.2363 0.62643 0.0
C453 C 0.46176 0.18924 0.64724 0.0
C454 C 0.42188 0.23065 0.69942 0.0
H455 H 0.30521 0.10009 0.75991 0.0
H456 H 0.34005 0.11998 0.72618 0.0
H457 H 0.40207 0.23601 0.73333 0.0
H458 H 0.4932 0.29763 0.63597 0.0
H459 H 0.44416 0.2836 0.66471 0.0
H460 H 0.3823 0.16926 0.66003 0.0
C461 C 0.33133 0.14266 0.738 0.0
C462 C 0.39679 0.22178 0.71733 0.0
C463 C 0.3115 0.1312 0.7575 0.0
C464 C 0.48468 0.26717 0.63879 0.0
C465 C 0.45671 0.25916 0.65538 0.0
C466 C 0.38677 0.18402 0.67597 0.0
C467 C 0.34161 0.18242 0.73447 0.0
C468 C 0.3664 0.1938 0.71484 0.0
C469 C 0.44524 0.22011 0.65997 0.0
C470 C 0.41739 0.21162 0.67861 0.0
H471 H 0.30299 0.22154 0.78243 0.0
H472 H 0.33682 0.24169 0.74814 0.0
H473 H 0.33802 0.15405 0.69123 0.0
H474 H 0.50283 0.17277 0.62151 0.0
H475 H 0.45374 0.1588 0.65054 0.0
C476 C 0.37959 0.81091 0.0068 0.0
C477 C 0.35192 0.80381 0.02394 0.0
C478 C 0.36886 0.83175 0.98752 0.0
C479 C 0.28466 0.86768 0.95382 0.0
H480 H 0.35667 0.95255 0.93835 0.0
C481 C 0.24236 0.99437 0.89307 0.0
C482 C 0.27186 0.00965 0.87891 0.0
C483 C 0.25163 0.96629 0.90946 0.0
C484 C 0.3365 0.92862 0.94213 0.0
H485 H 0.29056 0.8111 0.03356 0.0
H486 H 0.27187 0.84757 -0.00019 0.0
H487 H 0.37332 0.90753 0.96869 0.0
H488 H 0.33408 0.00655 0.87049 0.0
H489 H 0.35006 0.957 0.89868 0.0
H490 H 0.24778 0.8889 0.92722 0.0
C491 C 0.3019 0.83694 0.00136 0.0
C492 C 0.34606 0.90281 0.95958 0.0
C493 C 0.31266 0.81613 0.02074 0.0
C494 C 0.31068 0.99561 0.88121 0.0
C495 C 0.31989 0.96733 0.89748 0.0
C496 C 0.27518 0.89341 0.93622 0.0
C497 C 0.33018 0.8459 0.98485 0.0
C498 C 0.32023 0.87214 0.96568 0.0
C499 C 0.29058 0.95264 0.91201 0.0
C500 C 0.30094 0.92432 0.93022 0.0
H501 H 0.41 0.80151 0.00855 0.0
H502 H 0.39112 0.83755 0.97489 0.0
H503 H 0.26432 0.84413 0.95804 0.0
H504 H 0.21219 1.00473 0.89183 0.0
H505 H 0.22841 0.95609 0.92053 0.0
C506 C 0.51368 0.81344 0.13177 0.0
C507 C 0.50057 0.77432 0.12907 0.0
C508 C 0.54182 0.82281 0.14807 0.0
C509 C 0.61716 0.77843 0.18596 0.0
H510 H 0.60171 0.87541 0.21949 0.0
C511 C 0.69536 0.81469 0.27029 0.0
C512 C 0.70713 0.85408 0.27383 0.0
C513 C 0.67425 0.80421 0.25099 0.0
C514 C 0.60678 0.84848 0.21009 0.0
H515 H 0.50694 0.7143 0.14138 0.0
H516 H 0.55534 0.73076 0.17012 0.0
H517 H 0.55654 0.85874 0.18925 0.0
H518 H 0.70795 0.91282 0.25911 0.0
H519 H 0.67134 0.89445 0.22556 0.0
H520 H 0.66697 0.7679 0.20737 0.0
C521 C 0.54453 0.75412 0.15933 0.0
C522 C 0.58089 0.83892 0.19269 0.0
C523 C 0.51657 0.74471 0.14291 0.0
C524 C 0.69905 0.88227 0.25709 0.0
C525 C 0.67786 0.87183 0.23788 0.0
C526 C 0.64297 0.78791 0.2035 0.0
C527 C 0.55731 0.79335 0.16223 0.0
C528 C 0.58566 0.80376 0.1804 0.0
C529 C 0.66439 0.83292 0.23487 0.0
C530 C 0.63803 0.82306 0.21575 0.0
H531 H 0.50214 0.83695 0.12131 0.0
H532 H 0.55146 0.85321 0.14954 0.0
H533 H 0.62206 0.75137 0.17666 0.0
H534 H 0.70115 0.79219 0.2828 0.0
H535 H 0.66414 0.77401 0.24918 0.0
C536 C 0.22149 0.13478 0.9226 0.0
C537 C 0.22306 0.16296 0.9053 0.0
C538 C 0.22009 0.14667 0.94497 0.0
C539 C 0.18798 0.22811 0.98019 0.0
H540 H 0.24422 0.17037 0.0265 0.0
C541 C 0.13467 0.21977 0.07117 0.0
C542 C 0.16263 0.22163 0.08855 0.0
C543 C 0.14677 0.21835 0.04884 0.0
C544 C 0.22878 0.1872 0.01376 0.0
H545 H 0.22518 0.22574 0.89789 0.0
H546 H 0.22231 0.24653 0.93717 0.0
H547 H 0.25866 0.1573 0.98704 0.0
H548 H 0.22525 0.22409 0.09613 0.0
H549 H 0.24639 0.22121 0.05693 0.0
H550 H 0.15746 0.25735 0.00691 0.0
C551 C 0.22209 0.21525 0.93329 0.0
C552 C 0.23678 0.17947 0.99121 0.0
C553 C 0.22377 0.20334 0.91085 0.0
C554 C 0.203 0.22245 0.08311 0.0
C555 C 0.21512 0.22077 0.06071 0.0
C556 C 0.17987 0.23571 0.00274 0.0
C557 C 0.22009 0.18699 0.95053 0.0
C558 C 0.21572 0.19912 0.97424 0.0
C559 C 0.18708 0.21863 0.04339 0.0
C560 C 0.19947 0.21459 0.01971 0.0
H561 H 0.22119 0.10342 0.9189 0.0
H562 H 0.21797 0.12425 0.9579 0.0
H563 H 0.17119 0.24356 0.96745 0.0
H564 H 0.10333 0.21935 0.07478 0.0
H565 H 0.12452 0.2161 0.03585 0.0
C566 C 0.37585 0.72101 0.17197 0.0
C567 C 0.34793 0.72283 0.15456 0.0
C568 C 0.36371 0.7202 0.1943 0.0
C569 C 0.33091 0.73854 0.24034 0.0
H570 H 0.25109 0.66135 0.25633 0.0
C571 C 0.28778 0.7062 0.33246 0.0
C572 C 0.28807 0.66575 0.33785 0.0
C573 C 0.28928 0.71838 0.31005 0.0
C574 C 0.27324 0.6832 0.25208 0.0
H575 H 0.28536 0.72589 0.14694 0.0
H576 H 0.26414 0.72409 0.18615 0.0
H577 H 0.26546 0.67399 0.21684 0.0
H578 H 0.28906 0.60637 0.32399 0.0
H579 H 0.29195 0.62762 0.28509 0.0
H580 H 0.33997 0.74639 0.27561 0.0
C581 C 0.2954 0.7232 0.18239 0.0
C582 C 0.28121 0.69069 0.2295 0.0
C583 C 0.30757 0.72425 0.15998 0.0
C584 C 0.28908 0.63778 0.32042 0.0
C585 C 0.29029 0.64992 0.29811 0.0
C586 C 0.32284 0.73116 0.26293 0.0
C587 C 0.32339 0.72109 0.19974 0.0
C588 C 0.31094 0.71757 0.22344 0.0
C589 C 0.29064 0.69029 0.29269 0.0
C590 C 0.29476 0.70256 0.26899 0.0
H591 H 0.40719 0.72014 0.16838 0.0
H592 H 0.38592 0.71794 0.20732 0.0
H593 H 0.35363 0.7598 0.23609 0.0
H594 H 0.28682 0.72845 0.34553 0.0
H595 H 0.28938 0.7497 0.30628 0.0
C596 C 0.79227 0.87339 0.42168 0.0
C597 C 0.79084 0.84595 0.40401 0.0
C598 C 0.79498 0.86054 0.44383 0.0
C599 C 0.8306 0.77881 0.47767 0.0
H600 H 0.77224 0.83183 0.52494 0.0
C601 C 0.88246 0.78424 0.56925 0.0
C602 C 0.85408 0.78135 0.58636 0.0
C603 C 0.87089 0.78578 0.54681 0.0
C604 C 0.78831 0.81629 0.51193 0.0
H605 H 0.79056 0.78349 0.39567 0.0
H606 H 0.79572 0.76103 0.43459 0.0
H607 H 0.75725 0.84643 0.48577 0.0
H608 H 0.79135 0.7766 0.59336 0.0
H609 H 0.77121 0.77952 0.55408 0.0
H610 H 0.86224 0.7493 0.50387 0.0
C611 C 0.79477 0.79246 0.43117 0.0
C612 C 0.77999 0.82492 0.48955 0.0
C613 C 0.79174 0.80533 0.40895 0.0
C614 C 0.81392 0.77914 0.58056 0.0
C615 C 0.80236 0.78086 0.5581 0.0
C616 C 0.83905 0.7703 0.50008 0.0
C617 C 0.79648 0.82 0.44878 0.0
C618 C 0.8017 0.80697 0.47225 0.0
C619 C 0.83072 0.78453 0.54105 0.0
C620 C 0.81859 0.78965 0.5174 0.0
H621 H 0.79138 0.90489 0.41845 0.0
H622 H 0.79682 0.88242 0.45707 0.0
H623 H 0.84788 0.76469 0.46464 0.0
H624 H 0.91366 0.7857 0.57315 0.0
H625 H 0.89337 0.78913 0.53402 0.0
C626 C 0.62495 0.30229 0.67238 0.0
C627 C 0.65052 0.28348 0.65723 0.0
C628 C 0.63427 0.30425 0.6951 0.0
C629 C 0.71788 0.29761 0.7345 0.0
H630 H 0.63296 0.29654 0.77822 0.0
C631 C 0.73514 0.31322 0.83192 0.0
C632 C 0.71574 0.34735 0.83963 0.0
C633 C 0.729 0.29975 0.81002 0.0
C634 C 0.65691 0.29653 0.76616 0.0
H635 H 0.7056 0.25132 0.654 0.0
H636 H 0.72154 0.25394 0.69397 0.0
H637 H 0.61867 0.28149 0.73902 0.0
H638 H 0.67455 0.3939 0.83076 0.0
H639 H 0.663 0.36956 0.79274 0.0
H640 H 0.75597 0.31257 0.76201 0.0
C641 C 0.69467 0.26791 0.68816 0.0
C642 C 0.64879 0.28828 0.74373 0.0
C643 C 0.68553 0.26635 0.6653 0.0
C644 C 0.68997 0.3676 0.82521 0.0
C645 C 0.6832 0.35364 0.80357 0.0
C646 C 0.72608 0.30521 0.75707 0.0
C647 C 0.6691 0.28692 0.70331 0.0
C648 C 0.67892 0.29006 0.7275 0.0
C649 C 0.70269 0.31972 0.79585 0.0
C650 C 0.69542 0.30583 0.77286 0.0
H651 H 0.59786 0.31601 0.66667 0.0
H652 H 0.61438 0.32002 0.70616 0.0
H653 H 0.74172 0.29952 0.72244 0.0
H654 H 0.75535 0.29728 0.84273 0.0
H655 H 0.74432 0.27354 0.80425 0.0
C656 C 0.23454 0.14863 0.16568 0.0
C657 C 0.19345 0.14262 0.16602 0.0
C658 C 0.26026 0.11666 0.16274 0.0
C659 C 0.27004 0.0093 0.16683 0.0
H660 H 0.33139 0.015 0.11192 0.0
C661 C 0.31851 0.86961 0.12143 0.0
C662 C 0.3541 0.86814 0.10928 0.0
C663 C 0.30542 0.90469 0.13105 0.0
C664 C 0.31529 0.01309 0.12758 0.0
H665 H 0.14722 0.09847 0.16496 0.0
H666 H 0.19227 0.04244 0.1608 0.0
H667 H 0.29688 0.07369 0.1256 0.0
H668 H 0.40403 0.9028 0.09791 0.0
H669 H 0.38131 0.96465 0.11522 0.0
H670 H 0.28812 0.94897 0.16901 0.0
C671 C 0.20449 0.07188 0.1625 0.0
C672 C 0.29543 0.04672 0.13537 0.0
C673 C 0.17875 0.10387 0.16489 0.0
C674 C 0.37644 0.90296 0.1071 0.0
C675 C 0.36335 0.93836 0.11698 0.0
C676 C 0.2904 0.97595 0.15931 0.0
C677 C 0.24537 0.07811 0.16067 0.0
C678 C 0.27161 0.04471 0.15466 0.0
C679 C 0.32763 0.93957 0.12914 0.0
C680 C 0.31203 0.97692 0.13909 0.0
H681 H 0.2467 0.17823 0.16621 0.0
H682 H 0.29168 0.12215 0.16142 0.0
H683 H 0.25222 0.00716 0.18189 0.0
H684 H 0.30016 0.8436 0.12335 0.0
H685 H 0.27723 0.90448 0.13962 0.0
C686 C 0.36229 0.73725 0.41458 0.0
C687 C 0.36829 0.69612 0.41517 0.0
C688 C 0.39427 0.76298 0.41167 0.0
C689 C 0.50143 0.7728 0.41638 0.0
H690 H 0.49695 0.83349 0.36116 0.0
C691 C 0.64194 0.82045 0.3716 0.0
C692 C 0.64372 0.85584 0.35923 0.0
C693 C 0.6067 0.80759 0.38111 0.0
C694 C 0.49851 0.81758 0.37691 0.0
H695 H 0.41238 0.64982 0.41454 0.0
H696 H 0.4684 0.69488 0.41047 0.0
H697 H 0.43801 0.7992 0.37463 0.0
H698 H 0.60941 0.9057 0.34739 0.0
H699 H 0.5473 0.88341 0.3645 0.0
H700 H 0.56166 0.79084 0.41885 0.0
C701 C 0.43898 0.70715 0.41194 0.0
C702 C 0.46474 0.79784 0.38457 0.0
C703 C 0.40699 0.68139 0.41429 0.0
C704 C 0.60904 0.87827 0.35676 0.0
C705 C 0.57348 0.86541 0.36652 0.0
C706 C 0.53493 0.79304 0.40897 0.0
C707 C 0.43281 0.74806 0.40989 0.0
C708 C 0.46631 0.77425 0.40398 0.0
C709 C 0.57195 0.82985 0.37886 0.0
C710 C 0.53441 0.81442 0.38865 0.0
H711 H 0.33271 0.7494 0.41489 0.0
H712 H 0.38882 0.79442 0.41018 0.0
H713 H 0.50324 0.75516 0.43153 0.0
H714 H 0.66781 0.80204 0.37378 0.0
H715 H 0.6067 0.77952 0.38984 0.0
C716 C 0.63868 0.10242 0.59518 0.0
C717 C 0.64351 0.13669 0.60821 0.0
C718 C 0.65314 0.066 0.60284 0.0
C719 C 0.68989 0.0118 0.65289 0.0
H720 H 0.76125 0.96183 0.61066 0.0
C721 C 0.77976 0.86401 0.66661 0.0
C722 C 0.81985 0.86723 0.66063 0.0
C723 C 0.75365 0.8955 0.6626 0.0
C724 C 0.74122 0.97532 0.62259 0.0
H725 H 0.66477 0.15922 0.64009 0.0
H726 H 0.68935 0.09578 0.65351 0.0
H727 H 0.72085 0.01752 0.59848 0.0
H728 H 0.86437 0.90729 0.64755 0.0
H729 H 0.81898 0.96145 0.64044 0.0
H730 H 0.71112 0.96967 0.6771 0.0
C731 C 0.67469 0.09696 0.63737 0.0
C732 C 0.71781 0.00696 0.61556 0.0
C733 C 0.66085 0.13336 0.62958 0.0
C734 C 0.83364 0.90348 0.6521 0.0
C735 C 0.80764 0.93453 0.6479 0.0
C736 C 0.71295 0.97961 0.65984 0.0
C737 C 0.67201 0.06308 0.62384 0.0
C738 C 0.6925 0.02613 0.63073 0.0
C739 C 0.76721 0.93044 0.65239 0.0
C740 C 0.73955 0.96176 0.64487 0.0
H741 H 0.62551 0.10407 0.57864 0.0
H742 H 0.65048 0.04029 0.59211 0.0
H743 H 0.67052 0.02594 0.66492 0.0
H744 H 0.76814 0.83652 0.67318 0.0
H745 H 0.72258 0.89175 0.66632 0.0
C746 C 0.36891 0.1842 0.87538 0.0
C747 C 0.36804 0.154 0.8591 0.0
C748 C 0.40456 0.19903 0.88331 0.0
C749 C 0.50616 0.18458 0.89512 0.0
H750 H 0.51766 0.2956 0.88028 0.0
C751 C 0.64806 0.27747 0.91307 0.0
C752 C 0.64317 0.31829 0.91648 0.0
C753 C 0.61536 0.25342 0.90846 0.0
C754 C 0.51477 0.26482 0.88497 0.0
H755 H 0.40441 0.11414 0.83947 0.0
H756 H 0.46753 0.14023 0.85383 0.0
H757 H 0.46049 0.25927 0.8669 0.0
H758 H 0.60035 0.36532 0.91986 0.0
H759 H 0.54321 0.32323 0.91325 0.0
H760 H 0.55989 0.19047 0.91392 0.0
C761 C 0.44005 0.15228 0.86012 0.0
C762 C 0.48223 0.24393 0.877 0.0
C763 C 0.40403 0.13751 0.85189 0.0
C764 C 0.60489 0.33395 0.91721 0.0
C765 C 0.57225 0.30987 0.91306 0.0
C766 C 0.53873 0.20571 0.90341 0.0
C767 C 0.4404 0.18383 0.87548 0.0
C768 C 0.47739 0.20381 0.88216 0.0
C769 C 0.57717 0.26972 0.90745 0.0
C770 C 0.5431 0.24634 0.8987 0.0
H771 H 0.34193 0.1974 0.88164 0.0
H772 H 0.40415 0.22319 0.89527 0.0
H773 H 0.50275 0.15366 0.89944 0.0
H774 H 0.67735 0.26473 0.9121 0.0
H775 H 0.6204 0.22271 0.90422 0.0
C776 C 0.8621 0.60388 0.64706 0.0
C777 C 0.86222 0.63876 0.6343 0.0
C778 C 0.84712 0.56868 0.63792 0.0
C779 C 0.77851 0.53648 0.5928 0.0
H780 H 0.81076 0.43142 0.61108 0.0
C781 C 0.67561 0.40281 0.58553 0.0
C782 C 0.69112 0.36495 0.58148 0.0
C783 C 0.70048 0.43533 0.58816 0.0
C784 C 0.80176 0.46051 0.60548 0.0
H785 H 0.84993 0.6636 0.60151 0.0
H786 H 0.82575 0.60232 0.5853 0.0
H787 H 0.84917 0.4887 0.62316 0.0
H788 H 0.74507 0.33198 0.57586 0.0
H789 H 0.7888 0.38924 0.5801 0.0
H790 H 0.73144 0.50853 0.57498 0.0
C791 C 0.83541 0.60211 0.60263 0.0
C792 C 0.82348 0.49345 0.61269 0.0
C793 C 0.8496 0.63724 0.61186 0.0
C794 C 0.73217 0.36079 0.57885 0.0
C795 C 0.75723 0.3935 0.58158 0.0
C796 C 0.75707 0.50367 0.58549 0.0
C797 C 0.83257 0.56763 0.61573 0.0
C798 C 0.81176 0.53198 0.60675 0.0
C799 C 0.74169 0.43103 0.58677 0.0
C800 C 0.76781 0.46529 0.59213 0.0
H801 H 0.87152 0.60431 0.66444 0.0
H802 H 0.84522 0.54288 0.64862 0.0
H803 H 0.76801 0.56553 0.58807 0.0
H804 H 0.64413 0.40709 0.58764 0.0
H805 H 0.68732 0.46353 0.59238 0.0
C806 C 0.14928 0.23689 0.82916 0.0
C807 C 0.143 0.1958 0.82836 0.0
C808 C 0.11746 0.26279 0.83212 0.0
C809 C 0.01061 0.27371 0.82695 0.0
H810 H 0.01451 0.33301 0.88267 0.0
C811 C 0.8696 0.32217 0.87098 0.0
C812 C 0.86808 0.35708 0.8838 0.0
C813 C 0.90486 0.30915 0.86157 0.0
C814 C 0.01312 0.31751 0.86678 0.0
H815 H 0.09857 0.1498 0.82869 0.0
H816 H 0.04283 0.19519 0.83285 0.0
H817 H 0.07335 0.29836 0.86938 0.0
H818 H 0.90285 0.40599 0.89646 0.0
H819 H 0.96498 0.38347 0.8795 0.0
H820 H 0.95069 0.29257 0.82414 0.0
C821 C 0.07236 0.20726 0.83151 0.0
C822 C 0.04683 0.29755 0.85923 0.0
C823 C 0.10418 0.18132 0.82911 0.0
C824 C 0.90301 0.37893 0.88675 0.0
C825 C 0.9386 0.36593 0.87708 0.0
C826 C 0.97719 0.29419 0.83425 0.0
C827 C 0.07881 0.2481 0.83374 0.0
C828 C 0.04545 0.27446 0.83963 0.0
C829 C 0.9399 0.33078 0.86435 0.0
C830 C 0.97747 0.31508 0.85473 0.0
H831 H 0.17894 0.24884 0.82894 0.0
H832 H 0.12312 0.29417 0.83377 0.0
H833 H 0.00896 0.25646 0.81166 0.0
H834 H 0.84351 0.30423 0.8684 0.0
H835 H 0.90463 0.2814 0.85252 0.0
C836 C 0.27639 0.64866 0.07763 0.0
C837 C 0.31749 0.64273 0.07724 0.0
C838 C 0.25072 0.61665 0.08062 0.0
C839 C 0.24097 0.50933 0.07642 0.0
H840 H 0.17979 0.51467 0.1314 0.0
C841 C 0.19208 0.36926 0.1214 0.0
C842 C 0.15661 0.36783 0.13366 0.0
C843 C 0.20527 0.40439 0.11187 0.0
C844 C 0.19584 0.51286 0.11572 0.0
H845 H 0.36378 0.59865 0.07828 0.0
H846 H 0.31882 0.54254 0.0825 0.0
H847 H 0.21434 0.57343 0.11783 0.0
H848 H 0.10696 0.40262 0.14528 0.0
H849 H 0.12981 0.46453 0.1281 0.0
H850 H 0.22277 0.44905 0.07409 0.0
C851 C 0.30655 0.57196 0.08082 0.0
C852 C 0.21573 0.54653 0.108 0.0
C853 C 0.33225 0.604 0.07839 0.0
C854 C 0.13445 0.40273 0.136 0.0
C855 C 0.14763 0.43818 0.1262 0.0
C856 C 0.22058 0.47594 0.08388 0.0
C857 C 0.26567 0.57812 0.08268 0.0
C858 C 0.23948 0.54466 0.08867 0.0
C859 C 0.18327 0.43937 0.11396 0.0
C860 C 0.19899 0.47677 0.10411 0.0
H861 H 0.26419 0.67824 0.0771 0.0
H862 H 0.2193 0.62207 0.08196 0.0
H863 H 0.25873 0.5073 0.06133 0.0
H864 H 0.21029 0.3432 0.11934 0.0
H865 H 0.23339 0.40413 0.10322 0.0
C866 C 0.86202 0.77533 0.3273 0.0
C867 C 0.86819 0.81643 0.32649 0.0
C868 C 0.89391 0.74951 0.33029 0.0
C869 C 1.00121 0.73948 0.32571 0.0
H870 H 0.99618 0.67926 0.38108 0.0
C871 C 0.14123 0.6928 0.37118 0.0
C872 C 0.14308 0.65733 0.38348 0.0
C873 C 0.10603 0.70549 0.36158 0.0
C874 C 0.99789 0.69504 0.36529 0.0
H875 H 0.9125 0.86254 0.32677 0.0
H876 H 0.96834 0.81734 0.33097 0.0
H877 H 0.93734 0.71336 0.36732 0.0
H878 H 0.10891 0.60724 0.39515 0.0
H879 H 0.04684 0.62929 0.3779 0.0
H880 H 0.06151 0.72156 0.32353 0.0
C881 C 0.93886 0.80515 0.32961 0.0
C882 C 0.96418 0.71466 0.35745 0.0
C883 C 0.90697 0.831 0.32718 0.0
C884 C 0.10849 0.63473 0.38584 0.0
C885 C 0.07295 0.64744 0.37599 0.0
C886 C 0.03465 0.71939 0.3333 0.0
C887 C 0.93253 0.7643 0.33192 0.0
C888 C 0.96594 0.73811 0.33799 0.0
C889 C 0.07138 0.68301 0.36366 0.0
C890 C 0.03392 0.69819 0.35368 0.0
H891 H 0.83239 0.7633 0.32715 0.0
H892 H 0.88832 0.71812 0.33198 0.0
H893 H 1.00318 0.75698 0.31052 0.0
H894 H 0.16703 0.71135 0.3691 0.0
H895 H 0.10596 0.73358 0.35286 0.0
loop_
_geom_bond_atom_site_label_1
_geom_bond_atom_site_label_2
_geom_bond_distance
_geom_bond_site_symmetry_2
_ccdc_geom_bond_type
Fe0 O2 1.918 . S
Fe0 O5 1.997 . S
Fe0 O6 2.002 . S
Fe0 O11 1.976 . S
Fe0 O14 1.996 . S
Fe1 O2 1.918 . S
Fe1 O9 1.997 . S
Fe1 O12 1.996 . S
Fe1 O16 1.976 . S
Fe1 O19 2.002 . S
O2 Fe0 1.918 . S
O2 Fe1 1.918 . S
O2 Fe3 1.918 . S
Fe3 O2 1.918 . S
Fe3 O4 2.002 . S
Fe3 O13 1.976 . S
Fe3 O17 1.996 . S
Fe3 O20 1.997 . S
O4 Fe3 2.002 . S
O4 C21 1.295 . S
O5 Fe0 1.997 . S
O5 C21 1.235 . S
O6 Fe0 2.002 . S
O6 C7 1.295 . S
C7 O6 1.295 . S
C7 O9 1.235 . S
C8 O13 1.287 . S
C8 O14 1.255 . S
O9 Fe1 1.997 . S
O9 C7 1.235 . S
C10 O16 1.287 . S
C10 O17 1.255 . S
O11 Fe0 1.976 . S
O11 C18 1.287 . S
O12 Fe1 1.996 . S
O12 C18 1.255 . S
O13 Fe3 1.976 . S
O13 C8 1.287 . S
O14 Fe0 1.996 . S
O14 C8 1.255 . S
C15 O19 1.295 . S
C15 O20 1.235 . S
O16 Fe1 1.976 . S
O16 C10 1.287 . S
O17 Fe3 1.996 . S
O17 C10 1.255 . S
C18 O11 1.287 . S
C18 O12 1.255 . S
O19 Fe1 2.002 . S
O19 C15 1.295 . S
O20 Fe3 1.997 . S
O20 C15 1.235 . S
C21 O4 1.295 . S
C21 O5 1.235 . S
Fe22 O24 1.918 . S
Fe22 O27 1.997 . S
Fe22 O28 2.002 . S
Fe22 O33 1.976 . S
Fe22 O36 1.996 . S
Fe23 O24 1.918 . S
Fe23 O31 1.997 . S
Fe23 O34 1.996 . S
Fe23 O38 1.976 . S
Fe23 O41 2.002 . S
O24 Fe22 1.918 . S
O24 Fe23 1.918 . S
O24 Fe25 1.918 . S
Fe25 O24 1.918 . S
Fe25 O26 2.002 . S
Fe25 O35 1.976 . S
Fe25 O39 1.996 . S
Fe25 O42 1.997 . S
O26 Fe25 2.002 . S
O26 C43 1.295 . S
O27 Fe22 1.997 . S
O27 C43 1.235 . S
O28 Fe22 2.002 . S
O28 C29 1.295 . S
C29 O28 1.295 . S
C29 O31 1.235 . S
C30 O35 1.287 . S
C30 O36 1.255 . S
O31 Fe23 1.997 . S
O31 C29 1.235 . S
C32 O38 1.287 . S
C32 O39 1.255 . S
O33 Fe22 1.976 . S
O33 C40 1.287 . S
O34 Fe23 1.996 . S
O34 C40 1.255 . S
O35 Fe25 1.976 . S
O35 C30 1.287 . S
O36 Fe22 1.996 . S
O36 C30 1.255 . S
C37 O41 1.295 . S
C37 O42 1.235 . S
O38 Fe23 1.976 . S
O38 C32 1.287 . S
O39 Fe25 1.996 . S
O39 C32 1.255 . S
C40 O33 1.287 . S
C40 O34 1.255 . S
O41 Fe23 2.002 . S
O41 C37 1.295 . S
O42 Fe25 1.997 . S
O42 C37 1.235 . S
C43 O26 1.295 . S
C43 O27 1.235 . S
Fe44 O46 1.918 . S
Fe44 O49 1.997 . S
Fe44 O50 2.002 . S
Fe44 O55 1.976 . S
Fe44 O58 1.996 . S
Fe45 O46 1.918 . S
Fe45 O53 1.997 . S
Fe45 O56 1.996 . S
Fe45 O60 1.976 . S
Fe45 O63 2.002 . S
O46 Fe44 1.918 . S
O46 Fe45 1.918 . S
O46 Fe47 1.918 . S
Fe47 O46 1.918 . S
Fe47 O48 2.002 . S
Fe47 O57 1.976 . S
Fe47 O61 1.996 . S
Fe47 O64 1.997 . S
O48 Fe47 2.002 . S
O48 C65 1.295 . S
O49 Fe44 1.997 . S
O49 C65 1.235 . S
O50 Fe44 2.002 . S
O50 C51 1.295 . S
C51 O50 1.295 . S
C51 O53 1.235 . S
C52 O57 1.287 . S
C52 O58 1.255 . S
O53 Fe45 1.997 . S
O53 C51 1.235 . S
C54 O60 1.287 . S
C54 O61 1.255 . S
O55 Fe44 1.976 . S
O55 C62 1.287 . S
O56 Fe45 1.996 . S
O56 C62 1.255 . S
O57 Fe47 1.976 . S
O57 C52 1.287 . S
O58 Fe44 1.996 . S
O58 C52 1.255 . S
C59 O63 1.295 . S
C59 O64 1.235 . S
O60 Fe45 1.976 . S
O60 C54 1.287 . S
O61 Fe47 1.996 . S
O61 C54 1.255 . S
C62 O55 1.287 . S
C62 O56 1.255 . S
O63 Fe45 2.002 . S
O63 C59 1.295 . S
O64 Fe47 1.997 . S
O64 C59 1.235 . S
C65 O48 1.295 . S
C65 O49 1.235 . S
Fe66 O68 1.918 . S
Fe66 O71 1.997 . S
Fe66 O72 2.002 . S
Fe66 O77 1.976 . S
Fe66 O80 1.996 . S
Fe67 O68 1.918 . S
Fe67 O75 1.997 . S
Fe67 O78 1.996 . S
Fe67 O82 1.976 . S
Fe67 O85 2.002 . S
O68 Fe66 1.918 . S
O68 Fe67 1.918 . S
O68 Fe69 1.918 . S
Fe69 O68 1.918 . S
Fe69 O70 2.002 . S
Fe69 O79 1.976 . S
Fe69 O83 1.996 . S
Fe69 O86 1.997 . S
O70 Fe69 2.002 . S
O70 C87 1.295 . S
O71 Fe66 1.997 . S
O71 C87 1.235 . S
O72 Fe66 2.002 . S
O72 C73 1.295 . S
C73 O72 1.295 . S
C73 O75 1.235 . S
C74 O79 1.287 . S
C74 O80 1.255 . S
O75 Fe67 1.997 . S
O75 C73 1.235 . S
C76 O82 1.287 . S
C76 O83 1.255 . S
O77 Fe66 1.976 . S
O77 C84 1.287 . S
O78 Fe67 1.996 . S
O78 C84 1.255 . S
O79 Fe69 1.976 . S
O79 C74 1.287 . S
O80 Fe66 1.996 . S
O80 C74 1.255 . S
C81 O85 1.295 . S
C81 O86 1.235 . S
O82 Fe67 1.976 . S
O82 C76 1.287 . S
O83 Fe69 1.996 . S
O83 C76 1.255 . S
C84 O77 1.287 . S
C84 O78 1.255 . S
O85 Fe67 2.002 . S
O85 C81 1.295 . S
O86 Fe69 1.997 . S
O86 C81 1.235 . S
C87 O70 1.295 . S
C87 O71 1.235 . S
Fe88 O90 1.918 . S
Fe88 O93 1.997 . S
Fe88 O94 2.002 . S
Fe88 O99 1.976 . S
Fe88 O102 1.996 . S
Fe89 O90 1.918 . S
Fe89 O97 1.997 . S
Fe89 O100 1.996 . S
Fe89 O104 1.976 . S
Fe89 O107 2.002 . S
O90 Fe88 1.918 . S
O90 Fe89 1.918 . S
O90 Fe91 1.918 . S
Fe91 O90 1.918 . S
Fe91 O92 2.002 . S
Fe91 O101 1.976 . S
Fe91 O105 1.996 . S
Fe91 O108 1.997 . S
O92 Fe91 2.002 . S
O92 C109 1.295 . S
O93 Fe88 1.997 . S
O93 C109 1.235 . S
O94 Fe88 2.002 . S
O94 C95 1.295 . S
C95 O94 1.295 . S
C95 O97 1.235 . S
C96 O101 1.287 . S
C96 O102 1.255 . S
O97 Fe89 1.997 . S
O97 C95 1.235 . S
C98 O104 1.287 . S
C98 O105 1.255 . S
O99 Fe88 1.976 . S
O99 C106 1.287 . S
O100 Fe89 1.996 . S
O100 C106 1.255 . S
O101 Fe91 1.976 . S
O101 C96 1.287 . S
O102 Fe88 1.996 . S
O102 C96 1.255 . S
C103 O107 1.295 . S
C103 O108 1.235 . S
O104 Fe89 1.976 . S
O104 C98 1.287 . S
O105 Fe91 1.996 . S
O105 C98 1.255 . S
C106 O99 1.287 . S
C106 O100 1.255 . S
O107 Fe89 2.002 . S
O107 C103 1.295 . S
O108 Fe91 1.997 . S
O108 C103 1.235 . S
C109 O92 1.295 . S
C109 O93 1.235 . S
Fe110 O112 1.918 . S
Fe110 O115 1.997 . S
Fe110 O116 2.002 . S
Fe110 O121 1.976 . S
Fe110 O124 1.996 . S
Fe111 O112 1.918 . S
Fe111 O119 1.997 . S
Fe111 O122 1.996 . S
Fe111 O126 1.976 . S
Fe111 O129 2.002 . S
O112 Fe110 1.918 . S
O112 Fe111 1.918 . S
O112 Fe113 1.918 . S
Fe113 O112 1.918 . S
Fe113 O114 2.002 . S
Fe113 O123 1.976 . S
Fe113 O127 1.996 . S
Fe113 O130 1.997 . S
O114 Fe113 2.002 . S
O114 C131 1.295 . S
O115 Fe110 1.997 . S
O115 C131 1.235 . S
O116 Fe110 2.002 . S
O116 C117 1.295 . S
C117 O116 1.295 . S
C117 O119 1.235 . S
C118 O123 1.287 . S
C118 O124 1.255 . S
O119 Fe111 1.997 . S
O119 C117 1.235 . S
C120 O126 1.287 . S
C120 O127 1.255 . S
O121 Fe110 1.976 . S
O121 C128 1.287 . S
O122 Fe111 1.996 . S
O122 C128 1.255 . S
O123 Fe113 1.976 . S
O123 C118 1.287 . S
O124 Fe110 1.996 . S
O124 C118 1.255 . S
C125 O129 1.295 . S
C125 O130 1.235 . S
O126 Fe111 1.976 . S
O126 C120 1.287 . S
O127 Fe113 1.996 . S
O127 C120 1.255 . S
C128 O121 1.287 . S
C128 O122 1.255 . S
O129 Fe111 2.002 . S
O129 C125 1.295 . S
O130 Fe113 1.997 . S
O130 C125 1.235 . S
C131 O114 1.295 . S
C131 O115 1.235 . S
Fe132 O134 1.918 . S
Fe132 O137 1.997 . S
Fe132 O138 2.002 . S
Fe132 O143 1.976 . S
Fe132 O146 1.996 . S
Fe133 O134 1.918 . S
Fe133 O141 1.997 . S
Fe133 O144 1.996 . S
Fe133 O148 1.976 . S
Fe133 O151 2.002 . S
O134 Fe132 1.918 . S
O134 Fe133 1.918 . S
O134 Fe135 1.918 . S
Fe135 O134 1.918 . S
Fe135 O136 2.002 . S
Fe135 O145 1.976 . S
Fe135 O149 1.996 . S
Fe135 O152 1.997 . S
O136 Fe135 2.002 . S
O136 C153 1.295 . S
O137 Fe132 1.997 . S
O137 C153 1.235 . S
O138 Fe132 2.002 . S
O138 C139 1.295 . S
C139 O138 1.295 . S
C139 O141 1.235 . S
C140 O145 1.287 . S
C140 O146 1.255 . S
O141 Fe133 1.997 . S
O141 C139 1.235 . S
C142 O148 1.287 . S
C142 O149 1.255 . S
O143 Fe132 1.976 . S
O143 C150 1.287 . S
O144 Fe133 1.996 . S
O144 C150 1.255 . S
O145 Fe135 1.976 . S
O145 C140 1.287 . S
O146 Fe132 1.996 . S
O146 C140 1.255 . S
C147 O151 1.295 . S
C147 O152 1.235 . S
O148 Fe133 1.976 . S
O148 C142 1.287 . S
O149 Fe135 1.996 . S
O149 C142 1.255 . S
C150 O143 1.287 . S
C150 O144 1.255 . S
O151 Fe133 2.002 . S
O151 C147 1.295 . S
O152 Fe135 1.997 . S
O152 C147 1.235 . S
C153 O136 1.295 . S
C153 O137 1.235 . S
Fe154 O156 1.918 . S
Fe154 O159 1.997 . S
Fe154 O160 2.002 . S
Fe154 O165 1.976 . S
Fe154 O168 1.996 . S
Fe155 O156 1.918 . S
Fe155 O163 1.997 . S
Fe155 O166 1.996 . S
Fe155 O170 1.976 . S
Fe155 O173 2.002 . S
O156 Fe154 1.918 . S
O156 Fe155 1.918 . S
O156 Fe157 1.918 . S
Fe157 O156 1.918 . S
Fe157 O158 2.002 . S
Fe157 O167 1.976 . S
Fe157 O171 1.996 . S
Fe157 O174 1.997 . S
O158 Fe157 2.002 . S
O158 C175 1.295 . S
O159 Fe154 1.997 . S
O159 C175 1.235 . S
O160 Fe154 2.002 . S
O160 C161 1.295 . S
C161 O160 1.295 . S
C161 O163 1.235 . S
C162 O167 1.287 . S
C162 O168 1.255 . S
O163 Fe155 1.997 . S
O163 C161 1.235 . S
C164 O170 1.287 . S
C164 O171 1.255 . S
O165 Fe154 1.976 . S
O165 C172 1.287 . S
O166 Fe155 1.996 . S
O166 C172 1.255 . S
O167 Fe157 1.976 . S
O167 C162 1.287 . S
O168 Fe154 1.996 . S
O168 C162 1.255 . S
C169 O173 1.295 . S
C169 O174 1.235 . S
O170 Fe155 1.976 . S
O170 C164 1.287 . S
O171 Fe157 1.996 . S
O171 C164 1.255 . S
C172 O165 1.287 . S
C172 O166 1.255 . S
O173 Fe155 2.002 . S
O173 C169 1.295 . S
O174 Fe157 1.997 . S
O174 C169 1.235 . S
C175 O158 1.295 . S
C175 O159 1.235 . S
C176 C177 1.349 . S
C176 C178 1.327 . S
C176 H201 0.950 . S
C177 C176 1.349 . S
C177 C193 1.349 . S
C178 C176 1.327 . S
C178 C197 1.429 . S
C178 H202 0.950 . S
C179 C196 1.574 . S
C179 C198 1.368 . S
C179 H203 0.949 . S
H180 C184 0.949 . S
C181 C182 1.349 1_565 S
C181 C183 1.327 1_565 S
C181 H204 0.950 . S
C182 C181 1.349 1_545 S
C182 C194 1.349 . S
C183 C181 1.327 1_545 S
C183 C199 1.429 . S
C183 H205 0.948 . S
C184 H180 0.949 . S
C184 C192 1.574 . S
C184 C200 1.368 . S
H185 C193 0.950 1_455 S
H186 C191 0.950 . S
H187 C192 0.949 . S
H188 C194 0.950 . S
H189 C195 0.950 . S
H190 C196 0.949 . S
C191 H186 0.950 . S
C191 C193 1.327 . S
C191 C197 1.429 . S
C192 C184 1.574 . S
C192 H187 0.949 . S
C192 C198 1.368 . S
C193 C177 1.349 . S
C193 H185 0.950 1_655 S
C193 C191 1.327 . S
C194 C182 1.349 . S
C194 H188 0.950 . S
C194 C195 1.327 . S
C195 H189 0.950 . S
C195 C194 1.327 . S
C195 C199 1.429 . S
C196 C179 1.574 . S
C196 H190 0.949 . S
C196 C200 1.368 . S
C197 C178 1.429 . S
C197 C191 1.429 . S
C197 C198 1.523 . S
C198 C179 1.368 . S
C198 C192 1.368 . S
C198 C197 1.523 . S
C199 C183 1.429 . S
C199 C195 1.429 . S
C199 C200 1.523 . S
C200 C184 1.368 . S
C200 C196 1.368 . S
C200 C199 1.523 . S
H201 C176 0.950 . S
H202 C178 0.950 . S
H203 C179 0.949 . S
H204 C181 0.950 . S
H205 C183 0.948 . S
C206 C207 1.349 . S
C206 C208 1.327 . S
C206 H231 0.950 . S
C207 C206 1.349 . S
C207 C223 1.349 . S
C208 C206 1.327 . S
C208 C227 1.429 . S
C208 H232 0.950 . S
C209 C226 1.574 . S
C209 C228 1.368 . S
C209 H233 0.949 . S
H210 C214 0.949 . S
C211 C212 1.349 . S
C211 C213 1.327 . S
C211 H234 0.950 . S
C212 C211 1.349 . S
C212 C224 1.349 . S
C213 C211 1.327 . S
C213 C229 1.429 . S
C213 H235 0.950 . S
C214 H210 0.949 . S
C214 C222 1.574 . S
C214 C230 1.368 . S
H215 C223 0.950 . S
H216 C221 0.950 . S
H217 C222 0.949 . S
H218 C224 0.950 . S
H219 C225 0.950 . S
H220 C226 0.949 . S
C221 H216 0.950 . S
C221 C223 1.327 . S
C221 C227 1.429 . S
C222 C214 1.574 . S
C222 H217 0.949 . S
C222 C228 1.368 . S
C223 C207 1.349 . S
C223 H215 0.950 . S
C223 C221 1.327 . S
C224 C212 1.349 . S
C224 H218 0.950 . S
C224 C225 1.327 . S
C225 H219 0.950 . S
C225 C224 1.327 . S
C225 C229 1.429 . S
C226 C209 1.574 . S
C226 H220 0.949 . S
C226 C230 1.368 . S
C227 C208 1.429 . S
C227 C221 1.429 . S
C227 C228 1.523 . S
C228 C209 1.368 . S
C228 C222 1.368 . S
C228 C227 1.523 . S
C229 C213 1.429 . S
C229 C225 1.429 . S
C229 C230 1.523 . S
C230 C214 1.368 . S
C230 C226 1.368 . S
C230 C229 1.523 . S
H231 C206 0.950 . S
H232 C208 0.950 . S
H233 C209 0.949 . S
H234 C211 0.950 . S
H235 C213 0.950 . S
C236 C237 1.349 . S
C236 C238 1.327 . S
C236 H261 0.950 1_455 S
C237 C236 1.349 . S
C237 C253 1.349 . S
C238 C236 1.327 . S
C238 C257 1.429 . S
C238 H262 0.950 . S
C239 C256 1.574 . S
C239 C258 1.368 . S
C239 H263 0.949 . S
H240 C244 0.949 . S
C241 C242 1.349 . S
C241 C243 1.327 . S
C241 H264 0.950 . S
C242 C241 1.349 . S
C242 C254 1.349 1_565 S
C243 C241 1.327 . S
C243 C259 1.429 . S
C243 H265 0.950 . S
C244 H240 0.949 . S
C244 C252 1.574 . S
C244 C260 1.368 . S
H245 C253 0.950 . S
H246 C251 0.950 . S
H247 C252 0.949 . S
H248 C254 0.950 . S
H249 C255 0.950 . S
H250 C256 0.949 . S
C251 H246 0.950 . S
C251 C253 1.327 . S
C251 C257 1.429 . S
C252 C244 1.574 . S
C252 H247 0.949 . S
C252 C258 1.368 . S
C253 C237 1.349 . S
C253 H245 0.950 . S
C253 C251 1.327 . S
C254 C242 1.349 1_545 S
C254 H248 0.950 . S
C254 C255 1.327 1_545 S
C255 H249 0.950 . S
C255 C254 1.327 1_565 S
C255 C259 1.429 . S
C256 C239 1.574 . S
C256 H250 0.949 . S
C256 C260 1.368 . S
C257 C238 1.429 . S
C257 C251 1.429 . S
C257 C258 1.523 . S
C258 C239 1.368 . S
C258 C252 1.368 . S
C258 C257 1.523 . S
C259 C243 1.429 . S
C259 C255 1.429 . S
C259 C260 1.523 . S
C260 C244 1.368 . S
C260 C256 1.368 . S
C260 C259 1.523 . S
H261 C236 0.950 1_655 S
H262 C238 0.950 . S
H263 C239 0.949 . S
H264 C241 0.950 . S
H265 C243 0.950 . S
C266 C267 1.349 . S
C266 C268 1.327 . S
C266 H291 0.950 . S
C267 C266 1.349 . S
C267 C283 1.349 . S
C268 C266 1.327 . S
C268 C287 1.429 . S
C268 H292 0.950 . S
C269 C286 1.574 . S
C269 C288 1.368 . S
C269 H293 0.949 . S
H270 C274 0.949 . S
C271 C272 1.349 . S
C271 C273 1.327 . S
C271 H294 0.950 . S
C272 C271 1.349 . S
C272 C284 1.349 . S
C273 C271 1.327 . S
C273 C289 1.429 . S
C273 H295 0.950 . S
C274 H270 0.949 . S
C274 C282 1.574 . S
C274 C290 1.368 . S
H275 C283 0.950 . S
H276 C281 0.950 . S
H277 C282 0.949 . S
H278 C284 0.950 . S
H279 C285 0.950 . S
H280 C286 0.949 . S
C281 H276 0.950 . S
C281 C283 1.327 . S
C281 C287 1.429 . S
C282 C274 1.574 . S
C282 H277 0.949 . S
C282 C288 1.368 1_556 S
C283 C267 1.349 . S
C283 H275 0.950 . S
C283 C281 1.327 . S
C284 C272 1.349 . S
C284 H278 0.950 . S
C284 C285 1.327 . S
C285 H279 0.950 . S
C285 C284 1.327 . S
C285 C289 1.429 . S
C286 C269 1.574 . S
C286 H280 0.949 . S
C286 C290 1.368 1_554 S
C287 C268 1.429 . S
C287 C281 1.429 . S
C287 C288 1.523 . S
C288 C269 1.368 . S
C288 C282 1.368 1_554 S
C288 C287 1.523 . S
C289 C273 1.429 . S
C289 C285 1.429 . S
C289 C290 1.523 . S
C290 C274 1.368 . S
C290 C286 1.368 1_556 S
C290 C289 1.523 . S
H291 C266 0.950 . S
H292 C268 0.950 . S
H293 C269 0.949 . S
H294 C271 0.950 . S
H295 C273 0.950 . S
C296 C297 1.349 . S
C296 C298 1.327 . S
C296 H321 0.950 . S
C297 C296 1.349 . S
C297 C313 1.349 . S
C298 C296 1.327 . S
C298 C317 1.429 . S
C298 H322 0.950 . S
C299 C316 1.574 . S
C299 C318 1.368 . S
C299 H323 0.949 . S
H300 C304 0.949 . S
C301 C302 1.349 . S
C301 C303 1.327 . S
C301 H324 0.950 . S
C302 C301 1.349 . S
C302 C314 1.349 . S
C303 C301 1.327 . S
C303 C319 1.429 . S
C303 H325 0.950 . S
C304 H300 0.949 . S
C304 C312 1.574 . S
C304 C320 1.368 . S
H305 C313 0.950 . S
H306 C311 0.950 . S
H307 C312 0.949 . S
H308 C314 0.950 . S
H309 C315 0.950 . S
H310 C316 0.949 . S
C311 H306 0.950 . S
C311 C313 1.327 . S
C311 C317 1.429 . S
C312 C304 1.574 . S
C312 H307 0.949 . S
C312 C318 1.368 . S
C313 C297 1.349 . S
C313 H305 0.950 . S
C313 C311 1.327 . S
C314 C302 1.349 . S
C314 H308 0.950 . S
C314 C315 1.327 . S
C315 H309 0.950 . S
C315 C314 1.327 . S
C315 C319 1.429 . S
C316 C299 1.574 . S
C316 H310 0.949 . S
C316 C320 1.368 . S
C317 C298 1.429 . S
C317 C311 1.429 . S
C317 C318 1.523 . S
C318 C299 1.368 . S
C318 C312 1.368 . S
C318 C317 1.523 . S
C319 C303 1.429 . S
C319 C315 1.429 . S
C319 C320 1.523 . S
C320 C304 1.368 . S
C320 C316 1.368 . S
C320 C319 1.523 . S
H321 C296 0.950 . S
H322 C298 0.950 . S
H323 C299 0.949 . S
H324 C301 0.950 . S
H325 C303 0.950 . S
C326 C327 1.349 . S
C326 C328 1.327 . S
C326 H351 0.950 1_455 S
C327 C326 1.349 . S
C327 C343 1.349 . S
C328 C326 1.327 . S
C328 C347 1.429 . S
C328 H352 0.950 . S
C329 C346 1.574 . S
C329 C348 1.368 . S
C329 H353 0.949 . S
H330 C334 0.949 . S
C331 C332 1.349 . S
C331 C333 1.327 . S
C331 H354 0.950 . S
C332 C331 1.349 . S
C332 C344 1.349 . S
C333 C331 1.327 . S
C333 C349 1.429 . S
C333 H355 0.950 . S
C334 H330 0.949 . S
C334 C342 1.574 . S
C334 C350 1.368 . S
H335 C343 0.950 . S
H336 C341 0.950 . S
H337 C342 0.949 . S
H338 C344 0.950 . S
H339 C345 0.950 . S
H340 C346 0.949 . S
C341 H336 0.950 . S
C341 C343 1.327 . S
C341 C347 1.429 . S
C342 C334 1.574 . S
C342 H337 0.949 . S
C342 C348 1.368 . S
C343 C327 1.349 . S
C343 H335 0.950 . S
C343 C341 1.327 . S
C344 C332 1.349 . S
C344 H338 0.950 . S
C344 C345 1.327 . S
C345 H339 0.950 . S
C345 C344 1.327 . S
C345 C349 1.429 . S
C346 C329 1.574 . S
C346 H340 0.949 . S
C346 C350 1.368 . S
C347 C328 1.429 . S
C347 C341 1.429 . S
C347 C348 1.523 . S
C348 C329 1.368 . S
C348 C342 1.368 . S
C348 C347 1.523 . S
C349 C333 1.429 . S
C349 C345 1.429 . S
C349 C350 1.523 . S
C350 C334 1.368 . S
C350 C346 1.368 . S
C350 C349 1.523 . S
H351 C326 0.950 1_655 S
H352 C328 0.950 . S
H353 C329 0.949 . S
H354 C331 0.950 . S
H355 C333 0.950 . S
C356 C357 1.349 . S
C356 C358 1.327 . S
C356 H381 0.950 . S
C357 C356 1.349 . S
C357 C373 1.349 . S
C358 C356 1.327 . S
C358 C377 1.429 . S
C358 H382 0.950 . S
C359 C376 1.574 . S
C359 C378 1.368 . S
C359 H383 0.949 . S
H360 C364 0.949 . S
C361 C362 1.349 . S
C361 C363 1.327 . S
C361 H384 0.950 . S
C362 C361 1.349 . S
C362 C374 1.349 . S
C363 C361 1.327 . S
C363 C379 1.429 . S
C363 H385 0.950 . S
C364 H360 0.949 . S
C364 C372 1.574 . S
C364 C380 1.368 . S
H365 C373 0.950 . S
H366 C371 0.950 . S
H367 C372 0.949 . S
H368 C374 0.950 . S
H369 C375 0.950 . S
H370 C376 0.949 . S
C371 H366 0.950 . S
C371 C373 1.327 . S
C371 C377 1.429 . S
C372 C364 1.574 . S
C372 H367 0.949 . S
C372 C378 1.368 . S
C373 C357 1.349 . S
C373 H365 0.950 . S
C373 C371 1.327 . S
C374 C362 1.349 . S
C374 H368 0.950 . S
C374 C375 1.327 . S
C375 H369 0.950 . S
C375 C374 1.327 . S
C375 C379 1.429 . S
C376 C359 1.574 . S
C376 H370 0.949 . S
C376 C380 1.368 . S
C377 C358 1.429 . S
C377 C371 1.429 . S
C377 C378 1.523 . S
C378 C359 1.368 . S
C378 C372 1.368 . S
C378 C377 1.523 . S
C379 C363 1.429 . S
C379 C375 1.429 . S
C379 C380 1.523 . S
C380 C364 1.368 . S
C380 C376 1.368 . S
C380 C379 1.523 . S
H381 C356 0.950 . S
H382 C358 0.950 . S
H383 C359 0.949 . S
H384 C361 0.950 . S
H385 C363 0.950 . S
C386 C387 1.349 . S
C386 C388 1.327 . S
C386 H411 0.950 . S
C387 C386 1.349 . S
C387 C403 1.349 . S
C388 C386 1.327 . S
C388 C407 1.429 . S
C388 H412 0.950 . S
C389 C406 1.574 . S
C389 C408 1.368 . S
C389 H413 0.949 . S
H390 C394 0.949 1_556 S
C391 C392 1.349 . S
C391 C393 1.327 . S
C391 H414 0.950 . S
C392 C391 1.349 . S
C392 C404 1.349 . S
C393 C391 1.327 . S
C393 C409 1.429 . S
C393 H415 0.950 1_556 S
C394 H390 0.949 1_554 S
C394 C402 1.574 . S
C394 C410 1.368 . S
H395 C403 0.950 . S
H396 C401 0.950 . S
H397 C402 0.949 . S
H398 C404 0.950 . S
H399 C405 0.950 . S
H400 C406 0.949 . S
C401 H396 0.950 . S
C401 C403 1.327 . S
C401 C407 1.429 . S
C402 C394 1.574 . S
C402 H397 0.949 . S
C402 C408 1.368 . S
C403 C387 1.349 . S
C403 H395 0.950 . S
C403 C401 1.327 . S
C404 C392 1.349 . S
C404 H398 0.950 . S
C404 C405 1.327 . S
C405 H399 0.950 . S
C405 C404 1.327 . S
C405 C409 1.429 . S
C406 C389 1.574 . S
C406 H400 0.949 . S
C406 C410 1.368 . S
C407 C388 1.429 . S
C407 C401 1.429 . S
C407 C408 1.523 . S
C408 C389 1.368 . S
C408 C402 1.368 . S
C408 C407 1.523 . S
C409 C393 1.429 . S
C409 C405 1.429 . S
C409 C410 1.523 1_556 S
C410 C394 1.368 . S
C410 C406 1.368 . S
C410 C409 1.523 1_554 S
H411 C386 0.950 . S
H412 C388 0.950 . S
H413 C389 0.949 . S
H414 C391 0.950 . S
H415 C393 0.950 1_554 S
C416 C417 1.349 . S
C416 C418 1.327 . S
C416 H441 0.950 . S
C417 C416 1.349 . S
C417 C433 1.349 . S
C418 C416 1.327 . S
C418 C437 1.429 . S
C418 H442 0.950 . S
C419 C436 1.574 . S
C419 C438 1.368 . S
C419 H443 0.949 . S
H420 C424 0.949 . S
C421 C422 1.349 . S
C421 C423 1.327 . S
C421 H444 0.950 . S
C422 C421 1.349 . S
C422 C434 1.349 . S
C423 C421 1.327 . S
C423 C439 1.429 . S
C423 H445 0.950 . S
C424 H420 0.949 . S
C424 C432 1.574 . S
C424 C440 1.368 . S
H425 C433 0.950 . S
H426 C431 0.950 . S
H427 C432 0.949 . S
H428 C434 0.950 . S
H429 C435 0.950 . S
H430 C436 0.949 . S
C431 H426 0.950 . S
C431 C433 1.327 . S
C431 C437 1.429 . S
C432 C424 1.574 . S
C432 H427 0.949 . S
C432 C438 1.368 . S
C433 C417 1.349 . S
C433 H425 0.950 . S
C433 C431 1.327 . S
C434 C422 1.349 . S
C434 H428 0.950 . S
C434 C435 1.327 . S
C435 H429 0.950 . S
C435 C434 1.327 . S
C435 C439 1.429 . S
C436 C419 1.574 . S
C436 H430 0.949 . S
C436 C440 1.368 . S
C437 C418 1.429 . S
C437 C431 1.429 . S
C437 C438 1.523 . S
C438 C419 1.368 . S
C438 C432 1.368 . S
C438 C437 1.523 . S
C439 C423 1.429 . S
C439 C435 1.429 . S
C439 C440 1.523 . S
C440 C424 1.368 . S
C440 C436 1.368 . S
C440 C439 1.523 . S
H441 C416 0.950 . S
H442 C418 0.950 . S
H443 C419 0.949 . S
H444 C421 0.950 . S
H445 C423 0.950 . S
C446 C447 1.349 . S
C446 C448 1.327 . S
C446 H471 0.950 . S
C447 C446 1.349 . S
C447 C463 1.349 . S
C448 C446 1.327 . S
C448 C467 1.429 . S
C448 H472 0.950 . S
C449 C466 1.574 . S
C449 C468 1.368 . S
C449 H473 0.949 . S
H450 C454 0.949 . S
C451 C452 1.349 . S
C451 C453 1.327 . S
C451 H474 0.950 . S
C452 C451 1.349 . S
C452 C464 1.349 . S
C453 C451 1.327 . S
C453 C469 1.429 . S
C453 H475 0.950 . S
C454 H450 0.949 . S
C454 C462 1.574 . S
C454 C470 1.368 . S
H455 C463 0.950 . S
H456 C461 0.950 . S
H457 C462 0.949 . S
H458 C464 0.950 . S
H459 C465 0.950 . S
H460 C466 0.949 . S
C461 H456 0.950 . S
C461 C463 1.327 . S
C461 C467 1.429 . S
C462 C454 1.574 . S
C462 H457 0.949 . S
C462 C468 1.368 . S
C463 C447 1.349 . S
C463 H455 0.950 . S
C463 C461 1.327 . S
C464 C452 1.349 . S
C464 H458 0.950 . S
C464 C465 1.327 . S
C465 H459 0.950 . S
C465 C464 1.327 . S
C465 C469 1.429 . S
C466 C449 1.574 . S
C466 H460 0.949 . S
C466 C470 1.368 . S
C467 C448 1.429 . S
C467 C461 1.429 . S
C467 C468 1.523 . S
C468 C449 1.368 . S
C468 C462 1.368 . S
C468 C467 1.523 . S
C469 C453 1.429 . S
C469 C465 1.429 . S
C469 C470 1.523 . S
C470 C454 1.368 . S
C470 C466 1.368 . S
C470 C469 1.523 . S
H471 C446 0.950 . S
H472 C448 0.950 . S
H473 C449 0.949 . S
H474 C451 0.950 . S
H475 C453 0.950 . S
C476 C477 1.349 . S
C476 C478 1.327 . S
C476 H501 0.950 . S
C477 C476 1.349 . S
C477 C493 1.349 . S
C478 C476 1.327 . S
C478 C497 1.429 . S
C478 H502 0.950 . S
C479 C496 1.574 . S
C479 C498 1.368 . S
C479 H503 0.949 . S
H480 C484 0.949 . S
C481 C482 1.349 . S
C481 C483 1.327 . S
C481 H504 0.950 . S
C482 C481 1.349 . S
C482 C494 1.349 1_565 S
C483 C481 1.327 . S
C483 C499 1.429 . S
C483 H505 0.950 . S
C484 H480 0.949 . S
C484 C492 1.574 . S
C484 C500 1.368 . S
H485 C493 0.950 . S
H486 C491 0.950 1_556 S
H487 C492 0.949 1_554 S
H488 C494 0.950 . S
H489 C495 0.950 . S
H490 C496 0.949 . S
C491 H486 0.950 1_554 S
C491 C493 1.327 . S
C491 C497 1.429 . S
C492 C484 1.574 . S
C492 H487 0.949 1_556 S
C492 C498 1.368 . S
C493 C477 1.349 . S
C493 H485 0.950 . S
C493 C491 1.327 . S
C494 C482 1.349 1_545 S
C494 H488 0.950 . S
C494 C495 1.327 1_545 S
C495 H489 0.950 . S
C495 C494 1.327 1_565 S
C495 C499 1.429 . S
C496 C479 1.574 . S
C496 H490 0.949 . S
C496 C500 1.368 . S
C497 C478 1.429 . S
C497 C491 1.429 . S
C497 C498 1.523 1_554 S
C498 C479 1.368 . S
C498 C492 1.368 . S
C498 C497 1.523 1_556 S
C499 C483 1.429 . S
C499 C495 1.429 . S
C499 C500 1.523 . S
C500 C484 1.368 . S
C500 C496 1.368 . S
C500 C499 1.523 . S
H501 C476 0.950 . S
H502 C478 0.950 . S
H503 C479 0.949 . S
H504 C481 0.950 . S
H505 C483 0.950 . S
C506 C507 1.349 . S
C506 C508 1.327 . S
C506 H531 0.950 . S
C507 C506 1.349 . S
C507 C523 1.349 . S
C508 C506 1.327 . S
C508 C527 1.429 . S
C508 H532 0.950 . S
C509 C526 1.574 . S
C509 C528 1.368 . S
C509 H533 0.949 . S
H510 C514 0.949 . S
C511 C512 1.349 . S
C511 C513 1.327 . S
C511 H534 0.950 . S
C512 C511 1.349 . S
C512 C524 1.349 . S
C513 C511 1.327 . S
C513 C529 1.429 . S
C513 H535 0.950 . S
C514 H510 0.949 . S
C514 C522 1.574 . S
C514 C530 1.368 . S
H515 C523 0.950 . S
H516 C521 0.950 . S
H517 C522 0.949 . S
H518 C524 0.950 . S
H519 C525 0.950 . S
H520 C526 0.949 . S
C521 H516 0.950 . S
C521 C523 1.327 . S
C521 C527 1.429 . S
C522 C514 1.574 . S
C522 H517 0.949 . S
C522 C528 1.368 . S
C523 C507 1.349 . S
C523 H515 0.950 . S
C523 C521 1.327 . S
C524 C512 1.349 . S
C524 H518 0.950 . S
C524 C525 1.327 . S
C525 H519 0.950 . S
C525 C524 1.327 . S
C525 C529 1.429 . S
C526 C509 1.574 . S
C526 H520 0.949 . S
C526 C530 1.368 . S
C527 C508 1.429 . S
C527 C521 1.429 . S
C527 C528 1.523 . S
C528 C509 1.368 . S
C528 C522 1.368 . S
C528 C527 1.523 . S
C529 C513 1.429 . S
C529 C525 1.429 . S
C529 C530 1.523 . S
C530 C514 1.368 . S
C530 C526 1.368 . S
C530 C529 1.523 . S
H531 C506 0.950 . S
H532 C508 0.950 . S
H533 C509 0.949 . S
H534 C511 0.950 . S
H535 C513 0.950 . S
C536 C537 1.349 . S
C536 C538 1.327 . S
C536 H561 0.950 . S
C537 C536 1.349 . S
C537 C553 1.349 . S
C538 C536 1.327 . S
C538 C557 1.429 . S
C538 H562 0.950 . S
C539 C556 1.574 1_556 S
C539 C558 1.368 . S
C539 H563 0.949 . S
H540 C544 0.949 . S
C541 C542 1.349 . S
C541 C543 1.327 . S
C541 H564 0.950 . S
C542 C541 1.349 . S
C542 C554 1.349 . S
C543 C541 1.327 . S
C543 C559 1.429 . S
C543 H565 0.950 . S
C544 H540 0.949 . S
C544 C552 1.574 1_554 S
C544 C560 1.368 . S
H545 C553 0.950 . S
H546 C551 0.950 . S
H547 C552 0.949 . S
H548 C554 0.950 . S
H549 C555 0.950 . S
H550 C556 0.949 . S
C551 H546 0.950 . S
C551 C553 1.327 . S
C551 C557 1.429 . S
C552 C544 1.574 1_556 S
C552 H547 0.949 . S
C552 C558 1.368 . S
C553 C537 1.349 . S
C553 H545 0.950 . S
C553 C551 1.327 . S
C554 C542 1.349 . S
C554 H548 0.950 . S
C554 C555 1.327 . S
C555 H549 0.950 . S
C555 C554 1.327 . S
C555 C559 1.429 . S
C556 C539 1.574 1_554 S
C556 H550 0.949 . S
C556 C560 1.368 . S
C557 C538 1.429 . S
C557 C551 1.429 . S
C557 C558 1.523 . S
C558 C539 1.368 . S
C558 C552 1.368 . S
C558 C557 1.523 . S
C559 C543 1.429 . S
C559 C555 1.429 . S
C559 C560 1.523 . S
C560 C544 1.368 . S
C560 C556 1.368 . S
C560 C559 1.523 . S
H561 C536 0.950 . S
H562 C538 0.950 . S
H563 C539 0.949 . S
H564 C541 0.950 . S
H565 C543 0.950 . S
C566 C567 1.349 . S
C566 C568 1.327 . S
C566 H591 0.950 . S
C567 C566 1.349 . S
C567 C583 1.349 . S
C568 C566 1.327 . S
C568 C587 1.429 . S
C568 H592 0.950 . S
C569 C586 1.574 . S
C569 C588 1.368 . S
C569 H593 0.949 . S
H570 C574 0.949 . S
C571 C572 1.349 . S
C571 C573 1.327 . S
C571 H594 0.950 . S
C572 C571 1.349 . S
C572 C584 1.349 . S
C573 C571 1.327 . S
C573 C589 1.429 . S
C573 H595 0.950 . S
C574 H570 0.949 . S
C574 C582 1.574 . S
C574 C590 1.368 . S
H575 C583 0.950 . S
H576 C581 0.950 . S
H577 C582 0.949 . S
H578 C584 0.950 . S
H579 C585 0.950 . S
H580 C586 0.949 . S
C581 H576 0.950 . S
C581 C583 1.327 . S
C581 C587 1.429 . S
C582 C574 1.574 . S
C582 H577 0.949 . S
C582 C588 1.368 . S
C583 C567 1.349 . S
C583 H575 0.950 . S
C583 C581 1.327 . S
C584 C572 1.349 . S
C584 H578 0.950 . S
C584 C585 1.327 . S
C585 H579 0.950 . S
C585 C584 1.327 . S
C585 C589 1.429 . S
C586 C569 1.574 . S
C586 H580 0.949 . S
C586 C590 1.368 . S
C587 C568 1.429 . S
C587 C581 1.429 . S
C587 C588 1.523 . S
C588 C569 1.368 . S
C588 C582 1.368 . S
C588 C587 1.523 . S
C589 C573 1.429 . S
C589 C585 1.429 . S
C589 C590 1.523 . S
C590 C574 1.368 . S
C590 C586 1.368 . S
C590 C589 1.523 . S
H591 C566 0.950 . S
H592 C568 0.950 . S
H593 C569 0.949 . S
H594 C571 0.950 . S
H595 C573 0.950 . S
C596 C597 1.349 . S
C596 C598 1.327 . S
C596 H621 0.950 . S
C597 C596 1.349 . S
C597 C613 1.349 . S
C598 C596 1.327 . S
C598 C617 1.429 . S
C598 H622 0.950 . S
C599 C616 1.574 . S
C599 C618 1.368 . S
C599 H623 0.949 . S
H600 C604 0.949 . S
C601 C602 1.349 . S
C601 C603 1.327 . S
C601 H624 0.950 . S
C602 C601 1.349 . S
C602 C614 1.349 . S
C603 C601 1.327 . S
C603 C619 1.429 . S
C603 H625 0.950 . S
C604 H600 0.949 . S
C604 C612 1.574 . S
C604 C620 1.368 . S
H605 C613 0.950 . S
H606 C611 0.950 . S
H607 C612 0.949 . S
H608 C614 0.950 . S
H609 C615 0.950 . S
H610 C616 0.949 . S
C611 H606 0.950 . S
C611 C613 1.327 . S
C611 C617 1.429 . S
C612 C604 1.574 . S
C612 H607 0.949 . S
C612 C618 1.368 . S
C613 C597 1.349 . S
C613 H605 0.950 . S
C613 C611 1.327 . S
C614 C602 1.349 . S
C614 H608 0.950 . S
C614 C615 1.327 . S
C615 H609 0.950 . S
C615 C614 1.327 . S
C615 C619 1.429 . S
C616 C599 1.574 . S
C616 H610 0.949 . S
C616 C620 1.368 . S
C617 C598 1.429 . S
C617 C611 1.429 . S
C617 C618 1.523 . S
C618 C599 1.368 . S
C618 C612 1.368 . S
C618 C617 1.523 . S
C619 C603 1.429 . S
C619 C615 1.429 . S
C619 C620 1.523 . S
C620 C604 1.368 . S
C620 C616 1.368 . S
C620 C619 1.523 . S
H621 C596 0.950 . S
H622 C598 0.950 . S
H623 C599 0.949 . S
H624 C601 0.950 . S
H625 C603 0.950 . S
C626 C627 1.349 . S
C626 C628 1.327 . S
C626 H651 0.950 . S
C627 C626 1.349 . S
C627 C643 1.349 . S
C628 C626 1.327 . S
C628 C647 1.429 . S
C628 H652 0.950 . S
C629 C646 1.574 . S
C629 C648 1.368 . S
C629 H653 0.949 . S
H630 C634 0.949 . S
C631 C632 1.349 . S
C631 C633 1.327 . S
C631 H654 0.950 . S
C632 C631 1.349 . S
C632 C644 1.349 . S
C633 C631 1.327 . S
C633 C649 1.429 . S
C633 H655 0.950 . S
C634 H630 0.949 . S
C634 C642 1.574 . S
C634 C650 1.368 . S
H635 C643 0.950 . S
H636 C641 0.950 . S
H637 C642 0.949 . S
H638 C644 0.950 . S
H639 C645 0.950 . S
H640 C646 0.949 . S
C641 H636 0.950 . S
C641 C643 1.327 . S
C641 C647 1.429 . S
C642 C634 1.574 . S
C642 H637 0.949 . S
C642 C648 1.368 . S
C643 C627 1.349 . S
C643 H635 0.950 . S
C643 C641 1.327 . S
C644 C632 1.349 . S
C644 H638 0.950 . S
C644 C645 1.327 . S
C645 H639 0.950 . S
C645 C644 1.327 . S
C645 C649 1.429 . S
C646 C629 1.574 . S
C646 H640 0.949 . S
C646 C650 1.368 . S
C647 C628 1.429 . S
C647 C641 1.429 . S
C647 C648 1.523 . S
C648 C629 1.368 . S
C648 C642 1.368 . S
C648 C647 1.523 . S
C649 C633 1.429 . S
C649 C645 1.429 . S
C649 C650 1.523 . S
C650 C634 1.368 . S
C650 C646 1.368 . S
C650 C649 1.523 . S
H651 C626 0.950 . S
H652 C628 0.950 . S
H653 C629 0.949 . S
H654 C631 0.950 . S
H655 C633 0.950 . S
C656 C657 1.349 . S
C656 C658 1.327 . S
C656 H681 0.950 . S
C657 C656 1.349 . S
C657 C673 1.349 . S
C658 C656 1.327 . S
C658 C677 1.429 . S
C658 H682 0.950 . S
C659 C676 1.574 . S
C659 C678 1.368 1_565 S
C659 H683 0.949 1_565 S
H660 C664 0.949 . S
C661 C662 1.349 . S
C661 C663 1.327 . S
C661 H684 0.950 . S
C662 C661 1.349 . S
C662 C674 1.349 . S
C663 C661 1.327 . S
C663 C679 1.429 . S
C663 H685 0.950 . S
C664 H660 0.949 . S
C664 C672 1.574 1_565 S
C664 C680 1.368 . S
H665 C673 0.950 . S
H666 C671 0.950 . S
H667 C672 0.949 . S
H668 C674 0.950 . S
H669 C675 0.950 . S
H670 C676 0.949 . S
C671 H666 0.950 . S
C671 C673 1.327 . S
C671 C677 1.429 . S
C672 C664 1.574 1_545 S
C672 H667 0.949 . S
C672 C678 1.368 . S
C673 C657 1.349 . S
C673 H665 0.950 . S
C673 C671 1.327 . S
C674 C662 1.349 . S
C674 H668 0.950 . S
C674 C675 1.327 . S
C675 H669 0.950 . S
C675 C674 1.327 . S
C675 C679 1.429 . S
C676 C659 1.574 . S
C676 H670 0.949 . S
C676 C680 1.368 . S
C677 C658 1.429 . S
C677 C671 1.429 . S
C677 C678 1.523 . S
C678 C659 1.368 1_545 S
C678 C672 1.368 . S
C678 C677 1.523 . S
C679 C663 1.429 . S
C679 C675 1.429 . S
C679 C680 1.523 . S
C680 C664 1.368 . S
C680 C676 1.368 . S
C680 C679 1.523 . S
H681 C656 0.950 . S
H682 C658 0.950 . S
H683 C659 0.949 1_545 S
H684 C661 0.950 . S
H685 C663 0.950 . S
C686 C687 1.349 . S
C686 C688 1.327 . S
C686 H711 0.950 . S
C687 C686 1.349 . S
C687 C703 1.349 . S
C688 C686 1.327 . S
C688 C707 1.429 . S
C688 H712 0.950 . S
C689 C706 1.574 . S
C689 C708 1.368 . S
C689 H713 0.949 . S
H690 C694 0.949 . S
C691 C692 1.349 . S
C691 C693 1.327 . S
C691 H714 0.950 . S
C692 C691 1.349 . S
C692 C704 1.349 . S
C693 C691 1.327 . S
C693 C709 1.429 . S
C693 H715 0.950 . S
C694 H690 0.949 . S
C694 C702 1.574 . S
C694 C710 1.368 . S
H695 C703 0.950 . S
H696 C701 0.950 . S
H697 C702 0.949 . S
H698 C704 0.950 . S
H699 C705 0.950 . S
H700 C706 0.949 . S
C701 H696 0.950 . S
C701 C703 1.327 . S
C701 C707 1.429 . S
C702 C694 1.574 . S
C702 H697 0.949 . S
C702 C708 1.368 . S
C703 C687 1.349 . S
C703 H695 0.950 . S
C703 C701 1.327 . S
C704 C692 1.349 . S
C704 H698 0.950 . S
C704 C705 1.327 . S
C705 H699 0.950 . S
C705 C704 1.327 . S
C705 C709 1.429 . S
C706 C689 1.574 . S
C706 H700 0.949 . S
C706 C710 1.368 . S
C707 C688 1.429 . S
C707 C701 1.429 . S
C707 C708 1.523 . S
C708 C689 1.368 . S
C708 C702 1.368 . S
C708 C707 1.523 . S
C709 C693 1.429 . S
C709 C705 1.429 . S
C709 C710 1.523 . S
C710 C694 1.368 . S
C710 C706 1.368 . S
C710 C709 1.523 . S
H711 C686 0.950 . S
H712 C688 0.950 . S
H713 C689 0.949 . S
H714 C691 0.950 . S
H715 C693 0.950 . S
C716 C717 1.349 . S
C716 C718 1.327 . S
C716 H741 0.950 . S
C717 C716 1.349 . S
C717 C733 1.349 . S
C718 C716 1.327 . S
C718 C737 1.429 . S
C718 H742 0.950 . S
C719 C736 1.574 1_545 S
C719 C738 1.368 . S
C719 H743 0.949 . S
H720 C724 0.949 . S
C721 C722 1.349 . S
C721 C723 1.327 . S
C721 H744 0.950 . S
C722 C721 1.349 . S
C722 C734 1.349 . S
C723 C721 1.327 . S
C723 C739 1.429 . S
C723 H745 0.950 . S
C724 H720 0.949 . S
C724 C732 1.574 1_565 S
C724 C740 1.368 . S
H725 C733 0.950 . S
H726 C731 0.950 . S
H727 C732 0.949 . S
H728 C734 0.950 . S
H729 C735 0.950 . S
H730 C736 0.949 . S
C731 H726 0.950 . S
C731 C733 1.327 . S
C731 C737 1.429 . S
C732 C724 1.574 1_545 S
C732 H727 0.949 . S
C732 C738 1.368 . S
C733 C717 1.349 . S
C733 H725 0.950 . S
C733 C731 1.327 . S
C734 C722 1.349 . S
C734 H728 0.950 . S
C734 C735 1.327 . S
C735 H729 0.950 . S
C735 C734 1.327 . S
C735 C739 1.429 . S
C736 C719 1.574 1_565 S
C736 H730 0.949 . S
C736 C740 1.368 . S
C737 C718 1.429 . S
C737 C731 1.429 . S
C737 C738 1.523 . S
C738 C719 1.368 . S
C738 C732 1.368 . S
C738 C737 1.523 . S
C739 C723 1.429 . S
C739 C735 1.429 . S
C739 C740 1.523 . S
C740 C724 1.368 . S
C740 C736 1.368 . S
C740 C739 1.523 . S
H741 C716 0.950 . S
H742 C718 0.950 . S
H743 C719 0.949 . S
H744 C721 0.950 . S
H745 C723 0.950 . S
C746 C747 1.349 . S
C746 C748 1.327 . S
C746 H771 0.950 . S
C747 C746 1.349 . S
C747 C763 1.349 . S
C748 C746 1.327 . S
C748 C767 1.429 . S
C748 H772 0.950 . S
C749 C766 1.574 . S
C749 C768 1.368 . S
C749 H773 0.949 . S
H750 C754 0.949 . S
C751 C752 1.349 . S
C751 C753 1.327 . S
C751 H774 0.950 . S
C752 C751 1.349 . S
C752 C764 1.349 . S
C753 C751 1.327 . S
C753 C769 1.429 . S
C753 H775 0.950 . S
C754 H750 0.949 . S
C754 C762 1.574 . S
C754 C770 1.368 . S
H755 C763 0.950 . S
H756 C761 0.950 . S
H757 C762 0.949 . S
H758 C764 0.950 . S
H759 C765 0.950 . S
H760 C766 0.949 . S
C761 H756 0.950 . S
C761 C763 1.327 . S
C761 C767 1.429 . S
C762 C754 1.574 . S
C762 H757 0.949 . S
C762 C768 1.368 . S
C763 C747 1.349 . S
C763 H755 0.950 . S
C763 C761 1.327 . S
C764 C752 1.349 . S
C764 H758 0.950 . S
C764 C765 1.327 . S
C765 H759 0.950 . S
C765 C764 1.327 . S
C765 C769 1.429 . S
C766 C749 1.574 . S
C766 H760 0.949 . S
C766 C770 1.368 . S
C767 C748 1.429 . S
C767 C761 1.429 . S
C767 C768 1.523 . S
C768 C749 1.368 . S
C768 C762 1.368 . S
C768 C767 1.523 . S
C769 C753 1.429 . S
C769 C765 1.429 . S
C769 C770 1.523 . S
C770 C754 1.368 . S
C770 C766 1.368 . S
C770 C769 1.523 . S
H771 C746 0.950 . S
H772 C748 0.950 . S
H773 C749 0.949 . S
H774 C751 0.950 . S
H775 C753 0.950 . S
C776 C777 1.349 . S
C776 C778 1.327 . S
C776 H801 0.950 . S
C777 C776 1.349 . S
C777 C793 1.349 . S
C778 C776 1.327 . S
C778 C797 1.429 . S
C778 H802 0.950 . S
C779 C796 1.574 . S
C779 C798 1.368 . S
C779 H803 0.949 . S
H780 C784 0.949 . S
C781 C782 1.349 . S
C781 C783 1.327 . S
C781 H804 0.950 . S
C782 C781 1.349 . S
C782 C794 1.349 . S
C783 C781 1.327 . S
C783 C799 1.429 . S
C783 H805 0.950 . S
C784 H780 0.949 . S
C784 C792 1.574 . S
C784 C800 1.368 . S
H785 C793 0.950 . S
H786 C791 0.950 . S
H787 C792 0.949 . S
H788 C794 0.950 . S
H789 C795 0.950 . S
H790 C796 0.949 . S
C791 H786 0.950 . S
C791 C793 1.327 . S
C791 C797 1.429 . S
C792 C784 1.574 . S
C792 H787 0.949 . S
C792 C798 1.368 . S
C793 C777 1.349 . S
C793 H785 0.950 . S
C793 C791 1.327 . S
C794 C782 1.349 . S
C794 H788 0.950 . S
C794 C795 1.327 . S
C795 H789 0.950 . S
C795 C794 1.327 . S
C795 C799 1.429 . S
C796 C779 1.574 . S
C796 H790 0.949 . S
C796 C800 1.368 . S
C797 C778 1.429 . S
C797 C791 1.429 . S
C797 C798 1.523 . S
C798 C779 1.368 . S
C798 C792 1.368 . S
C798 C797 1.523 . S
C799 C783 1.429 . S
C799 C795 1.429 . S
C799 C800 1.523 . S
C800 C784 1.368 . S
C800 C796 1.368 . S
C800 C799 1.523 . S
H801 C776 0.950 . S
H802 C778 0.950 . S
H803 C779 0.949 . S
H804 C781 0.950 . S
H805 C783 0.950 . S
C806 C807 1.349 . S
C806 C808 1.327 . S
C806 H831 0.950 . S
C807 C806 1.349 . S
C807 C823 1.349 . S
C808 C806 1.327 . S
C808 C827 1.429 . S
C808 H832 0.950 . S
C809 C826 1.589 . S
C809 C828 1.355 1_655 S
C809 H833 0.948 1_655 S
H810 C814 0.949 . S
C811 C812 1.349 . S
C811 C813 1.327 . S
C811 H834 0.950 . S
C812 C811 1.349 . S
C812 C824 1.349 . S
C813 C811 1.327 . S
C813 C829 1.429 . S
C813 H835 0.950 . S
C814 H810 0.949 . S
C814 C822 1.574 1_655 S
C814 C830 1.368 . S
H815 C823 0.950 . S
H816 C821 0.950 . S
H817 C822 0.949 . S
H818 C824 0.950 . S
H819 C825 0.950 . S
H820 C826 0.949 . S
C821 H816 0.950 . S
C821 C823 1.327 . S
C821 C827 1.429 . S
C822 C814 1.574 1_455 S
C822 H817 0.949 . S
C822 C828 1.368 . S
C823 C807 1.349 . S
C823 H815 0.950 . S
C823 C821 1.327 . S
C824 C812 1.349 . S
C824 H818 0.950 . S
C824 C825 1.327 . S
C825 H819 0.950 . S
C825 C824 1.327 . S
C825 C829 1.429 . S
C826 C809 1.589 . S
C826 H820 0.949 . S
C826 C830 1.368 . S
C827 C808 1.429 . S
C827 C821 1.429 . S
C827 C828 1.523 . S
C828 C809 1.355 1_455 S
C828 C822 1.368 . S
C828 C827 1.523 . S
C829 C813 1.429 . S
C829 C825 1.429 . S
C829 C830 1.523 . S
C830 C814 1.368 . S
C830 C826 1.368 . S
C830 C829 1.523 . S
H831 C806 0.950 . S
H832 C808 0.950 . S
H833 C809 0.948 1_455 S
H834 C811 0.950 . S
H835 C813 0.950 . S
C836 C837 1.349 . S
C836 C838 1.327 . S
C836 H861 0.950 . S
C837 C836 1.349 . S
C837 C853 1.349 . S
C838 C836 1.327 . S
C838 C857 1.429 . S
C838 H862 0.950 . S
C839 C856 1.574 . S
C839 C858 1.368 . S
C839 H863 0.949 . S
H840 C844 0.949 . S
C841 C842 1.349 . S
C841 C843 1.327 . S
C841 H864 0.950 . S
C842 C841 1.349 . S
C842 C854 1.349 . S
C843 C841 1.327 . S
C843 C859 1.429 . S
C843 H865 0.950 . S
C844 H840 0.949 . S
C844 C852 1.574 . S
C844 C860 1.368 . S
H845 C853 0.950 . S
H846 C851 0.950 . S
H847 C852 0.949 . S
H848 C854 0.950 . S
H849 C855 0.950 . S
H850 C856 0.949 . S
C851 H846 0.950 . S
C851 C853 1.327 . S
C851 C857 1.429 . S
C852 C844 1.574 . S
C852 H847 0.949 . S
C852 C858 1.368 . S
C853 C837 1.349 . S
C853 H845 0.950 . S
C853 C851 1.327 . S
C854 C842 1.349 . S
C854 H848 0.950 . S
C854 C855 1.327 . S
C855 H849 0.950 . S
C855 C854 1.327 . S
C855 C859 1.429 . S
C856 C839 1.574 . S
C856 H850 0.949 . S
C856 C860 1.368 . S
C857 C838 1.429 . S
C857 C851 1.429 . S
C857 C858 1.523 . S
C858 C839 1.368 . S
C858 C852 1.368 . S
C858 C857 1.523 . S
C859 C843 1.429 . S
C859 C855 1.429 . S
C859 C860 1.523 . S
C860 C844 1.368 . S
C860 C856 1.368 . S
C860 C859 1.523 . S
H861 C836 0.950 . S
H862 C838 0.950 . S
H863 C839 0.949 . S
H864 C841 0.950 . S
H865 C843 0.950 . S
C866 C867 1.349 . S
C866 C868 1.327 . S
C866 H891 0.950 . S
C867 C866 1.349 . S
C867 C883 1.349 . S
C868 C866 1.327 . S
C868 C887 1.429 . S
C868 H892 0.950 . S
C869 C886 1.574 . S
C869 C888 1.368 1_455 S
C869 H893 0.949 1_455 S
H870 C874 0.949 . S
C871 C872 1.349 . S
C871 C873 1.327 . S
C871 H894 0.950 . S
C872 C871 1.349 . S
C872 C884 1.349 . S
C873 C871 1.327 . S
C873 C889 1.429 . S
C873 H895 0.950 . S
C874 H870 0.949 . S
C874 C882 1.574 1_455 S
C874 C890 1.368 . S
H875 C883 0.950 . S
H876 C881 0.950 . S
H877 C882 0.949 . S
H878 C884 0.950 . S
H879 C885 0.950 . S
H880 C886 0.949 . S
C881 H876 0.950 . S
C881 C883 1.327 . S
C881 C887 1.429 . S
C882 C874 1.574 1_655 S
C882 H877 0.949 . S
C882 C888 1.368 . S
C883 C867 1.349 . S
C883 H875 0.950 . S
C883 C881 1.327 . S
C884 C872 1.349 . S
C884 H878 0.950 . S
C884 C885 1.327 . S
C885 H879 0.950 . S
C885 C884 1.327 . S
C885 C889 1.429 . S
C886 C869 1.574 . S
C886 H880 0.949 . S
C886 C890 1.368 . S
C887 C868 1.429 . S
C887 C881 1.429 . S
C887 C888 1.523 . S
C888 C869 1.368 1_655 S
C888 C882 1.368 . S
C888 C887 1.523 . S
C889 C873 1.429 . S
C889 C885 1.429 . S
C889 C890 1.523 . S
C890 C874 1.368 . S
C890 C886 1.368 . S
C890 C889 1.523 . S
H891 C866 0.950 . S
H892 C868 0.950 . S
H893 C869 0.949 1_655 S
H894 C871 0.950 . S
H895 C873 0.950 . S
C177 C8 1.554 1_655 S
C182 C162 1.554 1_545 S
C207 C32 1.554 . S
C212 C106 1.554 . S
C237 C52 1.554 1_455 S
C242 C120 1.554 1_565 S
C267 C142 1.554 . S
C272 C84 1.554 . S
C297 C10 1.244 . S
C302 C37 1.270 . S
C327 C65 1.270 1_455 S
C332 C40 1.244 . S
C357 C73 1.270 . S
C362 C54 1.244 . S
C387 C21 1.270 1_655 S
C392 C74 1.244 . S
C417 C96 1.244 . S
C422 C175 1.270 1_545 S
C447 C128 1.244 . S
C452 C95 1.270 . S
C477 C150 1.244 . S
C482 C125 1.270 1_565 S
C507 C147 1.270 . S
C512 C164 1.244 . S
C537 C131 0.500 . S
C542 C7 0.500 . S
C567 C153 0.500 . S
C572 C43 0.500 . S
C597 C161 0.500 . S
C602 C51 0.500 . S
C627 C103 0.500 . S
C632 C81 0.500 . S
C657 C18 1.525 . S
C662 C139 1.516 . S
C687 C30 1.525 . S
C692 C169 1.516 . S
C717 C109 1.516 . S
C722 C62 1.525 . S
C747 C117 1.516 . S
C752 C76 1.525 . S
C777 C59 1.516 . S
C782 C98 1.525 . S
C807 C118 1.525 . S
C812 C87 1.516 . S
C837 C140 1.525 . S
C842 C15 1.516 . S
C867 C172 1.525 . S
C872 C29 1.516 . S
