# Generated by pormake.
# Topology ukn, (4)-cn, num edge types: 1
# Building blocks:
#     Node 0, Type 0, BuildingBlock: CEKHIL_clean_sbu_0, # of connection points: 4
#     Node 1, Type 0, BuildingBlock: CEKHIL_clean_sbu_0, # of connection points: 4
#     Node 2, Type 0, BuildingBlock: CEKHIL_clean_sbu_0, # of connection points: 4
#     Node 3, Type 0, BuildingBlock: CEKHIL_clean_sbu_0, # of connection points: 4
#     Node 4, Type 0, BuildingBlock: CEKHIL_clean_sbu_0, # of connection points: 4
#     Node 5, Type 0, BuildingBlock: CEKHIL_clean_sbu_0, # of connection points: 4
#     Node 6, Type 0, BuildingBlock: CEKHIL_clean_sbu_0, # of connection points: 4
#     Node 7, Type 0, BuildingBlock: CEKHIL_clean_sbu_0, # of connection points: 4
#     Node 8, Type 0, BuildingBlock: CEKHIL_clean_sbu_0, # of connection points: 4
#     Node 9, Type 0, BuildingBlock: CEKHIL_clean_sbu_0, # of connection points: 4
#     Node 10, Type 0, BuildingBlock: CEKHIL_clean_sbu_0, # of connection points: 4
#     Node 11, Type 0, BuildingBlock: CEKHIL_clean_sbu_0, # of connection points: 4
#     Node 12, Type 0, BuildingBlock: CEKHIL_clean_sbu_0, # of connection points: 4
#     Node 13, Type 0, BuildingBlock: CEKHIL_clean_sbu_0, # of connection points: 4
#     Node 14, Type 0, BuildingBlock: CEKHIL_clean_sbu_0, # of connection points: 4
#     Node 15, Type 0, BuildingBlock: CEKHIL_clean_sbu_0, # of connection points: 4
#     Node 16, Type 0, BuildingBlock: CEKHIL_clean_sbu_0, # of connection points: 4
#     Node 17, Type 0, BuildingBlock: CEKHIL_clean_sbu_0, # of connection points: 4
#     Node 18, Type 0, BuildingBlock: CEKHIL_clean_sbu_0, # of connection points: 4
#     Node 19, Type 0, BuildingBlock: CEKHIL_clean_sbu_0, # of connection points: 4
#     Node 20, Type 0, BuildingBlock: CEKHIL_clean_sbu_0, # of connection points: 4
#     Node 21, Type 0, BuildingBlock: CEKHIL_clean_sbu_0, # of connection points: 4
#     Node 22, Type 0, BuildingBlock: CEKHIL_clean_sbu_0, # of connection points: 4
#     Node 23, Type 0, BuildingBlock: CEKHIL_clean_sbu_0, # of connection points: 4
#     Node 24, Type 0, BuildingBlock: CEKHIL_clean_sbu_0, # of connection points: 4
#     Node 25, Type 0, BuildingBlock: CEKHIL_clean_sbu_0, # of connection points: 4
#     Node 26, Type 0, BuildingBlock: CEKHIL_clean_sbu_0, # of connection points: 4
#     Node 27, Type 0, BuildingBlock: CEKHIL_clean_sbu_0, # of connection points: 4
#     Node 28, Type 0, BuildingBlock: CEKHIL_clean_sbu_0, # of connection points: 4
#     Node 29, Type 0, BuildingBlock: CEKHIL_clean_sbu_0, # of connection points: 4
#     Node 30, Type 0, BuildingBlock: CEKHIL_clean_sbu_0, # of connection points: 4
#     Node 31, Type 0, BuildingBlock: CEKHIL_clean_sbu_0, # of connection points: 4
#     Node 32, Type 0, BuildingBlock: CEKHIL_clean_sbu_0, # of connection points: 4
#     Node 33, Type 0, BuildingBlock: CEKHIL_clean_sbu_0, # of connection points: 4
#     Node 34, Type 0, BuildingBlock: CEKHIL_clean_sbu_0, # of connection points: 4
#     Node 35, Type 0, BuildingBlock: CEKHIL_clean_sbu_0, # of connection points: 4
#     Edge 36, Type (0, 0), BuildingBlock: OJICUG_clean_linker_0, # of connection points: 2
#     Edge 37, Type (0, 0), BuildingBlock: OJICUG_clean_linker_0, # of connection points: 2
#     Edge 38, Type (0, 0), BuildingBlock: OJICUG_clean_linker_0, # of connection points: 2
#     Edge 39, Type (0, 0), BuildingBlock: OJICUG_clean_linker_0, # of connection points: 2
#     Edge 40, Type (0, 0), BuildingBlock: OJICUG_clean_linker_0, # of connection points: 2
#     Edge 41, Type (0, 0), BuildingBlock: OJICUG_clean_linker_0, # of connection points: 2
#     Edge 42, Type (0, 0), BuildingBlock: OJICUG_clean_linker_0, # of connection points: 2
#     Edge 43, Type (0, 0), BuildingBlock: OJICUG_clean_linker_0, # of connection points: 2
#     Edge 44, Type (0, 0), BuildingBlock: OJICUG_clean_linker_0, # of connection points: 2
#     Edge 45, Type (0, 0), BuildingBlock: OJICUG_clean_linker_0, # of connection points: 2
#     Edge 46, Type (0, 0), BuildingBlock: OJICUG_clean_linker_0, # of connection points: 2
#     Edge 47, Type (0, 0), BuildingBlock: OJICUG_clean_linker_0, # of connection points: 2
#     Edge 48, Type (0, 0), BuildingBlock: OJICUG_clean_linker_0, # of connection points: 2
#     Edge 49, Type (0, 0), BuildingBlock: OJICUG_clean_linker_0, # of connection points: 2
#     Edge 50, Type (0, 0), BuildingBlock: OJICUG_clean_linker_0, # of connection points: 2
#     Edge 51, Type (0, 0), BuildingBlock: OJICUG_clean_linker_0, # of connection points: 2
#     Edge 52, Type (0, 0), BuildingBlock: OJICUG_clean_linker_0, # of connection points: 2
#     Edge 53, Type (0, 0), BuildingBlock: OJICUG_clean_linker_0, # of connection points: 2
#     Edge 54, Type (0, 0), BuildingBlock: OJICUG_clean_linker_0, # of connection points: 2
#     Edge 55, Type (0, 0), BuildingBlock: OJICUG_clean_linker_0, # of connection points: 2
#     Edge 56, Type (0, 0), BuildingBlock: OJICUG_clean_linker_0, # of connection points: 2
#     Edge 57, Type (0, 0), BuildingBlock: OJICUG_clean_linker_0, # of connection points: 2
#     Edge 58, Type (0, 0), BuildingBlock: OJICUG_clean_linker_0, # of connection points: 2
#     Edge 59, Type (0, 0), BuildingBlock: OJICUG_clean_linker_0, # of connection points: 2
#     Edge 60, Type (0, 0), BuildingBlock: OJICUG_clean_linker_0, # of connection points: 2
#     Edge 61, Type (0, 0), BuildingBlock: OJICUG_clean_linker_0, # of connection points: 2
#     Edge 62, Type (0, 0), BuildingBlock: OJICUG_clean_linker_0, # of connection points: 2
#     Edge 63, Type (0, 0), BuildingBlock: OJICUG_clean_linker_0, # of connection points: 2
#     Edge 64, Type (0, 0), BuildingBlock: OJICUG_clean_linker_0, # of connection points: 2
#     Edge 65, Type (0, 0), BuildingBlock: OJICUG_clean_linker_0, # of connection points: 2
#     Edge 66, Type (0, 0), BuildingBlock: OJICUG_clean_linker_0, # of connection points: 2
#     Edge 67, Type (0, 0), BuildingBlock: OJICUG_clean_linker_0, # of connection points: 2
#     Edge 68, Type (0, 0), BuildingBlock: OJICUG_clean_linker_0, # of connection points: 2
#     Edge 69, Type (0, 0), BuildingBlock: OJICUG_clean_linker_0, # of connection points: 2
#     Edge 70, Type (0, 0), BuildingBlock: OJICUG_clean_linker_0, # of connection points: 2
#     Edge 71, Type (0, 0), BuildingBlock: OJICUG_clean_linker_0, # of connection points: 2
#     Edge 72, Type (0, 0), BuildingBlock: OJICUG_clean_linker_0, # of connection points: 2
#     Edge 73, Type (0, 0), BuildingBlock: OJICUG_clean_linker_0, # of connection points: 2
#     Edge 74, Type (0, 0), BuildingBlock: OJICUG_clean_linker_0, # of connection points: 2
#     Edge 75, Type (0, 0), BuildingBlock: OJICUG_clean_linker_0, # of connection points: 2
#     Edge 76, Type (0, 0), BuildingBlock: OJICUG_clean_linker_0, # of connection points: 2
#     Edge 77, Type (0, 0), BuildingBlock: OJICUG_clean_linker_0, # of connection points: 2
#     Edge 78, Type (0, 0), BuildingBlock: OJICUG_clean_linker_0, # of connection points: 2
#     Edge 79, Type (0, 0), BuildingBlock: OJICUG_clean_linker_0, # of connection points: 2
#     Edge 80, Type (0, 0), BuildingBlock: OJICUG_clean_linker_0, # of connection points: 2
#     Edge 81, Type (0, 0), BuildingBlock: OJICUG_clean_linker_0, # of connection points: 2
#     Edge 82, Type (0, 0), BuildingBlock: OJICUG_clean_linker_0, # of connection points: 2
#     Edge 83, Type (0, 0), BuildingBlock: OJICUG_clean_linker_0, # of connection points: 2
#     Edge 84, Type (0, 0), BuildingBlock: OJICUG_clean_linker_0, # of connection points: 2
#     Edge 85, Type (0, 0), BuildingBlock: OJICUG_clean_linker_0, # of connection points: 2
#     Edge 86, Type (0, 0), BuildingBlock: OJICUG_clean_linker_0, # of connection points: 2
#     Edge 87, Type (0, 0), BuildingBlock: OJICUG_clean_linker_0, # of connection points: 2
#     Edge 88, Type (0, 0), BuildingBlock: OJICUG_clean_linker_0, # of connection points: 2
#     Edge 89, Type (0, 0), BuildingBlock: OJICUG_clean_linker_0, # of connection points: 2
#     Edge 90, Type (0, 0), BuildingBlock: OJICUG_clean_linker_0, # of connection points: 2
#     Edge 91, Type (0, 0), BuildingBlock: OJICUG_clean_linker_0, # of connection points: 2
#     Edge 92, Type (0, 0), BuildingBlock: OJICUG_clean_linker_0, # of connection points: 2
#     Edge 93, Type (0, 0), BuildingBlock: OJICUG_clean_linker_0, # of connection points: 2
#     Edge 94, Type (0, 0), BuildingBlock: OJICUG_clean_linker_0, # of connection points: 2
#     Edge 95, Type (0, 0), BuildingBlock: OJICUG_clean_linker_0, # of connection points: 2
#     Edge 96, Type (0, 0), BuildingBlock: OJICUG_clean_linker_0, # of connection points: 2
#     Edge 97, Type (0, 0), BuildingBlock: OJICUG_clean_linker_0, # of connection points: 2
#     Edge 98, Type (0, 0), BuildingBlock: OJICUG_clean_linker_0, # of connection points: 2
#     Edge 99, Type (0, 0), BuildingBlock: OJICUG_clean_linker_0, # of connection points: 2
#     Edge 100, Type (0, 0), BuildingBlock: OJICUG_clean_linker_0, # of connection points: 2
#     Edge 101, Type (0, 0), BuildingBlock: OJICUG_clean_linker_0, # of connection points: 2
#     Edge 102, Type (0, 0), BuildingBlock: OJICUG_clean_linker_0, # of connection points: 2
#     Edge 103, Type (0, 0), BuildingBlock: OJICUG_clean_linker_0, # of connection points: 2
#     Edge 104, Type (0, 0), BuildingBlock: OJICUG_clean_linker_0, # of connection points: 2
#     Edge 105, Type (0, 0), BuildingBlock: OJICUG_clean_linker_0, # of connection points: 2
#     Edge 106, Type (0, 0), BuildingBlock: OJICUG_clean_linker_0, # of connection points: 2
#     Edge 107, Type (0, 0), BuildingBlock: OJICUG_clean_linker_0, # of connection points: 2
# Relax obj value: 0.075
# Max RMSD: 0.097
# Mean RMSD: 0.097
data_MOF--net-ukn--node1-CEKHIL_clean_sbu_0--edge1-OJICUG_clean_linker_0
_symmetry_space_group_name_H-M    P1
_symmetry_Int_Tables_number       1
_symmetry_cell_setting            triclinic
loop_
_symmetry_equiv_pos_as_xyz
'x, y, z'
_cell_length_a     75.939221
_cell_length_b     75.873398
_cell_length_c     19.352183
_cell_angle_alpha  90.005856
_cell_angle_beta   89.989432
_cell_angle_gamma 120.03478
loop_
_atom_site_label
_atom_site_type_symbol
_atom_site_fract_x
_atom_site_fract_y
_atom_site_fract_z
_atom_type_partial_charge
Co0 Co 0.09575 0.31249 0.08709 0.0
O1 O 0.07041 0.31132 0.06866 0.0
O2 O 0.0759 0.28577 0.04994 0.0
C3 C 0.10043 0.32734 0.1917 0.0
O4 O 0.12043 0.30862 0.10201 0.0
Co5 Co 0.13467 0.35521 0.10756 0.0
O6 O 0.14551 0.33822 0.14521 0.0
C7 C 0.11716 0.34152 0.96853 0.0
C8 C 0.06345 0.29288 0.0467 0.0
C9 C 0.13805 0.31942 0.1305 0.0
O10 O 0.10537 0.32337 -0.00869 0.0
O11 O 0.12856 0.35661 0.00761 0.0
O12 O 0.08912 0.30767 0.18596 0.0
O13 O 0.10696 0.33707 0.1345 0.0
Co14 Co 0.72642 0.79181 0.08766 0.0
O15 O 0.72742 0.7675 0.06961 0.0
O16 O 0.75306 0.79848 0.0505 0.0
C17 C 0.71158 0.7818 0.19233 0.0
O18 O 0.73048 0.82047 0.10215 0.0
Co19 Co 0.68388 0.78832 0.10805 0.0
O20 O 0.701 0.8162 0.1454 0.0
C21 C 0.69742 0.78418 0.96913 0.0
C22 C 0.74584 0.77888 0.04753 0.0
C23 C 0.71979 0.82743 0.13055 0.0
O24 O 0.71555 0.79047 -0.00813 0.0
O25 O 0.6824 0.78066 0.00822 0.0
O26 O 0.73123 0.79006 0.18658 0.0
O27 O 0.70187 0.7786 0.13513 0.0
Co28 Co 0.24648 0.94257 0.08718 0.0
O29 O 0.27073 0.96794 0.06898 0.0
O30 O 0.23973 0.96248 0.05011 0.0
C31 C 0.25656 0.93777 0.19178 0.0
O32 O 0.21785 0.91794 0.10176 0.0
Co33 Co 0.24991 0.90346 0.10751 0.0
O34 O 0.22205 0.89266 0.14482 0.0
C35 C 0.25413 0.92122 0.96863 0.0
C36 C 0.2593 0.97492 0.04698 0.0
C37 C 0.21085 0.90025 0.13005 0.0
O38 O 0.2478 0.93303 -0.00862 0.0
O39 O 0.25763 0.90969 0.00772 0.0
O40 O 0.24827 0.94914 0.18609 0.0
O41 O 0.25971 0.93123 0.13456 0.0
Co42 Co 0.31962 0.08875 0.88987 0.0
O43 O 0.31846 0.06335 0.90789 0.0
O44 O 0.29294 0.06884 0.92694 0.0
C45 C 0.33448 0.09357 0.78524 0.0
O46 O 0.31567 0.11342 0.87545 0.0
Co47 Co 0.36221 0.12781 0.86965 0.0
O48 O 0.34519 0.13866 0.83245 0.0
C49 C 0.34865 0.10999 0.00841 0.0
C50 C 0.30005 0.05638 0.92993 0.0
C51 C 0.3264 0.1311 0.84721 0.0
O52 O 0.3305 0.09824 0.98569 0.0
O53 O 0.36369 0.1215 0.96933 0.0
O54 O 0.31482 0.08222 0.79093 0.0
O55 O 0.34418 0.10007 0.84246 0.0
Co56 Co 0.94972 0.23955 0.88974 0.0
O57 O 0.97513 0.26374 0.90794 0.0
O58 O 0.96953 0.23266 0.92681 0.0
C59 C 0.94503 0.2497 0.78514 0.0
O60 O 0.925 0.21098 0.87506 0.0
Co61 Co 0.91084 0.24335 0.86941 0.0
O62 O 0.89994 0.21548 0.83182 0.0
C63 C 0.92845 0.2473 0.00834 0.0
C64 C 0.98204 0.25224 0.9299 0.0
C65 C 0.90737 0.20414 0.84659 0.0
O66 O 0.9402 0.24091 0.98556 0.0
O67 O 0.91703 0.25094 0.96928 0.0
O68 O 0.95629 0.24131 0.79083 0.0
O69 O 0.93854 0.25293 0.84237 0.0
Co70 Co 0.79852 0.71788 0.89018 0.0
O71 O 0.77443 0.71923 0.90868 0.0
O72 O 0.80555 0.74464 0.92731 0.0
C73 C 0.78828 0.70304 0.78559 0.0
O74 O 0.827 0.72162 0.87522 0.0
Co75 Co 0.79454 0.6751 0.8696 0.0
O76 O 0.82238 0.692 0.83184 0.0
C77 C 0.7908 0.68882 0.00871 0.0
C78 C 0.78601 0.73765 0.9306 0.0
C79 C 0.83377 0.71078 0.84664 0.0
O80 O 0.79719 0.70698 0.98596 0.0
O81 O 0.78708 0.67373 0.9696 0.0
O82 O 0.79673 0.72272 0.79131 0.0
O83 O 0.78504 0.69331 0.84279 0.0
Co84 Co 0.94928 0.71792 0.89045 0.0
O85 O 0.9747 0.71925 0.90911 0.0
O86 O 0.96901 0.74468 0.92764 0.0
C87 C 0.94472 0.70307 0.78586 0.0
O88 O 0.92454 0.72166 0.87534 0.0
Co89 Co 0.91048 0.67513 0.86983 0.0
O90 O 0.89955 0.69203 0.83203 0.0
C91 C 0.92792 0.68885 0.00894 0.0
C92 C 0.98153 0.73766 0.93108 0.0
C93 C 0.90694 0.71082 0.84676 0.0
O94 O 0.93967 0.70702 0.98619 0.0
O95 O 0.91656 0.67375 0.96983 0.0
O96 O 0.95596 0.72275 0.7916 0.0
O97 O 0.93819 0.69334 0.84305 0.0
Co98 Co 0.31951 0.23976 0.88897 0.0
O99 O 0.31838 0.26401 0.90685 0.0
O100 O 0.29285 0.23298 0.92614 0.0
C101 C 0.33433 0.24975 0.78425 0.0
O102 O 0.31556 0.21113 0.87471 0.0
Co103 Co 0.36211 0.24338 0.86858 0.0
O104 O 0.34506 0.21545 0.83154 0.0
C105 C 0.34855 0.24754 0.00746 0.0
C106 C 0.29997 0.25257 0.92901 0.0
C107 C 0.32628 0.20418 0.84646 0.0
O108 O 0.33042 0.24119 0.98475 0.0
O109 O 0.36359 0.25108 0.96835 0.0
O110 O 0.31468 0.24142 0.79 0.0
O111 O 0.34405 0.25301 0.84145 0.0
Co112 Co 0.79866 0.08871 0.88949 0.0
O113 O 0.77447 0.0633 0.90789 0.0
O114 O 0.80553 0.06889 0.92665 0.0
C115 C 0.78851 0.09339 0.78487 0.0
O116 O 0.82723 0.1134 0.8747 0.0
Co117 Co 0.79502 0.12769 0.86889 0.0
O118 O 0.82287 0.13854 0.83133 0.0
C119 C 0.79106 0.11013 0.00797 0.0
C120 C 0.78597 0.05639 0.9299 0.0
C121 C 0.83414 0.13104 0.8462 0.0
O122 O 0.79735 0.09829 0.98524 0.0
O123 O 0.78748 0.1216 0.96884 0.0
O124 O 0.79686 0.08208 0.79061 0.0
O125 O 0.78532 0.09993 0.84206 0.0
Co126 Co 0.72613 0.94266 0.08781 0.0
O127 O 0.72715 0.96798 0.06964 0.0
O128 O 0.75276 0.96263 0.0506 0.0
C129 C 0.71129 0.93785 0.19248 0.0
O130 O 0.73022 0.91809 0.10234 0.0
Co131 Co 0.68365 0.90349 0.10832 0.0
O132 O 0.70078 0.89278 0.14562 0.0
C133 C 0.69711 0.92123 0.96939 0.0
C134 C 0.74557 0.97502 0.04753 0.0
C135 C 0.71957 0.90041 0.13072 0.0
O136 O 0.71524 0.93308 -0.00793 0.0
O137 O 0.6821 0.90968 0.00853 0.0
O138 O 0.73094 0.94926 0.1867 0.0
O139 O 0.70157 0.93127 0.1353 0.0
Co140 Co 0.09527 0.79164 0.08813 0.0
O141 O 0.0699 0.76736 0.0704 0.0
O142 O 0.07533 0.79836 0.05104 0.0
C143 C 0.10014 0.78168 0.19283 0.0
O144 O 0.11994 0.82028 0.10228 0.0
Co145 Co 0.13428 0.78805 0.10831 0.0
O146 O 0.14513 0.81597 0.14535 0.0
C147 C 0.1165 0.78384 0.96953 0.0
C148 C 0.06289 0.77876 0.04828 0.0
C149 C 0.13762 0.82723 0.13049 0.0
O150 O 0.10472 0.7902 -0.00771 0.0
O151 O 0.128 0.78031 0.00858 0.0
O152 O 0.0888 0.78999 0.18712 0.0
O153 O 0.1066 0.77842 0.1356 0.0
Co154 Co 0.24676 0.31295 0.08724 0.0
O155 O 0.27095 0.3118 0.06865 0.0
O156 O 0.2399 0.28626 0.04996 0.0
C157 C 0.25695 0.32779 0.19188 0.0
O158 O 0.21819 0.30899 0.10222 0.0
Co159 Co 0.25036 0.35555 0.10809 0.0
O160 O 0.22255 0.33848 0.14583 0.0
C161 C 0.25431 0.34202 0.96888 0.0
C162 C 0.25946 0.29337 0.04661 0.0
C163 C 0.21128 0.3197 0.13088 0.0
O164 O 0.24804 0.32387 -0.00845 0.0
O165 O 0.25787 0.35705 0.00808 0.0
O166 O 0.2486 0.30812 0.18608 0.0
O167 O 0.2601 0.33753 0.13473 0.0
Co168 Co 0.76236 0.64519 0.42101 0.0
O169 O 0.7371 0.64422 0.40254 0.0
O170 O 0.7424 0.61854 0.38377 0.0
C171 C 0.76711 0.66005 0.52563 0.0
O172 O 0.78688 0.64107 0.43589 0.0
Co173 Co 0.80151 0.68769 0.44165 0.0
O174 O 0.81212 0.67051 0.47939 0.0
C175 C 0.78391 0.67421 0.30258 0.0
C176 C 0.73006 0.62578 0.38048 0.0
C177 C 0.8045 0.65171 0.46452 0.0
O178 O 0.77201 0.65607 0.32528 0.0
O179 O 0.79545 0.68922 0.34172 0.0
O180 O 0.75569 0.64039 0.51985 0.0
O181 O 0.77373 0.66978 0.46847 0.0
Co182 Co 0.39235 0.12485 0.42075 0.0
O183 O 0.39355 0.10063 0.40294 0.0
O184 O 0.41904 0.13169 0.38371 0.0
C185 C 0.37751 0.11483 0.52544 0.0
O186 O 0.39623 0.15345 0.43496 0.0
Co187 Co 0.3497 0.12113 0.44102 0.0
O188 O 0.3667 0.14906 0.4781 0.0
C189 C 0.36331 0.11701 0.30217 0.0
C190 C 0.41197 0.11211 0.38089 0.0
C191 C 0.38547 0.16035 0.4632 0.0
O192 O 0.38145 0.12338 0.32491 0.0
O193 O 0.34827 0.11343 0.34125 0.0
O194 O 0.39717 0.1232 0.51974 0.0
O195 O 0.3678 0.11154 0.46821 0.0
Co196 Co 0.91349 0.27598 0.42065 0.0
O197 O 0.93775 0.30133 0.40235 0.0
O198 O 0.90676 0.2959 0.38344 0.0
C199 C 0.92357 0.27122 0.52529 0.0
O200 O 0.88487 0.25135 0.43535 0.0
Co201 Co 0.91697 0.2369 0.44119 0.0
O202 O 0.88914 0.22615 0.47871 0.0
C203 C 0.92108 0.25454 0.30218 0.0
C204 C 0.92634 0.30832 0.38027 0.0
C205 C 0.87791 0.2337 0.46385 0.0
O206 O 0.91479 0.26639 0.3249 0.0
O207 O 0.9246 0.24304 0.34131 0.0
O208 O 0.91529 0.2826 0.51954 0.0
O209 O 0.92673 0.26467 0.4681 0.0
Co210 Co 0.98694 0.42205 0.22257 0.0
O211 O 0.98571 0.39665 0.24097 0.0
O212 O 0.96022 0.40221 0.25952 0.0
C213 C 1.00185 0.42673 0.11806 0.0
O214 O 0.98307 0.44675 0.2077 0.0
Co215 Co 0.02957 0.46105 0.20221 0.0
O216 O 1.01261 0.47192 0.16458 0.0
C217 C 1.0159 0.44342 0.3412 0.0
C218 C 0.96728 0.38972 0.2628 0.0
C219 C 0.99383 0.46441 0.17931 0.0
O220 O 0.99776 0.43161 0.3184 0.0
O221 O 0.03095 0.45488 0.30214 0.0
O222 O 0.98219 0.41545 0.12369 0.0
O223 O 1.01154 0.43328 0.17532 0.0
Co224 Co 0.61648 0.57291 0.22265 0.0
O225 O 0.64192 0.59706 0.24079 0.0
O226 O 0.63622 0.56594 0.25976 0.0
C227 C 0.6118 0.58305 0.11802 0.0
O228 O 0.59172 0.54436 0.20809 0.0
Co229 Co 0.57764 0.57676 0.20226 0.0
O230 O 0.56666 0.54886 0.16487 0.0
C231 C 0.59528 0.58077 0.34118 0.0
C232 C 0.64877 0.58551 0.26283 0.0
C233 C 0.57409 0.53751 0.1797 0.0
O234 O 0.60699 0.57433 0.31843 0.0
O235 O 0.58386 0.58441 0.30209 0.0
O236 O 0.62303 0.57463 0.12373 0.0
O237 O 0.60533 0.58631 0.17523 0.0
Co238 Co 0.46553 0.05185 0.22447 0.0
O239 O 0.44131 0.05297 0.24278 0.0
O240 O 0.47234 0.07857 0.26143 0.0
C241 C 0.45539 0.03693 0.11993 0.0
O242 O 0.49412 0.05582 0.20965 0.0
Co243 Co 0.46191 1.0092 0.20432 0.0
O244 O 0.48975 0.02624 0.16677 0.0
C245 C 0.45785 0.02287 0.34313 0.0
C246 C 0.45276 0.07142 0.26465 0.0
C247 C 0.50102 0.04506 0.18133 0.0
O248 O 0.46425 0.04102 0.32031 0.0
O249 O 0.45422 1.00779 0.30411 0.0
O250 O 0.46371 0.0566 0.12556 0.0
O251 O 0.45222 0.02724 0.17718 0.0
Co252 Co 0.61652 0.05207 0.22202 0.0
O253 O 0.64191 0.05327 0.23991 0.0
O254 O 0.63637 0.07876 0.25929 0.0
C255 C 0.61174 0.03727 0.11725 0.0
O256 O 0.59183 0.05595 0.2078 0.0
Co257 Co 0.57754 1.00941 0.2014 0.0
O258 O 0.56668 0.02644 0.16431 0.0
C259 C 0.59518 0.02294 0.34042 0.0
C260 C 0.64885 0.07167 0.26213 0.0
C261 C 0.57417 0.04522 0.17942 0.0
O262 O 0.60702 0.04109 0.31777 0.0
O263 O 0.58368 1.00791 0.30124 0.0
O264 O 0.62304 0.05695 0.12307 0.0
O265 O 0.60526 0.02752 0.17442 0.0
Co266 Co 0.98672 0.57292 0.22248 0.0
O267 O 0.98545 0.59709 0.24072 0.0
O268 O 0.96001 0.56598 0.25964 0.0
C269 C 1.00155 0.58307 0.11784 0.0
O270 O 0.98291 0.54437 0.20781 0.0
Co271 Co 0.02941 0.57677 0.20201 0.0
O272 O 1.01247 0.54887 0.16457 0.0
C273 C 1.01577 0.58074 0.34097 0.0
C274 C 0.96704 0.58555 0.26277 0.0
C275 C 0.9937 0.53752 0.17938 0.0
O276 O 0.99762 0.57431 0.31825 0.0
O277 O 0.03083 0.58439 0.30186 0.0
O278 O 0.98189 0.57466 0.12357 0.0
O279 O 1.01127 0.58632 0.17504 0.0
Co280 Co 0.46537 0.42207 0.22314 0.0
O281 O 0.44115 0.39668 0.24133 0.0
O282 O 0.47216 0.40218 0.26021 0.0
C283 C 0.4553 0.42684 0.11853 0.0
O284 O 0.49396 0.44674 0.2085 0.0
Co285 Co 0.46177 0.46109 0.20277 0.0
O286 O 0.48961 0.47191 0.16522 0.0
C287 C 0.45772 0.44343 0.34171 0.0
C288 C 0.45259 0.38971 0.26331 0.0
C289 C 0.50087 0.46439 0.18002 0.0
O290 O 0.46404 0.43161 0.31894 0.0
O291 O 0.45416 0.45491 0.30263 0.0
O292 O 0.46361 0.4155 0.12423 0.0
O293 O 0.45209 0.43335 0.17575 0.0
Co294 Co 0.39221 0.27583 0.41982 0.0
O295 O 0.3934 0.30123 0.40183 0.0
O296 O 0.41891 0.29573 0.38282 0.0
C297 C 0.37734 0.27102 0.52443 0.0
O298 O 0.39612 0.25114 0.43424 0.0
Co299 Co 0.34958 0.2368 0.43997 0.0
O300 O 0.36658 0.22592 0.4772 0.0
C301 C 0.36319 0.25462 0.30122 0.0
C302 C 0.41181 0.3082 0.37984 0.0
C303 C 0.38536 0.23346 0.46248 0.0
O304 O 0.38134 0.26635 0.32399 0.0
O305 O 0.34814 0.24312 0.34027 0.0
O306 O 0.397 0.28235 0.51876 0.0
O307 O 0.36764 0.26453 0.46719 0.0
Co308 Co 0.76243 0.12512 0.42033 0.0
O309 O 0.73707 0.1009 0.40186 0.0
O310 O 0.74261 0.13196 0.38314 0.0
C311 C 0.76711 0.11495 0.52494 0.0
O312 O 0.7871 0.15372 0.43521 0.0
Co313 Co 0.80138 0.12147 0.44086 0.0
O314 O 0.81222 0.14933 0.47846 0.0
C315 C 0.78383 0.1175 0.30183 0.0
C316 C 0.73015 0.11238 0.37982 0.0
C317 C 0.80473 0.16062 0.46369 0.0
O318 O 0.77203 0.12384 0.32458 0.0
O319 O 0.79526 0.11389 0.34094 0.0
O320 O 0.7558 0.12329 0.51921 0.0
O321 O 0.77365 0.11178 0.46775 0.0
Co322 Co 0.91315 0.64525 0.42121 0.0
O323 O 0.93745 0.64429 0.40265 0.0
O324 O 0.90647 0.61861 0.38392 0.0
C325 C 0.92326 0.66011 0.52586 0.0
O326 O 0.8845 0.6411 0.43614 0.0
Co327 Co 0.91647 0.68773 0.44202 0.0
O328 O 0.88868 0.67052 0.47977 0.0
C329 C 0.92051 0.67425 0.30282 0.0
C330 C 0.92606 0.62585 0.38059 0.0
C331 C 0.8775 0.65172 0.46481 0.0
O332 O 0.91436 0.65613 0.32551 0.0
O333 O 0.92397 0.68926 0.342 0.0
O334 O 0.91503 0.64045 0.52005 0.0
O335 O 0.92636 0.66983 0.4687 0.0
Co336 Co 0.429 0.97911 0.75526 0.0
O337 O 0.40366 0.97801 0.73717 0.0
O338 O 0.4091 0.95245 0.7179 0.0
C339 C 0.43379 0.99391 0.86004 0.0
O340 O 0.45362 0.97512 0.76963 0.0
Co341 Co 0.46806 0.0217 0.776 0.0
O342 O 0.47883 1.00459 0.81311 0.0
C343 C 0.45045 1.00822 0.63693 0.0
C344 C 0.39668 0.9596 0.71489 0.0
C345 C 0.47128 0.98581 0.79801 0.0
O346 O 0.43856 0.99007 0.65956 0.0
O347 O 0.46197 0.02323 0.67612 0.0
O348 O 0.42243 0.97424 0.85419 0.0
O349 O 0.44032 1.00365 0.80289 0.0
Co350 Co 0.0596 0.45837 0.75338 0.0
O351 O 0.06068 0.43411 0.73525 0.0
O352 O 0.08624 0.46515 0.71607 0.0
C353 C 0.04482 0.44831 0.85815 0.0
O354 O 0.06358 0.487 0.76789 0.0
Co355 Co 1.01702 0.45477 0.77407 0.0
O356 O 0.03409 0.48269 0.81114 0.0
C357 C 0.0305 0.45065 0.63504 0.0
C358 C 0.07909 0.44555 0.71311 0.0
C359 C 0.05287 0.49395 0.79621 0.0
O360 O 0.04866 0.45699 0.65768 0.0
O361 O 1.01549 0.44709 0.67423 0.0
O362 O 0.06447 0.45664 0.85227 0.0
O363 O 0.03507 0.4451 0.801 0.0
Co364 Co 0.58045 0.60954 0.75358 0.0
O365 O 0.60471 0.6349 0.73542 0.0
O366 O 0.57371 0.62947 0.71654 0.0
C367 C 0.5905 0.60473 0.85819 0.0
O368 O 0.55182 0.58491 0.76818 0.0
Co369 Co 0.58391 0.57044 0.77393 0.0
O370 O 0.55607 0.55968 0.81143 0.0
C371 C 0.58803 0.58814 0.63501 0.0
C372 C 0.59329 0.6419 0.71346 0.0
C373 C 0.54485 0.56725 0.79661 0.0
O374 O 0.58176 0.59999 0.65777 0.0
O375 O 0.59154 0.57662 0.67408 0.0
O376 O 0.58222 0.61611 0.8525 0.0
O377 O 0.59367 0.5982 0.80097 0.0
Co378 Co 0.65377 0.75576 0.55683 0.0
O379 O 0.65258 0.73036 0.57495 0.0
O380 O 0.62708 0.73589 0.59391 0.0
C381 C 0.66861 0.76052 0.45221 0.0
O382 O 0.64986 0.78044 0.5423 0.0
Co383 Co 0.69638 0.79478 0.53645 0.0
O384 O 0.67938 0.80562 0.49904 0.0
C385 C 0.6828 0.77707 0.67535 0.0
C386 C 0.63416 0.72341 0.59695 0.0
C387 C 0.6606 0.7981 0.51389 0.0
O388 O 0.66465 0.76528 0.65262 0.0
O389 O 0.69784 0.78856 0.63625 0.0
O390 O 0.64895 0.7492 0.45793 0.0
O391 O 0.67833 0.76703 0.50941 0.0
Co392 Co 0.28314 0.90654 0.55631 0.0
O393 O 0.30858 0.93071 0.57447 0.0
O394 O 0.30291 0.89961 0.59351 0.0
C395 C 0.27844 0.91665 0.45161 0.0
O396 O 0.25838 0.87798 0.54178 0.0
Co397 Co 0.2443 0.91041 0.53586 0.0
O398 O 0.23331 0.88248 0.49866 0.0
C399 C 0.26188 0.91434 0.67483 0.0
C400 C 0.31544 0.91918 0.59661 0.0
C401 C 0.24073 0.87113 0.51351 0.0
O402 O 0.27363 0.90795 0.65208 0.0
O403 O 0.25048 0.918 0.63573 0.0
O404 O 0.28969 0.90825 0.45735 0.0
O405 O 0.27199 0.91992 0.50883 0.0
Co406 Co 0.13241 0.38516 0.55625 0.0
O407 O 0.10819 0.38625 0.57474 0.0
O408 O 0.13923 0.41185 0.59338 0.0
C409 C 0.12225 0.3703 0.45166 0.0
O410 O 0.16102 0.38921 0.54134 0.0
Co411 Co 0.12899 0.34264 0.53548 0.0
O412 O 0.15676 0.35978 0.4975 0.0
C413 C 0.12495 0.35614 0.67467 0.0
C414 C 0.11966 0.4047 0.59664 0.0
C415 C 0.16798 0.37857 0.51252 0.0
O416 O 0.13115 0.37427 0.65199 0.0
O417 O 0.12148 0.34113 0.63549 0.0
O418 O 0.13056 0.38997 0.45743 0.0
O419 O 0.11913 0.36057 0.50883 0.0
Co420 Co 0.28335 0.38564 0.55646 0.0
O421 O 0.30868 0.38677 0.57503 0.0
O422 O 0.3032 0.41234 0.5936 0.0
C423 C 0.27866 0.37076 0.45188 0.0
O424 O 0.25874 0.38959 0.54144 0.0
Co425 Co 0.24435 0.34299 0.53591 0.0
O426 O 0.23362 0.36005 0.49803 0.0
C427 C 0.26185 0.35664 0.67501 0.0
C428 C 0.31563 0.40521 0.59696 0.0
C429 C 0.24113 0.37885 0.5128 0.0
O430 O 0.27371 0.37478 0.65224 0.0
O431 O 0.2504 0.34157 0.63591 0.0
O432 O 0.29001 0.39043 0.45761 0.0
O433 O 0.2721 0.36105 0.50908 0.0
Co434 Co 0.65346 0.90657 0.557 0.0
O435 O 0.65222 0.93075 0.57513 0.0
O436 O 0.62674 0.89966 0.59401 0.0
C437 C 0.66831 0.91669 0.45237 0.0
O438 O 0.64962 0.87801 0.5424 0.0
Co439 Co 0.69614 0.91038 0.53664 0.0
O440 O 0.67918 0.8825 0.49915 0.0
C441 C 0.68246 0.91431 0.6756 0.0
C442 C 0.6338 0.91924 0.59705 0.0
C443 C 0.66041 0.87116 0.51397 0.0
O444 O 0.66433 0.90795 0.65283 0.0
O445 O 0.69753 0.91795 0.63653 0.0
O446 O 0.64865 0.9083 0.45806 0.0
O447 O 0.67802 0.91995 0.5096 0.0
Co448 Co 0.13198 0.75563 0.55714 0.0
O449 O 0.10781 0.73017 0.57515 0.0
O450 O 0.13887 0.73579 0.59408 0.0
C451 C 0.12189 0.7604 0.45256 0.0
O452 O 0.16054 0.78037 0.54266 0.0
Co453 Co 0.12827 0.79458 0.53699 0.0
O454 O 0.15614 0.80552 0.49962 0.0
C455 C 0.1241 0.77679 0.67575 0.0
C456 C 0.11931 0.72326 0.59708 0.0
C457 C 0.16743 0.79804 0.51435 0.0
O458 O 0.13055 0.76508 0.65298 0.0
O459 O 0.12051 0.78826 0.6367 0.0
O460 O 0.13027 0.74912 0.45819 0.0
O461 O 0.11865 0.76686 0.50981 0.0
Co462 Co 0.0594 0.60931 0.75331 0.0
O463 O 0.06044 0.63465 0.73528 0.0
O464 O 0.08605 0.6293 0.71622 0.0
C465 C 0.04454 0.60447 0.85796 0.0
O466 O 0.06345 0.58471 0.76774 0.0
Co467 Co 1.01687 0.57017 0.77365 0.0
O468 O 0.03398 0.55941 0.81085 0.0
C469 C 0.0304 0.58793 0.63477 0.0
C470 C 0.07886 0.6417 0.71325 0.0
C471 C 0.05276 0.56701 0.79601 0.0
O472 O 0.04853 0.59978 0.6575 0.0
O473 O 1.01538 0.57638 0.67386 0.0
O474 O 0.06419 0.61586 0.85224 0.0
O475 O 0.03484 0.59792 0.80076 0.0
Co476 Co 0.42933 0.45868 0.75408 0.0
O477 O 0.40394 0.43445 0.73606 0.0
O478 O 0.40948 0.46551 0.71699 0.0
C479 C 0.43408 0.4486 0.85872 0.0
O480 O 0.45402 0.48728 0.76852 0.0
Co481 Co 0.46827 0.45501 0.77439 0.0
O482 O 0.47915 0.4829 0.81173 0.0
C483 C 0.45057 0.45089 0.63553 0.0
C484 C 0.397 0.44593 0.71402 0.0
C485 C 0.47166 0.49419 0.79689 0.0
O486 O 0.43882 0.45728 0.65828 0.0
O487 O 0.46204 0.44732 0.6746 0.0
O488 O 0.42279 0.45696 0.853 0.0
O489 O 0.44057 0.44537 0.80151 0.0
Co490 Co 0.57998 0.9793 0.7529 0.0
O491 O 0.60424 0.97825 0.73472 0.0
O492 O 0.57325 0.9526 0.716 0.0
C493 C 0.59006 0.99423 0.85742 0.0
O494 O 0.55136 0.97526 0.7676 0.0
Co495 Co 0.58348 0.0219 0.77293 0.0
O496 O 0.55564 1.00481 0.81047 0.0
C497 C 0.58765 1.00827 0.6342 0.0
C498 C 0.59283 0.95979 0.71289 0.0
C499 C 0.54441 0.98598 0.79592 0.0
O500 O 0.58126 0.99012 0.65703 0.0
O501 O 0.59123 0.02334 0.6732 0.0
O502 O 0.58179 0.97457 0.85181 0.0
O503 O 0.59322 1.00392 0.80016 0.0
C504 C 0.16407 0.31679 0.19957 0.0
C505 C 0.15195 0.31125 0.13986 0.0
H506 H 0.19245 0.32318 0.24397 0.0
C507 C 0.15728 0.3032 0.08335 0.0
H508 H 0.1603 0.32304 0.24381 0.0
C509 C 0.17585 0.30328 0.08344 0.0
C510 C 0.18917 0.31142 0.14004 0.0
H511 H 0.14833 0.29907 0.03637 0.0
H512 H 0.18075 0.2992 0.03653 0.0
C513 C 0.18248 0.31687 0.19966 0.0
C514 C 0.72277 0.85627 0.19954 0.0
C515 C 0.72808 0.84956 0.13962 0.0
H516 H 0.71654 0.87837 0.2441 0.0
C517 C 0.73592 0.86283 0.08275 0.0
H518 H 0.71667 0.84633 0.24404 0.0
C519 C 0.73585 0.88134 0.08279 0.0
C520 C 0.72794 0.88665 0.13969 0.0
H521 H 0.73987 0.8579 0.03561 0.0
H522 H 0.73975 0.89022 0.03568 0.0
C523 C 0.7227 0.87462 0.19957 0.0
C524 C 0.16356 0.85608 0.19919 0.0
C525 C 0.15149 0.84936 0.13939 0.0
H526 H 0.19193 0.8782 0.2435 0.0
C527 C 0.15688 0.86261 0.08248 0.0
H528 H 0.15975 0.84616 0.24371 0.0
C529 C 0.17546 0.88112 0.08237 0.0
C530 C 0.18874 0.88646 0.13915 0.0
H531 H 0.14797 0.85767 0.03543 0.0
H532 H 0.18042 0.89 0.03523 0.0
C533 C 0.18199 0.87444 0.19907 0.0
C534 C 0.31019 0.15029 0.89477 0.0
C535 C 0.31812 0.14493 0.83804 0.0
H536 H 0.30617 0.17377 0.94159 0.0
C537 C 0.32343 0.15694 0.7781 0.0
H538 H 0.30623 0.14142 0.94192 0.0
C539 C 0.32339 0.17531 0.7779 0.0
C540 C 0.31804 0.18206 0.83764 0.0
H541 H 0.3296 0.15315 0.73371 0.0
H542 H 0.32953 0.18522 0.73336 0.0
C543 C 0.31014 0.16882 0.89457 0.0
C544 C 0.86293 0.15707 0.77747 0.0
C545 C 0.85624 0.14491 0.8371 0.0
H546 H 0.88511 0.18544 0.73329 0.0
C547 C 0.86955 0.15014 0.89373 0.0
H548 H 0.85297 0.15337 0.73315 0.0
C549 C 0.88812 0.16867 0.89382 0.0
C550 C 0.89345 0.18204 0.83728 0.0
H551 H 0.86465 0.14115 0.94064 0.0
H552 H 0.89707 0.17351 0.94081 0.0
C553 C 0.88135 0.17543 0.77756 0.0
C554 C 0.86926 0.72715 0.8936 0.0
C555 C 0.85584 0.71891 0.83728 0.0
H556 H 0.89682 0.73142 0.94044 0.0
C557 C 0.8624 0.71324 0.77783 0.0
H558 H 0.86445 0.7314 0.94037 0.0
C559 C 0.88078 0.71325 0.77786 0.0
C560 C 0.89299 0.71893 0.83735 0.0
H561 H 0.85236 0.70685 0.73372 0.0
H562 H 0.88445 0.70687 0.73377 0.0
C563 C 0.88779 0.72717 0.89363 0.0
C564 C 0.84215 0.63544 0.41696 0.0
C565 C 0.85538 0.64335 0.47386 0.0
H566 H 0.81476 0.63151 0.36971 0.0
C567 C 0.84862 0.64862 0.53373 0.0
H568 H 0.84711 0.63152 0.36987 0.0
C569 C 0.83024 0.64861 0.53365 0.0
C570 C 0.81825 0.64334 0.47369 0.0
H571 H 0.85853 0.65476 0.57826 0.0
H572 H 0.82644 0.65475 0.57812 0.0
C573 C 0.82362 0.63544 0.41688 0.0
C574 C 0.40163 0.19574 0.41522 0.0
C575 C 0.39368 0.18247 0.47207 0.0
H576 H 0.4056 0.22316 0.36792 0.0
C577 C 0.38828 0.18919 0.53176 0.0
H578 H 0.40565 0.1908 0.36826 0.0
C579 C 0.38825 0.20757 0.53156 0.0
C580 C 0.39362 0.21961 0.47168 0.0
H581 H 0.3821 0.17926 0.57624 0.0
H582 H 0.38205 0.21134 0.5759 0.0
C583 C 0.4016 0.21427 0.41503 0.0
C584 C 0.84251 0.2146 0.41628 0.0
C585 C 0.8558 0.21987 0.47298 0.0
H586 H 0.81502 0.19118 0.36921 0.0
C587 C 0.84909 0.20776 0.53271 0.0
H588 H 0.84743 0.22355 0.3693 0.0
C589 C 0.83068 0.18939 0.53267 0.0
C590 C 0.8186 0.18273 0.4729 0.0
H591 H 0.85904 0.21149 0.57709 0.0
H592 H 0.82691 0.17941 0.57702 0.0
C593 C 0.82395 0.19606 0.41624 0.0
C594 C 0.99103 0.5088 0.11049 0.0
C595 C 0.98553 0.51542 0.17018 0.0
H596 H 0.99735 0.48673 0.06616 0.0
C597 C 0.97749 0.50206 0.22676 0.0
H598 H 0.99728 0.5188 0.0662 0.0
C599 C 0.97752 0.48353 0.22673 0.0
C600 C 0.98561 0.47829 0.17013 0.0
H601 H 0.97338 0.50691 0.27372 0.0
H602 H 0.97344 0.47456 0.27367 0.0
C603 C 0.99107 0.49043 0.11047 0.0
C604 C 0.55486 0.50208 0.22725 0.0
C605 C 0.56015 0.51541 0.17061 0.0
H606 H 0.53143 0.47459 0.27433 0.0
C607 C 0.54802 0.50875 0.11096 0.0
H608 H 0.56384 0.50696 0.27418 0.0
C609 C 0.52962 0.49036 0.11104 0.0
C610 C 0.52297 0.47825 0.17077 0.0
H611 H 0.55176 0.51873 0.06662 0.0
H612 H 0.51964 0.48663 0.06675 0.0
C613 C 0.53631 0.48354 0.22733 0.0
C614 C 0.5481 0.04801 0.11128 0.0
C615 C 0.56028 0.05343 0.17081 0.0
H616 H 0.51968 0.04175 0.06755 0.0
C617 C 0.55504 0.06139 0.22777 0.0
H618 H 0.5518 0.04182 0.0667 0.0
C619 C 0.53649 0.06135 0.22826 0.0
C620 C 0.52311 0.05335 0.17178 0.0
H621 H 0.56405 0.06543 0.27462 0.0
H622 H 0.53165 0.06536 0.27547 0.0
C623 C 0.52971 0.04797 0.11176 0.0
C624 C 0.49729 0.9829 0.86613 0.0
C625 C 0.48514 0.97755 0.80657 0.0
H626 H 0.52571 0.98913 0.90985 0.0
C627 C 0.49039 0.96964 0.74948 0.0
H628 H 0.49358 0.98905 0.91079 0.0
C629 C 0.50895 0.96969 0.74894 0.0
C630 C 0.52232 0.97764 0.80548 0.0
H631 H 0.48141 0.96565 0.70261 0.0
H632 H 0.51381 0.96574 0.70166 0.0
C633 C 0.51569 0.98295 0.8656 0.0
C634 C 0.06897 0.54785 0.74814 0.0
C635 C 0.06108 0.55322 0.80502 0.0
H636 H 0.07292 0.52437 0.70108 0.0
C637 C 0.05582 0.5412 0.86494 0.0
H638 H 0.07288 0.55673 0.70101 0.0
C639 C 0.05584 0.52282 0.86498 0.0
C640 C 0.06114 0.51608 0.80512 0.0
H641 H 0.04969 0.54499 0.90944 0.0
H642 H 0.04973 0.5129 0.90953 0.0
C643 C 0.06899 0.52932 0.74819 0.0
C644 C 0.49089 0.52959 0.74914 0.0
C645 C 0.48555 0.51631 0.80592 0.0
H646 H 0.51437 0.55703 0.70199 0.0
C647 C 0.49763 0.52301 0.86568 0.0
H648 H 0.48196 0.52467 0.70213 0.0
C649 C 0.51604 0.54138 0.86561 0.0
C650 C 0.52275 0.55344 0.80577 0.0
H651 H 0.49385 0.51306 0.91012 0.0
H652 H 0.52599 0.54514 0.91 0.0
C653 C 0.50945 0.54812 0.74906 0.0
C654 C 0.65771 0.84243 0.44507 0.0
C655 C 0.65223 0.84905 0.50479 0.0
H656 H 0.66403 0.82036 0.40072 0.0
C657 C 0.64422 0.83571 0.56142 0.0
H658 H 0.66393 0.85242 0.40075 0.0
C659 C 0.64428 0.8172 0.5614 0.0
C660 C 0.65235 0.81195 0.50476 0.0
H661 H 0.64013 0.84057 0.6084 0.0
H662 H 0.64023 0.80824 0.60837 0.0
C663 C 0.65777 0.82407 0.44506 0.0
C664 C 0.20289 0.81721 0.56152 0.0
C665 C 0.18953 0.81192 0.50503 0.0
H666 H 0.23047 0.84061 0.60816 0.0
C667 C 0.19616 0.824 0.44524 0.0
H668 H 0.19802 0.80827 0.60855 0.0
C669 C 0.21459 0.84236 0.44501 0.0
C670 C 0.22676 0.84902 0.50456 0.0
H671 H 0.18616 0.82027 0.40101 0.0
H672 H 0.21832 0.85232 0.40061 0.0
C673 C 0.22147 0.83572 0.56129 0.0
C674 C 0.22194 0.39506 0.56015 0.0
C675 C 0.22729 0.38709 0.50349 0.0
H676 H 0.19844 0.39898 0.6071 0.0
C677 C 0.21523 0.38166 0.44367 0.0
H678 H 0.23086 0.39912 0.6072 0.0
C679 C 0.19682 0.38158 0.44362 0.0
C680 C 0.19009 0.38693 0.50338 0.0
H681 H 0.21903 0.37548 0.39932 0.0
H682 H 0.18687 0.37533 0.39922 0.0
C683 C 0.20337 0.39498 0.56009 0.0
C684 C 0.03261 0.26051 0.00246 0.0
C685 C 0.04264 0.28154 0.01676 0.0
H686 H 1.00526 0.23441 0.96426 0.0
C687 C 0.03255 0.29236 0.00203 0.0
H688 H 0.03998 0.25175 0.01328 0.0
C689 C 1.01311 0.28265 0.97373 0.0
C690 C 1.00287 0.26168 0.95966 0.0
H691 H 0.03974 0.30856 0.0119 0.0
H692 H 1.00605 0.29174 0.96336 0.0
C693 C 1.01276 0.2506 0.97456 0.0
C694 C 0.78783 0.77015 0.97481 0.0
C695 C 0.77669 0.74913 0.96055 0.0
H696 H 0.78685 0.79639 0.01302 0.0
C697 C 0.75578 0.73845 0.97536 0.0
H698 H 0.80398 0.7788 0.96394 0.0
C699 C 0.74619 0.7483 0.0037 0.0
C700 C 0.75707 0.76927 0.01773 0.0
H701 H 0.74666 0.72226 0.96552 0.0
H702 H 0.73003 0.73933 0.01414 0.0
C703 C 0.77804 0.78021 0.00275 0.0
C704 C 0.25779 1.00574 0.00258 0.0
C705 C 0.2688 0.99575 0.01706 0.0
H706 H 0.25902 0.03305 0.96417 0.0
C707 C 0.28971 1.00589 0.0024 0.0
H708 H 0.24164 0.99832 0.01333 0.0
C709 C 0.29944 0.02534 0.97398 0.0
C710 C 0.2887 0.03553 0.95975 0.0
H711 H 0.29873 0.99873 0.01242 0.0
H712 H 0.3156 0.03245 0.96366 0.0
C713 C 0.26772 0.02559 0.97459 0.0
C714 C 1.01238 0.73834 0.97705 0.0
C715 C 1.0023 0.7491 0.96131 0.0
H716 H 0.03887 0.73911 0.01658 0.0
C717 C 1.0123 0.77017 0.97486 0.0
H718 H 1.0052 0.72211 0.96783 0.0
C719 C 0.03213 0.78019 0.00288 0.0
C720 C 0.04204 0.76917 0.01866 0.0
H721 H 1.00492 0.77889 0.96327 0.0
H722 H 0.03962 0.79641 0.01248 0.0
C723 C 0.03181 0.74815 0.00547 0.0
C724 C 0.26772 0.25104 0.97415 0.0
C725 C 0.28867 0.26209 0.95885 0.0
H726 H 0.24172 0.25224 0.01342 0.0
C727 C 0.29944 0.28307 0.97269 0.0
H728 H 0.25899 0.23484 0.96403 0.0
C729 C 0.28976 0.29282 0.00123 0.0
C730 C 0.26888 0.28202 0.01641 0.0
H731 H 0.31557 0.29214 0.96199 0.0
H732 H 0.2988 0.30903 0.01095 0.0
C733 C 0.25784 0.26098 0.00227 0.0
C734 C 0.78765 0.0257 0.97457 0.0
C735 C 0.77656 0.03558 0.95992 0.0
H736 H 0.78658 0.99849 0.01329 0.0
C737 C 0.75564 0.02536 0.97453 0.0
H738 H 0.80381 0.03318 0.96387 0.0
C739 C 0.74599 1.00593 0.00309 0.0
C740 C 0.75683 0.99584 0.01752 0.0
H741 H 0.74655 0.03243 0.96437 0.0
H742 H 0.72983 0.99875 0.01337 0.0
C743 C 0.77781 1.00587 0.00271 0.0
C744 C 0.67989 0.61585 0.30683 0.0
C745 C 0.66957 0.59488 0.29273 0.0
H746 H 0.70656 0.64167 0.3453 0.0
C747 C 0.67936 0.58371 0.30781 0.0
H748 H 0.6729 0.625 0.29631 0.0
C749 C 0.69917 0.59352 0.33595 0.0
C750 C 0.70927 0.61455 0.35033 0.0
H751 H 0.6718 0.56752 0.29749 0.0
H752 H 0.70646 0.58469 0.34691 0.0
C753 C 0.6993 0.62547 0.33539 0.0
C754 C 0.42238 0.07193 0.30935 0.0
C755 C 0.44328 0.08276 0.29448 0.0
H756 H 0.39649 0.07256 0.34801 0.0
C757 C 0.45426 0.1038 0.30854 0.0
H758 H 0.41338 0.05571 0.29967 0.0
C759 C 0.44431 0.11372 0.33631 0.0
C760 C 0.42335 0.10263 0.35132 0.0
H761 H 0.4704 0.11257 0.29762 0.0
H762 H 0.453 0.12992 0.3464 0.0
C763 C 0.41263 0.08164 0.33753 0.0
C764 C 0.92491 0.33916 0.33549 0.0
C765 C 0.93587 0.32914 0.35021 0.0
H766 H 0.92622 0.36648 0.29677 0.0
C767 C 0.9568 0.33923 0.33567 0.0
H768 H 0.90876 0.33177 0.34612 0.0
C769 C 0.96658 0.35867 0.30716 0.0
C770 C 0.95587 0.36889 0.2927 0.0
H771 H 0.96579 0.33205 0.34586 0.0
H772 H 0.98274 0.36574 0.29695 0.0
C773 C 0.93489 0.35899 0.30738 0.0
C774 C 0.69935 0.11391 0.33559 0.0
C775 C 0.70938 0.10292 0.3496 0.0
H776 H 0.67203 0.11268 0.29743 0.0
C777 C 0.69933 0.08203 0.33426 0.0
H778 H 0.7067 0.13004 0.34686 0.0
C779 C 0.67992 0.07231 0.3057 0.0
C780 C 0.66967 0.08304 0.29199 0.0
H781 H 0.70652 0.07302 0.34388 0.0
H782 H 0.67287 0.05617 0.29487 0.0
C783 C 0.67953 0.10399 0.30744 0.0
C784 C 0.92468 0.5936 0.33597 0.0
C785 C 0.93561 0.61462 0.3504 0.0
H786 H 0.92603 0.56759 0.29742 0.0
C787 C 0.95651 0.62553 0.33549 0.0
H788 H 0.90855 0.58477 0.34691 0.0
C789 C 0.9663 0.6159 0.30689 0.0
C790 C 0.95563 0.59494 0.29272 0.0
H791 H 0.96547 0.64173 0.34545 0.0
H792 H 0.98244 0.62505 0.29638 0.0
C793 C 0.93467 0.58378 0.30778 0.0
C794 C 0.45411 0.35888 0.30758 0.0
C795 C 0.4431 0.36887 0.29311 0.0
H796 H 0.45287 0.33155 0.34587 0.0
C797 C 0.42217 0.35871 0.30761 0.0
H798 H 0.47026 0.36632 0.29695 0.0
C799 C 0.41244 0.33925 0.33587 0.0
C800 C 0.42318 0.32906 0.35012 0.0
H801 H 0.41315 0.36587 0.29758 0.0
H802 H 0.39627 0.33212 0.34607 0.0
C803 C 0.44417 0.33901 0.33543 0.0
C804 C 0.34645 0.94953 0.64124 0.0
C805 C 0.33623 0.92859 0.62673 0.0
H806 H 0.37303 0.97536 0.68018 0.0
C807 C 0.34608 0.91747 0.64163 0.0
H808 H 0.33941 0.95864 0.63089 0.0
C809 C 0.36588 0.92732 0.66994 0.0
C810 C 0.3759 0.94832 0.68468 0.0
H811 H 0.33859 0.9013 0.63102 0.0
H812 H 0.37323 0.91853 0.68071 0.0
C813 C 0.36585 0.95918 0.66997 0.0
C814 C 0.07963 0.41504 0.66959 0.0
C815 C 0.0904 0.43603 0.68339 0.0
H816 H 0.08028 0.38907 0.6317 0.0
C817 C 0.11136 0.44707 0.6683 0.0
H818 H 0.06348 0.40599 0.68013 0.0
C819 C 0.12125 0.43711 0.64048 0.0
C820 C 0.11021 0.41607 0.62646 0.0
H821 H 0.12008 0.46327 0.67838 0.0
H822 H 0.13738 0.44584 0.6295 0.0
C823 C 0.08932 0.40528 0.64137 0.0
C824 C 0.62374 0.67289 0.66925 0.0
C825 C 0.60281 0.66275 0.68369 0.0
H826 H 0.64967 0.69946 0.63083 0.0
C827 C 0.59183 0.67276 0.66918 0.0
H828 H 0.63275 0.66572 0.67931 0.0
C829 C 0.60179 0.69263 0.64134 0.0
C830 C 0.62278 0.70256 0.6267 0.0
H831 H 0.57567 0.66534 0.67978 0.0
H832 H 0.59311 0.7001 0.63086 0.0
C833 C 0.63351 0.69235 0.64099 0.0
C834 C 0.3663 0.44752 0.66905 0.0
C835 C 0.37617 0.43644 0.68429 0.0
H836 H 0.33911 0.44636 0.62995 0.0
C837 C 0.36591 0.41545 0.67052 0.0
H838 H 0.37381 0.46372 0.67911 0.0
C839 C 0.34648 0.40573 0.64213 0.0
C840 C 0.33642 0.41655 0.62702 0.0
H841 H 0.37296 0.40637 0.68118 0.0
H842 H 0.33928 0.38952 0.63247 0.0
C843 C 0.34646 0.4376 0.64106 0.0
C844 C 0.60139 0.91757 0.64115 0.0
C845 C 0.62239 0.92867 0.62667 0.0
H846 H 0.57524 0.91869 0.67928 0.0
C847 C 0.6331 0.94963 0.64096 0.0
H848 H 0.59271 0.90139 0.63067 0.0
C849 C 0.62331 0.95931 0.66902 0.0
C850 C 0.60237 0.94848 0.68329 0.0
H851 H 0.64927 0.95872 0.63092 0.0
H852 H 0.6323 0.97551 0.67907 0.0
C853 C 0.5914 0.92746 0.66881 0.0
C854 C 0.07929 0.67263 0.66908 0.0
C855 C 0.09014 0.66256 0.68352 0.0
H856 H 0.07985 0.69917 0.63075 0.0
C857 C 0.11114 0.67264 0.66907 0.0
H858 H 0.06311 0.66541 0.67909 0.0
C859 C 0.121 0.69252 0.64131 0.0
C860 C 0.10989 0.7024 0.6267 0.0
H861 H 0.11993 0.66527 0.67965 0.0
H862 H 0.13717 0.70005 0.6309 0.0
C863 C 0.08895 0.69211 0.64091 0.0
C864 C 0.12918 0.36873 0.79645 0.0
C865 C 0.12207 0.3524 0.74981 0.0
H866 H 0.13322 0.3781 0.9021 0.0
C867 C 0.11252 0.33239 0.77571 0.0
H868 H 0.13653 0.38431 0.77825 0.0
C869 C 0.11049 0.32881 0.84673 0.0
C870 C 0.11816 0.34517 0.89336 0.0
H871 H 0.1067 0.31943 0.74117 0.0
H872 H 0.10332 0.31324 0.86501 0.0
C873 C 0.12733 0.36515 0.86749 0.0
C874 C 0.71008 0.78937 0.84732 0.0
C875 C 0.69373 0.78139 0.894 0.0
H876 H 0.71945 0.79431 0.74169 0.0
C877 C 0.67374 0.77116 0.86816 0.0
H878 H 0.72566 0.79728 0.86552 0.0
C879 C 0.67016 0.76934 0.79714 0.0
C880 C 0.6865 0.77789 0.75047 0.0
H881 H 0.66078 0.76466 0.90278 0.0
H882 H 0.65458 0.76161 0.77896 0.0
C883 C 0.7065 0.78772 0.7763 0.0
C884 C 0.24949 0.9292 0.84687 0.0
C885 C 0.25706 0.92043 0.89352 0.0
H886 H 0.24506 0.93414 0.74124 0.0
C887 C 0.26708 0.91045 0.86766 0.0
H888 H 0.24178 0.93706 0.86507 0.0
C889 C 0.26908 0.90887 0.79664 0.0
C890 C 0.26094 0.91708 0.74998 0.0
H891 H 0.27327 0.90368 0.90224 0.0
H892 H 0.27662 0.90084 0.77841 0.0
C893 C 0.25133 0.92746 0.77584 0.0
C894 C 0.37237 0.12055 0.10931 0.0
C895 C 0.35237 0.11076 0.08351 0.0
H896 H 0.39153 0.13006 0.19851 0.0
C897 C 0.33603 0.10221 0.13021 0.0
H898 H 0.38531 0.12714 0.07468 0.0
C899 C 0.33961 0.10399 0.20122 0.0
C900 C 0.35961 0.1142 0.22704 0.0
H901 H 0.32044 0.0945 0.11205 0.0
H902 H 0.32666 0.09749 0.23585 0.0
C903 C 0.37595 0.12217 0.18033 0.0
C904 C 0.93394 0.2437 0.20118 0.0
C905 C 0.92391 0.25366 0.22705 0.0
H906 H 0.94341 0.23401 0.11193 0.0
C907 C 0.9162 0.2623 0.18039 0.0
H908 H 0.94023 0.23704 0.23577 0.0
C909 C 0.91793 0.26045 0.10936 0.0
C910 C 0.92757 0.2501 0.08349 0.0
H911 H 0.90846 0.27014 0.19859 0.0
H912 H 0.91156 0.26703 0.07476 0.0
C913 C 0.93584 0.24202 0.13015 0.0
C914 C 0.77589 0.66158 0.1808 0.0
C915 C 0.78477 0.67793 0.22744 0.0
H916 H 0.77086 0.65219 0.07517 0.0
C917 C 0.79488 0.69794 0.20157 0.0
H918 H 0.76793 0.64599 0.199 0.0
C919 C 0.79646 0.70152 0.13054 0.0
C920 C 0.78812 0.68515 0.08389 0.0
H921 H 0.80174 0.71091 0.23614 0.0
H922 H 0.80458 0.71711 0.11229 0.0
C923 C 0.77763 0.66515 0.10977 0.0
C924 C 0.93503 0.70156 0.13075 0.0
C925 C 0.92697 0.68519 0.08411 0.0
H926 H 0.93926 0.71095 0.23635 0.0
C927 C 0.91751 0.66519 0.10999 0.0
H928 H 0.94246 0.71714 0.11251 0.0
C929 C 0.91577 0.66162 0.18102 0.0
C930 C 0.92329 0.67797 0.22767 0.0
H931 H 0.9113 0.65223 0.07539 0.0
H932 H 0.90818 0.64603 0.19923 0.0
C933 C 0.93313 0.69798 0.20178 0.0
C934 C 0.33592 0.2425 0.12928 0.0
C935 C 0.35226 0.25036 0.08259 0.0
H936 H 0.32655 0.23764 0.23492 0.0
C937 C 0.37226 0.26048 0.10841 0.0
H938 H 0.32034 0.23468 0.1111 0.0
C939 C 0.37584 0.26228 0.17943 0.0
C940 C 0.3595 0.25384 0.22611 0.0
H941 H 0.38521 0.26689 0.0738 0.0
H942 H 0.39142 0.26992 0.19761 0.0
C943 C 0.3395 0.24414 0.2003 0.0
C944 C 0.79612 0.10255 0.12977 0.0
C945 C 0.78828 0.11106 0.08312 0.0
H946 H 0.80091 0.09795 0.23539 0.0
C947 C 0.77817 0.12094 0.10901 0.0
H948 H 0.80393 0.09478 0.11155 0.0
C949 C 0.77633 0.12266 0.18004 0.0
C950 C 0.78472 0.1147 0.22669 0.0
H951 H 0.77178 0.1275 0.07443 0.0
H952 H 0.76868 0.13059 0.19827 0.0
C953 C 0.79444 0.10443 0.20081 0.0
C954 C 0.66979 0.90882 0.79744 0.0
C955 C 0.68614 0.91704 0.75076 0.0
H956 H 0.66043 0.90363 0.90307 0.0
C957 C 0.70613 0.92745 0.77659 0.0
H958 H 0.65421 0.90076 0.77923 0.0
C959 C 0.70971 0.9292 0.84761 0.0
C960 C 0.69337 0.92042 0.89429 0.0
H961 H 0.71908 0.93415 0.74197 0.0
H962 H 0.72529 0.93709 0.86577 0.0
C963 C 0.67337 0.9104 0.86846 0.0
C964 C 0.11096 0.78735 0.7767 0.0
C965 C 0.12116 0.77756 0.75086 0.0
H966 H 0.10133 0.79689 0.86592 0.0
C967 C 0.12894 0.769 0.79754 0.0
H968 H 0.1046 0.79395 0.74209 0.0
C969 C 0.12715 0.77079 0.86856 0.0
C970 C 0.11738 0.78102 0.89439 0.0
H971 H 0.1368 0.76128 0.77935 0.0
H972 H 0.13359 0.76429 0.90317 0.0
C973 C 0.10901 0.78899 0.84772 0.0
C974 C 0.24958 0.32939 0.84707 0.0
C975 C 0.25712 0.34574 0.89374 0.0
H976 H 0.24513 0.32001 0.74143 0.0
C977 C 0.26702 0.36576 0.86787 0.0
H978 H 0.24195 0.3138 0.86526 0.0
C979 C 0.26896 0.36934 0.79683 0.0
C980 C 0.26087 0.35297 0.75018 0.0
H981 H 0.27317 0.37872 0.90244 0.0
H982 H 0.27643 0.38492 0.7786 0.0
C983 C 0.25135 0.33297 0.77604 0.0
C984 C 0.04313 0.45571 0.51322 0.0
C985 C 0.0268 0.44784 0.5599 0.0
H986 H 0.0525 0.46052 0.40764 0.0
C987 C 1.00679 0.43768 0.53407 0.0
H988 H 0.05874 0.46356 0.53142 0.0
C989 C 1.00323 0.43585 0.46302 0.0
C990 C 1.01956 0.44428 0.41636 0.0
H991 H 0.99386 0.43128 0.56864 0.0
H992 H 0.98763 0.42817 0.4448 0.0
C993 C 0.03957 0.45404 0.44219 0.0
C994 C 0.58476 0.59393 0.44218 0.0
C995 C 0.59443 0.58361 0.41631 0.0
H996 H 0.57529 0.60362 0.53142 0.0
C997 C 0.60278 0.57562 0.46297 0.0
H998 H 0.57832 0.60045 0.40758 0.0
C999 C 0.60093 0.57734 0.53399 0.0
C1000 C 0.59085 0.58726 0.55986 0.0
H1001 H 0.61039 0.56765 0.44475 0.0
H1002 H 0.60728 0.57074 0.56858 0.0
C1003 C 0.58307 0.59582 0.51321 0.0
C1004 C 0.46164 0.03197 0.53595 0.0
C1005 C 0.45137 1.01196 0.56179 0.0
H1006 H 0.47161 0.05115 0.44671 0.0
C1007 C 0.44248 0.99562 0.51511 0.0
H1008 H 0.46852 0.04493 0.57054 0.0
C1009 C 0.44437 0.9992 0.44408 0.0
C1010 C 0.45502 0.0192 0.41826 0.0
H1011 H 0.43439 0.98002 0.53328 0.0
H1012 H 0.43757 0.98625 0.40945 0.0
C1013 C 0.46336 0.03556 0.46493 0.0
C1014 C 0.60112 0.03195 0.53327 0.0
C1015 C 0.59053 1.01195 0.55908 0.0
H1016 H 0.61106 0.05114 0.44409 0.0
C1017 C 0.58231 0.99559 0.5124 0.0
H1018 H 0.60782 0.04491 0.56791 0.0
C1019 C 0.58408 0.99918 0.44138 0.0
C1020 C 0.59426 0.0192 0.41555 0.0
H1021 H 0.57413 0.98 0.5306 0.0
H1022 H 0.57729 0.98622 0.40678 0.0
C1023 C 0.60305 0.03554 0.46225 0.0
C1024 C 0.03945 0.5939 0.44194 0.0
C1025 C 1.01946 0.58354 0.41611 0.0
H1026 H 0.05861 0.60356 0.53115 0.0
C1027 C 1.00311 0.57546 0.4628 0.0
H1028 H 0.0524 0.60048 0.40733 0.0
C1029 C 1.00669 0.57713 0.53382 0.0
C1030 C 0.02669 0.58708 0.55965 0.0
H1031 H 0.98753 0.56746 0.4446 0.0
H1032 H 0.99374 0.57046 0.56842 0.0
C1033 C 0.04303 0.59573 0.51297 0.0
C1034 C 0.44477 0.45416 0.44272 0.0
C1035 C 0.45493 0.44433 0.41685 0.0
H1036 H 0.43527 0.46382 0.53196 0.0
C1037 C 0.46282 0.43587 0.46351 0.0
H1038 H 0.43833 0.46068 0.40814 0.0
C1039 C 0.46116 0.43778 0.53454 0.0
C1040 C 0.4514 0.44802 0.5604 0.0
H1041 H 0.47067 0.42814 0.44528 0.0
H1042 H 0.46768 0.43135 0.56913 0.0
C1043 C 0.44294 0.45591 0.51375 0.0
C1044 C 0.11686 0.35962 0.25966 0.0
C1045 C 0.10618 0.33819 0.25842 0.0
H1046 H 0.13027 0.38665 0.32177 0.0
C1047 C 0.10107 0.32748 0.321 0.0
H1048 H 0.12099 0.36832 0.2121 0.0
C1049 C 0.1065 0.33802 0.38369 0.0
C1050 C 0.11701 0.35945 0.38494 0.0
H1051 H 0.0929 0.31099 0.32157 0.0
H1052 H 0.10229 0.32932 0.43125 0.0
C1053 C 0.12216 0.37016 0.32235 0.0
C1054 C 0.70088 0.77697 0.38431 0.0
C1055 C 0.67946 0.76619 0.38551 0.0
H1056 H 0.7279 0.7903 0.32225 0.0
C1057 C 0.66877 0.76086 0.32291 0.0
H1058 H 0.70956 0.78129 0.4319 0.0
C1059 C 0.67932 0.76614 0.26024 0.0
C1060 C 0.70074 0.77672 0.25904 0.0
H1061 H 0.6523 0.7526 0.32229 0.0
H1062 H 0.67064 0.76174 0.21266 0.0
C1063 C 0.71143 0.78212 0.32164 0.0
C1064 C 0.25659 0.93762 0.3211 0.0
C1065 C 0.26179 0.93214 0.25846 0.0
H1066 H 0.25775 0.9369 0.43134 0.0
C1067 C 0.27234 0.92128 0.25962 0.0
H1068 H 0.24845 0.94596 0.32176 0.0
C1069 C 0.27779 0.91617 0.32227 0.0
C1070 C 0.27265 0.92171 0.38491 0.0
H1071 H 0.27658 0.91684 0.21202 0.0
H1072 H 0.286 0.90791 0.32163 0.0
C1073 C 0.26192 0.9324 0.38374 0.0
C1074 C 0.37733 0.11525 0.65476 0.0
C1075 C 0.36665 0.10976 0.59213 0.0
H1076 H 0.37543 0.11449 0.76501 0.0
C1077 C 0.34523 0.09909 0.59328 0.0
H1078 H 0.3938 0.12349 0.65542 0.0
C1079 C 0.33467 0.09383 0.65592 0.0
C1080 C 0.34534 0.09925 0.71856 0.0
H1081 H 0.33657 0.09463 0.54568 0.0
H1082 H 0.3182 0.08551 0.65526 0.0
C1083 C 0.36677 0.1101 0.71741 0.0
C1084 C 0.9446 0.24945 0.65583 0.0
C1085 C 0.93933 0.25486 0.71845 0.0
H1086 H 0.94361 0.25033 0.54559 0.0
C1087 C 0.92859 0.26554 0.71728 0.0
H1088 H 0.95283 0.2412 0.65519 0.0
C1089 C 0.92338 0.27088 0.65462 0.0
C1090 C 0.9287 0.26552 0.592 0.0
H1091 H 0.92432 0.26995 0.76488 0.0
H1092 H 0.91522 0.27919 0.65526 0.0
C1093 C 0.93927 0.25467 0.59318 0.0
C1094 C 0.7888 0.70289 0.65628 0.0
C1095 C 0.78317 0.69218 0.71887 0.0
H1096 H 0.78819 0.70103 0.54603 0.0
C1097 C 0.77238 0.67075 0.71764 0.0
H1098 H 0.79714 0.71938 0.65569 0.0
C1099 C 0.76715 0.6602 0.65496 0.0
C1100 C 0.77273 0.6709 0.59236 0.0
H1101 H 0.76782 0.66206 0.76521 0.0
H1102 H 0.75874 0.64371 0.65555 0.0
C1103 C 0.78368 0.69234 0.59359 0.0
C1104 C 0.92319 0.66024 0.65519 0.0
C1105 C 0.92841 0.67095 0.5926 0.0
H1106 H 0.9242 0.66209 0.76546 0.0
C1107 C 0.9389 0.69239 0.59385 0.0
H1108 H 0.9151 0.64375 0.65578 0.0
C1109 C 0.94424 0.70293 0.65655 0.0
C1110 C 0.93906 0.69222 0.71914 0.0
H1111 H 0.94316 0.70108 0.54629 0.0
H1112 H 0.9524 0.71942 0.65596 0.0
C1113 C 0.9284 0.67078 0.71789 0.0
C1114 C 0.3345 0.24937 0.65492 0.0
C1115 C 0.34518 0.25482 0.71754 0.0
H1116 H 0.33639 0.25017 0.54466 0.0
C1117 C 0.3666 0.26545 0.71638 0.0
H1118 H 0.31802 0.24116 0.65428 0.0
C1119 C 0.37715 0.27072 0.65373 0.0
C1120 C 0.36648 0.26533 0.5911 0.0
H1121 H 0.37527 0.26987 0.76397 0.0
H1122 H 0.39363 0.279 0.65438 0.0
C1123 C 0.34505 0.25452 0.59226 0.0
C1124 C 0.78877 0.09381 0.65554 0.0
C1125 C 0.78336 0.09909 0.71815 0.0
H1126 H 0.78792 0.09482 0.54528 0.0
C1127 C 0.77272 0.10986 0.71695 0.0
H1128 H 0.79699 0.08555 0.65492 0.0
C1129 C 0.76741 0.1151 0.65427 0.0
C1130 C 0.77277 0.10977 0.59166 0.0
H1131 H 0.76832 0.11414 0.76453 0.0
H1132 H 0.75913 0.12328 0.65489 0.0
C1133 C 0.78358 0.09916 0.59286 0.0
C1134 C 0.67902 0.92133 0.2604 0.0
C1135 C 0.70044 0.93221 0.2592 0.0
H1136 H 0.652 0.90795 0.32245 0.0
C1137 C 0.71113 0.9377 0.32181 0.0
H1138 H 0.67035 0.91689 0.21282 0.0
C1139 C 0.70058 0.93246 0.38448 0.0
C1140 C 0.67916 0.92176 0.38567 0.0
H1141 H 0.7276 0.94604 0.32242 0.0
H1142 H 0.70926 0.93697 0.43206 0.0
C1143 C 0.66848 0.91622 0.32307 0.0
C1144 C 0.10607 0.77687 0.38479 0.0
C1145 C 0.1167 0.76608 0.3859 0.0
H1146 H 0.09238 0.79021 0.32282 0.0
C1147 C 0.12203 0.76074 0.32326 0.0
H1148 H 0.10173 0.78119 0.4324 0.0
C1149 C 0.11675 0.76602 0.26063 0.0
C1150 C 0.10593 0.77662 0.25951 0.0
H1151 H 0.13024 0.75248 0.32258 0.0
H1152 H 0.12102 0.76162 0.21303 0.0
C1153 C 0.10067 0.78203 0.32215 0.0
C1154 C 0.2568 0.32793 0.32122 0.0
C1155 C 0.26217 0.33863 0.25863 0.0
H1156 H 0.25775 0.32978 0.43149 0.0
C1157 C 0.27287 0.36007 0.25987 0.0
H1158 H 0.24854 0.31144 0.32181 0.0
C1159 C 0.27826 0.37062 0.32256 0.0
C1160 C 0.27293 0.35991 0.38516 0.0
H1161 H 0.27725 0.36876 0.2123 0.0
H1162 H 0.28658 0.38711 0.32197 0.0
C1163 C 0.26207 0.33847 0.38392 0.0
C1164 C 0.0447 0.44816 0.98751 0.0
C1165 C 0.03399 0.4431 0.9249 0.0
H1166 H 0.04282 0.44697 0.09785 0.0
C1167 C 1.01259 0.43273 0.92617 0.0
H1168 H 0.06114 0.45612 0.9881 0.0
C1169 C 1.00203 0.42736 -0.0112 0.0
C1170 C 1.01273 0.4324 0.05141 0.0
H1171 H 1.00389 0.42859 0.87852 0.0
H1172 H 0.98559 0.41932 0.9882 0.0
C1173 C 0.03414 0.4429 0.05018 0.0
C1174 C 0.59543 0.59896 0.05015 0.0
C1175 C 0.60614 0.58825 0.05132 0.0
H1176 H 0.58214 0.61268 0.98814 0.0
C1177 C 0.61141 0.58283 -0.0113 0.0
H1178 H 0.59117 0.60336 0.09775 0.0
C1179 C 0.60613 0.58809 0.92604 0.0
C1180 C 0.59559 0.59898 0.92488 0.0
H1181 H 0.61962 0.57456 0.98806 0.0
H1182 H 0.61046 0.58376 0.87845 0.0
C1183 C 0.59027 0.60434 0.9875 0.0
C1184 C 0.45561 0.03674 -0.00936 0.0
C1185 C 0.45022 0.02605 0.05326 0.0
H1186 H 0.4547 0.03487 0.88041 0.0
C1187 C 0.43955 1.00461 0.05208 0.0
H1188 H 0.46386 0.05323 -0.01 0.0
C1189 C 0.43418 0.99405 -0.01059 0.0
C1190 C 0.43952 1.00475 0.92679 0.0
H1191 H 0.43516 0.99593 0.09968 0.0
H1192 H 0.42586 0.97756 -0.00997 0.0
C1193 C 0.45037 0.02619 0.92798 0.0
C1194 C 0.59006 0.99443 0.9867 0.0
C1195 C 0.59524 1.00512 0.92408 0.0
H1196 H 0.59117 0.99631 0.09693 0.0
C1197 C 0.60572 0.02656 0.92524 0.0
H1198 H 0.58197 0.97794 0.98736 0.0
C1199 C 0.61112 0.03712 0.98791 0.0
C1200 C 0.60599 0.02643 0.05053 0.0
H1201 H 0.60995 0.03523 0.87764 0.0
H1202 H 0.61928 0.05361 0.98728 0.0
C1203 C 0.59533 1.00499 0.04935 0.0
C1204 C 0.04437 0.60421 0.98728 0.0
C1205 C 0.03369 0.59877 0.92467 0.0
H1206 H 0.0425 0.60337 0.09753 0.0
C1207 C 1.01227 0.58789 0.92585 0.0
H1208 H 0.06085 0.61255 0.98791 0.0
C1209 C 1.00172 0.58271 0.98852 0.0
C1210 C 1.0124 0.5882 0.05113 0.0
H1211 H 1.0036 0.58349 0.87827 0.0
H1212 H 0.98524 0.57444 0.9879 0.0
C1213 C 0.03382 0.59891 0.04995 0.0
C1214 C 0.43964 0.44345 0.05068 0.0
C1215 C 0.45022 0.43261 0.05185 0.0
H1216 H 0.42613 0.45696 -0.01134 0.0
C1217 C 0.45564 0.42734 -0.01077 0.0
H1218 H 0.43524 0.44772 0.09827 0.0
C1219 C 0.4505 0.43275 0.92657 0.0
C1220 C 0.43974 0.44341 0.92541 0.0
H1221 H 0.46381 0.41905 -0.01141 0.0
H1222 H 0.45483 0.42841 0.87898 0.0
C1223 C 0.43438 0.44874 0.98803 0.0
loop_
_geom_bond_atom_site_label_1
_geom_bond_atom_site_label_2
_geom_bond_distance
_geom_bond_site_symmetry_2
_ccdc_geom_bond_type
Co0 O1 2.216 . S
Co0 O2 2.091 . S
Co0 O4 2.004 . S
Co0 O10 2.021 1_554 S
Co0 O12 2.137 . S
Co0 O13 2.244 . S
O1 Co0 2.216 . S
O1 C8 1.247 . S
O2 Co0 2.091 . S
O2 C8 1.261 . S
C3 O12 1.247 . S
C3 O13 1.272 . S
O4 Co0 2.004 . S
O4 C9 1.259 . S
Co5 O6 2.061 . S
Co5 O11 2.052 1_554 S
Co5 O13 2.135 . S
O6 Co5 2.061 . S
O6 C9 1.235 . S
C7 O10 1.238 . S
C7 O11 1.241 . S
C8 O1 1.247 . S
C8 O2 1.261 . S
C9 O4 1.259 . S
C9 O6 1.235 . S
O10 Co0 2.021 1_556 S
O10 C7 1.238 . S
O11 Co5 2.052 1_556 S
O11 C7 1.241 . S
O12 Co0 2.137 . S
O12 C3 1.247 . S
O13 Co0 2.244 . S
O13 C3 1.272 . S
O13 Co5 2.135 . S
Co14 O15 2.216 . S
Co14 O16 2.091 . S
Co14 O18 2.004 . S
Co14 O24 2.021 1_554 S
Co14 O26 2.137 . S
Co14 O27 2.244 . S
O15 Co14 2.216 . S
O15 C22 1.247 . S
O16 Co14 2.091 . S
O16 C22 1.261 . S
C17 O26 1.247 . S
C17 O27 1.272 . S
O18 Co14 2.004 . S
O18 C23 1.259 . S
Co19 O20 2.061 . S
Co19 O25 2.052 1_554 S
Co19 O27 2.135 . S
O20 Co19 2.061 . S
O20 C23 1.235 . S
C21 O24 1.238 . S
C21 O25 1.241 . S
C22 O15 1.247 . S
C22 O16 1.261 . S
C23 O18 1.259 . S
C23 O20 1.235 . S
O24 Co14 2.021 1_556 S
O24 C21 1.238 . S
O25 Co19 2.052 1_556 S
O25 C21 1.241 . S
O26 Co14 2.137 . S
O26 C17 1.247 . S
O27 Co14 2.244 . S
O27 C17 1.272 . S
O27 Co19 2.135 . S
Co28 O29 2.216 . S
Co28 O30 2.091 . S
Co28 O32 2.004 . S
Co28 O38 2.021 1_554 S
Co28 O40 2.137 . S
Co28 O41 2.244 . S
O29 Co28 2.216 . S
O29 C36 1.247 . S
O30 Co28 2.091 . S
O30 C36 1.261 . S
C31 O40 1.247 . S
C31 O41 1.272 . S
O32 Co28 2.004 . S
O32 C37 1.259 . S
Co33 O34 2.061 . S
Co33 O39 2.052 1_554 S
Co33 O41 2.135 . S
O34 Co33 2.061 . S
O34 C37 1.235 . S
C35 O38 1.238 . S
C35 O39 1.241 . S
C36 O29 1.247 . S
C36 O30 1.261 . S
C37 O32 1.259 . S
C37 O34 1.235 . S
O38 Co28 2.021 1_556 S
O38 C35 1.238 . S
O39 Co33 2.052 1_556 S
O39 C35 1.241 . S
O40 Co28 2.137 . S
O40 C31 1.247 . S
O41 Co28 2.244 . S
O41 C31 1.272 . S
O41 Co33 2.135 . S
Co42 O43 2.216 . S
Co42 O44 2.091 . S
Co42 O46 2.004 . S
Co42 O52 2.021 1_556 S
Co42 O54 2.137 . S
Co42 O55 2.244 . S
O43 Co42 2.216 . S
O43 C50 1.247 . S
O44 Co42 2.091 . S
O44 C50 1.261 . S
C45 O54 1.247 . S
C45 O55 1.272 . S
O46 Co42 2.004 . S
O46 C51 1.259 . S
Co47 O48 2.061 . S
Co47 O53 2.052 1_556 S
Co47 O55 2.135 . S
O48 Co47 2.061 . S
O48 C51 1.235 . S
C49 O52 1.238 . S
C49 O53 1.241 . S
C50 O43 1.247 . S
C50 O44 1.261 . S
C51 O46 1.259 . S
C51 O48 1.235 . S
O52 Co42 2.021 1_554 S
O52 C49 1.238 . S
O53 Co47 2.052 1_554 S
O53 C49 1.241 . S
O54 Co42 2.137 . S
O54 C45 1.247 . S
O55 Co42 2.244 . S
O55 C45 1.272 . S
O55 Co47 2.135 . S
Co56 O57 2.216 . S
Co56 O58 2.091 . S
Co56 O60 2.004 . S
Co56 O66 2.021 1_556 S
Co56 O68 2.137 . S
Co56 O69 2.244 . S
O57 Co56 2.216 . S
O57 C64 1.247 . S
O58 Co56 2.091 . S
O58 C64 1.261 . S
C59 O68 1.247 . S
C59 O69 1.272 . S
O60 Co56 2.004 . S
O60 C65 1.259 . S
Co61 O62 2.061 . S
Co61 O67 2.052 1_556 S
Co61 O69 2.135 . S
O62 Co61 2.061 . S
O62 C65 1.235 . S
C63 O66 1.238 . S
C63 O67 1.241 . S
C64 O57 1.247 . S
C64 O58 1.261 . S
C65 O60 1.259 . S
C65 O62 1.235 . S
O66 Co56 2.021 1_554 S
O66 C63 1.238 . S
O67 Co61 2.052 1_554 S
O67 C63 1.241 . S
O68 Co56 2.137 . S
O68 C59 1.247 . S
O69 Co56 2.244 . S
O69 C59 1.272 . S
O69 Co61 2.135 . S
Co70 O71 2.216 . S
Co70 O72 2.091 . S
Co70 O74 2.004 . S
Co70 O80 2.021 1_556 S
Co70 O82 2.137 . S
Co70 O83 2.244 . S
O71 Co70 2.216 . S
O71 C78 1.247 . S
O72 Co70 2.091 . S
O72 C78 1.261 . S
C73 O82 1.247 . S
C73 O83 1.272 . S
O74 Co70 2.004 . S
O74 C79 1.259 . S
Co75 O76 2.061 . S
Co75 O81 2.052 1_556 S
Co75 O83 2.135 . S
O76 Co75 2.061 . S
O76 C79 1.235 . S
C77 O80 1.238 . S
C77 O81 1.241 . S
C78 O71 1.247 . S
C78 O72 1.261 . S
C79 O74 1.259 . S
C79 O76 1.235 . S
O80 Co70 2.021 1_554 S
O80 C77 1.238 . S
O81 Co75 2.052 1_554 S
O81 C77 1.241 . S
O82 Co70 2.137 . S
O82 C73 1.247 . S
O83 Co70 2.244 . S
O83 C73 1.272 . S
O83 Co75 2.135 . S
Co84 O85 2.216 . S
Co84 O86 2.091 . S
Co84 O88 2.004 . S
Co84 O94 2.021 1_556 S
Co84 O96 2.137 . S
Co84 O97 2.244 . S
O85 Co84 2.216 . S
O85 C92 1.247 . S
O86 Co84 2.091 . S
O86 C92 1.261 . S
C87 O96 1.247 . S
C87 O97 1.272 . S
O88 Co84 2.004 . S
O88 C93 1.259 . S
Co89 O90 2.061 . S
Co89 O95 2.052 1_556 S
Co89 O97 2.135 . S
O90 Co89 2.061 . S
O90 C93 1.235 . S
C91 O94 1.238 . S
C91 O95 1.241 . S
C92 O85 1.247 . S
C92 O86 1.261 . S
C93 O88 1.259 . S
C93 O90 1.235 . S
O94 Co84 2.021 1_554 S
O94 C91 1.238 . S
O95 Co89 2.052 1_554 S
O95 C91 1.241 . S
O96 Co84 2.137 . S
O96 C87 1.247 . S
O97 Co84 2.244 . S
O97 C87 1.272 . S
O97 Co89 2.135 . S
Co98 O99 2.216 . S
Co98 O100 2.091 . S
Co98 O102 2.004 . S
Co98 O108 2.021 1_556 S
Co98 O110 2.137 . S
Co98 O111 2.244 . S
O99 Co98 2.216 . S
O99 C106 1.247 . S
O100 Co98 2.091 . S
O100 C106 1.261 . S
C101 O110 1.247 . S
C101 O111 1.272 . S
O102 Co98 2.004 . S
O102 C107 1.259 . S
Co103 O104 2.061 . S
Co103 O109 2.052 1_556 S
Co103 O111 2.135 . S
O104 Co103 2.061 . S
O104 C107 1.235 . S
C105 O108 1.238 . S
C105 O109 1.241 . S
C106 O99 1.247 . S
C106 O100 1.261 . S
C107 O102 1.259 . S
C107 O104 1.235 . S
O108 Co98 2.021 1_554 S
O108 C105 1.238 . S
O109 Co103 2.052 1_554 S
O109 C105 1.241 . S
O110 Co98 2.137 . S
O110 C101 1.247 . S
O111 Co98 2.244 . S
O111 C101 1.272 . S
O111 Co103 2.135 . S
Co112 O113 2.216 . S
Co112 O114 2.091 . S
Co112 O116 2.004 . S
Co112 O122 2.021 1_556 S
Co112 O124 2.137 . S
Co112 O125 2.244 . S
O113 Co112 2.216 . S
O113 C120 1.247 . S
O114 Co112 2.091 . S
O114 C120 1.261 . S
C115 O124 1.247 . S
C115 O125 1.272 . S
O116 Co112 2.004 . S
O116 C121 1.259 . S
Co117 O118 2.061 . S
Co117 O123 2.052 1_556 S
Co117 O125 2.135 . S
O118 Co117 2.061 . S
O118 C121 1.235 . S
C119 O122 1.238 . S
C119 O123 1.241 . S
C120 O113 1.247 . S
C120 O114 1.261 . S
C121 O116 1.259 . S
C121 O118 1.235 . S
O122 Co112 2.021 1_554 S
O122 C119 1.238 . S
O123 Co117 2.052 1_554 S
O123 C119 1.241 . S
O124 Co112 2.137 . S
O124 C115 1.247 . S
O125 Co112 2.244 . S
O125 C115 1.272 . S
O125 Co117 2.135 . S
Co126 O127 2.216 . S
Co126 O128 2.091 . S
Co126 O130 2.004 . S
Co126 O136 2.021 1_554 S
Co126 O138 2.137 . S
Co126 O139 2.244 . S
O127 Co126 2.216 . S
O127 C134 1.247 . S
O128 Co126 2.091 . S
O128 C134 1.261 . S
C129 O138 1.247 . S
C129 O139 1.272 . S
O130 Co126 2.004 . S
O130 C135 1.259 . S
Co131 O132 2.061 . S
Co131 O137 2.052 1_554 S
Co131 O139 2.135 . S
O132 Co131 2.061 . S
O132 C135 1.235 . S
C133 O136 1.238 . S
C133 O137 1.241 . S
C134 O127 1.247 . S
C134 O128 1.261 . S
C135 O130 1.259 . S
C135 O132 1.235 . S
O136 Co126 2.021 1_556 S
O136 C133 1.238 . S
O137 Co131 2.052 1_556 S
O137 C133 1.241 . S
O138 Co126 2.137 . S
O138 C129 1.247 . S
O139 Co126 2.244 . S
O139 C129 1.272 . S
O139 Co131 2.135 . S
Co140 O141 2.216 . S
Co140 O142 2.091 . S
Co140 O144 2.004 . S
Co140 O150 2.021 1_554 S
Co140 O152 2.137 . S
Co140 O153 2.244 . S
O141 Co140 2.216 . S
O141 C148 1.247 . S
O142 Co140 2.091 . S
O142 C148 1.261 . S
C143 O152 1.247 . S
C143 O153 1.272 . S
O144 Co140 2.004 . S
O144 C149 1.259 . S
Co145 O146 2.061 . S
Co145 O151 2.052 1_554 S
Co145 O153 2.135 . S
O146 Co145 2.061 . S
O146 C149 1.235 . S
C147 O150 1.238 . S
C147 O151 1.241 . S
C148 O141 1.247 . S
C148 O142 1.261 . S
C149 O144 1.259 . S
C149 O146 1.235 . S
O150 Co140 2.021 1_556 S
O150 C147 1.238 . S
O151 Co145 2.052 1_556 S
O151 C147 1.241 . S
O152 Co140 2.137 . S
O152 C143 1.247 . S
O153 Co140 2.244 . S
O153 C143 1.272 . S
O153 Co145 2.135 . S
Co154 O155 2.216 . S
Co154 O156 2.091 . S
Co154 O158 2.004 . S
Co154 O164 2.021 1_554 S
Co154 O166 2.137 . S
Co154 O167 2.244 . S
O155 Co154 2.216 . S
O155 C162 1.247 . S
O156 Co154 2.091 . S
O156 C162 1.261 . S
C157 O166 1.247 . S
C157 O167 1.272 . S
O158 Co154 2.004 . S
O158 C163 1.259 . S
Co159 O160 2.061 . S
Co159 O165 2.052 1_554 S
Co159 O167 2.135 . S
O160 Co159 2.061 . S
O160 C163 1.235 . S
C161 O164 1.238 . S
C161 O165 1.241 . S
C162 O155 1.247 . S
C162 O156 1.261 . S
C163 O158 1.259 . S
C163 O160 1.235 . S
O164 Co154 2.021 1_556 S
O164 C161 1.238 . S
O165 Co159 2.052 1_556 S
O165 C161 1.241 . S
O166 Co154 2.137 . S
O166 C157 1.247 . S
O167 Co154 2.244 . S
O167 C157 1.272 . S
O167 Co159 2.135 . S
Co168 O169 2.216 . S
Co168 O170 2.091 . S
Co168 O172 2.004 . S
Co168 O178 2.021 . S
Co168 O180 2.137 . S
Co168 O181 2.244 . S
O169 Co168 2.216 . S
O169 C176 1.247 . S
O170 Co168 2.091 . S
O170 C176 1.261 . S
C171 O180 1.247 . S
C171 O181 1.272 . S
O172 Co168 2.004 . S
O172 C177 1.259 . S
Co173 O174 2.061 . S
Co173 O179 2.052 . S
Co173 O181 2.135 . S
O174 Co173 2.061 . S
O174 C177 1.235 . S
C175 O178 1.238 . S
C175 O179 1.241 . S
C176 O169 1.247 . S
C176 O170 1.261 . S
C177 O172 1.259 . S
C177 O174 1.235 . S
O178 Co168 2.021 . S
O178 C175 1.238 . S
O179 Co173 2.052 . S
O179 C175 1.241 . S
O180 Co168 2.137 . S
O180 C171 1.247 . S
O181 Co168 2.244 . S
O181 C171 1.272 . S
O181 Co173 2.135 . S
Co182 O183 2.216 . S
Co182 O184 2.091 . S
Co182 O186 2.004 . S
Co182 O192 2.021 . S
Co182 O194 2.137 . S
Co182 O195 2.244 . S
O183 Co182 2.216 . S
O183 C190 1.247 . S
O184 Co182 2.091 . S
O184 C190 1.261 . S
C185 O194 1.247 . S
C185 O195 1.272 . S
O186 Co182 2.004 . S
O186 C191 1.259 . S
Co187 O188 2.061 . S
Co187 O193 2.052 . S
Co187 O195 2.135 . S
O188 Co187 2.061 . S
O188 C191 1.235 . S
C189 O192 1.238 . S
C189 O193 1.241 . S
C190 O183 1.247 . S
C190 O184 1.261 . S
C191 O186 1.259 . S
C191 O188 1.235 . S
O192 Co182 2.021 . S
O192 C189 1.238 . S
O193 Co187 2.052 . S
O193 C189 1.241 . S
O194 Co182 2.137 . S
O194 C185 1.247 . S
O195 Co182 2.244 . S
O195 C185 1.272 . S
O195 Co187 2.135 . S
Co196 O197 2.216 . S
Co196 O198 2.091 . S
Co196 O200 2.004 . S
Co196 O206 2.021 . S
Co196 O208 2.137 . S
Co196 O209 2.244 . S
O197 Co196 2.216 . S
O197 C204 1.247 . S
O198 Co196 2.091 . S
O198 C204 1.261 . S
C199 O208 1.247 . S
C199 O209 1.272 . S
O200 Co196 2.004 . S
O200 C205 1.259 . S
Co201 O202 2.061 . S
Co201 O207 2.052 . S
Co201 O209 2.135 . S
O202 Co201 2.061 . S
O202 C205 1.235 . S
C203 O206 1.238 . S
C203 O207 1.241 . S
C204 O197 1.247 . S
C204 O198 1.261 . S
C205 O200 1.259 . S
C205 O202 1.235 . S
O206 Co196 2.021 . S
O206 C203 1.238 . S
O207 Co201 2.052 . S
O207 C203 1.241 . S
O208 Co196 2.137 . S
O208 C199 1.247 . S
O209 Co196 2.244 . S
O209 C199 1.272 . S
O209 Co201 2.135 . S
Co210 O211 2.216 . S
Co210 O212 2.091 . S
Co210 O214 2.004 . S
Co210 O220 2.021 . S
Co210 O222 2.137 . S
Co210 O223 2.244 . S
O211 Co210 2.216 . S
O211 C218 1.247 . S
O212 Co210 2.091 . S
O212 C218 1.261 . S
C213 O222 1.247 . S
C213 O223 1.272 . S
O214 Co210 2.004 . S
O214 C219 1.259 . S
Co215 O216 2.061 1_455 S
Co215 O221 2.052 . S
Co215 O223 2.135 1_455 S
O216 Co215 2.061 1_655 S
O216 C219 1.235 . S
C217 O220 1.238 . S
C217 O221 1.241 1_655 S
C218 O211 1.247 . S
C218 O212 1.261 . S
C219 O214 1.259 . S
C219 O216 1.235 . S
O220 Co210 2.021 . S
O220 C217 1.238 . S
O221 Co215 2.052 . S
O221 C217 1.241 1_455 S
O222 Co210 2.137 . S
O222 C213 1.247 . S
O223 Co210 2.244 . S
O223 C213 1.272 . S
O223 Co215 2.135 1_655 S
Co224 O225 2.216 . S
Co224 O226 2.091 . S
Co224 O228 2.004 . S
Co224 O234 2.021 . S
Co224 O236 2.137 . S
Co224 O237 2.244 . S
O225 Co224 2.216 . S
O225 C232 1.247 . S
O226 Co224 2.091 . S
O226 C232 1.261 . S
C227 O236 1.247 . S
C227 O237 1.272 . S
O228 Co224 2.004 . S
O228 C233 1.259 . S
Co229 O230 2.061 . S
Co229 O235 2.052 . S
Co229 O237 2.135 . S
O230 Co229 2.061 . S
O230 C233 1.235 . S
C231 O234 1.238 . S
C231 O235 1.241 . S
C232 O225 1.247 . S
C232 O226 1.261 . S
C233 O228 1.259 . S
C233 O230 1.235 . S
O234 Co224 2.021 . S
O234 C231 1.238 . S
O235 Co229 2.052 . S
O235 C231 1.241 . S
O236 Co224 2.137 . S
O236 C227 1.247 . S
O237 Co224 2.244 . S
O237 C227 1.272 . S
O237 Co229 2.135 . S
Co238 O239 2.216 . S
Co238 O240 2.091 . S
Co238 O242 2.004 . S
Co238 O248 2.021 . S
Co238 O250 2.137 . S
Co238 O251 2.244 . S
O239 Co238 2.216 . S
O239 C246 1.247 . S
O240 Co238 2.091 . S
O240 C246 1.261 . S
C241 O250 1.247 . S
C241 O251 1.272 . S
O242 Co238 2.004 . S
O242 C247 1.259 . S
Co243 O244 2.061 1_565 S
Co243 O249 2.052 . S
Co243 O251 2.135 1_565 S
O244 Co243 2.061 1_545 S
O244 C247 1.235 . S
C245 O248 1.238 . S
C245 O249 1.241 1_545 S
C246 O239 1.247 . S
C246 O240 1.261 . S
C247 O242 1.259 . S
C247 O244 1.235 . S
O248 Co238 2.021 . S
O248 C245 1.238 . S
O249 Co243 2.052 . S
O249 C245 1.241 1_565 S
O250 Co238 2.137 . S
O250 C241 1.247 . S
O251 Co238 2.244 . S
O251 C241 1.272 . S
O251 Co243 2.135 1_545 S
Co252 O253 2.216 . S
Co252 O254 2.091 . S
Co252 O256 2.004 . S
Co252 O262 2.021 . S
Co252 O264 2.137 . S
Co252 O265 2.244 . S
O253 Co252 2.216 . S
O253 C260 1.247 . S
O254 Co252 2.091 . S
O254 C260 1.261 . S
C255 O264 1.247 . S
C255 O265 1.272 . S
O256 Co252 2.004 . S
O256 C261 1.259 . S
Co257 O258 2.061 1_565 S
Co257 O263 2.052 . S
Co257 O265 2.135 1_565 S
O258 Co257 2.061 1_545 S
O258 C261 1.235 . S
C259 O262 1.238 . S
C259 O263 1.241 1_545 S
C260 O253 1.247 . S
C260 O254 1.261 . S
C261 O256 1.259 . S
C261 O258 1.235 . S
O262 Co252 2.021 . S
O262 C259 1.238 . S
O263 Co257 2.052 . S
O263 C259 1.241 1_565 S
O264 Co252 2.137 . S
O264 C255 1.247 . S
O265 Co252 2.244 . S
O265 C255 1.272 . S
O265 Co257 2.135 1_545 S
Co266 O267 2.216 . S
Co266 O268 2.091 . S
Co266 O270 2.004 . S
Co266 O276 2.021 . S
Co266 O278 2.137 . S
Co266 O279 2.244 . S
O267 Co266 2.216 . S
O267 C274 1.247 . S
O268 Co266 2.091 . S
O268 C274 1.261 . S
C269 O278 1.247 . S
C269 O279 1.272 . S
O270 Co266 2.004 . S
O270 C275 1.259 . S
Co271 O272 2.061 1_455 S
Co271 O277 2.052 . S
Co271 O279 2.135 1_455 S
O272 Co271 2.061 1_655 S
O272 C275 1.235 . S
C273 O276 1.238 . S
C273 O277 1.241 1_655 S
C274 O267 1.247 . S
C274 O268 1.261 . S
C275 O270 1.259 . S
C275 O272 1.235 . S
O276 Co266 2.021 . S
O276 C273 1.238 . S
O277 Co271 2.052 . S
O277 C273 1.241 1_455 S
O278 Co266 2.137 . S
O278 C269 1.247 . S
O279 Co266 2.244 . S
O279 C269 1.272 . S
O279 Co271 2.135 1_655 S
Co280 O281 2.216 . S
Co280 O282 2.091 . S
Co280 O284 2.004 . S
Co280 O290 2.021 . S
Co280 O292 2.137 . S
Co280 O293 2.244 . S
O281 Co280 2.216 . S
O281 C288 1.247 . S
O282 Co280 2.091 . S
O282 C288 1.261 . S
C283 O292 1.247 . S
C283 O293 1.272 . S
O284 Co280 2.004 . S
O284 C289 1.259 . S
Co285 O286 2.061 . S
Co285 O291 2.052 . S
Co285 O293 2.135 . S
O286 Co285 2.061 . S
O286 C289 1.235 . S
C287 O290 1.238 . S
C287 O291 1.241 . S
C288 O281 1.247 . S
C288 O282 1.261 . S
C289 O284 1.259 . S
C289 O286 1.235 . S
O290 Co280 2.021 . S
O290 C287 1.238 . S
O291 Co285 2.052 . S
O291 C287 1.241 . S
O292 Co280 2.137 . S
O292 C283 1.247 . S
O293 Co280 2.244 . S
O293 C283 1.272 . S
O293 Co285 2.135 . S
Co294 O295 2.216 . S
Co294 O296 2.091 . S
Co294 O298 2.004 . S
Co294 O304 2.021 . S
Co294 O306 2.137 . S
Co294 O307 2.244 . S
O295 Co294 2.216 . S
O295 C302 1.247 . S
O296 Co294 2.091 . S
O296 C302 1.261 . S
C297 O306 1.247 . S
C297 O307 1.272 . S
O298 Co294 2.004 . S
O298 C303 1.259 . S
Co299 O300 2.061 . S
Co299 O305 2.052 . S
Co299 O307 2.135 . S
O300 Co299 2.061 . S
O300 C303 1.235 . S
C301 O304 1.238 . S
C301 O305 1.241 . S
C302 O295 1.247 . S
C302 O296 1.261 . S
C303 O298 1.259 . S
C303 O300 1.235 . S
O304 Co294 2.021 . S
O304 C301 1.238 . S
O305 Co299 2.052 . S
O305 C301 1.241 . S
O306 Co294 2.137 . S
O306 C297 1.247 . S
O307 Co294 2.244 . S
O307 C297 1.272 . S
O307 Co299 2.135 . S
Co308 O309 2.216 . S
Co308 O310 2.091 . S
Co308 O312 2.004 . S
Co308 O318 2.021 . S
Co308 O320 2.137 . S
Co308 O321 2.244 . S
O309 Co308 2.216 . S
O309 C316 1.247 . S
O310 Co308 2.091 . S
O310 C316 1.261 . S
C311 O320 1.247 . S
C311 O321 1.272 . S
O312 Co308 2.004 . S
O312 C317 1.259 . S
Co313 O314 2.061 . S
Co313 O319 2.052 . S
Co313 O321 2.135 . S
O314 Co313 2.061 . S
O314 C317 1.235 . S
C315 O318 1.238 . S
C315 O319 1.241 . S
C316 O309 1.247 . S
C316 O310 1.261 . S
C317 O312 1.259 . S
C317 O314 1.235 . S
O318 Co308 2.021 . S
O318 C315 1.238 . S
O319 Co313 2.052 . S
O319 C315 1.241 . S
O320 Co308 2.137 . S
O320 C311 1.247 . S
O321 Co308 2.244 . S
O321 C311 1.272 . S
O321 Co313 2.135 . S
Co322 O323 2.216 . S
Co322 O324 2.091 . S
Co322 O326 2.004 . S
Co322 O332 2.021 . S
Co322 O334 2.137 . S
Co322 O335 2.244 . S
O323 Co322 2.216 . S
O323 C330 1.247 . S
O324 Co322 2.091 . S
O324 C330 1.261 . S
C325 O334 1.247 . S
C325 O335 1.272 . S
O326 Co322 2.004 . S
O326 C331 1.259 . S
Co327 O328 2.061 . S
Co327 O333 2.052 . S
Co327 O335 2.135 . S
O328 Co327 2.061 . S
O328 C331 1.235 . S
C329 O332 1.238 . S
C329 O333 1.241 . S
C330 O323 1.247 . S
C330 O324 1.261 . S
C331 O326 1.259 . S
C331 O328 1.235 . S
O332 Co322 2.021 . S
O332 C329 1.238 . S
O333 Co327 2.052 . S
O333 C329 1.241 . S
O334 Co322 2.137 . S
O334 C325 1.247 . S
O335 Co322 2.244 . S
O335 C325 1.272 . S
O335 Co327 2.135 . S
Co336 O337 2.216 . S
Co336 O338 2.091 . S
Co336 O340 2.004 . S
Co336 O346 2.021 . S
Co336 O348 2.137 . S
Co336 O349 2.244 . S
O337 Co336 2.216 . S
O337 C344 1.247 . S
O338 Co336 2.091 . S
O338 C344 1.261 . S
C339 O348 1.247 . S
C339 O349 1.272 . S
O340 Co336 2.004 . S
O340 C345 1.259 . S
Co341 O342 2.061 1_545 S
Co341 O347 2.052 . S
Co341 O349 2.135 1_545 S
O342 Co341 2.061 1_565 S
O342 C345 1.235 . S
C343 O346 1.238 . S
C343 O347 1.241 1_565 S
C344 O337 1.247 . S
C344 O338 1.261 . S
C345 O340 1.259 . S
C345 O342 1.235 . S
O346 Co336 2.021 . S
O346 C343 1.238 . S
O347 Co341 2.052 . S
O347 C343 1.241 1_545 S
O348 Co336 2.137 . S
O348 C339 1.247 . S
O349 Co336 2.244 . S
O349 C339 1.272 . S
O349 Co341 2.135 1_565 S
Co350 O351 2.216 . S
Co350 O352 2.091 . S
Co350 O354 2.004 . S
Co350 O360 2.021 . S
Co350 O362 2.137 . S
Co350 O363 2.244 . S
O351 Co350 2.216 . S
O351 C358 1.247 . S
O352 Co350 2.091 . S
O352 C358 1.261 . S
C353 O362 1.247 . S
C353 O363 1.272 . S
O354 Co350 2.004 . S
O354 C359 1.259 . S
Co355 O356 2.061 1_655 S
Co355 O361 2.052 . S
Co355 O363 2.135 1_655 S
O356 Co355 2.061 1_455 S
O356 C359 1.235 . S
C357 O360 1.238 . S
C357 O361 1.241 1_455 S
C358 O351 1.247 . S
C358 O352 1.261 . S
C359 O354 1.259 . S
C359 O356 1.235 . S
O360 Co350 2.021 . S
O360 C357 1.238 . S
O361 Co355 2.052 . S
O361 C357 1.241 1_655 S
O362 Co350 2.137 . S
O362 C353 1.247 . S
O363 Co350 2.244 . S
O363 C353 1.272 . S
O363 Co355 2.135 1_455 S
Co364 O365 2.216 . S
Co364 O366 2.091 . S
Co364 O368 2.004 . S
Co364 O374 2.021 . S
Co364 O376 2.137 . S
Co364 O377 2.244 . S
O365 Co364 2.216 . S
O365 C372 1.247 . S
O366 Co364 2.091 . S
O366 C372 1.261 . S
C367 O376 1.247 . S
C367 O377 1.272 . S
O368 Co364 2.004 . S
O368 C373 1.259 . S
Co369 O370 2.061 . S
Co369 O375 2.052 . S
Co369 O377 2.135 . S
O370 Co369 2.061 . S
O370 C373 1.235 . S
C371 O374 1.238 . S
C371 O375 1.241 . S
C372 O365 1.247 . S
C372 O366 1.261 . S
C373 O368 1.259 . S
C373 O370 1.235 . S
O374 Co364 2.021 . S
O374 C371 1.238 . S
O375 Co369 2.052 . S
O375 C371 1.241 . S
O376 Co364 2.137 . S
O376 C367 1.247 . S
O377 Co364 2.244 . S
O377 C367 1.272 . S
O377 Co369 2.135 . S
Co378 O379 2.216 . S
Co378 O380 2.091 . S
Co378 O382 2.004 . S
Co378 O388 2.021 . S
Co378 O390 2.137 . S
Co378 O391 2.244 . S
O379 Co378 2.216 . S
O379 C386 1.247 . S
O380 Co378 2.091 . S
O380 C386 1.261 . S
C381 O390 1.247 . S
C381 O391 1.272 . S
O382 Co378 2.004 . S
O382 C387 1.259 . S
Co383 O384 2.061 . S
Co383 O389 2.052 . S
Co383 O391 2.135 . S
O384 Co383 2.061 . S
O384 C387 1.235 . S
C385 O388 1.238 . S
C385 O389 1.241 . S
C386 O379 1.247 . S
C386 O380 1.261 . S
C387 O382 1.259 . S
C387 O384 1.235 . S
O388 Co378 2.021 . S
O388 C385 1.238 . S
O389 Co383 2.052 . S
O389 C385 1.241 . S
O390 Co378 2.137 . S
O390 C381 1.247 . S
O391 Co378 2.244 . S
O391 C381 1.272 . S
O391 Co383 2.135 . S
Co392 O393 2.216 . S
Co392 O394 2.091 . S
Co392 O396 2.004 . S
Co392 O402 2.021 . S
Co392 O404 2.137 . S
Co392 O405 2.244 . S
O393 Co392 2.216 . S
O393 C400 1.247 . S
O394 Co392 2.091 . S
O394 C400 1.261 . S
C395 O404 1.247 . S
C395 O405 1.272 . S
O396 Co392 2.004 . S
O396 C401 1.259 . S
Co397 O398 2.061 . S
Co397 O403 2.052 . S
Co397 O405 2.135 . S
O398 Co397 2.061 . S
O398 C401 1.235 . S
C399 O402 1.238 . S
C399 O403 1.241 . S
C400 O393 1.247 . S
C400 O394 1.261 . S
C401 O396 1.259 . S
C401 O398 1.235 . S
O402 Co392 2.021 . S
O402 C399 1.238 . S
O403 Co397 2.052 . S
O403 C399 1.241 . S
O404 Co392 2.137 . S
O404 C395 1.247 . S
O405 Co392 2.244 . S
O405 C395 1.272 . S
O405 Co397 2.135 . S
Co406 O407 2.216 . S
Co406 O408 2.091 . S
Co406 O410 2.004 . S
Co406 O416 2.021 . S
Co406 O418 2.137 . S
Co406 O419 2.244 . S
O407 Co406 2.216 . S
O407 C414 1.247 . S
O408 Co406 2.091 . S
O408 C414 1.261 . S
C409 O418 1.247 . S
C409 O419 1.272 . S
O410 Co406 2.004 . S
O410 C415 1.259 . S
Co411 O412 2.061 . S
Co411 O417 2.052 . S
Co411 O419 2.135 . S
O412 Co411 2.061 . S
O412 C415 1.235 . S
C413 O416 1.238 . S
C413 O417 1.241 . S
C414 O407 1.247 . S
C414 O408 1.261 . S
C415 O410 1.259 . S
C415 O412 1.235 . S
O416 Co406 2.021 . S
O416 C413 1.238 . S
O417 Co411 2.052 . S
O417 C413 1.241 . S
O418 Co406 2.137 . S
O418 C409 1.247 . S
O419 Co406 2.244 . S
O419 C409 1.272 . S
O419 Co411 2.135 . S
Co420 O421 2.216 . S
Co420 O422 2.091 . S
Co420 O424 2.004 . S
Co420 O430 2.021 . S
Co420 O432 2.137 . S
Co420 O433 2.244 . S
O421 Co420 2.216 . S
O421 C428 1.247 . S
O422 Co420 2.091 . S
O422 C428 1.261 . S
C423 O432 1.247 . S
C423 O433 1.272 . S
O424 Co420 2.004 . S
O424 C429 1.259 . S
Co425 O426 2.061 . S
Co425 O431 2.052 . S
Co425 O433 2.135 . S
O426 Co425 2.061 . S
O426 C429 1.235 . S
C427 O430 1.238 . S
C427 O431 1.241 . S
C428 O421 1.247 . S
C428 O422 1.261 . S
C429 O424 1.259 . S
C429 O426 1.235 . S
O430 Co420 2.021 . S
O430 C427 1.238 . S
O431 Co425 2.052 . S
O431 C427 1.241 . S
O432 Co420 2.137 . S
O432 C423 1.247 . S
O433 Co420 2.244 . S
O433 C423 1.272 . S
O433 Co425 2.135 . S
Co434 O435 2.216 . S
Co434 O436 2.091 . S
Co434 O438 2.004 . S
Co434 O444 2.021 . S
Co434 O446 2.137 . S
Co434 O447 2.244 . S
O435 Co434 2.216 . S
O435 C442 1.247 . S
O436 Co434 2.091 . S
O436 C442 1.261 . S
C437 O446 1.247 . S
C437 O447 1.272 . S
O438 Co434 2.004 . S
O438 C443 1.259 . S
Co439 O440 2.061 . S
Co439 O445 2.052 . S
Co439 O447 2.135 . S
O440 Co439 2.061 . S
O440 C443 1.235 . S
C441 O444 1.238 . S
C441 O445 1.241 . S
C442 O435 1.247 . S
C442 O436 1.261 . S
C443 O438 1.259 . S
C443 O440 1.235 . S
O444 Co434 2.021 . S
O444 C441 1.238 . S
O445 Co439 2.052 . S
O445 C441 1.241 . S
O446 Co434 2.137 . S
O446 C437 1.247 . S
O447 Co434 2.244 . S
O447 C437 1.272 . S
O447 Co439 2.135 . S
Co448 O449 2.216 . S
Co448 O450 2.091 . S
Co448 O452 2.004 . S
Co448 O458 2.021 . S
Co448 O460 2.137 . S
Co448 O461 2.244 . S
O449 Co448 2.216 . S
O449 C456 1.247 . S
O450 Co448 2.091 . S
O450 C456 1.261 . S
C451 O460 1.247 . S
C451 O461 1.272 . S
O452 Co448 2.004 . S
O452 C457 1.259 . S
Co453 O454 2.061 . S
Co453 O459 2.052 . S
Co453 O461 2.135 . S
O454 Co453 2.061 . S
O454 C457 1.235 . S
C455 O458 1.238 . S
C455 O459 1.241 . S
C456 O449 1.247 . S
C456 O450 1.261 . S
C457 O452 1.259 . S
C457 O454 1.235 . S
O458 Co448 2.021 . S
O458 C455 1.238 . S
O459 Co453 2.052 . S
O459 C455 1.241 . S
O460 Co448 2.137 . S
O460 C451 1.247 . S
O461 Co448 2.244 . S
O461 C451 1.272 . S
O461 Co453 2.135 . S
Co462 O463 2.216 . S
Co462 O464 2.091 . S
Co462 O466 2.004 . S
Co462 O472 2.021 . S
Co462 O474 2.137 . S
Co462 O475 2.244 . S
O463 Co462 2.216 . S
O463 C470 1.247 . S
O464 Co462 2.091 . S
O464 C470 1.261 . S
C465 O474 1.247 . S
C465 O475 1.272 . S
O466 Co462 2.004 . S
O466 C471 1.259 . S
Co467 O468 2.061 1_655 S
Co467 O473 2.052 . S
Co467 O475 2.135 1_655 S
O468 Co467 2.061 1_455 S
O468 C471 1.235 . S
C469 O472 1.238 . S
C469 O473 1.241 1_455 S
C470 O463 1.247 . S
C470 O464 1.261 . S
C471 O466 1.259 . S
C471 O468 1.235 . S
O472 Co462 2.021 . S
O472 C469 1.238 . S
O473 Co467 2.052 . S
O473 C469 1.241 1_655 S
O474 Co462 2.137 . S
O474 C465 1.247 . S
O475 Co462 2.244 . S
O475 C465 1.272 . S
O475 Co467 2.135 1_455 S
Co476 O477 2.216 . S
Co476 O478 2.091 . S
Co476 O480 2.004 . S
Co476 O486 2.021 . S
Co476 O488 2.137 . S
Co476 O489 2.244 . S
O477 Co476 2.216 . S
O477 C484 1.247 . S
O478 Co476 2.091 . S
O478 C484 1.261 . S
C479 O488 1.247 . S
C479 O489 1.272 . S
O480 Co476 2.004 . S
O480 C485 1.259 . S
Co481 O482 2.061 . S
Co481 O487 2.052 . S
Co481 O489 2.135 . S
O482 Co481 2.061 . S
O482 C485 1.235 . S
C483 O486 1.238 . S
C483 O487 1.241 . S
C484 O477 1.247 . S
C484 O478 1.261 . S
C485 O480 1.259 . S
C485 O482 1.235 . S
O486 Co476 2.021 . S
O486 C483 1.238 . S
O487 Co481 2.052 . S
O487 C483 1.241 . S
O488 Co476 2.137 . S
O488 C479 1.247 . S
O489 Co476 2.244 . S
O489 C479 1.272 . S
O489 Co481 2.135 . S
Co490 O491 2.216 . S
Co490 O492 2.091 . S
Co490 O494 2.004 . S
Co490 O500 2.021 . S
Co490 O502 2.137 . S
Co490 O503 2.244 . S
O491 Co490 2.216 . S
O491 C498 1.247 . S
O492 Co490 2.091 . S
O492 C498 1.261 . S
C493 O502 1.247 . S
C493 O503 1.272 . S
O494 Co490 2.004 . S
O494 C499 1.259 . S
Co495 O496 2.061 1_545 S
Co495 O501 2.052 . S
Co495 O503 2.135 1_545 S
O496 Co495 2.061 1_565 S
O496 C499 1.235 . S
C497 O500 1.238 . S
C497 O501 1.241 1_565 S
C498 O491 1.247 . S
C498 O492 1.261 . S
C499 O494 1.259 . S
C499 O496 1.235 . S
O500 Co490 2.021 . S
O500 C497 1.238 . S
O501 Co495 2.052 . S
O501 C497 1.241 1_545 S
O502 Co490 2.137 . S
O502 C493 1.247 . S
O503 Co490 2.244 . S
O503 C493 1.272 . S
O503 Co495 2.135 1_565 S
C504 C505 1.387 . S
C504 H508 0.950 . S
C504 C513 1.390 . S
C505 C504 1.387 . S
C505 C507 1.387 . S
H506 C513 0.950 . S
C507 C505 1.387 . S
C507 C509 1.390 . S
C507 H511 0.950 . S
H508 C504 0.950 . S
C509 C507 1.390 . S
C509 C510 1.387 . S
C509 H512 0.950 . S
C510 C509 1.387 . S
C510 C513 1.387 . S
H511 C507 0.950 . S
H512 C509 0.950 . S
C513 C504 1.390 . S
C513 H506 0.950 . S
C513 C510 1.387 . S
C514 C515 1.387 . S
C514 H518 0.950 . S
C514 C523 1.390 . S
C515 C514 1.387 . S
C515 C517 1.387 . S
H516 C523 0.950 . S
C517 C515 1.387 . S
C517 C519 1.390 . S
C517 H521 0.950 1_554 S
H518 C514 0.950 . S
C519 C517 1.390 . S
C519 C520 1.387 . S
C519 H522 0.950 1_554 S
C520 C519 1.387 . S
C520 C523 1.387 . S
H521 C517 0.950 1_556 S
H522 C519 0.950 1_556 S
C523 C514 1.390 . S
C523 H516 0.950 . S
C523 C520 1.387 . S
C524 C525 1.387 . S
C524 H528 0.950 . S
C524 C533 1.390 . S
C525 C524 1.387 . S
C525 C527 1.387 . S
H526 C533 0.950 . S
C527 C525 1.387 . S
C527 C529 1.390 . S
C527 H531 0.950 1_554 S
H528 C524 0.950 . S
C529 C527 1.390 . S
C529 C530 1.387 . S
C529 H532 0.950 1_554 S
C530 C529 1.387 . S
C530 C533 1.387 . S
H531 C527 0.950 1_556 S
H532 C529 0.950 1_556 S
C533 C524 1.390 . S
C533 H526 0.950 . S
C533 C530 1.387 . S
C534 C535 1.387 . S
C534 H538 0.950 1_556 S
C534 C543 1.390 . S
C535 C534 1.387 . S
C535 C537 1.387 . S
H536 C543 0.950 1_554 S
C537 C535 1.387 . S
C537 C539 1.390 . S
C537 H541 0.950 . S
H538 C534 0.950 1_554 S
C539 C537 1.390 . S
C539 C540 1.387 . S
C539 H542 0.950 . S
C540 C539 1.387 . S
C540 C543 1.387 . S
H541 C537 0.950 . S
H542 C539 0.950 . S
C543 C534 1.390 . S
C543 H536 0.950 1_556 S
C543 C540 1.387 . S
C544 C545 1.387 . S
C544 H548 0.950 . S
C544 C553 1.390 . S
C545 C544 1.387 . S
C545 C547 1.387 . S
H546 C553 0.950 . S
C547 C545 1.387 . S
C547 C549 1.390 . S
C547 H551 0.950 1_556 S
H548 C544 0.950 . S
C549 C547 1.390 . S
C549 C550 1.387 . S
C549 H552 0.950 1_556 S
C550 C549 1.387 . S
C550 C553 1.387 . S
H551 C547 0.950 1_554 S
H552 C549 0.950 1_554 S
C553 C544 1.390 . S
C553 H546 0.950 . S
C553 C550 1.387 . S
C554 C555 1.387 . S
C554 H558 0.950 . S
C554 C563 1.390 . S
C555 C554 1.387 . S
C555 C557 1.387 . S
H556 C563 0.950 . S
C557 C555 1.387 . S
C557 C559 1.390 . S
C557 H561 0.950 . S
H558 C554 0.950 . S
C559 C557 1.390 . S
C559 C560 1.387 . S
C559 H562 0.950 . S
C560 C559 1.387 . S
C560 C563 1.387 . S
H561 C557 0.950 . S
H562 C559 0.950 . S
C563 C554 1.390 . S
C563 H556 0.950 . S
C563 C560 1.387 . S
C564 C565 1.387 . S
C564 H568 0.950 . S
C564 C573 1.390 . S
C565 C564 1.387 . S
C565 C567 1.387 . S
H566 C573 0.950 . S
C567 C565 1.387 . S
C567 C569 1.390 . S
C567 H571 0.950 . S
H568 C564 0.950 . S
C569 C567 1.390 . S
C569 C570 1.387 . S
C569 H572 0.950 . S
C570 C569 1.387 . S
C570 C573 1.387 . S
H571 C567 0.950 . S
H572 C569 0.950 . S
C573 C564 1.390 . S
C573 H566 0.950 . S
C573 C570 1.387 . S
C574 C575 1.387 . S
C574 H578 0.950 . S
C574 C583 1.390 . S
C575 C574 1.387 . S
C575 C577 1.387 . S
H576 C583 0.950 . S
C577 C575 1.387 . S
C577 C579 1.390 . S
C577 H581 0.950 . S
H578 C574 0.950 . S
C579 C577 1.390 . S
C579 C580 1.387 . S
C579 H582 0.950 . S
C580 C579 1.387 . S
C580 C583 1.387 . S
H581 C577 0.950 . S
H582 C579 0.950 . S
C583 C574 1.390 . S
C583 H576 0.950 . S
C583 C580 1.387 . S
C584 C585 1.387 . S
C584 H588 0.950 . S
C584 C593 1.390 . S
C585 C584 1.387 . S
C585 C587 1.387 . S
H586 C593 0.950 . S
C587 C585 1.387 . S
C587 C589 1.390 . S
C587 H591 0.950 . S
H588 C584 0.950 . S
C589 C587 1.390 . S
C589 C590 1.387 . S
C589 H592 0.950 . S
C590 C589 1.387 . S
C590 C593 1.387 . S
H591 C587 0.950 . S
H592 C589 0.950 . S
C593 C584 1.390 . S
C593 H586 0.950 . S
C593 C590 1.387 . S
C594 C595 1.387 . S
C594 H598 0.950 . S
C594 C603 1.390 . S
C595 C594 1.387 . S
C595 C597 1.387 . S
H596 C603 0.950 . S
C597 C595 1.387 . S
C597 C599 1.390 . S
C597 H601 0.950 . S
H598 C594 0.950 . S
C599 C597 1.390 . S
C599 C600 1.387 . S
C599 H602 0.950 . S
C600 C599 1.387 . S
C600 C603 1.387 . S
H601 C597 0.950 . S
H602 C599 0.950 . S
C603 C594 1.390 . S
C603 H596 0.950 . S
C603 C600 1.387 . S
C604 C605 1.387 . S
C604 H608 0.950 . S
C604 C613 1.390 . S
C605 C604 1.387 . S
C605 C607 1.387 . S
H606 C613 0.950 . S
C607 C605 1.387 . S
C607 C609 1.390 . S
C607 H611 0.950 . S
H608 C604 0.950 . S
C609 C607 1.390 . S
C609 C610 1.387 . S
C609 H612 0.950 . S
C610 C609 1.387 . S
C610 C613 1.387 . S
H611 C607 0.950 . S
H612 C609 0.950 . S
C613 C604 1.390 . S
C613 H606 0.950 . S
C613 C610 1.387 . S
C614 C615 1.387 . S
C614 H618 0.950 . S
C614 C623 1.390 . S
C615 C614 1.387 . S
C615 C617 1.387 . S
H616 C623 0.950 . S
C617 C615 1.387 . S
C617 C619 1.390 . S
C617 H621 0.950 . S
H618 C614 0.950 . S
C619 C617 1.390 . S
C619 C620 1.387 . S
C619 H622 0.950 . S
C620 C619 1.387 . S
C620 C623 1.387 . S
H621 C617 0.950 . S
H622 C619 0.950 . S
C623 C614 1.390 . S
C623 H616 0.950 . S
C623 C620 1.387 . S
C624 C625 1.387 . S
C624 H628 0.950 . S
C624 C633 1.390 . S
C625 C624 1.387 . S
C625 C627 1.387 . S
H626 C633 0.950 . S
C627 C625 1.387 . S
C627 C629 1.390 . S
C627 H631 0.950 . S
H628 C624 0.950 . S
C629 C627 1.390 . S
C629 C630 1.387 . S
C629 H632 0.950 . S
C630 C629 1.387 . S
C630 C633 1.387 . S
H631 C627 0.950 . S
H632 C629 0.950 . S
C633 C624 1.390 . S
C633 H626 0.950 . S
C633 C630 1.387 . S
C634 C635 1.387 . S
C634 H638 0.950 . S
C634 C643 1.390 . S
C635 C634 1.387 . S
C635 C637 1.387 . S
H636 C643 0.950 . S
C637 C635 1.387 . S
C637 C639 1.390 . S
C637 H641 0.950 . S
H638 C634 0.950 . S
C639 C637 1.390 . S
C639 C640 1.387 . S
C639 H642 0.950 . S
C640 C639 1.387 . S
C640 C643 1.387 . S
H641 C637 0.950 . S
H642 C639 0.950 . S
C643 C634 1.390 . S
C643 H636 0.950 . S
C643 C640 1.387 . S
C644 C645 1.387 . S
C644 H648 0.950 . S
C644 C653 1.390 . S
C645 C644 1.387 . S
C645 C647 1.387 . S
H646 C653 0.950 . S
C647 C645 1.387 . S
C647 C649 1.390 . S
C647 H651 0.950 . S
H648 C644 0.950 . S
C649 C647 1.390 . S
C649 C650 1.387 . S
C649 H652 0.950 . S
C650 C649 1.387 . S
C650 C653 1.387 . S
H651 C647 0.950 . S
H652 C649 0.950 . S
C653 C644 1.390 . S
C653 H646 0.950 . S
C653 C650 1.387 . S
C654 C655 1.387 . S
C654 H658 0.950 . S
C654 C663 1.390 . S
C655 C654 1.387 . S
C655 C657 1.387 . S
H656 C663 0.950 . S
C657 C655 1.387 . S
C657 C659 1.390 . S
C657 H661 0.950 . S
H658 C654 0.950 . S
C659 C657 1.390 . S
C659 C660 1.387 . S
C659 H662 0.950 . S
C660 C659 1.387 . S
C660 C663 1.387 . S
H661 C657 0.950 . S
H662 C659 0.950 . S
C663 C654 1.390 . S
C663 H656 0.950 . S
C663 C660 1.387 . S
C664 C665 1.387 . S
C664 H668 0.950 . S
C664 C673 1.390 . S
C665 C664 1.387 . S
C665 C667 1.387 . S
H666 C673 0.950 . S
C667 C665 1.387 . S
C667 C669 1.390 . S
C667 H671 0.950 . S
H668 C664 0.950 . S
C669 C667 1.390 . S
C669 C670 1.387 . S
C669 H672 0.950 . S
C670 C669 1.387 . S
C670 C673 1.387 . S
H671 C667 0.950 . S
H672 C669 0.950 . S
C673 C664 1.390 . S
C673 H666 0.950 . S
C673 C670 1.387 . S
C674 C675 1.387 . S
C674 H678 0.950 . S
C674 C683 1.390 . S
C675 C674 1.387 . S
C675 C677 1.387 . S
H676 C683 0.950 . S
C677 C675 1.387 . S
C677 C679 1.390 . S
C677 H681 0.950 . S
H678 C674 0.950 . S
C679 C677 1.390 . S
C679 C680 1.387 . S
C679 H682 0.950 . S
C680 C679 1.387 . S
C680 C683 1.387 . S
H681 C677 0.950 . S
H682 C679 0.950 . S
C683 C674 1.390 . S
C683 H676 0.950 . S
C683 C680 1.387 . S
C684 C685 1.387 . S
C684 H688 0.950 . S
C684 C693 1.390 1_455 S
C685 C684 1.387 . S
C685 C687 1.387 1_554 S
H686 C693 0.950 . S
C687 C685 1.387 1_556 S
C687 C689 1.390 1_455 S
C687 H691 0.950 . S
H688 C684 0.950 . S
C689 C687 1.390 1_655 S
C689 C690 1.387 . S
C689 H692 0.950 . S
C690 C689 1.387 . S
C690 C693 1.387 1_556 S
H691 C687 0.950 . S
H692 C689 0.950 . S
C693 C684 1.390 1_655 S
C693 H686 0.950 . S
C693 C690 1.387 1_554 S
C694 C695 1.387 . S
C694 H698 0.950 . S
C694 C703 1.390 . S
C695 C694 1.387 . S
C695 C697 1.387 1_556 S
H696 C703 0.950 . S
C697 C695 1.387 1_554 S
C697 C699 1.390 . S
C697 H701 0.950 . S
H698 C694 0.950 . S
C699 C697 1.390 . S
C699 C700 1.387 . S
C699 H702 0.950 . S
C700 C699 1.387 . S
C700 C703 1.387 1_554 S
H701 C697 0.950 . S
H702 C699 0.950 . S
C703 C694 1.390 . S
C703 H696 0.950 . S
C703 C700 1.387 1_556 S
C704 C705 1.387 . S
C704 H708 0.950 . S
C704 C713 1.390 1_564 S
C705 C704 1.387 . S
C705 C707 1.387 . S
H706 C713 0.950 . S
C707 C705 1.387 . S
C707 C709 1.390 1_564 S
C707 H711 0.950 . S
H708 C704 0.950 . S
C709 C707 1.390 1_546 S
C709 C710 1.387 . S
C709 H712 0.950 . S
C710 C709 1.387 . S
C710 C713 1.387 . S
H711 C707 0.950 . S
H712 C709 0.950 . S
C713 C704 1.390 1_546 S
C713 H706 0.950 . S
C713 C710 1.387 . S
C714 C715 1.387 1_554 S
C714 H718 0.950 . S
C714 C723 1.337 1_655 S
C715 C714 1.387 1_556 S
C715 C717 1.434 . S
H716 C723 0.961 . S
C717 C715 1.434 . S
C717 C719 1.337 1_655 S
C717 H721 0.961 . S
H718 C714 0.950 . S
C719 C717 1.337 1_455 S
C719 C720 1.387 1_556 S
C719 H722 0.950 . S
C720 C719 1.387 1_554 S
C720 C723 1.434 . S
H721 C717 0.961 . S
H722 C719 0.950 . S
C723 C714 1.337 1_455 S
C723 H716 0.961 . S
C723 C720 1.434 . S
C724 C725 1.387 1_554 S
C724 H728 0.950 . S
C724 C733 1.390 . S
C725 C724 1.387 1_556 S
C725 C727 1.387 . S
H726 C733 0.950 . S
C727 C725 1.387 . S
C727 C729 1.390 . S
C727 H731 0.950 . S
H728 C724 0.950 . S
C729 C727 1.390 . S
C729 C730 1.387 1_556 S
C729 H732 0.950 . S
C730 C729 1.387 1_554 S
C730 C733 1.387 . S
H731 C727 0.950 . S
H732 C729 0.950 . S
C733 C724 1.390 . S
C733 H726 0.950 . S
C733 C730 1.387 . S
C734 C735 1.387 . S
C734 H738 0.950 . S
C734 C743 1.390 1_546 S
C735 C734 1.387 . S
C735 C737 1.387 . S
H736 C743 0.950 . S
C737 C735 1.387 . S
C737 C739 1.390 1_546 S
C737 H741 0.950 . S
H738 C734 0.950 . S
C739 C737 1.390 1_564 S
C739 C740 1.387 . S
C739 H742 0.950 . S
C740 C739 1.387 . S
C740 C743 1.387 . S
H741 C737 0.950 . S
H742 C739 0.950 . S
C743 C734 1.390 1_564 S
C743 H736 0.950 . S
C743 C740 1.387 . S
C744 C745 1.387 . S
C744 H748 0.950 . S
C744 C753 1.390 . S
C745 C744 1.387 . S
C745 C747 1.387 . S
H746 C753 0.950 . S
C747 C745 1.387 . S
C747 C749 1.390 . S
C747 H751 0.950 . S
H748 C744 0.950 . S
C749 C747 1.390 . S
C749 C750 1.387 . S
C749 H752 0.950 . S
C750 C749 1.387 . S
C750 C753 1.387 . S
H751 C747 0.950 . S
H752 C749 0.950 . S
C753 C744 1.390 . S
C753 H746 0.950 . S
C753 C750 1.387 . S
C754 C755 1.387 . S
C754 H758 0.950 . S
C754 C763 1.390 . S
C755 C754 1.387 . S
C755 C757 1.387 . S
H756 C763 0.950 . S
C757 C755 1.387 . S
C757 C759 1.390 . S
C757 H761 0.950 . S
H758 C754 0.950 . S
C759 C757 1.390 . S
C759 C760 1.387 . S
C759 H762 0.950 . S
C760 C759 1.387 . S
C760 C763 1.387 . S
H761 C757 0.950 . S
H762 C759 0.950 . S
C763 C754 1.390 . S
C763 H756 0.950 . S
C763 C760 1.387 . S
C764 C765 1.387 . S
C764 H768 0.950 . S
C764 C773 1.390 . S
C765 C764 1.387 . S
C765 C767 1.387 . S
H766 C773 0.950 . S
C767 C765 1.387 . S
C767 C769 1.390 . S
C767 H771 0.950 . S
H768 C764 0.950 . S
C769 C767 1.390 . S
C769 C770 1.387 . S
C769 H772 0.950 . S
C770 C769 1.387 . S
C770 C773 1.387 . S
H771 C767 0.950 . S
H772 C769 0.950 . S
C773 C764 1.390 . S
C773 H766 0.950 . S
C773 C770 1.387 . S
C774 C775 1.387 . S
C774 H778 0.950 . S
C774 C783 1.390 . S
C775 C774 1.387 . S
C775 C777 1.387 . S
H776 C783 0.950 . S
C777 C775 1.387 . S
C777 C779 1.390 . S
C777 H781 0.950 . S
H778 C774 0.950 . S
C779 C777 1.390 . S
C779 C780 1.387 . S
C779 H782 0.950 . S
C780 C779 1.387 . S
C780 C783 1.387 . S
H781 C777 0.950 . S
H782 C779 0.950 . S
C783 C774 1.390 . S
C783 H776 0.950 . S
C783 C780 1.387 . S
C784 C785 1.387 . S
C784 H788 0.950 . S
C784 C793 1.390 . S
C785 C784 1.387 . S
C785 C787 1.387 . S
H786 C793 0.950 . S
C787 C785 1.387 . S
C787 C789 1.390 . S
C787 H791 0.950 . S
H788 C784 0.950 . S
C789 C787 1.390 . S
C789 C790 1.387 . S
C789 H792 0.950 . S
C790 C789 1.387 . S
C790 C793 1.387 . S
H791 C787 0.950 . S
H792 C789 0.950 . S
C793 C784 1.390 . S
C793 H786 0.950 . S
C793 C790 1.387 . S
C794 C795 1.387 . S
C794 H798 0.950 . S
C794 C803 1.390 . S
C795 C794 1.387 . S
C795 C797 1.387 . S
H796 C803 0.950 . S
C797 C795 1.387 . S
C797 C799 1.390 . S
C797 H801 0.950 . S
H798 C794 0.950 . S
C799 C797 1.390 . S
C799 C800 1.387 . S
C799 H802 0.950 . S
C800 C799 1.387 . S
C800 C803 1.387 . S
H801 C797 0.950 . S
H802 C799 0.950 . S
C803 C794 1.390 . S
C803 H796 0.950 . S
C803 C800 1.387 . S
C804 C805 1.387 . S
C804 H808 0.950 . S
C804 C813 1.390 . S
C805 C804 1.387 . S
C805 C807 1.387 . S
H806 C813 0.950 . S
C807 C805 1.387 . S
C807 C809 1.390 . S
C807 H811 0.950 . S
H808 C804 0.950 . S
C809 C807 1.390 . S
C809 C810 1.387 . S
C809 H812 0.950 . S
C810 C809 1.387 . S
C810 C813 1.387 . S
H811 C807 0.950 . S
H812 C809 0.950 . S
C813 C804 1.390 . S
C813 H806 0.950 . S
C813 C810 1.387 . S
C814 C815 1.387 . S
C814 H818 0.950 . S
C814 C823 1.390 . S
C815 C814 1.387 . S
C815 C817 1.387 . S
H816 C823 0.950 . S
C817 C815 1.387 . S
C817 C819 1.390 . S
C817 H821 0.950 . S
H818 C814 0.950 . S
C819 C817 1.390 . S
C819 C820 1.387 . S
C819 H822 0.950 . S
C820 C819 1.387 . S
C820 C823 1.387 . S
H821 C817 0.950 . S
H822 C819 0.950 . S
C823 C814 1.390 . S
C823 H816 0.950 . S
C823 C820 1.387 . S
C824 C825 1.387 . S
C824 H828 0.950 . S
C824 C833 1.390 . S
C825 C824 1.387 . S
C825 C827 1.387 . S
H826 C833 0.950 . S
C827 C825 1.387 . S
C827 C829 1.390 . S
C827 H831 0.950 . S
H828 C824 0.950 . S
C829 C827 1.390 . S
C829 C830 1.387 . S
C829 H832 0.950 . S
C830 C829 1.387 . S
C830 C833 1.387 . S
H831 C827 0.950 . S
H832 C829 0.950 . S
C833 C824 1.390 . S
C833 H826 0.950 . S
C833 C830 1.387 . S
C834 C835 1.387 . S
C834 H838 0.950 . S
C834 C843 1.390 . S
C835 C834 1.387 . S
C835 C837 1.387 . S
H836 C843 0.950 . S
C837 C835 1.387 . S
C837 C839 1.390 . S
C837 H841 0.950 . S
H838 C834 0.950 . S
C839 C837 1.390 . S
C839 C840 1.387 . S
C839 H842 0.950 . S
C840 C839 1.387 . S
C840 C843 1.387 . S
H841 C837 0.950 . S
H842 C839 0.950 . S
C843 C834 1.390 . S
C843 H836 0.950 . S
C843 C840 1.387 . S
C844 C845 1.387 . S
C844 H848 0.950 . S
C844 C853 1.390 . S
C845 C844 1.387 . S
C845 C847 1.387 . S
H846 C853 0.950 . S
C847 C845 1.387 . S
C847 C849 1.390 . S
C847 H851 0.950 . S
H848 C844 0.950 . S
C849 C847 1.390 . S
C849 C850 1.387 . S
C849 H852 0.950 . S
C850 C849 1.387 . S
C850 C853 1.387 . S
H851 C847 0.950 . S
H852 C849 0.950 . S
C853 C844 1.390 . S
C853 H846 0.950 . S
C853 C850 1.387 . S
C854 C855 1.387 . S
C854 H858 0.950 . S
C854 C863 1.390 . S
C855 C854 1.387 . S
C855 C857 1.387 . S
H856 C863 0.950 . S
C857 C855 1.387 . S
C857 C859 1.390 . S
C857 H861 0.950 . S
H858 C854 0.950 . S
C859 C857 1.390 . S
C859 C860 1.387 . S
C859 H862 0.950 . S
C860 C859 1.387 . S
C860 C863 1.387 . S
H861 C857 0.950 . S
H862 C859 0.950 . S
C863 C854 1.390 . S
C863 H856 0.950 . S
C863 C860 1.387 . S
C864 C865 1.387 . S
C864 H868 0.950 . S
C864 C873 1.390 . S
C865 C864 1.387 . S
C865 C867 1.387 . S
H866 C873 0.950 . S
C867 C865 1.387 . S
C867 C869 1.390 . S
C867 H871 0.950 . S
H868 C864 0.950 . S
C869 C867 1.390 . S
C869 C870 1.387 . S
C869 H872 0.950 . S
C870 C869 1.387 . S
C870 C873 1.387 . S
H871 C867 0.950 . S
H872 C869 0.950 . S
C873 C864 1.390 . S
C873 H866 0.950 . S
C873 C870 1.387 . S
C874 C875 1.387 . S
C874 H878 0.950 . S
C874 C883 1.390 . S
C875 C874 1.387 . S
C875 C877 1.387 . S
H876 C883 0.950 . S
C877 C875 1.387 . S
C877 C879 1.390 . S
C877 H881 0.950 . S
H878 C874 0.950 . S
C879 C877 1.390 . S
C879 C880 1.387 . S
C879 H882 0.950 . S
C880 C879 1.387 . S
C880 C883 1.387 . S
H881 C877 0.950 . S
H882 C879 0.950 . S
C883 C874 1.390 . S
C883 H876 0.950 . S
C883 C880 1.387 . S
C884 C885 1.387 . S
C884 H888 0.950 . S
C884 C893 1.390 . S
C885 C884 1.387 . S
C885 C887 1.387 . S
H886 C893 0.950 . S
C887 C885 1.387 . S
C887 C889 1.390 . S
C887 H891 0.950 . S
H888 C884 0.950 . S
C889 C887 1.390 . S
C889 C890 1.387 . S
C889 H892 0.950 . S
C890 C889 1.387 . S
C890 C893 1.387 . S
H891 C887 0.950 . S
H892 C889 0.950 . S
C893 C884 1.390 . S
C893 H886 0.950 . S
C893 C890 1.387 . S
C894 C895 1.387 . S
C894 H898 0.950 . S
C894 C903 1.390 . S
C895 C894 1.387 . S
C895 C897 1.387 . S
H896 C903 0.950 . S
C897 C895 1.387 . S
C897 C899 1.390 . S
C897 H901 0.950 . S
H898 C894 0.950 . S
C899 C897 1.390 . S
C899 C900 1.387 . S
C899 H902 0.950 . S
C900 C899 1.387 . S
C900 C903 1.387 . S
H901 C897 0.950 . S
H902 C899 0.950 . S
C903 C894 1.390 . S
C903 H896 0.950 . S
C903 C900 1.387 . S
C904 C905 1.387 . S
C904 H908 0.950 . S
C904 C913 1.390 . S
C905 C904 1.387 . S
C905 C907 1.387 . S
H906 C913 0.950 . S
C907 C905 1.387 . S
C907 C909 1.390 . S
C907 H911 0.950 . S
H908 C904 0.950 . S
C909 C907 1.390 . S
C909 C910 1.387 . S
C909 H912 0.950 . S
C910 C909 1.387 . S
C910 C913 1.387 . S
H911 C907 0.950 . S
H912 C909 0.950 . S
C913 C904 1.390 . S
C913 H906 0.950 . S
C913 C910 1.387 . S
C914 C915 1.387 . S
C914 H918 0.950 . S
C914 C923 1.390 . S
C915 C914 1.387 . S
C915 C917 1.387 . S
H916 C923 0.950 . S
C917 C915 1.387 . S
C917 C919 1.390 . S
C917 H921 0.950 . S
H918 C914 0.950 . S
C919 C917 1.390 . S
C919 C920 1.387 . S
C919 H922 0.950 . S
C920 C919 1.387 . S
C920 C923 1.387 . S
H921 C917 0.950 . S
H922 C919 0.950 . S
C923 C914 1.390 . S
C923 H916 0.950 . S
C923 C920 1.387 . S
C924 C925 1.387 . S
C924 H928 0.950 . S
C924 C933 1.390 . S
C925 C924 1.387 . S
C925 C927 1.387 . S
H926 C933 0.950 . S
C927 C925 1.387 . S
C927 C929 1.390 . S
C927 H931 0.950 . S
H928 C924 0.950 . S
C929 C927 1.390 . S
C929 C930 1.387 . S
C929 H932 0.950 . S
C930 C929 1.387 . S
C930 C933 1.387 . S
H931 C927 0.950 . S
H932 C929 0.950 . S
C933 C924 1.390 . S
C933 H926 0.950 . S
C933 C930 1.387 . S
C934 C935 1.387 . S
C934 H938 0.950 . S
C934 C943 1.390 . S
C935 C934 1.387 . S
C935 C937 1.387 . S
H936 C943 0.950 . S
C937 C935 1.387 . S
C937 C939 1.390 . S
C937 H941 0.950 . S
H938 C934 0.950 . S
C939 C937 1.390 . S
C939 C940 1.387 . S
C939 H942 0.950 . S
C940 C939 1.387 . S
C940 C943 1.387 . S
H941 C937 0.950 . S
H942 C939 0.950 . S
C943 C934 1.390 . S
C943 H936 0.950 . S
C943 C940 1.387 . S
C944 C945 1.387 . S
C944 H948 0.950 . S
C944 C953 1.390 . S
C945 C944 1.387 . S
C945 C947 1.387 . S
H946 C953 0.950 . S
C947 C945 1.387 . S
C947 C949 1.390 . S
C947 H951 0.950 . S
H948 C944 0.950 . S
C949 C947 1.390 . S
C949 C950 1.387 . S
C949 H952 0.950 . S
C950 C949 1.387 . S
C950 C953 1.387 . S
H951 C947 0.950 . S
H952 C949 0.950 . S
C953 C944 1.390 . S
C953 H946 0.950 . S
C953 C950 1.387 . S
C954 C955 1.387 . S
C954 H958 0.950 . S
C954 C963 1.390 . S
C955 C954 1.387 . S
C955 C957 1.387 . S
H956 C963 0.950 . S
C957 C955 1.387 . S
C957 C959 1.390 . S
C957 H961 0.950 . S
H958 C954 0.950 . S
C959 C957 1.390 . S
C959 C960 1.387 . S
C959 H962 0.950 . S
C960 C959 1.387 . S
C960 C963 1.387 . S
H961 C957 0.950 . S
H962 C959 0.950 . S
C963 C954 1.390 . S
C963 H956 0.950 . S
C963 C960 1.387 . S
C964 C965 1.387 . S
C964 H968 0.950 . S
C964 C973 1.390 . S
C965 C964 1.387 . S
C965 C967 1.387 . S
H966 C973 0.950 . S
C967 C965 1.387 . S
C967 C969 1.390 . S
C967 H971 0.950 . S
H968 C964 0.950 . S
C969 C967 1.390 . S
C969 C970 1.387 . S
C969 H972 0.950 . S
C970 C969 1.387 . S
C970 C973 1.387 . S
H971 C967 0.950 . S
H972 C969 0.950 . S
C973 C964 1.390 . S
C973 H966 0.950 . S
C973 C970 1.387 . S
C974 C975 1.387 . S
C974 H978 0.950 . S
C974 C983 1.390 . S
C975 C974 1.387 . S
C975 C977 1.387 . S
H976 C983 0.950 . S
C977 C975 1.387 . S
C977 C979 1.390 . S
C977 H981 0.950 . S
H978 C974 0.950 . S
C979 C977 1.390 . S
C979 C980 1.387 . S
C979 H982 0.950 . S
C980 C979 1.387 . S
C980 C983 1.387 . S
H981 C977 0.950 . S
H982 C979 0.950 . S
C983 C974 1.390 . S
C983 H976 0.950 . S
C983 C980 1.387 . S
C984 C985 1.387 . S
C984 H988 0.950 . S
C984 C993 1.390 . S
C985 C984 1.387 . S
C985 C987 1.387 1_455 S
H986 C993 0.950 . S
C987 C985 1.387 1_655 S
C987 C989 1.390 . S
C987 H991 0.950 . S
H988 C984 0.950 . S
C989 C987 1.390 . S
C989 C990 1.387 . S
C989 H992 0.950 . S
C990 C989 1.387 . S
C990 C993 1.387 1_655 S
H991 C987 0.950 . S
H992 C989 0.950 . S
C993 C984 1.390 . S
C993 H986 0.950 . S
C993 C990 1.387 1_455 S
C994 C995 1.387 . S
C994 H998 0.950 . S
C994 C1003 1.390 . S
C995 C994 1.387 . S
C995 C997 1.387 . S
H996 C1003 0.950 . S
C997 C995 1.387 . S
C997 C999 1.390 . S
C997 H1001 0.950 . S
H998 C994 0.950 . S
C999 C997 1.390 . S
C999 C1000 1.387 . S
C999 H1002 0.950 . S
C1000 C999 1.387 . S
C1000 C1003 1.387 . S
H1001 C997 0.950 . S
H1002 C999 0.950 . S
C1003 C994 1.390 . S
C1003 H996 0.950 . S
C1003 C1000 1.387 . S
C1004 C1005 1.387 . S
C1004 H1008 0.950 . S
C1004 C1013 1.390 1_565 S
C1005 C1004 1.387 . S
C1005 C1007 1.387 . S
H1006 C1013 0.950 . S
C1007 C1005 1.387 . S
C1007 C1009 1.390 1_565 S
C1007 H1011 0.950 . S
H1008 C1004 0.950 . S
C1009 C1007 1.390 1_545 S
C1009 C1010 1.387 . S
C1009 H1012 0.950 . S
C1010 C1009 1.387 . S
C1010 C1013 1.387 . S
H1011 C1007 0.950 . S
H1012 C1009 0.950 . S
C1013 C1004 1.390 1_545 S
C1013 H1006 0.950 . S
C1013 C1010 1.387 . S
C1014 C1015 1.387 . S
C1014 H1018 0.950 . S
C1014 C1023 1.390 1_565 S
C1015 C1014 1.387 . S
C1015 C1017 1.387 . S
H1016 C1023 0.950 . S
C1017 C1015 1.387 . S
C1017 C1019 1.390 1_565 S
C1017 H1021 0.950 . S
H1018 C1014 0.950 . S
C1019 C1017 1.390 1_545 S
C1019 C1020 1.387 . S
C1019 H1022 0.950 . S
C1020 C1019 1.387 . S
C1020 C1023 1.387 . S
H1021 C1017 0.950 . S
H1022 C1019 0.950 . S
C1023 C1014 1.390 1_545 S
C1023 H1016 0.950 . S
C1023 C1020 1.387 . S
C1024 C1025 1.387 1_455 S
C1024 H1028 0.950 . S
C1024 C1033 1.390 . S
C1025 C1024 1.387 1_655 S
C1025 C1027 1.387 . S
H1026 C1033 0.950 . S
C1027 C1025 1.387 . S
C1027 C1029 1.390 . S
C1027 H1031 0.950 . S
H1028 C1024 0.950 . S
C1029 C1027 1.390 . S
C1029 C1030 1.387 1_655 S
C1029 H1032 0.950 . S
C1030 C1029 1.387 1_455 S
C1030 C1033 1.387 . S
H1031 C1027 0.950 . S
H1032 C1029 0.950 . S
C1033 C1024 1.390 . S
C1033 H1026 0.950 . S
C1033 C1030 1.387 . S
C1034 C1035 1.387 . S
C1034 H1038 0.950 . S
C1034 C1043 1.390 . S
C1035 C1034 1.387 . S
C1035 C1037 1.387 . S
H1036 C1043 0.950 . S
C1037 C1035 1.387 . S
C1037 C1039 1.390 . S
C1037 H1041 0.950 . S
H1038 C1034 0.950 . S
C1039 C1037 1.390 . S
C1039 C1040 1.387 . S
C1039 H1042 0.950 . S
C1040 C1039 1.387 . S
C1040 C1043 1.387 . S
H1041 C1037 0.950 . S
H1042 C1039 0.950 . S
C1043 C1034 1.390 . S
C1043 H1036 0.950 . S
C1043 C1040 1.387 . S
C1044 C1045 1.387 . S
C1044 H1048 0.950 . S
C1044 C1053 1.390 . S
C1045 C1044 1.387 . S
C1045 C1047 1.387 . S
H1046 C1053 0.950 . S
C1047 C1045 1.387 . S
C1047 C1049 1.390 . S
C1047 H1051 0.950 . S
H1048 C1044 0.950 . S
C1049 C1047 1.390 . S
C1049 C1050 1.387 . S
C1049 H1052 0.950 . S
C1050 C1049 1.387 . S
C1050 C1053 1.387 . S
H1051 C1047 0.950 . S
H1052 C1049 0.950 . S
C1053 C1044 1.390 . S
C1053 H1046 0.950 . S
C1053 C1050 1.387 . S
C1054 C1055 1.387 . S
C1054 H1058 0.950 . S
C1054 C1063 1.390 . S
C1055 C1054 1.387 . S
C1055 C1057 1.387 . S
H1056 C1063 0.950 . S
C1057 C1055 1.387 . S
C1057 C1059 1.390 . S
C1057 H1061 0.950 . S
H1058 C1054 0.950 . S
C1059 C1057 1.390 . S
C1059 C1060 1.387 . S
C1059 H1062 0.950 . S
C1060 C1059 1.387 . S
C1060 C1063 1.387 . S
H1061 C1057 0.950 . S
H1062 C1059 0.950 . S
C1063 C1054 1.390 . S
C1063 H1056 0.950 . S
C1063 C1060 1.387 . S
C1064 C1065 1.387 . S
C1064 H1068 0.950 . S
C1064 C1073 1.390 . S
C1065 C1064 1.387 . S
C1065 C1067 1.387 . S
H1066 C1073 0.950 . S
C1067 C1065 1.387 . S
C1067 C1069 1.390 . S
C1067 H1071 0.950 . S
H1068 C1064 0.950 . S
C1069 C1067 1.390 . S
C1069 C1070 1.387 . S
C1069 H1072 0.950 . S
C1070 C1069 1.387 . S
C1070 C1073 1.387 . S
H1071 C1067 0.950 . S
H1072 C1069 0.950 . S
C1073 C1064 1.390 . S
C1073 H1066 0.950 . S
C1073 C1070 1.387 . S
C1074 C1075 1.387 . S
C1074 H1078 0.950 . S
C1074 C1083 1.390 . S
C1075 C1074 1.387 . S
C1075 C1077 1.387 . S
H1076 C1083 0.950 . S
C1077 C1075 1.387 . S
C1077 C1079 1.390 . S
C1077 H1081 0.950 . S
H1078 C1074 0.950 . S
C1079 C1077 1.390 . S
C1079 C1080 1.387 . S
C1079 H1082 0.950 . S
C1080 C1079 1.387 . S
C1080 C1083 1.387 . S
H1081 C1077 0.950 . S
H1082 C1079 0.950 . S
C1083 C1074 1.390 . S
C1083 H1076 0.950 . S
C1083 C1080 1.387 . S
C1084 C1085 1.387 . S
C1084 H1088 0.950 . S
C1084 C1093 1.390 . S
C1085 C1084 1.387 . S
C1085 C1087 1.387 . S
H1086 C1093 0.950 . S
C1087 C1085 1.387 . S
C1087 C1089 1.390 . S
C1087 H1091 0.950 . S
H1088 C1084 0.950 . S
C1089 C1087 1.390 . S
C1089 C1090 1.387 . S
C1089 H1092 0.950 . S
C1090 C1089 1.387 . S
C1090 C1093 1.387 . S
H1091 C1087 0.950 . S
H1092 C1089 0.950 . S
C1093 C1084 1.390 . S
C1093 H1086 0.950 . S
C1093 C1090 1.387 . S
C1094 C1095 1.387 . S
C1094 H1098 0.950 . S
C1094 C1103 1.390 . S
C1095 C1094 1.387 . S
C1095 C1097 1.387 . S
H1096 C1103 0.950 . S
C1097 C1095 1.387 . S
C1097 C1099 1.390 . S
C1097 H1101 0.950 . S
H1098 C1094 0.950 . S
C1099 C1097 1.390 . S
C1099 C1100 1.387 . S
C1099 H1102 0.950 . S
C1100 C1099 1.387 . S
C1100 C1103 1.387 . S
H1101 C1097 0.950 . S
H1102 C1099 0.950 . S
C1103 C1094 1.390 . S
C1103 H1096 0.950 . S
C1103 C1100 1.387 . S
C1104 C1105 1.387 . S
C1104 H1108 0.950 . S
C1104 C1113 1.390 . S
C1105 C1104 1.387 . S
C1105 C1107 1.387 . S
H1106 C1113 0.950 . S
C1107 C1105 1.387 . S
C1107 C1109 1.390 . S
C1107 H1111 0.950 . S
H1108 C1104 0.950 . S
C1109 C1107 1.390 . S
C1109 C1110 1.387 . S
C1109 H1112 0.950 . S
C1110 C1109 1.387 . S
C1110 C1113 1.387 . S
H1111 C1107 0.950 . S
H1112 C1109 0.950 . S
C1113 C1104 1.390 . S
C1113 H1106 0.950 . S
C1113 C1110 1.387 . S
C1114 C1115 1.387 . S
C1114 H1118 0.950 . S
C1114 C1123 1.390 . S
C1115 C1114 1.387 . S
C1115 C1117 1.387 . S
H1116 C1123 0.950 . S
C1117 C1115 1.387 . S
C1117 C1119 1.390 . S
C1117 H1121 0.950 . S
H1118 C1114 0.950 . S
C1119 C1117 1.390 . S
C1119 C1120 1.387 . S
C1119 H1122 0.950 . S
C1120 C1119 1.387 . S
C1120 C1123 1.387 . S
H1121 C1117 0.950 . S
H1122 C1119 0.950 . S
C1123 C1114 1.390 . S
C1123 H1116 0.950 . S
C1123 C1120 1.387 . S
C1124 C1125 1.387 . S
C1124 H1128 0.950 . S
C1124 C1133 1.390 . S
C1125 C1124 1.387 . S
C1125 C1127 1.387 . S
H1126 C1133 0.950 . S
C1127 C1125 1.387 . S
C1127 C1129 1.390 . S
C1127 H1131 0.950 . S
H1128 C1124 0.950 . S
C1129 C1127 1.390 . S
C1129 C1130 1.387 . S
C1129 H1132 0.950 . S
C1130 C1129 1.387 . S
C1130 C1133 1.387 . S
H1131 C1127 0.950 . S
H1132 C1129 0.950 . S
C1133 C1124 1.390 . S
C1133 H1126 0.950 . S
C1133 C1130 1.387 . S
C1134 C1135 1.387 . S
C1134 H1138 0.950 . S
C1134 C1143 1.390 . S
C1135 C1134 1.387 . S
C1135 C1137 1.387 . S
H1136 C1143 0.950 . S
C1137 C1135 1.387 . S
C1137 C1139 1.390 . S
C1137 H1141 0.950 . S
H1138 C1134 0.950 . S
C1139 C1137 1.390 . S
C1139 C1140 1.387 . S
C1139 H1142 0.950 . S
C1140 C1139 1.387 . S
C1140 C1143 1.387 . S
H1141 C1137 0.950 . S
H1142 C1139 0.950 . S
C1143 C1134 1.390 . S
C1143 H1136 0.950 . S
C1143 C1140 1.387 . S
C1144 C1145 1.387 . S
C1144 H1148 0.950 . S
C1144 C1153 1.390 . S
C1145 C1144 1.387 . S
C1145 C1147 1.387 . S
H1146 C1153 0.950 . S
C1147 C1145 1.387 . S
C1147 C1149 1.390 . S
C1147 H1151 0.950 . S
H1148 C1144 0.950 . S
C1149 C1147 1.390 . S
C1149 C1150 1.387 . S
C1149 H1152 0.950 . S
C1150 C1149 1.387 . S
C1150 C1153 1.387 . S
H1151 C1147 0.950 . S
H1152 C1149 0.950 . S
C1153 C1144 1.390 . S
C1153 H1146 0.950 . S
C1153 C1150 1.387 . S
C1154 C1155 1.387 . S
C1154 H1158 0.950 . S
C1154 C1163 1.390 . S
C1155 C1154 1.387 . S
C1155 C1157 1.387 . S
H1156 C1163 0.950 . S
C1157 C1155 1.387 . S
C1157 C1159 1.390 . S
C1157 H1161 0.950 . S
H1158 C1154 0.950 . S
C1159 C1157 1.390 . S
C1159 C1160 1.387 . S
C1159 H1162 0.950 . S
C1160 C1159 1.387 . S
C1160 C1163 1.387 . S
H1161 C1157 0.950 . S
H1162 C1159 0.950 . S
C1163 C1154 1.390 . S
C1163 H1156 0.950 . S
C1163 C1160 1.387 . S
C1164 C1165 1.387 . S
C1164 H1168 0.950 . S
C1164 C1173 1.390 1_556 S
C1165 C1164 1.387 . S
C1165 C1167 1.387 1_455 S
H1166 C1173 0.950 . S
C1167 C1165 1.387 1_655 S
C1167 C1169 1.390 1_556 S
C1167 H1171 0.950 . S
H1168 C1164 0.950 . S
C1169 C1167 1.390 1_554 S
C1169 C1170 1.387 . S
C1169 H1172 0.950 . S
C1170 C1169 1.387 . S
C1170 C1173 1.387 1_655 S
H1171 C1167 0.950 . S
H1172 C1169 0.950 . S
C1173 C1164 1.390 1_554 S
C1173 H1166 0.950 . S
C1173 C1170 1.387 1_455 S
C1174 C1175 1.387 . S
C1174 H1178 0.950 . S
C1174 C1183 1.390 1_554 S
C1175 C1174 1.387 . S
C1175 C1177 1.387 . S
H1176 C1183 0.950 . S
C1177 C1175 1.387 . S
C1177 C1179 1.390 1_554 S
C1177 H1181 0.950 . S
H1178 C1174 0.950 . S
C1179 C1177 1.390 1_556 S
C1179 C1180 1.387 . S
C1179 H1182 0.950 . S
C1180 C1179 1.387 . S
C1180 C1183 1.387 . S
H1181 C1177 0.950 . S
H1182 C1179 0.950 . S
C1183 C1174 1.390 1_556 S
C1183 H1176 0.950 . S
C1183 C1180 1.387 . S
C1184 C1185 1.387 . S
C1184 H1188 0.950 . S
C1184 C1193 1.390 1_544 S
C1185 C1184 1.387 . S
C1185 C1187 1.387 . S
H1186 C1193 0.950 . S
C1187 C1185 1.387 . S
C1187 C1189 1.390 1_544 S
C1187 H1191 0.950 . S
H1188 C1184 0.950 . S
C1189 C1187 1.390 1_566 S
C1189 C1190 1.387 . S
C1189 H1192 0.950 . S
C1190 C1189 1.387 . S
C1190 C1193 1.387 . S
H1191 C1187 0.950 . S
H1192 C1189 0.950 . S
C1193 C1184 1.390 1_566 S
C1193 H1186 0.950 . S
C1193 C1190 1.387 . S
C1194 C1195 1.387 . S
C1194 H1198 0.950 . S
C1194 C1203 1.390 1_566 S
C1195 C1194 1.387 . S
C1195 C1197 1.387 . S
H1196 C1203 0.950 . S
C1197 C1195 1.387 . S
C1197 C1199 1.390 1_566 S
C1197 H1201 0.950 . S
H1198 C1194 0.950 . S
C1199 C1197 1.390 1_544 S
C1199 C1200 1.387 . S
C1199 H1202 0.950 . S
C1200 C1199 1.387 . S
C1200 C1203 1.387 . S
H1201 C1197 0.950 . S
H1202 C1199 0.950 . S
C1203 C1194 1.390 1_544 S
C1203 H1196 0.950 . S
C1203 C1200 1.387 . S
C1204 C1205 1.387 . S
C1204 H1208 0.950 . S
C1204 C1213 1.390 1_556 S
C1205 C1204 1.387 . S
C1205 C1207 1.387 1_455 S
H1206 C1213 0.950 . S
C1207 C1205 1.387 1_655 S
C1207 C1209 1.390 1_556 S
C1207 H1211 0.950 . S
H1208 C1204 0.950 . S
C1209 C1207 1.390 1_554 S
C1209 C1210 1.387 . S
C1209 H1212 0.950 . S
C1210 C1209 1.387 . S
C1210 C1213 1.387 1_655 S
H1211 C1207 0.950 . S
H1212 C1209 0.950 . S
C1213 C1204 1.390 1_554 S
C1213 H1206 0.950 . S
C1213 C1210 1.387 1_455 S
C1214 C1215 1.387 . S
C1214 H1218 0.950 . S
C1214 C1223 1.390 1_554 S
C1215 C1214 1.387 . S
C1215 C1217 1.387 . S
H1216 C1223 0.950 . S
C1217 C1215 1.387 . S
C1217 C1219 1.390 1_554 S
C1217 H1221 0.950 . S
H1218 C1214 0.950 . S
C1219 C1217 1.390 1_556 S
C1219 C1220 1.387 . S
C1219 H1222 0.950 . S
C1220 C1219 1.387 . S
C1220 C1223 1.387 . S
H1221 C1217 0.950 . S
H1222 C1219 0.950 . S
C1223 C1214 1.390 1_556 S
C1223 H1216 0.950 . S
C1223 C1220 1.387 . S
C505 C9 1.382 . S
C510 C163 1.383 . S
C515 C23 1.381 . S
C520 C135 1.384 . S
C525 C149 1.384 . S
C530 C37 1.381 . S
C535 C51 1.384 . S
C540 C107 1.381 . S
C545 C121 1.384 . S
C550 C65 1.381 . S
C555 C79 1.383 . S
C560 C93 1.382 . S
C565 C331 1.382 . S
C570 C177 1.383 . S
C575 C191 1.384 . S
C580 C303 1.381 . S
C585 C205 1.384 . S
C590 C317 1.381 . S
C595 C275 1.384 . S
C600 C219 1.381 . S
C605 C233 1.384 . S
C610 C289 1.381 . S
C615 C261 1.383 . S
C620 C247 1.382 . S
C625 C345 1.383 . S
C630 C499 1.383 . S
C635 C471 1.381 . S
C640 C359 1.384 . S
C645 C485 1.381 . S
C650 C373 1.384 . S
C655 C443 1.384 . S
C660 C387 1.381 . S
C665 C457 1.381 . S
C670 C401 1.384 . S
C675 C429 1.382 . S
C680 C415 1.383 . S
C685 C8 1.445 . S
C690 C64 1.444 . S
C695 C78 1.445 . S
C700 C22 1.444 . S
C705 C36 1.444 . S
C710 C50 1.444 . S
C715 C92 1.445 . S
C720 C148 1.445 . S
C725 C106 1.446 . S
C730 C162 1.446 . S
C735 C120 1.446 . S
C740 C134 1.446 . S
C745 C232 1.446 . S
C750 C176 1.446 . S
C755 C246 1.446 . S
C760 C190 1.446 . S
C765 C204 1.444 . S
C770 C218 1.444 . S
C775 C316 1.445 . S
C780 C260 1.446 . S
C785 C330 1.446 . S
C790 C274 1.446 . S
C795 C288 1.446 . S
C800 C302 1.446 . S
C805 C400 1.446 . S
C810 C344 1.445 . S
C815 C358 1.446 . S
C820 C414 1.446 . S
C825 C372 1.446 . S
C830 C386 1.446 . S
C835 C484 1.446 . S
C840 C428 1.445 . S
C845 C442 1.446 . S
C850 C498 1.446 . S
C855 C470 1.444 . S
C860 C456 1.444 . S
C865 C413 1.152 . S
C870 C7 1.152 . S
C875 C21 1.149 . S
C880 C385 1.151 . S
C885 C35 1.152 . S
C890 C399 1.152 . S
C895 C49 1.152 . S
C900 C189 1.150 . S
C905 C203 1.151 . S
C910 C63 1.150 . S
C915 C175 1.152 . S
C920 C77 1.152 . S
C925 C91 1.152 . S
C930 C329 1.152 . S
C935 C105 1.151 . S
C940 C301 1.149 . S
C945 C119 1.151 . S
C950 C315 1.150 . S
C955 C441 1.152 . S
C960 C133 1.152 . S
C965 C455 1.150 . S
C970 C147 1.152 . S
C975 C161 1.150 . S
C980 C427 1.150 . S
C985 C357 1.150 . S
C990 C217 1.152 . S
C995 C231 1.152 . S
C1000 C371 1.151 . S
C1005 C343 1.150 . S
C1010 C245 1.150 . S
C1015 C497 1.150 . S
C1020 C259 1.150 . S
C1025 C273 1.150 . S
C1030 C469 1.151 . S
C1035 C287 1.151 . S
C1040 C483 1.153 . S
C1045 C3 1.649 . S
C1050 C409 1.649 . S
C1055 C381 1.649 . S
C1060 C17 1.650 . S
C1065 C31 1.649 . S
C1070 C395 1.649 . S
C1075 C185 1.649 . S
C1080 C45 1.649 . S
C1085 C59 1.649 . S
C1090 C199 1.649 . S
C1095 C73 1.649 . S
C1100 C171 1.649 . S
C1105 C325 1.649 . S
C1110 C87 1.649 . S
C1115 C101 1.649 . S
C1120 C297 1.649 . S
C1125 C115 1.649 . S
C1130 C311 1.649 . S
C1135 C129 1.649 . S
C1140 C437 1.649 . S
C1145 C451 1.649 . S
C1150 C143 1.649 . S
C1155 C157 1.649 . S
C1160 C423 1.649 . S
C1165 C353 1.649 . S
C1170 C213 1.649 . S
C1175 C227 1.649 . S
C1180 C367 1.649 . S
C1185 C241 1.649 . S
C1190 C339 1.649 . S
C1195 C493 1.649 . S
C1200 C255 1.649 . S
C1205 C465 1.649 . S
C1210 C269 1.649 . S
C1215 C283 1.649 . S
C1220 C479 1.649 . S
