# Generated by pormake.
# Topology fna, (5)-cn, num edge types: 1
# Building blocks:
#     Node 0, Type 0, BuildingBlock: XOMCOT_clean_sbu_0, # of connection points: 5
#     Node 1, Type 0, BuildingBlock: XOMCOT_clean_sbu_0, # of connection points: 5
#     Node 2, Type 0, BuildingBlock: XOMCOT_clean_sbu_0, # of connection points: 5
#     Node 3, Type 0, BuildingBlock: XOMCOT_clean_sbu_0, # of connection points: 5
#     Node 4, Type 0, BuildingBlock: XOMCOT_clean_sbu_0, # of connection points: 5
#     Node 5, Type 0, BuildingBlock: XOMCOT_clean_sbu_0, # of connection points: 5
#     Node 6, Type 0, BuildingBlock: XOMCOT_clean_sbu_0, # of connection points: 5
#     Node 7, Type 0, BuildingBlock: XOMCOT_clean_sbu_0, # of connection points: 5
#     Node 8, Type 0, BuildingBlock: XOMCOT_clean_sbu_0, # of connection points: 5
#     Node 9, Type 0, BuildingBlock: XOMCOT_clean_sbu_0, # of connection points: 5
#     Node 10, Type 0, BuildingBlock: XOMCOT_clean_sbu_0, # of connection points: 5
#     Node 11, Type 0, BuildingBlock: XOMCOT_clean_sbu_0, # of connection points: 5
#     Edge 12, Type (0, 0), BuildingBlock: UVAHIK_clean_linker_0, # of connection points: 2
#     Edge 13, Type (0, 0), BuildingBlock: UVAHIK_clean_linker_0, # of connection points: 2
#     Edge 14, Type (0, 0), BuildingBlock: UVAHIK_clean_linker_0, # of connection points: 2
#     Edge 15, Type (0, 0), BuildingBlock: UVAHIK_clean_linker_0, # of connection points: 2
#     Edge 16, Type (0, 0), BuildingBlock: UVAHIK_clean_linker_0, # of connection points: 2
#     Edge 17, Type (0, 0), BuildingBlock: UVAHIK_clean_linker_0, # of connection points: 2
#     Edge 18, Type (0, 0), BuildingBlock: UVAHIK_clean_linker_0, # of connection points: 2
#     Edge 19, Type (0, 0), BuildingBlock: UVAHIK_clean_linker_0, # of connection points: 2
#     Edge 20, Type (0, 0), BuildingBlock: UVAHIK_clean_linker_0, # of connection points: 2
#     Edge 21, Type (0, 0), BuildingBlock: UVAHIK_clean_linker_0, # of connection points: 2
#     Edge 22, Type (0, 0), BuildingBlock: UVAHIK_clean_linker_0, # of connection points: 2
#     Edge 23, Type (0, 0), BuildingBlock: UVAHIK_clean_linker_0, # of connection points: 2
#     Edge 24, Type (0, 0), BuildingBlock: UVAHIK_clean_linker_0, # of connection points: 2
#     Edge 25, Type (0, 0), BuildingBlock: UVAHIK_clean_linker_0, # of connection points: 2
#     Edge 26, Type (0, 0), BuildingBlock: UVAHIK_clean_linker_0, # of connection points: 2
#     Edge 27, Type (0, 0), BuildingBlock: UVAHIK_clean_linker_0, # of connection points: 2
#     Edge 28, Type (0, 0), BuildingBlock: UVAHIK_clean_linker_0, # of connection points: 2
#     Edge 29, Type (0, 0), BuildingBlock: UVAHIK_clean_linker_0, # of connection points: 2
#     Edge 30, Type (0, 0), BuildingBlock: UVAHIK_clean_linker_0, # of connection points: 2
#     Edge 31, Type (0, 0), BuildingBlock: UVAHIK_clean_linker_0, # of connection points: 2
#     Edge 32, Type (0, 0), BuildingBlock: UVAHIK_clean_linker_0, # of connection points: 2
#     Edge 33, Type (0, 0), BuildingBlock: UVAHIK_clean_linker_0, # of connection points: 2
#     Edge 34, Type (0, 0), BuildingBlock: UVAHIK_clean_linker_0, # of connection points: 2
#     Edge 35, Type (0, 0), BuildingBlock: UVAHIK_clean_linker_0, # of connection points: 2
#     Edge 36, Type (0, 0), BuildingBlock: UVAHIK_clean_linker_0, # of connection points: 2
#     Edge 37, Type (0, 0), BuildingBlock: UVAHIK_clean_linker_0, # of connection points: 2
#     Edge 38, Type (0, 0), BuildingBlock: UVAHIK_clean_linker_0, # of connection points: 2
#     Edge 39, Type (0, 0), BuildingBlock: UVAHIK_clean_linker_0, # of connection points: 2
#     Edge 40, Type (0, 0), BuildingBlock: UVAHIK_clean_linker_0, # of connection points: 2
#     Edge 41, Type (0, 0), BuildingBlock: UVAHIK_clean_linker_0, # of connection points: 2
# Relax obj value: 0.321
# Max RMSD: 0.210
# Mean RMSD: 0.210
data_MOF--net-fna--node1-XOMCOT_clean_sbu_0--edge1-UVAHIK_clean_linker_0
_symmetry_space_group_name_H-M    P1
_symmetry_Int_Tables_number       1
_symmetry_cell_setting            triclinic
loop_
_symmetry_equiv_pos_as_xyz
'x, y, z'
_cell_length_a     57.572741
_cell_length_b     57.591285
_cell_length_c     57.302763
_cell_angle_alpha  89.967322
_cell_angle_beta   89.964918
_cell_angle_gamma 119.99436
loop_
_atom_site_label
_atom_site_type_symbol
_atom_site_fract_x
_atom_site_fract_y
_atom_site_fract_z
_atom_type_partial_charge
Co0 Co 0.3264 0.28692 0.4812 0.0
C1 C 0.31849 0.25468 0.43848 0.0
C2 C 0.2827 0.25503 0.44793 0.0
C3 C 0.2767 0.23681 0.43019 0.0
N4 N 0.30908 0.26668 0.45301 0.0
N5 N 0.2992 0.23648 0.42436 0.0
H6 H 0.33831 0.25708 0.43973 0.0
H7 H 0.26807 0.25751 0.45771 0.0
C8 C 0.28675 0.30685 0.47388 0.0
O9 O 0.29554 0.31551 0.45269 0.0
N10 N 0.34348 0.30605 0.50941 0.0
C11 C 0.3701 0.32081 0.51306 0.0
C12 C 0.37441 0.32906 0.53592 0.0
C13 C 0.3319 0.30513 0.53008 0.0
N14 N 0.3504 0.31915 0.54663 0.0
C15 C 0.36634 0.31993 0.44728 0.0
C16 C 0.37127 0.3678 0.46238 0.0
C17 C 0.38988 0.3685 0.44624 0.0
C18 C 0.38677 0.34413 0.43815 0.0
C19 C 0.35104 0.34323 0.47088 0.0
N20 N 0.3489 0.31963 0.46359 0.0
H21 H 0.36584 0.30165 0.44239 0.0
H22 H 0.33831 0.34337 0.48466 0.0
H23 H 0.38531 0.32467 0.50012 0.0
H24 H 0.31045 0.29405 0.53297 0.0
O25 O 0.34975 0.27155 0.48222 0.0
O26 O 0.30942 0.25412 0.49846 0.0
O27 O 0.2972 0.29599 0.48622 0.0
C28 C 0.331 0.25277 0.49502 0.0
H29 H 0.25693 0.22364 0.42314 0.0
H30 H 0.39378 0.34055 0.54423 0.0
H31 H 0.37298 0.38616 0.46913 0.0
H32 H 0.40105 0.3438 0.42604 0.0
Co33 Co 0.04297 0.32943 0.65156 0.0
C34 C 0.0668 0.31948 0.60947 0.0
C35 C 0.03235 0.28365 0.62159 0.0
C36 C 0.04453 0.27689 0.60435 0.0
N37 N 0.04594 0.31049 0.62459 0.0
N38 N 0.06631 0.29943 0.59683 0.0
H39 H 0.08364 0.33968 0.6094 0.0
H40 H 0.01615 0.26951 0.63254 0.0
C41 C 0.984 0.28928 0.64305 0.0
O42 O 0.98625 0.29486 0.62064 0.0
N43 N 0.04084 0.34807 0.67866 0.0
C44 C 0.05265 0.37483 0.6813 0.0
C45 C 0.04882 0.38021 0.70389 0.0
C46 C 0.0303 0.33749 0.69963 0.0
N47 N 0.03486 0.35673 0.71542 0.0
C48 C 0.05225 0.36954 0.61698 0.0
C49 C 0.00813 0.37401 0.62906 0.0
C50 C 0.02736 0.39309 0.61403 0.0
C51 C 0.04917 0.39019 0.60733 0.0
C52 C 0.01175 0.35353 0.63805 0.0
N53 N 0.03384 0.35167 0.63235 0.0
H54 H 0.07052 0.36939 0.61349 0.0
H55 H 0.99792 0.3407 0.65127 0.0
H56 H 0.064 0.38942 0.66792 0.0
H57 H 0.02011 0.31622 0.70331 0.0
O58 O 0.08178 0.35194 0.65295 0.0
O59 O 0.05766 0.31256 0.67047 0.0
O60 O 0.00424 0.30138 0.65652 0.0
C61 C 0.08098 0.33357 0.66683 0.0
H62 H 0.03871 0.25674 0.59882 0.0
H63 H 0.05678 0.39995 0.71149 0.0
H64 H 0.9911 0.37571 0.6348 0.0
H65 H 0.06476 0.40489 0.59612 0.0
Co66 Co 0.71294 0.03683 0.81612 0.0
C67 C 0.7484 0.06457 0.7756 0.0
C68 C 0.75881 0.03799 0.79275 0.0
C69 C 0.77804 0.05236 0.77619 0.0
N70 N 0.7399 0.04525 0.79215 0.0
N71 N 0.77162 0.06926 0.76548 0.0
H72 H 0.73876 0.07606 0.7719 0.0
H73 H 0.75945 0.02434 0.80537 0.0
C74 C 0.70328 0.98199 0.80101 0.0
O75 O 0.71075 0.98985 0.77942 0.0
N76 N 0.68681 0.02896 0.84051 0.0
C77 C 0.66748 0.03561 0.84135 0.0
C78 C 0.65571 0.02915 0.86304 0.0
C79 C 0.68665 0.01876 0.86171 0.0
N80 N 0.66795 0.01879 0.87602 0.0
C81 C 0.68643 0.05497 0.78499 0.0
C82 C 0.64153 0.00546 0.77759 0.0
C83 C 0.64083 0.0285 0.77077 0.0
C84 C 0.66413 0.05346 0.77383 0.0
C85 C 0.66404 0.00786 0.78902 0.0
N86 N 0.68604 0.03245 0.79307 0.0
H87 H 0.70299 0.07458 0.78905 0.0
H88 H 0.66243 0.98987 0.79619 0.0
H89 H 0.66281 0.04546 0.82763 0.0
H90 H 0.70102 0.01284 0.8668 0.0
O91 O 0.72896 0.0749 0.82316 0.0
O92 O 0.74021 0.04699 0.83937 0.0
O93 O 0.70203 0.99772 0.816 0.0
C94 C 0.74354 0.07096 0.8383 0.0
H95 H 0.79633 0.05174 0.77348 0.0
H96 H 0.63988 0.0327 0.86882 0.0
H97 H 0.62424 0.98568 0.77532 0.0
H98 H 0.66457 0.07193 0.76934 0.0
Co99 Co 0.68136 0.71571 0.9794 0.0
C100 C 0.68774 0.74779 0.93706 0.0
C101 C 0.72474 0.75004 0.94643 0.0
C102 C 0.72961 0.76792 0.92854 0.0
N103 N 0.69826 0.73677 0.95143 0.0
N104 N 0.70632 0.76664 0.92283 0.0
H105 H 0.6674 0.74388 0.93825 0.0
H106 H 0.74 0.74879 0.95639 0.0
C107 C 0.72133 0.69742 0.96859 0.0
O108 O 0.71516 0.69466 0.94631 0.0
N109 N 0.66466 0.69583 0.00741 0.0
C110 C 0.63815 0.68171 0.0117 0.0
C111 C 0.63437 0.67324 0.03452 0.0
C112 C 0.67672 0.696 0.02758 0.0
N113 N 0.65863 0.68228 0.04455 0.0
C114 C 0.63944 0.68336 0.94673 0.0
C115 C 0.63672 0.63554 0.95871 0.0
C116 C 0.61697 0.63497 0.94412 0.0
C117 C 0.6189 0.65931 0.93757 0.0
C118 C 0.6571 0.65999 0.96719 0.0
N119 N 0.65822 0.68358 0.96142 0.0
H120 H 0.63889 0.70142 0.94335 0.0
H121 H 0.67067 0.65958 0.97995 0.0
H122 H 0.62269 0.67862 0.99931 0.0
H123 H 0.69825 0.70649 0.0298 0.0
O124 O 0.65852 0.73152 0.98173 0.0
O125 O 0.69901 0.748 0.99738 0.0
O126 O 0.70986 0.70542 0.98292 0.0
C127 C 0.67756 0.74979 0.99461 0.0
H128 H 0.74914 0.78243 0.92177 0.0
H129 H 0.61518 0.66227 0.04323 0.0
H130 H 0.63575 0.61712 0.96436 0.0
H131 H 0.60361 0.65962 0.92678 0.0
Co132 Co 0.96654 0.67915 0.14955 0.0
C133 C 0.93877 0.68494 0.10825 0.0
C134 C 0.97154 0.72277 0.11903 0.0
C135 C 0.95826 0.72718 0.10111 0.0
N136 N 0.95987 0.69617 0.12307 0.0
N137 N 0.93757 0.70336 0.09451 0.0
H138 H 0.92353 0.66404 0.10842 0.0
H139 H 0.9875 0.73817 0.12936 0.0
C140 C 0.02356 0.72121 0.13583 0.0
O141 O 0.01848 0.71672 0.11343 0.0
N142 N 0.97248 0.66232 0.17613 0.0
C143 C 0.96251 0.63585 0.1794 0.0
C144 C 0.96809 0.63179 0.20186 0.0
C145 C 0.98373 0.67401 0.19657 0.0
N146 N 0.98129 0.65578 0.21268 0.0
C147 C 0.95231 0.63495 0.11859 0.0
C148 C 1.00098 0.63648 0.12068 0.0
C149 C 0.97905 0.614 0.11065 0.0
C150 C 0.95464 0.61385 0.10909 0.0
C151 C 0.99766 0.65686 0.13036 0.0
N152 N 0.9735 0.656 0.12939 0.0
H153 H 0.9327 0.63293 0.11912 0.0
H154 H 0.01407 0.67201 0.14035 0.0
H155 H 0.95085 0.62044 0.16676 0.0
H156 H 0.99262 0.69529 0.19975 0.0
O157 O 0.92819 0.6564 0.1545 0.0
O158 O 0.95366 0.69664 0.16997 0.0
O159 O 0.0055 0.70784 0.15101 0.0
C160 C 0.93022 0.67522 0.16843 0.0
H161 H 0.96227 0.7465 0.09464 0.0
H162 H 0.96151 0.61251 0.20996 0.0
H163 H 0.02033 0.63775 0.12221 0.0
H164 H 0.93686 0.59672 0.10213 0.0
Co165 Co 0.28992 0.96369 0.31484 0.0
C166 C 0.25726 0.93586 0.27322 0.0
C167 C 0.25853 0.97322 0.27867 0.0
C168 C 0.24146 0.96015 0.26033 0.0
N169 N 0.26902 0.95829 0.2865 0.0
N170 N 0.24057 0.93657 0.25706 0.0
H171 H 0.25971 0.91865 0.27599 0.0
H172 H 0.26122 0.99136 0.28662 0.0
C173 C 0.30846 0.02279 0.30504 0.0
O174 O 0.31754 0.02229 0.28412 0.0
N175 N 0.30995 0.96823 0.34303 0.0
C176 C 0.3257 0.95759 0.34729 0.0
C177 C 0.3347 0.96339 0.36989 0.0
C178 C 0.3092 0.98002 0.36307 0.0
N179 N 0.32428 0.97743 0.37981 0.0
C180 C 0.32269 0.95458 0.28275 0.0
C181 C 0.37034 1.00037 0.29358 0.0
C182 C 0.37122 0.98074 0.27969 0.0
C183 C 0.34678 0.95785 0.27392 0.0
C184 C 0.34588 0.99604 0.30244 0.0
N185 N 0.32236 0.97336 0.29702 0.0
H186 H 0.30455 0.93593 0.2795 0.0
H187 H 0.34618 0.01018 0.31496 0.0
H188 H 0.32978 0.94584 0.33499 0.0
H189 H 0.29753 0.98986 0.3654 0.0
O190 O 0.27566 0.92529 0.31782 0.0
O191 O 0.25736 0.94802 0.33265 0.0
O192 O 0.29789 1.00188 0.3179 0.0
C193 C 0.25674 0.92528 0.33035 0.0
H194 H 0.22917 0.9666 0.25126 0.0
H195 H 0.34708 0.95681 0.37861 0.0
H196 H 0.38849 0.01854 0.29844 0.0
H197 H 0.3462 0.94167 0.26386 0.0
Co198 Co 0.71842 0.67356 0.35495 0.0
C199 C 0.74961 0.68008 0.39776 0.0
C200 C 0.74674 0.71517 0.39156 0.0
C201 C 0.76413 0.72019 0.40992 0.0
N202 N 0.73721 0.68976 0.38406 0.0
N203 N 0.76609 0.69814 0.41359 0.0
H204 H 0.74801 0.66073 0.39533 0.0
H205 H 0.74347 0.73006 0.38317 0.0
C206 C 0.6982 0.71343 0.36021 0.0
O207 O 0.6877 0.70432 0.38089 0.0
N208 N 0.70072 0.65735 0.326 0.0
C209 C 0.68668 0.6308 0.32176 0.0
C210 C 0.68068 0.62696 0.29839 0.0
C211 C 0.7032 0.66939 0.30524 0.0
N212 N 0.69115 0.65119 0.28807 0.0
C213 C 0.68356 0.63429 0.38841 0.0
C214 C 0.63651 0.62909 0.37067 0.0
C215 C 0.63498 0.61097 0.38776 0.0
C216 C 0.65891 0.61422 0.39713 0.0
C217 C 0.66151 0.64902 0.36264 0.0
N218 N 0.68469 0.65127 0.37125 0.0
H219 H 0.70159 0.63501 0.39449 0.0
H220 H 0.66214 0.66157 0.34835 0.0
H221 H 0.68199 0.61534 0.33465 0.0
H222 H 0.71477 0.69085 0.30257 0.0
O223 O 0.73287 0.64945 0.35468 0.0
O224 O 0.75224 0.6902 0.33906 0.0
O225 O 0.71037 0.70335 0.34924 0.0
C226 C 0.75268 0.66816 0.3427 0.0
H227 H 0.77618 0.73931 0.41849 0.0
H228 H 0.66991 0.60783 0.28957 0.0
H229 H 0.6185 0.62727 0.36295 0.0
H230 H 0.65862 0.60033 0.41005 0.0
Co231 Co 0.04455 0.71815 0.52229 0.0
C232 C 0.07138 0.75143 0.56375 0.0
C233 C 0.03623 0.75324 0.555 0.0
C234 C 0.04945 0.77123 0.57274 0.0
N235 N 0.04954 0.74015 0.54974 0.0
N236 N 0.07168 0.77019 0.57807 0.0
H237 H 0.08789 0.74764 0.56236 0.0
H238 H 0.0194 0.75171 0.54538 0.0
C239 C 0.98622 0.70066 0.53334 0.0
O240 O 0.98934 0.69832 0.55577 0.0
N241 N 0.04052 0.69721 0.49482 0.0
C242 C 0.05169 0.68182 0.49122 0.0
C243 C 0.04656 0.67257 0.46865 0.0
C244 C 0.02903 0.69746 0.47444 0.0
N245 N 0.03239 0.68249 0.45809 0.0
C246 C 0.05496 0.68669 0.55533 0.0
C247 C 0.00924 0.63869 0.54504 0.0
C248 C 0.02903 0.63837 0.55896 0.0
C249 C 0.05174 0.66282 0.56473 0.0
C250 C 0.01304 0.66296 0.5363 0.0
N251 N 0.03588 0.68663 0.54114 0.0
H252 H 0.07376 0.70481 0.55803 0.0
H253 H 0.99859 0.66226 0.52393 0.0
H254 H 0.06353 0.67833 0.50389 0.0
H255 H 0.01901 0.70887 0.47157 0.0
O256 O 0.08318 0.7338 0.5191 0.0
O257 O 0.05876 0.74977 0.5034 0.0
O258 O 0.00577 0.70804 0.51916 0.0
C259 C 0.08204 0.75158 0.50575 0.0
H260 H 0.04436 0.78558 0.57974 0.0
H261 H 0.0538 0.66052 0.46037 0.0
H262 H 0.99152 0.62017 0.54001 0.0
H263 H 0.06776 0.66332 0.57501 0.0
Co264 Co 0.32958 0.04334 0.68859 0.0
C265 C 0.32264 0.06998 0.73001 0.0
C266 C 0.28554 0.0357 0.72004 0.0
C267 C 0.28051 0.04885 0.73769 0.0
N268 N 0.31214 0.04847 0.71563 0.0
N269 N 0.30387 0.07052 0.74376 0.0
H270 H 0.34313 0.08616 0.72924 0.0
H271 H 0.27042 0.01928 0.70991 0.0
C272 C 0.28905 0.98532 0.70103 0.0
O273 O 0.29329 0.98952 0.72355 0.0
N274 N 0.34676 0.03897 0.66147 0.0
C275 C 0.37332 0.05001 0.65786 0.0
C276 C 0.37742 0.04524 0.63515 0.0
C277 C 0.33504 0.02788 0.64099 0.0
N278 N 0.35335 0.03146 0.62452 0.0
C279 C 0.37356 0.0578 0.71977 0.0
C280 C 0.37523 0.01091 0.71488 0.0
C281 C 0.3966 0.03285 0.72594 0.0
C282 C 0.39521 0.05625 0.72893 0.0
C283 C 0.35405 0.01336 0.70575 0.0
N284 N 0.35344 0.0367 0.70805 0.0
H285 H 0.37437 0.07684 0.72038 0.0
H286 H 0.33959 0.99724 0.69503 0.0
H287 H 0.38868 0.06179 0.67051 0.0
H288 H 0.31364 0.01823 0.63808 0.0
O289 O 0.35141 0.08189 0.68457 0.0
O290 O 0.31124 0.05606 0.66902 0.0
O291 O 0.30187 0.00416 0.68635 0.0
C292 C 0.3322 0.07977 0.67112 0.0
H293 H 0.26094 0.04419 0.74408 0.0
H294 H 0.39673 0.0527 0.6268 0.0
H295 H 0.37587 0.9927 0.71165 0.0
H296 H 0.41143 0.07375 0.73723 0.0
Co297 Co 0.28904 0.32966 0.85587 0.0
C298 C 0.25743 0.32407 0.89844 0.0
C299 C 0.25453 0.28676 0.88918 0.0
C300 C 0.23706 0.2823 0.90732 0.0
N301 N 0.26799 0.31318 0.88396 0.0
N302 N 0.23876 0.30578 0.91298 0.0
H303 H 0.26162 0.34451 0.89722 0.0
H304 H 0.25537 0.27127 0.87925 0.0
C305 C 0.30594 0.28838 0.86598 0.0
O306 O 0.30918 0.29424 0.88832 0.0
N307 N 0.30892 0.34587 0.82772 0.0
C308 C 0.32454 0.37229 0.82354 0.0
C309 C 0.33321 0.37566 0.80077 0.0
C310 C 0.30796 0.3335 0.80752 0.0
N311 N 0.32271 0.35126 0.79071 0.0
C312 C 0.32246 0.37087 0.88862 0.0
C313 C 0.36953 0.37229 0.87604 0.0
C314 C 0.37082 0.39227 0.89077 0.0
C315 C 0.34686 0.39097 0.89765 0.0
C316 C 0.34475 0.35237 0.86769 0.0
N317 N 0.32155 0.35196 0.87371 0.0
H318 H 0.30468 0.37189 0.89229 0.0
H319 H 0.34462 0.33866 0.8548 0.0
H320 H 0.32874 0.388 0.83601 0.0
H321 H 0.29637 0.312 0.80516 0.0
O322 O 0.27443 0.35354 0.85384 0.0
O323 O 0.25651 0.31296 0.8381 0.0
O324 O 0.2981 0.30034 0.85204 0.0
C325 C 0.25563 0.33487 0.84108 0.0
H326 H 0.22254 0.26293 0.91435 0.0
H327 H 0.34545 0.39467 0.79207 0.0
H328 H 0.38765 0.37277 0.87015 0.0
H329 H 0.3471 0.40643 0.90859 0.0
Co330 Co 0.96742 0.29159 0.0228 0.0
C331 C 0.93959 0.25599 0.06302 0.0
C332 C 0.97201 0.2511 0.05078 0.0
C333 C 0.95825 0.23205 0.06769 0.0
N334 N 0.96079 0.26668 0.04826 0.0
N335 N 0.93774 0.23505 0.07521 0.0
H336 H 0.92465 0.26202 0.06376 0.0
H337 H 0.98793 0.25224 0.03996 0.0
C338 C 0.02431 0.30705 0.03765 0.0
O339 O 0.01808 0.30297 0.0599 0.0
N340 N 0.97339 0.31556 0.99713 0.0
C341 C 0.96259 0.33138 0.9941 0.0
C342 C 0.96873 0.34206 0.97197 0.0
C343 C 0.98574 0.31661 0.97688 0.0
N344 N 0.98312 0.33259 0.96111 0.0
C345 C 0.94883 0.31804 0.05353 0.0
C346 C 0.99662 0.36614 0.05566 0.0
C347 C 0.97328 0.36493 0.06426 0.0
C348 C 0.94931 0.34031 0.06371 0.0
C349 C 0.99522 0.34349 0.04535 0.0
N350 N 0.97147 0.31978 0.04414 0.0
H351 H 0.92965 0.30019 0.05133 0.0
H352 H 0.01288 0.34609 0.03655 0.0
H353 H 0.94996 0.33392 0.0066 0.0
H354 H 0.99551 0.30505 0.97354 0.0
O355 O 0.92911 0.27406 0.01662 0.0
O356 O 0.9574 0.26286 0.00105 0.0
O357 O 0.00692 0.30412 0.02239 0.0
C358 C 0.93318 0.25897 0.00219 0.0
H359 H 0.96176 0.21593 0.07271 0.0
H360 H 0.96172 0.35449 0.96405 0.0
H361 H 0.0154 0.38497 0.05519 0.0
H362 H 0.93077 0.33861 0.06997 0.0
Co363 Co 0.67662 0.96269 0.18478 0.0
C364 C 0.68619 0.93613 0.2252 0.0
C365 C 0.72269 0.96705 0.21017 0.0
C366 C 0.72895 0.95313 0.22604 0.0
N367 N 0.69587 0.95679 0.20984 0.0
N368 N 0.70597 0.93353 0.23536 0.0
H369 H 0.66523 0.92144 0.22709 0.0
H370 H 0.73666 0.98213 0.19824 0.0
C371 C 0.71951 0.0195 0.19758 0.0
O372 O 0.71767 0.01373 0.21992 0.0
N373 N 0.65785 0.96801 0.15934 0.0
C374 C 0.6314 0.95941 0.15777 0.0
C375 C 0.62598 0.96451 0.13556 0.0
C376 C 0.66808 0.97786 0.13812 0.0
N377 N 0.64903 0.9759 0.12323 0.0
C378 C 0.63365 0.94686 0.21741 0.0
C379 C 0.6342 0.99514 0.21792 0.0
C380 C 0.61236 0.97253 0.22779 0.0
C381 C 0.6126 0.94835 0.22805 0.0
C382 C 0.65466 0.99271 0.2071 0.0
N383 N 0.65413 0.96868 0.20664 0.0
H384 H 0.63201 0.92747 0.21602 0.0
H385 H 0.6694 0.00968 0.19732 0.0
H386 H 0.61682 0.94908 0.1714 0.0
H387 H 0.68888 0.98546 0.13348 0.0
O388 O 0.65461 0.92421 0.18021 0.0
O389 O 0.69368 0.95062 0.16303 0.0
O390 O 0.70435 1.00193 0.18273 0.0
C391 C 0.67309 0.92678 0.16558 0.0
H392 H 0.74877 0.9561 0.22931 0.0
H393 H 0.60637 0.95889 0.12863 0.0
H394 H 0.63439 0.01402 0.21687 0.0
H395 H 0.5959 0.93035 0.23529 0.0
C396 C 0.31223 0.10009 0.64563 0.0
C397 C 0.33497 0.10214 0.65659 0.0
C398 C 0.31483 0.11903 0.62913 0.0
C399 C 0.36182 0.16567 0.58613 0.0
H400 H 0.30951 0.18918 0.58244 0.0
C401 C 0.3606 0.23941 0.51609 0.0
C402 C 0.33498 0.23313 0.50828 0.0
C403 C 0.36334 0.22399 0.53366 0.0
C404 C 0.32415 0.18262 0.58312 0.0
H405 H 0.37824 0.12601 0.65944 0.0
H406 H 0.38281 0.15936 0.63039 0.0
H407 H 0.30966 0.16363 0.61619 0.0
H408 H 0.29246 0.20461 0.51092 0.0
H409 H 0.29723 0.17744 0.54097 0.0
H410 H 0.37602 0.18452 0.55274 0.0
C411 C 0.363 0.14298 0.63459 0.0
C412 C 0.3243 0.16808 0.6025 0.0
C413 C 0.36035 0.12408 0.65136 0.0
C414 C 0.31243 0.21001 0.5168 0.0
C415 C 0.31515 0.19462 0.53416 0.0
C416 C 0.3617 0.18032 0.56664 0.0
C417 C 0.34025 0.14039 0.62308 0.0
C418 C 0.34269 0.15888 0.60399 0.0
C419 C 0.34047 0.20212 0.54353 0.0
C420 C 0.34237 0.18831 0.5647 0.0
H421 H 0.29242 0.08335 0.64928 0.0
H422 H 0.29694 0.11628 0.62041 0.0
H423 H 0.37613 0.15868 0.58674 0.0
H424 H 0.37829 0.2573 0.50992 0.0
H425 H 0.38311 0.23016 0.54051 0.0
C426 C 0.10315 0.31528 0.69181 0.0
C427 C 0.1041 0.33756 0.6809 0.0
C428 C 0.12111 0.31875 0.70953 0.0
C429 C 0.18436 0.3651 0.73841 0.0
H430 H 0.14841 0.32019 0.79209 0.0
C431 C 0.24179 0.365 0.82161 0.0
C432 C 0.23601 0.3391 0.82804 0.0
C433 C 0.22541 0.36846 0.80556 0.0
C434 C 0.15875 0.33289 0.77727 0.0
H435 H 0.12574 0.38094 0.67879 0.0
H436 H 0.15758 0.38705 0.70995 0.0
H437 H 0.12221 0.31923 0.7584 0.0
H438 H 0.20797 0.29666 0.82388 0.0
H439 H 0.1793 0.30261 0.79632 0.0
H440 H 0.22105 0.37816 0.7572 0.0
C441 C 0.1428 0.36692 0.70472 0.0
C442 C 0.14378 0.33227 0.75795 0.0
C443 C 0.12471 0.36342 0.68682 0.0
C444 C 0.21286 0.31685 0.81925 0.0
C445 C 0.19639 0.32028 0.80351 0.0
C446 C 0.19943 0.36568 0.75783 0.0
C447 C 0.1404 0.34458 0.71684 0.0
C448 C 0.15648 0.34773 0.73804 0.0
C449 C 0.20281 0.34607 0.79603 0.0
C450 C 0.1868 0.34898 0.77717 0.0
H451 H 0.08761 0.2951 0.68744 0.0
H452 H 0.11927 0.30115 0.71815 0.0
H453 H 0.19462 0.37728 0.72332 0.0
H454 H 0.25969 0.38249 0.82801 0.0
H455 H 0.23071 0.38856 0.80021 0.0
C456 C 0.76947 0.11886 0.85208 0.0
C457 C 0.76179 0.09171 0.85482 0.0
C458 C 0.78707 0.13798 0.86811 0.0
C459 C 0.81444 0.17182 0.91188 0.0
H460 H 0.87178 0.161 0.93456 0.0
C461 C 0.88538 0.2333 0.98829 0.0
C462 C 0.91235 0.24007 0.98604 0.0
C463 C 0.86625 0.216 0.97215 0.0
C464 C 0.85608 0.16455 0.92829 0.0
H465 H 0.76544 0.06311 0.87697 0.0
H466 H 0.79527 0.09596 0.90487 0.0
H467 H 0.84072 0.13059 0.90584 0.0
H468 H 0.94059 0.23481 0.96478 0.0
H469 H 0.9077 0.20545 0.93663 0.0
H470 H 0.83064 0.2065 0.93399 0.0
C471 C 0.7886 0.10284 0.89009 0.0
C472 C 0.838 0.14685 0.912 0.0
C473 C 0.77138 0.08395 0.87408 0.0
C474 C 0.91989 0.22959 0.96728 0.0
C475 C 0.90096 0.21266 0.95112 0.0
C476 C 0.83278 0.18978 0.92816 0.0
C477 C 0.79705 0.13014 0.88716 0.0
C478 C 0.8168 0.15006 0.90373 0.0
C479 C 0.87386 0.20539 0.95343 0.0
C480 C 0.85383 0.18632 0.93653 0.0
H481 H 0.76223 0.12534 0.83743 0.0
H482 H 0.7933 0.15889 0.86532 0.0
H483 H 0.79822 0.17474 0.90597 0.0
H484 H 0.87907 0.24124 0.00254 0.0
H485 H 0.84549 0.21063 0.97453 0.0
C486 C 0.69659 0.79147 0.0181 0.0
C487 C 0.67401 0.76942 0.00832 0.0
C488 C 0.69361 0.80713 0.03503 0.0
C489 C 0.64646 0.82411 0.06336 0.0
H490 H 0.6955 0.8409 0.11534 0.0
C491 C 0.64513 0.88234 0.14599 0.0
C492 C 0.67041 0.90444 0.15112 0.0
C493 C 0.64278 0.86304 0.1298 0.0
C494 C 0.68166 0.83635 0.10096 0.0
H495 H 0.63056 0.74736 0.00748 0.0
H496 H 0.6253 0.77483 0.03737 0.0
H497 H 0.69663 0.81401 0.0831 0.0
H498 H 0.71305 0.92326 0.14417 0.0
H499 H 0.70904 0.88953 0.11641 0.0
H500 H 0.63176 0.84686 0.08138 0.0
C501 C 0.64531 0.78002 0.03181 0.0
C502 C 0.6824 0.8211 0.08242 0.0
C503 C 0.64831 0.76437 0.01466 0.0
C504 C 0.69331 0.90641 0.14055 0.0
C505 C 0.69102 0.88704 0.12472 0.0
C506 C 0.64567 0.83938 0.08204 0.0
C507 C 0.66798 0.80095 0.04276 0.0
C508 C 0.66534 0.81541 0.06311 0.0
C509 C 0.66574 0.86539 0.11889 0.0
C510 C 0.66374 0.84617 0.10073 0.0
H511 H 0.71665 0.79598 0.01336 0.0
H512 H 0.71148 0.82361 0.04264 0.0
H513 H 0.63304 0.81999 0.04874 0.0
H514 H 0.62714 0.8805 0.15379 0.0
H515 H 0.62307 0.84646 0.12567 0.0
C516 C 0.91153 0.69294 0.19804 0.0
C517 C 0.90851 0.67128 0.18451 0.0
C518 C 0.89391 0.68884 0.21631 0.0
C519 C 0.82791 0.64259 0.24153 0.0
H520 H 0.86208 0.68137 0.2983 0.0
C521 C 0.76661 0.63819 0.32323 0.0
C522 C 0.77295 0.66383 0.33095 0.0
C523 C 0.78372 0.63515 0.30769 0.0
C524 C 0.85225 0.67035 0.28261 0.0
H525 H 0.88381 0.62851 0.17872 0.0
H526 H 0.8527 0.62133 0.2108 0.0
H527 H 0.88957 0.68393 0.26497 0.0
H528 H 0.80268 0.70608 0.32988 0.0
H529 H 0.83266 0.70081 0.3033 0.0
H530 H 0.7905 0.6296 0.25911 0.0
C531 C 0.86881 0.64148 0.20719 0.0
C532 C 0.86796 0.67192 0.26348 0.0
C533 C 0.88654 0.6456 0.1888 0.0
C534 C 0.79737 0.68609 0.32421 0.0
C535 C 0.81457 0.68303 0.30903 0.0
C536 C 0.81213 0.64102 0.26074 0.0
C537 C 0.87285 0.66298 0.22157 0.0
C538 C 0.85596 0.65873 0.2425 0.0
C539 C 0.80757 0.65766 0.30003 0.0
C540 C 0.82415 0.65551 0.28125 0.0
H541 H 0.92814 0.71301 0.19506 0.0
H542 H 0.89713 0.70593 0.22667 0.0
H543 H 0.81811 0.63221 0.2256 0.0
H544 H 0.74773 0.62074 0.328 0.0
H545 H 0.77793 0.61534 0.30115 0.0
C546 C 0.21409 0.90091 0.35255 0.0
C547 C 0.23721 0.90167 0.34376 0.0
C548 C 0.19758 0.88113 0.36841 0.0
C549 C 0.20014 0.83852 0.4142 0.0
H550 H 0.12292 0.80773 0.41322 0.0
C551 C 0.10319 0.79144 0.47987 0.0
C552 C 0.10466 0.7705 0.49099 0.0
C553 C 0.12101 0.80601 0.46202 0.0
C554 C 0.14449 0.81628 0.41381 0.0
H555 H 0.26081 0.88186 0.34402 0.0
H556 H 0.23177 0.84706 0.37201 0.0
H557 H 0.14946 0.83338 0.37978 0.0
H558 H 0.12699 0.74945 0.49323 0.0
H559 H 0.15851 0.77525 0.46186 0.0
H560 H 0.19501 0.82171 0.44858 0.0
C561 C 0.22653 0.86187 0.36657 0.0
C562 C 0.15966 0.83087 0.39462 0.0
C563 C 0.24295 0.88158 0.3504 0.0
C564 C 0.12552 0.76561 0.48502 0.0
C565 C 0.14345 0.78027 0.46702 0.0
C566 C 0.18488 0.8238 0.43349 0.0
C567 C 0.20392 0.86175 0.37602 0.0
C568 C 0.18771 0.84279 0.39484 0.0
C569 C 0.14068 0.79994 0.45479 0.0
C570 C 0.15697 0.81323 0.43372 0.0
H571 H 0.20922 0.91618 0.34778 0.0
H572 H 0.1805 0.8818 0.37554 0.0
H573 H 0.22176 0.84762 0.41493 0.0
H574 H 0.08748 0.79584 0.48425 0.0
H575 H 0.11884 0.82155 0.45335 0.0
C576 C 0.32488 0.22437 0.39708 0.0
C577 C 0.30114 0.21736 0.40939 0.0
C578 C 0.32682 0.20553 0.38294 0.0
C579 C 0.28435 0.13839 0.35494 0.0
H580 H 0.35094 0.13696 0.35259 0.0
C581 C 0.29007 0.0446 0.33089 0.0
C582 C 0.30877 0.04715 0.31382 0.0
C583 C 0.29013 0.06717 0.33979 0.0
C584 C 0.33233 0.13737 0.35286 0.0
H585 H 0.26112 0.18484 0.41702 0.0
H586 H 0.2646 0.15197 0.39312 0.0
H587 H 0.34918 0.17291 0.37376 0.0
H588 H 0.34238 0.07551 0.29282 0.0
H589 H 0.34297 0.11539 0.30906 0.0
H590 H 0.26726 0.10203 0.33507 0.0
C591 C 0.2815 0.17221 0.39353 0.0
C592 C 0.33128 0.158 0.36493 0.0
C593 C 0.27948 0.19108 0.40737 0.0
C594 C 0.32766 0.07293 0.30588 0.0
C595 C 0.32808 0.0957 0.31522 0.0
C596 C 0.28532 0.11761 0.34324 0.0
C597 C 0.30514 0.17911 0.381 0.0
C598 C 0.30711 0.15853 0.36651 0.0
C599 C 0.30919 0.09295 0.33217 0.0
C600 C 0.30919 0.11665 0.34238 0.0
H601 H 0.34185 0.24453 0.39822 0.0
H602 H 0.34525 0.21178 0.37339 0.0
H603 H 0.26556 0.13843 0.35511 0.0
H604 H 0.27519 0.02504 0.33735 0.0
H605 H 0.27549 0.06449 0.35297 0.0
C606 C 0.25548 0.32572 0.47503 0.0
C607 C 0.26323 0.30767 0.48349 0.0
C608 C 0.23339 0.3263 0.48481 0.0
C609 C 0.17042 0.2841 0.51566 0.0
H610 H 0.17795 0.3492 0.5427 0.0
C611 C 0.09301 0.28021 0.58102 0.0
C612 C 0.0872 0.30116 0.58171 0.0
C613 C 0.11366 0.28203 0.56692 0.0
C614 C 0.17525 0.33092 0.53486 0.0
H615 H 0.25361 0.27583 0.50857 0.0
H616 H 0.21498 0.27645 0.52503 0.0
H617 H 0.21536 0.35076 0.52105 0.0
H618 H 0.0984 0.34039 0.56796 0.0
H619 H 0.13415 0.3434 0.54275 0.0
H620 H 0.13045 0.26413 0.52906 0.0
C621 C 0.22604 0.29029 0.51104 0.0
C622 C 0.19675 0.33186 0.52251 0.0
C623 C 0.24829 0.29006 0.50166 0.0
C624 C 0.10253 0.324 0.56786 0.0
C625 C 0.12307 0.32572 0.55349 0.0
C626 C 0.14886 0.28321 0.52767 0.0
C627 C 0.21836 0.3084 0.50279 0.0
C628 C 0.19472 0.30832 0.51328 0.0
C629 C 0.12895 0.30473 0.55284 0.0
C630 C 0.15115 0.30644 0.538 0.0
H631 H 0.26667 0.33958 0.46111 0.0
H632 H 0.22783 0.34045 0.47814 0.0
H633 H 0.16821 0.26572 0.50845 0.0
H634 H 0.08204 0.26261 0.59185 0.0
H635 H 0.11795 0.26576 0.56749 0.0
C636 C 0.80753 0.08857 0.73557 0.0
C637 C 0.78829 0.09046 0.74933 0.0
C638 C 0.8253 0.10997 0.72144 0.0
C639 C 0.85603 0.18349 0.71671 0.0
H640 H 0.88292 0.17317 0.65786 0.0
C641 C 0.95586 0.26418 0.67746 0.0
C642 C 0.9584 0.26786 0.65312 0.0
C643 C 0.93265 0.24323 0.68732 0.0
C644 C 0.87539 0.17647 0.67411 0.0
H645 H 0.77235 0.11643 0.7583 0.0
H646 H 0.80281 0.15335 0.7333 0.0
H647 H 0.84617 0.13479 0.67763 0.0
H648 H 0.93812 0.25252 0.62009 0.0
H649 H 0.89728 0.21579 0.63742 0.0
H650 H 0.88516 0.2251 0.71323 0.0
C651 C 0.80445 0.13542 0.73374 0.0
C652 C 0.85452 0.1544 0.6856 0.0
C653 C 0.7867 0.11403 0.7479 0.0
C654 C 0.93683 0.25027 0.63889 0.0
C655 C 0.91351 0.22912 0.64881 0.0
C656 C 0.87684 0.2055 0.70524 0.0
C657 C 0.8243 0.13387 0.72062 0.0
C658 C 0.84486 0.15755 0.70726 0.0
C659 C 0.91122 0.22528 0.67317 0.0
C660 C 0.88716 0.20223 0.68401 0.0
H661 H 0.80914 0.07064 0.73594 0.0
H662 H 0.84043 0.10807 0.71177 0.0
H663 H 0.84936 0.18674 0.73344 0.0
H664 H 0.97201 0.2773 0.68902 0.0
H665 H 0.93184 0.24069 0.70608 0.0
C666 C 0.71113 0.94288 0.7988 0.0
C667 C 0.69822 0.95548 0.80919 0.0
C668 C 0.70976 0.92014 0.80917 0.0
C669 C 0.69669 0.88711 0.86722 0.0
H670 H 0.69795 0.82963 0.83311 0.0
C671 C 0.6844 0.79315 0.91371 0.0
C672 C 0.70307 0.78508 0.908 0.0
C673 C 0.68246 0.81235 0.90025 0.0
C674 C 0.69774 0.84565 0.84283 0.0
H675 H 0.67215 0.95308 0.83753 0.0
H676 H 0.66879 0.91304 0.85495 0.0
H677 H 0.69591 0.86539 0.81172 0.0
H678 H 0.73376 0.79029 0.88326 0.0
H679 H 0.7303 0.8239 0.85957 0.0
H680 H 0.69828 0.86733 0.89827 0.0
C681 C 0.68089 0.92115 0.83938 0.0
C682 C 0.69663 0.86617 0.8306 0.0
C683 C 0.68259 0.94399 0.82926 0.0
C684 C 0.71931 0.79623 0.88814 0.0
C685 C 0.71717 0.81528 0.8745 0.0
C686 C 0.69753 0.86654 0.87938 0.0
C687 C 0.69518 0.90941 0.82997 0.0
C688 C 0.69601 0.88716 0.84266 0.0
C689 C 0.699 0.82385 0.88064 0.0
C690 C 0.69802 0.84554 0.86737 0.0
H691 H 0.72348 0.9514 0.78342 0.0
H692 H 0.72114 0.91178 0.80145 0.0
H693 H 0.69703 0.90325 0.87717 0.0
H694 H 0.67184 0.7853 0.92904 0.0
H695 H 0.66812 0.81837 0.90532 0.0
C696 C 0.76544 0.69891 0.96409 0.0
C697 C 0.74264 0.69264 0.97755 0.0
C698 C 0.78695 0.69739 0.97393 0.0
C699 C 0.80593 0.66653 0.0203 0.0
H700 H 0.8738 0.73315 0.02248 0.0
C701 C 0.88948 0.68127 0.0844 0.0
C702 C 0.91637 0.6992 0.07872 0.0
C703 C 0.86879 0.67863 0.06986 0.0
C704 C 0.85528 0.71414 0.02166 0.0
H705 H 0.72383 0.6787 0.01137 0.0
H706 H 0.76091 0.67513 0.0282 0.0
H707 H 0.83674 0.73073 6e-05 0.0
H708 H 0.94282 0.72767 0.05305 0.0
H709 H 0.90693 0.72223 0.02696 0.0
H710 H 0.82427 0.6496 0.04144 0.0
C711 C 0.76234 0.68155 0.01022 0.0
C712 C 0.83399 0.71286 0.00884 0.0
C713 C 0.7412 0.68369 0.00062 0.0
C714 C 0.92221 0.71389 0.05788 0.0
C715 C 0.90156 0.71086 0.04306 0.0
C716 C 0.82737 0.66761 0.03272 0.0
C717 C 0.78564 0.6889 0.99716 0.0
C718 C 0.80898 0.68921 0.00841 0.0
C719 C 0.87446 0.69349 0.04898 0.0
C720 C 0.85224 0.69161 0.03403 0.0
H721 H 0.76713 0.70605 0.94634 0.0
H722 H 0.80474 0.70315 0.96352 0.0
H723 H 0.78685 0.648 0.02011 0.0
H724 H 0.88442 0.67002 0.10056 0.0
H725 H 0.84832 0.6655 0.07545 0.0
C726 C 0.21095 0.8883 0.24892 0.0
C727 C 0.22258 0.91517 0.24181 0.0
C728 C 0.19225 0.86763 0.23475 0.0
C729 C 0.14562 0.85516 0.18514 0.0
H730 H 0.13873 0.78467 0.18676 0.0
C731 C 0.06622 0.7653 0.13059 0.0
C732 C 0.0501 0.74245 0.14417 0.0
C733 C 0.08982 0.78658 0.1399 0.0
C734 C 0.14048 0.80428 0.18609 0.0
H735 H 0.22439 0.9414 0.21395 0.0
H736 H 0.19242 0.90536 0.18878 0.0
H737 H 0.17548 0.82171 0.2076 0.0
H738 H 0.04664 0.72344 0.17769 0.0
H739 H 0.08797 0.76015 0.19361 0.0
H740 H 0.11057 0.83752 0.16347 0.0
C741 C 0.19709 0.90018 0.20561 0.0
C742 C 0.16143 0.82552 0.19818 0.0
C743 C 0.21553 0.92088 0.21996 0.0
C744 C 0.0586 0.74082 0.16681 0.0
C745 C 0.08234 0.76179 0.1759 0.0
C746 C 0.12488 0.83398 0.17278 0.0
C747 C 0.18492 0.87324 0.2129 0.0
C748 C 0.16399 0.85116 0.19831 0.0
C749 C 0.09797 0.7851 0.16274 0.0
C750 C 0.12178 0.80821 0.17351 0.0
H751 H 0.21559 0.88328 0.26583 0.0
H752 H 0.18299 0.84729 0.2413 0.0
H753 H 0.14657 0.87441 0.18503 0.0
H754 H 0.06008 0.76716 0.11315 0.0
H755 H 0.10156 0.80431 0.12935 0.0
C756 C 0.94341 0.70218 0.53697 0.0
C757 C 0.96038 0.69619 0.52389 0.0
C758 C 0.92086 0.7012 0.52654 0.0
C759 C 0.89446 0.70238 0.46729 0.0
H760 H 0.82843 0.68295 0.50038 0.0
C761 C 0.79847 0.68241 0.41958 0.0
C762 C 0.78575 0.69624 0.42781 0.0
C763 C 0.81873 0.6819 0.43258 0.0
C764 C 0.84685 0.68857 0.491 0.0
H765 H 0.96617 0.68275 0.4902 0.0
H766 H 0.9265 0.67974 0.47245 0.0
H767 H 0.86525 0.68189 0.52081 0.0
H768 H 0.78385 0.71981 0.45637 0.0
H769 H 0.81917 0.71851 0.47946 0.0
H770 H 0.87579 0.70836 0.43738 0.0
C771 C 0.93099 0.6864 0.49038 0.0
C772 C 0.868 0.68806 0.5027 0.0
C773 C 0.95365 0.68786 0.50064 0.0
C774 C 0.79337 0.70907 0.44962 0.0
C775 C 0.81342 0.70819 0.46285 0.0
C776 C 0.87325 0.7025 0.45559 0.0
C777 C 0.91467 0.69382 0.50291 0.0
C778 C 0.89206 0.69475 0.49092 0.0
C779 C 0.82656 0.69492 0.45426 0.0
C780 C 0.84917 0.69544 0.46724 0.0
H781 H 0.94823 0.70882 0.5549 0.0
H782 H 0.90893 0.7072 0.53676 0.0
H783 H 0.91286 0.70852 0.45773 0.0
H784 H 0.79336 0.67266 0.40271 0.0
H785 H 0.82842 0.67141 0.42558 0.0
C786 C 0.2438 0.94368 0.70378 0.0
C787 C 0.26816 0.95911 0.69191 0.0
C788 C 0.2226 0.92113 0.69305 0.0
C789 C 0.19982 0.89267 0.63343 0.0
H790 H 0.14611 0.83037 0.66701 0.0
C791 C 0.12021 0.7981 0.58605 0.0
C792 C 0.09346 0.78869 0.59273 0.0
C793 C 0.14136 0.8174 0.59941 0.0
C794 C 0.16095 0.84772 0.65746 0.0
H795 H 0.29022 0.96212 0.66036 0.0
H796 H 0.25414 0.92226 0.64226 0.0
H797 H 0.18395 0.86616 0.68826 0.0
H798 H 0.06795 0.79151 0.61898 0.0
H799 H 0.10511 0.82511 0.64267 0.0
H800 H 0.17713 0.87395 0.60262 0.0
C801 C 0.25065 0.92801 0.65931 0.0
C802 C 0.1826 0.86831 0.66962 0.0
C803 C 0.27151 0.95074 0.6698 0.0
C804 C 0.08837 0.79851 0.61341 0.0
C805 C 0.10959 0.81756 0.62701 0.0
C806 C 0.1785 0.87197 0.6213 0.0
C807 C 0.22555 0.91337 0.67039 0.0
C808 C 0.20241 0.89108 0.65774 0.0
C809 C 0.13629 0.8275 0.61992 0.0
C810 C 0.15886 0.84928 0.63314 0.0
H811 H 0.24064 0.94985 0.72078 0.0
H812 H 0.2036 0.91055 0.70213 0.0
H813 H 0.21406 0.91013 0.62365 0.0
H814 H 0.12481 0.7912 0.57008 0.0
H815 H 0.16176 0.82462 0.59359 0.0
C816 C 0.30326 0.24357 0.86877 0.0
C817 C 0.3105 0.26722 0.85632 0.0
C818 C 0.30439 0.22227 0.85801 0.0
C819 C 0.30692 0.19752 0.79824 0.0
H820 H 0.32 0.14672 0.83184 0.0
C821 C 0.32428 0.11901 0.75151 0.0
C822 C 0.30709 0.09231 0.75834 0.0
C823 C 0.32592 0.14018 0.7647 0.0
C824 C 0.31625 0.16076 0.82231 0.0
H825 H 0.32628 0.288 0.82356 0.0
H826 H 0.32982 0.25186 0.80534 0.0
H827 H 0.32178 0.18468 0.85267 0.0
H828 H 0.2788 0.06683 0.78463 0.0
H829 H 0.28215 0.10407 0.80815 0.0
H830 H 0.3022 0.174 0.76781 0.0
C831 C 0.32196 0.24889 0.82292 0.0
C832 C 0.31712 0.18245 0.83422 0.0
C833 C 0.32023 0.2698 0.83346 0.0
C834 C 0.29214 0.08724 0.77901 0.0
C835 C 0.29417 0.10848 0.79248 0.0
C836 C 0.30657 0.17621 0.78633 0.0
C837 C 0.31327 0.22445 0.83473 0.0
C838 C 0.31253 0.20122 0.82233 0.0
C839 C 0.31075 0.13513 0.78522 0.0
C840 C 0.31124 0.15764 0.7982 0.0
H841 H 0.29551 0.24104 0.88638 0.0
H842 H 0.29733 0.20379 0.86768 0.0
H843 H 0.30241 0.21088 0.78849 0.0
H844 H 0.33577 0.12352 0.73552 0.0
H845 H 0.33889 0.16056 0.75876 0.0
C846 C 0.065 0.30175 0.03999 0.0
C847 C 0.05102 0.313 0.02921 0.0
C848 C 0.08781 0.30357 0.02931 0.0
C849 C 0.11882 0.31478 0.97032 0.0
H850 H 0.17838 0.3168 0.00364 0.0
C851 C 0.21241 0.32781 0.92237 0.0
C852 C 0.2208 0.30941 0.92815 0.0
C853 C 0.19348 0.32991 0.93612 0.0
C854 C 0.1618 0.31613 0.99415 0.0
H855 H 0.05095 0.33666 -0.00017 0.0
H856 H 0.09122 0.34105 0.98192 0.0
H857 H 0.14274 0.31861 0.02545 0.0
H858 H 0.21657 0.27947 0.9533 0.0
H859 H 0.18352 0.28331 0.97755 0.0
H860 H 0.138 0.31263 0.93906 0.0
C861 C 0.08414 0.32978 0.99801 0.0
C862 C 0.14131 0.31708 0.00662 0.0
C863 C 0.06119 0.32754 0.00842 0.0
C864 C 0.21036 0.29371 0.94838 0.0
C865 C 0.19163 0.29605 0.96232 0.0
C866 C 0.13938 0.31416 0.95791 0.0
C867 C 0.09725 0.317 0.00782 0.0
C868 C 0.11953 0.31647 0.99485 0.0
C869 C 0.18266 0.31387 0.9561 0.0
C870 C 0.16111 0.31484 0.96963 0.0
H871 H 0.05745 0.29023 0.05592 0.0
H872 H 0.09721 0.29335 0.03738 0.0
H873 H 0.10209 0.31343 0.96057 0.0
H874 H 0.21977 0.33996 0.90677 0.0
H875 H 0.18709 0.34395 0.93097 0.0
C876 C 0.73648 0.05594 0.1678 0.0
C877 C 0.74063 0.0458 0.18869 0.0
C878 C 0.75734 0.07884 0.15742 0.0
C879 C 0.82749 0.13567 0.16676 0.0
H880 H 0.82865 0.13478 0.0991 0.0
C881 C 0.92061 0.2043 0.10906 0.0
C882 C 0.9159 0.21673 0.08997 0.0
C883 C 0.89923 0.18535 0.1226 0.0
C884 C 0.82849 0.13544 0.118 0.0
H885 H 0.76969 0.05206 0.21547 0.0
H886 H 0.80657 0.09151 0.19693 0.0
H887 H 0.79159 0.09841 0.11998 0.0
H888 H 0.88509 0.21901 0.07009 0.0
H889 H 0.84775 0.18564 0.09349 0.0
H890 H 0.86529 0.17235 0.16442 0.0
C891 C 0.787 0.08227 0.18879 0.0
C892 C 0.8071 0.11464 0.13005 0.0
C893 C 0.76588 0.0596 0.19946 0.0
C894 C 0.88939 0.21003 0.08485 0.0
C895 C 0.86801 0.19077 0.09812 0.0
C896 C 0.84917 0.1563 0.15464 0.0
C897 C 0.78319 0.09189 0.16732 0.0
C898 C 0.80613 0.11446 0.15464 0.0
C899 C 0.87267 0.17809 0.11703 0.0
C900 C 0.84979 0.15644 0.13012 0.0
H901 H 0.71713 0.04585 0.15922 0.0
H902 H 0.75322 0.086 0.14135 0.0
H903 H 0.82742 0.13653 0.18563 0.0
H904 H 0.94085 0.20918 0.1134 0.0
H905 H 0.90339 0.17577 0.13699 0.0
C906 C 0.72059 0.90132 0.24632 0.0
C907 C 0.70295 0.91131 0.24933 0.0
C908 C 0.71726 0.87923 0.25913 0.0
C909 C 0.69014 0.84118 0.31294 0.0
H910 H 0.69348 0.78486 0.27874 0.0
C911 C 0.67993 0.74522 0.35785 0.0
C912 C 0.69665 0.73594 0.34909 0.0
C913 C 0.67819 0.76588 0.34639 0.0
C914 C 0.69279 0.8005 0.28866 0.0
H915 H 0.66822 0.90616 0.26841 0.0
H916 H 0.66264 0.86752 0.29129 0.0
H917 H 0.69536 0.82243 0.25767 0.0
H918 H 0.72525 0.74176 0.32177 0.0
H919 H 0.72278 0.77778 0.30244 0.0
H920 H 0.68851 0.81966 0.34405 0.0
C921 C 0.67895 0.87687 0.27885 0.0
C922 C 0.69374 0.82199 0.27653 0.0
C923 C 0.68205 0.89883 0.26572 0.0
C924 C 0.7119 0.74811 0.32894 0.0
C925 C 0.71032 0.76874 0.31767 0.0
C926 C 0.68949 0.81974 0.32518 0.0
C927 C 0.69639 0.86668 0.27547 0.0
C928 C 0.69292 0.84281 0.28852 0.0
C929 C 0.69321 0.77773 0.32599 0.0
C930 C 0.69138 0.79939 0.3132 0.0
H931 H 0.73665 0.9102 0.23364 0.0
H932 H 0.73114 0.87197 0.25627 0.0
H933 H 0.68953 0.85701 0.32263 0.0
H934 H 0.66788 0.73625 0.3733 0.0
H935 H 0.6647 0.7722 0.35326 0.0
C936 C 0.42877 0.41314 0.45721 0.0
C937 C 0.41385 0.39439 0.43977 0.0
C938 C 0.45212 0.437 0.45157 0.0
C939 C 0.48697 0.48421 0.40394 0.0
H940 H 0.55095 0.50454 0.44055 0.0
C941 C 0.59047 0.57191 0.37668 0.0
C942 C 0.60873 0.58745 0.39419 0.0
C943 C 0.56633 0.5489 0.38239 0.0
C944 C 0.5332 0.49949 0.43037 0.0
H945 H 0.4115 0.38609 0.40272 0.0
H946 H 0.45229 0.42816 0.39276 0.0
H947 H 0.50945 0.46355 0.45004 0.0
H948 H 0.6158 0.59138 0.43145 0.0
H949 H 0.57325 0.55166 0.44161 0.0
H950 H 0.51038 0.52034 0.38456 0.0
C951 C 0.44584 0.42427 0.4108 0.0
C952 C 0.50944 0.47588 0.43576 0.0
C953 C 0.42262 0.40018 0.4165 0.0
C954 C 0.60217 0.57968 0.41759 0.0
C955 C 0.57783 0.55681 0.42336 0.0
C956 C 0.51065 0.50802 0.39872 0.0
C957 C 0.46095 0.4428 0.42833 0.0
C958 C 0.48611 0.46794 0.42256 0.0
C959 C 0.55966 0.54094 0.40581 0.0
C960 C 0.53416 0.51595 0.41179 0.0
H961 H 0.42272 0.4091 0.47534 0.0
H962 H 0.46325 0.45097 0.46541 0.0
H963 H 0.46919 0.47874 0.39365 0.0
H964 H 0.5952 0.57711 0.35844 0.0
H965 H 0.55323 0.537 0.36834 0.0
C966 C 0.02939 0.42642 0.58451 0.0
C967 C 0.02628 0.41751 0.60773 0.0
C968 C 0.02896 0.44992 0.57902 0.0
C969 C 0.0431 0.51404 0.6035 0.0
H970 H 0.99516 0.51412 0.55611 0.0
C971 C 0.03188 0.60718 0.58802 0.0
C972 C 0.0274 0.61258 0.5651 0.0
C973 C 0.03104 0.58304 0.59339 0.0
C974 C 0.00904 0.51467 0.56913 0.0
H975 H 0.02093 0.42638 0.64344 0.0
H976 H 0.02071 0.46762 0.63388 0.0
H977 H 0.99592 0.47295 0.56433 0.0
H978 H 0.01925 0.59741 0.52971 0.0
H979 H 0.01877 0.55594 0.53873 0.0
H980 H 0.057 0.55579 0.60792 0.0
C981 C 0.02312 0.4563 0.61993 0.0
C982 C 0.00934 0.49099 0.57387 0.0
C983 C 0.02302 0.43262 0.62535 0.0
C984 C 0.02228 0.59352 0.54763 0.0
C985 C 0.0219 0.56965 0.55287 0.0
C986 C 0.04318 0.53785 0.5985 0.0
C987 C 0.02606 0.46518 0.59673 0.0
C988 C 0.02626 0.49043 0.59118 0.0
C989 C 0.02622 0.56398 0.57584 0.0
C990 C 0.02606 0.53851 0.58129 0.0
H991 H 0.03198 0.41514 0.57065 0.0
H992 H 0.03139 0.45644 0.561 0.0
H993 H 0.05653 0.51417 0.61681 0.0
H994 H 0.0358 0.62153 0.60182 0.0
H995 H 0.03398 0.57929 0.61135 0.0
C996 C 0.59069 0.00772 0.77334 0.0
C997 C 0.61521 0.02678 0.76318 0.0
C998 C 0.56692 0.00754 0.76806 0.0
C999 C 0.5424 0.0521 0.75037 0.0
H1000 H 0.47595 0.98671 0.73673 0.0
C1001 C 0.44649 0.05374 0.72446 0.0
C1002 C 0.42154 0.03246 0.73164 0.0
C1003 C 0.46998 0.0528 0.72813 0.0
C1004 C 0.49421 0.00512 0.74089 0.0
H1005 H 0.63347 0.06001 0.73873 0.0
H1006 H 0.59196 0.06008 0.73004 0.0
H1007 H 0.5171 0.98508 0.74242 0.0
H1008 H 0.40164 0.9937 0.74866 0.0
H1009 H 0.4428 0.99237 0.75588 0.0
H1010 H 0.51963 0.07213 0.74962 0.0
C1011 C 0.59135 0.04533 0.74215 0.0
C1012 C 0.51782 0.00417 0.74397 0.0
C1013 C 0.61512 0.0453 0.74719 0.0
C1014 C 0.42061 0.01034 0.74289 0.0
C1015 C 0.4442 0.00953 0.74685 0.0
C1016 C 0.51876 0.05302 0.7476 0.0
C1017 C 0.56708 0.02662 0.75273 0.0
C1018 C 0.54216 0.02766 0.74868 0.0
C1019 C 0.4692 0.03066 0.73932 0.0
C1020 C 0.49432 0.02955 0.74275 0.0
H1021 H 0.58989 0.99353 0.78617 0.0
H1022 H 0.54857 0.9931 0.77669 0.0
H1023 H 0.56081 0.07046 0.75439 0.0
H1024 H 0.44778 0.0708 0.71528 0.0
H1025 H 0.48868 0.06919 0.72163 0.0
C1026 C 0.58363 0.60339 0.91491 0.0
C1027 C 0.59296 0.60911 0.93798 0.0
C1028 C 0.56038 0.57926 0.90953 0.0
C1029 C 0.51292 0.51148 0.93431 0.0
H1030 H 0.4659 0.51119 0.88577 0.0
C1031 C 0.40329 0.42529 0.91973 0.0
C1032 C 0.39707 0.41592 0.89668 0.0
C1033 C 0.42777 0.44829 0.92486 0.0
C1034 C 0.47894 0.51099 0.89929 0.0
H1035 H 0.58507 0.5945 0.97358 0.0
H1036 H 0.54414 0.55302 0.96448 0.0
H1037 H 0.50744 0.5525 0.8944 0.0
H1038 H 0.41121 0.42339 0.86089 0.0
H1039 H 0.45371 0.4638 0.86982 0.0
H1040 H 0.48364 0.47005 0.93963 0.0
C1041 C 0.55513 0.56649 0.95028 0.0
C1042 C 0.50288 0.53461 0.90416 0.0
C1043 C 0.57858 0.59035 0.95556 0.0
C1044 C 0.41566 0.42999 0.87886 0.0
C1045 C 0.43985 0.4532 0.88392 0.0
C1046 C 0.48874 0.48799 0.92969 0.0
C1047 C 0.54564 0.56054 0.92719 0.0
C1048 C 0.52027 0.53521 0.92172 0.0
C1049 C 0.44612 0.46259 0.90694 0.0
C1050 C 0.47158 0.48752 0.9121 0.0
H1051 H 0.59445 0.61751 0.90104 0.0
H1052 H 0.55407 0.57526 0.89148 0.0
H1053 H 0.52594 0.51088 0.94762 0.0
H1054 H 0.38926 0.4148 0.93375 0.0
H1055 H 0.43211 0.45524 0.94275 0.0
C1056 C 0.99344 0.4091 0.0853 0.0
C1057 C 0.97333 0.38987 0.07083 0.0
C1058 C 0.99443 0.43345 0.08991 0.0
C1059 C 0.9758 0.48017 0.06477 0.0
H1060 H 0.98271 0.50735 0.12774 0.0
C1061 C 0.96553 0.57293 0.08584 0.0
C1062 C 0.98078 0.58976 0.1043 0.0
C1063 C 0.96543 0.54899 0.08137 0.0
C1064 C 0.98127 0.50037 0.10998 0.0
H1065 H 0.93865 0.38111 0.04971 0.0
H1066 H 0.94051 0.42367 0.05764 0.0
H1067 H 0.98114 0.46478 0.12121 0.0
H1068 H 0.00817 0.59434 0.13234 0.0
H1069 H 0.00921 0.55377 0.12369 0.0
H1070 H 0.97657 0.5159 0.05335 0.0
C1071 C 0.95538 0.41985 0.06551 0.0
C1072 C 0.98023 0.47587 0.1063 0.0
C1073 C 0.95415 0.39539 0.0612 0.0
C1074 C 0.99651 0.58231 0.1177 0.0
C1075 C 0.99669 0.55861 0.11303 0.0
C1076 C 0.97723 0.50487 0.06839 0.0
C1077 C 0.97562 0.43919 0.07978 0.0
C1078 C 0.9773 0.46545 0.08368 0.0
C1079 C 0.98081 0.54135 0.09507 0.0
C1080 C 0.97985 0.51527 0.09107 0.0
H1081 H 0.00849 0.40536 0.0929 0.0
H1082 H 0.01031 0.44809 0.1009 0.0
H1083 H 0.97387 0.47273 0.0471 0.0
H1084 H 0.9534 0.57807 0.07495 0.0
H1085 H 0.95272 0.53617 0.06752 0.0
C1086 C 0.41965 0.9953 0.28818 0.0
C1087 C 0.39737 0.98288 0.27308 0.0
C1088 C 0.44351 0.99557 0.28293 0.0
C1089 C 0.46823 0.95654 0.25432 0.0
H1090 H 0.53763 0.02154 0.25317 0.0
C1091 C 0.56308 0.95484 0.22507 0.0
C1092 C 0.58796 0.97329 0.23476 0.0
C1093 C 0.54017 0.95645 0.23001 0.0
C1094 C 0.51853 0.0031 0.25385 0.0
H1095 H 0.38356 0.96187 0.24004 0.0
H1096 H 0.42484 0.96133 0.23156 0.0
H1097 H 0.49731 0.02417 0.26092 0.0
H1098 H 0.60843 0.00768 0.25749 0.0
H1099 H 0.56818 0.0098 0.26721 0.0
H1100 H 0.48908 0.93517 0.24834 0.0
C1101 C 0.42363 0.97094 0.2474 0.0
C1102 C 0.49542 0.0047 0.25808 0.0
C1103 C 0.39993 0.97114 0.25238 0.0
C1104 C 0.58944 0.99321 0.24981 0.0
C1105 C 0.56638 0.99452 0.25515 0.0
C1106 C 0.49132 0.95485 0.25058 0.0
C1107 C 0.44553 0.98298 0.26272 0.0
C1108 C 0.47007 0.98146 0.25815 0.0
C1109 C 0.54141 0.9763 0.24514 0.0
C1110 C 0.51685 0.97812 0.25006 0.0
H1111 H 0.4185 0.00403 0.30455 0.0
H1112 H 0.46007 0.00477 0.29512 0.0
H1113 H 0.44891 0.93828 0.25466 0.0
H1114 H 0.56149 0.93962 0.21301 0.0
H1115 H 0.52164 0.94245 0.22143 0.0
C1116 C 0.34798 0.36376 0.75364 0.0
C1117 C 0.32536 0.34574 0.76664 0.0
C1118 C 0.3501 0.35916 0.73004 0.0
C1119 C 0.3092 0.32334 0.67891 0.0
H1120 H 0.3778 0.33947 0.65272 0.0
C1121 C 0.32304 0.30167 0.58253 0.0
C1122 C 0.34595 0.32163 0.57102 0.0
C1123 C 0.31967 0.30348 0.60651 0.0
C1124 C 0.35855 0.33509 0.65974 0.0
H1125 H 0.28729 0.30856 0.76498 0.0
H1126 H 0.29123 0.30025 0.72383 0.0
H1127 H 0.3738 0.344 0.69458 0.0
H1128 H 0.38264 0.35967 0.57551 0.0
H1129 H 0.3768 0.36279 0.61721 0.0
H1130 H 0.29402 0.31456 0.64396 0.0
C1131 C 0.30719 0.31812 0.7319 0.0
C1132 C 0.35626 0.33767 0.68372 0.0
C1133 C 0.30509 0.32272 0.75555 0.0
C1134 C 0.36506 0.34369 0.58391 0.0
C1135 C 0.36172 0.34547 0.60782 0.0
C1136 C 0.31148 0.32071 0.65489 0.0
C1137 C 0.32966 0.33638 0.71885 0.0
C1138 C 0.33164 0.33212 0.69355 0.0
C1139 C 0.33916 0.32525 0.61944 0.0
C1140 C 0.33627 0.32687 0.64503 0.0
H1141 H 0.36408 0.3815 0.7617 0.0
H1142 H 0.36755 0.37377 0.72045 0.0
H1143 H 0.29002 0.31921 0.6859 0.0
H1144 H 0.3081 0.28427 0.57318 0.0
H1145 H 0.30217 0.28748 0.61502 0.0
C1146 C 0.02551 0.33086 0.75212 0.0
C1147 C 0.02836 0.35334 0.73993 0.0
C1148 C 0.02054 0.32834 0.77612 0.0
C1149 C 0.99611 0.35321 0.8243 0.0
H1150 H 0.0347 0.32882 0.86337 0.0
C1151 C 0.99462 0.35877 0.92453 0.0
C1152 C 0.99069 0.33597 0.93684 0.0
C1153 C 1.00002 0.36118 0.90062 0.0
C1154 C 0.02361 0.33544 0.85266 0.0
H1155 H 0.02742 0.39036 0.74332 0.0
H1156 H 0.01929 0.38624 0.7852 0.0
H1157 H 0.04158 0.33178 0.82121 0.0
H1158 H 0.98963 0.2979 0.93359 0.0
H1159 H 0.99923 0.30221 0.89195 0.0
H1160 H 0.97823 0.35697 0.85575 0.0
C1161 C 0.0207 0.37045 0.77619 0.0
C1162 C 0.02749 0.33707 0.82852 0.0
C1163 C 0.02566 0.37297 0.75222 0.0
C1164 C 0.99295 0.31592 0.92478 0.0
C1165 C 0.9984 0.31836 0.90087 0.0
C1166 C 0.99228 0.35164 0.84843 0.0
C1167 C 0.01828 0.34821 0.78845 0.0
C1168 C 0.0138 0.34601 0.81407 0.0
C1169 C 1.00165 0.34085 0.88848 0.0
C1170 C 0.00601 0.34277 0.86288 0.0
H1171 H 0.02772 0.31549 0.74327 0.0
H1172 H 0.01846 0.3108 0.78502 0.0
H1173 H 0.98495 0.35977 0.81362 0.0
H1174 H 0.99343 0.37474 0.93337 0.0
H1175 H 1.0029 0.37898 0.89162 0.0
C1176 C 0.67646 0.99922 0.91141 0.0
C1177 C 0.66421 0.01236 0.90066 0.0
C1178 C 0.67448 0.99482 0.93551 0.0
C1179 C 0.6594 0.01935 0.99012 0.0
H1180 H 0.65455 0.95513 0.0167 0.0
C1181 C 0.63572 0.98992 0.08736 0.0
C1182 C 0.65185 0.98141 0.09859 0.0
C1183 C 0.63756 0.99408 0.06325 0.0
C1184 C 0.65611 0.97326 0.00949 0.0
H1185 H 0.63932 0.03025 0.90738 0.0
H1186 H 0.63505 0.02162 0.94882 0.0
H1187 H 0.65598 0.96057 0.9744 0.0
H1188 H 0.68241 0.97041 0.09343 0.0
H1189 H 0.68557 0.9776 0.05124 0.0
H1190 H 0.65896 0.03169 0.02529 0.0
C1191 C 0.64693 0.01545 0.9387 0.0
C1192 C 0.657 0.97643 0.98527 0.0
C1193 C 0.64913 0.02009 0.91468 0.0
C1194 C 0.66998 0.97729 0.08527 0.0
C1195 C 0.67158 0.98111 0.06113 0.0
C1196 C 0.65821 0.01603 0.01431 0.0
C1197 C 0.65992 0.00315 0.94949 0.0
C1198 C 0.65869 0.99954 0.97527 0.0
C1199 C 0.65532 0.98945 0.04988 0.0
C1200 C 0.65662 0.99299 0.02422 0.0
H1201 H 0.68788 0.99248 0.90139 0.0
H1202 H 0.68491 0.98544 0.94321 0.0
H1203 H 0.66126 0.03766 0.98309 0.0
H1204 H 0.62169 0.99334 0.09726 0.0
H1205 H 0.62469 1.00037 0.05498 0.0
C1206 C 0.64376 0.65915 0.0826 0.0
C1207 C 0.66383 0.67936 0.0687 0.0
C1208 C 0.64827 0.65688 0.10618 0.0
C1209 C 0.69237 0.69498 0.15561 0.0
H1210 H 0.66111 0.62423 0.18333 0.0
C1211 C 0.68876 0.67799 0.25551 0.0
C1212 C 0.69111 0.65623 0.26352 0.0
C1213 C 0.68715 0.68181 0.23158 0.0
C1214 C 0.67032 0.64417 0.17587 0.0
H1215 H 0.70464 0.71297 0.06901 0.0
H1216 H 0.71282 0.70831 0.10988 0.0
H1217 H 0.6558 0.62855 0.14187 0.0
H1218 H 0.69522 0.62237 0.25298 0.0
H1219 H 0.6932 0.62935 0.21134 0.0
H1220 H 0.70763 0.71052 0.18958 0.0
C1221 C 0.69333 0.69456 0.10259 0.0
C1222 C 0.66689 0.64665 0.1521 0.0
C1223 C 0.68874 0.69699 0.07899 0.0
C1224 C 0.69281 0.63895 0.24724 0.0
C1225 C 0.69157 0.64294 0.22339 0.0
C1226 C 0.69602 0.69248 0.17941 0.0
C1227 C 0.6731 0.67455 0.1165 0.0
C1228 C 0.67768 0.67207 0.14168 0.0
C1229 C 0.68821 0.66411 0.21524 0.0
C1230 C 0.68493 0.66703 0.18985 0.0
H1231 H 0.62446 0.64496 0.07533 0.0
H1232 H 0.63207 0.64144 0.1164 0.0
H1233 H 0.70071 0.71488 0.14822 0.0
H1234 H 0.68731 0.6915 0.26778 0.0
H1235 H 0.68428 0.69816 0.22596 0.0
C1236 C 0.99227 0.6418 0.24985 0.0
C1237 C 0.9881 0.66025 0.23709 0.0
C1238 C 0.99681 0.64489 0.27386 0.0
C1239 C 0.01837 0.6939 0.32161 0.0
H1240 H 0.97926 0.63065 0.36035 0.0
C1241 C 0.02187 0.69945 0.42226 0.0
C1242 C 0.02478 0.67953 0.43386 0.0
C1243 C 0.01615 0.69726 0.39841 0.0
C1244 C 0.99052 0.64846 0.34977 0.0
H1245 H 0.98589 0.69671 0.2396 0.0
H1246 H 0.99415 0.70224 0.28148 0.0
H1247 H 0.97296 0.62704 0.31819 0.0
H1248 H 0.023 0.64126 0.42963 0.0
H1249 H 0.01366 0.63773 0.38803 0.0
H1250 H 0.03622 0.71525 0.35316 0.0
C1251 C 0.99402 0.68546 0.27282 0.0
C1252 C 0.98692 0.64638 0.32563 0.0
C1253 C 0.98937 0.68232 0.24879 0.0
C1254 C 0.02124 0.65711 0.42118 0.0
C1255 C 0.01556 0.65494 0.39736 0.0
C1256 C 0.02207 0.69596 0.34578 0.0
C1257 C 0.9974 0.66656 0.28563 0.0
C1258 C 1.00095 0.66903 0.31129 0.0
C1259 C 0.01318 0.67509 0.38565 0.0
C1260 C 0.00832 0.67321 0.36011 0.0
H1261 H 0.99191 0.62488 0.24131 0.0
H1262 H 0.99986 0.63029 0.28322 0.0
H1263 H 0.02962 0.71164 0.31096 0.0
H1264 H 0.0247 0.71709 0.43143 0.0
H1265 H 0.01413 0.71297 0.38994 0.0
C1266 C 0.36763 0.02209 0.58675 0.0
C1267 C 0.34872 0.02496 0.60006 0.0
C1268 C 0.3642 0.0177 0.56274 0.0
C1269 C 0.31397 0.99409 0.51589 0.0
H1270 H 0.37599 0.0351 0.47623 0.0
C1271 C 0.30693 0.98825 0.41523 0.0
C1272 C 0.32728 0.98593 0.40379 0.0
C1273 C 0.3092 0.99471 0.43895 0.0
C1274 C 0.35853 0.02335 0.48707 0.0
H1275 H 0.31109 0.02507 0.5985 0.0
H1276 H 0.30498 0.01708 0.55661 0.0
H1277 H 0.38018 0.04187 0.51833 0.0
H1278 H 0.3664 0.98962 0.40805 0.0
H1279 H 0.37014 1.00031 0.44937 0.0
H1280 H 0.29242 0.97524 0.48465 0.0
C1281 C 0.32241 0.01811 0.56485 0.0
C1282 C 0.36094 0.02721 0.51117 0.0
C1283 C 0.32589 0.02261 0.58888 0.0
C1284 C 0.35022 0.9909 0.41641 0.0
C1285 C 0.3525 0.99735 0.44006 0.0
C1286 C 0.31157 0.99014 0.49175 0.0
C1287 C 0.34172 0.01598 0.5515 0.0
C1288 C 0.33877 0.01242 0.52586 0.0
C1289 C 0.33191 0.99906 0.45167 0.0
C1290 C 0.33392 0.00453 0.47711 0.0
H1291 H 0.38516 0.02329 0.59487 0.0
H1292 H 0.37916 0.0156 0.55296 0.0
H1293 H 0.29659 0.98227 0.52681 0.0
H1294 H 0.28892 0.98435 0.40605 0.0
H1295 H 0.29312 0.99616 0.44735 0.0
loop_
_geom_bond_atom_site_label_1
_geom_bond_atom_site_label_2
_geom_bond_distance
_geom_bond_site_symmetry_2
_ccdc_geom_bond_type
Co0 N4 2.148 . S
Co0 N10 2.128 . S
Co0 N20 2.194 . S
Co0 O25 2.351 . S
Co0 O26 2.155 . S
Co0 O27 2.096 . S
C1 N4 1.301 . S
C1 N5 1.328 . S
C1 H6 0.930 . S
C2 C3 1.333 . S
C2 N4 1.317 . S
C2 H7 0.930 . S
C3 C2 1.333 . S
C3 N5 1.350 . S
C3 H29 0.931 . S
N4 Co0 2.148 . S
N4 C1 1.301 . S
N4 C2 1.317 . S
N5 C1 1.328 . S
N5 C3 1.350 . S
H6 C1 0.930 . S
H7 C2 0.930 . S
C8 O9 1.224 . S
C8 O27 1.247 . S
O9 C8 1.224 . S
N10 Co0 2.128 . S
N10 C11 1.355 . S
N10 C13 1.311 . S
C11 N10 1.355 . S
C11 C12 1.363 . S
C11 H23 0.929 . S
C12 C11 1.363 . S
C12 N14 1.375 . S
C12 H30 0.931 . S
C13 N10 1.311 . S
C13 N14 1.347 . S
C13 H24 0.929 . S
N14 C12 1.375 . S
N14 C13 1.347 . S
C15 C18 1.365 . S
C15 N20 1.328 . S
C15 H21 0.929 . S
C16 C17 1.362 . S
C16 C19 1.378 . S
C16 H31 0.929 . S
C17 C16 1.362 . S
C17 C18 1.366 . S
C18 C15 1.365 . S
C18 C17 1.366 . S
C18 H32 0.930 . S
C19 C16 1.378 . S
C19 N20 1.315 . S
C19 H22 0.930 . S
N20 Co0 2.194 . S
N20 C15 1.328 . S
N20 C19 1.315 . S
H21 C15 0.929 . S
H22 C19 0.930 . S
H23 C11 0.929 . S
H24 C13 0.929 . S
O25 Co0 2.351 . S
O25 C28 1.244 . S
O26 Co0 2.155 . S
O26 C28 1.240 . S
O27 Co0 2.096 . S
O27 C8 1.247 . S
C28 O25 1.244 . S
C28 O26 1.240 . S
H29 C3 0.931 . S
H30 C12 0.931 . S
H31 C16 0.929 . S
H32 C18 0.930 . S
Co33 N37 2.148 . S
Co33 N43 2.128 . S
Co33 N53 2.194 . S
Co33 O58 2.351 . S
Co33 O59 2.155 . S
Co33 O60 2.096 . S
C34 N37 1.301 . S
C34 N38 1.328 . S
C34 H39 0.930 . S
C35 C36 1.333 . S
C35 N37 1.317 . S
C35 H40 0.930 . S
C36 C35 1.333 . S
C36 N38 1.350 . S
C36 H62 0.931 . S
N37 Co33 2.148 . S
N37 C34 1.301 . S
N37 C35 1.317 . S
N38 C34 1.328 . S
N38 C36 1.350 . S
H39 C34 0.930 . S
H40 C35 0.930 . S
C41 O42 1.224 . S
C41 O60 1.247 1_655 S
O42 C41 1.224 . S
N43 Co33 2.128 . S
N43 C44 1.355 . S
N43 C46 1.311 . S
C44 N43 1.355 . S
C44 C45 1.363 . S
C44 H56 0.929 . S
C45 C44 1.363 . S
C45 N47 1.375 . S
C45 H63 0.931 . S
C46 N43 1.311 . S
C46 N47 1.347 . S
C46 H57 0.929 . S
N47 C45 1.375 . S
N47 C46 1.347 . S
C48 C51 1.365 . S
C48 N53 1.328 . S
C48 H54 0.929 . S
C49 C50 1.362 . S
C49 C52 1.378 . S
C49 H64 0.929 . S
C50 C49 1.362 . S
C50 C51 1.366 . S
C51 C48 1.365 . S
C51 C50 1.366 . S
C51 H65 0.930 . S
C52 C49 1.378 . S
C52 N53 1.315 . S
C52 H55 0.930 . S
N53 Co33 2.194 . S
N53 C48 1.328 . S
N53 C52 1.315 . S
H54 C48 0.929 . S
H55 C52 0.930 . S
H56 C44 0.929 . S
H57 C46 0.929 . S
O58 Co33 2.351 . S
O58 C61 1.244 . S
O59 Co33 2.155 . S
O59 C61 1.240 . S
O60 Co33 2.096 . S
O60 C41 1.247 1_455 S
C61 O58 1.244 . S
C61 O59 1.240 . S
H62 C36 0.931 . S
H63 C45 0.931 . S
H64 C49 0.929 . S
H65 C51 0.930 . S
Co66 N70 2.148 . S
Co66 N76 2.128 . S
Co66 N86 2.194 . S
Co66 O91 2.351 . S
Co66 O92 2.155 . S
Co66 O93 2.096 . S
C67 N70 1.301 . S
C67 N71 1.328 . S
C67 H72 0.930 . S
C68 C69 1.333 . S
C68 N70 1.317 . S
C68 H73 0.930 . S
C69 C68 1.333 . S
C69 N71 1.350 . S
C69 H95 0.931 . S
N70 Co66 2.148 . S
N70 C67 1.301 . S
N70 C68 1.317 . S
N71 C67 1.328 . S
N71 C69 1.350 . S
H72 C67 0.930 . S
H73 C68 0.930 . S
C74 O75 1.224 . S
C74 O93 1.247 1_565 S
O75 C74 1.224 . S
N76 Co66 2.128 . S
N76 C77 1.355 . S
N76 C79 1.311 . S
C77 N76 1.355 . S
C77 C78 1.363 . S
C77 H89 0.929 . S
C78 C77 1.363 . S
C78 N80 1.375 . S
C78 H96 0.931 . S
C79 N76 1.311 . S
C79 N80 1.347 . S
C79 H90 0.929 . S
N80 C78 1.375 . S
N80 C79 1.347 . S
C81 C84 1.365 . S
C81 N86 1.328 . S
C81 H87 0.929 . S
C82 C83 1.362 . S
C82 C85 1.378 . S
C82 H97 0.929 . S
C83 C82 1.362 . S
C83 C84 1.366 . S
C84 C81 1.365 . S
C84 C83 1.366 . S
C84 H98 0.930 . S
C85 C82 1.378 . S
C85 N86 1.315 . S
C85 H88 0.930 . S
N86 Co66 2.194 . S
N86 C81 1.328 . S
N86 C85 1.315 . S
H87 C81 0.929 . S
H88 C85 0.930 . S
H89 C77 0.929 . S
H90 C79 0.929 . S
O91 Co66 2.351 . S
O91 C94 1.244 . S
O92 Co66 2.155 . S
O92 C94 1.240 . S
O93 Co66 2.096 . S
O93 C74 1.247 1_545 S
C94 O91 1.244 . S
C94 O92 1.240 . S
H95 C69 0.931 . S
H96 C78 0.931 . S
H97 C82 0.929 . S
H98 C84 0.930 . S
Co99 N103 2.148 1_554 S
Co99 N109 2.128 . S
Co99 N119 2.194 1_554 S
Co99 O124 2.351 . S
Co99 O125 2.155 . S
Co99 O126 2.096 . S
C100 N103 1.301 . S
C100 N104 1.328 . S
C100 H105 0.930 . S
C101 C102 1.333 . S
C101 N103 1.317 . S
C101 H106 0.930 . S
C102 C101 1.333 . S
C102 N104 1.350 . S
C102 H128 0.931 . S
N103 Co99 2.148 1_556 S
N103 C100 1.301 . S
N103 C101 1.317 . S
N104 C100 1.328 . S
N104 C102 1.350 . S
H105 C100 0.930 . S
H106 C101 0.930 . S
C107 O108 1.224 1_554 S
C107 O126 1.247 . S
O108 C107 1.224 1_556 S
N109 Co99 2.128 . S
N109 C110 1.355 . S
N109 C112 1.311 . S
C110 N109 1.355 . S
C110 C111 1.363 . S
C110 H122 0.929 . S
C111 C110 1.363 . S
C111 N113 1.375 . S
C111 H129 0.931 . S
C112 N109 1.311 . S
C112 N113 1.347 . S
C112 H123 0.929 . S
N113 C111 1.375 . S
N113 C112 1.347 . S
C114 C117 1.365 . S
C114 N119 1.328 . S
C114 H120 0.929 . S
C115 C116 1.362 . S
C115 C118 1.378 . S
C115 H130 0.929 . S
C116 C115 1.362 . S
C116 C117 1.366 . S
C117 C114 1.365 . S
C117 C116 1.366 . S
C117 H131 0.930 . S
C118 C115 1.378 . S
C118 N119 1.315 . S
C118 H121 0.930 . S
N119 Co99 2.194 1_556 S
N119 C114 1.328 . S
N119 C118 1.315 . S
H120 C114 0.929 . S
H121 C118 0.930 . S
H122 C110 0.929 . S
H123 C112 0.929 . S
O124 Co99 2.351 . S
O124 C127 1.244 . S
O125 Co99 2.155 . S
O125 C127 1.240 . S
O126 Co99 2.096 . S
O126 C107 1.247 . S
C127 O124 1.244 . S
C127 O125 1.240 . S
H128 C102 0.931 . S
H129 C111 0.931 . S
H130 C115 0.929 . S
H131 C117 0.930 . S
Co132 N136 2.148 . S
Co132 N142 2.128 . S
Co132 N152 2.194 . S
Co132 O157 2.351 . S
Co132 O158 2.155 . S
Co132 O159 2.096 . S
C133 N136 1.301 . S
C133 N137 1.328 . S
C133 H138 0.930 . S
C134 C135 1.333 . S
C134 N136 1.317 . S
C134 H139 0.930 . S
C135 C134 1.333 . S
C135 N137 1.350 . S
C135 H161 0.931 . S
N136 Co132 2.148 . S
N136 C133 1.301 . S
N136 C134 1.317 . S
N137 C133 1.328 . S
N137 C135 1.350 . S
H138 C133 0.930 . S
H139 C134 0.930 . S
C140 O141 1.224 . S
C140 O159 1.247 1_455 S
O141 C140 1.224 . S
N142 Co132 2.128 . S
N142 C143 1.355 . S
N142 C145 1.311 . S
C143 N142 1.355 . S
C143 C144 1.363 . S
C143 H155 0.929 . S
C144 C143 1.363 . S
C144 N146 1.375 . S
C144 H162 0.931 . S
C145 N142 1.311 . S
C145 N146 1.347 . S
C145 H156 0.929 . S
N146 C144 1.375 . S
N146 C145 1.347 . S
C147 C150 1.365 . S
C147 N152 1.328 . S
C147 H153 0.929 . S
C148 C149 1.362 . S
C148 C151 1.378 . S
C148 H163 0.929 . S
C149 C148 1.362 . S
C149 C150 1.366 . S
C150 C147 1.365 . S
C150 C149 1.366 . S
C150 H164 0.930 . S
C151 C148 1.378 . S
C151 N152 1.315 . S
C151 H154 0.930 . S
N152 Co132 2.194 . S
N152 C147 1.328 . S
N152 C151 1.315 . S
H153 C147 0.929 . S
H154 C151 0.930 . S
H155 C143 0.929 . S
H156 C145 0.929 . S
O157 Co132 2.351 . S
O157 C160 1.244 . S
O158 Co132 2.155 . S
O158 C160 1.240 . S
O159 Co132 2.096 . S
O159 C140 1.247 1_655 S
C160 O157 1.244 . S
C160 O158 1.240 . S
H161 C135 0.931 . S
H162 C144 0.931 . S
H163 C148 0.929 . S
H164 C150 0.930 . S
Co165 N169 2.148 . S
Co165 N175 2.128 . S
Co165 N185 2.194 . S
Co165 O190 2.351 . S
Co165 O191 2.155 . S
Co165 O192 2.096 . S
C166 N169 1.301 . S
C166 N170 1.328 . S
C166 H171 0.930 . S
C167 C168 1.333 . S
C167 N169 1.317 . S
C167 H172 0.930 . S
C168 C167 1.333 . S
C168 N170 1.350 . S
C168 H194 0.931 . S
N169 Co165 2.148 . S
N169 C166 1.301 . S
N169 C167 1.317 . S
N170 C166 1.328 . S
N170 C168 1.350 . S
H171 C166 0.930 . S
H172 C167 0.930 . S
C173 O174 1.224 . S
C173 O192 1.247 1_545 S
O174 C173 1.224 . S
N175 Co165 2.128 . S
N175 C176 1.355 . S
N175 C178 1.311 . S
C176 N175 1.355 . S
C176 C177 1.363 . S
C176 H188 0.929 . S
C177 C176 1.363 . S
C177 N179 1.375 . S
C177 H195 0.931 . S
C178 N175 1.311 . S
C178 N179 1.347 . S
C178 H189 0.929 . S
N179 C177 1.375 . S
N179 C178 1.347 . S
C180 C183 1.365 . S
C180 N185 1.328 . S
C180 H186 0.929 . S
C181 C182 1.362 . S
C181 C184 1.378 . S
C181 H196 0.929 . S
C182 C181 1.362 . S
C182 C183 1.366 . S
C183 C180 1.365 . S
C183 C182 1.366 . S
C183 H197 0.930 . S
C184 C181 1.378 . S
C184 N185 1.315 . S
C184 H187 0.930 . S
N185 Co165 2.194 . S
N185 C180 1.328 . S
N185 C184 1.315 . S
H186 C180 0.929 . S
H187 C184 0.930 . S
H188 C176 0.929 . S
H189 C178 0.929 . S
O190 Co165 2.351 . S
O190 C193 1.244 . S
O191 Co165 2.155 . S
O191 C193 1.240 . S
O192 Co165 2.096 . S
O192 C173 1.247 1_565 S
C193 O190 1.244 . S
C193 O191 1.240 . S
H194 C168 0.931 . S
H195 C177 0.931 . S
H196 C181 0.929 . S
H197 C183 0.930 . S
Co198 N202 2.148 . S
Co198 N208 2.128 . S
Co198 N218 2.194 . S
Co198 O223 2.351 . S
Co198 O224 2.155 . S
Co198 O225 2.096 . S
C199 N202 1.301 . S
C199 N203 1.328 . S
C199 H204 0.930 . S
C200 C201 1.333 . S
C200 N202 1.317 . S
C200 H205 0.930 . S
C201 C200 1.333 . S
C201 N203 1.350 . S
C201 H227 0.931 . S
N202 Co198 2.148 . S
N202 C199 1.301 . S
N202 C200 1.317 . S
N203 C199 1.328 . S
N203 C201 1.350 . S
H204 C199 0.930 . S
H205 C200 0.930 . S
C206 O207 1.224 . S
C206 O225 1.247 . S
O207 C206 1.224 . S
N208 Co198 2.128 . S
N208 C209 1.355 . S
N208 C211 1.311 . S
C209 N208 1.355 . S
C209 C210 1.363 . S
C209 H221 0.929 . S
C210 C209 1.363 . S
C210 N212 1.375 . S
C210 H228 0.931 . S
C211 N208 1.311 . S
C211 N212 1.347 . S
C211 H222 0.929 . S
N212 C210 1.375 . S
N212 C211 1.347 . S
C213 C216 1.365 . S
C213 N218 1.328 . S
C213 H219 0.929 . S
C214 C215 1.362 . S
C214 C217 1.378 . S
C214 H229 0.929 . S
C215 C214 1.362 . S
C215 C216 1.366 . S
C216 C213 1.365 . S
C216 C215 1.366 . S
C216 H230 0.930 . S
C217 C214 1.378 . S
C217 N218 1.315 . S
C217 H220 0.930 . S
N218 Co198 2.194 . S
N218 C213 1.328 . S
N218 C217 1.315 . S
H219 C213 0.929 . S
H220 C217 0.930 . S
H221 C209 0.929 . S
H222 C211 0.929 . S
O223 Co198 2.351 . S
O223 C226 1.244 . S
O224 Co198 2.155 . S
O224 C226 1.240 . S
O225 Co198 2.096 . S
O225 C206 1.247 . S
C226 O223 1.244 . S
C226 O224 1.240 . S
H227 C201 0.931 . S
H228 C210 0.931 . S
H229 C214 0.929 . S
H230 C216 0.930 . S
Co231 N235 2.148 . S
Co231 N241 2.128 . S
Co231 N251 2.194 . S
Co231 O256 2.351 . S
Co231 O257 2.155 . S
Co231 O258 2.096 . S
C232 N235 1.301 . S
C232 N236 1.328 . S
C232 H237 0.930 . S
C233 C234 1.333 . S
C233 N235 1.317 . S
C233 H238 0.930 . S
C234 C233 1.333 . S
C234 N236 1.350 . S
C234 H260 0.931 . S
N235 Co231 2.148 . S
N235 C232 1.301 . S
N235 C233 1.317 . S
N236 C232 1.328 . S
N236 C234 1.350 . S
H237 C232 0.930 . S
H238 C233 0.930 . S
C239 O240 1.224 . S
C239 O258 1.247 1_655 S
O240 C239 1.224 . S
N241 Co231 2.128 . S
N241 C242 1.355 . S
N241 C244 1.311 . S
C242 N241 1.355 . S
C242 C243 1.363 . S
C242 H254 0.929 . S
C243 C242 1.363 . S
C243 N245 1.375 . S
C243 H261 0.931 . S
C244 N241 1.311 . S
C244 N245 1.347 . S
C244 H255 0.929 . S
N245 C243 1.375 . S
N245 C244 1.347 . S
C246 C249 1.365 . S
C246 N251 1.328 . S
C246 H252 0.929 . S
C247 C248 1.362 . S
C247 C250 1.378 . S
C247 H262 0.929 . S
C248 C247 1.362 . S
C248 C249 1.366 . S
C249 C246 1.365 . S
C249 C248 1.366 . S
C249 H263 0.930 . S
C250 C247 1.378 . S
C250 N251 1.315 . S
C250 H253 0.930 . S
N251 Co231 2.194 . S
N251 C246 1.328 . S
N251 C250 1.315 . S
H252 C246 0.929 . S
H253 C250 0.930 . S
H254 C242 0.929 . S
H255 C244 0.929 . S
O256 Co231 2.351 . S
O256 C259 1.244 . S
O257 Co231 2.155 . S
O257 C259 1.240 . S
O258 Co231 2.096 . S
O258 C239 1.247 1_455 S
C259 O256 1.244 . S
C259 O257 1.240 . S
H260 C234 0.931 . S
H261 C243 0.931 . S
H262 C247 0.929 . S
H263 C249 0.930 . S
Co264 N268 2.148 . S
Co264 N274 2.128 . S
Co264 N284 2.194 . S
Co264 O289 2.351 . S
Co264 O290 2.155 . S
Co264 O291 2.096 . S
C265 N268 1.301 . S
C265 N269 1.328 . S
C265 H270 0.930 . S
C266 C267 1.333 . S
C266 N268 1.317 . S
C266 H271 0.930 . S
C267 C266 1.333 . S
C267 N269 1.350 . S
C267 H293 0.931 . S
N268 Co264 2.148 . S
N268 C265 1.301 . S
N268 C266 1.317 . S
N269 C265 1.328 . S
N269 C267 1.350 . S
H270 C265 0.930 . S
H271 C266 0.930 . S
C272 O273 1.224 . S
C272 O291 1.247 1_565 S
O273 C272 1.224 . S
N274 Co264 2.128 . S
N274 C275 1.355 . S
N274 C277 1.311 . S
C275 N274 1.355 . S
C275 C276 1.363 . S
C275 H287 0.929 . S
C276 C275 1.363 . S
C276 N278 1.375 . S
C276 H294 0.931 . S
C277 N274 1.311 . S
C277 N278 1.347 . S
C277 H288 0.929 . S
N278 C276 1.375 . S
N278 C277 1.347 . S
C279 C282 1.365 . S
C279 N284 1.328 . S
C279 H285 0.929 . S
C280 C281 1.362 . S
C280 C283 1.378 . S
C280 H295 0.929 . S
C281 C280 1.362 . S
C281 C282 1.366 . S
C282 C279 1.365 . S
C282 C281 1.366 . S
C282 H296 0.930 . S
C283 C280 1.378 . S
C283 N284 1.315 . S
C283 H286 0.930 . S
N284 Co264 2.194 . S
N284 C279 1.328 . S
N284 C283 1.315 . S
H285 C279 0.929 . S
H286 C283 0.930 . S
H287 C275 0.929 . S
H288 C277 0.929 . S
O289 Co264 2.351 . S
O289 C292 1.244 . S
O290 Co264 2.155 . S
O290 C292 1.240 . S
O291 Co264 2.096 . S
O291 C272 1.247 1_545 S
C292 O289 1.244 . S
C292 O290 1.240 . S
H293 C267 0.931 . S
H294 C276 0.931 . S
H295 C280 0.929 . S
H296 C282 0.930 . S
Co297 N301 2.148 . S
Co297 N307 2.128 . S
Co297 N317 2.194 . S
Co297 O322 2.351 . S
Co297 O323 2.155 . S
Co297 O324 2.096 . S
C298 N301 1.301 . S
C298 N302 1.328 . S
C298 H303 0.930 . S
C299 C300 1.333 . S
C299 N301 1.317 . S
C299 H304 0.930 . S
C300 C299 1.333 . S
C300 N302 1.350 . S
C300 H326 0.931 . S
N301 Co297 2.148 . S
N301 C298 1.301 . S
N301 C299 1.317 . S
N302 C298 1.328 . S
N302 C300 1.350 . S
H303 C298 0.930 . S
H304 C299 0.930 . S
C305 O306 1.224 . S
C305 O324 1.247 . S
O306 C305 1.224 . S
N307 Co297 2.128 . S
N307 C308 1.355 . S
N307 C310 1.311 . S
C308 N307 1.355 . S
C308 C309 1.363 . S
C308 H320 0.929 . S
C309 C308 1.363 . S
C309 N311 1.375 . S
C309 H327 0.931 . S
C310 N307 1.311 . S
C310 N311 1.347 . S
C310 H321 0.929 . S
N311 C309 1.375 . S
N311 C310 1.347 . S
C312 C315 1.365 . S
C312 N317 1.328 . S
C312 H318 0.929 . S
C313 C314 1.362 . S
C313 C316 1.378 . S
C313 H328 0.929 . S
C314 C313 1.362 . S
C314 C315 1.366 . S
C315 C312 1.365 . S
C315 C314 1.366 . S
C315 H329 0.930 . S
C316 C313 1.378 . S
C316 N317 1.315 . S
C316 H319 0.930 . S
N317 Co297 2.194 . S
N317 C312 1.328 . S
N317 C316 1.315 . S
H318 C312 0.929 . S
H319 C316 0.930 . S
H320 C308 0.929 . S
H321 C310 0.929 . S
O322 Co297 2.351 . S
O322 C325 1.244 . S
O323 Co297 2.155 . S
O323 C325 1.240 . S
O324 Co297 2.096 . S
O324 C305 1.247 . S
C325 O322 1.244 . S
C325 O323 1.240 . S
H326 C300 0.931 . S
H327 C309 0.931 . S
H328 C313 0.929 . S
H329 C315 0.930 . S
Co330 N334 2.148 . S
Co330 N340 2.128 1_554 S
Co330 N350 2.194 . S
Co330 O355 2.351 1_554 S
Co330 O356 2.155 1_554 S
Co330 O357 2.096 1_554 S
C331 N334 1.301 . S
C331 N335 1.328 . S
C331 H336 0.930 . S
C332 C333 1.333 . S
C332 N334 1.317 . S
C332 H337 0.930 . S
C333 C332 1.333 . S
C333 N335 1.350 . S
C333 H359 0.931 . S
N334 Co330 2.148 . S
N334 C331 1.301 . S
N334 C332 1.317 . S
N335 C331 1.328 . S
N335 C333 1.350 . S
H336 C331 0.930 . S
H337 C332 0.930 . S
C338 O339 1.224 . S
C338 O357 1.247 1_454 S
O339 C338 1.224 . S
N340 Co330 2.128 1_556 S
N340 C341 1.355 . S
N340 C343 1.311 . S
C341 N340 1.355 . S
C341 C342 1.363 . S
C341 H353 0.929 . S
C342 C341 1.363 . S
C342 N344 1.375 . S
C342 H360 0.931 . S
C343 N340 1.311 . S
C343 N344 1.347 . S
C343 H354 0.929 . S
N344 C342 1.375 . S
N344 C343 1.347 . S
C345 C348 1.365 . S
C345 N350 1.328 . S
C345 H351 0.929 . S
C346 C347 1.362 . S
C346 C349 1.378 . S
C346 H361 0.929 . S
C347 C346 1.362 . S
C347 C348 1.366 . S
C348 C345 1.365 . S
C348 C347 1.366 . S
C348 H362 0.930 . S
C349 C346 1.378 . S
C349 N350 1.315 . S
C349 H352 0.930 . S
N350 Co330 2.194 . S
N350 C345 1.328 . S
N350 C349 1.315 . S
H351 C345 0.929 . S
H352 C349 0.930 . S
H353 C341 0.929 . S
H354 C343 0.929 . S
O355 Co330 2.351 1_556 S
O355 C358 1.244 . S
O356 Co330 2.155 1_556 S
O356 C358 1.240 . S
O357 Co330 2.096 1_556 S
O357 C338 1.247 1_656 S
C358 O355 1.244 . S
C358 O356 1.240 . S
H359 C333 0.931 . S
H360 C342 0.931 . S
H361 C346 0.929 . S
H362 C348 0.930 . S
Co363 N367 2.148 . S
Co363 N373 2.128 . S
Co363 N383 2.194 . S
Co363 O388 2.351 . S
Co363 O389 2.155 . S
Co363 O390 2.096 . S
C364 N367 1.301 . S
C364 N368 1.328 . S
C364 H369 0.930 . S
C365 C366 1.333 . S
C365 N367 1.317 . S
C365 H370 0.930 . S
C366 C365 1.333 . S
C366 N368 1.350 . S
C366 H392 0.931 . S
N367 Co363 2.148 . S
N367 C364 1.301 . S
N367 C365 1.317 . S
N368 C364 1.328 . S
N368 C366 1.350 . S
H369 C364 0.930 . S
H370 C365 0.930 . S
C371 O372 1.224 . S
C371 O390 1.247 1_545 S
O372 C371 1.224 . S
N373 Co363 2.128 . S
N373 C374 1.355 . S
N373 C376 1.311 . S
C374 N373 1.355 . S
C374 C375 1.363 . S
C374 H386 0.929 . S
C375 C374 1.363 . S
C375 N377 1.375 . S
C375 H393 0.931 . S
C376 N373 1.311 . S
C376 N377 1.347 . S
C376 H387 0.929 . S
N377 C375 1.375 . S
N377 C376 1.347 . S
C378 C381 1.365 . S
C378 N383 1.328 . S
C378 H384 0.929 . S
C379 C380 1.362 . S
C379 C382 1.378 . S
C379 H394 0.929 . S
C380 C379 1.362 . S
C380 C381 1.366 . S
C381 C378 1.365 . S
C381 C380 1.366 . S
C381 H395 0.930 . S
C382 C379 1.378 . S
C382 N383 1.315 . S
C382 H385 0.930 . S
N383 Co363 2.194 . S
N383 C378 1.328 . S
N383 C382 1.315 . S
H384 C378 0.929 . S
H385 C382 0.930 . S
H386 C374 0.929 . S
H387 C376 0.929 . S
O388 Co363 2.351 . S
O388 C391 1.244 . S
O389 Co363 2.155 . S
O389 C391 1.240 . S
O390 Co363 2.096 . S
O390 C371 1.247 1_565 S
C391 O388 1.244 . S
C391 O389 1.240 . S
H392 C366 0.931 . S
H393 C375 0.931 . S
H394 C379 0.929 . S
H395 C381 0.930 . S
C396 C397 1.349 . S
C396 C398 1.327 . S
C396 H421 0.950 . S
C397 C396 1.349 . S
C397 C413 1.349 . S
C398 C396 1.327 . S
C398 C417 1.429 . S
C398 H422 0.950 . S
C399 C416 1.574 . S
C399 C418 1.368 . S
C399 H423 0.949 . S
H400 C404 0.949 . S
C401 C402 1.349 . S
C401 C403 1.327 . S
C401 H424 0.950 . S
C402 C401 1.349 . S
C402 C414 1.349 . S
C403 C401 1.327 . S
C403 C419 1.429 . S
C403 H425 0.950 . S
C404 H400 0.949 . S
C404 C412 1.574 . S
C404 C420 1.368 . S
H405 C413 0.950 . S
H406 C411 0.950 . S
H407 C412 0.949 . S
H408 C414 0.950 . S
H409 C415 0.950 . S
H410 C416 0.949 . S
C411 H406 0.950 . S
C411 C413 1.327 . S
C411 C417 1.429 . S
C412 C404 1.574 . S
C412 H407 0.949 . S
C412 C418 1.368 . S
C413 C397 1.349 . S
C413 H405 0.950 . S
C413 C411 1.327 . S
C414 C402 1.349 . S
C414 H408 0.950 . S
C414 C415 1.327 . S
C415 H409 0.950 . S
C415 C414 1.327 . S
C415 C419 1.429 . S
C416 C399 1.574 . S
C416 H410 0.949 . S
C416 C420 1.368 . S
C417 C398 1.429 . S
C417 C411 1.429 . S
C417 C418 1.523 . S
C418 C399 1.368 . S
C418 C412 1.368 . S
C418 C417 1.523 . S
C419 C403 1.429 . S
C419 C415 1.429 . S
C419 C420 1.523 . S
C420 C404 1.368 . S
C420 C416 1.368 . S
C420 C419 1.523 . S
H421 C396 0.950 . S
H422 C398 0.950 . S
H423 C399 0.949 . S
H424 C401 0.950 . S
H425 C403 0.950 . S
C426 C427 1.349 . S
C426 C428 1.327 . S
C426 H451 0.950 . S
C427 C426 1.349 . S
C427 C443 1.349 . S
C428 C426 1.327 . S
C428 C447 1.429 . S
C428 H452 0.950 . S
C429 C446 1.574 . S
C429 C448 1.368 . S
C429 H453 0.949 . S
H430 C434 0.949 . S
C431 C432 1.349 . S
C431 C433 1.327 . S
C431 H454 0.950 . S
C432 C431 1.349 . S
C432 C444 1.349 . S
C433 C431 1.327 . S
C433 C449 1.429 . S
C433 H455 0.950 . S
C434 H430 0.949 . S
C434 C442 1.574 . S
C434 C450 1.368 . S
H435 C443 0.950 . S
H436 C441 0.950 . S
H437 C442 0.949 . S
H438 C444 0.950 . S
H439 C445 0.950 . S
H440 C446 0.949 . S
C441 H436 0.950 . S
C441 C443 1.327 . S
C441 C447 1.429 . S
C442 C434 1.574 . S
C442 H437 0.949 . S
C442 C448 1.368 . S
C443 C427 1.349 . S
C443 H435 0.950 . S
C443 C441 1.327 . S
C444 C432 1.349 . S
C444 H438 0.950 . S
C444 C445 1.327 . S
C445 H439 0.950 . S
C445 C444 1.327 . S
C445 C449 1.429 . S
C446 C429 1.574 . S
C446 H440 0.949 . S
C446 C450 1.368 . S
C447 C428 1.429 . S
C447 C441 1.429 . S
C447 C448 1.523 . S
C448 C429 1.368 . S
C448 C442 1.368 . S
C448 C447 1.523 . S
C449 C433 1.429 . S
C449 C445 1.429 . S
C449 C450 1.523 . S
C450 C434 1.368 . S
C450 C446 1.368 . S
C450 C449 1.523 . S
H451 C426 0.950 . S
H452 C428 0.950 . S
H453 C429 0.949 . S
H454 C431 0.950 . S
H455 C433 0.950 . S
C456 C457 1.349 . S
C456 C458 1.327 . S
C456 H481 0.950 . S
C457 C456 1.349 . S
C457 C473 1.349 . S
C458 C456 1.327 . S
C458 C477 1.429 . S
C458 H482 0.950 . S
C459 C476 1.574 . S
C459 C478 1.368 . S
C459 H483 0.949 . S
H460 C464 0.949 . S
C461 C462 1.349 . S
C461 C463 1.327 . S
C461 H484 0.950 1_556 S
C462 C461 1.349 . S
C462 C474 1.349 . S
C463 C461 1.327 . S
C463 C479 1.429 . S
C463 H485 0.950 . S
C464 H460 0.949 . S
C464 C472 1.574 . S
C464 C480 1.368 . S
H465 C473 0.950 . S
H466 C471 0.950 . S
H467 C472 0.949 . S
H468 C474 0.950 . S
H469 C475 0.950 . S
H470 C476 0.949 . S
C471 H466 0.950 . S
C471 C473 1.327 . S
C471 C477 1.429 . S
C472 C464 1.574 . S
C472 H467 0.949 . S
C472 C478 1.368 . S
C473 C457 1.349 . S
C473 H465 0.950 . S
C473 C471 1.327 . S
C474 C462 1.349 . S
C474 H468 0.950 . S
C474 C475 1.327 . S
C475 H469 0.950 . S
C475 C474 1.327 . S
C475 C479 1.429 . S
C476 C459 1.574 . S
C476 H470 0.949 . S
C476 C480 1.368 . S
C477 C458 1.429 . S
C477 C471 1.429 . S
C477 C478 1.523 . S
C478 C459 1.368 . S
C478 C472 1.368 . S
C478 C477 1.523 . S
C479 C463 1.429 . S
C479 C475 1.429 . S
C479 C480 1.523 . S
C480 C464 1.368 . S
C480 C476 1.368 . S
C480 C479 1.523 . S
H481 C456 0.950 . S
H482 C458 0.950 . S
H483 C459 0.949 . S
H484 C461 0.950 1_554 S
H485 C463 0.950 . S
C486 C487 1.349 . S
C486 C488 1.327 . S
C486 H511 0.950 . S
C487 C486 1.349 . S
C487 C503 1.349 . S
C488 C486 1.327 . S
C488 C507 1.429 . S
C488 H512 0.950 . S
C489 C506 1.574 . S
C489 C508 1.368 . S
C489 H513 0.949 . S
H490 C494 0.949 . S
C491 C492 1.349 . S
C491 C493 1.327 . S
C491 H514 0.950 . S
C492 C491 1.349 . S
C492 C504 1.349 . S
C493 C491 1.327 . S
C493 C509 1.429 . S
C493 H515 0.950 . S
C494 H490 0.949 . S
C494 C502 1.574 . S
C494 C510 1.368 . S
H495 C503 0.950 1_556 S
H496 C501 0.950 . S
H497 C502 0.949 . S
H498 C504 0.950 . S
H499 C505 0.950 . S
H500 C506 0.949 . S
C501 H496 0.950 . S
C501 C503 1.327 . S
C501 C507 1.429 . S
C502 C494 1.574 . S
C502 H497 0.949 . S
C502 C508 1.368 . S
C503 C487 1.349 . S
C503 H495 0.950 1_554 S
C503 C501 1.327 . S
C504 C492 1.349 . S
C504 H498 0.950 . S
C504 C505 1.327 . S
C505 H499 0.950 . S
C505 C504 1.327 . S
C505 C509 1.429 . S
C506 C489 1.574 . S
C506 H500 0.949 . S
C506 C510 1.368 . S
C507 C488 1.429 . S
C507 C501 1.429 . S
C507 C508 1.523 . S
C508 C489 1.368 . S
C508 C502 1.368 . S
C508 C507 1.523 . S
C509 C493 1.429 . S
C509 C505 1.429 . S
C509 C510 1.523 . S
C510 C494 1.368 . S
C510 C506 1.368 . S
C510 C509 1.523 . S
H511 C486 0.950 . S
H512 C488 0.950 . S
H513 C489 0.949 . S
H514 C491 0.950 . S
H515 C493 0.950 . S
C516 C517 1.349 . S
C516 C518 1.327 . S
C516 H541 0.950 . S
C517 C516 1.349 . S
C517 C533 1.349 . S
C518 C516 1.327 . S
C518 C537 1.429 . S
C518 H542 0.950 . S
C519 C536 1.574 . S
C519 C538 1.368 . S
C519 H543 0.949 . S
H520 C524 0.949 . S
C521 C522 1.349 . S
C521 C523 1.327 . S
C521 H544 0.950 . S
C522 C521 1.349 . S
C522 C534 1.349 . S
C523 C521 1.327 . S
C523 C539 1.429 . S
C523 H545 0.950 . S
C524 H520 0.949 . S
C524 C532 1.574 . S
C524 C540 1.368 . S
H525 C533 0.950 . S
H526 C531 0.950 . S
H527 C532 0.949 . S
H528 C534 0.950 . S
H529 C535 0.950 . S
H530 C536 0.949 . S
C531 H526 0.950 . S
C531 C533 1.327 . S
C531 C537 1.429 . S
C532 C524 1.574 . S
C532 H527 0.949 . S
C532 C538 1.368 . S
C533 C517 1.349 . S
C533 H525 0.950 . S
C533 C531 1.327 . S
C534 C522 1.349 . S
C534 H528 0.950 . S
C534 C535 1.327 . S
C535 H529 0.950 . S
C535 C534 1.327 . S
C535 C539 1.429 . S
C536 C519 1.574 . S
C536 H530 0.949 . S
C536 C540 1.368 . S
C537 C518 1.429 . S
C537 C531 1.429 . S
C537 C538 1.523 . S
C538 C519 1.368 . S
C538 C532 1.368 . S
C538 C537 1.523 . S
C539 C523 1.429 . S
C539 C535 1.429 . S
C539 C540 1.523 . S
C540 C524 1.368 . S
C540 C536 1.368 . S
C540 C539 1.523 . S
H541 C516 0.950 . S
H542 C518 0.950 . S
H543 C519 0.949 . S
H544 C521 0.950 . S
H545 C523 0.950 . S
C546 C547 1.349 . S
C546 C548 1.327 . S
C546 H571 0.950 . S
C547 C546 1.349 . S
C547 C563 1.349 . S
C548 C546 1.327 . S
C548 C567 1.429 . S
C548 H572 0.950 . S
C549 C566 1.574 . S
C549 C568 1.368 . S
C549 H573 0.949 . S
H550 C554 0.949 . S
C551 C552 1.349 . S
C551 C553 1.327 . S
C551 H574 0.950 . S
C552 C551 1.349 . S
C552 C564 1.349 . S
C553 C551 1.327 . S
C553 C569 1.429 . S
C553 H575 0.950 . S
C554 H550 0.949 . S
C554 C562 1.574 . S
C554 C570 1.368 . S
H555 C563 0.950 . S
H556 C561 0.950 . S
H557 C562 0.949 . S
H558 C564 0.950 . S
H559 C565 0.950 . S
H560 C566 0.949 . S
C561 H556 0.950 . S
C561 C563 1.327 . S
C561 C567 1.429 . S
C562 C554 1.574 . S
C562 H557 0.949 . S
C562 C568 1.368 . S
C563 C547 1.349 . S
C563 H555 0.950 . S
C563 C561 1.327 . S
C564 C552 1.349 . S
C564 H558 0.950 . S
C564 C565 1.327 . S
C565 H559 0.950 . S
C565 C564 1.327 . S
C565 C569 1.429 . S
C566 C549 1.574 . S
C566 H560 0.949 . S
C566 C570 1.368 . S
C567 C548 1.429 . S
C567 C561 1.429 . S
C567 C568 1.523 . S
C568 C549 1.368 . S
C568 C562 1.368 . S
C568 C567 1.523 . S
C569 C553 1.429 . S
C569 C565 1.429 . S
C569 C570 1.523 . S
C570 C554 1.368 . S
C570 C566 1.368 . S
C570 C569 1.523 . S
H571 C546 0.950 . S
H572 C548 0.950 . S
H573 C549 0.949 . S
H574 C551 0.950 . S
H575 C553 0.950 . S
C576 C577 1.349 . S
C576 C578 1.327 . S
C576 H601 0.950 . S
C577 C576 1.349 . S
C577 C593 1.349 . S
C578 C576 1.327 . S
C578 C597 1.429 . S
C578 H602 0.950 . S
C579 C596 1.574 . S
C579 C598 1.368 . S
C579 H603 0.949 . S
H580 C584 0.949 . S
C581 C582 1.349 . S
C581 C583 1.327 . S
C581 H604 0.950 . S
C582 C581 1.349 . S
C582 C594 1.349 . S
C583 C581 1.327 . S
C583 C599 1.429 . S
C583 H605 0.950 . S
C584 H580 0.949 . S
C584 C592 1.574 . S
C584 C600 1.368 . S
H585 C593 0.950 . S
H586 C591 0.950 . S
H587 C592 0.949 . S
H588 C594 0.950 . S
H589 C595 0.950 . S
H590 C596 0.949 . S
C591 H586 0.950 . S
C591 C593 1.327 . S
C591 C597 1.429 . S
C592 C584 1.574 . S
C592 H587 0.949 . S
C592 C598 1.368 . S
C593 C577 1.349 . S
C593 H585 0.950 . S
C593 C591 1.327 . S
C594 C582 1.349 . S
C594 H588 0.950 . S
C594 C595 1.327 . S
C595 H589 0.950 . S
C595 C594 1.327 . S
C595 C599 1.429 . S
C596 C579 1.574 . S
C596 H590 0.949 . S
C596 C600 1.368 . S
C597 C578 1.429 . S
C597 C591 1.429 . S
C597 C598 1.523 . S
C598 C579 1.368 . S
C598 C592 1.368 . S
C598 C597 1.523 . S
C599 C583 1.429 . S
C599 C595 1.429 . S
C599 C600 1.523 . S
C600 C584 1.368 . S
C600 C596 1.368 . S
C600 C599 1.523 . S
H601 C576 0.950 . S
H602 C578 0.950 . S
H603 C579 0.949 . S
H604 C581 0.950 . S
H605 C583 0.950 . S
C606 C607 1.349 . S
C606 C608 1.327 . S
C606 H631 0.950 . S
C607 C606 1.349 . S
C607 C623 1.349 . S
C608 C606 1.327 . S
C608 C627 1.429 . S
C608 H632 0.950 . S
C609 C626 1.574 . S
C609 C628 1.368 . S
C609 H633 0.949 . S
H610 C614 0.949 . S
C611 C612 1.349 . S
C611 C613 1.327 . S
C611 H634 0.950 . S
C612 C611 1.349 . S
C612 C624 1.349 . S
C613 C611 1.327 . S
C613 C629 1.429 . S
C613 H635 0.950 . S
C614 H610 0.949 . S
C614 C622 1.574 . S
C614 C630 1.368 . S
H615 C623 0.950 . S
H616 C621 0.950 . S
H617 C622 0.949 . S
H618 C624 0.950 . S
H619 C625 0.950 . S
H620 C626 0.949 . S
C621 H616 0.950 . S
C621 C623 1.327 . S
C621 C627 1.429 . S
C622 C614 1.574 . S
C622 H617 0.949 . S
C622 C628 1.368 . S
C623 C607 1.349 . S
C623 H615 0.950 . S
C623 C621 1.327 . S
C624 C612 1.349 . S
C624 H618 0.950 . S
C624 C625 1.327 . S
C625 H619 0.950 . S
C625 C624 1.327 . S
C625 C629 1.429 . S
C626 C609 1.574 . S
C626 H620 0.949 . S
C626 C630 1.368 . S
C627 C608 1.429 . S
C627 C621 1.429 . S
C627 C628 1.523 . S
C628 C609 1.368 . S
C628 C622 1.368 . S
C628 C627 1.523 . S
C629 C613 1.429 . S
C629 C625 1.429 . S
C629 C630 1.523 . S
C630 C614 1.368 . S
C630 C626 1.368 . S
C630 C629 1.523 . S
H631 C606 0.950 . S
H632 C608 0.950 . S
H633 C609 0.949 . S
H634 C611 0.950 . S
H635 C613 0.950 . S
C636 C637 1.349 . S
C636 C638 1.327 . S
C636 H661 0.950 . S
C637 C636 1.349 . S
C637 C653 1.349 . S
C638 C636 1.327 . S
C638 C657 1.429 . S
C638 H662 0.950 . S
C639 C656 1.574 . S
C639 C658 1.368 . S
C639 H663 0.949 . S
H640 C644 0.949 . S
C641 C642 1.349 . S
C641 C643 1.327 . S
C641 H664 0.950 . S
C642 C641 1.349 . S
C642 C654 1.349 . S
C643 C641 1.327 . S
C643 C659 1.429 . S
C643 H665 0.950 . S
C644 H640 0.949 . S
C644 C652 1.574 . S
C644 C660 1.368 . S
H645 C653 0.950 . S
H646 C651 0.950 . S
H647 C652 0.949 . S
H648 C654 0.950 . S
H649 C655 0.950 . S
H650 C656 0.949 . S
C651 H646 0.950 . S
C651 C653 1.327 . S
C651 C657 1.429 . S
C652 C644 1.574 . S
C652 H647 0.949 . S
C652 C658 1.368 . S
C653 C637 1.349 . S
C653 H645 0.950 . S
C653 C651 1.327 . S
C654 C642 1.349 . S
C654 H648 0.950 . S
C654 C655 1.327 . S
C655 H649 0.950 . S
C655 C654 1.327 . S
C655 C659 1.429 . S
C656 C639 1.574 . S
C656 H650 0.949 . S
C656 C660 1.368 . S
C657 C638 1.429 . S
C657 C651 1.429 . S
C657 C658 1.523 . S
C658 C639 1.368 . S
C658 C652 1.368 . S
C658 C657 1.523 . S
C659 C643 1.429 . S
C659 C655 1.429 . S
C659 C660 1.523 . S
C660 C644 1.368 . S
C660 C656 1.368 . S
C660 C659 1.523 . S
H661 C636 0.950 . S
H662 C638 0.950 . S
H663 C639 0.949 . S
H664 C641 0.950 . S
H665 C643 0.950 . S
C666 C667 1.349 . S
C666 C668 1.327 . S
C666 H691 0.950 . S
C667 C666 1.349 . S
C667 C683 1.349 . S
C668 C666 1.327 . S
C668 C687 1.429 . S
C668 H692 0.950 . S
C669 C686 1.574 . S
C669 C688 1.368 . S
C669 H693 0.949 . S
H670 C674 0.949 . S
C671 C672 1.349 . S
C671 C673 1.327 . S
C671 H694 0.950 . S
C672 C671 1.349 . S
C672 C684 1.349 . S
C673 C671 1.327 . S
C673 C689 1.429 . S
C673 H695 0.950 . S
C674 H670 0.949 . S
C674 C682 1.574 . S
C674 C690 1.368 . S
H675 C683 0.950 . S
H676 C681 0.950 . S
H677 C682 0.949 . S
H678 C684 0.950 . S
H679 C685 0.950 . S
H680 C686 0.949 . S
C681 H676 0.950 . S
C681 C683 1.327 . S
C681 C687 1.429 . S
C682 C674 1.574 . S
C682 H677 0.949 . S
C682 C688 1.368 . S
C683 C667 1.349 . S
C683 H675 0.950 . S
C683 C681 1.327 . S
C684 C672 1.349 . S
C684 H678 0.950 . S
C684 C685 1.327 . S
C685 H679 0.950 . S
C685 C684 1.327 . S
C685 C689 1.429 . S
C686 C669 1.574 . S
C686 H680 0.949 . S
C686 C690 1.368 . S
C687 C668 1.429 . S
C687 C681 1.429 . S
C687 C688 1.523 . S
C688 C669 1.368 . S
C688 C682 1.368 . S
C688 C687 1.523 . S
C689 C673 1.429 . S
C689 C685 1.429 . S
C689 C690 1.523 . S
C690 C674 1.368 . S
C690 C686 1.368 . S
C690 C689 1.523 . S
H691 C666 0.950 . S
H692 C668 0.950 . S
H693 C669 0.949 . S
H694 C671 0.950 . S
H695 C673 0.950 . S
C696 C697 1.349 . S
C696 C698 1.327 . S
C696 H721 0.950 1_554 S
C697 C696 1.349 . S
C697 C713 1.349 . S
C698 C696 1.327 . S
C698 C717 1.429 . S
C698 H722 0.950 . S
C699 C716 1.574 . S
C699 C718 1.368 . S
C699 H723 0.949 . S
H700 C704 0.949 . S
C701 C702 1.349 . S
C701 C703 1.327 . S
C701 H724 0.950 . S
C702 C701 1.349 . S
C702 C714 1.349 . S
C703 C701 1.327 . S
C703 C719 1.429 . S
C703 H725 0.950 . S
C704 H700 0.949 . S
C704 C712 1.574 . S
C704 C720 1.368 . S
H705 C713 0.950 . S
H706 C711 0.950 . S
H707 C712 0.949 . S
H708 C714 0.950 . S
H709 C715 0.950 . S
H710 C716 0.949 . S
C711 H706 0.950 . S
C711 C713 1.327 . S
C711 C717 1.429 . S
C712 C704 1.574 . S
C712 H707 0.949 . S
C712 C718 1.368 . S
C713 C697 1.349 . S
C713 H705 0.950 . S
C713 C711 1.327 . S
C714 C702 1.349 . S
C714 H708 0.950 . S
C714 C715 1.327 . S
C715 H709 0.950 . S
C715 C714 1.327 . S
C715 C719 1.429 . S
C716 C699 1.574 . S
C716 H710 0.949 . S
C716 C720 1.368 . S
C717 C698 1.429 . S
C717 C711 1.429 . S
C717 C718 1.523 . S
C718 C699 1.368 . S
C718 C712 1.368 . S
C718 C717 1.523 . S
C719 C703 1.429 . S
C719 C715 1.429 . S
C719 C720 1.523 . S
C720 C704 1.368 . S
C720 C716 1.368 . S
C720 C719 1.523 . S
H721 C696 0.950 1_556 S
H722 C698 0.950 . S
H723 C699 0.949 . S
H724 C701 0.950 . S
H725 C703 0.950 . S
C726 C727 1.349 . S
C726 C728 1.327 . S
C726 H751 0.950 . S
C727 C726 1.349 . S
C727 C743 1.349 . S
C728 C726 1.327 . S
C728 C747 1.429 . S
C728 H752 0.950 . S
C729 C746 1.574 . S
C729 C748 1.368 . S
C729 H753 0.949 . S
H730 C734 0.949 . S
C731 C732 1.349 . S
C731 C733 1.327 . S
C731 H754 0.950 . S
C732 C731 1.349 . S
C732 C744 1.349 . S
C733 C731 1.327 . S
C733 C749 1.429 . S
C733 H755 0.950 . S
C734 H730 0.949 . S
C734 C742 1.574 . S
C734 C750 1.368 . S
H735 C743 0.950 . S
H736 C741 0.950 . S
H737 C742 0.949 . S
H738 C744 0.950 . S
H739 C745 0.950 . S
H740 C746 0.949 . S
C741 H736 0.950 . S
C741 C743 1.327 . S
C741 C747 1.429 . S
C742 C734 1.574 . S
C742 H737 0.949 . S
C742 C748 1.368 . S
C743 C727 1.349 . S
C743 H735 0.950 . S
C743 C741 1.327 . S
C744 C732 1.349 . S
C744 H738 0.950 . S
C744 C745 1.327 . S
C745 H739 0.950 . S
C745 C744 1.327 . S
C745 C749 1.429 . S
C746 C729 1.574 . S
C746 H740 0.949 . S
C746 C750 1.368 . S
C747 C728 1.429 . S
C747 C741 1.429 . S
C747 C748 1.523 . S
C748 C729 1.368 . S
C748 C742 1.368 . S
C748 C747 1.523 . S
C749 C733 1.429 . S
C749 C745 1.429 . S
C749 C750 1.523 . S
C750 C734 1.368 . S
C750 C746 1.368 . S
C750 C749 1.523 . S
H751 C726 0.950 . S
H752 C728 0.950 . S
H753 C729 0.949 . S
H754 C731 0.950 . S
H755 C733 0.950 . S
C756 C757 1.349 . S
C756 C758 1.327 . S
C756 H781 0.950 . S
C757 C756 1.349 . S
C757 C773 1.349 . S
C758 C756 1.327 . S
C758 C777 1.429 . S
C758 H782 0.950 . S
C759 C776 1.574 . S
C759 C778 1.368 . S
C759 H783 0.949 . S
H760 C764 0.949 . S
C761 C762 1.349 . S
C761 C763 1.327 . S
C761 H784 0.950 . S
C762 C761 1.349 . S
C762 C774 1.349 . S
C763 C761 1.327 . S
C763 C779 1.429 . S
C763 H785 0.950 . S
C764 H760 0.949 . S
C764 C772 1.574 . S
C764 C780 1.368 . S
H765 C773 0.950 . S
H766 C771 0.950 . S
H767 C772 0.949 . S
H768 C774 0.950 . S
H769 C775 0.950 . S
H770 C776 0.949 . S
C771 H766 0.950 . S
C771 C773 1.327 . S
C771 C777 1.429 . S
C772 C764 1.574 . S
C772 H767 0.949 . S
C772 C778 1.368 . S
C773 C757 1.349 . S
C773 H765 0.950 . S
C773 C771 1.327 . S
C774 C762 1.349 . S
C774 H768 0.950 . S
C774 C775 1.327 . S
C775 H769 0.950 . S
C775 C774 1.327 . S
C775 C779 1.429 . S
C776 C759 1.574 . S
C776 H770 0.949 . S
C776 C780 1.368 . S
C777 C758 1.429 . S
C777 C771 1.429 . S
C777 C778 1.523 . S
C778 C759 1.368 . S
C778 C772 1.368 . S
C778 C777 1.523 . S
C779 C763 1.429 . S
C779 C775 1.429 . S
C779 C780 1.523 . S
C780 C764 1.368 . S
C780 C776 1.368 . S
C780 C779 1.523 . S
H781 C756 0.950 . S
H782 C758 0.950 . S
H783 C759 0.949 . S
H784 C761 0.950 . S
H785 C763 0.950 . S
C786 C787 1.349 . S
C786 C788 1.327 . S
C786 H811 0.950 . S
C787 C786 1.349 . S
C787 C803 1.349 . S
C788 C786 1.327 . S
C788 C807 1.429 . S
C788 H812 0.950 . S
C789 C806 1.574 . S
C789 C808 1.368 . S
C789 H813 0.949 . S
H790 C794 0.949 . S
C791 C792 1.349 . S
C791 C793 1.327 . S
C791 H814 0.950 . S
C792 C791 1.349 . S
C792 C804 1.349 . S
C793 C791 1.327 . S
C793 C809 1.429 . S
C793 H815 0.950 . S
C794 H790 0.949 . S
C794 C802 1.574 . S
C794 C810 1.368 . S
H795 C803 0.950 . S
H796 C801 0.950 . S
H797 C802 0.949 . S
H798 C804 0.950 . S
H799 C805 0.950 . S
H800 C806 0.949 . S
C801 H796 0.950 . S
C801 C803 1.327 . S
C801 C807 1.429 . S
C802 C794 1.574 . S
C802 H797 0.949 . S
C802 C808 1.368 . S
C803 C787 1.349 . S
C803 H795 0.950 . S
C803 C801 1.327 . S
C804 C792 1.349 . S
C804 H798 0.950 . S
C804 C805 1.327 . S
C805 H799 0.950 . S
C805 C804 1.327 . S
C805 C809 1.429 . S
C806 C789 1.574 . S
C806 H800 0.949 . S
C806 C810 1.368 . S
C807 C788 1.429 . S
C807 C801 1.429 . S
C807 C808 1.523 . S
C808 C789 1.368 . S
C808 C802 1.368 . S
C808 C807 1.523 . S
C809 C793 1.429 . S
C809 C805 1.429 . S
C809 C810 1.523 . S
C810 C794 1.368 . S
C810 C806 1.368 . S
C810 C809 1.523 . S
H811 C786 0.950 . S
H812 C788 0.950 . S
H813 C789 0.949 . S
H814 C791 0.950 . S
H815 C793 0.950 . S
C816 C817 1.349 . S
C816 C818 1.327 . S
C816 H841 0.950 . S
C817 C816 1.349 . S
C817 C833 1.349 . S
C818 C816 1.327 . S
C818 C837 1.429 . S
C818 H842 0.950 . S
C819 C836 1.574 . S
C819 C838 1.368 . S
C819 H843 0.949 . S
H820 C824 0.949 . S
C821 C822 1.349 . S
C821 C823 1.327 . S
C821 H844 0.950 . S
C822 C821 1.349 . S
C822 C834 1.349 . S
C823 C821 1.327 . S
C823 C839 1.429 . S
C823 H845 0.950 . S
C824 H820 0.949 . S
C824 C832 1.574 . S
C824 C840 1.368 . S
H825 C833 0.950 . S
H826 C831 0.950 . S
H827 C832 0.949 . S
H828 C834 0.950 . S
H829 C835 0.950 . S
H830 C836 0.949 . S
C831 H826 0.950 . S
C831 C833 1.327 . S
C831 C837 1.429 . S
C832 C824 1.574 . S
C832 H827 0.949 . S
C832 C838 1.368 . S
C833 C817 1.349 . S
C833 H825 0.950 . S
C833 C831 1.327 . S
C834 C822 1.349 . S
C834 H828 0.950 . S
C834 C835 1.327 . S
C835 H829 0.950 . S
C835 C834 1.327 . S
C835 C839 1.429 . S
C836 C819 1.574 . S
C836 H830 0.949 . S
C836 C840 1.368 . S
C837 C818 1.429 . S
C837 C831 1.429 . S
C837 C838 1.523 . S
C838 C819 1.368 . S
C838 C832 1.368 . S
C838 C837 1.523 . S
C839 C823 1.429 . S
C839 C835 1.429 . S
C839 C840 1.523 . S
C840 C824 1.368 . S
C840 C836 1.368 . S
C840 C839 1.523 . S
H841 C816 0.950 . S
H842 C818 0.950 . S
H843 C819 0.949 . S
H844 C821 0.950 . S
H845 C823 0.950 . S
C846 C847 1.349 1_554 S
C846 C848 1.327 1_554 S
C846 H871 0.950 . S
C847 C846 1.349 1_556 S
C847 C863 1.349 . S
C848 C846 1.327 1_556 S
C848 C867 1.429 . S
C848 H872 0.950 1_556 S
C849 C866 1.574 . S
C849 C868 1.368 . S
C849 H873 0.949 . S
H850 C854 0.949 . S
C851 C852 1.349 . S
C851 C853 1.327 . S
C851 H874 0.950 . S
C852 C851 1.349 . S
C852 C864 1.349 . S
C853 C851 1.327 . S
C853 C869 1.429 . S
C853 H875 0.950 . S
C854 H850 0.949 . S
C854 C862 1.574 . S
C854 C870 1.368 . S
H855 C863 0.950 . S
H856 C861 0.950 . S
H857 C862 0.949 . S
H858 C864 0.950 . S
H859 C865 0.950 . S
H860 C866 0.949 . S
C861 H856 0.950 . S
C861 C863 1.327 . S
C861 C867 1.429 . S
C862 C854 1.574 . S
C862 H857 0.949 . S
C862 C868 1.368 . S
C863 C847 1.349 . S
C863 H855 0.950 . S
C863 C861 1.327 . S
C864 C852 1.349 . S
C864 H858 0.950 . S
C864 C865 1.327 . S
C865 H859 0.950 . S
C865 C864 1.327 . S
C865 C869 1.429 . S
C866 C849 1.574 . S
C866 H860 0.949 . S
C866 C870 1.368 . S
C867 C848 1.429 . S
C867 C861 1.429 . S
C867 C868 1.523 . S
C868 C849 1.368 . S
C868 C862 1.368 . S
C868 C867 1.523 . S
C869 C853 1.429 . S
C869 C865 1.429 . S
C869 C870 1.523 . S
C870 C854 1.368 . S
C870 C866 1.368 . S
C870 C869 1.523 . S
H871 C846 0.950 . S
H872 C848 0.950 1_554 S
H873 C849 0.949 . S
H874 C851 0.950 . S
H875 C853 0.950 . S
C876 C877 1.349 . S
C876 C878 1.327 . S
C876 H901 0.950 . S
C877 C876 1.349 . S
C877 C893 1.349 . S
C878 C876 1.327 . S
C878 C897 1.429 . S
C878 H902 0.950 . S
C879 C896 1.574 . S
C879 C898 1.368 . S
C879 H903 0.949 . S
H880 C884 0.949 . S
C881 C882 1.349 . S
C881 C883 1.327 . S
C881 H904 0.950 . S
C882 C881 1.349 . S
C882 C894 1.349 . S
C883 C881 1.327 . S
C883 C899 1.429 . S
C883 H905 0.950 . S
C884 H880 0.949 . S
C884 C892 1.574 . S
C884 C900 1.368 . S
H885 C893 0.950 . S
H886 C891 0.950 . S
H887 C892 0.949 . S
H888 C894 0.950 . S
H889 C895 0.950 . S
H890 C896 0.949 . S
C891 H886 0.950 . S
C891 C893 1.327 . S
C891 C897 1.429 . S
C892 C884 1.574 . S
C892 H887 0.949 . S
C892 C898 1.368 . S
C893 C877 1.349 . S
C893 H885 0.950 . S
C893 C891 1.327 . S
C894 C882 1.349 . S
C894 H888 0.950 . S
C894 C895 1.327 . S
C895 H889 0.950 . S
C895 C894 1.327 . S
C895 C899 1.429 . S
C896 C879 1.574 . S
C896 H890 0.949 . S
C896 C900 1.368 . S
C897 C878 1.429 . S
C897 C891 1.429 . S
C897 C898 1.523 . S
C898 C879 1.368 . S
C898 C892 1.368 . S
C898 C897 1.523 . S
C899 C883 1.429 . S
C899 C895 1.429 . S
C899 C900 1.523 . S
C900 C884 1.368 . S
C900 C896 1.368 . S
C900 C899 1.523 . S
H901 C876 0.950 . S
H902 C878 0.950 . S
H903 C879 0.949 . S
H904 C881 0.950 . S
H905 C883 0.950 . S
C906 C907 1.349 . S
C906 C908 1.327 . S
C906 H931 0.950 . S
C907 C906 1.349 . S
C907 C923 1.349 . S
C908 C906 1.327 . S
C908 C927 1.429 . S
C908 H932 0.950 . S
C909 C926 1.574 . S
C909 C928 1.368 . S
C909 H933 0.949 . S
H910 C914 0.949 . S
C911 C912 1.349 . S
C911 C913 1.327 . S
C911 H934 0.950 . S
C912 C911 1.349 . S
C912 C924 1.349 . S
C913 C911 1.327 . S
C913 C929 1.429 . S
C913 H935 0.950 . S
C914 H910 0.949 . S
C914 C922 1.574 . S
C914 C930 1.368 . S
H915 C923 0.950 . S
H916 C921 0.950 . S
H917 C922 0.949 . S
H918 C924 0.950 . S
H919 C925 0.950 . S
H920 C926 0.949 . S
C921 H916 0.950 . S
C921 C923 1.327 . S
C921 C927 1.429 . S
C922 C914 1.574 . S
C922 H917 0.949 . S
C922 C928 1.368 . S
C923 C907 1.349 . S
C923 H915 0.950 . S
C923 C921 1.327 . S
C924 C912 1.349 . S
C924 H918 0.950 . S
C924 C925 1.327 . S
C925 H919 0.950 . S
C925 C924 1.327 . S
C925 C929 1.429 . S
C926 C909 1.574 . S
C926 H920 0.949 . S
C926 C930 1.368 . S
C927 C908 1.429 . S
C927 C921 1.429 . S
C927 C928 1.523 . S
C928 C909 1.368 . S
C928 C922 1.368 . S
C928 C927 1.523 . S
C929 C913 1.429 . S
C929 C925 1.429 . S
C929 C930 1.523 . S
C930 C914 1.368 . S
C930 C926 1.368 . S
C930 C929 1.523 . S
H931 C906 0.950 . S
H932 C908 0.950 . S
H933 C909 0.949 . S
H934 C911 0.950 . S
H935 C913 0.950 . S
C936 C937 1.349 . S
C936 C938 1.327 . S
C936 H961 0.950 . S
C937 C936 1.349 . S
C937 C953 1.349 . S
C938 C936 1.327 . S
C938 C957 1.429 . S
C938 H962 0.950 . S
C939 C956 1.574 . S
C939 C958 1.368 . S
C939 H963 0.949 . S
H940 C944 0.949 . S
C941 C942 1.349 . S
C941 C943 1.327 . S
C941 H964 0.950 . S
C942 C941 1.349 . S
C942 C954 1.349 . S
C943 C941 1.327 . S
C943 C959 1.429 . S
C943 H965 0.950 . S
C944 H940 0.949 . S
C944 C952 1.574 . S
C944 C960 1.368 . S
H945 C953 0.950 . S
H946 C951 0.950 . S
H947 C952 0.949 . S
H948 C954 0.950 . S
H949 C955 0.950 . S
H950 C956 0.949 . S
C951 H946 0.950 . S
C951 C953 1.327 . S
C951 C957 1.429 . S
C952 C944 1.574 . S
C952 H947 0.949 . S
C952 C958 1.368 . S
C953 C937 1.349 . S
C953 H945 0.950 . S
C953 C951 1.327 . S
C954 C942 1.349 . S
C954 H948 0.950 . S
C954 C955 1.327 . S
C955 H949 0.950 . S
C955 C954 1.327 . S
C955 C959 1.429 . S
C956 C939 1.574 . S
C956 H950 0.949 . S
C956 C960 1.368 . S
C957 C938 1.429 . S
C957 C951 1.429 . S
C957 C958 1.523 . S
C958 C939 1.368 . S
C958 C952 1.368 . S
C958 C957 1.523 . S
C959 C943 1.429 . S
C959 C955 1.429 . S
C959 C960 1.523 . S
C960 C944 1.368 . S
C960 C956 1.368 . S
C960 C959 1.523 . S
H961 C936 0.950 . S
H962 C938 0.950 . S
H963 C939 0.949 . S
H964 C941 0.950 . S
H965 C943 0.950 . S
C966 C967 1.349 . S
C966 C968 1.327 . S
C966 H991 0.950 . S
C967 C966 1.349 . S
C967 C983 1.349 . S
C968 C966 1.327 . S
C968 C987 1.429 . S
C968 H992 0.950 . S
C969 C986 1.574 . S
C969 C988 1.368 . S
C969 H993 0.949 . S
H970 C974 0.949 . S
C971 C972 1.349 . S
C971 C973 1.327 . S
C971 H994 0.950 . S
C972 C971 1.349 . S
C972 C984 1.349 . S
C973 C971 1.327 . S
C973 C989 1.429 . S
C973 H995 0.950 . S
C974 H970 0.949 . S
C974 C982 1.574 . S
C974 C990 1.368 . S
H975 C983 0.950 . S
H976 C981 0.950 . S
H977 C982 0.949 . S
H978 C984 0.950 . S
H979 C985 0.950 . S
H980 C986 0.949 . S
C981 H976 0.950 . S
C981 C983 1.327 . S
C981 C987 1.429 . S
C982 C974 1.574 . S
C982 H977 0.949 . S
C982 C988 1.368 . S
C983 C967 1.349 . S
C983 H975 0.950 . S
C983 C981 1.327 . S
C984 C972 1.349 . S
C984 H978 0.950 . S
C984 C985 1.327 . S
C985 H979 0.950 . S
C985 C984 1.327 . S
C985 C989 1.429 . S
C986 C969 1.574 . S
C986 H980 0.949 . S
C986 C990 1.368 . S
C987 C968 1.429 . S
C987 C981 1.429 . S
C987 C988 1.523 . S
C988 C969 1.368 . S
C988 C982 1.368 . S
C988 C987 1.523 . S
C989 C973 1.429 . S
C989 C985 1.429 . S
C989 C990 1.523 . S
C990 C974 1.368 . S
C990 C986 1.368 . S
C990 C989 1.523 . S
H991 C966 0.950 . S
H992 C968 0.950 . S
H993 C969 0.949 . S
H994 C971 0.950 . S
H995 C973 0.950 . S
C996 C997 1.349 . S
C996 C998 1.327 . S
C996 H1021 0.950 . S
C997 C996 1.349 . S
C997 C1013 1.349 . S
C998 C996 1.327 . S
C998 C1017 1.429 . S
C998 H1022 0.950 . S
C999 C1016 1.574 . S
C999 C1018 1.368 . S
C999 H1023 0.949 . S
H1000 C1004 0.949 . S
C1001 C1002 1.349 . S
C1001 C1003 1.327 . S
C1001 H1024 0.950 . S
C1002 C1001 1.349 . S
C1002 C1014 1.349 . S
C1003 C1001 1.327 . S
C1003 C1019 1.429 . S
C1003 H1025 0.950 . S
C1004 H1000 0.949 . S
C1004 C1012 1.574 . S
C1004 C1020 1.368 . S
H1005 C1013 0.950 . S
H1006 C1011 0.950 . S
H1007 C1012 0.949 . S
H1008 C1014 0.950 . S
H1009 C1015 0.950 . S
H1010 C1016 0.949 . S
C1011 H1006 0.950 . S
C1011 C1013 1.327 . S
C1011 C1017 1.429 . S
C1012 C1004 1.574 . S
C1012 H1007 0.949 . S
C1012 C1018 1.368 . S
C1013 C997 1.349 . S
C1013 H1005 0.950 . S
C1013 C1011 1.327 . S
C1014 C1002 1.349 . S
C1014 H1008 0.950 . S
C1014 C1015 1.327 . S
C1015 H1009 0.950 . S
C1015 C1014 1.327 . S
C1015 C1019 1.429 . S
C1016 C999 1.574 . S
C1016 H1010 0.949 . S
C1016 C1020 1.368 . S
C1017 C998 1.429 . S
C1017 C1011 1.429 . S
C1017 C1018 1.523 . S
C1018 C999 1.368 . S
C1018 C1012 1.368 . S
C1018 C1017 1.523 . S
C1019 C1003 1.429 . S
C1019 C1015 1.429 . S
C1019 C1020 1.523 . S
C1020 C1004 1.368 . S
C1020 C1016 1.368 . S
C1020 C1019 1.523 . S
H1021 C996 0.950 . S
H1022 C998 0.950 . S
H1023 C999 0.949 . S
H1024 C1001 0.950 . S
H1025 C1003 0.950 . S
C1026 C1027 1.349 . S
C1026 C1028 1.327 . S
C1026 H1051 0.950 . S
C1027 C1026 1.349 . S
C1027 C1043 1.349 . S
C1028 C1026 1.327 . S
C1028 C1047 1.429 . S
C1028 H1052 0.950 . S
C1029 C1046 1.574 . S
C1029 C1048 1.368 . S
C1029 H1053 0.949 . S
H1030 C1034 0.949 . S
C1031 C1032 1.349 . S
C1031 C1033 1.327 . S
C1031 H1054 0.950 . S
C1032 C1031 1.349 . S
C1032 C1044 1.349 . S
C1033 C1031 1.327 . S
C1033 C1049 1.429 . S
C1033 H1055 0.950 . S
C1034 H1030 0.949 . S
C1034 C1042 1.574 . S
C1034 C1050 1.368 . S
H1035 C1043 0.950 . S
H1036 C1041 0.950 . S
H1037 C1042 0.949 . S
H1038 C1044 0.950 . S
H1039 C1045 0.950 . S
H1040 C1046 0.949 . S
C1041 H1036 0.950 . S
C1041 C1043 1.327 . S
C1041 C1047 1.429 . S
C1042 C1034 1.574 . S
C1042 H1037 0.949 . S
C1042 C1048 1.368 . S
C1043 C1027 1.349 . S
C1043 H1035 0.950 . S
C1043 C1041 1.327 . S
C1044 C1032 1.349 . S
C1044 H1038 0.950 . S
C1044 C1045 1.327 . S
C1045 H1039 0.950 . S
C1045 C1044 1.327 . S
C1045 C1049 1.429 . S
C1046 C1029 1.574 . S
C1046 H1040 0.949 . S
C1046 C1050 1.368 . S
C1047 C1028 1.429 . S
C1047 C1041 1.429 . S
C1047 C1048 1.523 . S
C1048 C1029 1.368 . S
C1048 C1042 1.368 . S
C1048 C1047 1.523 . S
C1049 C1033 1.429 . S
C1049 C1045 1.429 . S
C1049 C1050 1.523 . S
C1050 C1034 1.368 . S
C1050 C1046 1.368 . S
C1050 C1049 1.523 . S
H1051 C1026 0.950 . S
H1052 C1028 0.950 . S
H1053 C1029 0.949 . S
H1054 C1031 0.950 . S
H1055 C1033 0.950 . S
C1056 C1057 1.349 . S
C1056 C1058 1.327 . S
C1056 H1081 0.950 . S
C1057 C1056 1.349 . S
C1057 C1073 1.349 . S
C1058 C1056 1.327 . S
C1058 C1077 1.429 . S
C1058 H1082 0.950 . S
C1059 C1076 1.574 . S
C1059 C1078 1.368 . S
C1059 H1083 0.949 . S
H1060 C1064 0.949 . S
C1061 C1062 1.349 . S
C1061 C1063 1.327 . S
C1061 H1084 0.950 . S
C1062 C1061 1.349 . S
C1062 C1074 1.349 . S
C1063 C1061 1.327 . S
C1063 C1079 1.429 . S
C1063 H1085 0.950 . S
C1064 H1060 0.949 . S
C1064 C1072 1.574 . S
C1064 C1080 1.368 . S
H1065 C1073 0.950 . S
H1066 C1071 0.950 . S
H1067 C1072 0.949 . S
H1068 C1074 0.950 . S
H1069 C1075 0.950 . S
H1070 C1076 0.949 . S
C1071 H1066 0.950 . S
C1071 C1073 1.327 . S
C1071 C1077 1.429 . S
C1072 C1064 1.574 . S
C1072 H1067 0.949 . S
C1072 C1078 1.368 . S
C1073 C1057 1.349 . S
C1073 H1065 0.950 . S
C1073 C1071 1.327 . S
C1074 C1062 1.349 . S
C1074 H1068 0.950 . S
C1074 C1075 1.327 . S
C1075 H1069 0.950 . S
C1075 C1074 1.327 . S
C1075 C1079 1.429 . S
C1076 C1059 1.574 . S
C1076 H1070 0.949 . S
C1076 C1080 1.368 . S
C1077 C1058 1.429 . S
C1077 C1071 1.429 . S
C1077 C1078 1.523 . S
C1078 C1059 1.368 . S
C1078 C1072 1.368 . S
C1078 C1077 1.523 . S
C1079 C1063 1.429 . S
C1079 C1075 1.429 . S
C1079 C1080 1.523 . S
C1080 C1064 1.368 . S
C1080 C1076 1.368 . S
C1080 C1079 1.523 . S
H1081 C1056 0.950 . S
H1082 C1058 0.950 . S
H1083 C1059 0.949 . S
H1084 C1061 0.950 . S
H1085 C1063 0.950 . S
C1086 C1087 1.349 . S
C1086 C1088 1.327 . S
C1086 H1111 0.950 . S
C1087 C1086 1.349 . S
C1087 C1103 1.349 . S
C1088 C1086 1.327 . S
C1088 C1107 1.429 . S
C1088 H1112 0.950 . S
C1089 C1106 1.574 . S
C1089 C1108 1.368 . S
C1089 H1113 0.949 . S
H1090 C1094 0.949 . S
C1091 C1092 1.349 . S
C1091 C1093 1.327 . S
C1091 H1114 0.950 . S
C1092 C1091 1.349 . S
C1092 C1104 1.349 . S
C1093 C1091 1.327 . S
C1093 C1109 1.429 . S
C1093 H1115 0.950 . S
C1094 H1090 0.949 . S
C1094 C1102 1.574 . S
C1094 C1110 1.368 . S
H1095 C1103 0.950 . S
H1096 C1101 0.950 . S
H1097 C1102 0.949 . S
H1098 C1104 0.950 . S
H1099 C1105 0.950 . S
H1100 C1106 0.949 . S
C1101 H1096 0.950 . S
C1101 C1103 1.327 . S
C1101 C1107 1.429 . S
C1102 C1094 1.574 . S
C1102 H1097 0.949 . S
C1102 C1108 1.368 . S
C1103 C1087 1.349 . S
C1103 H1095 0.950 . S
C1103 C1101 1.327 . S
C1104 C1092 1.349 . S
C1104 H1098 0.950 . S
C1104 C1105 1.327 . S
C1105 H1099 0.950 . S
C1105 C1104 1.327 . S
C1105 C1109 1.429 . S
C1106 C1089 1.574 . S
C1106 H1100 0.949 . S
C1106 C1110 1.368 . S
C1107 C1088 1.429 . S
C1107 C1101 1.429 . S
C1107 C1108 1.523 . S
C1108 C1089 1.368 . S
C1108 C1102 1.368 . S
C1108 C1107 1.523 . S
C1109 C1093 1.429 . S
C1109 C1105 1.429 . S
C1109 C1110 1.523 . S
C1110 C1094 1.368 . S
C1110 C1106 1.368 . S
C1110 C1109 1.523 . S
H1111 C1086 0.950 . S
H1112 C1088 0.950 . S
H1113 C1089 0.949 . S
H1114 C1091 0.950 . S
H1115 C1093 0.950 . S
C1116 C1117 1.349 . S
C1116 C1118 1.327 . S
C1116 H1141 0.950 . S
C1117 C1116 1.349 . S
C1117 C1133 1.349 . S
C1118 C1116 1.327 . S
C1118 C1137 1.429 . S
C1118 H1142 0.950 . S
C1119 C1136 1.574 . S
C1119 C1138 1.368 . S
C1119 H1143 0.949 . S
H1120 C1124 0.949 . S
C1121 C1122 1.349 . S
C1121 C1123 1.327 . S
C1121 H1144 0.950 . S
C1122 C1121 1.349 . S
C1122 C1134 1.349 . S
C1123 C1121 1.327 . S
C1123 C1139 1.429 . S
C1123 H1145 0.950 . S
C1124 H1120 0.949 . S
C1124 C1132 1.574 . S
C1124 C1140 1.368 . S
H1125 C1133 0.950 . S
H1126 C1131 0.950 . S
H1127 C1132 0.949 . S
H1128 C1134 0.950 . S
H1129 C1135 0.950 . S
H1130 C1136 0.949 . S
C1131 H1126 0.950 . S
C1131 C1133 1.327 . S
C1131 C1137 1.429 . S
C1132 C1124 1.574 . S
C1132 H1127 0.949 . S
C1132 C1138 1.368 . S
C1133 C1117 1.349 . S
C1133 H1125 0.950 . S
C1133 C1131 1.327 . S
C1134 C1122 1.349 . S
C1134 H1128 0.950 . S
C1134 C1135 1.327 . S
C1135 H1129 0.950 . S
C1135 C1134 1.327 . S
C1135 C1139 1.429 . S
C1136 C1119 1.574 . S
C1136 H1130 0.949 . S
C1136 C1140 1.368 . S
C1137 C1118 1.429 . S
C1137 C1131 1.429 . S
C1137 C1138 1.523 . S
C1138 C1119 1.368 . S
C1138 C1132 1.368 . S
C1138 C1137 1.523 . S
C1139 C1123 1.429 . S
C1139 C1135 1.429 . S
C1139 C1140 1.523 . S
C1140 C1124 1.368 . S
C1140 C1136 1.368 . S
C1140 C1139 1.523 . S
H1141 C1116 0.950 . S
H1142 C1118 0.950 . S
H1143 C1119 0.949 . S
H1144 C1121 0.950 . S
H1145 C1123 0.950 . S
C1146 C1147 1.349 . S
C1146 C1148 1.327 . S
C1146 H1171 0.950 . S
C1147 C1146 1.349 . S
C1147 C1163 1.349 . S
C1148 C1146 1.327 . S
C1148 C1167 1.429 . S
C1148 H1172 0.950 . S
C1149 C1166 1.574 . S
C1149 C1168 1.368 1_655 S
C1149 H1173 0.949 . S
H1150 C1154 0.949 . S
C1151 C1152 1.349 . S
C1151 C1153 1.327 . S
C1151 H1174 0.950 . S
C1152 C1151 1.349 . S
C1152 C1164 1.349 . S
C1153 C1151 1.327 . S
C1153 C1169 1.429 . S
C1153 H1175 0.950 . S
C1154 H1150 0.949 . S
C1154 C1162 1.574 . S
C1154 C1170 1.368 1_455 S
H1155 C1163 0.950 . S
H1156 C1161 0.950 . S
H1157 C1162 0.949 . S
H1158 C1164 0.950 . S
H1159 C1165 0.950 . S
H1160 C1166 0.949 . S
C1161 H1156 0.950 . S
C1161 C1163 1.327 . S
C1161 C1167 1.429 . S
C1162 C1154 1.574 . S
C1162 H1157 0.949 . S
C1162 C1168 1.368 . S
C1163 C1147 1.349 . S
C1163 H1155 0.950 . S
C1163 C1161 1.327 . S
C1164 C1152 1.349 . S
C1164 H1158 0.950 . S
C1164 C1165 1.327 . S
C1165 H1159 0.950 . S
C1165 C1164 1.327 . S
C1165 C1169 1.429 . S
C1166 C1149 1.574 . S
C1166 H1160 0.949 . S
C1166 C1170 1.368 . S
C1167 C1148 1.429 . S
C1167 C1161 1.429 . S
C1167 C1168 1.523 . S
C1168 C1149 1.368 1_455 S
C1168 C1162 1.368 . S
C1168 C1167 1.523 . S
C1169 C1153 1.429 . S
C1169 C1165 1.429 . S
C1169 C1170 1.523 . S
C1170 C1154 1.368 1_655 S
C1170 C1166 1.368 . S
C1170 C1169 1.523 . S
H1171 C1146 0.950 . S
H1172 C1148 0.950 . S
H1173 C1149 0.949 . S
H1174 C1151 0.950 . S
H1175 C1153 0.950 . S
C1176 C1177 1.349 1_565 S
C1176 C1178 1.327 . S
C1176 H1201 0.950 . S
C1177 C1176 1.349 1_545 S
C1177 C1193 1.349 . S
C1178 C1176 1.327 . S
C1178 C1197 1.429 1_565 S
C1178 H1202 0.950 . S
C1179 C1196 1.574 1_556 S
C1179 C1198 1.368 . S
C1179 H1203 0.949 . S
H1180 C1184 0.949 . S
C1181 C1182 1.349 1_545 S
C1181 C1183 1.327 . S
C1181 H1204 0.950 . S
C1182 C1181 1.349 1_565 S
C1182 C1194 1.349 . S
C1183 C1181 1.327 . S
C1183 C1199 1.429 1_545 S
C1183 H1205 0.950 . S
C1184 H1180 0.949 . S
C1184 C1192 1.574 1_554 S
C1184 C1200 1.368 . S
H1185 C1193 0.950 . S
H1186 C1191 0.950 . S
H1187 C1192 0.949 . S
H1188 C1194 0.950 . S
H1189 C1195 0.950 . S
H1190 C1196 0.949 . S
C1191 H1186 0.950 . S
C1191 C1193 1.327 . S
C1191 C1197 1.429 . S
C1192 C1184 1.574 1_556 S
C1192 H1187 0.949 . S
C1192 C1198 1.368 1_565 S
C1193 C1177 1.349 . S
C1193 H1185 0.950 . S
C1193 C1191 1.327 . S
C1194 C1182 1.349 . S
C1194 H1188 0.950 . S
C1194 C1195 1.327 . S
C1195 H1189 0.950 . S
C1195 C1194 1.327 . S
C1195 C1199 1.429 . S
C1196 C1179 1.574 1_554 S
C1196 H1190 0.949 . S
C1196 C1200 1.368 1_545 S
C1197 C1178 1.429 1_545 S
C1197 C1191 1.429 . S
C1197 C1198 1.523 . S
C1198 C1179 1.368 . S
C1198 C1192 1.368 1_545 S
C1198 C1197 1.523 . S
C1199 C1183 1.429 1_565 S
C1199 C1195 1.429 . S
C1199 C1200 1.523 . S
C1200 C1184 1.368 . S
C1200 C1196 1.368 1_565 S
C1200 C1199 1.523 . S
H1201 C1176 0.950 . S
H1202 C1178 0.950 . S
H1203 C1179 0.949 . S
H1204 C1181 0.950 . S
H1205 C1183 0.950 . S
C1206 C1207 1.349 . S
C1206 C1208 1.327 . S
C1206 H1231 0.950 . S
C1207 C1206 1.349 . S
C1207 C1223 1.349 . S
C1208 C1206 1.327 . S
C1208 C1227 1.429 . S
C1208 H1232 0.950 . S
C1209 C1226 1.574 . S
C1209 C1228 1.368 . S
C1209 H1233 0.949 . S
H1210 C1214 0.949 . S
C1211 C1212 1.349 . S
C1211 C1213 1.327 . S
C1211 H1234 0.950 . S
C1212 C1211 1.349 . S
C1212 C1224 1.349 . S
C1213 C1211 1.327 . S
C1213 C1229 1.429 . S
C1213 H1235 0.950 . S
C1214 H1210 0.949 . S
C1214 C1222 1.574 . S
C1214 C1230 1.368 . S
H1215 C1223 0.950 . S
H1216 C1221 0.950 . S
H1217 C1222 0.949 . S
H1218 C1224 0.950 . S
H1219 C1225 0.950 . S
H1220 C1226 0.949 . S
C1221 H1216 0.950 . S
C1221 C1223 1.327 . S
C1221 C1227 1.429 . S
C1222 C1214 1.574 . S
C1222 H1217 0.949 . S
C1222 C1228 1.368 . S
C1223 C1207 1.349 . S
C1223 H1215 0.950 . S
C1223 C1221 1.327 . S
C1224 C1212 1.349 . S
C1224 H1218 0.950 . S
C1224 C1225 1.327 . S
C1225 H1219 0.950 . S
C1225 C1224 1.327 . S
C1225 C1229 1.429 . S
C1226 C1209 1.574 . S
C1226 H1220 0.949 . S
C1226 C1230 1.368 . S
C1227 C1208 1.429 . S
C1227 C1221 1.429 . S
C1227 C1228 1.523 . S
C1228 C1209 1.368 . S
C1228 C1222 1.368 . S
C1228 C1227 1.523 . S
C1229 C1213 1.429 . S
C1229 C1225 1.429 . S
C1229 C1230 1.523 . S
C1230 C1214 1.368 . S
C1230 C1226 1.368 . S
C1230 C1229 1.523 . S
H1231 C1206 0.950 . S
H1232 C1208 0.950 . S
H1233 C1209 0.949 . S
H1234 C1211 0.950 . S
H1235 C1213 0.950 . S
C1236 C1237 1.349 . S
C1236 C1238 1.327 . S
C1236 H1261 0.950 . S
C1237 C1236 1.349 . S
C1237 C1253 1.349 . S
C1238 C1236 1.327 . S
C1238 C1257 1.429 . S
C1238 H1262 0.950 . S
C1239 C1256 1.572 1_655 S
C1239 C1258 1.349 . S
C1239 H1263 0.971 . S
H1240 C1244 0.971 . S
C1241 C1242 1.349 . S
C1241 C1243 1.327 . S
C1241 H1264 0.950 . S
C1242 C1241 1.349 . S
C1242 C1254 1.349 . S
C1243 C1241 1.327 . S
C1243 C1259 1.429 . S
C1243 H1265 0.950 . S
C1244 H1240 0.971 . S
C1244 C1252 1.572 1_455 S
C1244 C1260 1.348 . S
H1245 C1253 0.950 . S
H1246 C1251 0.950 . S
H1247 C1252 0.949 . S
H1248 C1254 0.950 . S
H1249 C1255 0.950 . S
H1250 C1256 0.949 . S
C1251 H1246 0.950 . S
C1251 C1253 1.327 . S
C1251 C1257 1.429 . S
C1252 C1244 1.572 1_655 S
C1252 H1247 0.949 . S
C1252 C1258 1.368 . S
C1253 C1237 1.349 . S
C1253 H1245 0.950 . S
C1253 C1251 1.327 . S
C1254 C1242 1.349 . S
C1254 H1248 0.950 . S
C1254 C1255 1.327 . S
C1255 H1249 0.950 . S
C1255 C1254 1.327 . S
C1255 C1259 1.429 . S
C1256 C1239 1.572 1_455 S
C1256 H1250 0.949 . S
C1256 C1260 1.368 . S
C1257 C1238 1.429 . S
C1257 C1251 1.429 . S
C1257 C1258 1.523 . S
C1258 C1239 1.349 . S
C1258 C1252 1.368 . S
C1258 C1257 1.523 . S
C1259 C1243 1.429 . S
C1259 C1255 1.429 . S
C1259 C1260 1.523 . S
C1260 C1244 1.348 . S
C1260 C1256 1.368 . S
C1260 C1259 1.523 . S
H1261 C1236 0.950 . S
H1262 C1238 0.950 . S
H1263 C1239 0.971 . S
H1264 C1241 0.950 . S
H1265 C1243 0.950 . S
C1266 C1267 1.349 . S
C1266 C1268 1.327 . S
C1266 H1291 0.950 . S
C1267 C1266 1.349 . S
C1267 C1283 1.349 1_545 S
C1268 C1266 1.327 . S
C1268 C1287 1.429 . S
C1268 H1292 0.950 . S
C1269 C1286 1.574 . S
C1269 C1288 1.368 1_565 S
C1269 H1293 0.949 . S
H1270 C1274 0.949 . S
C1271 C1272 1.349 . S
C1271 C1273 1.327 . S
C1271 H1294 0.950 . S
C1272 C1271 1.349 . S
C1272 C1284 1.349 1_565 S
C1273 C1271 1.327 . S
C1273 C1289 1.429 . S
C1273 H1295 0.950 . S
C1274 H1270 0.949 . S
C1274 C1282 1.574 . S
C1274 C1290 1.368 1_545 S
H1275 C1283 0.950 . S
H1276 C1281 0.950 . S
H1277 C1282 0.949 . S
H1278 C1284 0.950 . S
H1279 C1285 0.950 . S
H1280 C1286 0.949 . S
C1281 H1276 0.950 . S
C1281 C1283 1.327 . S
C1281 C1287 1.429 1_565 S
C1282 C1274 1.574 . S
C1282 H1277 0.949 . S
C1282 C1288 1.368 . S
C1283 C1267 1.349 1_565 S
C1283 H1275 0.950 . S
C1283 C1281 1.327 . S
C1284 C1272 1.349 1_545 S
C1284 H1278 0.950 . S
C1284 C1285 1.327 . S
C1285 H1279 0.950 . S
C1285 C1284 1.327 . S
C1285 C1289 1.429 1_545 S
C1286 C1269 1.574 . S
C1286 H1280 0.949 . S
C1286 C1290 1.368 . S
C1287 C1268 1.429 . S
C1287 C1281 1.429 1_545 S
C1287 C1288 1.523 . S
C1288 C1269 1.368 1_545 S
C1288 C1282 1.368 . S
C1288 C1287 1.523 . S
C1289 C1273 1.429 . S
C1289 C1285 1.429 1_565 S
C1289 C1290 1.523 . S
C1290 C1274 1.368 1_565 S
C1290 C1286 1.368 . S
C1290 C1289 1.523 . S
H1291 C1266 0.950 . S
H1292 C1268 0.950 . S
H1293 C1269 0.949 . S
H1294 C1271 0.950 . S
H1295 C1273 0.950 . S
C397 C292 0.430 . S
C402 C28 0.430 . S
C427 C61 0.430 . S
C432 C325 0.430 . S
C457 C94 0.430 . S
C462 C358 0.430 . S
C487 C127 0.430 . S
C492 C391 0.430 . S
C517 C160 0.430 . S
C522 C226 0.430 . S
C547 C193 0.430 . S
C552 C259 0.430 . S
C577 N5 1.710 . S
C582 C173 1.729 . S
C607 C8 1.729 . S
C612 N38 1.710 . S
C637 N71 1.710 . S
C642 C41 1.729 . S
C667 C74 1.729 . S
C672 N104 1.710 . S
C697 C107 1.729 . S
C702 N137 1.710 . S
C727 N170 1.710 . S
C732 C140 1.729 . S
C757 C239 1.729 . S
C762 N203 1.710 . S
C787 C272 1.729 . S
C792 N236 1.710 . S
C817 C305 1.729 . S
C822 N269 1.710 . S
C847 C338 1.729 1_556 S
C852 N302 1.710 . S
C877 C371 1.729 . S
C882 N335 1.710 . S
C907 N368 1.710 . S
C912 C206 1.729 . S
C937 C17 1.242 . S
C942 C215 1.242 . S
C967 C50 1.243 . S
C972 C248 1.243 . S
C997 C83 1.242 . S
C1002 C281 1.242 . S
C1027 C116 1.242 . S
C1032 C314 1.242 . S
C1057 C347 1.243 . S
C1062 C149 1.243 . S
C1087 C182 1.242 . S
C1092 C380 1.242 . S
C1117 N311 0.739 . S
C1122 N14 0.739 . S
C1147 N47 0.738 . S
C1152 N344 0.738 . S
C1177 N80 0.739 . S
C1182 N377 0.739 . S
C1207 N113 0.739 . S
C1212 N212 0.739 . S
C1237 N146 0.739 . S
C1242 N245 0.739 . S
C1267 N278 0.738 . S
C1272 N179 0.738 . S
